# Generated by pormake.
# Topology ptr, (4,4)-cn, num edge types: 1
# Building blocks:
#     Node 0, Type 0, BuildingBlock: QUQFOY_clean_sbu_1, # of connection points: 4
#     Node 1, Type 0, BuildingBlock: QUQFOY_clean_sbu_1, # of connection points: 4
#     Node 2, Type 0, BuildingBlock: QUQFOY_clean_sbu_1, # of connection points: 4
#     Node 3, Type 0, BuildingBlock: QUQFOY_clean_sbu_1, # of connection points: 4
#     Node 4, Type 0, BuildingBlock: QUQFOY_clean_sbu_1, # of connection points: 4
#     Node 5, Type 0, BuildingBlock: QUQFOY_clean_sbu_1, # of connection points: 4
#     Node 6, Type 0, BuildingBlock: QUQFOY_clean_sbu_1, # of connection points: 4
#     Node 7, Type 0, BuildingBlock: QUQFOY_clean_sbu_1, # of connection points: 4
#     Node 8, Type 0, BuildingBlock: QUQFOY_clean_sbu_1, # of connection points: 4
#     Node 9, Type 0, BuildingBlock: QUQFOY_clean_sbu_1, # of connection points: 4
#     Node 10, Type 0, BuildingBlock: QUQFOY_clean_sbu_1, # of connection points: 4
#     Node 11, Type 0, BuildingBlock: QUQFOY_clean_sbu_1, # of connection points: 4
#     Node 12, Type 0, BuildingBlock: QUQFOY_clean_sbu_1, # of connection points: 4
#     Node 13, Type 0, BuildingBlock: QUQFOY_clean_sbu_1, # of connection points: 4
#     Node 14, Type 0, BuildingBlock: QUQFOY_clean_sbu_1, # of connection points: 4
#     Node 15, Type 0, BuildingBlock: QUQFOY_clean_sbu_1, # of connection points: 4
#     Node 16, Type 0, BuildingBlock: QUQFOY_clean_sbu_1, # of connection points: 4
#     Node 17, Type 0, BuildingBlock: QUQFOY_clean_sbu_1, # of connection points: 4
#     Node 18, Type 1, BuildingBlock: NAWXER_clean_linker_0, # of connection points: 4
#     Node 19, Type 1, BuildingBlock: NAWXER_clean_linker_0, # of connection points: 4
#     Node 20, Type 1, BuildingBlock: NAWXER_clean_linker_0, # of connection points: 4
#     Node 21, Type 1, BuildingBlock: NAWXER_clean_linker_0, # of connection points: 4
#     Node 22, Type 1, BuildingBlock: NAWXER_clean_linker_0, # of connection points: 4
#     Node 23, Type 1, BuildingBlock: NAWXER_clean_linker_0, # of connection points: 4
#     Node 24, Type 1, BuildingBlock: NAWXER_clean_linker_0, # of connection points: 4
#     Node 25, Type 1, BuildingBlock: NAWXER_clean_linker_0, # of connection points: 4
#     Node 26, Type 1, BuildingBlock: NAWXER_clean_linker_0, # of connection points: 4
#     Node 27, Type 1, BuildingBlock: NAWXER_clean_linker_0, # of connection points: 4
#     Node 28, Type 1, BuildingBlock: NAWXER_clean_linker_0, # of connection points: 4
#     Node 29, Type 1, BuildingBlock: NAWXER_clean_linker_0, # of connection points: 4
#     Node 30, Type 1, BuildingBlock: NAWXER_clean_linker_0, # of connection points: 4
#     Node 31, Type 1, BuildingBlock: NAWXER_clean_linker_0, # of connection points: 4
#     Node 32, Type 1, BuildingBlock: NAWXER_clean_linker_0, # of connection points: 4
#     Node 33, Type 1, BuildingBlock: NAWXER_clean_linker_0, # of connection points: 4
#     Node 34, Type 1, BuildingBlock: NAWXER_clean_linker_0, # of connection points: 4
#     Node 35, Type 1, BuildingBlock: NAWXER_clean_linker_0, # of connection points: 4
#     Edge 36, Type (0, 1), BuildingBlock: MIFKUJ_clean_linker_0, # of connection points: 2
#     Edge 37, Type (0, 1), BuildingBlock: MIFKUJ_clean_linker_0, # of connection points: 2
#     Edge 38, Type (0, 1), BuildingBlock: MIFKUJ_clean_linker_0, # of connection points: 2
#     Edge 39, Type (0, 1), BuildingBlock: MIFKUJ_clean_linker_0, # of connection points: 2
#     Edge 40, Type (0, 1), BuildingBlock: MIFKUJ_clean_linker_0, # of connection points: 2
#     Edge 41, Type (0, 1), BuildingBlock: MIFKUJ_clean_linker_0, # of connection points: 2
#     Edge 42, Type (0, 1), BuildingBlock: MIFKUJ_clean_linker_0, # of connection points: 2
#     Edge 43, Type (0, 1), BuildingBlock: MIFKUJ_clean_linker_0, # of connection points: 2
#     Edge 44, Type (0, 1), BuildingBlock: MIFKUJ_clean_linker_0, # of connection points: 2
#     Edge 45, Type (0, 1), BuildingBlock: MIFKUJ_clean_linker_0, # of connection points: 2
#     Edge 46, Type (0, 1), BuildingBlock: MIFKUJ_clean_linker_0, # of connection points: 2
#     Edge 47, Type (0, 1), BuildingBlock: MIFKUJ_clean_linker_0, # of connection points: 2
#     Edge 48, Type (0, 1), BuildingBlock: MIFKUJ_clean_linker_0, # of connection points: 2
#     Edge 49, Type (0, 1), BuildingBlock: MIFKUJ_clean_linker_0, # of connection points: 2
#     Edge 50, Type (0, 1), BuildingBlock: MIFKUJ_clean_linker_0, # of connection points: 2
#     Edge 51, Type (0, 1), BuildingBlock: MIFKUJ_clean_linker_0, # of connection points: 2
#     Edge 52, Type (0, 1), BuildingBlock: MIFKUJ_clean_linker_0, # of connection points: 2
#     Edge 53, Type (0, 1), BuildingBlock: MIFKUJ_clean_linker_0, # of connection points: 2
#     Edge 54, Type (0, 1), BuildingBlock: MIFKUJ_clean_linker_0, # of connection points: 2
#     Edge 55, Type (0, 1), BuildingBlock: MIFKUJ_clean_linker_0, # of connection points: 2
#     Edge 56, Type (0, 1), BuildingBlock: MIFKUJ_clean_linker_0, # of connection points: 2
#     Edge 57, Type (0, 1), BuildingBlock: MIFKUJ_clean_linker_0, # of connection points: 2
#     Edge 58, Type (0, 1), BuildingBlock: MIFKUJ_clean_linker_0, # of connection points: 2
#     Edge 59, Type (0, 1), BuildingBlock: MIFKUJ_clean_linker_0, # of connection points: 2
#     Edge 60, Type (0, 1), BuildingBlock: MIFKUJ_clean_linker_0, # of connection points: 2
#     Edge 61, Type (0, 1), BuildingBlock: MIFKUJ_clean_linker_0, # of connection points: 2
#     Edge 62, Type (0, 1), BuildingBlock: MIFKUJ_clean_linker_0, # of connection points: 2
#     Edge 63, Type (0, 1), BuildingBlock: MIFKUJ_clean_linker_0, # of connection points: 2
#     Edge 64, Type (0, 1), BuildingBlock: MIFKUJ_clean_linker_0, # of connection points: 2
#     Edge 65, Type (0, 1), BuildingBlock: MIFKUJ_clean_linker_0, # of connection points: 2
#     Edge 66, Type (0, 1), BuildingBlock: MIFKUJ_clean_linker_0, # of connection points: 2
#     Edge 67, Type (0, 1), BuildingBlock: MIFKUJ_clean_linker_0, # of connection points: 2
#     Edge 68, Type (0, 1), BuildingBlock: MIFKUJ_clean_linker_0, # of connection points: 2
#     Edge 69, Type (0, 1), BuildingBlock: MIFKUJ_clean_linker_0, # of connection points: 2
#     Edge 70, Type (0, 1), BuildingBlock: MIFKUJ_clean_linker_0, # of connection points: 2
#     Edge 71, Type (0, 1), BuildingBlock: MIFKUJ_clean_linker_0, # of connection points: 2
#     Edge 72, Type (0, 1), BuildingBlock: MIFKUJ_clean_linker_0, # of connection points: 2
#     Edge 73, Type (0, 1), BuildingBlock: MIFKUJ_clean_linker_0, # of connection points: 2
#     Edge 74, Type (0, 1), BuildingBlock: MIFKUJ_clean_linker_0, # of connection points: 2
#     Edge 75, Type (0, 1), BuildingBlock: MIFKUJ_clean_linker_0, # of connection points: 2
#     Edge 76, Type (0, 1), BuildingBlock: MIFKUJ_clean_linker_0, # of connection points: 2
#     Edge 77, Type (0, 1), BuildingBlock: MIFKUJ_clean_linker_0, # of connection points: 2
#     Edge 78, Type (0, 1), BuildingBlock: MIFKUJ_clean_linker_0, # of connection points: 2
#     Edge 79, Type (0, 1), BuildingBlock: MIFKUJ_clean_linker_0, # of connection points: 2
#     Edge 80, Type (0, 1), BuildingBlock: MIFKUJ_clean_linker_0, # of connection points: 2
#     Edge 81, Type (0, 1), BuildingBlock: MIFKUJ_clean_linker_0, # of connection points: 2
#     Edge 82, Type (0, 1), BuildingBlock: MIFKUJ_clean_linker_0, # of connection points: 2
#     Edge 83, Type (0, 1), BuildingBlock: MIFKUJ_clean_linker_0, # of connection points: 2
#     Edge 84, Type (0, 1), BuildingBlock: MIFKUJ_clean_linker_0, # of connection points: 2
#     Edge 85, Type (0, 1), BuildingBlock: MIFKUJ_clean_linker_0, # of connection points: 2
#     Edge 86, Type (0, 1), BuildingBlock: MIFKUJ_clean_linker_0, # of connection points: 2
#     Edge 87, Type (0, 1), BuildingBlock: MIFKUJ_clean_linker_0, # of connection points: 2
#     Edge 88, Type (0, 1), BuildingBlock: MIFKUJ_clean_linker_0, # of connection points: 2
#     Edge 89, Type (0, 1), BuildingBlock: MIFKUJ_clean_linker_0, # of connection points: 2
#     Edge 90, Type (0, 1), BuildingBlock: MIFKUJ_clean_linker_0, # of connection points: 2
#     Edge 91, Type (0, 1), BuildingBlock: MIFKUJ_clean_linker_0, # of connection points: 2
#     Edge 92, Type (0, 1), BuildingBlock: MIFKUJ_clean_linker_0, # of connection points: 2
#     Edge 93, Type (0, 1), BuildingBlock: MIFKUJ_clean_linker_0, # of connection points: 2
#     Edge 94, Type (0, 1), BuildingBlock: MIFKUJ_clean_linker_0, # of connection points: 2
#     Edge 95, Type (0, 1), BuildingBlock: MIFKUJ_clean_linker_0, # of connection points: 2
#     Edge 96, Type (0, 1), BuildingBlock: MIFKUJ_clean_linker_0, # of connection points: 2
#     Edge 97, Type (0, 1), BuildingBlock: MIFKUJ_clean_linker_0, # of connection points: 2
#     Edge 98, Type (0, 1), BuildingBlock: MIFKUJ_clean_linker_0, # of connection points: 2
#     Edge 99, Type (0, 1), BuildingBlock: MIFKUJ_clean_linker_0, # of connection points: 2
#     Edge 100, Type (0, 1), BuildingBlock: MIFKUJ_clean_linker_0, # of connection points: 2
#     Edge 101, Type (0, 1), BuildingBlock: MIFKUJ_clean_linker_0, # of connection points: 2
#     Edge 102, Type (0, 1), BuildingBlock: MIFKUJ_clean_linker_0, # of connection points: 2
#     Edge 103, Type (0, 1), BuildingBlock: MIFKUJ_clean_linker_0, # of connection points: 2
#     Edge 104, Type (0, 1), BuildingBlock: MIFKUJ_clean_linker_0, # of connection points: 2
#     Edge 105, Type (0, 1), BuildingBlock: MIFKUJ_clean_linker_0, # of connection points: 2
#     Edge 106, Type (0, 1), BuildingBlock: MIFKUJ_clean_linker_0, # of connection points: 2
#     Edge 107, Type (0, 1), BuildingBlock: MIFKUJ_clean_linker_0, # of connection points: 2
# Relax obj value: 0.009
# Max RMSD: 0.056
# Mean RMSD: 0.039
data_MOF--net-ptr--node1-QUQFOY_clean_sbu_1--node2-NAWXER_clean_linker_0--edge1-MIFKUJ_clean_linker_0
_symmetry_space_group_name_H-M    P1
_symmetry_Int_Tables_number       1
_symmetry_cell_setting            triclinic
loop_
_symmetry_equiv_pos_as_xyz
'x, y, z'
_cell_length_a     111.05643
_cell_length_b     111.03402
_cell_length_c     81.858165
_cell_angle_alpha  90.159198
_cell_angle_beta   89.869621
_cell_angle_gamma 119.93482
loop_
_atom_site_label
_atom_site_type_symbol
_atom_site_fract_x
_atom_site_fract_y
_atom_site_fract_z
_atom_type_partial_charge
O0 O 0.01068 0.3718 0.03786 0.0
Cd1 Cd 0.017 0.36452 0.01824 0.0
Cd2 Cd 0.98935 0.35106 0.01242 0.0
O3 O 0.98803 0.35814 0.03536 0.0
O4 O 0.03609 0.36873 0.02424 0.0
O5 O 0.01846 0.3473 0.0216 0.0
C6 C 0.03136 0.35553 0.02528 0.0
C7 C 0.97436 0.32815 0.00424 0.0
C8 C 0.99842 0.36742 0.04319 0.0
C9 C 0.00813 0.37288 0.98815 0.0
O10 O 0.99589 0.36521 0.99357 0.0
O11 O 0.01845 0.37343 0.99555 0.0
O12 O 0.97014 0.33701 0.00573 0.0
O13 O 0.98706 0.33211 0.0082 0.0
O14 O 0.63033 0.63767 0.03838 0.0
Cd15 Cd 0.63652 0.651 0.01865 0.0
Cd16 Cd 0.65034 0.63723 0.01121 0.0
O17 O 0.64369 0.62851 0.03409 0.0
O18 O 0.63207 0.66562 0.02525 0.0
O19 O 0.65355 0.66992 0.02122 0.0
C20 C 0.64523 0.67435 0.02553 0.0
C21 C 0.67335 0.64555 0.00305 0.0
C22 C 0.63487 0.62971 0.04285 0.0
C23 C 0.6277 0.63398 0.98812 0.0
O24 O 0.63605 0.62989 0.99245 0.0
O25 O 0.62675 0.64316 0.99646 0.0
O26 O 0.66462 0.63243 0.00418 0.0
O27 O 0.66914 0.65409 0.00716 0.0
O28 O 0.37223 0.00726 0.99114 0.0
Cd29 Cd 0.36746 0.016 0.01055 0.0
Cd30 Cd 0.35385 0.98883 0.02104 0.0
O31 O 0.36142 0.98544 0.99938 0.0
O32 O 0.37243 0.03483 0.00246 0.0
O33 O 0.35091 0.01882 0.00859 0.0
C34 C 0.35944 0.03109 0.00308 0.0
C35 C 0.33063 0.97422 0.02842 0.0
C36 C 0.36883 0.99463 0.98892 0.0
C37 C 0.37688 0.00996 0.0424 0.0
O38 O 0.36756 0.99735 0.04024 0.0
O39 O 0.37855 0.0192 0.03205 0.0
O40 O 0.33961 0.97011 0.02899 0.0
O41 O 0.33475 0.98664 0.02316 0.0
O42 O 0.99319 0.63035 0.99244 0.0
Cd43 Cd 0.98808 0.63887 0.01181 0.0
Cd44 Cd 0.01573 0.65273 0.01576 0.0
O45 O 0.01586 0.64448 0.99306 0.0
O46 O 0.96889 0.63515 0.00729 0.0
O47 O 0.98733 0.65628 0.0072 0.0
C48 C 0.97414 0.64831 0.00491 0.0
C49 C 0.03055 0.67612 0.02221 0.0
C50 C 0.00517 0.63462 0.98628 0.0
C51 C 0.99851 0.63206 0.0418 0.0
O52 O 0.01047 0.63962 0.03558 0.0
O53 O 0.98781 0.63103 0.03484 0.0
O54 O 0.03514 0.66757 0.02048 0.0
O55 O 0.01753 0.67153 0.0194 0.0
O56 O 0.37395 0.3684 0.99471 0.0
Cd57 Cd 0.36569 0.35439 0.01369 0.0
Cd58 Cd 0.35194 0.36811 0.01904 0.0
O59 O 0.3599 0.37702 0.99652 0.0
O60 O 0.36968 0.33921 0.00833 0.0
O61 O 0.3484 0.33615 0.00895 0.0
C62 C 0.35652 0.33115 0.00622 0.0
C63 C 0.32849 0.35881 0.02566 0.0
C64 C 0.36965 0.37629 0.98923 0.0
C65 C 0.37291 0.37098 0.04432 0.0
O66 O 0.36527 0.37554 0.03874 0.0
O67 O 0.37381 0.36146 0.03673 0.0
O68 O 0.33679 0.37204 0.02474 0.0
O69 O 0.3334 0.35075 0.02205 0.0
O70 O 0.63322 0.99753 0.0376 0.0
Cd71 Cd 0.63933 0.98981 0.01822 0.0
Cd72 Cd 0.65193 0.01737 0.00944 0.0
O73 O 0.64428 0.01986 0.03144 0.0
O74 O 0.63415 0.97075 0.02564 0.0
O75 O 0.6559 0.98715 0.02142 0.0
C76 C 0.64718 0.97464 0.02608 0.0
C77 C 0.67504 0.032 1.00179 0.0
C78 C 0.63644 0.00998 0.04095 0.0
C79 C 0.63008 0.99652 0.98673 0.0
O80 O 0.63812 0.0092 0.99037 0.0
O81 O 0.62939 0.98695 0.99587 0.0
O82 O 0.66608 0.03617 1.00163 0.0
O83 O 0.67099 0.01957 0.00698 0.0
O84 O 0.67713 0.70822 0.37084 0.0
Cd85 Cd 0.68431 0.70141 0.35173 0.0
Cd86 Cd 0.65668 0.68656 0.34483 0.0
O87 O 0.65467 0.69416 0.36723 0.0
O88 O 0.70344 0.70631 0.35842 0.0
O89 O 0.68643 0.68462 0.35535 0.0
C90 C 0.69915 0.6932 0.35944 0.0
C91 C 0.6423 0.66319 0.3379 0.0
C92 C 0.66465 0.70359 0.37545 0.0
C93 C 0.67551 0.70845 0.32051 0.0
O94 O 0.6632 0.6999 0.32509 0.0
O95 O 0.68583 0.71027 0.32906 0.0
O96 O 0.63764 0.67174 0.33861 0.0
O97 O 0.65514 0.66779 0.34181 0.0
O98 O 0.29651 0.96921 0.37053 0.0
Cd99 Cd 0.30369 0.98307 0.35132 0.0
Cd100 Cd 0.31739 0.96907 0.34455 0.0
O101 O 0.31041 0.96051 0.36746 0.0
O102 O 0.29918 0.99766 0.35783 0.0
O103 O 0.32072 0.00183 0.35489 0.0
C104 C 0.31234 0.00628 0.35881 0.0
C105 C 0.34034 0.97705 0.33646 0.0
C106 C 0.30106 0.96139 0.37551 0.0
C107 C 0.2955 0.96646 0.32059 0.0
O108 O 0.30334 0.96191 0.32548 0.0
O109 O 0.29473 0.97586 0.32866 0.0
O110 O 0.33153 0.96397 0.33785 0.0
O111 O 0.33629 0.98574 0.34041 0.0
O112 O 0.04039 0.34236 0.32631 0.0
Cd113 Cd 0.03341 0.34961 0.34518 0.0
Cd114 Cd 0.01889 0.32197 0.3524 0.0
O115 O 0.02627 0.3199 0.32988 0.0
O116 O 0.03835 0.36873 0.33834 0.0
O117 O 0.01664 0.35172 0.34121 0.0
C118 C 0.02524 0.36443 0.33716 0.0
C119 C 0.99572 0.30705 0.35981 0.0
C120 C 0.03574 0.32987 0.3217 0.0
C121 C 0.04095 0.3413 0.37636 0.0
O122 O 0.03258 0.3289 0.37185 0.0
O123 O 0.04237 0.35149 0.36785 0.0
O124 O 0.00463 0.30285 0.35914 0.0
O125 O 0.99984 0.31974 0.35559 0.0
O126 O 0.66046 0.96251 0.32741 0.0
Cd127 Cd 0.65508 0.97055 0.34705 0.0
Cd128 Cd 0.68266 0.98481 0.35111 0.0
O129 O 0.68299 0.97726 0.32804 0.0
O130 O 0.63562 0.9661 0.34269 0.0
O131 O 0.65352 0.98755 0.34265 0.0
C132 C 0.6404 0.9792 0.34036 0.0
C133 C 0.69608 0.00831 0.35781 0.0
C134 C 0.67247 0.9673 0.32114 0.0
C135 C 0.66598 0.96366 0.37673 0.0
O136 O 0.67792 0.97132 0.3705 0.0
O137 O 0.65524 0.96273 0.36996 0.0
O138 O 0.70168 1.00069 0.35541 0.0
O139 O 0.68282 0.0027 0.35573 0.0
O140 O 0.04323 0.70092 0.32643 0.0
Cd141 Cd 0.03718 0.68703 0.34543 0.0
Cd142 Cd 0.02277 0.70039 0.35404 0.0
O143 O 0.03062 0.7107 0.33204 0.0
O144 O 0.04218 0.67304 0.33784 0.0
O145 O 0.0205 0.66794 0.34235 0.0
C146 C 0.0291 0.66402 0.33749 0.0
C147 C 0.99966 0.69252 0.36135 0.0
C148 C 0.03923 0.7095 0.32288 0.0
C149 C 0.04492 0.70219 0.37725 0.0
O150 O 0.03598 0.70575 0.37386 0.0
O151 O 0.047 0.69441 0.36762 0.0
O152 O 0.00884 0.70555 0.36136 0.0
O153 O 0.00347 0.68386 0.35642 0.0
O154 O 0.29973 0.3304 0.37273 0.0
Cd155 Cd 0.30392 0.32112 0.3534 0.0
Cd156 Cd 0.31797 0.34859 0.34238 0.0
O157 O 0.31056 0.35213 0.3641 0.0
O158 O 0.29833 0.30221 0.36171 0.0
O159 O 0.32004 0.31763 0.35551 0.0
C160 C 0.31121 0.3055 0.36111 0.0
C161 C 0.3409 0.36374 0.3343 0.0
C162 C 0.30327 0.34308 0.37477 0.0
C163 C 0.29482 0.32708 0.32129 0.0
O164 O 0.30428 0.33965 0.32326 0.0
O165 O 0.29284 0.31793 0.3319 0.0
O166 O 0.33154 0.36737 0.33395 0.0
O167 O 0.33736 0.35154 0.33986 0.0
O168 O 0.34177 0.04118 0.70702 0.0
Cd169 Cd 0.34932 0.03443 0.68815 0.0
Cd170 Cd 0.32158 0.02037 0.68047 0.0
O171 O 0.31929 0.02771 0.70284 0.0
O172 O 0.36847 0.03992 0.69556 0.0
O173 O 0.35214 0.01804 0.69182 0.0
C174 C 0.36465 0.0269 0.69633 0.0
C175 C 0.30686 0.99723 0.67279 0.0
C176 C 0.32927 0.03687 0.71131 0.0
C177 C 0.34133 0.04228 0.65682 0.0
O178 O 0.32885 0.03422 0.66127 0.0
O179 O 0.35136 0.04334 0.66537 0.0
O180 O 0.30255 0.00606 0.67346 0.0
O181 O 0.31953 0.00141 0.67714 0.0
O182 O 0.96485 0.30138 0.70321 0.0
Cd183 Cd 0.97048 0.31528 0.68408 0.0
Cd184 Cd 0.98419 0.30134 0.67455 0.0
O185 O 0.97662 0.29092 0.69639 0.0
O186 O 0.96515 0.329 0.69189 0.0
O187 O 0.98692 0.33457 0.68717 0.0
C188 C 0.97815 0.33824 0.69211 0.0
C189 C 0.0073 0.30957 0.66683 0.0
C190 C 0.96855 0.29245 0.70613 0.0
C191 C 0.96179 0.29974 0.65221 0.0
O192 O 0.97043 0.29574 0.65542 0.0
O193 O 0.96045 0.30803 0.66182 0.0
O194 O 0.99824 0.2965 0.66664 0.0
O195 O 0.00336 0.31806 0.67204 0.0
O196 O 0.70604 0.67279 0.65558 0.0
Cd197 Cd 0.69989 0.68006 0.67536 0.0
Cd198 Cd 0.68616 0.65271 0.68299 0.0
O199 O 0.69284 0.65035 0.66027 0.0
O200 O 0.70441 0.69914 0.66878 0.0
O201 O 0.6829 0.68201 0.67262 0.0
C202 C 0.69125 0.69472 0.66832 0.0
C203 C 0.66301 0.63936 0.69107 0.0
C204 C 0.70158 0.66024 0.65138 0.0
C205 C 0.70865 0.67183 0.70605 0.0
O206 O 0.70039 0.65936 0.70171 0.0
O207 O 0.7095 0.68189 0.69772 0.0
O208 O 0.67091 0.63399 0.68957 0.0
O209 O 0.66812 0.65232 0.68736 0.0
O210 O 0.32527 0.29514 0.6602 0.0
Cd211 Cd 0.32029 0.30362 0.67974 0.0
Cd212 Cd 0.3478 0.31671 0.68427 0.0
O213 O 0.34795 0.30911 0.66118 0.0
O214 O 0.30125 0.30037 0.67518 0.0
O215 O 0.31999 0.32129 0.6753 0.0
C216 C 0.30677 0.31357 0.67293 0.0
C217 C 0.36236 0.33995 0.69144 0.0
C218 C 0.33728 0.29946 0.65412 0.0
C219 C 0.33008 0.29574 0.70957 0.0
O220 O 0.34217 0.30295 0.7035 0.0
O221 O 0.31969 0.29546 0.70266 0.0
O222 O 0.36719 0.33167 0.68901 0.0
O223 O 0.34924 0.33518 0.68908 0.0
O224 O 0.70707 0.03545 0.65618 0.0
Cd225 Cd 0.70197 0.02162 0.67513 0.0
Cd226 Cd 0.68707 0.03414 0.68498 0.0
O227 O 0.69385 0.04435 0.66275 0.0
O228 O 0.70689 0.00775 0.66683 0.0
O229 O 0.68536 0.00239 0.6729 0.0
C230 C 0.69386 0.99857 0.66736 0.0
C231 C 0.6641 0.02597 0.69331 0.0
C232 C 0.70245 0.04361 0.65309 0.0
C233 C 0.71045 0.03689 0.70683 0.0
O234 O 0.70108 0.04003 0.70407 0.0
O235 O 0.71247 0.02926 0.69689 0.0
O236 O 0.67316 0.03904 0.69323 0.0
O237 O 0.66795 0.01743 0.68805 0.0
O238 O 0.96348 0.66153 0.70534 0.0
Cd239 Cd 0.96892 0.65318 0.68612 0.0
Cd240 Cd 0.98268 0.68085 0.67616 0.0
O241 O 0.9747 0.68359 0.69791 0.0
O242 O 0.96399 0.63422 0.6937 0.0
O243 O 0.98563 0.65074 0.68902 0.0
C244 C 0.97706 0.63825 0.69385 0.0
C245 C 0.00566 0.69651 0.66863 0.0
C246 C 0.96693 0.67413 0.70795 0.0
C247 C 0.96029 0.65963 0.65403 0.0
O248 O 0.96928 0.67226 0.65671 0.0
O249 O 0.95854 0.65021 0.66415 0.0
O250 O 0.99615 0.69993 0.6684 0.0
O251 O 0.00225 0.68422 0.67379 0.0
C252 C 0.20661 0.33008 0.12947 0.0
C253 C 0.20429 0.32084 0.11646 0.0
C254 C 0.19563 0.32844 0.13938 0.0
C255 C 0.18207 0.3175 0.13655 0.0
C256 C 0.19065 0.30992 0.11366 0.0
C257 C 0.17965 0.30835 0.12351 0.0
C258 C 0.1703 0.31605 0.14655 0.0
C259 C 0.19661 0.30645 0.18036 0.0
C260 C 0.20027 0.31376 0.19522 0.0
C261 C 0.18695 0.30712 0.16998 0.0
C262 C 0.18117 0.31552 0.17403 0.0
C263 C 0.19442 0.32199 0.19937 0.0
C264 C 0.18504 0.32292 0.18886 0.0
C265 C 0.17028 0.31588 0.16384 0.0
C266 C 0.11367 0.30639 0.18231 0.0
C267 C 0.11762 0.31546 0.1958 0.0
C268 C 0.12372 0.30673 0.17164 0.0
C269 C 0.13788 0.31622 0.1742 0.0
C270 C 0.1318 0.32509 0.19811 0.0
C271 C 0.14179 0.32539 0.18751 0.0
C272 C 0.14884 0.3161 0.16397 0.0
C273 C 0.12614 0.32993 0.13025 0.0
C274 C 0.11956 0.32096 0.11698 0.0
C275 C 0.13545 0.32822 0.1401 0.0
C276 C 0.13831 0.31746 0.13695 0.0
C277 C 0.12241 0.31016 0.11387 0.0
C278 C 0.13179 0.30851 0.12368 0.0
C279 C 0.14878 0.3161 0.14672 0.0
H280 H 0.21688 0.3388 0.1318 0.0
H281 H 0.19769 0.33585 0.14911 0.0
H282 H 0.18846 0.30249 0.10392 0.0
H283 H 0.16925 0.2999 0.12104 0.0
H284 H 0.2009 0.2999 0.17704 0.0
H285 H 0.18377 0.30078 0.15905 0.0
H286 H 0.19714 0.32775 0.21076 0.0
H287 H 0.1807 0.32938 0.19242 0.0
H288 H 0.10286 0.29874 0.18028 0.0
H289 H 0.12044 0.29931 0.16168 0.0
H290 H 0.1352 0.33241 0.20817 0.0
H291 H 0.15265 0.3328 0.18975 0.0
H292 H 0.12411 0.3383 0.13302 0.0
H293 H 0.14061 0.3355 0.14999 0.0
H294 H 0.11764 0.30319 0.10362 0.0
H295 H 0.13398 0.30025 0.12089 0.0
N296 N 0.15949 0.31602 0.13869 0.0
N297 N 0.15957 0.31599 0.17177 0.0
C298 C 0.6702 0.87605 0.12808 0.0
C299 C 0.67929 0.88287 0.11499 0.0
C300 C 0.6719 0.8667 0.13782 0.0
C301 C 0.68284 0.86408 0.13485 0.0
C302 C 0.69019 0.88016 0.11194 0.0
C303 C 0.69188 0.87077 0.12171 0.0
C304 C 0.6844 0.85384 0.14485 0.0
C305 C 0.69243 0.88901 0.17941 0.0
C306 C 0.68279 0.88498 0.19231 0.0
C307 C 0.69284 0.87898 0.16936 0.0
C308 C 0.68361 0.86477 0.17204 0.0
C309 C 0.67363 0.87075 0.19496 0.0
C310 C 0.67409 0.86077 0.18499 0.0
C311 C 0.68417 0.85388 0.16211 0.0
C312 C 0.69441 0.80706 0.18049 0.0
C313 C 0.6859 0.80252 0.19446 0.0
C314 C 0.69396 0.81668 0.16985 0.0
C315 C 0.68478 0.82172 0.17282 0.0
C316 C 0.6767 0.80754 0.19734 0.0
C317 C 0.67618 0.81703 0.18667 0.0
C318 C 0.68464 0.8326 0.16244 0.0
C319 C 0.67128 0.79598 0.12888 0.0
C320 C 0.68016 0.79833 0.1155 0.0
C321 C 0.67291 0.80701 0.13867 0.0
C322 C 0.68354 0.82065 0.13542 0.0
C323 C 0.6908 0.812 0.11227 0.0
C324 C 0.6924 0.82305 0.12206 0.0
C325 C 0.68479 0.83249 0.14516 0.0
H326 H 0.66176 0.87797 0.13085 0.0
H327 H 0.66454 0.86139 0.14759 0.0
H328 H 0.69727 0.8851 0.10183 0.0
H329 H 0.70027 0.86875 0.11904 0.0
H330 H 0.69962 0.89989 0.17707 0.0
H331 H 0.7005 0.88233 0.15968 0.0
H332 H 0.66627 0.86728 0.20497 0.0
H333 H 0.66697 0.84987 0.18741 0.0
H334 H 0.7017 0.80347 0.17807 0.0
H335 H 0.70102 0.82042 0.15955 0.0
H336 H 0.66987 0.80409 0.20787 0.0
H337 H 0.66904 0.82077 0.18929 0.0
H338 H 0.66303 0.78558 0.13176 0.0
H339 H 0.66568 0.80491 0.14863 0.0
H340 H 0.69769 0.81419 0.10193 0.0
H341 H 0.70054 0.83351 0.11917 0.0
N342 N 0.68478 0.84318 0.13705 0.0
N343 N 0.68428 0.84326 0.17015 0.0
C344 C 0.12696 0.79625 0.12803 0.0
C345 C 0.12027 0.79854 0.11483 0.0
C346 C 0.13631 0.80731 0.13781 0.0
C347 C 0.13908 0.8209 0.13471 0.0
C348 C 0.12304 0.81215 0.11175 0.0
C349 C 0.13245 0.82323 0.12152 0.0
C350 C 0.1496 0.83275 0.14447 0.0
C351 C 0.11489 0.80714 0.18025 0.0
C352 C 0.11894 0.80152 0.19308 0.0
C353 C 0.12485 0.81709 0.16976 0.0
C354 C 0.13903 0.82159 0.17195 0.0
C355 C 0.13313 0.80605 0.19517 0.0
C356 C 0.14305 0.81602 0.18479 0.0
C357 C 0.14989 0.83271 0.16173 0.0
C358 C 0.19743 0.88955 0.17888 0.0
C359 C 0.20312 0.88575 0.19188 0.0
C360 C 0.18725 0.87937 0.16879 0.0
C361 C 0.18261 0.86523 0.17148 0.0
C362 C 0.19841 0.87158 0.19453 0.0
C363 C 0.18823 0.86145 0.1845 0.0
C364 C 0.17138 0.85419 0.1615 0.0
C365 C 0.20751 0.87685 0.12748 0.0
C366 C 0.20513 0.88351 0.11431 0.0
C367 C 0.19652 0.86746 0.13727 0.0
C368 C 0.1829 0.86462 0.13426 0.0
C369 C 0.19147 0.8806 0.11126 0.0
C370 C 0.18045 0.87117 0.12107 0.0
C371 C 0.17114 0.85425 0.14424 0.0
H372 H 0.12499 0.78589 0.13081 0.0
H373 H 0.14157 0.80525 0.1476 0.0
H374 H 0.1182 0.81428 0.10155 0.0
H375 H 0.13458 0.83365 0.11876 0.0
H376 H 0.10403 0.80384 0.17834 0.0
H377 H 0.12151 0.82144 0.16015 0.0
H378 H 0.13662 0.80211 0.20509 0.0
H379 H 0.15393 0.81944 0.18683 0.0
H380 H 0.20086 0.90038 0.1765 0.0
H381 H 0.18285 0.88256 0.15906 0.0
H382 H 0.20238 0.86828 0.2046 0.0
H383 H 0.18472 0.8506 0.18694 0.0
H384 H 0.21791 0.87891 0.13024 0.0
H385 H 0.19866 0.86226 0.14707 0.0
H386 H 0.18926 0.8854 0.10108 0.0
H387 H 0.17001 0.86898 0.11838 0.0
N388 N 0.1602 0.84357 0.13639 0.0
N389 N 0.16078 0.8434 0.16951 0.0
C390 C 0.3248 0.12478 0.84862 0.0
C391 C 0.31353 0.11791 0.83781 0.0
C392 C 0.32543 0.13482 0.8595 0.0
C393 C 0.31472 0.13807 0.85993 0.0
C394 C 0.30275 0.12107 0.83843 0.0
C395 C 0.30339 0.1311 0.8493 0.0
C396 C 0.31582 0.14955 0.87026 0.0
C397 C 0.3136 0.11705 0.90493 0.0
C398 C 0.32508 0.12169 0.91547 0.0
C399 C 0.31167 0.12653 0.89566 0.0
C400 C 0.32128 0.14084 0.89655 0.0
C401 C 0.33449 0.13606 0.91659 0.0
C402 C 0.33259 0.1455 0.90727 0.0
C403 C 0.31941 0.15115 0.88702 0.0
C404 C 0.31232 0.19914 0.90801 0.0
C405 C 0.32465 0.20718 0.91694 0.0
C406 C 0.31068 0.18804 0.89828 0.0
C407 C 0.32125 0.18463 0.8974 0.0
C408 C 0.33522 0.2037 0.91591 0.0
C409 C 0.33345 0.19245 0.90643 0.0
C410 C 0.31954 0.17275 0.88745 0.0
C411 C 0.32642 0.20601 0.8511 0.0
C412 C 0.316 0.20222 0.83922 0.0
C413 C 0.32627 0.19606 0.86166 0.0
C414 C 0.31555 0.18214 0.86081 0.0
C415 C 0.30518 0.18831 0.83852 0.0
C416 C 0.305 0.17838 0.84916 0.0
C417 C 0.31608 0.17122 0.87069 0.0
H418 H 0.3334 0.12279 0.84827 0.0
H419 H 0.3345 0.14035 0.86721 0.0
H420 H 0.29385 0.11587 0.83041 0.0
H421 H 0.29506 0.13351 0.84932 0.0
H422 H 0.30616 0.10607 0.90371 0.0
H423 H 0.3026 0.12266 0.8879 0.0
H424 H 0.34327 0.14005 0.92483 0.0
H425 H 0.34004 0.15649 0.90838 0.0
H426 H 0.30383 0.20127 0.90869 0.0
H427 H 0.30106 0.18198 0.89162 0.0
H428 H 0.34498 0.20975 0.92227 0.0
H429 H 0.34174 0.18999 0.9059 0.0
H430 H 0.33485 0.21663 0.85208 0.0
H431 H 0.33484 0.19922 0.87007 0.0
H432 H 0.29711 0.18497 0.82936 0.0
H433 H 0.29674 0.16768 0.84806 0.0
N434 N 0.31426 0.15962 0.86282 0.0
N435 N 0.32117 0.16272 0.89491 0.0
C436 C 0.89093 0.19831 0.90084 0.0
C437 C 0.88615 0.20396 0.91287 0.0
C438 C 0.8815 0.18705 0.89132 0.0
C439 C 0.86709 0.18152 0.89328 0.0
C440 C 0.87179 0.19825 0.91511 0.0
C441 C 0.86237 0.18718 0.9054 0.0
C442 C 0.85677 0.16938 0.88359 0.0
C443 C 0.88079 0.20105 0.84393 0.0
C444 C 0.88916 0.19754 0.83436 0.0
C445 C 0.87106 0.19149 0.8549 0.0
C446 C 0.86941 0.17817 0.85644 0.0
C447 C 0.88765 0.18425 0.83631 0.0
C448 C 0.87775 0.17462 0.84706 0.0
C449 C 0.85822 0.16756 0.86674 0.0
C450 C 0.80245 0.12387 0.84528 0.0
C451 C 0.80554 0.11527 0.83552 0.0
C452 C 0.81238 0.13361 0.85593 0.0
C453 C 0.82564 0.13505 0.85699 0.0
C454 C 0.81878 0.11658 0.83695 0.0
C455 C 0.82878 0.12649 0.8474 0.0
C456 C 0.83659 0.14622 0.86701 0.0
C457 C 0.80607 0.11426 0.90188 0.0
C458 C 0.80065 0.11934 0.91385 0.0
C459 C 0.81728 0.12345 0.89214 0.0
C460 C 0.82301 0.13792 0.89383 0.0
C461 C 0.80657 0.13376 0.91581 0.0
C462 C 0.8176 0.14294 0.90589 0.0
C463 C 0.83509 0.14796 0.88386 0.0
H464 H 0.90197 0.20241 0.89906 0.0
H465 H 0.88552 0.18254 0.88268 0.0
H466 H 0.86784 0.20246 0.92427 0.0
H467 H 0.85135 0.18308 0.90733 0.0
H468 H 0.88138 0.21103 0.8426 0.0
H469 H 0.86452 0.19434 0.8618 0.0
H470 H 0.89406 0.1812 0.82948 0.0
H471 H 0.87658 0.16436 0.84805 0.0
H472 H 0.79252 0.12342 0.84434 0.0
H473 H 0.80985 0.14032 0.86298 0.0
H474 H 0.82151 0.11001 0.82992 0.0
H475 H 0.83898 0.1275 0.848 0.0
H476 H 0.80184 0.10318 0.90031 0.0
H477 H 0.82159 0.1192 0.88352 0.0
H478 H 0.80256 0.13795 0.92492 0.0
H479 H 0.82188 0.15402 0.90762 0.0
N480 N 0.84523 0.1595 0.89142 0.0
N481 N 0.84812 0.15603 0.85917 0.0
C482 C 0.80347 0.6895 0.90225 0.0
C483 C 0.79714 0.67839 0.91337 0.0
C484 C 0.81474 0.69137 0.89269 0.0
C485 C 0.81977 0.68202 0.89381 0.0
C486 C 0.80245 0.66928 0.91474 0.0
C487 C 0.81363 0.67109 0.9051 0.0
C488 C 0.83179 0.68384 0.88391 0.0
C489 C 0.79863 0.67624 0.84705 0.0
C490 C 0.80225 0.68682 0.83542 0.0
C491 C 0.80865 0.67643 0.85753 0.0
C492 C 0.82248 0.68736 0.85686 0.0
C493 C 0.81612 0.69774 0.83477 0.0
C494 C 0.82612 0.69796 0.84532 0.0
C495 C 0.83343 0.68718 0.86706 0.0
C496 C 0.87956 0.67843 0.84554 0.0
C497 C 0.88776 0.69038 0.83609 0.0
C498 C 0.86934 0.67781 0.85607 0.0
C499 C 0.867 0.68908 0.85731 0.0
C500 C 0.88554 0.70177 0.83768 0.0
C501 C 0.87515 0.70105 0.84803 0.0
C502 C 0.85531 0.68793 0.86718 0.0
C503 C 0.88728 0.69164 0.90396 0.0
C504 C 0.88308 0.67933 0.91289 0.0
C505 C 0.87777 0.69319 0.89428 0.0
C506 C 0.86385 0.68253 0.89341 0.0
C507 C 0.86912 0.66863 0.91177 0.0
C508 C 0.8596 0.67029 0.9023 0.0
C509 C 0.85351 0.68426 0.88385 0.0
H510 H 0.79965 0.69669 0.90079 0.0
H511 H 0.81955 0.70017 0.88448 0.0
H512 H 0.79808 0.6608 0.92342 0.0
H513 H 0.81744 0.66386 0.90642 0.0
H514 H 0.78804 0.66772 0.848 0.0
H515 H 0.80561 0.66787 0.86592 0.0
H516 H 0.81936 0.70592 0.82578 0.0
H517 H 0.83676 0.70638 0.84436 0.0
H518 H 0.88068 0.66931 0.84443 0.0
H519 H 0.86294 0.66833 0.86282 0.0
H520 H 0.89176 0.71124 0.83086 0.0
H521 H 0.87345 0.70983 0.84876 0.0
H522 H 0.89784 0.70022 0.9047 0.0
H523 H 0.88122 0.70284 0.88775 0.0
H524 H 0.86551 0.65888 0.91812 0.0
H525 H 0.8489 0.66193 0.90179 0.0
N526 N 0.84185 0.68237 0.89156 0.0
N527 N 0.84521 0.68924 0.85944 0.0
C528 C 0.78366 0.64688 0.45936 0.0
C529 C 0.78877 0.65836 0.44876 0.0
C530 C 0.79278 0.6444 0.46861 0.0
C531 C 0.8072 0.6535 0.46777 0.0
C532 C 0.80324 0.66726 0.44766 0.0
C533 C 0.81232 0.66485 0.45704 0.0
C534 C 0.81709 0.651 0.47736 0.0
C535 C 0.79262 0.65813 0.5168 0.0
C536 C 0.78304 0.64578 0.52481 0.0
C537 C 0.80272 0.65837 0.50638 0.0
C538 C 0.80361 0.64634 0.5039 0.0
C539 C 0.78384 0.63367 0.52194 0.0
C540 C 0.79415 0.63401 0.51179 0.0
C541 C 0.81496 0.64688 0.49392 0.0
C542 C 0.86967 0.65641 0.51652 0.0
C543 C 0.86603 0.64428 0.52554 0.0
C544 C 0.86015 0.65701 0.50589 0.0
C545 C 0.84675 0.64552 0.50412 0.0
C546 C 0.85263 0.63271 0.52347 0.0
C547 C 0.84305 0.6334 0.51302 0.0
C548 C 0.83627 0.64654 0.49402 0.0
C549 C 0.86732 0.64575 0.45944 0.0
C550 C 0.8743 0.65758 0.44945 0.0
C551 C 0.85567 0.64342 0.46853 0.0
C552 C 0.85086 0.65297 0.46801 0.0
C553 C 0.86926 0.66694 0.44869 0.0
C554 C 0.85766 0.66463 0.45782 0.0
C555 C 0.83848 0.6507 0.47747 0.0
H556 H 0.77261 0.63983 0.46063 0.0
H557 H 0.7885 0.63524 0.47625 0.0
H558 H 0.8076 0.67602 0.43938 0.0
H559 H 0.8234 0.67192 0.45594 0.0
H560 H 0.79264 0.66776 0.51891 0.0
H561 H 0.81011 0.66806 0.5006 0.0
H562 H 0.77653 0.62388 0.52755 0.0
H563 H 0.79471 0.62463 0.51003 0.0
H564 H 0.87973 0.66565 0.51802 0.0
H565 H 0.86311 0.66659 0.49943 0.0
H566 H 0.84949 0.62311 0.52997 0.0
H567 H 0.83272 0.62445 0.51188 0.0
H568 H 0.87093 0.63835 0.46038 0.0
H569 H 0.85037 0.63409 0.47585 0.0
H570 H 0.87419 0.676 0.44089 0.0
H571 H 0.85405 0.67206 0.45701 0.0
N572 N 0.82881 0.6528 0.46983 0.0
N573 N 0.82457 0.64474 0.50158 0.0
C574 C 0.33388 0.20637 0.46265 0.0
C575 C 0.34287 0.21311 0.44945 0.0
C576 C 0.33562 0.19704 0.47238 0.0
C577 C 0.34652 0.19438 0.4693 0.0
C578 C 0.35371 0.21034 0.44628 0.0
C579 C 0.35545 0.20098 0.45606 0.0
C580 C 0.34814 0.18416 0.47929 0.0
C581 C 0.35616 0.21924 0.5139 0.0
C582 C 0.34648 0.21525 0.52675 0.0
C583 C 0.35655 0.2092 0.50387 0.0
C584 C 0.34727 0.195 0.50651 0.0
C585 C 0.33726 0.20102 0.52936 0.0
C586 C 0.33771 0.19102 0.51942 0.0
C587 C 0.34783 0.18412 0.49655 0.0
C588 C 0.35982 0.13872 0.51508 0.0
C589 C 0.35075 0.13326 0.52852 0.0
C590 C 0.359 0.14816 0.50447 0.0
C591 C 0.34902 0.15223 0.50703 0.0
C592 C 0.34065 0.13723 0.53086 0.0
C593 C 0.33987 0.14666 0.52031 0.0
C594 C 0.3486 0.16301 0.49679 0.0
C595 C 0.33622 0.12668 0.46308 0.0
C596 C 0.34523 0.12928 0.4498 0.0
C597 C 0.33755 0.13759 0.47291 0.0
C598 C 0.348 0.15132 0.46976 0.0
C599 C 0.35572 0.14303 0.44669 0.0
C600 C 0.35701 0.15396 0.4565 0.0
C601 C 0.3489 0.16301 0.47952 0.0
H602 H 0.32549 0.20834 0.46553 0.0
H603 H 0.32832 0.19179 0.48221 0.0
H604 H 0.36069 0.21519 0.43608 0.0
H605 H 0.36381 0.19893 0.4533 0.0
H606 H 0.36339 0.23012 0.51158 0.0
H607 H 0.36424 0.21254 0.49422 0.0
H608 H 0.32986 0.19758 0.53934 0.0
H609 H 0.33054 0.18013 0.52181 0.0
H610 H 0.36783 0.13603 0.51304 0.0
H611 H 0.36642 0.15257 0.49456 0.0
H612 H 0.33335 0.13306 0.5409 0.0
H613 H 0.3321 0.14965 0.52256 0.0
H614 H 0.32808 0.11621 0.46586 0.0
H615 H 0.33021 0.1353 0.48279 0.0
H616 H 0.36271 0.14539 0.43642 0.0
H617 H 0.36502 0.16449 0.4537 0.0
N618 N 0.34875 0.17364 0.47145 0.0
N619 N 0.34802 0.17353 0.50457 0.0
C620 C 0.78914 0.12956 0.46247 0.0
C621 C 0.78449 0.13236 0.44781 0.0
C622 C 0.79888 0.14042 0.47219 0.0
C623 C 0.80381 0.15435 0.46775 0.0
C624 C 0.78964 0.14624 0.44312 0.0
C625 C 0.79917 0.15713 0.45303 0.0
C626 C 0.81458 0.16603 0.4776 0.0
C627 C 0.77896 0.1433 0.51351 0.0
C628 C 0.78224 0.13739 0.52677 0.0
C629 C 0.78938 0.15247 0.50284 0.0
C630 C 0.80325 0.15585 0.5052 0.0
C631 C 0.79613 0.14068 0.52887 0.0
C632 C 0.8065 0.14989 0.51831 0.0
C633 C 0.81462 0.1663 0.4949 0.0
C634 C 0.86194 0.22284 0.51216 0.0
C635 C 0.86786 0.2192 0.52503 0.0
C636 C 0.85193 0.21257 0.502 0.0
C637 C 0.84766 0.19849 0.50458 0.0
C638 C 0.8636 0.2051 0.52751 0.0
C639 C 0.85352 0.19486 0.51748 0.0
C640 C 0.83648 0.18738 0.49466 0.0
C641 C 0.87292 0.21005 0.46112 0.0
C642 C 0.8707 0.21711 0.44828 0.0
C643 C 0.86182 0.2004 0.4706 0.0
C644 C 0.84824 0.19763 0.46753 0.0
C645 C 0.85703 0.21416 0.44509 0.0
C646 C 0.84591 0.20444 0.45456 0.0
C647 C 0.83642 0.18726 0.47741 0.0
H648 H 0.78557 0.11894 0.46617 0.0
H649 H 0.80276 0.13786 0.48297 0.0
H650 H 0.78624 0.14867 0.43183 0.0
H651 H 0.80295 0.16774 0.44914 0.0
H652 H 0.76843 0.14115 0.51163 0.0
H653 H 0.78667 0.15717 0.493 0.0
H654 H 0.79901 0.13613 0.53872 0.0
H655 H 0.81713 0.15236 0.52038 0.0
H656 H 0.86505 0.23362 0.50995 0.0
H657 H 0.84734 0.21561 0.49234 0.0
H658 H 0.86782 0.20196 0.53747 0.0
H659 H 0.85027 0.18406 0.5198 0.0
H660 H 0.88322 0.21176 0.46368 0.0
H661 H 0.86384 0.19496 0.48022 0.0
H662 H 0.85493 0.21947 0.4354 0.0
H663 H 0.8355 0.20238 0.45189 0.0
N664 N 0.82546 0.17662 0.46956 0.0
N665 N 0.82561 0.17689 0.50268 0.0
C666 C 0.98235 0.53324 0.18034 0.0
C667 C 0.99202 0.53904 0.16751 0.0
C668 C 0.98227 0.52305 0.19044 0.0
C669 C 0.99189 0.5185 0.18794 0.0
C670 C 1.00157 0.5344 0.16501 0.0
C671 C 1.00145 0.52419 0.17506 0.0
C672 C 0.99168 0.50734 0.19805 0.0
C673 C 0.00423 0.54346 0.23212 0.0
C674 C 0.99467 0.54101 0.24476 0.0
C675 C 0.00302 0.53253 0.22244 0.0
C676 C 0.99218 0.5189 0.22511 0.0
C677 C 0.98386 0.5273 0.24747 0.0
C678 C 0.9827 0.51635 0.23781 0.0
C679 C 0.99117 0.5072 0.21531 0.0
C680 C 0.00473 0.46301 0.23246 0.0
C681 C 0.99529 0.45603 0.2452 0.0
C682 C 0.00329 0.4725 0.22268 0.0
C683 C 0.99235 0.47518 0.2254 0.0
C684 C 0.98434 0.45872 0.24791 0.0
C685 C 0.98297 0.46832 0.23819 0.0
C686 C 0.99115 0.48567 0.21548 0.0
C687 C 0.98118 0.44999 0.18135 0.0
C688 C 0.9907 0.45333 0.16843 0.0
C689 C 0.98151 0.46047 0.1912 0.0
C690 C 0.99138 0.47448 0.18835 0.0
C691 C 1.00053 0.46737 0.16559 0.0
C692 C 1.0008 0.47783 0.17538 0.0
C693 C 0.99155 0.48577 0.19823 0.0
H694 H 0.97487 0.53661 0.18259 0.0
H695 H 0.97455 0.51858 0.20004 0.0
H696 H 0.00899 0.53845 0.15506 0.0
H697 H 0.00887 0.52075 0.17276 0.0
H698 H 0.01288 0.5538 0.22992 0.0
H699 H 0.01073 0.53471 0.21305 0.0
H700 H 0.97624 0.52503 0.25699 0.0
H701 H 0.97433 0.50589 0.24018 0.0
H702 H 0.01322 0.4611 0.23002 0.0
H703 H 0.01085 0.4779 0.21313 0.0
H704 H 0.97701 0.45362 0.25776 0.0
H705 H 0.97455 0.47036 0.24062 0.0
H706 H 0.97351 0.43928 0.18386 0.0
H707 H 0.97391 0.45763 0.20089 0.0
H708 H 0.00785 0.4703 0.15558 0.0
H709 H 0.00841 0.48857 0.17284 0.0
N710 N 0.99189 0.49663 0.19021 0.0
N711 N 0.99087 0.49634 0.22336 0.0
C712 C 0.47364 0.4506 0.18269 0.0
C713 C 0.46849 0.45489 0.16959 0.0
C714 C 0.48401 0.46042 0.19291 0.0
C715 C 0.48934 0.47471 0.19031 0.0
C716 C 0.47399 0.46921 0.16694 0.0
C717 C 0.48431 0.47898 0.17714 0.0
C718 C 0.50056 0.48537 0.20066 0.0
C719 C 0.4637 0.46253 0.23362 0.0
C720 C 0.4657 0.45557 0.24675 0.0
C721 C 0.47495 0.47205 0.22424 0.0
C722 C 0.48844 0.47465 0.22757 0.0
C723 C 0.47925 0.45831 0.25019 0.0
C724 C 0.49052 0.46783 0.24075 0.0
C725 C 0.50046 0.48503 0.21794 0.0
C726 C 0.54495 0.54236 0.23567 0.0
C727 C 0.55183 0.53984 0.24846 0.0
C728 C 0.53548 0.53148 0.22579 0.0
C729 C 0.53274 0.51784 0.22843 0.0
C730 C 0.54908 0.52618 0.25108 0.0
C731 C 0.53951 0.51526 0.24124 0.0
C732 C 0.52226 0.50623 0.2184 0.0
C733 C 0.55808 0.53185 0.18426 0.0
C734 C 0.55468 0.53807 0.17147 0.0
C735 C 0.54763 0.52175 0.19414 0.0
C736 C 0.53362 0.51768 0.19139 0.0
C737 C 0.54065 0.53396 0.16879 0.0
C738 C 0.53024 0.52382 0.17857 0.0
C739 C 0.52233 0.50654 0.20115 0.0
H740 H 0.46961 0.43966 0.18509 0.0
H741 H 0.48796 0.45684 0.20272 0.0
H742 H 0.47049 0.47289 0.15678 0.0
H743 H 0.48836 0.48993 0.17476 0.0
H744 H 0.45341 0.4606 0.23053 0.0
H745 H 0.4731 0.47747 0.21446 0.0
H746 H 0.48119 0.45329 0.26036 0.0
H747 H 0.50086 0.46984 0.24371 0.0
H748 H 0.5469 0.55278 0.2333 0.0
H749 H 0.53015 0.5337 0.21623 0.0
H750 H 0.55411 0.5239 0.26095 0.0
H751 H 0.53741 0.50479 0.24361 0.0
H752 H 0.5688 0.53482 0.18663 0.0
H753 H 0.55049 0.51695 0.20374 0.0
H754 H 0.53769 0.53839 0.15887 0.0
H755 H 0.5195 0.52075 0.17611 0.0
N756 N 0.51146 0.49615 0.193 0.0
N757 N 0.51137 0.49544 0.22613 0.0
C758 C 0.47047 0.02064 0.23492 0.0
C759 C 0.46317 0.00884 0.24486 0.0
C760 C 0.48191 0.02254 0.22573 0.0
C761 C 0.4862 0.01258 0.22607 0.0
C762 C 0.46759 0.99897 0.24534 0.0
C763 C 0.47901 1.00085 0.23609 0.0
C764 C 0.49859 0.01465 0.21678 0.0
C765 C 0.46818 0.00982 0.17712 0.0
C766 C 0.47199 0.02216 0.16843 0.0
C767 C 0.4775 0.00899 0.18788 0.0
C768 C 0.49087 0.02042 0.19012 0.0
C769 C 0.48534 0.03368 0.17102 0.0
C770 C 0.49473 0.03275 0.18158 0.0
C771 C 0.50115 0.01919 0.20037 0.0
C772 C 0.54684 0.00964 0.17933 0.0
C773 C 0.55544 0.02182 0.17044 0.0
C774 C 0.53653 0.00897 0.18975 0.0
C775 C 0.53452 0.02042 0.19144 0.0
C776 C 0.55359 0.0334 0.17254 0.0
C777 C 0.54312 0.03263 0.18277 0.0
C778 C 0.52264 0.0192 0.20099 0.0
C779 C 0.55308 0.02119 0.23869 0.0
C780 C 0.54867 0.00853 0.24692 0.0
C781 C 0.54388 0.02309 0.22885 0.0
C782 C 0.53003 0.01244 0.22713 0.0
C783 C 0.53477 0.99784 0.24498 0.0
C784 C 0.52553 0.99985 0.23536 0.0
C785 C 0.52006 0.01459 0.21735 0.0
H786 H 0.46752 0.02857 0.23452 0.0
H787 H 0.48756 0.03195 0.2186 0.0
H788 H 0.46213 0.9897 0.25274 0.0
H789 H 0.48217 0.99308 0.23669 0.0
H790 H 0.45816 1.00062 0.17525 0.0
H791 H 0.47441 0.99927 0.19409 0.0
H792 H 0.48861 0.04345 0.16486 0.0
H793 H 0.50502 0.04167 0.1831 0.0
H794 H 0.54767 1.00039 0.17783 0.0
H795 H 0.52978 0.99931 0.19601 0.0
H796 H 0.56014 0.04305 0.16618 0.0
H797 H 0.54169 0.04156 0.18385 0.0
H798 H 0.56358 0.02978 0.24009 0.0
H799 H 0.54751 0.03301 0.22287 0.0
H800 H 0.531 0.98785 0.2508 0.0
H801 H 0.51488 0.9915 0.2342 0.0
N802 N 0.50813 0.01246 0.22461 0.0
N803 N 0.51311 0.02135 0.19314 0.0
C804 C 0.54247 0.99992 0.79733 0.0
C805 C 0.53999 0.99084 0.78411 0.0
C806 C 0.53149 0.99868 0.80693 0.0
C807 C 0.51778 0.9883 0.80359 0.0
C808 C 0.52621 0.98052 0.78072 0.0
C809 C 0.51521 0.97934 0.7903 0.0
C810 C 0.50607 0.98724 0.81341 0.0
C811 C 0.53 0.9752 0.84827 0.0
C812 C 0.53576 0.98429 0.86167 0.0
C813 C 0.52053 0.97618 0.83787 0.0
C814 C 0.51668 0.9863 0.84065 0.0
C815 C 0.53204 0.99455 0.86417 0.0
C816 C 0.52252 0.99545 0.85387 0.0
C817 C 0.50589 0.98687 0.83064 0.0
C818 C 0.44884 0.97765 0.84774 0.0
C819 C 0.45249 0.98471 0.86276 0.0
C820 C 0.45917 0.97849 0.83715 0.0
C821 C 0.47332 0.98683 0.84117 0.0
C822 C 0.46657 0.99291 0.86684 0.0
C823 C 0.47686 0.99401 0.85614 0.0
C824 C 0.48456 0.98728 0.83082 0.0
C825 C 0.46205 0.00185 0.79785 0.0
C826 C 0.45595 0.99348 0.78399 0.0
C827 C 0.47139 1.00003 0.8075 0.0
C828 C 0.47466 0.98964 0.80366 0.0
C829 C 0.45941 0.98324 0.78003 0.0
C830 C 0.46872 0.9814 0.78972 0.0
C831 C 0.48483 0.98785 0.81352 0.0
H832 H 0.55288 0.00821 0.80008 0.0
H833 H 0.53371 0.00601 0.8168 0.0
H834 H 0.5239 0.97327 0.77074 0.0
H835 H 0.50469 0.97133 0.78742 0.0
H836 H 0.53247 0.96705 0.8461 0.0
H837 H 0.51592 0.96879 0.82795 0.0
H838 H 0.53646 0.00192 0.87413 0.0
H839 H 0.51969 0.00333 0.85626 0.0
H840 H 0.43801 0.97113 0.84448 0.0
H841 H 0.45603 0.97235 0.82607 0.0
H842 H 0.4696 0.99846 0.87837 0.0
H843 H 0.48765 1.00041 0.85967 0.0
H844 H 0.45984 0.01002 0.80105 0.0
H845 H 0.47618 0.00685 0.81787 0.0
H846 H 0.45483 0.97656 0.76951 0.0
H847 H 0.47119 0.97343 0.78641 0.0
N848 N 0.49551 0.98766 0.80552 0.0
N849 N 0.49517 0.98691 0.8386 0.0
C850 C 0.99952 0.54014 0.79761 0.0
C851 C 0.00815 0.54629 0.78398 0.0
C852 C 1.00069 0.53024 0.80691 0.0
C853 C 0.01075 0.52652 0.80304 0.0
C854 C 0.0179 0.54224 0.77978 0.0
C855 C 0.01917 0.53244 0.78922 0.0
C856 C 0.0121 0.51605 0.81288 0.0
C857 C 0.02173 0.55151 0.84769 0.0
C858 C 0.01226 0.54774 0.86074 0.0
C859 C 0.02173 0.54131 0.83758 0.0
C860 C 0.01222 0.52717 0.84031 0.0
C861 C 0.00286 0.53357 0.86349 0.0
C862 C 0.0029 0.52342 0.85344 0.0
C863 C 0.01225 0.51612 0.83016 0.0
C864 C 0.02367 0.47008 0.84767 0.0
C865 C 0.01527 0.46524 0.86172 0.0
C866 C 0.0227 0.47947 0.83712 0.0
C867 C 0.01314 0.48401 0.84029 0.0
C868 C 0.00564 0.4697 0.86473 0.0
C869 C 0.00464 0.479 0.85418 0.0
C870 C 0.01262 0.49478 0.83013 0.0
C871 C 0.99962 0.45824 0.79656 0.0
C872 C 0.0084 0.46079 0.78303 0.0
C873 C 1.00102 0.46919 0.80637 0.0
C874 C 0.01132 0.48294 0.80296 0.0
C875 C 0.01867 0.47457 0.77961 0.0
C876 C 0.02004 0.48554 0.78941 0.0
C877 C 0.01246 0.49467 0.81285 0.0
H878 H 0.99169 0.54281 0.80093 0.0
H879 H 0.99362 0.52541 0.81705 0.0
H880 H 0.02468 0.54681 0.76934 0.0
H881 H 0.02686 0.52959 0.78583 0.0
H882 H 0.02909 0.56234 0.84526 0.0
H883 H 0.02924 0.54446 0.82775 0.0
H884 H 0.99562 0.5303 0.87361 0.0
H885 H 0.99558 0.51258 0.85591 0.0
H886 H 0.0313 0.46696 0.84513 0.0
H887 H 0.02967 0.48347 0.82676 0.0
H888 H 0.99887 0.466 0.8753 0.0
H889 H 0.99722 0.48237 0.85694 0.0
H890 H 0.99165 0.44775 0.7996 0.0
H891 H 0.9939 0.46692 0.81648 0.0
H892 H 0.02546 0.47691 0.76914 0.0
H893 H 0.02793 0.49607 0.78641 0.0
N894 N 0.01231 0.50536 0.80492 0.0
N895 N 0.01244 0.50546 0.83802 0.0
C896 C 0.53218 0.55267 0.79134 0.0
C897 C 0.54067 0.54879 0.78258 0.0
C898 C 0.52111 0.54296 0.80084 0.0
C899 C 0.51819 0.52913 0.80169 0.0
C900 C 0.53768 0.5349 0.78357 0.0
C901 C 0.52646 0.52516 0.79285 0.0
C902 C 0.50633 0.51869 0.81142 0.0
C903 C 0.53872 0.54629 0.84799 0.0
C904 C 0.5344 0.55266 0.8597 0.0
C905 C 0.52911 0.53607 0.83751 0.0
C906 C 0.51498 0.53218 0.83821 0.0
C907 C 0.52026 0.54878 0.86033 0.0
C908 C 0.51066 0.53863 0.84974 0.0
C909 C 0.50448 0.52051 0.82816 0.0
C910 C 0.45839 0.46457 0.84854 0.0
C911 C 0.45167 0.46868 0.85999 0.0
C912 C 0.4683 0.47424 0.83782 0.0
C913 C 0.47157 0.48821 0.83815 0.0
C914 C 0.45481 0.48262 0.86014 0.0
C915 C 0.4647 0.49228 0.84939 0.0
C916 C 0.4831 0.49886 0.82813 0.0
C917 C 0.45141 0.47066 0.79102 0.0
C918 C 0.45563 0.46245 0.78226 0.0
C919 C 0.46087 0.48178 0.80069 0.0
C920 C 0.47479 0.48503 0.80169 0.0
C921 C 0.46961 0.46574 0.78345 0.0
C922 C 0.4791 0.47701 0.79288 0.0
C923 C 0.48501 0.49705 0.81142 0.0
H924 H 0.53392 0.56315 0.79066 0.0
H925 H 0.51469 0.54619 0.80736 0.0
H926 H 0.54408 0.53151 0.77733 0.0
H927 H 0.52438 0.51454 0.79335 0.0
H928 H 0.54953 0.54908 0.84703 0.0
H929 H 0.53272 0.53093 0.82922 0.0
H930 H 0.51649 0.55326 0.86936 0.0
H931 H 0.4998 0.53567 0.85073 0.0
H932 H 0.45616 0.45391 0.84801 0.0
H933 H 0.47374 0.47086 0.8297 0.0
H934 H 0.45 0.4862 0.86895 0.0
H935 H 0.46718 0.50303 0.85005 0.0
H936 H 0.44085 0.46869 0.79021 0.0
H937 H 0.45737 0.488 0.80717 0.0
H938 H 0.47326 0.45955 0.77724 0.0
H939 H 0.4898 0.47935 0.79349 0.0
N940 N 0.49658 0.507 0.80373 0.0
N941 N 0.49289 0.51055 0.8358 0.0
C942 C 0.66123 0.78986 0.51653 0.0
C943 C 0.65106 0.7837 0.50427 0.0
C944 C 0.66146 0.8 0.52689 0.0
C945 C 0.65136 0.80403 0.52543 0.0
C946 C 0.64098 0.78778 0.50284 0.0
C947 C 0.64117 0.79787 0.51326 0.0
C948 C 0.65199 0.81544 0.53554 0.0
C949 C 0.64569 0.78155 0.57044 0.0
C950 C 0.65665 0.78548 0.58162 0.0
C951 C 0.64471 0.79155 0.56109 0.0
C952 C 0.65476 0.80569 0.56258 0.0
C953 C 0.6665 0.79968 0.58333 0.0
C954 C 0.66551 0.80966 0.57398 0.0
C955 C 0.65405 0.81647 0.55264 0.0
C956 C 0.64863 0.86679 0.56974 0.0
C957 C 0.65856 0.87224 0.58229 0.0
C958 C 0.64722 0.8557 0.56016 0.0
C959 C 0.65603 0.85015 0.5626 0.0
C960 C 0.66706 0.86641 0.58506 0.0
C961 C 0.66582 0.8555 0.57531 0.0
C962 C 0.65479 0.83839 0.5526 0.0
C963 C 0.66483 0.87266 0.51614 0.0
C964 C 0.65473 0.86931 0.50393 0.0
C965 C 0.66415 0.86239 0.52658 0.0
C966 C 0.65325 0.84859 0.52521 0.0
C967 C 0.64385 0.85548 0.50259 0.0
C968 C 0.64316 0.84523 0.51306 0.0
C969 C 0.65285 0.8374 0.53545 0.0
H970 H 0.66911 0.78692 0.51806 0.0
H971 H 0.66971 0.80489 0.53581 0.0
H972 H 0.63316 0.78347 0.49335 0.0
H973 H 0.6334 0.80096 0.51171 0.0
H974 H 0.63779 0.77073 0.56903 0.0
H975 H 0.63607 0.78824 0.55274 0.0
H976 H 0.67515 0.80308 0.59167 0.0
H977 H 0.67334 0.8205 0.57543 0.0
H978 H 0.64179 0.87095 0.56753 0.0
H979 H 0.63917 0.85143 0.55094 0.0
H980 H 0.67483 0.87046 0.59462 0.0
H981 H 0.67263 0.85133 0.57761 0.0
H982 H 0.67331 0.88321 0.51758 0.0
H983 H 0.67229 0.8652 0.53555 0.0
H984 H 0.63604 0.85246 0.49315 0.0
H985 H 0.63478 0.83462 0.51159 0.0
N986 N 0.6514 0.82591 0.52769 0.0
N987 N 0.65541 0.82792 0.56044 0.0
C988 C 0.14015 0.78118 0.52004 0.0
C989 C 0.13667 0.78457 0.50494 0.0
C990 C 0.14985 0.79166 0.53027 0.0
C991 C 0.15581 0.80574 0.52581 0.0
C992 C 0.14278 0.79856 0.50034 0.0
C993 C 0.15219 0.80903 0.51069 0.0
C994 C 0.16657 0.81716 0.53598 0.0
C995 C 0.12927 0.79566 0.56865 0.0
C996 C 0.13116 0.78925 0.58244 0.0
C997 C 0.14062 0.80488 0.55916 0.0
C998 C 0.15411 0.80777 0.56312 0.0
C999 C 0.14471 0.7923 0.5865 0.0
C1000 C 0.15607 0.80155 0.57699 0.0
C1001 C 0.1662 0.81772 0.55324 0.0
C1002 C 0.21077 0.87584 0.56882 0.0
C1003 C 0.21722 0.87361 0.58232 0.0
C1004 C 0.20137 0.86469 0.55917 0.0
C1005 C 0.19829 0.85108 0.56275 0.0
C1006 C 0.21411 0.85996 0.58588 0.0
C1007 C 0.20465 0.8488 0.57626 0.0
C1008 C 0.18784 0.83914 0.55306 0.0
C1009 C 0.22333 0.86381 0.51751 0.0
C1010 C 0.21942 0.86863 0.50374 0.0
C1011 C 0.21323 0.85433 0.52828 0.0
C1012 C 0.19908 0.84961 0.52554 0.0
C1013 C 0.20526 0.86407 0.50128 0.0
C1014 C 0.19522 0.85461 0.51198 0.0
C1015 C 0.18805 0.83872 0.53582 0.0
H1016 H 0.13566 0.77042 0.52371 0.0
H1017 H 0.15284 0.78871 0.54147 0.0
H1018 H 0.14021 0.80139 0.48875 0.0
H1019 H 0.15668 0.81974 0.50682 0.0
H1020 H 0.11899 0.79347 0.56509 0.0
H1021 H 0.13886 0.8098 0.54876 0.0
H1022 H 0.14655 0.7877 0.59717 0.0
H1023 H 0.16641 0.80379 0.58041 0.0
H1024 H 0.21299 0.88622 0.5657 0.0
H1025 H 0.19634 0.8667 0.54907 0.0
H1026 H 0.21876 0.85788 0.59632 0.0
H1027 H 0.20228 0.83836 0.57937 0.0
H1028 H 0.23413 0.86701 0.51967 0.0
H1029 H 0.21646 0.85039 0.53846 0.0
H1030 H 0.20189 0.86777 0.49101 0.0
H1031 H 0.18438 0.85113 0.5096 0.0
N1032 N 0.17744 0.82775 0.52805 0.0
N1033 N 0.17694 0.8286 0.5611 0.0
C1034 C 0.22644 0.36492 0.51637 0.0
C1035 C 0.22346 0.35798 0.50128 0.0
C1036 C 0.21563 0.36339 0.52659 0.0
C1037 C 0.20167 0.35448 0.52213 0.0
C1038 C 0.20958 0.34936 0.49666 0.0
C1039 C 0.19881 0.34758 0.507 0.0
C1040 C 0.18988 0.3529 0.53235 0.0
C1041 C 0.21428 0.34015 0.56477 0.0
C1042 C 0.21844 0.3471 0.57983 0.0
C1043 C 0.20475 0.34151 0.55493 0.0
C1044 C 0.19959 0.35029 0.55967 0.0
C1045 C 0.21298 0.35552 0.58484 0.0
C1046 C 0.20369 0.35714 0.57483 0.0
C1047 C 0.18921 0.35164 0.5496 0.0
C1048 C 0.1304 0.33632 0.56523 0.0
C1049 C 0.13246 0.3451 0.57866 0.0
C1050 C 0.14162 0.33817 0.55562 0.0
C1051 C 0.15514 0.3489 0.55915 0.0
C1052 C 0.14605 0.35577 0.58221 0.0
C1053 C 0.15727 0.35757 0.57263 0.0
C1054 C 0.16719 0.35073 0.54938 0.0
C1055 C 0.14102 0.36007 0.51468 0.0
C1056 C 0.13725 0.3522 0.50018 0.0
C1057 C 0.15076 0.35983 0.52533 0.0
C1058 C 0.15666 0.35146 0.52183 0.0
C1059 C 0.14312 0.34382 0.49678 0.0
C1060 C 0.15271 0.34347 0.50746 0.0
C1061 C 0.16771 0.35163 0.53216 0.0
H1062 H 0.23711 0.37173 0.52006 0.0
H1063 H 0.2182 0.3693 0.53785 0.0
H1064 H 0.20707 0.34388 0.48508 0.0
H1065 H 0.18819 0.34077 0.50313 0.0
H1066 H 0.21814 0.33338 0.56081 0.0
H1067 H 0.2013 0.33556 0.54372 0.0
H1068 H 0.216 0.36094 0.59645 0.0
H1069 H 0.19971 0.36377 0.57894 0.0
H1070 H 0.12014 0.32782 0.56233 0.0
H1071 H 0.13976 0.33109 0.54557 0.0
H1072 H 0.14803 0.36282 0.59232 0.0
H1073 H 0.16763 0.36585 0.57565 0.0
H1074 H 0.13677 0.36675 0.5175 0.0
H1075 H 0.15392 0.36645 0.53603 0.0
H1076 H 0.1403 0.33751 0.48582 0.0
H1077 H 0.15713 0.33698 0.50442 0.0
N1078 N 0.17904 0.3527 0.52444 0.0
N1079 N 0.17795 0.35081 0.55739 0.0
H1080 H 0.97379 0.36265 0.05678 0.0
H1081 H 0.97064 0.37451 0.08024 0.0
H1082 H 0.01505 0.39838 0.0868 0.0
H1083 H 0.01831 0.38652 0.06354 0.0
H1084 H 1.0016 0.39006 0.11599 0.0
H1085 H 0.99813 0.41203 0.0667 0.0
H1086 H 0.98853 0.41254 0.03974 0.0
H1087 H 0.94807 0.39691 0.06106 0.0
H1088 H 0.95741 0.39613 0.08812 0.0
H1089 H 0.01253 0.45082 0.15712 0.0
H1090 H 0.01182 0.43352 0.13803 0.0
H1091 H 0.96711 0.41354 0.13634 0.0
H1092 H 0.96776 0.43102 0.15521 0.0
H1093 H 0.97825 0.41755 0.10607 0.0
H1094 H 0.98235 0.39814 0.1561 0.0
H1095 H 0.99214 0.39806 0.18308 0.0
H1096 H 0.03129 0.40894 0.16076 0.0
H1097 H 0.02181 0.4093 0.13366 0.0
C1098 C 0.98289 0.37032 0.06331 0.0
C1099 C 0.99632 0.37371 0.05817 0.0
C1100 C 0.98106 0.37712 0.0767 0.0
C1101 C 0.99262 0.38745 0.08515 0.0
C1102 C 0.00599 0.39045 0.08046 0.0
C1103 C 0.00783 0.38369 0.06708 0.0
C1104 C 0.99092 0.39569 0.09835 0.0
C1105 C 0.99657 0.39613 0.11382 0.0
C1106 C 0.98405 0.40335 0.09563 0.0
C1107 C 0.97843 0.40386 0.07938 0.0
C1108 C 0.98716 0.4086 0.06561 0.0
C1109 C 0.98177 0.40895 0.05032 0.0
C1110 C 0.96769 0.40472 0.04868 0.0
C1111 C 0.95897 0.40016 0.06234 0.0
C1112 C 0.96431 0.39976 0.07766 0.0
C1113 C 0.00254 0.44274 0.15269 0.0
C1114 C 0.9902 0.4423 0.15765 0.0
C1115 C 0.00214 0.43278 0.1419 0.0
C1116 C 0.9894 0.42215 0.13587 0.0
C1117 C 0.97705 0.42161 0.1409 0.0
C1118 C 0.97743 0.43154 0.15177 0.0
C1119 C 0.9891 0.41208 0.12368 0.0
C1120 C 0.9831 0.41132 0.10837 0.0
C1121 C 0.99565 0.40414 0.12657 0.0
C1122 C 1.00139 0.40385 0.14284 0.0
C1123 C 0.99308 0.40062 0.15695 0.0
C1124 C 0.99857 0.40051 0.17227 0.0
C1125 C 0.01233 0.40352 0.17363 0.0
C1126 C 0.02063 0.40662 0.15968 0.0
C1127 C 0.0152 0.40676 0.14433 0.0
H1128 H 0.01656 0.40343 0.1855 0.0
H1129 H 0.96353 0.40501 0.03683 0.0
H1130 H 0.64035 0.60994 0.0551 0.0
H1131 H 0.62989 0.59523 0.0791 0.0
H1132 H 0.60639 0.61583 0.08873 0.0
H1133 H 0.61687 0.63065 0.06494 0.0
H1134 H 0.61646 0.61125 0.11678 0.0
H1135 H 0.59172 0.58489 0.06892 0.0
H1136 H 0.58968 0.57426 0.04183 0.0
H1137 H 0.60662 0.54992 0.06109 0.0
H1138 H 0.60892 0.56055 0.08826 0.0
H1139 H 0.55733 0.56254 0.16072 0.0
H1140 H 0.57416 0.5788 0.14109 0.0
H1141 H 0.5936 0.55356 0.138 0.0
H1142 H 0.57659 0.53708 0.15747 0.0
H1143 H 0.58841 0.5603 0.10802 0.0
H1144 H 0.61019 0.5845 0.15695 0.0
H1145 H 0.61161 0.59484 0.18408 0.0
H1146 H 0.60007 0.62305 0.16315 0.0
H1147 H 0.59836 0.61274 0.13593 0.0
C1148 C 0.63305 0.61143 0.0624 0.0
C1149 C 0.62936 0.62141 0.05799 0.0
C1150 C 0.62706 0.60299 0.0761 0.0
C1151 C 0.61724 0.60433 0.0856 0.0
C1152 C 0.61394 0.61461 0.08157 0.0
C1153 C 0.6199 0.62303 0.0679 0.0
C1154 C 0.60985 0.59463 0.09926 0.0
C1155 C 0.61027 0.60011 0.11487 0.0
C1156 C 0.60207 0.58006 0.09686 0.0
C1157 C 0.60065 0.57364 0.08056 0.0
C1158 C 0.59511 0.57736 0.06734 0.0
C1159 C 0.59389 0.57132 0.05198 0.0
C1160 C 0.59807 0.56145 0.04973 0.0
C1161 C 0.60343 0.55758 0.06284 0.0
C1162 C 0.60468 0.56361 0.07822 0.0
C1163 C 0.56522 0.56048 0.15591 0.0
C1164 C 0.56562 0.54851 0.16061 0.0
C1165 C 0.57491 0.56984 0.1448 0.0
C1166 C 0.58521 0.56746 0.13818 0.0
C1167 C 0.58577 0.55563 0.14302 0.0
C1168 C 0.57611 0.54627 0.15422 0.0
C1169 C 0.59482 0.57693 0.1255 0.0
C1170 C 0.59479 0.5714 0.11005 0.0
C1171 C 0.60294 0.59145 0.12806 0.0
C1172 C 0.60405 0.59777 0.1444 0.0
C1173 C 0.60785 0.59284 0.15814 0.0
C1174 C 0.60873 0.5987 0.17354 0.0
C1175 C 0.60591 0.60957 0.17534 0.0
C1176 C 0.60225 0.61462 0.16174 0.0
C1177 C 0.60134 0.60878 0.14631 0.0
H1178 H 0.60659 0.6141 0.18727 0.0
H1179 H 0.59711 0.55679 0.03783 0.0
H1180 H 0.37208 0.99573 0.07103 0.0
H1181 H 0.38849 1.00041 0.09335 0.0
H1182 H 0.41959 0.03667 0.06798 0.0
H1183 H 0.40312 0.03223 0.04571 0.0
H1184 H 0.42763 0.0164 0.07825 0.0
H1185 H 0.40743 0.04273 0.0997 0.0
H1186 H 0.38809 0.04627 0.10816 0.0
H1187 H 0.37514 0.01363 0.14356 0.0
H1188 H 0.39429 0.00976 0.13515 0.0
H1189 H 0.47845 0.03652 0.13939 0.0
H1190 H 0.46263 0.03694 0.11923 0.0
H1191 H 0.42762 0.00885 0.14883 0.0
H1192 H 0.44341 0.00929 0.16976 0.0
H1193 H 0.4219 0.02636 0.13598 0.0
H1194 H 0.43949 0.99807 0.11437 0.0
H1195 H 0.45726 0.99221 0.10582 0.0
H1196 H 0.47321 0.02532 0.07073 0.0
H1197 H 0.45564 0.0315 0.07923 0.0
C1198 C 0.38235 0.00481 0.0703 0.0
C1199 C 0.38632 0.0136 0.0566 0.0
C1200 C 0.39169 0.00749 0.08307 0.0
C1201 C 0.40522 0.01888 0.08229 0.0
C1202 C 0.40916 0.02784 0.06879 0.0
C1203 C 0.39973 0.02532 0.05613 0.0
C1204 C 0.41548 0.02088 0.09509 0.0
C1205 C 0.42657 0.01884 0.09083 0.0
C1206 C 0.41371 0.02352 0.11156 0.0
C1207 C 0.40223 0.02587 0.11669 0.0
C1208 C 0.40038 0.03622 0.10919 0.0
C1209 C 0.38947 0.03831 0.114 0.0
C1210 C 0.38037 0.03016 0.12636 0.0
C1211 C 0.38219 0.01993 0.13397 0.0
C1212 C 0.39308 0.0178 0.1292 0.0
C1213 C 0.46741 0.03066 0.14187 0.0
C1214 C 0.46229 0.02279 0.15628 0.0
C1215 C 0.45833 0.03074 0.13013 0.0
C1216 C 0.44388 0.02266 0.13226 0.0
C1217 C 0.43871 0.01509 0.1468 0.0
C1218 C 0.4478 0.01521 0.1587 0.0
C1219 C 0.43416 0.02186 0.11921 0.0
C1220 C 0.42311 0.02404 0.1234 0.0
C1221 C 0.43576 0.01902 0.10269 0.0
C1222 C 0.44635 0.01534 0.09756 0.0
C1223 C 0.44686 0.00417 0.10492 0.0
C1224 C 0.45688 1.00078 0.10007 0.0
C1225 C 0.46638 0.00841 0.08777 0.0
C1226 C 0.46586 0.01943 0.08027 0.0
C1227 C 0.45587 0.02288 0.08509 0.0
H1228 H 0.47413 0.00577 0.08403 0.0
H1229 H 0.37193 0.03179 0.13006 0.0
H1230 H 0.37647 0.00796 0.95958 0.0
H1231 H 0.38807 0.0034 0.93686 0.0
H1232 H 0.38606 0.96893 0.9633 0.0
H1233 H 0.37406 0.97314 0.98591 0.0
H1234 H 0.41473 0.99435 0.95058 0.0
H1235 H 0.36835 0.9579 0.9356 0.0
H1236 H 0.34368 0.94897 0.92897 0.0
H1237 H 0.35544 0.97751 0.88886 0.0
H1238 H 0.3802 0.98676 0.89542 0.0
H1239 H 0.44842 0.97436 0.89347 0.0
H1240 H 0.43184 0.97346 0.91384 0.0
H1241 H 0.41636 0.9917 0.87915 0.0
H1242 H 0.43252 0.99188 0.85846 0.0
H1243 H 0.39569 0.97386 0.89623 0.0
H1244 H 0.44065 0.01116 0.9099 0.0
H1245 H 0.46572 0.02275 0.91594 0.0
H1246 H 0.45754 0.99648 0.95773 0.0
H1247 H 0.43241 0.98458 0.9518 0.0
C1248 C 0.37828 0.99926 0.96044 0.0
C1249 C 0.37438 0.99091 0.97452 0.0
C1250 C 0.38487 0.99666 0.94745 0.0
C1251 C 0.38786 0.98583 0.94846 0.0
C1252 C 0.38373 0.97729 0.96232 0.0
C1253 C 0.37686 0.97968 0.97517 0.0
C1254 C 0.39639 0.98427 0.93565 0.0
C1255 C 0.41056 0.98964 0.93878 0.0
C1256 C 0.39099 0.9787 0.92009 0.0
C1257 C 0.37612 0.97313 0.91612 0.0
C1258 C 0.36568 0.96238 0.92548 0.0
C1259 C 0.35168 0.95723 0.92171 0.0
C1260 C 0.34799 0.9627 0.90853 0.0
C1261 C 0.35831 0.9733 0.89908 0.0
C1262 C 0.37233 0.97849 0.90281 0.0
C1263 C 0.44136 0.97803 0.8902 0.0
C1264 C 0.44175 0.98328 0.87452 0.0
C1265 C 0.43195 0.9776 0.90185 0.0
C1266 C 0.42307 0.98285 0.89821 0.0
C1267 C 0.42313 0.98764 0.8823 0.0
C1268 C 0.43235 0.98778 0.87051 0.0
C1269 C 0.41413 0.98378 0.91117 0.0
C1270 C 0.39991 0.97845 0.90805 0.0
C1271 C 0.41956 0.98974 0.92667 0.0
C1272 C 0.43466 0.99689 0.9303 0.0
C1273 C 0.4442 0.00779 0.9203 0.0
C1274 C 0.45842 0.01442 0.92372 0.0
C1275 C 0.46322 0.01033 0.93718 0.0
C1276 C 0.4538 0.99962 0.94729 0.0
C1277 C 0.43957 0.99293 0.94391 0.0
H1278 H 0.47423 0.01548 0.93981 0.0
H1279 H 0.33715 0.95869 0.90563 0.0
H1280 H 0.0319 0.38777 0.96989 0.0
H1281 H 0.03514 0.40268 0.94632 0.0
H1282 H 0.99244 0.39289 0.95029 0.0
H1283 H 0.98902 0.3777 0.97329 0.0
H1284 H 0.99832 0.39322 0.91984 0.0
H1285 H 0.02086 0.42389 0.96579 0.0
H1286 H 0.03768 0.43367 0.98845 0.0
H1287 H 0.07142 0.44565 0.95471 0.0
H1288 H 0.05478 0.43578 0.93187 0.0
H1289 H 0.01587 0.46691 0.89499 0.0
H1290 H 0.01676 0.45081 0.91454 0.0
H1291 H 0.01924 0.4265 0.87484 0.0
H1292 H 0.01801 0.44245 0.85513 0.0
H1293 H 0.03528 0.4428 0.92134 0.0
H1294 H 1.00036 0.39198 0.88626 0.0
H1295 H 0.98171 0.38286 0.86558 0.0
H1296 H 0.9697 0.4124 0.8809 0.0
H1297 H 0.98815 0.42155 0.90179 0.0
C1298 C 0.0232 0.38874 0.96565 0.0
C1299 C 0.01022 0.38157 0.97352 0.0
C1300 C 0.02507 0.39731 0.95221 0.0
C1301 C 0.01408 0.39906 0.94661 0.0
C1302 C 1.00108 0.39169 0.95429 0.0
C1303 C 0.99915 0.38303 0.96753 0.0
C1304 C 0.01603 0.40883 0.93312 0.0
C1305 C 0.0065 0.40403 0.92011 0.0
C1306 C 0.02659 0.42299 0.93347 0.0
C1307 C 0.03658 0.42897 0.94717 0.0
C1308 C 0.03187 0.42853 0.96323 0.0
C1309 C 0.04136 0.4341 0.9761 0.0
C1310 C 0.05561 0.44024 0.97303 0.0
C1311 C 0.06038 0.44086 0.95708 0.0
C1312 C 0.05093 0.43529 0.94417 0.0
C1313 C 0.01655 0.45811 0.8904 0.0
C1314 C 0.0167 0.45586 0.8735 0.0
C1315 C 0.01721 0.44899 0.9016 0.0
C1316 C 0.01796 0.43739 0.89617 0.0
C1317 C 0.01854 0.43533 0.8793 0.0
C1318 C 0.01791 0.44448 0.86806 0.0
C1319 C 0.01747 0.4272 0.90826 0.0
C1320 C 0.02728 0.43192 0.92094 0.0
C1321 C 0.00694 0.41305 0.90786 0.0
C1322 C 0.99576 0.40756 0.89541 0.0
C1323 C 0.99372 0.39651 0.88522 0.0
C1324 C 0.98319 0.39133 0.87347 0.0
C1325 C 0.97457 0.39708 0.87188 0.0
C1326 C 0.97643 0.40799 0.88209 0.0
C1327 C 0.98693 0.41319 0.89387 0.0
H1328 H 0.96642 0.39307 0.86278 0.0
H1329 H 0.06294 0.44454 0.98301 0.0
H1330 H 0.60845 0.63984 0.97491 0.0
H1331 H 0.59305 0.62839 0.95165 0.0
H1332 H 0.61106 0.60207 0.94548 0.0
H1333 H 0.6266 0.61359 0.9684 0.0
H1334 H 0.60753 0.61065 0.91666 0.0
H1335 H 0.57958 0.59066 0.96495 0.0
H1336 H 0.56895 0.59119 0.99123 0.0
H1337 H 0.54776 0.6099 0.96783 0.0
H1338 H 0.55842 0.60965 0.94143 0.0
H1339 H 0.55589 0.5518 0.87497 0.0
H1340 H 0.57213 0.56807 0.89495 0.0
H1341 H 0.55183 0.59249 0.89226 0.0
H1342 H 0.53567 0.57641 0.87185 0.0
H1343 H 0.55642 0.58736 0.92409 0.0
H1344 H 0.58273 0.60476 0.87495 0.0
H1345 H 0.59308 0.60335 0.84885 0.0
H1346 H 0.6172 0.58874 0.87402 0.0
H1347 H 0.60683 0.58985 0.90026 0.0
C1348 C 0.60919 0.63167 0.96854 0.0
C1349 C 0.61873 0.6276 0.9736 0.0
C1350 C 0.60034 0.6251 0.95528 0.0
C1351 C 0.60078 0.61425 0.94693 0.0
C1352 C 0.61052 0.61041 0.95172 0.0
C1353 C 0.61938 0.61699 0.96489 0.0
C1354 C 0.59095 0.60661 0.93341 0.0
C1355 C 0.59635 0.60548 0.91833 0.0
C1356 C 0.57635 0.60015 0.93542 0.0
C1357 C 0.56993 0.60029 0.95127 0.0
C1358 C 0.57274 0.59499 0.96544 0.0
C1359 C 0.5667 0.59523 0.98035 0.0
C1360 C 0.55772 0.60062 0.98121 0.0
C1361 C 0.55474 0.60576 0.96715 0.0
C1362 C 0.56078 0.60557 0.95221 0.0
C1363 C 0.55499 0.56075 0.87835 0.0
C1364 C 0.54449 0.56281 0.87167 0.0
C1365 C 0.56427 0.57003 0.88986 0.0
C1366 C 0.56327 0.58157 0.89498 0.0
C1367 C 0.55278 0.58365 0.88846 0.0
C1368 C 0.54352 0.57441 0.87685 0.0
C1369 C 0.57301 0.59119 0.90748 0.0
C1370 C 0.56759 0.59268 0.92236 0.0
C1371 C 0.58759 0.59791 0.90532 0.0
C1372 C 0.59392 0.59729 0.88957 0.0
C1373 C 0.59016 0.60115 0.87491 0.0
C1374 C 0.59604 0.60042 0.86009 0.0
C1375 C 0.60577 0.59593 0.85977 0.0
C1376 C 0.60966 0.5922 0.87428 0.0
C1377 C 0.60379 0.59289 0.88914 0.0
H1378 H 0.61032 0.59538 0.84829 0.0
H1379 H 0.55305 0.60079 0.99276 0.0
H1380 H 0.02916 0.63896 0.97125 0.0
H1381 H 0.03127 0.62578 0.94848 0.0
H1382 H 0.98661 0.60113 0.94543 0.0
H1383 H 0.9844 0.61407 0.96822 0.0
H1384 H 0.99805 0.58501 0.94586 0.0
H1385 H 0.00583 0.62583 0.91662 0.0
H1386 H 0.01732 0.65095 0.91086 0.0
H1387 H 0.05629 0.65219 0.90415 0.0
H1388 H 0.04506 0.6271 0.91009 0.0
H1389 H 0.98983 0.54888 0.87259 0.0
H1390 H 0.9897 0.56518 0.89258 0.0
H1391 H 0.03449 0.58708 0.89387 0.0
H1392 H 0.03471 0.57074 0.87384 0.0
H1393 H 0.02425 0.60502 0.89451 0.0
H1394 H 0.01658 0.56436 0.92343 0.0
H1395 H 0.00527 0.53926 0.92922 0.0
H1396 H 0.96632 0.53785 0.93692 0.0
H1397 H 0.97737 0.56292 0.93093 0.0
C1398 C 0.01979 0.63083 0.96562 0.0
C1399 C 0.00661 0.62754 0.97163 0.0
C1400 C 0.02101 0.62333 0.95256 0.0
C1401 C 0.00909 0.61249 0.9452 0.0
C1402 C 0.99595 0.60942 0.95094 0.0
C1403 C 0.99471 0.61686 0.96398 0.0
C1404 C 0.01021 0.6038 0.9321 0.0
C1405 C 0.00362 0.58939 0.93454 0.0
C1406 C 0.01787 0.60954 0.91756 0.0
C1407 C 0.02463 0.62462 0.91397 0.0
C1408 C 0.01687 0.63148 0.91405 0.0
C1409 C 0.02334 0.64571 0.91073 0.0
C1410 C 0.03754 0.65317 0.90719 0.0
C1411 C 0.04529 0.6464 0.90692 0.0
C1412 C 0.03888 0.63218 0.91025 0.0
C1413 C 0.99966 0.55717 0.87712 0.0
C1414 C 0.01228 0.55841 0.87177 0.0
C1415 C 0.99957 0.56649 0.88851 0.0
C1416 C 0.01208 0.57721 0.89492 0.0
C1417 C 0.02472 0.57887 0.88911 0.0
C1418 C 0.02483 0.56954 0.87764 0.0
C1419 C 0.01186 0.58624 0.90819 0.0
C1420 C 0.01868 0.60069 0.90584 0.0
C1421 C 0.00444 0.58056 0.92288 0.0
C1422 C 0.99778 0.56549 0.92658 0.0
C1423 C 0.00558 0.55868 0.92624 0.0
C1424 C 0.99922 0.54446 0.92957 0.0
C1425 C 0.98508 0.53696 0.9334 0.0
C1426 C 0.97728 0.54367 0.93393 0.0
C1427 C 0.98358 0.55789 0.93058 0.0
H1428 H 0.98017 0.52595 0.93598 0.0
H1429 H 0.04252 0.66418 0.90461 0.0
H1430 H 0.39161 0.3782 0.97197 0.0
H1431 H 0.40413 0.39387 0.94949 0.0
H1432 H 0.37613 0.4102 0.95114 0.0
H1433 H 0.36342 0.39445 0.97374 0.0
H1434 H 0.38232 0.40582 0.91925 0.0
H1435 H 0.40672 0.42852 0.96811 0.0
H1436 H 0.41822 0.43041 0.99449 0.0
H1437 H 0.44835 0.42299 0.97051 0.0
H1438 H 0.4369 0.42085 0.94401 0.0
H1439 H 0.42706 0.4658 0.87138 0.0
H1440 H 0.412 0.45013 0.89278 0.0
H1441 H 0.43927 0.43313 0.89775 0.0
H1442 H 0.45459 0.44906 0.87685 0.0
H1443 H 0.43266 0.43882 0.92691 0.0
H1444 H 0.40771 0.41523 0.87819 0.0
H1445 H 0.39603 0.41305 0.85187 0.0
H1446 H 0.36691 0.42212 0.87553 0.0
H1447 H 0.37854 0.42455 0.90198 0.0
C1448 C 0.38801 0.38503 0.96753 0.0
C1449 C 0.37655 0.38513 0.97478 0.0
C1450 C 0.39522 0.39402 0.95468 0.0
C1451 C 0.39117 0.40332 0.9488 0.0
C1452 C 0.37944 0.40312 0.95555 0.0
C1453 C 0.37223 0.39414 0.96849 0.0
C1454 C 0.39954 0.41353 0.93597 0.0
C1455 C 0.39328 0.41319 0.92098 0.0
C1456 C 0.41387 0.42299 0.93819 0.0
C1457 C 0.42087 0.42441 0.95409 0.0
C1458 C 0.41574 0.42719 0.96848 0.0
C1459 C 0.42226 0.42832 0.98345 0.0
C1460 C 0.43399 0.42679 0.98418 0.0
C1461 C 0.43925 0.42416 0.96993 0.0
C1462 C 0.43276 0.423 0.95492 0.0
C1463 C 0.42987 0.45875 0.87706 0.0
C1464 C 0.44202 0.45867 0.87234 0.0
C1465 C 0.42118 0.44971 0.88919 0.0
C1466 C 0.42444 0.44036 0.89679 0.0
C1467 C 0.43652 0.44022 0.89205 0.0
C1468 C 0.44521 0.44925 0.87995 0.0
C1469 C 0.41553 0.43097 0.91001 0.0
C1470 C 0.42169 0.4315 0.92515 0.0
C1471 C 0.40112 0.42171 0.9079 0.0
C1472 C 0.39409 0.42022 0.89203 0.0
C1473 C 0.39889 0.41688 0.87776 0.0
C1474 C 0.39226 0.41557 0.86282 0.0
C1475 C 0.38076 0.41748 0.86202 0.0
C1476 C 0.37584 0.42067 0.87617 0.0
C1477 C 0.38244 0.422 0.89113 0.0
H1478 H 0.37564 0.41647 0.85044 0.0
H1479 H 0.43902 0.42767 0.99578 0.0
H1480 H 0.61221 0.9707 0.9739 0.0
H1481 H 0.59686 0.96531 0.95022 0.0
H1482 H 0.61203 0.00907 0.94316 0.0
H1483 H 0.62755 0.01453 0.96635 0.0
H1484 H 0.57595 0.96924 0.94525 0.0
H1485 H 0.6116 0.01706 0.90433 0.0
H1486 H 0.63648 0.03132 0.89755 0.0
H1487 H 0.64299 0.99759 0.91073 0.0
H1488 H 0.61812 0.98306 0.91737 0.0
H1489 H 0.53691 0.98742 0.89492 0.0
H1490 H 0.55316 0.98629 0.91385 0.0
H1491 H 0.57213 0.97617 0.87407 0.0
H1492 H 0.55633 0.97807 0.85481 0.0
H1493 H 0.59146 0.99443 0.89256 0.0
H1494 H 0.55097 0.95135 0.90279 0.0
H1495 H 0.52621 0.93511 0.90844 0.0
H1496 H 0.52961 0.95547 0.95428 0.0
H1497 H 0.55435 0.97196 0.9488 0.0
C1498 C 0.61238 0.97918 0.96718 0.0
C1499 C 0.62115 0.99305 0.97202 0.0
C1500 C 0.60358 0.97608 0.95367 0.0
C1501 C 0.60341 0.98679 0.94475 0.0
C1502 C 0.61219 1.00062 0.94957 0.0
C1503 C 0.62102 0.00373 0.96295 0.0
C1504 C 0.59359 0.98363 0.93094 0.0
C1505 C 0.57935 0.97466 0.93368 0.0
C1506 C 0.59803 0.99036 0.91563 0.0
C1507 C 0.61299 0.999 0.91145 0.0
C1508 C 0.61832 0.01265 0.90569 0.0
C1509 C 0.63243 0.02079 0.90189 0.0
C1510 C 0.64132 0.01537 0.90374 0.0
C1511 C 0.6361 0.00179 0.90935 0.0
C1512 C 0.622 0.9936 0.91315 0.0
C1513 C 0.54461 0.98508 0.89011 0.0
C1514 C 0.54534 0.98293 0.87327 0.0
C1515 C 0.55377 0.98422 0.90103 0.0
C1516 C 0.56375 0.98092 0.89546 0.0
C1517 C 0.56447 0.97865 0.87868 0.0
C1518 C 0.55535 0.97964 0.8677 0.0
C1519 C 0.57379 0.98052 0.90715 0.0
C1520 C 0.58806 0.98883 0.90402 0.0
C1521 C 0.5694 0.97288 0.92192 0.0
C1522 C 0.55452 0.96295 0.92533 0.0
C1523 C 0.54642 0.95242 0.91403 0.0
C1524 C 0.53239 0.94316 0.91721 0.0
C1525 C 0.52634 0.94427 0.9317 0.0
C1526 C 0.53432 0.95462 0.94306 0.0
C1527 C 0.54835 0.96392 0.93993 0.0
H1528 H 0.51547 0.93709 0.93414 0.0
H1529 H 0.65224 0.0217 0.90081 0.0
H1530 H 0.62792 0.99476 0.06896 0.0
H1531 H 0.61629 0.99816 0.09239 0.0
H1532 H 0.61896 0.0343 0.06922 0.0
H1533 H 0.63131 0.03135 0.04612 0.0
H1534 H 0.62252 0.03916 0.09989 0.0
H1535 H 0.58847 1.00089 0.06864 0.0
H1536 H 0.578 0.97832 0.05437 0.0
H1537 H 0.57653 0.95789 0.09941 0.0
H1538 H 0.58716 0.98038 0.11392 0.0
H1539 H 0.56322 0.03537 0.14088 0.0
H1540 H 0.57919 0.03491 0.12072 0.0
H1541 H 0.58649 0.00798 0.15185 0.0
H1542 H 0.57113 0.00895 0.17259 0.0
H1543 H 0.57813 0.99863 0.11801 0.0
H1544 H 0.61137 0.03844 0.14895 0.0
H1545 H 0.62039 0.06144 0.16184 0.0
H1546 H 0.62133 0.07943 0.11515 0.0
H1547 H 0.61211 0.05647 0.10201 0.0
C1548 C 0.62614 0.00351 0.06894 0.0
C1549 C 0.63042 0.01273 0.05565 0.0
C1550 C 0.61941 0.0054 0.0823 0.0
C1551 C 0.61637 0.01627 0.08242 0.0
C1552 C 0.6211 0.02579 0.06941 0.0
C1553 C 0.62815 0.02409 0.0562 0.0
C1554 C 0.60792 0.01744 0.09584 0.0
C1555 C 0.61275 0.03032 0.1037 0.0
C1556 C 0.59519 0.00589 0.10101 0.0
C1557 C 0.58874 0.99234 0.09233 0.0
C1558 C 0.586 0.9916 0.07548 0.0
C1559 C 0.58003 0.97882 0.06735 0.0
C1560 C 0.57664 0.96668 0.07597 0.0
C1561 C 0.57918 0.9673 0.09275 0.0
C1562 C 0.58517 0.98006 0.10093 0.0
C1563 C 0.56846 0.02962 0.14372 0.0
C1564 C 0.56579 0.02218 0.15847 0.0
C1565 C 0.57752 0.0293 0.13208 0.0
C1566 C 0.58399 0.02141 0.13482 0.0
C1567 C 0.58153 0.01409 0.14951 0.0
C1568 C 0.57265 0.01458 0.16129 0.0
C1569 C 0.59279 0.02027 0.12198 0.0
C1570 C 0.58796 0.00741 0.1142 0.0
C1571 C 0.60532 0.03189 0.11666 0.0
C1572 C 0.61092 0.0457 0.12453 0.0
C1573 C 0.61338 0.04727 0.14146 0.0
C1574 C 0.61855 0.06031 0.1488 0.0
C1575 C 0.6214 0.07188 0.13933 0.0
C1576 C 0.61911 0.07045 0.12248 0.0
C1577 C 0.61392 0.05743 0.11507 0.0
H1578 H 0.62541 0.08197 0.14504 0.0
H1579 H 0.57202 0.9568 0.06965 0.0
H1580 H 0.97458 0.61229 0.05675 0.0
H1581 H 0.97264 0.59731 0.07969 0.0
H1582 H 0.01732 0.61825 0.0834 0.0
H1583 H 0.01936 0.6331 0.06045 0.0
H1584 H 0.00652 0.59078 0.08277 0.0
H1585 H 0.99742 0.62308 0.11193 0.0
H1586 H 0.98535 0.63621 0.11756 0.0
H1587 H 0.94683 0.59802 0.12376 0.0
H1588 H 0.95864 0.58464 0.11794 0.0
H1589 H 0.01443 0.56272 0.15597 0.0
H1590 H 0.01456 0.57915 0.13607 0.0
H1591 H 0.9698 0.55584 0.13405 0.0
H1592 H 0.96958 0.53932 0.15399 0.0
H1593 H 0.97955 0.58383 0.13372 0.0
H1594 H 0.98846 0.55157 0.10466 0.0
H1595 H 1.00031 0.53824 0.09893 0.0
H1596 H 0.03891 0.57623 0.0921 0.0
H1597 H 0.02733 0.5898 0.09804 0.0
C1598 C 0.98399 0.61382 0.06258 0.0
C1599 C 0.99713 0.62385 0.05668 0.0
C1600 C 0.98286 0.60527 0.07573 0.0
C1601 C 0.99484 0.60667 0.08329 0.0
C1602 C 0.00793 0.61694 0.07771 0.0
C1603 C 0.00907 0.62545 0.06459 0.0
C1604 C 0.99386 0.59697 0.09638 0.0
C1605 C 1.00078 0.58942 0.094 0.0
C1606 C 0.986 0.59484 0.11081 0.0
C1607 C 0.97889 0.60286 0.11433 0.0
C1608 C 0.98635 0.61748 0.11435 0.0
C1609 C 0.97956 0.62497 0.11761 0.0
C1610 C 0.96533 0.61795 0.12097 0.0
C1611 C 0.95785 0.60343 0.12113 0.0
C1612 C 0.96459 0.59589 0.11787 0.0
C1613 C 0.00461 0.56108 0.1513 0.0
C1614 C 0.992 0.54963 0.15643 0.0
C1615 C 0.0047 0.5705 0.13995 0.0
C1616 C 0.9922 0.5686 0.13337 0.0
C1617 C 0.97956 0.5575 0.13895 0.0
C1618 C 0.97946 0.54808 0.15036 0.0
C1619 C 0.99242 0.57787 0.12019 0.0
C1620 C 0.9853 0.58523 0.12248 0.0
C1621 C 1.00006 0.57983 0.10561 0.0
C1622 C 0.00705 0.5717 0.10195 0.0
C1623 C 0.99949 0.55708 0.10206 0.0
C1624 C 0.00616 0.54948 0.09876 0.0
C1625 C 0.02036 0.55638 0.09519 0.0
C1626 C 0.02792 0.5709 0.09489 0.0
C1627 C 0.0213 0.57855 0.09821 0.0
H1628 H 0.0255 0.55048 0.09264 0.0
H1629 H 0.96009 0.62377 0.12349 0.0
H1630 H 0.37351 0.39163 0.06311 0.0
H1631 H 0.38915 0.40405 0.08567 0.0
H1632 H 0.40744 0.37785 0.08161 0.0
H1633 H 0.39171 0.36522 0.05896 0.0
H1634 H 0.40379 0.3834 0.11407 0.0
H1635 H 0.42394 0.40864 0.06482 0.0
H1636 H 0.42431 0.42004 0.03886 0.0
H1637 H 0.41573 0.44866 0.06463 0.0
H1638 H 0.4151 0.4373 0.09073 0.0
H1639 H 0.46627 0.43089 0.15711 0.0
H1640 H 0.44923 0.41489 0.13736 0.0
H1641 H 0.42932 0.43975 0.1369 0.0
H1642 H 0.44615 0.45565 0.15677 0.0
H1643 H 0.43454 0.43416 0.1063 0.0
H1644 H 0.41417 0.40854 0.15568 0.0
H1645 H 0.41391 0.39703 0.18149 0.0
H1646 H 0.42338 0.36916 0.1554 0.0
H1647 H 0.42389 0.38065 0.12944 0.0
C1648 C 0.38074 0.38837 0.06707 0.0
C1649 C 0.38144 0.3775 0.05909 0.0
C1650 C 0.3897 0.39552 0.07997 0.0
C1651 C 0.39959 0.39201 0.08514 0.0
C1652 C 0.39991 0.38074 0.07775 0.0
C1653 C 0.39093 0.37357 0.06479 0.0
C1654 C 0.41004 0.40063 0.09763 0.0
C1655 C 0.41066 0.39447 0.11231 0.0
C1656 C 0.41887 0.41509 0.09538 0.0
C1657 C 0.41935 0.42203 0.07972 0.0
C1658 C 0.42202 0.4173 0.06494 0.0
C1659 C 0.4223 0.42376 0.0502 0.0
C1660 C 0.42001 0.43505 0.05009 0.0
C1661 C 0.41748 0.43991 0.06473 0.0
C1662 C 0.41718 0.43347 0.0795 0.0
C1663 C 0.45812 0.43282 0.15303 0.0
C1664 C 0.45763 0.4446 0.15846 0.0
C1665 C 0.44841 0.42368 0.1417 0.0
C1666 C 0.43799 0.42612 0.13567 0.0
C1667 C 0.43732 0.43771 0.14132 0.0
C1668 C 0.44698 0.44682 0.15264 0.0
C1669 C 0.42816 0.41701 0.12291 0.0
C1670 C 0.4277 0.4231 0.10809 0.0
C1671 C 0.41956 0.4025 0.12505 0.0
C1672 C 0.41921 0.39555 0.14063 0.0
C1673 C 0.41631 0.40004 0.15546 0.0
C1674 C 0.4161 0.3935 0.17012 0.0
C1675 C 0.41866 0.3824 0.17009 0.0
C1676 C 0.42141 0.37778 0.1554 0.0
C1677 C 0.42166 0.38429 0.14071 0.0
H1678 H 0.41849 0.37735 0.18145 0.0
H1679 H 0.42022 0.44004 0.03867 0.0
H1680 H 0.68365 0.72368 0.39562 0.0
H1681 H 0.6793 0.73453 0.41903 0.0
H1682 H 0.63512 0.70816 0.4124 0.0
H1683 H 0.63939 0.69731 0.38864 0.0
H1684 H 0.64165 0.73458 0.41714 0.0
H1685 H 0.65174 0.70283 0.4443 0.0
H1686 H 0.66481 0.69083 0.45054 0.0
H1687 H 0.7001 0.72958 0.46499 0.0
H1688 H 0.68732 0.74185 0.45862 0.0
H1689 H 0.62892 0.76003 0.49175 0.0
H1690 H 0.62942 0.74411 0.47137 0.0
H1691 H 0.67416 0.76828 0.47004 0.0
H1692 H 0.67377 0.78436 0.49014 0.0
H1693 H 0.66475 0.74028 0.4707 0.0
H1694 H 0.65521 0.77205 0.44073 0.0
H1695 H 0.6421 0.78399 0.43433 0.0
H1696 H 0.60543 0.74467 0.42531 0.0
H1697 H 0.61829 0.73249 0.43188 0.0
C1698 C 0.67299 0.72008 0.39916 0.0
C1699 C 0.66186 0.7096 0.39022 0.0
C1700 C 0.67052 0.72626 0.41264 0.0
C1701 C 0.65688 0.72205 0.41762 0.0
C1702 C 0.64573 0.71154 0.40881 0.0
C1703 C 0.64819 0.70533 0.39526 0.0
C1704 C 0.6544 0.72912 0.43159 0.0
C1705 C 0.64646 0.73557 0.42896 0.0
C1706 C 0.66086 0.73062 0.44695 0.0
C1707 C 0.66859 0.72328 0.45086 0.0
C1708 C 0.66232 0.70881 0.44869 0.0
C1709 C 0.66968 0.70196 0.45228 0.0
C1710 C 0.68329 0.70944 0.45813 0.0
C1711 C 0.68956 0.7238 0.46045 0.0
C1712 C 0.68226 0.7307 0.45687 0.0
C1713 C 0.63887 0.762 0.48707 0.0
C1714 C 0.6513 0.77352 0.49257 0.0
C1715 C 0.63913 0.75286 0.47547 0.0
C1716 C 0.65182 0.75507 0.4691 0.0
C1717 C 0.66425 0.76634 0.47484 0.0
C1718 C 0.664 0.7755 0.4864 0.0
C1719 C 0.65222 0.74592 0.45612 0.0
C1720 C 0.65978 0.73909 0.45895 0.0
C1721 C 0.64538 0.74404 0.44097 0.0
C1722 C 0.63766 0.75136 0.43698 0.0
C1723 C 0.64432 0.76595 0.43752 0.0
C1724 C 0.63694 0.77276 0.43384 0.0
C1725 C 0.62293 0.76509 0.42947 0.0
C1726 C 0.61628 0.7506 0.42873 0.0
C1727 C 0.6236 0.74373 0.43242 0.0
H1728 H 0.61724 0.77038 0.42662 0.0
H1729 H 0.68896 0.70412 0.46089 0.0
H1730 H 0.30972 0.94553 0.392 0.0
H1731 H 0.29868 0.93061 0.41573 0.0
H1732 H 0.26732 0.94273 0.41598 0.0
H1733 H 0.27849 0.95792 0.39272 0.0
H1734 H 0.27408 0.94132 0.44589 0.0
H1735 H 0.26197 0.91156 0.39845 0.0
H1736 H 0.26679 0.9016 0.374 0.0
H1737 H 0.28868 0.88684 0.40348 0.0
H1738 H 0.28413 0.89687 0.42808 0.0
H1739 H 0.21725 0.86753 0.47048 0.0
H1740 H 0.23357 0.8838 0.45061 0.0
H1741 H 0.26203 0.90702 0.48945 0.0
H1742 H 0.2454 0.89102 0.50958 0.0
H1743 H 0.25891 0.89117 0.44148 0.0
H1744 H 0.2791 0.94159 0.47902 0.0
H1745 H 0.27154 0.95101 0.50167 0.0
H1746 H 0.22885 0.92345 0.48902 0.0
H1747 H 0.23616 0.91401 0.46619 0.0
C1748 C 0.30054 0.94509 0.3972 0.0
C1749 C 0.29495 0.95287 0.39039 0.0
C1750 C 0.29421 0.93652 0.41073 0.0
C1751 C 0.28205 0.93539 0.41754 0.0
C1752 C 0.2767 0.94343 0.411 0.0
C1753 C 0.28308 0.95209 0.39763 0.0
C1754 C 0.27449 0.92548 0.43102 0.0
C1755 C 0.27088 0.93038 0.44498 0.0
C1756 C 0.27014 0.91115 0.42981 0.0
C1757 C 0.27285 0.9051 0.41505 0.0
C1758 C 0.2679 0.90628 0.39969 0.0
C1759 C 0.27057 0.90061 0.38581 0.0
C1760 C 0.27807 0.89363 0.38718 0.0
C1761 C 0.28289 0.89227 0.40244 0.0
C1762 C 0.28027 0.89794 0.41635 0.0
C1763 C 0.22692 0.87615 0.47485 0.0
C1764 C 0.22991 0.87809 0.49167 0.0
C1765 C 0.23633 0.88537 0.46344 0.0
C1766 C 0.24898 0.89673 0.46852 0.0
C1767 C 0.25225 0.89843 0.48525 0.0
C1768 C 0.24279 0.88922 0.49673 0.0
C1769 C 0.25836 0.90698 0.45623 0.0
C1770 C 0.26234 0.90216 0.44253 0.0
C1771 C 0.2627 0.9213 0.45745 0.0
C1772 C 0.25818 0.92698 0.47105 0.0
C1773 C 0.2681 0.93757 0.48107 0.0
C1774 C 0.26386 0.94291 0.49393 0.0
C1775 C 0.24972 0.93779 0.49683 0.0
C1776 C 0.23979 0.92737 0.48682 0.0
C1777 C 0.24398 0.92201 0.47392 0.0
H1778 H 0.24646 0.94193 0.5068 0.0
H1779 H 0.28013 0.88925 0.37642 0.0
H1780 H 0.06319 0.36581 0.38689 0.0
H1781 H 0.07918 0.36901 0.4092 0.0
H1782 H 0.05442 0.32558 0.42145 0.0
H1783 H 0.03857 0.32223 0.39906 0.0
H1784 H 0.07779 0.36545 0.44197 0.0
H1785 H 0.07558 0.31293 0.43042 0.0
H1786 H 0.07081 0.29642 0.40779 0.0
H1787 H 0.08355 0.3295 0.37304 0.0
H1788 H 0.08857 0.34623 0.39547 0.0
H1789 H 0.11225 0.35071 0.50634 0.0
H1790 H 0.0957 0.35041 0.48632 0.0
H1791 H 0.12396 0.35523 0.44731 0.0
H1792 H 0.14034 0.35529 0.46718 0.0
H1793 H 0.09935 0.33565 0.43972 0.0
H1794 H 0.11841 0.38212 0.45994 0.0
H1795 H 0.12507 0.40038 0.48086 0.0
H1796 H 0.08237 0.38271 0.49533 0.0
H1797 H 0.07548 0.36423 0.47463 0.0
C1798 C 0.06105 0.35697 0.39445 0.0
C1799 C 0.0497 0.34372 0.39104 0.0
C1800 C 0.07018 0.35883 0.40723 0.0
C1801 C 0.06812 0.34749 0.41682 0.0
C1802 C 0.05635 0.33443 0.41402 0.0
C1803 C 0.04729 0.33254 0.40121 0.0
C1804 C 0.07872 0.34904 0.42898 0.0
C1805 C 0.08249 0.35892 0.44153 0.0
C1806 C 0.08509 0.34074 0.4282 0.0
C1807 C 0.08231 0.33079 0.41463 0.0
C1808 C 0.07741 0.31668 0.41796 0.0
C1809 C 0.07466 0.30729 0.40516 0.0
C1810 C 0.07683 0.3119 0.38899 0.0
C1811 C 0.08182 0.32593 0.38557 0.0
C1812 C 0.08461 0.33537 0.39832 0.0
C1813 C 0.11496 0.35186 0.4935 0.0
C1814 C 0.12753 0.35292 0.48831 0.0
C1815 C 0.10552 0.35171 0.48207 0.0
C1816 C 0.10859 0.35285 0.46528 0.0
C1817 C 0.12129 0.35423 0.46016 0.0
C1818 C 0.13064 0.35425 0.47153 0.0
C1819 C 0.09839 0.35197 0.4529 0.0
C1820 C 0.09465 0.34217 0.44027 0.0
C1821 C 0.09235 0.3606 0.45342 0.0
C1822 C 0.09645 0.37171 0.46584 0.0
C1823 C 0.11046 0.38206 0.46767 0.0
C1824 C 0.11427 0.39247 0.47947 0.0
C1825 C 0.10415 0.39268 0.48945 0.0
C1826 C 0.0902 0.38252 0.48761 0.0
C1827 C 0.08633 0.37209 0.47583 0.0
H1828 H 0.10712 0.40075 0.49858 0.0
H1829 H 0.07467 0.30461 0.3791 0.0
H1830 H 0.02716 0.30491 0.30614 0.0
H1831 H 0.03828 0.30039 0.28288 0.0
H1832 H 0.06956 0.34382 0.28143 0.0
H1833 H 0.05834 0.34847 0.30421 0.0
H1834 H 0.06276 0.33481 0.25174 0.0
H1835 H 0.07501 0.31862 0.30021 0.0
H1836 H 0.07024 0.30456 0.3252 0.0
H1837 H 0.04852 0.26712 0.29687 0.0
H1838 H 0.05303 0.28098 0.27173 0.0
H1839 H 0.11988 0.3175 0.22905 0.0
H1840 H 0.10354 0.31794 0.24861 0.0
H1841 H 0.07496 0.3115 0.20948 0.0
H1842 H 0.0916 0.31166 0.18965 0.0
H1843 H 0.07822 0.30018 0.25804 0.0
H1844 H 0.05777 0.32911 0.21871 0.0
H1845 H 0.06524 0.3454 0.19546 0.0
H1846 H 0.10797 0.36109 0.20842 0.0
H1847 H 0.10075 0.34502 0.23184 0.0
C1848 C 0.03635 0.31351 0.30078 0.0
C1849 C 0.0419 0.32704 0.30711 0.0
C1850 C 0.04272 0.3109 0.28751 0.0
C1851 C 0.05487 0.32174 0.28051 0.0
C1852 C 0.06018 0.33529 0.28657 0.0
C1853 C 0.05377 0.33792 0.29968 0.0
C1854 C 0.06246 0.31904 0.26731 0.0
C1855 C 0.06603 0.32714 0.25306 0.0
C1856 C 0.06689 0.30916 0.26906 0.0
C1857 C 0.06422 0.30083 0.28414 0.0
C1858 C 0.06913 0.30739 0.29934 0.0
C1859 C 0.06649 0.29946 0.31352 0.0
C1860 C 0.05904 0.28496 0.31262 0.0
C1861 C 0.05426 0.27836 0.29754 0.0
C1862 C 0.05686 0.28624 0.28333 0.0
C1863 C 0.11017 0.31629 0.22454 0.0
C1864 C 0.10715 0.31476 0.20773 0.0
C1865 C 0.10075 0.31638 0.23579 0.0
C1866 C 0.08807 0.31489 0.23053 0.0
C1867 C 0.08477 0.31285 0.21381 0.0
C1868 C 0.09424 0.31283 0.2025 0.0
C1869 C 0.07867 0.31607 0.24258 0.0
C1870 C 0.07474 0.30766 0.25658 0.0
C1871 C 0.07425 0.32595 0.24083 0.0
C1872 C 0.07871 0.33575 0.22688 0.0
C1873 C 0.06876 0.33606 0.2166 0.0
C1874 C 0.07295 0.34525 0.2034 0.0
C1875 C 0.08708 0.35423 0.20043 0.0
C1876 C 0.09704 0.35408 0.21069 0.0
C1877 C 0.0929 0.34493 0.22392 0.0
H1878 H 0.0903 0.36133 0.19019 0.0
H1879 H 0.057 0.27884 0.32361 0.0
H1880 H 0.65651 0.70405 0.2968 0.0
H1881 H 0.65933 0.71867 0.27328 0.0
H1882 H 0.70194 0.74655 0.28701 0.0
H1883 H 0.69929 0.73172 0.31037 0.0
H1884 H 0.6638 0.74371 0.2731 0.0
H1885 H 0.72105 0.76395 0.25359 0.0
H1886 H 0.73794 0.75569 0.25259 0.0
H1887 H 0.70456 0.71344 0.25009 0.0
H1888 H 0.68747 0.72145 0.25085 0.0
H1889 H 0.68704 0.80451 0.22767 0.0
H1890 H 0.68645 0.78771 0.2473 0.0
H1891 H 0.68584 0.76169 0.20771 0.0
H1892 H 0.68657 0.77861 0.18792 0.0
H1893 H 0.70208 0.76192 0.23246 0.0
H1894 H 0.65596 0.7543 0.22673 0.0
H1895 H 0.63779 0.76087 0.22603 0.0
H1896 H 0.64635 0.77425 0.27603 0.0
H1897 H 0.66473 0.76795 0.27695 0.0
C1898 C 0.66654 0.7132 0.29473 0.0
C1899 C 0.67766 0.71674 0.30551 0.0
C1900 C 0.66813 0.72157 0.28127 0.0
C1901 C 0.68085 0.73371 0.27831 0.0
C1902 C 0.69209 0.73713 0.28885 0.0
C1903 C 0.69054 0.72866 0.30226 0.0
C1904 C 0.682 0.74322 0.26486 0.0
C1905 C 0.67217 0.74764 0.26421 0.0
C1906 C 0.69278 0.74823 0.25307 0.0
C1907 C 0.70298 0.74331 0.25244 0.0
C1908 C 0.71731 0.7529 0.25276 0.0
C1909 C 0.72692 0.74826 0.25225 0.0
C1910 C 0.72233 0.73405 0.25133 0.0
C1911 C 0.7081 0.72445 0.25087 0.0
C1912 C 0.69845 0.72903 0.25137 0.0
C1913 C 0.68679 0.79522 0.22313 0.0
C1914 C 0.68665 0.79278 0.20626 0.0
C1915 C 0.68649 0.78564 0.23436 0.0
C1916 C 0.68584 0.77332 0.22897 0.0
C1917 C 0.6863 0.77111 0.21213 0.0
C1918 C 0.68671 0.78077 0.20085 0.0
C1919 C 0.68402 0.76252 0.24097 0.0
C1920 C 0.69371 0.75791 0.24135 0.0
C1921 C 0.67292 0.75705 0.25233 0.0
C1922 C 0.6618 0.76076 0.25186 0.0
C1923 C 0.65403 0.75873 0.23754 0.0
C1924 C 0.64369 0.7624 0.23711 0.0
C1925 C 0.64094 0.768 0.25097 0.0
C1926 C 0.6485 0.76992 0.2653 0.0
C1927 C 0.65888 0.76629 0.26579 0.0
H1928 H 0.63292 0.77084 0.25061 0.0
H1929 H 0.72978 0.73048 0.25094 0.0
H1930 H 0.27646 0.97247 0.30715 0.0
H1931 H 0.26157 0.96146 0.2834 0.0
H1932 H 0.28012 0.93567 0.27678 0.0
H1933 H 0.29513 0.94671 0.30029 0.0
H1934 H 0.27677 0.94513 0.24792 0.0
H1935 H 0.24873 0.92334 0.29577 0.0
H1936 H 0.23782 0.92299 0.32218 0.0
H1937 H 0.21601 0.94145 0.29974 0.0
H1938 H 0.22694 0.94207 0.27322 0.0
H1939 H 0.22661 0.8869 0.20394 0.0
H1940 H 0.24294 0.90331 0.22384 0.0
H1941 H 0.22001 0.92524 0.22473 0.0
H1942 H 0.20336 0.90859 0.2051 0.0
H1943 H 0.22558 0.92035 0.25512 0.0
H1944 H 0.25173 0.93958 0.20639 0.0
H1945 H 0.26244 0.93946 0.18003 0.0
H1946 H 0.28775 0.92562 0.20392 0.0
H1947 H 0.27704 0.92546 0.23041 0.0
C1948 C 0.27744 0.96452 0.30058 0.0
C1949 C 0.28694 0.96041 0.30572 0.0
C1950 C 0.26889 0.95821 0.28703 0.0
C1951 C 0.26962 0.94763 0.27842 0.0
C1952 C 0.27937 0.94381 0.28324 0.0
C1953 C 0.28791 0.9501 0.29675 0.0
C1954 C 0.25998 0.94016 0.26471 0.0
C1955 C 0.26558 0.93964 0.24951 0.0
C1956 C 0.24537 0.93331 0.26665 0.0
C1957 C 0.23877 0.9329 0.28257 0.0
C1958 C 0.24169 0.92742 0.2965 0.0
C1959 C 0.23549 0.92716 0.31148 0.0
C1960 C 0.22627 0.93223 0.31265 0.0
C1961 C 0.22318 0.93755 0.29882 0.0
C1962 C 0.22937 0.93786 0.28381 0.0
C1963 C 0.22504 0.89523 0.20835 0.0
C1964 C 0.21366 0.89641 0.20297 0.0
C1965 C 0.23447 0.90468 0.21961 0.0
C1966 C 0.23278 0.9156 0.22567 0.0
C1967 C 0.22154 0.91694 0.22017 0.0
C1968 C 0.2121 0.90748 0.20886 0.0
C1969 C 0.24237 0.92511 0.23838 0.0
C1970 C 0.23677 0.92601 0.25342 0.0
C1971 C 0.25697 0.93228 0.23628 0.0
C1972 C 0.2635 0.93241 0.22038 0.0
C1973 C 0.2595 0.93641 0.20601 0.0
C1974 C 0.26559 0.93641 0.19104 0.0
C1975 C 0.27575 0.93251 0.19029 0.0
C1976 C 0.27987 0.92863 0.20452 0.0
C1977 C 0.27381 0.9286 0.21952 0.0
H1978 H 0.28045 0.93252 0.1787 0.0
H1979 H 0.22147 0.93201 0.32425 0.0
H1980 H 0.69672 0.97273 0.30586 0.0
H1981 H 0.69933 0.96046 0.28244 0.0
H1982 H 0.65477 0.93483 0.27912 0.0
H1983 H 0.65206 0.94685 0.30259 0.0
H1984 H 0.66685 0.91936 0.27848 0.0
H1985 H 0.67368 0.96062 0.25111 0.0
H1986 H 0.68462 0.98585 0.24638 0.0
H1987 H 0.72414 0.98842 0.23907 0.0
H1988 H 0.71346 0.96322 0.24398 0.0
H1989 H 0.65998 0.88552 0.20388 0.0
H1990 H 0.65926 0.90124 0.2243 0.0
H1991 H 0.70404 0.92383 0.2263 0.0
H1992 H 0.70484 0.90807 0.20584 0.0
H1993 H 0.6931 0.94131 0.22771 0.0
H1994 H 0.68641 0.90027 0.25488 0.0
H1995 H 0.67565 0.87505 0.25961 0.0
H1996 H 0.63611 0.87224 0.26767 0.0
H1997 H 0.64659 0.89742 0.26274 0.0
C1998 C 0.68747 0.96458 0.30004 0.0
C1999 C 0.67418 0.96074 0.30616 0.0
C2000 C 0.68898 0.95761 0.28661 0.0
C2001 C 0.67724 0.94676 0.27897 0.0
C2002 C 0.66398 0.94314 0.28485 0.0
C2003 C 0.66246 0.95005 0.29826 0.0
C2004 C 0.67869 0.93862 0.26544 0.0
C2005 C 0.67242 0.92417 0.26729 0.0
C2006 C 0.68636 0.94492 0.25106 0.0
C2007 C 0.69279 0.96006 0.24808 0.0
C2008 C 0.68472 0.96659 0.24863 0.0
C2009 C 0.69088 0.98088 0.24589 0.0
C2010 C 0.70507 0.98874 0.24247 0.0
C2011 C 0.71314 0.98232 0.24175 0.0
C2012 C 0.70705 0.96803 0.24449 0.0
C2013 C 0.66968 0.89386 0.20863 0.0
C2014 C 0.68246 0.89544 0.2034 0.0
C2015 C 0.66926 0.90285 0.22027 0.0
C2016 C 0.68159 0.91356 0.22702 0.0
C2017 C 0.6944 0.91561 0.22127 0.0
C2018 C 0.69484 0.90662 0.20956 0.0
C2019 C 0.68102 0.92208 0.24069 0.0
C2020 C 0.68751 0.93656 0.23891 0.0
C2021 C 0.67359 0.91584 0.2552 0.0
C2022 C 0.66727 0.90071 0.25829 0.0
C2023 C 0.6754 0.89425 0.25754 0.0
C2024 C 0.66936 0.87997 0.26027 0.0
C2025 C 0.6552 0.87204 0.2639 0.0
C2026 C 0.64707 0.87839 0.26484 0.0
C2027 C 0.65306 0.89267 0.26209 0.0
H2028 H 0.65054 0.86099 0.26601 0.0
H2029 H 0.70982 0.9998 0.24035 0.0
H2030 H 0.05685 0.70854 0.30034 0.0
H2031 H 0.06831 0.7243 0.27764 0.0
H2032 H 0.04697 0.7467 0.28943 0.0
H2033 H 0.03527 0.73081 0.31231 0.0
H2034 H 0.04859 0.74298 0.25551 0.0
H2035 H 0.07914 0.76011 0.30146 0.0
H2036 H 0.0921 0.75854 0.32501 0.0
H2037 H 0.11478 0.74615 0.29317 0.0
H2038 H 0.1018 0.74744 0.26945 0.0
H2039 H 0.09709 0.8022 0.20785 0.0
H2040 H 0.08154 0.78648 0.22894 0.0
H2041 H 0.10194 0.76214 0.22561 0.0
H2042 H 0.1175 0.77781 0.20463 0.0
H2043 H 0.10014 0.76846 0.25647 0.0
H2044 H 0.06885 0.75038 0.21062 0.0
H2045 H 0.05573 0.75174 0.18711 0.0
H2046 H 0.03451 0.76608 0.21863 0.0
H2047 H 0.04765 0.76498 0.2423 0.0
C2048 C 0.05447 0.71674 0.29811 0.0
C2049 C 0.04523 0.71849 0.3083 0.0
C2050 C 0.06106 0.72576 0.2851 0.0
C2051 C 0.05865 0.73679 0.28201 0.0
C2052 C 0.049 0.73827 0.29167 0.0
C2053 C 0.04236 0.72921 0.30475 0.0
C2054 C 0.0668 0.74708 0.26915 0.0
C2055 C 0.05985 0.74874 0.2558 0.0
C2056 C 0.0815 0.75444 0.26947 0.0
C2057 C 0.08942 0.75376 0.2837 0.0
C2058 C 0.08682 0.75695 0.2995 0.0
C2059 C 0.09418 0.75613 0.31287 0.0
C2060 C 0.10423 0.75222 0.31059 0.0
C2061 C 0.10698 0.74916 0.29492 0.0
C2062 C 0.09963 0.74995 0.2815 0.0
C2063 C 0.09808 0.79335 0.21141 0.0
C2064 C 0.10858 0.79129 0.20465 0.0
C2065 C 0.0892 0.78438 0.22348 0.0
C2066 C 0.09056 0.77311 0.22885 0.0
C2067 C 0.10075 0.77081 0.22174 0.0
C2068 C 0.10965 0.77979 0.20977 0.0
C2069 C 0.08197 0.76413 0.24253 0.0
C2070 C 0.08887 0.76277 0.25614 0.0
C2071 C 0.06726 0.7571 0.24241 0.0
C2072 C 0.05934 0.75774 0.22819 0.0
C2073 C 0.06147 0.75394 0.21251 0.0
C2074 C 0.05402 0.75464 0.19916 0.0
C2075 C 0.04433 0.75904 0.20137 0.0
C2076 C 0.04204 0.7627 0.21693 0.0
C2077 C 0.04948 0.76203 0.23032 0.0
H2078 H 0.03856 0.75957 0.19102 0.0
H2079 H 0.10992 0.75159 0.32096 0.0
H2080 H 0.26753 0.30696 0.31874 0.0
H2081 H 0.25194 0.30279 0.29571 0.0
H2082 H 0.28623 0.33434 0.26786 0.0
H2083 H 0.30158 0.33909 0.29125 0.0
H2084 H 0.26642 0.33847 0.26414 0.0
H2085 H 0.26937 0.29723 0.25977 0.0
H2086 H 0.2685 0.27567 0.26891 0.0
H2087 H 0.22534 0.25813 0.28111 0.0
H2088 H 0.22599 0.27966 0.27224 0.0
H2089 H 0.22714 0.32055 0.18959 0.0
H2090 H 0.2438 0.32081 0.20957 0.0
H2091 H 0.21172 0.30459 0.24638 0.0
H2092 H 0.19519 0.30471 0.22661 0.0
H2093 H 0.2309 0.29208 0.24364 0.0
H2094 H 0.22996 0.33544 0.24928 0.0
H2095 H 0.23172 0.35692 0.23828 0.0
H2096 H 0.27304 0.3701 0.22115 0.0
H2097 H 0.27142 0.34857 0.23184 0.0
C2098 C 0.27175 0.31286 0.30761 0.0
C2099 C 0.28575 0.32336 0.30678 0.0
C2100 C 0.26285 0.31042 0.29438 0.0
C2101 C 0.26788 0.31812 0.27986 0.0
C2102 C 0.28202 0.32828 0.27889 0.0
C2103 C 0.29081 0.33097 0.29225 0.0
C2104 C 0.25829 0.31634 0.26615 0.0
C2105 C 0.25887 0.32829 0.25952 0.0
C2106 C 0.24822 0.3031 0.26012 0.0
C2107 C 0.24777 0.29012 0.26547 0.0
C2108 C 0.25972 0.28882 0.26451 0.0
C2109 C 0.25926 0.27659 0.26963 0.0
C2110 C 0.24688 0.26555 0.27563 0.0
C2111 C 0.23492 0.2667 0.27648 0.0
C2112 C 0.23533 0.2789 0.27139 0.0
C2113 C 0.22366 0.31689 0.2019 0.0
C2114 C 0.20996 0.31266 0.20666 0.0
C2115 C 0.23313 0.31703 0.21325 0.0
C2116 C 0.22894 0.31269 0.2294 0.0
C2117 C 0.2151 0.3079 0.23395 0.0
C2118 C 0.20572 0.30804 0.22272 0.0
C2119 C 0.23919 0.31414 0.24188 0.0
C2120 C 0.23865 0.30218 0.24826 0.0
C2121 C 0.24949 0.32735 0.24746 0.0
C2122 C 0.2505 0.34033 0.24117 0.0
C2123 C 0.23937 0.34285 0.24303 0.0
C2124 C 0.24035 0.35505 0.23688 0.0
C2125 C 0.25247 0.36485 0.22897 0.0
C2126 C 0.26365 0.36249 0.22725 0.0
C2127 C 0.2627 0.3503 0.23335 0.0
H2128 H 0.25322 0.37429 0.22423 0.0
H2129 H 0.24654 0.25609 0.27958 0.0
H2130 H 0.29726 0.36403 0.37778 0.0
H2131 H 0.28643 0.36876 0.40109 0.0
H2132 H 0.28776 0.33621 0.4284 0.0
H2133 H 0.29777 0.33094 0.40474 0.0
H2134 H 0.26419 0.33307 0.43234 0.0
H2135 H 0.30916 0.37312 0.4368 0.0
H2136 H 0.33031 0.39426 0.42773 0.0
H2137 H 0.30612 0.41352 0.41622 0.0
H2138 H 0.28478 0.39242 0.42502 0.0
H2139 H 0.24329 0.35094 0.50705 0.0
H2140 H 0.2599 0.35079 0.48722 0.0
H2141 H 0.24539 0.36856 0.45082 0.0
H2142 H 0.22853 0.36833 0.47045 0.0
H2143 H 0.27687 0.37985 0.45347 0.0
H2144 H 0.2317 0.3376 0.44746 0.0
H2145 H 0.21147 0.3165 0.45836 0.0
H2146 H 0.23827 0.30162 0.47524 0.0
H2147 H 0.2587 0.32277 0.46466 0.0
C2148 C 0.29539 0.35803 0.38885 0.0
C2149 C 0.29831 0.3471 0.38945 0.0
C2150 C 0.28928 0.36078 0.40224 0.0
C2151 C 0.28637 0.35296 0.41668 0.0
C2152 C 0.28979 0.34237 0.41743 0.0
C2153 C 0.29556 0.33938 0.40391 0.0
C2154 C 0.27885 0.35505 0.43053 0.0
C2155 C 0.26721 0.34332 0.43711 0.0
C2156 C 0.28254 0.36841 0.43674 0.0
C2157 C 0.29535 0.38113 0.43144 0.0
C2158 C 0.30833 0.38182 0.43222 0.0
C2159 C 0.32036 0.39381 0.42715 0.0
C2160 C 0.31956 0.40521 0.42137 0.0
C2161 C 0.30673 0.40467 0.42069 0.0
C2162 C 0.29466 0.39271 0.42574 0.0
C2163 C 0.24387 0.35503 0.4949 0.0
C2164 C 0.23469 0.35963 0.49018 0.0
C2165 C 0.25331 0.35494 0.48362 0.0
C2166 C 0.25385 0.35969 0.4676 0.0
C2167 C 0.24517 0.36495 0.46316 0.0
C2168 C 0.23554 0.36476 0.47431 0.0
C2169 C 0.26244 0.35791 0.45504 0.0
C2170 C 0.27413 0.36966 0.44872 0.0
C2171 C 0.25901 0.34459 0.44926 0.0
C2172 C 0.24673 0.33183 0.45546 0.0
C2173 C 0.23329 0.32989 0.45364 0.0
C2174 C 0.22178 0.31792 0.45973 0.0
C2175 C 0.22359 0.30775 0.46753 0.0
C2176 C 0.2369 0.30952 0.46922 0.0
C2177 C 0.24844 0.32149 0.46318 0.0
H2178 H 0.21467 0.29848 0.47224 0.0
H2179 H 0.32888 0.41448 0.41745 0.0
H2180 H 0.68674 0.96307 0.39398 0.0
H2181 H 0.68442 0.9479 0.41672 0.0
H2182 H 0.63989 0.92984 0.4155 0.0
H2183 H 0.64209 0.9451 0.39275 0.0
H2184 H 0.64997 0.93429 0.44699 0.0
H2185 H 0.65433 0.91292 0.39801 0.0
H2186 H 0.66512 0.91197 0.37204 0.0
H2187 H 0.70252 0.92107 0.39744 0.0
H2188 H 0.69202 0.92227 0.42355 0.0
H2189 H 0.63371 0.87294 0.49183 0.0
H2190 H 0.63543 0.88972 0.47137 0.0
H2191 H 0.67986 0.907 0.46932 0.0
H2192 H 0.67817 0.88992 0.48929 0.0
H2193 H 0.66935 0.9029 0.43948 0.0
H2194 H 0.66494 0.92407 0.48861 0.0
H2195 H 0.65416 0.92505 0.51457 0.0
H2196 H 0.61689 0.91631 0.4891 0.0
H2197 H 0.62739 0.91509 0.46299 0.0
C2198 C 0.67643 0.95596 0.39859 0.0
C2199 C 0.66458 0.95523 0.39141 0.0
C2200 C 0.67514 0.94726 0.41158 0.0
C2201 C 0.66197 0.93759 0.41764 0.0
C2202 C 0.65014 0.9372 0.41097 0.0
C2203 C 0.65143 0.94591 0.39794 0.0
C2204 C 0.66057 0.92755 0.4305 0.0
C2205 C 0.65405 0.9273 0.4453 0.0
C2206 C 0.66612 0.91861 0.42839 0.0
C2207 C 0.67244 0.91782 0.41272 0.0
C2208 C 0.6649 0.91482 0.39804 0.0
C2209 C 0.67095 0.91422 0.3833 0.0
C2210 C 0.68451 0.91649 0.38308 0.0
C2211 C 0.69203 0.91933 0.39762 0.0
C2212 C 0.68603 0.91996 0.4124 0.0
C2213 C 0.64385 0.88028 0.48699 0.0
C2214 C 0.65581 0.88006 0.49222 0.0
C2215 C 0.64483 0.88997 0.47541 0.0
C2216 C 0.6578 0.89973 0.46891 0.0
C2217 C 0.66975 0.89961 0.4742 0.0
C2218 C 0.66878 0.88991 0.48574 0.0
C2219 C 0.65887 0.9097 0.45611 0.0
C2220 C 0.6653 0.90991 0.44125 0.0
C2221 C 0.65323 0.91857 0.4582 0.0
C2222 C 0.64691 0.91935 0.47387 0.0
C2223 C 0.65441 0.92225 0.48856 0.0
C2224 C 0.64835 0.92287 0.5033 0.0
C2225 C 0.63484 0.92071 0.50349 0.0
C2226 C 0.62736 0.91796 0.48893 0.0
C2227 C 0.63336 0.91732 0.47416 0.0
H2228 H 0.63017 0.92119 0.51491 0.0
H2229 H 0.68918 0.91602 0.37165 0.0
H2230 H 0.0369 0.70776 0.4064 0.0
H2231 H 0.05136 0.7188 0.43038 0.0
H2232 H 0.08672 0.72118 0.40528 0.0
H2233 H 0.07199 0.70924 0.3817 0.0
H2234 H 0.08901 0.71676 0.435 0.0
H2235 H 0.07967 0.74954 0.40819 0.0
H2236 H 0.06523 0.75839 0.39622 0.0
H2237 H 0.04581 0.75481 0.44277 0.0
H2238 H 0.06003 0.74577 0.45497 0.0
H2239 H 0.14166 0.77955 0.4739 0.0
H2240 H 0.12498 0.76255 0.45448 0.0
H2241 H 0.09278 0.74848 0.49106 0.0
H2242 H 0.10959 0.76522 0.51072 0.0
H2243 H 0.08812 0.75783 0.45757 0.0
H2244 H 0.10087 0.72698 0.48401 0.0
H2245 H 0.11755 0.72022 0.49418 0.0
H2246 H 0.13335 0.72302 0.44557 0.0
H2247 H 0.11691 0.73 0.43516 0.0
C2248 C 0.04772 0.7105 0.40611 0.0
C2249 C 0.05337 0.70776 0.39218 0.0
C2250 C 0.05602 0.71691 0.41978 0.0
C2251 C 0.07027 0.72124 0.41953 0.0
C2252 C 0.07579 0.71802 0.4058 0.0
C2253 C 0.06738 0.71122 0.39231 0.0
C2254 C 0.07953 0.72959 0.43323 0.0
C2255 C 0.08885 0.72579 0.43981 0.0
C2256 C 0.07932 0.74135 0.43973 0.0
C2257 C 0.07081 0.74684 0.43245 0.0
C2258 C 0.07226 0.75056 0.41585 0.0
C2259 C 0.06412 0.75562 0.40903 0.0
C2260 C 0.05458 0.75712 0.41872 0.0
C2261 C 0.05319 0.75361 0.43527 0.0
C2262 C 0.06129 0.74853 0.44215 0.0
C2263 C 0.13106 0.77268 0.47782 0.0
C2264 C 0.12685 0.77362 0.49374 0.0
C2265 C 0.12159 0.76299 0.46678 0.0
C2266 C 0.10771 0.75428 0.47139 0.0
C2267 C 0.10349 0.7551 0.48734 0.0
C2268 C 0.11305 0.76459 0.49852 0.0
C2269 C 0.09748 0.74497 0.45917 0.0
C2270 C 0.08808 0.74868 0.45283 0.0
C2271 C 0.0979 0.73341 0.4526 0.0
C2272 C 0.10775 0.72914 0.45883 0.0
C2273 C 0.10799 0.72628 0.47552 0.0
C2274 C 0.11738 0.72238 0.48132 0.0
C2275 C 0.12653 0.72122 0.47053 0.0
C2276 C 0.12627 0.72393 0.45392 0.0
C2277 C 0.11691 0.72785 0.44806 0.0
H2278 H 0.13379 0.7182 0.47505 0.0
H2279 H 0.04829 0.76104 0.41341 0.0
H2280 H 0.30397 0.03156 0.7234 0.0
H2281 H 0.29968 0.0438 0.7456 0.0
H2282 H 0.34378 0.0687 0.75401 0.0
H2283 H 0.34819 0.05666 0.73187 0.0
H2284 H 0.30604 0.04786 0.77855 0.0
H2285 H 0.3515 0.10195 0.76061 0.0
H2286 H 0.36488 0.11421 0.73603 0.0
H2287 H 0.33004 0.08769 0.7057 0.0
H2288 H 0.3164 0.07542 0.73009 0.0
H2289 H 0.32115 0.09805 0.8416 0.0
H2290 H 0.32206 0.08278 0.82061 0.0
H2291 H 0.30624 0.09996 0.78503 0.0
H2292 H 0.30573 0.11553 0.80577 0.0
H2293 H 0.32788 0.09904 0.77312 0.0
H2294 H 0.28572 0.0673 0.80037 0.0
H2295 H 0.27081 0.0548 0.82388 0.0
H2296 H 0.29594 0.03625 0.83378 0.0
H2297 H 0.31112 0.0488 0.81045 0.0
C2298 C 0.31275 0.03954 0.73008 0.0
C2299 C 0.32643 0.04322 0.72572 0.0
C2300 C 0.31027 0.0465 0.74279 0.0
C2301 C 0.32142 0.05728 0.7513 0.0
C2302 C 0.33504 0.06054 0.74745 0.0
C2303 C 0.33752 0.05362 0.73478 0.0
C2304 C 0.31896 0.06565 0.7636 0.0
C2305 C 0.31081 0.05905 0.7774 0.0
C2306 C 0.32495 0.08022 0.76192 0.0
C2307 C 0.33299 0.08769 0.74718 0.0
C2308 C 0.34668 0.09878 0.7487 0.0
C2309 C 0.35431 0.10572 0.7348 0.0
C2310 C 0.34833 0.1017 0.71931 0.0
C2311 C 0.33468 0.09077 0.71769 0.0
C2312 C 0.327 0.0838 0.73155 0.0
C2313 C 0.31789 0.09858 0.8293 0.0
C2314 C 0.31336 0.10801 0.82539 0.0
C2315 C 0.31828 0.08975 0.81735 0.0
C2316 C 0.31411 0.09014 0.80126 0.0
C2317 C 0.30948 0.09945 0.79737 0.0
C2318 C 0.30907 0.10827 0.80929 0.0
C2319 C 0.31517 0.08132 0.7883 0.0
C2320 C 0.32309 0.08785 0.77434 0.0
C2321 C 0.30875 0.06668 0.78973 0.0
C2322 C 0.29963 0.05909 0.80375 0.0
C2323 C 0.28813 0.06064 0.80764 0.0
C2324 C 0.27962 0.05353 0.82092 0.0
C2325 C 0.28245 0.04476 0.83034 0.0
C2326 C 0.29377 0.04306 0.82648 0.0
C2327 C 0.30232 0.05016 0.81322 0.0
H2328 H 0.27584 0.03926 0.84062 0.0
H2329 H 0.35425 0.10708 0.70857 0.0
H2330 H 0.9653 0.2666 0.71063 0.0
H2331 H 0.95348 0.25062 0.73336 0.0
H2332 H 0.94699 0.28168 0.75697 0.0
H2333 H 0.95848 0.2976 0.73414 0.0
H2334 H 0.95671 0.26574 0.778 0.0
H2335 H 0.9215 0.26017 0.73863 0.0
H2336 H 0.91149 0.25594 0.71093 0.0
H2337 H 0.9098 0.21647 0.70937 0.0
H2338 H 0.92002 0.22058 0.73699 0.0
H2339 H 0.90444 0.22614 0.83595 0.0
H2340 H 0.91918 0.24221 0.81488 0.0
H2341 H 0.9118 0.20764 0.78398 0.0
H2342 H 0.8961 0.19153 0.80435 0.0
H2343 H 0.91019 0.22529 0.7663 0.0
H2344 H 0.94378 0.22912 0.80526 0.0
H2345 H 0.95485 0.23271 0.83228 0.0
H2346 H 0.9611 0.2741 0.83422 0.0
H2347 H 0.94989 0.27069 0.8073 0.0
C2348 C 0.96152 0.27009 0.72076 0.0
C2349 C 0.96275 0.28333 0.72057 0.0
C2350 C 0.95476 0.26095 0.7337 0.0
C2351 C 0.94936 0.26499 0.74678 0.0
C2352 C 0.95113 0.27841 0.74698 0.0
C2353 C 0.95763 0.28745 0.73391 0.0
C2354 C 0.94107 0.25493 0.7597 0.0
C2355 C 0.94649 0.25694 0.77556 0.0
C2356 C 0.92794 0.24328 0.7563 0.0
C2357 C 0.92168 0.24075 0.73978 0.0
C2358 C 0.91912 0.25065 0.73232 0.0
C2359 C 0.91338 0.24827 0.71665 0.0
C2360 C 0.91005 0.23596 0.70838 0.0
C2361 C 0.91241 0.226 0.71578 0.0
C2362 C 0.91817 0.22835 0.73144 0.0
C2363 C 0.9058 0.22191 0.82462 0.0
C2364 C 0.89899 0.20745 0.82197 0.0
C2365 C 0.91447 0.23116 0.81264 0.0
C2366 C 0.91685 0.22619 0.79788 0.0
C2367 C 0.91021 0.21178 0.79527 0.0
C2368 C 0.90134 0.20253 0.80709 0.0
C2369 C 0.92575 0.23598 0.78486 0.0
C2370 C 0.92045 0.23398 0.76889 0.0
C2371 C 0.93911 0.24749 0.78814 0.0
C2372 C 0.94588 0.24959 0.80432 0.0
C2373 C 0.94742 0.23895 0.8115 0.0
C2374 C 0.95374 0.24096 0.82679 0.0
C2375 C 0.95864 0.25361 0.83498 0.0
C2376 C 0.95728 0.26429 0.82787 0.0
C2377 C 0.95096 0.26233 0.81259 0.0
H2378 H 0.96353 0.25515 0.84682 0.0
H2379 H 0.90561 0.23414 0.69625 0.0
H2380 H 0.71075 0.65274 0.72493 0.0
H2381 H 0.72589 0.65695 0.74828 0.0
H2382 H 0.74177 0.70107 0.74394 0.0
H2383 H 0.72681 0.69695 0.72018 0.0
H2384 H 0.76242 0.69595 0.74851 0.0
H2385 H 0.71916 0.68192 0.77494 0.0
H2386 H 0.69405 0.66711 0.78007 0.0
H2387 H 0.70014 0.63297 0.79245 0.0
H2388 H 0.72527 0.64752 0.78715 0.0
H2389 H 0.79906 0.70832 0.82398 0.0
H2390 H 0.78256 0.70726 0.80346 0.0
H2391 H 0.76512 0.66288 0.79968 0.0
H2392 H 0.78171 0.66386 0.81989 0.0
H2393 H 0.74492 0.67031 0.80068 0.0
H2394 H 0.78773 0.68391 0.77153 0.0
H2395 H 0.81279 0.69869 0.76601 0.0
H2396 H 0.80727 0.73394 0.75888 0.0
H2397 H 0.78219 0.71939 0.76458 0.0
C2398 C 0.71739 0.66335 0.72895 0.0
C2399 C 0.71752 0.67451 0.72067 0.0
C2400 C 0.726 0.66574 0.7424 0.0
C2401 C 0.73483 0.67931 0.74806 0.0
C2402 C 0.73501 0.6905 0.73984 0.0
C2403 C 0.72642 0.68812 0.72628 0.0
C2404 C 0.7442 0.68175 0.76216 0.0
C2405 C 0.75855 0.69056 0.76004 0.0
C2406 C 0.7392 0.67454 0.77713 0.0
C2407 C 0.7241 0.6658 0.78053 0.0
C2408 C 0.71514 0.67123 0.77866 0.0
C2409 C 0.7009 0.66288 0.7816 0.0
C2410 C 0.6955 0.6491 0.78655 0.0
C2411 C 0.70434 0.64365 0.78861 0.0
C2412 C 0.71859 0.65195 0.78566 0.0
C2413 C 0.79177 0.69834 0.81873 0.0
C2414 C 0.79177 0.68618 0.82358 0.0
C2415 C 0.7823 0.69775 0.80705 0.0
C2416 C 0.77267 0.685 0.79996 0.0
C2417 C 0.77242 0.67282 0.80505 0.0
C2418 C 0.7819 0.6734 0.81666 0.0
C2419 C 0.7631 0.68433 0.78689 0.0
C2420 C 0.74873 0.67583 0.78922 0.0
C2421 C 0.76807 0.69186 0.77215 0.0
C2422 C 0.78312 0.7006 0.76867 0.0
C2423 C 0.79188 0.69484 0.76892 0.0
C2424 C 0.80608 0.70317 0.76574 0.0
C2425 C 0.81163 0.71725 0.76215 0.0
C2426 C 0.80297 0.72303 0.76169 0.0
C2427 C 0.78876 0.71475 0.76489 0.0
H2428 H 0.82262 0.72369 0.75968 0.0
H2429 H 0.68447 0.64265 0.78881 0.0
H2430 H 0.7021 0.63646 0.64413 0.0
H2431 H 0.71386 0.63253 0.62111 0.0
H2432 H 0.72562 0.6731 0.60209 0.0
H2433 H 0.71415 0.67727 0.62526 0.0
H2434 H 0.71524 0.64926 0.57789 0.0
H2435 H 0.74875 0.67267 0.62152 0.0
H2436 H 0.75681 0.67514 0.65003 0.0
H2437 H 0.75378 0.63509 0.64749 0.0
H2438 H 0.74549 0.63229 0.61902 0.0
H2439 H 0.76977 0.66116 0.52366 0.0
H2440 H 0.75441 0.66235 0.54401 0.0
H2441 H 0.75632 0.63061 0.5723 0.0
H2442 H 0.77277 0.63034 0.55289 0.0
H2443 H 0.75852 0.64891 0.59187 0.0
H2444 H 0.7266 0.62523 0.54848 0.0
H2445 H 0.71767 0.62133 0.52026 0.0
H2446 H 0.71609 0.65916 0.5222 0.0
H2447 H 0.72518 0.66339 0.55036 0.0
C2448 C 0.70701 0.64447 0.63493 0.0
C2449 C 0.70728 0.65722 0.63656 0.0
C2450 C 0.71372 0.64221 0.62181 0.0
C2451 C 0.72061 0.65254 0.60997 0.0
C2452 C 0.72032 0.66499 0.61111 0.0
C2453 C 0.71383 0.66738 0.62438 0.0
C2454 C 0.72907 0.65082 0.59717 0.0
C2455 C 0.72477 0.64929 0.58084 0.0
C2456 C 0.74125 0.65048 0.60118 0.0
C2457 C 0.74635 0.65221 0.61822 0.0
C2458 C 0.74968 0.66434 0.6271 0.0
C2459 C 0.75431 0.66581 0.64323 0.0
C2460 C 0.75576 0.65526 0.65059 0.0
C2461 C 0.75263 0.64324 0.64179 0.0
C2462 C 0.74797 0.64171 0.62566 0.0
C2463 C 0.7671 0.65453 0.53429 0.0
C2464 C 0.77265 0.64569 0.53654 0.0
C2465 C 0.75805 0.65503 0.54581 0.0
C2466 C 0.75395 0.6464 0.55963 0.0
C2467 C 0.75925 0.63737 0.56175 0.0
C2468 C 0.76855 0.63709 0.55044 0.0
C2469 C 0.74476 0.64727 0.57231 0.0
C2470 C 0.74894 0.64873 0.58873 0.0
C2471 C 0.73232 0.64728 0.56836 0.0
C2472 C 0.72669 0.64469 0.55149 0.0
C2473 C 0.72442 0.63276 0.54285 0.0
C2474 C 0.71932 0.63048 0.52687 0.0
C2475 C 0.71635 0.64001 0.51942 0.0
C2476 C 0.71841 0.6518 0.52797 0.0
C2477 C 0.72352 0.65413 0.54396 0.0
H2478 H 0.71242 0.63824 0.50704 0.0
H2479 H 0.75935 0.65642 0.66308 0.0
H2480 H 0.32245 0.04493 0.63817 0.0
H2481 H 0.32683 0.05966 0.61439 0.0
H2482 H 0.37062 0.07352 0.61745 0.0
H2483 H 0.36635 0.05901 0.64168 0.0
H2484 H 0.36738 0.09479 0.61245 0.0
H2485 H 0.34985 0.05093 0.58679 0.0
H2486 H 0.33386 0.02594 0.58209 0.0
H2487 H 0.3008 0.03413 0.57138 0.0
H2488 H 0.31653 0.05915 0.57624 0.0
H2489 H 0.35576 0.11183 0.52216 0.0
H2490 H 0.35745 0.09618 0.5419 0.0
H2491 H 0.34969 0.11734 0.58126 0.0
H2492 H 0.34857 0.13329 0.56178 0.0
H2493 H 0.33893 0.07788 0.56205 0.0
H2494 H 0.36601 0.11729 0.61537 0.0
H2495 H 0.38367 0.14198 0.61895 0.0
H2496 H 0.40101 0.14213 0.57197 0.0
H2497 H 0.38359 0.11739 0.5682 0.0
C2498 C 0.33302 0.05101 0.63375 0.0
C2499 C 0.34405 0.05076 0.64185 0.0
C2500 C 0.3355 0.05939 0.62005 0.0
C2501 C 0.34903 0.06755 0.61393 0.0
C2502 C 0.36008 0.06728 0.62191 0.0
C2503 C 0.35762 0.05896 0.63574 0.0
C2504 C 0.3516 0.07684 0.59971 0.0
C2505 C 0.36123 0.09107 0.60138 0.0
C2506 C 0.34387 0.07197 0.58504 0.0
C2507 C 0.33437 0.05692 0.58197 0.0
C2508 C 0.33915 0.0474 0.58353 0.0
C2509 C 0.33013 0.03322 0.58083 0.0
C2510 C 0.31632 0.02845 0.57647 0.0
C2511 C 0.3115 0.03785 0.57476 0.0
C2512 C 0.32047 0.05203 0.57746 0.0
C2513 C 0.35463 0.11327 0.53505 0.0
C2514 C 0.35199 0.1238 0.54037 0.0
C2515 C 0.35549 0.10426 0.5463 0.0
C2516 C 0.35385 0.10566 0.56309 0.0
C2517 C 0.35124 0.11617 0.56841 0.0
C2518 C 0.35041 0.12519 0.55721 0.0
C2519 C 0.35429 0.09587 0.57511 0.0
C2520 C 0.34522 0.08157 0.57302 0.0
C2521 C 0.36279 0.10063 0.58921 0.0
C2522 C 0.37341 0.11549 0.59146 0.0
C2523 C 0.37363 0.12256 0.60584 0.0
C2524 C 0.3836 0.13658 0.60789 0.0
C2525 C 0.39343 0.14363 0.59568 0.0
C2526 C 0.39336 0.13667 0.5814 0.0
C2527 C 0.38343 0.12265 0.57929 0.0
H2528 H 0.40113 0.15448 0.59729 0.0
H2529 H 0.30935 0.01747 0.57439 0.0
H2530 H 0.94078 0.30427 0.64205 0.0
H2531 H 0.92523 0.29361 0.61868 0.0
H2532 H 0.9469 0.27169 0.60601 0.0
H2533 H 0.96255 0.28241 0.62904 0.0
H2534 H 0.94102 0.28131 0.5792 0.0
H2535 H 0.91622 0.25591 0.62737 0.0
H2536 H 0.90615 0.25333 0.6549 0.0
H2537 H 0.88043 0.26936 0.63758 0.0
H2538 H 0.89049 0.2722 0.60998 0.0
H2539 H 0.89224 0.22169 0.53587 0.0
H2540 H 0.9085 0.2384 0.55565 0.0
H2541 H 0.88313 0.25767 0.55929 0.0
H2542 H 0.86671 0.24084 0.53957 0.0
H2543 H 0.89039 0.25219 0.58941 0.0
H2544 H 0.91342 0.2745 0.53996 0.0
H2545 H 0.92334 0.27612 0.51253 0.0
H2546 H 0.95234 0.26512 0.53228 0.0
H2547 H 0.94246 0.26322 0.5598 0.0
C2548 C 0.94231 0.29728 0.6342 0.0
C2549 C 0.95287 0.29413 0.63751 0.0
C2550 C 0.93338 0.29115 0.62088 0.0
C2551 C 0.9348 0.28172 0.6107 0.0
C2552 C 0.9456 0.27893 0.61368 0.0
C2553 C 0.95451 0.28504 0.62693 0.0
C2554 C 0.92479 0.27427 0.59728 0.0
C2555 C 0.92996 0.2749 0.58144 0.0
C2556 C 0.9103 0.26616 0.60011 0.0
C2557 C 0.90423 0.26443 0.61668 0.0
C2558 C 0.9085 0.25899 0.62947 0.0
C2559 C 0.90278 0.25746 0.64508 0.0
C2560 C 0.89269 0.26122 0.648 0.0
C2561 C 0.88827 0.26648 0.63531 0.0
C2562 C 0.89397 0.26805 0.61968 0.0
C2563 C 0.89015 0.22951 0.54084 0.0
C2564 C 0.8782 0.22995 0.53618 0.0
C2565 C 0.89949 0.23912 0.55205 0.0
C2566 C 0.89708 0.24935 0.55885 0.0
C2567 C 0.88522 0.24989 0.55413 0.0
C2568 C 0.87591 0.24034 0.5428 0.0
C2569 C 0.90667 0.25902 0.57142 0.0
C2570 C 0.90142 0.25879 0.5871 0.0
C2571 C 0.92109 0.26742 0.56846 0.0
C2572 C 0.92712 0.26862 0.55194 0.0
C2573 C 0.92184 0.27232 0.53844 0.0
C2574 C 0.92747 0.27331 0.52288 0.0
C2575 C 0.93844 0.2707 0.52066 0.0
C2576 C 0.94383 0.26713 0.53401 0.0
C2577 C 0.93823 0.26612 0.5496 0.0
H2578 H 0.94279 0.27148 0.5086 0.0
H2579 H 0.88827 0.26003 0.66009 0.0
H2580 H 0.36137 0.30407 0.63913 0.0
H2581 H 0.36365 0.2914 0.61592 0.0
H2582 H 0.31901 0.26692 0.61221 0.0
H2583 H 0.31663 0.27935 0.63546 0.0
H2584 H 0.33036 0.25074 0.61204 0.0
H2585 H 0.33865 0.29226 0.58409 0.0
H2586 H 0.35026 0.31751 0.57913 0.0
H2587 H 0.38926 0.3188 0.57258 0.0
H2588 H 0.37791 0.29358 0.57772 0.0
H2589 H 0.3237 0.21598 0.53808 0.0
H2590 H 0.32302 0.23192 0.55821 0.0
H2591 H 0.36778 0.25417 0.5606 0.0
H2592 H 0.36855 0.23823 0.5404 0.0
H2593 H 0.35738 0.2719 0.56148 0.0
H2594 H 0.34938 0.23071 0.58943 0.0
H2595 H 0.33806 0.2055 0.59449 0.0
H2596 H 0.29888 0.20374 0.60152 0.0
H2597 H 0.30994 0.22892 0.59625 0.0
C2598 C 0.35203 0.29609 0.63327 0.0
C2599 C 0.33881 0.2927 0.63922 0.0
C2600 C 0.35336 0.28889 0.61995 0.0
C2601 C 0.3415 0.27824 0.61227 0.0
C2602 C 0.32831 0.27507 0.61796 0.0
C2603 C 0.32697 0.28222 0.63126 0.0
C2604 C 0.34273 0.26984 0.5989 0.0
C2605 C 0.3361 0.25537 0.60089 0.0
C2606 C 0.35061 0.2759 0.58457 0.0
C2607 C 0.35745 0.29106 0.58145 0.0
C2608 C 0.34972 0.29795 0.58173 0.0
C2609 C 0.35625 0.31225 0.57886 0.0
C2610 C 0.3705 0.31976 0.57559 0.0
C2611 C 0.37823 0.31298 0.57514 0.0
C2612 C 0.37175 0.29868 0.57801 0.0
C2613 C 0.33341 0.22428 0.54286 0.0
C2614 C 0.34617 0.22575 0.53779 0.0
C2615 C 0.333 0.2334 0.55434 0.0
C2616 C 0.34534 0.24409 0.56112 0.0
C2617 C 0.35814 0.24598 0.55555 0.0
C2618 C 0.35855 0.23688 0.54399 0.0
C2619 C 0.34479 0.25282 0.57455 0.0
C2620 C 0.35162 0.26731 0.57263 0.0
C2621 C 0.33713 0.24681 0.58901 0.0
C2622 C 0.33046 0.23168 0.59229 0.0
C2623 C 0.33833 0.22493 0.59193 0.0
C2624 C 0.33196 0.21065 0.59485 0.0
C2625 C 0.31775 0.20302 0.59828 0.0
C2626 C 0.30988 0.20966 0.59884 0.0
C2627 C 0.3162 0.22394 0.5959 0.0
H2628 H 0.31284 0.19196 0.60055 0.0
H2629 H 0.37554 0.33083 0.57337 0.0
H2630 H 0.6943 0.06162 0.64127 0.0
H2631 H 0.7037 0.077 0.61753 0.0
H2632 H 0.73196 0.06166 0.60848 0.0
H2633 H 0.72246 0.04612 0.63173 0.0
H2634 H 0.7284 0.09786 0.61179 0.0
H2635 H 0.73935 0.06202 0.56928 0.0
H2636 H 0.72847 0.03713 0.56236 0.0
H2637 H 0.6887 0.03086 0.57746 0.0
H2638 H 0.69928 0.05574 0.58425 0.0
H2639 H 0.78466 0.1364 0.55993 0.0
H2640 H 0.76747 0.12038 0.57922 0.0
H2641 H 0.73769 0.10173 0.54017 0.0
H2642 H 0.75519 0.11729 0.52054 0.0
H2643 H 0.73672 0.08226 0.55823 0.0
H2644 H 0.73473 0.12296 0.56961 0.0
H2645 H 0.74351 0.14775 0.5755 0.0
H2646 H 0.76124 0.14411 0.62049 0.0
H2647 H 0.75274 0.11933 0.61476 0.0
C2648 C 0.70242 0.06143 0.63411 0.0
C2649 C 0.70759 0.05259 0.6384 0.0
C2650 C 0.7078 0.07025 0.62056 0.0
C2651 C 0.71841 0.07037 0.61105 0.0
C2652 C 0.72355 0.06154 0.61534 0.0
C2653 C 0.71814 0.0527 0.62876 0.0
C2654 C 0.72474 0.08019 0.59717 0.0
C2655 C 0.73011 0.09444 0.60003 0.0
C2656 C 0.72663 0.07573 0.58163 0.0
C2657 C 0.72014 0.06076 0.57737 0.0
C2658 C 0.72827 0.05536 0.57103 0.0
C2659 C 0.72215 0.04124 0.56716 0.0
C2660 C 0.70791 0.03242 0.56951 0.0
C2661 C 0.69974 0.0377 0.5757 0.0
C2662 C 0.70579 0.05181 0.57958 0.0
C2663 C 0.7745 0.12883 0.55537 0.0
C2664 C 0.77137 0.12809 0.53862 0.0
C2665 C 0.76458 0.1198 0.56649 0.0
C2666 C 0.75118 0.10996 0.56123 0.0
C2667 C 0.74794 0.10927 0.54455 0.0
C2668 C 0.75792 0.11826 0.53335 0.0
C2669 C 0.74092 0.09996 0.57311 0.0
C2670 C 0.73481 0.08568 0.56988 0.0
C2671 C 0.73804 0.10438 0.58814 0.0
C2672 C 0.74314 0.11928 0.5917 0.0
C2673 C 0.74057 0.12746 0.58071 0.0
C2674 C 0.7455 0.14151 0.58403 0.0
C2675 C 0.75294 0.1475 0.59835 0.0
C2676 C 0.75546 0.13945 0.6094 0.0
C2677 C 0.75058 0.12539 0.60614 0.0
H2678 H 0.75675 0.15839 0.60089 0.0
H2679 H 0.7032 0.02149 0.56651 0.0
H2680 H 0.93408 0.63757 0.64966 0.0
H2681 H 0.91851 0.63342 0.62659 0.0
H2682 H 0.95102 0.66938 0.60202 0.0
H2683 H 0.96632 0.67395 0.62541 0.0
H2684 H 0.9291 0.67063 0.5999 0.0
H2685 H 0.93888 0.63399 0.58973 0.0
H2686 H 0.94095 0.61339 0.596 0.0
H2687 H 0.89723 0.58985 0.60626 0.0
H2688 H 0.89493 0.61038 0.60026 0.0
H2689 H 0.89451 0.65681 0.52318 0.0
H2690 H 0.9108 0.65792 0.54396 0.0
H2691 H 0.8766 0.6317 0.57558 0.0
H2692 H 0.8602 0.63106 0.55531 0.0
H2693 H 0.89937 0.62506 0.57312 0.0
H2694 H 0.89079 0.66312 0.58379 0.0
H2695 H 0.88954 0.68392 0.57605 0.0
H2696 H 0.93275 0.70499 0.56292 0.0
H2697 H 0.93419 0.68421 0.57035 0.0
C2698 C 0.93794 0.64447 0.63923 0.0
C2699 C 0.95139 0.6561 0.63935 0.0
C2700 C 0.92906 0.64205 0.62599 0.0
C2701 C 0.93359 0.651 0.61241 0.0
C2702 C 0.94721 0.66235 0.61234 0.0
C2703 C 0.95598 0.66493 0.6257 0.0
C2704 C 0.92391 0.64914 0.59879 0.0
C2705 C 0.92282 0.66069 0.5939 0.0
C2706 C 0.91543 0.63614 0.59108 0.0
C2707 C 0.91677 0.62377 0.59469 0.0
C2708 C 0.92973 0.62445 0.59345 0.0
C2709 C 0.93094 0.61278 0.59693 0.0
C2710 C 0.91924 0.60033 0.60157 0.0
C2711 C 0.90629 0.59951 0.60269 0.0
C2712 C 0.90503 0.61116 0.59923 0.0
C2713 C 0.89039 0.65134 0.53457 0.0
C2714 C 0.87597 0.64394 0.53754 0.0
C2715 C 0.89974 0.65189 0.54637 0.0
C2716 C 0.89487 0.64492 0.56128 0.0
C2717 C 0.88053 0.63707 0.56408 0.0
C2718 C 0.87117 0.63668 0.5524 0.0
C2719 C 0.90478 0.64653 0.57435 0.0
C2720 C 0.90582 0.63497 0.57913 0.0
C2721 C 0.9134 0.65955 0.5818 0.0
C2722 C 0.91256 0.67207 0.57745 0.0
C2723 C 0.89999 0.67215 0.57911 0.0
C2724 C 0.89925 0.68394 0.5748 0.0
C2725 C 0.91105 0.69575 0.56895 0.0
C2726 C 0.92362 0.69582 0.56743 0.0
C2727 C 0.9244 0.68404 0.57169 0.0
H2728 H 0.91046 0.70487 0.56563 0.0
H2729 H 0.92019 0.59131 0.60426 0.0
H2730 H 0.9624 0.69602 0.71195 0.0
H2731 H 0.95086 0.70025 0.73489 0.0
H2732 H 0.94762 0.66456 0.7599 0.0
H2733 H 0.95846 0.65989 0.73661 0.0
H2734 H 0.92451 0.66329 0.76229 0.0
H2735 H 0.97082 0.70016 0.77167 0.0
H2736 H 0.99339 0.72071 0.76501 0.0
H2737 H 0.97302 0.74402 0.75439 0.0
H2738 H 0.9503 0.72355 0.76078 0.0
H2739 H 0.90421 0.67841 0.8389 0.0
H2740 H 0.91936 0.67708 0.81815 0.0
H2741 H 0.91047 0.70212 0.78567 0.0
H2742 H 0.89471 0.70293 0.80591 0.0
H2743 H 0.94021 0.70922 0.78817 0.0
H2744 H 0.89364 0.67077 0.77832 0.0
H2745 H 0.87177 0.65002 0.78662 0.0
H2746 H 0.89433 0.6295 0.80028 0.0
H2747 H 0.91637 0.65023 0.79229 0.0
C2748 C 0.95937 0.68918 0.72244 0.0
C2749 C 0.9613 0.67761 0.72248 0.0
C2750 C 0.95283 0.69165 0.73562 0.0
C2751 C 0.94846 0.68283 0.7493 0.0
C2752 C 0.95081 0.6715 0.74951 0.0
C2753 C 0.95705 0.66886 0.7362 0.0
C2754 C 0.9407 0.68482 0.76293 0.0
C2755 C 0.92814 0.67332 0.76809 0.0
C2756 C 0.94519 0.69793 0.77041 0.0
C2757 C 0.95884 0.71027 0.76656 0.0
C2758 C 0.97114 0.70963 0.7678 0.0
C2759 C 0.98397 0.72128 0.76409 0.0
C2760 C 0.98464 0.73365 0.75924 0.0
C2761 C 0.97249 0.73442 0.75813 0.0
C2762 C 0.95963 0.72281 0.76181 0.0
C2763 C 0.90536 0.68358 0.82733 0.0
C2764 C 0.89807 0.69068 0.82411 0.0
C2765 C 0.91414 0.68291 0.81555 0.0
C2766 C 0.91599 0.68948 0.80041 0.0
C2767 C 0.90924 0.69706 0.79735 0.0
C2768 C 0.90027 0.69755 0.80901 0.0
C2769 C 0.92425 0.68771 0.78738 0.0
C2770 C 0.93678 0.69923 0.78235 0.0
C2771 C 0.9199 0.67459 0.7802 0.0
C2772 C 0.90666 0.6621 0.78489 0.0
C2773 C 0.89395 0.66188 0.78324 0.0
C2774 C 0.88152 0.65012 0.78785 0.0
C2775 C 0.88167 0.63847 0.79402 0.0
C2776 C 0.89424 0.63854 0.79553 0.0
C2777 C 0.90669 0.65029 0.79095 0.0
H2778 H 0.87204 0.62937 0.79758 0.0
H2779 H 0.99458 0.74265 0.75637 0.0
H2780 H 0.30571 0.27811 0.72541 0.0
H2781 H 0.30252 0.26273 0.7484 0.0
H2782 H 0.34671 0.27844 0.74989 0.0
H2783 H 0.34999 0.29372 0.72691 0.0
H2784 H 0.33235 0.25049 0.75023 0.0
H2785 H 0.33064 0.28755 0.77891 0.0
H2786 H 0.32197 0.3037 0.78464 0.0
H2787 H 0.28113 0.26921 0.79357 0.0
H2788 H 0.28952 0.25284 0.78768 0.0
H2789 H 0.33922 0.22242 0.82384 0.0
H2790 H 0.34064 0.23869 0.80298 0.0
H2791 H 0.29622 0.22137 0.80525 0.0
H2792 H 0.29476 0.20537 0.82672 0.0
H2793 H 0.3093 0.24931 0.80267 0.0
H2794 H 0.31077 0.21225 0.7746 0.0
H2795 H 0.31905 0.19582 0.76864 0.0
H2796 H 0.35975 0.22988 0.758 0.0
H2797 H 0.35176 0.24654 0.76413 0.0
C2798 C 0.31476 0.27839 0.73073 0.0
C2799 C 0.3281 0.28714 0.72426 0.0
C2800 C 0.31292 0.26961 0.7439 0.0
C2801 C 0.32439 0.26947 0.7509 0.0
C2802 C 0.33771 0.27836 0.74466 0.0
C2803 C 0.33957 0.28712 0.73153 0.0
C2804 C 0.32252 0.25964 0.76425 0.0
C2805 C 0.32747 0.25036 0.76178 0.0
C2806 C 0.31573 0.25915 0.7791 0.0
C2807 C 0.31068 0.26897 0.78268 0.0
C2808 C 0.31978 0.28341 0.78196 0.0
C2809 C 0.31492 0.2926 0.78526 0.0
C2810 C 0.301 0.28748 0.78942 0.0
C2811 C 0.29191 0.27316 0.79033 0.0
C2812 C 0.29671 0.26392 0.78702 0.0
C2813 C 0.32976 0.2222 0.82016 0.0
C2814 C 0.31686 0.21254 0.82698 0.0
C2815 C 0.33057 0.23142 0.80806 0.0
C2816 C 0.31851 0.2311 0.80234 0.0
C2817 C 0.30566 0.22175 0.80941 0.0
C2818 C 0.30483 0.21253 0.82158 0.0
C2819 C 0.31936 0.24033 0.78874 0.0
C2820 C 0.31416 0.24943 0.79111 0.0
C2821 C 0.32586 0.24063 0.77372 0.0
C2822 C 0.33069 0.23064 0.76997 0.0
C2823 C 0.32151 0.21624 0.77111 0.0
C2824 C 0.32615 0.20689 0.76769 0.0
C2825 C 0.33993 0.2118 0.76298 0.0
C2826 C 0.34909 0.22609 0.76166 0.0
C2827 C 0.34451 0.23549 0.7651 0.0
H2828 H 0.3435 0.20455 0.76033 0.0
H2829 H 0.29725 0.29462 0.79198 0.0
H2830 H 0.70419 0.04521 0.7354 0.0
H2831 H 0.71951 0.0565 0.75865 0.0
H2832 H 0.75254 0.05388 0.73402 0.0
H2833 H 0.73697 0.04189 0.71109 0.0
H2834 H 0.7541 0.04978 0.76446 0.0
H2835 H 0.74984 0.08452 0.73483 0.0
H2836 H 0.73771 0.09537 0.72154 0.0
H2837 H 0.71945 0.09638 0.76745 0.0
H2838 H 0.73133 0.08537 0.78098 0.0
H2839 H 0.81054 0.10802 0.80514 0.0
H2840 H 0.79363 0.0926 0.78507 0.0
H2841 H 0.76019 0.08541 0.81768 0.0
H2842 H 0.77701 0.10022 0.8383 0.0
H2843 H 0.75863 0.09415 0.78421 0.0
H2844 H 0.76529 0.06028 0.81349 0.0
H2845 H 0.77928 0.05088 0.82537 0.0
H2846 H 0.79548 0.05027 0.77789 0.0
H2847 H 0.78174 0.05987 0.76575 0.0
C2848 C 0.71468 0.04693 0.73501 0.0
C2849 C 0.71942 0.04277 0.72137 0.0
C2850 C 0.72347 0.05347 0.74827 0.0
C2851 C 0.73734 0.05641 0.74795 0.0
C2852 C 0.74193 0.05181 0.73456 0.0
C2853 C 0.73303 0.04497 0.72144 0.0
C2854 C 0.74712 0.06461 0.76132 0.0
C2855 C 0.75517 0.05955 0.76863 0.0
C2856 C 0.74849 0.07732 0.76696 0.0
C2857 C 0.74136 0.08399 0.75888 0.0
C2858 C 0.74316 0.08697 0.74207 0.0
C2859 C 0.73634 0.09316 0.7345 0.0
C2860 C 0.72778 0.09653 0.74364 0.0
C2861 C 0.72606 0.09375 0.76038 0.0
C2862 C 0.73285 0.08754 0.76801 0.0
C2863 C 0.79963 0.10293 0.8083 0.0
C2864 C 0.79522 0.10543 0.82346 0.0
C2865 C 0.78997 0.09418 0.79672 0.0
C2866 C 0.77569 0.08788 0.79993 0.0
C2867 C 0.77119 0.09024 0.81498 0.0
C2868 C 0.78084 0.09881 0.82671 0.0
C2869 C 0.76549 0.07928 0.78725 0.0
C2870 C 0.75744 0.08432 0.78005 0.0
C2871 C 0.76437 0.06675 0.78147 0.0
C2872 C 0.77258 0.06092 0.78874 0.0
C2873 C 0.77193 0.05826 0.8056 0.0
C2874 C 0.7798 0.05287 0.81238 0.0
C2875 C 0.78829 0.05001 0.8024 0.0
C2876 C 0.78891 0.0525 0.78561 0.0
C2877 C 0.78107 0.0579 0.77877 0.0
H2878 H 0.79437 0.04584 0.80766 0.0
H2879 H 0.72251 0.10132 0.73775 0.0
H2880 H 0.05875 0.37057 0.03347 0.0
H2881 H 0.07297 0.36233 0.04653 0.0
H2882 H 0.03863 0.32025 0.04472 0.0
H2883 H 0.02416 0.3285 0.03181 0.0
H2884 H 0.05013 0.32619 0.07437 0.0
H2885 H 0.06726 0.33064 0.02009 0.0
H2886 H 0.07656 0.34196 0.99355 0.0
H2887 H 0.11269 0.37436 0.01739 0.0
H2888 H 0.10352 0.36334 0.04411 0.0
H2889 H 0.0943 0.30134 0.10471 0.0
H2890 H 0.07875 0.3051 0.08693 0.0
H2891 H 0.10778 0.34918 0.08713 0.0
H2892 H 0.12343 0.34548 0.10466 0.0
H2893 H 0.09783 0.33937 0.05638 0.0
H2894 H 0.07934 0.33601 0.11071 0.0
H2895 H 0.06999 0.32471 0.13726 0.0
H2896 H 0.03631 0.28996 0.1129 0.0
H2897 H 0.04557 0.30099 0.08617 0.0
C2898 C 0.05423 0.35953 0.03564 0.0
C2899 C 0.0403 0.35019 0.03158 0.0
C2900 C 0.06242 0.35482 0.04306 0.0
C2901 C 0.05694 0.34064 0.04647 0.0
C2902 C 0.0431 0.33123 0.04216 0.0
C2903 C 0.03487 0.33595 0.03472 0.0
C2904 C 0.06548 0.33591 0.05539 0.0
C2905 C 0.06044 0.32881 0.07024 0.0
C2906 C 0.07905 0.33953 0.05019 0.0
C2907 C 0.08464 0.3462 0.03413 0.0
C2908 C 0.07714 0.34023 0.01969 0.0
C2909 C 0.0824 0.34659 0.00461 0.0
C2910 C 0.0952 0.35889 0.00379 0.0
C2911 C 0.10278 0.36484 0.01804 0.0
C2912 C 0.09756 0.35852 0.03316 0.0
C2913 C 0.0974 0.31181 0.10087 0.0
C2914 C 0.11006 0.32312 0.10616 0.0
C2915 C 0.08847 0.31395 0.09079 0.0
C2916 C 0.09206 0.32743 0.08579 0.0
C2917 C 0.10479 0.3387 0.09085 0.0
C2918 C 0.11367 0.33658 0.10099 0.0
C2919 C 0.08255 0.32991 0.07543 0.0
C2920 C 0.08743 0.33658 0.06034 0.0
C2921 C 0.06883 0.32587 0.08038 0.0
C2922 C 0.06324 0.31925 0.09644 0.0
C2923 C 0.07 0.32591 0.111 0.0
C2924 C 0.06471 0.31956 0.12609 0.0
C2925 C 0.05258 0.3066 0.12676 0.0
C2926 C 0.04571 0.29999 0.11235 0.0
C2927 C 0.05098 0.30628 0.09724 0.0
H2928 H 0.0485 0.30171 0.13845 0.0
H2929 H 0.09925 0.36379 0.9921 0.0
H2930 H 0.67232 0.69485 0.03029 0.0
H2931 H 0.68054 0.71766 0.04302 0.0
H2932 H 0.6382 0.70881 0.0478 0.0
H2933 H 0.62996 0.68623 0.0349 0.0
H2934 H 0.65457 0.73508 0.03884 0.0
H2935 H 0.65572 0.70438 0.07982 0.0
H2936 H 0.66284 0.68839 0.09135 0.0
H2937 H 0.70568 0.72039 0.08856 0.0
H2938 H 0.69881 0.73652 0.07681 0.0
H2939 H 0.65559 0.77712 0.10396 0.0
H2940 H 0.65199 0.75777 0.08644 0.0
H2941 H 0.69623 0.77377 0.08472 0.0
H2942 H 0.69991 0.79306 0.10262 0.0
H2943 H 0.68184 0.74577 0.09009 0.0
H2944 H 0.68006 0.77734 0.05203 0.0
H2945 H 0.67242 0.79314 0.04125 0.0
H2946 H 0.63034 0.7594 0.03902 0.0
H2947 H 0.63769 0.74342 0.05002 0.0
C2948 C 0.66478 0.69785 0.03387 0.0
C2949 C 0.65048 0.68868 0.03167 0.0
C2950 C 0.66949 0.71085 0.04122 0.0
C2951 C 0.65997 0.71487 0.04658 0.0
C2952 C 0.64574 0.70595 0.04379 0.0
C2953 C 0.64105 0.693 0.03644 0.0
C2954 C 0.66462 0.72807 0.0557 0.0
C2955 C 0.66047 0.73738 0.05009 0.0
C2956 C 0.67263 0.73127 0.07018 0.0
C2957 C 0.67676 0.72159 0.07726 0.0
C2958 C 0.66666 0.70797 0.08155 0.0
C2959 C 0.67065 0.69889 0.08814 0.0
C2960 C 0.68471 0.70335 0.09064 0.0
C2961 C 0.6948 0.71693 0.08659 0.0
C2962 C 0.69086 0.72605 0.07997 0.0
C2963 C 0.66456 0.77648 0.09997 0.0
C2964 C 0.67804 0.78663 0.10471 0.0
C2965 C 0.6625 0.76549 0.08981 0.0
C2966 C 0.67386 0.76441 0.0841 0.0
C2967 C 0.68733 0.77444 0.08891 0.0
C2968 C 0.68941 0.7855 0.09905 0.0
C2969 C 0.67154 0.75262 0.07339 0.0
C2970 C 0.67612 0.74358 0.07871 0.0
C2971 C 0.66388 0.74963 0.05868 0.0
C2972 C 0.65942 0.7592 0.05196 0.0
C2973 C 0.66916 0.7733 0.04935 0.0
C2974 C 0.66488 0.78229 0.04318 0.0
C2975 C 0.6509 0.77728 0.03948 0.0
C2976 C 0.64116 0.76326 0.0419 0.0
C2977 C 0.64538 0.75423 0.04808 0.0
H2978 H 0.64761 0.78426 0.03471 0.0
H2979 H 0.68778 0.69631 0.09575 0.0
H2980 H 0.30978 0.98049 0.03233 0.0
H2981 H 0.28673 0.96571 0.04434 0.0
H2982 H 0.29615 0.9327 0.0503 0.0
H2983 H 0.31901 0.94726 0.03822 0.0
H2984 H 0.27 0.92266 0.0396 0.0
H2985 H 0.29919 0.95406 0.08204 0.0
H2986 H 0.31457 0.97706 0.09427 0.0
H2987 H 0.28229 0.98745 0.09008 0.0
H2988 H 0.26677 0.96456 0.07762 0.0
H2989 H 0.22646 0.88034 0.1026 0.0
H2990 H 0.24602 0.89643 0.08569 0.0
H2991 H 0.22982 0.92454 0.08454 0.0
H2992 H 0.21033 0.90861 0.10191 0.0
H2993 H 0.25747 0.93822 0.09051 0.0
H2994 H 0.22728 0.90542 0.05109 0.0
H2995 H 0.21196 0.88219 0.0394 0.0
H2996 H 0.24601 0.87422 0.03808 0.0
H2997 H 0.26151 0.89734 0.04998 0.0
C2998 C 0.30687 0.97003 0.03605 0.0
C2999 C 0.31626 0.96508 0.03439 0.0
C3000 C 0.29372 0.96162 0.04297 0.0
C3001 C 0.28977 0.94814 0.04839 0.0
C3002 C 0.29896 0.94305 0.04622 0.0
C3003 C 0.31207 0.95143 0.03935 0.0
C3004 C 0.27631 0.9394 0.05687 0.0
C3005 C 0.26729 0.92603 0.05077 0.0
C3006 C 0.27258 0.94394 0.07121 0.0
C3007 C 0.28189 0.95768 0.07871 0.0
C3008 C 0.29541 0.9613 0.0836 0.0
C3009 C 0.30415 0.9743 0.0906 0.0
C3010 C 0.29943 0.98373 0.0929 0.0
C3011 C 0.28595 0.98015 0.08825 0.0
C3012 C 0.27717 0.96716 0.08123 0.0
C3013 C 0.22708 0.88998 0.09885 0.0
C3014 C 0.21684 0.8932 0.10364 0.0
C3015 C 0.2382 0.89911 0.08902 0.0
C3016 C 0.2393 0.91162 0.08366 0.0
C3017 C 0.22914 0.91491 0.08846 0.0
C3018 C 0.21797 0.90576 0.09829 0.0
C3019 C 0.2513 0.92136 0.07343 0.0
C3020 C 0.26005 0.93491 0.0792 0.0
C3021 C 0.2548 0.91698 0.05879 0.0
C3022 C 0.24554 0.90309 0.05154 0.0
C3023 C 0.23149 0.89868 0.04841 0.0
C3024 C 0.22277 0.88554 0.04173 0.0
C3025 C 0.228 0.87672 0.03803 0.0
C3026 C 0.24197 0.88106 0.04096 0.0
C3027 C 0.25073 0.89419 0.04765 0.0
H3028 H 0.22124 0.86655 0.03286 0.0
H3029 H 0.30621 0.99379 0.09833 0.0
H3030 H 0.33261 0.02602 1.00071 0.0
H3031 H 0.32476 0.04089 0.988 0.0
H3032 H 0.36734 0.07179 0.97795 0.0
H3033 H 0.37522 0.0572 0.99083 0.0
H3034 H 0.35344 0.08399 0.988 0.0
H3035 H 0.34593 0.04845 0.94856 0.0
H3036 H 0.33621 0.02438 0.9386 0.0
H3037 H 0.29484 0.01715 0.9462 0.0
H3038 H 0.30434 0.04114 0.9564 0.0
H3039 H 0.34965 0.12254 0.92209 0.0
H3040 H 0.35341 0.1067 0.93909 0.0
H3041 H 0.30934 0.08209 0.94791 0.0
H3042 H 0.30547 0.09809 0.93116 0.0
H3043 H 0.32136 0.066 0.94064 0.0
H3044 H 0.32944 0.10285 0.97734 0.0
H3045 H 0.33969 0.12721 0.98635 0.0
H3046 H 0.38056 0.13226 0.98321 0.0
H3047 H 0.37056 0.10797 0.97394 0.0
C3048 C 0.34029 0.03605 0.99594 0.0
C3049 C 0.35454 0.04039 0.99672 0.0
C3050 C 0.33579 0.04451 0.9886 0.0
C3051 C 0.34546 0.05739 0.98181 0.0
C3052 C 0.35968 0.06191 0.98308 0.0
C3053 C 0.36417 0.05351 0.99043 0.0
C3054 C 0.34091 0.0661 0.97292 0.0
C3055 C 0.34649 0.08006 0.97759 0.0
C3056 C 0.33156 0.06093 0.95956 0.0
C3057 C 0.32585 0.04652 0.95343 0.0
C3058 C 0.33477 0.04168 0.94823 0.0
C3059 C 0.32929 0.02807 0.94252 0.0
C3060 C 0.31492 0.01922 0.94182 0.0
C3061 C 0.30598 0.024 0.94678 0.0
C3062 C 0.3114 0.0376 0.95252 0.0
C3063 C 0.34075 0.11386 0.92777 0.0
C3064 C 0.32726 0.11169 0.92535 0.0
C3065 C 0.34292 0.10478 0.93745 0.0
C3066 C 0.33168 0.09331 0.94494 0.0
C3067 C 0.31817 0.09089 0.94226 0.0
C3068 C 0.31598 0.10002 0.93262 0.0
C3069 C 0.33414 0.08392 0.95553 0.0
C3070 C 0.32817 0.06986 0.95119 0.0
C3071 C 0.34319 0.08902 0.96913 0.0
C3072 C 0.34925 0.10361 0.97483 0.0
C3073 C 0.34062 0.10918 0.97846 0.0
C3074 C 0.34638 0.12297 0.98363 0.0
C3075 C 0.36077 0.13129 0.98532 0.0
C3076 C 0.36942 0.12581 0.98188 0.0
C3077 C 0.3637 0.11202 0.97669 0.0
H3078 H 0.36521 0.14197 0.98933 0.0
H3079 H 0.3107 0.00869 0.93739 0.0
H3080 H 0.9781 0.30548 0.00325 0.0
H3081 H 0.96335 0.28321 0.9895 0.0
H3082 H 0.93555 0.29769 0.97437 0.0
H3083 H 0.9498 0.31954 0.98864 0.0
H3084 H 0.92079 0.27252 0.98202 0.0
H3085 H 0.96137 0.29745 0.94851 0.0
H3086 H 0.98645 0.30996 0.94224 0.0
H3087 H 0.98894 0.27372 0.95467 0.0
H3088 H 0.9639 0.26105 0.96121 0.0
H3089 H 0.90802 0.22859 0.90272 0.0
H3090 H 0.92334 0.24877 0.91956 0.0
H3091 H 0.90231 0.22587 0.96298 0.0
H3092 H 0.88662 0.20594 0.94609 0.0
H3093 H 0.94165 0.25475 0.94178 0.0
H3094 H 0.90126 0.24685 0.99175 0.0
H3095 H 0.87588 0.23659 0.99463 0.0
H3096 H 0.87249 0.24277 0.94346 0.0
H3097 H 0.89785 0.25322 0.94032 0.0
C3098 C 0.96875 0.30382 0.99713 0.0
C3099 C 0.96513 0.31428 0.99702 0.0
C3100 C 0.96038 0.29113 0.98917 0.0
C3101 C 0.94842 0.2888 0.98062 0.0
C3102 C 0.94467 0.29915 0.98087 0.0
C3103 C 0.95287 0.31169 0.98904 0.0
C3104 C 0.93987 0.27579 0.97111 0.0
C3105 C 0.92539 0.26862 0.97329 0.0
C3106 C 0.94576 0.27077 0.95944 0.0
C3107 C 0.96081 0.27836 0.95553 0.0
C3108 C 0.9673 0.29219 0.95002 0.0
C3109 C 0.98149 0.2993 0.9464 0.0
C3110 C 0.98929 0.29266 0.9481 0.0
C3111 C 0.98289 0.27887 0.95339 0.0
C3112 C 0.9687 0.27171 0.95705 0.0
C3113 C 0.90675 0.22789 0.91587 0.0
C3114 C 0.89607 0.2158 0.92311 0.0
C3115 C 0.91551 0.23939 0.9255 0.0
C3116 C 0.91386 0.23897 0.94256 0.0
C3117 C 0.90358 0.22662 0.94984 0.0
C3118 C 0.89465 0.21523 0.94019 0.0
C3119 C 0.92259 0.25156 0.95264 0.0
C3120 C 0.93708 0.2586 0.95062 0.0
C3121 C 0.91667 0.2568 0.96399 0.0
C3122 C 0.90143 0.25067 0.96578 0.0
C3123 C 0.89509 0.24605 0.98113 0.0
C3124 C 0.88071 0.2402 0.98281 0.0
C3125 C 0.87257 0.23898 0.96923 0.0
C3126 C 0.8788 0.24367 0.95396 0.0
C3127 C 0.89317 0.24955 0.95222 0.0
H3128 H 0.86144 0.23444 0.97055 0.0
H3129 H 1.00028 0.29818 0.94529 0.0
H3130 H 0.68426 0.62973 0.99248 0.0
H3131 H 0.70663 0.63745 0.97942 0.0
H3132 H 0.71694 0.68017 0.98526 0.0
H3133 H 0.69426 0.67245 0.9981 0.0
H3134 H 0.72305 0.67588 0.95524 0.0
H3135 H 0.73295 0.66629 0.00854 0.0
H3136 H 0.72926 0.65286 0.03382 0.0
H3137 H 0.73113 0.62073 0.00658 0.0
H3138 H 0.73464 0.63387 0.98108 0.0
H3139 H 0.79276 0.69822 0.92802 0.0
H3140 H 0.77294 0.69455 0.94479 0.0
H3141 H 0.75462 0.65022 0.93892 0.0
H3142 H 0.77413 0.65376 0.9218 0.0
H3143 H 0.75438 0.65805 0.97108 0.0
H3144 H 0.74235 0.66714 0.91756 0.0
H3145 H 0.74626 0.68089 0.8925 0.0
H3146 H 0.74897 0.7147 0.92096 0.0
H3147 H 0.74527 0.70121 0.94623 0.0
C3148 C 0.69131 0.64078 0.99116 0.0
C3149 C 0.68747 0.65048 0.99638 0.0
C3150 C 0.70416 0.64519 0.98374 0.0
C3151 C 0.71358 0.65941 0.98153 0.0
C3152 C 0.70986 0.66915 0.98688 0.0
C3153 C 0.69693 0.66473 0.99428 0.0
C3154 C 0.72698 0.66391 0.97293 0.0
C3155 C 0.73005 0.67222 0.95892 0.0
C3156 C 0.73603 0.65898 0.97755 0.0
C3157 C 0.73396 0.65103 0.99287 0.0
C3158 C 0.73247 0.65631 0.00792 0.0
C3159 C 0.73043 0.64876 0.02229 0.0
C3160 C 0.72994 0.63594 0.0218 0.0
C3161 C 0.73151 0.63066 0.00694 0.0
C3162 C 0.73355 0.63817 0.99252 0.0
C3163 C 0.78444 0.68769 0.93011 0.0
C3164 C 0.78508 0.67628 0.92353 0.0
C3165 C 0.77315 0.68562 0.93977 0.0
C3166 C 0.7623 0.67211 0.94308 0.0
C3167 C 0.76293 0.66073 0.93661 0.0
C3168 C 0.77414 0.66278 0.92687 0.0
C3169 C 0.75025 0.66975 0.95328 0.0
C3170 C 0.74746 0.66185 0.96757 0.0
C3171 C 0.74152 0.67513 0.94898 0.0
C3172 C 0.7437 0.68323 0.9338 0.0
C3173 C 0.74391 0.67755 0.91849 0.0
C3174 C 0.74606 0.68529 0.90424 0.0
C3175 C 0.74791 0.69868 0.90514 0.0
C3176 C 0.74757 0.70434 0.92029 0.0
C3177 C 0.74543 0.69665 0.93457 0.0
H3178 H 0.74957 0.70465 0.8941 0.0
H3179 H 0.72835 0.6301 0.03295 0.0
H3180 H 0.98235 0.67185 0.98694 0.0
H3181 H 0.96742 0.67874 0.97267 0.0
H3182 H 0.93122 0.64408 0.99423 0.0
H3183 H 0.9461 0.63678 0.00777 0.0
H3184 H 0.92648 0.64419 0.96428 0.0
H3185 H 0.94413 0.68009 0.00474 0.0
H3186 H 0.9619 0.69952 0.02106 0.0
H3187 H 0.9788 0.72364 0.97746 0.0
H3188 H 0.96124 0.70427 0.96085 0.0
H3189 H 0.87807 0.66571 0.94229 0.0
H3190 H 0.89418 0.66194 0.95876 0.0
H3191 H 0.92718 0.68597 0.9247 0.0
H3192 H 0.911 0.68922 0.90757 0.0
H3193 H 0.9336 0.69191 0.96065 0.0
H3194 H 0.9151 0.65468 0.92074 0.0
H3195 H 0.89616 0.63516 0.90573 0.0
H3196 H 0.8795 0.61343 0.95084 0.0
H3197 H 0.89824 0.63293 0.96614 0.0
C3198 C 0.97122 0.66586 0.98885 0.0
C3199 C 0.96538 0.65377 0.99845 0.0
C3200 C 0.96267 0.66983 0.98073 0.0
C3201 C 0.94813 0.66201 0.98241 0.0
C3202 C 0.94237 0.65027 0.99261 0.0
C3203 C 0.95089 0.64613 1.00042 0.0
C3204 C 0.93885 0.66537 0.97268 0.0
C3205 C 0.92797 0.65461 0.96377 0.0
C3206 C 0.94087 0.67901 0.97159 0.0
C3207 C 0.95145 0.69067 0.98154 0.0
C3208 C 0.95171 0.6895 0.99862 0.0
C3209 C 0.96173 0.70051 0.00792 0.0
C3210 C 0.9715 0.71279 1.0003 0.0
C3211 C 0.97124 0.71411 0.98335 0.0
C3212 C 0.96124 0.70312 0.97398 0.0
C3213 C 0.88869 0.67007 0.9381 0.0
C3214 C 0.89313 0.67766 0.92342 0.0
C3215 C 0.89792 0.66802 0.94767 0.0
C3216 C 0.91183 0.67367 0.94292 0.0
C3217 C 0.91647 0.6816 0.9286 0.0
C3218 C 0.90719 0.68348 0.91886 0.0
C3219 C 0.92133 0.67072 0.95258 0.0
C3220 C 0.9322 0.68153 0.96134 0.0
C3221 C 0.91919 0.6571 0.95379 0.0
C3222 C 0.90799 0.64533 0.9446 0.0
C3223 C 0.90733 0.64579 0.92747 0.0
C3224 C 0.89664 0.63472 0.91891 0.0
C3225 C 0.88661 0.62307 0.92733 0.0
C3226 C 0.88727 0.62246 0.94433 0.0
C3227 C 0.89792 0.63352 0.95295 0.0
H3228 H 0.87834 0.61451 0.92068 0.0
H3229 H 0.97925 0.72131 0.00752 0.0
H3230 H 0.36828 0.31484 0.00906 0.0
H3231 H 0.36116 0.29268 0.99549 0.0
H3232 H 0.32619 0.2937 0.97411 0.0
H3233 H 0.33289 0.31555 0.98844 0.0
H3234 H 0.31859 0.26827 0.98049 0.0
H3235 H 0.35767 0.30436 0.95281 0.0
H3236 H 0.38127 0.32448 0.9497 0.0
H3237 H 0.39881 0.30002 0.96674 0.0
H3238 H 0.3753 0.27978 0.97017 0.0
H3239 H 0.31496 0.22533 0.91129 0.0
H3240 H 0.31849 0.24509 0.92806 0.0
H3241 H 0.34275 0.23653 0.96216 0.0
H3242 H 0.33863 0.21627 0.94612 0.0
H3243 H 0.35518 0.26555 0.9485 0.0
H3244 H 0.31416 0.229 0.97519 0.0
H3245 H 0.29004 0.20948 0.97559 0.0
H3246 H 0.27565 0.23605 0.95651 0.0
H3247 H 0.29973 0.25569 0.95577 0.0
C3248 C 0.35895 0.31022 1.00166 0.0
C3249 C 0.35119 0.31696 0.99969 0.0
C3250 C 0.35494 0.29761 0.99379 0.0
C3251 C 0.34337 0.29169 0.98333 0.0
C3252 C 0.33521 0.29807 0.982 0.0
C3253 C 0.33904 0.31056 0.9902 0.0
C3254 C 0.34017 0.27921 0.97333 0.0
C3255 C 0.32658 0.26778 0.97336 0.0
C3256 C 0.35055 0.27846 0.96397 0.0
C3257 C 0.36472 0.2906 0.9619 0.0
C3258 C 0.36656 0.3033 0.956 0.0
C3259 C 0.37992 0.31472 0.95417 0.0
C3260 C 0.39153 0.31354 0.95806 0.0
C3261 C 0.3898 0.30092 0.96375 0.0
C3262 C 0.37646 0.28947 0.96563 0.0
C3263 C 0.3208 0.22741 0.92252 0.0
C3264 C 0.32654 0.21913 0.92724 0.0
C3265 C 0.32288 0.23879 0.93202 0.0
C3266 C 0.33088 0.24223 0.9463 0.0
C3267 C 0.33659 0.23404 0.95111 0.0
C3268 C 0.33431 0.22252 0.94181 0.0
C3269 C 0.33375 0.25468 0.95593 0.0
C3270 C 0.34726 0.26612 0.95569 0.0
C3271 C 0.32324 0.25554 0.96472 0.0
C3272 C 0.30876 0.24377 0.96525 0.0
C3273 C 0.30587 0.23065 0.97093 0.0
C3274 C 0.2922 0.21957 0.97125 0.0
C3275 C 0.28132 0.22152 0.96603 0.0
C3276 C 0.28409 0.23455 0.96052 0.0
C3277 C 0.29774 0.24566 0.96016 0.0
H3278 H 0.27075 0.21293 0.96629 0.0
H3279 H 0.40186 0.32239 0.95662 0.0
H3280 H 0.69739 0.02779 0.00294 0.0
H3281 H 0.72046 0.04241 0.9909 0.0
H3282 H 0.70744 0.07069 0.97316 0.0
H3283 H 0.68471 0.0565 0.98559 0.0
H3284 H 0.72879 0.04887 0.96111 0.0
H3285 H 0.73333 0.10308 0.97064 0.0
H3286 H 0.72665 0.11503 0.99111 0.0
H3287 H 0.72575 0.08745 0.02838 0.0
H3288 H 0.7326 0.07546 0.00818 0.0
H3289 H 0.77594 0.09724 0.90429 0.0
H3290 H 0.75613 0.08194 0.92154 0.0
H3291 H 0.77928 0.10409 0.9644 0.0
H3292 H 0.79886 0.11974 0.94706 0.0
H3293 H 0.75502 0.10014 0.96751 0.0
H3294 H 0.77242 0.07009 0.95387 0.0
H3295 H 0.78083 0.05789 0.93604 0.0
H3296 H 0.7412 0.03671 0.91205 0.0
H3297 H 0.73261 0.04893 0.92958 0.0
C3298 C 0.69953 0.03723 0.99665 0.0
C3299 C 0.68925 0.04103 0.99534 0.0
C3300 C 0.7127 0.04555 0.98971 0.0
C3301 C 0.7158 0.05778 0.98129 0.0
C3302 C 0.70548 0.06152 0.97993 0.0
C3303 C 0.69242 0.05333 0.987 0.0
C3304 C 0.72958 0.06645 0.97337 0.0
C3305 C 0.73457 0.06008 0.96259 0.0
C3306 C 0.73736 0.08104 0.97557 0.0
C3307 C 0.73338 0.0883 0.98785 0.0
C3308 C 0.73178 0.09961 0.98321 0.0
C3309 C 0.72794 0.10638 0.99477 0.0
C3310 C 0.72574 0.10198 0.01103 0.0
C3311 C 0.72741 0.09082 0.01577 0.0
C3312 C 0.73125 0.08402 0.00427 0.0
C3313 C 0.7768 0.09874 0.91741 0.0
C3314 C 0.7889 0.10965 0.92436 0.0
C3315 C 0.76551 0.08996 0.92729 0.0
C3316 C 0.76623 0.09169 0.94436 0.0
C3317 C 0.77841 0.10252 0.95129 0.0
C3318 C 0.7896 0.11145 0.94139 0.0
C3319 C 0.75407 0.08262 0.95489 0.0
C3320 C 0.74935 0.08893 0.96614 0.0
C3321 C 0.74681 0.06793 0.95351 0.0
C3322 C 0.75191 0.06051 0.94297 0.0
C3323 C 0.76553 0.0629 0.94472 0.0
C3324 C 0.77032 0.05597 0.93467 0.0
C3325 C 0.76156 0.04655 0.9229 0.0
C3326 C 0.74798 0.04402 0.92117 0.0
C3327 C 0.74313 0.05093 0.93117 0.0
H3328 H 0.7653 0.0412 0.91513 0.0
H3329 H 0.72277 0.10723 0.01995 0.0
H3330 H 0.67389 0.9802 0.03168 0.0
H3331 H 0.68105 0.96519 0.04547 0.0
H3332 H 0.63813 0.93297 0.0495 0.0
H3333 H 0.63092 0.94784 0.03593 0.0
H3334 H 0.6513 0.93799 0.07839 0.0
H3335 H 0.66016 0.93021 0.0227 0.0
H3336 H 0.67078 0.9372 0.99537 0.0
H3337 H 0.71148 0.95557 0.01667 0.0
H3338 H 0.70109 0.94885 0.04416 0.0
H3339 H 0.65482 0.87953 0.10316 0.0
H3340 H 0.65119 0.89591 0.08707 0.0
H3341 H 0.69535 0.92456 0.08667 0.0
H3342 H 0.69908 0.90817 0.10291 0.0
H3343 H 0.68367 0.92316 0.05681 0.0
H3344 H 0.67509 0.93017 0.1122 0.0
H3345 H 0.66474 0.92331 0.13966 0.0
H3346 H 0.62393 0.90697 0.11923 0.0
H3347 H 0.63403 0.91355 0.0916 0.0
C3348 C 0.666 0.96985 0.03531 0.0
C3349 C 0.65183 0.96524 0.03276 0.0
C3350 C 0.67011 0.96127 0.04317 0.0
C3351 C 0.66012 0.94795 0.04853 0.0
C3352 C 0.64602 0.94323 0.04555 0.0
C3353 C 0.64192 0.95175 0.03773 0.0
C3354 C 0.66413 0.93911 0.05802 0.0
C3355 C 0.65826 0.93463 0.07358 0.0
C3356 C 0.6736 0.93513 0.05201 0.0
C3357 C 0.67985 0.93917 0.0355 0.0
C3358 C 0.67137 0.93586 0.02157 0.0
C3359 C 0.67735 0.93974 0.00605 0.0
C3360 C 0.69179 0.94686 0.00429 0.0
C3361 C 0.70029 0.95008 0.01805 0.0
C3362 C 0.69436 0.94623 0.0336 0.0
C3363 C 0.66377 0.88934 0.09975 0.0
C3364 C 0.67723 0.89261 0.10449 0.0
C3365 C 0.66168 0.89868 0.0905 0.0
C3366 C 0.67298 0.91155 0.08588 0.0
C3367 C 0.68648 0.91469 0.09013 0.0
C3368 C 0.68859 0.90531 0.09938 0.0
C3369 C 0.67055 0.92179 0.07698 0.0
C3370 C 0.67676 0.92659 0.06162 0.0
C3371 C 0.66143 0.92615 0.08319 0.0
C3372 C 0.65532 0.92226 0.09981 0.0
C3373 C 0.6639 0.92503 0.11355 0.0
C3374 C 0.65808 0.9212 0.12915 0.0
C3375 C 0.64369 0.91468 0.13119 0.0
C3376 C 0.63508 0.91201 0.11763 0.0
C3377 C 0.64085 0.9158 0.102 0.0
H3378 H 0.6392 0.91172 0.14327 0.0
H3379 H 0.6964 0.94986 0.99226 0.0
H3380 H 0.05814 0.68814 0.02929 0.0
H3381 H 0.07261 0.71002 0.04354 0.0
H3382 H 0.03849 0.71814 0.04445 0.0
H3383 H 0.02383 0.69613 0.03007 0.0
H3384 H 0.06468 0.74218 0.03823 0.0
H3385 H 0.0438 0.70515 0.07717 0.0
H3386 H 0.03724 0.68216 0.08862 0.0
H3387 H 0.0803 0.69409 0.09305 0.0
H3388 H 0.08712 0.71709 0.08138 0.0
H3389 H 0.095 0.79287 0.10246 0.0
H3390 H 0.07919 0.77314 0.08533 0.0
H3391 H 0.1082 0.758 0.08579 0.0
H3392 H 0.12397 0.77761 0.10291 0.0
H3393 H 0.08283 0.73751 0.09177 0.0
H3394 H 0.10381 0.77418 0.05197 0.0
H3395 H 0.11054 0.7971 0.04015 0.0
H3396 H 0.06761 0.78599 0.03723 0.0
H3397 H 0.06064 0.76306 0.04924 0.0
C3398 C 0.05372 0.69464 0.03228 0.0
C3399 C 0.03977 0.69031 0.02867 0.0
C3400 C 0.06202 0.70714 0.04047 0.0
C3401 C 0.05656 0.71559 0.04528 0.0
C3402 C 0.04288 0.71173 0.04089 0.0
C3403 C 0.03452 0.69916 0.03269 0.0
C3404 C 0.06491 0.72791 0.0558 0.0
C3405 C 0.06849 0.74118 0.05005 0.0
C3406 C 0.07003 0.72659 0.07112 0.0
C3407 C 0.06596 0.7128 0.07827 0.0
C3408 C 0.05187 0.70284 0.08047 0.0
C3409 C 0.0481 0.68981 0.08701 0.0
C3410 C 0.05834 0.68665 0.09152 0.0
C3411 C 0.07237 0.69654 0.08953 0.0
C3412 C 0.0762 0.70958 0.08297 0.0
C3413 C 0.09806 0.7854 0.09877 0.0
C3414 C 0.11072 0.78678 0.10411 0.0
C3415 C 0.08901 0.77413 0.08897 0.0
C3416 C 0.09253 0.76411 0.08417 0.0
C3417 C 0.10522 0.76555 0.0894 0.0
C3418 C 0.11421 0.77674 0.09923 0.0
C3419 C 0.08291 0.75189 0.07409 0.0
C3420 C 0.07901 0.73858 0.07998 0.0
C3421 C 0.07755 0.75321 0.05892 0.0
C3422 C 0.08172 0.76697 0.05167 0.0
C3423 C 0.09581 0.77667 0.04893 0.0
C3424 C 0.09967 0.78965 0.04217 0.0
C3425 C 0.08951 0.79301 0.03799 0.0
C3426 C 0.07547 0.78338 0.0405 0.0
C3427 C 0.07156 0.77039 0.04727 0.0
H3428 H 0.09251 0.80307 0.03276 0.0
H3429 H 0.0554 0.67656 0.09659 0.0
H3430 H 0.30813 0.33149 0.029 0.0
H3431 H 0.28511 0.32254 0.0414 0.0
H3432 H 0.29372 0.36453 0.04941 0.0
H3433 H 0.31643 0.37348 0.03669 0.0
H3434 H 0.27816 0.32481 0.0711 0.0
H3435 H 0.26501 0.36685 0.04917 0.0
H3436 H 0.26833 0.3811 0.02471 0.0
H3437 H 0.27184 0.35113 0.99489 0.0
H3438 H 0.26836 0.3366 0.01912 0.0
H3439 H 0.23127 0.32942 0.12516 0.0
H3440 H 0.25059 0.3336 0.10737 0.0
H3441 H 0.22316 0.32016 0.06572 0.0
H3442 H 0.20394 0.31677 0.08329 0.0
H3443 H 0.24586 0.34204 0.05772 0.0
H3444 H 0.23553 0.29952 0.08307 0.0
H3445 H 0.23081 0.28317 0.10574 0.0
H3446 H 0.27153 0.31006 0.12521 0.0
H3447 H 0.27643 0.32667 0.10277 0.0
C3448 C 0.30501 0.3388 0.03317 0.0
C3449 C 0.31411 0.3532 0.0318 0.0
C3450 C 0.29188 0.33367 0.04032 0.0
C3451 C 0.28759 0.34284 0.04622 0.0
C3452 C 0.29662 0.35722 0.04466 0.0
C3453 C 0.30967 0.36233 0.03743 0.0
C3454 C 0.27404 0.33753 0.05479 0.0
C3455 C 0.27105 0.32851 0.0681 0.0
C3456 C 0.26457 0.34207 0.05069 0.0
C3457 C 0.26653 0.35069 0.036 0.0
C3458 C 0.26642 0.36326 0.03738 0.0
C3459 C 0.26835 0.3714 0.02356 0.0
C3460 C 0.27033 0.36704 0.00826 0.0
C3461 C 0.27035 0.35451 0.00675 0.0
C3462 C 0.26842 0.34633 0.02053 0.0
C3463 C 0.22933 0.32746 0.1122 0.0
C3464 C 0.21598 0.32276 0.10571 0.0
C3465 C 0.24038 0.32967 0.10205 0.0
C3466 C 0.23833 0.327 0.0852 0.0
C3467 C 0.22502 0.32224 0.07868 0.0
C3468 C 0.21398 0.32017 0.0888 0.0
C3469 C 0.25018 0.32966 0.07433 0.0
C3470 C 0.25287 0.33821 0.06062 0.0
C3471 C 0.25917 0.32438 0.0778 0.0
C3472 C 0.25631 0.31439 0.09128 0.0
C3473 C 0.24344 0.30199 0.09224 0.0
C3474 C 0.24074 0.29267 0.10504 0.0
C3475 C 0.25086 0.29559 0.11692 0.0
C3476 C 0.26371 0.30781 0.116 0.0
C3477 C 0.26646 0.31718 0.10323 0.0
H3478 H 0.24874 0.28836 0.12683 0.0
H3479 H 0.27183 0.37336 0.99757 0.0
H3480 H 0.72596 0.70905 0.36957 0.0
H3481 H 0.74054 0.70139 0.38289 0.0
H3482 H 0.70797 0.65867 0.37798 0.0
H3483 H 0.6931 0.66633 0.36485 0.0
H3484 H 0.71842 0.66357 0.4081 0.0
H3485 H 0.73764 0.67191 0.35448 0.0
H3486 H 0.74741 0.68491 0.32893 0.0
H3487 H 0.78167 0.71713 0.35556 0.0
H3488 H 0.77201 0.70442 0.38131 0.0
H3489 H 0.76441 0.63924 0.4339 0.0
H3490 H 0.74862 0.64372 0.41763 0.0
H3491 H 0.77554 0.68782 0.42419 0.0
H3492 H 0.79113 0.68348 0.44096 0.0
H3493 H 0.76723 0.68008 0.39167 0.0
H3494 H 0.74684 0.67227 0.44541 0.0
H3495 H 0.73703 0.65912 0.47086 0.0
H3496 H 0.70489 0.62539 0.44348 0.0
H3497 H 0.71463 0.63828 0.41782 0.0
C3498 C 0.72191 0.698 0.37113 0.0
C3499 C 0.70836 0.6883 0.3661 0.0
C3500 C 0.73031 0.69363 0.37871 0.0
C3501 C 0.72543 0.67944 0.38129 0.0
C3502 C 0.71197 0.66968 0.37609 0.0
C3503 C 0.70351 0.67407 0.36852 0.0
C3504 C 0.73425 0.67496 0.39008 0.0
C3505 C 0.729 0.66694 0.40431 0.0
C3506 C 0.74815 0.67957 0.38533 0.0
C3507 C 0.75403 0.68725 0.36985 0.0
C3508 C 0.7472 0.68182 0.35491 0.0
C3509 C 0.75274 0.68913 0.34039 0.0
C3510 C 0.76514 0.70185 0.34063 0.0
C3511 C 0.77206 0.70728 0.35539 0.0
C3512 C 0.76657 0.70001 0.36996 0.0
C3513 C 0.7669 0.6499 0.43211 0.0
C3514 C 0.77909 0.661 0.4388 0.0
C3515 C 0.75789 0.65243 0.42271 0.0
C3516 C 0.76091 0.6661 0.41973 0.0
C3517 C 0.77307 0.67719 0.42627 0.0
C3518 C 0.78201 0.67468 0.4358 0.0
C3519 C 0.75144 0.66889 0.40974 0.0
C3520 C 0.75659 0.67658 0.39531 0.0
C3521 C 0.73744 0.66393 0.41426 0.0
C3522 C 0.73157 0.65617 0.42967 0.0
C3523 C 0.73776 0.662 0.4448 0.0
C3524 C 0.73219 0.6546 0.45927 0.0
C3525 C 0.72037 0.64141 0.45879 0.0
C3526 C 0.71406 0.6356 0.44383 0.0
C3527 C 0.7196 0.64295 0.42932 0.0
H3528 H 0.71607 0.6357 0.47 0.0
H3529 H 0.76941 0.7075 0.32937 0.0
H3530 H 0.33932 0.02661 0.36466 0.0
H3531 H 0.34728 0.04927 0.37767 0.0
H3532 H 0.30489 0.04052 0.38092 0.0
H3533 H 0.29692 0.01811 0.36772 0.0
H3534 H 0.32146 0.06682 0.37251 0.0
H3535 H 0.32164 0.03574 0.41362 0.0
H3536 H 0.32844 0.01962 0.42548 0.0
H3537 H 0.37136 0.05157 0.42403 0.0
H3538 H 0.36481 0.06784 0.41195 0.0
H3539 H 0.32095 0.10802 0.43776 0.0
H3540 H 0.31779 0.08887 0.42014 0.0
H3541 H 0.36211 0.10525 0.41935 0.0
H3542 H 0.36534 0.12437 0.4373 0.0
H3543 H 0.3476 0.07703 0.42458 0.0
H3544 H 0.34661 0.10895 0.38638 0.0
H3545 H 0.33918 0.12485 0.37534 0.0
H3546 H 0.29717 0.09109 0.37192 0.0
H3547 H 0.30432 0.07502 0.38316 0.0
C3548 C 0.33172 0.0296 0.36797 0.0
C3549 C 0.31748 0.02052 0.36523 0.0
C3550 C 0.33628 0.04252 0.37549 0.0
C3551 C 0.32667 0.04653 0.38049 0.0
C3552 C 0.31251 0.03768 0.3772 0.0
C3553 C 0.30796 0.02482 0.36968 0.0
C3554 C 0.33113 0.05965 0.38972 0.0
C3555 C 0.32711 0.06901 0.38393 0.0
C3556 C 0.33881 0.06271 0.40444 0.0
C3557 C 0.34275 0.05295 0.4117 0.0
C3558 C 0.33253 0.03929 0.41571 0.0
C3559 C 0.33634 0.03013 0.42249 0.0
C3560 C 0.35033 0.03455 0.42546 0.0
C3561 C 0.36053 0.04816 0.42169 0.0
C3562 C 0.35678 0.05735 0.41488 0.0
C3563 C 0.33003 0.10751 0.43394 0.0
C3564 C 0.3434 0.11771 0.43895 0.0
C3565 C 0.32822 0.09663 0.42373 0.0
C3566 C 0.33973 0.09572 0.41828 0.0
C3567 C 0.35309 0.1058 0.42336 0.0
C3568 C 0.35492 0.11675 0.43352 0.0
C3569 C 0.33767 0.08404 0.40753 0.0
C3570 C 0.34213 0.07495 0.41303 0.0
C3571 C 0.33033 0.08119 0.3926 0.0
C3572 C 0.326 0.0908 0.38573 0.0
C3573 C 0.33577 0.10493 0.38338 0.0
C3574 C 0.33161 0.11397 0.37707 0.0
C3575 C 0.31771 0.10898 0.37296 0.0
C3576 C 0.30794 0.09494 0.37512 0.0
C3577 C 0.31205 0.08586 0.38144 0.0
H3578 H 0.31451 0.116 0.36808 0.0
H3579 H 0.35326 0.02745 0.43071 0.0
H3580 H 0.97405 0.31225 0.36254 0.0
H3581 H 0.95138 0.29743 0.37539 0.0
H3582 H 0.96302 0.26641 0.38506 0.0
H3583 H 0.98537 0.2809 0.37189 0.0
H3584 H 0.93725 0.25396 0.37634 0.0
H3585 H 0.96524 0.2903 0.41459 0.0
H3586 H 0.97957 0.31453 0.42397 0.0
H3587 H 0.94536 0.3216 0.41627 0.0
H3588 H 0.93087 0.29744 0.40665 0.0
H3589 H 0.897 0.23607 0.45842 0.0
H3590 H 0.9169 0.25166 0.44163 0.0
H3591 H 0.89119 0.23753 0.39852 0.0
H3592 H 0.87137 0.22138 0.41514 0.0
H3593 H 0.9231 0.27295 0.42281 0.0
H3594 H 0.91044 0.2374 0.36621 0.0
H3595 H 0.89793 0.21241 0.35931 0.0
H3596 H 0.90456 0.20251 0.40794 0.0
H3597 H 0.91725 0.22743 0.41505 0.0
C3598 C 0.97169 0.3022 0.36724 0.0
C3599 C 0.98155 0.29779 0.36626 0.0
C3600 C 0.95876 0.29376 0.37466 0.0
C3601 C 0.95554 0.28086 0.38142 0.0
C3602 C 0.96522 0.27629 0.37994 0.0
C3603 C 0.97805 0.28463 0.37243 0.0
C3604 C 0.94239 0.27225 0.39059 0.0
C3605 C 0.93411 0.25816 0.38641 0.0
C3606 C 0.93836 0.27761 0.40393 0.0
C3607 C 0.94704 0.29212 0.40972 0.0
C3608 C 0.96081 0.29706 0.41479 0.0
C3609 C 0.96896 0.31077 0.42016 0.0
C3610 C 0.96339 0.31962 0.42067 0.0
C3611 C 0.94966 0.31475 0.41584 0.0
C3612 C 0.94148 0.30105 0.41043 0.0
C3613 C 0.89558 0.23617 0.44535 0.0
C3614 C 0.88259 0.22732 0.43814 0.0
C3615 C 0.90695 0.24522 0.43577 0.0
C3616 C 0.90561 0.24568 0.41877 0.0
C3617 C 0.89254 0.23723 0.41158 0.0
C3618 C 0.88117 0.22809 0.42115 0.0
C3619 C 0.91802 0.25466 0.4086 0.0
C3620 C 0.92614 0.26881 0.41258 0.0
C3621 C 0.92214 0.24926 0.39538 0.0
C3622 C 0.91463 0.23426 0.3912 0.0
C3623 C 0.90925 0.22988 0.37541 0.0
C3624 C 0.90213 0.21574 0.37147 0.0
C3625 C 0.9004 0.20588 0.3832 0.0
C3626 C 0.90585 0.21015 0.39888 0.0
C3627 C 0.91299 0.22428 0.40288 0.0
H3628 H 0.89488 0.19493 0.38013 0.0
H3629 H 0.96971 0.33023 0.42484 0.0
H3630 H 0.04098 0.39194 0.32981 0.0
H3631 H 0.03364 0.40671 0.31622 0.0
H3632 H 0.99137 0.37274 0.31523 0.0
H3633 H 0.99869 0.35775 0.32877 0.0
H3634 H 0.99947 0.38535 0.28564 0.0
H3635 H 1.00035 0.40005 0.34068 0.0
H3636 H 0.01012 0.40821 0.36816 0.0
H3637 H 0.04381 0.44528 0.3475 0.0
H3638 H 0.03435 0.43725 0.31985 0.0
H3639 H 0.97536 0.43018 0.25549 0.0
H3640 H 0.97854 0.41398 0.2728 0.0
H3641 H 0.02239 0.44349 0.27612 0.0
H3642 H 0.01927 0.45974 0.25899 0.0
H3643 H 0.01095 0.43203 0.30594 0.0
H3644 H 0.0115 0.4165 0.25114 0.0
H3645 H 0.0023 0.40848 0.2234 0.0
H3646 H 0.96631 0.37316 0.24355 0.0
H3647 H 0.97522 0.38108 0.27144 0.0
C3648 C 0.03008 0.38762 0.32689 0.0
C3649 C 0.02041 0.37366 0.3304 0.0
C3650 C 0.02589 0.39611 0.31916 0.0
C3651 C 0.01193 0.39088 0.31482 0.0
C3652 C 0.00219 0.377 0.31851 0.0
C3653 C 0.00637 0.36847 0.32631 0.0
C3654 C 0.00777 0.3998 0.30573 0.0
C3655 C 0.0017 0.39543 0.29023 0.0
C3656 C 0.01098 0.41309 0.31155 0.0
C3657 C 0.01669 0.41799 0.32817 0.0
C3658 C 0.0099 0.40989 0.34198 0.0
C3659 C 0.01537 0.4145 0.35759 0.0
C3660 C 0.02759 0.42724 0.35957 0.0
C3661 C 0.03435 0.43541 0.34594 0.0
C3662 C 0.02892 0.43084 0.3303 0.0
C3663 C 0.98566 0.43323 0.26001 0.0
C3664 C 0.99708 0.4462 0.25582 0.0
C3665 C 0.98747 0.42395 0.26981 0.0
C3666 C 1.00072 0.4275 0.27566 0.0
C3667 C 0.01208 0.44053 0.27172 0.0
C3668 C 0.0103 0.44976 0.26183 0.0
C3669 C 0.00283 0.41765 0.28581 0.0
C3670 C 0.00853 0.42186 0.30147 0.0
C3671 C 0.99933 0.40425 0.28012 0.0
C3672 C 0.99395 0.39947 0.26338 0.0
C3673 C 1.00156 0.40709 0.24966 0.0
C3674 C 0.99641 0.40255 0.23391 0.0
C3675 C 0.9837 0.39035 0.23172 0.0
C3676 C 0.97614 0.38263 0.24527 0.0
C3677 C 0.98124 0.38714 0.26105 0.0
H3678 H 0.97974 0.38685 0.21952 0.0
H3679 H 0.03181 0.43079 0.37167 0.0
H3680 H 0.61465 0.65048 0.331 0.0
H3681 H 0.60024 0.62787 0.31827 0.0
H3682 H 0.63503 0.62074 0.31782 0.0
H3683 H 0.64966 0.64357 0.33048 0.0
H3684 H 0.62218 0.61504 0.2884 0.0
H3685 H 0.60795 0.60245 0.34364 0.0
H3686 H 0.59982 0.60448 0.37102 0.0
H3687 H 0.56223 0.59975 0.35024 0.0
H3688 H 0.57021 0.59789 0.3227 0.0
H3689 H 0.57761 0.54568 0.25896 0.0
H3690 H 0.59378 0.56512 0.27629 0.0
H3691 H 0.56424 0.57951 0.27942 0.0
H3692 H 0.54803 0.56008 0.26229 0.0
H3693 H 0.5758 0.57986 0.30925 0.0
H3694 H 0.59114 0.59515 0.25413 0.0
H3695 H 0.59917 0.59352 0.22653 0.0
H3696 H 0.63459 0.59331 0.24712 0.0
H3697 H 0.62667 0.59476 0.27488 0.0
C3698 C 0.61923 0.64406 0.3284 0.0
C3699 C 0.63331 0.64884 0.33177 0.0
C3700 C 0.61094 0.63108 0.32116 0.0
C3701 C 0.6165 0.62254 0.31721 0.0
C3702 C 0.63051 0.62715 0.32081 0.0
C3703 C 0.63883 0.64017 0.32811 0.0
C3704 C 0.60779 0.60917 0.30852 0.0
C3705 C 0.61218 0.6072 0.29313 0.0
C3706 C 0.59461 0.59906 0.31452 0.0
C3707 C 0.58973 0.60013 0.33108 0.0
C3708 C 0.59799 0.60195 0.34489 0.0
C3709 C 0.5934 0.60305 0.36045 0.0
C3710 C 0.58053 0.60227 0.36237 0.0
C3711 C 0.5722 0.60035 0.34874 0.0
C3712 C 0.57675 0.59926 0.33315 0.0
C3713 C 0.57454 0.55294 0.26346 0.0
C3714 C 0.56159 0.55141 0.2592 0.0
C3715 C 0.58381 0.56407 0.27326 0.0
C3716 C 0.58024 0.57381 0.27905 0.0
C3717 C 0.56721 0.57213 0.27507 0.0
C3718 C 0.55801 0.56109 0.26518 0.0
C3719 C 0.5901 0.58589 0.28907 0.0
C3720 C 0.58592 0.5876 0.30467 0.0
C3721 C 0.60345 0.59577 0.28326 0.0
C3722 C 0.60822 0.59489 0.26659 0.0
C3723 C 0.60057 0.59463 0.25278 0.0
C3724 C 0.60512 0.59376 0.23711 0.0
C3725 C 0.61735 0.59326 0.23507 0.0
C3726 C 0.62509 0.59367 0.24871 0.0
C3727 C 0.62059 0.59452 0.26442 0.0
H3728 H 0.62086 0.5926 0.22293 0.0
H3729 H 0.57699 0.60312 0.37442 0.0
H3730 H 0.36097 0.00373 0.32983 0.0
H3731 H 0.38273 0.0109 0.31498 0.0
H3732 H 0.37281 0.96814 0.31197 0.0
H3733 H 0.35115 0.9609 0.32667 0.0
H3734 H 0.40583 0.00781 0.31996 0.0
H3735 H 0.38065 0.96238 0.27361 0.0
H3736 H 0.35772 0.9471 0.2612 0.0
H3737 H 0.34639 0.97847 0.26857 0.0
H3738 H 0.36932 0.99401 0.28079 0.0
H3739 H 0.45676 0.99962 0.27642 0.0
H3740 H 0.43665 0.99603 0.2925 0.0
H3741 H 0.4223 0.01032 0.25204 0.0
H3742 H 0.44219 0.01359 0.23572 0.0
H3743 H 0.40147 0.98724 0.26486 0.0
H3744 H 0.43704 0.03098 0.28518 0.0
H3745 H 0.45992 0.04755 0.2968 0.0
H3746 H 0.45052 0.02229 0.33976 0.0
H3747 H 0.42766 0.00546 0.32829 0.0
C3748 C 0.36352 0.99588 0.3262 0.0
C3749 C 0.35427 0.98174 0.32933 0.0
C3750 C 0.37596 1.0 0.31773 0.0
C3751 C 0.37927 0.99003 0.31216 0.0
C3752 C 0.37036 0.97598 0.31594 0.0
C3753 C 0.35799 0.97188 0.32441 0.0
C3754 C 0.39166 0.9941 0.30171 0.0
C3755 C 0.4049 0.00333 0.30791 0.0
C3756 C 0.39041 0.98848 0.28585 0.0
C3757 C 0.37666 0.9793 0.27826 0.0
C3758 C 0.37329 0.96604 0.27251 0.0
C3759 C 0.36029 0.95733 0.26552 0.0
C3760 C 0.35059 0.96179 0.26414 0.0
C3761 C 0.35389 0.975 0.26969 0.0
C3762 C 0.36689 0.98376 0.27667 0.0
C3763 C 0.44928 0.00192 0.2709 0.0
C3764 C 0.45108 0.00688 0.25477 0.0
C3765 C 0.43786 1.0 0.28018 0.0
C3766 C 0.42804 0.00305 0.27355 0.0
C3767 C 0.42978 0.00796 0.25744 0.0
C3768 C 0.44121 0.00991 0.24816 0.0
C3769 C 0.41572 1.0007 0.28324 0.0
C3770 C 0.40245 0.99177 0.27689 0.0
C3771 C 0.41696 0.00677 0.29884 0.0
C3772 C 0.43068 0.0169 0.30581 0.0
C3773 C 0.43989 0.0289 0.29705 0.0
C3774 C 0.45285 0.03835 0.30362 0.0
C3775 C 0.45668 0.03595 0.31899 0.0
C3776 C 0.44755 0.02412 0.32785 0.0
C3777 C 0.43458 0.01463 0.32133 0.0
H3778 H 0.46672 0.04328 0.32406 0.0
H3779 H 0.34052 0.95503 0.25874 0.0
H3780 H 0.64787 0.00283 0.32289 0.0
H3781 H 0.63246 0.00904 0.30856 0.0
H3782 H 0.5968 0.97312 0.32904 0.0
H3783 H 0.61219 0.96651 0.34266 0.0
H3784 H 0.59232 0.97358 0.29903 0.0
H3785 H 0.608 0.0086 0.34039 0.0
H3786 H 0.62494 0.02803 0.35742 0.0
H3787 H 0.64199 0.05327 0.31463 0.0
H3788 H 0.62527 0.03392 0.29731 0.0
H3789 H 0.54283 0.99357 0.27547 0.0
H3790 H 0.55865 0.98966 0.29232 0.0
H3791 H 0.59263 0.01554 0.26027 0.0
H3792 H 0.5768 0.01894 0.24273 0.0
H3793 H 0.59769 0.02063 0.29622 0.0
H3794 H 0.5813 0.98422 0.25538 0.0
H3795 H 0.56319 0.96461 0.2396 0.0
H3796 H 0.54603 0.94176 0.28394 0.0
H3797 H 0.56394 0.96134 0.30001 0.0
C3798 C 0.63675 0.99641 0.32456 0.0
C3799 C 0.63123 0.98418 0.33389 0.0
C3800 C 0.62792 0.99999 0.31639 0.0
C3801 C 0.6134 0.99163 0.31776 0.0
C3802 C 0.60793 0.97972 0.32767 0.0
C3803 C 0.61674 0.97598 0.33554 0.0
C3804 C 0.60389 0.99466 0.30799 0.0
C3805 C 0.59341 0.98384 0.29871 0.0
C3806 C 0.60538 0.0081 0.30716 0.0
C3807 C 0.61546 0.01976 0.31754 0.0
C3808 C 0.61543 0.01826 0.3346 0.0
C3809 C 0.62498 0.02926 0.3443 0.0
C3810 C 0.63456 0.04186 0.3371 0.0
C3811 C 0.63458 0.04349 0.32018 0.0
C3812 C 0.62506 0.03252 0.31042 0.0
C3813 C 0.55361 0.99829 0.27178 0.0
C3814 C 0.55844 0.00651 0.25757 0.0
C3815 C 0.56267 0.99615 0.28157 0.0
C3816 C 0.57679 0.00233 0.27753 0.0
C3817 C 0.58177 0.01077 0.26364 0.0
C3818 C 0.57268 0.01274 0.25367 0.0
C3819 C 0.58624 0.99955 0.28755 0.0
C3820 C 0.59667 0.0104 0.29675 0.0
C3821 C 0.58458 0.98611 0.28856 0.0
C3822 C 0.57387 0.9743 0.2789 0.0
C3823 C 0.57359 0.97507 0.26177 0.0
C3824 C 0.56338 0.96395 0.25278 0.0
C3825 C 0.55344 0.95196 0.26077 0.0
C3826 C 0.55372 0.95106 0.27777 0.0
C3827 C 0.56391 0.96216 0.28683 0.0
H3828 H 0.54554 0.94337 0.25378 0.0
H3829 H 0.64194 0.05037 0.34464 0.0
H3830 H 0.04497 0.65386 0.3249 0.0
H3831 H 0.03719 0.63177 0.31103 0.0
H3832 H 0.99452 0.62004 0.32083 0.0
H3833 H 0.00228 0.64242 0.33444 0.0
H3834 H 0.02359 0.60569 0.31901 0.0
H3835 H 0.97441 0.60061 0.28868 0.0
H3836 H 0.96505 0.61553 0.2797 0.0
H3837 H 0.00652 0.64968 0.27321 0.0
H3838 H 0.0161 0.63492 0.28195 0.0
H3839 H 0.99043 0.54086 0.27786 0.0
H3840 H 0.99395 0.56031 0.29518 0.0
H3841 H 0.00654 0.58715 0.25305 0.0
H3842 H 0.00237 0.56762 0.23554 0.0
H3843 H 0.99122 0.59306 0.27214 0.0
H3844 H 0.03048 0.58649 0.27954 0.0
H3845 H 0.04237 0.57337 0.28611 0.0
H3846 H 0.02512 0.56563 0.3345 0.0
H3847 H 0.01297 0.57857 0.32813 0.0
C3848 C 0.03392 0.64656 0.32425 0.0
C3849 C 0.02424 0.64996 0.33068 0.0
C3850 C 0.02948 0.63388 0.31634 0.0
C3851 C 0.01526 0.62428 0.31468 0.0
C3852 C 0.00555 0.62738 0.3217 0.0
C3853 C 0.00999 0.64014 0.32956 0.0
C3854 C 0.01077 0.61136 0.30503 0.0
C3855 C 0.01642 0.60287 0.30886 0.0
C3856 C 1.0016 0.60777 0.29157 0.0
C3857 C 0.99596 0.61671 0.28617 0.0
C3858 C 0.98152 0.61129 0.28531 0.0
C3859 C 0.97618 0.61972 0.28026 0.0
C3860 C 0.98519 0.63356 0.27595 0.0
C3861 C 0.99955 0.63898 0.27662 0.0
C3862 C 0.00494 0.6306 0.28163 0.0
C3863 C 0.9937 0.55083 0.27221 0.0
C3864 C 0.99621 0.55267 0.25528 0.0
C3865 C 0.99585 0.56199 0.28218 0.0
C3866 C 1.00072 0.57526 0.27547 0.0
C3867 C 0.00283 0.57703 0.25853 0.0
C3868 C 1.00059 0.56587 0.24855 0.0
C3869 C 0.0041 0.58743 0.2861 0.0
C3870 C 0.99823 0.59576 0.28246 0.0
C3871 C 0.01339 0.59111 0.29943 0.0
C3872 C 0.0207 0.58336 0.3033 0.0
C3873 C 0.02914 0.5819 0.29154 0.0
C3874 C 0.03593 0.57452 0.29523 0.0
C3875 C 0.03446 0.56864 0.3107 0.0
C3876 C 0.02622 0.57017 0.32252 0.0
C3877 C 0.01939 0.57753 0.31888 0.0
H3878 H 0.03974 0.56293 0.31354 0.0
H3879 H 0.98103 0.64007 0.27206 0.0
H3880 H 0.36245 0.35853 0.33012 0.0
H3881 H 0.38469 0.37337 0.31635 0.0
H3882 H 0.37316 0.40478 0.30934 0.0
H3883 H 0.35101 0.39006 0.32287 0.0
H3884 H 0.38212 0.39922 0.28136 0.0
H3885 H 0.39761 0.40882 0.33743 0.0
H3886 H 0.40087 0.40273 0.36538 0.0
H3887 H 0.42426 0.38448 0.34655 0.0
H3888 H 0.42097 0.39031 0.31846 0.0
H3889 H 0.4439 0.45839 0.25749 0.0
H3890 H 0.42364 0.44177 0.27308 0.0
H3891 H 0.44003 0.41383 0.27502 0.0
H3892 H 0.46034 0.43039 0.25916 0.0
H3893 H 0.429 0.41564 0.30465 0.0
H3894 H 0.41473 0.40703 0.24891 0.0
H3895 H 0.41165 0.41305 0.22085 0.0
H3896 H 0.3859 0.42891 0.23881 0.0
H3897 H 0.38899 0.42316 0.26702 0.0
C3898 C 0.36474 0.36867 0.32582 0.0
C3899 C 0.35493 0.37309 0.32755 0.0
C3900 C 0.37746 0.37715 0.31798 0.0
C3901 C 0.38059 0.39019 0.31181 0.0
C3902 C 0.37095 0.39473 0.31392 0.0
C3903 C 0.35829 0.3863 0.32172 0.0
C3904 C 0.39356 0.39894 0.30245 0.0
C3905 C 0.39237 0.40292 0.28654 0.0
C3906 C 0.40693 0.40337 0.30896 0.0
C3907 C 0.4089 0.39986 0.32583 0.0
C3908 C 0.40334 0.4034 0.33924 0.0
C3909 C 0.40522 0.40002 0.35511 0.0
C3910 C 0.41273 0.39318 0.35774 0.0
C3911 C 0.41842 0.38975 0.3445 0.0
C3912 C 0.41656 0.3931 0.3286 0.0
C3913 C 0.44317 0.44867 0.2611 0.0
C3914 C 0.45368 0.44566 0.2569 0.0
C3915 C 0.43161 0.4392 0.27008 0.0
C3916 C 0.43024 0.42649 0.27502 0.0
C3917 C 0.44088 0.42359 0.2713 0.0
C3918 C 0.45248 0.43307 0.26227 0.0
C3919 C 0.41752 0.41618 0.28377 0.0
C3920 C 0.41875 0.41186 0.29947 0.0
C3921 C 0.40414 0.41136 0.27707 0.0
C3922 C 0.40219 0.41476 0.2601 0.0
C3923 C 0.40849 0.41189 0.24689 0.0
C3924 C 0.40673 0.41524 0.23096 0.0
C3925 C 0.39861 0.42138 0.22805 0.0
C3926 C 0.3922 0.42416 0.24108 0.0
C3927 C 0.39394 0.42084 0.25704 0.0
H3928 H 0.39726 0.42397 0.21571 0.0
H3929 H 0.41417 0.39057 0.37003 0.0
H3930 H 0.33777 0.31022 0.36539 0.0
H3931 H 0.34472 0.29498 0.37901 0.0
H3932 H 0.3016 0.26393 0.38534 0.0
H3933 H 0.29461 0.27907 0.37199 0.0
H3934 H 0.31551 0.2689 0.41341 0.0
H3935 H 0.32242 0.25982 0.35752 0.0
H3936 H 0.33225 0.26608 0.32976 0.0
H3937 H 0.3735 0.28392 0.34935 0.0
H3938 H 0.36391 0.27793 0.37727 0.0
H3939 H 0.3183 0.20997 0.43818 0.0
H3940 H 0.31465 0.22635 0.42212 0.0
H3941 H 0.35888 0.25453 0.42055 0.0
H3942 H 0.36265 0.23819 0.43681 0.0
H3943 H 0.34646 0.25268 0.39081 0.0
H3944 H 0.33966 0.26095 0.44645 0.0
H3945 H 0.32999 0.25467 0.47428 0.0
H3946 H 0.28877 0.23872 0.45527 0.0
H3947 H 0.29818 0.24472 0.42729 0.0
C3948 C 0.32979 0.30007 0.3695 0.0
C3949 C 0.31564 0.29588 0.36766 0.0
C3950 C 0.33377 0.29136 0.37726 0.0
C3951 C 0.32367 0.2783 0.38321 0.0
C3952 C 0.30957 0.27398 0.38094 0.0
C3953 C 0.3056 0.28265 0.37324 0.0
C3954 C 0.32763 0.26935 0.39259 0.0
C3955 C 0.32215 0.26523 0.40837 0.0
C3956 C 0.33669 0.26496 0.38626 0.0
C3957 C 0.34246 0.26857 0.36949 0.0
C3958 C 0.33359 0.26519 0.35592 0.0
C3959 C 0.33912 0.26866 0.34015 0.0
C3960 C 0.35349 0.27543 0.33779 0.0
C3961 C 0.36237 0.2787 0.3512 0.0
C3962 C 0.3569 0.27526 0.36699 0.0
C3963 C 0.32727 0.21969 0.43453 0.0
C3964 C 0.34076 0.22284 0.43896 0.0
C3965 C 0.32516 0.22902 0.42528 0.0
C3966 C 0.33648 0.24175 0.42033 0.0
C3967 C 0.35 0.24477 0.42426 0.0
C3968 C 0.35213 0.23541 0.43353 0.0
C3969 C 0.33405 0.25199 0.41143 0.0
C3970 C 0.33987 0.25641 0.39583 0.0
C3971 C 0.32533 0.25672 0.41792 0.0
C3972 C 0.31963 0.25318 0.43475 0.0
C3973 C 0.32853 0.25601 0.44819 0.0
C3974 C 0.32309 0.25251 0.46399 0.0
C3975 C 0.30877 0.24627 0.46654 0.0
C3976 C 0.29986 0.24355 0.45328 0.0
C3977 C 0.30524 0.24701 0.43745 0.0
H3978 H 0.30458 0.24357 0.47878 0.0
H3979 H 0.35775 0.27811 0.32558 0.0
H3980 H 0.72378 0.02588 0.35327 0.0
H3981 H 0.73836 0.04838 0.36637 0.0
H3982 H 0.70227 0.04514 0.39055 0.0
H3983 H 0.68755 0.02299 0.37665 0.0
H3984 H 0.7184 0.07067 0.38416 0.0
H3985 H 0.72568 0.03617 0.40946 0.0
H3986 H 0.73114 0.01723 0.41103 0.0
H3987 H 0.77187 0.04425 0.39161 0.0
H3988 H 0.76659 0.06332 0.38973 0.0
H3989 H 0.75971 0.10984 0.45636 0.0
H3990 H 0.74408 0.09008 0.43898 0.0
H3991 H 0.77187 0.10873 0.39819 0.0
H3992 H 0.78735 0.12868 0.41537 0.0
H3993 H 0.76003 0.07612 0.41315 0.0
H3994 H 0.75025 0.11068 0.3879 0.0
H3995 H 0.74347 0.12867 0.38997 0.0
H3996 H 0.70559 0.0997 0.41413 0.0
H3997 H 0.71229 0.08161 0.41241 0.0
C3998 C 0.71894 0.03009 0.36118 0.0
C3999 C 0.70455 0.02265 0.36404 0.0
C4000 C 0.72729 0.0429 0.36878 0.0
C4001 C 0.72152 0.04831 0.37989 0.0
C4002 C 0.70703 0.04119 0.38213 0.0
C4003 C 0.69861 0.02852 0.37418 0.0
C4004 C 0.73063 0.06101 0.38966 0.0
C4005 C 0.72745 0.07177 0.39052 0.0
C4006 C 0.74246 0.06255 0.39815 0.0
C4007 C 0.74569 0.05112 0.3993 0.0
C4008 C 0.73577 0.03804 0.40542 0.0
C4009 C 0.73884 0.02729 0.40638 0.0
C4010 C 0.75183 0.02952 0.40138 0.0
C4011 C 0.7618 0.04253 0.39545 0.0
C4012 C 0.75878 0.05332 0.39445 0.0
C4013 C 0.76239 0.10976 0.44364 0.0
C4014 C 0.77469 0.12078 0.43717 0.0
C4015 C 0.75347 0.09853 0.43375 0.0
C4016 C 0.75681 0.09805 0.41733 0.0
C4017 C 0.76907 0.10902 0.41082 0.0
C4018 C 0.77787 0.12039 0.42061 0.0
C4019 C 0.74789 0.08569 0.40725 0.0
C4020 C 0.75105 0.07497 0.40655 0.0
C4021 C 0.7359 0.08404 0.39929 0.0
C4022 C 0.73185 0.09487 0.40022 0.0
C4023 C 0.74056 0.10821 0.39382 0.0
C4024 C 0.73671 0.1184 0.39488 0.0
C4025 C 0.72413 0.11535 0.40223 0.0
C4026 C 0.71535 0.10207 0.40847 0.0
C4027 C 0.71916 0.09184 0.40745 0.0
H4028 H 0.72117 0.12325 0.40304 0.0
H4029 H 0.75419 0.02119 0.40213 0.0
H4030 H 0.98953 0.70859 0.37341 0.0
H4031 H 0.96747 0.70096 0.38733 0.0
H4032 H 0.95579 0.65818 0.37865 0.0
H4033 H 0.97799 0.66574 0.36461 0.0
H4034 H 0.93373 0.66398 0.37403 0.0
H4035 H 0.96766 0.67069 0.41453 0.0
H4036 H 0.99022 0.6835 0.42864 0.0
H4037 H 0.98158 0.71605 0.441 0.0
H4038 H 0.95906 0.70353 0.42673 0.0
H4039 H 0.87891 0.63866 0.43294 0.0
H4040 H 0.89954 0.64312 0.41735 0.0
H4041 H 0.91838 0.68688 0.42818 0.0
H4042 H 0.8981 0.68243 0.44436 0.0
H4043 H 0.9367 0.67867 0.43189 0.0
H4044 H 0.90362 0.67303 0.39043 0.0
H4045 H 0.88127 0.6609 0.37577 0.0
H4046 H 0.88827 0.62703 0.36488 0.0
H4047 H 0.9106 0.63888 0.37967 0.0
C4048 C 0.98223 0.69754 0.37426 0.0
C4049 C 0.98558 0.68776 0.368 0.0
C4050 C 0.96963 0.69321 0.38228 0.0
C4051 C 0.96009 0.67902 0.38423 0.0
C4052 C 0.96305 0.66919 0.37731 0.0
C4053 C 0.97574 0.67353 0.36932 0.0
C4054 C 0.94739 0.67458 0.39419 0.0
C4055 C 0.93433 0.66697 0.38676 0.0
C4056 C 0.94824 0.67873 0.41071 0.0
C4057 C 0.96172 0.68622 0.41944 0.0
C4058 C 0.97062 0.68063 0.42015 0.0
C4059 C 0.98339 0.68783 0.42819 0.0
C4060 C 0.98735 0.70059 0.43568 0.0
C4061 C 0.97851 0.70616 0.43518 0.0
C4062 C 0.96574 0.69902 0.42713 0.0
C4063 C 0.8875 0.64921 0.43215 0.0
C4064 C 0.8868 0.66019 0.43988 0.0
C4065 C 0.89923 0.65177 0.42307 0.0
C4066 C 0.91046 0.66536 0.4214 0.0
C4067 C 0.90984 0.67631 0.42923 0.0
C4068 C 0.89816 0.67376 0.43836 0.0
C4069 C 0.92295 0.66826 0.41169 0.0
C4070 C 0.93603 0.67557 0.4192 0.0
C4071 C 0.92209 0.66389 0.39523 0.0
C4072 C 0.9087 0.65677 0.38631 0.0
C4073 C 0.90034 0.66294 0.38502 0.0
C4074 C 0.88769 0.65613 0.37667 0.0
C4075 C 0.88334 0.64318 0.36944 0.0
C4076 C 0.89165 0.63704 0.37051 0.0
C4077 C 0.9043 0.64381 0.37887 0.0
H4078 H 0.87354 0.63793 0.36298 0.0
H4079 H 0.99724 0.70615 0.4419 0.0
H4080 H 0.38913 0.0429 0.71214 0.0
H4081 H 0.40425 0.03556 0.72475 0.0
H4082 H 0.37714 0.99355 0.70821 0.0
H4083 H 0.36159 1.00078 0.69603 0.0
H4084 H 0.3842 0.99284 0.73808 0.0
H4085 H 0.40987 0.01559 0.69013 0.0
H4086 H 0.42103 0.03447 0.66992 0.0
H4087 H 0.44822 0.06192 0.70702 0.0
H4088 H 0.43711 0.04327 0.7275 0.0
H4089 H 0.45459 0.99338 0.75055 0.0
H4090 H 0.4386 0.99699 0.73351 0.0
H4091 H 0.41954 0.00242 0.77676 0.0
H4092 H 0.43521 0.99841 0.79387 0.0
H4093 H 0.43533 0.01893 0.73029 0.0
H4094 H 0.38527 0.99024 0.76986 0.0
H4095 H 0.37401 0.96997 0.78821 0.0
H4096 H 0.39536 0.95163 0.76412 0.0
H4097 H 0.40659 0.97168 0.74548 0.0
C4098 C 0.38642 0.03211 0.71104 0.0
C4099 C 0.37418 0.02243 0.703 0.0
C4100 C 0.39513 0.02793 0.71821 0.0
C4101 C 0.39201 0.01404 0.71722 0.0
C4102 C 0.37982 0.00434 0.70911 0.0
C4103 C 0.37096 0.00849 0.7021 0.0
C4104 C 0.40122 0.00963 0.7252 0.0
C4105 C 0.39537 0.99851 0.7363 0.0
C4106 C 0.4158 0.01682 0.72269 0.0
C4107 C 0.42259 0.02805 0.71037 0.0
C4108 C 0.41818 0.02568 0.694 0.0
C4109 C 0.4245 0.03634 0.68249 0.0
C4110 C 0.43531 0.04939 0.68719 0.0
C4111 C 0.43984 0.05181 0.7034 0.0
C4112 C 0.43355 0.04119 0.71495 0.0
C4113 C 0.44687 0.99515 0.75644 0.0
C4114 C 0.44616 0.99556 0.77359 0.0
C4115 C 0.43781 0.99732 0.74668 0.0
C4116 C 0.42778 0.99985 0.75384 0.0
C4117 C 0.42706 1.0003 0.77094 0.0
C4118 C 0.43612 0.99814 0.78072 0.0
C4119 C 0.41832 0.00241 0.74345 0.0
C4120 C 0.42414 0.01319 0.73195 0.0
C4121 C 0.4037 0.99472 0.74532 0.0
C4122 C 0.39687 0.98254 0.75637 0.0
C4123 C 0.38752 0.98186 0.76844 0.0
C4124 C 0.38115 0.97041 0.7789 0.0
C4125 C 0.384 0.95954 0.77736 0.0
C4126 C 0.3932 0.96008 0.76533 0.0
C4127 C 0.39958 0.97149 0.75483 0.0
H4128 H 0.37907 0.9507 0.78548 0.0
H4129 H 0.44019 0.05763 0.67827 0.0
H4130 H 0.00483 0.35966 0.69693 0.0
H4131 H 0.01201 0.38211 0.7101 0.0
H4132 H 0.96903 0.37087 0.71579 0.0
H4133 H 0.96181 0.34863 0.70248 0.0
H4134 H 0.98417 0.39735 0.7068 0.0
H4135 H 0.98768 0.36766 0.7473 0.0
H4136 H 0.99609 0.35259 0.75847 0.0
H4137 H 0.0382 0.38616 0.75524 0.0
H4138 H 0.03004 0.40139 0.74384 0.0
H4139 H 0.98408 0.43883 0.77202 0.0
H4140 H 0.98104 0.41962 0.7546 0.0
H4141 H 0.02549 0.43727 0.75199 0.0
H4142 H 0.02862 0.45641 0.7698 0.0
H4143 H 0.01227 0.40937 0.7575 0.0
H4144 H 0.00818 0.4398 0.71968 0.0
H4145 H 0.99934 0.45471 0.70917 0.0
H4146 H 0.95796 0.41965 0.70775 0.0
H4147 H 0.96652 0.40456 0.71848 0.0
C4148 C 0.99692 0.36205 0.70083 0.0
C4149 C 0.98274 0.35232 0.69873 0.0
C4150 C 1.00104 0.37485 0.70843 0.0
C4151 C 0.99105 0.37811 0.71413 0.0
C4152 C 0.97693 0.3686 0.71151 0.0
C4153 C 0.97282 0.35585 0.70393 0.0
C4154 C 0.99513 0.39116 0.72335 0.0
C4155 C 0.99025 0.39993 0.71793 0.0
C4156 C 0.00336 0.39474 0.73767 0.0
C4157 C 0.00827 0.3856 0.74453 0.0
C4158 C 0.99874 0.37179 0.74885 0.0
C4159 C 0.00346 0.36323 0.75524 0.0
C4160 C 0.01768 0.3684 0.75752 0.0
C4161 C 0.0272 0.38216 0.75344 0.0
C4162 C 0.02253 0.39076 0.74702 0.0
C4163 C 0.99322 0.43858 0.76785 0.0
C4164 C 0.0066 0.44916 0.77231 0.0
C4165 C 0.99147 0.42766 0.75775 0.0
C4166 C 0.00304 0.42709 0.75182 0.0
C4167 C 0.01642 0.43754 0.75636 0.0
C4168 C 0.01818 0.44852 0.76644 0.0
C4169 C 1.00108 0.41541 0.74111 0.0
C4170 C 0.00636 0.4069 0.74624 0.0
C4171 C 0.99317 0.41204 0.72656 0.0
C4172 C 0.98799 0.42107 0.72001 0.0
C4173 C 0.99718 0.43529 0.71724 0.0
C4174 C 0.99222 0.44377 0.71123 0.0
C4175 C 0.9781 0.43814 0.70783 0.0
C4176 C 0.9689 0.424 0.7104 0.0
C4177 C 0.9738 0.41547 0.71643 0.0
H4178 H 0.97428 0.44472 0.70317 0.0
H4179 H 0.02131 0.36175 0.76247 0.0
H4180 H 0.6479 0.6487 0.70773 0.0
H4181 H 0.62589 0.63457 0.72233 0.0
H4182 H 0.62429 0.59723 0.70452 0.0
H4183 H 0.64644 0.61123 0.69032 0.0
H4184 H 0.59767 0.59872 0.7036 0.0
H4185 H 0.63573 0.60475 0.73894 0.0
H4186 H 0.65784 0.61914 0.75345 0.0
H4187 H 0.63981 0.63996 0.77939 0.0
H4188 H 0.61764 0.62583 0.76482 0.0
H4189 H 0.55035 0.54435 0.75351 0.0
H4190 H 0.57013 0.56092 0.73748 0.0
H4191 H 0.5771 0.59353 0.77148 0.0
H4192 H 0.55801 0.57674 0.78841 0.0
H4193 H 0.60058 0.59663 0.76392 0.0
H4194 H 0.56221 0.59011 0.73185 0.0
H4195 H 0.53992 0.57727 0.71721 0.0
H4196 H 0.5576 0.5596 0.68503 0.0
H4197 H 0.57995 0.57219 0.69961 0.0
C4198 C 0.64273 0.63749 0.70672 0.0
C4199 C 0.64888 0.63105 0.69794 0.0
C4200 C 0.6302 0.62945 0.71509 0.0
C4201 C 0.62353 0.61489 0.71451 0.0
C4202 C 0.62929 0.60846 0.70507 0.0
C4203 C 0.64194 0.61646 0.69701 0.0
C4204 C 0.61105 0.60628 0.72457 0.0
C4205 C 0.59825 0.59815 0.71678 0.0
C4206 C 0.61181 0.60597 0.74178 0.0
C4207 C 0.62509 0.61436 0.75064 0.0
C4208 C 0.63652 0.61249 0.74761 0.0
C4209 C 0.64906 0.62058 0.75588 0.0
C4210 C 0.65025 0.6305 0.7673 0.0
C4211 C 0.63888 0.6323 0.77052 0.0
C4212 C 0.62633 0.62425 0.76226 0.0
C4213 C 0.55617 0.55499 0.75779 0.0
C4214 C 0.55249 0.55912 0.77237 0.0
C4215 C 0.56738 0.56455 0.74838 0.0
C4216 C 0.57499 0.5786 0.75301 0.0
C4217 C 0.57136 0.58279 0.76753 0.0
C4218 C 0.56029 0.57317 0.77713 0.0
C4219 C 0.587 0.58876 0.74299 0.0
C4220 C 0.5998 0.59723 0.75077 0.0
C4221 C 0.58615 0.58959 0.72577 0.0
C4222 C 0.57273 0.58202 0.71692 0.0
C4223 C 0.56132 0.58342 0.72172 0.0
C4224 C 0.54867 0.57619 0.71342 0.0
C4225 C 0.54733 0.56761 0.70022 0.0
C4226 C 0.55865 0.56625 0.69526 0.0
C4227 C 0.57132 0.57344 0.70353 0.0
H4228 H 0.53753 0.56202 0.69381 0.0
H4229 H 0.65996 0.63675 0.77368 0.0
H4230 H 0.66421 0.68796 0.66269 0.0
H4231 H 0.65613 0.70216 0.64875 0.0
H4232 H 0.69839 0.73591 0.64528 0.0
H4233 H 0.70654 0.72184 0.65902 0.0
H4234 H 0.65802 0.72753 0.65433 0.0
H4235 H 0.70338 0.75021 0.60769 0.0
H4236 H 0.71923 0.74359 0.59446 0.0
H4237 H 0.68912 0.70042 0.60083 0.0
H4238 H 0.67302 0.70677 0.61386 0.0
H4239 H 0.66414 0.78682 0.61377 0.0
H4240 H 0.6677 0.76999 0.62906 0.0
H4241 H 0.65543 0.7431 0.58686 0.0
H4242 H 0.65233 0.76012 0.5713 0.0
H4243 H 0.67821 0.74544 0.59956 0.0
H4244 H 0.63398 0.73517 0.62029 0.0
H4245 H 0.61666 0.7402 0.63254 0.0
H4246 H 0.64147 0.75552 0.67593 0.0
H4247 H 0.65905 0.75076 0.66385 0.0
C4248 C 0.67176 0.69847 0.65915 0.0
C4249 C 0.68603 0.70372 0.66184 0.0
C4250 C 0.66712 0.70657 0.6512 0.0
C4251 C 0.67668 0.72 0.64574 0.0
C4252 C 0.69085 0.72549 0.64915 0.0
C4253 C 0.69548 0.71743 0.65706 0.0
C4254 C 0.67205 0.7281 0.63576 0.0
C4255 C 0.66241 0.73145 0.64235 0.0
C4256 C 0.67753 0.73292 0.61996 0.0
C4257 C 0.68705 0.72898 0.61189 0.0
C4258 C 0.70012 0.7393 0.60619 0.0
C4259 C 0.70915 0.7356 0.59874 0.0
C4260 C 0.7052 0.72159 0.59685 0.0
C4261 C 0.69219 0.71126 0.60235 0.0
C4262 C 0.68311 0.71491 0.60979 0.0
C4263 C 0.66223 0.77734 0.60771 0.0
C4264 C 0.65798 0.77485 0.59127 0.0
C4265 C 0.66412 0.76765 0.61654 0.0
C4266 C 0.66171 0.7552 0.60918 0.0
C4267 C 0.65732 0.75261 0.59283 0.0
C4268 C 0.65544 0.76231 0.58398 0.0
C4269 C 0.66444 0.74523 0.61827 0.0
C4270 C 0.67375 0.74151 0.61151 0.0
C4271 C 0.65845 0.73988 0.63376 0.0
C4272 C 0.64788 0.74271 0.64111 0.0
C4273 C 0.63579 0.73971 0.6324 0.0
C4274 C 0.62592 0.7425 0.63932 0.0
C4275 C 0.62798 0.74821 0.65499 0.0
C4276 C 0.6399 0.75111 0.66379 0.0
C4277 C 0.64981 0.74835 0.65692 0.0
H4278 H 0.62032 0.75036 0.66033 0.0
H4279 H 0.71221 0.71874 0.5911 0.0
H4280 H 0.31325 0.97667 0.66698 0.0
H4281 H 0.29854 0.95414 0.65376 0.0
H4282 H 0.2653 0.96347 0.65016 0.0
H4283 H 0.27978 0.98578 0.66353 0.0
H4284 H 0.25526 0.93705 0.65857 0.0
H4285 H 0.28676 0.96799 0.61764 0.0
H4286 H 0.30972 0.98407 0.60581 0.0
H4287 H 0.32062 0.95203 0.60728 0.0
H4288 H 0.29777 0.9358 0.61932 0.0
H4289 H 0.21399 0.89503 0.59354 0.0
H4290 H 0.22981 0.91452 0.6108 0.0
H4291 H 0.25798 0.89841 0.61255 0.0
H4292 H 0.24226 0.87894 0.59497 0.0
H4293 H 0.27151 0.92659 0.60676 0.0
H4294 H 0.23845 0.8949 0.64517 0.0
H4295 H 0.21508 0.87909 0.65616 0.0
H4296 H 0.2067 0.91285 0.65877 0.0
H4297 H 0.22996 0.92883 0.64757 0.0
C4298 C 0.30275 0.97384 0.66355 0.0
C4299 C 0.29772 0.98306 0.66624 0.0
C4300 C 0.29438 0.96099 0.65591 0.0
C4301 C 0.28087 0.95718 0.65076 0.0
C4302 C 0.27568 0.96617 0.65399 0.0
C4303 C 0.28401 0.97896 0.66162 0.0
C4304 C 0.27221 0.94411 0.64148 0.0
C4305 C 0.25879 0.9348 0.6472 0.0
C4306 C 0.27691 0.94101 0.62681 0.0
C4307 C 0.29063 0.95074 0.61957 0.0
C4308 C 0.2941 0.96441 0.61557 0.0
C4309 C 0.30708 0.97354 0.6088 0.0
C4310 C 0.31664 0.96909 0.60585 0.0
C4311 C 0.31322 0.95547 0.60961 0.0
C4312 C 0.30025 0.9463 0.6164 0.0
C4313 C 0.22359 0.89567 0.59749 0.0
C4314 C 0.22687 0.88543 0.59287 0.0
C4315 C 0.23257 0.90675 0.60749 0.0
C4316 C 0.24501 0.90784 0.61312 0.0
C4317 C 0.24841 0.89773 0.6084 0.0
C4318 C 0.23938 0.88658 0.59845 0.0
C4319 C 0.25449 0.91966 0.62374 0.0
C4320 C 0.26805 0.92873 0.61826 0.0
C4321 C 0.2499 0.9226 0.63857 0.0
C4322 C 0.23592 0.91304 0.64542 0.0
C4323 C 0.23159 0.89893 0.64798 0.0
C4324 C 0.21837 0.88994 0.65426 0.0
C4325 C 0.2094 0.89495 0.65813 0.0
C4326 C 0.21366 0.90898 0.65576 0.0
C4327 C 0.22687 0.91801 0.64946 0.0
H4328 H 0.19917 0.88798 0.66299 0.0
H4329 H 0.32669 0.97617 0.6006 0.0
H4330 H 0.01755 0.29403 0.65339 0.0
H4331 H 0.0402 0.30214 0.64085 0.0
H4332 H 0.05203 0.34445 0.65305 0.0
H4333 H 0.0291 0.33639 0.66534 0.0
H4334 H 0.05922 0.34324 0.62277 0.0
H4335 H 0.06583 0.3269 0.67369 0.0
H4336 H 0.06033 0.31049 0.69649 0.0
H4337 H 0.06211 0.28103 0.66393 0.0
H4338 H 0.06743 0.29718 0.64088 0.0
H4339 H 0.13172 0.34741 0.61199 0.0
H4340 H 0.11212 0.34393 0.62898 0.0
H4341 H 0.08636 0.33381 0.58605 0.0
H4342 H 0.10607 0.33793 0.56891 0.0
H4343 H 0.08828 0.32195 0.63478 0.0
H4344 H 0.06188 0.34293 0.59091 0.0
H4345 H 0.06867 0.36104 0.56984 0.0
H4346 H 0.109 0.38461 0.59175 0.0
H4347 H 0.10239 0.36676 0.61307 0.0
C4348 C 0.02499 0.30507 0.65357 0.0
C4349 C 0.02151 0.31457 0.66042 0.0
C4350 C 0.03799 0.30969 0.64644 0.0
C4351 C 0.04792 0.3239 0.64617 0.0
C4352 C 0.04455 0.33343 0.65314 0.0
C4353 C 0.03147 0.32881 0.66022 0.0
C4354 C 0.06156 0.32874 0.63798 0.0
C4355 C 0.06561 0.33864 0.62546 0.0
C4356 C 0.07009 0.32297 0.64169 0.0
C4357 C 0.06694 0.31323 0.65553 0.0
C4358 C 0.06496 0.31688 0.67137 0.0
C4359 C 0.06189 0.30763 0.68434 0.0
C4360 C 0.06085 0.29472 0.68166 0.0
C4361 C 0.06291 0.29104 0.666 0.0
C4362 C 0.06598 0.30025 0.65297 0.0
C4363 C 0.12196 0.34468 0.60611 0.0
C4364 C 0.12052 0.34301 0.58904 0.0
C4365 C 0.11071 0.34256 0.61587 0.0
C4366 C 0.09778 0.33874 0.60881 0.0
C4367 C 0.09628 0.33698 0.59179 0.0
C4368 C 0.10754 0.33917 0.58201 0.0
C4369 C 0.08574 0.33616 0.61926 0.0
C4370 C 0.08197 0.32665 0.63218 0.0
C4371 C 0.07766 0.34254 0.61617 0.0
C4372 C 0.08167 0.35344 0.60351 0.0
C4373 C 0.07217 0.35201 0.59128 0.0
C4374 C 0.076 0.36223 0.57928 0.0
C4375 C 0.08927 0.37395 0.57943 0.0
C4376 C 0.09874 0.37551 0.59161 0.0
C4377 C 0.09496 0.36533 0.60365 0.0
H4378 H 0.09221 0.38184 0.57012 0.0
H4379 H 0.05847 0.28757 0.69172 0.0
H4380 H 0.31535 0.3365 0.65379 0.0
H4381 H 0.30073 0.34377 0.63955 0.0
H4382 H 0.26446 0.31115 0.66358 0.0
H4383 H 0.279 0.30334 0.67698 0.0
H4384 H 0.25838 0.31031 0.63429 0.0
H4385 H 0.27956 0.34817 0.67183 0.0
H4386 H 0.29857 0.36778 0.68665 0.0
H4387 H 0.31496 0.38931 0.64137 0.0
H4388 H 0.29614 0.36974 0.62625 0.0
H4389 H 0.21452 0.33863 0.61156 0.0
H4390 H 0.23017 0.33451 0.62884 0.0
H4391 H 0.25995 0.34758 0.58954 0.0
H4392 H 0.24415 0.35132 0.57203 0.0
H4393 H 0.26883 0.35892 0.62695 0.0
H4394 H 0.24711 0.31848 0.59026 0.0
H4395 H 0.22658 0.29895 0.57734 0.0
H4396 H 0.20953 0.28259 0.62463 0.0
H4397 H 0.22988 0.30217 0.63782 0.0
C4398 C 0.30429 0.33105 0.65624 0.0
C4399 C 0.2983 0.31937 0.66649 0.0
C4400 C 0.29591 0.33525 0.64814 0.0
C4401 C 0.28143 0.32812 0.65054 0.0
C4402 C 0.27557 0.31681 0.66139 0.0
C4403 C 0.28389 0.31239 0.66913 0.0
C4404 C 0.27228 0.33174 0.6409 0.0
C4405 C 0.26064 0.32095 0.63298 0.0
C4406 C 0.27517 0.34563 0.63884 0.0
C4407 C 0.28651 0.35742 0.64789 0.0
C4408 C 0.28728 0.35704 0.66502 0.0
C4409 C 0.29801 0.36815 0.67347 0.0
C4410 C 0.30799 0.37976 0.66495 0.0
C4411 C 0.30723 0.3803 0.64796 0.0
C4412 C 0.29653 0.3692 0.63944 0.0
C4413 C 0.22445 0.34071 0.60668 0.0
C4414 C 0.22815 0.34526 0.59049 0.0
C4415 C 0.23335 0.33836 0.61653 0.0
C4416 C 0.24619 0.34079 0.61044 0.0
C4417 C 0.25009 0.34571 0.59444 0.0
C4418 C 0.24106 0.34776 0.58445 0.0
C4419 C 0.25521 0.33752 0.62055 0.0
C4420 C 0.26671 0.34834 0.62848 0.0
C4421 C 0.25207 0.32367 0.62293 0.0
C4422 C 0.23991 0.31186 0.61501 0.0
C4423 C 0.23891 0.31079 0.5979 0.0
C4424 C 0.22732 0.2997 0.59053 0.0
C4425 C 0.21673 0.28955 0.60016 0.0
C4426 C 0.21772 0.29046 0.61718 0.0
C4427 C 0.22928 0.30155 0.62461 0.0
H4428 H 0.20777 0.28097 0.59443 0.0
H4429 H 0.31629 0.38836 0.67153 0.0
H4430 H 0.66744 0.97602 0.66848 0.0
H4431 H 0.65939 0.95287 0.65679 0.0
H4432 H 0.70089 0.96619 0.63947 0.0
H4433 H 0.70903 0.98904 0.65148 0.0
H4434 H 0.65809 0.94433 0.62686 0.0
H4435 H 0.7078 0.94041 0.63835 0.0
H4436 H 0.72615 0.94759 0.65918 0.0
H4437 H 0.6988 0.94876 0.69551 0.0
H4438 H 0.68023 0.94141 0.67495 0.0
H4439 H 0.66117 0.89677 0.57191 0.0
H4440 H 0.66504 0.9167 0.58859 0.0
H4441 H 0.66304 0.89406 0.63228 0.0
H4442 H 0.6597 0.87433 0.61554 0.0
H4443 H 0.68332 0.91848 0.63525 0.0
H4444 H 0.63611 0.90063 0.62021 0.0
H4445 H 0.61596 0.89192 0.60171 0.0
H4446 H 0.63478 0.93126 0.57705 0.0
H4447 H 0.65513 0.94015 0.59527 0.0
C4448 C 0.67486 0.97394 0.66234 0.0
C4449 C 0.68889 0.98434 0.66102 0.0
C4450 C 0.67024 0.96073 0.6556 0.0
C4451 C 0.67956 0.9577 0.64742 0.0
C4452 C 0.69354 0.96813 0.64604 0.0
C4453 C 0.69818 0.98124 0.65288 0.0
C4454 C 0.6747 0.94383 0.63981 0.0
C4455 C 0.66355 0.93863 0.62877 0.0
C4456 C 0.68158 0.93618 0.64256 0.0
C4457 C 0.69266 0.94046 0.65506 0.0
C4458 C 0.70568 0.94213 0.6508 0.0
C4459 C 0.71612 0.94625 0.66256 0.0
C4460 C 0.71365 0.94866 0.67865 0.0
C4461 C 0.70072 0.94693 0.68303 0.0
C4462 C 0.69023 0.94281 0.67132 0.0
C4463 C 0.66143 0.89603 0.58508 0.0
C4464 C 0.66014 0.88403 0.59245 0.0
C4465 C 0.66358 0.90739 0.59463 0.0
C4466 C 0.66414 0.90686 0.61177 0.0
C4467 C 0.66267 0.89477 0.61912 0.0
C4468 C 0.66076 0.8835 0.60955 0.0
C4469 C 0.66693 0.91913 0.62195 0.0
C4470 C 0.67773 0.92407 0.63345 0.0
C4471 C 0.65945 0.9263 0.61997 0.0
C4472 C 0.64719 0.92103 0.60904 0.0
C4473 C 0.63599 0.9074 0.61078 0.0
C4474 C 0.62453 0.90243 0.60035 0.0
C4475 C 0.6241 0.91102 0.5882 0.0
C4476 C 0.63512 0.92461 0.58647 0.0
C4477 C 0.64662 0.92963 0.59686 0.0
H4478 H 0.61522 0.90715 0.58013 0.0
H4479 H 0.72176 0.95185 0.68773 0.0
H4480 H 0.02766 0.69194 0.66471 0.0
H4481 H 0.04997 0.70729 0.65137 0.0
H4482 H 0.03763 0.73811 0.64443 0.0
H4483 H 0.0154 0.72289 0.65756 0.0
H4484 H 0.04719 0.73311 0.61652 0.0
H4485 H 0.062 0.74254 0.67276 0.0
H4486 H 0.0651 0.73644 0.70077 0.0
H4487 H 0.08929 0.71894 0.68239 0.0
H4488 H 0.08618 0.72478 0.65422 0.0
H4489 H 0.10908 0.79208 0.59197 0.0
H4490 H 0.08869 0.77572 0.6076 0.0
H4491 H 0.10534 0.74811 0.61168 0.0
H4492 H 0.12583 0.76445 0.59594 0.0
H4493 H 0.09394 0.74992 0.64041 0.0
H4494 H 0.08005 0.74113 0.5845 0.0
H4495 H 0.07709 0.74706 0.55635 0.0
H4496 H 0.05103 0.76272 0.57384 0.0
H4497 H 0.05401 0.75708 0.60214 0.0
C4498 C 0.02978 0.70206 0.66053 0.0
C4499 C 0.01973 0.70617 0.66216 0.0
C4500 C 0.04254 0.71083 0.65293 0.0
C4501 C 0.04547 0.72386 0.6469 0.0
C4502 C 0.03558 0.72809 0.64891 0.0
C4503 C 0.02288 0.71937 0.65649 0.0
C4504 C 0.0585 0.73289 0.63776 0.0
C4505 C 0.05741 0.73691 0.62183 0.0
C4506 C 0.07184 0.73747 0.64445 0.0
C4507 C 0.07372 0.73395 0.66137 0.0
C4508 C 0.06787 0.73728 0.67467 0.0
C4509 C 0.06965 0.7339 0.69058 0.0
C4510 C 0.07735 0.72727 0.69335 0.0
C4511 C 0.08331 0.72405 0.68022 0.0
C4512 C 0.08155 0.7274 0.66428 0.0
C4513 C 0.10839 0.78249 0.59609 0.0
C4514 C 0.11903 0.77951 0.59255 0.0
C4515 C 0.09673 0.77316 0.60507 0.0
C4516 C 0.09539 0.76059 0.61061 0.0
C4517 C 0.10615 0.75774 0.60751 0.0
C4518 C 0.11786 0.7671 0.59854 0.0
C4519 C 0.08258 0.75036 0.61934 0.0
C4520 C 0.08372 0.74607 0.63511 0.0
C4521 C 0.06924 0.74545 0.61249 0.0
C4522 C 0.06735 0.74879 0.59546 0.0
C4523 C 0.07377 0.74593 0.58236 0.0
C4524 C 0.07208 0.74923 0.56638 0.0
C4525 C 0.0639 0.75529 0.56331 0.0
C4526 C 0.05738 0.75804 0.57623 0.0
C4527 C 0.05905 0.75478 0.59225 0.0
H4528 H 0.06261 0.75784 0.55093 0.0
H4529 H 0.07872 0.72466 0.70568 0.0
H4530 H 0.96173 0.61036 0.69912 0.0
H4531 H 0.96888 0.59559 0.71315 0.0
H4532 H 0.01037 0.63051 0.71834 0.0
H4533 H 0.00335 0.6453 0.7038 0.0
H4534 H 0.01155 0.60757 0.71278 0.0
H4535 H 0.9869 0.62078 0.74977 0.0
H4536 H 0.96752 0.62384 0.75936 0.0
H4537 H 0.93989 0.57973 0.75698 0.0
H4538 H 0.95907 0.57643 0.74715 0.0
H4539 H 0.00618 0.56844 0.79511 0.0
H4540 H 0.00312 0.58527 0.77907 0.0
H4541 H 0.00362 0.56445 0.73467 0.0
H4542 H 0.007 0.54779 0.7507 0.0
H4543 H 0.98305 0.58219 0.76097 0.0
H4544 H 0.01528 0.58692 0.70281 0.0
H4545 H 0.03641 0.58615 0.69531 0.0
H4546 H 0.05221 0.59842 0.744 0.0
H4547 H 0.03128 0.59945 0.75173 0.0
C4548 C 0.97243 0.61487 0.70304 0.0
C4549 C 0.98194 0.62904 0.70049 0.0
C4550 C 0.97649 0.60642 0.71114 0.0
C4551 C 0.99008 0.612 0.71715 0.0
C4552 C 0.99981 0.62598 0.71388 0.0
C4553 C 0.99578 0.63443 0.70559 0.0
C4554 C 0.99383 0.60342 0.72757 0.0
C4555 C 0.00532 0.60201 0.72331 0.0
C4556 C 0.98595 0.59645 0.7416 0.0
C4557 C 0.9744 0.59838 0.74759 0.0
C4558 C 0.97667 0.61175 0.75119 0.0
C4559 C 0.96573 0.61352 0.75668 0.0
C4560 C 0.95248 0.60199 0.75874 0.0
C4561 C 0.95016 0.58866 0.75536 0.0
C4562 C 0.96106 0.58682 0.74984 0.0
C4563 C 0.00568 0.5675 0.78192 0.0
C4564 C 0.00682 0.5568 0.77416 0.0
C4565 C 0.00395 0.57712 0.77275 0.0
C4566 C 0.00324 0.57623 0.75562 0.0
C4567 C 0.00442 0.56557 0.74784 0.0
C4568 C 0.00632 0.55602 0.757 0.0
C4569 C 1.00063 0.58608 0.74602 0.0
C4570 C 0.98931 0.58773 0.75045 0.0
C4571 C 0.00893 0.59357 0.73246 0.0
C4572 C 0.02164 0.59312 0.72788 0.0
C4573 C 0.02329 0.58951 0.7119 0.0
C4574 C 0.03523 0.58901 0.70761 0.0
C4575 C 0.04563 0.59219 0.71919 0.0
C4576 C 0.04413 0.59591 0.73507 0.0
C4577 C 0.03222 0.59643 0.73941 0.0
H4578 H 0.05486 0.59179 0.71585 0.0
H4579 H 0.94402 0.60339 0.76299 0.0
H4580 H 0.39047 0.35571 0.68856 0.0
H4581 H 0.40587 0.37763 0.70236 0.0
H4582 H 0.37034 0.3775 0.72403 0.0
H4583 H 0.35486 0.35591 0.70949 0.0
H4584 H 0.38861 0.40281 0.71795 0.0
H4585 H 0.39054 0.36584 0.74492 0.0
H4586 H 0.39348 0.34534 0.74759 0.0
H4587 H 0.43558 0.36923 0.73064 0.0
H4588 H 0.43284 0.38984 0.72766 0.0
H4589 H 0.42765 0.44468 0.78754 0.0
H4590 H 0.41141 0.42519 0.77052 0.0
H4591 H 0.4445 0.43311 0.73698 0.0
H4592 H 0.46068 0.45312 0.75326 0.0
H4593 H 0.42723 0.40412 0.74976 0.0
H4594 H 0.42394 0.4416 0.72392 0.0
H4595 H 0.41988 0.46151 0.72389 0.0
H4596 H 0.37863 0.43544 0.74247 0.0
H4597 H 0.38252 0.41541 0.74284 0.0
C4598 C 0.38594 0.36048 0.69606 0.0
C4599 C 0.37148 0.35406 0.69805 0.0
C4600 C 0.39476 0.37296 0.70407 0.0
C4601 C 0.38933 0.37905 0.71468 0.0
C4602 C 0.37482 0.37299 0.71603 0.0
C4603 C 0.36597 0.36065 0.7077 0.0
C4604 C 0.39878 0.39135 0.72482 0.0
C4605 C 0.39694 0.40299 0.72503 0.0
C4606 C 0.40972 0.39171 0.73412 0.0
C4607 C 0.41144 0.37934 0.73592 0.0
C4608 C 0.4004 0.3667 0.74166 0.0
C4609 C 0.40203 0.35506 0.74324 0.0
C4610 C 0.4147 0.35597 0.73924 0.0
C4611 C 0.42577 0.36853 0.7337 0.0
C4612 C 0.42418 0.3802 0.73208 0.0
C4613 C 0.43148 0.44251 0.77638 0.0
C4614 C 0.44558 0.45056 0.77188 0.0
C4615 C 0.42217 0.43128 0.76674 0.0
C4616 C 0.42678 0.42774 0.75253 0.0
C4617 C 0.44077 0.43567 0.74796 0.0
C4618 C 0.45004 0.44704 0.75741 0.0
C4619 C 0.41712 0.4155 0.74265 0.0
C4620 C 0.4189 0.40387 0.74261 0.0
C4621 C 0.40594 0.41504 0.73388 0.0
C4622 C 0.40358 0.42705 0.73358 0.0
C4623 C 0.41405 0.44015 0.72815 0.0
C4624 C 0.41177 0.45144 0.72804 0.0
C4625 C 0.39902 0.44975 0.73322 0.0
C4626 C 0.38851 0.43674 0.73849 0.0
C4627 C 0.39074 0.42541 0.73864 0.0
H4628 H 0.39727 0.45851 0.73313 0.0
H4629 H 0.41595 0.34695 0.74048 0.0
H4630 H 0.65421 0.04171 0.70699 0.0
H4631 H 0.632 0.03381 0.72057 0.0
H4632 H 0.6197 0.99133 0.70863 0.0
H4633 H 0.64222 0.99919 0.69532 0.0
H4634 H 0.60617 0.02104 0.71179 0.0
H4635 H 0.59917 0.9702 0.7395 0.0
H4636 H 0.61342 0.95997 0.74809 0.0
H4637 H 0.64803 1.00078 0.75694 0.0
H4638 H 0.63393 0.01122 0.74861 0.0
H4639 H 0.54048 0.98786 0.7508 0.0
H4640 H 0.56009 0.99145 0.73379 0.0
H4641 H 0.58589 0.0016 0.77668 0.0
H4642 H 0.56616 0.99731 0.79385 0.0
H4643 H 0.59176 0.98676 0.75683 0.0
H4644 H 0.58655 0.02702 0.75144 0.0
H4645 H 0.5741 0.03969 0.74541 0.0
H4646 H 0.56709 0.02428 0.69615 0.0
H4647 H 0.57935 0.01136 0.70196 0.0
C4648 C 0.64678 0.03068 0.70713 0.0
C4649 C 0.65004 0.02107 0.70015 0.0
C4650 C 0.63403 0.02618 0.71487 0.0
C4651 C 0.62421 0.01196 0.71581 0.0
C4652 C 0.6272 0.00234 0.70831 0.0
C4653 C 0.64005 0.00685 0.70063 0.0
C4654 C 0.61111 0.00736 0.72513 0.0
C4655 C 0.60297 0.01345 0.72154 0.0
C4656 C 0.607 0.99764 0.73807 0.0
C4657 C 0.61554 0.99148 0.74323 0.0
C4658 C 0.60981 0.97698 0.74331 0.0
C4659 C 0.61786 0.97115 0.74813 0.0
C4660 C 0.63164 0.97972 0.75299 0.0
C4661 C 0.63738 0.99415 0.75311 0.0
C4662 C 0.62937 1.00003 0.74832 0.0
C4663 C 0.55024 0.9906 0.75667 0.0
C4664 C 0.55174 0.9924 0.77373 0.0
C4665 C 0.5615 0.9928 0.74689 0.0
C4666 C 0.57455 0.99701 0.75391 0.0
C4667 C 0.57596 0.9984 0.77095 0.0
C4668 C 0.56469 0.99611 0.78075 0.0
C4669 C 0.58688 1.0005 0.74353 0.0
C4670 C 0.59485 0.99419 0.74691 0.0
C4671 C 0.59107 0.01034 0.73072 0.0
C4672 C 0.58372 0.01811 0.72719 0.0
C4673 C 0.58226 0.02625 0.73936 0.0
C4674 C 0.57525 0.03349 0.73597 0.0
C4675 C 0.56977 0.03276 0.72042 0.0
C4676 C 0.57132 0.02481 0.7082 0.0
C4677 C 0.5783 0.01754 0.71153 0.0
H4678 H 0.56435 0.03837 0.71782 0.0
H4679 H 0.63786 0.97519 0.75671 0.0
loop_
_geom_bond_atom_site_label_1
_geom_bond_atom_site_label_2
_geom_bond_distance
_geom_bond_site_symmetry_2
_ccdc_geom_bond_type
O0 Cd1 2.223 . S
O0 C8 1.315 . S
Cd1 O0 2.223 . S
Cd1 O4 2.297 . S
Cd1 O5 2.439 . S
Cd1 O11 2.240 1_554 S
Cd2 O3 2.240 . S
Cd2 O10 2.223 1_554 S
Cd2 O12 2.297 1_554 S
Cd2 O13 2.429 1_554 S
O3 Cd2 2.240 . S
O3 C8 1.279 1_655 S
O4 Cd1 2.297 . S
O4 C6 1.247 . S
O5 Cd1 2.439 . S
O5 C6 1.208 . S
C6 O4 1.247 . S
C6 O5 1.208 . S
C7 O12 1.247 . S
C7 O13 1.222 . S
C8 O0 1.315 . S
C8 O3 1.279 1_455 S
C9 O10 1.333 . S
C9 O11 1.262 1_655 S
O10 Cd2 2.223 1_556 S
O10 C9 1.333 . S
O11 Cd1 2.240 1_556 S
O11 C9 1.262 1_455 S
O12 Cd2 2.297 1_556 S
O12 C7 1.247 . S
O13 Cd2 2.429 1_556 S
O13 C7 1.222 . S
O14 Cd15 2.223 . S
O14 C22 1.315 . S
Cd15 O14 2.223 . S
Cd15 O18 2.297 . S
Cd15 O19 2.439 . S
Cd15 O25 2.240 1_554 S
Cd16 O17 2.240 . S
Cd16 O24 2.223 1_554 S
Cd16 O26 2.297 1_554 S
Cd16 O27 2.439 1_554 S
O17 Cd16 2.240 . S
O17 C22 1.279 . S
O18 Cd15 2.297 . S
O18 C20 1.247 . S
O19 Cd15 2.439 . S
O19 C20 1.208 . S
C20 O18 1.247 . S
C20 O19 1.208 . S
C21 O26 1.247 . S
C21 O27 1.208 . S
C22 O14 1.315 . S
C22 O17 1.279 . S
C23 O24 1.315 . S
C23 O25 1.279 . S
O24 Cd16 2.223 1_556 S
O24 C23 1.315 . S
O25 Cd15 2.240 1_556 S
O25 C23 1.279 . S
O26 Cd16 2.297 1_556 S
O26 C21 1.247 . S
O27 Cd16 2.439 1_556 S
O27 C21 1.208 . S
O28 Cd29 2.223 1_556 S
O28 C36 1.315 . S
Cd29 O28 2.223 1_554 S
Cd29 O32 2.297 1_554 S
Cd29 O33 2.434 1_554 S
Cd29 O39 2.240 . S
Cd30 O31 2.240 1_554 S
Cd30 O38 2.223 . S
Cd30 O40 2.297 . S
Cd30 O41 2.439 . S
O31 Cd30 2.240 1_556 S
O31 C36 1.279 1_565 S
O32 Cd29 2.297 1_556 S
O32 C34 1.247 . S
O33 Cd29 2.434 1_556 S
O33 C34 1.215 . S
C34 O32 1.247 . S
C34 O33 1.215 . S
C35 O40 1.247 . S
C35 O41 1.208 . S
C36 O28 1.315 . S
C36 O31 1.279 1_545 S
C37 O38 1.337 . S
C37 O39 1.259 1_565 S
O38 Cd30 2.223 . S
O38 C37 1.337 . S
O39 Cd29 2.240 . S
O39 C37 1.259 1_545 S
O40 Cd30 2.297 . S
O40 C35 1.247 . S
O41 Cd30 2.439 . S
O41 C35 1.208 . S
O42 Cd43 2.223 1_556 S
O42 C50 1.315 . S
Cd43 O42 2.223 1_554 S
Cd43 O46 2.297 1_554 S
Cd43 O47 2.422 1_554 S
Cd43 O53 2.240 . S
Cd44 O45 2.240 1_554 S
Cd44 O52 2.223 . S
Cd44 O54 2.297 . S
Cd44 O55 2.439 . S
O45 Cd44 2.240 1_556 S
O45 C50 1.279 1_455 S
O46 Cd43 2.297 1_556 S
O46 C48 1.247 . S
O47 Cd43 2.422 1_556 S
O47 C48 1.233 . S
C48 O46 1.247 . S
C48 O47 1.233 . S
C49 O54 1.247 . S
C49 O55 1.208 . S
C50 O42 1.315 . S
C50 O45 1.279 1_655 S
C51 O52 1.315 . S
C51 O53 1.279 1_455 S
O52 Cd44 2.223 . S
O52 C51 1.315 . S
O53 Cd43 2.240 . S
O53 C51 1.279 1_655 S
O54 Cd44 2.297 . S
O54 C49 1.247 . S
O55 Cd44 2.439 . S
O55 C49 1.208 . S
O56 Cd57 2.223 1_556 S
O56 C64 1.315 . S
Cd57 O56 2.223 1_554 S
Cd57 O60 2.297 1_554 S
Cd57 O61 2.439 1_554 S
Cd57 O67 2.240 . S
Cd58 O59 2.240 1_554 S
Cd58 O66 2.223 . S
Cd58 O68 2.297 . S
Cd58 O69 2.439 . S
O59 Cd58 2.240 1_556 S
O59 C64 1.279 . S
O60 Cd57 2.297 1_556 S
O60 C62 1.247 . S
O61 Cd57 2.439 1_556 S
O61 C62 1.208 . S
C62 O60 1.247 . S
C62 O61 1.208 . S
C63 O68 1.247 . S
C63 O69 1.208 . S
C64 O56 1.315 . S
C64 O59 1.279 . S
C65 O66 1.315 . S
C65 O67 1.279 . S
O66 Cd58 2.223 . S
O66 C65 1.315 . S
O67 Cd57 2.240 . S
O67 C65 1.279 . S
O68 Cd58 2.297 . S
O68 C63 1.247 . S
O69 Cd58 2.439 . S
O69 C63 1.208 . S
O70 Cd71 2.223 . S
O70 C78 1.315 . S
Cd71 O70 2.223 . S
Cd71 O74 2.297 . S
Cd71 O75 2.439 . S
Cd71 O81 2.240 1_554 S
Cd72 O73 2.240 . S
Cd72 O80 2.223 1_554 S
Cd72 O82 2.297 1_554 S
Cd72 O83 2.441 1_554 S
O73 Cd72 2.240 . S
O73 C78 1.279 1_545 S
O74 Cd71 2.297 . S
O74 C76 1.247 . S
O75 Cd71 2.439 . S
O75 C76 1.208 . S
C76 O74 1.247 . S
C76 O75 1.208 . S
C77 O82 1.247 . S
C77 O83 1.204 . S
C78 O70 1.315 . S
C78 O73 1.279 1_565 S
C79 O80 1.315 . S
C79 O81 1.279 1_545 S
O80 Cd72 2.223 1_556 S
O80 C79 1.315 . S
O81 Cd71 2.240 1_556 S
O81 C79 1.279 1_565 S
O82 Cd72 2.297 1_556 S
O82 C77 1.247 . S
O83 Cd72 2.441 1_556 S
O83 C77 1.204 . S
O84 Cd85 2.223 . S
O84 C92 1.315 . S
Cd85 O84 2.223 . S
Cd85 O88 2.297 . S
Cd85 O89 2.439 . S
Cd85 O95 2.240 . S
Cd86 O87 2.240 . S
Cd86 O94 2.223 . S
Cd86 O96 2.297 . S
Cd86 O97 2.439 . S
O87 Cd86 2.240 . S
O87 C92 1.279 . S
O88 Cd85 2.297 . S
O88 C90 1.247 . S
O89 Cd85 2.439 . S
O89 C90 1.208 . S
C90 O88 1.247 . S
C90 O89 1.208 . S
C91 O96 1.247 . S
C91 O97 1.208 . S
C92 O84 1.315 . S
C92 O87 1.279 . S
C93 O94 1.315 . S
C93 O95 1.279 . S
O94 Cd86 2.223 . S
O94 C93 1.315 . S
O95 Cd85 2.240 . S
O95 C93 1.279 . S
O96 Cd86 2.297 . S
O96 C91 1.247 . S
O97 Cd86 2.439 . S
O97 C91 1.208 . S
O98 Cd99 2.223 . S
O98 C106 1.315 . S
Cd99 O98 2.223 . S
Cd99 O102 2.297 1_565 S
Cd99 O103 2.439 1_565 S
Cd99 O109 2.240 . S
Cd100 O101 2.240 . S
Cd100 O108 2.223 . S
Cd100 O110 2.297 . S
Cd100 O111 2.439 . S
O101 Cd100 2.240 . S
O101 C106 1.279 . S
O102 Cd99 2.297 1_545 S
O102 C104 1.247 . S
O103 Cd99 2.439 1_545 S
O103 C104 1.208 . S
C104 O102 1.247 . S
C104 O103 1.208 . S
C105 O110 1.247 . S
C105 O111 1.208 . S
C106 O98 1.315 . S
C106 O101 1.279 . S
C107 O108 1.315 . S
C107 O109 1.279 . S
O108 Cd100 2.223 . S
O108 C107 1.315 . S
O109 Cd99 2.240 . S
O109 C107 1.279 . S
O110 Cd100 2.297 . S
O110 C105 1.247 . S
O111 Cd100 2.439 . S
O111 C105 1.208 . S
O112 Cd113 2.223 . S
O112 C120 1.315 . S
Cd113 O112 2.223 . S
Cd113 O116 2.297 . S
Cd113 O117 2.439 . S
Cd113 O123 2.240 . S
Cd114 O115 2.240 . S
Cd114 O122 2.223 . S
Cd114 O124 2.297 1_455 S
Cd114 O125 2.439 1_455 S
O115 Cd114 2.240 . S
O115 C120 1.279 . S
O116 Cd113 2.297 . S
O116 C118 1.247 . S
O117 Cd113 2.439 . S
O117 C118 1.208 . S
C118 O116 1.247 . S
C118 O117 1.208 . S
C119 O124 1.247 . S
C119 O125 1.208 . S
C120 O112 1.315 . S
C120 O115 1.279 . S
C121 O122 1.315 . S
C121 O123 1.279 . S
O122 Cd114 2.223 . S
O122 C121 1.315 . S
O123 Cd113 2.240 . S
O123 C121 1.279 . S
O124 Cd114 2.297 1_655 S
O124 C119 1.247 . S
O125 Cd114 2.439 1_655 S
O125 C119 1.208 . S
O126 Cd127 2.223 . S
O126 C134 1.315 . S
Cd127 O126 2.223 . S
Cd127 O130 2.297 . S
Cd127 O131 2.439 . S
Cd127 O137 2.240 . S
Cd128 O129 2.240 . S
Cd128 O136 2.223 . S
Cd128 O138 2.297 1_565 S
Cd128 O139 2.439 1_565 S
O129 Cd128 2.240 . S
O129 C134 1.279 . S
O130 Cd127 2.297 . S
O130 C132 1.247 . S
O131 Cd127 2.439 . S
O131 C132 1.208 . S
C132 O130 1.247 . S
C132 O131 1.208 . S
C133 O138 1.247 . S
C133 O139 1.208 . S
C134 O126 1.315 . S
C134 O129 1.279 . S
C135 O136 1.315 . S
C135 O137 1.279 . S
O136 Cd128 2.223 . S
O136 C135 1.315 . S
O137 Cd127 2.240 . S
O137 C135 1.279 . S
O138 Cd128 2.297 1_545 S
O138 C133 1.247 . S
O139 Cd128 2.439 1_545 S
O139 C133 1.208 . S
O140 Cd141 2.223 . S
O140 C148 1.315 . S
Cd141 O140 2.223 . S
Cd141 O144 2.297 . S
Cd141 O145 2.439 . S
Cd141 O151 2.240 . S
Cd142 O143 2.240 . S
Cd142 O150 2.223 . S
Cd142 O152 2.297 1_455 S
Cd142 O153 2.439 1_455 S
O143 Cd142 2.240 . S
O143 C148 1.279 . S
O144 Cd141 2.297 . S
O144 C146 1.247 . S
O145 Cd141 2.439 . S
O145 C146 1.208 . S
C146 O144 1.247 . S
C146 O145 1.208 . S
C147 O152 1.247 . S
C147 O153 1.208 . S
C148 O140 1.315 . S
C148 O143 1.279 . S
C149 O150 1.315 . S
C149 O151 1.279 . S
O150 Cd142 2.223 . S
O150 C149 1.315 . S
O151 Cd141 2.240 . S
O151 C149 1.279 . S
O152 Cd142 2.297 1_655 S
O152 C147 1.247 . S
O153 Cd142 2.439 1_655 S
O153 C147 1.208 . S
O154 Cd155 2.223 . S
O154 C162 1.315 . S
Cd155 O154 2.223 . S
Cd155 O158 2.297 . S
Cd155 O159 2.439 . S
Cd155 O165 2.240 . S
Cd156 O157 2.240 . S
Cd156 O164 2.223 . S
Cd156 O166 2.297 . S
Cd156 O167 2.439 . S
O157 Cd156 2.240 . S
O157 C162 1.279 . S
O158 Cd155 2.297 . S
O158 C160 1.247 . S
O159 Cd155 2.439 . S
O159 C160 1.208 . S
C160 O158 1.247 . S
C160 O159 1.208 . S
C161 O166 1.247 . S
C161 O167 1.208 . S
C162 O154 1.315 . S
C162 O157 1.279 . S
C163 O164 1.315 . S
C163 O165 1.279 . S
O164 Cd156 2.223 . S
O164 C163 1.315 . S
O165 Cd155 2.240 . S
O165 C163 1.279 . S
O166 Cd156 2.297 . S
O166 C161 1.247 . S
O167 Cd156 2.439 . S
O167 C161 1.208 . S
O168 Cd169 2.223 . S
O168 C176 1.315 . S
Cd169 O168 2.223 . S
Cd169 O172 2.297 . S
Cd169 O173 2.439 . S
Cd169 O179 2.240 . S
Cd170 O171 2.240 . S
Cd170 O178 2.223 . S
Cd170 O180 2.297 1_545 S
Cd170 O181 2.439 1_545 S
O171 Cd170 2.240 . S
O171 C176 1.279 . S
O172 Cd169 2.297 . S
O172 C174 1.247 . S
O173 Cd169 2.439 . S
O173 C174 1.208 . S
C174 O172 1.247 . S
C174 O173 1.208 . S
C175 O180 1.247 . S
C175 O181 1.208 . S
C176 O168 1.315 . S
C176 O171 1.279 . S
C177 O178 1.315 . S
C177 O179 1.279 . S
O178 Cd170 2.223 . S
O178 C177 1.315 . S
O179 Cd169 2.240 . S
O179 C177 1.279 . S
O180 Cd170 2.297 1_565 S
O180 C175 1.247 . S
O181 Cd170 2.439 1_565 S
O181 C175 1.208 . S
O182 Cd183 2.223 . S
O182 C190 1.315 . S
Cd183 O182 2.223 . S
Cd183 O186 2.297 . S
Cd183 O187 2.439 . S
Cd183 O193 2.240 . S
Cd184 O185 2.240 . S
Cd184 O192 2.223 . S
Cd184 O194 2.297 1_655 S
Cd184 O195 2.439 1_655 S
O185 Cd184 2.240 . S
O185 C190 1.279 . S
O186 Cd183 2.297 . S
O186 C188 1.247 . S
O187 Cd183 2.439 . S
O187 C188 1.208 . S
C188 O186 1.247 . S
C188 O187 1.208 . S
C189 O194 1.247 . S
C189 O195 1.208 . S
C190 O182 1.315 . S
C190 O185 1.279 . S
C191 O192 1.315 . S
C191 O193 1.279 . S
O192 Cd184 2.223 . S
O192 C191 1.315 . S
O193 Cd183 2.240 . S
O193 C191 1.279 . S
O194 Cd184 2.297 1_455 S
O194 C189 1.247 . S
O195 Cd184 2.439 1_455 S
O195 C189 1.208 . S
O196 Cd197 2.223 . S
O196 C204 1.315 . S
Cd197 O196 2.223 . S
Cd197 O200 2.297 . S
Cd197 O201 2.439 . S
Cd197 O207 2.240 . S
Cd198 O199 2.240 . S
Cd198 O206 2.223 . S
Cd198 O208 2.297 . S
Cd198 O209 2.439 . S
O199 Cd198 2.240 . S
O199 C204 1.279 . S
O200 Cd197 2.297 . S
O200 C202 1.247 . S
O201 Cd197 2.439 . S
O201 C202 1.208 . S
C202 O200 1.247 . S
C202 O201 1.208 . S
C203 O208 1.247 . S
C203 O209 1.208 . S
C204 O196 1.315 . S
C204 O199 1.279 . S
C205 O206 1.315 . S
C205 O207 1.279 . S
O206 Cd198 2.223 . S
O206 C205 1.315 . S
O207 Cd197 2.240 . S
O207 C205 1.279 . S
O208 Cd198 2.297 . S
O208 C203 1.247 . S
O209 Cd198 2.439 . S
O209 C203 1.208 . S
O210 Cd211 2.223 . S
O210 C218 1.315 . S
Cd211 O210 2.223 . S
Cd211 O214 2.297 . S
Cd211 O215 2.439 . S
Cd211 O221 2.240 . S
Cd212 O213 2.240 . S
Cd212 O220 2.223 . S
Cd212 O222 2.297 . S
Cd212 O223 2.439 . S
O213 Cd212 2.240 . S
O213 C218 1.279 . S
O214 Cd211 2.297 . S
O214 C216 1.247 . S
O215 Cd211 2.439 . S
O215 C216 1.208 . S
C216 O214 1.247 . S
C216 O215 1.208 . S
C217 O222 1.247 . S
C217 O223 1.208 . S
C218 O210 1.315 . S
C218 O213 1.279 . S
C219 O220 1.315 . S
C219 O221 1.279 . S
O220 Cd212 2.223 . S
O220 C219 1.315 . S
O221 Cd211 2.240 . S
O221 C219 1.279 . S
O222 Cd212 2.297 . S
O222 C217 1.247 . S
O223 Cd212 2.439 . S
O223 C217 1.208 . S
O224 Cd225 2.223 . S
O224 C232 1.315 . S
Cd225 O224 2.223 . S
Cd225 O228 2.297 1_545 S
Cd225 O229 2.439 1_545 S
Cd225 O235 2.240 . S
Cd226 O227 2.240 . S
Cd226 O234 2.223 . S
Cd226 O236 2.297 . S
Cd226 O237 2.439 . S
O227 Cd226 2.240 . S
O227 C232 1.279 . S
O228 Cd225 2.297 1_565 S
O228 C230 1.247 . S
O229 Cd225 2.439 1_565 S
O229 C230 1.208 . S
C230 O228 1.247 . S
C230 O229 1.208 . S
C231 O236 1.247 . S
C231 O237 1.208 . S
C232 O224 1.315 . S
C232 O227 1.279 . S
C233 O234 1.315 . S
C233 O235 1.279 . S
O234 Cd226 2.223 . S
O234 C233 1.315 . S
O235 Cd225 2.240 . S
O235 C233 1.279 . S
O236 Cd226 2.297 . S
O236 C231 1.247 . S
O237 Cd226 2.439 . S
O237 C231 1.208 . S
O238 Cd239 2.223 . S
O238 C246 1.315 . S
Cd239 O238 2.223 . S
Cd239 O242 2.297 . S
Cd239 O243 2.439 . S
Cd239 O249 2.240 . S
Cd240 O241 2.240 . S
Cd240 O248 2.223 . S
Cd240 O250 2.297 1_655 S
Cd240 O251 2.439 1_655 S
O241 Cd240 2.240 . S
O241 C246 1.279 . S
O242 Cd239 2.297 . S
O242 C244 1.247 . S
O243 Cd239 2.439 . S
O243 C244 1.208 . S
C244 O242 1.247 . S
C244 O243 1.208 . S
C245 O250 1.247 . S
C245 O251 1.208 . S
C246 O238 1.315 . S
C246 O241 1.279 . S
C247 O248 1.315 . S
C247 O249 1.279 . S
O248 Cd240 2.223 . S
O248 C247 1.315 . S
O249 Cd239 2.240 . S
O249 C247 1.279 . S
O250 Cd240 2.297 1_455 S
O250 C245 1.247 . S
O251 Cd240 2.439 1_455 S
O251 C245 1.208 . S
C252 C253 1.384 . S
C252 C254 1.384 . S
C252 H280 0.931 . S
C253 C252 1.384 . S
C253 C256 1.382 . S
C254 C252 1.384 . S
C254 C255 1.381 . S
C254 H281 0.930 . S
C255 C254 1.381 . S
C255 C257 1.381 . S
C255 C258 1.487 . S
C256 C253 1.382 . S
C256 C257 1.387 . S
C256 H282 0.930 . S
C257 C255 1.381 . S
C257 C256 1.387 . S
C257 H283 0.931 . S
C258 C255 1.487 . S
C258 C265 1.399 . S
C258 N296 1.343 . S
C259 C260 1.384 . S
C259 C261 1.384 . S
C259 H284 0.931 . S
C260 C259 1.384 . S
C260 C263 1.382 . S
C261 C259 1.384 . S
C261 C262 1.381 . S
C261 H285 0.930 . S
C262 C261 1.381 . S
C262 C264 1.381 . S
C262 C265 1.487 . S
C263 C260 1.382 . S
C263 C264 1.387 . S
C263 H286 0.930 . S
C264 C262 1.381 . S
C264 C263 1.387 . S
C264 H287 0.931 . S
C265 C258 1.399 . S
C265 C262 1.487 . S
C265 N297 1.343 . S
C266 C267 1.384 . S
C266 C268 1.384 . S
C266 H288 0.931 . S
C267 C266 1.384 . S
C267 C270 1.382 . S
C268 C266 1.384 . S
C268 C269 1.381 . S
C268 H289 0.930 . S
C269 C268 1.381 . S
C269 C271 1.381 . S
C269 C272 1.487 . S
C270 C267 1.382 . S
C270 C271 1.387 . S
C270 H290 0.930 . S
C271 C269 1.381 . S
C271 C270 1.387 . S
C271 H291 0.931 . S
C272 C269 1.487 . S
C272 C279 1.399 . S
C272 N297 1.343 . S
C273 C274 1.384 . S
C273 C275 1.384 . S
C273 H292 0.931 . S
C274 C273 1.384 . S
C274 C277 1.382 . S
C275 C273 1.384 . S
C275 C276 1.381 . S
C275 H293 0.930 . S
C276 C275 1.381 . S
C276 C278 1.381 . S
C276 C279 1.487 . S
C277 C274 1.382 . S
C277 C278 1.387 . S
C277 H294 0.930 . S
C278 C276 1.381 . S
C278 C277 1.387 . S
C278 H295 0.931 . S
C279 C272 1.399 . S
C279 C276 1.487 . S
C279 N296 1.343 . S
H280 C252 0.931 . S
H281 C254 0.930 . S
H282 C256 0.930 . S
H283 C257 0.931 . S
H284 C259 0.931 . S
H285 C261 0.930 . S
H286 C263 0.930 . S
H287 C264 0.931 . S
H288 C266 0.931 . S
H289 C268 0.930 . S
H290 C270 0.930 . S
H291 C271 0.931 . S
H292 C273 0.931 . S
H293 C275 0.930 . S
H294 C277 0.930 . S
H295 C278 0.931 . S
N296 C258 1.343 . S
N296 C279 1.343 . S
N297 C265 1.343 . S
N297 C272 1.343 . S
C298 C299 1.384 . S
C298 C300 1.384 . S
C298 H326 0.931 . S
C299 C298 1.384 . S
C299 C302 1.382 . S
C300 C298 1.384 . S
C300 C301 1.381 . S
C300 H327 0.930 . S
C301 C300 1.381 . S
C301 C303 1.381 . S
C301 C304 1.487 . S
C302 C299 1.382 . S
C302 C303 1.387 . S
C302 H328 0.930 . S
C303 C301 1.381 . S
C303 C302 1.387 . S
C303 H329 0.931 . S
C304 C301 1.487 . S
C304 C311 1.399 . S
C304 N342 1.343 . S
C305 C306 1.384 . S
C305 C307 1.384 . S
C305 H330 0.931 . S
C306 C305 1.384 . S
C306 C309 1.382 . S
C307 C305 1.384 . S
C307 C308 1.381 . S
C307 H331 0.930 . S
C308 C307 1.381 . S
C308 C310 1.381 . S
C308 C311 1.487 . S
C309 C306 1.382 . S
C309 C310 1.387 . S
C309 H332 0.930 . S
C310 C308 1.381 . S
C310 C309 1.387 . S
C310 H333 0.931 . S
C311 C304 1.399 . S
C311 C308 1.487 . S
C311 N343 1.343 . S
C312 C313 1.384 . S
C312 C314 1.384 . S
C312 H334 0.931 . S
C313 C312 1.384 . S
C313 C316 1.382 . S
C314 C312 1.384 . S
C314 C315 1.381 . S
C314 H335 0.930 . S
C315 C314 1.381 . S
C315 C317 1.381 . S
C315 C318 1.487 . S
C316 C313 1.382 . S
C316 C317 1.387 . S
C316 H336 0.930 . S
C317 C315 1.381 . S
C317 C316 1.387 . S
C317 H337 0.931 . S
C318 C315 1.487 . S
C318 C325 1.399 . S
C318 N343 1.343 . S
C319 C320 1.384 . S
C319 C321 1.384 . S
C319 H338 0.931 . S
C320 C319 1.384 . S
C320 C323 1.382 . S
C321 C319 1.384 . S
C321 C322 1.381 . S
C321 H339 0.930 . S
C322 C321 1.381 . S
C322 C324 1.381 . S
C322 C325 1.487 . S
C323 C320 1.382 . S
C323 C324 1.387 . S
C323 H340 0.930 . S
C324 C322 1.381 . S
C324 C323 1.387 . S
C324 H341 0.931 . S
C325 C318 1.399 . S
C325 C322 1.487 . S
C325 N342 1.343 . S
H326 C298 0.931 . S
H327 C300 0.930 . S
H328 C302 0.930 . S
H329 C303 0.931 . S
H330 C305 0.931 . S
H331 C307 0.930 . S
H332 C309 0.930 . S
H333 C310 0.931 . S
H334 C312 0.931 . S
H335 C314 0.930 . S
H336 C316 0.930 . S
H337 C317 0.931 . S
H338 C319 0.931 . S
H339 C321 0.930 . S
H340 C323 0.930 . S
H341 C324 0.931 . S
N342 C304 1.343 . S
N342 C325 1.343 . S
N343 C311 1.343 . S
N343 C318 1.343 . S
C344 C345 1.384 . S
C344 C346 1.384 . S
C344 H372 0.931 . S
C345 C344 1.384 . S
C345 C348 1.382 . S
C346 C344 1.384 . S
C346 C347 1.381 . S
C346 H373 0.930 . S
C347 C346 1.381 . S
C347 C349 1.381 . S
C347 C350 1.487 . S
C348 C345 1.382 . S
C348 C349 1.387 . S
C348 H374 0.930 . S
C349 C347 1.381 . S
C349 C348 1.387 . S
C349 H375 0.931 . S
C350 C347 1.487 . S
C350 C357 1.399 . S
C350 N388 1.343 . S
C351 C352 1.384 . S
C351 C353 1.384 . S
C351 H376 0.931 . S
C352 C351 1.384 . S
C352 C355 1.382 . S
C353 C351 1.384 . S
C353 C354 1.381 . S
C353 H377 0.930 . S
C354 C353 1.381 . S
C354 C356 1.381 . S
C354 C357 1.487 . S
C355 C352 1.382 . S
C355 C356 1.387 . S
C355 H378 0.930 . S
C356 C354 1.381 . S
C356 C355 1.387 . S
C356 H379 0.931 . S
C357 C350 1.399 . S
C357 C354 1.487 . S
C357 N389 1.343 . S
C358 C359 1.384 . S
C358 C360 1.384 . S
C358 H380 0.931 . S
C359 C358 1.384 . S
C359 C362 1.382 . S
C360 C358 1.384 . S
C360 C361 1.381 . S
C360 H381 0.930 . S
C361 C360 1.381 . S
C361 C363 1.381 . S
C361 C364 1.487 . S
C362 C359 1.382 . S
C362 C363 1.387 . S
C362 H382 0.930 . S
C363 C361 1.381 . S
C363 C362 1.387 . S
C363 H383 0.931 . S
C364 C361 1.487 . S
C364 C371 1.399 . S
C364 N389 1.343 . S
C365 C366 1.384 . S
C365 C367 1.384 . S
C365 H384 0.931 . S
C366 C365 1.384 . S
C366 C369 1.382 . S
C367 C365 1.384 . S
C367 C368 1.381 . S
C367 H385 0.930 . S
C368 C367 1.381 . S
C368 C370 1.381 . S
C368 C371 1.487 . S
C369 C366 1.382 . S
C369 C370 1.387 . S
C369 H386 0.930 . S
C370 C368 1.381 . S
C370 C369 1.387 . S
C370 H387 0.931 . S
C371 C364 1.399 . S
C371 C368 1.487 . S
C371 N388 1.343 . S
H372 C344 0.931 . S
H373 C346 0.930 . S
H374 C348 0.930 . S
H375 C349 0.931 . S
H376 C351 0.931 . S
H377 C353 0.930 . S
H378 C355 0.930 . S
H379 C356 0.931 . S
H380 C358 0.931 . S
H381 C360 0.930 . S
H382 C362 0.930 . S
H383 C363 0.931 . S
H384 C365 0.931 . S
H385 C367 0.930 . S
H386 C369 0.930 . S
H387 C370 0.931 . S
N388 C350 1.343 . S
N388 C371 1.343 . S
N389 C357 1.343 . S
N389 C364 1.343 . S
C390 C391 1.384 . S
C390 C392 1.384 . S
C390 H418 0.931 . S
C391 C390 1.384 . S
C391 C394 1.382 . S
C392 C390 1.384 . S
C392 C393 1.381 . S
C392 H419 0.930 . S
C393 C392 1.381 . S
C393 C395 1.381 . S
C393 C396 1.487 . S
C394 C391 1.382 . S
C394 C395 1.387 . S
C394 H420 0.930 . S
C395 C393 1.381 . S
C395 C394 1.387 . S
C395 H421 0.931 . S
C396 C393 1.487 . S
C396 C403 1.399 . S
C396 N434 1.343 . S
C397 C398 1.384 . S
C397 C399 1.384 . S
C397 H422 0.931 . S
C398 C397 1.384 . S
C398 C401 1.382 . S
C399 C397 1.384 . S
C399 C400 1.381 . S
C399 H423 0.930 . S
C400 C399 1.381 . S
C400 C402 1.381 . S
C400 C403 1.487 . S
C401 C398 1.382 . S
C401 C402 1.387 . S
C401 H424 0.930 . S
C402 C400 1.381 . S
C402 C401 1.387 . S
C402 H425 0.931 . S
C403 C396 1.399 . S
C403 C400 1.487 . S
C403 N435 1.343 . S
C404 C405 1.384 . S
C404 C406 1.384 . S
C404 H426 0.931 . S
C405 C404 1.384 . S
C405 C408 1.382 . S
C406 C404 1.384 . S
C406 C407 1.381 . S
C406 H427 0.930 . S
C407 C406 1.381 . S
C407 C409 1.381 . S
C407 C410 1.487 . S
C408 C405 1.382 . S
C408 C409 1.387 . S
C408 H428 0.930 . S
C409 C407 1.381 . S
C409 C408 1.387 . S
C409 H429 0.931 . S
C410 C407 1.487 . S
C410 C417 1.399 . S
C410 N435 1.343 . S
C411 C412 1.384 . S
C411 C413 1.384 . S
C411 H430 0.931 . S
C412 C411 1.384 . S
C412 C415 1.382 . S
C413 C411 1.384 . S
C413 C414 1.381 . S
C413 H431 0.930 . S
C414 C413 1.381 . S
C414 C416 1.381 . S
C414 C417 1.487 . S
C415 C412 1.382 . S
C415 C416 1.387 . S
C415 H432 0.930 . S
C416 C414 1.381 . S
C416 C415 1.387 . S
C416 H433 0.931 . S
C417 C410 1.399 . S
C417 C414 1.487 . S
C417 N434 1.343 . S
H418 C390 0.931 . S
H419 C392 0.930 . S
H420 C394 0.930 . S
H421 C395 0.931 . S
H422 C397 0.931 . S
H423 C399 0.930 . S
H424 C401 0.930 . S
H425 C402 0.931 . S
H426 C404 0.931 . S
H427 C406 0.930 . S
H428 C408 0.930 . S
H429 C409 0.931 . S
H430 C411 0.931 . S
H431 C413 0.930 . S
H432 C415 0.930 . S
H433 C416 0.931 . S
N434 C396 1.343 . S
N434 C417 1.343 . S
N435 C403 1.343 . S
N435 C410 1.343 . S
C436 C437 1.384 . S
C436 C438 1.384 . S
C436 H464 0.931 . S
C437 C436 1.384 . S
C437 C440 1.382 . S
C438 C436 1.384 . S
C438 C439 1.381 . S
C438 H465 0.930 . S
C439 C438 1.381 . S
C439 C441 1.381 . S
C439 C442 1.487 . S
C440 C437 1.382 . S
C440 C441 1.387 . S
C440 H466 0.930 . S
C441 C439 1.381 . S
C441 C440 1.387 . S
C441 H467 0.931 . S
C442 C439 1.487 . S
C442 C449 1.399 . S
C442 N480 1.343 . S
C443 C444 1.384 . S
C443 C445 1.384 . S
C443 H468 0.931 . S
C444 C443 1.384 . S
C444 C447 1.382 . S
C445 C443 1.384 . S
C445 C446 1.381 . S
C445 H469 0.930 . S
C446 C445 1.381 . S
C446 C448 1.381 . S
C446 C449 1.487 . S
C447 C444 1.382 . S
C447 C448 1.387 . S
C447 H470 0.930 . S
C448 C446 1.381 . S
C448 C447 1.387 . S
C448 H471 0.931 . S
C449 C442 1.399 . S
C449 C446 1.487 . S
C449 N481 1.343 . S
C450 C451 1.384 . S
C450 C452 1.384 . S
C450 H472 0.931 . S
C451 C450 1.384 . S
C451 C454 1.382 . S
C452 C450 1.384 . S
C452 C453 1.381 . S
C452 H473 0.930 . S
C453 C452 1.381 . S
C453 C455 1.381 . S
C453 C456 1.487 . S
C454 C451 1.382 . S
C454 C455 1.387 . S
C454 H474 0.930 . S
C455 C453 1.381 . S
C455 C454 1.387 . S
C455 H475 0.931 . S
C456 C453 1.487 . S
C456 C463 1.399 . S
C456 N481 1.343 . S
C457 C458 1.384 . S
C457 C459 1.384 . S
C457 H476 0.931 . S
C458 C457 1.384 . S
C458 C461 1.382 . S
C459 C457 1.384 . S
C459 C460 1.381 . S
C459 H477 0.930 . S
C460 C459 1.381 . S
C460 C462 1.381 . S
C460 C463 1.487 . S
C461 C458 1.382 . S
C461 C462 1.387 . S
C461 H478 0.930 . S
C462 C460 1.381 . S
C462 C461 1.387 . S
C462 H479 0.931 . S
C463 C456 1.399 . S
C463 C460 1.487 . S
C463 N480 1.343 . S
H464 C436 0.931 . S
H465 C438 0.930 . S
H466 C440 0.930 . S
H467 C441 0.931 . S
H468 C443 0.931 . S
H469 C445 0.930 . S
H470 C447 0.930 . S
H471 C448 0.931 . S
H472 C450 0.931 . S
H473 C452 0.930 . S
H474 C454 0.930 . S
H475 C455 0.931 . S
H476 C457 0.931 . S
H477 C459 0.930 . S
H478 C461 0.930 . S
H479 C462 0.931 . S
N480 C442 1.343 . S
N480 C463 1.343 . S
N481 C449 1.343 . S
N481 C456 1.343 . S
C482 C483 1.384 . S
C482 C484 1.384 . S
C482 H510 0.931 . S
C483 C482 1.384 . S
C483 C486 1.382 . S
C484 C482 1.384 . S
C484 C485 1.381 . S
C484 H511 0.930 . S
C485 C484 1.381 . S
C485 C487 1.381 . S
C485 C488 1.487 . S
C486 C483 1.382 . S
C486 C487 1.387 . S
C486 H512 0.930 . S
C487 C485 1.381 . S
C487 C486 1.387 . S
C487 H513 0.931 . S
C488 C485 1.487 . S
C488 C495 1.399 . S
C488 N526 1.343 . S
C489 C490 1.384 . S
C489 C491 1.384 . S
C489 H514 0.931 . S
C490 C489 1.384 . S
C490 C493 1.382 . S
C491 C489 1.384 . S
C491 C492 1.381 . S
C491 H515 0.930 . S
C492 C491 1.381 . S
C492 C494 1.381 . S
C492 C495 1.487 . S
C493 C490 1.382 . S
C493 C494 1.387 . S
C493 H516 0.930 . S
C494 C492 1.381 . S
C494 C493 1.387 . S
C494 H517 0.931 . S
C495 C488 1.399 . S
C495 C492 1.487 . S
C495 N527 1.343 . S
C496 C497 1.384 . S
C496 C498 1.384 . S
C496 H518 0.931 . S
C497 C496 1.384 . S
C497 C500 1.382 . S
C498 C496 1.384 . S
C498 C499 1.381 . S
C498 H519 0.930 . S
C499 C498 1.381 . S
C499 C501 1.381 . S
C499 C502 1.487 . S
C500 C497 1.382 . S
C500 C501 1.387 . S
C500 H520 0.930 . S
C501 C499 1.381 . S
C501 C500 1.387 . S
C501 H521 0.931 . S
C502 C499 1.487 . S
C502 C509 1.399 . S
C502 N527 1.343 . S
C503 C504 1.384 . S
C503 C505 1.384 . S
C503 H522 0.931 . S
C504 C503 1.384 . S
C504 C507 1.382 . S
C505 C503 1.384 . S
C505 C506 1.381 . S
C505 H523 0.930 . S
C506 C505 1.381 . S
C506 C508 1.381 . S
C506 C509 1.487 . S
C507 C504 1.382 . S
C507 C508 1.387 . S
C507 H524 0.930 . S
C508 C506 1.381 . S
C508 C507 1.387 . S
C508 H525 0.931 . S
C509 C502 1.399 . S
C509 C506 1.487 . S
C509 N526 1.343 . S
H510 C482 0.931 . S
H511 C484 0.930 . S
H512 C486 0.930 . S
H513 C487 0.931 . S
H514 C489 0.931 . S
H515 C491 0.930 . S
H516 C493 0.930 . S
H517 C494 0.931 . S
H518 C496 0.931 . S
H519 C498 0.930 . S
H520 C500 0.930 . S
H521 C501 0.931 . S
H522 C503 0.931 . S
H523 C505 0.930 . S
H524 C507 0.930 . S
H525 C508 0.931 . S
N526 C488 1.343 . S
N526 C509 1.343 . S
N527 C495 1.343 . S
N527 C502 1.343 . S
C528 C529 1.384 . S
C528 C530 1.384 . S
C528 H556 0.931 . S
C529 C528 1.384 . S
C529 C532 1.382 . S
C530 C528 1.384 . S
C530 C531 1.381 . S
C530 H557 0.930 . S
C531 C530 1.381 . S
C531 C533 1.381 . S
C531 C534 1.487 . S
C532 C529 1.382 . S
C532 C533 1.387 . S
C532 H558 0.930 . S
C533 C531 1.381 . S
C533 C532 1.387 . S
C533 H559 0.931 . S
C534 C531 1.487 . S
C534 C541 1.399 . S
C534 N572 1.343 . S
C535 C536 1.384 . S
C535 C537 1.384 . S
C535 H560 0.931 . S
C536 C535 1.384 . S
C536 C539 1.382 . S
C537 C535 1.384 . S
C537 C538 1.381 . S
C537 H561 0.930 . S
C538 C537 1.381 . S
C538 C540 1.381 . S
C538 C541 1.487 . S
C539 C536 1.382 . S
C539 C540 1.387 . S
C539 H562 0.930 . S
C540 C538 1.381 . S
C540 C539 1.387 . S
C540 H563 0.931 . S
C541 C534 1.399 . S
C541 C538 1.487 . S
C541 N573 1.343 . S
C542 C543 1.384 . S
C542 C544 1.384 . S
C542 H564 0.931 . S
C543 C542 1.384 . S
C543 C546 1.382 . S
C544 C542 1.384 . S
C544 C545 1.381 . S
C544 H565 0.930 . S
C545 C544 1.381 . S
C545 C547 1.381 . S
C545 C548 1.487 . S
C546 C543 1.382 . S
C546 C547 1.387 . S
C546 H566 0.930 . S
C547 C545 1.381 . S
C547 C546 1.387 . S
C547 H567 0.931 . S
C548 C545 1.487 . S
C548 C555 1.399 . S
C548 N573 1.343 . S
C549 C550 1.384 . S
C549 C551 1.384 . S
C549 H568 0.931 . S
C550 C549 1.384 . S
C550 C553 1.382 . S
C551 C549 1.384 . S
C551 C552 1.381 . S
C551 H569 0.930 . S
C552 C551 1.381 . S
C552 C554 1.381 . S
C552 C555 1.487 . S
C553 C550 1.382 . S
C553 C554 1.387 . S
C553 H570 0.930 . S
C554 C552 1.381 . S
C554 C553 1.387 . S
C554 H571 0.931 . S
C555 C548 1.399 . S
C555 C552 1.487 . S
C555 N572 1.343 . S
H556 C528 0.931 . S
H557 C530 0.930 . S
H558 C532 0.930 . S
H559 C533 0.931 . S
H560 C535 0.931 . S
H561 C537 0.930 . S
H562 C539 0.930 . S
H563 C540 0.931 . S
H564 C542 0.931 . S
H565 C544 0.930 . S
H566 C546 0.930 . S
H567 C547 0.931 . S
H568 C549 0.931 . S
H569 C551 0.930 . S
H570 C553 0.930 . S
H571 C554 0.931 . S
N572 C534 1.343 . S
N572 C555 1.343 . S
N573 C541 1.343 . S
N573 C548 1.343 . S
C574 C575 1.384 . S
C574 C576 1.384 . S
C574 H602 0.931 . S
C575 C574 1.384 . S
C575 C578 1.382 . S
C576 C574 1.384 . S
C576 C577 1.381 . S
C576 H603 0.930 . S
C577 C576 1.381 . S
C577 C579 1.381 . S
C577 C580 1.487 . S
C578 C575 1.382 . S
C578 C579 1.387 . S
C578 H604 0.930 . S
C579 C577 1.381 . S
C579 C578 1.387 . S
C579 H605 0.931 . S
C580 C577 1.487 . S
C580 C587 1.399 . S
C580 N618 1.343 . S
C581 C582 1.384 . S
C581 C583 1.384 . S
C581 H606 0.931 . S
C582 C581 1.384 . S
C582 C585 1.382 . S
C583 C581 1.384 . S
C583 C584 1.381 . S
C583 H607 0.930 . S
C584 C583 1.381 . S
C584 C586 1.381 . S
C584 C587 1.487 . S
C585 C582 1.382 . S
C585 C586 1.387 . S
C585 H608 0.930 . S
C586 C584 1.381 . S
C586 C585 1.387 . S
C586 H609 0.931 . S
C587 C580 1.399 . S
C587 C584 1.487 . S
C587 N619 1.343 . S
C588 C589 1.384 . S
C588 C590 1.384 . S
C588 H610 0.931 . S
C589 C588 1.384 . S
C589 C592 1.382 . S
C590 C588 1.384 . S
C590 C591 1.381 . S
C590 H611 0.930 . S
C591 C590 1.381 . S
C591 C593 1.381 . S
C591 C594 1.487 . S
C592 C589 1.382 . S
C592 C593 1.387 . S
C592 H612 0.930 . S
C593 C591 1.381 . S
C593 C592 1.387 . S
C593 H613 0.931 . S
C594 C591 1.487 . S
C594 C601 1.399 . S
C594 N619 1.343 . S
C595 C596 1.384 . S
C595 C597 1.384 . S
C595 H614 0.931 . S
C596 C595 1.384 . S
C596 C599 1.382 . S
C597 C595 1.384 . S
C597 C598 1.381 . S
C597 H615 0.930 . S
C598 C597 1.381 . S
C598 C600 1.381 . S
C598 C601 1.487 . S
C599 C596 1.382 . S
C599 C600 1.387 . S
C599 H616 0.930 . S
C600 C598 1.381 . S
C600 C599 1.387 . S
C600 H617 0.931 . S
C601 C594 1.399 . S
C601 C598 1.487 . S
C601 N618 1.343 . S
H602 C574 0.931 . S
H603 C576 0.930 . S
H604 C578 0.930 . S
H605 C579 0.931 . S
H606 C581 0.931 . S
H607 C583 0.930 . S
H608 C585 0.930 . S
H609 C586 0.931 . S
H610 C588 0.931 . S
H611 C590 0.930 . S
H612 C592 0.930 . S
H613 C593 0.931 . S
H614 C595 0.931 . S
H615 C597 0.930 . S
H616 C599 0.930 . S
H617 C600 0.931 . S
N618 C580 1.343 . S
N618 C601 1.343 . S
N619 C587 1.343 . S
N619 C594 1.343 . S
C620 C621 1.384 . S
C620 C622 1.384 . S
C620 H648 0.931 . S
C621 C620 1.384 . S
C621 C624 1.382 . S
C622 C620 1.384 . S
C622 C623 1.381 . S
C622 H649 0.930 . S
C623 C622 1.381 . S
C623 C625 1.381 . S
C623 C626 1.487 . S
C624 C621 1.382 . S
C624 C625 1.387 . S
C624 H650 0.930 . S
C625 C623 1.381 . S
C625 C624 1.387 . S
C625 H651 0.931 . S
C626 C623 1.487 . S
C626 C633 1.399 . S
C626 N664 1.343 . S
C627 C628 1.384 . S
C627 C629 1.384 . S
C627 H652 0.931 . S
C628 C627 1.384 . S
C628 C631 1.382 . S
C629 C627 1.384 . S
C629 C630 1.381 . S
C629 H653 0.930 . S
C630 C629 1.381 . S
C630 C632 1.381 . S
C630 C633 1.487 . S
C631 C628 1.382 . S
C631 C632 1.387 . S
C631 H654 0.930 . S
C632 C630 1.381 . S
C632 C631 1.387 . S
C632 H655 0.931 . S
C633 C626 1.399 . S
C633 C630 1.487 . S
C633 N665 1.343 . S
C634 C635 1.384 . S
C634 C636 1.384 . S
C634 H656 0.931 . S
C635 C634 1.384 . S
C635 C638 1.382 . S
C636 C634 1.384 . S
C636 C637 1.381 . S
C636 H657 0.930 . S
C637 C636 1.381 . S
C637 C639 1.381 . S
C637 C640 1.487 . S
C638 C635 1.382 . S
C638 C639 1.387 . S
C638 H658 0.930 . S
C639 C637 1.381 . S
C639 C638 1.387 . S
C639 H659 0.931 . S
C640 C637 1.487 . S
C640 C647 1.399 . S
C640 N665 1.343 . S
C641 C642 1.384 . S
C641 C643 1.384 . S
C641 H660 0.931 . S
C642 C641 1.384 . S
C642 C645 1.382 . S
C643 C641 1.384 . S
C643 C644 1.381 . S
C643 H661 0.930 . S
C644 C643 1.381 . S
C644 C646 1.381 . S
C644 C647 1.487 . S
C645 C642 1.382 . S
C645 C646 1.387 . S
C645 H662 0.930 . S
C646 C644 1.381 . S
C646 C645 1.387 . S
C646 H663 0.931 . S
C647 C640 1.399 . S
C647 C644 1.487 . S
C647 N664 1.343 . S
H648 C620 0.931 . S
H649 C622 0.930 . S
H650 C624 0.930 . S
H651 C625 0.931 . S
H652 C627 0.931 . S
H653 C629 0.930 . S
H654 C631 0.930 . S
H655 C632 0.931 . S
H656 C634 0.931 . S
H657 C636 0.930 . S
H658 C638 0.930 . S
H659 C639 0.931 . S
H660 C641 0.931 . S
H661 C643 0.930 . S
H662 C645 0.930 . S
H663 C646 0.931 . S
N664 C626 1.343 . S
N664 C647 1.343 . S
N665 C633 1.343 . S
N665 C640 1.343 . S
C666 C667 1.384 . S
C666 C668 1.384 . S
C666 H694 0.931 . S
C667 C666 1.384 . S
C667 C670 1.382 1_655 S
C668 C666 1.384 . S
C668 C669 1.385 1_655 S
C668 H695 0.930 . S
C669 C668 1.385 1_455 S
C669 C671 1.379 . S
C669 C672 1.475 . S
C670 C667 1.382 1_455 S
C670 C671 1.387 . S
C670 H696 0.930 . S
C671 C669 1.379 . S
C671 C670 1.387 . S
C671 H697 0.931 . S
C672 C669 1.475 . S
C672 C679 1.398 1_455 S
C672 N710 1.314 . S
C673 C674 1.384 . S
C673 C675 1.384 . S
C673 H698 0.931 . S
C674 C673 1.384 . S
C674 C677 1.382 1_455 S
C675 C673 1.384 . S
C675 C676 1.380 . S
C675 H699 0.930 . S
C676 C675 1.380 . S
C676 C678 1.385 1_455 S
C676 C679 1.488 1_455 S
C677 C674 1.382 1_655 S
C677 C678 1.387 . S
C677 H700 0.930 . S
C678 C676 1.385 1_655 S
C678 C677 1.387 . S
C678 H701 0.931 . S
C679 C672 1.398 1_655 S
C679 C676 1.488 1_655 S
C679 N711 1.368 . S
C680 C681 1.384 . S
C680 C682 1.384 . S
C680 H702 0.931 . S
C681 C680 1.384 . S
C681 C684 1.382 1_455 S
C682 C680 1.384 . S
C682 C683 1.385 . S
C682 H703 0.930 . S
C683 C682 1.385 . S
C683 C685 1.379 1_455 S
C683 C686 1.484 1_455 S
C684 C681 1.382 1_655 S
C684 C685 1.387 . S
C684 H704 0.930 . S
C685 C683 1.379 1_655 S
C685 C684 1.387 . S
C685 H705 0.931 . S
C686 C683 1.484 1_655 S
C686 C693 1.398 1_655 S
C686 N711 1.314 . S
C687 C688 1.384 . S
C687 C689 1.384 . S
C687 H706 0.931 . S
C688 C687 1.384 . S
C688 C691 1.382 1_655 S
C689 C687 1.384 . S
C689 C690 1.380 1_655 S
C689 H707 0.930 . S
C690 C689 1.380 1_455 S
C690 C692 1.385 . S
C690 C693 1.497 . S
C691 C688 1.382 1_455 S
C691 C692 1.387 . S
C691 H708 0.930 . S
C692 C690 1.385 . S
C692 C691 1.387 . S
C692 H709 0.931 . S
C693 C686 1.398 1_455 S
C693 C690 1.497 . S
C693 N710 1.368 . S
H694 C666 0.931 . S
H695 C668 0.930 . S
H696 C670 0.930 . S
H697 C671 0.931 . S
H698 C673 0.931 . S
H699 C675 0.930 . S
H700 C677 0.930 . S
H701 C678 0.931 . S
H702 C680 0.931 . S
H703 C682 0.930 . S
H704 C684 0.930 . S
H705 C685 0.931 . S
H706 C687 0.931 . S
H707 C689 0.930 . S
H708 C691 0.930 . S
H709 C692 0.931 . S
N710 C672 1.314 . S
N710 C693 1.368 . S
N711 C679 1.368 . S
N711 C686 1.314 . S
C712 C713 1.384 . S
C712 C714 1.384 . S
C712 H740 0.931 . S
C713 C712 1.384 . S
C713 C716 1.382 . S
C714 C712 1.384 . S
C714 C715 1.381 . S
C714 H741 0.930 . S
C715 C714 1.381 . S
C715 C717 1.381 . S
C715 C718 1.487 . S
C716 C713 1.382 . S
C716 C717 1.387 . S
C716 H742 0.930 . S
C717 C715 1.381 . S
C717 C716 1.387 . S
C717 H743 0.931 . S
C718 C715 1.487 . S
C718 C725 1.399 . S
C718 N756 1.343 . S
C719 C720 1.384 . S
C719 C721 1.384 . S
C719 H744 0.931 . S
C720 C719 1.384 . S
C720 C723 1.382 . S
C721 C719 1.384 . S
C721 C722 1.381 . S
C721 H745 0.930 . S
C722 C721 1.381 . S
C722 C724 1.381 . S
C722 C725 1.487 . S
C723 C720 1.382 . S
C723 C724 1.387 . S
C723 H746 0.930 . S
C724 C722 1.381 . S
C724 C723 1.387 . S
C724 H747 0.931 . S
C725 C718 1.399 . S
C725 C722 1.487 . S
C725 N757 1.343 . S
C726 C727 1.384 . S
C726 C728 1.384 . S
C726 H748 0.931 . S
C727 C726 1.384 . S
C727 C730 1.382 . S
C728 C726 1.384 . S
C728 C729 1.381 . S
C728 H749 0.930 . S
C729 C728 1.381 . S
C729 C731 1.381 . S
C729 C732 1.487 . S
C730 C727 1.382 . S
C730 C731 1.387 . S
C730 H750 0.930 . S
C731 C729 1.381 . S
C731 C730 1.387 . S
C731 H751 0.931 . S
C732 C729 1.487 . S
C732 C739 1.399 . S
C732 N757 1.343 . S
C733 C734 1.384 . S
C733 C735 1.384 . S
C733 H752 0.931 . S
C734 C733 1.384 . S
C734 C737 1.382 . S
C735 C733 1.384 . S
C735 C736 1.381 . S
C735 H753 0.930 . S
C736 C735 1.381 . S
C736 C738 1.381 . S
C736 C739 1.487 . S
C737 C734 1.382 . S
C737 C738 1.387 . S
C737 H754 0.930 . S
C738 C736 1.381 . S
C738 C737 1.387 . S
C738 H755 0.931 . S
C739 C732 1.399 . S
C739 C736 1.487 . S
C739 N756 1.343 . S
H740 C712 0.931 . S
H741 C714 0.930 . S
H742 C716 0.930 . S
H743 C717 0.931 . S
H744 C719 0.931 . S
H745 C721 0.930 . S
H746 C723 0.930 . S
H747 C724 0.931 . S
H748 C726 0.931 . S
H749 C728 0.930 . S
H750 C730 0.930 . S
H751 C731 0.931 . S
H752 C733 0.931 . S
H753 C735 0.930 . S
H754 C737 0.930 . S
H755 C738 0.931 . S
N756 C718 1.343 . S
N756 C739 1.343 . S
N757 C725 1.343 . S
N757 C732 1.343 . S
C758 C759 1.384 1_545 S
C758 C760 1.384 . S
C758 H786 0.931 . S
C759 C758 1.384 1_565 S
C759 C762 1.382 . S
C760 C758 1.384 . S
C760 C761 1.381 1_545 S
C760 H787 0.930 . S
C761 C760 1.381 1_565 S
C761 C763 1.381 . S
C761 C764 1.487 . S
C762 C759 1.382 . S
C762 C763 1.387 . S
C762 H788 0.930 . S
C763 C761 1.381 . S
C763 C762 1.387 . S
C763 H789 0.931 . S
C764 C761 1.487 . S
C764 C771 1.391 1_565 S
C764 N802 1.343 . S
C765 C766 1.384 1_565 S
C765 C767 1.384 . S
C765 H790 0.931 . S
C766 C765 1.384 1_545 S
C766 C769 1.382 . S
C767 C765 1.384 . S
C767 C768 1.381 1_565 S
C767 H791 0.930 . S
C768 C767 1.381 1_545 S
C768 C770 1.381 . S
C768 C771 1.529 . S
C769 C766 1.382 . S
C769 C770 1.387 . S
C769 H792 0.930 . S
C770 C768 1.381 . S
C770 C769 1.387 . S
C770 H793 0.931 . S
C771 C764 1.391 1_545 S
C771 C768 1.529 . S
C771 N803 1.315 . S
C772 C773 1.384 1_565 S
C772 C774 1.384 . S
C772 H794 0.931 . S
C773 C772 1.384 1_545 S
C773 C776 1.382 . S
C774 C772 1.384 . S
C774 C775 1.381 1_565 S
C774 H795 0.930 . S
C775 C774 1.381 1_545 S
C775 C777 1.381 . S
C775 C778 1.458 . S
C776 C773 1.382 . S
C776 C777 1.387 . S
C776 H796 0.930 . S
C777 C775 1.381 . S
C777 C776 1.387 . S
C777 H797 0.931 . S
C778 C775 1.458 . S
C778 C785 1.391 1_545 S
C778 N803 1.388 . S
C779 C780 1.384 1_545 S
C779 C781 1.384 . S
C779 H798 0.931 . S
C780 C779 1.384 1_565 S
C780 C783 1.382 . S
C781 C779 1.384 . S
C781 C782 1.381 1_545 S
C781 H799 0.930 . S
C782 C781 1.381 1_565 S
C782 C784 1.381 . S
C782 C785 1.487 . S
C783 C780 1.382 . S
C783 C784 1.387 . S
C783 H800 0.930 . S
C784 C782 1.381 . S
C784 C783 1.387 . S
C784 H801 0.931 . S
C785 C778 1.391 1_565 S
C785 C782 1.487 . S
C785 N802 1.343 . S
H786 C758 0.931 . S
H787 C760 0.930 . S
H788 C762 0.930 . S
H789 C763 0.931 . S
H790 C765 0.931 . S
H791 C767 0.930 . S
H792 C769 0.930 . S
H793 C770 0.931 . S
H794 C772 0.931 . S
H795 C774 0.930 . S
H796 C776 0.930 . S
H797 C777 0.931 . S
H798 C779 0.931 . S
H799 C781 0.930 . S
H800 C783 0.930 . S
H801 C784 0.931 . S
N802 C764 1.343 . S
N802 C785 1.343 . S
N803 C771 1.315 . S
N803 C778 1.388 . S
C804 C805 1.384 . S
C804 C806 1.384 . S
C804 H832 0.931 . S
C805 C804 1.384 . S
C805 C808 1.382 1_545 S
C806 C804 1.384 . S
C806 C807 1.380 . S
C806 H833 0.930 . S
C807 C806 1.380 . S
C807 C809 1.385 1_545 S
C807 C810 1.488 1_545 S
C808 C805 1.382 1_565 S
C808 C809 1.387 . S
C808 H834 0.930 . S
C809 C807 1.385 1_565 S
C809 C808 1.387 . S
C809 H835 0.931 . S
C810 C807 1.488 1_565 S
C810 C817 1.398 1_565 S
C810 N848 1.368 . S
C811 C812 1.384 . S
C811 C813 1.384 . S
C811 H836 0.931 . S
C812 C811 1.384 . S
C812 C815 1.382 1_565 S
C813 C811 1.384 . S
C813 C814 1.384 1_565 S
C813 H837 0.930 . S
C814 C813 1.384 1_545 S
C814 C816 1.380 . S
C814 C817 1.475 . S
C815 C812 1.382 1_545 S
C815 C816 1.387 . S
C815 H838 0.930 . S
C816 C814 1.380 . S
C816 C815 1.387 . S
C816 H839 0.931 . S
C817 C810 1.398 1_545 S
C817 C814 1.475 . S
C817 N849 1.314 . S
C818 C819 1.384 . S
C818 C820 1.384 . S
C818 H840 0.931 . S
C819 C818 1.384 . S
C819 C822 1.382 1_565 S
C820 C818 1.384 . S
C820 C821 1.380 1_565 S
C820 H841 0.930 . S
C821 C820 1.380 1_545 S
C821 C823 1.385 . S
C821 C824 1.497 . S
C822 C819 1.382 1_545 S
C822 C823 1.387 . S
C822 H842 0.930 . S
C823 C821 1.385 . S
C823 C822 1.387 . S
C823 H843 0.931 . S
C824 C821 1.497 . S
C824 C831 1.398 1_545 S
C824 N849 1.368 . S
C825 C826 1.384 . S
C825 C827 1.384 . S
C825 H844 0.931 . S
C826 C825 1.384 . S
C826 C829 1.382 1_545 S
C827 C825 1.384 . S
C827 C828 1.384 . S
C827 H845 0.930 . S
C828 C827 1.384 . S
C828 C830 1.380 1_545 S
C828 C831 1.484 1_545 S
C829 C826 1.382 1_565 S
C829 C830 1.387 . S
C829 H846 0.930 . S
C830 C828 1.380 1_565 S
C830 C829 1.387 . S
C830 H847 0.931 . S
C831 C824 1.398 1_565 S
C831 C828 1.484 1_565 S
C831 N848 1.314 . S
H832 C804 0.931 . S
H833 C806 0.930 . S
H834 C808 0.930 . S
H835 C809 0.931 . S
H836 C811 0.931 . S
H837 C813 0.930 . S
H838 C815 0.930 . S
H839 C816 0.931 . S
H840 C818 0.931 . S
H841 C820 0.930 . S
H842 C822 0.930 . S
H843 C823 0.931 . S
H844 C825 0.931 . S
H845 C827 0.930 . S
H846 C829 0.930 . S
H847 C830 0.931 . S
N848 C810 1.368 . S
N848 C831 1.314 . S
N849 C817 1.314 . S
N849 C824 1.368 . S
C850 C851 1.384 . S
C850 C852 1.384 . S
C850 H878 0.931 . S
C851 C850 1.384 . S
C851 C854 1.382 1_655 S
C852 C850 1.384 . S
C852 C853 1.388 . S
C852 H879 0.930 . S
C853 C852 1.388 . S
C853 C855 1.378 1_655 S
C853 C856 1.483 1_655 S
C854 C851 1.382 1_455 S
C854 C855 1.387 . S
C854 H880 0.930 . S
C855 C853 1.378 1_455 S
C855 C854 1.387 . S
C855 H881 0.931 . S
C856 C853 1.483 1_455 S
C856 C863 1.399 1_455 S
C856 N894 1.315 . S
C857 C858 1.384 . S
C857 C859 1.384 . S
C857 H882 0.931 . S
C858 C857 1.384 . S
C858 C861 1.382 1_455 S
C859 C857 1.384 . S
C859 C860 1.381 1_455 S
C859 H883 0.930 . S
C860 C859 1.381 1_655 S
C860 C862 1.382 . S
C860 C863 1.498 . S
C861 C858 1.382 1_655 S
C861 C862 1.387 . S
C861 H884 0.930 . S
C862 C860 1.382 . S
C862 C861 1.387 . S
C862 H885 0.931 . S
C863 C856 1.399 1_655 S
C863 C860 1.498 . S
C863 N895 1.367 . S
C864 C865 1.384 . S
C864 C866 1.384 . S
C864 H886 0.931 . S
C865 C864 1.384 . S
C865 C868 1.382 1_455 S
C866 C864 1.384 . S
C866 C867 1.388 1_455 S
C866 H887 0.930 . S
C867 C866 1.388 1_655 S
C867 C869 1.378 . S
C867 C870 1.474 . S
C868 C865 1.382 1_655 S
C868 C869 1.387 . S
C868 H888 0.930 . S
C869 C867 1.378 . S
C869 C868 1.387 . S
C869 H889 0.931 . S
C870 C867 1.474 . S
C870 C877 1.399 1_655 S
C870 N895 1.315 . S
C871 C872 1.384 . S
C871 C873 1.384 . S
C871 H890 0.931 . S
C872 C871 1.384 . S
C872 C875 1.382 1_655 S
C873 C871 1.384 . S
C873 C874 1.381 . S
C873 H891 0.930 . S
C874 C873 1.381 . S
C874 C876 1.382 1_655 S
C874 C877 1.489 1_655 S
C875 C872 1.382 1_455 S
C875 C876 1.387 . S
C875 H892 0.930 . S
C876 C874 1.382 1_455 S
C876 C875 1.387 . S
C876 H893 0.931 . S
C877 C870 1.399 1_455 S
C877 C874 1.489 1_455 S
C877 N894 1.367 . S
H878 C850 0.931 . S
H879 C852 0.930 . S
H880 C854 0.930 . S
H881 C855 0.931 . S
H882 C857 0.931 . S
H883 C859 0.930 . S
H884 C861 0.930 . S
H885 C862 0.931 . S
H886 C864 0.931 . S
H887 C866 0.930 . S
H888 C868 0.930 . S
H889 C869 0.931 . S
H890 C871 0.931 . S
H891 C873 0.930 . S
H892 C875 0.930 . S
H893 C876 0.931 . S
N894 C856 1.315 . S
N894 C877 1.367 . S
N895 C863 1.367 . S
N895 C870 1.315 . S
C896 C897 1.384 . S
C896 C898 1.384 . S
C896 H924 0.931 . S
C897 C896 1.384 . S
C897 C900 1.382 . S
C898 C896 1.384 . S
C898 C899 1.381 . S
C898 H925 0.930 . S
C899 C898 1.381 . S
C899 C901 1.381 . S
C899 C902 1.487 . S
C900 C897 1.382 . S
C900 C901 1.387 . S
C900 H926 0.930 . S
C901 C899 1.381 . S
C901 C900 1.387 . S
C901 H927 0.931 . S
C902 C899 1.487 . S
C902 C909 1.399 . S
C902 N940 1.343 . S
C903 C904 1.384 . S
C903 C905 1.384 . S
C903 H928 0.931 . S
C904 C903 1.384 . S
C904 C907 1.382 . S
C905 C903 1.384 . S
C905 C906 1.381 . S
C905 H929 0.930 . S
C906 C905 1.381 . S
C906 C908 1.381 . S
C906 C909 1.487 . S
C907 C904 1.382 . S
C907 C908 1.387 . S
C907 H930 0.930 . S
C908 C906 1.381 . S
C908 C907 1.387 . S
C908 H931 0.931 . S
C909 C902 1.399 . S
C909 C906 1.487 . S
C909 N941 1.343 . S
C910 C911 1.384 . S
C910 C912 1.384 . S
C910 H932 0.931 . S
C911 C910 1.384 . S
C911 C914 1.382 . S
C912 C910 1.384 . S
C912 C913 1.381 . S
C912 H933 0.930 . S
C913 C912 1.381 . S
C913 C915 1.381 . S
C913 C916 1.487 . S
C914 C911 1.382 . S
C914 C915 1.387 . S
C914 H934 0.930 . S
C915 C913 1.381 . S
C915 C914 1.387 . S
C915 H935 0.931 . S
C916 C913 1.487 . S
C916 C923 1.399 . S
C916 N941 1.343 . S
C917 C918 1.384 . S
C917 C919 1.384 . S
C917 H936 0.931 . S
C918 C917 1.384 . S
C918 C921 1.382 . S
C919 C917 1.384 . S
C919 C920 1.381 . S
C919 H937 0.930 . S
C920 C919 1.381 . S
C920 C922 1.381 . S
C920 C923 1.487 . S
C921 C918 1.382 . S
C921 C922 1.387 . S
C921 H938 0.930 . S
C922 C920 1.381 . S
C922 C921 1.387 . S
C922 H939 0.931 . S
C923 C916 1.399 . S
C923 C920 1.487 . S
C923 N940 1.343 . S
H924 C896 0.931 . S
H925 C898 0.930 . S
H926 C900 0.930 . S
H927 C901 0.931 . S
H928 C903 0.931 . S
H929 C905 0.930 . S
H930 C907 0.930 . S
H931 C908 0.931 . S
H932 C910 0.931 . S
H933 C912 0.930 . S
H934 C914 0.930 . S
H935 C915 0.931 . S
H936 C917 0.931 . S
H937 C919 0.930 . S
H938 C921 0.930 . S
H939 C922 0.931 . S
N940 C902 1.343 . S
N940 C923 1.343 . S
N941 C909 1.343 . S
N941 C916 1.343 . S
C942 C943 1.384 . S
C942 C944 1.384 . S
C942 H970 0.931 . S
C943 C942 1.384 . S
C943 C946 1.382 . S
C944 C942 1.384 . S
C944 C945 1.381 . S
C944 H971 0.930 . S
C945 C944 1.381 . S
C945 C947 1.381 . S
C945 C948 1.487 . S
C946 C943 1.382 . S
C946 C947 1.387 . S
C946 H972 0.930 . S
C947 C945 1.381 . S
C947 C946 1.387 . S
C947 H973 0.931 . S
C948 C945 1.487 . S
C948 C955 1.399 . S
C948 N986 1.343 . S
C949 C950 1.384 . S
C949 C951 1.384 . S
C949 H974 0.931 . S
C950 C949 1.384 . S
C950 C953 1.382 . S
C951 C949 1.384 . S
C951 C952 1.381 . S
C951 H975 0.930 . S
C952 C951 1.381 . S
C952 C954 1.381 . S
C952 C955 1.487 . S
C953 C950 1.382 . S
C953 C954 1.387 . S
C953 H976 0.930 . S
C954 C952 1.381 . S
C954 C953 1.387 . S
C954 H977 0.931 . S
C955 C948 1.399 . S
C955 C952 1.487 . S
C955 N987 1.343 . S
C956 C957 1.384 . S
C956 C958 1.384 . S
C956 H978 0.931 . S
C957 C956 1.384 . S
C957 C960 1.382 . S
C958 C956 1.384 . S
C958 C959 1.381 . S
C958 H979 0.930 . S
C959 C958 1.381 . S
C959 C961 1.381 . S
C959 C962 1.487 . S
C960 C957 1.382 . S
C960 C961 1.387 . S
C960 H980 0.930 . S
C961 C959 1.381 . S
C961 C960 1.387 . S
C961 H981 0.931 . S
C962 C959 1.487 . S
C962 C969 1.399 . S
C962 N987 1.343 . S
C963 C964 1.384 . S
C963 C965 1.384 . S
C963 H982 0.931 . S
C964 C963 1.384 . S
C964 C967 1.382 . S
C965 C963 1.384 . S
C965 C966 1.381 . S
C965 H983 0.930 . S
C966 C965 1.381 . S
C966 C968 1.381 . S
C966 C969 1.487 . S
C967 C964 1.382 . S
C967 C968 1.387 . S
C967 H984 0.930 . S
C968 C966 1.381 . S
C968 C967 1.387 . S
C968 H985 0.931 . S
C969 C962 1.399 . S
C969 C966 1.487 . S
C969 N986 1.343 . S
H970 C942 0.931 . S
H971 C944 0.930 . S
H972 C946 0.930 . S
H973 C947 0.931 . S
H974 C949 0.931 . S
H975 C951 0.930 . S
H976 C953 0.930 . S
H977 C954 0.931 . S
H978 C956 0.931 . S
H979 C958 0.930 . S
H980 C960 0.930 . S
H981 C961 0.931 . S
H982 C963 0.931 . S
H983 C965 0.930 . S
H984 C967 0.930 . S
H985 C968 0.931 . S
N986 C948 1.343 . S
N986 C969 1.343 . S
N987 C955 1.343 . S
N987 C962 1.343 . S
C988 C989 1.384 . S
C988 C990 1.384 . S
C988 H1016 0.931 . S
C989 C988 1.384 . S
C989 C992 1.382 . S
C990 C988 1.384 . S
C990 C991 1.381 . S
C990 H1017 0.930 . S
C991 C990 1.381 . S
C991 C993 1.381 . S
C991 C994 1.487 . S
C992 C989 1.382 . S
C992 C993 1.387 . S
C992 H1018 0.930 . S
C993 C991 1.381 . S
C993 C992 1.387 . S
C993 H1019 0.931 . S
C994 C991 1.487 . S
C994 C1001 1.399 . S
C994 N1032 1.343 . S
C995 C996 1.384 . S
C995 C997 1.384 . S
C995 H1020 0.931 . S
C996 C995 1.384 . S
C996 C999 1.382 . S
C997 C995 1.384 . S
C997 C998 1.381 . S
C997 H1021 0.930 . S
C998 C997 1.381 . S
C998 C1000 1.381 . S
C998 C1001 1.487 . S
C999 C996 1.382 . S
C999 C1000 1.387 . S
C999 H1022 0.930 . S
C1000 C998 1.381 . S
C1000 C999 1.387 . S
C1000 H1023 0.931 . S
C1001 C994 1.399 . S
C1001 C998 1.487 . S
C1001 N1033 1.343 . S
C1002 C1003 1.384 . S
C1002 C1004 1.384 . S
C1002 H1024 0.931 . S
C1003 C1002 1.384 . S
C1003 C1006 1.382 . S
C1004 C1002 1.384 . S
C1004 C1005 1.381 . S
C1004 H1025 0.930 . S
C1005 C1004 1.381 . S
C1005 C1007 1.381 . S
C1005 C1008 1.487 . S
C1006 C1003 1.382 . S
C1006 C1007 1.387 . S
C1006 H1026 0.930 . S
C1007 C1005 1.381 . S
C1007 C1006 1.387 . S
C1007 H1027 0.931 . S
C1008 C1005 1.487 . S
C1008 C1015 1.399 . S
C1008 N1033 1.343 . S
C1009 C1010 1.384 . S
C1009 C1011 1.384 . S
C1009 H1028 0.931 . S
C1010 C1009 1.384 . S
C1010 C1013 1.382 . S
C1011 C1009 1.384 . S
C1011 C1012 1.381 . S
C1011 H1029 0.930 . S
C1012 C1011 1.381 . S
C1012 C1014 1.381 . S
C1012 C1015 1.487 . S
C1013 C1010 1.382 . S
C1013 C1014 1.387 . S
C1013 H1030 0.930 . S
C1014 C1012 1.381 . S
C1014 C1013 1.387 . S
C1014 H1031 0.931 . S
C1015 C1008 1.399 . S
C1015 C1012 1.487 . S
C1015 N1032 1.343 . S
H1016 C988 0.931 . S
H1017 C990 0.930 . S
H1018 C992 0.930 . S
H1019 C993 0.931 . S
H1020 C995 0.931 . S
H1021 C997 0.930 . S
H1022 C999 0.930 . S
H1023 C1000 0.931 . S
H1024 C1002 0.931 . S
H1025 C1004 0.930 . S
H1026 C1006 0.930 . S
H1027 C1007 0.931 . S
H1028 C1009 0.931 . S
H1029 C1011 0.930 . S
H1030 C1013 0.930 . S
H1031 C1014 0.931 . S
N1032 C994 1.343 . S
N1032 C1015 1.343 . S
N1033 C1001 1.343 . S
N1033 C1008 1.343 . S
C1034 C1035 1.384 . S
C1034 C1036 1.384 . S
C1034 H1062 0.931 . S
C1035 C1034 1.384 . S
C1035 C1038 1.382 . S
C1036 C1034 1.384 . S
C1036 C1037 1.381 . S
C1036 H1063 0.930 . S
C1037 C1036 1.381 . S
C1037 C1039 1.381 . S
C1037 C1040 1.487 . S
C1038 C1035 1.382 . S
C1038 C1039 1.387 . S
C1038 H1064 0.930 . S
C1039 C1037 1.381 . S
C1039 C1038 1.387 . S
C1039 H1065 0.931 . S
C1040 C1037 1.487 . S
C1040 C1047 1.399 . S
C1040 N1078 1.343 . S
C1041 C1042 1.384 . S
C1041 C1043 1.384 . S
C1041 H1066 0.931 . S
C1042 C1041 1.384 . S
C1042 C1045 1.382 . S
C1043 C1041 1.384 . S
C1043 C1044 1.381 . S
C1043 H1067 0.930 . S
C1044 C1043 1.381 . S
C1044 C1046 1.381 . S
C1044 C1047 1.487 . S
C1045 C1042 1.382 . S
C1045 C1046 1.387 . S
C1045 H1068 0.930 . S
C1046 C1044 1.381 . S
C1046 C1045 1.387 . S
C1046 H1069 0.931 . S
C1047 C1040 1.399 . S
C1047 C1044 1.487 . S
C1047 N1079 1.343 . S
C1048 C1049 1.384 . S
C1048 C1050 1.384 . S
C1048 H1070 0.931 . S
C1049 C1048 1.384 . S
C1049 C1052 1.382 . S
C1050 C1048 1.384 . S
C1050 C1051 1.381 . S
C1050 H1071 0.930 . S
C1051 C1050 1.381 . S
C1051 C1053 1.381 . S
C1051 C1054 1.487 . S
C1052 C1049 1.382 . S
C1052 C1053 1.387 . S
C1052 H1072 0.930 . S
C1053 C1051 1.381 . S
C1053 C1052 1.387 . S
C1053 H1073 0.931 . S
C1054 C1051 1.487 . S
C1054 C1061 1.399 . S
C1054 N1079 1.343 . S
C1055 C1056 1.384 . S
C1055 C1057 1.384 . S
C1055 H1074 0.931 . S
C1056 C1055 1.384 . S
C1056 C1059 1.382 . S
C1057 C1055 1.384 . S
C1057 C1058 1.381 . S
C1057 H1075 0.930 . S
C1058 C1057 1.381 . S
C1058 C1060 1.381 . S
C1058 C1061 1.487 . S
C1059 C1056 1.382 . S
C1059 C1060 1.387 . S
C1059 H1076 0.930 . S
C1060 C1058 1.381 . S
C1060 C1059 1.387 . S
C1060 H1077 0.931 . S
C1061 C1054 1.399 . S
C1061 C1058 1.487 . S
C1061 N1078 1.343 . S
H1062 C1034 0.931 . S
H1063 C1036 0.930 . S
H1064 C1038 0.930 . S
H1065 C1039 0.931 . S
H1066 C1041 0.931 . S
H1067 C1043 0.930 . S
H1068 C1045 0.930 . S
H1069 C1046 0.931 . S
H1070 C1048 0.931 . S
H1071 C1050 0.930 . S
H1072 C1052 0.930 . S
H1073 C1053 0.931 . S
H1074 C1055 0.931 . S
H1075 C1057 0.930 . S
H1076 C1059 0.930 . S
H1077 C1060 0.931 . S
N1078 C1040 1.343 . S
N1078 C1061 1.343 . S
N1079 C1047 1.343 . S
N1079 C1054 1.343 . S
H1080 C1098 0.951 . S
H1081 C1100 0.951 . S
H1082 C1102 0.950 . S
H1083 C1103 0.950 . S
H1084 C1105 0.950 . S
H1085 C1108 0.950 1_455 S
H1086 C1109 0.950 . S
H1087 C1111 0.950 . S
H1088 C1112 0.950 . S
H1089 C1113 0.951 . S
H1090 C1115 0.951 . S
H1091 C1117 0.950 . S
H1092 C1118 0.950 . S
H1093 C1120 0.950 . S
H1094 C1123 0.950 1_655 S
H1095 C1124 0.950 . S
H1096 C1126 0.950 . S
H1097 C1127 0.950 . S
C1098 H1080 0.951 . S
C1098 C1099 1.375 . S
C1098 C1100 1.388 . S
C1099 C1098 1.375 . S
C1099 C1103 1.379 1_655 S
C1100 H1081 0.951 . S
C1100 C1098 1.388 . S
C1100 C1101 1.388 . S
C1101 C1100 1.388 . S
C1101 C1102 1.376 1_655 S
C1101 C1104 1.508 . S
C1102 H1082 0.950 . S
C1102 C1101 1.376 1_455 S
C1102 C1103 1.374 . S
C1103 H1083 0.950 . S
C1103 C1099 1.379 1_455 S
C1103 C1102 1.374 . S
C1104 C1101 1.508 . S
C1104 C1105 1.367 1_655 S
C1104 C1106 1.402 . S
C1105 H1084 0.950 . S
C1105 C1104 1.367 1_455 S
C1105 C1121 1.377 . S
C1106 C1104 1.402 . S
C1106 C1107 1.524 . S
C1106 C1120 1.377 . S
C1107 C1106 1.524 . S
C1107 C1108 1.397 . S
C1107 C1112 1.363 . S
C1108 H1085 0.950 1_655 S
C1108 C1107 1.397 . S
C1108 C1109 1.334 . S
C1109 H1086 0.950 . S
C1109 C1108 1.334 . S
C1109 C1110 1.287 . S
C1110 C1109 1.287 . S
C1110 C1111 1.524 . S
C1110 H1129 0.913 . S
C1111 H1087 0.950 . S
C1111 C1110 1.524 . S
C1111 C1112 1.415 . S
C1112 H1088 0.950 . S
C1112 C1107 1.363 . S
C1112 C1111 1.415 . S
C1113 H1089 0.951 . S
C1113 C1114 1.366 1_455 S
C1113 C1115 1.388 . S
C1114 C1113 1.366 1_655 S
C1114 C1118 1.385 . S
C1115 H1090 0.951 . S
C1115 C1113 1.388 . S
C1115 C1116 1.366 1_455 S
C1116 C1115 1.366 1_655 S
C1116 C1117 1.414 . S
C1116 C1119 1.499 . S
C1117 H1091 0.950 . S
C1117 C1116 1.414 . S
C1117 C1118 1.374 . S
C1118 H1092 0.950 . S
C1118 C1114 1.385 . S
C1118 C1117 1.374 . S
C1119 C1116 1.499 . S
C1119 C1120 1.373 . S
C1119 C1121 1.389 1_655 S
C1120 H1093 0.950 . S
C1120 C1106 1.377 . S
C1120 C1119 1.373 . S
C1121 C1105 1.377 . S
C1121 C1119 1.389 1_455 S
C1121 C1122 1.524 . S
C1122 C1121 1.524 . S
C1122 C1123 1.397 . S
C1122 C1127 1.363 . S
C1123 H1094 0.950 1_455 S
C1123 C1122 1.397 . S
C1123 C1124 1.334 . S
C1124 H1095 0.950 . S
C1124 C1123 1.334 . S
C1124 C1125 1.287 . S
C1125 C1124 1.287 . S
C1125 C1126 1.524 . S
C1125 H1128 0.999 . S
C1126 H1096 0.950 . S
C1126 C1125 1.524 . S
C1126 C1127 1.415 . S
C1127 H1097 0.950 . S
C1127 C1122 1.363 . S
C1127 C1126 1.415 . S
H1128 C1125 0.999 . S
H1129 C1110 0.913 . S
H1130 C1148 0.951 . S
H1131 C1150 0.951 . S
H1132 C1152 0.950 . S
H1133 C1153 0.950 . S
H1134 C1155 0.950 . S
H1135 C1158 0.950 . S
H1136 C1159 0.950 . S
H1137 C1161 0.950 . S
H1138 C1162 0.950 . S
H1139 C1163 0.951 . S
H1140 C1165 0.951 . S
H1141 C1167 0.950 . S
H1142 C1168 0.950 . S
H1143 C1170 0.950 . S
H1144 C1173 0.950 . S
H1145 C1174 0.950 . S
H1146 C1176 0.950 . S
H1147 C1177 0.950 . S
C1148 H1130 0.951 . S
C1148 C1149 1.366 . S
C1148 C1150 1.388 . S
C1149 C1148 1.366 . S
C1149 C1153 1.385 . S
C1150 H1131 0.951 . S
C1150 C1148 1.388 . S
C1150 C1151 1.366 . S
C1151 C1150 1.366 . S
C1151 C1152 1.414 . S
C1151 C1154 1.499 . S
C1152 H1132 0.950 . S
C1152 C1151 1.414 . S
C1152 C1153 1.374 . S
C1153 H1133 0.950 . S
C1153 C1149 1.385 . S
C1153 C1152 1.374 . S
C1154 C1151 1.499 . S
C1154 C1155 1.373 . S
C1154 C1156 1.389 . S
C1155 H1134 0.950 . S
C1155 C1154 1.373 . S
C1155 C1171 1.377 . S
C1156 C1154 1.389 . S
C1156 C1157 1.524 . S
C1156 C1170 1.377 . S
C1157 C1156 1.524 . S
C1157 C1158 1.397 . S
C1157 C1162 1.363 . S
C1158 H1135 0.950 . S
C1158 C1157 1.397 . S
C1158 C1159 1.334 . S
C1159 H1136 0.950 . S
C1159 C1158 1.334 . S
C1159 C1160 1.287 . S
C1160 C1159 1.287 . S
C1160 C1161 1.524 . S
C1160 H1179 0.913 . S
C1161 H1137 0.950 . S
C1161 C1160 1.524 . S
C1161 C1162 1.415 . S
C1162 H1138 0.950 . S
C1162 C1157 1.363 . S
C1162 C1161 1.415 . S
C1163 H1139 0.951 . S
C1163 C1164 1.366 . S
C1163 C1165 1.388 . S
C1164 C1163 1.366 . S
C1164 C1168 1.385 . S
C1165 H1140 0.951 . S
C1165 C1163 1.388 . S
C1165 C1166 1.366 . S
C1166 C1165 1.366 . S
C1166 C1167 1.414 . S
C1166 C1169 1.499 . S
C1167 H1141 0.950 . S
C1167 C1166 1.414 . S
C1167 C1168 1.374 . S
C1168 H1142 0.950 . S
C1168 C1164 1.385 . S
C1168 C1167 1.374 . S
C1169 C1166 1.499 . S
C1169 C1170 1.373 . S
C1169 C1171 1.389 . S
C1170 H1143 0.950 . S
C1170 C1156 1.377 . S
C1170 C1169 1.373 . S
C1171 C1155 1.377 . S
C1171 C1169 1.389 . S
C1171 C1172 1.524 . S
C1172 C1171 1.524 . S
C1172 C1173 1.397 . S
C1172 C1177 1.363 . S
C1173 H1144 0.950 . S
C1173 C1172 1.397 . S
C1173 C1174 1.334 . S
C1174 H1145 0.950 . S
C1174 C1173 1.334 . S
C1174 C1175 1.287 . S
C1175 C1174 1.287 . S
C1175 C1176 1.524 . S
C1175 H1178 0.999 . S
C1176 H1146 0.950 . S
C1176 C1175 1.524 . S
C1176 C1177 1.415 . S
C1177 H1147 0.950 . S
C1177 C1172 1.363 . S
C1177 C1176 1.415 . S
H1178 C1175 0.999 . S
H1179 C1160 0.913 . S
H1180 C1198 0.929 . S
H1181 C1200 0.951 . S
H1182 C1202 0.950 . S
H1183 C1203 0.950 . S
H1184 C1205 0.950 . S
H1185 C1208 0.950 . S
H1186 C1209 0.950 . S
H1187 C1211 0.950 . S
H1188 C1212 0.950 . S
H1189 C1213 0.951 . S
H1190 C1215 0.951 . S
H1191 C1217 0.981 . S
H1192 C1218 0.953 1_565 S
H1193 C1220 0.950 . S
H1194 C1223 0.950 . S
H1195 C1224 0.950 . S
H1196 C1226 0.950 . S
H1197 C1227 0.950 . S
C1198 H1180 0.929 . S
C1198 C1199 1.366 . S
C1198 C1200 1.388 . S
C1199 C1198 1.366 . S
C1199 C1203 1.385 . S
C1200 H1181 0.951 . S
C1200 C1198 1.388 . S
C1200 C1201 1.366 . S
C1201 C1200 1.366 . S
C1201 C1202 1.414 . S
C1201 C1204 1.499 . S
C1202 H1182 0.950 . S
C1202 C1201 1.414 . S
C1202 C1203 1.374 . S
C1203 H1183 0.950 . S
C1203 C1199 1.385 . S
C1203 C1202 1.374 . S
C1204 C1201 1.499 . S
C1204 C1205 1.373 1_545 S
C1204 C1206 1.389 . S
C1205 H1184 0.950 . S
C1205 C1204 1.373 1_565 S
C1205 C1221 1.377 . S
C1206 C1204 1.389 . S
C1206 C1207 1.524 . S
C1206 C1220 1.377 . S
C1207 C1206 1.524 . S
C1207 C1208 1.397 . S
C1207 C1212 1.363 . S
C1208 H1185 0.950 . S
C1208 C1207 1.397 . S
C1208 C1209 1.334 . S
C1209 H1186 0.950 . S
C1209 C1208 1.334 . S
C1209 C1210 1.287 . S
C1210 C1209 1.287 . S
C1210 C1211 1.524 . S
C1210 H1229 0.913 . S
C1211 H1187 0.950 . S
C1211 C1210 1.524 . S
C1211 C1212 1.415 . S
C1212 H1188 0.950 . S
C1212 C1207 1.363 . S
C1212 C1211 1.415 . S
C1213 H1189 0.951 . S
C1213 C1214 1.366 . S
C1213 C1215 1.388 . S
C1214 C1213 1.366 . S
C1214 C1218 1.357 . S
C1215 H1190 0.951 . S
C1215 C1213 1.388 . S
C1215 C1216 1.366 . S
C1216 C1215 1.366 . S
C1216 C1217 1.414 . S
C1216 C1219 1.499 . S
C1217 H1191 0.981 . S
C1217 C1216 1.414 . S
C1217 C1218 1.380 . S
C1218 H1192 0.953 1_545 S
C1218 C1214 1.357 . S
C1218 C1217 1.380 . S
C1219 C1216 1.499 . S
C1219 C1220 1.373 . S
C1219 C1221 1.389 1_545 S
C1220 H1193 0.950 . S
C1220 C1206 1.377 . S
C1220 C1219 1.373 . S
C1221 C1205 1.377 . S
C1221 C1219 1.389 1_565 S
C1221 C1222 1.524 . S
C1222 C1221 1.524 . S
C1222 C1223 1.397 . S
C1222 C1227 1.363 . S
C1223 H1194 0.950 . S
C1223 C1222 1.397 . S
C1223 C1224 1.334 . S
C1224 H1195 0.950 . S
C1224 C1223 1.334 . S
C1224 C1225 1.287 . S
C1225 C1224 1.287 . S
C1225 C1226 1.524 . S
C1225 H1228 0.999 . S
C1226 H1196 0.950 . S
C1226 C1225 1.524 . S
C1226 C1227 1.415 . S
C1227 H1197 0.950 . S
C1227 C1222 1.363 . S
C1227 C1226 1.415 . S
H1228 C1225 0.999 . S
H1229 C1210 0.913 . S
H1230 C1248 0.951 . S
H1231 C1250 0.951 . S
H1232 C1252 0.950 . S
H1233 C1253 0.950 . S
H1234 C1255 0.950 . S
H1235 C1258 0.950 . S
H1236 C1259 0.950 . S
H1237 C1261 0.950 . S
H1238 C1262 0.950 . S
H1239 C1263 0.951 . S
H1240 C1265 0.951 . S
H1241 C1267 0.950 . S
H1242 C1268 0.950 . S
H1243 C1270 0.950 . S
H1244 C1273 0.950 . S
H1245 C1274 0.950 . S
H1246 C1276 0.950 . S
H1247 C1277 0.950 . S
C1248 H1230 0.951 . S
C1248 C1249 1.363 1_545 S
C1248 C1250 1.388 . S
C1249 C1248 1.363 1_565 S
C1249 C1253 1.392 . S
C1250 H1231 0.951 . S
C1250 C1248 1.388 . S
C1250 C1251 1.366 1_545 S
C1251 C1250 1.366 1_565 S
C1251 C1252 1.414 . S
C1251 C1254 1.499 . S
C1252 H1232 0.950 . S
C1252 C1251 1.414 . S
C1252 C1253 1.374 . S
C1253 H1233 0.950 . S
C1253 C1249 1.392 . S
C1253 C1252 1.374 . S
C1254 C1251 1.499 . S
C1254 C1255 1.373 1_565 S
C1254 C1256 1.389 . S
C1255 H1234 0.950 . S
C1255 C1254 1.373 1_545 S
C1255 C1271 1.377 . S
C1256 C1254 1.389 . S
C1256 C1257 1.524 . S
C1256 C1270 1.377 . S
C1257 C1256 1.524 . S
C1257 C1258 1.397 . S
C1257 C1262 1.363 . S
C1258 H1235 0.950 . S
C1258 C1257 1.397 . S
C1258 C1259 1.334 . S
C1259 H1236 0.950 . S
C1259 C1258 1.334 . S
C1259 C1260 1.287 . S
C1260 C1259 1.287 . S
C1260 C1261 1.524 . S
C1260 H1279 0.913 . S
C1261 H1237 0.950 . S
C1261 C1260 1.524 . S
C1261 C1262 1.415 . S
C1262 H1238 0.950 . S
C1262 C1257 1.363 . S
C1262 C1261 1.415 . S
C1263 H1239 0.951 . S
C1263 C1264 1.366 . S
C1263 C1265 1.388 . S
C1264 C1263 1.366 . S
C1264 C1268 1.385 1_565 S
C1265 H1240 0.951 . S
C1265 C1263 1.388 . S
C1265 C1266 1.408 . S
C1266 C1265 1.408 . S
C1266 C1267 1.400 1_565 S
C1266 C1269 1.481 . S
C1267 H1241 0.950 . S
C1267 C1266 1.400 1_545 S
C1267 C1268 1.374 . S
C1268 H1242 0.950 . S
C1268 C1264 1.385 1_545 S
C1268 C1267 1.374 . S
C1269 C1266 1.481 . S
C1269 C1270 1.373 . S
C1269 C1271 1.384 1_565 S
C1270 H1243 0.950 . S
C1270 C1256 1.377 . S
C1270 C1269 1.373 . S
C1271 C1255 1.377 . S
C1271 C1269 1.384 1_545 S
C1271 C1272 1.524 . S
C1272 C1271 1.524 . S
C1272 C1273 1.397 . S
C1272 C1277 1.363 . S
C1273 H1244 0.950 . S
C1273 C1272 1.397 . S
C1273 C1274 1.334 . S
C1274 H1245 0.950 . S
C1274 C1273 1.334 . S
C1274 C1275 1.287 . S
C1275 C1274 1.287 . S
C1275 C1276 1.524 . S
C1275 H1278 0.999 . S
C1276 H1246 0.950 . S
C1276 C1275 1.524 . S
C1276 C1277 1.415 . S
C1277 H1247 0.950 . S
C1277 C1272 1.363 . S
C1277 C1276 1.415 . S
H1278 C1275 0.999 . S
H1279 C1260 0.913 . S
H1280 C1298 0.951 . S
H1281 C1300 0.951 . S
H1282 C1302 0.950 . S
H1283 C1303 0.950 . S
H1284 C1305 0.950 . S
H1285 C1308 0.950 . S
H1286 C1309 0.950 . S
H1287 C1311 0.950 . S
H1288 C1312 0.950 . S
H1289 C1313 0.951 . S
H1290 C1315 0.951 . S
H1291 C1317 0.950 . S
H1292 C1318 0.950 . S
H1293 C1320 0.950 . S
H1294 C1323 0.950 . S
H1295 C1324 0.950 . S
H1296 C1326 0.950 . S
H1297 C1327 0.950 . S
C1298 H1280 0.951 . S
C1298 C1299 1.366 . S
C1298 C1300 1.388 . S
C1299 C1298 1.366 . S
C1299 C1303 1.385 1_455 S
C1300 H1281 0.951 . S
C1300 C1298 1.388 . S
C1300 C1301 1.366 . S
C1301 C1300 1.366 . S
C1301 C1302 1.414 1_455 S
C1301 C1304 1.499 . S
C1302 H1282 0.950 . S
C1302 C1301 1.414 1_655 S
C1302 C1303 1.374 . S
C1303 H1283 0.950 . S
C1303 C1299 1.385 1_655 S
C1303 C1302 1.374 . S
C1304 C1301 1.499 . S
C1304 C1305 1.373 1_455 S
C1304 C1306 1.389 . S
C1305 H1284 0.950 . S
C1305 C1304 1.373 1_655 S
C1305 C1321 1.377 . S
C1306 C1304 1.389 . S
C1306 C1307 1.524 . S
C1306 C1320 1.377 . S
C1307 C1306 1.524 . S
C1307 C1308 1.397 . S
C1307 C1312 1.363 . S
C1308 H1285 0.950 . S
C1308 C1307 1.397 . S
C1308 C1309 1.334 . S
C1309 H1286 0.950 . S
C1309 C1308 1.334 . S
C1309 C1310 1.287 . S
C1310 C1309 1.287 . S
C1310 C1311 1.524 . S
C1310 H1329 0.913 . S
C1311 H1287 0.950 . S
C1311 C1310 1.524 . S
C1311 C1312 1.415 . S
C1312 H1288 0.950 . S
C1312 C1307 1.363 . S
C1312 C1311 1.415 . S
C1313 H1289 0.951 . S
C1313 C1314 1.366 1_655 S
C1313 C1315 1.388 . S
C1314 C1313 1.366 1_455 S
C1314 C1318 1.385 . S
C1315 H1290 0.951 . S
C1315 C1313 1.388 . S
C1315 C1316 1.366 1_655 S
C1316 C1315 1.366 1_455 S
C1316 C1317 1.414 . S
C1316 C1319 1.499 . S
C1317 H1291 0.950 . S
C1317 C1316 1.414 . S
C1317 C1318 1.374 . S
C1318 H1292 0.950 . S
C1318 C1314 1.385 . S
C1318 C1317 1.374 . S
C1319 C1316 1.499 . S
C1319 C1320 1.373 . S
C1319 C1321 1.389 1_455 S
C1320 H1293 0.950 . S
C1320 C1306 1.377 . S
C1320 C1319 1.373 . S
C1321 C1305 1.377 . S
C1321 C1319 1.389 1_655 S
C1321 C1322 1.524 . S
C1322 C1321 1.524 . S
C1322 C1323 1.397 . S
C1322 C1327 1.363 . S
C1323 H1294 0.950 . S
C1323 C1322 1.397 . S
C1323 C1324 1.334 . S
C1324 H1295 0.950 . S
C1324 C1323 1.334 . S
C1324 C1325 1.287 . S
C1325 C1324 1.287 . S
C1325 C1326 1.524 . S
C1325 H1328 0.999 . S
C1326 H1296 0.950 . S
C1326 C1325 1.524 . S
C1326 C1327 1.415 . S
C1327 H1297 0.950 . S
C1327 C1322 1.363 . S
C1327 C1326 1.415 . S
H1328 C1325 0.999 . S
H1329 C1310 0.913 . S
H1330 C1348 0.951 . S
H1331 C1350 0.951 . S
H1332 C1352 0.950 . S
H1333 C1353 0.950 . S
H1334 C1355 0.950 . S
H1335 C1358 0.950 . S
H1336 C1359 0.950 1_554 S
H1337 C1361 0.950 . S
H1338 C1362 0.950 . S
H1339 C1363 0.951 . S
H1340 C1365 0.951 . S
H1341 C1367 0.950 . S
H1342 C1368 0.950 . S
H1343 C1370 0.950 . S
H1344 C1373 0.950 . S
H1345 C1374 0.950 . S
H1346 C1376 0.950 . S
H1347 C1377 0.950 . S
C1348 H1330 0.951 . S
C1348 C1349 1.366 . S
C1348 C1350 1.388 . S
C1349 C1348 1.366 . S
C1349 C1353 1.385 . S
C1350 H1331 0.951 . S
C1350 C1348 1.388 . S
C1350 C1351 1.366 . S
C1351 C1350 1.366 . S
C1351 C1352 1.414 . S
C1351 C1354 1.499 . S
C1352 H1332 0.950 . S
C1352 C1351 1.414 . S
C1352 C1353 1.374 . S
C1353 H1333 0.950 . S
C1353 C1349 1.385 . S
C1353 C1352 1.374 . S
C1354 C1351 1.499 . S
C1354 C1355 1.373 . S
C1354 C1356 1.389 . S
C1355 H1334 0.950 . S
C1355 C1354 1.373 . S
C1355 C1371 1.377 . S
C1356 C1354 1.389 . S
C1356 C1357 1.524 . S
C1356 C1370 1.377 . S
C1357 C1356 1.524 . S
C1357 C1358 1.397 . S
C1357 C1362 1.363 . S
C1358 H1335 0.950 . S
C1358 C1357 1.397 . S
C1358 C1359 1.334 . S
C1359 H1336 0.950 1_556 S
C1359 C1358 1.334 . S
C1359 C1360 1.287 . S
C1360 C1359 1.287 . S
C1360 C1361 1.524 . S
C1360 H1379 0.913 1_556 S
C1361 H1337 0.950 . S
C1361 C1360 1.524 . S
C1361 C1362 1.415 . S
C1362 H1338 0.950 . S
C1362 C1357 1.363 . S
C1362 C1361 1.415 . S
C1363 H1339 0.951 . S
C1363 C1364 1.366 . S
C1363 C1365 1.388 . S
C1364 C1363 1.366 . S
C1364 C1368 1.385 . S
C1365 H1340 0.951 . S
C1365 C1363 1.388 . S
C1365 C1366 1.366 . S
C1366 C1365 1.366 . S
C1366 C1367 1.414 . S
C1366 C1369 1.499 . S
C1367 H1341 0.950 . S
C1367 C1366 1.414 . S
C1367 C1368 1.374 . S
C1368 H1342 0.950 . S
C1368 C1364 1.385 . S
C1368 C1367 1.374 . S
C1369 C1366 1.499 . S
C1369 C1370 1.373 . S
C1369 C1371 1.389 . S
C1370 H1343 0.950 . S
C1370 C1356 1.377 . S
C1370 C1369 1.373 . S
C1371 C1355 1.377 . S
C1371 C1369 1.389 . S
C1371 C1372 1.524 . S
C1372 C1371 1.524 . S
C1372 C1373 1.397 . S
C1372 C1377 1.363 . S
C1373 H1344 0.950 . S
C1373 C1372 1.397 . S
C1373 C1374 1.334 . S
C1374 H1345 0.950 . S
C1374 C1373 1.334 . S
C1374 C1375 1.287 . S
C1375 C1374 1.287 . S
C1375 C1376 1.524 . S
C1375 H1378 0.999 . S
C1376 H1346 0.950 . S
C1376 C1375 1.524 . S
C1376 C1377 1.415 . S
C1377 H1347 0.950 . S
C1377 C1372 1.363 . S
C1377 C1376 1.415 . S
H1378 C1375 0.999 . S
H1379 C1360 0.913 1_554 S
H1380 C1398 0.951 . S
H1381 C1400 0.951 . S
H1382 C1402 0.950 . S
H1383 C1403 0.950 . S
H1384 C1405 0.950 . S
H1385 C1408 0.950 . S
H1386 C1409 0.950 . S
H1387 C1411 0.950 . S
H1388 C1412 0.950 . S
H1389 C1413 0.951 . S
H1390 C1415 0.951 . S
H1391 C1417 0.950 . S
H1392 C1418 0.950 . S
H1393 C1420 0.950 . S
H1394 C1423 0.950 . S
H1395 C1424 0.950 . S
H1396 C1426 0.950 . S
H1397 C1427 0.950 . S
C1398 H1380 0.951 . S
C1398 C1399 1.366 . S
C1398 C1400 1.388 . S
C1399 C1398 1.366 . S
C1399 C1403 1.385 1_455 S
C1400 H1381 0.951 . S
C1400 C1398 1.388 . S
C1400 C1401 1.366 . S
C1401 C1400 1.366 . S
C1401 C1402 1.414 1_455 S
C1401 C1404 1.468 . S
C1402 H1382 0.950 . S
C1402 C1401 1.414 1_655 S
C1402 C1403 1.374 . S
C1403 H1383 0.950 . S
C1403 C1399 1.385 1_655 S
C1403 C1402 1.374 . S
C1404 C1401 1.468 . S
C1404 C1405 1.417 . S
C1404 C1406 1.390 . S
C1405 H1384 0.950 . S
C1405 C1404 1.417 . S
C1405 C1421 1.377 . S
C1406 C1404 1.390 . S
C1406 C1407 1.534 . S
C1406 C1420 1.377 . S
C1407 C1406 1.534 . S
C1407 C1408 1.378 1_455 S
C1407 C1412 1.371 . S
C1408 H1385 0.950 . S
C1408 C1407 1.378 1_655 S
C1408 C1409 1.334 . S
C1409 H1386 0.950 . S
C1409 C1408 1.334 . S
C1409 C1410 1.287 . S
C1410 C1409 1.287 . S
C1410 C1411 1.524 1_655 S
C1410 H1429 0.913 . S
C1411 H1387 0.950 . S
C1411 C1410 1.524 1_455 S
C1411 C1412 1.415 . S
C1412 H1388 0.950 . S
C1412 C1407 1.371 . S
C1412 C1411 1.415 . S
C1413 H1389 0.951 . S
C1413 C1414 1.366 1_655 S
C1413 C1415 1.388 . S
C1414 C1413 1.366 1_455 S
C1414 C1418 1.385 . S
C1415 H1390 0.951 . S
C1415 C1413 1.388 . S
C1415 C1416 1.366 1_655 S
C1416 C1415 1.366 1_455 S
C1416 C1417 1.414 . S
C1416 C1419 1.499 . S
C1417 H1391 0.950 . S
C1417 C1416 1.414 . S
C1417 C1418 1.374 . S
C1418 H1392 0.950 . S
C1418 C1414 1.385 . S
C1418 C1417 1.374 . S
C1419 C1416 1.499 . S
C1419 C1420 1.373 . S
C1419 C1421 1.389 . S
C1420 H1393 0.950 . S
C1420 C1406 1.377 . S
C1420 C1419 1.373 . S
C1421 C1405 1.377 . S
C1421 C1419 1.389 . S
C1421 C1422 1.524 . S
C1422 C1421 1.524 . S
C1422 C1423 1.397 . S
C1422 C1427 1.363 1_455 S
C1423 H1394 0.950 . S
C1423 C1422 1.397 . S
C1423 C1424 1.334 . S
C1424 H1395 0.950 . S
C1424 C1423 1.334 . S
C1424 C1425 1.287 . S
C1425 C1424 1.287 . S
C1425 C1426 1.524 1_455 S
C1425 H1428 0.999 . S
C1426 H1396 0.950 . S
C1426 C1425 1.524 1_655 S
C1426 C1427 1.415 . S
C1427 H1397 0.950 . S
C1427 C1422 1.363 1_655 S
C1427 C1426 1.415 . S
H1428 C1425 0.999 . S
H1429 C1410 0.913 . S
H1430 C1448 0.951 . S
H1431 C1450 0.951 . S
H1432 C1452 0.950 . S
H1433 C1453 0.950 . S
H1434 C1455 0.950 . S
H1435 C1458 0.950 . S
H1436 C1459 0.950 1_554 S
H1437 C1461 0.950 . S
H1438 C1462 0.950 . S
H1439 C1463 0.951 . S
H1440 C1465 0.951 . S
H1441 C1467 0.950 . S
H1442 C1468 0.950 . S
H1443 C1470 0.950 . S
H1444 C1473 0.950 . S
H1445 C1474 0.950 . S
H1446 C1476 0.950 . S
H1447 C1477 0.950 . S
C1448 H1430 0.951 . S
C1448 C1449 1.366 . S
C1448 C1450 1.388 . S
C1449 C1448 1.366 . S
C1449 C1453 1.385 . S
C1450 H1431 0.951 . S
C1450 C1448 1.388 . S
C1450 C1451 1.366 . S
C1451 C1450 1.366 . S
C1451 C1452 1.414 . S
C1451 C1454 1.499 . S
C1452 H1432 0.950 . S
C1452 C1451 1.414 . S
C1452 C1453 1.374 . S
C1453 H1433 0.950 . S
C1453 C1449 1.385 . S
C1453 C1452 1.374 . S
C1454 C1451 1.499 . S
C1454 C1455 1.373 . S
C1454 C1456 1.389 . S
C1455 H1434 0.950 . S
C1455 C1454 1.373 . S
C1455 C1471 1.377 . S
C1456 C1454 1.389 . S
C1456 C1457 1.524 . S
C1456 C1470 1.377 . S
C1457 C1456 1.524 . S
C1457 C1458 1.397 . S
C1457 C1462 1.363 . S
C1458 H1435 0.950 . S
C1458 C1457 1.397 . S
C1458 C1459 1.334 . S
C1459 H1436 0.950 1_556 S
C1459 C1458 1.334 . S
C1459 C1460 1.291 . S
C1460 C1459 1.291 . S
C1460 C1461 1.532 . S
C1460 H1479 0.899 1_556 S
C1461 H1437 0.950 . S
C1461 C1460 1.532 . S
C1461 C1462 1.415 . S
C1462 H1438 0.950 . S
C1462 C1457 1.363 . S
C1462 C1461 1.415 . S
C1463 H1439 0.951 . S
C1463 C1464 1.366 . S
C1463 C1465 1.388 . S
C1464 C1463 1.366 . S
C1464 C1468 1.385 . S
C1465 H1440 0.951 . S
C1465 C1463 1.388 . S
C1465 C1466 1.366 . S
C1466 C1465 1.366 . S
C1466 C1467 1.414 . S
C1466 C1469 1.499 . S
C1467 H1441 0.950 . S
C1467 C1466 1.414 . S
C1467 C1468 1.374 . S
C1468 H1442 0.950 . S
C1468 C1464 1.385 . S
C1468 C1467 1.374 . S
C1469 C1466 1.499 . S
C1469 C1470 1.373 . S
C1469 C1471 1.389 . S
C1470 H1443 0.950 . S
C1470 C1456 1.377 . S
C1470 C1469 1.373 . S
C1471 C1455 1.377 . S
C1471 C1469 1.389 . S
C1471 C1472 1.524 . S
C1472 C1471 1.524 . S
C1472 C1473 1.397 . S
C1472 C1477 1.363 . S
C1473 H1444 0.950 . S
C1473 C1472 1.397 . S
C1473 C1474 1.334 . S
C1474 H1445 0.950 . S
C1474 C1473 1.334 . S
C1474 C1475 1.287 . S
C1475 C1474 1.287 . S
C1475 C1476 1.524 . S
C1475 H1478 0.999 . S
C1476 H1446 0.950 . S
C1476 C1475 1.524 . S
C1476 C1477 1.415 . S
C1477 H1447 0.950 . S
C1477 C1472 1.363 . S
C1477 C1476 1.415 . S
H1478 C1475 0.999 . S
H1479 C1460 0.899 1_554 S
H1480 C1498 0.951 . S
H1481 C1500 0.951 . S
H1482 C1502 0.950 . S
H1483 C1503 0.950 . S
H1484 C1505 0.950 . S
H1485 C1508 0.950 . S
H1486 C1509 0.950 . S
H1487 C1511 0.950 . S
H1488 C1512 0.950 . S
H1489 C1513 0.951 . S
H1490 C1515 0.951 . S
H1491 C1517 0.950 . S
H1492 C1518 0.950 . S
H1493 C1520 0.950 . S
H1494 C1523 0.950 . S
H1495 C1524 0.950 . S
H1496 C1526 0.950 . S
H1497 C1527 0.950 . S
C1498 H1480 0.951 . S
C1498 C1499 1.366 . S
C1498 C1500 1.388 . S
C1499 C1498 1.366 . S
C1499 C1503 1.385 1_565 S
C1500 H1481 0.951 . S
C1500 C1498 1.388 . S
C1500 C1501 1.420 . S
C1501 C1500 1.420 . S
C1501 C1502 1.392 1_565 S
C1501 C1504 1.492 . S
C1502 H1482 0.950 . S
C1502 C1501 1.392 1_545 S
C1502 C1503 1.374 . S
C1503 H1483 0.950 . S
C1503 C1499 1.385 1_545 S
C1503 C1502 1.374 . S
C1504 C1501 1.492 . S
C1504 C1505 1.371 . S
C1504 C1506 1.376 1_565 S
C1505 H1484 0.950 . S
C1505 C1504 1.371 . S
C1505 C1521 1.377 . S
C1506 C1504 1.376 1_545 S
C1506 C1507 1.524 . S
C1506 C1520 1.377 . S
C1507 C1506 1.524 . S
C1507 C1508 1.397 . S
C1507 C1512 1.363 . S
C1508 H1485 0.950 . S
C1508 C1507 1.397 . S
C1508 C1509 1.334 . S
C1509 H1486 0.950 . S
C1509 C1508 1.334 . S
C1509 C1510 1.287 . S
C1510 C1509 1.287 . S
C1510 C1511 1.524 . S
C1510 H1529 0.913 . S
C1511 H1487 0.950 . S
C1511 C1510 1.524 . S
C1511 C1512 1.415 . S
C1512 H1488 0.950 . S
C1512 C1507 1.363 . S
C1512 C1511 1.415 . S
C1513 H1489 0.951 . S
C1513 C1514 1.366 1_545 S
C1513 C1515 1.388 . S
C1514 C1513 1.366 1_565 S
C1514 C1518 1.385 . S
C1515 H1490 0.951 . S
C1515 C1513 1.388 . S
C1515 C1516 1.366 1_545 S
C1516 C1515 1.366 1_565 S
C1516 C1517 1.414 . S
C1516 C1519 1.499 . S
C1517 H1491 0.950 . S
C1517 C1516 1.414 . S
C1517 C1518 1.374 . S
C1518 H1492 0.950 . S
C1518 C1514 1.385 . S
C1518 C1517 1.374 . S
C1519 C1516 1.499 . S
C1519 C1520 1.373 1_565 S
C1519 C1521 1.389 . S
C1520 H1493 0.950 . S
C1520 C1506 1.377 . S
C1520 C1519 1.373 1_545 S
C1521 C1505 1.377 . S
C1521 C1519 1.389 . S
C1521 C1522 1.524 . S
C1522 C1521 1.524 . S
C1522 C1523 1.397 . S
C1522 C1527 1.363 . S
C1523 H1494 0.950 . S
C1523 C1522 1.397 . S
C1523 C1524 1.334 . S
C1524 H1495 0.950 . S
C1524 C1523 1.334 . S
C1524 C1525 1.287 . S
C1525 C1524 1.287 . S
C1525 C1526 1.524 . S
C1525 H1528 0.999 . S
C1526 H1496 0.950 . S
C1526 C1525 1.524 . S
C1526 C1527 1.415 . S
C1527 H1497 0.950 . S
C1527 C1522 1.363 . S
C1527 C1526 1.415 . S
H1528 C1525 0.999 . S
H1529 C1510 0.913 . S
H1530 C1548 0.994 . S
H1531 C1550 0.951 . S
H1532 C1552 0.950 . S
H1533 C1553 0.950 . S
H1534 C1555 0.950 . S
H1535 C1558 0.950 . S
H1536 C1559 0.950 . S
H1537 C1561 0.950 . S
H1538 C1562 0.950 . S
H1539 C1563 0.951 . S
H1540 C1565 0.951 . S
H1541 C1567 0.951 . S
H1542 C1568 0.953 . S
H1543 C1570 0.950 . S
H1544 C1573 0.950 . S
H1545 C1574 0.950 . S
H1546 C1576 0.950 . S
H1547 C1577 0.950 . S
C1548 H1530 0.994 . S
C1548 C1549 1.352 1_565 S
C1548 C1550 1.364 . S
C1549 C1548 1.352 1_545 S
C1549 C1553 1.385 . S
C1550 H1531 0.951 . S
C1550 C1548 1.364 . S
C1550 C1551 1.366 1_565 S
C1551 C1550 1.366 1_545 S
C1551 C1552 1.414 . S
C1551 C1554 1.499 . S
C1552 H1532 0.950 . S
C1552 C1551 1.414 . S
C1552 C1553 1.374 . S
C1553 H1533 0.950 . S
C1553 C1549 1.385 . S
C1553 C1552 1.374 . S
C1554 C1551 1.499 . S
C1554 C1555 1.373 . S
C1554 C1556 1.389 1_545 S
C1555 H1534 0.950 . S
C1555 C1554 1.373 . S
C1555 C1571 1.377 . S
C1556 C1554 1.389 1_565 S
C1556 C1557 1.524 . S
C1556 C1570 1.377 . S
C1557 C1556 1.524 . S
C1557 C1558 1.397 . S
C1557 C1562 1.363 . S
C1558 H1535 0.950 . S
C1558 C1557 1.397 . S
C1558 C1559 1.334 . S
C1559 H1536 0.950 . S
C1559 C1558 1.334 . S
C1559 C1560 1.287 . S
C1560 C1559 1.287 . S
C1560 C1561 1.524 . S
C1560 H1579 0.913 . S
C1561 H1537 0.950 . S
C1561 C1560 1.524 . S
C1561 C1562 1.415 . S
C1562 H1538 0.950 . S
C1562 C1557 1.363 . S
C1562 C1561 1.415 . S
C1563 H1539 0.951 . S
C1563 C1564 1.366 . S
C1563 C1565 1.388 . S
C1564 C1563 1.366 . S
C1564 C1568 1.376 1_545 S
C1565 H1540 0.951 . S
C1565 C1563 1.388 . S
C1565 C1566 1.366 . S
C1566 C1565 1.366 . S
C1566 C1567 1.414 1_545 S
C1566 C1569 1.499 . S
C1567 H1541 0.951 . S
C1567 C1566 1.414 1_565 S
C1567 C1568 1.379 . S
C1568 H1542 0.953 . S
C1568 C1564 1.376 1_565 S
C1568 C1567 1.379 . S
C1569 C1566 1.499 . S
C1569 C1570 1.373 1_545 S
C1569 C1571 1.389 . S
C1570 H1543 0.950 . S
C1570 C1556 1.377 . S
C1570 C1569 1.373 1_565 S
C1571 C1555 1.377 . S
C1571 C1569 1.389 . S
C1571 C1572 1.524 . S
C1572 C1571 1.524 . S
C1572 C1573 1.397 . S
C1572 C1577 1.363 . S
C1573 H1544 0.950 . S
C1573 C1572 1.397 . S
C1573 C1574 1.334 . S
C1574 H1545 0.950 . S
C1574 C1573 1.334 . S
C1574 C1575 1.287 . S
C1575 C1574 1.287 . S
C1575 C1576 1.524 . S
C1575 H1578 0.999 . S
C1576 H1546 0.950 . S
C1576 C1575 1.524 . S
C1576 C1577 1.415 . S
C1577 H1547 0.950 . S
C1577 C1572 1.363 . S
C1577 C1576 1.415 . S
H1578 C1575 0.999 . S
H1579 C1560 0.913 . S
H1580 C1598 0.951 . S
H1581 C1600 0.951 . S
H1582 C1602 0.950 . S
H1583 C1603 0.950 . S
H1584 C1605 0.950 . S
H1585 C1608 0.950 . S
H1586 C1609 0.950 . S
H1587 C1611 0.950 . S
H1588 C1612 0.950 . S
H1589 C1613 0.951 . S
H1590 C1615 0.951 . S
H1591 C1617 0.950 . S
H1592 C1618 0.950 . S
H1593 C1620 0.950 . S
H1594 C1623 0.950 . S
H1595 C1624 0.950 . S
H1596 C1626 0.950 . S
H1597 C1627 0.950 . S
C1598 H1580 0.951 . S
C1598 C1599 1.366 . S
C1598 C1600 1.388 . S
C1599 C1598 1.366 . S
C1599 C1603 1.385 1_655 S
C1600 H1581 0.951 . S
C1600 C1598 1.388 . S
C1600 C1601 1.366 . S
C1601 C1600 1.366 . S
C1601 C1602 1.414 1_655 S
C1601 C1604 1.499 . S
C1602 H1582 0.950 . S
C1602 C1601 1.414 1_455 S
C1602 C1603 1.374 . S
C1603 H1583 0.950 . S
C1603 C1599 1.385 1_455 S
C1603 C1602 1.374 . S
C1604 C1601 1.499 . S
C1604 C1605 1.373 1_655 S
C1604 C1606 1.389 . S
C1605 H1584 0.950 . S
C1605 C1604 1.373 1_455 S
C1605 C1621 1.377 . S
C1606 C1604 1.389 . S
C1606 C1607 1.524 . S
C1606 C1620 1.377 . S
C1607 C1606 1.524 . S
C1607 C1608 1.397 . S
C1607 C1612 1.363 . S
C1608 H1585 0.950 . S
C1608 C1607 1.397 . S
C1608 C1609 1.334 . S
C1609 H1586 0.950 . S
C1609 C1608 1.334 . S
C1609 C1610 1.287 . S
C1610 C1609 1.287 . S
C1610 C1611 1.524 . S
C1610 H1629 0.913 . S
C1611 H1587 0.950 . S
C1611 C1610 1.524 . S
C1611 C1612 1.415 . S
C1612 H1588 0.950 . S
C1612 C1607 1.363 . S
C1612 C1611 1.415 . S
C1613 H1589 0.951 . S
C1613 C1614 1.366 1_455 S
C1613 C1615 1.388 . S
C1614 C1613 1.366 1_655 S
C1614 C1618 1.385 . S
C1615 H1590 0.951 . S
C1615 C1613 1.388 . S
C1615 C1616 1.366 1_455 S
C1616 C1615 1.366 1_655 S
C1616 C1617 1.414 . S
C1616 C1619 1.499 . S
C1617 H1591 0.950 . S
C1617 C1616 1.414 . S
C1617 C1618 1.374 . S
C1618 H1592 0.950 . S
C1618 C1614 1.385 . S
C1618 C1617 1.374 . S
C1619 C1616 1.499 . S
C1619 C1620 1.373 . S
C1619 C1621 1.389 1_655 S
C1620 H1593 0.950 . S
C1620 C1606 1.377 . S
C1620 C1619 1.373 . S
C1621 C1605 1.377 . S
C1621 C1619 1.389 1_455 S
C1621 C1622 1.524 . S
C1622 C1621 1.524 . S
C1622 C1623 1.397 . S
C1622 C1627 1.363 . S
C1623 H1594 0.950 . S
C1623 C1622 1.397 . S
C1623 C1624 1.334 . S
C1624 H1595 0.950 . S
C1624 C1623 1.334 . S
C1624 C1625 1.287 . S
C1625 C1624 1.287 . S
C1625 C1626 1.524 . S
C1625 H1628 0.999 . S
C1626 H1596 0.950 . S
C1626 C1625 1.524 . S
C1626 C1627 1.415 . S
C1627 H1597 0.950 . S
C1627 C1622 1.363 . S
C1627 C1626 1.415 . S
H1628 C1625 0.999 . S
H1629 C1610 0.913 . S
H1630 C1648 0.951 . S
H1631 C1650 0.951 . S
H1632 C1652 0.950 . S
H1633 C1653 0.950 . S
H1634 C1655 0.950 . S
H1635 C1658 0.950 . S
H1636 C1659 0.950 . S
H1637 C1661 0.950 . S
H1638 C1662 0.950 . S
H1639 C1663 0.951 . S
H1640 C1665 0.951 . S
H1641 C1667 0.950 . S
H1642 C1668 0.950 . S
H1643 C1670 0.950 . S
H1644 C1673 0.950 . S
H1645 C1674 0.950 . S
H1646 C1676 0.950 . S
H1647 C1677 0.950 . S
C1648 H1630 0.951 . S
C1648 C1649 1.366 . S
C1648 C1650 1.388 . S
C1649 C1648 1.366 . S
C1649 C1653 1.385 . S
C1650 H1631 0.951 . S
C1650 C1648 1.388 . S
C1650 C1651 1.366 . S
C1651 C1650 1.366 . S
C1651 C1652 1.414 . S
C1651 C1654 1.499 . S
C1652 H1632 0.950 . S
C1652 C1651 1.414 . S
C1652 C1653 1.374 . S
C1653 H1633 0.950 . S
C1653 C1649 1.385 . S
C1653 C1652 1.374 . S
C1654 C1651 1.499 . S
C1654 C1655 1.373 . S
C1654 C1656 1.389 . S
C1655 H1634 0.950 . S
C1655 C1654 1.373 . S
C1655 C1671 1.377 . S
C1656 C1654 1.389 . S
C1656 C1657 1.524 . S
C1656 C1670 1.377 . S
C1657 C1656 1.524 . S
C1657 C1658 1.397 . S
C1657 C1662 1.363 . S
C1658 H1635 0.950 . S
C1658 C1657 1.397 . S
C1658 C1659 1.334 . S
C1659 H1636 0.950 . S
C1659 C1658 1.334 . S
C1659 C1660 1.287 . S
C1660 C1659 1.287 . S
C1660 C1661 1.524 . S
C1660 H1679 0.913 . S
C1661 H1637 0.950 . S
C1661 C1660 1.524 . S
C1661 C1662 1.415 . S
C1662 H1638 0.950 . S
C1662 C1657 1.363 . S
C1662 C1661 1.415 . S
C1663 H1639 0.951 . S
C1663 C1664 1.366 . S
C1663 C1665 1.388 . S
C1664 C1663 1.366 . S
C1664 C1668 1.385 . S
C1665 H1640 0.951 . S
C1665 C1663 1.388 . S
C1665 C1666 1.366 . S
C1666 C1665 1.366 . S
C1666 C1667 1.414 . S
C1666 C1669 1.499 . S
C1667 H1641 0.950 . S
C1667 C1666 1.414 . S
C1667 C1668 1.374 . S
C1668 H1642 0.950 . S
C1668 C1664 1.385 . S
C1668 C1667 1.374 . S
C1669 C1666 1.499 . S
C1669 C1670 1.373 . S
C1669 C1671 1.389 . S
C1670 H1643 0.950 . S
C1670 C1656 1.377 . S
C1670 C1669 1.373 . S
C1671 C1655 1.377 . S
C1671 C1669 1.389 . S
C1671 C1672 1.524 . S
C1672 C1671 1.524 . S
C1672 C1673 1.397 . S
C1672 C1677 1.363 . S
C1673 H1644 0.950 . S
C1673 C1672 1.397 . S
C1673 C1674 1.334 . S
C1674 H1645 0.950 . S
C1674 C1673 1.334 . S
C1674 C1675 1.287 . S
C1675 C1674 1.287 . S
C1675 C1676 1.524 . S
C1675 H1678 0.999 . S
C1676 H1646 0.950 . S
C1676 C1675 1.524 . S
C1676 C1677 1.415 . S
C1677 H1647 0.950 . S
C1677 C1672 1.363 . S
C1677 C1676 1.415 . S
H1678 C1675 0.999 . S
H1679 C1660 0.913 . S
H1680 C1698 0.951 . S
H1681 C1700 0.951 . S
H1682 C1702 0.950 . S
H1683 C1703 0.950 . S
H1684 C1705 0.950 . S
H1685 C1708 0.950 . S
H1686 C1709 0.950 . S
H1687 C1711 0.950 . S
H1688 C1712 0.950 . S
H1689 C1713 0.951 . S
H1690 C1715 0.951 . S
H1691 C1717 0.950 . S
H1692 C1718 0.950 . S
H1693 C1720 0.950 . S
H1694 C1723 0.950 . S
H1695 C1724 0.950 . S
H1696 C1726 0.950 . S
H1697 C1727 0.950 . S
C1698 H1680 0.951 . S
C1698 C1699 1.366 . S
C1698 C1700 1.388 . S
C1699 C1698 1.366 . S
C1699 C1703 1.385 . S
C1700 H1681 0.951 . S
C1700 C1698 1.388 . S
C1700 C1701 1.366 . S
C1701 C1700 1.366 . S
C1701 C1702 1.414 . S
C1701 C1704 1.499 . S
C1702 H1682 0.950 . S
C1702 C1701 1.414 . S
C1702 C1703 1.374 . S
C1703 H1683 0.950 . S
C1703 C1699 1.385 . S
C1703 C1702 1.374 . S
C1704 C1701 1.499 . S
C1704 C1705 1.373 . S
C1704 C1706 1.389 . S
C1705 H1684 0.950 . S
C1705 C1704 1.373 . S
C1705 C1721 1.377 . S
C1706 C1704 1.389 . S
C1706 C1707 1.524 . S
C1706 C1720 1.377 . S
C1707 C1706 1.524 . S
C1707 C1708 1.397 . S
C1707 C1712 1.363 . S
C1708 H1685 0.950 . S
C1708 C1707 1.397 . S
C1708 C1709 1.334 . S
C1709 H1686 0.950 . S
C1709 C1708 1.334 . S
C1709 C1710 1.287 . S
C1710 C1709 1.287 . S
C1710 C1711 1.524 . S
C1710 H1729 0.913 . S
C1711 H1687 0.950 . S
C1711 C1710 1.524 . S
C1711 C1712 1.415 . S
C1712 H1688 0.950 . S
C1712 C1707 1.363 . S
C1712 C1711 1.415 . S
C1713 H1689 0.951 . S
C1713 C1714 1.366 . S
C1713 C1715 1.388 . S
C1714 C1713 1.366 . S
C1714 C1718 1.385 . S
C1715 H1690 0.951 . S
C1715 C1713 1.388 . S
C1715 C1716 1.366 . S
C1716 C1715 1.366 . S
C1716 C1717 1.414 . S
C1716 C1719 1.499 . S
C1717 H1691 0.950 . S
C1717 C1716 1.414 . S
C1717 C1718 1.374 . S
C1718 H1692 0.950 . S
C1718 C1714 1.385 . S
C1718 C1717 1.374 . S
C1719 C1716 1.499 . S
C1719 C1720 1.373 . S
C1719 C1721 1.389 . S
C1720 H1693 0.950 . S
C1720 C1706 1.377 . S
C1720 C1719 1.373 . S
C1721 C1705 1.377 . S
C1721 C1719 1.389 . S
C1721 C1722 1.524 . S
C1722 C1721 1.524 . S
C1722 C1723 1.397 . S
C1722 C1727 1.363 . S
C1723 H1694 0.950 . S
C1723 C1722 1.397 . S
C1723 C1724 1.334 . S
C1724 H1695 0.950 . S
C1724 C1723 1.334 . S
C1724 C1725 1.287 . S
C1725 C1724 1.287 . S
C1725 C1726 1.524 . S
C1725 H1728 0.999 . S
C1726 H1696 0.950 . S
C1726 C1725 1.524 . S
C1726 C1727 1.415 . S
C1727 H1697 0.950 . S
C1727 C1722 1.363 . S
C1727 C1726 1.415 . S
H1728 C1725 0.999 . S
H1729 C1710 0.913 . S
H1730 C1748 0.951 . S
H1731 C1750 0.951 . S
H1732 C1752 0.950 . S
H1733 C1753 0.950 . S
H1734 C1755 0.950 . S
H1735 C1758 0.950 . S
H1736 C1759 0.950 . S
H1737 C1761 0.950 . S
H1738 C1762 0.950 . S
H1739 C1763 0.951 . S
H1740 C1765 0.951 . S
H1741 C1767 0.950 . S
H1742 C1768 0.950 . S
H1743 C1770 0.950 . S
H1744 C1773 0.950 . S
H1745 C1774 0.950 . S
H1746 C1776 0.950 . S
H1747 C1777 0.950 . S
C1748 H1730 0.951 . S
C1748 C1749 1.366 . S
C1748 C1750 1.388 . S
C1749 C1748 1.366 . S
C1749 C1753 1.385 . S
C1750 H1731 0.951 . S
C1750 C1748 1.388 . S
C1750 C1751 1.366 . S
C1751 C1750 1.366 . S
C1751 C1752 1.414 . S
C1751 C1754 1.499 . S
C1752 H1732 0.950 . S
C1752 C1751 1.414 . S
C1752 C1753 1.374 . S
C1753 H1733 0.950 . S
C1753 C1749 1.385 . S
C1753 C1752 1.374 . S
C1754 C1751 1.499 . S
C1754 C1755 1.373 . S
C1754 C1756 1.389 . S
C1755 H1734 0.950 . S
C1755 C1754 1.373 . S
C1755 C1771 1.377 . S
C1756 C1754 1.389 . S
C1756 C1757 1.524 . S
C1756 C1770 1.377 . S
C1757 C1756 1.524 . S
C1757 C1758 1.397 . S
C1757 C1762 1.363 . S
C1758 H1735 0.950 . S
C1758 C1757 1.397 . S
C1758 C1759 1.334 . S
C1759 H1736 0.950 . S
C1759 C1758 1.334 . S
C1759 C1760 1.287 . S
C1760 C1759 1.287 . S
C1760 C1761 1.524 . S
C1760 H1779 0.913 . S
C1761 H1737 0.950 . S
C1761 C1760 1.524 . S
C1761 C1762 1.415 . S
C1762 H1738 0.950 . S
C1762 C1757 1.363 . S
C1762 C1761 1.415 . S
C1763 H1739 0.951 . S
C1763 C1764 1.366 . S
C1763 C1765 1.388 . S
C1764 C1763 1.366 . S
C1764 C1768 1.385 . S
C1765 H1740 0.951 . S
C1765 C1763 1.388 . S
C1765 C1766 1.366 . S
C1766 C1765 1.366 . S
C1766 C1767 1.414 . S
C1766 C1769 1.499 . S
C1767 H1741 0.950 . S
C1767 C1766 1.414 . S
C1767 C1768 1.374 . S
C1768 H1742 0.950 . S
C1768 C1764 1.385 . S
C1768 C1767 1.374 . S
C1769 C1766 1.499 . S
C1769 C1770 1.373 . S
C1769 C1771 1.389 . S
C1770 H1743 0.950 . S
C1770 C1756 1.377 . S
C1770 C1769 1.373 . S
C1771 C1755 1.377 . S
C1771 C1769 1.389 . S
C1771 C1772 1.524 . S
C1772 C1771 1.524 . S
C1772 C1773 1.397 . S
C1772 C1777 1.363 . S
C1773 H1744 0.950 . S
C1773 C1772 1.397 . S
C1773 C1774 1.334 . S
C1774 H1745 0.950 . S
C1774 C1773 1.334 . S
C1774 C1775 1.287 . S
C1775 C1774 1.287 . S
C1775 C1776 1.524 . S
C1775 H1778 0.999 . S
C1776 H1746 0.950 . S
C1776 C1775 1.524 . S
C1776 C1777 1.415 . S
C1777 H1747 0.950 . S
C1777 C1772 1.363 . S
C1777 C1776 1.415 . S
H1778 C1775 0.999 . S
H1779 C1760 0.913 . S
H1780 C1798 0.951 . S
H1781 C1800 0.951 . S
H1782 C1802 0.950 . S
H1783 C1803 0.950 . S
H1784 C1805 0.950 . S
H1785 C1808 0.950 . S
H1786 C1809 0.950 . S
H1787 C1811 0.950 . S
H1788 C1812 0.950 . S
H1789 C1813 0.951 . S
H1790 C1815 0.951 . S
H1791 C1817 0.950 . S
H1792 C1818 0.950 . S
H1793 C1820 0.950 . S
H1794 C1823 0.950 . S
H1795 C1824 0.950 . S
H1796 C1826 0.950 . S
H1797 C1827 0.950 . S
C1798 H1780 0.951 . S
C1798 C1799 1.366 . S
C1798 C1800 1.388 . S
C1799 C1798 1.366 . S
C1799 C1803 1.385 . S
C1800 H1781 0.951 . S
C1800 C1798 1.388 . S
C1800 C1801 1.366 . S
C1801 C1800 1.366 . S
C1801 C1802 1.414 . S
C1801 C1804 1.499 . S
C1802 H1782 0.950 . S
C1802 C1801 1.414 . S
C1802 C1803 1.374 . S
C1803 H1783 0.950 . S
C1803 C1799 1.385 . S
C1803 C1802 1.374 . S
C1804 C1801 1.499 . S
C1804 C1805 1.373 . S
C1804 C1806 1.389 . S
C1805 H1784 0.950 . S
C1805 C1804 1.373 . S
C1805 C1821 1.377 . S
C1806 C1804 1.389 . S
C1806 C1807 1.524 . S
C1806 C1820 1.377 . S
C1807 C1806 1.524 . S
C1807 C1808 1.397 . S
C1807 C1812 1.363 . S
C1808 H1785 0.950 . S
C1808 C1807 1.397 . S
C1808 C1809 1.334 . S
C1809 H1786 0.950 . S
C1809 C1808 1.334 . S
C1809 C1810 1.287 . S
C1810 C1809 1.287 . S
C1810 C1811 1.524 . S
C1810 H1829 0.913 . S
C1811 H1787 0.950 . S
C1811 C1810 1.524 . S
C1811 C1812 1.415 . S
C1812 H1788 0.950 . S
C1812 C1807 1.363 . S
C1812 C1811 1.415 . S
C1813 H1789 0.951 . S
C1813 C1814 1.366 . S
C1813 C1815 1.388 . S
C1814 C1813 1.366 . S
C1814 C1818 1.385 . S
C1815 H1790 0.951 . S
C1815 C1813 1.388 . S
C1815 C1816 1.366 . S
C1816 C1815 1.366 . S
C1816 C1817 1.414 . S
C1816 C1819 1.499 . S
C1817 H1791 0.950 . S
C1817 C1816 1.414 . S
C1817 C1818 1.374 . S
C1818 H1792 0.950 . S
C1818 C1814 1.385 . S
C1818 C1817 1.374 . S
C1819 C1816 1.499 . S
C1819 C1820 1.373 . S
C1819 C1821 1.389 . S
C1820 H1793 0.950 . S
C1820 C1806 1.377 . S
C1820 C1819 1.373 . S
C1821 C1805 1.377 . S
C1821 C1819 1.389 . S
C1821 C1822 1.524 . S
C1822 C1821 1.524 . S
C1822 C1823 1.397 . S
C1822 C1827 1.363 . S
C1823 H1794 0.950 . S
C1823 C1822 1.397 . S
C1823 C1824 1.334 . S
C1824 H1795 0.950 . S
C1824 C1823 1.334 . S
C1824 C1825 1.287 . S
C1825 C1824 1.287 . S
C1825 C1826 1.524 . S
C1825 H1828 0.999 . S
C1826 H1796 0.950 . S
C1826 C1825 1.524 . S
C1826 C1827 1.415 . S
C1827 H1797 0.950 . S
C1827 C1822 1.363 . S
C1827 C1826 1.415 . S
H1828 C1825 0.999 . S
H1829 C1810 0.913 . S
H1830 C1848 0.951 . S
H1831 C1850 0.951 . S
H1832 C1852 0.950 . S
H1833 C1853 0.950 . S
H1834 C1855 0.950 . S
H1835 C1858 0.950 . S
H1836 C1859 0.950 . S
H1837 C1861 0.950 . S
H1838 C1862 0.950 . S
H1839 C1863 0.951 . S
H1840 C1865 0.951 . S
H1841 C1867 0.950 . S
H1842 C1868 0.950 . S
H1843 C1870 0.950 . S
H1844 C1873 0.950 . S
H1845 C1874 0.950 . S
H1846 C1876 0.950 . S
H1847 C1877 0.950 . S
C1848 H1830 0.951 . S
C1848 C1849 1.366 . S
C1848 C1850 1.388 . S
C1849 C1848 1.366 . S
C1849 C1853 1.385 . S
C1850 H1831 0.951 . S
C1850 C1848 1.388 . S
C1850 C1851 1.366 . S
C1851 C1850 1.366 . S
C1851 C1852 1.414 . S
C1851 C1854 1.499 . S
C1852 H1832 0.950 . S
C1852 C1851 1.414 . S
C1852 C1853 1.374 . S
C1853 H1833 0.950 . S
C1853 C1849 1.385 . S
C1853 C1852 1.374 . S
C1854 C1851 1.499 . S
C1854 C1855 1.373 . S
C1854 C1856 1.389 . S
C1855 H1834 0.950 . S
C1855 C1854 1.373 . S
C1855 C1871 1.377 . S
C1856 C1854 1.389 . S
C1856 C1857 1.524 . S
C1856 C1870 1.377 . S
C1857 C1856 1.524 . S
C1857 C1858 1.397 . S
C1857 C1862 1.363 . S
C1858 H1835 0.950 . S
C1858 C1857 1.397 . S
C1858 C1859 1.334 . S
C1859 H1836 0.950 . S
C1859 C1858 1.334 . S
C1859 C1860 1.287 . S
C1860 C1859 1.287 . S
C1860 C1861 1.524 . S
C1860 H1879 0.913 . S
C1861 H1837 0.950 . S
C1861 C1860 1.524 . S
C1861 C1862 1.415 . S
C1862 H1838 0.950 . S
C1862 C1857 1.363 . S
C1862 C1861 1.415 . S
C1863 H1839 0.951 . S
C1863 C1864 1.366 . S
C1863 C1865 1.388 . S
C1864 C1863 1.366 . S
C1864 C1868 1.385 . S
C1865 H1840 0.951 . S
C1865 C1863 1.388 . S
C1865 C1866 1.366 . S
C1866 C1865 1.366 . S
C1866 C1867 1.414 . S
C1866 C1869 1.499 . S
C1867 H1841 0.950 . S
C1867 C1866 1.414 . S
C1867 C1868 1.374 . S
C1868 H1842 0.950 . S
C1868 C1864 1.385 . S
C1868 C1867 1.374 . S
C1869 C1866 1.499 . S
C1869 C1870 1.373 . S
C1869 C1871 1.389 . S
C1870 H1843 0.950 . S
C1870 C1856 1.377 . S
C1870 C1869 1.373 . S
C1871 C1855 1.377 . S
C1871 C1869 1.389 . S
C1871 C1872 1.524 . S
C1872 C1871 1.524 . S
C1872 C1873 1.397 . S
C1872 C1877 1.363 . S
C1873 H1844 0.950 . S
C1873 C1872 1.397 . S
C1873 C1874 1.334 . S
C1874 H1845 0.950 . S
C1874 C1873 1.334 . S
C1874 C1875 1.287 . S
C1875 C1874 1.287 . S
C1875 C1876 1.524 . S
C1875 H1878 0.999 . S
C1876 H1846 0.950 . S
C1876 C1875 1.524 . S
C1876 C1877 1.415 . S
C1877 H1847 0.950 . S
C1877 C1872 1.363 . S
C1877 C1876 1.415 . S
H1878 C1875 0.999 . S
H1879 C1860 0.913 . S
H1880 C1898 0.951 . S
H1881 C1900 0.951 . S
H1882 C1902 0.950 . S
H1883 C1903 0.950 . S
H1884 C1905 0.950 . S
H1885 C1908 0.950 . S
H1886 C1909 0.950 . S
H1887 C1911 0.950 . S
H1888 C1912 0.950 . S
H1889 C1913 0.951 . S
H1890 C1915 0.951 . S
H1891 C1917 0.950 . S
H1892 C1918 0.950 . S
H1893 C1920 0.950 . S
H1894 C1923 0.950 . S
H1895 C1924 0.950 . S
H1896 C1926 0.950 . S
H1897 C1927 0.950 . S
C1898 H1880 0.951 . S
C1898 C1899 1.366 . S
C1898 C1900 1.388 . S
C1899 C1898 1.366 . S
C1899 C1903 1.385 . S
C1900 H1881 0.951 . S
C1900 C1898 1.388 . S
C1900 C1901 1.366 . S
C1901 C1900 1.366 . S
C1901 C1902 1.414 . S
C1901 C1904 1.499 . S
C1902 H1882 0.950 . S
C1902 C1901 1.414 . S
C1902 C1903 1.374 . S
C1903 H1883 0.950 . S
C1903 C1899 1.385 . S
C1903 C1902 1.374 . S
C1904 C1901 1.499 . S
C1904 C1905 1.373 . S
C1904 C1906 1.389 . S
C1905 H1884 0.950 . S
C1905 C1904 1.373 . S
C1905 C1921 1.377 . S
C1906 C1904 1.389 . S
C1906 C1907 1.524 . S
C1906 C1920 1.377 . S
C1907 C1906 1.524 . S
C1907 C1908 1.397 . S
C1907 C1912 1.363 . S
C1908 H1885 0.950 . S
C1908 C1907 1.397 . S
C1908 C1909 1.334 . S
C1909 H1886 0.950 . S
C1909 C1908 1.334 . S
C1909 C1910 1.287 . S
C1910 C1909 1.287 . S
C1910 C1911 1.524 . S
C1910 H1929 0.913 . S
C1911 H1887 0.950 . S
C1911 C1910 1.524 . S
C1911 C1912 1.415 . S
C1912 H1888 0.950 . S
C1912 C1907 1.363 . S
C1912 C1911 1.415 . S
C1913 H1889 0.951 . S
C1913 C1914 1.366 . S
C1913 C1915 1.388 . S
C1914 C1913 1.366 . S
C1914 C1918 1.385 . S
C1915 H1890 0.951 . S
C1915 C1913 1.388 . S
C1915 C1916 1.366 . S
C1916 C1915 1.366 . S
C1916 C1917 1.414 . S
C1916 C1919 1.499 . S
C1917 H1891 0.950 . S
C1917 C1916 1.414 . S
C1917 C1918 1.374 . S
C1918 H1892 0.950 . S
C1918 C1914 1.385 . S
C1918 C1917 1.374 . S
C1919 C1916 1.499 . S
C1919 C1920 1.373 . S
C1919 C1921 1.389 . S
C1920 H1893 0.950 . S
C1920 C1906 1.377 . S
C1920 C1919 1.373 . S
C1921 C1905 1.377 . S
C1921 C1919 1.389 . S
C1921 C1922 1.524 . S
C1922 C1921 1.524 . S
C1922 C1923 1.397 . S
C1922 C1927 1.363 . S
C1923 H1894 0.950 . S
C1923 C1922 1.397 . S
C1923 C1924 1.334 . S
C1924 H1895 0.950 . S
C1924 C1923 1.334 . S
C1924 C1925 1.287 . S
C1925 C1924 1.287 . S
C1925 C1926 1.524 . S
C1925 H1928 0.999 . S
C1926 H1896 0.950 . S
C1926 C1925 1.524 . S
C1926 C1927 1.415 . S
C1927 H1897 0.950 . S
C1927 C1922 1.363 . S
C1927 C1926 1.415 . S
H1928 C1925 0.999 . S
H1929 C1910 0.913 . S
H1930 C1948 0.951 . S
H1931 C1950 0.951 . S
H1932 C1952 0.950 . S
H1933 C1953 0.950 . S
H1934 C1955 0.950 . S
H1935 C1958 0.950 . S
H1936 C1959 0.950 . S
H1937 C1961 0.950 . S
H1938 C1962 0.950 . S
H1939 C1963 0.951 . S
H1940 C1965 0.951 . S
H1941 C1967 0.950 . S
H1942 C1968 0.950 . S
H1943 C1970 0.950 . S
H1944 C1973 0.950 . S
H1945 C1974 0.950 . S
H1946 C1976 0.950 . S
H1947 C1977 0.950 . S
C1948 H1930 0.951 . S
C1948 C1949 1.366 . S
C1948 C1950 1.388 . S
C1949 C1948 1.366 . S
C1949 C1953 1.385 . S
C1950 H1931 0.951 . S
C1950 C1948 1.388 . S
C1950 C1951 1.366 . S
C1951 C1950 1.366 . S
C1951 C1952 1.414 . S
C1951 C1954 1.499 . S
C1952 H1932 0.950 . S
C1952 C1951 1.414 . S
C1952 C1953 1.374 . S
C1953 H1933 0.950 . S
C1953 C1949 1.385 . S
C1953 C1952 1.374 . S
C1954 C1951 1.499 . S
C1954 C1955 1.373 . S
C1954 C1956 1.389 . S
C1955 H1934 0.950 . S
C1955 C1954 1.373 . S
C1955 C1971 1.377 . S
C1956 C1954 1.389 . S
C1956 C1957 1.524 . S
C1956 C1970 1.377 . S
C1957 C1956 1.524 . S
C1957 C1958 1.397 . S
C1957 C1962 1.363 . S
C1958 H1935 0.950 . S
C1958 C1957 1.397 . S
C1958 C1959 1.334 . S
C1959 H1936 0.950 . S
C1959 C1958 1.334 . S
C1959 C1960 1.287 . S
C1960 C1959 1.287 . S
C1960 C1961 1.524 . S
C1960 H1979 0.913 . S
C1961 H1937 0.950 . S
C1961 C1960 1.524 . S
C1961 C1962 1.415 . S
C1962 H1938 0.950 . S
C1962 C1957 1.363 . S
C1962 C1961 1.415 . S
C1963 H1939 0.951 . S
C1963 C1964 1.366 . S
C1963 C1965 1.388 . S
C1964 C1963 1.366 . S
C1964 C1968 1.385 . S
C1965 H1940 0.951 . S
C1965 C1963 1.388 . S
C1965 C1966 1.366 . S
C1966 C1965 1.366 . S
C1966 C1967 1.414 . S
C1966 C1969 1.499 . S
C1967 H1941 0.950 . S
C1967 C1966 1.414 . S
C1967 C1968 1.374 . S
C1968 H1942 0.950 . S
C1968 C1964 1.385 . S
C1968 C1967 1.374 . S
C1969 C1966 1.499 . S
C1969 C1970 1.373 . S
C1969 C1971 1.389 . S
C1970 H1943 0.950 . S
C1970 C1956 1.377 . S
C1970 C1969 1.373 . S
C1971 C1955 1.377 . S
C1971 C1969 1.389 . S
C1971 C1972 1.524 . S
C1972 C1971 1.524 . S
C1972 C1973 1.397 . S
C1972 C1977 1.363 . S
C1973 H1944 0.950 . S
C1973 C1972 1.397 . S
C1973 C1974 1.334 . S
C1974 H1945 0.950 . S
C1974 C1973 1.334 . S
C1974 C1975 1.287 . S
C1975 C1974 1.287 . S
C1975 C1976 1.524 . S
C1975 H1978 0.999 . S
C1976 H1946 0.950 . S
C1976 C1975 1.524 . S
C1976 C1977 1.415 . S
C1977 H1947 0.950 . S
C1977 C1972 1.363 . S
C1977 C1976 1.415 . S
H1978 C1975 0.999 . S
H1979 C1960 0.913 . S
H1980 C1998 0.951 . S
H1981 C2000 0.951 . S
H1982 C2002 0.950 . S
H1983 C2003 0.950 . S
H1984 C2005 0.950 . S
H1985 C2008 0.950 . S
H1986 C2009 0.950 . S
H1987 C2011 0.950 . S
H1988 C2012 0.950 . S
H1989 C2013 0.951 . S
H1990 C2015 0.951 . S
H1991 C2017 0.950 . S
H1992 C2018 0.950 . S
H1993 C2020 0.950 . S
H1994 C2023 0.950 . S
H1995 C2024 0.950 . S
H1996 C2026 0.950 . S
H1997 C2027 0.950 . S
C1998 H1980 0.951 . S
C1998 C1999 1.366 . S
C1998 C2000 1.388 . S
C1999 C1998 1.366 . S
C1999 C2003 1.385 . S
C2000 H1981 0.951 . S
C2000 C1998 1.388 . S
C2000 C2001 1.366 . S
C2001 C2000 1.366 . S
C2001 C2002 1.414 . S
C2001 C2004 1.499 . S
C2002 H1982 0.950 . S
C2002 C2001 1.414 . S
C2002 C2003 1.374 . S
C2003 H1983 0.950 . S
C2003 C1999 1.385 . S
C2003 C2002 1.374 . S
C2004 C2001 1.499 . S
C2004 C2005 1.373 . S
C2004 C2006 1.389 . S
C2005 H1984 0.950 . S
C2005 C2004 1.373 . S
C2005 C2021 1.377 . S
C2006 C2004 1.389 . S
C2006 C2007 1.524 . S
C2006 C2020 1.377 . S
C2007 C2006 1.524 . S
C2007 C2008 1.397 . S
C2007 C2012 1.363 . S
C2008 H1985 0.950 . S
C2008 C2007 1.397 . S
C2008 C2009 1.334 . S
C2009 H1986 0.950 . S
C2009 C2008 1.334 . S
C2009 C2010 1.287 . S
C2010 C2009 1.287 . S
C2010 C2011 1.524 . S
C2010 H2029 0.913 . S
C2011 H1987 0.950 . S
C2011 C2010 1.524 . S
C2011 C2012 1.415 . S
C2012 H1988 0.950 . S
C2012 C2007 1.363 . S
C2012 C2011 1.415 . S
C2013 H1989 0.951 . S
C2013 C2014 1.366 . S
C2013 C2015 1.388 . S
C2014 C2013 1.366 . S
C2014 C2018 1.385 . S
C2015 H1990 0.951 . S
C2015 C2013 1.388 . S
C2015 C2016 1.366 . S
C2016 C2015 1.366 . S
C2016 C2017 1.414 . S
C2016 C2019 1.499 . S
C2017 H1991 0.950 . S
C2017 C2016 1.414 . S
C2017 C2018 1.374 . S
C2018 H1992 0.950 . S
C2018 C2014 1.385 . S
C2018 C2017 1.374 . S
C2019 C2016 1.499 . S
C2019 C2020 1.373 . S
C2019 C2021 1.389 . S
C2020 H1993 0.950 . S
C2020 C2006 1.377 . S
C2020 C2019 1.373 . S
C2021 C2005 1.377 . S
C2021 C2019 1.389 . S
C2021 C2022 1.524 . S
C2022 C2021 1.524 . S
C2022 C2023 1.397 . S
C2022 C2027 1.363 . S
C2023 H1994 0.950 . S
C2023 C2022 1.397 . S
C2023 C2024 1.334 . S
C2024 H1995 0.950 . S
C2024 C2023 1.334 . S
C2024 C2025 1.287 . S
C2025 C2024 1.287 . S
C2025 C2026 1.524 . S
C2025 H2028 0.999 . S
C2026 H1996 0.950 . S
C2026 C2025 1.524 . S
C2026 C2027 1.415 . S
C2027 H1997 0.950 . S
C2027 C2022 1.363 . S
C2027 C2026 1.415 . S
H2028 C2025 0.999 . S
H2029 C2010 0.913 . S
H2030 C2048 0.951 . S
H2031 C2050 0.951 . S
H2032 C2052 0.950 . S
H2033 C2053 0.950 . S
H2034 C2055 0.950 . S
H2035 C2058 0.950 . S
H2036 C2059 0.950 . S
H2037 C2061 0.950 . S
H2038 C2062 0.950 . S
H2039 C2063 0.951 . S
H2040 C2065 0.951 . S
H2041 C2067 0.950 . S
H2042 C2068 0.950 . S
H2043 C2070 0.950 . S
H2044 C2073 0.950 . S
H2045 C2074 0.950 . S
H2046 C2076 0.950 . S
H2047 C2077 0.950 . S
C2048 H2030 0.951 . S
C2048 C2049 1.366 . S
C2048 C2050 1.388 . S
C2049 C2048 1.366 . S
C2049 C2053 1.385 . S
C2050 H2031 0.951 . S
C2050 C2048 1.388 . S
C2050 C2051 1.366 . S
C2051 C2050 1.366 . S
C2051 C2052 1.414 . S
C2051 C2054 1.499 . S
C2052 H2032 0.950 . S
C2052 C2051 1.414 . S
C2052 C2053 1.374 . S
C2053 H2033 0.950 . S
C2053 C2049 1.385 . S
C2053 C2052 1.374 . S
C2054 C2051 1.499 . S
C2054 C2055 1.373 . S
C2054 C2056 1.389 . S
C2055 H2034 0.950 . S
C2055 C2054 1.373 . S
C2055 C2071 1.377 . S
C2056 C2054 1.389 . S
C2056 C2057 1.524 . S
C2056 C2070 1.377 . S
C2057 C2056 1.524 . S
C2057 C2058 1.397 . S
C2057 C2062 1.363 . S
C2058 H2035 0.950 . S
C2058 C2057 1.397 . S
C2058 C2059 1.334 . S
C2059 H2036 0.950 . S
C2059 C2058 1.334 . S
C2059 C2060 1.287 . S
C2060 C2059 1.287 . S
C2060 C2061 1.524 . S
C2060 H2079 0.913 . S
C2061 H2037 0.950 . S
C2061 C2060 1.524 . S
C2061 C2062 1.415 . S
C2062 H2038 0.950 . S
C2062 C2057 1.363 . S
C2062 C2061 1.415 . S
C2063 H2039 0.951 . S
C2063 C2064 1.366 . S
C2063 C2065 1.388 . S
C2064 C2063 1.366 . S
C2064 C2068 1.385 . S
C2065 H2040 0.951 . S
C2065 C2063 1.388 . S
C2065 C2066 1.366 . S
C2066 C2065 1.366 . S
C2066 C2067 1.414 . S
C2066 C2069 1.499 . S
C2067 H2041 0.950 . S
C2067 C2066 1.414 . S
C2067 C2068 1.374 . S
C2068 H2042 0.950 . S
C2068 C2064 1.385 . S
C2068 C2067 1.374 . S
C2069 C2066 1.499 . S
C2069 C2070 1.373 . S
C2069 C2071 1.389 . S
C2070 H2043 0.950 . S
C2070 C2056 1.377 . S
C2070 C2069 1.373 . S
C2071 C2055 1.377 . S
C2071 C2069 1.389 . S
C2071 C2072 1.524 . S
C2072 C2071 1.524 . S
C2072 C2073 1.397 . S
C2072 C2077 1.363 . S
C2073 H2044 0.950 . S
C2073 C2072 1.397 . S
C2073 C2074 1.334 . S
C2074 H2045 0.950 . S
C2074 C2073 1.334 . S
C2074 C2075 1.287 . S
C2075 C2074 1.287 . S
C2075 C2076 1.524 . S
C2075 H2078 0.999 . S
C2076 H2046 0.950 . S
C2076 C2075 1.524 . S
C2076 C2077 1.415 . S
C2077 H2047 0.950 . S
C2077 C2072 1.363 . S
C2077 C2076 1.415 . S
H2078 C2075 0.999 . S
H2079 C2060 0.913 . S
H2080 C2098 0.951 . S
H2081 C2100 0.951 . S
H2082 C2102 0.950 . S
H2083 C2103 0.950 . S
H2084 C2105 0.950 . S
H2085 C2108 0.950 . S
H2086 C2109 0.950 . S
H2087 C2111 0.950 . S
H2088 C2112 0.950 . S
H2089 C2113 0.951 . S
H2090 C2115 0.951 . S
H2091 C2117 0.950 . S
H2092 C2118 0.950 . S
H2093 C2120 0.950 . S
H2094 C2123 0.950 . S
H2095 C2124 0.950 . S
H2096 C2126 0.950 . S
H2097 C2127 0.950 . S
C2098 H2080 0.951 . S
C2098 C2099 1.366 . S
C2098 C2100 1.388 . S
C2099 C2098 1.366 . S
C2099 C2103 1.385 . S
C2100 H2081 0.951 . S
C2100 C2098 1.388 . S
C2100 C2101 1.366 . S
C2101 C2100 1.366 . S
C2101 C2102 1.414 . S
C2101 C2104 1.499 . S
C2102 H2082 0.950 . S
C2102 C2101 1.414 . S
C2102 C2103 1.374 . S
C2103 H2083 0.950 . S
C2103 C2099 1.385 . S
C2103 C2102 1.374 . S
C2104 C2101 1.499 . S
C2104 C2105 1.373 . S
C2104 C2106 1.389 . S
C2105 H2084 0.950 . S
C2105 C2104 1.373 . S
C2105 C2121 1.377 . S
C2106 C2104 1.389 . S
C2106 C2107 1.524 . S
C2106 C2120 1.377 . S
C2107 C2106 1.524 . S
C2107 C2108 1.397 . S
C2107 C2112 1.363 . S
C2108 H2085 0.950 . S
C2108 C2107 1.397 . S
C2108 C2109 1.334 . S
C2109 H2086 0.950 . S
C2109 C2108 1.334 . S
C2109 C2110 1.287 . S
C2110 C2109 1.287 . S
C2110 C2111 1.524 . S
C2110 H2129 0.913 . S
C2111 H2087 0.950 . S
C2111 C2110 1.524 . S
C2111 C2112 1.415 . S
C2112 H2088 0.950 . S
C2112 C2107 1.363 . S
C2112 C2111 1.415 . S
C2113 H2089 0.951 . S
C2113 C2114 1.366 . S
C2113 C2115 1.388 . S
C2114 C2113 1.366 . S
C2114 C2118 1.385 . S
C2115 H2090 0.951 . S
C2115 C2113 1.388 . S
C2115 C2116 1.366 . S
C2116 C2115 1.366 . S
C2116 C2117 1.414 . S
C2116 C2119 1.499 . S
C2117 H2091 0.950 . S
C2117 C2116 1.414 . S
C2117 C2118 1.374 . S
C2118 H2092 0.950 . S
C2118 C2114 1.385 . S
C2118 C2117 1.374 . S
C2119 C2116 1.499 . S
C2119 C2120 1.373 . S
C2119 C2121 1.389 . S
C2120 H2093 0.950 . S
C2120 C2106 1.377 . S
C2120 C2119 1.373 . S
C2121 C2105 1.377 . S
C2121 C2119 1.389 . S
C2121 C2122 1.524 . S
C2122 C2121 1.524 . S
C2122 C2123 1.397 . S
C2122 C2127 1.363 . S
C2123 H2094 0.950 . S
C2123 C2122 1.397 . S
C2123 C2124 1.334 . S
C2124 H2095 0.950 . S
C2124 C2123 1.334 . S
C2124 C2125 1.287 . S
C2125 C2124 1.287 . S
C2125 C2126 1.524 . S
C2125 H2128 0.999 . S
C2126 H2096 0.950 . S
C2126 C2125 1.524 . S
C2126 C2127 1.415 . S
C2127 H2097 0.950 . S
C2127 C2122 1.363 . S
C2127 C2126 1.415 . S
H2128 C2125 0.999 . S
H2129 C2110 0.913 . S
H2130 C2148 0.951 . S
H2131 C2150 0.951 . S
H2132 C2152 0.950 . S
H2133 C2153 0.950 . S
H2134 C2155 0.950 . S
H2135 C2158 0.950 . S
H2136 C2159 0.950 . S
H2137 C2161 0.950 . S
H2138 C2162 0.950 . S
H2139 C2163 0.951 . S
H2140 C2165 0.951 . S
H2141 C2167 0.950 . S
H2142 C2168 0.950 . S
H2143 C2170 0.950 . S
H2144 C2173 0.950 . S
H2145 C2174 0.950 . S
H2146 C2176 0.950 . S
H2147 C2177 0.950 . S
C2148 H2130 0.951 . S
C2148 C2149 1.366 . S
C2148 C2150 1.388 . S
C2149 C2148 1.366 . S
C2149 C2153 1.385 . S
C2150 H2131 0.951 . S
C2150 C2148 1.388 . S
C2150 C2151 1.366 . S
C2151 C2150 1.366 . S
C2151 C2152 1.414 . S
C2151 C2154 1.499 . S
C2152 H2132 0.950 . S
C2152 C2151 1.414 . S
C2152 C2153 1.374 . S
C2153 H2133 0.950 . S
C2153 C2149 1.385 . S
C2153 C2152 1.374 . S
C2154 C2151 1.499 . S
C2154 C2155 1.373 . S
C2154 C2156 1.389 . S
C2155 H2134 0.950 . S
C2155 C2154 1.373 . S
C2155 C2171 1.377 . S
C2156 C2154 1.389 . S
C2156 C2157 1.524 . S
C2156 C2170 1.377 . S
C2157 C2156 1.524 . S
C2157 C2158 1.397 . S
C2157 C2162 1.363 . S
C2158 H2135 0.950 . S
C2158 C2157 1.397 . S
C2158 C2159 1.334 . S
C2159 H2136 0.950 . S
C2159 C2158 1.334 . S
C2159 C2160 1.287 . S
C2160 C2159 1.287 . S
C2160 C2161 1.524 . S
C2160 H2179 0.913 . S
C2161 H2137 0.950 . S
C2161 C2160 1.524 . S
C2161 C2162 1.415 . S
C2162 H2138 0.950 . S
C2162 C2157 1.363 . S
C2162 C2161 1.415 . S
C2163 H2139 0.951 . S
C2163 C2164 1.366 . S
C2163 C2165 1.388 . S
C2164 C2163 1.366 . S
C2164 C2168 1.385 . S
C2165 H2140 0.951 . S
C2165 C2163 1.388 . S
C2165 C2166 1.366 . S
C2166 C2165 1.366 . S
C2166 C2167 1.414 . S
C2166 C2169 1.499 . S
C2167 H2141 0.950 . S
C2167 C2166 1.414 . S
C2167 C2168 1.374 . S
C2168 H2142 0.950 . S
C2168 C2164 1.385 . S
C2168 C2167 1.374 . S
C2169 C2166 1.499 . S
C2169 C2170 1.373 . S
C2169 C2171 1.389 . S
C2170 H2143 0.950 . S
C2170 C2156 1.377 . S
C2170 C2169 1.373 . S
C2171 C2155 1.377 . S
C2171 C2169 1.389 . S
C2171 C2172 1.524 . S
C2172 C2171 1.524 . S
C2172 C2173 1.397 . S
C2172 C2177 1.363 . S
C2173 H2144 0.950 . S
C2173 C2172 1.397 . S
C2173 C2174 1.334 . S
C2174 H2145 0.950 . S
C2174 C2173 1.334 . S
C2174 C2175 1.287 . S
C2175 C2174 1.287 . S
C2175 C2176 1.524 . S
C2175 H2178 0.999 . S
C2176 H2146 0.950 . S
C2176 C2175 1.524 . S
C2176 C2177 1.415 . S
C2177 H2147 0.950 . S
C2177 C2172 1.363 . S
C2177 C2176 1.415 . S
H2178 C2175 0.999 . S
H2179 C2160 0.913 . S
H2180 C2198 0.951 . S
H2181 C2200 0.951 . S
H2182 C2202 0.950 . S
H2183 C2203 0.950 . S
H2184 C2205 0.950 . S
H2185 C2208 0.950 . S
H2186 C2209 0.950 . S
H2187 C2211 0.950 . S
H2188 C2212 0.950 . S
H2189 C2213 0.951 . S
H2190 C2215 0.951 . S
H2191 C2217 0.950 . S
H2192 C2218 0.950 . S
H2193 C2220 0.950 . S
H2194 C2223 0.950 . S
H2195 C2224 0.950 . S
H2196 C2226 0.950 . S
H2197 C2227 0.950 . S
C2198 H2180 0.951 . S
C2198 C2199 1.366 . S
C2198 C2200 1.388 . S
C2199 C2198 1.366 . S
C2199 C2203 1.385 . S
C2200 H2181 0.951 . S
C2200 C2198 1.388 . S
C2200 C2201 1.366 . S
C2201 C2200 1.366 . S
C2201 C2202 1.414 . S
C2201 C2204 1.499 . S
C2202 H2182 0.950 . S
C2202 C2201 1.414 . S
C2202 C2203 1.374 . S
C2203 H2183 0.950 . S
C2203 C2199 1.385 . S
C2203 C2202 1.374 . S
C2204 C2201 1.499 . S
C2204 C2205 1.373 . S
C2204 C2206 1.389 . S
C2205 H2184 0.950 . S
C2205 C2204 1.373 . S
C2205 C2221 1.377 . S
C2206 C2204 1.389 . S
C2206 C2207 1.524 . S
C2206 C2220 1.377 . S
C2207 C2206 1.524 . S
C2207 C2208 1.397 . S
C2207 C2212 1.363 . S
C2208 H2185 0.950 . S
C2208 C2207 1.397 . S
C2208 C2209 1.334 . S
C2209 H2186 0.950 . S
C2209 C2208 1.334 . S
C2209 C2210 1.287 . S
C2210 C2209 1.287 . S
C2210 C2211 1.524 . S
C2210 H2229 0.913 . S
C2211 H2187 0.950 . S
C2211 C2210 1.524 . S
C2211 C2212 1.415 . S
C2212 H2188 0.950 . S
C2212 C2207 1.363 . S
C2212 C2211 1.415 . S
C2213 H2189 0.951 . S
C2213 C2214 1.366 . S
C2213 C2215 1.388 . S
C2214 C2213 1.366 . S
C2214 C2218 1.385 . S
C2215 H2190 0.951 . S
C2215 C2213 1.388 . S
C2215 C2216 1.366 . S
C2216 C2215 1.366 . S
C2216 C2217 1.414 . S
C2216 C2219 1.499 . S
C2217 H2191 0.950 . S
C2217 C2216 1.414 . S
C2217 C2218 1.374 . S
C2218 H2192 0.950 . S
C2218 C2214 1.385 . S
C2218 C2217 1.374 . S
C2219 C2216 1.499 . S
C2219 C2220 1.373 . S
C2219 C2221 1.389 . S
C2220 H2193 0.950 . S
C2220 C2206 1.377 . S
C2220 C2219 1.373 . S
C2221 C2205 1.377 . S
C2221 C2219 1.389 . S
C2221 C2222 1.524 . S
C2222 C2221 1.524 . S
C2222 C2223 1.397 . S
C2222 C2227 1.363 . S
C2223 H2194 0.950 . S
C2223 C2222 1.397 . S
C2223 C2224 1.334 . S
C2224 H2195 0.950 . S
C2224 C2223 1.334 . S
C2224 C2225 1.287 . S
C2225 C2224 1.287 . S
C2225 C2226 1.524 . S
C2225 H2228 0.999 . S
C2226 H2196 0.950 . S
C2226 C2225 1.524 . S
C2226 C2227 1.415 . S
C2227 H2197 0.950 . S
C2227 C2222 1.363 . S
C2227 C2226 1.415 . S
H2228 C2225 0.999 . S
H2229 C2210 0.913 . S
H2230 C2248 0.951 . S
H2231 C2250 0.951 . S
H2232 C2252 0.950 . S
H2233 C2253 0.950 . S
H2234 C2255 0.950 . S
H2235 C2258 0.950 . S
H2236 C2259 0.950 . S
H2237 C2261 0.950 . S
H2238 C2262 0.950 . S
H2239 C2263 0.951 . S
H2240 C2265 0.951 . S
H2241 C2267 0.950 . S
H2242 C2268 0.950 . S
H2243 C2270 0.950 . S
H2244 C2273 0.950 . S
H2245 C2274 0.950 . S
H2246 C2276 0.950 . S
H2247 C2277 0.950 . S
C2248 H2230 0.951 . S
C2248 C2249 1.366 . S
C2248 C2250 1.388 . S
C2249 C2248 1.366 . S
C2249 C2253 1.385 . S
C2250 H2231 0.951 . S
C2250 C2248 1.388 . S
C2250 C2251 1.366 . S
C2251 C2250 1.366 . S
C2251 C2252 1.414 . S
C2251 C2254 1.499 . S
C2252 H2232 0.950 . S
C2252 C2251 1.414 . S
C2252 C2253 1.374 . S
C2253 H2233 0.950 . S
C2253 C2249 1.385 . S
C2253 C2252 1.374 . S
C2254 C2251 1.499 . S
C2254 C2255 1.373 . S
C2254 C2256 1.389 . S
C2255 H2234 0.950 . S
C2255 C2254 1.373 . S
C2255 C2271 1.377 . S
C2256 C2254 1.389 . S
C2256 C2257 1.524 . S
C2256 C2270 1.377 . S
C2257 C2256 1.524 . S
C2257 C2258 1.397 . S
C2257 C2262 1.363 . S
C2258 H2235 0.950 . S
C2258 C2257 1.397 . S
C2258 C2259 1.334 . S
C2259 H2236 0.950 . S
C2259 C2258 1.334 . S
C2259 C2260 1.287 . S
C2260 C2259 1.287 . S
C2260 C2261 1.524 . S
C2260 H2279 0.913 . S
C2261 H2237 0.950 . S
C2261 C2260 1.524 . S
C2261 C2262 1.415 . S
C2262 H2238 0.950 . S
C2262 C2257 1.363 . S
C2262 C2261 1.415 . S
C2263 H2239 0.951 . S
C2263 C2264 1.366 . S
C2263 C2265 1.388 . S
C2264 C2263 1.366 . S
C2264 C2268 1.385 . S
C2265 H2240 0.951 . S
C2265 C2263 1.388 . S
C2265 C2266 1.366 . S
C2266 C2265 1.366 . S
C2266 C2267 1.414 . S
C2266 C2269 1.499 . S
C2267 H2241 0.950 . S
C2267 C2266 1.414 . S
C2267 C2268 1.374 . S
C2268 H2242 0.950 . S
C2268 C2264 1.385 . S
C2268 C2267 1.374 . S
C2269 C2266 1.499 . S
C2269 C2270 1.373 . S
C2269 C2271 1.389 . S
C2270 H2243 0.950 . S
C2270 C2256 1.377 . S
C2270 C2269 1.373 . S
C2271 C2255 1.377 . S
C2271 C2269 1.389 . S
C2271 C2272 1.524 . S
C2272 C2271 1.524 . S
C2272 C2273 1.397 . S
C2272 C2277 1.363 . S
C2273 H2244 0.950 . S
C2273 C2272 1.397 . S
C2273 C2274 1.334 . S
C2274 H2245 0.950 . S
C2274 C2273 1.334 . S
C2274 C2275 1.287 . S
C2275 C2274 1.287 . S
C2275 C2276 1.524 . S
C2275 H2278 0.999 . S
C2276 H2246 0.950 . S
C2276 C2275 1.524 . S
C2276 C2277 1.415 . S
C2277 H2247 0.950 . S
C2277 C2272 1.363 . S
C2277 C2276 1.415 . S
H2278 C2275 0.999 . S
H2279 C2260 0.913 . S
H2280 C2298 0.951 . S
H2281 C2300 0.951 . S
H2282 C2302 0.950 . S
H2283 C2303 0.950 . S
H2284 C2305 0.950 . S
H2285 C2308 0.950 . S
H2286 C2309 0.950 . S
H2287 C2311 0.950 . S
H2288 C2312 0.950 . S
H2289 C2313 0.951 . S
H2290 C2315 0.951 . S
H2291 C2317 0.950 . S
H2292 C2318 0.950 . S
H2293 C2320 0.950 . S
H2294 C2323 0.950 . S
H2295 C2324 0.950 . S
H2296 C2326 0.950 . S
H2297 C2327 0.950 . S
C2298 H2280 0.951 . S
C2298 C2299 1.366 . S
C2298 C2300 1.388 . S
C2299 C2298 1.366 . S
C2299 C2303 1.385 . S
C2300 H2281 0.951 . S
C2300 C2298 1.388 . S
C2300 C2301 1.366 . S
C2301 C2300 1.366 . S
C2301 C2302 1.414 . S
C2301 C2304 1.499 . S
C2302 H2282 0.950 . S
C2302 C2301 1.414 . S
C2302 C2303 1.374 . S
C2303 H2283 0.950 . S
C2303 C2299 1.385 . S
C2303 C2302 1.374 . S
C2304 C2301 1.499 . S
C2304 C2305 1.373 . S
C2304 C2306 1.389 . S
C2305 H2284 0.950 . S
C2305 C2304 1.373 . S
C2305 C2321 1.377 . S
C2306 C2304 1.389 . S
C2306 C2307 1.524 . S
C2306 C2320 1.377 . S
C2307 C2306 1.524 . S
C2307 C2308 1.397 . S
C2307 C2312 1.363 . S
C2308 H2285 0.950 . S
C2308 C2307 1.397 . S
C2308 C2309 1.334 . S
C2309 H2286 0.950 . S
C2309 C2308 1.334 . S
C2309 C2310 1.287 . S
C2310 C2309 1.287 . S
C2310 C2311 1.524 . S
C2310 H2329 0.913 . S
C2311 H2287 0.950 . S
C2311 C2310 1.524 . S
C2311 C2312 1.415 . S
C2312 H2288 0.950 . S
C2312 C2307 1.363 . S
C2312 C2311 1.415 . S
C2313 H2289 0.951 . S
C2313 C2314 1.366 . S
C2313 C2315 1.388 . S
C2314 C2313 1.366 . S
C2314 C2318 1.385 . S
C2315 H2290 0.951 . S
C2315 C2313 1.388 . S
C2315 C2316 1.366 . S
C2316 C2315 1.366 . S
C2316 C2317 1.414 . S
C2316 C2319 1.499 . S
C2317 H2291 0.950 . S
C2317 C2316 1.414 . S
C2317 C2318 1.374 . S
C2318 H2292 0.950 . S
C2318 C2314 1.385 . S
C2318 C2317 1.374 . S
C2319 C2316 1.499 . S
C2319 C2320 1.373 . S
C2319 C2321 1.389 . S
C2320 H2293 0.950 . S
C2320 C2306 1.377 . S
C2320 C2319 1.373 . S
C2321 C2305 1.377 . S
C2321 C2319 1.389 . S
C2321 C2322 1.524 . S
C2322 C2321 1.524 . S
C2322 C2323 1.397 . S
C2322 C2327 1.363 . S
C2323 H2294 0.950 . S
C2323 C2322 1.397 . S
C2323 C2324 1.334 . S
C2324 H2295 0.950 . S
C2324 C2323 1.334 . S
C2324 C2325 1.287 . S
C2325 C2324 1.287 . S
C2325 C2326 1.524 . S
C2325 H2328 0.999 . S
C2326 H2296 0.950 . S
C2326 C2325 1.524 . S
C2326 C2327 1.415 . S
C2327 H2297 0.950 . S
C2327 C2322 1.363 . S
C2327 C2326 1.415 . S
H2328 C2325 0.999 . S
H2329 C2310 0.913 . S
H2330 C2348 0.951 . S
H2331 C2350 0.951 . S
H2332 C2352 0.950 . S
H2333 C2353 0.950 . S
H2334 C2355 0.950 . S
H2335 C2358 0.950 . S
H2336 C2359 0.950 . S
H2337 C2361 0.950 . S
H2338 C2362 0.950 . S
H2339 C2363 0.951 . S
H2340 C2365 0.951 . S
H2341 C2367 0.950 . S
H2342 C2368 0.950 . S
H2343 C2370 0.950 . S
H2344 C2373 0.950 . S
H2345 C2374 0.950 . S
H2346 C2376 0.950 . S
H2347 C2377 0.950 . S
C2348 H2330 0.951 . S
C2348 C2349 1.366 . S
C2348 C2350 1.388 . S
C2349 C2348 1.366 . S
C2349 C2353 1.385 . S
C2350 H2331 0.951 . S
C2350 C2348 1.388 . S
C2350 C2351 1.366 . S
C2351 C2350 1.366 . S
C2351 C2352 1.414 . S
C2351 C2354 1.499 . S
C2352 H2332 0.950 . S
C2352 C2351 1.414 . S
C2352 C2353 1.374 . S
C2353 H2333 0.950 . S
C2353 C2349 1.385 . S
C2353 C2352 1.374 . S
C2354 C2351 1.499 . S
C2354 C2355 1.373 . S
C2354 C2356 1.389 . S
C2355 H2334 0.950 . S
C2355 C2354 1.373 . S
C2355 C2371 1.377 . S
C2356 C2354 1.389 . S
C2356 C2357 1.524 . S
C2356 C2370 1.377 . S
C2357 C2356 1.524 . S
C2357 C2358 1.397 . S
C2357 C2362 1.363 . S
C2358 H2335 0.950 . S
C2358 C2357 1.397 . S
C2358 C2359 1.334 . S
C2359 H2336 0.950 . S
C2359 C2358 1.334 . S
C2359 C2360 1.287 . S
C2360 C2359 1.287 . S
C2360 C2361 1.524 . S
C2360 H2379 0.913 . S
C2361 H2337 0.950 . S
C2361 C2360 1.524 . S
C2361 C2362 1.415 . S
C2362 H2338 0.950 . S
C2362 C2357 1.363 . S
C2362 C2361 1.415 . S
C2363 H2339 0.951 . S
C2363 C2364 1.366 . S
C2363 C2365 1.388 . S
C2364 C2363 1.366 . S
C2364 C2368 1.385 . S
C2365 H2340 0.951 . S
C2365 C2363 1.388 . S
C2365 C2366 1.366 . S
C2366 C2365 1.366 . S
C2366 C2367 1.414 . S
C2366 C2369 1.499 . S
C2367 H2341 0.950 . S
C2367 C2366 1.414 . S
C2367 C2368 1.374 . S
C2368 H2342 0.950 . S
C2368 C2364 1.385 . S
C2368 C2367 1.374 . S
C2369 C2366 1.499 . S
C2369 C2370 1.373 . S
C2369 C2371 1.389 . S
C2370 H2343 0.950 . S
C2370 C2356 1.377 . S
C2370 C2369 1.373 . S
C2371 C2355 1.377 . S
C2371 C2369 1.389 . S
C2371 C2372 1.524 . S
C2372 C2371 1.524 . S
C2372 C2373 1.397 . S
C2372 C2377 1.363 . S
C2373 H2344 0.950 . S
C2373 C2372 1.397 . S
C2373 C2374 1.334 . S
C2374 H2345 0.950 . S
C2374 C2373 1.334 . S
C2374 C2375 1.287 . S
C2375 C2374 1.287 . S
C2375 C2376 1.524 . S
C2375 H2378 0.999 . S
C2376 H2346 0.950 . S
C2376 C2375 1.524 . S
C2376 C2377 1.415 . S
C2377 H2347 0.950 . S
C2377 C2372 1.363 . S
C2377 C2376 1.415 . S
H2378 C2375 0.999 . S
H2379 C2360 0.913 . S
H2380 C2398 0.951 . S
H2381 C2400 0.951 . S
H2382 C2402 0.950 . S
H2383 C2403 0.950 . S
H2384 C2405 0.950 . S
H2385 C2408 0.950 . S
H2386 C2409 0.950 . S
H2387 C2411 0.950 . S
H2388 C2412 0.950 . S
H2389 C2413 0.951 . S
H2390 C2415 0.951 . S
H2391 C2417 0.950 . S
H2392 C2418 0.950 . S
H2393 C2420 0.950 . S
H2394 C2423 0.950 . S
H2395 C2424 0.950 . S
H2396 C2426 0.950 . S
H2397 C2427 0.950 . S
C2398 H2380 0.951 . S
C2398 C2399 1.366 . S
C2398 C2400 1.388 . S
C2399 C2398 1.366 . S
C2399 C2403 1.385 . S
C2400 H2381 0.951 . S
C2400 C2398 1.388 . S
C2400 C2401 1.366 . S
C2401 C2400 1.366 . S
C2401 C2402 1.414 . S
C2401 C2404 1.499 . S
C2402 H2382 0.950 . S
C2402 C2401 1.414 . S
C2402 C2403 1.374 . S
C2403 H2383 0.950 . S
C2403 C2399 1.385 . S
C2403 C2402 1.374 . S
C2404 C2401 1.499 . S
C2404 C2405 1.373 . S
C2404 C2406 1.389 . S
C2405 H2384 0.950 . S
C2405 C2404 1.373 . S
C2405 C2421 1.377 . S
C2406 C2404 1.389 . S
C2406 C2407 1.524 . S
C2406 C2420 1.377 . S
C2407 C2406 1.524 . S
C2407 C2408 1.397 . S
C2407 C2412 1.363 . S
C2408 H2385 0.950 . S
C2408 C2407 1.397 . S
C2408 C2409 1.334 . S
C2409 H2386 0.950 . S
C2409 C2408 1.334 . S
C2409 C2410 1.287 . S
C2410 C2409 1.287 . S
C2410 C2411 1.524 . S
C2410 H2429 0.913 . S
C2411 H2387 0.950 . S
C2411 C2410 1.524 . S
C2411 C2412 1.415 . S
C2412 H2388 0.950 . S
C2412 C2407 1.363 . S
C2412 C2411 1.415 . S
C2413 H2389 0.951 . S
C2413 C2414 1.366 . S
C2413 C2415 1.388 . S
C2414 C2413 1.366 . S
C2414 C2418 1.385 . S
C2415 H2390 0.951 . S
C2415 C2413 1.388 . S
C2415 C2416 1.366 . S
C2416 C2415 1.366 . S
C2416 C2417 1.414 . S
C2416 C2419 1.499 . S
C2417 H2391 0.950 . S
C2417 C2416 1.414 . S
C2417 C2418 1.374 . S
C2418 H2392 0.950 . S
C2418 C2414 1.385 . S
C2418 C2417 1.374 . S
C2419 C2416 1.499 . S
C2419 C2420 1.373 . S
C2419 C2421 1.389 . S
C2420 H2393 0.950 . S
C2420 C2406 1.377 . S
C2420 C2419 1.373 . S
C2421 C2405 1.377 . S
C2421 C2419 1.389 . S
C2421 C2422 1.524 . S
C2422 C2421 1.524 . S
C2422 C2423 1.397 . S
C2422 C2427 1.363 . S
C2423 H2394 0.950 . S
C2423 C2422 1.397 . S
C2423 C2424 1.334 . S
C2424 H2395 0.950 . S
C2424 C2423 1.334 . S
C2424 C2425 1.287 . S
C2425 C2424 1.287 . S
C2425 C2426 1.524 . S
C2425 H2428 0.999 . S
C2426 H2396 0.950 . S
C2426 C2425 1.524 . S
C2426 C2427 1.415 . S
C2427 H2397 0.950 . S
C2427 C2422 1.363 . S
C2427 C2426 1.415 . S
H2428 C2425 0.999 . S
H2429 C2410 0.913 . S
H2430 C2448 0.951 . S
H2431 C2450 0.951 . S
H2432 C2452 0.950 . S
H2433 C2453 0.950 . S
H2434 C2455 0.950 . S
H2435 C2458 0.950 . S
H2436 C2459 0.950 . S
H2437 C2461 0.950 . S
H2438 C2462 0.950 . S
H2439 C2463 0.951 . S
H2440 C2465 0.951 . S
H2441 C2467 0.950 . S
H2442 C2468 0.950 . S
H2443 C2470 0.950 . S
H2444 C2473 0.950 . S
H2445 C2474 0.950 . S
H2446 C2476 0.950 . S
H2447 C2477 0.950 . S
C2448 H2430 0.951 . S
C2448 C2449 1.366 . S
C2448 C2450 1.388 . S
C2449 C2448 1.366 . S
C2449 C2453 1.385 . S
C2450 H2431 0.951 . S
C2450 C2448 1.388 . S
C2450 C2451 1.366 . S
C2451 C2450 1.366 . S
C2451 C2452 1.414 . S
C2451 C2454 1.499 . S
C2452 H2432 0.950 . S
C2452 C2451 1.414 . S
C2452 C2453 1.374 . S
C2453 H2433 0.950 . S
C2453 C2449 1.385 . S
C2453 C2452 1.374 . S
C2454 C2451 1.499 . S
C2454 C2455 1.373 . S
C2454 C2456 1.389 . S
C2455 H2434 0.950 . S
C2455 C2454 1.373 . S
C2455 C2471 1.377 . S
C2456 C2454 1.389 . S
C2456 C2457 1.524 . S
C2456 C2470 1.377 . S
C2457 C2456 1.524 . S
C2457 C2458 1.397 . S
C2457 C2462 1.363 . S
C2458 H2435 0.950 . S
C2458 C2457 1.397 . S
C2458 C2459 1.334 . S
C2459 H2436 0.950 . S
C2459 C2458 1.334 . S
C2459 C2460 1.287 . S
C2460 C2459 1.287 . S
C2460 C2461 1.524 . S
C2460 H2479 0.913 . S
C2461 H2437 0.950 . S
C2461 C2460 1.524 . S
C2461 C2462 1.415 . S
C2462 H2438 0.950 . S
C2462 C2457 1.363 . S
C2462 C2461 1.415 . S
C2463 H2439 0.951 . S
C2463 C2464 1.366 . S
C2463 C2465 1.388 . S
C2464 C2463 1.366 . S
C2464 C2468 1.385 . S
C2465 H2440 0.951 . S
C2465 C2463 1.388 . S
C2465 C2466 1.366 . S
C2466 C2465 1.366 . S
C2466 C2467 1.414 . S
C2466 C2469 1.499 . S
C2467 H2441 0.950 . S
C2467 C2466 1.414 . S
C2467 C2468 1.374 . S
C2468 H2442 0.950 . S
C2468 C2464 1.385 . S
C2468 C2467 1.374 . S
C2469 C2466 1.499 . S
C2469 C2470 1.373 . S
C2469 C2471 1.389 . S
C2470 H2443 0.950 . S
C2470 C2456 1.377 . S
C2470 C2469 1.373 . S
C2471 C2455 1.377 . S
C2471 C2469 1.389 . S
C2471 C2472 1.524 . S
C2472 C2471 1.524 . S
C2472 C2473 1.397 . S
C2472 C2477 1.363 . S
C2473 H2444 0.950 . S
C2473 C2472 1.397 . S
C2473 C2474 1.334 . S
C2474 H2445 0.950 . S
C2474 C2473 1.334 . S
C2474 C2475 1.287 . S
C2475 C2474 1.287 . S
C2475 C2476 1.524 . S
C2475 H2478 0.999 . S
C2476 H2446 0.950 . S
C2476 C2475 1.524 . S
C2476 C2477 1.415 . S
C2477 H2447 0.950 . S
C2477 C2472 1.363 . S
C2477 C2476 1.415 . S
H2478 C2475 0.999 . S
H2479 C2460 0.913 . S
H2480 C2498 0.951 . S
H2481 C2500 0.951 . S
H2482 C2502 0.950 . S
H2483 C2503 0.950 . S
H2484 C2505 0.950 . S
H2485 C2508 0.950 . S
H2486 C2509 0.950 . S
H2487 C2511 0.950 . S
H2488 C2512 0.950 . S
H2489 C2513 0.951 . S
H2490 C2515 0.951 . S
H2491 C2517 0.950 . S
H2492 C2518 0.950 . S
H2493 C2520 0.950 . S
H2494 C2523 0.950 . S
H2495 C2524 0.950 . S
H2496 C2526 0.950 . S
H2497 C2527 0.950 . S
C2498 H2480 0.951 . S
C2498 C2499 1.366 . S
C2498 C2500 1.388 . S
C2499 C2498 1.366 . S
C2499 C2503 1.385 . S
C2500 H2481 0.951 . S
C2500 C2498 1.388 . S
C2500 C2501 1.366 . S
C2501 C2500 1.366 . S
C2501 C2502 1.414 . S
C2501 C2504 1.499 . S
C2502 H2482 0.950 . S
C2502 C2501 1.414 . S
C2502 C2503 1.374 . S
C2503 H2483 0.950 . S
C2503 C2499 1.385 . S
C2503 C2502 1.374 . S
C2504 C2501 1.499 . S
C2504 C2505 1.373 . S
C2504 C2506 1.389 . S
C2505 H2484 0.950 . S
C2505 C2504 1.373 . S
C2505 C2521 1.377 . S
C2506 C2504 1.389 . S
C2506 C2507 1.524 . S
C2506 C2520 1.377 . S
C2507 C2506 1.524 . S
C2507 C2508 1.397 . S
C2507 C2512 1.363 . S
C2508 H2485 0.950 . S
C2508 C2507 1.397 . S
C2508 C2509 1.334 . S
C2509 H2486 0.950 . S
C2509 C2508 1.334 . S
C2509 C2510 1.287 . S
C2510 C2509 1.287 . S
C2510 C2511 1.524 . S
C2510 H2529 0.913 . S
C2511 H2487 0.950 . S
C2511 C2510 1.524 . S
C2511 C2512 1.415 . S
C2512 H2488 0.950 . S
C2512 C2507 1.363 . S
C2512 C2511 1.415 . S
C2513 H2489 0.951 . S
C2513 C2514 1.366 . S
C2513 C2515 1.388 . S
C2514 C2513 1.366 . S
C2514 C2518 1.385 . S
C2515 H2490 0.951 . S
C2515 C2513 1.388 . S
C2515 C2516 1.366 . S
C2516 C2515 1.366 . S
C2516 C2517 1.414 . S
C2516 C2519 1.499 . S
C2517 H2491 0.950 . S
C2517 C2516 1.414 . S
C2517 C2518 1.374 . S
C2518 H2492 0.950 . S
C2518 C2514 1.385 . S
C2518 C2517 1.374 . S
C2519 C2516 1.499 . S
C2519 C2520 1.373 . S
C2519 C2521 1.389 . S
C2520 H2493 0.950 . S
C2520 C2506 1.377 . S
C2520 C2519 1.373 . S
C2521 C2505 1.377 . S
C2521 C2519 1.389 . S
C2521 C2522 1.524 . S
C2522 C2521 1.524 . S
C2522 C2523 1.397 . S
C2522 C2527 1.363 . S
C2523 H2494 0.950 . S
C2523 C2522 1.397 . S
C2523 C2524 1.334 . S
C2524 H2495 0.950 . S
C2524 C2523 1.334 . S
C2524 C2525 1.287 . S
C2525 C2524 1.287 . S
C2525 C2526 1.524 . S
C2525 H2528 0.999 . S
C2526 H2496 0.950 . S
C2526 C2525 1.524 . S
C2526 C2527 1.415 . S
C2527 H2497 0.950 . S
C2527 C2522 1.363 . S
C2527 C2526 1.415 . S
H2528 C2525 0.999 . S
H2529 C2510 0.913 . S
H2530 C2548 0.951 . S
H2531 C2550 0.951 . S
H2532 C2552 0.950 . S
H2533 C2553 0.950 . S
H2534 C2555 0.950 . S
H2535 C2558 0.950 . S
H2536 C2559 0.950 . S
H2537 C2561 0.950 . S
H2538 C2562 0.950 . S
H2539 C2563 0.951 . S
H2540 C2565 0.951 . S
H2541 C2567 0.950 . S
H2542 C2568 0.950 . S
H2543 C2570 0.950 . S
H2544 C2573 0.950 . S
H2545 C2574 0.950 . S
H2546 C2576 0.950 . S
H2547 C2577 0.950 . S
C2548 H2530 0.951 . S
C2548 C2549 1.366 . S
C2548 C2550 1.388 . S
C2549 C2548 1.366 . S
C2549 C2553 1.385 . S
C2550 H2531 0.951 . S
C2550 C2548 1.388 . S
C2550 C2551 1.366 . S
C2551 C2550 1.366 . S
C2551 C2552 1.414 . S
C2551 C2554 1.499 . S
C2552 H2532 0.950 . S
C2552 C2551 1.414 . S
C2552 C2553 1.374 . S
C2553 H2533 0.950 . S
C2553 C2549 1.385 . S
C2553 C2552 1.374 . S
C2554 C2551 1.499 . S
C2554 C2555 1.373 . S
C2554 C2556 1.389 . S
C2555 H2534 0.950 . S
C2555 C2554 1.373 . S
C2555 C2571 1.377 . S
C2556 C2554 1.389 . S
C2556 C2557 1.524 . S
C2556 C2570 1.377 . S
C2557 C2556 1.524 . S
C2557 C2558 1.397 . S
C2557 C2562 1.363 . S
C2558 H2535 0.950 . S
C2558 C2557 1.397 . S
C2558 C2559 1.334 . S
C2559 H2536 0.950 . S
C2559 C2558 1.334 . S
C2559 C2560 1.287 . S
C2560 C2559 1.287 . S
C2560 C2561 1.524 . S
C2560 H2579 0.913 . S
C2561 H2537 0.950 . S
C2561 C2560 1.524 . S
C2561 C2562 1.415 . S
C2562 H2538 0.950 . S
C2562 C2557 1.363 . S
C2562 C2561 1.415 . S
C2563 H2539 0.951 . S
C2563 C2564 1.366 . S
C2563 C2565 1.388 . S
C2564 C2563 1.366 . S
C2564 C2568 1.385 . S
C2565 H2540 0.951 . S
C2565 C2563 1.388 . S
C2565 C2566 1.366 . S
C2566 C2565 1.366 . S
C2566 C2567 1.414 . S
C2566 C2569 1.499 . S
C2567 H2541 0.950 . S
C2567 C2566 1.414 . S
C2567 C2568 1.374 . S
C2568 H2542 0.950 . S
C2568 C2564 1.385 . S
C2568 C2567 1.374 . S
C2569 C2566 1.499 . S
C2569 C2570 1.373 . S
C2569 C2571 1.389 . S
C2570 H2543 0.950 . S
C2570 C2556 1.377 . S
C2570 C2569 1.373 . S
C2571 C2555 1.377 . S
C2571 C2569 1.389 . S
C2571 C2572 1.524 . S
C2572 C2571 1.524 . S
C2572 C2573 1.397 . S
C2572 C2577 1.363 . S
C2573 H2544 0.950 . S
C2573 C2572 1.397 . S
C2573 C2574 1.334 . S
C2574 H2545 0.950 . S
C2574 C2573 1.334 . S
C2574 C2575 1.287 . S
C2575 C2574 1.287 . S
C2575 C2576 1.524 . S
C2575 H2578 0.999 . S
C2576 H2546 0.950 . S
C2576 C2575 1.524 . S
C2576 C2577 1.415 . S
C2577 H2547 0.950 . S
C2577 C2572 1.363 . S
C2577 C2576 1.415 . S
H2578 C2575 0.999 . S
H2579 C2560 0.913 . S
H2580 C2598 0.951 . S
H2581 C2600 0.951 . S
H2582 C2602 0.950 . S
H2583 C2603 0.950 . S
H2584 C2605 0.950 . S
H2585 C2608 0.950 . S
H2586 C2609 0.950 . S
H2587 C2611 0.950 . S
H2588 C2612 0.950 . S
H2589 C2613 0.951 . S
H2590 C2615 0.951 . S
H2591 C2617 0.950 . S
H2592 C2618 0.950 . S
H2593 C2620 0.950 . S
H2594 C2623 0.950 . S
H2595 C2624 0.950 . S
H2596 C2626 0.950 . S
H2597 C2627 0.950 . S
C2598 H2580 0.951 . S
C2598 C2599 1.366 . S
C2598 C2600 1.388 . S
C2599 C2598 1.366 . S
C2599 C2603 1.385 . S
C2600 H2581 0.951 . S
C2600 C2598 1.388 . S
C2600 C2601 1.366 . S
C2601 C2600 1.366 . S
C2601 C2602 1.414 . S
C2601 C2604 1.499 . S
C2602 H2582 0.950 . S
C2602 C2601 1.414 . S
C2602 C2603 1.374 . S
C2603 H2583 0.950 . S
C2603 C2599 1.385 . S
C2603 C2602 1.374 . S
C2604 C2601 1.499 . S
C2604 C2605 1.373 . S
C2604 C2606 1.389 . S
C2605 H2584 0.950 . S
C2605 C2604 1.373 . S
C2605 C2621 1.377 . S
C2606 C2604 1.389 . S
C2606 C2607 1.524 . S
C2606 C2620 1.377 . S
C2607 C2606 1.524 . S
C2607 C2608 1.397 . S
C2607 C2612 1.363 . S
C2608 H2585 0.950 . S
C2608 C2607 1.397 . S
C2608 C2609 1.334 . S
C2609 H2586 0.950 . S
C2609 C2608 1.334 . S
C2609 C2610 1.287 . S
C2610 C2609 1.287 . S
C2610 C2611 1.524 . S
C2610 H2629 0.913 . S
C2611 H2587 0.950 . S
C2611 C2610 1.524 . S
C2611 C2612 1.415 . S
C2612 H2588 0.950 . S
C2612 C2607 1.363 . S
C2612 C2611 1.415 . S
C2613 H2589 0.951 . S
C2613 C2614 1.366 . S
C2613 C2615 1.388 . S
C2614 C2613 1.366 . S
C2614 C2618 1.385 . S
C2615 H2590 0.951 . S
C2615 C2613 1.388 . S
C2615 C2616 1.366 . S
C2616 C2615 1.366 . S
C2616 C2617 1.414 . S
C2616 C2619 1.499 . S
C2617 H2591 0.950 . S
C2617 C2616 1.414 . S
C2617 C2618 1.374 . S
C2618 H2592 0.950 . S
C2618 C2614 1.385 . S
C2618 C2617 1.374 . S
C2619 C2616 1.499 . S
C2619 C2620 1.373 . S
C2619 C2621 1.389 . S
C2620 H2593 0.950 . S
C2620 C2606 1.377 . S
C2620 C2619 1.373 . S
C2621 C2605 1.377 . S
C2621 C2619 1.389 . S
C2621 C2622 1.524 . S
C2622 C2621 1.524 . S
C2622 C2623 1.397 . S
C2622 C2627 1.363 . S
C2623 H2594 0.950 . S
C2623 C2622 1.397 . S
C2623 C2624 1.334 . S
C2624 H2595 0.950 . S
C2624 C2623 1.334 . S
C2624 C2625 1.287 . S
C2625 C2624 1.287 . S
C2625 C2626 1.524 . S
C2625 H2628 0.999 . S
C2626 H2596 0.950 . S
C2626 C2625 1.524 . S
C2626 C2627 1.415 . S
C2627 H2597 0.950 . S
C2627 C2622 1.363 . S
C2627 C2626 1.415 . S
H2628 C2625 0.999 . S
H2629 C2610 0.913 . S
H2630 C2648 0.951 . S
H2631 C2650 0.951 . S
H2632 C2652 0.950 . S
H2633 C2653 0.950 . S
H2634 C2655 0.950 . S
H2635 C2658 0.950 . S
H2636 C2659 0.950 . S
H2637 C2661 0.950 . S
H2638 C2662 0.950 . S
H2639 C2663 0.951 . S
H2640 C2665 0.951 . S
H2641 C2667 0.950 . S
H2642 C2668 0.950 . S
H2643 C2670 0.950 . S
H2644 C2673 0.950 . S
H2645 C2674 0.950 . S
H2646 C2676 0.950 . S
H2647 C2677 0.950 . S
C2648 H2630 0.951 . S
C2648 C2649 1.366 . S
C2648 C2650 1.388 . S
C2649 C2648 1.366 . S
C2649 C2653 1.385 . S
C2650 H2631 0.951 . S
C2650 C2648 1.388 . S
C2650 C2651 1.366 . S
C2651 C2650 1.366 . S
C2651 C2652 1.414 . S
C2651 C2654 1.499 . S
C2652 H2632 0.950 . S
C2652 C2651 1.414 . S
C2652 C2653 1.374 . S
C2653 H2633 0.950 . S
C2653 C2649 1.385 . S
C2653 C2652 1.374 . S
C2654 C2651 1.499 . S
C2654 C2655 1.373 . S
C2654 C2656 1.389 . S
C2655 H2634 0.950 . S
C2655 C2654 1.373 . S
C2655 C2671 1.377 . S
C2656 C2654 1.389 . S
C2656 C2657 1.524 . S
C2656 C2670 1.377 . S
C2657 C2656 1.524 . S
C2657 C2658 1.397 . S
C2657 C2662 1.363 . S
C2658 H2635 0.950 . S
C2658 C2657 1.397 . S
C2658 C2659 1.334 . S
C2659 H2636 0.950 . S
C2659 C2658 1.334 . S
C2659 C2660 1.287 . S
C2660 C2659 1.287 . S
C2660 C2661 1.524 . S
C2660 H2679 0.913 . S
C2661 H2637 0.950 . S
C2661 C2660 1.524 . S
C2661 C2662 1.415 . S
C2662 H2638 0.950 . S
C2662 C2657 1.363 . S
C2662 C2661 1.415 . S
C2663 H2639 0.951 . S
C2663 C2664 1.366 . S
C2663 C2665 1.388 . S
C2664 C2663 1.366 . S
C2664 C2668 1.385 . S
C2665 H2640 0.951 . S
C2665 C2663 1.388 . S
C2665 C2666 1.366 . S
C2666 C2665 1.366 . S
C2666 C2667 1.414 . S
C2666 C2669 1.499 . S
C2667 H2641 0.950 . S
C2667 C2666 1.414 . S
C2667 C2668 1.374 . S
C2668 H2642 0.950 . S
C2668 C2664 1.385 . S
C2668 C2667 1.374 . S
C2669 C2666 1.499 . S
C2669 C2670 1.373 . S
C2669 C2671 1.389 . S
C2670 H2643 0.950 . S
C2670 C2656 1.377 . S
C2670 C2669 1.373 . S
C2671 C2655 1.377 . S
C2671 C2669 1.389 . S
C2671 C2672 1.524 . S
C2672 C2671 1.524 . S
C2672 C2673 1.397 . S
C2672 C2677 1.363 . S
C2673 H2644 0.950 . S
C2673 C2672 1.397 . S
C2673 C2674 1.334 . S
C2674 H2645 0.950 . S
C2674 C2673 1.334 . S
C2674 C2675 1.287 . S
C2675 C2674 1.287 . S
C2675 C2676 1.524 . S
C2675 H2678 0.999 . S
C2676 H2646 0.950 . S
C2676 C2675 1.524 . S
C2676 C2677 1.415 . S
C2677 H2647 0.950 . S
C2677 C2672 1.363 . S
C2677 C2676 1.415 . S
H2678 C2675 0.999 . S
H2679 C2660 0.913 . S
H2680 C2698 0.951 . S
H2681 C2700 0.951 . S
H2682 C2702 0.950 . S
H2683 C2703 0.950 . S
H2684 C2705 0.950 . S
H2685 C2708 0.950 . S
H2686 C2709 0.950 . S
H2687 C2711 0.950 . S
H2688 C2712 0.950 . S
H2689 C2713 0.951 . S
H2690 C2715 0.951 . S
H2691 C2717 0.950 . S
H2692 C2718 0.950 . S
H2693 C2720 0.950 . S
H2694 C2723 0.950 . S
H2695 C2724 0.950 . S
H2696 C2726 0.950 . S
H2697 C2727 0.950 . S
C2698 H2680 0.951 . S
C2698 C2699 1.366 . S
C2698 C2700 1.388 . S
C2699 C2698 1.366 . S
C2699 C2703 1.385 . S
C2700 H2681 0.951 . S
C2700 C2698 1.388 . S
C2700 C2701 1.366 . S
C2701 C2700 1.366 . S
C2701 C2702 1.414 . S
C2701 C2704 1.499 . S
C2702 H2682 0.950 . S
C2702 C2701 1.414 . S
C2702 C2703 1.374 . S
C2703 H2683 0.950 . S
C2703 C2699 1.385 . S
C2703 C2702 1.374 . S
C2704 C2701 1.499 . S
C2704 C2705 1.373 . S
C2704 C2706 1.389 . S
C2705 H2684 0.950 . S
C2705 C2704 1.373 . S
C2705 C2721 1.377 . S
C2706 C2704 1.389 . S
C2706 C2707 1.524 . S
C2706 C2720 1.377 . S
C2707 C2706 1.524 . S
C2707 C2708 1.397 . S
C2707 C2712 1.363 . S
C2708 H2685 0.950 . S
C2708 C2707 1.397 . S
C2708 C2709 1.334 . S
C2709 H2686 0.950 . S
C2709 C2708 1.334 . S
C2709 C2710 1.287 . S
C2710 C2709 1.287 . S
C2710 C2711 1.524 . S
C2710 H2729 0.913 . S
C2711 H2687 0.950 . S
C2711 C2710 1.524 . S
C2711 C2712 1.415 . S
C2712 H2688 0.950 . S
C2712 C2707 1.363 . S
C2712 C2711 1.415 . S
C2713 H2689 0.951 . S
C2713 C2714 1.366 . S
C2713 C2715 1.388 . S
C2714 C2713 1.366 . S
C2714 C2718 1.385 . S
C2715 H2690 0.951 . S
C2715 C2713 1.388 . S
C2715 C2716 1.366 . S
C2716 C2715 1.366 . S
C2716 C2717 1.414 . S
C2716 C2719 1.499 . S
C2717 H2691 0.950 . S
C2717 C2716 1.414 . S
C2717 C2718 1.374 . S
C2718 H2692 0.950 . S
C2718 C2714 1.385 . S
C2718 C2717 1.374 . S
C2719 C2716 1.499 . S
C2719 C2720 1.373 . S
C2719 C2721 1.389 . S
C2720 H2693 0.950 . S
C2720 C2706 1.377 . S
C2720 C2719 1.373 . S
C2721 C2705 1.377 . S
C2721 C2719 1.389 . S
C2721 C2722 1.524 . S
C2722 C2721 1.524 . S
C2722 C2723 1.397 . S
C2722 C2727 1.363 . S
C2723 H2694 0.950 . S
C2723 C2722 1.397 . S
C2723 C2724 1.334 . S
C2724 H2695 0.950 . S
C2724 C2723 1.334 . S
C2724 C2725 1.287 . S
C2725 C2724 1.287 . S
C2725 C2726 1.524 . S
C2725 H2728 0.999 . S
C2726 H2696 0.950 . S
C2726 C2725 1.524 . S
C2726 C2727 1.415 . S
C2727 H2697 0.950 . S
C2727 C2722 1.363 . S
C2727 C2726 1.415 . S
H2728 C2725 0.999 . S
H2729 C2710 0.913 . S
H2730 C2748 0.951 . S
H2731 C2750 0.951 . S
H2732 C2752 0.950 . S
H2733 C2753 0.950 . S
H2734 C2755 0.950 . S
H2735 C2758 0.950 . S
H2736 C2759 0.950 . S
H2737 C2761 0.950 . S
H2738 C2762 0.950 . S
H2739 C2763 0.951 . S
H2740 C2765 0.951 . S
H2741 C2767 0.950 . S
H2742 C2768 0.950 . S
H2743 C2770 0.950 . S
H2744 C2773 0.950 . S
H2745 C2774 0.950 . S
H2746 C2776 0.950 . S
H2747 C2777 0.950 . S
C2748 H2730 0.951 . S
C2748 C2749 1.366 . S
C2748 C2750 1.388 . S
C2749 C2748 1.366 . S
C2749 C2753 1.385 . S
C2750 H2731 0.951 . S
C2750 C2748 1.388 . S
C2750 C2751 1.366 . S
C2751 C2750 1.366 . S
C2751 C2752 1.414 . S
C2751 C2754 1.499 . S
C2752 H2732 0.950 . S
C2752 C2751 1.414 . S
C2752 C2753 1.374 . S
C2753 H2733 0.950 . S
C2753 C2749 1.385 . S
C2753 C2752 1.374 . S
C2754 C2751 1.499 . S
C2754 C2755 1.373 . S
C2754 C2756 1.389 . S
C2755 H2734 0.950 . S
C2755 C2754 1.373 . S
C2755 C2771 1.377 . S
C2756 C2754 1.389 . S
C2756 C2757 1.524 . S
C2756 C2770 1.377 . S
C2757 C2756 1.524 . S
C2757 C2758 1.397 . S
C2757 C2762 1.363 . S
C2758 H2735 0.950 . S
C2758 C2757 1.397 . S
C2758 C2759 1.334 . S
C2759 H2736 0.950 . S
C2759 C2758 1.334 . S
C2759 C2760 1.287 . S
C2760 C2759 1.287 . S
C2760 C2761 1.524 . S
C2760 H2779 0.913 . S
C2761 H2737 0.950 . S
C2761 C2760 1.524 . S
C2761 C2762 1.415 . S
C2762 H2738 0.950 . S
C2762 C2757 1.363 . S
C2762 C2761 1.415 . S
C2763 H2739 0.951 . S
C2763 C2764 1.366 . S
C2763 C2765 1.388 . S
C2764 C2763 1.366 . S
C2764 C2768 1.385 . S
C2765 H2740 0.951 . S
C2765 C2763 1.388 . S
C2765 C2766 1.366 . S
C2766 C2765 1.366 . S
C2766 C2767 1.414 . S
C2766 C2769 1.499 . S
C2767 H2741 0.950 . S
C2767 C2766 1.414 . S
C2767 C2768 1.374 . S
C2768 H2742 0.950 . S
C2768 C2764 1.385 . S
C2768 C2767 1.374 . S
C2769 C2766 1.499 . S
C2769 C2770 1.373 . S
C2769 C2771 1.389 . S
C2770 H2743 0.950 . S
C2770 C2756 1.377 . S
C2770 C2769 1.373 . S
C2771 C2755 1.377 . S
C2771 C2769 1.389 . S
C2771 C2772 1.524 . S
C2772 C2771 1.524 . S
C2772 C2773 1.397 . S
C2772 C2777 1.363 . S
C2773 H2744 0.950 . S
C2773 C2772 1.397 . S
C2773 C2774 1.334 . S
C2774 H2745 0.950 . S
C2774 C2773 1.334 . S
C2774 C2775 1.287 . S
C2775 C2774 1.287 . S
C2775 C2776 1.524 . S
C2775 H2778 0.999 . S
C2776 H2746 0.950 . S
C2776 C2775 1.524 . S
C2776 C2777 1.415 . S
C2777 H2747 0.950 . S
C2777 C2772 1.363 . S
C2777 C2776 1.415 . S
H2778 C2775 0.999 . S
H2779 C2760 0.913 . S
H2780 C2798 0.951 . S
H2781 C2800 0.951 . S
H2782 C2802 0.950 . S
H2783 C2803 0.950 . S
H2784 C2805 0.950 . S
H2785 C2808 0.950 . S
H2786 C2809 0.950 . S
H2787 C2811 0.950 . S
H2788 C2812 0.950 . S
H2789 C2813 0.951 . S
H2790 C2815 0.951 . S
H2791 C2817 0.950 . S
H2792 C2818 0.950 . S
H2793 C2820 0.950 . S
H2794 C2823 0.950 . S
H2795 C2824 0.950 . S
H2796 C2826 0.950 . S
H2797 C2827 0.950 . S
C2798 H2780 0.951 . S
C2798 C2799 1.366 . S
C2798 C2800 1.388 . S
C2799 C2798 1.366 . S
C2799 C2803 1.385 . S
C2800 H2781 0.951 . S
C2800 C2798 1.388 . S
C2800 C2801 1.366 . S
C2801 C2800 1.366 . S
C2801 C2802 1.414 . S
C2801 C2804 1.499 . S
C2802 H2782 0.950 . S
C2802 C2801 1.414 . S
C2802 C2803 1.374 . S
C2803 H2783 0.950 . S
C2803 C2799 1.385 . S
C2803 C2802 1.374 . S
C2804 C2801 1.499 . S
C2804 C2805 1.373 . S
C2804 C2806 1.389 . S
C2805 H2784 0.950 . S
C2805 C2804 1.373 . S
C2805 C2821 1.377 . S
C2806 C2804 1.389 . S
C2806 C2807 1.524 . S
C2806 C2820 1.377 . S
C2807 C2806 1.524 . S
C2807 C2808 1.397 . S
C2807 C2812 1.363 . S
C2808 H2785 0.950 . S
C2808 C2807 1.397 . S
C2808 C2809 1.334 . S
C2809 H2786 0.950 . S
C2809 C2808 1.334 . S
C2809 C2810 1.287 . S
C2810 C2809 1.287 . S
C2810 C2811 1.524 . S
C2810 H2829 0.913 . S
C2811 H2787 0.950 . S
C2811 C2810 1.524 . S
C2811 C2812 1.415 . S
C2812 H2788 0.950 . S
C2812 C2807 1.363 . S
C2812 C2811 1.415 . S
C2813 H2789 0.951 . S
C2813 C2814 1.366 . S
C2813 C2815 1.388 . S
C2814 C2813 1.366 . S
C2814 C2818 1.385 . S
C2815 H2790 0.951 . S
C2815 C2813 1.388 . S
C2815 C2816 1.366 . S
C2816 C2815 1.366 . S
C2816 C2817 1.414 . S
C2816 C2819 1.499 . S
C2817 H2791 0.950 . S
C2817 C2816 1.414 . S
C2817 C2818 1.374 . S
C2818 H2792 0.950 . S
C2818 C2814 1.385 . S
C2818 C2817 1.374 . S
C2819 C2816 1.499 . S
C2819 C2820 1.373 . S
C2819 C2821 1.389 . S
C2820 H2793 0.950 . S
C2820 C2806 1.377 . S
C2820 C2819 1.373 . S
C2821 C2805 1.377 . S
C2821 C2819 1.389 . S
C2821 C2822 1.524 . S
C2822 C2821 1.524 . S
C2822 C2823 1.397 . S
C2822 C2827 1.363 . S
C2823 H2794 0.950 . S
C2823 C2822 1.397 . S
C2823 C2824 1.334 . S
C2824 H2795 0.950 . S
C2824 C2823 1.334 . S
C2824 C2825 1.287 . S
C2825 C2824 1.287 . S
C2825 C2826 1.524 . S
C2825 H2828 0.999 . S
C2826 H2796 0.950 . S
C2826 C2825 1.524 . S
C2826 C2827 1.415 . S
C2827 H2797 0.950 . S
C2827 C2822 1.363 . S
C2827 C2826 1.415 . S
H2828 C2825 0.999 . S
H2829 C2810 0.913 . S
H2830 C2848 0.951 . S
H2831 C2850 0.951 . S
H2832 C2852 0.950 . S
H2833 C2853 0.950 . S
H2834 C2855 0.950 . S
H2835 C2858 0.950 . S
H2836 C2859 0.950 . S
H2837 C2861 0.950 . S
H2838 C2862 0.950 . S
H2839 C2863 0.951 . S
H2840 C2865 0.951 . S
H2841 C2867 0.950 . S
H2842 C2868 0.950 . S
H2843 C2870 0.950 . S
H2844 C2873 0.950 . S
H2845 C2874 0.950 . S
H2846 C2876 0.950 . S
H2847 C2877 0.950 . S
C2848 H2830 0.951 . S
C2848 C2849 1.366 . S
C2848 C2850 1.388 . S
C2849 C2848 1.366 . S
C2849 C2853 1.385 . S
C2850 H2831 0.951 . S
C2850 C2848 1.388 . S
C2850 C2851 1.366 . S
C2851 C2850 1.366 . S
C2851 C2852 1.414 . S
C2851 C2854 1.499 . S
C2852 H2832 0.950 . S
C2852 C2851 1.414 . S
C2852 C2853 1.374 . S
C2853 H2833 0.950 . S
C2853 C2849 1.385 . S
C2853 C2852 1.374 . S
C2854 C2851 1.499 . S
C2854 C2855 1.373 . S
C2854 C2856 1.389 . S
C2855 H2834 0.950 . S
C2855 C2854 1.373 . S
C2855 C2871 1.377 . S
C2856 C2854 1.389 . S
C2856 C2857 1.524 . S
C2856 C2870 1.377 . S
C2857 C2856 1.524 . S
C2857 C2858 1.397 . S
C2857 C2862 1.363 . S
C2858 H2835 0.950 . S
C2858 C2857 1.397 . S
C2858 C2859 1.334 . S
C2859 H2836 0.950 . S
C2859 C2858 1.334 . S
C2859 C2860 1.287 . S
C2860 C2859 1.287 . S
C2860 C2861 1.524 . S
C2860 H2879 0.913 . S
C2861 H2837 0.950 . S
C2861 C2860 1.524 . S
C2861 C2862 1.415 . S
C2862 H2838 0.950 . S
C2862 C2857 1.363 . S
C2862 C2861 1.415 . S
C2863 H2839 0.951 . S
C2863 C2864 1.366 . S
C2863 C2865 1.388 . S
C2864 C2863 1.366 . S
C2864 C2868 1.385 . S
C2865 H2840 0.951 . S
C2865 C2863 1.388 . S
C2865 C2866 1.366 . S
C2866 C2865 1.366 . S
C2866 C2867 1.414 . S
C2866 C2869 1.499 . S
C2867 H2841 0.950 . S
C2867 C2866 1.414 . S
C2867 C2868 1.374 . S
C2868 H2842 0.950 . S
C2868 C2864 1.385 . S
C2868 C2867 1.374 . S
C2869 C2866 1.499 . S
C2869 C2870 1.373 . S
C2869 C2871 1.389 . S
C2870 H2843 0.950 . S
C2870 C2856 1.377 . S
C2870 C2869 1.373 . S
C2871 C2855 1.377 . S
C2871 C2869 1.389 . S
C2871 C2872 1.524 . S
C2872 C2871 1.524 . S
C2872 C2873 1.397 . S
C2872 C2877 1.363 . S
C2873 H2844 0.950 . S
C2873 C2872 1.397 . S
C2873 C2874 1.334 . S
C2874 H2845 0.950 . S
C2874 C2873 1.334 . S
C2874 C2875 1.287 . S
C2875 C2874 1.287 . S
C2875 C2876 1.524 . S
C2875 H2878 0.999 . S
C2876 H2846 0.950 . S
C2876 C2875 1.524 . S
C2876 C2877 1.415 . S
C2877 H2847 0.950 . S
C2877 C2872 1.363 . S
C2877 C2876 1.415 . S
H2878 C2875 0.999 . S
H2879 C2860 0.913 . S
H2880 C2898 0.951 . S
H2881 C2900 0.951 . S
H2882 C2902 0.950 . S
H2883 C2903 0.950 . S
H2884 C2905 0.950 . S
H2885 C2908 0.950 . S
H2886 C2909 0.950 . S
H2887 C2911 0.950 . S
H2888 C2912 0.950 . S
H2889 C2913 0.951 . S
H2890 C2915 0.951 . S
H2891 C2917 0.950 . S
H2892 C2918 0.950 . S
H2893 C2920 0.950 . S
H2894 C2923 0.950 . S
H2895 C2924 0.950 . S
H2896 C2926 0.950 . S
H2897 C2927 0.950 . S
C2898 H2880 0.951 . S
C2898 C2899 1.366 . S
C2898 C2900 1.388 . S
C2899 C2898 1.366 . S
C2899 C2903 1.385 . S
C2900 H2881 0.951 . S
C2900 C2898 1.388 . S
C2900 C2901 1.366 . S
C2901 C2900 1.366 . S
C2901 C2902 1.414 . S
C2901 C2904 1.499 . S
C2902 H2882 0.950 . S
C2902 C2901 1.414 . S
C2902 C2903 1.374 . S
C2903 H2883 0.950 . S
C2903 C2899 1.385 . S
C2903 C2902 1.374 . S
C2904 C2901 1.499 . S
C2904 C2905 1.373 . S
C2904 C2906 1.389 . S
C2905 H2884 0.950 . S
C2905 C2904 1.373 . S
C2905 C2921 1.377 . S
C2906 C2904 1.389 . S
C2906 C2907 1.524 . S
C2906 C2920 1.377 . S
C2907 C2906 1.524 . S
C2907 C2908 1.397 . S
C2907 C2912 1.363 . S
C2908 H2885 0.950 . S
C2908 C2907 1.397 . S
C2908 C2909 1.334 . S
C2909 H2886 0.950 . S
C2909 C2908 1.334 . S
C2909 C2910 1.287 . S
C2910 C2909 1.287 . S
C2910 C2911 1.524 . S
C2910 H2929 0.913 . S
C2911 H2887 0.950 . S
C2911 C2910 1.524 . S
C2911 C2912 1.415 . S
C2912 H2888 0.950 . S
C2912 C2907 1.363 . S
C2912 C2911 1.415 . S
C2913 H2889 0.951 . S
C2913 C2914 1.366 . S
C2913 C2915 1.388 . S
C2914 C2913 1.366 . S
C2914 C2918 1.385 . S
C2915 H2890 0.951 . S
C2915 C2913 1.388 . S
C2915 C2916 1.366 . S
C2916 C2915 1.366 . S
C2916 C2917 1.414 . S
C2916 C2919 1.499 . S
C2917 H2891 0.950 . S
C2917 C2916 1.414 . S
C2917 C2918 1.374 . S
C2918 H2892 0.950 . S
C2918 C2914 1.385 . S
C2918 C2917 1.374 . S
C2919 C2916 1.499 . S
C2919 C2920 1.373 . S
C2919 C2921 1.389 . S
C2920 H2893 0.950 . S
C2920 C2906 1.377 . S
C2920 C2919 1.373 . S
C2921 C2905 1.377 . S
C2921 C2919 1.389 . S
C2921 C2922 1.524 . S
C2922 C2921 1.524 . S
C2922 C2923 1.397 . S
C2922 C2927 1.363 . S
C2923 H2894 0.950 . S
C2923 C2922 1.397 . S
C2923 C2924 1.334 . S
C2924 H2895 0.950 . S
C2924 C2923 1.334 . S
C2924 C2925 1.287 . S
C2925 C2924 1.287 . S
C2925 C2926 1.524 . S
C2925 H2928 0.999 . S
C2926 H2896 0.950 . S
C2926 C2925 1.524 . S
C2926 C2927 1.415 . S
C2927 H2897 0.950 . S
C2927 C2922 1.363 . S
C2927 C2926 1.415 . S
H2928 C2925 0.999 . S
H2929 C2910 0.913 . S
H2930 C2948 0.951 . S
H2931 C2950 0.951 . S
H2932 C2952 0.950 . S
H2933 C2953 0.950 . S
H2934 C2955 0.950 . S
H2935 C2958 0.950 . S
H2936 C2959 0.950 . S
H2937 C2961 0.950 . S
H2938 C2962 0.950 . S
H2939 C2963 0.951 . S
H2940 C2965 0.951 . S
H2941 C2967 0.950 . S
H2942 C2968 0.950 . S
H2943 C2970 0.950 . S
H2944 C2973 0.950 . S
H2945 C2974 0.950 . S
H2946 C2976 0.950 . S
H2947 C2977 0.950 . S
C2948 H2930 0.951 . S
C2948 C2949 1.366 . S
C2948 C2950 1.388 . S
C2949 C2948 1.366 . S
C2949 C2953 1.385 . S
C2950 H2931 0.951 . S
C2950 C2948 1.388 . S
C2950 C2951 1.366 . S
C2951 C2950 1.366 . S
C2951 C2952 1.414 . S
C2951 C2954 1.499 . S
C2952 H2932 0.950 . S
C2952 C2951 1.414 . S
C2952 C2953 1.374 . S
C2953 H2933 0.950 . S
C2953 C2949 1.385 . S
C2953 C2952 1.374 . S
C2954 C2951 1.499 . S
C2954 C2955 1.373 . S
C2954 C2956 1.389 . S
C2955 H2934 0.950 . S
C2955 C2954 1.373 . S
C2955 C2971 1.377 . S
C2956 C2954 1.389 . S
C2956 C2957 1.524 . S
C2956 C2970 1.377 . S
C2957 C2956 1.524 . S
C2957 C2958 1.397 . S
C2957 C2962 1.363 . S
C2958 H2935 0.950 . S
C2958 C2957 1.397 . S
C2958 C2959 1.334 . S
C2959 H2936 0.950 . S
C2959 C2958 1.334 . S
C2959 C2960 1.287 . S
C2960 C2959 1.287 . S
C2960 C2961 1.524 . S
C2960 H2979 0.913 . S
C2961 H2937 0.950 . S
C2961 C2960 1.524 . S
C2961 C2962 1.415 . S
C2962 H2938 0.950 . S
C2962 C2957 1.363 . S
C2962 C2961 1.415 . S
C2963 H2939 0.951 . S
C2963 C2964 1.366 . S
C2963 C2965 1.388 . S
C2964 C2963 1.366 . S
C2964 C2968 1.385 . S
C2965 H2940 0.951 . S
C2965 C2963 1.388 . S
C2965 C2966 1.366 . S
C2966 C2965 1.366 . S
C2966 C2967 1.414 . S
C2966 C2969 1.499 . S
C2967 H2941 0.950 . S
C2967 C2966 1.414 . S
C2967 C2968 1.374 . S
C2968 H2942 0.950 . S
C2968 C2964 1.385 . S
C2968 C2967 1.374 . S
C2969 C2966 1.499 . S
C2969 C2970 1.373 . S
C2969 C2971 1.389 . S
C2970 H2943 0.950 . S
C2970 C2956 1.377 . S
C2970 C2969 1.373 . S
C2971 C2955 1.377 . S
C2971 C2969 1.389 . S
C2971 C2972 1.524 . S
C2972 C2971 1.524 . S
C2972 C2973 1.397 . S
C2972 C2977 1.363 . S
C2973 H2944 0.950 . S
C2973 C2972 1.397 . S
C2973 C2974 1.334 . S
C2974 H2945 0.950 . S
C2974 C2973 1.334 . S
C2974 C2975 1.287 . S
C2975 C2974 1.287 . S
C2975 C2976 1.524 . S
C2975 H2978 0.999 . S
C2976 H2946 0.950 . S
C2976 C2975 1.524 . S
C2976 C2977 1.415 . S
C2977 H2947 0.950 . S
C2977 C2972 1.363 . S
C2977 C2976 1.415 . S
H2978 C2975 0.999 . S
H2979 C2960 0.913 . S
H2980 C2998 0.951 . S
H2981 C3000 0.951 . S
H2982 C3002 0.950 . S
H2983 C3003 0.950 . S
H2984 C3005 0.950 . S
H2985 C3008 0.950 . S
H2986 C3009 0.950 . S
H2987 C3011 0.950 . S
H2988 C3012 0.950 . S
H2989 C3013 0.951 . S
H2990 C3015 0.951 . S
H2991 C3017 0.950 . S
H2992 C3018 0.950 . S
H2993 C3020 0.950 . S
H2994 C3023 0.950 . S
H2995 C3024 0.950 . S
H2996 C3026 0.950 . S
H2997 C3027 0.950 . S
C2998 H2980 0.951 . S
C2998 C2999 1.366 . S
C2998 C3000 1.388 . S
C2999 C2998 1.366 . S
C2999 C3003 1.385 . S
C3000 H2981 0.951 . S
C3000 C2998 1.388 . S
C3000 C3001 1.366 . S
C3001 C3000 1.366 . S
C3001 C3002 1.414 . S
C3001 C3004 1.499 . S
C3002 H2982 0.950 . S
C3002 C3001 1.414 . S
C3002 C3003 1.374 . S
C3003 H2983 0.950 . S
C3003 C2999 1.385 . S
C3003 C3002 1.374 . S
C3004 C3001 1.499 . S
C3004 C3005 1.373 . S
C3004 C3006 1.389 . S
C3005 H2984 0.950 . S
C3005 C3004 1.373 . S
C3005 C3021 1.377 . S
C3006 C3004 1.389 . S
C3006 C3007 1.524 . S
C3006 C3020 1.377 . S
C3007 C3006 1.524 . S
C3007 C3008 1.397 . S
C3007 C3012 1.363 . S
C3008 H2985 0.950 . S
C3008 C3007 1.397 . S
C3008 C3009 1.334 . S
C3009 H2986 0.950 . S
C3009 C3008 1.334 . S
C3009 C3010 1.287 . S
C3010 C3009 1.287 . S
C3010 C3011 1.524 . S
C3010 H3029 0.913 . S
C3011 H2987 0.950 . S
C3011 C3010 1.524 . S
C3011 C3012 1.415 . S
C3012 H2988 0.950 . S
C3012 C3007 1.363 . S
C3012 C3011 1.415 . S
C3013 H2989 0.951 . S
C3013 C3014 1.366 . S
C3013 C3015 1.388 . S
C3014 C3013 1.366 . S
C3014 C3018 1.385 . S
C3015 H2990 0.951 . S
C3015 C3013 1.388 . S
C3015 C3016 1.366 . S
C3016 C3015 1.366 . S
C3016 C3017 1.414 . S
C3016 C3019 1.499 . S
C3017 H2991 0.950 . S
C3017 C3016 1.414 . S
C3017 C3018 1.374 . S
C3018 H2992 0.950 . S
C3018 C3014 1.385 . S
C3018 C3017 1.374 . S
C3019 C3016 1.499 . S
C3019 C3020 1.373 . S
C3019 C3021 1.389 . S
C3020 H2993 0.950 . S
C3020 C3006 1.377 . S
C3020 C3019 1.373 . S
C3021 C3005 1.377 . S
C3021 C3019 1.389 . S
C3021 C3022 1.524 . S
C3022 C3021 1.524 . S
C3022 C3023 1.397 . S
C3022 C3027 1.363 . S
C3023 H2994 0.950 . S
C3023 C3022 1.397 . S
C3023 C3024 1.334 . S
C3024 H2995 0.950 . S
C3024 C3023 1.334 . S
C3024 C3025 1.287 . S
C3025 C3024 1.287 . S
C3025 C3026 1.524 . S
C3025 H3028 0.999 . S
C3026 H2996 0.950 . S
C3026 C3025 1.524 . S
C3026 C3027 1.415 . S
C3027 H2997 0.950 . S
C3027 C3022 1.363 . S
C3027 C3026 1.415 . S
H3028 C3025 0.999 . S
H3029 C3010 0.913 . S
H3030 C3048 0.951 . S
H3031 C3050 0.951 . S
H3032 C3052 0.950 . S
H3033 C3053 0.950 . S
H3034 C3055 0.950 . S
H3035 C3058 0.950 . S
H3036 C3059 0.950 . S
H3037 C3061 0.950 . S
H3038 C3062 0.950 . S
H3039 C3063 0.951 . S
H3040 C3065 0.951 . S
H3041 C3067 0.950 . S
H3042 C3068 0.950 . S
H3043 C3070 0.950 . S
H3044 C3073 0.950 . S
H3045 C3074 0.950 . S
H3046 C3076 0.950 . S
H3047 C3077 0.950 . S
C3048 H3030 0.951 . S
C3048 C3049 1.366 . S
C3048 C3050 1.388 . S
C3049 C3048 1.366 . S
C3049 C3053 1.385 . S
C3050 H3031 0.951 . S
C3050 C3048 1.388 . S
C3050 C3051 1.366 . S
C3051 C3050 1.366 . S
C3051 C3052 1.414 . S
C3051 C3054 1.499 . S
C3052 H3032 0.950 . S
C3052 C3051 1.414 . S
C3052 C3053 1.374 . S
C3053 H3033 0.950 . S
C3053 C3049 1.385 . S
C3053 C3052 1.374 . S
C3054 C3051 1.499 . S
C3054 C3055 1.373 . S
C3054 C3056 1.389 . S
C3055 H3034 0.950 . S
C3055 C3054 1.373 . S
C3055 C3071 1.377 . S
C3056 C3054 1.389 . S
C3056 C3057 1.524 . S
C3056 C3070 1.377 . S
C3057 C3056 1.524 . S
C3057 C3058 1.397 . S
C3057 C3062 1.363 . S
C3058 H3035 0.950 . S
C3058 C3057 1.397 . S
C3058 C3059 1.334 . S
C3059 H3036 0.950 . S
C3059 C3058 1.334 . S
C3059 C3060 1.287 . S
C3060 C3059 1.287 . S
C3060 C3061 1.524 . S
C3060 H3079 0.913 . S
C3061 H3037 0.950 . S
C3061 C3060 1.524 . S
C3061 C3062 1.415 . S
C3062 H3038 0.950 . S
C3062 C3057 1.363 . S
C3062 C3061 1.415 . S
C3063 H3039 0.951 . S
C3063 C3064 1.366 . S
C3063 C3065 1.388 . S
C3064 C3063 1.366 . S
C3064 C3068 1.385 . S
C3065 H3040 0.951 . S
C3065 C3063 1.388 . S
C3065 C3066 1.366 . S
C3066 C3065 1.366 . S
C3066 C3067 1.414 . S
C3066 C3069 1.499 . S
C3067 H3041 0.950 . S
C3067 C3066 1.414 . S
C3067 C3068 1.374 . S
C3068 H3042 0.950 . S
C3068 C3064 1.385 . S
C3068 C3067 1.374 . S
C3069 C3066 1.499 . S
C3069 C3070 1.373 . S
C3069 C3071 1.389 . S
C3070 H3043 0.950 . S
C3070 C3056 1.377 . S
C3070 C3069 1.373 . S
C3071 C3055 1.377 . S
C3071 C3069 1.389 . S
C3071 C3072 1.524 . S
C3072 C3071 1.524 . S
C3072 C3073 1.397 . S
C3072 C3077 1.363 . S
C3073 H3044 0.950 . S
C3073 C3072 1.397 . S
C3073 C3074 1.334 . S
C3074 H3045 0.950 . S
C3074 C3073 1.334 . S
C3074 C3075 1.287 . S
C3075 C3074 1.287 . S
C3075 C3076 1.524 . S
C3075 H3078 0.999 . S
C3076 H3046 0.950 . S
C3076 C3075 1.524 . S
C3076 C3077 1.415 . S
C3077 H3047 0.950 . S
C3077 C3072 1.363 . S
C3077 C3076 1.415 . S
H3078 C3075 0.999 . S
H3079 C3060 0.913 . S
H3080 C3098 0.951 . S
H3081 C3100 0.951 . S
H3082 C3102 0.950 . S
H3083 C3103 0.950 . S
H3084 C3105 0.950 . S
H3085 C3108 0.950 . S
H3086 C3109 0.950 . S
H3087 C3111 0.950 . S
H3088 C3112 0.950 . S
H3089 C3113 0.951 . S
H3090 C3115 0.951 . S
H3091 C3117 0.950 . S
H3092 C3118 0.950 . S
H3093 C3120 0.950 . S
H3094 C3123 0.950 . S
H3095 C3124 0.950 . S
H3096 C3126 0.950 . S
H3097 C3127 0.950 . S
C3098 H3080 0.951 . S
C3098 C3099 1.366 . S
C3098 C3100 1.388 . S
C3099 C3098 1.366 . S
C3099 C3103 1.385 . S
C3100 H3081 0.951 . S
C3100 C3098 1.388 . S
C3100 C3101 1.366 . S
C3101 C3100 1.366 . S
C3101 C3102 1.414 . S
C3101 C3104 1.499 . S
C3102 H3082 0.950 . S
C3102 C3101 1.414 . S
C3102 C3103 1.374 . S
C3103 H3083 0.950 . S
C3103 C3099 1.385 . S
C3103 C3102 1.374 . S
C3104 C3101 1.499 . S
C3104 C3105 1.373 . S
C3104 C3106 1.389 . S
C3105 H3084 0.950 . S
C3105 C3104 1.373 . S
C3105 C3121 1.377 . S
C3106 C3104 1.389 . S
C3106 C3107 1.524 . S
C3106 C3120 1.377 . S
C3107 C3106 1.524 . S
C3107 C3108 1.397 . S
C3107 C3112 1.363 . S
C3108 H3085 0.950 . S
C3108 C3107 1.397 . S
C3108 C3109 1.334 . S
C3109 H3086 0.950 . S
C3109 C3108 1.334 . S
C3109 C3110 1.287 . S
C3110 C3109 1.287 . S
C3110 C3111 1.524 . S
C3110 H3129 0.913 . S
C3111 H3087 0.950 . S
C3111 C3110 1.524 . S
C3111 C3112 1.415 . S
C3112 H3088 0.950 . S
C3112 C3107 1.363 . S
C3112 C3111 1.415 . S
C3113 H3089 0.951 . S
C3113 C3114 1.366 . S
C3113 C3115 1.388 . S
C3114 C3113 1.366 . S
C3114 C3118 1.385 . S
C3115 H3090 0.951 . S
C3115 C3113 1.388 . S
C3115 C3116 1.366 . S
C3116 C3115 1.366 . S
C3116 C3117 1.414 . S
C3116 C3119 1.499 . S
C3117 H3091 0.950 . S
C3117 C3116 1.414 . S
C3117 C3118 1.374 . S
C3118 H3092 0.950 . S
C3118 C3114 1.385 . S
C3118 C3117 1.374 . S
C3119 C3116 1.499 . S
C3119 C3120 1.373 . S
C3119 C3121 1.389 . S
C3120 H3093 0.950 . S
C3120 C3106 1.377 . S
C3120 C3119 1.373 . S
C3121 C3105 1.377 . S
C3121 C3119 1.389 . S
C3121 C3122 1.524 . S
C3122 C3121 1.524 . S
C3122 C3123 1.397 . S
C3122 C3127 1.363 . S
C3123 H3094 0.950 . S
C3123 C3122 1.397 . S
C3123 C3124 1.334 . S
C3124 H3095 0.950 . S
C3124 C3123 1.334 . S
C3124 C3125 1.287 . S
C3125 C3124 1.287 . S
C3125 C3126 1.524 . S
C3125 H3128 0.999 . S
C3126 H3096 0.950 . S
C3126 C3125 1.524 . S
C3126 C3127 1.415 . S
C3127 H3097 0.950 . S
C3127 C3122 1.363 . S
C3127 C3126 1.415 . S
H3128 C3125 0.999 . S
H3129 C3110 0.913 . S
H3130 C3148 0.951 . S
H3131 C3150 0.951 . S
H3132 C3152 0.950 . S
H3133 C3153 0.950 . S
H3134 C3155 0.950 . S
H3135 C3158 0.950 . S
H3136 C3159 0.932 1_554 S
H3137 C3161 0.950 . S
H3138 C3162 0.950 . S
H3139 C3163 0.951 . S
H3140 C3165 0.951 . S
H3141 C3167 0.950 . S
H3142 C3168 0.950 . S
H3143 C3170 0.950 . S
H3144 C3173 0.950 . S
H3145 C3174 0.950 . S
H3146 C3176 0.950 . S
H3147 C3177 0.950 . S
C3148 H3130 0.951 . S
C3148 C3149 1.366 . S
C3148 C3150 1.388 . S
C3149 C3148 1.366 . S
C3149 C3153 1.385 . S
C3150 H3131 0.951 . S
C3150 C3148 1.388 . S
C3150 C3151 1.366 . S
C3151 C3150 1.366 . S
C3151 C3152 1.414 . S
C3151 C3154 1.499 . S
C3152 H3132 0.950 . S
C3152 C3151 1.414 . S
C3152 C3153 1.374 . S
C3153 H3133 0.950 . S
C3153 C3149 1.385 . S
C3153 C3152 1.374 . S
C3154 C3151 1.499 . S
C3154 C3155 1.373 . S
C3154 C3156 1.389 . S
C3155 H3134 0.950 . S
C3155 C3154 1.373 . S
C3155 C3171 1.377 . S
C3156 C3154 1.389 . S
C3156 C3157 1.524 . S
C3156 C3170 1.377 . S
C3157 C3156 1.524 . S
C3157 C3158 1.397 . S
C3157 C3162 1.363 . S
C3158 H3135 0.950 . S
C3158 C3157 1.397 . S
C3158 C3159 1.353 . S
C3159 H3136 0.932 1_556 S
C3159 C3158 1.353 . S
C3159 C3160 1.287 . S
C3160 C3159 1.287 . S
C3160 C3161 1.552 . S
C3160 H3179 0.883 1_556 S
C3161 H3137 0.950 . S
C3161 C3160 1.552 . S
C3161 C3162 1.415 . S
C3162 H3138 0.950 . S
C3162 C3157 1.363 . S
C3162 C3161 1.415 . S
C3163 H3139 0.951 . S
C3163 C3164 1.366 . S
C3163 C3165 1.388 . S
C3164 C3163 1.366 . S
C3164 C3168 1.385 . S
C3165 H3140 0.951 . S
C3165 C3163 1.388 . S
C3165 C3166 1.366 . S
C3166 C3165 1.366 . S
C3166 C3167 1.414 . S
C3166 C3169 1.499 . S
C3167 H3141 0.950 . S
C3167 C3166 1.414 . S
C3167 C3168 1.374 . S
C3168 H3142 0.950 . S
C3168 C3164 1.385 . S
C3168 C3167 1.374 . S
C3169 C3166 1.499 . S
C3169 C3170 1.373 . S
C3169 C3171 1.389 . S
C3170 H3143 0.950 . S
C3170 C3156 1.377 . S
C3170 C3169 1.373 . S
C3171 C3155 1.377 . S
C3171 C3169 1.389 . S
C3171 C3172 1.524 . S
C3172 C3171 1.524 . S
C3172 C3173 1.397 . S
C3172 C3177 1.363 . S
C3173 H3144 0.950 . S
C3173 C3172 1.397 . S
C3173 C3174 1.334 . S
C3174 H3145 0.950 . S
C3174 C3173 1.334 . S
C3174 C3175 1.287 . S
C3175 C3174 1.287 . S
C3175 C3176 1.524 . S
C3175 H3178 0.999 . S
C3176 H3146 0.950 . S
C3176 C3175 1.524 . S
C3176 C3177 1.415 . S
C3177 H3147 0.950 . S
C3177 C3172 1.363 . S
C3177 C3176 1.415 . S
H3178 C3175 0.999 . S
H3179 C3160 0.883 1_554 S
H3180 C3198 0.951 . S
H3181 C3200 0.951 . S
H3182 C3202 0.950 . S
H3183 C3203 0.950 . S
H3184 C3205 0.950 . S
H3185 C3208 0.950 . S
H3186 C3209 0.950 . S
H3187 C3211 0.950 . S
H3188 C3212 0.950 . S
H3189 C3213 0.951 . S
H3190 C3215 0.951 . S
H3191 C3217 0.950 . S
H3192 C3218 0.950 . S
H3193 C3220 0.950 . S
H3194 C3223 0.950 . S
H3195 C3224 0.950 . S
H3196 C3226 0.950 . S
H3197 C3227 0.950 . S
C3198 H3180 0.951 . S
C3198 C3199 1.366 . S
C3198 C3200 1.388 . S
C3199 C3198 1.366 . S
C3199 C3203 1.385 . S
C3200 H3181 0.951 . S
C3200 C3198 1.388 . S
C3200 C3201 1.366 . S
C3201 C3200 1.366 . S
C3201 C3202 1.414 . S
C3201 C3204 1.499 . S
C3202 H3182 0.950 . S
C3202 C3201 1.414 . S
C3202 C3203 1.374 . S
C3203 H3183 0.950 . S
C3203 C3199 1.385 . S
C3203 C3202 1.374 . S
C3204 C3201 1.499 . S
C3204 C3205 1.373 . S
C3204 C3206 1.389 . S
C3205 H3184 0.950 . S
C3205 C3204 1.373 . S
C3205 C3221 1.377 . S
C3206 C3204 1.389 . S
C3206 C3207 1.524 . S
C3206 C3220 1.377 . S
C3207 C3206 1.524 . S
C3207 C3208 1.397 . S
C3207 C3212 1.363 . S
C3208 H3185 0.950 . S
C3208 C3207 1.397 . S
C3208 C3209 1.334 . S
C3209 H3186 0.950 . S
C3209 C3208 1.334 . S
C3209 C3210 1.287 . S
C3210 C3209 1.287 . S
C3210 C3211 1.524 . S
C3210 H3229 0.913 . S
C3211 H3187 0.950 . S
C3211 C3210 1.524 . S
C3211 C3212 1.415 . S
C3212 H3188 0.950 . S
C3212 C3207 1.363 . S
C3212 C3211 1.415 . S
C3213 H3189 0.951 . S
C3213 C3214 1.366 . S
C3213 C3215 1.388 . S
C3214 C3213 1.366 . S
C3214 C3218 1.385 . S
C3215 H3190 0.951 . S
C3215 C3213 1.388 . S
C3215 C3216 1.366 . S
C3216 C3215 1.366 . S
C3216 C3217 1.414 . S
C3216 C3219 1.499 . S
C3217 H3191 0.950 . S
C3217 C3216 1.414 . S
C3217 C3218 1.374 . S
C3218 H3192 0.950 . S
C3218 C3214 1.385 . S
C3218 C3217 1.374 . S
C3219 C3216 1.499 . S
C3219 C3220 1.373 . S
C3219 C3221 1.389 . S
C3220 H3193 0.950 . S
C3220 C3206 1.377 . S
C3220 C3219 1.373 . S
C3221 C3205 1.377 . S
C3221 C3219 1.389 . S
C3221 C3222 1.524 . S
C3222 C3221 1.524 . S
C3222 C3223 1.397 . S
C3222 C3227 1.363 . S
C3223 H3194 0.950 . S
C3223 C3222 1.397 . S
C3223 C3224 1.334 . S
C3224 H3195 0.950 . S
C3224 C3223 1.334 . S
C3224 C3225 1.287 . S
C3225 C3224 1.287 . S
C3225 C3226 1.524 . S
C3225 H3228 0.999 . S
C3226 H3196 0.950 . S
C3226 C3225 1.524 . S
C3226 C3227 1.415 . S
C3227 H3197 0.950 . S
C3227 C3222 1.363 . S
C3227 C3226 1.415 . S
H3228 C3225 0.999 . S
H3229 C3210 0.913 . S
H3230 C3248 0.951 . S
H3231 C3250 0.951 . S
H3232 C3252 0.950 . S
H3233 C3253 0.950 . S
H3234 C3255 0.950 . S
H3235 C3258 0.950 . S
H3236 C3259 0.950 . S
H3237 C3261 0.950 . S
H3238 C3262 0.950 . S
H3239 C3263 0.951 . S
H3240 C3265 0.951 . S
H3241 C3267 0.950 . S
H3242 C3268 0.950 . S
H3243 C3270 0.950 . S
H3244 C3273 0.950 . S
H3245 C3274 0.950 . S
H3246 C3276 0.950 . S
H3247 C3277 0.950 . S
C3248 H3230 0.951 . S
C3248 C3249 1.366 . S
C3248 C3250 1.388 . S
C3249 C3248 1.366 . S
C3249 C3253 1.385 . S
C3250 H3231 0.951 . S
C3250 C3248 1.388 . S
C3250 C3251 1.366 . S
C3251 C3250 1.366 . S
C3251 C3252 1.414 . S
C3251 C3254 1.499 . S
C3252 H3232 0.950 . S
C3252 C3251 1.414 . S
C3252 C3253 1.374 . S
C3253 H3233 0.950 . S
C3253 C3249 1.385 . S
C3253 C3252 1.374 . S
C3254 C3251 1.499 . S
C3254 C3255 1.373 . S
C3254 C3256 1.389 . S
C3255 H3234 0.950 . S
C3255 C3254 1.373 . S
C3255 C3271 1.377 . S
C3256 C3254 1.389 . S
C3256 C3257 1.524 . S
C3256 C3270 1.377 . S
C3257 C3256 1.524 . S
C3257 C3258 1.397 . S
C3257 C3262 1.363 . S
C3258 H3235 0.950 . S
C3258 C3257 1.397 . S
C3258 C3259 1.334 . S
C3259 H3236 0.950 . S
C3259 C3258 1.334 . S
C3259 C3260 1.287 . S
C3260 C3259 1.287 . S
C3260 C3261 1.524 . S
C3260 H3279 0.913 . S
C3261 H3237 0.950 . S
C3261 C3260 1.524 . S
C3261 C3262 1.415 . S
C3262 H3238 0.950 . S
C3262 C3257 1.363 . S
C3262 C3261 1.415 . S
C3263 H3239 0.951 . S
C3263 C3264 1.366 . S
C3263 C3265 1.388 . S
C3264 C3263 1.366 . S
C3264 C3268 1.385 . S
C3265 H3240 0.951 . S
C3265 C3263 1.388 . S
C3265 C3266 1.366 . S
C3266 C3265 1.366 . S
C3266 C3267 1.414 . S
C3266 C3269 1.499 . S
C3267 H3241 0.950 . S
C3267 C3266 1.414 . S
C3267 C3268 1.374 . S
C3268 H3242 0.950 . S
C3268 C3264 1.385 . S
C3268 C3267 1.374 . S
C3269 C3266 1.499 . S
C3269 C3270 1.373 . S
C3269 C3271 1.389 . S
C3270 H3243 0.950 . S
C3270 C3256 1.377 . S
C3270 C3269 1.373 . S
C3271 C3255 1.377 . S
C3271 C3269 1.389 . S
C3271 C3272 1.524 . S
C3272 C3271 1.524 . S
C3272 C3273 1.397 . S
C3272 C3277 1.363 . S
C3273 H3244 0.950 . S
C3273 C3272 1.397 . S
C3273 C3274 1.334 . S
C3274 H3245 0.950 . S
C3274 C3273 1.334 . S
C3274 C3275 1.287 . S
C3275 C3274 1.287 . S
C3275 C3276 1.524 . S
C3275 H3278 0.999 . S
C3276 H3246 0.950 . S
C3276 C3275 1.524 . S
C3276 C3277 1.415 . S
C3277 H3247 0.950 . S
C3277 C3272 1.363 . S
C3277 C3276 1.415 . S
H3278 C3275 0.999 . S
H3279 C3260 0.913 . S
H3280 C3298 0.960 . S
H3281 C3300 0.951 . S
H3282 C3302 0.950 . S
H3283 C3303 0.950 . S
H3284 C3305 0.950 . S
H3285 C3308 0.950 . S
H3286 C3309 0.950 . S
H3287 C3311 0.923 1_554 S
H3288 C3312 0.950 . S
H3289 C3313 0.951 . S
H3290 C3315 0.951 . S
H3291 C3317 0.950 . S
H3292 C3318 0.950 . S
H3293 C3320 0.950 . S
H3294 C3323 0.950 . S
H3295 C3324 0.950 . S
H3296 C3326 0.950 . S
H3297 C3327 0.950 . S
C3298 H3280 0.960 . S
C3298 C3299 1.366 . S
C3298 C3300 1.388 . S
C3299 C3298 1.366 . S
C3299 C3303 1.385 . S
C3300 H3281 0.951 . S
C3300 C3298 1.388 . S
C3300 C3301 1.366 . S
C3301 C3300 1.366 . S
C3301 C3302 1.414 . S
C3301 C3304 1.499 . S
C3302 H3282 0.950 . S
C3302 C3301 1.414 . S
C3302 C3303 1.374 . S
C3303 H3283 0.950 . S
C3303 C3299 1.385 . S
C3303 C3302 1.374 . S
C3304 C3301 1.499 . S
C3304 C3305 1.373 . S
C3304 C3306 1.389 . S
C3305 H3284 0.950 . S
C3305 C3304 1.373 . S
C3305 C3321 1.377 . S
C3306 C3304 1.389 . S
C3306 C3307 1.524 . S
C3306 C3320 1.377 . S
C3307 C3306 1.524 . S
C3307 C3308 1.397 . S
C3307 C3312 1.363 . S
C3308 H3285 0.950 . S
C3308 C3307 1.397 . S
C3308 C3309 1.334 . S
C3309 H3286 0.950 . S
C3309 C3308 1.334 . S
C3309 C3310 1.287 . S
C3310 C3309 1.287 . S
C3310 C3311 1.524 . S
C3310 H3329 0.913 . S
C3311 H3287 0.923 1_556 S
C3311 C3310 1.524 . S
C3311 C3312 1.415 . S
C3312 H3288 0.950 . S
C3312 C3307 1.363 . S
C3312 C3311 1.415 . S
C3313 H3289 0.951 . S
C3313 C3314 1.366 . S
C3313 C3315 1.388 . S
C3314 C3313 1.366 . S
C3314 C3318 1.385 . S
C3315 H3290 0.951 . S
C3315 C3313 1.388 . S
C3315 C3316 1.366 . S
C3316 C3315 1.366 . S
C3316 C3317 1.414 . S
C3316 C3319 1.499 . S
C3317 H3291 0.950 . S
C3317 C3316 1.414 . S
C3317 C3318 1.374 . S
C3318 H3292 0.950 . S
C3318 C3314 1.385 . S
C3318 C3317 1.374 . S
C3319 C3316 1.499 . S
C3319 C3320 1.373 . S
C3319 C3321 1.389 . S
C3320 H3293 0.950 . S
C3320 C3306 1.377 . S
C3320 C3319 1.373 . S
C3321 C3305 1.377 . S
C3321 C3319 1.389 . S
C3321 C3322 1.524 . S
C3322 C3321 1.524 . S
C3322 C3323 1.397 . S
C3322 C3327 1.363 . S
C3323 H3294 0.950 . S
C3323 C3322 1.397 . S
C3323 C3324 1.334 . S
C3324 H3295 0.950 . S
C3324 C3323 1.334 . S
C3324 C3325 1.287 . S
C3325 C3324 1.287 . S
C3325 C3326 1.524 . S
C3325 H3328 0.999 . S
C3326 H3296 0.950 . S
C3326 C3325 1.524 . S
C3326 C3327 1.415 . S
C3327 H3297 0.950 . S
C3327 C3322 1.363 . S
C3327 C3326 1.415 . S
H3328 C3325 0.999 . S
H3329 C3310 0.913 . S
H3330 C3348 0.951 . S
H3331 C3350 0.951 . S
H3332 C3352 0.950 . S
H3333 C3353 0.950 . S
H3334 C3355 0.950 . S
H3335 C3358 0.950 . S
H3336 C3359 0.950 . S
H3337 C3361 0.950 . S
H3338 C3362 0.950 . S
H3339 C3363 0.951 . S
H3340 C3365 0.951 . S
H3341 C3367 0.950 . S
H3342 C3368 0.950 . S
H3343 C3370 0.950 . S
H3344 C3373 0.950 . S
H3345 C3374 0.950 . S
H3346 C3376 0.950 . S
H3347 C3377 0.950 . S
C3348 H3330 0.951 . S
C3348 C3349 1.366 . S
C3348 C3350 1.388 . S
C3349 C3348 1.366 . S
C3349 C3353 1.385 . S
C3350 H3331 0.951 . S
C3350 C3348 1.388 . S
C3350 C3351 1.366 . S
C3351 C3350 1.366 . S
C3351 C3352 1.414 . S
C3351 C3354 1.499 . S
C3352 H3332 0.950 . S
C3352 C3351 1.414 . S
C3352 C3353 1.374 . S
C3353 H3333 0.950 . S
C3353 C3349 1.385 . S
C3353 C3352 1.374 . S
C3354 C3351 1.499 . S
C3354 C3355 1.373 . S
C3354 C3356 1.389 . S
C3355 H3334 0.950 . S
C3355 C3354 1.373 . S
C3355 C3371 1.377 . S
C3356 C3354 1.389 . S
C3356 C3357 1.524 . S
C3356 C3370 1.377 . S
C3357 C3356 1.524 . S
C3357 C3358 1.397 . S
C3357 C3362 1.363 . S
C3358 H3335 0.950 . S
C3358 C3357 1.397 . S
C3358 C3359 1.334 . S
C3359 H3336 0.950 . S
C3359 C3358 1.334 . S
C3359 C3360 1.287 . S
C3360 C3359 1.287 . S
C3360 C3361 1.524 . S
C3360 H3379 0.913 . S
C3361 H3337 0.950 . S
C3361 C3360 1.524 . S
C3361 C3362 1.415 . S
C3362 H3338 0.950 . S
C3362 C3357 1.363 . S
C3362 C3361 1.415 . S
C3363 H3339 0.951 . S
C3363 C3364 1.366 . S
C3363 C3365 1.388 . S
C3364 C3363 1.366 . S
C3364 C3368 1.385 . S
C3365 H3340 0.951 . S
C3365 C3363 1.388 . S
C3365 C3366 1.366 . S
C3366 C3365 1.366 . S
C3366 C3367 1.414 . S
C3366 C3369 1.499 . S
C3367 H3341 0.950 . S
C3367 C3366 1.414 . S
C3367 C3368 1.374 . S
C3368 H3342 0.950 . S
C3368 C3364 1.385 . S
C3368 C3367 1.374 . S
C3369 C3366 1.499 . S
C3369 C3370 1.373 . S
C3369 C3371 1.389 . S
C3370 H3343 0.950 . S
C3370 C3356 1.377 . S
C3370 C3369 1.373 . S
C3371 C3355 1.377 . S
C3371 C3369 1.389 . S
C3371 C3372 1.524 . S
C3372 C3371 1.524 . S
C3372 C3373 1.397 . S
C3372 C3377 1.363 . S
C3373 H3344 0.950 . S
C3373 C3372 1.397 . S
C3373 C3374 1.334 . S
C3374 H3345 0.950 . S
C3374 C3373 1.334 . S
C3374 C3375 1.287 . S
C3375 C3374 1.287 . S
C3375 C3376 1.524 . S
C3375 H3378 0.999 . S
C3376 H3346 0.950 . S
C3376 C3375 1.524 . S
C3376 C3377 1.415 . S
C3377 H3347 0.950 . S
C3377 C3372 1.363 . S
C3377 C3376 1.415 . S
H3378 C3375 0.999 . S
H3379 C3360 0.913 . S
H3380 C3398 0.951 . S
H3381 C3400 0.951 . S
H3382 C3402 0.950 . S
H3383 C3403 0.950 . S
H3384 C3405 0.950 . S
H3385 C3408 0.950 . S
H3386 C3409 0.950 . S
H3387 C3411 0.950 . S
H3388 C3412 0.950 . S
H3389 C3413 0.951 . S
H3390 C3415 0.951 . S
H3391 C3417 0.950 . S
H3392 C3418 0.950 . S
H3393 C3420 0.950 . S
H3394 C3423 0.950 . S
H3395 C3424 0.950 . S
H3396 C3426 0.950 . S
H3397 C3427 0.950 . S
C3398 H3380 0.951 . S
C3398 C3399 1.366 . S
C3398 C3400 1.388 . S
C3399 C3398 1.366 . S
C3399 C3403 1.385 . S
C3400 H3381 0.951 . S
C3400 C3398 1.388 . S
C3400 C3401 1.366 . S
C3401 C3400 1.366 . S
C3401 C3402 1.414 . S
C3401 C3404 1.499 . S
C3402 H3382 0.950 . S
C3402 C3401 1.414 . S
C3402 C3403 1.374 . S
C3403 H3383 0.950 . S
C3403 C3399 1.385 . S
C3403 C3402 1.374 . S
C3404 C3401 1.499 . S
C3404 C3405 1.373 . S
C3404 C3406 1.389 . S
C3405 H3384 0.950 . S
C3405 C3404 1.373 . S
C3405 C3421 1.377 . S
C3406 C3404 1.389 . S
C3406 C3407 1.524 . S
C3406 C3420 1.377 . S
C3407 C3406 1.524 . S
C3407 C3408 1.397 . S
C3407 C3412 1.363 . S
C3408 H3385 0.950 . S
C3408 C3407 1.397 . S
C3408 C3409 1.334 . S
C3409 H3386 0.950 . S
C3409 C3408 1.334 . S
C3409 C3410 1.287 . S
C3410 C3409 1.287 . S
C3410 C3411 1.524 . S
C3410 H3429 0.913 . S
C3411 H3387 0.950 . S
C3411 C3410 1.524 . S
C3411 C3412 1.415 . S
C3412 H3388 0.950 . S
C3412 C3407 1.363 . S
C3412 C3411 1.415 . S
C3413 H3389 0.951 . S
C3413 C3414 1.366 . S
C3413 C3415 1.388 . S
C3414 C3413 1.366 . S
C3414 C3418 1.385 . S
C3415 H3390 0.951 . S
C3415 C3413 1.388 . S
C3415 C3416 1.366 . S
C3416 C3415 1.366 . S
C3416 C3417 1.414 . S
C3416 C3419 1.499 . S
C3417 H3391 0.950 . S
C3417 C3416 1.414 . S
C3417 C3418 1.374 . S
C3418 H3392 0.950 . S
C3418 C3414 1.385 . S
C3418 C3417 1.374 . S
C3419 C3416 1.499 . S
C3419 C3420 1.373 . S
C3419 C3421 1.389 . S
C3420 H3393 0.950 . S
C3420 C3406 1.377 . S
C3420 C3419 1.373 . S
C3421 C3405 1.377 . S
C3421 C3419 1.389 . S
C3421 C3422 1.524 . S
C3422 C3421 1.524 . S
C3422 C3423 1.397 . S
C3422 C3427 1.363 . S
C3423 H3394 0.950 . S
C3423 C3422 1.397 . S
C3423 C3424 1.334 . S
C3424 H3395 0.950 . S
C3424 C3423 1.334 . S
C3424 C3425 1.287 . S
C3425 C3424 1.287 . S
C3425 C3426 1.524 . S
C3425 H3428 0.999 . S
C3426 H3396 0.950 . S
C3426 C3425 1.524 . S
C3426 C3427 1.415 . S
C3427 H3397 0.950 . S
C3427 C3422 1.363 . S
C3427 C3426 1.415 . S
H3428 C3425 0.999 . S
H3429 C3410 0.913 . S
H3430 C3448 0.951 . S
H3431 C3450 0.951 . S
H3432 C3452 0.950 . S
H3433 C3453 0.950 . S
H3434 C3455 0.950 . S
H3435 C3458 0.950 . S
H3436 C3459 0.950 . S
H3437 C3461 0.950 . S
H3438 C3462 0.950 . S
H3439 C3463 0.951 . S
H3440 C3465 0.951 . S
H3441 C3467 0.950 . S
H3442 C3468 0.950 . S
H3443 C3470 0.950 . S
H3444 C3473 0.950 . S
H3445 C3474 0.950 . S
H3446 C3476 0.950 . S
H3447 C3477 0.950 . S
C3448 H3430 0.951 . S
C3448 C3449 1.366 . S
C3448 C3450 1.388 . S
C3449 C3448 1.366 . S
C3449 C3453 1.385 . S
C3450 H3431 0.951 . S
C3450 C3448 1.388 . S
C3450 C3451 1.366 . S
C3451 C3450 1.366 . S
C3451 C3452 1.414 . S
C3451 C3454 1.499 . S
C3452 H3432 0.950 . S
C3452 C3451 1.414 . S
C3452 C3453 1.374 . S
C3453 H3433 0.950 . S
C3453 C3449 1.385 . S
C3453 C3452 1.374 . S
C3454 C3451 1.499 . S
C3454 C3455 1.373 . S
C3454 C3456 1.389 . S
C3455 H3434 0.950 . S
C3455 C3454 1.373 . S
C3455 C3471 1.377 . S
C3456 C3454 1.389 . S
C3456 C3457 1.524 . S
C3456 C3470 1.377 . S
C3457 C3456 1.524 . S
C3457 C3458 1.397 . S
C3457 C3462 1.363 . S
C3458 H3435 0.950 . S
C3458 C3457 1.397 . S
C3458 C3459 1.334 . S
C3459 H3436 0.950 . S
C3459 C3458 1.334 . S
C3459 C3460 1.287 . S
C3460 C3459 1.287 . S
C3460 C3461 1.524 . S
C3460 H3479 0.913 . S
C3461 H3437 0.950 . S
C3461 C3460 1.524 . S
C3461 C3462 1.415 . S
C3462 H3438 0.950 . S
C3462 C3457 1.363 . S
C3462 C3461 1.415 . S
C3463 H3439 0.951 . S
C3463 C3464 1.366 . S
C3463 C3465 1.388 . S
C3464 C3463 1.366 . S
C3464 C3468 1.385 . S
C3465 H3440 0.951 . S
C3465 C3463 1.388 . S
C3465 C3466 1.366 . S
C3466 C3465 1.366 . S
C3466 C3467 1.414 . S
C3466 C3469 1.499 . S
C3467 H3441 0.950 . S
C3467 C3466 1.414 . S
C3467 C3468 1.374 . S
C3468 H3442 0.950 . S
C3468 C3464 1.385 . S
C3468 C3467 1.374 . S
C3469 C3466 1.499 . S
C3469 C3470 1.373 . S
C3469 C3471 1.389 . S
C3470 H3443 0.950 . S
C3470 C3456 1.377 . S
C3470 C3469 1.373 . S
C3471 C3455 1.377 . S
C3471 C3469 1.389 . S
C3471 C3472 1.524 . S
C3472 C3471 1.524 . S
C3472 C3473 1.397 . S
C3472 C3477 1.363 . S
C3473 H3444 0.950 . S
C3473 C3472 1.397 . S
C3473 C3474 1.334 . S
C3474 H3445 0.950 . S
C3474 C3473 1.334 . S
C3474 C3475 1.287 . S
C3475 C3474 1.287 . S
C3475 C3476 1.524 . S
C3475 H3478 0.999 . S
C3476 H3446 0.950 . S
C3476 C3475 1.524 . S
C3476 C3477 1.415 . S
C3477 H3447 0.950 . S
C3477 C3472 1.363 . S
C3477 C3476 1.415 . S
H3478 C3475 0.999 . S
H3479 C3460 0.913 . S
H3480 C3498 0.951 . S
H3481 C3500 0.951 . S
H3482 C3502 0.950 . S
H3483 C3503 0.950 . S
H3484 C3505 0.950 . S
H3485 C3508 0.950 . S
H3486 C3509 0.950 . S
H3487 C3511 0.950 . S
H3488 C3512 0.950 . S
H3489 C3513 0.951 . S
H3490 C3515 0.951 . S
H3491 C3517 0.950 . S
H3492 C3518 0.950 . S
H3493 C3520 0.950 . S
H3494 C3523 0.950 . S
H3495 C3524 0.950 . S
H3496 C3526 0.950 . S
H3497 C3527 0.950 . S
C3498 H3480 0.951 . S
C3498 C3499 1.366 . S
C3498 C3500 1.388 . S
C3499 C3498 1.366 . S
C3499 C3503 1.385 . S
C3500 H3481 0.951 . S
C3500 C3498 1.388 . S
C3500 C3501 1.366 . S
C3501 C3500 1.366 . S
C3501 C3502 1.414 . S
C3501 C3504 1.499 . S
C3502 H3482 0.950 . S
C3502 C3501 1.414 . S
C3502 C3503 1.374 . S
C3503 H3483 0.950 . S
C3503 C3499 1.385 . S
C3503 C3502 1.374 . S
C3504 C3501 1.499 . S
C3504 C3505 1.373 . S
C3504 C3506 1.389 . S
C3505 H3484 0.950 . S
C3505 C3504 1.373 . S
C3505 C3521 1.377 . S
C3506 C3504 1.389 . S
C3506 C3507 1.524 . S
C3506 C3520 1.377 . S
C3507 C3506 1.524 . S
C3507 C3508 1.397 . S
C3507 C3512 1.363 . S
C3508 H3485 0.950 . S
C3508 C3507 1.397 . S
C3508 C3509 1.334 . S
C3509 H3486 0.950 . S
C3509 C3508 1.334 . S
C3509 C3510 1.287 . S
C3510 C3509 1.287 . S
C3510 C3511 1.524 . S
C3510 H3529 0.913 . S
C3511 H3487 0.950 . S
C3511 C3510 1.524 . S
C3511 C3512 1.415 . S
C3512 H3488 0.950 . S
C3512 C3507 1.363 . S
C3512 C3511 1.415 . S
C3513 H3489 0.951 . S
C3513 C3514 1.366 . S
C3513 C3515 1.388 . S
C3514 C3513 1.366 . S
C3514 C3518 1.385 . S
C3515 H3490 0.951 . S
C3515 C3513 1.388 . S
C3515 C3516 1.366 . S
C3516 C3515 1.366 . S
C3516 C3517 1.414 . S
C3516 C3519 1.499 . S
C3517 H3491 0.950 . S
C3517 C3516 1.414 . S
C3517 C3518 1.374 . S
C3518 H3492 0.950 . S
C3518 C3514 1.385 . S
C3518 C3517 1.374 . S
C3519 C3516 1.499 . S
C3519 C3520 1.373 . S
C3519 C3521 1.389 . S
C3520 H3493 0.950 . S
C3520 C3506 1.377 . S
C3520 C3519 1.373 . S
C3521 C3505 1.377 . S
C3521 C3519 1.389 . S
C3521 C3522 1.524 . S
C3522 C3521 1.524 . S
C3522 C3523 1.397 . S
C3522 C3527 1.363 . S
C3523 H3494 0.950 . S
C3523 C3522 1.397 . S
C3523 C3524 1.334 . S
C3524 H3495 0.950 . S
C3524 C3523 1.334 . S
C3524 C3525 1.287 . S
C3525 C3524 1.287 . S
C3525 C3526 1.524 . S
C3525 H3528 0.999 . S
C3526 H3496 0.950 . S
C3526 C3525 1.524 . S
C3526 C3527 1.415 . S
C3527 H3497 0.950 . S
C3527 C3522 1.363 . S
C3527 C3526 1.415 . S
H3528 C3525 0.999 . S
H3529 C3510 0.913 . S
H3530 C3548 0.951 . S
H3531 C3550 0.951 . S
H3532 C3552 0.950 . S
H3533 C3553 0.950 . S
H3534 C3555 0.950 . S
H3535 C3558 0.950 . S
H3536 C3559 0.950 . S
H3537 C3561 0.950 . S
H3538 C3562 0.950 . S
H3539 C3563 0.951 . S
H3540 C3565 0.951 . S
H3541 C3567 0.950 . S
H3542 C3568 0.950 . S
H3543 C3570 0.950 . S
H3544 C3573 0.950 . S
H3545 C3574 0.950 . S
H3546 C3576 0.950 . S
H3547 C3577 0.950 . S
C3548 H3530 0.951 . S
C3548 C3549 1.366 . S
C3548 C3550 1.388 . S
C3549 C3548 1.366 . S
C3549 C3553 1.385 . S
C3550 H3531 0.951 . S
C3550 C3548 1.388 . S
C3550 C3551 1.366 . S
C3551 C3550 1.366 . S
C3551 C3552 1.414 . S
C3551 C3554 1.499 . S
C3552 H3532 0.950 . S
C3552 C3551 1.414 . S
C3552 C3553 1.374 . S
C3553 H3533 0.950 . S
C3553 C3549 1.385 . S
C3553 C3552 1.374 . S
C3554 C3551 1.499 . S
C3554 C3555 1.373 . S
C3554 C3556 1.389 . S
C3555 H3534 0.950 . S
C3555 C3554 1.373 . S
C3555 C3571 1.377 . S
C3556 C3554 1.389 . S
C3556 C3557 1.524 . S
C3556 C3570 1.377 . S
C3557 C3556 1.524 . S
C3557 C3558 1.397 . S
C3557 C3562 1.363 . S
C3558 H3535 0.950 . S
C3558 C3557 1.397 . S
C3558 C3559 1.334 . S
C3559 H3536 0.950 . S
C3559 C3558 1.334 . S
C3559 C3560 1.287 . S
C3560 C3559 1.287 . S
C3560 C3561 1.524 . S
C3560 H3579 0.913 . S
C3561 H3537 0.950 . S
C3561 C3560 1.524 . S
C3561 C3562 1.415 . S
C3562 H3538 0.950 . S
C3562 C3557 1.363 . S
C3562 C3561 1.415 . S
C3563 H3539 0.951 . S
C3563 C3564 1.366 . S
C3563 C3565 1.388 . S
C3564 C3563 1.366 . S
C3564 C3568 1.385 . S
C3565 H3540 0.951 . S
C3565 C3563 1.388 . S
C3565 C3566 1.366 . S
C3566 C3565 1.366 . S
C3566 C3567 1.414 . S
C3566 C3569 1.499 . S
C3567 H3541 0.950 . S
C3567 C3566 1.414 . S
C3567 C3568 1.374 . S
C3568 H3542 0.950 . S
C3568 C3564 1.385 . S
C3568 C3567 1.374 . S
C3569 C3566 1.499 . S
C3569 C3570 1.373 . S
C3569 C3571 1.389 . S
C3570 H3543 0.950 . S
C3570 C3556 1.377 . S
C3570 C3569 1.373 . S
C3571 C3555 1.377 . S
C3571 C3569 1.389 . S
C3571 C3572 1.524 . S
C3572 C3571 1.524 . S
C3572 C3573 1.397 . S
C3572 C3577 1.363 . S
C3573 H3544 0.950 . S
C3573 C3572 1.397 . S
C3573 C3574 1.334 . S
C3574 H3545 0.950 . S
C3574 C3573 1.334 . S
C3574 C3575 1.287 . S
C3575 C3574 1.287 . S
C3575 C3576 1.524 . S
C3575 H3578 0.999 . S
C3576 H3546 0.950 . S
C3576 C3575 1.524 . S
C3576 C3577 1.415 . S
C3577 H3547 0.950 . S
C3577 C3572 1.363 . S
C3577 C3576 1.415 . S
H3578 C3575 0.999 . S
H3579 C3560 0.913 . S
H3580 C3598 0.951 . S
H3581 C3600 0.951 . S
H3582 C3602 0.950 . S
H3583 C3603 0.950 . S
H3584 C3605 0.950 . S
H3585 C3608 0.950 . S
H3586 C3609 0.950 . S
H3587 C3611 0.950 . S
H3588 C3612 0.950 . S
H3589 C3613 0.951 . S
H3590 C3615 0.951 . S
H3591 C3617 0.950 . S
H3592 C3618 0.950 . S
H3593 C3620 0.950 . S
H3594 C3623 0.950 . S
H3595 C3624 0.950 . S
H3596 C3626 0.950 . S
H3597 C3627 0.950 . S
C3598 H3580 0.951 . S
C3598 C3599 1.366 . S
C3598 C3600 1.388 . S
C3599 C3598 1.366 . S
C3599 C3603 1.385 . S
C3600 H3581 0.951 . S
C3600 C3598 1.388 . S
C3600 C3601 1.366 . S
C3601 C3600 1.366 . S
C3601 C3602 1.414 . S
C3601 C3604 1.499 . S
C3602 H3582 0.950 . S
C3602 C3601 1.414 . S
C3602 C3603 1.374 . S
C3603 H3583 0.950 . S
C3603 C3599 1.385 . S
C3603 C3602 1.374 . S
C3604 C3601 1.499 . S
C3604 C3605 1.373 . S
C3604 C3606 1.389 . S
C3605 H3584 0.950 . S
C3605 C3604 1.373 . S
C3605 C3621 1.377 . S
C3606 C3604 1.389 . S
C3606 C3607 1.524 . S
C3606 C3620 1.377 . S
C3607 C3606 1.524 . S
C3607 C3608 1.397 . S
C3607 C3612 1.363 . S
C3608 H3585 0.950 . S
C3608 C3607 1.397 . S
C3608 C3609 1.334 . S
C3609 H3586 0.950 . S
C3609 C3608 1.334 . S
C3609 C3610 1.287 . S
C3610 C3609 1.287 . S
C3610 C3611 1.524 . S
C3610 H3629 0.913 . S
C3611 H3587 0.950 . S
C3611 C3610 1.524 . S
C3611 C3612 1.415 . S
C3612 H3588 0.950 . S
C3612 C3607 1.363 . S
C3612 C3611 1.415 . S
C3613 H3589 0.951 . S
C3613 C3614 1.366 . S
C3613 C3615 1.388 . S
C3614 C3613 1.366 . S
C3614 C3618 1.385 . S
C3615 H3590 0.951 . S
C3615 C3613 1.388 . S
C3615 C3616 1.366 . S
C3616 C3615 1.366 . S
C3616 C3617 1.414 . S
C3616 C3619 1.499 . S
C3617 H3591 0.950 . S
C3617 C3616 1.414 . S
C3617 C3618 1.374 . S
C3618 H3592 0.950 . S
C3618 C3614 1.385 . S
C3618 C3617 1.374 . S
C3619 C3616 1.499 . S
C3619 C3620 1.373 . S
C3619 C3621 1.389 . S
C3620 H3593 0.950 . S
C3620 C3606 1.377 . S
C3620 C3619 1.373 . S
C3621 C3605 1.377 . S
C3621 C3619 1.389 . S
C3621 C3622 1.524 . S
C3622 C3621 1.524 . S
C3622 C3623 1.397 . S
C3622 C3627 1.363 . S
C3623 H3594 0.950 . S
C3623 C3622 1.397 . S
C3623 C3624 1.334 . S
C3624 H3595 0.950 . S
C3624 C3623 1.334 . S
C3624 C3625 1.287 . S
C3625 C3624 1.287 . S
C3625 C3626 1.524 . S
C3625 H3628 0.999 . S
C3626 H3596 0.950 . S
C3626 C3625 1.524 . S
C3626 C3627 1.415 . S
C3627 H3597 0.950 . S
C3627 C3622 1.363 . S
C3627 C3626 1.415 . S
H3628 C3625 0.999 . S
H3629 C3610 0.913 . S
H3630 C3648 0.951 . S
H3631 C3650 0.951 . S
H3632 C3652 0.950 . S
H3633 C3653 0.950 . S
H3634 C3655 0.950 . S
H3635 C3658 0.950 . S
H3636 C3659 0.950 . S
H3637 C3661 0.950 . S
H3638 C3662 0.950 . S
H3639 C3663 0.951 . S
H3640 C3665 0.951 . S
H3641 C3667 0.950 . S
H3642 C3668 0.950 . S
H3643 C3670 0.950 . S
H3644 C3673 0.892 1_455 S
H3645 C3674 0.950 . S
H3646 C3676 0.950 . S
H3647 C3677 0.950 . S
C3648 H3630 0.951 . S
C3648 C3649 1.366 . S
C3648 C3650 1.388 . S
C3649 C3648 1.366 . S
C3649 C3653 1.385 1_455 S
C3650 H3631 0.951 . S
C3650 C3648 1.388 . S
C3650 C3651 1.366 . S
C3651 C3650 1.366 . S
C3651 C3652 1.414 1_455 S
C3651 C3654 1.499 . S
C3652 H3632 0.950 . S
C3652 C3651 1.414 1_655 S
C3652 C3653 1.374 . S
C3653 H3633 0.950 . S
C3653 C3649 1.385 1_655 S
C3653 C3652 1.374 . S
C3654 C3651 1.499 . S
C3654 C3655 1.373 1_455 S
C3654 C3656 1.389 . S
C3655 H3634 0.950 . S
C3655 C3654 1.373 1_655 S
C3655 C3671 1.377 . S
C3656 C3654 1.389 . S
C3656 C3657 1.524 . S
C3656 C3670 1.377 . S
C3657 C3656 1.524 . S
C3657 C3658 1.397 . S
C3657 C3662 1.363 . S
C3658 H3635 0.950 . S
C3658 C3657 1.397 . S
C3658 C3659 1.334 . S
C3659 H3636 0.950 . S
C3659 C3658 1.334 . S
C3659 C3660 1.287 . S
C3660 C3659 1.287 . S
C3660 C3661 1.524 . S
C3660 H3679 0.913 . S
C3661 H3637 0.950 . S
C3661 C3660 1.524 . S
C3661 C3662 1.415 . S
C3662 H3638 0.950 . S
C3662 C3657 1.363 . S
C3662 C3661 1.415 . S
C3663 H3639 0.951 . S
C3663 C3664 1.366 1_655 S
C3663 C3665 1.388 . S
C3664 C3663 1.366 1_455 S
C3664 C3668 1.385 . S
C3665 H3640 0.951 . S
C3665 C3663 1.388 . S
C3665 C3666 1.366 1_655 S
C3666 C3665 1.366 1_455 S
C3666 C3667 1.414 . S
C3666 C3669 1.499 . S
C3667 H3641 0.950 . S
C3667 C3666 1.414 . S
C3667 C3668 1.374 . S
C3668 H3642 0.950 . S
C3668 C3664 1.385 . S
C3668 C3667 1.374 . S
C3669 C3666 1.499 . S
C3669 C3670 1.373 . S
C3669 C3671 1.389 1_455 S
C3670 H3643 0.950 . S
C3670 C3656 1.377 . S
C3670 C3669 1.373 . S
C3671 C3655 1.377 . S
C3671 C3669 1.389 1_655 S
C3671 C3672 1.524 . S
C3672 C3671 1.524 . S
C3672 C3673 1.434 . S
C3672 C3677 1.363 . S
C3673 H3644 0.892 1_655 S
C3673 C3672 1.434 . S
C3673 C3674 1.361 . S
C3674 H3645 0.950 . S
C3674 C3673 1.361 . S
C3674 C3675 1.287 . S
C3675 C3674 1.287 . S
C3675 C3676 1.524 . S
C3675 H3678 0.999 . S
C3676 H3646 0.950 . S
C3676 C3675 1.524 . S
C3676 C3677 1.415 . S
C3677 H3647 0.950 . S
C3677 C3672 1.363 . S
C3677 C3676 1.415 . S
H3678 C3675 0.999 . S
H3679 C3660 0.913 . S
H3680 C3698 0.951 . S
H3681 C3700 0.951 . S
H3682 C3702 0.950 . S
H3683 C3703 0.950 . S
H3684 C3705 0.950 . S
H3685 C3708 0.950 . S
H3686 C3709 0.950 . S
H3687 C3711 0.950 . S
H3688 C3712 0.950 . S
H3689 C3713 0.951 . S
H3690 C3715 0.951 . S
H3691 C3717 0.950 . S
H3692 C3718 0.950 . S
H3693 C3720 0.950 . S
H3694 C3723 0.950 . S
H3695 C3724 0.950 . S
H3696 C3726 0.950 . S
H3697 C3727 0.950 . S
C3698 H3680 0.951 . S
C3698 C3699 1.366 . S
C3698 C3700 1.388 . S
C3699 C3698 1.366 . S
C3699 C3703 1.385 . S
C3700 H3681 0.951 . S
C3700 C3698 1.388 . S
C3700 C3701 1.366 . S
C3701 C3700 1.366 . S
C3701 C3702 1.414 . S
C3701 C3704 1.499 . S
C3702 H3682 0.950 . S
C3702 C3701 1.414 . S
C3702 C3703 1.374 . S
C3703 H3683 0.950 . S
C3703 C3699 1.385 . S
C3703 C3702 1.374 . S
C3704 C3701 1.499 . S
C3704 C3705 1.373 . S
C3704 C3706 1.389 . S
C3705 H3684 0.950 . S
C3705 C3704 1.373 . S
C3705 C3721 1.377 . S
C3706 C3704 1.389 . S
C3706 C3707 1.524 . S
C3706 C3720 1.377 . S
C3707 C3706 1.524 . S
C3707 C3708 1.397 . S
C3707 C3712 1.363 . S
C3708 H3685 0.950 . S
C3708 C3707 1.397 . S
C3708 C3709 1.334 . S
C3709 H3686 0.950 . S
C3709 C3708 1.334 . S
C3709 C3710 1.287 . S
C3710 C3709 1.287 . S
C3710 C3711 1.524 . S
C3710 H3729 0.913 . S
C3711 H3687 0.950 . S
C3711 C3710 1.524 . S
C3711 C3712 1.415 . S
C3712 H3688 0.950 . S
C3712 C3707 1.363 . S
C3712 C3711 1.415 . S
C3713 H3689 0.951 . S
C3713 C3714 1.366 . S
C3713 C3715 1.388 . S
C3714 C3713 1.366 . S
C3714 C3718 1.385 . S
C3715 H3690 0.951 . S
C3715 C3713 1.388 . S
C3715 C3716 1.366 . S
C3716 C3715 1.366 . S
C3716 C3717 1.414 . S
C3716 C3719 1.499 . S
C3717 H3691 0.950 . S
C3717 C3716 1.414 . S
C3717 C3718 1.374 . S
C3718 H3692 0.950 . S
C3718 C3714 1.385 . S
C3718 C3717 1.374 . S
C3719 C3716 1.499 . S
C3719 C3720 1.373 . S
C3719 C3721 1.389 . S
C3720 H3693 0.950 . S
C3720 C3706 1.377 . S
C3720 C3719 1.373 . S
C3721 C3705 1.377 . S
C3721 C3719 1.389 . S
C3721 C3722 1.524 . S
C3722 C3721 1.524 . S
C3722 C3723 1.397 . S
C3722 C3727 1.363 . S
C3723 H3694 0.950 . S
C3723 C3722 1.397 . S
C3723 C3724 1.334 . S
C3724 H3695 0.950 . S
C3724 C3723 1.334 . S
C3724 C3725 1.287 . S
C3725 C3724 1.287 . S
C3725 C3726 1.524 . S
C3725 H3728 0.999 . S
C3726 H3696 0.950 . S
C3726 C3725 1.524 . S
C3726 C3727 1.415 . S
C3727 H3697 0.950 . S
C3727 C3722 1.363 . S
C3727 C3726 1.415 . S
H3728 C3725 0.999 . S
H3729 C3710 0.913 . S
H3730 C3748 0.951 . S
H3731 C3750 0.951 . S
H3732 C3752 0.950 . S
H3733 C3753 0.950 . S
H3734 C3755 0.950 . S
H3735 C3758 0.950 . S
H3736 C3759 0.950 . S
H3737 C3761 0.950 . S
H3738 C3762 0.950 . S
H3739 C3763 0.951 . S
H3740 C3765 0.951 . S
H3741 C3767 0.978 . S
H3742 C3768 0.976 . S
H3743 C3770 0.950 . S
H3744 C3773 0.950 . S
H3745 C3774 0.950 . S
H3746 C3776 0.950 . S
H3747 C3777 0.950 . S
C3748 H3730 0.951 . S
C3748 C3749 1.366 . S
C3748 C3750 1.388 . S
C3749 C3748 1.366 . S
C3749 C3753 1.385 . S
C3750 H3731 0.951 . S
C3750 C3748 1.388 . S
C3750 C3751 1.366 . S
C3751 C3750 1.366 . S
C3751 C3752 1.414 . S
C3751 C3754 1.499 . S
C3752 H3732 0.950 . S
C3752 C3751 1.414 . S
C3752 C3753 1.374 . S
C3753 H3733 0.950 . S
C3753 C3749 1.385 . S
C3753 C3752 1.374 . S
C3754 C3751 1.499 . S
C3754 C3755 1.373 1_565 S
C3754 C3756 1.389 . S
C3755 H3734 0.950 . S
C3755 C3754 1.373 1_545 S
C3755 C3771 1.377 . S
C3756 C3754 1.389 . S
C3756 C3757 1.524 . S
C3756 C3770 1.377 . S
C3757 C3756 1.524 . S
C3757 C3758 1.397 . S
C3757 C3762 1.363 . S
C3758 H3735 0.950 . S
C3758 C3757 1.397 . S
C3758 C3759 1.334 . S
C3759 H3736 0.950 . S
C3759 C3758 1.334 . S
C3759 C3760 1.287 . S
C3760 C3759 1.287 . S
C3760 C3761 1.524 . S
C3760 H3779 0.913 . S
C3761 H3737 0.950 . S
C3761 C3760 1.524 . S
C3761 C3762 1.415 . S
C3762 H3738 0.950 . S
C3762 C3757 1.363 . S
C3762 C3761 1.415 . S
C3763 H3739 0.951 . S
C3763 C3764 1.366 . S
C3763 C3765 1.388 . S
C3764 C3763 1.366 . S
C3764 C3768 1.329 1_565 S
C3765 H3740 0.951 . S
C3765 C3763 1.388 . S
C3765 C3766 1.366 . S
C3766 C3765 1.366 . S
C3766 C3767 1.405 1_565 S
C3766 C3769 1.499 . S
C3767 H3741 0.978 . S
C3767 C3766 1.405 1_545 S
C3767 C3768 1.392 . S
C3768 H3742 0.976 . S
C3768 C3764 1.329 1_545 S
C3768 C3767 1.392 . S
C3769 C3766 1.499 . S
C3769 C3770 1.373 . S
C3769 C3771 1.389 1_565 S
C3770 H3743 0.950 . S
C3770 C3756 1.377 . S
C3770 C3769 1.373 . S
C3771 C3755 1.377 . S
C3771 C3769 1.389 1_545 S
C3771 C3772 1.524 . S
C3772 C3771 1.524 . S
C3772 C3773 1.397 . S
C3772 C3777 1.363 . S
C3773 H3744 0.950 . S
C3773 C3772 1.397 . S
C3773 C3774 1.334 . S
C3774 H3745 0.950 . S
C3774 C3773 1.334 . S
C3774 C3775 1.287 . S
C3775 C3774 1.287 . S
C3775 C3776 1.524 . S
C3775 H3778 0.999 . S
C3776 H3746 0.950 . S
C3776 C3775 1.524 . S
C3776 C3777 1.415 . S
C3777 H3747 0.950 . S
C3777 C3772 1.363 . S
C3777 C3776 1.415 . S
H3778 C3775 0.999 . S
H3779 C3760 0.913 . S
H3780 C3798 0.951 . S
H3781 C3800 0.956 . S
H3782 C3802 0.950 . S
H3783 C3803 0.950 . S
H3784 C3805 0.950 . S
H3785 C3808 0.950 . S
H3786 C3809 0.950 . S
H3787 C3811 0.950 . S
H3788 C3812 0.950 . S
H3789 C3813 0.951 . S
H3790 C3815 0.951 . S
H3791 C3817 0.956 1_545 S
H3792 C3818 0.959 . S
H3793 C3820 0.950 . S
H3794 C3823 0.950 . S
H3795 C3824 0.950 . S
H3796 C3826 0.950 . S
H3797 C3827 0.950 . S
C3798 H3780 0.951 . S
C3798 C3799 1.366 . S
C3798 C3800 1.388 . S
C3799 C3798 1.366 . S
C3799 C3803 1.385 . S
C3800 H3781 0.956 . S
C3800 C3798 1.388 . S
C3800 C3801 1.366 . S
C3801 C3800 1.366 . S
C3801 C3802 1.414 . S
C3801 C3804 1.499 . S
C3802 H3782 0.950 . S
C3802 C3801 1.414 . S
C3802 C3803 1.374 . S
C3803 H3783 0.950 . S
C3803 C3799 1.385 . S
C3803 C3802 1.374 . S
C3804 C3801 1.499 . S
C3804 C3805 1.373 . S
C3804 C3806 1.389 1_565 S
C3805 H3784 0.950 . S
C3805 C3804 1.373 . S
C3805 C3821 1.377 . S
C3806 C3804 1.389 1_545 S
C3806 C3807 1.524 . S
C3806 C3820 1.377 . S
C3807 C3806 1.524 . S
C3807 C3808 1.397 . S
C3807 C3812 1.363 . S
C3808 H3785 0.950 . S
C3808 C3807 1.397 . S
C3808 C3809 1.334 . S
C3809 H3786 0.950 . S
C3809 C3808 1.334 . S
C3809 C3810 1.287 . S
C3810 C3809 1.287 . S
C3810 C3811 1.524 . S
C3810 H3829 0.913 . S
C3811 H3787 0.950 . S
C3811 C3810 1.524 . S
C3811 C3812 1.415 . S
C3812 H3788 0.950 . S
C3812 C3807 1.363 . S
C3812 C3811 1.415 . S
C3813 H3789 0.951 . S
C3813 C3814 1.366 . S
C3813 C3815 1.388 . S
C3814 C3813 1.366 . S
C3814 C3818 1.396 1_565 S
C3815 H3790 0.951 . S
C3815 C3813 1.388 . S
C3815 C3816 1.366 . S
C3816 C3815 1.366 . S
C3816 C3817 1.419 . S
C3816 C3819 1.499 . S
C3817 H3791 0.956 1_565 S
C3817 C3816 1.419 . S
C3817 C3818 1.346 1_565 S
C3818 H3792 0.959 . S
C3818 C3814 1.396 1_545 S
C3818 C3817 1.346 1_545 S
C3819 C3816 1.499 . S
C3819 C3820 1.373 1_565 S
C3819 C3821 1.389 . S
C3820 H3793 0.950 . S
C3820 C3806 1.377 . S
C3820 C3819 1.373 1_545 S
C3821 C3805 1.377 . S
C3821 C3819 1.389 . S
C3821 C3822 1.524 . S
C3822 C3821 1.524 . S
C3822 C3823 1.397 . S
C3822 C3827 1.363 . S
C3823 H3794 0.950 . S
C3823 C3822 1.397 . S
C3823 C3824 1.334 . S
C3824 H3795 0.950 . S
C3824 C3823 1.334 . S
C3824 C3825 1.287 . S
C3825 C3824 1.287 . S
C3825 C3826 1.524 . S
C3825 H3828 0.999 . S
C3826 H3796 0.950 . S
C3826 C3825 1.524 . S
C3826 C3827 1.415 . S
C3827 H3797 0.950 . S
C3827 C3822 1.363 . S
C3827 C3826 1.415 . S
H3828 C3825 0.999 . S
H3829 C3810 0.913 . S
H3830 C3848 0.951 . S
H3831 C3850 0.951 . S
H3832 C3852 0.959 . S
H3833 C3853 0.942 1_655 S
H3834 C3855 0.950 . S
H3835 C3858 0.950 . S
H3836 C3859 0.950 . S
H3837 C3861 0.963 . S
H3838 C3862 0.950 . S
H3839 C3863 0.951 . S
H3840 C3865 0.951 . S
H3841 C3867 0.950 . S
H3842 C3868 0.950 . S
H3843 C3870 0.950 . S
H3844 C3873 0.950 . S
H3845 C3874 0.950 . S
H3846 C3876 0.950 . S
H3847 C3877 0.950 1_655 S
C3848 H3830 0.951 . S
C3848 C3849 1.366 . S
C3848 C3850 1.388 . S
C3849 C3848 1.366 . S
C3849 C3853 1.386 . S
C3850 H3831 0.951 . S
C3850 C3848 1.388 . S
C3850 C3851 1.366 . S
C3851 C3850 1.366 . S
C3851 C3852 1.385 1_455 S
C3851 C3854 1.499 . S
C3852 H3832 0.959 . S
C3852 C3851 1.385 1_655 S
C3852 C3853 1.407 1_655 S
C3853 H3833 0.942 1_455 S
C3853 C3849 1.386 . S
C3853 C3852 1.407 1_455 S
C3854 C3851 1.499 . S
C3854 C3855 1.373 . S
C3854 C3856 1.389 . S
C3855 H3834 0.950 . S
C3855 C3854 1.373 . S
C3855 C3871 1.377 . S
C3856 C3854 1.389 . S
C3856 C3857 1.524 1_455 S
C3856 C3870 1.377 . S
C3857 C3856 1.524 1_655 S
C3857 C3858 1.397 . S
C3857 C3862 1.363 1_655 S
C3858 H3835 0.950 . S
C3858 C3857 1.397 . S
C3858 C3859 1.334 . S
C3859 H3836 0.950 . S
C3859 C3858 1.334 . S
C3859 C3860 1.287 . S
C3860 C3859 1.287 . S
C3860 C3861 1.474 1_655 S
C3860 H3879 0.913 . S
C3861 H3837 0.963 . S
C3861 C3860 1.474 1_455 S
C3861 C3862 1.453 . S
C3862 H3838 0.950 . S
C3862 C3857 1.363 1_455 S
C3862 C3861 1.453 . S
C3863 H3839 0.951 . S
C3863 C3864 1.366 1_655 S
C3863 C3865 1.388 . S
C3864 C3863 1.366 1_455 S
C3864 C3868 1.385 . S
C3865 H3840 0.951 . S
C3865 C3863 1.388 . S
C3865 C3866 1.366 1_655 S
C3866 C3865 1.366 1_455 S
C3866 C3867 1.414 . S
C3866 C3869 1.499 . S
C3867 H3841 0.950 . S
C3867 C3866 1.414 . S
C3867 C3868 1.374 . S
C3868 H3842 0.950 . S
C3868 C3864 1.385 . S
C3868 C3867 1.374 . S
C3869 C3866 1.499 . S
C3869 C3870 1.373 . S
C3869 C3871 1.389 . S
C3870 H3843 0.950 . S
C3870 C3856 1.377 . S
C3870 C3869 1.373 . S
C3871 C3855 1.377 . S
C3871 C3869 1.389 . S
C3871 C3872 1.524 . S
C3872 C3871 1.524 . S
C3872 C3873 1.397 . S
C3872 C3877 1.363 . S
C3873 H3844 0.950 . S
C3873 C3872 1.397 . S
C3873 C3874 1.334 . S
C3874 H3845 0.950 . S
C3874 C3873 1.334 . S
C3874 C3875 1.287 . S
C3875 C3874 1.287 . S
C3875 C3876 1.524 . S
C3875 H3878 0.999 . S
C3876 H3846 0.950 . S
C3876 C3875 1.524 . S
C3876 C3877 1.415 . S
C3877 H3847 0.950 1_455 S
C3877 C3872 1.363 . S
C3877 C3876 1.415 . S
H3878 C3875 0.999 . S
H3879 C3860 0.913 . S
H3880 C3898 0.951 . S
H3881 C3900 0.951 . S
H3882 C3902 0.950 . S
H3883 C3903 0.950 . S
H3884 C3905 0.950 . S
H3885 C3908 0.950 . S
H3886 C3909 0.950 . S
H3887 C3911 0.950 . S
H3888 C3912 0.950 . S
H3889 C3913 0.951 . S
H3890 C3915 0.951 . S
H3891 C3917 0.950 . S
H3892 C3918 0.950 . S
H3893 C3920 0.950 . S
H3894 C3923 0.950 . S
H3895 C3924 0.950 . S
H3896 C3926 0.950 . S
H3897 C3927 0.950 . S
C3898 H3880 0.951 . S
C3898 C3899 1.366 . S
C3898 C3900 1.388 . S
C3899 C3898 1.366 . S
C3899 C3903 1.385 . S
C3900 H3881 0.951 . S
C3900 C3898 1.388 . S
C3900 C3901 1.366 . S
C3901 C3900 1.366 . S
C3901 C3902 1.414 . S
C3901 C3904 1.499 . S
C3902 H3882 0.950 . S
C3902 C3901 1.414 . S
C3902 C3903 1.374 . S
C3903 H3883 0.950 . S
C3903 C3899 1.385 . S
C3903 C3902 1.374 . S
C3904 C3901 1.499 . S
C3904 C3905 1.373 . S
C3904 C3906 1.389 . S
C3905 H3884 0.950 . S
C3905 C3904 1.373 . S
C3905 C3921 1.377 . S
C3906 C3904 1.389 . S
C3906 C3907 1.524 . S
C3906 C3920 1.377 . S
C3907 C3906 1.524 . S
C3907 C3908 1.397 . S
C3907 C3912 1.363 . S
C3908 H3885 0.950 . S
C3908 C3907 1.397 . S
C3908 C3909 1.334 . S
C3909 H3886 0.950 . S
C3909 C3908 1.334 . S
C3909 C3910 1.287 . S
C3910 C3909 1.287 . S
C3910 C3911 1.524 . S
C3910 H3929 0.913 . S
C3911 H3887 0.950 . S
C3911 C3910 1.524 . S
C3911 C3912 1.415 . S
C3912 H3888 0.950 . S
C3912 C3907 1.363 . S
C3912 C3911 1.415 . S
C3913 H3889 0.951 . S
C3913 C3914 1.366 . S
C3913 C3915 1.388 . S
C3914 C3913 1.366 . S
C3914 C3918 1.385 . S
C3915 H3890 0.951 . S
C3915 C3913 1.388 . S
C3915 C3916 1.366 . S
C3916 C3915 1.366 . S
C3916 C3917 1.414 . S
C3916 C3919 1.499 . S
C3917 H3891 0.950 . S
C3917 C3916 1.414 . S
C3917 C3918 1.374 . S
C3918 H3892 0.950 . S
C3918 C3914 1.385 . S
C3918 C3917 1.374 . S
C3919 C3916 1.499 . S
C3919 C3920 1.373 . S
C3919 C3921 1.389 . S
C3920 H3893 0.950 . S
C3920 C3906 1.377 . S
C3920 C3919 1.373 . S
C3921 C3905 1.377 . S
C3921 C3919 1.389 . S
C3921 C3922 1.524 . S
C3922 C3921 1.524 . S
C3922 C3923 1.397 . S
C3922 C3927 1.363 . S
C3923 H3894 0.950 . S
C3923 C3922 1.397 . S
C3923 C3924 1.334 . S
C3924 H3895 0.950 . S
C3924 C3923 1.334 . S
C3924 C3925 1.287 . S
C3925 C3924 1.287 . S
C3925 C3926 1.524 . S
C3925 H3928 0.999 . S
C3926 H3896 0.950 . S
C3926 C3925 1.524 . S
C3926 C3927 1.415 . S
C3927 H3897 0.950 . S
C3927 C3922 1.363 . S
C3927 C3926 1.415 . S
H3928 C3925 0.999 . S
H3929 C3910 0.913 . S
H3930 C3948 0.951 . S
H3931 C3950 0.951 . S
H3932 C3952 0.950 . S
H3933 C3953 0.950 . S
H3934 C3955 0.950 . S
H3935 C3958 0.950 . S
H3936 C3959 0.950 . S
H3937 C3961 0.950 . S
H3938 C3962 0.950 . S
H3939 C3963 0.951 . S
H3940 C3965 0.951 . S
H3941 C3967 0.950 . S
H3942 C3968 0.950 . S
H3943 C3970 0.950 . S
H3944 C3973 0.950 . S
H3945 C3974 0.950 . S
H3946 C3976 0.950 . S
H3947 C3977 0.950 . S
C3948 H3930 0.951 . S
C3948 C3949 1.366 . S
C3948 C3950 1.388 . S
C3949 C3948 1.366 . S
C3949 C3953 1.385 . S
C3950 H3931 0.951 . S
C3950 C3948 1.388 . S
C3950 C3951 1.366 . S
C3951 C3950 1.366 . S
C3951 C3952 1.414 . S
C3951 C3954 1.499 . S
C3952 H3932 0.950 . S
C3952 C3951 1.414 . S
C3952 C3953 1.374 . S
C3953 H3933 0.950 . S
C3953 C3949 1.385 . S
C3953 C3952 1.374 . S
C3954 C3951 1.499 . S
C3954 C3955 1.373 . S
C3954 C3956 1.389 . S
C3955 H3934 0.950 . S
C3955 C3954 1.373 . S
C3955 C3971 1.377 . S
C3956 C3954 1.389 . S
C3956 C3957 1.524 . S
C3956 C3970 1.377 . S
C3957 C3956 1.524 . S
C3957 C3958 1.397 . S
C3957 C3962 1.363 . S
C3958 H3935 0.950 . S
C3958 C3957 1.397 . S
C3958 C3959 1.334 . S
C3959 H3936 0.950 . S
C3959 C3958 1.334 . S
C3959 C3960 1.287 . S
C3960 C3959 1.287 . S
C3960 C3961 1.524 . S
C3960 H3979 0.913 . S
C3961 H3937 0.950 . S
C3961 C3960 1.524 . S
C3961 C3962 1.415 . S
C3962 H3938 0.950 . S
C3962 C3957 1.363 . S
C3962 C3961 1.415 . S
C3963 H3939 0.951 . S
C3963 C3964 1.366 . S
C3963 C3965 1.388 . S
C3964 C3963 1.366 . S
C3964 C3968 1.385 . S
C3965 H3940 0.951 . S
C3965 C3963 1.388 . S
C3965 C3966 1.366 . S
C3966 C3965 1.366 . S
C3966 C3967 1.414 . S
C3966 C3969 1.499 . S
C3967 H3941 0.950 . S
C3967 C3966 1.414 . S
C3967 C3968 1.374 . S
C3968 H3942 0.950 . S
C3968 C3964 1.385 . S
C3968 C3967 1.374 . S
C3969 C3966 1.499 . S
C3969 C3970 1.373 . S
C3969 C3971 1.389 . S
C3970 H3943 0.950 . S
C3970 C3956 1.377 . S
C3970 C3969 1.373 . S
C3971 C3955 1.377 . S
C3971 C3969 1.389 . S
C3971 C3972 1.524 . S
C3972 C3971 1.524 . S
C3972 C3973 1.397 . S
C3972 C3977 1.363 . S
C3973 H3944 0.950 . S
C3973 C3972 1.397 . S
C3973 C3974 1.334 . S
C3974 H3945 0.950 . S
C3974 C3973 1.334 . S
C3974 C3975 1.287 . S
C3975 C3974 1.287 . S
C3975 C3976 1.524 . S
C3975 H3978 0.999 . S
C3976 H3946 0.950 . S
C3976 C3975 1.524 . S
C3976 C3977 1.415 . S
C3977 H3947 0.950 . S
C3977 C3972 1.363 . S
C3977 C3976 1.415 . S
H3978 C3975 0.999 . S
H3979 C3960 0.913 . S
H3980 C3998 0.951 . S
H3981 C4000 0.951 . S
H3982 C4002 0.950 . S
H3983 C4003 0.950 . S
H3984 C4005 0.950 . S
H3985 C4008 0.950 . S
H3986 C4009 0.950 . S
H3987 C4011 0.950 . S
H3988 C4012 0.950 . S
H3989 C4013 0.951 . S
H3990 C4015 0.951 . S
H3991 C4017 0.950 . S
H3992 C4018 0.950 . S
H3993 C4020 0.950 . S
H3994 C4023 0.950 . S
H3995 C4024 0.950 . S
H3996 C4026 0.950 . S
H3997 C4027 0.950 . S
C3998 H3980 0.951 . S
C3998 C3999 1.366 . S
C3998 C4000 1.388 . S
C3999 C3998 1.366 . S
C3999 C4003 1.385 . S
C4000 H3981 0.951 . S
C4000 C3998 1.388 . S
C4000 C4001 1.366 . S
C4001 C4000 1.366 . S
C4001 C4002 1.414 . S
C4001 C4004 1.499 . S
C4002 H3982 0.950 . S
C4002 C4001 1.414 . S
C4002 C4003 1.374 . S
C4003 H3983 0.950 . S
C4003 C3999 1.385 . S
C4003 C4002 1.374 . S
C4004 C4001 1.499 . S
C4004 C4005 1.373 . S
C4004 C4006 1.389 . S
C4005 H3984 0.950 . S
C4005 C4004 1.373 . S
C4005 C4021 1.377 . S
C4006 C4004 1.389 . S
C4006 C4007 1.524 . S
C4006 C4020 1.377 . S
C4007 C4006 1.524 . S
C4007 C4008 1.397 . S
C4007 C4012 1.363 . S
C4008 H3985 0.950 . S
C4008 C4007 1.397 . S
C4008 C4009 1.334 . S
C4009 H3986 0.950 . S
C4009 C4008 1.334 . S
C4009 C4010 1.287 . S
C4010 C4009 1.287 . S
C4010 C4011 1.524 . S
C4010 H4029 0.913 . S
C4011 H3987 0.950 . S
C4011 C4010 1.524 . S
C4011 C4012 1.415 . S
C4012 H3988 0.950 . S
C4012 C4007 1.363 . S
C4012 C4011 1.415 . S
C4013 H3989 0.951 . S
C4013 C4014 1.366 . S
C4013 C4015 1.388 . S
C4014 C4013 1.366 . S
C4014 C4018 1.385 . S
C4015 H3990 0.951 . S
C4015 C4013 1.388 . S
C4015 C4016 1.366 . S
C4016 C4015 1.366 . S
C4016 C4017 1.414 . S
C4016 C4019 1.499 . S
C4017 H3991 0.950 . S
C4017 C4016 1.414 . S
C4017 C4018 1.374 . S
C4018 H3992 0.950 . S
C4018 C4014 1.385 . S
C4018 C4017 1.374 . S
C4019 C4016 1.499 . S
C4019 C4020 1.373 . S
C4019 C4021 1.389 . S
C4020 H3993 0.950 . S
C4020 C4006 1.377 . S
C4020 C4019 1.373 . S
C4021 C4005 1.377 . S
C4021 C4019 1.389 . S
C4021 C4022 1.524 . S
C4022 C4021 1.524 . S
C4022 C4023 1.397 . S
C4022 C4027 1.363 . S
C4023 H3994 0.950 . S
C4023 C4022 1.397 . S
C4023 C4024 1.334 . S
C4024 H3995 0.950 . S
C4024 C4023 1.334 . S
C4024 C4025 1.287 . S
C4025 C4024 1.287 . S
C4025 C4026 1.524 . S
C4025 H4028 0.999 . S
C4026 H3996 0.950 . S
C4026 C4025 1.524 . S
C4026 C4027 1.415 . S
C4027 H3997 0.950 . S
C4027 C4022 1.363 . S
C4027 C4026 1.415 . S
H4028 C4025 0.999 . S
H4029 C4010 0.913 . S
H4030 C4048 0.951 . S
H4031 C4050 0.951 . S
H4032 C4052 0.950 . S
H4033 C4053 0.950 . S
H4034 C4055 0.950 . S
H4035 C4058 0.950 . S
H4036 C4059 0.950 . S
H4037 C4061 0.950 . S
H4038 C4062 0.950 . S
H4039 C4063 0.951 . S
H4040 C4065 0.951 . S
H4041 C4067 0.950 . S
H4042 C4068 0.950 . S
H4043 C4070 0.950 . S
H4044 C4073 0.950 . S
H4045 C4074 0.950 . S
H4046 C4076 0.950 . S
H4047 C4077 0.950 . S
C4048 H4030 0.951 . S
C4048 C4049 1.366 . S
C4048 C4050 1.388 . S
C4049 C4048 1.366 . S
C4049 C4053 1.385 . S
C4050 H4031 0.951 . S
C4050 C4048 1.388 . S
C4050 C4051 1.366 . S
C4051 C4050 1.366 . S
C4051 C4052 1.414 . S
C4051 C4054 1.499 . S
C4052 H4032 0.950 . S
C4052 C4051 1.414 . S
C4052 C4053 1.374 . S
C4053 H4033 0.950 . S
C4053 C4049 1.385 . S
C4053 C4052 1.374 . S
C4054 C4051 1.499 . S
C4054 C4055 1.373 . S
C4054 C4056 1.389 . S
C4055 H4034 0.950 . S
C4055 C4054 1.373 . S
C4055 C4071 1.377 . S
C4056 C4054 1.389 . S
C4056 C4057 1.524 . S
C4056 C4070 1.377 . S
C4057 C4056 1.524 . S
C4057 C4058 1.397 . S
C4057 C4062 1.363 . S
C4058 H4035 0.950 . S
C4058 C4057 1.397 . S
C4058 C4059 1.334 . S
C4059 H4036 0.950 . S
C4059 C4058 1.334 . S
C4059 C4060 1.287 . S
C4060 C4059 1.287 . S
C4060 C4061 1.524 . S
C4060 H4079 0.913 . S
C4061 H4037 0.950 . S
C4061 C4060 1.524 . S
C4061 C4062 1.415 . S
C4062 H4038 0.950 . S
C4062 C4057 1.363 . S
C4062 C4061 1.415 . S
C4063 H4039 0.951 . S
C4063 C4064 1.366 . S
C4063 C4065 1.388 . S
C4064 C4063 1.366 . S
C4064 C4068 1.385 . S
C4065 H4040 0.951 . S
C4065 C4063 1.388 . S
C4065 C4066 1.366 . S
C4066 C4065 1.366 . S
C4066 C4067 1.414 . S
C4066 C4069 1.499 . S
C4067 H4041 0.950 . S
C4067 C4066 1.414 . S
C4067 C4068 1.374 . S
C4068 H4042 0.950 . S
C4068 C4064 1.385 . S
C4068 C4067 1.374 . S
C4069 C4066 1.499 . S
C4069 C4070 1.373 . S
C4069 C4071 1.389 . S
C4070 H4043 0.950 . S
C4070 C4056 1.377 . S
C4070 C4069 1.373 . S
C4071 C4055 1.377 . S
C4071 C4069 1.389 . S
C4071 C4072 1.524 . S
C4072 C4071 1.524 . S
C4072 C4073 1.397 . S
C4072 C4077 1.363 . S
C4073 H4044 0.950 . S
C4073 C4072 1.397 . S
C4073 C4074 1.334 . S
C4074 H4045 0.950 . S
C4074 C4073 1.334 . S
C4074 C4075 1.287 . S
C4075 C4074 1.287 . S
C4075 C4076 1.524 . S
C4075 H4078 0.999 . S
C4076 H4046 0.950 . S
C4076 C4075 1.524 . S
C4076 C4077 1.415 . S
C4077 H4047 0.950 . S
C4077 C4072 1.363 . S
C4077 C4076 1.415 . S
H4078 C4075 0.999 . S
H4079 C4060 0.913 . S
H4080 C4098 0.951 . S
H4081 C4100 0.951 . S
H4082 C4102 0.950 . S
H4083 C4103 0.950 . S
H4084 C4105 0.950 . S
H4085 C4108 0.950 . S
H4086 C4109 0.950 . S
H4087 C4111 0.950 . S
H4088 C4112 0.950 . S
H4089 C4113 0.880 1_565 S
H4090 C4115 0.950 . S
H4091 C4117 0.950 . S
H4092 C4118 0.950 . S
H4093 C4120 0.950 . S
H4094 C4123 0.950 . S
H4095 C4124 0.950 . S
H4096 C4126 0.950 . S
H4097 C4127 0.950 . S
C4098 H4080 0.951 . S
C4098 C4099 1.366 . S
C4098 C4100 1.388 . S
C4099 C4098 1.366 . S
C4099 C4103 1.385 . S
C4100 H4081 0.951 . S
C4100 C4098 1.388 . S
C4100 C4101 1.366 . S
C4101 C4100 1.366 . S
C4101 C4102 1.414 . S
C4101 C4104 1.499 . S
C4102 H4082 0.950 . S
C4102 C4101 1.414 . S
C4102 C4103 1.374 . S
C4103 H4083 0.950 . S
C4103 C4099 1.385 . S
C4103 C4102 1.374 . S
C4104 C4101 1.499 . S
C4104 C4105 1.373 1_545 S
C4104 C4106 1.389 . S
C4105 H4084 0.950 . S
C4105 C4104 1.373 1_565 S
C4105 C4121 1.377 . S
C4106 C4104 1.389 . S
C4106 C4107 1.524 . S
C4106 C4120 1.377 . S
C4107 C4106 1.524 . S
C4107 C4108 1.397 . S
C4107 C4112 1.363 . S
C4108 H4085 0.950 . S
C4108 C4107 1.397 . S
C4108 C4109 1.334 . S
C4109 H4086 0.950 . S
C4109 C4108 1.334 . S
C4109 C4110 1.287 . S
C4110 C4109 1.287 . S
C4110 C4111 1.524 . S
C4110 H4129 0.913 . S
C4111 H4087 0.950 . S
C4111 C4110 1.524 . S
C4111 C4112 1.415 . S
C4112 H4088 0.950 . S
C4112 C4107 1.363 . S
C4112 C4111 1.415 . S
C4113 H4089 0.880 1_545 S
C4113 C4114 1.378 . S
C4113 C4115 1.425 . S
C4114 C4113 1.378 . S
C4114 C4118 1.385 . S
C4115 H4090 0.950 . S
C4115 C4113 1.425 . S
C4115 C4116 1.366 . S
C4116 C4115 1.366 . S
C4116 C4117 1.414 . S
C4116 C4119 1.499 . S
C4117 H4091 0.950 . S
C4117 C4116 1.414 . S
C4117 C4118 1.374 . S
C4118 H4092 0.950 . S
C4118 C4114 1.385 . S
C4118 C4117 1.374 . S
C4119 C4116 1.499 . S
C4119 C4120 1.373 . S
C4119 C4121 1.389 1_545 S
C4120 H4093 0.950 . S
C4120 C4106 1.377 . S
C4120 C4119 1.373 . S
C4121 C4105 1.377 . S
C4121 C4119 1.389 1_565 S
C4121 C4122 1.524 . S
C4122 C4121 1.524 . S
C4122 C4123 1.397 . S
C4122 C4127 1.363 . S
C4123 H4094 0.950 . S
C4123 C4122 1.397 . S
C4123 C4124 1.334 . S
C4124 H4095 0.950 . S
C4124 C4123 1.334 . S
C4124 C4125 1.287 . S
C4125 C4124 1.287 . S
C4125 C4126 1.524 . S
C4125 H4128 0.999 . S
C4126 H4096 0.950 . S
C4126 C4125 1.524 . S
C4126 C4127 1.415 . S
C4127 H4097 0.950 . S
C4127 C4122 1.363 . S
C4127 C4126 1.415 . S
H4128 C4125 0.999 . S
H4129 C4110 0.913 . S
H4130 C4148 0.951 . S
H4131 C4150 0.951 . S
H4132 C4152 0.950 . S
H4133 C4153 0.950 . S
H4134 C4155 0.950 . S
H4135 C4158 0.950 . S
H4136 C4159 0.950 . S
H4137 C4161 0.973 . S
H4138 C4162 0.950 . S
H4139 C4163 0.951 . S
H4140 C4165 0.951 . S
H4141 C4167 0.950 . S
H4142 C4168 0.950 . S
H4143 C4170 0.950 . S
H4144 C4173 0.950 . S
H4145 C4174 0.950 . S
H4146 C4176 0.950 . S
H4147 C4177 0.950 . S
C4148 H4130 0.951 . S
C4148 C4149 1.366 1_455 S
C4148 C4150 1.388 . S
C4149 C4148 1.366 1_655 S
C4149 C4153 1.385 . S
C4150 H4131 0.951 . S
C4150 C4148 1.388 . S
C4150 C4151 1.366 1_455 S
C4151 C4150 1.366 1_655 S
C4151 C4152 1.414 . S
C4151 C4154 1.499 . S
C4152 H4132 0.950 . S
C4152 C4151 1.414 . S
C4152 C4153 1.374 . S
C4153 H4133 0.950 . S
C4153 C4149 1.385 . S
C4153 C4152 1.374 . S
C4154 C4151 1.499 . S
C4154 C4155 1.373 . S
C4154 C4156 1.389 . S
C4155 H4134 0.950 . S
C4155 C4154 1.373 . S
C4155 C4171 1.377 . S
C4156 C4154 1.389 . S
C4156 C4157 1.524 . S
C4156 C4170 1.377 . S
C4157 C4156 1.524 . S
C4157 C4158 1.397 . S
C4157 C4162 1.363 1_655 S
C4158 H4135 0.950 . S
C4158 C4157 1.397 . S
C4158 C4159 1.334 . S
C4159 H4136 0.950 . S
C4159 C4158 1.334 . S
C4159 C4160 1.287 . S
C4160 C4159 1.287 . S
C4160 C4161 1.508 1_655 S
C4160 H4179 0.913 . S
C4161 H4137 0.973 . S
C4161 C4160 1.508 1_455 S
C4161 C4162 1.405 . S
C4162 H4138 0.950 . S
C4162 C4157 1.363 1_455 S
C4162 C4161 1.405 . S
C4163 H4139 0.951 . S
C4163 C4164 1.366 . S
C4163 C4165 1.388 . S
C4164 C4163 1.366 . S
C4164 C4168 1.385 1_655 S
C4165 H4140 0.951 . S
C4165 C4163 1.388 . S
C4165 C4166 1.366 . S
C4166 C4165 1.366 . S
C4166 C4167 1.414 1_655 S
C4166 C4169 1.499 . S
C4167 H4141 0.950 . S
C4167 C4166 1.414 1_455 S
C4167 C4168 1.374 . S
C4168 H4142 0.950 . S
C4168 C4164 1.385 1_455 S
C4168 C4167 1.374 . S
C4169 C4166 1.499 . S
C4169 C4170 1.373 . S
C4169 C4171 1.389 . S
C4170 H4143 0.950 . S
C4170 C4156 1.377 . S
C4170 C4169 1.373 . S
C4171 C4155 1.377 . S
C4171 C4169 1.389 . S
C4171 C4172 1.524 . S
C4172 C4171 1.524 . S
C4172 C4173 1.397 1_655 S
C4172 C4177 1.363 . S
C4173 H4144 0.950 . S
C4173 C4172 1.397 1_455 S
C4173 C4174 1.334 . S
C4174 H4145 0.950 . S
C4174 C4173 1.334 . S
C4174 C4175 1.287 . S
C4175 C4174 1.287 . S
C4175 C4176 1.524 1_455 S
C4175 H4178 0.999 . S
C4176 H4146 0.950 . S
C4176 C4175 1.524 1_655 S
C4176 C4177 1.415 . S
C4177 H4147 0.950 . S
C4177 C4172 1.363 . S
C4177 C4176 1.415 . S
H4178 C4175 0.999 . S
H4179 C4160 0.913 . S
H4180 C4198 0.951 . S
H4181 C4200 0.951 . S
H4182 C4202 0.950 . S
H4183 C4203 0.950 . S
H4184 C4205 0.950 . S
H4185 C4208 0.950 . S
H4186 C4209 0.950 . S
H4187 C4211 0.950 . S
H4188 C4212 0.950 . S
H4189 C4213 0.951 . S
H4190 C4215 0.951 . S
H4191 C4217 0.950 . S
H4192 C4218 0.950 . S
H4193 C4220 0.950 . S
H4194 C4223 0.950 . S
H4195 C4224 0.950 . S
H4196 C4226 0.950 . S
H4197 C4227 0.950 . S
C4198 H4180 0.951 . S
C4198 C4199 1.366 . S
C4198 C4200 1.388 . S
C4199 C4198 1.366 . S
C4199 C4203 1.385 . S
C4200 H4181 0.951 . S
C4200 C4198 1.388 . S
C4200 C4201 1.366 . S
C4201 C4200 1.366 . S
C4201 C4202 1.414 . S
C4201 C4204 1.499 . S
C4202 H4182 0.950 . S
C4202 C4201 1.414 . S
C4202 C4203 1.374 . S
C4203 H4183 0.950 . S
C4203 C4199 1.385 . S
C4203 C4202 1.374 . S
C4204 C4201 1.499 . S
C4204 C4205 1.373 . S
C4204 C4206 1.389 . S
C4205 H4184 0.950 . S
C4205 C4204 1.373 . S
C4205 C4221 1.377 . S
C4206 C4204 1.389 . S
C4206 C4207 1.524 . S
C4206 C4220 1.377 . S
C4207 C4206 1.524 . S
C4207 C4208 1.397 . S
C4207 C4212 1.363 . S
C4208 H4185 0.950 . S
C4208 C4207 1.397 . S
C4208 C4209 1.334 . S
C4209 H4186 0.950 . S
C4209 C4208 1.334 . S
C4209 C4210 1.287 . S
C4210 C4209 1.287 . S
C4210 C4211 1.524 . S
C4210 H4229 0.913 . S
C4211 H4187 0.950 . S
C4211 C4210 1.524 . S
C4211 C4212 1.415 . S
C4212 H4188 0.950 . S
C4212 C4207 1.363 . S
C4212 C4211 1.415 . S
C4213 H4189 0.951 . S
C4213 C4214 1.366 . S
C4213 C4215 1.388 . S
C4214 C4213 1.366 . S
C4214 C4218 1.385 . S
C4215 H4190 0.951 . S
C4215 C4213 1.388 . S
C4215 C4216 1.366 . S
C4216 C4215 1.366 . S
C4216 C4217 1.414 . S
C4216 C4219 1.499 . S
C4217 H4191 0.950 . S
C4217 C4216 1.414 . S
C4217 C4218 1.374 . S
C4218 H4192 0.950 . S
C4218 C4214 1.385 . S
C4218 C4217 1.374 . S
C4219 C4216 1.499 . S
C4219 C4220 1.373 . S
C4219 C4221 1.389 . S
C4220 H4193 0.950 . S
C4220 C4206 1.377 . S
C4220 C4219 1.373 . S
C4221 C4205 1.377 . S
C4221 C4219 1.389 . S
C4221 C4222 1.524 . S
C4222 C4221 1.524 . S
C4222 C4223 1.397 . S
C4222 C4227 1.363 . S
C4223 H4194 0.950 . S
C4223 C4222 1.397 . S
C4223 C4224 1.334 . S
C4224 H4195 0.950 . S
C4224 C4223 1.334 . S
C4224 C4225 1.287 . S
C4225 C4224 1.287 . S
C4225 C4226 1.524 . S
C4225 H4228 0.999 . S
C4226 H4196 0.950 . S
C4226 C4225 1.524 . S
C4226 C4227 1.415 . S
C4227 H4197 0.950 . S
C4227 C4222 1.363 . S
C4227 C4226 1.415 . S
H4228 C4225 0.999 . S
H4229 C4210 0.913 . S
H4230 C4248 0.951 . S
H4231 C4250 0.951 . S
H4232 C4252 0.950 . S
H4233 C4253 0.950 . S
H4234 C4255 0.950 . S
H4235 C4258 0.950 . S
H4236 C4259 0.950 . S
H4237 C4261 0.950 . S
H4238 C4262 0.950 . S
H4239 C4263 0.951 . S
H4240 C4265 0.951 . S
H4241 C4267 0.950 . S
H4242 C4268 0.950 . S
H4243 C4270 0.950 . S
H4244 C4273 0.950 . S
H4245 C4274 0.950 . S
H4246 C4276 0.950 . S
H4247 C4277 0.950 . S
C4248 H4230 0.951 . S
C4248 C4249 1.366 . S
C4248 C4250 1.388 . S
C4249 C4248 1.366 . S
C4249 C4253 1.385 . S
C4250 H4231 0.951 . S
C4250 C4248 1.388 . S
C4250 C4251 1.366 . S
C4251 C4250 1.366 . S
C4251 C4252 1.414 . S
C4251 C4254 1.499 . S
C4252 H4232 0.950 . S
C4252 C4251 1.414 . S
C4252 C4253 1.374 . S
C4253 H4233 0.950 . S
C4253 C4249 1.385 . S
C4253 C4252 1.374 . S
C4254 C4251 1.499 . S
C4254 C4255 1.373 . S
C4254 C4256 1.389 . S
C4255 H4234 0.950 . S
C4255 C4254 1.373 . S
C4255 C4271 1.377 . S
C4256 C4254 1.389 . S
C4256 C4257 1.524 . S
C4256 C4270 1.377 . S
C4257 C4256 1.524 . S
C4257 C4258 1.397 . S
C4257 C4262 1.363 . S
C4258 H4235 0.950 . S
C4258 C4257 1.397 . S
C4258 C4259 1.334 . S
C4259 H4236 0.950 . S
C4259 C4258 1.334 . S
C4259 C4260 1.287 . S
C4260 C4259 1.287 . S
C4260 C4261 1.524 . S
C4260 H4279 0.913 . S
C4261 H4237 0.950 . S
C4261 C4260 1.524 . S
C4261 C4262 1.415 . S
C4262 H4238 0.950 . S
C4262 C4257 1.363 . S
C4262 C4261 1.415 . S
C4263 H4239 0.951 . S
C4263 C4264 1.366 . S
C4263 C4265 1.388 . S
C4264 C4263 1.366 . S
C4264 C4268 1.385 . S
C4265 H4240 0.951 . S
C4265 C4263 1.388 . S
C4265 C4266 1.366 . S
C4266 C4265 1.366 . S
C4266 C4267 1.414 . S
C4266 C4269 1.499 . S
C4267 H4241 0.950 . S
C4267 C4266 1.414 . S
C4267 C4268 1.374 . S
C4268 H4242 0.950 . S
C4268 C4264 1.385 . S
C4268 C4267 1.374 . S
C4269 C4266 1.499 . S
C4269 C4270 1.373 . S
C4269 C4271 1.389 . S
C4270 H4243 0.950 . S
C4270 C4256 1.377 . S
C4270 C4269 1.373 . S
C4271 C4255 1.377 . S
C4271 C4269 1.389 . S
C4271 C4272 1.524 . S
C4272 C4271 1.524 . S
C4272 C4273 1.397 . S
C4272 C4277 1.363 . S
C4273 H4244 0.950 . S
C4273 C4272 1.397 . S
C4273 C4274 1.334 . S
C4274 H4245 0.950 . S
C4274 C4273 1.334 . S
C4274 C4275 1.287 . S
C4275 C4274 1.287 . S
C4275 C4276 1.524 . S
C4275 H4278 0.999 . S
C4276 H4246 0.950 . S
C4276 C4275 1.524 . S
C4276 C4277 1.415 . S
C4277 H4247 0.950 . S
C4277 C4272 1.363 . S
C4277 C4276 1.415 . S
H4278 C4275 0.999 . S
H4279 C4260 0.913 . S
H4280 C4298 0.951 . S
H4281 C4300 0.951 . S
H4282 C4302 0.950 . S
H4283 C4303 0.950 . S
H4284 C4305 0.950 . S
H4285 C4308 0.950 . S
H4286 C4309 0.950 . S
H4287 C4311 0.950 . S
H4288 C4312 0.950 . S
H4289 C4313 0.951 . S
H4290 C4315 0.951 . S
H4291 C4317 0.950 . S
H4292 C4318 0.950 . S
H4293 C4320 0.950 . S
H4294 C4323 0.950 . S
H4295 C4324 0.950 . S
H4296 C4326 0.950 . S
H4297 C4327 0.950 . S
C4298 H4280 0.951 . S
C4298 C4299 1.366 . S
C4298 C4300 1.388 . S
C4299 C4298 1.366 . S
C4299 C4303 1.385 . S
C4300 H4281 0.951 . S
C4300 C4298 1.388 . S
C4300 C4301 1.366 . S
C4301 C4300 1.366 . S
C4301 C4302 1.414 . S
C4301 C4304 1.499 . S
C4302 H4282 0.950 . S
C4302 C4301 1.414 . S
C4302 C4303 1.374 . S
C4303 H4283 0.950 . S
C4303 C4299 1.385 . S
C4303 C4302 1.374 . S
C4304 C4301 1.499 . S
C4304 C4305 1.373 . S
C4304 C4306 1.389 . S
C4305 H4284 0.950 . S
C4305 C4304 1.373 . S
C4305 C4321 1.377 . S
C4306 C4304 1.389 . S
C4306 C4307 1.524 . S
C4306 C4320 1.377 . S
C4307 C4306 1.524 . S
C4307 C4308 1.397 . S
C4307 C4312 1.363 . S
C4308 H4285 0.950 . S
C4308 C4307 1.397 . S
C4308 C4309 1.334 . S
C4309 H4286 0.950 . S
C4309 C4308 1.334 . S
C4309 C4310 1.287 . S
C4310 C4309 1.287 . S
C4310 C4311 1.524 . S
C4310 H4329 0.913 . S
C4311 H4287 0.950 . S
C4311 C4310 1.524 . S
C4311 C4312 1.415 . S
C4312 H4288 0.950 . S
C4312 C4307 1.363 . S
C4312 C4311 1.415 . S
C4313 H4289 0.951 . S
C4313 C4314 1.366 . S
C4313 C4315 1.388 . S
C4314 C4313 1.366 . S
C4314 C4318 1.385 . S
C4315 H4290 0.951 . S
C4315 C4313 1.388 . S
C4315 C4316 1.366 . S
C4316 C4315 1.366 . S
C4316 C4317 1.414 . S
C4316 C4319 1.499 . S
C4317 H4291 0.950 . S
C4317 C4316 1.414 . S
C4317 C4318 1.374 . S
C4318 H4292 0.950 . S
C4318 C4314 1.385 . S
C4318 C4317 1.374 . S
C4319 C4316 1.499 . S
C4319 C4320 1.373 . S
C4319 C4321 1.389 . S
C4320 H4293 0.950 . S
C4320 C4306 1.377 . S
C4320 C4319 1.373 . S
C4321 C4305 1.377 . S
C4321 C4319 1.389 . S
C4321 C4322 1.524 . S
C4322 C4321 1.524 . S
C4322 C4323 1.397 . S
C4322 C4327 1.363 . S
C4323 H4294 0.950 . S
C4323 C4322 1.397 . S
C4323 C4324 1.334 . S
C4324 H4295 0.950 . S
C4324 C4323 1.334 . S
C4324 C4325 1.287 . S
C4325 C4324 1.287 . S
C4325 C4326 1.524 . S
C4325 H4328 0.999 . S
C4326 H4296 0.950 . S
C4326 C4325 1.524 . S
C4326 C4327 1.415 . S
C4327 H4297 0.950 . S
C4327 C4322 1.363 . S
C4327 C4326 1.415 . S
H4328 C4325 0.999 . S
H4329 C4310 0.913 . S
H4330 C4348 0.951 . S
H4331 C4350 0.951 . S
H4332 C4352 0.950 . S
H4333 C4353 0.950 . S
H4334 C4355 0.950 . S
H4335 C4358 0.950 . S
H4336 C4359 0.950 . S
H4337 C4361 0.950 . S
H4338 C4362 0.950 . S
H4339 C4363 0.951 . S
H4340 C4365 0.951 . S
H4341 C4367 0.950 . S
H4342 C4368 0.950 . S
H4343 C4370 0.950 . S
H4344 C4373 0.950 . S
H4345 C4374 0.950 . S
H4346 C4376 0.950 . S
H4347 C4377 0.950 . S
C4348 H4330 0.951 . S
C4348 C4349 1.366 . S
C4348 C4350 1.388 . S
C4349 C4348 1.366 . S
C4349 C4353 1.385 . S
C4350 H4331 0.951 . S
C4350 C4348 1.388 . S
C4350 C4351 1.366 . S
C4351 C4350 1.366 . S
C4351 C4352 1.414 . S
C4351 C4354 1.499 . S
C4352 H4332 0.950 . S
C4352 C4351 1.414 . S
C4352 C4353 1.374 . S
C4353 H4333 0.950 . S
C4353 C4349 1.385 . S
C4353 C4352 1.374 . S
C4354 C4351 1.499 . S
C4354 C4355 1.373 . S
C4354 C4356 1.389 . S
C4355 H4334 0.950 . S
C4355 C4354 1.373 . S
C4355 C4371 1.377 . S
C4356 C4354 1.389 . S
C4356 C4357 1.524 . S
C4356 C4370 1.377 . S
C4357 C4356 1.524 . S
C4357 C4358 1.397 . S
C4357 C4362 1.363 . S
C4358 H4335 0.950 . S
C4358 C4357 1.397 . S
C4358 C4359 1.334 . S
C4359 H4336 0.950 . S
C4359 C4358 1.334 . S
C4359 C4360 1.287 . S
C4360 C4359 1.287 . S
C4360 C4361 1.524 . S
C4360 H4379 0.913 . S
C4361 H4337 0.950 . S
C4361 C4360 1.524 . S
C4361 C4362 1.415 . S
C4362 H4338 0.950 . S
C4362 C4357 1.363 . S
C4362 C4361 1.415 . S
C4363 H4339 0.951 . S
C4363 C4364 1.366 . S
C4363 C4365 1.388 . S
C4364 C4363 1.366 . S
C4364 C4368 1.385 . S
C4365 H4340 0.951 . S
C4365 C4363 1.388 . S
C4365 C4366 1.366 . S
C4366 C4365 1.366 . S
C4366 C4367 1.414 . S
C4366 C4369 1.499 . S
C4367 H4341 0.950 . S
C4367 C4366 1.414 . S
C4367 C4368 1.374 . S
C4368 H4342 0.950 . S
C4368 C4364 1.385 . S
C4368 C4367 1.374 . S
C4369 C4366 1.499 . S
C4369 C4370 1.373 . S
C4369 C4371 1.389 . S
C4370 H4343 0.950 . S
C4370 C4356 1.377 . S
C4370 C4369 1.373 . S
C4371 C4355 1.377 . S
C4371 C4369 1.389 . S
C4371 C4372 1.524 . S
C4372 C4371 1.524 . S
C4372 C4373 1.397 . S
C4372 C4377 1.363 . S
C4373 H4344 0.950 . S
C4373 C4372 1.397 . S
C4373 C4374 1.334 . S
C4374 H4345 0.950 . S
C4374 C4373 1.334 . S
C4374 C4375 1.287 . S
C4375 C4374 1.287 . S
C4375 C4376 1.524 . S
C4375 H4378 0.999 . S
C4376 H4346 0.950 . S
C4376 C4375 1.524 . S
C4376 C4377 1.415 . S
C4377 H4347 0.950 . S
C4377 C4372 1.363 . S
C4377 C4376 1.415 . S
H4378 C4375 0.999 . S
H4379 C4360 0.913 . S
H4380 C4398 0.951 . S
H4381 C4400 0.951 . S
H4382 C4402 0.950 . S
H4383 C4403 0.950 . S
H4384 C4405 0.950 . S
H4385 C4408 0.950 . S
H4386 C4409 0.950 . S
H4387 C4411 0.950 . S
H4388 C4412 0.950 . S
H4389 C4413 0.951 . S
H4390 C4415 0.951 . S
H4391 C4417 0.950 . S
H4392 C4418 0.950 . S
H4393 C4420 0.950 . S
H4394 C4423 0.950 . S
H4395 C4424 0.950 . S
H4396 C4426 0.950 . S
H4397 C4427 0.950 . S
C4398 H4380 0.951 . S
C4398 C4399 1.366 . S
C4398 C4400 1.388 . S
C4399 C4398 1.366 . S
C4399 C4403 1.385 . S
C4400 H4381 0.951 . S
C4400 C4398 1.388 . S
C4400 C4401 1.366 . S
C4401 C4400 1.366 . S
C4401 C4402 1.414 . S
C4401 C4404 1.499 . S
C4402 H4382 0.950 . S
C4402 C4401 1.414 . S
C4402 C4403 1.374 . S
C4403 H4383 0.950 . S
C4403 C4399 1.385 . S
C4403 C4402 1.374 . S
C4404 C4401 1.499 . S
C4404 C4405 1.373 . S
C4404 C4406 1.389 . S
C4405 H4384 0.950 . S
C4405 C4404 1.373 . S
C4405 C4421 1.377 . S
C4406 C4404 1.389 . S
C4406 C4407 1.524 . S
C4406 C4420 1.377 . S
C4407 C4406 1.524 . S
C4407 C4408 1.397 . S
C4407 C4412 1.363 . S
C4408 H4385 0.950 . S
C4408 C4407 1.397 . S
C4408 C4409 1.334 . S
C4409 H4386 0.950 . S
C4409 C4408 1.334 . S
C4409 C4410 1.287 . S
C4410 C4409 1.287 . S
C4410 C4411 1.524 . S
C4410 H4429 0.913 . S
C4411 H4387 0.950 . S
C4411 C4410 1.524 . S
C4411 C4412 1.415 . S
C4412 H4388 0.950 . S
C4412 C4407 1.363 . S
C4412 C4411 1.415 . S
C4413 H4389 0.951 . S
C4413 C4414 1.366 . S
C4413 C4415 1.388 . S
C4414 C4413 1.366 . S
C4414 C4418 1.385 . S
C4415 H4390 0.951 . S
C4415 C4413 1.388 . S
C4415 C4416 1.366 . S
C4416 C4415 1.366 . S
C4416 C4417 1.414 . S
C4416 C4419 1.499 . S
C4417 H4391 0.950 . S
C4417 C4416 1.414 . S
C4417 C4418 1.374 . S
C4418 H4392 0.950 . S
C4418 C4414 1.385 . S
C4418 C4417 1.374 . S
C4419 C4416 1.499 . S
C4419 C4420 1.373 . S
C4419 C4421 1.389 . S
C4420 H4393 0.950 . S
C4420 C4406 1.377 . S
C4420 C4419 1.373 . S
C4421 C4405 1.377 . S
C4421 C4419 1.389 . S
C4421 C4422 1.524 . S
C4422 C4421 1.524 . S
C4422 C4423 1.397 . S
C4422 C4427 1.363 . S
C4423 H4394 0.950 . S
C4423 C4422 1.397 . S
C4423 C4424 1.334 . S
C4424 H4395 0.950 . S
C4424 C4423 1.334 . S
C4424 C4425 1.287 . S
C4425 C4424 1.287 . S
C4425 C4426 1.524 . S
C4425 H4428 0.999 . S
C4426 H4396 0.950 . S
C4426 C4425 1.524 . S
C4426 C4427 1.415 . S
C4427 H4397 0.950 . S
C4427 C4422 1.363 . S
C4427 C4426 1.415 . S
H4428 C4425 0.999 . S
H4429 C4410 0.913 . S
H4430 C4448 0.951 . S
H4431 C4450 0.951 . S
H4432 C4452 0.950 . S
H4433 C4453 0.950 . S
H4434 C4455 0.950 . S
H4435 C4458 0.950 . S
H4436 C4459 0.950 . S
H4437 C4461 0.950 . S
H4438 C4462 0.950 . S
H4439 C4463 0.951 . S
H4440 C4465 0.951 . S
H4441 C4467 0.950 . S
H4442 C4468 0.950 . S
H4443 C4470 0.950 . S
H4444 C4473 0.950 . S
H4445 C4474 0.950 . S
H4446 C4476 0.950 . S
H4447 C4477 0.950 . S
C4448 H4430 0.951 . S
C4448 C4449 1.366 . S
C4448 C4450 1.388 . S
C4449 C4448 1.366 . S
C4449 C4453 1.385 . S
C4450 H4431 0.951 . S
C4450 C4448 1.388 . S
C4450 C4451 1.366 . S
C4451 C4450 1.366 . S
C4451 C4452 1.414 . S
C4451 C4454 1.499 . S
C4452 H4432 0.950 . S
C4452 C4451 1.414 . S
C4452 C4453 1.374 . S
C4453 H4433 0.950 . S
C4453 C4449 1.385 . S
C4453 C4452 1.374 . S
C4454 C4451 1.499 . S
C4454 C4455 1.373 . S
C4454 C4456 1.389 . S
C4455 H4434 0.950 . S
C4455 C4454 1.373 . S
C4455 C4471 1.377 . S
C4456 C4454 1.389 . S
C4456 C4457 1.524 . S
C4456 C4470 1.377 . S
C4457 C4456 1.524 . S
C4457 C4458 1.397 . S
C4457 C4462 1.363 . S
C4458 H4435 0.950 . S
C4458 C4457 1.397 . S
C4458 C4459 1.334 . S
C4459 H4436 0.950 . S
C4459 C4458 1.334 . S
C4459 C4460 1.287 . S
C4460 C4459 1.287 . S
C4460 C4461 1.524 . S
C4460 H4479 0.913 . S
C4461 H4437 0.950 . S
C4461 C4460 1.524 . S
C4461 C4462 1.415 . S
C4462 H4438 0.950 . S
C4462 C4457 1.363 . S
C4462 C4461 1.415 . S
C4463 H4439 0.951 . S
C4463 C4464 1.366 . S
C4463 C4465 1.388 . S
C4464 C4463 1.366 . S
C4464 C4468 1.385 . S
C4465 H4440 0.951 . S
C4465 C4463 1.388 . S
C4465 C4466 1.366 . S
C4466 C4465 1.366 . S
C4466 C4467 1.414 . S
C4466 C4469 1.499 . S
C4467 H4441 0.950 . S
C4467 C4466 1.414 . S
C4467 C4468 1.374 . S
C4468 H4442 0.950 . S
C4468 C4464 1.385 . S
C4468 C4467 1.374 . S
C4469 C4466 1.499 . S
C4469 C4470 1.373 . S
C4469 C4471 1.389 . S
C4470 H4443 0.950 . S
C4470 C4456 1.377 . S
C4470 C4469 1.373 . S
C4471 C4455 1.377 . S
C4471 C4469 1.389 . S
C4471 C4472 1.524 . S
C4472 C4471 1.524 . S
C4472 C4473 1.397 . S
C4472 C4477 1.363 . S
C4473 H4444 0.950 . S
C4473 C4472 1.397 . S
C4473 C4474 1.334 . S
C4474 H4445 0.950 . S
C4474 C4473 1.334 . S
C4474 C4475 1.287 . S
C4475 C4474 1.287 . S
C4475 C4476 1.524 . S
C4475 H4478 0.999 . S
C4476 H4446 0.950 . S
C4476 C4475 1.524 . S
C4476 C4477 1.415 . S
C4477 H4447 0.950 . S
C4477 C4472 1.363 . S
C4477 C4476 1.415 . S
H4478 C4475 0.999 . S
H4479 C4460 0.913 . S
H4480 C4498 0.951 . S
H4481 C4500 0.951 . S
H4482 C4502 0.950 . S
H4483 C4503 0.950 . S
H4484 C4505 0.950 . S
H4485 C4508 0.950 . S
H4486 C4509 0.950 . S
H4487 C4511 0.950 . S
H4488 C4512 0.950 . S
H4489 C4513 0.951 . S
H4490 C4515 0.951 . S
H4491 C4517 0.950 . S
H4492 C4518 0.950 . S
H4493 C4520 0.950 . S
H4494 C4523 0.950 . S
H4495 C4524 0.950 . S
H4496 C4526 0.950 . S
H4497 C4527 0.950 . S
C4498 H4480 0.951 . S
C4498 C4499 1.366 . S
C4498 C4500 1.388 . S
C4499 C4498 1.366 . S
C4499 C4503 1.385 . S
C4500 H4481 0.951 . S
C4500 C4498 1.388 . S
C4500 C4501 1.366 . S
C4501 C4500 1.366 . S
C4501 C4502 1.414 . S
C4501 C4504 1.499 . S
C4502 H4482 0.950 . S
C4502 C4501 1.414 . S
C4502 C4503 1.374 . S
C4503 H4483 0.950 . S
C4503 C4499 1.385 . S
C4503 C4502 1.374 . S
C4504 C4501 1.499 . S
C4504 C4505 1.373 . S
C4504 C4506 1.389 . S
C4505 H4484 0.950 . S
C4505 C4504 1.373 . S
C4505 C4521 1.377 . S
C4506 C4504 1.389 . S
C4506 C4507 1.524 . S
C4506 C4520 1.377 . S
C4507 C4506 1.524 . S
C4507 C4508 1.397 . S
C4507 C4512 1.363 . S
C4508 H4485 0.950 . S
C4508 C4507 1.397 . S
C4508 C4509 1.334 . S
C4509 H4486 0.950 . S
C4509 C4508 1.334 . S
C4509 C4510 1.287 . S
C4510 C4509 1.287 . S
C4510 C4511 1.524 . S
C4510 H4529 0.913 . S
C4511 H4487 0.950 . S
C4511 C4510 1.524 . S
C4511 C4512 1.415 . S
C4512 H4488 0.950 . S
C4512 C4507 1.363 . S
C4512 C4511 1.415 . S
C4513 H4489 0.951 . S
C4513 C4514 1.366 . S
C4513 C4515 1.388 . S
C4514 C4513 1.366 . S
C4514 C4518 1.385 . S
C4515 H4490 0.951 . S
C4515 C4513 1.388 . S
C4515 C4516 1.366 . S
C4516 C4515 1.366 . S
C4516 C4517 1.414 . S
C4516 C4519 1.499 . S
C4517 H4491 0.950 . S
C4517 C4516 1.414 . S
C4517 C4518 1.374 . S
C4518 H4492 0.950 . S
C4518 C4514 1.385 . S
C4518 C4517 1.374 . S
C4519 C4516 1.499 . S
C4519 C4520 1.373 . S
C4519 C4521 1.389 . S
C4520 H4493 0.950 . S
C4520 C4506 1.377 . S
C4520 C4519 1.373 . S
C4521 C4505 1.377 . S
C4521 C4519 1.389 . S
C4521 C4522 1.524 . S
C4522 C4521 1.524 . S
C4522 C4523 1.397 . S
C4522 C4527 1.363 . S
C4523 H4494 0.950 . S
C4523 C4522 1.397 . S
C4523 C4524 1.334 . S
C4524 H4495 0.950 . S
C4524 C4523 1.334 . S
C4524 C4525 1.287 . S
C4525 C4524 1.287 . S
C4525 C4526 1.524 . S
C4525 H4528 0.999 . S
C4526 H4496 0.950 . S
C4526 C4525 1.524 . S
C4526 C4527 1.415 . S
C4527 H4497 0.950 . S
C4527 C4522 1.363 . S
C4527 C4526 1.415 . S
H4528 C4525 0.999 . S
H4529 C4510 0.913 . S
H4530 C4548 0.951 . S
H4531 C4550 0.951 . S
H4532 C4552 0.972 . S
H4533 C4553 0.950 . S
H4534 C4555 0.950 . S
H4535 C4558 0.950 . S
H4536 C4559 0.950 . S
H4537 C4561 0.950 . S
H4538 C4562 0.950 . S
H4539 C4563 0.961 . S
H4540 C4565 0.946 . S
H4541 C4567 0.950 . S
H4542 C4568 0.950 . S
H4543 C4570 0.950 . S
H4544 C4573 0.950 . S
H4545 C4574 0.950 . S
H4546 C4576 0.950 . S
H4547 C4577 0.950 . S
C4548 H4530 0.951 . S
C4548 C4549 1.366 . S
C4548 C4550 1.388 . S
C4549 C4548 1.366 . S
C4549 C4553 1.385 . S
C4550 H4531 0.951 . S
C4550 C4548 1.388 . S
C4550 C4551 1.366 . S
C4551 C4550 1.366 . S
C4551 C4552 1.414 . S
C4551 C4554 1.499 . S
C4552 H4532 0.972 . S
C4552 C4551 1.414 . S
C4552 C4553 1.374 . S
C4553 H4533 0.950 . S
C4553 C4549 1.385 . S
C4553 C4552 1.374 . S
C4554 C4551 1.499 . S
C4554 C4555 1.373 1_655 S
C4554 C4556 1.389 . S
C4555 H4534 0.950 . S
C4555 C4554 1.373 1_455 S
C4555 C4571 1.377 . S
C4556 C4554 1.389 . S
C4556 C4557 1.524 . S
C4556 C4570 1.377 . S
C4557 C4556 1.524 . S
C4557 C4558 1.397 . S
C4557 C4562 1.363 . S
C4558 H4535 0.950 . S
C4558 C4557 1.397 . S
C4558 C4559 1.334 . S
C4559 H4536 0.950 . S
C4559 C4558 1.334 . S
C4559 C4560 1.287 . S
C4560 C4559 1.287 . S
C4560 C4561 1.524 . S
C4560 H4579 0.913 . S
C4561 H4537 0.950 . S
C4561 C4560 1.524 . S
C4561 C4562 1.415 . S
C4562 H4538 0.950 . S
C4562 C4557 1.363 . S
C4562 C4561 1.415 . S
C4563 H4539 0.961 . S
C4563 C4564 1.379 1_455 S
C4563 C4565 1.374 . S
C4564 C4563 1.379 1_655 S
C4564 C4568 1.385 . S
C4565 H4540 0.946 . S
C4565 C4563 1.374 . S
C4565 C4566 1.363 1_455 S
C4566 C4565 1.363 1_655 S
C4566 C4567 1.414 . S
C4566 C4569 1.499 . S
C4567 H4541 0.950 . S
C4567 C4566 1.414 . S
C4567 C4568 1.374 . S
C4568 H4542 0.950 . S
C4568 C4564 1.385 . S
C4568 C4567 1.374 . S
C4569 C4566 1.499 . S
C4569 C4570 1.373 . S
C4569 C4571 1.389 1_655 S
C4570 H4543 0.950 . S
C4570 C4556 1.377 . S
C4570 C4569 1.373 . S
C4571 C4555 1.377 . S
C4571 C4569 1.389 1_455 S
C4571 C4572 1.524 . S
C4572 C4571 1.524 . S
C4572 C4573 1.397 . S
C4572 C4577 1.363 . S
C4573 H4544 0.950 . S
C4573 C4572 1.397 . S
C4573 C4574 1.334 . S
C4574 H4545 0.950 . S
C4574 C4573 1.334 . S
C4574 C4575 1.287 . S
C4575 C4574 1.287 . S
C4575 C4576 1.524 . S
C4575 H4578 0.999 . S
C4576 H4546 0.950 . S
C4576 C4575 1.524 . S
C4576 C4577 1.415 . S
C4577 H4547 0.950 . S
C4577 C4572 1.363 . S
C4577 C4576 1.415 . S
H4578 C4575 0.999 . S
H4579 C4560 0.913 . S
H4580 C4598 0.951 . S
H4581 C4600 0.951 . S
H4582 C4602 0.950 . S
H4583 C4603 0.950 . S
H4584 C4605 0.950 . S
H4585 C4608 0.950 . S
H4586 C4609 0.950 . S
H4587 C4611 0.950 . S
H4588 C4612 0.950 . S
H4589 C4613 0.951 . S
H4590 C4615 0.951 . S
H4591 C4617 0.950 . S
H4592 C4618 0.950 . S
H4593 C4620 0.950 . S
H4594 C4623 0.950 . S
H4595 C4624 0.950 . S
H4596 C4626 0.950 . S
H4597 C4627 0.950 . S
C4598 H4580 0.951 . S
C4598 C4599 1.366 . S
C4598 C4600 1.388 . S
C4599 C4598 1.366 . S
C4599 C4603 1.385 . S
C4600 H4581 0.951 . S
C4600 C4598 1.388 . S
C4600 C4601 1.366 . S
C4601 C4600 1.366 . S
C4601 C4602 1.414 . S
C4601 C4604 1.499 . S
C4602 H4582 0.950 . S
C4602 C4601 1.414 . S
C4602 C4603 1.374 . S
C4603 H4583 0.950 . S
C4603 C4599 1.385 . S
C4603 C4602 1.374 . S
C4604 C4601 1.499 . S
C4604 C4605 1.373 . S
C4604 C4606 1.389 . S
C4605 H4584 0.950 . S
C4605 C4604 1.373 . S
C4605 C4621 1.377 . S
C4606 C4604 1.389 . S
C4606 C4607 1.524 . S
C4606 C4620 1.377 . S
C4607 C4606 1.524 . S
C4607 C4608 1.397 . S
C4607 C4612 1.363 . S
C4608 H4585 0.950 . S
C4608 C4607 1.397 . S
C4608 C4609 1.334 . S
C4609 H4586 0.950 . S
C4609 C4608 1.334 . S
C4609 C4610 1.287 . S
C4610 C4609 1.287 . S
C4610 C4611 1.524 . S
C4610 H4629 0.913 . S
C4611 H4587 0.950 . S
C4611 C4610 1.524 . S
C4611 C4612 1.415 . S
C4612 H4588 0.950 . S
C4612 C4607 1.363 . S
C4612 C4611 1.415 . S
C4613 H4589 0.951 . S
C4613 C4614 1.366 . S
C4613 C4615 1.388 . S
C4614 C4613 1.366 . S
C4614 C4618 1.385 . S
C4615 H4590 0.951 . S
C4615 C4613 1.388 . S
C4615 C4616 1.366 . S
C4616 C4615 1.366 . S
C4616 C4617 1.414 . S
C4616 C4619 1.499 . S
C4617 H4591 0.950 . S
C4617 C4616 1.414 . S
C4617 C4618 1.374 . S
C4618 H4592 0.950 . S
C4618 C4614 1.385 . S
C4618 C4617 1.374 . S
C4619 C4616 1.499 . S
C4619 C4620 1.373 . S
C4619 C4621 1.389 . S
C4620 H4593 0.950 . S
C4620 C4606 1.377 . S
C4620 C4619 1.373 . S
C4621 C4605 1.377 . S
C4621 C4619 1.389 . S
C4621 C4622 1.524 . S
C4622 C4621 1.524 . S
C4622 C4623 1.397 . S
C4622 C4627 1.363 . S
C4623 H4594 0.950 . S
C4623 C4622 1.397 . S
C4623 C4624 1.334 . S
C4624 H4595 0.950 . S
C4624 C4623 1.334 . S
C4624 C4625 1.287 . S
C4625 C4624 1.287 . S
C4625 C4626 1.524 . S
C4625 H4628 0.999 . S
C4626 H4596 0.950 . S
C4626 C4625 1.524 . S
C4626 C4627 1.415 . S
C4627 H4597 0.950 . S
C4627 C4622 1.363 . S
C4627 C4626 1.415 . S
H4628 C4625 0.999 . S
H4629 C4610 0.913 . S
H4630 C4648 0.951 . S
H4631 C4650 0.951 . S
H4632 C4652 0.951 1_565 S
H4633 C4653 0.950 1_565 S
H4634 C4655 0.950 . S
H4635 C4658 0.950 . S
H4636 C4659 0.950 . S
H4637 C4661 0.950 . S
H4638 C4662 0.950 . S
H4639 C4663 0.951 . S
H4640 C4665 0.951 . S
H4641 C4667 0.950 . S
H4642 C4668 0.950 . S
H4643 C4670 0.935 1_565 S
H4644 C4673 0.950 . S
H4645 C4674 0.950 . S
H4646 C4676 0.950 . S
H4647 C4677 0.950 . S
C4648 H4630 0.951 . S
C4648 C4649 1.366 . S
C4648 C4650 1.388 . S
C4649 C4648 1.366 . S
C4649 C4653 1.385 . S
C4650 H4631 0.951 . S
C4650 C4648 1.388 . S
C4650 C4651 1.366 . S
C4651 C4650 1.366 . S
C4651 C4652 1.421 . S
C4651 C4654 1.499 . S
C4652 H4632 0.951 1_545 S
C4652 C4651 1.421 . S
C4652 C4653 1.367 . S
C4653 H4633 0.950 1_545 S
C4653 C4649 1.385 . S
C4653 C4652 1.367 . S
C4654 C4651 1.499 . S
C4654 C4655 1.373 . S
C4654 C4656 1.389 . S
C4655 H4634 0.950 . S
C4655 C4654 1.373 . S
C4655 C4671 1.377 . S
C4656 C4654 1.389 . S
C4656 C4657 1.524 1_545 S
C4656 C4670 1.377 . S
C4657 C4656 1.524 1_565 S
C4657 C4658 1.397 . S
C4657 C4662 1.363 1_565 S
C4658 H4635 0.950 . S
C4658 C4657 1.397 . S
C4658 C4659 1.334 . S
C4659 H4636 0.950 . S
C4659 C4658 1.334 . S
C4659 C4660 1.287 . S
C4660 C4659 1.287 . S
C4660 C4661 1.524 . S
C4660 H4679 0.913 . S
C4661 H4637 0.950 . S
C4661 C4660 1.524 . S
C4661 C4662 1.415 1_565 S
C4662 H4638 0.950 . S
C4662 C4657 1.363 1_545 S
C4662 C4661 1.415 1_545 S
C4663 H4639 0.951 . S
C4663 C4664 1.366 1_565 S
C4663 C4665 1.388 . S
C4664 C4663 1.366 1_545 S
C4664 C4668 1.385 . S
C4665 H4640 0.951 . S
C4665 C4663 1.388 . S
C4665 C4666 1.366 1_565 S
C4666 C4665 1.366 1_545 S
C4666 C4667 1.414 . S
C4666 C4669 1.499 . S
C4667 H4641 0.950 . S
C4667 C4666 1.414 . S
C4667 C4668 1.374 . S
C4668 H4642 0.950 . S
C4668 C4664 1.385 . S
C4668 C4667 1.374 . S
C4669 C4666 1.499 . S
C4669 C4670 1.373 . S
C4669 C4671 1.389 . S
C4670 H4643 0.935 1_545 S
C4670 C4656 1.377 . S
C4670 C4669 1.373 . S
C4671 C4655 1.377 . S
C4671 C4669 1.389 . S
C4671 C4672 1.524 . S
C4672 C4671 1.524 . S
C4672 C4673 1.397 . S
C4672 C4677 1.363 . S
C4673 H4644 0.950 . S
C4673 C4672 1.397 . S
C4673 C4674 1.334 . S
C4674 H4645 0.950 . S
C4674 C4673 1.334 . S
C4674 C4675 1.287 . S
C4675 C4674 1.287 . S
C4675 C4676 1.524 . S
C4675 H4678 0.999 . S
C4676 H4646 0.950 . S
C4676 C4675 1.524 . S
C4676 C4677 1.415 . S
C4677 H4647 0.950 . S
C4677 C4672 1.363 . S
C4677 C4676 1.415 . S
H4678 C4675 0.999 . S
H4679 C4660 0.913 . S
C1099 C8 1.442 1_655 S
C1114 C688 1.471 . S
C1149 C22 1.554 . S
C1164 C734 1.561 . S
C1214 C766 1.483 . S
C1199 C37 1.459 1_545 S
C1249 C36 1.440 1_565 S
C1264 C819 1.471 . S
C1299 C9 1.456 1_455 S
C1314 C865 1.487 . S
C1349 C23 1.554 . S
C1364 C904 1.567 . S
C1399 C50 1.439 1_455 S
C1414 C858 1.461 . S
C1464 C911 1.566 . S
C1449 C64 1.553 . S
C1514 C812 1.490 . S
C1499 C79 1.461 1_565 S
C1549 C78 1.439 1_545 S
C1564 C773 1.461 . S
C1614 C667 1.490 . S
C1599 C51 1.461 1_655 S
C1649 C65 1.553 . S
C1664 C713 1.559 . S
C1699 C92 1.618 . S
C1714 C943 1.630 . S
C1749 C106 1.624 . S
C1764 C1010 1.625 . S
C1814 C1056 1.586 . S
C1799 C121 1.585 . S
C1849 C120 1.528 . S
C1864 C267 1.534 . S
C1899 C93 1.571 . S
C1914 C313 1.578 . S
C1949 C107 1.576 . S
C1964 C359 1.580 . S
C1999 C134 1.526 . S
C2014 C306 1.532 . S
C2049 C148 1.579 . S
C2064 C352 1.582 . S
C2114 C260 1.577 . S
C2099 C163 1.571 . S
C2164 C1035 1.626 . S
C2149 C162 1.621 . S
C2214 C964 1.589 . S
C2199 C135 1.580 . S
C2264 C989 1.625 . S
C2249 C149 1.625 . S
C2299 C176 1.529 . S
C2314 C391 1.541 . S
C2349 C190 1.577 . S
C2364 C444 1.588 . S
C2399 C205 1.572 . S
C2414 C490 1.584 . S
C2449 C204 1.618 . S
C2464 C536 1.630 . S
C2514 C589 1.586 . S
C2499 C177 1.584 . S
C2564 C635 1.625 . S
C2549 C191 1.624 . S
C2614 C582 1.626 . S
C2599 C218 1.621 . S
C2664 C628 1.626 . S
C2649 C232 1.625 . S
C2699 C247 1.580 . S
C2714 C543 1.589 . S
C2764 C497 1.539 . S
C2749 C246 1.526 . S
C2799 C219 1.571 . S
C2814 C412 1.584 . S
C2864 C451 1.590 . S
C2849 C233 1.580 . S
C2914 C274 1.568 . S
C2899 C6 1.551 . S
C2949 C20 1.484 . S
C2964 C320 1.504 . S
C3014 C366 1.569 . S
C2999 C35 1.554 . S
C3064 C398 1.561 . S
C3049 C34 1.551 . S
C3114 C437 1.562 . S
C3099 C7 1.554 . S
C3164 C483 1.498 . S
C3149 C21 1.485 . S
C3199 C48 1.556 . S
C3214 C504 1.576 . S
C3249 C62 1.484 . S
C3264 C405 1.497 . S
C3299 C77 1.550 . S
C3314 C458 1.553 . S
C3349 C76 1.557 . S
C3364 C299 1.583 . S
C3414 C345 1.564 . S
C3399 C49 1.549 . S
C3449 C63 1.484 . S
C3464 C253 1.503 . S
C3514 C529 1.539 . S
C3499 C90 1.523 . S
C3549 C104 1.584 . S
C3564 C596 1.612 . S
C3599 C119 1.585 . S
C3614 C642 1.612 . S
C3664 C681 1.481 . S
C3649 C118 1.435 . S
C3699 C91 1.535 . S
C3714 C727 1.558 . S
C3749 C105 1.443 . S
C3764 C759 1.486 . S
C3799 C132 1.436 . S
C3814 C780 1.471 . S
C3849 C146 1.445 . S
C3864 C674 1.489 . S
C3914 C720 1.560 . S
C3899 C161 1.537 . S
C3949 C160 1.528 . S
C3964 C575 1.550 . S
C3999 C133 1.583 . S
C4014 C621 1.609 . S
C4064 C550 1.604 . S
C4049 C147 1.582 . S
C4114 C826 1.481 . S
C4099 C174 1.435 . S
C4149 C188 1.443 . S
C4164 C872 1.487 . S
C4199 C203 1.535 . S
C4214 C897 1.551 . S
C4264 C950 1.539 . S
C4249 C202 1.523 . S
C4314 C1003 1.612 . S
C4299 C175 1.586 . S
C4349 C189 1.585 . S
C4364 C1049 1.613 . S
C4399 C216 1.528 . S
C4414 C1042 1.551 . S
C4449 C230 1.583 . S
C4464 C957 1.604 . S
C4514 C996 1.609 . S
C4499 C245 1.583 . S
C4564 C851 1.476 . S
C4549 C244 1.430 . S
C4614 C918 1.554 . S
C4599 C217 1.537 . S
C4649 C231 1.445 . S
C4664 C805 1.489 . S
