# Generated by pormake.
# Topology ctn, (3,4)-cn, num edge types: 1
# Building blocks:
#     Node 0, Type 0, BuildingBlock: BELTOD_clean_linker_0, # of connection points: 3
#     Node 1, Type 0, BuildingBlock: BELTOD_clean_linker_0, # of connection points: 3
#     Node 2, Type 0, BuildingBlock: BELTOD_clean_linker_0, # of connection points: 3
#     Node 3, Type 0, BuildingBlock: BELTOD_clean_linker_0, # of connection points: 3
#     Node 4, Type 0, BuildingBlock: BELTOD_clean_linker_0, # of connection points: 3
#     Node 5, Type 0, BuildingBlock: BELTOD_clean_linker_0, # of connection points: 3
#     Node 6, Type 0, BuildingBlock: BELTOD_clean_linker_0, # of connection points: 3
#     Node 7, Type 0, BuildingBlock: BELTOD_clean_linker_0, # of connection points: 3
#     Node 8, Type 0, BuildingBlock: BELTOD_clean_linker_0, # of connection points: 3
#     Node 9, Type 0, BuildingBlock: BELTOD_clean_linker_0, # of connection points: 3
#     Node 10, Type 0, BuildingBlock: BELTOD_clean_linker_0, # of connection points: 3
#     Node 11, Type 0, BuildingBlock: BELTOD_clean_linker_0, # of connection points: 3
#     Node 12, Type 0, BuildingBlock: BELTOD_clean_linker_0, # of connection points: 3
#     Node 13, Type 0, BuildingBlock: BELTOD_clean_linker_0, # of connection points: 3
#     Node 14, Type 0, BuildingBlock: BELTOD_clean_linker_0, # of connection points: 3
#     Node 15, Type 0, BuildingBlock: BELTOD_clean_linker_0, # of connection points: 3
#     Node 16, Type 1, BuildingBlock: KUFVIS_clean_sbu_0, # of connection points: 4
#     Node 17, Type 1, BuildingBlock: KUFVIS_clean_sbu_0, # of connection points: 4
#     Node 18, Type 1, BuildingBlock: KUFVIS_clean_sbu_0, # of connection points: 4
#     Node 19, Type 1, BuildingBlock: KUFVIS_clean_sbu_0, # of connection points: 4
#     Node 20, Type 1, BuildingBlock: KUFVIS_clean_sbu_0, # of connection points: 4
#     Node 21, Type 1, BuildingBlock: KUFVIS_clean_sbu_0, # of connection points: 4
#     Node 22, Type 1, BuildingBlock: KUFVIS_clean_sbu_0, # of connection points: 4
#     Node 23, Type 1, BuildingBlock: KUFVIS_clean_sbu_0, # of connection points: 4
#     Node 24, Type 1, BuildingBlock: KUFVIS_clean_sbu_0, # of connection points: 4
#     Node 25, Type 1, BuildingBlock: KUFVIS_clean_sbu_0, # of connection points: 4
#     Node 26, Type 1, BuildingBlock: KUFVIS_clean_sbu_0, # of connection points: 4
#     Node 27, Type 1, BuildingBlock: KUFVIS_clean_sbu_0, # of connection points: 4
#     Edge 28, Type (0, 1), None
#     Edge 29, Type (0, 1), None
#     Edge 30, Type (0, 1), None
#     Edge 31, Type (0, 1), None
#     Edge 32, Type (0, 1), None
#     Edge 33, Type (0, 1), None
#     Edge 34, Type (0, 1), None
#     Edge 35, Type (0, 1), None
#     Edge 36, Type (0, 1), None
#     Edge 37, Type (0, 1), None
#     Edge 38, Type (0, 1), None
#     Edge 39, Type (0, 1), None
#     Edge 40, Type (0, 1), None
#     Edge 41, Type (0, 1), None
#     Edge 42, Type (0, 1), None
#     Edge 43, Type (0, 1), None
#     Edge 44, Type (0, 1), None
#     Edge 45, Type (0, 1), None
#     Edge 46, Type (0, 1), None
#     Edge 47, Type (0, 1), None
#     Edge 48, Type (0, 1), None
#     Edge 49, Type (0, 1), None
#     Edge 50, Type (0, 1), None
#     Edge 51, Type (0, 1), None
#     Edge 52, Type (0, 1), None
#     Edge 53, Type (0, 1), None
#     Edge 54, Type (0, 1), None
#     Edge 55, Type (0, 1), None
#     Edge 56, Type (0, 1), None
#     Edge 57, Type (0, 1), None
#     Edge 58, Type (0, 1), None
#     Edge 59, Type (0, 1), None
#     Edge 60, Type (0, 1), None
#     Edge 61, Type (0, 1), None
#     Edge 62, Type (0, 1), None
#     Edge 63, Type (0, 1), None
#     Edge 64, Type (0, 1), None
#     Edge 65, Type (0, 1), None
#     Edge 66, Type (0, 1), None
#     Edge 67, Type (0, 1), None
#     Edge 68, Type (0, 1), None
#     Edge 69, Type (0, 1), None
#     Edge 70, Type (0, 1), None
#     Edge 71, Type (0, 1), None
#     Edge 72, Type (0, 1), None
#     Edge 73, Type (0, 1), None
#     Edge 74, Type (0, 1), None
#     Edge 75, Type (0, 1), None
# Relax obj value: 0.013
# Max RMSD: 0.066
# Mean RMSD: 0.034
data_MOF--net-ctn--node1-KUFVIS_clean_sbu_0--node2-BELTOD_clean_linker_0--edge1-none
_symmetry_space_group_name_H-M    P1
_symmetry_Int_Tables_number       1
_symmetry_cell_setting            triclinic
loop_
_symmetry_equiv_pos_as_xyz
'x, y, z'
_cell_length_a     30.890641
_cell_length_b     31.124083
_cell_length_c     30.941554
_cell_angle_alpha  90.624463
_cell_angle_beta   90.302107
_cell_angle_gamma 93.066364
loop_
_atom_site_label
_atom_site_type_symbol
_atom_site_fract_x
_atom_site_fract_y
_atom_site_fract_z
_atom_type_partial_charge
P0 P 0.06885 0.07517 0.07764 0.0
H1 H 0.03588 0.09965 0.16219 0.0
H2 H 0.98376 0.06517 0.21158 0.0
H3 H 0.95926 0.96143 0.11935 0.0
H4 H 0.01043 0.99724 0.06905 0.0
H5 H 0.13153 0.0793 0.00614 0.0
H6 H 0.18096 0.02786 0.97678 0.0
H7 H 0.13762 0.93565 0.07273 0.0
H8 H 0.08786 0.98663 0.10111 0.0
H9 H 0.01859 0.15012 0.0919 0.0
H10 H 0.05954 0.07727 0.98141 0.0
O11 O 0.10185 0.10682 0.10853 0.0
H12 H 0.98813 0.20275 0.04347 0.0
H13 H 0.03245 0.13178 0.93326 0.0
C14 C 0.02806 0.05037 0.11245 0.0
C15 C 0.01924 0.06959 0.1524 0.0
C16 C 0.9893 0.04987 0.18062 0.0
C17 C 0.9679 0.01022 0.16965 0.0
C18 C 0.9758 0.9916 0.129 0.0
C19 C 0.00498 0.01203 0.10025 0.0
C20 C 0.10316 0.03589 0.05371 0.0
C21 C 0.13119 0.04737 0.01966 0.0
C22 C 0.15998 0.01805 0.00324 0.0
C23 C 0.16274 0.97723 0.02185 0.0
C24 C 0.13592 0.9665 0.05711 0.0
C25 C 0.10677 0.9956 0.07302 0.0
C26 C 0.04269 0.11033 0.04052 0.0
C27 C 0.02127 0.14548 0.0573 0.0
C28 C 0.00399 0.17562 0.02969 0.0
C29 C 0.00891 0.17174 0.9848 0.0
C30 C 0.0292 0.13594 0.96788 0.0
C31 C 0.04507 0.10493 0.9955 0.0
P32 P 0.34208 0.68674 0.19021 0.0
H33 H 0.37755 0.72299 0.11033 0.0
H34 H 0.35454 0.78041 0.06377 0.0
H35 H 0.25704 0.81156 0.157 0.0
H36 H 0.27978 0.7533 0.2032 0.0
H37 H 0.39188 0.63313 0.24586 0.0
H38 H 0.4371 0.64864 0.31016 0.0
H39 H 0.40029 0.78036 0.30913 0.0
H40 H 0.35501 0.76485 0.24519 0.0
H41 H 0.28774 0.628 0.13644 0.0
H42 H 0.28646 0.67999 0.26581 0.0
O43 O 0.37282 0.65597 0.15988 0.0
H44 H 0.22462 0.57987 0.1532 0.0
H45 H 0.22421 0.63134 0.28322 0.0
C46 C 0.33009 0.73371 0.16001 0.0
C47 C 0.35159 0.74248 0.12107 0.0
C48 C 0.33842 0.77534 0.09444 0.0
C49 C 0.30384 0.80029 0.10661 0.0
C50 C 0.28388 0.79293 0.14682 0.0
C51 C 0.29676 0.75965 0.17321 0.0
C52 C 0.371 0.69809 0.24013 0.0
C53 C 0.39304 0.66521 0.25988 0.0
C54 C 0.41848 0.6739 0.29676 0.0
C55 C 0.42137 0.71538 0.315 0.0
C56 C 0.39751 0.74775 0.29643 0.0
C57 C 0.37218 0.73908 0.25943 0.0
C58 C 0.2922 0.65655 0.20046 0.0
C59 C 0.2734 0.62952 0.16825 0.0
C60 C 0.23729 0.60237 0.17769 0.0
C61 C 0.21922 0.60263 0.2192 0.0
C62 C 0.23667 0.63158 0.25058 0.0
C63 C 0.27264 0.65877 0.24101 0.0
P64 P 0.99414 0.5063 0.03261 0.0
H65 H 0.04768 0.46575 0.96714 0.0
H66 H 0.04611 0.39347 0.93539 0.0
H67 H 0.93787 0.35574 0.01718 0.0
H68 H 0.93998 0.42815 0.04889 0.0
H69 H 0.96666 0.58867 0.06558 0.0
H70 H 0.89896 0.62569 0.06075 0.0
H71 H 0.84312 0.5216 0.98175 0.0
H72 H 0.91039 0.48385 0.9881 0.0
H73 H 0.0741 0.47508 0.06676 0.0
H74 H 0.95995 0.52989 0.11919 0.0
O75 O 0.02995 0.53722 0.00516 0.0
H76 H 0.10922 0.48154 0.13776 0.0
H77 H 0.99612 0.5391 0.18929 0.0
C78 C 0.993 0.45269 0.00947 0.0
C79 C 0.02359 0.44193 0.97826 0.0
C80 C 0.02304 0.40032 0.96046 0.0
C81 C 0.99182 0.36865 0.97353 0.0
C82 C 0.9623 0.37929 0.0061 0.0
C83 C 0.96315 0.42078 0.02409 0.0
C84 C 0.94311 0.53243 0.02903 0.0
C85 C 0.93954 0.57326 0.04804 0.0
C86 C 0.90091 0.59461 0.04499 0.0
C87 C 0.86553 0.57641 0.02122 0.0
C88 C 0.86973 0.53635 1.00054 0.0
C89 C 0.90814 0.5145 0.00451 0.0
C90 C 0.01494 0.50329 0.08712 0.0
C91 C 0.05632 0.48794 0.09362 0.0
C92 C 0.07628 0.49139 0.13428 0.0
C93 C 0.05546 0.51112 0.16889 0.0
C94 C 0.01295 0.52401 0.16302 0.0
C95 C 0.99251 0.51934 0.12264 0.0
P96 P 0.66598 0.84887 0.17246 0.0
H97 H 0.71949 0.91443 0.12735 0.0
H98 H 0.78531 0.9576 0.14854 0.0
H99 H 0.7901 0.88798 0.26808 0.0
H100 H 0.7258 0.84443 0.24665 0.0
H101 H 0.6105 0.80314 0.10869 0.0
H102 H 0.62157 0.74224 0.06033 0.0
H103 H 0.74805 0.72833 0.11751 0.0
H104 H 0.73612 0.78956 0.16579 0.0
H105 H 0.59313 0.88774 0.21531 0.0
H106 H 0.67368 0.78087 0.2366 0.0
O107 O 0.63711 0.88213 0.14337 0.0
H108 H 0.55123 0.86859 0.27984 0.0
H109 H 0.63302 0.76271 0.30229 0.0
C110 C 0.71712 0.87673 0.18576 0.0
C111 C 0.73517 0.90799 0.15781 0.0
C112 C 0.77274 0.93254 0.1698 0.0
C113 C 0.79319 0.92543 0.20948 0.0
C114 C 0.77579 0.89317 0.23667 0.0
C115 C 0.73847 0.86862 0.22466 0.0
C116 C 0.67311 0.80141 0.13996 0.0
C117 C 0.64051 0.78681 0.11092 0.0
C118 C 0.64689 0.75185 0.08335 0.0
C119 C 0.68595 0.73051 0.08461 0.0
C120 C 0.71761 0.74393 0.11554 0.0
C121 C 0.7111 0.77907 0.14298 0.0
C122 C 0.63616 0.83537 0.22084 0.0
C123 C 0.60205 0.86035 0.23402 0.0
C124 C 0.57833 0.84963 0.27111 0.0
C125 C 0.58912 0.81443 0.29627 0.0
C126 C 0.62434 0.79038 0.28384 0.0
C127 C 0.64733 0.80047 0.24612 0.0
P128 P 0.0723 0.93545 0.46065 0.0
H129 H 0.14141 0.98213 0.41565 0.0
H130 H 0.19175 0.04224 0.43618 0.0
H131 H 0.12752 0.05327 0.55891 0.0
H132 H 0.07519 0.99448 0.53723 0.0
H133 H 0.99287 0.8795 0.47088 0.0
H134 H 0.97082 0.8283 0.52739 0.0
H135 H 0.08098 0.87427 0.60476 0.0
H136 H 0.10356 0.92309 0.54814 0.0
H137 H 0.07727 0.93354 0.36717 0.0
H138 H 0.98376 0.96741 0.46302 0.0
O139 O 0.10579 0.90116 0.43857 0.0
H140 H 0.02488 0.94497 0.30989 0.0
H141 H 0.93077 0.97956 0.40507 0.0
C142 C 0.10532 0.98296 0.47535 0.0
C143 C 0.13776 0.99765 0.44682 0.0
C144 C 0.16653 0.03188 0.45857 0.0
C145 C 0.16331 0.05212 0.49907 0.0
C146 C 0.13057 0.0379 0.52758 0.0
C147 C 0.10086 0.00428 0.51523 0.0
C148 C 0.04882 0.90685 0.50599 0.0
C149 C 0.01127 0.87968 0.50074 0.0
C150 C 0.99877 0.8502 0.53298 0.0
C151 C 0.02396 0.84731 0.5707 0.0
C152 C 0.06046 0.87582 0.57638 0.0
C153 C 0.07319 0.90449 0.54407 0.0
C154 C 0.03389 0.94827 0.41937 0.0
C155 C 0.04544 0.94358 0.37593 0.0
C156 C 0.01555 0.95036 0.34314 0.0
C157 C 0.97377 0.96294 0.35309 0.0
C158 C 0.96288 0.97004 0.39658 0.0
C159 C 0.99288 0.96273 0.42963 0.0
P160 P 0.22608 0.70275 0.82267 0.0
H161 H 0.29168 0.75377 0.87 0.0
H162 H 0.28903 0.80665 0.92782 0.0
H163 H 0.14994 0.78674 0.93367 0.0
H164 H 0.15267 0.73159 0.87615 0.0
H165 H 0.19922 0.61193 0.80157 0.0
H166 H 0.24245 0.54862 0.79723 0.0
H167 H 0.3489 0.61943 0.86052 0.0
H168 H 0.30508 0.68178 0.86722 0.0
H169 H 0.2014 0.74326 0.74318 0.0
H170 H 0.14027 0.65658 0.83509 0.0
O171 O 0.26334 0.72646 0.79065 0.0
H172 H 0.13498 0.74406 0.7024 0.0
H173 H 0.07213 0.65667 0.79318 0.0
C174 C 0.22252 0.73827 0.86875 0.0
C175 C 0.26057 0.7597 0.88412 0.0
C176 C 0.25894 0.79065 0.91667 0.0
C177 C 0.21911 0.80171 0.93396 0.0
C178 C 0.18091 0.7792 0.92009 0.0
C179 C 0.18259 0.74765 0.88738 0.0
C180 C 0.24851 0.6519 0.83514 0.0
C181 C 0.23075 0.61329 0.81696 0.0
C182 C 0.25558 0.57695 0.81443 0.0
C183 C 0.2989 0.57931 0.82866 0.0
C184 C 0.31541 0.61674 0.84978 0.0
C185 C 0.29018 0.65248 0.85357 0.0
C186 C 0.17612 0.69951 0.79203 0.0
C187 C 0.17368 0.72397 0.75455 0.0
C188 C 0.13523 0.72456 0.73118 0.0
C189 C 0.0979 0.70054 0.74453 0.0
C190 C 0.1003 0.67546 0.78199 0.0
C191 C 0.13916 0.67528 0.80583 0.0
P192 P 0.00306 0.51553 0.50877 0.0
H193 H 0.05056 0.45631 0.45478 0.0
H194 H 0.08393 0.46316 0.38341 0.0
H195 H 0.03684 0.59114 0.37322 0.0
H196 H 0.00429 0.58399 0.44452 0.0
H197 H 0.07588 0.56562 0.54766 0.0
H198 H 0.08106 0.63305 0.58991 0.0
H199 H 0.94368 0.64573 0.57356 0.0
H200 H 0.93829 0.57855 0.53191 0.0
H201 H 0.93039 0.53418 0.45188 0.0
H202 H 0.95343 0.45197 0.55987 0.0
O203 O 0.03178 0.48127 0.53675 0.0
H204 H 0.8549 0.50646 0.44847 0.0
H205 H 0.87785 0.42455 0.55728 0.0
C206 C 0.02585 0.52007 0.45533 0.0
C207 C 0.04751 0.48582 0.43707 0.0
C208 C 0.06638 0.48968 0.39609 0.0
C209 C 0.06342 0.52776 0.37239 0.0
C210 C 0.04004 0.5613 0.39035 0.0
C211 C 0.0215 0.55745 0.43135 0.0
C212 C 0.00665 0.5665 0.53727 0.0
C213 C 0.04685 0.58284 0.55327 0.0
C214 C 0.0498 0.62122 0.57738 0.0
C215 C 0.01242 0.64338 0.58633 0.0
C216 C 0.9726 0.62816 0.56851 0.0
C217 C 0.96965 0.58989 0.54433 0.0
C218 C 0.94763 0.49462 0.50569 0.0
C219 C 0.91918 0.51015 0.47487 0.0
C220 C 0.8759 0.49461 0.47331 0.0
C221 C 0.86017 0.46354 0.50288 0.0
C222 C 0.88865 0.44889 0.53441 0.0
C223 C 0.93205 0.46415 0.53558 0.0
P224 P 0.85149 0.85269 0.85466 0.0
H225 H 0.92617 0.87996 0.80113 0.0
H226 H 0.96718 0.84205 0.74595 0.0
H227 H 0.87686 0.73175 0.75645 0.0
H228 H 0.83602 0.76975 0.81013 0.0
H229 H 0.82107 0.93364 0.88914 0.0
H230 H 0.76081 0.97762 0.86884 0.0
H231 H 0.73001 0.89116 0.76161 0.0
H232 H 0.79117 0.8483 0.78114 0.0
H233 H 0.88457 0.79183 0.91719 0.0
H234 H 0.76096 0.82016 0.86179 0.0
O235 O 0.88828 0.88046 0.88497 0.0
H236 H 0.8494 0.73111 0.95626 0.0
H237 H 0.72643 0.76086 0.8993 0.0
C238 C 0.87868 0.82731 0.81053 0.0
C239 C 0.91509 0.84776 0.7911 0.0
C240 C 0.93843 0.82613 0.75957 0.0
C241 C 0.92575 0.78361 0.74737 0.0
C242 C 0.88805 0.76417 0.76562 0.0
C243 C 0.86457 0.78594 0.79649 0.0
C244 C 0.81126 0.8883 0.83603 0.0
C245 C 0.80188 0.92466 0.86075 0.0
C246 C 0.76711 0.94945 0.84947 0.0
C247 C 0.74032 0.93748 0.81403 0.0
C248 C 0.74971 0.90089 0.78945 0.0
C249 C 0.7851 0.87676 0.80013 0.0
C250 C 0.8254 0.81119 0.88714 0.0
C251 C 0.84991 0.7854 0.91384 0.0
C252 C 0.82986 0.75056 0.93586 0.0
C253 C 0.78507 0.74085 0.93093 0.0
C254 C 0.76098 0.76702 0.90406 0.0
C255 C 0.78085 0.80157 0.8825 0.0
P256 P 0.35149 0.35269 0.35466 0.0
H257 H 0.42617 0.37996 0.30112 0.0
H258 H 0.46718 0.34205 0.24595 0.0
H259 H 0.37686 0.23175 0.25645 0.0
H260 H 0.33602 0.26975 0.31013 0.0
H261 H 0.32107 0.43364 0.38914 0.0
H262 H 0.26081 0.47762 0.36884 0.0
H263 H 0.23001 0.39116 0.26161 0.0
H264 H 0.29117 0.3483 0.28114 0.0
H265 H 0.38457 0.29183 0.41719 0.0
H266 H 0.26096 0.32016 0.36179 0.0
O267 O 0.38828 0.38046 0.38497 0.0
H268 H 0.3494 0.23111 0.45626 0.0
H269 H 0.22643 0.26086 0.3993 0.0
C270 C 0.37868 0.32731 0.31052 0.0
C271 C 0.41509 0.34776 0.2911 0.0
C272 C 0.43843 0.32613 0.25957 0.0
C273 C 0.42575 0.28361 0.24737 0.0
C274 C 0.38805 0.26417 0.26562 0.0
C275 C 0.36457 0.28594 0.29649 0.0
C276 C 0.31126 0.3883 0.33603 0.0
C277 C 0.30188 0.42466 0.36075 0.0
C278 C 0.26711 0.44945 0.34947 0.0
C279 C 0.24032 0.43748 0.31403 0.0
C280 C 0.24971 0.40089 0.28945 0.0
C281 C 0.2851 0.37676 0.30013 0.0
C282 C 0.3254 0.31119 0.38714 0.0
C283 C 0.34991 0.2854 0.41384 0.0
C284 C 0.32986 0.25056 0.43586 0.0
C285 C 0.28507 0.24085 0.43093 0.0
C286 C 0.26098 0.26702 0.40406 0.0
C287 C 0.28085 0.30157 0.3825 0.0
P288 P 0.49414 0.0063 0.53261 0.0
H289 H 0.54768 0.96575 0.46714 0.0
H290 H 0.54611 0.89347 0.43539 0.0
H291 H 0.43787 0.85574 0.51718 0.0
H292 H 0.43998 0.92815 0.54889 0.0
H293 H 0.46666 0.08867 0.56558 0.0
H294 H 0.39896 0.12569 0.56075 0.0
H295 H 0.34312 0.0216 0.48175 0.0
H296 H 0.41039 0.98385 0.4881 0.0
H297 H 0.5741 0.97508 0.56676 0.0
H298 H 0.45995 0.02989 0.61919 0.0
O299 O 0.52995 0.03722 0.50516 0.0
H300 H 0.60922 0.98154 0.63776 0.0
H301 H 0.49612 0.0391 0.68929 0.0
C302 C 0.493 0.95269 0.50947 0.0
C303 C 0.52359 0.94193 0.47826 0.0
C304 C 0.52304 0.90032 0.46046 0.0
C305 C 0.49182 0.86865 0.47353 0.0
C306 C 0.4623 0.87929 0.5061 0.0
C307 C 0.46315 0.92078 0.52409 0.0
C308 C 0.44312 0.03243 0.52903 0.0
C309 C 0.43954 0.07326 0.54804 0.0
C310 C 0.40091 0.09461 0.54499 0.0
C311 C 0.36553 0.07641 0.52122 0.0
C312 C 0.36973 0.03635 0.50054 0.0
C313 C 0.40814 0.0145 0.50451 0.0
C314 C 0.51494 0.00329 0.58712 0.0
C315 C 0.55632 0.98794 0.59362 0.0
C316 C 0.57628 0.99139 0.63428 0.0
C317 C 0.55546 0.01112 0.66889 0.0
C318 C 0.51295 0.02401 0.66302 0.0
C319 C 0.49251 0.01934 0.62264 0.0
P320 P 0.16598 0.34887 0.67246 0.0
H321 H 0.21949 0.41443 0.62735 0.0
H322 H 0.28531 0.4576 0.64854 0.0
H323 H 0.2901 0.38798 0.76808 0.0
H324 H 0.2258 0.34443 0.74665 0.0
H325 H 0.1105 0.30314 0.60869 0.0
H326 H 0.12157 0.24224 0.56033 0.0
H327 H 0.24805 0.22833 0.61751 0.0
H328 H 0.23612 0.28956 0.66579 0.0
H329 H 0.09313 0.38774 0.71531 0.0
H330 H 0.17368 0.28087 0.7366 0.0
O331 O 0.13711 0.38213 0.64337 0.0
H332 H 0.05123 0.36859 0.77984 0.0
H333 H 0.13302 0.26271 0.80229 0.0
C334 C 0.21712 0.37673 0.68576 0.0
C335 C 0.23517 0.40799 0.65781 0.0
C336 C 0.27274 0.43254 0.6698 0.0
C337 C 0.29319 0.42543 0.70948 0.0
C338 C 0.27579 0.39317 0.73667 0.0
C339 C 0.23847 0.36862 0.72466 0.0
C340 C 0.17311 0.30141 0.63996 0.0
C341 C 0.14051 0.28681 0.61092 0.0
C342 C 0.14689 0.25185 0.58335 0.0
C343 C 0.18595 0.23051 0.58461 0.0
C344 C 0.21761 0.24393 0.61554 0.0
C345 C 0.2111 0.27907 0.64298 0.0
C346 C 0.13616 0.33537 0.72084 0.0
C347 C 0.10205 0.36035 0.73402 0.0
C348 C 0.07833 0.34963 0.77111 0.0
C349 C 0.08912 0.31443 0.79627 0.0
C350 C 0.12434 0.29038 0.78384 0.0
C351 C 0.14733 0.30047 0.74612 0.0
P352 P 0.84208 0.18674 0.69021 0.0
H353 H 0.87755 0.22299 0.61033 0.0
H354 H 0.85454 0.28041 0.56377 0.0
H355 H 0.75704 0.31156 0.657 0.0
H356 H 0.77978 0.2533 0.7032 0.0
H357 H 0.89188 0.13313 0.74586 0.0
H358 H 0.9371 0.14864 0.81016 0.0
H359 H 0.90029 0.28036 0.80913 0.0
H360 H 0.85501 0.26485 0.74519 0.0
H361 H 0.78774 0.128 0.63644 0.0
H362 H 0.78646 0.17999 0.76581 0.0
O363 O 0.87282 0.15597 0.65988 0.0
H364 H 0.72462 0.07987 0.6532 0.0
H365 H 0.72421 0.13134 0.78322 0.0
C366 C 0.83009 0.23371 0.66001 0.0
C367 C 0.85159 0.24248 0.62107 0.0
C368 C 0.83842 0.27534 0.59444 0.0
C369 C 0.80384 0.30029 0.60661 0.0
C370 C 0.78388 0.29293 0.64682 0.0
C371 C 0.79676 0.25965 0.67321 0.0
C372 C 0.871 0.19809 0.74013 0.0
C373 C 0.89304 0.16521 0.75988 0.0
C374 C 0.91848 0.1739 0.79676 0.0
C375 C 0.92137 0.21538 0.815 0.0
C376 C 0.89751 0.24775 0.79643 0.0
C377 C 0.87218 0.23908 0.75943 0.0
C378 C 0.7922 0.15655 0.70046 0.0
C379 C 0.7734 0.12952 0.66825 0.0
C380 C 0.73729 0.10237 0.67769 0.0
C381 C 0.71922 0.10263 0.7192 0.0
C382 C 0.73667 0.13158 0.75058 0.0
C383 C 0.77264 0.15877 0.74101 0.0
P384 P 0.56885 0.57517 0.57764 0.0
H385 H 0.53588 0.59965 0.66219 0.0
H386 H 0.48376 0.56517 0.71158 0.0
H387 H 0.45926 0.46143 0.61935 0.0
H388 H 0.51043 0.49724 0.56905 0.0
H389 H 0.63153 0.5793 0.50614 0.0
H390 H 0.68096 0.52786 0.47678 0.0
H391 H 0.63762 0.43565 0.57273 0.0
H392 H 0.58786 0.48663 0.60111 0.0
H393 H 0.51859 0.65012 0.5919 0.0
H394 H 0.55954 0.57727 0.48141 0.0
O395 O 0.60185 0.60682 0.60853 0.0
H396 H 0.48813 0.70275 0.54347 0.0
H397 H 0.53245 0.63178 0.43326 0.0
C398 C 0.52806 0.55037 0.61245 0.0
C399 C 0.51924 0.56959 0.6524 0.0
C400 C 0.4893 0.54987 0.68062 0.0
C401 C 0.4679 0.51022 0.66965 0.0
C402 C 0.4758 0.4916 0.629 0.0
C403 C 0.50498 0.51203 0.60025 0.0
C404 C 0.60316 0.53589 0.55371 0.0
C405 C 0.63119 0.54737 0.51966 0.0
C406 C 0.65998 0.51805 0.50324 0.0
C407 C 0.66274 0.47723 0.52185 0.0
C408 C 0.63592 0.4665 0.55711 0.0
C409 C 0.60677 0.4956 0.57302 0.0
C410 C 0.54269 0.61033 0.54052 0.0
C411 C 0.52127 0.64548 0.5573 0.0
C412 C 0.50399 0.67562 0.52969 0.0
C413 C 0.50891 0.67174 0.4848 0.0
C414 C 0.5292 0.63594 0.46788 0.0
C415 C 0.54507 0.60493 0.4955 0.0
P416 P 0.5723 0.43545 0.96065 0.0
H417 H 0.64141 0.48213 0.91565 0.0
H418 H 0.69175 0.54224 0.93618 0.0
H419 H 0.62752 0.55327 0.05891 0.0
H420 H 0.57519 0.49448 0.03723 0.0
H421 H 0.49287 0.3795 0.97088 0.0
H422 H 0.47082 0.3283 0.02739 0.0
H423 H 0.58098 0.37427 0.10476 0.0
H424 H 0.60356 0.42309 0.04814 0.0
H425 H 0.57727 0.43354 0.86717 0.0
H426 H 0.48376 0.46741 0.96302 0.0
O427 O 0.60579 0.40116 0.93857 0.0
H428 H 0.52488 0.44497 0.80989 0.0
H429 H 0.43077 0.47956 0.90507 0.0
C430 C 0.60532 0.48296 0.97535 0.0
C431 C 0.63776 0.49765 0.94682 0.0
C432 C 0.66653 0.53188 0.95857 0.0
C433 C 0.66331 0.55212 0.99907 0.0
C434 C 0.63057 0.5379 0.02758 0.0
C435 C 0.60086 0.50428 0.01523 0.0
C436 C 0.54882 0.40685 0.00599 0.0
C437 C 0.51127 0.37968 1.00074 0.0
C438 C 0.49877 0.3502 0.03298 0.0
C439 C 0.52396 0.34731 0.0707 0.0
C440 C 0.56046 0.37582 0.07638 0.0
C441 C 0.57319 0.40449 0.04407 0.0
C442 C 0.53389 0.44827 0.91937 0.0
C443 C 0.54544 0.44358 0.87593 0.0
C444 C 0.51555 0.45036 0.84314 0.0
C445 C 0.47377 0.46294 0.85309 0.0
C446 C 0.46288 0.47004 0.89658 0.0
C447 C 0.49288 0.46273 0.92963 0.0
P448 P 0.72608 0.20275 0.32267 0.0
H449 H 0.79168 0.25377 0.37 0.0
H450 H 0.78903 0.30665 0.42782 0.0
H451 H 0.64993 0.28674 0.43367 0.0
H452 H 0.65267 0.23159 0.37615 0.0
H453 H 0.69922 0.11193 0.30157 0.0
H454 H 0.74245 0.04862 0.29723 0.0
H455 H 0.8489 0.11943 0.36052 0.0
H456 H 0.80508 0.18178 0.36722 0.0
H457 H 0.7014 0.24326 0.24318 0.0
H458 H 0.64027 0.15658 0.33509 0.0
O459 O 0.76334 0.22646 0.29065 0.0
H460 H 0.63498 0.24406 0.2024 0.0
H461 H 0.57213 0.15667 0.29318 0.0
C462 C 0.72252 0.23827 0.36875 0.0
C463 C 0.76057 0.2597 0.38412 0.0
C464 C 0.75894 0.29065 0.41667 0.0
C465 C 0.71911 0.30171 0.43396 0.0
C466 C 0.68091 0.2792 0.42009 0.0
C467 C 0.68259 0.24765 0.38738 0.0
C468 C 0.74851 0.1519 0.33514 0.0
C469 C 0.73075 0.11329 0.31696 0.0
C470 C 0.75558 0.07695 0.31443 0.0
C471 C 0.7989 0.07931 0.32866 0.0
C472 C 0.81541 0.11674 0.34978 0.0
C473 C 0.79018 0.15248 0.35357 0.0
C474 C 0.67612 0.19951 0.29203 0.0
C475 C 0.67368 0.22397 0.25455 0.0
C476 C 0.63523 0.22456 0.23118 0.0
C477 C 0.5979 0.20054 0.24453 0.0
C478 C 0.6003 0.17546 0.28199 0.0
C479 C 0.63916 0.17528 0.30583 0.0
P480 P 0.50306 0.01553 0.00877 0.0
H481 H 0.55056 0.95631 0.95478 0.0
H482 H 0.58393 0.96316 0.88341 0.0
H483 H 0.53684 0.09114 0.87322 0.0
H484 H 0.50429 0.08399 0.94452 0.0
H485 H 0.57588 0.06562 0.04766 0.0
H486 H 0.58106 0.13305 0.08991 0.0
H487 H 0.44368 0.14573 0.07356 0.0
H488 H 0.43829 0.07855 0.03191 0.0
H489 H 0.43039 0.03418 0.95188 0.0
H490 H 0.45343 0.95197 0.05987 0.0
O491 O 0.53178 0.98127 0.03675 0.0
H492 H 0.3549 0.00646 0.94847 0.0
H493 H 0.37785 0.92455 0.05728 0.0
C494 C 0.52585 0.02007 0.95533 0.0
C495 C 0.54751 0.98582 0.93707 0.0
C496 C 0.56638 0.98968 0.89609 0.0
C497 C 0.56342 0.02776 0.87239 0.0
C498 C 0.54004 0.0613 0.89035 0.0
C499 C 0.5215 0.05745 0.93135 0.0
C500 C 0.50665 0.0665 0.03727 0.0
C501 C 0.54685 0.08284 0.05327 0.0
C502 C 0.5498 0.12122 0.07738 0.0
C503 C 0.51242 0.14338 0.08633 0.0
C504 C 0.4726 0.12816 0.06851 0.0
C505 C 0.46965 0.08989 0.04433 0.0
C506 C 0.44763 0.99462 0.00569 0.0
C507 C 0.41918 0.01015 0.97487 0.0
C508 C 0.3759 0.99461 0.97331 0.0
C509 C 0.36017 0.96354 0.00288 0.0
C510 C 0.38865 0.94889 0.03441 0.0
C511 C 0.43205 0.96415 0.03558 0.0
Mn512 Mn 0.25167 0.87277 0.02565 0.0
Mn513 Mn 0.24696 0.91936 0.9283 0.0
C514 C 0.21954 0.83551 0.96758 0.0
C515 C 0.28615 0.83087 0.07583 0.0
C516 C 0.19437 0.9466 0.00568 0.0
O517 O 0.2997 0.92063 0.02846 0.0
O518 O 0.2996 0.94325 0.95909 0.0
C519 C 0.32448 0.88767 0.88486 0.0
N520 N 0.28064 0.89029 0.88658 0.0
C521 C 0.27093 0.84902 0.82067 0.0
C522 C 0.31596 0.8459 0.8182 0.0
C523 C 0.34283 0.86525 0.85047 0.0
C524 C 0.25449 0.87188 0.85562 0.0
H525 H 0.34528 0.90247 0.9096 0.0
C526 C 0.31635 0.94245 0.99714 0.0
O527 O 0.2582 0.85826 0.08775 0.0
O528 O 0.29521 0.82895 0.03496 0.0
N529 N 0.19752 0.8965 0.8963 0.0
C530 C 0.15463 0.89982 0.90503 0.0
C531 C 0.12336 0.88054 0.87683 0.0
C532 C 0.13648 0.85815 0.83992 0.0
C533 C 0.18079 0.85511 0.83163 0.0
C534 C 0.21048 0.87498 0.86088 0.0
H535 H 0.14429 0.91689 0.93338 0.0
O536 O 0.20852 0.82528 0.00675 0.0
O537 O 0.24677 0.86837 0.96439 0.0
O538 O 0.20451 0.91607 0.03013 0.0
O539 O 0.21025 0.95207 0.96801 0.0
C540 C 0.19662 0.83264 0.7958 0.0
C541 C 0.24166 0.82967 0.79027 0.0
H542 H 0.33022 0.82842 0.79187 0.0
H543 H 0.3776 0.86285 0.84887 0.0
H544 H 0.08922 0.88289 0.88356 0.0
H545 H 0.11227 0.84316 0.81833 0.0
H546 H 0.1744 0.81731 0.77247 0.0
H547 H 0.25343 0.81201 0.76277 0.0
Mn548 Mn 0.15646 0.50998 0.26861 0.0
Mn549 Mn 0.10688 0.6037 0.26193 0.0
C550 C 0.18891 0.56728 0.23225 0.0
C551 C 0.20472 0.46452 0.30066 0.0
C552 C 0.08059 0.52478 0.20785 0.0
O553 O 0.11192 0.50532 0.31742 0.0
O554 O 0.08376 0.5706 0.31224 0.0
C555 C 0.13496 0.64903 0.34271 0.0
N556 N 0.13377 0.64717 0.29871 0.0
C557 C 0.16508 0.71943 0.29375 0.0
C558 C 0.16579 0.72239 0.33902 0.0
C559 C 0.15121 0.68684 0.36358 0.0
C560 C 0.14832 0.68101 0.27477 0.0
H561 H 0.12292 0.62215 0.36176 0.0
C562 C 0.08707 0.53428 0.33091 0.0
O563 O 0.17393 0.44969 0.27501 0.0
O564 O 0.20544 0.50523 0.31032 0.0
N565 N 0.12784 0.63851 0.21504 0.0
C566 C 0.12529 0.63021 0.17173 0.0
C567 C 0.14174 0.66125 0.14265 0.0
C568 C 0.15999 0.70072 0.15835 0.0
C569 C 0.16192 0.70864 0.20303 0.0
C570 C 0.14578 0.67617 0.23048 0.0
H571 H 0.11113 0.60002 0.15945 0.0
O572 O 0.19877 0.52818 0.22341 0.0
O573 O 0.16 0.57185 0.26214 0.0
O574 O 0.10951 0.5008 0.22194 0.0
O575 O 0.07603 0.56288 0.22183 0.0
C576 C 0.17905 0.74754 0.22139 0.0
C577 C 0.17997 0.75319 0.26667 0.0
H578 H 0.1777 0.75167 0.35532 0.0
H579 H 0.15198 0.6888 0.39852 0.0
H580 H 0.14014 0.65486 0.10822 0.0
H581 H 0.1724 0.72471 0.13582 0.0
H582 H 0.19123 0.77347 0.20098 0.0
H583 H 0.19227 0.78366 0.28025 0.0
Mn584 Mn 0.75784 0.63195 0.01651 0.0
Mn585 Mn 0.66963 0.66302 0.96229 0.0
C586 C 0.69531 0.587 0.01099 0.0
C587 C 0.82438 0.59884 0.0186 0.0
C588 C 0.69495 0.69734 0.05137 0.0
O589 O 0.78285 0.68203 0.98043 0.0
O590 O 0.72183 0.6981 0.94523 0.0
C591 C 0.69534 0.63481 0.87487 0.0
N592 N 0.66626 0.6335 0.90782 0.0
C593 C 0.61686 0.58608 0.86716 0.0
C594 C 0.64618 0.58706 0.8327 0.0
C595 C 0.68567 0.61139 0.83666 0.0
C596 C 0.62843 0.60978 0.90457 0.0
H597 H 0.72564 0.65362 0.87775 0.0
C598 C 0.76234 0.70446 0.95351 0.0
O599 O 0.81432 0.62714 0.04747 0.0
O600 O 0.79625 0.59041 0.98799 0.0
N601 N 0.61652 0.63162 0.9755 0.0
C602 C 0.59222 0.63342 0.01204 0.0
C603 C 0.55186 0.61044 0.01356 0.0
C604 C 0.53664 0.58648 0.97731 0.0
C605 C 0.56193 0.58574 0.93984 0.0
C606 C 0.60189 0.60913 0.94026 0.0
H607 H 0.60359 0.65218 0.0398 0.0
O608 O 0.72299 0.58193 0.04199 0.0
O609 O 0.70498 0.61803 0.98464 0.0
O610 O 0.72846 0.67538 0.05579 0.0
O611 O 0.67025 0.6945 0.01808 0.0
C612 C 0.54901 0.56282 0.90204 0.0
C613 C 0.57662 0.56255 0.8659 0.0
H614 H 0.63876 0.56916 0.80312 0.0
H615 H 0.70853 0.61221 0.81026 0.0
H616 H 0.53247 0.61131 0.04256 0.0
H617 H 0.50553 0.56875 0.97861 0.0
H618 H 0.51782 0.54546 0.90036 0.0
H619 H 0.5665 0.54429 0.83725 0.0
Mn620 Mn 0.86891 1.00139 0.27088 0.0
Mn621 Mn 0.90643 0.90607 0.24153 0.0
C622 C 0.82879 0.9549 0.22552 0.0
C623 C 0.829 0.04815 0.31192 0.0
C624 C 0.93784 0.98866 0.20079 0.0
O625 O 0.91302 0.99241 0.31865 0.0
O626 O 0.94146 0.93331 0.28985 0.0
C627 C 0.88431 0.86027 0.32268 0.0
N628 N 0.88117 0.86314 0.27886 0.0
C629 C 0.83909 0.7959 0.27433 0.0
C630 C 0.84201 0.79219 0.31935 0.0
C631 C 0.86457 0.82462 0.34363 0.0
C632 C 0.85919 0.8323 0.25525 0.0
H633 H 0.90179 0.88489 0.34157 0.0
C634 C 0.94094 0.96361 0.31828 0.0
O635 O 0.86202 0.06175 0.28928 0.0
O636 O 0.8203 0.00688 0.31285 0.0
N637 N 0.87537 0.8756 0.196 0.0
C638 C 0.87351 0.88515 0.15318 0.0
C639 C 0.85093 0.85653 0.12458 0.0
C640 C 0.83113 0.81811 0.14017 0.0
C641 C 0.83376 0.80884 0.18433 0.0
C642 C 0.85633 0.83877 0.21134 0.0
H643 H 0.88897 0.91448 0.14101 0.0
O644 O 0.8248 0.99615 0.22344 0.0
O645 O 0.85745 0.94216 0.25276 0.0
O646 O 0.91802 0.01216 0.22728 0.0
O647 O 0.93369 0.94767 0.20064 0.0
C648 C 0.81469 0.7712 0.20267 0.0
C649 C 0.81695 0.76494 0.24767 0.0
H650 H 0.82693 0.76466 0.33563 0.0
H651 H 0.8669 0.82205 0.37841 0.0
H652 H 0.84898 0.86395 0.09056 0.0
H653 H 0.81386 0.79606 0.11799 0.0
H654 H 0.79783 0.74698 0.18254 0.0
H655 H 0.80148 0.73623 0.26144 0.0
Mn656 Mn 0.25784 0.13195 0.51651 0.0
Mn657 Mn 0.16963 0.16302 0.46229 0.0
C658 C 0.19531 0.087 0.51099 0.0
C659 C 0.32438 0.09884 0.5186 0.0
C660 C 0.19495 0.19734 0.55137 0.0
O661 O 0.28285 0.18203 0.48043 0.0
O662 O 0.22183 0.1981 0.44523 0.0
C663 C 0.19534 0.13481 0.37487 0.0
N664 N 0.16626 0.1335 0.40782 0.0
C665 C 0.11686 0.08608 0.36716 0.0
C666 C 0.14618 0.08706 0.3327 0.0
C667 C 0.18567 0.11139 0.33666 0.0
C668 C 0.12843 0.10978 0.40457 0.0
H669 H 0.22564 0.15362 0.37775 0.0
C670 C 0.26234 0.20446 0.45351 0.0
O671 O 0.31432 0.12714 0.54747 0.0
O672 O 0.29625 0.09041 0.48799 0.0
N673 N 0.11652 0.13162 0.4755 0.0
C674 C 0.09222 0.13342 0.51204 0.0
C675 C 0.05186 0.11044 0.51356 0.0
C676 C 0.03664 0.08648 0.47731 0.0
C677 C 0.06193 0.08573 0.43984 0.0
C678 C 0.10189 0.10913 0.44026 0.0
H679 H 0.10359 0.15218 0.5398 0.0
O680 O 0.22299 0.08193 0.54199 0.0
O681 O 0.20498 0.11803 0.48464 0.0
O682 O 0.22846 0.17538 0.55579 0.0
O683 O 0.17025 0.1945 0.51808 0.0
C684 C 0.04901 0.06282 0.40204 0.0
C685 C 0.07662 0.06255 0.3659 0.0
H686 H 0.13876 0.06916 0.30312 0.0
H687 H 0.20853 0.11221 0.31026 0.0
H688 H 0.03247 0.11131 0.54256 0.0
H689 H 0.00553 0.06875 0.47861 0.0
H690 H 0.01782 0.04546 0.40036 0.0
H691 H 0.0665 0.04428 0.33725 0.0
Mn692 Mn 0.36891 0.50139 0.77088 0.0
Mn693 Mn 0.40643 0.40607 0.74153 0.0
C694 C 0.32879 0.4549 0.72552 0.0
C695 C 0.329 0.54815 0.81192 0.0
C696 C 0.43784 0.48866 0.70079 0.0
O697 O 0.41302 0.49241 0.81865 0.0
O698 O 0.44146 0.43331 0.78985 0.0
C699 C 0.38431 0.36027 0.82268 0.0
N700 N 0.38117 0.36314 0.77886 0.0
C701 C 0.33909 0.2959 0.77433 0.0
C702 C 0.34201 0.29219 0.81935 0.0
C703 C 0.36457 0.32462 0.84363 0.0
C704 C 0.35919 0.3323 0.75525 0.0
H705 H 0.40179 0.38489 0.84157 0.0
C706 C 0.44094 0.46361 0.81828 0.0
O707 O 0.36202 0.56175 0.78928 0.0
O708 O 0.3203 0.50688 0.81285 0.0
N709 N 0.37537 0.3756 0.696 0.0
C710 C 0.37351 0.38515 0.65318 0.0
C711 C 0.35093 0.35653 0.62458 0.0
C712 C 0.33113 0.31811 0.64017 0.0
C713 C 0.33376 0.30884 0.68433 0.0
C714 C 0.35633 0.33877 0.71134 0.0
H715 H 0.38897 0.41448 0.64101 0.0
O716 O 0.3248 0.49615 0.72344 0.0
O717 O 0.35745 0.44216 0.75276 0.0
O718 O 0.41802 0.51216 0.72728 0.0
O719 O 0.43369 0.44767 0.70064 0.0
C720 C 0.31469 0.2712 0.70267 0.0
C721 C 0.31695 0.26494 0.74767 0.0
H722 H 0.32693 0.26466 0.83563 0.0
H723 H 0.3669 0.32205 0.87841 0.0
H724 H 0.34898 0.36395 0.59056 0.0
H725 H 0.31386 0.29606 0.61799 0.0
H726 H 0.29783 0.24698 0.68254 0.0
H727 H 0.30148 0.23623 0.76144 0.0
Mn728 Mn 0.75167 0.37277 0.52565 0.0
Mn729 Mn 0.74696 0.41936 0.4283 0.0
C730 C 0.71954 0.33551 0.46758 0.0
C731 C 0.78615 0.33087 0.57583 0.0
C732 C 0.69437 0.4466 0.50568 0.0
O733 O 0.7997 0.42063 0.52846 0.0
O734 O 0.7996 0.44325 0.45909 0.0
C735 C 0.82448 0.38767 0.38486 0.0
N736 N 0.78064 0.39029 0.38658 0.0
C737 C 0.77093 0.34902 0.32067 0.0
C738 C 0.81596 0.3459 0.3182 0.0
C739 C 0.84283 0.36525 0.35047 0.0
C740 C 0.75449 0.37188 0.35562 0.0
H741 H 0.84528 0.40247 0.4096 0.0
C742 C 0.81635 0.44245 0.49714 0.0
O743 O 0.7582 0.35826 0.58775 0.0
O744 O 0.79521 0.32895 0.53496 0.0
N745 N 0.69752 0.3965 0.3963 0.0
C746 C 0.65463 0.39982 0.40503 0.0
C747 C 0.62336 0.38054 0.37683 0.0
C748 C 0.63648 0.35815 0.33992 0.0
C749 C 0.68079 0.35511 0.33163 0.0
C750 C 0.71048 0.37498 0.36088 0.0
H751 H 0.64429 0.41689 0.43338 0.0
O752 O 0.70852 0.32528 0.50675 0.0
O753 O 0.74677 0.36837 0.46439 0.0
O754 O 0.70451 0.41607 0.53013 0.0
O755 O 0.71025 0.45207 0.46801 0.0
C756 C 0.69662 0.33264 0.2958 0.0
C757 C 0.74166 0.32967 0.29027 0.0
H758 H 0.83022 0.32842 0.29187 0.0
H759 H 0.8776 0.36285 0.34887 0.0
H760 H 0.58922 0.38289 0.38356 0.0
H761 H 0.61227 0.34316 0.31833 0.0
H762 H 0.6744 0.31731 0.27247 0.0
H763 H 0.75343 0.31201 0.26277 0.0
Mn764 Mn 0.65646 0.00998 0.76861 0.0
Mn765 Mn 0.60688 0.1037 0.76193 0.0
C766 C 0.68891 0.06728 0.73225 0.0
C767 C 0.70472 0.96452 0.80066 0.0
C768 C 0.58059 0.02478 0.70785 0.0
O769 O 0.61192 0.00532 0.81742 0.0
O770 O 0.58376 0.0706 0.81224 0.0
C771 C 0.63496 0.14903 0.84271 0.0
N772 N 0.63377 0.14717 0.79871 0.0
C773 C 0.66508 0.21943 0.79375 0.0
C774 C 0.66579 0.22239 0.83902 0.0
C775 C 0.65121 0.18684 0.86358 0.0
C776 C 0.64832 0.18101 0.77477 0.0
H777 H 0.62292 0.12215 0.86176 0.0
C778 C 0.58707 0.03428 0.83091 0.0
O779 O 0.67393 0.94969 0.77501 0.0
O780 O 0.70544 0.00523 0.81032 0.0
N781 N 0.62784 0.13851 0.71504 0.0
C782 C 0.62529 0.13021 0.67173 0.0
C783 C 0.64174 0.16125 0.64265 0.0
C784 C 0.65999 0.20072 0.65835 0.0
C785 C 0.66192 0.20864 0.70303 0.0
C786 C 0.64578 0.17617 0.73048 0.0
H787 H 0.61113 0.10002 0.65945 0.0
O788 O 0.69877 0.02818 0.72341 0.0
O789 O 0.66 0.07185 0.76214 0.0
O790 O 0.60951 1.0008 0.72194 0.0
O791 O 0.57603 0.06288 0.72183 0.0
C792 C 0.67905 0.24754 0.72139 0.0
C793 C 0.67997 0.25319 0.76667 0.0
H794 H 0.6777 0.25167 0.85532 0.0
H795 H 0.65198 0.1888 0.89852 0.0
H796 H 0.64014 0.15486 0.60822 0.0
H797 H 0.6724 0.22471 0.63582 0.0
H798 H 0.69123 0.27347 0.70098 0.0
H799 H 0.69227 0.28366 0.78025 0.0
Mn800 Mn 0.01274 0.26558 0.88011 0.0
Mn801 Mn 0.91604 0.2551 0.92943 0.0
C802 C 0.95552 0.22706 0.84704 0.0
C803 C 0.06085 0.29981 0.83217 0.0
C804 C 0.99315 0.20494 0.95571 0.0
O805 O 0.01626 0.31501 0.92458 0.0
O806 O 0.9496 0.30603 0.95376 0.0
C807 C 0.87804 0.33444 0.89815 0.0
N808 N 0.87628 0.29075 0.90147 0.0
C809 C 0.80932 0.28433 0.86156 0.0
C810 C 0.81024 0.32923 0.85786 0.0
C811 C 0.84483 0.35439 0.87619 0.0
C812 C 0.84322 0.26624 0.88388 0.0
H813 H 0.90463 0.35395 0.91203 0.0
C814 C 0.98642 0.32667 0.95014 0.0
O815 O 0.07443 0.27498 0.86226 0.0
O816 O 0.0199 0.30702 0.83184 0.0
N817 N 0.8803 0.20761 0.90748 0.0
C818 C 0.8858 0.16465 0.91108 0.0
C819 C 0.85458 0.13503 0.89322 0.0
C820 C 0.81797 0.14989 0.87213 0.0
C821 C 0.81306 0.19426 0.8689 0.0
C822 C 0.84524 0.22224 0.88721 0.0
H823 H 0.91389 0.15307 0.92726 0.0
O824 O 0.99519 0.21941 0.83738 0.0
O825 O 0.95072 0.25628 0.87669 0.0
O826 O 0.01888 0.22029 0.92704 0.0
O827 O 0.95438 0.21643 0.96034 0.0
C828 C 0.77782 0.21186 0.84769 0.0
C829 C 0.77633 0.25682 0.8435 0.0
H830 H 0.78472 0.34468 0.84079 0.0
H831 H 0.84591 0.38905 0.87335 0.0
H832 H 0.85873 0.10084 0.89569 0.0
H833 H 0.79402 0.12698 0.85824 0.0
H834 H 0.75208 0.19105 0.83389 0.0
H835 H 0.74994 0.27007 0.82607 0.0
Mn836 Mn 0.51274 0.76558 0.38011 0.0
Mn837 Mn 0.41604 0.7551 0.42943 0.0
C838 C 0.45552 0.72706 0.34704 0.0
C839 C 0.56085 0.79981 0.33217 0.0
C840 C 0.49315 0.70494 0.45571 0.0
O841 O 0.51626 0.81501 0.42458 0.0
O842 O 0.4496 0.80603 0.45376 0.0
C843 C 0.37804 0.83444 0.39815 0.0
N844 N 0.37628 0.79075 0.40147 0.0
C845 C 0.30931 0.78433 0.36156 0.0
C846 C 0.31024 0.82923 0.35786 0.0
C847 C 0.34483 0.85439 0.37619 0.0
C848 C 0.34322 0.76624 0.38388 0.0
H849 H 0.40463 0.85395 0.41203 0.0
C850 C 0.48642 0.82667 0.45014 0.0
O851 O 0.57443 0.77498 0.36226 0.0
O852 O 0.5199 0.80702 0.33184 0.0
N853 N 0.3803 0.70761 0.40748 0.0
C854 C 0.3858 0.66465 0.41108 0.0
C855 C 0.35458 0.63503 0.39322 0.0
C856 C 0.31797 0.64989 0.37213 0.0
C857 C 0.31306 0.69426 0.3689 0.0
C858 C 0.34524 0.72224 0.38721 0.0
H859 H 0.41389 0.65307 0.42726 0.0
O860 O 0.49519 0.71941 0.33738 0.0
O861 O 0.45072 0.75628 0.37669 0.0
O862 O 0.51888 0.72029 0.42704 0.0
O863 O 0.45438 0.71643 0.46034 0.0
C864 C 0.27782 0.71186 0.34769 0.0
C865 C 0.27633 0.75682 0.3435 0.0
H866 H 0.28472 0.84468 0.34079 0.0
H867 H 0.34591 0.88905 0.37335 0.0
H868 H 0.35873 0.60084 0.39569 0.0
H869 H 0.29402 0.62698 0.35824 0.0
H870 H 0.25208 0.69105 0.33389 0.0
H871 H 0.24994 0.77007 0.32607 0.0
Mn872 Mn 0.01512 0.75082 0.64493 0.0
Mn873 Mn 0.96915 0.66352 0.69448 0.0
C874 C 0.01541 0.68378 0.61168 0.0
C875 C 0.01673 0.81167 0.60158 0.0
C876 C 0.05748 0.70274 0.71873 0.0
O877 O 0.97738 0.77789 0.69068 0.0
O878 O 0.94792 0.71729 0.72005 0.0
C879 C 0.8789 0.67334 0.6648 0.0
N880 N 0.91401 0.64892 0.66846 0.0
C881 C 0.87493 0.58758 0.63636 0.0
C882 C 0.83823 0.61194 0.63257 0.0
C883 C 0.84033 0.6551 0.64659 0.0
C884 C 0.9126 0.60765 0.6543 0.0
H885 H 0.88031 0.70644 0.67573 0.0
C886 C 0.95209 0.75835 0.71741 0.0
O887 O 0.0444 0.807 0.63247 0.0
O888 O 0.98617 0.78148 0.59674 0.0
N889 N 0.98565 0.60881 0.67332 0.0
C890 C 0.02446 0.59034 0.67741 0.0
C891 C 0.0282 0.54752 0.66373 0.0
C892 C 0.99179 0.52384 0.64699 0.0
C893 C 0.95204 0.54334 0.64375 0.0
C894 C 0.95041 0.58625 0.65736 0.0
H895 H 0.05238 0.60817 0.69092 0.0
O896 O 0.04373 0.71419 0.6014 0.0
O897 O 0.98712 0.6934 0.64084 0.0
O898 O 0.05664 0.73249 0.6911 0.0
O899 O 0.02623 0.67476 0.72369 0.0
C900 C 0.91395 0.52191 0.62756 0.0
C901 C 0.8756 0.54415 0.6232 0.0
H902 H 0.80834 0.5979 0.61881 0.0
H903 H 0.81221 0.67418 0.6436 0.0
H904 H 0.05898 0.53269 0.6664 0.0
H905 H 0.99475 0.49079 0.63658 0.0
H906 H 0.91375 0.48826 0.61858 0.0
H907 H 0.84678 0.52748 0.60989 0.0
Mn908 Mn 0.51512 0.25082 0.14493 0.0
Mn909 Mn 0.46915 0.16352 0.19448 0.0
C910 C 0.51541 0.18378 0.11168 0.0
C911 C 0.51673 0.31167 0.10158 0.0
C912 C 0.55748 0.20274 0.21873 0.0
O913 O 0.47738 0.27789 0.19068 0.0
O914 O 0.44792 0.21729 0.22004 0.0
C915 C 0.3789 0.17334 0.1648 0.0
N916 N 0.41401 0.14892 0.16846 0.0
C917 C 0.37493 0.08758 0.13636 0.0
C918 C 0.33823 0.11194 0.13257 0.0
C919 C 0.34034 0.1551 0.14659 0.0
C920 C 0.4126 0.10765 0.1543 0.0
H921 H 0.38031 0.20644 0.17573 0.0
C922 C 0.45209 0.25835 0.21741 0.0
O923 O 0.5444 0.307 0.13247 0.0
O924 O 0.48617 0.28148 0.09674 0.0
N925 N 0.48565 0.10881 0.17332 0.0
C926 C 0.52446 0.09034 0.17741 0.0
C927 C 0.5282 0.04752 0.16373 0.0
C928 C 0.49179 0.02384 0.14699 0.0
C929 C 0.45204 0.04334 0.14375 0.0
C930 C 0.45041 0.08625 0.15736 0.0
H931 H 0.55238 0.10817 0.19092 0.0
O932 O 0.54373 0.21419 0.1014 0.0
O933 O 0.48712 0.1934 0.14084 0.0
O934 O 0.55664 0.23249 0.1911 0.0
O935 O 0.52623 0.17476 0.22369 0.0
C936 C 0.41395 0.02191 0.12756 0.0
C937 C 0.3756 0.04415 0.1232 0.0
H938 H 0.30834 0.0979 0.11881 0.0
H939 H 0.31222 0.17418 0.1436 0.0
H940 H 0.55898 0.03269 0.1664 0.0
H941 H 0.49475 0.99079 0.13658 0.0
H942 H 0.41375 0.98826 0.11858 0.0
H943 H 0.34678 0.02748 0.10989 0.0
loop_
_geom_bond_atom_site_label_1
_geom_bond_atom_site_label_2
_geom_bond_distance
_geom_bond_site_symmetry_2
_ccdc_geom_bond_type
P0 O11 1.490 . S
P0 C14 1.812 . S
P0 C20 1.803 . S
P0 C26 1.819 . S
H1 C15 0.941 . S
H2 C16 0.939 . S
H3 C18 0.940 . S
H4 C19 0.940 . S
H5 C21 0.939 . S
H6 C22 0.942 . S
H7 C24 0.940 . S
H8 C25 0.939 . S
H9 C27 0.941 . S
H10 C31 0.939 . S
O11 P0 1.490 . S
H12 C28 0.939 . S
H13 C30 0.940 . S
C14 P0 1.812 . S
C14 C15 1.389 . S
C14 C19 1.391 1_455 S
C15 H1 0.941 . S
C15 C14 1.389 . S
C15 C16 1.397 1_455 S
C16 H2 0.939 . S
C16 C15 1.397 1_655 S
C16 C17 1.378 . S
C17 C16 1.378 . S
C17 C18 1.378 . S
C18 H3 0.940 . S
C18 C17 1.378 . S
C18 C19 1.396 . S
C19 H4 0.940 . S
C19 C14 1.391 1_655 S
C19 C18 1.396 . S
C20 P0 1.803 . S
C20 C21 1.378 . S
C20 C25 1.400 1_545 S
C21 H5 0.939 . S
C21 C20 1.378 . S
C21 C22 1.361 1_545 S
C22 H6 0.942 . S
C22 C21 1.361 1_565 S
C22 C23 1.369 . S
C23 C22 1.369 . S
C23 C24 1.404 . S
C24 H7 0.940 . S
C24 C23 1.404 . S
C24 C25 1.389 . S
C25 H8 0.939 . S
C25 C20 1.400 1_565 S
C25 C24 1.389 . S
C26 P0 1.819 . S
C26 C27 1.391 . S
C26 C31 1.391 1_554 S
C27 H9 0.941 . S
C27 C26 1.391 . S
C27 C28 1.396 . S
C28 H12 0.939 . S
C28 C27 1.396 . S
C28 C29 1.397 1_554 S
C29 C28 1.397 1_556 S
C29 C30 1.385 . S
C30 H13 0.940 . S
C30 C29 1.385 . S
C30 C31 1.388 . S
C31 H10 0.939 . S
C31 C26 1.391 1_556 S
C31 C30 1.388 . S
P32 O43 1.490 . S
P32 C46 1.812 . S
P32 C52 1.803 . S
P32 C58 1.819 . S
H33 C47 0.941 . S
H34 C48 0.939 . S
H35 C50 0.940 . S
H36 C51 0.940 . S
H37 C53 0.939 . S
H38 C54 0.942 . S
H39 C56 0.940 . S
H40 C57 0.939 . S
H41 C59 0.941 . S
H42 C63 0.939 . S
O43 P32 1.490 . S
H44 C60 0.939 . S
H45 C62 0.940 . S
C46 P32 1.812 . S
C46 C47 1.389 . S
C46 C51 1.391 . S
C47 H33 0.941 . S
C47 C46 1.389 . S
C47 C48 1.397 . S
C48 H34 0.939 . S
C48 C47 1.397 . S
C48 C49 1.378 . S
C49 C48 1.378 . S
C49 C50 1.378 . S
C50 H35 0.940 . S
C50 C49 1.378 . S
C50 C51 1.396 . S
C51 H36 0.940 . S
C51 C46 1.391 . S
C51 C50 1.396 . S
C52 P32 1.803 . S
C52 C53 1.378 . S
C52 C57 1.400 . S
C53 H37 0.939 . S
C53 C52 1.378 . S
C53 C54 1.361 . S
C54 H38 0.942 . S
C54 C53 1.361 . S
C54 C55 1.369 . S
C55 C54 1.369 . S
C55 C56 1.404 . S
C56 H39 0.940 . S
C56 C55 1.404 . S
C56 C57 1.389 . S
C57 H40 0.939 . S
C57 C52 1.400 . S
C57 C56 1.389 . S
C58 P32 1.819 . S
C58 C59 1.391 . S
C58 C63 1.391 . S
C59 H41 0.941 . S
C59 C58 1.391 . S
C59 C60 1.396 . S
C60 H44 0.939 . S
C60 C59 1.396 . S
C60 C61 1.397 . S
C61 C60 1.397 . S
C61 C62 1.385 . S
C62 H45 0.940 . S
C62 C61 1.385 . S
C62 C63 1.388 . S
C63 H42 0.939 . S
C63 C58 1.391 . S
C63 C62 1.388 . S
P64 O75 1.490 1_554 S
P64 C78 1.812 1_454 S
P64 C84 1.803 1_455 S
P64 C90 1.819 . S
H65 C79 0.941 . S
H66 C80 0.942 . S
H67 C82 0.940 1_554 S
H68 C83 0.940 . S
H69 C85 0.942 . S
H70 C86 0.942 . S
H71 C88 0.940 . S
H72 C89 0.939 . S
H73 C91 0.941 . S
H74 C95 0.939 . S
O75 P64 1.490 1_556 S
H76 C92 0.939 . S
H77 C94 0.940 1_655 S
C78 P64 1.812 1_656 S
C78 C79 1.389 1_655 S
C78 C83 1.391 1_556 S
C79 H65 0.941 . S
C79 C78 1.389 1_455 S
C79 C80 1.397 . S
C80 H66 0.942 . S
C80 C79 1.397 . S
C80 C81 1.376 1_455 S
C81 C80 1.376 1_655 S
C81 C82 1.378 . S
C82 H67 0.940 1_556 S
C82 C81 1.378 . S
C82 C83 1.396 1_556 S
C83 H68 0.940 . S
C83 C78 1.391 1_554 S
C83 C82 1.396 1_554 S
C84 P64 1.803 1_655 S
C84 C85 1.378 . S
C84 C89 1.400 . S
C85 H69 0.942 . S
C85 C84 1.378 . S
C85 C86 1.361 . S
C86 H70 0.942 . S
C86 C85 1.361 . S
C86 C87 1.369 . S
C87 C86 1.369 . S
C87 C88 1.404 . S
C88 H71 0.940 . S
C88 C87 1.404 . S
C88 C89 1.389 . S
C89 H72 0.939 . S
C89 C84 1.400 . S
C89 C88 1.389 . S
C90 P64 1.819 . S
C90 C91 1.391 . S
C90 C95 1.391 1_455 S
C91 H73 0.941 . S
C91 C90 1.391 . S
C91 C92 1.396 . S
C92 H76 0.939 . S
C92 C91 1.396 . S
C92 C93 1.397 . S
C93 C92 1.397 . S
C93 C94 1.385 . S
C94 H77 0.940 1_455 S
C94 C93 1.385 . S
C94 C95 1.388 1_455 S
C95 H74 0.939 . S
C95 C90 1.391 1_655 S
C95 C94 1.388 1_655 S
P96 O107 1.490 . S
P96 C110 1.812 . S
P96 C116 1.803 . S
P96 C122 1.819 . S
H97 C111 0.941 . S
H98 C112 0.939 . S
H99 C114 0.940 . S
H100 C115 0.940 . S
H101 C117 0.939 . S
H102 C118 0.942 . S
H103 C120 0.940 . S
H104 C121 0.939 . S
H105 C123 0.941 . S
H106 C127 0.939 . S
O107 P96 1.490 . S
H108 C124 0.939 . S
H109 C126 0.940 . S
C110 P96 1.812 . S
C110 C111 1.389 . S
C110 C115 1.391 . S
C111 H97 0.941 . S
C111 C110 1.389 . S
C111 C112 1.397 . S
C112 H98 0.939 . S
C112 C111 1.397 . S
C112 C113 1.378 . S
C113 C112 1.378 . S
C113 C114 1.378 . S
C114 H99 0.940 . S
C114 C113 1.378 . S
C114 C115 1.396 . S
C115 H100 0.940 . S
C115 C110 1.391 . S
C115 C114 1.396 . S
C116 P96 1.803 . S
C116 C117 1.378 . S
C116 C121 1.400 . S
C117 H101 0.939 . S
C117 C116 1.378 . S
C117 C118 1.361 . S
C118 H102 0.942 . S
C118 C117 1.361 . S
C118 C119 1.369 . S
C119 C118 1.369 . S
C119 C120 1.404 . S
C120 H103 0.940 . S
C120 C119 1.404 . S
C120 C121 1.389 . S
C121 H104 0.939 . S
C121 C116 1.400 . S
C121 C120 1.389 . S
C122 P96 1.819 . S
C122 C123 1.391 . S
C122 C127 1.391 . S
C123 H105 0.941 . S
C123 C122 1.391 . S
C123 C124 1.396 . S
C124 H108 0.939 . S
C124 C123 1.396 . S
C124 C125 1.397 . S
C125 C124 1.397 . S
C125 C126 1.385 . S
C126 H109 0.940 . S
C126 C125 1.385 . S
C126 C127 1.388 . S
C127 H106 0.939 . S
C127 C122 1.391 . S
C127 C126 1.388 . S
P128 O139 1.490 . S
P128 C142 1.812 . S
P128 C148 1.803 . S
P128 C154 1.819 . S
H129 C143 0.941 . S
H130 C144 0.939 . S
H131 C146 0.940 . S
H132 C147 0.940 . S
H133 C149 0.939 . S
H134 C150 0.942 . S
H135 C152 0.940 . S
H136 C153 0.939 . S
H137 C155 0.941 . S
H138 C159 0.939 . S
O139 P128 1.490 . S
H140 C156 0.939 1_545 S
H141 C158 0.940 . S
C142 P128 1.812 . S
C142 C143 1.389 . S
C142 C147 1.391 1_565 S
C143 H129 0.941 . S
C143 C142 1.389 . S
C143 C144 1.397 1_565 S
C144 H130 0.939 . S
C144 C143 1.397 1_545 S
C144 C145 1.378 . S
C145 C144 1.378 . S
C145 C146 1.378 . S
C146 H131 0.940 . S
C146 C145 1.378 . S
C146 C147 1.396 . S
C147 H132 0.940 . S
C147 C142 1.391 1_545 S
C147 C146 1.396 . S
C148 P128 1.803 . S
C148 C149 1.378 . S
C148 C153 1.400 . S
C149 H133 0.939 . S
C149 C148 1.378 . S
C149 C150 1.361 . S
C150 H134 0.942 . S
C150 C149 1.361 . S
C150 C151 1.369 . S
C151 C150 1.369 . S
C151 C152 1.404 . S
C152 H135 0.940 . S
C152 C151 1.404 . S
C152 C153 1.389 . S
C153 H136 0.939 . S
C153 C148 1.400 . S
C153 C152 1.389 . S
C154 P128 1.819 . S
C154 C155 1.391 . S
C154 C159 1.391 1_455 S
C155 H137 0.941 . S
C155 C154 1.391 . S
C155 C156 1.396 1_455 S
C156 H140 0.939 1_565 S
C156 C155 1.396 1_655 S
C156 C157 1.397 . S
C157 C156 1.397 . S
C157 C158 1.385 . S
C158 H141 0.940 . S
C158 C157 1.385 . S
C158 C159 1.388 . S
C159 H138 0.939 . S
C159 C154 1.391 1_655 S
C159 C158 1.388 . S
P160 O171 1.490 . S
P160 C174 1.812 . S
P160 C180 1.803 . S
P160 C186 1.819 . S
H161 C175 0.941 . S
H162 C176 0.939 . S
H163 C178 0.940 . S
H164 C179 0.940 . S
H165 C181 0.939 . S
H166 C182 0.942 . S
H167 C184 0.940 . S
H168 C185 0.939 . S
H169 C187 0.941 . S
H170 C191 0.939 . S
O171 P160 1.490 . S
H172 C188 0.939 . S
H173 C190 0.940 . S
C174 P160 1.812 . S
C174 C175 1.389 . S
C174 C179 1.391 . S
C175 H161 0.941 . S
C175 C174 1.389 . S
C175 C176 1.397 . S
C176 H162 0.939 . S
C176 C175 1.397 . S
C176 C177 1.378 . S
C177 C176 1.378 . S
C177 C178 1.378 . S
C178 H163 0.940 . S
C178 C177 1.378 . S
C178 C179 1.396 . S
C179 H164 0.940 . S
C179 C174 1.391 . S
C179 C178 1.396 . S
C180 P160 1.803 . S
C180 C181 1.378 . S
C180 C185 1.400 . S
C181 H165 0.939 . S
C181 C180 1.378 . S
C181 C182 1.361 . S
C182 H166 0.942 . S
C182 C181 1.361 . S
C182 C183 1.369 . S
C183 C182 1.369 . S
C183 C184 1.404 . S
C184 H167 0.940 . S
C184 C183 1.404 . S
C184 C185 1.389 . S
C185 H168 0.939 . S
C185 C180 1.400 . S
C185 C184 1.389 . S
C186 P160 1.819 . S
C186 C187 1.391 . S
C186 C191 1.391 . S
C187 H169 0.941 . S
C187 C186 1.391 . S
C187 C188 1.396 . S
C188 H172 0.939 . S
C188 C187 1.396 . S
C188 C189 1.397 . S
C189 C188 1.397 . S
C189 C190 1.385 . S
C190 H173 0.940 . S
C190 C189 1.385 . S
C190 C191 1.388 . S
C191 H170 0.939 . S
C191 C186 1.391 . S
C191 C190 1.388 . S
P192 O203 1.490 . S
P192 C206 1.812 . S
P192 C212 1.803 . S
P192 C218 1.819 1_455 S
H193 C207 0.941 . S
H194 C208 0.939 . S
H195 C210 0.940 1_655 S
H196 C211 0.940 1_655 S
H197 C213 0.939 . S
H198 C214 0.942 . S
H199 C216 0.940 . S
H200 C217 0.939 . S
H201 C219 0.941 . S
H202 C223 0.939 . S
O203 P192 1.490 . S
H204 C220 0.939 . S
H205 C222 0.940 . S
C206 P192 1.812 . S
C206 C207 1.389 . S
C206 C211 1.391 . S
C207 H193 0.941 . S
C207 C206 1.389 . S
C207 C208 1.397 . S
C208 H194 0.939 . S
C208 C207 1.397 . S
C208 C209 1.378 . S
C209 C208 1.378 . S
C209 C210 1.378 . S
C210 H195 0.940 1_455 S
C210 C209 1.378 . S
C210 C211 1.396 . S
C211 H196 0.940 1_455 S
C211 C206 1.391 . S
C211 C210 1.396 . S
C212 P192 1.803 . S
C212 C213 1.378 . S
C212 C217 1.400 1_455 S
C213 H197 0.939 . S
C213 C212 1.378 . S
C213 C214 1.361 . S
C214 H198 0.942 . S
C214 C213 1.361 . S
C214 C215 1.366 1_455 S
C215 C214 1.366 1_655 S
C215 C216 1.405 . S
C216 H199 0.940 . S
C216 C215 1.405 . S
C216 C217 1.389 . S
C217 H200 0.939 . S
C217 C212 1.400 1_655 S
C217 C216 1.389 . S
C218 P192 1.819 1_655 S
C218 C219 1.391 . S
C218 C223 1.391 . S
C219 H201 0.941 . S
C219 C218 1.391 . S
C219 C220 1.396 . S
C220 H204 0.939 . S
C220 C219 1.396 . S
C220 C221 1.397 . S
C221 C220 1.397 . S
C221 C222 1.385 . S
C222 H205 0.940 . S
C222 C221 1.385 . S
C222 C223 1.388 . S
C223 H202 0.939 . S
C223 C218 1.391 . S
C223 C222 1.388 . S
P224 O235 1.490 . S
P224 C238 1.812 . S
P224 C244 1.803 . S
P224 C250 1.819 . S
H225 C239 0.941 . S
H226 C240 0.939 . S
H227 C242 0.940 . S
H228 C243 0.940 . S
H229 C245 0.939 . S
H230 C246 0.942 . S
H231 C248 0.940 . S
H232 C249 0.939 . S
H233 C251 0.941 . S
H234 C255 0.939 . S
O235 P224 1.490 . S
H236 C252 0.939 . S
H237 C254 0.940 . S
C238 P224 1.812 . S
C238 C239 1.389 . S
C238 C243 1.391 . S
C239 H225 0.941 . S
C239 C238 1.389 . S
C239 C240 1.397 . S
C240 H226 0.939 . S
C240 C239 1.397 . S
C240 C241 1.378 . S
C241 C240 1.378 . S
C241 C242 1.378 . S
C242 H227 0.940 . S
C242 C241 1.378 . S
C242 C243 1.396 . S
C243 H228 0.940 . S
C243 C238 1.391 . S
C243 C242 1.396 . S
C244 P224 1.803 . S
C244 C245 1.378 . S
C244 C249 1.400 . S
C245 H229 0.939 . S
C245 C244 1.378 . S
C245 C246 1.361 . S
C246 H230 0.942 . S
C246 C245 1.361 . S
C246 C247 1.369 . S
C247 C246 1.369 . S
C247 C248 1.404 . S
C248 H231 0.940 . S
C248 C247 1.404 . S
C248 C249 1.389 . S
C249 H232 0.939 . S
C249 C244 1.400 . S
C249 C248 1.389 . S
C250 P224 1.819 . S
C250 C251 1.391 . S
C250 C255 1.391 . S
C251 H233 0.941 . S
C251 C250 1.391 . S
C251 C252 1.396 . S
C252 H236 0.939 . S
C252 C251 1.396 . S
C252 C253 1.397 . S
C253 C252 1.397 . S
C253 C254 1.385 . S
C254 H237 0.940 . S
C254 C253 1.385 . S
C254 C255 1.388 . S
C255 H234 0.939 . S
C255 C250 1.391 . S
C255 C254 1.388 . S
P256 O267 1.490 . S
P256 C270 1.812 . S
P256 C276 1.803 . S
P256 C282 1.819 . S
H257 C271 0.941 . S
H258 C272 0.939 . S
H259 C274 0.940 . S
H260 C275 0.940 . S
H261 C277 0.939 . S
H262 C278 0.942 . S
H263 C280 0.940 . S
H264 C281 0.939 . S
H265 C283 0.941 . S
H266 C287 0.939 . S
O267 P256 1.490 . S
H268 C284 0.939 . S
H269 C286 0.940 . S
C270 P256 1.812 . S
C270 C271 1.389 . S
C270 C275 1.391 . S
C271 H257 0.941 . S
C271 C270 1.389 . S
C271 C272 1.397 . S
C272 H258 0.939 . S
C272 C271 1.397 . S
C272 C273 1.378 . S
C273 C272 1.378 . S
C273 C274 1.378 . S
C274 H259 0.940 . S
C274 C273 1.378 . S
C274 C275 1.396 . S
C275 H260 0.940 . S
C275 C270 1.391 . S
C275 C274 1.396 . S
C276 P256 1.803 . S
C276 C277 1.378 . S
C276 C281 1.400 . S
C277 H261 0.939 . S
C277 C276 1.378 . S
C277 C278 1.361 . S
C278 H262 0.942 . S
C278 C277 1.361 . S
C278 C279 1.369 . S
C279 C278 1.369 . S
C279 C280 1.404 . S
C280 H263 0.940 . S
C280 C279 1.404 . S
C280 C281 1.389 . S
C281 H264 0.939 . S
C281 C276 1.400 . S
C281 C280 1.389 . S
C282 P256 1.819 . S
C282 C283 1.391 . S
C282 C287 1.391 . S
C283 H265 0.941 . S
C283 C282 1.391 . S
C283 C284 1.396 . S
C284 H268 0.939 . S
C284 C283 1.396 . S
C284 C285 1.397 . S
C285 C284 1.397 . S
C285 C286 1.385 . S
C286 H269 0.940 . S
C286 C285 1.385 . S
C286 C287 1.388 . S
C287 H266 0.939 . S
C287 C282 1.391 . S
C287 C286 1.388 . S
P288 O299 1.490 . S
P288 C302 1.812 1_545 S
P288 C308 1.803 . S
P288 C314 1.819 . S
H289 C303 0.941 . S
H290 C304 0.939 . S
H291 C306 0.940 . S
H292 C307 0.940 . S
H293 C309 0.939 . S
H294 C310 0.942 . S
H295 C312 0.931 1_565 S
H296 C313 0.928 1_565 S
H297 C315 0.941 . S
H298 C319 0.939 . S
O299 P288 1.490 . S
H300 C316 0.939 . S
H301 C318 0.940 . S
C302 P288 1.812 1_565 S
C302 C303 1.389 . S
C302 C307 1.391 . S
C303 H289 0.941 . S
C303 C302 1.389 . S
C303 C304 1.397 . S
C304 H290 0.939 . S
C304 C303 1.397 . S
C304 C305 1.378 . S
C305 C304 1.378 . S
C305 C306 1.378 . S
C306 H291 0.940 . S
C306 C305 1.378 . S
C306 C307 1.396 . S
C307 H292 0.940 . S
C307 C302 1.391 . S
C307 C306 1.396 . S
C308 P288 1.803 . S
C308 C309 1.378 . S
C308 C313 1.406 . S
C309 H293 0.939 . S
C309 C308 1.378 . S
C309 C310 1.361 . S
C310 H294 0.942 . S
C310 C309 1.361 . S
C310 C311 1.369 . S
C311 C310 1.369 . S
C311 C312 1.404 . S
C312 H295 0.931 1_545 S
C312 C311 1.404 . S
C312 C313 1.394 . S
C313 H296 0.928 1_545 S
C313 C308 1.406 . S
C313 C312 1.394 . S
C314 P288 1.819 . S
C314 C315 1.391 1_545 S
C314 C319 1.391 . S
C315 H297 0.941 . S
C315 C314 1.391 1_565 S
C315 C316 1.396 . S
C316 H300 0.939 . S
C316 C315 1.396 . S
C316 C317 1.397 . S
C317 C316 1.397 . S
C317 C318 1.385 1_565 S
C318 H301 0.940 . S
C318 C317 1.385 1_545 S
C318 C319 1.388 . S
C319 H298 0.939 . S
C319 C314 1.391 . S
C319 C318 1.388 . S
P320 O331 1.490 . S
P320 C334 1.812 . S
P320 C340 1.803 . S
P320 C346 1.819 . S
H321 C335 0.941 . S
H322 C336 0.939 . S
H323 C338 0.940 . S
H324 C339 0.940 . S
H325 C341 0.939 . S
H326 C342 0.942 . S
H327 C344 0.940 . S
H328 C345 0.939 . S
H329 C347 0.941 . S
H330 C351 0.939 . S
O331 P320 1.490 . S
H332 C348 0.939 . S
H333 C350 0.940 . S
C334 P320 1.812 . S
C334 C335 1.389 . S
C334 C339 1.391 . S
C335 H321 0.941 . S
C335 C334 1.389 . S
C335 C336 1.397 . S
C336 H322 0.939 . S
C336 C335 1.397 . S
C336 C337 1.378 . S
C337 C336 1.378 . S
C337 C338 1.378 . S
C338 H323 0.940 . S
C338 C337 1.378 . S
C338 C339 1.396 . S
C339 H324 0.940 . S
C339 C334 1.391 . S
C339 C338 1.396 . S
C340 P320 1.803 . S
C340 C341 1.378 . S
C340 C345 1.400 . S
C341 H325 0.939 . S
C341 C340 1.378 . S
C341 C342 1.361 . S
C342 H326 0.942 . S
C342 C341 1.361 . S
C342 C343 1.369 . S
C343 C342 1.369 . S
C343 C344 1.404 . S
C344 H327 0.940 . S
C344 C343 1.404 . S
C344 C345 1.389 . S
C345 H328 0.939 . S
C345 C340 1.400 . S
C345 C344 1.389 . S
C346 P320 1.819 . S
C346 C347 1.391 . S
C346 C351 1.391 . S
C347 H329 0.941 . S
C347 C346 1.391 . S
C347 C348 1.396 . S
C348 H332 0.939 . S
C348 C347 1.396 . S
C348 C349 1.397 . S
C349 C348 1.397 . S
C349 C350 1.385 . S
C350 H333 0.940 . S
C350 C349 1.385 . S
C350 C351 1.388 . S
C351 H330 0.939 . S
C351 C346 1.391 . S
C351 C350 1.388 . S
P352 O363 1.490 . S
P352 C366 1.812 . S
P352 C372 1.803 . S
P352 C378 1.819 . S
H353 C367 0.941 . S
H354 C368 0.939 . S
H355 C370 0.940 . S
H356 C371 0.940 . S
H357 C373 0.939 . S
H358 C374 0.942 . S
H359 C376 0.940 . S
H360 C377 0.939 . S
H361 C379 0.941 . S
H362 C383 0.939 . S
O363 P352 1.490 . S
H364 C380 0.939 . S
H365 C382 0.940 . S
C366 P352 1.812 . S
C366 C367 1.389 . S
C366 C371 1.391 . S
C367 H353 0.941 . S
C367 C366 1.389 . S
C367 C368 1.397 . S
C368 H354 0.939 . S
C368 C367 1.397 . S
C368 C369 1.378 . S
C369 C368 1.378 . S
C369 C370 1.378 . S
C370 H355 0.940 . S
C370 C369 1.378 . S
C370 C371 1.396 . S
C371 H356 0.940 . S
C371 C366 1.391 . S
C371 C370 1.396 . S
C372 P352 1.803 . S
C372 C373 1.378 . S
C372 C377 1.400 . S
C373 H357 0.939 . S
C373 C372 1.378 . S
C373 C374 1.361 . S
C374 H358 0.942 . S
C374 C373 1.361 . S
C374 C375 1.369 . S
C375 C374 1.369 . S
C375 C376 1.404 . S
C376 H359 0.940 . S
C376 C375 1.404 . S
C376 C377 1.389 . S
C377 H360 0.939 . S
C377 C372 1.400 . S
C377 C376 1.389 . S
C378 P352 1.819 . S
C378 C379 1.391 . S
C378 C383 1.391 . S
C379 H361 0.941 . S
C379 C378 1.391 . S
C379 C380 1.396 . S
C380 H364 0.939 . S
C380 C379 1.396 . S
C380 C381 1.397 . S
C381 C380 1.397 . S
C381 C382 1.385 . S
C382 H365 0.940 . S
C382 C381 1.385 . S
C382 C383 1.388 . S
C383 H362 0.939 . S
C383 C378 1.391 . S
C383 C382 1.388 . S
P384 O395 1.490 . S
P384 C398 1.812 . S
P384 C404 1.803 . S
P384 C410 1.819 . S
H385 C399 0.941 . S
H386 C400 0.939 . S
H387 C402 0.940 . S
H388 C403 0.940 . S
H389 C405 0.939 . S
H390 C406 0.942 . S
H391 C408 0.940 . S
H392 C409 0.939 . S
H393 C411 0.941 . S
H394 C415 0.939 . S
O395 P384 1.490 . S
H396 C412 0.939 . S
H397 C414 0.940 . S
C398 P384 1.812 . S
C398 C399 1.389 . S
C398 C403 1.391 . S
C399 H385 0.941 . S
C399 C398 1.389 . S
C399 C400 1.397 . S
C400 H386 0.939 . S
C400 C399 1.397 . S
C400 C401 1.378 . S
C401 C400 1.378 . S
C401 C402 1.378 . S
C402 H387 0.940 . S
C402 C401 1.378 . S
C402 C403 1.396 . S
C403 H388 0.940 . S
C403 C398 1.391 . S
C403 C402 1.396 . S
C404 P384 1.803 . S
C404 C405 1.378 . S
C404 C409 1.400 . S
C405 H389 0.939 . S
C405 C404 1.378 . S
C405 C406 1.361 . S
C406 H390 0.942 . S
C406 C405 1.361 . S
C406 C407 1.369 . S
C407 C406 1.369 . S
C407 C408 1.404 . S
C408 H391 0.940 . S
C408 C407 1.404 . S
C408 C409 1.389 . S
C409 H392 0.939 . S
C409 C404 1.400 . S
C409 C408 1.389 . S
C410 P384 1.819 . S
C410 C411 1.391 . S
C410 C415 1.391 . S
C411 H393 0.941 . S
C411 C410 1.391 . S
C411 C412 1.396 . S
C412 H396 0.939 . S
C412 C411 1.396 . S
C412 C413 1.397 . S
C413 C412 1.397 . S
C413 C414 1.385 . S
C414 H397 0.940 . S
C414 C413 1.385 . S
C414 C415 1.388 . S
C415 H394 0.939 . S
C415 C410 1.391 . S
C415 C414 1.388 . S
P416 O427 1.490 . S
P416 C430 1.812 . S
P416 C436 1.803 . S
P416 C442 1.819 . S
H417 C431 0.941 . S
H418 C432 0.939 . S
H419 C434 0.940 . S
H420 C435 0.940 . S
H421 C437 0.939 . S
H422 C438 0.942 . S
H423 C440 0.940 . S
H424 C441 0.939 . S
H425 C443 0.941 . S
H426 C447 0.939 . S
O427 P416 1.490 . S
H428 C444 0.939 . S
H429 C446 0.940 . S
C430 P416 1.812 . S
C430 C431 1.389 . S
C430 C435 1.391 . S
C431 H417 0.941 . S
C431 C430 1.389 . S
C431 C432 1.397 . S
C432 H418 0.939 . S
C432 C431 1.397 . S
C432 C433 1.378 . S
C433 C432 1.378 . S
C433 C434 1.378 . S
C434 H419 0.940 . S
C434 C433 1.378 . S
C434 C435 1.396 . S
C435 H420 0.940 . S
C435 C430 1.391 . S
C435 C434 1.396 . S
C436 P416 1.803 . S
C436 C437 1.378 . S
C436 C441 1.400 1_556 S
C437 H421 0.939 . S
C437 C436 1.378 . S
C437 C438 1.361 1_556 S
C438 H422 0.942 . S
C438 C437 1.361 1_554 S
C438 C439 1.369 . S
C439 C438 1.369 . S
C439 C440 1.404 . S
C440 H423 0.940 . S
C440 C439 1.404 . S
C440 C441 1.389 . S
C441 H424 0.939 . S
C441 C436 1.400 1_554 S
C441 C440 1.389 . S
C442 P416 1.819 . S
C442 C443 1.391 . S
C442 C447 1.391 . S
C443 H425 0.941 . S
C443 C442 1.391 . S
C443 C444 1.396 . S
C444 H428 0.939 . S
C444 C443 1.396 . S
C444 C445 1.397 . S
C445 C444 1.397 . S
C445 C446 1.385 . S
C446 H429 0.940 . S
C446 C445 1.385 . S
C446 C447 1.388 . S
C447 H426 0.939 . S
C447 C442 1.391 . S
C447 C446 1.388 . S
P448 O459 1.490 . S
P448 C462 1.812 . S
P448 C468 1.803 . S
P448 C474 1.819 . S
H449 C463 0.941 . S
H450 C464 0.939 . S
H451 C466 0.940 . S
H452 C467 0.940 . S
H453 C469 0.939 . S
H454 C470 0.942 . S
H455 C472 0.940 . S
H456 C473 0.939 . S
H457 C475 0.941 . S
H458 C479 0.939 . S
O459 P448 1.490 . S
H460 C476 0.939 . S
H461 C478 0.940 . S
C462 P448 1.812 . S
C462 C463 1.389 . S
C462 C467 1.391 . S
C463 H449 0.941 . S
C463 C462 1.389 . S
C463 C464 1.397 . S
C464 H450 0.939 . S
C464 C463 1.397 . S
C464 C465 1.378 . S
C465 C464 1.378 . S
C465 C466 1.378 . S
C466 H451 0.940 . S
C466 C465 1.378 . S
C466 C467 1.396 . S
C467 H452 0.940 . S
C467 C462 1.391 . S
C467 C466 1.396 . S
C468 P448 1.803 . S
C468 C469 1.378 . S
C468 C473 1.400 . S
C469 H453 0.939 . S
C469 C468 1.378 . S
C469 C470 1.361 . S
C470 H454 0.942 . S
C470 C469 1.361 . S
C470 C471 1.369 . S
C471 C470 1.369 . S
C471 C472 1.404 . S
C472 H455 0.940 . S
C472 C471 1.404 . S
C472 C473 1.389 . S
C473 H456 0.939 . S
C473 C468 1.400 . S
C473 C472 1.389 . S
C474 P448 1.819 . S
C474 C475 1.391 . S
C474 C479 1.391 . S
C475 H457 0.941 . S
C475 C474 1.391 . S
C475 C476 1.396 . S
C476 H460 0.939 . S
C476 C475 1.396 . S
C476 C477 1.397 . S
C477 C476 1.397 . S
C477 C478 1.385 . S
C478 H461 0.940 . S
C478 C477 1.385 . S
C478 C479 1.388 . S
C479 H458 0.939 . S
C479 C474 1.391 . S
C479 C478 1.388 . S
P480 O491 1.490 1_545 S
P480 C494 1.812 1_554 S
P480 C500 1.803 . S
P480 C506 1.819 1_545 S
H481 C495 0.941 . S
H482 C496 0.939 . S
H483 C498 0.940 . S
H484 C499 0.940 . S
H485 C501 0.939 . S
H486 C502 0.942 . S
H487 C504 0.940 . S
H488 C505 0.939 1_556 S
H489 C507 0.941 . S
H490 C511 0.939 . S
O491 P480 1.490 1_565 S
H492 C508 0.939 1_556 S
H493 C510 0.940 1_545 S
C494 P480 1.812 1_556 S
C494 C495 1.389 . S
C494 C499 1.391 . S
C495 H481 0.941 . S
C495 C494 1.389 . S
C495 C496 1.397 . S
C496 H482 0.939 . S
C496 C495 1.397 . S
C496 C497 1.378 . S
C497 C496 1.378 . S
C497 C498 1.378 . S
C498 H483 0.940 . S
C498 C497 1.378 . S
C498 C499 1.396 . S
C499 H484 0.940 . S
C499 C494 1.391 . S
C499 C498 1.396 . S
C500 P480 1.803 . S
C500 C501 1.378 . S
C500 C505 1.400 . S
C501 H485 0.939 . S
C501 C500 1.378 . S
C501 C502 1.361 . S
C502 H486 0.942 . S
C502 C501 1.361 . S
C502 C503 1.369 . S
C503 C502 1.369 . S
C503 C504 1.404 . S
C504 H487 0.940 . S
C504 C503 1.404 . S
C504 C505 1.389 . S
C505 H488 0.939 1_554 S
C505 C500 1.400 . S
C505 C504 1.389 . S
C506 P480 1.819 1_565 S
C506 C507 1.391 . S
C506 C511 1.391 1_565 S
C507 H489 0.941 . S
C507 C506 1.391 . S
C507 C508 1.396 . S
C508 H492 0.939 1_554 S
C508 C507 1.396 . S
C508 C509 1.397 . S
C509 C508 1.397 . S
C509 C510 1.385 . S
C510 H493 0.940 1_565 S
C510 C509 1.385 . S
C510 C511 1.388 1_565 S
C511 H490 0.939 . S
C511 C506 1.391 1_545 S
C511 C510 1.388 1_545 S
Mn512 O517 2.095 . S
Mn512 O527 2.162 . S
Mn512 O528 2.297 . S
Mn512 O536 2.385 1_554 S
Mn512 O537 2.209 1_554 S
Mn512 O538 2.094 . S
Mn513 O518 2.121 . S
Mn513 N520 2.257 . S
Mn513 N529 2.282 . S
Mn513 O537 2.215 . S
Mn513 O539 2.117 . S
C514 O536 1.234 . S
C514 O537 1.283 . S
C515 O527 1.281 . S
C515 O528 1.236 . S
C516 O538 1.240 . S
C516 O539 1.264 1_554 S
O517 Mn512 2.095 . S
O517 C526 1.250 . S
O518 Mn513 2.121 . S
O518 C526 1.258 1_556 S
C519 N520 1.326 . S
C519 C523 1.460 . S
C519 H525 0.929 . S
N520 Mn513 2.257 . S
N520 C519 1.326 . S
N520 C524 1.362 . S
C521 C522 1.258 . S
C521 C524 1.431 . S
C521 C541 1.449 . S
C522 C521 1.258 . S
C522 C523 1.477 . S
C522 H542 0.931 . S
C523 C519 1.460 . S
C523 C522 1.477 . S
C523 H543 0.930 . S
C524 N520 1.362 . S
C524 C521 1.431 . S
C524 C534 1.476 . S
H525 C519 0.929 . S
C526 O517 1.250 . S
C526 O518 1.258 1_554 S
O527 Mn512 2.162 . S
O527 C515 1.281 . S
O528 Mn512 2.297 . S
O528 C515 1.236 . S
N529 Mn513 2.282 . S
N529 C530 1.328 . S
N529 C534 1.318 . S
C530 N529 1.328 . S
C530 C531 1.457 . S
C530 H535 0.929 . S
C531 C530 1.457 . S
C531 C532 1.291 . S
C531 H544 0.931 . S
C532 C531 1.291 . S
C532 C533 1.373 . S
C532 H545 0.929 . S
C533 C532 1.373 . S
C533 C534 1.396 . S
C533 C540 1.403 . S
C534 C524 1.476 . S
C534 N529 1.318 . S
C534 C533 1.396 . S
H535 C530 0.929 . S
O536 Mn512 2.385 1_556 S
O536 C514 1.234 . S
O537 Mn512 2.209 1_556 S
O537 Mn513 2.215 . S
O537 C514 1.283 . S
O538 Mn512 2.094 . S
O538 C516 1.240 . S
O539 Mn513 2.117 . S
O539 C516 1.264 1_556 S
C540 C533 1.403 . S
C540 C541 1.399 . S
C540 H546 0.929 . S
C541 C521 1.449 . S
C541 C540 1.399 . S
C541 H547 0.930 . S
H542 C522 0.931 . S
H543 C523 0.930 . S
H544 C531 0.931 . S
H545 C532 0.929 . S
H546 C540 0.929 . S
H547 C541 0.930 . S
Mn548 O553 2.095 . S
Mn548 O563 2.162 . S
Mn548 O564 2.297 . S
Mn548 O572 2.385 . S
Mn548 O573 2.209 . S
Mn548 O574 2.094 . S
Mn549 O554 2.121 . S
Mn549 N556 2.257 . S
Mn549 N565 2.282 . S
Mn549 O573 2.215 . S
Mn549 O575 2.117 . S
C550 O572 1.234 . S
C550 O573 1.283 . S
C551 O563 1.281 . S
C551 O564 1.236 . S
C552 O574 1.240 . S
C552 O575 1.264 . S
O553 Mn548 2.095 . S
O553 C562 1.250 . S
O554 Mn549 2.121 . S
O554 C562 1.258 . S
C555 N556 1.326 . S
C555 C559 1.460 . S
C555 H561 0.929 . S
N556 Mn549 2.257 . S
N556 C555 1.326 . S
N556 C560 1.362 . S
C557 C558 1.258 . S
C557 C560 1.431 . S
C557 C577 1.449 . S
C558 C557 1.258 . S
C558 C559 1.477 . S
C558 H578 0.931 . S
C559 C555 1.460 . S
C559 C558 1.477 . S
C559 H579 0.930 . S
C560 N556 1.362 . S
C560 C557 1.431 . S
C560 C570 1.476 . S
H561 C555 0.929 . S
C562 O553 1.250 . S
C562 O554 1.258 . S
O563 Mn548 2.162 . S
O563 C551 1.281 . S
O564 Mn548 2.297 . S
O564 C551 1.236 . S
N565 Mn549 2.282 . S
N565 C566 1.328 . S
N565 C570 1.318 . S
C566 N565 1.328 . S
C566 C567 1.457 . S
C566 H571 0.929 . S
C567 C566 1.457 . S
C567 C568 1.291 . S
C567 H580 0.931 . S
C568 C567 1.291 . S
C568 C569 1.373 . S
C568 H581 0.929 . S
C569 C568 1.373 . S
C569 C570 1.396 . S
C569 C576 1.403 . S
C570 C560 1.476 . S
C570 N565 1.318 . S
C570 C569 1.396 . S
H571 C566 0.929 . S
O572 Mn548 2.385 . S
O572 C550 1.234 . S
O573 Mn548 2.209 . S
O573 Mn549 2.215 . S
O573 C550 1.283 . S
O574 Mn548 2.094 . S
O574 C552 1.240 . S
O575 Mn549 2.117 . S
O575 C552 1.264 . S
C576 C569 1.403 . S
C576 C577 1.399 . S
C576 H582 0.929 . S
C577 C557 1.449 . S
C577 C576 1.399 . S
C577 H583 0.930 . S
H578 C558 0.931 . S
H579 C559 0.930 . S
H580 C567 0.931 . S
H581 C568 0.929 . S
H582 C576 0.929 . S
H583 C577 0.930 . S
Mn584 O589 2.095 1_554 S
Mn584 O599 2.162 . S
Mn584 O600 2.297 1_554 S
Mn584 O608 2.385 . S
Mn584 O609 2.209 1_554 S
Mn584 O610 2.094 . S
Mn585 O590 2.121 . S
Mn585 N592 2.257 . S
Mn585 N601 2.282 1_556 S
Mn585 O609 2.215 . S
Mn585 O611 2.117 1_556 S
C586 O608 1.234 . S
C586 O609 1.283 1_554 S
C587 O599 1.281 . S
C587 O600 1.236 1_554 S
C588 O610 1.240 . S
C588 O611 1.264 . S
O589 Mn584 2.095 1_556 S
O589 C598 1.250 . S
O590 Mn585 2.121 . S
O590 C598 1.258 . S
C591 N592 1.326 . S
C591 C595 1.460 . S
C591 H597 0.929 . S
N592 Mn585 2.257 . S
N592 C591 1.326 . S
N592 C596 1.362 . S
C593 C594 1.258 . S
C593 C596 1.431 . S
C593 C613 1.449 . S
C594 C593 1.258 . S
C594 C595 1.477 . S
C594 H614 0.931 . S
C595 C591 1.460 . S
C595 C594 1.477 . S
C595 H615 0.930 . S
C596 N592 1.362 . S
C596 C593 1.431 . S
C596 C606 1.476 . S
H597 C591 0.929 . S
C598 O589 1.250 . S
C598 O590 1.258 . S
O599 Mn584 2.162 . S
O599 C587 1.281 . S
O600 Mn584 2.297 1_556 S
O600 C587 1.236 1_556 S
N601 Mn585 2.282 1_554 S
N601 C602 1.328 . S
N601 C606 1.318 1_554 S
C602 N601 1.328 . S
C602 C603 1.457 . S
C602 H607 0.929 . S
C603 C602 1.457 . S
C603 C604 1.291 . S
C603 H616 0.931 . S
C604 C603 1.291 . S
C604 C605 1.373 1_554 S
C604 H617 0.929 . S
C605 C604 1.373 1_556 S
C605 C606 1.396 . S
C605 C612 1.403 . S
C606 C596 1.476 . S
C606 N601 1.318 1_556 S
C606 C605 1.396 . S
H607 C602 0.929 . S
O608 Mn584 2.385 . S
O608 C586 1.234 . S
O609 Mn584 2.209 1_556 S
O609 Mn585 2.215 . S
O609 C586 1.283 1_556 S
O610 Mn584 2.094 . S
O610 C588 1.240 . S
O611 Mn585 2.117 1_554 S
O611 C588 1.264 . S
C612 C605 1.403 . S
C612 C613 1.399 . S
C612 H618 0.929 . S
C613 C593 1.449 . S
C613 C612 1.399 . S
C613 H619 0.930 . S
H614 C594 0.931 . S
H615 C595 0.930 . S
H616 C603 0.931 . S
H617 C604 0.929 . S
H618 C612 0.929 . S
H619 C613 0.930 . S
Mn620 O625 2.095 . S
Mn620 O635 2.162 . S
Mn620 O636 2.297 . S
Mn620 O644 2.385 1_545 S
Mn620 O645 2.209 1_545 S
Mn620 O646 2.094 . S
Mn621 O626 2.121 . S
Mn621 N628 2.257 . S
Mn621 N637 2.282 . S
Mn621 O645 2.215 . S
Mn621 O647 2.117 . S
C622 O644 1.234 . S
C622 O645 1.283 . S
C623 O635 1.281 . S
C623 O636 1.236 . S
C624 O646 1.240 . S
C624 O647 1.264 1_545 S
O625 Mn620 2.095 . S
O625 C634 1.250 1_545 S
O626 Mn621 2.121 . S
O626 C634 1.258 . S
C627 N628 1.326 . S
C627 C631 1.460 . S
C627 H633 0.929 . S
N628 Mn621 2.257 . S
N628 C627 1.326 . S
N628 C632 1.362 . S
C629 C630 1.258 . S
C629 C632 1.431 . S
C629 C649 1.449 . S
C630 C629 1.258 . S
C630 C631 1.477 . S
C630 H650 0.931 . S
C631 C627 1.460 . S
C631 C630 1.477 . S
C631 H651 0.930 . S
C632 N628 1.362 . S
C632 C629 1.431 . S
C632 C642 1.476 . S
H633 C627 0.929 . S
C634 O625 1.250 1_565 S
C634 O626 1.258 . S
O635 Mn620 2.162 . S
O635 C623 1.281 . S
O636 Mn620 2.297 . S
O636 C623 1.236 . S
N637 Mn621 2.282 . S
N637 C638 1.328 . S
N637 C642 1.318 . S
C638 N637 1.328 . S
C638 C639 1.457 . S
C638 H643 0.929 . S
C639 C638 1.457 . S
C639 C640 1.291 . S
C639 H652 0.931 . S
C640 C639 1.291 . S
C640 C641 1.373 . S
C640 H653 0.929 . S
C641 C640 1.373 . S
C641 C642 1.396 . S
C641 C648 1.403 . S
C642 C632 1.476 . S
C642 N637 1.318 . S
C642 C641 1.396 . S
H643 C638 0.929 . S
O644 Mn620 2.385 1_565 S
O644 C622 1.234 . S
O645 Mn620 2.209 1_565 S
O645 Mn621 2.215 . S
O645 C622 1.283 . S
O646 Mn620 2.094 . S
O646 C624 1.240 . S
O647 Mn621 2.117 . S
O647 C624 1.264 1_565 S
C648 C641 1.403 . S
C648 C649 1.399 . S
C648 H654 0.929 . S
C649 C629 1.449 . S
C649 C648 1.399 . S
C649 H655 0.930 . S
H650 C630 0.931 . S
H651 C631 0.930 . S
H652 C639 0.931 . S
H653 C640 0.929 . S
H654 C648 0.929 . S
H655 C649 0.930 . S
Mn656 O661 2.095 . S
Mn656 O671 2.162 . S
Mn656 O672 2.297 . S
Mn656 O680 2.385 . S
Mn656 O681 2.209 . S
Mn656 O682 2.094 . S
Mn657 O662 2.121 . S
Mn657 N664 2.257 . S
Mn657 N673 2.282 . S
Mn657 O681 2.215 . S
Mn657 O683 2.117 . S
C658 O680 1.234 . S
C658 O681 1.283 . S
C659 O671 1.281 . S
C659 O672 1.236 . S
C660 O682 1.240 . S
C660 O683 1.264 . S
O661 Mn656 2.095 . S
O661 C670 1.250 . S
O662 Mn657 2.121 . S
O662 C670 1.258 . S
C663 N664 1.326 . S
C663 C667 1.460 . S
C663 H669 0.929 . S
N664 Mn657 2.257 . S
N664 C663 1.326 . S
N664 C668 1.362 . S
C665 C666 1.258 . S
C665 C668 1.431 . S
C665 C685 1.449 . S
C666 C665 1.258 . S
C666 C667 1.477 . S
C666 H686 0.931 . S
C667 C663 1.460 . S
C667 C666 1.477 . S
C667 H687 0.930 . S
C668 N664 1.362 . S
C668 C665 1.431 . S
C668 C678 1.476 . S
H669 C663 0.929 . S
C670 O661 1.250 . S
C670 O662 1.258 . S
O671 Mn656 2.162 . S
O671 C659 1.281 . S
O672 Mn656 2.297 . S
O672 C659 1.236 . S
N673 Mn657 2.282 . S
N673 C674 1.328 . S
N673 C678 1.318 . S
C674 N673 1.328 . S
C674 C675 1.457 . S
C674 H679 0.929 . S
C675 C674 1.457 . S
C675 C676 1.291 . S
C675 H688 0.931 . S
C676 C675 1.291 . S
C676 C677 1.373 . S
C676 H689 0.929 . S
C677 C676 1.373 . S
C677 C678 1.396 . S
C677 C684 1.403 . S
C678 C668 1.476 . S
C678 N673 1.318 . S
C678 C677 1.396 . S
H679 C674 0.929 . S
O680 Mn656 2.385 . S
O680 C658 1.234 . S
O681 Mn656 2.209 . S
O681 Mn657 2.215 . S
O681 C658 1.283 . S
O682 Mn656 2.094 . S
O682 C660 1.240 . S
O683 Mn657 2.117 . S
O683 C660 1.264 . S
C684 C677 1.403 . S
C684 C685 1.399 . S
C684 H690 0.929 1_455 S
C685 C665 1.449 . S
C685 C684 1.399 . S
C685 H691 0.930 1_455 S
H686 C666 0.931 . S
H687 C667 0.930 . S
H688 C675 0.931 . S
H689 C676 0.929 . S
H690 C684 0.929 1_655 S
H691 C685 0.930 1_655 S
Mn692 O697 2.095 . S
Mn692 O707 2.162 . S
Mn692 O708 2.297 . S
Mn692 O716 2.385 . S
Mn692 O717 2.209 . S
Mn692 O718 2.094 . S
Mn693 O698 2.121 . S
Mn693 N700 2.257 . S
Mn693 N709 2.282 . S
Mn693 O717 2.215 . S
Mn693 O719 2.117 . S
C694 O716 1.234 . S
C694 O717 1.283 . S
C695 O707 1.281 . S
C695 O708 1.236 . S
C696 O718 1.240 . S
C696 O719 1.264 . S
O697 Mn692 2.095 . S
O697 C706 1.250 . S
O698 Mn693 2.121 . S
O698 C706 1.258 . S
C699 N700 1.326 . S
C699 C703 1.460 . S
C699 H705 0.929 . S
N700 Mn693 2.257 . S
N700 C699 1.326 . S
N700 C704 1.362 . S
C701 C702 1.258 . S
C701 C704 1.431 . S
C701 C721 1.449 . S
C702 C701 1.258 . S
C702 C703 1.477 . S
C702 H722 0.931 . S
C703 C699 1.460 . S
C703 C702 1.477 . S
C703 H723 0.930 . S
C704 N700 1.362 . S
C704 C701 1.431 . S
C704 C714 1.476 . S
H705 C699 0.929 . S
C706 O697 1.250 . S
C706 O698 1.258 . S
O707 Mn692 2.162 . S
O707 C695 1.281 . S
O708 Mn692 2.297 . S
O708 C695 1.236 . S
N709 Mn693 2.282 . S
N709 C710 1.328 . S
N709 C714 1.318 . S
C710 N709 1.328 . S
C710 C711 1.457 . S
C710 H715 0.929 . S
C711 C710 1.457 . S
C711 C712 1.291 . S
C711 H724 0.931 . S
C712 C711 1.291 . S
C712 C713 1.373 . S
C712 H725 0.929 . S
C713 C712 1.373 . S
C713 C714 1.396 . S
C713 C720 1.403 . S
C714 C704 1.476 . S
C714 N709 1.318 . S
C714 C713 1.396 . S
H715 C710 0.929 . S
O716 Mn692 2.385 . S
O716 C694 1.234 . S
O717 Mn692 2.209 . S
O717 Mn693 2.215 . S
O717 C694 1.283 . S
O718 Mn692 2.094 . S
O718 C696 1.240 . S
O719 Mn693 2.117 . S
O719 C696 1.264 . S
C720 C713 1.403 . S
C720 C721 1.399 . S
C720 H726 0.929 . S
C721 C701 1.449 . S
C721 C720 1.399 . S
C721 H727 0.930 . S
H722 C702 0.931 . S
H723 C703 0.930 . S
H724 C711 0.931 . S
H725 C712 0.929 . S
H726 C720 0.929 . S
H727 C721 0.930 . S
Mn728 O733 2.095 . S
Mn728 O743 2.162 . S
Mn728 O744 2.297 . S
Mn728 O752 2.385 . S
Mn728 O753 2.209 . S
Mn728 O754 2.094 . S
Mn729 O734 2.121 . S
Mn729 N736 2.257 . S
Mn729 N745 2.282 . S
Mn729 O753 2.215 . S
Mn729 O755 2.117 . S
C730 O752 1.234 . S
C730 O753 1.283 . S
C731 O743 1.281 . S
C731 O744 1.236 . S
C732 O754 1.240 . S
C732 O755 1.264 . S
O733 Mn728 2.095 . S
O733 C742 1.250 . S
O734 Mn729 2.121 . S
O734 C742 1.258 . S
C735 N736 1.326 . S
C735 C739 1.460 . S
C735 H741 0.929 . S
N736 Mn729 2.257 . S
N736 C735 1.326 . S
N736 C740 1.362 . S
C737 C738 1.258 . S
C737 C740 1.431 . S
C737 C757 1.449 . S
C738 C737 1.258 . S
C738 C739 1.477 . S
C738 H758 0.931 . S
C739 C735 1.460 . S
C739 C738 1.477 . S
C739 H759 0.930 . S
C740 N736 1.362 . S
C740 C737 1.431 . S
C740 C750 1.476 . S
H741 C735 0.929 . S
C742 O733 1.250 . S
C742 O734 1.258 . S
O743 Mn728 2.162 . S
O743 C731 1.281 . S
O744 Mn728 2.297 . S
O744 C731 1.236 . S
N745 Mn729 2.282 . S
N745 C746 1.328 . S
N745 C750 1.318 . S
C746 N745 1.328 . S
C746 C747 1.457 . S
C746 H751 0.929 . S
C747 C746 1.457 . S
C747 C748 1.291 . S
C747 H760 0.931 . S
C748 C747 1.291 . S
C748 C749 1.373 . S
C748 H761 0.929 . S
C749 C748 1.373 . S
C749 C750 1.396 . S
C749 C756 1.403 . S
C750 C740 1.476 . S
C750 N745 1.318 . S
C750 C749 1.396 . S
H751 C746 0.929 . S
O752 Mn728 2.385 . S
O752 C730 1.234 . S
O753 Mn728 2.209 . S
O753 Mn729 2.215 . S
O753 C730 1.283 . S
O754 Mn728 2.094 . S
O754 C732 1.240 . S
O755 Mn729 2.117 . S
O755 C732 1.264 . S
C756 C749 1.403 . S
C756 C757 1.399 . S
C756 H762 0.929 . S
C757 C737 1.449 . S
C757 C756 1.399 . S
C757 H763 0.930 . S
H758 C738 0.931 . S
H759 C739 0.930 . S
H760 C747 0.931 . S
H761 C748 0.929 . S
H762 C756 0.929 . S
H763 C757 0.930 . S
Mn764 O769 2.095 . S
Mn764 O779 2.162 . S
Mn764 O780 2.297 . S
Mn764 O788 2.385 1_565 S
Mn764 O789 2.209 1_565 S
Mn764 O790 2.094 . S
Mn765 O770 2.121 . S
Mn765 N772 2.257 . S
Mn765 N781 2.282 . S
Mn765 O789 2.215 . S
Mn765 O791 2.117 . S
C766 O788 1.234 . S
C766 O789 1.283 . S
C767 O779 1.281 . S
C767 O780 1.236 . S
C768 O790 1.240 1_545 S
C768 O791 1.264 . S
O769 Mn764 2.095 . S
O769 C778 1.250 1_565 S
O770 Mn765 2.121 . S
O770 C778 1.258 . S
C771 N772 1.326 . S
C771 C775 1.460 . S
C771 H777 0.929 . S
N772 Mn765 2.257 . S
N772 C771 1.326 . S
N772 C776 1.362 . S
C773 C774 1.258 . S
C773 C776 1.431 . S
C773 C793 1.449 . S
C774 C773 1.258 . S
C774 C775 1.477 . S
C774 H794 0.931 . S
C775 C771 1.460 . S
C775 C774 1.477 . S
C775 H795 0.930 . S
C776 N772 1.362 . S
C776 C773 1.431 . S
C776 C786 1.476 . S
H777 C771 0.929 . S
C778 O769 1.250 1_545 S
C778 O770 1.258 . S
O779 Mn764 2.162 . S
O779 C767 1.281 . S
O780 Mn764 2.297 . S
O780 C767 1.236 . S
N781 Mn765 2.282 . S
N781 C782 1.328 . S
N781 C786 1.318 . S
C782 N781 1.328 . S
C782 C783 1.457 . S
C782 H787 0.929 . S
C783 C782 1.457 . S
C783 C784 1.291 . S
C783 H796 0.931 . S
C784 C783 1.291 . S
C784 C785 1.373 . S
C784 H797 0.929 . S
C785 C784 1.373 . S
C785 C786 1.396 . S
C785 C792 1.403 . S
C786 C776 1.476 . S
C786 N781 1.318 . S
C786 C785 1.396 . S
H787 C782 0.929 . S
O788 Mn764 2.385 1_545 S
O788 C766 1.234 . S
O789 Mn764 2.209 1_545 S
O789 Mn765 2.215 . S
O789 C766 1.283 . S
O790 Mn764 2.094 . S
O790 C768 1.240 1_565 S
O791 Mn765 2.117 . S
O791 C768 1.264 . S
C792 C785 1.403 . S
C792 C793 1.399 . S
C792 H798 0.929 . S
C793 C773 1.449 . S
C793 C792 1.399 . S
C793 H799 0.930 . S
H794 C774 0.931 . S
H795 C775 0.930 . S
H796 C783 0.931 . S
H797 C784 0.929 . S
H798 C792 0.929 . S
H799 C793 0.930 . S
Mn800 O805 2.095 . S
Mn800 O815 2.162 . S
Mn800 O816 2.297 . S
Mn800 O824 2.385 1_455 S
Mn800 O825 2.209 1_455 S
Mn800 O826 2.094 . S
Mn801 O806 2.121 . S
Mn801 N808 2.257 . S
Mn801 N817 2.282 . S
Mn801 O825 2.215 . S
Mn801 O827 2.117 . S
C802 O824 1.234 . S
C802 O825 1.283 . S
C803 O815 1.281 . S
C803 O816 1.236 . S
C804 O826 1.240 . S
C804 O827 1.264 1_455 S
O805 Mn800 2.095 . S
O805 C814 1.250 1_455 S
O806 Mn801 2.121 . S
O806 C814 1.258 . S
C807 N808 1.326 . S
C807 C811 1.460 . S
C807 H813 0.929 . S
N808 Mn801 2.257 . S
N808 C807 1.326 . S
N808 C812 1.362 . S
C809 C810 1.258 . S
C809 C812 1.431 . S
C809 C829 1.449 . S
C810 C809 1.258 . S
C810 C811 1.477 . S
C810 H830 0.931 . S
C811 C807 1.460 . S
C811 C810 1.477 . S
C811 H831 0.930 . S
C812 N808 1.362 . S
C812 C809 1.431 . S
C812 C822 1.476 . S
H813 C807 0.929 . S
C814 O805 1.250 1_655 S
C814 O806 1.258 . S
O815 Mn800 2.162 . S
O815 C803 1.281 . S
O816 Mn800 2.297 . S
O816 C803 1.236 . S
N817 Mn801 2.282 . S
N817 C818 1.328 . S
N817 C822 1.318 . S
C818 N817 1.328 . S
C818 C819 1.457 . S
C818 H823 0.929 . S
C819 C818 1.457 . S
C819 C820 1.291 . S
C819 H832 0.931 . S
C820 C819 1.291 . S
C820 C821 1.373 . S
C820 H833 0.929 . S
C821 C820 1.373 . S
C821 C822 1.396 . S
C821 C828 1.403 . S
C822 C812 1.476 . S
C822 N817 1.318 . S
C822 C821 1.396 . S
H823 C818 0.929 . S
O824 Mn800 2.385 1_655 S
O824 C802 1.234 . S
O825 Mn800 2.209 1_655 S
O825 Mn801 2.215 . S
O825 C802 1.283 . S
O826 Mn800 2.094 . S
O826 C804 1.240 . S
O827 Mn801 2.117 . S
O827 C804 1.264 1_655 S
C828 C821 1.403 . S
C828 C829 1.399 . S
C828 H834 0.929 . S
C829 C809 1.449 . S
C829 C828 1.399 . S
C829 H835 0.930 . S
H830 C810 0.931 . S
H831 C811 0.930 . S
H832 C819 0.931 . S
H833 C820 0.929 . S
H834 C828 0.929 . S
H835 C829 0.930 . S
Mn836 O841 2.095 . S
Mn836 O851 2.162 . S
Mn836 O852 2.297 . S
Mn836 O860 2.385 . S
Mn836 O861 2.209 . S
Mn836 O862 2.094 . S
Mn837 O842 2.121 . S
Mn837 N844 2.257 . S
Mn837 N853 2.282 . S
Mn837 O861 2.215 . S
Mn837 O863 2.117 . S
C838 O860 1.234 . S
C838 O861 1.283 . S
C839 O851 1.281 . S
C839 O852 1.236 . S
C840 O862 1.240 . S
C840 O863 1.264 . S
O841 Mn836 2.095 . S
O841 C850 1.250 . S
O842 Mn837 2.121 . S
O842 C850 1.258 . S
C843 N844 1.326 . S
C843 C847 1.460 . S
C843 H849 0.929 . S
N844 Mn837 2.257 . S
N844 C843 1.326 . S
N844 C848 1.362 . S
C845 C846 1.258 . S
C845 C848 1.431 . S
C845 C865 1.449 . S
C846 C845 1.258 . S
C846 C847 1.477 . S
C846 H866 0.931 . S
C847 C843 1.460 . S
C847 C846 1.477 . S
C847 H867 0.930 . S
C848 N844 1.362 . S
C848 C845 1.431 . S
C848 C858 1.476 . S
H849 C843 0.929 . S
C850 O841 1.250 . S
C850 O842 1.258 . S
O851 Mn836 2.162 . S
O851 C839 1.281 . S
O852 Mn836 2.297 . S
O852 C839 1.236 . S
N853 Mn837 2.282 . S
N853 C854 1.328 . S
N853 C858 1.318 . S
C854 N853 1.328 . S
C854 C855 1.457 . S
C854 H859 0.929 . S
C855 C854 1.457 . S
C855 C856 1.291 . S
C855 H868 0.931 . S
C856 C855 1.291 . S
C856 C857 1.373 . S
C856 H869 0.929 . S
C857 C856 1.373 . S
C857 C858 1.396 . S
C857 C864 1.403 . S
C858 C848 1.476 . S
C858 N853 1.318 . S
C858 C857 1.396 . S
H859 C854 0.929 . S
O860 Mn836 2.385 . S
O860 C838 1.234 . S
O861 Mn836 2.209 . S
O861 Mn837 2.215 . S
O861 C838 1.283 . S
O862 Mn836 2.094 . S
O862 C840 1.240 . S
O863 Mn837 2.117 . S
O863 C840 1.264 . S
C864 C857 1.403 . S
C864 C865 1.399 . S
C864 H870 0.929 . S
C865 C845 1.449 . S
C865 C864 1.399 . S
C865 H871 0.930 . S
H866 C846 0.931 . S
H867 C847 0.930 . S
H868 C855 0.931 . S
H869 C856 0.929 . S
H870 C864 0.929 . S
H871 C865 0.930 . S
Mn872 O877 2.095 1_455 S
Mn872 O887 2.162 . S
Mn872 O888 2.297 1_455 S
Mn872 O896 2.385 . S
Mn872 O897 2.209 1_455 S
Mn872 O898 2.094 . S
Mn873 O878 2.121 . S
Mn873 N880 2.257 . S
Mn873 N889 2.282 . S
Mn873 O897 2.215 . S
Mn873 O899 2.117 1_655 S
C874 O896 1.248 . S
C874 O897 1.272 1_455 S
C875 O887 1.281 . S
C875 O888 1.236 1_455 S
C876 O898 1.240 . S
C876 O899 1.264 . S
O877 Mn872 2.095 1_655 S
O877 C886 1.250 . S
O878 Mn873 2.121 . S
O878 C886 1.258 . S
C879 N880 1.326 . S
C879 C883 1.460 . S
C879 H885 0.929 . S
N880 Mn873 2.257 . S
N880 C879 1.326 . S
N880 C884 1.362 . S
C881 C882 1.258 . S
C881 C884 1.431 . S
C881 C901 1.449 . S
C882 C881 1.258 . S
C882 C883 1.477 . S
C882 H902 0.931 . S
C883 C879 1.460 . S
C883 C882 1.477 . S
C883 H903 0.930 . S
C884 N880 1.362 . S
C884 C881 1.431 . S
C884 C894 1.476 . S
H885 C879 0.929 . S
C886 O877 1.250 . S
C886 O878 1.258 . S
O887 Mn872 2.162 . S
O887 C875 1.281 . S
O888 Mn872 2.297 1_655 S
O888 C875 1.236 1_655 S
N889 Mn873 2.282 . S
N889 C890 1.328 1_655 S
N889 C894 1.318 . S
C890 N889 1.328 1_455 S
C890 C891 1.457 . S
C890 H895 0.929 . S
C891 C890 1.457 . S
C891 C892 1.291 . S
C891 H904 0.931 . S
C892 C891 1.291 . S
C892 C893 1.373 1_455 S
C892 H905 0.929 . S
C893 C892 1.373 1_655 S
C893 C894 1.396 . S
C893 C900 1.403 . S
C894 C884 1.476 . S
C894 N889 1.318 . S
C894 C893 1.396 . S
H895 C890 0.929 . S
O896 Mn872 2.385 . S
O896 C874 1.248 . S
O897 Mn872 2.209 1_655 S
O897 Mn873 2.215 . S
O897 C874 1.272 1_655 S
O898 Mn872 2.094 . S
O898 C876 1.240 . S
O899 Mn873 2.117 1_455 S
O899 C876 1.264 . S
C900 C893 1.403 . S
C900 C901 1.399 . S
C900 H906 0.929 . S
C901 C881 1.449 . S
C901 C900 1.399 . S
C901 H907 0.930 . S
H902 C882 0.931 . S
H903 C883 0.930 . S
H904 C891 0.931 . S
H905 C892 0.929 . S
H906 C900 0.929 . S
H907 C901 0.930 . S
Mn908 O913 2.095 . S
Mn908 O923 2.162 . S
Mn908 O924 2.297 . S
Mn908 O932 2.385 . S
Mn908 O933 2.209 . S
Mn908 O934 2.094 . S
Mn909 O914 2.121 . S
Mn909 N916 2.257 . S
Mn909 N925 2.282 . S
Mn909 O933 2.215 . S
Mn909 O935 2.117 . S
C910 O932 1.234 . S
C910 O933 1.283 . S
C911 O923 1.281 . S
C911 O924 1.236 . S
C912 O934 1.240 . S
C912 O935 1.264 . S
O913 Mn908 2.095 . S
O913 C922 1.250 . S
O914 Mn909 2.121 . S
O914 C922 1.258 . S
C915 N916 1.326 . S
C915 C919 1.460 . S
C915 H921 0.929 . S
N916 Mn909 2.257 . S
N916 C915 1.326 . S
N916 C920 1.362 . S
C917 C918 1.258 . S
C917 C920 1.431 . S
C917 C937 1.449 . S
C918 C917 1.258 . S
C918 C919 1.477 . S
C918 H938 0.931 . S
C919 C915 1.460 . S
C919 C918 1.477 . S
C919 H939 0.930 . S
C920 N916 1.362 . S
C920 C917 1.431 . S
C920 C930 1.476 . S
H921 C915 0.929 . S
C922 O913 1.250 . S
C922 O914 1.258 . S
O923 Mn908 2.162 . S
O923 C911 1.281 . S
O924 Mn908 2.297 . S
O924 C911 1.236 . S
N925 Mn909 2.282 . S
N925 C926 1.328 . S
N925 C930 1.318 . S
C926 N925 1.328 . S
C926 C927 1.457 . S
C926 H931 0.929 . S
C927 C926 1.457 . S
C927 C928 1.291 . S
C927 H940 0.931 . S
C928 C927 1.291 . S
C928 C929 1.373 . S
C928 H941 0.929 . S
C929 C928 1.373 . S
C929 C930 1.396 . S
C929 C936 1.403 . S
C930 C920 1.476 . S
C930 N925 1.318 . S
C930 C929 1.396 . S
H931 C926 0.929 . S
O932 Mn908 2.385 . S
O932 C910 1.234 . S
O933 Mn908 2.209 . S
O933 Mn909 2.215 . S
O933 C910 1.283 . S
O934 Mn908 2.094 . S
O934 C912 1.240 . S
O935 Mn909 2.117 . S
O935 C912 1.264 . S
C936 C929 1.403 . S
C936 C937 1.399 . S
C936 H942 0.929 1_545 S
C937 C917 1.449 . S
C937 C936 1.399 . S
C937 H943 0.930 1_545 S
H938 C918 0.931 . S
H939 C919 0.930 . S
H940 C927 0.931 . S
H941 C928 0.929 . S
H942 C936 0.929 1_565 S
H943 C937 0.930 1_565 S
C514 C177 1.362 . S
C562 C209 1.789 . S
C253 C598 1.530 . S
C634 C157 1.474 . S
C660 C343 1.709 . S
C696 C401 1.509 . S
C369 C731 1.769 . S
C768 C317 1.641 1_545 S
C375 C802 1.622 . S
C850 C305 1.728 . S
C349 C803 1.788 . S
C840 C413 1.595 . S
C241 C886 1.611 . S
C151 C875 1.525 . S
C189 C876 1.451 . S
C215 C874 1.666 1_655 S
C113 C622 1.696 . S
C471 C623 1.427 . S
C526 C509 1.745 . S
C551 C279 1.642 . S
C145 C658 1.561 . S
C766 C381 1.730 . S
C659 C311 1.604 . S
C732 C407 1.551 . S
C730 C465 1.362 . S
C497 C778 1.789 . S
C285 C670 1.530 . S
C706 C445 1.474 . S
C119 C588 1.709 . S
C624 C17 1.509 . S
C515 C49 1.769 . S
C552 C93 1.641 . S
C55 C838 1.622 . S
C81 C814 1.728 . S
C125 C839 1.788 . S
C29 C804 1.596 . S
C922 C273 1.611 . S
C911 C439 1.525 . S
C912 C477 1.451 . S
C503 C910 1.665 . S
C337 C694 1.696 . S
C695 C183 1.427 . S
C742 C221 1.745 . S
C767 C247 1.642 . S
C433 C586 1.561 1_556 S
C550 C61 1.731 . S
C87 C587 1.604 . S
C516 C23 1.551 . S
