# Generated by pormake.
# Topology bwt, (3,3)-cn, num edge types: 1
# Building blocks:
#     Node 0, Type 0, BuildingBlock: WUSLED_clean_sbu_0, # of connection points: 3
#     Node 1, Type 0, BuildingBlock: WUSLED_clean_sbu_0, # of connection points: 3
#     Node 2, Type 0, BuildingBlock: WUSLED_clean_sbu_0, # of connection points: 3
#     Node 3, Type 0, BuildingBlock: WUSLED_clean_sbu_0, # of connection points: 3
#     Node 4, Type 0, BuildingBlock: WUSLED_clean_sbu_0, # of connection points: 3
#     Node 5, Type 0, BuildingBlock: WUSLED_clean_sbu_0, # of connection points: 3
#     Node 6, Type 0, BuildingBlock: WUSLED_clean_sbu_0, # of connection points: 3
#     Node 7, Type 0, BuildingBlock: WUSLED_clean_sbu_0, # of connection points: 3
#     Node 8, Type 0, BuildingBlock: WUSLED_clean_sbu_0, # of connection points: 3
#     Node 9, Type 0, BuildingBlock: WUSLED_clean_sbu_0, # of connection points: 3
#     Node 10, Type 0, BuildingBlock: WUSLED_clean_sbu_0, # of connection points: 3
#     Node 11, Type 0, BuildingBlock: WUSLED_clean_sbu_0, # of connection points: 3
#     Node 12, Type 0, BuildingBlock: WUSLED_clean_sbu_0, # of connection points: 3
#     Node 13, Type 0, BuildingBlock: WUSLED_clean_sbu_0, # of connection points: 3
#     Node 14, Type 0, BuildingBlock: WUSLED_clean_sbu_0, # of connection points: 3
#     Node 15, Type 0, BuildingBlock: WUSLED_clean_sbu_0, # of connection points: 3
#     Node 16, Type 0, BuildingBlock: WUSLED_clean_sbu_0, # of connection points: 3
#     Node 17, Type 0, BuildingBlock: WUSLED_clean_sbu_0, # of connection points: 3
#     Node 18, Type 0, BuildingBlock: WUSLED_clean_sbu_0, # of connection points: 3
#     Node 19, Type 0, BuildingBlock: WUSLED_clean_sbu_0, # of connection points: 3
#     Node 20, Type 0, BuildingBlock: WUSLED_clean_sbu_0, # of connection points: 3
#     Node 21, Type 0, BuildingBlock: WUSLED_clean_sbu_0, # of connection points: 3
#     Node 22, Type 0, BuildingBlock: WUSLED_clean_sbu_0, # of connection points: 3
#     Node 23, Type 0, BuildingBlock: WUSLED_clean_sbu_0, # of connection points: 3
#     Node 24, Type 1, BuildingBlock: QEWDON_clean_linker_0, # of connection points: 3
#     Node 25, Type 1, BuildingBlock: QEWDON_clean_linker_0, # of connection points: 3
#     Node 26, Type 1, BuildingBlock: QEWDON_clean_linker_0, # of connection points: 3
#     Node 27, Type 1, BuildingBlock: QEWDON_clean_linker_0, # of connection points: 3
#     Node 28, Type 1, BuildingBlock: QEWDON_clean_linker_0, # of connection points: 3
#     Node 29, Type 1, BuildingBlock: QEWDON_clean_linker_0, # of connection points: 3
#     Node 30, Type 1, BuildingBlock: QEWDON_clean_linker_0, # of connection points: 3
#     Node 31, Type 1, BuildingBlock: QEWDON_clean_linker_0, # of connection points: 3
#     Node 32, Type 1, BuildingBlock: QEWDON_clean_linker_0, # of connection points: 3
#     Node 33, Type 1, BuildingBlock: QEWDON_clean_linker_0, # of connection points: 3
#     Node 34, Type 1, BuildingBlock: QEWDON_clean_linker_0, # of connection points: 3
#     Node 35, Type 1, BuildingBlock: QEWDON_clean_linker_0, # of connection points: 3
#     Node 36, Type 1, BuildingBlock: QEWDON_clean_linker_0, # of connection points: 3
#     Node 37, Type 1, BuildingBlock: QEWDON_clean_linker_0, # of connection points: 3
#     Node 38, Type 1, BuildingBlock: QEWDON_clean_linker_0, # of connection points: 3
#     Node 39, Type 1, BuildingBlock: QEWDON_clean_linker_0, # of connection points: 3
#     Node 40, Type 1, BuildingBlock: QEWDON_clean_linker_0, # of connection points: 3
#     Node 41, Type 1, BuildingBlock: QEWDON_clean_linker_0, # of connection points: 3
#     Node 42, Type 1, BuildingBlock: QEWDON_clean_linker_0, # of connection points: 3
#     Node 43, Type 1, BuildingBlock: QEWDON_clean_linker_0, # of connection points: 3
#     Node 44, Type 1, BuildingBlock: QEWDON_clean_linker_0, # of connection points: 3
#     Node 45, Type 1, BuildingBlock: QEWDON_clean_linker_0, # of connection points: 3
#     Node 46, Type 1, BuildingBlock: QEWDON_clean_linker_0, # of connection points: 3
#     Node 47, Type 1, BuildingBlock: QEWDON_clean_linker_0, # of connection points: 3
#     Edge 48, Type (0, 1), BuildingBlock: AJUNOK_clean_linker_0, # of connection points: 2
#     Edge 49, Type (0, 1), BuildingBlock: AJUNOK_clean_linker_0, # of connection points: 2
#     Edge 50, Type (0, 1), BuildingBlock: AJUNOK_clean_linker_0, # of connection points: 2
#     Edge 51, Type (0, 1), BuildingBlock: AJUNOK_clean_linker_0, # of connection points: 2
#     Edge 52, Type (0, 1), BuildingBlock: AJUNOK_clean_linker_0, # of connection points: 2
#     Edge 53, Type (0, 1), BuildingBlock: AJUNOK_clean_linker_0, # of connection points: 2
#     Edge 54, Type (0, 1), BuildingBlock: AJUNOK_clean_linker_0, # of connection points: 2
#     Edge 55, Type (0, 1), BuildingBlock: AJUNOK_clean_linker_0, # of connection points: 2
#     Edge 56, Type (0, 1), BuildingBlock: AJUNOK_clean_linker_0, # of connection points: 2
#     Edge 57, Type (0, 1), BuildingBlock: AJUNOK_clean_linker_0, # of connection points: 2
#     Edge 58, Type (0, 1), BuildingBlock: AJUNOK_clean_linker_0, # of connection points: 2
#     Edge 59, Type (0, 1), BuildingBlock: AJUNOK_clean_linker_0, # of connection points: 2
#     Edge 60, Type (0, 1), BuildingBlock: AJUNOK_clean_linker_0, # of connection points: 2
#     Edge 61, Type (0, 1), BuildingBlock: AJUNOK_clean_linker_0, # of connection points: 2
#     Edge 62, Type (0, 1), BuildingBlock: AJUNOK_clean_linker_0, # of connection points: 2
#     Edge 63, Type (0, 1), BuildingBlock: AJUNOK_clean_linker_0, # of connection points: 2
#     Edge 64, Type (0, 1), BuildingBlock: AJUNOK_clean_linker_0, # of connection points: 2
#     Edge 65, Type (0, 1), BuildingBlock: AJUNOK_clean_linker_0, # of connection points: 2
#     Edge 66, Type (0, 1), BuildingBlock: AJUNOK_clean_linker_0, # of connection points: 2
#     Edge 67, Type (0, 1), BuildingBlock: AJUNOK_clean_linker_0, # of connection points: 2
#     Edge 68, Type (0, 1), BuildingBlock: AJUNOK_clean_linker_0, # of connection points: 2
#     Edge 69, Type (0, 1), BuildingBlock: AJUNOK_clean_linker_0, # of connection points: 2
#     Edge 70, Type (0, 1), BuildingBlock: AJUNOK_clean_linker_0, # of connection points: 2
#     Edge 71, Type (0, 1), BuildingBlock: AJUNOK_clean_linker_0, # of connection points: 2
#     Edge 72, Type (0, 1), BuildingBlock: AJUNOK_clean_linker_0, # of connection points: 2
#     Edge 73, Type (0, 1), BuildingBlock: AJUNOK_clean_linker_0, # of connection points: 2
#     Edge 74, Type (0, 1), BuildingBlock: AJUNOK_clean_linker_0, # of connection points: 2
#     Edge 75, Type (0, 1), BuildingBlock: AJUNOK_clean_linker_0, # of connection points: 2
#     Edge 76, Type (0, 1), BuildingBlock: AJUNOK_clean_linker_0, # of connection points: 2
#     Edge 77, Type (0, 1), BuildingBlock: AJUNOK_clean_linker_0, # of connection points: 2
#     Edge 78, Type (0, 1), BuildingBlock: AJUNOK_clean_linker_0, # of connection points: 2
#     Edge 79, Type (0, 1), BuildingBlock: AJUNOK_clean_linker_0, # of connection points: 2
#     Edge 80, Type (0, 1), BuildingBlock: AJUNOK_clean_linker_0, # of connection points: 2
#     Edge 81, Type (0, 1), BuildingBlock: AJUNOK_clean_linker_0, # of connection points: 2
#     Edge 82, Type (0, 1), BuildingBlock: AJUNOK_clean_linker_0, # of connection points: 2
#     Edge 83, Type (0, 1), BuildingBlock: AJUNOK_clean_linker_0, # of connection points: 2
#     Edge 84, Type (0, 1), BuildingBlock: AJUNOK_clean_linker_0, # of connection points: 2
#     Edge 85, Type (0, 1), BuildingBlock: AJUNOK_clean_linker_0, # of connection points: 2
#     Edge 86, Type (0, 1), BuildingBlock: AJUNOK_clean_linker_0, # of connection points: 2
#     Edge 87, Type (0, 1), BuildingBlock: AJUNOK_clean_linker_0, # of connection points: 2
#     Edge 88, Type (0, 1), BuildingBlock: AJUNOK_clean_linker_0, # of connection points: 2
#     Edge 89, Type (0, 1), BuildingBlock: AJUNOK_clean_linker_0, # of connection points: 2
#     Edge 90, Type (0, 1), BuildingBlock: AJUNOK_clean_linker_0, # of connection points: 2
#     Edge 91, Type (0, 1), BuildingBlock: AJUNOK_clean_linker_0, # of connection points: 2
#     Edge 92, Type (0, 1), BuildingBlock: AJUNOK_clean_linker_0, # of connection points: 2
#     Edge 93, Type (0, 1), BuildingBlock: AJUNOK_clean_linker_0, # of connection points: 2
#     Edge 94, Type (0, 1), BuildingBlock: AJUNOK_clean_linker_0, # of connection points: 2
#     Edge 95, Type (0, 1), BuildingBlock: AJUNOK_clean_linker_0, # of connection points: 2
#     Edge 96, Type (0, 1), BuildingBlock: AJUNOK_clean_linker_0, # of connection points: 2
#     Edge 97, Type (0, 1), BuildingBlock: AJUNOK_clean_linker_0, # of connection points: 2
#     Edge 98, Type (0, 1), BuildingBlock: AJUNOK_clean_linker_0, # of connection points: 2
#     Edge 99, Type (0, 1), BuildingBlock: AJUNOK_clean_linker_0, # of connection points: 2
#     Edge 100, Type (0, 1), BuildingBlock: AJUNOK_clean_linker_0, # of connection points: 2
#     Edge 101, Type (0, 1), BuildingBlock: AJUNOK_clean_linker_0, # of connection points: 2
#     Edge 102, Type (0, 1), BuildingBlock: AJUNOK_clean_linker_0, # of connection points: 2
#     Edge 103, Type (0, 1), BuildingBlock: AJUNOK_clean_linker_0, # of connection points: 2
#     Edge 104, Type (0, 1), BuildingBlock: AJUNOK_clean_linker_0, # of connection points: 2
#     Edge 105, Type (0, 1), BuildingBlock: AJUNOK_clean_linker_0, # of connection points: 2
#     Edge 106, Type (0, 1), BuildingBlock: AJUNOK_clean_linker_0, # of connection points: 2
#     Edge 107, Type (0, 1), BuildingBlock: AJUNOK_clean_linker_0, # of connection points: 2
#     Edge 108, Type (0, 1), BuildingBlock: AJUNOK_clean_linker_0, # of connection points: 2
#     Edge 109, Type (0, 1), BuildingBlock: AJUNOK_clean_linker_0, # of connection points: 2
#     Edge 110, Type (0, 1), BuildingBlock: AJUNOK_clean_linker_0, # of connection points: 2
#     Edge 111, Type (0, 1), BuildingBlock: AJUNOK_clean_linker_0, # of connection points: 2
#     Edge 112, Type (0, 1), BuildingBlock: AJUNOK_clean_linker_0, # of connection points: 2
#     Edge 113, Type (0, 1), BuildingBlock: AJUNOK_clean_linker_0, # of connection points: 2
#     Edge 114, Type (0, 1), BuildingBlock: AJUNOK_clean_linker_0, # of connection points: 2
#     Edge 115, Type (0, 1), BuildingBlock: AJUNOK_clean_linker_0, # of connection points: 2
#     Edge 116, Type (0, 1), BuildingBlock: AJUNOK_clean_linker_0, # of connection points: 2
#     Edge 117, Type (0, 1), BuildingBlock: AJUNOK_clean_linker_0, # of connection points: 2
#     Edge 118, Type (0, 1), BuildingBlock: AJUNOK_clean_linker_0, # of connection points: 2
#     Edge 119, Type (0, 1), BuildingBlock: AJUNOK_clean_linker_0, # of connection points: 2
# Relax obj value: 0.069
# Max RMSD: 0.187
# Mean RMSD: 0.079
data_MOF--net-bwt--node1-WUSLED_clean_sbu_0--node2-QEWDON_clean_linker_0--edge1-AJUNOK_clean_linker_0
_symmetry_space_group_name_H-M    P1
_symmetry_Int_Tables_number       1
_symmetry_cell_setting            triclinic
loop_
_symmetry_equiv_pos_as_xyz
'x, y, z'
_cell_length_a     56.603818
_cell_length_b     56.620327
_cell_length_c     56.600145
_cell_angle_alpha  95.503552
_cell_angle_beta   95.499048
_cell_angle_gamma 95.461924
loop_
_atom_site_label
_atom_site_type_symbol
_atom_site_fract_x
_atom_site_fract_y
_atom_site_fract_z
_atom_type_partial_charge
C0 C 0.27666 0.5869 0.31291 0.0
C1 C 0.29737 0.58997 0.32924 0.0
C2 C 0.32239 0.58853 0.29657 0.0
C3 C 0.32 0.59091 0.32113 0.0
C4 C 0.30169 0.58486 0.28027 0.0
C5 C 0.27904 0.58418 0.28838 0.0
U6 U 0.23263 0.56522 0.35461 0.0
O7 O 0.20765 0.58419 0.37518 0.0
O8 O 0.19422 0.55325 0.34931 0.0
C9 C 0.18887 0.57037 0.36466 0.0
C10 C 0.25259 0.58635 0.32119 0.0
C11 C 0.16733 0.582 0.35793 0.0
C12 C 0.13897 0.59537 0.32829 0.0
C13 C 0.16126 0.58746 0.33458 0.0
C14 C 0.12918 0.59345 0.36882 0.0
C15 C 0.12235 0.59768 0.34518 0.0
C16 C 0.15141 0.58572 0.37509 0.0
C17 C 0.25445 0.5237 0.39988 0.0
C18 C 0.2303 0.49618 0.4206 0.0
C19 C 0.2694 0.51331 0.4388 0.0
C20 C 0.27253 0.52562 0.41891 0.0
C21 C 0.24821 0.49852 0.43996 0.0
C22 C 0.23335 0.5087 0.40075 0.0
C23 C 0.25787 0.53801 0.37978 0.0
O24 O 0.2393 0.56575 0.31687 0.0
O25 O 0.25149 0.59696 0.34272 0.0
O26 O 0.25879 0.56123 0.38498 0.0
O27 O 0.24524 0.53025 0.35933 0.0
H28 H 0.29611 0.59176 0.3483 0.0
H29 H 0.33566 0.59344 0.33406 0.0
H30 H 0.30307 0.58303 0.26123 0.0
H31 H 0.26336 0.58166 0.27546 0.0
H32 H 0.13447 0.59899 0.31005 0.0
H33 H 0.17338 0.58488 0.32109 0.0
H34 H 0.11683 0.59488 0.38224 0.0
H35 H 0.15576 0.58161 0.39321 0.0
H36 H 0.21371 0.48506 0.42104 0.0
H37 H 0.28322 0.51621 0.4537 0.0
H38 H 0.28887 0.5372 0.41866 0.0
H39 H 0.21905 0.50697 0.38634 0.0
C40 C 0.23895 0.41394 0.76185 0.0
C41 C 0.21995 0.42677 0.76786 0.0
C42 C 0.1937 0.40345 0.73561 0.0
C43 C 0.19742 0.42149 0.75487 0.0
C44 C 0.21271 0.39036 0.73006 0.0
C45 C 0.23515 0.39563 0.74303 0.0
U46 U 0.28262 0.45055 0.81023 0.0
O47 O 0.31311 0.43965 0.8324 0.0
O48 O 0.31881 0.46741 0.80838 0.0
C49 C 0.32871 0.45387 0.82326 0.0
C50 C 0.26296 0.41984 0.7745 0.0
C51 C 0.34996 0.44351 0.8157 0.0
C52 C 0.37106 0.42465 0.78484 0.0
C53 C 0.34971 0.43097 0.79304 0.0
C54 C 0.39278 0.44217 0.82237 0.0
C55 C 0.39291 0.43075 0.7992 0.0
C56 C 0.37148 0.44845 0.83053 0.0
C57 C 0.26485 0.49943 0.85226 0.0
C58 C 0.2958 0.52858 0.87334 0.0
C59 C 0.2568 0.52393 0.88768 0.0
C60 C 0.24913 0.50615 0.86879 0.0
C61 C 0.28022 0.53533 0.89007 0.0
C62 C 0.28823 0.51078 0.85469 0.0
C63 C 0.25745 0.47996 0.83307 0.0
O64 O 0.27337 0.441 0.77171 0.0
O65 O 0.26557 0.41461 0.79668 0.0
O66 O 0.26 0.45839 0.83904 0.0
O67 O 0.26518 0.48359 0.81241 0.0
H68 H 0.22263 0.44099 0.7824 0.0
H69 H 0.18304 0.43176 0.75957 0.0
H70 H 0.21019 0.37596 0.71571 0.0
H71 H 0.24961 0.38549 0.73825 0.0
H72 H 0.37064 0.41591 0.7669 0.0
H73 H 0.33321 0.42703 0.78133 0.0
H74 H 0.40932 0.44766 0.83366 0.0
H75 H 0.372 0.45825 0.84802 0.0
H76 H 0.31416 0.5365 0.87516 0.0
H77 H 0.24457 0.5286 0.90053 0.0
H78 H 0.2311 0.4974 0.86731 0.0
H79 H 0.30081 0.50558 0.84239 0.0
C80 C 0.67341 0.97948 0.65629 0.0
C81 C 0.69078 0.9809 0.64022 0.0
C82 C 0.72157 0.97455 0.67148 0.0
C83 C 0.71466 0.97856 0.64777 0.0
C84 C 0.70414 0.97353 0.6876 0.0
C85 C 0.68027 0.97593 0.68004 0.0
U86 U 0.62454 0.98233 0.60624 0.0
O87 O 0.58688 0.96702 0.60025 0.0
O88 O 0.59608 0.00583 0.60232 0.0
C89 C 0.57895 0.9881 0.59992 0.0
C90 C 0.64819 0.98158 0.64835 0.0
C91 C 0.55702 0.99202 0.61137 0.0
C92 C 0.51538 0.97859 0.61462 0.0
C93 C 0.53791 0.97385 0.60836 0.0
C94 C 0.53083 0.01956 0.62779 0.0
C95 C 0.51148 0.00168 0.62368 0.0
C96 C 0.55336 0.01483 0.62163 0.0
C97 C 0.63841 0.9802 0.54255 0.0
C98 C 0.60679 0.98553 0.51175 0.0
C99 C 0.64801 0.98757 0.50299 0.0
C100 C 0.65524 0.9831 0.52624 0.0
C101 C 0.62383 0.98924 0.49572 0.0
C102 C 0.61407 0.98109 0.53514 0.0
C103 C 0.64659 0.97865 0.56769 0.0
O104 O 0.64413 0.0014 0.63905 0.0
O105 O 0.63643 0.96246 0.63604 0.0
O106 O 0.63726 0.96001 0.57704 0.0
O107 O 0.64706 0.99874 0.58148 0.0
H108 H 0.68585 0.98376 0.62182 0.0
H109 H 0.72772 0.97992 0.63504 0.0
H110 H 0.7089 0.97037 0.70594 0.0
H111 H 0.66712 0.97481 0.69271 0.0
H112 H 0.50076 0.96447 0.6114 0.0
H113 H 0.54008 0.95622 0.60014 0.0
H114 H 0.52841 0.03739 0.6353 0.0
H115 H 0.5676 0.02931 0.62405 0.0
H116 H 0.58812 0.98694 0.50646 0.0
H117 H 0.66139 0.99052 0.49081 0.0
H118 H 0.67407 0.98269 0.53172 0.0
H119 H 0.60087 0.97912 0.54765 0.0
C120 C 0.82401 0.98095 0.27644 0.0
C121 C 0.80207 0.97646 0.26205 0.0
C122 C 0.78064 0.98029 0.2972 0.0
C123 C 0.78056 0.97622 0.27233 0.0
C124 C 0.80266 0.98448 0.31157 0.0
C125 C 0.82418 0.98485 0.30126 0.0
U126 U 0.85416 0.96372 0.22264 0.0
O127 O 0.88126 0.98278 0.20402 0.0
O128 O 0.88771 0.94836 0.217 0.0
C129 C 0.89628 0.96665 0.20663 0.0
C130 C 0.84657 0.9809 0.26549 0.0
C131 C 0.92145 0.97557 0.21394 0.0
C132 C 0.95311 0.99845 0.2413 0.0
C133 C 0.92879 0.99067 0.23506 0.0
C134 C 0.96267 0.97611 0.2054 0.0
C135 C 0.97029 0.99135 0.2264 0.0
C136 C 0.93853 0.96843 0.19922 0.0
C137 C 0.81077 0.93129 0.17045 0.0
C138 C 0.82205 0.9128 0.13324 0.0
C139 C 0.78092 0.92007 0.1366 0.0
C140 C 0.78708 0.92967 0.16025 0.0
C141 C 0.79838 0.91189 0.1227 0.0
C142 C 0.82824 0.92257 0.15697 0.0
C143 C 0.81671 0.94286 0.19488 0.0
O144 O 0.85376 0.95969 0.26093 0.0
O145 O 0.84807 0.99411 0.2477 0.0
O146 O 0.82313 0.96593 0.19673 0.0
O147 O 0.82987 0.93152 0.20949 0.0
H148 H 0.80159 0.97311 0.24283 0.0
H149 H 0.76388 0.97264 0.26088 0.0
H150 H 0.80321 0.9878 0.33079 0.0
H151 H 0.84091 0.98819 0.31264 0.0
H152 H 0.95849 0.00998 0.25771 0.0
H153 H 0.9158 0.99628 0.24671 0.0
H154 H 0.97545 0.96962 0.19396 0.0
H155 H 0.93322 0.95662 0.18296 0.0
H156 H 0.8358 0.90635 0.12305 0.0
H157 H 0.76262 0.91991 0.12892 0.0
H158 H 0.7734 0.93636 0.17043 0.0
H159 H 0.84665 0.92367 0.16464 0.0
C160 C 0.30819 0.27239 0.5884 0.0
C161 C 0.32404 0.29325 0.58929 0.0
C162 C 0.29085 0.3176 0.58825 0.0
C163 C 0.31546 0.31562 0.58944 0.0
C164 C 0.27496 0.29671 0.58692 0.0
C165 C 0.28358 0.2743 0.58704 0.0
U166 U 0.35347 0.23214 0.56921 0.0
O167 O 0.37524 0.2084 0.58847 0.0
O168 O 0.35183 0.19407 0.556 0.0
C169 C 0.36729 0.18955 0.57341 0.0
C170 C 0.31727 0.24872 0.5884 0.0
C171 C 0.36286 0.16659 0.58332 0.0
C172 C 0.34351 0.14046 0.60912 0.0
C173 C 0.34719 0.163 0.60075 0.0
C174 C 0.37137 0.12533 0.58302 0.0
C175 C 0.35542 0.1213 0.60013 0.0
C176 C 0.37502 0.14768 0.57475 0.0
C177 C 0.39906 0.25917 0.53123 0.0
C178 C 0.43478 0.24067 0.52311 0.0
C179 C 0.42691 0.27744 0.50658 0.0
C180 C 0.40561 0.27732 0.51721 0.0
C181 C 0.44201 0.25946 0.50997 0.0
C182 C 0.41345 0.24053 0.53367 0.0
C183 C 0.37788 0.26052 0.54415 0.0
O184 O 0.31486 0.23575 0.56758 0.0
O185 O 0.33834 0.24851 0.60036 0.0
O186 O 0.3819 0.26095 0.56745 0.0
O187 O 0.35895 0.24618 0.53496 0.0
H188 H 0.34312 0.29228 0.58999 0.0
H189 H 0.32807 0.33142 0.59044 0.0
H190 H 0.25591 0.29777 0.58631 0.0
H191 H 0.27103 0.25848 0.58621 0.0
H192 H 0.33131 0.138 0.6225 0.0
H193 H 0.33775 0.17746 0.60769 0.0
H194 H 0.38058 0.11097 0.57545 0.0
H195 H 0.38722 0.15011 0.56134 0.0
H196 H 0.44615 0.22668 0.52613 0.0
H197 H 0.43191 0.29193 0.49626 0.0
H198 H 0.39457 0.29173 0.51502 0.0
H199 H 0.40856 0.22632 0.54438 0.0
C200 C 0.28644 0.81357 0.97249 0.0
C201 C 0.27095 0.79239 0.96716 0.0
C202 C 0.30468 0.76886 0.96959 0.0
C203 C 0.27999 0.77021 0.96579 0.0
C204 C 0.32015 0.79015 0.97442 0.0
C205 C 0.31109 0.81232 0.97591 0.0
U206 U 0.23398 0.84771 0.96118 0.0
O207 O 0.21866 0.87528 0.98348 0.0
O208 O 0.22919 0.88246 0.94825 0.0
C209 C 0.22121 0.89104 0.96806 0.0
C210 C 0.2768 0.83683 0.97445 0.0
C211 C 0.23101 0.91547 0.97781 0.0
C212 C 0.26215 0.94872 0.98163 0.0
C213 C 0.25458 0.92443 0.97546 0.0
C214 C 0.22317 0.95503 0.99381 0.0
C215 C 0.24634 0.96439 0.99034 0.0
C216 C 0.21562 0.9308 0.98763 0.0
C217 C 0.17812 0.80866 0.93013 0.0
C218 C 0.1417 0.82282 0.91311 0.0
C219 C 0.1424 0.78115 0.91952 0.0
C220 C 0.16636 0.7856 0.92852 0.0
C221 C 0.12973 0.79972 0.91193 0.0
C222 C 0.16576 0.82729 0.92226 0.0
C223 C 0.20314 0.81264 0.94033 0.0
O224 O 0.2713 0.84528 0.95402 0.0
O225 O 0.26024 0.83863 0.98912 0.0
O226 O 0.2067 0.81792 0.96359 0.0
O227 O 0.21768 0.82553 0.92867 0.0
H228 H 0.25184 0.79304 0.96423 0.0
H229 H 0.26771 0.75412 0.9618 0.0
H230 H 0.33926 0.7896 0.97761 0.0
H231 H 0.32329 0.82846 0.97995 0.0
H232 H 0.2801 0.95544 0.97876 0.0
H233 H 0.2668 0.9129 0.96798 0.0
H234 H 0.21038 0.96665 0.99994 0.0
H235 H 0.19734 0.92425 0.98947 0.0
H236 H 0.13244 0.8374 0.90714 0.0
H237 H 0.13358 0.76326 0.91915 0.0
H238 H 0.17566 0.77105 0.93455 0.0
H239 H 0.17465 0.84524 0.92338 0.0
C240 C 0.76115 0.24678 0.40808 0.0
C241 C 0.76541 0.22941 0.42366 0.0
C242 C 0.74074 0.19931 0.39595 0.0
C243 C 0.75516 0.20582 0.41767 0.0
C244 C 0.73652 0.21686 0.38053 0.0
C245 C 0.7467 0.24036 0.38653 0.0
U246 U 0.80248 0.29547 0.44725 0.0
O247 O 0.82488 0.32594 0.43652 0.0
O248 O 0.79691 0.33201 0.46011 0.0
C249 C 0.81302 0.34166 0.44767 0.0
C250 C 0.77151 0.27166 0.41393 0.0
C251 C 0.80638 0.36205 0.43491 0.0
C252 C 0.77875 0.39154 0.42769 0.0
C253 C 0.78328 0.36926 0.43462 0.0
C254 C 0.81965 0.39885 0.41888 0.0
C255 C 0.79717 0.40706 0.42083 0.0
C256 C 0.82426 0.37662 0.42607 0.0
C257 C 0.84026 0.28426 0.50213 0.0
C258 C 0.86492 0.31827 0.52403 0.0
C259 C 0.86694 0.27883 0.53691 0.0
C260 C 0.8497 0.26935 0.51816 0.0
C261 C 0.87488 0.30336 0.53989 0.0
C262 C 0.84772 0.30881 0.50536 0.0
C263 C 0.82311 0.27439 0.48168 0.0
O264 O 0.76536 0.28271 0.43355 0.0
O265 O 0.79437 0.27572 0.41155 0.0
O266 O 0.83127 0.27521 0.46075 0.0
O267 O 0.80175 0.28159 0.48217 0.0
H268 H 0.77658 0.23413 0.44041 0.0
H269 H 0.75859 0.19265 0.42989 0.0
H270 H 0.725 0.2125 0.36396 0.0
H271 H 0.74315 0.25357 0.37438 0.0
H272 H 0.76123 0.3973 0.42944 0.0
H273 H 0.76902 0.35839 0.44116 0.0
H274 H 0.83404 0.41016 0.41308 0.0
H275 H 0.8422 0.37143 0.42603 0.0
H276 H 0.87116 0.33709 0.52542 0.0
H277 H 0.87445 0.26693 0.54879 0.0
H278 H 0.84408 0.25036 0.5159 0.0
H279 H 0.84065 0.32056 0.49305 0.0
C280 C 0.66186 0.67862 0.974 0.0
C281 C 0.64645 0.69614 0.97857 0.0
C282 C 0.67757 0.7273 0.97302 0.0
C283 C 0.65425 0.72029 0.97811 0.0
C284 C 0.69316 0.70972 0.9692 0.0
C285 C 0.68533 0.68556 0.96962 0.0
U286 U 0.61251 0.63017 0.98003 0.0
O287 O 0.60033 0.59616 0.95788 0.0
O288 O 0.61233 0.59647 0.99609 0.0
C289 C 0.60431 0.58351 0.97588 0.0
C290 C 0.65331 0.65313 0.97301 0.0
C291 C 0.61455 0.5609 0.97107 0.0
C292 C 0.64583 0.5353 0.97878 0.0
C293 C 0.63825 0.55813 0.97916 0.0
C294 C 0.60661 0.51807 0.96087 0.0
C295 C 0.62976 0.51506 0.97049 0.0
C296 C 0.59908 0.54084 0.96117 0.0
C297 C 0.55326 0.64474 0.99798 0.0
C298 C 0.52223 0.61211 0.99917 0.0
C299 C 0.51666 0.65237 0.01475 0.0
C300 C 0.5391 0.66063 0.00877 0.0
C301 C 0.50807 0.62802 0.0102 0.0
C302 C 0.54479 0.6204 0.99325 0.0
C303 C 0.57714 0.65344 0.99245 0.0
O304 O 0.64908 0.64548 0.99357 0.0
O305 O 0.63643 0.6453 0.95567 0.0
O306 O 0.58123 0.64874 0.97009 0.0
O307 O 0.59463 0.64902 0.00783 0.0
H308 H 0.62828 0.69109 0.98213 0.0
H309 H 0.64198 0.73347 0.98152 0.0
H310 H 0.71118 0.7146 0.96515 0.0
H311 H 0.69746 0.67227 0.96609 0.0
H312 H 0.66377 0.53336 0.98635 0.0
H313 H 0.65046 0.57341 0.9869 0.0
H314 H 0.59401 0.50272 0.95417 0.0
H315 H 0.58071 0.54266 0.95488 0.0
H316 H 0.5159 0.59335 0.99526 0.0
H317 H 0.50582 0.66517 0.02259 0.0
H318 H 0.54537 0.67943 0.01253 0.0
H319 H 0.55564 0.60786 0.98501 0.0
C320 C 0.58914 0.30932 0.28543 0.0
C321 C 0.57503 0.31798 0.30276 0.0
C322 C 0.59191 0.29252 0.33092 0.0
C323 C 0.57639 0.30964 0.32532 0.0
C324 C 0.60599 0.28394 0.31345 0.0
C325 C 0.60459 0.29225 0.29091 0.0
U326 U 0.56742 0.35328 0.24411 0.0
O327 O 0.58637 0.37424 0.21937 0.0
O328 O 0.55441 0.34972 0.20603 0.0
C329 C 0.57199 0.36449 0.20064 0.0
C330 C 0.58843 0.31859 0.26195 0.0
C331 C 0.58297 0.35742 0.17873 0.0
C332 C 0.58874 0.32757 0.1465 0.0
C333 C 0.58222 0.33341 0.16942 0.0
C334 C 0.5983 0.36949 0.14246 0.0
C335 C 0.5962 0.34558 0.1325 0.0
C336 C 0.59173 0.37532 0.16534 0.0
C337 C 0.52717 0.39824 0.26786 0.0
C338 C 0.51595 0.43059 0.24537 0.0
C339 C 0.50291 0.42741 0.28461 0.0
C340 C 0.51448 0.40681 0.28638 0.0
C341 C 0.50382 0.43972 0.26424 0.0
C342 C 0.5275 0.40997 0.24716 0.0
C343 C 0.54099 0.37788 0.27085 0.0
O344 O 0.56758 0.31517 0.249 0.0
O345 O 0.59908 0.34027 0.26212 0.0
O346 O 0.56422 0.38274 0.27146 0.0
O347 O 0.53272 0.35802 0.25746 0.0
H348 H 0.56315 0.33136 0.29891 0.0
H349 H 0.56564 0.3169 0.33852 0.0
H350 H 0.61803 0.27068 0.31722 0.0
H351 H 0.61568 0.28544 0.2778 0.0
H352 H 0.58702 0.30898 0.1393 0.0
H353 H 0.57558 0.31924 0.17939 0.0
H354 H 0.60357 0.38378 0.13202 0.0
H355 H 0.5923 0.39396 0.1721 0.0
H356 H 0.51751 0.44 0.22972 0.0
H357 H 0.49379 0.43411 0.29943 0.0
H358 H 0.51407 0.39792 0.30249 0.0
H359 H 0.53732 0.40362 0.23273 0.0
C360 C 0.97946 0.27101 0.82148 0.0
C361 C 0.97791 0.25601 0.79993 0.0
C362 C 0.975 0.29011 0.77724 0.0
C363 C 0.97593 0.26553 0.77799 0.0
C364 C 0.97685 0.30509 0.79882 0.0
C365 C 0.97902 0.2956 0.82075 0.0
U366 U 0.96102 0.21911 0.85359 0.0
O367 O 0.97942 0.20052 0.88122 0.0
O368 O 0.94571 0.21521 0.88743 0.0
C369 C 0.96357 0.20441 0.89631 0.0
C370 C 0.97972 0.26082 0.8445 0.0
C371 C 0.97288 0.21251 0.92123 0.0
C372 C 0.99392 0.24204 0.95209 0.0
C373 C 0.98652 0.2346 0.92789 0.0
C374 C 0.97439 0.20525 0.96287 0.0
C375 C 0.98765 0.22753 0.96988 0.0
C376 C 0.96713 0.19785 0.93884 0.0
C377 C 0.92556 0.16789 0.8106 0.0
C378 C 0.90872 0.12986 0.82141 0.0
C379 C 0.90942 0.13633 0.77974 0.0
C380 C 0.9201 0.1595 0.78646 0.0
C381 C 0.90378 0.12114 0.7971 0.0
C382 C 0.91957 0.15314 0.82813 0.0
C383 C 0.93851 0.19167 0.81671 0.0
O384 O 0.95872 0.25762 0.8525 0.0
O385 O 0.99219 0.2425 0.84631 0.0
O386 O 0.96151 0.19219 0.82303 0.0
O387 O 0.92809 0.20705 0.82996 0.0
H388 H 0.97788 0.23689 0.80005 0.0
H389 H 0.97462 0.25365 0.76162 0.0
H390 H 0.97665 0.32419 0.79872 0.0
H391 H 0.98005 0.30743 0.83713 0.0
H392 H 0.00439 0.25915 0.95687 0.0
H393 H 0.99115 0.24613 0.91447 0.0
H394 H 0.96896 0.19376 0.97605 0.0
H395 H 0.95657 0.18077 0.93402 0.0
H396 H 0.90477 0.11848 0.83516 0.0
H397 H 0.90668 0.12997 0.76092 0.0
H398 H 0.9248 0.17065 0.77273 0.0
H399 H 0.92378 0.1594 0.84689 0.0
C400 C 0.43561 0.77618 0.22936 0.0
C401 C 0.44382 0.77706 0.20686 0.0
C402 C 0.41141 0.74732 0.18934 0.0
C403 C 0.43186 0.76272 0.187 0.0
C404 C 0.40308 0.74671 0.21195 0.0
C405 C 0.41509 0.76104 0.23181 0.0
U406 U 0.44717 0.79454 0.29655 0.0
O407 O 0.41085 0.79144 0.30764 0.0
O408 O 0.43273 0.7617 0.31027 0.0
C409 C 0.41369 0.77121 0.31663 0.0
C410 C 0.4493 0.79025 0.25024 0.0
C411 C 0.41105 0.7718 0.34226 0.0
C412 C 0.39039 0.7591 0.37533 0.0
C413 C 0.39169 0.75904 0.35068 0.0
C414 C 0.42757 0.78491 0.38306 0.0
C415 C 0.40843 0.77197 0.39178 0.0
C416 C 0.42876 0.78495 0.35861 0.0
C417 C 0.50037 0.83947 0.32588 0.0
C418 C 0.52718 0.87206 0.34736 0.0
C419 C 0.53231 0.85861 0.30637 0.0
C420 C 0.51281 0.84123 0.30573 0.0
C421 C 0.53937 0.87451 0.32709 0.0
C422 C 0.5079 0.8547 0.34673 0.0
C423 C 0.47907 0.82257 0.32576 0.0
O424 O 0.4611 0.77777 0.26488 0.0
O425 O 0.43822 0.80672 0.26131 0.0
O426 O 0.45893 0.82948 0.31673 0.0
O427 O 0.48127 0.79999 0.31952 0.0
H428 H 0.45976 0.78851 0.20472 0.0
H429 H 0.43901 0.7632 0.16996 0.0
H430 H 0.38736 0.73502 0.21426 0.0
H431 H 0.40858 0.76008 0.24912 0.0
H432 H 0.37552 0.74883 0.38154 0.0
H433 H 0.37786 0.74879 0.33827 0.0
H434 H 0.4422 0.79432 0.39512 0.0
H435 H 0.44391 0.79482 0.35243 0.0
H436 H 0.53194 0.88421 0.36346 0.0
H437 H 0.54155 0.8599 0.29059 0.0
H438 H 0.50722 0.8295 0.28949 0.0
H439 H 0.49845 0.85356 0.36243 0.0
C440 C 0.99653 0.66849 0.67602 0.0
C441 C 0.99404 0.65293 0.69371 0.0
C442 C 0.99288 0.68657 0.7237 0.0
C443 C 0.99206 0.66186 0.71727 0.0
C444 C 0.99604 0.70213 0.70601 0.0
C445 C 0.99783 0.69315 0.68237 0.0
U446 U 0.00482 0.61723 0.63087 0.0
O447 O 0.9824 0.60159 0.59801 0.0
O448 O 0.02019 0.61444 0.59674 0.0
C449 C 1.00005 0.60458 0.58473 0.0
C450 C 0.99666 0.65897 0.65085 0.0
C451 C 0.99443 0.61159 0.5607 0.0
C452 C 0.99966 0.63933 0.53105 0.0
C453 C 1.00097 0.6347 0.55497 0.0
C454 C 0.98405 0.59819 0.51862 0.0
C455 C 0.992 0.62087 0.51269 0.0
C456 C 0.98525 0.59361 0.54247 0.0
C457 C 0.02132 0.5594 0.65073 0.0
C458 C 0.01439 0.52416 0.62178 0.0
C459 C 0.02896 0.52086 0.66292 0.0
C460 C 0.02926 0.54545 0.66833 0.0
C461 C 0.0206 0.50995 0.63987 0.0
C462 C 0.0148 0.54884 0.62719 0.0
C463 C 0.01746 0.58429 0.65738 0.0
O464 O 0.0176 0.65463 0.64419 0.0
O465 O 0.97965 0.64174 0.6431 0.0
O466 O 0.99522 0.58886 0.65309 0.0
O467 O 0.03297 0.60038 0.65061 0.0
H468 H 0.99296 0.6338 0.68917 0.0
H469 H 0.98902 0.64933 0.73024 0.0
H470 H 0.9968 0.72125 0.7104 0.0
H471 H 0.99978 0.70545 0.66898 0.0
H472 H 0.00594 0.65696 0.52686 0.0
H473 H 0.00817 0.6488 0.56881 0.0
H474 H 0.97785 0.58378 0.50477 0.0
H475 H 0.98017 0.57565 0.5466 0.0
H476 H 0.00756 0.51604 0.60403 0.0
H477 H 0.03363 0.51009 0.67716 0.0
H478 H 0.0344 0.55334 0.68653 0.0
H479 H 0.00867 0.55948 0.61337 0.0
C480 C 0.72567 0.42167 0.70731 0.0
C481 C 0.70904 0.43188 0.69249 0.0
C482 C 0.67801 0.42212 0.718 0.0
C483 C 0.68542 0.432 0.69771 0.0
C484 C 0.69488 0.41231 0.73306 0.0
C485 C 0.71854 0.41209 0.72775 0.0
U486 U 0.77114 0.43608 0.66528 0.0
O487 O 0.80994 0.44592 0.67024 0.0
O488 O 0.79499 0.41355 0.647 0.0
C489 C 0.81437 0.42679 0.65698 0.0
C490 C 0.74996 0.41991 0.7006 0.0
C491 C 0.8344 0.41405 0.66601 0.0
C492 C 0.86301 0.4051 0.69806 0.0
C493 C 0.84188 0.41461 0.6905 0.0
C494 C 0.86865 0.3934 0.65688 0.0
C495 C 0.877 0.39501 0.68125 0.0
C496 C 0.84762 0.40282 0.64937 0.0
C497 C 0.75039 0.47288 0.61466 0.0
C498 C 0.75956 0.47086 0.5735 0.0
C499 C 0.743 0.50559 0.59087 0.0
C500 C 0.7426 0.49548 0.61249 0.0
C501 C 0.751 0.49309 0.57106 0.0
C502 C 0.7594 0.46089 0.59513 0.0
C503 C 0.74727 0.46143 0.63667 0.0
O504 O 0.75087 0.40704 0.68018 0.0
O505 O 0.76392 0.44012 0.70296 0.0
O506 O 0.7608 0.47097 0.65604 0.0
O507 O 0.74511 0.43797 0.6344 0.0
H508 H 0.7142 0.43919 0.67651 0.0
H509 H 0.67278 0.43908 0.68538 0.0
H510 H 0.68968 0.40453 0.74878 0.0
H511 H 0.73113 0.40406 0.73933 0.0
H512 H 0.86878 0.40629 0.71698 0.0
H513 H 0.83188 0.42306 0.70371 0.0
H514 H 0.87907 0.38601 0.64347 0.0
H515 H 0.84222 0.40222 0.63041 0.0
H516 H 0.76599 0.46098 0.55848 0.0
H517 H 0.7362 0.52269 0.58934 0.0
H518 H 0.73555 0.50501 0.62733 0.0
H519 H 0.76569 0.44352 0.59634 0.0
C520 C 0.77193 0.59285 0.24666 0.0
C521 C 0.78827 0.57958 0.23556 0.0
C522 C 0.82133 0.60246 0.26118 0.0
C523 C 0.81274 0.58438 0.2427 0.0
C524 C 0.80487 0.61576 0.27221 0.0
C525 C 0.78036 0.61094 0.26503 0.0
U526 U 0.72078 0.55682 0.20683 0.0
O527 O 0.68479 0.54313 0.2138 0.0
O528 O 0.68916 0.56823 0.18685 0.0
C529 C 0.67419 0.55569 0.19837 0.0
C530 C 0.74622 0.58817 0.23881 0.0
C531 C 0.65342 0.56707 0.20592 0.0
C532 C 0.63266 0.58762 0.23612 0.0
C533 C 0.65382 0.58007 0.22839 0.0
C534 C 0.61088 0.57001 0.19868 0.0
C535 C 0.61082 0.58223 0.22152 0.0
C536 C 0.63196 0.56265 0.19096 0.0
C537 C 0.73324 0.50557 0.16302 0.0
C538 C 0.70437 0.48867 0.12977 0.0
C539 C 0.73794 0.46728 0.14145 0.0
C540 C 0.74597 0.48563 0.15968 0.0
C541 C 0.717 0.46857 0.12631 0.0
C542 C 0.71226 0.50684 0.14807 0.0
C543 C 0.74188 0.52496 0.18203 0.0
O544 O 0.73998 0.59255 0.21681 0.0
O545 O 0.73582 0.56783 0.24403 0.0
O546 O 0.73499 0.52187 0.20313 0.0
O547 O 0.74016 0.54671 0.17619 0.0
H548 H 0.78208 0.56565 0.2212 0.0
H549 H 0.82498 0.57423 0.23343 0.0
H550 H 0.81097 0.62982 0.28645 0.0
H551 H 0.76799 0.62142 0.27374 0.0
H552 H 0.63321 0.59693 0.25383 0.0
H553 H 0.67025 0.58359 0.24024 0.0
H554 H 0.5944 0.56481 0.18723 0.0
H555 H 0.63125 0.55244 0.17366 0.0
H556 H 0.68863 0.49069 0.11797 0.0
H557 H 0.74811 0.4521 0.13916 0.0
H558 H 0.76218 0.48432 0.1711 0.0
H559 H 0.70213 0.52205 0.15032 0.0
C560 C 0.32535 0.01818 0.31594 0.0
C561 C 0.31019 0.99871 0.32134 0.0
C562 C 0.2752 0.01671 0.30602 0.0
C563 C 0.28545 0.99795 0.31633 0.0
C564 C 0.2904 0.03584 0.29995 0.0
C565 C 0.31524 0.03652 0.30483 0.0
U566 U 0.37152 0.01381 0.36643 0.0
O567 O 0.40609 0.9993 0.37033 0.0
O568 O 0.4039 0.0371 0.38211 0.0
C569 C 0.41781 0.01997 0.37902 0.0
C570 C 0.35111 0.02082 0.32459 0.0
C571 C 0.44131 0.0262 0.37041 0.0
C572 C 0.47354 0.01499 0.34753 0.0
C573 C 0.44964 0.01176 0.35206 0.0
C574 C 0.48095 0.04815 0.3785 0.0
C575 C 0.48969 0.03272 0.36121 0.0
C576 C 0.45705 0.04482 0.38313 0.0
C577 C 0.34315 0.99408 0.42184 0.0
C578 C 0.36127 0.97708 0.45615 0.0
C579 C 0.32411 0.99479 0.45842 0.0
C580 C 0.32445 1.00012 0.43493 0.0
C581 C 0.34236 0.983 0.46924 0.0
C582 C 0.36166 0.98257 0.43255 0.0
C583 C 0.34252 1.0 0.3971 0.0
O584 O 0.35768 0.03826 0.3417 0.0
O585 O 0.36045 1.00098 0.32866 0.0
O586 O 0.3512 0.98508 0.38179 0.0
O587 O 0.34844 0.02253 0.39447 0.0
H588 H 0.31735 0.98443 0.33024 0.0
H589 H 0.27425 0.98294 0.32116 0.0
H590 H 0.28309 0.05083 0.29248 0.0
H591 H 0.32651 0.05189 0.30085 0.0
H592 H 0.47966 0.00268 0.33416 0.0
H593 H 0.43806 0.99719 0.34194 0.0
H594 H 0.49277 0.06229 0.38901 0.0
H595 H 0.45113 0.05616 0.39745 0.0
H596 H 0.37569 0.96824 0.46417 0.0
H597 H 0.30977 1.00038 0.46828 0.0
H598 H 0.31012 0.00918 0.42701 0.0
H599 H 0.37636 0.97789 0.42275 0.0
C600 C 0.18007 0.01623 0.71742 0.0
C601 C 0.19907 0.02161 0.7356 0.0
C602 C 0.22766 0.01578 0.7068 0.0
C603 C 0.22262 0.02123 0.73037 0.0
C604 C 0.2087 0.01112 0.68845 0.0
C605 C 0.185 0.01127 0.69375 0.0
U606 U 0.14068 0.03162 0.76396 0.0
O607 O 0.10533 0.04458 0.76429 0.0
O608 O 0.11177 0.01083 0.77884 0.0
C609 C 0.09617 0.02583 0.77363 0.0
C610 C 0.15538 0.01537 0.72369 0.0
C611 C 0.07215 0.01531 0.76334 0.0
C612 C 0.04089 0.00639 0.73018 0.0
C613 C 0.06482 0.01365 0.73877 0.0
C614 C 0.0318 0.00134 0.77046 0.0
C615 C 0.02398 1.00085 0.74606 0.0
C616 C 0.05562 0.00851 0.77897 0.0
C617 C 0.1767 0.06555 0.82107 0.0
C618 C 0.17783 0.06274 0.86371 0.0
C619 C 0.19556 0.09856 0.84936 0.0
C620 C 0.1886 0.08867 0.82585 0.0
C621 C 0.19083 0.08543 0.86853 0.0
C622 C 0.17072 0.05294 0.84023 0.0
C623 C 0.17361 0.05398 0.79633 0.0
O624 O 0.15102 0.00184 0.74073 0.0
O625 O 0.14697 0.03619 0.72672 0.0
O626 O 0.16186 0.06493 0.78023 0.0
O627 O 0.16855 0.03067 0.79343 0.0
H628 H 0.19565 0.02566 0.75398 0.0
H629 H 0.23693 0.02489 0.74479 0.0
H630 H 0.21219 0.00659 0.67016 0.0
H631 H 0.17058 0.00713 0.6795 0.0
H632 H 0.03549 0.00577 0.71123 0.0
H633 H 0.07737 0.01866 0.72636 0.0
H634 H 0.01925 0.99738 0.78319 0.0
H635 H 0.06094 0.00967 0.798 0.0
H636 H 0.17442 0.05188 0.878 0.0
H637 H 0.20553 0.11607 0.85253 0.0
H638 H 0.19351 0.09868 0.81135 0.0
H639 H 0.16163 0.03503 0.83712 0.0
C640 C 0.70726 0.73839 0.43155 0.0
C641 C 0.6911 0.72107 0.43919 0.0
C642 C 0.71639 0.6901 0.42852 0.0
C643 C 0.69562 0.69715 0.43768 0.0
C644 C 0.73298 0.70768 0.42176 0.0
C645 C 0.72838 0.73162 0.42316 0.0
U646 U 0.66704 0.78509 0.4485 0.0
O647 O 0.67382 0.82364 0.46001 0.0
O648 O 0.64977 0.8107 0.42757 0.0
C649 C 0.66066 0.82933 0.44137 0.0
C650 C 0.70151 0.76319 0.43137 0.0
C651 C 0.66996 0.84966 0.4291 0.0
C652 C 0.70078 0.8813 0.42366 0.0
C653 C 0.69365 0.8604 0.4338 0.0
C654 C 0.66086 0.88064 0.40381 0.0
C655 C 0.68439 0.8917 0.40861 0.0
C656 C 0.65381 0.85989 0.41384 0.0
C657 C 0.6147 0.76415 0.48292 0.0
C658 C 0.5751 0.77753 0.48156 0.0
C659 C 0.58807 0.75315 0.51223 0.0
C660 C 0.61015 0.75262 0.50311 0.0
C661 C 0.57005 0.76502 0.50111 0.0
C662 C 0.59724 0.77715 0.47257 0.0
C663 C 0.63688 0.7608 0.47191 0.0
O664 O 0.68142 0.76562 0.41858 0.0
O665 O 0.70414 0.77598 0.45229 0.0
O666 O 0.65646 0.77331 0.48242 0.0
O667 O 0.63514 0.75989 0.44851 0.0
H668 H 0.6747 0.72599 0.44578 0.0
H669 H 0.68246 0.68405 0.44295 0.0
H670 H 0.74938 0.70287 0.41512 0.0
H671 H 0.74112 0.74477 0.41733 0.0
H672 H 0.71895 0.88955 0.42788 0.0
H673 H 0.70647 0.85302 0.44568 0.0
H674 H 0.64752 0.88857 0.39303 0.0
H675 H 0.63536 0.85225 0.41027 0.0
H676 H 0.56157 0.7868 0.47257 0.0
H677 H 0.58491 0.74383 0.52765 0.0
H678 H 0.62345 0.74262 0.51144 0.0
H679 H 0.6004 0.78631 0.45703 0.0
C680 C 0.71154 0.17828 0.98911 0.0
C681 C 0.70684 0.18605 0.96646 0.0
C682 C 0.70065 0.22541 0.98467 0.0
C683 C 0.70156 0.20945 0.96425 0.0
C684 C 0.70425 0.2173 0.00728 0.0
C685 C 0.70972 0.19402 0.0095 0.0
U686 U 0.76169 0.14643 0.01361 0.0
O687 O 0.76419 0.11339 0.03059 0.0
O688 O 0.78106 0.11794 0.99768 0.0
C689 C 0.7756 0.10353 0.01368 0.0
C690 C 0.72135 0.15517 0.9913 0.0
C691 C 0.76694 0.07867 0.00459 0.0
C692 C 0.7351 0.04608 0.99586 0.0
C693 C 0.74252 0.07047 0.00155 0.0
C694 C 0.77633 0.03814 0.99496 0.0
C695 C 0.75201 0.0296 0.99319 0.0
C696 C 0.7837 0.06243 1.00066 0.0
C697 C 0.81241 0.18957 0.04976 0.0
C698 C 0.84516 0.18034 0.07724 0.0
C699 C 0.84748 0.21806 0.06021 0.0
C700 C 0.82495 0.2117 0.04781 0.0
C701 C 0.85795 0.20242 0.07493 0.0
C702 C 0.82254 0.1739 0.06465 0.0
C703 C 0.78896 0.18356 0.03586 0.0
O704 O 0.74061 0.15262 0.98045 0.0
O705 O 0.7229 0.14789 0.01274 0.0
O706 O 0.77247 0.17136 0.04594 0.0
O707 O 0.78936 0.17636 0.01316 0.0
H708 H 0.70828 0.17434 0.95048 0.0
H709 H 0.69876 0.21525 0.9466 0.0
H710 H 0.70412 0.22931 0.02335 0.0
H711 H 0.71354 0.18877 0.02725 0.0
H712 H 0.71622 0.04004 0.99424 0.0
H713 H 0.72927 0.08277 0.00432 0.0
H714 H 0.78978 0.02587 0.99316 0.0
H715 H 0.80262 0.06843 0.0029 0.0
H716 H 0.85266 0.16804 0.08865 0.0
H717 H 0.857 0.23502 0.05774 0.0
H718 H 0.81742 0.22399 0.03638 0.0
H719 H 0.81308 0.15671 0.0664 0.0
C720 C 0.2521 0.77347 0.59469 0.0
C721 C 0.24022 0.79015 0.58261 0.0
C722 C 0.26608 0.8228 0.6059 0.0
C723 C 0.24716 0.8146 0.58815 0.0
C724 C 0.27819 0.80596 0.61765 0.0
C725 C 0.2712 0.7815 0.61211 0.0
U726 U 0.2138 0.72165 0.55735 0.0
O727 O 0.22224 0.68604 0.544 0.0
O728 O 0.19445 0.68948 0.56829 0.0
C729 C 0.20715 0.67497 0.55658 0.0
C730 C 0.24455 0.74774 0.58944 0.0
C731 C 0.2152 0.65451 0.56862 0.0
C732 C 0.24091 0.62241 0.57033 0.0
C733 C 0.23612 0.64458 0.56311 0.0
C734 C 0.20478 0.62024 0.58999 0.0
C735 C 0.22494 0.60965 0.58327 0.0
C736 C 0.19993 0.64238 0.5827 0.0
C737 C 0.17095 0.73277 0.50481 0.0
C738 C 0.14265 0.70066 0.48444 0.0
C739 C 0.14712 0.73867 0.46815 0.0
C740 C 0.16448 0.74738 0.48712 0.0
C741 C 0.13606 0.71517 0.46656 0.0
C742 C 0.16004 0.70931 0.50327 0.0
C743 C 0.18907 0.74199 0.52479 0.0
O744 O 0.22244 0.74107 0.59315 0.0
O745 O 0.25051 0.7377 0.56925 0.0
O746 O 0.21062 0.73592 0.52246 0.0
O747 O 0.18251 0.73973 0.5462 0.0
H748 H 0.22544 0.78425 0.56905 0.0
H749 H 0.23744 0.82714 0.57886 0.0
H750 H 0.29313 0.81169 0.63104 0.0
H751 H 0.28067 0.76886 0.62151 0.0
H752 H 0.25628 0.61456 0.5643 0.0
H753 H 0.24814 0.65321 0.55203 0.0
H754 H 0.19212 0.61084 0.59991 0.0
H755 H 0.18352 0.64937 0.58699 0.0
H756 H 0.13395 0.68274 0.48422 0.0
H757 H 0.14231 0.7503 0.45475 0.0
H758 H 0.17276 0.76554 0.48803 0.0
H759 H 0.16477 0.69778 0.5168 0.0
C760 C 0.32237 0.32121 0.01293 0.0
C761 C 0.33117 0.30378 0.99776 0.0
C762 C 0.30814 0.27223 0.01463 0.0
C763 C 0.32406 0.27958 0.99852 0.0
C764 C 0.29866 0.28974 0.02924 0.0
C765 C 0.3058 0.31406 0.02844 0.0
U766 U 0.37468 0.36234 0.00313 0.0
O767 O 0.38033 0.3969 0.98886 0.0
O768 O 0.39544 0.39299 0.02536 0.0
C769 C 0.39222 0.40748 0.00878 0.0
C770 C 0.3328 0.34628 0.01444 0.0
C771 C 0.38689 0.43191 0.01654 0.0
C772 C 0.36141 0.46405 0.01439 0.0
C773 C 0.36462 0.43983 0.01022 0.0
C774 C 0.40229 0.47259 0.0323 0.0
C775 C 0.38035 0.4808 0.02509 0.0
C776 C 0.40549 0.44839 0.02809 0.0
C777 C 0.42471 0.32911 0.9786 0.0
C778 C 0.46669 0.34392 0.98341 0.0
C779 C 0.4533 0.30608 0.95999 0.0
C780 C 0.42978 0.30904 0.96424 0.0
C781 C 0.47207 0.32308 0.97028 0.0
C782 C 0.44317 0.34693 0.9875 0.0
C783 C 0.40064 0.33005 0.98596 0.0
O784 O 0.35159 0.35159 0.03024 0.0
O785 O 0.33582 0.3546 0.99387 0.0
O786 O 0.38573 0.34068 0.97239 0.0
O787 O 0.39976 0.33576 0.00889 0.0
H788 H 0.34429 0.30882 0.98592 0.0
H789 H 0.33187 0.26656 0.98723 0.0
H790 H 0.28613 0.28462 0.04161 0.0
H791 H 0.29897 0.32721 0.04044 0.0
H792 H 0.34444 0.46981 0.00807 0.0
H793 H 0.35002 0.42752 1.00113 0.0
H794 H 0.4172 0.48501 0.04054 0.0
H795 H 0.42288 0.4427 0.03298 0.0
H796 H 0.48079 0.35728 0.99166 0.0
H797 H 0.45689 0.29009 0.94942 0.0
H798 H 0.41566 0.29519 0.9571 0.0
H799 H 0.43955 0.36262 0.99855 0.0
C800 C 0.43645 0.71389 0.73554 0.0
C801 C 0.45173 0.70285 0.72086 0.0
C802 C 0.43226 0.71803 0.68605 0.0
C803 C 0.4497 0.70494 0.69638 0.0
C804 C 0.41725 0.72944 0.70088 0.0
C805 C 0.41934 0.72738 0.72545 0.0
U806 U 0.45568 0.67624 0.78327 0.0
O807 O 0.46956 0.68455 0.82129 0.0
O808 O 0.43683 0.66015 0.81085 0.0
C809 C 0.45155 0.6717 0.8285 0.0
C810 C 0.43707 0.70955 0.76081 0.0
C811 C 0.44092 0.68177 0.84967 0.0
C812 C 0.44589 0.69255 0.89272 0.0
C813 C 0.45572 0.68836 0.87113 0.0
C814 C 0.40622 0.68543 0.87157 0.0
C815 C 0.42104 0.69003 0.89326 0.0
C816 C 0.41605 0.68131 0.84996 0.0
C817 C 0.48906 0.62334 0.762 0.0
C818 C 0.48896 0.58508 0.77806 0.0
C819 C 0.51636 0.59515 0.74933 0.0
C820 C 0.50751 0.61734 0.74843 0.0
C821 C 0.50668 0.5785 0.76363 0.0
C822 C 0.48028 0.60731 0.77731 0.0
C823 C 0.47787 0.64534 0.75841 0.0
O824 O 0.42467 0.68968 0.76452 0.0
O825 O 0.45833 0.71285 0.77299 0.0
O826 O 0.48883 0.66525 0.7699 0.0
O827 O 0.4546 0.64363 0.7588 0.0
H828 H 0.46487 0.6921 0.72826 0.0
H829 H 0.46149 0.69595 0.68541 0.0
H830 H 0.40328 0.73917 0.69338 0.0
H831 H 0.40717 0.73573 0.73645 0.0
H832 H 0.45771 0.69585 0.90918 0.0
H833 H 0.47492 0.6887 0.87144 0.0
H834 H 0.38699 0.68344 0.87154 0.0
H835 H 0.40411 0.67633 0.83375 0.0
H836 H 0.48105 0.57263 0.78919 0.0
H837 H 0.53039 0.59083 0.73844 0.0
H838 H 0.51459 0.62954 0.7366 0.0
H839 H 0.46609 0.61161 0.78802 0.0
C840 C 0.01961 0.7148 0.18285 0.0
C841 C 0.02762 0.7321 0.20214 0.0
C842 C 0.01618 0.70422 0.23002 0.0
C843 C 0.02583 0.72689 0.22553 0.0
C844 C 0.00915 0.68654 0.2108 0.0
C845 C 0.01074 0.69186 0.18728 0.0
U846 U 0.03567 0.76229 0.14472 0.0
O847 O 0.04938 0.76313 0.10971 0.0
O848 O 0.01541 0.77738 0.11571 0.0
C849 C 0.03047 0.77202 0.1002 0.0
C850 C 0.0193 0.72158 0.15841 0.0
C851 C 0.02019 0.7616 0.07591 0.0
C852 C 0.0266 0.74463 0.03614 0.0
C853 C 0.03457 0.75028 0.06035 0.0
C854 C 0.98918 0.76029 0.04265 0.0
C855 C 0.00417 0.75035 0.02688 0.0
C856 C 0.99715 0.76598 0.0669 0.0
C857 C 0.06843 0.81935 0.18158 0.0
C858 C 0.06543 0.86187 0.18167 0.0
C859 C 0.10076 0.84804 0.20112 0.0
C860 C 0.09118 0.82443 0.19427 0.0
C861 C 0.08758 0.86697 0.19564 0.0
C862 C 0.05593 0.83828 0.17467 0.0
C863 C 0.05716 0.79451 0.17826 0.0
O864 O 0.00577 0.73864 0.15418 0.0
O865 O 0.04038 0.72502 0.1506 0.0
O866 O 0.06851 0.77866 0.16667 0.0
O867 O 0.03389 0.79138 0.17278 0.0
H868 H 0.03458 0.74991 0.19906 0.0
H869 H 0.0314 0.74074 0.24011 0.0
H870 H 0.00151 0.66899 0.21395 0.0
H871 H 0.00447 0.67832 0.17259 0.0
H872 H 0.03863 0.73715 0.02438 0.0
H873 H 0.0525 0.7469 0.06658 0.0
H874 H 0.97167 0.7646 0.03605 0.0
H875 H 0.98565 0.77484 0.07831 0.0
H876 H 0.05482 0.87609 0.17723 0.0
H877 H 0.11809 0.85146 0.21143 0.0
H878 H 0.10115 0.8101 0.19974 0.0
H879 H 0.03838 0.83492 0.16479 0.0
C880 C 0.59618 0.25444 0.78766 0.0
C881 C 0.57756 0.25517 0.80234 0.0
C882 C 0.6063 0.26549 0.83767 0.0
C883 C 0.58256 0.26072 0.82706 0.0
C884 C 0.62488 0.26479 0.82286 0.0
C885 C 0.61984 0.25941 0.7981 0.0
U886 U 0.55762 0.21967 0.73441 0.0
O887 O 0.54635 0.22924 0.69867 0.0
O888 O 0.56765 0.19905 0.70244 0.0
C889 C 0.55709 0.21239 0.68779 0.0
C890 C 0.59127 0.24756 0.76168 0.0
C891 C 0.56933 0.21855 0.667 0.0
C892 C 0.58988 0.24735 0.64467 0.0
C893 C 0.58195 0.241 0.66619 0.0
C894 C 0.57346 0.20861 0.62499 0.0
C895 C 0.58524 0.2314 0.62365 0.0
C896 C 0.56575 0.20226 0.64643 0.0
C897 C 0.50188 0.18058 0.74398 0.0
C898 C 0.47969 0.15522 0.71056 0.0
C899 C 0.46615 0.15538 0.7499 0.0
C900 C 0.48535 0.17229 0.75901 0.0
C901 C 0.46316 0.14657 0.72559 0.0
C902 C 0.4988 0.17213 0.71966 0.0
C903 C 0.52271 0.1974 0.75379 0.0
O904 O 0.59327 0.22508 0.75471 0.0
O905 O 0.57233 0.25545 0.75102 0.0
O906 O 0.52231 0.21922 0.74779 0.0
O907 O 0.54349 0.18918 0.75204 0.0
H908 H 0.55914 0.25118 0.79472 0.0
H909 H 0.56784 0.26108 0.83794 0.0
H910 H 0.64335 0.26769 0.83044 0.0
H911 H 0.63448 0.25867 0.78712 0.0
H912 H 0.59886 0.26505 0.64426 0.0
H913 H 0.58483 0.2539 0.68187 0.0
H914 H 0.56881 0.19611 0.60914 0.0
H915 H 0.55581 0.18495 0.64662 0.0
H916 H 0.47837 0.14829 0.69192 0.0
H917 H 0.45381 0.14895 0.76192 0.0
H918 H 0.4875 0.17862 0.77785 0.0
H919 H 0.5115 0.17823 0.70781 0.0
C920 C 0.01178 0.31684 0.32569 0.0
C921 C 0.99768 0.32837 0.30953 0.0
C922 C 0.01052 0.30445 0.27595 0.0
C923 C 0.99695 0.32215 0.28493 0.0
C924 C 0.02406 0.29241 0.29219 0.0
C925 C 0.02472 0.29861 0.31686 0.0
U926 U 0.0073 0.36672 0.37296 0.0
O927 O 0.99515 0.36912 0.40871 0.0
O928 O 0.03197 0.38287 0.40422 0.0
C929 C 0.01591 0.37923 0.41916 0.0
C930 C 0.01471 0.32542 0.35138 0.0
C931 C 0.02394 0.37272 0.44312 0.0
C932 C 0.04349 0.387 0.48284 0.0
C933 C 0.03993 0.38923 0.45838 0.0
C934 C 0.01661 0.35056 0.47698 0.0
C935 C 0.03111 0.36818 0.49253 0.0
C936 C 0.01296 0.35285 0.45248 0.0
C937 C 0.98532 0.42315 0.34983 0.0
C938 C 0.9973 0.46492 0.36362 0.0
C939 C 0.95969 0.45342 0.3392 0.0
C940 C 0.96411 0.42948 0.33839 0.0
C941 C 0.9765 0.47146 0.35137 0.0
C942 C 0.00158 0.441 0.36303 0.0
C943 C 0.99095 0.39823 0.34631 0.0
O944 O 0.03176 0.34297 0.35757 0.0
O945 O 0.9949 0.32901 0.36098 0.0
O946 O 0.97692 0.38232 0.35525 0.0
O947 O 0.01365 0.39495 0.34968 0.0
H948 H 0.98778 0.34273 0.31592 0.0
H949 H 0.98652 0.33187 0.27288 0.0
H950 H 0.03448 0.27851 0.2858 0.0
H951 H 0.03582 0.2896 0.32901 0.0
H952 H 0.05486 0.40075 0.4944 0.0
H953 H 0.04848 0.4048 0.45165 0.0
H954 H 0.00672 0.33595 0.484 0.0
H955 H 1.00045 0.33988 0.4412 0.0
H956 H 0.01094 0.47834 0.37263 0.0
H957 H 0.94349 0.45789 0.32964 0.0
H958 H 0.9513 0.41598 0.32816 0.0
H959 H 0.01806 0.43662 0.37211 0.0
H960 H 0.2403 0.44542 0.54251 0.0
C961 C 0.23959 0.46327 0.55101 0.0
C962 C 0.23783 0.48211 0.53667 0.0
C963 C 0.23937 0.46745 0.57605 0.0
H964 H 0.2345 0.51964 0.53625 0.0
C965 C 0.2359 0.50507 0.54729 0.0
C966 C 0.23587 0.5097 0.5719 0.0
C967 C 0.23803 0.49108 0.58633 0.0
C968 C 0.23928 0.44726 0.59137 0.0
H969 H 0.23833 0.4951 0.60546 0.0
C970 C 0.25136 0.42694 0.58594 0.0
C971 C 0.25104 0.4083 0.60081 0.0
C972 C 0.22658 0.4481 0.61164 0.0
H973 H 0.21631 0.46278 0.61603 0.0
C974 C 0.22652 0.42978 0.62643 0.0
H975 H 0.26136 0.42569 0.57056 0.0
C976 C 0.23874 0.41007 0.62115 0.0
H977 H 0.23825 0.39592 0.63277 0.0
H978 H 0.21677 0.43081 0.64197 0.0
H979 H 0.34282 0.62237 0.96561 0.0
C980 C 0.34777 0.61008 0.97787 0.0
C981 C 0.33745 0.58629 0.9718 0.0
C982 C 0.36408 0.6177 0.9989 0.0
H983 H 0.33994 0.55013 0.97973 0.0
C984 C 0.34577 0.56885 0.98518 0.0
C985 C 0.3617 0.5747 0.00545 0.0
C986 C 0.37001 0.59865 0.01284 0.0
C987 C 0.37265 0.64553 0.00425 0.0
H988 H 0.38073 0.60052 0.02954 0.0
C989 C 0.35321 0.66244 0.98865 0.0
C990 C 0.35943 0.69227 0.98747 0.0
C991 C 0.41005 0.67518 0.02418 0.0
H992 H 0.42654 0.6726 0.03493 0.0
C993 C 0.40752 0.70319 0.01753 0.0
H994 H 0.33557 0.65498 0.98106 0.0
C995 C 0.38382 0.7102 1.00059 0.0
H996 H 0.38406 0.72897 0.99828 0.0
H997 H 0.42158 0.7171 0.02447 0.0
H998 H 0.63085 0.04928 0.39773 0.0
C999 C 0.64305 0.03626 0.39358 0.0
C1000 C 0.63773 0.00915 0.40432 0.0
C1001 C 0.66541 0.0459 0.3779 0.0
H1002 H 0.64902 0.96941 0.40884 0.0
C1003 C 0.65363 0.98527 0.40032 0.0
C1004 C 0.67881 0.98634 0.38583 0.0
C1005 C 0.68683 0.0283 0.37077 0.0
C1006 C 0.6653 0.06906 0.36827 0.0
H1007 H 0.70081 0.03606 0.36087 0.0
C1008 C 0.68253 0.0882 0.37711 0.0
C1009 C 0.68297 0.10971 0.36651 0.0
C1010 C 0.64874 0.07149 0.34882 0.0
H1011 H 0.63605 0.05667 0.34107 0.0
C1012 C 0.64894 0.0929 0.33855 0.0
H1013 H 0.69567 0.08625 0.39184 0.0
C1014 C 0.66592 0.11193 0.34732 0.0
H1015 H 0.66579 0.12844 0.3391 0.0
H1016 H 0.63607 0.09465 0.32356 0.0
H1017 H 0.75472 0.86409 0.01207 0.0
C1018 C 0.75116 0.88181 0.008 0.0
C1019 C 0.75962 0.90149 0.02463 0.0
C1020 C 0.73908 0.88518 0.98578 0.0
H1021 H 0.76157 0.93962 0.03243 0.0
C1022 C 0.75523 0.92444 0.01944 0.0
C1023 C 0.74304 0.92818 0.99769 0.0
C1024 C 0.73519 0.90858 0.98077 0.0
C1025 C 0.73127 0.8645 0.96748 0.0
H1026 H 0.7258 0.91161 0.9639 0.0
C1027 C 0.72127 0.84248 0.97387 0.0
C1028 C 0.7136 0.82327 0.95625 0.0
C1029 C 0.73392 0.86672 0.9433 0.0
H1030 H 0.74202 0.88315 0.93782 0.0
C1031 C 0.72657 0.84764 0.92589 0.0
H1032 H 0.71888 0.84042 0.99236 0.0
C1033 C 0.71644 0.82607 0.93227 0.0
H1034 H 0.71106 0.81142 0.91845 0.0
H1035 H 0.72882 0.84955 0.90737 0.0
H1036 H 0.54612 0.25449 0.4614 0.0
C1037 C 0.55473 0.25488 0.4794 0.0
C1038 C 0.54127 0.25861 0.49869 0.0
C1039 C 0.57899 0.25103 0.48339 0.0
H1040 H 0.54085 0.25981 0.53661 0.0
C1041 C 0.55179 0.25802 0.52195 0.0
C1042 C 0.57566 0.25375 0.52648 0.0
C1043 C 0.58933 0.2506 0.50714 0.0
C1044 C 0.59308 0.24621 0.46277 0.0
H1045 H 0.60794 0.24777 0.51063 0.0
C1046 C 0.58985 0.25812 0.44203 0.0
C1047 C 0.6027 0.25285 0.42235 0.0
C1048 C 0.60949 0.22905 0.46348 0.0
H1049 H 0.61207 0.21914 0.47879 0.0
C1050 C 0.62243 0.22401 0.44418 0.0
H1051 H 0.57766 0.27174 0.4413 0.0
C1052 C 0.61908 0.23576 0.42377 0.0
H1053 H 0.62907 0.23119 0.40889 0.0
H1054 H 0.63492 0.2107 0.44494 0.0
H1055 H 0.01977 0.76002 0.86212 0.0
C1056 C 0.01469 0.75683 0.8796 0.0
C1057 C 0.03017 0.76634 0.89984 0.0
C1058 C 0.99258 0.74393 0.88201 0.0
H1059 H 0.03567 0.76982 0.93827 0.0
C1060 C 0.02358 0.76294 0.92255 0.0
C1061 C 0.00184 0.7503 0.92539 0.0
C1062 C 0.98648 0.7405 0.90521 0.0
C1063 C 0.97559 0.73483 0.86047 0.0
H1064 H 0.96987 0.73035 0.90772 0.0
C1065 C 0.98384 0.72697 0.83853 0.0
C1066 C 0.96765 0.71918 0.81814 0.0
C1067 C 0.95083 0.73464 0.86155 0.0
H1068 H 0.94374 0.74113 0.87776 0.0
C1069 C 0.93477 0.72664 0.84152 0.0
H1070 H 0.0028 0.72712 0.83719 0.0
C1071 C 0.94305 0.71899 0.81998 0.0
H1072 H 0.93017 0.71287 0.8047 0.0
H1073 H 0.91578 0.72658 0.84264 0.0
H1074 H 0.95523 0.35162 0.62979 0.0
C1075 C 0.96855 0.35444 0.61757 0.0
C1076 C 0.96235 0.34711 0.59332 0.0
C1077 C 0.99201 0.3641 0.62653 0.0
H1078 H 0.97395 0.34625 0.55833 0.0
C1079 C 0.9791 0.35092 0.57731 0.0
C1080 C 0.00237 0.36068 0.58522 0.0
C1081 C 0.00937 0.36607 0.60991 0.0
C1082 C 0.99668 0.36769 0.65607 0.0
H1083 H 0.02806 0.37111 0.61547 0.0
C1084 C 0.98413 0.34397 0.67199 0.0
C1085 C 0.98224 0.34844 0.70193 0.0
C1086 C 0.01012 0.40542 0.68788 0.0
H1087 H 0.01798 0.4236 0.68643 0.0
C1088 C 0.0041 0.39987 0.71546 0.0
H1089 H 0.99014 0.35475 0.66143 0.0
C1090 C 0.99115 0.37345 0.721 0.0
H1091 H 0.9887 0.37216 0.73958 0.0
H1092 H 0.0087 0.41383 0.73005 0.0
H1093 H 0.40079 0.62934 0.05544 0.0
C1094 C 0.39719 0.63953 0.04051 0.0
C1095 C 0.41217 0.63341 0.0161 0.0
C1096 C 0.37865 0.66042 0.04543 0.0
H1097 H 0.42231 0.64251 0.97715 0.0
C1098 C 0.41101 0.64733 0.99083 0.0
C1099 C 0.39475 0.67093 0.98728 0.0
C1100 C 0.37269 0.67968 0.02532 0.0
C1101 C 0.36788 0.66219 0.06795 0.0
H1102 H 0.36053 0.69287 0.03014 0.0
C1103 C 0.37723 0.67976 0.08653 0.0
C1104 C 0.36756 0.68079 0.10857 0.0
C1105 C 0.34877 0.64568 0.07124 0.0
H1106 H 0.34154 0.63194 0.05704 0.0
C1107 C 0.33888 0.6468 0.09293 0.0
H1108 H 0.39248 0.69203 0.08407 0.0
C1109 C 0.34823 0.66418 0.11153 0.0
H1110 H 0.34037 0.66463 0.12827 0.0
H1111 H 0.32404 0.63406 0.0954 0.0
H1112 H 0.4519 0.54207 0.25504 0.0
C1113 C 0.46964 0.55079 0.25423 0.0
C1114 C 0.48926 0.53758 0.2571 0.0
C1115 C 0.47297 0.57495 0.24982 0.0
H1116 H 0.52703 0.53746 0.25617 0.0
C1117 C 0.51216 0.54821 0.25501 0.0
C1118 C 0.51601 0.57194 0.25012 0.0
C1119 C 0.49641 0.58539 0.24799 0.0
C1120 C 0.45207 0.58904 0.24626 0.0
H1121 H 0.49954 0.60396 0.24494 0.0
C1122 C 0.43186 0.5854 0.25891 0.0
C1123 C 0.41254 0.5991 0.25553 0.0
C1124 C 0.45216 0.6063 0.22988 0.0
H1125 H 0.46687 0.60915 0.21924 0.0
C1126 C 0.43305 0.61991 0.22666 0.0
H1127 H 0.43125 0.57237 0.27171 0.0
C1128 C 0.4134 0.61645 0.23946 0.0
H1129 H 0.39867 0.6271 0.23659 0.0
H1130 H 0.43342 0.63313 0.21406 0.0
H1131 H 0.85752 0.01075 0.7496 0.0
C1132 C 0.87535 0.00761 0.74552 0.0
C1133 C 0.8946 0.02467 0.75425 0.0
C1134 C 0.87926 0.98611 0.73242 0.0
H1135 H 0.93257 0.03369 0.75598 0.0
C1136 C 0.91769 0.02044 0.74936 0.0
C1137 C 0.922 0.9994 0.73624 0.0
C1138 C 0.90282 0.98209 0.728 0.0
C1139 C 0.85894 0.96754 0.72416 0.0
H1140 H 0.90623 0.96574 0.71791 0.0
C1141 C 0.83666 0.97371 0.71453 0.0
C1142 C 0.8176 0.95593 0.70677 0.0
C1143 C 0.86169 0.94337 0.72621 0.0
H1144 H 0.87837 0.93806 0.73393 0.0
C1145 C 0.84277 0.92578 0.71884 0.0
H1146 H 0.83427 0.99222 0.71257 0.0
C1147 C 0.82088 0.93196 0.70923 0.0
H1148 H 0.80638 0.91798 0.70396 0.0
H1149 H 0.84505 0.90727 0.72073 0.0
H1150 H 0.62979 0.96126 0.35083 0.0
C1151 C 0.61687 0.97413 0.35029 0.0
C1152 C 0.59308 0.96627 0.34194 0.0
C1153 C 0.62428 0.99842 0.35781 0.0
H1154 H 0.5574 0.97628 0.33745 0.0
C1155 C 0.57613 0.9826 0.34217 0.0
C1156 C 0.58269 0.00673 0.34954 0.0
C1157 C 0.60685 0.01489 0.35626 0.0
C1158 C 0.65339 0.00495 0.36522 0.0
H1159 H 0.61131 0.03383 0.36019 0.0
C1160 C 0.67324 0.99354 0.34478 0.0
C1161 C 0.70294 0.99374 0.35343 0.0
C1162 C 0.67944 0.02085 0.4062 0.0
H1163 H 0.67496 0.02855 0.42347 0.0
C1164 C 0.70842 0.01672 0.405 0.0
H1165 H 0.66083 0.99882 0.35364 0.0
C1166 C 0.71838 0.00411 0.38033 0.0
H1167 H 0.73741 0.00286 0.38183 0.0
H1168 H 0.72095 0.02227 0.42064 0.0
H1169 H 0.04285 0.40595 0.64288 0.0
C1170 C 0.02835 0.39874 0.65197 0.0
C1171 C 1.00123 0.40953 0.64668 0.0
C1172 C 0.0368 0.37994 0.67185 0.0
H1173 H 0.95992 0.40978 0.65452 0.0
C1174 C 0.97613 0.40203 0.65976 0.0
C1175 C 0.97584 0.38408 0.68232 0.0
C1176 C 0.01781 0.36907 0.69056 0.0
C1177 C 0.05961 0.36998 0.67031 0.0
H1178 H 0.02474 0.35697 0.70288 0.0
C1179 C 0.08076 0.3811 0.68335 0.0
C1180 C 0.10248 0.37135 0.68083 0.0
C1181 C 0.0601 0.34905 0.65508 0.0
H1182 H 0.04387 0.3403 0.64499 0.0
C1183 C 0.08154 0.33928 0.65269 0.0
H1184 H 0.08037 0.39731 0.69511 0.0
C1185 C 0.10263 0.35032 0.66546 0.0
H1186 H 0.11906 0.34229 0.66355 0.0
H1187 H 0.08181 0.32309 0.64093 0.0
H1188 H 0.73235 0.54698 0.47014 0.0
C1189 C 0.74315 0.53451 0.46168 0.0
C1190 C 0.75396 0.5181 0.47514 0.0
C1191 C 0.7447 0.53338 0.43687 0.0
H1192 H 0.77483 0.48836 0.47439 0.0
C1193 C 0.76714 0.50143 0.46401 0.0
C1194 C 0.76891 0.50007 0.43946 0.0
C1195 C 0.75754 0.51596 0.42589 0.0
C1196 C 0.73091 0.5485 0.42188 0.0
H1197 H 0.75831 0.51445 0.40674 0.0
C1198 C 0.73252 0.57346 0.42735 0.0
C1199 C 0.71988 0.58748 0.41228 0.0
C1200 C 0.71604 0.5377 0.40164 0.0
H1201 H 0.71425 0.51853 0.39722 0.0
C1202 C 0.70307 0.55146 0.38709 0.0
H1203 H 0.74408 0.58199 0.4428 0.0
C1204 C 0.70494 0.57615 0.39233 0.0
H1205 H 0.69454 0.58644 0.38082 0.0
H1206 H 0.69151 0.54294 0.37167 0.0
H1207 H 0.7028 0.38459 0.03028 0.0
C1208 C 0.69158 0.39649 0.02179 0.0
C1209 C 0.68462 0.41627 0.03556 0.0
C1210 C 0.68456 0.39271 0.99692 0.0
H1211 H 0.66683 0.44822 0.03462 0.0
C1212 C 0.67109 0.43227 0.02435 0.0
C1213 C 0.66428 0.42895 0.99987 0.0
C1214 C 0.67062 0.40908 0.98631 0.0
C1215 C 0.69231 0.37268 0.98132 0.0
H1216 H 0.66479 0.40664 0.96735 0.0
C1217 C 0.69308 0.34945 0.98845 0.0
C1218 C 0.69779 0.33029 0.97212 0.0
C1219 C 0.69785 0.37673 0.95822 0.0
H1220 H 0.69853 0.39443 0.95241 0.0
C1221 C 0.70211 0.35802 0.94203 0.0
H1222 H 0.68983 0.34644 0.00646 0.0
C1223 C 0.70155 0.33501 0.94866 0.0
H1224 H 0.70391 0.3209 0.93507 0.0
H1225 H 0.70554 0.36132 0.92408 0.0
H1226 H 0.31811 0.9544 0.57645 0.0
C1227 C 0.32415 0.97247 0.58408 0.0
C1228 C 0.33681 0.98774 0.57043 0.0
C1229 C 0.31782 0.9809 0.60664 0.0
H1230 H 0.35292 0.0236 0.56914 0.0
C1231 C 0.34415 0.01135 0.57997 0.0
C1232 C 0.33813 0.02016 0.60228 0.0
C1233 C 0.32521 0.00489 0.61565 0.0
C1234 C 0.30137 0.9655 0.61937 0.0
H1235 H 0.32042 0.01202 0.63269 0.0
C1236 C 0.30155 0.94044 0.61745 0.0
C1237 C 0.28467 0.92595 0.62786 0.0
C1238 C 0.28405 0.97568 0.6322 0.0
H1239 H 0.28238 0.99458 0.63308 0.0
C1240 C 0.26795 0.96149 0.64336 0.0
H1241 H 0.31459 0.93204 0.60765 0.0
C1242 C 0.26812 0.93679 0.64112 0.0
H1243 H 0.25467 0.9261 0.64899 0.0
H1244 H 0.25481 0.96964 0.65319 0.0
H1245 H 0.25908 0.13105 0.96864 0.0
C1246 C 0.25782 0.11349 0.9748 0.0
C1247 C 0.2419 0.09533 0.96172 0.0
C1248 C 0.27253 0.10873 0.99504 0.0
H1249 H 0.22989 0.05784 0.95725 0.0
C1250 C 0.24133 0.07209 0.96813 0.0
C1251 C 0.25627 0.06666 0.98751 0.0
C1252 C 0.2712 0.08507 0.00146 0.0
C1253 C 0.29034 0.12793 0.00832 0.0
H1254 H 0.28222 0.08061 0.01676 0.0
C1255 C 0.28629 0.15231 0.00941 0.0
C1256 C 0.30366 0.17025 0.021 0.0
C1257 C 0.31215 0.12207 0.01925 0.0
H1258 H 0.31659 0.10387 0.0182 0.0
C1259 C 0.32914 0.13976 0.03112 0.0
H1260 H 0.2697 0.15751 0.00138 0.0
C1261 C 0.32502 0.16366 0.03193 0.0
H1262 H 0.3389 0.17709 0.04052 0.0
H1263 H 0.34585 0.13495 0.03929 0.0
H1264 H 0.46688 0.73844 0.54582 0.0
C1265 C 0.45708 0.74493 0.53081 0.0
C1266 C 0.46972 0.75713 0.51465 0.0
C1267 C 0.43202 0.74002 0.52686 0.0
H1268 H 0.46692 0.77323 0.48167 0.0
C1269 C 0.45716 0.76479 0.49475 0.0
C1270 C 0.43238 0.75967 0.49028 0.0
C1271 C 0.41986 0.74753 0.50641 0.0
C1272 C 0.41871 0.7255 0.54291 0.0
H1273 H 0.40067 0.74364 0.50272 0.0
C1274 C 0.4249 0.72829 0.56787 0.0
C1275 C 0.41237 0.71412 0.58272 0.0
C1276 C 0.39985 0.70826 0.53313 0.0
H1277 H 0.39497 0.70513 0.51404 0.0
C1278 C 0.38732 0.69438 0.5478 0.0
H1279 H 0.43949 0.7413 0.57572 0.0
C1280 C 0.3935 0.69724 0.5724 0.0
H1281 H 0.38349 0.68624 0.58342 0.0
H1282 H 0.37285 0.68121 0.54004 0.0
H1283 H 0.96048 0.25712 0.13149 0.0
C1284 C 0.96853 0.25401 0.11501 0.0
C1285 C 0.9564 0.2377 0.09651 0.0
C1286 C 0.99031 0.26708 0.1118 0.0
H1287 H 0.95611 0.22317 0.05985 0.0
C1288 C 0.96604 0.23463 0.07469 0.0
C1289 C 0.9873 0.24764 0.07092 0.0
C1290 C 0.99957 0.26363 0.08949 0.0
C1291 C 0.00249 0.28542 0.13102 0.0
H1292 H 0.0161 0.27351 0.08632 0.0
C1293 C 0.00224 0.2822 0.1555 0.0
C1294 C 0.01381 0.29976 0.1733 0.0
C1295 C 0.01415 0.30673 0.12487 0.0
H1296 H 0.0141 0.31034 0.10643 0.0
C1297 C 0.02561 0.32406 0.14246 0.0
H1298 H 0.99348 0.26598 0.16079 0.0
C1299 C 0.02549 0.32063 0.16648 0.0
H1300 H 0.03419 0.33454 0.17983 0.0
H1301 H 0.03442 0.34037 0.13744 0.0
H1302 H 0.04329 0.68939 0.37833 0.0
C1303 C 0.03605 0.67713 0.38999 0.0
C1304 C 0.05021 0.67329 0.41082 0.0
C1305 C 0.01246 0.66569 0.38487 0.0
H1306 H 0.05112 0.65695 0.44363 0.0
C1307 C 0.04067 0.65878 0.42691 0.0
C1308 C 0.01726 0.64811 0.42267 0.0
C1309 C 0.00353 0.65084 0.40145 0.0
C1310 C 0.99651 0.67005 0.3633 0.0
H1311 H 0.98573 0.64154 0.39836 0.0
C1312 C 0.00573 0.67633 0.34209 0.0
C1313 C 0.99027 0.68061 0.32223 0.0
C1314 C 0.97151 0.66817 0.36392 0.0
H1315 H 0.96341 0.66473 0.37995 0.0
C1316 C 0.95625 0.67103 0.34387 0.0
H1317 H 0.02478 0.6781 0.34094 0.0
C1318 C 0.96548 0.67699 0.32314 0.0
H1319 H 0.95316 0.679 0.30777 0.0
H1320 H 0.93712 0.66891 0.34453 0.0
H1321 H 0.58563 0.29546 0.9642 0.0
C1322 C 0.58961 0.30497 0.9819 0.0
C1323 C 0.57104 0.31516 0.99234 0.0
C1324 C 0.61297 0.30699 0.99408 0.0
H1325 H 0.55971 0.33195 0.02426 0.0
C1326 C 0.57467 0.32546 0.01591 0.0
C1327 C 0.59691 0.32646 0.02918 0.0
C1328 C 0.61633 0.31955 0.01736 0.0
C1329 C 0.63236 0.29538 0.98152 0.0
H1330 H 0.63351 0.32373 0.02704 0.0
C1331 C 0.63003 0.29607 0.95648 0.0
C1332 C 0.62915 0.27493 0.9413 0.0
C1333 C 0.64604 0.2767 0.99125 0.0
H1334 H 0.68053 0.28325 0.02436 0.0
C1335 C 0.63837 0.25437 0.97608 0.0
H1336 H 0.62386 0.31165 0.9491 0.0
C1337 C 0.63134 0.25382 0.95173 0.0
H1338 H 0.62882 0.23676 0.94088 0.0
H1339 H 0.64121 0.23697 0.98157 0.0
H1340 H 0.54404 0.46944 0.74244 0.0
C1341 C 0.52831 0.46205 0.74979 0.0
C1342 C 0.51356 0.47762 0.76046 0.0
C1343 C 0.52218 0.43711 0.74777 0.0
H1344 H 0.48064 0.48032 0.77618 0.0
C1345 C 0.49253 0.46828 0.7688 0.0
C1346 C 0.48592 0.44371 0.76656 0.0
C1347 C 0.50095 0.42812 0.75658 0.0
C1348 C 0.53685 0.4206 0.73491 0.0
H1349 H 0.49567 0.40908 0.75508 0.0
C1350 C 0.562 0.42486 0.73702 0.0
C1351 C 0.57559 0.40955 0.72412 0.0
C1352 C 0.5256 0.40068 0.71981 0.0
H1353 H 0.50634 0.39714 0.71723 0.0
C1354 C 0.53901 0.38532 0.70733 0.0
H1355 H 0.57101 0.43983 0.74889 0.0
C1356 C 0.56379 0.38969 0.70941 0.0
H1357 H 0.57375 0.37774 0.69913 0.0
H1358 H 0.53011 0.37012 0.69571 0.0
H1359 H 0.13294 0.96956 0.25921 0.0
C1360 C 0.1163 0.97709 0.25528 0.0
C1361 C 0.09872 0.96421 0.23853 0.0
C1362 C 0.11202 0.99892 0.26758 0.0
H1363 H 0.06273 0.96264 0.22185 0.0
C1364 C 0.07669 0.97307 0.23405 0.0
C1365 C 0.0717 0.99421 0.24648 0.0
C1366 C 0.08938 0.00728 0.26298 0.0
C1367 C 0.13052 0.01207 0.28617 0.0
H1368 H 0.08528 0.02381 0.27218 0.0
C1369 C 0.15523 0.01113 0.28443 0.0
C1370 C 0.17242 0.02252 0.30267 0.0
C1371 C 0.12353 0.02497 0.30642 0.0
H1372 H 0.10491 0.0256 0.30901 0.0
C1373 C 0.14052 0.03678 0.32416 0.0
H1374 H 0.16117 0.00122 0.26918 0.0
C1375 C 0.16474 0.03554 0.32238 0.0
H1376 H 0.17755 0.04466 0.33656 0.0
H1377 H 0.13484 0.04663 0.33959 0.0
H1378 H 0.37717 0.05205 0.696 0.0
C1379 C 0.38908 0.04601 0.68337 0.0
C1380 C 0.40953 0.06112 0.68041 0.0
C1381 C 0.38479 0.02292 0.67079 0.0
H1382 H 0.44256 0.06421 0.66466 0.0
C1383 C 0.42606 0.05303 0.66555 0.0
C1384 C 0.42257 0.0301 0.65347 0.0
C1385 C 0.40161 0.01549 0.65544 0.0
C1386 C 0.36392 0.00584 0.67466 0.0
H1387 H 0.3989 0.99808 0.64527 0.0
C1388 C 0.3421 0.01378 0.6808 0.0
C1389 C 0.3227 0.99726 0.68416 0.0
C1390 C 0.36591 0.98108 0.6725 0.0
H1391 H 0.38248 0.97405 0.66901 0.0
C1392 C 0.34665 0.96478 0.67523 0.0
H1393 H 0.34018 0.03266 0.68299 0.0
C1394 C 0.32522 0.97273 0.68091 0.0
H1395 H 0.31052 0.95955 0.68277 0.0
H1396 H 0.34841 0.94584 0.67314 0.0
H1397 H 0.95337 0.57546 0.31568 0.0
C1398 C 0.97167 0.58298 0.32066 0.0
C1399 C 0.98675 0.57012 0.33446 0.0
C1400 C 0.98051 0.60442 0.31219 0.0
H1401 H 0.02298 0.56756 0.34861 0.0
C1402 C 0.01097 0.57834 0.33941 0.0
C1403 C 0.02038 0.59894 0.33045 0.0
C1404 C 0.0051 0.61235 0.31758 0.0
C1405 C 0.96465 0.61692 0.29581 0.0
H1406 H 0.01277 0.62828 0.31102 0.0
C1407 C 0.93967 0.61511 0.29676 0.0
C1408 C 0.92453 0.6245 0.27959 0.0
C1409 C 0.97413 0.62941 0.27789 0.0
H1410 H 0.9929 0.63031 0.27552 0.0
C1411 C 0.95938 0.64028 0.262 0.0
H1412 H 0.93177 0.60605 0.31053 0.0
C1413 C 0.93474 0.63772 0.26268 0.0
H1414 H 0.92359 0.64525 0.24932 0.0
H1415 H 0.96703 0.64998 0.2485 0.0
C1416 C 0.08531 0.61737 0.3529 0.0
C1417 C 0.09711 0.60189 0.33811 0.0
C1418 C 0.06042 0.61788 0.34943 0.0
C1419 C 0.04661 0.60315 0.3308 0.0
H1420 H 0.0953 0.62837 0.3679 0.0
H1421 H 0.05183 0.62888 0.36207 0.0
S1422 S 0.06848 0.5608 0.286 0.0
N1423 N 0.09275 0.57236 0.30335 0.0
N1424 N 0.04627 0.57394 0.29651 0.0
C1425 C 0.05824 0.58882 0.31498 0.0
C1426 C 0.08344 0.58808 0.31863 0.0
C1427 C 0.41919 0.43829 0.76722 0.0
C1428 C 0.41596 0.42886 0.78894 0.0
C1429 C 0.44183 0.44149 0.75931 0.0
C1430 C 0.46203 0.43517 0.77269 0.0
H1431 H 0.4044 0.44475 0.75702 0.0
H1432 H 0.44377 0.45013 0.74323 0.0
S1433 S 0.46293 0.40692 0.82902 0.0
N1434 N 0.43462 0.41094 0.82242 0.0
N1435 N 0.47732 0.41716 0.80742 0.0
C1436 C 0.45894 0.42422 0.79351 0.0
C1437 C 0.43585 0.42104 0.80169 0.0
C1438 C 0.47385 0.99354 0.64289 0.0
C1439 C 0.48721 0.00734 0.62846 0.0
C1440 C 0.45194 1.00009 0.64955 0.0
C1441 C 0.44263 0.0206 0.64192 0.0
H1442 H 0.4809 0.97822 0.64997 0.0
H1443 H 0.44291 0.98981 0.66185 0.0
S1444 S 0.46871 0.06035 0.60068 0.0
N1445 N 0.48816 0.04069 0.60437 0.0
N1446 N 0.44699 0.05298 0.61696 0.0
C1447 C 0.45504 0.03358 0.62622 0.0
C1448 C 0.47733 0.02697 0.61949 0.0
C1449 C 0.00674 0.99438 0.25602 0.0
C1450 C 0.99631 0.99811 0.23324 0.0
C1451 C 0.03165 0.99555 0.26109 0.0
C1452 C 0.04689 1.00052 0.24358 0.0
H1453 H 0.9956 0.98882 0.26944 0.0
H1454 H 0.03893 0.99074 0.27817 0.0
S1455 S 0.02891 0.01574 0.18275 0.0
N1456 N 0.00345 0.01043 0.19429 0.0
N1457 N 0.05015 0.01188 0.20372 0.0
C1458 C 0.03683 0.00617 0.22149 0.0
C1459 C 0.01157 0.00518 0.21636 0.0
C1460 C 0.36947 0.08264 0.61122 0.0
C1461 C 0.35046 0.09661 0.60691 0.0
C1462 C 0.36533 0.05792 0.61214 0.0
C1463 C 0.34202 0.04629 0.60898 0.0
H1464 H 0.38776 0.09064 0.61246 0.0
H1465 H 0.38048 0.04762 0.61377 0.0
S1466 S 0.28605 0.07452 0.59876 0.0
N1467 N 0.30737 0.09689 0.60086 0.0
N1468 N 0.29971 0.05049 0.6028 0.0
C1469 C 0.32284 0.06017 0.60643 0.0
C1470 C 0.32702 0.08533 0.60537 0.0
C1471 C 0.26172 1.00102 0.97305 0.0
C1472 C 0.25264 0.9907 0.9924 0.0
C1473 C 0.26405 0.02576 0.97236 0.0
C1474 C 0.25758 0.04121 0.99106 0.0
H1475 H 0.26581 0.98985 0.95765 0.0
H1476 H 0.27006 0.03286 0.95659 0.0
S1477 S 0.23545 0.02363 0.04698 0.0
N1478 N 0.23911 0.99808 0.03173 0.0
N1479 N 0.24348 0.04477 0.03026 0.0
C1480 C 0.24983 0.03137 0.01115 0.0
C1481 C 0.2473 0.00606 0.01183 0.0
C1482 C 0.77203 0.4389 0.40845 0.0
C1483 C 0.79357 0.43263 0.41958 0.0
C1484 C 0.76522 0.46199 0.41274 0.0
C1485 C 0.77972 0.47953 0.42833 0.0
H1486 H 0.7596 0.42542 0.39771 0.0
H1487 H 0.7476 0.46547 0.40556 0.0
S1488 S 0.83937 0.47359 0.45885 0.0
N1489 N 0.83054 0.4469 0.44465 0.0
N1490 N 0.81781 0.49028 0.45218 0.0
C1491 C 0.8023 0.47425 0.43752 0.0
C1492 C 0.80923 0.45079 0.43327 0.0
C1493 C 0.65723 0.48304 0.96679 0.0
C1494 C 0.63626 0.491 0.9747 0.0
C1495 C 0.66525 0.4617 0.97347 0.0
C1496 C 0.65274 0.44794 0.98856 0.0
H1497 H 0.66786 0.49377 0.95603 0.0
H1498 H 0.68206 0.45668 0.96798 0.0
S1499 S 0.59648 0.46046 0.01332 0.0
N1500 N 0.60267 0.48292 0.99757 0.0
N1501 N 0.618 0.443 0.01029 0.0
C1502 C 0.63131 0.45519 0.99578 0.0
C1503 C 0.623 0.4767 0.9888 0.0
C1504 C 0.57981 0.32529 0.09245 0.0
C1505 C 0.59841 0.33973 0.10664 0.0
C1506 C 0.57991 0.32114 0.06773 0.0
C1507 C 0.59844 0.33149 0.05581 0.0
H1508 H 0.56467 0.31752 0.10045 0.0
H1509 H 0.56514 0.30961 0.05785 0.0
S1510 S 0.65291 0.36846 0.08536 0.0
N1511 N 0.63709 0.36258 0.10753 0.0
N1512 N 0.63692 0.35567 0.06073 0.0
C1513 C 0.61766 0.34538 0.06992 0.0
C1514 C 0.61764 0.3494 0.09533 0.0
C1515 C 1.00113 0.21941 0.0116 0.0
C1516 C 0.99337 0.23563 0.99585 0.0
C1517 C 0.00142 0.2244 0.03639 0.0
C1518 C 0.99441 0.24597 0.04638 0.0
H1519 H 0.00568 0.20212 0.00464 0.0
H1520 H 0.00567 0.21069 0.04773 0.0
S1521 S 0.97466 0.29532 0.01354 0.0
N1522 N 0.97998 0.27487 0.99243 0.0
N1523 N 0.98118 0.28435 0.03909 0.0
C1524 C 0.98844 0.26309 0.0311 0.0
C1525 C 0.98783 0.25794 0.00581 0.0
C1526 C 0.40573 0.74742 0.42613 0.0
C1527 C 0.40896 0.77006 0.41785 0.0
C1528 C 0.4114 0.74446 0.45027 0.0
C1529 C 0.42059 0.76401 0.46687 0.0
H1530 H 0.40043 0.73165 0.41366 0.0
H1531 H 0.41027 0.72655 0.45563 0.0
S1532 S 0.42811 0.8274 0.45532 0.0
N1533 N 0.41838 0.81277 0.42899 0.0
N1534 N 0.4298 0.80695 0.47419 0.0
C1535 C 0.42208 0.78689 0.45926 0.0
C1536 C 0.41605 0.78998 0.43479 0.0
C1537 C 0.98526 0.64398 0.47757 0.0
C1538 C 0.99485 0.62473 0.48758 0.0
C1539 C 0.99089 0.6501 0.4552 0.0
C1540 C 0.00653 0.63736 0.44237 0.0
H1541 H 0.97411 0.65491 0.48752 0.0
H1542 H 0.98425 0.66585 0.44864 0.0
S1543 S 0.03522 0.58476 0.46 0.0
N1544 N 0.01961 0.59214 0.48228 0.0
N1545 N 0.03041 0.60404 0.44039 0.0
C1546 C 0.01529 0.61744 0.45159 0.0
C1547 C 0.00936 0.611 0.47419 0.0
C1548 C 0.90927 0.36784 0.67728 0.0
C1549 C 0.90147 0.38863 0.6883 0.0
C1550 C 0.9336 0.36464 0.67823 0.0
C1551 C 0.95124 0.38176 0.69079 0.0
H1552 H 0.89661 0.35477 0.66629 0.0
H1553 H 0.93851 0.34952 0.66737 0.0
S1554 S 0.94001 0.43881 0.72379 0.0
N1555 N 0.91318 0.42607 0.71317 0.0
N1556 N 0.95874 0.41992 0.71519 0.0
C1557 C 0.94342 0.40176 0.70334 0.0
C1558 C 0.91863 0.40515 0.70219 0.0
C1559 C 0.5834 0.57877 0.25348 0.0
C1560 C 0.58762 0.58605 0.23103 0.0
C1561 C 0.5603 0.57648 0.26056 0.0
C1562 C 0.54045 0.58124 0.24545 0.0
H1563 H 0.59771 0.57306 0.26497 0.0
H1564 H 0.55775 0.56937 0.27734 0.0
S1565 S 0.54247 0.60521 0.18686 0.0
N1566 N 0.57055 0.60177 0.19544 0.0
N1567 N 0.52698 0.59655 0.20836 0.0
C1568 C 0.54469 0.59069 0.22397 0.0
C1569 C 0.56829 0.59322 0.21683 0.0
C1570 C 0.52362 0.02994 0.3359 0.0
C1571 C 0.51576 0.03316 0.35876 0.0
C1572 C 0.54683 0.0243 0.33293 0.0
C1573 C 0.56313 0.02195 0.35272 0.0
H1574 H 0.51125 0.0302 0.32011 0.0
H1575 H 0.55142 0.01976 0.31502 0.0
S1576 S 0.5527 0.03121 0.41634 0.0
N1577 N 0.52712 0.0356 0.40162 0.0
N1578 N 0.57082 0.0255 0.39583 0.0
C1579 C 0.55635 0.02737 0.37565 0.0
C1580 C 0.53263 0.03286 0.37874 0.0
C1581 C 0.98331 0.97887 0.74671 0.0
C1582 C 0.9979 0.99708 0.73814 0.0
C1583 C 0.9583 0.97823 0.74396 0.0
C1584 C 0.94707 0.99582 0.73262 0.0
H1585 H 0.99133 0.96578 0.75675 0.0
H1586 H 0.94784 0.96497 0.75229 0.0
S1587 S 0.97668 0.04569 0.70475 0.0
N1588 N 0.99889 0.03194 0.7161 0.0
N1589 N 0.95201 0.03044 0.71072 0.0
C1590 C 0.96128 0.01296 0.72238 0.0
C1591 C 0.98667 0.01365 0.72516 0.0
C1592 C 0.70066 0.93492 0.41564 0.0
C1593 C 0.69062 0.9152 0.39965 0.0
C1594 C 0.70028 0.95831 0.40935 0.0
C1595 C 0.68994 0.96301 0.38682 0.0
H1596 H 0.70678 0.93247 0.43389 0.0
H1597 H 0.70575 0.97286 0.42322 0.0
S1598 S 0.6655 0.91672 0.33699 0.0
N1599 N 0.67393 0.90138 0.35908 0.0
N1600 N 0.67207 0.94499 0.34751 0.0
C1601 C 0.68199 0.94311 0.36995 0.0
C1602 C 0.68272 0.91934 0.37628 0.0
C1603 C 0.75458 0.98803 0.97432 0.0
C1604 C 0.74497 0.00343 0.99109 0.0
C1605 C 0.75204 0.96321 0.97514 0.0
C1606 C 0.73999 0.95302 0.99288 0.0
H1607 H 0.76509 0.99532 0.96119 0.0
H1608 H 0.76094 0.95211 0.96288 0.0
S1609 S 0.70983 0.98506 0.03958 0.0
N1610 N 0.72151 0.00634 0.02489 0.0
N1611 N 0.7167 0.95977 0.02625 0.0
C1612 C 0.72901 0.96801 0.00872 0.0
C1613 C 0.73149 0.99321 0.00786 0.0
C1614 C 0.20755 0.56699 0.57888 0.0
C1615 C 0.2273 0.58406 0.58621 0.0
C1616 C 0.21011 0.54253 0.57647 0.0
C1617 C 0.23244 0.5342 0.58152 0.0
H1618 H 0.19029 0.57257 0.57327 0.0
H1619 H 0.19484 0.53013 0.56907 0.0
S1620 S 0.28903 0.57097 0.60445 0.0
N1621 N 0.26944 0.59057 0.60109 0.0
N1622 N 0.27416 0.54445 0.59622 0.0
C1623 C 0.25195 0.55079 0.59054 0.0
C1624 C 0.2494 0.57577 0.59295 0.0
C1625 C 0.39522 0.52215 0.01693 0.0
C1626 C 0.37796 0.50689 0.02607 0.0
C1627 C 0.39111 0.54559 0.01291 0.0
C1628 C 0.36966 0.55459 0.01801 0.0
H1629 H 0.41122 0.5154 0.01112 0.0
H1630 H 0.40384 0.556 0.0039 0.0
S1631 S 0.32071 0.52365 0.04603 0.0
N1632 N 0.34017 0.50384 0.04327 0.0
N1633 N 0.33234 0.54772 0.03524 0.0
C1634 C 0.35328 0.54034 0.02908 0.0
C1635 C 0.35743 0.51652 0.03321 0.0
C1636 C 0.41694 0.70469 0.93608 0.0
C1637 C 0.41091 0.6875 0.91629 0.0
C1638 C 0.41044 0.70036 0.95881 0.0
C1639 C 0.39653 0.67911 0.96248 0.0
H1640 H 0.42787 0.72105 0.93425 0.0
H1641 H 0.41784 0.71324 0.97358 0.0
S1642 S 0.38224 0.62633 0.91749 0.0
N1643 N 0.39453 0.647 0.90264 0.0
N1644 N 0.38072 0.63942 0.94452 0.0
C1645 C 0.39082 0.6618 0.9426 0.0
C1646 C 0.3982 0.66589 0.91978 0.0
C1647 C 0.00159 0.72796 0.98599 0.0
C1648 C 0.99805 0.74866 1.00057 0.0
C1649 C 1.00047 0.72772 0.96105 0.0
C1650 C 0.99581 0.74819 0.94997 0.0
H1651 H 0.0064 0.71223 0.99401 0.0
H1652 H 0.00486 0.71201 0.95057 0.0
S1653 S 0.98415 0.80645 0.97963 0.0
N1654 N 0.98863 0.78979 0.00171 0.0
N1655 N 0.98649 0.78914 0.95495 0.0
C1656 C 0.99092 0.76848 0.96412 0.0
C1657 C 0.99201 0.76877 0.98942 0.0
C1658 C 0.58168 0.2613 0.59397 0.0
C1659 C 0.58923 0.23941 0.59982 0.0
C1660 C 0.5796 0.26687 0.5703 0.0
C1661 C 0.58484 0.25073 0.55147 0.0
H1662 H 0.57559 0.27351 0.60744 0.0
H1663 H 0.57226 0.28325 0.56651 0.0
S1664 S 0.60965 0.19308 0.55777 0.0
N1665 N 0.60573 0.20328 0.5853 0.0
N1666 N 0.60086 0.21333 0.54067 0.0
C1667 C 0.59454 0.22982 0.5573 0.0
C1668 C 0.59688 0.22423 0.58149 0.0
C1669 C 0.03385 0.34859 0.5307 0.0
C1670 C 0.0301 0.36884 0.51877 0.0
C1671 C 0.0279 0.34723 0.55415 0.0
C1672 C 0.01786 0.36601 0.56637 0.0
H1673 H 0.04008 0.33317 0.52133 0.0
H1674 H 0.02916 0.3306 0.56195 0.0
S1675 S 0.0043 0.42271 0.54307 0.0
N1676 N 0.01643 0.40833 0.52134 0.0
N1677 N 0.00448 0.40527 0.56482 0.0
C1678 C 0.0152 0.38676 0.55508 0.0
C1679 C 0.0215 0.3883 0.53142 0.0
C1680 C 0.22228 0.49152 0.47246 0.0
C1681 C 0.24373 0.48818 0.46253 0.0
C1682 C 0.21952 0.48699 0.49597 0.0
C1683 C 0.23807 0.47892 0.51043 0.0
H1684 H 0.20819 0.49943 0.4627 0.0
H1685 H 0.20344 0.49154 0.5035 0.0
S1686 S 0.29597 0.46318 0.49168 0.0
N1687 N 0.28242 0.47283 0.46785 0.0
N1688 N 0.27732 0.46491 0.51237 0.0
C1689 C 0.25867 0.47337 0.50011 0.0
C1690 C 0.26151 0.47793 0.47609 0.0
C1691 C 0.28749 0.54605 0.93417 0.0
C1692 C 0.28959 0.55247 0.91111 0.0
C1693 C 0.30121 0.55893 0.95396 0.0
C1694 C 0.31829 0.57827 0.95147 0.0
H1695 H 0.27642 0.53002 0.93683 0.0
H1696 H 0.29953 0.5526 0.97125 0.0
S1697 S 0.32362 0.60678 0.89539 0.0
N1698 N 0.30461 0.5828 0.88736 0.0
N1699 N 0.33118 0.60666 0.92429 0.0
C1700 C 0.31793 0.58671 0.92879 0.0
C1701 C 0.30355 0.57376 0.90867 0.0
C1702 C 0.6095 0.98015 0.45239 0.0
C1703 C 0.61746 0.99701 0.47203 0.0
C1704 C 0.6119 0.98578 0.42903 0.0
C1705 C 0.62322 0.00805 0.42484 0.0
H1706 H 0.60358 0.96196 0.45517 0.0
H1707 H 0.60763 0.97165 0.41449 0.0
S1708 S 0.64093 0.05999 0.47064 0.0
N1709 N 0.63175 0.03809 0.48588 0.0
N1710 N 0.63725 0.04866 0.44242 0.0
C1711 C 0.62771 0.02605 0.44426 0.0
C1712 C 0.62485 0.02039 0.46787 0.0
C1713 C 0.77059 0.88969 0.08896 0.0
C1714 C 0.79184 0.9046 0.09681 0.0
C1715 C 0.7612 0.88684 0.06488 0.0
C1716 C 0.77275 0.89886 0.04794 0.0
H1717 H 0.76049 0.88123 0.10174 0.0
H1718 H 0.74399 0.87662 0.05983 0.0
S1719 S 0.83022 0.93741 0.05854 0.0
N1720 N 0.82516 0.9297 0.08515 0.0
N1721 N 0.80769 0.92391 0.03991 0.0
C1722 C 0.79494 0.91216 0.05516 0.0
C1723 C 0.80447 0.91512 0.07962 0.0
C1724 C 0.47494 0.24138 0.49036 0.0
C1725 C 0.46634 0.26137 0.50214 0.0
C1726 C 0.49918 0.24141 0.48695 0.0
C1727 C 0.51554 0.26136 0.49536 0.0
H1728 H 0.46307 0.22523 0.48482 0.0
H1729 H 0.50545 0.22516 0.47931 0.0
S1730 S 0.50199 0.31866 0.5256 0.0
N1731 N 0.47599 0.30214 0.52077 0.0
N1732 N 0.52145 0.30205 0.51427 0.0
C1733 C 0.50695 0.28192 0.50571 0.0
C1734 C 0.48234 0.28197 0.50911 0.0
C1735 C 0.09492 0.77423 0.88895 0.0
C1736 C 0.10373 0.7948 0.90446 0.0
C1737 C 0.07052 0.7662 0.8857 0.0
C1738 C 0.05415 0.77847 0.8979 0.0
H1739 H 0.10715 0.76354 0.88028 0.0
H1740 H 0.06471 0.74938 0.87499 0.0
S1741 S 0.06745 0.83505 0.93773 0.0
N1742 N 0.09373 0.82853 0.93019 0.0
N1743 N 0.04781 0.8137 0.92359 0.0
C1744 C 0.06241 0.80015 0.91176 0.0
C1745 C 0.08723 0.80828 0.91515 0.0
C1746 C 0.91654 0.30146 0.55769 0.0
C1747 C 0.89557 0.31293 0.55742 0.0
C1748 C 0.93774 0.31208 0.57071 0.0
C1749 C 0.93875 0.33447 0.58405 0.0
H1750 H 0.91697 0.28482 0.54664 0.0
H1751 H 0.95379 0.30321 0.56945 0.0
S1752 S 0.88827 0.37053 0.59172 0.0
N1753 N 0.87655 0.34684 0.57356 0.0
N1754 N 0.91672 0.36687 0.598 0.0
C1755 C 0.91765 0.34543 0.5853 0.0
C1756 C 0.89598 0.33466 0.57191 0.0
C1757 C 0.46659 0.60868 0.99735 0.0
C1758 C 0.48362 0.6201 0.0156 0.0
C1759 C 0.44208 0.60872 0.99953 0.0
C1760 C 0.43401 0.62091 0.01962 0.0
H1761 H 0.47209 0.60195 0.98039 0.0
H1762 H 0.42957 0.60203 0.98411 0.0
S1763 S 0.47197 0.64568 0.07548 0.0
N1764 N 0.49102 0.63732 0.05684 0.0
N1765 N 0.44527 0.63862 0.06071 0.0
C1766 C 0.45093 0.62847 0.03953 0.0
C1767 C 0.47576 0.62799 0.03744 0.0
C1768 C 0.50238 0.4811 0.2832 0.0
C1769 C 0.49496 0.46355 0.26391 0.0
C1770 C 0.49844 0.50497 0.28168 0.0
C1771 C 0.48669 0.51208 0.26095 0.0
H1772 H 0.51279 0.47671 0.29896 0.0
H1773 H 0.50597 0.51821 0.29621 0.0
S1774 S 0.46091 0.47274 0.20678 0.0
N1775 N 0.47305 0.45456 0.22444 0.0
N1776 N 0.46578 0.49963 0.22164 0.0
C1777 C 0.47758 0.49454 0.24227 0.0
C1778 C 0.48173 0.47021 0.24372 0.0
C1779 C 0.90864 0.0782 0.80011 0.0
C1780 C 0.89609 0.09548 0.78962 0.0
C1781 C 0.90633 0.05458 0.78964 0.0
C1782 C 0.89143 0.04738 0.7683 0.0
H1783 H 0.92176 0.08328 0.81542 0.0
H1784 H 0.91752 0.04221 0.7974 0.0
S1785 S 0.85135 0.08462 0.73635 0.0
N1786 N 0.86539 0.10291 0.75891 0.0
N1787 N 0.8616 0.05852 0.73882 0.0
C1788 C 0.87707 0.06385 0.75893 0.0
C1789 C 0.87932 0.08793 0.76967 0.0
C1790 C 0.57464 0.90149 0.34747 0.0
C1791 C 0.55766 0.89521 0.32739 0.0
C1792 C 0.58803 0.92393 0.35108 0.0
C1793 C 0.58484 0.94078 0.33471 0.0
H1794 H 0.57649 0.88954 0.36123 0.0
H1795 H 0.59951 0.92876 0.36763 0.0
S1796 S 0.54568 0.93195 0.27755 0.0
N1797 N 0.54051 0.90684 0.2897 0.0
N1798 N 0.56616 0.94869 0.29624 0.0
C1799 C 0.56973 0.93389 0.3135 0.0
C1800 C 0.55602 0.91115 0.30987 0.0
C1801 C 0.99555 0.47547 0.65014 0.0
C1802 C 0.0133 0.48406 0.63671 0.0
C1803 C 0.99024 0.45118 0.65118 0.0
C1804 C 0.00223 0.43399 0.63856 0.0
H1805 H 0.98658 0.48779 0.66113 0.0
H1806 H 0.97805 0.44657 0.66396 0.0
S1807 S 0.04765 0.44788 0.59721 0.0
N1808 N 0.04114 0.47431 0.60818 0.0
N1809 N 0.03069 0.42799 0.60934 0.0
C1810 C 0.01868 0.44248 0.62325 0.0
C1811 C 0.02427 0.46762 0.62244 0.0
C1812 C 0.73646 0.48747 0.52781 0.0
C1813 C 0.74903 0.50213 0.54731 0.0
C1814 C 0.73652 0.49396 0.5046 0.0
C1815 C 0.74924 0.5153 0.5 0.0
H1816 H 0.72715 0.47045 0.53045 0.0
H1817 H 0.72761 0.48158 0.48995 0.0
S1818 S 0.78381 0.56056 0.54489 0.0
N1819 N 0.77337 0.5396 0.56072 0.0
N1820 N 0.77372 0.55164 0.51675 0.0
C1821 C 0.76087 0.53073 0.51937 0.0
C1822 C 0.7607 0.52417 0.54314 0.0
C1823 C 0.7254 0.4425 0.09019 0.0
C1824 C 0.70903 0.45001 0.10588 0.0
C1825 C 0.71756 0.42901 0.0682 0.0
C1826 C 0.6931 0.4227 0.06117 0.0
H1827 H 0.74423 0.44855 0.09409 0.0
H1828 H 0.73052 0.4253 0.05581 0.0
S1829 S 0.6434 0.43429 0.09742 0.0
N1830 N 0.66758 0.44678 0.11436 0.0
N1831 N 0.65283 0.42262 0.07261 0.0
C1832 C 0.67679 0.42837 0.07753 0.0
C1833 C 0.68475 0.44173 0.09998 0.0
C1834 C 0.3624 0.98653 0.51097 0.0
C1835 C 0.34221 0.97867 0.49468 0.0
C1836 C 0.36106 0.9875 0.53565 0.0
C1837 C 0.33948 0.98074 0.5449 0.0
H1838 H 0.3789 0.99347 0.5047 0.0
H1839 H 0.37667 0.99491 0.54758 0.0
S1840 S 0.28257 0.95529 0.50949 0.0
N1841 N 0.30105 0.96075 0.48934 0.0
N1842 N 0.29812 0.96361 0.53563 0.0
C1843 C 0.31971 0.97103 0.52873 0.0
C1844 C 0.32118 0.9698 0.50364 0.0
C1845 C 0.22688 0.10137 0.89657 0.0
C1846 C 0.20225 0.09366 0.89305 0.0
C1847 C 0.23939 0.10417 0.91943 0.0
C1848 C 0.22769 0.09929 0.93946 0.0
H1849 H 0.23693 0.10356 0.88144 0.0
H1850 H 0.2586 0.10836 0.9212 0.0
S1851 S 0.16291 0.08295 0.94054 0.0
N1852 N 0.16614 0.08471 0.91204 0.0
N1853 N 0.18989 0.08939 0.95495 0.0
C1854 C 0.20285 0.09353 0.93649 0.0
C1855 C 0.19006 0.09085 0.91328 0.0
C1856 C 0.53308 0.78351 0.5108 0.0
C1857 C 0.5455 0.76315 0.50863 0.0
C1858 C 0.50884 0.78166 0.51446 0.0
C1859 C 0.49616 0.7594 0.51623 0.0
H1860 H 0.54196 0.80092 0.50887 0.0
H1861 H 0.49968 0.79762 0.51493 0.0
S1862 S 0.52032 0.70074 0.51216 0.0
N1863 N 0.54325 0.72004 0.50895 0.0
N1864 N 0.49782 0.71671 0.51612 0.0
C1865 C 0.50857 0.73906 0.5152 0.0
C1866 C 0.53321 0.7409 0.51133 0.0
C1867 C 0.88968 0.23239 0.0972 0.0
C1868 C 0.88279 0.209 0.0863 0.0
C1869 C 0.91381 0.24098 0.1029 0.0
C1870 C 0.93188 0.22644 0.09792 0.0
H1871 H 0.87637 0.24462 0.09998 0.0
H1872 H 0.91831 0.25965 0.10938 0.0
S1873 S 0.92337 0.16276 0.07337 0.0
N1874 N 0.89603 0.17066 0.07339 0.0
N1875 N 0.94134 0.18664 0.08479 0.0
C1876 C 0.9252 0.20236 0.08931 0.0
C1877 C 0.90065 0.19365 0.08334 0.0
C1878 C 0.09737 0.71974 0.44258 0.0
C1879 C 0.11654 0.70613 0.44737 0.0
C1880 C 0.07655 0.70975 0.42817 0.0
C1881 C 0.07427 0.68589 0.41807 0.0
H1882 H 0.09772 0.73763 0.45141 0.0
H1883 H 0.06143 0.7201 0.42657 0.0
S1884 S 0.1205 0.64393 0.42191 0.0
N1885 N 0.13304 0.66862 0.43798 0.0
N1886 N 0.09354 0.64971 0.4118 0.0
C1887 C 0.09394 0.67277 0.42115 0.0
C1888 C 0.11517 0.68292 0.43558 0.0
C1889 C 0.51471 0.33638 0.96572 0.0
C1890 C 0.49734 0.31819 0.96993 0.0
C1891 C 0.5391 0.33426 0.97072 0.0
C1892 C 0.54686 0.3138 0.97986 0.0
H1893 H 0.50937 0.35295 0.95989 0.0
H1894 H 0.55188 0.34935 0.96905 0.0
S1895 S 0.50905 0.26043 0.99231 0.0
N1896 N 0.48991 0.27841 0.98242 0.0
N1897 N 0.53584 0.27448 0.99141 0.0
C1898 C 0.5299 0.29482 0.98247 0.0
C1899 C 0.50508 0.29697 0.97754 0.0
C1900 C 0.51732 0.5427 0.78356 0.0
C1901 C 0.51352 0.5537 0.76244 0.0
C1902 C 0.51941 0.51818 0.78281 0.0
C1903 C 0.51805 0.50383 0.76094 0.0
H1904 H 0.51758 0.5529 0.80079 0.0
H1905 H 0.52081 0.51013 0.79944 0.0
S1906 S 0.50965 0.52386 0.70062 0.0
N1907 N 0.50954 0.54833 0.71898 0.0
N1908 N 0.51397 0.50233 0.71777 0.0
C1909 C 0.51582 0.51476 0.73975 0.0
C1910 C 0.51345 0.5397 0.74045 0.0
C1911 C 0.09372 0.91085 0.1922 0.0
C1912 C 0.09547 0.8918 0.20629 0.0
C1913 C 0.09669 0.93455 0.20262 0.0
C1914 C 0.10165 0.94004 0.22747 0.0
H1915 H 0.08896 0.90737 0.1731 0.0
H1916 H 0.09391 0.94865 0.1913 0.0
S1917 S 0.10908 0.8969 0.27218 0.0
N1918 N 0.10341 0.88016 0.24635 0.0
N1919 N 0.10926 0.92475 0.26579 0.0
C1920 C 0.10486 0.92131 0.24161 0.0
C1921 C 0.10171 0.89716 0.23105 0.0
C1922 C 0.44188 0.10618 0.72831 0.0
C1923 C 0.44438 0.12678 0.71624 0.0
C1924 C 0.428 0.08536 0.71759 0.0
C1925 C 0.41607 0.0845 0.69455 0.0
H1926 H 0.45213 0.10552 0.74536 0.0
H1927 H 0.42822 0.06928 0.72654 0.0
S1928 S 0.41344 0.13447 0.65706 0.0
N1929 N 0.43098 0.14584 0.68131 0.0
N1930 N 0.40535 0.10647 0.66112 0.0
C1931 C 0.41677 0.10545 0.68317 0.0
C1932 C 0.43083 0.12665 0.69402 0.0
C1933 C 0.96825 0.50394 0.32576 0.0
C1934 C 0.97406 0.49701 0.34867 0.0
C1935 C 0.97045 0.52801 0.32164 0.0
C1936 C 0.97865 0.54597 0.34027 0.0
H1937 H 0.96352 0.49064 0.31054 0.0
H1938 H 0.96738 0.53243 0.30347 0.0
S1939 S 0.99207 0.53781 0.40414 0.0
N1940 N 0.985 0.51044 0.39081 0.0
N1941 N 0.98974 0.55571 0.38283 0.0
C1942 C 0.98276 0.53951 0.36352 0.0
C1943 C 0.98032 0.51502 0.36779 0.0
C1944 C 0.35282 0.5725 0.27155 0.0
C1945 C 0.34638 0.59055 0.28786 0.0
C1946 C 0.37489 0.57479 0.26207 0.0
C1947 C 0.39106 0.59537 0.2683 0.0
H1948 H 0.34058 0.55663 0.2659 0.0
H1949 H 0.37897 0.5608 0.24912 0.0
S1950 S 0.38296 0.64755 0.31036 0.0
N1951 N 0.35827 0.62941 0.31015 0.0
N1952 N 0.39948 0.63383 0.29198 0.0
C1953 C 0.38504 0.61332 0.28484 0.0
C1954 C 0.36278 0.61087 0.29474 0.0
C1955 C 0.14923 0.39374 0.73278 0.0
C1956 C 0.17004 0.39795 0.72138 0.0
C1957 C 0.1271 0.38616 0.71951 0.0
C1958 C 0.1251 0.38251 0.69444 0.0
H1959 H 0.15023 0.39541 0.75209 0.0
H1960 H 0.11168 0.38214 0.72895 0.0
S1961 S 0.17343 0.39454 0.65602 0.0
N1962 N 0.18665 0.40053 0.68353 0.0
N1963 N 0.14516 0.38607 0.65869 0.0
C1964 C 0.1455 0.38789 0.68284 0.0
C1965 C 0.16794 0.39566 0.69629 0.0
C1966 C 0.75857 0.9831 0.70068 0.0
C1967 C 0.74673 0.97082 0.67934 0.0
C1968 C 0.78186 0.97891 0.709 0.0
C1969 C 0.79406 0.96208 0.69644 0.0
H1970 H 0.7497 0.99593 0.71112 0.0
H1971 H 0.79008 0.98836 0.72577 0.0
S1972 S 0.77146 0.92585 0.63923 0.0
N1973 N 0.74931 0.9415 0.64561 0.0
N1974 N 0.79305 0.93392 0.66106 0.0
C1975 C 0.78266 0.95014 0.67481 0.0
C1976 C 0.75904 0.95444 0.66631 0.0
C1977 C 0.75455 0.9673 0.3278 0.0
C1978 C 0.75797 0.98054 0.30839 0.0
C1979 C 0.73511 0.96994 0.34103 0.0
C1980 C 0.71844 0.98594 0.33535 0.0
H1981 H 0.76753 0.95552 0.3334 0.0
H1982 H 0.7339 0.96044 0.35668 0.0
S1983 S 0.71829 0.02354 0.28533 0.0
N1984 N 0.74217 0.00911 0.28324 0.0
N1985 N 0.70563 0.01407 0.30828 0.0
C1986 C 0.7207 0.99809 0.3151 0.0
C1987 C 0.74052 0.99541 0.30157 0.0
C1988 C 0.29061 0.35866 0.60902 0.0
C1989 C 0.28191 0.34151 0.58971 0.0
C1990 C 0.28119 0.38068 0.61194 0.0
C1991 C 0.26309 0.38657 0.59541 0.0
H1992 H 0.3042 0.35467 0.62244 0.0
H1993 H 0.28772 0.39299 0.62755 0.0
S1994 S 0.23531 0.34868 0.54098 0.0
N1995 N 0.2549 0.33239 0.55324 0.0
N1996 N 0.23747 0.37399 0.55859 0.0
C1997 C 0.25489 0.37002 0.57554 0.0
C1998 C 0.2642 0.34743 0.57275 0.0
C1999 C 0.33411 0.74122 0.95682 0.0
C2000 C 0.31459 0.74549 0.96966 0.0
C2001 C 0.347 0.7217 0.96041 0.0
C2002 C 0.34085 0.70582 0.97699 0.0
H2003 H 0.3403 0.75383 0.94494 0.0
H2004 H 0.36304 0.72015 0.95161 0.0
S2005 S 0.28986 0.70757 0.01326 0.0
N2006 N 0.28845 0.73094 0.998 0.0
N2007 N 0.31283 0.69428 0.00473 0.0
C2008 C 0.3202 0.70865 0.98837 0.0
C2009 C 0.30702 0.72854 0.98474 0.0
C2010 C 0.71555 0.16328 0.40561 0.0
C2011 C 0.7292 0.17456 0.38953 0.0
C2012 C 0.70162 0.14141 0.39853 0.0
C2013 C 0.70091 0.1302 0.37517 0.0
H2014 H 0.71467 0.172 0.42335 0.0
H2015 H 0.69039 0.13387 0.41097 0.0
S2016 S 0.7364 0.15028 0.32771 0.0
N2017 N 0.74344 0.17129 0.35028 0.0
N2018 N 0.71704 0.13042 0.33696 0.0
C2019 C 0.71566 0.14049 0.35951 0.0
C2020 C 0.72986 0.16261 0.36669 0.0
C2021 C 0.70726 0.76378 0.9822 0.0
C2022 C 0.68538 0.75269 0.97043 0.0
C2023 C 0.7158 0.78712 0.97845 0.0
C2024 C 0.70291 0.80002 0.96255 0.0
H2025 H 0.71801 0.75421 0.99412 0.0
H2026 H 0.73301 0.79477 0.98734 0.0
S2027 S 0.64428 0.77958 0.92812 0.0
N2028 N 0.65072 0.7568 0.94283 0.0
N2029 N 0.66674 0.80056 0.9359 0.0
C2030 C 0.68073 0.78942 0.95124 0.0
C2031 C 0.67196 0.7658 0.95517 0.0
C2032 C 0.61657 0.28305 0.36732 0.0
C2033 C 0.59391 0.28383 0.355 0.0
C2034 C 0.61915 0.27375 0.3894 0.0
C2035 C 0.59918 0.26478 0.4001 0.0
H2036 H 0.63251 0.28957 0.35976 0.0
H2037 H 0.637 0.27334 0.39807 0.0
S2038 S 0.53587 0.26239 0.37503 0.0
N2039 N 0.55107 0.2748 0.35511 0.0
N2040 N 0.55592 0.25722 0.39658 0.0
C2041 C 0.57637 0.26587 0.3882 0.0
C2042 C 0.57373 0.27539 0.36568 0.0
C2043 C 0.98928 0.29692 0.73755 0.0
C2044 C 0.97258 0.30046 0.75412 0.0
C2045 C 0.99031 0.31058 0.71812 0.0
C2046 C 0.9746 0.32802 0.71468 0.0
H2047 H 0.00279 0.28492 0.74066 0.0
H2048 H 0.00489 0.30909 0.70716 0.0
S2049 S 0.92479 0.34076 0.75035 0.0
N2050 N 0.93776 0.31994 0.76367 0.0
N2051 N 0.93992 0.34574 0.72749 0.0
C2052 C 0.95638 0.32992 0.72973 0.0
C2053 C 0.95534 0.31612 0.74943 0.0
C2054 C 0.39424 0.7066 0.17091 0.0
C2055 C 0.39955 0.73099 0.16856 0.0
C2056 C 0.3838 0.69059 0.15147 0.0
C2057 C 0.37825 0.69833 0.12889 0.0
H2058 H 0.39863 0.69971 0.18782 0.0
H2059 H 0.38044 0.67191 0.15404 0.0
S2060 S 0.38683 0.76065 0.11373 0.0
N2061 N 0.39731 0.76235 0.14217 0.0
N2062 N 0.3777 0.73221 0.10559 0.0
C2063 C 0.38312 0.72273 0.12635 0.0
C2064 C 0.39375 0.73906 0.14618 0.0
C2065 C 0.97203 0.71284 0.75124 0.0
C2066 C 0.9885 0.69597 0.74826 0.0
C2067 C 0.96592 0.72059 0.77391 0.0
C2068 C 0.976 0.71182 0.79461 0.0
H2069 H 0.96318 0.71963 0.73586 0.0
H2070 H 0.95293 0.73341 0.7752 0.0
S2071 S 0.02117 0.66846 0.79679 0.0
N2072 N 0.01592 0.67177 0.76815 0.0
N2073 N 0.0039 0.68584 0.81072 0.0
C2074 C 0.99302 0.69545 0.79201 0.0
C2075 C 0.99932 0.68759 0.76887 0.0
C2076 C 0.64088 0.39834 0.72683 0.0
C2077 C 0.65238 0.42033 0.72228 0.0
C2078 C 0.61622 0.39531 0.7283 0.0
C2079 C 0.60203 0.41416 0.72535 0.0
H2080 H 0.65084 0.38305 0.72835 0.0
H2081 H 0.60808 0.37788 0.73125 0.0
S2082 S 0.62371 0.47584 0.71495 0.0
N2083 N 0.64797 0.46177 0.71654 0.0
N2084 N 0.6015 0.45591 0.71873 0.0
C2085 C 0.61343 0.43651 0.72174 0.0
C2086 C 0.63859 0.43961 0.72027 0.0
C2087 C 0.85818 0.6316 0.26976 0.0
C2088 C 0.84745 0.60796 0.26827 0.0
C2089 C 0.88304 0.63696 0.27432 0.0
C2090 C 0.89812 0.61892 0.27779 0.0
H2091 H 0.84737 0.64599 0.26654 0.0
H2092 H 0.89057 0.65533 0.27468 0.0
S2093 S 0.87875 0.55433 0.27728 0.0
N2094 N 0.85367 0.56655 0.27211 0.0
N2095 N 0.90033 0.5765 0.28017 0.0
C2096 C 0.88751 0.59531 0.27718 0.0
C2097 C 0.86223 0.58986 0.2725 0.0
C2098 C 0.23617 0.01237 0.3234 0.0
C2099 C 0.24878 0.01723 0.30385 0.0
C2100 C 0.21154 0.01376 0.32258 0.0
C2101 C 0.19836 0.02004 0.30218 0.0
H2102 H 0.2455 0.00795 0.33974 0.0
H2103 H 0.20274 0.00998 0.33818 0.0
S2104 S 0.22257 0.03363 0.2458 0.0
N2105 N 0.24602 0.02773 0.26309 0.0
N2106 N 0.19968 0.03075 0.26172 0.0
C2107 C 0.21059 0.02452 0.2823 0.0
C2108 C 0.23579 0.02313 0.28314 0.0
C2109 C 0.26546 0.99714 0.71398 0.0
C2110 C 0.25256 0.0131 0.70185 0.0
C2111 C 0.28849 0.99306 0.70882 0.0
C2112 C 0.29968 0.00485 0.69139 0.0
H2113 H 0.25741 0.98719 0.72711 0.0
H2114 H 0.29746 0.98016 0.71832 0.0
S2115 S 0.2743 0.05066 0.6567 0.0
N2116 N 0.25304 0.04222 0.67309 0.0
N2117 N 0.29665 0.03497 0.66359 0.0
C2118 C 0.28743 0.02193 0.68009 0.0
C2119 C 0.26373 0.02582 0.68514 0.0
C2120 C 0.71611 0.64949 0.44314 0.0
C2121 C 0.7199 0.66431 0.42493 0.0
C2122 C 0.71721 0.62474 0.43934 0.0
C2123 C 0.7219 0.6139 0.41711 0.0
H2124 H 0.71187 0.65704 0.46035 0.0
H2125 H 0.71348 0.61391 0.45359 0.0
S2126 S 0.73431 0.64472 0.36396 0.0
N2127 N 0.72927 0.66626 0.38406 0.0
N2128 N 0.73178 0.61995 0.37713 0.0
C2129 C 0.72654 0.62859 0.39905 0.0
C2130 C 0.72545 0.65373 0.40291 0.0
C2131 C 0.71229 0.26429 0.96829 0.0
C2132 C 0.69807 0.25094 0.98257 0.0
C2133 C 0.71243 0.28925 0.96644 0.0
C2134 C 0.69837 0.30521 0.97846 0.0
H2135 H 0.72452 0.25504 0.9581 0.0
H2136 H 0.72484 0.29634 0.95485 0.0
S2137 S 0.64778 0.28185 0.0334 0.0
N2138 N 0.66487 0.25338 0.01556 0.0
N2139 N 0.66654 0.30833 0.01331 0.0
C2140 C 0.68426 0.2954 0.99451 0.0
C2141 C 0.68343 0.26336 0.99601 0.0
C2142 C 0.27584 0.86393 0.59407 0.0
C2143 C 0.27284 0.84888 0.6122 0.0
C2144 C 0.28077 0.88874 0.59941 0.0
C2145 C 0.28268 0.89949 0.62308 0.0
H2146 H 0.2741 0.85649 0.57554 0.0
H2147 H 0.28221 0.89966 0.5848 0.0
S2148 S 0.2774 0.86807 0.6772 0.0
N2149 N 0.27281 0.84656 0.65489 0.0
N2150 N 0.28239 0.89312 0.6649 0.0
C2151 C 0.2804 0.88462 0.64143 0.0
C2152 C 0.27545 0.85935 0.63601 0.0
C2153 C 0.29742 0.22977 0.99663 0.0
C2154 C 0.3031 0.24631 0.0171 0.0
C2155 C 0.29609 0.20508 0.9982 0.0
C2156 C 0.30065 0.196 0.02028 0.0
H2157 H 0.29472 0.23599 0.97916 0.0
H2158 H 0.29273 0.19306 0.98188 0.0
S2159 S 0.31436 0.2315 0.07939 0.0
N2160 N 0.31195 0.25166 0.0603 0.0
N2161 N 0.30918 0.20532 0.06322 0.0
C2162 C 0.30514 0.21227 0.04099 0.0
C2163 C 0.3064 0.23738 0.03942 0.0
C2164 C 0.42693 0.69631 0.64498 0.0
C2165 C 0.42859 0.71804 0.65966 0.0
C2166 C 0.42221 0.69538 0.62016 0.0
C2167 C 0.41906 0.71615 0.60893 0.0
H2168 H 0.42869 0.67974 0.65279 0.0
H2169 H 0.4208 0.67818 0.60964 0.0
S2170 S 0.42267 0.77769 0.6391 0.0
N2171 N 0.42767 0.761 0.66108 0.0
N2172 N 0.41845 0.75918 0.61432 0.0
C2173 C 0.42121 0.73809 0.62329 0.0
C2174 C 0.42596 0.73904 0.64867 0.0
C2175 C 0.02207 0.682 0.26604 0.0
C2176 C 0.01138 0.69981 0.25452 0.0
C2177 C 0.01654 0.67698 0.28883 0.0
C2178 C 0.99941 0.68891 0.30034 0.0
H2179 H 0.03461 0.6718 0.25728 0.0
H2180 H 0.02499 0.663 0.29695 0.0
S2181 S 0.96857 0.73897 0.27866 0.0
N2182 N 0.98472 0.73089 0.25706 0.0
N2183 N 0.97398 0.72121 0.29959 0.0
C2184 C 0.98959 0.70759 0.28941 0.0
C2185 C 0.99555 0.71299 0.26652 0.0
C2186 C 0.59961 0.25427 0.87848 0.0
C2187 C 0.61157 0.26948 0.86419 0.0
C2188 C 0.60502 0.25655 0.90333 0.0
C2189 C 0.62267 0.27411 0.91504 0.0
H2190 H 0.58632 0.24005 0.87035 0.0
H2191 H 0.59535 0.24428 0.91344 0.0
S2192 S 0.65822 0.31944 0.8862 0.0
N2193 N 0.64099 0.30368 0.86384 0.0
N2194 N 0.65149 0.30758 0.91056 0.0
C2195 C 0.63433 0.28988 0.90112 0.0
C2196 C 0.6288 0.28759 0.87572 0.0
C2197 C 0.99058 0.29647 0.23383 0.0
C2198 C 0.01167 0.29994 0.24971 0.0
C2199 C 0.99136 0.29493 0.20897 0.0
C2200 C 0.01326 0.29714 0.19913 0.0
H2201 H 0.97334 0.29551 0.2407 0.0
H2202 H 0.97474 0.29313 0.19743 0.0
S2203 S 0.07351 0.30519 0.2327 0.0
N2204 N 0.05506 0.30457 0.25359 0.0
N2205 N 0.05646 0.30164 0.207 0.0
C2206 C 0.03443 0.29971 0.21474 0.0
C2207 C 0.03365 0.3011 0.23998 0.0
loop_
_geom_bond_atom_site_label_1
_geom_bond_atom_site_label_2
_geom_bond_distance
_geom_bond_site_symmetry_2
_ccdc_geom_bond_type
C0 C1 1.264 . S
C0 C5 1.479 . S
C0 C10 1.465 . S
C1 C0 1.264 . S
C1 C3 1.339 . S
C1 H28 0.931 . S
C2 C3 1.395 . S
C2 C4 1.320 . S
C3 C1 1.339 . S
C3 C2 1.395 . S
C3 H29 0.929 . S
C4 C2 1.320 . S
C4 C5 1.405 . S
C4 H30 0.930 . S
C5 C0 1.479 . S
C5 C4 1.405 . S
C5 H31 0.931 . S
U6 O7 2.454 . S
U6 O8 2.458 . S
U6 C9 2.984 . S
U6 C10 2.847 . S
U6 C23 2.882 . S
U6 O24 2.441 . S
U6 O25 2.420 . S
U6 O26 2.455 . S
U6 O27 2.449 . S
O7 U6 2.454 . S
O7 C9 1.353 . S
O8 U6 2.458 . S
O8 C9 1.286 . S
C9 U6 2.984 . S
C9 O7 1.353 . S
C9 O8 1.286 . S
C9 C11 1.363 . S
C10 C0 1.465 . S
C10 U6 2.847 . S
C10 O24 1.249 . S
C10 O25 1.202 . S
C11 C9 1.363 . S
C11 C13 1.408 . S
C11 C16 1.342 . S
C12 C13 1.310 . S
C12 C15 1.461 . S
C12 H32 0.932 . S
C13 C11 1.408 . S
C13 C12 1.310 . S
C13 H33 0.930 . S
C14 C15 1.474 . S
C14 C16 1.285 . S
C14 H34 0.929 . S
C15 C12 1.461 . S
C15 C14 1.474 . S
C16 C11 1.342 . S
C16 C14 1.285 . S
C16 H35 0.930 . S
C17 C20 1.424 . S
C17 C22 1.245 . S
C17 C23 1.428 . S
C18 C21 1.260 . S
C18 C22 1.477 . S
C18 H36 0.932 . S
C19 C20 1.384 . S
C19 C21 1.479 . S
C19 H37 0.929 . S
C20 C17 1.424 . S
C20 C19 1.384 . S
C20 H38 0.928 . S
C21 C18 1.260 . S
C21 C19 1.479 . S
C22 C17 1.245 . S
C22 C18 1.477 . S
C22 H39 0.932 . S
C23 U6 2.882 . S
C23 C17 1.428 . S
C23 O26 1.301 . S
C23 O27 1.282 . S
O24 U6 2.441 . S
O24 C10 1.249 . S
O25 U6 2.420 . S
O25 C10 1.202 . S
O26 U6 2.455 . S
O26 C23 1.301 . S
O27 U6 2.449 . S
O27 C23 1.282 . S
H28 C1 0.931 . S
H29 C3 0.929 . S
H30 C4 0.930 . S
H31 C5 0.931 . S
H32 C12 0.932 . S
H33 C13 0.930 . S
H34 C14 0.929 . S
H35 C16 0.930 . S
H36 C18 0.932 . S
H37 C19 0.929 . S
H38 C20 0.928 . S
H39 C22 0.932 . S
C40 C41 1.264 . S
C40 C45 1.479 . S
C40 C50 1.465 . S
C41 C40 1.264 . S
C41 C43 1.339 . S
C41 H68 0.931 . S
C42 C43 1.395 . S
C42 C44 1.320 . S
C43 C41 1.339 . S
C43 C42 1.395 . S
C43 H69 0.929 . S
C44 C42 1.320 . S
C44 C45 1.405 . S
C44 H70 0.930 . S
C45 C40 1.479 . S
C45 C44 1.405 . S
C45 H71 0.931 . S
U46 O47 2.454 . S
U46 O48 2.458 . S
U46 C49 2.984 . S
U46 C50 2.847 . S
U46 C63 2.882 . S
U46 O64 2.441 . S
U46 O65 2.420 . S
U46 O66 2.455 . S
U46 O67 2.449 . S
O47 U46 2.454 . S
O47 C49 1.353 . S
O48 U46 2.458 . S
O48 C49 1.286 . S
C49 U46 2.984 . S
C49 O47 1.353 . S
C49 O48 1.286 . S
C49 C51 1.363 . S
C50 C40 1.465 . S
C50 U46 2.847 . S
C50 O64 1.249 . S
C50 O65 1.202 . S
C51 C49 1.363 . S
C51 C53 1.408 . S
C51 C56 1.342 . S
C52 C53 1.310 . S
C52 C55 1.461 . S
C52 H72 0.932 . S
C53 C51 1.408 . S
C53 C52 1.310 . S
C53 H73 0.930 . S
C54 C55 1.474 . S
C54 C56 1.285 . S
C54 H74 0.929 . S
C55 C52 1.461 . S
C55 C54 1.474 . S
C56 C51 1.342 . S
C56 C54 1.285 . S
C56 H75 0.930 . S
C57 C60 1.424 . S
C57 C62 1.245 . S
C57 C63 1.428 . S
C58 C61 1.260 . S
C58 C62 1.477 . S
C58 H76 0.932 . S
C59 C60 1.384 . S
C59 C61 1.479 . S
C59 H77 0.929 . S
C60 C57 1.424 . S
C60 C59 1.384 . S
C60 H78 0.928 . S
C61 C58 1.260 . S
C61 C59 1.479 . S
C62 C57 1.245 . S
C62 C58 1.477 . S
C62 H79 0.932 . S
C63 U46 2.882 . S
C63 C57 1.428 . S
C63 O66 1.301 . S
C63 O67 1.282 . S
O64 U46 2.441 . S
O64 C50 1.249 . S
O65 U46 2.420 . S
O65 C50 1.202 . S
O66 U46 2.455 . S
O66 C63 1.301 . S
O67 U46 2.449 . S
O67 C63 1.282 . S
H68 C41 0.931 . S
H69 C43 0.929 . S
H70 C44 0.930 . S
H71 C45 0.931 . S
H72 C52 0.932 . S
H73 C53 0.930 . S
H74 C54 0.929 . S
H75 C56 0.930 . S
H76 C58 0.932 . S
H77 C59 0.929 . S
H78 C60 0.928 . S
H79 C62 0.932 . S
C80 C81 1.264 . S
C80 C85 1.479 . S
C80 C90 1.465 . S
C81 C80 1.264 . S
C81 C83 1.339 . S
C81 H108 0.931 . S
C82 C83 1.395 . S
C82 C84 1.320 . S
C83 C81 1.339 . S
C83 C82 1.395 . S
C83 H109 0.929 . S
C84 C82 1.320 . S
C84 C85 1.405 . S
C84 H110 0.930 . S
C85 C80 1.479 . S
C85 C84 1.405 . S
C85 H111 0.931 . S
U86 O87 2.454 . S
U86 O88 2.458 . S
U86 C89 2.984 . S
U86 C90 2.847 . S
U86 C103 2.882 . S
U86 O104 2.441 . S
U86 O105 2.420 . S
U86 O106 2.455 . S
U86 O107 2.449 . S
O87 U86 2.454 . S
O87 C89 1.353 . S
O88 U86 2.458 . S
O88 C89 1.286 . S
C89 U86 2.984 . S
C89 O87 1.353 . S
C89 O88 1.286 . S
C89 C91 1.363 . S
C90 C80 1.465 . S
C90 U86 2.847 . S
C90 O104 1.249 . S
C90 O105 1.202 . S
C91 C89 1.363 . S
C91 C93 1.408 . S
C91 C96 1.342 . S
C92 C93 1.310 . S
C92 C95 1.461 . S
C92 H112 0.932 . S
C93 C91 1.408 . S
C93 C92 1.310 . S
C93 H113 0.930 . S
C94 C95 1.474 . S
C94 C96 1.285 . S
C94 H114 0.929 . S
C95 C92 1.461 . S
C95 C94 1.474 . S
C96 C91 1.342 . S
C96 C94 1.285 . S
C96 H115 0.930 . S
C97 C100 1.424 1_565 S
C97 C102 1.245 1_565 S
C97 C103 1.428 . S
C98 C101 1.260 . S
C98 C102 1.477 . S
C98 H116 0.932 . S
C99 C100 1.384 . S
C99 C101 1.479 . S
C99 H117 0.929 . S
C100 C97 1.424 1_545 S
C100 C99 1.384 . S
C100 H118 0.928 . S
C101 C98 1.260 . S
C101 C99 1.479 . S
C102 C97 1.245 1_545 S
C102 C98 1.477 . S
C102 H119 0.932 . S
C103 U86 2.882 . S
C103 C97 1.428 . S
C103 O106 1.301 . S
C103 O107 1.282 . S
O104 U86 2.441 . S
O104 C90 1.249 . S
O105 U86 2.420 . S
O105 C90 1.202 . S
O106 U86 2.455 . S
O106 C103 1.301 . S
O107 U86 2.449 . S
O107 C103 1.282 . S
H108 C81 0.931 . S
H109 C83 0.929 . S
H110 C84 0.930 . S
H111 C85 0.931 . S
H112 C92 0.932 . S
H113 C93 0.930 . S
H114 C94 0.929 . S
H115 C96 0.930 . S
H116 C98 0.932 . S
H117 C99 0.929 . S
H118 C100 0.928 . S
H119 C102 0.932 . S
C120 C121 1.264 . S
C120 C125 1.479 . S
C120 C130 1.465 . S
C121 C120 1.264 . S
C121 C123 1.339 . S
C121 H148 0.931 . S
C122 C123 1.395 . S
C122 C124 1.320 . S
C123 C121 1.339 . S
C123 C122 1.395 . S
C123 H149 0.929 . S
C124 C122 1.320 . S
C124 C125 1.405 . S
C124 H150 0.930 . S
C125 C120 1.479 . S
C125 C124 1.405 . S
C125 H151 0.931 . S
U126 O127 2.454 . S
U126 O128 2.458 . S
U126 C129 2.984 . S
U126 C130 2.847 . S
U126 C143 2.882 1_545 S
U126 O144 2.441 . S
U126 O145 2.420 . S
U126 O146 2.455 1_545 S
U126 O147 2.449 . S
O127 U126 2.454 . S
O127 C129 1.353 . S
O128 U126 2.458 . S
O128 C129 1.286 . S
C129 U126 2.984 . S
C129 O127 1.353 . S
C129 O128 1.286 . S
C129 C131 1.363 . S
C130 C120 1.465 . S
C130 U126 2.847 . S
C130 O144 1.249 . S
C130 O145 1.202 . S
C131 C129 1.363 . S
C131 C133 1.408 . S
C131 C136 1.342 . S
C132 C133 1.310 . S
C132 C135 1.461 . S
C132 H152 0.932 . S
C133 C131 1.408 . S
C133 C132 1.310 . S
C133 H153 0.930 . S
C134 C135 1.474 . S
C134 C136 1.285 . S
C134 H154 0.929 . S
C135 C132 1.461 . S
C135 C134 1.474 . S
C136 C131 1.342 . S
C136 C134 1.285 . S
C136 H155 0.930 . S
C137 C140 1.424 . S
C137 C142 1.245 . S
C137 C143 1.428 . S
C138 C141 1.260 . S
C138 C142 1.477 . S
C138 H156 0.932 . S
C139 C140 1.384 . S
C139 C141 1.479 . S
C139 H157 0.929 . S
C140 C137 1.424 . S
C140 C139 1.384 . S
C140 H158 0.928 . S
C141 C138 1.260 . S
C141 C139 1.479 . S
C142 C137 1.245 . S
C142 C138 1.477 . S
C142 H159 0.932 . S
C143 U126 2.882 1_565 S
C143 C137 1.428 . S
C143 O146 1.301 . S
C143 O147 1.282 1_565 S
O144 U126 2.441 . S
O144 C130 1.249 . S
O145 U126 2.420 . S
O145 C130 1.202 . S
O146 U126 2.455 1_565 S
O146 C143 1.301 . S
O147 U126 2.449 . S
O147 C143 1.282 1_545 S
H148 C121 0.931 . S
H149 C123 0.929 . S
H150 C124 0.930 . S
H151 C125 0.931 . S
H152 C132 0.932 . S
H153 C133 0.930 . S
H154 C134 0.929 . S
H155 C136 0.930 . S
H156 C138 0.932 . S
H157 C139 0.929 . S
H158 C140 0.928 . S
H159 C142 0.932 . S
C160 C161 1.264 . S
C160 C165 1.479 . S
C160 C170 1.465 . S
C161 C160 1.264 . S
C161 C163 1.339 . S
C161 H188 0.931 . S
C162 C163 1.395 . S
C162 C164 1.320 . S
C163 C161 1.339 . S
C163 C162 1.395 . S
C163 H189 0.929 . S
C164 C162 1.320 . S
C164 C165 1.405 . S
C164 H190 0.930 . S
C165 C160 1.479 . S
C165 C164 1.405 . S
C165 H191 0.931 . S
U166 O167 2.454 . S
U166 O168 2.458 . S
U166 C169 2.984 . S
U166 C170 2.847 . S
U166 C183 2.882 . S
U166 O184 2.441 . S
U166 O185 2.420 . S
U166 O186 2.455 . S
U166 O187 2.449 . S
O167 U166 2.454 . S
O167 C169 1.353 . S
O168 U166 2.458 . S
O168 C169 1.286 . S
C169 U166 2.984 . S
C169 O167 1.353 . S
C169 O168 1.286 . S
C169 C171 1.363 . S
C170 C160 1.465 . S
C170 U166 2.847 . S
C170 O184 1.249 . S
C170 O185 1.202 . S
C171 C169 1.363 . S
C171 C173 1.408 . S
C171 C176 1.342 . S
C172 C173 1.310 . S
C172 C175 1.461 . S
C172 H192 0.932 . S
C173 C171 1.408 . S
C173 C172 1.310 . S
C173 H193 0.930 . S
C174 C175 1.474 . S
C174 C176 1.285 . S
C174 H194 0.929 . S
C175 C172 1.461 . S
C175 C174 1.474 . S
C176 C171 1.342 . S
C176 C174 1.285 . S
C176 H195 0.930 . S
C177 C180 1.424 . S
C177 C182 1.245 . S
C177 C183 1.428 . S
C178 C181 1.260 . S
C178 C182 1.477 . S
C178 H196 0.932 . S
C179 C180 1.384 . S
C179 C181 1.479 . S
C179 H197 0.929 . S
C180 C177 1.424 . S
C180 C179 1.384 . S
C180 H198 0.928 . S
C181 C178 1.260 . S
C181 C179 1.479 . S
C182 C177 1.245 . S
C182 C178 1.477 . S
C182 H199 0.932 . S
C183 U166 2.882 . S
C183 C177 1.428 . S
C183 O186 1.301 . S
C183 O187 1.282 . S
O184 U166 2.441 . S
O184 C170 1.249 . S
O185 U166 2.420 . S
O185 C170 1.202 . S
O186 U166 2.455 . S
O186 C183 1.301 . S
O187 U166 2.449 . S
O187 C183 1.282 . S
H188 C161 0.931 . S
H189 C163 0.929 . S
H190 C164 0.930 . S
H191 C165 0.931 . S
H192 C172 0.932 . S
H193 C173 0.930 . S
H194 C174 0.929 . S
H195 C176 0.930 . S
H196 C178 0.932 . S
H197 C179 0.929 . S
H198 C180 0.928 . S
H199 C182 0.932 . S
C200 C201 1.264 . S
C200 C205 1.479 . S
C200 C210 1.465 . S
C201 C200 1.264 . S
C201 C203 1.339 . S
C201 H228 0.931 . S
C202 C203 1.395 . S
C202 C204 1.320 . S
C203 C201 1.339 . S
C203 C202 1.395 . S
C203 H229 0.929 . S
C204 C202 1.320 . S
C204 C205 1.405 . S
C204 H230 0.930 . S
C205 C200 1.479 . S
C205 C204 1.405 . S
C205 H231 0.931 . S
U206 O207 2.454 . S
U206 O208 2.458 . S
U206 C209 2.984 . S
U206 C210 2.847 . S
U206 C223 2.882 1_554 S
U206 O224 2.441 . S
U206 O225 2.420 . S
U206 O226 2.455 1_554 S
U206 O227 2.449 . S
O207 U206 2.454 . S
O207 C209 1.353 . S
O208 U206 2.458 . S
O208 C209 1.286 . S
C209 U206 2.984 . S
C209 O207 1.353 . S
C209 O208 1.286 . S
C209 C211 1.363 . S
C210 C200 1.465 . S
C210 U206 2.847 . S
C210 O224 1.249 . S
C210 O225 1.202 . S
C211 C209 1.363 . S
C211 C213 1.408 . S
C211 C216 1.342 . S
C212 C213 1.310 . S
C212 C215 1.461 . S
C212 H232 0.932 . S
C213 C211 1.408 . S
C213 C212 1.310 . S
C213 H233 0.930 . S
C214 C215 1.474 . S
C214 C216 1.285 . S
C214 H234 0.929 . S
C215 C212 1.461 . S
C215 C214 1.474 . S
C216 C211 1.342 . S
C216 C214 1.285 . S
C216 H235 0.930 . S
C217 C220 1.424 . S
C217 C222 1.245 . S
C217 C223 1.428 . S
C218 C221 1.260 . S
C218 C222 1.477 . S
C218 H236 0.932 . S
C219 C220 1.384 . S
C219 C221 1.479 . S
C219 H237 0.929 . S
C220 C217 1.424 . S
C220 C219 1.384 . S
C220 H238 0.928 . S
C221 C218 1.260 . S
C221 C219 1.479 . S
C222 C217 1.245 . S
C222 C218 1.477 . S
C222 H239 0.932 . S
C223 U206 2.882 1_556 S
C223 C217 1.428 . S
C223 O226 1.301 . S
C223 O227 1.282 1_556 S
O224 U206 2.441 . S
O224 C210 1.249 . S
O225 U206 2.420 . S
O225 C210 1.202 . S
O226 U206 2.455 1_556 S
O226 C223 1.301 . S
O227 U206 2.449 . S
O227 C223 1.282 1_554 S
H228 C201 0.931 . S
H229 C203 0.929 . S
H230 C204 0.930 . S
H231 C205 0.931 . S
H232 C212 0.932 . S
H233 C213 0.930 . S
H234 C214 0.929 . S
H235 C216 0.930 . S
H236 C218 0.932 . S
H237 C219 0.929 . S
H238 C220 0.928 . S
H239 C222 0.932 . S
C240 C241 1.264 . S
C240 C245 1.479 . S
C240 C250 1.465 . S
C241 C240 1.264 . S
C241 C243 1.339 . S
C241 H268 0.931 . S
C242 C243 1.395 . S
C242 C244 1.320 . S
C243 C241 1.339 . S
C243 C242 1.395 . S
C243 H269 0.929 . S
C244 C242 1.320 . S
C244 C245 1.405 . S
C244 H270 0.930 . S
C245 C240 1.479 . S
C245 C244 1.405 . S
C245 H271 0.931 . S
U246 O247 2.454 . S
U246 O248 2.458 . S
U246 C249 2.984 . S
U246 C250 2.847 . S
U246 C263 2.882 . S
U246 O264 2.441 . S
U246 O265 2.420 . S
U246 O266 2.455 . S
U246 O267 2.449 . S
O247 U246 2.454 . S
O247 C249 1.353 . S
O248 U246 2.458 . S
O248 C249 1.286 . S
C249 U246 2.984 . S
C249 O247 1.353 . S
C249 O248 1.286 . S
C249 C251 1.363 . S
C250 C240 1.465 . S
C250 U246 2.847 . S
C250 O264 1.249 . S
C250 O265 1.202 . S
C251 C249 1.363 . S
C251 C253 1.408 . S
C251 C256 1.342 . S
C252 C253 1.310 . S
C252 C255 1.461 . S
C252 H272 0.932 . S
C253 C251 1.408 . S
C253 C252 1.310 . S
C253 H273 0.930 . S
C254 C255 1.474 . S
C254 C256 1.285 . S
C254 H274 0.929 . S
C255 C252 1.461 . S
C255 C254 1.474 . S
C256 C251 1.342 . S
C256 C254 1.285 . S
C256 H275 0.930 . S
C257 C260 1.424 . S
C257 C262 1.245 . S
C257 C263 1.428 . S
C258 C261 1.260 . S
C258 C262 1.477 . S
C258 H276 0.932 . S
C259 C260 1.384 . S
C259 C261 1.479 . S
C259 H277 0.929 . S
C260 C257 1.424 . S
C260 C259 1.384 . S
C260 H278 0.928 . S
C261 C258 1.260 . S
C261 C259 1.479 . S
C262 C257 1.245 . S
C262 C258 1.477 . S
C262 H279 0.932 . S
C263 U246 2.882 . S
C263 C257 1.428 . S
C263 O266 1.301 . S
C263 O267 1.282 . S
O264 U246 2.441 . S
O264 C250 1.249 . S
O265 U246 2.420 . S
O265 C250 1.202 . S
O266 U246 2.455 . S
O266 C263 1.301 . S
O267 U246 2.449 . S
O267 C263 1.282 . S
H268 C241 0.931 . S
H269 C243 0.929 . S
H270 C244 0.930 . S
H271 C245 0.931 . S
H272 C252 0.932 . S
H273 C253 0.930 . S
H274 C254 0.929 . S
H275 C256 0.930 . S
H276 C258 0.932 . S
H277 C259 0.929 . S
H278 C260 0.928 . S
H279 C262 0.932 . S
C280 C281 1.264 . S
C280 C285 1.479 . S
C280 C290 1.465 . S
C281 C280 1.264 . S
C281 C283 1.339 . S
C281 H308 0.931 . S
C282 C283 1.395 . S
C282 C284 1.320 . S
C283 C281 1.339 . S
C283 C282 1.395 . S
C283 H309 0.929 . S
C284 C282 1.320 . S
C284 C285 1.405 . S
C284 H310 0.930 . S
C285 C280 1.479 . S
C285 C284 1.405 . S
C285 H311 0.931 . S
U286 O287 2.454 . S
U286 O288 2.458 . S
U286 C289 2.984 . S
U286 C290 2.847 . S
U286 C303 2.882 . S
U286 O304 2.441 . S
U286 O305 2.420 . S
U286 O306 2.455 . S
U286 O307 2.449 . S
O287 U286 2.454 . S
O287 C289 1.353 . S
O288 U286 2.458 . S
O288 C289 1.286 . S
C289 U286 2.984 . S
C289 O287 1.353 . S
C289 O288 1.286 . S
C289 C291 1.363 . S
C290 C280 1.465 . S
C290 U286 2.847 . S
C290 O304 1.249 . S
C290 O305 1.202 . S
C291 C289 1.363 . S
C291 C293 1.408 . S
C291 C296 1.342 . S
C292 C293 1.310 . S
C292 C295 1.461 . S
C292 H312 0.932 . S
C293 C291 1.408 . S
C293 C292 1.310 . S
C293 H313 0.930 . S
C294 C295 1.474 . S
C294 C296 1.285 . S
C294 H314 0.929 . S
C295 C292 1.461 . S
C295 C294 1.474 . S
C296 C291 1.342 . S
C296 C294 1.285 . S
C296 H315 0.930 . S
C297 C300 1.424 1_556 S
C297 C302 1.245 1_556 S
C297 C303 1.428 . S
C298 C301 1.260 . S
C298 C302 1.477 . S
C298 H316 0.932 . S
C299 C300 1.384 . S
C299 C301 1.479 . S
C299 H317 0.929 . S
C300 C297 1.424 1_554 S
C300 C299 1.384 . S
C300 H318 0.928 . S
C301 C298 1.260 . S
C301 C299 1.479 . S
C302 C297 1.245 1_554 S
C302 C298 1.477 . S
C302 H319 0.932 . S
C303 U286 2.882 . S
C303 C297 1.428 . S
C303 O306 1.301 . S
C303 O307 1.282 . S
O304 U286 2.441 . S
O304 C290 1.249 . S
O305 U286 2.420 . S
O305 C290 1.202 . S
O306 U286 2.455 . S
O306 C303 1.301 . S
O307 U286 2.449 . S
O307 C303 1.282 . S
H308 C281 0.931 . S
H309 C283 0.929 . S
H310 C284 0.930 . S
H311 C285 0.931 . S
H312 C292 0.932 . S
H313 C293 0.930 . S
H314 C294 0.929 . S
H315 C296 0.930 . S
H316 C298 0.932 . S
H317 C299 0.929 . S
H318 C300 0.928 . S
H319 C302 0.932 . S
C320 C321 1.264 . S
C320 C325 1.479 . S
C320 C330 1.465 . S
C321 C320 1.264 . S
C321 C323 1.339 . S
C321 H348 0.931 . S
C322 C323 1.395 . S
C322 C324 1.320 . S
C323 C321 1.339 . S
C323 C322 1.395 . S
C323 H349 0.929 . S
C324 C322 1.320 . S
C324 C325 1.405 . S
C324 H350 0.930 . S
C325 C320 1.479 . S
C325 C324 1.405 . S
C325 H351 0.931 . S
U326 O327 2.454 . S
U326 O328 2.458 . S
U326 C329 2.984 . S
U326 C330 2.847 . S
U326 C343 2.882 . S
U326 O344 2.441 . S
U326 O345 2.420 . S
U326 O346 2.455 . S
U326 O347 2.449 . S
O327 U326 2.454 . S
O327 C329 1.353 . S
O328 U326 2.458 . S
O328 C329 1.286 . S
C329 U326 2.984 . S
C329 O327 1.353 . S
C329 O328 1.286 . S
C329 C331 1.363 . S
C330 C320 1.465 . S
C330 U326 2.847 . S
C330 O344 1.249 . S
C330 O345 1.202 . S
C331 C329 1.363 . S
C331 C333 1.408 . S
C331 C336 1.342 . S
C332 C333 1.310 . S
C332 C335 1.461 . S
C332 H352 0.932 . S
C333 C331 1.408 . S
C333 C332 1.310 . S
C333 H353 0.930 . S
C334 C335 1.474 . S
C334 C336 1.285 . S
C334 H354 0.929 . S
C335 C332 1.461 . S
C335 C334 1.474 . S
C336 C331 1.342 . S
C336 C334 1.285 . S
C336 H355 0.930 . S
C337 C340 1.424 . S
C337 C342 1.245 . S
C337 C343 1.428 . S
C338 C341 1.260 . S
C338 C342 1.477 . S
C338 H356 0.932 . S
C339 C340 1.384 . S
C339 C341 1.479 . S
C339 H357 0.929 . S
C340 C337 1.424 . S
C340 C339 1.384 . S
C340 H358 0.928 . S
C341 C338 1.260 . S
C341 C339 1.479 . S
C342 C337 1.245 . S
C342 C338 1.477 . S
C342 H359 0.932 . S
C343 U326 2.882 . S
C343 C337 1.428 . S
C343 O346 1.301 . S
C343 O347 1.282 . S
O344 U326 2.441 . S
O344 C330 1.249 . S
O345 U326 2.420 . S
O345 C330 1.202 . S
O346 U326 2.455 . S
O346 C343 1.301 . S
O347 U326 2.449 . S
O347 C343 1.282 . S
H348 C321 0.931 . S
H349 C323 0.929 . S
H350 C324 0.930 . S
H351 C325 0.931 . S
H352 C332 0.932 . S
H353 C333 0.930 . S
H354 C334 0.929 . S
H355 C336 0.930 . S
H356 C338 0.932 . S
H357 C339 0.929 . S
H358 C340 0.928 . S
H359 C342 0.932 . S
C360 C361 1.264 . S
C360 C365 1.479 . S
C360 C370 1.465 . S
C361 C360 1.264 . S
C361 C363 1.339 . S
C361 H388 0.931 . S
C362 C363 1.395 . S
C362 C364 1.320 . S
C363 C361 1.339 . S
C363 C362 1.395 . S
C363 H389 0.929 . S
C364 C362 1.320 . S
C364 C365 1.405 . S
C364 H390 0.930 . S
C365 C360 1.479 . S
C365 C364 1.405 . S
C365 H391 0.931 . S
U366 O367 2.454 . S
U366 O368 2.458 . S
U366 C369 2.984 . S
U366 C370 2.847 . S
U366 C383 2.882 1_455 S
U366 O384 2.441 . S
U366 O385 2.420 . S
U366 O386 2.455 1_455 S
U366 O387 2.449 . S
O367 U366 2.454 . S
O367 C369 1.353 . S
O368 U366 2.458 . S
O368 C369 1.286 . S
C369 U366 2.984 . S
C369 O367 1.353 . S
C369 O368 1.286 . S
C369 C371 1.363 . S
C370 C360 1.465 . S
C370 U366 2.847 . S
C370 O384 1.249 . S
C370 O385 1.202 . S
C371 C369 1.363 . S
C371 C373 1.408 . S
C371 C376 1.342 . S
C372 C373 1.310 . S
C372 C375 1.461 . S
C372 H392 0.932 . S
C373 C371 1.408 . S
C373 C372 1.310 . S
C373 H393 0.930 . S
C374 C375 1.474 . S
C374 C376 1.285 . S
C374 H394 0.929 . S
C375 C372 1.461 . S
C375 C374 1.474 . S
C376 C371 1.342 . S
C376 C374 1.285 . S
C376 H395 0.930 . S
C377 C380 1.424 . S
C377 C382 1.245 . S
C377 C383 1.428 . S
C378 C381 1.260 . S
C378 C382 1.477 . S
C378 H396 0.932 . S
C379 C380 1.384 . S
C379 C381 1.479 . S
C379 H397 0.929 . S
C380 C377 1.424 . S
C380 C379 1.384 . S
C380 H398 0.928 . S
C381 C378 1.260 . S
C381 C379 1.479 . S
C382 C377 1.245 . S
C382 C378 1.477 . S
C382 H399 0.932 . S
C383 U366 2.882 1_655 S
C383 C377 1.428 . S
C383 O386 1.301 . S
C383 O387 1.282 1_655 S
O384 U366 2.441 . S
O384 C370 1.249 . S
O385 U366 2.420 . S
O385 C370 1.202 . S
O386 U366 2.455 1_655 S
O386 C383 1.301 . S
O387 U366 2.449 . S
O387 C383 1.282 1_455 S
H388 C361 0.931 . S
H389 C363 0.929 . S
H390 C364 0.930 . S
H391 C365 0.931 . S
H392 C372 0.932 . S
H393 C373 0.930 . S
H394 C374 0.929 . S
H395 C376 0.930 . S
H396 C378 0.932 . S
H397 C379 0.929 . S
H398 C380 0.928 . S
H399 C382 0.932 . S
C400 C401 1.264 . S
C400 C405 1.479 . S
C400 C410 1.465 . S
C401 C400 1.264 . S
C401 C403 1.339 . S
C401 H428 0.931 . S
C402 C403 1.395 . S
C402 C404 1.320 . S
C403 C401 1.339 . S
C403 C402 1.395 . S
C403 H429 0.929 . S
C404 C402 1.320 . S
C404 C405 1.405 . S
C404 H430 0.930 . S
C405 C400 1.479 . S
C405 C404 1.405 . S
C405 H431 0.931 . S
U406 O407 2.454 . S
U406 O408 2.458 . S
U406 C409 2.984 . S
U406 C410 2.847 . S
U406 C423 2.882 . S
U406 O424 2.441 . S
U406 O425 2.420 . S
U406 O426 2.455 . S
U406 O427 2.449 . S
O407 U406 2.454 . S
O407 C409 1.353 . S
O408 U406 2.458 . S
O408 C409 1.286 . S
C409 U406 2.984 . S
C409 O407 1.353 . S
C409 O408 1.286 . S
C409 C411 1.363 . S
C410 C400 1.465 . S
C410 U406 2.847 . S
C410 O424 1.249 . S
C410 O425 1.202 . S
C411 C409 1.363 . S
C411 C413 1.408 . S
C411 C416 1.342 . S
C412 C413 1.310 . S
C412 C415 1.461 . S
C412 H432 0.932 . S
C413 C411 1.408 . S
C413 C412 1.310 . S
C413 H433 0.930 . S
C414 C415 1.474 . S
C414 C416 1.285 . S
C414 H434 0.929 . S
C415 C412 1.461 . S
C415 C414 1.474 . S
C416 C411 1.342 . S
C416 C414 1.285 . S
C416 H435 0.930 . S
C417 C420 1.424 . S
C417 C422 1.245 . S
C417 C423 1.428 . S
C418 C421 1.260 . S
C418 C422 1.477 . S
C418 H436 0.932 . S
C419 C420 1.384 . S
C419 C421 1.479 . S
C419 H437 0.929 . S
C420 C417 1.424 . S
C420 C419 1.384 . S
C420 H438 0.928 . S
C421 C418 1.260 . S
C421 C419 1.479 . S
C422 C417 1.245 . S
C422 C418 1.477 . S
C422 H439 0.932 . S
C423 U406 2.882 . S
C423 C417 1.428 . S
C423 O426 1.301 . S
C423 O427 1.282 . S
O424 U406 2.441 . S
O424 C410 1.249 . S
O425 U406 2.420 . S
O425 C410 1.202 . S
O426 U406 2.455 . S
O426 C423 1.301 . S
O427 U406 2.449 . S
O427 C423 1.282 . S
H428 C401 0.931 . S
H429 C403 0.929 . S
H430 C404 0.930 . S
H431 C405 0.931 . S
H432 C412 0.932 . S
H433 C413 0.930 . S
H434 C414 0.929 . S
H435 C416 0.930 . S
H436 C418 0.932 . S
H437 C419 0.929 . S
H438 C420 0.928 . S
H439 C422 0.932 . S
C440 C441 1.264 . S
C440 C445 1.479 . S
C440 C450 1.465 . S
C441 C440 1.264 . S
C441 C443 1.339 . S
C441 H468 0.931 . S
C442 C443 1.395 . S
C442 C444 1.320 . S
C443 C441 1.339 . S
C443 C442 1.395 . S
C443 H469 0.929 . S
C444 C442 1.320 . S
C444 C445 1.405 . S
C444 H470 0.930 . S
C445 C440 1.479 . S
C445 C444 1.405 . S
C445 H471 0.931 . S
U446 O447 2.454 . S
U446 O448 2.458 . S
U446 C449 2.984 . S
U446 C450 2.847 . S
U446 C463 2.882 . S
U446 O464 2.441 . S
U446 O465 2.420 . S
U446 O466 2.455 . S
U446 O467 2.449 . S
O447 U446 2.454 . S
O447 C449 1.353 . S
O448 U446 2.458 . S
O448 C449 1.286 . S
C449 U446 2.984 . S
C449 O447 1.353 . S
C449 O448 1.286 . S
C449 C451 1.363 . S
C450 C440 1.465 . S
C450 U446 2.847 . S
C450 O464 1.249 . S
C450 O465 1.202 . S
C451 C449 1.363 . S
C451 C453 1.408 . S
C451 C456 1.342 . S
C452 C453 1.310 . S
C452 C455 1.461 . S
C452 H472 0.932 . S
C453 C451 1.408 . S
C453 C452 1.310 . S
C453 H473 0.930 . S
C454 C455 1.474 . S
C454 C456 1.285 . S
C454 H474 0.929 . S
C455 C452 1.461 . S
C455 C454 1.474 . S
C456 C451 1.342 . S
C456 C454 1.285 . S
C456 H475 0.930 . S
C457 C460 1.424 1_655 S
C457 C462 1.245 1_655 S
C457 C463 1.428 . S
C458 C461 1.260 . S
C458 C462 1.477 . S
C458 H476 0.932 . S
C459 C460 1.384 . S
C459 C461 1.479 . S
C459 H477 0.929 . S
C460 C457 1.424 1_455 S
C460 C459 1.384 . S
C460 H478 0.928 . S
C461 C458 1.260 . S
C461 C459 1.479 . S
C462 C457 1.245 1_455 S
C462 C458 1.477 . S
C462 H479 0.932 . S
C463 U446 2.882 . S
C463 C457 1.428 . S
C463 O466 1.301 . S
C463 O467 1.282 . S
O464 U446 2.441 . S
O464 C450 1.249 . S
O465 U446 2.420 . S
O465 C450 1.202 . S
O466 U446 2.455 . S
O466 C463 1.301 . S
O467 U446 2.449 . S
O467 C463 1.282 . S
H468 C441 0.931 . S
H469 C443 0.929 . S
H470 C444 0.930 . S
H471 C445 0.931 . S
H472 C452 0.932 . S
H473 C453 0.930 . S
H474 C454 0.929 . S
H475 C456 0.930 . S
H476 C458 0.932 . S
H477 C459 0.929 . S
H478 C460 0.928 . S
H479 C462 0.932 . S
C480 C481 1.264 . S
C480 C485 1.479 . S
C480 C490 1.465 . S
C481 C480 1.264 . S
C481 C483 1.339 . S
C481 H508 0.931 . S
C482 C483 1.395 . S
C482 C484 1.320 . S
C483 C481 1.339 . S
C483 C482 1.395 . S
C483 H509 0.929 . S
C484 C482 1.320 . S
C484 C485 1.405 . S
C484 H510 0.930 . S
C485 C480 1.479 . S
C485 C484 1.405 . S
C485 H511 0.931 . S
U486 O487 2.454 . S
U486 O488 2.458 . S
U486 C489 2.984 . S
U486 C490 2.847 . S
U486 C503 2.882 . S
U486 O504 2.441 . S
U486 O505 2.420 . S
U486 O506 2.455 . S
U486 O507 2.449 . S
O487 U486 2.454 . S
O487 C489 1.353 . S
O488 U486 2.458 . S
O488 C489 1.286 . S
C489 U486 2.984 . S
C489 O487 1.353 . S
C489 O488 1.286 . S
C489 C491 1.363 . S
C490 C480 1.465 . S
C490 U486 2.847 . S
C490 O504 1.249 . S
C490 O505 1.202 . S
C491 C489 1.363 . S
C491 C493 1.408 . S
C491 C496 1.342 . S
C492 C493 1.310 . S
C492 C495 1.461 . S
C492 H512 0.932 . S
C493 C491 1.408 . S
C493 C492 1.310 . S
C493 H513 0.930 . S
C494 C495 1.474 . S
C494 C496 1.285 . S
C494 H514 0.929 . S
C495 C492 1.461 . S
C495 C494 1.474 . S
C496 C491 1.342 . S
C496 C494 1.285 . S
C496 H515 0.930 . S
C497 C500 1.424 . S
C497 C502 1.245 . S
C497 C503 1.428 . S
C498 C501 1.260 . S
C498 C502 1.477 . S
C498 H516 0.932 . S
C499 C500 1.384 . S
C499 C501 1.479 . S
C499 H517 0.929 . S
C500 C497 1.424 . S
C500 C499 1.384 . S
C500 H518 0.928 . S
C501 C498 1.260 . S
C501 C499 1.479 . S
C502 C497 1.245 . S
C502 C498 1.477 . S
C502 H519 0.932 . S
C503 U486 2.882 . S
C503 C497 1.428 . S
C503 O506 1.301 . S
C503 O507 1.282 . S
O504 U486 2.441 . S
O504 C490 1.249 . S
O505 U486 2.420 . S
O505 C490 1.202 . S
O506 U486 2.455 . S
O506 C503 1.301 . S
O507 U486 2.449 . S
O507 C503 1.282 . S
H508 C481 0.931 . S
H509 C483 0.929 . S
H510 C484 0.930 . S
H511 C485 0.931 . S
H512 C492 0.932 . S
H513 C493 0.930 . S
H514 C494 0.929 . S
H515 C496 0.930 . S
H516 C498 0.932 . S
H517 C499 0.929 . S
H518 C500 0.928 . S
H519 C502 0.932 . S
C520 C521 1.264 . S
C520 C525 1.479 . S
C520 C530 1.465 . S
C521 C520 1.264 . S
C521 C523 1.339 . S
C521 H548 0.931 . S
C522 C523 1.395 . S
C522 C524 1.320 . S
C523 C521 1.339 . S
C523 C522 1.395 . S
C523 H549 0.929 . S
C524 C522 1.320 . S
C524 C525 1.405 . S
C524 H550 0.930 . S
C525 C520 1.479 . S
C525 C524 1.405 . S
C525 H551 0.931 . S
U526 O527 2.454 . S
U526 O528 2.458 . S
U526 C529 2.984 . S
U526 C530 2.847 . S
U526 C543 2.882 . S
U526 O544 2.441 . S
U526 O545 2.420 . S
U526 O546 2.455 . S
U526 O547 2.449 . S
O527 U526 2.454 . S
O527 C529 1.353 . S
O528 U526 2.458 . S
O528 C529 1.286 . S
C529 U526 2.984 . S
C529 O527 1.353 . S
C529 O528 1.286 . S
C529 C531 1.363 . S
C530 C520 1.465 . S
C530 U526 2.847 . S
C530 O544 1.249 . S
C530 O545 1.202 . S
C531 C529 1.363 . S
C531 C533 1.408 . S
C531 C536 1.342 . S
C532 C533 1.310 . S
C532 C535 1.461 . S
C532 H552 0.932 . S
C533 C531 1.408 . S
C533 C532 1.310 . S
C533 H553 0.930 . S
C534 C535 1.474 . S
C534 C536 1.285 . S
C534 H554 0.929 . S
C535 C532 1.461 . S
C535 C534 1.474 . S
C536 C531 1.342 . S
C536 C534 1.285 . S
C536 H555 0.930 . S
C537 C540 1.424 . S
C537 C542 1.245 . S
C537 C543 1.428 . S
C538 C541 1.260 . S
C538 C542 1.477 . S
C538 H556 0.932 . S
C539 C540 1.384 . S
C539 C541 1.479 . S
C539 H557 0.929 . S
C540 C537 1.424 . S
C540 C539 1.384 . S
C540 H558 0.928 . S
C541 C538 1.260 . S
C541 C539 1.479 . S
C542 C537 1.245 . S
C542 C538 1.477 . S
C542 H559 0.932 . S
C543 U526 2.882 . S
C543 C537 1.428 . S
C543 O546 1.301 . S
C543 O547 1.282 . S
O544 U526 2.441 . S
O544 C530 1.249 . S
O545 U526 2.420 . S
O545 C530 1.202 . S
O546 U526 2.455 . S
O546 C543 1.301 . S
O547 U526 2.449 . S
O547 C543 1.282 . S
H548 C521 0.931 . S
H549 C523 0.929 . S
H550 C524 0.930 . S
H551 C525 0.931 . S
H552 C532 0.932 . S
H553 C533 0.930 . S
H554 C534 0.929 . S
H555 C536 0.930 . S
H556 C538 0.932 . S
H557 C539 0.929 . S
H558 C540 0.928 . S
H559 C542 0.932 . S
C560 C561 1.264 . S
C560 C565 1.479 1_565 S
C560 C570 1.465 . S
C561 C560 1.264 . S
C561 C563 1.339 . S
C561 H588 0.931 . S
C562 C563 1.395 1_545 S
C562 C564 1.320 . S
C563 C561 1.339 . S
C563 C562 1.395 1_565 S
C563 H589 0.929 . S
C564 C562 1.320 . S
C564 C565 1.405 . S
C564 H590 0.930 . S
C565 C560 1.479 1_545 S
C565 C564 1.405 . S
C565 H591 0.931 . S
U566 O567 2.454 . S
U566 O568 2.458 . S
U566 C569 2.984 . S
U566 C570 2.847 . S
U566 C583 2.882 . S
U566 O584 2.441 . S
U566 O585 2.420 . S
U566 O586 2.455 . S
U566 O587 2.449 . S
O567 U566 2.454 . S
O567 C569 1.353 . S
O568 U566 2.458 . S
O568 C569 1.286 . S
C569 U566 2.984 . S
C569 O567 1.353 . S
C569 O568 1.286 . S
C569 C571 1.363 1_565 S
C570 C560 1.465 . S
C570 U566 2.847 . S
C570 O584 1.249 . S
C570 O585 1.202 . S
C571 C569 1.363 1_545 S
C571 C573 1.408 . S
C571 C576 1.342 . S
C572 C573 1.310 . S
C572 C575 1.461 . S
C572 H592 0.932 . S
C573 C571 1.408 . S
C573 C572 1.310 . S
C573 H593 0.930 . S
C574 C575 1.474 . S
C574 C576 1.285 . S
C574 H594 0.929 . S
C575 C572 1.461 . S
C575 C574 1.474 . S
C576 C571 1.342 . S
C576 C574 1.285 . S
C576 H595 0.933 . S
C577 C580 1.424 . S
C577 C582 1.245 . S
C577 C583 1.428 . S
C578 C581 1.260 . S
C578 C582 1.477 . S
C578 H596 0.932 . S
C579 C580 1.384 . S
C579 C581 1.479 . S
C579 H597 0.929 . S
C580 C577 1.424 . S
C580 C579 1.384 . S
C580 H598 0.928 . S
C581 C578 1.260 . S
C581 C579 1.479 . S
C582 C577 1.245 . S
C582 C578 1.477 . S
C582 H599 0.932 . S
C583 U566 2.882 . S
C583 C577 1.428 . S
C583 O586 1.301 . S
C583 O587 1.282 . S
O584 U566 2.441 . S
O584 C570 1.249 . S
O585 U566 2.420 . S
O585 C570 1.202 . S
O586 U566 2.455 . S
O586 C583 1.301 . S
O587 U566 2.449 . S
O587 C583 1.282 . S
H588 C561 0.931 . S
H589 C563 0.929 . S
H590 C564 0.930 . S
H591 C565 0.931 . S
H592 C572 0.932 . S
H593 C573 0.930 . S
H594 C574 0.929 . S
H595 C576 0.933 . S
H596 C578 0.932 . S
H597 C579 0.929 . S
H598 C580 0.928 . S
H599 C582 0.932 . S
C600 C601 1.271 . S
C600 C605 1.479 . S
C600 C610 1.465 1_565 S
C601 C600 1.271 . S
C601 C603 1.356 . S
C601 H628 0.909 1_565 S
C602 C603 1.395 . S
C602 C604 1.320 . S
C603 C601 1.356 . S
C603 C602 1.395 . S
C603 H629 0.929 . S
C604 C602 1.320 . S
C604 C605 1.405 . S
C604 H630 0.930 . S
C605 C600 1.479 . S
C605 C604 1.405 . S
C605 H631 0.931 . S
U606 O607 2.454 1_545 S
U606 O608 2.458 . S
U606 C609 2.984 1_545 S
U606 C610 2.847 . S
U606 C623 2.882 . S
U606 O624 2.441 1_545 S
U606 O625 2.420 . S
U606 O626 2.455 . S
U606 O627 2.449 . S
O607 U606 2.454 1_565 S
O607 C609 1.353 . S
O608 U606 2.458 . S
O608 C609 1.286 1_545 S
C609 U606 2.984 1_565 S
C609 O607 1.353 . S
C609 O608 1.286 1_565 S
C609 C611 1.363 . S
C610 C600 1.465 1_545 S
C610 U606 2.847 . S
C610 O624 1.249 1_545 S
C610 O625 1.202 . S
C611 C609 1.363 . S
C611 C613 1.408 . S
C611 C616 1.342 . S
C612 C613 1.310 . S
C612 C615 1.461 . S
C612 H632 0.932 . S
C613 C611 1.408 . S
C613 C612 1.310 . S
C613 H633 0.930 . S
C614 C615 1.474 . S
C614 C616 1.285 . S
C614 H634 0.929 . S
C615 C612 1.461 . S
C615 C614 1.474 . S
C616 C611 1.342 . S
C616 C614 1.285 . S
C616 H635 0.930 . S
C617 C620 1.424 . S
C617 C622 1.245 . S
C617 C623 1.428 . S
C618 C621 1.260 . S
C618 C622 1.477 . S
C618 H636 0.932 . S
C619 C620 1.384 . S
C619 C621 1.479 . S
C619 H637 0.929 . S
C620 C617 1.424 . S
C620 C619 1.384 . S
C620 H638 0.928 . S
C621 C618 1.260 . S
C621 C619 1.479 . S
C622 C617 1.245 . S
C622 C618 1.477 . S
C622 H639 0.932 . S
C623 U606 2.882 . S
C623 C617 1.428 . S
C623 O626 1.301 . S
C623 O627 1.282 . S
O624 U606 2.441 1_565 S
O624 C610 1.249 1_565 S
O625 U606 2.420 . S
O625 C610 1.202 . S
O626 U606 2.455 . S
O626 C623 1.301 . S
O627 U606 2.449 . S
O627 C623 1.282 . S
H628 C601 0.909 1_545 S
H629 C603 0.929 . S
H630 C604 0.930 . S
H631 C605 0.931 . S
H632 C612 0.932 . S
H633 C613 0.930 . S
H634 C614 0.929 . S
H635 C616 0.930 . S
H636 C618 0.932 . S
H637 C619 0.929 . S
H638 C620 0.928 . S
H639 C622 0.932 . S
C640 C641 1.264 . S
C640 C645 1.479 . S
C640 C650 1.465 . S
C641 C640 1.264 . S
C641 C643 1.339 . S
C641 H668 0.931 . S
C642 C643 1.395 . S
C642 C644 1.320 . S
C643 C641 1.339 . S
C643 C642 1.395 . S
C643 H669 0.929 . S
C644 C642 1.320 . S
C644 C645 1.405 . S
C644 H670 0.930 . S
C645 C640 1.479 . S
C645 C644 1.405 . S
C645 H671 0.931 . S
U646 O647 2.454 . S
U646 O648 2.458 . S
U646 C649 2.984 . S
U646 C650 2.847 . S
U646 C663 2.882 . S
U646 O664 2.441 . S
U646 O665 2.420 . S
U646 O666 2.455 . S
U646 O667 2.449 . S
O647 U646 2.454 . S
O647 C649 1.353 . S
O648 U646 2.458 . S
O648 C649 1.286 . S
C649 U646 2.984 . S
C649 O647 1.353 . S
C649 O648 1.286 . S
C649 C651 1.363 . S
C650 C640 1.465 . S
C650 U646 2.847 . S
C650 O664 1.249 . S
C650 O665 1.202 . S
C651 C649 1.363 . S
C651 C653 1.408 . S
C651 C656 1.342 . S
C652 C653 1.310 . S
C652 C655 1.461 . S
C652 H672 0.932 . S
C653 C651 1.408 . S
C653 C652 1.310 . S
C653 H673 0.930 . S
C654 C655 1.474 . S
C654 C656 1.285 . S
C654 H674 0.929 . S
C655 C652 1.461 . S
C655 C654 1.474 . S
C656 C651 1.342 . S
C656 C654 1.285 . S
C656 H675 0.930 . S
C657 C660 1.424 . S
C657 C662 1.245 . S
C657 C663 1.428 . S
C658 C661 1.260 . S
C658 C662 1.477 . S
C658 H676 0.932 . S
C659 C660 1.384 . S
C659 C661 1.479 . S
C659 H677 0.929 . S
C660 C657 1.424 . S
C660 C659 1.384 . S
C660 H678 0.928 . S
C661 C658 1.260 . S
C661 C659 1.479 . S
C662 C657 1.245 . S
C662 C658 1.477 . S
C662 H679 0.932 . S
C663 U646 2.882 . S
C663 C657 1.428 . S
C663 O666 1.301 . S
C663 O667 1.282 . S
O664 U646 2.441 . S
O664 C650 1.249 . S
O665 U646 2.420 . S
O665 C650 1.202 . S
O666 U646 2.455 . S
O666 C663 1.301 . S
O667 U646 2.449 . S
O667 C663 1.282 . S
H668 C641 0.931 . S
H669 C643 0.929 . S
H670 C644 0.930 . S
H671 C645 0.931 . S
H672 C652 0.932 . S
H673 C653 0.930 . S
H674 C654 0.929 . S
H675 C656 0.930 . S
H676 C658 0.932 . S
H677 C659 0.929 . S
H678 C660 0.928 . S
H679 C662 0.932 . S
C680 C681 1.271 . S
C680 C685 1.479 . S
C680 C690 1.465 1_556 S
C681 C680 1.271 . S
C681 C683 1.356 . S
C681 H708 0.909 1_556 S
C682 C683 1.395 . S
C682 C684 1.320 . S
C683 C681 1.356 . S
C683 C682 1.395 . S
C683 H709 0.929 . S
C684 C682 1.320 . S
C684 C685 1.405 . S
C684 H710 0.930 . S
C685 C680 1.479 . S
C685 C684 1.405 . S
C685 H711 0.931 . S
U686 O687 2.454 1_554 S
U686 O688 2.458 . S
U686 C689 2.984 1_554 S
U686 C690 2.847 . S
U686 C703 2.882 . S
U686 O704 2.441 1_554 S
U686 O705 2.420 . S
U686 O706 2.455 . S
U686 O707 2.449 . S
O687 U686 2.454 1_556 S
O687 C689 1.353 . S
O688 U686 2.458 . S
O688 C689 1.286 1_554 S
C689 U686 2.984 1_556 S
C689 O687 1.353 . S
C689 O688 1.286 1_556 S
C689 C691 1.363 . S
C690 C680 1.465 1_554 S
C690 U686 2.847 . S
C690 O704 1.249 1_554 S
C690 O705 1.202 . S
C691 C689 1.363 . S
C691 C693 1.408 . S
C691 C696 1.342 . S
C692 C693 1.310 . S
C692 C695 1.461 . S
C692 H712 0.932 . S
C693 C691 1.408 . S
C693 C692 1.310 . S
C693 H713 0.930 . S
C694 C695 1.474 . S
C694 C696 1.285 . S
C694 H714 0.929 . S
C695 C692 1.461 . S
C695 C694 1.474 . S
C696 C691 1.342 . S
C696 C694 1.285 . S
C696 H715 0.930 . S
C697 C700 1.424 . S
C697 C702 1.245 . S
C697 C703 1.428 . S
C698 C701 1.260 . S
C698 C702 1.477 . S
C698 H716 0.932 . S
C699 C700 1.384 . S
C699 C701 1.479 . S
C699 H717 0.929 . S
C700 C697 1.424 . S
C700 C699 1.384 . S
C700 H718 0.928 . S
C701 C698 1.260 . S
C701 C699 1.479 . S
C702 C697 1.245 . S
C702 C698 1.477 . S
C702 H719 0.932 . S
C703 U686 2.882 . S
C703 C697 1.428 . S
C703 O706 1.301 . S
C703 O707 1.282 . S
O704 U686 2.441 1_556 S
O704 C690 1.249 1_556 S
O705 U686 2.420 . S
O705 C690 1.202 . S
O706 U686 2.455 . S
O706 C703 1.301 . S
O707 U686 2.449 . S
O707 C703 1.282 . S
H708 C681 0.909 1_554 S
H709 C683 0.929 . S
H710 C684 0.930 . S
H711 C685 0.931 . S
H712 C692 0.932 . S
H713 C693 0.930 . S
H714 C694 0.929 . S
H715 C696 0.930 . S
H716 C698 0.932 . S
H717 C699 0.929 . S
H718 C700 0.928 . S
H719 C702 0.932 . S
C720 C721 1.264 . S
C720 C725 1.479 . S
C720 C730 1.465 . S
C721 C720 1.264 . S
C721 C723 1.339 . S
C721 H748 0.931 . S
C722 C723 1.395 . S
C722 C724 1.320 . S
C723 C721 1.339 . S
C723 C722 1.395 . S
C723 H749 0.929 . S
C724 C722 1.320 . S
C724 C725 1.405 . S
C724 H750 0.930 . S
C725 C720 1.479 . S
C725 C724 1.405 . S
C725 H751 0.931 . S
U726 O727 2.454 . S
U726 O728 2.458 . S
U726 C729 2.984 . S
U726 C730 2.847 . S
U726 C743 2.882 . S
U726 O744 2.441 . S
U726 O745 2.420 . S
U726 O746 2.455 . S
U726 O747 2.449 . S
O727 U726 2.454 . S
O727 C729 1.353 . S
O728 U726 2.458 . S
O728 C729 1.286 . S
C729 U726 2.984 . S
C729 O727 1.353 . S
C729 O728 1.286 . S
C729 C731 1.363 . S
C730 C720 1.465 . S
C730 U726 2.847 . S
C730 O744 1.249 . S
C730 O745 1.202 . S
C731 C729 1.363 . S
C731 C733 1.408 . S
C731 C736 1.342 . S
C732 C733 1.310 . S
C732 C735 1.461 . S
C732 H752 0.932 . S
C733 C731 1.408 . S
C733 C732 1.310 . S
C733 H753 0.930 . S
C734 C735 1.474 . S
C734 C736 1.285 . S
C734 H754 0.929 . S
C735 C732 1.461 . S
C735 C734 1.474 . S
C736 C731 1.342 . S
C736 C734 1.285 . S
C736 H755 0.930 . S
C737 C740 1.424 . S
C737 C742 1.245 . S
C737 C743 1.428 . S
C738 C741 1.260 . S
C738 C742 1.477 . S
C738 H756 0.932 . S
C739 C740 1.384 . S
C739 C741 1.479 . S
C739 H757 0.929 . S
C740 C737 1.424 . S
C740 C739 1.384 . S
C740 H758 0.928 . S
C741 C738 1.260 . S
C741 C739 1.479 . S
C742 C737 1.245 . S
C742 C738 1.477 . S
C742 H759 0.932 . S
C743 U726 2.882 . S
C743 C737 1.428 . S
C743 O746 1.301 . S
C743 O747 1.282 . S
O744 U726 2.441 . S
O744 C730 1.249 . S
O745 U726 2.420 . S
O745 C730 1.202 . S
O746 U726 2.455 . S
O746 C743 1.301 . S
O747 U726 2.449 . S
O747 C743 1.282 . S
H748 C721 0.931 . S
H749 C723 0.929 . S
H750 C724 0.930 . S
H751 C725 0.931 . S
H752 C732 0.932 . S
H753 C733 0.930 . S
H754 C734 0.929 . S
H755 C736 0.930 . S
H756 C738 0.932 . S
H757 C739 0.929 . S
H758 C740 0.928 . S
H759 C742 0.932 . S
C760 C761 1.264 . S
C760 C765 1.479 1_556 S
C760 C770 1.465 . S
C761 C760 1.264 . S
C761 C763 1.339 . S
C761 H788 0.931 . S
C762 C763 1.395 1_554 S
C762 C764 1.320 . S
C763 C761 1.339 . S
C763 C762 1.395 1_556 S
C763 H789 0.929 . S
C764 C762 1.320 . S
C764 C765 1.405 . S
C764 H790 0.930 . S
C765 C760 1.479 1_554 S
C765 C764 1.405 . S
C765 H791 0.931 . S
U766 O767 2.454 . S
U766 O768 2.458 . S
U766 C769 2.984 . S
U766 C770 2.847 . S
U766 C783 2.882 . S
U766 O784 2.441 . S
U766 O785 2.420 . S
U766 O786 2.455 . S
U766 O787 2.449 . S
O767 U766 2.454 . S
O767 C769 1.353 . S
O768 U766 2.458 . S
O768 C769 1.286 . S
C769 U766 2.984 . S
C769 O767 1.353 . S
C769 O768 1.286 . S
C769 C771 1.363 1_556 S
C770 C760 1.465 . S
C770 U766 2.847 . S
C770 O784 1.249 . S
C770 O785 1.202 . S
C771 C769 1.363 1_554 S
C771 C773 1.408 . S
C771 C776 1.342 . S
C772 C773 1.310 . S
C772 C775 1.461 . S
C772 H792 0.932 . S
C773 C771 1.408 . S
C773 C772 1.310 . S
C773 H793 0.930 . S
C774 C775 1.474 . S
C774 C776 1.285 . S
C774 H794 0.929 . S
C775 C772 1.461 . S
C775 C774 1.474 . S
C776 C771 1.342 . S
C776 C774 1.285 . S
C776 H795 0.933 . S
C777 C780 1.424 . S
C777 C782 1.245 . S
C777 C783 1.428 . S
C778 C781 1.260 . S
C778 C782 1.477 . S
C778 H796 0.932 . S
C779 C780 1.384 . S
C779 C781 1.479 . S
C779 H797 0.929 . S
C780 C777 1.424 . S
C780 C779 1.384 . S
C780 H798 0.928 . S
C781 C778 1.260 . S
C781 C779 1.479 . S
C782 C777 1.245 . S
C782 C778 1.477 . S
C782 H799 0.932 . S
C783 U766 2.882 . S
C783 C777 1.428 . S
C783 O786 1.301 . S
C783 O787 1.282 . S
O784 U766 2.441 . S
O784 C770 1.249 . S
O785 U766 2.420 . S
O785 C770 1.202 . S
O786 U766 2.455 . S
O786 C783 1.301 . S
O787 U766 2.449 . S
O787 C783 1.282 . S
H788 C761 0.931 . S
H789 C763 0.929 . S
H790 C764 0.930 . S
H791 C765 0.931 . S
H792 C772 0.932 . S
H793 C773 0.930 . S
H794 C774 0.929 . S
H795 C776 0.933 . S
H796 C778 0.932 . S
H797 C779 0.929 . S
H798 C780 0.928 . S
H799 C782 0.932 . S
C800 C801 1.264 . S
C800 C805 1.479 . S
C800 C810 1.465 . S
C801 C800 1.264 . S
C801 C803 1.339 . S
C801 H828 0.931 . S
C802 C803 1.395 . S
C802 C804 1.320 . S
C803 C801 1.339 . S
C803 C802 1.395 . S
C803 H829 0.929 . S
C804 C802 1.320 . S
C804 C805 1.405 . S
C804 H830 0.930 . S
C805 C800 1.479 . S
C805 C804 1.405 . S
C805 H831 0.931 . S
U806 O807 2.454 . S
U806 O808 2.458 . S
U806 C809 2.984 . S
U806 C810 2.847 . S
U806 C823 2.882 . S
U806 O824 2.441 . S
U806 O825 2.420 . S
U806 O826 2.455 . S
U806 O827 2.449 . S
O807 U806 2.454 . S
O807 C809 1.353 . S
O808 U806 2.458 . S
O808 C809 1.286 . S
C809 U806 2.984 . S
C809 O807 1.353 . S
C809 O808 1.286 . S
C809 C811 1.363 . S
C810 C800 1.465 . S
C810 U806 2.847 . S
C810 O824 1.249 . S
C810 O825 1.202 . S
C811 C809 1.363 . S
C811 C813 1.408 . S
C811 C816 1.342 . S
C812 C813 1.310 . S
C812 C815 1.461 . S
C812 H832 0.932 . S
C813 C811 1.408 . S
C813 C812 1.310 . S
C813 H833 0.930 . S
C814 C815 1.474 . S
C814 C816 1.285 . S
C814 H834 0.929 . S
C815 C812 1.461 . S
C815 C814 1.474 . S
C816 C811 1.342 . S
C816 C814 1.285 . S
C816 H835 0.930 . S
C817 C820 1.424 . S
C817 C822 1.245 . S
C817 C823 1.428 . S
C818 C821 1.260 . S
C818 C822 1.477 . S
C818 H836 0.932 . S
C819 C820 1.384 . S
C819 C821 1.479 . S
C819 H837 0.929 . S
C820 C817 1.424 . S
C820 C819 1.384 . S
C820 H838 0.928 . S
C821 C818 1.260 . S
C821 C819 1.479 . S
C822 C817 1.245 . S
C822 C818 1.477 . S
C822 H839 0.932 . S
C823 U806 2.882 . S
C823 C817 1.428 . S
C823 O826 1.301 . S
C823 O827 1.282 . S
O824 U806 2.441 . S
O824 C810 1.249 . S
O825 U806 2.420 . S
O825 C810 1.202 . S
O826 U806 2.455 . S
O826 C823 1.301 . S
O827 U806 2.449 . S
O827 C823 1.282 . S
H828 C801 0.931 . S
H829 C803 0.929 . S
H830 C804 0.930 . S
H831 C805 0.931 . S
H832 C812 0.932 . S
H833 C813 0.930 . S
H834 C814 0.929 . S
H835 C816 0.930 . S
H836 C818 0.932 . S
H837 C819 0.929 . S
H838 C820 0.928 . S
H839 C822 0.932 . S
C840 C841 1.271 . S
C840 C845 1.479 . S
C840 C850 1.465 1_655 S
C841 C840 1.271 . S
C841 C843 1.356 . S
C841 H868 0.909 1_655 S
C842 C843 1.395 . S
C842 C844 1.320 . S
C843 C841 1.356 . S
C843 C842 1.395 . S
C843 H869 0.929 . S
C844 C842 1.320 . S
C844 C845 1.405 . S
C844 H870 0.930 . S
C845 C840 1.479 . S
C845 C844 1.405 . S
C845 H871 0.931 . S
U846 O847 2.454 1_455 S
U846 O848 2.458 . S
U846 C849 2.984 1_455 S
U846 C850 2.847 . S
U846 C863 2.882 . S
U846 O864 2.441 1_455 S
U846 O865 2.420 . S
U846 O866 2.455 . S
U846 O867 2.449 . S
O847 U846 2.454 1_655 S
O847 C849 1.353 . S
O848 U846 2.458 . S
O848 C849 1.286 1_455 S
C849 U846 2.984 1_655 S
C849 O847 1.353 . S
C849 O848 1.286 1_655 S
C849 C851 1.363 . S
C850 C840 1.465 1_455 S
C850 U846 2.847 . S
C850 O864 1.249 1_455 S
C850 O865 1.202 . S
C851 C849 1.363 . S
C851 C853 1.408 . S
C851 C856 1.342 . S
C852 C853 1.310 . S
C852 C855 1.461 . S
C852 H872 0.932 . S
C853 C851 1.408 . S
C853 C852 1.310 . S
C853 H873 0.930 . S
C854 C855 1.474 . S
C854 C856 1.285 . S
C854 H874 0.929 . S
C855 C852 1.461 . S
C855 C854 1.474 . S
C856 C851 1.342 . S
C856 C854 1.285 . S
C856 H875 0.930 . S
C857 C860 1.424 . S
C857 C862 1.245 . S
C857 C863 1.428 . S
C858 C861 1.260 . S
C858 C862 1.477 . S
C858 H876 0.932 . S
C859 C860 1.384 . S
C859 C861 1.479 . S
C859 H877 0.929 . S
C860 C857 1.424 . S
C860 C859 1.384 . S
C860 H878 0.928 . S
C861 C858 1.260 . S
C861 C859 1.479 . S
C862 C857 1.245 . S
C862 C858 1.477 . S
C862 H879 0.932 . S
C863 U846 2.882 . S
C863 C857 1.428 . S
C863 O866 1.301 . S
C863 O867 1.282 . S
O864 U846 2.441 1_655 S
O864 C850 1.249 1_655 S
O865 U846 2.420 . S
O865 C850 1.202 . S
O866 U846 2.455 . S
O866 C863 1.301 . S
O867 U846 2.449 . S
O867 C863 1.282 . S
H868 C841 0.909 1_455 S
H869 C843 0.929 . S
H870 C844 0.930 . S
H871 C845 0.931 . S
H872 C852 0.932 . S
H873 C853 0.930 . S
H874 C854 0.929 . S
H875 C856 0.930 . S
H876 C858 0.932 . S
H877 C859 0.929 . S
H878 C860 0.928 . S
H879 C862 0.932 . S
C880 C881 1.264 . S
C880 C885 1.479 . S
C880 C890 1.465 . S
C881 C880 1.264 . S
C881 C883 1.339 . S
C881 H908 0.931 . S
C882 C883 1.395 . S
C882 C884 1.320 . S
C883 C881 1.339 . S
C883 C882 1.395 . S
C883 H909 0.929 . S
C884 C882 1.320 . S
C884 C885 1.405 . S
C884 H910 0.930 . S
C885 C880 1.479 . S
C885 C884 1.405 . S
C885 H911 0.931 . S
U886 O887 2.454 . S
U886 O888 2.458 . S
U886 C889 2.984 . S
U886 C890 2.847 . S
U886 C903 2.882 . S
U886 O904 2.441 . S
U886 O905 2.420 . S
U886 O906 2.455 . S
U886 O907 2.449 . S
O887 U886 2.454 . S
O887 C889 1.353 . S
O888 U886 2.458 . S
O888 C889 1.286 . S
C889 U886 2.984 . S
C889 O887 1.353 . S
C889 O888 1.286 . S
C889 C891 1.363 . S
C890 C880 1.465 . S
C890 U886 2.847 . S
C890 O904 1.249 . S
C890 O905 1.202 . S
C891 C889 1.363 . S
C891 C893 1.408 . S
C891 C896 1.342 . S
C892 C893 1.310 . S
C892 C895 1.461 . S
C892 H912 0.932 . S
C893 C891 1.408 . S
C893 C892 1.310 . S
C893 H913 0.930 . S
C894 C895 1.474 . S
C894 C896 1.285 . S
C894 H914 0.929 . S
C895 C892 1.461 . S
C895 C894 1.474 . S
C896 C891 1.342 . S
C896 C894 1.285 . S
C896 H915 0.930 . S
C897 C900 1.424 . S
C897 C902 1.245 . S
C897 C903 1.428 . S
C898 C901 1.260 . S
C898 C902 1.477 . S
C898 H916 0.932 . S
C899 C900 1.384 . S
C899 C901 1.479 . S
C899 H917 0.929 . S
C900 C897 1.424 . S
C900 C899 1.384 . S
C900 H918 0.928 . S
C901 C898 1.260 . S
C901 C899 1.479 . S
C902 C897 1.245 . S
C902 C898 1.477 . S
C902 H919 0.932 . S
C903 U886 2.882 . S
C903 C897 1.428 . S
C903 O906 1.301 . S
C903 O907 1.282 . S
O904 U886 2.441 . S
O904 C890 1.249 . S
O905 U886 2.420 . S
O905 C890 1.202 . S
O906 U886 2.455 . S
O906 C903 1.301 . S
O907 U886 2.449 . S
O907 C903 1.282 . S
H908 C881 0.931 . S
H909 C883 0.929 . S
H910 C884 0.930 . S
H911 C885 0.931 . S
H912 C892 0.932 . S
H913 C893 0.930 . S
H914 C894 0.929 . S
H915 C896 0.930 . S
H916 C898 0.932 . S
H917 C899 0.929 . S
H918 C900 0.928 . S
H919 C902 0.932 . S
C920 C921 1.264 . S
C920 C925 1.479 1_655 S
C920 C930 1.465 . S
C921 C920 1.264 . S
C921 C923 1.339 . S
C921 H948 0.931 . S
C922 C923 1.395 1_455 S
C922 C924 1.320 . S
C923 C921 1.339 . S
C923 C922 1.395 1_655 S
C923 H949 0.929 . S
C924 C922 1.320 . S
C924 C925 1.405 . S
C924 H950 0.930 . S
C925 C920 1.479 1_455 S
C925 C924 1.405 . S
C925 H951 0.931 . S
U926 O927 2.454 . S
U926 O928 2.458 . S
U926 C929 2.984 . S
U926 C930 2.847 . S
U926 C943 2.882 . S
U926 O944 2.441 . S
U926 O945 2.420 . S
U926 O946 2.455 . S
U926 O947 2.449 . S
O927 U926 2.454 . S
O927 C929 1.353 . S
O928 U926 2.458 . S
O928 C929 1.286 . S
C929 U926 2.984 . S
C929 O927 1.353 . S
C929 O928 1.286 . S
C929 C931 1.363 1_655 S
C930 C920 1.465 . S
C930 U926 2.847 . S
C930 O944 1.249 . S
C930 O945 1.202 . S
C931 C929 1.363 1_455 S
C931 C933 1.408 . S
C931 C936 1.342 . S
C932 C933 1.310 . S
C932 C935 1.461 . S
C932 H952 0.932 . S
C933 C931 1.408 . S
C933 C932 1.310 . S
C933 H953 0.930 . S
C934 C935 1.474 . S
C934 C936 1.285 . S
C934 H954 0.929 . S
C935 C932 1.461 . S
C935 C934 1.474 . S
C936 C931 1.342 . S
C936 C934 1.285 . S
C936 H955 0.933 . S
C937 C940 1.424 . S
C937 C942 1.245 . S
C937 C943 1.428 . S
C938 C941 1.260 . S
C938 C942 1.477 . S
C938 H956 0.932 . S
C939 C940 1.384 . S
C939 C941 1.479 . S
C939 H957 0.929 . S
C940 C937 1.424 . S
C940 C939 1.384 . S
C940 H958 0.928 . S
C941 C938 1.260 . S
C941 C939 1.479 . S
C942 C937 1.245 . S
C942 C938 1.477 . S
C942 H959 0.932 . S
C943 U926 2.882 . S
C943 C937 1.428 . S
C943 O946 1.301 . S
C943 O947 1.282 . S
O944 U926 2.441 . S
O944 C930 1.249 . S
O945 U926 2.420 . S
O945 C930 1.202 . S
O946 U926 2.455 . S
O946 C943 1.301 . S
O947 U926 2.449 . S
O947 C943 1.282 . S
H948 C921 0.931 . S
H949 C923 0.929 . S
H950 C924 0.930 . S
H951 C925 0.931 . S
H952 C932 0.932 . S
H953 C933 0.930 . S
H954 C934 0.929 . S
H955 C936 0.933 . S
H956 C938 0.932 . S
H957 C939 0.929 . S
H958 C940 0.928 . S
H959 C942 0.932 . S
H960 C961 0.949 . S
C961 H960 0.949 . S
C961 C962 1.395 . S
C961 C963 1.391 . S
C962 C961 1.395 . S
C962 C965 1.390 . S
C963 C961 1.391 . S
C963 C967 1.387 . S
C963 C968 1.491 . S
H964 C965 0.950 . S
C965 C962 1.390 . S
C965 H964 0.950 . S
C965 C966 1.378 . S
C966 C965 1.378 . S
C966 C967 1.409 . S
C967 C963 1.387 . S
C967 C966 1.409 . S
C967 H969 0.951 . S
C968 C963 1.491 . S
C968 C970 1.382 . S
C968 C972 1.404 . S
H969 C967 0.951 . S
C970 C968 1.382 . S
C970 C971 1.390 . S
C970 H975 0.949 . S
C971 C970 1.390 . S
C971 C976 1.399 . S
C972 C968 1.404 . S
C972 H973 0.950 . S
C972 C974 1.375 . S
H973 C972 0.950 . S
C974 C972 1.375 . S
C974 C976 1.382 . S
C974 H978 0.950 . S
H975 C970 0.949 . S
C976 C971 1.399 . S
C976 C974 1.382 . S
C976 H977 0.952 . S
H977 C976 0.952 . S
H978 C974 0.950 . S
H979 C980 0.949 . S
C980 H979 0.949 . S
C980 C981 1.395 . S
C980 C982 1.391 1_556 S
C981 C980 1.395 . S
C981 C984 1.390 . S
C982 C980 1.391 1_554 S
C982 C986 1.387 . S
C982 C987 1.491 . S
H983 C984 0.950 . S
C984 C981 1.390 . S
C984 H983 0.950 . S
C984 C985 1.378 1_556 S
C985 C984 1.378 1_554 S
C985 C986 1.409 . S
C986 C982 1.387 . S
C986 C985 1.409 . S
C986 H988 0.951 . S
C987 C982 1.491 . S
C987 C989 1.382 . S
C987 C991 1.404 . S
H988 C986 0.951 . S
C989 C987 1.382 . S
C989 C990 1.390 . S
C989 H994 0.939 1_554 S
C990 C989 1.390 . S
C990 C995 1.399 . S
C991 C987 1.404 . S
C991 H992 0.950 . S
C991 C993 1.375 . S
H992 C991 0.950 . S
C993 C991 1.375 . S
C993 C995 1.382 . S
C993 H997 0.950 . S
H994 C989 0.939 1_556 S
C995 C990 1.399 . S
C995 C993 1.382 . S
C995 H996 0.952 . S
H996 C995 0.952 . S
H997 C993 0.950 . S
H998 C999 0.949 . S
C999 H998 0.949 . S
C999 C1000 1.395 . S
C999 C1001 1.391 . S
C1000 C999 1.395 . S
C1000 C1003 1.390 . S
C1001 C999 1.391 . S
C1001 C1005 1.387 . S
C1001 C1006 1.491 . S
H1002 C1003 0.950 . S
C1003 C1000 1.390 . S
C1003 H1002 0.950 . S
C1003 C1004 1.378 . S
C1004 C1003 1.378 . S
C1004 C1005 1.409 . S
C1005 C1001 1.387 . S
C1005 C1004 1.409 . S
C1005 H1007 0.951 . S
C1006 C1001 1.491 . S
C1006 C1008 1.382 . S
C1006 C1010 1.404 . S
H1007 C1005 0.951 . S
C1008 C1006 1.382 . S
C1008 C1009 1.390 . S
C1008 H1013 0.949 . S
C1009 C1008 1.390 . S
C1009 C1014 1.399 . S
C1010 C1006 1.404 . S
C1010 H1011 0.950 . S
C1010 C1012 1.375 . S
H1011 C1010 0.950 . S
C1012 C1010 1.375 . S
C1012 C1014 1.382 . S
C1012 H1016 0.950 . S
H1013 C1008 0.949 . S
C1014 C1009 1.399 . S
C1014 C1012 1.382 . S
C1014 H1015 0.952 . S
H1015 C1014 0.952 . S
H1016 C1012 0.950 . S
H1017 C1018 0.949 . S
C1018 H1017 0.949 . S
C1018 C1019 1.395 . S
C1018 C1020 1.391 1_554 S
C1019 C1018 1.395 . S
C1019 C1022 1.390 . S
C1020 C1018 1.391 1_556 S
C1020 C1024 1.387 . S
C1020 C1025 1.491 . S
H1021 C1022 0.950 . S
C1022 C1019 1.390 . S
C1022 H1021 0.950 . S
C1022 C1023 1.378 1_554 S
C1023 C1022 1.378 1_556 S
C1023 C1024 1.409 . S
C1024 C1020 1.387 . S
C1024 C1023 1.409 . S
C1024 H1026 0.951 . S
C1025 C1020 1.491 . S
C1025 C1027 1.382 . S
C1025 C1029 1.404 . S
H1026 C1024 0.951 . S
C1027 C1025 1.382 . S
C1027 C1028 1.390 . S
C1027 H1032 0.949 1_556 S
C1028 C1027 1.390 . S
C1028 C1033 1.399 . S
C1029 C1025 1.404 . S
C1029 H1030 0.950 . S
C1029 C1031 1.375 . S
H1030 C1029 0.950 . S
C1031 C1029 1.375 . S
C1031 C1033 1.382 . S
C1031 H1035 0.950 . S
H1032 C1027 0.949 1_554 S
C1033 C1028 1.399 . S
C1033 C1031 1.382 . S
C1033 H1034 0.952 . S
H1034 C1033 0.952 . S
H1035 C1031 0.950 . S
H1036 C1037 0.949 . S
C1037 H1036 0.949 . S
C1037 C1038 1.395 . S
C1037 C1039 1.391 . S
C1038 C1037 1.395 . S
C1038 C1041 1.390 . S
C1039 C1037 1.391 . S
C1039 C1043 1.387 . S
C1039 C1044 1.491 . S
H1040 C1041 0.950 . S
C1041 C1038 1.390 . S
C1041 H1040 0.950 . S
C1041 C1042 1.378 . S
C1042 C1041 1.378 . S
C1042 C1043 1.409 . S
C1043 C1039 1.387 . S
C1043 C1042 1.409 . S
C1043 H1045 0.951 . S
C1044 C1039 1.491 . S
C1044 C1046 1.382 . S
C1044 C1048 1.404 . S
H1045 C1043 0.951 . S
C1046 C1044 1.382 . S
C1046 C1047 1.390 . S
C1046 H1051 0.949 . S
C1047 C1046 1.390 . S
C1047 C1052 1.399 . S
C1048 C1044 1.404 . S
C1048 H1049 0.950 . S
C1048 C1050 1.375 . S
H1049 C1048 0.950 . S
C1050 C1048 1.375 . S
C1050 C1052 1.382 . S
C1050 H1054 0.950 . S
H1051 C1046 0.949 . S
C1052 C1047 1.399 . S
C1052 C1050 1.382 . S
C1052 H1053 0.952 . S
H1053 C1052 0.952 . S
H1054 C1050 0.950 . S
H1055 C1056 0.949 . S
C1056 H1055 0.949 . S
C1056 C1057 1.395 . S
C1056 C1058 1.391 1_455 S
C1057 C1056 1.395 . S
C1057 C1060 1.390 . S
C1058 C1056 1.391 1_655 S
C1058 C1062 1.387 . S
C1058 C1063 1.491 . S
H1059 C1060 0.950 . S
C1060 C1057 1.390 . S
C1060 H1059 0.950 . S
C1060 C1061 1.378 1_455 S
C1061 C1060 1.378 1_655 S
C1061 C1062 1.409 . S
C1062 C1058 1.387 . S
C1062 C1061 1.409 . S
C1062 H1064 0.951 . S
C1063 C1058 1.491 . S
C1063 C1065 1.382 . S
C1063 C1067 1.404 . S
H1064 C1062 0.951 . S
C1065 C1063 1.382 . S
C1065 C1066 1.390 . S
C1065 H1070 0.949 1_655 S
C1066 C1065 1.390 . S
C1066 C1071 1.399 . S
C1067 C1063 1.404 . S
C1067 H1068 0.950 . S
C1067 C1069 1.375 . S
H1068 C1067 0.950 . S
C1069 C1067 1.375 . S
C1069 C1071 1.382 . S
C1069 H1073 0.950 . S
H1070 C1065 0.949 1_455 S
C1071 C1066 1.399 . S
C1071 C1069 1.382 . S
C1071 H1072 0.952 . S
H1072 C1071 0.952 . S
H1073 C1069 0.950 . S
H1074 C1075 0.949 . S
C1075 H1074 0.949 . S
C1075 C1076 1.395 . S
C1075 C1077 1.391 1_655 S
C1076 C1075 1.395 . S
C1076 C1079 1.390 . S
C1077 C1075 1.391 1_455 S
C1077 C1081 1.387 . S
C1077 C1082 1.491 . S
H1078 C1079 0.950 . S
C1079 C1076 1.390 . S
C1079 H1078 0.950 . S
C1079 C1080 1.378 1_655 S
C1080 C1079 1.378 1_455 S
C1080 C1081 1.409 . S
C1081 C1077 1.387 . S
C1081 C1080 1.409 . S
C1081 H1083 0.951 . S
C1082 C1077 1.491 . S
C1082 C1084 1.382 . S
C1082 C1086 1.404 . S
H1083 C1081 0.951 . S
C1084 C1082 1.382 . S
C1084 C1085 1.390 . S
C1084 H1089 0.939 1_455 S
C1085 C1084 1.390 . S
C1085 C1090 1.399 . S
C1086 C1082 1.404 . S
C1086 H1087 0.950 . S
C1086 C1088 1.375 . S
H1087 C1086 0.950 . S
C1088 C1086 1.375 . S
C1088 C1090 1.382 . S
C1088 H1092 0.950 . S
H1089 C1084 0.939 1_655 S
C1090 C1085 1.399 . S
C1090 C1088 1.382 . S
C1090 H1091 0.952 . S
H1091 C1090 0.952 . S
H1092 C1088 0.950 . S
H1093 C1094 0.949 . S
C1094 H1093 0.949 . S
C1094 C1095 1.395 . S
C1094 C1096 1.391 . S
C1095 C1094 1.395 . S
C1095 C1098 1.390 . S
C1096 C1094 1.391 . S
C1096 C1100 1.387 . S
C1096 C1101 1.491 . S
H1097 C1098 0.950 . S
C1098 C1095 1.390 . S
C1098 H1097 0.950 . S
C1098 C1099 1.378 . S
C1099 C1098 1.378 . S
C1099 C1100 1.409 . S
C1100 C1096 1.387 . S
C1100 C1099 1.409 . S
C1100 H1102 0.951 . S
C1101 C1096 1.491 . S
C1101 C1103 1.382 . S
C1101 C1105 1.404 . S
H1102 C1100 0.951 . S
C1103 C1101 1.382 . S
C1103 C1104 1.390 . S
C1103 H1108 0.949 . S
C1104 C1103 1.390 . S
C1104 C1109 1.399 . S
C1105 C1101 1.404 . S
C1105 H1106 0.950 . S
C1105 C1107 1.375 . S
H1106 C1105 0.950 . S
C1107 C1105 1.375 . S
C1107 C1109 1.382 . S
C1107 H1111 0.950 . S
H1108 C1103 0.949 . S
C1109 C1104 1.399 . S
C1109 C1107 1.382 . S
C1109 H1110 0.952 . S
H1110 C1109 0.952 . S
H1111 C1107 0.950 . S
H1112 C1113 0.949 . S
C1113 H1112 0.949 . S
C1113 C1114 1.395 . S
C1113 C1115 1.391 . S
C1114 C1113 1.395 . S
C1114 C1117 1.390 . S
C1115 C1113 1.391 . S
C1115 C1119 1.387 . S
C1115 C1120 1.491 . S
H1116 C1117 0.950 . S
C1117 C1114 1.390 . S
C1117 H1116 0.950 . S
C1117 C1118 1.378 . S
C1118 C1117 1.378 . S
C1118 C1119 1.409 . S
C1119 C1115 1.387 . S
C1119 C1118 1.409 . S
C1119 H1121 0.951 . S
C1120 C1115 1.491 . S
C1120 C1122 1.382 . S
C1120 C1124 1.404 . S
H1121 C1119 0.951 . S
C1122 C1120 1.382 . S
C1122 C1123 1.390 . S
C1122 H1127 0.949 . S
C1123 C1122 1.390 . S
C1123 C1128 1.399 . S
C1124 C1120 1.404 . S
C1124 H1125 0.950 . S
C1124 C1126 1.375 . S
H1125 C1124 0.950 . S
C1126 C1124 1.375 . S
C1126 C1128 1.382 . S
C1126 H1130 0.950 . S
H1127 C1122 0.949 . S
C1128 C1123 1.399 . S
C1128 C1126 1.382 . S
C1128 H1129 0.952 . S
H1129 C1128 0.952 . S
H1130 C1126 0.950 . S
H1131 C1132 0.949 . S
C1132 H1131 0.949 . S
C1132 C1133 1.395 . S
C1132 C1134 1.391 1_545 S
C1133 C1132 1.395 . S
C1133 C1136 1.390 . S
C1134 C1132 1.391 1_565 S
C1134 C1138 1.387 . S
C1134 C1139 1.491 . S
H1135 C1136 0.950 . S
C1136 C1133 1.390 . S
C1136 H1135 0.950 . S
C1136 C1137 1.378 1_545 S
C1137 C1136 1.378 1_565 S
C1137 C1138 1.409 . S
C1138 C1134 1.387 . S
C1138 C1137 1.409 . S
C1138 H1140 0.951 . S
C1139 C1134 1.491 . S
C1139 C1141 1.382 . S
C1139 C1143 1.404 . S
H1140 C1138 0.951 . S
C1141 C1139 1.382 . S
C1141 C1142 1.390 . S
C1141 H1146 0.949 1_565 S
C1142 C1141 1.390 . S
C1142 C1147 1.399 . S
C1143 C1139 1.404 . S
C1143 H1144 0.950 . S
C1143 C1145 1.375 . S
H1144 C1143 0.950 . S
C1145 C1143 1.375 . S
C1145 C1147 1.382 . S
C1145 H1149 0.950 . S
H1146 C1141 0.949 1_545 S
C1147 C1142 1.399 . S
C1147 C1145 1.382 . S
C1147 H1148 0.952 . S
H1148 C1147 0.952 . S
H1149 C1145 0.950 . S
H1150 C1151 0.949 . S
C1151 H1150 0.949 . S
C1151 C1152 1.395 . S
C1151 C1153 1.391 1_565 S
C1152 C1151 1.395 . S
C1152 C1155 1.390 . S
C1153 C1151 1.391 1_545 S
C1153 C1157 1.387 . S
C1153 C1158 1.491 . S
H1154 C1155 0.950 . S
C1155 C1152 1.390 . S
C1155 H1154 0.950 . S
C1155 C1156 1.378 1_565 S
C1156 C1155 1.378 1_545 S
C1156 C1157 1.409 . S
C1157 C1153 1.387 . S
C1157 C1156 1.409 . S
C1157 H1159 0.951 . S
C1158 C1153 1.491 . S
C1158 C1160 1.382 . S
C1158 C1162 1.404 . S
H1159 C1157 0.951 . S
C1160 C1158 1.382 . S
C1160 C1161 1.390 . S
C1160 H1165 0.939 1_545 S
C1161 C1160 1.390 . S
C1161 C1166 1.399 . S
C1162 C1158 1.404 . S
C1162 H1163 0.950 . S
C1162 C1164 1.375 . S
H1163 C1162 0.950 . S
C1164 C1162 1.375 . S
C1164 C1166 1.382 . S
C1164 H1168 0.950 . S
H1165 C1160 0.939 1_565 S
C1166 C1161 1.399 . S
C1166 C1164 1.382 . S
C1166 H1167 0.952 . S
H1167 C1166 0.952 . S
H1168 C1164 0.950 . S
H1169 C1170 0.949 . S
C1170 H1169 0.949 . S
C1170 C1171 1.395 . S
C1170 C1172 1.391 . S
C1171 C1170 1.395 . S
C1171 C1174 1.390 . S
C1172 C1170 1.391 . S
C1172 C1176 1.387 . S
C1172 C1177 1.491 . S
H1173 C1174 0.950 . S
C1174 C1171 1.390 . S
C1174 H1173 0.950 . S
C1174 C1175 1.378 . S
C1175 C1174 1.378 . S
C1175 C1176 1.409 . S
C1176 C1172 1.387 . S
C1176 C1175 1.409 . S
C1176 H1178 0.951 . S
C1177 C1172 1.491 . S
C1177 C1179 1.382 . S
C1177 C1181 1.404 . S
H1178 C1176 0.951 . S
C1179 C1177 1.382 . S
C1179 C1180 1.390 . S
C1179 H1184 0.949 . S
C1180 C1179 1.390 . S
C1180 C1185 1.399 . S
C1181 C1177 1.404 . S
C1181 H1182 0.950 . S
C1181 C1183 1.375 . S
H1182 C1181 0.950 . S
C1183 C1181 1.375 . S
C1183 C1185 1.382 . S
C1183 H1187 0.950 . S
H1184 C1179 0.949 . S
C1185 C1180 1.399 . S
C1185 C1183 1.382 . S
C1185 H1186 0.952 . S
H1186 C1185 0.952 . S
H1187 C1183 0.950 . S
H1188 C1189 0.949 . S
C1189 H1188 0.949 . S
C1189 C1190 1.395 . S
C1189 C1191 1.391 . S
C1190 C1189 1.395 . S
C1190 C1193 1.390 . S
C1191 C1189 1.391 . S
C1191 C1195 1.387 . S
C1191 C1196 1.491 . S
H1192 C1193 0.950 . S
C1193 C1190 1.390 . S
C1193 H1192 0.950 . S
C1193 C1194 1.378 . S
C1194 C1193 1.378 . S
C1194 C1195 1.409 . S
C1195 C1191 1.387 . S
C1195 C1194 1.409 . S
C1195 H1197 0.951 . S
C1196 C1191 1.491 . S
C1196 C1198 1.382 . S
C1196 C1200 1.404 . S
H1197 C1195 0.951 . S
C1198 C1196 1.382 . S
C1198 C1199 1.390 . S
C1198 H1203 0.949 . S
C1199 C1198 1.390 . S
C1199 C1204 1.399 . S
C1200 C1196 1.404 . S
C1200 H1201 0.950 . S
C1200 C1202 1.375 . S
H1201 C1200 0.950 . S
C1202 C1200 1.375 . S
C1202 C1204 1.382 . S
C1202 H1206 0.950 . S
H1203 C1198 0.949 . S
C1204 C1199 1.399 . S
C1204 C1202 1.382 . S
C1204 H1205 0.952 . S
H1205 C1204 0.952 . S
H1206 C1202 0.950 . S
H1207 C1208 0.949 . S
C1208 H1207 0.949 . S
C1208 C1209 1.395 . S
C1208 C1210 1.391 1_554 S
C1209 C1208 1.395 . S
C1209 C1212 1.390 . S
C1210 C1208 1.391 1_556 S
C1210 C1214 1.387 . S
C1210 C1215 1.491 . S
H1211 C1212 0.950 . S
C1212 C1209 1.390 . S
C1212 H1211 0.950 . S
C1212 C1213 1.378 1_554 S
C1213 C1212 1.378 1_556 S
C1213 C1214 1.409 . S
C1214 C1210 1.387 . S
C1214 C1213 1.409 . S
C1214 H1216 0.951 . S
C1215 C1210 1.491 . S
C1215 C1217 1.382 . S
C1215 C1219 1.404 . S
H1216 C1214 0.951 . S
C1217 C1215 1.382 . S
C1217 C1218 1.390 . S
C1217 H1222 0.949 1_556 S
C1218 C1217 1.390 . S
C1218 C1223 1.399 . S
C1219 C1215 1.404 . S
C1219 H1220 0.950 . S
C1219 C1221 1.375 . S
H1220 C1219 0.950 . S
C1221 C1219 1.375 . S
C1221 C1223 1.382 . S
C1221 H1225 0.950 . S
H1222 C1217 0.949 1_554 S
C1223 C1218 1.399 . S
C1223 C1221 1.382 . S
C1223 H1224 0.952 . S
H1224 C1223 0.952 . S
H1225 C1221 0.950 . S
H1226 C1227 0.949 . S
C1227 H1226 0.949 . S
C1227 C1228 1.395 . S
C1227 C1229 1.391 . S
C1228 C1227 1.395 . S
C1228 C1231 1.390 . S
C1229 C1227 1.391 . S
C1229 C1233 1.387 . S
C1229 C1234 1.491 . S
H1230 C1231 0.950 . S
C1231 C1228 1.390 . S
C1231 H1230 0.950 . S
C1231 C1232 1.378 . S
C1232 C1231 1.378 . S
C1232 C1233 1.409 . S
C1233 C1229 1.387 . S
C1233 C1232 1.409 . S
C1233 H1235 0.951 . S
C1234 C1229 1.491 . S
C1234 C1236 1.382 . S
C1234 C1238 1.404 . S
H1235 C1233 0.951 . S
C1236 C1234 1.382 . S
C1236 C1237 1.390 . S
C1236 H1241 0.949 . S
C1237 C1236 1.390 . S
C1237 C1242 1.399 . S
C1238 C1234 1.404 . S
C1238 H1239 0.950 . S
C1238 C1240 1.375 . S
H1239 C1238 0.950 . S
C1240 C1238 1.375 . S
C1240 C1242 1.382 . S
C1240 H1244 0.950 . S
H1241 C1236 0.949 . S
C1242 C1237 1.399 . S
C1242 C1240 1.382 . S
C1242 H1243 0.952 . S
H1243 C1242 0.952 . S
H1244 C1240 0.950 . S
H1245 C1246 0.949 . S
C1246 H1245 0.949 . S
C1246 C1247 1.395 . S
C1246 C1248 1.391 1_556 S
C1247 C1246 1.395 . S
C1247 C1250 1.390 . S
C1248 C1246 1.391 1_554 S
C1248 C1252 1.387 . S
C1248 C1253 1.491 . S
H1249 C1250 0.950 . S
C1250 C1247 1.390 . S
C1250 H1249 0.950 . S
C1250 C1251 1.378 1_556 S
C1251 C1250 1.378 1_554 S
C1251 C1252 1.409 . S
C1252 C1248 1.387 . S
C1252 C1251 1.409 . S
C1252 H1254 0.951 . S
C1253 C1248 1.491 . S
C1253 C1255 1.382 . S
C1253 C1257 1.404 . S
H1254 C1252 0.951 . S
C1255 C1253 1.382 . S
C1255 C1256 1.390 . S
C1255 H1260 0.949 . S
C1256 C1255 1.390 . S
C1256 C1261 1.399 . S
C1257 C1253 1.404 . S
C1257 H1258 0.950 . S
C1257 C1259 1.375 . S
H1258 C1257 0.950 . S
C1259 C1257 1.375 . S
C1259 C1261 1.382 . S
C1259 H1263 0.950 . S
H1260 C1255 0.949 . S
C1261 C1256 1.399 . S
C1261 C1259 1.382 . S
C1261 H1262 0.952 . S
H1262 C1261 0.952 . S
H1263 C1259 0.950 . S
H1264 C1265 0.949 . S
C1265 H1264 0.949 . S
C1265 C1266 1.395 . S
C1265 C1267 1.391 . S
C1266 C1265 1.395 . S
C1266 C1269 1.390 . S
C1267 C1265 1.391 . S
C1267 C1271 1.387 . S
C1267 C1272 1.491 . S
H1268 C1269 0.950 . S
C1269 C1266 1.390 . S
C1269 H1268 0.950 . S
C1269 C1270 1.378 . S
C1270 C1269 1.378 . S
C1270 C1271 1.409 . S
C1271 C1267 1.387 . S
C1271 C1270 1.409 . S
C1271 H1273 0.951 . S
C1272 C1267 1.491 . S
C1272 C1274 1.382 . S
C1272 C1276 1.404 . S
H1273 C1271 0.951 . S
C1274 C1272 1.382 . S
C1274 C1275 1.390 . S
C1274 H1279 0.949 . S
C1275 C1274 1.390 . S
C1275 C1280 1.399 . S
C1276 C1272 1.404 . S
C1276 H1277 0.950 . S
C1276 C1278 1.375 . S
H1277 C1276 0.950 . S
C1278 C1276 1.375 . S
C1278 C1280 1.382 . S
C1278 H1282 0.950 . S
H1279 C1274 0.949 . S
C1280 C1275 1.399 . S
C1280 C1278 1.382 . S
C1280 H1281 0.952 . S
H1281 C1280 0.952 . S
H1282 C1278 0.950 . S
H1283 C1284 0.949 . S
C1284 H1283 0.949 . S
C1284 C1285 1.395 . S
C1284 C1286 1.391 1_655 S
C1285 C1284 1.395 . S
C1285 C1288 1.390 . S
C1286 C1284 1.391 1_455 S
C1286 C1290 1.387 . S
C1286 C1291 1.491 . S
H1287 C1288 0.950 . S
C1288 C1285 1.390 . S
C1288 H1287 0.950 . S
C1288 C1289 1.378 1_655 S
C1289 C1288 1.378 1_455 S
C1289 C1290 1.409 . S
C1290 C1286 1.387 . S
C1290 C1289 1.409 . S
C1290 H1292 0.951 . S
C1291 C1286 1.491 . S
C1291 C1293 1.382 . S
C1291 C1295 1.404 . S
H1292 C1290 0.951 . S
C1293 C1291 1.382 . S
C1293 C1294 1.390 . S
C1293 H1298 0.949 . S
C1294 C1293 1.390 . S
C1294 C1299 1.399 . S
C1295 C1291 1.404 . S
C1295 H1296 0.950 . S
C1295 C1297 1.375 . S
H1296 C1295 0.950 . S
C1297 C1295 1.375 . S
C1297 C1299 1.382 . S
C1297 H1301 0.950 . S
H1298 C1293 0.949 . S
C1299 C1294 1.399 . S
C1299 C1297 1.382 . S
C1299 H1300 0.952 . S
H1300 C1299 0.952 . S
H1301 C1297 0.950 . S
H1302 C1303 0.949 . S
C1303 H1302 0.949 . S
C1303 C1304 1.395 . S
C1303 C1305 1.391 1_455 S
C1304 C1303 1.395 . S
C1304 C1307 1.390 . S
C1305 C1303 1.391 1_655 S
C1305 C1309 1.387 . S
C1305 C1310 1.491 . S
H1306 C1307 0.950 . S
C1307 C1304 1.390 . S
C1307 H1306 0.950 . S
C1307 C1308 1.378 1_455 S
C1308 C1307 1.378 1_655 S
C1308 C1309 1.409 . S
C1309 C1305 1.387 . S
C1309 C1308 1.409 . S
C1309 H1311 0.951 . S
C1310 C1305 1.491 . S
C1310 C1312 1.382 . S
C1310 C1314 1.404 . S
H1311 C1309 0.951 . S
C1312 C1310 1.382 . S
C1312 C1313 1.390 . S
C1312 H1317 0.949 1_655 S
C1313 C1312 1.390 . S
C1313 C1318 1.399 . S
C1314 C1310 1.404 . S
C1314 H1315 0.950 . S
C1314 C1316 1.375 . S
H1315 C1314 0.950 . S
C1316 C1314 1.375 . S
C1316 C1318 1.382 . S
C1316 H1320 0.950 . S
H1317 C1312 0.949 1_455 S
C1318 C1313 1.399 . S
C1318 C1316 1.382 . S
C1318 H1319 0.952 . S
H1319 C1318 0.952 . S
H1320 C1316 0.950 . S
H1321 C1322 0.949 . S
C1322 H1321 0.949 . S
C1322 C1323 1.395 . S
C1322 C1324 1.391 . S
C1323 C1322 1.395 . S
C1323 C1326 1.390 . S
C1324 C1322 1.391 . S
C1324 C1328 1.387 . S
C1324 C1329 1.491 . S
H1325 C1326 0.950 . S
C1326 C1323 1.390 . S
C1326 H1325 0.950 . S
C1326 C1327 1.378 . S
C1327 C1326 1.378 . S
C1327 C1328 1.409 . S
C1328 C1324 1.387 . S
C1328 C1327 1.409 . S
C1328 H1330 0.951 . S
C1329 C1324 1.491 . S
C1329 C1331 1.382 . S
C1329 C1333 1.404 . S
H1330 C1328 0.951 . S
C1331 C1329 1.382 . S
C1331 C1332 1.390 . S
C1331 H1336 0.949 . S
C1332 C1331 1.390 . S
C1332 C1337 1.399 . S
C1333 C1329 1.404 . S
C1333 H1334 0.950 . S
C1333 C1335 1.375 . S
H1334 C1333 0.950 . S
C1335 C1333 1.375 . S
C1335 C1337 1.382 . S
C1335 H1339 0.950 . S
H1336 C1331 0.949 . S
C1337 C1332 1.399 . S
C1337 C1335 1.382 . S
C1337 H1338 0.952 . S
H1338 C1337 0.952 . S
H1339 C1335 0.950 . S
H1340 C1341 0.949 . S
C1341 H1340 0.949 . S
C1341 C1342 1.395 . S
C1341 C1343 1.391 . S
C1342 C1341 1.395 . S
C1342 C1345 1.390 . S
C1343 C1341 1.391 . S
C1343 C1347 1.387 . S
C1343 C1348 1.491 . S
H1344 C1345 0.950 . S
C1345 C1342 1.390 . S
C1345 H1344 0.950 . S
C1345 C1346 1.378 . S
C1346 C1345 1.378 . S
C1346 C1347 1.409 . S
C1347 C1343 1.387 . S
C1347 C1346 1.409 . S
C1347 H1349 0.951 . S
C1348 C1343 1.491 . S
C1348 C1350 1.382 . S
C1348 C1352 1.404 . S
H1349 C1347 0.951 . S
C1350 C1348 1.382 . S
C1350 C1351 1.390 . S
C1350 H1355 0.949 . S
C1351 C1350 1.390 . S
C1351 C1356 1.399 . S
C1352 C1348 1.404 . S
C1352 H1353 0.950 . S
C1352 C1354 1.375 . S
H1353 C1352 0.950 . S
C1354 C1352 1.375 . S
C1354 C1356 1.382 . S
C1354 H1358 0.950 . S
H1355 C1350 0.949 . S
C1356 C1351 1.399 . S
C1356 C1354 1.382 . S
C1356 H1357 0.952 . S
H1357 C1356 0.952 . S
H1358 C1354 0.950 . S
H1359 C1360 0.949 . S
C1360 H1359 0.949 . S
C1360 C1361 1.395 . S
C1360 C1362 1.391 1_565 S
C1361 C1360 1.395 . S
C1361 C1364 1.390 . S
C1362 C1360 1.391 1_545 S
C1362 C1366 1.387 . S
C1362 C1367 1.491 . S
H1363 C1364 0.950 . S
C1364 C1361 1.390 . S
C1364 H1363 0.950 . S
C1364 C1365 1.378 1_565 S
C1365 C1364 1.378 1_545 S
C1365 C1366 1.409 . S
C1366 C1362 1.387 . S
C1366 C1365 1.409 . S
C1366 H1368 0.951 . S
C1367 C1362 1.491 . S
C1367 C1369 1.382 . S
C1367 C1371 1.404 . S
H1368 C1366 0.951 . S
C1369 C1367 1.382 . S
C1369 C1370 1.390 . S
C1369 H1374 0.949 . S
C1370 C1369 1.390 . S
C1370 C1375 1.399 . S
C1371 C1367 1.404 . S
C1371 H1372 0.950 . S
C1371 C1373 1.375 . S
H1372 C1371 0.950 . S
C1373 C1371 1.375 . S
C1373 C1375 1.382 . S
C1373 H1377 0.950 . S
H1374 C1369 0.949 . S
C1375 C1370 1.399 . S
C1375 C1373 1.382 . S
C1375 H1376 0.952 . S
H1376 C1375 0.952 . S
H1377 C1373 0.950 . S
H1378 C1379 0.949 . S
C1379 H1378 0.949 . S
C1379 C1380 1.395 . S
C1379 C1381 1.391 1_545 S
C1380 C1379 1.395 . S
C1380 C1383 1.390 . S
C1381 C1379 1.391 1_565 S
C1381 C1385 1.387 . S
C1381 C1386 1.491 . S
H1382 C1383 0.950 . S
C1383 C1380 1.390 . S
C1383 H1382 0.950 . S
C1383 C1384 1.378 1_545 S
C1384 C1383 1.378 1_565 S
C1384 C1385 1.409 . S
C1385 C1381 1.387 . S
C1385 C1384 1.409 . S
C1385 H1387 0.951 . S
C1386 C1381 1.491 . S
C1386 C1388 1.382 . S
C1386 C1390 1.404 . S
H1387 C1385 0.951 . S
C1388 C1386 1.382 . S
C1388 C1389 1.390 . S
C1388 H1393 0.949 1_565 S
C1389 C1388 1.390 . S
C1389 C1394 1.399 . S
C1390 C1386 1.404 . S
C1390 H1391 0.950 . S
C1390 C1392 1.375 . S
H1391 C1390 0.950 . S
C1392 C1390 1.375 . S
C1392 C1394 1.382 . S
C1392 H1396 0.950 . S
H1393 C1388 0.949 1_545 S
C1394 C1389 1.399 . S
C1394 C1392 1.382 . S
C1394 H1395 0.952 . S
H1395 C1394 0.952 . S
H1396 C1392 0.950 . S
H1397 C1398 0.949 . S
C1398 H1397 0.949 . S
C1398 C1399 1.395 . S
C1398 C1400 1.391 . S
C1399 C1398 1.395 . S
C1399 C1402 1.390 . S
C1400 C1398 1.391 . S
C1400 C1404 1.387 . S
C1400 C1405 1.491 . S
H1401 C1402 0.950 . S
C1402 C1399 1.390 . S
C1402 H1401 0.950 . S
C1402 C1403 1.378 . S
C1403 C1402 1.378 . S
C1403 C1404 1.409 . S
C1404 C1400 1.387 . S
C1404 C1403 1.409 . S
C1404 H1406 0.951 . S
C1405 C1400 1.491 . S
C1405 C1407 1.382 . S
C1405 C1409 1.404 . S
H1406 C1404 0.951 . S
C1407 C1405 1.382 . S
C1407 C1408 1.390 . S
C1407 H1412 0.949 . S
C1408 C1407 1.390 . S
C1408 C1413 1.399 . S
C1409 C1405 1.404 . S
C1409 H1410 0.950 . S
C1409 C1411 1.375 . S
H1410 C1409 0.950 . S
C1411 C1409 1.375 . S
C1411 C1413 1.382 . S
C1411 H1415 0.950 . S
H1412 C1407 0.949 . S
C1413 C1408 1.399 . S
C1413 C1411 1.382 . S
C1413 H1414 0.952 . S
H1414 C1413 0.952 . S
H1415 C1411 0.950 . S
C1416 C1417 1.369 . S
C1416 C1418 1.419 . S
C1416 H1420 0.930 . S
C1417 C1416 1.369 . S
C1417 C1426 1.429 . S
C1418 C1416 1.419 . S
C1418 C1419 1.363 . S
C1418 H1421 0.929 . S
C1419 C1418 1.363 . S
C1419 C1425 1.428 . S
H1420 C1416 0.930 . S
H1421 C1418 0.929 . S
S1422 N1423 1.613 . S
S1422 N1424 1.610 . S
N1423 S1422 1.613 . S
N1423 C1426 1.350 . S
N1424 S1422 1.610 . S
N1424 C1425 1.351 . S
C1425 C1419 1.428 . S
C1425 N1424 1.351 . S
C1425 C1426 1.434 . S
C1426 C1417 1.429 . S
C1426 N1423 1.350 . S
C1426 C1425 1.434 . S
C1427 C1428 1.369 . S
C1427 C1429 1.419 . S
C1427 H1431 0.930 . S
C1428 C1427 1.369 . S
C1428 C1437 1.429 . S
C1429 C1427 1.419 . S
C1429 C1430 1.363 . S
C1429 H1432 0.929 . S
C1430 C1429 1.363 . S
C1430 C1436 1.428 . S
H1431 C1427 0.930 . S
H1432 C1429 0.929 . S
S1433 N1434 1.613 . S
S1433 N1435 1.610 . S
N1434 S1433 1.613 . S
N1434 C1437 1.350 . S
N1435 S1433 1.610 . S
N1435 C1436 1.351 . S
C1436 C1430 1.428 . S
C1436 N1435 1.351 . S
C1436 C1437 1.434 . S
C1437 C1428 1.429 . S
C1437 N1434 1.350 . S
C1437 C1436 1.434 . S
C1438 C1439 1.369 . S
C1438 C1440 1.419 . S
C1438 H1442 0.929 1_565 S
C1439 C1438 1.369 . S
C1439 C1448 1.429 . S
C1440 C1438 1.419 . S
C1440 C1441 1.363 . S
C1440 H1443 0.929 . S
C1441 C1440 1.363 . S
C1441 C1447 1.428 . S
H1442 C1438 0.929 1_545 S
H1443 C1440 0.929 . S
S1444 N1445 1.613 . S
S1444 N1446 1.610 . S
N1445 S1444 1.613 . S
N1445 C1448 1.350 . S
N1446 S1444 1.610 . S
N1446 C1447 1.351 . S
C1447 C1441 1.428 . S
C1447 N1446 1.351 . S
C1447 C1448 1.434 . S
C1448 C1439 1.429 . S
C1448 N1445 1.350 . S
C1448 C1447 1.434 . S
C1449 C1450 1.369 . S
C1449 C1451 1.419 . S
C1449 H1453 0.930 . S
C1450 C1449 1.369 . S
C1450 C1459 1.429 . S
C1451 C1449 1.419 . S
C1451 C1452 1.363 . S
C1451 H1454 0.929 . S
C1452 C1451 1.363 . S
C1452 C1458 1.428 . S
H1453 C1449 0.930 . S
H1454 C1451 0.929 . S
S1455 N1456 1.613 . S
S1455 N1457 1.610 . S
N1456 S1455 1.613 . S
N1456 C1459 1.350 . S
N1457 S1455 1.610 . S
N1457 C1458 1.351 . S
C1458 C1452 1.428 . S
C1458 N1457 1.351 . S
C1458 C1459 1.434 . S
C1459 C1450 1.429 . S
C1459 N1456 1.350 . S
C1459 C1458 1.434 . S
C1460 C1461 1.369 . S
C1460 C1462 1.419 . S
C1460 H1464 0.930 . S
C1461 C1460 1.369 . S
C1461 C1470 1.429 . S
C1462 C1460 1.419 . S
C1462 C1463 1.363 . S
C1462 H1465 0.929 . S
C1463 C1462 1.363 . S
C1463 C1469 1.428 . S
H1464 C1460 0.930 . S
H1465 C1462 0.929 . S
S1466 N1467 1.613 . S
S1466 N1468 1.610 . S
N1467 S1466 1.613 . S
N1467 C1470 1.350 . S
N1468 S1466 1.610 . S
N1468 C1469 1.351 . S
C1469 C1463 1.428 . S
C1469 N1468 1.351 . S
C1469 C1470 1.434 . S
C1470 C1461 1.429 . S
C1470 N1467 1.350 . S
C1470 C1469 1.434 . S
C1471 C1472 1.369 . S
C1471 C1473 1.419 . S
C1471 H1475 0.930 . S
C1472 C1471 1.369 . S
C1472 C1481 1.429 . S
C1473 C1471 1.419 . S
C1473 C1474 1.363 . S
C1473 H1476 0.929 . S
C1474 C1473 1.363 . S
C1474 C1480 1.428 . S
H1475 C1471 0.930 . S
H1476 C1473 0.929 . S
S1477 N1478 1.613 . S
S1477 N1479 1.610 . S
N1478 S1477 1.613 . S
N1478 C1481 1.350 . S
N1479 S1477 1.610 . S
N1479 C1480 1.351 . S
C1480 C1474 1.428 . S
C1480 N1479 1.351 . S
C1480 C1481 1.434 . S
C1481 C1472 1.429 . S
C1481 N1478 1.350 . S
C1481 C1480 1.434 . S
C1482 C1483 1.369 . S
C1482 C1484 1.419 . S
C1482 H1486 0.930 . S
C1483 C1482 1.369 . S
C1483 C1492 1.429 . S
C1484 C1482 1.419 . S
C1484 C1485 1.363 . S
C1484 H1487 0.929 . S
C1485 C1484 1.363 . S
C1485 C1491 1.428 . S
H1486 C1482 0.930 . S
H1487 C1484 0.929 . S
S1488 N1489 1.613 . S
S1488 N1490 1.610 . S
N1489 S1488 1.613 . S
N1489 C1492 1.350 . S
N1490 S1488 1.610 . S
N1490 C1491 1.351 . S
C1491 C1485 1.428 . S
C1491 N1490 1.351 . S
C1491 C1492 1.434 . S
C1492 C1483 1.429 . S
C1492 N1489 1.350 . S
C1492 C1491 1.434 . S
C1493 C1494 1.369 . S
C1493 C1495 1.419 . S
C1493 H1497 0.930 . S
C1494 C1493 1.369 . S
C1494 C1503 1.429 . S
C1495 C1493 1.419 . S
C1495 C1496 1.363 . S
C1495 H1498 0.929 . S
C1496 C1495 1.363 . S
C1496 C1502 1.428 . S
H1497 C1493 0.930 . S
H1498 C1495 0.929 . S
S1499 N1500 1.613 . S
S1499 N1501 1.610 . S
N1500 S1499 1.613 . S
N1500 C1503 1.350 1_554 S
N1501 S1499 1.610 . S
N1501 C1502 1.351 1_554 S
C1502 C1496 1.428 . S
C1502 N1501 1.351 1_556 S
C1502 C1503 1.434 . S
C1503 C1494 1.429 . S
C1503 N1500 1.350 1_556 S
C1503 C1502 1.434 . S
C1504 C1505 1.369 . S
C1504 C1506 1.419 . S
C1504 H1508 0.930 . S
C1505 C1504 1.369 . S
C1505 C1514 1.429 . S
C1506 C1504 1.419 . S
C1506 C1507 1.363 . S
C1506 H1509 0.929 . S
C1507 C1506 1.363 . S
C1507 C1513 1.428 . S
H1508 C1504 0.930 . S
H1509 C1506 0.929 . S
S1510 N1511 1.613 . S
S1510 N1512 1.610 . S
N1511 S1510 1.613 . S
N1511 C1514 1.350 . S
N1512 S1510 1.610 . S
N1512 C1513 1.351 . S
C1513 C1507 1.428 . S
C1513 N1512 1.351 . S
C1513 C1514 1.434 . S
C1514 C1505 1.429 . S
C1514 N1511 1.350 . S
C1514 C1513 1.434 . S
C1515 C1516 1.369 . S
C1515 C1517 1.419 . S
C1515 H1519 0.930 . S
C1516 C1515 1.369 . S
C1516 C1525 1.429 . S
C1517 C1515 1.419 . S
C1517 C1518 1.363 . S
C1517 H1520 0.929 . S
C1518 C1517 1.363 . S
C1518 C1524 1.428 . S
H1519 C1515 0.930 . S
H1520 C1517 0.929 . S
S1521 N1522 1.613 . S
S1521 N1523 1.610 . S
N1522 S1521 1.613 . S
N1522 C1525 1.350 1_655 S
N1523 S1521 1.610 . S
N1523 C1524 1.351 1_655 S
C1524 C1518 1.428 . S
C1524 N1523 1.351 1_455 S
C1524 C1525 1.434 . S
C1525 C1516 1.429 . S
C1525 N1522 1.350 1_455 S
C1525 C1524 1.434 . S
C1526 C1527 1.369 . S
C1526 C1528 1.419 . S
C1526 H1530 0.930 . S
C1527 C1526 1.369 . S
C1527 C1536 1.429 . S
C1528 C1526 1.419 . S
C1528 C1529 1.363 . S
C1528 H1531 0.929 . S
C1529 C1528 1.363 . S
C1529 C1535 1.428 . S
H1530 C1526 0.930 . S
H1531 C1528 0.929 . S
S1532 N1533 1.613 . S
S1532 N1534 1.610 . S
N1533 S1532 1.613 . S
N1533 C1536 1.350 . S
N1534 S1532 1.610 . S
N1534 C1535 1.351 . S
C1535 C1529 1.428 . S
C1535 N1534 1.351 . S
C1535 C1536 1.434 . S
C1536 C1527 1.429 . S
C1536 N1533 1.350 . S
C1536 C1535 1.434 . S
C1537 C1538 1.369 . S
C1537 C1539 1.419 . S
C1537 H1541 0.930 . S
C1538 C1537 1.369 . S
C1538 C1547 1.429 1_655 S
C1539 C1537 1.419 . S
C1539 C1540 1.363 . S
C1539 H1542 0.929 . S
C1540 C1539 1.363 . S
C1540 C1546 1.387 1_655 S
H1541 C1537 0.930 . S
H1542 C1539 0.929 . S
S1543 N1544 1.613 . S
S1543 N1545 1.610 . S
N1544 S1543 1.613 . S
N1544 C1547 1.350 . S
N1545 S1543 1.610 . S
N1545 C1546 1.393 . S
C1546 C1540 1.387 1_455 S
C1546 N1545 1.393 . S
C1546 C1547 1.439 . S
C1547 C1538 1.429 1_455 S
C1547 N1544 1.350 . S
C1547 C1546 1.439 . S
C1548 C1549 1.369 . S
C1548 C1550 1.419 . S
C1548 H1552 0.930 . S
C1549 C1548 1.369 . S
C1549 C1558 1.429 . S
C1550 C1548 1.419 . S
C1550 C1551 1.363 . S
C1550 H1553 0.929 . S
C1551 C1550 1.363 . S
C1551 C1557 1.428 . S
H1552 C1548 0.930 . S
H1553 C1550 0.929 . S
S1554 N1555 1.613 . S
S1554 N1556 1.610 . S
N1555 S1554 1.613 . S
N1555 C1558 1.350 . S
N1556 S1554 1.610 . S
N1556 C1557 1.351 . S
C1557 C1551 1.428 . S
C1557 N1556 1.351 . S
C1557 C1558 1.434 . S
C1558 C1549 1.429 . S
C1558 N1555 1.350 . S
C1558 C1557 1.434 . S
C1559 C1560 1.369 . S
C1559 C1561 1.419 . S
C1559 H1563 0.930 . S
C1560 C1559 1.369 . S
C1560 C1569 1.429 . S
C1561 C1559 1.419 . S
C1561 C1562 1.363 . S
C1561 H1564 0.929 . S
C1562 C1561 1.363 . S
C1562 C1568 1.428 . S
H1563 C1559 0.930 . S
H1564 C1561 0.929 . S
S1565 N1566 1.613 . S
S1565 N1567 1.610 . S
N1566 S1565 1.613 . S
N1566 C1569 1.350 . S
N1567 S1565 1.610 . S
N1567 C1568 1.351 . S
C1568 C1562 1.428 . S
C1568 N1567 1.351 . S
C1568 C1569 1.434 . S
C1569 C1560 1.429 . S
C1569 N1566 1.350 . S
C1569 C1568 1.434 . S
C1570 C1571 1.369 . S
C1570 C1572 1.419 . S
C1570 H1574 0.930 . S
C1571 C1570 1.369 . S
C1571 C1580 1.429 1_545 S
C1572 C1570 1.419 . S
C1572 C1573 1.363 . S
C1572 H1575 0.929 . S
C1573 C1572 1.363 . S
C1573 C1579 1.428 1_545 S
H1574 C1570 0.930 . S
H1575 C1572 0.929 . S
S1576 N1577 1.613 . S
S1576 N1578 1.610 . S
N1577 S1576 1.613 . S
N1577 C1580 1.350 . S
N1578 S1576 1.610 . S
N1578 C1579 1.351 . S
C1579 C1573 1.428 1_565 S
C1579 N1578 1.351 . S
C1579 C1580 1.434 . S
C1580 C1571 1.429 1_565 S
C1580 N1577 1.350 . S
C1580 C1579 1.434 . S
C1581 C1582 1.369 . S
C1581 C1583 1.419 . S
C1581 H1585 0.930 . S
C1582 C1581 1.369 . S
C1582 C1591 1.429 . S
C1583 C1581 1.419 . S
C1583 C1584 1.363 . S
C1583 H1586 0.929 . S
C1584 C1583 1.363 . S
C1584 C1590 1.428 1_565 S
H1585 C1581 0.930 . S
H1586 C1583 0.929 . S
S1587 N1588 1.613 . S
S1587 N1589 1.610 . S
N1588 S1587 1.613 . S
N1588 C1591 1.350 1_545 S
N1589 S1587 1.610 . S
N1589 C1590 1.351 . S
C1590 C1584 1.428 1_545 S
C1590 N1589 1.351 . S
C1590 C1591 1.434 1_545 S
C1591 C1582 1.429 . S
C1591 N1588 1.350 1_565 S
C1591 C1590 1.434 1_565 S
C1592 C1593 1.369 . S
C1592 C1594 1.419 . S
C1592 H1596 0.930 . S
C1593 C1592 1.369 . S
C1593 C1602 1.429 . S
C1594 C1592 1.419 . S
C1594 C1595 1.363 . S
C1594 H1597 0.929 . S
C1595 C1594 1.363 . S
C1595 C1601 1.428 . S
H1596 C1592 0.930 . S
H1597 C1594 0.929 . S
S1598 N1599 1.613 . S
S1598 N1600 1.610 . S
N1599 S1598 1.613 . S
N1599 C1602 1.350 . S
N1600 S1598 1.610 . S
N1600 C1601 1.351 . S
C1601 C1595 1.428 . S
C1601 N1600 1.351 . S
C1601 C1602 1.434 . S
C1602 C1593 1.429 . S
C1602 N1599 1.350 . S
C1602 C1601 1.434 . S
C1603 C1604 1.369 . S
C1603 C1605 1.419 . S
C1603 H1607 0.930 . S
C1604 C1603 1.369 . S
C1604 C1613 1.429 . S
C1605 C1603 1.419 . S
C1605 C1606 1.363 . S
C1605 H1608 0.929 . S
C1606 C1605 1.363 . S
C1606 C1612 1.428 . S
H1607 C1603 0.930 . S
H1608 C1605 0.929 . S
S1609 N1610 1.613 . S
S1609 N1611 1.610 . S
N1610 S1609 1.613 . S
N1610 C1613 1.350 1_554 S
N1611 S1609 1.610 . S
N1611 C1612 1.351 1_554 S
C1612 C1606 1.428 . S
C1612 N1611 1.351 1_556 S
C1612 C1613 1.434 . S
C1613 C1604 1.429 . S
C1613 N1610 1.350 1_556 S
C1613 C1612 1.434 . S
C1614 C1615 1.369 . S
C1614 C1616 1.419 . S
C1614 H1618 0.930 . S
C1615 C1614 1.369 . S
C1615 C1624 1.429 . S
C1616 C1614 1.419 . S
C1616 C1617 1.363 . S
C1616 H1619 0.929 . S
C1617 C1616 1.363 . S
C1617 C1623 1.428 . S
H1618 C1614 0.930 . S
H1619 C1616 0.929 . S
S1620 N1621 1.613 . S
S1620 N1622 1.610 . S
N1621 S1620 1.613 . S
N1621 C1624 1.350 . S
N1622 S1620 1.610 . S
N1622 C1623 1.351 . S
C1623 C1617 1.428 . S
C1623 N1622 1.351 . S
C1623 C1624 1.434 . S
C1624 C1615 1.429 . S
C1624 N1621 1.350 . S
C1624 C1623 1.434 . S
C1625 C1626 1.369 1_556 S
C1625 C1627 1.416 1_556 S
C1625 H1629 0.930 . S
C1626 C1625 1.369 1_554 S
C1626 C1635 1.429 . S
C1627 C1625 1.416 1_554 S
C1627 C1628 1.390 . S
C1627 H1630 0.904 1_554 S
C1628 C1627 1.390 . S
C1628 C1634 1.428 . S
H1629 C1625 0.930 . S
H1630 C1627 0.904 1_556 S
S1631 N1632 1.613 . S
S1631 N1633 1.610 . S
N1632 S1631 1.613 . S
N1632 C1635 1.350 . S
N1633 S1631 1.610 . S
N1633 C1634 1.351 . S
C1634 C1628 1.428 . S
C1634 N1633 1.351 . S
C1634 C1635 1.434 . S
C1635 C1626 1.429 . S
C1635 N1632 1.350 . S
C1635 C1634 1.434 . S
C1636 C1637 1.369 . S
C1636 C1638 1.419 . S
C1636 H1640 0.930 . S
C1637 C1636 1.369 . S
C1637 C1646 1.429 . S
C1638 C1636 1.419 . S
C1638 C1639 1.363 . S
C1638 H1641 0.929 . S
C1639 C1638 1.363 . S
C1639 C1645 1.428 . S
H1640 C1636 0.930 . S
H1641 C1638 0.929 . S
S1642 N1643 1.613 . S
S1642 N1644 1.610 . S
N1643 S1642 1.613 . S
N1643 C1646 1.350 . S
N1644 S1642 1.610 . S
N1644 C1645 1.351 . S
C1645 C1639 1.428 . S
C1645 N1644 1.351 . S
C1645 C1646 1.434 . S
C1646 C1637 1.429 . S
C1646 N1643 1.350 . S
C1646 C1645 1.434 . S
C1647 C1648 1.369 . S
C1647 C1649 1.419 . S
C1647 H1651 0.930 . S
C1648 C1647 1.369 . S
C1648 C1657 1.429 . S
C1649 C1647 1.419 . S
C1649 C1650 1.363 . S
C1649 H1652 0.929 . S
C1650 C1649 1.363 . S
C1650 C1656 1.403 1_655 S
H1651 C1647 0.930 . S
H1652 C1649 0.929 . S
S1653 N1654 1.613 . S
S1653 N1655 1.610 . S
N1654 S1653 1.613 . S
N1654 C1657 1.350 1_455 S
N1655 S1653 1.610 . S
N1655 C1656 1.385 . S
C1656 C1650 1.403 1_455 S
C1656 N1655 1.385 . S
C1656 C1657 1.427 1_455 S
C1657 C1648 1.429 . S
C1657 N1654 1.350 1_655 S
C1657 C1656 1.427 1_655 S
C1658 C1659 1.369 . S
C1658 C1660 1.419 . S
C1658 H1662 0.930 . S
C1659 C1658 1.369 . S
C1659 C1668 1.429 . S
C1660 C1658 1.419 . S
C1660 C1661 1.363 . S
C1660 H1663 0.929 . S
C1661 C1660 1.363 . S
C1661 C1667 1.428 . S
H1662 C1658 0.930 . S
H1663 C1660 0.929 . S
S1664 N1665 1.613 . S
S1664 N1666 1.610 . S
N1665 S1664 1.613 . S
N1665 C1668 1.350 . S
N1666 S1664 1.610 . S
N1666 C1667 1.351 . S
C1667 C1661 1.428 . S
C1667 N1666 1.351 . S
C1667 C1668 1.434 . S
C1668 C1659 1.429 . S
C1668 N1665 1.350 . S
C1668 C1667 1.434 . S
C1669 C1670 1.369 1_655 S
C1669 C1671 1.419 1_655 S
C1669 H1673 0.930 . S
C1670 C1669 1.369 1_455 S
C1670 C1679 1.429 . S
C1671 C1669 1.419 1_455 S
C1671 C1672 1.363 . S
C1671 H1674 0.929 1_455 S
C1672 C1671 1.363 . S
C1672 C1678 1.428 . S
H1673 C1669 0.930 . S
H1674 C1671 0.929 1_655 S
S1675 N1676 1.613 . S
S1675 N1677 1.610 . S
N1676 S1675 1.613 . S
N1676 C1679 1.350 . S
N1677 S1675 1.610 . S
N1677 C1678 1.351 . S
C1678 C1672 1.428 . S
C1678 N1677 1.351 . S
C1678 C1679 1.434 . S
C1679 C1670 1.429 . S
C1679 N1676 1.350 . S
C1679 C1678 1.434 . S
C1680 C1681 1.369 . S
C1680 C1682 1.419 . S
C1680 H1684 0.930 . S
C1681 C1680 1.369 . S
C1681 C1690 1.429 . S
C1682 C1680 1.419 . S
C1682 C1683 1.363 . S
C1682 H1685 0.929 . S
C1683 C1682 1.363 . S
C1683 C1689 1.428 . S
H1684 C1680 0.930 . S
H1685 C1682 0.929 . S
S1686 N1687 1.613 . S
S1686 N1688 1.610 . S
N1687 S1686 1.613 . S
N1687 C1690 1.350 . S
N1688 S1686 1.610 . S
N1688 C1689 1.351 . S
C1689 C1683 1.428 . S
C1689 N1688 1.351 . S
C1689 C1690 1.434 . S
C1690 C1681 1.429 . S
C1690 N1687 1.350 . S
C1690 C1689 1.434 . S
C1691 C1692 1.369 . S
C1691 C1693 1.419 . S
C1691 H1695 0.930 . S
C1692 C1691 1.369 . S
C1692 C1701 1.429 . S
C1693 C1691 1.419 . S
C1693 C1694 1.363 . S
C1693 H1696 0.929 . S
C1694 C1693 1.363 . S
C1694 C1700 1.428 . S
H1695 C1691 0.930 . S
H1696 C1693 0.929 . S
S1697 N1698 1.613 . S
S1697 N1699 1.610 . S
N1698 S1697 1.613 . S
N1698 C1701 1.350 . S
N1699 S1697 1.610 . S
N1699 C1700 1.351 . S
C1700 C1694 1.428 . S
C1700 N1699 1.351 . S
C1700 C1701 1.434 . S
C1701 C1692 1.429 . S
C1701 N1698 1.350 . S
C1701 C1700 1.434 . S
C1702 C1703 1.369 . S
C1702 C1704 1.419 . S
C1702 H1706 0.930 1_545 S
C1703 C1702 1.369 . S
C1703 C1712 1.429 . S
C1704 C1702 1.419 . S
C1704 C1705 1.363 . S
C1704 H1707 0.929 . S
C1705 C1704 1.363 . S
C1705 C1711 1.428 . S
H1706 C1702 0.930 1_565 S
H1707 C1704 0.929 . S
S1708 N1709 1.613 . S
S1708 N1710 1.610 . S
N1709 S1708 1.613 . S
N1709 C1712 1.350 . S
N1710 S1708 1.610 . S
N1710 C1711 1.351 . S
C1711 C1705 1.428 . S
C1711 N1710 1.351 . S
C1711 C1712 1.434 . S
C1712 C1703 1.429 . S
C1712 N1709 1.350 . S
C1712 C1711 1.434 . S
C1713 C1714 1.369 . S
C1713 C1715 1.419 . S
C1713 H1717 0.930 . S
C1714 C1713 1.369 . S
C1714 C1723 1.429 . S
C1715 C1713 1.419 . S
C1715 C1716 1.363 . S
C1715 H1718 0.929 . S
C1716 C1715 1.363 . S
C1716 C1722 1.428 . S
H1717 C1713 0.930 . S
H1718 C1715 0.929 . S
S1719 N1720 1.613 . S
S1719 N1721 1.610 . S
N1720 S1719 1.613 . S
N1720 C1723 1.350 . S
N1721 S1719 1.610 . S
N1721 C1722 1.351 . S
C1722 C1716 1.428 . S
C1722 N1721 1.351 . S
C1722 C1723 1.434 . S
C1723 C1714 1.429 . S
C1723 N1720 1.350 . S
C1723 C1722 1.434 . S
C1724 C1725 1.369 . S
C1724 C1726 1.419 . S
C1724 H1728 0.930 . S
C1725 C1724 1.369 . S
C1725 C1734 1.429 . S
C1726 C1724 1.419 . S
C1726 C1727 1.363 . S
C1726 H1729 0.929 . S
C1727 C1726 1.363 . S
C1727 C1733 1.428 . S
H1728 C1724 0.930 . S
H1729 C1726 0.929 . S
S1730 N1731 1.613 . S
S1730 N1732 1.610 . S
N1731 S1730 1.613 . S
N1731 C1734 1.350 . S
N1732 S1730 1.610 . S
N1732 C1733 1.351 . S
C1733 C1727 1.428 . S
C1733 N1732 1.351 . S
C1733 C1734 1.434 . S
C1734 C1725 1.429 . S
C1734 N1731 1.350 . S
C1734 C1733 1.434 . S
C1735 C1736 1.369 . S
C1735 C1737 1.419 . S
C1735 H1739 0.930 . S
C1736 C1735 1.369 . S
C1736 C1745 1.429 . S
C1737 C1735 1.419 . S
C1737 C1738 1.363 . S
C1737 H1740 0.929 . S
C1738 C1737 1.363 . S
C1738 C1744 1.428 . S
H1739 C1735 0.930 . S
H1740 C1737 0.929 . S
S1741 N1742 1.613 . S
S1741 N1743 1.610 . S
N1742 S1741 1.613 . S
N1742 C1745 1.350 . S
N1743 S1741 1.610 . S
N1743 C1744 1.351 . S
C1744 C1738 1.428 . S
C1744 N1743 1.351 . S
C1744 C1745 1.434 . S
C1745 C1736 1.429 . S
C1745 N1742 1.350 . S
C1745 C1744 1.434 . S
C1746 C1747 1.369 . S
C1746 C1748 1.419 . S
C1746 H1750 0.930 . S
C1747 C1746 1.369 . S
C1747 C1756 1.429 . S
C1748 C1746 1.419 . S
C1748 C1749 1.363 . S
C1748 H1751 0.929 . S
C1749 C1748 1.363 . S
C1749 C1755 1.428 . S
H1750 C1746 0.930 . S
H1751 C1748 0.929 . S
S1752 N1753 1.613 . S
S1752 N1754 1.610 . S
N1753 S1752 1.613 . S
N1753 C1756 1.350 . S
N1754 S1752 1.610 . S
N1754 C1755 1.351 . S
C1755 C1749 1.428 . S
C1755 N1754 1.351 . S
C1755 C1756 1.434 . S
C1756 C1747 1.429 . S
C1756 N1753 1.350 . S
C1756 C1755 1.434 . S
C1757 C1758 1.369 . S
C1757 C1759 1.419 . S
C1757 H1761 0.930 . S
C1758 C1757 1.369 . S
C1758 C1767 1.429 . S
C1759 C1757 1.419 . S
C1759 C1760 1.363 . S
C1759 H1762 0.929 . S
C1760 C1759 1.363 . S
C1760 C1766 1.428 . S
H1761 C1757 0.930 . S
H1762 C1759 0.929 . S
S1763 N1764 1.613 . S
S1763 N1765 1.610 . S
N1764 S1763 1.613 . S
N1764 C1767 1.350 . S
N1765 S1763 1.610 . S
N1765 C1766 1.351 . S
C1766 C1760 1.428 . S
C1766 N1765 1.351 . S
C1766 C1767 1.434 . S
C1767 C1758 1.429 . S
C1767 N1764 1.350 . S
C1767 C1766 1.434 . S
C1768 C1769 1.369 . S
C1768 C1770 1.419 . S
C1768 H1772 0.930 . S
C1769 C1768 1.369 . S
C1769 C1778 1.429 . S
C1770 C1768 1.419 . S
C1770 C1771 1.363 . S
C1770 H1773 0.929 . S
C1771 C1770 1.363 . S
C1771 C1777 1.428 . S
H1772 C1768 0.930 . S
H1773 C1770 0.929 . S
S1774 N1775 1.613 . S
S1774 N1776 1.610 . S
N1775 S1774 1.613 . S
N1775 C1778 1.350 . S
N1776 S1774 1.610 . S
N1776 C1777 1.351 . S
C1777 C1771 1.428 . S
C1777 N1776 1.351 . S
C1777 C1778 1.434 . S
C1778 C1769 1.429 . S
C1778 N1775 1.350 . S
C1778 C1777 1.434 . S
C1779 C1780 1.369 . S
C1779 C1781 1.419 . S
C1779 H1783 0.930 . S
C1780 C1779 1.369 . S
C1780 C1789 1.429 . S
C1781 C1779 1.419 . S
C1781 C1782 1.363 . S
C1781 H1784 0.929 . S
C1782 C1781 1.363 . S
C1782 C1788 1.428 . S
H1783 C1779 0.930 . S
H1784 C1781 0.929 . S
S1785 N1786 1.613 . S
S1785 N1787 1.610 . S
N1786 S1785 1.613 . S
N1786 C1789 1.350 . S
N1787 S1785 1.610 . S
N1787 C1788 1.351 . S
C1788 C1782 1.428 . S
C1788 N1787 1.351 . S
C1788 C1789 1.434 . S
C1789 C1780 1.429 . S
C1789 N1786 1.350 . S
C1789 C1788 1.434 . S
C1790 C1791 1.369 . S
C1790 C1792 1.419 . S
C1790 H1794 0.930 . S
C1791 C1790 1.369 . S
C1791 C1800 1.429 . S
C1792 C1790 1.419 . S
C1792 C1793 1.363 . S
C1792 H1795 0.929 . S
C1793 C1792 1.363 . S
C1793 C1799 1.428 . S
H1794 C1790 0.930 . S
H1795 C1792 0.929 . S
S1796 N1797 1.613 . S
S1796 N1798 1.610 . S
N1797 S1796 1.613 . S
N1797 C1800 1.350 . S
N1798 S1796 1.610 . S
N1798 C1799 1.351 . S
C1799 C1793 1.428 . S
C1799 N1798 1.351 . S
C1799 C1800 1.434 . S
C1800 C1791 1.429 . S
C1800 N1797 1.350 . S
C1800 C1799 1.434 . S
C1801 C1802 1.369 . S
C1801 C1803 1.419 . S
C1801 H1805 0.930 . S
C1802 C1801 1.369 . S
C1802 C1811 1.429 . S
C1803 C1801 1.419 . S
C1803 C1804 1.363 . S
C1803 H1806 0.929 . S
C1804 C1803 1.363 . S
C1804 C1810 1.428 . S
H1805 C1801 0.930 . S
H1806 C1803 0.929 . S
S1807 N1808 1.613 . S
S1807 N1809 1.610 . S
N1808 S1807 1.613 . S
N1808 C1811 1.350 . S
N1809 S1807 1.610 . S
N1809 C1810 1.351 . S
C1810 C1804 1.428 . S
C1810 N1809 1.351 . S
C1810 C1811 1.434 . S
C1811 C1802 1.429 . S
C1811 N1808 1.350 . S
C1811 C1810 1.434 . S
C1812 C1813 1.369 . S
C1812 C1814 1.419 . S
C1812 H1816 0.930 . S
C1813 C1812 1.369 . S
C1813 C1822 1.429 . S
C1814 C1812 1.419 . S
C1814 C1815 1.363 . S
C1814 H1817 0.929 . S
C1815 C1814 1.363 . S
C1815 C1821 1.428 . S
H1816 C1812 0.930 . S
H1817 C1814 0.929 . S
S1818 N1819 1.613 . S
S1818 N1820 1.610 . S
N1819 S1818 1.613 . S
N1819 C1822 1.350 . S
N1820 S1818 1.610 . S
N1820 C1821 1.351 . S
C1821 C1815 1.428 . S
C1821 N1820 1.351 . S
C1821 C1822 1.434 . S
C1822 C1813 1.429 . S
C1822 N1819 1.350 . S
C1822 C1821 1.434 . S
C1823 C1824 1.369 . S
C1823 C1825 1.419 . S
C1823 H1827 0.930 . S
C1824 C1823 1.369 . S
C1824 C1833 1.429 . S
C1825 C1823 1.419 . S
C1825 C1826 1.363 . S
C1825 H1828 0.929 . S
C1826 C1825 1.363 . S
C1826 C1832 1.428 . S
H1827 C1823 0.930 . S
H1828 C1825 0.929 . S
S1829 N1830 1.613 . S
S1829 N1831 1.610 . S
N1830 S1829 1.613 . S
N1830 C1833 1.350 . S
N1831 S1829 1.610 . S
N1831 C1832 1.351 . S
C1832 C1826 1.428 . S
C1832 N1831 1.351 . S
C1832 C1833 1.434 . S
C1833 C1824 1.429 . S
C1833 N1830 1.350 . S
C1833 C1832 1.434 . S
C1834 C1835 1.369 . S
C1834 C1836 1.419 . S
C1834 H1838 0.930 . S
C1835 C1834 1.369 . S
C1835 C1844 1.429 . S
C1836 C1834 1.419 . S
C1836 C1837 1.363 . S
C1836 H1839 0.929 . S
C1837 C1836 1.363 . S
C1837 C1843 1.428 . S
H1838 C1834 0.930 . S
H1839 C1836 0.929 . S
S1840 N1841 1.613 . S
S1840 N1842 1.610 . S
N1841 S1840 1.613 . S
N1841 C1844 1.350 . S
N1842 S1840 1.610 . S
N1842 C1843 1.351 . S
C1843 C1837 1.428 . S
C1843 N1842 1.351 . S
C1843 C1844 1.434 . S
C1844 C1835 1.429 . S
C1844 N1841 1.350 . S
C1844 C1843 1.434 . S
C1845 C1846 1.369 . S
C1845 C1847 1.419 . S
C1845 H1849 0.930 . S
C1846 C1845 1.369 . S
C1846 C1855 1.429 . S
C1847 C1845 1.419 . S
C1847 C1848 1.363 . S
C1847 H1850 0.929 . S
C1848 C1847 1.363 . S
C1848 C1854 1.428 . S
H1849 C1845 0.930 . S
H1850 C1847 0.929 . S
S1851 N1852 1.613 . S
S1851 N1853 1.610 . S
N1852 S1851 1.613 . S
N1852 C1855 1.350 . S
N1853 S1851 1.610 . S
N1853 C1854 1.351 . S
C1854 C1848 1.428 . S
C1854 N1853 1.351 . S
C1854 C1855 1.434 . S
C1855 C1846 1.429 . S
C1855 N1852 1.350 . S
C1855 C1854 1.434 . S
C1856 C1857 1.369 . S
C1856 C1858 1.419 . S
C1856 H1860 0.930 . S
C1857 C1856 1.369 . S
C1857 C1866 1.429 . S
C1858 C1856 1.419 . S
C1858 C1859 1.363 . S
C1858 H1861 0.929 . S
C1859 C1858 1.363 . S
C1859 C1865 1.428 . S
H1860 C1856 0.930 . S
H1861 C1858 0.929 . S
S1862 N1863 1.613 . S
S1862 N1864 1.610 . S
N1863 S1862 1.613 . S
N1863 C1866 1.350 . S
N1864 S1862 1.610 . S
N1864 C1865 1.351 . S
C1865 C1859 1.428 . S
C1865 N1864 1.351 . S
C1865 C1866 1.434 . S
C1866 C1857 1.429 . S
C1866 N1863 1.350 . S
C1866 C1865 1.434 . S
C1867 C1868 1.369 . S
C1867 C1869 1.419 . S
C1867 H1871 0.930 . S
C1868 C1867 1.369 . S
C1868 C1877 1.429 . S
C1869 C1867 1.419 . S
C1869 C1870 1.363 . S
C1869 H1872 0.929 . S
C1870 C1869 1.363 . S
C1870 C1876 1.428 . S
H1871 C1867 0.930 . S
H1872 C1869 0.929 . S
S1873 N1874 1.613 . S
S1873 N1875 1.610 . S
N1874 S1873 1.613 . S
N1874 C1877 1.350 . S
N1875 S1873 1.610 . S
N1875 C1876 1.351 . S
C1876 C1870 1.428 . S
C1876 N1875 1.351 . S
C1876 C1877 1.434 . S
C1877 C1868 1.429 . S
C1877 N1874 1.350 . S
C1877 C1876 1.434 . S
C1878 C1879 1.369 . S
C1878 C1880 1.419 . S
C1878 H1882 0.930 . S
C1879 C1878 1.369 . S
C1879 C1888 1.429 . S
C1880 C1878 1.419 . S
C1880 C1881 1.363 . S
C1880 H1883 0.956 . S
C1881 C1880 1.363 . S
C1881 C1887 1.428 . S
H1882 C1878 0.930 . S
H1883 C1880 0.956 . S
S1884 N1885 1.613 . S
S1884 N1886 1.610 . S
N1885 S1884 1.613 . S
N1885 C1888 1.350 . S
N1886 S1884 1.610 . S
N1886 C1887 1.351 . S
C1887 C1881 1.428 . S
C1887 N1886 1.351 . S
C1887 C1888 1.434 . S
C1888 C1879 1.429 . S
C1888 N1885 1.350 . S
C1888 C1887 1.434 . S
C1889 C1890 1.369 . S
C1889 C1891 1.419 . S
C1889 H1893 0.930 . S
C1890 C1889 1.369 . S
C1890 C1899 1.429 . S
C1891 C1889 1.419 . S
C1891 C1892 1.363 . S
C1891 H1894 0.929 . S
C1892 C1891 1.363 . S
C1892 C1898 1.428 . S
H1893 C1889 0.930 . S
H1894 C1891 0.929 . S
S1895 N1896 1.613 . S
S1895 N1897 1.607 1_554 S
N1896 S1895 1.613 . S
N1896 C1899 1.350 1_554 S
N1897 S1895 1.607 1_556 S
N1897 C1898 1.353 . S
C1898 C1892 1.428 . S
C1898 N1897 1.353 . S
C1898 C1899 1.434 . S
C1899 C1890 1.429 . S
C1899 N1896 1.350 1_556 S
C1899 C1898 1.434 . S
C1900 C1901 1.369 . S
C1900 C1902 1.419 . S
C1900 H1904 0.930 . S
C1901 C1900 1.369 . S
C1901 C1910 1.429 . S
C1902 C1900 1.419 . S
C1902 C1903 1.363 . S
C1902 H1905 0.929 . S
C1903 C1902 1.363 . S
C1903 C1909 1.428 . S
H1904 C1900 0.930 . S
H1905 C1902 0.929 . S
S1906 N1907 1.613 . S
S1906 N1908 1.610 . S
N1907 S1906 1.613 . S
N1907 C1910 1.350 . S
N1908 S1906 1.610 . S
N1908 C1909 1.351 . S
C1909 C1903 1.428 . S
C1909 N1908 1.351 . S
C1909 C1910 1.434 . S
C1910 C1901 1.429 . S
C1910 N1907 1.350 . S
C1910 C1909 1.434 . S
C1911 C1912 1.369 . S
C1911 C1913 1.419 . S
C1911 H1915 0.930 . S
C1912 C1911 1.369 . S
C1912 C1921 1.429 . S
C1913 C1911 1.419 . S
C1913 C1914 1.363 . S
C1913 H1916 0.929 . S
C1914 C1913 1.363 . S
C1914 C1920 1.428 . S
H1915 C1911 0.930 . S
H1916 C1913 0.929 . S
S1917 N1918 1.613 . S
S1917 N1919 1.610 . S
N1918 S1917 1.613 . S
N1918 C1921 1.350 . S
N1919 S1917 1.610 . S
N1919 C1920 1.351 . S
C1920 C1914 1.428 . S
C1920 N1919 1.351 . S
C1920 C1921 1.434 . S
C1921 C1912 1.429 . S
C1921 N1918 1.350 . S
C1921 C1920 1.434 . S
C1922 C1923 1.369 . S
C1922 C1924 1.419 . S
C1922 H1926 0.930 . S
C1923 C1922 1.369 . S
C1923 C1932 1.429 . S
C1924 C1922 1.419 . S
C1924 C1925 1.363 . S
C1924 H1927 0.929 . S
C1925 C1924 1.363 . S
C1925 C1931 1.428 . S
H1926 C1922 0.930 . S
H1927 C1924 0.929 . S
S1928 N1929 1.613 . S
S1928 N1930 1.610 . S
N1929 S1928 1.613 . S
N1929 C1932 1.350 . S
N1930 S1928 1.610 . S
N1930 C1931 1.351 . S
C1931 C1925 1.428 . S
C1931 N1930 1.351 . S
C1931 C1932 1.434 . S
C1932 C1923 1.429 . S
C1932 N1929 1.350 . S
C1932 C1931 1.434 . S
C1933 C1934 1.369 . S
C1933 C1935 1.419 . S
C1933 H1937 0.930 1_655 S
C1934 C1933 1.369 . S
C1934 C1943 1.429 . S
C1935 C1933 1.419 . S
C1935 C1936 1.363 . S
C1935 H1938 0.929 . S
C1936 C1935 1.363 . S
C1936 C1942 1.428 . S
H1937 C1933 0.930 1_455 S
H1938 C1935 0.929 . S
S1939 N1940 1.613 . S
S1939 N1941 1.610 . S
N1940 S1939 1.613 . S
N1940 C1943 1.350 . S
N1941 S1939 1.610 . S
N1941 C1942 1.351 . S
C1942 C1936 1.428 . S
C1942 N1941 1.351 . S
C1942 C1943 1.434 . S
C1943 C1934 1.429 . S
C1943 N1940 1.350 . S
C1943 C1942 1.434 . S
C1944 C1945 1.369 . S
C1944 C1946 1.419 . S
C1944 H1948 0.930 . S
C1945 C1944 1.369 . S
C1945 C1954 1.429 . S
C1946 C1944 1.419 . S
C1946 C1947 1.363 . S
C1946 H1949 0.929 . S
C1947 C1946 1.363 . S
C1947 C1953 1.428 . S
H1948 C1944 0.930 . S
H1949 C1946 0.929 . S
S1950 N1951 1.613 . S
S1950 N1952 1.610 . S
N1951 S1950 1.613 . S
N1951 C1954 1.350 . S
N1952 S1950 1.610 . S
N1952 C1953 1.351 . S
C1953 C1947 1.428 . S
C1953 N1952 1.351 . S
C1953 C1954 1.434 . S
C1954 C1945 1.429 . S
C1954 N1951 1.350 . S
C1954 C1953 1.434 . S
C1955 C1956 1.369 . S
C1955 C1957 1.419 . S
C1955 H1959 0.930 . S
C1956 C1955 1.369 . S
C1956 C1965 1.429 . S
C1957 C1955 1.419 . S
C1957 C1958 1.363 . S
C1957 H1960 0.929 . S
C1958 C1957 1.363 . S
C1958 C1964 1.428 . S
H1959 C1955 0.930 . S
H1960 C1957 0.929 . S
S1961 N1962 1.613 . S
S1961 N1963 1.610 . S
N1962 S1961 1.613 . S
N1962 C1965 1.350 . S
N1963 S1961 1.610 . S
N1963 C1964 1.351 . S
C1964 C1958 1.428 . S
C1964 N1963 1.351 . S
C1964 C1965 1.434 . S
C1965 C1956 1.429 . S
C1965 N1962 1.350 . S
C1965 C1964 1.434 . S
C1966 C1967 1.369 . S
C1966 C1968 1.419 . S
C1966 H1970 0.930 1_565 S
C1967 C1966 1.369 . S
C1967 C1976 1.429 . S
C1968 C1966 1.419 . S
C1968 C1969 1.363 . S
C1968 H1971 0.917 1_565 S
C1969 C1968 1.363 . S
C1969 C1975 1.428 . S
H1970 C1966 0.930 1_545 S
H1971 C1968 0.917 1_545 S
S1972 N1973 1.613 . S
S1972 N1974 1.610 . S
N1973 S1972 1.613 . S
N1973 C1976 1.350 . S
N1974 S1972 1.610 . S
N1974 C1975 1.351 . S
C1975 C1969 1.428 . S
C1975 N1974 1.351 . S
C1975 C1976 1.434 . S
C1976 C1967 1.429 . S
C1976 N1973 1.350 . S
C1976 C1975 1.434 . S
C1977 C1978 1.369 . S
C1977 C1979 1.419 1_545 S
C1977 H1981 0.930 1_545 S
C1978 C1977 1.369 . S
C1978 C1987 1.429 . S
C1979 C1977 1.419 1_565 S
C1979 C1980 1.363 1_565 S
C1979 H1982 0.929 . S
C1980 C1979 1.363 1_545 S
C1980 C1986 1.428 . S
H1981 C1977 0.930 1_565 S
H1982 C1979 0.929 . S
S1983 N1984 1.613 . S
S1983 N1985 1.610 . S
N1984 S1983 1.613 . S
N1984 C1987 1.350 . S
N1985 S1983 1.610 . S
N1985 C1986 1.351 . S
C1986 C1980 1.428 . S
C1986 N1985 1.351 . S
C1986 C1987 1.434 . S
C1987 C1978 1.429 . S
C1987 N1984 1.350 . S
C1987 C1986 1.434 . S
C1988 C1989 1.369 . S
C1988 C1990 1.419 . S
C1988 H1992 0.930 . S
C1989 C1988 1.369 . S
C1989 C1998 1.429 . S
C1990 C1988 1.419 . S
C1990 C1991 1.363 . S
C1990 H1993 0.929 . S
C1991 C1990 1.363 . S
C1991 C1997 1.428 . S
H1992 C1988 0.930 . S
H1993 C1990 0.929 . S
S1994 N1995 1.613 . S
S1994 N1996 1.610 . S
N1995 S1994 1.613 . S
N1995 C1998 1.350 . S
N1996 S1994 1.610 . S
N1996 C1997 1.351 . S
C1997 C1991 1.428 . S
C1997 N1996 1.351 . S
C1997 C1998 1.434 . S
C1998 C1989 1.429 . S
C1998 N1995 1.350 . S
C1998 C1997 1.434 . S
C1999 C2000 1.369 . S
C1999 C2001 1.419 1_554 S
C1999 H2003 0.930 1_554 S
C2000 C1999 1.369 . S
C2000 C2009 1.429 . S
C2001 C1999 1.419 1_556 S
C2001 C2002 1.363 1_556 S
C2001 H2004 0.929 . S
C2002 C2001 1.363 1_554 S
C2002 C2008 1.428 . S
H2003 C1999 0.930 1_556 S
H2004 C2001 0.929 . S
S2005 N2006 1.613 . S
S2005 N2007 1.610 . S
N2006 S2005 1.613 . S
N2006 C2009 1.350 . S
N2007 S2005 1.610 . S
N2007 C2008 1.351 . S
C2008 C2002 1.428 . S
C2008 N2007 1.351 . S
C2008 C2009 1.434 . S
C2009 C2000 1.429 . S
C2009 N2006 1.350 . S
C2009 C2008 1.434 . S
C2010 C2011 1.369 . S
C2010 C2012 1.419 . S
C2010 H2014 0.930 . S
C2011 C2010 1.369 . S
C2011 C2020 1.429 . S
C2012 C2010 1.419 . S
C2012 C2013 1.363 . S
C2012 H2015 0.929 . S
C2013 C2012 1.363 . S
C2013 C2019 1.428 . S
H2014 C2010 0.930 . S
H2015 C2012 0.929 . S
S2016 N2017 1.613 . S
S2016 N2018 1.610 . S
N2017 S2016 1.613 . S
N2017 C2020 1.350 . S
N2018 S2016 1.610 . S
N2018 C2019 1.351 . S
C2019 C2013 1.428 . S
C2019 N2018 1.351 . S
C2019 C2020 1.434 . S
C2020 C2011 1.429 . S
C2020 N2017 1.350 . S
C2020 C2019 1.434 . S
C2021 C2022 1.369 . S
C2021 C2023 1.419 . S
C2021 H2025 0.930 1_556 S
C2022 C2021 1.369 . S
C2022 C2031 1.429 . S
C2023 C2021 1.419 . S
C2023 C2024 1.363 . S
C2023 H2026 0.929 1_556 S
C2024 C2023 1.363 . S
C2024 C2030 1.428 . S
H2025 C2021 0.930 1_554 S
H2026 C2023 0.929 1_554 S
S2027 N2028 1.613 . S
S2027 N2029 1.610 . S
N2028 S2027 1.613 . S
N2028 C2031 1.350 . S
N2029 S2027 1.610 . S
N2029 C2030 1.351 . S
C2030 C2024 1.428 . S
C2030 N2029 1.351 . S
C2030 C2031 1.434 . S
C2031 C2022 1.429 . S
C2031 N2028 1.350 . S
C2031 C2030 1.434 . S
C2032 C2033 1.369 . S
C2032 C2034 1.419 . S
C2032 H2036 0.930 . S
C2033 C2032 1.369 . S
C2033 C2042 1.429 . S
C2034 C2032 1.419 . S
C2034 C2035 1.363 . S
C2034 H2037 0.929 . S
C2035 C2034 1.363 . S
C2035 C2041 1.428 . S
H2036 C2032 0.930 . S
H2037 C2034 0.929 . S
S2038 N2039 1.613 . S
S2038 N2040 1.610 . S
N2039 S2038 1.613 . S
N2039 C2042 1.350 . S
N2040 S2038 1.610 . S
N2040 C2041 1.351 . S
C2041 C2035 1.428 . S
C2041 N2040 1.351 . S
C2041 C2042 1.434 . S
C2042 C2033 1.429 . S
C2042 N2039 1.350 . S
C2042 C2041 1.434 . S
C2043 C2044 1.369 . S
C2043 C2045 1.419 . S
C2043 H2047 0.930 . S
C2044 C2043 1.369 . S
C2044 C2053 1.429 . S
C2045 C2043 1.419 . S
C2045 C2046 1.363 . S
C2045 H2048 0.929 . S
C2046 C2045 1.363 . S
C2046 C2052 1.428 . S
H2047 C2043 0.930 . S
H2048 C2045 0.929 . S
S2049 N2050 1.613 1_655 S
S2049 N2051 1.610 . S
N2050 S2049 1.613 1_455 S
N2050 C2053 1.350 . S
N2051 S2049 1.610 . S
N2051 C2052 1.351 1_655 S
C2052 C2046 1.428 . S
C2052 N2051 1.351 1_455 S
C2052 C2053 1.434 . S
C2053 C2044 1.429 . S
C2053 N2050 1.350 . S
C2053 C2052 1.434 . S
C2054 C2055 1.369 . S
C2054 C2056 1.419 . S
C2054 H2058 0.930 . S
C2055 C2054 1.369 . S
C2055 C2064 1.429 . S
C2056 C2054 1.419 . S
C2056 C2057 1.363 . S
C2056 H2059 0.929 . S
C2057 C2056 1.363 . S
C2057 C2063 1.428 . S
H2058 C2054 0.930 . S
H2059 C2056 0.929 . S
S2060 N2061 1.613 . S
S2060 N2062 1.610 . S
N2061 S2060 1.613 . S
N2061 C2064 1.350 . S
N2062 S2060 1.610 . S
N2062 C2063 1.351 . S
C2063 C2057 1.428 . S
C2063 N2062 1.351 . S
C2063 C2064 1.434 . S
C2064 C2055 1.429 . S
C2064 N2061 1.350 . S
C2064 C2063 1.434 . S
C2065 C2066 1.369 . S
C2065 C2067 1.419 . S
C2065 H2069 0.930 . S
C2066 C2065 1.369 . S
C2066 C2075 1.429 . S
C2067 C2065 1.419 . S
C2067 C2068 1.363 . S
C2067 H2070 0.929 . S
C2068 C2067 1.363 . S
C2068 C2074 1.428 . S
H2069 C2065 0.930 . S
H2070 C2067 0.929 . S
S2071 N2072 1.613 . S
S2071 N2073 1.610 . S
N2072 S2071 1.613 . S
N2072 C2075 1.350 . S
N2073 S2071 1.610 . S
N2073 C2074 1.351 . S
C2074 C2068 1.428 . S
C2074 N2073 1.351 . S
C2074 C2075 1.434 . S
C2075 C2066 1.429 . S
C2075 N2072 1.350 . S
C2075 C2074 1.434 . S
C2076 C2077 1.369 . S
C2076 C2078 1.419 . S
C2076 H2080 0.930 . S
C2077 C2076 1.369 . S
C2077 C2086 1.429 . S
C2078 C2076 1.419 . S
C2078 C2079 1.363 . S
C2078 H2081 0.929 . S
C2079 C2078 1.363 . S
C2079 C2085 1.428 . S
H2080 C2076 0.930 . S
H2081 C2078 0.929 . S
S2082 N2083 1.613 . S
S2082 N2084 1.610 . S
N2083 S2082 1.613 . S
N2083 C2086 1.350 . S
N2084 S2082 1.610 . S
N2084 C2085 1.351 . S
C2085 C2079 1.428 . S
C2085 N2084 1.351 . S
C2085 C2086 1.434 . S
C2086 C2077 1.429 . S
C2086 N2083 1.350 . S
C2086 C2085 1.434 . S
C2087 C2088 1.369 . S
C2087 C2089 1.419 . S
C2087 H2091 0.930 . S
C2088 C2087 1.369 . S
C2088 C2097 1.429 . S
C2089 C2087 1.419 . S
C2089 C2090 1.363 . S
C2089 H2092 0.929 . S
C2090 C2089 1.363 . S
C2090 C2096 1.428 . S
H2091 C2087 0.930 . S
H2092 C2089 0.929 . S
S2093 N2094 1.613 . S
S2093 N2095 1.610 . S
N2094 S2093 1.613 . S
N2094 C2097 1.350 . S
N2095 S2093 1.610 . S
N2095 C2096 1.351 . S
C2096 C2090 1.428 . S
C2096 N2095 1.351 . S
C2096 C2097 1.434 . S
C2097 C2088 1.429 . S
C2097 N2094 1.350 . S
C2097 C2096 1.434 . S
C2098 C2099 1.369 . S
C2098 C2100 1.419 . S
C2098 H2102 0.930 . S
C2099 C2098 1.369 . S
C2099 C2108 1.429 . S
C2100 C2098 1.419 . S
C2100 C2101 1.363 . S
C2100 H2103 0.929 . S
C2101 C2100 1.363 . S
C2101 C2107 1.428 . S
H2102 C2098 0.930 . S
H2103 C2100 0.929 . S
S2104 N2105 1.613 . S
S2104 N2106 1.610 . S
N2105 S2104 1.613 . S
N2105 C2108 1.350 . S
N2106 S2104 1.610 . S
N2106 C2107 1.351 . S
C2107 C2101 1.428 . S
C2107 N2106 1.351 . S
C2107 C2108 1.434 . S
C2108 C2099 1.429 . S
C2108 N2105 1.350 . S
C2108 C2107 1.434 . S
C2109 C2110 1.369 . S
C2109 C2111 1.419 . S
C2109 H2113 0.930 . S
C2110 C2109 1.369 . S
C2110 C2119 1.429 . S
C2111 C2109 1.419 . S
C2111 C2112 1.363 . S
C2111 H2114 0.929 . S
C2112 C2111 1.363 . S
C2112 C2118 1.428 . S
H2113 C2109 0.930 . S
H2114 C2111 0.929 . S
S2115 N2116 1.613 . S
S2115 N2117 1.610 . S
N2116 S2115 1.613 . S
N2116 C2119 1.350 . S
N2117 S2115 1.610 . S
N2117 C2118 1.351 . S
C2118 C2112 1.428 . S
C2118 N2117 1.351 . S
C2118 C2119 1.434 . S
C2119 C2110 1.429 . S
C2119 N2116 1.350 . S
C2119 C2118 1.434 . S
C2120 C2121 1.369 . S
C2120 C2122 1.419 . S
C2120 H2124 0.930 . S
C2121 C2120 1.369 . S
C2121 C2130 1.429 . S
C2122 C2120 1.419 . S
C2122 C2123 1.363 . S
C2122 H2125 0.929 . S
C2123 C2122 1.363 . S
C2123 C2129 1.428 . S
H2124 C2120 0.930 . S
H2125 C2122 0.929 . S
S2126 N2127 1.613 . S
S2126 N2128 1.610 . S
N2127 S2126 1.613 . S
N2127 C2130 1.350 . S
N2128 S2126 1.610 . S
N2128 C2129 1.351 . S
C2129 C2123 1.428 . S
C2129 N2128 1.351 . S
C2129 C2130 1.434 . S
C2130 C2121 1.429 . S
C2130 N2127 1.350 . S
C2130 C2129 1.434 . S
C2131 C2132 1.369 . S
C2131 C2133 1.414 1_556 S
C2131 H2135 0.930 1_556 S
C2132 C2131 1.369 . S
C2132 C2141 1.429 . S
C2133 C2131 1.414 1_554 S
C2133 C2134 1.350 1_554 S
C2133 H2136 0.949 . S
C2134 C2133 1.350 1_556 S
C2134 C2140 1.428 . S
H2135 C2131 0.930 1_554 S
H2136 C2133 0.949 . S
S2137 N2138 1.613 . S
S2137 N2139 1.610 . S
N2138 S2137 1.613 . S
N2138 C2141 1.350 . S
N2139 S2137 1.610 . S
N2139 C2140 1.351 . S
C2140 C2134 1.428 . S
C2140 N2139 1.351 . S
C2140 C2141 1.434 . S
C2141 C2132 1.429 . S
C2141 N2138 1.350 . S
C2141 C2140 1.434 . S
C2142 C2143 1.369 . S
C2142 C2144 1.419 . S
C2142 H2146 0.930 . S
C2143 C2142 1.369 . S
C2143 C2152 1.429 . S
C2144 C2142 1.419 . S
C2144 C2145 1.363 . S
C2144 H2147 0.929 . S
C2145 C2144 1.363 . S
C2145 C2151 1.428 . S
H2146 C2142 0.930 . S
H2147 C2144 0.929 . S
S2148 N2149 1.613 . S
S2148 N2150 1.610 . S
N2149 S2148 1.613 . S
N2149 C2152 1.350 . S
N2150 S2148 1.610 . S
N2150 C2151 1.351 . S
C2151 C2145 1.428 . S
C2151 N2150 1.351 . S
C2151 C2152 1.434 . S
C2152 C2143 1.429 . S
C2152 N2149 1.350 . S
C2152 C2151 1.434 . S
C2153 C2154 1.369 1_556 S
C2153 C2155 1.419 . S
C2153 H2157 0.930 . S
C2154 C2153 1.369 1_554 S
C2154 C2163 1.429 . S
C2155 C2153 1.419 . S
C2155 C2156 1.363 1_556 S
C2155 H2158 0.929 . S
C2156 C2155 1.363 1_554 S
C2156 C2162 1.428 . S
H2157 C2153 0.930 . S
H2158 C2155 0.929 . S
S2159 N2160 1.613 . S
S2159 N2161 1.610 . S
N2160 S2159 1.613 . S
N2160 C2163 1.350 . S
N2161 S2159 1.610 . S
N2161 C2162 1.351 . S
C2162 C2156 1.428 . S
C2162 N2161 1.351 . S
C2162 C2163 1.434 . S
C2163 C2154 1.429 . S
C2163 N2160 1.350 . S
C2163 C2162 1.434 . S
C2164 C2165 1.369 . S
C2164 C2166 1.419 . S
C2164 H2168 0.930 . S
C2165 C2164 1.369 . S
C2165 C2174 1.429 . S
C2166 C2164 1.419 . S
C2166 C2167 1.363 . S
C2166 H2169 0.929 . S
C2167 C2166 1.363 . S
C2167 C2173 1.428 . S
H2168 C2164 0.930 . S
H2169 C2166 0.929 . S
S2170 N2171 1.613 . S
S2170 N2172 1.610 . S
N2171 S2170 1.613 . S
N2171 C2174 1.350 . S
N2172 S2170 1.610 . S
N2172 C2173 1.351 . S
C2173 C2167 1.428 . S
C2173 N2172 1.351 . S
C2173 C2174 1.434 . S
C2174 C2165 1.429 . S
C2174 N2171 1.350 . S
C2174 C2173 1.434 . S
C2175 C2176 1.369 . S
C2175 C2177 1.419 . S
C2175 H2179 0.930 . S
C2176 C2175 1.369 . S
C2176 C2185 1.429 . S
C2177 C2175 1.419 . S
C2177 C2178 1.363 . S
C2177 H2180 0.929 1_655 S
C2178 C2177 1.363 . S
C2178 C2184 1.428 . S
H2179 C2175 0.930 . S
H2180 C2177 0.929 1_455 S
S2181 N2182 1.613 . S
S2181 N2183 1.610 . S
N2182 S2181 1.613 . S
N2182 C2185 1.350 . S
N2183 S2181 1.610 . S
N2183 C2184 1.351 . S
C2184 C2178 1.428 . S
C2184 N2183 1.351 . S
C2184 C2185 1.434 . S
C2185 C2176 1.429 . S
C2185 N2182 1.350 . S
C2185 C2184 1.434 . S
C2186 C2187 1.369 . S
C2186 C2188 1.419 . S
C2186 H2190 0.930 . S
C2187 C2186 1.369 . S
C2187 C2196 1.429 . S
C2188 C2186 1.419 . S
C2188 C2189 1.363 . S
C2188 H2191 0.929 . S
C2189 C2188 1.363 . S
C2189 C2195 1.428 . S
H2190 C2186 0.930 . S
H2191 C2188 0.929 . S
S2192 N2193 1.613 . S
S2192 N2194 1.610 . S
N2193 S2192 1.613 . S
N2193 C2196 1.350 . S
N2194 S2192 1.610 . S
N2194 C2195 1.351 . S
C2195 C2189 1.428 . S
C2195 N2194 1.351 . S
C2195 C2196 1.434 . S
C2196 C2187 1.429 . S
C2196 N2193 1.350 . S
C2196 C2195 1.434 . S
C2197 C2198 1.369 1_655 S
C2197 C2199 1.419 . S
C2197 H2201 0.930 . S
C2198 C2197 1.369 1_455 S
C2198 C2207 1.429 . S
C2199 C2197 1.419 . S
C2199 C2200 1.363 1_655 S
C2199 H2202 0.929 . S
C2200 C2199 1.363 1_455 S
C2200 C2206 1.428 . S
H2201 C2197 0.930 . S
H2202 C2199 0.929 . S
S2203 N2204 1.613 . S
S2203 N2205 1.610 . S
N2204 S2203 1.613 . S
N2204 C2207 1.350 . S
N2205 S2203 1.610 . S
N2205 C2206 1.351 . S
C2206 C2200 1.428 . S
C2206 N2205 1.351 . S
C2206 C2207 1.434 . S
C2207 C2198 1.429 . S
C2207 N2204 1.350 . S
C2207 C2206 1.434 . S
C1419 C1403 1.629 1_455 S
C1417 C15 1.733 . S
C1430 C1346 1.546 . S
C1428 C55 1.515 . S
C1441 C1384 1.142 . S
C1439 C95 1.309 . S
C1452 C1365 1.619 . S
C1450 C135 1.612 1_455 S
C1463 C1232 1.635 1_545 S
C1461 C175 1.734 . S
C1472 C215 1.619 1_545 S
C1474 C1251 1.619 . S
C1485 C1194 1.541 . S
C1483 C255 1.508 . S
C1494 C295 1.311 . S
C1496 C1213 1.135 . S
C1507 C1327 1.633 1_554 S
C1505 C335 1.733 . S
C1516 C375 1.616 1_554 S
C1518 C1289 1.616 . S
C1527 C415 1.510 . S
C1529 C1270 1.543 . S
C1540 C1308 1.130 . S
C1538 C455 1.313 . S
C1551 C1175 1.639 1_655 S
C1549 C495 1.733 . S
C1560 C535 1.507 . S
C1562 C1118 1.547 . S
C1573 C1156 1.138 . S
C1571 C575 1.314 . S
C1582 C615 1.610 1_655 S
C1584 C1137 1.625 . S
C1595 C1004 1.640 1_565 S
C1593 C655 1.733 . S
C1606 C1023 1.625 . S
C1604 C695 1.611 1_565 S
C1615 C735 1.505 . S
C1617 C966 1.546 . S
C1626 C775 1.313 . S
C1628 C985 1.149 . S
C1637 C815 1.732 . S
C1639 C1099 1.636 1_556 S
C1648 C855 1.609 1_556 S
C1650 C1061 1.626 . S
C1661 C1042 1.546 . S
C1659 C895 1.506 . S
C1670 C935 1.313 . S
C1672 C1080 1.150 . S
C1683 C962 1.540 . S
C1681 C21 1.641 . S
C1694 C981 1.726 . S
C1692 C61 1.912 . S
C1703 C101 1.126 . S
C1705 C1000 1.091 . S
C1714 C141 1.298 . S
C1716 C1019 1.164 . S
C1727 C1038 1.533 . S
C1725 C181 1.641 . S
C1736 C221 1.298 . S
C1738 C1057 1.162 . S
C1749 C1076 1.722 . S
C1747 C261 1.913 . S
C1760 C1095 1.089 . S
C1758 C301 1.121 . S
C1771 C1114 1.541 . S
C1769 C341 1.641 . S
C1780 C381 1.293 . S
C1782 C1133 1.172 . S
C1791 C421 1.917 . S
C1793 C1152 1.721 . S
C1802 C461 1.127 . S
C1804 C1171 1.087 . S
C1813 C501 1.571 . S
C1815 C1190 1.538 . S
C1824 C541 1.720 . S
C1826 C1209 1.718 . S
C1835 C581 1.098 . S
C1837 C1228 1.084 . S
C1846 C621 1.211 . S
C1848 C1247 1.174 . S
C1857 C661 1.577 . S
C1859 C1266 1.530 . S
C1870 C1285 1.176 . S
C1868 C701 1.210 . S
C1881 C1304 1.721 . S
C1879 C741 1.719 . S
C1892 C1323 1.081 . S
C1890 C781 1.104 . S
C1903 C1342 1.532 . S
C1901 C821 1.577 . S
C1912 C861 1.224 . S
C1914 C1361 1.160 . S
C1923 C901 1.720 . S
C1925 C1380 1.719 . S
C1934 C941 1.093 . S
C1936 C1399 1.090 . S
C1945 C2 1.649 . S
C1947 C1123 1.593 . S
C1958 C1180 1.880 . S
C1956 C42 1.902 . S
C1967 C82 1.614 . S
C1969 C1142 1.588 . S
C1980 C1161 1.553 . S
C1978 C122 1.654 . S
C1989 C162 1.650 . S
C1991 C971 1.592 . S
C2000 C202 1.654 . S
C2002 C990 1.554 . S
C2011 C242 1.903 . S
C2013 C1009 1.877 . S
C2022 C282 1.614 . S
C2024 C1028 1.588 . S
C2035 C1047 1.598 . S
C2033 C322 1.651 . S
C2046 C1085 1.562 . S
C2044 C362 1.650 . S
C2055 C402 1.906 . S
C2057 C1104 1.879 . S
C2066 C442 1.615 . S
C2068 C1066 1.590 . S
C2079 C1351 1.554 . S
C2077 C482 1.622 . S
C2090 C1408 1.733 . S
C2088 C522 1.818 . S
C2099 C562 1.621 . S
C2101 C1370 1.503 . S
C2112 C1389 1.506 . S
C2110 C602 1.596 . S
C2121 C642 1.628 . S
C2123 C1199 1.547 . S
C2132 C682 1.600 . S
C2134 C1218 1.500 . S
C2143 C722 1.821 . S
C2145 C1237 1.736 . S
C2156 C1256 1.498 . S
C2154 C762 1.623 . S
C2167 C1275 1.553 . S
C2165 C802 1.625 . S
C2178 C1313 1.501 . S
C2176 C842 1.596 . S
C2187 C882 1.816 . S
C2189 C1332 1.739 . S
C2200 C1294 1.496 . S
C2198 C922 1.623 . S
