# Generated by pormake.
# Topology bwt, (3,3)-cn, num edge types: 1
# Building blocks:
#     Node 0, Type 0, BuildingBlock: WUSLED_clean_sbu_0, # of connection points: 3
#     Node 1, Type 0, BuildingBlock: WUSLED_clean_sbu_0, # of connection points: 3
#     Node 2, Type 0, BuildingBlock: WUSLED_clean_sbu_0, # of connection points: 3
#     Node 3, Type 0, BuildingBlock: WUSLED_clean_sbu_0, # of connection points: 3
#     Node 4, Type 0, BuildingBlock: WUSLED_clean_sbu_0, # of connection points: 3
#     Node 5, Type 0, BuildingBlock: WUSLED_clean_sbu_0, # of connection points: 3
#     Node 6, Type 0, BuildingBlock: WUSLED_clean_sbu_0, # of connection points: 3
#     Node 7, Type 0, BuildingBlock: WUSLED_clean_sbu_0, # of connection points: 3
#     Node 8, Type 0, BuildingBlock: WUSLED_clean_sbu_0, # of connection points: 3
#     Node 9, Type 0, BuildingBlock: WUSLED_clean_sbu_0, # of connection points: 3
#     Node 10, Type 0, BuildingBlock: WUSLED_clean_sbu_0, # of connection points: 3
#     Node 11, Type 0, BuildingBlock: WUSLED_clean_sbu_0, # of connection points: 3
#     Node 12, Type 0, BuildingBlock: WUSLED_clean_sbu_0, # of connection points: 3
#     Node 13, Type 0, BuildingBlock: WUSLED_clean_sbu_0, # of connection points: 3
#     Node 14, Type 0, BuildingBlock: WUSLED_clean_sbu_0, # of connection points: 3
#     Node 15, Type 0, BuildingBlock: WUSLED_clean_sbu_0, # of connection points: 3
#     Node 16, Type 0, BuildingBlock: WUSLED_clean_sbu_0, # of connection points: 3
#     Node 17, Type 0, BuildingBlock: WUSLED_clean_sbu_0, # of connection points: 3
#     Node 18, Type 0, BuildingBlock: WUSLED_clean_sbu_0, # of connection points: 3
#     Node 19, Type 0, BuildingBlock: WUSLED_clean_sbu_0, # of connection points: 3
#     Node 20, Type 0, BuildingBlock: WUSLED_clean_sbu_0, # of connection points: 3
#     Node 21, Type 0, BuildingBlock: WUSLED_clean_sbu_0, # of connection points: 3
#     Node 22, Type 0, BuildingBlock: WUSLED_clean_sbu_0, # of connection points: 3
#     Node 23, Type 0, BuildingBlock: WUSLED_clean_sbu_0, # of connection points: 3
#     Node 24, Type 1, BuildingBlock: BETDAH_clean_linker_0, # of connection points: 3
#     Node 25, Type 1, BuildingBlock: BETDAH_clean_linker_0, # of connection points: 3
#     Node 26, Type 1, BuildingBlock: BETDAH_clean_linker_0, # of connection points: 3
#     Node 27, Type 1, BuildingBlock: BETDAH_clean_linker_0, # of connection points: 3
#     Node 28, Type 1, BuildingBlock: BETDAH_clean_linker_0, # of connection points: 3
#     Node 29, Type 1, BuildingBlock: BETDAH_clean_linker_0, # of connection points: 3
#     Node 30, Type 1, BuildingBlock: BETDAH_clean_linker_0, # of connection points: 3
#     Node 31, Type 1, BuildingBlock: BETDAH_clean_linker_0, # of connection points: 3
#     Node 32, Type 1, BuildingBlock: BETDAH_clean_linker_0, # of connection points: 3
#     Node 33, Type 1, BuildingBlock: BETDAH_clean_linker_0, # of connection points: 3
#     Node 34, Type 1, BuildingBlock: BETDAH_clean_linker_0, # of connection points: 3
#     Node 35, Type 1, BuildingBlock: BETDAH_clean_linker_0, # of connection points: 3
#     Node 36, Type 1, BuildingBlock: BETDAH_clean_linker_0, # of connection points: 3
#     Node 37, Type 1, BuildingBlock: BETDAH_clean_linker_0, # of connection points: 3
#     Node 38, Type 1, BuildingBlock: BETDAH_clean_linker_0, # of connection points: 3
#     Node 39, Type 1, BuildingBlock: BETDAH_clean_linker_0, # of connection points: 3
#     Node 40, Type 1, BuildingBlock: BETDAH_clean_linker_0, # of connection points: 3
#     Node 41, Type 1, BuildingBlock: BETDAH_clean_linker_0, # of connection points: 3
#     Node 42, Type 1, BuildingBlock: BETDAH_clean_linker_0, # of connection points: 3
#     Node 43, Type 1, BuildingBlock: BETDAH_clean_linker_0, # of connection points: 3
#     Node 44, Type 1, BuildingBlock: BETDAH_clean_linker_0, # of connection points: 3
#     Node 45, Type 1, BuildingBlock: BETDAH_clean_linker_0, # of connection points: 3
#     Node 46, Type 1, BuildingBlock: BETDAH_clean_linker_0, # of connection points: 3
#     Node 47, Type 1, BuildingBlock: BETDAH_clean_linker_0, # of connection points: 3
#     Edge 48, Type (0, 1), BuildingBlock: MIFKUJ_clean_linker_0, # of connection points: 2
#     Edge 49, Type (0, 1), BuildingBlock: MIFKUJ_clean_linker_0, # of connection points: 2
#     Edge 50, Type (0, 1), BuildingBlock: MIFKUJ_clean_linker_0, # of connection points: 2
#     Edge 51, Type (0, 1), BuildingBlock: MIFKUJ_clean_linker_0, # of connection points: 2
#     Edge 52, Type (0, 1), BuildingBlock: MIFKUJ_clean_linker_0, # of connection points: 2
#     Edge 53, Type (0, 1), BuildingBlock: MIFKUJ_clean_linker_0, # of connection points: 2
#     Edge 54, Type (0, 1), BuildingBlock: MIFKUJ_clean_linker_0, # of connection points: 2
#     Edge 55, Type (0, 1), BuildingBlock: MIFKUJ_clean_linker_0, # of connection points: 2
#     Edge 56, Type (0, 1), BuildingBlock: MIFKUJ_clean_linker_0, # of connection points: 2
#     Edge 57, Type (0, 1), BuildingBlock: MIFKUJ_clean_linker_0, # of connection points: 2
#     Edge 58, Type (0, 1), BuildingBlock: MIFKUJ_clean_linker_0, # of connection points: 2
#     Edge 59, Type (0, 1), BuildingBlock: MIFKUJ_clean_linker_0, # of connection points: 2
#     Edge 60, Type (0, 1), BuildingBlock: MIFKUJ_clean_linker_0, # of connection points: 2
#     Edge 61, Type (0, 1), BuildingBlock: MIFKUJ_clean_linker_0, # of connection points: 2
#     Edge 62, Type (0, 1), BuildingBlock: MIFKUJ_clean_linker_0, # of connection points: 2
#     Edge 63, Type (0, 1), BuildingBlock: MIFKUJ_clean_linker_0, # of connection points: 2
#     Edge 64, Type (0, 1), BuildingBlock: MIFKUJ_clean_linker_0, # of connection points: 2
#     Edge 65, Type (0, 1), BuildingBlock: MIFKUJ_clean_linker_0, # of connection points: 2
#     Edge 66, Type (0, 1), BuildingBlock: MIFKUJ_clean_linker_0, # of connection points: 2
#     Edge 67, Type (0, 1), BuildingBlock: MIFKUJ_clean_linker_0, # of connection points: 2
#     Edge 68, Type (0, 1), BuildingBlock: MIFKUJ_clean_linker_0, # of connection points: 2
#     Edge 69, Type (0, 1), BuildingBlock: MIFKUJ_clean_linker_0, # of connection points: 2
#     Edge 70, Type (0, 1), BuildingBlock: MIFKUJ_clean_linker_0, # of connection points: 2
#     Edge 71, Type (0, 1), BuildingBlock: MIFKUJ_clean_linker_0, # of connection points: 2
#     Edge 72, Type (0, 1), BuildingBlock: MIFKUJ_clean_linker_0, # of connection points: 2
#     Edge 73, Type (0, 1), BuildingBlock: MIFKUJ_clean_linker_0, # of connection points: 2
#     Edge 74, Type (0, 1), BuildingBlock: MIFKUJ_clean_linker_0, # of connection points: 2
#     Edge 75, Type (0, 1), BuildingBlock: MIFKUJ_clean_linker_0, # of connection points: 2
#     Edge 76, Type (0, 1), BuildingBlock: MIFKUJ_clean_linker_0, # of connection points: 2
#     Edge 77, Type (0, 1), BuildingBlock: MIFKUJ_clean_linker_0, # of connection points: 2
#     Edge 78, Type (0, 1), BuildingBlock: MIFKUJ_clean_linker_0, # of connection points: 2
#     Edge 79, Type (0, 1), BuildingBlock: MIFKUJ_clean_linker_0, # of connection points: 2
#     Edge 80, Type (0, 1), BuildingBlock: MIFKUJ_clean_linker_0, # of connection points: 2
#     Edge 81, Type (0, 1), BuildingBlock: MIFKUJ_clean_linker_0, # of connection points: 2
#     Edge 82, Type (0, 1), BuildingBlock: MIFKUJ_clean_linker_0, # of connection points: 2
#     Edge 83, Type (0, 1), BuildingBlock: MIFKUJ_clean_linker_0, # of connection points: 2
#     Edge 84, Type (0, 1), BuildingBlock: MIFKUJ_clean_linker_0, # of connection points: 2
#     Edge 85, Type (0, 1), BuildingBlock: MIFKUJ_clean_linker_0, # of connection points: 2
#     Edge 86, Type (0, 1), BuildingBlock: MIFKUJ_clean_linker_0, # of connection points: 2
#     Edge 87, Type (0, 1), BuildingBlock: MIFKUJ_clean_linker_0, # of connection points: 2
#     Edge 88, Type (0, 1), BuildingBlock: MIFKUJ_clean_linker_0, # of connection points: 2
#     Edge 89, Type (0, 1), BuildingBlock: MIFKUJ_clean_linker_0, # of connection points: 2
#     Edge 90, Type (0, 1), BuildingBlock: MIFKUJ_clean_linker_0, # of connection points: 2
#     Edge 91, Type (0, 1), BuildingBlock: MIFKUJ_clean_linker_0, # of connection points: 2
#     Edge 92, Type (0, 1), BuildingBlock: MIFKUJ_clean_linker_0, # of connection points: 2
#     Edge 93, Type (0, 1), BuildingBlock: MIFKUJ_clean_linker_0, # of connection points: 2
#     Edge 94, Type (0, 1), BuildingBlock: MIFKUJ_clean_linker_0, # of connection points: 2
#     Edge 95, Type (0, 1), BuildingBlock: MIFKUJ_clean_linker_0, # of connection points: 2
#     Edge 96, Type (0, 1), BuildingBlock: MIFKUJ_clean_linker_0, # of connection points: 2
#     Edge 97, Type (0, 1), BuildingBlock: MIFKUJ_clean_linker_0, # of connection points: 2
#     Edge 98, Type (0, 1), BuildingBlock: MIFKUJ_clean_linker_0, # of connection points: 2
#     Edge 99, Type (0, 1), BuildingBlock: MIFKUJ_clean_linker_0, # of connection points: 2
#     Edge 100, Type (0, 1), BuildingBlock: MIFKUJ_clean_linker_0, # of connection points: 2
#     Edge 101, Type (0, 1), BuildingBlock: MIFKUJ_clean_linker_0, # of connection points: 2
#     Edge 102, Type (0, 1), BuildingBlock: MIFKUJ_clean_linker_0, # of connection points: 2
#     Edge 103, Type (0, 1), BuildingBlock: MIFKUJ_clean_linker_0, # of connection points: 2
#     Edge 104, Type (0, 1), BuildingBlock: MIFKUJ_clean_linker_0, # of connection points: 2
#     Edge 105, Type (0, 1), BuildingBlock: MIFKUJ_clean_linker_0, # of connection points: 2
#     Edge 106, Type (0, 1), BuildingBlock: MIFKUJ_clean_linker_0, # of connection points: 2
#     Edge 107, Type (0, 1), BuildingBlock: MIFKUJ_clean_linker_0, # of connection points: 2
#     Edge 108, Type (0, 1), BuildingBlock: MIFKUJ_clean_linker_0, # of connection points: 2
#     Edge 109, Type (0, 1), BuildingBlock: MIFKUJ_clean_linker_0, # of connection points: 2
#     Edge 110, Type (0, 1), BuildingBlock: MIFKUJ_clean_linker_0, # of connection points: 2
#     Edge 111, Type (0, 1), BuildingBlock: MIFKUJ_clean_linker_0, # of connection points: 2
#     Edge 112, Type (0, 1), BuildingBlock: MIFKUJ_clean_linker_0, # of connection points: 2
#     Edge 113, Type (0, 1), BuildingBlock: MIFKUJ_clean_linker_0, # of connection points: 2
#     Edge 114, Type (0, 1), BuildingBlock: MIFKUJ_clean_linker_0, # of connection points: 2
#     Edge 115, Type (0, 1), BuildingBlock: MIFKUJ_clean_linker_0, # of connection points: 2
#     Edge 116, Type (0, 1), BuildingBlock: MIFKUJ_clean_linker_0, # of connection points: 2
#     Edge 117, Type (0, 1), BuildingBlock: MIFKUJ_clean_linker_0, # of connection points: 2
#     Edge 118, Type (0, 1), BuildingBlock: MIFKUJ_clean_linker_0, # of connection points: 2
#     Edge 119, Type (0, 1), BuildingBlock: MIFKUJ_clean_linker_0, # of connection points: 2
# Relax obj value: 0.121
# Max RMSD: 0.171
# Mean RMSD: 0.084
data_MOF--net-bwt--node1-WUSLED_clean_sbu_0--node2-BETDAH_clean_linker_0--edge1-MIFKUJ_clean_linker_0
_symmetry_space_group_name_H-M    P1
_symmetry_Int_Tables_number       1
_symmetry_cell_setting            triclinic
loop_
_symmetry_equiv_pos_as_xyz
'x, y, z'
_cell_length_a     84.832461
_cell_length_b     84.740236
_cell_length_c     84.788714
_cell_angle_alpha  95.0442
_cell_angle_beta   95.04775
_cell_angle_gamma 95.039903
loop_
_atom_site_label
_atom_site_type_symbol
_atom_site_fract_x
_atom_site_fract_y
_atom_site_fract_z
_atom_type_partial_charge
C0 C 0.30441 0.6548 0.37654 0.0
C1 C 0.31557 0.64606 0.38434 0.0
C2 C 0.33569 0.65382 0.36649 0.0
C3 C 0.33101 0.6456 0.37939 0.0
C4 C 0.32448 0.66283 0.35904 0.0
C5 C 0.30914 0.66325 0.36397 0.0
U6 U 0.26913 0.64696 0.40275 0.0
O7 O 0.24911 0.66142 0.4071 0.0
O8 O 0.24434 0.63736 0.3948 0.0
C9 C 0.23827 0.65022 0.40039 0.0
C10 C 0.28762 0.65485 0.38055 0.0
C11 C 0.22352 0.65493 0.3918 0.0
C12 C 0.20721 0.66052 0.36798 0.0
C13 C 0.22194 0.65713 0.3755 0.0
C14 C 0.1956 0.65971 0.39293 0.0
C15 C 0.1937 0.66163 0.37655 0.0
C16 C 0.21021 0.65642 0.40037 0.0
C17 C 0.28073 0.62792 0.44304 0.0
C18 C 0.26747 0.62323 0.4669 0.0
C19 C 0.29206 0.61173 0.4627 0.0
C20 C 0.29272 0.61875 0.44844 0.0
C21 C 0.27942 0.61376 0.47209 0.0
C22 C 0.26807 0.6302 0.45241 0.0
C23 C 0.28242 0.63495 0.42777 0.0
O24 O 0.27938 0.64092 0.38022 0.0
O25 O 0.28476 0.66487 0.39247 0.0
O26 O 0.28097 0.65022 0.42725 0.0
O27 O 0.27659 0.62628 0.4146 0.0
H28 H 0.31228 0.6394 0.39408 0.0
H29 H 0.33911 0.63842 0.38544 0.0
H30 H 0.32753 0.66965 0.34935 0.0
H31 H 0.30082 0.67012 0.35776 0.0
H32 H 0.20632 0.66182 0.35536 0.0
H33 H 0.23197 0.65601 0.36855 0.0
H34 H 0.18575 0.66078 0.40013 0.0
H35 H 0.21105 0.65479 0.41294 0.0
H36 H 0.25755 0.62496 0.47388 0.0
H37 H 0.30153 0.60471 0.46646 0.0
H38 H 0.30269 0.61697 0.44155 0.0
H39 H 0.25869 0.63728 0.44852 0.0
C40 C 0.216 0.31086 0.80324 0.0
C41 C 0.20705 0.32097 0.81209 0.0
C42 C 0.18296 0.31144 0.79462 0.0
C43 C 0.19071 0.32126 0.80782 0.0
C44 C 0.19193 0.30093 0.78618 0.0
C45 C 0.20825 0.30068 0.79044 0.0
U46 U 0.25465 0.3257 0.82899 0.0
O47 O 0.27707 0.3147 0.83394 0.0
O48 O 0.27714 0.33695 0.82246 0.0
C49 C 0.28555 0.32582 0.82762 0.0
C50 C 0.2335 0.31163 0.80643 0.0
C51 C 0.29813 0.32091 0.81777 0.0
C52 C 0.3087 0.31698 0.7921 0.0
C53 C 0.29577 0.31891 0.80109 0.0
C54 C 0.32632 0.3182 0.81633 0.0
C55 C 0.32421 0.317 0.79962 0.0
C56 C 0.31342 0.32017 0.82528 0.0
C57 C 0.25146 0.35263 0.86717 0.0
C58 C 0.27436 0.36685 0.88316 0.0
C59 C 0.24782 0.37373 0.88738 0.0
C60 C 0.24145 0.36183 0.87554 0.0
C61 C 0.26437 0.37665 0.89111 0.0
C62 C 0.26795 0.35496 0.87122 0.0
C63 C 0.24449 0.34194 0.85326 0.0
O64 O 0.24109 0.3257 0.8057 0.0
O65 O 0.23901 0.30442 0.81859 0.0
O66 O 0.24703 0.32685 0.85324 0.0
O67 O 0.24621 0.3476 0.83953 0.0
H68 H 0.21278 0.3289 0.82207 0.0
H69 H 0.18419 0.32931 0.81478 0.0
H70 H 0.1865 0.29331 0.77587 0.0
H71 H 0.21492 0.29282 0.78342 0.0
H72 H 0.30665 0.31589 0.77924 0.0
H73 H 0.28407 0.31946 0.79504 0.0
H74 H 0.33808 0.31846 0.82252 0.0
H75 H 0.31553 0.32185 0.83814 0.0
H76 H 0.28714 0.36861 0.8859 0.0
H77 H 0.23976 0.38115 0.89303 0.0
H78 H 0.2287 0.36025 0.87246 0.0
H79 H 0.27586 0.34797 0.86482 0.0
C80 C 0.71203 0.99659 0.61821 0.0
C81 C 0.72378 0.99738 0.60754 0.0
C82 C 0.74413 0.99621 0.62922 0.0
C83 C 0.73976 0.99729 0.61303 0.0
C84 C 0.73232 0.99542 0.63984 0.0
C85 C 0.71635 0.99565 0.63436 0.0
U86 U 0.68209 0.9948 0.58324 0.0
O87 O 0.65782 0.98338 0.5775 0.0
O88 O 0.66251 0.00939 0.57785 0.0
C89 C 0.65178 0.99705 0.5764 0.0
C90 C 0.69533 0.99678 0.61238 0.0
C91 C 0.63788 0.99909 0.58502 0.0
C92 C 0.62463 0.99899 0.60918 0.0
C93 C 0.63845 0.99803 0.60147 0.0
C94 C 0.60988 0.00246 0.58407 0.0
C95 C 0.61019 1.00105 0.60049 0.0
C96 C 0.62364 1.00151 0.57642 0.0
C97 C 0.69522 0.99114 0.54258 0.0
C98 C 0.67598 0.99587 0.52106 0.0
C99 C 0.70328 0.99244 0.51611 0.0
C100 C 0.70692 0.99018 0.53204 0.0
C101 C 0.68792 0.9958 0.51062 0.0
C102 C 0.67963 0.99357 0.53699 0.0
C103 C 0.69955 0.99131 0.5596 0.0
O104 O 0.69226 0.00934 0.60502 0.0
O105 O 0.68865 0.9833 0.60481 0.0
O106 O 0.69317 0.97917 0.56624 0.0
O107 O 0.69854 0.00513 0.56757 0.0
H108 H 0.72057 0.99804 0.59498 0.0
H109 H 0.74866 0.99779 0.60463 0.0
H110 H 0.73547 0.99474 0.65241 0.0
H111 H 0.7074 0.99509 0.64271 0.0
H112 H 0.6252 0.99797 0.62186 0.0
H113 H 0.64947 0.99619 0.60823 0.0
H114 H 0.59889 0.00374 0.57699 0.0
H115 H 0.62309 0.0023 0.56369 0.0
H116 H 0.66406 0.99845 0.5171 0.0
H117 H 0.71259 0.99198 0.50816 0.0
H118 H 0.71898 0.98826 0.53624 0.0
H119 H 0.67047 0.99436 0.54509 0.0
C120 C 0.76618 0.01973 0.26664 0.0
C121 C 0.75618 0.01651 0.25239 0.0
C122 C 0.73344 0.01284 0.26768 0.0
C123 C 0.73972 0.01331 0.25291 0.0
C124 C 0.74366 0.01647 0.28167 0.0
C125 C 0.7598 0.01997 0.28119 0.0
U126 U 0.80594 0.01312 0.2499 0.0
O127 O 0.82462 0.00218 0.26334 0.0
O128 O 0.8292 0.02669 0.25671 0.0
C129 C 0.83471 0.01495 0.26404 0.0
C130 C 0.78338 0.02068 0.26728 0.0
C131 C 0.85141 0.01233 0.26352 0.0
C132 C 0.87528 0.0061 0.27845 0.0
C133 C 0.85896 0.00679 0.277 0.0
C134 C 0.87672 0.01586 0.2525 0.0
C135 C 0.88439 0.01105 0.26645 0.0
C136 C 0.86024 0.01654 0.25105 0.0
C137 C 0.79487 0.99686 0.20356 0.0
C138 C 0.80214 0.99402 0.17654 0.0
C139 C 0.77546 0.98501 0.18224 0.0
C140 C 0.77955 0.98979 0.19835 0.0
C141 C 0.78672 0.98709 0.1712 0.0
C142 C 0.80613 0.99902 0.19263 0.0
C143 C 0.79885 0.00271 0.22024 0.0
O144 O 0.78905 0.00677 0.26674 0.0
O145 O 0.79059 0.03089 0.25883 0.0
O146 O 0.80336 0.01781 0.2247 0.0
O147 O 0.79844 0.9931 0.23161 0.0
H148 H 0.76111 0.0161 0.24102 0.0
H149 H 0.73206 0.01063 0.24192 0.0
H150 H 0.73922 0.01627 0.29309 0.0
H151 H 0.76744 0.02217 0.29225 0.0
H152 H 0.88082 1.00203 0.28916 0.0
H153 H 0.85226 0.00351 0.28673 0.0
H154 H 0.8835 0.01974 0.24306 0.0
H155 H 0.85454 0.02084 0.24053 0.0
H156 H 0.81099 0.99579 0.16824 0.0
H157 H 0.76355 0.97955 0.17844 0.0
H158 H 0.7707 0.9882 0.20669 0.0
H159 H 0.81799 0.00456 0.19655 0.0
C160 C 0.37579 0.30425 0.65284 0.0
C161 C 0.38387 0.31556 0.64448 0.0
C162 C 0.36595 0.33564 0.65217 0.0
C163 C 0.37902 0.33105 0.64415 0.0
C164 C 0.35813 0.32422 0.66068 0.0
C165 C 0.36295 0.30882 0.66095 0.0
U166 U 0.40216 0.26901 0.64531 0.0
O167 O 0.4064 0.24911 0.65993 0.0
O168 O 0.39416 0.24417 0.63588 0.0
C169 C 0.39962 0.23819 0.64884 0.0
C170 C 0.37992 0.28751 0.65299 0.0
C171 C 0.39068 0.22377 0.65378 0.0
C172 C 0.36674 0.20859 0.6607 0.0
C173 C 0.37458 0.22295 0.65676 0.0
C174 C 0.39094 0.1958 0.65874 0.0
C175 C 0.37482 0.19475 0.66175 0.0
C176 C 0.39869 0.21004 0.65487 0.0
C177 C 0.44247 0.28038 0.62618 0.0
C178 C 0.46633 0.2671 0.62149 0.0
C179 C 0.46204 0.29162 0.60985 0.0
C180 C 0.44782 0.29231 0.61691 0.0
C181 C 0.47145 0.27898 0.6119 0.0
C182 C 0.45188 0.26774 0.62852 0.0
C183 C 0.42722 0.28212 0.63322 0.0
O184 O 0.37964 0.27921 0.63912 0.0
O185 O 0.39185 0.2848 0.66305 0.0
O186 O 0.4267 0.28078 0.6485 0.0
O187 O 0.41404 0.27628 0.62459 0.0
H188 H 0.3938 0.31236 0.63807 0.0
H189 H 0.38532 0.33931 0.63732 0.0
H190 H 0.34833 0.32719 0.66737 0.0
H191 H 0.35655 0.30038 0.66755 0.0
H192 H 0.35438 0.20838 0.66303 0.0
H193 H 0.36807 0.23333 0.65597 0.0
H194 H 0.39759 0.18548 0.65903 0.0
H195 H 0.41104 0.21026 0.65248 0.0
H196 H 0.47332 0.2572 0.62327 0.0
H197 H 0.46574 0.30108 0.60279 0.0
H198 H 0.44091 0.30227 0.6151 0.0
H199 H 0.44805 0.25841 0.63569 0.0
C200 C 0.27524 0.77152 0.0099 0.0
C201 C 0.26705 0.7622 0.02008 0.0
C202 C 0.27889 0.73864 0.00991 0.0
C203 C 0.26888 0.74595 0.02012 0.0
C204 C 0.28619 0.7478 0.99899 0.0
C205 C 0.28452 0.76409 0.99913 0.0
U206 U 0.24736 0.8029 0.00674 0.0
O207 O 0.24613 0.82669 0.01887 0.0
O208 O 0.24621 0.82361 0.99278 0.0
C209 C 0.24575 0.83353 0.00552 0.0
C210 C 0.27336 0.7887 0.00965 0.0
C211 C 0.25411 0.84955 0.00592 0.0
C212 C 0.27474 0.87041 0.0169 0.0
C213 C 0.26869 0.8543 0.01504 0.0
C214 C 0.25195 0.87687 1.00024 0.0
C215 C 0.26611 0.88184 0.00987 0.0
C216 C 0.24607 0.86089 0.99823 0.0
C217 C 0.20373 0.78462 1.00087 0.0
C218 C 0.18123 0.79454 0.9865 0.0
C219 C 0.17756 0.77045 0.99974 0.0
C220 C 0.19365 0.77208 0.00517 0.0
C221 C 0.17131 0.7813 0.98983 0.0
C222 C 0.19738 0.79619 0.99199 0.0
C223 C 0.22091 0.78403 0.00393 0.0
O224 O 0.26739 0.79283 0.99594 0.0
O225 O 0.26724 0.79555 0.02195 0.0
O226 O 0.2277 0.79064 0.01774 0.0
O227 O 0.22916 0.78696 0.99194 0.0
H228 H 0.25933 0.76745 0.02817 0.0
H229 H 0.26274 0.73921 0.02839 0.0
H230 H 0.29378 0.74264 0.99077 0.0
H231 H 0.29062 0.77092 0.99088 0.0
H232 H 0.28566 0.87405 0.02444 0.0
H233 H 0.27505 0.84572 0.02114 0.0
H234 H 0.24514 0.88547 0.99467 0.0
H235 H 0.23478 0.85747 0.99122 0.0
H236 H 0.17674 0.80309 0.97889 0.0
H237 H 0.17011 0.76033 0.00279 0.0
H238 H 0.19838 0.76309 0.01207 0.0
H239 H 0.20504 0.80599 0.98859 0.0
C240 C 0.80383 0.21655 0.31107 0.0
C241 C 0.81255 0.20637 0.31988 0.0
C242 C 0.79351 0.18358 0.30957 0.0
C243 C 0.80747 0.19002 0.31909 0.0
C244 C 0.78525 0.1938 0.30033 0.0
C245 C 0.79035 0.21005 0.3011 0.0
U246 U 0.83008 0.25542 0.32711 0.0
O247 O 0.83413 0.27809 0.31633 0.0
O248 O 0.82286 0.27754 0.33865 0.0
C249 C 0.82793 0.28628 0.32773 0.0
C250 C 0.80768 0.23406 0.31292 0.0
C251 C 0.81833 0.29925 0.32344 0.0
C252 C 0.79348 0.30944 0.31434 0.0
C253 C 0.80257 0.29654 0.31646 0.0
C254 C 0.81593 0.32775 0.32577 0.0
C255 C 0.80006 0.32511 0.31924 0.0
C256 C 0.82498 0.31495 0.32779 0.0
C257 C 0.86894 0.25427 0.35336 0.0
C258 C 0.88151 0.27741 0.37029 0.0
C259 C 0.89226 0.25194 0.3715 0.0
C260 C 0.88051 0.24513 0.35964 0.0
C261 C 0.89261 0.26806 0.37734 0.0
C262 C 0.86976 0.27057 0.35843 0.0
C263 C 0.85522 0.2463 0.34291 0.0
O264 O 0.80726 0.24103 0.32733 0.0
O265 O 0.81974 0.23985 0.30574 0.0
O266 O 0.8547 0.24875 0.32779 0.0
O267 O 0.84145 0.24717 0.34873 0.0
H268 H 0.823 0.21113 0.32769 0.0
H269 H 0.81412 0.18257 0.32642 0.0
H270 H 0.77466 0.18928 0.29263 0.0
H271 H 0.78346 0.21765 0.29416 0.0
H272 H 0.78118 0.30718 0.30941 0.0
H273 H 0.79719 0.2845 0.31311 0.0
H274 H 0.82119 0.33971 0.32976 0.0
H275 H 0.83709 0.31729 0.33328 0.0
H276 H 0.88162 0.28992 0.37428 0.0
H277 H 0.90049 0.24434 0.3767 0.0
H278 H 0.88005 0.23253 0.35589 0.0
H279 H 0.86094 0.27784 0.35366 0.0
C280 C 0.6182 0.71139 0.99604 0.0
C281 C 0.60867 0.7235 1.00034 0.0
C282 C 0.62995 0.74361 0.99655 0.0
C283 C 0.61452 0.73947 1.00069 0.0
C284 C 0.63926 0.73136 0.99188 0.0
C285 C 0.63345 0.7154 0.99171 0.0
U286 U 0.58357 0.68069 0.99634 0.0
O287 O 0.57773 0.65657 0.98432 0.0
O288 O 0.58001 0.6604 0.01046 0.0
C289 C 0.57761 0.65004 0.99781 0.0
C290 C 0.61228 0.69462 0.99613 0.0
C291 C 0.5859 0.63571 0.9987 0.0
C292 C 0.60993 0.62217 1.00027 0.0
C293 C 0.60252 0.63625 0.99953 0.0
C294 C 0.5841 0.60717 0.99942 0.0
C295 C 0.60075 0.60748 1.00021 0.0
C296 C 0.57677 0.62117 0.99871 0.0
C297 C 0.54236 0.69312 0.99637 0.0
C298 C 0.51996 0.67286 0.99407 0.0
C299 C 0.51679 0.70012 0.00371 0.0
C300 C 0.5327 0.70453 0.0019 0.0
C301 C 0.51038 0.68426 0.9999 0.0
C302 C 0.53595 0.67723 0.99248 0.0
C303 C 0.55931 0.69763 0.99576 0.0
O304 O 0.60616 0.69106 0.00925 0.0
O305 O 0.60364 0.68829 0.9831 0.0
O306 O 0.56526 0.69215 0.98279 0.0
O307 O 0.56817 0.69598 0.0089 0.0
H308 H 0.59677 0.72058 0.00362 0.0
H309 H 0.60704 0.74852 0.00449 0.0
H310 H 0.65104 0.73406 0.98824 0.0
H311 H 0.64088 0.70618 0.98821 0.0
H312 H 0.62278 0.62277 1.00093 0.0
H313 H 0.6097 0.64748 0.99955 0.0
H314 H 0.57667 0.59605 0.99898 0.0
H315 H 0.56391 0.62062 0.99803 0.0
H316 H 0.51514 0.66059 0.99105 0.0
H317 H 0.50946 0.70911 0.00801 0.0
H318 H 0.53751 0.71679 0.00502 0.0
H319 H 0.54336 0.66822 0.98838 0.0
C320 C 0.6544 0.37701 0.30438 0.0
C321 C 0.64761 0.3862 0.31616 0.0
C322 C 0.65384 0.36741 0.33589 0.0
C323 C 0.64736 0.38148 0.33173 0.0
C324 C 0.6609 0.35852 0.32403 0.0
C325 C 0.66114 0.36324 0.30857 0.0
U326 U 0.64668 0.40309 0.26881 0.0
O327 O 0.66133 0.40722 0.24886 0.0
O328 O 0.63726 0.39503 0.24398 0.0
C329 C 0.65017 0.40055 0.23797 0.0
C330 C 0.65435 0.38097 0.28754 0.0
C331 C 0.65484 0.39209 0.2231 0.0
C332 C 0.65976 0.3683 0.20629 0.0
C333 C 0.65647 0.37566 0.22114 0.0
C334 C 0.65999 0.39363 0.19529 0.0
C335 C 0.66135 0.37715 0.19301 0.0
C336 C 0.65679 0.40092 0.21003 0.0
C337 C 0.62851 0.44395 0.27996 0.0
C338 C 0.61813 0.46415 0.26412 0.0
C339 C 0.61825 0.46732 0.29277 0.0
C340 C 0.62511 0.45296 0.29373 0.0
C341 C 0.61457 0.47301 0.27799 0.0
C342 C 0.62511 0.4497 0.26509 0.0
C343 C 0.63498 0.42844 0.28191 0.0
O344 O 0.64042 0.38073 0.27935 0.0
O345 O 0.66444 0.39278 0.28457 0.0
O346 O 0.65024 0.42757 0.2808 0.0
O347 O 0.62616 0.41544 0.27581 0.0
H348 H 0.64232 0.3969 0.31329 0.0
H349 H 0.64172 0.38866 0.34038 0.0
H350 H 0.66635 0.34785 0.32665 0.0
H351 H 0.66653 0.35596 0.29978 0.0
H352 H 0.66063 0.35559 0.20513 0.0
H353 H 0.65497 0.3685 0.23096 0.0
H354 H 0.66144 0.40105 0.18566 0.0
H355 H 0.65559 0.41358 0.21114 0.0
H356 H 0.61538 0.46832 0.25257 0.0
H357 H 0.61553 0.47387 0.3036 0.0
H358 H 0.62755 0.44875 0.30532 0.0
H359 H 0.62764 0.44297 0.25429 0.0
C360 C 0.01319 0.27465 0.77261 0.0
C361 C 0.01962 0.26322 0.76264 0.0
C362 C 0.01017 0.27565 0.7392 0.0
C363 C 0.01824 0.26379 0.74614 0.0
C364 C 0.00335 0.28673 0.7493 0.0
C365 C 0.00498 0.28633 0.76578 0.0
U366 U 0.00883 0.2466 0.80293 0.0
O367 O 0.01985 0.2442 0.82691 0.0
O368 O 0.9939 0.24499 0.82281 0.0
C369 C 0.00618 0.24408 0.83317 0.0
C370 C 0.01298 0.27303 0.78975 0.0
C371 C 0.00609 0.25263 0.84901 0.0
C372 C 0.01729 0.2727 0.87027 0.0
C373 C 0.01604 0.26661 0.85421 0.0
C374 C 0.99819 0.25132 0.87566 0.0
C375 C 0.00876 0.26473 0.88118 0.0
C376 C 0.99686 0.24536 0.85973 0.0
C377 C 1.00174 0.20379 0.78268 0.0
C378 C 0.99252 0.18057 0.79532 0.0
C379 C 0.99357 0.17893 0.76671 0.0
C380 C 0.99962 0.19481 0.7679 0.0
C381 C 0.9896 0.17181 0.78034 0.0
C382 C 0.99848 0.1966 0.79649 0.0
C383 C 0.00559 0.22092 0.78294 0.0
O384 O 0.99906 0.26756 0.79378 0.0
O385 O 0.02494 0.2663 0.79646 0.0
O386 O 0.01938 0.2269 0.79031 0.0
O387 O 0.99384 0.22946 0.78595 0.0
H388 H 0.0255 0.25366 0.76756 0.0
H389 H 0.02332 0.25479 0.73885 0.0
H390 H 0.99677 0.29588 0.74464 0.0
H391 H 0.99951 0.29495 0.77319 0.0
H392 H 0.02552 0.28306 0.87431 0.0
H393 H 0.02326 0.2724 0.84608 0.0
H394 H 0.99139 0.24507 0.88384 0.0
H395 H 0.98912 0.23458 0.85593 0.0
H396 H 0.98951 0.17524 0.80596 0.0
H397 H 0.99159 0.1723 0.75507 0.0
H398 H 0.00205 0.20026 0.75716 0.0
H399 H 0.99999 0.20351 0.80799 0.0
C400 C 0.31235 0.80571 0.21525 0.0
C401 C 0.3239 0.81241 0.20624 0.0
C402 C 0.31171 0.79623 0.18224 0.0
C403 C 0.32364 0.80764 0.18993 0.0
C404 C 0.29976 0.7901 0.19115 0.0
C405 C 0.30015 0.79473 0.2075 0.0
U406 U 0.32771 0.83101 0.25457 0.0
O407 O 0.31639 0.83552 0.27688 0.0
O408 O 0.33834 0.8235 0.27692 0.0
C409 C 0.32724 0.82879 0.2853 0.0
C410 C 0.31351 0.809 0.23281 0.0
C411 C 0.32214 0.81919 0.29799 0.0
C412 C 0.31886 0.79395 0.30963 0.0
C413 C 0.32079 0.80246 0.29632 0.0
C414 C 0.31889 0.81875 0.32616 0.0
C415 C 0.31844 0.80206 0.32481 0.0
C416 C 0.32071 0.82719 0.31291 0.0
C417 C 0.35481 0.86974 0.25285 0.0
C418 C 0.37278 0.88327 0.27483 0.0
C419 C 0.37209 0.89313 0.24884 0.0
C420 C 0.36017 0.88109 0.24301 0.0
C421 C 0.37889 0.89406 0.26466 0.0
C422 C 0.36085 0.87113 0.26894 0.0
C423 C 0.34427 0.85576 0.24557 0.0
O424 O 0.32761 0.80809 0.24026 0.0
O425 O 0.30647 0.82119 0.23854 0.0
O426 O 0.32911 0.85561 0.24774 0.0
O427 O 0.34988 0.84195 0.24704 0.0
H428 H 0.33339 0.82097 0.21192 0.0
H429 H 0.3329 0.8127 0.18334 0.0
H430 H 0.29049 0.78124 0.18561 0.0
H431 H 0.29115 0.78936 0.2142 0.0
H432 H 0.3186 0.7811 0.30821 0.0
H433 H 0.32192 0.79603 0.28492 0.0
H434 H 0.31838 0.82535 0.33762 0.0
H435 H 0.32178 0.84008 0.31449 0.0
H436 H 0.37784 0.88367 0.28706 0.0
H437 H 0.37641 0.9014 0.24079 0.0
H438 H 0.35562 0.88025 0.23059 0.0
H439 H 0.35684 0.86245 0.27673 0.0
C440 C 0.99668 0.61888 0.71176 0.0
C441 C 0.99848 0.60832 0.72354 0.0
C442 C 0.99627 0.62971 0.74394 0.0
C443 C 0.9984 0.61374 0.73957 0.0
C444 C 0.9944 0.64021 0.73213 0.0
C445 C 0.99468 0.63483 0.71613 0.0
U446 U 0.99603 0.5845 0.68079 0.0
O447 O 0.98398 0.57911 0.65668 0.0
O448 O 0.01009 0.58058 0.66053 0.0
C449 C 0.99746 0.57873 0.65016 0.0
C450 C 0.99682 0.61325 0.69495 0.0
C451 C 0.99855 0.58731 0.63606 0.0
C452 C 0.00335 0.61154 0.62323 0.0
C453 C 0.0024 0.60384 0.63711 0.0
C454 C 0.99642 0.58621 0.6074 0.0
C455 C 1.00044 0.60274 0.60822 0.0
C456 C 0.99557 0.57858 0.62119 0.0
C457 C 0.99443 0.54318 0.69328 0.0
C458 C 0.99933 0.5215 0.67423 0.0
C459 C 0.99462 0.51657 0.70128 0.0
C460 C 0.99272 0.5326 0.70486 0.0
C461 C 0.99838 0.51098 0.68608 0.0
C462 C 0.99738 0.53756 0.67783 0.0
C463 C 0.99422 0.56019 0.69764 0.0
O464 O 0.00969 0.60662 0.69149 0.0
O465 O 0.98358 0.60515 0.68838 0.0
O466 O 0.9816 0.56645 0.6918 0.0
O467 O 0.00766 0.56866 0.69621 0.0
H468 H 0.99994 0.59591 0.72031 0.0
H469 H 0.99975 0.60546 0.74853 0.0
H470 H 0.99283 0.6526 0.73532 0.0
H471 H 0.99331 0.6431 0.70717 0.0
H472 H 0.00648 0.62428 0.62424 0.0
H473 H 0.00467 0.61072 0.64861 0.0
H474 H 0.99367 0.57913 0.59606 0.0
H475 H 0.99247 0.56583 0.62023 0.0
H476 H 0.00219 0.51746 0.66243 0.0
H477 H 0.99345 0.50859 0.7105 0.0
H478 H 0.99033 0.53679 0.71678 0.0
H479 H 0.99868 0.54569 0.66875 0.0
C480 C 0.70091 0.35501 0.63006 0.0
C481 C 0.68883 0.36063 0.6202 0.0
C482 C 0.66929 0.35515 0.63934 0.0
C483 C 0.6732 0.36067 0.62477 0.0
C484 C 0.68147 0.34935 0.64897 0.0
C485 C 0.69698 0.3493 0.6444 0.0
U486 U 0.73624 0.36262 0.60379 0.0
O487 O 0.76128 0.37139 0.61162 0.0
O488 O 0.75571 0.34756 0.59898 0.0
C489 C 0.7669 0.35831 0.60589 0.0
C490 C 0.71771 0.35496 0.62605 0.0
C491 C 0.78126 0.35283 0.61456 0.0
C492 C 0.79861 0.35011 0.63868 0.0
C493 C 0.78407 0.35405 0.63126 0.0
C494 C 0.80766 0.34355 0.61291 0.0
C495 C 0.81079 0.345 0.62961 0.0
C496 C 0.79319 0.3474 0.60557 0.0
C497 C 0.72399 0.38131 0.56329 0.0
C498 C 0.73835 0.39093 0.54171 0.0
C499 C 0.70993 0.39217 0.54101 0.0
C500 C 0.70988 0.3853 0.5554 0.0
C501 C 0.72416 0.39533 0.53401 0.0
C502 C 0.73829 0.38403 0.55628 0.0
C503 C 0.72291 0.37475 0.57886 0.0
O504 O 0.72048 0.34494 0.61411 0.0
O505 O 0.72603 0.36884 0.62637 0.0
O506 O 0.7295 0.38345 0.59173 0.0
O507 O 0.72383 0.35942 0.57952 0.0
H508 H 0.6915 0.3651 0.60906 0.0
H509 H 0.66427 0.36533 0.61703 0.0
H510 H 0.67903 0.34469 0.66008 0.0
H511 H 0.706 0.34479 0.65219 0.0
H512 H 0.80046 0.35152 0.65154 0.0
H513 H 0.77518 0.3583 0.63856 0.0
H514 H 0.81642 0.33939 0.60539 0.0
H515 H 0.79145 0.34642 0.59269 0.0
H516 H 0.74955 0.3932 0.53671 0.0
H517 H 0.69872 0.395 0.53535 0.0
H518 H 0.69869 0.38323 0.5605 0.0
H519 H 0.74934 0.38102 0.56212 0.0
C520 C 0.78656 0.68944 0.20323 0.0
C521 C 0.79678 0.68103 0.19418 0.0
C522 C 0.81948 0.69092 0.21342 0.0
C523 C 0.81312 0.68183 0.19919 0.0
C524 C 0.80921 0.69966 0.22211 0.0
C525 C 0.79298 0.69893 0.21706 0.0
U526 U 0.74812 0.67331 0.17667 0.0
O527 O 0.72559 0.66244 0.18362 0.0
O528 O 0.7258 0.68433 0.17152 0.0
C529 C 0.71723 0.67337 0.17795 0.0
C530 C 0.76912 0.68777 0.19921 0.0
C531 C 0.70432 0.67847 0.18718 0.0
C532 C 0.69387 0.68734 0.21193 0.0
C533 C 0.70687 0.68434 0.20328 0.0
C534 C 0.67584 0.67895 0.18836 0.0
C535 C 0.67813 0.68438 0.20464 0.0
C536 C 0.68877 0.67609 0.17977 0.0
C537 C 0.74926 0.64641 0.13845 0.0
C538 C 0.72725 0.62727 0.12722 0.0
C539 C 0.75053 0.63141 0.1129 0.0
C540 C 0.75731 0.6429 0.12503 0.0
C541 C 0.73565 0.62316 0.11414 0.0
C542 C 0.73395 0.6389 0.13924 0.0
C543 C 0.75743 0.65683 0.1521 0.0
O544 O 0.76366 0.69472 0.18685 0.0
O545 O 0.76196 0.67348 0.19986 0.0
O546 O 0.75627 0.65133 0.166 0.0
O547 O 0.75546 0.67206 0.15228 0.0
H548 H 0.79207 0.67358 0.18347 0.0
H549 H 0.82066 0.6749 0.19223 0.0
H550 H 0.81371 0.70698 0.23296 0.0
H551 H 0.78533 0.70554 0.2242 0.0
H552 H 0.69616 0.69172 0.22438 0.0
H553 H 0.71881 0.68625 0.20923 0.0
H554 H 0.66401 0.67619 0.18232 0.0
H555 H 0.68656 0.67144 0.16737 0.0
H556 H 0.7157 0.62115 0.12836 0.0
H557 H 0.75728 0.62837 0.10298 0.0
H558 H 0.76912 0.6486 0.12422 0.0
H559 H 0.72746 0.64155 0.14945 0.0
C560 C 0.29108 0.99406 0.38407 0.0
C561 C 0.27995 0.99827 0.39463 0.0
C562 C 0.25935 0.99656 0.37258 0.0
C563 C 0.26424 0.9996 0.38893 0.0
C564 C 0.27045 0.99171 0.36217 0.0
C565 C 0.28621 0.99056 0.36788 0.0
U566 U 0.32101 0.99315 0.41884 0.0
O567 O 0.343 0.98151 0.42251 0.0
O568 O 0.34361 0.00759 0.42638 0.0
C569 C 0.35182 0.99514 0.42592 0.0
C570 C 0.3078 0.99377 0.38995 0.0
C571 C 0.36641 0.99692 0.41805 0.0
C572 C 0.38061 0.99635 0.39443 0.0
C573 C 0.36632 0.99456 0.40145 0.0
C574 C 0.39495 0.00303 0.42055 0.0
C575 C 0.39506 1.00048 0.40396 0.0
C576 C 0.38073 1.00125 0.42751 0.0
C577 C 0.30728 0.99228 0.45935 0.0
C578 C 0.32724 0.99703 0.48196 0.0
C579 C 0.2993 0.99237 0.48599 0.0
C580 C 0.29534 0.99064 0.46958 0.0
C581 C 0.31525 0.99587 0.49232 0.0
C582 C 0.32327 0.99523 0.46556 0.0
C583 C 0.30308 0.99171 0.44225 0.0
O584 O 0.31392 0.00666 0.39894 0.0
O585 O 0.31139 0.98049 0.39574 0.0
O586 O 0.30673 0.97896 0.43391 0.0
O587 O 0.30716 0.00503 0.43616 0.0
H588 H 0.28352 1.0009 0.40725 0.0
H589 H 0.25608 0.00349 0.39728 0.0
H590 H 0.267 0.9889 0.34957 0.0
H591 H 0.29464 0.98713 0.35962 0.0
H592 H 0.3804 0.9943 0.38162 0.0
H593 H 0.35527 0.9913 0.39401 0.0
H594 H 0.40585 0.00655 0.42815 0.0
H595 H 0.38092 0.00327 0.44033 0.0
H596 H 0.3396 0.99977 0.48652 0.0
H597 H 0.28985 0.99106 0.49372 0.0
H598 H 0.28298 0.98827 0.4649 0.0
H599 H 0.33262 0.99651 0.45771 0.0
C600 C 0.2294 1.00093 0.72483 0.0
C601 C 0.2404 0.01079 0.7356 0.0
C602 C 0.26226 0.99793 0.72513 0.0
C603 C 0.25667 0.0094 0.73566 0.0
C604 C 0.25117 0.98809 0.71442 0.0
C605 C 0.23491 0.98963 0.71419 0.0
U606 U 0.20052 0.00745 0.75336 0.0
O607 O 0.17816 0.01858 0.75413 0.0
O608 O 0.17911 0.99364 0.75943 0.0
C609 C 0.17027 0.00545 0.75758 0.0
C610 C 0.21233 1.00071 0.72663 0.0
C611 C 0.15424 1.00126 0.74953 0.0
C612 C 0.1334 0.00379 0.72854 0.0
C613 C 0.14947 0.00607 0.73452 0.0
C614 C 0.12709 0.99125 0.75214 0.0
C615 C 0.12206 0.99684 0.73761 0.0
C616 C 0.14302 0.99345 0.75803 0.0
C617 C 0.22216 0.01965 0.79478 0.0
C618 C 0.20915 0.02449 0.81883 0.0
C619 C 0.2379 0.02502 0.82011 0.0
C620 C 0.23695 0.02168 0.80371 0.0
C621 C 0.22402 0.02635 0.82784 0.0
C622 C 0.20821 0.02108 0.80232 0.0
C623 C 0.2217 0.0156 0.77769 0.0
O624 O 0.20711 0.98961 0.73531 0.0
O625 O 0.20731 0.01469 0.73041 0.0
O626 O 0.21587 0.02595 0.76867 0.0
O627 O 0.21665 1.00076 0.77276 0.0
H628 H 0.23638 0.01929 0.7443 0.0
H629 H 0.26482 0.01699 0.74425 0.0
H630 H 0.25498 0.97904 0.70632 0.0
H631 H 0.22662 0.98162 0.70612 0.0
H632 H 0.12975 0.00814 0.71728 0.0
H633 H 0.158 0.01207 0.72774 0.0
H634 H 0.11859 0.98562 0.75922 0.0
H635 H 0.14649 0.98962 0.76959 0.0
H636 H 0.1983 0.02541 0.82456 0.0
H637 H 0.24952 0.02669 0.82676 0.0
H638 H 0.24779 0.02061 0.79798 0.0
H639 H 0.19668 0.01944 0.79547 0.0
C640 C 0.62876 0.70008 0.35452 0.0
C641 C 0.62125 0.68885 0.3634 0.0
C642 C 0.63852 0.66856 0.35453 0.0
C643 C 0.62605 0.67329 0.36339 0.0
C644 C 0.64571 0.67986 0.34546 0.0
C645 C 0.64092 0.69531 0.34549 0.0
U646 U 0.60293 0.73595 0.36238 0.0
O647 O 0.61129 0.7608 0.37163 0.0
O648 O 0.59912 0.75581 0.34755 0.0
C649 C 0.60589 0.76675 0.35862 0.0
C650 C 0.62483 0.71695 0.35475 0.0
C651 C 0.61459 0.78139 0.35377 0.0
C652 C 0.63786 0.79672 0.34557 0.0
C653 C 0.63027 0.78219 0.34944 0.0
C654 C 0.61423 0.8097 0.35017 0.0
C655 C 0.63 0.8108 0.34605 0.0
C656 C 0.60672 0.79529 0.35395 0.0
C657 C 0.56193 0.72523 0.38068 0.0
C658 C 0.54075 0.74084 0.38925 0.0
C659 C 0.53925 0.71264 0.39225 0.0
C660 C 0.55365 0.71167 0.3855 0.0
C661 C 0.53265 0.72719 0.39426 0.0
C662 C 0.55534 0.73988 0.38253 0.0
C663 C 0.57744 0.72327 0.37417 0.0
O664 O 0.61311 0.72004 0.34464 0.0
O665 O 0.62507 0.72509 0.36871 0.0
O666 O 0.59048 0.72926 0.38297 0.0
O667 O 0.57833 0.72431 0.3589 0.0
H668 H 0.61184 0.69216 0.37051 0.0
H669 H 0.62023 0.6651 0.37064 0.0
H670 H 0.65506 0.67678 0.3382 0.0
H671 H 0.6469 0.70367 0.3385 0.0
H672 H 0.65001 0.79699 0.34254 0.0
H673 H 0.63667 0.77168 0.3492 0.0
H674 H 0.60753 0.82 0.35038 0.0
H675 H 0.59462 0.79506 0.35718 0.0
H676 H 0.53593 0.75223 0.39078 0.0
H677 H 0.53329 0.70198 0.39604 0.0
H678 H 0.55846 0.70024 0.3842 0.0
H679 H 0.5615 0.75053 0.37893 0.0
C680 C 0.7268 0.2317 0.99421 0.0
C681 C 0.73829 0.24105 0.98715 0.0
C682 C 0.72461 0.26458 0.99276 0.0
C683 C 0.73704 0.25729 0.98619 0.0
C684 C 0.71353 0.25537 1.00041 0.0
C685 C 0.71444 0.23902 1.00086 0.0
U686 U 0.75452 0.20193 0.00379 0.0
O687 O 0.75392 0.18091 0.01742 0.0
O688 O 0.75921 0.17879 0.99236 0.0
C689 C 0.75757 0.17158 0.00531 0.0
C690 C 0.72851 0.21472 0.99591 0.0
C691 C 0.75045 0.15504 0.00314 0.0
C692 C 0.72865 0.13445 0.99536 0.0
C693 C 0.73427 0.15065 0.99833 0.0
C694 C 0.75525 0.12725 0.00222 0.0
C695 C 0.73922 0.12264 0.99698 0.0
C696 C 0.76077 0.14326 0.00526 0.0
C697 C 0.79717 0.22129 0.01391 0.0
C698 C 0.81947 0.20853 0.02522 0.0
C699 C 0.82388 0.23414 0.01477 0.0
C700 C 0.80761 0.23406 0.01073 0.0
C701 C 0.82993 0.22144 0.02214 0.0
C702 C 0.80313 0.20839 0.021 0.0
C703 C 0.78016 0.22187 0.00976 0.0
O704 O 0.73664 0.20759 0.98532 0.0
O705 O 0.73241 0.21139 0.01053 0.0
O706 O 0.77081 0.21813 0.0207 0.0
O707 O 0.77477 0.21565 0.99537 0.0
H708 H 0.74832 0.23584 0.98243 0.0
H709 H 0.74592 0.26422 0.98058 0.0
H710 H 0.70404 0.26071 0.00594 0.0
H711 H 0.70565 0.23215 0.00665 0.0
H712 H 0.71622 0.13117 0.99137 0.0
H713 H 0.72615 0.15965 0.99662 0.0
H714 H 0.76361 0.11843 0.00388 0.0
H715 H 0.77328 0.14646 0.00899 0.0
H716 H 0.82392 0.19861 0.03088 0.0
H717 H 0.83169 0.24434 0.01251 0.0
H718 H 0.80315 0.24409 0.00526 0.0
H719 H 0.79517 0.19835 0.02341 0.0
C720 C 0.20141 0.78742 0.68677 0.0
C721 C 0.19061 0.79797 0.68159 0.0
C722 C 0.21045 0.82079 0.68966 0.0
C723 C 0.19506 0.81448 0.68307 0.0
C724 C 0.22107 0.81004 0.69496 0.0
C725 C 0.21658 0.79364 0.69357 0.0
U726 U 0.17569 0.74813 0.67031 0.0
O727 O 0.18358 0.7261 0.65915 0.0
O728 O 0.17197 0.72559 0.68132 0.0
C729 C 0.17833 0.71741 0.67002 0.0
C730 C 0.19763 0.7699 0.68468 0.0
C731 C 0.18738 0.70405 0.67423 0.0
C732 C 0.20925 0.69242 0.68811 0.0
C733 C 0.20107 0.70576 0.68505 0.0
C734 C 0.19015 0.67578 0.66951 0.0
C735 C 0.20392 0.67719 0.6803 0.0
C736 C 0.18199 0.68897 0.66664 0.0
C737 C 0.13692 0.74734 0.64365 0.0
C738 C 0.12633 0.72449 0.62517 0.0
C739 C 0.11143 0.74751 0.62808 0.0
C740 C 0.12331 0.75493 0.63954 0.0
C741 C 0.11305 0.7324 0.62043 0.0
C742 C 0.13812 0.73186 0.63674 0.0
C743 C 0.15031 0.75617 0.65402 0.0
O744 O 0.1855 0.76395 0.69166 0.0
O745 O 0.19828 0.76304 0.67027 0.0
O746 O 0.16424 0.75579 0.64842 0.0
O747 O 0.15082 0.75417 0.66925 0.0
H748 H 0.17882 0.79343 0.67627 0.0
H749 H 0.1864 0.82225 0.67903 0.0
H750 H 0.2331 0.81418 0.69978 0.0
H751 H 0.22515 0.78573 0.69756 0.0
H752 H 0.21969 0.69407 0.6966 0.0
H753 H 0.20543 0.71734 0.69104 0.0
H754 H 0.18578 0.66455 0.66284 0.0
H755 H 0.17148 0.68741 0.6582 0.0
H756 H 0.12781 0.71279 0.61959 0.0
H757 H 0.10141 0.75395 0.6246 0.0
H758 H 0.12216 0.76687 0.64474 0.0
H759 H 0.14847 0.72572 0.63982 0.0
C760 C 0.38345 0.29173 0.99687 0.0
C761 C 0.39156 0.2793 0.99041 0.0
C762 C 0.37177 0.25974 0.99843 0.0
C763 C 0.38572 0.26343 0.99111 0.0
C764 C 0.36391 0.27231 0.0051 0.0
C765 C 0.36966 0.28812 0.00426 0.0
U766 U 0.41805 0.3226 0.99547 0.0
O767 O 0.42071 0.34426 0.98305 0.0
O768 O 0.42477 0.34578 0.00915 0.0
C769 C 0.4242 0.35353 0.99639 0.0
C770 C 0.38955 0.30847 0.99659 0.0
C771 C 0.41667 0.3684 0.99768 0.0
C772 C 0.39365 0.38328 0.99971 0.0
C773 C 0.40018 0.36868 0.99783 0.0
C774 C 0.42006 0.39718 1.00118 0.0
C775 C 0.40357 0.39767 1.00143 0.0
C776 C 0.42652 0.38268 0.99931 0.0
C777 C 0.45931 0.31048 0.99441 0.0
C778 C 0.48089 0.33034 0.99107 0.0
C779 C 0.48655 0.30502 1.00054 0.0
C780 C 0.47032 0.30022 0.99953 0.0
C781 C 0.49188 0.3201 0.99635 0.0
C782 C 0.46463 0.32562 0.99027 0.0
C783 C 0.44232 0.30573 0.99439 0.0
O784 O 0.39868 0.31461 0.00938 0.0
O785 O 0.39507 0.31224 0.98324 0.0
O786 O 0.43341 0.30841 0.98159 0.0
O787 O 0.43639 0.31009 0.00771 0.0
H788 H 0.40239 0.28186 0.98483 0.0
H789 H 0.39204 0.2541 0.98576 0.0
H790 H 0.35338 0.26997 0.01119 0.0
H791 H 0.36341 0.29757 0.00952 0.0
H792 H 0.38089 0.38332 0.99977 0.0
H793 H 0.39244 0.35769 0.99662 0.0
H794 H 0.42805 0.40801 0.00279 0.0
H795 H 0.43929 0.38261 0.99934 0.0
H796 H 0.48488 0.34199 0.98777 0.0
H797 H 0.49496 0.29691 0.00443 0.0
H798 H 0.46637 0.28858 0.00287 0.0
H799 H 0.45621 0.33378 0.98652 0.0
C800 C 0.35446 0.62967 0.70027 0.0
C801 C 0.36107 0.62038 0.68842 0.0
C802 C 0.35474 0.63915 0.66871 0.0
C803 C 0.36116 0.62504 0.67282 0.0
C804 C 0.34795 0.64819 0.68066 0.0
C805 C 0.34784 0.64352 0.69614 0.0
U806 U 0.362 0.60364 0.73597 0.0
O807 O 0.37151 0.6117 0.76082 0.0
O808 O 0.34723 0.60006 0.75588 0.0
C809 C 0.35843 0.60659 0.7668 0.0
C810 C 0.35448 0.62569 0.71709 0.0
C811 C 0.35379 0.61555 0.78141 0.0
C812 C 0.34077 0.63649 0.79562 0.0
C813 C 0.34497 0.62887 0.78124 0.0
C814 C 0.35406 0.61759 0.81041 0.0
C815 C 0.34534 0.631 0.81049 0.0
C816 C 0.35819 0.61005 0.79616 0.0
C817 C 0.38058 0.56282 0.72454 0.0
C818 C 0.38558 0.53907 0.7379 0.0
C819 C 0.39461 0.54194 0.71195 0.0
C820 C 0.38835 0.55666 0.71178 0.0
C821 C 0.39325 0.53278 0.72492 0.0
C822 C 0.37926 0.55394 0.73769 0.0
C823 C 0.37383 0.57829 0.72308 0.0
O824 O 0.34437 0.61389 0.72003 0.0
O825 O 0.36838 0.62593 0.72533 0.0
O826 O 0.38262 0.59136 0.72899 0.0
O827 O 0.35858 0.57901 0.72439 0.0
H828 H 0.36628 0.60963 0.69125 0.0
H829 H 0.36661 0.61777 0.66408 0.0
H830 H 0.34258 0.65891 0.67807 0.0
H831 H 0.3426 0.65088 0.70499 0.0
H832 H 0.33414 0.64681 0.79509 0.0
H833 H 0.34135 0.63338 0.77005 0.0
H834 H 0.35755 0.61269 0.82142 0.0
H835 H 0.36483 0.59972 0.79669 0.0
H836 H 0.38421 0.5324 0.7481 0.0
H837 H 0.40072 0.53787 0.7019 0.0
H838 H 0.38956 0.56327 0.70151 0.0
H839 H 0.37329 0.55842 0.7477 0.0
C840 C 0.99606 0.72725 0.2294 0.0
C841 C 0.99336 0.74083 0.23923 0.0
C842 C 0.99622 0.72632 0.26246 0.0
C843 C 0.99326 0.7403 0.25561 0.0
C844 C 0.99944 0.71288 0.25275 0.0
C845 C 0.9992 0.71329 0.23626 0.0
U846 U 0.00262 0.7548 0.1995 0.0
O847 O 0.01557 0.75532 0.17815 0.0
O848 O 0.99016 0.75919 0.17673 0.0
C849 C 0.00288 0.75801 0.16908 0.0
C850 C 0.99665 0.72837 0.21224 0.0
C851 C 1.0004 0.74956 0.15311 0.0
C852 C 0.99523 0.72562 0.13468 0.0
C853 C 0.99753 0.73291 0.15035 0.0
C854 C 0.99867 0.75156 0.12474 0.0
C855 C 0.9959 0.73498 0.12184 0.0
C856 C 1.00086 0.75878 0.14024 0.0
C857 C 0.01243 0.79709 0.2209 0.0
C858 C 0.02045 0.82111 0.20894 0.0
C859 C 0.01839 0.82198 0.23737 0.0
C860 C 0.01359 0.80578 0.2358 0.0
C861 C 0.02212 0.82973 0.22402 0.0
C862 C 0.01567 0.80477 0.20738 0.0
C863 C 0.0084 0.77995 0.22011 0.0
O864 O 0.98533 0.73601 0.20564 0.0
O865 O 0.01083 0.73287 0.20815 0.0
O866 O 0.01948 0.77111 0.21566 0.0
O867 O 0.99404 0.77464 0.21373 0.0
H868 H 0.9913 0.75187 0.23424 0.0
H869 H 0.99095 0.75082 0.26295 0.0
H870 H 0.00192 0.702 0.25785 0.0
H871 H 1.00157 0.70281 0.22892 0.0
H872 H 0.99314 0.71278 0.13259 0.0
H873 H 0.99712 0.72564 0.16023 0.0
H874 H 0.99917 0.75895 0.11495 0.0
H875 H 0.00297 0.77164 0.14218 0.0
H876 H 0.02331 0.82688 0.1985 0.0
H877 H 0.01937 0.82845 0.24908 0.0
H878 H 0.01103 0.79996 0.2463 0.0
H879 H 0.0148 0.79811 0.19578 0.0
C880 C 0.68678 0.20014 0.78615 0.0
C881 C 0.68024 0.19008 0.79672 0.0
C882 C 0.68897 0.21002 0.81922 0.0
C883 C 0.68143 0.19494 0.81315 0.0
C884 C 0.69577 0.21981 0.80857 0.0
C885 C 0.69473 0.21491 0.79227 0.0
U886 U 0.67061 0.17441 0.74663 0.0
O887 O 0.66048 0.18247 0.72436 0.0
O888 O 0.68234 0.17037 0.72449 0.0
C889 C 0.67182 0.17754 0.71611 0.0
C890 C 0.68494 0.19613 0.76866 0.0
C891 C 0.67759 0.18796 0.7043 0.0
C892 C 0.67954 0.21365 0.69343 0.0
C893 C 0.67697 0.20454 0.70616 0.0
C894 C 0.68447 0.18996 0.67719 0.0
C895 C 0.68297 0.20638 0.67872 0.0
C896 C 0.68172 0.18084 0.68984 0.0
C897 C 0.64305 0.1359 0.74586 0.0
C898 C 0.62512 0.12446 0.72292 0.0
C899 C 0.62682 0.11097 0.74694 0.0
C900 C 0.63832 0.12292 0.75408 0.0
C901 C 0.61975 0.11181 0.73142 0.0
C902 C 0.6367 0.13639 0.73006 0.0
C903 C 0.65348 0.1494 0.7544 0.0
O904 O 0.69173 0.18374 0.763 0.0
O905 O 0.67073 0.19707 0.76149 0.0
O906 O 0.64816 0.16343 0.75352 0.0
O907 O 0.66876 0.14955 0.75277 0.0
H908 H 0.674 0.17864 0.79226 0.0
H909 H 0.676 0.18714 0.82102 0.0
H910 H 0.70184 0.23138 0.81283 0.0
H911 H 0.69991 0.22285 0.78436 0.0
H912 H 0.67837 0.22631 0.6949 0.0
H913 H 0.67379 0.21033 0.71718 0.0
H914 H 0.68687 0.18404 0.66593 0.0
H915 H 0.68206 0.16806 0.68805 0.0
H916 H 0.62007 0.12536 0.71088 0.0
H917 H 0.62286 0.10152 0.7539 0.0
H918 H 0.64307 0.12234 0.76628 0.0
H919 H 0.64027 0.14627 0.72346 0.0
C920 C 0.99551 0.3816 0.29051 0.0
C921 C 0.99225 0.39159 0.2785 0.0
C922 C 0.99726 0.37084 0.25841 0.0
C923 C 0.99307 0.38624 0.26256 0.0
C924 C 1.00068 0.36098 0.27055 0.0
C925 C 0.99978 0.36632 0.28647 0.0
U926 U 0.99512 0.41628 0.32065 0.0
O927 O 0.9818 0.42021 0.34157 0.0
O928 O 0.00796 0.42319 0.34412 0.0
C929 C 0.99486 0.42308 0.35133 0.0
C930 C 0.99506 0.38734 0.30726 0.0
C931 C 0.99525 0.41496 0.36584 0.0
C932 C 0.00196 0.39276 0.38047 0.0
C933 C 0.9996 0.39938 0.36602 0.0
C934 C 0.99491 0.417 0.39441 0.0
C935 C 1.00006 0.40171 0.39483 0.0
C936 C 0.99256 0.42357 0.38002 0.0
C937 C 0.99693 0.45698 0.30664 0.0
C938 C 0.99568 0.47981 0.32569 0.0
C939 C 0.99925 0.48341 0.29808 0.0
C940 C 0.99908 0.46704 0.29466 0.0
C941 C 0.99732 0.48986 0.31355 0.0
C942 C 0.99543 0.46338 0.32223 0.0
C943 C 0.9963 0.43984 0.30281 0.0
O944 O 0.0081 0.39581 0.31379 0.0
O945 O 0.98197 0.39365 0.31058 0.0
O946 O 0.98289 0.43184 0.30529 0.0
O947 O 0.00902 0.43348 0.30823 0.0
H948 H 0.98908 0.40354 0.28147 0.0
H949 H 0.99026 0.39408 0.25351 0.0
H950 H 0.00427 0.34918 0.26778 0.0
H951 H 0.00254 0.35857 0.29562 0.0
H952 H 0.00594 0.38096 0.38048 0.0
H953 H 1.00171 0.39261 0.35509 0.0
H954 H 0.99302 0.42402 0.40527 0.0
H955 H 0.98915 0.4356 0.38001 0.0
H956 H 0.99411 0.48462 0.33767 0.0
H957 H 1.00072 0.49106 0.28862 0.0
H958 H 1.00043 0.46222 0.28264 0.0
H959 H 0.99386 0.45566 0.33162 0.0
H960 H 0.27217 0.55088 0.62263 0.0
H961 H 0.3051 0.51581 0.61401 0.0
H962 H 0.29048 0.526 0.66095 0.0
C963 C 0.27913 0.54163 0.62674 0.0
C964 C 0.27985 0.53905 0.64279 0.0
C965 C 0.28856 0.53386 0.61631 0.0
C966 C 0.29746 0.52165 0.62177 0.0
C967 C 0.29771 0.51832 0.63791 0.0
C968 C 0.2893 0.52754 0.64835 0.0
N969 N 0.30895 0.50873 0.64489 0.0
C970 C 0.31094 0.49273 0.64061 0.0
H971 H 0.3399 0.51322 0.99192 0.0
H972 H 0.29808 0.53671 0.98078 0.0
H973 H 0.33335 0.5574 0.01822 0.0
C974 C 0.33321 0.52349 0.99342 0.0
C975 C 0.33865 0.53559 0.0055 0.0
C976 C 0.31861 0.52363 0.98443 0.0
C977 C 0.30951 0.53638 0.98747 0.0
C978 C 0.31492 0.54877 0.99928 0.0
C979 C 0.32953 0.54837 0.00845 0.0
N980 N 0.30457 0.56056 0.00257 0.0
C981 C 0.30952 0.57651 0.00674 0.0
H982 H 0.68756 0.97293 0.35427 0.0
H983 H 0.71258 0.0163 0.34449 0.0
H984 H 0.71143 0.97422 0.31156 0.0
C985 C 0.69411 0.97939 0.34606 0.0
C986 C 0.69773 0.97147 0.3318 0.0
C987 C 0.699 0.99547 0.35033 0.0
C988 C 0.70871 0.00388 0.3409 0.0
C989 C 0.71351 0.99628 0.32704 0.0
C990 C 0.70801 0.97999 0.32247 0.0
N991 N 0.72372 0.00482 0.31756 0.0
C992 C 0.72868 0.02119 0.32009 0.0
H993 H 0.73595 0.96274 0.01353 0.0
H994 H 0.72221 0.91247 0.00586 0.0
H995 H 0.71188 0.94278 0.96866 0.0
C996 C 0.73093 0.95238 0.00564 0.0
C997 C 0.72432 0.95439 0.99042 0.0
C998 C 0.73013 0.93735 0.01124 0.0
C999 C 0.72304 0.92405 1.00133 0.0
C1000 C 0.71659 0.92596 0.98577 0.0
C1001 C 0.71735 0.94118 0.98037 0.0
N1002 N 0.70866 0.91304 0.97552 0.0
C1003 C 0.7023 0.89906 0.98089 0.0
H1004 H 0.61865 0.27124 0.54792 0.0
H1005 H 0.61499 0.30542 0.51349 0.0
H1006 H 0.6604 0.28931 0.52783 0.0
C1007 C 0.62425 0.27869 0.53982 0.0
C1008 C 0.64075 0.27972 0.53972 0.0
C1009 C 0.61507 0.28895 0.53177 0.0
C1010 C 0.62188 0.29749 0.51996 0.0
C1011 C 0.63824 0.29668 0.51773 0.0
C1012 C 0.64763 0.28842 0.52826 0.0
N1013 N 0.64644 0.30595 0.50712 0.0
C1014 C 0.64109 0.31002 0.49201 0.0
H1015 H 0.0141 0.74368 0.95931 0.0
H1016 H 0.00684 0.72019 0.91202 0.0
H1017 H 0.97421 0.70859 0.94635 0.0
C1018 C 0.00689 0.73544 0.95045 0.0
C1019 C 0.99373 0.72628 0.95486 0.0
C1020 C 0.01182 0.73308 0.93519 0.0
C1021 C 0.0028 0.7222 0.92374 0.0
C1022 C 0.9888 0.7138 0.92765 0.0
C1023 C 0.98443 0.71582 0.94321 0.0
N1024 N 0.97925 0.70266 0.91653 0.0
C1025 C 0.98313 0.69828 0.9013 0.0
H1026 H 0.9858 0.33968 0.5167 0.0
H1027 H 0.98282 0.29663 0.53966 0.0
H1028 H 0.01957 0.33402 0.55619 0.0
C1029 C 0.98945 0.33318 0.52668 0.0
C1030 C 0.00317 0.33894 0.53668 0.0
C1031 C 0.98226 0.31787 0.52747 0.0
C1032 C 0.98791 0.30877 0.53936 0.0
C1033 C 1.00071 0.31499 0.55038 0.0
C1034 C 0.0086 0.32999 0.54885 0.0
N1035 N 0.0071 0.30494 0.56118 0.0
C1036 C 0.00824 0.30871 0.57749 0.0
H1037 H 0.3435 0.68249 0.97255 0.0
H1038 H 0.34743 0.71956 0.01088 0.0
H1039 H 0.3123 0.71972 0.97107 0.0
C1040 C 0.33911 0.69308 0.97809 0.0
C1041 C 0.32783 0.70071 0.96936 0.0
C1042 C 0.34725 0.70054 0.9922 0.0
C1043 C 0.34117 0.71365 1.0 0.0
C1044 C 0.32754 0.71975 0.99317 0.0
C1045 C 0.32147 0.71384 0.97728 0.0
N1046 N 0.32082 0.73273 1.00127 0.0
C1047 C 0.32286 0.73747 0.01775 0.0
H1048 H 0.55276 0.62214 0.27497 0.0
H1049 H 0.51322 0.61439 0.30309 0.0
H1050 H 0.52576 0.66074 0.28775 0.0
C1051 C 0.5427 0.62643 0.28056 0.0
C1052 C 0.54016 0.64239 0.28022 0.0
C1053 C 0.53345 0.61621 0.28902 0.0
C1054 C 0.52024 0.62197 0.29618 0.0
C1055 C 0.51719 0.63815 0.29539 0.0
C1056 C 0.5274 0.64818 0.28755 0.0
N1057 N 0.50589 0.64578 0.30423 0.0
C1058 C 0.49103 0.63985 0.30832 0.0
H1059 H 0.96248 0.01433 0.73723 0.0
H1060 H 0.91269 0.00724 0.72176 0.0
H1061 H 0.94332 0.97095 0.70949 0.0
C1062 C 0.95237 0.00668 0.73133 0.0
C1063 C 0.95473 0.99189 0.72372 0.0
C1064 C 0.93728 0.01215 0.73094 0.0
C1065 C 0.92434 0.0029 0.72226 0.0
C1066 C 0.92657 0.98791 0.71453 0.0
C1067 C 0.94171 0.98248 0.71542 0.0
N1068 N 0.91393 0.97795 0.70576 0.0
C1069 C 0.89922 0.98295 0.70132 0.0
H1070 H 0.52186 0.98369 0.34457 0.0
H1071 H 0.53691 0.98718 0.29786 0.0
H1072 H 0.55641 0.02138 0.33624 0.0
C1073 C 0.52987 0.989 0.33679 0.0
C1074 C 0.539 0.00332 0.34226 0.0
C1075 C 0.52783 0.9839 0.32053 0.0
C1076 C 0.53823 0.9908 0.31051 0.0
C1077 C 0.54959 0.00341 0.3166 0.0
C1078 C 0.54954 0.0101 0.33233 0.0
N1079 N 0.55891 0.01109 0.30603 0.0
C1080 C 0.57534 0.01157 0.30761 0.0
H1081 H 0.96724 0.35243 0.693 0.0
H1082 H 0.0112 0.34755 0.7203 0.0
H1083 H 0.97322 0.30946 0.7153 0.0
C1084 C 0.9745 0.34525 0.70012 0.0
C1085 C 0.96828 0.33012 0.70306 0.0
C1086 C 0.98994 0.35133 0.70595 0.0
C1087 C 0.99932 0.34262 0.71566 0.0
C1088 C 0.99358 0.32738 0.71893 0.0
C1089 C 0.97782 0.32121 0.71284 0.0
N1090 N 0.00344 0.318 0.72804 0.0
C1091 C 0.01992 0.32107 0.73222 0.0
H1092 H 0.71559 0.44528 0.37692 0.0
H1093 H 0.70975 0.49452 0.39014 0.0
H1094 H 0.72349 0.47972 0.34379 0.0
C1095 C 0.71576 0.4575 0.37398 0.0
C1096 C 0.72096 0.46115 0.35946 0.0
C1097 C 0.71348 0.46947 0.38583 0.0
C1098 C 0.71178 0.48505 0.38134 0.0
C1099 C 0.71422 0.48848 0.36553 0.0
C1100 C 0.71969 0.47663 0.35509 0.0
N1101 N 0.71421 0.50412 0.36037 0.0
C1102 C 0.70429 0.5161 0.36389 0.0
H1103 H 0.67378 0.49189 1.00066 0.0
H1104 H 0.69621 0.46132 0.03159 0.0
H1105 H 0.65785 0.44209 0.99676 0.0
C1106 C 0.67556 0.48001 0.00385 0.0
C1107 C 0.66514 0.46715 0.99659 0.0
C1108 C 0.68673 0.4782 0.01652 0.0
C1109 C 0.68786 0.463 0.02159 0.0
C1110 C 0.67788 0.4499 0.01413 0.0
C1111 C 0.66634 0.45197 0.00171 0.0
N1112 N 0.6782 0.43522 0.02074 0.0
C1113 C 0.68246 0.42171 0.01239 0.0
H1114 H 0.321 0.03223 0.65341 0.0
H1115 H 0.29553 0.98836 0.66152 0.0
H1116 H 0.29418 0.03029 0.69414 0.0
C1117 C 0.31391 0.02551 0.66106 0.0
C1118 C 0.30863 0.03333 0.67452 0.0
C1119 C 0.30907 0.00947 0.65648 0.0
C1120 C 0.29948 1.00066 0.66566 0.0
C1121 C 0.29407 0.00794 0.67936 0.0
C1122 C 0.29868 0.02442 0.68384 0.0
N1123 N 0.28328 0.99915 0.6881 0.0
C1124 C 0.27797 0.98293 0.68453 0.0
H1125 H 0.26968 0.03875 0.99204 0.0
H1126 H 0.27917 0.08973 0.9957 0.0
H1127 H 0.29051 0.06376 0.03612 0.0
C1128 C 0.27389 0.04992 0.99903 0.0
C1129 C 0.28004 0.0497 0.01478 0.0
C1130 C 0.27362 0.06424 0.992 0.0
C1131 C 0.27927 0.07862 1.00111 0.0
C1132 C 0.28531 0.07846 0.01715 0.0
C1133 C 0.28552 0.06396 0.02393 0.0
N1134 N 0.29154 0.09254 0.02676 0.0
C1135 C 0.29797 0.10619 0.02084 0.0
H1136 H 0.38157 0.72797 0.44946 0.0
H1137 H 0.38848 0.70436 0.4923 0.0
H1138 H 0.34348 0.72225 0.47894 0.0
C1139 C 0.37707 0.72366 0.46005 0.0
C1140 C 0.36153 0.72609 0.46305 0.0
C1141 C 0.38686 0.71561 0.47016 0.0
C1142 C 0.38102 0.71043 0.48426 0.0
C1143 C 0.36517 0.71284 0.48747 0.0
C1144 C 0.35558 0.72046 0.47661 0.0
N1145 N 0.35785 0.7078 0.50101 0.0
C1146 C 0.36396 0.70081 0.51433 0.0
H1147 H 0.9932 0.26586 0.03878 0.0
H1148 H 0.99569 0.28237 0.08852 0.0
H1149 H 0.03652 0.28994 0.06221 0.0
C1150 C 0.99988 0.27151 0.04962 0.0
C1151 C 0.01553 0.27769 0.04896 0.0
C1152 C 0.99237 0.27361 0.06362 0.0
C1153 C 1.00132 0.28079 0.07759 0.0
C1154 C 0.01749 0.28631 0.07715 0.0
C1155 C 0.02439 0.28494 0.06275 0.0
N1156 N 0.0271 0.29373 0.09075 0.0
C1157 C 0.02127 0.30007 0.10445 0.0
H1158 H 1.00135 0.67543 0.48943 0.0
H1159 H 0.03078 0.69445 0.45566 0.0
H1160 H 0.99458 0.6559 0.44069 0.0
C1161 C 0.00395 0.67617 0.47721 0.0
C1162 C 0.99589 0.66507 0.46537 0.0
C1163 C 0.01657 0.68678 0.47404 0.0
C1164 C 0.02076 0.68666 0.45836 0.0
C1165 C 0.01239 0.67595 0.4462 0.0
C1166 C 1.00017 0.66493 0.44979 0.0
N1167 N 0.01802 0.67452 0.43102 0.0
C1168 C 0.01169 0.68215 0.41845 0.0
H1169 H 0.65005 0.30777 0.03821 0.0
H1170 H 0.65624 0.28038 0.99424 0.0
H1171 H 0.6967 0.29867 0.02705 0.0
C1172 C 0.65753 0.30193 0.03028 0.0
C1173 C 0.67387 0.30377 0.03461 0.0
C1174 C 0.65088 0.29353 0.01587 0.0
C1175 C 0.66106 0.2869 0.0054 0.0
C1176 C 0.67759 0.28897 0.00914 0.0
C1177 C 0.68397 0.29714 0.02399 0.0
N1178 N 0.68812 0.28342 0.99812 0.0
C1179 C 0.68418 0.276 0.98262 0.0
H1180 H 0.45118 0.38536 0.72658 0.0
H1181 H 0.49475 0.38896 0.70422 0.0
H1182 H 0.47535 0.34357 0.71725 0.0
C1183 C 0.46092 0.37961 0.72184 0.0
C1184 C 0.46147 0.36322 0.72242 0.0
C1185 C 0.47255 0.38892 0.71518 0.0
C1186 C 0.48568 0.38181 0.70936 0.0
C1187 C 0.48688 0.36533 0.71043 0.0
C1188 C 0.47465 0.35624 0.71686 0.0
N1189 N 0.49972 0.35701 0.70507 0.0
C1190 C 0.51372 0.36268 0.69892 0.0
H1191 H 0.04314 0.99083 0.26589 0.0
H1192 H 0.09372 0.99801 0.27758 0.0
H1193 H 0.06406 0.03501 0.29058 0.0
C1194 C 0.05369 0.99848 0.27082 0.0
C1195 C 0.05197 0.0136 0.27794 0.0
C1196 C 0.06863 0.99285 0.27033 0.0
C1197 C 0.0821 0.00235 0.27778 0.0
C1198 C 0.08041 0.01772 0.28503 0.0
C1199 C 0.06535 0.02326 0.28498 0.0
N1200 N 0.09356 0.02802 0.2923 0.0
C1201 C 0.10758 0.02271 0.29841 0.0
H1202 H 0.49065 1.00184 0.6792 0.0
H1203 H 0.45405 0.02812 0.69745 0.0
H1204 H 0.4437 0.99593 0.65499 0.0
C1205 C 0.47821 0.00394 0.67909 0.0
C1206 C 0.46759 0.99696 0.6663 0.0
C1207 C 0.47366 0.0154 0.69027 0.0
C1208 C 0.45776 0.01898 0.68921 0.0
C1209 C 0.44681 0.01141 0.67684 0.0
C1210 C 0.45184 1.00071 0.6652 0.0
N1211 N 0.43138 0.0163 0.6747 0.0
C1212 C 0.41897 0.00942 0.68211 0.0
H1213 H 0.03539 0.65016 0.31249 0.0
H1214 H 0.98924 0.66037 0.29329 0.0
H1215 H 0.02908 0.69632 0.29748 0.0
C1216 C 0.0276 0.65849 0.30785 0.0
C1217 C 0.034 0.67403 0.30664 0.0
C1218 C 0.01144 0.65364 0.3038 0.0
C1219 C 1.00175 0.664 0.29648 0.0
C1220 C 0.00813 0.67921 0.29357 0.0
C1221 C 0.02427 0.68435 0.29898 0.0
N1222 N 0.99854 0.68967 0.28567 0.0
C1223 C 0.98244 0.68651 0.27993 0.0
H1224 H 0.16404 0.64904 0.3828 0.0
H1225 H 0.13802 0.65401 0.37088 0.0
H1226 H 0.16019 0.68498 0.33983 0.0
H1227 H 0.18647 0.68061 0.3523 0.0
H1228 H 0.13477 0.69774 0.34977 0.0
H1229 H 0.14299 0.64522 0.32682 0.0
H1230 H 0.14875 0.61718 0.32678 0.0
H1231 H 0.10938 0.60739 0.35417 0.0
H1232 H 0.10351 0.6354 0.3545 0.0
H1233 H 0.06047 0.68846 0.29438 0.0
H1234 H 0.0884 0.68952 0.30593 0.0
H1235 H 0.07266 0.66978 0.34762 0.0
H1236 H 0.0451 0.66937 0.33664 0.0
H1237 H 0.09525 0.65201 0.33033 0.0
H1238 H 0.08729 0.70309 0.35486 0.0
H1239 H 0.07974 0.73052 0.35524 0.0
H1240 H 0.11704 0.74265 0.32606 0.0
H1241 H 0.12464 0.71514 0.32528 0.0
C1242 C 0.16352 0.65707 0.37356 0.0
C1243 C 0.17761 0.66441 0.36864 0.0
C1244 C 0.14848 0.65976 0.36655 0.0
C1245 C 0.14691 0.66969 0.35416 0.0
C1246 C 0.16092 0.67719 0.34927 0.0
C1247 C 0.17603 0.67454 0.35635 0.0
C1248 C 0.13071 0.67213 0.34637 0.0
C1249 C 0.12629 0.68769 0.34526 0.0
C1250 C 0.11923 0.65917 0.34078 0.0
C1251 C 0.12292 0.64241 0.3408 0.0
C1252 C 0.13566 0.63711 0.33294 0.0
C1253 C 0.13892 0.62122 0.33284 0.0
C1254 C 0.12946 0.61052 0.3405 0.0
C1255 C 0.11671 0.61569 0.34826 0.0
C1256 C 0.1134 0.63156 0.34839 0.0
C1257 C 0.06298 0.6849 0.30623 0.0
C1258 C 0.05052 0.6787 0.31449 0.0
C1259 C 0.07895 0.68536 0.31278 0.0
C1260 C 0.08268 0.67948 0.32758 0.0
C1261 C 0.07017 0.67424 0.33616 0.0
C1262 C 0.05437 0.67408 0.32985 0.0
C1263 C 0.09943 0.6775 0.33377 0.0
C1264 C 0.10387 0.66203 0.33463 0.0
C1265 C 0.11077 0.69049 0.33929 0.0
C1266 C 0.10638 0.70702 0.33981 0.0
C1267 C 0.09376 0.71156 0.34837 0.0
C1268 C 0.0895 0.72713 0.34869 0.0
C1269 C 0.09786 0.73831 0.34062 0.0
C1270 C 0.11055 0.73396 0.33227 0.0
C1271 C 0.11484 0.71838 0.33188 0.0
H1272 H 0.09455 0.75037 0.34089 0.0
H1273 H 0.132 0.59822 0.34039 0.0
H1274 H 0.35066 0.30054 0.80351 0.0
H1275 H 0.3746 0.30286 0.78934 0.0
H1276 H 0.35379 0.33695 0.76095 0.0
H1277 H 0.32978 0.33427 0.77466 0.0
H1278 H 0.36872 0.3192 0.74289 0.0
H1279 H 0.38246 0.34628 0.79622 0.0
H1280 H 0.38605 0.34749 0.82551 0.0
H1281 H 0.41901 0.3119 0.82266 0.0
H1282 H 0.41544 0.31033 0.79335 0.0
H1283 H 0.42983 0.36739 0.71809 0.0
H1284 H 0.40824 0.35542 0.73107 0.0
H1285 H 0.43974 0.32453 0.75285 0.0
H1286 H 0.46217 0.33786 0.74104 0.0
H1287 H 0.42108 0.33469 0.77372 0.0
H1288 H 0.40996 0.31053 0.72023 0.0
H1289 H 0.40863 0.31245 0.69128 0.0
H1290 H 0.37145 0.3435 0.69456 0.0
H1291 H 0.3726 0.34184 0.72354 0.0
C1292 C 0.35118 0.30844 0.79415 0.0
C1293 C 0.33829 0.31723 0.79023 0.0
C1294 C 0.36492 0.30982 0.7861 0.0
C1295 C 0.36624 0.32034 0.77423 0.0
C1296 C 0.35317 0.32875 0.77002 0.0
C1297 C 0.33937 0.32717 0.77787 0.0
C1298 C 0.38122 0.32309 0.76635 0.0
C1299 C 0.38014 0.3226 0.74969 0.0
C1300 C 0.39635 0.327 0.77504 0.0
C1301 C 0.39853 0.32805 0.79263 0.0
C1302 C 0.39039 0.33864 0.80186 0.0
C1303 C 0.39243 0.3394 0.81846 0.0
C1304 C 0.40271 0.32974 0.82594 0.0
C1305 C 0.41102 0.31934 0.81685 0.0
C1306 C 0.40899 0.31851 0.80025 0.0
C1307 C 0.43237 0.35819 0.72578 0.0
C1308 C 0.44795 0.35386 0.72869 0.0
C1309 C 0.41982 0.35107 0.73299 0.0
C1310 C 0.42214 0.33873 0.7427 0.0
C1311 C 0.43757 0.33396 0.74533 0.0
C1312 C 0.45036 0.34146 0.73841 0.0
C1313 C 0.40841 0.33139 0.75036 0.0
C1314 C 0.40973 0.33094 0.76692 0.0
C1315 C 0.39347 0.32659 0.74161 0.0
C1316 C 0.39144 0.32613 0.72404 0.0
C1317 C 0.40141 0.31765 0.71474 0.0
C1318 C 0.40072 0.31874 0.69836 0.0
C1319 C 0.39009 0.32822 0.69115 0.0
C1320 C 0.37973 0.33622 0.7002 0.0
C1321 C 0.38034 0.33515 0.71659 0.0
H1322 H 0.38997 0.32944 0.67858 0.0
H1323 H 0.40427 0.33034 0.8388 0.0
H1324 H 0.60018 0.98115 0.62207 0.0
H1325 H 0.57369 0.97801 0.63131 0.0
H1326 H 0.55957 0.01618 0.60429 0.0
H1327 H 0.58623 0.02003 0.59587 0.0
H1328 H 0.54739 0.01794 0.63096 0.0
H1329 H 0.55149 0.97562 0.59015 0.0
H1330 H 0.56346 0.9526 0.57798 0.0
H1331 H 0.55431 0.92673 0.61809 0.0
H1332 H 0.54251 0.94971 0.63061 0.0
H1333 H 0.46771 0.00654 0.63673 0.0
H1334 H 0.49001 0.00367 0.62071 0.0
H1335 H 0.50674 0.96842 0.65018 0.0
H1336 H 0.48425 0.97101 0.66595 0.0
H1337 H 0.51709 0.96462 0.62092 0.0
H1338 H 0.51542 0.00771 0.66236 0.0
H1339 H 0.50558 0.03139 0.67554 0.0
H1340 H 0.51114 0.0563 0.63417 0.0
H1341 H 0.52102 0.03266 0.62064 0.0
C1342 C 0.59155 0.98914 0.61846 0.0
C1343 C 0.59516 1.00068 0.60805 0.0
C1344 C 0.57636 0.98717 0.62354 0.0
C1345 C 0.56455 0.99651 0.61804 0.0
C1346 C 0.56845 0.00868 0.60847 0.0
C1347 C 0.58365 0.01081 0.60359 0.0
C1348 C 0.54799 0.99351 0.62188 0.0
C1349 C 0.54069 0.00634 0.62848 0.0
C1350 C 0.53938 0.97829 0.61897 0.0
C1351 C 0.54625 0.96441 0.61136 0.0
C1352 C 0.55211 0.96505 0.5964 0.0
C1353 C 0.55886 0.95201 0.58945 0.0
C1354 C 0.55967 0.93822 0.59727 0.0
C1355 C 0.55369 0.93742 0.61205 0.0
C1356 C 0.54697 0.95044 0.61908 0.0
C1357 C 0.47552 0.99739 0.63909 0.0
C1358 C 0.47451 0.98918 0.65269 0.0
C1359 C 0.4884 0.99594 0.63008 0.0
C1360 C 0.5003 0.98632 0.63472 0.0
C1361 C 0.49778 0.97608 0.64657 0.0
C1362 C 0.48486 0.97746 0.6555 0.0
C1363 C 0.51644 0.98914 0.62969 0.0
C1364 C 0.52373 0.97626 0.62307 0.0
C1365 C 0.52509 0.00436 0.6325 0.0
C1366 C 0.51864 0.01834 0.6404 0.0
C1367 C 0.51434 0.01816 0.656 0.0
C1368 C 0.50879 0.0316 0.66355 0.0
C1369 C 0.50756 0.04532 0.6557 0.0
C1370 C 0.51198 0.04564 0.64023 0.0
C1371 C 0.51756 0.03223 0.6326 0.0
H1372 H 0.50328 0.05571 0.66163 0.0
H1373 H 0.56491 0.92813 0.59187 0.0
H1374 H 0.903 0.02219 0.2936 0.0
H1375 H 0.93182 0.02329 0.29834 0.0
H1376 H 0.93421 0.00409 0.24982 0.0
H1377 H 0.90519 1.0021 0.24525 0.0
H1378 H 0.95338 0.99054 0.26913 0.0
H1379 H 0.94215 0.04462 0.26289 0.0
H1380 H 0.93022 0.06968 0.269 0.0
H1381 H 0.95325 0.074 0.31657 0.0
H1382 H 0.9651 0.04881 0.31081 0.0
H1383 H 0.03004 0.01366 0.25291 0.0
H1384 H 1.00145 0.01427 0.25408 0.0
H1385 H 0.00881 0.02435 0.30511 0.0
H1386 H 0.03761 0.02352 0.30401 0.0
H1387 H 0.98527 0.04153 0.28875 0.0
H1388 H 0.99949 0.98867 0.29278 0.0
H1389 H 0.01225 0.96446 0.2852 0.0
H1390 H 0.98395 0.95827 0.24016 0.0
H1391 H 0.97132 0.98268 0.24728 0.0
C1392 C 0.90965 0.01799 0.28399 0.0
C1393 C 0.90188 0.012 0.26905 0.0
C1394 C 0.92612 0.01881 0.28668 0.0
C1395 C 0.93513 0.01399 0.27437 0.0
C1396 C 0.92742 0.00792 0.25946 0.0
C1397 C 0.9109 0.00693 0.2568 0.0
C1398 C 0.95262 0.01531 0.27697 0.0
C1399 C 0.96036 1.00172 0.27327 0.0
C1400 C 0.96166 0.02978 0.28296 0.0
C1401 C 0.95432 0.04474 0.28649 0.0
C1402 C 0.94452 0.05083 0.27471 0.0
C1403 C 0.9378 0.06507 0.27809 0.0
C1404 C 0.94093 0.0734 0.29318 0.0
C1405 C 0.95079 0.06751 0.3049 0.0
C1406 C 0.9575 0.05325 0.30159 0.0
C1407 C 0.02557 0.01644 0.26432 0.0
C1408 C 0.03585 0.01847 0.27839 0.0
C1409 C 0.00931 0.01665 0.26498 0.0
C1410 C 0.00317 0.01896 0.2797 0.0
C1411 C 0.01348 0.0224 0.29368 0.0
C1412 C 0.02984 0.02209 0.29303 0.0
C1413 C 0.98591 0.01694 0.28034 0.0
C1414 C 0.97824 0.03033 0.28477 0.0
C1415 C 0.97694 0.00233 0.27485 0.0
C1416 C 0.98457 0.98763 0.27052 0.0
C1417 C 0.99612 0.98226 0.28118 0.0
C1418 C 0.00332 0.96848 0.27697 0.0
C1419 C 0.99895 0.95985 0.26219 0.0
C1420 C 0.98735 0.96498 0.25159 0.0
C1421 C 0.98018 0.9788 0.25571 0.0
H1422 H 0.00451 0.94917 0.25897 0.0
H1423 H 0.93574 0.08445 0.29576 0.0
H1424 H 0.34393 0.18143 0.65277 0.0
H1425 H 0.33174 0.15523 0.65758 0.0
H1426 H 0.37505 0.14631 0.68448 0.0
H1427 H 0.38725 0.17236 0.67972 0.0
H1428 H 0.36599 0.12145 0.666 0.0
H1429 H 0.33835 0.15333 0.70146 0.0
H1430 H 0.3216 0.17408 0.7104 0.0
H1431 H 0.28286 0.15272 0.67718 0.0
H1432 H 0.29945 0.13198 0.66787 0.0
H1433 H 0.32843 0.05115 0.69842 0.0
H1434 H 0.33998 0.07888 0.69792 0.0
H1435 H 0.30948 0.08301 0.6554 0.0
H1436 H 0.29862 0.05523 0.65544 0.0
H1437 H 0.31222 0.10998 0.68334 0.0
H1438 H 0.34333 0.08352 0.64368 0.0
H1439 H 0.36209 0.06558 0.63296 0.0
H1440 H 0.39403 0.07709 0.67538 0.0
H1441 H 0.37573 0.09556 0.68605 0.0
C1442 C 0.35081 0.17403 0.65994 0.0
C1443 C 0.36671 0.17917 0.66571 0.0
C1444 C 0.34377 0.15895 0.66272 0.0
C1445 C 0.35234 0.14858 0.67152 0.0
C1446 C 0.36808 0.15386 0.67758 0.0
C1447 C 0.37511 0.16886 0.67477 0.0
C1448 C 0.34539 0.13196 0.67368 0.0
C1449 C 0.35433 0.11912 0.67012 0.0
C1450 C 0.33001 0.1285 0.67867 0.0
C1451 C 0.3202 0.14124 0.68384 0.0
C1452 C 0.32632 0.15318 0.69592 0.0
C1453 C 0.31684 0.16491 0.70109 0.0
C1454 C 0.30119 0.16475 0.69433 0.0
C1455 C 0.29499 0.15286 0.68238 0.0
C1456 C 0.30443 0.14112 0.67715 0.0
C1457 C 0.32406 0.05808 0.68913 0.0
C1458 C 0.31255 0.051 0.67704 0.0
C1459 C 0.33074 0.07388 0.68877 0.0
C1460 C 0.32574 0.08304 0.67651 0.0
C1461 C 0.31363 0.07623 0.66493 0.0
C1462 C 0.30727 0.0604 0.66509 0.0
C1463 C 0.33289 0.09976 0.67573 0.0
C1464 C 0.32395 0.11252 0.67947 0.0
C1465 C 0.34829 0.10322 0.67102 0.0
C1466 C 0.35809 0.09061 0.66576 0.0
C1467 C 0.35424 0.08199 0.65081 0.0
C1468 C 0.36488 0.07193 0.64465 0.0
C1469 C 0.3792 0.07016 0.65351 0.0
C1470 C 0.38292 0.07845 0.66855 0.0
C1471 C 0.37248 0.08877 0.67462 0.0
H1472 H 0.38739 0.06232 0.64873 0.0
H1473 H 0.29385 0.17381 0.69839 0.0
H1474 H 0.29345 0.89925 0.00386 0.0
H1475 H 0.29886 0.92846 0.00723 0.0
H1476 H 0.25437 0.93206 0.02779 0.0
H1477 H 0.24883 0.90318 0.02399 0.0
H1478 H 0.25641 0.95089 0.00534 0.0
H1479 H 0.29262 0.93919 0.04973 0.0
H1480 H 0.31574 0.92824 0.06299 0.0
H1481 H 0.34674 0.95293 0.03394 0.0
H1482 H 0.32378 0.96384 0.02036 0.0
H1483 H 0.25955 0.03188 0.03053 0.0
H1484 H 0.2599 0.00327 0.03319 0.0
H1485 H 0.30473 0.00381 0.01264 0.0
H1486 H 0.30462 0.03241 0.01064 0.0
H1487 H 0.30386 0.98303 0.03355 0.0
H1488 H 0.26852 0.99734 0.99147 0.0
H1489 H 0.2463 0.01126 0.98083 0.0
H1490 H 0.21356 0.98138 0.00366 0.0
H1491 H 0.23579 0.96821 0.01565 0.0
C1492 C 0.28502 0.90636 0.00932 0.0
C1493 C 0.27071 0.89908 0.01362 0.0
C1494 C 0.2881 0.923 0.01127 0.0
C1495 C 0.27701 0.93247 0.01778 0.0
C1496 C 0.26305 0.92504 0.02264 0.0
C1497 C 0.2599 0.90856 0.02052 0.0
C1498 C 0.27913 0.95013 0.01863 0.0
C1499 C 0.2667 0.95792 0.01171 0.0
C1500 C 0.29285 0.95932 0.02628 0.0
C1501 C 0.30647 0.95211 0.03389 0.0
C1502 C 0.30434 0.94208 0.04601 0.0
C1503 C 0.31742 0.93594 0.05363 0.0
C1504 C 0.33269 0.93984 0.04927 0.0
C1505 C 0.33491 0.94987 0.03727 0.0
C1506 C 0.32187 0.95602 0.02961 0.0
C1507 C 0.26976 0.02593 0.02729 0.0
C1508 C 0.28216 0.03417 0.0206 0.0
C1509 C 0.26989 0.00962 0.0286 0.0
C1510 C 0.28217 1.00136 0.02275 0.0
C1511 C 0.29513 0.00991 0.01718 0.0
C1512 C 0.29511 0.02622 0.01609 0.0
C1513 C 0.28085 0.98373 0.0209 0.0
C1514 C 0.29352 0.97598 0.02729 0.0
C1515 C 0.26739 0.97456 0.01261 0.0
C1516 C 0.25392 0.98196 0.00473 0.0
C1517 C 0.25662 0.99386 0.99443 0.0
C1518 C 0.24401 1.00169 0.98821 0.0
C1519 C 0.2285 0.99718 0.99152 0.0
C1520 C 0.22559 0.9849 1.00115 0.0
C1521 C 0.23823 0.97738 0.00782 0.0
H1522 H 0.21873 0.00319 0.98664 0.0
H1523 H 0.34281 0.93513 0.05523 0.0
H1524 H 0.78609 0.33805 0.34398 0.0
H1525 H 0.77137 0.36166 0.34513 0.0
H1526 H 0.77762 0.36677 0.29582 0.0
H1527 H 0.79252 0.34301 0.29474 0.0
H1528 H 0.78392 0.39547 0.31467 0.0
H1529 H 0.74115 0.35396 0.30564 0.0
H1530 H 0.72626 0.32867 0.3101 0.0
H1531 H 0.72145 0.34672 0.3582 0.0
H1532 H 0.73648 0.37204 0.35409 0.0
H1533 H 0.72025 0.45271 0.32676 0.0
H1534 H 0.73304 0.43054 0.31372 0.0
H1535 H 0.75376 0.42021 0.35944 0.0
H1536 H 0.74222 0.44247 0.37221 0.0
H1537 H 0.73091 0.39411 0.3353 0.0
H1538 H 0.77864 0.43205 0.34619 0.0
H1539 H 0.79435 0.45726 0.3431 0.0
H1540 H 0.79044 0.44571 0.29248 0.0
H1541 H 0.77431 0.42057 0.29528 0.0
C1542 C 0.78411 0.34411 0.33335 0.0
C1543 C 0.79016 0.33865 0.31922 0.0
C1544 C 0.77571 0.35758 0.33399 0.0
C1545 C 0.77317 0.3659 0.32049 0.0
C1546 C 0.77933 0.3605 0.30634 0.0
C1547 C 0.78772 0.34691 0.30569 0.0
C1548 C 0.76438 0.38039 0.32154 0.0
C1549 C 0.77215 0.3951 0.31878 0.0
C1550 C 0.74909 0.38004 0.32706 0.0
C1551 C 0.73997 0.36487 0.32956 0.0
C1552 C 0.73698 0.3525 0.31719 0.0
C1553 C 0.72851 0.33816 0.31966 0.0
C1554 C 0.72292 0.33608 0.33443 0.0
C1555 C 0.72577 0.34835 0.34676 0.0
C1556 C 0.73424 0.3627 0.34436 0.0
C1557 C 0.72778 0.44588 0.33394 0.0
C1558 C 0.72971 0.44911 0.35062 0.0
C1559 C 0.73502 0.43321 0.32651 0.0
C1560 C 0.74423 0.42368 0.33569 0.0
C1561 C 0.74665 0.42734 0.35215 0.0
C1562 C 0.73982 0.44003 0.35945 0.0
C1563 C 0.75059 0.40911 0.32877 0.0
C1564 C 0.74241 0.39438 0.3306 0.0
C1565 C 0.76554 0.40947 0.32259 0.0
C1566 C 0.77495 0.42465 0.3209 0.0
C1567 C 0.78084 0.43504 0.33438 0.0
C1568 C 0.78989 0.44928 0.33269 0.0
C1569 C 0.7933 0.45314 0.31759 0.0
C1570 C 0.7877 0.44275 0.30416 0.0
C1571 C 0.77858 0.42853 0.30578 0.0
H1572 H 0.80036 0.46415 0.31631 0.0
H1573 H 0.71637 0.32497 0.33631 0.0
H1574 H 0.59272 0.58197 0.01641 0.0
H1575 H 0.60179 0.55554 0.0129 0.0
H1576 H 0.63518 0.5723 0.98107 0.0
H1577 H 0.62547 0.59864 0.98382 0.0
H1578 H 0.61861 0.54621 0.96811 0.0
H1579 H 0.64641 0.56258 0.01928 0.0
H1580 H 0.64984 0.57284 0.04759 0.0
H1581 H 0.6185 0.53379 0.05885 0.0
H1582 H 0.61448 0.52345 0.03055 0.0
H1583 H 0.66499 0.48064 0.96872 0.0
H1584 H 0.64983 0.50326 0.96557 0.0
H1585 H 0.61845 0.48665 0.99932 0.0
H1586 H 0.63446 0.46457 0.00327 0.0
H1587 H 0.63385 0.5129 0.01109 0.0
H1588 H 0.60532 0.4971 0.95958 0.0
H1589 H 0.60244 0.48671 0.93126 0.0
H1590 H 0.63616 0.52438 0.92103 0.0
H1591 H 0.63933 0.53492 0.9493 0.0
C1592 C 0.60205 0.58006 0.00871 0.0
C1593 C 0.60822 0.59233 1.00021 0.0
C1594 C 0.60735 0.56498 0.00686 0.0
C1595 C 0.61919 0.56195 0.99675 0.0
C1596 C 0.62599 0.57439 0.9889 0.0
C1597 C 0.62055 0.58947 0.99061 0.0
C1598 C 0.62349 0.54553 0.99341 0.0
C1599 C 0.62213 0.53896 0.9775 0.0
C1600 C 0.62767 0.53597 0.00568 0.0
C1601 C 0.63002 0.54231 0.02272 0.0
C1602 C 0.6401 0.55625 0.02774 0.0
C1603 C 0.64218 0.56208 0.04381 0.0
C1604 C 0.63441 0.554 0.05501 0.0
C1605 C 0.62451 0.54006 0.05016 0.0
C1606 C 0.6223 0.53421 0.03411 0.0
C1607 C 0.65418 0.48117 0.97458 0.0
C1608 C 0.65123 0.47127 0.98666 0.0
C1609 C 0.64552 0.49428 0.97289 0.0
C1610 C 0.63324 0.49698 0.98259 0.0
C1611 C 0.62813 0.48501 0.99198 0.0
C1612 C 0.63709 0.47214 0.99399 0.0
C1613 C 0.62853 0.51335 0.98577 0.0
C1614 C 0.63007 0.52003 0.00168 0.0
C1615 C 0.62456 0.523 0.97353 0.0
C1616 C 0.6226 0.51674 0.95654 0.0
C1617 C 0.61218 0.50311 0.95129 0.0
C1618 C 0.61048 0.49722 0.93525 0.0
C1619 C 0.61913 0.50487 0.92436 0.0
C1620 C 0.62946 0.51847 0.92947 0.0
C1621 C 0.63118 0.52443 0.94549 0.0
H1622 H 0.61781 0.50027 0.91195 0.0
H1623 H 0.63608 0.55854 0.06744 0.0
H1624 H 0.67909 0.35194 0.18542 0.0
H1625 H 0.68348 0.33985 0.15906 0.0
H1626 H 0.65483 0.37306 0.13721 0.0
H1627 H 0.64974 0.38459 0.16338 0.0
H1628 H 0.64768 0.34675 0.121 0.0
H1629 H 0.69794 0.37498 0.13954 0.0
H1630 H 0.7228 0.38314 0.15675 0.0
H1631 H 0.73596 0.33532 0.15135 0.0
H1632 H 0.71105 0.32681 0.13433 0.0
H1633 H 0.66984 0.33468 0.04312 0.0
H1634 H 0.67001 0.3474 0.07017 0.0
H1635 H 0.68901 0.30658 0.08888 0.0
H1636 H 0.68866 0.29368 0.06163 0.0
H1637 H 0.70133 0.33597 0.10643 0.0
H1638 H 0.65044 0.30912 0.0856 0.0
H1639 H 0.6271 0.30351 0.06581 0.0
H1640 H 0.61582 0.35176 0.07415 0.0
H1641 H 0.63943 0.35783 0.09354 0.0
C1642 C 0.67357 0.35661 0.17504 0.0
C1643 C 0.66411 0.36944 0.17679 0.0
C1644 C 0.67629 0.34978 0.15985 0.0
C1645 C 0.66975 0.3556 0.14587 0.0
C1646 C 0.66015 0.36825 0.14762 0.0
C1647 C 0.65737 0.37502 0.16275 0.0
C1648 C 0.67255 0.34843 0.12947 0.0
C1649 C 0.65949 0.34462 0.11788 0.0
C1650 C 0.68786 0.34527 0.1251 0.0
C1651 C 0.70252 0.35022 0.13586 0.0
C1652 C 0.70603 0.36616 0.14221 0.0
C1653 C 0.72016 0.37086 0.15189 0.0
C1654 C 0.73093 0.35975 0.15519 0.0
C1655 C 0.72759 0.3439 0.14883 0.0
C1656 C 0.71346 0.33914 0.13918 0.0
C1657 C 0.67464 0.32865 0.05296 0.0
C1658 C 0.67937 0.3132 0.05018 0.0
C1659 C 0.67453 0.33587 0.06848 0.0
C1660 C 0.67919 0.32786 0.08169 0.0
C1661 C 0.68526 0.313 0.07893 0.0
C1662 C 0.68524 0.30568 0.06333 0.0
C1663 C 0.67654 0.33445 0.09819 0.0
C1664 C 0.68957 0.3381 0.10972 0.0
C1665 C 0.66125 0.33774 0.10241 0.0
C1666 C 0.64685 0.33398 0.09092 0.0
C1667 C 0.64309 0.31859 0.08309 0.0
C1668 C 0.62982 0.31534 0.07189 0.0
C1669 C 0.62004 0.3273 0.0686 0.0
C1670 C 0.62348 0.34253 0.07657 0.0
C1671 C 0.63682 0.34589 0.08765 0.0
H1672 H 0.60977 0.32476 0.05994 0.0
H1673 H 0.74189 0.36342 0.16263 0.0
H1674 H 0.0176 0.24543 0.90326 0.0
H1675 H 0.02061 0.25117 0.93209 0.0
H1676 H 0.00987 0.29944 0.92722 0.0
H1677 H 0.00707 0.29372 0.898 0.0
H1678 H 0.03424 0.29726 0.9515 0.0
H1679 H 0.98123 0.27477 0.93659 0.0
H1680 H 0.95981 0.25588 0.92238 0.0
H1681 H 0.97865 0.21753 0.94549 0.0
H1682 H 1.00032 0.23615 0.95968 0.0
H1683 H 0.0187 0.30406 0.03371 0.0
H1684 H 0.01903 0.30485 0.00502 0.0
H1685 H 0.02408 0.25442 0.99981 0.0
H1686 H 0.0228 0.25356 0.0285 0.0
H1687 H 1.00045 0.26112 0.98045 0.0
H1688 H 0.05519 0.28467 0.99365 0.0
H1689 H 0.07468 0.30463 0.00935 0.0
H1690 H 0.05037 0.34229 0.99058 0.0
H1691 H 0.03069 0.32254 0.97485 0.0
C1692 C 0.01597 0.25729 0.90833 0.0
C1693 C 0.01189 0.26908 0.8985 0.0
C1694 C 0.01769 0.26056 0.92477 0.0
C1695 C 0.01517 0.27563 0.93176 0.0
C1696 C 0.0118 0.28772 0.922 0.0
C1697 C 0.01019 0.28446 0.9054 0.0
C1698 C 0.0154 0.27818 0.94927 0.0
C1699 C 0.02672 0.28953 0.95785 0.0
C1700 C 0.00554 0.26811 0.95754 0.0
C1701 C 0.99246 0.25685 0.94913 0.0
C1702 C 0.98087 0.26229 0.93857 0.0
C1703 C 0.96867 0.25163 0.93053 0.0
C1704 C 0.96788 0.23551 0.93301 0.0
C1705 C 0.97928 0.23002 0.94357 0.0
C1706 C 0.9915 0.24063 0.95164 0.0
C1707 C 0.02055 0.29332 0.02647 0.0
C1708 C 0.02109 0.27882 0.03319 0.0
C1709 C 0.02066 0.29374 0.01008 0.0
C1710 C 0.02172 0.27971 1.00026 0.0
C1711 C 0.02327 0.26538 0.00717 0.0
C1712 C 0.0228 0.26491 0.02353 0.0
C1713 C 0.01984 0.27964 0.98272 0.0
C1714 C 0.00802 0.26885 0.97412 0.0
C1715 C 0.02908 0.29035 0.97452 0.0
C1716 C 0.04151 0.30216 0.98309 0.0
C1717 C 0.05407 0.29722 0.99283 0.0
C1718 C 0.06511 0.30848 0.00175 0.0
C1719 C 0.06376 0.32472 1.00096 0.0
C1720 C 0.05143 0.32972 0.99115 0.0
C1721 C 0.04036 0.31849 0.98218 0.0
H1722 H 0.07227 0.33343 0.00795 0.0
H1723 H 0.95843 0.22728 0.92677 0.0
H1724 H 0.33743 0.81042 0.35237 0.0
H1725 H 0.34012 0.79594 0.37589 0.0
H1726 H 0.30425 0.75948 0.35406 0.0
H1727 H 0.30138 0.7741 0.33026 0.0
H1728 H 0.30213 0.7681 0.38799 0.0
H1729 H 0.3391 0.75092 0.35294 0.0
H1730 H 0.35998 0.75355 0.33464 0.0
H1731 H 0.39202 0.77894 0.37229 0.0
H1732 H 0.3712 0.77678 0.39074 0.0
H1733 H 0.33309 0.71546 0.44567 0.0
H1734 H 0.32109 0.72717 0.42243 0.0
H1735 H 0.35696 0.76711 0.43108 0.0
H1736 H 0.36892 0.75544 0.45401 0.0
H1737 H 0.35631 0.75246 0.40151 0.0
H1738 H 0.31764 0.77099 0.43598 0.0
H1739 H 0.29641 0.76752 0.45381 0.0
H1740 H 0.26742 0.73763 0.41684 0.0
H1741 H 0.28858 0.74078 0.39884 0.0
C1742 C 0.32988 0.79947 0.35262 0.0
C1743 C 0.31917 0.79343 0.33942 0.0
C1744 C 0.33149 0.79116 0.36608 0.0
C1745 C 0.32245 0.77659 0.36672 0.0
C1746 C 0.31133 0.77072 0.35382 0.0
C1747 C 0.3098 0.779 0.3402 0.0
C1748 C 0.32566 0.76721 0.38049 0.0
C1749 C 0.31389 0.76442 0.39084 0.0
C1750 C 0.34098 0.76241 0.38423 0.0
C1751 C 0.35353 0.76383 0.37317 0.0
C1752 C 0.35054 0.75722 0.35727 0.0
C1753 C 0.36237 0.75861 0.34687 0.0
C1754 C 0.3773 0.76645 0.35228 0.0
C1755 C 0.38043 0.7729 0.36811 0.0
C1756 C 0.36862 0.7716 0.37854 0.0
C1757 C 0.33804 0.72698 0.44286 0.0
C1758 C 0.35193 0.73456 0.45159 0.0
C1759 C 0.33123 0.73364 0.42956 0.0
C1760 C 0.33819 0.74799 0.42493 0.0
C1761 C 0.35142 0.756 0.43434 0.0
C1762 C 0.35821 0.74937 0.44749 0.0
C1763 C 0.33304 0.75398 0.40947 0.0
C1764 C 0.34449 0.75601 0.39866 0.0
C1765 C 0.31741 0.75788 0.40533 0.0
C1766 C 0.30475 0.75596 0.41615 0.0
C1767 C 0.3068 0.76356 0.43171 0.0
C1768 C 0.29476 0.76168 0.44183 0.0
C1769 C 0.2806 0.75232 0.43648 0.0
C1770 C 0.27841 0.74485 0.42098 0.0
C1771 C 0.29041 0.74669 0.41081 0.0
H1772 H 0.27129 0.75088 0.44433 0.0
H1773 H 0.38646 0.76748 0.34422 0.0
H1774 H 0.98981 0.63139 0.60161 0.0
H1775 H 0.9873 0.64191 0.57563 0.0
H1776 H 0.00884 0.60161 0.5551 0.0
H1777 H 0.01255 0.59181 0.5811 0.0
H1778 H 0.01783 0.62671 0.54183 0.0
H1779 H 0.96536 0.60403 0.55602 0.0
H1780 H 0.94375 0.60444 0.57373 0.0
H1781 H 0.93876 0.65332 0.56629 0.0
H1782 H 0.9604 0.65319 0.54864 0.0
H1783 H 1.00037 0.63357 0.46372 0.0
H1784 H 0.99692 0.61902 0.48696 0.0
H1785 H 0.96752 0.65437 0.50479 0.0
H1786 H 0.96937 0.66755 0.48074 0.0
H1787 H 0.96258 0.63269 0.52037 0.0
H1788 H 0.01336 0.65839 0.50904 0.0
H1789 H 0.03665 0.6625 0.49382 0.0
H1790 H 0.04709 0.61437 0.49849 0.0
H1791 H 0.02374 0.60993 0.51353 0.0
C1792 C 0.99441 0.62503 0.59164 0.0
C1793 C 1.00101 0.61054 0.5933 0.0
C1794 C 0.99275 0.63093 0.57676 0.0
C1795 C 0.99731 0.6222 0.56332 0.0
C1796 C 0.00497 0.60841 0.56524 0.0
C1797 C 0.00693 0.60272 0.5801 0.0
C1798 C 0.99347 0.62669 0.54704 0.0
C1799 C 0.00572 0.6279 0.53707 0.0
C1800 C 0.97781 0.62883 0.541 0.0
C1801 C 0.96446 0.6286 0.55109 0.0
C1802 C 0.95961 0.61483 0.55816 0.0
C1803 C 0.94739 0.61503 0.5682 0.0
C1804 C 0.9399 0.6289 0.57114 0.0
C1805 C 0.94456 0.64258 0.564 0.0
C1806 C 0.95677 0.64244 0.55396 0.0
C1807 C 0.99212 0.63744 0.47197 0.0
C1808 C 0.98571 0.65207 0.4709 0.0
C1809 C 0.99058 0.62943 0.48557 0.0
C1810 C 0.98312 0.63638 0.49827 0.0
C1811 C 0.97385 0.64899 0.49549 0.0
C1812 C 0.97471 0.65645 0.48154 0.0
C1813 C 0.98692 0.63245 0.51487 0.0
C1814 C 0.97469 0.63144 0.52498 0.0
C1815 C 0.00276 0.63111 0.52125 0.0
C1816 C 0.0167 0.63377 0.51214 0.0
C1817 C 0.02056 0.64867 0.50668 0.0
C1818 C 0.03377 0.65106 0.49812 0.0
C1819 C 0.0433 0.6387 0.49513 0.0
C1820 C 0.03967 0.62392 0.50075 0.0
C1821 C 0.02645 0.62145 0.50928 0.0
H1822 H 0.05353 0.64058 0.4885 0.0
H1823 H 0.93047 0.62904 0.57895 0.0
H1824 H 0.84059 0.35048 0.61912 0.0
H1825 H 0.86625 0.34441 0.63123 0.0
H1826 H 0.84345 0.32573 0.67001 0.0
H1827 H 0.81758 0.33154 0.65783 0.0
H1828 H 0.87054 0.34481 0.68094 0.0
H1829 H 0.8572 0.30092 0.63945 0.0
H1830 H 0.85007 0.28912 0.61181 0.0
H1831 H 0.89216 0.31351 0.59736 0.0
H1832 H 0.89945 0.32557 0.62487 0.0
H1833 H 0.94115 0.31923 0.71637 0.0
H1834 H 0.91368 0.31744 0.70386 0.0
H1835 H 0.93129 0.32845 0.65948 0.0
H1836 H 0.95844 0.32911 0.67162 0.0
H1837 H 0.9059 0.31164 0.65175 0.0
H1838 H 0.9188 0.35774 0.68848 0.0
H1839 H 0.92859 0.37194 0.71462 0.0
H1840 H 0.89019 0.34809 0.73584 0.0
H1841 H 0.88029 0.33358 0.70982 0.0
C1842 C 0.84087 0.34486 0.63011 0.0
C1843 C 0.82673 0.34143 0.63733 0.0
C1844 C 0.85569 0.3414 0.63708 0.0
C1845 C 0.85695 0.33436 0.65151 0.0
C1846 C 0.84293 0.33113 0.65888 0.0
C1847 C 0.82807 0.33455 0.65189 0.0
C1848 C 0.87285 0.33069 0.65903 0.0
C1849 C 0.87811 0.33731 0.67461 0.0
C1850 C 0.88324 0.32146 0.65071 0.0
C1851 C 0.8788 0.31422 0.63419 0.0
C1852 C 0.86487 0.30384 0.63035 0.0
C1853 C 0.86082 0.29709 0.61472 0.0
C1854 C 0.87064 0.30058 0.60284 0.0
C1855 C 0.88456 0.31082 0.60657 0.0
C1856 C 0.88866 0.31759 0.62218 0.0
C1857 C 0.93912 0.32061 0.7038 0.0
C1858 C 0.95203 0.32441 0.69506 0.0
C1859 C 0.92336 0.31992 0.69667 0.0
C1860 C 0.92016 0.3234 0.68075 0.0
C1861 C 0.93315 0.32584 0.67175 0.0
C1862 C 0.94879 0.32621 0.67875 0.0
C1863 C 0.9036 0.32571 0.6737 0.0
C1864 C 0.89826 0.31897 0.65817 0.0
C1865 C 0.8934 0.33535 0.6818 0.0
C1866 C 0.89888 0.34451 0.69727 0.0
C1867 C 0.91245 0.35553 0.69873 0.0
C1868 C 0.91804 0.36361 0.71352 0.0
C1869 C 0.91004 0.36089 0.72689 0.0
C1870 C 0.89638 0.35016 0.72547 0.0
C1871 C 0.89076 0.34202 0.71071 0.0
H1872 H 0.9144 0.36712 0.73834 0.0
H1873 H 0.86748 0.29534 0.59074 0.0
H1874 H 0.64873 0.69393 0.19528 0.0
H1875 H 0.62468 0.69137 0.20903 0.0
H1876 H 0.65158 0.6758 0.24938 0.0
H1877 H 0.67543 0.67734 0.23537 0.0
H1878 H 0.62709 0.65582 0.241 0.0
H1879 H 0.63447 0.71286 0.24988 0.0
H1880 H 0.63795 0.74054 0.24299 0.0
H1881 H 0.59354 0.73335 0.21364 0.0
H1882 H 0.58989 0.70556 0.2202 0.0
H1883 H 0.56972 0.6512 0.29415 0.0
H1884 H 0.59236 0.66309 0.28189 0.0
H1885 H 0.56155 0.66832 0.2398 0.0
H1886 H 0.53871 0.65638 0.25221 0.0
H1887 H 0.58676 0.69418 0.24813 0.0
H1888 H 0.57969 0.63722 0.23915 0.0
H1889 H 0.57564 0.60992 0.24697 0.0
H1890 H 0.61982 0.61732 0.27671 0.0
H1891 H 0.62395 0.6448 0.26932 0.0
C1892 C 0.64958 0.68999 0.20711 0.0
C1893 C 0.66409 0.68562 0.21406 0.0
C1894 C 0.6358 0.68877 0.21507 0.0
C1895 C 0.63624 0.68339 0.23029 0.0
C1896 C 0.65088 0.67992 0.23762 0.0
C1897 C 0.66461 0.68098 0.22962 0.0
C1898 C 0.6213 0.67968 0.23788 0.0
C1899 C 0.61846 0.66437 0.24278 0.0
C1900 C 0.60961 0.69053 0.23967 0.0
C1901 C 0.61201 0.70708 0.23539 0.0
C1902 C 0.62554 0.71713 0.24181 0.0
C1903 C 0.62752 0.73285 0.238 0.0
C1904 C 0.616 0.73869 0.22785 0.0
C1905 C 0.60247 0.72881 0.22148 0.0
C1906 C 0.60044 0.71308 0.22525 0.0
C1907 C 0.56771 0.65538 0.28249 0.0
C1908 C 0.55253 0.65302 0.27413 0.0
C1909 C 0.58064 0.66209 0.27546 0.0
C1910 C 0.57867 0.66642 0.25987 0.0
C1911 C 0.5633 0.66509 0.25186 0.0
C1912 C 0.55028 0.65834 0.25894 0.0
C1913 C 0.59293 0.67056 0.2515 0.0
C1914 C 0.59552 0.68577 0.24636 0.0
C1915 C 0.60446 0.65965 0.24943 0.0
C1916 C 0.60204 0.64311 0.25381 0.0
C1917 C 0.58846 0.63308 0.24747 0.0
C1918 C 0.58616 0.61757 0.25182 0.0
C1919 C 0.59744 0.6119 0.26237 0.0
C1920 C 0.61107 0.62173 0.26857 0.0
C1921 C 0.6134 0.63727 0.26431 0.0
H1922 H 0.59564 0.59989 0.26571 0.0
H1923 H 0.61753 0.75088 0.22495 0.0
H1924 H 0.40172 0.016 0.37802 0.0
H1925 H 0.4278 0.02103 0.36806 0.0
H1926 H 0.44878 0.99423 0.40402 0.0
H1927 H 0.42285 0.98915 0.41404 0.0
H1928 H 0.46384 0.02723 0.40122 0.0
H1929 H 0.45762 0.97233 0.3662 0.0
H1930 H 0.43809 0.95266 0.35007 0.0
H1931 H 0.41795 0.99026 0.32677 0.0
H1932 H 0.43772 0.01004 0.3424 0.0
H1933 H 0.53617 0.99857 0.37344 0.0
H1934 H 0.51173 0.00375 0.38556 0.0
H1935 H 0.49934 0.03373 0.34879 0.0
H1936 H 0.52392 0.02912 0.33703 0.0
H1937 H 0.47921 1.00154 0.35068 0.0
H1938 H 0.49978 0.05189 0.37956 0.0
H1939 H 0.51954 0.06931 0.39776 0.0
H1940 H 0.51139 0.0396 0.43531 0.0
H1941 H 0.49172 0.02188 0.41724 0.0
C1942 C 0.41185 0.01096 0.38361 0.0
C1943 C 0.41032 0.00228 0.39686 0.0
C1944 C 0.4267 0.01386 0.37793 0.0
C1945 C 0.4401 0.00795 0.38533 0.0
C1946 C 0.43853 0.99892 0.39825 0.0
C1947 C 0.42375 0.99607 0.40395 0.0
C1948 C 0.45595 0.0116 0.38004 0.0
C1949 C 0.46722 0.02174 0.39012 0.0
C1950 C 0.46023 0.00439 0.36562 0.0
C1951 C 0.44905 0.99259 0.35545 0.0
C1952 C 0.44911 0.97633 0.3575 0.0
C1953 C 0.43803 0.96518 0.34845 0.0
C1954 C 0.42677 0.97021 0.33741 0.0
C1955 C 0.42666 0.98639 0.33534 0.0
C1956 C 0.43788 0.99755 0.34418 0.0
C1957 C 0.52885 0.00724 0.3687 0.0
C1958 C 0.53185 0.01334 0.35425 0.0
C1959 C 0.51474 0.00991 0.37541 0.0
C1960 C 0.50367 0.01877 0.36776 0.0
C1961 C 0.50775 0.02676 0.35473 0.0
C1962 C 0.52198 0.02437 0.34824 0.0
C1963 C 0.48709 0.01751 0.37173 0.0
C1964 C 0.47576 0.00747 0.36154 0.0
C1965 C 0.48278 0.02481 0.38609 0.0
C1966 C 0.49438 0.03553 0.39704 0.0
C1967 C 0.50229 0.04902 0.39167 0.0
C1968 C 0.51345 0.05896 0.40197 0.0
C1969 C 0.51674 0.05555 0.41768 0.0
C1970 C 0.50883 0.04222 0.42314 0.0
C1971 C 0.49766 0.03224 0.41289 0.0
H1972 H 0.5254 0.06325 0.42563 0.0
H1973 H 0.41816 0.96158 0.33045 0.0
H1974 H 0.10546 0.98512 0.70906 0.0
H1975 H 0.07631 0.98165 0.70319 0.0
H1976 H 0.07118 0.00426 0.74984 0.0
H1977 H 0.09998 0.00774 0.75567 0.0
H1978 H 0.05464 0.97485 0.74386 0.0
H1979 H 0.0635 0.02291 0.71867 0.0
H1980 H 0.07388 0.04059 0.69964 0.0
H1981 H 0.05032 0.00897 0.66066 0.0
H1982 H 0.04007 0.9909 0.67947 0.0
H1983 H 0.97743 0.99528 0.74882 0.0
H1984 H 0.00562 0.99295 0.74795 0.0
H1985 H 0.99731 0.97438 0.69854 0.0
H1986 H 0.96902 0.97804 0.69899 0.0
H1987 H 0.0206 0.99699 0.70233 0.0
H1988 H 0.00876 0.95076 0.73001 0.0
H1989 H 0.99684 0.93642 0.75081 0.0
H1990 H 0.02527 0.96777 0.78704 0.0
H1991 H 0.03719 0.98243 0.76648 0.0
C1992 C 0.09804 0.98956 0.71788 0.0
C1993 C 0.10485 0.99643 0.7329 0.0
C1994 C 0.08147 0.98758 0.71455 0.0
C1995 C 0.07168 0.99255 0.72617 0.0
C1996 C 0.07856 1.00018 0.7408 0.0
C1997 C 0.09498 1.00212 0.74412 0.0
C1998 C 0.05426 0.98887 0.72387 0.0
C1999 C 0.04717 0.97966 0.73475 0.0
C2000 C 0.04462 0.99485 0.71178 0.0
C2001 C 0.05129 0.00539 0.70047 0.0
C2002 C 0.06078 0.01957 0.70604 0.0
C2003 C 0.06658 0.0297 0.69529 0.0
C2004 C 0.06284 0.02587 0.67894 0.0
C2005 C 0.05328 0.01189 0.67331 0.0
C2006 C 0.04749 1.00168 0.68401 0.0
C2007 C 0.98156 0.99059 0.73778 0.0
C2008 C 0.97105 0.98703 0.72391 0.0
C2009 C 0.99768 0.98904 0.73736 0.0
C2010 C 0.00357 0.98325 0.72324 0.0
C2011 C 0.99298 0.97881 0.70958 0.0
C2012 C 0.97681 0.98072 0.70989 0.0
C2013 C 0.02094 0.98325 0.72256 0.0
C2014 C 0.02805 0.99174 0.71113 0.0
C2015 C 0.03065 0.97684 0.73434 0.0
C2016 C 0.02387 0.96767 0.74669 0.0
C2017 C 0.01246 0.95459 0.74242 0.0
C2018 C 0.00569 0.94643 0.75417 0.0
C2019 C 0.0103 0.95118 0.77023 0.0
C2020 C 0.02173 0.96408 0.77459 0.0
C2021 C 0.02853 0.97229 0.76289 0.0
H2022 H 0.00501 0.94486 0.77931 0.0
H2023 H 0.06729 0.03376 0.67064 0.0
H2024 H 0.62709 0.84072 0.36049 0.0
H2025 H 0.63876 0.86644 0.3542 0.0
H2026 H 0.66307 0.84316 0.31757 0.0
H2027 H 0.65129 0.81716 0.32376 0.0
H2028 H 0.68256 0.86751 0.33419 0.0
H2029 H 0.62841 0.8625 0.30882 0.0
H2030 H 0.59919 0.85837 0.30823 0.0
H2031 H 0.59972 0.89788 0.34371 0.0
H2032 H 0.62892 0.90214 0.34463 0.0
H2033 H 0.70963 0.94562 0.31519 0.0
H2034 H 0.69834 0.91774 0.31206 0.0
H2035 H 0.65893 0.93104 0.33767 0.0
H2036 H 0.6685 0.9585 0.3381 0.0
H2037 H 0.64731 0.90924 0.32171 0.0
H2038 H 0.69967 0.91183 0.35264 0.0
H2039 H 0.72889 0.91755 0.35548 0.0
H2040 H 0.7321 0.8849 0.31443 0.0
H2041 H 0.7029 0.87909 0.31132 0.0
C2042 C 0.63477 0.84094 0.35096 0.0
C2043 C 0.63798 0.82663 0.34254 0.0
C2044 C 0.64151 0.8558 0.34737 0.0
C2045 C 0.65163 0.85696 0.33516 0.0
C2046 C 0.65527 0.84272 0.327 0.0
C2047 C 0.64853 0.82778 0.33061 0.0
C2048 C 0.65827 0.87302 0.33097 0.0
C2049 C 0.67483 0.87662 0.33139 0.0
C2050 C 0.64839 0.88517 0.32748 0.0
C2051 C 0.63084 0.88257 0.32685 0.0
C2052 C 0.62229 0.87024 0.31655 0.0
C2053 C 0.60573 0.86789 0.31615 0.0
C2054 C 0.5976 0.87784 0.32594 0.0
C2055 C 0.60601 0.89018 0.33613 0.0
C2056 C 0.62256 0.89258 0.33658 0.0
C2057 C 0.69835 0.9426 0.31975 0.0
C2058 C 0.69045 0.95451 0.32756 0.0
C2059 C 0.69202 0.92645 0.31835 0.0
C2060 C 0.67803 0.92167 0.32539 0.0
C2061 C 0.66978 0.93382 0.33223 0.0
C2062 C 0.67557 0.9498 0.33281 0.0
C2063 C 0.67179 0.90439 0.32616 0.0
C2064 C 0.65521 0.90036 0.32478 0.0
C2065 C 0.68167 0.8921 0.32943 0.0
C2066 C 0.69918 0.89511 0.33171 0.0
C2067 C 0.70665 0.90585 0.34427 0.0
C2068 C 0.72318 0.90913 0.3459 0.0
C2069 C 0.73234 0.90161 0.33512 0.0
C2070 C 0.725 0.89072 0.32276 0.0
C2071 C 0.70847 0.88741 0.32107 0.0
H2072 H 0.74514 0.90421 0.33637 0.0
H2073 H 0.58479 0.87599 0.32561 0.0
H2074 H 0.75369 0.10125 0.97895 0.0
H2075 H 0.74777 0.07246 0.9753 0.0
H2076 H 0.70707 0.07624 0.00208 0.0
H2077 H 0.7133 0.10528 0.00619 0.0
H2078 H 0.72506 0.0545 0.01271 0.0
H2079 H 0.70234 0.06423 0.96108 0.0
H2080 H 0.7009 0.07501 0.93496 0.0
H2081 H 0.74186 0.05171 0.92313 0.0
H2082 H 0.7436 0.04089 0.94922 0.0
H2083 H 0.70052 0.97209 0.99677 0.0
H2084 H 0.70055 1.00094 0.99594 0.0
H2085 H 0.74548 0.00232 0.97561 0.0
H2086 H 0.74551 0.97339 0.97664 0.0
H2087 H 0.72312 0.02112 0.96134 0.0
H2088 H 0.74668 0.01229 0.01283 0.0
H2089 H 0.74832 1.00077 0.03856 0.0
H2090 H 0.70641 0.02221 0.05066 0.0
H2091 H 0.70437 0.03364 0.02486 0.0
C2092 C 0.74338 0.09597 0.98394 0.0
C2093 C 0.73402 0.10548 0.99297 0.0
C2094 C 0.73991 0.07951 0.9817 0.0
C2095 C 0.72688 0.07218 0.98827 0.0
C2096 C 0.71715 0.08168 0.99685 0.0
C2097 C 0.72064 0.09824 0.9991 0.0
C2098 C 0.72438 0.05456 0.98724 0.0
C2099 C 0.72425 0.04721 1.00144 0.0
C2100 C 0.72389 0.04502 0.9726 0.0
C2101 C 0.72316 0.05188 0.95713 0.0
C2102 C 0.71112 0.06154 0.95296 0.0
C2103 C 0.71023 0.06762 0.93814 0.0
C2104 C 0.7213 0.06408 0.9274 0.0
C2105 C 0.73329 0.05445 0.93146 0.0
C2106 C 0.73422 0.04833 0.94624 0.0
C2107 C 0.71013 0.97855 0.99169 0.0
C2108 C 0.72284 0.97068 0.98642 0.0
C2109 C 0.71024 0.99497 0.9914 0.0
C2110 C 0.72308 0.00369 0.98585 0.0
C2111 C 0.73546 0.99572 0.9799 0.0
C2112 C 0.73543 0.97928 0.98035 0.0
C2113 C 0.7238 0.0212 0.98673 0.0
C2114 C 0.72369 0.02847 0.97256 0.0
C2115 C 0.72415 0.03065 1.00139 0.0
C2116 C 0.72525 0.02365 0.01683 0.0
C2117 C 0.7377 0.01439 0.0209 0.0
C2118 C 0.73873 0.00791 0.03551 0.0
C2119 C 0.72745 0.01071 0.04622 0.0
C2120 C 0.71512 0.02002 0.04234 0.0
C2121 C 0.71402 0.0265 0.02773 0.0
H2122 H 0.72828 0.00571 0.05754 0.0
H2123 H 0.72056 0.06877 0.91592 0.0
H2124 H 0.2363 0.67579 0.68722 0.0
H2125 H 0.25065 0.65216 0.68788 0.0
H2126 H 0.20635 0.62235 0.67772 0.0
H2127 H 0.19187 0.64575 0.67908 0.0
H2128 H 0.22371 0.60703 0.69377 0.0
H2129 H 0.23375 0.63543 0.64812 0.0
H2130 H 0.24282 0.65873 0.63462 0.0
H2131 H 0.28978 0.65903 0.65824 0.0
H2132 H 0.2809 0.63588 0.67206 0.0
H2133 H 0.24841 0.54291 0.64359 0.0
H2134 H 0.23699 0.56588 0.65619 0.0
H2135 H 0.28362 0.5848 0.67748 0.0
H2136 H 0.29501 0.56165 0.66506 0.0
H2137 H 0.26792 0.60585 0.65924 0.0
H2138 H 0.25685 0.57327 0.70108 0.0
H2139 H 0.24631 0.549 0.71217 0.0
H2140 H 0.19922 0.55528 0.69223 0.0
H2141 H 0.20952 0.57946 0.6808 0.0
C2142 C 0.22952 0.66424 0.68559 0.0
C2143 C 0.21282 0.66287 0.68261 0.0
C2144 C 0.23782 0.65064 0.68567 0.0
C2145 C 0.22973 0.63532 0.68213 0.0
C2146 C 0.21304 0.63393 0.68021 0.0
C2147 C 0.20472 0.64746 0.68069 0.0
C2148 C 0.23845 0.62081 0.67948 0.0
C2149 C 0.2333 0.60683 0.68611 0.0
C2150 C 0.25123 0.62036 0.66974 0.0
C2151 C 0.25662 0.63407 0.66124 0.0
C2152 C 0.24599 0.64052 0.65047 0.0
C2153 C 0.25109 0.6537 0.64277 0.0
C2154 C 0.26685 0.66039 0.64561 0.0
C2155 C 0.27756 0.65387 0.65609 0.0
C2156 C 0.2725 0.64072 0.66386 0.0
C2157 C 0.25609 0.55167 0.65148 0.0
C2158 C 0.27252 0.55037 0.65362 0.0
C2159 C 0.24959 0.56483 0.6586 0.0
C2160 C 0.25944 0.57707 0.66781 0.0
C2161 C 0.27578 0.57547 0.67049 0.0
C2162 C 0.28225 0.56217 0.66356 0.0
C2163 C 0.25289 0.59216 0.67322 0.0
C2164 C 0.25846 0.60619 0.66705 0.0
C2165 C 0.24023 0.59252 0.68299 0.0
C2166 C 0.23398 0.57811 0.69 0.0
C2167 C 0.24426 0.56941 0.69897 0.0
C2168 C 0.23833 0.55568 0.70533 0.0
C2169 C 0.22211 0.55059 0.70288 0.0
C2170 C 0.21178 0.55924 0.69411 0.0
C2171 C 0.21766 0.57297 0.68771 0.0
H2172 H 0.21754 0.53995 0.70781 0.0
H2173 H 0.27077 0.6706 0.63965 0.0
H2174 H 0.38071 0.40562 0.02075 0.0
H2175 H 0.37202 0.43207 0.02691 0.0
H2176 H 0.40324 0.45132 0.99435 0.0
H2177 H 0.41188 0.42496 0.98807 0.0
H2178 H 0.40671 0.46938 0.02204 0.0
H2179 H 0.36351 0.4454 0.9851 0.0
H2180 H 0.34139 0.42564 0.97402 0.0
H2181 H 0.31719 0.4347 0.0158 0.0
H2182 H 0.33933 0.45432 0.02729 0.0
H2183 H 0.36958 0.53676 0.99958 0.0
H2184 H 0.38518 0.51522 0.00664 0.0
H2185 H 0.35326 0.5036 0.0417 0.0
H2186 H 0.33759 0.52514 0.03451 0.0
H2187 H 0.35049 0.48146 0.01648 0.0
H2188 H 0.39348 0.50814 0.0518 0.0
H2189 H 0.41528 0.529 0.06093 0.0
H2190 H 0.4394 0.51606 0.01994 0.0
H2191 H 0.41766 0.49524 0.01047 0.0
C2192 C 0.3855 0.41544 0.01471 0.0
C2193 C 0.39704 0.41325 0.004 0.0
C2194 C 0.38059 0.43055 0.01829 0.0
C2195 C 0.38705 0.44366 0.01114 0.0
C2196 C 0.39825 0.4414 1.00014 0.0
C2197 C 0.40315 0.42634 0.99656 0.0
C2198 C 0.38242 0.45982 0.01529 0.0
C2199 C 0.39441 0.47206 0.02077 0.0
C2200 C 0.36637 0.46322 0.01394 0.0
C2201 C 0.3532 0.45116 0.00717 0.0
C2202 C 0.35357 0.44304 0.99202 0.0
C2203 C 0.341 0.43189 0.98564 0.0
C2204 C 0.32792 0.42888 0.99422 0.0
C2205 C 0.32736 0.43702 0.00919 0.0
C2206 C 0.33992 0.44814 0.01565 0.0
C2207 C 0.36666 0.53045 0.00968 0.0
C2208 C 0.35226 0.53235 0.01631 0.0
C2209 C 0.37549 0.51796 0.0136 0.0
C2210 C 0.37013 0.50755 0.02442 0.0
C2211 C 0.35749 0.51142 0.03321 0.0
C2212 C 0.34868 0.52393 0.02928 0.0
C2213 C 0.37476 0.49107 0.02333 0.0
C2214 C 0.36276 0.47874 0.01819 0.0
C2215 C 0.39079 0.48768 0.02476 0.0
C2216 C 0.4039 0.50018 0.03039 0.0
C2217 C 0.40338 0.50982 0.04468 0.0
C2218 C 0.41574 0.52162 0.04992 0.0
C2219 C 0.42871 0.52387 0.04101 0.0
C2220 C 0.42936 0.5143 0.02684 0.0
C2221 C 0.41703 0.50247 0.02154 0.0
H2222 H 0.43827 0.53302 0.0451 0.0
H2223 H 0.31819 0.42028 0.98929 0.0
H2224 H 0.36382 0.63621 0.83917 0.0
H2225 H 0.35708 0.64782 0.86471 0.0
H2226 H 0.3108 0.65574 0.84332 0.0
H2227 H 0.31763 0.64425 0.81747 0.0
H2228 H 0.32061 0.68019 0.86389 0.0
H2229 H 0.31762 0.62422 0.8681 0.0
H2230 H 0.32674 0.59733 0.86643 0.0
H2231 H 0.36626 0.61364 0.90088 0.0
H2232 H 0.35752 0.64067 0.90258 0.0
H2233 H 0.30005 0.6933 0.94825 0.0
H2234 H 0.29861 0.68129 0.9203 0.0
H2235 H 0.34974 0.68439 0.9232 0.0
H2236 H 0.35123 0.69734 0.94995 0.0
H2237 H 0.33202 0.65207 0.9119 0.0
H2238 H 0.33729 0.70833 0.90379 0.0
H2239 H 0.32785 0.73499 0.90729 0.0
H2240 H 0.28315 0.71719 0.8813 0.0
H2241 H 0.29226 0.6903 0.87795 0.0
C2242 C 0.35213 0.64028 0.83981 0.0
C2243 C 0.34124 0.63901 0.82608 0.0
C2244 C 0.34824 0.64695 0.85457 0.0
C2245 C 0.3332 0.65238 0.85629 0.0
C2246 C 0.32244 0.65159 0.84252 0.0
C2247 C 0.3264 0.64502 0.82765 0.0
C2248 C 0.32891 0.65884 0.87243 0.0
C2249 C 0.32283 0.67379 0.87426 0.0
C2250 C 0.33174 0.65077 0.88628 0.0
C2251 C 0.33697 0.63449 0.88538 0.0
C2252 C 0.3283 0.62209 0.87525 0.0
C2253 C 0.3334 0.60682 0.8743 0.0
C2254 C 0.34709 0.60379 0.88352 0.0
C2255 C 0.35567 0.616 0.89374 0.0
C2256 C 0.35064 0.6313 0.89471 0.0
C2257 C 0.31093 0.69175 0.94276 0.0
C2258 C 0.32577 0.69601 0.95164 0.0
C2259 C 0.31012 0.68469 0.92685 0.0
C2260 C 0.32412 0.68151 0.91973 0.0
C2261 C 0.33878 0.68635 0.92841 0.0
C2262 C 0.33957 0.69379 0.94385 0.0
C2263 C 0.32407 0.67336 0.90323 0.0
C2264 C 0.32945 0.65817 0.90138 0.0
C2265 C 0.32058 0.68114 0.88944 0.0
C2266 C 0.31537 0.69734 0.89076 0.0
C2267 C 0.32542 0.7101 0.8989 0.0
C2268 C 0.32013 0.72524 0.90087 0.0
C2269 C 0.30489 0.72778 0.89455 0.0
C2270 C 0.29494 0.71519 0.8862 0.0
C2271 C 0.30016 0.70001 0.88426 0.0
H2272 H 0.3008 0.7395 0.89611 0.0
H2273 H 0.35102 0.59196 0.88277 0.0
H2274 H 0.96868 0.72237 0.10406 0.0
H2275 H 0.96506 0.71788 0.07484 0.0
H2276 H 0.01556 0.72845 0.07323 0.0
H2277 H 0.0191 0.73307 0.10225 0.0
H2278 H 0.99788 0.7482 0.05714 0.0
H2279 H 0.99822 0.69203 0.06127 0.0
H2280 H 0.98946 0.66564 0.06924 0.0
H2281 H 0.94307 0.66788 0.04528 0.0
H2282 H 0.95148 0.69443 0.03739 0.0
H2283 H 0.01626 0.72756 0.97988 0.0
H2284 H 0.01266 0.72858 0.008 0.0
H2285 H 0.96178 0.72441 0.997 0.0
H2286 H 0.96531 0.72445 0.9685 0.0
H2287 H 0.97461 0.70269 0.01898 0.0
H2288 H 0.97642 0.75765 0.01167 0.0
H2289 H 0.98617 0.78355 0.00327 0.0
H2290 H 0.02959 0.78349 0.03337 0.0
H2291 H 0.02038 0.75732 0.04152 0.0
C2292 C 0.97901 0.72309 0.09741 0.0
C2293 C 0.99417 0.72794 0.10523 0.0
C2294 C 0.97695 0.72058 0.08078 0.0
C2295 C 0.99004 0.72292 0.07192 0.0
C2296 C 0.00531 0.72662 0.07987 0.0
C2297 C 0.00735 0.72916 0.0964 0.0
C2298 C 0.98777 0.7238 0.05454 0.0
C2299 C 0.99294 0.73819 0.04878 0.0
C2300 C 0.98062 0.71098 0.04374 0.0
C2301 C 0.97539 0.69533 0.04899 0.0
C2302 C 0.98607 0.68701 0.05792 0.0
C2303 C 0.98119 0.67199 0.06236 0.0
C2304 C 0.96569 0.66511 0.05783 0.0
C2305 C 0.95505 0.67324 0.04884 0.0
C2306 C 0.95986 0.68828 0.04439 0.0
C2307 C 0.00428 0.72739 0.98337 0.0
C2308 C 0.99108 0.72643 0.97193 0.0
C2309 C 0.00226 0.72778 0.99946 0.0
C2310 C 0.98699 0.72681 0.00451 0.0
C2311 C 0.97367 0.72531 0.99323 0.0
C2312 C 0.97571 0.72526 0.97701 0.0
C2313 C 0.98529 0.72687 0.02165 0.0
C2314 C 0.97933 0.71275 0.02738 0.0
C2315 C 0.99186 0.73991 0.03247 0.0
C2316 C 0.99773 0.7554 0.02711 0.0
C2317 C 0.98816 0.76301 0.01631 0.0
C2318 C 0.99359 0.77777 0.01161 0.0
C2319 C 0.00849 0.78516 0.01779 0.0
C2320 C 0.01803 0.77777 0.02862 0.0
C2321 C 0.01274 0.76293 0.03322 0.0
H2322 H 0.01265 0.79661 0.01417 0.0
H2323 H 0.96195 0.65346 0.06123 0.0
H2324 H 0.65978 0.22325 0.66671 0.0
H2325 H 0.65845 0.23577 0.64172 0.0
H2326 H 0.70514 0.22245 0.63352 0.0
H2327 H 0.70634 0.20943 0.65843 0.0
H2328 H 0.69607 0.25715 0.62713 0.0
H2329 H 0.68254 0.20108 0.61308 0.0
H2330 H 0.66895 0.17487 0.61657 0.0
H2331 H 0.62361 0.19331 0.60894 0.0
H2332 H 0.63698 0.21973 0.60572 0.0
H2333 H 0.66899 0.26506 0.53963 0.0
H2334 H 0.68248 0.25299 0.562 0.0
H2335 H 0.64702 0.26761 0.5921 0.0
H2336 H 0.63439 0.28052 0.57074 0.0
H2337 H 0.65631 0.22994 0.58473 0.0
H2338 H 0.67049 0.28677 0.60516 0.0
H2339 H 0.68367 0.31332 0.6022 0.0
H2340 H 0.72801 0.29321 0.59786 0.0
H2341 H 0.71494 0.26646 0.6004 0.0
C2342 C 0.66988 0.22323 0.65972 0.0
C2343 C 0.68319 0.21545 0.66451 0.0
C2344 C 0.6691 0.23035 0.64545 0.0
C2345 C 0.68171 0.23005 0.6358 0.0
C2346 C 0.69533 0.22286 0.64084 0.0
C2347 C 0.69597 0.2154 0.655 0.0
C2348 C 0.67988 0.23622 0.61995 0.0
C2349 C 0.68767 0.25103 0.6177 0.0
C2350 C 0.66887 0.2283 0.60768 0.0
C2351 C 0.66076 0.21239 0.60929 0.0
C2352 C 0.66968 0.19957 0.61228 0.0
C2353 C 0.66201 0.18468 0.61419 0.0
C2354 C 0.64542 0.18243 0.61301 0.0
C2355 C 0.63646 0.19507 0.60987 0.0
C2356 C 0.64408 0.21001 0.60799 0.0
C2357 C 0.66426 0.26594 0.5511 0.0
C2358 C 0.65025 0.27335 0.55311 0.0
C2359 C 0.67194 0.25899 0.56383 0.0
C2360 C 0.66567 0.25939 0.57866 0.0
C2361 C 0.65205 0.26716 0.58077 0.0
C2362 C 0.64469 0.27435 0.56835 0.0
C2363 C 0.67232 0.25096 0.59197 0.0
C2364 C 0.66519 0.23578 0.59387 0.0
C2365 C 0.68387 0.25857 0.60391 0.0
C2366 C 0.69168 0.27461 0.60254 0.0
C2367 C 0.68298 0.28798 0.60328 0.0
C2368 C 0.69044 0.30306 0.60175 0.0
C2369 C 0.70663 0.30492 0.59969 0.0
C2370 C 0.71544 0.29173 0.59933 0.0
C2371 C 0.70801 0.2766 0.60078 0.0
H2372 H 0.71237 0.31657 0.59838 0.0
H2373 H 0.63951 0.17089 0.6145 0.0
H2374 H 0.99272 0.37181 0.40369 0.0
H2375 H 0.99898 0.36242 0.42985 0.0
H2376 H 0.0228 0.40866 0.44694 0.0
H2377 H 0.01709 0.41789 0.42081 0.0
H2378 H 0.03904 0.38593 0.45816 0.0
H2379 H 0.98448 0.39827 0.45331 0.0
H2380 H 0.95659 0.39619 0.44174 0.0
H2381 H 0.95121 0.34667 0.44939 0.0
H2382 H 0.97913 0.34835 0.46068 0.0
H2383 H 0.99951 0.3705 0.53644 0.0
H2384 H 0.00629 0.38512 0.51398 0.0
H2385 H 0.03465 0.34795 0.49849 0.0
H2386 H 0.02881 0.33404 0.5214 0.0
H2387 H 0.99367 0.36625 0.48656 0.0
H2388 H 0.05407 0.3564 0.481 0.0
H2389 H 0.08142 0.36088 0.49425 0.0
H2390 H 0.0741 0.40936 0.50864 0.0
H2391 H 0.04654 0.40495 0.49588 0.0
C2392 C 0.99947 0.37986 0.41299 0.0
C2393 C 0.00423 0.39563 0.41032 0.0
C2394 C 0.00298 0.37453 0.42791 0.0
C2395 C 0.01121 0.38493 0.44035 0.0
C2396 C 0.01643 0.40047 0.43751 0.0
C2397 C 0.01298 0.40578 0.42264 0.0
C2398 C 0.01363 0.38004 0.45661 0.0
C2399 C 0.02911 0.38159 0.46435 0.0
C2400 C 1.00069 0.37451 0.46475 0.0
C2401 C 0.98396 0.3734 0.45765 0.0
C2402 C 0.9774 0.38689 0.45234 0.0
C2403 C 0.96157 0.38578 0.44585 0.0
C2404 C 0.95213 0.37129 0.44477 0.0
C2405 C 0.95852 0.35786 0.45015 0.0
C2406 C 0.97436 0.35888 0.45659 0.0
C2407 C 0.00829 0.36622 0.529 0.0
C2408 C 0.01369 0.35122 0.5306 0.0
C2409 C 0.012 0.37445 0.51604 0.0
C2410 C 0.02095 0.36762 0.50452 0.0
C2411 C 0.02815 0.35374 0.50739 0.0
C2412 C 0.0248 0.34576 0.52058 0.0
C2413 C 0.01902 0.3723 0.48814 0.0
C2414 C 0.0036 0.37055 0.48033 0.0
C2415 C 0.03192 0.37773 0.48001 0.0
C2416 C 0.04826 0.38027 0.48782 0.0
C2417 C 0.05827 0.36794 0.48718 0.0
C2418 C 0.07378 0.37046 0.49459 0.0
C2419 C 0.07947 0.38537 0.50236 0.0
C2420 C 0.06965 0.39778 0.50274 0.0
C2421 C 0.05406 0.39525 0.49552 0.0
H2422 H 0.09151 0.38733 0.50801 0.0
H2423 H 0.93986 0.3705 0.43983 0.0
H2424 H 0.27689 0.62666 0.50267 0.0
H2425 H 0.27873 0.61303 0.52719 0.0
H2426 H 0.28264 0.5687 0.49936 0.0
H2427 H 0.28101 0.58225 0.47503 0.0
H2428 H 0.26201 0.56524 0.52276 0.0
H2429 H 0.31499 0.59057 0.51839 0.0
H2430 H 0.33551 0.61291 0.51759 0.0
H2431 H 0.32451 0.63339 0.56299 0.0
H2432 H 0.30369 0.61134 0.56391 0.0
H2433 H 0.2853 0.51867 0.5856 0.0
H2434 H 0.28416 0.53155 0.56062 0.0
H2435 H 0.29321 0.57761 0.5876 0.0
H2436 H 0.29553 0.56486 0.61205 0.0
H2437 H 0.30707 0.58027 0.56415 0.0
H2438 H 0.2541 0.55893 0.56975 0.0
H2439 H 0.2324 0.53838 0.57274 0.0
H2440 H 0.24047 0.51355 0.52824 0.0
H2441 H 0.26237 0.53385 0.5251 0.0
C2442 C 0.27795 0.61398 0.50182 0.0
C2443 C 0.27883 0.60553 0.48692 0.0
C2444 C 0.27912 0.60622 0.51583 0.0
C2445 C 0.28099 0.58982 0.51517 0.0
C2446 C 0.28127 0.58133 0.50023 0.0
C2447 C 0.28035 0.58909 0.48632 0.0
C2448 C 0.28292 0.58141 0.52991 0.0
C2449 C 0.27193 0.56845 0.53178 0.0
C2450 C 0.29554 0.58586 0.54199 0.0
C2451 C 0.30762 0.59942 0.54109 0.0
C2452 C 0.31677 0.59996 0.52808 0.0
C2453 C 0.32849 0.61255 0.52764 0.0
C2454 C 0.33126 0.62458 0.5402 0.0
C2455 C 0.32231 0.62409 0.55324 0.0
C2456 C 0.31053 0.61157 0.55371 0.0
C2457 C 0.28744 0.5315 0.58608 0.0
C2458 C 0.29032 0.54072 0.60082 0.0
C2459 C 0.2865 0.53892 0.57181 0.0
C2460 C 0.28815 0.5557 0.57207 0.0
C2461 C 0.2918 0.56473 0.58684 0.0
C2462 C 0.29305 0.55737 0.60091 0.0
C2463 C 0.28604 0.56411 0.55724 0.0
C2464 C 0.29703 0.57706 0.55527 0.0
C2465 C 0.27308 0.56004 0.5454 0.0
C2466 C 0.26 0.54778 0.54729 0.0
C2467 C 0.25133 0.54901 0.56067 0.0
C2468 C 0.23898 0.53742 0.56238 0.0
C2469 C 0.23509 0.52464 0.55071 0.0
C2470 C 0.24352 0.52344 0.53729 0.0
C2471 C 0.2559 0.53498 0.53553 0.0
H2472 H 0.22552 0.51568 0.55206 0.0
H2473 H 0.34039 0.63425 0.53986 0.0
H2474 H 0.29062 0.3971 0.88833 0.0
H2475 H 0.29981 0.42187 0.90482 0.0
H2476 H 0.2622 0.41343 0.93491 0.0
H2477 H 0.25312 0.38833 0.91881 0.0
H2478 H 0.27445 0.4479 0.91267 0.0
H2479 H 0.28009 0.41915 0.96483 0.0
H2480 H 0.28721 0.39426 0.97556 0.0
H2481 H 0.32925 0.39584 0.95071 0.0
H2482 H 0.32222 0.42068 0.93978 0.0
H2483 H 0.28801 0.50943 0.97908 0.0
H2484 H 0.2788 0.48432 0.9631 0.0
H2485 H 0.32614 0.48018 0.9495 0.0
H2486 H 0.33532 0.5057 0.96459 0.0
H2487 H 0.30858 0.45187 0.96385 0.0
H2488 H 0.30534 0.48848 0.92248 0.0
H2489 H 0.29647 0.51288 0.91215 0.0
H2490 H 0.24782 0.49575 0.91549 0.0
H2491 H 0.25645 0.47134 0.92606 0.0
C2492 C 0.28449 0.40027 0.89865 0.0
C2493 C 0.27106 0.39071 0.90218 0.0
C2494 C 0.28967 0.41452 0.90794 0.0
C2495 C 0.28156 0.41944 0.92091 0.0
C2496 C 0.26852 0.40977 0.92486 0.0
C2497 C 0.26334 0.39549 0.9156 0.0
C2498 C 0.28652 0.43495 0.93005 0.0
C2499 C 0.28184 0.4488 0.92388 0.0
C2500 C 0.29608 0.43606 0.94462 0.0
C2501 C 0.30071 0.42167 0.95162 0.0
C2502 C 0.29088 0.41417 0.96176 0.0
C2503 C 0.29485 0.40006 0.96779 0.0
C2504 C 0.30867 0.39346 0.96381 0.0
C2505 C 0.31855 0.40096 0.95377 0.0
C2506 C 0.31458 0.41504 0.94766 0.0
C2507 C 0.29639 0.50343 0.97236 0.0
C2508 C 0.31244 0.50955 0.97321 0.0
C2509 C 0.29115 0.48899 0.96343 0.0
C2510 C 0.30189 0.48039 0.95541 0.0
C2511 C 0.31777 0.48661 0.95585 0.0
C2512 C 0.32296 0.50117 0.96448 0.0
C2513 C 0.29656 0.4649 0.94644 0.0
C2514 C 0.30116 0.45103 0.95265 0.0
C2515 C 0.28674 0.46381 0.93198 0.0
C2516 C 0.28153 0.47818 0.92515 0.0
C2517 C 0.29276 0.48997 0.92108 0.0
C2518 C 0.28778 0.50379 0.91518 0.0
C2519 C 0.27159 0.50588 0.9132 0.0
C2520 C 0.26035 0.49412 0.91704 0.0
C2521 C 0.26528 0.48028 0.92297 0.0
H2522 H 0.26776 0.5166 0.90865 0.0
H2523 H 0.31175 0.38255 0.96851 0.0
H2524 H 0.70633 0.0161 0.49541 0.0
H2525 H 0.70277 0.0214 0.46767 0.0
H2526 H 0.65841 0.99137 0.46139 0.0
H2527 H 0.66226 0.9855 0.48919 0.0
H2528 H 0.67773 0.9825 0.44045 0.0
H2529 H 0.65872 0.03261 0.45647 0.0
H2530 H 0.65838 0.05865 0.47187 0.0
H2531 H 0.7045 0.07367 0.45824 0.0
H2532 H 0.70511 0.04771 0.44278 0.0
H2533 H 0.66946 0.99433 0.36017 0.0
H2534 H 0.66312 0.99976 0.38755 0.0
H2535 H 0.7117 0.01879 0.40149 0.0
H2536 H 0.71826 0.01293 0.37416 0.0
H2537 H 0.68625 0.03424 0.41767 0.0
H2538 H 0.70665 0.98383 0.40434 0.0
H2539 H 0.70753 0.95835 0.38819 0.0
H2540 H 0.65979 0.94364 0.39754 0.0
H2541 H 0.65849 0.96926 0.41343 0.0
C2542 C 0.69578 0.01068 0.48813 0.0
C2543 C 0.68473 1.00015 0.49429 0.0
C2544 C 0.6936 0.01397 0.47237 0.0
C2545 C 0.68023 0.00694 0.46256 0.0
C2546 C 0.66875 0.997 0.46887 0.0
C2547 C 0.67096 0.99365 0.48468 0.0
C2548 C 0.67964 0.00807 0.4453 0.0
C2549 C 0.6791 0.99383 0.43542 0.0
C2550 C 0.68205 0.02283 0.43886 0.0
C2551 C 0.68198 0.03822 0.44856 0.0
C2552 C 0.66884 0.04143 0.45688 0.0
C2553 C 0.66857 0.05619 0.46556 0.0
C2554 C 0.68141 0.0678 0.46604 0.0
C2555 C 0.69456 0.06467 0.45784 0.0
C2556 C 0.69485 0.04996 0.44908 0.0
C2557 C 0.67866 1.00008 0.36901 0.0
C2558 C 0.69439 0.00296 0.36528 0.0
C2559 C 0.67501 0.00322 0.38455 0.0
C2560 C 0.68703 0.00944 0.39637 0.0
C2561 C 0.70234 0.014 0.39236 0.0
C2562 C 0.70605 0.01068 0.37682 0.0
C2563 C 0.68427 0.00877 0.41308 0.0
C2564 C 0.6844 0.02299 0.42276 0.0
C2565 C 0.68162 0.99399 0.4194 0.0
C2566 C 0.68236 0.97859 0.40982 0.0
C2567 C 0.69625 0.97528 0.40275 0.0
C2568 C 0.69684 0.96078 0.39368 0.0
C2569 C 0.68369 0.94941 0.39177 0.0
C2570 C 0.66994 0.95249 0.39897 0.0
C2571 C 0.66926 0.96701 0.40799 0.0
H2572 H 0.68418 0.93818 0.38476 0.0
H2573 H 0.68117 0.07923 0.47275 0.0
H2574 H 0.80354 0.96968 0.15124 0.0
H2575 H 0.79519 0.95905 0.12369 0.0
H2576 H 0.75181 0.98194 0.12545 0.0
H2577 H 0.76009 0.99257 0.15297 0.0
H2578 H 0.74619 0.95079 0.11493 0.0
H2579 H 0.7801 0.99589 0.10402 0.0
H2580 H 0.8049 0.01372 0.10593 0.0
H2581 H 0.82936 0.97536 0.08646 0.0
H2582 H 0.80472 0.95722 0.08464 0.0
H2583 H 0.71537 0.94902 0.03565 0.0
H2584 H 0.7264 0.95443 0.06326 0.0
H2585 H 0.76739 0.93011 0.05251 0.0
H2586 H 0.75646 0.92524 0.02442 0.0
H2587 H 0.77595 0.95882 0.068 0.0
H2588 H 0.73934 0.91444 0.07676 0.0
H2589 H 0.71314 0.89879 0.07365 0.0
H2590 H 0.69246 0.93818 0.09646 0.0
H2591 H 0.71849 0.95411 0.09954 0.0
C2592 C 0.79235 0.97264 0.14563 0.0
C2593 C 0.78237 0.9818 0.15421 0.0
C2594 C 0.7876 0.96656 0.12994 0.0
C2595 C 0.77287 0.96969 0.12261 0.0
C2596 C 0.76315 0.97929 0.13099 0.0
C2597 C 0.76786 0.98531 0.14668 0.0
C2598 C 0.76712 0.96222 0.10653 0.0
C2599 C 0.75265 0.95259 0.10464 0.0
C2600 C 0.77577 0.96431 0.09325 0.0
C2601 C 0.79062 0.97515 0.09438 0.0
C2602 C 0.7908 0.99121 0.1003 0.0
C2603 C 0.80482 1.00138 0.10133 0.0
C2604 C 0.81871 0.99566 0.09637 0.0
C2605 C 0.8186 0.97976 0.09033 0.0
C2606 C 0.80461 0.96953 0.08929 0.0
C2607 C 0.72647 0.94438 0.03934 0.0
C2608 C 0.73501 0.93652 0.02814 0.0
C2609 C 0.73278 0.94746 0.05509 0.0
C2610 C 0.74761 0.94246 0.06001 0.0
C2611 C 0.75586 0.93394 0.04894 0.0
C2612 C 0.74958 0.93099 0.03303 0.0
C2613 C 0.7549 0.9475 0.07636 0.0
C2614 C 0.76966 0.9567 0.07833 0.0
C2615 C 0.74641 0.94521 0.08973 0.0
C2616 C 0.73087 0.93545 0.08838 0.0
C2617 C 0.7292 0.91976 0.0811 0.0
C2618 C 0.71437 0.91085 0.07933 0.0
C2619 C 0.70114 0.91749 0.08486 0.0
C2620 C 0.70272 0.93303 0.09221 0.0
C2621 C 0.71752 0.94199 0.09402 0.0
H2622 H 0.68967 0.91059 0.08344 0.0
H2623 H 0.82956 0.00356 0.09717 0.0
H2624 H 0.47472 0.28214 0.58064 0.0
H2625 H 0.49911 0.28389 0.56726 0.0
H2626 H 0.52639 0.27682 0.61098 0.0
H2627 H 0.50181 0.27489 0.62447 0.0
H2628 H 0.53926 0.30266 0.59602 0.0
H2629 H 0.5228 0.24785 0.58241 0.0
H2630 H 0.50447 0.22414 0.5726 0.0
H2631 H 0.49807 0.24166 0.52669 0.0
H2632 H 0.51623 0.26559 0.53629 0.0
H2633 H 0.61165 0.29665 0.56268 0.0
H2634 H 0.58781 0.29402 0.57597 0.0
H2635 H 0.55953 0.28753 0.53056 0.0
H2636 H 0.58412 0.28769 0.51701 0.0
H2637 H 0.54699 0.26851 0.54726 0.0
H2638 H 0.5649 0.32439 0.5624 0.0
H2639 H 0.58494 0.34642 0.57332 0.0
H2640 H 0.58969 0.32598 0.61786 0.0
H2641 H 0.56984 0.30373 0.60716 0.0
C2642 C 0.48589 0.2808 0.58739 0.0
C2643 C 0.4863 0.27839 0.60363 0.0
C2644 C 0.49984 0.28176 0.5797 0.0
C2645 C 0.51464 0.28049 0.58806 0.0
C2646 C 0.51513 0.27785 0.60426 0.0
C2647 C 0.50107 0.27664 0.61193 0.0
C2648 C 0.52952 0.28251 0.57987 0.0
C2649 C 0.54105 0.29511 0.58544 0.0
C2650 C 0.5318 0.27285 0.56592 0.0
C2651 C 0.52074 0.25859 0.56012 0.0
C2652 C 0.51736 0.24672 0.57027 0.0
C2653 C 0.50703 0.23322 0.56474 0.0
C2654 C 0.50008 0.23141 0.54904 0.0
C2655 C 0.50345 0.24309 0.53885 0.0
C2656 C 0.51377 0.25662 0.54432 0.0
C2657 C 0.60036 0.2948 0.55541 0.0
C2658 C 0.59988 0.29219 0.5387 0.0
C2659 C 0.58655 0.29358 0.56313 0.0
C2660 C 0.57152 0.29109 0.55449 0.0
C2661 C 0.57089 0.28953 0.53766 0.0
C2662 C 0.58494 0.28991 0.52984 0.0
C2663 C 0.55676 0.28904 0.56308 0.0
C2664 C 0.54521 0.2763 0.55767 0.0
C2665 C 0.55454 0.29857 0.57729 0.0
C2666 C 0.56592 0.31236 0.58393 0.0
C2667 C 0.5702 0.32461 0.57452 0.0
C2668 C 0.58156 0.33711 0.58067 0.0
C2669 C 0.58863 0.33755 0.59624 0.0
C2670 C 0.58423 0.3256 0.60579 0.0
C2671 C 0.5729 0.31307 0.5997 0.0
H2672 H 0.59752 0.34716 0.60091 0.0
H2673 H 0.4921 0.22094 0.54477 0.0
H2674 H 0.15709 0.75282 0.97604 0.0
H2675 H 0.13027 0.74696 0.96285 0.0
H2676 H 0.12191 0.79631 0.9717 0.0
H2677 H 0.14873 0.8022 0.98547 0.0
H2678 H 0.09774 0.77612 0.97944 0.0
H2679 H 0.12783 0.7804 0.93377 0.0
H2680 H 0.14934 0.77401 0.9172 0.0
H2681 H 0.13176 0.72456 0.91247 0.0
H2682 H 0.11023 0.73065 0.92912 0.0
H2683 H 0.02265 0.76447 0.93833 0.0
H2684 H 0.05058 0.77515 0.94331 0.0
H2685 H 0.06492 0.72795 0.93331 0.0
H2686 H 0.03701 0.71738 0.92787 0.0
H2687 H 0.08634 0.74909 0.92475 0.0
H2688 H 0.05993 0.74189 0.97138 0.0
H2689 H 0.03957 0.74481 0.99019 0.0
H2690 H 0.05089 0.79548 0.99544 0.0
H2691 H 0.07141 0.79286 0.97669 0.0
C2692 C 0.14951 0.76242 0.97533 0.0
C2693 C 0.15496 0.77796 0.9819 0.0
C2694 C 0.13427 0.75909 0.96756 0.0
C2695 C 0.12422 0.77126 0.96604 0.0
C2696 C 0.12957 0.78679 0.97263 0.0
C2697 C 0.14486 0.79014 0.98044 0.0
C2698 C 0.10785 0.76751 0.95831 0.0
C2699 C 0.09523 0.77059 0.96734 0.0
C2700 C 0.10463 0.75962 0.94279 0.0
C2701 C 0.11749 0.75598 0.93272 0.0
C2702 C 0.12861 0.76816 0.92924 0.0
C2703 C 0.14079 0.76459 0.91983 0.0
C2704 C 0.14193 0.74889 0.9138 0.0
C2705 C 0.13086 0.73672 0.91714 0.0
C2706 C 0.11865 0.74023 0.92653 0.0
C2707 C 0.03182 0.75655 0.93651 0.0
C2708 C 0.02778 0.74015 0.93269 0.0
C2709 C 0.04773 0.76259 0.93955 0.0
C2710 C 0.05978 0.75226 0.93911 0.0
C2711 C 0.0558 0.73612 0.93378 0.0
C2712 C 0.03987 0.7301 0.93055 0.0
C2713 C 0.07622 0.75787 0.94583 0.0
C2714 C 0.08884 0.75499 0.93671 0.0
C2715 C 0.0795 0.76553 0.96146 0.0
C2716 C 0.06699 0.76721 0.97245 0.0
C2717 C 0.05795 0.75366 0.97641 0.0
C2718 C 0.04642 0.75525 0.98708 0.0
C2719 C 0.04383 0.77031 0.99385 0.0
C2720 C 0.05286 0.78383 0.9901 0.0
C2721 C 0.06447 0.7823 0.97949 0.0
H2722 H 0.03487 0.77149 0.00205 0.0
H2723 H 0.15137 0.74615 0.90652 0.0
H2724 H 0.88574 0.28792 0.40243 0.0
H2725 H 0.90223 0.29652 0.42715 0.0
H2726 H 0.94026 0.2712 0.41011 0.0
H2727 H 0.92378 0.26256 0.3851 0.0
H2728 H 0.93496 0.26462 0.43985 0.0
H2729 H 0.94588 0.31285 0.41512 0.0
H2730 H 0.93912 0.33533 0.4 0.0
H2731 H 0.90796 0.34965 0.43476 0.0
H2732 H 0.91463 0.32729 0.45011 0.0
H2733 H 0.98993 0.29601 0.50531 0.0
H2734 H 0.9758 0.28794 0.47914 0.0
H2735 H 0.93743 0.31546 0.49162 0.0
H2736 H 0.95225 0.32442 0.51755 0.0
H2737 H 0.94432 0.32077 0.46337 0.0
H2738 H 0.93485 0.2723 0.4888 0.0
H2739 H 0.94414 0.25112 0.50444 0.0
H2740 H 0.97387 0.23734 0.46815 0.0
H2741 H 0.96485 0.25854 0.45236 0.0
C2742 C 0.89774 0.28448 0.4037 0.0
C2743 C 0.90342 0.27459 0.39169 0.0
C2744 C 0.90717 0.28939 0.41791 0.0
C2745 C 0.92255 0.28463 0.42045 0.0
C2746 C 0.92842 0.275 0.40841 0.0
C2747 C 0.91897 0.27006 0.39414 0.0
C2748 C 0.93201 0.28905 0.43606 0.0
C2749 C 0.93721 0.27691 0.44489 0.0
C2750 C 0.93474 0.30502 0.44281 0.0
C2751 C 0.93064 0.31839 0.43365 0.0
C2752 C 0.93753 0.32077 0.41947 0.0
C2753 C 0.93375 0.3335 0.41089 0.0
C2754 C 0.92306 0.34387 0.41638 0.0
C2755 C 0.9162 0.34158 0.4305 0.0
C2756 C 0.92002 0.32893 0.43918 0.0
C2757 C 0.97826 0.29993 0.50259 0.0
C2758 C 0.97189 0.31042 0.51349 0.0
C2759 C 0.97019 0.29536 0.48763 0.0
C2760 C 0.95535 0.30079 0.48347 0.0
C2761 C 0.94881 0.31103 0.49457 0.0
C2762 C 0.95711 0.31596 0.50943 0.0
C2763 C 0.947 0.29632 0.46732 0.0
C2764 C 0.94205 0.30846 0.45836 0.0
C2765 C 0.94456 0.28034 0.46046 0.0
C2766 C 0.9492 0.26699 0.46944 0.0
C2767 C 0.94333 0.26471 0.48415 0.0
C2768 C 0.94858 0.25273 0.49305 0.0
C2769 C 0.9596 0.2429 0.4873 0.0
C2770 C 0.96532 0.24495 0.47258 0.0
C2771 C 0.96011 0.25691 0.46362 0.0
H2772 H 0.96371 0.23368 0.49425 0.0
H2773 H 0.92015 0.35372 0.40973 0.0
H2774 H 0.4957 0.68751 0.02695 0.0
H2775 H 0.46693 0.68546 0.02895 0.0
H2776 H 0.45859 0.67017 0.9788 0.0
H2777 H 0.48737 0.67188 0.97682 0.0
H2778 H 0.44804 0.7013 0.99158 0.0
H2779 H 0.44591 0.64539 0.99937 0.0
H2780 H 0.45316 0.62209 0.01288 0.0
H2781 H 0.4372 0.64237 0.0562 0.0
H2782 H 0.43008 0.66591 0.04299 0.0
H2783 H 0.36914 0.69614 0.97146 0.0
H2784 H 0.39585 0.68935 0.97637 0.0
H2785 H 0.39101 0.69147 0.02674 0.0
H2786 H 0.36297 0.69639 0.02149 0.0
H2787 H 0.40881 0.66808 0.01767 0.0
H2788 H 0.40982 0.72333 0.01039 0.0
H2789 H 0.40157 0.74646 0.99715 0.0
H2790 H 0.42011 0.7286 0.95427 0.0
H2791 H 0.42829 0.70526 0.96718 0.0
C2792 C 0.48767 0.68322 0.0165 0.0
C2793 C 0.49355 0.67994 0.00172 0.0
C2794 C 0.47134 0.68195 0.01768 0.0
C2795 C 0.4608 0.67761 0.00404 0.0
C2796 C 0.46667 0.67335 0.98945 0.0
C2797 C 0.48301 0.67436 0.98833 0.0
C2798 C 0.44407 0.68066 0.00431 0.0
C2799 C 0.43941 0.69397 0.99715 0.0
C2800 C 0.43317 0.67152 0.0123 0.0
C2801 C 0.43768 0.6575 0.02027 0.0
C2802 C 0.44415 0.64498 0.01184 0.0
C2803 C 0.44818 0.6317 0.01942 0.0
C2804 C 0.4457 0.63077 0.03541 0.0
C2805 C 0.43916 0.64312 0.04383 0.0
C2806 C 0.43512 0.65642 0.0363 0.0
C2807 C 0.37342 0.69472 0.98358 0.0
C2808 C 0.36375 0.6967 0.99611 0.0
C2809 C 0.38889 0.69111 0.9864 0.0
C2810 C 0.39557 0.69045 0.00195 0.0
C2811 C 0.38607 0.69218 0.01463 0.0
C2812 C 0.37016 0.69524 0.01169 0.0
C2813 C 0.41266 0.68848 0.00452 0.0
C2814 C 0.41749 0.67554 0.0123 0.0
C2815 C 0.4239 0.69815 0.99734 0.0
C2816 C 0.41967 0.71256 0.98977 0.0
C2817 C 0.41215 0.72435 0.99814 0.0
C2818 C 0.40746 0.73748 0.99069 0.0
C2819 C 0.41032 0.739 0.97488 0.0
C2820 C 0.41794 0.72743 0.96652 0.0
C2821 C 0.42264 0.71427 0.97392 0.0
H2822 H 0.40662 0.74915 0.96912 0.0
H2823 H 0.44881 0.62047 0.04125 0.0
H2824 H 0.62773 0.50388 0.28312 0.0
H2825 H 0.61379 0.5281 0.28485 0.0
H2826 H 0.56884 0.49943 0.27441 0.0
H2827 H 0.58289 0.47535 0.27206 0.0
H2828 H 0.56769 0.52524 0.25972 0.0
H2829 H 0.58686 0.51592 0.31426 0.0
H2830 H 0.60766 0.51331 0.33588 0.0
H2831 H 0.62982 0.55964 0.32977 0.0
H2832 H 0.60927 0.56243 0.30799 0.0
H2833 H 0.51828 0.58569 0.28185 0.0
H2834 H 0.53118 0.56073 0.28044 0.0
H2835 H 0.57612 0.58708 0.29799 0.0
H2836 H 0.56309 0.61135 0.30068 0.0
H2837 H 0.57725 0.56209 0.30903 0.0
H2838 H 0.56281 0.57322 0.25587 0.0
H2839 H 0.54516 0.57857 0.23266 0.0
H2840 H 0.51869 0.53306 0.23318 0.0
H2841 H 0.53608 0.52752 0.25654 0.0
C2842 C 0.61489 0.50284 0.28094 0.0
C2843 C 0.60637 0.48779 0.27733 0.0
C2844 C 0.60689 0.51667 0.28212 0.0
C2845 C 0.59014 0.5157 0.28013 0.0
C2846 C 0.58171 0.50061 0.27606 0.0
C2847 C 0.58973 0.48683 0.27469 0.0
C2848 C 0.58131 0.5302 0.28254 0.0
C2849 C 0.56966 0.5332 0.2706 0.0
C2850 C 0.58425 0.54111 0.29639 0.0
C2851 C 0.59661 0.5393 0.30941 0.0
C2852 C 0.59623 0.52549 0.31746 0.0
C2853 C 0.60797 0.52399 0.32975 0.0
C2854 C 0.62007 0.53629 0.33417 0.0
C2855 C 0.62045 0.55012 0.32632 0.0
C2856 C 0.60877 0.55166 0.31401 0.0
C2857 C 0.53076 0.58596 0.28595 0.0
C2858 C 0.53962 0.60051 0.29139 0.0
C2859 C 0.53827 0.57174 0.2848 0.0
C2860 C 0.55484 0.57188 0.28868 0.0
C2861 C 0.56339 0.58637 0.29488 0.0
C2862 C 0.55588 0.60035 0.29643 0.0
C2863 C 0.56356 0.55725 0.28619 0.0
C2864 C 0.5752 0.5542 0.29811 0.0
C2865 C 0.56112 0.54673 0.27203 0.0
C2866 C 0.5506 0.55004 0.25806 0.0
C2867 C 0.55314 0.56441 0.25111 0.0
C2868 C 0.5432 0.56747 0.23792 0.0
C2869 C 0.53077 0.55619 0.23148 0.0
C2870 C 0.52829 0.5418 0.2382 0.0
C2871 C 0.53818 0.53869 0.25141 0.0
H2872 H 0.52309 0.55857 0.22126 0.0
H2873 H 0.62913 0.53511 0.3437 0.0
H2874 H 0.99792 0.14611 0.79538 0.0
H2875 H 0.98566 0.11857 0.78983 0.0
H2876 H 0.95095 0.1338 0.75549 0.0
H2877 H 0.96305 0.16118 0.76107 0.0
H2878 H 0.93749 0.11183 0.77263 0.0
H2879 H 0.98274 0.1191 0.74346 0.0
H2880 H 0.01077 0.12632 0.73944 0.0
H2881 H 0.02514 0.08998 0.76836 0.0
H2882 H 0.99718 0.08277 0.77285 0.0
H2883 H 0.92492 0.03769 0.71867 0.0
H2884 H 0.93012 0.06551 0.73029 0.0
H2885 H 0.95305 0.04995 0.77283 0.0
H2886 H 0.94751 0.02227 0.76156 0.0
H2887 H 0.9719 0.07178 0.75224 0.0
H2888 H 0.92505 0.06507 0.78078 0.0
H2889 H 0.89647 0.05781 0.78229 0.0
H2890 H 0.8849 0.09318 0.75099 0.0
H2891 H 0.91344 0.10049 0.74913 0.0
C2892 C 0.98752 0.14353 0.78686 0.0
C2893 C 0.98148 0.15559 0.77849 0.0
C2894 C 0.98059 0.12787 0.78367 0.0
C2895 C 0.96752 0.1242 0.77214 0.0
C2896 C 0.96102 0.13641 0.76441 0.0
C2897 C 0.96799 0.15198 0.76751 0.0
C2898 C 0.96122 0.10754 0.76726 0.0
C2899 C 0.94501 0.10309 0.76813 0.0
C2900 C 0.97104 0.0962 0.76131 0.0
C2901 C 0.98788 0.10055 0.75869 0.0
C2902 C 0.99188 0.11277 0.74913 0.0
C2903 C 0.00776 0.11685 0.74674 0.0
C2904 C 0.01974 0.10866 0.75369 0.0
C2905 C 0.01585 0.09635 0.76303 0.0
C2906 C 0.99999 0.09227 0.76551 0.0
C2907 C 0.93042 0.04021 0.73076 0.0
C2908 C 0.9359 0.02795 0.73922 0.0
C2909 C 0.9335 0.05604 0.73731 0.0
C2910 C 0.9421 0.05963 0.7523 0.0
C2911 C 0.94645 0.04732 0.76123 0.0
C2912 C 0.94322 0.03157 0.75481 0.0
C2913 C 0.94831 0.0761 0.75788 0.0
C2914 C 0.96448 0.08052 0.75695 0.0
C2915 C 0.93844 0.08745 0.76348 0.0
C2916 C 0.92133 0.0832 0.76469 0.0
C2917 C 0.9164 0.07119 0.77411 0.0
C2918 C 0.90021 0.06709 0.77505 0.0
C2919 C 0.88887 0.075 0.7667 0.0
C2920 C 0.89369 0.08705 0.75743 0.0
C2921 C 0.90987 0.09119 0.75644 0.0
H2922 H 0.87634 0.07181 0.76745 0.0
H2923 H 0.03202 0.11181 0.7518 0.0
H2924 H 0.40513 0.89847 0.24886 0.0
H2925 H 0.42989 0.91502 0.25766 0.0
H2926 H 0.41062 0.93093 0.30103 0.0
H2927 H 0.38563 0.91414 0.29229 0.0
H2928 H 0.4292 0.95584 0.28348 0.0
H2929 H 0.43293 0.9058 0.30648 0.0
H2930 H 0.43085 0.87652 0.30558 0.0
H2931 H 0.46457 0.87471 0.27068 0.0
H2932 H 0.46667 0.90399 0.27124 0.0
H2933 H 0.49834 0.98667 0.33026 0.0
H2934 H 0.47346 0.97179 0.31999 0.0
H2935 H 0.49715 0.94607 0.2843 0.0
H2936 H 0.52279 0.96027 0.29547 0.0
H2937 H 0.47615 0.92663 0.29663 0.0
H2938 H 0.4753 0.97701 0.27601 0.0
H2939 H 0.47871 0.00632 0.2782 0.0
H2940 H 0.44022 0.00815 0.30778 0.0
H2941 H 0.43667 0.9788 0.30577 0.0
C2942 C 0.40602 0.90568 0.26016 0.0
C2943 C 0.39341 0.90505 0.26986 0.0
C2944 C 0.42019 0.91509 0.26518 0.0
C2945 C 0.42203 0.92418 0.27995 0.0
C2946 C 0.40934 0.92402 0.28953 0.0
C2947 C 0.39516 0.91438 0.2846 0.0
C2948 C 0.43767 0.93287 0.28568 0.0
C2949 C 0.43945 0.94953 0.28654 0.0
C2950 C 0.45109 0.92456 0.28915 0.0
C2951 C 0.44981 0.90701 0.28877 0.0
C2952 C 0.43977 0.89913 0.2985 0.0
C2953 C 0.43862 0.88255 0.29809 0.0
C2954 C 0.44754 0.87375 0.28805 0.0
C2955 C 0.45765 0.88153 0.27843 0.0
C2956 C 0.45884 0.89811 0.2788 0.0
C2957 C 0.49851 0.97753 0.32053 0.0
C2958 C 0.51275 0.97437 0.31396 0.0
C2959 C 0.4841 0.96925 0.31444 0.0
C2960 C 0.48337 0.95803 0.30119 0.0
C2961 C 0.49748 0.95477 0.29451 0.0
C2962 C 0.51208 0.96291 0.30083 0.0
C2963 C 0.46779 0.94969 0.29458 0.0
C2964 C 0.46598 0.93305 0.29348 0.0
C2965 C 0.45442 0.95808 0.29075 0.0
C2966 C 0.45586 0.9757 0.29099 0.0
C2967 C 0.46758 0.98365 0.28302 0.0
C2968 C 0.46955 1.00028 0.28421 0.0
C2969 C 0.45974 0.00911 0.2932 0.0
C2970 C 0.44785 1.00131 0.30087 0.0
C2971 C 0.44584 0.98469 0.2997 0.0
H2972 H 0.46132 0.02198 0.29416 0.0
H2973 H 0.44665 0.86091 0.28775 0.0
H2974 H 0.017 0.49475 0.70513 0.0
H2975 H 0.02027 0.46653 0.70223 0.0
H2976 H 0.99193 0.46144 0.65686 0.0
H2977 H 0.988 0.48984 0.66011 0.0
H2978 H 0.98066 0.44128 0.67531 0.0
H2979 H 0.03229 0.45326 0.65956 0.0
H2980 H 0.05927 0.46678 0.65974 0.0
H2981 H 0.07152 0.45334 0.7066 0.0
H2982 H 0.04458 0.43987 0.70676 0.0
H2983 H 0.98922 0.35945 0.6759 0.0
H2984 H 0.99512 0.38599 0.66755 0.0
H2985 H 0.01085 0.4039 0.71611 0.0
H2986 H 0.00461 0.37727 0.72466 0.0
H2987 H 0.02961 0.41567 0.69002 0.0
H2988 H 0.97611 0.40956 0.70734 0.0
H2989 H 0.9497 0.39475 0.70709 0.0
H2990 H 0.94171 0.39663 0.6566 0.0
H2991 H 0.96817 0.41135 0.65656 0.0
C2992 C 0.01155 0.48765 0.69448 0.0
C2993 C 0.00198 0.49435 0.683 0.0
C2994 C 0.01369 0.47157 0.69267 0.0
C2995 C 0.00652 0.46192 0.67922 0.0
C2996 C 0.99765 0.46875 0.66728 0.0
C2997 C 0.99542 0.48492 0.66913 0.0
C2998 C 0.00631 0.44451 0.67911 0.0
C2999 C 0.99143 0.43562 0.67802 0.0
C3000 C 0.02031 0.43716 0.68302 0.0
C3001 C 0.0364 0.44561 0.68318 0.0
C3002 C 0.0407 0.45331 0.66995 0.0
C3003 C 0.056 0.46093 0.66998 0.0
C3004 C 0.0671 0.46093 0.68317 0.0
C3005 C 0.06292 0.45332 0.69638 0.0
C3006 C 0.04765 0.44566 0.6964 0.0
C3007 C 0.99413 0.36903 0.68475 0.0
C3008 C 0.99621 0.36656 0.70093 0.0
C3009 C 0.99756 0.38407 0.67996 0.0
C3010 C 0.00324 0.39672 0.69127 0.0
C3011 C 0.00648 0.3941 0.70729 0.0
C3012 C 0.00293 0.37901 0.71214 0.0
C3013 C 0.0041 0.41294 0.68661 0.0
C3014 C 0.01899 0.42141 0.68684 0.0
C3015 C 0.99016 0.41992 0.6819 0.0
C3016 C 0.97413 0.41141 0.68192 0.0
C3017 C 0.96874 0.40673 0.69618 0.0
C3018 C 0.95376 0.39838 0.69609 0.0
C3019 C 0.94405 0.3947 0.68183 0.0
C3020 C 0.94926 0.39946 0.66763 0.0
C3021 C 0.96423 0.40784 0.66766 0.0
H3022 H 0.93247 0.3882 0.68179 0.0
H3023 H 0.07895 0.46681 0.68316 0.0
H3024 H 0.70713 0.42001 0.52622 0.0
H3025 H 0.70562 0.43284 0.50162 0.0
H3026 H 0.73913 0.40245 0.48291 0.0
H3027 H 0.74071 0.38946 0.50771 0.0
H3028 H 0.74632 0.43134 0.47581 0.0
H3029 H 0.69841 0.39695 0.4681 0.0
H3030 H 0.67293 0.38399 0.47464 0.0
H3031 H 0.65439 0.42948 0.48046 0.0
H3032 H 0.67979 0.44271 0.47401 0.0
H3033 H 0.7358 0.45165 0.39792 0.0
H3034 H 0.73661 0.43889 0.42197 0.0
H3035 H 0.69962 0.46633 0.43824 0.0
H3036 H 0.69674 0.47726 0.41216 0.0
H3037 H 0.69448 0.43879 0.44689 0.0
H3038 H 0.74544 0.47214 0.45201 0.0
H3039 H 0.77065 0.48132 0.44172 0.0
H3040 H 0.78374 0.43341 0.43776 0.0
H3041 H 0.75861 0.42396 0.44794 0.0
C3042 C 0.71408 0.41588 0.51685 0.0
C3043 C 0.72392 0.40352 0.51899 0.0
C3044 C 0.71317 0.42325 0.5027 0.0
C3045 C 0.72198 0.41847 0.49015 0.0
C3046 C 0.73211 0.40636 0.49233 0.0
C3047 C 0.73307 0.39897 0.50657 0.0
C3048 C 0.72094 0.42652 0.47508 0.0
C3049 C 0.73497 0.43286 0.46944 0.0
C3050 C 0.7062 0.42866 0.46666 0.0
C3051 C 0.69103 0.42082 0.47077 0.0
C3052 C 0.68894 0.40419 0.47092 0.0
C3053 C 0.6745 0.39679 0.47456 0.0
C3054 C 0.66207 0.40591 0.47803 0.0
C3055 C 0.66403 0.42244 0.4778 0.0
C3056 C 0.67843 0.42988 0.47412 0.0
C3057 C 0.72754 0.45492 0.40639 0.0
C3058 C 0.71579 0.46518 0.40268 0.0
C3059 C 0.72841 0.44786 0.42058 0.0
C3060 C 0.71868 0.45195 0.43251 0.0
C3061 C 0.70744 0.46296 0.42935 0.0
C3062 C 0.70591 0.46942 0.41452 0.0
C3063 C 0.71987 0.44405 0.44776 0.0
C3064 C 0.70584 0.43759 0.45339 0.0
C3065 C 0.73468 0.44147 0.45596 0.0
C3066 C 0.75016 0.44737 0.45074 0.0
C3067 C 0.75374 0.4636 0.44902 0.0
C3068 C 0.768 0.46883 0.44316 0.0
C3069 C 0.77878 0.45795 0.43908 0.0
C3070 C 0.7754 0.44183 0.44096 0.0
C3071 C 0.76119 0.43654 0.44683 0.0
H3072 H 0.78977 0.46202 0.43447 0.0
H3073 H 0.6509 0.40017 0.48085 0.0
H3074 H 0.73208 0.62125 0.08153 0.0
H3075 H 0.72415 0.59721 0.06308 0.0
H3076 H 0.71883 0.56954 0.10294 0.0
H3077 H 0.72646 0.59343 0.12132 0.0
H3078 H 0.73823 0.55699 0.07982 0.0
H3079 H 0.68719 0.57814 0.08324 0.0
H3080 H 0.66899 0.59911 0.08079 0.0
H3081 H 0.67498 0.59878 0.03099 0.0
H3082 H 0.69346 0.578 0.03322 0.0
H3083 H 0.69246 0.4846 0.04885 0.0
H3084 H 0.70206 0.51025 0.06356 0.0
H3085 H 0.70835 0.53071 0.0195 0.0
H3086 H 0.69968 0.5049 0.00467 0.0
H3087 H 0.68934 0.54793 0.0422 0.0
H3088 H 0.73914 0.52765 0.03726 0.0
H3089 H 0.75798 0.50716 0.03809 0.0
H3090 H 0.75545 0.50671 0.08841 0.0
H3091 H 0.73628 0.52699 0.08781 0.0
C3092 C 0.72905 0.61004 0.08628 0.0
C3093 C 0.72977 0.60916 0.10281 0.0
C3094 C 0.72452 0.59637 0.07578 0.0
C3095 C 0.72093 0.58165 0.0817 0.0
C3096 C 0.72155 0.58081 0.09818 0.0
C3097 C 0.72579 0.59446 0.10863 0.0
C3098 C 0.71707 0.56691 0.07086 0.0
C3099 C 0.72749 0.55498 0.07168 0.0
C3100 C 0.70333 0.56454 0.05987 0.0
C3101 C 0.69194 0.57674 0.05847 0.0
C3102 C 0.68477 0.58267 0.07181 0.0
C3103 C 0.6744 0.59452 0.07046 0.0
C3104 C 0.67098 0.60042 0.05578 0.0
C3105 C 0.67777 0.59433 0.04238 0.0
C3106 C 0.68817 0.5825 0.04368 0.0
C3107 C 0.69638 0.49438 0.04229 0.0
C3108 C 0.69524 0.4927 0.02557 0.0
C3109 C 0.70162 0.50908 0.0507 0.0
C3110 C 0.70563 0.52233 0.04254 0.0
C3111 C 0.70507 0.52062 0.02594 0.0
C3112 C 0.70017 0.50587 0.01753 0.0
C3113 C 0.71037 0.538 0.05146 0.0
C3114 C 0.70014 0.55006 0.05026 0.0
C3115 C 0.72441 0.54064 0.06191 0.0
C3116 C 0.73616 0.5287 0.06246 0.0
C3117 C 0.74248 0.52308 0.04848 0.0
C3118 C 0.75323 0.51151 0.04891 0.0
C3119 C 0.75788 0.5056 0.06329 0.0
C3120 C 0.75181 0.51129 0.07728 0.0
C3121 C 0.74101 0.52282 0.0769 0.0
H3122 H 0.76621 0.49664 0.0636 0.0
H3123 H 0.66292 0.60957 0.05475 0.0
H3124 H 0.33987 0.98514 0.5102 0.0
H3125 H 0.34483 0.98795 0.53924 0.0
H3126 H 0.30427 0.01507 0.54248 0.0
H3127 H 0.29973 0.01297 0.51359 0.0
H3128 H 0.32678 0.02638 0.56486 0.0
H3129 H 0.30148 0.97483 0.54333 0.0
H3130 H 0.29882 0.9487 0.52757 0.0
H3131 H 0.34074 0.93601 0.55378 0.0
H3132 H 0.34383 0.96223 0.56947 0.0
H3133 H 0.28949 0.01265 0.63092 0.0
H3134 H 0.29528 0.00859 0.60322 0.0
H3135 H 0.33909 0.98941 0.61812 0.0
H3136 H 0.33276 0.99275 0.64594 0.0
H3137 H 0.3221 0.9748 0.58853 0.0
H3138 H 0.34079 0.02631 0.61499 0.0
H3139 H 0.33611 0.04991 0.63239 0.0
H3140 H 0.30093 0.06206 0.59713 0.0
H3141 H 0.30467 0.03799 0.57987 0.0
C3142 C 0.33225 0.992 0.51712 0.0
C3143 C 0.31922 0.99858 0.5097 0.0
C3144 C 0.33507 0.99354 0.53367 0.0
C3145 C 0.32477 1.0015 0.54294 0.0
C3146 C 0.31234 0.00885 0.53551 0.0
C3147 C 0.3096 0.00743 0.51903 0.0
C3148 C 0.32571 1.00085 0.56029 0.0
C3149 C 0.32592 0.01513 0.57007 0.0
C3150 C 0.32468 0.98613 0.56706 0.0
C3151 C 0.32307 0.97058 0.55733 0.0
C3152 C 0.31026 0.96656 0.54557 0.0
C3153 C 0.30865 0.95172 0.53668 0.0
C3154 C 0.31966 0.94073 0.53962 0.0
C3155 C 0.33228 0.94456 0.55146 0.0
C3156 C 0.33399 0.95942 0.56032 0.0
C3157 C 0.30006 0.00708 0.62815 0.0
C3158 C 0.31096 0.00331 0.64028 0.0
C3159 C 0.3034 0.00485 0.61245 0.0
C3160 C 0.31781 0.99918 0.60887 0.0
C3161 C 0.32803 0.99402 0.62085 0.0
C3162 C 0.32454 0.99606 0.63662 0.0
C3163 C 0.32269 1.00021 0.59284 0.0
C3164 C 0.32361 0.98606 0.58339 0.0
C3165 C 0.32427 0.01501 0.58633 0.0
C3166 C 0.32302 0.03027 0.59609 0.0
C3167 C 0.33205 0.03399 0.61091 0.0
C3168 C 0.32952 0.04744 0.6208 0.0
C3169 C 0.31834 0.05757 0.61582 0.0
C3170 C 0.30963 0.05424 0.60095 0.0
C3171 C 0.3119 0.04064 0.59113 0.0
H3172 H 0.3164 0.06796 0.62351 0.0
H3173 H 0.31836 0.92922 0.53277 0.0
H3174 H 0.20914 0.04816 0.84538 0.0
H3175 H 0.21414 0.05584 0.87409 0.0
H3176 H 0.2474 0.0203 0.87791 0.0
H3177 H 0.24204 0.01226 0.84951 0.0
H3178 H 0.2302 0.02085 0.90198 0.0
H3179 H 0.25978 0.05902 0.87491 0.0
H3180 H 0.26284 0.07894 0.85561 0.0
H3181 H 0.23293 0.10863 0.88077 0.0
H3182 H 0.22946 0.08871 0.90006 0.0
H3183 H 0.28417 0.04623 0.96801 0.0
H3184 H 0.27218 0.04091 0.94063 0.0
H3185 H 0.23818 0.0747 0.95005 0.0
H3186 H 0.25024 0.08008 0.97776 0.0
H3187 H 0.25181 0.07642 0.92028 0.0
H3188 H 0.21923 0.03315 0.9439 0.0
H3189 H 0.21464 0.00963 0.95873 0.0
H3190 H 0.25358 0.98882 0.93849 0.0
H3191 H 0.25804 0.01204 0.9232 0.0
C3192 C 0.21725 0.0418 0.85246 0.0
C3193 C 0.22538 0.02978 0.84528 0.0
C3194 C 0.2202 0.04629 0.86877 0.0
C3195 C 0.23136 0.03883 0.87801 0.0
C3196 C 0.23883 0.02627 0.87095 0.0
C3197 C 0.23584 0.02176 0.85474 0.0
C3198 C 0.23583 0.04431 0.89494 0.0
C3199 C 0.23492 0.03302 0.90595 0.0
C3200 C 0.24185 0.0602 0.90013 0.0
C3201 C 0.2442 0.07232 0.88879 0.0
C3202 C 0.25377 0.06975 0.87626 0.0
C3203 C 0.25558 0.08103 0.86532 0.0
C3204 C 0.24804 0.09502 0.86693 0.0
C3205 C 0.23873 0.09777 0.87952 0.0
C3206 C 0.23683 0.0865 0.89045 0.0
C3207 C 0.27424 0.05265 0.96419 0.0
C3208 C 0.26802 0.06347 0.97495 0.0
C3209 C 0.26732 0.0495 0.94863 0.0
C3210 C 0.25404 0.05708 0.94351 0.0
C3211 C 0.24832 0.0686 0.95391 0.0
C3212 C 0.25527 0.07177 0.96962 0.0
C3213 C 0.24637 0.05285 0.92721 0.0
C3214 C 0.24674 0.06437 0.91632 0.0
C3215 C 0.24026 0.03705 0.92193 0.0
C3216 C 0.23909 0.02434 0.93267 0.0
C3217 C 0.22695 0.02366 0.94286 0.0
C3218 C 0.22426 0.01031 0.95118 0.0
C3219 C 0.23378 0.99771 0.94952 0.0
C3220 C 0.24617 0.99855 0.93972 0.0
C3221 C 0.24875 0.01175 0.93119 0.0
H3222 H 0.23158 0.98731 0.95584 0.0
H3223 H 0.24945 0.10374 0.85845 0.0
H3224 H 0.52972 0.7282 0.42595 0.0
H3225 H 0.50529 0.7264 0.43935 0.0
H3226 H 0.47739 0.72477 0.39406 0.0
H3227 H 0.50201 0.72709 0.38071 0.0
H3228 H 0.46297 0.74099 0.41496 0.0
H3229 H 0.48226 0.69068 0.41311 0.0
H3230 H 0.50131 0.67054 0.41602 0.0
H3231 H 0.50723 0.68263 0.4666 0.0
H3232 H 0.48838 0.70303 0.46395 0.0
H3233 H 0.39326 0.7016 0.44174 0.0
H3234 H 0.41831 0.70429 0.4296 0.0
H3235 H 0.44197 0.72697 0.4739 0.0
H3236 H 0.41654 0.7249 0.48604 0.0
H3237 H 0.45775 0.70015 0.45319 0.0
H3238 H 0.43455 0.75072 0.45182 0.0
H3239 H 0.41246 0.76684 0.44541 0.0
H3240 H 0.41063 0.74943 0.39611 0.0
H3241 H 0.43249 0.7329 0.40229 0.0
C3242 C 0.51836 0.72773 0.41891 0.0
C3243 C 0.51776 0.72792 0.40233 0.0
C3244 C 0.50436 0.72654 0.42655 0.0
C3245 C 0.48933 0.72514 0.41777 0.0
C3246 C 0.48874 0.72582 0.40118 0.0
C3247 C 0.50281 0.72716 0.39354 0.0
C3248 C 0.4744 0.72243 0.42592 0.0
C3249 C 0.46187 0.73199 0.42324 0.0
C3250 C 0.47261 0.71057 0.43664 0.0
C3251 C 0.48407 0.69849 0.43831 0.0
C3252 C 0.48774 0.68914 0.42483 0.0
C3253 C 0.49848 0.67766 0.42644 0.0
C3254 C 0.50551 0.67534 0.44148 0.0
C3255 C 0.5018 0.68447 0.45495 0.0
C3256 C 0.49109 0.69599 0.45341 0.0
C3257 C 0.40388 0.70682 0.44906 0.0
C3258 C 0.40289 0.71299 0.46492 0.0
C3259 C 0.41816 0.70847 0.44203 0.0
C3260 C 0.43197 0.71605 0.45074 0.0
C3261 C 0.43141 0.72115 0.46693 0.0
C3262 C 0.41694 0.71977 0.47394 0.0
C3263 C 0.44673 0.71903 0.44262 0.0
C3264 C 0.45907 0.70932 0.44512 0.0
C3265 C 0.44803 0.73033 0.4313 0.0
C3266 C 0.43504 0.74043 0.42756 0.0
C3267 C 0.42932 0.75019 0.43965 0.0
C3268 C 0.41686 0.75942 0.43605 0.0
C3269 C 0.41011 0.75912 0.42037 0.0
C3270 C 0.41585 0.74962 0.40825 0.0
C3271 C 0.42827 0.74032 0.4118 0.0
H3272 H 0.40046 0.76628 0.41761 0.0
H3273 H 0.51381 0.66642 0.4427 0.0
H3274 H 0.85457 0.22817 0.00459 0.0
H3275 H 0.88266 0.23408 0.01437 0.0
H3276 H 0.87191 0.22325 0.06126 0.0
H3277 H 0.84372 0.21732 0.05151 0.0
H3278 H 0.88805 0.25371 0.05999 0.0
H3279 H 0.89282 0.19911 0.04124 0.0
H3280 H 0.8894 0.17565 0.02145 0.0
H3281 H 0.91738 0.20108 0.99035 0.0
H3282 H 0.92077 0.22479 0.00984 0.0
H3283 H 0.97535 0.25816 0.08496 0.0
H3284 H 0.9471 0.24763 0.08084 0.0
H3285 H 0.94256 0.26758 0.03581 0.0
H3286 H 0.97006 0.27899 0.04024 0.0
H3287 H 0.93448 0.23021 0.03905 0.0
H3288 H 0.92491 0.28484 0.05226 0.0
H3289 H 0.92763 0.31041 0.06894 0.0
H3290 H 0.90766 0.28732 0.10674 0.0
H3291 H 0.90526 0.26147 0.09038 0.0
C3292 C 0.85828 0.22677 0.01691 0.0
C3293 C 0.84706 0.22236 0.02735 0.0
C3294 C 0.87429 0.23007 0.02245 0.0
C3295 C 0.87929 0.22906 0.03851 0.0
C3296 C 0.86821 0.22403 0.04881 0.0
C3297 C 0.8522 0.22057 0.04323 0.0
C3298 C 0.89577 0.23473 0.04478 0.0
C3299 C 0.89822 0.24832 0.05574 0.0
C3300 C 0.90894 0.22804 0.0387 0.0
C3301 C 0.90698 0.21376 0.02699 0.0
C3302 C 0.89815 0.19974 0.03014 0.0
C3303 C 0.89623 0.18639 0.01898 0.0
C3304 C 0.90315 0.18688 0.00465 0.0
C3305 C 0.91203 0.20072 1.00146 0.0
C3306 C 0.91397 0.21411 0.01257 0.0
C3307 C 0.96818 0.26065 0.07443 0.0
C3308 C 0.97501 0.26909 0.06278 0.0
C3309 C 0.95215 0.25455 0.07204 0.0
C3310 C 0.94295 0.25676 0.05796 0.0
C3311 C 0.94957 0.26571 0.04669 0.0
C3312 C 0.96531 0.2721 0.04922 0.0
C3313 C 0.92667 0.24905 0.0543 0.0
C3314 C 0.92429 0.23524 0.04367 0.0
C3315 C 0.91353 0.25579 0.06027 0.0
C3316 C 0.91532 0.27117 0.07028 0.0
C3317 C 0.92145 0.28514 0.06426 0.0
C3318 C 0.92285 0.2997 0.07362 0.0
C3319 C 0.91793 0.30047 0.08894 0.0
C3320 C 0.91157 0.28668 0.09491 0.0
C3321 C 0.91023 0.27207 0.08562 0.0
H3322 H 0.91896 0.31177 0.09616 0.0
H3323 H 0.90166 0.17652 0.99603 0.0
H3324 H 0.08031 0.72995 0.61728 0.0
H3325 H 0.0625 0.72165 0.59288 0.0
H3326 H 0.10305 0.71235 0.56745 0.0
H3327 H 0.12077 0.72037 0.59166 0.0
H3328 H 0.08272 0.73383 0.55397 0.0
H3329 H 0.08031 0.683 0.57526 0.0
H3330 H 0.07451 0.66288 0.59374 0.0
H3331 H 0.02501 0.67042 0.58838 0.0
H3332 H 0.03058 0.69097 0.57023 0.0
H3333 H 0.04909 0.69087 0.47968 0.0
H3334 H 0.06444 0.69953 0.50532 0.0
H3335 H 0.02141 0.71019 0.52579 0.0
H3336 H 0.00613 0.70246 0.50009 0.0
H3337 H 0.04118 0.68832 0.54237 0.0
H3338 H 0.04254 0.73923 0.523 0.0
H3339 H 0.0466 0.75832 0.5031 0.0
H3340 H 0.09606 0.75058 0.50489 0.0
H3341 H 0.0922 0.73113 0.52457 0.0
C3342 C 0.08536 0.7259 0.60652 0.0
C3343 C 0.10193 0.72578 0.60638 0.0
C3344 C 0.07519 0.7211 0.59264 0.0
C3345 C 0.08148 0.71637 0.57838 0.0
C3346 C 0.09796 0.71589 0.57835 0.0
C3347 C 0.10806 0.72041 0.59222 0.0
C3348 C 0.07123 0.71333 0.56313 0.0
C3349 C 0.07374 0.72379 0.55143 0.0
C3350 C 0.05911 0.70053 0.55999 0.0
C3351 C 0.05594 0.6888 0.57161 0.0
C3352 C 0.06825 0.68066 0.57829 0.0
C3353 C 0.06499 0.66911 0.58865 0.0
C3354 C 0.04942 0.66544 0.5923 0.0
C3355 C 0.03708 0.67334 0.58562 0.0
C3356 C 0.0403 0.68498 0.57533 0.0
C3357 C 0.04299 0.69568 0.48944 0.0
C3358 C 0.02637 0.69585 0.48786 0.0
C3359 C 0.05172 0.70036 0.50415 0.0
C3360 C 0.04396 0.70517 0.51747 0.0
C3361 C 0.02755 0.70627 0.5157 0.0
C3362 C 0.01889 0.70194 0.50098 0.0
C3363 C 0.05291 0.7087 0.53335 0.0
C3364 C 0.05011 0.6984 0.54508 0.0
C3365 C 0.06457 0.72174 0.53668 0.0
C3366 C 0.06705 0.73359 0.52509 0.0
C3367 C 0.05425 0.74147 0.51902 0.0
C3368 C 0.05651 0.75237 0.5078 0.0
C3369 C 0.07157 0.75562 0.50269 0.0
C3370 C 0.0844 0.74802 0.50884 0.0
C3371 C 0.08218 0.73705 0.52002 0.0
H3372 H 0.0733 0.76408 0.494 0.0
H3373 H 0.04691 0.65641 0.60025 0.0
H3374 H 0.50897 0.32535 0.97153 0.0
H3375 H 0.53798 0.32614 0.97183 0.0
H3376 H 0.54204 0.32545 0.02285 0.0
H3377 H 0.51305 0.32432 0.02251 0.0
H3378 H 0.56856 0.34341 0.0102 0.0
H3379 H 0.53709 0.29233 0.00487 0.0
H3380 H 0.51649 0.27121 0.99316 0.0
H3381 H 0.53663 0.27101 0.9484 0.0
H3382 H 0.55716 0.2924 0.95981 0.0
H3383 H 0.62639 0.29468 0.03533 0.0
H3384 H 0.60112 0.30503 0.02867 0.0
H3385 H 0.60938 0.30148 0.97913 0.0
H3386 H 0.63494 0.29158 0.98565 0.0
H3387 H 0.57888 0.28995 0.98667 0.0
H3388 H 0.61512 0.33619 0.99589 0.0
H3389 H 0.63677 0.35497 0.00977 0.0
H3390 H 0.6089 0.36309 0.04903 0.0
H3391 H 0.58727 0.34391 0.03569 0.0
C3392 C 0.51616 0.32596 0.98282 0.0
C3393 C 0.509 0.32464 0.99698 0.0
C3394 C 0.53264 0.32646 0.98299 0.0
C3395 C 0.542 0.32578 0.99735 0.0
C3396 C 0.53494 0.3261 0.01169 0.0
C3397 C 0.51846 0.32534 0.01149 0.0
C3398 C 0.55834 0.3214 0.99716 0.0
C3399 C 0.57092 0.33178 0.00503 0.0
C3400 C 0.56128 0.30629 0.9902 0.0
C3401 C 0.54839 0.2942 0.98306 0.0
C3402 C 0.53691 0.28802 0.99244 0.0
C3403 C 0.5253 0.27594 0.98588 0.0
C3404 C 0.5252 0.26983 0.97002 0.0
C3405 C 0.53667 0.27582 0.96066 0.0
C3406 C 0.54826 0.28795 0.96715 0.0
C3407 C 0.62311 0.29641 0.02303 0.0
C3408 C 0.63359 0.29391 0.01123 0.0
C3409 C 0.60861 0.30227 0.01928 0.0
C3410 C 0.60403 0.30494 0.00358 0.0
C3411 C 0.61324 0.30021 0.99144 0.0
C3412 C 0.6279 0.29459 0.99523 0.0
C3413 C 0.58909 0.31181 0.99988 0.0
C3414 C 0.57671 0.30182 0.99138 0.0
C3415 C 0.58642 0.32716 0.00646 0.0
C3416 C 0.59957 0.33846 0.0148 0.0
C3417 C 0.61368 0.34177 0.0076 0.0
C3418 C 0.62596 0.3525 0.01538 0.0
C3419 C 0.62425 0.36014 0.03033 0.0
C3420 C 0.61026 0.35706 0.03752 0.0
C3421 C 0.59797 0.34625 0.02985 0.0
H3422 H 0.63375 0.3685 0.0363 0.0
H3423 H 0.51628 0.26039 0.96499 0.0
H3424 H 0.40789 0.51877 0.74991 0.0
H3425 H 0.42079 0.49406 0.74879 0.0
H3426 H 0.40776 0.48642 0.69819 0.0
H3427 H 0.39392 0.51041 0.69941 0.0
H3428 H 0.40592 0.45913 0.70919 0.0
H3429 H 0.44694 0.50426 0.71768 0.0
H3430 H 0.46095 0.52852 0.73263 0.0
H3431 H 0.46924 0.50295 0.77364 0.0
H3432 H 0.45513 0.4786 0.75899 0.0
H3433 H 0.46047 0.40322 0.68978 0.0
H3434 H 0.44687 0.42766 0.69125 0.0
H3435 H 0.46197 0.43584 0.74149 0.0
H3436 H 0.476 0.41189 0.73977 0.0
H3437 H 0.4623 0.4625 0.73132 0.0
H3438 H 0.42349 0.41753 0.72427 0.0
H3439 H 0.40862 0.3927 0.71152 0.0
H3440 H 0.39482 0.41644 0.67051 0.0
H3441 H 0.40998 0.44131 0.68284 0.0
C3442 C 0.40749 0.51172 0.73858 0.0
C3443 C 0.40007 0.51694 0.7247 0.0
C3444 C 0.41512 0.49762 0.7379 0.0
C3445 C 0.41582 0.4885 0.72329 0.0
C3446 C 0.4077 0.49325 0.7096 0.0
C3447 C 0.39991 0.50719 0.7103 0.0
C3448 C 0.42536 0.47437 0.72202 0.0
C3449 C 0.41832 0.45995 0.71383 0.0
C3450 C 0.44141 0.47506 0.72857 0.0
C3451 C 0.44987 0.48969 0.7373 0.0
C3452 C 0.45168 0.50386 0.72991 0.0
C3453 C 0.45964 0.51761 0.73833 0.0
C3454 C 0.46595 0.51729 0.75408 0.0
C3455 C 0.46433 0.50319 0.76145 0.0
C3456 C 0.45637 0.48942 0.7531 0.0
C3457 C 0.46154 0.41072 0.70092 0.0
C3458 C 0.46975 0.40593 0.71455 0.0
C3459 C 0.45339 0.42447 0.70188 0.0
C3460 C 0.45296 0.43352 0.71659 0.0
C3461 C 0.462 0.42919 0.72998 0.0
C3462 C 0.47027 0.4156 0.72897 0.0
C3463 C 0.44299 0.44726 0.71827 0.0
C3464 C 0.44992 0.46162 0.72657 0.0
C3465 C 0.42677 0.44636 0.71207 0.0
C3466 C 0.418 0.43128 0.70444 0.0
C3467 C 0.41744 0.41742 0.71246 0.0
C3468 C 0.40895 0.40333 0.70531 0.0
C3469 C 0.4008 0.40299 0.69021 0.0
C3470 C 0.40116 0.41672 0.6822 0.0
C3471 C 0.40972 0.43081 0.68926 0.0
H3472 H 0.39418 0.39209 0.68471 0.0
H3473 H 0.47211 0.52795 0.76057 0.0
H3474 H 0.04601 0.84329 0.24545 0.0
H3475 H 0.05517 0.87147 0.25096 0.0
H3476 H 0.02152 0.88253 0.21327 0.0
H3477 H 0.01236 0.85408 0.20757 0.0
H3478 H 0.05019 0.89971 0.21356 0.0
H3479 H 0.0129 0.88898 0.25048 0.0
H3480 H 1.00018 0.87423 0.27052 0.0
H3481 H 0.04289 0.88357 0.30236 0.0
H3482 H 0.05596 0.89818 0.28239 0.0
H3483 H 0.05477 0.98151 0.24115 0.0
H3484 H 0.04819 0.95376 0.23142 0.0
H3485 H 0.07751 0.93984 0.27114 0.0
H3486 H 0.08301 0.96789 0.28174 0.0
H3487 H 0.0496 0.92422 0.26885 0.0
H3488 H 0.08648 0.93533 0.22924 0.0
H3489 H 0.09652 0.95115 0.20851 0.0
H3490 H 0.05106 0.94236 0.18107 0.0
H3491 H 0.04074 0.92659 0.20169 0.0
C3492 C 0.04059 0.85173 0.23832 0.0
C3493 C 0.02837 0.84663 0.22623 0.0
C3494 C 0.04581 0.86779 0.24148 0.0
C3495 C 0.03878 0.87905 0.23273 0.0
C3496 C 0.027 0.87397 0.22019 0.0
C3497 C 0.02182 0.85779 0.21694 0.0
C3498 C 0.04369 0.89612 0.23704 0.0
C3499 C 0.04994 0.90515 0.2256 0.0
C3500 C 0.04332 0.90314 0.25274 0.0
C3501 C 0.03545 0.89456 0.26489 0.0
C3502 C 0.01962 0.8878 0.26172 0.0
C3503 C 0.01234 0.87948 0.27307 0.0
C3504 C 0.02073 0.87794 0.28769 0.0
C3505 C 0.03641 0.88477 0.29102 0.0
C3506 C 0.04376 0.89309 0.2797 0.0
C3507 C 0.06015 0.97254 0.24761 0.0
C3508 C 0.0693 0.97679 0.26226 0.0
C3509 C 0.05646 0.95665 0.24196 0.0
C3510 C 0.06249 0.94465 0.25042 0.0
C3511 C 0.07274 0.94893 0.26441 0.0
C3512 C 0.07609 0.96492 0.27034 0.0
C3513 C 0.05676 0.92776 0.24553 0.0
C3514 C 0.0501 0.91878 0.25685 0.0
C3515 C 0.05644 0.92091 0.22963 0.0
C3516 C 0.06286 0.92984 0.217 0.0
C3517 C 0.07865 0.93678 0.21877 0.0
C3518 C 0.08437 0.94574 0.20705 0.0
C3519 C 0.07443 0.94777 0.19349 0.0
C3520 C 0.05876 0.94076 0.19156 0.0
C3521 C 0.05298 0.93178 0.20323 0.0
H3522 H 0.07887 0.95477 0.18445 0.0
H3523 H 0.01508 0.87147 0.29647 0.0
H3524 H 0.61535 0.07939 0.73291 0.0
H3525 H 0.59065 0.06191 0.72573 0.0
H3526 H 0.56772 0.10129 0.7084 0.0
H3527 H 0.59219 0.11878 0.71558 0.0
H3528 H 0.55205 0.08676 0.73137 0.0
H3529 H 0.57461 0.07218 0.68317 0.0
H3530 H 0.59333 0.06169 0.6652 0.0
H3531 H 0.58737 0.01617 0.68363 0.0
H3532 H 0.56888 0.02649 0.70199 0.0
H3533 H 0.47806 0.04783 0.69456 0.0
H3534 H 0.50329 0.06371 0.70308 0.0
H3535 H 0.52412 0.02157 0.71637 0.0
H3536 H 0.49885 0.00566 0.708 0.0
H3537 H 0.5412 0.03666 0.69572 0.0
H3538 H 0.5191 0.05131 0.74428 0.0
H3539 H 0.49851 0.06106 0.7604 0.0
H3540 H 0.503 0.10583 0.74028 0.0
H3541 H 0.52344 0.09625 0.72385 0.0
C3542 C 0.60511 0.08426 0.72735 0.0
C3543 C 0.60574 0.10052 0.7249 0.0
C3544 C 0.59104 0.07422 0.72316 0.0
C3545 C 0.57734 0.08031 0.71656 0.0
C3546 C 0.57816 0.09634 0.71346 0.0
C3547 C 0.59221 0.10631 0.71749 0.0
C3548 C 0.56172 0.0706 0.71456 0.0
C3549 C 0.54966 0.07587 0.72345 0.0
C3550 C 0.55872 0.05615 0.70457 0.0
C3551 C 0.57056 0.05022 0.69419 0.0
C3552 C 0.57753 0.06004 0.68364 0.0
C3553 C 0.58804 0.05409 0.67332 0.0
C3554 C 0.59159 0.0383 0.67332 0.0
C3555 C 0.58466 0.02843 0.68369 0.0
C3556 C 0.57419 0.03433 0.69408 0.0
C3557 C 0.48775 0.04207 0.70003 0.0
C3558 C 0.48648 0.02547 0.70053 0.0
C3559 C 0.50227 0.05114 0.70473 0.0
C3560 C 0.51567 0.04378 0.71016 0.0
C3561 C 0.514 0.02746 0.71203 0.0
C3562 C 0.49951 0.01842 0.7074 0.0
C3563 C 0.53165 0.05281 0.7126 0.0
C3564 C 0.54373 0.04744 0.70378 0.0
C3565 C 0.53474 0.06713 0.72268 0.0
C3566 C 0.5227 0.07303 0.73276 0.0
C3567 C 0.51563 0.06321 0.74323 0.0
C3568 C 0.50399 0.0687 0.75242 0.0
C3569 C 0.49942 0.08404 0.75134 0.0
C3570 C 0.50653 0.09395 0.7411 0.0
C3571 C 0.51816 0.0885 0.73186 0.0
H3572 H 0.4904 0.08827 0.75846 0.0
H3573 H 0.59966 0.03369 0.66525 0.0
H3574 H 0.97705 0.50695 0.29774 0.0
H3575 H 0.97668 0.53581 0.30019 0.0
H3576 H 0.01436 0.5402 0.33843 0.0
H3577 H 0.01474 0.51104 0.33604 0.0
H3578 H 0.98852 0.56157 0.34193 0.0
H3579 H 0.02718 0.54737 0.30728 0.0
H3580 H 0.03838 0.53195 0.28565 0.0
H3581 H 1.00173 0.54429 0.25197 0.0
H3582 H 0.9902 0.55964 0.27347 0.0
H3583 H 0.02085 0.63861 0.32959 0.0
H3584 H 0.01309 0.61183 0.33513 0.0
H3585 H 0.97989 0.60544 0.293 0.0
H3586 H 0.98769 0.63267 0.28723 0.0
H3587 H 0.00315 0.58516 0.29303 0.0
H3588 H 0.96567 0.60116 0.32954 0.0
H3589 H 0.9561 0.61649 0.35228 0.0
H3590 H 0.99372 0.60224 0.38359 0.0
H3591 H 0.00348 0.58678 0.36104 0.0
C3592 C 0.98513 0.51407 0.30678 0.0
C3593 C 0.99608 0.50698 0.31655 0.0
C3594 C 0.98485 0.53046 0.30821 0.0
C3595 C 0.99559 0.53996 0.31936 0.0
C3596 C 0.00598 0.53291 0.3298 0.0
C3597 C 0.00622 0.51639 0.3284 0.0
C3598 C 0.99675 0.55723 0.31879 0.0
C3599 C 0.9919 0.56686 0.33137 0.0
C3600 C 1.00103 0.56389 0.30492 0.0
C3601 C 0.00773 0.55448 0.29199 0.0
C3602 C 0.02141 0.54664 0.29528 0.0
C3603 C 0.02784 0.53795 0.28304 0.0
C3604 C 0.02074 0.5371 0.26745 0.0
C3605 C 0.0072 0.54494 0.26406 0.0
C3606 C 1.00072 0.55365 0.27626 0.0
C3607 C 0.01155 0.63181 0.32168 0.0
C3608 C 0.00494 0.6379 0.30794 0.0
C3609 C 0.007 0.61647 0.32501 0.0
C3610 C 0.99578 0.60679 0.3146 0.0
C3611 C 0.98844 0.61294 0.30128 0.0
C3612 C 0.99293 0.62847 0.29799 0.0
C3613 C 0.9944 0.5896 0.31596 0.0
C3614 C 0.99952 0.57995 0.30355 0.0
C3615 C 0.99075 0.5831 0.33015 0.0
C3616 C 0.98529 0.59284 0.34362 0.0
C3617 C 0.97195 0.60138 0.34127 0.0
C3618 C 0.96643 0.61001 0.35413 0.0
C3619 C 0.97422 0.61025 0.36939 0.0
C3620 C 0.98762 0.60194 0.37179 0.0
C3621 C 0.99311 0.59321 0.35898 0.0
H3622 H 0.96997 0.61699 0.37932 0.0
H3623 H 0.02576 0.53039 0.25798 0.0
H3624 H 0.3439 0.6541 0.33564 0.0
H3625 H 0.36994 0.65286 0.32594 0.0
H3626 H 0.3907 0.64908 0.37355 0.0
H3627 H 0.36472 0.65134 0.38358 0.0
H3628 H 0.41055 0.66722 0.35951 0.0
H3629 H 0.38154 0.61566 0.34274 0.0
H3630 H 0.35916 0.59751 0.32914 0.0
H3631 H 0.36707 0.61637 0.28481 0.0
H3632 H 0.3894 0.63473 0.29819 0.0
H3633 H 0.4833 0.6384 0.33857 0.0
H3634 H 0.45726 0.64164 0.3484 0.0
H3635 H 0.43707 0.64503 0.30045 0.0
H3636 H 0.46308 0.64155 0.29068 0.0
H3637 H 0.4169 0.62785 0.31425 0.0
H3638 H 0.44573 0.67823 0.32906 0.0
H3639 H 0.46739 0.69801 0.34126 0.0
H3640 H 0.45951 0.6838 0.38752 0.0
H3641 H 0.43793 0.66374 0.37556 0.0
C3642 C 0.35396 0.65325 0.3442 0.0
C3643 C 0.35192 0.65282 0.36051 0.0
C3644 C 0.36896 0.65229 0.33852 0.0
C3645 C 0.38247 0.65049 0.34886 0.0
C3646 C 0.38057 0.65031 0.36519 0.0
C3647 C 0.36556 0.65144 0.37092 0.0
C3648 C 0.39845 0.64866 0.34266 0.0
C3649 C 0.41195 0.65841 0.34979 0.0
C3650 C 0.40042 0.63766 0.32951 0.0
C3651 C 0.38704 0.62662 0.32149 0.0
C3652 C 0.37844 0.61598 0.33011 0.0
C3653 C 0.36578 0.60566 0.32244 0.0
C3654 C 0.36167 0.60581 0.30613 0.0
C3655 C 0.37025 0.61627 0.29744 0.0
C3656 C 0.38292 0.62662 0.30506 0.0
C3657 C 0.4732 0.63949 0.33012 0.0
C3658 C 0.47512 0.63929 0.31381 0.0
C3659 C 0.45833 0.64161 0.33577 0.0
C3660 C 0.44504 0.64381 0.32527 0.0
C3661 C 0.44699 0.64334 0.30889 0.0
C3662 C 0.46186 0.64122 0.30326 0.0
C3663 C 0.42909 0.64623 0.33124 0.0
C3664 C 0.41557 0.63663 0.32403 0.0
C3665 C 0.4271 0.65755 0.34415 0.0
C3666 C 0.44034 0.66931 0.35137 0.0
C3667 C 0.44874 0.67917 0.34181 0.0
C3668 C 0.46097 0.69047 0.34869 0.0
C3669 C 0.46487 0.69211 0.36515 0.0
C3670 C 0.45651 0.68247 0.37477 0.0
C3671 C 0.44427 0.67113 0.36794 0.0
H3672 H 0.47433 0.70088 0.37045 0.0
H3673 H 0.35187 0.59781 0.30021 0.0
H3674 H 0.16719 0.33838 0.79374 0.0
H3675 H 0.13991 0.34066 0.78306 0.0
H3676 H 0.13255 0.28973 0.77207 0.0
H3677 H 0.15989 0.28737 0.7827 0.0
H3678 H 0.12092 0.30286 0.74798 0.0
H3679 H 0.11468 0.3098 0.80321 0.0
H3680 H 0.12051 0.32105 0.83115 0.0
H3681 H 0.11191 0.36745 0.81769 0.0
H3682 H 0.10615 0.35648 0.78962 0.0
H3683 H 0.03668 0.29582 0.73468 0.0
H3684 H 0.06458 0.29506 0.74337 0.0
H3685 H 0.06999 0.3463 0.75114 0.0
H3686 H 0.04161 0.34687 0.74199 0.0
H3687 H 0.08314 0.33387 0.7761 0.0
H3688 H 0.08894 0.32452 0.71961 0.0
H3689 H 0.08361 0.31128 0.69228 0.0
H3690 H 0.09298 0.2665 0.70941 0.0
H3691 H 0.09809 0.27944 0.73683 0.0
C3692 C 0.15972 0.3276 0.78932 0.0
C3693 C 0.16585 0.31268 0.78912 0.0
C3694 C 0.14404 0.32893 0.78317 0.0
C3695 C 0.13398 0.31537 0.77681 0.0
C3696 C 0.14 0.30042 0.77681 0.0
C3697 C 0.15571 0.29909 0.78289 0.0
C3698 C 0.11742 0.31681 0.76961 0.0
C3699 C 0.1126 0.30948 0.75425 0.0
C3700 C 0.10654 0.32567 0.77754 0.0
C3701 C 0.11013 0.33236 0.79433 0.0
C3702 C 0.11416 0.32243 0.8062 0.0
C3703 C 0.11741 0.32875 0.82206 0.0
C3704 C 0.11662 0.34497 0.82619 0.0
C3705 C 0.11253 0.3549 0.81447 0.0
C3706 C 0.10925 0.34863 0.79859 0.0
C3707 C 0.04381 0.30691 0.73775 0.0
C3708 C 0.03692 0.32132 0.73724 0.0
C3709 C 0.05992 0.30651 0.74278 0.0
C3710 C 0.0697 0.32063 0.74766 0.0
C3711 C 0.06282 0.33519 0.7473 0.0
C3712 C 0.04659 0.33554 0.74211 0.0
C3713 C 0.08659 0.31994 0.7544 0.0
C3714 C 0.09148 0.32736 0.76976 0.0
C3715 C 0.09742 0.31082 0.7466 0.0
C3716 C 0.09359 0.3029 0.73027 0.0
C3717 C 0.08958 0.3118 0.71755 0.0
C3718 C 0.08669 0.30437 0.70205 0.0
C3719 C 0.08788 0.28805 0.69912 0.0
C3720 C 0.09198 0.27912 0.71169 0.0
C3721 C 0.09486 0.2865 0.72721 0.0
H3722 H 0.08569 0.28233 0.6871 0.0
H3723 H 0.11913 0.34984 0.83848 0.0
H3724 H 0.7697 0.01627 0.62382 0.0
H3725 H 0.79723 0.01644 0.63552 0.0
H3726 H 0.78374 0.97482 0.65902 0.0
H3727 H 0.75628 0.97491 0.64774 0.0
H3728 H 0.7994 0.99661 0.67928 0.0
H3729 H 0.8062 0.97434 0.62612 0.0
H3730 H 0.80568 0.97369 0.59695 0.0
H3731 H 0.8376 0.01644 0.60186 0.0
H3732 H 0.8381 0.01749 0.63107 0.0
H3733 H 0.87134 0.96613 0.70311 0.0
H3734 H 0.84533 0.97151 0.69093 0.0
H3735 H 0.86678 0.01428 0.67421 0.0
H3736 H 0.89292 0.0087 0.68629 0.0
H3737 H 0.84802 0.99624 0.65086 0.0
H3738 H 0.84283 0.01668 0.70434 0.0
H3739 H 0.84343 0.01666 0.73347 0.0
H3740 H 0.80832 0.97634 0.72772 0.0
H3741 H 0.8077 0.97597 0.69857 0.0
C3742 C 0.77273 0.00709 0.63136 0.0
C3743 C 0.76094 0.99568 0.63508 0.0
C3744 C 0.78843 0.00715 0.63797 0.0
C3745 C 0.79252 0.99563 0.64813 0.0
C3746 C 0.78081 0.9839 0.65132 0.0
C3747 C 0.76515 0.98396 0.64491 0.0
C3748 C 0.80868 0.99625 0.65642 0.0
C3749 C 0.81001 0.99635 0.67303 0.0
C3750 C 0.82257 0.99661 0.64833 0.0
C3751 C 0.82202 0.99611 0.63077 0.0
C3752 C 0.81296 0.9837 0.62098 0.0
C3753 C 0.8127 0.98324 0.60443 0.0
C3754 C 0.82156 0.99504 0.59755 0.0
C3755 C 0.83071 0.00733 0.6072 0.0
C3756 C 0.83098 0.00787 0.62375 0.0
C3757 C 0.87038 0.97679 0.69704 0.0
C3758 C 0.88387 0.98709 0.69561 0.0
C3759 C 0.85558 0.97988 0.69013 0.0
C3760 C 0.85413 0.99339 0.68182 0.0
C3761 C 0.86767 0.00384 0.68063 0.0
C3762 C 0.8825 1.00071 0.68755 0.0
C3763 C 0.8386 0.99597 0.67362 0.0
C3764 C 0.8374 0.99663 0.65709 0.0
C3765 C 0.82476 0.99617 0.68174 0.0
C3766 C 0.82531 0.99624 0.69927 0.0
C3767 C 0.83535 0.00772 0.70929 0.0
C3768 C 0.83567 0.0078 0.72581 0.0
C3769 C 0.82594 0.99649 0.73244 0.0
C3770 C 0.81586 0.98509 0.72257 0.0
C3771 C 0.81551 0.98495 0.70605 0.0
H3772 H 0.82618 0.99659 0.74523 0.0
H3773 H 0.82137 0.99464 0.58474 0.0
H3774 H 0.70744 0.02332 0.25144 0.0
H3775 H 0.68018 0.02089 0.25894 0.0
H3776 H 0.69473 0.99218 0.29622 0.0
H3777 H 0.72088 0.99231 0.28697 0.0
H3778 H 0.66856 0.98493 0.29315 0.0
H3779 H 0.69269 0.03809 0.29959 0.0
H3780 H 0.70637 0.06264 0.29159 0.0
H3781 H 0.66619 0.06778 0.25858 0.0
H3782 H 0.65235 0.0432 0.26629 0.0
H3783 H 0.59959 0.02139 0.33056 0.0
H3784 H 0.62828 0.02139 0.32731 0.0
H3785 H 0.61689 1.00072 0.27887 0.0
H3786 H 0.58849 1.00095 0.28199 0.0
H3787 H 0.64275 0.03522 0.29385 0.0
H3788 H 0.64024 0.96616 0.29031 0.0
H3789 H 0.63199 0.94457 0.30651 0.0
H3790 H 0.63824 0.97758 0.34851 0.0
H3791 H 0.6466 0.99925 0.33259 0.0
C3792 C 0.70456 0.016 0.26083 0.0
C3793 C 0.7164 0.00861 0.26917 0.0
C3794 C 0.68909 0.01497 0.26545 0.0
C3795 C 0.68556 0.00736 0.27905 0.0
C3796 C 0.69705 0.99857 0.2861 0.0
C3797 C 0.71214 0.99883 0.28092 0.0
C3798 C 0.67043 0.00913 0.28653 0.0
C3799 C 0.66325 0.9961 0.2934 0.0
C3800 C 0.66348 0.0238 0.28781 0.0
C3801 C 0.67154 0.03881 0.28347 0.0
C3802 C 0.68679 0.0445 0.29065 0.0
C3803 C 0.69457 0.05839 0.28616 0.0
C3804 C 0.68716 0.06676 0.2746 0.0
C3805 C 0.67191 0.0613 0.26755 0.0
C3806 C 0.66408 0.04741 0.27199 0.0
C3807 C 0.60335 0.01683 0.31929 0.0
C3808 C 0.59208 0.01117 0.30647 0.0
C3809 C 0.61961 0.01682 0.31746 0.0
C3810 C 0.62455 0.01097 0.30288 0.0
C3811 C 0.61321 0.00517 0.29022 0.0
C3812 C 0.59708 0.00531 0.292 0.0
C3813 C 0.64145 0.01118 0.30017 0.0
C3814 C 0.64868 0.02439 0.29392 0.0
C3815 C 0.64931 0.9973 0.30089 0.0
C3816 C 0.64367 0.98434 0.31021 0.0
C3817 C 0.63972 0.96879 0.30297 0.0
C3818 C 0.63505 0.95655 0.31211 0.0
C3819 C 0.63441 0.95973 0.32849 0.0
C3820 C 0.63852 0.97515 0.3358 0.0
C3821 C 0.64315 0.98742 0.32671 0.0
H3822 H 0.6309 0.95022 0.33555 0.0
H3823 H 0.69322 0.07749 0.2711 0.0
H3824 H 0.33527 0.34422 0.65227 0.0
H3825 H 0.32599 0.37049 0.65165 0.0
H3826 H 0.37396 0.39092 0.64908 0.0
H3827 H 0.38356 0.36466 0.65083 0.0
H3828 H 0.36015 0.41064 0.66702 0.0
H3829 H 0.34337 0.38286 0.61511 0.0
H3830 H 0.32982 0.36085 0.59644 0.0
H3831 H 0.28536 0.36852 0.61507 0.0
H3832 H 0.29868 0.39047 0.63395 0.0
H3833 H 0.34064 0.48402 0.63916 0.0
H3834 H 0.34974 0.45765 0.6421 0.0
H3835 H 0.30149 0.43867 0.64592 0.0
H3836 H 0.29242 0.46513 0.6428 0.0
H3837 H 0.31494 0.4182 0.62806 0.0
H3838 H 0.33036 0.44552 0.67936 0.0
H3839 H 0.34294 0.46689 0.69932 0.0
H3840 H 0.38861 0.46004 0.68314 0.0
H3841 H 0.37632 0.43859 0.66309 0.0
C3842 C 0.34399 0.35425 0.65182 0.0
C3843 C 0.36027 0.35203 0.65155 0.0
C3844 C 0.33856 0.36938 0.65119 0.0
C3845 C 0.34912 0.38287 0.64986 0.0
C3846 C 0.36543 0.3808 0.64991 0.0
C3847 C 0.37092 0.36565 0.65073 0.0
C3848 C 0.34315 0.399 0.64832 0.0
C3849 C 0.35043 0.41228 0.6583 0.0
C3850 C 0.33006 0.40132 0.63739 0.0
C3851 C 0.32204 0.38821 0.626 0.0
C3852 C 0.33072 0.37979 0.61526 0.0
C3853 C 0.32308 0.36734 0.60464 0.0
C3854 C 0.30675 0.36327 0.60459 0.0
C3855 C 0.29801 0.37168 0.61513 0.0
C3856 C 0.30559 0.38414 0.62577 0.0
C3857 C 0.33196 0.47415 0.64038 0.0
C3858 C 0.31579 0.47656 0.64043 0.0
C3859 C 0.33719 0.45908 0.6423 0.0
C3860 C 0.32641 0.44602 0.6445 0.0
C3861 C 0.31014 0.44843 0.64428 0.0
C3862 C 0.30491 0.46355 0.64239 0.0
C3863 C 0.33204 0.42987 0.64661 0.0
C3864 C 0.32469 0.41657 0.63676 0.0
C3865 C 0.34495 0.42754 0.65775 0.0
C3866 C 0.35239 0.44055 0.66963 0.0
C3867 C 0.34308 0.44864 0.67999 0.0
C3868 C 0.35017 0.46072 0.69136 0.0
C3869 C 0.36658 0.4648 0.69251 0.0
C3870 C 0.37593 0.4568 0.68229 0.0
C3871 C 0.36891 0.44466 0.67094 0.0
H3872 H 0.37205 0.47416 0.70131 0.0
H3873 H 0.30085 0.35363 0.59636 0.0
H3874 H 0.28366 0.72433 0.03762 0.0
H3875 H 0.2913 0.69756 0.04074 0.0
H3876 H 0.29246 0.68923 0.98995 0.0
H3877 H 0.28413 0.71561 0.98664 0.0
H3878 H 0.27465 0.66617 0.00161 0.0
H3879 H 0.32681 0.69594 0.01951 0.0
H3880 H 0.34834 0.71187 0.03701 0.0
H3881 H 0.33739 0.68504 0.07577 0.0
H3882 H 0.31638 0.66843 0.05828 0.0
H3883 H 0.30776 0.59634 0.98405 0.0
H3884 H 0.3043 0.62475 0.98786 0.0
H3885 H 0.31013 0.62315 0.03879 0.0
H3886 H 0.31383 0.59466 0.03489 0.0
H3887 H 0.32253 0.65054 0.03194 0.0
H3888 H 0.27396 0.62127 0.02069 0.0
H3889 H 0.25284 0.60125 0.00794 0.0
H3890 H 0.25153 0.62509 0.96527 0.0
H3891 H 0.27293 0.6451 0.97766 0.0
C3892 C 0.28533 0.71674 0.02707 0.0
C3893 C 0.28309 0.72214 0.01182 0.0
C3894 C 0.29003 0.70153 0.02894 0.0
C3895 C 0.29263 0.69143 0.01562 0.0
C3896 C 0.29057 0.69684 1.00044 0.0
C3897 C 0.2858 0.71196 0.99854 0.0
C3898 C 0.29583 0.67464 0.01698 0.0
C3899 C 0.28526 0.66281 0.00807 0.0
C3900 C 0.30881 0.67 0.02666 0.0
C3901 C 0.31985 0.68126 0.03763 0.0
C3902 C 0.3288 0.69376 0.03184 0.0
C3903 C 0.34091 0.70285 0.04175 0.0
C3904 C 0.34396 0.69983 0.05759 0.0
C3905 C 0.33493 0.68754 0.06355 0.0
C3906 C 0.32298 0.67822 0.05361 0.0
C3907 C 0.30875 0.60222 0.99603 0.0
C3908 C 0.31108 0.59356 0.00921 0.0
C3909 C 0.30662 0.61835 0.99821 0.0
C3910 C 0.30657 0.62595 0.01361 0.0
C3911 C 0.31001 0.61748 0.02682 0.0
C3912 C 0.31216 0.60129 0.02461 0.0
C3913 C 0.30194 0.64239 0.01575 0.0
C3914 C 0.31194 0.65397 0.0255 0.0
C3915 C 0.28785 0.64671 0.0078 0.0
C3916 C 0.2752 0.63458 1.00004 0.0
C3917 C 0.26932 0.62214 0.00851 0.0
C3918 C 0.25727 0.6108 1.00137 0.0
C3919 C 0.25088 0.61186 0.98579 0.0
C3920 C 0.25653 0.62427 0.97733 0.0
C3921 C 0.26863 0.63561 0.9844 0.0
H3922 H 0.2415 0.6031 0.98029 0.0
H3923 H 0.35344 0.70686 0.06515 0.0
H3924 H 0.76242 0.17182 0.30992 0.0
H3925 H 0.75156 0.14434 0.31091 0.0
H3926 H 0.79871 0.12905 0.31129 0.0
H3927 H 0.80973 0.15666 0.30997 0.0
H3928 H 0.77524 0.1086 0.29099 0.0
H3929 H 0.78217 0.13248 0.34562 0.0
H3930 H 0.77861 0.15429 0.36587 0.0
H3931 H 0.72792 0.14586 0.35568 0.0
H3932 H 0.73121 0.12409 0.33526 0.0
H3933 H 0.75911 0.03208 0.3177 0.0
H3934 H 0.76973 0.05947 0.31493 0.0
H3935 H 0.72338 0.07533 0.32023 0.0
H3936 H 0.71271 0.04775 0.32266 0.0
H3937 H 0.7459 0.0959 0.33711 0.0
H3938 H 0.73718 0.07174 0.28469 0.0
H3939 H 0.7381 0.05351 0.26058 0.0
H3940 H 0.78867 0.06451 0.26275 0.0
H3941 H 0.78817 0.08238 0.28721 0.0
C3942 C 0.77053 0.16264 0.30999 0.0
C3943 C 0.787 0.16656 0.30985 0.0
C3944 C 0.76428 0.14688 0.31068 0.0
C3945 C 0.77429 0.13456 0.31133 0.0
C3946 C 0.79072 0.13832 0.31084 0.0
C3947 C 0.79702 0.15415 0.31022 0.0
C3948 C 0.76759 0.11792 0.31311 0.0
C3949 C 0.76912 0.1057 0.30122 0.0
C3950 C 0.75894 0.11427 0.32607 0.0
C3951 C 0.75693 0.12669 0.33895 0.0
C3952 C 0.77027 0.13526 0.34775 0.0
C3953 C 0.76831 0.14763 0.35922 0.0
C3954 C 0.75305 0.15146 0.36206 0.0
C3955 C 0.73973 0.14286 0.35349 0.0
C3956 C 0.74163 0.13048 0.342 0.0
C3957 C 0.75121 0.04143 0.31828 0.0
C3958 C 0.73509 0.0378 0.32028 0.0
C3959 C 0.75727 0.0571 0.31664 0.0
C3960 C 0.74736 0.06958 0.31717 0.0
C3961 C 0.7313 0.06599 0.31973 0.0
C3962 C 0.7252 0.05023 0.32114 0.0
C3963 C 0.75384 0.08628 0.31511 0.0
C3964 C 0.75219 0.09859 0.32693 0.0
C3965 C 0.76212 0.09005 0.30187 0.0
C3966 C 0.76266 0.0783 0.28792 0.0
C3967 C 0.74856 0.07003 0.28024 0.0
C3968 C 0.74899 0.05981 0.26646 0.0
C3969 C 0.76342 0.05794 0.26009 0.0
C3970 C 0.7775 0.066 0.26768 0.0
C3971 C 0.77715 0.07613 0.28155 0.0
H3972 H 0.76371 0.05027 0.24924 0.0
H3973 H 0.75155 0.16109 0.3709 0.0
H3974 H 0.61398 0.76931 0.98918 0.0
H3975 H 0.62484 0.79698 0.98978 0.0
H3976 H 0.67149 0.78394 0.0048 0.0
H3977 H 0.66049 0.75655 0.00558 0.0
H3978 H 0.66824 0.81082 0.0194 0.0
H3979 H 0.65784 0.78905 0.96472 0.0
H3980 H 0.64148 0.77611 0.94081 0.0
H3981 H 0.61137 0.81428 0.9422 0.0
H3982 H 0.62739 0.82731 0.96628 0.0
H3983 H 0.71634 0.87383 0.99077 0.0
H3984 H 0.70279 0.84837 0.99639 0.0
H3985 H 0.65734 0.8667 0.98691 0.0
H3986 H 0.67093 0.89202 0.98113 0.0
H3987 H 0.65857 0.83824 0.97064 0.0
H3988 H 0.67176 0.86103 0.02465 0.0
H3989 H 0.68957 0.87353 0.04778 0.0
H3990 H 0.71643 0.83286 0.04654 0.0
H3991 H 0.69895 0.82023 0.02324 0.0
C3992 C 0.62649 0.77235 0.99293 0.0
C3993 C 0.63638 0.76059 0.99715 0.0
C3994 C 0.63274 0.78818 0.99306 0.0
C3995 C 0.64907 0.79251 0.99697 0.0
C3996 C 0.65887 0.7809 0.00162 0.0
C3997 C 0.65258 0.76515 0.00181 0.0
C3998 C 0.65615 0.80897 0.99577 0.0
C3999 C 0.66623 0.81676 0.00868 0.0
C4000 C 0.65332 0.81687 0.9819 0.0
C4001 C 0.64371 0.80906 0.9674 0.0
C4002 C 0.64766 0.79462 0.95999 0.0
C4003 C 0.63845 0.78727 0.94641 0.0
C4004 C 0.62537 0.79435 0.94002 0.0
C4005 C 0.62148 0.8088 0.94718 0.0
C4006 C 0.63062 0.81616 0.9608 0.0
C4007 C 0.70347 0.87239 0.99011 0.0
C4008 C 0.69456 0.88466 0.98555 0.0
C4009 C 0.69575 0.85793 0.99337 0.0
C4010 C 0.67905 0.85569 0.99216 0.0
C4011 C 0.67022 0.86819 0.98792 0.0
C4012 C 0.67794 0.88261 0.98467 0.0
C4013 C 0.67076 0.83999 0.9942 0.0
C4014 C 0.66046 0.83235 0.98142 0.0
C4015 C 0.67362 0.83215 0.00807 0.0
C4016 C 0.68411 0.83974 0.02211 0.0
C4017 C 0.68155 0.85481 0.02923 0.0
C4018 C 0.69157 0.86191 0.04238 0.0
C4019 C 0.70415 0.85401 0.0486 0.0
C4020 C 0.7067 0.83898 0.0417 0.0
C4021 C 0.69673 0.83184 0.02853 0.0
H4022 H 0.71189 0.85952 0.05879 0.0
H4023 H 0.61826 0.78865 0.92949 0.0
H4024 H 0.65614 0.38512 0.36534 0.0
H4025 H 0.65435 0.37555 0.39161 0.0
H4026 H 0.64835 0.32711 0.37012 0.0
H4027 H 0.6494 0.33657 0.3439 0.0
H4028 H 0.62893 0.32887 0.39086 0.0
H4029 H 0.68376 0.34574 0.39248 0.0
H4030 H 0.7082 0.36336 0.3911 0.0
H4031 H 0.69593 0.39467 0.4298 0.0
H4032 H 0.67122 0.37742 0.4312 0.0
H4033 H 0.64004 0.29211 0.46362 0.0
H4034 H 0.64284 0.30166 0.43738 0.0
H4035 H 0.64472 0.35014 0.45829 0.0
H4036 H 0.64221 0.34052 0.48455 0.0
H4037 H 0.6667 0.34808 0.43797 0.0
H4038 H 0.6107 0.32952 0.43474 0.0
H4039 H 0.58815 0.30945 0.4363 0.0
H4040 H 0.60542 0.27859 0.40012 0.0
H4041 H 0.62821 0.29839 0.39852 0.0
C4042 C 0.65432 0.37242 0.36614 0.0
C4043 C 0.65299 0.3617 0.35226 0.0
C4044 C 0.6535 0.36692 0.3813 0.0
C4045 C 0.6514 0.3505 0.38312 0.0
C4046 C 0.65002 0.33982 0.36928 0.0
C4047 C 0.65079 0.3453 0.35416 0.0
C4048 C 0.65004 0.34439 0.39924 0.0
C4049 C 0.63737 0.333 0.40105 0.0
C4050 C 0.66084 0.34973 0.41284 0.0
C4051 C 0.67548 0.36039 0.41177 0.0
C4052 C 0.68614 0.3565 0.40055 0.0
C4053 C 0.70007 0.3664 0.39979 0.0
C4054 C 0.70358 0.38016 0.4103 0.0
C4055 C 0.69316 0.38404 0.42161 0.0
C4056 C 0.67918 0.37421 0.42238 0.0
C4057 C 0.64069 0.30478 0.46253 0.0
C4058 C 0.64043 0.31555 0.47608 0.0
C4059 C 0.64236 0.31028 0.44749 0.0
C4060 C 0.64376 0.32671 0.44559 0.0
C4061 C 0.64357 0.33744 0.45924 0.0
C4062 C 0.64194 0.33193 0.47426 0.0
C4063 C 0.64554 0.33273 0.42951 0.0
C4064 C 0.65828 0.34407 0.42773 0.0
C4065 C 0.63503 0.32713 0.41583 0.0
C4066 C 0.6212 0.31537 0.41661 0.0
C4067 C 0.60972 0.31842 0.42718 0.0
C4068 C 0.5969 0.30709 0.42807 0.0
C4069 C 0.59537 0.29274 0.41834 0.0
C4070 C 0.60663 0.2897 0.40766 0.0
C4071 C 0.61949 0.30097 0.40675 0.0
H4072 H 0.58544 0.28398 0.41906 0.0
H4073 H 0.7144 0.38779 0.40973 0.0
H4074 H 0.03301 0.26874 0.71898 0.0
H4075 H 0.03445 0.27605 0.69193 0.0
H4076 H 0.98858 0.294 0.69259 0.0
H4077 H 0.98646 0.28581 0.71935 0.0
H4078 H 0.00332 0.26793 0.66401 0.0
H4079 H 0.0112 0.33688 0.67932 0.0
H4080 H 0.02763 0.3581 0.69677 0.0
H4081 H 0.06116 0.32515 0.70889 0.0
H4082 H 0.04555 0.30395 0.69091 0.0
H4083 H 0.98355 0.30193 0.5941 0.0
H4084 H 0.9849 0.29807 0.62249 0.0
H4085 H 0.03524 0.31283 0.62726 0.0
H4086 H 0.03383 0.3168 0.59881 0.0
H4087 H 0.0217 0.32294 0.65354 0.0
H4088 H 0.02458 0.275 0.62211 0.0
H4089 H 0.01695 0.25423 0.59988 0.0
H4090 H 0.97208 0.24338 0.61826 0.0
H4091 H 0.97936 0.26432 0.64049 0.0
C4092 C 0.023 0.27392 0.71336 0.0
C4093 C 0.00985 0.27731 0.72175 0.0
C4094 C 0.02406 0.27843 0.698 0.0
C4095 C 0.01203 0.28639 0.69073 0.0
C4096 C 0.99832 0.28856 0.6984 0.0
C4097 C 0.99714 0.28385 0.71367 0.0
C4098 C 0.01301 0.29118 0.67452 0.0
C4099 C 0.00726 0.27998 0.66173 0.0
C4100 C 0.01871 0.30675 0.67157 0.0
C4101 C 0.02687 0.31865 0.68416 0.0
C4102 C 0.02198 0.33409 0.68589 0.0
C4103 C 0.03127 0.34617 0.6957 0.0
C4104 C 0.04535 0.34292 0.70402 0.0
C4105 C 0.05022 0.32759 0.70249 0.0
C4106 C 0.0411 0.3155 0.69256 0.0
C4107 C 0.99478 0.30475 0.60137 0.0
C4108 C 0.00859 0.30964 0.59451 0.0
C4109 C 0.99557 0.30247 0.6175 0.0
C4110 C 0.01022 0.30492 0.62688 0.0
C4111 C 0.02384 0.31086 0.6202 0.0
C4112 C 0.02304 0.31312 0.60402 0.0
C4113 C 0.01151 0.29986 0.64316 0.0
C4114 C 0.01758 0.31096 0.6559 0.0
C4115 C 0.00688 0.28402 0.64605 0.0
C4116 C 0.00244 0.27132 0.63285 0.0
C4117 C 0.01303 0.26827 0.62134 0.0
C4118 C 0.00878 0.25646 0.60875 0.0
C4119 C 0.99402 0.24752 0.60763 0.0
C4120 C 0.9835 0.25034 0.61913 0.0
C4121 C 0.98768 0.26217 0.63174 0.0
H4122 H 0.99075 0.23838 0.59788 0.0
H4123 H 0.05254 0.35228 0.71161 0.0
H4124 H 0.28794 0.79346 0.1576 0.0
H4125 H 0.28923 0.78315 0.12986 0.0
H4126 H 0.33786 0.7735 0.14126 0.0
H4127 H 0.33682 0.78476 0.16861 0.0
H4128 H 0.33731 0.78387 0.11529 0.0
H4129 H 0.30232 0.74419 0.13444 0.0
H4130 H 0.27885 0.73387 0.14692 0.0
H4131 H 0.24806 0.74916 0.10948 0.0
H4132 H 0.27135 0.75987 0.09693 0.0
H4133 H 0.34505 0.73663 0.04329 0.0
H4134 H 0.34205 0.74401 0.07143 0.0
H4135 H 0.29744 0.76222 0.05797 0.0
H4136 H 0.30056 0.75448 0.03014 0.0
H4137 H 0.29514 0.74624 0.08479 0.0
H4138 H 0.33195 0.78682 0.06713 0.0
H4139 H 0.35632 0.79561 0.05516 0.0
H4140 H 0.3847 0.77547 0.09133 0.0
H4141 H 0.36046 0.76641 0.10338 0.0
C4142 C 0.2989 0.78917 0.15412 0.0
C4143 C 0.3123 0.79 0.16528 0.0
C4144 C 0.29961 0.7831 0.13824 0.0
C4145 C 0.31358 0.77716 0.13327 0.0
C4146 C 0.32692 0.77798 0.14455 0.0
C4147 C 0.32634 0.78443 0.16026 0.0
C4148 C 0.31464 0.77056 0.11634 0.0
C4149 C 0.32813 0.77542 0.10884 0.0
C4150 C 0.30264 0.75971 0.10749 0.0
C4151 C 0.2886 0.75299 0.11483 0.0
C4152 C 0.29055 0.74544 0.12891 0.0
C4153 C 0.27727 0.73953 0.136 0.0
C4154 C 0.26197 0.7409 0.12902 0.0
C4155 C 0.25992 0.74814 0.1149 0.0
C4156 C 0.27316 0.75414 0.10779 0.0
C4157 C 0.33426 0.7414 0.04641 0.0
C4158 C 0.32224 0.74343 0.0345 0.0
C4159 C 0.33268 0.74602 0.06252 0.0
C4160 C 0.31929 0.75342 0.06705 0.0
C4161 C 0.30764 0.7561 0.05502 0.0
C4162 C 0.30929 0.75144 0.03901 0.0
C4163 C 0.3179 0.75941 0.08405 0.0
C4164 C 0.3043 0.75455 0.09144 0.0
C4165 C 0.32992 0.76999 0.093 0.0
C4166 C 0.34444 0.77585 0.08605 0.0
C4167 C 0.3434 0.78424 0.07248 0.0
C4168 C 0.35718 0.78926 0.06569 0.0
C4169 C 0.37205 0.78607 0.07246 0.0
C4170 C 0.37318 0.77792 0.08609 0.0
C4171 C 0.35944 0.77286 0.09291 0.0
H4172 H 0.3827 0.78993 0.06716 0.0
H4173 H 0.25171 0.73632 0.13454 0.0
H4174 H 0.97216 0.64319 0.75705 0.0
H4175 H 0.97173 0.65447 0.78454 0.0
H4176 H 0.01906 0.6411 0.79595 0.0
H4177 H 0.01914 0.62907 0.7685 0.0
H4178 H 0.00191 0.63698 0.81999 0.0
H4179 H 0.01276 0.67965 0.78819 0.0
H4180 H 0.00816 0.69475 0.76492 0.0
H4181 H 0.96223 0.70432 0.7789 0.0
H4182 H 0.96647 0.68907 0.80215 0.0
H4183 H 0.01068 0.68863 0.89219 0.0
H4184 H 0.01533 0.67744 0.86541 0.0
H4185 H 0.96713 0.68424 0.84844 0.0
H4186 H 0.96262 0.69557 0.87511 0.0
H4187 H 0.988 0.69268 0.82745 0.0
H4188 H 0.97702 0.648 0.85826 0.0
H4189 H 0.98192 0.63245 0.88117 0.0
H4190 H 0.02936 0.62707 0.86895 0.0
H4191 H 0.02478 0.64277 0.84608 0.0
C4192 C 0.98239 0.64258 0.7655 0.0
C4193 C 0.99574 0.63549 0.76076 0.0
C4194 C 0.98219 0.64906 0.78115 0.0
C4195 C 0.99555 0.64902 0.79218 0.0
C4196 C 0.00868 0.64136 0.7876 0.0
C4197 C 0.00874 0.63455 0.77197 0.0
C4198 C 0.99591 0.65751 0.80828 0.0
C4199 C 0.99914 0.64924 0.82163 0.0
C4200 C 0.99224 0.67349 0.81044 0.0
C4201 C 0.98991 0.68319 0.79686 0.0
C4202 C 1.00167 0.68497 0.78628 0.0
C4203 C 0.99912 0.69353 0.77309 0.0
C4204 C 0.98491 0.70048 0.77042 0.0
C4205 C 0.97324 0.69894 0.78099 0.0
C4206 C 0.97572 0.69037 0.79419 0.0
C4207 C 1.0012 0.68784 0.88263 0.0
C4208 C 0.98632 0.69285 0.88548 0.0
C4209 C 0.00382 0.68142 0.86742 0.0
C4210 C 0.9915 0.67986 0.855 0.0
C4211 C 0.97677 0.68535 0.85785 0.0
C4212 C 0.97419 0.69177 0.87303 0.0
C4213 C 0.99365 0.67204 0.83913 0.0
C4214 C 0.99095 0.68047 0.82581 0.0
C4215 C 0.99797 0.65629 0.83703 0.0
C4216 C 1.00062 0.64667 0.85059 0.0
C4217 C 0.98852 0.64357 0.86053 0.0
C4218 C 0.99123 0.63473 0.87349 0.0
C4219 C 0.00595 0.62881 0.87654 0.0
C4220 C 0.01797 0.63168 0.86659 0.0
C4221 C 0.01532 0.64053 0.85363 0.0
H4222 H 0.00804 0.62198 0.88659 0.0
H4223 H 0.98294 0.70707 0.76017 0.0
H4224 H 0.64004 0.34918 0.6214 0.0
H4225 H 0.61345 0.34953 0.63049 0.0
H4226 H 0.63428 0.36252 0.67862 0.0
H4227 H 0.66079 0.36201 0.66966 0.0
H4228 H 0.61012 0.34172 0.67951 0.0
H4229 H 0.61664 0.38997 0.6526 0.0
H4230 H 0.62166 0.40489 0.62954 0.0
H4231 H 0.58218 0.37737 0.60183 0.0
H4232 H 0.57704 0.36221 0.6247 0.0
H4233 H 0.54306 0.36852 0.71516 0.0
H4234 H 0.56887 0.36636 0.70449 0.0
H4235 H 0.545 0.3551 0.65726 0.0
H4236 H 0.51926 0.3576 0.66796 0.0
H4237 H 0.56999 0.37341 0.6547 0.0
H4238 H 0.56162 0.3264 0.68027 0.0
H4239 H 0.55626 0.30913 0.70149 0.0
H4240 H 0.59821 0.33111 0.72981 0.0
H4241 H 0.60369 0.34869 0.70885 0.0
C4242 C 0.63901 0.35226 0.63391 0.0
C4243 C 0.65277 0.35559 0.64472 0.0
C4244 C 0.6237 0.35246 0.63913 0.0
C4245 C 0.62162 0.35629 0.65531 0.0
C4246 C 0.63535 0.35949 0.6661 0.0
C4247 C 0.65062 0.35917 0.66092 0.0
C4248 C 0.60531 0.35705 0.66111 0.0
C4249 C 0.60146 0.34887 0.67421 0.0
C4250 C 0.59353 0.36575 0.65392 0.0
C4251 C 0.59655 0.37492 0.64027 0.0
C4252 C 0.60909 0.38708 0.64155 0.0
C4253 C 0.61194 0.39558 0.62853 0.0
C4254 C 0.60226 0.39207 0.61422 0.0
C4255 C 0.58966 0.38009 0.61292 0.0
C4256 C 0.58676 0.37156 0.62591 0.0
C4257 C 0.54338 0.3659 0.70246 0.0
C4258 C 0.52915 0.36359 0.69235 0.0
C4259 C 0.55816 0.36441 0.69636 0.0
C4260 C 0.5591 0.36032 0.67999 0.0
C4261 C 0.5448 0.35829 0.66989 0.0
C4262 C 0.53004 0.35982 0.676 0.0
C4263 C 0.57489 0.3584 0.67338 0.0
C4264 C 0.57862 0.36629 0.66008 0.0
C4265 C 0.58645 0.3492 0.68024 0.0
C4266 C 0.58294 0.33901 0.69308 0.0
C4267 C 0.56959 0.32769 0.69111 0.0
C4268 C 0.56656 0.31781 0.70307 0.0
C4269 C 0.57686 0.31905 0.71702 0.0
C4270 C 0.59022 0.33018 0.71902 0.0
C4271 C 0.59329 0.34011 0.70711 0.0
H4272 H 0.57451 0.31136 0.72625 0.0
H4273 H 0.6045 0.39865 0.60414 0.0
H4274 H 0.83137 0.68812 0.24395 0.0
H4275 H 0.85899 0.6879 0.25454 0.0
H4276 H 0.8741 0.69341 0.2079 0.0
H4277 H 0.84624 0.69317 0.19712 0.0
H4278 H 0.89085 0.67328 0.22079 0.0
H4279 H 0.87934 0.72518 0.23926 0.0
H4280 H 0.86329 0.74484 0.2517 0.0
H4281 H 0.8688 0.72363 0.29579 0.0
H4282 H 0.88479 0.70375 0.28355 0.0
H4283 H 0.97253 0.68955 0.24933 0.0
H4284 H 0.94542 0.69159 0.23781 0.0
H4285 H 0.92791 0.68461 0.28321 0.0
H4286 H 0.95536 0.68341 0.29493 0.0
H4287 H 0.91266 0.70666 0.27021 0.0
H4288 H 0.92383 0.65375 0.24954 0.0
H4289 H 0.93959 0.63481 0.23556 0.0
H4290 H 0.93501 0.65994 0.1938 0.0
H4291 H 0.91929 0.67906 0.20758 0.0
C4292 C 0.84056 0.68943 0.23594 0.0
C4293 C 0.83654 0.69081 0.21969 0.0
C4294 C 0.85644 0.68937 0.24205 0.0
C4295 C 0.86885 0.69101 0.23217 0.0
C4296 C 0.86485 0.69219 0.21586 0.0
C4297 C 0.84889 0.69204 0.20968 0.0
C4298 C 0.88587 0.6911 0.23886 0.0
C4299 C 0.89564 0.68078 0.23146 0.0
C4300 C 0.89229 0.70071 0.2529 0.0
C4301 C 0.88318 0.71295 0.26048 0.0
C4302 C 0.8771 0.72471 0.25161 0.0
C4303 C 0.86802 0.73588 0.25861 0.0
C4304 C 0.86501 0.73547 0.27452 0.0
C4305 C 0.87116 0.72394 0.28347 0.0
C4306 C 0.88027 0.71274 0.27652 0.0
C4307 C 0.96289 0.68835 0.25683 0.0
C4308 C 0.96602 0.68607 0.27295 0.0
C4309 C 0.94731 0.68943 0.2502 0.0
C4310 C 0.93436 0.6879 0.25946 0.0
C4311 C 0.93756 0.68572 0.27569 0.0
C4312 C 0.95323 0.68486 0.28238 0.0
C4313 C 0.9176 0.68864 0.25224 0.0
C4314 C 0.90787 0.69917 0.25953 0.0
C4315 C 0.91129 0.67943 0.23791 0.0
C4316 C 0.92052 0.66785 0.22961 0.0
C4317 C 0.92625 0.65524 0.23739 0.0
C4318 C 0.93515 0.64448 0.2295 0.0
C4319 C 0.93833 0.64619 0.21381 0.0
C4320 C 0.93255 0.65863 0.20595 0.0
C4321 C 0.92361 0.6694 0.21378 0.0
H4322 H 0.94526 0.63786 0.20774 0.0
H4323 H 0.85792 0.74409 0.27991 0.0
H4324 H 0.23139 0.99026 0.38609 0.0
H4325 H 0.20465 0.99512 0.37569 0.0
H4326 H 0.22345 0.01266 0.33417 0.0
H4327 H 0.25021 0.009 0.34498 0.0
H4328 H 0.20276 0.03073 0.34352 0.0
H4329 H 0.20444 0.97354 0.33564 0.0
H4330 H 0.20764 0.94685 0.34424 0.0
H4331 H 0.16933 0.95132 0.37375 0.0
H4332 H 0.1661 0.97815 0.36553 0.0
H4333 H 0.13618 0.02395 0.28699 0.0
H4334 H 0.1614 0.01906 0.30142 0.0
H4335 H 0.13651 0.00749 0.34181 0.0
H4336 H 0.11128 0.01216 0.32724 0.0
H4337 H 0.15886 0.98724 0.33591 0.0
H4338 H 0.15595 0.04362 0.34187 0.0
H4339 H 0.15239 0.06992 0.33249 0.0
H4340 H 0.19295 0.06661 0.30586 0.0
H4341 H 0.19659 0.04017 0.31487 0.0
C4342 C 0.22986 0.99534 0.37484 0.0
C4343 C 0.24296 0.99908 0.36629 0.0
C4344 C 0.21453 0.99794 0.36882 0.0
C4345 C 0.21201 0.00399 0.35401 0.0
C4346 C 0.22508 0.00789 0.34559 0.0
C4347 C 0.24038 0.00557 0.35169 0.0
C4348 C 0.19583 0.00631 0.34708 0.0
C4349 C 0.19323 0.02115 0.34174 0.0
C4350 C 0.1832 0.994 0.34521 0.0
C4351 C 0.18518 0.97791 0.35014 0.0
C4352 C 0.1968 0.96888 0.34407 0.0
C4353 C 0.19861 0.95372 0.34886 0.0
C4354 C 0.18873 0.94741 0.35958 0.0
C4355 C 0.177 0.95623 0.36549 0.0
C4356 C 0.17519 0.97141 0.36078 0.0
C4357 C 0.13617 0.02016 0.29887 0.0
C4358 C 0.12204 0.01837 0.30614 0.0
C4359 C 0.15051 0.01747 0.30711 0.0
C4360 C 0.15079 0.01316 0.32276 0.0
C4361 C 0.1365 0.01085 0.32978 0.0
C4362 C 0.12217 0.01351 0.3215 0.0
C4363 C 0.16607 0.01143 0.33191 0.0
C4364 C 0.16842 0.9968 0.33778 0.0
C4365 C 0.17851 0.02388 0.3342 0.0
C4366 C 0.17645 0.03987 0.32894 0.0
C4367 C 0.16404 0.04846 0.33393 0.0
C4368 C 0.16201 0.06339 0.32868 0.0
C4369 C 0.17241 0.06992 0.31855 0.0
C4370 C 0.18489 0.06154 0.31369 0.0
C4371 C 0.18695 0.04658 0.31887 0.0
H4372 H 0.17082 0.08148 0.3145 0.0
H4373 H 0.19014 0.93567 0.36326 0.0
H4374 H 0.2772 0.97068 0.72117 0.0
H4375 H 0.3044 0.96863 0.71537 0.0
H4376 H 0.31436 0.01964 0.72448 0.0
H4377 H 0.2866 0.02187 0.72857 0.0
H4378 H 0.32507 0.0125 0.69936 0.0
H4379 H 0.33 0.98361 0.7489 0.0
H4380 H 0.31993 0.9614 0.76346 0.0
H4381 H 0.3251 0.9281 0.72346 0.0
H4382 H 0.33519 0.9501 0.70873 0.0
H4383 H 0.40663 0.02438 0.70647 0.0
H4384 H 0.38064 0.01743 0.71587 0.0
H4385 H 0.37382 0.97515 0.68283 0.0
H4386 H 0.39989 0.98224 0.67324 0.0
H4387 H 0.36181 0.97381 0.71721 0.0
H4388 H 0.35389 0.99478 0.66799 0.0
H4389 H 0.35992 0.01174 0.64668 0.0
H4390 H 0.35714 0.05353 0.67844 0.0
H4391 H 0.35134 0.03668 0.70005 0.0
C4392 C 0.28519 0.98148 0.72195 0.0
C4393 C 0.27958 0.99646 0.72491 0.0
C4394 C 0.30096 0.98027 0.71887 0.0
C4395 C 0.31171 0.99395 0.71939 0.0
C4396 C 0.30637 0.00884 0.72374 0.0
C4397 C 0.29048 0.01011 0.72631 0.0
C4398 C 0.32798 0.99316 0.71405 0.0
C4399 C 0.33303 0.00417 0.70362 0.0
C4400 C 0.33829 0.98157 0.7184 0.0
C4401 C 0.33337 0.96844 0.7278 0.0
C4402 C 0.32911 0.97153 0.74332 0.0
C4403 C 0.32336 0.95898 0.75156 0.0
C4404 C 0.32188 0.94335 0.74439 0.0
C4405 C 0.32629 0.9402 0.72902 0.0
C4406 C 0.3321 0.95267 0.72076 0.0
C4407 C 0.39973 0.0134 0.70155 0.0
C4408 C 0.40507 0.00378 0.68925 0.0
C4409 C 0.38499 0.00941 0.70693 0.0
C4410 C 0.37545 0.99573 0.70011 0.0
C4411 C 0.38117 0.98561 0.68838 0.0
C4412 C 0.39594 0.98969 0.68288 0.0
C4413 C 0.3587 0.9937 0.70356 0.0
C4414 C 0.35366 0.98218 0.71333 0.0
C4415 C 0.34803 0.00422 0.69803 0.0
C4416 C 0.35199 0.01454 0.68548 0.0
C4417 C 0.35464 0.0076 0.67042 0.0
C4418 C 0.35802 0.01715 0.65832 0.0
C4419 C 0.35875 0.03366 0.66118 0.0
C4420 C 0.3564 0.0407 0.67622 0.0
C4421 C 0.35302 0.03117 0.68839 0.0
H4422 H 0.36111 0.0409 0.65166 0.0
H4423 H 0.31731 0.93368 0.75075 0.0
H4424 H 0.62112 0.63956 0.35641 0.0
H4425 H 0.63067 0.61316 0.35693 0.0
H4426 H 0.67849 0.63358 0.35375 0.0
H4427 H 0.66912 0.65995 0.35337 0.0
H4428 H 0.67318 0.60654 0.33495 0.0
H4429 H 0.6648 0.62181 0.38957 0.0
H4430 H 0.64907 0.63053 0.41129 0.0
H4431 H 0.61576 0.58913 0.3993 0.0
H4432 H 0.6312 0.58029 0.37737 0.0
H4433 H 0.71828 0.54514 0.36048 0.0
H4434 H 0.70576 0.5698 0.3574 0.0
H4435 H 0.66 0.54515 0.36221 0.0
H4436 H 0.67269 0.52038 0.36544 0.0
H4437 H 0.66225 0.57317 0.37867 0.0
H4438 H 0.67089 0.55663 0.32551 0.0
H4439 H 0.6852 0.54781 0.30274 0.0
H4440 H 0.71663 0.59091 0.31058 0.0
H4441 H 0.70264 0.59989 0.33354 0.0
C4442 C 0.6337 0.63853 0.35598 0.0
C4443 C 0.64425 0.65215 0.35487 0.0
C4444 C 0.63918 0.62332 0.35624 0.0
C4445 C 0.65541 0.62119 0.35555 0.0
C4446 C 0.66592 0.63471 0.35425 0.0
C4447 C 0.66047 0.6499 0.35398 0.0
C4448 C 0.66156 0.60505 0.35638 0.0
C4449 C 0.67095 0.59937 0.34464 0.0
C4450 C 0.65828 0.59521 0.36863 0.0
C4451 C 0.64904 0.60048 0.38178 0.0
C4452 C 0.65406 0.61464 0.39151 0.0
C4453 C 0.64521 0.61959 0.40386 0.0
C4454 C 0.6314 0.61041 0.40665 0.0
C4455 C 0.62644 0.59624 0.39711 0.0
C4456 C 0.63523 0.59125 0.38473 0.0
C4457 C 0.70556 0.54502 0.36106 0.0
C4458 C 0.69652 0.53088 0.36349 0.0
C4459 C 0.69835 0.55913 0.35909 0.0
C4460 C 0.68181 0.5595 0.35934 0.0
C4461 C 0.67275 0.54533 0.36195 0.0
C4462 C 0.68001 0.53115 0.36388 0.0
C4463 C 0.67417 0.57476 0.3574 0.0
C4464 C 0.66448 0.58028 0.36892 0.0
C4465 C 0.67709 0.58439 0.34486 0.0
C4466 C 0.68583 0.57884 0.33137 0.0
C4467 C 0.68097 0.56414 0.3225 0.0
C4468 C 0.689 0.55913 0.30953 0.0
C4469 C 0.70185 0.56877 0.30525 0.0
C4470 C 0.7067 0.58344 0.31393 0.0
C4471 C 0.69872 0.5885 0.32692 0.0
H4472 H 0.70803 0.56489 0.29518 0.0
H4473 H 0.62457 0.61426 0.41623 0.0
H4474 H 0.72515 0.28775 0.01707 0.0
H4475 H 0.71981 0.31547 0.01537 0.0
H4476 H 0.71508 0.3077 0.96408 0.0
H4477 H 0.72054 0.27985 0.96584 0.0
H4478 H 0.7348 0.33919 0.00398 0.0
H4479 H 0.69642 0.3281 0.94925 0.0
H4480 H 0.67173 0.31738 0.93274 0.0
H4481 H 0.64877 0.30993 0.97485 0.0
H4482 H 0.67347 0.31972 0.99156 0.0
H4483 H 0.70888 0.41773 0.99742 0.0
H4484 H 0.71896 0.39213 0.98939 0.0
H4485 H 0.67788 0.36728 0.00598 0.0
H4486 H 0.66778 0.39273 0.01368 0.0
H4487 H 0.68441 0.35405 0.97785 0.0
H4488 H 0.71451 0.37432 0.02853 0.0
H4489 H 0.7331 0.39415 0.04548 0.0
H4490 H 0.76893 0.3877 0.01335 0.0
H4491 H 0.75045 0.36798 0.99611 0.0
C4492 C 0.72315 0.29204 0.00546 0.0
C4493 C 0.72313 0.28172 0.99161 0.0
C4494 C 0.72003 0.30785 0.00445 0.0
C4495 C 0.71671 0.31365 0.98959 0.0
C4496 C 0.71722 0.30346 0.97568 0.0
C4497 C 0.72058 0.28764 0.97669 0.0
C4498 C 0.7133 0.33053 0.98906 0.0
C4499 C 0.72382 0.3424 0.9981 0.0
C4500 C 0.69922 0.33504 0.9812 0.0
C4501 C 0.68698 0.32398 0.9716 0.0
C4502 C 0.68634 0.32333 0.95493 0.0
C4503 C 0.67226 0.31762 0.94556 0.0
C4504 C 0.65872 0.31266 0.95276 0.0
C4505 C 0.65937 0.3131 0.96931 0.0
C4506 C 0.67346 0.31856 0.97873 0.0
C4507 C 0.70196 0.40673 0.99905 0.0
C4508 C 0.68756 0.40697 0.00598 0.0
C4509 C 0.70777 0.39219 0.99462 0.0
C4510 C 0.69925 0.37784 0.99725 0.0
C4511 C 0.68463 0.37821 0.00382 0.0
C4512 C 0.67884 0.39269 0.00818 0.0
C4513 C 0.70537 0.36227 0.99343 0.0
C4514 C 0.69553 0.3508 0.98345 0.0
C4515 C 0.71997 0.35817 1.00049 0.0
C4516 C 0.73107 0.36983 0.01097 0.0
C4517 C 0.72632 0.37722 0.02505 0.0
C4518 C 0.73683 0.38842 0.0347 0.0
C4519 C 0.75217 0.39222 0.03047 0.0
C4520 C 0.75704 0.38477 0.0166 0.0
C4521 C 0.74656 0.37358 0.00689 0.0
H4522 H 0.76029 0.4009 0.03796 0.0
H4523 H 0.64771 0.30856 0.94555 0.0
H4524 H 0.20162 0.8425 0.66883 0.0
H4525 H 0.21197 0.87022 0.66886 0.0
H4526 H 0.24266 0.86664 0.71145 0.0
H4527 H 0.23147 0.83924 0.71223 0.0
H4528 H 0.23457 0.89511 0.71301 0.0
H4529 H 0.256 0.8632 0.67346 0.0
H4530 H 0.25513 0.84275 0.65078 0.0
H4531 H 0.22866 0.87172 0.62115 0.0
H4532 H 0.22912 0.89225 0.64377 0.0
H4533 H 0.29366 0.9572 0.69097 0.0
H4534 H 0.28168 0.93001 0.69299 0.0
H4535 H 0.2361 0.94333 0.67511 0.0
H4536 H 0.24788 0.97078 0.67408 0.0
H4537 H 0.25302 0.9101 0.66193 0.0
H4538 H 0.23333 0.94246 0.70644 0.0
H4539 H 0.23795 0.96089 0.73092 0.0
H4540 H 0.26743 0.92873 0.75288 0.0
H4541 H 0.26313 0.91017 0.72846 0.0
C4542 C 0.21028 0.84762 0.67846 0.0
C4543 C 0.21581 0.8383 0.69038 0.0
C4544 C 0.2164 0.86353 0.67834 0.0
C4545 C 0.22852 0.87056 0.68989 0.0
C4546 C 0.23349 0.86158 0.70226 0.0
C4547 C 0.22719 0.84573 0.70254 0.0
C4548 C 0.23655 0.88688 0.68854 0.0
C4549 C 0.23862 0.89829 0.70183 0.0
C4550 C 0.24228 0.89117 0.67412 0.0
C4551 C 0.24249 0.8792 0.66032 0.0
C4552 C 0.24996 0.86519 0.66211 0.0
C4553 C 0.24952 0.85357 0.64928 0.0
C4554 C 0.24182 0.85592 0.63454 0.0
C4555 C 0.23461 0.86992 0.63259 0.0
C4556 C 0.23496 0.88156 0.6454 0.0
C4557 C 0.28107 0.95436 0.68764 0.0
C4558 C 0.27162 0.96619 0.68276 0.0
C4559 C 0.27425 0.9388 0.6887 0.0
C4560 C 0.25792 0.93468 0.68446 0.0
C4561 C 0.24869 0.94626 0.6786 0.0
C4562 C 0.25544 0.9619 0.67788 0.0
C4563 C 0.25047 0.91835 0.68619 0.0
C4564 C 0.24876 0.90689 0.67302 0.0
C4565 C 0.24563 0.91387 0.70087 0.0
C4566 C 0.24815 0.92507 0.71551 0.0
C4567 C 0.24101 0.93943 0.71638 0.0
C4568 C 0.24353 0.94988 0.73026 0.0
C4569 C 0.25311 0.94607 0.74337 0.0
C4570 C 0.26009 0.93173 0.74268 0.0
C4571 C 0.2576 0.92123 0.72883 0.0
H4572 H 0.25504 0.95419 0.7541 0.0
H4573 H 0.24146 0.84689 0.62462 0.0
H4574 H 0.38829 0.23362 0.00291 0.0
H4575 H 0.37728 0.2063 0.00527 0.0
H4576 H 0.32981 0.2206 0.99864 0.0
H4577 H 0.34056 0.24763 0.99552 0.0
H4578 H 0.33675 0.20404 0.02637 0.0
H4579 H 0.34195 0.20043 0.96982 0.0
H4580 H 0.35653 0.20198 0.94603 0.0
H4581 H 0.38625 0.16689 0.96196 0.0
H4582 H 0.37202 0.16536 0.98602 0.0
H4583 H 0.28516 0.13377 0.01726 0.0
H4584 H 0.29938 0.1592 0.01262 0.0
H4585 H 0.34295 0.13659 0.01083 0.0
H4586 H 0.3286 0.11111 0.01521 0.0
H4587 H 0.34069 0.15674 0.98857 0.0
H4588 H 0.33592 0.15895 0.04404 0.0
H4589 H 0.32275 0.15719 0.06869 0.0
H4590 H 0.2944 0.19467 0.05639 0.0
H4591 H 0.3072 0.19646 0.03151 0.0
C4592 C 0.37551 0.23091 0.00165 0.0
C4593 C 0.36533 0.24292 0.99917 0.0
C4594 C 0.36926 0.21531 0.00308 0.0
C4595 C 0.35275 0.21151 0.00219 0.0
C4596 C 0.34259 0.22336 0.99948 0.0
C4597 C 0.34879 0.23884 0.99783 0.0
C4598 C 0.34589 0.1954 0.00472 0.0
C4599 C 0.33746 0.19371 0.01804 0.0
C4600 C 0.34741 0.18187 0.99416 0.0
C4601 C 0.35608 0.18296 0.97982 0.0
C4602 C 0.35173 0.19321 0.96836 0.0
C4603 C 0.35991 0.19405 0.9548 0.0
C4604 C 0.37235 0.18458 0.95251 0.0
C4605 C 0.37664 0.17425 0.96377 0.0
C4606 C 0.36853 0.1734 0.97737 0.0
C4607 C 0.29772 0.13427 0.01565 0.0
C4608 C 0.30588 0.12067 0.0165 0.0
C4609 C 0.30586 0.14876 0.01313 0.0
C4610 C 0.32229 0.14984 0.01163 0.0
C4611 C 0.3303 0.13604 0.01198 0.0
C4612 C 0.32214 0.12154 0.01447 0.0
C4613 C 0.33112 0.16543 0.01003 0.0
C4614 C 0.34002 0.16703 0.99697 0.0
C4615 C 0.33025 0.17887 0.02098 0.0
C4616 C 0.32239 0.17771 0.03583 0.0
C4617 C 0.32675 0.1667 0.04651 0.0
C4618 C 0.31937 0.16572 0.06053 0.0
C4619 C 0.30771 0.17578 0.06408 0.0
C4620 C 0.30341 0.18686 0.05361 0.0
C4621 C 0.31072 0.18787 0.03954 0.0
H4622 H 0.30203 0.17502 0.07496 0.0
H4623 H 0.37864 0.18523 0.94199 0.0
H4624 H 0.351 0.6212 0.6394 0.0
H4625 H 0.35163 0.63049 0.6129 0.0
H4626 H 0.36029 0.679 0.63398 0.0
H4627 H 0.35958 0.66984 0.6604 0.0
H4628 H 0.34 0.67823 0.60883 0.0
H4629 H 0.39045 0.65585 0.61818 0.0
H4630 H 0.40736 0.63443 0.62403 0.0
H4631 H 0.38414 0.60509 0.58324 0.0
H4632 H 0.36697 0.62628 0.57728 0.0
H4633 H 0.36737 0.71675 0.54375 0.0
H4634 H 0.36478 0.70556 0.56924 0.0
H4635 H 0.35854 0.65825 0.54488 0.0
H4636 H 0.3613 0.6695 0.51942 0.0
H4637 H 0.37583 0.65692 0.57078 0.0
H4638 H 0.32679 0.67816 0.55971 0.0
H4639 H 0.30787 0.69769 0.55331 0.0
H4640 H 0.32558 0.72713 0.59611 0.0
H4641 H 0.34478 0.70789 0.60265 0.0
C4642 C 0.35318 0.63385 0.63846 0.0
C4643 C 0.35526 0.64469 0.65226 0.0
C4644 C 0.35355 0.63918 0.62319 0.0
C4645 C 0.35625 0.65553 0.62122 0.0
C4646 C 0.35816 0.66635 0.63497 0.0
C4647 C 0.35771 0.66104 0.65019 0.0
C4648 C 0.35722 0.66146 0.60499 0.0
C4649 C 0.34803 0.67371 0.60063 0.0
C4650 C 0.3671 0.65523 0.59379 0.0
C4651 C 0.37738 0.64255 0.59738 0.0
C4652 C 0.38891 0.64478 0.61053 0.0
C4653 C 0.39853 0.6327 0.61385 0.0
C4654 C 0.3968 0.61839 0.60403 0.0
C4655 C 0.38545 0.61616 0.59085 0.0
C4656 C 0.37579 0.6282 0.58749 0.0
C4657 C 0.36576 0.70394 0.5439 0.0
C4658 C 0.36492 0.69399 0.52963 0.0
C4659 C 0.36401 0.69752 0.55849 0.0
C4660 C 0.36114 0.68096 0.55917 0.0
C4661 C 0.36066 0.67103 0.54485 0.0
C4662 C 0.36239 0.67746 0.53026 0.0
C4663 C 0.35892 0.67401 0.57474 0.0
C4664 C 0.3678 0.66151 0.57895 0.0
C4665 C 0.34854 0.67985 0.58568 0.0
C4666 C 0.33737 0.69169 0.58156 0.0
C4667 C 0.32679 0.6889 0.56765 0.0
C4668 C 0.31598 0.69989 0.56403 0.0
C4669 C 0.31556 0.71367 0.57427 0.0
C4670 C 0.32595 0.71648 0.58817 0.0
C4671 C 0.3368 0.70553 0.59184 0.0
H4672 H 0.30716 0.72214 0.57146 0.0
H4673 H 0.40427 0.60905 0.60662 0.0
H4674 H 0.96983 0.72499 0.27832 0.0
H4675 H 0.96824 0.72019 0.30638 0.0
H4676 H 0.01934 0.72156 0.31318 0.0
H4677 H 0.02093 0.72595 0.28504 0.0
H4678 H 0.99026 0.69069 0.32009 0.0
H4679 H 0.0215 0.74589 0.33812 0.0
H4680 H 0.02383 0.77448 0.33401 0.0
H4681 H 0.97339 0.7753 0.3354 0.0
H4682 H 0.97086 0.74668 0.33945 0.0
H4683 H 0.0306 0.68753 0.39572 0.0
H4684 H 0.02372 0.69831 0.37043 0.0
H4685 H 0.97614 0.70309 0.38318 0.0
H4686 H 0.98318 0.69251 0.40887 0.0
H4687 H 0.99762 0.73127 0.36682 0.0
H4688 H 0.96782 0.67451 0.35146 0.0
H4689 H 0.9688 0.64697 0.35876 0.0
H4690 H 0.01903 0.65038 0.35464 0.0
H4691 H 0.01799 0.67726 0.34579 0.0
C4692 C 0.9807 0.72453 0.28594 0.0
C4693 C 0.99549 0.72561 0.27966 0.0
C4694 C 0.97978 0.72177 0.30187 0.0
C4695 C 0.99367 0.72041 0.31168 0.0
C4696 C 0.00852 0.72252 0.30567 0.0
C4697 C 0.00943 0.72504 0.28969 0.0
C4698 C 0.9928 0.71577 0.32796 0.0
C4699 C 0.99158 0.69956 0.33027 0.0
C4700 C 0.99454 0.72725 0.34122 0.0
C4701 C 0.99602 0.74434 0.33914 0.0
C4702 C 0.01096 0.75225 0.3376 0.0
C4703 C 0.0123 0.76841 0.33525 0.0
C4704 C 0.99877 0.77671 0.33447 0.0
C4705 C 0.98386 0.76886 0.33603 0.0
C4706 C 0.98246 0.75269 0.33835 0.0
C4707 C 0.01875 0.6911 0.3932 0.0
C4708 C 0.0074 0.6893 0.40408 0.0
C4709 C 0.01484 0.69724 0.37881 0.0
C4710 C 0.99945 0.70146 0.375 0.0
C4711 C 0.9881 0.69996 0.38601 0.0
C4712 C 0.99208 0.69389 0.40056 0.0
C4713 C 0.99521 0.70622 0.35894 0.0
C4714 C 0.99564 0.72241 0.35663 0.0
C4715 C 0.99283 0.69473 0.34565 0.0
C4716 C 0.99279 0.67769 0.34784 0.0
C4717 C 0.97892 0.66909 0.35153 0.0
C4718 C 0.97948 0.65358 0.35582 0.0
C4719 C 0.99393 0.6468 0.35682 0.0
C4720 C 0.00777 0.65543 0.35333 0.0
C4721 C 0.00715 0.67065 0.34839 0.0
H4722 H 0.99453 0.63497 0.36047 0.0
H4723 H 0.99983 0.78923 0.33264 0.0
H4724 H 0.69723 0.1948 0.84576 0.0
H4725 H 0.69815 0.20523 0.87379 0.0
H4726 H 0.68148 0.24898 0.85945 0.0
H4727 H 0.68137 0.23889 0.83158 0.0
H4728 H 0.70244 0.25645 0.8825 0.0
H4729 H 0.65755 0.21538 0.87487 0.0
H4730 H 0.64541 0.18781 0.86801 0.0
H4731 H 0.67694 0.17167 0.90435 0.0
H4732 H 0.68939 0.19911 0.91126 0.0
H4733 H 0.67785 0.28927 0.95535 0.0
H4734 H 0.67938 0.27789 0.92802 0.0
H4735 H 0.69362 0.2347 0.94613 0.0
H4736 H 0.69081 0.24599 0.97325 0.0
H4737 H 0.67588 0.226 0.92162 0.0
H4738 H 0.71933 0.26649 0.93122 0.0
H4739 H 0.73376 0.29316 0.9375 0.0
H4740 H 0.70783 0.30988 0.89749 0.0
H4741 H 0.69293 0.28345 0.89121 0.0
C4742 C 0.69372 0.20662 0.84864 0.0
C4743 C 0.68918 0.21599 0.83641 0.0
C4744 C 0.69417 0.21259 0.86471 0.0
C4745 C 0.68957 0.22788 0.86898 0.0
C4746 C 0.68511 0.23719 0.85668 0.0
C4747 C 0.685 0.23138 0.84068 0.0
C4748 C 0.68936 0.23437 0.88609 0.0
C4749 C 0.69641 0.24987 0.89099 0.0
C4750 C 0.68216 0.22564 0.89753 0.0
C4751 C 0.67445 0.20925 0.8935 0.0
C4752 C 0.66191 0.20593 0.88135 0.0
C4753 C 0.65499 0.19033 0.87745 0.0
C4754 C 0.66042 0.17799 0.88572 0.0
C4755 C 0.67275 0.18123 0.89794 0.0
C4756 C 0.67974 0.1968 0.90186 0.0
C4757 C 0.68086 0.27728 0.95335 0.0
C4758 C 0.68383 0.26851 0.96635 0.0
C4759 C 0.68212 0.27079 0.93773 0.0
C4760 C 0.68696 0.2554 0.93474 0.0
C4761 C 0.68985 0.24657 0.94787 0.0
C4762 C 0.68826 0.25302 0.96345 0.0
C4763 C 0.68861 0.24835 0.91804 0.0
C4764 C 0.6819 0.23269 0.9132 0.0
C4765 C 0.69629 0.25692 0.9067 0.0
C4766 C 0.70486 0.273 0.91085 0.0
C4767 C 0.71654 0.2759 0.92388 0.0
C4768 C 0.72483 0.29098 0.92743 0.0
C4769 C 0.72169 0.30321 0.91792 0.0
C4770 C 0.71022 0.30041 0.90487 0.0
C4771 C 0.70182 0.28539 0.90134 0.0
H4772 H 0.72818 0.31485 0.92063 0.0
H4773 H 0.65505 0.16592 0.88268 0.0
H4774 H 0.0092 0.38719 0.2348 0.0
H4775 H 0.01196 0.37674 0.2074 0.0
H4776 H 0.99032 0.3309 0.21664 0.0
H4777 H 0.98722 0.34127 0.24381 0.0
H4778 H 0.01889 0.32936 0.20403 0.0
H4779 H 0.97043 0.35443 0.19422 0.0
H4780 H 0.95369 0.37679 0.19423 0.0
H4781 H 0.9852 0.40132 0.16554 0.0
H4782 H 0.0023 0.37924 0.16562 0.0
H4783 H 0.00798 0.28639 0.12829 0.0
H4784 H 0.00309 0.29991 0.154 0.0
H4785 H 0.02102 0.34488 0.13892 0.0
H4786 H 0.0256 0.33137 0.11317 0.0
H4787 H 0.99568 0.34855 0.15432 0.0
H4788 H 0.04397 0.32472 0.16349 0.0
H4789 H 0.06215 0.30357 0.16377 0.0
H4790 H 0.033 0.27827 0.19402 0.0
H4791 H 0.01448 0.29912 0.19368 0.0
C4792 C 0.00478 0.37496 0.2309 0.0
C4793 C 0.99813 0.365 0.24153 0.0
C4794 C 0.00638 0.36903 0.21526 0.0
C4795 C 1.00134 0.35306 0.21005 0.0
C4796 C 0.99436 0.34324 0.2205 0.0
C4797 C 0.99269 0.34916 0.23605 0.0
C4798 C 0.00419 0.34614 0.19406 0.0
C4799 C 0.01365 0.33341 0.19314 0.0
C4800 C 0.9979 0.35191 0.17993 0.0
C4801 C 0.98775 0.36528 0.18011 0.0
C4802 C 0.9739 0.36468 0.18809 0.0
C4803 C 0.96432 0.37729 0.18804 0.0
C4804 C 0.96841 0.39049 0.17993 0.0
C4805 C 0.98207 0.39111 0.17185 0.0
C4806 C 0.99171 0.37856 0.1719 0.0
C4807 C 0.01066 0.29918 0.13049 0.0
C4808 C 0.0171 0.30796 0.11896 0.0
C4809 C 0.008 0.30687 0.14515 0.0
C4810 C 0.01192 0.32337 0.14844 0.0
C4811 C 0.01794 0.33215 0.13664 0.0
C4812 C 0.02055 0.32447 0.12199 0.0
C4813 C 0.01002 0.33144 0.16428 0.0
C4814 C 1.00091 0.34448 0.16519 0.0
C4815 C 0.01681 0.3261 0.17846 0.0
C4816 C 0.02774 0.31338 0.17839 0.0
C4817 C 0.04133 0.31454 0.17004 0.0
C4818 C 0.05172 0.30263 0.17024 0.0
C4819 C 0.04871 0.28956 0.17887 0.0
C4820 C 0.0353 0.28838 0.18731 0.0
C4821 C 0.02485 0.30023 0.18711 0.0
H4822 H 0.05679 0.28036 0.17904 0.0
H4823 H 0.96096 0.40022 0.17988 0.0
loop_
_geom_bond_atom_site_label_1
_geom_bond_atom_site_label_2
_geom_bond_distance
_geom_bond_site_symmetry_2
_ccdc_geom_bond_type
C0 C1 1.264 . S
C0 C5 1.479 . S
C0 C10 1.465 . S
C1 C0 1.264 . S
C1 C3 1.339 . S
C1 H28 0.931 . S
C2 C3 1.395 . S
C2 C4 1.320 . S
C3 C1 1.339 . S
C3 C2 1.395 . S
C3 H29 0.929 . S
C4 C2 1.320 . S
C4 C5 1.405 . S
C4 H30 0.930 . S
C5 C0 1.479 . S
C5 C4 1.405 . S
C5 H31 0.931 . S
U6 O7 2.454 . S
U6 O8 2.458 . S
U6 C9 2.984 . S
U6 C10 2.847 . S
U6 C23 2.882 . S
U6 O24 2.441 . S
U6 O25 2.420 . S
U6 O26 2.455 . S
U6 O27 2.449 . S
O7 U6 2.454 . S
O7 C9 1.353 . S
O8 U6 2.458 . S
O8 C9 1.286 . S
C9 U6 2.984 . S
C9 O7 1.353 . S
C9 O8 1.286 . S
C9 C11 1.363 . S
C10 C0 1.465 . S
C10 U6 2.847 . S
C10 O24 1.249 . S
C10 O25 1.202 . S
C11 C9 1.363 . S
C11 C13 1.408 . S
C11 C16 1.342 . S
C12 C13 1.310 . S
C12 C15 1.461 . S
C12 H32 0.932 . S
C13 C11 1.408 . S
C13 C12 1.310 . S
C13 H33 0.930 . S
C14 C15 1.474 . S
C14 C16 1.285 . S
C14 H34 0.929 . S
C15 C12 1.461 . S
C15 C14 1.474 . S
C16 C11 1.342 . S
C16 C14 1.285 . S
C16 H35 0.930 . S
C17 C20 1.424 . S
C17 C22 1.245 . S
C17 C23 1.428 . S
C18 C21 1.260 . S
C18 C22 1.477 . S
C18 H36 0.932 . S
C19 C20 1.384 . S
C19 C21 1.479 . S
C19 H37 0.929 . S
C20 C17 1.424 . S
C20 C19 1.384 . S
C20 H38 0.928 . S
C21 C18 1.260 . S
C21 C19 1.479 . S
C22 C17 1.245 . S
C22 C18 1.477 . S
C22 H39 0.932 . S
C23 U6 2.882 . S
C23 C17 1.428 . S
C23 O26 1.301 . S
C23 O27 1.282 . S
O24 U6 2.441 . S
O24 C10 1.249 . S
O25 U6 2.420 . S
O25 C10 1.202 . S
O26 U6 2.455 . S
O26 C23 1.301 . S
O27 U6 2.449 . S
O27 C23 1.282 . S
H28 C1 0.931 . S
H29 C3 0.929 . S
H30 C4 0.930 . S
H31 C5 0.931 . S
H32 C12 0.932 . S
H33 C13 0.930 . S
H34 C14 0.929 . S
H35 C16 0.930 . S
H36 C18 0.932 . S
H37 C19 0.929 . S
H38 C20 0.928 . S
H39 C22 0.932 . S
C40 C41 1.264 . S
C40 C45 1.479 . S
C40 C50 1.465 . S
C41 C40 1.264 . S
C41 C43 1.339 . S
C41 H68 0.931 . S
C42 C43 1.395 . S
C42 C44 1.320 . S
C43 C41 1.339 . S
C43 C42 1.395 . S
C43 H69 0.929 . S
C44 C42 1.320 . S
C44 C45 1.405 . S
C44 H70 0.930 . S
C45 C40 1.479 . S
C45 C44 1.405 . S
C45 H71 0.931 . S
U46 O47 2.454 . S
U46 O48 2.458 . S
U46 C49 2.984 . S
U46 C50 2.847 . S
U46 C63 2.882 . S
U46 O64 2.441 . S
U46 O65 2.420 . S
U46 O66 2.455 . S
U46 O67 2.449 . S
O47 U46 2.454 . S
O47 C49 1.353 . S
O48 U46 2.458 . S
O48 C49 1.286 . S
C49 U46 2.984 . S
C49 O47 1.353 . S
C49 O48 1.286 . S
C49 C51 1.363 . S
C50 C40 1.465 . S
C50 U46 2.847 . S
C50 O64 1.249 . S
C50 O65 1.202 . S
C51 C49 1.363 . S
C51 C53 1.408 . S
C51 C56 1.342 . S
C52 C53 1.310 . S
C52 C55 1.461 . S
C52 H72 0.932 . S
C53 C51 1.408 . S
C53 C52 1.310 . S
C53 H73 0.930 . S
C54 C55 1.474 . S
C54 C56 1.285 . S
C54 H74 0.929 . S
C55 C52 1.461 . S
C55 C54 1.474 . S
C56 C51 1.342 . S
C56 C54 1.285 . S
C56 H75 0.930 . S
C57 C60 1.424 . S
C57 C62 1.245 . S
C57 C63 1.428 . S
C58 C61 1.260 . S
C58 C62 1.477 . S
C58 H76 0.932 . S
C59 C60 1.384 . S
C59 C61 1.479 . S
C59 H77 0.929 . S
C60 C57 1.424 . S
C60 C59 1.384 . S
C60 H78 0.928 . S
C61 C58 1.260 . S
C61 C59 1.479 . S
C62 C57 1.245 . S
C62 C58 1.477 . S
C62 H79 0.932 . S
C63 U46 2.882 . S
C63 C57 1.428 . S
C63 O66 1.301 . S
C63 O67 1.282 . S
O64 U46 2.441 . S
O64 C50 1.249 . S
O65 U46 2.420 . S
O65 C50 1.202 . S
O66 U46 2.455 . S
O66 C63 1.301 . S
O67 U46 2.449 . S
O67 C63 1.282 . S
H68 C41 0.931 . S
H69 C43 0.929 . S
H70 C44 0.930 . S
H71 C45 0.931 . S
H72 C52 0.932 . S
H73 C53 0.930 . S
H74 C54 0.929 . S
H75 C56 0.930 . S
H76 C58 0.932 . S
H77 C59 0.929 . S
H78 C60 0.928 . S
H79 C62 0.932 . S
C80 C81 1.264 . S
C80 C85 1.479 . S
C80 C90 1.465 . S
C81 C80 1.264 . S
C81 C83 1.339 . S
C81 H108 0.931 . S
C82 C83 1.395 . S
C82 C84 1.320 . S
C83 C81 1.339 . S
C83 C82 1.395 . S
C83 H109 0.929 . S
C84 C82 1.320 . S
C84 C85 1.405 . S
C84 H110 0.925 1_565 S
C85 C80 1.479 . S
C85 C84 1.405 . S
C85 H111 0.931 . S
U86 O87 2.454 . S
U86 O88 2.458 . S
U86 C89 2.984 . S
U86 C90 2.847 . S
U86 C103 2.882 . S
U86 O104 2.441 . S
U86 O105 2.420 . S
U86 O106 2.455 . S
U86 O107 2.449 . S
O87 U86 2.454 . S
O87 C89 1.353 . S
O88 U86 2.458 . S
O88 C89 1.286 . S
C89 U86 2.984 . S
C89 O87 1.353 . S
C89 O88 1.286 . S
C89 C91 1.363 . S
C90 C80 1.465 . S
C90 U86 2.847 . S
C90 O104 1.249 . S
C90 O105 1.202 . S
C91 C89 1.363 . S
C91 C93 1.408 . S
C91 C96 1.362 . S
C92 C93 1.310 . S
C92 C95 1.461 . S
C92 H112 0.930 . S
C93 C91 1.408 . S
C93 C92 1.310 . S
C93 H113 0.930 . S
C94 C95 1.473 1_545 S
C94 C96 1.278 1_545 S
C94 H114 0.932 . S
C95 C92 1.461 . S
C95 C94 1.473 1_565 S
C96 C91 1.362 . S
C96 C94 1.278 1_565 S
C96 H115 0.926 . S
C97 C100 1.424 . S
C97 C102 1.245 . S
C97 C103 1.428 . S
C98 C101 1.260 . S
C98 C102 1.477 . S
C98 H116 0.932 . S
C99 C100 1.384 . S
C99 C101 1.479 . S
C99 H117 0.929 . S
C100 C97 1.424 . S
C100 C99 1.384 . S
C100 H118 0.928 . S
C101 C98 1.260 . S
C101 C99 1.479 . S
C102 C97 1.245 . S
C102 C98 1.477 . S
C102 H119 0.932 . S
C103 U86 2.882 . S
C103 C97 1.428 . S
C103 O106 1.301 . S
C103 O107 1.282 . S
O104 U86 2.441 . S
O104 C90 1.249 . S
O105 U86 2.420 . S
O105 C90 1.202 . S
O106 U86 2.455 . S
O106 C103 1.301 . S
O107 U86 2.449 . S
O107 C103 1.282 . S
H108 C81 0.931 . S
H109 C83 0.929 . S
H110 C84 0.925 1_545 S
H111 C85 0.931 . S
H112 C92 0.930 . S
H113 C93 0.930 . S
H114 C94 0.932 . S
H115 C96 0.926 . S
H116 C98 0.932 . S
H117 C99 0.929 . S
H118 C100 0.928 . S
H119 C102 0.932 . S
C120 C121 1.264 . S
C120 C125 1.479 . S
C120 C130 1.465 . S
C121 C120 1.264 . S
C121 C123 1.339 . S
C121 H148 0.931 . S
C122 C123 1.395 . S
C122 C124 1.320 . S
C123 C121 1.339 . S
C123 C122 1.395 . S
C123 H149 0.929 . S
C124 C122 1.320 . S
C124 C125 1.405 . S
C124 H150 0.930 . S
C125 C120 1.479 . S
C125 C124 1.405 . S
C125 H151 0.931 . S
U126 O127 2.454 . S
U126 O128 2.458 . S
U126 C129 2.984 . S
U126 C130 2.847 . S
U126 C143 2.882 . S
U126 O144 2.441 . S
U126 O145 2.420 . S
U126 O146 2.455 . S
U126 O147 2.449 . S
O127 U126 2.454 . S
O127 C129 1.353 . S
O128 U126 2.458 . S
O128 C129 1.286 . S
C129 U126 2.984 . S
C129 O127 1.353 . S
C129 O128 1.286 . S
C129 C131 1.363 . S
C130 C120 1.465 . S
C130 U126 2.847 . S
C130 O144 1.249 . S
C130 O145 1.202 . S
C131 C129 1.363 . S
C131 C133 1.408 . S
C131 C136 1.342 . S
C132 C133 1.310 . S
C132 C135 1.461 . S
C132 H152 0.932 . S
C133 C131 1.408 . S
C133 C132 1.310 . S
C133 H153 0.930 . S
C134 C135 1.474 . S
C134 C136 1.285 . S
C134 H154 0.929 . S
C135 C132 1.461 . S
C135 C134 1.474 . S
C136 C131 1.342 . S
C136 C134 1.285 . S
C136 H155 0.930 . S
C137 C140 1.424 . S
C137 C142 1.245 . S
C137 C143 1.428 1_565 S
C138 C141 1.260 . S
C138 C142 1.477 . S
C138 H156 0.932 . S
C139 C140 1.384 . S
C139 C141 1.479 . S
C139 H157 0.929 . S
C140 C137 1.424 . S
C140 C139 1.384 . S
C140 H158 0.928 . S
C141 C138 1.260 . S
C141 C139 1.479 . S
C142 C137 1.245 . S
C142 C138 1.477 . S
C142 H159 0.932 . S
C143 U126 2.882 . S
C143 C137 1.428 1_545 S
C143 O146 1.301 . S
C143 O147 1.282 . S
O144 U126 2.441 . S
O144 C130 1.249 . S
O145 U126 2.420 . S
O145 C130 1.202 . S
O146 U126 2.455 . S
O146 C143 1.301 . S
O147 U126 2.449 . S
O147 C143 1.282 . S
H148 C121 0.931 . S
H149 C123 0.929 . S
H150 C124 0.930 . S
H151 C125 0.931 . S
H152 C132 0.932 . S
H153 C133 0.930 . S
H154 C134 0.929 . S
H155 C136 0.930 . S
H156 C138 0.932 . S
H157 C139 0.929 . S
H158 C140 0.928 . S
H159 C142 0.932 . S
C160 C161 1.264 . S
C160 C165 1.479 . S
C160 C170 1.465 . S
C161 C160 1.264 . S
C161 C163 1.339 . S
C161 H188 0.931 . S
C162 C163 1.395 . S
C162 C164 1.320 . S
C163 C161 1.339 . S
C163 C162 1.395 . S
C163 H189 0.929 . S
C164 C162 1.320 . S
C164 C165 1.405 . S
C164 H190 0.930 . S
C165 C160 1.479 . S
C165 C164 1.405 . S
C165 H191 0.931 . S
U166 O167 2.454 . S
U166 O168 2.458 . S
U166 C169 2.984 . S
U166 C170 2.847 . S
U166 C183 2.882 . S
U166 O184 2.441 . S
U166 O185 2.420 . S
U166 O186 2.455 . S
U166 O187 2.449 . S
O167 U166 2.454 . S
O167 C169 1.353 . S
O168 U166 2.458 . S
O168 C169 1.286 . S
C169 U166 2.984 . S
C169 O167 1.353 . S
C169 O168 1.286 . S
C169 C171 1.363 . S
C170 C160 1.465 . S
C170 U166 2.847 . S
C170 O184 1.249 . S
C170 O185 1.202 . S
C171 C169 1.363 . S
C171 C173 1.408 . S
C171 C176 1.342 . S
C172 C173 1.310 . S
C172 C175 1.461 . S
C172 H192 0.932 . S
C173 C171 1.408 . S
C173 C172 1.310 . S
C173 H193 0.930 . S
C174 C175 1.474 . S
C174 C176 1.285 . S
C174 H194 0.929 . S
C175 C172 1.461 . S
C175 C174 1.474 . S
C176 C171 1.342 . S
C176 C174 1.285 . S
C176 H195 0.930 . S
C177 C180 1.424 . S
C177 C182 1.245 . S
C177 C183 1.428 . S
C178 C181 1.260 . S
C178 C182 1.477 . S
C178 H196 0.932 . S
C179 C180 1.384 . S
C179 C181 1.479 . S
C179 H197 0.929 . S
C180 C177 1.424 . S
C180 C179 1.384 . S
C180 H198 0.928 . S
C181 C178 1.260 . S
C181 C179 1.479 . S
C182 C177 1.245 . S
C182 C178 1.477 . S
C182 H199 0.932 . S
C183 U166 2.882 . S
C183 C177 1.428 . S
C183 O186 1.301 . S
C183 O187 1.282 . S
O184 U166 2.441 . S
O184 C170 1.249 . S
O185 U166 2.420 . S
O185 C170 1.202 . S
O186 U166 2.455 . S
O186 C183 1.301 . S
O187 U166 2.449 . S
O187 C183 1.282 . S
H188 C161 0.931 . S
H189 C163 0.929 . S
H190 C164 0.930 . S
H191 C165 0.931 . S
H192 C172 0.932 . S
H193 C173 0.930 . S
H194 C174 0.929 . S
H195 C176 0.930 . S
H196 C178 0.932 . S
H197 C179 0.929 . S
H198 C180 0.928 . S
H199 C182 0.932 . S
C200 C201 1.264 . S
C200 C205 1.479 . S
C200 C210 1.465 . S
C201 C200 1.264 . S
C201 C203 1.339 . S
C201 H228 0.931 . S
C202 C203 1.395 . S
C202 C204 1.320 . S
C203 C201 1.339 . S
C203 C202 1.395 . S
C203 H229 0.929 . S
C204 C202 1.320 . S
C204 C205 1.405 . S
C204 H230 0.930 . S
C205 C200 1.479 . S
C205 C204 1.405 . S
C205 H231 0.931 . S
U206 O207 2.454 . S
U206 O208 2.458 . S
U206 C209 2.984 . S
U206 C210 2.847 . S
U206 C223 2.882 . S
U206 O224 2.441 . S
U206 O225 2.420 . S
U206 O226 2.455 . S
U206 O227 2.449 . S
O207 U206 2.454 . S
O207 C209 1.353 . S
O208 U206 2.458 . S
O208 C209 1.286 . S
C209 U206 2.984 . S
C209 O207 1.353 . S
C209 O208 1.286 . S
C209 C211 1.363 . S
C210 C200 1.465 . S
C210 U206 2.847 . S
C210 O224 1.249 . S
C210 O225 1.202 . S
C211 C209 1.363 . S
C211 C213 1.408 . S
C211 C216 1.342 . S
C212 C213 1.310 . S
C212 C215 1.461 . S
C212 H232 0.932 . S
C213 C211 1.408 . S
C213 C212 1.310 . S
C213 H233 0.930 . S
C214 C215 1.474 . S
C214 C216 1.285 . S
C214 H234 0.929 . S
C215 C212 1.461 . S
C215 C214 1.474 . S
C216 C211 1.342 . S
C216 C214 1.285 . S
C216 H235 0.930 . S
C217 C220 1.424 . S
C217 C222 1.245 . S
C217 C223 1.428 1_556 S
C218 C221 1.260 . S
C218 C222 1.477 . S
C218 H236 0.932 . S
C219 C220 1.384 . S
C219 C221 1.479 . S
C219 H237 0.929 . S
C220 C217 1.424 . S
C220 C219 1.384 . S
C220 H238 0.928 . S
C221 C218 1.260 . S
C221 C219 1.479 . S
C222 C217 1.245 . S
C222 C218 1.477 . S
C222 H239 0.932 . S
C223 U206 2.882 . S
C223 C217 1.428 1_554 S
C223 O226 1.301 . S
C223 O227 1.282 . S
O224 U206 2.441 . S
O224 C210 1.249 . S
O225 U206 2.420 . S
O225 C210 1.202 . S
O226 U206 2.455 . S
O226 C223 1.301 . S
O227 U206 2.449 . S
O227 C223 1.282 . S
H228 C201 0.931 . S
H229 C203 0.929 . S
H230 C204 0.930 . S
H231 C205 0.931 . S
H232 C212 0.932 . S
H233 C213 0.930 . S
H234 C214 0.929 . S
H235 C216 0.930 . S
H236 C218 0.932 . S
H237 C219 0.929 . S
H238 C220 0.928 . S
H239 C222 0.932 . S
C240 C241 1.264 . S
C240 C245 1.479 . S
C240 C250 1.465 . S
C241 C240 1.264 . S
C241 C243 1.339 . S
C241 H268 0.931 . S
C242 C243 1.395 . S
C242 C244 1.320 . S
C243 C241 1.339 . S
C243 C242 1.395 . S
C243 H269 0.929 . S
C244 C242 1.320 . S
C244 C245 1.405 . S
C244 H270 0.930 . S
C245 C240 1.479 . S
C245 C244 1.405 . S
C245 H271 0.931 . S
U246 O247 2.454 . S
U246 O248 2.458 . S
U246 C249 2.984 . S
U246 C250 2.847 . S
U246 C263 2.882 . S
U246 O264 2.441 . S
U246 O265 2.420 . S
U246 O266 2.455 . S
U246 O267 2.449 . S
O247 U246 2.454 . S
O247 C249 1.353 . S
O248 U246 2.458 . S
O248 C249 1.286 . S
C249 U246 2.984 . S
C249 O247 1.353 . S
C249 O248 1.286 . S
C249 C251 1.363 . S
C250 C240 1.465 . S
C250 U246 2.847 . S
C250 O264 1.249 . S
C250 O265 1.202 . S
C251 C249 1.363 . S
C251 C253 1.408 . S
C251 C256 1.342 . S
C252 C253 1.310 . S
C252 C255 1.461 . S
C252 H272 0.932 . S
C253 C251 1.408 . S
C253 C252 1.310 . S
C253 H273 0.930 . S
C254 C255 1.474 . S
C254 C256 1.285 . S
C254 H274 0.929 . S
C255 C252 1.461 . S
C255 C254 1.474 . S
C256 C251 1.342 . S
C256 C254 1.285 . S
C256 H275 0.930 . S
C257 C260 1.424 . S
C257 C262 1.245 . S
C257 C263 1.428 . S
C258 C261 1.260 . S
C258 C262 1.477 . S
C258 H276 0.932 . S
C259 C260 1.384 . S
C259 C261 1.479 . S
C259 H277 0.929 . S
C260 C257 1.424 . S
C260 C259 1.384 . S
C260 H278 0.928 . S
C261 C258 1.260 . S
C261 C259 1.479 . S
C262 C257 1.245 . S
C262 C258 1.477 . S
C262 H279 0.932 . S
C263 U246 2.882 . S
C263 C257 1.428 . S
C263 O266 1.301 . S
C263 O267 1.282 . S
O264 U246 2.441 . S
O264 C250 1.249 . S
O265 U246 2.420 . S
O265 C250 1.202 . S
O266 U246 2.455 . S
O266 C263 1.301 . S
O267 U246 2.449 . S
O267 C263 1.282 . S
H268 C241 0.931 . S
H269 C243 0.929 . S
H270 C244 0.930 . S
H271 C245 0.931 . S
H272 C252 0.932 . S
H273 C253 0.930 . S
H274 C254 0.929 . S
H275 C256 0.930 . S
H276 C258 0.932 . S
H277 C259 0.929 . S
H278 C260 0.928 . S
H279 C262 0.932 . S
C280 C281 1.264 . S
C280 C285 1.479 . S
C280 C290 1.465 . S
C281 C280 1.264 . S
C281 C283 1.339 . S
C281 H308 0.931 . S
C282 C283 1.395 . S
C282 C284 1.320 . S
C283 C281 1.339 . S
C283 C282 1.395 . S
C283 H309 0.929 . S
C284 C282 1.320 . S
C284 C285 1.405 . S
C284 H310 0.925 1_556 S
C285 C280 1.479 . S
C285 C284 1.405 . S
C285 H311 0.931 . S
U286 O287 2.454 . S
U286 O288 2.458 . S
U286 C289 2.984 . S
U286 C290 2.847 . S
U286 C303 2.882 . S
U286 O304 2.441 . S
U286 O305 2.420 . S
U286 O306 2.455 . S
U286 O307 2.449 . S
O287 U286 2.454 . S
O287 C289 1.353 . S
O288 U286 2.458 . S
O288 C289 1.286 . S
C289 U286 2.984 . S
C289 O287 1.353 . S
C289 O288 1.286 . S
C289 C291 1.363 . S
C290 C280 1.465 . S
C290 U286 2.847 . S
C290 O304 1.249 . S
C290 O305 1.202 . S
C291 C289 1.363 . S
C291 C293 1.408 . S
C291 C296 1.362 . S
C292 C293 1.310 . S
C292 C295 1.461 . S
C292 H312 0.930 . S
C293 C291 1.408 . S
C293 C292 1.310 . S
C293 H313 0.930 . S
C294 C295 1.473 1_554 S
C294 C296 1.278 1_554 S
C294 H314 0.932 . S
C295 C292 1.461 . S
C295 C294 1.473 1_556 S
C296 C291 1.362 . S
C296 C294 1.278 1_556 S
C296 H315 0.926 . S
C297 C300 1.424 . S
C297 C302 1.245 . S
C297 C303 1.428 . S
C298 C301 1.260 . S
C298 C302 1.477 . S
C298 H316 0.932 . S
C299 C300 1.384 . S
C299 C301 1.479 . S
C299 H317 0.929 . S
C300 C297 1.424 . S
C300 C299 1.384 . S
C300 H318 0.928 . S
C301 C298 1.260 . S
C301 C299 1.479 . S
C302 C297 1.245 . S
C302 C298 1.477 . S
C302 H319 0.932 . S
C303 U286 2.882 . S
C303 C297 1.428 . S
C303 O306 1.301 . S
C303 O307 1.282 . S
O304 U286 2.441 . S
O304 C290 1.249 . S
O305 U286 2.420 . S
O305 C290 1.202 . S
O306 U286 2.455 . S
O306 C303 1.301 . S
O307 U286 2.449 . S
O307 C303 1.282 . S
H308 C281 0.931 . S
H309 C283 0.929 . S
H310 C284 0.925 1_554 S
H311 C285 0.931 . S
H312 C292 0.930 . S
H313 C293 0.930 . S
H314 C294 0.932 . S
H315 C296 0.926 . S
H316 C298 0.932 . S
H317 C299 0.929 . S
H318 C300 0.928 . S
H319 C302 0.932 . S
C320 C321 1.264 . S
C320 C325 1.479 . S
C320 C330 1.465 . S
C321 C320 1.264 . S
C321 C323 1.339 . S
C321 H348 0.931 . S
C322 C323 1.395 . S
C322 C324 1.320 . S
C323 C321 1.339 . S
C323 C322 1.395 . S
C323 H349 0.929 . S
C324 C322 1.320 . S
C324 C325 1.405 . S
C324 H350 0.930 . S
C325 C320 1.479 . S
C325 C324 1.405 . S
C325 H351 0.931 . S
U326 O327 2.454 . S
U326 O328 2.458 . S
U326 C329 2.984 . S
U326 C330 2.847 . S
U326 C343 2.882 . S
U326 O344 2.441 . S
U326 O345 2.420 . S
U326 O346 2.455 . S
U326 O347 2.449 . S
O327 U326 2.454 . S
O327 C329 1.353 . S
O328 U326 2.458 . S
O328 C329 1.286 . S
C329 U326 2.984 . S
C329 O327 1.353 . S
C329 O328 1.286 . S
C329 C331 1.363 . S
C330 C320 1.465 . S
C330 U326 2.847 . S
C330 O344 1.249 . S
C330 O345 1.202 . S
C331 C329 1.363 . S
C331 C333 1.408 . S
C331 C336 1.342 . S
C332 C333 1.310 . S
C332 C335 1.461 . S
C332 H352 0.932 . S
C333 C331 1.408 . S
C333 C332 1.310 . S
C333 H353 0.930 . S
C334 C335 1.474 . S
C334 C336 1.285 . S
C334 H354 0.929 . S
C335 C332 1.461 . S
C335 C334 1.474 . S
C336 C331 1.342 . S
C336 C334 1.285 . S
C336 H355 0.930 . S
C337 C340 1.424 . S
C337 C342 1.245 . S
C337 C343 1.428 . S
C338 C341 1.260 . S
C338 C342 1.477 . S
C338 H356 0.932 . S
C339 C340 1.384 . S
C339 C341 1.479 . S
C339 H357 0.929 . S
C340 C337 1.424 . S
C340 C339 1.384 . S
C340 H358 0.928 . S
C341 C338 1.260 . S
C341 C339 1.479 . S
C342 C337 1.245 . S
C342 C338 1.477 . S
C342 H359 0.932 . S
C343 U326 2.882 . S
C343 C337 1.428 . S
C343 O346 1.301 . S
C343 O347 1.282 . S
O344 U326 2.441 . S
O344 C330 1.249 . S
O345 U326 2.420 . S
O345 C330 1.202 . S
O346 U326 2.455 . S
O346 C343 1.301 . S
O347 U326 2.449 . S
O347 C343 1.282 . S
H348 C321 0.931 . S
H349 C323 0.929 . S
H350 C324 0.930 . S
H351 C325 0.931 . S
H352 C332 0.932 . S
H353 C333 0.930 . S
H354 C334 0.929 . S
H355 C336 0.930 . S
H356 C338 0.932 . S
H357 C339 0.929 . S
H358 C340 0.928 . S
H359 C342 0.932 . S
C360 C361 1.264 . S
C360 C365 1.479 . S
C360 C370 1.465 . S
C361 C360 1.264 . S
C361 C363 1.339 . S
C361 H388 0.931 . S
C362 C363 1.395 . S
C362 C364 1.320 . S
C363 C361 1.339 . S
C363 C362 1.395 . S
C363 H389 0.929 . S
C364 C362 1.320 . S
C364 C365 1.405 . S
C364 H390 0.930 . S
C365 C360 1.479 . S
C365 C364 1.405 . S
C365 H391 0.931 . S
U366 O367 2.454 . S
U366 O368 2.458 . S
U366 C369 2.984 . S
U366 C370 2.847 . S
U366 C383 2.882 . S
U366 O384 2.441 . S
U366 O385 2.420 . S
U366 O386 2.455 . S
U366 O387 2.449 . S
O367 U366 2.454 . S
O367 C369 1.353 . S
O368 U366 2.458 . S
O368 C369 1.286 . S
C369 U366 2.984 . S
C369 O367 1.353 . S
C369 O368 1.286 . S
C369 C371 1.363 . S
C370 C360 1.465 . S
C370 U366 2.847 . S
C370 O384 1.249 . S
C370 O385 1.202 . S
C371 C369 1.363 . S
C371 C373 1.408 . S
C371 C376 1.342 . S
C372 C373 1.310 . S
C372 C375 1.461 . S
C372 H392 0.932 . S
C373 C371 1.408 . S
C373 C372 1.310 . S
C373 H393 0.930 . S
C374 C375 1.474 . S
C374 C376 1.285 . S
C374 H394 0.929 . S
C375 C372 1.461 . S
C375 C374 1.474 . S
C376 C371 1.342 . S
C376 C374 1.285 . S
C376 H395 0.930 . S
C377 C380 1.424 . S
C377 C382 1.245 . S
C377 C383 1.428 1_655 S
C378 C381 1.260 . S
C378 C382 1.477 . S
C378 H396 0.932 . S
C379 C380 1.384 . S
C379 C381 1.479 . S
C379 H397 0.929 . S
C380 C377 1.424 . S
C380 C379 1.384 . S
C380 H398 0.928 . S
C381 C378 1.260 . S
C381 C379 1.479 . S
C382 C377 1.245 . S
C382 C378 1.477 . S
C382 H399 0.932 . S
C383 U366 2.882 . S
C383 C377 1.428 1_455 S
C383 O386 1.301 . S
C383 O387 1.282 . S
O384 U366 2.441 . S
O384 C370 1.249 . S
O385 U366 2.420 . S
O385 C370 1.202 . S
O386 U366 2.455 . S
O386 C383 1.301 . S
O387 U366 2.449 . S
O387 C383 1.282 . S
H388 C361 0.931 . S
H389 C363 0.929 . S
H390 C364 0.930 . S
H391 C365 0.931 . S
H392 C372 0.932 . S
H393 C373 0.930 . S
H394 C374 0.929 . S
H395 C376 0.930 . S
H396 C378 0.932 . S
H397 C379 0.929 . S
H398 C380 0.928 . S
H399 C382 0.932 . S
C400 C401 1.264 . S
C400 C405 1.479 . S
C400 C410 1.465 . S
C401 C400 1.264 . S
C401 C403 1.339 . S
C401 H428 0.931 . S
C402 C403 1.395 . S
C402 C404 1.320 . S
C403 C401 1.339 . S
C403 C402 1.395 . S
C403 H429 0.929 . S
C404 C402 1.320 . S
C404 C405 1.405 . S
C404 H430 0.930 . S
C405 C400 1.479 . S
C405 C404 1.405 . S
C405 H431 0.931 . S
U406 O407 2.454 . S
U406 O408 2.458 . S
U406 C409 2.984 . S
U406 C410 2.847 . S
U406 C423 2.882 . S
U406 O424 2.441 . S
U406 O425 2.420 . S
U406 O426 2.455 . S
U406 O427 2.449 . S
O407 U406 2.454 . S
O407 C409 1.353 . S
O408 U406 2.458 . S
O408 C409 1.286 . S
C409 U406 2.984 . S
C409 O407 1.353 . S
C409 O408 1.286 . S
C409 C411 1.363 . S
C410 C400 1.465 . S
C410 U406 2.847 . S
C410 O424 1.249 . S
C410 O425 1.202 . S
C411 C409 1.363 . S
C411 C413 1.408 . S
C411 C416 1.342 . S
C412 C413 1.310 . S
C412 C415 1.461 . S
C412 H432 0.932 . S
C413 C411 1.408 . S
C413 C412 1.310 . S
C413 H433 0.930 . S
C414 C415 1.474 . S
C414 C416 1.285 . S
C414 H434 0.929 . S
C415 C412 1.461 . S
C415 C414 1.474 . S
C416 C411 1.342 . S
C416 C414 1.285 . S
C416 H435 0.930 . S
C417 C420 1.424 . S
C417 C422 1.245 . S
C417 C423 1.428 . S
C418 C421 1.260 . S
C418 C422 1.477 . S
C418 H436 0.932 . S
C419 C420 1.384 . S
C419 C421 1.479 . S
C419 H437 0.929 . S
C420 C417 1.424 . S
C420 C419 1.384 . S
C420 H438 0.928 . S
C421 C418 1.260 . S
C421 C419 1.479 . S
C422 C417 1.245 . S
C422 C418 1.477 . S
C422 H439 0.932 . S
C423 U406 2.882 . S
C423 C417 1.428 . S
C423 O426 1.301 . S
C423 O427 1.282 . S
O424 U406 2.441 . S
O424 C410 1.249 . S
O425 U406 2.420 . S
O425 C410 1.202 . S
O426 U406 2.455 . S
O426 C423 1.301 . S
O427 U406 2.449 . S
O427 C423 1.282 . S
H428 C401 0.931 . S
H429 C403 0.929 . S
H430 C404 0.930 . S
H431 C405 0.931 . S
H432 C412 0.932 . S
H433 C413 0.930 . S
H434 C414 0.929 . S
H435 C416 0.930 . S
H436 C418 0.932 . S
H437 C419 0.929 . S
H438 C420 0.928 . S
H439 C422 0.932 . S
C440 C441 1.264 . S
C440 C445 1.479 . S
C440 C450 1.465 . S
C441 C440 1.264 . S
C441 C443 1.339 . S
C441 H468 0.931 . S
C442 C443 1.395 . S
C442 C444 1.320 . S
C443 C441 1.339 . S
C443 C442 1.395 . S
C443 H469 0.929 . S
C444 C442 1.320 . S
C444 C445 1.405 . S
C444 H470 0.925 1_655 S
C445 C440 1.479 . S
C445 C444 1.405 . S
C445 H471 0.931 . S
U446 O447 2.454 . S
U446 O448 2.458 . S
U446 C449 2.984 . S
U446 C450 2.847 . S
U446 C463 2.882 . S
U446 O464 2.441 . S
U446 O465 2.420 . S
U446 O466 2.455 . S
U446 O467 2.449 . S
O447 U446 2.454 . S
O447 C449 1.353 . S
O448 U446 2.458 . S
O448 C449 1.286 . S
C449 U446 2.984 . S
C449 O447 1.353 . S
C449 O448 1.286 . S
C449 C451 1.363 . S
C450 C440 1.465 . S
C450 U446 2.847 . S
C450 O464 1.249 . S
C450 O465 1.202 . S
C451 C449 1.363 . S
C451 C453 1.408 . S
C451 C456 1.362 . S
C452 C453 1.310 . S
C452 C455 1.461 . S
C452 H472 0.930 . S
C453 C451 1.408 . S
C453 C452 1.310 . S
C453 H473 0.930 . S
C454 C455 1.473 1_455 S
C454 C456 1.278 1_455 S
C454 H474 0.932 . S
C455 C452 1.461 . S
C455 C454 1.473 1_655 S
C456 C451 1.362 . S
C456 C454 1.278 1_655 S
C456 H475 0.926 . S
C457 C460 1.424 . S
C457 C462 1.245 . S
C457 C463 1.428 . S
C458 C461 1.260 . S
C458 C462 1.477 . S
C458 H476 0.932 . S
C459 C460 1.384 . S
C459 C461 1.479 . S
C459 H477 0.929 . S
C460 C457 1.424 . S
C460 C459 1.384 . S
C460 H478 0.928 . S
C461 C458 1.260 . S
C461 C459 1.479 . S
C462 C457 1.245 . S
C462 C458 1.477 . S
C462 H479 0.932 . S
C463 U446 2.882 . S
C463 C457 1.428 . S
C463 O466 1.301 . S
C463 O467 1.282 . S
O464 U446 2.441 . S
O464 C450 1.249 . S
O465 U446 2.420 . S
O465 C450 1.202 . S
O466 U446 2.455 . S
O466 C463 1.301 . S
O467 U446 2.449 . S
O467 C463 1.282 . S
H468 C441 0.931 . S
H469 C443 0.929 . S
H470 C444 0.925 1_455 S
H471 C445 0.931 . S
H472 C452 0.930 . S
H473 C453 0.930 . S
H474 C454 0.932 . S
H475 C456 0.926 . S
H476 C458 0.932 . S
H477 C459 0.929 . S
H478 C460 0.928 . S
H479 C462 0.932 . S
C480 C481 1.264 . S
C480 C485 1.479 . S
C480 C490 1.465 . S
C481 C480 1.264 . S
C481 C483 1.339 . S
C481 H508 0.931 . S
C482 C483 1.395 . S
C482 C484 1.320 . S
C483 C481 1.339 . S
C483 C482 1.395 . S
C483 H509 0.929 . S
C484 C482 1.320 . S
C484 C485 1.405 . S
C484 H510 0.930 . S
C485 C480 1.479 . S
C485 C484 1.405 . S
C485 H511 0.931 . S
U486 O487 2.454 . S
U486 O488 2.458 . S
U486 C489 2.984 . S
U486 C490 2.847 . S
U486 C503 2.882 . S
U486 O504 2.441 . S
U486 O505 2.420 . S
U486 O506 2.455 . S
U486 O507 2.449 . S
O487 U486 2.454 . S
O487 C489 1.353 . S
O488 U486 2.458 . S
O488 C489 1.286 . S
C489 U486 2.984 . S
C489 O487 1.353 . S
C489 O488 1.286 . S
C489 C491 1.363 . S
C490 C480 1.465 . S
C490 U486 2.847 . S
C490 O504 1.249 . S
C490 O505 1.202 . S
C491 C489 1.363 . S
C491 C493 1.408 . S
C491 C496 1.342 . S
C492 C493 1.310 . S
C492 C495 1.461 . S
C492 H512 0.932 . S
C493 C491 1.408 . S
C493 C492 1.310 . S
C493 H513 0.930 . S
C494 C495 1.474 . S
C494 C496 1.285 . S
C494 H514 0.929 . S
C495 C492 1.461 . S
C495 C494 1.474 . S
C496 C491 1.342 . S
C496 C494 1.285 . S
C496 H515 0.930 . S
C497 C500 1.424 . S
C497 C502 1.245 . S
C497 C503 1.428 . S
C498 C501 1.260 . S
C498 C502 1.477 . S
C498 H516 0.932 . S
C499 C500 1.384 . S
C499 C501 1.479 . S
C499 H517 0.929 . S
C500 C497 1.424 . S
C500 C499 1.384 . S
C500 H518 0.928 . S
C501 C498 1.260 . S
C501 C499 1.479 . S
C502 C497 1.245 . S
C502 C498 1.477 . S
C502 H519 0.932 . S
C503 U486 2.882 . S
C503 C497 1.428 . S
C503 O506 1.301 . S
C503 O507 1.282 . S
O504 U486 2.441 . S
O504 C490 1.249 . S
O505 U486 2.420 . S
O505 C490 1.202 . S
O506 U486 2.455 . S
O506 C503 1.301 . S
O507 U486 2.449 . S
O507 C503 1.282 . S
H508 C481 0.931 . S
H509 C483 0.929 . S
H510 C484 0.930 . S
H511 C485 0.931 . S
H512 C492 0.932 . S
H513 C493 0.930 . S
H514 C494 0.929 . S
H515 C496 0.930 . S
H516 C498 0.932 . S
H517 C499 0.929 . S
H518 C500 0.928 . S
H519 C502 0.932 . S
C520 C521 1.264 . S
C520 C525 1.479 . S
C520 C530 1.465 . S
C521 C520 1.264 . S
C521 C523 1.339 . S
C521 H548 0.931 . S
C522 C523 1.395 . S
C522 C524 1.320 . S
C523 C521 1.339 . S
C523 C522 1.395 . S
C523 H549 0.929 . S
C524 C522 1.320 . S
C524 C525 1.405 . S
C524 H550 0.930 . S
C525 C520 1.479 . S
C525 C524 1.405 . S
C525 H551 0.931 . S
U526 O527 2.454 . S
U526 O528 2.458 . S
U526 C529 2.984 . S
U526 C530 2.847 . S
U526 C543 2.882 . S
U526 O544 2.441 . S
U526 O545 2.420 . S
U526 O546 2.455 . S
U526 O547 2.449 . S
O527 U526 2.454 . S
O527 C529 1.353 . S
O528 U526 2.458 . S
O528 C529 1.286 . S
C529 U526 2.984 . S
C529 O527 1.353 . S
C529 O528 1.286 . S
C529 C531 1.363 . S
C530 C520 1.465 . S
C530 U526 2.847 . S
C530 O544 1.249 . S
C530 O545 1.202 . S
C531 C529 1.363 . S
C531 C533 1.408 . S
C531 C536 1.342 . S
C532 C533 1.310 . S
C532 C535 1.461 . S
C532 H552 0.932 . S
C533 C531 1.408 . S
C533 C532 1.310 . S
C533 H553 0.930 . S
C534 C535 1.474 . S
C534 C536 1.285 . S
C534 H554 0.929 . S
C535 C532 1.461 . S
C535 C534 1.474 . S
C536 C531 1.342 . S
C536 C534 1.285 . S
C536 H555 0.930 . S
C537 C540 1.424 . S
C537 C542 1.245 . S
C537 C543 1.428 . S
C538 C541 1.260 . S
C538 C542 1.477 . S
C538 H556 0.932 . S
C539 C540 1.384 . S
C539 C541 1.479 . S
C539 H557 0.929 . S
C540 C537 1.424 . S
C540 C539 1.384 . S
C540 H558 0.928 . S
C541 C538 1.260 . S
C541 C539 1.479 . S
C542 C537 1.245 . S
C542 C538 1.477 . S
C542 H559 0.932 . S
C543 U526 2.882 . S
C543 C537 1.428 . S
C543 O546 1.301 . S
C543 O547 1.282 . S
O544 U526 2.441 . S
O544 C530 1.249 . S
O545 U526 2.420 . S
O545 C530 1.202 . S
O546 U526 2.455 . S
O546 C543 1.301 . S
O547 U526 2.449 . S
O547 C543 1.282 . S
H548 C521 0.931 . S
H549 C523 0.929 . S
H550 C524 0.930 . S
H551 C525 0.931 . S
H552 C532 0.932 . S
H553 C533 0.930 . S
H554 C534 0.929 . S
H555 C536 0.930 . S
H556 C538 0.932 . S
H557 C539 0.929 . S
H558 C540 0.928 . S
H559 C542 0.932 . S
C560 C561 1.264 . S
C560 C565 1.479 . S
C560 C570 1.465 . S
C561 C560 1.264 . S
C561 C563 1.339 . S
C561 H588 0.931 . S
C562 C563 1.395 . S
C562 C564 1.320 . S
C563 C561 1.339 . S
C563 C562 1.395 . S
C563 H589 0.929 . S
C564 C562 1.320 . S
C564 C565 1.405 . S
C564 H590 0.921 1_565 S
C565 C560 1.479 . S
C565 C564 1.405 . S
C565 H591 0.931 . S
U566 O567 2.454 . S
U566 O568 2.458 . S
U566 C569 2.984 . S
U566 C570 2.847 . S
U566 C583 2.882 . S
U566 O584 2.441 . S
U566 O585 2.420 . S
U566 O586 2.455 . S
U566 O587 2.449 . S
O567 U566 2.454 . S
O567 C569 1.353 . S
O568 U566 2.458 . S
O568 C569 1.286 . S
C569 U566 2.984 . S
C569 O567 1.353 . S
C569 O568 1.286 . S
C569 C571 1.363 . S
C570 C560 1.465 . S
C570 U566 2.847 . S
C570 O584 1.249 . S
C570 O585 1.202 . S
C571 C569 1.363 . S
C571 C573 1.408 . S
C571 C576 1.342 . S
C572 C573 1.310 . S
C572 C575 1.460 . S
C572 H592 0.932 . S
C573 C571 1.408 . S
C573 C572 1.310 . S
C573 H593 0.930 . S
C574 C575 1.475 1_545 S
C574 C576 1.286 1_545 S
C574 H594 0.930 . S
C575 C572 1.460 . S
C575 C574 1.475 1_565 S
C576 C571 1.342 . S
C576 C574 1.286 1_565 S
C576 H595 0.929 . S
C577 C580 1.424 . S
C577 C582 1.245 . S
C577 C583 1.428 . S
C578 C581 1.260 . S
C578 C582 1.477 . S
C578 H596 0.932 . S
C579 C580 1.384 . S
C579 C581 1.479 . S
C579 H597 0.929 . S
C580 C577 1.424 . S
C580 C579 1.384 . S
C580 H598 0.928 . S
C581 C578 1.260 . S
C581 C579 1.479 . S
C582 C577 1.245 . S
C582 C578 1.477 . S
C582 H599 0.932 . S
C583 U566 2.882 . S
C583 C577 1.428 . S
C583 O586 1.301 . S
C583 O587 1.282 . S
O584 U566 2.441 . S
O584 C570 1.249 . S
O585 U566 2.420 . S
O585 C570 1.202 . S
O586 U566 2.455 . S
O586 C583 1.301 . S
O587 U566 2.449 . S
O587 C583 1.282 . S
H588 C561 0.931 . S
H589 C563 0.929 . S
H590 C564 0.921 1_545 S
H591 C565 0.931 . S
H592 C572 0.932 . S
H593 C573 0.930 . S
H594 C574 0.930 . S
H595 C576 0.929 . S
H596 C578 0.932 . S
H597 C579 0.929 . S
H598 C580 0.928 . S
H599 C582 0.932 . S
C600 C601 1.267 . S
C600 C605 1.465 1_545 S
C600 C610 1.482 . S
C601 C600 1.267 . S
C601 C603 1.321 1_545 S
C601 H628 0.931 . S
C602 C603 1.420 . S
C602 C604 1.320 . S
C603 C601 1.321 1_565 S
C603 C602 1.420 . S
C603 H629 0.926 1_565 S
C604 C602 1.320 . S
C604 C605 1.405 . S
C604 H630 0.930 . S
C605 C600 1.465 1_565 S
C605 C604 1.405 . S
C605 H631 0.931 . S
U606 O607 2.454 1_545 S
U606 O608 2.458 . S
U606 C609 2.988 . S
U606 C610 2.847 . S
U606 C623 2.882 . S
U606 O624 2.441 . S
U606 O625 2.420 . S
U606 O626 2.455 . S
U606 O627 2.449 . S
O607 U606 2.454 1_565 S
O607 C609 1.350 1_565 S
O608 U606 2.458 . S
O608 C609 1.290 . S
C609 U606 2.988 . S
C609 O607 1.350 1_545 S
C609 O608 1.290 . S
C609 C611 1.361 1_545 S
C610 C600 1.482 . S
C610 U606 2.847 . S
C610 O624 1.249 . S
C610 O625 1.202 . S
C611 C609 1.361 1_565 S
C611 C613 1.408 . S
C611 C616 1.342 . S
C612 C613 1.310 . S
C612 C615 1.461 . S
C612 H632 0.932 . S
C613 C611 1.408 . S
C613 C612 1.310 . S
C613 H633 0.930 . S
C614 C615 1.474 . S
C614 C616 1.285 . S
C614 H634 0.929 . S
C615 C612 1.461 . S
C615 C614 1.474 . S
C616 C611 1.342 . S
C616 C614 1.285 . S
C616 H635 0.932 . S
C617 C620 1.424 . S
C617 C622 1.245 . S
C617 C623 1.428 . S
C618 C621 1.260 . S
C618 C622 1.477 . S
C618 H636 0.932 . S
C619 C620 1.384 . S
C619 C621 1.479 . S
C619 H637 0.929 . S
C620 C617 1.424 . S
C620 C619 1.384 . S
C620 H638 0.928 . S
C621 C618 1.260 . S
C621 C619 1.479 . S
C622 C617 1.245 . S
C622 C618 1.477 . S
C622 H639 0.932 . S
C623 U606 2.882 . S
C623 C617 1.428 . S
C623 O626 1.301 . S
C623 O627 1.282 . S
O624 U606 2.441 . S
O624 C610 1.249 . S
O625 U606 2.420 . S
O625 C610 1.202 . S
O626 U606 2.455 . S
O626 C623 1.301 . S
O627 U606 2.449 . S
O627 C623 1.282 . S
H628 C601 0.931 . S
H629 C603 0.926 1_545 S
H630 C604 0.930 . S
H631 C605 0.931 . S
H632 C612 0.932 . S
H633 C613 0.930 . S
H634 C614 0.929 . S
H635 C616 0.932 . S
H636 C618 0.932 . S
H637 C619 0.929 . S
H638 C620 0.928 . S
H639 C622 0.932 . S
C640 C641 1.264 . S
C640 C645 1.479 . S
C640 C650 1.465 . S
C641 C640 1.264 . S
C641 C643 1.339 . S
C641 H668 0.931 . S
C642 C643 1.395 . S
C642 C644 1.320 . S
C643 C641 1.339 . S
C643 C642 1.395 . S
C643 H669 0.929 . S
C644 C642 1.320 . S
C644 C645 1.405 . S
C644 H670 0.930 . S
C645 C640 1.479 . S
C645 C644 1.405 . S
C645 H671 0.931 . S
U646 O647 2.454 . S
U646 O648 2.458 . S
U646 C649 2.984 . S
U646 C650 2.847 . S
U646 C663 2.882 . S
U646 O664 2.441 . S
U646 O665 2.420 . S
U646 O666 2.455 . S
U646 O667 2.449 . S
O647 U646 2.454 . S
O647 C649 1.353 . S
O648 U646 2.458 . S
O648 C649 1.286 . S
C649 U646 2.984 . S
C649 O647 1.353 . S
C649 O648 1.286 . S
C649 C651 1.363 . S
C650 C640 1.465 . S
C650 U646 2.847 . S
C650 O664 1.249 . S
C650 O665 1.202 . S
C651 C649 1.363 . S
C651 C653 1.408 . S
C651 C656 1.342 . S
C652 C653 1.310 . S
C652 C655 1.461 . S
C652 H672 0.932 . S
C653 C651 1.408 . S
C653 C652 1.310 . S
C653 H673 0.930 . S
C654 C655 1.474 . S
C654 C656 1.285 . S
C654 H674 0.929 . S
C655 C652 1.461 . S
C655 C654 1.474 . S
C656 C651 1.342 . S
C656 C654 1.285 . S
C656 H675 0.930 . S
C657 C660 1.424 . S
C657 C662 1.245 . S
C657 C663 1.428 . S
C658 C661 1.260 . S
C658 C662 1.477 . S
C658 H676 0.932 . S
C659 C660 1.384 . S
C659 C661 1.479 . S
C659 H677 0.929 . S
C660 C657 1.424 . S
C660 C659 1.384 . S
C660 H678 0.928 . S
C661 C658 1.260 . S
C661 C659 1.479 . S
C662 C657 1.245 . S
C662 C658 1.477 . S
C662 H679 0.932 . S
C663 U646 2.882 . S
C663 C657 1.428 . S
C663 O666 1.301 . S
C663 O667 1.282 . S
O664 U646 2.441 . S
O664 C650 1.249 . S
O665 U646 2.420 . S
O665 C650 1.202 . S
O666 U646 2.455 . S
O666 C663 1.301 . S
O667 U646 2.449 . S
O667 C663 1.282 . S
H668 C641 0.931 . S
H669 C643 0.929 . S
H670 C644 0.930 . S
H671 C645 0.931 . S
H672 C652 0.932 . S
H673 C653 0.930 . S
H674 C654 0.929 . S
H675 C656 0.930 . S
H676 C658 0.932 . S
H677 C659 0.929 . S
H678 C660 0.928 . S
H679 C662 0.932 . S
C680 C681 1.267 . S
C680 C685 1.465 1_554 S
C680 C690 1.482 . S
C681 C680 1.267 . S
C681 C683 1.321 1_554 S
C681 H708 0.931 . S
C682 C683 1.420 . S
C682 C684 1.320 . S
C683 C681 1.321 1_556 S
C683 C682 1.420 . S
C683 H709 0.926 1_556 S
C684 C682 1.320 . S
C684 C685 1.405 . S
C684 H710 0.930 . S
C685 C680 1.465 1_556 S
C685 C684 1.405 . S
C685 H711 0.931 . S
U686 O687 2.454 1_554 S
U686 O688 2.458 . S
U686 C689 2.988 . S
U686 C690 2.847 . S
U686 C703 2.882 . S
U686 O704 2.441 . S
U686 O705 2.420 . S
U686 O706 2.455 . S
U686 O707 2.449 . S
O687 U686 2.454 1_556 S
O687 C689 1.350 1_556 S
O688 U686 2.458 . S
O688 C689 1.290 . S
C689 U686 2.988 . S
C689 O687 1.350 1_554 S
C689 O688 1.290 . S
C689 C691 1.361 1_554 S
C690 C680 1.482 . S
C690 U686 2.847 . S
C690 O704 1.249 . S
C690 O705 1.202 . S
C691 C689 1.361 1_556 S
C691 C693 1.408 . S
C691 C696 1.342 . S
C692 C693 1.310 . S
C692 C695 1.461 . S
C692 H712 0.932 . S
C693 C691 1.408 . S
C693 C692 1.310 . S
C693 H713 0.930 . S
C694 C695 1.474 . S
C694 C696 1.285 . S
C694 H714 0.929 . S
C695 C692 1.461 . S
C695 C694 1.474 . S
C696 C691 1.342 . S
C696 C694 1.285 . S
C696 H715 0.932 . S
C697 C700 1.424 . S
C697 C702 1.245 . S
C697 C703 1.428 . S
C698 C701 1.260 . S
C698 C702 1.477 . S
C698 H716 0.932 . S
C699 C700 1.384 . S
C699 C701 1.479 . S
C699 H717 0.929 . S
C700 C697 1.424 . S
C700 C699 1.384 . S
C700 H718 0.928 . S
C701 C698 1.260 . S
C701 C699 1.479 . S
C702 C697 1.245 . S
C702 C698 1.477 . S
C702 H719 0.932 . S
C703 U686 2.882 . S
C703 C697 1.428 . S
C703 O706 1.301 . S
C703 O707 1.282 . S
O704 U686 2.441 . S
O704 C690 1.249 . S
O705 U686 2.420 . S
O705 C690 1.202 . S
O706 U686 2.455 . S
O706 C703 1.301 . S
O707 U686 2.449 . S
O707 C703 1.282 . S
H708 C681 0.931 . S
H709 C683 0.926 1_554 S
H710 C684 0.930 . S
H711 C685 0.931 . S
H712 C692 0.932 . S
H713 C693 0.930 . S
H714 C694 0.929 . S
H715 C696 0.932 . S
H716 C698 0.932 . S
H717 C699 0.929 . S
H718 C700 0.928 . S
H719 C702 0.932 . S
C720 C721 1.264 . S
C720 C725 1.479 . S
C720 C730 1.465 . S
C721 C720 1.264 . S
C721 C723 1.339 . S
C721 H748 0.931 . S
C722 C723 1.395 . S
C722 C724 1.320 . S
C723 C721 1.339 . S
C723 C722 1.395 . S
C723 H749 0.929 . S
C724 C722 1.320 . S
C724 C725 1.405 . S
C724 H750 0.930 . S
C725 C720 1.479 . S
C725 C724 1.405 . S
C725 H751 0.931 . S
U726 O727 2.454 . S
U726 O728 2.458 . S
U726 C729 2.984 . S
U726 C730 2.847 . S
U726 C743 2.882 . S
U726 O744 2.441 . S
U726 O745 2.420 . S
U726 O746 2.455 . S
U726 O747 2.449 . S
O727 U726 2.454 . S
O727 C729 1.353 . S
O728 U726 2.458 . S
O728 C729 1.286 . S
C729 U726 2.984 . S
C729 O727 1.353 . S
C729 O728 1.286 . S
C729 C731 1.363 . S
C730 C720 1.465 . S
C730 U726 2.847 . S
C730 O744 1.249 . S
C730 O745 1.202 . S
C731 C729 1.363 . S
C731 C733 1.408 . S
C731 C736 1.342 . S
C732 C733 1.310 . S
C732 C735 1.461 . S
C732 H752 0.932 . S
C733 C731 1.408 . S
C733 C732 1.310 . S
C733 H753 0.930 . S
C734 C735 1.474 . S
C734 C736 1.285 . S
C734 H754 0.929 . S
C735 C732 1.461 . S
C735 C734 1.474 . S
C736 C731 1.342 . S
C736 C734 1.285 . S
C736 H755 0.930 . S
C737 C740 1.424 . S
C737 C742 1.245 . S
C737 C743 1.428 . S
C738 C741 1.260 . S
C738 C742 1.477 . S
C738 H756 0.932 . S
C739 C740 1.384 . S
C739 C741 1.479 . S
C739 H757 0.929 . S
C740 C737 1.424 . S
C740 C739 1.384 . S
C740 H758 0.928 . S
C741 C738 1.260 . S
C741 C739 1.479 . S
C742 C737 1.245 . S
C742 C738 1.477 . S
C742 H759 0.932 . S
C743 U726 2.882 . S
C743 C737 1.428 . S
C743 O746 1.301 . S
C743 O747 1.282 . S
O744 U726 2.441 . S
O744 C730 1.249 . S
O745 U726 2.420 . S
O745 C730 1.202 . S
O746 U726 2.455 . S
O746 C743 1.301 . S
O747 U726 2.449 . S
O747 C743 1.282 . S
H748 C721 0.931 . S
H749 C723 0.929 . S
H750 C724 0.930 . S
H751 C725 0.931 . S
H752 C732 0.932 . S
H753 C733 0.930 . S
H754 C734 0.929 . S
H755 C736 0.930 . S
H756 C738 0.932 . S
H757 C739 0.929 . S
H758 C740 0.928 . S
H759 C742 0.932 . S
C760 C761 1.264 . S
C760 C765 1.479 . S
C760 C770 1.465 . S
C761 C760 1.264 . S
C761 C763 1.339 . S
C761 H788 0.931 . S
C762 C763 1.395 . S
C762 C764 1.320 . S
C763 C761 1.339 . S
C763 C762 1.395 . S
C763 H789 0.929 . S
C764 C762 1.320 . S
C764 C765 1.405 . S
C764 H790 0.921 1_556 S
C765 C760 1.479 . S
C765 C764 1.405 . S
C765 H791 0.931 . S
U766 O767 2.454 . S
U766 O768 2.458 . S
U766 C769 2.984 . S
U766 C770 2.847 . S
U766 C783 2.882 . S
U766 O784 2.441 . S
U766 O785 2.420 . S
U766 O786 2.455 . S
U766 O787 2.449 . S
O767 U766 2.454 . S
O767 C769 1.353 . S
O768 U766 2.458 . S
O768 C769 1.286 . S
C769 U766 2.984 . S
C769 O767 1.353 . S
C769 O768 1.286 . S
C769 C771 1.363 . S
C770 C760 1.465 . S
C770 U766 2.847 . S
C770 O784 1.249 . S
C770 O785 1.202 . S
C771 C769 1.363 . S
C771 C773 1.408 . S
C771 C776 1.342 . S
C772 C773 1.310 . S
C772 C775 1.460 . S
C772 H792 0.932 . S
C773 C771 1.408 . S
C773 C772 1.310 . S
C773 H793 0.930 . S
C774 C775 1.475 1_554 S
C774 C776 1.286 1_554 S
C774 H794 0.930 . S
C775 C772 1.460 . S
C775 C774 1.475 1_556 S
C776 C771 1.342 . S
C776 C774 1.286 1_556 S
C776 H795 0.929 . S
C777 C780 1.424 . S
C777 C782 1.245 . S
C777 C783 1.428 . S
C778 C781 1.260 . S
C778 C782 1.477 . S
C778 H796 0.932 . S
C779 C780 1.384 . S
C779 C781 1.479 . S
C779 H797 0.929 . S
C780 C777 1.424 . S
C780 C779 1.384 . S
C780 H798 0.928 . S
C781 C778 1.260 . S
C781 C779 1.479 . S
C782 C777 1.245 . S
C782 C778 1.477 . S
C782 H799 0.932 . S
C783 U766 2.882 . S
C783 C777 1.428 . S
C783 O786 1.301 . S
C783 O787 1.282 . S
O784 U766 2.441 . S
O784 C770 1.249 . S
O785 U766 2.420 . S
O785 C770 1.202 . S
O786 U766 2.455 . S
O786 C783 1.301 . S
O787 U766 2.449 . S
O787 C783 1.282 . S
H788 C761 0.931 . S
H789 C763 0.929 . S
H790 C764 0.921 1_554 S
H791 C765 0.931 . S
H792 C772 0.932 . S
H793 C773 0.930 . S
H794 C774 0.930 . S
H795 C776 0.929 . S
H796 C778 0.932 . S
H797 C779 0.929 . S
H798 C780 0.928 . S
H799 C782 0.932 . S
C800 C801 1.264 . S
C800 C805 1.479 . S
C800 C810 1.465 . S
C801 C800 1.264 . S
C801 C803 1.339 . S
C801 H828 0.931 . S
C802 C803 1.395 . S
C802 C804 1.320 . S
C803 C801 1.339 . S
C803 C802 1.395 . S
C803 H829 0.929 . S
C804 C802 1.320 . S
C804 C805 1.405 . S
C804 H830 0.930 . S
C805 C800 1.479 . S
C805 C804 1.405 . S
C805 H831 0.931 . S
U806 O807 2.454 . S
U806 O808 2.458 . S
U806 C809 2.984 . S
U806 C810 2.847 . S
U806 C823 2.882 . S
U806 O824 2.441 . S
U806 O825 2.420 . S
U806 O826 2.455 . S
U806 O827 2.449 . S
O807 U806 2.454 . S
O807 C809 1.353 . S
O808 U806 2.458 . S
O808 C809 1.286 . S
C809 U806 2.984 . S
C809 O807 1.353 . S
C809 O808 1.286 . S
C809 C811 1.363 . S
C810 C800 1.465 . S
C810 U806 2.847 . S
C810 O824 1.249 . S
C810 O825 1.202 . S
C811 C809 1.363 . S
C811 C813 1.408 . S
C811 C816 1.342 . S
C812 C813 1.310 . S
C812 C815 1.461 . S
C812 H832 0.932 . S
C813 C811 1.408 . S
C813 C812 1.310 . S
C813 H833 0.930 . S
C814 C815 1.474 . S
C814 C816 1.285 . S
C814 H834 0.929 . S
C815 C812 1.461 . S
C815 C814 1.474 . S
C816 C811 1.342 . S
C816 C814 1.285 . S
C816 H835 0.930 . S
C817 C820 1.424 . S
C817 C822 1.245 . S
C817 C823 1.428 . S
C818 C821 1.260 . S
C818 C822 1.477 . S
C818 H836 0.932 . S
C819 C820 1.384 . S
C819 C821 1.479 . S
C819 H837 0.929 . S
C820 C817 1.424 . S
C820 C819 1.384 . S
C820 H838 0.928 . S
C821 C818 1.260 . S
C821 C819 1.479 . S
C822 C817 1.245 . S
C822 C818 1.477 . S
C822 H839 0.932 . S
C823 U806 2.882 . S
C823 C817 1.428 . S
C823 O826 1.301 . S
C823 O827 1.282 . S
O824 U806 2.441 . S
O824 C810 1.249 . S
O825 U806 2.420 . S
O825 C810 1.202 . S
O826 U806 2.455 . S
O826 C823 1.301 . S
O827 U806 2.449 . S
O827 C823 1.282 . S
H828 C801 0.931 . S
H829 C803 0.929 . S
H830 C804 0.930 . S
H831 C805 0.931 . S
H832 C812 0.932 . S
H833 C813 0.930 . S
H834 C814 0.929 . S
H835 C816 0.930 . S
H836 C818 0.932 . S
H837 C819 0.929 . S
H838 C820 0.928 . S
H839 C822 0.932 . S
C840 C841 1.267 . S
C840 C845 1.465 1_455 S
C840 C850 1.482 . S
C841 C840 1.267 . S
C841 C843 1.321 1_455 S
C841 H868 0.931 . S
C842 C843 1.420 . S
C842 C844 1.320 . S
C843 C841 1.321 1_655 S
C843 C842 1.420 . S
C843 H869 0.926 1_655 S
C844 C842 1.320 . S
C844 C845 1.405 . S
C844 H870 0.930 . S
C845 C840 1.465 1_655 S
C845 C844 1.405 . S
C845 H871 0.931 . S
U846 O847 2.454 1_455 S
U846 O848 2.458 . S
U846 C849 2.988 . S
U846 C850 2.847 . S
U846 C863 2.882 . S
U846 O864 2.441 . S
U846 O865 2.420 . S
U846 O866 2.455 . S
U846 O867 2.449 . S
O847 U846 2.454 1_655 S
O847 C849 1.350 1_655 S
O848 U846 2.458 . S
O848 C849 1.290 . S
C849 U846 2.988 . S
C849 O847 1.350 1_455 S
C849 O848 1.290 . S
C849 C851 1.361 1_455 S
C850 C840 1.482 . S
C850 U846 2.847 . S
C850 O864 1.249 . S
C850 O865 1.202 . S
C851 C849 1.361 1_655 S
C851 C853 1.408 . S
C851 C856 1.342 . S
C852 C853 1.310 . S
C852 C855 1.461 . S
C852 H872 0.932 . S
C853 C851 1.408 . S
C853 C852 1.310 . S
C853 H873 0.930 . S
C854 C855 1.474 . S
C854 C856 1.285 . S
C854 H874 0.929 . S
C855 C852 1.461 . S
C855 C854 1.474 . S
C856 C851 1.342 . S
C856 C854 1.285 . S
C856 H875 0.932 . S
C857 C860 1.424 . S
C857 C862 1.245 . S
C857 C863 1.428 . S
C858 C861 1.260 . S
C858 C862 1.477 . S
C858 H876 0.932 . S
C859 C860 1.384 . S
C859 C861 1.479 . S
C859 H877 0.929 . S
C860 C857 1.424 . S
C860 C859 1.384 . S
C860 H878 0.928 . S
C861 C858 1.260 . S
C861 C859 1.479 . S
C862 C857 1.245 . S
C862 C858 1.477 . S
C862 H879 0.932 . S
C863 U846 2.882 . S
C863 C857 1.428 . S
C863 O866 1.301 . S
C863 O867 1.282 . S
O864 U846 2.441 . S
O864 C850 1.249 . S
O865 U846 2.420 . S
O865 C850 1.202 . S
O866 U846 2.455 . S
O866 C863 1.301 . S
O867 U846 2.449 . S
O867 C863 1.282 . S
H868 C841 0.931 . S
H869 C843 0.926 1_455 S
H870 C844 0.930 . S
H871 C845 0.931 . S
H872 C852 0.932 . S
H873 C853 0.930 . S
H874 C854 0.929 . S
H875 C856 0.932 . S
H876 C858 0.932 . S
H877 C859 0.929 . S
H878 C860 0.928 . S
H879 C862 0.932 . S
C880 C881 1.264 . S
C880 C885 1.479 . S
C880 C890 1.465 . S
C881 C880 1.264 . S
C881 C883 1.339 . S
C881 H908 0.931 . S
C882 C883 1.395 . S
C882 C884 1.320 . S
C883 C881 1.339 . S
C883 C882 1.395 . S
C883 H909 0.929 . S
C884 C882 1.320 . S
C884 C885 1.405 . S
C884 H910 0.930 . S
C885 C880 1.479 . S
C885 C884 1.405 . S
C885 H911 0.931 . S
U886 O887 2.454 . S
U886 O888 2.458 . S
U886 C889 2.984 . S
U886 C890 2.847 . S
U886 C903 2.882 . S
U886 O904 2.441 . S
U886 O905 2.420 . S
U886 O906 2.455 . S
U886 O907 2.449 . S
O887 U886 2.454 . S
O887 C889 1.353 . S
O888 U886 2.458 . S
O888 C889 1.286 . S
C889 U886 2.984 . S
C889 O887 1.353 . S
C889 O888 1.286 . S
C889 C891 1.363 . S
C890 C880 1.465 . S
C890 U886 2.847 . S
C890 O904 1.249 . S
C890 O905 1.202 . S
C891 C889 1.363 . S
C891 C893 1.408 . S
C891 C896 1.342 . S
C892 C893 1.310 . S
C892 C895 1.461 . S
C892 H912 0.932 . S
C893 C891 1.408 . S
C893 C892 1.310 . S
C893 H913 0.930 . S
C894 C895 1.474 . S
C894 C896 1.285 . S
C894 H914 0.929 . S
C895 C892 1.461 . S
C895 C894 1.474 . S
C896 C891 1.342 . S
C896 C894 1.285 . S
C896 H915 0.930 . S
C897 C900 1.424 . S
C897 C902 1.245 . S
C897 C903 1.428 . S
C898 C901 1.260 . S
C898 C902 1.477 . S
C898 H916 0.932 . S
C899 C900 1.384 . S
C899 C901 1.479 . S
C899 H917 0.929 . S
C900 C897 1.424 . S
C900 C899 1.384 . S
C900 H918 0.928 . S
C901 C898 1.260 . S
C901 C899 1.479 . S
C902 C897 1.245 . S
C902 C898 1.477 . S
C902 H919 0.932 . S
C903 U886 2.882 . S
C903 C897 1.428 . S
C903 O906 1.301 . S
C903 O907 1.282 . S
O904 U886 2.441 . S
O904 C890 1.249 . S
O905 U886 2.420 . S
O905 C890 1.202 . S
O906 U886 2.455 . S
O906 C903 1.301 . S
O907 U886 2.449 . S
O907 C903 1.282 . S
H908 C881 0.931 . S
H909 C883 0.929 . S
H910 C884 0.930 . S
H911 C885 0.931 . S
H912 C892 0.932 . S
H913 C893 0.930 . S
H914 C894 0.929 . S
H915 C896 0.930 . S
H916 C898 0.932 . S
H917 C899 0.929 . S
H918 C900 0.928 . S
H919 C902 0.932 . S
C920 C921 1.264 . S
C920 C925 1.479 . S
C920 C930 1.465 . S
C921 C920 1.264 . S
C921 C923 1.339 . S
C921 H948 0.931 . S
C922 C923 1.395 . S
C922 C924 1.320 . S
C923 C921 1.339 . S
C923 C922 1.395 . S
C923 H949 0.929 . S
C924 C922 1.320 . S
C924 C925 1.405 . S
C924 H950 0.921 1_655 S
C925 C920 1.479 . S
C925 C924 1.405 . S
C925 H951 0.931 . S
U926 O927 2.454 . S
U926 O928 2.458 . S
U926 C929 2.984 . S
U926 C930 2.847 . S
U926 C943 2.882 . S
U926 O944 2.441 . S
U926 O945 2.420 . S
U926 O946 2.455 . S
U926 O947 2.449 . S
O927 U926 2.454 . S
O927 C929 1.353 . S
O928 U926 2.458 . S
O928 C929 1.286 . S
C929 U926 2.984 . S
C929 O927 1.353 . S
C929 O928 1.286 . S
C929 C931 1.363 . S
C930 C920 1.465 . S
C930 U926 2.847 . S
C930 O944 1.249 . S
C930 O945 1.202 . S
C931 C929 1.363 . S
C931 C933 1.408 . S
C931 C936 1.342 . S
C932 C933 1.310 . S
C932 C935 1.460 . S
C932 H952 0.932 . S
C933 C931 1.408 . S
C933 C932 1.310 . S
C933 H953 0.930 . S
C934 C935 1.475 1_455 S
C934 C936 1.286 1_455 S
C934 H954 0.930 . S
C935 C932 1.460 . S
C935 C934 1.475 1_655 S
C936 C931 1.342 . S
C936 C934 1.286 1_655 S
C936 H955 0.929 . S
C937 C940 1.424 . S
C937 C942 1.245 . S
C937 C943 1.428 . S
C938 C941 1.260 . S
C938 C942 1.477 . S
C938 H956 0.932 . S
C939 C940 1.384 . S
C939 C941 1.479 . S
C939 H957 0.929 . S
C940 C937 1.424 . S
C940 C939 1.384 . S
C940 H958 0.928 . S
C941 C938 1.260 . S
C941 C939 1.479 . S
C942 C937 1.245 . S
C942 C938 1.477 . S
C942 H959 0.932 . S
C943 U926 2.882 . S
C943 C937 1.428 . S
C943 O946 1.301 . S
C943 O947 1.282 . S
O944 U926 2.441 . S
O944 C930 1.249 . S
O945 U926 2.420 . S
O945 C930 1.202 . S
O946 U926 2.455 . S
O946 C943 1.301 . S
O947 U926 2.449 . S
O947 C943 1.282 . S
H948 C921 0.931 . S
H949 C923 0.929 . S
H950 C924 0.921 1_455 S
H951 C925 0.931 . S
H952 C932 0.932 . S
H953 C933 0.930 . S
H954 C934 0.930 . S
H955 C936 0.929 . S
H956 C938 0.932 . S
H957 C939 0.929 . S
H958 C940 0.928 . S
H959 C942 0.932 . S
H960 C963 0.929 . S
H961 C966 0.929 . S
H962 C968 0.930 . S
C963 H960 0.929 . S
C963 C964 1.398 . S
C963 C965 1.396 . S
C964 C963 1.398 . S
C964 C968 1.407 . S
C965 C963 1.396 . S
C965 C966 1.394 . S
C966 H961 0.929 . S
C966 C965 1.394 . S
C966 C967 1.382 . S
C967 C966 1.382 . S
C967 C968 1.392 . S
C967 N969 1.420 . S
C968 H962 0.930 . S
C968 C964 1.407 . S
C968 C967 1.392 . S
N969 C967 1.420 . S
N969 C970 1.244 . S
C970 N969 1.244 . S
H971 C974 0.929 . S
H972 C977 0.929 . S
H973 C979 0.930 . S
C974 H971 0.929 . S
C974 C975 1.398 1_556 S
C974 C976 1.396 . S
C975 C974 1.398 1_554 S
C975 C979 1.407 . S
C976 C974 1.396 . S
C976 C977 1.394 . S
C977 H972 0.929 . S
C977 C976 1.394 . S
C977 C978 1.382 1_556 S
C978 C977 1.382 1_554 S
C978 C979 1.392 . S
C978 N980 1.420 . S
C979 H973 0.930 . S
C979 C975 1.407 . S
C979 C978 1.392 . S
N980 C978 1.420 . S
N980 C981 1.244 . S
C981 N980 1.244 . S
H982 C985 0.929 . S
H983 C988 0.929 . S
H984 C990 0.930 . S
C985 H982 0.929 . S
C985 C986 1.398 . S
C985 C987 1.396 . S
C986 C985 1.398 . S
C986 C990 1.407 . S
C987 C985 1.396 . S
C987 C988 1.394 1_565 S
C988 H983 0.929 . S
C988 C987 1.394 1_545 S
C988 C989 1.382 . S
C989 C988 1.382 . S
C989 C990 1.392 1_545 S
C989 N991 1.420 . S
C990 H984 0.930 . S
C990 C986 1.407 . S
C990 C989 1.392 1_565 S
N991 C989 1.420 . S
N991 C992 1.244 . S
C992 N991 1.244 . S
H993 C996 0.929 . S
H994 C999 0.929 . S
H995 C1001 0.930 . S
C996 H993 0.929 . S
C996 C997 1.398 1_554 S
C996 C998 1.396 . S
C997 C996 1.398 1_556 S
C997 C1001 1.407 . S
C998 C996 1.396 . S
C998 C999 1.394 . S
C999 H994 0.929 . S
C999 C998 1.394 . S
C999 C1000 1.382 1_554 S
C1000 C999 1.382 1_556 S
C1000 C1001 1.392 . S
C1000 N1002 1.420 . S
C1001 H995 0.930 . S
C1001 C997 1.407 . S
C1001 C1000 1.392 . S
N1002 C1000 1.420 . S
N1002 C1003 1.244 . S
C1003 N1002 1.244 . S
H1004 C1007 0.929 . S
H1005 C1010 0.929 . S
H1006 C1012 0.930 . S
C1007 H1004 0.929 . S
C1007 C1008 1.398 . S
C1007 C1009 1.396 . S
C1008 C1007 1.398 . S
C1008 C1012 1.407 . S
C1009 C1007 1.396 . S
C1009 C1010 1.394 . S
C1010 H1005 0.929 . S
C1010 C1009 1.394 . S
C1010 C1011 1.382 . S
C1011 C1010 1.382 . S
C1011 C1012 1.392 . S
C1011 N1013 1.420 . S
C1012 H1006 0.930 . S
C1012 C1008 1.407 . S
C1012 C1011 1.392 . S
N1013 C1011 1.420 . S
N1013 C1014 1.244 . S
C1014 N1013 1.244 . S
H1015 C1018 0.929 . S
H1016 C1021 0.929 . S
H1017 C1023 0.930 . S
C1018 H1015 0.929 . S
C1018 C1019 1.398 1_455 S
C1018 C1020 1.396 . S
C1019 C1018 1.398 1_655 S
C1019 C1023 1.407 . S
C1020 C1018 1.396 . S
C1020 C1021 1.394 . S
C1021 H1016 0.929 . S
C1021 C1020 1.394 . S
C1021 C1022 1.382 1_455 S
C1022 C1021 1.382 1_655 S
C1022 C1023 1.392 . S
C1022 N1024 1.420 . S
C1023 H1017 0.930 . S
C1023 C1019 1.407 . S
C1023 C1022 1.392 . S
N1024 C1022 1.420 . S
N1024 C1025 1.244 . S
C1025 N1024 1.244 . S
H1026 C1029 0.929 . S
H1027 C1032 0.929 . S
H1028 C1034 0.930 . S
C1029 H1026 0.929 . S
C1029 C1030 1.398 1_655 S
C1029 C1031 1.396 . S
C1030 C1029 1.398 1_455 S
C1030 C1034 1.407 . S
C1031 C1029 1.396 . S
C1031 C1032 1.394 . S
C1032 H1027 0.929 . S
C1032 C1031 1.394 . S
C1032 C1033 1.382 1_655 S
C1033 C1032 1.382 1_455 S
C1033 C1034 1.392 . S
C1033 N1035 1.420 . S
C1034 H1028 0.930 . S
C1034 C1030 1.407 . S
C1034 C1033 1.392 . S
N1035 C1033 1.420 . S
N1035 C1036 1.244 . S
C1036 N1035 1.244 . S
H1037 C1040 0.929 . S
H1038 C1043 0.929 . S
H1039 C1045 0.930 . S
C1040 H1037 0.929 . S
C1040 C1041 1.398 . S
C1040 C1042 1.396 . S
C1041 C1040 1.398 . S
C1041 C1045 1.407 . S
C1042 C1040 1.396 . S
C1042 C1043 1.394 1_556 S
C1043 H1038 0.929 . S
C1043 C1042 1.394 1_554 S
C1043 C1044 1.382 . S
C1044 C1043 1.382 . S
C1044 C1045 1.392 1_554 S
C1044 N1046 1.420 . S
C1045 H1039 0.930 . S
C1045 C1041 1.407 . S
C1045 C1044 1.392 1_556 S
N1046 C1044 1.420 . S
N1046 C1047 1.244 . S
C1047 N1046 1.244 . S
H1048 C1051 0.929 . S
H1049 C1054 0.929 . S
H1050 C1056 0.930 . S
C1051 H1048 0.929 . S
C1051 C1052 1.398 . S
C1051 C1053 1.396 . S
C1052 C1051 1.398 . S
C1052 C1056 1.407 . S
C1053 C1051 1.396 . S
C1053 C1054 1.394 . S
C1054 H1049 0.929 . S
C1054 C1053 1.394 . S
C1054 C1055 1.382 . S
C1055 C1054 1.382 . S
C1055 C1056 1.392 . S
C1055 N1057 1.420 . S
C1056 H1050 0.930 . S
C1056 C1052 1.407 . S
C1056 C1055 1.392 . S
N1057 C1055 1.420 . S
N1057 C1058 1.244 . S
C1058 N1057 1.244 . S
H1059 C1062 0.929 . S
H1060 C1065 0.929 . S
H1061 C1067 0.930 . S
C1062 H1059 0.929 . S
C1062 C1063 1.398 1_545 S
C1062 C1064 1.396 . S
C1063 C1062 1.398 1_565 S
C1063 C1067 1.407 . S
C1064 C1062 1.396 . S
C1064 C1065 1.394 . S
C1065 H1060 0.929 . S
C1065 C1064 1.394 . S
C1065 C1066 1.382 1_545 S
C1066 C1065 1.382 1_565 S
C1066 C1067 1.392 . S
C1066 N1068 1.420 . S
C1067 H1061 0.930 . S
C1067 C1063 1.407 . S
C1067 C1066 1.392 . S
N1068 C1066 1.420 . S
N1068 C1069 1.244 . S
C1069 N1068 1.244 . S
H1070 C1073 0.929 . S
H1071 C1076 0.929 . S
H1072 C1078 0.930 . S
C1073 H1070 0.929 . S
C1073 C1074 1.398 1_565 S
C1073 C1075 1.396 . S
C1074 C1073 1.398 1_545 S
C1074 C1078 1.407 . S
C1075 C1073 1.396 . S
C1075 C1076 1.394 . S
C1076 H1071 0.929 . S
C1076 C1075 1.394 . S
C1076 C1077 1.382 1_565 S
C1077 C1076 1.382 1_545 S
C1077 C1078 1.392 . S
C1077 N1079 1.420 . S
C1078 H1072 0.930 . S
C1078 C1074 1.407 . S
C1078 C1077 1.392 . S
N1079 C1077 1.420 . S
N1079 C1080 1.244 . S
C1080 N1079 1.244 . S
H1081 C1084 0.929 . S
H1082 C1087 0.929 . S
H1083 C1089 0.930 . S
C1084 H1081 0.929 . S
C1084 C1085 1.398 . S
C1084 C1086 1.396 . S
C1085 C1084 1.398 . S
C1085 C1089 1.407 . S
C1086 C1084 1.396 . S
C1086 C1087 1.394 1_655 S
C1087 H1082 0.929 . S
C1087 C1086 1.394 1_455 S
C1087 C1088 1.382 . S
C1088 C1087 1.382 . S
C1088 C1089 1.392 1_455 S
C1088 N1090 1.420 . S
C1089 H1083 0.930 . S
C1089 C1085 1.407 . S
C1089 C1088 1.392 1_655 S
N1090 C1088 1.420 . S
N1090 C1091 1.244 . S
C1091 N1090 1.244 . S
H1092 C1095 0.929 . S
H1093 C1098 0.929 . S
H1094 C1100 0.930 . S
C1095 H1092 0.929 . S
C1095 C1096 1.398 . S
C1095 C1097 1.396 . S
C1096 C1095 1.398 . S
C1096 C1100 1.407 . S
C1097 C1095 1.396 . S
C1097 C1098 1.394 . S
C1098 H1093 0.929 . S
C1098 C1097 1.394 . S
C1098 C1099 1.382 . S
C1099 C1098 1.382 . S
C1099 C1100 1.392 . S
C1099 N1101 1.420 . S
C1100 H1094 0.930 . S
C1100 C1096 1.407 . S
C1100 C1099 1.392 . S
N1101 C1099 1.420 . S
N1101 C1102 1.244 . S
C1102 N1101 1.244 . S
H1103 C1106 0.929 . S
H1104 C1109 0.929 . S
H1105 C1111 0.930 . S
C1106 H1103 0.929 . S
C1106 C1107 1.398 1_554 S
C1106 C1108 1.396 . S
C1107 C1106 1.398 1_556 S
C1107 C1111 1.407 . S
C1108 C1106 1.396 . S
C1108 C1109 1.394 . S
C1109 H1104 0.929 . S
C1109 C1108 1.394 . S
C1109 C1110 1.382 1_554 S
C1110 C1109 1.382 1_556 S
C1110 C1111 1.392 . S
C1110 N1112 1.420 . S
C1111 H1105 0.930 . S
C1111 C1107 1.407 . S
C1111 C1110 1.392 . S
N1112 C1110 1.420 . S
N1112 C1113 1.244 . S
C1113 N1112 1.244 . S
H1114 C1117 0.929 . S
H1115 C1120 0.929 . S
H1116 C1122 0.930 . S
C1117 H1114 0.929 . S
C1117 C1118 1.398 . S
C1117 C1119 1.396 . S
C1118 C1117 1.398 . S
C1118 C1122 1.407 . S
C1119 C1117 1.396 . S
C1119 C1120 1.394 1_545 S
C1120 H1115 0.929 . S
C1120 C1119 1.394 1_565 S
C1120 C1121 1.382 . S
C1121 C1120 1.382 . S
C1121 C1122 1.392 1_565 S
C1121 N1123 1.420 . S
C1122 H1116 0.930 . S
C1122 C1118 1.407 . S
C1122 C1121 1.392 1_545 S
N1123 C1121 1.420 . S
N1123 C1124 1.244 . S
C1124 N1123 1.244 . S
H1125 C1128 0.929 . S
H1126 C1131 0.929 . S
H1127 C1133 0.930 . S
C1128 H1125 0.929 . S
C1128 C1129 1.398 1_556 S
C1128 C1130 1.396 . S
C1129 C1128 1.398 1_554 S
C1129 C1133 1.407 . S
C1130 C1128 1.396 . S
C1130 C1131 1.394 . S
C1131 H1126 0.929 . S
C1131 C1130 1.394 . S
C1131 C1132 1.382 1_556 S
C1132 C1131 1.382 1_554 S
C1132 C1133 1.392 . S
C1132 N1134 1.420 . S
C1133 H1127 0.930 . S
C1133 C1129 1.407 . S
C1133 C1132 1.392 . S
N1134 C1132 1.420 . S
N1134 C1135 1.244 . S
C1135 N1134 1.244 . S
H1136 C1139 0.929 . S
H1137 C1142 0.929 . S
H1138 C1144 0.930 . S
C1139 H1136 0.929 . S
C1139 C1140 1.398 . S
C1139 C1141 1.396 . S
C1140 C1139 1.398 . S
C1140 C1144 1.407 . S
C1141 C1139 1.396 . S
C1141 C1142 1.394 . S
C1142 H1137 0.929 . S
C1142 C1141 1.394 . S
C1142 C1143 1.382 . S
C1143 C1142 1.382 . S
C1143 C1144 1.392 . S
C1143 N1145 1.420 . S
C1144 H1138 0.930 . S
C1144 C1140 1.407 . S
C1144 C1143 1.392 . S
N1145 C1143 1.420 . S
N1145 C1146 1.244 . S
C1146 N1145 1.244 . S
H1147 C1150 0.929 . S
H1148 C1153 0.929 . S
H1149 C1155 0.930 . S
C1150 H1147 0.929 . S
C1150 C1151 1.398 1_655 S
C1150 C1152 1.396 . S
C1151 C1150 1.398 1_455 S
C1151 C1155 1.407 . S
C1152 C1150 1.396 . S
C1152 C1153 1.394 . S
C1153 H1148 0.929 . S
C1153 C1152 1.394 . S
C1153 C1154 1.382 1_655 S
C1154 C1153 1.382 1_455 S
C1154 C1155 1.392 . S
C1154 N1156 1.420 . S
C1155 H1149 0.930 . S
C1155 C1151 1.407 . S
C1155 C1154 1.392 . S
N1156 C1154 1.420 . S
N1156 C1157 1.244 . S
C1157 N1156 1.244 . S
H1158 C1161 0.929 . S
H1159 C1164 0.929 . S
H1160 C1166 0.930 . S
C1161 H1158 0.929 . S
C1161 C1162 1.398 1_455 S
C1161 C1163 1.396 . S
C1162 C1161 1.398 1_655 S
C1162 C1166 1.407 . S
C1163 C1161 1.396 . S
C1163 C1164 1.394 . S
C1164 H1159 0.929 . S
C1164 C1163 1.394 . S
C1164 C1165 1.382 1_455 S
C1165 C1164 1.382 1_655 S
C1165 C1166 1.392 . S
C1165 N1167 1.420 . S
C1166 H1160 0.930 . S
C1166 C1162 1.407 . S
C1166 C1165 1.392 . S
N1167 C1165 1.420 . S
N1167 C1168 1.244 . S
C1168 N1167 1.244 . S
H1169 C1172 0.929 . S
H1170 C1175 0.929 . S
H1171 C1177 0.930 . S
C1172 H1169 0.929 . S
C1172 C1173 1.398 . S
C1172 C1174 1.396 . S
C1173 C1172 1.398 . S
C1173 C1177 1.407 . S
C1174 C1172 1.396 . S
C1174 C1175 1.394 1_554 S
C1175 H1170 0.929 . S
C1175 C1174 1.394 1_556 S
C1175 C1176 1.382 . S
C1176 C1175 1.382 . S
C1176 C1177 1.392 1_556 S
C1176 N1178 1.420 . S
C1177 H1171 0.930 . S
C1177 C1173 1.407 . S
C1177 C1176 1.392 1_554 S
N1178 C1176 1.420 . S
N1178 C1179 1.244 . S
C1179 N1178 1.244 . S
H1180 C1183 0.929 . S
H1181 C1186 0.929 . S
H1182 C1188 0.930 . S
C1183 H1180 0.929 . S
C1183 C1184 1.398 . S
C1183 C1185 1.396 . S
C1184 C1183 1.398 . S
C1184 C1188 1.407 . S
C1185 C1183 1.396 . S
C1185 C1186 1.394 . S
C1186 H1181 0.929 . S
C1186 C1185 1.394 . S
C1186 C1187 1.382 . S
C1187 C1186 1.382 . S
C1187 C1188 1.392 . S
C1187 N1189 1.420 . S
C1188 H1182 0.930 . S
C1188 C1184 1.407 . S
C1188 C1187 1.392 . S
N1189 C1187 1.420 . S
N1189 C1190 1.244 . S
C1190 N1189 1.244 . S
H1191 C1194 0.929 . S
H1192 C1197 0.929 . S
H1193 C1199 0.930 . S
C1194 H1191 0.929 . S
C1194 C1195 1.398 1_565 S
C1194 C1196 1.396 . S
C1195 C1194 1.398 1_545 S
C1195 C1199 1.407 . S
C1196 C1194 1.396 . S
C1196 C1197 1.394 . S
C1197 H1192 0.929 . S
C1197 C1196 1.394 . S
C1197 C1198 1.382 1_565 S
C1198 C1197 1.382 1_545 S
C1198 C1199 1.392 . S
C1198 N1200 1.420 . S
C1199 H1193 0.930 . S
C1199 C1195 1.407 . S
C1199 C1198 1.392 . S
N1200 C1198 1.420 . S
N1200 C1201 1.244 . S
C1201 N1200 1.244 . S
H1202 C1205 0.929 . S
H1203 C1208 0.929 . S
H1204 C1210 0.930 . S
C1205 H1202 0.929 . S
C1205 C1206 1.398 1_545 S
C1205 C1207 1.396 . S
C1206 C1205 1.398 1_565 S
C1206 C1210 1.407 . S
C1207 C1205 1.396 . S
C1207 C1208 1.394 . S
C1208 H1203 0.929 . S
C1208 C1207 1.394 . S
C1208 C1209 1.382 1_545 S
C1209 C1208 1.382 1_565 S
C1209 C1210 1.392 . S
C1209 N1211 1.420 . S
C1210 H1204 0.930 . S
C1210 C1206 1.407 . S
C1210 C1209 1.392 . S
N1211 C1209 1.420 . S
N1211 C1212 1.244 . S
C1212 N1211 1.244 . S
H1213 C1216 0.929 . S
H1214 C1219 0.929 . S
H1215 C1221 0.930 . S
C1216 H1213 0.929 . S
C1216 C1217 1.398 . S
C1216 C1218 1.396 . S
C1217 C1216 1.398 . S
C1217 C1221 1.407 . S
C1218 C1216 1.396 . S
C1218 C1219 1.394 1_455 S
C1219 H1214 0.929 . S
C1219 C1218 1.394 1_655 S
C1219 C1220 1.382 . S
C1220 C1219 1.382 . S
C1220 C1221 1.392 1_655 S
C1220 N1222 1.420 . S
C1221 H1215 0.930 . S
C1221 C1217 1.407 . S
C1221 C1220 1.392 1_455 S
N1222 C1220 1.420 . S
N1222 C1223 1.244 . S
C1223 N1222 1.244 . S
H1224 C1242 0.951 . S
H1225 C1244 0.951 . S
H1226 C1246 0.950 . S
H1227 C1247 0.950 . S
H1228 C1249 0.950 . S
H1229 C1252 0.950 . S
H1230 C1253 0.950 . S
H1231 C1255 0.950 . S
H1232 C1256 0.950 . S
H1233 C1257 0.951 . S
H1234 C1259 0.951 . S
H1235 C1261 0.950 . S
H1236 C1262 0.950 . S
H1237 C1264 0.950 . S
H1238 C1267 0.950 . S
H1239 C1268 0.950 . S
H1240 C1270 0.950 . S
H1241 C1271 0.950 . S
C1242 H1224 0.951 . S
C1242 C1243 1.366 . S
C1242 C1244 1.388 . S
C1243 C1242 1.366 . S
C1243 C1247 1.385 . S
C1244 H1225 0.951 . S
C1244 C1242 1.388 . S
C1244 C1245 1.366 . S
C1245 C1244 1.366 . S
C1245 C1246 1.414 . S
C1245 C1248 1.499 . S
C1246 H1226 0.950 . S
C1246 C1245 1.414 . S
C1246 C1247 1.374 . S
C1247 H1227 0.950 . S
C1247 C1243 1.385 . S
C1247 C1246 1.374 . S
C1248 C1245 1.499 . S
C1248 C1249 1.373 . S
C1248 C1250 1.389 . S
C1249 H1228 0.950 . S
C1249 C1248 1.373 . S
C1249 C1265 1.377 . S
C1250 C1248 1.389 . S
C1250 C1251 1.524 . S
C1250 C1264 1.377 . S
C1251 C1250 1.524 . S
C1251 C1252 1.397 . S
C1251 C1256 1.363 . S
C1252 H1229 0.950 . S
C1252 C1251 1.397 . S
C1252 C1253 1.334 . S
C1253 H1230 0.950 . S
C1253 C1252 1.334 . S
C1253 C1254 1.287 . S
C1254 C1253 1.287 . S
C1254 C1255 1.524 . S
C1254 H1273 0.913 . S
C1255 H1231 0.950 . S
C1255 C1254 1.524 . S
C1255 C1256 1.415 . S
C1256 H1232 0.950 . S
C1256 C1251 1.363 . S
C1256 C1255 1.415 . S
C1257 H1233 0.951 . S
C1257 C1258 1.366 . S
C1257 C1259 1.388 . S
C1258 C1257 1.366 . S
C1258 C1262 1.385 . S
C1259 H1234 0.951 . S
C1259 C1257 1.388 . S
C1259 C1260 1.366 . S
C1260 C1259 1.366 . S
C1260 C1261 1.414 . S
C1260 C1263 1.499 . S
C1261 H1235 0.950 . S
C1261 C1260 1.414 . S
C1261 C1262 1.374 . S
C1262 H1236 0.950 . S
C1262 C1258 1.385 . S
C1262 C1261 1.374 . S
C1263 C1260 1.499 . S
C1263 C1264 1.373 . S
C1263 C1265 1.389 . S
C1264 H1237 0.950 . S
C1264 C1250 1.377 . S
C1264 C1263 1.373 . S
C1265 C1249 1.377 . S
C1265 C1263 1.389 . S
C1265 C1266 1.524 . S
C1266 C1265 1.524 . S
C1266 C1267 1.397 . S
C1266 C1271 1.363 . S
C1267 H1238 0.950 . S
C1267 C1266 1.397 . S
C1267 C1268 1.334 . S
C1268 H1239 0.950 . S
C1268 C1267 1.334 . S
C1268 C1269 1.287 . S
C1269 C1268 1.287 . S
C1269 C1270 1.524 . S
C1269 H1272 0.999 . S
C1270 H1240 0.950 . S
C1270 C1269 1.524 . S
C1270 C1271 1.415 . S
C1271 H1241 0.950 . S
C1271 C1266 1.363 . S
C1271 C1270 1.415 . S
H1272 C1269 0.999 . S
H1273 C1254 0.913 . S
H1274 C1292 0.951 . S
H1275 C1294 0.951 . S
H1276 C1296 0.950 . S
H1277 C1297 0.950 . S
H1278 C1299 0.950 . S
H1279 C1302 0.950 . S
H1280 C1303 0.950 . S
H1281 C1305 0.950 . S
H1282 C1306 0.950 . S
H1283 C1307 0.951 . S
H1284 C1309 0.951 . S
H1285 C1311 0.950 . S
H1286 C1312 0.950 . S
H1287 C1314 0.950 . S
H1288 C1317 0.950 . S
H1289 C1318 0.950 . S
H1290 C1320 0.950 . S
H1291 C1321 0.950 . S
C1292 H1274 0.951 . S
C1292 C1293 1.366 . S
C1292 C1294 1.388 . S
C1293 C1292 1.366 . S
C1293 C1297 1.385 . S
C1294 H1275 0.951 . S
C1294 C1292 1.388 . S
C1294 C1295 1.366 . S
C1295 C1294 1.366 . S
C1295 C1296 1.414 . S
C1295 C1298 1.499 . S
C1296 H1276 0.950 . S
C1296 C1295 1.414 . S
C1296 C1297 1.374 . S
C1297 H1277 0.950 . S
C1297 C1293 1.385 . S
C1297 C1296 1.374 . S
C1298 C1295 1.499 . S
C1298 C1299 1.373 . S
C1298 C1300 1.389 . S
C1299 H1278 0.950 . S
C1299 C1298 1.373 . S
C1299 C1315 1.377 . S
C1300 C1298 1.389 . S
C1300 C1301 1.524 . S
C1300 C1314 1.377 . S
C1301 C1300 1.524 . S
C1301 C1302 1.397 . S
C1301 C1306 1.363 . S
C1302 H1279 0.950 . S
C1302 C1301 1.397 . S
C1302 C1303 1.334 . S
C1303 H1280 0.950 . S
C1303 C1302 1.334 . S
C1303 C1304 1.287 . S
C1304 C1303 1.287 . S
C1304 C1305 1.524 . S
C1304 H1323 0.913 . S
C1305 H1281 0.950 . S
C1305 C1304 1.524 . S
C1305 C1306 1.415 . S
C1306 H1282 0.950 . S
C1306 C1301 1.363 . S
C1306 C1305 1.415 . S
C1307 H1283 0.951 . S
C1307 C1308 1.366 . S
C1307 C1309 1.388 . S
C1308 C1307 1.366 . S
C1308 C1312 1.385 . S
C1309 H1284 0.951 . S
C1309 C1307 1.388 . S
C1309 C1310 1.366 . S
C1310 C1309 1.366 . S
C1310 C1311 1.414 . S
C1310 C1313 1.499 . S
C1311 H1285 0.950 . S
C1311 C1310 1.414 . S
C1311 C1312 1.374 . S
C1312 H1286 0.950 . S
C1312 C1308 1.385 . S
C1312 C1311 1.374 . S
C1313 C1310 1.499 . S
C1313 C1314 1.373 . S
C1313 C1315 1.389 . S
C1314 H1287 0.950 . S
C1314 C1300 1.377 . S
C1314 C1313 1.373 . S
C1315 C1299 1.377 . S
C1315 C1313 1.389 . S
C1315 C1316 1.524 . S
C1316 C1315 1.524 . S
C1316 C1317 1.397 . S
C1316 C1321 1.363 . S
C1317 H1288 0.950 . S
C1317 C1316 1.397 . S
C1317 C1318 1.334 . S
C1318 H1289 0.950 . S
C1318 C1317 1.334 . S
C1318 C1319 1.287 . S
C1319 C1318 1.287 . S
C1319 C1320 1.524 . S
C1319 H1322 0.999 . S
C1320 H1290 0.950 . S
C1320 C1319 1.524 . S
C1320 C1321 1.415 . S
C1321 H1291 0.950 . S
C1321 C1316 1.363 . S
C1321 C1320 1.415 . S
H1322 C1319 0.999 . S
H1323 C1304 0.913 . S
H1324 C1342 0.951 . S
H1325 C1344 0.951 . S
H1326 C1346 0.950 . S
H1327 C1347 0.950 . S
H1328 C1349 0.950 . S
H1329 C1352 0.950 . S
H1330 C1353 0.950 . S
H1331 C1355 0.950 . S
H1332 C1356 0.950 . S
H1333 C1357 0.951 1_545 S
H1334 C1359 0.945 . S
H1335 C1361 0.950 . S
H1336 C1362 0.950 . S
H1337 C1364 0.950 . S
H1338 C1367 0.950 . S
H1339 C1368 0.950 . S
H1340 C1370 0.950 . S
H1341 C1371 0.950 . S
C1342 H1324 0.951 . S
C1342 C1343 1.352 1_565 S
C1342 C1344 1.388 . S
C1343 C1342 1.352 1_545 S
C1343 C1347 1.397 . S
C1344 H1325 0.951 . S
C1344 C1342 1.388 . S
C1344 C1345 1.366 . S
C1345 C1344 1.366 . S
C1345 C1346 1.414 1_565 S
C1345 C1348 1.499 . S
C1346 H1326 0.950 . S
C1346 C1345 1.414 1_545 S
C1346 C1347 1.374 . S
C1347 H1327 0.950 . S
C1347 C1343 1.397 . S
C1347 C1346 1.374 . S
C1348 C1345 1.499 . S
C1348 C1349 1.373 1_565 S
C1348 C1350 1.389 . S
C1349 H1328 0.950 . S
C1349 C1348 1.373 1_545 S
C1349 C1365 1.377 . S
C1350 C1348 1.389 . S
C1350 C1351 1.524 . S
C1350 C1364 1.377 . S
C1351 C1350 1.524 . S
C1351 C1352 1.397 . S
C1351 C1356 1.363 . S
C1352 H1329 0.950 . S
C1352 C1351 1.397 . S
C1352 C1353 1.334 . S
C1353 H1330 0.950 . S
C1353 C1352 1.334 . S
C1353 C1354 1.287 . S
C1354 C1353 1.287 . S
C1354 C1355 1.524 . S
C1354 H1373 0.913 . S
C1355 H1331 0.950 . S
C1355 C1354 1.524 . S
C1355 C1356 1.415 . S
C1356 H1332 0.950 . S
C1356 C1351 1.363 . S
C1356 C1355 1.415 . S
C1357 H1333 0.951 1_565 S
C1357 C1358 1.366 . S
C1357 C1359 1.388 1_565 S
C1358 C1357 1.366 . S
C1358 C1362 1.385 . S
C1359 H1334 0.945 . S
C1359 C1357 1.388 1_545 S
C1359 C1360 1.371 1_545 S
C1360 C1359 1.371 1_565 S
C1360 C1361 1.414 . S
C1360 C1363 1.499 . S
C1361 H1335 0.950 . S
C1361 C1360 1.414 . S
C1361 C1362 1.374 . S
C1362 H1336 0.950 . S
C1362 C1358 1.385 . S
C1362 C1361 1.374 . S
C1363 C1360 1.499 . S
C1363 C1364 1.373 . S
C1363 C1365 1.389 1_565 S
C1364 H1337 0.950 . S
C1364 C1350 1.377 . S
C1364 C1363 1.373 . S
C1365 C1349 1.377 . S
C1365 C1363 1.389 1_545 S
C1365 C1366 1.524 . S
C1366 C1365 1.524 . S
C1366 C1367 1.397 . S
C1366 C1371 1.363 . S
C1367 H1338 0.950 . S
C1367 C1366 1.397 . S
C1367 C1368 1.334 . S
C1368 H1339 0.950 . S
C1368 C1367 1.334 . S
C1368 C1369 1.287 . S
C1369 C1368 1.287 . S
C1369 C1370 1.524 . S
C1369 H1372 0.999 . S
C1370 H1340 0.950 . S
C1370 C1369 1.524 . S
C1370 C1371 1.415 . S
C1371 H1341 0.950 . S
C1371 C1366 1.363 . S
C1371 C1370 1.415 . S
H1372 C1369 0.999 . S
H1373 C1354 0.913 . S
H1374 C1392 0.951 . S
H1375 C1394 0.951 . S
H1376 C1396 0.976 . S
H1377 C1397 0.966 . S
H1378 C1399 0.950 . S
H1379 C1402 0.950 . S
H1380 C1403 0.950 . S
H1381 C1405 0.950 . S
H1382 C1406 0.950 . S
H1383 C1407 0.951 . S
H1384 C1409 0.967 . S
H1385 C1411 0.950 . S
H1386 C1412 0.950 . S
H1387 C1414 0.950 . S
H1388 C1417 0.950 . S
H1389 C1418 0.950 1_455 S
H1390 C1420 0.950 . S
H1391 C1421 0.950 . S
C1392 H1374 0.951 . S
C1392 C1393 1.366 . S
C1392 C1394 1.388 . S
C1393 C1392 1.366 . S
C1393 C1397 1.385 . S
C1394 H1375 0.951 . S
C1394 C1392 1.388 . S
C1394 C1395 1.366 . S
C1395 C1394 1.366 . S
C1395 C1396 1.414 . S
C1395 C1398 1.499 . S
C1396 H1376 0.976 . S
C1396 C1395 1.414 . S
C1396 C1397 1.374 . S
C1397 H1377 0.966 . S
C1397 C1393 1.385 . S
C1397 C1396 1.374 . S
C1398 C1395 1.499 . S
C1398 C1399 1.373 1_545 S
C1398 C1400 1.389 . S
C1399 H1378 0.950 . S
C1399 C1398 1.373 1_565 S
C1399 C1415 1.377 . S
C1400 C1398 1.389 . S
C1400 C1401 1.524 . S
C1400 C1414 1.377 . S
C1401 C1400 1.524 . S
C1401 C1402 1.397 . S
C1401 C1406 1.363 . S
C1402 H1379 0.950 . S
C1402 C1401 1.397 . S
C1402 C1403 1.334 . S
C1403 H1380 0.950 . S
C1403 C1402 1.334 . S
C1403 C1404 1.287 . S
C1404 C1403 1.287 . S
C1404 C1405 1.524 . S
C1404 H1423 0.913 . S
C1405 H1381 0.950 . S
C1405 C1404 1.524 . S
C1405 C1406 1.415 . S
C1406 H1382 0.950 . S
C1406 C1401 1.363 . S
C1406 C1405 1.415 . S
C1407 H1383 0.951 . S
C1407 C1408 1.366 . S
C1407 C1409 1.388 . S
C1408 C1407 1.366 . S
C1408 C1412 1.385 . S
C1409 H1384 0.967 . S
C1409 C1407 1.388 . S
C1409 C1410 1.366 . S
C1410 C1409 1.366 . S
C1410 C1411 1.414 . S
C1410 C1413 1.499 1_455 S
C1411 H1385 0.950 . S
C1411 C1410 1.414 . S
C1411 C1412 1.374 . S
C1412 H1386 0.950 . S
C1412 C1408 1.385 . S
C1412 C1411 1.374 . S
C1413 C1410 1.499 1_655 S
C1413 C1414 1.373 . S
C1413 C1415 1.389 1_545 S
C1414 H1387 0.950 . S
C1414 C1400 1.377 . S
C1414 C1413 1.373 . S
C1415 C1399 1.377 . S
C1415 C1413 1.389 1_565 S
C1415 C1416 1.524 . S
C1416 C1415 1.524 . S
C1416 C1417 1.397 . S
C1416 C1421 1.363 . S
C1417 H1388 0.950 . S
C1417 C1416 1.397 . S
C1417 C1418 1.334 . S
C1418 H1389 0.950 1_655 S
C1418 C1417 1.334 . S
C1418 C1419 1.287 . S
C1419 C1418 1.287 . S
C1419 C1420 1.524 . S
C1419 H1422 0.999 . S
C1420 H1390 0.950 . S
C1420 C1419 1.524 . S
C1420 C1421 1.415 . S
C1421 H1391 0.950 . S
C1421 C1416 1.363 . S
C1421 C1420 1.415 . S
H1422 C1419 0.999 . S
H1423 C1404 0.913 . S
H1424 C1442 0.951 . S
H1425 C1444 0.951 . S
H1426 C1446 0.950 . S
H1427 C1447 0.950 . S
H1428 C1449 0.950 . S
H1429 C1452 0.950 . S
H1430 C1453 0.950 . S
H1431 C1455 0.950 . S
H1432 C1456 0.950 . S
H1433 C1457 0.951 . S
H1434 C1459 0.951 . S
H1435 C1461 0.950 . S
H1436 C1462 0.950 . S
H1437 C1464 0.950 . S
H1438 C1467 0.950 . S
H1439 C1468 0.950 . S
H1440 C1470 0.950 . S
H1441 C1471 0.950 . S
C1442 H1424 0.951 . S
C1442 C1443 1.366 . S
C1442 C1444 1.388 . S
C1443 C1442 1.366 . S
C1443 C1447 1.385 . S
C1444 H1425 0.951 . S
C1444 C1442 1.388 . S
C1444 C1445 1.366 . S
C1445 C1444 1.366 . S
C1445 C1446 1.414 . S
C1445 C1448 1.499 . S
C1446 H1426 0.950 . S
C1446 C1445 1.414 . S
C1446 C1447 1.374 . S
C1447 H1427 0.950 . S
C1447 C1443 1.385 . S
C1447 C1446 1.374 . S
C1448 C1445 1.499 . S
C1448 C1449 1.373 . S
C1448 C1450 1.389 . S
C1449 H1428 0.950 . S
C1449 C1448 1.373 . S
C1449 C1465 1.377 . S
C1450 C1448 1.389 . S
C1450 C1451 1.524 . S
C1450 C1464 1.377 . S
C1451 C1450 1.524 . S
C1451 C1452 1.397 . S
C1451 C1456 1.363 . S
C1452 H1429 0.950 . S
C1452 C1451 1.397 . S
C1452 C1453 1.334 . S
C1453 H1430 0.950 . S
C1453 C1452 1.334 . S
C1453 C1454 1.287 . S
C1454 C1453 1.287 . S
C1454 C1455 1.524 . S
C1454 H1473 0.913 . S
C1455 H1431 0.950 . S
C1455 C1454 1.524 . S
C1455 C1456 1.415 . S
C1456 H1432 0.950 . S
C1456 C1451 1.363 . S
C1456 C1455 1.415 . S
C1457 H1433 0.951 . S
C1457 C1458 1.366 . S
C1457 C1459 1.388 . S
C1458 C1457 1.366 . S
C1458 C1462 1.385 . S
C1459 H1434 0.951 . S
C1459 C1457 1.388 . S
C1459 C1460 1.366 . S
C1460 C1459 1.366 . S
C1460 C1461 1.414 . S
C1460 C1463 1.499 . S
C1461 H1435 0.950 . S
C1461 C1460 1.414 . S
C1461 C1462 1.374 . S
C1462 H1436 0.950 . S
C1462 C1458 1.385 . S
C1462 C1461 1.374 . S
C1463 C1460 1.499 . S
C1463 C1464 1.373 . S
C1463 C1465 1.389 . S
C1464 H1437 0.950 . S
C1464 C1450 1.377 . S
C1464 C1463 1.373 . S
C1465 C1449 1.377 . S
C1465 C1463 1.389 . S
C1465 C1466 1.524 . S
C1466 C1465 1.524 . S
C1466 C1467 1.397 . S
C1466 C1471 1.363 . S
C1467 H1438 0.950 . S
C1467 C1466 1.397 . S
C1467 C1468 1.334 . S
C1468 H1439 0.950 . S
C1468 C1467 1.334 . S
C1468 C1469 1.287 . S
C1469 C1468 1.287 . S
C1469 C1470 1.524 . S
C1469 H1472 0.999 . S
C1470 H1440 0.950 . S
C1470 C1469 1.524 . S
C1470 C1471 1.415 . S
C1471 H1441 0.950 . S
C1471 C1466 1.363 . S
C1471 C1470 1.415 . S
H1472 C1469 0.999 . S
H1473 C1454 0.913 . S
H1474 C1492 0.951 . S
H1475 C1494 0.951 . S
H1476 C1496 0.950 . S
H1477 C1497 0.950 . S
H1478 C1499 0.941 1_556 S
H1479 C1502 0.950 . S
H1480 C1503 0.950 . S
H1481 C1505 0.950 . S
H1482 C1506 0.950 . S
H1483 C1507 0.951 . S
H1484 C1509 0.951 . S
H1485 C1511 0.950 . S
H1486 C1512 0.950 . S
H1487 C1514 0.950 . S
H1488 C1517 0.950 . S
H1489 C1518 0.950 . S
H1490 C1520 0.950 . S
H1491 C1521 0.950 1_554 S
C1492 H1474 0.951 . S
C1492 C1493 1.366 . S
C1492 C1494 1.388 . S
C1493 C1492 1.366 . S
C1493 C1497 1.385 . S
C1494 H1475 0.951 . S
C1494 C1492 1.388 . S
C1494 C1495 1.366 . S
C1495 C1494 1.366 . S
C1495 C1496 1.414 . S
C1495 C1498 1.499 . S
C1496 H1476 0.950 . S
C1496 C1495 1.414 . S
C1496 C1497 1.374 . S
C1497 H1477 0.950 . S
C1497 C1493 1.385 . S
C1497 C1496 1.374 . S
C1498 C1495 1.499 . S
C1498 C1499 1.373 . S
C1498 C1500 1.389 . S
C1499 H1478 0.941 1_554 S
C1499 C1498 1.373 . S
C1499 C1515 1.377 . S
C1500 C1498 1.389 . S
C1500 C1501 1.524 . S
C1500 C1514 1.377 . S
C1501 C1500 1.524 . S
C1501 C1502 1.397 . S
C1501 C1506 1.363 . S
C1502 H1479 0.950 . S
C1502 C1501 1.397 . S
C1502 C1503 1.334 . S
C1503 H1480 0.950 . S
C1503 C1502 1.334 . S
C1503 C1504 1.287 . S
C1504 C1503 1.287 . S
C1504 C1505 1.524 . S
C1504 H1523 0.913 . S
C1505 H1481 0.950 . S
C1505 C1504 1.524 . S
C1505 C1506 1.415 . S
C1506 H1482 0.950 . S
C1506 C1501 1.363 . S
C1506 C1505 1.415 . S
C1507 H1483 0.951 . S
C1507 C1508 1.366 . S
C1507 C1509 1.388 . S
C1508 C1507 1.366 . S
C1508 C1512 1.385 . S
C1509 H1484 0.951 . S
C1509 C1507 1.388 . S
C1509 C1510 1.366 . S
C1510 C1509 1.366 . S
C1510 C1511 1.414 . S
C1510 C1513 1.499 1_545 S
C1511 H1485 0.950 . S
C1511 C1510 1.414 . S
C1511 C1512 1.374 . S
C1512 H1486 0.950 . S
C1512 C1508 1.385 . S
C1512 C1511 1.374 . S
C1513 C1510 1.499 1_565 S
C1513 C1514 1.373 . S
C1513 C1515 1.389 . S
C1514 H1487 0.950 . S
C1514 C1500 1.377 . S
C1514 C1513 1.373 . S
C1515 C1499 1.377 . S
C1515 C1513 1.389 . S
C1515 C1516 1.524 1_554 S
C1516 C1515 1.524 1_556 S
C1516 C1517 1.397 . S
C1516 C1521 1.363 . S
C1517 H1488 0.950 . S
C1517 C1516 1.397 . S
C1517 C1518 1.334 . S
C1518 H1489 0.950 . S
C1518 C1517 1.334 . S
C1518 C1519 1.287 . S
C1519 C1518 1.287 . S
C1519 C1520 1.524 . S
C1519 H1522 0.999 . S
C1520 H1490 0.950 . S
C1520 C1519 1.524 . S
C1520 C1521 1.415 . S
C1521 H1491 0.950 1_556 S
C1521 C1516 1.363 . S
C1521 C1520 1.415 . S
H1522 C1519 0.999 . S
H1523 C1504 0.913 . S
H1524 C1542 0.951 . S
H1525 C1544 0.951 . S
H1526 C1546 0.950 . S
H1527 C1547 0.950 . S
H1528 C1549 0.950 . S
H1529 C1552 0.950 . S
H1530 C1553 0.950 . S
H1531 C1555 0.950 . S
H1532 C1556 0.950 . S
H1533 C1557 0.951 . S
H1534 C1559 0.951 . S
H1535 C1561 0.950 . S
H1536 C1562 0.950 . S
H1537 C1564 0.950 . S
H1538 C1567 0.950 . S
H1539 C1568 0.950 . S
H1540 C1570 0.950 . S
H1541 C1571 0.950 . S
C1542 H1524 0.951 . S
C1542 C1543 1.366 . S
C1542 C1544 1.388 . S
C1543 C1542 1.366 . S
C1543 C1547 1.385 . S
C1544 H1525 0.951 . S
C1544 C1542 1.388 . S
C1544 C1545 1.366 . S
C1545 C1544 1.366 . S
C1545 C1546 1.414 . S
C1545 C1548 1.499 . S
C1546 H1526 0.950 . S
C1546 C1545 1.414 . S
C1546 C1547 1.374 . S
C1547 H1527 0.950 . S
C1547 C1543 1.385 . S
C1547 C1546 1.374 . S
C1548 C1545 1.499 . S
C1548 C1549 1.373 . S
C1548 C1550 1.389 . S
C1549 H1528 0.950 . S
C1549 C1548 1.373 . S
C1549 C1565 1.377 . S
C1550 C1548 1.389 . S
C1550 C1551 1.524 . S
C1550 C1564 1.377 . S
C1551 C1550 1.524 . S
C1551 C1552 1.397 . S
C1551 C1556 1.363 . S
C1552 H1529 0.950 . S
C1552 C1551 1.397 . S
C1552 C1553 1.334 . S
C1553 H1530 0.950 . S
C1553 C1552 1.334 . S
C1553 C1554 1.287 . S
C1554 C1553 1.287 . S
C1554 C1555 1.524 . S
C1554 H1573 0.913 . S
C1555 H1531 0.950 . S
C1555 C1554 1.524 . S
C1555 C1556 1.415 . S
C1556 H1532 0.950 . S
C1556 C1551 1.363 . S
C1556 C1555 1.415 . S
C1557 H1533 0.951 . S
C1557 C1558 1.366 . S
C1557 C1559 1.388 . S
C1558 C1557 1.366 . S
C1558 C1562 1.385 . S
C1559 H1534 0.951 . S
C1559 C1557 1.388 . S
C1559 C1560 1.366 . S
C1560 C1559 1.366 . S
C1560 C1561 1.414 . S
C1560 C1563 1.499 . S
C1561 H1535 0.950 . S
C1561 C1560 1.414 . S
C1561 C1562 1.374 . S
C1562 H1536 0.950 . S
C1562 C1558 1.385 . S
C1562 C1561 1.374 . S
C1563 C1560 1.499 . S
C1563 C1564 1.373 . S
C1563 C1565 1.389 . S
C1564 H1537 0.950 . S
C1564 C1550 1.377 . S
C1564 C1563 1.373 . S
C1565 C1549 1.377 . S
C1565 C1563 1.389 . S
C1565 C1566 1.524 . S
C1566 C1565 1.524 . S
C1566 C1567 1.397 . S
C1566 C1571 1.363 . S
C1567 H1538 0.950 . S
C1567 C1566 1.397 . S
C1567 C1568 1.334 . S
C1568 H1539 0.950 . S
C1568 C1567 1.334 . S
C1568 C1569 1.287 . S
C1569 C1568 1.287 . S
C1569 C1570 1.524 . S
C1569 H1572 0.999 . S
C1570 H1540 0.950 . S
C1570 C1569 1.524 . S
C1570 C1571 1.415 . S
C1571 H1541 0.950 . S
C1571 C1566 1.363 . S
C1571 C1570 1.415 . S
H1572 C1569 0.999 . S
H1573 C1554 0.913 . S
H1574 C1592 0.951 . S
H1575 C1594 0.951 . S
H1576 C1596 0.950 . S
H1577 C1597 0.950 . S
H1578 C1599 0.950 . S
H1579 C1602 0.950 . S
H1580 C1603 0.950 . S
H1581 C1605 0.950 . S
H1582 C1606 0.950 . S
H1583 C1607 0.951 . S
H1584 C1609 0.951 . S
H1585 C1611 0.950 1_554 S
H1586 C1612 0.950 1_554 S
H1587 C1614 0.950 . S
H1588 C1617 0.950 . S
H1589 C1618 0.950 . S
H1590 C1620 0.950 . S
H1591 C1621 0.950 . S
C1592 H1574 0.951 . S
C1592 C1593 1.375 . S
C1592 C1594 1.388 . S
C1593 C1592 1.375 . S
C1593 C1597 1.375 1_554 S
C1594 H1575 0.951 . S
C1594 C1592 1.388 . S
C1594 C1595 1.366 1_554 S
C1595 C1594 1.366 1_556 S
C1595 C1596 1.414 . S
C1595 C1598 1.499 . S
C1596 H1576 0.950 . S
C1596 C1595 1.414 . S
C1596 C1597 1.374 . S
C1597 H1577 0.950 . S
C1597 C1593 1.375 1_556 S
C1597 C1596 1.374 . S
C1598 C1595 1.499 . S
C1598 C1599 1.373 . S
C1598 C1600 1.389 1_556 S
C1599 H1578 0.950 . S
C1599 C1598 1.373 . S
C1599 C1615 1.377 . S
C1600 C1598 1.389 1_554 S
C1600 C1601 1.524 . S
C1600 C1614 1.377 . S
C1601 C1600 1.524 . S
C1601 C1602 1.397 . S
C1601 C1606 1.363 . S
C1602 H1579 0.950 . S
C1602 C1601 1.397 . S
C1602 C1603 1.334 . S
C1603 H1580 0.950 . S
C1603 C1602 1.334 . S
C1603 C1604 1.287 . S
C1604 C1603 1.287 . S
C1604 C1605 1.524 . S
C1604 H1623 0.913 . S
C1605 H1581 0.950 . S
C1605 C1604 1.524 . S
C1605 C1606 1.415 . S
C1606 H1582 0.950 . S
C1606 C1601 1.363 . S
C1606 C1605 1.415 . S
C1607 H1583 0.951 . S
C1607 C1608 1.366 . S
C1607 C1609 1.388 . S
C1608 C1607 1.366 . S
C1608 C1612 1.385 . S
C1609 H1584 0.951 . S
C1609 C1607 1.388 . S
C1609 C1610 1.366 . S
C1610 C1609 1.366 . S
C1610 C1611 1.414 . S
C1610 C1613 1.499 . S
C1611 H1585 0.950 1_556 S
C1611 C1610 1.414 . S
C1611 C1612 1.374 . S
C1612 H1586 0.950 1_556 S
C1612 C1608 1.385 . S
C1612 C1611 1.374 . S
C1613 C1610 1.499 . S
C1613 C1614 1.373 1_556 S
C1613 C1615 1.389 . S
C1614 H1587 0.950 . S
C1614 C1600 1.377 . S
C1614 C1613 1.373 1_554 S
C1615 C1599 1.377 . S
C1615 C1613 1.389 . S
C1615 C1616 1.524 . S
C1616 C1615 1.524 . S
C1616 C1617 1.397 . S
C1616 C1621 1.363 . S
C1617 H1588 0.950 . S
C1617 C1616 1.397 . S
C1617 C1618 1.334 . S
C1618 H1589 0.950 . S
C1618 C1617 1.334 . S
C1618 C1619 1.287 . S
C1619 C1618 1.287 . S
C1619 C1620 1.524 . S
C1619 H1622 0.999 . S
C1620 H1590 0.950 . S
C1620 C1619 1.524 . S
C1620 C1621 1.415 . S
C1621 H1591 0.950 . S
C1621 C1616 1.363 . S
C1621 C1620 1.415 . S
H1622 C1619 0.999 . S
H1623 C1604 0.913 . S
H1624 C1642 0.951 . S
H1625 C1644 0.951 . S
H1626 C1646 0.950 . S
H1627 C1647 0.950 . S
H1628 C1649 0.950 . S
H1629 C1652 0.950 . S
H1630 C1653 0.950 . S
H1631 C1655 0.950 . S
H1632 C1656 0.950 . S
H1633 C1657 0.951 . S
H1634 C1659 0.951 . S
H1635 C1661 0.950 . S
H1636 C1662 0.950 . S
H1637 C1664 0.950 . S
H1638 C1667 0.950 . S
H1639 C1668 0.950 . S
H1640 C1670 0.950 . S
H1641 C1671 0.950 . S
C1642 H1624 0.951 . S
C1642 C1643 1.366 . S
C1642 C1644 1.388 . S
C1643 C1642 1.366 . S
C1643 C1647 1.385 . S
C1644 H1625 0.951 . S
C1644 C1642 1.388 . S
C1644 C1645 1.366 . S
C1645 C1644 1.366 . S
C1645 C1646 1.414 . S
C1645 C1648 1.499 . S
C1646 H1626 0.950 . S
C1646 C1645 1.414 . S
C1646 C1647 1.374 . S
C1647 H1627 0.950 . S
C1647 C1643 1.385 . S
C1647 C1646 1.374 . S
C1648 C1645 1.499 . S
C1648 C1649 1.373 . S
C1648 C1650 1.389 . S
C1649 H1628 0.950 . S
C1649 C1648 1.373 . S
C1649 C1665 1.377 . S
C1650 C1648 1.389 . S
C1650 C1651 1.524 . S
C1650 C1664 1.377 . S
C1651 C1650 1.524 . S
C1651 C1652 1.397 . S
C1651 C1656 1.363 . S
C1652 H1629 0.950 . S
C1652 C1651 1.397 . S
C1652 C1653 1.334 . S
C1653 H1630 0.950 . S
C1653 C1652 1.334 . S
C1653 C1654 1.287 . S
C1654 C1653 1.287 . S
C1654 C1655 1.524 . S
C1654 H1673 0.913 . S
C1655 H1631 0.950 . S
C1655 C1654 1.524 . S
C1655 C1656 1.415 . S
C1656 H1632 0.950 . S
C1656 C1651 1.363 . S
C1656 C1655 1.415 . S
C1657 H1633 0.951 . S
C1657 C1658 1.366 . S
C1657 C1659 1.388 . S
C1658 C1657 1.366 . S
C1658 C1662 1.385 . S
C1659 H1634 0.951 . S
C1659 C1657 1.388 . S
C1659 C1660 1.366 . S
C1660 C1659 1.366 . S
C1660 C1661 1.414 . S
C1660 C1663 1.499 . S
C1661 H1635 0.950 . S
C1661 C1660 1.414 . S
C1661 C1662 1.374 . S
C1662 H1636 0.950 . S
C1662 C1658 1.385 . S
C1662 C1661 1.374 . S
C1663 C1660 1.499 . S
C1663 C1664 1.373 . S
C1663 C1665 1.389 . S
C1664 H1637 0.950 . S
C1664 C1650 1.377 . S
C1664 C1663 1.373 . S
C1665 C1649 1.377 . S
C1665 C1663 1.389 . S
C1665 C1666 1.524 . S
C1666 C1665 1.524 . S
C1666 C1667 1.397 . S
C1666 C1671 1.363 . S
C1667 H1638 0.950 . S
C1667 C1666 1.397 . S
C1667 C1668 1.334 . S
C1668 H1639 0.950 . S
C1668 C1667 1.334 . S
C1668 C1669 1.287 . S
C1669 C1668 1.287 . S
C1669 C1670 1.524 . S
C1669 H1672 0.999 . S
C1670 H1640 0.950 . S
C1670 C1669 1.524 . S
C1670 C1671 1.415 . S
C1671 H1641 0.950 . S
C1671 C1666 1.363 . S
C1671 C1670 1.415 . S
H1672 C1669 0.999 . S
H1673 C1654 0.913 . S
H1674 C1692 0.951 . S
H1675 C1694 0.951 . S
H1676 C1696 0.950 . S
H1677 C1697 0.950 . S
H1678 C1699 0.950 . S
H1679 C1702 0.950 . S
H1680 C1703 0.950 . S
H1681 C1705 0.950 . S
H1682 C1706 0.950 . S
H1683 C1707 0.951 . S
H1684 C1709 0.951 . S
H1685 C1711 0.950 . S
H1686 C1712 0.950 . S
H1687 C1714 0.950 1_655 S
H1688 C1717 0.950 . S
H1689 C1718 0.950 . S
H1690 C1720 0.950 . S
H1691 C1721 0.950 . S
C1692 H1674 0.951 . S
C1692 C1693 1.366 . S
C1692 C1694 1.388 . S
C1693 C1692 1.366 . S
C1693 C1697 1.385 . S
C1694 H1675 0.951 . S
C1694 C1692 1.388 . S
C1694 C1695 1.366 . S
C1695 C1694 1.366 . S
C1695 C1696 1.414 . S
C1695 C1698 1.499 . S
C1696 H1676 0.950 . S
C1696 C1695 1.414 . S
C1696 C1697 1.374 . S
C1697 H1677 0.950 . S
C1697 C1693 1.385 . S
C1697 C1696 1.374 . S
C1698 C1695 1.499 . S
C1698 C1699 1.373 . S
C1698 C1700 1.398 . S
C1699 H1678 0.950 . S
C1699 C1698 1.373 . S
C1699 C1715 1.377 . S
C1700 C1698 1.398 . S
C1700 C1701 1.515 1_455 S
C1700 C1714 1.376 . S
C1701 C1700 1.515 1_655 S
C1701 C1702 1.397 . S
C1701 C1706 1.363 . S
C1702 H1679 0.950 . S
C1702 C1701 1.397 . S
C1702 C1703 1.334 . S
C1703 H1680 0.950 . S
C1703 C1702 1.334 . S
C1703 C1704 1.287 . S
C1704 C1703 1.287 . S
C1704 C1705 1.524 . S
C1704 H1723 0.913 . S
C1705 H1681 0.950 . S
C1705 C1704 1.524 . S
C1705 C1706 1.415 . S
C1706 H1682 0.950 . S
C1706 C1701 1.363 . S
C1706 C1705 1.415 . S
C1707 H1683 0.951 . S
C1707 C1708 1.366 . S
C1707 C1709 1.388 . S
C1708 C1707 1.366 . S
C1708 C1712 1.385 . S
C1709 H1684 0.951 . S
C1709 C1707 1.388 . S
C1709 C1710 1.366 . S
C1710 C1709 1.366 . S
C1710 C1711 1.414 . S
C1710 C1713 1.499 1_554 S
C1711 H1685 0.950 . S
C1711 C1710 1.414 . S
C1711 C1712 1.374 . S
C1712 H1686 0.950 . S
C1712 C1708 1.385 . S
C1712 C1711 1.374 . S
C1713 C1710 1.499 1_556 S
C1713 C1714 1.373 . S
C1713 C1715 1.389 . S
C1714 H1687 0.950 1_455 S
C1714 C1700 1.376 . S
C1714 C1713 1.373 . S
C1715 C1699 1.377 . S
C1715 C1713 1.389 . S
C1715 C1716 1.524 . S
C1716 C1715 1.524 . S
C1716 C1717 1.397 . S
C1716 C1721 1.363 . S
C1717 H1688 0.950 . S
C1717 C1716 1.397 . S
C1717 C1718 1.334 1_556 S
C1718 H1689 0.950 . S
C1718 C1717 1.334 1_554 S
C1718 C1719 1.287 . S
C1719 C1718 1.287 . S
C1719 C1720 1.524 1_554 S
C1719 H1722 0.999 . S
C1720 H1690 0.950 . S
C1720 C1719 1.524 1_556 S
C1720 C1721 1.415 . S
C1721 H1691 0.950 . S
C1721 C1716 1.363 . S
C1721 C1720 1.415 . S
H1722 C1719 0.999 . S
H1723 C1704 0.913 . S
H1724 C1742 0.951 . S
H1725 C1744 0.951 . S
H1726 C1746 0.950 . S
H1727 C1747 0.950 . S
H1728 C1749 0.950 . S
H1729 C1752 0.950 . S
H1730 C1753 0.950 . S
H1731 C1755 0.950 . S
H1732 C1756 0.950 . S
H1733 C1757 0.951 . S
H1734 C1759 0.951 . S
H1735 C1761 0.950 . S
H1736 C1762 0.950 . S
H1737 C1764 0.950 . S
H1738 C1767 0.950 . S
H1739 C1768 0.950 . S
H1740 C1770 0.950 . S
H1741 C1771 0.950 . S
C1742 H1724 0.951 . S
C1742 C1743 1.366 . S
C1742 C1744 1.388 . S
C1743 C1742 1.366 . S
C1743 C1747 1.385 . S
C1744 H1725 0.951 . S
C1744 C1742 1.388 . S
C1744 C1745 1.366 . S
C1745 C1744 1.366 . S
C1745 C1746 1.414 . S
C1745 C1748 1.499 . S
C1746 H1726 0.950 . S
C1746 C1745 1.414 . S
C1746 C1747 1.374 . S
C1747 H1727 0.950 . S
C1747 C1743 1.385 . S
C1747 C1746 1.374 . S
C1748 C1745 1.499 . S
C1748 C1749 1.373 . S
C1748 C1750 1.389 . S
C1749 H1728 0.950 . S
C1749 C1748 1.373 . S
C1749 C1765 1.377 . S
C1750 C1748 1.389 . S
C1750 C1751 1.524 . S
C1750 C1764 1.377 . S
C1751 C1750 1.524 . S
C1751 C1752 1.397 . S
C1751 C1756 1.363 . S
C1752 H1729 0.950 . S
C1752 C1751 1.397 . S
C1752 C1753 1.334 . S
C1753 H1730 0.950 . S
C1753 C1752 1.334 . S
C1753 C1754 1.287 . S
C1754 C1753 1.287 . S
C1754 C1755 1.524 . S
C1754 H1773 0.913 . S
C1755 H1731 0.950 . S
C1755 C1754 1.524 . S
C1755 C1756 1.415 . S
C1756 H1732 0.950 . S
C1756 C1751 1.363 . S
C1756 C1755 1.415 . S
C1757 H1733 0.951 . S
C1757 C1758 1.366 . S
C1757 C1759 1.388 . S
C1758 C1757 1.366 . S
C1758 C1762 1.385 . S
C1759 H1734 0.951 . S
C1759 C1757 1.388 . S
C1759 C1760 1.366 . S
C1760 C1759 1.366 . S
C1760 C1761 1.414 . S
C1760 C1763 1.499 . S
C1761 H1735 0.950 . S
C1761 C1760 1.414 . S
C1761 C1762 1.374 . S
C1762 H1736 0.950 . S
C1762 C1758 1.385 . S
C1762 C1761 1.374 . S
C1763 C1760 1.499 . S
C1763 C1764 1.373 . S
C1763 C1765 1.389 . S
C1764 H1737 0.950 . S
C1764 C1750 1.377 . S
C1764 C1763 1.373 . S
C1765 C1749 1.377 . S
C1765 C1763 1.389 . S
C1765 C1766 1.524 . S
C1766 C1765 1.524 . S
C1766 C1767 1.397 . S
C1766 C1771 1.363 . S
C1767 H1738 0.950 . S
C1767 C1766 1.397 . S
C1767 C1768 1.334 . S
C1768 H1739 0.950 . S
C1768 C1767 1.334 . S
C1768 C1769 1.287 . S
C1769 C1768 1.287 . S
C1769 C1770 1.524 . S
C1769 H1772 0.999 . S
C1770 H1740 0.950 . S
C1770 C1769 1.524 . S
C1770 C1771 1.415 . S
C1771 H1741 0.950 . S
C1771 C1766 1.363 . S
C1771 C1770 1.415 . S
H1772 C1769 0.999 . S
H1773 C1754 0.913 . S
H1774 C1792 0.951 . S
H1775 C1794 0.951 . S
H1776 C1796 0.950 . S
H1777 C1797 0.950 . S
H1778 C1799 0.950 . S
H1779 C1802 0.950 . S
H1780 C1803 0.950 . S
H1781 C1805 0.950 . S
H1782 C1806 0.950 . S
H1783 C1807 0.951 . S
H1784 C1809 0.951 . S
H1785 C1811 0.950 . S
H1786 C1812 0.950 . S
H1787 C1814 0.950 . S
H1788 C1817 0.950 . S
H1789 C1818 0.950 . S
H1790 C1820 0.950 . S
H1791 C1821 0.950 . S
C1792 H1774 0.951 . S
C1792 C1793 1.359 1_655 S
C1792 C1794 1.388 . S
C1793 C1792 1.359 1_455 S
C1793 C1797 1.390 . S
C1794 H1775 0.951 . S
C1794 C1792 1.388 . S
C1794 C1795 1.366 . S
C1795 C1794 1.366 . S
C1795 C1796 1.414 1_655 S
C1795 C1798 1.499 . S
C1796 H1776 0.950 . S
C1796 C1795 1.414 1_455 S
C1796 C1797 1.374 . S
C1797 H1777 0.950 . S
C1797 C1793 1.390 . S
C1797 C1796 1.374 . S
C1798 C1795 1.499 . S
C1798 C1799 1.373 1_655 S
C1798 C1800 1.389 . S
C1799 H1778 0.950 . S
C1799 C1798 1.373 1_455 S
C1799 C1815 1.377 . S
C1800 C1798 1.389 . S
C1800 C1801 1.524 . S
C1800 C1814 1.377 . S
C1801 C1800 1.524 . S
C1801 C1802 1.397 . S
C1801 C1806 1.363 . S
C1802 H1779 0.950 . S
C1802 C1801 1.397 . S
C1802 C1803 1.334 . S
C1803 H1780 0.950 . S
C1803 C1802 1.334 . S
C1803 C1804 1.287 . S
C1804 C1803 1.287 . S
C1804 C1805 1.524 . S
C1804 H1823 0.913 . S
C1805 H1781 0.950 . S
C1805 C1804 1.524 . S
C1805 C1806 1.415 . S
C1806 H1782 0.950 . S
C1806 C1801 1.363 . S
C1806 C1805 1.415 . S
C1807 H1783 0.951 . S
C1807 C1808 1.366 . S
C1807 C1809 1.388 . S
C1808 C1807 1.366 . S
C1808 C1812 1.385 . S
C1809 H1784 0.951 . S
C1809 C1807 1.388 . S
C1809 C1810 1.366 . S
C1810 C1809 1.366 . S
C1810 C1811 1.414 . S
C1810 C1813 1.499 . S
C1811 H1785 0.950 . S
C1811 C1810 1.414 . S
C1811 C1812 1.374 . S
C1812 H1786 0.950 . S
C1812 C1808 1.385 . S
C1812 C1811 1.374 . S
C1813 C1810 1.499 . S
C1813 C1814 1.373 . S
C1813 C1815 1.389 1_655 S
C1814 H1787 0.950 . S
C1814 C1800 1.377 . S
C1814 C1813 1.373 . S
C1815 C1799 1.377 . S
C1815 C1813 1.389 1_455 S
C1815 C1816 1.524 . S
C1816 C1815 1.524 . S
C1816 C1817 1.397 . S
C1816 C1821 1.363 . S
C1817 H1788 0.950 . S
C1817 C1816 1.397 . S
C1817 C1818 1.334 . S
C1818 H1789 0.950 . S
C1818 C1817 1.334 . S
C1818 C1819 1.287 . S
C1819 C1818 1.287 . S
C1819 C1820 1.524 . S
C1819 H1822 0.999 . S
C1820 H1790 0.950 . S
C1820 C1819 1.524 . S
C1820 C1821 1.415 . S
C1821 H1791 0.950 . S
C1821 C1816 1.363 . S
C1821 C1820 1.415 . S
H1822 C1819 0.999 . S
H1823 C1804 0.913 . S
H1824 C1842 0.951 . S
H1825 C1844 0.951 . S
H1826 C1846 0.950 . S
H1827 C1847 0.950 . S
H1828 C1849 0.950 . S
H1829 C1852 0.950 . S
H1830 C1853 0.950 . S
H1831 C1855 0.950 . S
H1832 C1856 0.950 . S
H1833 C1857 0.951 . S
H1834 C1859 0.951 . S
H1835 C1861 0.950 . S
H1836 C1862 0.950 . S
H1837 C1864 0.950 . S
H1838 C1867 0.950 . S
H1839 C1868 0.950 . S
H1840 C1870 0.950 . S
H1841 C1871 0.950 . S
C1842 H1824 0.951 . S
C1842 C1843 1.366 . S
C1842 C1844 1.388 . S
C1843 C1842 1.366 . S
C1843 C1847 1.385 . S
C1844 H1825 0.951 . S
C1844 C1842 1.388 . S
C1844 C1845 1.366 . S
C1845 C1844 1.366 . S
C1845 C1846 1.414 . S
C1845 C1848 1.499 . S
C1846 H1826 0.950 . S
C1846 C1845 1.414 . S
C1846 C1847 1.374 . S
C1847 H1827 0.950 . S
C1847 C1843 1.385 . S
C1847 C1846 1.374 . S
C1848 C1845 1.499 . S
C1848 C1849 1.373 . S
C1848 C1850 1.389 . S
C1849 H1828 0.950 . S
C1849 C1848 1.373 . S
C1849 C1865 1.377 . S
C1850 C1848 1.389 . S
C1850 C1851 1.524 . S
C1850 C1864 1.377 . S
C1851 C1850 1.524 . S
C1851 C1852 1.397 . S
C1851 C1856 1.363 . S
C1852 H1829 0.950 . S
C1852 C1851 1.397 . S
C1852 C1853 1.334 . S
C1853 H1830 0.950 . S
C1853 C1852 1.334 . S
C1853 C1854 1.287 . S
C1854 C1853 1.287 . S
C1854 C1855 1.524 . S
C1854 H1873 0.913 . S
C1855 H1831 0.950 . S
C1855 C1854 1.524 . S
C1855 C1856 1.415 . S
C1856 H1832 0.950 . S
C1856 C1851 1.363 . S
C1856 C1855 1.415 . S
C1857 H1833 0.951 . S
C1857 C1858 1.366 . S
C1857 C1859 1.388 . S
C1858 C1857 1.366 . S
C1858 C1862 1.385 . S
C1859 H1834 0.951 . S
C1859 C1857 1.388 . S
C1859 C1860 1.366 . S
C1860 C1859 1.366 . S
C1860 C1861 1.414 . S
C1860 C1863 1.499 . S
C1861 H1835 0.950 . S
C1861 C1860 1.414 . S
C1861 C1862 1.374 . S
C1862 H1836 0.950 . S
C1862 C1858 1.385 . S
C1862 C1861 1.374 . S
C1863 C1860 1.499 . S
C1863 C1864 1.373 . S
C1863 C1865 1.389 . S
C1864 H1837 0.950 . S
C1864 C1850 1.377 . S
C1864 C1863 1.373 . S
C1865 C1849 1.377 . S
C1865 C1863 1.389 . S
C1865 C1866 1.524 . S
C1866 C1865 1.524 . S
C1866 C1867 1.397 . S
C1866 C1871 1.363 . S
C1867 H1838 0.950 . S
C1867 C1866 1.397 . S
C1867 C1868 1.334 . S
C1868 H1839 0.950 . S
C1868 C1867 1.334 . S
C1868 C1869 1.287 . S
C1869 C1868 1.287 . S
C1869 C1870 1.524 . S
C1869 H1872 0.999 . S
C1870 H1840 0.950 . S
C1870 C1869 1.524 . S
C1870 C1871 1.415 . S
C1871 H1841 0.950 . S
C1871 C1866 1.363 . S
C1871 C1870 1.415 . S
H1872 C1869 0.999 . S
H1873 C1854 0.913 . S
H1874 C1892 0.951 . S
H1875 C1894 0.951 . S
H1876 C1896 0.950 . S
H1877 C1897 0.950 . S
H1878 C1899 0.950 . S
H1879 C1902 0.950 . S
H1880 C1903 0.950 . S
H1881 C1905 0.950 . S
H1882 C1906 0.950 . S
H1883 C1907 0.951 . S
H1884 C1909 0.951 . S
H1885 C1911 0.950 . S
H1886 C1912 0.950 . S
H1887 C1914 0.950 . S
H1888 C1917 0.950 . S
H1889 C1918 0.950 . S
H1890 C1920 0.950 . S
H1891 C1921 0.950 . S
C1892 H1874 0.951 . S
C1892 C1893 1.366 . S
C1892 C1894 1.388 . S
C1893 C1892 1.366 . S
C1893 C1897 1.385 . S
C1894 H1875 0.951 . S
C1894 C1892 1.388 . S
C1894 C1895 1.366 . S
C1895 C1894 1.366 . S
C1895 C1896 1.414 . S
C1895 C1898 1.499 . S
C1896 H1876 0.950 . S
C1896 C1895 1.414 . S
C1896 C1897 1.374 . S
C1897 H1877 0.950 . S
C1897 C1893 1.385 . S
C1897 C1896 1.374 . S
C1898 C1895 1.499 . S
C1898 C1899 1.373 . S
C1898 C1900 1.389 . S
C1899 H1878 0.950 . S
C1899 C1898 1.373 . S
C1899 C1915 1.377 . S
C1900 C1898 1.389 . S
C1900 C1901 1.524 . S
C1900 C1914 1.377 . S
C1901 C1900 1.524 . S
C1901 C1902 1.397 . S
C1901 C1906 1.363 . S
C1902 H1879 0.950 . S
C1902 C1901 1.397 . S
C1902 C1903 1.334 . S
C1903 H1880 0.950 . S
C1903 C1902 1.334 . S
C1903 C1904 1.287 . S
C1904 C1903 1.287 . S
C1904 C1905 1.524 . S
C1904 H1923 0.913 . S
C1905 H1881 0.950 . S
C1905 C1904 1.524 . S
C1905 C1906 1.415 . S
C1906 H1882 0.950 . S
C1906 C1901 1.363 . S
C1906 C1905 1.415 . S
C1907 H1883 0.951 . S
C1907 C1908 1.366 . S
C1907 C1909 1.388 . S
C1908 C1907 1.366 . S
C1908 C1912 1.385 . S
C1909 H1884 0.951 . S
C1909 C1907 1.388 . S
C1909 C1910 1.366 . S
C1910 C1909 1.366 . S
C1910 C1911 1.414 . S
C1910 C1913 1.499 . S
C1911 H1885 0.950 . S
C1911 C1910 1.414 . S
C1911 C1912 1.374 . S
C1912 H1886 0.950 . S
C1912 C1908 1.385 . S
C1912 C1911 1.374 . S
C1913 C1910 1.499 . S
C1913 C1914 1.373 . S
C1913 C1915 1.389 . S
C1914 H1887 0.950 . S
C1914 C1900 1.377 . S
C1914 C1913 1.373 . S
C1915 C1899 1.377 . S
C1915 C1913 1.389 . S
C1915 C1916 1.524 . S
C1916 C1915 1.524 . S
C1916 C1917 1.397 . S
C1916 C1921 1.363 . S
C1917 H1888 0.950 . S
C1917 C1916 1.397 . S
C1917 C1918 1.334 . S
C1918 H1889 0.950 . S
C1918 C1917 1.334 . S
C1918 C1919 1.287 . S
C1919 C1918 1.287 . S
C1919 C1920 1.524 . S
C1919 H1922 0.999 . S
C1920 H1890 0.950 . S
C1920 C1919 1.524 . S
C1920 C1921 1.415 . S
C1921 H1891 0.950 . S
C1921 C1916 1.363 . S
C1921 C1920 1.415 . S
H1922 C1919 0.999 . S
H1923 C1904 0.913 . S
H1924 C1942 0.951 . S
H1925 C1944 0.951 . S
H1926 C1946 0.950 . S
H1927 C1947 0.950 . S
H1928 C1949 0.950 . S
H1929 C1952 0.950 . S
H1930 C1953 0.950 . S
H1931 C1955 0.950 . S
H1932 C1956 0.950 . S
H1933 C1957 0.951 . S
H1934 C1959 0.951 . S
H1935 C1961 0.950 . S
H1936 C1962 0.950 . S
H1937 C1964 0.942 1_565 S
H1938 C1967 0.950 . S
H1939 C1968 0.950 . S
H1940 C1970 0.950 . S
H1941 C1971 0.950 . S
C1942 H1924 0.951 . S
C1942 C1943 1.361 1_545 S
C1942 C1944 1.388 . S
C1943 C1942 1.361 1_565 S
C1943 C1947 1.390 . S
C1944 H1925 0.951 . S
C1944 C1942 1.388 . S
C1944 C1945 1.366 . S
C1945 C1944 1.366 . S
C1945 C1946 1.414 1_545 S
C1945 C1948 1.499 . S
C1946 H1926 0.950 . S
C1946 C1945 1.414 1_565 S
C1946 C1947 1.374 . S
C1947 H1927 0.950 . S
C1947 C1943 1.390 . S
C1947 C1946 1.374 . S
C1948 C1945 1.499 . S
C1948 C1949 1.373 . S
C1948 C1950 1.389 1_545 S
C1949 H1928 0.950 . S
C1949 C1948 1.373 . S
C1949 C1965 1.377 . S
C1950 C1948 1.389 1_565 S
C1950 C1951 1.524 . S
C1950 C1964 1.374 1_565 S
C1951 C1950 1.524 . S
C1951 C1952 1.397 . S
C1951 C1956 1.363 . S
C1952 H1929 0.950 . S
C1952 C1951 1.397 . S
C1952 C1953 1.334 . S
C1953 H1930 0.950 . S
C1953 C1952 1.334 . S
C1953 C1954 1.287 . S
C1954 C1953 1.287 . S
C1954 C1955 1.524 . S
C1954 H1973 0.913 . S
C1955 H1931 0.950 . S
C1955 C1954 1.524 . S
C1955 C1956 1.415 . S
C1956 H1932 0.950 . S
C1956 C1951 1.363 . S
C1956 C1955 1.415 . S
C1957 H1933 0.951 . S
C1957 C1958 1.366 . S
C1957 C1959 1.388 . S
C1958 C1957 1.366 . S
C1958 C1962 1.385 . S
C1959 H1934 0.951 . S
C1959 C1957 1.388 . S
C1959 C1960 1.366 . S
C1960 C1959 1.366 . S
C1960 C1961 1.414 . S
C1960 C1963 1.499 . S
C1961 H1935 0.950 . S
C1961 C1960 1.414 . S
C1961 C1962 1.374 . S
C1962 H1936 0.950 . S
C1962 C1958 1.385 . S
C1962 C1961 1.374 . S
C1963 C1960 1.499 . S
C1963 C1964 1.385 . S
C1963 C1965 1.389 . S
C1964 H1937 0.942 1_545 S
C1964 C1950 1.374 1_545 S
C1964 C1963 1.385 . S
C1965 C1949 1.377 . S
C1965 C1963 1.389 . S
C1965 C1966 1.524 . S
C1966 C1965 1.524 . S
C1966 C1967 1.397 . S
C1966 C1971 1.363 . S
C1967 H1938 0.950 . S
C1967 C1966 1.397 . S
C1967 C1968 1.334 . S
C1968 H1939 0.950 . S
C1968 C1967 1.334 . S
C1968 C1969 1.287 . S
C1969 C1968 1.287 . S
C1969 C1970 1.524 . S
C1969 H1972 0.999 . S
C1970 H1940 0.950 . S
C1970 C1969 1.524 . S
C1970 C1971 1.415 . S
C1971 H1941 0.950 . S
C1971 C1966 1.363 . S
C1971 C1970 1.415 . S
H1972 C1969 0.999 . S
H1973 C1954 0.913 . S
H1974 C1992 0.951 . S
H1975 C1994 0.951 . S
H1976 C1996 0.973 . S
H1977 C1997 0.950 . S
H1978 C1999 0.950 . S
H1979 C2002 0.950 . S
H1980 C2003 0.950 . S
H1981 C2005 0.950 . S
H1982 C2006 0.950 1_565 S
H1983 C2007 0.951 . S
H1984 C2009 0.951 . S
H1985 C2011 0.950 . S
H1986 C2012 0.950 . S
H1987 C2014 0.951 . S
H1988 C2017 0.950 . S
H1989 C2018 0.950 1_655 S
H1990 C2020 0.950 . S
H1991 C2021 0.950 . S
C1992 H1974 0.951 . S
C1992 C1993 1.366 . S
C1992 C1994 1.388 . S
C1993 C1992 1.366 . S
C1993 C1997 1.385 . S
C1994 H1975 0.951 . S
C1994 C1992 1.388 . S
C1994 C1995 1.366 . S
C1995 C1994 1.366 . S
C1995 C1996 1.414 . S
C1995 C1998 1.499 . S
C1996 H1976 0.973 . S
C1996 C1995 1.414 . S
C1996 C1997 1.374 . S
C1997 H1977 0.950 . S
C1997 C1993 1.385 . S
C1997 C1996 1.374 . S
C1998 C1995 1.499 . S
C1998 C1999 1.373 . S
C1998 C2000 1.389 . S
C1999 H1978 0.950 . S
C1999 C1998 1.373 . S
C1999 C2015 1.377 . S
C2000 C1998 1.389 . S
C2000 C2001 1.524 1_565 S
C2000 C2014 1.377 . S
C2001 C2000 1.524 1_545 S
C2001 C2002 1.397 . S
C2001 C2006 1.363 . S
C2002 H1979 0.950 . S
C2002 C2001 1.397 . S
C2002 C2003 1.334 . S
C2003 H1980 0.950 . S
C2003 C2002 1.334 . S
C2003 C2004 1.287 . S
C2004 C2003 1.287 . S
C2004 C2005 1.524 . S
C2004 H2023 0.913 . S
C2005 H1981 0.950 . S
C2005 C2004 1.524 . S
C2005 C2006 1.415 . S
C2006 H1982 0.950 1_545 S
C2006 C2001 1.363 . S
C2006 C2005 1.415 . S
C2007 H1983 0.951 . S
C2007 C2008 1.366 . S
C2007 C2009 1.388 . S
C2008 C2007 1.366 . S
C2008 C2012 1.385 . S
C2009 H1984 0.951 . S
C2009 C2007 1.388 . S
C2009 C2010 1.366 . S
C2010 C2009 1.366 . S
C2010 C2011 1.414 . S
C2010 C2013 1.499 1_655 S
C2011 H1985 0.950 . S
C2011 C2010 1.414 . S
C2011 C2012 1.374 . S
C2012 H1986 0.950 . S
C2012 C2008 1.385 . S
C2012 C2011 1.374 . S
C2013 C2010 1.499 1_455 S
C2013 C2014 1.373 . S
C2013 C2015 1.389 . S
C2014 H1987 0.951 . S
C2014 C2000 1.377 . S
C2014 C2013 1.373 . S
C2015 C1999 1.377 . S
C2015 C2013 1.389 . S
C2015 C2016 1.524 . S
C2016 C2015 1.524 . S
C2016 C2017 1.397 . S
C2016 C2021 1.363 . S
C2017 H1988 0.950 . S
C2017 C2016 1.397 . S
C2017 C2018 1.334 . S
C2018 H1989 0.950 1_455 S
C2018 C2017 1.334 . S
C2018 C2019 1.287 . S
C2019 C2018 1.287 . S
C2019 C2020 1.524 . S
C2019 H2022 0.999 . S
C2020 H1990 0.950 . S
C2020 C2019 1.524 . S
C2020 C2021 1.415 . S
C2021 H1991 0.950 . S
C2021 C2016 1.363 . S
C2021 C2020 1.415 . S
H2022 C2019 0.999 . S
H2023 C2004 0.913 . S
H2024 C2042 0.951 . S
H2025 C2044 0.951 . S
H2026 C2046 0.950 . S
H2027 C2047 0.950 . S
H2028 C2049 0.950 . S
H2029 C2052 0.950 . S
H2030 C2053 0.950 . S
H2031 C2055 0.950 . S
H2032 C2056 0.950 . S
H2033 C2057 0.951 . S
H2034 C2059 0.951 . S
H2035 C2061 0.950 . S
H2036 C2062 0.950 . S
H2037 C2064 0.950 . S
H2038 C2067 0.950 . S
H2039 C2068 0.950 . S
H2040 C2070 0.950 . S
H2041 C2071 0.950 . S
C2042 H2024 0.951 . S
C2042 C2043 1.366 . S
C2042 C2044 1.388 . S
C2043 C2042 1.366 . S
C2043 C2047 1.385 . S
C2044 H2025 0.951 . S
C2044 C2042 1.388 . S
C2044 C2045 1.366 . S
C2045 C2044 1.366 . S
C2045 C2046 1.414 . S
C2045 C2048 1.499 . S
C2046 H2026 0.950 . S
C2046 C2045 1.414 . S
C2046 C2047 1.374 . S
C2047 H2027 0.950 . S
C2047 C2043 1.385 . S
C2047 C2046 1.374 . S
C2048 C2045 1.499 . S
C2048 C2049 1.373 . S
C2048 C2050 1.389 . S
C2049 H2028 0.950 . S
C2049 C2048 1.373 . S
C2049 C2065 1.377 . S
C2050 C2048 1.389 . S
C2050 C2051 1.524 . S
C2050 C2064 1.377 . S
C2051 C2050 1.524 . S
C2051 C2052 1.397 . S
C2051 C2056 1.363 . S
C2052 H2029 0.950 . S
C2052 C2051 1.397 . S
C2052 C2053 1.334 . S
C2053 H2030 0.950 . S
C2053 C2052 1.334 . S
C2053 C2054 1.287 . S
C2054 C2053 1.287 . S
C2054 C2055 1.524 . S
C2054 H2073 0.913 . S
C2055 H2031 0.950 . S
C2055 C2054 1.524 . S
C2055 C2056 1.415 . S
C2056 H2032 0.950 . S
C2056 C2051 1.363 . S
C2056 C2055 1.415 . S
C2057 H2033 0.951 . S
C2057 C2058 1.366 . S
C2057 C2059 1.388 . S
C2058 C2057 1.366 . S
C2058 C2062 1.385 . S
C2059 H2034 0.951 . S
C2059 C2057 1.388 . S
C2059 C2060 1.366 . S
C2060 C2059 1.366 . S
C2060 C2061 1.414 . S
C2060 C2063 1.499 . S
C2061 H2035 0.950 . S
C2061 C2060 1.414 . S
C2061 C2062 1.374 . S
C2062 H2036 0.950 . S
C2062 C2058 1.385 . S
C2062 C2061 1.374 . S
C2063 C2060 1.499 . S
C2063 C2064 1.373 . S
C2063 C2065 1.389 . S
C2064 H2037 0.950 . S
C2064 C2050 1.377 . S
C2064 C2063 1.373 . S
C2065 C2049 1.377 . S
C2065 C2063 1.389 . S
C2065 C2066 1.524 . S
C2066 C2065 1.524 . S
C2066 C2067 1.397 . S
C2066 C2071 1.363 . S
C2067 H2038 0.950 . S
C2067 C2066 1.397 . S
C2067 C2068 1.334 . S
C2068 H2039 0.950 . S
C2068 C2067 1.334 . S
C2068 C2069 1.287 . S
C2069 C2068 1.287 . S
C2069 C2070 1.524 . S
C2069 H2072 0.999 . S
C2070 H2040 0.950 . S
C2070 C2069 1.524 . S
C2070 C2071 1.415 . S
C2071 H2041 0.950 . S
C2071 C2066 1.363 . S
C2071 C2070 1.415 . S
H2072 C2069 0.999 . S
H2073 C2054 0.913 . S
H2074 C2092 0.951 . S
H2075 C2094 0.951 . S
H2076 C2096 0.950 1_554 S
H2077 C2097 0.950 1_554 S
H2078 C2099 0.950 . S
H2079 C2102 0.950 . S
H2080 C2103 0.950 . S
H2081 C2105 0.950 . S
H2082 C2106 0.950 . S
H2083 C2107 0.951 1_554 S
H2084 C2109 0.951 1_554 S
H2085 C2111 0.950 . S
H2086 C2112 0.950 . S
H2087 C2114 0.950 . S
H2088 C2117 0.950 . S
H2089 C2118 0.999 . S
H2090 C2120 0.950 . S
H2091 C2121 0.950 . S
C2092 H2074 0.951 . S
C2092 C2093 1.366 . S
C2092 C2094 1.388 . S
C2093 C2092 1.366 . S
C2093 C2097 1.385 . S
C2094 H2075 0.951 . S
C2094 C2092 1.388 . S
C2094 C2095 1.366 . S
C2095 C2094 1.366 . S
C2095 C2096 1.414 . S
C2095 C2098 1.499 . S
C2096 H2076 0.950 1_556 S
C2096 C2095 1.414 . S
C2096 C2097 1.374 . S
C2097 H2077 0.950 1_556 S
C2097 C2093 1.385 . S
C2097 C2096 1.374 . S
C2098 C2095 1.499 . S
C2098 C2099 1.373 1_556 S
C2098 C2100 1.389 . S
C2099 H2078 0.950 . S
C2099 C2098 1.373 1_554 S
C2099 C2115 1.377 . S
C2100 C2098 1.389 . S
C2100 C2101 1.524 . S
C2100 C2114 1.377 . S
C2101 C2100 1.524 . S
C2101 C2102 1.397 . S
C2101 C2106 1.363 . S
C2102 H2079 0.950 . S
C2102 C2101 1.397 . S
C2102 C2103 1.334 . S
C2103 H2080 0.950 . S
C2103 C2102 1.334 . S
C2103 C2104 1.287 . S
C2104 C2103 1.287 . S
C2104 C2105 1.524 . S
C2104 H2123 0.913 . S
C2105 H2081 0.950 . S
C2105 C2104 1.524 . S
C2105 C2106 1.415 . S
C2106 H2082 0.950 . S
C2106 C2101 1.363 . S
C2106 C2105 1.415 . S
C2107 H2083 0.951 1_556 S
C2107 C2108 1.366 . S
C2107 C2109 1.388 . S
C2108 C2107 1.366 . S
C2108 C2112 1.385 . S
C2109 H2084 0.951 1_556 S
C2109 C2107 1.388 . S
C2109 C2110 1.366 . S
C2110 C2109 1.366 . S
C2110 C2111 1.414 . S
C2110 C2113 1.499 1_565 S
C2111 H2085 0.950 . S
C2111 C2110 1.414 . S
C2111 C2112 1.374 . S
C2112 H2086 0.950 . S
C2112 C2108 1.385 . S
C2112 C2111 1.374 . S
C2113 C2110 1.499 1_545 S
C2113 C2114 1.373 . S
C2113 C2115 1.389 1_556 S
C2114 H2087 0.950 . S
C2114 C2100 1.377 . S
C2114 C2113 1.373 . S
C2115 C2099 1.377 . S
C2115 C2113 1.389 1_554 S
C2115 C2116 1.524 . S
C2116 C2115 1.524 . S
C2116 C2117 1.397 . S
C2116 C2121 1.363 . S
C2117 H2088 0.950 . S
C2117 C2116 1.397 . S
C2117 C2118 1.334 . S
C2118 H2089 0.999 . S
C2118 C2117 1.334 . S
C2118 C2119 1.287 . S
C2119 C2118 1.287 . S
C2119 C2120 1.524 . S
C2119 H2122 0.999 . S
C2120 H2090 0.950 . S
C2120 C2119 1.524 . S
C2120 C2121 1.415 . S
C2121 H2091 0.950 . S
C2121 C2116 1.363 . S
C2121 C2120 1.415 . S
H2122 C2119 0.999 . S
H2123 C2104 0.913 . S
H2124 C2142 0.951 . S
H2125 C2144 0.951 . S
H2126 C2146 0.950 . S
H2127 C2147 0.950 . S
H2128 C2149 0.950 . S
H2129 C2152 0.950 . S
H2130 C2153 0.950 . S
H2131 C2155 0.950 . S
H2132 C2156 0.950 . S
H2133 C2157 0.951 . S
H2134 C2159 0.951 . S
H2135 C2161 0.950 . S
H2136 C2162 0.950 . S
H2137 C2164 0.950 . S
H2138 C2167 0.950 . S
H2139 C2168 0.950 . S
H2140 C2170 0.950 . S
H2141 C2171 0.950 . S
C2142 H2124 0.951 . S
C2142 C2143 1.366 . S
C2142 C2144 1.388 . S
C2143 C2142 1.366 . S
C2143 C2147 1.385 . S
C2144 H2125 0.951 . S
C2144 C2142 1.388 . S
C2144 C2145 1.366 . S
C2145 C2144 1.366 . S
C2145 C2146 1.414 . S
C2145 C2148 1.499 . S
C2146 H2126 0.950 . S
C2146 C2145 1.414 . S
C2146 C2147 1.374 . S
C2147 H2127 0.950 . S
C2147 C2143 1.385 . S
C2147 C2146 1.374 . S
C2148 C2145 1.499 . S
C2148 C2149 1.373 . S
C2148 C2150 1.389 . S
C2149 H2128 0.950 . S
C2149 C2148 1.373 . S
C2149 C2165 1.377 . S
C2150 C2148 1.389 . S
C2150 C2151 1.524 . S
C2150 C2164 1.377 . S
C2151 C2150 1.524 . S
C2151 C2152 1.397 . S
C2151 C2156 1.363 . S
C2152 H2129 0.950 . S
C2152 C2151 1.397 . S
C2152 C2153 1.334 . S
C2153 H2130 0.950 . S
C2153 C2152 1.334 . S
C2153 C2154 1.287 . S
C2154 C2153 1.287 . S
C2154 C2155 1.524 . S
C2154 H2173 0.913 . S
C2155 H2131 0.950 . S
C2155 C2154 1.524 . S
C2155 C2156 1.415 . S
C2156 H2132 0.950 . S
C2156 C2151 1.363 . S
C2156 C2155 1.415 . S
C2157 H2133 0.951 . S
C2157 C2158 1.366 . S
C2157 C2159 1.388 . S
C2158 C2157 1.366 . S
C2158 C2162 1.385 . S
C2159 H2134 0.951 . S
C2159 C2157 1.388 . S
C2159 C2160 1.366 . S
C2160 C2159 1.366 . S
C2160 C2161 1.414 . S
C2160 C2163 1.499 . S
C2161 H2135 0.950 . S
C2161 C2160 1.414 . S
C2161 C2162 1.374 . S
C2162 H2136 0.950 . S
C2162 C2158 1.385 . S
C2162 C2161 1.374 . S
C2163 C2160 1.499 . S
C2163 C2164 1.373 . S
C2163 C2165 1.389 . S
C2164 H2137 0.950 . S
C2164 C2150 1.377 . S
C2164 C2163 1.373 . S
C2165 C2149 1.377 . S
C2165 C2163 1.389 . S
C2165 C2166 1.524 . S
C2166 C2165 1.524 . S
C2166 C2167 1.397 . S
C2166 C2171 1.363 . S
C2167 H2138 0.950 . S
C2167 C2166 1.397 . S
C2167 C2168 1.334 . S
C2168 H2139 0.950 . S
C2168 C2167 1.334 . S
C2168 C2169 1.287 . S
C2169 C2168 1.287 . S
C2169 C2170 1.524 . S
C2169 H2172 0.999 . S
C2170 H2140 0.950 . S
C2170 C2169 1.524 . S
C2170 C2171 1.415 . S
C2171 H2141 0.950 . S
C2171 C2166 1.363 . S
C2171 C2170 1.415 . S
H2172 C2169 0.999 . S
H2173 C2154 0.913 . S
H2174 C2192 0.951 . S
H2175 C2194 0.951 . S
H2176 C2196 0.950 . S
H2177 C2197 0.950 . S
H2178 C2199 0.950 . S
H2179 C2202 0.950 . S
H2180 C2203 0.950 . S
H2181 C2205 0.950 . S
H2182 C2206 0.949 1_554 S
H2183 C2207 0.975 . S
H2184 C2209 0.951 1_556 S
H2185 C2211 0.950 . S
H2186 C2212 0.950 . S
H2187 C2214 0.950 . S
H2188 C2217 0.950 . S
H2189 C2218 0.950 . S
H2190 C2220 0.950 . S
H2191 C2221 0.950 . S
C2192 H2174 0.951 . S
C2192 C2193 1.358 1_554 S
C2192 C2194 1.388 . S
C2193 C2192 1.358 1_556 S
C2193 C2197 1.392 . S
C2194 H2175 0.951 . S
C2194 C2192 1.388 . S
C2194 C2195 1.366 . S
C2195 C2194 1.366 . S
C2195 C2196 1.414 1_554 S
C2195 C2198 1.499 . S
C2196 H2176 0.950 . S
C2196 C2195 1.414 1_556 S
C2196 C2197 1.374 . S
C2197 H2177 0.950 . S
C2197 C2193 1.392 . S
C2197 C2196 1.374 . S
C2198 C2195 1.499 . S
C2198 C2199 1.373 . S
C2198 C2200 1.398 . S
C2199 H2178 0.950 . S
C2199 C2198 1.373 . S
C2199 C2215 1.377 . S
C2200 C2198 1.398 . S
C2200 C2201 1.506 1_554 S
C2200 C2214 1.386 . S
C2201 C2200 1.506 1_556 S
C2201 C2202 1.397 . S
C2201 C2206 1.364 . S
C2202 H2179 0.950 . S
C2202 C2201 1.397 . S
C2202 C2203 1.334 . S
C2203 H2180 0.950 . S
C2203 C2202 1.334 . S
C2203 C2204 1.287 . S
C2204 C2203 1.287 . S
C2204 C2205 1.524 . S
C2204 H2223 0.913 . S
C2205 H2181 0.950 . S
C2205 C2204 1.524 . S
C2205 C2206 1.415 . S
C2206 H2182 0.949 1_556 S
C2206 C2201 1.364 . S
C2206 C2205 1.415 . S
C2207 H2183 0.975 . S
C2207 C2208 1.366 . S
C2207 C2209 1.388 . S
C2208 C2207 1.366 . S
C2208 C2212 1.385 . S
C2209 H2184 0.951 1_554 S
C2209 C2207 1.388 . S
C2209 C2210 1.366 . S
C2210 C2209 1.366 . S
C2210 C2211 1.414 . S
C2210 C2213 1.499 . S
C2211 H2185 0.950 . S
C2211 C2210 1.414 . S
C2211 C2212 1.374 . S
C2212 H2186 0.950 . S
C2212 C2208 1.385 . S
C2212 C2211 1.374 . S
C2213 C2210 1.499 . S
C2213 C2214 1.373 . S
C2213 C2215 1.389 . S
C2214 H2187 0.950 . S
C2214 C2200 1.386 . S
C2214 C2213 1.373 . S
C2215 C2199 1.377 . S
C2215 C2213 1.389 . S
C2215 C2216 1.524 . S
C2216 C2215 1.524 . S
C2216 C2217 1.397 . S
C2216 C2221 1.363 . S
C2217 H2188 0.950 . S
C2217 C2216 1.397 . S
C2217 C2218 1.334 . S
C2218 H2189 0.950 . S
C2218 C2217 1.334 . S
C2218 C2219 1.287 . S
C2219 C2218 1.287 . S
C2219 C2220 1.524 . S
C2219 H2222 0.999 . S
C2220 H2190 0.950 . S
C2220 C2219 1.524 . S
C2220 C2221 1.415 . S
C2221 H2191 0.950 . S
C2221 C2216 1.363 . S
C2221 C2220 1.415 . S
H2222 C2219 0.999 . S
H2223 C2204 0.913 . S
H2224 C2242 0.951 . S
H2225 C2244 0.951 . S
H2226 C2246 0.950 . S
H2227 C2247 0.950 . S
H2228 C2249 0.950 . S
H2229 C2252 0.950 . S
H2230 C2253 0.950 . S
H2231 C2255 0.950 . S
H2232 C2256 0.950 . S
H2233 C2257 0.951 . S
H2234 C2259 0.951 . S
H2235 C2261 0.950 . S
H2236 C2262 0.950 . S
H2237 C2264 0.950 . S
H2238 C2267 0.950 . S
H2239 C2268 0.950 . S
H2240 C2270 0.950 . S
H2241 C2271 0.950 . S
C2242 H2224 0.951 . S
C2242 C2243 1.366 . S
C2242 C2244 1.388 . S
C2243 C2242 1.366 . S
C2243 C2247 1.385 . S
C2244 H2225 0.951 . S
C2244 C2242 1.388 . S
C2244 C2245 1.366 . S
C2245 C2244 1.366 . S
C2245 C2246 1.414 . S
C2245 C2248 1.499 . S
C2246 H2226 0.950 . S
C2246 C2245 1.414 . S
C2246 C2247 1.374 . S
C2247 H2227 0.950 . S
C2247 C2243 1.385 . S
C2247 C2246 1.374 . S
C2248 C2245 1.499 . S
C2248 C2249 1.373 . S
C2248 C2250 1.389 . S
C2249 H2228 0.950 . S
C2249 C2248 1.373 . S
C2249 C2265 1.377 . S
C2250 C2248 1.389 . S
C2250 C2251 1.524 . S
C2250 C2264 1.377 . S
C2251 C2250 1.524 . S
C2251 C2252 1.397 . S
C2251 C2256 1.363 . S
C2252 H2229 0.950 . S
C2252 C2251 1.397 . S
C2252 C2253 1.334 . S
C2253 H2230 0.950 . S
C2253 C2252 1.334 . S
C2253 C2254 1.287 . S
C2254 C2253 1.287 . S
C2254 C2255 1.524 . S
C2254 H2273 0.913 . S
C2255 H2231 0.950 . S
C2255 C2254 1.524 . S
C2255 C2256 1.415 . S
C2256 H2232 0.950 . S
C2256 C2251 1.363 . S
C2256 C2255 1.415 . S
C2257 H2233 0.951 . S
C2257 C2258 1.366 . S
C2257 C2259 1.388 . S
C2258 C2257 1.366 . S
C2258 C2262 1.385 . S
C2259 H2234 0.951 . S
C2259 C2257 1.388 . S
C2259 C2260 1.366 . S
C2260 C2259 1.366 . S
C2260 C2261 1.414 . S
C2260 C2263 1.499 . S
C2261 H2235 0.950 . S
C2261 C2260 1.414 . S
C2261 C2262 1.374 . S
C2262 H2236 0.950 . S
C2262 C2258 1.385 . S
C2262 C2261 1.374 . S
C2263 C2260 1.499 . S
C2263 C2264 1.373 . S
C2263 C2265 1.389 . S
C2264 H2237 0.950 . S
C2264 C2250 1.377 . S
C2264 C2263 1.373 . S
C2265 C2249 1.377 . S
C2265 C2263 1.389 . S
C2265 C2266 1.524 . S
C2266 C2265 1.524 . S
C2266 C2267 1.397 . S
C2266 C2271 1.363 . S
C2267 H2238 0.950 . S
C2267 C2266 1.397 . S
C2267 C2268 1.334 . S
C2268 H2239 0.950 . S
C2268 C2267 1.334 . S
C2268 C2269 1.287 . S
C2269 C2268 1.287 . S
C2269 C2270 1.524 . S
C2269 H2272 0.999 . S
C2270 H2240 0.950 . S
C2270 C2269 1.524 . S
C2270 C2271 1.415 . S
C2271 H2241 0.950 . S
C2271 C2266 1.363 . S
C2271 C2270 1.415 . S
H2272 C2269 0.999 . S
H2273 C2254 0.913 . S
H2274 C2292 0.951 . S
H2275 C2294 0.951 . S
H2276 C2296 0.950 . S
H2277 C2297 0.950 . S
H2278 C2299 0.950 1_455 S
H2279 C2302 0.950 . S
H2280 C2303 0.950 . S
H2281 C2305 0.950 . S
H2282 C2306 0.950 . S
H2283 C2307 0.951 . S
H2284 C2309 0.951 . S
H2285 C2311 0.950 . S
H2286 C2312 0.950 . S
H2287 C2314 0.950 . S
H2288 C2317 0.950 . S
H2289 C2318 0.948 . S
H2290 C2320 0.950 . S
H2291 C2321 0.950 . S
C2292 H2274 0.951 . S
C2292 C2293 1.366 . S
C2292 C2294 1.388 . S
C2293 C2292 1.366 . S
C2293 C2297 1.385 1_655 S
C2294 H2275 0.951 . S
C2294 C2292 1.388 . S
C2294 C2295 1.366 . S
C2295 C2294 1.366 . S
C2295 C2296 1.414 1_655 S
C2295 C2298 1.499 . S
C2296 H2276 0.950 . S
C2296 C2295 1.414 1_455 S
C2296 C2297 1.374 . S
C2297 H2277 0.950 . S
C2297 C2293 1.385 1_455 S
C2297 C2296 1.374 . S
C2298 C2295 1.499 . S
C2298 C2299 1.373 . S
C2298 C2300 1.389 . S
C2299 H2278 0.950 1_655 S
C2299 C2298 1.373 . S
C2299 C2315 1.377 . S
C2300 C2298 1.389 . S
C2300 C2301 1.524 . S
C2300 C2314 1.377 . S
C2301 C2300 1.524 . S
C2301 C2302 1.397 . S
C2301 C2306 1.363 . S
C2302 H2279 0.950 . S
C2302 C2301 1.397 . S
C2302 C2303 1.334 . S
C2303 H2280 0.950 . S
C2303 C2302 1.334 . S
C2303 C2304 1.287 . S
C2304 C2303 1.287 . S
C2304 C2305 1.524 . S
C2304 H2323 0.913 . S
C2305 H2281 0.950 . S
C2305 C2304 1.524 . S
C2305 C2306 1.415 . S
C2306 H2282 0.950 . S
C2306 C2301 1.363 . S
C2306 C2305 1.415 . S
C2307 H2283 0.951 . S
C2307 C2308 1.366 1_455 S
C2307 C2309 1.388 . S
C2308 C2307 1.366 1_655 S
C2308 C2312 1.385 . S
C2309 H2284 0.951 . S
C2309 C2307 1.388 . S
C2309 C2310 1.366 1_455 S
C2310 C2309 1.366 1_655 S
C2310 C2311 1.414 . S
C2310 C2313 1.499 1_556 S
C2311 H2285 0.950 . S
C2311 C2310 1.414 . S
C2311 C2312 1.374 . S
C2312 H2286 0.950 . S
C2312 C2308 1.385 . S
C2312 C2311 1.374 . S
C2313 C2310 1.499 1_554 S
C2313 C2314 1.373 . S
C2313 C2315 1.389 . S
C2314 H2287 0.950 . S
C2314 C2300 1.377 . S
C2314 C2313 1.373 . S
C2315 C2299 1.377 . S
C2315 C2313 1.389 . S
C2315 C2316 1.524 1_655 S
C2316 C2315 1.524 1_455 S
C2316 C2317 1.397 1_455 S
C2316 C2321 1.363 . S
C2317 H2288 0.950 . S
C2317 C2316 1.397 1_655 S
C2317 C2318 1.334 . S
C2318 H2289 0.948 . S
C2318 C2317 1.334 . S
C2318 C2319 1.287 1_655 S
C2319 C2318 1.287 1_455 S
C2319 C2320 1.524 . S
C2319 H2322 0.999 . S
C2320 H2290 0.950 . S
C2320 C2319 1.524 . S
C2320 C2321 1.415 . S
C2321 H2291 0.950 . S
C2321 C2316 1.363 . S
C2321 C2320 1.415 . S
H2322 C2319 0.999 . S
H2323 C2304 0.913 . S
H2324 C2342 0.951 . S
H2325 C2344 0.951 . S
H2326 C2346 0.950 . S
H2327 C2347 0.950 . S
H2328 C2349 0.950 . S
H2329 C2352 0.950 . S
H2330 C2353 0.950 . S
H2331 C2355 0.950 . S
H2332 C2356 0.950 . S
H2333 C2357 0.951 . S
H2334 C2359 0.951 . S
H2335 C2361 0.950 . S
H2336 C2362 0.950 . S
H2337 C2364 0.950 . S
H2338 C2367 0.950 . S
H2339 C2368 0.950 . S
H2340 C2370 0.950 . S
H2341 C2371 0.950 . S
C2342 H2324 0.951 . S
C2342 C2343 1.366 . S
C2342 C2344 1.388 . S
C2343 C2342 1.366 . S
C2343 C2347 1.385 . S
C2344 H2325 0.951 . S
C2344 C2342 1.388 . S
C2344 C2345 1.366 . S
C2345 C2344 1.366 . S
C2345 C2346 1.414 . S
C2345 C2348 1.499 . S
C2346 H2326 0.950 . S
C2346 C2345 1.414 . S
C2346 C2347 1.374 . S
C2347 H2327 0.950 . S
C2347 C2343 1.385 . S
C2347 C2346 1.374 . S
C2348 C2345 1.499 . S
C2348 C2349 1.373 . S
C2348 C2350 1.389 . S
C2349 H2328 0.950 . S
C2349 C2348 1.373 . S
C2349 C2365 1.377 . S
C2350 C2348 1.389 . S
C2350 C2351 1.524 . S
C2350 C2364 1.377 . S
C2351 C2350 1.524 . S
C2351 C2352 1.397 . S
C2351 C2356 1.363 . S
C2352 H2329 0.950 . S
C2352 C2351 1.397 . S
C2352 C2353 1.334 . S
C2353 H2330 0.950 . S
C2353 C2352 1.334 . S
C2353 C2354 1.287 . S
C2354 C2353 1.287 . S
C2354 C2355 1.524 . S
C2354 H2373 0.913 . S
C2355 H2331 0.950 . S
C2355 C2354 1.524 . S
C2355 C2356 1.415 . S
C2356 H2332 0.950 . S
C2356 C2351 1.363 . S
C2356 C2355 1.415 . S
C2357 H2333 0.951 . S
C2357 C2358 1.366 . S
C2357 C2359 1.388 . S
C2358 C2357 1.366 . S
C2358 C2362 1.385 . S
C2359 H2334 0.951 . S
C2359 C2357 1.388 . S
C2359 C2360 1.366 . S
C2360 C2359 1.366 . S
C2360 C2361 1.414 . S
C2360 C2363 1.499 . S
C2361 H2335 0.950 . S
C2361 C2360 1.414 . S
C2361 C2362 1.374 . S
C2362 H2336 0.950 . S
C2362 C2358 1.385 . S
C2362 C2361 1.374 . S
C2363 C2360 1.499 . S
C2363 C2364 1.373 . S
C2363 C2365 1.389 . S
C2364 H2337 0.950 . S
C2364 C2350 1.377 . S
C2364 C2363 1.373 . S
C2365 C2349 1.377 . S
C2365 C2363 1.389 . S
C2365 C2366 1.524 . S
C2366 C2365 1.524 . S
C2366 C2367 1.397 . S
C2366 C2371 1.363 . S
C2367 H2338 0.950 . S
C2367 C2366 1.397 . S
C2367 C2368 1.334 . S
C2368 H2339 0.950 . S
C2368 C2367 1.334 . S
C2368 C2369 1.287 . S
C2369 C2368 1.287 . S
C2369 C2370 1.524 . S
C2369 H2372 0.999 . S
C2370 H2340 0.950 . S
C2370 C2369 1.524 . S
C2370 C2371 1.415 . S
C2371 H2341 0.950 . S
C2371 C2366 1.363 . S
C2371 C2370 1.415 . S
H2372 C2369 0.999 . S
H2373 C2354 0.913 . S
H2374 C2392 0.951 . S
H2375 C2394 0.951 . S
H2376 C2396 0.950 . S
H2377 C2397 0.950 . S
H2378 C2399 0.950 . S
H2379 C2402 0.950 . S
H2380 C2403 0.950 . S
H2381 C2405 0.950 . S
H2382 C2406 0.950 . S
H2383 C2407 0.951 . S
H2384 C2409 0.951 . S
H2385 C2411 0.950 . S
H2386 C2412 0.950 . S
H2387 C2414 0.950 . S
H2388 C2417 0.950 . S
H2389 C2418 0.950 . S
H2390 C2420 0.950 . S
H2391 C2421 0.950 . S
C2392 H2374 0.951 . S
C2392 C2393 1.369 . S
C2392 C2394 1.388 . S
C2393 C2392 1.369 . S
C2393 C2397 1.381 1_655 S
C2394 H2375 0.951 . S
C2394 C2392 1.388 . S
C2394 C2395 1.366 1_655 S
C2395 C2394 1.366 1_455 S
C2395 C2396 1.414 . S
C2395 C2398 1.499 . S
C2396 H2376 0.950 . S
C2396 C2395 1.414 . S
C2396 C2397 1.374 . S
C2397 H2377 0.950 . S
C2397 C2393 1.381 1_455 S
C2397 C2396 1.374 . S
C2398 C2395 1.499 . S
C2398 C2399 1.373 . S
C2398 C2400 1.389 1_455 S
C2399 H2378 0.950 . S
C2399 C2398 1.373 . S
C2399 C2415 1.377 . S
C2400 C2398 1.389 1_655 S
C2400 C2401 1.524 . S
C2400 C2414 1.377 . S
C2401 C2400 1.524 . S
C2401 C2402 1.397 . S
C2401 C2406 1.363 . S
C2402 H2379 0.950 . S
C2402 C2401 1.397 . S
C2402 C2403 1.334 . S
C2403 H2380 0.950 . S
C2403 C2402 1.334 . S
C2403 C2404 1.287 . S
C2404 C2403 1.287 . S
C2404 C2405 1.524 . S
C2404 H2423 0.913 . S
C2405 H2381 0.950 . S
C2405 C2404 1.524 . S
C2405 C2406 1.415 . S
C2406 H2382 0.950 . S
C2406 C2401 1.363 . S
C2406 C2405 1.415 . S
C2407 H2383 0.951 . S
C2407 C2408 1.366 . S
C2407 C2409 1.388 . S
C2408 C2407 1.366 . S
C2408 C2412 1.385 . S
C2409 H2384 0.951 . S
C2409 C2407 1.388 . S
C2409 C2410 1.366 . S
C2410 C2409 1.366 . S
C2410 C2411 1.414 . S
C2410 C2413 1.499 . S
C2411 H2385 0.950 . S
C2411 C2410 1.414 . S
C2411 C2412 1.374 . S
C2412 H2386 0.950 . S
C2412 C2408 1.385 . S
C2412 C2411 1.374 . S
C2413 C2410 1.499 . S
C2413 C2414 1.373 1_455 S
C2413 C2415 1.389 . S
C2414 H2387 0.950 . S
C2414 C2400 1.377 . S
C2414 C2413 1.373 1_655 S
C2415 C2399 1.377 . S
C2415 C2413 1.389 . S
C2415 C2416 1.524 . S
C2416 C2415 1.524 . S
C2416 C2417 1.397 . S
C2416 C2421 1.363 . S
C2417 H2388 0.950 . S
C2417 C2416 1.397 . S
C2417 C2418 1.334 . S
C2418 H2389 0.950 . S
C2418 C2417 1.334 . S
C2418 C2419 1.287 . S
C2419 C2418 1.287 . S
C2419 C2420 1.524 . S
C2419 H2422 0.999 . S
C2420 H2390 0.950 . S
C2420 C2419 1.524 . S
C2420 C2421 1.415 . S
C2421 H2391 0.950 . S
C2421 C2416 1.363 . S
C2421 C2420 1.415 . S
H2422 C2419 0.999 . S
H2423 C2404 0.913 . S
H2424 C2442 0.951 . S
H2425 C2444 0.951 . S
H2426 C2446 0.950 . S
H2427 C2447 0.950 . S
H2428 C2449 0.950 . S
H2429 C2452 0.950 . S
H2430 C2453 0.950 . S
H2431 C2455 0.950 . S
H2432 C2456 0.950 . S
H2433 C2457 0.951 . S
H2434 C2459 0.951 . S
H2435 C2461 0.950 . S
H2436 C2462 0.950 . S
H2437 C2464 0.950 . S
H2438 C2467 0.950 . S
H2439 C2468 0.950 . S
H2440 C2470 0.950 . S
H2441 C2471 0.950 . S
C2442 H2424 0.951 . S
C2442 C2443 1.366 . S
C2442 C2444 1.388 . S
C2443 C2442 1.366 . S
C2443 C2447 1.385 . S
C2444 H2425 0.951 . S
C2444 C2442 1.388 . S
C2444 C2445 1.366 . S
C2445 C2444 1.366 . S
C2445 C2446 1.414 . S
C2445 C2448 1.499 . S
C2446 H2426 0.950 . S
C2446 C2445 1.414 . S
C2446 C2447 1.374 . S
C2447 H2427 0.950 . S
C2447 C2443 1.385 . S
C2447 C2446 1.374 . S
C2448 C2445 1.499 . S
C2448 C2449 1.373 . S
C2448 C2450 1.389 . S
C2449 H2428 0.950 . S
C2449 C2448 1.373 . S
C2449 C2465 1.377 . S
C2450 C2448 1.389 . S
C2450 C2451 1.524 . S
C2450 C2464 1.377 . S
C2451 C2450 1.524 . S
C2451 C2452 1.397 . S
C2451 C2456 1.363 . S
C2452 H2429 0.950 . S
C2452 C2451 1.397 . S
C2452 C2453 1.334 . S
C2453 H2430 0.950 . S
C2453 C2452 1.334 . S
C2453 C2454 1.287 . S
C2454 C2453 1.287 . S
C2454 C2455 1.524 . S
C2454 H2473 0.913 . S
C2455 H2431 0.950 . S
C2455 C2454 1.524 . S
C2455 C2456 1.415 . S
C2456 H2432 0.950 . S
C2456 C2451 1.363 . S
C2456 C2455 1.415 . S
C2457 H2433 0.951 . S
C2457 C2458 1.366 . S
C2457 C2459 1.388 . S
C2458 C2457 1.366 . S
C2458 C2462 1.385 . S
C2459 H2434 0.951 . S
C2459 C2457 1.388 . S
C2459 C2460 1.366 . S
C2460 C2459 1.366 . S
C2460 C2461 1.414 . S
C2460 C2463 1.499 . S
C2461 H2435 0.950 . S
C2461 C2460 1.414 . S
C2461 C2462 1.374 . S
C2462 H2436 0.950 . S
C2462 C2458 1.385 . S
C2462 C2461 1.374 . S
C2463 C2460 1.499 . S
C2463 C2464 1.373 . S
C2463 C2465 1.389 . S
C2464 H2437 0.950 . S
C2464 C2450 1.377 . S
C2464 C2463 1.373 . S
C2465 C2449 1.377 . S
C2465 C2463 1.389 . S
C2465 C2466 1.524 . S
C2466 C2465 1.524 . S
C2466 C2467 1.397 . S
C2466 C2471 1.363 . S
C2467 H2438 0.950 . S
C2467 C2466 1.397 . S
C2467 C2468 1.334 . S
C2468 H2439 0.950 . S
C2468 C2467 1.334 . S
C2468 C2469 1.287 . S
C2469 C2468 1.287 . S
C2469 C2470 1.524 . S
C2469 H2472 0.999 . S
C2470 H2440 0.950 . S
C2470 C2469 1.524 . S
C2470 C2471 1.415 . S
C2471 H2441 0.950 . S
C2471 C2466 1.363 . S
C2471 C2470 1.415 . S
H2472 C2469 0.999 . S
H2473 C2454 0.913 . S
H2474 C2492 0.951 . S
H2475 C2494 0.951 . S
H2476 C2496 0.950 . S
H2477 C2497 0.950 . S
H2478 C2499 0.950 . S
H2479 C2502 0.950 . S
H2480 C2503 0.950 . S
H2481 C2505 0.950 . S
H2482 C2506 0.950 . S
H2483 C2507 0.951 . S
H2484 C2509 0.951 . S
H2485 C2511 0.950 . S
H2486 C2512 0.950 . S
H2487 C2514 0.950 . S
H2488 C2517 0.950 . S
H2489 C2518 0.950 . S
H2490 C2520 0.950 . S
H2491 C2521 0.950 . S
C2492 H2474 0.951 . S
C2492 C2493 1.366 . S
C2492 C2494 1.388 . S
C2493 C2492 1.366 . S
C2493 C2497 1.385 . S
C2494 H2475 0.951 . S
C2494 C2492 1.388 . S
C2494 C2495 1.366 . S
C2495 C2494 1.366 . S
C2495 C2496 1.414 . S
C2495 C2498 1.499 . S
C2496 H2476 0.950 . S
C2496 C2495 1.414 . S
C2496 C2497 1.374 . S
C2497 H2477 0.950 . S
C2497 C2493 1.385 . S
C2497 C2496 1.374 . S
C2498 C2495 1.499 . S
C2498 C2499 1.373 . S
C2498 C2500 1.389 . S
C2499 H2478 0.950 . S
C2499 C2498 1.373 . S
C2499 C2515 1.377 . S
C2500 C2498 1.389 . S
C2500 C2501 1.524 . S
C2500 C2514 1.377 . S
C2501 C2500 1.524 . S
C2501 C2502 1.397 . S
C2501 C2506 1.363 . S
C2502 H2479 0.950 . S
C2502 C2501 1.397 . S
C2502 C2503 1.334 . S
C2503 H2480 0.950 . S
C2503 C2502 1.334 . S
C2503 C2504 1.287 . S
C2504 C2503 1.287 . S
C2504 C2505 1.524 . S
C2504 H2523 0.913 . S
C2505 H2481 0.950 . S
C2505 C2504 1.524 . S
C2505 C2506 1.415 . S
C2506 H2482 0.950 . S
C2506 C2501 1.363 . S
C2506 C2505 1.415 . S
C2507 H2483 0.951 . S
C2507 C2508 1.366 . S
C2507 C2509 1.388 . S
C2508 C2507 1.366 . S
C2508 C2512 1.385 . S
C2509 H2484 0.951 . S
C2509 C2507 1.388 . S
C2509 C2510 1.366 . S
C2510 C2509 1.366 . S
C2510 C2511 1.414 . S
C2510 C2513 1.499 . S
C2511 H2485 0.950 . S
C2511 C2510 1.414 . S
C2511 C2512 1.374 . S
C2512 H2486 0.950 . S
C2512 C2508 1.385 . S
C2512 C2511 1.374 . S
C2513 C2510 1.499 . S
C2513 C2514 1.373 . S
C2513 C2515 1.389 . S
C2514 H2487 0.950 . S
C2514 C2500 1.377 . S
C2514 C2513 1.373 . S
C2515 C2499 1.377 . S
C2515 C2513 1.389 . S
C2515 C2516 1.524 . S
C2516 C2515 1.524 . S
C2516 C2517 1.397 . S
C2516 C2521 1.363 . S
C2517 H2488 0.950 . S
C2517 C2516 1.397 . S
C2517 C2518 1.334 . S
C2518 H2489 0.950 . S
C2518 C2517 1.334 . S
C2518 C2519 1.287 . S
C2519 C2518 1.287 . S
C2519 C2520 1.524 . S
C2519 H2522 0.999 . S
C2520 H2490 0.950 . S
C2520 C2519 1.524 . S
C2520 C2521 1.415 . S
C2521 H2491 0.950 . S
C2521 C2516 1.363 . S
C2521 C2520 1.415 . S
H2522 C2519 0.999 . S
H2523 C2504 0.913 . S
H2524 C2542 0.951 . S
H2525 C2544 0.951 . S
H2526 C2546 0.950 . S
H2527 C2547 0.950 . S
H2528 C2549 0.950 . S
H2529 C2552 0.950 . S
H2530 C2553 0.950 . S
H2531 C2555 0.950 . S
H2532 C2556 0.950 . S
H2533 C2557 0.951 . S
H2534 C2559 0.951 . S
H2535 C2561 0.950 . S
H2536 C2562 0.950 . S
H2537 C2564 0.950 . S
H2538 C2567 0.950 . S
H2539 C2568 0.950 . S
H2540 C2570 0.950 . S
H2541 C2571 0.950 . S
C2542 H2524 0.951 . S
C2542 C2543 1.366 . S
C2542 C2544 1.388 . S
C2543 C2542 1.366 . S
C2543 C2547 1.385 1_545 S
C2544 H2525 0.951 . S
C2544 C2542 1.388 . S
C2544 C2545 1.373 . S
C2545 C2544 1.373 . S
C2545 C2546 1.404 1_545 S
C2545 C2548 1.500 1_545 S
C2546 H2526 0.950 . S
C2546 C2545 1.404 1_565 S
C2546 C2547 1.374 . S
C2547 H2527 0.950 . S
C2547 C2543 1.385 1_565 S
C2547 C2546 1.374 . S
C2548 C2545 1.500 1_565 S
C2548 C2549 1.375 . S
C2548 C2550 1.387 1_565 S
C2549 H2528 0.950 . S
C2549 C2548 1.375 . S
C2549 C2565 1.377 . S
C2550 C2548 1.387 1_545 S
C2550 C2551 1.524 . S
C2550 C2564 1.377 . S
C2551 C2550 1.524 . S
C2551 C2552 1.397 . S
C2551 C2556 1.363 . S
C2552 H2529 0.950 . S
C2552 C2551 1.397 . S
C2552 C2553 1.334 . S
C2553 H2530 0.950 . S
C2553 C2552 1.334 . S
C2553 C2554 1.287 . S
C2554 C2553 1.287 . S
C2554 C2555 1.524 . S
C2554 H2573 0.913 . S
C2555 H2531 0.950 . S
C2555 C2554 1.524 . S
C2555 C2556 1.415 . S
C2556 H2532 0.950 . S
C2556 C2551 1.363 . S
C2556 C2555 1.415 . S
C2557 H2533 0.951 . S
C2557 C2558 1.366 . S
C2557 C2559 1.388 . S
C2558 C2557 1.366 . S
C2558 C2562 1.385 1_565 S
C2559 H2534 0.951 . S
C2559 C2557 1.388 . S
C2559 C2560 1.366 . S
C2560 C2559 1.366 . S
C2560 C2561 1.414 1_565 S
C2560 C2563 1.499 . S
C2561 H2535 0.950 . S
C2561 C2560 1.414 1_545 S
C2561 C2562 1.374 . S
C2562 H2536 0.950 . S
C2562 C2558 1.385 1_545 S
C2562 C2561 1.374 . S
C2563 C2560 1.499 . S
C2563 C2564 1.373 1_565 S
C2563 C2565 1.389 . S
C2564 H2537 0.950 . S
C2564 C2550 1.377 . S
C2564 C2563 1.373 1_545 S
C2565 C2549 1.377 . S
C2565 C2563 1.389 . S
C2565 C2566 1.524 . S
C2566 C2565 1.524 . S
C2566 C2567 1.397 . S
C2566 C2571 1.363 . S
C2567 H2538 0.950 . S
C2567 C2566 1.397 . S
C2567 C2568 1.334 . S
C2568 H2539 0.950 . S
C2568 C2567 1.334 . S
C2568 C2569 1.287 . S
C2569 C2568 1.287 . S
C2569 C2570 1.524 . S
C2569 H2572 0.999 . S
C2570 H2540 0.950 . S
C2570 C2569 1.524 . S
C2570 C2571 1.415 . S
C2571 H2541 0.950 . S
C2571 C2566 1.363 . S
C2571 C2570 1.415 . S
H2572 C2569 0.999 . S
H2573 C2554 0.913 . S
H2574 C2592 0.951 . S
H2575 C2594 0.951 . S
H2576 C2596 0.950 . S
H2577 C2597 0.950 . S
H2578 C2599 0.950 . S
H2579 C2602 0.950 . S
H2580 C2603 0.995 . S
H2581 C2605 0.950 . S
H2582 C2606 0.950 . S
H2583 C2607 0.951 . S
H2584 C2609 0.951 . S
H2585 C2611 0.950 . S
H2586 C2612 0.950 . S
H2587 C2614 0.950 . S
H2588 C2617 0.950 . S
H2589 C2618 0.950 . S
H2590 C2620 0.950 . S
H2591 C2621 0.950 . S
C2592 H2574 0.951 . S
C2592 C2593 1.366 . S
C2592 C2594 1.388 . S
C2593 C2592 1.366 . S
C2593 C2597 1.385 . S
C2594 H2575 0.951 . S
C2594 C2592 1.388 . S
C2594 C2595 1.366 . S
C2595 C2594 1.366 . S
C2595 C2596 1.414 . S
C2595 C2598 1.499 . S
C2596 H2576 0.950 . S
C2596 C2595 1.414 . S
C2596 C2597 1.374 . S
C2597 H2577 0.950 . S
C2597 C2593 1.385 . S
C2597 C2596 1.374 . S
C2598 C2595 1.499 . S
C2598 C2599 1.373 . S
C2598 C2600 1.389 . S
C2599 H2578 0.950 . S
C2599 C2598 1.373 . S
C2599 C2615 1.377 . S
C2600 C2598 1.389 . S
C2600 C2601 1.524 . S
C2600 C2614 1.377 . S
C2601 C2600 1.524 . S
C2601 C2602 1.397 . S
C2601 C2606 1.363 . S
C2602 H2579 0.950 . S
C2602 C2601 1.397 . S
C2602 C2603 1.308 1_565 S
C2603 H2580 0.995 . S
C2603 C2602 1.308 1_545 S
C2603 C2604 1.269 1_545 S
C2604 C2603 1.269 1_565 S
C2604 C2605 1.524 . S
C2604 H2623 0.913 1_565 S
C2605 H2581 0.950 . S
C2605 C2604 1.524 . S
C2605 C2606 1.415 . S
C2606 H2582 0.950 . S
C2606 C2601 1.363 . S
C2606 C2605 1.415 . S
C2607 H2583 0.951 . S
C2607 C2608 1.366 . S
C2607 C2609 1.388 . S
C2608 C2607 1.366 . S
C2608 C2612 1.385 . S
C2609 H2584 0.951 . S
C2609 C2607 1.388 . S
C2609 C2610 1.366 . S
C2610 C2609 1.366 . S
C2610 C2611 1.414 . S
C2610 C2613 1.499 . S
C2611 H2585 0.950 . S
C2611 C2610 1.414 . S
C2611 C2612 1.374 . S
C2612 H2586 0.950 . S
C2612 C2608 1.385 . S
C2612 C2611 1.374 . S
C2613 C2610 1.499 . S
C2613 C2614 1.373 . S
C2613 C2615 1.389 . S
C2614 H2587 0.950 . S
C2614 C2600 1.377 . S
C2614 C2613 1.373 . S
C2615 C2599 1.377 . S
C2615 C2613 1.389 . S
C2615 C2616 1.524 . S
C2616 C2615 1.524 . S
C2616 C2617 1.397 . S
C2616 C2621 1.363 . S
C2617 H2588 0.950 . S
C2617 C2616 1.397 . S
C2617 C2618 1.334 . S
C2618 H2589 0.950 . S
C2618 C2617 1.334 . S
C2618 C2619 1.287 . S
C2619 C2618 1.287 . S
C2619 C2620 1.524 . S
C2619 H2622 0.999 . S
C2620 H2590 0.950 . S
C2620 C2619 1.524 . S
C2620 C2621 1.415 . S
C2621 H2591 0.950 . S
C2621 C2616 1.363 . S
C2621 C2620 1.415 . S
H2622 C2619 0.999 . S
H2623 C2604 0.913 1_545 S
H2624 C2642 0.951 . S
H2625 C2644 0.951 . S
H2626 C2646 0.950 . S
H2627 C2647 0.950 . S
H2628 C2649 0.950 . S
H2629 C2652 0.950 . S
H2630 C2653 0.950 . S
H2631 C2655 0.950 . S
H2632 C2656 0.950 . S
H2633 C2657 0.951 . S
H2634 C2659 0.951 . S
H2635 C2661 0.950 . S
H2636 C2662 0.950 . S
H2637 C2664 0.950 . S
H2638 C2667 0.950 . S
H2639 C2668 0.950 . S
H2640 C2670 0.950 . S
H2641 C2671 0.950 . S
C2642 H2624 0.951 . S
C2642 C2643 1.366 . S
C2642 C2644 1.388 . S
C2643 C2642 1.366 . S
C2643 C2647 1.385 . S
C2644 H2625 0.951 . S
C2644 C2642 1.388 . S
C2644 C2645 1.366 . S
C2645 C2644 1.366 . S
C2645 C2646 1.414 . S
C2645 C2648 1.499 . S
C2646 H2626 0.950 . S
C2646 C2645 1.414 . S
C2646 C2647 1.374 . S
C2647 H2627 0.950 . S
C2647 C2643 1.385 . S
C2647 C2646 1.374 . S
C2648 C2645 1.499 . S
C2648 C2649 1.373 . S
C2648 C2650 1.389 . S
C2649 H2628 0.950 . S
C2649 C2648 1.373 . S
C2649 C2665 1.377 . S
C2650 C2648 1.389 . S
C2650 C2651 1.524 . S
C2650 C2664 1.377 . S
C2651 C2650 1.524 . S
C2651 C2652 1.397 . S
C2651 C2656 1.363 . S
C2652 H2629 0.950 . S
C2652 C2651 1.397 . S
C2652 C2653 1.334 . S
C2653 H2630 0.950 . S
C2653 C2652 1.334 . S
C2653 C2654 1.287 . S
C2654 C2653 1.287 . S
C2654 C2655 1.524 . S
C2654 H2673 0.913 . S
C2655 H2631 0.950 . S
C2655 C2654 1.524 . S
C2655 C2656 1.415 . S
C2656 H2632 0.950 . S
C2656 C2651 1.363 . S
C2656 C2655 1.415 . S
C2657 H2633 0.951 . S
C2657 C2658 1.366 . S
C2657 C2659 1.388 . S
C2658 C2657 1.366 . S
C2658 C2662 1.385 . S
C2659 H2634 0.951 . S
C2659 C2657 1.388 . S
C2659 C2660 1.366 . S
C2660 C2659 1.366 . S
C2660 C2661 1.414 . S
C2660 C2663 1.499 . S
C2661 H2635 0.950 . S
C2661 C2660 1.414 . S
C2661 C2662 1.374 . S
C2662 H2636 0.950 . S
C2662 C2658 1.385 . S
C2662 C2661 1.374 . S
C2663 C2660 1.499 . S
C2663 C2664 1.373 . S
C2663 C2665 1.389 . S
C2664 H2637 0.950 . S
C2664 C2650 1.377 . S
C2664 C2663 1.373 . S
C2665 C2649 1.377 . S
C2665 C2663 1.389 . S
C2665 C2666 1.524 . S
C2666 C2665 1.524 . S
C2666 C2667 1.397 . S
C2666 C2671 1.363 . S
C2667 H2638 0.950 . S
C2667 C2666 1.397 . S
C2667 C2668 1.334 . S
C2668 H2639 0.950 . S
C2668 C2667 1.334 . S
C2668 C2669 1.287 . S
C2669 C2668 1.287 . S
C2669 C2670 1.524 . S
C2669 H2672 0.999 . S
C2670 H2640 0.950 . S
C2670 C2669 1.524 . S
C2670 C2671 1.415 . S
C2671 H2641 0.950 . S
C2671 C2666 1.363 . S
C2671 C2670 1.415 . S
H2672 C2669 0.999 . S
H2673 C2654 0.913 . S
H2674 C2692 0.951 . S
H2675 C2694 0.951 . S
H2676 C2696 0.950 . S
H2677 C2697 0.950 . S
H2678 C2699 0.950 . S
H2679 C2702 0.950 . S
H2680 C2703 0.950 . S
H2681 C2705 0.950 . S
H2682 C2706 0.950 . S
H2683 C2707 0.951 . S
H2684 C2709 0.951 . S
H2685 C2711 0.950 . S
H2686 C2712 0.950 . S
H2687 C2714 0.950 . S
H2688 C2717 0.950 . S
H2689 C2718 0.950 . S
H2690 C2720 0.954 . S
H2691 C2721 0.950 . S
C2692 H2674 0.951 . S
C2692 C2693 1.366 . S
C2692 C2694 1.388 . S
C2693 C2692 1.366 . S
C2693 C2697 1.385 . S
C2694 H2675 0.951 . S
C2694 C2692 1.388 . S
C2694 C2695 1.366 . S
C2695 C2694 1.366 . S
C2695 C2696 1.414 . S
C2695 C2698 1.499 . S
C2696 H2676 0.950 . S
C2696 C2695 1.414 . S
C2696 C2697 1.374 . S
C2697 H2677 0.950 . S
C2697 C2693 1.385 . S
C2697 C2696 1.374 . S
C2698 C2695 1.499 . S
C2698 C2699 1.373 . S
C2698 C2700 1.389 . S
C2699 H2678 0.950 . S
C2699 C2698 1.373 . S
C2699 C2715 1.377 . S
C2700 C2698 1.389 . S
C2700 C2701 1.524 . S
C2700 C2714 1.377 . S
C2701 C2700 1.524 . S
C2701 C2702 1.397 . S
C2701 C2706 1.363 . S
C2702 H2679 0.950 . S
C2702 C2701 1.397 . S
C2702 C2703 1.334 . S
C2703 H2680 0.950 . S
C2703 C2702 1.334 . S
C2703 C2704 1.287 . S
C2704 C2703 1.287 . S
C2704 C2705 1.524 . S
C2704 H2723 0.913 . S
C2705 H2681 0.950 . S
C2705 C2704 1.524 . S
C2705 C2706 1.415 . S
C2706 H2682 0.950 . S
C2706 C2701 1.363 . S
C2706 C2705 1.415 . S
C2707 H2683 0.951 . S
C2707 C2708 1.366 . S
C2707 C2709 1.388 . S
C2708 C2707 1.366 . S
C2708 C2712 1.385 . S
C2709 H2684 0.951 . S
C2709 C2707 1.388 . S
C2709 C2710 1.366 . S
C2710 C2709 1.366 . S
C2710 C2711 1.414 . S
C2710 C2713 1.499 . S
C2711 H2685 0.950 . S
C2711 C2710 1.414 . S
C2711 C2712 1.374 . S
C2712 H2686 0.950 . S
C2712 C2708 1.385 . S
C2712 C2711 1.374 . S
C2713 C2710 1.499 . S
C2713 C2714 1.373 . S
C2713 C2715 1.389 . S
C2714 H2687 0.950 . S
C2714 C2700 1.377 . S
C2714 C2713 1.373 . S
C2715 C2699 1.377 . S
C2715 C2713 1.389 . S
C2715 C2716 1.524 . S
C2716 C2715 1.524 . S
C2716 C2717 1.397 . S
C2716 C2721 1.363 . S
C2717 H2688 0.950 . S
C2717 C2716 1.397 . S
C2717 C2718 1.334 . S
C2718 H2689 0.950 . S
C2718 C2717 1.334 . S
C2718 C2719 1.277 1_556 S
C2719 C2718 1.277 1_554 S
C2719 C2720 1.512 1_554 S
C2719 H2722 1.022 . S
C2720 H2690 0.954 . S
C2720 C2719 1.512 1_556 S
C2720 C2721 1.415 . S
C2721 H2691 0.950 . S
C2721 C2716 1.363 . S
C2721 C2720 1.415 . S
H2722 C2719 1.022 . S
H2723 C2704 0.913 . S
H2724 C2742 0.951 . S
H2725 C2744 0.951 . S
H2726 C2746 0.950 . S
H2727 C2747 0.950 . S
H2728 C2749 0.950 . S
H2729 C2752 0.950 . S
H2730 C2753 0.950 . S
H2731 C2755 0.950 . S
H2732 C2756 0.950 . S
H2733 C2757 0.951 . S
H2734 C2759 0.951 . S
H2735 C2761 0.950 . S
H2736 C2762 0.950 . S
H2737 C2764 0.950 . S
H2738 C2767 0.950 . S
H2739 C2768 0.950 . S
H2740 C2770 0.950 . S
H2741 C2771 0.950 . S
C2742 H2724 0.951 . S
C2742 C2743 1.366 . S
C2742 C2744 1.388 . S
C2743 C2742 1.366 . S
C2743 C2747 1.385 . S
C2744 H2725 0.951 . S
C2744 C2742 1.388 . S
C2744 C2745 1.366 . S
C2745 C2744 1.366 . S
C2745 C2746 1.414 . S
C2745 C2748 1.499 . S
C2746 H2726 0.950 . S
C2746 C2745 1.414 . S
C2746 C2747 1.374 . S
C2747 H2727 0.950 . S
C2747 C2743 1.385 . S
C2747 C2746 1.374 . S
C2748 C2745 1.499 . S
C2748 C2749 1.373 . S
C2748 C2750 1.389 . S
C2749 H2728 0.950 . S
C2749 C2748 1.373 . S
C2749 C2765 1.377 . S
C2750 C2748 1.389 . S
C2750 C2751 1.524 . S
C2750 C2764 1.377 . S
C2751 C2750 1.524 . S
C2751 C2752 1.397 . S
C2751 C2756 1.363 . S
C2752 H2729 0.950 . S
C2752 C2751 1.397 . S
C2752 C2753 1.334 . S
C2753 H2730 0.950 . S
C2753 C2752 1.334 . S
C2753 C2754 1.287 . S
C2754 C2753 1.287 . S
C2754 C2755 1.524 . S
C2754 H2773 0.913 . S
C2755 H2731 0.950 . S
C2755 C2754 1.524 . S
C2755 C2756 1.415 . S
C2756 H2732 0.950 . S
C2756 C2751 1.363 . S
C2756 C2755 1.415 . S
C2757 H2733 0.951 . S
C2757 C2758 1.366 . S
C2757 C2759 1.388 . S
C2758 C2757 1.366 . S
C2758 C2762 1.385 . S
C2759 H2734 0.951 . S
C2759 C2757 1.388 . S
C2759 C2760 1.366 . S
C2760 C2759 1.366 . S
C2760 C2761 1.414 . S
C2760 C2763 1.499 . S
C2761 H2735 0.950 . S
C2761 C2760 1.414 . S
C2761 C2762 1.374 . S
C2762 H2736 0.950 . S
C2762 C2758 1.385 . S
C2762 C2761 1.374 . S
C2763 C2760 1.499 . S
C2763 C2764 1.373 . S
C2763 C2765 1.389 . S
C2764 H2737 0.950 . S
C2764 C2750 1.377 . S
C2764 C2763 1.373 . S
C2765 C2749 1.377 . S
C2765 C2763 1.389 . S
C2765 C2766 1.524 . S
C2766 C2765 1.524 . S
C2766 C2767 1.397 . S
C2766 C2771 1.363 . S
C2767 H2738 0.950 . S
C2767 C2766 1.397 . S
C2767 C2768 1.334 . S
C2768 H2739 0.950 . S
C2768 C2767 1.334 . S
C2768 C2769 1.287 . S
C2769 C2768 1.287 . S
C2769 C2770 1.524 . S
C2769 H2772 0.999 . S
C2770 H2740 0.950 . S
C2770 C2769 1.524 . S
C2770 C2771 1.415 . S
C2771 H2741 0.950 . S
C2771 C2766 1.363 . S
C2771 C2770 1.415 . S
H2772 C2769 0.999 . S
H2773 C2754 0.913 . S
H2774 C2792 0.951 . S
H2775 C2794 0.951 . S
H2776 C2796 0.950 . S
H2777 C2797 0.950 . S
H2778 C2799 0.950 . S
H2779 C2802 0.950 1_556 S
H2780 C2803 0.950 . S
H2781 C2805 0.950 . S
H2782 C2806 0.950 . S
H2783 C2807 0.951 . S
H2784 C2809 0.951 . S
H2785 C2811 0.950 . S
H2786 C2812 0.950 . S
H2787 C2814 0.950 . S
H2788 C2817 0.955 1_554 S
H2789 C2818 0.950 . S
H2790 C2820 0.950 . S
H2791 C2821 0.950 . S
C2792 H2774 0.951 . S
C2792 C2793 1.367 . S
C2792 C2794 1.388 . S
C2793 C2792 1.367 . S
C2793 C2797 1.384 1_554 S
C2794 H2775 0.951 . S
C2794 C2792 1.388 . S
C2794 C2795 1.347 1_554 S
C2795 C2794 1.347 1_556 S
C2795 C2796 1.435 . S
C2795 C2798 1.498 . S
C2796 H2776 0.950 . S
C2796 C2795 1.435 . S
C2796 C2797 1.374 . S
C2797 H2777 0.950 . S
C2797 C2793 1.384 1_556 S
C2797 C2796 1.374 . S
C2798 C2795 1.498 . S
C2798 C2799 1.373 . S
C2798 C2800 1.389 1_556 S
C2799 H2778 0.950 . S
C2799 C2798 1.373 . S
C2799 C2815 1.377 . S
C2800 C2798 1.389 1_554 S
C2800 C2801 1.524 . S
C2800 C2814 1.377 . S
C2801 C2800 1.524 . S
C2801 C2802 1.397 . S
C2801 C2806 1.363 . S
C2802 H2779 0.950 1_554 S
C2802 C2801 1.397 . S
C2802 C2803 1.334 . S
C2803 H2780 0.950 . S
C2803 C2802 1.334 . S
C2803 C2804 1.287 . S
C2804 C2803 1.287 . S
C2804 C2805 1.524 . S
C2804 H2823 0.913 . S
C2805 H2781 0.950 . S
C2805 C2804 1.524 . S
C2805 C2806 1.415 . S
C2806 H2782 0.950 . S
C2806 C2801 1.363 . S
C2806 C2805 1.415 . S
C2807 H2783 0.951 . S
C2807 C2808 1.366 . S
C2807 C2809 1.388 . S
C2808 C2807 1.366 . S
C2808 C2812 1.385 1_556 S
C2809 H2784 0.951 . S
C2809 C2807 1.388 . S
C2809 C2810 1.366 . S
C2810 C2809 1.366 . S
C2810 C2811 1.414 1_556 S
C2810 C2813 1.498 . S
C2811 H2785 0.950 . S
C2811 C2810 1.414 1_554 S
C2811 C2812 1.374 . S
C2812 H2786 0.950 . S
C2812 C2808 1.385 1_554 S
C2812 C2811 1.374 . S
C2813 C2810 1.498 . S
C2813 C2814 1.354 1_556 S
C2813 C2815 1.412 . S
C2814 H2787 0.950 . S
C2814 C2800 1.377 . S
C2814 C2813 1.354 1_554 S
C2815 C2799 1.377 . S
C2815 C2813 1.412 . S
C2815 C2816 1.524 . S
C2816 C2815 1.524 . S
C2816 C2817 1.397 . S
C2816 C2821 1.363 . S
C2817 H2788 0.955 1_556 S
C2817 C2816 1.397 . S
C2817 C2818 1.334 . S
C2818 H2789 0.950 . S
C2818 C2817 1.334 . S
C2818 C2819 1.287 . S
C2819 C2818 1.287 . S
C2819 C2820 1.524 . S
C2819 H2822 0.999 . S
C2820 H2790 0.950 . S
C2820 C2819 1.524 . S
C2820 C2821 1.415 . S
C2821 H2791 0.950 . S
C2821 C2816 1.363 . S
C2821 C2820 1.415 . S
H2822 C2819 0.999 . S
H2823 C2804 0.913 . S
H2824 C2842 0.951 . S
H2825 C2844 0.951 . S
H2826 C2846 0.950 . S
H2827 C2847 0.950 . S
H2828 C2849 0.950 . S
H2829 C2852 0.950 . S
H2830 C2853 0.950 . S
H2831 C2855 0.950 . S
H2832 C2856 0.950 . S
H2833 C2857 0.951 . S
H2834 C2859 0.951 . S
H2835 C2861 0.950 . S
H2836 C2862 0.950 . S
H2837 C2864 0.950 . S
H2838 C2867 0.950 . S
H2839 C2868 0.950 . S
H2840 C2870 0.950 . S
H2841 C2871 0.950 . S
C2842 H2824 0.951 . S
C2842 C2843 1.366 . S
C2842 C2844 1.388 . S
C2843 C2842 1.366 . S
C2843 C2847 1.385 . S
C2844 H2825 0.951 . S
C2844 C2842 1.388 . S
C2844 C2845 1.366 . S
C2845 C2844 1.366 . S
C2845 C2846 1.414 . S
C2845 C2848 1.499 . S
C2846 H2826 0.950 . S
C2846 C2845 1.414 . S
C2846 C2847 1.374 . S
C2847 H2827 0.950 . S
C2847 C2843 1.385 . S
C2847 C2846 1.374 . S
C2848 C2845 1.499 . S
C2848 C2849 1.373 . S
C2848 C2850 1.389 . S
C2849 H2828 0.950 . S
C2849 C2848 1.373 . S
C2849 C2865 1.377 . S
C2850 C2848 1.389 . S
C2850 C2851 1.524 . S
C2850 C2864 1.377 . S
C2851 C2850 1.524 . S
C2851 C2852 1.397 . S
C2851 C2856 1.363 . S
C2852 H2829 0.950 . S
C2852 C2851 1.397 . S
C2852 C2853 1.334 . S
C2853 H2830 0.950 . S
C2853 C2852 1.334 . S
C2853 C2854 1.287 . S
C2854 C2853 1.287 . S
C2854 C2855 1.524 . S
C2854 H2873 0.913 . S
C2855 H2831 0.950 . S
C2855 C2854 1.524 . S
C2855 C2856 1.415 . S
C2856 H2832 0.950 . S
C2856 C2851 1.363 . S
C2856 C2855 1.415 . S
C2857 H2833 0.951 . S
C2857 C2858 1.366 . S
C2857 C2859 1.388 . S
C2858 C2857 1.366 . S
C2858 C2862 1.385 . S
C2859 H2834 0.951 . S
C2859 C2857 1.388 . S
C2859 C2860 1.366 . S
C2860 C2859 1.366 . S
C2860 C2861 1.414 . S
C2860 C2863 1.499 . S
C2861 H2835 0.950 . S
C2861 C2860 1.414 . S
C2861 C2862 1.374 . S
C2862 H2836 0.950 . S
C2862 C2858 1.385 . S
C2862 C2861 1.374 . S
C2863 C2860 1.499 . S
C2863 C2864 1.373 . S
C2863 C2865 1.389 . S
C2864 H2837 0.950 . S
C2864 C2850 1.377 . S
C2864 C2863 1.373 . S
C2865 C2849 1.377 . S
C2865 C2863 1.389 . S
C2865 C2866 1.524 . S
C2866 C2865 1.524 . S
C2866 C2867 1.397 . S
C2866 C2871 1.363 . S
C2867 H2838 0.950 . S
C2867 C2866 1.397 . S
C2867 C2868 1.334 . S
C2868 H2839 0.950 . S
C2868 C2867 1.334 . S
C2868 C2869 1.287 . S
C2869 C2868 1.287 . S
C2869 C2870 1.524 . S
C2869 H2872 0.999 . S
C2870 H2840 0.950 . S
C2870 C2869 1.524 . S
C2870 C2871 1.415 . S
C2871 H2841 0.950 . S
C2871 C2866 1.363 . S
C2871 C2870 1.415 . S
H2872 C2869 0.999 . S
H2873 C2854 0.913 . S
H2874 C2892 0.951 . S
H2875 C2894 0.951 . S
H2876 C2896 0.950 . S
H2877 C2897 0.950 . S
H2878 C2899 0.950 . S
H2879 C2902 0.950 . S
H2880 C2903 0.950 . S
H2881 C2905 0.950 . S
H2882 C2906 0.939 1_655 S
H2883 C2907 0.951 . S
H2884 C2909 0.951 . S
H2885 C2911 0.950 . S
H2886 C2912 0.950 . S
H2887 C2914 0.950 . S
H2888 C2917 0.950 . S
H2889 C2918 0.950 . S
H2890 C2920 0.950 . S
H2891 C2921 0.950 . S
C2892 H2874 0.951 . S
C2892 C2893 1.366 . S
C2892 C2894 1.388 . S
C2893 C2892 1.366 . S
C2893 C2897 1.385 . S
C2894 H2875 0.951 . S
C2894 C2892 1.388 . S
C2894 C2895 1.366 . S
C2895 C2894 1.366 . S
C2895 C2896 1.414 . S
C2895 C2898 1.499 . S
C2896 H2876 0.950 . S
C2896 C2895 1.414 . S
C2896 C2897 1.374 . S
C2897 H2877 0.950 . S
C2897 C2893 1.385 . S
C2897 C2896 1.374 . S
C2898 C2895 1.499 . S
C2898 C2899 1.373 . S
C2898 C2900 1.389 . S
C2899 H2878 0.950 . S
C2899 C2898 1.373 . S
C2899 C2915 1.377 . S
C2900 C2898 1.389 . S
C2900 C2901 1.524 . S
C2900 C2914 1.377 . S
C2901 C2900 1.524 . S
C2901 C2902 1.397 . S
C2901 C2906 1.363 1_655 S
C2902 H2879 0.950 . S
C2902 C2901 1.397 . S
C2902 C2903 1.334 1_655 S
C2903 H2880 0.950 . S
C2903 C2902 1.334 1_455 S
C2903 C2904 1.287 . S
C2904 C2903 1.287 . S
C2904 C2905 1.524 . S
C2904 H2923 0.913 . S
C2905 H2881 0.950 . S
C2905 C2904 1.524 . S
C2905 C2906 1.415 . S
C2906 H2882 0.939 1_455 S
C2906 C2901 1.363 1_455 S
C2906 C2905 1.415 . S
C2907 H2883 0.951 . S
C2907 C2908 1.366 . S
C2907 C2909 1.388 . S
C2908 C2907 1.366 . S
C2908 C2912 1.385 . S
C2909 H2884 0.951 . S
C2909 C2907 1.388 . S
C2909 C2910 1.366 . S
C2910 C2909 1.366 . S
C2910 C2911 1.414 . S
C2910 C2913 1.499 . S
C2911 H2885 0.950 . S
C2911 C2910 1.414 . S
C2911 C2912 1.374 . S
C2912 H2886 0.950 . S
C2912 C2908 1.385 . S
C2912 C2911 1.374 . S
C2913 C2910 1.499 . S
C2913 C2914 1.373 . S
C2913 C2915 1.389 . S
C2914 H2887 0.950 . S
C2914 C2900 1.377 . S
C2914 C2913 1.373 . S
C2915 C2899 1.377 . S
C2915 C2913 1.389 . S
C2915 C2916 1.524 . S
C2916 C2915 1.524 . S
C2916 C2917 1.397 . S
C2916 C2921 1.363 . S
C2917 H2888 0.950 . S
C2917 C2916 1.397 . S
C2917 C2918 1.334 . S
C2918 H2889 0.950 . S
C2918 C2917 1.334 . S
C2918 C2919 1.287 . S
C2919 C2918 1.287 . S
C2919 C2920 1.524 . S
C2919 H2922 0.999 . S
C2920 H2890 0.950 . S
C2920 C2919 1.524 . S
C2920 C2921 1.415 . S
C2921 H2891 0.950 . S
C2921 C2916 1.363 . S
C2921 C2920 1.415 . S
H2922 C2919 0.999 . S
H2923 C2904 0.913 . S
H2924 C2942 0.951 . S
H2925 C2944 0.951 . S
H2926 C2946 0.950 . S
H2927 C2947 0.950 . S
H2928 C2949 0.950 . S
H2929 C2952 0.950 . S
H2930 C2953 0.950 . S
H2931 C2955 0.950 . S
H2932 C2956 0.950 . S
H2933 C2957 0.951 . S
H2934 C2959 0.951 . S
H2935 C2961 0.950 . S
H2936 C2962 0.950 . S
H2937 C2964 0.950 . S
H2938 C2967 0.950 . S
H2939 C2968 0.950 . S
H2940 C2970 0.950 . S
H2941 C2971 0.950 . S
C2942 H2924 0.951 . S
C2942 C2943 1.366 . S
C2942 C2944 1.388 . S
C2943 C2942 1.366 . S
C2943 C2947 1.385 . S
C2944 H2925 0.951 . S
C2944 C2942 1.388 . S
C2944 C2945 1.366 . S
C2945 C2944 1.366 . S
C2945 C2946 1.414 . S
C2945 C2948 1.499 . S
C2946 H2926 0.950 . S
C2946 C2945 1.414 . S
C2946 C2947 1.374 . S
C2947 H2927 0.950 . S
C2947 C2943 1.385 . S
C2947 C2946 1.374 . S
C2948 C2945 1.499 . S
C2948 C2949 1.373 . S
C2948 C2950 1.389 . S
C2949 H2928 0.950 . S
C2949 C2948 1.373 . S
C2949 C2965 1.377 . S
C2950 C2948 1.389 . S
C2950 C2951 1.524 . S
C2950 C2964 1.377 . S
C2951 C2950 1.524 . S
C2951 C2952 1.397 . S
C2951 C2956 1.363 . S
C2952 H2929 0.950 . S
C2952 C2951 1.397 . S
C2952 C2953 1.334 . S
C2953 H2930 0.950 . S
C2953 C2952 1.334 . S
C2953 C2954 1.287 . S
C2954 C2953 1.287 . S
C2954 C2955 1.524 . S
C2954 H2973 0.913 . S
C2955 H2931 0.950 . S
C2955 C2954 1.524 . S
C2955 C2956 1.415 . S
C2956 H2932 0.950 . S
C2956 C2951 1.363 . S
C2956 C2955 1.415 . S
C2957 H2933 0.951 . S
C2957 C2958 1.366 . S
C2957 C2959 1.388 . S
C2958 C2957 1.366 . S
C2958 C2962 1.385 . S
C2959 H2934 0.951 . S
C2959 C2957 1.388 . S
C2959 C2960 1.366 . S
C2960 C2959 1.366 . S
C2960 C2961 1.414 . S
C2960 C2963 1.499 . S
C2961 H2935 0.950 . S
C2961 C2960 1.414 . S
C2961 C2962 1.374 . S
C2962 H2936 0.950 . S
C2962 C2958 1.385 . S
C2962 C2961 1.374 . S
C2963 C2960 1.499 . S
C2963 C2964 1.373 . S
C2963 C2965 1.389 . S
C2964 H2937 0.950 . S
C2964 C2950 1.377 . S
C2964 C2963 1.373 . S
C2965 C2949 1.377 . S
C2965 C2963 1.389 . S
C2965 C2966 1.524 . S
C2966 C2965 1.524 . S
C2966 C2967 1.397 . S
C2966 C2971 1.363 . S
C2967 H2938 0.950 . S
C2967 C2966 1.397 . S
C2967 C2968 1.334 1_565 S
C2968 H2939 0.950 . S
C2968 C2967 1.334 1_545 S
C2968 C2969 1.287 . S
C2969 C2968 1.287 . S
C2969 C2970 1.524 . S
C2969 H2972 0.999 . S
C2970 H2940 0.950 . S
C2970 C2969 1.524 . S
C2970 C2971 1.415 1_545 S
C2971 H2941 0.950 . S
C2971 C2966 1.363 . S
C2971 C2970 1.415 1_565 S
H2972 C2969 0.999 . S
H2973 C2954 0.913 . S
H2974 C2992 0.951 . S
H2975 C2994 0.951 . S
H2976 C2996 0.950 . S
H2977 C2997 0.950 . S
H2978 C2999 0.950 . S
H2979 C3002 0.950 . S
H2980 C3003 0.950 . S
H2981 C3005 0.950 . S
H2982 C3006 0.950 . S
H2983 C3007 0.951 . S
H2984 C3009 0.951 . S
H2985 C3011 0.950 . S
H2986 C3012 0.950 . S
H2987 C3014 0.950 . S
H2988 C3017 0.950 . S
H2989 C3018 0.950 . S
H2990 C3020 0.950 . S
H2991 C3021 0.950 . S
C2992 H2974 0.951 . S
C2992 C2993 1.366 . S
C2992 C2994 1.388 . S
C2993 C2992 1.366 . S
C2993 C2997 1.385 1_455 S
C2994 H2975 0.951 . S
C2994 C2992 1.388 . S
C2994 C2995 1.373 . S
C2995 C2994 1.373 . S
C2995 C2996 1.404 1_455 S
C2995 C2998 1.500 1_455 S
C2996 H2976 0.950 . S
C2996 C2995 1.404 1_655 S
C2996 C2997 1.374 . S
C2997 H2977 0.950 . S
C2997 C2993 1.385 1_655 S
C2997 C2996 1.374 . S
C2998 C2995 1.500 1_655 S
C2998 C2999 1.374 . S
C2998 C3000 1.389 1_655 S
C2999 H2978 0.950 . S
C2999 C2998 1.374 . S
C2999 C3015 1.377 . S
C3000 C2998 1.389 1_455 S
C3000 C3001 1.524 . S
C3000 C3014 1.377 . S
C3001 C3000 1.524 . S
C3001 C3002 1.397 . S
C3001 C3006 1.363 . S
C3002 H2979 0.950 . S
C3002 C3001 1.397 . S
C3002 C3003 1.334 . S
C3003 H2980 0.950 . S
C3003 C3002 1.334 . S
C3003 C3004 1.287 . S
C3004 C3003 1.287 . S
C3004 C3005 1.524 . S
C3004 H3023 0.913 . S
C3005 H2981 0.950 . S
C3005 C3004 1.524 . S
C3005 C3006 1.415 . S
C3006 H2982 0.950 . S
C3006 C3001 1.363 . S
C3006 C3005 1.415 . S
C3007 H2983 0.951 . S
C3007 C3008 1.366 . S
C3007 C3009 1.388 . S
C3008 C3007 1.366 . S
C3008 C3012 1.385 1_655 S
C3009 H2984 0.951 . S
C3009 C3007 1.388 . S
C3009 C3010 1.366 . S
C3010 C3009 1.366 . S
C3010 C3011 1.414 1_655 S
C3010 C3013 1.499 . S
C3011 H2985 0.950 . S
C3011 C3010 1.414 1_455 S
C3011 C3012 1.374 . S
C3012 H2986 0.950 . S
C3012 C3008 1.385 1_455 S
C3012 C3011 1.374 . S
C3013 C3010 1.499 . S
C3013 C3014 1.373 1_655 S
C3013 C3015 1.389 . S
C3014 H2987 0.950 . S
C3014 C3000 1.377 . S
C3014 C3013 1.373 1_455 S
C3015 C2999 1.377 . S
C3015 C3013 1.389 . S
C3015 C3016 1.524 . S
C3016 C3015 1.524 . S
C3016 C3017 1.397 . S
C3016 C3021 1.363 . S
C3017 H2988 0.950 . S
C3017 C3016 1.397 . S
C3017 C3018 1.334 . S
C3018 H2989 0.950 . S
C3018 C3017 1.334 . S
C3018 C3019 1.287 . S
C3019 C3018 1.287 . S
C3019 C3020 1.524 . S
C3019 H3022 0.999 . S
C3020 H2990 0.950 . S
C3020 C3019 1.524 . S
C3020 C3021 1.415 . S
C3021 H2991 0.950 . S
C3021 C3016 1.363 . S
C3021 C3020 1.415 . S
H3022 C3019 0.999 . S
H3023 C3004 0.913 . S
H3024 C3042 0.951 . S
H3025 C3044 0.951 . S
H3026 C3046 0.950 . S
H3027 C3047 0.950 . S
H3028 C3049 0.950 . S
H3029 C3052 0.950 . S
H3030 C3053 0.950 . S
H3031 C3055 0.950 . S
H3032 C3056 0.950 . S
H3033 C3057 0.951 . S
H3034 C3059 0.951 . S
H3035 C3061 0.950 . S
H3036 C3062 0.950 . S
H3037 C3064 0.950 . S
H3038 C3067 0.950 . S
H3039 C3068 0.950 . S
H3040 C3070 0.950 . S
H3041 C3071 0.950 . S
C3042 H3024 0.951 . S
C3042 C3043 1.366 . S
C3042 C3044 1.388 . S
C3043 C3042 1.366 . S
C3043 C3047 1.385 . S
C3044 H3025 0.951 . S
C3044 C3042 1.388 . S
C3044 C3045 1.366 . S
C3045 C3044 1.366 . S
C3045 C3046 1.414 . S
C3045 C3048 1.499 . S
C3046 H3026 0.950 . S
C3046 C3045 1.414 . S
C3046 C3047 1.374 . S
C3047 H3027 0.950 . S
C3047 C3043 1.385 . S
C3047 C3046 1.374 . S
C3048 C3045 1.499 . S
C3048 C3049 1.373 . S
C3048 C3050 1.389 . S
C3049 H3028 0.950 . S
C3049 C3048 1.373 . S
C3049 C3065 1.377 . S
C3050 C3048 1.389 . S
C3050 C3051 1.524 . S
C3050 C3064 1.377 . S
C3051 C3050 1.524 . S
C3051 C3052 1.397 . S
C3051 C3056 1.363 . S
C3052 H3029 0.950 . S
C3052 C3051 1.397 . S
C3052 C3053 1.334 . S
C3053 H3030 0.950 . S
C3053 C3052 1.334 . S
C3053 C3054 1.287 . S
C3054 C3053 1.287 . S
C3054 C3055 1.524 . S
C3054 H3073 0.913 . S
C3055 H3031 0.950 . S
C3055 C3054 1.524 . S
C3055 C3056 1.415 . S
C3056 H3032 0.950 . S
C3056 C3051 1.363 . S
C3056 C3055 1.415 . S
C3057 H3033 0.951 . S
C3057 C3058 1.366 . S
C3057 C3059 1.388 . S
C3058 C3057 1.366 . S
C3058 C3062 1.385 . S
C3059 H3034 0.951 . S
C3059 C3057 1.388 . S
C3059 C3060 1.366 . S
C3060 C3059 1.366 . S
C3060 C3061 1.414 . S
C3060 C3063 1.499 . S
C3061 H3035 0.950 . S
C3061 C3060 1.414 . S
C3061 C3062 1.374 . S
C3062 H3036 0.950 . S
C3062 C3058 1.385 . S
C3062 C3061 1.374 . S
C3063 C3060 1.499 . S
C3063 C3064 1.373 . S
C3063 C3065 1.389 . S
C3064 H3037 0.950 . S
C3064 C3050 1.377 . S
C3064 C3063 1.373 . S
C3065 C3049 1.377 . S
C3065 C3063 1.389 . S
C3065 C3066 1.524 . S
C3066 C3065 1.524 . S
C3066 C3067 1.397 . S
C3066 C3071 1.363 . S
C3067 H3038 0.950 . S
C3067 C3066 1.397 . S
C3067 C3068 1.334 . S
C3068 H3039 0.950 . S
C3068 C3067 1.334 . S
C3068 C3069 1.287 . S
C3069 C3068 1.287 . S
C3069 C3070 1.524 . S
C3069 H3072 0.999 . S
C3070 H3040 0.950 . S
C3070 C3069 1.524 . S
C3070 C3071 1.415 . S
C3071 H3041 0.950 . S
C3071 C3066 1.363 . S
C3071 C3070 1.415 . S
H3072 C3069 0.999 . S
H3073 C3054 0.913 . S
H3074 C3092 0.951 . S
H3075 C3094 0.951 . S
H3076 C3096 0.950 . S
H3077 C3097 0.950 . S
H3078 C3099 0.950 . S
H3079 C3102 0.950 . S
H3080 C3103 0.950 . S
H3081 C3105 0.950 . S
H3082 C3106 0.950 . S
H3083 C3107 0.951 . S
H3084 C3109 0.951 . S
H3085 C3111 0.950 . S
H3086 C3112 0.950 . S
H3087 C3114 0.950 . S
H3088 C3117 0.950 . S
H3089 C3118 0.950 . S
H3090 C3120 0.950 . S
H3091 C3121 0.950 . S
C3092 H3074 0.951 . S
C3092 C3093 1.366 . S
C3092 C3094 1.388 . S
C3093 C3092 1.366 . S
C3093 C3097 1.385 . S
C3094 H3075 0.951 . S
C3094 C3092 1.388 . S
C3094 C3095 1.366 . S
C3095 C3094 1.366 . S
C3095 C3096 1.414 . S
C3095 C3098 1.499 . S
C3096 H3076 0.950 . S
C3096 C3095 1.414 . S
C3096 C3097 1.374 . S
C3097 H3077 0.950 . S
C3097 C3093 1.385 . S
C3097 C3096 1.374 . S
C3098 C3095 1.499 . S
C3098 C3099 1.373 . S
C3098 C3100 1.389 . S
C3099 H3078 0.950 . S
C3099 C3098 1.373 . S
C3099 C3115 1.377 . S
C3100 C3098 1.389 . S
C3100 C3101 1.524 . S
C3100 C3114 1.377 . S
C3101 C3100 1.524 . S
C3101 C3102 1.397 . S
C3101 C3106 1.363 . S
C3102 H3079 0.950 . S
C3102 C3101 1.397 . S
C3102 C3103 1.334 . S
C3103 H3080 0.950 . S
C3103 C3102 1.334 . S
C3103 C3104 1.287 . S
C3104 C3103 1.287 . S
C3104 C3105 1.524 . S
C3104 H3123 0.913 . S
C3105 H3081 0.950 . S
C3105 C3104 1.524 . S
C3105 C3106 1.415 . S
C3106 H3082 0.950 . S
C3106 C3101 1.363 . S
C3106 C3105 1.415 . S
C3107 H3083 0.951 . S
C3107 C3108 1.366 . S
C3107 C3109 1.388 . S
C3108 C3107 1.366 . S
C3108 C3112 1.385 . S
C3109 H3084 0.951 . S
C3109 C3107 1.388 . S
C3109 C3110 1.366 . S
C3110 C3109 1.366 . S
C3110 C3111 1.414 . S
C3110 C3113 1.499 . S
C3111 H3085 0.950 . S
C3111 C3110 1.414 . S
C3111 C3112 1.374 . S
C3112 H3086 0.950 . S
C3112 C3108 1.385 . S
C3112 C3111 1.374 . S
C3113 C3110 1.499 . S
C3113 C3114 1.373 . S
C3113 C3115 1.389 . S
C3114 H3087 0.950 . S
C3114 C3100 1.377 . S
C3114 C3113 1.373 . S
C3115 C3099 1.377 . S
C3115 C3113 1.389 . S
C3115 C3116 1.524 . S
C3116 C3115 1.524 . S
C3116 C3117 1.397 . S
C3116 C3121 1.363 . S
C3117 H3088 0.950 . S
C3117 C3116 1.397 . S
C3117 C3118 1.334 . S
C3118 H3089 0.950 . S
C3118 C3117 1.334 . S
C3118 C3119 1.287 . S
C3119 C3118 1.287 . S
C3119 C3120 1.524 . S
C3119 H3122 0.999 . S
C3120 H3090 0.950 . S
C3120 C3119 1.524 . S
C3120 C3121 1.415 . S
C3121 H3091 0.950 . S
C3121 C3116 1.363 . S
C3121 C3120 1.415 . S
H3122 C3119 0.999 . S
H3123 C3104 0.913 . S
H3124 C3142 0.951 . S
H3125 C3144 0.951 . S
H3126 C3146 0.950 . S
H3127 C3147 0.950 . S
H3128 C3149 0.950 . S
H3129 C3152 0.950 . S
H3130 C3153 0.950 . S
H3131 C3155 0.950 . S
H3132 C3156 0.950 . S
H3133 C3157 0.951 . S
H3134 C3159 0.951 . S
H3135 C3161 0.950 . S
H3136 C3162 0.950 . S
H3137 C3164 0.950 . S
H3138 C3167 0.950 . S
H3139 C3168 0.950 . S
H3140 C3170 0.950 . S
H3141 C3171 0.950 . S
C3142 H3124 0.951 . S
C3142 C3143 1.366 . S
C3142 C3144 1.388 . S
C3143 C3142 1.366 . S
C3143 C3147 1.385 1_565 S
C3144 H3125 0.951 . S
C3144 C3142 1.388 . S
C3144 C3145 1.377 . S
C3145 C3144 1.377 . S
C3145 C3146 1.400 1_565 S
C3145 C3148 1.500 1_565 S
C3146 H3126 0.950 . S
C3146 C3145 1.400 1_545 S
C3146 C3147 1.374 . S
C3147 H3127 0.950 . S
C3147 C3143 1.385 1_545 S
C3147 C3146 1.374 . S
C3148 C3145 1.500 1_545 S
C3148 C3149 1.368 . S
C3148 C3150 1.395 1_545 S
C3149 H3128 0.950 . S
C3149 C3148 1.368 . S
C3149 C3165 1.377 . S
C3150 C3148 1.395 1_565 S
C3150 C3151 1.524 . S
C3150 C3164 1.377 . S
C3151 C3150 1.524 . S
C3151 C3152 1.397 . S
C3151 C3156 1.363 . S
C3152 H3129 0.950 . S
C3152 C3151 1.397 . S
C3152 C3153 1.334 . S
C3153 H3130 0.950 . S
C3153 C3152 1.334 . S
C3153 C3154 1.287 . S
C3154 C3153 1.287 . S
C3154 C3155 1.524 . S
C3154 H3173 0.913 . S
C3155 H3131 0.950 . S
C3155 C3154 1.524 . S
C3155 C3156 1.415 . S
C3156 H3132 0.950 . S
C3156 C3151 1.363 . S
C3156 C3155 1.415 . S
C3157 H3133 0.951 . S
C3157 C3158 1.366 . S
C3157 C3159 1.388 . S
C3158 C3157 1.366 . S
C3158 C3162 1.385 1_545 S
C3159 H3134 0.951 . S
C3159 C3157 1.388 . S
C3159 C3160 1.366 . S
C3160 C3159 1.366 . S
C3160 C3161 1.414 1_545 S
C3160 C3163 1.499 . S
C3161 H3135 0.950 . S
C3161 C3160 1.414 1_565 S
C3161 C3162 1.374 . S
C3162 H3136 0.950 . S
C3162 C3158 1.385 1_565 S
C3162 C3161 1.374 . S
C3163 C3160 1.499 . S
C3163 C3164 1.373 1_545 S
C3163 C3165 1.389 . S
C3164 H3137 0.950 . S
C3164 C3150 1.377 . S
C3164 C3163 1.373 1_565 S
C3165 C3149 1.377 . S
C3165 C3163 1.389 . S
C3165 C3166 1.524 . S
C3166 C3165 1.524 . S
C3166 C3167 1.397 . S
C3166 C3171 1.363 . S
C3167 H3138 0.950 . S
C3167 C3166 1.397 . S
C3167 C3168 1.334 . S
C3168 H3139 0.950 . S
C3168 C3167 1.334 . S
C3168 C3169 1.287 . S
C3169 C3168 1.287 . S
C3169 C3170 1.524 . S
C3169 H3172 0.999 . S
C3170 H3140 0.950 . S
C3170 C3169 1.524 . S
C3170 C3171 1.415 . S
C3171 H3141 0.950 . S
C3171 C3166 1.363 . S
C3171 C3170 1.415 . S
H3172 C3169 0.999 . S
H3173 C3154 0.913 . S
H3174 C3192 0.951 . S
H3175 C3194 0.951 . S
H3176 C3196 0.950 . S
H3177 C3197 0.950 . S
H3178 C3199 0.950 . S
H3179 C3202 0.950 . S
H3180 C3203 0.950 . S
H3181 C3205 0.950 . S
H3182 C3206 0.950 . S
H3183 C3207 0.951 . S
H3184 C3209 0.951 . S
H3185 C3211 0.950 . S
H3186 C3212 0.950 . S
H3187 C3214 0.950 . S
H3188 C3217 0.950 . S
H3189 C3218 0.950 . S
H3190 C3220 0.950 . S
H3191 C3221 0.950 . S
C3192 H3174 0.951 . S
C3192 C3193 1.366 . S
C3192 C3194 1.388 . S
C3193 C3192 1.366 . S
C3193 C3197 1.385 . S
C3194 H3175 0.951 . S
C3194 C3192 1.388 . S
C3194 C3195 1.366 . S
C3195 C3194 1.366 . S
C3195 C3196 1.414 . S
C3195 C3198 1.499 . S
C3196 H3176 0.950 . S
C3196 C3195 1.414 . S
C3196 C3197 1.374 . S
C3197 H3177 0.950 . S
C3197 C3193 1.385 . S
C3197 C3196 1.374 . S
C3198 C3195 1.499 . S
C3198 C3199 1.373 . S
C3198 C3200 1.389 . S
C3199 H3178 0.950 . S
C3199 C3198 1.373 . S
C3199 C3215 1.377 . S
C3200 C3198 1.389 . S
C3200 C3201 1.524 . S
C3200 C3214 1.377 . S
C3201 C3200 1.524 . S
C3201 C3202 1.397 . S
C3201 C3206 1.363 . S
C3202 H3179 0.950 . S
C3202 C3201 1.397 . S
C3202 C3203 1.334 . S
C3203 H3180 0.950 . S
C3203 C3202 1.334 . S
C3203 C3204 1.287 . S
C3204 C3203 1.287 . S
C3204 C3205 1.524 . S
C3204 H3223 0.913 . S
C3205 H3181 0.950 . S
C3205 C3204 1.524 . S
C3205 C3206 1.415 . S
C3206 H3182 0.950 . S
C3206 C3201 1.363 . S
C3206 C3205 1.415 . S
C3207 H3183 0.951 . S
C3207 C3208 1.366 . S
C3207 C3209 1.388 . S
C3208 C3207 1.366 . S
C3208 C3212 1.385 . S
C3209 H3184 0.951 . S
C3209 C3207 1.388 . S
C3209 C3210 1.366 . S
C3210 C3209 1.366 . S
C3210 C3211 1.414 . S
C3210 C3213 1.499 . S
C3211 H3185 0.950 . S
C3211 C3210 1.414 . S
C3211 C3212 1.374 . S
C3212 H3186 0.950 . S
C3212 C3208 1.385 . S
C3212 C3211 1.374 . S
C3213 C3210 1.499 . S
C3213 C3214 1.373 . S
C3213 C3215 1.389 . S
C3214 H3187 0.950 . S
C3214 C3200 1.377 . S
C3214 C3213 1.373 . S
C3215 C3199 1.377 . S
C3215 C3213 1.389 . S
C3215 C3216 1.524 . S
C3216 C3215 1.524 . S
C3216 C3217 1.397 . S
C3216 C3221 1.363 . S
C3217 H3188 0.950 . S
C3217 C3216 1.397 . S
C3217 C3218 1.334 . S
C3218 H3189 0.950 . S
C3218 C3217 1.334 . S
C3218 C3219 1.287 1_545 S
C3219 C3218 1.287 1_565 S
C3219 C3220 1.524 . S
C3219 H3222 0.999 . S
C3220 H3190 0.950 . S
C3220 C3219 1.524 . S
C3220 C3221 1.415 1_565 S
C3221 H3191 0.950 . S
C3221 C3216 1.363 . S
C3221 C3220 1.415 1_545 S
H3222 C3219 0.999 . S
H3223 C3204 0.913 . S
H3224 C3242 0.951 . S
H3225 C3244 0.951 . S
H3226 C3246 0.950 . S
H3227 C3247 0.950 . S
H3228 C3249 0.950 . S
H3229 C3252 0.950 . S
H3230 C3253 0.950 . S
H3231 C3255 0.950 . S
H3232 C3256 0.950 . S
H3233 C3257 0.951 . S
H3234 C3259 0.951 . S
H3235 C3261 0.950 . S
H3236 C3262 0.950 . S
H3237 C3264 0.950 . S
H3238 C3267 0.950 . S
H3239 C3268 0.950 . S
H3240 C3270 0.950 . S
H3241 C3271 0.950 . S
C3242 H3224 0.951 . S
C3242 C3243 1.366 . S
C3242 C3244 1.388 . S
C3243 C3242 1.366 . S
C3243 C3247 1.385 . S
C3244 H3225 0.951 . S
C3244 C3242 1.388 . S
C3244 C3245 1.366 . S
C3245 C3244 1.366 . S
C3245 C3246 1.414 . S
C3245 C3248 1.499 . S
C3246 H3226 0.950 . S
C3246 C3245 1.414 . S
C3246 C3247 1.374 . S
C3247 H3227 0.950 . S
C3247 C3243 1.385 . S
C3247 C3246 1.374 . S
C3248 C3245 1.499 . S
C3248 C3249 1.373 . S
C3248 C3250 1.389 . S
C3249 H3228 0.950 . S
C3249 C3248 1.373 . S
C3249 C3265 1.377 . S
C3250 C3248 1.389 . S
C3250 C3251 1.524 . S
C3250 C3264 1.377 . S
C3251 C3250 1.524 . S
C3251 C3252 1.397 . S
C3251 C3256 1.363 . S
C3252 H3229 0.950 . S
C3252 C3251 1.397 . S
C3252 C3253 1.334 . S
C3253 H3230 0.950 . S
C3253 C3252 1.334 . S
C3253 C3254 1.287 . S
C3254 C3253 1.287 . S
C3254 C3255 1.524 . S
C3254 H3273 0.913 . S
C3255 H3231 0.950 . S
C3255 C3254 1.524 . S
C3255 C3256 1.415 . S
C3256 H3232 0.950 . S
C3256 C3251 1.363 . S
C3256 C3255 1.415 . S
C3257 H3233 0.951 . S
C3257 C3258 1.366 . S
C3257 C3259 1.388 . S
C3258 C3257 1.366 . S
C3258 C3262 1.385 . S
C3259 H3234 0.951 . S
C3259 C3257 1.388 . S
C3259 C3260 1.366 . S
C3260 C3259 1.366 . S
C3260 C3261 1.414 . S
C3260 C3263 1.499 . S
C3261 H3235 0.950 . S
C3261 C3260 1.414 . S
C3261 C3262 1.374 . S
C3262 H3236 0.950 . S
C3262 C3258 1.385 . S
C3262 C3261 1.374 . S
C3263 C3260 1.499 . S
C3263 C3264 1.373 . S
C3263 C3265 1.389 . S
C3264 H3237 0.950 . S
C3264 C3250 1.377 . S
C3264 C3263 1.373 . S
C3265 C3249 1.377 . S
C3265 C3263 1.389 . S
C3265 C3266 1.524 . S
C3266 C3265 1.524 . S
C3266 C3267 1.397 . S
C3266 C3271 1.363 . S
C3267 H3238 0.950 . S
C3267 C3266 1.397 . S
C3267 C3268 1.334 . S
C3268 H3239 0.950 . S
C3268 C3267 1.334 . S
C3268 C3269 1.287 . S
C3269 C3268 1.287 . S
C3269 C3270 1.524 . S
C3269 H3272 0.999 . S
C3270 H3240 0.950 . S
C3270 C3269 1.524 . S
C3270 C3271 1.415 . S
C3271 H3241 0.950 . S
C3271 C3266 1.363 . S
C3271 C3270 1.415 . S
H3272 C3269 0.999 . S
H3273 C3254 0.913 . S
H3274 C3292 0.908 1_556 S
H3275 C3294 0.951 . S
H3276 C3296 0.950 . S
H3277 C3297 0.950 . S
H3278 C3299 0.950 . S
H3279 C3302 0.950 . S
H3280 C3303 0.950 . S
H3281 C3305 0.950 . S
H3282 C3306 0.950 . S
H3283 C3307 0.951 . S
H3284 C3309 0.951 . S
H3285 C3311 0.950 . S
H3286 C3312 0.950 . S
H3287 C3314 0.950 . S
H3288 C3317 0.950 . S
H3289 C3318 0.950 . S
H3290 C3320 0.950 . S
H3291 C3321 0.950 . S
C3292 H3274 0.908 1_554 S
C3292 C3293 1.366 . S
C3292 C3294 1.388 . S
C3293 C3292 1.366 . S
C3293 C3297 1.385 . S
C3294 H3275 0.951 . S
C3294 C3292 1.388 . S
C3294 C3295 1.366 . S
C3295 C3294 1.366 . S
C3295 C3296 1.414 . S
C3295 C3298 1.499 . S
C3296 H3276 0.950 . S
C3296 C3295 1.414 . S
C3296 C3297 1.374 . S
C3297 H3277 0.950 . S
C3297 C3293 1.385 . S
C3297 C3296 1.374 . S
C3298 C3295 1.499 . S
C3298 C3299 1.373 . S
C3298 C3300 1.389 . S
C3299 H3278 0.950 . S
C3299 C3298 1.373 . S
C3299 C3315 1.377 . S
C3300 C3298 1.389 . S
C3300 C3301 1.524 . S
C3300 C3314 1.377 . S
C3301 C3300 1.524 . S
C3301 C3302 1.397 . S
C3301 C3306 1.363 . S
C3302 H3279 0.950 . S
C3302 C3301 1.397 . S
C3302 C3303 1.334 . S
C3303 H3280 0.950 . S
C3303 C3302 1.334 . S
C3303 C3304 1.287 . S
C3304 C3303 1.287 . S
C3304 C3305 1.524 1_554 S
C3304 H3323 0.913 1_554 S
C3305 H3281 0.950 . S
C3305 C3304 1.524 1_556 S
C3305 C3306 1.415 1_556 S
C3306 H3282 0.950 . S
C3306 C3301 1.363 . S
C3306 C3305 1.415 1_554 S
C3307 H3283 0.951 . S
C3307 C3308 1.366 . S
C3307 C3309 1.388 . S
C3308 C3307 1.366 . S
C3308 C3312 1.385 . S
C3309 H3284 0.951 . S
C3309 C3307 1.388 . S
C3309 C3310 1.366 . S
C3310 C3309 1.366 . S
C3310 C3311 1.414 . S
C3310 C3313 1.499 . S
C3311 H3285 0.950 . S
C3311 C3310 1.414 . S
C3311 C3312 1.374 . S
C3312 H3286 0.950 . S
C3312 C3308 1.385 . S
C3312 C3311 1.374 . S
C3313 C3310 1.499 . S
C3313 C3314 1.373 . S
C3313 C3315 1.389 . S
C3314 H3287 0.950 . S
C3314 C3300 1.377 . S
C3314 C3313 1.373 . S
C3315 C3299 1.377 . S
C3315 C3313 1.389 . S
C3315 C3316 1.524 . S
C3316 C3315 1.524 . S
C3316 C3317 1.397 . S
C3316 C3321 1.363 . S
C3317 H3288 0.950 . S
C3317 C3316 1.397 . S
C3317 C3318 1.334 . S
C3318 H3289 0.950 . S
C3318 C3317 1.334 . S
C3318 C3319 1.287 . S
C3319 C3318 1.287 . S
C3319 C3320 1.524 . S
C3319 H3322 0.999 . S
C3320 H3290 0.950 . S
C3320 C3319 1.524 . S
C3320 C3321 1.415 . S
C3321 H3291 0.950 . S
C3321 C3316 1.363 . S
C3321 C3320 1.415 . S
H3322 C3319 0.999 . S
H3323 C3304 0.913 1_556 S
H3324 C3342 0.951 . S
H3325 C3344 0.951 . S
H3326 C3346 0.950 . S
H3327 C3347 0.950 . S
H3328 C3349 0.950 . S
H3329 C3352 0.950 . S
H3330 C3353 0.950 . S
H3331 C3355 0.950 . S
H3332 C3356 0.950 . S
H3333 C3357 0.951 . S
H3334 C3359 0.951 . S
H3335 C3361 0.950 . S
H3336 C3362 0.950 . S
H3337 C3364 0.950 . S
H3338 C3367 0.950 . S
H3339 C3368 0.950 . S
H3340 C3370 0.950 . S
H3341 C3371 0.950 . S
C3342 H3324 0.951 . S
C3342 C3343 1.366 . S
C3342 C3344 1.388 . S
C3343 C3342 1.366 . S
C3343 C3347 1.385 . S
C3344 H3325 0.951 . S
C3344 C3342 1.388 . S
C3344 C3345 1.366 . S
C3345 C3344 1.366 . S
C3345 C3346 1.414 . S
C3345 C3348 1.499 . S
C3346 H3326 0.950 . S
C3346 C3345 1.414 . S
C3346 C3347 1.374 . S
C3347 H3327 0.950 . S
C3347 C3343 1.385 . S
C3347 C3346 1.374 . S
C3348 C3345 1.499 . S
C3348 C3349 1.373 . S
C3348 C3350 1.389 . S
C3349 H3328 0.950 . S
C3349 C3348 1.373 . S
C3349 C3365 1.377 . S
C3350 C3348 1.389 . S
C3350 C3351 1.524 . S
C3350 C3364 1.377 . S
C3351 C3350 1.524 . S
C3351 C3352 1.397 . S
C3351 C3356 1.363 . S
C3352 H3329 0.950 . S
C3352 C3351 1.397 . S
C3352 C3353 1.334 . S
C3353 H3330 0.950 . S
C3353 C3352 1.334 . S
C3353 C3354 1.287 . S
C3354 C3353 1.287 . S
C3354 C3355 1.524 . S
C3354 H3373 0.913 . S
C3355 H3331 0.950 . S
C3355 C3354 1.524 . S
C3355 C3356 1.415 . S
C3356 H3332 0.950 . S
C3356 C3351 1.363 . S
C3356 C3355 1.415 . S
C3357 H3333 0.951 . S
C3357 C3358 1.366 . S
C3357 C3359 1.388 . S
C3358 C3357 1.366 . S
C3358 C3362 1.385 . S
C3359 H3334 0.951 . S
C3359 C3357 1.388 . S
C3359 C3360 1.366 . S
C3360 C3359 1.366 . S
C3360 C3361 1.414 . S
C3360 C3363 1.499 . S
C3361 H3335 0.950 . S
C3361 C3360 1.414 . S
C3361 C3362 1.374 . S
C3362 H3336 0.950 . S
C3362 C3358 1.385 . S
C3362 C3361 1.374 . S
C3363 C3360 1.499 . S
C3363 C3364 1.373 . S
C3363 C3365 1.389 . S
C3364 H3337 0.950 . S
C3364 C3350 1.377 . S
C3364 C3363 1.373 . S
C3365 C3349 1.377 . S
C3365 C3363 1.389 . S
C3365 C3366 1.524 . S
C3366 C3365 1.524 . S
C3366 C3367 1.397 . S
C3366 C3371 1.363 . S
C3367 H3338 0.950 . S
C3367 C3366 1.397 . S
C3367 C3368 1.334 . S
C3368 H3339 0.950 . S
C3368 C3367 1.334 . S
C3368 C3369 1.287 . S
C3369 C3368 1.287 . S
C3369 C3370 1.524 . S
C3369 H3372 0.999 . S
C3370 H3340 0.950 . S
C3370 C3369 1.524 . S
C3370 C3371 1.415 . S
C3371 H3341 0.950 . S
C3371 C3366 1.363 . S
C3371 C3370 1.415 . S
H3372 C3369 0.999 . S
H3373 C3354 0.913 . S
H3374 C3392 0.951 . S
H3375 C3394 0.951 . S
H3376 C3396 0.950 . S
H3377 C3397 0.950 . S
H3378 C3399 0.950 . S
H3379 C3402 0.950 1_554 S
H3380 C3403 0.950 . S
H3381 C3405 0.950 . S
H3382 C3406 0.950 . S
H3383 C3407 0.951 . S
H3384 C3409 0.951 . S
H3385 C3411 0.950 . S
H3386 C3412 0.950 . S
H3387 C3414 0.950 . S
H3388 C3417 0.950 1_556 S
H3389 C3418 0.950 . S
H3390 C3420 0.950 . S
H3391 C3421 0.950 . S
C3392 H3374 0.951 . S
C3392 C3393 1.367 . S
C3392 C3394 1.388 . S
C3393 C3392 1.367 . S
C3393 C3397 1.383 1_556 S
C3394 H3375 0.951 . S
C3394 C3392 1.388 . S
C3394 C3395 1.342 1_556 S
C3395 C3394 1.342 1_554 S
C3395 C3396 1.439 . S
C3395 C3398 1.498 . S
C3396 H3376 0.950 . S
C3396 C3395 1.439 . S
C3396 C3397 1.374 . S
C3397 H3377 0.950 . S
C3397 C3393 1.383 1_554 S
C3397 C3396 1.374 . S
C3398 C3395 1.498 . S
C3398 C3399 1.373 . S
C3398 C3400 1.389 1_554 S
C3399 H3378 0.950 . S
C3399 C3398 1.373 . S
C3399 C3415 1.377 . S
C3400 C3398 1.389 1_556 S
C3400 C3401 1.524 . S
C3400 C3414 1.377 . S
C3401 C3400 1.524 . S
C3401 C3402 1.397 . S
C3401 C3406 1.363 . S
C3402 H3379 0.950 1_556 S
C3402 C3401 1.397 . S
C3402 C3403 1.334 . S
C3403 H3380 0.950 . S
C3403 C3402 1.334 . S
C3403 C3404 1.287 . S
C3404 C3403 1.287 . S
C3404 C3405 1.524 . S
C3404 H3423 0.913 . S
C3405 H3381 0.950 . S
C3405 C3404 1.524 . S
C3405 C3406 1.415 . S
C3406 H3382 0.950 . S
C3406 C3401 1.363 . S
C3406 C3405 1.415 . S
C3407 H3383 0.951 . S
C3407 C3408 1.366 . S
C3407 C3409 1.388 . S
C3408 C3407 1.366 . S
C3408 C3412 1.385 1_554 S
C3409 H3384 0.951 . S
C3409 C3407 1.388 . S
C3409 C3410 1.366 . S
C3410 C3409 1.366 . S
C3410 C3411 1.414 1_554 S
C3410 C3413 1.498 . S
C3411 H3385 0.950 . S
C3411 C3410 1.414 1_556 S
C3411 C3412 1.374 . S
C3412 H3386 0.950 . S
C3412 C3408 1.385 1_556 S
C3412 C3411 1.374 . S
C3413 C3410 1.498 . S
C3413 C3414 1.363 1_554 S
C3413 C3415 1.402 . S
C3414 H3387 0.950 . S
C3414 C3400 1.377 . S
C3414 C3413 1.363 1_556 S
C3415 C3399 1.377 . S
C3415 C3413 1.402 . S
C3415 C3416 1.524 . S
C3416 C3415 1.524 . S
C3416 C3417 1.397 . S
C3416 C3421 1.363 . S
C3417 H3388 0.950 1_554 S
C3417 C3416 1.397 . S
C3417 C3418 1.334 . S
C3418 H3389 0.950 . S
C3418 C3417 1.334 . S
C3418 C3419 1.287 . S
C3419 C3418 1.287 . S
C3419 C3420 1.524 . S
C3419 H3422 0.999 . S
C3420 H3390 0.950 . S
C3420 C3419 1.524 . S
C3420 C3421 1.415 . S
C3421 H3391 0.950 . S
C3421 C3416 1.363 . S
C3421 C3420 1.415 . S
H3422 C3419 0.999 . S
H3423 C3404 0.913 . S
H3424 C3442 0.951 . S
H3425 C3444 0.951 . S
H3426 C3446 0.950 . S
H3427 C3447 0.950 . S
H3428 C3449 0.950 . S
H3429 C3452 0.950 . S
H3430 C3453 0.950 . S
H3431 C3455 0.950 . S
H3432 C3456 0.950 . S
H3433 C3457 0.951 . S
H3434 C3459 0.951 . S
H3435 C3461 0.950 . S
H3436 C3462 0.950 . S
H3437 C3464 0.950 . S
H3438 C3467 0.950 . S
H3439 C3468 0.950 . S
H3440 C3470 0.950 . S
H3441 C3471 0.950 . S
C3442 H3424 0.951 . S
C3442 C3443 1.366 . S
C3442 C3444 1.388 . S
C3443 C3442 1.366 . S
C3443 C3447 1.385 . S
C3444 H3425 0.951 . S
C3444 C3442 1.388 . S
C3444 C3445 1.366 . S
C3445 C3444 1.366 . S
C3445 C3446 1.414 . S
C3445 C3448 1.499 . S
C3446 H3426 0.950 . S
C3446 C3445 1.414 . S
C3446 C3447 1.374 . S
C3447 H3427 0.950 . S
C3447 C3443 1.385 . S
C3447 C3446 1.374 . S
C3448 C3445 1.499 . S
C3448 C3449 1.373 . S
C3448 C3450 1.389 . S
C3449 H3428 0.950 . S
C3449 C3448 1.373 . S
C3449 C3465 1.377 . S
C3450 C3448 1.389 . S
C3450 C3451 1.524 . S
C3450 C3464 1.377 . S
C3451 C3450 1.524 . S
C3451 C3452 1.397 . S
C3451 C3456 1.363 . S
C3452 H3429 0.950 . S
C3452 C3451 1.397 . S
C3452 C3453 1.334 . S
C3453 H3430 0.950 . S
C3453 C3452 1.334 . S
C3453 C3454 1.287 . S
C3454 C3453 1.287 . S
C3454 C3455 1.524 . S
C3454 H3473 0.913 . S
C3455 H3431 0.950 . S
C3455 C3454 1.524 . S
C3455 C3456 1.415 . S
C3456 H3432 0.950 . S
C3456 C3451 1.363 . S
C3456 C3455 1.415 . S
C3457 H3433 0.951 . S
C3457 C3458 1.366 . S
C3457 C3459 1.388 . S
C3458 C3457 1.366 . S
C3458 C3462 1.385 . S
C3459 H3434 0.951 . S
C3459 C3457 1.388 . S
C3459 C3460 1.366 . S
C3460 C3459 1.366 . S
C3460 C3461 1.414 . S
C3460 C3463 1.499 . S
C3461 H3435 0.950 . S
C3461 C3460 1.414 . S
C3461 C3462 1.374 . S
C3462 H3436 0.950 . S
C3462 C3458 1.385 . S
C3462 C3461 1.374 . S
C3463 C3460 1.499 . S
C3463 C3464 1.373 . S
C3463 C3465 1.389 . S
C3464 H3437 0.950 . S
C3464 C3450 1.377 . S
C3464 C3463 1.373 . S
C3465 C3449 1.377 . S
C3465 C3463 1.389 . S
C3465 C3466 1.524 . S
C3466 C3465 1.524 . S
C3466 C3467 1.397 . S
C3466 C3471 1.363 . S
C3467 H3438 0.950 . S
C3467 C3466 1.397 . S
C3467 C3468 1.334 . S
C3468 H3439 0.950 . S
C3468 C3467 1.334 . S
C3468 C3469 1.287 . S
C3469 C3468 1.287 . S
C3469 C3470 1.524 . S
C3469 H3472 0.999 . S
C3470 H3440 0.950 . S
C3470 C3469 1.524 . S
C3470 C3471 1.415 . S
C3471 H3441 0.950 . S
C3471 C3466 1.363 . S
C3471 C3470 1.415 . S
H3472 C3469 0.999 . S
H3473 C3454 0.913 . S
H3474 C3492 0.951 . S
H3475 C3494 0.951 . S
H3476 C3496 0.950 . S
H3477 C3497 0.950 . S
H3478 C3499 0.950 . S
H3479 C3502 0.950 . S
H3480 C3503 0.950 1_655 S
H3481 C3505 0.950 . S
H3482 C3506 0.950 . S
H3483 C3507 0.951 . S
H3484 C3509 0.951 . S
H3485 C3511 0.950 . S
H3486 C3512 0.950 . S
H3487 C3514 0.950 . S
H3488 C3517 0.950 . S
H3489 C3518 0.950 . S
H3490 C3520 0.950 . S
H3491 C3521 0.950 . S
C3492 H3474 0.951 . S
C3492 C3493 1.366 . S
C3492 C3494 1.388 . S
C3493 C3492 1.366 . S
C3493 C3497 1.385 . S
C3494 H3475 0.951 . S
C3494 C3492 1.388 . S
C3494 C3495 1.366 . S
C3495 C3494 1.366 . S
C3495 C3496 1.414 . S
C3495 C3498 1.499 . S
C3496 H3476 0.950 . S
C3496 C3495 1.414 . S
C3496 C3497 1.374 . S
C3497 H3477 0.950 . S
C3497 C3493 1.385 . S
C3497 C3496 1.374 . S
C3498 C3495 1.499 . S
C3498 C3499 1.373 . S
C3498 C3500 1.389 . S
C3499 H3478 0.950 . S
C3499 C3498 1.373 . S
C3499 C3515 1.377 . S
C3500 C3498 1.389 . S
C3500 C3501 1.524 . S
C3500 C3514 1.377 . S
C3501 C3500 1.524 . S
C3501 C3502 1.397 . S
C3501 C3506 1.363 . S
C3502 H3479 0.950 . S
C3502 C3501 1.397 . S
C3502 C3503 1.334 . S
C3503 H3480 0.950 1_455 S
C3503 C3502 1.334 . S
C3503 C3504 1.287 . S
C3504 C3503 1.287 . S
C3504 C3505 1.524 . S
C3504 H3523 0.913 . S
C3505 H3481 0.950 . S
C3505 C3504 1.524 . S
C3505 C3506 1.415 . S
C3506 H3482 0.950 . S
C3506 C3501 1.363 . S
C3506 C3505 1.415 . S
C3507 H3483 0.951 . S
C3507 C3508 1.366 . S
C3507 C3509 1.388 . S
C3508 C3507 1.366 . S
C3508 C3512 1.385 . S
C3509 H3484 0.951 . S
C3509 C3507 1.388 . S
C3509 C3510 1.366 . S
C3510 C3509 1.366 . S
C3510 C3511 1.414 . S
C3510 C3513 1.499 . S
C3511 H3485 0.950 . S
C3511 C3510 1.414 . S
C3511 C3512 1.374 . S
C3512 H3486 0.950 . S
C3512 C3508 1.385 . S
C3512 C3511 1.374 . S
C3513 C3510 1.499 . S
C3513 C3514 1.373 . S
C3513 C3515 1.389 . S
C3514 H3487 0.950 . S
C3514 C3500 1.377 . S
C3514 C3513 1.373 . S
C3515 C3499 1.377 . S
C3515 C3513 1.389 . S
C3515 C3516 1.524 . S
C3516 C3515 1.524 . S
C3516 C3517 1.397 . S
C3516 C3521 1.363 . S
C3517 H3488 0.950 . S
C3517 C3516 1.397 . S
C3517 C3518 1.334 . S
C3518 H3489 0.950 . S
C3518 C3517 1.334 . S
C3518 C3519 1.287 . S
C3519 C3518 1.287 . S
C3519 C3520 1.524 . S
C3519 H3522 0.999 . S
C3520 H3490 0.950 . S
C3520 C3519 1.524 . S
C3520 C3521 1.415 . S
C3521 H3491 0.950 . S
C3521 C3516 1.363 . S
C3521 C3520 1.415 . S
H3522 C3519 0.999 . S
H3523 C3504 0.913 . S
H3524 C3542 0.951 . S
H3525 C3544 0.951 . S
H3526 C3546 0.950 . S
H3527 C3547 0.950 . S
H3528 C3549 0.950 . S
H3529 C3552 0.950 . S
H3530 C3553 0.950 . S
H3531 C3555 0.950 . S
H3532 C3556 0.950 . S
H3533 C3557 0.951 . S
H3534 C3559 0.951 . S
H3535 C3561 0.950 . S
H3536 C3562 0.950 . S
H3537 C3564 0.950 . S
H3538 C3567 0.950 . S
H3539 C3568 0.950 . S
H3540 C3570 0.950 . S
H3541 C3571 0.950 . S
C3542 H3524 0.951 . S
C3542 C3543 1.366 . S
C3542 C3544 1.388 . S
C3543 C3542 1.366 . S
C3543 C3547 1.385 . S
C3544 H3525 0.951 . S
C3544 C3542 1.388 . S
C3544 C3545 1.366 . S
C3545 C3544 1.366 . S
C3545 C3546 1.414 . S
C3545 C3548 1.499 . S
C3546 H3526 0.950 . S
C3546 C3545 1.414 . S
C3546 C3547 1.374 . S
C3547 H3527 0.950 . S
C3547 C3543 1.385 . S
C3547 C3546 1.374 . S
C3548 C3545 1.499 . S
C3548 C3549 1.373 . S
C3548 C3550 1.389 . S
C3549 H3528 0.950 . S
C3549 C3548 1.373 . S
C3549 C3565 1.377 . S
C3550 C3548 1.389 . S
C3550 C3551 1.524 . S
C3550 C3564 1.377 . S
C3551 C3550 1.524 . S
C3551 C3552 1.397 . S
C3551 C3556 1.363 . S
C3552 H3529 0.950 . S
C3552 C3551 1.397 . S
C3552 C3553 1.334 . S
C3553 H3530 0.950 . S
C3553 C3552 1.334 . S
C3553 C3554 1.287 . S
C3554 C3553 1.287 . S
C3554 C3555 1.524 . S
C3554 H3573 0.913 . S
C3555 H3531 0.950 . S
C3555 C3554 1.524 . S
C3555 C3556 1.415 . S
C3556 H3532 0.950 . S
C3556 C3551 1.363 . S
C3556 C3555 1.415 . S
C3557 H3533 0.951 . S
C3557 C3558 1.366 . S
C3557 C3559 1.388 . S
C3558 C3557 1.366 . S
C3558 C3562 1.385 . S
C3559 H3534 0.951 . S
C3559 C3557 1.388 . S
C3559 C3560 1.366 . S
C3560 C3559 1.366 . S
C3560 C3561 1.414 . S
C3560 C3563 1.499 . S
C3561 H3535 0.950 . S
C3561 C3560 1.414 . S
C3561 C3562 1.374 . S
C3562 H3536 0.950 . S
C3562 C3558 1.385 . S
C3562 C3561 1.374 . S
C3563 C3560 1.499 . S
C3563 C3564 1.373 . S
C3563 C3565 1.389 . S
C3564 H3537 0.950 . S
C3564 C3550 1.377 . S
C3564 C3563 1.373 . S
C3565 C3549 1.377 . S
C3565 C3563 1.389 . S
C3565 C3566 1.524 . S
C3566 C3565 1.524 . S
C3566 C3567 1.397 . S
C3566 C3571 1.363 . S
C3567 H3538 0.950 . S
C3567 C3566 1.397 . S
C3567 C3568 1.334 . S
C3568 H3539 0.950 . S
C3568 C3567 1.334 . S
C3568 C3569 1.287 . S
C3569 C3568 1.287 . S
C3569 C3570 1.524 . S
C3569 H3572 0.999 . S
C3570 H3540 0.950 . S
C3570 C3569 1.524 . S
C3570 C3571 1.415 . S
C3571 H3541 0.950 . S
C3571 C3566 1.363 . S
C3571 C3570 1.415 . S
H3572 C3569 0.999 . S
H3573 C3554 0.913 . S
H3574 C3592 0.951 . S
H3575 C3594 0.951 . S
H3576 C3596 0.950 . S
H3577 C3597 0.950 . S
H3578 C3599 0.950 . S
H3579 C3602 0.950 . S
H3580 C3603 0.950 . S
H3581 C3605 0.943 1_655 S
H3582 C3606 0.934 1_655 S
H3583 C3607 0.951 . S
H3584 C3609 0.951 . S
H3585 C3611 0.950 . S
H3586 C3612 0.950 . S
H3587 C3614 0.950 . S
H3588 C3617 0.950 . S
H3589 C3618 0.950 . S
H3590 C3620 0.950 1_455 S
H3591 C3621 0.950 . S
C3592 H3574 0.951 . S
C3592 C3593 1.367 . S
C3592 C3594 1.388 . S
C3593 C3592 1.367 . S
C3593 C3597 1.383 1_655 S
C3594 H3575 0.951 . S
C3594 C3592 1.388 . S
C3594 C3595 1.366 1_655 S
C3595 C3594 1.366 1_455 S
C3595 C3596 1.414 . S
C3595 C3598 1.499 . S
C3596 H3576 0.950 . S
C3596 C3595 1.414 . S
C3596 C3597 1.374 . S
C3597 H3577 0.950 . S
C3597 C3593 1.383 1_455 S
C3597 C3596 1.374 . S
C3598 C3595 1.499 . S
C3598 C3599 1.373 1_455 S
C3598 C3600 1.389 . S
C3599 H3578 0.950 . S
C3599 C3598 1.373 1_655 S
C3599 C3615 1.377 . S
C3600 C3598 1.389 . S
C3600 C3601 1.524 . S
C3600 C3614 1.377 . S
C3601 C3600 1.524 . S
C3601 C3602 1.397 . S
C3601 C3606 1.371 . S
C3602 H3579 0.950 . S
C3602 C3601 1.397 . S
C3602 C3603 1.334 . S
C3603 H3580 0.950 . S
C3603 C3602 1.334 . S
C3603 C3604 1.287 . S
C3604 C3603 1.287 . S
C3604 C3605 1.524 . S
C3604 H3623 0.913 . S
C3605 H3581 0.943 1_455 S
C3605 C3604 1.524 . S
C3605 C3606 1.423 . S
C3606 H3582 0.934 1_455 S
C3606 C3601 1.371 . S
C3606 C3605 1.423 . S
C3607 H3583 0.951 . S
C3607 C3608 1.366 . S
C3607 C3609 1.388 . S
C3608 C3607 1.366 . S
C3608 C3612 1.385 1_455 S
C3609 H3584 0.951 . S
C3609 C3607 1.388 . S
C3609 C3610 1.384 . S
C3610 C3609 1.384 . S
C3610 C3611 1.395 1_455 S
C3610 C3613 1.501 1_455 S
C3611 H3585 0.950 . S
C3611 C3610 1.395 1_655 S
C3611 C3612 1.374 . S
C3612 H3586 0.950 . S
C3612 C3608 1.385 1_655 S
C3612 C3611 1.374 . S
C3613 C3610 1.501 1_655 S
C3613 C3614 1.375 1_655 S
C3613 C3615 1.388 . S
C3614 H3587 0.950 . S
C3614 C3600 1.377 . S
C3614 C3613 1.375 1_455 S
C3615 C3599 1.377 . S
C3615 C3613 1.388 . S
C3615 C3616 1.524 . S
C3616 C3615 1.524 . S
C3616 C3617 1.397 . S
C3616 C3621 1.363 1_655 S
C3617 H3588 0.950 . S
C3617 C3616 1.397 . S
C3617 C3618 1.334 . S
C3618 H3589 0.950 . S
C3618 C3617 1.334 . S
C3618 C3619 1.287 . S
C3619 C3618 1.287 . S
C3619 C3620 1.524 . S
C3619 H3622 0.999 . S
C3620 H3590 0.950 1_655 S
C3620 C3619 1.524 . S
C3620 C3621 1.415 1_655 S
C3621 H3591 0.950 . S
C3621 C3616 1.363 1_455 S
C3621 C3620 1.415 1_455 S
H3622 C3619 0.999 . S
H3623 C3604 0.913 . S
H3624 C3642 0.951 . S
H3625 C3644 0.951 . S
H3626 C3646 0.950 . S
H3627 C3647 0.950 . S
H3628 C3649 0.950 . S
H3629 C3652 0.950 . S
H3630 C3653 0.950 . S
H3631 C3655 0.950 . S
H3632 C3656 0.950 . S
H3633 C3657 0.951 . S
H3634 C3659 0.951 . S
H3635 C3661 0.950 . S
H3636 C3662 0.950 . S
H3637 C3664 0.950 . S
H3638 C3667 0.950 . S
H3639 C3668 0.950 . S
H3640 C3670 0.950 . S
H3641 C3671 0.950 . S
C3642 H3624 0.951 . S
C3642 C3643 1.366 . S
C3642 C3644 1.388 . S
C3643 C3642 1.366 . S
C3643 C3647 1.385 . S
C3644 H3625 0.951 . S
C3644 C3642 1.388 . S
C3644 C3645 1.366 . S
C3645 C3644 1.366 . S
C3645 C3646 1.414 . S
C3645 C3648 1.499 . S
C3646 H3626 0.950 . S
C3646 C3645 1.414 . S
C3646 C3647 1.374 . S
C3647 H3627 0.950 . S
C3647 C3643 1.385 . S
C3647 C3646 1.374 . S
C3648 C3645 1.499 . S
C3648 C3649 1.373 . S
C3648 C3650 1.389 . S
C3649 H3628 0.950 . S
C3649 C3648 1.373 . S
C3649 C3665 1.377 . S
C3650 C3648 1.389 . S
C3650 C3651 1.524 . S
C3650 C3664 1.377 . S
C3651 C3650 1.524 . S
C3651 C3652 1.397 . S
C3651 C3656 1.363 . S
C3652 H3629 0.950 . S
C3652 C3651 1.397 . S
C3652 C3653 1.334 . S
C3653 H3630 0.950 . S
C3653 C3652 1.334 . S
C3653 C3654 1.287 . S
C3654 C3653 1.287 . S
C3654 C3655 1.524 . S
C3654 H3673 0.913 . S
C3655 H3631 0.950 . S
C3655 C3654 1.524 . S
C3655 C3656 1.415 . S
C3656 H3632 0.950 . S
C3656 C3651 1.363 . S
C3656 C3655 1.415 . S
C3657 H3633 0.951 . S
C3657 C3658 1.366 . S
C3657 C3659 1.388 . S
C3658 C3657 1.366 . S
C3658 C3662 1.385 . S
C3659 H3634 0.951 . S
C3659 C3657 1.388 . S
C3659 C3660 1.366 . S
C3660 C3659 1.366 . S
C3660 C3661 1.414 . S
C3660 C3663 1.499 . S
C3661 H3635 0.950 . S
C3661 C3660 1.414 . S
C3661 C3662 1.374 . S
C3662 H3636 0.950 . S
C3662 C3658 1.385 . S
C3662 C3661 1.374 . S
C3663 C3660 1.499 . S
C3663 C3664 1.373 . S
C3663 C3665 1.389 . S
C3664 H3637 0.950 . S
C3664 C3650 1.377 . S
C3664 C3663 1.373 . S
C3665 C3649 1.377 . S
C3665 C3663 1.389 . S
C3665 C3666 1.524 . S
C3666 C3665 1.524 . S
C3666 C3667 1.397 . S
C3666 C3671 1.363 . S
C3667 H3638 0.950 . S
C3667 C3666 1.397 . S
C3667 C3668 1.334 . S
C3668 H3639 0.950 . S
C3668 C3667 1.334 . S
C3668 C3669 1.287 . S
C3669 C3668 1.287 . S
C3669 C3670 1.524 . S
C3669 H3672 0.999 . S
C3670 H3640 0.950 . S
C3670 C3669 1.524 . S
C3670 C3671 1.415 . S
C3671 H3641 0.950 . S
C3671 C3666 1.363 . S
C3671 C3670 1.415 . S
H3672 C3669 0.999 . S
H3673 C3654 0.913 . S
H3674 C3692 0.951 . S
H3675 C3694 0.951 . S
H3676 C3696 0.950 . S
H3677 C3697 0.950 . S
H3678 C3699 0.950 . S
H3679 C3702 0.950 . S
H3680 C3703 0.950 . S
H3681 C3705 0.950 . S
H3682 C3706 0.950 . S
H3683 C3707 0.951 . S
H3684 C3709 0.951 . S
H3685 C3711 0.950 . S
H3686 C3712 0.950 . S
H3687 C3714 0.950 . S
H3688 C3717 0.950 . S
H3689 C3718 0.950 . S
H3690 C3720 0.950 . S
H3691 C3721 0.950 . S
C3692 H3674 0.951 . S
C3692 C3693 1.366 . S
C3692 C3694 1.388 . S
C3693 C3692 1.366 . S
C3693 C3697 1.385 . S
C3694 H3675 0.951 . S
C3694 C3692 1.388 . S
C3694 C3695 1.366 . S
C3695 C3694 1.366 . S
C3695 C3696 1.414 . S
C3695 C3698 1.499 . S
C3696 H3676 0.950 . S
C3696 C3695 1.414 . S
C3696 C3697 1.374 . S
C3697 H3677 0.950 . S
C3697 C3693 1.385 . S
C3697 C3696 1.374 . S
C3698 C3695 1.499 . S
C3698 C3699 1.373 . S
C3698 C3700 1.389 . S
C3699 H3678 0.950 . S
C3699 C3698 1.373 . S
C3699 C3715 1.377 . S
C3700 C3698 1.389 . S
C3700 C3701 1.524 . S
C3700 C3714 1.377 . S
C3701 C3700 1.524 . S
C3701 C3702 1.397 . S
C3701 C3706 1.363 . S
C3702 H3679 0.950 . S
C3702 C3701 1.397 . S
C3702 C3703 1.334 . S
C3703 H3680 0.950 . S
C3703 C3702 1.334 . S
C3703 C3704 1.287 . S
C3704 C3703 1.287 . S
C3704 C3705 1.524 . S
C3704 H3723 0.913 . S
C3705 H3681 0.950 . S
C3705 C3704 1.524 . S
C3705 C3706 1.415 . S
C3706 H3682 0.950 . S
C3706 C3701 1.363 . S
C3706 C3705 1.415 . S
C3707 H3683 0.951 . S
C3707 C3708 1.366 . S
C3707 C3709 1.388 . S
C3708 C3707 1.366 . S
C3708 C3712 1.385 . S
C3709 H3684 0.951 . S
C3709 C3707 1.388 . S
C3709 C3710 1.366 . S
C3710 C3709 1.366 . S
C3710 C3711 1.414 . S
C3710 C3713 1.499 . S
C3711 H3685 0.950 . S
C3711 C3710 1.414 . S
C3711 C3712 1.374 . S
C3712 H3686 0.950 . S
C3712 C3708 1.385 . S
C3712 C3711 1.374 . S
C3713 C3710 1.499 . S
C3713 C3714 1.373 . S
C3713 C3715 1.389 . S
C3714 H3687 0.950 . S
C3714 C3700 1.377 . S
C3714 C3713 1.373 . S
C3715 C3699 1.377 . S
C3715 C3713 1.389 . S
C3715 C3716 1.524 . S
C3716 C3715 1.524 . S
C3716 C3717 1.397 . S
C3716 C3721 1.363 . S
C3717 H3688 0.950 . S
C3717 C3716 1.397 . S
C3717 C3718 1.334 . S
C3718 H3689 0.950 . S
C3718 C3717 1.334 . S
C3718 C3719 1.287 . S
C3719 C3718 1.287 . S
C3719 C3720 1.524 . S
C3719 H3722 0.999 . S
C3720 H3690 0.950 . S
C3720 C3719 1.524 . S
C3720 C3721 1.415 . S
C3721 H3691 0.950 . S
C3721 C3716 1.363 . S
C3721 C3720 1.415 . S
H3722 C3719 0.999 . S
H3723 C3704 0.913 . S
H3724 C3742 0.951 . S
H3725 C3744 0.951 . S
H3726 C3746 0.950 . S
H3727 C3747 0.950 . S
H3728 C3749 0.950 . S
H3729 C3752 0.950 . S
H3730 C3753 0.950 . S
H3731 C3755 0.950 . S
H3732 C3756 0.950 . S
H3733 C3757 0.951 . S
H3734 C3759 0.951 . S
H3735 C3761 1.004 . S
H3736 C3762 0.911 1_545 S
H3737 C3764 0.950 . S
H3738 C3767 0.950 . S
H3739 C3768 0.950 . S
H3740 C3770 0.950 . S
H3741 C3771 0.950 . S
C3742 H3724 0.951 . S
C3742 C3743 1.335 1_545 S
C3742 C3744 1.388 . S
C3743 C3742 1.335 1_565 S
C3743 C3747 1.430 . S
C3744 H3725 0.951 . S
C3744 C3742 1.388 . S
C3744 C3745 1.366 1_545 S
C3745 C3744 1.366 1_565 S
C3745 C3746 1.414 . S
C3745 C3748 1.499 . S
C3746 H3726 0.950 . S
C3746 C3745 1.414 . S
C3746 C3747 1.374 . S
C3747 H3727 0.950 . S
C3747 C3743 1.430 . S
C3747 C3746 1.374 . S
C3748 C3745 1.499 . S
C3748 C3749 1.373 . S
C3748 C3750 1.389 . S
C3749 H3728 0.950 . S
C3749 C3748 1.373 . S
C3749 C3765 1.377 . S
C3750 C3748 1.389 . S
C3750 C3751 1.524 . S
C3750 C3764 1.377 . S
C3751 C3750 1.524 . S
C3751 C3752 1.397 . S
C3751 C3756 1.363 1_565 S
C3752 H3729 0.950 . S
C3752 C3751 1.397 . S
C3752 C3753 1.334 . S
C3753 H3730 0.950 . S
C3753 C3752 1.334 . S
C3753 C3754 1.287 . S
C3754 C3753 1.287 . S
C3754 C3755 1.524 1_565 S
C3754 H3773 0.913 . S
C3755 H3731 0.950 . S
C3755 C3754 1.524 1_545 S
C3755 C3756 1.415 . S
C3756 H3732 0.950 . S
C3756 C3751 1.363 1_545 S
C3756 C3755 1.415 . S
C3757 H3733 0.951 . S
C3757 C3758 1.366 . S
C3757 C3759 1.388 . S
C3758 C3757 1.366 . S
C3758 C3762 1.442 . S
C3759 H3734 0.951 . S
C3759 C3757 1.388 . S
C3759 C3760 1.366 . S
C3760 C3759 1.366 . S
C3760 C3761 1.377 1_565 S
C3760 C3763 1.499 . S
C3761 H3735 1.004 . S
C3761 C3760 1.377 1_545 S
C3761 C3762 1.349 1_545 S
C3762 H3736 0.911 1_565 S
C3762 C3758 1.442 . S
C3762 C3761 1.349 1_565 S
C3763 C3760 1.499 . S
C3763 C3764 1.373 . S
C3763 C3765 1.389 . S
C3764 H3737 0.950 . S
C3764 C3750 1.377 . S
C3764 C3763 1.373 . S
C3765 C3749 1.377 . S
C3765 C3763 1.389 . S
C3765 C3766 1.524 . S
C3766 C3765 1.524 . S
C3766 C3767 1.397 1_565 S
C3766 C3771 1.363 . S
C3767 H3738 0.950 . S
C3767 C3766 1.397 1_545 S
C3767 C3768 1.334 . S
C3768 H3739 0.950 . S
C3768 C3767 1.334 . S
C3768 C3769 1.287 1_545 S
C3769 C3768 1.287 1_565 S
C3769 C3770 1.524 . S
C3769 H3772 0.999 . S
C3770 H3740 0.950 . S
C3770 C3769 1.524 . S
C3770 C3771 1.415 . S
C3771 H3741 0.950 . S
C3771 C3766 1.363 . S
C3771 C3770 1.415 . S
H3772 C3769 0.999 . S
H3773 C3754 0.913 . S
H3774 C3792 0.951 . S
H3775 C3794 0.951 . S
H3776 C3796 0.950 . S
H3777 C3797 0.950 . S
H3778 C3799 0.950 . S
H3779 C3802 0.950 . S
H3780 C3803 0.950 . S
H3781 C3805 0.950 . S
H3782 C3806 0.950 . S
H3783 C3807 0.951 . S
H3784 C3809 0.951 . S
H3785 C3811 0.950 . S
H3786 C3812 0.950 . S
H3787 C3814 0.950 . S
H3788 C3817 0.950 . S
H3789 C3818 0.950 . S
H3790 C3820 0.950 . S
H3791 C3821 0.950 . S
C3792 H3774 0.951 . S
C3792 C3793 1.366 . S
C3792 C3794 1.388 . S
C3793 C3792 1.366 . S
C3793 C3797 1.385 . S
C3794 H3775 0.951 . S
C3794 C3792 1.388 . S
C3794 C3795 1.366 . S
C3795 C3794 1.366 . S
C3795 C3796 1.414 . S
C3795 C3798 1.499 . S
C3796 H3776 0.950 . S
C3796 C3795 1.414 . S
C3796 C3797 1.374 . S
C3797 H3777 0.950 . S
C3797 C3793 1.385 . S
C3797 C3796 1.374 . S
C3798 C3795 1.499 . S
C3798 C3799 1.373 1_545 S
C3798 C3800 1.389 . S
C3799 H3778 0.950 . S
C3799 C3798 1.373 1_565 S
C3799 C3815 1.377 . S
C3800 C3798 1.389 . S
C3800 C3801 1.524 . S
C3800 C3814 1.377 . S
C3801 C3800 1.524 . S
C3801 C3802 1.397 . S
C3801 C3806 1.363 . S
C3802 H3779 0.950 . S
C3802 C3801 1.397 . S
C3802 C3803 1.334 . S
C3803 H3780 0.950 . S
C3803 C3802 1.334 . S
C3803 C3804 1.287 . S
C3804 C3803 1.287 . S
C3804 C3805 1.524 . S
C3804 H3823 0.913 . S
C3805 H3781 0.950 . S
C3805 C3804 1.524 . S
C3805 C3806 1.415 . S
C3806 H3782 0.950 . S
C3806 C3801 1.363 . S
C3806 C3805 1.415 . S
C3807 H3783 0.951 . S
C3807 C3808 1.366 . S
C3807 C3809 1.388 . S
C3808 C3807 1.366 . S
C3808 C3812 1.385 . S
C3809 H3784 0.951 . S
C3809 C3807 1.388 . S
C3809 C3810 1.366 . S
C3810 C3809 1.366 . S
C3810 C3811 1.414 . S
C3810 C3813 1.499 . S
C3811 H3785 0.950 . S
C3811 C3810 1.414 . S
C3811 C3812 1.374 . S
C3812 H3786 0.950 . S
C3812 C3808 1.385 . S
C3812 C3811 1.374 . S
C3813 C3810 1.499 . S
C3813 C3814 1.373 . S
C3813 C3815 1.389 1_545 S
C3814 H3787 0.950 . S
C3814 C3800 1.377 . S
C3814 C3813 1.373 . S
C3815 C3799 1.377 . S
C3815 C3813 1.389 1_565 S
C3815 C3816 1.524 . S
C3816 C3815 1.524 . S
C3816 C3817 1.397 . S
C3816 C3821 1.363 . S
C3817 H3788 0.950 . S
C3817 C3816 1.397 . S
C3817 C3818 1.334 . S
C3818 H3789 0.950 . S
C3818 C3817 1.334 . S
C3818 C3819 1.287 . S
C3819 C3818 1.287 . S
C3819 C3820 1.524 . S
C3819 H3822 0.999 . S
C3820 H3790 0.950 . S
C3820 C3819 1.524 . S
C3820 C3821 1.415 . S
C3821 H3791 0.950 . S
C3821 C3816 1.363 . S
C3821 C3820 1.415 . S
H3822 C3819 0.999 . S
H3823 C3804 0.913 . S
H3824 C3842 0.951 . S
H3825 C3844 0.951 . S
H3826 C3846 0.950 . S
H3827 C3847 0.950 . S
H3828 C3849 0.950 . S
H3829 C3852 0.950 . S
H3830 C3853 0.950 . S
H3831 C3855 0.950 . S
H3832 C3856 0.950 . S
H3833 C3857 0.951 . S
H3834 C3859 0.951 . S
H3835 C3861 0.950 . S
H3836 C3862 0.950 . S
H3837 C3864 0.950 . S
H3838 C3867 0.950 . S
H3839 C3868 0.950 . S
H3840 C3870 0.950 . S
H3841 C3871 0.950 . S
C3842 H3824 0.951 . S
C3842 C3843 1.366 . S
C3842 C3844 1.388 . S
C3843 C3842 1.366 . S
C3843 C3847 1.385 . S
C3844 H3825 0.951 . S
C3844 C3842 1.388 . S
C3844 C3845 1.366 . S
C3845 C3844 1.366 . S
C3845 C3846 1.414 . S
C3845 C3848 1.499 . S
C3846 H3826 0.950 . S
C3846 C3845 1.414 . S
C3846 C3847 1.374 . S
C3847 H3827 0.950 . S
C3847 C3843 1.385 . S
C3847 C3846 1.374 . S
C3848 C3845 1.499 . S
C3848 C3849 1.373 . S
C3848 C3850 1.389 . S
C3849 H3828 0.950 . S
C3849 C3848 1.373 . S
C3849 C3865 1.377 . S
C3850 C3848 1.389 . S
C3850 C3851 1.524 . S
C3850 C3864 1.377 . S
C3851 C3850 1.524 . S
C3851 C3852 1.397 . S
C3851 C3856 1.363 . S
C3852 H3829 0.950 . S
C3852 C3851 1.397 . S
C3852 C3853 1.334 . S
C3853 H3830 0.950 . S
C3853 C3852 1.334 . S
C3853 C3854 1.287 . S
C3854 C3853 1.287 . S
C3854 C3855 1.524 . S
C3854 H3873 0.913 . S
C3855 H3831 0.950 . S
C3855 C3854 1.524 . S
C3855 C3856 1.415 . S
C3856 H3832 0.950 . S
C3856 C3851 1.363 . S
C3856 C3855 1.415 . S
C3857 H3833 0.951 . S
C3857 C3858 1.366 . S
C3857 C3859 1.388 . S
C3858 C3857 1.366 . S
C3858 C3862 1.385 . S
C3859 H3834 0.951 . S
C3859 C3857 1.388 . S
C3859 C3860 1.366 . S
C3860 C3859 1.366 . S
C3860 C3861 1.414 . S
C3860 C3863 1.499 . S
C3861 H3835 0.950 . S
C3861 C3860 1.414 . S
C3861 C3862 1.374 . S
C3862 H3836 0.950 . S
C3862 C3858 1.385 . S
C3862 C3861 1.374 . S
C3863 C3860 1.499 . S
C3863 C3864 1.373 . S
C3863 C3865 1.389 . S
C3864 H3837 0.950 . S
C3864 C3850 1.377 . S
C3864 C3863 1.373 . S
C3865 C3849 1.377 . S
C3865 C3863 1.389 . S
C3865 C3866 1.524 . S
C3866 C3865 1.524 . S
C3866 C3867 1.397 . S
C3866 C3871 1.363 . S
C3867 H3838 0.950 . S
C3867 C3866 1.397 . S
C3867 C3868 1.334 . S
C3868 H3839 0.950 . S
C3868 C3867 1.334 . S
C3868 C3869 1.287 . S
C3869 C3868 1.287 . S
C3869 C3870 1.524 . S
C3869 H3872 0.999 . S
C3870 H3840 0.950 . S
C3870 C3869 1.524 . S
C3870 C3871 1.415 . S
C3871 H3841 0.950 . S
C3871 C3866 1.363 . S
C3871 C3870 1.415 . S
H3872 C3869 0.999 . S
H3873 C3854 0.913 . S
H3874 C3892 0.951 . S
H3875 C3894 0.951 . S
H3876 C3896 0.950 . S
H3877 C3897 0.950 . S
H3878 C3899 0.941 1_556 S
H3879 C3902 0.950 1_556 S
H3880 C3903 0.950 . S
H3881 C3905 0.950 . S
H3882 C3906 0.950 . S
H3883 C3907 0.951 . S
H3884 C3909 0.951 . S
H3885 C3911 0.950 . S
H3886 C3912 0.950 . S
H3887 C3914 0.950 . S
H3888 C3917 0.950 . S
H3889 C3918 0.950 . S
H3890 C3920 0.950 . S
H3891 C3921 0.950 . S
C3892 H3874 0.951 . S
C3892 C3893 1.366 . S
C3892 C3894 1.388 . S
C3893 C3892 1.366 . S
C3893 C3897 1.385 1_554 S
C3894 H3875 0.951 . S
C3894 C3892 1.388 . S
C3894 C3895 1.366 . S
C3895 C3894 1.366 . S
C3895 C3896 1.414 1_554 S
C3895 C3898 1.499 . S
C3896 H3876 0.950 . S
C3896 C3895 1.414 1_556 S
C3896 C3897 1.374 . S
C3897 H3877 0.950 . S
C3897 C3893 1.385 1_556 S
C3897 C3896 1.374 . S
C3898 C3895 1.499 . S
C3898 C3899 1.373 . S
C3898 C3900 1.389 . S
C3899 H3878 0.941 1_554 S
C3899 C3898 1.373 . S
C3899 C3915 1.377 . S
C3900 C3898 1.389 . S
C3900 C3901 1.524 . S
C3900 C3914 1.377 . S
C3901 C3900 1.524 . S
C3901 C3902 1.397 . S
C3901 C3906 1.363 . S
C3902 H3879 0.950 1_554 S
C3902 C3901 1.397 . S
C3902 C3903 1.334 . S
C3903 H3880 0.950 . S
C3903 C3902 1.334 . S
C3903 C3904 1.287 . S
C3904 C3903 1.287 . S
C3904 C3905 1.524 . S
C3904 H3923 0.913 . S
C3905 H3881 0.950 . S
C3905 C3904 1.524 . S
C3905 C3906 1.415 . S
C3906 H3882 0.950 . S
C3906 C3901 1.363 . S
C3906 C3905 1.415 . S
C3907 H3883 0.951 . S
C3907 C3908 1.366 1_556 S
C3907 C3909 1.388 . S
C3908 C3907 1.366 1_554 S
C3908 C3912 1.385 . S
C3909 H3884 0.951 . S
C3909 C3907 1.388 . S
C3909 C3910 1.366 1_556 S
C3910 C3909 1.366 1_554 S
C3910 C3911 1.414 . S
C3910 C3913 1.499 . S
C3911 H3885 0.950 . S
C3911 C3910 1.414 . S
C3911 C3912 1.374 . S
C3912 H3886 0.950 . S
C3912 C3908 1.385 . S
C3912 C3911 1.374 . S
C3913 C3910 1.499 . S
C3913 C3914 1.373 . S
C3913 C3915 1.389 . S
C3914 H3887 0.950 . S
C3914 C3900 1.377 . S
C3914 C3913 1.373 . S
C3915 C3899 1.377 . S
C3915 C3913 1.389 . S
C3915 C3916 1.517 1_554 S
C3916 C3915 1.517 1_556 S
C3916 C3917 1.345 1_556 S
C3916 C3921 1.419 . S
C3917 H3888 0.950 . S
C3917 C3916 1.345 1_554 S
C3917 C3918 1.334 . S
C3918 H3889 0.950 . S
C3918 C3917 1.334 . S
C3918 C3919 1.287 1_554 S
C3919 C3918 1.287 1_556 S
C3919 C3920 1.524 . S
C3919 H3922 0.999 . S
C3920 H3890 0.950 . S
C3920 C3919 1.524 . S
C3920 C3921 1.415 . S
C3921 H3891 0.950 . S
C3921 C3916 1.419 . S
C3921 C3920 1.415 . S
H3922 C3919 0.999 . S
H3923 C3904 0.913 . S
H3924 C3942 0.951 . S
H3925 C3944 0.951 . S
H3926 C3946 0.950 . S
H3927 C3947 0.950 . S
H3928 C3949 0.950 . S
H3929 C3952 0.950 . S
H3930 C3953 0.950 . S
H3931 C3955 0.950 . S
H3932 C3956 0.950 . S
H3933 C3957 0.951 . S
H3934 C3959 0.951 . S
H3935 C3961 0.950 . S
H3936 C3962 0.950 . S
H3937 C3964 0.950 . S
H3938 C3967 0.950 . S
H3939 C3968 0.950 . S
H3940 C3970 0.950 . S
H3941 C3971 0.950 . S
C3942 H3924 0.951 . S
C3942 C3943 1.366 . S
C3942 C3944 1.388 . S
C3943 C3942 1.366 . S
C3943 C3947 1.385 . S
C3944 H3925 0.951 . S
C3944 C3942 1.388 . S
C3944 C3945 1.366 . S
C3945 C3944 1.366 . S
C3945 C3946 1.414 . S
C3945 C3948 1.499 . S
C3946 H3926 0.950 . S
C3946 C3945 1.414 . S
C3946 C3947 1.374 . S
C3947 H3927 0.950 . S
C3947 C3943 1.385 . S
C3947 C3946 1.374 . S
C3948 C3945 1.499 . S
C3948 C3949 1.373 . S
C3948 C3950 1.389 . S
C3949 H3928 0.950 . S
C3949 C3948 1.373 . S
C3949 C3965 1.377 . S
C3950 C3948 1.389 . S
C3950 C3951 1.524 . S
C3950 C3964 1.377 . S
C3951 C3950 1.524 . S
C3951 C3952 1.397 . S
C3951 C3956 1.363 . S
C3952 H3929 0.950 . S
C3952 C3951 1.397 . S
C3952 C3953 1.334 . S
C3953 H3930 0.950 . S
C3953 C3952 1.334 . S
C3953 C3954 1.287 . S
C3954 C3953 1.287 . S
C3954 C3955 1.524 . S
C3954 H3973 0.913 . S
C3955 H3931 0.950 . S
C3955 C3954 1.524 . S
C3955 C3956 1.415 . S
C3956 H3932 0.950 . S
C3956 C3951 1.363 . S
C3956 C3955 1.415 . S
C3957 H3933 0.951 . S
C3957 C3958 1.366 . S
C3957 C3959 1.388 . S
C3958 C3957 1.366 . S
C3958 C3962 1.385 . S
C3959 H3934 0.951 . S
C3959 C3957 1.388 . S
C3959 C3960 1.366 . S
C3960 C3959 1.366 . S
C3960 C3961 1.414 . S
C3960 C3963 1.499 . S
C3961 H3935 0.950 . S
C3961 C3960 1.414 . S
C3961 C3962 1.374 . S
C3962 H3936 0.950 . S
C3962 C3958 1.385 . S
C3962 C3961 1.374 . S
C3963 C3960 1.499 . S
C3963 C3964 1.373 . S
C3963 C3965 1.389 . S
C3964 H3937 0.950 . S
C3964 C3950 1.377 . S
C3964 C3963 1.373 . S
C3965 C3949 1.377 . S
C3965 C3963 1.389 . S
C3965 C3966 1.524 . S
C3966 C3965 1.524 . S
C3966 C3967 1.397 . S
C3966 C3971 1.363 . S
C3967 H3938 0.950 . S
C3967 C3966 1.397 . S
C3967 C3968 1.334 . S
C3968 H3939 0.950 . S
C3968 C3967 1.334 . S
C3968 C3969 1.287 . S
C3969 C3968 1.287 . S
C3969 C3970 1.524 . S
C3969 H3972 0.999 . S
C3970 H3940 0.950 . S
C3970 C3969 1.524 . S
C3970 C3971 1.415 . S
C3971 H3941 0.950 . S
C3971 C3966 1.363 . S
C3971 C3970 1.415 . S
H3972 C3969 0.999 . S
H3973 C3954 0.913 . S
H3974 C3992 0.951 . S
H3975 C3994 0.951 . S
H3976 C3996 0.951 1_554 S
H3977 C3997 0.950 . S
H3978 C3999 0.950 . S
H3979 C4002 0.950 . S
H3980 C4003 0.950 . S
H3981 C4005 0.950 . S
H3982 C4006 0.950 . S
H3983 C4007 0.951 . S
H3984 C4009 0.951 . S
H3985 C4011 0.950 . S
H3986 C4012 0.950 . S
H3987 C4014 0.950 . S
H3988 C4017 0.950 . S
H3989 C4018 0.950 . S
H3990 C4020 0.950 . S
H3991 C4021 0.950 . S
C3992 H3974 0.951 . S
C3992 C3993 1.382 . S
C3992 C3994 1.388 . S
C3993 C3992 1.382 . S
C3993 C3997 1.383 1_556 S
C3994 H3975 0.951 . S
C3994 C3992 1.388 . S
C3994 C3995 1.366 . S
C3995 C3994 1.366 . S
C3995 C3996 1.413 . S
C3995 C3998 1.499 . S
C3996 H3976 0.951 1_556 S
C3996 C3995 1.413 . S
C3996 C3997 1.375 1_556 S
C3997 H3977 0.950 . S
C3997 C3993 1.383 1_554 S
C3997 C3996 1.375 1_554 S
C3998 C3995 1.499 . S
C3998 C3999 1.373 1_556 S
C3998 C4000 1.389 . S
C3999 H3978 0.950 . S
C3999 C3998 1.373 1_554 S
C3999 C4015 1.377 . S
C4000 C3998 1.389 . S
C4000 C4001 1.524 . S
C4000 C4014 1.377 . S
C4001 C4000 1.524 . S
C4001 C4002 1.397 . S
C4001 C4006 1.363 . S
C4002 H3979 0.950 . S
C4002 C4001 1.397 . S
C4002 C4003 1.334 . S
C4003 H3980 0.950 . S
C4003 C4002 1.334 . S
C4003 C4004 1.287 . S
C4004 C4003 1.287 . S
C4004 C4005 1.524 . S
C4004 H4023 0.913 . S
C4005 H3981 0.950 . S
C4005 C4004 1.524 . S
C4005 C4006 1.415 . S
C4006 H3982 0.950 . S
C4006 C4001 1.363 . S
C4006 C4005 1.415 . S
C4007 H3983 0.951 . S
C4007 C4008 1.366 . S
C4007 C4009 1.388 . S
C4008 C4007 1.366 . S
C4008 C4012 1.385 . S
C4009 H3984 0.951 . S
C4009 C4007 1.388 . S
C4009 C4010 1.366 . S
C4010 C4009 1.366 . S
C4010 C4011 1.414 . S
C4010 C4013 1.499 . S
C4011 H3985 0.950 . S
C4011 C4010 1.414 . S
C4011 C4012 1.374 . S
C4012 H3986 0.950 . S
C4012 C4008 1.385 . S
C4012 C4011 1.374 . S
C4013 C4010 1.499 . S
C4013 C4014 1.373 . S
C4013 C4015 1.389 1_556 S
C4014 H3987 0.950 . S
C4014 C4000 1.377 . S
C4014 C4013 1.373 . S
C4015 C3999 1.377 . S
C4015 C4013 1.389 1_554 S
C4015 C4016 1.524 . S
C4016 C4015 1.524 . S
C4016 C4017 1.397 . S
C4016 C4021 1.363 . S
C4017 H3988 0.950 . S
C4017 C4016 1.397 . S
C4017 C4018 1.334 . S
C4018 H3989 0.950 . S
C4018 C4017 1.334 . S
C4018 C4019 1.287 . S
C4019 C4018 1.287 . S
C4019 C4020 1.524 . S
C4019 H4022 0.999 . S
C4020 H3990 0.950 . S
C4020 C4019 1.524 . S
C4020 C4021 1.415 . S
C4021 H3991 0.950 . S
C4021 C4016 1.363 . S
C4021 C4020 1.415 . S
H4022 C4019 0.999 . S
H4023 C4004 0.913 . S
H4024 C4042 0.951 . S
H4025 C4044 0.951 . S
H4026 C4046 0.950 . S
H4027 C4047 0.950 . S
H4028 C4049 0.950 . S
H4029 C4052 0.950 . S
H4030 C4053 0.950 . S
H4031 C4055 0.950 . S
H4032 C4056 0.950 . S
H4033 C4057 0.951 . S
H4034 C4059 0.951 . S
H4035 C4061 0.950 . S
H4036 C4062 0.950 . S
H4037 C4064 0.950 . S
H4038 C4067 0.950 . S
H4039 C4068 0.950 . S
H4040 C4070 0.950 . S
H4041 C4071 0.950 . S
C4042 H4024 0.951 . S
C4042 C4043 1.366 . S
C4042 C4044 1.388 . S
C4043 C4042 1.366 . S
C4043 C4047 1.385 . S
C4044 H4025 0.951 . S
C4044 C4042 1.388 . S
C4044 C4045 1.366 . S
C4045 C4044 1.366 . S
C4045 C4046 1.414 . S
C4045 C4048 1.499 . S
C4046 H4026 0.950 . S
C4046 C4045 1.414 . S
C4046 C4047 1.374 . S
C4047 H4027 0.950 . S
C4047 C4043 1.385 . S
C4047 C4046 1.374 . S
C4048 C4045 1.499 . S
C4048 C4049 1.373 . S
C4048 C4050 1.389 . S
C4049 H4028 0.950 . S
C4049 C4048 1.373 . S
C4049 C4065 1.377 . S
C4050 C4048 1.389 . S
C4050 C4051 1.524 . S
C4050 C4064 1.377 . S
C4051 C4050 1.524 . S
C4051 C4052 1.397 . S
C4051 C4056 1.363 . S
C4052 H4029 0.950 . S
C4052 C4051 1.397 . S
C4052 C4053 1.334 . S
C4053 H4030 0.950 . S
C4053 C4052 1.334 . S
C4053 C4054 1.287 . S
C4054 C4053 1.287 . S
C4054 C4055 1.524 . S
C4054 H4073 0.913 . S
C4055 H4031 0.950 . S
C4055 C4054 1.524 . S
C4055 C4056 1.415 . S
C4056 H4032 0.950 . S
C4056 C4051 1.363 . S
C4056 C4055 1.415 . S
C4057 H4033 0.951 . S
C4057 C4058 1.366 . S
C4057 C4059 1.388 . S
C4058 C4057 1.366 . S
C4058 C4062 1.385 . S
C4059 H4034 0.951 . S
C4059 C4057 1.388 . S
C4059 C4060 1.366 . S
C4060 C4059 1.366 . S
C4060 C4061 1.414 . S
C4060 C4063 1.499 . S
C4061 H4035 0.950 . S
C4061 C4060 1.414 . S
C4061 C4062 1.374 . S
C4062 H4036 0.950 . S
C4062 C4058 1.385 . S
C4062 C4061 1.374 . S
C4063 C4060 1.499 . S
C4063 C4064 1.373 . S
C4063 C4065 1.389 . S
C4064 H4037 0.950 . S
C4064 C4050 1.377 . S
C4064 C4063 1.373 . S
C4065 C4049 1.377 . S
C4065 C4063 1.389 . S
C4065 C4066 1.524 . S
C4066 C4065 1.524 . S
C4066 C4067 1.397 . S
C4066 C4071 1.363 . S
C4067 H4038 0.950 . S
C4067 C4066 1.397 . S
C4067 C4068 1.334 . S
C4068 H4039 0.950 . S
C4068 C4067 1.334 . S
C4068 C4069 1.287 . S
C4069 C4068 1.287 . S
C4069 C4070 1.524 . S
C4069 H4072 0.999 . S
C4070 H4040 0.950 . S
C4070 C4069 1.524 . S
C4070 C4071 1.415 . S
C4071 H4041 0.950 . S
C4071 C4066 1.363 . S
C4071 C4070 1.415 . S
H4072 C4069 0.999 . S
H4073 C4054 0.913 . S
H4074 C4092 0.951 . S
H4075 C4094 0.951 . S
H4076 C4096 0.950 . S
H4077 C4097 0.950 . S
H4078 C4099 0.950 . S
H4079 C4102 0.950 1_655 S
H4080 C4103 0.950 1_655 S
H4081 C4105 0.950 . S
H4082 C4106 0.950 . S
H4083 C4107 0.951 . S
H4084 C4109 0.951 . S
H4085 C4111 0.950 . S
H4086 C4112 0.950 . S
H4087 C4114 0.950 . S
H4088 C4117 0.950 . S
H4089 C4118 0.950 . S
H4090 C4120 0.950 . S
H4091 C4121 0.950 . S
C4092 H4074 0.951 . S
C4092 C4093 1.366 . S
C4092 C4094 1.388 . S
C4093 C4092 1.366 . S
C4093 C4097 1.385 1_455 S
C4094 H4075 0.951 . S
C4094 C4092 1.388 . S
C4094 C4095 1.366 . S
C4095 C4094 1.366 . S
C4095 C4096 1.414 1_455 S
C4095 C4098 1.499 . S
C4096 H4076 0.950 . S
C4096 C4095 1.414 1_655 S
C4096 C4097 1.374 . S
C4097 H4077 0.950 . S
C4097 C4093 1.385 1_655 S
C4097 C4096 1.374 . S
C4098 C4095 1.499 . S
C4098 C4099 1.373 . S
C4098 C4100 1.389 . S
C4099 H4078 0.950 . S
C4099 C4098 1.373 . S
C4099 C4115 1.377 . S
C4100 C4098 1.389 . S
C4100 C4101 1.524 . S
C4100 C4114 1.377 . S
C4101 C4100 1.524 . S
C4101 C4102 1.397 . S
C4101 C4106 1.363 . S
C4102 H4079 0.950 1_455 S
C4102 C4101 1.397 . S
C4102 C4103 1.334 . S
C4103 H4080 0.950 1_455 S
C4103 C4102 1.334 . S
C4103 C4104 1.287 . S
C4104 C4103 1.287 . S
C4104 C4105 1.524 . S
C4104 H4123 0.913 . S
C4105 H4081 0.950 . S
C4105 C4104 1.524 . S
C4105 C4106 1.415 . S
C4106 H4082 0.950 . S
C4106 C4101 1.363 . S
C4106 C4105 1.415 . S
C4107 H4083 0.951 . S
C4107 C4108 1.366 1_655 S
C4107 C4109 1.388 . S
C4108 C4107 1.366 1_455 S
C4108 C4112 1.385 . S
C4109 H4084 0.951 . S
C4109 C4107 1.388 . S
C4109 C4110 1.366 1_655 S
C4110 C4109 1.366 1_455 S
C4110 C4111 1.414 . S
C4110 C4113 1.499 . S
C4111 H4085 0.950 . S
C4111 C4110 1.414 . S
C4111 C4112 1.374 . S
C4112 H4086 0.950 . S
C4112 C4108 1.385 . S
C4112 C4111 1.374 . S
C4113 C4110 1.499 . S
C4113 C4114 1.373 . S
C4113 C4115 1.389 . S
C4114 H4087 0.950 . S
C4114 C4100 1.377 . S
C4114 C4113 1.373 . S
C4115 C4099 1.377 . S
C4115 C4113 1.389 . S
C4115 C4116 1.524 . S
C4116 C4115 1.524 . S
C4116 C4117 1.397 . S
C4116 C4121 1.363 1_455 S
C4117 H4088 0.950 . S
C4117 C4116 1.397 . S
C4117 C4118 1.334 . S
C4118 H4089 0.950 . S
C4118 C4117 1.334 . S
C4118 C4119 1.287 . S
C4119 C4118 1.287 . S
C4119 C4120 1.524 1_455 S
C4119 H4122 0.999 . S
C4120 H4090 0.950 . S
C4120 C4119 1.524 1_655 S
C4120 C4121 1.415 . S
C4121 H4091 0.950 . S
C4121 C4116 1.363 1_655 S
C4121 C4120 1.415 . S
H4122 C4119 0.999 . S
H4123 C4104 0.913 . S
H4124 C4142 0.951 . S
H4125 C4144 0.951 . S
H4126 C4146 0.950 . S
H4127 C4147 0.950 . S
H4128 C4149 0.950 . S
H4129 C4152 0.950 . S
H4130 C4153 0.950 . S
H4131 C4155 0.950 . S
H4132 C4156 0.950 . S
H4133 C4157 0.951 . S
H4134 C4159 0.951 . S
H4135 C4161 0.950 . S
H4136 C4162 0.950 . S
H4137 C4164 0.950 . S
H4138 C4167 0.950 . S
H4139 C4168 0.950 . S
H4140 C4170 0.950 . S
H4141 C4171 0.950 . S
C4142 H4124 0.951 . S
C4142 C4143 1.366 . S
C4142 C4144 1.388 . S
C4143 C4142 1.366 . S
C4143 C4147 1.385 . S
C4144 H4125 0.951 . S
C4144 C4142 1.388 . S
C4144 C4145 1.366 . S
C4145 C4144 1.366 . S
C4145 C4146 1.414 . S
C4145 C4148 1.499 . S
C4146 H4126 0.950 . S
C4146 C4145 1.414 . S
C4146 C4147 1.374 . S
C4147 H4127 0.950 . S
C4147 C4143 1.385 . S
C4147 C4146 1.374 . S
C4148 C4145 1.499 . S
C4148 C4149 1.373 . S
C4148 C4150 1.389 . S
C4149 H4128 0.950 . S
C4149 C4148 1.373 . S
C4149 C4165 1.377 . S
C4150 C4148 1.389 . S
C4150 C4151 1.524 . S
C4150 C4164 1.377 . S
C4151 C4150 1.524 . S
C4151 C4152 1.397 . S
C4151 C4156 1.363 . S
C4152 H4129 0.950 . S
C4152 C4151 1.397 . S
C4152 C4153 1.334 . S
C4153 H4130 0.950 . S
C4153 C4152 1.334 . S
C4153 C4154 1.287 . S
C4154 C4153 1.287 . S
C4154 C4155 1.524 . S
C4154 H4173 0.913 . S
C4155 H4131 0.950 . S
C4155 C4154 1.524 . S
C4155 C4156 1.415 . S
C4156 H4132 0.950 . S
C4156 C4151 1.363 . S
C4156 C4155 1.415 . S
C4157 H4133 0.951 . S
C4157 C4158 1.366 . S
C4157 C4159 1.388 . S
C4158 C4157 1.366 . S
C4158 C4162 1.385 . S
C4159 H4134 0.951 . S
C4159 C4157 1.388 . S
C4159 C4160 1.366 . S
C4160 C4159 1.366 . S
C4160 C4161 1.414 . S
C4160 C4163 1.499 . S
C4161 H4135 0.950 . S
C4161 C4160 1.414 . S
C4161 C4162 1.374 . S
C4162 H4136 0.950 . S
C4162 C4158 1.385 . S
C4162 C4161 1.374 . S
C4163 C4160 1.499 . S
C4163 C4164 1.373 . S
C4163 C4165 1.389 . S
C4164 H4137 0.950 . S
C4164 C4150 1.377 . S
C4164 C4163 1.373 . S
C4165 C4149 1.377 . S
C4165 C4163 1.389 . S
C4165 C4166 1.524 . S
C4166 C4165 1.524 . S
C4166 C4167 1.397 . S
C4166 C4171 1.363 . S
C4167 H4138 0.950 . S
C4167 C4166 1.397 . S
C4167 C4168 1.334 . S
C4168 H4139 0.950 . S
C4168 C4167 1.334 . S
C4168 C4169 1.287 . S
C4169 C4168 1.287 . S
C4169 C4170 1.524 . S
C4169 H4172 0.999 . S
C4170 H4140 0.950 . S
C4170 C4169 1.524 . S
C4170 C4171 1.415 . S
C4171 H4141 0.950 . S
C4171 C4166 1.363 . S
C4171 C4170 1.415 . S
H4172 C4169 0.999 . S
H4173 C4154 0.913 . S
H4174 C4192 0.951 . S
H4175 C4194 0.951 . S
H4176 C4196 0.950 . S
H4177 C4197 0.950 . S
H4178 C4199 0.921 1_455 S
H4179 C4202 0.950 1_455 S
H4180 C4203 0.950 1_455 S
H4181 C4205 0.950 . S
H4182 C4206 0.950 . S
H4183 C4207 0.969 . S
H4184 C4209 0.951 . S
H4185 C4211 0.950 . S
H4186 C4212 0.950 . S
H4187 C4214 0.950 . S
H4188 C4217 0.950 . S
H4189 C4218 0.950 . S
H4190 C4220 0.950 . S
H4191 C4221 0.950 . S
C4192 H4174 0.951 . S
C4192 C4193 1.416 . S
C4192 C4194 1.388 . S
C4193 C4192 1.416 . S
C4193 C4197 1.346 1_655 S
C4194 H4175 0.951 . S
C4194 C4192 1.388 . S
C4194 C4195 1.366 . S
C4195 C4194 1.366 . S
C4195 C4196 1.414 1_655 S
C4195 C4198 1.499 . S
C4196 H4176 0.950 . S
C4196 C4195 1.414 1_455 S
C4196 C4197 1.374 . S
C4197 H4177 0.950 . S
C4197 C4193 1.346 1_455 S
C4197 C4196 1.374 . S
C4198 C4195 1.499 . S
C4198 C4199 1.388 . S
C4198 C4200 1.389 . S
C4199 H4178 0.921 1_655 S
C4199 C4198 1.388 . S
C4199 C4215 1.396 . S
C4200 C4198 1.389 . S
C4200 C4201 1.524 . S
C4200 C4214 1.377 . S
C4201 C4200 1.524 . S
C4201 C4202 1.397 . S
C4201 C4206 1.363 . S
C4202 H4179 0.950 1_655 S
C4202 C4201 1.397 . S
C4202 C4203 1.334 . S
C4203 H4180 0.950 1_655 S
C4203 C4202 1.334 . S
C4203 C4204 1.287 . S
C4204 C4203 1.287 . S
C4204 C4205 1.524 . S
C4204 H4223 0.913 . S
C4205 H4181 0.950 . S
C4205 C4204 1.524 . S
C4205 C4206 1.415 . S
C4206 H4182 0.950 . S
C4206 C4201 1.363 . S
C4206 C4205 1.415 . S
C4207 H4183 0.969 . S
C4207 C4208 1.343 1_455 S
C4207 C4209 1.393 . S
C4208 C4207 1.343 1_655 S
C4208 C4212 1.385 . S
C4209 H4184 0.951 . S
C4209 C4207 1.393 . S
C4209 C4210 1.366 1_455 S
C4210 C4209 1.366 1_655 S
C4210 C4211 1.414 . S
C4210 C4213 1.499 . S
C4211 H4185 0.950 . S
C4211 C4210 1.414 . S
C4211 C4212 1.374 . S
C4212 H4186 0.950 . S
C4212 C4208 1.385 . S
C4212 C4211 1.374 . S
C4213 C4210 1.499 . S
C4213 C4214 1.373 . S
C4213 C4215 1.389 . S
C4214 H4187 0.950 . S
C4214 C4200 1.377 . S
C4214 C4213 1.373 . S
C4215 C4199 1.396 . S
C4215 C4213 1.389 . S
C4215 C4216 1.525 1_655 S
C4216 C4215 1.525 1_455 S
C4216 C4217 1.401 1_455 S
C4216 C4221 1.358 . S
C4217 H4188 0.950 . S
C4217 C4216 1.401 1_655 S
C4217 C4218 1.334 . S
C4218 H4189 0.950 . S
C4218 C4217 1.334 . S
C4218 C4219 1.287 1_655 S
C4219 C4218 1.287 1_455 S
C4219 C4220 1.524 . S
C4219 H4222 0.999 . S
C4220 H4190 0.950 . S
C4220 C4219 1.524 . S
C4220 C4221 1.415 . S
C4221 H4191 0.950 . S
C4221 C4216 1.358 . S
C4221 C4220 1.415 . S
H4222 C4219 0.999 . S
H4223 C4204 0.913 . S
H4224 C4242 0.951 . S
H4225 C4244 0.951 . S
H4226 C4246 0.950 . S
H4227 C4247 0.950 . S
H4228 C4249 0.950 . S
H4229 C4252 0.950 . S
H4230 C4253 0.950 . S
H4231 C4255 0.950 . S
H4232 C4256 0.950 . S
H4233 C4257 0.951 . S
H4234 C4259 0.951 . S
H4235 C4261 0.950 . S
H4236 C4262 0.950 . S
H4237 C4264 0.950 . S
H4238 C4267 0.950 . S
H4239 C4268 0.950 . S
H4240 C4270 0.950 . S
H4241 C4271 0.950 . S
C4242 H4224 0.951 . S
C4242 C4243 1.366 . S
C4242 C4244 1.388 . S
C4243 C4242 1.366 . S
C4243 C4247 1.385 . S
C4244 H4225 0.951 . S
C4244 C4242 1.388 . S
C4244 C4245 1.366 . S
C4245 C4244 1.366 . S
C4245 C4246 1.414 . S
C4245 C4248 1.499 . S
C4246 H4226 0.950 . S
C4246 C4245 1.414 . S
C4246 C4247 1.374 . S
C4247 H4227 0.950 . S
C4247 C4243 1.385 . S
C4247 C4246 1.374 . S
C4248 C4245 1.499 . S
C4248 C4249 1.373 . S
C4248 C4250 1.389 . S
C4249 H4228 0.950 . S
C4249 C4248 1.373 . S
C4249 C4265 1.377 . S
C4250 C4248 1.389 . S
C4250 C4251 1.524 . S
C4250 C4264 1.377 . S
C4251 C4250 1.524 . S
C4251 C4252 1.397 . S
C4251 C4256 1.363 . S
C4252 H4229 0.950 . S
C4252 C4251 1.397 . S
C4252 C4253 1.334 . S
C4253 H4230 0.950 . S
C4253 C4252 1.334 . S
C4253 C4254 1.287 . S
C4254 C4253 1.287 . S
C4254 C4255 1.524 . S
C4254 H4273 0.913 . S
C4255 H4231 0.950 . S
C4255 C4254 1.524 . S
C4255 C4256 1.415 . S
C4256 H4232 0.950 . S
C4256 C4251 1.363 . S
C4256 C4255 1.415 . S
C4257 H4233 0.951 . S
C4257 C4258 1.366 . S
C4257 C4259 1.388 . S
C4258 C4257 1.366 . S
C4258 C4262 1.385 . S
C4259 H4234 0.951 . S
C4259 C4257 1.388 . S
C4259 C4260 1.366 . S
C4260 C4259 1.366 . S
C4260 C4261 1.414 . S
C4260 C4263 1.499 . S
C4261 H4235 0.950 . S
C4261 C4260 1.414 . S
C4261 C4262 1.374 . S
C4262 H4236 0.950 . S
C4262 C4258 1.385 . S
C4262 C4261 1.374 . S
C4263 C4260 1.499 . S
C4263 C4264 1.373 . S
C4263 C4265 1.389 . S
C4264 H4237 0.950 . S
C4264 C4250 1.377 . S
C4264 C4263 1.373 . S
C4265 C4249 1.377 . S
C4265 C4263 1.389 . S
C4265 C4266 1.524 . S
C4266 C4265 1.524 . S
C4266 C4267 1.397 . S
C4266 C4271 1.363 . S
C4267 H4238 0.950 . S
C4267 C4266 1.397 . S
C4267 C4268 1.334 . S
C4268 H4239 0.950 . S
C4268 C4267 1.334 . S
C4268 C4269 1.287 . S
C4269 C4268 1.287 . S
C4269 C4270 1.524 . S
C4269 H4272 0.999 . S
C4270 H4240 0.950 . S
C4270 C4269 1.524 . S
C4270 C4271 1.415 . S
C4271 H4241 0.950 . S
C4271 C4266 1.363 . S
C4271 C4270 1.415 . S
H4272 C4269 0.999 . S
H4273 C4254 0.913 . S
H4274 C4292 0.951 . S
H4275 C4294 0.951 . S
H4276 C4296 0.950 . S
H4277 C4297 0.950 . S
H4278 C4299 0.950 . S
H4279 C4302 0.950 . S
H4280 C4303 0.950 . S
H4281 C4305 0.950 . S
H4282 C4306 0.950 . S
H4283 C4307 0.951 . S
H4284 C4309 0.951 . S
H4285 C4311 0.950 . S
H4286 C4312 0.950 . S
H4287 C4314 0.950 . S
H4288 C4317 0.950 . S
H4289 C4318 0.950 . S
H4290 C4320 0.950 . S
H4291 C4321 0.950 . S
C4292 H4274 0.951 . S
C4292 C4293 1.366 . S
C4292 C4294 1.388 . S
C4293 C4292 1.366 . S
C4293 C4297 1.385 . S
C4294 H4275 0.951 . S
C4294 C4292 1.388 . S
C4294 C4295 1.366 . S
C4295 C4294 1.366 . S
C4295 C4296 1.414 . S
C4295 C4298 1.499 . S
C4296 H4276 0.950 . S
C4296 C4295 1.414 . S
C4296 C4297 1.374 . S
C4297 H4277 0.950 . S
C4297 C4293 1.385 . S
C4297 C4296 1.374 . S
C4298 C4295 1.499 . S
C4298 C4299 1.373 . S
C4298 C4300 1.389 . S
C4299 H4278 0.950 . S
C4299 C4298 1.373 . S
C4299 C4315 1.377 . S
C4300 C4298 1.389 . S
C4300 C4301 1.524 . S
C4300 C4314 1.377 . S
C4301 C4300 1.524 . S
C4301 C4302 1.397 . S
C4301 C4306 1.363 . S
C4302 H4279 0.950 . S
C4302 C4301 1.397 . S
C4302 C4303 1.334 . S
C4303 H4280 0.950 . S
C4303 C4302 1.334 . S
C4303 C4304 1.287 . S
C4304 C4303 1.287 . S
C4304 C4305 1.524 . S
C4304 H4323 0.913 . S
C4305 H4281 0.950 . S
C4305 C4304 1.524 . S
C4305 C4306 1.415 . S
C4306 H4282 0.950 . S
C4306 C4301 1.363 . S
C4306 C4305 1.415 . S
C4307 H4283 0.951 . S
C4307 C4308 1.366 . S
C4307 C4309 1.388 . S
C4308 C4307 1.366 . S
C4308 C4312 1.385 . S
C4309 H4284 0.951 . S
C4309 C4307 1.388 . S
C4309 C4310 1.366 . S
C4310 C4309 1.366 . S
C4310 C4311 1.414 . S
C4310 C4313 1.499 . S
C4311 H4285 0.950 . S
C4311 C4310 1.414 . S
C4311 C4312 1.374 . S
C4312 H4286 0.950 . S
C4312 C4308 1.385 . S
C4312 C4311 1.374 . S
C4313 C4310 1.499 . S
C4313 C4314 1.373 . S
C4313 C4315 1.389 . S
C4314 H4287 0.950 . S
C4314 C4300 1.377 . S
C4314 C4313 1.373 . S
C4315 C4299 1.377 . S
C4315 C4313 1.389 . S
C4315 C4316 1.524 . S
C4316 C4315 1.524 . S
C4316 C4317 1.397 . S
C4316 C4321 1.363 . S
C4317 H4288 0.950 . S
C4317 C4316 1.397 . S
C4317 C4318 1.334 . S
C4318 H4289 0.950 . S
C4318 C4317 1.334 . S
C4318 C4319 1.287 . S
C4319 C4318 1.287 . S
C4319 C4320 1.524 . S
C4319 H4322 0.999 . S
C4320 H4290 0.950 . S
C4320 C4319 1.524 . S
C4320 C4321 1.415 . S
C4321 H4291 0.950 . S
C4321 C4316 1.363 . S
C4321 C4320 1.415 . S
H4322 C4319 0.999 . S
H4323 C4304 0.913 . S
H4324 C4342 0.951 . S
H4325 C4344 0.951 . S
H4326 C4346 0.950 . S
H4327 C4347 0.950 . S
H4328 C4349 0.950 . S
H4329 C4352 0.950 . S
H4330 C4353 0.950 . S
H4331 C4355 0.950 . S
H4332 C4356 0.950 . S
H4333 C4357 0.951 . S
H4334 C4359 0.951 . S
H4335 C4361 0.950 . S
H4336 C4362 0.950 . S
H4337 C4364 0.950 . S
H4338 C4367 0.950 . S
H4339 C4368 0.950 . S
H4340 C4370 0.950 . S
H4341 C4371 0.950 . S
C4342 H4324 0.951 . S
C4342 C4343 1.358 1_565 S
C4342 C4344 1.388 . S
C4343 C4342 1.358 1_545 S
C4343 C4347 1.406 . S
C4344 H4325 0.951 . S
C4344 C4342 1.388 . S
C4344 C4345 1.366 1_565 S
C4345 C4344 1.366 1_545 S
C4345 C4346 1.414 . S
C4345 C4348 1.499 . S
C4346 H4326 0.950 . S
C4346 C4345 1.414 . S
C4346 C4347 1.374 . S
C4347 H4327 0.950 . S
C4347 C4343 1.406 . S
C4347 C4346 1.374 . S
C4348 C4345 1.499 . S
C4348 C4349 1.373 . S
C4348 C4350 1.389 1_545 S
C4349 H4328 0.950 . S
C4349 C4348 1.373 . S
C4349 C4365 1.377 . S
C4350 C4348 1.389 1_565 S
C4350 C4351 1.524 . S
C4350 C4364 1.377 . S
C4351 C4350 1.524 . S
C4351 C4352 1.397 . S
C4351 C4356 1.363 . S
C4352 H4329 0.950 . S
C4352 C4351 1.397 . S
C4352 C4353 1.334 . S
C4353 H4330 0.950 . S
C4353 C4352 1.334 . S
C4353 C4354 1.287 . S
C4354 C4353 1.287 . S
C4354 C4355 1.524 . S
C4354 H4373 0.913 . S
C4355 H4331 0.950 . S
C4355 C4354 1.524 . S
C4355 C4356 1.415 . S
C4356 H4332 0.950 . S
C4356 C4351 1.363 . S
C4356 C4355 1.415 . S
C4357 H4333 0.951 . S
C4357 C4358 1.366 . S
C4357 C4359 1.388 . S
C4358 C4357 1.366 . S
C4358 C4362 1.385 . S
C4359 H4334 0.951 . S
C4359 C4357 1.388 . S
C4359 C4360 1.366 . S
C4360 C4359 1.366 . S
C4360 C4361 1.414 . S
C4360 C4363 1.499 . S
C4361 H4335 0.950 . S
C4361 C4360 1.414 . S
C4361 C4362 1.374 . S
C4362 H4336 0.950 . S
C4362 C4358 1.385 . S
C4362 C4361 1.374 . S
C4363 C4360 1.499 . S
C4363 C4364 1.373 1_545 S
C4363 C4365 1.389 . S
C4364 H4337 0.950 . S
C4364 C4350 1.377 . S
C4364 C4363 1.373 1_565 S
C4365 C4349 1.377 . S
C4365 C4363 1.389 . S
C4365 C4366 1.524 . S
C4366 C4365 1.524 . S
C4366 C4367 1.397 . S
C4366 C4371 1.363 . S
C4367 H4338 0.950 . S
C4367 C4366 1.397 . S
C4367 C4368 1.334 . S
C4368 H4339 0.950 . S
C4368 C4367 1.334 . S
C4368 C4369 1.287 . S
C4369 C4368 1.287 . S
C4369 C4370 1.524 . S
C4369 H4372 0.999 . S
C4370 H4340 0.950 . S
C4370 C4369 1.524 . S
C4370 C4371 1.415 . S
C4371 H4341 0.950 . S
C4371 C4366 1.363 . S
C4371 C4370 1.415 . S
H4372 C4369 0.999 . S
H4373 C4354 0.913 . S
H4374 C4392 0.951 . S
H4375 C4394 0.951 . S
H4376 C4396 0.950 . S
H4377 C4397 0.950 . S
H4378 C4399 0.950 . S
H4379 C4402 0.950 . S
H4380 C4403 0.950 . S
H4381 C4405 0.950 . S
H4382 C4406 0.950 . S
H4383 C4407 0.951 . S
H4384 C4409 0.951 . S
H4385 C4411 0.950 . S
H4386 C4412 0.950 . S
H4387 C4414 0.950 . S
H4388 C4417 0.950 . S
H4389 C4418 0.950 . S
H4390 C4420 0.950 . S
H4391 C4421 0.950 . S
C4392 H4374 0.951 . S
C4392 C4393 1.366 . S
C4392 C4394 1.388 . S
C4393 C4392 1.366 . S
C4393 C4397 1.385 1_565 S
C4394 H4375 0.951 . S
C4394 C4392 1.388 . S
C4394 C4395 1.366 . S
C4395 C4394 1.366 . S
C4395 C4396 1.414 1_565 S
C4395 C4398 1.499 . S
C4396 H4376 0.950 . S
C4396 C4395 1.414 1_545 S
C4396 C4397 1.374 . S
C4397 H4377 0.950 . S
C4397 C4393 1.385 1_545 S
C4397 C4396 1.374 . S
C4398 C4395 1.499 . S
C4398 C4399 1.373 1_565 S
C4398 C4400 1.389 . S
C4399 H4378 0.950 . S
C4399 C4398 1.373 1_545 S
C4399 C4415 1.377 . S
C4400 C4398 1.389 . S
C4400 C4401 1.524 . S
C4400 C4414 1.377 . S
C4401 C4400 1.524 . S
C4401 C4402 1.397 . S
C4401 C4406 1.363 . S
C4402 H4379 0.950 . S
C4402 C4401 1.397 . S
C4402 C4403 1.334 . S
C4403 H4380 0.950 . S
C4403 C4402 1.334 . S
C4403 C4404 1.287 . S
C4404 C4403 1.287 . S
C4404 C4405 1.524 . S
C4404 H4423 0.913 . S
C4405 H4381 0.950 . S
C4405 C4404 1.524 . S
C4405 C4406 1.415 . S
C4406 H4382 0.950 . S
C4406 C4401 1.363 . S
C4406 C4405 1.415 . S
C4407 H4383 0.951 . S
C4407 C4408 1.366 1_545 S
C4407 C4409 1.388 . S
C4408 C4407 1.366 1_565 S
C4408 C4412 1.385 . S
C4409 H4384 0.951 . S
C4409 C4407 1.388 . S
C4409 C4410 1.366 1_545 S
C4410 C4409 1.366 1_565 S
C4410 C4411 1.414 . S
C4410 C4413 1.499 . S
C4411 H4385 0.950 . S
C4411 C4410 1.414 . S
C4411 C4412 1.374 . S
C4412 H4386 0.950 . S
C4412 C4408 1.385 . S
C4412 C4411 1.374 . S
C4413 C4410 1.499 . S
C4413 C4414 1.373 . S
C4413 C4415 1.389 1_565 S
C4414 H4387 0.950 . S
C4414 C4400 1.377 . S
C4414 C4413 1.373 . S
C4415 C4399 1.377 . S
C4415 C4413 1.389 1_545 S
C4415 C4416 1.524 . S
C4416 C4415 1.524 . S
C4416 C4417 1.397 . S
C4416 C4421 1.363 . S
C4417 H4388 0.950 . S
C4417 C4416 1.397 . S
C4417 C4418 1.334 . S
C4418 H4389 0.950 . S
C4418 C4417 1.334 . S
C4418 C4419 1.287 . S
C4419 C4418 1.287 . S
C4419 C4420 1.524 . S
C4419 H4422 0.999 . S
C4420 H4390 0.950 . S
C4420 C4419 1.524 . S
C4420 C4421 1.415 . S
C4421 H4391 0.950 . S
C4421 C4416 1.363 . S
C4421 C4420 1.415 . S
H4422 C4419 0.999 . S
H4423 C4404 0.913 . S
H4424 C4442 0.951 . S
H4425 C4444 0.951 . S
H4426 C4446 0.950 . S
H4427 C4447 0.950 . S
H4428 C4449 0.950 . S
H4429 C4452 0.950 . S
H4430 C4453 0.950 . S
H4431 C4455 0.950 . S
H4432 C4456 0.950 . S
H4433 C4457 0.951 . S
H4434 C4459 0.951 . S
H4435 C4461 0.950 . S
H4436 C4462 0.950 . S
H4437 C4464 0.950 . S
H4438 C4467 0.950 . S
H4439 C4468 0.950 . S
H4440 C4470 0.950 . S
H4441 C4471 0.950 . S
C4442 H4424 0.951 . S
C4442 C4443 1.366 . S
C4442 C4444 1.388 . S
C4443 C4442 1.366 . S
C4443 C4447 1.385 . S
C4444 H4425 0.951 . S
C4444 C4442 1.388 . S
C4444 C4445 1.366 . S
C4445 C4444 1.366 . S
C4445 C4446 1.414 . S
C4445 C4448 1.499 . S
C4446 H4426 0.950 . S
C4446 C4445 1.414 . S
C4446 C4447 1.374 . S
C4447 H4427 0.950 . S
C4447 C4443 1.385 . S
C4447 C4446 1.374 . S
C4448 C4445 1.499 . S
C4448 C4449 1.373 . S
C4448 C4450 1.389 . S
C4449 H4428 0.950 . S
C4449 C4448 1.373 . S
C4449 C4465 1.377 . S
C4450 C4448 1.389 . S
C4450 C4451 1.524 . S
C4450 C4464 1.377 . S
C4451 C4450 1.524 . S
C4451 C4452 1.397 . S
C4451 C4456 1.363 . S
C4452 H4429 0.950 . S
C4452 C4451 1.397 . S
C4452 C4453 1.334 . S
C4453 H4430 0.950 . S
C4453 C4452 1.334 . S
C4453 C4454 1.287 . S
C4454 C4453 1.287 . S
C4454 C4455 1.524 . S
C4454 H4473 0.913 . S
C4455 H4431 0.950 . S
C4455 C4454 1.524 . S
C4455 C4456 1.415 . S
C4456 H4432 0.950 . S
C4456 C4451 1.363 . S
C4456 C4455 1.415 . S
C4457 H4433 0.951 . S
C4457 C4458 1.366 . S
C4457 C4459 1.388 . S
C4458 C4457 1.366 . S
C4458 C4462 1.385 . S
C4459 H4434 0.951 . S
C4459 C4457 1.388 . S
C4459 C4460 1.366 . S
C4460 C4459 1.366 . S
C4460 C4461 1.414 . S
C4460 C4463 1.499 . S
C4461 H4435 0.950 . S
C4461 C4460 1.414 . S
C4461 C4462 1.374 . S
C4462 H4436 0.950 . S
C4462 C4458 1.385 . S
C4462 C4461 1.374 . S
C4463 C4460 1.499 . S
C4463 C4464 1.373 . S
C4463 C4465 1.389 . S
C4464 H4437 0.950 . S
C4464 C4450 1.377 . S
C4464 C4463 1.373 . S
C4465 C4449 1.377 . S
C4465 C4463 1.389 . S
C4465 C4466 1.524 . S
C4466 C4465 1.524 . S
C4466 C4467 1.397 . S
C4466 C4471 1.363 . S
C4467 H4438 0.950 . S
C4467 C4466 1.397 . S
C4467 C4468 1.334 . S
C4468 H4439 0.950 . S
C4468 C4467 1.334 . S
C4468 C4469 1.287 . S
C4469 C4468 1.287 . S
C4469 C4470 1.524 . S
C4469 H4472 0.999 . S
C4470 H4440 0.950 . S
C4470 C4469 1.524 . S
C4470 C4471 1.415 . S
C4471 H4441 0.950 . S
C4471 C4466 1.363 . S
C4471 C4470 1.415 . S
H4472 C4469 0.999 . S
H4473 C4454 0.913 . S
H4474 C4492 0.941 1_554 S
H4475 C4494 0.933 1_554 S
H4476 C4496 0.950 . S
H4477 C4497 0.950 . S
H4478 C4499 0.950 . S
H4479 C4502 0.950 . S
H4480 C4503 0.950 . S
H4481 C4505 0.950 . S
H4482 C4506 0.950 . S
H4483 C4507 0.951 . S
H4484 C4509 0.951 . S
H4485 C4511 0.935 1_554 S
H4486 C4512 0.943 1_554 S
H4487 C4514 0.950 . S
H4488 C4517 0.950 . S
H4489 C4518 0.950 . S
H4490 C4520 0.950 . S
H4491 C4521 0.938 1_556 S
C4492 H4474 0.941 1_556 S
C4492 C4493 1.366 . S
C4492 C4494 1.388 . S
C4493 C4492 1.366 . S
C4493 C4497 1.385 . S
C4494 H4475 0.933 1_556 S
C4494 C4492 1.388 . S
C4494 C4495 1.366 . S
C4495 C4494 1.366 . S
C4495 C4496 1.414 . S
C4495 C4498 1.499 . S
C4496 H4476 0.950 . S
C4496 C4495 1.414 . S
C4496 C4497 1.374 . S
C4497 H4477 0.950 . S
C4497 C4493 1.385 . S
C4497 C4496 1.374 . S
C4498 C4495 1.499 . S
C4498 C4499 1.373 . S
C4498 C4500 1.389 . S
C4499 H4478 0.950 . S
C4499 C4498 1.373 . S
C4499 C4515 1.377 . S
C4500 C4498 1.389 . S
C4500 C4501 1.524 . S
C4500 C4514 1.377 . S
C4501 C4500 1.524 . S
C4501 C4502 1.397 . S
C4501 C4506 1.363 . S
C4502 H4479 0.950 . S
C4502 C4501 1.397 . S
C4502 C4503 1.334 . S
C4503 H4480 0.950 . S
C4503 C4502 1.334 . S
C4503 C4504 1.287 . S
C4504 C4503 1.287 . S
C4504 C4505 1.524 . S
C4504 H4523 0.913 . S
C4505 H4481 0.950 . S
C4505 C4504 1.524 . S
C4505 C4506 1.415 . S
C4506 H4482 0.950 . S
C4506 C4501 1.363 . S
C4506 C4505 1.415 . S
C4507 H4483 0.951 . S
C4507 C4508 1.366 . S
C4507 C4509 1.388 . S
C4508 C4507 1.366 . S
C4508 C4512 1.392 . S
C4509 H4484 0.951 . S
C4509 C4507 1.388 . S
C4509 C4510 1.366 . S
C4510 C4509 1.366 . S
C4510 C4511 1.428 . S
C4510 C4513 1.499 . S
C4511 H4485 0.935 1_556 S
C4511 C4510 1.428 . S
C4511 C4512 1.375 . S
C4512 H4486 0.943 1_556 S
C4512 C4508 1.392 . S
C4512 C4511 1.375 . S
C4513 C4510 1.499 . S
C4513 C4514 1.373 . S
C4513 C4515 1.389 . S
C4514 H4487 0.950 . S
C4514 C4500 1.377 . S
C4514 C4513 1.373 . S
C4515 C4499 1.377 . S
C4515 C4513 1.389 . S
C4515 C4516 1.524 1_556 S
C4516 C4515 1.524 1_554 S
C4516 C4517 1.397 . S
C4516 C4521 1.369 . S
C4517 H4488 0.950 . S
C4517 C4516 1.397 . S
C4517 C4518 1.334 . S
C4518 H4489 0.950 . S
C4518 C4517 1.334 . S
C4518 C4519 1.287 . S
C4519 C4518 1.287 . S
C4519 C4520 1.524 . S
C4519 H4522 0.999 . S
C4520 H4490 0.950 . S
C4520 C4519 1.524 . S
C4520 C4521 1.421 . S
C4521 H4491 0.938 1_554 S
C4521 C4516 1.369 . S
C4521 C4520 1.421 . S
H4522 C4519 0.999 . S
H4523 C4504 0.913 . S
H4524 C4542 0.951 . S
H4525 C4544 0.951 . S
H4526 C4546 0.950 . S
H4527 C4547 0.950 . S
H4528 C4549 0.950 . S
H4529 C4552 0.950 . S
H4530 C4553 0.950 . S
H4531 C4555 0.950 . S
H4532 C4556 0.950 . S
H4533 C4557 0.951 . S
H4534 C4559 0.951 . S
H4535 C4561 0.950 . S
H4536 C4562 0.950 . S
H4537 C4564 0.950 . S
H4538 C4567 0.950 . S
H4539 C4568 0.950 . S
H4540 C4570 0.950 . S
H4541 C4571 0.950 . S
C4542 H4524 0.951 . S
C4542 C4543 1.366 . S
C4542 C4544 1.388 . S
C4543 C4542 1.366 . S
C4543 C4547 1.385 . S
C4544 H4525 0.951 . S
C4544 C4542 1.388 . S
C4544 C4545 1.366 . S
C4545 C4544 1.366 . S
C4545 C4546 1.414 . S
C4545 C4548 1.499 . S
C4546 H4526 0.950 . S
C4546 C4545 1.414 . S
C4546 C4547 1.374 . S
C4547 H4527 0.950 . S
C4547 C4543 1.385 . S
C4547 C4546 1.374 . S
C4548 C4545 1.499 . S
C4548 C4549 1.373 . S
C4548 C4550 1.389 . S
C4549 H4528 0.950 . S
C4549 C4548 1.373 . S
C4549 C4565 1.377 . S
C4550 C4548 1.389 . S
C4550 C4551 1.524 . S
C4550 C4564 1.377 . S
C4551 C4550 1.524 . S
C4551 C4552 1.397 . S
C4551 C4556 1.363 . S
C4552 H4529 0.950 . S
C4552 C4551 1.397 . S
C4552 C4553 1.334 . S
C4553 H4530 0.950 . S
C4553 C4552 1.334 . S
C4553 C4554 1.287 . S
C4554 C4553 1.287 . S
C4554 C4555 1.524 . S
C4554 H4573 0.913 . S
C4555 H4531 0.950 . S
C4555 C4554 1.524 . S
C4555 C4556 1.415 . S
C4556 H4532 0.950 . S
C4556 C4551 1.363 . S
C4556 C4555 1.415 . S
C4557 H4533 0.951 . S
C4557 C4558 1.366 . S
C4557 C4559 1.388 . S
C4558 C4557 1.366 . S
C4558 C4562 1.385 . S
C4559 H4534 0.951 . S
C4559 C4557 1.388 . S
C4559 C4560 1.366 . S
C4560 C4559 1.366 . S
C4560 C4561 1.414 . S
C4560 C4563 1.499 . S
C4561 H4535 0.950 . S
C4561 C4560 1.414 . S
C4561 C4562 1.374 . S
C4562 H4536 0.950 . S
C4562 C4558 1.385 . S
C4562 C4561 1.374 . S
C4563 C4560 1.499 . S
C4563 C4564 1.373 . S
C4563 C4565 1.389 . S
C4564 H4537 0.950 . S
C4564 C4550 1.377 . S
C4564 C4563 1.373 . S
C4565 C4549 1.377 . S
C4565 C4563 1.389 . S
C4565 C4566 1.524 . S
C4566 C4565 1.524 . S
C4566 C4567 1.397 . S
C4566 C4571 1.363 . S
C4567 H4538 0.950 . S
C4567 C4566 1.397 . S
C4567 C4568 1.334 . S
C4568 H4539 0.950 . S
C4568 C4567 1.334 . S
C4568 C4569 1.287 . S
C4569 C4568 1.287 . S
C4569 C4570 1.524 . S
C4569 H4572 0.999 . S
C4570 H4540 0.950 . S
C4570 C4569 1.524 . S
C4570 C4571 1.415 . S
C4571 H4541 0.950 . S
C4571 C4566 1.363 . S
C4571 C4570 1.415 . S
H4572 C4569 0.999 . S
H4573 C4554 0.913 . S
H4574 C4592 0.938 1_556 S
H4575 C4594 0.951 . S
H4576 C4596 0.950 . S
H4577 C4597 0.950 . S
H4578 C4599 0.950 . S
H4579 C4602 0.950 . S
H4580 C4603 0.950 . S
H4581 C4605 0.950 . S
H4582 C4606 0.950 . S
H4583 C4607 0.951 . S
H4584 C4609 0.951 . S
H4585 C4611 0.950 . S
H4586 C4612 0.950 . S
H4587 C4614 0.950 . S
H4588 C4617 0.950 . S
H4589 C4618 0.950 . S
H4590 C4620 0.950 . S
H4591 C4621 0.950 . S
C4592 H4574 0.938 1_554 S
C4592 C4593 1.366 . S
C4592 C4594 1.390 . S
C4593 C4592 1.366 . S
C4593 C4597 1.397 . S
C4594 H4575 0.951 . S
C4594 C4592 1.390 . S
C4594 C4595 1.366 . S
C4595 C4594 1.366 . S
C4595 C4596 1.414 . S
C4595 C4598 1.499 . S
C4596 H4576 0.950 . S
C4596 C4595 1.414 . S
C4596 C4597 1.374 . S
C4597 H4577 0.950 . S
C4597 C4593 1.397 . S
C4597 C4596 1.374 . S
C4598 C4595 1.499 . S
C4598 C4599 1.373 . S
C4598 C4600 1.389 1_554 S
C4599 H4578 0.950 . S
C4599 C4598 1.373 . S
C4599 C4615 1.377 . S
C4600 C4598 1.389 1_556 S
C4600 C4601 1.524 . S
C4600 C4614 1.377 . S
C4601 C4600 1.524 . S
C4601 C4602 1.397 . S
C4601 C4606 1.363 . S
C4602 H4579 0.950 . S
C4602 C4601 1.397 . S
C4602 C4603 1.334 . S
C4603 H4580 0.950 . S
C4603 C4602 1.334 . S
C4603 C4604 1.287 . S
C4604 C4603 1.287 . S
C4604 C4605 1.524 . S
C4604 H4623 0.913 . S
C4605 H4581 0.950 . S
C4605 C4604 1.524 . S
C4605 C4606 1.415 . S
C4606 H4582 0.950 . S
C4606 C4601 1.363 . S
C4606 C4605 1.415 . S
C4607 H4583 0.951 . S
C4607 C4608 1.366 . S
C4607 C4609 1.388 . S
C4608 C4607 1.366 . S
C4608 C4612 1.385 . S
C4609 H4584 0.951 . S
C4609 C4607 1.388 . S
C4609 C4610 1.366 . S
C4610 C4609 1.366 . S
C4610 C4611 1.414 . S
C4610 C4613 1.499 . S
C4611 H4585 0.950 . S
C4611 C4610 1.414 . S
C4611 C4612 1.374 . S
C4612 H4586 0.950 . S
C4612 C4608 1.385 . S
C4612 C4611 1.374 . S
C4613 C4610 1.499 . S
C4613 C4614 1.373 1_554 S
C4613 C4615 1.389 . S
C4614 H4587 0.950 . S
C4614 C4600 1.377 . S
C4614 C4613 1.373 1_556 S
C4615 C4599 1.377 . S
C4615 C4613 1.389 . S
C4615 C4616 1.524 . S
C4616 C4615 1.524 . S
C4616 C4617 1.397 . S
C4616 C4621 1.363 . S
C4617 H4588 0.950 . S
C4617 C4616 1.397 . S
C4617 C4618 1.334 . S
C4618 H4589 0.950 . S
C4618 C4617 1.334 . S
C4618 C4619 1.287 . S
C4619 C4618 1.287 . S
C4619 C4620 1.524 . S
C4619 H4622 0.999 . S
C4620 H4590 0.950 . S
C4620 C4619 1.524 . S
C4620 C4621 1.415 . S
C4621 H4591 0.950 . S
C4621 C4616 1.363 . S
C4621 C4620 1.415 . S
H4622 C4619 0.999 . S
H4623 C4604 0.913 . S
H4624 C4642 0.951 . S
H4625 C4644 0.951 . S
H4626 C4646 0.950 . S
H4627 C4647 0.950 . S
H4628 C4649 0.950 . S
H4629 C4652 0.950 . S
H4630 C4653 0.950 . S
H4631 C4655 0.950 . S
H4632 C4656 0.950 . S
H4633 C4657 0.951 . S
H4634 C4659 0.951 . S
H4635 C4661 0.950 . S
H4636 C4662 0.950 . S
H4637 C4664 0.950 . S
H4638 C4667 0.950 . S
H4639 C4668 0.950 . S
H4640 C4670 0.950 . S
H4641 C4671 0.950 . S
C4642 H4624 0.951 . S
C4642 C4643 1.366 . S
C4642 C4644 1.388 . S
C4643 C4642 1.366 . S
C4643 C4647 1.385 . S
C4644 H4625 0.951 . S
C4644 C4642 1.388 . S
C4644 C4645 1.366 . S
C4645 C4644 1.366 . S
C4645 C4646 1.414 . S
C4645 C4648 1.499 . S
C4646 H4626 0.950 . S
C4646 C4645 1.414 . S
C4646 C4647 1.374 . S
C4647 H4627 0.950 . S
C4647 C4643 1.385 . S
C4647 C4646 1.374 . S
C4648 C4645 1.499 . S
C4648 C4649 1.373 . S
C4648 C4650 1.389 . S
C4649 H4628 0.950 . S
C4649 C4648 1.373 . S
C4649 C4665 1.377 . S
C4650 C4648 1.389 . S
C4650 C4651 1.524 . S
C4650 C4664 1.377 . S
C4651 C4650 1.524 . S
C4651 C4652 1.397 . S
C4651 C4656 1.363 . S
C4652 H4629 0.950 . S
C4652 C4651 1.397 . S
C4652 C4653 1.334 . S
C4653 H4630 0.950 . S
C4653 C4652 1.334 . S
C4653 C4654 1.287 . S
C4654 C4653 1.287 . S
C4654 C4655 1.524 . S
C4654 H4673 0.913 . S
C4655 H4631 0.950 . S
C4655 C4654 1.524 . S
C4655 C4656 1.415 . S
C4656 H4632 0.950 . S
C4656 C4651 1.363 . S
C4656 C4655 1.415 . S
C4657 H4633 0.951 . S
C4657 C4658 1.366 . S
C4657 C4659 1.388 . S
C4658 C4657 1.366 . S
C4658 C4662 1.385 . S
C4659 H4634 0.951 . S
C4659 C4657 1.388 . S
C4659 C4660 1.366 . S
C4660 C4659 1.366 . S
C4660 C4661 1.414 . S
C4660 C4663 1.499 . S
C4661 H4635 0.950 . S
C4661 C4660 1.414 . S
C4661 C4662 1.374 . S
C4662 H4636 0.950 . S
C4662 C4658 1.385 . S
C4662 C4661 1.374 . S
C4663 C4660 1.499 . S
C4663 C4664 1.373 . S
C4663 C4665 1.389 . S
C4664 H4637 0.950 . S
C4664 C4650 1.377 . S
C4664 C4663 1.373 . S
C4665 C4649 1.377 . S
C4665 C4663 1.389 . S
C4665 C4666 1.524 . S
C4666 C4665 1.524 . S
C4666 C4667 1.397 . S
C4666 C4671 1.363 . S
C4667 H4638 0.950 . S
C4667 C4666 1.397 . S
C4667 C4668 1.334 . S
C4668 H4639 0.950 . S
C4668 C4667 1.334 . S
C4668 C4669 1.287 . S
C4669 C4668 1.287 . S
C4669 C4670 1.524 . S
C4669 H4672 0.999 . S
C4670 H4640 0.950 . S
C4670 C4669 1.524 . S
C4670 C4671 1.415 . S
C4671 H4641 0.950 . S
C4671 C4666 1.363 . S
C4671 C4670 1.415 . S
H4672 C4669 0.999 . S
H4673 C4654 0.913 . S
H4674 C4692 0.951 . S
H4675 C4694 0.951 . S
H4676 C4696 0.950 . S
H4677 C4697 0.993 . S
H4678 C4699 0.950 . S
H4679 C4702 0.950 . S
H4680 C4703 0.950 . S
H4681 C4705 0.950 . S
H4682 C4706 0.950 . S
H4683 C4707 0.951 . S
H4684 C4709 0.951 . S
H4685 C4711 0.950 . S
H4686 C4712 0.950 . S
H4687 C4714 0.950 . S
H4688 C4717 0.950 . S
H4689 C4718 0.950 . S
H4690 C4720 0.920 1_455 S
H4691 C4721 0.996 . S
C4692 H4674 0.951 . S
C4692 C4693 1.366 . S
C4692 C4694 1.388 . S
C4693 C4692 1.366 . S
C4693 C4697 1.345 1_655 S
C4694 H4675 0.951 . S
C4694 C4692 1.388 . S
C4694 C4695 1.366 . S
C4695 C4694 1.366 . S
C4695 C4696 1.414 1_655 S
C4695 C4698 1.499 . S
C4696 H4676 0.950 . S
C4696 C4695 1.414 1_455 S
C4696 C4697 1.373 . S
C4697 H4677 0.993 . S
C4697 C4693 1.345 1_455 S
C4697 C4696 1.373 . S
C4698 C4695 1.499 . S
C4698 C4699 1.373 . S
C4698 C4700 1.389 . S
C4699 H4678 0.950 . S
C4699 C4698 1.373 . S
C4699 C4715 1.377 . S
C4700 C4698 1.389 . S
C4700 C4701 1.524 . S
C4700 C4714 1.377 . S
C4701 C4700 1.524 . S
C4701 C4702 1.397 1_655 S
C4701 C4706 1.363 . S
C4702 H4679 0.950 . S
C4702 C4701 1.397 1_455 S
C4702 C4703 1.334 . S
C4703 H4680 0.950 . S
C4703 C4702 1.334 . S
C4703 C4704 1.287 1_455 S
C4704 C4703 1.287 1_655 S
C4704 C4705 1.524 . S
C4704 H4723 0.920 . S
C4705 H4681 0.950 . S
C4705 C4704 1.524 . S
C4705 C4706 1.415 . S
C4706 H4682 0.950 . S
C4706 C4701 1.363 . S
C4706 C4705 1.415 . S
C4707 H4683 0.951 . S
C4707 C4708 1.366 1_455 S
C4707 C4709 1.388 . S
C4708 C4707 1.366 1_655 S
C4708 C4712 1.385 . S
C4709 H4684 0.951 . S
C4709 C4707 1.388 . S
C4709 C4710 1.366 1_455 S
C4710 C4709 1.366 1_655 S
C4710 C4711 1.414 . S
C4710 C4713 1.499 . S
C4711 H4685 0.950 . S
C4711 C4710 1.414 . S
C4711 C4712 1.374 . S
C4712 H4686 0.950 . S
C4712 C4708 1.385 . S
C4712 C4711 1.374 . S
C4713 C4710 1.499 . S
C4713 C4714 1.373 . S
C4713 C4715 1.389 . S
C4714 H4687 0.950 . S
C4714 C4700 1.377 . S
C4714 C4713 1.373 . S
C4715 C4699 1.377 . S
C4715 C4713 1.389 . S
C4715 C4716 1.524 . S
C4716 C4715 1.524 . S
C4716 C4717 1.397 . S
C4716 C4721 1.319 1_655 S
C4717 H4688 0.950 . S
C4717 C4716 1.397 . S
C4717 C4718 1.334 . S
C4718 H4689 0.950 . S
C4718 C4717 1.334 . S
C4718 C4719 1.287 . S
C4719 C4718 1.287 . S
C4719 C4720 1.559 . S
C4719 H4722 0.999 . S
C4720 H4690 0.920 1_655 S
C4720 C4719 1.559 . S
C4720 C4721 1.418 1_655 S
C4721 H4691 0.996 . S
C4721 C4716 1.319 1_455 S
C4721 C4720 1.418 1_455 S
H4722 C4719 0.999 . S
H4723 C4704 0.920 . S
H4724 C4742 0.951 . S
H4725 C4744 0.951 . S
H4726 C4746 0.950 . S
H4727 C4747 0.950 . S
H4728 C4749 0.950 . S
H4729 C4752 0.950 . S
H4730 C4753 0.950 . S
H4731 C4755 0.950 . S
H4732 C4756 0.950 . S
H4733 C4757 0.951 . S
H4734 C4759 0.951 . S
H4735 C4761 0.950 . S
H4736 C4762 0.950 . S
H4737 C4764 0.950 . S
H4738 C4767 0.950 . S
H4739 C4768 0.950 . S
H4740 C4770 0.950 . S
H4741 C4771 0.950 . S
C4742 H4724 0.951 . S
C4742 C4743 1.366 . S
C4742 C4744 1.388 . S
C4743 C4742 1.366 . S
C4743 C4747 1.385 . S
C4744 H4725 0.951 . S
C4744 C4742 1.388 . S
C4744 C4745 1.366 . S
C4745 C4744 1.366 . S
C4745 C4746 1.414 . S
C4745 C4748 1.499 . S
C4746 H4726 0.950 . S
C4746 C4745 1.414 . S
C4746 C4747 1.374 . S
C4747 H4727 0.950 . S
C4747 C4743 1.385 . S
C4747 C4746 1.374 . S
C4748 C4745 1.499 . S
C4748 C4749 1.373 . S
C4748 C4750 1.389 . S
C4749 H4728 0.950 . S
C4749 C4748 1.373 . S
C4749 C4765 1.377 . S
C4750 C4748 1.389 . S
C4750 C4751 1.524 . S
C4750 C4764 1.377 . S
C4751 C4750 1.524 . S
C4751 C4752 1.397 . S
C4751 C4756 1.363 . S
C4752 H4729 0.950 . S
C4752 C4751 1.397 . S
C4752 C4753 1.334 . S
C4753 H4730 0.950 . S
C4753 C4752 1.334 . S
C4753 C4754 1.287 . S
C4754 C4753 1.287 . S
C4754 C4755 1.524 . S
C4754 H4773 0.913 . S
C4755 H4731 0.950 . S
C4755 C4754 1.524 . S
C4755 C4756 1.415 . S
C4756 H4732 0.950 . S
C4756 C4751 1.363 . S
C4756 C4755 1.415 . S
C4757 H4733 0.951 . S
C4757 C4758 1.366 . S
C4757 C4759 1.388 . S
C4758 C4757 1.366 . S
C4758 C4762 1.385 . S
C4759 H4734 0.951 . S
C4759 C4757 1.388 . S
C4759 C4760 1.366 . S
C4760 C4759 1.366 . S
C4760 C4761 1.414 . S
C4760 C4763 1.499 . S
C4761 H4735 0.950 . S
C4761 C4760 1.414 . S
C4761 C4762 1.374 . S
C4762 H4736 0.950 . S
C4762 C4758 1.385 . S
C4762 C4761 1.374 . S
C4763 C4760 1.499 . S
C4763 C4764 1.373 . S
C4763 C4765 1.389 . S
C4764 H4737 0.950 . S
C4764 C4750 1.377 . S
C4764 C4763 1.373 . S
C4765 C4749 1.377 . S
C4765 C4763 1.389 . S
C4765 C4766 1.524 . S
C4766 C4765 1.524 . S
C4766 C4767 1.397 . S
C4766 C4771 1.363 . S
C4767 H4738 0.950 . S
C4767 C4766 1.397 . S
C4767 C4768 1.334 . S
C4768 H4739 0.950 . S
C4768 C4767 1.334 . S
C4768 C4769 1.287 . S
C4769 C4768 1.287 . S
C4769 C4770 1.524 . S
C4769 H4772 0.999 . S
C4770 H4740 0.950 . S
C4770 C4769 1.524 . S
C4770 C4771 1.415 . S
C4771 H4741 0.950 . S
C4771 C4766 1.363 . S
C4771 C4770 1.415 . S
H4772 C4769 0.999 . S
H4773 C4754 0.913 . S
H4774 C4792 0.951 . S
H4775 C4794 0.951 . S
H4776 C4796 0.950 . S
H4777 C4797 0.950 . S
H4778 C4799 0.950 . S
H4779 C4802 0.950 . S
H4780 C4803 0.950 . S
H4781 C4805 0.950 . S
H4782 C4806 0.948 . S
H4783 C4807 0.951 . S
H4784 C4809 0.951 . S
H4785 C4811 0.950 . S
H4786 C4812 0.950 . S
H4787 C4814 0.950 1_655 S
H4788 C4817 0.950 . S
H4789 C4818 0.950 . S
H4790 C4820 0.950 . S
H4791 C4821 0.950 . S
C4792 H4774 0.951 . S
C4792 C4793 1.386 . S
C4792 C4794 1.388 . S
C4793 C4792 1.386 . S
C4793 C4797 1.378 1_455 S
C4794 H4775 0.951 . S
C4794 C4792 1.388 . S
C4794 C4795 1.366 . S
C4795 C4794 1.366 . S
C4795 C4796 1.414 1_455 S
C4795 C4798 1.499 . S
C4796 H4776 0.950 . S
C4796 C4795 1.414 1_655 S
C4796 C4797 1.374 . S
C4797 H4777 0.950 . S
C4797 C4793 1.378 1_655 S
C4797 C4796 1.374 . S
C4798 C4795 1.499 . S
C4798 C4799 1.373 . S
C4798 C4800 1.389 1_455 S
C4799 H4778 0.950 . S
C4799 C4798 1.373 . S
C4799 C4815 1.377 . S
C4800 C4798 1.389 1_655 S
C4800 C4801 1.524 . S
C4800 C4814 1.377 1_655 S
C4801 C4800 1.524 . S
C4801 C4802 1.397 . S
C4801 C4806 1.363 . S
C4802 H4779 0.950 . S
C4802 C4801 1.397 . S
C4802 C4803 1.334 . S
C4803 H4780 0.950 . S
C4803 C4802 1.334 . S
C4803 C4804 1.287 . S
C4804 C4803 1.287 . S
C4804 C4805 1.524 . S
C4804 H4823 0.913 . S
C4805 H4781 0.950 . S
C4805 C4804 1.524 . S
C4805 C4806 1.415 . S
C4806 H4782 0.948 . S
C4806 C4801 1.363 . S
C4806 C4805 1.415 . S
C4807 H4783 0.951 . S
C4807 C4808 1.366 . S
C4807 C4809 1.388 . S
C4808 C4807 1.366 . S
C4808 C4812 1.385 . S
C4809 H4784 0.951 . S
C4809 C4807 1.388 . S
C4809 C4810 1.366 . S
C4810 C4809 1.366 . S
C4810 C4811 1.414 . S
C4810 C4813 1.499 . S
C4811 H4785 0.950 . S
C4811 C4810 1.414 . S
C4811 C4812 1.374 . S
C4812 H4786 0.950 . S
C4812 C4808 1.385 . S
C4812 C4811 1.374 . S
C4813 C4810 1.499 . S
C4813 C4814 1.373 . S
C4813 C4815 1.389 . S
C4814 H4787 0.950 1_455 S
C4814 C4800 1.377 1_455 S
C4814 C4813 1.373 . S
C4815 C4799 1.377 . S
C4815 C4813 1.389 . S
C4815 C4816 1.524 . S
C4816 C4815 1.524 . S
C4816 C4817 1.397 . S
C4816 C4821 1.363 . S
C4817 H4788 0.950 . S
C4817 C4816 1.397 . S
C4817 C4818 1.334 . S
C4818 H4789 0.950 . S
C4818 C4817 1.334 . S
C4818 C4819 1.287 . S
C4819 C4818 1.287 . S
C4819 C4820 1.524 . S
C4819 H4822 0.999 . S
C4820 H4790 0.950 . S
C4820 C4819 1.524 . S
C4820 C4821 1.415 . S
C4821 H4791 0.950 . S
C4821 C4816 1.363 . S
C4821 C4820 1.415 . S
H4822 C4819 0.999 . S
H4823 C4804 0.913 . S
C1258 C1217 1.808 . S
C1243 C15 1.881 . S
C1308 C1184 1.356 . S
C1293 C55 1.330 . S
C1358 C1206 0.652 . S
C1343 C95 0.588 1_545 S
C1408 C1195 1.408 . S
C1393 C135 1.423 . S
C1458 C1118 1.809 . S
C1443 C175 1.880 . S
C1493 C215 1.423 . S
C1508 C1129 1.408 . S
C1558 C1096 1.356 . S
C1543 C255 1.330 . S
C1593 C295 0.588 1_554 S
C1608 C1107 0.648 . S
C1658 C1173 1.809 . S
C1643 C335 1.881 . S
C1693 C375 1.424 . S
C1708 C1151 1.407 . S
C1743 C415 1.331 . S
C1758 C1140 1.356 . S
C1808 C1162 0.652 . S
C1793 C455 0.588 1_455 S
C1858 C1085 1.803 . S
C1843 C495 1.879 . S
C1893 C535 1.322 . S
C1908 C1052 1.355 . S
C1958 C1074 0.647 . S
C1943 C575 0.588 . S
C1993 C615 1.423 . S
C2008 C1063 1.393 . S
C2058 C986 1.803 . S
C2043 C655 1.879 . S
C2108 C997 1.394 . S
C2093 C695 1.423 . S
C2143 C735 1.323 . S
C2158 C964 1.354 . S
C2193 C775 0.588 . S
C2208 C975 0.647 . S
C2243 C815 1.871 . S
C2258 C1041 1.811 . S
C2293 C855 1.423 . S
C2308 C1019 1.393 . S
C2358 C1008 1.355 . S
C2343 C895 1.323 . S
C2393 C935 0.588 . S
C2408 C1030 0.648 . S
C2458 C965 1.671 . S
C2443 C21 1.709 . S
C2508 C976 1.567 . S
C2493 C61 1.631 . S
C2543 C101 0.628 1_545 S
C2558 C987 0.628 . S
C2593 C141 0.765 . S
C2608 C998 0.758 . S
C2658 C1009 1.671 . S
C2643 C181 1.709 . S
C2693 C221 0.765 . S
C2708 C1020 0.759 . S
C2758 C1031 1.567 . S
C2743 C261 1.632 . S
C2808 C1042 0.627 . S
C2793 C301 0.628 1_554 S
C2858 C1053 1.671 . S
C2843 C341 1.709 . S
C2893 C381 0.765 . S
C2908 C1064 0.757 . S
C2943 C421 1.636 . S
C2958 C1075 1.563 . S
C2993 C461 0.628 1_455 S
C3008 C1086 0.628 . S
C3043 C501 1.675 . S
C3058 C1097 1.670 . S
C3093 C541 1.523 . S
C3108 C1108 1.567 . S
C3143 C581 0.629 . S
C3158 C1119 0.627 . S
C3193 C621 0.765 . S
C3208 C1130 0.758 . S
C3243 C661 1.675 . S
C3258 C1141 1.671 . S
C3308 C1152 0.764 . S
C3293 C701 0.756 . S
C3358 C1163 1.571 . S
C3343 C741 1.517 . S
C3408 C1174 0.627 . S
C3393 C781 0.629 . S
C3458 C1185 1.671 . S
C3443 C821 1.675 . S
C3493 C861 0.764 . S
C3508 C1196 0.757 . S
C3543 C901 1.523 . S
C3558 C1207 1.566 . S
C3593 C941 0.629 . S
C3608 C1218 0.626 . S
C3643 C2 1.673 . S
C3658 C1058 1.653 . S
C3708 C1091 1.719 . S
C3693 C42 1.761 . S
C3743 C82 1.499 . S
C3758 C1069 1.459 . S
C3808 C1080 1.476 . S
C3793 C122 1.463 . S
C3843 C162 1.673 . S
C3858 C970 1.653 . S
C3893 C202 1.462 . S
C3908 C981 1.476 . S
C3943 C242 1.769 . S
C3958 C992 1.712 . S
C3993 C282 1.499 . S
C4008 C1003 1.460 . S
C4058 C1014 1.653 . S
C4043 C322 1.673 . S
C4108 C1036 1.476 . S
C4093 C362 1.462 . S
C4143 C402 1.769 . S
C4158 C1047 1.713 . S
C4193 C442 1.499 . S
C4208 C1025 1.459 . S
C4258 C1190 1.655 . S
C4243 C482 1.653 . S
C4308 C1223 1.716 . S
C4293 C522 1.682 . S
C4343 C562 1.502 1_545 S
C4358 C1201 1.452 . S
C4408 C1212 1.480 . S
C4393 C602 1.455 . S
C4443 C642 1.654 . S
C4458 C1102 1.655 . S
C4493 C682 1.454 . S
C4508 C1113 1.480 . S
C4543 C722 1.691 . S
C4558 C1124 1.708 . S
C4608 C1135 1.452 . S
C4593 C762 1.502 1_554 S
C4658 C1146 1.654 . S
C4643 C802 1.653 . S
C4708 C1168 1.480 . S
C4693 C842 1.455 . S
C4743 C882 1.690 . S
C4758 C1179 1.708 . S
C4808 C1157 1.453 . S
C4793 C922 1.502 1_455 S
