# Generated by pormake.
# Topology tbo, (3,4)-cn, num edge types: 1
# Building blocks:
#     Node 0, Type 0, BuildingBlock: OLANEW_clean_sbu_2, # of connection points: 3
#     Node 1, Type 0, BuildingBlock: OLANEW_clean_sbu_2, # of connection points: 3
#     Node 2, Type 0, BuildingBlock: OLANEW_clean_sbu_2, # of connection points: 3
#     Node 3, Type 0, BuildingBlock: OLANEW_clean_sbu_2, # of connection points: 3
#     Node 4, Type 0, BuildingBlock: OLANEW_clean_sbu_2, # of connection points: 3
#     Node 5, Type 0, BuildingBlock: OLANEW_clean_sbu_2, # of connection points: 3
#     Node 6, Type 0, BuildingBlock: OLANEW_clean_sbu_2, # of connection points: 3
#     Node 7, Type 0, BuildingBlock: OLANEW_clean_sbu_2, # of connection points: 3
#     Node 8, Type 0, BuildingBlock: OLANEW_clean_sbu_2, # of connection points: 3
#     Node 9, Type 0, BuildingBlock: OLANEW_clean_sbu_2, # of connection points: 3
#     Node 10, Type 0, BuildingBlock: OLANEW_clean_sbu_2, # of connection points: 3
#     Node 11, Type 0, BuildingBlock: OLANEW_clean_sbu_2, # of connection points: 3
#     Node 12, Type 0, BuildingBlock: OLANEW_clean_sbu_2, # of connection points: 3
#     Node 13, Type 0, BuildingBlock: OLANEW_clean_sbu_2, # of connection points: 3
#     Node 14, Type 0, BuildingBlock: OLANEW_clean_sbu_2, # of connection points: 3
#     Node 15, Type 0, BuildingBlock: OLANEW_clean_sbu_2, # of connection points: 3
#     Node 16, Type 0, BuildingBlock: OLANEW_clean_sbu_2, # of connection points: 3
#     Node 17, Type 0, BuildingBlock: OLANEW_clean_sbu_2, # of connection points: 3
#     Node 18, Type 0, BuildingBlock: OLANEW_clean_sbu_2, # of connection points: 3
#     Node 19, Type 0, BuildingBlock: OLANEW_clean_sbu_2, # of connection points: 3
#     Node 20, Type 0, BuildingBlock: OLANEW_clean_sbu_2, # of connection points: 3
#     Node 21, Type 0, BuildingBlock: OLANEW_clean_sbu_2, # of connection points: 3
#     Node 22, Type 0, BuildingBlock: OLANEW_clean_sbu_2, # of connection points: 3
#     Node 23, Type 0, BuildingBlock: OLANEW_clean_sbu_2, # of connection points: 3
#     Node 24, Type 0, BuildingBlock: OLANEW_clean_sbu_2, # of connection points: 3
#     Node 25, Type 0, BuildingBlock: OLANEW_clean_sbu_2, # of connection points: 3
#     Node 26, Type 0, BuildingBlock: OLANEW_clean_sbu_2, # of connection points: 3
#     Node 27, Type 0, BuildingBlock: OLANEW_clean_sbu_2, # of connection points: 3
#     Node 28, Type 0, BuildingBlock: OLANEW_clean_sbu_2, # of connection points: 3
#     Node 29, Type 0, BuildingBlock: OLANEW_clean_sbu_2, # of connection points: 3
#     Node 30, Type 0, BuildingBlock: OLANEW_clean_sbu_2, # of connection points: 3
#     Node 31, Type 0, BuildingBlock: OLANEW_clean_sbu_2, # of connection points: 3
#     Node 32, Type 1, BuildingBlock: GIZVER_clean_linker_0, # of connection points: 4
#     Node 33, Type 1, BuildingBlock: GIZVER_clean_linker_0, # of connection points: 4
#     Node 34, Type 1, BuildingBlock: GIZVER_clean_linker_0, # of connection points: 4
#     Node 35, Type 1, BuildingBlock: GIZVER_clean_linker_0, # of connection points: 4
#     Node 36, Type 1, BuildingBlock: GIZVER_clean_linker_0, # of connection points: 4
#     Node 37, Type 1, BuildingBlock: GIZVER_clean_linker_0, # of connection points: 4
#     Node 38, Type 1, BuildingBlock: GIZVER_clean_linker_0, # of connection points: 4
#     Node 39, Type 1, BuildingBlock: GIZVER_clean_linker_0, # of connection points: 4
#     Node 40, Type 1, BuildingBlock: GIZVER_clean_linker_0, # of connection points: 4
#     Node 41, Type 1, BuildingBlock: GIZVER_clean_linker_0, # of connection points: 4
#     Node 42, Type 1, BuildingBlock: GIZVER_clean_linker_0, # of connection points: 4
#     Node 43, Type 1, BuildingBlock: GIZVER_clean_linker_0, # of connection points: 4
#     Node 44, Type 1, BuildingBlock: GIZVER_clean_linker_0, # of connection points: 4
#     Node 45, Type 1, BuildingBlock: GIZVER_clean_linker_0, # of connection points: 4
#     Node 46, Type 1, BuildingBlock: GIZVER_clean_linker_0, # of connection points: 4
#     Node 47, Type 1, BuildingBlock: GIZVER_clean_linker_0, # of connection points: 4
#     Node 48, Type 1, BuildingBlock: GIZVER_clean_linker_0, # of connection points: 4
#     Node 49, Type 1, BuildingBlock: GIZVER_clean_linker_0, # of connection points: 4
#     Node 50, Type 1, BuildingBlock: GIZVER_clean_linker_0, # of connection points: 4
#     Node 51, Type 1, BuildingBlock: GIZVER_clean_linker_0, # of connection points: 4
#     Node 52, Type 1, BuildingBlock: GIZVER_clean_linker_0, # of connection points: 4
#     Node 53, Type 1, BuildingBlock: GIZVER_clean_linker_0, # of connection points: 4
#     Node 54, Type 1, BuildingBlock: GIZVER_clean_linker_0, # of connection points: 4
#     Node 55, Type 1, BuildingBlock: GIZVER_clean_linker_0, # of connection points: 4
#     Edge 56, Type (0, 1), BuildingBlock: XUDNAN_clean_linker_2, # of connection points: 2
#     Edge 57, Type (0, 1), BuildingBlock: XUDNAN_clean_linker_2, # of connection points: 2
#     Edge 58, Type (0, 1), BuildingBlock: XUDNAN_clean_linker_2, # of connection points: 2
#     Edge 59, Type (0, 1), BuildingBlock: XUDNAN_clean_linker_2, # of connection points: 2
#     Edge 60, Type (0, 1), BuildingBlock: XUDNAN_clean_linker_2, # of connection points: 2
#     Edge 61, Type (0, 1), BuildingBlock: XUDNAN_clean_linker_2, # of connection points: 2
#     Edge 62, Type (0, 1), BuildingBlock: XUDNAN_clean_linker_2, # of connection points: 2
#     Edge 63, Type (0, 1), BuildingBlock: XUDNAN_clean_linker_2, # of connection points: 2
#     Edge 64, Type (0, 1), BuildingBlock: XUDNAN_clean_linker_2, # of connection points: 2
#     Edge 65, Type (0, 1), BuildingBlock: XUDNAN_clean_linker_2, # of connection points: 2
#     Edge 66, Type (0, 1), BuildingBlock: XUDNAN_clean_linker_2, # of connection points: 2
#     Edge 67, Type (0, 1), BuildingBlock: XUDNAN_clean_linker_2, # of connection points: 2
#     Edge 68, Type (0, 1), BuildingBlock: XUDNAN_clean_linker_2, # of connection points: 2
#     Edge 69, Type (0, 1), BuildingBlock: XUDNAN_clean_linker_2, # of connection points: 2
#     Edge 70, Type (0, 1), BuildingBlock: XUDNAN_clean_linker_2, # of connection points: 2
#     Edge 71, Type (0, 1), BuildingBlock: XUDNAN_clean_linker_2, # of connection points: 2
#     Edge 72, Type (0, 1), BuildingBlock: XUDNAN_clean_linker_2, # of connection points: 2
#     Edge 73, Type (0, 1), BuildingBlock: XUDNAN_clean_linker_2, # of connection points: 2
#     Edge 74, Type (0, 1), BuildingBlock: XUDNAN_clean_linker_2, # of connection points: 2
#     Edge 75, Type (0, 1), BuildingBlock: XUDNAN_clean_linker_2, # of connection points: 2
#     Edge 76, Type (0, 1), BuildingBlock: XUDNAN_clean_linker_2, # of connection points: 2
#     Edge 77, Type (0, 1), BuildingBlock: XUDNAN_clean_linker_2, # of connection points: 2
#     Edge 78, Type (0, 1), BuildingBlock: XUDNAN_clean_linker_2, # of connection points: 2
#     Edge 79, Type (0, 1), BuildingBlock: XUDNAN_clean_linker_2, # of connection points: 2
#     Edge 80, Type (0, 1), BuildingBlock: XUDNAN_clean_linker_2, # of connection points: 2
#     Edge 81, Type (0, 1), BuildingBlock: XUDNAN_clean_linker_2, # of connection points: 2
#     Edge 82, Type (0, 1), BuildingBlock: XUDNAN_clean_linker_2, # of connection points: 2
#     Edge 83, Type (0, 1), BuildingBlock: XUDNAN_clean_linker_2, # of connection points: 2
#     Edge 84, Type (0, 1), BuildingBlock: XUDNAN_clean_linker_2, # of connection points: 2
#     Edge 85, Type (0, 1), BuildingBlock: XUDNAN_clean_linker_2, # of connection points: 2
#     Edge 86, Type (0, 1), BuildingBlock: XUDNAN_clean_linker_2, # of connection points: 2
#     Edge 87, Type (0, 1), BuildingBlock: XUDNAN_clean_linker_2, # of connection points: 2
#     Edge 88, Type (0, 1), BuildingBlock: XUDNAN_clean_linker_2, # of connection points: 2
#     Edge 89, Type (0, 1), BuildingBlock: XUDNAN_clean_linker_2, # of connection points: 2
#     Edge 90, Type (0, 1), BuildingBlock: XUDNAN_clean_linker_2, # of connection points: 2
#     Edge 91, Type (0, 1), BuildingBlock: XUDNAN_clean_linker_2, # of connection points: 2
#     Edge 92, Type (0, 1), BuildingBlock: XUDNAN_clean_linker_2, # of connection points: 2
#     Edge 93, Type (0, 1), BuildingBlock: XUDNAN_clean_linker_2, # of connection points: 2
#     Edge 94, Type (0, 1), BuildingBlock: XUDNAN_clean_linker_2, # of connection points: 2
#     Edge 95, Type (0, 1), BuildingBlock: XUDNAN_clean_linker_2, # of connection points: 2
#     Edge 96, Type (0, 1), BuildingBlock: XUDNAN_clean_linker_2, # of connection points: 2
#     Edge 97, Type (0, 1), BuildingBlock: XUDNAN_clean_linker_2, # of connection points: 2
#     Edge 98, Type (0, 1), BuildingBlock: XUDNAN_clean_linker_2, # of connection points: 2
#     Edge 99, Type (0, 1), BuildingBlock: XUDNAN_clean_linker_2, # of connection points: 2
#     Edge 100, Type (0, 1), BuildingBlock: XUDNAN_clean_linker_2, # of connection points: 2
#     Edge 101, Type (0, 1), BuildingBlock: XUDNAN_clean_linker_2, # of connection points: 2
#     Edge 102, Type (0, 1), BuildingBlock: XUDNAN_clean_linker_2, # of connection points: 2
#     Edge 103, Type (0, 1), BuildingBlock: XUDNAN_clean_linker_2, # of connection points: 2
#     Edge 104, Type (0, 1), BuildingBlock: XUDNAN_clean_linker_2, # of connection points: 2
#     Edge 105, Type (0, 1), BuildingBlock: XUDNAN_clean_linker_2, # of connection points: 2
#     Edge 106, Type (0, 1), BuildingBlock: XUDNAN_clean_linker_2, # of connection points: 2
#     Edge 107, Type (0, 1), BuildingBlock: XUDNAN_clean_linker_2, # of connection points: 2
#     Edge 108, Type (0, 1), BuildingBlock: XUDNAN_clean_linker_2, # of connection points: 2
#     Edge 109, Type (0, 1), BuildingBlock: XUDNAN_clean_linker_2, # of connection points: 2
#     Edge 110, Type (0, 1), BuildingBlock: XUDNAN_clean_linker_2, # of connection points: 2
#     Edge 111, Type (0, 1), BuildingBlock: XUDNAN_clean_linker_2, # of connection points: 2
#     Edge 112, Type (0, 1), BuildingBlock: XUDNAN_clean_linker_2, # of connection points: 2
#     Edge 113, Type (0, 1), BuildingBlock: XUDNAN_clean_linker_2, # of connection points: 2
#     Edge 114, Type (0, 1), BuildingBlock: XUDNAN_clean_linker_2, # of connection points: 2
#     Edge 115, Type (0, 1), BuildingBlock: XUDNAN_clean_linker_2, # of connection points: 2
#     Edge 116, Type (0, 1), BuildingBlock: XUDNAN_clean_linker_2, # of connection points: 2
#     Edge 117, Type (0, 1), BuildingBlock: XUDNAN_clean_linker_2, # of connection points: 2
#     Edge 118, Type (0, 1), BuildingBlock: XUDNAN_clean_linker_2, # of connection points: 2
#     Edge 119, Type (0, 1), BuildingBlock: XUDNAN_clean_linker_2, # of connection points: 2
#     Edge 120, Type (0, 1), BuildingBlock: XUDNAN_clean_linker_2, # of connection points: 2
#     Edge 121, Type (0, 1), BuildingBlock: XUDNAN_clean_linker_2, # of connection points: 2
#     Edge 122, Type (0, 1), BuildingBlock: XUDNAN_clean_linker_2, # of connection points: 2
#     Edge 123, Type (0, 1), BuildingBlock: XUDNAN_clean_linker_2, # of connection points: 2
#     Edge 124, Type (0, 1), BuildingBlock: XUDNAN_clean_linker_2, # of connection points: 2
#     Edge 125, Type (0, 1), BuildingBlock: XUDNAN_clean_linker_2, # of connection points: 2
#     Edge 126, Type (0, 1), BuildingBlock: XUDNAN_clean_linker_2, # of connection points: 2
#     Edge 127, Type (0, 1), BuildingBlock: XUDNAN_clean_linker_2, # of connection points: 2
#     Edge 128, Type (0, 1), BuildingBlock: XUDNAN_clean_linker_2, # of connection points: 2
#     Edge 129, Type (0, 1), BuildingBlock: XUDNAN_clean_linker_2, # of connection points: 2
#     Edge 130, Type (0, 1), BuildingBlock: XUDNAN_clean_linker_2, # of connection points: 2
#     Edge 131, Type (0, 1), BuildingBlock: XUDNAN_clean_linker_2, # of connection points: 2
#     Edge 132, Type (0, 1), BuildingBlock: XUDNAN_clean_linker_2, # of connection points: 2
#     Edge 133, Type (0, 1), BuildingBlock: XUDNAN_clean_linker_2, # of connection points: 2
#     Edge 134, Type (0, 1), BuildingBlock: XUDNAN_clean_linker_2, # of connection points: 2
#     Edge 135, Type (0, 1), BuildingBlock: XUDNAN_clean_linker_2, # of connection points: 2
#     Edge 136, Type (0, 1), BuildingBlock: XUDNAN_clean_linker_2, # of connection points: 2
#     Edge 137, Type (0, 1), BuildingBlock: XUDNAN_clean_linker_2, # of connection points: 2
#     Edge 138, Type (0, 1), BuildingBlock: XUDNAN_clean_linker_2, # of connection points: 2
#     Edge 139, Type (0, 1), BuildingBlock: XUDNAN_clean_linker_2, # of connection points: 2
#     Edge 140, Type (0, 1), BuildingBlock: XUDNAN_clean_linker_2, # of connection points: 2
#     Edge 141, Type (0, 1), BuildingBlock: XUDNAN_clean_linker_2, # of connection points: 2
#     Edge 142, Type (0, 1), BuildingBlock: XUDNAN_clean_linker_2, # of connection points: 2
#     Edge 143, Type (0, 1), BuildingBlock: XUDNAN_clean_linker_2, # of connection points: 2
#     Edge 144, Type (0, 1), BuildingBlock: XUDNAN_clean_linker_2, # of connection points: 2
#     Edge 145, Type (0, 1), BuildingBlock: XUDNAN_clean_linker_2, # of connection points: 2
#     Edge 146, Type (0, 1), BuildingBlock: XUDNAN_clean_linker_2, # of connection points: 2
#     Edge 147, Type (0, 1), BuildingBlock: XUDNAN_clean_linker_2, # of connection points: 2
#     Edge 148, Type (0, 1), BuildingBlock: XUDNAN_clean_linker_2, # of connection points: 2
#     Edge 149, Type (0, 1), BuildingBlock: XUDNAN_clean_linker_2, # of connection points: 2
#     Edge 150, Type (0, 1), BuildingBlock: XUDNAN_clean_linker_2, # of connection points: 2
#     Edge 151, Type (0, 1), BuildingBlock: XUDNAN_clean_linker_2, # of connection points: 2
# Relax obj value: 0.018
# Max RMSD: 0.132
# Mean RMSD: 0.095
data_MOF--net-tbo--node1-OLANEW_clean_sbu_2--node2-GIZVER_clean_linker_0--edge1-XUDNAN_clean_linker_2
_symmetry_space_group_name_H-M    P1
_symmetry_Int_Tables_number       1
_symmetry_cell_setting            triclinic
loop_
_symmetry_equiv_pos_as_xyz
'x, y, z'
_cell_length_a     77.064476
_cell_length_b     79.13828
_cell_length_c     75.753138
_cell_angle_alpha  97.413594
_cell_angle_beta   87.919404
_cell_angle_gamma 99.18875
loop_
_atom_site_label
_atom_site_type_symbol
_atom_site_fract_x
_atom_site_fract_y
_atom_site_fract_z
_atom_type_partial_charge
O0 O 0.20702 0.16522 0.16218 0.0
Cd1 Cd 0.18884 0.14907 0.18374 0.0
O2 O 0.18646 0.18046 0.15738 0.0
Cd3 Cd 0.16645 0.17081 0.17643 0.0
O4 O 0.14242 0.173 0.1924 0.0
C5 C 0.1351 0.18596 0.1905 0.0
O6 O 0.14227 0.1966 0.17936 0.0
C7 C 0.20175 0.17658 0.15411 0.0
C8 C 0.20521 0.12554 0.19944 0.0
O9 O 0.19757 0.12124 0.18441 0.0
O10 O 0.20543 0.14105 0.20692 0.0
O11 O 0.89679 0.18812 0.1372 0.0
Cd12 Cd 0.8853 0.1756 0.10792 0.0
O13 O 0.88414 0.16348 0.14518 0.0
Cd14 Cd 0.87514 0.1438 0.16277 0.0
O15 O 0.86484 0.12291 0.17838 0.0
C16 C 0.85696 0.12632 0.19313 0.0
O17 O 0.85542 0.14244 0.19874 0.0
C18 C 0.89351 0.17818 0.1492 0.0
C19 C 0.86312 0.19412 0.09276 0.0
O20 O 0.85726 0.18388 0.10417 0.0
O21 O 0.87958 0.19593 0.08884 0.0
O22 O 0.88513 0.83399 0.15675 0.0
Cd23 Cd 0.90314 0.85177 0.18037 0.0
O24 O 0.86432 0.85031 0.15755 0.0
Cd25 Cd 0.87282 0.87036 0.17958 0.0
O26 O 0.86463 0.89101 0.19869 0.0
C27 C 0.87493 0.90278 0.20785 0.0
O28 O 0.89198 0.90287 0.20631 0.0
C29 C 0.87083 0.83706 0.15088 0.0
C30 C 0.93152 0.83632 0.1891 0.0
O31 O 0.91638 0.83311 0.19661 0.0
O32 O 0.93328 0.84682 0.17738 0.0
O33 O 0.21173 0.88552 0.17256 0.0
Cd34 Cd 0.1946 0.85662 0.17106 0.0
O35 O 0.23605 0.87848 0.18181 0.0
Cd36 Cd 0.22276 0.85251 0.1843 0.0
O37 O 0.20126 0.83692 0.19707 0.0
C38 C 0.1966 0.84375 0.21225 0.0
O39 O 0.20537 0.85867 0.21901 0.0
C40 C 0.22768 0.88982 0.17728 0.0
C41 C 0.19901 0.83475 0.13996 0.0
O42 O 0.1863 0.84352 0.14165 0.0
O43 O 0.2098 0.83663 0.15279 0.0
O44 O 0.19472 0.87847 0.88725 0.0
Cd45 Cd 0.18168 0.84918 0.89248 0.0
O46 O 0.1747 0.87535 0.86695 0.0
Cd47 Cd 0.15837 0.88092 0.84604 0.0
O48 O 0.1327 0.87212 0.83385 0.0
C49 C 0.13092 0.86434 0.81811 0.0
O50 O 0.145 0.86281 0.8081 0.0
C51 C 0.18801 0.88443 0.87474 0.0
C52 C 0.20058 0.83362 0.91479 0.0
O53 O 0.20584 0.83543 0.89881 0.0
O54 O 0.18652 0.83941 0.92045 0.0
O55 O 0.18601 0.15483 0.91482 0.0
Cd56 Cd 0.17335 0.13317 0.89079 0.0
O57 O 0.17673 0.17579 0.90351 0.0
Cd58 Cd 0.17016 0.2013 0.90063 0.0
O59 O 0.15722 0.22042 0.88979 0.0
C60 C 0.14131 0.22136 0.8943 0.0
O61 O 0.13361 0.21148 0.9059 0.0
C62 C 0.18468 0.17073 0.91582 0.0
C63 C 0.19667 0.11072 0.87779 0.0
O64 O 0.19479 0.12351 0.86962 0.0
O65 O 0.18755 0.10856 0.89204 0.0
O66 O 0.85534 0.22319 0.87884 0.0
Cd67 Cd 0.874 0.236 0.85609 0.0
O68 O 0.86986 0.2018 0.88098 0.0
Cd69 Cd 0.87094 0.17621 0.8882 0.0
O70 O 0.86276 0.14904 0.87868 0.0
C71 C 0.8479 0.14613 0.87122 0.0
O72 O 0.8391 0.15903 0.87108 0.0
C73 C 0.85692 0.20962 0.88554 0.0
C74 C 0.90959 0.24353 0.8635 0.0
O75 O 0.89903 0.25388 0.86977 0.0
O76 O 0.90318 0.22932 0.85425 0.0
O77 O 0.87702 0.84453 0.8403 0.0
Cd78 Cd 0.84927 0.85518 0.84937 0.0
O79 O 0.88139 0.83649 0.86641 0.0
Cd80 Cd 0.85797 0.84297 0.88127 0.0
O81 O 0.84074 0.83729 0.90415 0.0
C82 C 0.84828 0.83634 0.91858 0.0
O83 O 0.86553 0.83974 0.9191 0.0
C84 C 0.88623 0.83787 0.85035 0.0
C85 C 0.84059 0.88028 0.82965 0.0
O86 O 0.84648 0.88455 0.84547 0.0
O87 O 0.83902 0.86436 0.82313 0.0
O88 O 0.21085 0.66611 0.65848 0.0
Cd89 Cd 0.19881 0.64621 0.6799 0.0
O90 O 0.19069 0.68327 0.6632 0.0
Cd91 Cd 0.17229 0.67132 0.68242 0.0
O92 O 0.1482 0.67426 0.69825 0.0
C93 C 0.1417 0.68779 0.69663 0.0
O94 O 0.14968 0.69851 0.68595 0.0
C95 C 0.20469 0.67943 0.65535 0.0
C96 C 0.2243 0.62894 0.69217 0.0
O97 O 0.21404 0.62157 0.67956 0.0
O98 O 0.22253 0.6443 0.69887 0.0
O99 O 0.89848 0.67648 0.64448 0.0
Cd100 Cd 0.88438 0.66106 0.61738 0.0
O101 O 0.8838 0.65547 0.65764 0.0
Cd102 Cd 0.87579 0.64024 0.67955 0.0
O103 O 0.86664 0.62017 0.69652 0.0
C104 C 0.86152 0.62363 0.71252 0.0
O105 O 0.86187 0.63983 0.71925 0.0
C106 C 0.89426 0.66971 0.65866 0.0
C107 C 0.87099 0.68292 0.59718 0.0
O108 O 0.86238 0.67738 0.61062 0.0
O109 O 0.88595 0.67817 0.5933 0.0
O110 O 0.88143 0.33212 0.68386 0.0
Cd111 Cd 0.89413 0.34798 0.71158 0.0
O112 O 0.89442 0.35058 0.6663 0.0
Cd113 Cd 0.8993 0.37073 0.68896 0.0
O114 O 0.89143 0.3927 0.70628 0.0
C115 C 0.87968 0.39004 0.71827 0.0
O116 O 0.87324 0.37409 0.72065 0.0
C117 C 0.88513 0.33615 0.66831 0.0
C118 C 0.92338 0.33481 0.72177 0.0
O119 O 0.90769 0.32708 0.724 0.0
O120 O 0.92544 0.34888 0.71472 0.0
O121 O 0.18957 0.39022 0.64874 0.0
Cd122 Cd 0.17734 0.3644 0.6292 0.0
O123 O 0.17706 0.37947 0.67229 0.0
Cd124 Cd 0.16329 0.35507 0.65931 0.0
O125 O 0.14737 0.33259 0.66874 0.0
C126 C 0.15391 0.32689 0.68153 0.0
O127 O 0.16994 0.33366 0.68652 0.0
C128 C 0.1868 0.39154 0.66547 0.0
C129 C 0.20502 0.34771 0.61557 0.0
O130 O 0.19873 0.35791 0.60658 0.0
O131 O 0.19792 0.34508 0.63074 0.0
O132 O 0.2005 0.38579 0.37328 0.0
Cd133 Cd 0.18496 0.36641 0.39342 0.0
O134 O 0.1772 0.37876 0.35678 0.0
Cd135 Cd 0.15865 0.37805 0.33541 0.0
O136 O 0.13233 0.36786 0.32543 0.0
C137 C 0.12916 0.36064 0.30966 0.0
O138 O 0.1422 0.36006 0.29804 0.0
C139 C 0.19268 0.387 0.35912 0.0
C140 C 0.20723 0.35594 0.41665 0.0
O141 O 0.20558 0.34879 0.40051 0.0
O142 O 0.19841 0.36814 0.42187 0.0
O143 O 0.20317 0.66441 0.39734 0.0
Cd144 Cd 0.18583 0.6507 0.37146 0.0
O145 O 0.19353 0.6894 0.40213 0.0
Cd146 Cd 0.17481 0.68381 0.38021 0.0
O147 O 0.15526 0.68587 0.36052 0.0
C148 C 0.14981 0.70028 0.36107 0.0
O149 O 0.15602 0.71291 0.3733 0.0
C150 C 0.20346 0.67919 0.40631 0.0
C151 C 0.20096 0.62205 0.35693 0.0
O152 O 0.20436 0.63627 0.35017 0.0
O153 O 0.19004 0.62124 0.37007 0.0
O154 O 0.88447 0.71163 0.38996 0.0
Cd155 Cd 0.90172 0.6971 0.36694 0.0
O156 O 0.86802 0.6866 0.39089 0.0
Cd157 Cd 0.84548 0.6673 0.39622 0.0
O158 O 0.83009 0.64277 0.38541 0.0
C159 C 0.82399 0.64252 0.37 0.0
O160 O 0.82631 0.65692 0.36269 0.0
C161 C 0.871 0.70269 0.39614 0.0
C162 C 0.93083 0.71888 0.35585 0.0
O163 O 0.91533 0.71995 0.35107 0.0
O164 O 0.93273 0.70754 0.36596 0.0
O165 O 0.88039 0.34982 0.33776 0.0
Cd166 Cd 0.85699 0.36596 0.3501 0.0
O167 O 0.88394 0.3409 0.36367 0.0
Cd168 Cd 0.86432 0.35094 0.38197 0.0
O169 O 0.85731 0.34416 0.40882 0.0
C170 C 0.84187 0.33878 0.41428 0.0
O171 O 0.82849 0.33836 0.40387 0.0
C172 C 0.88823 0.34139 0.34733 0.0
C173 C 0.85162 0.39397 0.33274 0.0
O174 O 0.86169 0.39619 0.34623 0.0
O175 O 0.84447 0.37852 0.3272 0.0
O176 O 0.70862 0.15309 0.66711 0.0
Cd177 Cd 0.68891 0.14019 0.68962 0.0
O178 O 0.69913 0.17817 0.66882 0.0
Cd179 Cd 0.67715 0.17324 0.6877 0.0
O180 O 0.65278 0.1773 0.70255 0.0
C181 C 0.6464 0.19079 0.70052 0.0
O182 O 0.65463 0.20135 0.68981 0.0
C183 C 0.70962 0.16802 0.66223 0.0
C184 C 0.70307 0.1144 0.70392 0.0
O185 O 0.69389 0.11089 0.68977 0.0
O186 O 0.70555 0.13007 0.71134 0.0
O187 O 0.39527 0.18554 0.64778 0.0
Cd188 Cd 0.38213 0.17431 0.61879 0.0
O189 O 0.38274 0.16199 0.65827 0.0
Cd190 Cd 0.37469 0.1436 0.67756 0.0
O191 O 0.3633 0.12181 0.69168 0.0
C192 C 0.35805 0.12395 0.7078 0.0
O193 O 0.35979 0.13965 0.71636 0.0
C194 C 0.39277 0.1765 0.66061 0.0
C195 C 0.376 0.20005 0.59889 0.0
O196 O 0.36385 0.19289 0.60875 0.0
O197 O 0.39108 0.19513 0.59855 0.0
O198 O 0.41589 0.85103 0.64578 0.0
Cd199 Cd 0.44038 0.86967 0.66191 0.0
O200 O 0.39948 0.86809 0.66079 0.0
Cd201 Cd 0.37662 0.87917 0.6723 0.0
O202 O 0.35735 0.89133 0.6893 0.0
C203 C 0.34875 0.88254 0.70054 0.0
O204 O 0.35143 0.8666 0.70093 0.0
C205 C 0.40073 0.85523 0.64907 0.0
C206 C 0.45862 0.85496 0.68574 0.0
O207 O 0.44431 0.86075 0.69046 0.0
O208 O 0.46403 0.85563 0.6696 0.0
O209 O 0.70006 0.87098 0.67269 0.0
Cd210 Cd 0.68539 0.8412 0.66558 0.0
O211 O 0.67984 0.88265 0.66098 0.0
Cd212 Cd 0.66238 0.85799 0.65895 0.0
O213 O 0.64841 0.84801 0.68192 0.0
C214 C 0.64962 0.85957 0.69531 0.0
O215 O 0.65831 0.87495 0.69343 0.0
C216 C 0.69456 0.88427 0.66859 0.0
C217 C 0.70175 0.82456 0.63658 0.0
O218 O 0.70665 0.82426 0.65251 0.0
O219 O 0.68895 0.83259 0.6344 0.0
O220 O 0.70302 0.89957 0.38354 0.0
Cd221 Cd 0.69072 0.88268 0.40719 0.0
O222 O 0.68009 0.88971 0.3669 0.0
Cd223 Cd 0.662 0.88638 0.34461 0.0
O224 O 0.63907 0.87523 0.32836 0.0
C225 C 0.63667 0.85895 0.32425 0.0
O226 O 0.64827 0.85013 0.32933 0.0
C227 C 0.69501 0.8992 0.36909 0.0
C228 C 0.71699 0.87129 0.42487 0.0
O229 O 0.70862 0.86151 0.41211 0.0
O230 O 0.7129 0.88635 0.42927 0.0
O231 O 0.69251 0.17205 0.39455 0.0
Cd232 Cd 0.67766 0.16237 0.36626 0.0
O233 O 0.68874 0.19938 0.39883 0.0
Cd234 Cd 0.67205 0.20026 0.37623 0.0
O235 O 0.65479 0.21537 0.36464 0.0
C236 C 0.64804 0.22569 0.37615 0.0
O237 O 0.65157 0.22581 0.39301 0.0
C238 C 0.69504 0.18683 0.40372 0.0
C239 C 0.69198 0.13374 0.35003 0.0
O240 O 0.69864 0.14911 0.34733 0.0
O241 O 0.67821 0.13183 0.36004 0.0
O242 O 0.36186 0.22796 0.34795 0.0
Cd243 Cd 0.36466 0.20411 0.32449 0.0
O244 O 0.35412 0.20697 0.36402 0.0
Cd245 Cd 0.34679 0.19435 0.3877 0.0
O246 O 0.33659 0.16706 0.38676 0.0
C247 C 0.34118 0.15866 0.37237 0.0
O248 O 0.35198 0.1669 0.36137 0.0
C249 C 0.35724 0.22303 0.36295 0.0
C250 C 0.40038 0.20481 0.31775 0.0
O251 O 0.39094 0.21139 0.30769 0.0
O252 O 0.39274 0.19719 0.33052 0.0
O253 O 0.38717 0.87228 0.34279 0.0
Cd254 Cd 0.36365 0.88246 0.36214 0.0
O255 O 0.39373 0.85424 0.36054 0.0
Cd256 Cd 0.37567 0.85823 0.38318 0.0
O257 O 0.36798 0.84965 0.40919 0.0
C258 C 0.35234 0.84371 0.41362 0.0
O259 O 0.33953 0.84354 0.40257 0.0
C260 C 0.39628 0.86101 0.34613 0.0
C261 C 0.34802 0.90806 0.34914 0.0
O262 O 0.36123 0.91201 0.3595 0.0
O263 O 0.34229 0.89201 0.34472 0.0
O264 O 0.68912 0.65055 0.15633 0.0
Cd265 Cd 0.67348 0.63426 0.17915 0.0
O266 O 0.67111 0.66936 0.15431 0.0
Cd267 Cd 0.6501 0.66224 0.17359 0.0
O268 O 0.62614 0.66813 0.18826 0.0
C269 C 0.62138 0.68238 0.18604 0.0
O270 O 0.63089 0.69222 0.17542 0.0
C271 C 0.68513 0.6633 0.14951 0.0
C272 C 0.6928 0.61005 0.18973 0.0
O273 O 0.68154 0.60577 0.17725 0.0
O274 O 0.69495 0.62572 0.19716 0.0
O275 O 0.35785 0.68216 0.1677 0.0
Cd276 Cd 0.33722 0.65741 0.15442 0.0
O277 O 0.37893 0.6675 0.17218 0.0
Cd278 Cd 0.36155 0.64268 0.16856 0.0
O279 O 0.35006 0.62068 0.18223 0.0
C280 C 0.36101 0.6134 0.18948 0.0
O281 O 0.37788 0.61877 0.18721 0.0
C282 C 0.37346 0.68186 0.17241 0.0
C283 C 0.31916 0.66699 0.12685 0.0
O284 O 0.31307 0.66818 0.14286 0.0
O285 O 0.33366 0.66106 0.12384 0.0
O286 O 0.40784 0.32444 0.13663 0.0
Cd287 Cd 0.43886 0.3261 0.14414 0.0
O288 O 0.40045 0.34608 0.15496 0.0
Cd289 Cd 0.38257 0.36285 0.16838 0.0
O290 O 0.3688 0.38133 0.18519 0.0
C291 C 0.37819 0.39271 0.19568 0.0
O292 O 0.39525 0.39275 0.19564 0.0
C293 C 0.3964 0.33377 0.14254 0.0
C294 C 0.44996 0.33158 0.17938 0.0
O295 O 0.45182 0.34401 0.16982 0.0
O296 O 0.44202 0.31681 0.17263 0.0
O297 O 0.69404 0.38998 0.15569 0.0
Cd298 Cd 0.67674 0.37332 0.131 0.0
O299 O 0.68234 0.37408 0.17624 0.0
Cd300 Cd 0.66308 0.355 0.16134 0.0
O301 O 0.64237 0.34497 0.17928 0.0
C302 C 0.63609 0.35699 0.18891 0.0
O303 O 0.64117 0.37296 0.18564 0.0
C304 C 0.69293 0.3869 0.17179 0.0
C305 C 0.68752 0.34208 0.1175 0.0
O306 O 0.69532 0.35635 0.1127 0.0
O307 O 0.67485 0.34261 0.12888 0.0
O308 O 0.70958 0.36713 0.86594 0.0
Cd309 Cd 0.69782 0.33687 0.86797 0.0
O310 O 0.6928 0.36585 0.84302 0.0
Cd311 Cd 0.67885 0.37382 0.82165 0.0
O312 O 0.65297 0.36535 0.80969 0.0
C313 C 0.63991 0.3656 0.82042 0.0
O314 O 0.6428 0.37226 0.83706 0.0
C315 C 0.70448 0.3744 0.85348 0.0
C316 C 0.71238 0.32403 0.89563 0.0
O317 O 0.7209 0.3261 0.88104 0.0
O318 O 0.69689 0.32806 0.8973 0.0
O319 O 0.68216 0.6551 0.90959 0.0
Cd320 Cd 0.67156 0.62884 0.88974 0.0
O321 O 0.66189 0.66831 0.90043 0.0
Cd322 Cd 0.64744 0.68956 0.89769 0.0
O323 O 0.63013 0.70556 0.8877 0.0
C324 C 0.63634 0.71881 0.88029 0.0
O325 O 0.65348 0.7233 0.87921 0.0
C326 C 0.67476 0.66845 0.91055 0.0
C327 C 0.69799 0.60886 0.88038 0.0
O328 O 0.69411 0.61925 0.87003 0.0
O329 O 0.68938 0.60791 0.8951 0.0
O330 O 0.34999 0.7014 0.87672 0.0
Cd331 Cd 0.36523 0.69652 0.84818 0.0
O332 O 0.35076 0.67409 0.87759 0.0
Cd333 Cd 0.34507 0.64837 0.88599 0.0
O334 O 0.33759 0.62132 0.87581 0.0
C335 C 0.34932 0.61189 0.87145 0.0
O336 O 0.36581 0.61819 0.8751 0.0
C337 C 0.34556 0.68799 0.88442 0.0
C338 C 0.39772 0.71708 0.84554 0.0
O339 O 0.3836 0.72211 0.84128 0.0
O340 O 0.3964 0.70242 0.85137 0.0
O341 O 0.37969 0.34978 0.83032 0.0
Cd342 Cd 0.35451 0.36469 0.8396 0.0
O343 O 0.38265 0.34269 0.85719 0.0
Cd344 Cd 0.3603 0.35176 0.87212 0.0
O345 O 0.34318 0.34937 0.89585 0.0
C346 C 0.34196 0.3351 0.90222 0.0
O347 O 0.35044 0.3231 0.89408 0.0
C348 C 0.38778 0.34272 0.84102 0.0
C349 C 0.34961 0.39157 0.82026 0.0
O350 O 0.35919 0.39446 0.83415 0.0
O351 O 0.34269 0.37593 0.81524 0.0
H352 H 0.27525 0.30432 0.02421 0.0
H353 H 0.23581 0.25954 0.02654 0.0
H354 H 0.26248 0.26863 0.977 0.0
H355 H 0.25402 0.30275 0.04917 0.0
H356 H 0.23715 0.28458 0.04969 0.0
H357 H 0.28283 0.30293 0.06146 0.0
H358 H 0.28678 0.26494 0.09633 0.0
H359 H 0.24311 0.25798 0.06101 0.0
C360 C 0.26789 0.29247 0.01771 0.0
C361 C 0.27052 0.28758 0.99941 0.0
C362 C 0.25551 0.28226 0.02762 0.0
C363 C 0.24574 0.26709 0.01904 0.0
C364 C 0.24806 0.26214 0.00072 0.0
C365 C 0.26064 0.27236 0.99113 0.0
C366 C 0.2514 0.28841 0.04681 0.0
C367 C 0.26195 0.28115 0.05965 0.0
C368 C 0.27783 0.29075 0.0663 0.0
C369 C 0.28695 0.28498 0.07952 0.0
C370 C 0.28024 0.26916 0.08564 0.0
C371 C 0.26452 0.25928 0.07903 0.0
C372 C 0.25543 0.26535 0.06598 0.0
H373 H 0.76186 0.21478 0.01892 0.0
H374 H 0.71579 0.23887 0.03059 0.0
H375 H 0.75913 0.25025 0.06666 0.0
H376 H 0.73015 0.20234 0.00559 0.0
H377 H 0.71571 0.21787 0.00512 0.0
H378 H 0.75435 0.2016 0.98493 0.0
H379 H 0.7664 0.24078 0.9501 0.0
H380 H 0.72744 0.24586 0.99163 0.0
C381 C 0.75482 0.22357 0.02747 0.0
C382 C 0.7625 0.23228 0.04329 0.0
C383 C 0.73796 0.22586 0.0228 0.0
C384 C 0.72879 0.23698 0.03412 0.0
C385 C 0.73641 0.24586 0.04989 0.0
C386 C 0.75326 0.24348 0.05442 0.0
C387 C 0.72976 0.21636 0.00583 0.0
C388 C 0.73965 0.2229 0.98991 0.0
C389 C 0.75216 0.2137 0.98081 0.0
C390 C 0.76164 0.21995 0.96624 0.0
C391 C 0.75892 0.23577 0.96121 0.0
C392 C 0.74669 0.24521 0.97025 0.0
C393 C 0.73692 0.23864 0.98452 0.0
H394 H 0.73285 0.74529 0.0598 0.0
H395 H 0.77691 0.7862 0.05969 0.0
H396 H 0.77872 0.74429 0.09014 0.0
H397 H 0.72938 0.77284 0.05004 0.0
H398 H 0.74729 0.79026 0.05106 0.0
H399 H 0.72433 0.75244 0.0233 0.0
H400 H 0.75528 0.76266 0.97644 0.0
H401 H 0.77055 0.79111 0.02731 0.0
C402 C 0.74609 0.75087 0.06389 0.0
C403 C 0.755 0.74265 0.07535 0.0
C404 C 0.75397 0.76652 0.05809 0.0
C405 C 0.77095 0.77393 0.06381 0.0
C406 C 0.78006 0.76589 0.07522 0.0
C407 C 0.77207 0.75015 0.08071 0.0
C408 C 0.74371 0.77611 0.0472 0.0
C409 C 0.74728 0.77198 0.02751 0.0
C410 C 0.73567 0.75945 0.01708 0.0
C411 C 0.73848 0.75611 0.99863 0.0
C412 C 0.75315 0.76527 0.99068 0.0
C413 C 0.7648 0.77802 0.00083 0.0
C414 C 0.76187 0.78114 0.01932 0.0
H415 H 0.24465 0.70079 0.02513 0.0
H416 H 0.21394 0.74176 0.02856 0.0
H417 H 0.2435 0.73537 0.07376 0.0
H418 H 0.22106 0.70019 0.00365 0.0
H419 H 0.20846 0.71744 0.00511 0.0
H420 H 0.24964 0.70251 0.98885 0.0
H421 H 0.26336 0.74321 0.95604 0.0
H422 H 0.22141 0.74559 0.99487 0.0
C423 C 0.2402 0.7119 0.03276 0.0
C424 C 0.24583 0.71723 0.05033 0.0
C425 C 0.22852 0.72061 0.02502 0.0
C426 C 0.22261 0.73489 0.03483 0.0
C427 C 0.22778 0.7403 0.05252 0.0
C428 C 0.23942 0.73137 0.06013 0.0
C429 C 0.22195 0.71446 0.00646 0.0
C430 C 0.23402 0.72298 0.99299 0.0
C431 C 0.24765 0.71475 0.98494 0.0
C432 C 0.25846 0.72207 0.97172 0.0
C433 C 0.25569 0.73798 0.9669 0.0
C434 C 0.24251 0.74675 0.97524 0.0
C435 C 0.23171 0.73911 0.98834 0.0
H436 H 0.01779 0.21699 0.25934 0.0
H437 H 0.01307 0.26735 0.28602 0.0
H438 H 0.06119 0.25821 0.25846 0.0
H439 H 0.99444 0.21986 0.2801 0.0
H440 H -0.00227 0.23793 0.29683 0.0
H441 H 0.97592 0.22022 0.25421 0.0
H442 H 0.93546 0.25208 0.26441 0.0
H443 H 0.9821 0.26215 0.29637 0.0
C444 C 0.02329 0.23046 0.26268 0.0
C445 C 0.04039 0.23656 0.25687 0.0
C446 C 0.01348 0.24152 0.27336 0.0
C447 C 0.0207 0.25894 0.27777 0.0
C448 C 0.03791 0.26529 0.27234 0.0
C449 C 0.04758 0.25391 0.26187 0.0
C450 C 0.99656 0.23422 0.2822 0.0
C451 C 0.98068 0.24061 0.27591 0.0
C452 C 0.97103 0.23122 0.26159 0.0
C453 C 0.95478 0.23539 0.25726 0.0
C454 C 0.94838 0.24945 0.26722 0.0
C455 C 0.958 0.25918 0.28161 0.0
C456 C 0.97441 0.25486 0.28544 0.0
H457 H 0.81244 0.03429 0.28087 0.0
H458 H 0.76989 0.03579 0.31904 0.0
H459 H 0.7748 0.06831 0.27723 0.0
H460 H 0.81359 0.02462 0.31123 0.0
H461 H 0.79408 0.02165 0.32457 0.0
H462 H 0.81887 0.0033 0.28638 0.0
H463 H 0.78632 0.95347 0.28411 0.0
H464 H 0.77006 -0.00256 0.31583 0.0
C465 C 0.80045 0.03909 0.28549 0.0
C466 C 0.79469 0.05204 0.27721 0.0
C467 C 0.79143 0.03303 0.30045 0.0
C468 C 0.77641 0.03995 0.30706 0.0
C469 C 0.77049 0.05295 0.29896 0.0
C470 C 0.77949 0.05856 0.2838 0.0
C471 C 0.79907 0.02079 0.31056 0.0
C472 C 0.79487 0.00235 0.30192 0.0
C473 C 0.80695 0.99517 0.29005 0.0
C474 C 0.80402 0.9775 0.28343 0.0
C475 C 0.78843 0.96723 0.28843 0.0
C476 C 0.77609 0.97429 0.30007 0.0
C477 C 0.77936 0.99191 0.30663 0.0
H478 H 0.03493 0.74929 0.27417 0.0
H479 H 0.03273 0.76831 0.2237 0.0
H480 H -0.00267 0.78215 0.26631 0.0
H481 H 0.04447 0.73371 0.24151 0.0
H482 H 0.05282 0.74906 0.22679 0.0
H483 H 0.06086 0.73108 0.26729 0.0
H484 H 0.10999 0.76473 0.27792 0.0
H485 H 0.07602 0.77444 0.23797 0.0
C486 C 0.02938 0.75714 0.26584 0.0
C487 C 0.01554 0.76584 0.27248 0.0
C488 C 0.03586 0.75818 0.24837 0.0
C489 C 0.02821 0.76797 0.23738 0.0
C490 C 0.01415 0.77656 0.24373 0.0
C491 C 0.00822 0.77565 0.26138 0.0
C492 C 0.04977 0.74757 0.24102 0.0
C493 C 0.06649 0.75234 0.25158 0.0
C494 C 0.07014 0.74234 0.26471 0.0
C495 C 0.08576 0.74682 0.27446 0.0
C496 C 0.09761 0.76146 0.27098 0.0
C497 C 0.09423 0.77137 0.25783 0.0
C498 C 0.07865 0.76681 0.24819 0.0
H499 H 0.24903 0.00193 0.26487 0.0
H500 H 0.27082 -0.00182 0.31502 0.0
H501 H 0.28134 0.96289 0.26961 0.0
H502 H 0.23359 0.01011 0.29425 0.0
H503 H 0.24609 0.01326 0.31408 0.0
H504 H 0.23859 0.03088 0.27265 0.0
H505 H 0.27078 0.07971 0.28905 0.0
H506 H 0.27088 0.03697 0.31876 0.0
C507 C 0.2569 0.99545 0.27249 0.0
C508 C 0.26468 0.98135 0.26444 0.0
C509 C 0.25854 0.00111 0.29073 0.0
C510 C 0.26948 0.99374 0.30092 0.0
C511 C 0.27811 0.98018 0.29316 0.0
C512 C 0.27531 0.97386 0.2751 0.0
C513 C 0.24716 0.01378 0.29946 0.0
C514 C 0.25422 0.03193 0.29591 0.0
C515 C 0.24827 0.03883 0.28143 0.0
C516 C 0.25415 0.05613 0.27877 0.0
C517 C 0.26625 0.06634 0.29078 0.0
C518 C 0.27218 0.05959 0.30534 0.0
C519 C 0.26632 0.04231 0.30761 0.0
H520 H 0.9871 0.7657 0.79784 0.0
H521 H 0.97834 0.72471 0.75456 0.0
H522 H 0.93889 0.75691 0.76858 0.0
H523 H 0.00174 0.74008 0.79665 0.0
H524 H -0.00195 0.72327 0.77855 0.0
H525 H 0.01673 0.77083 0.78615 0.0
H526 H 0.06634 0.76178 0.76189 0.0
H527 H 0.02274 0.72055 0.76014 0.0
C528 C 0.97898 0.75891 0.78699 0.0
C529 C 0.96249 0.76363 0.78423 0.0
C530 C 0.98477 0.74486 0.77638 0.0
C531 C 0.97422 0.73588 0.76241 0.0
C532 C 0.95767 0.74021 0.7596 0.0
C533 C 0.95195 0.75408 0.77046 0.0
C534 C 0.00043 0.73755 0.78192 0.0
C535 C 0.01769 0.74502 0.77372 0.0
C536 C 0.02476 0.76245 0.77845 0.0
C537 C 0.04233 0.76882 0.77417 0.0
C538 C 0.05253 0.75747 0.7644 0.0
C539 C 0.04555 0.74014 0.759 0.0
C540 C 0.02808 0.73402 0.76373 0.0
H541 H 0.2714 0.98957 0.82413 0.0
H542 H 0.30749 0.97593 0.78218 0.0
H543 H 0.2627 0.93915 0.79426 0.0
H544 H 0.30417 0.0032 0.82298 0.0
H545 H 0.31571 0.00109 0.80228 0.0
H546 H 0.27798 0.01886 0.82612 0.0
H547 H 0.28353 0.06171 0.79562 0.0
H548 H 0.31273 0.01998 0.78062 0.0
C549 C 0.27494 0.98049 0.81321 0.0
C550 C 0.26494 0.96392 0.81026 0.0
C551 C 0.2901 0.98505 0.80289 0.0
C552 C 0.29524 0.97279 0.7894 0.0
C553 C 0.28553 0.95608 0.78631 0.0
C554 C 0.27011 0.95204 0.79644 0.0
C555 C 0.3024 0.00169 0.80831 0.0
C556 C 0.29571 0.01749 0.80364 0.0
C557 C 0.28351 0.02517 0.81491 0.0
C558 C 0.2789 0.04113 0.81218 0.0
C559 C 0.28661 0.04925 0.79771 0.0
C560 C 0.29872 0.0417 0.78614 0.0
C561 C 0.303 0.02567 0.78908 0.0
H562 H 0.03884 0.32339 0.78366 0.0
H563 H 0.03944 0.30449 0.83455 0.0
H564 H 0.99407 0.28979 0.80153 0.0
H565 H 0.06287 0.33479 0.8041 0.0
H566 H 0.06124 0.32987 0.82659 0.0
H567 H 0.07435 0.31489 0.78032 0.0
H568 H 0.10448 0.27812 0.79582 0.0
H569 H 0.07318 0.30518 0.83479 0.0
C570 C 0.03246 0.31569 0.79359 0.0
C571 C 0.01546 0.30647 0.79061 0.0
C572 C 0.04129 0.31481 0.80936 0.0
C573 C 0.03283 0.30499 0.82228 0.0
C574 C 0.01593 0.29572 0.81935 0.0
C575 C 0.00743 0.29646 0.80349 0.0
C576 C 0.05979 0.32407 0.81244 0.0
C577 C 0.07257 0.31149 0.80806 0.0
C578 C 0.07854 0.30804 0.79051 0.0
C579 C 0.09021 0.29619 0.78608 0.0
C580 C 0.0957 0.28747 0.79938 0.0
C581 C 0.08941 0.29037 0.81703 0.0
C582 C 0.07792 0.30254 0.82123 0.0
H583 H 0.74898 0.98931 0.76099 0.0
H584 H 0.78624 0.98218 0.79897 0.0
H585 H 0.77427 0.94417 0.75364 0.0
H586 H 0.74642 -0.00012 0.79441 0.0
H587 H 0.76533 0.00138 0.80761 0.0
H588 H 0.74692 0.01795 0.76916 0.0
H589 H 0.78117 0.06664 0.77782 0.0
H590 H 0.78783 0.0257 0.80782 0.0
C591 C 0.75824 0.98174 0.76506 0.0
C592 C 0.76082 0.96625 0.75467 0.0
C593 C 0.76693 0.9873 0.78125 0.0
C594 C 0.77938 0.97782 0.78659 0.0
C595 C 0.78259 0.96252 0.77622 0.0
C596 C 0.7729 0.9567 0.76064 0.0
C597 C 0.76104 0.00183 0.79383 0.0
C598 C 0.76746 0.01945 0.78821 0.0
C599 C 0.75832 0.02591 0.77542 0.0
C600 C 0.7631 0.04299 0.77158 0.0
C601 C 0.7772 0.05352 0.78073 0.0
C602 C 0.78595 0.04755 0.79407 0.0
C603 C 0.78138 0.03033 0.79733 0.0
H604 H 0.28763 0.72205 0.51848 0.0
H605 H 0.32568 0.76832 0.52286 0.0
H606 H 0.29201 0.75515 0.47737 0.0
H607 H 0.31218 0.72491 0.53816 0.0
H608 H 0.32982 0.74241 0.53763 0.0
H609 H 0.28588 0.72818 0.55756 0.0
H610 H 0.29276 0.7688 0.60147 0.0
H611 H 0.33035 0.76883 0.55809 0.0
C612 C 0.29353 0.7338 0.51326 0.0
C613 C 0.28765 0.7377 0.49713 0.0
C614 C 0.30739 0.7447 0.52245 0.0
C615 C 0.31505 0.75995 0.51567 0.0
C616 C 0.30946 0.76406 0.49946 0.0
C617 C 0.29576 0.75277 0.49036 0.0
C618 C 0.31524 0.73916 0.53836 0.0
C619 C 0.30864 0.74775 0.5557 0.0
C620 C 0.29322 0.74012 0.5639 0.0
C621 C 0.28739 0.74771 0.58037 0.0
C622 C 0.29699 0.76314 0.58854 0.0
C623 C 0.3126 0.77072 0.5807 0.0
C624 C 0.31828 0.76304 0.5642 0.0
H625 H 0.7919 0.80774 0.53881 0.0
H626 H 0.83569 0.78018 0.53133 0.0
H627 H 0.79132 0.7619 0.56391 0.0
H628 H 0.82141 0.82116 0.52764 0.0
H629 H 0.83789 0.80788 0.52109 0.0
H630 H 0.80287 0.8258 0.50523 0.0
H631 H 0.79944 0.79347 0.45466 0.0
H632 H 0.82767 0.78052 0.4976 0.0
C633 C 0.79803 0.79685 0.54121 0.0
C634 C 0.78972 0.78508 0.55239 0.0
C635 C 0.81454 0.79504 0.53356 0.0
C636 C 0.82273 0.78123 0.53699 0.0
C637 C 0.81452 0.76908 0.54789 0.0
C638 C 0.79795 0.77117 0.55557 0.0
C639 C 0.82346 0.80796 0.52185 0.0
C640 C 0.81621 0.80376 0.5033 0.0
C641 C 0.80602 0.81462 0.49664 0.0
C642 C 0.79989 0.81115 0.47905 0.0
C643 C 0.80381 0.79629 0.46831 0.0
C644 C 0.81352 0.78503 0.47508 0.0
C645 C 0.81975 0.78892 0.49251 0.0
H646 H 0.82716 0.25666 0.55402 0.0
H647 H 0.78723 0.21226 0.55413 0.0
H648 H 0.80332 0.24254 0.60358 0.0
H649 H 0.82627 0.23201 0.53035 0.0
H650 H 0.80893 0.21425 0.52985 0.0
H651 H 0.82117 0.25982 0.52094 0.0
H652 H 0.78313 0.25224 0.4793 0.0
H653 H 0.78128 0.215 0.51604 0.0
C654 C 0.81778 0.24848 0.56142 0.0
C655 C 0.81657 0.2518 0.58013 0.0
C656 C 0.80753 0.23408 0.55205 0.0
C657 C 0.79508 0.22344 0.56134 0.0
C658 C 0.7932 0.22677 0.57992 0.0
C659 C 0.80406 0.24084 0.58918 0.0
C660 C 0.81189 0.22856 0.53278 0.0
C661 C 0.8022 0.23663 0.51991 0.0
C662 C 0.80956 0.25257 0.51437 0.0
C663 C 0.80264 0.25858 0.4998 0.0
C664 C 0.78782 0.24854 0.49132 0.0
C665 C 0.77979 0.23298 0.49718 0.0
C666 C 0.78699 0.22722 0.51166 0.0
H667 H 0.30769 0.32873 0.53676 0.0
H668 H 0.34723 0.2968 0.52203 0.0
H669 H 0.31286 0.2874 0.56694 0.0
H670 H 0.33155 0.33785 0.51649 0.0
H671 H 0.34872 0.32521 0.51111 0.0
H672 H 0.30332 0.3304 0.50099 0.0
H673 H 0.30192 0.29592 0.45186 0.0
H674 H 0.34578 0.3019 0.48661 0.0
C675 C 0.3139 0.31784 0.53893 0.0
C676 C 0.30829 0.30837 0.55312 0.0
C677 C 0.32796 0.31373 0.52776 0.0
C678 C 0.33646 0.29995 0.53077 0.0
C679 C 0.33121 0.29041 0.545 0.0
C680 C 0.31699 0.29464 0.55593 0.0
C681 C 0.33424 0.32441 0.513 0.0
C682 C 0.32518 0.31656 0.49589 0.0
C683 C 0.30892 0.32093 0.49187 0.0
C684 C 0.30041 0.31379 0.47584 0.0
C685 C 0.30825 0.30173 0.4642 0.0
C686 C 0.32472 0.2977 0.46782 0.0
C687 C 0.33305 0.30501 0.48377 0.0
H688 H 0.82923 0.52805 0.79837 0.0
H689 H 0.79204 0.52571 0.8418 0.0
H690 H 0.79412 0.56551 0.80759 0.0
H691 H 0.83391 0.51337 0.82453 0.0
H692 H 0.81744 0.51111 0.84158 0.0
H693 H 0.83331 0.49204 0.79923 0.0
H694 H 0.794 0.44667 0.79729 0.0
H695 H 0.78863 0.49152 0.83462 0.0
C696 C 0.81843 0.53301 0.80577 0.0
C697 C 0.81217 0.54745 0.80087 0.0
C698 C 0.81137 0.52535 0.82068 0.0
C699 C 0.7976 0.53192 0.8305 0.0
C700 C 0.79126 0.54652 0.82602 0.0
C701 C 0.79868 0.55415 0.81113 0.0
C702 C 0.81945 0.51109 0.82696 0.0
C703 C 0.81163 0.49365 0.81769 0.0
C704 C 0.82081 0.48544 0.80367 0.0
C705 C 0.81454 0.46848 0.79612 0.0
C706 C 0.79869 0.45987 0.80273 0.0
C707 C 0.78924 0.46793 0.81677 0.0
C708 C 0.79569 0.48502 0.82386 0.0
H709 H 0.29549 0.53491 0.71325 0.0
H710 H 0.32039 0.51928 0.75713 0.0
H711 H 0.29974 0.567 0.76371 0.0
H712 H 0.30866 0.5093 0.70836 0.0
H713 H 0.32713 0.51007 0.72213 0.0
H714 H 0.28021 0.49134 0.71489 0.0
H715 H 0.28156 0.45067 0.74705 0.0
H716 H 0.3265 0.49046 0.74457 0.0
C717 C 0.29931 0.5371 0.72709 0.0
C718 C 0.29645 0.55241 0.73769 0.0
C719 C 0.30794 0.52505 0.73407 0.0
C720 C 0.31348 0.52834 0.75181 0.0
C721 C 0.31042 0.54334 0.76267 0.0
C722 C 0.3018 0.5552 0.75551 0.0
C723 C 0.3126 0.50939 0.72236 0.0
C724 C 0.30417 0.49284 0.72921 0.0
C725 C 0.28714 0.48532 0.72396 0.0
C726 C 0.27904 0.47004 0.73023 0.0
C727 C 0.28798 0.46241 0.74214 0.0
C728 C 0.30517 0.46958 0.74745 0.0
C729 C 0.31317 0.48487 0.74088 0.0
H730 H 0.31711 0.52085 0.27742 0.0
H731 H 0.2748 0.52038 0.31544 0.0
H732 H 0.28796 0.56327 0.28493 0.0
H733 H 0.31742 0.50725 0.30592 0.0
H734 H 0.29789 0.50427 0.31911 0.0
H735 H 0.32083 0.48861 0.27841 0.0
H736 H 0.28666 0.43953 0.2733 0.0
H737 H 0.27264 0.48246 0.30866 0.0
C738 C 0.30647 0.52695 0.28377 0.0
C739 C 0.30313 0.54265 0.27887 0.0
C740 C 0.29665 0.5193 0.29736 0.0
C741 C 0.2826 0.52685 0.3054 0.0
C742 C 0.27921 0.54286 0.30122 0.0
C743 C 0.28964 0.55061 0.28783 0.0
C744 C 0.30282 0.50473 0.30515 0.0
C745 C 0.29721 0.48742 0.29443 0.0
C746 C 0.30868 0.48058 0.28166 0.0
C747 C 0.30513 0.46325 0.27394 0.0
C748 C 0.28927 0.45309 0.27848 0.0
C749 C 0.27744 0.45994 0.29095 0.0
C750 C 0.28144 0.47719 0.29868 0.0
H751 H 0.77645 0.52536 0.22746 0.0
H752 H 0.80408 0.53262 0.27686 0.0
H753 H 0.76406 0.56322 0.2701 0.0
H754 H 0.80251 0.51235 0.22941 0.0
H755 H 0.81616 0.51858 0.24846 0.0
H756 H 0.77303 0.49145 0.234 0.0
H757 H 0.78075 0.45035 0.26325 0.0
H758 H 0.81853 0.49697 0.26685 0.0
C759 C 0.77826 0.53164 0.24099 0.0
C760 C 0.76872 0.545 0.24739 0.0
C761 C 0.79085 0.52693 0.25171 0.0
C762 C 0.79385 0.5357 0.26893 0.0
C763 C 0.7845 0.54911 0.27547 0.0
C764 C 0.77163 0.55323 0.26483 0.0
C765 C 0.80237 0.51384 0.24422 0.0
C766 C 0.79614 0.49638 0.25026 0.0
C767 C 0.78064 0.48636 0.24325 0.0
C768 C 0.77507 0.46977 0.24794 0.0
C769 C 0.78513 0.4632 0.25971 0.0
C770 C 0.80098 0.4727 0.26647 0.0
C771 C 0.80626 0.48949 0.26191 0.0
H772 H 0.52718 0.22468 0.7632 0.0
H773 H 0.52275 0.27496 0.79027 0.0
H774 H 0.57157 0.26511 0.76464 0.0
H775 H 0.50403 0.22763 0.78434 0.0
H776 H 0.50641 0.24623 0.80039 0.0
H777 H 0.48555 0.22584 0.75817 0.0
H778 H 0.44398 0.2565 0.76592 0.0
H779 H 0.49056 0.2701 0.7978 0.0
C780 C 0.53288 0.23806 0.76685 0.0
C781 C 0.55034 0.24386 0.76185 0.0
C782 C 0.52296 0.2492 0.77729 0.0
C783 C 0.53045 0.26649 0.78217 0.0
C784 C 0.54801 0.27255 0.77756 0.0
C785 C 0.55775 0.26106 0.76736 0.0
C786 C 0.50579 0.24197 0.7858 0.0
C787 C 0.48987 0.24757 0.77857 0.0
C788 C 0.48039 0.23705 0.76472 0.0
C789 C 0.4639 0.24032 0.75996 0.0
C790 C 0.4571 0.25459 0.76895 0.0
C791 C 0.4665 0.26546 0.78279 0.0
C792 C 0.48313 0.26202 0.78714 0.0
H793 H 0.53293 0.83425 0.79331 0.0
H794 H 0.51771 0.80072 0.83345 0.0
H795 H 0.48516 0.79765 0.78784 0.0
H796 H 0.54537 0.84076 0.82427 0.0
H797 H 0.54045 0.82527 0.83966 0.0
H798 H 0.56644 0.83687 0.79992 0.0
H799 H 0.60087 0.79958 0.80218 0.0
H800 H 0.55503 0.79946 0.83671 0.0
C801 C 0.52385 0.82391 0.79821 0.0
C802 C 0.50861 0.81665 0.78862 0.0
C803 C 0.52714 0.81822 0.81444 0.0
C804 C 0.51526 0.80497 0.82085 0.0
C805 C 0.49999 0.7976 0.81143 0.0
C806 C 0.49678 0.80351 0.79534 0.0
C807 C 0.54289 0.82668 0.82531 0.0
C808 C 0.55892 0.81884 0.81886 0.0
C809 C 0.56972 0.82587 0.80554 0.0
C810 C 0.58486 0.81901 0.79957 0.0
C811 C 0.5891 0.80478 0.80683 0.0
C812 C 0.5785 0.79762 0.82039 0.0
C813 C 0.56325 0.80463 0.82614 0.0
H814 H 0.50955 0.73349 0.2499 0.0
H815 H 0.51684 0.78313 0.28184 0.0
H816 H 0.56033 0.76537 0.25203 0.0
H817 H 0.48697 0.74074 0.27071 0.0
H818 H 0.49244 0.7581 0.28797 0.0
H819 H 0.47017 0.74428 0.24574 0.0
H820 H 0.44757 0.79096 0.24717 0.0
H821 H 0.48561 0.78709 0.28566 0.0
C822 C 0.5179 0.7455 0.25449 0.0
C823 C 0.53575 0.748 0.2493 0.0
C824 C 0.51089 0.75828 0.26601 0.0
C825 C 0.52196 0.77362 0.27234 0.0
C826 C 0.53983 0.77622 0.2674 0.0
C827 C 0.54648 0.76348 0.25567 0.0
C828 C 0.49229 0.75474 0.27325 0.0
C829 C 0.48016 0.76507 0.26553 0.0
C830 C 0.46945 0.75751 0.25105 0.0
C831 C 0.4571 0.76645 0.24449 0.0
C832 C 0.45652 0.78356 0.25218 0.0
C833 C 0.46621 0.79086 0.26736 0.0
C834 C 0.47824 0.78164 0.2738 0.0
H835 H 0.52086 0.33047 0.2982 0.0
H836 H 0.52165 0.28493 0.32284 0.0
H837 H 0.48594 0.28401 0.28022 0.0
H838 H 0.53635 0.33239 0.32556 0.0
H839 H 0.53319 0.31445 0.33813 0.0
H840 H 0.5555 0.32948 0.29683 0.0
H841 H 0.60127 0.30606 0.30322 0.0
H842 H 0.55654 0.29824 0.3388 0.0
C843 C 0.51592 0.31696 0.29883 0.0
C844 C 0.50293 0.30807 0.28699 0.0
C845 C 0.52253 0.30859 0.31178 0.0
C846 C 0.51606 0.29121 0.31304 0.0
C847 C 0.50236 0.28221 0.30213 0.0
C848 C 0.49621 0.29076 0.28893 0.0
C849 C 0.53628 0.31823 0.32458 0.0
C850 C 0.55423 0.31436 0.31851 0.0
C851 C 0.56239 0.32149 0.30382 0.0
C852 C 0.5793 0.31853 0.29813 0.0
C853 C 0.58801 0.30798 0.30723 0.0
C854 C 0.58001 0.30081 0.32218 0.0
C855 C 0.56297 0.30387 0.32749 0.0
H856 H 0.19476 0.20245 0.13588 0.0
H857 H 0.23522 0.17167 0.14309 0.0
H858 H 0.25485 0.18786 0.12239 0.0
H859 H 0.20393 0.20656 0.08874 0.0
H860 H 0.19968 0.22849 0.09104 0.0
H861 H 0.18839 0.21362 0.10534 0.0
H862 H 0.19967 0.23464 0.13312 0.0
H863 H 0.21091 0.24957 0.11893 0.0
H864 H 0.22295 0.24198 0.13547 0.0
H865 H 0.27073 0.20879 0.10246 0.0
H866 H 0.28179 0.23311 0.08551 0.0
H867 H 0.23086 0.25007 0.09134 0.0
C868 C 0.20766 0.19893 0.13298 0.0
C869 C 0.21341 0.18571 0.14112 0.0
C870 C 0.23048 0.18169 0.13702 0.0
C871 C 0.24171 0.19079 0.12523 0.0
C872 C 0.23565 0.20382 0.11757 0.0
C873 C 0.219 0.20786 0.12127 0.0
C874 C 0.21595 0.22301 0.11206 0.0
C875 C 0.20111 0.21759 0.09849 0.0
C876 C 0.21215 0.23819 0.12571 0.0
C877 C 0.2336 0.22711 0.10284 0.0
C878 C 0.24474 0.21581 0.10606 0.0
C879 C 0.26205 0.21759 0.09972 0.0
C880 C 0.26823 0.23145 0.09013 0.0
C881 C 0.25714 0.24339 0.08699 0.0
C882 C 0.23951 0.24094 0.09318 0.0
H883 H 0.82947 0.19854 0.1028 0.0
H884 H 0.86943 0.20914 0.06212 0.0
H885 H 0.84838 0.22138 0.04555 0.0
H886 H 0.79352 0.18566 0.0744 0.0
H887 H 0.77809 0.19574 0.08897 0.0
H888 H 0.79658 0.18879 0.09816 0.0
H889 H 0.8063 0.21967 0.11414 0.0
H890 H 0.78777 0.22672 0.10507 0.0
H891 H 0.80971 0.23766 0.10137 0.0
H892 H 0.82206 0.22968 0.03197 0.0
H893 H 0.79304 0.23579 0.02374 0.0
H894 H 0.77095 0.22138 0.07409 0.0
C895 C 0.83386 0.20363 0.09052 0.0
C896 C 0.85107 0.20286 0.08372 0.0
C897 C 0.85633 0.20967 0.06761 0.0
C898 C 0.84446 0.21661 0.05809 0.0
C899 C 0.82749 0.2169 0.06501 0.0
C900 C 0.82228 0.21083 0.081 0.0
C901 C 0.80324 0.21239 0.0854 0.0
C902 C 0.79222 0.19459 0.08681 0.0
C903 C 0.80167 0.22486 0.10251 0.0
C904 C 0.79842 0.2199 0.0692 0.0
C905 C 0.81257 0.22236 0.05755 0.0
C906 C 0.81098 0.22811 0.04113 0.0
C907 C 0.7945 0.23148 0.03653 0.0
C908 C 0.77995 0.22925 0.04841 0.0
C909 C 0.782 0.2235 0.06497 0.0
H910 H 0.84088 0.84074 0.13434 0.0
H911 H 0.87842 0.80548 0.13577 0.0
H912 H 0.86057 0.78421 0.11417 0.0
H913 H 0.80311 0.80998 0.13351 0.0
H914 H 0.79121 0.81992 0.11871 0.0
H915 H 0.80787 0.83293 0.13275 0.0
H916 H 0.82396 0.84448 0.10505 0.0
H917 H 0.80731 0.83148 0.09089 0.0
H918 H 0.83012 0.82945 0.08685 0.0
H919 H 0.83695 0.76571 0.09473 0.0
H920 H 0.80989 0.75183 0.07874 0.0
H921 H 0.78827 0.79949 0.08995 0.0
C922 C 0.84555 0.82867 0.12993 0.0
C923 C 0.8611 0.82481 0.13677 0.0
C924 C 0.86661 0.80878 0.13069 0.0
C925 C 0.85656 0.79662 0.1184 0.0
C926 C 0.84113 0.80075 0.1122 0.0
C927 C 0.83574 0.81646 0.11767 0.0
C928 C 0.81819 0.81743 0.10983 0.0
C929 C 0.80428 0.82022 0.12458 0.0
C930 C 0.82001 0.83155 0.09742 0.0
C931 C 0.81427 0.79964 0.09945 0.0
C932 C 0.8277 0.79023 0.10086 0.0
C933 C 0.82649 0.77305 0.09333 0.0
C934 C 0.81107 0.76526 0.08434 0.0
C935 C 0.79709 0.77465 0.08294 0.0
C936 C 0.79891 0.79212 0.0904 0.0
H937 H 0.22768 0.81937 0.12939 0.0
H938 H 0.17414 0.82147 0.11493 0.0
H939 H 0.17612 0.79835 0.09003 0.0
H940 H 0.24455 0.81107 0.0835 0.0
H941 H 0.25892 0.79696 0.08958 0.0
H942 H 0.25359 0.81439 0.10553 0.0
H943 H 0.24252 0.79262 0.12779 0.0
H944 H 0.24765 0.77511 0.11187 0.0
H945 H 0.2257 0.77456 0.12108 0.0
H946 H 0.18289 0.77305 0.06888 0.0
H947 H 0.19466 0.74891 0.05133 0.0
H948 H 0.24467 0.76491 0.07805 0.0
C949 C 0.21644 0.81512 0.12084 0.0
C950 C 0.20074 0.82216 0.12408 0.0
C951 C 0.18633 0.81629 0.11262 0.0
C952 C 0.18731 0.80315 0.09848 0.0
C953 C 0.20289 0.79625 0.09586 0.0
C954 C 0.21729 0.80221 0.10654 0.0
C955 C 0.23236 0.7924 0.10108 0.0
C956 C 0.2483 0.80443 0.09453 0.0
C957 C 0.23734 0.78312 0.11637 0.0
C958 C 0.22401 0.77969 0.08596 0.0
C959 C 0.20701 0.78211 0.08317 0.0
C960 C 0.19632 0.77127 0.07065 0.0
C961 C 0.2032 0.75763 0.06065 0.0
C962 C 0.22073 0.75502 0.06306 0.0
C963 C 0.23122 0.76636 0.07587 0.0
H964 H 0.1866 0.80981 0.93649 0.0
H965 H 0.23602 0.83621 0.91751 0.0
H966 H 0.25222 0.81922 0.93452 0.0
H967 H 0.20111 0.80317 0.98096 0.0
H968 H 0.18863 0.78176 0.97976 0.0
H969 H 0.18097 0.79794 0.96865 0.0
H970 H 0.17998 0.77769 0.93882 0.0
H971 H 0.18758 0.76149 0.94983 0.0
H972 H 0.19949 0.76909 0.93074 0.0
H973 H 0.2629 0.79835 0.95201 0.0
H974 H 0.26754 0.77299 0.96591 0.0
H975 H 0.21101 0.75806 0.97096 0.0
C976 C 0.20084 0.8123 0.93637 0.0
C977 C 0.21016 0.82451 0.92605 0.0
C978 C 0.22873 0.82702 0.92554 0.0
C979 C 0.238 0.8175 0.93521 0.0
C980 C 0.22846 0.80534 0.94507 0.0
C981 C 0.21028 0.80256 0.94556 0.0
C982 C 0.2032 0.78724 0.95527 0.0
C983 C 0.19286 0.79287 0.97217 0.0
C984 C 0.1919 0.77304 0.94293 0.0
C985 C 0.22022 0.78164 0.95986 0.0
C986 C 0.23461 0.79252 0.95422 0.0
C987 C 0.25173 0.78973 0.95647 0.0
C988 C 0.25421 0.77519 0.96426 0.0
C989 C 0.23965 0.76335 0.96937 0.0
C990 C 0.22245 0.76692 0.96746 0.0
H991 H 0.19655 0.20579 0.91805 0.0
H992 H 0.19031 0.16238 0.9486 0.0
H993 H 0.2044 0.18131 0.97424 0.0
H994 H 0.23841 0.22472 0.93364 0.0
H995 H 0.23463 0.24671 0.93451 0.0
H996 H 0.22282 0.23013 0.91894 0.0
H997 H 0.1932 0.23819 0.93185 0.0
H998 H 0.20494 0.25493 0.94736 0.0
H999 H 0.18865 0.23857 0.9554 0.0
H1000 H 0.22063 0.20452 0.99602 0.0
H1001 H 0.23807 0.23043 0.01223 0.0
H1002 H 0.23303 0.25888 0.96784 0.0
C1003 C 0.19766 0.20037 0.93027 0.0
C1004 C 0.19206 0.18265 0.93139 0.0
C1005 C 0.19445 0.17594 0.94745 0.0
C1006 C 0.20239 0.18659 0.96212 0.0
C1007 C 0.2079 0.20396 0.96056 0.0
C1008 C 0.20561 0.21084 0.94507 0.0
C1009 C 0.2135 0.22976 0.94661 0.0
C1010 C 0.22822 0.23301 0.9326 0.0
C1011 C 0.19922 0.24103 0.94523 0.0
C1012 C 0.22081 0.23233 0.96524 0.0
C1013 C 0.21735 0.21733 0.9731 0.0
C1014 C 0.22328 0.21641 0.99008 0.0
C1015 C 0.23312 0.2312 0.99921 0.0
C1016 C 0.23698 0.24669 0.99133 0.0
C1017 C 0.23052 0.2472 0.97418 0.0
H1018 H 0.82202 0.2087 0.88268 0.0
H1019 H 0.8611 0.19674 0.91675 0.0
H1020 H 0.83837 0.19205 0.94039 0.0
H1021 H 0.80233 0.23341 0.91294 0.0
H1022 H 0.78008 0.22659 0.90545 0.0
H1023 H 0.79807 0.22469 0.89003 0.0
H1024 H 0.78692 0.19197 0.88229 0.0
H1025 H 0.76867 0.19379 0.89764 0.0
H1026 H 0.78311 0.17839 0.89984 0.0
H1027 H 0.81318 0.19559 0.96224 0.0
H1028 H 0.78802 0.20574 0.9794 0.0
H1029 H 0.76511 0.21367 0.93033 0.0
C1030 C 0.82559 0.20442 0.89488 0.0
C1031 C 0.84316 0.20297 0.89797 0.0
C1032 C 0.84758 0.19763 0.91411 0.0
C1033 C 0.83475 0.19496 0.92758 0.0
C1034 C 0.81759 0.19728 0.92442 0.0
C1035 C 0.81295 0.2015 0.90825 0.0
C1036 C 0.79432 0.20528 0.90872 0.0
C1037 C 0.79369 0.22357 0.90402 0.0
C1038 C 0.78256 0.19153 0.89639 0.0
C1039 C 0.7896 0.20384 0.92804 0.0
C1040 C 0.80298 0.19888 0.93688 0.0
C1041 C 0.8024 0.19894 0.95534 0.0
C1042 C 0.78807 0.2047 0.965 0.0
C1043 C 0.77467 0.21045 0.95614 0.0
C1044 C 0.77517 0.20928 0.9374 0.0
H1045 H 0.81275 0.82473 0.92092 0.0
H1046 H 0.86084 0.83335 0.95117 0.0
H1047 H 0.84449 0.8207 0.97616 0.0
H1048 H 0.78312 0.83374 0.95886 0.0
H1049 H 0.76569 0.81712 0.9501 0.0
H1050 H 0.78096 0.82802 0.93513 0.0
H1051 H 0.78843 0.79855 0.92046 0.0
H1052 H 0.7733 0.78758 0.93546 0.0
H1053 H 0.79592 0.78422 0.93415 0.0
H1054 H 0.82327 0.80528 0.99713 0.0
H1055 H 0.79865 0.78871 0.01251 0.0
H1056 H 0.76442 0.79085 0.96885 0.0
C1057 C 0.81981 0.82421 0.9329 0.0
C1058 C 0.83809 0.83007 0.93407 0.0
C1059 C 0.84683 0.82897 0.94994 0.0
C1060 C 0.83766 0.82182 0.96423 0.0
C1061 C 0.81972 0.81588 0.96252 0.0
C1062 C 0.81086 0.8171 0.9473 0.0
C1063 C 0.7917 0.80915 0.94856 0.0
C1064 C 0.77966 0.82283 0.94814 0.0
C1065 C 0.78708 0.79397 0.93379 0.0
C1066 C 0.79126 0.80299 0.96671 0.0
C1067 C 0.80751 0.80706 0.97461 0.0
C1068 C 0.81042 0.80218 0.99116 0.0
C1069 C 0.79634 0.79283 0.99983 0.0
C1070 C 0.77958 0.78842 0.99191 0.0
C1071 C 0.77709 0.79378 0.9752 0.0
H1072 H 0.11818 0.21384 0.19076 0.0
H1073 H 0.11595 0.16612 0.21391 0.0
H1074 H 0.08981 0.17272 0.23183 0.0
H1075 H 0.10734 0.23925 0.23 0.0
H1076 H 0.09449 0.2518 0.219 0.0
H1077 H 0.1121 0.24263 0.20713 0.0
H1078 H 0.09043 0.22717 0.1826 0.0
H1079 H 0.07272 0.23629 0.19444 0.0
H1080 H 0.07087 0.21326 0.18871 0.0
H1081 H 0.06478 0.1855 0.24844 0.0
H1082 H 0.04385 0.20377 0.263 0.0
H1083 H 0.06255 0.24281 0.22853 0.0
C1084 C 0.11212 0.20465 0.19944 0.0
C1085 C 0.11909 0.18942 0.20088 0.0
C1086 C 0.11082 0.17785 0.21255 0.0
C1087 C 0.09594 0.18147 0.22275 0.0
C1088 C 0.08949 0.19667 0.22107 0.0
C1089 C 0.09734 0.20806 0.2097 0.0
C1090 C 0.08844 0.22391 0.21092 0.0
C1091 C 0.10136 0.24036 0.21714 0.0
C1092 C 0.08012 0.22522 0.19311 0.0
C1093 C 0.07453 0.21983 0.225 0.0
C1094 C 0.0752 0.204 0.23059 0.0
C1095 C 0.06403 0.19783 0.24402 0.0
C1096 C 0.05209 0.20825 0.25214 0.0
C1097 C 0.0515 0.2247 0.24686 0.0
C1098 C 0.06271 0.23033 0.23289 0.0
H1099 H 0.83855 0.12938 0.22467 0.0
H1100 H 0.85783 0.09159 0.18529 0.0
H1101 H 0.84436 0.06829 0.20261 0.0
H1102 H 0.84526 0.10889 0.26319 0.0
H1103 H 0.82558 0.1145 0.27447 0.0
H1104 H 0.83705 0.1281 0.25909 0.0
H1105 H 0.80845 0.12525 0.24121 0.0
H1106 H 0.79692 0.11159 0.2565 0.0
H1107 H 0.79717 0.10409 0.23301 0.0
H1108 H 0.82825 0.04901 0.2243 0.0
H1109 H 0.81078 0.03557 0.24839 0.0
H1110 H 0.80261 0.08629 0.2733 0.0
C1111 C 0.84002 0.11623 0.21969 0.0
C1112 C 0.84926 0.11233 0.20362 0.0
C1113 C 0.85082 0.0949 0.19758 0.0
C1114 C 0.84321 0.08158 0.20732 0.0
C1115 C 0.83412 0.08589 0.22307 0.0
C1116 C 0.83252 0.10281 0.22921 0.0
C1117 C 0.82194 0.10405 0.2464 0.0
C1118 C 0.83313 0.1145 0.26169 0.0
C1119 C 0.80512 0.11169 0.24413 0.0
C1120 C 0.81772 0.08519 0.24894 0.0
C1121 C 0.82487 0.07488 0.23541 0.0
C1122 C 0.82262 0.05698 0.23498 0.0
C1123 C 0.81274 0.04946 0.24873 0.0
C1124 C 0.80521 0.05985 0.26264 0.0
C1125 C 0.8079 0.07794 0.2627 0.0
H1126 H 0.93092 0.81151 0.2113 0.0
H1127 H 0.96604 0.843 0.17809 0.0
H1128 H 0.99107 0.83016 0.18714 0.0
H1129 H 0.95995 0.81458 0.24709 0.0
H1130 H 0.9531 0.79266 0.25159 0.0
H1131 H 0.93798 0.80381 0.24185 0.0
H1132 H 0.9333 0.77931 0.21543 0.0
H1133 H 0.94839 0.76807 0.22511 0.0
H1134 H 0.95205 0.77329 0.20267 0.0
H1135 H 0.01264 0.81462 0.20126 0.0
H1136 H 0.02843 0.79792 0.21909 0.0
H1137 H 0.97864 0.77607 0.24177 0.0
C1138 C 0.94384 0.81566 0.20583 0.0
C1139 C 0.9465 0.82828 0.19399 0.0
C1140 C 0.96366 0.83332 0.18716 0.0
C1141 C 0.97797 0.8261 0.19221 0.0
C1142 C 0.97488 0.81375 0.204 0.0
C1143 C 0.9582 0.80853 0.21063 0.0
C1144 C 0.95835 0.79532 0.22336 0.0
C1145 C 0.95197 0.802 0.24208 0.0
C1146 C 0.94737 0.77797 0.21621 0.0
C1147 C 0.97774 0.79411 0.22312 0.0
C1148 C 0.98713 0.80476 0.21186 0.0
C1149 C 0.00538 0.80613 0.21 0.0
C1150 C 0.01424 0.79654 0.22011 0.0
C1151 C 0.00484 0.78577 0.23195 0.0
C1152 C 0.98631 0.78439 0.2331 0.0
H1153 H 0.26047 0.90387 0.18969 0.0
H1154 H 0.21121 0.91747 0.17455 0.0
H1155 H 0.21937 0.94658 0.19034 0.0
H1156 H 0.26042 0.92012 0.23057 0.0
H1157 H 0.28328 0.92917 0.23348 0.0
H1158 H 0.27709 0.91171 0.21625 0.0
H1159 H 0.29253 0.92977 0.19238 0.0
H1160 H 0.29927 0.94728 0.20966 0.0
H1161 H 0.28721 0.95091 0.19091 0.0
H1162 H 0.22696 0.96848 0.21566 0.0
H1163 H 0.23574 0.98389 0.24443 0.0
H1164 H 0.28314 0.95996 0.24109 0.0
C1165 C 0.25185 0.91328 0.18888 0.0
C1166 C 0.23513 0.90832 0.18106 0.0
C1167 C 0.22408 0.9209 0.18047 0.0
C1168 C 0.22862 0.93755 0.1894 0.0
C1169 C 0.2445 0.94159 0.19837 0.0
C1170 C 0.25633 0.93006 0.1976 0.0
C1171 C 0.27127 0.93672 0.21043 0.0
C1172 C 0.27309 0.92365 0.22344 0.0
C1173 C 0.2886 0.94146 0.20023 0.0
C1174 C 0.26491 0.95272 0.21989 0.0
C1175 C 0.24962 0.95544 0.21251 0.0
C1176 C 0.23944 0.96715 0.22101 0.0
C1177 C 0.24474 0.97603 0.23759 0.0
C1178 C 0.26046 0.9736 0.24557 0.0
C1179 C 0.27096 0.96225 0.23595 0.0
H1180 H 0.12236 0.84538 0.78573 0.0
H1181 H 0.10036 0.86078 0.83779 0.0
H1182 H 0.07306 0.84071 0.83027 0.0
H1183 H 0.0793 0.83808 0.76111 0.0
H1184 H 0.08551 0.81983 0.74695 0.0
H1185 H 0.10209 0.83757 0.75517 0.0
H1186 H 0.11877 0.81628 0.76839 0.0
H1187 H 0.10221 0.79856 0.7604 0.0
H1188 H 0.10745 0.80248 0.78372 0.0
H1189 H 0.05106 0.81522 0.81971 0.0
H1190 H 0.03498 0.78767 0.8061 0.0
H1191 H 0.06941 0.79026 0.75941 0.0
C1192 C 0.1116 0.84493 0.79534 0.0
C1193 C 0.11355 0.85466 0.81236 0.0
C1194 C 0.09921 0.85353 0.82464 0.0
C1195 C 0.0836 0.84216 0.82048 0.0
C1196 C 0.08237 0.83226 0.80386 0.0
C1197 C 0.09584 0.83377 0.79132 0.0
C1198 C 0.09173 0.82062 0.77503 0.0
C1199 C 0.08952 0.82956 0.75859 0.0
C1200 C 0.10588 0.80879 0.77171 0.0
C1201 C 0.07436 0.81086 0.78082 0.0
C1202 C 0.06912 0.81789 0.79741 0.0
C1203 C 0.05467 0.80992 0.80644 0.0
C1204 C 0.0455 0.79423 0.79846 0.0
C1205 C 0.05066 0.78663 0.78147 0.0
C1206 C 0.06503 0.79549 0.77241 0.0
H1207 H 0.20874 0.10395 0.84353 0.0
H1208 H 0.21248 0.09066 0.89692 0.0
H1209 H 0.23372 0.07123 0.88596 0.0
H1210 H 0.21039 0.06085 0.8211 0.0
H1211 H 0.22293 0.0684 0.80232 0.0
H1212 H 0.20825 0.08147 0.81444 0.0
H1213 H 0.23398 0.1069 0.81978 0.0
H1214 H 0.24874 0.09389 0.80773 0.0
H1215 H 0.25367 0.10367 0.83018 0.0
H1216 H 0.25582 0.05468 0.86951 0.0
H1217 H 0.27556 0.04039 0.84849 0.0
H1218 H 0.25502 0.06201 0.80512 0.0
C1219 C 0.21407 0.09696 0.8529 0.0
C1220 C 0.20909 0.09888 0.87109 0.0
C1221 C 0.21613 0.08936 0.88293 0.0
C1222 C 0.22822 0.07833 0.87683 0.0
C1223 C 0.23288 0.07676 0.85882 0.0
C1224 C 0.22587 0.08563 0.84698 0.0
C1225 C 0.23271 0.08125 0.82821 0.0
C1226 C 0.21767 0.07247 0.81579 0.0
C1227 C 0.24288 0.09739 0.82106 0.0
C1228 C 0.24489 0.06874 0.83142 0.0
C1229 C 0.24489 0.06644 0.84917 0.0
C1230 C 0.25568 0.05611 0.8555 0.0
C1231 C 0.26676 0.04788 0.84335 0.0
C1232 C 0.26679 0.04974 0.82494 0.0
C1233 C 0.25555 0.06031 0.81903 0.0
H1234 H 0.93487 0.23126 0.84197 0.0
H1235 H 0.92726 0.2687 0.88745 0.0
H1236 H 0.95839 0.2819 0.88532 0.0
H1237 H 0.98409 0.23004 0.84881 0.0
H1238 H 0.98797 0.22877 0.8251 0.0
H1239 H 0.9673 0.21872 0.83375 0.0
H1240 H 0.95072 0.23592 0.81489 0.0
H1241 H 0.9712 0.246 0.8063 0.0
H1242 H 0.95598 0.25914 0.81734 0.0
H1243 H 0.98727 0.29513 0.87414 0.0
H1244 H 0.01015 0.308 0.85402 0.0
H1245 H -0.00107 0.26272 0.81515 0.0
C1246 C 0.94001 0.24169 0.85202 0.0
C1247 C 0.92877 0.24885 0.86499 0.0
C1248 C 0.93573 0.26293 0.8775 0.0
C1249 C 0.95343 0.27043 0.87646 0.0
C1250 C 0.96399 0.26369 0.86284 0.0
C1251 C 0.95754 0.24951 0.85089 0.0
C1252 C 0.97023 0.24684 0.83544 0.0
C1253 C 0.97785 0.23009 0.83581 0.0
C1254 C 0.96151 0.24701 0.81746 0.0
C1255 C 0.98413 0.26249 0.83979 0.0
C1256 C 0.98069 0.27168 0.856 0.0
C1257 C 0.99041 0.28779 0.8617 0.0
C1258 C 0.0034 0.29501 0.85022 0.0
C1259 C 0.00626 0.28624 0.83316 0.0
C1260 C -0.00292 0.26949 0.82828 0.0
H1261 H 0.82346 0.90757 0.84146 0.0
H1262 H 0.8457 0.88157 0.79415 0.0
H1263 H 0.83604 0.90211 0.77604 0.0
H1264 H 0.78491 0.9131 0.82053 0.0
H1265 H 0.78304 0.93378 0.83292 0.0
H1266 H 0.79378 0.91866 0.84259 0.0
H1267 H 0.82165 0.94169 0.84768 0.0
H1268 H 0.81099 0.95687 0.83794 0.0
H1269 H 0.83186 0.95184 0.82912 0.0
H1270 H 0.82323 0.92459 0.76294 0.0
H1271 H 0.80524 0.94539 0.75487 0.0
H1272 H 0.78867 0.9553 0.81015 0.0
C1273 C 0.82659 0.90649 0.82735 0.0
C1274 C 0.83557 0.8932 0.81918 0.0
C1275 C 0.83895 0.89176 0.80062 0.0
C1276 C 0.8336 0.90341 0.79027 0.0
C1277 C 0.82462 0.91627 0.79865 0.0
C1278 C 0.82092 0.91776 0.81672 0.0
C1279 C 0.80944 0.93157 0.82202 0.0
C1280 C 0.79174 0.92381 0.82998 0.0
C1281 C 0.81907 0.94637 0.83496 0.0
C1282 C 0.80707 0.93741 0.80406 0.0
C1283 C 0.81627 0.92864 0.79087 0.0
C1284 C 0.81592 0.93149 0.77315 0.0
C1285 C 0.80555 0.94327 0.76869 0.0
C1286 C 0.7953 0.95188 0.7818 0.0
C1287 C 0.79644 0.94912 0.79981 0.0
H1288 H 0.21792 0.12925 0.2334 0.0
H1289 H 0.21005 0.09293 0.18522 0.0
H1290 H 0.2222 0.07139 0.19996 0.0
H1291 H 0.25873 0.11741 0.24631 0.0
H1292 H 0.25325 0.11985 0.26974 0.0
H1293 H 0.24453 0.1326 0.25517 0.0
H1294 H 0.21289 0.12129 0.26559 0.0
H1295 H 0.22151 0.10851 0.28018 0.0
H1296 H 0.20544 0.09836 0.26383 0.0
H1297 H 0.23492 0.05358 0.22026 0.0
H1298 H 0.24693 0.04097 0.24447 0.0
H1299 H 0.24532 0.08863 0.27961 0.0
C1300 C 0.21888 0.11682 0.22588 0.0
C1301 C 0.21309 0.11282 0.2081 0.0
C1302 C 0.21442 0.09632 0.19883 0.0
C1303 C 0.22131 0.08399 0.20709 0.0
C1304 C 0.22678 0.08831 0.22466 0.0
C1305 C 0.22561 0.10432 0.23395 0.0
C1306 C 0.23194 0.10557 0.25285 0.0
C1307 C 0.24807 0.1197 0.25621 0.0
C1308 C 0.21705 0.10861 0.26641 0.0
C1309 C 0.23682 0.08776 0.25276 0.0
C1310 C 0.23382 0.078 0.23637 0.0
C1311 C 0.23729 0.0611 0.23315 0.0
C1312 C 0.24401 0.05401 0.24704 0.0
C1313 C 0.24714 0.06376 0.264 0.0
C1314 C 0.24341 0.08087 0.26677 0.0
H1315 H 0.18926 0.89395 0.84115 0.0
H1316 H 0.20664 0.91172 0.8951 0.0
H1317 H 0.22452 0.93744 0.88475 0.0
H1318 H 0.22886 0.90359 0.82114 0.0
H1319 H 0.22122 0.91048 0.80144 0.0
H1320 H 0.20687 0.89557 0.81341 0.0
H1321 H 0.18356 0.91605 0.8168 0.0
H1322 H 0.19782 0.93103 0.80466 0.0
H1323 H 0.18964 0.93815 0.8265 0.0
H1324 H 0.24412 0.95816 0.86815 0.0
H1325 H 0.26445 0.97192 0.84662 0.0
H1326 H 0.23389 0.94161 0.80314 0.0
C1327 C 0.19615 0.90366 0.8509 0.0
C1328 C 0.19626 0.90105 0.86899 0.0
C1329 C 0.20622 0.9136 0.88122 0.0
C1330 C 0.21635 0.92828 0.87547 0.0
C1331 C 0.21636 0.93026 0.85745 0.0
C1332 C 0.20643 0.91835 0.84534 0.0
C1333 C 0.21054 0.9223 0.82644 0.0
C1334 C 0.21728 0.90708 0.81495 0.0
C1335 C 0.19443 0.92718 0.81811 0.0
C1336 C 0.22495 0.93775 0.82976 0.0
C1337 C 0.22785 0.94233 0.84776 0.0
C1338 C 0.24167 0.95501 0.85404 0.0
C1339 C 0.25313 0.96287 0.84163 0.0
C1340 C 0.25078 0.95802 0.82308 0.0
C1341 C 0.23609 0.94567 0.81719 0.0
H1342 H 0.15208 0.24107 0.86726 0.0
H1343 H 0.10742 0.22645 0.90175 0.0
H1344 H 0.08971 0.24323 0.88638 0.0
H1345 H 0.14373 0.28487 0.8644 0.0
H1346 H 0.15053 0.28431 0.84134 0.0
H1347 H 0.16004 0.27188 0.85568 0.0
H1348 H 0.15068 0.24418 0.83382 0.0
H1349 H 0.14105 0.25649 0.81949 0.0
H1350 H 0.12792 0.23812 0.82775 0.0
H1351 H 0.07631 0.26022 0.86632 0.0
H1352 H 0.06831 0.27685 0.84333 0.0
H1353 H 0.12176 0.28109 0.82216 0.0
C1354 C 0.13864 0.24156 0.87173 0.0
C1355 C 0.13116 0.23243 0.88575 0.0
C1356 C 0.11347 0.23332 0.89107 0.0
C1357 C 0.10328 0.24283 0.88242 0.0
C1358 C 0.11096 0.25145 0.8685 0.0
C1359 C 0.12825 0.251 0.86323 0.0
C1360 C 0.13314 0.26105 0.84755 0.0
C1361 C 0.14772 0.27644 0.85255 0.0
C1362 C 0.13851 0.24925 0.83119 0.0
C1363 C 0.11583 0.26702 0.8447 0.0
C1364 C 0.10324 0.26138 0.85697 0.0
C1365 C 0.08611 0.26489 0.85677 0.0
C1366 C 0.08173 0.27444 0.8437 0.0
C1367 C 0.09441 0.28044 0.83097 0.0
C1368 C 0.1117 0.27664 0.83158 0.0
H1369 H 0.81693 0.1367 0.85366 0.0
H1370 H 0.86379 0.11703 0.86647 0.0
H1371 H 0.85309 0.08923 0.84831 0.0
H1372 H 0.78661 0.09681 0.85436 0.0
H1373 H 0.77413 0.10078 0.83607 0.0
H1374 H 0.78529 0.11863 0.85071 0.0
H1375 H 0.8016 0.13107 0.82354 0.0
H1376 H 0.79063 0.11316 0.80884 0.0
H1377 H 0.81431 0.11783 0.80879 0.0
H1378 H 0.83732 0.06375 0.82764 0.0
H1379 H 0.8177 0.04296 0.80697 0.0
H1380 H 0.78164 0.08 0.80841 0.0
C1381 C 0.82492 0.12652 0.85282 0.0
C1382 C 0.84119 0.12903 0.8615 0.0
C1383 C 0.85124 0.11537 0.85997 0.0
C1384 C 0.84529 0.09956 0.84966 0.0
C1385 C 0.82927 0.09764 0.84105 0.0
C1386 C 0.81922 0.11077 0.84263 0.0
C1387 C 0.80267 0.10572 0.83185 0.0
C1388 C 0.7862 0.10547 0.84398 0.0
C1389 C 0.8023 0.11765 0.8174 0.0
C1390 C 0.80502 0.08774 0.82378 0.0
C1391 C 0.82038 0.08322 0.82923 0.0
C1392 C 0.82523 0.06716 0.82334 0.0
C1393 C 0.81403 0.05544 0.81164 0.0
C1394 C 0.79825 0.05993 0.80592 0.0
C1395 C 0.79378 0.07629 0.8122 0.0
H1396 H 0.89587 0.82969 0.81522 0.0
H1397 H 0.9115 0.82807 0.86939 0.0
H1398 H 0.93494 0.81157 0.85801 0.0
H1399 H 0.90052 0.78773 0.79928 0.0
H1400 H 0.90909 0.79194 0.77756 0.0
H1401 H 0.8952 0.80587 0.78958 0.0
H1402 H 0.91928 0.83236 0.78706 0.0
H1403 H 0.93322 0.81851 0.77486 0.0
H1404 H 0.94113 0.83223 0.79472 0.0
H1405 H 0.95376 0.79196 0.84132 0.0
H1406 H 0.96736 0.77135 0.8204 0.0
H1407 H 0.94089 0.78648 0.7766 0.0
C1408 C 0.90455 0.82631 0.82466 0.0
C1409 C 0.90185 0.83027 0.84321 0.0
C1410 C 0.91328 0.82524 0.85512 0.0
C1411 C 0.92669 0.81588 0.84879 0.0
C1412 C 0.92865 0.81171 0.83048 0.0
C1413 C 0.91804 0.8169 0.81855 0.0
C1414 C 0.92207 0.80954 0.79961 0.0
C1415 C 0.90575 0.79809 0.79101 0.0
C1416 C 0.92936 0.82403 0.7884 0.0
C1417 C 0.93612 0.79893 0.80287 0.0
C1418 C 0.93982 0.80051 0.82076 0.0
C1419 C 0.95131 0.79093 0.82722 0.0
C1420 C 0.9591 0.7793 0.81513 0.0
C1421 C 0.95547 0.7773 0.79668 0.0
C1422 C 0.944 0.78757 0.79056 0.0
H1423 H 0.84041 0.90743 0.21227 0.0
H1424 H 0.89295 0.92868 0.23096 0.0
H1425 H 0.88071 0.95093 0.2514 0.0
H1426 H 0.82448 0.94829 0.21358 0.0
H1427 H 0.80269 0.93982 0.22095 0.0
H1428 H 0.81566 0.92587 0.20749 0.0
H1429 H 0.81198 0.90503 0.23158 0.0
H1430 H 0.799 0.91891 0.24509 0.0
H1431 H 0.81829 0.91322 0.25414 0.0
H1432 H 0.86251 0.97016 0.27066 0.0
H1433 H 0.83988 0.98473 0.28735 0.0
H1434 H 0.79936 0.95156 0.25517 0.0
C1435 C 0.84939 0.91678 0.2206 0.0
C1436 C 0.86767 0.91628 0.22 0.0
C1437 C 0.87892 0.92879 0.23116 0.0
C1438 C 0.87208 0.9415 0.2428 0.0
C1439 C 0.854 0.94159 0.24306 0.0
C1440 C 0.84281 0.92958 0.23222 0.0
C1441 C 0.82386 0.9323 0.23526 0.0
C1442 C 0.81623 0.93684 0.21831 0.0
C1443 C 0.81263 0.91642 0.24191 0.0
C1444 C 0.82609 0.94759 0.24967 0.0
C1445 C 0.84357 0.95279 0.25395 0.0
C1446 C 0.8488 0.96632 0.26728 0.0
C1447 C 0.83582 0.97462 0.27659 0.0
C1448 C 0.81777 0.96944 0.27254 0.0
C1449 C 0.81298 0.95582 0.25872 0.0
H1450 H 0.17175 0.81638 0.19962 0.0
H1451 H 0.18656 0.85263 0.24669 0.0
H1452 H 0.16068 0.83928 0.26288 0.0
H1453 H 0.12458 0.81544 0.20525 0.0
H1454 H 0.11941 0.79275 0.1974 0.0
H1455 H 0.13891 0.80539 0.18928 0.0
H1456 H 0.15803 0.78433 0.19931 0.0
H1457 H 0.1386 0.77156 0.20731 0.0
H1458 H 0.15663 0.77985 0.2221 0.0
H1459 H 0.13427 0.82104 0.27448 0.0
H1460 H 0.10896 0.79896 0.28062 0.0
H1461 H 0.11054 0.77542 0.22578 0.0
C1462 C 0.16955 0.82151 0.21333 0.0
C1463 C 0.1812 0.83552 0.22192 0.0
C1464 C 0.17781 0.84192 0.23984 0.0
C1465 C 0.16312 0.83445 0.24914 0.0
C1466 C 0.15186 0.82072 0.24028 0.0
C1467 C 0.15485 0.81432 0.22277 0.0
C1468 C 0.14087 0.79924 0.21645 0.0
C1469 C 0.13032 0.80347 0.20119 0.0
C1470 C 0.14902 0.78278 0.21098 0.0
C1471 C 0.12973 0.79797 0.23325 0.0
C1472 C 0.13628 0.81051 0.24682 0.0
C1473 C 0.12886 0.81131 0.2639 0.0
C1474 C 0.11453 0.79878 0.26727 0.0
C1475 C 0.10774 0.78577 0.25358 0.0
C1476 C 0.11526 0.78554 0.23631 0.0
H1477 H 0.90217 0.2111 0.16608 0.0
H1478 H 0.90288 0.15751 0.17238 0.0
H1479 H 0.91612 0.16641 0.20185 0.0
H1480 H 0.94388 0.2269 0.18467 0.0
H1481 H 0.93802 0.24687 0.19558 0.0
H1482 H 0.92677 0.2363 0.17579 0.0
H1483 H 0.89687 0.2359 0.19264 0.0
H1484 H 0.90805 0.2465 0.21251 0.0
H1485 H 0.89355 0.2263 0.21307 0.0
H1486 H 0.93112 0.18095 0.22949 0.0
H1487 H 0.94736 0.20032 0.25359 0.0
H1488 H 0.93798 0.24478 0.22942 0.0
C1489 C 0.90486 0.20125 0.17381 0.0
C1490 C 0.90084 0.18354 0.1672 0.0
C1491 C 0.90494 0.17105 0.17751 0.0
C1492 C 0.91271 0.17601 0.1942 0.0
C1493 C 0.91642 0.19354 0.20035 0.0
C1494 C 0.91267 0.20599 0.19051 0.0
C1495 C 0.91898 0.22398 0.19979 0.0
C1496 C 0.93273 0.2341 0.18827 0.0
C1497 C 0.90343 0.23374 0.2048 0.0
C1498 C 0.92718 0.21966 0.2162 0.0
C1499 C 0.92543 0.20201 0.21628 0.0
C1500 C 0.9325 0.19479 0.22964 0.0
C1501 C 0.94178 0.20589 0.2432 0.0
C1502 C 0.94398 0.22402 0.2433 0.0
C1503 C 0.93634 0.23098 0.22974 0.0
H1504 H 0.23423 0.67523 0.63437 0.0
H1505 H 0.19644 0.71023 0.64847 0.0
H1506 H 0.21245 0.73053 0.62931 0.0
H1507 H 0.27196 0.7072 0.63411 0.0
H1508 H 0.28249 0.69641 0.61526 0.0
H1509 H 0.26752 0.68402 0.62928 0.0
H1510 H 0.24896 0.67012 0.60179 0.0
H1511 H 0.26389 0.6825 0.58767 0.0
H1512 H 0.24073 0.68377 0.58783 0.0
H1513 H 0.23368 0.74819 0.61072 0.0
H1514 H 0.25846 0.76151 0.59286 0.0
H1515 H 0.28192 0.71492 0.58958 0.0
C1516 C 0.22922 0.68708 0.63329 0.0
C1517 C 0.21404 0.69108 0.64298 0.0
C1518 C 0.20799 0.70678 0.6412 0.0
C1519 C 0.21699 0.71844 0.63032 0.0
C1520 C 0.23196 0.71419 0.62111 0.0
C1521 C 0.23799 0.69885 0.62234 0.0
C1522 C 0.25472 0.69771 0.61136 0.0
C1523 C 0.27008 0.69626 0.62321 0.0
C1524 C 0.2519 0.68263 0.59627 0.0
C1525 C 0.2573 0.71495 0.60411 0.0
C1526 C 0.24399 0.72424 0.6099 0.0
C1527 C 0.24403 0.74094 0.60587 0.0
C1528 C 0.25813 0.74842 0.59577 0.0
C1529 C 0.27188 0.73913 0.58969 0.0
C1530 C 0.27133 0.72212 0.59375 0.0
H1531 H 0.84661 0.70401 0.60754 0.0
H1532 H 0.87942 0.68798 0.56271 0.0
H1533 H 0.8674 0.70722 0.5447 0.0
H1534 H 0.80869 0.70841 0.58267 0.0
H1535 H 0.80428 0.72746 0.59674 0.0
H1536 H 0.81468 0.71171 0.60579 0.0
H1537 H 0.8407 0.73543 0.61645 0.0
H1538 H 0.83033 0.75125 0.60753 0.0
H1539 H 0.85242 0.74841 0.60062 0.0
H1540 H 0.85152 0.72792 0.53154 0.0
H1541 H 0.83496 0.75046 0.52487 0.0
H1542 H 0.81444 0.75471 0.5792 0.0
C1543 C 0.85114 0.70445 0.59389 0.0
C1544 C 0.86383 0.69443 0.58644 0.0
C1545 C 0.8697 0.69556 0.56864 0.0
C1546 C 0.86289 0.70638 0.5583 0.0
C1547 C 0.8504 0.71611 0.56604 0.0
C1548 C 0.84473 0.7154 0.58349 0.0
C1549 C 0.83197 0.72791 0.58893 0.0
C1550 C 0.81383 0.71829 0.59382 0.0
C1551 C 0.8393 0.74156 0.60429 0.0
C1552 C 0.83136 0.73577 0.57182 0.0
C1553 C 0.8419 0.72863 0.55872 0.0
C1554 C 0.84335 0.73373 0.54175 0.0
C1555 C 0.83398 0.74666 0.53814 0.0
C1556 C 0.82349 0.75459 0.55154 0.0
C1557 C 0.82212 0.74887 0.56855 0.0
H1558 H 0.85248 0.31701 0.66531 0.0
H1559 H 0.90129 0.32928 0.63604 0.0
H1560 H 0.88898 0.30938 0.60992 0.0
H1561 H 0.84202 0.27253 0.64818 0.0
H1562 H 0.81878 0.27286 0.64674 0.0
H1563 H 0.83163 0.28767 0.66314 0.0
H1564 H 0.82114 0.31341 0.65094 0.0
H1565 H 0.80824 0.29865 0.63451 0.0
H1566 H 0.82431 0.31582 0.62765 0.0
H1567 H 0.87191 0.28645 0.58803 0.0
H1568 H 0.85089 0.26444 0.57091 0.0
H1569 H 0.81161 0.27056 0.61304 0.0
C1570 C 0.86058 0.31542 0.65341 0.0
C1571 C 0.8779 0.32442 0.65267 0.0
C1572 C 0.88802 0.32238 0.63681 0.0
C1573 C 0.88114 0.31112 0.62197 0.0
C1574 C 0.86399 0.3024 0.62312 0.0
C1575 C 0.85375 0.30466 0.63834 0.0
C1576 C 0.83549 0.29432 0.63591 0.0
C1577 C 0.83177 0.28106 0.64929 0.0
C1578 C 0.82147 0.30627 0.63733 0.0
C1579 C 0.83718 0.28557 0.61708 0.0
C1580 C 0.85375 0.29027 0.61001 0.0
C1581 C 0.85875 0.28299 0.59326 0.0
C1582 C 0.84652 0.27057 0.58351 0.0
C1583 C 0.82924 0.26572 0.5903 0.0
C1584 C 0.82461 0.27364 0.60731 0.0
H1585 H 0.21841 0.3441 0.58142 0.0
H1586 H 0.22684 0.33373 0.6351 0.0
H1587 H 0.25398 0.32235 0.62487 0.0
H1588 H 0.23399 0.30545 0.55899 0.0
H1589 H 0.24399 0.31622 0.54073 0.0
H1590 H 0.22504 0.32327 0.55223 0.0
H1591 H 0.24238 0.35424 0.55854 0.0
H1592 H 0.26141 0.34722 0.5472 0.0
H1593 H 0.26308 0.3576 0.56983 0.0
H1594 H 0.2812 0.31428 0.60945 0.0
H1595 H 0.3055 0.30738 0.5893 0.0
H1596 H 0.27822 0.32054 0.54494 0.0
C1597 C 0.22592 0.33933 0.59099 0.0
C1598 C 0.22057 0.33984 0.60907 0.0
C1599 C 0.23067 0.3334 0.62117 0.0
C1600 C 0.24613 0.32697 0.6155 0.0
C1601 C 0.25116 0.32684 0.59765 0.0
C1602 C 0.24125 0.3326 0.5855 0.0
C1603 C 0.24954 0.33084 0.56703 0.0
C1604 C 0.23742 0.31819 0.55398 0.0
C1605 C 0.25439 0.34853 0.56026 0.0
C1606 C 0.2658 0.32347 0.57079 0.0
C1607 C 0.26651 0.32138 0.58856 0.0
C1608 C 0.28063 0.31552 0.59542 0.0
C1609 C 0.29433 0.31149 0.58379 0.0
C1610 C 0.29374 0.31306 0.56537 0.0
C1611 C 0.27921 0.31921 0.5589 0.0
H1612 H 0.23632 0.3409 0.40773 0.0
H1613 H 0.20485 0.35839 0.45302 0.0
H1614 H 0.2245 0.34842 0.47329 0.0
H1615 H 0.24714 0.30313 0.42391 0.0
H1616 H 0.26935 0.30612 0.4152 0.0
H1617 H 0.25229 0.31382 0.40432 0.0
H1618 H 0.27042 0.34459 0.40737 0.0
H1619 H 0.28757 0.33694 0.41813 0.0
H1620 H 0.2778 0.35484 0.42903 0.0
H1621 H 0.24748 0.33568 0.48844 0.0
H1622 H 0.27316 0.32392 0.49742 0.0
H1623 H 0.29084 0.3178 0.44213 0.0
C1624 C 0.2335 0.34252 0.42191 0.0
C1625 C 0.21901 0.35025 0.42884 0.0
C1626 C 0.21591 0.35246 0.44747 0.0
C1627 C 0.22694 0.34678 0.45906 0.0
C1628 C 0.24113 0.33916 0.45178 0.0
C1629 C 0.24455 0.33727 0.43365 0.0
C1630 C 0.26118 0.32961 0.42923 0.0
C1631 C 0.25725 0.31213 0.41747 0.0
C1632 C 0.27506 0.34225 0.42043 0.0
C1633 C 0.26656 0.3274 0.44769 0.0
C1634 C 0.25475 0.33275 0.46052 0.0
C1635 C 0.25691 0.33162 0.4785 0.0
C1636 C 0.27164 0.32502 0.48348 0.0
C1637 C 0.2842 0.31987 0.47056 0.0
C1638 C 0.28145 0.32116 0.45243 0.0
H1639 H 0.21209 0.71153 0.42496 0.0
H1640 H 0.22241 0.65887 0.42197 0.0
H1641 H 0.24326 0.66769 0.44664 0.0
H1642 H 0.25595 0.73159 0.43265 0.0
H1643 H 0.25031 0.7495 0.44775 0.0
H1644 H 0.23512 0.73881 0.43086 0.0
H1645 H 0.21099 0.73313 0.45506 0.0
H1646 H 0.22615 0.74381 0.47205 0.0
H1647 H 0.21533 0.72206 0.4734 0.0
H1648 H 0.26419 0.68248 0.47055 0.0
H1649 H 0.28456 0.70241 0.49094 0.0
H1650 H 0.26055 0.7454 0.47854 0.0
C1651 C 0.21856 0.7018 0.42963 0.0
C1652 C 0.21553 0.68448 0.42155 0.0
C1653 C 0.22448 0.67221 0.42793 0.0
C1654 C 0.23631 0.67708 0.44199 0.0
C1655 C 0.23908 0.69427 0.44957 0.0
C1656 C 0.2305 0.70646 0.4436 0.0
C1657 C 0.23657 0.72426 0.45337 0.0
C1658 C 0.24499 0.73677 0.44038 0.0
C1659 C 0.22135 0.73122 0.46411 0.0
C1660 C 0.25013 0.72021 0.46552 0.0
C1661 C 0.25124 0.70282 0.46328 0.0
C1662 C 0.26331 0.69611 0.47257 0.0
C1663 C 0.27475 0.70752 0.48422 0.0
C1664 C 0.27413 0.72547 0.48643 0.0
C1665 C 0.2614 0.73176 0.47712 0.0
H1666 H 0.86461 0.73559 0.39727 0.0
H1667 H 0.85054 0.68935 0.42305 0.0
H1668 H 0.83191 0.70479 0.44478 0.0
H1669 H 0.86856 0.76526 0.43569 0.0
H1670 H 0.85931 0.78162 0.42638 0.0
H1671 H 0.87018 0.76647 0.41207 0.0
H1672 H 0.84221 0.75751 0.39294 0.0
H1673 H 0.83124 0.77268 0.40722 0.0
H1674 H 0.82148 0.75027 0.40348 0.0
H1675 H 0.81764 0.72635 0.46558 0.0
H1676 H 0.80765 0.75188 0.4829 0.0
H1677 H 0.83002 0.78351 0.44259 0.0
C1678 C 0.85743 0.72865 0.40737 0.0
C1679 C 0.85889 0.71126 0.40846 0.0
C1680 C 0.84934 0.70259 0.42182 0.0
C1681 C 0.8388 0.71128 0.43424 0.0
C1682 C 0.83779 0.72852 0.43289 0.0
C1683 C 0.8467 0.73703 0.41965 0.0
C1684 C 0.84396 0.7557 0.42141 0.0
C1685 C 0.86155 0.76798 0.42405 0.0
C1686 C 0.83413 0.75924 0.4053 0.0
C1687 C 0.83258 0.75656 0.43809 0.0
C1688 C 0.82911 0.74074 0.4445 0.0
C1689 C 0.81998 0.7387 0.4605 0.0
C1690 C 0.81441 0.75323 0.47025 0.0
C1691 C 0.81788 0.76951 0.46388 0.0
C1692 C 0.82684 0.7711 0.44749 0.0
H1693 H 0.81073 0.32678 0.43075 0.0
H1694 H 0.86738 0.33214 0.43548 0.0
H1695 H 0.86341 0.31522 0.46085 0.0
H1696 H 0.80056 0.32831 0.47982 0.0
H1697 H 0.78093 0.31265 0.47603 0.0
H1698 H 0.78818 0.32721 0.45985 0.0
H1699 H 0.78827 0.30112 0.43537 0.0
H1700 H 0.78116 0.28652 0.45145 0.0
H1701 H 0.80098 0.28451 0.4385 0.0
H1702 H 0.85345 0.29375 0.48208 0.0
H1703 H 0.83829 0.27075 0.49854 0.0
H1704 H 0.78795 0.28145 0.48245 0.0
C1705 C 0.8223 0.32478 0.4374 0.0
C1706 C 0.83937 0.33081 0.43108 0.0
C1707 C 0.85416 0.32774 0.44008 0.0
C1708 C 0.85205 0.31815 0.45455 0.0
C1709 C 0.83506 0.31196 0.46012 0.0
C1710 C 0.82043 0.31539 0.45203 0.0
C1711 C 0.80365 0.30629 0.45984 0.0
C1712 C 0.79268 0.3194 0.46946 0.0
C1713 C 0.7929 0.29388 0.44543 0.0
C1714 C 0.81118 0.29655 0.47294 0.0
C1715 C 0.82931 0.30009 0.473 0.0
C1716 C 0.83923 0.29125 0.48257 0.0
C1717 C 0.83042 0.27822 0.49204 0.0
C1718 C 0.81179 0.27416 0.49202 0.0
C1719 C 0.80216 0.28398 0.48274 0.0
H1720 H 0.12615 0.71659 0.69696 0.0
H1721 H 0.12095 0.66809 0.71915 0.0
H1722 H 0.09452 0.6753 0.7362 0.0
H1723 H 0.11431 0.74184 0.73623 0.0
H1724 H 0.1026 0.75505 0.72479 0.0
H1725 H 0.12042 0.74556 0.71369 0.0
H1726 H 0.09975 0.73111 0.68793 0.0
H1727 H 0.08184 0.74055 0.69898 0.0
H1728 H 0.07952 0.71753 0.69285 0.0
H1729 H 0.0692 0.68859 0.75178 0.0
H1730 H 0.04798 0.70709 0.7652 0.0
H1731 H 0.06982 0.74657 0.7323 0.0
C1732 C 0.11942 0.70738 0.70528 0.0
C1733 C 0.12562 0.69173 0.70667 0.0
C1734 C 0.11644 0.68014 0.71785 0.0
C1735 C 0.10139 0.68411 0.72755 0.0
C1736 C 0.09568 0.6997 0.7259 0.0
C1737 C 0.10445 0.71114 0.71504 0.0
C1738 C 0.09609 0.72731 0.71604 0.0
C1739 C 0.10913 0.74338 0.72311 0.0
C1740 C 0.08887 0.72923 0.69787 0.0
C1741 C 0.08137 0.72333 0.72935 0.0
C1742 C 0.08123 0.7073 0.7348 0.0
C1743 C 0.06911 0.70109 0.74747 0.0
C1744 C 0.05701 0.71165 0.75493 0.0
C1745 C 0.05715 0.72827 0.74976 0.0
C1746 C 0.06939 0.73398 0.7366 0.0
H1747 H 0.84932 0.62645 0.74715 0.0
H1748 H 0.85876 0.58882 0.70225 0.0
H1749 H 0.84739 0.56526 0.71998 0.0
H1750 H 0.86171 0.60307 0.78133 0.0
H1751 H 0.84494 0.6094 0.79686 0.0
H1752 H 0.85398 0.62331 0.78066 0.0
H1753 H 0.82265 0.62328 0.76929 0.0
H1754 H 0.81352 0.60933 0.78541 0.0
H1755 H 0.809 0.60302 0.76211 0.0
H1756 H 0.83462 0.54574 0.7425 0.0
H1757 H 0.82144 0.53176 0.76823 0.0
H1758 H 0.82086 0.58216 0.79848 0.0
C1759 C 0.84905 0.61327 0.74103 0.0
C1760 C 0.85494 0.60951 0.72329 0.0
C1761 C 0.85433 0.59205 0.71581 0.0
C1762 C 0.84789 0.57856 0.72578 0.0
C1763 C 0.84213 0.58272 0.7432 0.0
C1764 C 0.84267 0.59964 0.75078 0.0
C1765 C 0.83561 0.60062 0.76974 0.0
C1766 C 0.84992 0.60963 0.78292 0.0
C1767 C 0.81922 0.60959 0.77175 0.0
C1768 C 0.83095 0.58161 0.77161 0.0
C1769 C 0.83483 0.57149 0.75617 0.0
C1770 C 0.83159 0.55353 0.75469 0.0
C1771 C 0.82419 0.54571 0.7694 0.0
C1772 C 0.82009 0.55584 0.78537 0.0
C1773 C 0.8236 0.57403 0.7864 0.0
H1774 H 0.9536 0.35239 0.73752 0.0
H1775 H 0.92681 0.30099 0.71937 0.0
H1776 H 0.95095 0.28845 0.73066 0.0
H1777 H -0.00012 0.34348 0.73078 0.0
H1778 H 0.00709 0.35678 0.75113 0.0
H1779 H 0.98953 0.36196 0.73872 0.0
H1780 H 0.96925 0.36122 0.76675 0.0
H1781 H 0.98674 0.35615 0.77921 0.0
H1782 H 0.9658 0.34219 0.778 0.0
H1783 H 0.97595 0.28133 0.74634 0.0
H1784 H -0.00158 0.27986 0.76823 0.0
H1785 H 0.00858 0.33571 0.77801 0.0
C1786 C 0.95314 0.33853 0.7355 0.0
C1787 C 0.93854 0.32761 0.72733 0.0
C1788 C 0.93798 0.30952 0.72548 0.0
C1789 C 0.95168 0.30231 0.73173 0.0
C1790 C 0.96578 0.31337 0.73999 0.0
C1791 C 0.96657 0.33109 0.74206 0.0
C1792 C 0.98193 0.33991 0.7536 0.0
C1793 C 0.99541 0.3512 0.74291 0.0
C1794 C 0.97554 0.35048 0.77038 0.0
C1795 C 0.98929 0.32435 0.75815 0.0
C1796 C 0.98002 0.30921 0.74975 0.0
C1797 C 0.98345 0.29309 0.75281 0.0
C1798 C 0.99622 0.29237 0.76525 0.0
C1799 C 0.00528 0.30766 0.77468 0.0
C1800 C 0.00215 0.32385 0.77065 0.0
H1801 H 0.21489 0.41547 0.65729 0.0
H1802 H 0.18005 0.40039 0.7008 0.0
H1803 H 0.1981 0.42188 0.72179 0.0
H1804 H 0.2533 0.41902 0.67966 0.0
H1805 H 0.26476 0.43749 0.67013 0.0
H1806 H 0.24753 0.42321 0.65795 0.0
H1807 H 0.23113 0.44892 0.65537 0.0
H1808 H 0.24842 0.46335 0.66747 0.0
H1809 H 0.22595 0.46247 0.67523 0.0
H1810 H 0.22215 0.44136 0.73863 0.0
H1811 H 0.25014 0.45853 0.74989 0.0
H1812 H 0.26918 0.46145 0.69565 0.0
C1813 C 0.21073 0.41709 0.67113 0.0
C1814 C 0.19602 0.40629 0.67737 0.0
C1815 C 0.19125 0.40853 0.69568 0.0
C1816 C 0.20139 0.42075 0.70772 0.0
C1817 C 0.21617 0.43076 0.70125 0.0
C1818 C 0.22075 0.42923 0.68336 0.0
C1819 C 0.23818 0.44036 0.68013 0.0
C1820 C 0.25173 0.42936 0.67147 0.0
C1821 C 0.23577 0.45462 0.66888 0.0
C1822 C 0.24302 0.44779 0.69906 0.0
C1823 C 0.23005 0.44225 0.71103 0.0
C1824 C 0.23223 0.44611 0.72938 0.0
C1825 C 0.24816 0.45577 0.73566 0.0
C1826 C 0.26163 0.46144 0.72361 0.0
C1827 C 0.25888 0.45763 0.7051 0.0
H1828 H 0.11808 0.34167 0.27796 0.0
H1829 H 0.10043 0.35688 0.33191 0.0
H1830 H 0.07266 0.33693 0.32648 0.0
H1831 H 0.07307 0.33459 0.2572 0.0
H1832 H 0.07818 0.31634 0.24227 0.0
H1833 H 0.09533 0.33401 0.24928 0.0
H1834 H 0.11324 0.31259 0.26056 0.0
H1835 H 0.09614 0.29494 0.25376 0.0
H1836 H 0.1033 0.29875 0.27652 0.0
H1837 H 0.04985 0.3117 0.31742 0.0
H1838 H 0.03286 0.28418 0.30485 0.0
H1839 H 0.06343 0.28668 0.2556 0.0
C1840 C 0.10816 0.3412 0.28845 0.0
C1841 C 0.11147 0.35084 0.30537 0.0
C1842 C 0.09822 0.34966 0.31882 0.0
C1843 C 0.08235 0.33839 0.31586 0.0
C1844 C 0.07976 0.3286 0.29926 0.0
C1845 C 0.09215 0.3301 0.28565 0.0
C1846 C 0.08676 0.31702 0.26961 0.0
C1847 C 0.08312 0.32603 0.25364 0.0
C1848 C 0.10069 0.30513 0.26485 0.0
C1849 C 0.06996 0.30731 0.27672 0.0
C1850 C 0.06606 0.31432 0.29376 0.0
C1851 C 0.05241 0.3064 0.30385 0.0
C1852 C 0.0427 0.29073 0.29648 0.0
C1853 C 0.04657 0.28312 0.27906 0.0
C1854 C 0.06008 0.29195 0.26895 0.0
H1855 H 0.21601 0.61442 0.32394 0.0
H1856 H 0.20721 0.59682 0.37594 0.0
H1857 H 0.22515 0.57389 0.36686 0.0
H1858 H 0.214 0.57065 0.29905 0.0
H1859 H 0.23064 0.57775 0.28313 0.0
H1860 H 0.21647 0.59237 0.29343 0.0
H1861 H 0.24381 0.61433 0.3042 0.0
H1862 H 0.25804 0.59974 0.29407 0.0
H1863 H 0.2599 0.6077 0.31742 0.0
H1864 H 0.24701 0.55567 0.3537 0.0
H1865 H 0.26845 0.54063 0.33624 0.0
H1866 H 0.26 0.5669 0.29091 0.0
C1867 C 0.2177 0.60558 0.33331 0.0
C1868 C 0.21028 0.6074 0.35066 0.0
C1869 C 0.2127 0.59559 0.36255 0.0
C1870 C 0.22291 0.58257 0.35754 0.0
C1871 C 0.23028 0.58128 0.34045 0.0
C1872 C 0.22751 0.5922 0.32836 0.0
C1873 C 0.23694 0.58789 0.31081 0.0
C1874 C 0.22372 0.5818 0.29571 0.0
C1875 C 0.25047 0.60333 0.30638 0.0
C1876 C 0.24588 0.57323 0.31517 0.0
C1877 C 0.24193 0.56975 0.33237 0.0
C1878 C 0.24976 0.55785 0.33999 0.0
C1879 C 0.26187 0.54916 0.32975 0.0
C1880 C 0.26584 0.55201 0.31178 0.0
C1881 C 0.2575 0.56423 0.30449 0.0
H1882 H 0.95902 0.70833 0.33786 0.0
H1883 H 0.936 0.75378 0.35732 0.0
H1884 H 0.95984 0.77193 0.34246 0.0
H1885 H 0.00668 0.72919 0.33684 0.0
H1886 H 0.01067 0.71646 0.31603 0.0
H1887 H 0.99467 0.70771 0.33175 0.0
H1888 H 0.9709 0.70168 0.3074 0.0
H1889 H 0.9868 0.71031 0.29168 0.0
H1890 H 0.96665 0.71913 0.29587 0.0
H1891 H 0.9837 0.78445 0.32278 0.0
H1892 H 0.00314 0.79003 0.29692 0.0
H1893 H 0.00863 0.73585 0.28778 0.0
C1894 C 0.95949 0.7222 0.33952 0.0
C1895 C 0.9461 0.72985 0.34903 0.0
C1896 C 0.94643 0.74786 0.35029 0.0
C1897 C 0.95995 0.75822 0.342 0.0
C1898 C 0.97282 0.75028 0.33231 0.0
C1899 C 0.9726 0.73263 0.33087 0.0
C1900 C 0.98597 0.72691 0.31716 0.0
C1901 C 0.00035 0.71964 0.32598 0.0
C1902 C 0.97704 0.71375 0.30215 0.0
C1903 C 0.9932 0.74395 0.31058 0.0
C1904 C 0.98589 0.75735 0.31992 0.0
C1905 C 0.98962 0.77409 0.31547 0.0
C1906 C 0.00057 0.7771 0.30067 0.0
C1907 C 0.00731 0.76335 0.2902 0.0
C1908 C 0.00401 0.7467 0.29566 0.0
H1909 H 0.83478 0.39309 0.3013 0.0
H1910 H 0.85931 0.42843 0.3452 0.0
H1911 H 0.85069 0.45294 0.33223 0.0
H1912 H 0.84701 0.42175 0.26691 0.0
H1913 H 0.82658 0.41456 0.25538 0.0
H1914 H 0.83568 0.40008 0.26766 0.0
H1915 H 0.80655 0.39513 0.28582 0.0
H1916 H 0.79741 0.40964 0.27368 0.0
H1917 H 0.79807 0.41343 0.29764 0.0
H1918 H 0.83701 0.4734 0.31544 0.0
H1919 H 0.8204 0.48777 0.296 0.0
H1920 H 0.80666 0.439 0.26239 0.0
C1921 C 0.83853 0.406 0.3081 0.0
C1922 C 0.84771 0.40882 0.32428 0.0
C1923 C 0.85234 0.42593 0.33275 0.0
C1924 C 0.84749 0.43995 0.32548 0.0
C1925 C 0.83821 0.43667 0.30962 0.0
C1926 C 0.83397 0.42011 0.30094 0.0
C1927 C 0.82359 0.41992 0.28433 0.0
C1928 C 0.83383 0.41372 0.26758 0.0
C1929 C 0.80532 0.40888 0.28545 0.0
C1930 C 0.82225 0.43889 0.28522 0.0
C1931 C 0.83077 0.4484 0.29985 0.0
C1932 C 0.83049 0.46609 0.30381 0.0
C1933 C 0.82109 0.47417 0.29263 0.0
C1934 C 0.81208 0.46457 0.27767 0.0
C1935 C 0.81308 0.44675 0.27385 0.0
H1936 H 0.22545 0.59399 0.68919 0.0
H1937 H 0.25359 0.64396 0.71066 0.0
H1938 H 0.27598 0.62968 0.72266 0.0
H1939 H 0.23226 0.57263 0.72647 0.0
H1940 H 0.23475 0.55238 0.7135 0.0
H1941 H 0.22159 0.56646 0.70531 0.0
H1942 H 0.24039 0.5665 0.67626 0.0
H1943 H 0.25365 0.55244 0.6844 0.0
H1944 H 0.2639 0.57272 0.67755 0.0
H1945 H 0.2949 0.61035 0.73286 0.0
H1946 H 0.30839 0.587 0.74253 0.0
H1947 H 0.26758 0.54903 0.71595 0.0
C1948 C 0.23645 0.60191 0.69623 0.0
C1949 C 0.23785 0.62012 0.69889 0.0
C1950 C 0.25225 0.63002 0.70846 0.0
C1951 C 0.26508 0.62202 0.71526 0.0
C1952 C 0.26328 0.60408 0.71252 0.0
C1953 C 0.24929 0.5941 0.70337 0.0
C1954 C 0.25 0.575 0.70331 0.0
C1955 C 0.23368 0.5661 0.71271 0.0
C1956 C 0.25211 0.56615 0.68424 0.0
C1957 C 0.26649 0.57586 0.71399 0.0
C1958 C 0.27399 0.5928 0.71897 0.0
C1959 C 0.28911 0.59704 0.72911 0.0
C1960 C 0.29662 0.58366 0.73463 0.0
C1961 C 0.28894 0.56616 0.73022 0.0
C1962 C 0.27382 0.56225 0.71947 0.0
H1963 H 0.21838 0.41487 0.36518 0.0
H1964 H 0.18819 0.38236 0.32288 0.0
H1965 H 0.20536 0.39864 0.30061 0.0
H1966 H 0.22338 0.45502 0.34481 0.0
H1967 H 0.24545 0.46193 0.35279 0.0
H1968 H 0.22974 0.44858 0.3653 0.0
H1969 H 0.25113 0.42627 0.36429 0.0
H1970 H 0.26684 0.4395 0.35172 0.0
H1971 H 0.25925 0.41735 0.34306 0.0
H1972 H 0.22796 0.41696 0.28282 0.0
H1973 H 0.25287 0.43671 0.27134 0.0
H1974 H 0.2677 0.4571 0.32553 0.0
C1975 C 0.2152 0.41135 0.35124 0.0
C1976 C 0.20174 0.39755 0.34578 0.0
C1977 C 0.19808 0.39321 0.32742 0.0
C1978 C 0.20789 0.40229 0.31466 0.0
C1979 C 0.22121 0.41573 0.32051 0.0
C1980 C 0.22474 0.42033 0.3384 0.0
C1981 C 0.24011 0.43482 0.34128 0.0
C1982 C 0.23432 0.45105 0.35166 0.0
C1983 C 0.25522 0.42914 0.35063 0.0
C1984 C 0.24495 0.43745 0.3222 0.0
C1985 C 0.23393 0.42635 0.31036 0.0
C1986 C 0.2365 0.42587 0.29198 0.0
C1987 C 0.2507 0.43705 0.28558 0.0
C1988 C 0.26202 0.44858 0.29754 0.0
C1989 C 0.259 0.44874 0.31606 0.0
H1990 H 0.13849 0.73056 0.35697 0.0
H1991 H 0.13285 0.67658 0.335 0.0
H1992 H 0.11293 0.68195 0.31216 0.0
H1993 H 0.09342 0.73703 0.34892 0.0
H1994 H 0.10053 0.7585 0.34319 0.0
H1995 H 0.11287 0.74998 0.3588 0.0
H1996 H 0.14106 0.75599 0.33939 0.0
H1997 H 0.12883 0.76455 0.3238 0.0
H1998 H 0.14084 0.74713 0.31623 0.0
H1999 H 0.09529 0.69388 0.29032 0.0
H2000 H 0.08294 0.71151 0.27069 0.0
H2001 H 0.10013 0.75747 0.30732 0.0
C2002 C 0.13288 0.71978 0.34754 0.0
C2003 C 0.13718 0.70312 0.34784 0.0
C2004 C 0.12971 0.68945 0.33508 0.0
C2005 C 0.11832 0.69236 0.3221 0.0
C2006 C 0.11449 0.70901 0.3221 0.0
C2007 C 0.12157 0.72248 0.33451 0.0
C2008 C 0.11642 0.73938 0.33097 0.0
C2009 C 0.10514 0.74664 0.34639 0.0
C2010 C 0.13276 0.75253 0.32738 0.0
C2011 C 0.10569 0.73344 0.31435 0.0
C2012 C 0.10449 0.71585 0.30954 0.0
C2013 C 0.09597 0.70763 0.29409 0.0
C2014 C 0.08889 0.71773 0.28307 0.0
C2015 C 0.09054 0.73586 0.28748 0.0
C2016 C 0.09868 0.74365 0.30358 0.0
H2017 H 0.81014 0.63826 0.33679 0.0
H2018 H 0.82065 0.60965 0.37935 0.0
H2019 H 0.81029 0.58226 0.36039 0.0
H2020 H 0.77075 0.60926 0.3201 0.0
H2021 H 0.77632 0.61215 0.29726 0.0
H2022 H 0.78317 0.62932 0.31479 0.0
H2023 H 0.81554 0.63022 0.30381 0.0
H2024 H 0.8088 0.61302 0.28632 0.0
H2025 H 0.82527 0.61078 0.30178 0.0
H2026 H 0.80079 0.55785 0.33551 0.0
H2027 H 0.79198 0.53895 0.30752 0.0
H2028 H 0.78834 0.58417 0.28186 0.0
C2029 C 0.81003 0.62627 0.34228 0.0
C2030 C 0.81618 0.62611 0.35957 0.0
C2031 C 0.81592 0.6101 0.36616 0.0
C2032 C 0.81008 0.59447 0.35548 0.0
C2033 C 0.80445 0.59512 0.33832 0.0
C2034 C 0.80426 0.61064 0.33186 0.0
C2035 C 0.79835 0.60796 0.31276 0.0
C2036 C 0.78112 0.6151 0.31114 0.0
C2037 C 0.81286 0.61597 0.30045 0.0
C2038 C 0.7955 0.5885 0.30934 0.0
C2039 C 0.79899 0.58124 0.3242 0.0
C2040 C 0.79785 0.56342 0.32385 0.0
C2041 C 0.79295 0.55279 0.3079 0.0
C2042 C 0.78925 0.56006 0.29258 0.0
C2043 C 0.79062 0.57816 0.29344 0.0
H2044 H 0.89527 0.33029 0.31186 0.0
H2045 H 0.91207 0.32915 0.36577 0.0
H2046 H 0.93271 0.30956 0.35439 0.0
H2047 H 0.89578 0.28641 0.29704 0.0
H2048 H 0.90423 0.28932 0.27495 0.0
H2049 H 0.89181 0.30475 0.2868 0.0
H2050 H 0.91755 0.32944 0.2829 0.0
H2051 H 0.93 0.31408 0.27087 0.0
H2052 H 0.93918 0.32787 0.29019 0.0
H2053 H 0.94884 0.28788 0.33828 0.0
H2054 H 0.96144 0.26636 0.31783 0.0
H2055 H 0.93621 0.28192 0.27342 0.0
C2056 C 0.90359 0.32621 0.32119 0.0
C2057 C 0.902 0.33129 0.33974 0.0
C2058 C 0.91294 0.32543 0.35153 0.0
C2059 C 0.92477 0.31431 0.3452 0.0
C2060 C 0.92567 0.30916 0.32699 0.0
C2061 C 0.91558 0.315 0.31506 0.0
C2062 C 0.91871 0.30669 0.29621 0.0
C2063 C 0.90161 0.29617 0.28829 0.0
C2064 C 0.92684 0.32033 0.28434 0.0
C2065 C 0.93178 0.29501 0.29958 0.0
C2066 C 0.93558 0.29676 0.31745 0.0
C2067 C 0.94637 0.28669 0.32416 0.0
C2068 C 0.95362 0.27455 0.31232 0.0
C2069 C 0.95032 0.27261 0.29379 0.0
C2070 C 0.93917 0.28306 0.28742 0.0
H2071 H 0.85777 0.38915 0.74755 0.0
H2072 H 0.88469 0.42382 0.71182 0.0
H2073 H 0.87072 0.44762 0.72758 0.0
H2074 H 0.81734 0.40574 0.7511 0.0
H2075 H 0.81386 0.40347 0.77439 0.0
H2076 H 0.82621 0.38922 0.76054 0.0
H2077 H 0.85258 0.39792 0.78187 0.0
H2078 H 0.84024 0.41206 0.79589 0.0
H2079 H 0.86155 0.42041 0.78724 0.0
H2080 H 0.85264 0.4673 0.74645 0.0
H2081 H 0.83361 0.48187 0.76831 0.0
H2082 H 0.81982 0.43457 0.79255 0.0
C2083 C 0.86082 0.40176 0.74308 0.0
C2084 C 0.8723 0.40461 0.72842 0.0
C2085 C 0.87598 0.42134 0.72305 0.0
C2086 C 0.86806 0.43492 0.73188 0.0
C2087 C 0.85661 0.43161 0.74613 0.0
C2088 C 0.85316 0.41549 0.75183 0.0
C2089 C 0.84052 0.41534 0.7676 0.0
C2090 C 0.82347 0.40269 0.76313 0.0
C2091 C 0.84925 0.41119 0.78413 0.0
C2092 C 0.83726 0.43386 0.76979 0.0
C2093 C 0.84658 0.44302 0.75724 0.0
C2094 C 0.84542 0.4603 0.75647 0.0
C2095 C 0.83462 0.46848 0.769 0.0
C2096 C 0.8252 0.45944 0.78225 0.0
C2097 C 0.82657 0.44185 0.78249 0.0
H2098 H 0.16229 0.31751 0.71322 0.0
H2099 H 0.11979 0.31132 0.67575 0.0
H2100 H 0.09952 0.29728 0.69736 0.0
H2101 H 0.14642 0.27699 0.73504 0.0
H2102 H 0.15338 0.288 0.75654 0.0
H2103 H 0.16537 0.29368 0.73671 0.0
H2104 H 0.16123 0.32556 0.74541 0.0
H2105 H 0.14917 0.32 0.7651 0.0
H2106 H 0.13934 0.3307 0.74934 0.0
H2107 H 0.08288 0.28968 0.72472 0.0
H2108 H 0.07136 0.28855 0.7555 0.0
H2109 H 0.12453 0.29943 0.77528 0.0
C2110 C 0.14888 0.31261 0.70927 0.0
C2111 C 0.14264 0.31546 0.69276 0.0
C2112 C 0.1249 0.3092 0.68828 0.0
C2113 C 0.11329 0.30115 0.70046 0.0
C2114 C 0.11968 0.29928 0.71697 0.0
C2115 C 0.13714 0.30463 0.72131 0.0
C2116 C 0.14023 0.30328 0.74068 0.0
C2117 C 0.15205 0.28967 0.74233 0.0
C2118 C 0.14793 0.32093 0.75071 0.0
C2119 C 0.12162 0.29732 0.74684 0.0
C2120 C 0.11 0.29474 0.73288 0.0
C2121 C 0.09188 0.29119 0.73566 0.0
C2122 C 0.08545 0.29064 0.75315 0.0
C2123 C 0.09712 0.29368 0.76763 0.0
C2124 C 0.11541 0.29657 0.76436 0.0
H2125 H 0.92665 0.68902 0.66515 0.0
H2126 H 0.87726 0.67079 0.69093 0.0
H2127 H 0.88829 0.68661 0.7196 0.0
H2128 H 0.95461 0.68647 0.70215 0.0
H2129 H 0.96959 0.70567 0.69841 0.0
H2130 H 0.95793 0.69258 0.68001 0.0
H2131 H 0.94558 0.71927 0.67226 0.0
H2132 H 0.95712 0.73242 0.69069 0.0
H2133 H 0.93368 0.73132 0.68905 0.0
H2134 H 0.90398 0.70569 0.74498 0.0
H2135 H 0.92421 0.72503 0.76605 0.0
H2136 H 0.96388 0.73016 0.72417 0.0
C2137 C 0.91823 0.68828 0.67689 0.0
C2138 C 0.90121 0.67847 0.67594 0.0
C2139 C 0.89052 0.67783 0.6915 0.0
C2140 C 0.8966 0.68693 0.70779 0.0
C2141 C 0.91344 0.6965 0.70828 0.0
C2142 C 0.92419 0.69711 0.6933 0.0
C2143 C 0.94178 0.70829 0.6975 0.0
C2144 C 0.95687 0.69761 0.69433 0.0
C2145 C 0.9447 0.72374 0.68673 0.0
C2146 C 0.93916 0.71405 0.71714 0.0
C2147 C 0.92267 0.70719 0.72305 0.0
C2148 C 0.91697 0.71105 0.74054 0.0
C2149 C 0.92848 0.72211 0.75237 0.0
C2150 C 0.94554 0.72906 0.74668 0.0
C2151 C 0.95094 0.72492 0.72884 0.0
H2152 H 0.7211 0.20096 0.65439 0.0
H2153 H 0.72814 0.14766 0.63918 0.0
H2154 H 0.74963 0.15678 0.61592 0.0
H2155 H 0.7245 0.214 0.61051 0.0
H2156 H 0.73663 0.23508 0.61757 0.0
H2157 H 0.72154 0.22435 0.63281 0.0
H2158 H 0.7465 0.22738 0.65557 0.0
H2159 H 0.76165 0.23817 0.64043 0.0
H2160 H 0.76656 0.21918 0.6488 0.0
H2161 H 0.76996 0.17168 0.59387 0.0
H2162 H 0.78923 0.19151 0.57617 0.0
H2163 H 0.7697 0.23514 0.60645 0.0
C2164 C 0.72712 0.19119 0.64615 0.0
C2165 C 0.72285 0.17356 0.64856 0.0
C2166 C 0.7312 0.16123 0.63761 0.0
C2167 C 0.74338 0.16628 0.62431 0.0
C2168 C 0.74722 0.18373 0.62224 0.0
C2169 C 0.73947 0.19602 0.63297 0.0
C2170 C 0.74629 0.214 0.62836 0.0
C2171 C 0.73135 0.22234 0.62193 0.0
C2172 C 0.75581 0.22534 0.64423 0.0
C2173 C 0.75904 0.2099 0.61331 0.0
C2174 C 0.75927 0.19235 0.60988 0.0
C2175 C 0.7699 0.18545 0.59646 0.0
C2176 C 0.78071 0.19678 0.5864 0.0
C2177 C 0.78092 0.21484 0.58992 0.0
C2178 C 0.76987 0.2214 0.60353 0.0
H2179 H 0.34422 0.20866 0.59147 0.0
H2180 H 0.40038 0.22219 0.58242 0.0
H2181 H 0.39496 0.24555 0.56561 0.0
H2182 H 0.331 0.21706 0.54782 0.0
H2183 H 0.31168 0.22551 0.55675 0.0
H2184 H 0.31997 0.20935 0.56731 0.0
H2185 H 0.32185 0.22946 0.59727 0.0
H2186 H 0.31357 0.24565 0.58681 0.0
H2187 H 0.33421 0.25091 0.59825 0.0
H2188 H 0.38347 0.26894 0.55198 0.0
H2189 H 0.36689 0.29012 0.54216 0.0
H2190 H 0.31808 0.25983 0.55807 0.0
C2191 C 0.35538 0.21647 0.58586 0.0
C2192 C 0.37273 0.21365 0.5883 0.0
C2193 C 0.38697 0.2241 0.58069 0.0
C2194 C 0.38402 0.23739 0.5711 0.0
C2195 C 0.36675 0.23988 0.56903 0.0
C2196 C 0.35266 0.22961 0.57606 0.0
C2197 C 0.33542 0.2352 0.57228 0.0
C2198 C 0.32384 0.22093 0.56033 0.0
C2199 C 0.3257 0.24063 0.58969 0.0
C2200 C 0.34203 0.25052 0.56246 0.0
C2201 C 0.36013 0.25298 0.56066 0.0
C2202 C 0.36927 0.26696 0.55303 0.0
C2203 C 0.35969 0.27888 0.54735 0.0
C2204 C 0.3411 0.27672 0.54924 0.0
C2205 C 0.33225 0.26207 0.55656 0.0
H2206 H 0.39811 0.82299 0.6302 0.0
H2207 H 0.36845 0.86503 0.64491 0.0
H2208 H 0.34277 0.84806 0.6292 0.0
H2209 H 0.38095 0.81195 0.58578 0.0
H2210 H 0.38063 0.78911 0.58566 0.0
H2211 H 0.39654 0.80431 0.59878 0.0
H2212 H 0.38577 0.79014 0.62703 0.0
H2213 H 0.3699 0.77486 0.61398 0.0
H2214 H 0.3628 0.78801 0.63327 0.0
H2215 H 0.31989 0.82604 0.61243 0.0
H2216 H 0.30214 0.80113 0.59476 0.0
H2217 H 0.34734 0.77444 0.58897 0.0
C2218 C 0.3862 0.82863 0.6302 0.0
C2219 C 0.38517 0.84517 0.63946 0.0
C2220 C 0.3694 0.85213 0.6388 0.0
C2221 C 0.35477 0.84265 0.62961 0.0
C2222 C 0.35619 0.82634 0.62083 0.0
C2223 C 0.37156 0.81945 0.62089 0.0
C2224 C 0.36979 0.80179 0.61005 0.0
C2225 C 0.38275 0.8018 0.59412 0.0
C2226 C 0.3722 0.78788 0.62179 0.0
C2227 C 0.35098 0.79978 0.60399 0.0
C2228 C 0.34332 0.81405 0.61042 0.0
C2229 C 0.3258 0.81487 0.60718 0.0
C2230 C 0.31582 0.8007 0.59717 0.0
C2231 C 0.32346 0.78603 0.59037 0.0
C2232 C 0.3413 0.78566 0.59374 0.0
H2233 H 0.73046 0.80821 0.63701 0.0
H2234 H 0.69436 0.82299 0.60125 0.0
H2235 H 0.71137 0.81151 0.57546 0.0
H2236 H 0.76867 0.82051 0.61303 0.0
H2237 H 0.77951 0.80296 0.61745 0.0
H2238 H 0.76335 0.81041 0.63298 0.0
H2239 H 0.74568 0.77947 0.63057 0.0
H2240 H 0.76183 0.77191 0.61498 0.0
H2241 H 0.73899 0.76839 0.60901 0.0
H2242 H 0.73396 0.80126 0.55375 0.0
H2243 H 0.76046 0.7929 0.53778 0.0
H2244 H 0.78159 0.78467 0.58771 0.0
C2245 C 0.72592 0.80875 0.62376 0.0
C2246 C 0.71105 0.81645 0.62114 0.0
C2247 C 0.70568 0.81709 0.60358 0.0
C2248 C 0.71523 0.81056 0.58885 0.0
C2249 C 0.73001 0.80332 0.59191 0.0
C2250 C 0.73527 0.80229 0.60893 0.0
C2251 C 0.7523 0.795 0.60864 0.0
C2252 C 0.76681 0.808 0.61861 0.0
C2253 C 0.74953 0.77766 0.61625 0.0
C2254 C 0.75608 0.79259 0.58881 0.0
C2255 C 0.74298 0.79729 0.57937 0.0
C2256 C 0.74417 0.7973 0.56097 0.0
C2257 C 0.75927 0.79261 0.55203 0.0
C2258 C 0.77295 0.78802 0.56152 0.0
C2259 C 0.77114 0.78774 0.58009 0.0
H2260 H 0.72374 0.83817 0.42443 0.0
H2261 H 0.7419 0.89118 0.44656 0.0
H2262 H 0.76548 0.88161 0.46214 0.0
H2263 H 0.73097 0.8194 0.46377 0.0
H2264 H 0.73787 0.8004 0.45168 0.0
H2265 H 0.72279 0.81147 0.44176 0.0
H2266 H 0.7438 0.81455 0.41447 0.0
H2267 H 0.75898 0.80354 0.42434 0.0
H2268 H 0.76631 0.82466 0.41781 0.0
H2269 H 0.7873 0.86644 0.47489 0.0
H2270 H 0.80498 0.84653 0.48542 0.0
H2271 H 0.77158 0.8031 0.45649 0.0
C2272 C 0.73274 0.84777 0.43248 0.0
C2273 C 0.73105 0.86544 0.43421 0.0
C2274 C 0.74294 0.87758 0.44505 0.0
C2275 C 0.75641 0.87228 0.45391 0.0
C2276 C 0.75771 0.85478 0.45192 0.0
C2277 C 0.74613 0.84268 0.4416 0.0
C2278 C 0.75008 0.8246 0.4422 0.0
C2279 C 0.7345 0.81331 0.45034 0.0
C2280 C 0.75509 0.81636 0.4236 0.0
C2281 C 0.76573 0.82846 0.45443 0.0
C2282 C 0.76997 0.84595 0.45977 0.0
C2283 C 0.78401 0.85269 0.47094 0.0
C2284 C 0.7939 0.84123 0.47696 0.0
C2285 C 0.78961 0.82317 0.47199 0.0
C2286 C 0.77535 0.8168 0.46046 0.0
H2287 H 0.70403 0.217 0.42602 0.0
H2288 H 0.7112 0.1632 0.41778 0.0
H2289 H 0.73119 0.16845 0.44329 0.0
H2290 H 0.74752 0.2341 0.43578 0.0
H2291 H 0.74258 0.2511 0.4525 0.0
H2292 H 0.72729 0.24268 0.43496 0.0
H2293 H 0.70266 0.23574 0.45836 0.0
H2294 H 0.71791 0.24417 0.47602 0.0
H2295 H 0.70607 0.22253 0.47522 0.0
H2296 H 0.75284 0.18027 0.46758 0.0
H2297 H 0.77457 0.19773 0.48834 0.0
H2298 H 0.75236 0.24354 0.48162 0.0
C2299 C 0.70954 0.20622 0.42974 0.0
C2300 C 0.70599 0.18966 0.41987 0.0
C2301 C 0.71366 0.17599 0.42512 0.0
C2302 C 0.725 0.17884 0.43965 0.0
C2303 C 0.72843 0.19538 0.44891 0.0
C2304 C 0.72085 0.20882 0.44422 0.0
C2305 C 0.72759 0.22562 0.45556 0.0
C2306 C 0.73679 0.23917 0.44401 0.0
C2307 C 0.71266 0.23241 0.46697 0.0
C2308 C 0.74057 0.21965 0.46697 0.0
C2309 C 0.74074 0.20213 0.46308 0.0
C2310 C 0.75258 0.19394 0.47099 0.0
C2311 C 0.76482 0.20397 0.48289 0.0
C2312 C 0.76516 0.22203 0.48675 0.0
C2313 C 0.75251 0.22979 0.47897 0.0
H2314 H 0.33191 0.22183 0.3891 0.0
H2315 H 0.37961 0.25284 0.3721 0.0
H2316 H 0.3779 0.27408 0.39889 0.0
H2317 H 0.30999 0.2574 0.40414 0.0
H2318 H 0.29884 0.24772 0.42256 0.0
H2319 H 0.3048 0.23425 0.40302 0.0
H2320 H 0.32194 0.21817 0.42257 0.0
H2321 H 0.31609 0.23167 0.44218 0.0
H2322 H 0.33887 0.23031 0.43698 0.0
H2323 H 0.37089 0.29187 0.42733 0.0
H2324 H 0.35703 0.30707 0.45335 0.0
H2325 H 0.31276 0.26551 0.45066 0.0
C2326 C 0.34211 0.23297 0.39121 0.0
C2327 C 0.35605 0.23566 0.3788 0.0
C2328 C 0.36889 0.25061 0.38159 0.0
C2329 C 0.36808 0.26264 0.39678 0.0
C2330 C 0.35418 0.2596 0.40885 0.0
C2331 C 0.34127 0.24529 0.40609 0.0
C2332 C 0.32692 0.24584 0.42026 0.0
C2333 C 0.30909 0.24634 0.412 0.0
C2334 C 0.3259 0.23059 0.43114 0.0
C2335 C 0.33372 0.26277 0.43136 0.0
C2336 C 0.34965 0.27032 0.42475 0.0
C2337 C 0.35844 0.28608 0.43265 0.0
C2338 C 0.35055 0.29456 0.44745 0.0
C2339 C 0.33393 0.28737 0.45397 0.0
C2340 C 0.32553 0.27119 0.44594 0.0
H2341 H 0.32049 0.82986 0.42739 0.0
H2342 H 0.37661 0.83803 0.43684 0.0
H2343 H 0.37139 0.82111 0.46219 0.0
H2344 H 0.30644 0.83124 0.47514 0.0
H2345 H 0.28773 0.81467 0.47014 0.0
H2346 H 0.29568 0.82913 0.45405 0.0
H2347 H 0.29882 0.80293 0.4305 0.0
H2348 H 0.29099 0.78843 0.4465 0.0
H2349 H 0.31194 0.78723 0.43542 0.0
H2350 H 0.36053 0.80006 0.48375 0.0
H2351 H 0.34479 0.77745 0.50045 0.0
H2352 H 0.29543 0.78462 0.47869 0.0
C2353 C 0.33166 0.82841 0.43502 0.0
C2354 C 0.34896 0.8353 0.43009 0.0
C2355 C 0.36322 0.83295 0.44035 0.0
C2356 C 0.36039 0.82336 0.45482 0.0
C2357 C 0.34322 0.8164 0.45905 0.0
C2358 C 0.32906 0.81899 0.4496 0.0
C2359 C 0.31202 0.80928 0.45623 0.0
C2360 C 0.29974 0.82183 0.46438 0.0
C2361 C 0.30292 0.79619 0.44127 0.0
C2362 C 0.3189 0.80029 0.47039 0.0
C2363 C 0.3369 0.80466 0.47191 0.0
C2364 C 0.34637 0.79686 0.483 0.0
C2365 C 0.33724 0.78406 0.49257 0.0
C2366 C 0.31876 0.77918 0.49108 0.0
C2367 C 0.30954 0.78785 0.48013 0.0
H2368 H 0.63102 0.21967 0.70035 0.0
H2369 H 0.62508 0.17117 0.72263 0.0
H2370 H 0.59842 0.17846 0.73913 0.0
H2371 H 0.61872 0.24492 0.73932 0.0
H2372 H 0.6073 0.25823 0.72771 0.0
H2373 H 0.62517 0.24864 0.71686 0.0
H2374 H 0.60476 0.23434 0.69083 0.0
H2375 H 0.58681 0.24387 0.70164 0.0
H2376 H 0.58439 0.22085 0.6955 0.0
H2377 H 0.57309 0.19186 0.75434 0.0
H2378 H 0.5521 0.2106 0.76775 0.0
H2379 H 0.57456 0.25002 0.73502 0.0
C2380 C 0.62405 0.21047 0.70856 0.0
C2381 C 0.63014 0.1948 0.71015 0.0
C2382 C 0.62067 0.18323 0.72118 0.0
C2383 C 0.60548 0.18724 0.73056 0.0
C2384 C 0.5999 0.20285 0.72874 0.0
C2385 C 0.60893 0.21427 0.71801 0.0
C2386 C 0.6007 0.23051 0.7189 0.0
C2387 C 0.61375 0.24651 0.72613 0.0
C2388 C 0.59375 0.2325 0.70063 0.0
C2389 C 0.58578 0.22659 0.73202 0.0
C2390 C 0.58541 0.21052 0.73745 0.0
C2391 C 0.57315 0.20439 0.75004 0.0
C2392 C 0.56118 0.21509 0.75749 0.0
C2393 C 0.56159 0.23177 0.75239 0.0
C2394 C 0.57391 0.23737 0.73925 0.0
H2395 H 0.34577 0.12404 0.74229 0.0
H2396 H 0.35128 0.08997 0.69338 0.0
H2397 H 0.3368 0.06516 0.708 0.0
H2398 H 0.35414 0.09455 0.77232 0.0
H2399 H 0.3383 0.10124 0.78877 0.0
H2400 H 0.3492 0.11624 0.77444 0.0
H2401 H 0.31895 0.12146 0.76424 0.0
H2402 H 0.30796 0.10642 0.7785 0.0
H2403 H 0.30327 0.10335 0.75506 0.0
H2404 H 0.32127 0.04402 0.72801 0.0
H2405 H 0.30622 0.02834 0.75187 0.0
H2406 H 0.31156 0.07629 0.78767 0.0
C2407 C 0.34398 0.11137 0.73463 0.0
C2408 C 0.34968 0.10898 0.71666 0.0
C2409 C 0.34705 0.09215 0.70716 0.0
C2410 C 0.33882 0.07796 0.71535 0.0
C2411 C 0.33332 0.08079 0.73306 0.0
C2412 C 0.33583 0.09708 0.74259 0.0
C2413 C 0.32868 0.09668 0.76144 0.0
C2414 C 0.34346 0.10252 0.77504 0.0
C2415 C 0.31384 0.10762 0.76501 0.0
C2416 C 0.3217 0.07763 0.76101 0.0
C2417 C 0.32448 0.06867 0.74454 0.0
C2418 C 0.31908 0.05091 0.74098 0.0
C2419 C 0.31061 0.0421 0.75464 0.0
C2420 C 0.30762 0.05106 0.77164 0.0
C2421 C 0.31334 0.06907 0.77476 0.0
H2422 H 0.44827 0.847 0.71912 0.0
H2423 H 0.49246 0.8483 0.68187 0.0
H2424 H 0.51033 0.83907 0.70423 0.0
H2425 H 0.47275 0.86293 0.75848 0.0
H2426 H 0.45928 0.84898 0.77232 0.0
H2427 H 0.44992 0.85553 0.75334 0.0
H2428 H 0.43991 0.82349 0.74094 0.0
H2429 H 0.44915 0.81685 0.75995 0.0
H2430 H 0.45587 0.80896 0.73777 0.0
H2431 H 0.52378 0.83083 0.73133 0.0
H2432 H 0.53086 0.82192 0.76008 0.0
H2433 H 0.47757 0.82523 0.77902 0.0
C2434 C 0.46168 0.84528 0.71562 0.0
C2435 C 0.46898 0.84842 0.69875 0.0
C2436 C 0.48656 0.84593 0.69469 0.0
C2437 C 0.49684 0.84075 0.70733 0.0
C2438 C 0.4893 0.83795 0.72391 0.0
C2439 C 0.47205 0.83994 0.728 0.0
C2440 C 0.46698 0.83588 0.74666 0.0
C2441 C 0.46194 0.85178 0.75839 0.0
C2442 C 0.4521 0.82037 0.7463 0.0
C2443 C 0.48409 0.83141 0.7525 0.0
C2444 C 0.49687 0.8328 0.73926 0.0
C2445 C 0.51385 0.82961 0.74175 0.0
C2446 C 0.51778 0.82466 0.75813 0.0
C2447 C 0.50474 0.8228 0.7717 0.0
C2448 C 0.48774 0.82634 0.7688 0.0
H2449 H 0.72951 0.89389 0.67588 0.0
H2450 H 0.67977 0.91316 0.67828 0.0
H2451 H 0.69304 0.93938 0.69723 0.0
H2452 H 0.74073 0.90519 0.71809 0.0
H2453 H 0.76393 0.91218 0.71493 0.0
H2454 H 0.75202 0.89681 0.69841 0.0
H2455 H 0.76202 0.91662 0.67407 0.0
H2456 H 0.77434 0.93198 0.69048 0.0
H2457 H 0.75825 0.93872 0.67736 0.0
H2458 H 0.70889 0.95861 0.722 0.0
H2459 H 0.7274 0.97209 0.74702 0.0
H2460 H 0.769 0.94371 0.72537 0.0
C2461 C 0.72167 0.904 0.67977 0.0
C2462 C 0.70366 0.90155 0.6756 0.0
C2463 C 0.69366 0.91488 0.68112 0.0
C2464 C 0.70108 0.92981 0.69195 0.0
C2465 C 0.71865 0.93145 0.69662 0.0
C2466 C 0.72902 0.9192 0.69019 0.0
C2467 C 0.74709 0.92339 0.69838 0.0
C2468 C 0.75116 0.90851 0.70802 0.0
C2469 C 0.76126 0.92795 0.68423 0.0
C2470 C 0.74476 0.9391 0.71141 0.0
C2471 C 0.72831 0.94358 0.71013 0.0
C2472 C 0.72213 0.9558 0.72262 0.0
C2473 C 0.73294 0.96353 0.73686 0.0
C2474 C 0.75004 0.95932 0.73844 0.0
C2475 C 0.75607 0.9473 0.72501 0.0
H2476 H 0.62863 0.82445 0.31299 0.0
H2477 H 0.60847 0.87278 0.31429 0.0
H2478 H 0.5813 0.85705 0.29975 0.0
H2479 H 0.61133 0.80515 0.27018 0.0
H2480 H 0.60641 0.78382 0.27683 0.0
H2481 H 0.62428 0.79903 0.28696 0.0
H2482 H 0.61048 0.79515 0.3182 0.0
H2483 H 0.59256 0.77996 0.30817 0.0
H2484 H 0.58813 0.79869 0.32278 0.0
H2485 H 0.55574 0.83548 0.28573 0.0
H2486 H 0.53487 0.81024 0.27251 0.0
H2487 H 0.57227 0.7766 0.28092 0.0
C2488 C 0.61857 0.83179 0.31016 0.0
C2489 C 0.62069 0.84985 0.31479 0.0
C2490 C 0.60716 0.85893 0.31083 0.0
C2491 C 0.59167 0.85011 0.3026 0.0
C2492 C 0.58996 0.83224 0.29838 0.0
C2493 C 0.60312 0.82323 0.30196 0.0
C2494 C 0.59811 0.8041 0.29626 0.0
C2495 C 0.61078 0.79765 0.28169 0.0
C2496 C 0.59727 0.79388 0.31231 0.0
C2497 C 0.58004 0.80369 0.28896 0.0
C2498 C 0.57549 0.82 0.29029 0.0
C2499 C 0.55923 0.82266 0.28456 0.0
C2500 C 0.54743 0.80827 0.27717 0.0
C2501 C 0.55202 0.79149 0.27551 0.0
C2502 C 0.5685 0.78929 0.28165 0.0
H2503 H 0.72305 0.13425 0.33125 0.0
H2504 H 0.68011 0.09938 0.35191 0.0
H2505 H 0.69503 0.07462 0.34052 0.0
H2506 H 0.73158 0.10635 0.29109 0.0
H2507 H 0.75505 0.11292 0.29217 0.0
H2508 H 0.74053 0.12769 0.30125 0.0
H2509 H 0.75585 0.13142 0.33173 0.0
H2510 H 0.77038 0.11666 0.32275 0.0
H2511 H 0.7573 0.11263 0.34242 0.0
H2512 H 0.71542 0.05365 0.32751 0.0
H2513 H 0.73927 0.03849 0.3138 0.0
H2514 H 0.76883 0.08754 0.30269 0.0
C2515 C 0.71666 0.1214 0.33323 0.0
C2516 C 0.70036 0.11876 0.34241 0.0
C2517 C 0.69257 0.10173 0.34487 0.0
C2518 C 0.70095 0.08758 0.33845 0.0
C2519 C 0.71712 0.09068 0.32962 0.0
C2520 C 0.72486 0.10719 0.327 0.0
C2521 C 0.74251 0.10717 0.31758 0.0
C2522 C 0.7424 0.11393 0.29945 0.0
C2523 C 0.75738 0.11758 0.32933 0.0
C2524 C 0.74355 0.08809 0.31537 0.0
C2525 C 0.72879 0.07873 0.32232 0.0
C2526 C 0.72701 0.06086 0.32197 0.0
C2527 C 0.74066 0.05237 0.31426 0.0
C2528 C 0.75587 0.06177 0.30701 0.0
C2529 C 0.75723 0.07988 0.30772 0.0
H2530 H 0.42027 0.21237 0.28841 0.0
H2531 H 0.42379 0.206 0.34406 0.0
H2532 H 0.45478 0.21972 0.34402 0.0
H2533 H 0.4696 0.20796 0.2767 0.0
H2534 H 0.47032 0.22368 0.26135 0.0
H2535 H 0.45035 0.20889 0.26426 0.0
H2536 H 0.43348 0.23479 0.2716 0.0
H2537 H 0.4533 0.24961 0.26907 0.0
H2538 H 0.44081 0.25132 0.28963 0.0
H2539 H 0.48017 0.24221 0.34088 0.0
H2540 H 0.49954 0.26801 0.33391 0.0
H2541 H 0.48357 0.25638 0.27856 0.0
C2542 C 0.42788 0.21311 0.3003 0.0
C2543 C 0.41971 0.2082 0.31623 0.0
C2544 C 0.42986 0.20954 0.33167 0.0
C2545 C 0.44751 0.21732 0.33176 0.0
C2546 C 0.45493 0.22309 0.31614 0.0
C2547 C 0.44565 0.22048 0.30047 0.0
C2548 C 0.45592 0.22977 0.28617 0.0
C2549 C 0.46191 0.2168 0.27124 0.0
C2550 C 0.44524 0.2421 0.27871 0.0
C2551 C 0.47142 0.23953 0.29685 0.0
C2552 C 0.47075 0.2353 0.31401 0.0
C2553 C 0.48143 0.24506 0.32726 0.0
C2554 C 0.49258 0.25983 0.32305 0.0
C2555 C 0.49332 0.26466 0.30557 0.0
C2556 C 0.48327 0.2536 0.29217 0.0
H2557 H 0.32087 0.90384 0.32554 0.0
H2558 H 0.35582 0.94305 0.35823 0.0
H2559 H 0.3414 0.96567 0.348 0.0
H2560 H 0.32007 0.92789 0.28847 0.0
H2561 H 0.29723 0.92005 0.2838 0.0
H2562 H 0.31016 0.90693 0.29387 0.0
H2563 H 0.28764 0.90474 0.32004 0.0
H2564 H 0.27465 0.91788 0.31006 0.0
H2565 H 0.28217 0.92421 0.33255 0.0
H2566 H 0.32302 0.98411 0.33424 0.0
H2567 H 0.30283 0.99693 0.31716 0.0
H2568 H 0.27987 0.9457 0.29353 0.0
C2569 C 0.32551 0.91718 0.33056 0.0
C2570 C 0.33949 0.92164 0.34272 0.0
C2571 C 0.34516 0.93928 0.34891 0.0
C2572 C 0.33702 0.95224 0.34319 0.0
C2573 C 0.32325 0.94739 0.33125 0.0
C2574 C 0.31757 0.93029 0.32495 0.0
C2575 C 0.30264 0.92854 0.31202 0.0
C2576 C 0.30784 0.92037 0.29344 0.0
C2577 C 0.28578 0.91823 0.3191 0.0
C2578 C 0.30083 0.94733 0.312 0.0
C2579 C 0.31278 0.958 0.32324 0.0
C2580 C 0.31359 0.97587 0.32542 0.0
C2581 C 0.302 0.98303 0.31574 0.0
C2582 C 0.28979 0.97236 0.30396 0.0
C2583 C 0.28919 0.95425 0.30223 0.0
H2584 H 0.72014 0.11717 0.73559 0.0
H2585 H 0.70315 0.08084 0.68924 0.0
H2586 H 0.71616 0.05834 0.70155 0.0
H2587 H 0.76131 0.10328 0.7408 0.0
H2588 H 0.76015 0.10612 0.76479 0.0
H2589 H 0.7493 0.11923 0.7524 0.0
H2590 H 0.71977 0.10931 0.76829 0.0
H2591 H 0.73055 0.09621 0.78076 0.0
H2592 H 0.71164 0.08658 0.76763 0.0
H2593 H 0.73188 0.03992 0.71883 0.0
H2594 H 0.74857 0.02725 0.73969 0.0
H2595 H 0.754 0.07549 0.77506 0.0
C2596 C 0.71913 0.10449 0.72802 0.0
C2597 C 0.71064 0.1008 0.71142 0.0
C2598 C 0.70956 0.08399 0.70199 0.0
C2599 C 0.71692 0.07112 0.70887 0.0
C2600 C 0.72524 0.07521 0.72526 0.0
C2601 C 0.72629 0.09147 0.73474 0.0
C2602 C 0.73589 0.09259 0.75204 0.0
C2603 C 0.75266 0.10611 0.75252 0.0
C2604 C 0.72373 0.09639 0.76813 0.0
C2605 C 0.74024 0.07448 0.75074 0.0
C2606 C 0.734 0.06461 0.73523 0.0
C2607 C 0.73673 0.04752 0.73107 0.0
C2608 C 0.74616 0.0404 0.74305 0.0
C2609 C 0.75275 0.05035 0.75901 0.0
C2610 C 0.7495 0.06757 0.76286 0.0
H2611 H 0.71779 0.92926 0.37462 0.0
H2612 H 0.69165 0.89259 0.33266 0.0
H2613 H 0.70772 0.90933 0.31008 0.0
H2614 H 0.71935 0.96804 0.35211 0.0
H2615 H 0.74075 0.97728 0.3607 0.0
H2616 H 0.72582 0.96334 0.37337 0.0
H2617 H 0.74952 0.94367 0.37455 0.0
H2618 H 0.76447 0.9575 0.36189 0.0
H2619 H 0.75914 0.93482 0.35407 0.0
H2620 H 0.72915 0.92861 0.29219 0.0
H2621 H 0.75318 0.94921 0.28063 0.0
H2622 H 0.76485 0.97313 0.33455 0.0
C2623 C 0.71522 0.9249 0.36068 0.0
C2624 C 0.70324 0.90978 0.35539 0.0
C2625 C 0.70036 0.9044 0.33703 0.0
C2626 C 0.70956 0.91376 0.32411 0.0
C2627 C 0.72144 0.92853 0.32981 0.0
C2628 C 0.72415 0.93413 0.34769 0.0
C2629 C 0.73824 0.94986 0.35044 0.0
C2630 C 0.73058 0.96556 0.3597 0.0
C2631 C 0.75376 0.94623 0.36084 0.0
C2632 C 0.7434 0.95202 0.33132 0.0
C2633 C 0.73354 0.93966 0.31958 0.0
C2634 C 0.73675 0.93849 0.30126 0.0
C2635 C 0.75045 0.95017 0.29482 0.0
C2636 C 0.76071 0.96288 0.30668 0.0
C2637 C 0.75695 0.96385 0.32513 0.0
H2638 H 0.63979 0.23121 0.34225 0.0
H2639 H 0.63104 0.24775 0.39837 0.0
H2640 H 0.61311 0.26863 0.39046 0.0
H2641 H 0.64344 0.2733 0.32782 0.0
H2642 H 0.63203 0.26571 0.30726 0.0
H2643 H 0.64411 0.2517 0.31711 0.0
H2644 H 0.61611 0.22872 0.31716 0.0
H2645 H 0.60398 0.24263 0.30724 0.0
H2646 H 0.59627 0.23463 0.32781 0.0
H2647 H 0.59655 0.28789 0.37694 0.0
H2648 H 0.58159 0.30427 0.35836 0.0
H2649 H 0.60044 0.2756 0.31069 0.0
C2650 C 0.63404 0.23918 0.35286 0.0
C2651 C 0.63685 0.2378 0.37096 0.0
C2652 C 0.62913 0.24852 0.38443 0.0
C2653 C 0.61891 0.26046 0.38007 0.0
C2654 C 0.61649 0.26158 0.36218 0.0
C2655 C 0.62377 0.25125 0.34875 0.0
C2656 C 0.61906 0.25523 0.33058 0.0
C2657 C 0.63565 0.26188 0.32007 0.0
C2658 C 0.60821 0.23936 0.32008 0.0
C2659 C 0.60804 0.26939 0.33597 0.0
C2660 C 0.60677 0.2728 0.35428 0.0
C2661 C 0.59734 0.28528 0.36258 0.0
C2662 C 0.5888 0.29445 0.35189 0.0
C2663 C 0.58966 0.29111 0.33307 0.0
C2664 C 0.59958 0.27849 0.32503 0.0
H2665 H 0.34205 0.14079 0.33923 0.0
H2666 H 0.32022 0.13668 0.3924 0.0
H2667 H 0.30278 0.10849 0.38147 0.0
H2668 H 0.3035 0.12628 0.3173 0.0
H2669 H 0.31289 0.11469 0.29821 0.0
H2670 H 0.32605 0.13278 0.31071 0.0
H2671 H 0.34932 0.11363 0.3157 0.0
H2672 H 0.33628 0.09546 0.30304 0.0
H2673 H 0.34265 0.09389 0.32536 0.0
H2674 H 0.28514 0.08276 0.36405 0.0
H2675 H 0.2682 0.06189 0.34152 0.0
H2676 H 0.30121 0.0833 0.29966 0.0
C2677 C 0.33402 0.13375 0.34872 0.0
C2678 C 0.33258 0.14084 0.3667 0.0
C2679 C 0.32158 0.13141 0.37859 0.0
C2680 C 0.31168 0.11538 0.37251 0.0
C2681 C 0.31299 0.10901 0.35455 0.0
C2682 C 0.32395 0.11788 0.34285 0.0
C2683 C 0.32158 0.10928 0.32387 0.0
C2684 C 0.31565 0.12149 0.31183 0.0
C2685 C 0.33846 0.10267 0.31657 0.0
C2686 C 0.30711 0.09451 0.32662 0.0
C2687 C 0.30257 0.09437 0.34443 0.0
C2688 C 0.2888 0.08255 0.35011 0.0
C2689 C 0.27929 0.07073 0.33722 0.0
C2690 C 0.28348 0.07094 0.31887 0.0
C2691 C 0.29774 0.08284 0.31359 0.0
H2692 H 0.41581 0.83533 0.34821 0.0
H2693 H 0.40659 0.87303 0.31419 0.0
H2694 H 0.42737 0.86172 0.29177 0.0
H2695 H 0.46277 0.83502 0.33642 0.0
H2696 H 0.46077 0.8121 0.33704 0.0
H2697 H 0.44698 0.8246 0.35129 0.0
H2698 H 0.4192 0.80455 0.33839 0.0
H2699 H 0.43288 0.79196 0.32426 0.0
H2700 H 0.41609 0.8012 0.31465 0.0
H2701 H 0.44676 0.8442 0.27177 0.0
H2702 H 0.46171 0.82126 0.25553 0.0
H2703 H 0.45806 0.79521 0.30277 0.0
C2704 C 0.41838 0.84147 0.33621 0.0
C2705 C 0.40959 0.85516 0.33304 0.0
C2706 C 0.41318 0.86259 0.31699 0.0
C2707 C 0.42504 0.8563 0.3042 0.0
C2708 C 0.43329 0.84264 0.3077 0.0
C2709 C 0.4301 0.83534 0.32334 0.0
C2710 C 0.43938 0.81985 0.3233 0.0
C2711 C 0.45331 0.8231 0.33788 0.0
C2712 C 0.42609 0.80343 0.32525 0.0
C2713 C 0.44786 0.81918 0.30494 0.0
C2714 C 0.44444 0.83259 0.29622 0.0
C2715 C 0.44975 0.83383 0.27858 0.0
C2716 C 0.45824 0.82076 0.26946 0.0
C2717 C 0.46125 0.80658 0.27796 0.0
C2718 C 0.45644 0.80614 0.29609 0.0
H2719 H 0.3407 0.91557 0.7042 0.0
H2720 H 0.32994 0.86729 0.72706 0.0
H2721 H 0.31153 0.88058 0.75041 0.0
H2722 H 0.34438 0.94319 0.74489 0.0
H2723 H 0.33371 0.9596 0.73739 0.0
H2724 H 0.3452 0.94612 0.72165 0.0
H2725 H 0.31702 0.93691 0.70292 0.0
H2726 H 0.30545 0.95045 0.71857 0.0
H2727 H 0.29689 0.92785 0.71338 0.0
H2728 H 0.29646 0.89939 0.77253 0.0
H2729 H 0.28444 0.92231 0.79165 0.0
H2730 H 0.30334 0.95843 0.75399 0.0
C2731 C 0.3343 0.90773 0.71399 0.0
C2732 C 0.33679 0.89036 0.71378 0.0
C2733 C 0.32825 0.88059 0.72691 0.0
C2734 C 0.31774 0.88802 0.74024 0.0
C2735 C 0.31577 0.9052 0.74021 0.0
C2736 C 0.32367 0.91493 0.72739 0.0
C2737 C 0.31975 0.93328 0.7308 0.0
C2738 C 0.33677 0.94631 0.73387 0.0
C2739 C 0.30914 0.93736 0.71551 0.0
C2740 C 0.30871 0.93239 0.74774 0.0
C2741 C 0.30658 0.91604 0.75286 0.0
C2742 C 0.2977 0.91216 0.76848 0.0
C2743 C 0.29075 0.92531 0.77919 0.0
C2744 C 0.2925 0.9422 0.77421 0.0
C2745 C 0.30164 0.94569 0.75819 0.0
H2746 H 0.63284 0.82864 0.70528 0.0
H2747 H 0.64806 0.8829 0.7248 0.0
H2748 H 0.63443 0.8779 0.75389 0.0
H2749 H 0.59104 0.82319 0.72738 0.0
H2750 H 0.59223 0.80182 0.73258 0.0
H2751 H 0.60375 0.80941 0.71331 0.0
H2752 H 0.63292 0.80293 0.72492 0.0
H2753 H 0.62148 0.79537 0.74427 0.0
H2754 H 0.64017 0.81232 0.74689 0.0
H2755 H 0.61804 0.86773 0.78017 0.0
H2756 H 0.59991 0.85257 0.80261 0.0
H2757 H 0.59583 0.80466 0.76697 0.0
C2758 C 0.63335 0.83943 0.7157 0.0
C2759 C 0.6415 0.85617 0.71274 0.0
C2760 C 0.64191 0.86996 0.72673 0.0
C2761 C 0.63423 0.86726 0.74334 0.0
C2762 C 0.62628 0.85067 0.74582 0.0
C2763 C 0.62582 0.83695 0.73248 0.0
C2764 C 0.61611 0.82048 0.73869 0.0
C2765 C 0.59981 0.81331 0.72731 0.0
C2766 C 0.62841 0.80698 0.73869 0.0
C2767 C 0.61098 0.82721 0.7575 0.0
C2768 C 0.61704 0.84467 0.76129 0.0
C2769 C 0.61336 0.85403 0.77745 0.0
C2770 C 0.60305 0.84536 0.79006 0.0
C2771 C 0.59664 0.82751 0.78646 0.0
C2772 C 0.60083 0.81827 0.77007 0.0
H2773 H 0.40332 0.21001 0.67462 0.0
H2774 H 0.4039 0.15729 0.68439 0.0
H2775 H 0.421 0.16796 0.71157 0.0
H2776 H 0.44698 0.2262 0.68755 0.0
H2777 H 0.44236 0.24686 0.69788 0.0
H2778 H 0.42891 0.23517 0.67998 0.0
H2779 H 0.40104 0.23643 0.7 0.0
H2780 H 0.4144 0.24824 0.71794 0.0
H2781 H 0.40013 0.22851 0.72134 0.0
H2782 H 0.4398 0.18429 0.73647 0.0
H2783 H 0.45787 0.20517 0.75815 0.0
H2784 H 0.44533 0.24737 0.73217 0.0
C2785 C 0.40683 0.20072 0.68263 0.0
C2786 C 0.40188 0.1828 0.67762 0.0
C2787 C 0.40693 0.17105 0.6883 0.0
C2788 C 0.41685 0.177 0.70366 0.0
C2789 C 0.4216 0.19474 0.70816 0.0
C2790 C 0.41667 0.20645 0.69804 0.0
C2791 C 0.42394 0.22483 0.70549 0.0
C2792 C 0.43628 0.23379 0.69191 0.0
C2793 C 0.40899 0.2351 0.71155 0.0
C2794 C 0.43399 0.22162 0.72123 0.0
C2795 C 0.43247 0.20417 0.72252 0.0
C2796 C 0.44102 0.19798 0.73564 0.0
C2797 C 0.45136 0.20993 0.7478 0.0
C2798 C 0.45306 0.22788 0.74678 0.0
C2799 C 0.44416 0.23374 0.73335 0.0
H2800 H 0.68144 0.69172 0.13353 0.0
H2801 H 0.71623 0.65395 0.13567 0.0
H2802 H 0.73685 0.66884 0.11483 0.0
H2803 H 0.68933 0.69748 0.08654 0.0
H2804 H 0.68855 0.7203 0.09053 0.0
H2805 H 0.67592 0.70591 0.10451 0.0
H2806 H 0.69086 0.72394 0.13246 0.0
H2807 H 0.70348 0.73839 0.1186 0.0
H2808 H 0.71451 0.72784 0.13359 0.0
H2809 H 0.75468 0.6891 0.09541 0.0
H2810 H 0.76832 0.71323 0.07923 0.0
H2811 H 0.72178 0.73756 0.08985 0.0
C2812 C 0.69326 0.6864 0.12947 0.0
C2813 C 0.69715 0.6716 0.13624 0.0
C2814 C 0.7129 0.66524 0.13066 0.0
C2815 C 0.7247 0.67358 0.11879 0.0
C2816 C 0.72052 0.68823 0.11253 0.0
C2817 C 0.70516 0.69455 0.11765 0.0
C2818 C 0.70416 0.71101 0.10975 0.0
C2819 C 0.68856 0.70852 0.09708 0.0
C2820 C 0.7032 0.72618 0.12448 0.0
C2821 C 0.72152 0.71315 0.09964 0.0
C2822 C 0.73073 0.69983 0.1013 0.0
C2823 C 0.74751 0.6995 0.09388 0.0
C2824 C 0.75516 0.71327 0.08476 0.0
C2825 C 0.74606 0.72719 0.08315 0.0
C2826 C 0.72891 0.72692 0.0905 0.0
H2827 H 0.28818 0.68019 0.12915 0.0
H2828 H 0.32937 0.66682 0.0918 0.0
H2829 H 0.31463 0.67733 0.06791 0.0
H2830 H 0.25207 0.66826 0.09809 0.0
H2831 H 0.241 0.6859 0.10732 0.0
H2832 H 0.25448 0.67673 0.12129 0.0
H2833 H 0.2727 0.70696 0.13001 0.0
H2834 H 0.25933 0.7162 0.11602 0.0
H2835 H 0.28285 0.7191 0.11277 0.0
H2836 H 0.29598 0.69044 0.04835 0.0
H2837 H 0.27476 0.70492 0.03462 0.0
H2838 H 0.24539 0.70898 0.0846 0.0
C2839 C 0.29405 0.67935 0.11592 0.0
C2840 C 0.30994 0.67266 0.11236 0.0
C2841 C 0.3172 0.67186 0.09486 0.0
C2842 C 0.30892 0.6778 0.08119 0.0
C2843 C 0.29335 0.68444 0.0852 0.0
C2844 C 0.28595 0.68519 0.10212 0.0
C2845 C 0.26932 0.69322 0.10302 0.0
C2846 C 0.25327 0.68025 0.1077 0.0
C2847 C 0.27117 0.70986 0.11624 0.0
C2848 C 0.26863 0.69706 0.08401 0.0
C2849 C 0.28257 0.69186 0.07393 0.0
C2850 C 0.28492 0.69442 0.05608 0.0
C2851 C 0.27274 0.70258 0.04837 0.0
C2852 C 0.25836 0.70809 0.05848 0.0
C2853 C 0.25631 0.70513 0.07652 0.0
H2854 H 0.37954 0.30257 0.12776 0.0
H2855 H 0.37389 0.35662 0.13812 0.0
H2856 H 0.3453 0.35018 0.12294 0.0
H2857 H 0.36209 0.29527 0.08404 0.0
H2858 H 0.35117 0.27371 0.08616 0.0
H2859 H 0.3707 0.28246 0.09866 0.0
H2860 H 0.35394 0.2764 0.12804 0.0
H2861 H 0.3344 0.26749 0.11562 0.0
H2862 H 0.33376 0.28488 0.13339 0.0
H2863 H 0.31751 0.33767 0.10577 0.0
H2864 H 0.29233 0.32005 0.08943 0.0
H2865 H 0.31714 0.27449 0.08926 0.0
C2866 C 0.37221 0.31304 0.127 0.0
C2867 C 0.37872 0.33003 0.13458 0.0
C2868 C 0.36885 0.3434 0.1331 0.0
C2869 C 0.35271 0.33989 0.12424 0.0
C2870 C 0.34672 0.32298 0.11685 0.0
C2871 C 0.35616 0.30977 0.11821 0.0
C2872 C 0.34703 0.29275 0.10896 0.0
C2873 C 0.35843 0.28564 0.09354 0.0
C2874 C 0.34198 0.27961 0.1223 0.0
C2875 C 0.33095 0.29841 0.10215 0.0
C2876 C 0.331 0.31589 0.10678 0.0
C2877 C 0.31737 0.32398 0.10204 0.0
C2878 C 0.3032 0.31389 0.09261 0.0
C2879 C 0.30275 0.29588 0.088 0.0
C2880 C 0.31699 0.28818 0.09269 0.0
H2881 H 0.71784 0.33662 0.09909 0.0
H2882 H 0.66842 0.30994 0.11806 0.0
H2883 H 0.67589 0.28223 0.10343 0.0
H2884 H 0.7189 0.3118 0.05678 0.0
H2885 H 0.74226 0.3116 0.05655 0.0
H2886 H 0.7333 0.32929 0.06895 0.0
H2887 H 0.748 0.32405 0.09757 0.0
H2888 H 0.75707 0.30637 0.08524 0.0
H2889 H 0.74375 0.30297 0.1049 0.0
H2890 H 0.68769 0.25781 0.08483 0.0
H2891 H 0.70426 0.23798 0.06552 0.0
H2892 H 0.74667 0.28022 0.06022 0.0
C2893 C 0.70865 0.32493 0.10026 0.0
C2894 C 0.69252 0.32542 0.10965 0.0
C2895 C 0.68087 0.30985 0.11097 0.0
C2896 C 0.68498 0.29406 0.10267 0.0
C2897 C 0.70089 0.29404 0.09335 0.0
C2898 C 0.71265 0.30903 0.0923 0.0
C2899 C 0.72888 0.30546 0.08147 0.0
C2900 C 0.73094 0.31511 0.06496 0.0
C2901 C 0.7454 0.30998 0.09299 0.0
C2902 C 0.72426 0.28617 0.07635 0.0
C2903 C 0.70801 0.27984 0.08325 0.0
C2904 C 0.70053 0.26255 0.07956 0.0
C2905 C 0.70996 0.25143 0.06857 0.0
C2906 C 0.72671 0.25763 0.06163 0.0
C2907 C 0.73397 0.27518 0.06565 0.0
H2908 H 0.69556 0.30192 0.91793 0.0
H2909 H 0.74678 0.32915 0.9047 0.0
H2910 H 0.76041 0.31518 0.92679 0.0
H2911 H 0.70331 0.30011 0.96614 0.0
H2912 H 0.69158 0.27842 0.96528 0.0
H2913 H 0.68532 0.29293 0.95104 0.0
H2914 H 0.68915 0.27081 0.92337 0.0
H2915 H 0.69533 0.25626 0.93751 0.0
H2916 H 0.7098 0.26287 0.91958 0.0
H2917 H 0.76886 0.29635 0.94763 0.0
H2918 H 0.77212 0.2718 0.96358 0.0
H2919 H 0.71572 0.25524 0.96225 0.0
C2920 C 0.70956 0.30529 0.92013 0.0
C2921 C 0.72014 0.31679 0.9099 0.0
C2922 C 0.73849 0.32046 0.91255 0.0
C2923 C 0.7463 0.31268 0.92515 0.0
C2924 C 0.73558 0.30114 0.93483 0.0
C2925 C 0.71762 0.29731 0.93238 0.0
C2926 C 0.70949 0.28269 0.94265 0.0
C2927 C 0.69667 0.28892 0.95714 0.0
C2928 C 0.70042 0.26725 0.93002 0.0
C2929 C 0.72575 0.27853 0.95077 0.0
C2930 C 0.74058 0.28964 0.94643 0.0
C2931 C 0.75733 0.2877 0.95129 0.0
C2932 C 0.75906 0.27371 0.96029 0.0
C2933 C 0.74416 0.26169 0.96413 0.0
C2934 C 0.72726 0.26445 0.95979 0.0
H2935 H 0.70836 0.67936 0.92167 0.0
H2936 H 0.65532 0.69109 0.92932 0.0
H2937 H 0.66574 0.71467 0.95307 0.0
H2938 H 0.72037 0.68655 0.96708 0.0
H2939 H 0.74268 0.6963 0.96293 0.0
H2940 H 0.73117 0.68077 0.94616 0.0
H2941 H 0.73705 0.70284 0.92332 0.0
H2942 H 0.74875 0.71838 0.93997 0.0
H2943 H 0.73055 0.72382 0.92876 0.0
H2944 H 0.68183 0.73581 0.97736 0.0
H2945 H 0.70287 0.75488 0.99797 0.0
H2946 H 0.7454 0.72973 0.97365 0.0
C2947 C 0.69898 0.68702 0.92823 0.0
C2948 C 0.68108 0.68357 0.92354 0.0
C2949 C 0.66916 0.6938 0.93242 0.0
C2950 C 0.67493 0.70708 0.94606 0.0
C2951 C 0.69266 0.71002 0.95052 0.0
C2952 C 0.70455 0.70043 0.94167 0.0
C2953 C 0.72291 0.70624 0.94884 0.0
C2954 C 0.72967 0.69159 0.95672 0.0
C2955 C 0.73556 0.71324 0.93436 0.0
C2956 C 0.71949 0.7205 0.96323 0.0
C2957 C 0.70195 0.72239 0.96412 0.0
C2958 C 0.69561 0.73451 0.97669 0.0
C2959 C 0.7076 0.74518 0.98841 0.0
C2960 C 0.7257 0.74375 0.98735 0.0
C2961 C 0.73164 0.73115 0.97466 0.0
H2962 H 0.34211 0.71582 0.90876 0.0
H2963 H 0.32077 0.6619 0.89435 0.0
H2964 H 0.29875 0.66379 0.91856 0.0
H2965 H 0.3332 0.71754 0.95783 0.0
H2966 H 0.32717 0.73877 0.95919 0.0
H2967 H 0.34329 0.73238 0.9429 0.0
H2968 H 0.32484 0.73983 0.91785 0.0
H2969 H 0.30866 0.74612 0.93401 0.0
H2970 H 0.30218 0.72986 0.91552 0.0
H2971 H 0.27651 0.67248 0.94124 0.0
H2972 H 0.25567 0.68738 0.96042 0.0
H2973 H 0.29139 0.73573 0.96043 0.0
C2974 C 0.33312 0.7043 0.91105 0.0
C2975 C 0.3336 0.68853 0.90008 0.0
C2976 C 0.32129 0.67386 0.90312 0.0
C2977 C 0.30857 0.67487 0.91675 0.0
C2978 C 0.30833 0.69065 0.92721 0.0
C2979 C 0.32033 0.70511 0.92458 0.0
C2980 C 0.31615 0.72092 0.93641 0.0
C2981 C 0.33082 0.7278 0.94988 0.0
C2982 C 0.31275 0.735 0.92528 0.0
C2983 C 0.29949 0.71324 0.94554 0.0
C2984 C 0.29534 0.69573 0.94026 0.0
C2985 C 0.27981 0.68612 0.94579 0.0
C2986 C 0.26808 0.6947 0.95677 0.0
C2987 C 0.2719 0.71273 0.96203 0.0
C2988 C 0.28804 0.72195 0.95663 0.0
H2989 H 0.33443 0.30481 0.9167 0.0
H2990 H 0.32561 0.35809 0.92479 0.0
H2991 H 0.30823 0.3524 0.95213 0.0
H2992 H 0.29178 0.28648 0.93001 0.0
H2993 H 0.29926 0.26985 0.94057 0.0
H2994 H 0.31175 0.27853 0.92236 0.0
H2995 H 0.33937 0.28627 0.94213 0.0
H2996 H 0.3269 0.2777 0.96044 0.0
H2997 H 0.3383 0.29958 0.96321 0.0
H2998 H 0.29092 0.34036 0.97829 0.0
H2999 H 0.27375 0.32266 0.99951 0.0
H3000 H 0.29421 0.27749 0.97394 0.0
C3001 C 0.32897 0.31536 0.92425 0.0
C3002 C 0.33145 0.33193 0.91861 0.0
C3003 C 0.3239 0.34529 0.92884 0.0
C3004 C 0.31407 0.3422 0.94443 0.0
C3005 C 0.31191 0.32568 0.94961 0.0
C3006 C 0.3191 0.31248 0.93974 0.0
C3007 C 0.31424 0.29569 0.94761 0.0
C3008 C 0.30362 0.28183 0.93435 0.0
C3009 C 0.33068 0.28945 0.95371 0.0
C3010 C 0.30298 0.3014 0.96333 0.0
C3011 C 0.30192 0.31877 0.96442 0.0
C3012 C 0.29177 0.32677 0.97761 0.0
C3013 C 0.28216 0.31665 0.98969 0.0
C3014 C 0.28265 0.29871 0.9884 0.0
C3015 C 0.29351 0.29116 0.97524 0.0
H3016 H 0.61012 0.71345 0.18604 0.0
H3017 H 0.59729 0.66462 0.20748 0.0
H3018 H 0.57178 0.67501 0.22371 0.0
H3019 H 0.60077 0.73967 0.22507 0.0
H3020 H 0.5919 0.75499 0.21375 0.0
H3021 H 0.60804 0.74304 0.20272 0.0
H3022 H 0.58676 0.7319 0.17654 0.0
H3023 H 0.5705 0.74377 0.18756 0.0
H3024 H 0.56502 0.72088 0.18097 0.0
H3025 H 0.54861 0.6917 0.23909 0.0
H3026 H 0.53125 0.7136 0.25347 0.0
H3027 H 0.5594 0.75117 0.22155 0.0
C3028 C 0.60185 0.70481 0.19395 0.0
C3029 C 0.60569 0.68816 0.19541 0.0
C3030 C 0.59461 0.6774 0.20612 0.0
C3031 C 0.58004 0.68317 0.21532 0.0
C3032 C 0.57671 0.69971 0.21365 0.0
C3033 C 0.58735 0.71036 0.20323 0.0
C3034 C 0.58169 0.72794 0.20446 0.0
C3035 C 0.59648 0.74225 0.21195 0.0
C3036 C 0.57563 0.73131 0.1863 0.0
C3037 C 0.56641 0.7257 0.2175 0.0
C3038 C 0.56355 0.70927 0.2225 0.0
C3039 C 0.55063 0.70453 0.2351 0.0
C3040 C 0.54073 0.71701 0.24311 0.0
C3041 C 0.54392 0.73408 0.2386 0.0
C3042 C 0.55664 0.73824 0.22529 0.0
H3043 H 0.3272 0.60222 0.20085 0.0
H3044 H 0.3815 0.59535 0.20608 0.0
H3045 H 0.37234 0.57563 0.22851 0.0
H3046 H 0.31563 0.60318 0.24637 0.0
H3047 H 0.29375 0.59139 0.24295 0.0
H3048 H 0.30419 0.60398 0.22622 0.0
H3049 H 0.2995 0.577 0.20257 0.0
H3050 H 0.28889 0.56435 0.21921 0.0
H3051 H 0.30749 0.55768 0.20666 0.0
H3052 H 0.3579 0.55866 0.25196 0.0
H3053 H 0.33884 0.54433 0.27414 0.0
H3054 H 0.29354 0.56112 0.25324 0.0
C3055 C 0.33712 0.59635 0.2065 0.0
C3056 C 0.35508 0.60034 0.20167 0.0
C3057 C 0.36767 0.59251 0.20953 0.0
C3058 C 0.36261 0.58128 0.22229 0.0
C3059 C 0.34488 0.5779 0.22702 0.0
C3060 C 0.33229 0.58506 0.21929 0.0
C3061 C 0.31421 0.57971 0.22725 0.0
C3062 C 0.3065 0.59551 0.23623 0.0
C3063 C 0.30179 0.56905 0.21308 0.0
C3064 C 0.31869 0.5687 0.24087 0.0
C3065 C 0.33646 0.5678 0.24045 0.0
C3066 C 0.34391 0.55899 0.25222 0.0
C3067 C 0.33291 0.55079 0.26472 0.0
C3068 C 0.31458 0.55132 0.26533 0.0
C3069 C 0.30746 0.56044 0.25318 0.0
H3070 H 0.43987 0.31359 0.20762 0.0
H3071 H 0.47936 0.35386 0.1904 0.0
H3072 H 0.49623 0.35419 0.2176 0.0
H3073 H 0.44283 0.33058 0.25625 0.0
H3074 H 0.43911 0.30912 0.26266 0.0
H3075 H 0.42939 0.31335 0.24271 0.0
H3076 H 0.44397 0.28921 0.22446 0.0
H3077 H 0.45391 0.28507 0.24426 0.0
H3078 H 0.46747 0.29018 0.22519 0.0
H3079 H 0.51115 0.34633 0.24378 0.0
H3080 H 0.52119 0.3337 0.26882 0.0
H3081 H 0.4699 0.30175 0.27158 0.0
C3082 C 0.45185 0.32276 0.20982 0.0
C3083 C 0.45834 0.33369 0.19694 0.0
C3084 C 0.47409 0.34549 0.20019 0.0
C3085 C 0.48379 0.34572 0.21557 0.0
C3086 C 0.4773 0.33443 0.22779 0.0
C3087 C 0.46144 0.32351 0.22533 0.0
C3088 C 0.45762 0.31238 0.24028 0.0
C3089 C 0.44127 0.31662 0.25112 0.0
C3090 C 0.45563 0.29307 0.23311 0.0
C3091 C 0.47418 0.31817 0.25104 0.0
C3092 C 0.48539 0.33084 0.2436 0.0
C3093 C 0.50224 0.33681 0.25009 0.0
C3094 C 0.50779 0.32959 0.26448 0.0
C3095 C 0.49644 0.31666 0.27253 0.0
C3096 C 0.47922 0.31131 0.26581 0.0
H3097 H 0.71972 0.41388 0.16775 0.0
H3098 H 0.68914 0.38669 0.2077 0.0
H3099 H 0.70521 0.40659 0.23139 0.0
H3100 H 0.76042 0.42107 0.19067 0.0
H3101 H 0.76751 0.44217 0.18398 0.0
H3102 H 0.75295 0.42633 0.17006 0.0
H3103 H 0.7307 0.44778 0.17094 0.0
H3104 H 0.74514 0.46363 0.18505 0.0
H3105 H 0.72279 0.45701 0.19213 0.0
H3106 H 0.72484 0.42866 0.25081 0.0
H3107 H 0.74852 0.45051 0.26476 0.0
H3108 H 0.76682 0.46332 0.21256 0.0
C3109 C 0.71636 0.41216 0.18148 0.0
C3110 C 0.70314 0.39871 0.18582 0.0
C3111 C 0.69924 0.39684 0.20398 0.0
C3112 C 0.70822 0.40815 0.21758 0.0
C3113 C 0.72109 0.42129 0.21285 0.0
C3114 C 0.72528 0.42331 0.19528 0.0
C3115 C 0.7403 0.43802 0.19393 0.0
C3116 C 0.75624 0.4315 0.18408 0.0
C3117 C 0.73437 0.45247 0.18498 0.0
C3118 C 0.744 0.44376 0.21348 0.0
C3119 C 0.73261 0.43404 0.22415 0.0
C3120 C 0.7338 0.43643 0.24263 0.0
C3121 C 0.74727 0.44883 0.25042 0.0
C3122 C 0.75942 0.4586 0.23974 0.0
C3123 C 0.75751 0.45625 0.22106 0.0
H3124 H 0.62987 0.34739 0.78797 0.0
H3125 H 0.61025 0.36187 0.84132 0.0
H3126 H 0.58241 0.34244 0.83447 0.0
H3127 H 0.58598 0.34166 0.76531 0.0
H3128 H 0.59123 0.3235 0.75032 0.0
H3129 H 0.60846 0.3407 0.75834 0.0
H3130 H 0.62507 0.31848 0.76999 0.0
H3131 H 0.60789 0.30128 0.76218 0.0
H3132 H 0.61403 0.30444 0.78524 0.0
H3133 H 0.55935 0.3178 0.824 0.0
H3134 H 0.5421 0.29093 0.81016 0.0
H3135 H 0.57496 0.2938 0.76241 0.0
C3136 C 0.61951 0.34688 0.79802 0.0
C3137 C 0.62228 0.35618 0.81519 0.0
C3138 C 0.60848 0.35493 0.82806 0.0
C3139 C 0.59256 0.34394 0.82429 0.0
C3140 C 0.59049 0.33449 0.80747 0.0
C3141 C 0.60346 0.33606 0.79442 0.0
C3142 C 0.59847 0.32336 0.77796 0.0
C3143 C 0.59588 0.33288 0.76204 0.0
C3144 C 0.61218 0.31117 0.7736 0.0
C3145 C 0.58115 0.31383 0.78418 0.0
C3146 C 0.5767 0.32057 0.80116 0.0
C3147 C 0.56237 0.31273 0.81047 0.0
C3148 C 0.55252 0.29744 0.80237 0.0
C3149 C 0.55692 0.2901 0.78501 0.0
C3150 C 0.57117 0.29885 0.77569 0.0
H3151 H 0.71188 0.60045 0.84717 0.0
H3152 H 0.71579 0.59344 0.90269 0.0
H3153 H 0.73975 0.57633 0.89481 0.0
H3154 H 0.71931 0.55735 0.82931 0.0
H3155 H 0.73166 0.56442 0.81022 0.0
H3156 H 0.7149 0.57619 0.82026 0.0
H3157 H 0.7377 0.60422 0.82425 0.0
H3158 H 0.75453 0.59252 0.81426 0.0
H3159 H 0.75765 0.60455 0.83609 0.0
H3160 H 0.76433 0.56144 0.88109 0.0
H3161 H 0.78664 0.54832 0.86243 0.0
H3162 H 0.76484 0.56273 0.8154 0.0
C3163 C 0.71779 0.59532 0.85766 0.0
C3164 C 0.71207 0.59834 0.87556 0.0
C3165 C 0.71998 0.59126 0.88889 0.0
C3166 C 0.7336 0.58156 0.88455 0.0
C3167 C 0.73897 0.57885 0.86679 0.0
C3168 C 0.73119 0.58536 0.85352 0.0
C3169 C 0.73921 0.58031 0.83544 0.0
C3170 C 0.72545 0.56888 0.82308 0.0
C3171 C 0.74778 0.59636 0.82702 0.0
C3172 C 0.75289 0.57017 0.84065 0.0
C3173 C 0.7526 0.56957 0.85879 0.0
C3174 C 0.7645 0.56157 0.86682 0.0
C3175 C 0.77705 0.55399 0.85602 0.0
C3176 C 0.77751 0.55422 0.8373 0.0
C3177 C 0.76509 0.56238 0.82962 0.0
H3178 H 0.40466 0.74837 0.83284 0.0
H3179 H 0.43004 0.70946 0.85255 0.0
H3180 H 0.4591 0.72631 0.84689 0.0
H3181 H 0.43467 0.75676 0.79755 0.0
H3182 H 0.4341 0.77963 0.79999 0.0
H3183 H 0.4153 0.76507 0.80658 0.0
H3184 H 0.41611 0.78207 0.83824 0.0
H3185 H 0.43486 0.79676 0.83172 0.0
H3186 H 0.43608 0.78556 0.85078 0.0
H3187 H 0.48539 0.7468 0.83782 0.0
H3188 H 0.50691 0.76957 0.8262 0.0
H3189 H 0.46415 0.79499 0.81274 0.0
C3190 C 0.41631 0.74346 0.83615 0.0
C3191 C 0.41509 0.72761 0.84316 0.0
C3192 C 0.43066 0.7216 0.8472 0.0
C3193 C 0.44722 0.73107 0.84404 0.0
C3194 C 0.44796 0.74654 0.8369 0.0
C3195 C 0.43291 0.75273 0.83309 0.0
C3196 C 0.43728 0.76947 0.82505 0.0
C3197 C 0.4299 0.76761 0.80617 0.0
C3198 C 0.43069 0.78434 0.83718 0.0
C3199 C 0.45713 0.77157 0.82466 0.0
C3200 C 0.46306 0.75828 0.83165 0.0
C3201 C 0.48091 0.75734 0.83243 0.0
C3202 C 0.49302 0.77033 0.82586 0.0
C3203 C 0.48719 0.78401 0.81856 0.0
C3204 C 0.469 0.78459 0.81806 0.0
H3205 H 0.33007 0.38945 0.79017 0.0
H3206 H 0.36104 0.42621 0.82886 0.0
H3207 H 0.35396 0.45019 0.81394 0.0
H3208 H 0.3419 0.41287 0.75197 0.0
H3209 H 0.32028 0.40707 0.74257 0.0
H3210 H 0.32843 0.39284 0.75589 0.0
H3211 H 0.30098 0.39343 0.77663 0.0
H3212 H 0.2928 0.40772 0.76343 0.0
H3213 H 0.29577 0.41387 0.78701 0.0
H3214 H 0.34219 0.47031 0.79551 0.0
H3215 H 0.32714 0.48476 0.7749 0.0
H3216 H 0.30472 0.43472 0.74776 0.0
C3217 C 0.33551 0.40253 0.79543 0.0
C3218 C 0.34615 0.40592 0.8107 0.0
C3219 C 0.35291 0.42325 0.81717 0.0
C3220 C 0.34894 0.43698 0.80878 0.0
C3221 C 0.33827 0.43318 0.79387 0.0
C3222 C 0.33173 0.41637 0.7872 0.0
C3223 C 0.32028 0.41576 0.77121 0.0
C3224 C 0.3282 0.40659 0.75442 0.0
C3225 C 0.30134 0.40719 0.7748 0.0
C3226 C 0.32121 0.43486 0.77007 0.0
C3227 C 0.33167 0.44472 0.78321 0.0
C3228 C 0.3341 0.4627 0.78506 0.0
C3229 C 0.32556 0.4708 0.7732 0.0
C3230 C 0.31471 0.46094 0.75964 0.0
C3231 C 0.31271 0.44271 0.75808 0.0
H3232 H 0.71998 0.61612 0.21326 0.0
H3233 H 0.68847 0.57508 0.17934 0.0
H3234 H 0.7049 0.55383 0.18957 0.0
H3235 H 0.76099 0.5991 0.20639 0.0
H3236 H 0.76789 0.606 0.22901 0.0
H3237 H 0.75382 0.61787 0.21871 0.0
H3238 H 0.7311 0.61407 0.24455 0.0
H3239 H 0.7451 0.60216 0.25489 0.0
H3240 H 0.7227 0.59268 0.24984 0.0
H3241 H 0.72443 0.53683 0.20461 0.0
H3242 H 0.7453 0.52594 0.22282 0.0
H3243 H 0.76453 0.57852 0.24558 0.0
C3244 C 0.71654 0.60268 0.20792 0.0
C3245 C 0.70289 0.59728 0.19551 0.0
C3246 C 0.69888 0.57955 0.18884 0.0
C3247 C 0.70814 0.56737 0.19458 0.0
C3248 C 0.72148 0.57313 0.2069 0.0
C3249 C 0.72571 0.5904 0.2134 0.0
C3250 C 0.74051 0.59332 0.22658 0.0
C3251 C 0.75676 0.60475 0.21976 0.0
C3252 C 0.73448 0.60101 0.24506 0.0
C3253 C 0.74381 0.57498 0.22668 0.0
C3254 C 0.73276 0.56348 0.21526 0.0
C3255 C 0.73322 0.54577 0.21352 0.0
C3256 C 0.74518 0.5397 0.22384 0.0
C3257 C 0.75651 0.55131 0.23578 0.0
C3258 C 0.75586 0.5692 0.2369 0.0
H3259 H 0.71288 0.38799 0.82219 0.0
H3260 H 0.71593 0.40018 0.87956 0.0
H3261 H 0.73473 0.42787 0.87603 0.0
H3262 H 0.75619 0.40184 0.8137 0.0
H3263 H 0.75349 0.41078 0.79344 0.0
H3264 H 0.73722 0.39374 0.80008 0.0
H3265 H 0.7129 0.41268 0.799 0.0
H3266 H 0.72909 0.42976 0.79211 0.0
H3267 H 0.7154 0.43389 0.8115 0.0
H3268 H 0.75672 0.45142 0.8667 0.0
H3269 H 0.78037 0.46962 0.85228 0.0
H3270 H 0.76337 0.44295 0.80054 0.0
C3271 C 0.7169 0.39686 0.83396 0.0
C3272 C 0.71272 0.39215 0.85116 0.0
C3273 C 0.71884 0.40369 0.86628 0.0
C3274 C 0.72948 0.41945 0.86441 0.0
C3275 C 0.73395 0.42348 0.84729 0.0
C3276 C 0.72777 0.41261 0.83229 0.0
C3277 C 0.73633 0.41904 0.81553 0.0
C3278 C 0.7464 0.40554 0.80508 0.0
C3279 C 0.72261 0.42415 0.80385 0.0
C3280 C 0.74878 0.43475 0.82353 0.0
C3281 C 0.74694 0.43721 0.84184 0.0
C3282 C 0.75797 0.44993 0.85233 0.0
C3283 C 0.77136 0.46031 0.84395 0.0
C3284 C 0.77372 0.45798 0.82517 0.0
C3285 C 0.76199 0.44515 0.81488 0.0
H3286 H 0.64528 0.74864 0.86488 0.0
H3287 H 0.60048 0.71109 0.87736 0.0
H3288 H 0.58083 0.72686 0.86304 0.0
H3289 H 0.62318 0.78586 0.87284 0.0
H3290 H 0.63453 0.79613 0.85488 0.0
H3291 H 0.64499 0.78185 0.86613 0.0
H3292 H 0.64962 0.76351 0.83593 0.0
H3293 H 0.63907 0.77767 0.82459 0.0
H3294 H 0.63096 0.75484 0.82207 0.0
H3295 H 0.56607 0.74657 0.84688 0.0
H3296 H 0.55731 0.76922 0.83104 0.0
H3297 H 0.61172 0.79415 0.82989 0.0
C3298 C 0.63134 0.74373 0.86465 0.0
C3299 C 0.62444 0.72859 0.87224 0.0
C3300 C 0.60609 0.72266 0.87166 0.0
C3301 C 0.59481 0.7315 0.86352 0.0
C3302 C 0.60206 0.7463 0.85607 0.0
C3303 C 0.61989 0.75242 0.85665 0.0
C3304 C 0.62435 0.76871 0.84779 0.0
C3305 C 0.63222 0.78404 0.86121 0.0
C3306 C 0.63673 0.76601 0.83164 0.0
C3307 C 0.60625 0.77076 0.84207 0.0
C3308 C 0.59357 0.7577 0.84693 0.0
C3309 C 0.57589 0.7569 0.84307 0.0
C3310 C 0.57103 0.76987 0.83414 0.0
C3311 C 0.5838 0.78349 0.82918 0.0
C3312 C 0.60164 0.7838 0.83321 0.0
H3313 H 0.31742 0.59843 0.85679 0.0
H3314 H 0.37151 0.58956 0.85748 0.0
H3315 H 0.36556 0.56656 0.83222 0.0
H3316 H 0.29711 0.55217 0.84075 0.0
H3317 H 0.28187 0.55959 0.82716 0.0
H3318 H 0.28914 0.57221 0.84787 0.0
H3319 H 0.29942 0.59865 0.83106 0.0
H3320 H 0.29244 0.58614 0.81035 0.0
H3321 H 0.31486 0.59682 0.81271 0.0
H3322 H 0.35563 0.5492 0.8035 0.0
H3323 H 0.34242 0.53853 0.77423 0.0
H3324 H 0.29453 0.55813 0.79242 0.0
C3325 C 0.32785 0.5912 0.85211 0.0
C3326 C 0.34493 0.59577 0.85914 0.0
C3327 C 0.3583 0.58623 0.85237 0.0
C3328 C 0.35502 0.5731 0.83804 0.0
C3329 C 0.33826 0.56953 0.83079 0.0
C3330 C 0.32481 0.57815 0.83778 0.0
C3331 C 0.30871 0.57359 0.82622 0.0
C3332 C 0.2933 0.5638 0.83609 0.0
C3333 C 0.30358 0.58976 0.8197 0.0
C3334 C 0.31555 0.5619 0.81109 0.0
C3335 C 0.33249 0.5594 0.81414 0.0
C3336 C 0.3422 0.55063 0.80118 0.0
C3337 C 0.33455 0.54457 0.78458 0.0
C3338 C 0.31738 0.54742 0.78103 0.0
C3339 C 0.30766 0.55575 0.79471 0.0
H3340 H 0.39747 0.33133 0.80648 0.0
H3341 H 0.41184 0.33327 0.8617 0.0
H3342 H 0.43501 0.3158 0.85237 0.0
H3343 H 0.4023 0.28812 0.79371 0.0
H3344 H 0.41141 0.29103 0.77185 0.0
H3345 H 0.39712 0.30536 0.78241 0.0
H3346 H 0.42111 0.33166 0.77878 0.0
H3347 H 0.43546 0.3174 0.76809 0.0
H3348 H 0.44275 0.33233 0.78738 0.0
H3349 H 0.45433 0.29583 0.83785 0.0
H3350 H 0.46931 0.27495 0.81888 0.0
H3351 H 0.44385 0.28631 0.77245 0.0
C3352 C 0.40576 0.3284 0.81655 0.0
C3353 C 0.40283 0.33375 0.83484 0.0
C3354 C 0.41377 0.32934 0.84763 0.0
C3355 C 0.42703 0.31945 0.84246 0.0
C3356 C 0.42931 0.31405 0.82443 0.0
C3357 C 0.4191 0.31842 0.81162 0.0
C3358 C 0.4237 0.30998 0.79324 0.0
C3359 C 0.40768 0.29791 0.78482 0.0
C3360 C 0.4312 0.32366 0.78116 0.0
C3361 C 0.43774 0.29988 0.79786 0.0
C3362 C 0.44081 0.30256 0.81592 0.0
C3363 C 0.45236 0.29391 0.82362 0.0
C3364 C 0.46096 0.28213 0.81262 0.0
C3365 C 0.45814 0.27907 0.79399 0.0
C3366 C 0.44641 0.28828 0.78658 0.0
H3367 H 0.34323 0.39667 0.19931 0.0
H3368 H 0.39504 0.41762 0.22024 0.0
H3369 H 0.38201 0.43847 0.24156 0.0
H3370 H 0.3266 0.43767 0.20321 0.0
H3371 H 0.30473 0.42849 0.2097 0.0
H3372 H 0.31811 0.41546 0.19556 0.0
H3373 H 0.31414 0.39293 0.21795 0.0
H3374 H 0.30078 0.4059 0.23215 0.0
H3375 H 0.31998 0.39974 0.24089 0.0
H3376 H 0.36355 0.45598 0.26152 0.0
H3377 H 0.34076 0.46957 0.2788 0.0
H3378 H 0.30067 0.43837 0.24446 0.0
C3379 C 0.35184 0.40571 0.2083 0.0
C3380 C 0.37018 0.40548 0.20808 0.0
C3381 C 0.38098 0.41751 0.22012 0.0
C3382 C 0.3737 0.42944 0.23229 0.0
C3383 C 0.35562 0.42925 0.23223 0.0
C3384 C 0.3448 0.41777 0.22055 0.0
C3385 C 0.32572 0.42018 0.22356 0.0
C3386 C 0.31836 0.42579 0.20702 0.0
C3387 C 0.3145 0.40371 0.22896 0.0
C3388 C 0.32753 0.43465 0.23892 0.0
C3389 C 0.34491 0.43968 0.24364 0.0
C3390 C 0.34991 0.45236 0.25779 0.0
C3391 C 0.33682 0.46013 0.26743 0.0
C3392 C 0.31884 0.45533 0.26286 0.0
C3393 C 0.31424 0.4424 0.24833 0.0
H3394 H 0.62877 0.32667 0.20402 0.0
H3395 H 0.61953 0.37988 0.2105 0.0
H3396 H 0.60449 0.37569 0.23919 0.0
H3397 H 0.58697 0.30875 0.2241 0.0
H3398 H 0.59666 0.29349 0.23474 0.0
H3399 H 0.60597 0.30036 0.21419 0.0
H3400 H 0.63621 0.30985 0.22928 0.0
H3401 H 0.62693 0.30324 0.24994 0.0
H3402 H 0.63796 0.32503 0.24928 0.0
H3403 H 0.59205 0.36658 0.26761 0.0
H3404 H 0.58054 0.35222 0.29354 0.0
H3405 H 0.59724 0.30465 0.26903 0.0
C3406 C 0.62333 0.33735 0.21134 0.0
C3407 C 0.62532 0.35362 0.205 0.0
C3408 C 0.61818 0.36731 0.21507 0.0
C3409 C 0.60964 0.36508 0.23141 0.0
C3410 C 0.60831 0.34907 0.2375 0.0
C3411 C 0.61475 0.33536 0.22775 0.0
C3412 C 0.61172 0.31958 0.23759 0.0
C3413 C 0.59961 0.30466 0.22703 0.0
C3414 C 0.62925 0.31411 0.24177 0.0
C3415 C 0.60269 0.32665 0.25442 0.0
C3416 C 0.60093 0.34371 0.25404 0.0
C3417 C 0.59318 0.35318 0.26802 0.0
C3418 C 0.58666 0.3449 0.28266 0.0
C3419 C 0.58784 0.32729 0.2832 0.0
C3420 C 0.59623 0.31814 0.269 0.0
H3421 H 0.40911 0.68734 0.17828 0.0
H3422 H 0.36291 0.71276 0.18393 0.0
H3423 H 0.3803 0.7384 0.20034 0.0
H3424 H 0.42577 0.70145 0.22007 0.0
H3425 H 0.44866 0.70508 0.21354 0.0
H3426 H 0.43338 0.68943 0.20023 0.0
H3427 H 0.44241 0.70495 0.17245 0.0
H3428 H 0.4579 0.72058 0.18565 0.0
H3429 H 0.44136 0.72764 0.17338 0.0
H3430 H 0.40061 0.75842 0.22066 0.0
H3431 H 0.42345 0.77358 0.2407 0.0
H3432 H 0.45858 0.73778 0.2189 0.0
C3433 C 0.40277 0.69847 0.1826 0.0
C3434 C 0.38462 0.69802 0.17984 0.0
C3435 C 0.37679 0.7128 0.18578 0.0
C3436 C 0.38656 0.72744 0.19514 0.0
C3437 C 0.40425 0.72727 0.1981 0.0
C3438 C 0.41244 0.71336 0.19168 0.0
C3439 C 0.43147 0.71632 0.19745 0.0
C3440 C 0.43501 0.70223 0.20848 0.0
C3441 C 0.44403 0.71744 0.18127 0.0
C3442 C 0.43239 0.73367 0.20882 0.0
C3443 C 0.41652 0.73969 0.20896 0.0
C3444 C 0.41336 0.75428 0.22008 0.0
C3445 C 0.42673 0.763 0.23138 0.0
C3446 C 0.44346 0.7575 0.23128 0.0
C3447 C 0.44621 0.74264 0.21952 0.0
loop_
_geom_bond_atom_site_label_1
_geom_bond_atom_site_label_2
_geom_bond_distance
_geom_bond_site_symmetry_2
_ccdc_geom_bond_type
O0 Cd1 2.300 . S
O0 C7 1.275 . S
Cd1 O0 2.300 . S
Cd1 O9 2.381 . S
Cd1 O10 2.378 . S
O2 Cd3 2.385 . S
O2 C7 1.255 . S
Cd3 O2 2.385 . S
Cd3 O4 2.317 . S
O4 Cd3 2.317 . S
O4 C5 1.232 . S
C5 O4 1.232 . S
C5 O6 1.218 . S
O6 C5 1.218 . S
C7 O0 1.275 . S
C7 O2 1.255 . S
C8 O9 1.258 . S
C8 O10 1.256 . S
O9 Cd1 2.381 . S
O9 C8 1.258 . S
O10 Cd1 2.378 . S
O10 C8 1.256 . S
O11 Cd12 2.300 . S
O11 C18 1.275 . S
Cd12 O11 2.300 . S
Cd12 O20 2.381 . S
Cd12 O21 2.378 . S
O13 Cd14 2.385 . S
O13 C18 1.255 . S
Cd14 O13 2.385 . S
Cd14 O15 2.317 . S
O15 Cd14 2.317 . S
O15 C16 1.232 . S
C16 O15 1.232 . S
C16 O17 1.218 . S
O17 C16 1.218 . S
C18 O11 1.275 . S
C18 O13 1.255 . S
C19 O20 1.258 . S
C19 O21 1.256 . S
O20 Cd12 2.381 . S
O20 C19 1.258 . S
O21 Cd12 2.378 . S
O21 C19 1.256 . S
O22 Cd23 2.300 . S
O22 C29 1.275 . S
Cd23 O22 2.300 . S
Cd23 O31 2.381 . S
Cd23 O32 2.378 . S
O24 Cd25 2.385 . S
O24 C29 1.255 . S
Cd25 O24 2.385 . S
Cd25 O26 2.317 . S
O26 Cd25 2.317 . S
O26 C27 1.232 . S
C27 O26 1.232 . S
C27 O28 1.218 . S
O28 C27 1.218 . S
C29 O22 1.275 . S
C29 O24 1.255 . S
C30 O31 1.258 . S
C30 O32 1.256 . S
O31 Cd23 2.381 . S
O31 C30 1.258 . S
O32 Cd23 2.378 . S
O32 C30 1.256 . S
O33 Cd34 2.300 . S
O33 C40 1.275 . S
Cd34 O33 2.300 . S
Cd34 O42 2.381 . S
Cd34 O43 2.378 . S
O35 Cd36 2.385 . S
O35 C40 1.255 . S
Cd36 O35 2.385 . S
Cd36 O37 2.317 . S
O37 Cd36 2.317 . S
O37 C38 1.232 . S
C38 O37 1.232 . S
C38 O39 1.218 . S
O39 C38 1.218 . S
C40 O33 1.275 . S
C40 O35 1.255 . S
C41 O42 1.258 . S
C41 O43 1.256 . S
O42 Cd34 2.381 . S
O42 C41 1.258 . S
O43 Cd34 2.378 . S
O43 C41 1.256 . S
O44 Cd45 2.300 . S
O44 C51 1.275 . S
Cd45 O44 2.300 . S
Cd45 O53 2.381 . S
Cd45 O54 2.378 . S
O46 Cd47 2.385 . S
O46 C51 1.255 . S
Cd47 O46 2.385 . S
Cd47 O48 2.317 . S
O48 Cd47 2.317 . S
O48 C49 1.232 . S
C49 O48 1.232 . S
C49 O50 1.218 . S
O50 C49 1.218 . S
C51 O44 1.275 . S
C51 O46 1.255 . S
C52 O53 1.258 . S
C52 O54 1.256 . S
O53 Cd45 2.381 . S
O53 C52 1.258 . S
O54 Cd45 2.378 . S
O54 C52 1.256 . S
O55 Cd56 2.300 . S
O55 C62 1.275 . S
Cd56 O55 2.300 . S
Cd56 O64 2.381 . S
Cd56 O65 2.378 . S
O57 Cd58 2.385 . S
O57 C62 1.255 . S
Cd58 O57 2.385 . S
Cd58 O59 2.317 . S
O59 Cd58 2.317 . S
O59 C60 1.232 . S
C60 O59 1.232 . S
C60 O61 1.218 . S
O61 C60 1.218 . S
C62 O55 1.275 . S
C62 O57 1.255 . S
C63 O64 1.258 . S
C63 O65 1.256 . S
O64 Cd56 2.381 . S
O64 C63 1.258 . S
O65 Cd56 2.378 . S
O65 C63 1.256 . S
O66 Cd67 2.300 . S
O66 C73 1.275 . S
Cd67 O66 2.300 . S
Cd67 O75 2.381 . S
Cd67 O76 2.378 . S
O68 Cd69 2.385 . S
O68 C73 1.255 . S
Cd69 O68 2.385 . S
Cd69 O70 2.317 . S
O70 Cd69 2.317 . S
O70 C71 1.232 . S
C71 O70 1.232 . S
C71 O72 1.218 . S
O72 C71 1.218 . S
C73 O66 1.275 . S
C73 O68 1.255 . S
C74 O75 1.258 . S
C74 O76 1.256 . S
O75 Cd67 2.381 . S
O75 C74 1.258 . S
O76 Cd67 2.378 . S
O76 C74 1.256 . S
O77 Cd78 2.300 . S
O77 C84 1.275 . S
Cd78 O77 2.300 . S
Cd78 O86 2.381 . S
Cd78 O87 2.378 . S
O79 Cd80 2.385 . S
O79 C84 1.255 . S
Cd80 O79 2.385 . S
Cd80 O81 2.317 . S
O81 Cd80 2.317 . S
O81 C82 1.232 . S
C82 O81 1.232 . S
C82 O83 1.218 . S
O83 C82 1.218 . S
C84 O77 1.275 . S
C84 O79 1.255 . S
C85 O86 1.258 . S
C85 O87 1.256 . S
O86 Cd78 2.381 . S
O86 C85 1.258 . S
O87 Cd78 2.378 . S
O87 C85 1.256 . S
O88 Cd89 2.300 . S
O88 C95 1.275 . S
Cd89 O88 2.300 . S
Cd89 O97 2.381 . S
Cd89 O98 2.378 . S
O90 Cd91 2.385 . S
O90 C95 1.255 . S
Cd91 O90 2.385 . S
Cd91 O92 2.317 . S
O92 Cd91 2.317 . S
O92 C93 1.232 . S
C93 O92 1.232 . S
C93 O94 1.218 . S
O94 C93 1.218 . S
C95 O88 1.275 . S
C95 O90 1.255 . S
C96 O97 1.258 . S
C96 O98 1.256 . S
O97 Cd89 2.381 . S
O97 C96 1.258 . S
O98 Cd89 2.378 . S
O98 C96 1.256 . S
O99 Cd100 2.300 . S
O99 C106 1.275 . S
Cd100 O99 2.300 . S
Cd100 O108 2.381 . S
Cd100 O109 2.378 . S
O101 Cd102 2.385 . S
O101 C106 1.255 . S
Cd102 O101 2.385 . S
Cd102 O103 2.317 . S
O103 Cd102 2.317 . S
O103 C104 1.232 . S
C104 O103 1.232 . S
C104 O105 1.218 . S
O105 C104 1.218 . S
C106 O99 1.275 . S
C106 O101 1.255 . S
C107 O108 1.258 . S
C107 O109 1.256 . S
O108 Cd100 2.381 . S
O108 C107 1.258 . S
O109 Cd100 2.378 . S
O109 C107 1.256 . S
O110 Cd111 2.300 . S
O110 C117 1.275 . S
Cd111 O110 2.300 . S
Cd111 O119 2.381 . S
Cd111 O120 2.378 . S
O112 Cd113 2.385 . S
O112 C117 1.255 . S
Cd113 O112 2.385 . S
Cd113 O114 2.317 . S
O114 Cd113 2.317 . S
O114 C115 1.232 . S
C115 O114 1.232 . S
C115 O116 1.218 . S
O116 C115 1.218 . S
C117 O110 1.275 . S
C117 O112 1.255 . S
C118 O119 1.258 . S
C118 O120 1.256 . S
O119 Cd111 2.381 . S
O119 C118 1.258 . S
O120 Cd111 2.378 . S
O120 C118 1.256 . S
O121 Cd122 2.300 . S
O121 C128 1.275 . S
Cd122 O121 2.300 . S
Cd122 O130 2.381 . S
Cd122 O131 2.378 . S
O123 Cd124 2.385 . S
O123 C128 1.255 . S
Cd124 O123 2.385 . S
Cd124 O125 2.317 . S
O125 Cd124 2.317 . S
O125 C126 1.232 . S
C126 O125 1.232 . S
C126 O127 1.218 . S
O127 C126 1.218 . S
C128 O121 1.275 . S
C128 O123 1.255 . S
C129 O130 1.258 . S
C129 O131 1.256 . S
O130 Cd122 2.381 . S
O130 C129 1.258 . S
O131 Cd122 2.378 . S
O131 C129 1.256 . S
O132 Cd133 2.300 . S
O132 C139 1.275 . S
Cd133 O132 2.300 . S
Cd133 O141 2.381 . S
Cd133 O142 2.378 . S
O134 Cd135 2.385 . S
O134 C139 1.255 . S
Cd135 O134 2.385 . S
Cd135 O136 2.317 . S
O136 Cd135 2.317 . S
O136 C137 1.232 . S
C137 O136 1.232 . S
C137 O138 1.218 . S
O138 C137 1.218 . S
C139 O132 1.275 . S
C139 O134 1.255 . S
C140 O141 1.258 . S
C140 O142 1.256 . S
O141 Cd133 2.381 . S
O141 C140 1.258 . S
O142 Cd133 2.378 . S
O142 C140 1.256 . S
O143 Cd144 2.300 . S
O143 C150 1.275 . S
Cd144 O143 2.300 . S
Cd144 O152 2.381 . S
Cd144 O153 2.378 . S
O145 Cd146 2.385 . S
O145 C150 1.255 . S
Cd146 O145 2.385 . S
Cd146 O147 2.317 . S
O147 Cd146 2.317 . S
O147 C148 1.232 . S
C148 O147 1.232 . S
C148 O149 1.218 . S
O149 C148 1.218 . S
C150 O143 1.275 . S
C150 O145 1.255 . S
C151 O152 1.258 . S
C151 O153 1.256 . S
O152 Cd144 2.381 . S
O152 C151 1.258 . S
O153 Cd144 2.378 . S
O153 C151 1.256 . S
O154 Cd155 2.300 . S
O154 C161 1.275 . S
Cd155 O154 2.300 . S
Cd155 O163 2.381 . S
Cd155 O164 2.378 . S
O156 Cd157 2.385 . S
O156 C161 1.255 . S
Cd157 O156 2.385 . S
Cd157 O158 2.317 . S
O158 Cd157 2.317 . S
O158 C159 1.232 . S
C159 O158 1.232 . S
C159 O160 1.218 . S
O160 C159 1.218 . S
C161 O154 1.275 . S
C161 O156 1.255 . S
C162 O163 1.258 . S
C162 O164 1.256 . S
O163 Cd155 2.381 . S
O163 C162 1.258 . S
O164 Cd155 2.378 . S
O164 C162 1.256 . S
O165 Cd166 2.300 . S
O165 C172 1.275 . S
Cd166 O165 2.300 . S
Cd166 O174 2.381 . S
Cd166 O175 2.378 . S
O167 Cd168 2.385 . S
O167 C172 1.255 . S
Cd168 O167 2.385 . S
Cd168 O169 2.317 . S
O169 Cd168 2.317 . S
O169 C170 1.232 . S
C170 O169 1.232 . S
C170 O171 1.218 . S
O171 C170 1.218 . S
C172 O165 1.275 . S
C172 O167 1.255 . S
C173 O174 1.258 . S
C173 O175 1.256 . S
O174 Cd166 2.381 . S
O174 C173 1.258 . S
O175 Cd166 2.378 . S
O175 C173 1.256 . S
O176 Cd177 2.300 . S
O176 C183 1.275 . S
Cd177 O176 2.300 . S
Cd177 O185 2.381 . S
Cd177 O186 2.378 . S
O178 Cd179 2.385 . S
O178 C183 1.255 . S
Cd179 O178 2.385 . S
Cd179 O180 2.317 . S
O180 Cd179 2.317 . S
O180 C181 1.232 . S
C181 O180 1.232 . S
C181 O182 1.218 . S
O182 C181 1.218 . S
C183 O176 1.275 . S
C183 O178 1.255 . S
C184 O185 1.258 . S
C184 O186 1.256 . S
O185 Cd177 2.381 . S
O185 C184 1.258 . S
O186 Cd177 2.378 . S
O186 C184 1.256 . S
O187 Cd188 2.300 . S
O187 C194 1.275 . S
Cd188 O187 2.300 . S
Cd188 O196 2.381 . S
Cd188 O197 2.378 . S
O189 Cd190 2.385 . S
O189 C194 1.255 . S
Cd190 O189 2.385 . S
Cd190 O191 2.317 . S
O191 Cd190 2.317 . S
O191 C192 1.232 . S
C192 O191 1.232 . S
C192 O193 1.218 . S
O193 C192 1.218 . S
C194 O187 1.275 . S
C194 O189 1.255 . S
C195 O196 1.258 . S
C195 O197 1.256 . S
O196 Cd188 2.381 . S
O196 C195 1.258 . S
O197 Cd188 2.378 . S
O197 C195 1.256 . S
O198 Cd199 2.300 . S
O198 C205 1.275 . S
Cd199 O198 2.300 . S
Cd199 O207 2.381 . S
Cd199 O208 2.378 . S
O200 Cd201 2.385 . S
O200 C205 1.255 . S
Cd201 O200 2.385 . S
Cd201 O202 2.317 . S
O202 Cd201 2.317 . S
O202 C203 1.232 . S
C203 O202 1.232 . S
C203 O204 1.218 . S
O204 C203 1.218 . S
C205 O198 1.275 . S
C205 O200 1.255 . S
C206 O207 1.258 . S
C206 O208 1.256 . S
O207 Cd199 2.381 . S
O207 C206 1.258 . S
O208 Cd199 2.378 . S
O208 C206 1.256 . S
O209 Cd210 2.300 . S
O209 C216 1.275 . S
Cd210 O209 2.300 . S
Cd210 O218 2.381 . S
Cd210 O219 2.378 . S
O211 Cd212 2.385 . S
O211 C216 1.255 . S
Cd212 O211 2.385 . S
Cd212 O213 2.317 . S
O213 Cd212 2.317 . S
O213 C214 1.232 . S
C214 O213 1.232 . S
C214 O215 1.218 . S
O215 C214 1.218 . S
C216 O209 1.275 . S
C216 O211 1.255 . S
C217 O218 1.258 . S
C217 O219 1.256 . S
O218 Cd210 2.381 . S
O218 C217 1.258 . S
O219 Cd210 2.378 . S
O219 C217 1.256 . S
O220 Cd221 2.300 . S
O220 C227 1.275 . S
Cd221 O220 2.300 . S
Cd221 O229 2.381 . S
Cd221 O230 2.378 . S
O222 Cd223 2.385 . S
O222 C227 1.255 . S
Cd223 O222 2.385 . S
Cd223 O224 2.317 . S
O224 Cd223 2.317 . S
O224 C225 1.232 . S
C225 O224 1.232 . S
C225 O226 1.218 . S
O226 C225 1.218 . S
C227 O220 1.275 . S
C227 O222 1.255 . S
C228 O229 1.258 . S
C228 O230 1.256 . S
O229 Cd221 2.381 . S
O229 C228 1.258 . S
O230 Cd221 2.378 . S
O230 C228 1.256 . S
O231 Cd232 2.300 . S
O231 C238 1.275 . S
Cd232 O231 2.300 . S
Cd232 O240 2.381 . S
Cd232 O241 2.378 . S
O233 Cd234 2.385 . S
O233 C238 1.255 . S
Cd234 O233 2.385 . S
Cd234 O235 2.317 . S
O235 Cd234 2.317 . S
O235 C236 1.232 . S
C236 O235 1.232 . S
C236 O237 1.218 . S
O237 C236 1.218 . S
C238 O231 1.275 . S
C238 O233 1.255 . S
C239 O240 1.258 . S
C239 O241 1.256 . S
O240 Cd232 2.381 . S
O240 C239 1.258 . S
O241 Cd232 2.378 . S
O241 C239 1.256 . S
O242 Cd243 2.300 . S
O242 C249 1.275 . S
Cd243 O242 2.300 . S
Cd243 O251 2.381 . S
Cd243 O252 2.378 . S
O244 Cd245 2.385 . S
O244 C249 1.255 . S
Cd245 O244 2.385 . S
Cd245 O246 2.317 . S
O246 Cd245 2.317 . S
O246 C247 1.232 . S
C247 O246 1.232 . S
C247 O248 1.218 . S
O248 C247 1.218 . S
C249 O242 1.275 . S
C249 O244 1.255 . S
C250 O251 1.258 . S
C250 O252 1.256 . S
O251 Cd243 2.381 . S
O251 C250 1.258 . S
O252 Cd243 2.378 . S
O252 C250 1.256 . S
O253 Cd254 2.300 . S
O253 C260 1.275 . S
Cd254 O253 2.300 . S
Cd254 O262 2.381 . S
Cd254 O263 2.378 . S
O255 Cd256 2.385 . S
O255 C260 1.255 . S
Cd256 O255 2.385 . S
Cd256 O257 2.317 . S
O257 Cd256 2.317 . S
O257 C258 1.232 . S
C258 O257 1.232 . S
C258 O259 1.218 . S
O259 C258 1.218 . S
C260 O253 1.275 . S
C260 O255 1.255 . S
C261 O262 1.258 . S
C261 O263 1.256 . S
O262 Cd254 2.381 . S
O262 C261 1.258 . S
O263 Cd254 2.378 . S
O263 C261 1.256 . S
O264 Cd265 2.300 . S
O264 C271 1.275 . S
Cd265 O264 2.300 . S
Cd265 O273 2.381 . S
Cd265 O274 2.378 . S
O266 Cd267 2.385 . S
O266 C271 1.255 . S
Cd267 O266 2.385 . S
Cd267 O268 2.317 . S
O268 Cd267 2.317 . S
O268 C269 1.232 . S
C269 O268 1.232 . S
C269 O270 1.218 . S
O270 C269 1.218 . S
C271 O264 1.275 . S
C271 O266 1.255 . S
C272 O273 1.258 . S
C272 O274 1.256 . S
O273 Cd265 2.381 . S
O273 C272 1.258 . S
O274 Cd265 2.378 . S
O274 C272 1.256 . S
O275 Cd276 2.300 . S
O275 C282 1.275 . S
Cd276 O275 2.300 . S
Cd276 O284 2.381 . S
Cd276 O285 2.378 . S
O277 Cd278 2.385 . S
O277 C282 1.255 . S
Cd278 O277 2.385 . S
Cd278 O279 2.317 . S
O279 Cd278 2.317 . S
O279 C280 1.232 . S
C280 O279 1.232 . S
C280 O281 1.218 . S
O281 C280 1.218 . S
C282 O275 1.275 . S
C282 O277 1.255 . S
C283 O284 1.258 . S
C283 O285 1.256 . S
O284 Cd276 2.381 . S
O284 C283 1.258 . S
O285 Cd276 2.378 . S
O285 C283 1.256 . S
O286 Cd287 2.300 . S
O286 C293 1.275 . S
Cd287 O286 2.300 . S
Cd287 O295 2.381 . S
Cd287 O296 2.378 . S
O288 Cd289 2.385 . S
O288 C293 1.255 . S
Cd289 O288 2.385 . S
Cd289 O290 2.317 . S
O290 Cd289 2.317 . S
O290 C291 1.232 . S
C291 O290 1.232 . S
C291 O292 1.218 . S
O292 C291 1.218 . S
C293 O286 1.275 . S
C293 O288 1.255 . S
C294 O295 1.258 . S
C294 O296 1.256 . S
O295 Cd287 2.381 . S
O295 C294 1.258 . S
O296 Cd287 2.378 . S
O296 C294 1.256 . S
O297 Cd298 2.300 . S
O297 C304 1.275 . S
Cd298 O297 2.300 . S
Cd298 O306 2.381 . S
Cd298 O307 2.378 . S
O299 Cd300 2.385 . S
O299 C304 1.255 . S
Cd300 O299 2.385 . S
Cd300 O301 2.317 . S
O301 Cd300 2.317 . S
O301 C302 1.232 . S
C302 O301 1.232 . S
C302 O303 1.218 . S
O303 C302 1.218 . S
C304 O297 1.275 . S
C304 O299 1.255 . S
C305 O306 1.258 . S
C305 O307 1.256 . S
O306 Cd298 2.381 . S
O306 C305 1.258 . S
O307 Cd298 2.378 . S
O307 C305 1.256 . S
O308 Cd309 2.300 . S
O308 C315 1.275 . S
Cd309 O308 2.300 . S
Cd309 O317 2.381 . S
Cd309 O318 2.378 . S
O310 Cd311 2.385 . S
O310 C315 1.255 . S
Cd311 O310 2.385 . S
Cd311 O312 2.317 . S
O312 Cd311 2.317 . S
O312 C313 1.232 . S
C313 O312 1.232 . S
C313 O314 1.218 . S
O314 C313 1.218 . S
C315 O308 1.275 . S
C315 O310 1.255 . S
C316 O317 1.258 . S
C316 O318 1.256 . S
O317 Cd309 2.381 . S
O317 C316 1.258 . S
O318 Cd309 2.378 . S
O318 C316 1.256 . S
O319 Cd320 2.300 . S
O319 C326 1.275 . S
Cd320 O319 2.300 . S
Cd320 O328 2.381 . S
Cd320 O329 2.378 . S
O321 Cd322 2.385 . S
O321 C326 1.255 . S
Cd322 O321 2.385 . S
Cd322 O323 2.317 . S
O323 Cd322 2.317 . S
O323 C324 1.232 . S
C324 O323 1.232 . S
C324 O325 1.218 . S
O325 C324 1.218 . S
C326 O319 1.275 . S
C326 O321 1.255 . S
C327 O328 1.258 . S
C327 O329 1.256 . S
O328 Cd320 2.381 . S
O328 C327 1.258 . S
O329 Cd320 2.378 . S
O329 C327 1.256 . S
O330 Cd331 2.300 . S
O330 C337 1.275 . S
Cd331 O330 2.300 . S
Cd331 O339 2.381 . S
Cd331 O340 2.378 . S
O332 Cd333 2.385 . S
O332 C337 1.255 . S
Cd333 O332 2.385 . S
Cd333 O334 2.317 . S
O334 Cd333 2.317 . S
O334 C335 1.232 . S
C335 O334 1.232 . S
C335 O336 1.218 . S
O336 C335 1.218 . S
C337 O330 1.275 . S
C337 O332 1.255 . S
C338 O339 1.258 . S
C338 O340 1.256 . S
O339 Cd331 2.381 . S
O339 C338 1.258 . S
O340 Cd331 2.378 . S
O340 C338 1.256 . S
O341 Cd342 2.300 . S
O341 C348 1.275 . S
Cd342 O341 2.300 . S
Cd342 O350 2.381 . S
Cd342 O351 2.378 . S
O343 Cd344 2.385 . S
O343 C348 1.255 . S
Cd344 O343 2.385 . S
Cd344 O345 2.317 . S
O345 Cd344 2.317 . S
O345 C346 1.232 . S
C346 O345 1.232 . S
C346 O347 1.218 . S
O347 C346 1.218 . S
C348 O341 1.275 . S
C348 O343 1.255 . S
C349 O350 1.258 . S
C349 O351 1.256 . S
O350 Cd342 2.381 . S
O350 C349 1.258 . S
O351 Cd342 2.378 . S
O351 C349 1.256 . S
H352 C360 0.930 . S
H353 C363 0.930 . S
H354 C365 0.930 . S
H355 C366 0.970 . S
H356 C366 0.970 . S
H357 C368 0.930 . S
H358 C370 0.930 . S
H359 C372 0.930 . S
C360 H352 0.930 . S
C360 C361 1.382 . S
C360 C362 1.426 . S
C361 C360 1.382 . S
C361 C365 1.389 1_554 S
C362 C360 1.426 . S
C362 C363 1.375 . S
C362 C366 1.532 . S
C363 H353 0.930 . S
C363 C362 1.375 . S
C363 C364 1.416 . S
C364 C363 1.416 . S
C364 C365 1.371 1_554 S
C365 H354 0.930 . S
C365 C361 1.389 1_556 S
C365 C364 1.371 1_556 S
C366 H355 0.970 . S
C366 H356 0.970 . S
C366 C362 1.532 . S
C366 C367 1.499 . S
C367 C366 1.499 . S
C367 C368 1.370 . S
C367 C372 1.415 . S
C368 H357 0.930 . S
C368 C367 1.370 . S
C368 C369 1.407 . S
C369 C368 1.407 . S
C369 C370 1.365 . S
C370 H358 0.930 . S
C370 C369 1.365 . S
C370 C371 1.393 . S
C371 C370 1.393 . S
C371 C372 1.387 . S
C372 H359 0.930 . S
C372 C367 1.415 . S
C372 C371 1.387 . S
H373 C381 0.930 . S
H374 C384 0.930 . S
H375 C386 0.930 . S
H376 C387 0.970 . S
H377 C387 0.970 . S
H378 C389 0.930 . S
H379 C391 0.930 . S
H380 C393 0.930 . S
C381 H373 0.930 . S
C381 C382 1.382 . S
C381 C383 1.426 . S
C382 C381 1.382 . S
C382 C386 1.389 . S
C383 C381 1.426 . S
C383 C384 1.375 . S
C383 C387 1.532 1_554 S
C384 H374 0.930 . S
C384 C383 1.375 . S
C384 C385 1.416 . S
C385 C384 1.416 . S
C385 C386 1.371 . S
C386 H375 0.930 . S
C386 C382 1.389 . S
C386 C385 1.371 . S
C387 H376 0.970 . S
C387 H377 0.970 . S
C387 C383 1.532 1_556 S
C387 C388 1.499 . S
C388 C387 1.499 . S
C388 C389 1.370 . S
C388 C393 1.415 . S
C389 H378 0.930 . S
C389 C388 1.370 . S
C389 C390 1.407 . S
C390 C389 1.407 . S
C390 C391 1.365 . S
C391 H379 0.930 . S
C391 C390 1.365 . S
C391 C392 1.393 . S
C392 C391 1.393 . S
C392 C393 1.387 . S
C393 H380 0.930 . S
C393 C388 1.415 . S
C393 C392 1.387 . S
H394 C402 0.930 . S
H395 C405 0.930 . S
H396 C407 0.930 . S
H397 C408 0.970 . S
H398 C408 0.970 . S
H399 C410 0.930 . S
H400 C412 0.930 . S
H401 C414 0.930 . S
C402 H394 0.930 . S
C402 C403 1.382 . S
C402 C404 1.426 . S
C403 C402 1.382 . S
C403 C407 1.389 . S
C404 C402 1.426 . S
C404 C405 1.375 . S
C404 C408 1.532 . S
C405 H395 0.930 . S
C405 C404 1.375 . S
C405 C406 1.416 . S
C406 C405 1.416 . S
C406 C407 1.371 . S
C407 H396 0.930 . S
C407 C403 1.389 . S
C407 C406 1.371 . S
C408 H397 0.970 . S
C408 H398 0.970 . S
C408 C404 1.532 . S
C408 C409 1.499 . S
C409 C408 1.499 . S
C409 C410 1.370 . S
C409 C414 1.415 . S
C410 H399 0.930 . S
C410 C409 1.370 . S
C410 C411 1.407 . S
C411 C410 1.407 . S
C411 C412 1.365 1_554 S
C412 H400 0.930 . S
C412 C411 1.365 1_556 S
C412 C413 1.393 1_556 S
C413 C412 1.393 1_554 S
C413 C414 1.387 . S
C414 H401 0.930 . S
C414 C409 1.415 . S
C414 C413 1.387 . S
H415 C423 0.930 . S
H416 C426 0.930 . S
H417 C428 0.930 . S
H418 C429 0.970 . S
H419 C429 0.970 . S
H420 C431 0.930 . S
H421 C433 0.930 . S
H422 C435 0.930 . S
C423 H415 0.930 . S
C423 C424 1.382 . S
C423 C425 1.426 . S
C424 C423 1.382 . S
C424 C428 1.389 . S
C425 C423 1.426 . S
C425 C426 1.375 . S
C425 C429 1.532 1_554 S
C426 H416 0.930 . S
C426 C425 1.375 . S
C426 C427 1.416 . S
C427 C426 1.416 . S
C427 C428 1.371 . S
C428 H417 0.930 . S
C428 C424 1.389 . S
C428 C427 1.371 . S
C429 H418 0.970 . S
C429 H419 0.970 . S
C429 C425 1.532 1_556 S
C429 C430 1.499 . S
C430 C429 1.499 . S
C430 C431 1.370 . S
C430 C435 1.415 . S
C431 H420 0.930 . S
C431 C430 1.370 . S
C431 C432 1.407 . S
C432 C431 1.407 . S
C432 C433 1.365 . S
C433 H421 0.930 . S
C433 C432 1.365 . S
C433 C434 1.393 . S
C434 C433 1.393 . S
C434 C435 1.387 . S
C435 H422 0.930 . S
C435 C430 1.415 . S
C435 C434 1.387 . S
H436 C444 0.930 . S
H437 C447 0.930 . S
H438 C449 0.930 . S
H439 C450 0.969 1_655 S
H440 C450 0.970 . S
H441 C452 0.930 . S
H442 C454 0.930 . S
H443 C456 0.930 . S
C444 H436 0.930 . S
C444 C445 1.382 . S
C444 C446 1.426 . S
C445 C444 1.382 . S
C445 C449 1.389 . S
C446 C444 1.426 . S
C446 C447 1.375 . S
C446 C450 1.532 . S
C447 H437 0.930 . S
C447 C446 1.375 . S
C447 C448 1.416 . S
C448 C447 1.416 . S
C448 C449 1.371 . S
C449 H438 0.930 . S
C449 C445 1.389 . S
C449 C448 1.371 . S
C450 H439 0.969 1_455 S
C450 H440 0.970 . S
C450 C446 1.532 . S
C450 C451 1.499 1_455 S
C451 C450 1.499 1_655 S
C451 C452 1.370 . S
C451 C456 1.415 . S
C452 H441 0.930 . S
C452 C451 1.370 . S
C452 C453 1.407 . S
C453 C452 1.407 . S
C453 C454 1.365 . S
C454 H442 0.930 . S
C454 C453 1.365 . S
C454 C455 1.393 . S
C455 C454 1.393 . S
C455 C456 1.387 . S
C456 H443 0.930 . S
C456 C451 1.415 . S
C456 C455 1.387 . S
H457 C465 0.930 . S
H458 C468 0.930 . S
H459 C470 0.930 . S
H460 C471 0.970 . S
H461 C471 0.970 . S
H462 C473 0.930 . S
H463 C475 0.930 . S
H464 C477 0.930 . S
C465 H457 0.930 . S
C465 C466 1.382 . S
C465 C467 1.426 . S
C466 C465 1.382 . S
C466 C470 1.389 . S
C467 C465 1.426 . S
C467 C468 1.375 . S
C467 C471 1.532 . S
C468 H458 0.930 . S
C468 C467 1.375 . S
C468 C469 1.416 . S
C469 C468 1.416 . S
C469 C470 1.371 . S
C470 H459 0.930 . S
C470 C466 1.389 . S
C470 C469 1.371 . S
C471 H460 0.970 . S
C471 H461 0.970 . S
C471 C467 1.532 . S
C471 C472 1.499 1_545 S
C472 C471 1.499 1_565 S
C472 C473 1.370 . S
C472 C477 1.415 . S
C473 H462 0.930 . S
C473 C472 1.370 . S
C473 C474 1.407 . S
C474 C473 1.407 . S
C474 C475 1.365 . S
C475 H463 0.930 . S
C475 C474 1.365 . S
C475 C476 1.393 . S
C476 C475 1.393 . S
C476 C477 1.387 . S
C477 H464 0.930 . S
C477 C472 1.415 . S
C477 C476 1.387 . S
H478 C486 0.930 . S
H479 C489 0.930 . S
H480 C491 0.930 . S
H481 C492 0.970 . S
H482 C492 0.970 . S
H483 C494 0.930 . S
H484 C496 0.930 . S
H485 C498 0.930 . S
C486 H478 0.930 . S
C486 C487 1.382 . S
C486 C488 1.426 . S
C487 C486 1.382 . S
C487 C491 1.389 . S
C488 C486 1.426 . S
C488 C489 1.375 . S
C488 C492 1.532 . S
C489 H479 0.930 . S
C489 C488 1.375 . S
C489 C490 1.416 . S
C490 C489 1.416 . S
C490 C491 1.371 . S
C491 H480 0.930 . S
C491 C487 1.389 . S
C491 C490 1.371 . S
C492 H481 0.970 . S
C492 H482 0.970 . S
C492 C488 1.532 . S
C492 C493 1.499 . S
C493 C492 1.499 . S
C493 C494 1.370 . S
C493 C498 1.415 . S
C494 H483 0.930 . S
C494 C493 1.370 . S
C494 C495 1.407 . S
C495 C494 1.407 . S
C495 C496 1.365 . S
C496 H484 0.930 . S
C496 C495 1.365 . S
C496 C497 1.393 . S
C497 C496 1.393 . S
C497 C498 1.387 . S
C498 H485 0.930 . S
C498 C493 1.415 . S
C498 C497 1.387 . S
H499 C507 0.930 . S
H500 C510 0.930 1_545 S
H501 C512 0.930 . S
H502 C513 0.970 . S
H503 C513 0.970 . S
H504 C515 0.930 . S
H505 C517 0.930 . S
H506 C519 0.930 . S
C507 H499 0.930 . S
C507 C508 1.382 . S
C507 C509 1.414 1_565 S
C508 C507 1.382 . S
C508 C512 1.389 . S
C509 C507 1.414 1_545 S
C509 C510 1.367 1_545 S
C509 C513 1.552 . S
C510 H500 0.930 1_565 S
C510 C509 1.367 1_565 S
C510 C511 1.416 . S
C511 C510 1.416 . S
C511 C512 1.371 . S
C512 H501 0.930 . S
C512 C508 1.389 . S
C512 C511 1.371 . S
C513 H502 0.970 . S
C513 H503 0.970 . S
C513 C509 1.552 . S
C513 C514 1.499 . S
C514 C513 1.499 . S
C514 C515 1.370 . S
C514 C519 1.415 . S
C515 H504 0.930 . S
C515 C514 1.370 . S
C515 C516 1.407 . S
C516 C515 1.407 . S
C516 C517 1.365 . S
C517 H505 0.930 . S
C517 C516 1.365 . S
C517 C518 1.393 . S
C518 C517 1.393 . S
C518 C519 1.387 . S
C519 H506 0.930 . S
C519 C514 1.415 . S
C519 C518 1.387 . S
H520 C528 0.930 . S
H521 C531 0.930 . S
H522 C533 0.930 . S
H523 C534 0.970 . S
H524 C534 0.970 1_655 S
H525 C536 0.930 . S
H526 C538 0.930 . S
H527 C540 0.930 . S
C528 H520 0.930 . S
C528 C529 1.382 . S
C528 C530 1.426 . S
C529 C528 1.382 . S
C529 C533 1.389 . S
C530 C528 1.426 . S
C530 C531 1.375 . S
C530 C534 1.532 1_655 S
C531 H521 0.930 . S
C531 C530 1.375 . S
C531 C532 1.416 . S
C532 C531 1.416 . S
C532 C533 1.371 . S
C533 H522 0.930 . S
C533 C529 1.389 . S
C533 C532 1.371 . S
C534 H523 0.970 . S
C534 H524 0.970 1_455 S
C534 C530 1.532 1_455 S
C534 C535 1.499 . S
C535 C534 1.499 . S
C535 C536 1.370 . S
C535 C540 1.415 . S
C536 H525 0.930 . S
C536 C535 1.370 . S
C536 C537 1.407 . S
C537 C536 1.407 . S
C537 C538 1.365 . S
C538 H526 0.930 . S
C538 C537 1.365 . S
C538 C539 1.393 . S
C539 C538 1.393 . S
C539 C540 1.387 . S
C540 H527 0.930 . S
C540 C535 1.415 . S
C540 C539 1.387 . S
H541 C549 0.930 . S
H542 C552 0.930 . S
H543 C554 0.930 . S
H544 C555 0.970 . S
H545 C555 0.970 . S
H546 C557 0.930 . S
H547 C559 0.930 . S
H548 C561 0.930 . S
C549 H541 0.930 . S
C549 C550 1.382 . S
C549 C551 1.426 . S
C550 C549 1.382 . S
C550 C554 1.389 . S
C551 C549 1.426 . S
C551 C552 1.375 . S
C551 C555 1.532 1_565 S
C552 H542 0.930 . S
C552 C551 1.375 . S
C552 C553 1.416 . S
C553 C552 1.416 . S
C553 C554 1.371 . S
C554 H543 0.930 . S
C554 C550 1.389 . S
C554 C553 1.371 . S
C555 H544 0.970 . S
C555 H545 0.970 . S
C555 C551 1.532 1_545 S
C555 C556 1.499 . S
C556 C555 1.499 . S
C556 C557 1.370 . S
C556 C561 1.415 . S
C557 H546 0.930 . S
C557 C556 1.370 . S
C557 C558 1.407 . S
C558 C557 1.407 . S
C558 C559 1.365 . S
C559 H547 0.930 . S
C559 C558 1.365 . S
C559 C560 1.393 . S
C560 C559 1.393 . S
C560 C561 1.387 . S
C561 H548 0.930 . S
C561 C556 1.415 . S
C561 C560 1.387 . S
H562 C570 0.930 . S
H563 C573 0.930 . S
H564 C575 0.930 . S
H565 C576 0.970 . S
H566 C576 0.970 . S
H567 C578 0.930 . S
H568 C580 0.930 . S
H569 C582 0.930 . S
C570 H562 0.930 . S
C570 C571 1.382 . S
C570 C572 1.426 . S
C571 C570 1.382 . S
C571 C575 1.389 . S
C572 C570 1.426 . S
C572 C573 1.375 . S
C572 C576 1.532 . S
C573 H563 0.930 . S
C573 C572 1.375 . S
C573 C574 1.416 . S
C574 C573 1.416 . S
C574 C575 1.371 . S
C575 H564 0.930 . S
C575 C571 1.389 . S
C575 C574 1.371 . S
C576 H565 0.970 . S
C576 H566 0.970 . S
C576 C572 1.532 . S
C576 C577 1.499 . S
C577 C576 1.499 . S
C577 C578 1.370 . S
C577 C582 1.415 . S
C578 H567 0.930 . S
C578 C577 1.370 . S
C578 C579 1.407 . S
C579 C578 1.407 . S
C579 C580 1.365 . S
C580 H568 0.930 . S
C580 C579 1.365 . S
C580 C581 1.393 . S
C581 C580 1.393 . S
C581 C582 1.387 . S
C582 H569 0.930 . S
C582 C577 1.415 . S
C582 C581 1.387 . S
H583 C591 0.930 . S
H584 C594 0.911 1_545 S
H585 C596 0.930 . S
H586 C597 0.970 . S
H587 C597 0.970 . S
H588 C599 0.930 . S
H589 C601 0.930 . S
H590 C603 0.930 . S
C591 H583 0.930 . S
C591 C592 1.382 . S
C591 C593 1.426 1_565 S
C592 C591 1.382 . S
C592 C596 1.389 . S
C593 C591 1.426 1_545 S
C593 C594 1.362 1_545 S
C593 C597 1.532 . S
C594 H584 0.911 1_565 S
C594 C593 1.362 1_565 S
C594 C595 1.449 . S
C595 C594 1.449 . S
C595 C596 1.371 . S
C596 H585 0.930 . S
C596 C592 1.389 . S
C596 C595 1.371 . S
C597 H586 0.970 . S
C597 H587 0.970 . S
C597 C593 1.532 . S
C597 C598 1.499 . S
C598 C597 1.499 . S
C598 C599 1.370 . S
C598 C603 1.415 . S
C599 H588 0.930 . S
C599 C598 1.370 . S
C599 C600 1.407 . S
C600 C599 1.407 . S
C600 C601 1.365 . S
C601 H589 0.930 . S
C601 C600 1.365 . S
C601 C602 1.393 . S
C602 C601 1.393 . S
C602 C603 1.387 . S
C603 H590 0.930 . S
C603 C598 1.415 . S
C603 C602 1.387 . S
H604 C612 0.930 . S
H605 C615 0.930 . S
H606 C617 0.930 . S
H607 C618 0.970 . S
H608 C618 0.970 . S
H609 C620 0.930 . S
H610 C622 0.930 . S
H611 C624 0.930 . S
C612 H604 0.930 . S
C612 C613 1.382 . S
C612 C614 1.426 . S
C613 C612 1.382 . S
C613 C617 1.389 . S
C614 C612 1.426 . S
C614 C615 1.375 . S
C614 C618 1.532 . S
C615 H605 0.930 . S
C615 C614 1.375 . S
C615 C616 1.416 . S
C616 C615 1.416 . S
C616 C617 1.371 . S
C617 H606 0.930 . S
C617 C613 1.389 . S
C617 C616 1.371 . S
C618 H607 0.970 . S
C618 H608 0.970 . S
C618 C614 1.532 . S
C618 C619 1.499 . S
C619 C618 1.499 . S
C619 C620 1.370 . S
C619 C624 1.415 . S
C620 H609 0.930 . S
C620 C619 1.370 . S
C620 C621 1.407 . S
C621 C620 1.407 . S
C621 C622 1.365 . S
C622 H610 0.930 . S
C622 C621 1.365 . S
C622 C623 1.393 . S
C623 C622 1.393 . S
C623 C624 1.387 . S
C624 H611 0.930 . S
C624 C619 1.415 . S
C624 C623 1.387 . S
H625 C633 0.930 . S
H626 C636 0.930 . S
H627 C638 0.930 . S
H628 C639 0.970 . S
H629 C639 0.970 . S
H630 C641 0.930 . S
H631 C643 0.930 . S
H632 C645 0.930 . S
C633 H625 0.930 . S
C633 C634 1.382 . S
C633 C635 1.426 . S
C634 C633 1.382 . S
C634 C638 1.389 . S
C635 C633 1.426 . S
C635 C636 1.375 . S
C635 C639 1.532 . S
C636 H626 0.930 . S
C636 C635 1.375 . S
C636 C637 1.416 . S
C637 C636 1.416 . S
C637 C638 1.371 . S
C638 H627 0.930 . S
C638 C634 1.389 . S
C638 C637 1.371 . S
C639 H628 0.970 . S
C639 H629 0.970 . S
C639 C635 1.532 . S
C639 C640 1.499 . S
C640 C639 1.499 . S
C640 C641 1.370 . S
C640 C645 1.415 . S
C641 H630 0.930 . S
C641 C640 1.370 . S
C641 C642 1.407 . S
C642 C641 1.407 . S
C642 C643 1.365 . S
C643 H631 0.930 . S
C643 C642 1.365 . S
C643 C644 1.393 . S
C644 C643 1.393 . S
C644 C645 1.387 . S
C645 H632 0.930 . S
C645 C640 1.415 . S
C645 C644 1.387 . S
H646 C654 0.930 . S
H647 C657 0.930 . S
H648 C659 0.930 . S
H649 C660 0.970 . S
H650 C660 0.970 . S
H651 C662 0.930 . S
H652 C664 0.930 . S
H653 C666 0.930 . S
C654 H646 0.930 . S
C654 C655 1.382 . S
C654 C656 1.426 . S
C655 C654 1.382 . S
C655 C659 1.389 . S
C656 C654 1.426 . S
C656 C657 1.375 . S
C656 C660 1.532 . S
C657 H647 0.930 . S
C657 C656 1.375 . S
C657 C658 1.416 . S
C658 C657 1.416 . S
C658 C659 1.371 . S
C659 H648 0.930 . S
C659 C655 1.389 . S
C659 C658 1.371 . S
C660 H649 0.970 . S
C660 H650 0.970 . S
C660 C656 1.532 . S
C660 C661 1.499 . S
C661 C660 1.499 . S
C661 C662 1.370 . S
C661 C666 1.415 . S
C662 H651 0.930 . S
C662 C661 1.370 . S
C662 C663 1.407 . S
C663 C662 1.407 . S
C663 C664 1.365 . S
C664 H652 0.930 . S
C664 C663 1.365 . S
C664 C665 1.393 . S
C665 C664 1.393 . S
C665 C666 1.387 . S
C666 H653 0.930 . S
C666 C661 1.415 . S
C666 C665 1.387 . S
H667 C675 0.930 . S
H668 C678 0.930 . S
H669 C680 0.930 . S
H670 C681 0.970 . S
H671 C681 0.970 . S
H672 C683 0.930 . S
H673 C685 0.930 . S
H674 C687 0.930 . S
C675 H667 0.930 . S
C675 C676 1.382 . S
C675 C677 1.426 . S
C676 C675 1.382 . S
C676 C680 1.389 . S
C677 C675 1.426 . S
C677 C678 1.375 . S
C677 C681 1.532 . S
C678 H668 0.930 . S
C678 C677 1.375 . S
C678 C679 1.416 . S
C679 C678 1.416 . S
C679 C680 1.371 . S
C680 H669 0.930 . S
C680 C676 1.389 . S
C680 C679 1.371 . S
C681 H670 0.970 . S
C681 H671 0.970 . S
C681 C677 1.532 . S
C681 C682 1.499 . S
C682 C681 1.499 . S
C682 C683 1.370 . S
C682 C687 1.415 . S
C683 H672 0.930 . S
C683 C682 1.370 . S
C683 C684 1.407 . S
C684 C683 1.407 . S
C684 C685 1.365 . S
C685 H673 0.930 . S
C685 C684 1.365 . S
C685 C686 1.393 . S
C686 C685 1.393 . S
C686 C687 1.387 . S
C687 H674 0.930 . S
C687 C682 1.415 . S
C687 C686 1.387 . S
H688 C696 0.930 . S
H689 C699 0.930 . S
H690 C701 0.930 . S
H691 C702 0.970 . S
H692 C702 0.970 . S
H693 C704 0.930 . S
H694 C706 0.930 . S
H695 C708 0.930 . S
C696 H688 0.930 . S
C696 C697 1.382 . S
C696 C698 1.426 . S
C697 C696 1.382 . S
C697 C701 1.389 . S
C698 C696 1.426 . S
C698 C699 1.375 . S
C698 C702 1.532 . S
C699 H689 0.930 . S
C699 C698 1.375 . S
C699 C700 1.416 . S
C700 C699 1.416 . S
C700 C701 1.371 . S
C701 H690 0.930 . S
C701 C697 1.389 . S
C701 C700 1.371 . S
C702 H691 0.970 . S
C702 H692 0.970 . S
C702 C698 1.532 . S
C702 C703 1.499 . S
C703 C702 1.499 . S
C703 C704 1.370 . S
C703 C708 1.415 . S
C704 H693 0.930 . S
C704 C703 1.370 . S
C704 C705 1.407 . S
C705 C704 1.407 . S
C705 C706 1.365 . S
C706 H694 0.930 . S
C706 C705 1.365 . S
C706 C707 1.393 . S
C707 C706 1.393 . S
C707 C708 1.387 . S
C708 H695 0.930 . S
C708 C703 1.415 . S
C708 C707 1.387 . S
H709 C717 0.930 . S
H710 C720 0.930 . S
H711 C722 0.930 . S
H712 C723 0.970 . S
H713 C723 0.970 . S
H714 C725 0.930 . S
H715 C727 0.930 . S
H716 C729 0.930 . S
C717 H709 0.930 . S
C717 C718 1.382 . S
C717 C719 1.426 . S
C718 C717 1.382 . S
C718 C722 1.389 . S
C719 C717 1.426 . S
C719 C720 1.375 . S
C719 C723 1.532 . S
C720 H710 0.930 . S
C720 C719 1.375 . S
C720 C721 1.416 . S
C721 C720 1.416 . S
C721 C722 1.371 . S
C722 H711 0.930 . S
C722 C718 1.389 . S
C722 C721 1.371 . S
C723 H712 0.970 . S
C723 H713 0.970 . S
C723 C719 1.532 . S
C723 C724 1.499 . S
C724 C723 1.499 . S
C724 C725 1.370 . S
C724 C729 1.415 . S
C725 H714 0.930 . S
C725 C724 1.370 . S
C725 C726 1.407 . S
C726 C725 1.407 . S
C726 C727 1.365 . S
C727 H715 0.930 . S
C727 C726 1.365 . S
C727 C728 1.393 . S
C728 C727 1.393 . S
C728 C729 1.387 . S
C729 H716 0.930 . S
C729 C724 1.415 . S
C729 C728 1.387 . S
H730 C738 0.930 . S
H731 C741 0.930 . S
H732 C743 0.930 . S
H733 C744 0.970 . S
H734 C744 0.970 . S
H735 C746 0.930 . S
H736 C748 0.930 . S
H737 C750 0.930 . S
C738 H730 0.930 . S
C738 C739 1.382 . S
C738 C740 1.426 . S
C739 C738 1.382 . S
C739 C743 1.389 . S
C740 C738 1.426 . S
C740 C741 1.375 . S
C740 C744 1.532 . S
C741 H731 0.930 . S
C741 C740 1.375 . S
C741 C742 1.416 . S
C742 C741 1.416 . S
C742 C743 1.371 . S
C743 H732 0.930 . S
C743 C739 1.389 . S
C743 C742 1.371 . S
C744 H733 0.970 . S
C744 H734 0.970 . S
C744 C740 1.532 . S
C744 C745 1.499 . S
C745 C744 1.499 . S
C745 C746 1.370 . S
C745 C750 1.415 . S
C746 H735 0.930 . S
C746 C745 1.370 . S
C746 C747 1.407 . S
C747 C746 1.407 . S
C747 C748 1.365 . S
C748 H736 0.930 . S
C748 C747 1.365 . S
C748 C749 1.393 . S
C749 C748 1.393 . S
C749 C750 1.387 . S
C750 H737 0.930 . S
C750 C745 1.415 . S
C750 C749 1.387 . S
H751 C759 0.930 . S
H752 C762 0.930 . S
H753 C764 0.930 . S
H754 C765 0.970 . S
H755 C765 0.970 . S
H756 C767 0.930 . S
H757 C769 0.930 . S
H758 C771 0.930 . S
C759 H751 0.930 . S
C759 C760 1.382 . S
C759 C761 1.426 . S
C760 C759 1.382 . S
C760 C764 1.389 . S
C761 C759 1.426 . S
C761 C762 1.375 . S
C761 C765 1.532 . S
C762 H752 0.930 . S
C762 C761 1.375 . S
C762 C763 1.416 . S
C763 C762 1.416 . S
C763 C764 1.371 . S
C764 H753 0.930 . S
C764 C760 1.389 . S
C764 C763 1.371 . S
C765 H754 0.970 . S
C765 H755 0.970 . S
C765 C761 1.532 . S
C765 C766 1.499 . S
C766 C765 1.499 . S
C766 C767 1.370 . S
C766 C771 1.415 . S
C767 H756 0.930 . S
C767 C766 1.370 . S
C767 C768 1.407 . S
C768 C767 1.407 . S
C768 C769 1.365 . S
C769 H757 0.930 . S
C769 C768 1.365 . S
C769 C770 1.393 . S
C770 C769 1.393 . S
C770 C771 1.387 . S
C771 H758 0.930 . S
C771 C766 1.415 . S
C771 C770 1.387 . S
H772 C780 0.930 . S
H773 C783 0.930 . S
H774 C785 0.930 . S
H775 C786 0.970 . S
H776 C786 0.970 . S
H777 C788 0.930 . S
H778 C790 0.930 . S
H779 C792 0.930 . S
C780 H772 0.930 . S
C780 C781 1.382 . S
C780 C782 1.426 . S
C781 C780 1.382 . S
C781 C785 1.389 . S
C782 C780 1.426 . S
C782 C783 1.375 . S
C782 C786 1.532 . S
C783 H773 0.930 . S
C783 C782 1.375 . S
C783 C784 1.416 . S
C784 C783 1.416 . S
C784 C785 1.371 . S
C785 H774 0.930 . S
C785 C781 1.389 . S
C785 C784 1.371 . S
C786 H775 0.970 . S
C786 H776 0.970 . S
C786 C782 1.532 . S
C786 C787 1.499 . S
C787 C786 1.499 . S
C787 C788 1.370 . S
C787 C792 1.415 . S
C788 H777 0.930 . S
C788 C787 1.370 . S
C788 C789 1.407 . S
C789 C788 1.407 . S
C789 C790 1.365 . S
C790 H778 0.930 . S
C790 C789 1.365 . S
C790 C791 1.393 . S
C791 C790 1.393 . S
C791 C792 1.387 . S
C792 H779 0.930 . S
C792 C787 1.415 . S
C792 C791 1.387 . S
H793 C801 0.930 . S
H794 C804 0.930 . S
H795 C806 0.930 . S
H796 C807 0.970 . S
H797 C807 0.970 . S
H798 C809 0.930 . S
H799 C811 0.930 . S
H800 C813 0.930 . S
C801 H793 0.930 . S
C801 C802 1.382 . S
C801 C803 1.426 . S
C802 C801 1.382 . S
C802 C806 1.389 . S
C803 C801 1.426 . S
C803 C804 1.375 . S
C803 C807 1.532 . S
C804 H794 0.930 . S
C804 C803 1.375 . S
C804 C805 1.416 . S
C805 C804 1.416 . S
C805 C806 1.371 . S
C806 H795 0.930 . S
C806 C802 1.389 . S
C806 C805 1.371 . S
C807 H796 0.970 . S
C807 H797 0.970 . S
C807 C803 1.532 . S
C807 C808 1.499 . S
C808 C807 1.499 . S
C808 C809 1.370 . S
C808 C813 1.415 . S
C809 H798 0.930 . S
C809 C808 1.370 . S
C809 C810 1.407 . S
C810 C809 1.407 . S
C810 C811 1.365 . S
C811 H799 0.930 . S
C811 C810 1.365 . S
C811 C812 1.393 . S
C812 C811 1.393 . S
C812 C813 1.387 . S
C813 H800 0.930 . S
C813 C808 1.415 . S
C813 C812 1.387 . S
H814 C822 0.930 . S
H815 C825 0.930 . S
H816 C827 0.930 . S
H817 C828 0.970 . S
H818 C828 0.970 . S
H819 C830 0.930 . S
H820 C832 0.930 . S
H821 C834 0.930 . S
C822 H814 0.930 . S
C822 C823 1.382 . S
C822 C824 1.426 . S
C823 C822 1.382 . S
C823 C827 1.389 . S
C824 C822 1.426 . S
C824 C825 1.375 . S
C824 C828 1.532 . S
C825 H815 0.930 . S
C825 C824 1.375 . S
C825 C826 1.416 . S
C826 C825 1.416 . S
C826 C827 1.371 . S
C827 H816 0.930 . S
C827 C823 1.389 . S
C827 C826 1.371 . S
C828 H817 0.970 . S
C828 H818 0.970 . S
C828 C824 1.532 . S
C828 C829 1.499 . S
C829 C828 1.499 . S
C829 C830 1.370 . S
C829 C834 1.415 . S
C830 H819 0.930 . S
C830 C829 1.370 . S
C830 C831 1.407 . S
C831 C830 1.407 . S
C831 C832 1.365 . S
C832 H820 0.930 . S
C832 C831 1.365 . S
C832 C833 1.393 . S
C833 C832 1.393 . S
C833 C834 1.387 . S
C834 H821 0.930 . S
C834 C829 1.415 . S
C834 C833 1.387 . S
H835 C843 0.930 . S
H836 C846 0.930 . S
H837 C848 0.930 . S
H838 C849 0.970 . S
H839 C849 0.970 . S
H840 C851 0.930 . S
H841 C853 0.930 . S
H842 C855 0.930 . S
C843 H835 0.930 . S
C843 C844 1.382 . S
C843 C845 1.426 . S
C844 C843 1.382 . S
C844 C848 1.389 . S
C845 C843 1.426 . S
C845 C846 1.375 . S
C845 C849 1.532 . S
C846 H836 0.930 . S
C846 C845 1.375 . S
C846 C847 1.416 . S
C847 C846 1.416 . S
C847 C848 1.371 . S
C848 H837 0.930 . S
C848 C844 1.389 . S
C848 C847 1.371 . S
C849 H838 0.970 . S
C849 H839 0.970 . S
C849 C845 1.532 . S
C849 C850 1.499 . S
C850 C849 1.499 . S
C850 C851 1.370 . S
C850 C855 1.415 . S
C851 H840 0.930 . S
C851 C850 1.370 . S
C851 C852 1.407 . S
C852 C851 1.407 . S
C852 C853 1.365 . S
C853 H841 0.930 . S
C853 C852 1.365 . S
C853 C854 1.393 . S
C854 C853 1.393 . S
C854 C855 1.387 . S
C855 H842 0.930 . S
C855 C850 1.415 . S
C855 C854 1.387 . S
H856 C868 0.930 . S
H857 C870 0.930 . S
H858 C871 0.930 . S
H859 C875 0.959 . S
H860 C875 0.959 . S
H861 C875 0.961 . S
H862 C876 0.960 . S
H863 C876 0.961 . S
H864 C876 0.959 . S
H865 C879 0.929 . S
H866 C880 0.931 . S
H867 C882 0.930 . S
C868 H856 0.930 . S
C868 C869 1.399 . S
C868 C873 1.399 . S
C869 C868 1.399 . S
C869 C870 1.376 . S
C870 H857 0.930 . S
C870 C869 1.376 . S
C870 C871 1.388 . S
C871 H858 0.930 . S
C871 C870 1.388 . S
C871 C872 1.390 . S
C872 C871 1.390 . S
C872 C873 1.394 . S
C872 C878 1.465 . S
C873 C868 1.399 . S
C873 C872 1.394 . S
C873 C874 1.516 . S
C874 C873 1.516 . S
C874 C875 1.502 . S
C874 C876 1.561 . S
C874 C877 1.526 . S
C875 H859 0.959 . S
C875 H860 0.959 . S
C875 H861 0.961 . S
C875 C874 1.502 . S
C876 H862 0.960 . S
C876 H863 0.961 . S
C876 H864 0.959 . S
C876 C874 1.561 . S
C877 C874 1.526 . S
C877 C878 1.396 . S
C877 C882 1.390 . S
C878 C872 1.465 . S
C878 C877 1.396 . S
C878 C879 1.399 . S
C879 H865 0.929 . S
C879 C878 1.399 . S
C879 C880 1.385 . S
C880 H866 0.931 . S
C880 C879 1.385 . S
C880 C881 1.389 . S
C881 C880 1.389 . S
C881 C882 1.387 . S
C882 H867 0.930 . S
C882 C877 1.390 . S
C882 C881 1.387 . S
H883 C895 0.930 . S
H884 C897 0.930 . S
H885 C898 0.930 . S
H886 C902 0.959 . S
H887 C902 0.959 . S
H888 C902 0.961 . S
H889 C903 0.960 . S
H890 C903 0.961 . S
H891 C903 0.959 . S
H892 C906 0.929 . S
H893 C907 0.931 . S
H894 C909 0.930 . S
C895 H883 0.930 . S
C895 C896 1.399 . S
C895 C900 1.399 . S
C896 C895 1.399 . S
C896 C897 1.376 . S
C897 H884 0.930 . S
C897 C896 1.376 . S
C897 C898 1.388 . S
C898 H885 0.930 . S
C898 C897 1.388 . S
C898 C899 1.390 . S
C899 C898 1.390 . S
C899 C900 1.394 . S
C899 C905 1.465 . S
C900 C895 1.399 . S
C900 C899 1.394 . S
C900 C901 1.516 . S
C901 C900 1.516 . S
C901 C902 1.502 . S
C901 C903 1.561 . S
C901 C904 1.526 . S
C902 H886 0.959 . S
C902 H887 0.959 . S
C902 H888 0.961 . S
C902 C901 1.502 . S
C903 H889 0.960 . S
C903 H890 0.961 . S
C903 H891 0.959 . S
C903 C901 1.561 . S
C904 C901 1.526 . S
C904 C905 1.396 . S
C904 C909 1.390 . S
C905 C899 1.465 . S
C905 C904 1.396 . S
C905 C906 1.399 . S
C906 H892 0.929 . S
C906 C905 1.399 . S
C906 C907 1.385 . S
C907 H893 0.931 . S
C907 C906 1.385 . S
C907 C908 1.389 . S
C908 C907 1.389 . S
C908 C909 1.387 . S
C909 H894 0.930 . S
C909 C904 1.390 . S
C909 C908 1.387 . S
H910 C922 0.930 . S
H911 C924 0.930 . S
H912 C925 0.930 . S
H913 C929 0.959 . S
H914 C929 0.959 . S
H915 C929 0.961 . S
H916 C930 0.960 . S
H917 C930 0.961 . S
H918 C930 0.959 . S
H919 C933 0.929 . S
H920 C934 0.931 . S
H921 C936 0.930 . S
C922 H910 0.930 . S
C922 C923 1.399 . S
C922 C927 1.399 . S
C923 C922 1.399 . S
C923 C924 1.376 . S
C924 H911 0.930 . S
C924 C923 1.376 . S
C924 C925 1.388 . S
C925 H912 0.930 . S
C925 C924 1.388 . S
C925 C926 1.390 . S
C926 C925 1.390 . S
C926 C927 1.394 . S
C926 C932 1.465 . S
C927 C922 1.399 . S
C927 C926 1.394 . S
C927 C928 1.516 . S
C928 C927 1.516 . S
C928 C929 1.502 . S
C928 C930 1.561 . S
C928 C931 1.526 . S
C929 H913 0.959 . S
C929 H914 0.959 . S
C929 H915 0.961 . S
C929 C928 1.502 . S
C930 H916 0.960 . S
C930 H917 0.961 . S
C930 H918 0.959 . S
C930 C928 1.561 . S
C931 C928 1.526 . S
C931 C932 1.396 . S
C931 C936 1.390 . S
C932 C926 1.465 . S
C932 C931 1.396 . S
C932 C933 1.399 . S
C933 H919 0.929 . S
C933 C932 1.399 . S
C933 C934 1.385 . S
C934 H920 0.931 . S
C934 C933 1.385 . S
C934 C935 1.389 . S
C935 C934 1.389 . S
C935 C936 1.387 . S
C936 H921 0.930 . S
C936 C931 1.390 . S
C936 C935 1.387 . S
H937 C949 0.930 . S
H938 C951 0.930 . S
H939 C952 0.930 . S
H940 C956 0.959 . S
H941 C956 0.959 . S
H942 C956 0.961 . S
H943 C957 0.960 . S
H944 C957 0.961 . S
H945 C957 0.959 . S
H946 C960 0.929 . S
H947 C961 0.931 . S
H948 C963 0.930 . S
C949 H937 0.930 . S
C949 C950 1.399 . S
C949 C954 1.399 . S
C950 C949 1.399 . S
C950 C951 1.376 . S
C951 H938 0.930 . S
C951 C950 1.376 . S
C951 C952 1.388 . S
C952 H939 0.930 . S
C952 C951 1.388 . S
C952 C953 1.390 . S
C953 C952 1.390 . S
C953 C954 1.394 . S
C953 C959 1.465 . S
C954 C949 1.399 . S
C954 C953 1.394 . S
C954 C955 1.516 . S
C955 C954 1.516 . S
C955 C956 1.502 . S
C955 C957 1.561 . S
C955 C958 1.526 . S
C956 H940 0.959 . S
C956 H941 0.959 . S
C956 H942 0.961 . S
C956 C955 1.502 . S
C957 H943 0.960 . S
C957 H944 0.961 . S
C957 H945 0.959 . S
C957 C955 1.561 . S
C958 C955 1.526 . S
C958 C959 1.396 . S
C958 C963 1.390 . S
C959 C953 1.465 . S
C959 C958 1.396 . S
C959 C960 1.399 . S
C960 H946 0.929 . S
C960 C959 1.399 . S
C960 C961 1.385 . S
C961 H947 0.931 . S
C961 C960 1.385 . S
C961 C962 1.389 . S
C962 C961 1.389 . S
C962 C963 1.387 . S
C963 H948 0.930 . S
C963 C958 1.390 . S
C963 C962 1.387 . S
H964 C976 0.930 . S
H965 C978 0.930 . S
H966 C979 0.930 . S
H967 C983 0.959 . S
H968 C983 0.959 . S
H969 C983 0.961 . S
H970 C984 0.960 . S
H971 C984 0.961 . S
H972 C984 0.959 . S
H973 C987 0.929 . S
H974 C988 0.931 . S
H975 C990 0.930 . S
C976 H964 0.930 . S
C976 C977 1.399 . S
C976 C981 1.399 . S
C977 C976 1.399 . S
C977 C978 1.376 . S
C978 H965 0.930 . S
C978 C977 1.376 . S
C978 C979 1.388 . S
C979 H966 0.930 . S
C979 C978 1.388 . S
C979 C980 1.390 . S
C980 C979 1.390 . S
C980 C981 1.394 . S
C980 C986 1.465 . S
C981 C976 1.399 . S
C981 C980 1.394 . S
C981 C982 1.516 . S
C982 C981 1.516 . S
C982 C983 1.502 . S
C982 C984 1.561 . S
C982 C985 1.526 . S
C983 H967 0.959 . S
C983 H968 0.959 . S
C983 H969 0.961 . S
C983 C982 1.502 . S
C984 H970 0.960 . S
C984 H971 0.961 . S
C984 H972 0.959 . S
C984 C982 1.561 . S
C985 C982 1.526 . S
C985 C986 1.396 . S
C985 C990 1.390 . S
C986 C980 1.465 . S
C986 C985 1.396 . S
C986 C987 1.399 . S
C987 H973 0.929 . S
C987 C986 1.399 . S
C987 C988 1.385 . S
C988 H974 0.931 . S
C988 C987 1.385 . S
C988 C989 1.389 . S
C989 C988 1.389 . S
C989 C990 1.387 . S
C990 H975 0.930 . S
C990 C985 1.390 . S
C990 C989 1.387 . S
H991 C1003 0.930 . S
H992 C1005 0.930 . S
H993 C1006 0.930 . S
H994 C1010 0.959 . S
H995 C1010 0.959 . S
H996 C1010 0.961 . S
H997 C1011 0.960 . S
H998 C1011 0.961 . S
H999 C1011 0.959 . S
H1000 C1014 0.929 . S
H1001 C1015 0.931 . S
H1002 C1017 0.930 . S
C1003 H991 0.930 . S
C1003 C1004 1.399 . S
C1003 C1008 1.399 . S
C1004 C1003 1.399 . S
C1004 C1005 1.376 . S
C1005 H992 0.930 . S
C1005 C1004 1.376 . S
C1005 C1006 1.388 . S
C1006 H993 0.930 . S
C1006 C1005 1.388 . S
C1006 C1007 1.390 . S
C1007 C1006 1.390 . S
C1007 C1008 1.394 . S
C1007 C1013 1.465 . S
C1008 C1003 1.399 . S
C1008 C1007 1.394 . S
C1008 C1009 1.516 . S
C1009 C1008 1.516 . S
C1009 C1010 1.502 . S
C1009 C1011 1.561 . S
C1009 C1012 1.526 . S
C1010 H994 0.959 . S
C1010 H995 0.959 . S
C1010 H996 0.961 . S
C1010 C1009 1.502 . S
C1011 H997 0.960 . S
C1011 H998 0.961 . S
C1011 H999 0.959 . S
C1011 C1009 1.561 . S
C1012 C1009 1.526 . S
C1012 C1013 1.396 . S
C1012 C1017 1.390 . S
C1013 C1007 1.465 . S
C1013 C1012 1.396 . S
C1013 C1014 1.399 . S
C1014 H1000 0.929 . S
C1014 C1013 1.399 . S
C1014 C1015 1.385 . S
C1015 H1001 0.931 . S
C1015 C1014 1.385 . S
C1015 C1016 1.389 . S
C1016 C1015 1.389 . S
C1016 C1017 1.387 . S
C1017 H1002 0.930 . S
C1017 C1012 1.390 . S
C1017 C1016 1.387 . S
H1018 C1030 0.930 . S
H1019 C1032 0.930 . S
H1020 C1033 0.930 . S
H1021 C1037 0.959 . S
H1022 C1037 0.959 . S
H1023 C1037 0.961 . S
H1024 C1038 0.960 . S
H1025 C1038 0.961 . S
H1026 C1038 0.959 . S
H1027 C1041 0.929 . S
H1028 C1042 0.931 . S
H1029 C1044 0.930 . S
C1030 H1018 0.930 . S
C1030 C1031 1.399 . S
C1030 C1035 1.399 . S
C1031 C1030 1.399 . S
C1031 C1032 1.376 . S
C1032 H1019 0.930 . S
C1032 C1031 1.376 . S
C1032 C1033 1.388 . S
C1033 H1020 0.930 . S
C1033 C1032 1.388 . S
C1033 C1034 1.390 . S
C1034 C1033 1.390 . S
C1034 C1035 1.394 . S
C1034 C1040 1.465 . S
C1035 C1030 1.399 . S
C1035 C1034 1.394 . S
C1035 C1036 1.516 . S
C1036 C1035 1.516 . S
C1036 C1037 1.502 . S
C1036 C1038 1.561 . S
C1036 C1039 1.526 . S
C1037 H1021 0.959 . S
C1037 H1022 0.959 . S
C1037 H1023 0.961 . S
C1037 C1036 1.502 . S
C1038 H1024 0.960 . S
C1038 H1025 0.961 . S
C1038 H1026 0.959 . S
C1038 C1036 1.561 . S
C1039 C1036 1.526 . S
C1039 C1040 1.396 . S
C1039 C1044 1.390 . S
C1040 C1034 1.465 . S
C1040 C1039 1.396 . S
C1040 C1041 1.399 . S
C1041 H1027 0.929 . S
C1041 C1040 1.399 . S
C1041 C1042 1.385 . S
C1042 H1028 0.931 . S
C1042 C1041 1.385 . S
C1042 C1043 1.389 . S
C1043 C1042 1.389 . S
C1043 C1044 1.387 . S
C1044 H1029 0.930 . S
C1044 C1039 1.390 . S
C1044 C1043 1.387 . S
H1045 C1057 0.930 . S
H1046 C1059 0.930 . S
H1047 C1060 0.930 . S
H1048 C1064 0.959 . S
H1049 C1064 0.959 . S
H1050 C1064 0.961 . S
H1051 C1065 0.960 . S
H1052 C1065 0.961 . S
H1053 C1065 0.959 . S
H1054 C1068 0.929 . S
H1055 C1069 0.931 1_554 S
H1056 C1071 0.930 . S
C1057 H1045 0.930 . S
C1057 C1058 1.399 . S
C1057 C1062 1.399 . S
C1058 C1057 1.399 . S
C1058 C1059 1.376 . S
C1059 H1046 0.930 . S
C1059 C1058 1.376 . S
C1059 C1060 1.388 . S
C1060 H1047 0.930 . S
C1060 C1059 1.388 . S
C1060 C1061 1.390 . S
C1061 C1060 1.390 . S
C1061 C1062 1.394 . S
C1061 C1067 1.465 . S
C1062 C1057 1.399 . S
C1062 C1061 1.394 . S
C1062 C1063 1.516 . S
C1063 C1062 1.516 . S
C1063 C1064 1.502 . S
C1063 C1065 1.561 . S
C1063 C1066 1.526 . S
C1064 H1048 0.959 . S
C1064 H1049 0.959 . S
C1064 H1050 0.961 . S
C1064 C1063 1.502 . S
C1065 H1051 0.960 . S
C1065 H1052 0.961 . S
C1065 H1053 0.959 . S
C1065 C1063 1.561 . S
C1066 C1063 1.526 . S
C1066 C1067 1.396 . S
C1066 C1071 1.390 . S
C1067 C1061 1.465 . S
C1067 C1066 1.396 . S
C1067 C1068 1.399 . S
C1068 H1054 0.929 . S
C1068 C1067 1.399 . S
C1068 C1069 1.385 . S
C1069 H1055 0.931 1_556 S
C1069 C1068 1.385 . S
C1069 C1070 1.389 . S
C1070 C1069 1.389 . S
C1070 C1071 1.387 . S
C1071 H1056 0.930 . S
C1071 C1066 1.390 . S
C1071 C1070 1.387 . S
H1072 C1084 0.930 . S
H1073 C1086 0.930 . S
H1074 C1087 0.930 . S
H1075 C1091 0.959 . S
H1076 C1091 0.959 . S
H1077 C1091 0.961 . S
H1078 C1092 0.960 . S
H1079 C1092 0.961 . S
H1080 C1092 0.959 . S
H1081 C1095 0.929 . S
H1082 C1096 0.931 . S
H1083 C1098 0.930 . S
C1084 H1072 0.930 . S
C1084 C1085 1.399 . S
C1084 C1089 1.399 . S
C1085 C1084 1.399 . S
C1085 C1086 1.376 . S
C1086 H1073 0.930 . S
C1086 C1085 1.376 . S
C1086 C1087 1.388 . S
C1087 H1074 0.930 . S
C1087 C1086 1.388 . S
C1087 C1088 1.390 . S
C1088 C1087 1.390 . S
C1088 C1089 1.394 . S
C1088 C1094 1.465 . S
C1089 C1084 1.399 . S
C1089 C1088 1.394 . S
C1089 C1090 1.516 . S
C1090 C1089 1.516 . S
C1090 C1091 1.502 . S
C1090 C1092 1.561 . S
C1090 C1093 1.526 . S
C1091 H1075 0.959 . S
C1091 H1076 0.959 . S
C1091 H1077 0.961 . S
C1091 C1090 1.502 . S
C1092 H1078 0.960 . S
C1092 H1079 0.961 . S
C1092 H1080 0.959 . S
C1092 C1090 1.561 . S
C1093 C1090 1.526 . S
C1093 C1094 1.396 . S
C1093 C1098 1.390 . S
C1094 C1088 1.465 . S
C1094 C1093 1.396 . S
C1094 C1095 1.399 . S
C1095 H1081 0.929 . S
C1095 C1094 1.399 . S
C1095 C1096 1.385 . S
C1096 H1082 0.931 . S
C1096 C1095 1.385 . S
C1096 C1097 1.389 . S
C1097 C1096 1.389 . S
C1097 C1098 1.387 . S
C1098 H1083 0.930 . S
C1098 C1093 1.390 . S
C1098 C1097 1.387 . S
H1099 C1111 0.930 . S
H1100 C1113 0.930 . S
H1101 C1114 0.930 . S
H1102 C1118 0.959 . S
H1103 C1118 0.959 . S
H1104 C1118 0.961 . S
H1105 C1119 0.960 . S
H1106 C1119 0.961 . S
H1107 C1119 0.959 . S
H1108 C1122 0.929 . S
H1109 C1123 0.931 . S
H1110 C1125 0.930 . S
C1111 H1099 0.930 . S
C1111 C1112 1.399 . S
C1111 C1116 1.399 . S
C1112 C1111 1.399 . S
C1112 C1113 1.376 . S
C1113 H1100 0.930 . S
C1113 C1112 1.376 . S
C1113 C1114 1.388 . S
C1114 H1101 0.930 . S
C1114 C1113 1.388 . S
C1114 C1115 1.390 . S
C1115 C1114 1.390 . S
C1115 C1116 1.394 . S
C1115 C1121 1.465 . S
C1116 C1111 1.399 . S
C1116 C1115 1.394 . S
C1116 C1117 1.516 . S
C1117 C1116 1.516 . S
C1117 C1118 1.502 . S
C1117 C1119 1.561 . S
C1117 C1120 1.526 . S
C1118 H1102 0.959 . S
C1118 H1103 0.959 . S
C1118 H1104 0.961 . S
C1118 C1117 1.502 . S
C1119 H1105 0.960 . S
C1119 H1106 0.961 . S
C1119 H1107 0.959 . S
C1119 C1117 1.561 . S
C1120 C1117 1.526 . S
C1120 C1121 1.396 . S
C1120 C1125 1.390 . S
C1121 C1115 1.465 . S
C1121 C1120 1.396 . S
C1121 C1122 1.399 . S
C1122 H1108 0.929 . S
C1122 C1121 1.399 . S
C1122 C1123 1.385 . S
C1123 H1109 0.931 . S
C1123 C1122 1.385 . S
C1123 C1124 1.389 . S
C1124 C1123 1.389 . S
C1124 C1125 1.387 . S
C1125 H1110 0.930 . S
C1125 C1120 1.390 . S
C1125 C1124 1.387 . S
H1126 C1138 0.930 . S
H1127 C1140 0.930 . S
H1128 C1141 0.930 . S
H1129 C1145 0.959 . S
H1130 C1145 0.959 . S
H1131 C1145 0.961 . S
H1132 C1146 0.960 . S
H1133 C1146 0.961 . S
H1134 C1146 0.959 . S
H1135 C1149 0.929 . S
H1136 C1150 0.931 . S
H1137 C1152 0.924 . S
C1138 H1126 0.930 . S
C1138 C1139 1.399 . S
C1138 C1143 1.399 . S
C1139 C1138 1.399 . S
C1139 C1140 1.376 . S
C1140 H1127 0.930 . S
C1140 C1139 1.376 . S
C1140 C1141 1.388 . S
C1141 H1128 0.930 . S
C1141 C1140 1.388 . S
C1141 C1142 1.390 . S
C1142 C1141 1.390 . S
C1142 C1143 1.394 . S
C1142 C1148 1.465 . S
C1143 C1138 1.399 . S
C1143 C1142 1.394 . S
C1143 C1144 1.516 . S
C1144 C1143 1.516 . S
C1144 C1145 1.502 . S
C1144 C1146 1.561 . S
C1144 C1147 1.526 . S
C1145 H1129 0.959 . S
C1145 H1130 0.959 . S
C1145 H1131 0.961 . S
C1145 C1144 1.502 . S
C1146 H1132 0.960 . S
C1146 H1133 0.961 . S
C1146 H1134 0.959 . S
C1146 C1144 1.561 . S
C1147 C1144 1.526 . S
C1147 C1148 1.396 . S
C1147 C1152 1.418 . S
C1148 C1142 1.465 . S
C1148 C1147 1.396 . S
C1148 C1149 1.399 . S
C1149 H1135 0.929 . S
C1149 C1148 1.399 . S
C1149 C1150 1.385 1_655 S
C1150 H1136 0.931 . S
C1150 C1149 1.385 1_455 S
C1150 C1151 1.389 . S
C1151 C1150 1.389 . S
C1151 C1152 1.366 1_455 S
C1152 H1137 0.924 . S
C1152 C1147 1.418 . S
C1152 C1151 1.366 1_655 S
H1153 C1165 0.930 . S
H1154 C1167 0.930 . S
H1155 C1168 0.930 . S
H1156 C1172 0.959 . S
H1157 C1172 0.959 . S
H1158 C1172 0.961 . S
H1159 C1173 0.960 . S
H1160 C1173 0.961 . S
H1161 C1173 0.959 . S
H1162 C1176 0.929 . S
H1163 C1177 0.931 . S
H1164 C1179 0.930 . S
C1165 H1153 0.930 . S
C1165 C1166 1.399 . S
C1165 C1170 1.399 . S
C1166 C1165 1.399 . S
C1166 C1167 1.376 . S
C1167 H1154 0.930 . S
C1167 C1166 1.376 . S
C1167 C1168 1.388 . S
C1168 H1155 0.930 . S
C1168 C1167 1.388 . S
C1168 C1169 1.390 . S
C1169 C1168 1.390 . S
C1169 C1170 1.394 . S
C1169 C1175 1.465 . S
C1170 C1165 1.399 . S
C1170 C1169 1.394 . S
C1170 C1171 1.516 . S
C1171 C1170 1.516 . S
C1171 C1172 1.502 . S
C1171 C1173 1.561 . S
C1171 C1174 1.526 . S
C1172 H1156 0.959 . S
C1172 H1157 0.959 . S
C1172 H1158 0.961 . S
C1172 C1171 1.502 . S
C1173 H1159 0.960 . S
C1173 H1160 0.961 . S
C1173 H1161 0.959 . S
C1173 C1171 1.561 . S
C1174 C1171 1.526 . S
C1174 C1175 1.396 . S
C1174 C1179 1.390 . S
C1175 C1169 1.465 . S
C1175 C1174 1.396 . S
C1175 C1176 1.399 . S
C1176 H1162 0.929 . S
C1176 C1175 1.399 . S
C1176 C1177 1.385 . S
C1177 H1163 0.931 . S
C1177 C1176 1.385 . S
C1177 C1178 1.389 . S
C1178 C1177 1.389 . S
C1178 C1179 1.387 . S
C1179 H1164 0.930 . S
C1179 C1174 1.390 . S
C1179 C1178 1.387 . S
H1180 C1192 0.930 . S
H1181 C1194 0.930 . S
H1182 C1195 0.930 . S
H1183 C1199 0.959 . S
H1184 C1199 0.959 . S
H1185 C1199 0.961 . S
H1186 C1200 0.960 . S
H1187 C1200 0.961 . S
H1188 C1200 0.959 . S
H1189 C1203 0.929 . S
H1190 C1204 0.931 . S
H1191 C1206 0.930 . S
C1192 H1180 0.930 . S
C1192 C1193 1.399 . S
C1192 C1197 1.399 . S
C1193 C1192 1.399 . S
C1193 C1194 1.376 . S
C1194 H1181 0.930 . S
C1194 C1193 1.376 . S
C1194 C1195 1.388 . S
C1195 H1182 0.930 . S
C1195 C1194 1.388 . S
C1195 C1196 1.390 . S
C1196 C1195 1.390 . S
C1196 C1197 1.394 . S
C1196 C1202 1.465 . S
C1197 C1192 1.399 . S
C1197 C1196 1.394 . S
C1197 C1198 1.516 . S
C1198 C1197 1.516 . S
C1198 C1199 1.502 . S
C1198 C1200 1.561 . S
C1198 C1201 1.526 . S
C1199 H1183 0.959 . S
C1199 H1184 0.959 . S
C1199 H1185 0.961 . S
C1199 C1198 1.502 . S
C1200 H1186 0.960 . S
C1200 H1187 0.961 . S
C1200 H1188 0.959 . S
C1200 C1198 1.561 . S
C1201 C1198 1.526 . S
C1201 C1202 1.396 . S
C1201 C1206 1.390 . S
C1202 C1196 1.465 . S
C1202 C1201 1.396 . S
C1202 C1203 1.399 . S
C1203 H1189 0.929 . S
C1203 C1202 1.399 . S
C1203 C1204 1.385 . S
C1204 H1190 0.931 . S
C1204 C1203 1.385 . S
C1204 C1205 1.389 . S
C1205 C1204 1.389 . S
C1205 C1206 1.387 . S
C1206 H1191 0.930 . S
C1206 C1201 1.390 . S
C1206 C1205 1.387 . S
H1207 C1219 0.930 . S
H1208 C1221 0.930 . S
H1209 C1222 0.930 . S
H1210 C1226 0.959 . S
H1211 C1226 0.959 . S
H1212 C1226 0.961 . S
H1213 C1227 0.960 . S
H1214 C1227 0.961 . S
H1215 C1227 0.959 . S
H1216 C1230 0.929 . S
H1217 C1231 0.931 . S
H1218 C1233 0.930 . S
C1219 H1207 0.930 . S
C1219 C1220 1.399 . S
C1219 C1224 1.399 . S
C1220 C1219 1.399 . S
C1220 C1221 1.376 . S
C1221 H1208 0.930 . S
C1221 C1220 1.376 . S
C1221 C1222 1.388 . S
C1222 H1209 0.930 . S
C1222 C1221 1.388 . S
C1222 C1223 1.390 . S
C1223 C1222 1.390 . S
C1223 C1224 1.394 . S
C1223 C1229 1.465 . S
C1224 C1219 1.399 . S
C1224 C1223 1.394 . S
C1224 C1225 1.516 . S
C1225 C1224 1.516 . S
C1225 C1226 1.502 . S
C1225 C1227 1.561 . S
C1225 C1228 1.526 . S
C1226 H1210 0.959 . S
C1226 H1211 0.959 . S
C1226 H1212 0.961 . S
C1226 C1225 1.502 . S
C1227 H1213 0.960 . S
C1227 H1214 0.961 . S
C1227 H1215 0.959 . S
C1227 C1225 1.561 . S
C1228 C1225 1.526 . S
C1228 C1229 1.396 . S
C1228 C1233 1.390 . S
C1229 C1223 1.465 . S
C1229 C1228 1.396 . S
C1229 C1230 1.399 . S
C1230 H1216 0.929 . S
C1230 C1229 1.399 . S
C1230 C1231 1.385 . S
C1231 H1217 0.931 . S
C1231 C1230 1.385 . S
C1231 C1232 1.389 . S
C1232 C1231 1.389 . S
C1232 C1233 1.387 . S
C1233 H1218 0.930 . S
C1233 C1228 1.390 . S
C1233 C1232 1.387 . S
H1234 C1246 0.930 . S
H1235 C1248 0.930 . S
H1236 C1249 0.930 . S
H1237 C1253 0.959 . S
H1238 C1253 0.959 . S
H1239 C1253 0.961 . S
H1240 C1254 0.960 . S
H1241 C1254 0.961 . S
H1242 C1254 0.959 . S
H1243 C1257 0.929 . S
H1244 C1258 0.931 1_455 S
H1245 C1260 0.908 1_455 S
C1246 H1234 0.930 . S
C1246 C1247 1.399 . S
C1246 C1251 1.399 . S
C1247 C1246 1.399 . S
C1247 C1248 1.376 . S
C1248 H1235 0.930 . S
C1248 C1247 1.376 . S
C1248 C1249 1.388 . S
C1249 H1236 0.930 . S
C1249 C1248 1.388 . S
C1249 C1250 1.390 . S
C1250 C1249 1.390 . S
C1250 C1251 1.394 . S
C1250 C1256 1.465 . S
C1251 C1246 1.399 . S
C1251 C1250 1.394 . S
C1251 C1252 1.516 . S
C1252 C1251 1.516 . S
C1252 C1253 1.502 . S
C1252 C1254 1.561 . S
C1252 C1255 1.526 . S
C1253 H1237 0.959 . S
C1253 H1238 0.959 . S
C1253 H1239 0.961 . S
C1253 C1252 1.502 . S
C1254 H1240 0.960 . S
C1254 H1241 0.961 . S
C1254 H1242 0.959 . S
C1254 C1252 1.561 . S
C1255 C1252 1.526 . S
C1255 C1256 1.396 . S
C1255 C1260 1.427 . S
C1256 C1250 1.465 . S
C1256 C1255 1.396 . S
C1256 C1257 1.399 . S
C1257 H1243 0.929 . S
C1257 C1256 1.399 . S
C1257 C1258 1.385 . S
C1258 H1244 0.931 1_655 S
C1258 C1257 1.385 . S
C1258 C1259 1.389 1_655 S
C1259 C1258 1.389 1_455 S
C1259 C1260 1.372 1_455 S
C1260 H1245 0.908 1_655 S
C1260 C1255 1.427 . S
C1260 C1259 1.372 1_655 S
H1261 C1273 0.930 . S
H1262 C1275 0.930 . S
H1263 C1276 0.930 . S
H1264 C1280 0.959 . S
H1265 C1280 0.959 . S
H1266 C1280 0.961 . S
H1267 C1281 0.960 . S
H1268 C1281 0.961 . S
H1269 C1281 0.959 . S
H1270 C1284 0.929 . S
H1271 C1285 0.931 . S
H1272 C1287 0.930 . S
C1273 H1261 0.930 . S
C1273 C1274 1.399 . S
C1273 C1278 1.399 . S
C1274 C1273 1.399 . S
C1274 C1275 1.376 . S
C1275 H1262 0.930 . S
C1275 C1274 1.376 . S
C1275 C1276 1.388 . S
C1276 H1263 0.930 . S
C1276 C1275 1.388 . S
C1276 C1277 1.390 . S
C1277 C1276 1.390 . S
C1277 C1278 1.394 . S
C1277 C1283 1.465 . S
C1278 C1273 1.399 . S
C1278 C1277 1.394 . S
C1278 C1279 1.516 . S
C1279 C1278 1.516 . S
C1279 C1280 1.502 . S
C1279 C1281 1.561 . S
C1279 C1282 1.526 . S
C1280 H1264 0.959 . S
C1280 H1265 0.959 . S
C1280 H1266 0.961 . S
C1280 C1279 1.502 . S
C1281 H1267 0.960 . S
C1281 H1268 0.961 . S
C1281 H1269 0.959 . S
C1281 C1279 1.561 . S
C1282 C1279 1.526 . S
C1282 C1283 1.396 . S
C1282 C1287 1.390 . S
C1283 C1277 1.465 . S
C1283 C1282 1.396 . S
C1283 C1284 1.399 . S
C1284 H1270 0.929 . S
C1284 C1283 1.399 . S
C1284 C1285 1.385 . S
C1285 H1271 0.931 . S
C1285 C1284 1.385 . S
C1285 C1286 1.389 . S
C1286 C1285 1.389 . S
C1286 C1287 1.387 . S
C1287 H1272 0.930 . S
C1287 C1282 1.390 . S
C1287 C1286 1.387 . S
H1288 C1300 0.930 . S
H1289 C1302 0.930 . S
H1290 C1303 0.930 . S
H1291 C1307 0.959 . S
H1292 C1307 0.959 . S
H1293 C1307 0.961 . S
H1294 C1308 0.960 . S
H1295 C1308 0.961 . S
H1296 C1308 0.959 . S
H1297 C1311 0.929 . S
H1298 C1312 0.931 . S
H1299 C1314 0.930 . S
C1300 H1288 0.930 . S
C1300 C1301 1.399 . S
C1300 C1305 1.399 . S
C1301 C1300 1.399 . S
C1301 C1302 1.376 . S
C1302 H1289 0.930 . S
C1302 C1301 1.376 . S
C1302 C1303 1.388 . S
C1303 H1290 0.930 . S
C1303 C1302 1.388 . S
C1303 C1304 1.390 . S
C1304 C1303 1.390 . S
C1304 C1305 1.394 . S
C1304 C1310 1.465 . S
C1305 C1300 1.399 . S
C1305 C1304 1.394 . S
C1305 C1306 1.516 . S
C1306 C1305 1.516 . S
C1306 C1307 1.502 . S
C1306 C1308 1.561 . S
C1306 C1309 1.526 . S
C1307 H1291 0.959 . S
C1307 H1292 0.959 . S
C1307 H1293 0.961 . S
C1307 C1306 1.502 . S
C1308 H1294 0.960 . S
C1308 H1295 0.961 . S
C1308 H1296 0.959 . S
C1308 C1306 1.561 . S
C1309 C1306 1.526 . S
C1309 C1310 1.396 . S
C1309 C1314 1.390 . S
C1310 C1304 1.465 . S
C1310 C1309 1.396 . S
C1310 C1311 1.399 . S
C1311 H1297 0.929 . S
C1311 C1310 1.399 . S
C1311 C1312 1.385 . S
C1312 H1298 0.931 . S
C1312 C1311 1.385 . S
C1312 C1313 1.389 . S
C1313 C1312 1.389 . S
C1313 C1314 1.387 . S
C1314 H1299 0.930 . S
C1314 C1309 1.390 . S
C1314 C1313 1.387 . S
H1315 C1327 0.930 . S
H1316 C1329 0.930 . S
H1317 C1330 0.930 . S
H1318 C1334 0.959 . S
H1319 C1334 0.959 . S
H1320 C1334 0.961 . S
H1321 C1335 0.960 . S
H1322 C1335 0.961 . S
H1323 C1335 0.959 . S
H1324 C1338 0.929 . S
H1325 C1339 0.931 . S
H1326 C1341 0.930 . S
C1327 H1315 0.930 . S
C1327 C1328 1.399 . S
C1327 C1332 1.399 . S
C1328 C1327 1.399 . S
C1328 C1329 1.376 . S
C1329 H1316 0.930 . S
C1329 C1328 1.376 . S
C1329 C1330 1.388 . S
C1330 H1317 0.930 . S
C1330 C1329 1.388 . S
C1330 C1331 1.390 . S
C1331 C1330 1.390 . S
C1331 C1332 1.394 . S
C1331 C1337 1.465 . S
C1332 C1327 1.399 . S
C1332 C1331 1.394 . S
C1332 C1333 1.516 . S
C1333 C1332 1.516 . S
C1333 C1334 1.502 . S
C1333 C1335 1.561 . S
C1333 C1336 1.526 . S
C1334 H1318 0.959 . S
C1334 H1319 0.959 . S
C1334 H1320 0.961 . S
C1334 C1333 1.502 . S
C1335 H1321 0.960 . S
C1335 H1322 0.961 . S
C1335 H1323 0.959 . S
C1335 C1333 1.561 . S
C1336 C1333 1.526 . S
C1336 C1337 1.396 . S
C1336 C1341 1.390 . S
C1337 C1331 1.465 . S
C1337 C1336 1.396 . S
C1337 C1338 1.399 . S
C1338 H1324 0.929 . S
C1338 C1337 1.399 . S
C1338 C1339 1.385 . S
C1339 H1325 0.931 . S
C1339 C1338 1.385 . S
C1339 C1340 1.389 . S
C1340 C1339 1.389 . S
C1340 C1341 1.387 . S
C1341 H1326 0.930 . S
C1341 C1336 1.390 . S
C1341 C1340 1.387 . S
H1342 C1354 0.930 . S
H1343 C1356 0.930 . S
H1344 C1357 0.930 . S
H1345 C1361 0.959 . S
H1346 C1361 0.959 . S
H1347 C1361 0.961 . S
H1348 C1362 0.960 . S
H1349 C1362 0.961 . S
H1350 C1362 0.959 . S
H1351 C1365 0.929 . S
H1352 C1366 0.931 . S
H1353 C1368 0.930 . S
C1354 H1342 0.930 . S
C1354 C1355 1.399 . S
C1354 C1359 1.399 . S
C1355 C1354 1.399 . S
C1355 C1356 1.376 . S
C1356 H1343 0.930 . S
C1356 C1355 1.376 . S
C1356 C1357 1.388 . S
C1357 H1344 0.930 . S
C1357 C1356 1.388 . S
C1357 C1358 1.390 . S
C1358 C1357 1.390 . S
C1358 C1359 1.394 . S
C1358 C1364 1.465 . S
C1359 C1354 1.399 . S
C1359 C1358 1.394 . S
C1359 C1360 1.516 . S
C1360 C1359 1.516 . S
C1360 C1361 1.502 . S
C1360 C1362 1.561 . S
C1360 C1363 1.526 . S
C1361 H1345 0.959 . S
C1361 H1346 0.959 . S
C1361 H1347 0.961 . S
C1361 C1360 1.502 . S
C1362 H1348 0.960 . S
C1362 H1349 0.961 . S
C1362 H1350 0.959 . S
C1362 C1360 1.561 . S
C1363 C1360 1.526 . S
C1363 C1364 1.396 . S
C1363 C1368 1.390 . S
C1364 C1358 1.465 . S
C1364 C1363 1.396 . S
C1364 C1365 1.399 . S
C1365 H1351 0.929 . S
C1365 C1364 1.399 . S
C1365 C1366 1.385 . S
C1366 H1352 0.931 . S
C1366 C1365 1.385 . S
C1366 C1367 1.389 . S
C1367 C1366 1.389 . S
C1367 C1368 1.387 . S
C1368 H1353 0.930 . S
C1368 C1363 1.390 . S
C1368 C1367 1.387 . S
H1369 C1381 0.930 . S
H1370 C1383 0.930 . S
H1371 C1384 0.930 . S
H1372 C1388 0.959 . S
H1373 C1388 0.959 . S
H1374 C1388 0.961 . S
H1375 C1389 0.960 . S
H1376 C1389 0.961 . S
H1377 C1389 0.959 . S
H1378 C1392 0.929 . S
H1379 C1393 0.931 . S
H1380 C1395 0.930 . S
C1381 H1369 0.930 . S
C1381 C1382 1.399 . S
C1381 C1386 1.399 . S
C1382 C1381 1.399 . S
C1382 C1383 1.376 . S
C1383 H1370 0.930 . S
C1383 C1382 1.376 . S
C1383 C1384 1.388 . S
C1384 H1371 0.930 . S
C1384 C1383 1.388 . S
C1384 C1385 1.390 . S
C1385 C1384 1.390 . S
C1385 C1386 1.394 . S
C1385 C1391 1.465 . S
C1386 C1381 1.399 . S
C1386 C1385 1.394 . S
C1386 C1387 1.516 . S
C1387 C1386 1.516 . S
C1387 C1388 1.502 . S
C1387 C1389 1.561 . S
C1387 C1390 1.526 . S
C1388 H1372 0.959 . S
C1388 H1373 0.959 . S
C1388 H1374 0.961 . S
C1388 C1387 1.502 . S
C1389 H1375 0.960 . S
C1389 H1376 0.961 . S
C1389 H1377 0.959 . S
C1389 C1387 1.561 . S
C1390 C1387 1.526 . S
C1390 C1391 1.396 . S
C1390 C1395 1.390 . S
C1391 C1385 1.465 . S
C1391 C1390 1.396 . S
C1391 C1392 1.399 . S
C1392 H1378 0.929 . S
C1392 C1391 1.399 . S
C1392 C1393 1.385 . S
C1393 H1379 0.931 . S
C1393 C1392 1.385 . S
C1393 C1394 1.389 . S
C1394 C1393 1.389 . S
C1394 C1395 1.387 . S
C1395 H1380 0.930 . S
C1395 C1390 1.390 . S
C1395 C1394 1.387 . S
H1396 C1408 0.930 . S
H1397 C1410 0.930 . S
H1398 C1411 0.930 . S
H1399 C1415 0.959 . S
H1400 C1415 0.959 . S
H1401 C1415 0.961 . S
H1402 C1416 0.960 . S
H1403 C1416 0.961 . S
H1404 C1416 0.959 . S
H1405 C1419 0.929 . S
H1406 C1420 0.931 . S
H1407 C1422 0.930 . S
C1408 H1396 0.930 . S
C1408 C1409 1.399 . S
C1408 C1413 1.399 . S
C1409 C1408 1.399 . S
C1409 C1410 1.376 . S
C1410 H1397 0.930 . S
C1410 C1409 1.376 . S
C1410 C1411 1.388 . S
C1411 H1398 0.930 . S
C1411 C1410 1.388 . S
C1411 C1412 1.390 . S
C1412 C1411 1.390 . S
C1412 C1413 1.394 . S
C1412 C1418 1.465 . S
C1413 C1408 1.399 . S
C1413 C1412 1.394 . S
C1413 C1414 1.516 . S
C1414 C1413 1.516 . S
C1414 C1415 1.502 . S
C1414 C1416 1.561 . S
C1414 C1417 1.526 . S
C1415 H1399 0.959 . S
C1415 H1400 0.959 . S
C1415 H1401 0.961 . S
C1415 C1414 1.502 . S
C1416 H1402 0.960 . S
C1416 H1403 0.961 . S
C1416 H1404 0.959 . S
C1416 C1414 1.561 . S
C1417 C1414 1.526 . S
C1417 C1418 1.396 . S
C1417 C1422 1.390 . S
C1418 C1412 1.465 . S
C1418 C1417 1.396 . S
C1418 C1419 1.399 . S
C1419 H1405 0.929 . S
C1419 C1418 1.399 . S
C1419 C1420 1.385 . S
C1420 H1406 0.931 . S
C1420 C1419 1.385 . S
C1420 C1421 1.389 . S
C1421 C1420 1.389 . S
C1421 C1422 1.387 . S
C1422 H1407 0.930 . S
C1422 C1417 1.390 . S
C1422 C1421 1.387 . S
H1423 C1435 0.930 . S
H1424 C1437 0.930 . S
H1425 C1438 0.930 . S
H1426 C1442 0.959 . S
H1427 C1442 0.959 . S
H1428 C1442 0.961 . S
H1429 C1443 0.960 . S
H1430 C1443 0.961 . S
H1431 C1443 0.959 . S
H1432 C1446 0.929 . S
H1433 C1447 0.931 . S
H1434 C1449 0.930 . S
C1435 H1423 0.930 . S
C1435 C1436 1.399 . S
C1435 C1440 1.399 . S
C1436 C1435 1.399 . S
C1436 C1437 1.376 . S
C1437 H1424 0.930 . S
C1437 C1436 1.376 . S
C1437 C1438 1.388 . S
C1438 H1425 0.930 . S
C1438 C1437 1.388 . S
C1438 C1439 1.390 . S
C1439 C1438 1.390 . S
C1439 C1440 1.394 . S
C1439 C1445 1.465 . S
C1440 C1435 1.399 . S
C1440 C1439 1.394 . S
C1440 C1441 1.516 . S
C1441 C1440 1.516 . S
C1441 C1442 1.502 . S
C1441 C1443 1.561 . S
C1441 C1444 1.526 . S
C1442 H1426 0.959 . S
C1442 H1427 0.959 . S
C1442 H1428 0.961 . S
C1442 C1441 1.502 . S
C1443 H1429 0.960 . S
C1443 H1430 0.961 . S
C1443 H1431 0.959 . S
C1443 C1441 1.561 . S
C1444 C1441 1.526 . S
C1444 C1445 1.396 . S
C1444 C1449 1.390 . S
C1445 C1439 1.465 . S
C1445 C1444 1.396 . S
C1445 C1446 1.399 . S
C1446 H1432 0.929 . S
C1446 C1445 1.399 . S
C1446 C1447 1.385 . S
C1447 H1433 0.931 . S
C1447 C1446 1.385 . S
C1447 C1448 1.389 . S
C1448 C1447 1.389 . S
C1448 C1449 1.387 . S
C1449 H1434 0.930 . S
C1449 C1444 1.390 . S
C1449 C1448 1.387 . S
H1450 C1462 0.930 . S
H1451 C1464 0.930 . S
H1452 C1465 0.930 . S
H1453 C1469 0.959 . S
H1454 C1469 0.959 . S
H1455 C1469 0.961 . S
H1456 C1470 0.960 . S
H1457 C1470 0.961 . S
H1458 C1470 0.959 . S
H1459 C1473 0.929 . S
H1460 C1474 0.931 . S
H1461 C1476 0.930 . S
C1462 H1450 0.930 . S
C1462 C1463 1.399 . S
C1462 C1467 1.399 . S
C1463 C1462 1.399 . S
C1463 C1464 1.376 . S
C1464 H1451 0.930 . S
C1464 C1463 1.376 . S
C1464 C1465 1.388 . S
C1465 H1452 0.930 . S
C1465 C1464 1.388 . S
C1465 C1466 1.390 . S
C1466 C1465 1.390 . S
C1466 C1467 1.394 . S
C1466 C1472 1.465 . S
C1467 C1462 1.399 . S
C1467 C1466 1.394 . S
C1467 C1468 1.516 . S
C1468 C1467 1.516 . S
C1468 C1469 1.502 . S
C1468 C1470 1.561 . S
C1468 C1471 1.526 . S
C1469 H1453 0.959 . S
C1469 H1454 0.959 . S
C1469 H1455 0.961 . S
C1469 C1468 1.502 . S
C1470 H1456 0.960 . S
C1470 H1457 0.961 . S
C1470 H1458 0.959 . S
C1470 C1468 1.561 . S
C1471 C1468 1.526 . S
C1471 C1472 1.396 . S
C1471 C1476 1.390 . S
C1472 C1466 1.465 . S
C1472 C1471 1.396 . S
C1472 C1473 1.399 . S
C1473 H1459 0.929 . S
C1473 C1472 1.399 . S
C1473 C1474 1.385 . S
C1474 H1460 0.931 . S
C1474 C1473 1.385 . S
C1474 C1475 1.389 . S
C1475 C1474 1.389 . S
C1475 C1476 1.387 . S
C1476 H1461 0.930 . S
C1476 C1471 1.390 . S
C1476 C1475 1.387 . S
H1477 C1489 0.930 . S
H1478 C1491 0.930 . S
H1479 C1492 0.930 . S
H1480 C1496 0.959 . S
H1481 C1496 0.959 . S
H1482 C1496 0.961 . S
H1483 C1497 0.960 . S
H1484 C1497 0.961 . S
H1485 C1497 0.959 . S
H1486 C1500 0.929 . S
H1487 C1501 0.931 . S
H1488 C1503 0.930 . S
C1489 H1477 0.930 . S
C1489 C1490 1.399 . S
C1489 C1494 1.399 . S
C1490 C1489 1.399 . S
C1490 C1491 1.376 . S
C1491 H1478 0.930 . S
C1491 C1490 1.376 . S
C1491 C1492 1.388 . S
C1492 H1479 0.930 . S
C1492 C1491 1.388 . S
C1492 C1493 1.390 . S
C1493 C1492 1.390 . S
C1493 C1494 1.394 . S
C1493 C1499 1.465 . S
C1494 C1489 1.399 . S
C1494 C1493 1.394 . S
C1494 C1495 1.516 . S
C1495 C1494 1.516 . S
C1495 C1496 1.502 . S
C1495 C1497 1.561 . S
C1495 C1498 1.526 . S
C1496 H1480 0.959 . S
C1496 H1481 0.959 . S
C1496 H1482 0.961 . S
C1496 C1495 1.502 . S
C1497 H1483 0.960 . S
C1497 H1484 0.961 . S
C1497 H1485 0.959 . S
C1497 C1495 1.561 . S
C1498 C1495 1.526 . S
C1498 C1499 1.396 . S
C1498 C1503 1.390 . S
C1499 C1493 1.465 . S
C1499 C1498 1.396 . S
C1499 C1500 1.399 . S
C1500 H1486 0.929 . S
C1500 C1499 1.399 . S
C1500 C1501 1.385 . S
C1501 H1487 0.931 . S
C1501 C1500 1.385 . S
C1501 C1502 1.389 . S
C1502 C1501 1.389 . S
C1502 C1503 1.387 . S
C1503 H1488 0.930 . S
C1503 C1498 1.390 . S
C1503 C1502 1.387 . S
H1504 C1516 0.930 . S
H1505 C1518 0.930 . S
H1506 C1519 0.930 . S
H1507 C1523 0.959 . S
H1508 C1523 0.959 . S
H1509 C1523 0.961 . S
H1510 C1524 0.960 . S
H1511 C1524 0.961 . S
H1512 C1524 0.959 . S
H1513 C1527 0.929 . S
H1514 C1528 0.931 . S
H1515 C1530 0.930 . S
C1516 H1504 0.930 . S
C1516 C1517 1.399 . S
C1516 C1521 1.399 . S
C1517 C1516 1.399 . S
C1517 C1518 1.376 . S
C1518 H1505 0.930 . S
C1518 C1517 1.376 . S
C1518 C1519 1.388 . S
C1519 H1506 0.930 . S
C1519 C1518 1.388 . S
C1519 C1520 1.390 . S
C1520 C1519 1.390 . S
C1520 C1521 1.394 . S
C1520 C1526 1.465 . S
C1521 C1516 1.399 . S
C1521 C1520 1.394 . S
C1521 C1522 1.516 . S
C1522 C1521 1.516 . S
C1522 C1523 1.502 . S
C1522 C1524 1.561 . S
C1522 C1525 1.526 . S
C1523 H1507 0.959 . S
C1523 H1508 0.959 . S
C1523 H1509 0.961 . S
C1523 C1522 1.502 . S
C1524 H1510 0.960 . S
C1524 H1511 0.961 . S
C1524 H1512 0.959 . S
C1524 C1522 1.561 . S
C1525 C1522 1.526 . S
C1525 C1526 1.396 . S
C1525 C1530 1.390 . S
C1526 C1520 1.465 . S
C1526 C1525 1.396 . S
C1526 C1527 1.399 . S
C1527 H1513 0.929 . S
C1527 C1526 1.399 . S
C1527 C1528 1.385 . S
C1528 H1514 0.931 . S
C1528 C1527 1.385 . S
C1528 C1529 1.389 . S
C1529 C1528 1.389 . S
C1529 C1530 1.387 . S
C1530 H1515 0.930 . S
C1530 C1525 1.390 . S
C1530 C1529 1.387 . S
H1531 C1543 0.930 . S
H1532 C1545 0.930 . S
H1533 C1546 0.930 . S
H1534 C1550 0.959 . S
H1535 C1550 0.959 . S
H1536 C1550 0.961 . S
H1537 C1551 0.960 . S
H1538 C1551 0.961 . S
H1539 C1551 0.959 . S
H1540 C1554 0.929 . S
H1541 C1555 0.931 . S
H1542 C1557 0.930 . S
C1543 H1531 0.930 . S
C1543 C1544 1.399 . S
C1543 C1548 1.399 . S
C1544 C1543 1.399 . S
C1544 C1545 1.376 . S
C1545 H1532 0.930 . S
C1545 C1544 1.376 . S
C1545 C1546 1.388 . S
C1546 H1533 0.930 . S
C1546 C1545 1.388 . S
C1546 C1547 1.390 . S
C1547 C1546 1.390 . S
C1547 C1548 1.394 . S
C1547 C1553 1.465 . S
C1548 C1543 1.399 . S
C1548 C1547 1.394 . S
C1548 C1549 1.516 . S
C1549 C1548 1.516 . S
C1549 C1550 1.502 . S
C1549 C1551 1.561 . S
C1549 C1552 1.526 . S
C1550 H1534 0.959 . S
C1550 H1535 0.959 . S
C1550 H1536 0.961 . S
C1550 C1549 1.502 . S
C1551 H1537 0.960 . S
C1551 H1538 0.961 . S
C1551 H1539 0.959 . S
C1551 C1549 1.561 . S
C1552 C1549 1.526 . S
C1552 C1553 1.396 . S
C1552 C1557 1.390 . S
C1553 C1547 1.465 . S
C1553 C1552 1.396 . S
C1553 C1554 1.399 . S
C1554 H1540 0.929 . S
C1554 C1553 1.399 . S
C1554 C1555 1.385 . S
C1555 H1541 0.931 . S
C1555 C1554 1.385 . S
C1555 C1556 1.389 . S
C1556 C1555 1.389 . S
C1556 C1557 1.387 . S
C1557 H1542 0.930 . S
C1557 C1552 1.390 . S
C1557 C1556 1.387 . S
H1558 C1570 0.930 . S
H1559 C1572 0.930 . S
H1560 C1573 0.930 . S
H1561 C1577 0.959 . S
H1562 C1577 0.959 . S
H1563 C1577 0.961 . S
H1564 C1578 0.960 . S
H1565 C1578 0.961 . S
H1566 C1578 0.959 . S
H1567 C1581 0.929 . S
H1568 C1582 0.931 . S
H1569 C1584 0.930 . S
C1570 H1558 0.930 . S
C1570 C1571 1.399 . S
C1570 C1575 1.399 . S
C1571 C1570 1.399 . S
C1571 C1572 1.376 . S
C1572 H1559 0.930 . S
C1572 C1571 1.376 . S
C1572 C1573 1.388 . S
C1573 H1560 0.930 . S
C1573 C1572 1.388 . S
C1573 C1574 1.390 . S
C1574 C1573 1.390 . S
C1574 C1575 1.394 . S
C1574 C1580 1.465 . S
C1575 C1570 1.399 . S
C1575 C1574 1.394 . S
C1575 C1576 1.516 . S
C1576 C1575 1.516 . S
C1576 C1577 1.502 . S
C1576 C1578 1.561 . S
C1576 C1579 1.526 . S
C1577 H1561 0.959 . S
C1577 H1562 0.959 . S
C1577 H1563 0.961 . S
C1577 C1576 1.502 . S
C1578 H1564 0.960 . S
C1578 H1565 0.961 . S
C1578 H1566 0.959 . S
C1578 C1576 1.561 . S
C1579 C1576 1.526 . S
C1579 C1580 1.396 . S
C1579 C1584 1.390 . S
C1580 C1574 1.465 . S
C1580 C1579 1.396 . S
C1580 C1581 1.399 . S
C1581 H1567 0.929 . S
C1581 C1580 1.399 . S
C1581 C1582 1.385 . S
C1582 H1568 0.931 . S
C1582 C1581 1.385 . S
C1582 C1583 1.389 . S
C1583 C1582 1.389 . S
C1583 C1584 1.387 . S
C1584 H1569 0.930 . S
C1584 C1579 1.390 . S
C1584 C1583 1.387 . S
H1585 C1597 0.930 . S
H1586 C1599 0.930 . S
H1587 C1600 0.930 . S
H1588 C1604 0.959 . S
H1589 C1604 0.959 . S
H1590 C1604 0.961 . S
H1591 C1605 0.960 . S
H1592 C1605 0.961 . S
H1593 C1605 0.959 . S
H1594 C1608 0.929 . S
H1595 C1609 0.931 . S
H1596 C1611 0.930 . S
C1597 H1585 0.930 . S
C1597 C1598 1.399 . S
C1597 C1602 1.399 . S
C1598 C1597 1.399 . S
C1598 C1599 1.376 . S
C1599 H1586 0.930 . S
C1599 C1598 1.376 . S
C1599 C1600 1.388 . S
C1600 H1587 0.930 . S
C1600 C1599 1.388 . S
C1600 C1601 1.390 . S
C1601 C1600 1.390 . S
C1601 C1602 1.394 . S
C1601 C1607 1.465 . S
C1602 C1597 1.399 . S
C1602 C1601 1.394 . S
C1602 C1603 1.516 . S
C1603 C1602 1.516 . S
C1603 C1604 1.502 . S
C1603 C1605 1.561 . S
C1603 C1606 1.526 . S
C1604 H1588 0.959 . S
C1604 H1589 0.959 . S
C1604 H1590 0.961 . S
C1604 C1603 1.502 . S
C1605 H1591 0.960 . S
C1605 H1592 0.961 . S
C1605 H1593 0.959 . S
C1605 C1603 1.561 . S
C1606 C1603 1.526 . S
C1606 C1607 1.396 . S
C1606 C1611 1.390 . S
C1607 C1601 1.465 . S
C1607 C1606 1.396 . S
C1607 C1608 1.399 . S
C1608 H1594 0.929 . S
C1608 C1607 1.399 . S
C1608 C1609 1.385 . S
C1609 H1595 0.931 . S
C1609 C1608 1.385 . S
C1609 C1610 1.389 . S
C1610 C1609 1.389 . S
C1610 C1611 1.387 . S
C1611 H1596 0.930 . S
C1611 C1606 1.390 . S
C1611 C1610 1.387 . S
H1612 C1624 0.930 . S
H1613 C1626 0.930 . S
H1614 C1627 0.930 . S
H1615 C1631 0.959 . S
H1616 C1631 0.959 . S
H1617 C1631 0.961 . S
H1618 C1632 0.960 . S
H1619 C1632 0.961 . S
H1620 C1632 0.959 . S
H1621 C1635 0.929 . S
H1622 C1636 0.931 . S
H1623 C1638 0.930 . S
C1624 H1612 0.930 . S
C1624 C1625 1.399 . S
C1624 C1629 1.399 . S
C1625 C1624 1.399 . S
C1625 C1626 1.376 . S
C1626 H1613 0.930 . S
C1626 C1625 1.376 . S
C1626 C1627 1.388 . S
C1627 H1614 0.930 . S
C1627 C1626 1.388 . S
C1627 C1628 1.390 . S
C1628 C1627 1.390 . S
C1628 C1629 1.394 . S
C1628 C1634 1.465 . S
C1629 C1624 1.399 . S
C1629 C1628 1.394 . S
C1629 C1630 1.516 . S
C1630 C1629 1.516 . S
C1630 C1631 1.502 . S
C1630 C1632 1.561 . S
C1630 C1633 1.526 . S
C1631 H1615 0.959 . S
C1631 H1616 0.959 . S
C1631 H1617 0.961 . S
C1631 C1630 1.502 . S
C1632 H1618 0.960 . S
C1632 H1619 0.961 . S
C1632 H1620 0.959 . S
C1632 C1630 1.561 . S
C1633 C1630 1.526 . S
C1633 C1634 1.396 . S
C1633 C1638 1.390 . S
C1634 C1628 1.465 . S
C1634 C1633 1.396 . S
C1634 C1635 1.399 . S
C1635 H1621 0.929 . S
C1635 C1634 1.399 . S
C1635 C1636 1.385 . S
C1636 H1622 0.931 . S
C1636 C1635 1.385 . S
C1636 C1637 1.389 . S
C1637 C1636 1.389 . S
C1637 C1638 1.387 . S
C1638 H1623 0.930 . S
C1638 C1633 1.390 . S
C1638 C1637 1.387 . S
H1639 C1651 0.930 . S
H1640 C1653 0.930 . S
H1641 C1654 0.930 . S
H1642 C1658 0.959 . S
H1643 C1658 0.959 . S
H1644 C1658 0.961 . S
H1645 C1659 0.960 . S
H1646 C1659 0.961 . S
H1647 C1659 0.959 . S
H1648 C1662 0.929 . S
H1649 C1663 0.931 . S
H1650 C1665 0.930 . S
C1651 H1639 0.930 . S
C1651 C1652 1.399 . S
C1651 C1656 1.399 . S
C1652 C1651 1.399 . S
C1652 C1653 1.376 . S
C1653 H1640 0.930 . S
C1653 C1652 1.376 . S
C1653 C1654 1.388 . S
C1654 H1641 0.930 . S
C1654 C1653 1.388 . S
C1654 C1655 1.390 . S
C1655 C1654 1.390 . S
C1655 C1656 1.394 . S
C1655 C1661 1.465 . S
C1656 C1651 1.399 . S
C1656 C1655 1.394 . S
C1656 C1657 1.516 . S
C1657 C1656 1.516 . S
C1657 C1658 1.502 . S
C1657 C1659 1.561 . S
C1657 C1660 1.526 . S
C1658 H1642 0.959 . S
C1658 H1643 0.959 . S
C1658 H1644 0.961 . S
C1658 C1657 1.502 . S
C1659 H1645 0.960 . S
C1659 H1646 0.961 . S
C1659 H1647 0.959 . S
C1659 C1657 1.561 . S
C1660 C1657 1.526 . S
C1660 C1661 1.396 . S
C1660 C1665 1.390 . S
C1661 C1655 1.465 . S
C1661 C1660 1.396 . S
C1661 C1662 1.399 . S
C1662 H1648 0.929 . S
C1662 C1661 1.399 . S
C1662 C1663 1.385 . S
C1663 H1649 0.931 . S
C1663 C1662 1.385 . S
C1663 C1664 1.389 . S
C1664 C1663 1.389 . S
C1664 C1665 1.387 . S
C1665 H1650 0.930 . S
C1665 C1660 1.390 . S
C1665 C1664 1.387 . S
H1666 C1678 0.930 . S
H1667 C1680 0.930 . S
H1668 C1681 0.930 . S
H1669 C1685 0.959 . S
H1670 C1685 0.959 . S
H1671 C1685 0.961 . S
H1672 C1686 0.960 . S
H1673 C1686 0.961 . S
H1674 C1686 0.959 . S
H1675 C1689 0.929 . S
H1676 C1690 0.931 . S
H1677 C1692 0.930 . S
C1678 H1666 0.930 . S
C1678 C1679 1.399 . S
C1678 C1683 1.399 . S
C1679 C1678 1.399 . S
C1679 C1680 1.376 . S
C1680 H1667 0.930 . S
C1680 C1679 1.376 . S
C1680 C1681 1.388 . S
C1681 H1668 0.930 . S
C1681 C1680 1.388 . S
C1681 C1682 1.390 . S
C1682 C1681 1.390 . S
C1682 C1683 1.394 . S
C1682 C1688 1.465 . S
C1683 C1678 1.399 . S
C1683 C1682 1.394 . S
C1683 C1684 1.516 . S
C1684 C1683 1.516 . S
C1684 C1685 1.502 . S
C1684 C1686 1.561 . S
C1684 C1687 1.526 . S
C1685 H1669 0.959 . S
C1685 H1670 0.959 . S
C1685 H1671 0.961 . S
C1685 C1684 1.502 . S
C1686 H1672 0.960 . S
C1686 H1673 0.961 . S
C1686 H1674 0.959 . S
C1686 C1684 1.561 . S
C1687 C1684 1.526 . S
C1687 C1688 1.396 . S
C1687 C1692 1.390 . S
C1688 C1682 1.465 . S
C1688 C1687 1.396 . S
C1688 C1689 1.399 . S
C1689 H1675 0.929 . S
C1689 C1688 1.399 . S
C1689 C1690 1.385 . S
C1690 H1676 0.931 . S
C1690 C1689 1.385 . S
C1690 C1691 1.389 . S
C1691 C1690 1.389 . S
C1691 C1692 1.387 . S
C1692 H1677 0.930 . S
C1692 C1687 1.390 . S
C1692 C1691 1.387 . S
H1693 C1705 0.930 . S
H1694 C1707 0.930 . S
H1695 C1708 0.930 . S
H1696 C1712 0.959 . S
H1697 C1712 0.959 . S
H1698 C1712 0.961 . S
H1699 C1713 0.960 . S
H1700 C1713 0.961 . S
H1701 C1713 0.959 . S
H1702 C1716 0.929 . S
H1703 C1717 0.931 . S
H1704 C1719 0.930 . S
C1705 H1693 0.930 . S
C1705 C1706 1.399 . S
C1705 C1710 1.399 . S
C1706 C1705 1.399 . S
C1706 C1707 1.376 . S
C1707 H1694 0.930 . S
C1707 C1706 1.376 . S
C1707 C1708 1.388 . S
C1708 H1695 0.930 . S
C1708 C1707 1.388 . S
C1708 C1709 1.390 . S
C1709 C1708 1.390 . S
C1709 C1710 1.394 . S
C1709 C1715 1.465 . S
C1710 C1705 1.399 . S
C1710 C1709 1.394 . S
C1710 C1711 1.516 . S
C1711 C1710 1.516 . S
C1711 C1712 1.502 . S
C1711 C1713 1.561 . S
C1711 C1714 1.526 . S
C1712 H1696 0.959 . S
C1712 H1697 0.959 . S
C1712 H1698 0.961 . S
C1712 C1711 1.502 . S
C1713 H1699 0.960 . S
C1713 H1700 0.961 . S
C1713 H1701 0.959 . S
C1713 C1711 1.561 . S
C1714 C1711 1.526 . S
C1714 C1715 1.396 . S
C1714 C1719 1.390 . S
C1715 C1709 1.465 . S
C1715 C1714 1.396 . S
C1715 C1716 1.399 . S
C1716 H1702 0.929 . S
C1716 C1715 1.399 . S
C1716 C1717 1.385 . S
C1717 H1703 0.931 . S
C1717 C1716 1.385 . S
C1717 C1718 1.389 . S
C1718 C1717 1.389 . S
C1718 C1719 1.387 . S
C1719 H1704 0.930 . S
C1719 C1714 1.390 . S
C1719 C1718 1.387 . S
H1720 C1732 0.930 . S
H1721 C1734 0.930 . S
H1722 C1735 0.930 . S
H1723 C1739 0.959 . S
H1724 C1739 0.959 . S
H1725 C1739 0.961 . S
H1726 C1740 0.960 . S
H1727 C1740 0.961 . S
H1728 C1740 0.959 . S
H1729 C1743 0.929 . S
H1730 C1744 0.931 . S
H1731 C1746 0.930 . S
C1732 H1720 0.930 . S
C1732 C1733 1.399 . S
C1732 C1737 1.399 . S
C1733 C1732 1.399 . S
C1733 C1734 1.376 . S
C1734 H1721 0.930 . S
C1734 C1733 1.376 . S
C1734 C1735 1.388 . S
C1735 H1722 0.930 . S
C1735 C1734 1.388 . S
C1735 C1736 1.390 . S
C1736 C1735 1.390 . S
C1736 C1737 1.394 . S
C1736 C1742 1.465 . S
C1737 C1732 1.399 . S
C1737 C1736 1.394 . S
C1737 C1738 1.516 . S
C1738 C1737 1.516 . S
C1738 C1739 1.502 . S
C1738 C1740 1.561 . S
C1738 C1741 1.526 . S
C1739 H1723 0.959 . S
C1739 H1724 0.959 . S
C1739 H1725 0.961 . S
C1739 C1738 1.502 . S
C1740 H1726 0.960 . S
C1740 H1727 0.961 . S
C1740 H1728 0.959 . S
C1740 C1738 1.561 . S
C1741 C1738 1.526 . S
C1741 C1742 1.396 . S
C1741 C1746 1.390 . S
C1742 C1736 1.465 . S
C1742 C1741 1.396 . S
C1742 C1743 1.399 . S
C1743 H1729 0.929 . S
C1743 C1742 1.399 . S
C1743 C1744 1.385 . S
C1744 H1730 0.931 . S
C1744 C1743 1.385 . S
C1744 C1745 1.389 . S
C1745 C1744 1.389 . S
C1745 C1746 1.387 . S
C1746 H1731 0.930 . S
C1746 C1741 1.390 . S
C1746 C1745 1.387 . S
H1747 C1759 0.930 . S
H1748 C1761 0.930 . S
H1749 C1762 0.930 . S
H1750 C1766 0.959 . S
H1751 C1766 0.959 . S
H1752 C1766 0.961 . S
H1753 C1767 0.960 . S
H1754 C1767 0.961 . S
H1755 C1767 0.959 . S
H1756 C1770 0.929 . S
H1757 C1771 0.931 . S
H1758 C1773 0.930 . S
C1759 H1747 0.930 . S
C1759 C1760 1.399 . S
C1759 C1764 1.399 . S
C1760 C1759 1.399 . S
C1760 C1761 1.376 . S
C1761 H1748 0.930 . S
C1761 C1760 1.376 . S
C1761 C1762 1.388 . S
C1762 H1749 0.930 . S
C1762 C1761 1.388 . S
C1762 C1763 1.390 . S
C1763 C1762 1.390 . S
C1763 C1764 1.394 . S
C1763 C1769 1.465 . S
C1764 C1759 1.399 . S
C1764 C1763 1.394 . S
C1764 C1765 1.516 . S
C1765 C1764 1.516 . S
C1765 C1766 1.502 . S
C1765 C1767 1.561 . S
C1765 C1768 1.526 . S
C1766 H1750 0.959 . S
C1766 H1751 0.959 . S
C1766 H1752 0.961 . S
C1766 C1765 1.502 . S
C1767 H1753 0.960 . S
C1767 H1754 0.961 . S
C1767 H1755 0.959 . S
C1767 C1765 1.561 . S
C1768 C1765 1.526 . S
C1768 C1769 1.396 . S
C1768 C1773 1.390 . S
C1769 C1763 1.465 . S
C1769 C1768 1.396 . S
C1769 C1770 1.399 . S
C1770 H1756 0.929 . S
C1770 C1769 1.399 . S
C1770 C1771 1.385 . S
C1771 H1757 0.931 . S
C1771 C1770 1.385 . S
C1771 C1772 1.389 . S
C1772 C1771 1.389 . S
C1772 C1773 1.387 . S
C1773 H1758 0.930 . S
C1773 C1768 1.390 . S
C1773 C1772 1.387 . S
H1774 C1786 0.930 . S
H1775 C1788 0.930 . S
H1776 C1789 0.930 . S
H1777 C1793 0.959 . S
H1778 C1793 0.959 1_455 S
H1779 C1793 0.961 . S
H1780 C1794 0.960 . S
H1781 C1794 0.961 . S
H1782 C1794 0.959 . S
H1783 C1797 0.929 . S
H1784 C1798 0.965 . S
H1785 C1800 0.930 . S
C1786 H1774 0.930 . S
C1786 C1787 1.399 . S
C1786 C1791 1.399 . S
C1787 C1786 1.399 . S
C1787 C1788 1.376 . S
C1788 H1775 0.930 . S
C1788 C1787 1.376 . S
C1788 C1789 1.388 . S
C1789 H1776 0.930 . S
C1789 C1788 1.388 . S
C1789 C1790 1.390 . S
C1790 C1789 1.390 . S
C1790 C1791 1.394 . S
C1790 C1796 1.465 . S
C1791 C1786 1.399 . S
C1791 C1790 1.394 . S
C1791 C1792 1.516 . S
C1792 C1791 1.516 . S
C1792 C1793 1.502 . S
C1792 C1794 1.561 . S
C1792 C1795 1.526 . S
C1793 H1777 0.959 . S
C1793 H1778 0.959 1_655 S
C1793 H1779 0.961 . S
C1793 C1792 1.502 . S
C1794 H1780 0.960 . S
C1794 H1781 0.961 . S
C1794 H1782 0.959 . S
C1794 C1792 1.561 . S
C1795 C1792 1.526 . S
C1795 C1796 1.396 . S
C1795 C1800 1.390 1_655 S
C1796 C1790 1.465 . S
C1796 C1795 1.396 . S
C1796 C1797 1.399 . S
C1797 H1783 0.929 . S
C1797 C1796 1.399 . S
C1797 C1798 1.323 1_655 S
C1798 H1784 0.965 . S
C1798 C1797 1.323 1_455 S
C1798 C1799 1.421 . S
C1799 C1798 1.421 . S
C1799 C1800 1.387 . S
C1800 H1785 0.930 . S
C1800 C1795 1.390 1_455 S
C1800 C1799 1.387 . S
H1801 C1813 0.930 . S
H1802 C1815 0.930 . S
H1803 C1816 0.930 . S
H1804 C1820 0.959 . S
H1805 C1820 0.959 . S
H1806 C1820 0.961 . S
H1807 C1821 0.960 . S
H1808 C1821 0.961 . S
H1809 C1821 0.959 . S
H1810 C1824 0.929 . S
H1811 C1825 0.931 . S
H1812 C1827 0.930 . S
C1813 H1801 0.930 . S
C1813 C1814 1.399 . S
C1813 C1818 1.399 . S
C1814 C1813 1.399 . S
C1814 C1815 1.376 . S
C1815 H1802 0.930 . S
C1815 C1814 1.376 . S
C1815 C1816 1.388 . S
C1816 H1803 0.930 . S
C1816 C1815 1.388 . S
C1816 C1817 1.390 . S
C1817 C1816 1.390 . S
C1817 C1818 1.394 . S
C1817 C1823 1.465 . S
C1818 C1813 1.399 . S
C1818 C1817 1.394 . S
C1818 C1819 1.516 . S
C1819 C1818 1.516 . S
C1819 C1820 1.502 . S
C1819 C1821 1.561 . S
C1819 C1822 1.526 . S
C1820 H1804 0.959 . S
C1820 H1805 0.959 . S
C1820 H1806 0.961 . S
C1820 C1819 1.502 . S
C1821 H1807 0.960 . S
C1821 H1808 0.961 . S
C1821 H1809 0.959 . S
C1821 C1819 1.561 . S
C1822 C1819 1.526 . S
C1822 C1823 1.396 . S
C1822 C1827 1.390 . S
C1823 C1817 1.465 . S
C1823 C1822 1.396 . S
C1823 C1824 1.399 . S
C1824 H1810 0.929 . S
C1824 C1823 1.399 . S
C1824 C1825 1.385 . S
C1825 H1811 0.931 . S
C1825 C1824 1.385 . S
C1825 C1826 1.389 . S
C1826 C1825 1.389 . S
C1826 C1827 1.387 . S
C1827 H1812 0.930 . S
C1827 C1822 1.390 . S
C1827 C1826 1.387 . S
H1828 C1840 0.930 . S
H1829 C1842 0.930 . S
H1830 C1843 0.930 . S
H1831 C1847 0.959 . S
H1832 C1847 0.959 . S
H1833 C1847 0.961 . S
H1834 C1848 0.960 . S
H1835 C1848 0.961 . S
H1836 C1848 0.959 . S
H1837 C1851 0.929 . S
H1838 C1852 0.931 . S
H1839 C1854 0.930 . S
C1840 H1828 0.930 . S
C1840 C1841 1.399 . S
C1840 C1845 1.399 . S
C1841 C1840 1.399 . S
C1841 C1842 1.376 . S
C1842 H1829 0.930 . S
C1842 C1841 1.376 . S
C1842 C1843 1.388 . S
C1843 H1830 0.930 . S
C1843 C1842 1.388 . S
C1843 C1844 1.390 . S
C1844 C1843 1.390 . S
C1844 C1845 1.394 . S
C1844 C1850 1.465 . S
C1845 C1840 1.399 . S
C1845 C1844 1.394 . S
C1845 C1846 1.516 . S
C1846 C1845 1.516 . S
C1846 C1847 1.502 . S
C1846 C1848 1.561 . S
C1846 C1849 1.526 . S
C1847 H1831 0.959 . S
C1847 H1832 0.959 . S
C1847 H1833 0.961 . S
C1847 C1846 1.502 . S
C1848 H1834 0.960 . S
C1848 H1835 0.961 . S
C1848 H1836 0.959 . S
C1848 C1846 1.561 . S
C1849 C1846 1.526 . S
C1849 C1850 1.396 . S
C1849 C1854 1.390 . S
C1850 C1844 1.465 . S
C1850 C1849 1.396 . S
C1850 C1851 1.399 . S
C1851 H1837 0.929 . S
C1851 C1850 1.399 . S
C1851 C1852 1.385 . S
C1852 H1838 0.931 . S
C1852 C1851 1.385 . S
C1852 C1853 1.389 . S
C1853 C1852 1.389 . S
C1853 C1854 1.387 . S
C1854 H1839 0.930 . S
C1854 C1849 1.390 . S
C1854 C1853 1.387 . S
H1855 C1867 0.930 . S
H1856 C1869 0.930 . S
H1857 C1870 0.930 . S
H1858 C1874 0.959 . S
H1859 C1874 0.959 . S
H1860 C1874 0.961 . S
H1861 C1875 0.960 . S
H1862 C1875 0.961 . S
H1863 C1875 0.959 . S
H1864 C1878 0.929 . S
H1865 C1879 0.931 . S
H1866 C1881 0.930 . S
C1867 H1855 0.930 . S
C1867 C1868 1.399 . S
C1867 C1872 1.399 . S
C1868 C1867 1.399 . S
C1868 C1869 1.376 . S
C1869 H1856 0.930 . S
C1869 C1868 1.376 . S
C1869 C1870 1.388 . S
C1870 H1857 0.930 . S
C1870 C1869 1.388 . S
C1870 C1871 1.390 . S
C1871 C1870 1.390 . S
C1871 C1872 1.394 . S
C1871 C1877 1.465 . S
C1872 C1867 1.399 . S
C1872 C1871 1.394 . S
C1872 C1873 1.516 . S
C1873 C1872 1.516 . S
C1873 C1874 1.502 . S
C1873 C1875 1.561 . S
C1873 C1876 1.526 . S
C1874 H1858 0.959 . S
C1874 H1859 0.959 . S
C1874 H1860 0.961 . S
C1874 C1873 1.502 . S
C1875 H1861 0.960 . S
C1875 H1862 0.961 . S
C1875 H1863 0.959 . S
C1875 C1873 1.561 . S
C1876 C1873 1.526 . S
C1876 C1877 1.396 . S
C1876 C1881 1.390 . S
C1877 C1871 1.465 . S
C1877 C1876 1.396 . S
C1877 C1878 1.399 . S
C1878 H1864 0.929 . S
C1878 C1877 1.399 . S
C1878 C1879 1.385 . S
C1879 H1865 0.931 . S
C1879 C1878 1.385 . S
C1879 C1880 1.389 . S
C1880 C1879 1.389 . S
C1880 C1881 1.387 . S
C1881 H1866 0.930 . S
C1881 C1876 1.390 . S
C1881 C1880 1.387 . S
H1882 C1894 0.930 . S
H1883 C1896 0.930 . S
H1884 C1897 0.930 . S
H1885 C1901 0.959 . S
H1886 C1901 0.959 . S
H1887 C1901 0.961 . S
H1888 C1902 0.960 . S
H1889 C1902 0.961 . S
H1890 C1902 0.959 . S
H1891 C1905 0.929 . S
H1892 C1906 0.931 1_455 S
H1893 C1908 0.930 1_455 S
C1894 H1882 0.930 . S
C1894 C1895 1.399 . S
C1894 C1899 1.399 . S
C1895 C1894 1.399 . S
C1895 C1896 1.376 . S
C1896 H1883 0.930 . S
C1896 C1895 1.376 . S
C1896 C1897 1.388 . S
C1897 H1884 0.930 . S
C1897 C1896 1.388 . S
C1897 C1898 1.390 . S
C1898 C1897 1.390 . S
C1898 C1899 1.394 . S
C1898 C1904 1.465 . S
C1899 C1894 1.399 . S
C1899 C1898 1.394 . S
C1899 C1900 1.516 . S
C1900 C1899 1.516 . S
C1900 C1901 1.502 . S
C1900 C1902 1.561 . S
C1900 C1903 1.526 . S
C1901 H1885 0.959 . S
C1901 H1886 0.959 . S
C1901 H1887 0.961 . S
C1901 C1900 1.502 . S
C1902 H1888 0.960 . S
C1902 H1889 0.961 . S
C1902 H1890 0.959 . S
C1902 C1900 1.561 . S
C1903 C1900 1.526 . S
C1903 C1904 1.396 . S
C1903 C1908 1.390 . S
C1904 C1898 1.465 . S
C1904 C1903 1.396 . S
C1904 C1905 1.399 . S
C1905 H1891 0.929 . S
C1905 C1904 1.399 . S
C1905 C1906 1.385 . S
C1906 H1892 0.931 1_655 S
C1906 C1905 1.385 . S
C1906 C1907 1.389 1_655 S
C1907 C1906 1.389 1_455 S
C1907 C1908 1.387 1_455 S
C1908 H1893 0.930 1_655 S
C1908 C1903 1.390 . S
C1908 C1907 1.387 1_655 S
H1909 C1921 0.930 . S
H1910 C1923 0.930 . S
H1911 C1924 0.930 . S
H1912 C1928 0.959 . S
H1913 C1928 0.959 . S
H1914 C1928 0.961 . S
H1915 C1929 0.960 . S
H1916 C1929 0.961 . S
H1917 C1929 0.959 . S
H1918 C1932 0.929 . S
H1919 C1933 0.931 . S
H1920 C1935 0.930 . S
C1921 H1909 0.930 . S
C1921 C1922 1.399 . S
C1921 C1926 1.399 . S
C1922 C1921 1.399 . S
C1922 C1923 1.376 . S
C1923 H1910 0.930 . S
C1923 C1922 1.376 . S
C1923 C1924 1.388 . S
C1924 H1911 0.930 . S
C1924 C1923 1.388 . S
C1924 C1925 1.390 . S
C1925 C1924 1.390 . S
C1925 C1926 1.394 . S
C1925 C1931 1.465 . S
C1926 C1921 1.399 . S
C1926 C1925 1.394 . S
C1926 C1927 1.516 . S
C1927 C1926 1.516 . S
C1927 C1928 1.502 . S
C1927 C1929 1.561 . S
C1927 C1930 1.526 . S
C1928 H1912 0.959 . S
C1928 H1913 0.959 . S
C1928 H1914 0.961 . S
C1928 C1927 1.502 . S
C1929 H1915 0.960 . S
C1929 H1916 0.961 . S
C1929 H1917 0.959 . S
C1929 C1927 1.561 . S
C1930 C1927 1.526 . S
C1930 C1931 1.396 . S
C1930 C1935 1.390 . S
C1931 C1925 1.465 . S
C1931 C1930 1.396 . S
C1931 C1932 1.399 . S
C1932 H1918 0.929 . S
C1932 C1931 1.399 . S
C1932 C1933 1.385 . S
C1933 H1919 0.931 . S
C1933 C1932 1.385 . S
C1933 C1934 1.389 . S
C1934 C1933 1.389 . S
C1934 C1935 1.387 . S
C1935 H1920 0.930 . S
C1935 C1930 1.390 . S
C1935 C1934 1.387 . S
H1936 C1948 0.930 . S
H1937 C1950 0.930 . S
H1938 C1951 0.930 . S
H1939 C1955 0.959 . S
H1940 C1955 0.959 . S
H1941 C1955 0.961 . S
H1942 C1956 0.960 . S
H1943 C1956 0.961 . S
H1944 C1956 0.959 . S
H1945 C1959 0.929 . S
H1946 C1960 0.931 . S
H1947 C1962 0.930 . S
C1948 H1936 0.930 . S
C1948 C1949 1.399 . S
C1948 C1953 1.399 . S
C1949 C1948 1.399 . S
C1949 C1950 1.376 . S
C1950 H1937 0.930 . S
C1950 C1949 1.376 . S
C1950 C1951 1.388 . S
C1951 H1938 0.930 . S
C1951 C1950 1.388 . S
C1951 C1952 1.390 . S
C1952 C1951 1.390 . S
C1952 C1953 1.394 . S
C1952 C1958 1.465 . S
C1953 C1948 1.399 . S
C1953 C1952 1.394 . S
C1953 C1954 1.516 . S
C1954 C1953 1.516 . S
C1954 C1955 1.502 . S
C1954 C1956 1.561 . S
C1954 C1957 1.526 . S
C1955 H1939 0.959 . S
C1955 H1940 0.959 . S
C1955 H1941 0.961 . S
C1955 C1954 1.502 . S
C1956 H1942 0.960 . S
C1956 H1943 0.961 . S
C1956 H1944 0.959 . S
C1956 C1954 1.561 . S
C1957 C1954 1.526 . S
C1957 C1958 1.396 . S
C1957 C1962 1.390 . S
C1958 C1952 1.465 . S
C1958 C1957 1.396 . S
C1958 C1959 1.399 . S
C1959 H1945 0.929 . S
C1959 C1958 1.399 . S
C1959 C1960 1.385 . S
C1960 H1946 0.931 . S
C1960 C1959 1.385 . S
C1960 C1961 1.389 . S
C1961 C1960 1.389 . S
C1961 C1962 1.387 . S
C1962 H1947 0.930 . S
C1962 C1957 1.390 . S
C1962 C1961 1.387 . S
H1963 C1975 0.930 . S
H1964 C1977 0.930 . S
H1965 C1978 0.930 . S
H1966 C1982 0.959 . S
H1967 C1982 0.959 . S
H1968 C1982 0.961 . S
H1969 C1983 0.960 . S
H1970 C1983 0.961 . S
H1971 C1983 0.959 . S
H1972 C1986 0.929 . S
H1973 C1987 0.931 . S
H1974 C1989 0.930 . S
C1975 H1963 0.930 . S
C1975 C1976 1.399 . S
C1975 C1980 1.399 . S
C1976 C1975 1.399 . S
C1976 C1977 1.376 . S
C1977 H1964 0.930 . S
C1977 C1976 1.376 . S
C1977 C1978 1.388 . S
C1978 H1965 0.930 . S
C1978 C1977 1.388 . S
C1978 C1979 1.390 . S
C1979 C1978 1.390 . S
C1979 C1980 1.394 . S
C1979 C1985 1.465 . S
C1980 C1975 1.399 . S
C1980 C1979 1.394 . S
C1980 C1981 1.516 . S
C1981 C1980 1.516 . S
C1981 C1982 1.502 . S
C1981 C1983 1.561 . S
C1981 C1984 1.526 . S
C1982 H1966 0.959 . S
C1982 H1967 0.959 . S
C1982 H1968 0.961 . S
C1982 C1981 1.502 . S
C1983 H1969 0.960 . S
C1983 H1970 0.961 . S
C1983 H1971 0.959 . S
C1983 C1981 1.561 . S
C1984 C1981 1.526 . S
C1984 C1985 1.396 . S
C1984 C1989 1.390 . S
C1985 C1979 1.465 . S
C1985 C1984 1.396 . S
C1985 C1986 1.399 . S
C1986 H1972 0.929 . S
C1986 C1985 1.399 . S
C1986 C1987 1.385 . S
C1987 H1973 0.931 . S
C1987 C1986 1.385 . S
C1987 C1988 1.389 . S
C1988 C1987 1.389 . S
C1988 C1989 1.387 . S
C1989 H1974 0.930 . S
C1989 C1984 1.390 . S
C1989 C1988 1.387 . S
H1990 C2002 0.930 . S
H1991 C2004 0.930 . S
H1992 C2005 0.930 . S
H1993 C2009 0.959 . S
H1994 C2009 0.959 . S
H1995 C2009 0.961 . S
H1996 C2010 0.960 . S
H1997 C2010 0.961 . S
H1998 C2010 0.959 . S
H1999 C2013 0.929 . S
H2000 C2014 0.931 . S
H2001 C2016 0.930 . S
C2002 H1990 0.930 . S
C2002 C2003 1.399 . S
C2002 C2007 1.399 . S
C2003 C2002 1.399 . S
C2003 C2004 1.376 . S
C2004 H1991 0.930 . S
C2004 C2003 1.376 . S
C2004 C2005 1.388 . S
C2005 H1992 0.930 . S
C2005 C2004 1.388 . S
C2005 C2006 1.390 . S
C2006 C2005 1.390 . S
C2006 C2007 1.394 . S
C2006 C2012 1.465 . S
C2007 C2002 1.399 . S
C2007 C2006 1.394 . S
C2007 C2008 1.516 . S
C2008 C2007 1.516 . S
C2008 C2009 1.502 . S
C2008 C2010 1.561 . S
C2008 C2011 1.526 . S
C2009 H1993 0.959 . S
C2009 H1994 0.959 . S
C2009 H1995 0.961 . S
C2009 C2008 1.502 . S
C2010 H1996 0.960 . S
C2010 H1997 0.961 . S
C2010 H1998 0.959 . S
C2010 C2008 1.561 . S
C2011 C2008 1.526 . S
C2011 C2012 1.396 . S
C2011 C2016 1.390 . S
C2012 C2006 1.465 . S
C2012 C2011 1.396 . S
C2012 C2013 1.399 . S
C2013 H1999 0.929 . S
C2013 C2012 1.399 . S
C2013 C2014 1.385 . S
C2014 H2000 0.931 . S
C2014 C2013 1.385 . S
C2014 C2015 1.389 . S
C2015 C2014 1.389 . S
C2015 C2016 1.387 . S
C2016 H2001 0.930 . S
C2016 C2011 1.390 . S
C2016 C2015 1.387 . S
H2017 C2029 0.930 . S
H2018 C2031 0.930 . S
H2019 C2032 0.930 . S
H2020 C2036 0.959 . S
H2021 C2036 0.959 . S
H2022 C2036 0.961 . S
H2023 C2037 0.960 . S
H2024 C2037 0.961 . S
H2025 C2037 0.959 . S
H2026 C2040 0.929 . S
H2027 C2041 0.931 . S
H2028 C2043 0.930 . S
C2029 H2017 0.930 . S
C2029 C2030 1.399 . S
C2029 C2034 1.399 . S
C2030 C2029 1.399 . S
C2030 C2031 1.376 . S
C2031 H2018 0.930 . S
C2031 C2030 1.376 . S
C2031 C2032 1.388 . S
C2032 H2019 0.930 . S
C2032 C2031 1.388 . S
C2032 C2033 1.390 . S
C2033 C2032 1.390 . S
C2033 C2034 1.394 . S
C2033 C2039 1.465 . S
C2034 C2029 1.399 . S
C2034 C2033 1.394 . S
C2034 C2035 1.516 . S
C2035 C2034 1.516 . S
C2035 C2036 1.502 . S
C2035 C2037 1.561 . S
C2035 C2038 1.526 . S
C2036 H2020 0.959 . S
C2036 H2021 0.959 . S
C2036 H2022 0.961 . S
C2036 C2035 1.502 . S
C2037 H2023 0.960 . S
C2037 H2024 0.961 . S
C2037 H2025 0.959 . S
C2037 C2035 1.561 . S
C2038 C2035 1.526 . S
C2038 C2039 1.396 . S
C2038 C2043 1.390 . S
C2039 C2033 1.465 . S
C2039 C2038 1.396 . S
C2039 C2040 1.399 . S
C2040 H2026 0.929 . S
C2040 C2039 1.399 . S
C2040 C2041 1.385 . S
C2041 H2027 0.931 . S
C2041 C2040 1.385 . S
C2041 C2042 1.389 . S
C2042 C2041 1.389 . S
C2042 C2043 1.387 . S
C2043 H2028 0.930 . S
C2043 C2038 1.390 . S
C2043 C2042 1.387 . S
H2044 C2056 0.930 . S
H2045 C2058 0.930 . S
H2046 C2059 0.930 . S
H2047 C2063 0.959 . S
H2048 C2063 0.959 . S
H2049 C2063 0.961 . S
H2050 C2064 0.960 . S
H2051 C2064 0.961 . S
H2052 C2064 0.959 . S
H2053 C2067 0.929 . S
H2054 C2068 0.931 . S
H2055 C2070 0.930 . S
C2056 H2044 0.930 . S
C2056 C2057 1.399 . S
C2056 C2061 1.399 . S
C2057 C2056 1.399 . S
C2057 C2058 1.376 . S
C2058 H2045 0.930 . S
C2058 C2057 1.376 . S
C2058 C2059 1.388 . S
C2059 H2046 0.930 . S
C2059 C2058 1.388 . S
C2059 C2060 1.390 . S
C2060 C2059 1.390 . S
C2060 C2061 1.394 . S
C2060 C2066 1.465 . S
C2061 C2056 1.399 . S
C2061 C2060 1.394 . S
C2061 C2062 1.516 . S
C2062 C2061 1.516 . S
C2062 C2063 1.502 . S
C2062 C2064 1.561 . S
C2062 C2065 1.526 . S
C2063 H2047 0.959 . S
C2063 H2048 0.959 . S
C2063 H2049 0.961 . S
C2063 C2062 1.502 . S
C2064 H2050 0.960 . S
C2064 H2051 0.961 . S
C2064 H2052 0.959 . S
C2064 C2062 1.561 . S
C2065 C2062 1.526 . S
C2065 C2066 1.396 . S
C2065 C2070 1.390 . S
C2066 C2060 1.465 . S
C2066 C2065 1.396 . S
C2066 C2067 1.399 . S
C2067 H2053 0.929 . S
C2067 C2066 1.399 . S
C2067 C2068 1.385 . S
C2068 H2054 0.931 . S
C2068 C2067 1.385 . S
C2068 C2069 1.389 . S
C2069 C2068 1.389 . S
C2069 C2070 1.387 . S
C2070 H2055 0.930 . S
C2070 C2065 1.390 . S
C2070 C2069 1.387 . S
H2071 C2083 0.930 . S
H2072 C2085 0.930 . S
H2073 C2086 0.930 . S
H2074 C2090 0.959 . S
H2075 C2090 0.959 . S
H2076 C2090 0.961 . S
H2077 C2091 0.960 . S
H2078 C2091 0.961 . S
H2079 C2091 0.959 . S
H2080 C2094 0.929 . S
H2081 C2095 0.931 . S
H2082 C2097 0.930 . S
C2083 H2071 0.930 . S
C2083 C2084 1.399 . S
C2083 C2088 1.399 . S
C2084 C2083 1.399 . S
C2084 C2085 1.376 . S
C2085 H2072 0.930 . S
C2085 C2084 1.376 . S
C2085 C2086 1.388 . S
C2086 H2073 0.930 . S
C2086 C2085 1.388 . S
C2086 C2087 1.390 . S
C2087 C2086 1.390 . S
C2087 C2088 1.394 . S
C2087 C2093 1.465 . S
C2088 C2083 1.399 . S
C2088 C2087 1.394 . S
C2088 C2089 1.516 . S
C2089 C2088 1.516 . S
C2089 C2090 1.502 . S
C2089 C2091 1.561 . S
C2089 C2092 1.526 . S
C2090 H2074 0.959 . S
C2090 H2075 0.959 . S
C2090 H2076 0.961 . S
C2090 C2089 1.502 . S
C2091 H2077 0.960 . S
C2091 H2078 0.961 . S
C2091 H2079 0.959 . S
C2091 C2089 1.561 . S
C2092 C2089 1.526 . S
C2092 C2093 1.396 . S
C2092 C2097 1.390 . S
C2093 C2087 1.465 . S
C2093 C2092 1.396 . S
C2093 C2094 1.399 . S
C2094 H2080 0.929 . S
C2094 C2093 1.399 . S
C2094 C2095 1.385 . S
C2095 H2081 0.931 . S
C2095 C2094 1.385 . S
C2095 C2096 1.389 . S
C2096 C2095 1.389 . S
C2096 C2097 1.387 . S
C2097 H2082 0.930 . S
C2097 C2092 1.390 . S
C2097 C2096 1.387 . S
H2098 C2110 0.930 . S
H2099 C2112 0.930 . S
H2100 C2113 0.930 . S
H2101 C2117 0.959 . S
H2102 C2117 0.959 . S
H2103 C2117 0.961 . S
H2104 C2118 0.960 . S
H2105 C2118 0.961 . S
H2106 C2118 0.959 . S
H2107 C2121 0.929 . S
H2108 C2122 0.931 . S
H2109 C2124 0.930 . S
C2110 H2098 0.930 . S
C2110 C2111 1.399 . S
C2110 C2115 1.399 . S
C2111 C2110 1.399 . S
C2111 C2112 1.376 . S
C2112 H2099 0.930 . S
C2112 C2111 1.376 . S
C2112 C2113 1.388 . S
C2113 H2100 0.930 . S
C2113 C2112 1.388 . S
C2113 C2114 1.390 . S
C2114 C2113 1.390 . S
C2114 C2115 1.394 . S
C2114 C2120 1.465 . S
C2115 C2110 1.399 . S
C2115 C2114 1.394 . S
C2115 C2116 1.516 . S
C2116 C2115 1.516 . S
C2116 C2117 1.502 . S
C2116 C2118 1.561 . S
C2116 C2119 1.526 . S
C2117 H2101 0.959 . S
C2117 H2102 0.959 . S
C2117 H2103 0.961 . S
C2117 C2116 1.502 . S
C2118 H2104 0.960 . S
C2118 H2105 0.961 . S
C2118 H2106 0.959 . S
C2118 C2116 1.561 . S
C2119 C2116 1.526 . S
C2119 C2120 1.396 . S
C2119 C2124 1.390 . S
C2120 C2114 1.465 . S
C2120 C2119 1.396 . S
C2120 C2121 1.399 . S
C2121 H2107 0.929 . S
C2121 C2120 1.399 . S
C2121 C2122 1.385 . S
C2122 H2108 0.931 . S
C2122 C2121 1.385 . S
C2122 C2123 1.389 . S
C2123 C2122 1.389 . S
C2123 C2124 1.387 . S
C2124 H2109 0.930 . S
C2124 C2119 1.390 . S
C2124 C2123 1.387 . S
H2125 C2137 0.930 . S
H2126 C2139 0.930 . S
H2127 C2140 0.930 . S
H2128 C2144 0.959 . S
H2129 C2144 0.959 . S
H2130 C2144 0.961 . S
H2131 C2145 0.960 . S
H2132 C2145 0.961 . S
H2133 C2145 0.959 . S
H2134 C2148 0.929 . S
H2135 C2149 0.931 . S
H2136 C2151 0.930 . S
C2137 H2125 0.930 . S
C2137 C2138 1.399 . S
C2137 C2142 1.399 . S
C2138 C2137 1.399 . S
C2138 C2139 1.376 . S
C2139 H2126 0.930 . S
C2139 C2138 1.376 . S
C2139 C2140 1.388 . S
C2140 H2127 0.930 . S
C2140 C2139 1.388 . S
C2140 C2141 1.390 . S
C2141 C2140 1.390 . S
C2141 C2142 1.394 . S
C2141 C2147 1.465 . S
C2142 C2137 1.399 . S
C2142 C2141 1.394 . S
C2142 C2143 1.516 . S
C2143 C2142 1.516 . S
C2143 C2144 1.502 . S
C2143 C2145 1.561 . S
C2143 C2146 1.526 . S
C2144 H2128 0.959 . S
C2144 H2129 0.959 . S
C2144 H2130 0.961 . S
C2144 C2143 1.502 . S
C2145 H2131 0.960 . S
C2145 H2132 0.961 . S
C2145 H2133 0.959 . S
C2145 C2143 1.561 . S
C2146 C2143 1.526 . S
C2146 C2147 1.396 . S
C2146 C2151 1.390 . S
C2147 C2141 1.465 . S
C2147 C2146 1.396 . S
C2147 C2148 1.399 . S
C2148 H2134 0.929 . S
C2148 C2147 1.399 . S
C2148 C2149 1.385 . S
C2149 H2135 0.931 . S
C2149 C2148 1.385 . S
C2149 C2150 1.389 . S
C2150 C2149 1.389 . S
C2150 C2151 1.387 . S
C2151 H2136 0.930 . S
C2151 C2146 1.390 . S
C2151 C2150 1.387 . S
H2152 C2164 0.930 . S
H2153 C2166 0.930 . S
H2154 C2167 0.930 . S
H2155 C2171 0.959 . S
H2156 C2171 0.959 . S
H2157 C2171 0.961 . S
H2158 C2172 0.960 . S
H2159 C2172 0.961 . S
H2160 C2172 0.959 . S
H2161 C2175 0.929 . S
H2162 C2176 0.931 . S
H2163 C2178 0.930 . S
C2164 H2152 0.930 . S
C2164 C2165 1.399 . S
C2164 C2169 1.399 . S
C2165 C2164 1.399 . S
C2165 C2166 1.376 . S
C2166 H2153 0.930 . S
C2166 C2165 1.376 . S
C2166 C2167 1.388 . S
C2167 H2154 0.930 . S
C2167 C2166 1.388 . S
C2167 C2168 1.390 . S
C2168 C2167 1.390 . S
C2168 C2169 1.394 . S
C2168 C2174 1.465 . S
C2169 C2164 1.399 . S
C2169 C2168 1.394 . S
C2169 C2170 1.516 . S
C2170 C2169 1.516 . S
C2170 C2171 1.502 . S
C2170 C2172 1.561 . S
C2170 C2173 1.526 . S
C2171 H2155 0.959 . S
C2171 H2156 0.959 . S
C2171 H2157 0.961 . S
C2171 C2170 1.502 . S
C2172 H2158 0.960 . S
C2172 H2159 0.961 . S
C2172 H2160 0.959 . S
C2172 C2170 1.561 . S
C2173 C2170 1.526 . S
C2173 C2174 1.396 . S
C2173 C2178 1.390 . S
C2174 C2168 1.465 . S
C2174 C2173 1.396 . S
C2174 C2175 1.399 . S
C2175 H2161 0.929 . S
C2175 C2174 1.399 . S
C2175 C2176 1.385 . S
C2176 H2162 0.931 . S
C2176 C2175 1.385 . S
C2176 C2177 1.389 . S
C2177 C2176 1.389 . S
C2177 C2178 1.387 . S
C2178 H2163 0.930 . S
C2178 C2173 1.390 . S
C2178 C2177 1.387 . S
H2179 C2191 0.930 . S
H2180 C2193 0.930 . S
H2181 C2194 0.930 . S
H2182 C2198 0.959 . S
H2183 C2198 0.959 . S
H2184 C2198 0.961 . S
H2185 C2199 0.960 . S
H2186 C2199 0.961 . S
H2187 C2199 0.959 . S
H2188 C2202 0.929 . S
H2189 C2203 0.931 . S
H2190 C2205 0.930 . S
C2191 H2179 0.930 . S
C2191 C2192 1.399 . S
C2191 C2196 1.399 . S
C2192 C2191 1.399 . S
C2192 C2193 1.376 . S
C2193 H2180 0.930 . S
C2193 C2192 1.376 . S
C2193 C2194 1.388 . S
C2194 H2181 0.930 . S
C2194 C2193 1.388 . S
C2194 C2195 1.390 . S
C2195 C2194 1.390 . S
C2195 C2196 1.394 . S
C2195 C2201 1.465 . S
C2196 C2191 1.399 . S
C2196 C2195 1.394 . S
C2196 C2197 1.516 . S
C2197 C2196 1.516 . S
C2197 C2198 1.502 . S
C2197 C2199 1.561 . S
C2197 C2200 1.526 . S
C2198 H2182 0.959 . S
C2198 H2183 0.959 . S
C2198 H2184 0.961 . S
C2198 C2197 1.502 . S
C2199 H2185 0.960 . S
C2199 H2186 0.961 . S
C2199 H2187 0.959 . S
C2199 C2197 1.561 . S
C2200 C2197 1.526 . S
C2200 C2201 1.396 . S
C2200 C2205 1.390 . S
C2201 C2195 1.465 . S
C2201 C2200 1.396 . S
C2201 C2202 1.399 . S
C2202 H2188 0.929 . S
C2202 C2201 1.399 . S
C2202 C2203 1.385 . S
C2203 H2189 0.931 . S
C2203 C2202 1.385 . S
C2203 C2204 1.389 . S
C2204 C2203 1.389 . S
C2204 C2205 1.387 . S
C2205 H2190 0.930 . S
C2205 C2200 1.390 . S
C2205 C2204 1.387 . S
H2206 C2218 0.930 . S
H2207 C2220 0.930 . S
H2208 C2221 0.930 . S
H2209 C2225 0.959 . S
H2210 C2225 0.959 . S
H2211 C2225 0.961 . S
H2212 C2226 0.960 . S
H2213 C2226 0.961 . S
H2214 C2226 0.959 . S
H2215 C2229 0.929 . S
H2216 C2230 0.931 . S
H2217 C2232 0.930 . S
C2218 H2206 0.930 . S
C2218 C2219 1.399 . S
C2218 C2223 1.399 . S
C2219 C2218 1.399 . S
C2219 C2220 1.376 . S
C2220 H2207 0.930 . S
C2220 C2219 1.376 . S
C2220 C2221 1.388 . S
C2221 H2208 0.930 . S
C2221 C2220 1.388 . S
C2221 C2222 1.390 . S
C2222 C2221 1.390 . S
C2222 C2223 1.394 . S
C2222 C2228 1.465 . S
C2223 C2218 1.399 . S
C2223 C2222 1.394 . S
C2223 C2224 1.516 . S
C2224 C2223 1.516 . S
C2224 C2225 1.502 . S
C2224 C2226 1.561 . S
C2224 C2227 1.526 . S
C2225 H2209 0.959 . S
C2225 H2210 0.959 . S
C2225 H2211 0.961 . S
C2225 C2224 1.502 . S
C2226 H2212 0.960 . S
C2226 H2213 0.961 . S
C2226 H2214 0.959 . S
C2226 C2224 1.561 . S
C2227 C2224 1.526 . S
C2227 C2228 1.396 . S
C2227 C2232 1.390 . S
C2228 C2222 1.465 . S
C2228 C2227 1.396 . S
C2228 C2229 1.399 . S
C2229 H2215 0.929 . S
C2229 C2228 1.399 . S
C2229 C2230 1.385 . S
C2230 H2216 0.931 . S
C2230 C2229 1.385 . S
C2230 C2231 1.389 . S
C2231 C2230 1.389 . S
C2231 C2232 1.387 . S
C2232 H2217 0.930 . S
C2232 C2227 1.390 . S
C2232 C2231 1.387 . S
H2233 C2245 0.930 . S
H2234 C2247 0.930 . S
H2235 C2248 0.930 . S
H2236 C2252 0.959 . S
H2237 C2252 0.959 . S
H2238 C2252 0.961 . S
H2239 C2253 0.960 . S
H2240 C2253 0.961 . S
H2241 C2253 0.959 . S
H2242 C2256 0.929 . S
H2243 C2257 0.931 . S
H2244 C2259 0.930 . S
C2245 H2233 0.930 . S
C2245 C2246 1.399 . S
C2245 C2250 1.399 . S
C2246 C2245 1.399 . S
C2246 C2247 1.376 . S
C2247 H2234 0.930 . S
C2247 C2246 1.376 . S
C2247 C2248 1.388 . S
C2248 H2235 0.930 . S
C2248 C2247 1.388 . S
C2248 C2249 1.390 . S
C2249 C2248 1.390 . S
C2249 C2250 1.394 . S
C2249 C2255 1.465 . S
C2250 C2245 1.399 . S
C2250 C2249 1.394 . S
C2250 C2251 1.516 . S
C2251 C2250 1.516 . S
C2251 C2252 1.502 . S
C2251 C2253 1.561 . S
C2251 C2254 1.526 . S
C2252 H2236 0.959 . S
C2252 H2237 0.959 . S
C2252 H2238 0.961 . S
C2252 C2251 1.502 . S
C2253 H2239 0.960 . S
C2253 H2240 0.961 . S
C2253 H2241 0.959 . S
C2253 C2251 1.561 . S
C2254 C2251 1.526 . S
C2254 C2255 1.396 . S
C2254 C2259 1.390 . S
C2255 C2249 1.465 . S
C2255 C2254 1.396 . S
C2255 C2256 1.399 . S
C2256 H2242 0.929 . S
C2256 C2255 1.399 . S
C2256 C2257 1.385 . S
C2257 H2243 0.931 . S
C2257 C2256 1.385 . S
C2257 C2258 1.389 . S
C2258 C2257 1.389 . S
C2258 C2259 1.387 . S
C2259 H2244 0.930 . S
C2259 C2254 1.390 . S
C2259 C2258 1.387 . S
H2260 C2272 0.930 . S
H2261 C2274 0.930 . S
H2262 C2275 0.930 . S
H2263 C2279 0.959 . S
H2264 C2279 0.959 . S
H2265 C2279 0.961 . S
H2266 C2280 0.960 . S
H2267 C2280 0.961 . S
H2268 C2280 0.959 . S
H2269 C2283 0.929 . S
H2270 C2284 0.931 . S
H2271 C2286 0.930 . S
C2272 H2260 0.930 . S
C2272 C2273 1.399 . S
C2272 C2277 1.399 . S
C2273 C2272 1.399 . S
C2273 C2274 1.376 . S
C2274 H2261 0.930 . S
C2274 C2273 1.376 . S
C2274 C2275 1.388 . S
C2275 H2262 0.930 . S
C2275 C2274 1.388 . S
C2275 C2276 1.390 . S
C2276 C2275 1.390 . S
C2276 C2277 1.394 . S
C2276 C2282 1.465 . S
C2277 C2272 1.399 . S
C2277 C2276 1.394 . S
C2277 C2278 1.516 . S
C2278 C2277 1.516 . S
C2278 C2279 1.502 . S
C2278 C2280 1.561 . S
C2278 C2281 1.526 . S
C2279 H2263 0.959 . S
C2279 H2264 0.959 . S
C2279 H2265 0.961 . S
C2279 C2278 1.502 . S
C2280 H2266 0.960 . S
C2280 H2267 0.961 . S
C2280 H2268 0.959 . S
C2280 C2278 1.561 . S
C2281 C2278 1.526 . S
C2281 C2282 1.396 . S
C2281 C2286 1.390 . S
C2282 C2276 1.465 . S
C2282 C2281 1.396 . S
C2282 C2283 1.399 . S
C2283 H2269 0.929 . S
C2283 C2282 1.399 . S
C2283 C2284 1.385 . S
C2284 H2270 0.931 . S
C2284 C2283 1.385 . S
C2284 C2285 1.389 . S
C2285 C2284 1.389 . S
C2285 C2286 1.387 . S
C2286 H2271 0.930 . S
C2286 C2281 1.390 . S
C2286 C2285 1.387 . S
H2287 C2299 0.930 . S
H2288 C2301 0.930 . S
H2289 C2302 0.930 . S
H2290 C2306 0.959 . S
H2291 C2306 0.959 . S
H2292 C2306 0.961 . S
H2293 C2307 0.960 . S
H2294 C2307 0.961 . S
H2295 C2307 0.959 . S
H2296 C2310 0.929 . S
H2297 C2311 0.931 . S
H2298 C2313 0.930 . S
C2299 H2287 0.930 . S
C2299 C2300 1.399 . S
C2299 C2304 1.399 . S
C2300 C2299 1.399 . S
C2300 C2301 1.376 . S
C2301 H2288 0.930 . S
C2301 C2300 1.376 . S
C2301 C2302 1.388 . S
C2302 H2289 0.930 . S
C2302 C2301 1.388 . S
C2302 C2303 1.390 . S
C2303 C2302 1.390 . S
C2303 C2304 1.394 . S
C2303 C2309 1.465 . S
C2304 C2299 1.399 . S
C2304 C2303 1.394 . S
C2304 C2305 1.516 . S
C2305 C2304 1.516 . S
C2305 C2306 1.502 . S
C2305 C2307 1.561 . S
C2305 C2308 1.526 . S
C2306 H2290 0.959 . S
C2306 H2291 0.959 . S
C2306 H2292 0.961 . S
C2306 C2305 1.502 . S
C2307 H2293 0.960 . S
C2307 H2294 0.961 . S
C2307 H2295 0.959 . S
C2307 C2305 1.561 . S
C2308 C2305 1.526 . S
C2308 C2309 1.396 . S
C2308 C2313 1.390 . S
C2309 C2303 1.465 . S
C2309 C2308 1.396 . S
C2309 C2310 1.399 . S
C2310 H2296 0.929 . S
C2310 C2309 1.399 . S
C2310 C2311 1.385 . S
C2311 H2297 0.931 . S
C2311 C2310 1.385 . S
C2311 C2312 1.389 . S
C2312 C2311 1.389 . S
C2312 C2313 1.387 . S
C2313 H2298 0.930 . S
C2313 C2308 1.390 . S
C2313 C2312 1.387 . S
H2314 C2326 0.930 . S
H2315 C2328 0.930 . S
H2316 C2329 0.930 . S
H2317 C2333 0.959 . S
H2318 C2333 0.959 . S
H2319 C2333 0.961 . S
H2320 C2334 0.960 . S
H2321 C2334 0.961 . S
H2322 C2334 0.959 . S
H2323 C2337 0.929 . S
H2324 C2338 0.931 . S
H2325 C2340 0.930 . S
C2326 H2314 0.930 . S
C2326 C2327 1.399 . S
C2326 C2331 1.399 . S
C2327 C2326 1.399 . S
C2327 C2328 1.376 . S
C2328 H2315 0.930 . S
C2328 C2327 1.376 . S
C2328 C2329 1.388 . S
C2329 H2316 0.930 . S
C2329 C2328 1.388 . S
C2329 C2330 1.390 . S
C2330 C2329 1.390 . S
C2330 C2331 1.394 . S
C2330 C2336 1.465 . S
C2331 C2326 1.399 . S
C2331 C2330 1.394 . S
C2331 C2332 1.516 . S
C2332 C2331 1.516 . S
C2332 C2333 1.502 . S
C2332 C2334 1.561 . S
C2332 C2335 1.526 . S
C2333 H2317 0.959 . S
C2333 H2318 0.959 . S
C2333 H2319 0.961 . S
C2333 C2332 1.502 . S
C2334 H2320 0.960 . S
C2334 H2321 0.961 . S
C2334 H2322 0.959 . S
C2334 C2332 1.561 . S
C2335 C2332 1.526 . S
C2335 C2336 1.396 . S
C2335 C2340 1.390 . S
C2336 C2330 1.465 . S
C2336 C2335 1.396 . S
C2336 C2337 1.399 . S
C2337 H2323 0.929 . S
C2337 C2336 1.399 . S
C2337 C2338 1.385 . S
C2338 H2324 0.931 . S
C2338 C2337 1.385 . S
C2338 C2339 1.389 . S
C2339 C2338 1.389 . S
C2339 C2340 1.387 . S
C2340 H2325 0.930 . S
C2340 C2335 1.390 . S
C2340 C2339 1.387 . S
H2341 C2353 0.930 . S
H2342 C2355 0.930 . S
H2343 C2356 0.930 . S
H2344 C2360 0.959 . S
H2345 C2360 0.959 . S
H2346 C2360 0.961 . S
H2347 C2361 0.960 . S
H2348 C2361 0.961 . S
H2349 C2361 0.959 . S
H2350 C2364 0.929 . S
H2351 C2365 0.931 . S
H2352 C2367 0.930 . S
C2353 H2341 0.930 . S
C2353 C2354 1.399 . S
C2353 C2358 1.399 . S
C2354 C2353 1.399 . S
C2354 C2355 1.376 . S
C2355 H2342 0.930 . S
C2355 C2354 1.376 . S
C2355 C2356 1.388 . S
C2356 H2343 0.930 . S
C2356 C2355 1.388 . S
C2356 C2357 1.390 . S
C2357 C2356 1.390 . S
C2357 C2358 1.394 . S
C2357 C2363 1.465 . S
C2358 C2353 1.399 . S
C2358 C2357 1.394 . S
C2358 C2359 1.516 . S
C2359 C2358 1.516 . S
C2359 C2360 1.502 . S
C2359 C2361 1.561 . S
C2359 C2362 1.526 . S
C2360 H2344 0.959 . S
C2360 H2345 0.959 . S
C2360 H2346 0.961 . S
C2360 C2359 1.502 . S
C2361 H2347 0.960 . S
C2361 H2348 0.961 . S
C2361 H2349 0.959 . S
C2361 C2359 1.561 . S
C2362 C2359 1.526 . S
C2362 C2363 1.396 . S
C2362 C2367 1.390 . S
C2363 C2357 1.465 . S
C2363 C2362 1.396 . S
C2363 C2364 1.399 . S
C2364 H2350 0.929 . S
C2364 C2363 1.399 . S
C2364 C2365 1.385 . S
C2365 H2351 0.931 . S
C2365 C2364 1.385 . S
C2365 C2366 1.389 . S
C2366 C2365 1.389 . S
C2366 C2367 1.387 . S
C2367 H2352 0.930 . S
C2367 C2362 1.390 . S
C2367 C2366 1.387 . S
H2368 C2380 0.930 . S
H2369 C2382 0.930 . S
H2370 C2383 0.930 . S
H2371 C2387 0.959 . S
H2372 C2387 0.959 . S
H2373 C2387 0.961 . S
H2374 C2388 0.960 . S
H2375 C2388 0.961 . S
H2376 C2388 0.959 . S
H2377 C2391 0.929 . S
H2378 C2392 0.931 . S
H2379 C2394 0.930 . S
C2380 H2368 0.930 . S
C2380 C2381 1.399 . S
C2380 C2385 1.399 . S
C2381 C2380 1.399 . S
C2381 C2382 1.376 . S
C2382 H2369 0.930 . S
C2382 C2381 1.376 . S
C2382 C2383 1.388 . S
C2383 H2370 0.930 . S
C2383 C2382 1.388 . S
C2383 C2384 1.390 . S
C2384 C2383 1.390 . S
C2384 C2385 1.394 . S
C2384 C2390 1.465 . S
C2385 C2380 1.399 . S
C2385 C2384 1.394 . S
C2385 C2386 1.516 . S
C2386 C2385 1.516 . S
C2386 C2387 1.502 . S
C2386 C2388 1.561 . S
C2386 C2389 1.526 . S
C2387 H2371 0.959 . S
C2387 H2372 0.959 . S
C2387 H2373 0.961 . S
C2387 C2386 1.502 . S
C2388 H2374 0.960 . S
C2388 H2375 0.961 . S
C2388 H2376 0.959 . S
C2388 C2386 1.561 . S
C2389 C2386 1.526 . S
C2389 C2390 1.396 . S
C2389 C2394 1.390 . S
C2390 C2384 1.465 . S
C2390 C2389 1.396 . S
C2390 C2391 1.399 . S
C2391 H2377 0.929 . S
C2391 C2390 1.399 . S
C2391 C2392 1.385 . S
C2392 H2378 0.931 . S
C2392 C2391 1.385 . S
C2392 C2393 1.389 . S
C2393 C2392 1.389 . S
C2393 C2394 1.387 . S
C2394 H2379 0.930 . S
C2394 C2389 1.390 . S
C2394 C2393 1.387 . S
H2395 C2407 0.930 . S
H2396 C2409 0.930 . S
H2397 C2410 0.930 . S
H2398 C2414 0.959 . S
H2399 C2414 0.959 . S
H2400 C2414 0.961 . S
H2401 C2415 0.960 . S
H2402 C2415 0.961 . S
H2403 C2415 0.959 . S
H2404 C2418 0.929 . S
H2405 C2419 0.931 . S
H2406 C2421 0.930 . S
C2407 H2395 0.930 . S
C2407 C2408 1.399 . S
C2407 C2412 1.399 . S
C2408 C2407 1.399 . S
C2408 C2409 1.376 . S
C2409 H2396 0.930 . S
C2409 C2408 1.376 . S
C2409 C2410 1.388 . S
C2410 H2397 0.930 . S
C2410 C2409 1.388 . S
C2410 C2411 1.390 . S
C2411 C2410 1.390 . S
C2411 C2412 1.394 . S
C2411 C2417 1.465 . S
C2412 C2407 1.399 . S
C2412 C2411 1.394 . S
C2412 C2413 1.516 . S
C2413 C2412 1.516 . S
C2413 C2414 1.502 . S
C2413 C2415 1.561 . S
C2413 C2416 1.526 . S
C2414 H2398 0.959 . S
C2414 H2399 0.959 . S
C2414 H2400 0.961 . S
C2414 C2413 1.502 . S
C2415 H2401 0.960 . S
C2415 H2402 0.961 . S
C2415 H2403 0.959 . S
C2415 C2413 1.561 . S
C2416 C2413 1.526 . S
C2416 C2417 1.396 . S
C2416 C2421 1.390 . S
C2417 C2411 1.465 . S
C2417 C2416 1.396 . S
C2417 C2418 1.399 . S
C2418 H2404 0.929 . S
C2418 C2417 1.399 . S
C2418 C2419 1.385 . S
C2419 H2405 0.931 . S
C2419 C2418 1.385 . S
C2419 C2420 1.389 . S
C2420 C2419 1.389 . S
C2420 C2421 1.387 . S
C2421 H2406 0.930 . S
C2421 C2416 1.390 . S
C2421 C2420 1.387 . S
H2422 C2434 0.930 . S
H2423 C2436 0.930 . S
H2424 C2437 0.930 . S
H2425 C2441 0.959 . S
H2426 C2441 0.959 . S
H2427 C2441 0.961 . S
H2428 C2442 0.960 . S
H2429 C2442 0.961 . S
H2430 C2442 0.959 . S
H2431 C2445 0.929 . S
H2432 C2446 0.931 . S
H2433 C2448 0.930 . S
C2434 H2422 0.930 . S
C2434 C2435 1.399 . S
C2434 C2439 1.399 . S
C2435 C2434 1.399 . S
C2435 C2436 1.376 . S
C2436 H2423 0.930 . S
C2436 C2435 1.376 . S
C2436 C2437 1.388 . S
C2437 H2424 0.930 . S
C2437 C2436 1.388 . S
C2437 C2438 1.390 . S
C2438 C2437 1.390 . S
C2438 C2439 1.394 . S
C2438 C2444 1.465 . S
C2439 C2434 1.399 . S
C2439 C2438 1.394 . S
C2439 C2440 1.516 . S
C2440 C2439 1.516 . S
C2440 C2441 1.502 . S
C2440 C2442 1.561 . S
C2440 C2443 1.526 . S
C2441 H2425 0.959 . S
C2441 H2426 0.959 . S
C2441 H2427 0.961 . S
C2441 C2440 1.502 . S
C2442 H2428 0.960 . S
C2442 H2429 0.961 . S
C2442 H2430 0.959 . S
C2442 C2440 1.561 . S
C2443 C2440 1.526 . S
C2443 C2444 1.396 . S
C2443 C2448 1.390 . S
C2444 C2438 1.465 . S
C2444 C2443 1.396 . S
C2444 C2445 1.399 . S
C2445 H2431 0.929 . S
C2445 C2444 1.399 . S
C2445 C2446 1.385 . S
C2446 H2432 0.931 . S
C2446 C2445 1.385 . S
C2446 C2447 1.389 . S
C2447 C2446 1.389 . S
C2447 C2448 1.387 . S
C2448 H2433 0.930 . S
C2448 C2443 1.390 . S
C2448 C2447 1.387 . S
H2449 C2461 0.930 . S
H2450 C2463 0.930 . S
H2451 C2464 0.930 . S
H2452 C2468 0.959 . S
H2453 C2468 0.959 . S
H2454 C2468 0.961 . S
H2455 C2469 0.960 . S
H2456 C2469 0.961 . S
H2457 C2469 0.959 . S
H2458 C2472 0.929 . S
H2459 C2473 0.931 . S
H2460 C2475 0.930 . S
C2461 H2449 0.930 . S
C2461 C2462 1.399 . S
C2461 C2466 1.399 . S
C2462 C2461 1.399 . S
C2462 C2463 1.376 . S
C2463 H2450 0.930 . S
C2463 C2462 1.376 . S
C2463 C2464 1.388 . S
C2464 H2451 0.930 . S
C2464 C2463 1.388 . S
C2464 C2465 1.390 . S
C2465 C2464 1.390 . S
C2465 C2466 1.394 . S
C2465 C2471 1.465 . S
C2466 C2461 1.399 . S
C2466 C2465 1.394 . S
C2466 C2467 1.516 . S
C2467 C2466 1.516 . S
C2467 C2468 1.502 . S
C2467 C2469 1.561 . S
C2467 C2470 1.526 . S
C2468 H2452 0.959 . S
C2468 H2453 0.959 . S
C2468 H2454 0.961 . S
C2468 C2467 1.502 . S
C2469 H2455 0.960 . S
C2469 H2456 0.961 . S
C2469 H2457 0.959 . S
C2469 C2467 1.561 . S
C2470 C2467 1.526 . S
C2470 C2471 1.396 . S
C2470 C2475 1.390 . S
C2471 C2465 1.465 . S
C2471 C2470 1.396 . S
C2471 C2472 1.399 . S
C2472 H2458 0.929 . S
C2472 C2471 1.399 . S
C2472 C2473 1.385 . S
C2473 H2459 0.931 . S
C2473 C2472 1.385 . S
C2473 C2474 1.389 . S
C2474 C2473 1.389 . S
C2474 C2475 1.387 . S
C2475 H2460 0.930 . S
C2475 C2470 1.390 . S
C2475 C2474 1.387 . S
H2476 C2488 0.930 . S
H2477 C2490 0.930 . S
H2478 C2491 0.930 . S
H2479 C2495 0.959 . S
H2480 C2495 0.959 . S
H2481 C2495 0.961 . S
H2482 C2496 0.960 . S
H2483 C2496 0.961 . S
H2484 C2496 0.959 . S
H2485 C2499 0.929 . S
H2486 C2500 0.931 . S
H2487 C2502 0.930 . S
C2488 H2476 0.930 . S
C2488 C2489 1.399 . S
C2488 C2493 1.399 . S
C2489 C2488 1.399 . S
C2489 C2490 1.376 . S
C2490 H2477 0.930 . S
C2490 C2489 1.376 . S
C2490 C2491 1.388 . S
C2491 H2478 0.930 . S
C2491 C2490 1.388 . S
C2491 C2492 1.390 . S
C2492 C2491 1.390 . S
C2492 C2493 1.394 . S
C2492 C2498 1.465 . S
C2493 C2488 1.399 . S
C2493 C2492 1.394 . S
C2493 C2494 1.516 . S
C2494 C2493 1.516 . S
C2494 C2495 1.502 . S
C2494 C2496 1.561 . S
C2494 C2497 1.526 . S
C2495 H2479 0.959 . S
C2495 H2480 0.959 . S
C2495 H2481 0.961 . S
C2495 C2494 1.502 . S
C2496 H2482 0.960 . S
C2496 H2483 0.961 . S
C2496 H2484 0.959 . S
C2496 C2494 1.561 . S
C2497 C2494 1.526 . S
C2497 C2498 1.396 . S
C2497 C2502 1.390 . S
C2498 C2492 1.465 . S
C2498 C2497 1.396 . S
C2498 C2499 1.399 . S
C2499 H2485 0.929 . S
C2499 C2498 1.399 . S
C2499 C2500 1.385 . S
C2500 H2486 0.931 . S
C2500 C2499 1.385 . S
C2500 C2501 1.389 . S
C2501 C2500 1.389 . S
C2501 C2502 1.387 . S
C2502 H2487 0.930 . S
C2502 C2497 1.390 . S
C2502 C2501 1.387 . S
H2503 C2515 0.930 . S
H2504 C2517 0.930 . S
H2505 C2518 0.930 . S
H2506 C2522 0.959 . S
H2507 C2522 0.959 . S
H2508 C2522 0.961 . S
H2509 C2523 0.960 . S
H2510 C2523 0.961 . S
H2511 C2523 0.959 . S
H2512 C2526 0.929 . S
H2513 C2527 0.931 . S
H2514 C2529 0.930 . S
C2515 H2503 0.930 . S
C2515 C2516 1.399 . S
C2515 C2520 1.399 . S
C2516 C2515 1.399 . S
C2516 C2517 1.376 . S
C2517 H2504 0.930 . S
C2517 C2516 1.376 . S
C2517 C2518 1.388 . S
C2518 H2505 0.930 . S
C2518 C2517 1.388 . S
C2518 C2519 1.390 . S
C2519 C2518 1.390 . S
C2519 C2520 1.394 . S
C2519 C2525 1.465 . S
C2520 C2515 1.399 . S
C2520 C2519 1.394 . S
C2520 C2521 1.516 . S
C2521 C2520 1.516 . S
C2521 C2522 1.502 . S
C2521 C2523 1.561 . S
C2521 C2524 1.526 . S
C2522 H2506 0.959 . S
C2522 H2507 0.959 . S
C2522 H2508 0.961 . S
C2522 C2521 1.502 . S
C2523 H2509 0.960 . S
C2523 H2510 0.961 . S
C2523 H2511 0.959 . S
C2523 C2521 1.561 . S
C2524 C2521 1.526 . S
C2524 C2525 1.396 . S
C2524 C2529 1.390 . S
C2525 C2519 1.465 . S
C2525 C2524 1.396 . S
C2525 C2526 1.399 . S
C2526 H2512 0.929 . S
C2526 C2525 1.399 . S
C2526 C2527 1.385 . S
C2527 H2513 0.931 . S
C2527 C2526 1.385 . S
C2527 C2528 1.389 . S
C2528 C2527 1.389 . S
C2528 C2529 1.387 . S
C2529 H2514 0.930 . S
C2529 C2524 1.390 . S
C2529 C2528 1.387 . S
H2530 C2542 0.930 . S
H2531 C2544 0.930 . S
H2532 C2545 0.930 . S
H2533 C2549 0.959 . S
H2534 C2549 0.959 . S
H2535 C2549 0.961 . S
H2536 C2550 0.960 . S
H2537 C2550 0.961 . S
H2538 C2550 0.959 . S
H2539 C2553 0.929 . S
H2540 C2554 0.931 . S
H2541 C2556 0.930 . S
C2542 H2530 0.930 . S
C2542 C2543 1.399 . S
C2542 C2547 1.399 . S
C2543 C2542 1.399 . S
C2543 C2544 1.376 . S
C2544 H2531 0.930 . S
C2544 C2543 1.376 . S
C2544 C2545 1.388 . S
C2545 H2532 0.930 . S
C2545 C2544 1.388 . S
C2545 C2546 1.390 . S
C2546 C2545 1.390 . S
C2546 C2547 1.394 . S
C2546 C2552 1.465 . S
C2547 C2542 1.399 . S
C2547 C2546 1.394 . S
C2547 C2548 1.516 . S
C2548 C2547 1.516 . S
C2548 C2549 1.502 . S
C2548 C2550 1.561 . S
C2548 C2551 1.526 . S
C2549 H2533 0.959 . S
C2549 H2534 0.959 . S
C2549 H2535 0.961 . S
C2549 C2548 1.502 . S
C2550 H2536 0.960 . S
C2550 H2537 0.961 . S
C2550 H2538 0.959 . S
C2550 C2548 1.561 . S
C2551 C2548 1.526 . S
C2551 C2552 1.396 . S
C2551 C2556 1.390 . S
C2552 C2546 1.465 . S
C2552 C2551 1.396 . S
C2552 C2553 1.399 . S
C2553 H2539 0.929 . S
C2553 C2552 1.399 . S
C2553 C2554 1.385 . S
C2554 H2540 0.931 . S
C2554 C2553 1.385 . S
C2554 C2555 1.389 . S
C2555 C2554 1.389 . S
C2555 C2556 1.387 . S
C2556 H2541 0.930 . S
C2556 C2551 1.390 . S
C2556 C2555 1.387 . S
H2557 C2569 0.930 . S
H2558 C2571 0.930 . S
H2559 C2572 0.930 . S
H2560 C2576 0.959 . S
H2561 C2576 0.959 . S
H2562 C2576 0.961 . S
H2563 C2577 0.960 . S
H2564 C2577 0.961 . S
H2565 C2577 0.959 . S
H2566 C2580 0.929 . S
H2567 C2581 0.931 . S
H2568 C2583 0.930 . S
C2569 H2557 0.930 . S
C2569 C2570 1.399 . S
C2569 C2574 1.399 . S
C2570 C2569 1.399 . S
C2570 C2571 1.376 . S
C2571 H2558 0.930 . S
C2571 C2570 1.376 . S
C2571 C2572 1.388 . S
C2572 H2559 0.930 . S
C2572 C2571 1.388 . S
C2572 C2573 1.390 . S
C2573 C2572 1.390 . S
C2573 C2574 1.394 . S
C2573 C2579 1.465 . S
C2574 C2569 1.399 . S
C2574 C2573 1.394 . S
C2574 C2575 1.516 . S
C2575 C2574 1.516 . S
C2575 C2576 1.502 . S
C2575 C2577 1.561 . S
C2575 C2578 1.526 . S
C2576 H2560 0.959 . S
C2576 H2561 0.959 . S
C2576 H2562 0.961 . S
C2576 C2575 1.502 . S
C2577 H2563 0.960 . S
C2577 H2564 0.961 . S
C2577 H2565 0.959 . S
C2577 C2575 1.561 . S
C2578 C2575 1.526 . S
C2578 C2579 1.396 . S
C2578 C2583 1.390 . S
C2579 C2573 1.465 . S
C2579 C2578 1.396 . S
C2579 C2580 1.399 . S
C2580 H2566 0.929 . S
C2580 C2579 1.399 . S
C2580 C2581 1.385 . S
C2581 H2567 0.931 . S
C2581 C2580 1.385 . S
C2581 C2582 1.389 . S
C2582 C2581 1.389 . S
C2582 C2583 1.387 . S
C2583 H2568 0.930 . S
C2583 C2578 1.390 . S
C2583 C2582 1.387 . S
H2584 C2596 0.930 . S
H2585 C2598 0.930 . S
H2586 C2599 0.930 . S
H2587 C2603 0.959 . S
H2588 C2603 0.959 . S
H2589 C2603 0.961 . S
H2590 C2604 0.960 . S
H2591 C2604 0.961 . S
H2592 C2604 0.959 . S
H2593 C2607 0.929 . S
H2594 C2608 0.931 . S
H2595 C2610 0.930 . S
C2596 H2584 0.930 . S
C2596 C2597 1.399 . S
C2596 C2601 1.399 . S
C2597 C2596 1.399 . S
C2597 C2598 1.376 . S
C2598 H2585 0.930 . S
C2598 C2597 1.376 . S
C2598 C2599 1.388 . S
C2599 H2586 0.930 . S
C2599 C2598 1.388 . S
C2599 C2600 1.390 . S
C2600 C2599 1.390 . S
C2600 C2601 1.394 . S
C2600 C2606 1.465 . S
C2601 C2596 1.399 . S
C2601 C2600 1.394 . S
C2601 C2602 1.516 . S
C2602 C2601 1.516 . S
C2602 C2603 1.502 . S
C2602 C2604 1.561 . S
C2602 C2605 1.526 . S
C2603 H2587 0.959 . S
C2603 H2588 0.959 . S
C2603 H2589 0.961 . S
C2603 C2602 1.502 . S
C2604 H2590 0.960 . S
C2604 H2591 0.961 . S
C2604 H2592 0.959 . S
C2604 C2602 1.561 . S
C2605 C2602 1.526 . S
C2605 C2606 1.396 . S
C2605 C2610 1.390 . S
C2606 C2600 1.465 . S
C2606 C2605 1.396 . S
C2606 C2607 1.399 . S
C2607 H2593 0.929 . S
C2607 C2606 1.399 . S
C2607 C2608 1.385 . S
C2608 H2594 0.931 . S
C2608 C2607 1.385 . S
C2608 C2609 1.389 . S
C2609 C2608 1.389 . S
C2609 C2610 1.387 . S
C2610 H2595 0.930 . S
C2610 C2605 1.390 . S
C2610 C2609 1.387 . S
H2611 C2623 0.930 . S
H2612 C2625 0.930 . S
H2613 C2626 0.930 . S
H2614 C2630 0.959 . S
H2615 C2630 0.959 . S
H2616 C2630 0.961 . S
H2617 C2631 0.960 . S
H2618 C2631 0.961 . S
H2619 C2631 0.959 . S
H2620 C2634 0.929 . S
H2621 C2635 0.931 . S
H2622 C2637 0.930 . S
C2623 H2611 0.930 . S
C2623 C2624 1.399 . S
C2623 C2628 1.399 . S
C2624 C2623 1.399 . S
C2624 C2625 1.376 . S
C2625 H2612 0.930 . S
C2625 C2624 1.376 . S
C2625 C2626 1.388 . S
C2626 H2613 0.930 . S
C2626 C2625 1.388 . S
C2626 C2627 1.390 . S
C2627 C2626 1.390 . S
C2627 C2628 1.394 . S
C2627 C2633 1.465 . S
C2628 C2623 1.399 . S
C2628 C2627 1.394 . S
C2628 C2629 1.516 . S
C2629 C2628 1.516 . S
C2629 C2630 1.502 . S
C2629 C2631 1.561 . S
C2629 C2632 1.526 . S
C2630 H2614 0.959 . S
C2630 H2615 0.959 . S
C2630 H2616 0.961 . S
C2630 C2629 1.502 . S
C2631 H2617 0.960 . S
C2631 H2618 0.961 . S
C2631 H2619 0.959 . S
C2631 C2629 1.561 . S
C2632 C2629 1.526 . S
C2632 C2633 1.396 . S
C2632 C2637 1.390 . S
C2633 C2627 1.465 . S
C2633 C2632 1.396 . S
C2633 C2634 1.399 . S
C2634 H2620 0.929 . S
C2634 C2633 1.399 . S
C2634 C2635 1.385 . S
C2635 H2621 0.931 . S
C2635 C2634 1.385 . S
C2635 C2636 1.389 . S
C2636 C2635 1.389 . S
C2636 C2637 1.387 . S
C2637 H2622 0.930 . S
C2637 C2632 1.390 . S
C2637 C2636 1.387 . S
H2638 C2650 0.930 . S
H2639 C2652 0.930 . S
H2640 C2653 0.930 . S
H2641 C2657 0.959 . S
H2642 C2657 0.959 . S
H2643 C2657 0.961 . S
H2644 C2658 0.960 . S
H2645 C2658 0.961 . S
H2646 C2658 0.959 . S
H2647 C2661 0.929 . S
H2648 C2662 0.931 . S
H2649 C2664 0.930 . S
C2650 H2638 0.930 . S
C2650 C2651 1.399 . S
C2650 C2655 1.399 . S
C2651 C2650 1.399 . S
C2651 C2652 1.376 . S
C2652 H2639 0.930 . S
C2652 C2651 1.376 . S
C2652 C2653 1.388 . S
C2653 H2640 0.930 . S
C2653 C2652 1.388 . S
C2653 C2654 1.390 . S
C2654 C2653 1.390 . S
C2654 C2655 1.394 . S
C2654 C2660 1.465 . S
C2655 C2650 1.399 . S
C2655 C2654 1.394 . S
C2655 C2656 1.516 . S
C2656 C2655 1.516 . S
C2656 C2657 1.502 . S
C2656 C2658 1.561 . S
C2656 C2659 1.526 . S
C2657 H2641 0.959 . S
C2657 H2642 0.959 . S
C2657 H2643 0.961 . S
C2657 C2656 1.502 . S
C2658 H2644 0.960 . S
C2658 H2645 0.961 . S
C2658 H2646 0.959 . S
C2658 C2656 1.561 . S
C2659 C2656 1.526 . S
C2659 C2660 1.396 . S
C2659 C2664 1.390 . S
C2660 C2654 1.465 . S
C2660 C2659 1.396 . S
C2660 C2661 1.399 . S
C2661 H2647 0.929 . S
C2661 C2660 1.399 . S
C2661 C2662 1.385 . S
C2662 H2648 0.931 . S
C2662 C2661 1.385 . S
C2662 C2663 1.389 . S
C2663 C2662 1.389 . S
C2663 C2664 1.387 . S
C2664 H2649 0.930 . S
C2664 C2659 1.390 . S
C2664 C2663 1.387 . S
H2665 C2677 0.930 . S
H2666 C2679 0.930 . S
H2667 C2680 0.930 . S
H2668 C2684 0.959 . S
H2669 C2684 0.959 . S
H2670 C2684 0.961 . S
H2671 C2685 0.960 . S
H2672 C2685 0.961 . S
H2673 C2685 0.959 . S
H2674 C2688 0.929 . S
H2675 C2689 0.931 . S
H2676 C2691 0.930 . S
C2677 H2665 0.930 . S
C2677 C2678 1.399 . S
C2677 C2682 1.399 . S
C2678 C2677 1.399 . S
C2678 C2679 1.376 . S
C2679 H2666 0.930 . S
C2679 C2678 1.376 . S
C2679 C2680 1.388 . S
C2680 H2667 0.930 . S
C2680 C2679 1.388 . S
C2680 C2681 1.390 . S
C2681 C2680 1.390 . S
C2681 C2682 1.394 . S
C2681 C2687 1.465 . S
C2682 C2677 1.399 . S
C2682 C2681 1.394 . S
C2682 C2683 1.516 . S
C2683 C2682 1.516 . S
C2683 C2684 1.502 . S
C2683 C2685 1.561 . S
C2683 C2686 1.526 . S
C2684 H2668 0.959 . S
C2684 H2669 0.959 . S
C2684 H2670 0.961 . S
C2684 C2683 1.502 . S
C2685 H2671 0.960 . S
C2685 H2672 0.961 . S
C2685 H2673 0.959 . S
C2685 C2683 1.561 . S
C2686 C2683 1.526 . S
C2686 C2687 1.396 . S
C2686 C2691 1.390 . S
C2687 C2681 1.465 . S
C2687 C2686 1.396 . S
C2687 C2688 1.399 . S
C2688 H2674 0.929 . S
C2688 C2687 1.399 . S
C2688 C2689 1.385 . S
C2689 H2675 0.931 . S
C2689 C2688 1.385 . S
C2689 C2690 1.389 . S
C2690 C2689 1.389 . S
C2690 C2691 1.387 . S
C2691 H2676 0.930 . S
C2691 C2686 1.390 . S
C2691 C2690 1.387 . S
H2692 C2704 0.930 . S
H2693 C2706 0.930 . S
H2694 C2707 0.930 . S
H2695 C2711 0.959 . S
H2696 C2711 0.959 . S
H2697 C2711 0.961 . S
H2698 C2712 0.960 . S
H2699 C2712 0.961 . S
H2700 C2712 0.959 . S
H2701 C2715 0.929 . S
H2702 C2716 0.931 . S
H2703 C2718 0.930 . S
C2704 H2692 0.930 . S
C2704 C2705 1.399 . S
C2704 C2709 1.399 . S
C2705 C2704 1.399 . S
C2705 C2706 1.376 . S
C2706 H2693 0.930 . S
C2706 C2705 1.376 . S
C2706 C2707 1.388 . S
C2707 H2694 0.930 . S
C2707 C2706 1.388 . S
C2707 C2708 1.390 . S
C2708 C2707 1.390 . S
C2708 C2709 1.394 . S
C2708 C2714 1.465 . S
C2709 C2704 1.399 . S
C2709 C2708 1.394 . S
C2709 C2710 1.516 . S
C2710 C2709 1.516 . S
C2710 C2711 1.502 . S
C2710 C2712 1.561 . S
C2710 C2713 1.526 . S
C2711 H2695 0.959 . S
C2711 H2696 0.959 . S
C2711 H2697 0.961 . S
C2711 C2710 1.502 . S
C2712 H2698 0.960 . S
C2712 H2699 0.961 . S
C2712 H2700 0.959 . S
C2712 C2710 1.561 . S
C2713 C2710 1.526 . S
C2713 C2714 1.396 . S
C2713 C2718 1.390 . S
C2714 C2708 1.465 . S
C2714 C2713 1.396 . S
C2714 C2715 1.399 . S
C2715 H2701 0.929 . S
C2715 C2714 1.399 . S
C2715 C2716 1.385 . S
C2716 H2702 0.931 . S
C2716 C2715 1.385 . S
C2716 C2717 1.389 . S
C2717 C2716 1.389 . S
C2717 C2718 1.387 . S
C2718 H2703 0.930 . S
C2718 C2713 1.390 . S
C2718 C2717 1.387 . S
H2719 C2731 0.930 . S
H2720 C2733 0.930 . S
H2721 C2734 0.930 . S
H2722 C2738 0.959 . S
H2723 C2738 0.959 . S
H2724 C2738 0.961 . S
H2725 C2739 0.960 . S
H2726 C2739 0.961 . S
H2727 C2739 0.959 . S
H2728 C2742 0.929 . S
H2729 C2743 0.931 . S
H2730 C2745 0.930 . S
C2731 H2719 0.930 . S
C2731 C2732 1.399 . S
C2731 C2736 1.399 . S
C2732 C2731 1.399 . S
C2732 C2733 1.376 . S
C2733 H2720 0.930 . S
C2733 C2732 1.376 . S
C2733 C2734 1.388 . S
C2734 H2721 0.930 . S
C2734 C2733 1.388 . S
C2734 C2735 1.390 . S
C2735 C2734 1.390 . S
C2735 C2736 1.394 . S
C2735 C2741 1.465 . S
C2736 C2731 1.399 . S
C2736 C2735 1.394 . S
C2736 C2737 1.516 . S
C2737 C2736 1.516 . S
C2737 C2738 1.502 . S
C2737 C2739 1.561 . S
C2737 C2740 1.526 . S
C2738 H2722 0.959 . S
C2738 H2723 0.959 . S
C2738 H2724 0.961 . S
C2738 C2737 1.502 . S
C2739 H2725 0.960 . S
C2739 H2726 0.961 . S
C2739 H2727 0.959 . S
C2739 C2737 1.561 . S
C2740 C2737 1.526 . S
C2740 C2741 1.396 . S
C2740 C2745 1.390 . S
C2741 C2735 1.465 . S
C2741 C2740 1.396 . S
C2741 C2742 1.399 . S
C2742 H2728 0.929 . S
C2742 C2741 1.399 . S
C2742 C2743 1.385 . S
C2743 H2729 0.931 . S
C2743 C2742 1.385 . S
C2743 C2744 1.389 . S
C2744 C2743 1.389 . S
C2744 C2745 1.387 . S
C2745 H2730 0.930 . S
C2745 C2740 1.390 . S
C2745 C2744 1.387 . S
H2746 C2758 0.930 . S
H2747 C2760 0.930 . S
H2748 C2761 0.930 . S
H2749 C2765 0.959 . S
H2750 C2765 0.959 . S
H2751 C2765 0.961 . S
H2752 C2766 0.960 . S
H2753 C2766 0.961 . S
H2754 C2766 0.959 . S
H2755 C2769 0.929 . S
H2756 C2770 0.931 . S
H2757 C2772 0.930 . S
C2758 H2746 0.930 . S
C2758 C2759 1.399 . S
C2758 C2763 1.399 . S
C2759 C2758 1.399 . S
C2759 C2760 1.376 . S
C2760 H2747 0.930 . S
C2760 C2759 1.376 . S
C2760 C2761 1.388 . S
C2761 H2748 0.930 . S
C2761 C2760 1.388 . S
C2761 C2762 1.390 . S
C2762 C2761 1.390 . S
C2762 C2763 1.394 . S
C2762 C2768 1.465 . S
C2763 C2758 1.399 . S
C2763 C2762 1.394 . S
C2763 C2764 1.516 . S
C2764 C2763 1.516 . S
C2764 C2765 1.502 . S
C2764 C2766 1.561 . S
C2764 C2767 1.526 . S
C2765 H2749 0.959 . S
C2765 H2750 0.959 . S
C2765 H2751 0.961 . S
C2765 C2764 1.502 . S
C2766 H2752 0.960 . S
C2766 H2753 0.961 . S
C2766 H2754 0.959 . S
C2766 C2764 1.561 . S
C2767 C2764 1.526 . S
C2767 C2768 1.396 . S
C2767 C2772 1.390 . S
C2768 C2762 1.465 . S
C2768 C2767 1.396 . S
C2768 C2769 1.399 . S
C2769 H2755 0.929 . S
C2769 C2768 1.399 . S
C2769 C2770 1.385 . S
C2770 H2756 0.931 . S
C2770 C2769 1.385 . S
C2770 C2771 1.389 . S
C2771 C2770 1.389 . S
C2771 C2772 1.387 . S
C2772 H2757 0.930 . S
C2772 C2767 1.390 . S
C2772 C2771 1.387 . S
H2773 C2785 0.930 . S
H2774 C2787 0.930 . S
H2775 C2788 0.930 . S
H2776 C2792 0.959 . S
H2777 C2792 0.959 . S
H2778 C2792 0.961 . S
H2779 C2793 0.960 . S
H2780 C2793 0.961 . S
H2781 C2793 0.959 . S
H2782 C2796 0.929 . S
H2783 C2797 0.931 . S
H2784 C2799 0.930 . S
C2785 H2773 0.930 . S
C2785 C2786 1.399 . S
C2785 C2790 1.399 . S
C2786 C2785 1.399 . S
C2786 C2787 1.376 . S
C2787 H2774 0.930 . S
C2787 C2786 1.376 . S
C2787 C2788 1.388 . S
C2788 H2775 0.930 . S
C2788 C2787 1.388 . S
C2788 C2789 1.390 . S
C2789 C2788 1.390 . S
C2789 C2790 1.394 . S
C2789 C2795 1.465 . S
C2790 C2785 1.399 . S
C2790 C2789 1.394 . S
C2790 C2791 1.516 . S
C2791 C2790 1.516 . S
C2791 C2792 1.502 . S
C2791 C2793 1.561 . S
C2791 C2794 1.526 . S
C2792 H2776 0.959 . S
C2792 H2777 0.959 . S
C2792 H2778 0.961 . S
C2792 C2791 1.502 . S
C2793 H2779 0.960 . S
C2793 H2780 0.961 . S
C2793 H2781 0.959 . S
C2793 C2791 1.561 . S
C2794 C2791 1.526 . S
C2794 C2795 1.396 . S
C2794 C2799 1.390 . S
C2795 C2789 1.465 . S
C2795 C2794 1.396 . S
C2795 C2796 1.399 . S
C2796 H2782 0.929 . S
C2796 C2795 1.399 . S
C2796 C2797 1.385 . S
C2797 H2783 0.931 . S
C2797 C2796 1.385 . S
C2797 C2798 1.389 . S
C2798 C2797 1.389 . S
C2798 C2799 1.387 . S
C2799 H2784 0.930 . S
C2799 C2794 1.390 . S
C2799 C2798 1.387 . S
H2800 C2812 0.930 . S
H2801 C2814 0.930 . S
H2802 C2815 0.930 . S
H2803 C2819 0.959 . S
H2804 C2819 0.959 . S
H2805 C2819 0.961 . S
H2806 C2820 0.960 . S
H2807 C2820 0.961 . S
H2808 C2820 0.959 . S
H2809 C2823 0.929 . S
H2810 C2824 0.931 . S
H2811 C2826 0.930 . S
C2812 H2800 0.930 . S
C2812 C2813 1.399 . S
C2812 C2817 1.399 . S
C2813 C2812 1.399 . S
C2813 C2814 1.376 . S
C2814 H2801 0.930 . S
C2814 C2813 1.376 . S
C2814 C2815 1.388 . S
C2815 H2802 0.930 . S
C2815 C2814 1.388 . S
C2815 C2816 1.390 . S
C2816 C2815 1.390 . S
C2816 C2817 1.394 . S
C2816 C2822 1.465 . S
C2817 C2812 1.399 . S
C2817 C2816 1.394 . S
C2817 C2818 1.516 . S
C2818 C2817 1.516 . S
C2818 C2819 1.502 . S
C2818 C2820 1.561 . S
C2818 C2821 1.526 . S
C2819 H2803 0.959 . S
C2819 H2804 0.959 . S
C2819 H2805 0.961 . S
C2819 C2818 1.502 . S
C2820 H2806 0.960 . S
C2820 H2807 0.961 . S
C2820 H2808 0.959 . S
C2820 C2818 1.561 . S
C2821 C2818 1.526 . S
C2821 C2822 1.396 . S
C2821 C2826 1.390 . S
C2822 C2816 1.465 . S
C2822 C2821 1.396 . S
C2822 C2823 1.399 . S
C2823 H2809 0.929 . S
C2823 C2822 1.399 . S
C2823 C2824 1.385 . S
C2824 H2810 0.931 . S
C2824 C2823 1.385 . S
C2824 C2825 1.389 . S
C2825 C2824 1.389 . S
C2825 C2826 1.387 . S
C2826 H2811 0.930 . S
C2826 C2821 1.390 . S
C2826 C2825 1.387 . S
H2827 C2839 0.930 . S
H2828 C2841 0.930 . S
H2829 C2842 0.930 . S
H2830 C2846 0.959 . S
H2831 C2846 0.959 . S
H2832 C2846 0.961 . S
H2833 C2847 0.960 . S
H2834 C2847 0.961 . S
H2835 C2847 0.959 . S
H2836 C2850 0.929 . S
H2837 C2851 0.931 . S
H2838 C2853 0.930 . S
C2839 H2827 0.930 . S
C2839 C2840 1.399 . S
C2839 C2844 1.399 . S
C2840 C2839 1.399 . S
C2840 C2841 1.376 . S
C2841 H2828 0.930 . S
C2841 C2840 1.376 . S
C2841 C2842 1.388 . S
C2842 H2829 0.930 . S
C2842 C2841 1.388 . S
C2842 C2843 1.390 . S
C2843 C2842 1.390 . S
C2843 C2844 1.394 . S
C2843 C2849 1.465 . S
C2844 C2839 1.399 . S
C2844 C2843 1.394 . S
C2844 C2845 1.516 . S
C2845 C2844 1.516 . S
C2845 C2846 1.502 . S
C2845 C2847 1.561 . S
C2845 C2848 1.526 . S
C2846 H2830 0.959 . S
C2846 H2831 0.959 . S
C2846 H2832 0.961 . S
C2846 C2845 1.502 . S
C2847 H2833 0.960 . S
C2847 H2834 0.961 . S
C2847 H2835 0.959 . S
C2847 C2845 1.561 . S
C2848 C2845 1.526 . S
C2848 C2849 1.396 . S
C2848 C2853 1.390 . S
C2849 C2843 1.465 . S
C2849 C2848 1.396 . S
C2849 C2850 1.399 . S
C2850 H2836 0.929 . S
C2850 C2849 1.399 . S
C2850 C2851 1.385 . S
C2851 H2837 0.931 . S
C2851 C2850 1.385 . S
C2851 C2852 1.389 . S
C2852 C2851 1.389 . S
C2852 C2853 1.387 . S
C2853 H2838 0.930 . S
C2853 C2848 1.390 . S
C2853 C2852 1.387 . S
H2854 C2866 0.930 . S
H2855 C2868 0.930 . S
H2856 C2869 0.930 . S
H2857 C2873 0.959 . S
H2858 C2873 0.959 . S
H2859 C2873 0.961 . S
H2860 C2874 0.960 . S
H2861 C2874 0.961 . S
H2862 C2874 0.959 . S
H2863 C2877 0.929 . S
H2864 C2878 0.931 . S
H2865 C2880 0.930 . S
C2866 H2854 0.930 . S
C2866 C2867 1.399 . S
C2866 C2871 1.399 . S
C2867 C2866 1.399 . S
C2867 C2868 1.376 . S
C2868 H2855 0.930 . S
C2868 C2867 1.376 . S
C2868 C2869 1.388 . S
C2869 H2856 0.930 . S
C2869 C2868 1.388 . S
C2869 C2870 1.390 . S
C2870 C2869 1.390 . S
C2870 C2871 1.394 . S
C2870 C2876 1.465 . S
C2871 C2866 1.399 . S
C2871 C2870 1.394 . S
C2871 C2872 1.516 . S
C2872 C2871 1.516 . S
C2872 C2873 1.502 . S
C2872 C2874 1.561 . S
C2872 C2875 1.526 . S
C2873 H2857 0.959 . S
C2873 H2858 0.959 . S
C2873 H2859 0.961 . S
C2873 C2872 1.502 . S
C2874 H2860 0.960 . S
C2874 H2861 0.961 . S
C2874 H2862 0.959 . S
C2874 C2872 1.561 . S
C2875 C2872 1.526 . S
C2875 C2876 1.396 . S
C2875 C2880 1.390 . S
C2876 C2870 1.465 . S
C2876 C2875 1.396 . S
C2876 C2877 1.399 . S
C2877 H2863 0.929 . S
C2877 C2876 1.399 . S
C2877 C2878 1.385 . S
C2878 H2864 0.931 . S
C2878 C2877 1.385 . S
C2878 C2879 1.389 . S
C2879 C2878 1.389 . S
C2879 C2880 1.387 . S
C2880 H2865 0.930 . S
C2880 C2875 1.390 . S
C2880 C2879 1.387 . S
H2881 C2893 0.930 . S
H2882 C2895 0.930 . S
H2883 C2896 0.930 . S
H2884 C2900 0.959 . S
H2885 C2900 0.959 . S
H2886 C2900 0.961 . S
H2887 C2901 0.960 . S
H2888 C2901 0.961 . S
H2889 C2901 0.959 . S
H2890 C2904 0.929 . S
H2891 C2905 0.931 . S
H2892 C2907 0.930 . S
C2893 H2881 0.930 . S
C2893 C2894 1.399 . S
C2893 C2898 1.399 . S
C2894 C2893 1.399 . S
C2894 C2895 1.376 . S
C2895 H2882 0.930 . S
C2895 C2894 1.376 . S
C2895 C2896 1.388 . S
C2896 H2883 0.930 . S
C2896 C2895 1.388 . S
C2896 C2897 1.390 . S
C2897 C2896 1.390 . S
C2897 C2898 1.394 . S
C2897 C2903 1.465 . S
C2898 C2893 1.399 . S
C2898 C2897 1.394 . S
C2898 C2899 1.516 . S
C2899 C2898 1.516 . S
C2899 C2900 1.502 . S
C2899 C2901 1.561 . S
C2899 C2902 1.526 . S
C2900 H2884 0.959 . S
C2900 H2885 0.959 . S
C2900 H2886 0.961 . S
C2900 C2899 1.502 . S
C2901 H2887 0.960 . S
C2901 H2888 0.961 . S
C2901 H2889 0.959 . S
C2901 C2899 1.561 . S
C2902 C2899 1.526 . S
C2902 C2903 1.396 . S
C2902 C2907 1.390 . S
C2903 C2897 1.465 . S
C2903 C2902 1.396 . S
C2903 C2904 1.399 . S
C2904 H2890 0.929 . S
C2904 C2903 1.399 . S
C2904 C2905 1.385 . S
C2905 H2891 0.931 . S
C2905 C2904 1.385 . S
C2905 C2906 1.389 . S
C2906 C2905 1.389 . S
C2906 C2907 1.387 . S
C2907 H2892 0.930 . S
C2907 C2902 1.390 . S
C2907 C2906 1.387 . S
H2908 C2920 0.930 . S
H2909 C2922 0.930 . S
H2910 C2923 0.930 . S
H2911 C2927 0.959 . S
H2912 C2927 0.959 . S
H2913 C2927 0.961 . S
H2914 C2928 0.960 . S
H2915 C2928 0.961 . S
H2916 C2928 0.959 . S
H2917 C2931 0.929 . S
H2918 C2932 0.931 . S
H2919 C2934 0.930 . S
C2920 H2908 0.930 . S
C2920 C2921 1.399 . S
C2920 C2925 1.399 . S
C2921 C2920 1.399 . S
C2921 C2922 1.376 . S
C2922 H2909 0.930 . S
C2922 C2921 1.376 . S
C2922 C2923 1.388 . S
C2923 H2910 0.930 . S
C2923 C2922 1.388 . S
C2923 C2924 1.390 . S
C2924 C2923 1.390 . S
C2924 C2925 1.394 . S
C2924 C2930 1.465 . S
C2925 C2920 1.399 . S
C2925 C2924 1.394 . S
C2925 C2926 1.516 . S
C2926 C2925 1.516 . S
C2926 C2927 1.502 . S
C2926 C2928 1.561 . S
C2926 C2929 1.526 . S
C2927 H2911 0.959 . S
C2927 H2912 0.959 . S
C2927 H2913 0.961 . S
C2927 C2926 1.502 . S
C2928 H2914 0.960 . S
C2928 H2915 0.961 . S
C2928 H2916 0.959 . S
C2928 C2926 1.561 . S
C2929 C2926 1.526 . S
C2929 C2930 1.396 . S
C2929 C2934 1.390 . S
C2930 C2924 1.465 . S
C2930 C2929 1.396 . S
C2930 C2931 1.399 . S
C2931 H2917 0.929 . S
C2931 C2930 1.399 . S
C2931 C2932 1.385 . S
C2932 H2918 0.931 . S
C2932 C2931 1.385 . S
C2932 C2933 1.389 . S
C2933 C2932 1.389 . S
C2933 C2934 1.387 . S
C2934 H2919 0.930 . S
C2934 C2929 1.390 . S
C2934 C2933 1.387 . S
H2935 C2947 0.930 . S
H2936 C2949 0.930 . S
H2937 C2950 0.930 . S
H2938 C2954 0.959 . S
H2939 C2954 0.959 . S
H2940 C2954 0.961 . S
H2941 C2955 0.960 . S
H2942 C2955 0.961 . S
H2943 C2955 0.959 . S
H2944 C2958 0.929 . S
H2945 C2959 0.931 . S
H2946 C2961 0.930 . S
C2947 H2935 0.930 . S
C2947 C2948 1.399 . S
C2947 C2952 1.399 . S
C2948 C2947 1.399 . S
C2948 C2949 1.376 . S
C2949 H2936 0.930 . S
C2949 C2948 1.376 . S
C2949 C2950 1.388 . S
C2950 H2937 0.930 . S
C2950 C2949 1.388 . S
C2950 C2951 1.390 . S
C2951 C2950 1.390 . S
C2951 C2952 1.394 . S
C2951 C2957 1.465 . S
C2952 C2947 1.399 . S
C2952 C2951 1.394 . S
C2952 C2953 1.516 . S
C2953 C2952 1.516 . S
C2953 C2954 1.502 . S
C2953 C2955 1.561 . S
C2953 C2956 1.526 . S
C2954 H2938 0.959 . S
C2954 H2939 0.959 . S
C2954 H2940 0.961 . S
C2954 C2953 1.502 . S
C2955 H2941 0.960 . S
C2955 H2942 0.961 . S
C2955 H2943 0.959 . S
C2955 C2953 1.561 . S
C2956 C2953 1.526 . S
C2956 C2957 1.396 . S
C2956 C2961 1.390 . S
C2957 C2951 1.465 . S
C2957 C2956 1.396 . S
C2957 C2958 1.399 . S
C2958 H2944 0.929 . S
C2958 C2957 1.399 . S
C2958 C2959 1.385 . S
C2959 H2945 0.931 . S
C2959 C2958 1.385 . S
C2959 C2960 1.389 . S
C2960 C2959 1.389 . S
C2960 C2961 1.387 . S
C2961 H2946 0.930 . S
C2961 C2956 1.390 . S
C2961 C2960 1.387 . S
H2962 C2974 0.930 . S
H2963 C2976 0.930 . S
H2964 C2977 0.930 . S
H2965 C2981 0.959 . S
H2966 C2981 0.959 . S
H2967 C2981 0.961 . S
H2968 C2982 0.960 . S
H2969 C2982 0.961 . S
H2970 C2982 0.959 . S
H2971 C2985 0.929 . S
H2972 C2986 0.931 . S
H2973 C2988 0.930 . S
C2974 H2962 0.930 . S
C2974 C2975 1.399 . S
C2974 C2979 1.399 . S
C2975 C2974 1.399 . S
C2975 C2976 1.376 . S
C2976 H2963 0.930 . S
C2976 C2975 1.376 . S
C2976 C2977 1.388 . S
C2977 H2964 0.930 . S
C2977 C2976 1.388 . S
C2977 C2978 1.390 . S
C2978 C2977 1.390 . S
C2978 C2979 1.394 . S
C2978 C2984 1.465 . S
C2979 C2974 1.399 . S
C2979 C2978 1.394 . S
C2979 C2980 1.516 . S
C2980 C2979 1.516 . S
C2980 C2981 1.502 . S
C2980 C2982 1.561 . S
C2980 C2983 1.526 . S
C2981 H2965 0.959 . S
C2981 H2966 0.959 . S
C2981 H2967 0.961 . S
C2981 C2980 1.502 . S
C2982 H2968 0.960 . S
C2982 H2969 0.961 . S
C2982 H2970 0.959 . S
C2982 C2980 1.561 . S
C2983 C2980 1.526 . S
C2983 C2984 1.396 . S
C2983 C2988 1.390 . S
C2984 C2978 1.465 . S
C2984 C2983 1.396 . S
C2984 C2985 1.399 . S
C2985 H2971 0.929 . S
C2985 C2984 1.399 . S
C2985 C2986 1.385 . S
C2986 H2972 0.931 . S
C2986 C2985 1.385 . S
C2986 C2987 1.389 . S
C2987 C2986 1.389 . S
C2987 C2988 1.387 . S
C2988 H2973 0.930 . S
C2988 C2983 1.390 . S
C2988 C2987 1.387 . S
H2989 C3001 0.930 . S
H2990 C3003 0.930 . S
H2991 C3004 0.930 . S
H2992 C3008 0.959 . S
H2993 C3008 0.959 . S
H2994 C3008 0.961 . S
H2995 C3009 0.960 . S
H2996 C3009 0.961 . S
H2997 C3009 0.959 . S
H2998 C3012 0.929 . S
H2999 C3013 0.931 . S
H3000 C3015 0.930 . S
C3001 H2989 0.930 . S
C3001 C3002 1.399 . S
C3001 C3006 1.399 . S
C3002 C3001 1.399 . S
C3002 C3003 1.376 . S
C3003 H2990 0.930 . S
C3003 C3002 1.376 . S
C3003 C3004 1.388 . S
C3004 H2991 0.930 . S
C3004 C3003 1.388 . S
C3004 C3005 1.390 . S
C3005 C3004 1.390 . S
C3005 C3006 1.394 . S
C3005 C3011 1.465 . S
C3006 C3001 1.399 . S
C3006 C3005 1.394 . S
C3006 C3007 1.516 . S
C3007 C3006 1.516 . S
C3007 C3008 1.502 . S
C3007 C3009 1.561 . S
C3007 C3010 1.526 . S
C3008 H2992 0.959 . S
C3008 H2993 0.959 . S
C3008 H2994 0.961 . S
C3008 C3007 1.502 . S
C3009 H2995 0.960 . S
C3009 H2996 0.961 . S
C3009 H2997 0.959 . S
C3009 C3007 1.561 . S
C3010 C3007 1.526 . S
C3010 C3011 1.396 . S
C3010 C3015 1.390 . S
C3011 C3005 1.465 . S
C3011 C3010 1.396 . S
C3011 C3012 1.399 . S
C3012 H2998 0.929 . S
C3012 C3011 1.399 . S
C3012 C3013 1.385 . S
C3013 H2999 0.931 . S
C3013 C3012 1.385 . S
C3013 C3014 1.389 . S
C3014 C3013 1.389 . S
C3014 C3015 1.387 . S
C3015 H3000 0.930 . S
C3015 C3010 1.390 . S
C3015 C3014 1.387 . S
H3016 C3028 0.930 . S
H3017 C3030 0.930 . S
H3018 C3031 0.930 . S
H3019 C3035 0.959 . S
H3020 C3035 0.959 . S
H3021 C3035 0.961 . S
H3022 C3036 0.960 . S
H3023 C3036 0.961 . S
H3024 C3036 0.959 . S
H3025 C3039 0.929 . S
H3026 C3040 0.931 . S
H3027 C3042 0.930 . S
C3028 H3016 0.930 . S
C3028 C3029 1.399 . S
C3028 C3033 1.399 . S
C3029 C3028 1.399 . S
C3029 C3030 1.376 . S
C3030 H3017 0.930 . S
C3030 C3029 1.376 . S
C3030 C3031 1.388 . S
C3031 H3018 0.930 . S
C3031 C3030 1.388 . S
C3031 C3032 1.390 . S
C3032 C3031 1.390 . S
C3032 C3033 1.394 . S
C3032 C3038 1.465 . S
C3033 C3028 1.399 . S
C3033 C3032 1.394 . S
C3033 C3034 1.516 . S
C3034 C3033 1.516 . S
C3034 C3035 1.502 . S
C3034 C3036 1.561 . S
C3034 C3037 1.526 . S
C3035 H3019 0.959 . S
C3035 H3020 0.959 . S
C3035 H3021 0.961 . S
C3035 C3034 1.502 . S
C3036 H3022 0.960 . S
C3036 H3023 0.961 . S
C3036 H3024 0.959 . S
C3036 C3034 1.561 . S
C3037 C3034 1.526 . S
C3037 C3038 1.396 . S
C3037 C3042 1.390 . S
C3038 C3032 1.465 . S
C3038 C3037 1.396 . S
C3038 C3039 1.399 . S
C3039 H3025 0.929 . S
C3039 C3038 1.399 . S
C3039 C3040 1.385 . S
C3040 H3026 0.931 . S
C3040 C3039 1.385 . S
C3040 C3041 1.389 . S
C3041 C3040 1.389 . S
C3041 C3042 1.387 . S
C3042 H3027 0.930 . S
C3042 C3037 1.390 . S
C3042 C3041 1.387 . S
H3043 C3055 0.930 . S
H3044 C3057 0.930 . S
H3045 C3058 0.930 . S
H3046 C3062 0.959 . S
H3047 C3062 0.959 . S
H3048 C3062 0.961 . S
H3049 C3063 0.960 . S
H3050 C3063 0.961 . S
H3051 C3063 0.959 . S
H3052 C3066 0.929 . S
H3053 C3067 0.931 . S
H3054 C3069 0.930 . S
C3055 H3043 0.930 . S
C3055 C3056 1.399 . S
C3055 C3060 1.399 . S
C3056 C3055 1.399 . S
C3056 C3057 1.376 . S
C3057 H3044 0.930 . S
C3057 C3056 1.376 . S
C3057 C3058 1.388 . S
C3058 H3045 0.930 . S
C3058 C3057 1.388 . S
C3058 C3059 1.390 . S
C3059 C3058 1.390 . S
C3059 C3060 1.394 . S
C3059 C3065 1.465 . S
C3060 C3055 1.399 . S
C3060 C3059 1.394 . S
C3060 C3061 1.516 . S
C3061 C3060 1.516 . S
C3061 C3062 1.502 . S
C3061 C3063 1.561 . S
C3061 C3064 1.526 . S
C3062 H3046 0.959 . S
C3062 H3047 0.959 . S
C3062 H3048 0.961 . S
C3062 C3061 1.502 . S
C3063 H3049 0.960 . S
C3063 H3050 0.961 . S
C3063 H3051 0.959 . S
C3063 C3061 1.561 . S
C3064 C3061 1.526 . S
C3064 C3065 1.396 . S
C3064 C3069 1.390 . S
C3065 C3059 1.465 . S
C3065 C3064 1.396 . S
C3065 C3066 1.399 . S
C3066 H3052 0.929 . S
C3066 C3065 1.399 . S
C3066 C3067 1.385 . S
C3067 H3053 0.931 . S
C3067 C3066 1.385 . S
C3067 C3068 1.389 . S
C3068 C3067 1.389 . S
C3068 C3069 1.387 . S
C3069 H3054 0.930 . S
C3069 C3064 1.390 . S
C3069 C3068 1.387 . S
H3070 C3082 0.930 . S
H3071 C3084 0.930 . S
H3072 C3085 0.930 . S
H3073 C3089 0.959 . S
H3074 C3089 0.959 . S
H3075 C3089 0.961 . S
H3076 C3090 0.960 . S
H3077 C3090 0.961 . S
H3078 C3090 0.959 . S
H3079 C3093 0.929 . S
H3080 C3094 0.931 . S
H3081 C3096 0.930 . S
C3082 H3070 0.930 . S
C3082 C3083 1.399 . S
C3082 C3087 1.399 . S
C3083 C3082 1.399 . S
C3083 C3084 1.376 . S
C3084 H3071 0.930 . S
C3084 C3083 1.376 . S
C3084 C3085 1.388 . S
C3085 H3072 0.930 . S
C3085 C3084 1.388 . S
C3085 C3086 1.390 . S
C3086 C3085 1.390 . S
C3086 C3087 1.394 . S
C3086 C3092 1.465 . S
C3087 C3082 1.399 . S
C3087 C3086 1.394 . S
C3087 C3088 1.516 . S
C3088 C3087 1.516 . S
C3088 C3089 1.502 . S
C3088 C3090 1.561 . S
C3088 C3091 1.526 . S
C3089 H3073 0.959 . S
C3089 H3074 0.959 . S
C3089 H3075 0.961 . S
C3089 C3088 1.502 . S
C3090 H3076 0.960 . S
C3090 H3077 0.961 . S
C3090 H3078 0.959 . S
C3090 C3088 1.561 . S
C3091 C3088 1.526 . S
C3091 C3092 1.396 . S
C3091 C3096 1.390 . S
C3092 C3086 1.465 . S
C3092 C3091 1.396 . S
C3092 C3093 1.399 . S
C3093 H3079 0.929 . S
C3093 C3092 1.399 . S
C3093 C3094 1.385 . S
C3094 H3080 0.931 . S
C3094 C3093 1.385 . S
C3094 C3095 1.389 . S
C3095 C3094 1.389 . S
C3095 C3096 1.387 . S
C3096 H3081 0.930 . S
C3096 C3091 1.390 . S
C3096 C3095 1.387 . S
H3097 C3109 0.930 . S
H3098 C3111 0.930 . S
H3099 C3112 0.930 . S
H3100 C3116 0.959 . S
H3101 C3116 0.959 . S
H3102 C3116 0.961 . S
H3103 C3117 0.960 . S
H3104 C3117 0.961 . S
H3105 C3117 0.959 . S
H3106 C3120 0.929 . S
H3107 C3121 0.931 . S
H3108 C3123 0.930 . S
C3109 H3097 0.930 . S
C3109 C3110 1.399 . S
C3109 C3114 1.399 . S
C3110 C3109 1.399 . S
C3110 C3111 1.376 . S
C3111 H3098 0.930 . S
C3111 C3110 1.376 . S
C3111 C3112 1.388 . S
C3112 H3099 0.930 . S
C3112 C3111 1.388 . S
C3112 C3113 1.390 . S
C3113 C3112 1.390 . S
C3113 C3114 1.394 . S
C3113 C3119 1.465 . S
C3114 C3109 1.399 . S
C3114 C3113 1.394 . S
C3114 C3115 1.516 . S
C3115 C3114 1.516 . S
C3115 C3116 1.502 . S
C3115 C3117 1.561 . S
C3115 C3118 1.526 . S
C3116 H3100 0.959 . S
C3116 H3101 0.959 . S
C3116 H3102 0.961 . S
C3116 C3115 1.502 . S
C3117 H3103 0.960 . S
C3117 H3104 0.961 . S
C3117 H3105 0.959 . S
C3117 C3115 1.561 . S
C3118 C3115 1.526 . S
C3118 C3119 1.396 . S
C3118 C3123 1.390 . S
C3119 C3113 1.465 . S
C3119 C3118 1.396 . S
C3119 C3120 1.399 . S
C3120 H3106 0.929 . S
C3120 C3119 1.399 . S
C3120 C3121 1.385 . S
C3121 H3107 0.931 . S
C3121 C3120 1.385 . S
C3121 C3122 1.389 . S
C3122 C3121 1.389 . S
C3122 C3123 1.387 . S
C3123 H3108 0.930 . S
C3123 C3118 1.390 . S
C3123 C3122 1.387 . S
H3124 C3136 0.930 . S
H3125 C3138 0.930 . S
H3126 C3139 0.930 . S
H3127 C3143 0.959 . S
H3128 C3143 0.959 . S
H3129 C3143 0.961 . S
H3130 C3144 0.960 . S
H3131 C3144 0.961 . S
H3132 C3144 0.959 . S
H3133 C3147 0.929 . S
H3134 C3148 0.931 . S
H3135 C3150 0.930 . S
C3136 H3124 0.930 . S
C3136 C3137 1.399 . S
C3136 C3141 1.399 . S
C3137 C3136 1.399 . S
C3137 C3138 1.376 . S
C3138 H3125 0.930 . S
C3138 C3137 1.376 . S
C3138 C3139 1.388 . S
C3139 H3126 0.930 . S
C3139 C3138 1.388 . S
C3139 C3140 1.390 . S
C3140 C3139 1.390 . S
C3140 C3141 1.394 . S
C3140 C3146 1.465 . S
C3141 C3136 1.399 . S
C3141 C3140 1.394 . S
C3141 C3142 1.516 . S
C3142 C3141 1.516 . S
C3142 C3143 1.502 . S
C3142 C3144 1.561 . S
C3142 C3145 1.526 . S
C3143 H3127 0.959 . S
C3143 H3128 0.959 . S
C3143 H3129 0.961 . S
C3143 C3142 1.502 . S
C3144 H3130 0.960 . S
C3144 H3131 0.961 . S
C3144 H3132 0.959 . S
C3144 C3142 1.561 . S
C3145 C3142 1.526 . S
C3145 C3146 1.396 . S
C3145 C3150 1.390 . S
C3146 C3140 1.465 . S
C3146 C3145 1.396 . S
C3146 C3147 1.399 . S
C3147 H3133 0.929 . S
C3147 C3146 1.399 . S
C3147 C3148 1.385 . S
C3148 H3134 0.931 . S
C3148 C3147 1.385 . S
C3148 C3149 1.389 . S
C3149 C3148 1.389 . S
C3149 C3150 1.387 . S
C3150 H3135 0.930 . S
C3150 C3145 1.390 . S
C3150 C3149 1.387 . S
H3151 C3163 0.930 . S
H3152 C3165 0.930 . S
H3153 C3166 0.930 . S
H3154 C3170 0.959 . S
H3155 C3170 0.959 . S
H3156 C3170 0.961 . S
H3157 C3171 0.960 . S
H3158 C3171 0.961 . S
H3159 C3171 0.959 . S
H3160 C3174 0.929 . S
H3161 C3175 0.931 . S
H3162 C3177 0.930 . S
C3163 H3151 0.930 . S
C3163 C3164 1.399 . S
C3163 C3168 1.399 . S
C3164 C3163 1.399 . S
C3164 C3165 1.376 . S
C3165 H3152 0.930 . S
C3165 C3164 1.376 . S
C3165 C3166 1.388 . S
C3166 H3153 0.930 . S
C3166 C3165 1.388 . S
C3166 C3167 1.390 . S
C3167 C3166 1.390 . S
C3167 C3168 1.394 . S
C3167 C3173 1.465 . S
C3168 C3163 1.399 . S
C3168 C3167 1.394 . S
C3168 C3169 1.516 . S
C3169 C3168 1.516 . S
C3169 C3170 1.502 . S
C3169 C3171 1.561 . S
C3169 C3172 1.526 . S
C3170 H3154 0.959 . S
C3170 H3155 0.959 . S
C3170 H3156 0.961 . S
C3170 C3169 1.502 . S
C3171 H3157 0.960 . S
C3171 H3158 0.961 . S
C3171 H3159 0.959 . S
C3171 C3169 1.561 . S
C3172 C3169 1.526 . S
C3172 C3173 1.396 . S
C3172 C3177 1.390 . S
C3173 C3167 1.465 . S
C3173 C3172 1.396 . S
C3173 C3174 1.399 . S
C3174 H3160 0.929 . S
C3174 C3173 1.399 . S
C3174 C3175 1.385 . S
C3175 H3161 0.931 . S
C3175 C3174 1.385 . S
C3175 C3176 1.389 . S
C3176 C3175 1.389 . S
C3176 C3177 1.387 . S
C3177 H3162 0.930 . S
C3177 C3172 1.390 . S
C3177 C3176 1.387 . S
H3178 C3190 0.930 . S
H3179 C3192 0.930 . S
H3180 C3193 0.930 . S
H3181 C3197 0.959 . S
H3182 C3197 0.959 . S
H3183 C3197 0.961 . S
H3184 C3198 0.960 . S
H3185 C3198 0.961 . S
H3186 C3198 0.959 . S
H3187 C3201 0.929 . S
H3188 C3202 0.931 . S
H3189 C3204 0.930 . S
C3190 H3178 0.930 . S
C3190 C3191 1.399 . S
C3190 C3195 1.399 . S
C3191 C3190 1.399 . S
C3191 C3192 1.376 . S
C3192 H3179 0.930 . S
C3192 C3191 1.376 . S
C3192 C3193 1.388 . S
C3193 H3180 0.930 . S
C3193 C3192 1.388 . S
C3193 C3194 1.390 . S
C3194 C3193 1.390 . S
C3194 C3195 1.394 . S
C3194 C3200 1.465 . S
C3195 C3190 1.399 . S
C3195 C3194 1.394 . S
C3195 C3196 1.516 . S
C3196 C3195 1.516 . S
C3196 C3197 1.502 . S
C3196 C3198 1.561 . S
C3196 C3199 1.526 . S
C3197 H3181 0.959 . S
C3197 H3182 0.959 . S
C3197 H3183 0.961 . S
C3197 C3196 1.502 . S
C3198 H3184 0.960 . S
C3198 H3185 0.961 . S
C3198 H3186 0.959 . S
C3198 C3196 1.561 . S
C3199 C3196 1.526 . S
C3199 C3200 1.396 . S
C3199 C3204 1.390 . S
C3200 C3194 1.465 . S
C3200 C3199 1.396 . S
C3200 C3201 1.399 . S
C3201 H3187 0.929 . S
C3201 C3200 1.399 . S
C3201 C3202 1.385 . S
C3202 H3188 0.931 . S
C3202 C3201 1.385 . S
C3202 C3203 1.389 . S
C3203 C3202 1.389 . S
C3203 C3204 1.387 . S
C3204 H3189 0.930 . S
C3204 C3199 1.390 . S
C3204 C3203 1.387 . S
H3205 C3217 0.930 . S
H3206 C3219 0.930 . S
H3207 C3220 0.930 . S
H3208 C3224 0.959 . S
H3209 C3224 0.959 . S
H3210 C3224 0.961 . S
H3211 C3225 0.960 . S
H3212 C3225 0.961 . S
H3213 C3225 0.959 . S
H3214 C3228 0.929 . S
H3215 C3229 0.931 . S
H3216 C3231 0.930 . S
C3217 H3205 0.930 . S
C3217 C3218 1.399 . S
C3217 C3222 1.399 . S
C3218 C3217 1.399 . S
C3218 C3219 1.376 . S
C3219 H3206 0.930 . S
C3219 C3218 1.376 . S
C3219 C3220 1.388 . S
C3220 H3207 0.930 . S
C3220 C3219 1.388 . S
C3220 C3221 1.390 . S
C3221 C3220 1.390 . S
C3221 C3222 1.394 . S
C3221 C3227 1.465 . S
C3222 C3217 1.399 . S
C3222 C3221 1.394 . S
C3222 C3223 1.516 . S
C3223 C3222 1.516 . S
C3223 C3224 1.502 . S
C3223 C3225 1.561 . S
C3223 C3226 1.526 . S
C3224 H3208 0.959 . S
C3224 H3209 0.959 . S
C3224 H3210 0.961 . S
C3224 C3223 1.502 . S
C3225 H3211 0.960 . S
C3225 H3212 0.961 . S
C3225 H3213 0.959 . S
C3225 C3223 1.561 . S
C3226 C3223 1.526 . S
C3226 C3227 1.396 . S
C3226 C3231 1.390 . S
C3227 C3221 1.465 . S
C3227 C3226 1.396 . S
C3227 C3228 1.399 . S
C3228 H3214 0.929 . S
C3228 C3227 1.399 . S
C3228 C3229 1.385 . S
C3229 H3215 0.931 . S
C3229 C3228 1.385 . S
C3229 C3230 1.389 . S
C3230 C3229 1.389 . S
C3230 C3231 1.387 . S
C3231 H3216 0.930 . S
C3231 C3226 1.390 . S
C3231 C3230 1.387 . S
H3232 C3244 0.930 . S
H3233 C3246 0.930 . S
H3234 C3247 0.930 . S
H3235 C3251 0.959 . S
H3236 C3251 0.959 . S
H3237 C3251 0.961 . S
H3238 C3252 0.960 . S
H3239 C3252 0.961 . S
H3240 C3252 0.959 . S
H3241 C3255 0.929 . S
H3242 C3256 0.931 . S
H3243 C3258 0.930 . S
C3244 H3232 0.930 . S
C3244 C3245 1.399 . S
C3244 C3249 1.399 . S
C3245 C3244 1.399 . S
C3245 C3246 1.376 . S
C3246 H3233 0.930 . S
C3246 C3245 1.376 . S
C3246 C3247 1.388 . S
C3247 H3234 0.930 . S
C3247 C3246 1.388 . S
C3247 C3248 1.390 . S
C3248 C3247 1.390 . S
C3248 C3249 1.394 . S
C3248 C3254 1.465 . S
C3249 C3244 1.399 . S
C3249 C3248 1.394 . S
C3249 C3250 1.516 . S
C3250 C3249 1.516 . S
C3250 C3251 1.502 . S
C3250 C3252 1.561 . S
C3250 C3253 1.526 . S
C3251 H3235 0.959 . S
C3251 H3236 0.959 . S
C3251 H3237 0.961 . S
C3251 C3250 1.502 . S
C3252 H3238 0.960 . S
C3252 H3239 0.961 . S
C3252 H3240 0.959 . S
C3252 C3250 1.561 . S
C3253 C3250 1.526 . S
C3253 C3254 1.396 . S
C3253 C3258 1.390 . S
C3254 C3248 1.465 . S
C3254 C3253 1.396 . S
C3254 C3255 1.399 . S
C3255 H3241 0.929 . S
C3255 C3254 1.399 . S
C3255 C3256 1.385 . S
C3256 H3242 0.931 . S
C3256 C3255 1.385 . S
C3256 C3257 1.389 . S
C3257 C3256 1.389 . S
C3257 C3258 1.387 . S
C3258 H3243 0.930 . S
C3258 C3253 1.390 . S
C3258 C3257 1.387 . S
H3259 C3271 0.930 . S
H3260 C3273 0.930 . S
H3261 C3274 0.930 . S
H3262 C3278 0.959 . S
H3263 C3278 0.959 . S
H3264 C3278 0.961 . S
H3265 C3279 0.960 . S
H3266 C3279 0.961 . S
H3267 C3279 0.959 . S
H3268 C3282 0.929 . S
H3269 C3283 0.931 . S
H3270 C3285 0.930 . S
C3271 H3259 0.930 . S
C3271 C3272 1.399 . S
C3271 C3276 1.399 . S
C3272 C3271 1.399 . S
C3272 C3273 1.376 . S
C3273 H3260 0.930 . S
C3273 C3272 1.376 . S
C3273 C3274 1.388 . S
C3274 H3261 0.930 . S
C3274 C3273 1.388 . S
C3274 C3275 1.390 . S
C3275 C3274 1.390 . S
C3275 C3276 1.394 . S
C3275 C3281 1.465 . S
C3276 C3271 1.399 . S
C3276 C3275 1.394 . S
C3276 C3277 1.516 . S
C3277 C3276 1.516 . S
C3277 C3278 1.502 . S
C3277 C3279 1.561 . S
C3277 C3280 1.526 . S
C3278 H3262 0.959 . S
C3278 H3263 0.959 . S
C3278 H3264 0.961 . S
C3278 C3277 1.502 . S
C3279 H3265 0.960 . S
C3279 H3266 0.961 . S
C3279 H3267 0.959 . S
C3279 C3277 1.561 . S
C3280 C3277 1.526 . S
C3280 C3281 1.396 . S
C3280 C3285 1.390 . S
C3281 C3275 1.465 . S
C3281 C3280 1.396 . S
C3281 C3282 1.399 . S
C3282 H3268 0.929 . S
C3282 C3281 1.399 . S
C3282 C3283 1.385 . S
C3283 H3269 0.931 . S
C3283 C3282 1.385 . S
C3283 C3284 1.389 . S
C3284 C3283 1.389 . S
C3284 C3285 1.387 . S
C3285 H3270 0.930 . S
C3285 C3280 1.390 . S
C3285 C3284 1.387 . S
H3286 C3298 0.930 . S
H3287 C3300 0.930 . S
H3288 C3301 0.930 . S
H3289 C3305 0.959 . S
H3290 C3305 0.959 . S
H3291 C3305 0.961 . S
H3292 C3306 0.960 . S
H3293 C3306 0.961 . S
H3294 C3306 0.959 . S
H3295 C3309 0.929 . S
H3296 C3310 0.931 . S
H3297 C3312 0.930 . S
C3298 H3286 0.930 . S
C3298 C3299 1.399 . S
C3298 C3303 1.399 . S
C3299 C3298 1.399 . S
C3299 C3300 1.376 . S
C3300 H3287 0.930 . S
C3300 C3299 1.376 . S
C3300 C3301 1.388 . S
C3301 H3288 0.930 . S
C3301 C3300 1.388 . S
C3301 C3302 1.390 . S
C3302 C3301 1.390 . S
C3302 C3303 1.394 . S
C3302 C3308 1.465 . S
C3303 C3298 1.399 . S
C3303 C3302 1.394 . S
C3303 C3304 1.516 . S
C3304 C3303 1.516 . S
C3304 C3305 1.502 . S
C3304 C3306 1.561 . S
C3304 C3307 1.526 . S
C3305 H3289 0.959 . S
C3305 H3290 0.959 . S
C3305 H3291 0.961 . S
C3305 C3304 1.502 . S
C3306 H3292 0.960 . S
C3306 H3293 0.961 . S
C3306 H3294 0.959 . S
C3306 C3304 1.561 . S
C3307 C3304 1.526 . S
C3307 C3308 1.396 . S
C3307 C3312 1.390 . S
C3308 C3302 1.465 . S
C3308 C3307 1.396 . S
C3308 C3309 1.399 . S
C3309 H3295 0.929 . S
C3309 C3308 1.399 . S
C3309 C3310 1.385 . S
C3310 H3296 0.931 . S
C3310 C3309 1.385 . S
C3310 C3311 1.389 . S
C3311 C3310 1.389 . S
C3311 C3312 1.387 . S
C3312 H3297 0.930 . S
C3312 C3307 1.390 . S
C3312 C3311 1.387 . S
H3313 C3325 0.930 . S
H3314 C3327 0.930 . S
H3315 C3328 0.930 . S
H3316 C3332 0.959 . S
H3317 C3332 0.959 . S
H3318 C3332 0.961 . S
H3319 C3333 0.960 . S
H3320 C3333 0.961 . S
H3321 C3333 0.959 . S
H3322 C3336 0.929 . S
H3323 C3337 0.931 . S
H3324 C3339 0.930 . S
C3325 H3313 0.930 . S
C3325 C3326 1.399 . S
C3325 C3330 1.399 . S
C3326 C3325 1.399 . S
C3326 C3327 1.376 . S
C3327 H3314 0.930 . S
C3327 C3326 1.376 . S
C3327 C3328 1.388 . S
C3328 H3315 0.930 . S
C3328 C3327 1.388 . S
C3328 C3329 1.390 . S
C3329 C3328 1.390 . S
C3329 C3330 1.394 . S
C3329 C3335 1.465 . S
C3330 C3325 1.399 . S
C3330 C3329 1.394 . S
C3330 C3331 1.516 . S
C3331 C3330 1.516 . S
C3331 C3332 1.502 . S
C3331 C3333 1.561 . S
C3331 C3334 1.526 . S
C3332 H3316 0.959 . S
C3332 H3317 0.959 . S
C3332 H3318 0.961 . S
C3332 C3331 1.502 . S
C3333 H3319 0.960 . S
C3333 H3320 0.961 . S
C3333 H3321 0.959 . S
C3333 C3331 1.561 . S
C3334 C3331 1.526 . S
C3334 C3335 1.396 . S
C3334 C3339 1.390 . S
C3335 C3329 1.465 . S
C3335 C3334 1.396 . S
C3335 C3336 1.399 . S
C3336 H3322 0.929 . S
C3336 C3335 1.399 . S
C3336 C3337 1.385 . S
C3337 H3323 0.931 . S
C3337 C3336 1.385 . S
C3337 C3338 1.389 . S
C3338 C3337 1.389 . S
C3338 C3339 1.387 . S
C3339 H3324 0.930 . S
C3339 C3334 1.390 . S
C3339 C3338 1.387 . S
H3340 C3352 0.930 . S
H3341 C3354 0.930 . S
H3342 C3355 0.930 . S
H3343 C3359 0.959 . S
H3344 C3359 0.959 . S
H3345 C3359 0.961 . S
H3346 C3360 0.960 . S
H3347 C3360 0.961 . S
H3348 C3360 0.959 . S
H3349 C3363 0.929 . S
H3350 C3364 0.931 . S
H3351 C3366 0.930 . S
C3352 H3340 0.930 . S
C3352 C3353 1.399 . S
C3352 C3357 1.399 . S
C3353 C3352 1.399 . S
C3353 C3354 1.376 . S
C3354 H3341 0.930 . S
C3354 C3353 1.376 . S
C3354 C3355 1.388 . S
C3355 H3342 0.930 . S
C3355 C3354 1.388 . S
C3355 C3356 1.390 . S
C3356 C3355 1.390 . S
C3356 C3357 1.394 . S
C3356 C3362 1.465 . S
C3357 C3352 1.399 . S
C3357 C3356 1.394 . S
C3357 C3358 1.516 . S
C3358 C3357 1.516 . S
C3358 C3359 1.502 . S
C3358 C3360 1.561 . S
C3358 C3361 1.526 . S
C3359 H3343 0.959 . S
C3359 H3344 0.959 . S
C3359 H3345 0.961 . S
C3359 C3358 1.502 . S
C3360 H3346 0.960 . S
C3360 H3347 0.961 . S
C3360 H3348 0.959 . S
C3360 C3358 1.561 . S
C3361 C3358 1.526 . S
C3361 C3362 1.396 . S
C3361 C3366 1.390 . S
C3362 C3356 1.465 . S
C3362 C3361 1.396 . S
C3362 C3363 1.399 . S
C3363 H3349 0.929 . S
C3363 C3362 1.399 . S
C3363 C3364 1.385 . S
C3364 H3350 0.931 . S
C3364 C3363 1.385 . S
C3364 C3365 1.389 . S
C3365 C3364 1.389 . S
C3365 C3366 1.387 . S
C3366 H3351 0.930 . S
C3366 C3361 1.390 . S
C3366 C3365 1.387 . S
H3367 C3379 0.930 . S
H3368 C3381 0.930 . S
H3369 C3382 0.930 . S
H3370 C3386 0.959 . S
H3371 C3386 0.959 . S
H3372 C3386 0.961 . S
H3373 C3387 0.960 . S
H3374 C3387 0.961 . S
H3375 C3387 0.959 . S
H3376 C3390 0.929 . S
H3377 C3391 0.931 . S
H3378 C3393 0.930 . S
C3379 H3367 0.930 . S
C3379 C3380 1.399 . S
C3379 C3384 1.399 . S
C3380 C3379 1.399 . S
C3380 C3381 1.376 . S
C3381 H3368 0.930 . S
C3381 C3380 1.376 . S
C3381 C3382 1.388 . S
C3382 H3369 0.930 . S
C3382 C3381 1.388 . S
C3382 C3383 1.390 . S
C3383 C3382 1.390 . S
C3383 C3384 1.394 . S
C3383 C3389 1.465 . S
C3384 C3379 1.399 . S
C3384 C3383 1.394 . S
C3384 C3385 1.516 . S
C3385 C3384 1.516 . S
C3385 C3386 1.502 . S
C3385 C3387 1.561 . S
C3385 C3388 1.526 . S
C3386 H3370 0.959 . S
C3386 H3371 0.959 . S
C3386 H3372 0.961 . S
C3386 C3385 1.502 . S
C3387 H3373 0.960 . S
C3387 H3374 0.961 . S
C3387 H3375 0.959 . S
C3387 C3385 1.561 . S
C3388 C3385 1.526 . S
C3388 C3389 1.396 . S
C3388 C3393 1.390 . S
C3389 C3383 1.465 . S
C3389 C3388 1.396 . S
C3389 C3390 1.399 . S
C3390 H3376 0.929 . S
C3390 C3389 1.399 . S
C3390 C3391 1.385 . S
C3391 H3377 0.931 . S
C3391 C3390 1.385 . S
C3391 C3392 1.389 . S
C3392 C3391 1.389 . S
C3392 C3393 1.387 . S
C3393 H3378 0.930 . S
C3393 C3388 1.390 . S
C3393 C3392 1.387 . S
H3394 C3406 0.930 . S
H3395 C3408 0.930 . S
H3396 C3409 0.930 . S
H3397 C3413 0.959 . S
H3398 C3413 0.959 . S
H3399 C3413 0.961 . S
H3400 C3414 0.960 . S
H3401 C3414 0.961 . S
H3402 C3414 0.959 . S
H3403 C3417 0.929 . S
H3404 C3418 0.931 . S
H3405 C3420 0.930 . S
C3406 H3394 0.930 . S
C3406 C3407 1.399 . S
C3406 C3411 1.399 . S
C3407 C3406 1.399 . S
C3407 C3408 1.376 . S
C3408 H3395 0.930 . S
C3408 C3407 1.376 . S
C3408 C3409 1.388 . S
C3409 H3396 0.930 . S
C3409 C3408 1.388 . S
C3409 C3410 1.390 . S
C3410 C3409 1.390 . S
C3410 C3411 1.394 . S
C3410 C3416 1.465 . S
C3411 C3406 1.399 . S
C3411 C3410 1.394 . S
C3411 C3412 1.516 . S
C3412 C3411 1.516 . S
C3412 C3413 1.502 . S
C3412 C3414 1.561 . S
C3412 C3415 1.526 . S
C3413 H3397 0.959 . S
C3413 H3398 0.959 . S
C3413 H3399 0.961 . S
C3413 C3412 1.502 . S
C3414 H3400 0.960 . S
C3414 H3401 0.961 . S
C3414 H3402 0.959 . S
C3414 C3412 1.561 . S
C3415 C3412 1.526 . S
C3415 C3416 1.396 . S
C3415 C3420 1.390 . S
C3416 C3410 1.465 . S
C3416 C3415 1.396 . S
C3416 C3417 1.399 . S
C3417 H3403 0.929 . S
C3417 C3416 1.399 . S
C3417 C3418 1.385 . S
C3418 H3404 0.931 . S
C3418 C3417 1.385 . S
C3418 C3419 1.389 . S
C3419 C3418 1.389 . S
C3419 C3420 1.387 . S
C3420 H3405 0.930 . S
C3420 C3415 1.390 . S
C3420 C3419 1.387 . S
H3421 C3433 0.930 . S
H3422 C3435 0.930 . S
H3423 C3436 0.930 . S
H3424 C3440 0.959 . S
H3425 C3440 0.959 . S
H3426 C3440 0.961 . S
H3427 C3441 0.960 . S
H3428 C3441 0.961 . S
H3429 C3441 0.959 . S
H3430 C3444 0.929 . S
H3431 C3445 0.931 . S
H3432 C3447 0.930 . S
C3433 H3421 0.930 . S
C3433 C3434 1.399 . S
C3433 C3438 1.399 . S
C3434 C3433 1.399 . S
C3434 C3435 1.376 . S
C3435 H3422 0.930 . S
C3435 C3434 1.376 . S
C3435 C3436 1.388 . S
C3436 H3423 0.930 . S
C3436 C3435 1.388 . S
C3436 C3437 1.390 . S
C3437 C3436 1.390 . S
C3437 C3438 1.394 . S
C3437 C3443 1.465 . S
C3438 C3433 1.399 . S
C3438 C3437 1.394 . S
C3438 C3439 1.516 . S
C3439 C3438 1.516 . S
C3439 C3440 1.502 . S
C3439 C3441 1.561 . S
C3439 C3442 1.526 . S
C3440 H3424 0.959 . S
C3440 H3425 0.959 . S
C3440 H3426 0.961 . S
C3440 C3439 1.502 . S
C3441 H3427 0.960 . S
C3441 H3428 0.961 . S
C3441 H3429 0.959 . S
C3441 C3439 1.561 . S
C3442 C3439 1.526 . S
C3442 C3443 1.396 . S
C3442 C3447 1.390 . S
C3443 C3437 1.465 . S
C3443 C3442 1.396 . S
C3443 C3444 1.399 . S
C3444 H3430 0.929 . S
C3444 C3443 1.399 . S
C3444 C3445 1.385 . S
C3445 H3431 0.931 . S
C3445 C3444 1.385 . S
C3445 C3446 1.389 . S
C3446 C3445 1.389 . S
C3446 C3447 1.387 . S
C3447 H3432 0.930 . S
C3447 C3442 1.390 . S
C3447 C3446 1.387 . S
C881 C371 1.870 . S
C869 C7 1.818 . S
C908 C382 1.288 . S
C896 C19 1.307 . S
C923 C29 1.726 . S
C935 C406 1.726 . S
C962 C427 1.204 . S
C950 C41 1.388 . S
C977 C52 1.439 . S
C989 C434 1.380 . S
C1004 C62 1.524 . S
C1016 C364 1.547 1_556 S
C1031 C73 1.183 . S
C1043 C390 1.236 . S
C1070 C413 1.683 1_556 S
C1058 C82 1.596 . S
C1097 C445 1.646 . S
C1085 C5 1.622 . S
C1112 C16 1.359 . S
C1124 C466 1.524 . S
C1139 C30 1.689 . S
C1151 C490 1.564 . S
C1178 C508 1.249 . S
C1166 C40 1.401 . S
C1193 C49 1.209 . S
C1205 C537 1.300 . S
C1232 C558 1.336 . S
C1220 C63 1.504 . S
C1247 C74 1.265 . S
C1259 C574 1.207 . S
C1286 C595 1.425 . S
C1274 C85 1.560 . S
C1301 C8 1.610 . S
C1313 C516 1.533 . S
C1328 C51 1.491 . S
C1340 C550 1.519 . S
C1367 C581 1.720 . S
C1355 C60 1.606 . S
C1382 C71 1.081 . S
C1394 C602 1.466 . S
C1421 C529 1.839 . S
C1409 C84 1.909 . S
C1448 C474 1.346 . S
C1436 C27 1.362 . S
C1463 C38 1.274 . S
C1475 C497 1.343 . S
C1502 C453 1.543 . S
C1490 C18 1.588 . S
C1529 C621 1.874 . S
C1517 C95 1.881 . S
C1544 C107 1.302 . S
C1556 C637 1.306 . S
C1571 C117 1.712 . S
C1583 C655 1.704 . S
C1610 C676 1.192 . S
C1598 C129 1.397 . S
C1625 C140 1.396 . S
C1637 C684 1.407 . S
C1652 C150 1.581 . S
C1664 C613 1.483 . S
C1679 C161 1.257 . S
C1691 C644 1.284 . S
C1706 C170 1.490 . S
C1718 C663 1.572 . S
C1745 C539 1.678 . S
C1733 C93 1.632 . S
C1760 C104 1.287 . S
C1772 C697 1.543 . S
C1799 C571 1.580 . S
C1787 C118 1.731 . S
C1814 C128 1.392 . S
C1826 C726 1.189 . S
C1841 C137 1.237 . S
C1853 C448 1.269 . S
C1880 C742 1.307 . S
C1868 C151 1.510 . S
C1895 C162 1.247 . S
C1907 C487 1.208 . S
C1934 C770 1.523 . S
C1922 C173 1.569 . S
C1949 C96 1.587 . S
C1961 C718 1.471 . S
C1988 C749 1.515 . S
C1976 C139 1.574 . S
C2003 C148 1.605 . S
C2015 C495 1.619 . S
C2042 C763 1.399 . S
C2030 C159 1.071 . S
C2057 C172 1.921 . S
C2069 C455 1.870 . S
C2084 C115 1.217 . S
C2096 C705 1.438 . S
C2111 C126 1.391 . S
C2123 C579 1.393 . S
C2138 C106 1.597 . S
C2150 C532 1.499 . S
C2165 C183 1.834 . S
C2177 C658 1.849 . S
C2204 C679 1.182 . S
C2192 C195 1.368 . S
C2219 C205 1.735 . S
C2231 C623 1.739 . S
C2246 C217 1.369 . S
C2258 C634 1.299 . S
C2273 C228 1.418 . S
C2285 C642 1.353 . S
C2300 C238 1.520 . S
C2312 C665 1.497 . S
C2339 C686 1.198 . S
C2327 C249 1.184 . S
C2354 C258 1.505 . S
C2366 C616 1.577 . S
C2393 C781 1.624 . S
C2381 C181 1.597 . S
C2408 C192 1.349 . S
C2420 C560 1.533 . S
C2447 C802 1.665 . S
C2435 C206 1.692 . S
C2462 C216 1.391 . S
C2474 C592 1.278 . S
C2489 C225 1.120 . S
C2501 C826 1.353 . S
C2516 C239 1.492 . S
C2528 C469 1.345 . S
C2555 C847 1.222 . S
C2543 C250 1.233 . S
C2570 C261 1.577 . S
C2582 C511 1.469 . S
C2609 C600 1.540 . S
C2597 C184 1.619 . S
C2636 C476 1.506 . S
C2624 C227 1.569 . S
C2651 C236 1.500 . S
C2663 C854 1.739 . S
C2678 C247 1.070 . S
C2690 C518 1.461 . S
C2717 C833 1.911 . S
C2705 C260 1.867 . S
C2744 C553 1.325 . S
C2732 C203 1.358 . S
C2771 C810 1.355 . S
C2759 C214 1.286 . S
C2798 C789 1.512 . S
C2786 C194 1.600 . S
C2813 C271 1.841 . S
C2825 C403 1.870 . S
C2840 C283 1.303 . S
C2852 C424 1.280 . S
C2879 C369 1.694 . S
C2867 C293 1.765 . S
C2906 C385 1.213 . S
C2894 C305 1.399 . S
C2933 C392 1.383 . S
C2921 C316 1.427 . S
C2960 C411 1.467 1_556 S
C2948 C326 1.580 . S
C2987 C432 1.229 . S
C2975 C337 1.266 . S
C3002 C346 1.494 . S
C3014 C361 1.586 1_556 S
C3029 C269 1.612 . S
C3041 C823 1.636 . S
C3068 C739 1.471 . S
C3056 C280 1.309 . S
C3095 C844 1.593 . S
C3083 C294 1.736 . S
C3122 C768 1.220 . S
C3110 C304 1.396 . S
C3137 C313 1.276 . S
C3149 C784 1.236 . S
C3176 C700 1.327 . S
C3164 C327 1.496 . S
C3203 C805 1.235 . S
C3191 C338 1.271 . S
C3218 C349 1.565 . S
C3230 C728 1.517 . S
C3257 C760 1.543 . S
C3245 C272 1.612 . S
C3284 C707 1.552 . S
C3272 C315 1.495 . S
C3311 C812 1.752 . S
C3299 C324 1.562 . S
C3326 C335 1.254 . S
C3338 C721 1.289 . S
C3353 C348 1.919 . S
C3365 C791 1.891 . S
C3380 C291 1.362 . S
C3392 C747 1.350 . S
C3407 C302 1.288 . S
C3419 C852 1.356 . S
C3446 C831 1.510 . S
C3434 C282 1.599 . S
