# Generated by pormake.
# Topology tsx, (6,3)-cn, num edge types: 1
# Building blocks:
#     Node 0, Type 0, BuildingBlock: LEVNOQ01_clean_sbu_1, # of connection points: 6
#     Node 1, Type 0, BuildingBlock: LEVNOQ01_clean_sbu_1, # of connection points: 6
#     Node 2, Type 1, BuildingBlock: ESEHIV_clean_linker_0, # of connection points: 3
#     Node 3, Type 1, BuildingBlock: ESEHIV_clean_linker_0, # of connection points: 3
#     Node 4, Type 1, BuildingBlock: ESEHIV_clean_linker_0, # of connection points: 3
#     Node 5, Type 1, BuildingBlock: ESEHIV_clean_linker_0, # of connection points: 3
#     Edge 6, Type (0, 1), BuildingBlock: EZIPEK_clean_linker_0, # of connection points: 2
#     Edge 7, Type (0, 1), BuildingBlock: EZIPEK_clean_linker_0, # of connection points: 2
#     Edge 8, Type (0, 1), BuildingBlock: EZIPEK_clean_linker_0, # of connection points: 2
#     Edge 9, Type (0, 1), BuildingBlock: EZIPEK_clean_linker_0, # of connection points: 2
#     Edge 10, Type (0, 1), BuildingBlock: EZIPEK_clean_linker_0, # of connection points: 2
#     Edge 11, Type (0, 1), BuildingBlock: EZIPEK_clean_linker_0, # of connection points: 2
#     Edge 12, Type (0, 1), BuildingBlock: EZIPEK_clean_linker_0, # of connection points: 2
#     Edge 13, Type (0, 1), BuildingBlock: EZIPEK_clean_linker_0, # of connection points: 2
#     Edge 14, Type (0, 1), BuildingBlock: EZIPEK_clean_linker_0, # of connection points: 2
#     Edge 15, Type (0, 1), BuildingBlock: EZIPEK_clean_linker_0, # of connection points: 2
#     Edge 16, Type (0, 1), BuildingBlock: EZIPEK_clean_linker_0, # of connection points: 2
#     Edge 17, Type (0, 1), BuildingBlock: EZIPEK_clean_linker_0, # of connection points: 2
# Relax obj value: 0.131
# Max RMSD: 0.158
# Mean RMSD: 0.119
data_MOF--net-tsx--node1-LEVNOQ01_clean_sbu_1--node2-ESEHIV_clean_linker_0--edge1-EZIPEK_clean_linker_0
_symmetry_space_group_name_H-M    P1
_symmetry_Int_Tables_number       1
_symmetry_cell_setting            triclinic
loop_
_symmetry_equiv_pos_as_xyz
'x, y, z'
_cell_length_a     12.207918
_cell_length_b     14.789752
_cell_length_c     26.282536
_cell_angle_alpha  97.739475
_cell_angle_beta   91.125273
_cell_angle_gamma 90.129289
loop_
_atom_site_label
_atom_site_type_symbol
_atom_site_fract_x
_atom_site_fract_y
_atom_site_fract_z
_atom_type_partial_charge
O0 O 0.25796 0.0671 0.07838 0.0
Mg1 Mg 0.29536 0.11014 0.00563 0.0
O2 O 0.07453 0.07468 0.07468 0.0
Mg3 Mg 0.04603 0.08259 -0.01063 0.0
O4 O 0.17299 0.19759 -0.00345 0.0
O5 O 0.34611 0.24296 0.00301 0.0
O6 O 0.04983 0.09886 0.9015 0.0
O7 O 0.92529 0.20544 0.00409 0.0
Mg8 Mg 0.87444 0.02487 0.92956 0.0
O9 O 0.90685 0.96869 -0.00502 0.0
O10 O 0.95776 0.98236 0.86193 0.0
O11 O 0.81237 0.15881 0.93907 0.0
O12 O 0.75998 0.93406 0.94246 0.0
C13 C 0.25107 0.9431 0.94605 0.0
C14 C 0.1645 0.0643 0.09907 0.0
C15 C 0.24382 0.26334 0.00069 0.0
C16 C 0.02402 0.04714 0.86037 0.0
C17 C 0.84516 0.22009 -0.02564 0.0
C18 C 0.81684 0.92202 -0.01721 0.0
O19 O 0.30949 0.01155 0.94053 0.0
O20 O 0.16238 0.9544 -0.02898 0.0
O21 O 0.65977 0.4057 0.56988 0.0
Mg22 Mg 0.71856 0.45029 0.50143 0.0
O23 O 0.50265 0.4715 0.55655 0.0
Mg24 Mg 0.54129 0.46308 0.47032 0.0
O25 O 0.67928 0.58093 0.48957 0.0
O26 O 0.8358 0.5415 0.52705 0.0
O27 O 0.59498 0.46033 0.38559 0.0
O28 O 0.43927 0.60046 0.46083 0.0
Mg29 Mg 0.36219 0.45251 0.42533 0.0
O30 O 0.40611 0.34301 0.45788 0.0
O31 O 0.43076 0.48858 0.35752 0.0
O32 O 0.27373 0.55315 0.47127 0.0
O33 O 0.26146 0.34598 0.40497 0.0
C34 C 0.70904 0.29191 0.44634 0.0
C35 C 0.56769 0.43469 0.58616 0.0
C36 C 0.77338 0.60333 0.51212 0.0
C37 C 0.53233 0.48246 0.35022 0.0
C38 C 0.33681 0.61747 0.46427 0.0
C39 C 0.31869 0.3036 0.43581 0.0
O40 O 0.77904 0.35266 0.44152 0.0
O41 O 0.62114 0.31603 0.4691 0.0
H42 H 0.96424 0.08531 0.30547 0.0
H43 H 0.23776 0.91027 0.31738 0.0
H44 H 0.98496 0.91466 0.42682 0.0
C45 C 0.00417 0.03549 0.326 0.0
C46 C 0.95502 0.00435 0.36867 0.0
C47 C 0.10287 -0.00071 0.30671 0.0
C48 C 0.16253 0.93993 0.33323 0.0
C49 C 0.12116 0.9132 0.378 0.0
C50 C 0.01705 0.9436 0.39499 0.0
H51 H 0.95035 0.94089 0.65566 0.0
H52 H 0.16538 0.16082 0.63036 0.0
H53 H 0.02662 0.98438 0.50234 0.0
C54 C 0.98952 0.98083 0.62936 0.0
C55 C 0.97781 0.95452 0.57645 0.0
C56 C 0.05578 0.05566 0.6487 0.0
C57 C 0.11184 0.10458 0.61519 0.0
C58 C 0.10136 0.07866 0.56211 0.0
C59 C 0.03267 0.005 0.54306 0.0
H60 H 0.42357 0.60164 0.79531 0.0
H61 H 0.63087 0.38145 0.82755 0.0
H62 H 0.52152 0.57918 0.95096 0.0
C63 C 0.46332 0.56388 0.82308 0.0
C64 C 0.45814 0.59628 0.87544 0.0
C65 C 0.52347 0.48585 0.8059 0.0
C66 C 0.5806 0.43962 0.84137 0.0
C67 C 0.58025 0.47272 0.89419 0.0
C68 C 0.51837 0.55102 0.91083 0.0
H69 H 0.3971 0.50121 0.15089 0.0
H70 H 0.67458 0.67447 0.14646 0.0
H71 H 0.43905 0.65386 0.0227 0.0
C72 C 0.43922 0.54992 0.13094 0.0
C73 C 0.39736 0.5744 0.08416 0.0
C74 C 0.5367 0.58705 0.15351 0.0
C75 C 0.59939 0.6454 0.12849 0.0
C76 C 0.56409 0.66859 0.08115 0.0
C77 C 0.4634 0.63369 0.05903 0.0
C78 C 0.19113 0.38886 0.06873 0.0
C79 C 0.21311 0.35962 0.01627 0.0
C80 C 0.27102 0.51451 0.00782 0.0
C81 C 0.29209 0.52898 0.06116 0.0
N82 N 0.19513 0.51598 0.13828 0.0
N83 N 0.24521 0.40151 0.93264 0.0
C84 C 0.22589 0.47783 0.09064 0.0
C85 C 0.24111 0.42541 -0.01553 0.0
N86 N 0.14536 0.32989 0.09796 0.0
N87 N 0.26221 0.58695 -0.01849 0.0
H88 H 0.22042 0.3369 0.91511 0.0
H89 H 0.27651 0.44492 0.90826 0.0
H90 H 0.26762 0.6539 6e-05 0.0
H91 H 0.22971 0.57932 0.94442 0.0
H92 H 0.13879 0.34374 0.13768 0.0
H93 H 0.11506 0.2662 0.08197 0.0
H94 H 0.14085 0.48517 0.16082 0.0
H95 H 0.2183 0.58272 0.15278 0.0
C96 C 0.40759 0.83404 0.94416 0.0
C97 C 0.297 0.85049 0.93058 0.0
C98 C 0.28801 0.69695 0.88075 0.0
C99 C 0.40134 0.68447 0.8922 0.0
N100 N 0.57367 0.75379 0.92268 0.0
N101 N 0.13465 0.80145 0.88043 0.0
C102 C 0.46207 0.75675 0.92008 0.0
C103 C 0.2376 0.78282 0.8974 0.0
N104 N 0.46414 0.89064 -0.01928 0.0
N105 N 0.22732 0.62577 0.85605 0.0
H106 H 0.09363 0.8616 0.89316 0.0
H107 H 0.0924 0.76038 0.8512 0.0
H108 H 0.25945 0.56104 0.84515 0.0
H109 H 0.14259 0.62733 0.85121 0.0
H110 H 0.43002 0.94587 0.00388 0.0
H111 H 0.43002 0.94587 0.00388 0.0
H112 H 0.61941 0.80802 0.9414 0.0
H113 H 0.62012 0.70257 0.90229 0.0
C114 C 0.68777 0.8919 0.05076 0.0
C115 C 0.77143 0.85899 0.01652 0.0
C116 C 0.72509 0.70119 0.02775 0.0
C117 C 0.63288 0.73373 0.05689 0.0
N118 N 0.52421 0.85875 0.09647 0.0
N119 N 0.87205 0.7344 -0.02828 0.0
C120 C 0.61416 0.82893 0.06886 0.0
C121 C 0.79186 0.7641 0.00547 0.0
N122 N 0.67934 0.98381 0.06574 0.0
N123 N 0.7494 0.61023 0.02205 0.0
H124 H 0.92543 0.77914 0.95697 0.0
H125 H 0.88365 0.66634 0.95693 0.0
H126 H 0.69919 0.56168 0.03537 0.0
H127 H 0.82229 0.58325 0.0069 0.0
H128 H 0.62591 0.01339 0.09344 0.0
H129 H 0.73277 0.03093 0.05313 0.0
H130 H 0.49901 0.92638 0.1026 0.0
H131 H 0.46957 0.81473 0.11093 0.0
C132 C 0.84054 0.3711 0.94344 0.0
C133 C 0.79511 0.31118 -0.02479 0.0
C134 C 0.61614 0.38385 -0.03035 0.0
C135 C 0.6563 0.43092 0.93003 0.0
N136 N 0.8125 0.49873 0.89527 0.0
N137 N 0.64841 0.26861 0.0263 0.0
C138 C 0.77091 0.43397 0.92212 0.0
C139 C 0.68626 0.32256 -0.00794 0.0
N140 N 0.94857 0.36292 0.931 0.0
N141 N 0.51149 0.39753 -0.01432 0.0
H142 H 0.70058 0.22615 0.04422 0.0
H143 H 0.56679 0.26446 0.03641 0.0
H144 H 0.45601 0.43516 0.96699 0.0
H145 H 0.48255 0.37792 0.01952 0.0
H146 H 0.98517 0.39606 0.9032 0.0
H147 H 0.00158 0.32009 0.94809 0.0
H148 H 0.89575 0.50941 0.89067 0.0
H149 H 0.76321 0.54839 0.8819 0.0
C150 C 0.92365 0.7146 0.50775 0.0
C151 C 0.81396 0.69926 0.52076 0.0
C152 C 0.80569 0.85644 0.56531 0.0
C153 C 0.91946 0.86756 0.55661 0.0
N154 N 0.09187 0.79654 0.53213 0.0
N155 N 0.65299 0.75179 0.56778 0.0
C156 C 0.97992 0.79387 0.53104 0.0
C157 C 0.75486 0.76944 0.55072 0.0
N158 N 0.97427 0.65253 0.47287 0.0
N159 N 0.74588 0.92935 0.58675 0.0
H160 H 0.61195 0.69007 0.55746 0.0
H161 H 0.6117 0.79606 0.59499 0.0
H162 H 0.78008 -0.00616 0.5978 0.0
H163 H 0.66085 0.92853 0.58903 0.0
H164 H 0.05387 0.66038 0.46136 0.0
H165 H 0.93335 0.59687 0.45219 0.0
H166 H 0.13943 0.73925 0.52105 0.0
H167 H 0.13757 0.85191 0.55001 0.0
C168 C 0.72152 0.16673 0.3723 0.0
C169 C 0.72915 0.19536 0.42589 0.0
C170 C 0.81013 0.04883 0.43686 0.0
C171 C 0.84309 0.04061 0.3853 0.0
N172 N 0.764 0.04787 0.30176 0.0
N173 N 0.75235 0.15185 0.51073 0.0
C174 C 0.77685 0.08572 0.3518 0.0
C175 C 0.76241 0.13197 0.45885 0.0
N176 N 0.66198 0.21688 0.3419 0.0
N177 N 0.80372 0.97336 0.46087 0.0
H178 H 0.71475 0.21124 0.52787 0.0
H179 H 0.78656 0.11102 0.53624 0.0
H180 H 0.76618 0.97492 0.49608 0.0
H181 H 0.81564 0.90814 0.44116 0.0
H182 H 0.65927 0.20422 0.30199 0.0
H183 H 0.61333 0.27117 0.35758 0.0
H184 H 0.71364 0.07427 0.27503 0.0
H185 H 0.79956 0.98513 0.28843 0.0
C186 C 0.3343 0.17097 0.48731 0.0
C187 C 0.2714 0.22112 0.45476 0.0
C188 C 0.1035 0.17434 0.49178 0.0
C189 C 0.16347 0.12692 0.52572 0.0
N190 N 0.33639 0.0711 0.55419 0.0
N191 N 0.09903 0.22143 0.40779 0.0
C192 C 0.27965 0.12243 0.52314 0.0
C193 C 0.15668 0.20781 0.4511 0.0
N194 N 0.44475 0.16493 0.48076 0.0
N195 N 0.99652 0.19272 0.50151 0.0
H196 H 0.13745 0.23233 0.37405 0.0
H197 H 0.01544 0.20729 0.40297 0.0
H198 H 0.95068 0.23749 0.48225 0.0
H199 H 0.95068 0.23749 0.48225 0.0
H200 H 0.49878 0.13286 0.50351 0.0
H201 H 0.48104 0.1872 0.44903 0.0
H202 H 0.42125 0.06659 0.55605 0.0
H203 H 0.2977 0.03064 0.57808 0.0
C204 C 0.31805 0.78695 0.45873 0.0
C205 C 0.28887 0.69517 0.44062 0.0
C206 C 0.14689 0.7482 0.38408 0.0
C207 C 0.17834 0.83937 0.40082 0.0
N208 N 0.31242 0.94476 0.44305 0.0
N209 N 0.19961 0.5909 0.37266 0.0
C210 C 0.26973 0.85866 0.43483 0.0
C211 C 0.21109 0.67654 0.39913 0.0
N212 N 0.38798 0.80603 0.5 0.0
N213 N 0.05473 0.72925 0.35399 0.0
H214 H 0.24312 0.53482 0.38126 0.0
H215 H 0.15448 0.57703 0.33842 0.0
H216 H 0.0079 0.77895 0.3393 0.0
H217 H 0.01963 0.66436 0.3469 0.0
H218 H 0.40301 0.87203 0.51822 0.0
H219 H 0.42449 0.7553 0.51845 0.0
H220 H 0.38735 0.96008 0.46193 0.0
H221 H 0.27772 -0.00109 0.42687 0.0
C222 C 0.1047 0.96298 0.16144 0.0
C223 C 0.15976 0.04334 0.15213 0.0
C224 C 0.20024 0.0828 0.24416 0.0
C225 C 0.13146 0.01007 0.25364 0.0
N226 N 0.01228 0.88291 0.22265 0.0
N227 N 0.25603 0.1833 0.18369 0.0
C228 C 0.08248 0.95031 0.21263 0.0
C229 C 0.20782 0.10386 0.19317 0.0
N230 N 0.07734 0.89726 0.12138 0.0
N231 N 0.25857 0.13089 0.28384 0.0
H232 H 0.26427 0.20082 0.14685 0.0
H233 H 0.28138 0.23493 0.21241 0.0
H234 H 0.25382 0.11687 0.32161 0.0
H235 H 0.31823 0.1792 0.27894 0.0
H236 H 0.04741 0.83302 0.12615 0.0
H237 H 0.0944 0.90333 0.08324 0.0
H238 H 0.96305 0.84532 0.1946 0.0
H239 H 0.99765 0.86795 0.25958 0.0
C240 C 0.13747 0.01594 0.78252 0.0
C241 C 0.05723 0.07004 0.81009 0.0
C242 C 0.00956 0.1412 0.73384 0.0
C243 C 0.07436 0.07478 0.70466 0.0
N244 N 0.20941 0.95565 0.69942 0.0
N245 N 0.92437 0.19116 0.81551 0.0
C246 C 0.14298 0.01528 0.72869 0.0
C247 C 0.99721 0.13648 0.78705 0.0
N248 N 0.20815 0.96591 0.80823 0.0
N249 N 0.95869 0.20708 0.71024 0.0
H250 H 0.91699 0.1918 0.85498 0.0
H251 H 0.86906 0.23428 0.80034 0.0
H252 H 0.96509 0.21054 0.67104 0.0
H253 H 0.91674 0.26202 0.72958 0.0
H254 H 0.27381 0.92912 0.79157 0.0
H255 H 0.20613 0.96782 0.84789 0.0
H256 H 0.25195 0.90281 0.71318 0.0
H257 H 0.21973 0.95748 0.66024 0.0
C258 C 0.61887 0.51151 0.67313 0.0
C259 C 0.55188 0.44647 0.64217 0.0
C260 C 0.46795 0.40228 0.71922 0.0
C261 C 0.54005 0.46348 0.74995 0.0
N262 N 0.69758 0.56347 0.75713 0.0
N263 N 0.42271 0.32192 0.63432 0.0
C264 C 0.61988 0.51388 0.72711 0.0
C265 C 0.47899 0.3894 0.66478 0.0
N266 N 0.67827 0.57381 0.65093 0.0
N267 N 0.38768 0.35843 0.7421 0.0
H268 H 0.42756 0.31261 0.59434 0.0
H269 H 0.37654 0.27195 0.64851 0.0
H270 H 0.38039 0.36409 0.7819 0.0
H271 H 0.3252 0.32031 0.72188 0.0
H272 H 0.71849 0.62949 0.67172 0.0
H273 H 0.67934 0.57516 0.61141 0.0
H274 H 0.76563 0.5928 0.74241 0.0
H275 H 0.69959 0.56894 0.79708 0.0
C276 C 0.54058 0.60952 0.29838 0.0
C277 C 0.57487 0.52053 0.30516 0.0
C278 C 0.61934 0.48801 0.21433 0.0
C279 C 0.56679 0.57061 0.2062 0.0
N280 N 0.4795 0.71221 0.2394 0.0
N281 N 0.68528 0.39093 0.27615 0.0
C282 C 0.5305 0.63324 0.2481 0.0
C283 C 0.62685 0.46446 0.26507 0.0
N284 N 0.51906 0.67107 0.3406 0.0
N285 N 0.65714 0.43093 0.1732 0.0
H286 H 0.6989 0.37914 0.31391 0.0
H287 H 0.72959 0.34813 0.24948 0.0
H288 H 0.65606 0.4484 0.13601 0.0
H289 H 0.68647 0.36553 0.17527 0.0
H290 H 0.50134 0.73952 0.33928 0.0
H291 H 0.53018 0.65518 0.37786 0.0
H292 H 0.43862 0.75494 0.26747 0.0
H293 H 0.47257 0.73321 0.20316 0.0
loop_
_geom_bond_atom_site_label_1
_geom_bond_atom_site_label_2
_geom_bond_distance
_geom_bond_site_symmetry_2
_ccdc_geom_bond_type
O0 Mg1 1.990 . S
O0 C14 1.253 . S
Mg1 O0 1.990 . S
Mg1 O4 2.180 . S
Mg1 O5 2.117 . S
Mg1 O19 2.030 1_545 S
O2 Mg3 2.061 1_554 S
O2 C14 1.260 . S
Mg3 O2 2.061 1_556 S
Mg3 O4 2.097 1_556 S
Mg3 O6 2.090 . S
Mg3 O7 2.072 1_456 S
Mg3 O9 2.100 1_445 S
Mg3 O20 2.079 1_545 S
O4 Mg1 2.180 . S
O4 Mg3 2.097 1_554 S
O4 C15 1.279 . S
O5 Mg1 2.117 . S
O5 C15 1.250 . S
O6 Mg3 2.090 . S
O6 C16 1.264 . S
O7 Mg3 2.072 1_654 S
O7 C17 1.260 1_554 S
Mg8 O9 2.180 . S
Mg8 O10 2.030 1_565 S
Mg8 O11 1.990 1_565 S
Mg8 O12 2.117 . S
O9 Mg3 2.100 1_665 S
O9 Mg8 2.180 . S
O9 C18 1.279 1_556 S
O10 Mg8 2.030 1_545 S
O10 C16 1.248 1_655 S
O11 Mg8 1.990 1_545 S
O11 C17 1.253 . S
O12 Mg8 2.117 . S
O12 C18 1.250 1_556 S
C13 O19 1.248 . S
C13 O20 1.264 1_554 S
C14 O0 1.253 . S
C14 O2 1.260 . S
C15 O4 1.279 . S
C15 O5 1.250 . S
C16 O6 1.264 . S
C16 O10 1.248 1_455 S
C17 O7 1.260 1_556 S
C17 O11 1.253 . S
C18 O9 1.279 1_554 S
C18 O12 1.250 1_554 S
O19 Mg1 2.030 1_565 S
O19 C13 1.248 . S
O20 Mg3 2.079 1_565 S
O20 C13 1.264 1_556 S
O21 Mg22 1.990 . S
O21 C35 1.253 . S
Mg22 O21 1.990 . S
Mg22 O25 2.180 . S
Mg22 O26 2.117 . S
Mg22 O40 2.030 . S
O23 Mg24 2.072 . S
O23 C35 1.260 . S
Mg24 O23 2.072 . S
Mg24 O25 2.099 . S
Mg24 O27 2.079 . S
Mg24 O28 2.072 . S
Mg24 O30 2.099 . S
Mg24 O41 2.079 . S
O25 Mg22 2.180 . S
O25 Mg24 2.099 . S
O25 C36 1.279 . S
O26 Mg22 2.117 . S
O26 C36 1.250 . S
O27 Mg24 2.079 . S
O27 C37 1.264 . S
O28 Mg24 2.072 . S
O28 C38 1.260 . S
Mg29 O30 2.180 . S
Mg29 O31 2.030 . S
Mg29 O32 1.990 . S
Mg29 O33 2.117 . S
O30 Mg24 2.099 . S
O30 Mg29 2.180 . S
O30 C39 1.279 . S
O31 Mg29 2.030 . S
O31 C37 1.248 . S
O32 Mg29 1.990 . S
O32 C38 1.253 . S
O33 Mg29 2.117 . S
O33 C39 1.250 . S
C34 O40 1.248 . S
C34 O41 1.264 . S
C35 O21 1.253 . S
C35 O23 1.260 . S
C36 O25 1.279 . S
C36 O26 1.250 . S
C37 O27 1.264 . S
C37 O31 1.248 . S
C38 O28 1.260 . S
C38 O32 1.253 . S
C39 O30 1.279 . S
C39 O33 1.250 . S
O40 Mg22 2.030 . S
O40 C34 1.248 . S
O41 Mg24 2.079 . S
O41 C34 1.264 . S
H42 C45 0.931 . S
H43 C48 0.928 . S
H44 C50 0.930 . S
C45 H42 0.931 . S
C45 C46 1.413 . S
C45 C47 1.360 1_645 S
C46 C45 1.413 . S
C46 C50 1.429 1_655 S
C47 C45 1.360 1_465 S
C47 C48 1.372 . S
C48 H43 0.928 . S
C48 C47 1.372 . S
C48 C49 1.404 . S
C49 C48 1.404 . S
C49 C50 1.391 1_565 S
C50 H44 0.930 . S
C50 C46 1.429 1_455 S
C50 C49 1.391 1_545 S
H51 C54 0.931 1_565 S
H52 C57 0.928 . S
H53 C59 0.930 . S
C54 H51 0.931 1_545 S
C54 C55 1.413 . S
C54 C56 1.360 1_655 S
C55 C54 1.413 . S
C55 C59 1.429 . S
C56 C54 1.360 1_455 S
C56 C57 1.372 . S
C57 H52 0.928 . S
C57 C56 1.372 . S
C57 C58 1.404 . S
C58 C57 1.404 . S
C58 C59 1.391 1_455 S
C59 H53 0.930 . S
C59 C55 1.429 . S
C59 C58 1.391 1_655 S
H60 C63 0.931 . S
H61 C66 0.928 . S
H62 C68 0.930 1_554 S
C63 H60 0.931 . S
C63 C64 1.413 . S
C63 C65 1.360 . S
C64 C63 1.413 . S
C64 C68 1.429 . S
C65 C63 1.360 . S
C65 C66 1.372 . S
C66 H61 0.928 . S
C66 C65 1.372 . S
C66 C67 1.404 . S
C67 C66 1.404 . S
C67 C68 1.391 . S
C68 H62 0.930 1_556 S
C68 C64 1.429 . S
C68 C67 1.391 . S
H69 C72 0.931 . S
H70 C75 0.928 . S
H71 C77 0.930 . S
C72 H69 0.931 . S
C72 C73 1.413 . S
C72 C74 1.360 . S
C73 C72 1.413 . S
C73 C77 1.429 . S
C74 C72 1.360 . S
C74 C75 1.372 . S
C75 H70 0.928 . S
C75 C74 1.372 . S
C75 C76 1.404 . S
C76 C75 1.404 . S
C76 C77 1.391 . S
C77 H71 0.930 . S
C77 C73 1.429 . S
C77 C76 1.391 . S
C78 C79 1.363 . S
C78 C84 1.379 . S
C78 N86 1.356 . S
C79 C78 1.363 . S
C79 C85 1.363 1_554 S
C80 C81 1.363 1_556 S
C80 C85 1.379 . S
C80 N87 1.356 . S
C81 C80 1.363 1_554 S
C81 C84 1.363 . S
N82 C84 1.356 . S
N82 H94 0.984 . S
N82 H95 0.985 . S
N83 C85 1.356 . S
N83 H88 0.984 . S
N83 H89 0.985 . S
C84 C78 1.379 . S
C84 C81 1.363 . S
C84 N82 1.356 . S
C85 C79 1.363 1_556 S
C85 C80 1.379 . S
C85 N83 1.356 . S
N86 C78 1.356 . S
N86 H92 0.984 . S
N86 H93 0.984 . S
N87 C80 1.356 . S
N87 H90 0.984 . S
N87 H91 0.985 . S
H88 N83 0.984 . S
H89 N83 0.985 . S
H90 N87 0.984 . S
H91 N87 0.985 . S
H92 N86 0.984 . S
H93 N86 0.984 . S
H94 N82 0.984 . S
H95 N82 0.985 . S
C96 C97 1.364 . S
C96 C102 1.379 . S
C96 N104 1.356 . S
C97 C96 1.364 . S
C97 C103 1.361 1_554 S
C98 C99 1.363 . S
C98 C103 1.379 . S
C98 N105 1.356 . S
C99 C98 1.363 . S
C99 C102 1.363 1_556 S
N100 C102 1.356 . S
N100 H112 0.984 . S
N100 H113 0.985 . S
N101 C103 1.356 . S
N101 H106 0.984 . S
N101 H107 0.985 . S
C102 C96 1.379 . S
C102 C99 1.363 1_554 S
C102 N100 1.356 . S
C103 C97 1.361 1_556 S
C103 C98 1.379 . S
C103 N101 1.356 . S
N104 C96 1.356 . S
N104 H110 0.984 . S
N104 H111 0.984 . S
N105 C98 1.356 . S
N105 H108 0.984 . S
N105 H109 0.985 . S
H106 N101 0.984 . S
H107 N101 0.985 . S
H108 N105 0.984 . S
H109 N105 0.985 . S
H110 N104 0.984 . S
H111 N104 0.984 . S
H112 N100 0.984 . S
H113 N100 0.985 . S
C114 C115 1.363 . S
C114 C120 1.379 . S
C114 N122 1.356 . S
C115 C114 1.363 . S
C115 C121 1.363 . S
C116 C117 1.363 . S
C116 C121 1.379 . S
C116 N123 1.356 . S
C117 C116 1.363 . S
C117 C120 1.363 . S
N118 C120 1.356 . S
N118 H130 0.984 . S
N118 H131 0.985 . S
N119 C121 1.356 1_556 S
N119 H124 0.984 . S
N119 H125 0.985 . S
C120 C114 1.379 . S
C120 C117 1.363 . S
C120 N118 1.356 . S
C121 C115 1.363 . S
C121 C116 1.379 . S
C121 N119 1.356 1_554 S
N122 C114 1.356 . S
N122 H128 0.984 . S
N122 H129 0.984 . S
N123 C116 1.356 . S
N123 H126 0.984 . S
N123 H127 0.985 1_554 S
H124 N119 0.984 . S
H125 N119 0.985 . S
H126 N123 0.984 . S
H127 N123 0.985 1_556 S
H128 N122 0.984 . S
H129 N122 0.984 . S
H130 N118 0.984 . S
H131 N118 0.985 . S
C132 C133 1.363 . S
C132 C138 1.379 . S
C132 N140 1.356 . S
C133 C132 1.363 . S
C133 C139 1.363 1_556 S
C134 C135 1.363 1_554 S
C134 C139 1.379 . S
C134 N141 1.356 . S
C135 C134 1.363 1_556 S
C135 C138 1.363 . S
N136 C138 1.356 . S
N136 H148 0.984 . S
N136 H149 0.985 . S
N137 C139 1.356 . S
N137 H142 0.984 . S
N137 H143 0.985 . S
C138 C132 1.379 . S
C138 C135 1.363 . S
C138 N136 1.356 . S
C139 C133 1.363 1_554 S
C139 C134 1.379 . S
C139 N137 1.356 . S
N140 C132 1.356 . S
N140 H146 0.984 . S
N140 H147 0.984 . S
N141 C134 1.356 . S
N141 H144 0.984 . S
N141 H145 0.985 . S
H142 N137 0.984 . S
H143 N137 0.985 . S
H144 N141 0.984 . S
H145 N141 0.985 . S
H146 N140 0.984 . S
H147 N140 0.984 . S
H148 N136 0.984 . S
H149 N136 0.985 . S
C150 C151 1.363 . S
C150 C156 1.379 . S
C150 N158 1.356 . S
C151 C150 1.363 . S
C151 C157 1.363 . S
C152 C153 1.363 . S
C152 C157 1.379 . S
C152 N159 1.356 . S
C153 C152 1.363 . S
C153 C156 1.363 . S
N154 C156 1.355 1_455 S
N154 H166 0.985 . S
N154 H167 0.985 . S
N155 C157 1.356 . S
N155 H160 0.984 . S
N155 H161 0.985 . S
C156 C150 1.379 . S
C156 C153 1.363 . S
C156 N154 1.355 1_655 S
C157 C151 1.363 . S
C157 C152 1.379 . S
C157 N155 1.356 . S
N158 C150 1.356 . S
N158 H164 0.984 . S
N158 H165 0.984 . S
N159 C152 1.356 . S
N159 H162 0.984 1_565 S
N159 H163 0.985 1_565 S
H160 N155 0.984 . S
H161 N155 0.985 . S
H162 N159 0.984 1_545 S
H163 N159 0.985 1_545 S
H164 N158 0.984 . S
H165 N158 0.984 . S
H166 N154 0.985 . S
H167 N154 0.985 . S
C168 C169 1.363 . S
C168 C174 1.379 . S
C168 N176 1.356 . S
C169 C168 1.363 . S
C169 C175 1.363 . S
C170 C171 1.363 . S
C170 C175 1.379 . S
C170 N177 1.356 . S
C171 C170 1.363 . S
C171 C174 1.363 . S
N172 C174 1.356 . S
N172 H184 0.984 . S
N172 H185 0.985 . S
N173 C175 1.356 . S
N173 H178 0.984 . S
N173 H179 0.985 . S
C174 C168 1.379 . S
C174 C171 1.363 . S
C174 N172 1.356 . S
C175 C169 1.363 . S
C175 C170 1.379 . S
C175 N173 1.356 . S
N176 C168 1.356 . S
N176 H182 0.984 . S
N176 H183 0.984 . S
N177 C170 1.356 . S
N177 H180 0.984 1_655 S
N177 H181 0.984 1_655 S
H178 N173 0.984 . S
H179 N173 0.985 . S
H180 N177 0.984 1_455 S
H181 N177 0.984 1_455 S
H182 N176 0.984 . S
H183 N176 0.984 . S
H184 N172 0.984 . S
H185 N172 0.985 . S
C186 C187 1.363 . S
C186 C192 1.379 . S
C186 N194 1.356 . S
C187 C186 1.363 . S
C187 C193 1.363 . S
C188 C189 1.363 . S
C188 C193 1.379 . S
C188 N195 1.356 . S
C189 C188 1.363 . S
C189 C192 1.363 . S
N190 C192 1.356 . S
N190 H202 0.984 . S
N190 H203 0.985 . S
N191 C193 1.356 . S
N191 H196 0.984 . S
N191 H197 0.985 . S
C192 C186 1.379 . S
C192 C189 1.363 . S
C192 N190 1.356 . S
C193 C187 1.363 . S
C193 C188 1.379 . S
C193 N191 1.356 . S
N194 C186 1.356 . S
N194 H200 0.984 . S
N194 H201 0.984 . S
N195 C188 1.356 . S
N195 H198 0.984 . S
N195 H199 0.985 . S
H196 N191 0.984 . S
H197 N191 0.985 . S
H198 N195 0.984 . S
H199 N195 0.985 . S
H200 N194 0.984 . S
H201 N194 0.984 . S
H202 N190 0.984 . S
H203 N190 0.985 . S
C204 C205 1.363 . S
C204 C210 1.379 . S
C204 N212 1.356 . S
C205 C204 1.363 . S
C205 C211 1.363 . S
C206 C207 1.363 . S
C206 C211 1.379 . S
C206 N213 1.356 . S
C207 C206 1.363 . S
C207 C210 1.363 . S
N208 C210 1.356 . S
N208 H220 0.984 1_565 S
N208 H221 0.985 1_565 S
N209 C211 1.356 . S
N209 H214 0.984 . S
N209 H215 0.985 . S
C210 C204 1.379 . S
C210 C207 1.363 . S
C210 N208 1.356 . S
C211 C205 1.363 . S
C211 C206 1.379 . S
C211 N209 1.356 . S
N212 C204 1.356 . S
N212 H218 0.984 . S
N212 H219 0.984 . S
N213 C206 1.356 . S
N213 H216 0.984 . S
N213 H217 0.985 . S
H214 N209 0.984 . S
H215 N209 0.985 . S
H216 N213 0.984 . S
H217 N213 0.985 . S
H218 N212 0.984 . S
H219 N212 0.984 . S
H220 N208 0.984 1_545 S
H221 N208 0.985 1_545 S
C222 C223 1.363 1_665 S
C222 C228 1.379 . S
C222 N230 1.356 . S
C223 C222 1.363 1_445 S
C223 C229 1.363 . S
C224 C225 1.363 1_545 S
C224 C229 1.379 . S
C224 N231 1.356 . S
C225 C224 1.363 1_565 S
C225 C228 1.363 1_455 S
N226 C228 1.356 . S
N226 H238 0.984 . S
N226 H239 0.985 . S
N227 C229 1.356 . S
N227 H232 0.984 . S
N227 H233 0.985 . S
C228 C222 1.379 . S
C228 C225 1.363 1_655 S
C228 N226 1.356 . S
C229 C223 1.363 . S
C229 C224 1.379 . S
C229 N227 1.356 . S
N230 C222 1.356 . S
N230 H236 0.984 . S
N230 H237 0.984 . S
N231 C224 1.356 . S
N231 H234 0.984 . S
N231 H235 0.985 . S
H232 N227 0.984 . S
H233 N227 0.985 . S
H234 N231 0.984 . S
H235 N231 0.985 . S
H236 N230 0.984 . S
H237 N230 0.984 . S
H238 N226 0.984 . S
H239 N226 0.985 . S
C240 C241 1.363 1_565 S
C240 C246 1.379 1_565 S
C240 N248 1.356 . S
C241 C240 1.363 1_545 S
C241 C247 1.363 1_455 S
C242 C243 1.363 1_655 S
C242 C247 1.379 . S
C242 N249 1.356 . S
C243 C242 1.363 1_455 S
C243 C246 1.363 . S
N244 C246 1.356 1_565 S
N244 H256 0.984 . S
N244 H257 0.985 . S
N245 C247 1.356 . S
N245 H250 0.984 . S
N245 H251 0.985 . S
C246 C240 1.379 1_545 S
C246 C243 1.363 . S
C246 N244 1.356 1_545 S
C247 C241 1.363 1_655 S
C247 C242 1.379 . S
C247 N245 1.356 . S
N248 C240 1.356 . S
N248 H254 0.984 . S
N248 H255 0.984 . S
N249 C242 1.356 . S
N249 H252 0.984 . S
N249 H253 0.985 . S
H250 N245 0.984 . S
H251 N245 0.985 . S
H252 N249 0.984 . S
H253 N249 0.985 . S
H254 N248 0.984 . S
H255 N248 0.984 . S
H256 N244 0.984 . S
H257 N244 0.985 . S
C258 C259 1.363 . S
C258 C264 1.379 . S
C258 N266 1.356 . S
C259 C258 1.363 . S
C259 C265 1.363 . S
C260 C261 1.363 . S
C260 C265 1.379 . S
C260 N267 1.356 . S
C261 C260 1.363 . S
C261 C264 1.363 . S
N262 C264 1.356 . S
N262 H274 0.984 . S
N262 H275 0.985 . S
N263 C265 1.356 . S
N263 H268 0.984 . S
N263 H269 0.985 . S
C264 C258 1.379 . S
C264 C261 1.363 . S
C264 N262 1.356 . S
C265 C259 1.363 . S
C265 C260 1.379 . S
C265 N263 1.356 . S
N266 C258 1.356 . S
N266 H272 0.984 . S
N266 H273 0.984 . S
N267 C260 1.356 . S
N267 H270 0.984 . S
N267 H271 0.985 . S
H268 N263 0.984 . S
H269 N263 0.985 . S
H270 N267 0.984 . S
H271 N267 0.985 . S
H272 N266 0.984 . S
H273 N266 0.984 . S
H274 N262 0.984 . S
H275 N262 0.985 . S
C276 C277 1.363 . S
C276 C282 1.379 . S
C276 N284 1.356 . S
C277 C276 1.363 . S
C277 C283 1.363 . S
C278 C279 1.363 . S
C278 C283 1.379 . S
C278 N285 1.356 . S
C279 C278 1.363 . S
C279 C282 1.363 . S
N280 C282 1.356 . S
N280 H292 0.984 . S
N280 H293 0.985 . S
N281 C283 1.356 . S
N281 H286 0.984 . S
N281 H287 0.985 . S
C282 C276 1.379 . S
C282 C279 1.363 . S
C282 N280 1.356 . S
C283 C277 1.363 . S
C283 C278 1.379 . S
C283 N281 1.356 . S
N284 C276 1.356 . S
N284 H290 0.984 . S
N284 H291 0.984 . S
N285 C278 1.356 . S
N285 H288 0.984 . S
N285 H289 0.985 . S
H286 N281 0.984 . S
H287 N281 0.985 . S
H288 N285 0.984 . S
H289 N285 0.985 . S
H290 N284 0.984 . S
H291 N284 0.984 . S
H292 N280 0.984 . S
H293 N280 0.985 . S
C81 C73 1.432 . S
C79 C15 1.247 . S
C97 C13 1.478 . S
C99 C64 1.478 . S
C115 C18 1.285 . S
C117 C76 1.454 . S
C133 C17 1.349 . S
C135 C67 1.422 . S
C151 C36 1.247 . S
C153 C55 1.432 1_565 S
C169 C34 1.478 . S
C171 C46 1.478 . S
C189 C58 1.453 . S
C187 C39 1.285 . S
C207 C49 1.422 . S
C205 C38 1.349 . S
C223 C14 1.496 . S
C225 C47 1.549 . S
C241 C16 1.386 . S
C243 C56 1.440 . S
C261 C65 1.549 . S
C259 C35 1.496 . S
C277 C37 1.386 . S
C279 C74 1.440 . S
