# Generated by pormake.
# Topology ptr, (4,4)-cn, num edge types: 1
# Building blocks:
#     Node 0, Type 0, BuildingBlock: QUQFOY_clean_sbu_3, # of connection points: 4
#     Node 1, Type 0, BuildingBlock: QUQFOY_clean_sbu_3, # of connection points: 4
#     Node 2, Type 0, BuildingBlock: QUQFOY_clean_sbu_3, # of connection points: 4
#     Node 3, Type 0, BuildingBlock: QUQFOY_clean_sbu_3, # of connection points: 4
#     Node 4, Type 0, BuildingBlock: QUQFOY_clean_sbu_3, # of connection points: 4
#     Node 5, Type 0, BuildingBlock: QUQFOY_clean_sbu_3, # of connection points: 4
#     Node 6, Type 0, BuildingBlock: QUQFOY_clean_sbu_3, # of connection points: 4
#     Node 7, Type 0, BuildingBlock: QUQFOY_clean_sbu_3, # of connection points: 4
#     Node 8, Type 0, BuildingBlock: QUQFOY_clean_sbu_3, # of connection points: 4
#     Node 9, Type 0, BuildingBlock: QUQFOY_clean_sbu_3, # of connection points: 4
#     Node 10, Type 0, BuildingBlock: QUQFOY_clean_sbu_3, # of connection points: 4
#     Node 11, Type 0, BuildingBlock: QUQFOY_clean_sbu_3, # of connection points: 4
#     Node 12, Type 0, BuildingBlock: QUQFOY_clean_sbu_3, # of connection points: 4
#     Node 13, Type 0, BuildingBlock: QUQFOY_clean_sbu_3, # of connection points: 4
#     Node 14, Type 0, BuildingBlock: QUQFOY_clean_sbu_3, # of connection points: 4
#     Node 15, Type 0, BuildingBlock: QUQFOY_clean_sbu_3, # of connection points: 4
#     Node 16, Type 0, BuildingBlock: QUQFOY_clean_sbu_3, # of connection points: 4
#     Node 17, Type 0, BuildingBlock: QUQFOY_clean_sbu_3, # of connection points: 4
#     Node 18, Type 1, BuildingBlock: MIFKUJ_clean_linker_1, # of connection points: 4
#     Node 19, Type 1, BuildingBlock: MIFKUJ_clean_linker_1, # of connection points: 4
#     Node 20, Type 1, BuildingBlock: MIFKUJ_clean_linker_1, # of connection points: 4
#     Node 21, Type 1, BuildingBlock: MIFKUJ_clean_linker_1, # of connection points: 4
#     Node 22, Type 1, BuildingBlock: MIFKUJ_clean_linker_1, # of connection points: 4
#     Node 23, Type 1, BuildingBlock: MIFKUJ_clean_linker_1, # of connection points: 4
#     Node 24, Type 1, BuildingBlock: MIFKUJ_clean_linker_1, # of connection points: 4
#     Node 25, Type 1, BuildingBlock: MIFKUJ_clean_linker_1, # of connection points: 4
#     Node 26, Type 1, BuildingBlock: MIFKUJ_clean_linker_1, # of connection points: 4
#     Node 27, Type 1, BuildingBlock: MIFKUJ_clean_linker_1, # of connection points: 4
#     Node 28, Type 1, BuildingBlock: MIFKUJ_clean_linker_1, # of connection points: 4
#     Node 29, Type 1, BuildingBlock: MIFKUJ_clean_linker_1, # of connection points: 4
#     Node 30, Type 1, BuildingBlock: MIFKUJ_clean_linker_1, # of connection points: 4
#     Node 31, Type 1, BuildingBlock: MIFKUJ_clean_linker_1, # of connection points: 4
#     Node 32, Type 1, BuildingBlock: MIFKUJ_clean_linker_1, # of connection points: 4
#     Node 33, Type 1, BuildingBlock: MIFKUJ_clean_linker_1, # of connection points: 4
#     Node 34, Type 1, BuildingBlock: MIFKUJ_clean_linker_1, # of connection points: 4
#     Node 35, Type 1, BuildingBlock: MIFKUJ_clean_linker_1, # of connection points: 4
#     Edge 36, Type (0, 1), None
#     Edge 37, Type (0, 1), None
#     Edge 38, Type (0, 1), None
#     Edge 39, Type (0, 1), None
#     Edge 40, Type (0, 1), None
#     Edge 41, Type (0, 1), None
#     Edge 42, Type (0, 1), None
#     Edge 43, Type (0, 1), None
#     Edge 44, Type (0, 1), None
#     Edge 45, Type (0, 1), None
#     Edge 46, Type (0, 1), None
#     Edge 47, Type (0, 1), None
#     Edge 48, Type (0, 1), None
#     Edge 49, Type (0, 1), None
#     Edge 50, Type (0, 1), None
#     Edge 51, Type (0, 1), None
#     Edge 52, Type (0, 1), None
#     Edge 53, Type (0, 1), None
#     Edge 54, Type (0, 1), None
#     Edge 55, Type (0, 1), None
#     Edge 56, Type (0, 1), None
#     Edge 57, Type (0, 1), None
#     Edge 58, Type (0, 1), None
#     Edge 59, Type (0, 1), None
#     Edge 60, Type (0, 1), None
#     Edge 61, Type (0, 1), None
#     Edge 62, Type (0, 1), None
#     Edge 63, Type (0, 1), None
#     Edge 64, Type (0, 1), None
#     Edge 65, Type (0, 1), None
#     Edge 66, Type (0, 1), None
#     Edge 67, Type (0, 1), None
#     Edge 68, Type (0, 1), None
#     Edge 69, Type (0, 1), None
#     Edge 70, Type (0, 1), None
#     Edge 71, Type (0, 1), None
#     Edge 72, Type (0, 1), None
#     Edge 73, Type (0, 1), None
#     Edge 74, Type (0, 1), None
#     Edge 75, Type (0, 1), None
#     Edge 76, Type (0, 1), None
#     Edge 77, Type (0, 1), None
#     Edge 78, Type (0, 1), None
#     Edge 79, Type (0, 1), None
#     Edge 80, Type (0, 1), None
#     Edge 81, Type (0, 1), None
#     Edge 82, Type (0, 1), None
#     Edge 83, Type (0, 1), None
#     Edge 84, Type (0, 1), None
#     Edge 85, Type (0, 1), None
#     Edge 86, Type (0, 1), None
#     Edge 87, Type (0, 1), None
#     Edge 88, Type (0, 1), None
#     Edge 89, Type (0, 1), None
#     Edge 90, Type (0, 1), None
#     Edge 91, Type (0, 1), None
#     Edge 92, Type (0, 1), None
#     Edge 93, Type (0, 1), None
#     Edge 94, Type (0, 1), None
#     Edge 95, Type (0, 1), None
#     Edge 96, Type (0, 1), None
#     Edge 97, Type (0, 1), None
#     Edge 98, Type (0, 1), None
#     Edge 99, Type (0, 1), None
#     Edge 100, Type (0, 1), None
#     Edge 101, Type (0, 1), None
#     Edge 102, Type (0, 1), None
#     Edge 103, Type (0, 1), None
#     Edge 104, Type (0, 1), None
#     Edge 105, Type (0, 1), None
#     Edge 106, Type (0, 1), None
#     Edge 107, Type (0, 1), None
# Relax obj value: 0.033
# Max RMSD: 0.125
# Mean RMSD: 0.058
data_MOF--net-ptr--node1-QUQFOY_clean_sbu_3--node2-MIFKUJ_clean_linker_1--edge1-none
_symmetry_space_group_name_H-M    P1
_symmetry_Int_Tables_number       1
_symmetry_cell_setting            triclinic
loop_
_symmetry_equiv_pos_as_xyz
'x, y, z'
_cell_length_a     49.716117
_cell_length_b     50.062643
_cell_length_c     34.085127
_cell_angle_alpha  90.657299
_cell_angle_beta   89.45369
_cell_angle_gamma 120.47255
loop_
_atom_site_label
_atom_site_type_symbol
_atom_site_fract_x
_atom_site_fract_y
_atom_site_fract_z
_atom_type_partial_charge
C0 C 0.92896 0.28948 0.97594 0.0
O1 O 0.91274 0.3014 0.9865 0.0
Cd2 Cd 0.93386 0.35185 0.01491 0.0
O3 O 0.95805 0.3032 0.9832 0.0
Cd4 Cd -0.00179 0.3499 0.01803 0.0
C5 C -0.00765 0.39278 0.94624 0.0
O6 O 0.96477 0.35317 0.06848 0.0
O7 O 0.0122 0.39159 0.06544 0.0
O8 O 0.00974 0.31375 0.04957 0.0
C9 C 0.98577 0.37899 0.08228 0.0
O10 O 0.96603 0.385 0.96188 0.0
C11 C 0.03892 0.32914 0.0433 0.0
O12 O 0.00976 0.38326 0.96003 0.0
O13 O 0.04934 0.35416 0.0241 0.0
C14 C 0.62757 0.69704 0.04154 0.0
O15 O 0.59882 0.68423 0.03301 0.0
Cd16 Cd 0.56937 0.63347 0.00522 0.0
O17 O 0.64314 0.68402 0.03261 0.0
Cd18 Cd 0.63505 0.6372 0.99719 0.0
C19 C 0.58848 0.59356 0.07085 0.0
O20 O 0.59732 0.63292 0.94815 0.0
O21 O 0.60557 0.59461 0.95173 0.0
O22 O 0.68339 0.67144 0.96305 0.0
C23 C 0.59225 0.60708 0.93458 0.0
O24 O 0.56886 0.6002 0.05714 0.0
C25 C 0.69608 0.65551 0.97009 0.0
O26 O 0.61535 0.60427 0.05528 0.0
O27 O 0.68054 0.63131 0.99065 0.0
C28 C 0.28805 0.92569 0.04023 0.0
O29 O 0.30081 0.91004 0.03086 0.0
Cd30 Cd 0.35175 0.93175 0.00343 0.0
O31 O 0.30145 0.95452 0.03283 0.0
Cd32 Cd 0.34887 -0.00511 -0.00045 0.0
C33 C 0.39244 0.99051 0.07145 0.0
O34 O 0.35165 0.96133 0.94944 0.0
O35 O 0.39047 0.00826 0.9517 0.0
O36 O 0.31376 0.00823 0.96846 0.0
C37 C 0.37747 0.98185 0.93518 0.0
O38 O 0.3849 0.96422 0.05649 0.0
C39 C 0.33003 0.03707 0.97558 0.0
O40 O 0.38254 0.00731 0.05714 0.0
O41 O 0.35498 0.04638 0.99499 0.0
C42 C 0.92126 0.62479 0.97798 0.0
O43 O 0.90561 0.59628 0.98684 0.0
Cd44 Cd 0.92869 0.56869 0.01373 0.0
O45 O 0.95015 0.6409 0.9862 0.0
Cd46 Cd -0.00934 0.6355 0.02033 0.0
C47 C -0.01127 0.58923 0.94674 0.0
O48 O 0.95777 0.59758 0.06986 0.0
O49 O 0.00584 0.60889 0.06621 0.0
O50 O 0.00289 0.68355 0.05306 0.0
C51 C 0.97954 0.59409 0.08314 0.0
O52 O 0.96221 0.56941 0.96069 0.0
C53 C 0.03184 0.69736 0.04515 0.0
O54 O 0.0048 0.616 0.96225 0.0
O55 O 0.0416 0.68243 0.025 0.0
C56 C 0.29177 0.35803 0.04406 0.0
O57 O 0.30456 0.38646 0.03508 0.0
Cd58 Cd 0.35475 0.41524 0.00569 0.0
O59 O 0.30456 0.34228 0.03502 0.0
Cd60 Cd 0.35073 0.34868 -0.00085 0.0
C61 C 0.3955 0.39672 0.07133 0.0
O62 O 0.35251 0.38473 0.95049 0.0
O63 O 0.39129 0.37682 0.94996 0.0
O64 O 0.31469 0.29938 0.96871 0.0
C65 C 0.37786 0.38996 0.93476 0.0
O66 O 0.38842 0.4158 0.05728 0.0
C67 C 0.33119 0.28711 0.97468 0.0
O68 O 0.38493 0.36985 0.05627 0.0
O69 O 0.35671 0.30338 0.99294 0.0
C70 C 0.69914 0.05842 0.97727 0.0
O71 O 0.68696 0.07431 0.98804 0.0
Cd72 Cd 0.63601 0.053 0.01598 0.0
O73 O 0.6854 0.02948 0.98408 0.0
Cd74 Cd 0.63804 0.9898 0.01865 0.0
C75 C 0.59471 -0.00468 0.94682 0.0
O76 O 0.63381 0.02215 0.06988 0.0
O77 O 0.59483 0.97543 0.06383 0.0
O78 O 0.67325 0.97784 0.05244 0.0
C79 C 0.6074 0.00105 0.08224 0.0
O80 O 0.6024 0.02136 0.96273 0.0
C81 C 0.65797 0.94896 0.04529 0.0
O82 O 0.60457 0.97818 0.96032 0.0
O83 O 0.63358 0.93896 0.02442 0.0
C84 C 0.59511 0.62298 0.3093 0.0
O85 O 0.57879 0.63483 0.31973 0.0
Cd86 Cd 0.59976 0.68523 0.34821 0.0
O87 O 0.62417 0.63675 0.31675 0.0
Cd88 Cd 0.66416 0.68343 0.35174 0.0
C89 C 0.65841 0.72623 0.27977 0.0
O90 O 0.63047 0.68647 0.40202 0.0
O91 O 0.67786 0.72496 0.3993 0.0
O92 O 0.67577 0.64729 0.38317 0.0
C93 C 0.65137 0.71225 0.41599 0.0
O94 O 0.63203 0.71841 0.29524 0.0
C95 C 0.70496 0.66276 0.37697 0.0
O96 O 0.67581 0.71677 0.29374 0.0
O97 O 0.71535 0.68784 0.35792 0.0
C98 C 0.29424 0.03037 0.37559 0.0
O99 O 0.26553 0.01761 0.36688 0.0
Cd100 Cd 0.23615 0.96687 0.33902 0.0
O101 O 0.30982 0.01735 0.36675 0.0
Cd102 Cd 0.30189 0.97063 0.33123 0.0
C103 C 0.2552 0.927 0.40481 0.0
O104 O 0.26421 0.9663 0.28208 0.0
O105 O 0.2725 0.92801 0.28577 0.0
O106 O 0.35027 0.00502 0.29726 0.0
C107 C 0.25917 0.94045 0.26856 0.0
O108 O 0.23562 0.93366 0.39102 0.0
C109 C 0.36301 0.98913 0.30427 0.0
O110 O 0.2821 0.93768 0.38932 0.0
O111 O 0.34747 0.96487 0.32473 0.0
C112 C 0.95429 0.25828 0.37289 0.0
O113 O 0.96707 0.24262 0.36369 0.0
Cd114 Cd 0.01797 0.26409 0.33621 0.0
O115 O 0.96768 0.28709 0.36534 0.0
Cd116 Cd 0.01522 0.32728 0.33203 0.0
C117 C 0.0589 0.32298 0.40392 0.0
O118 O 0.01789 0.29353 0.28205 0.0
O119 O 0.05678 0.34043 0.2842 0.0
O120 O 0.98055 0.34111 0.30067 0.0
C121 C 0.04372 0.314 0.26775 0.0
O122 O 0.05132 0.29664 0.38909 0.0
C123 C -0.00298 0.36992 0.30787 0.0
O124 O 0.04896 0.33973 0.38955 0.0
O125 O 0.02184 0.37897 0.32748 0.0
C126 C 0.58745 0.95771 0.31182 0.0
O127 O 0.57167 0.92917 0.3205 0.0
Cd128 Cd 0.59453 0.90141 0.34749 0.0
O129 O 0.6163 0.97371 0.32026 0.0
Cd130 Cd 0.65654 0.968 0.35456 0.0
C131 C 0.65472 0.92193 0.2808 0.0
O132 O 0.62335 0.93007 0.40392 0.0
O133 O 0.67138 0.94121 0.40058 0.0
O134 O 0.66895 0.01613 0.38723 0.0
C135 C 0.64501 0.92649 0.41738 0.0
O136 O 0.62812 0.9021 0.29456 0.0
C137 C 0.69791 0.0298 0.37938 0.0
O138 O 0.67079 0.94862 0.29651 0.0
O139 O 0.70758 0.01475 0.35934 0.0
C140 C 0.95789 0.69074 0.37627 0.0
O141 O 0.97073 0.71919 0.36733 0.0
Cd142 Cd 0.02104 0.74813 0.33831 0.0
O143 O 0.97075 0.67502 0.36743 0.0
Cd144 Cd 0.01726 0.68173 0.33198 0.0
C145 C 0.06177 0.72988 0.40428 0.0
O146 O 0.01912 0.71773 0.28316 0.0
O147 O 0.05802 0.71001 0.28306 0.0
O148 O 0.98165 0.6324 0.30126 0.0
C149 C 0.04457 0.72305 0.26765 0.0
O150 O 0.05466 0.74891 0.39011 0.0
C151 C -0.0017 0.62029 0.30739 0.0
O152 O 0.05128 0.70301 0.38929 0.0
O153 O 0.02365 0.63665 0.32594 0.0
C154 C 0.366 0.39167 0.31056 0.0
O155 O 0.35374 0.40752 0.32125 0.0
Cd156 Cd 0.30286 0.38624 0.34937 0.0
O157 O 0.35235 0.36275 0.31748 0.0
Cd158 Cd 0.30504 0.32309 0.35215 0.0
C159 C 0.26136 0.32833 0.28054 0.0
O160 O 0.30084 0.35552 0.40329 0.0
O161 O 0.26192 0.30875 0.39743 0.0
O162 O 0.34026 0.31116 0.38601 0.0
C163 C 0.27447 0.33443 0.41574 0.0
O164 O 0.26904 0.35438 0.2964 0.0
C165 C 0.32498 0.28228 0.37888 0.0
O166 O 0.27138 0.3113 0.29398 0.0
O167 O 0.3006 0.27227 0.35798 0.0
C168 C 0.26112 0.95595 0.6436 0.0
O169 O 0.24482 0.96783 0.65398 0.0
Cd170 Cd 0.26573 0.01823 0.68245 0.0
O171 O 0.29019 0.96971 0.65105 0.0
Cd172 Cd 0.33012 0.01649 0.68601 0.0
C173 C 0.32435 0.05931 0.61406 0.0
O174 O 0.29644 0.01958 0.73633 0.0
O175 O 0.3438 0.05811 0.73342 0.0
O176 O 0.34216 0.9807 0.71759 0.0
C177 C 0.31735 0.0454 0.7502 0.0
O178 O 0.29797 0.05151 0.62951 0.0
C179 C 0.37132 -0.00369 0.71119 0.0
O180 O 0.34172 0.04982 0.62803 0.0
O181 O 0.38147 0.02128 0.69196 0.0
C182 C 0.96097 0.36346 0.70834 0.0
O183 O 0.93224 0.35068 0.69975 0.0
Cd184 Cd 0.90283 0.29991 0.67195 0.0
O185 O 0.97654 0.35044 0.69942 0.0
Cd186 Cd 0.96851 0.30369 0.66393 0.0
C187 C 0.92199 0.26003 0.73758 0.0
O188 O 0.93075 0.29931 0.61488 0.0
O189 O 0.9391 0.26106 0.61854 0.0
O190 O 0.01675 0.33809 0.62973 0.0
C191 C 0.92574 0.27348 0.60136 0.0
O192 O 0.90238 0.26669 0.72387 0.0
C193 C 0.02957 0.32226 0.6367 0.0
O194 O 0.94886 0.27073 0.72202 0.0
O195 O 0.01413 0.29804 0.65725 0.0
C196 C 0.62065 0.59138 0.70608 0.0
O197 O 0.63329 0.57559 0.69685 0.0
Cd198 Cd 0.68422 0.59693 0.66941 0.0
O199 O 0.63417 0.6202 0.69853 0.0
Cd200 Cd 0.68168 0.66034 0.66521 0.0
C201 C 0.72514 0.65584 0.73721 0.0
O202 O 0.68435 0.62655 0.61529 0.0
O203 O 0.7232 0.67348 0.61742 0.0
O204 O 0.64685 0.67398 0.63397 0.0
C205 C 0.71019 0.64703 0.60102 0.0
O206 O 0.71749 0.62948 0.72238 0.0
C207 C 0.66321 0.7028 0.6412 0.0
O208 O 0.71532 0.67267 0.72278 0.0
O209 O 0.6881 0.71196 0.66069 0.0
C210 C 0.25404 0.29147 0.64518 0.0
O211 O 0.23822 0.26294 0.65389 0.0
Cd212 Cd 0.26098 0.23512 0.68097 0.0
O213 O 0.28288 0.30744 0.65365 0.0
Cd214 Cd 0.32304 0.30171 0.68809 0.0
C215 C 0.32126 0.25558 0.61443 0.0
O216 O 0.2898 0.26375 0.73742 0.0
O217 O 0.33784 0.2749 0.73412 0.0
O218 O 0.33537 0.34981 0.72077 0.0
C219 C 0.31146 0.26015 0.75087 0.0
O220 O 0.29464 0.23577 0.62815 0.0
C221 C 0.36433 0.36352 0.71292 0.0
O222 O 0.33733 0.28228 0.63012 0.0
O223 O 0.37405 0.34849 0.69291 0.0
C224 C 0.62497 0.02459 0.71 0.0
O225 O 0.63797 0.05303 0.70092 0.0
Cd226 Cd 0.68825 0.08161 0.67177 0.0
O227 O 0.63764 0.00867 0.70125 0.0
Cd228 Cd 0.6839 0.01477 0.66579 0.0
C229 C 0.72867 0.06302 0.73789 0.0
O230 O 0.68591 0.05076 0.61695 0.0
O231 O 0.72456 0.04268 0.61654 0.0
O232 O 0.64787 0.96539 0.63547 0.0
C233 C 0.71124 0.0559 0.60128 0.0
O234 O 0.72171 0.08213 0.72363 0.0
C235 C 0.66435 0.95311 0.64161 0.0
O236 O 0.71803 0.03609 0.723 0.0
O237 O 0.68982 0.96939 0.65997 0.0
C238 C 0.03168 0.72439 0.64322 0.0
O239 O 0.01932 0.74014 0.65393 0.0
Cd240 Cd 0.96839 0.71863 0.68192 0.0
O241 O 0.01811 0.69546 0.65006 0.0
Cd242 Cd 0.97085 0.65557 0.68459 0.0
C243 C 0.92728 0.66079 0.61283 0.0
O244 O 0.96661 0.68794 0.73574 0.0
O245 O 0.92775 0.64111 0.73002 0.0
O246 O 0.00632 0.64388 0.71825 0.0
C247 C 0.94029 0.66681 0.74829 0.0
O248 O 0.93485 0.6868 0.62874 0.0
C249 C -0.0089 0.61498 0.71123 0.0
O250 O 0.93728 0.64377 0.62632 0.0
O251 O 0.96664 0.60485 0.69047 0.0
H252 H 0.11961 0.34332 0.17185 0.0
H253 H 0.08882 0.35435 0.2185 0.0
H254 H 0.03507 0.25717 0.24774 0.0
H255 H 0.06662 0.24638 0.20135 0.0
H256 H 0.13738 0.28256 0.21121 0.0
H257 H 0.13697 0.3461 0.0742 0.0
H258 H 0.10258 0.3603 0.04173 0.0
H259 H 0.0224 0.27564 0.08255 0.0
H260 H 0.05702 0.26115 0.1143 0.0
H261 H 0.21014 0.27588 0.11099 0.0
H262 H 0.26116 0.30053 0.07792 0.0
H263 H 0.2539 0.38172 0.05681 0.0
H264 H 0.2034 0.35704 0.08946 0.0
H265 H 0.15091 0.3046 0.06874 0.0
H266 H 0.17847 0.25395 0.20598 0.0
H267 H 0.21855 0.26896 0.25696 0.0
H268 H 0.25595 0.36522 0.22769 0.0
H269 H 0.21647 0.35019 0.17712 0.0
C270 C 0.09508 0.29402 0.18306 0.0
C271 C 0.10077 0.32432 0.18776 0.0
C272 C 0.08335 0.33061 0.21453 0.0
C273 C 0.05973 0.30663 0.23673 0.0
C274 C 0.0531 0.27603 0.23078 0.0
C275 C 0.071 0.26981 0.20441 0.0
C276 C 0.11707 0.289 0.15932 0.0
C277 C 0.13973 0.2859 0.17967 0.0
C278 C 0.12081 0.29533 0.1187 0.0
C279 C 0.0996 0.30253 0.09681 0.0
C280 C 0.112 0.33025 0.07555 0.0
C281 C 0.09231 0.33845 0.05709 0.0
C282 C 0.0598 0.31917 0.05969 0.0
C283 C 0.04739 0.29104 0.08011 0.0
C284 C 0.06712 0.28276 0.09842 0.0
C285 C 0.20301 0.31455 0.10218 0.0
C286 C 0.2197 0.29896 0.09917 0.0
C287 C 0.24872 0.31305 0.08025 0.0
C288 C 0.26144 0.34301 0.0646 0.0
C289 C 0.24477 0.35864 0.06843 0.0
C290 C 0.21582 0.3445 0.08691 0.0
C291 C 0.17209 0.30029 0.12119 0.0
C292 C 0.14761 0.29914 0.09978 0.0
C293 C 0.16804 0.29315 0.16156 0.0
C294 C 0.19483 0.30095 0.18745 0.0
C295 C 0.19589 0.27818 0.20999 0.0
C296 C 0.21872 0.28676 0.23902 0.0
C297 C 0.24018 0.31825 0.24644 0.0
C298 C 0.23962 0.34078 0.22281 0.0
C299 C 0.21724 0.33222 0.19362 0.0
H300 H 0.73262 0.91467 0.21385 0.0
H301 H 0.71511 0.93758 0.26513 0.0
H302 H 0.62126 0.88567 0.21988 0.0
H303 H 0.63883 0.86362 0.16863 0.0
H304 H 0.70171 0.84738 0.21276 0.0
H305 H 0.7229 0.92948 0.12191 0.0
H306 H 0.70943 0.96454 0.08974 0.0
H307 H 0.62735 0.88585 0.04028 0.0
H308 H 0.64052 0.851 0.07304 0.0
H309 H 0.62938 0.78536 0.08689 0.0
H310 H 0.60456 0.73551 0.05323 0.0
H311 H 0.68534 0.72703 0.07617 0.0
H312 H 0.71018 0.7774 0.11024 0.0
H313 H 0.68215 0.83784 0.06965 0.0
H314 H 0.63576 0.76891 0.17491 0.0
H315 H 0.6211 0.72988 0.22545 0.0
H316 H 0.718 0.76959 0.2571 0.0
H317 H 0.73263 0.80919 0.20618 0.0
C318 C 0.6871 0.88782 0.18719 0.0
C319 C 0.70854 0.90915 0.21429 0.0
C320 C 0.69853 0.92211 0.24351 0.0
C321 C 0.66681 0.91307 0.24653 0.0
C322 C 0.6458 0.89284 0.21828 0.0
C323 C 0.65588 0.8805 0.18876 0.0
C324 C 0.69505 0.86852 0.16205 0.0
C325 C 0.69894 0.84601 0.1811 0.0
C326 C 0.68973 0.86604 0.12113 0.0
C327 C 0.68279 0.8876 0.09995 0.0
C328 C 0.70206 0.9198 0.10407 0.0
C329 C 0.69438 0.93979 0.08551 0.0
C330 C 0.66732 0.92792 0.06242 0.0
C331 C 0.64843 0.89571 0.05767 0.0
C332 C 0.65604 0.87577 0.07631 0.0
C333 C 0.67172 0.78515 0.10071 0.0
C334 C 0.64187 0.77288 0.08445 0.0
C335 C 0.62763 0.74428 0.06538 0.0
C336 C 0.64301 0.72737 0.0619 0.0
C337 C 0.67298 0.73964 0.07822 0.0
C338 C 0.68717 0.76831 0.09774 0.0
C339 C 0.68581 0.81547 0.1211 0.0
C340 C 0.68693 0.84024 0.10089 0.0
C341 C 0.69264 0.81861 0.16161 0.0
C342 C 0.68531 0.79165 0.1864 0.0
C343 C 0.65399 0.76868 0.1918 0.0
C344 C 0.64562 0.74659 0.22103 0.0
C345 C 0.66841 0.74689 0.24542 0.0
C346 C 0.70001 0.76877 0.23858 0.0
C347 C 0.70838 0.79131 0.20953 0.0
H348 H 0.06452 0.81181 0.20119 0.0
H349 H 0.03483 0.77037 0.2488 0.0
H350 H 0.08873 0.72765 0.21637 0.0
H351 H 0.11766 0.76855 0.16851 0.0
H352 H 0.13479 0.84855 0.207 0.0
H353 H 0.0529 0.78619 0.11451 0.0
H354 H 0.01692 0.73577 0.085 0.0
H355 H 0.0953 0.72968 0.04018 0.0
H356 H 0.13105 0.77955 0.07049 0.0
H357 H 0.19911 0.83762 0.08318 0.0
H358 H 0.24994 0.86381 0.05135 0.0
H359 H 0.25635 0.95222 0.07281 0.0
H360 H 0.20496 0.92551 0.10485 0.0
H361 H 0.14568 0.83502 0.06456 0.0
H362 H 0.21366 0.86218 0.17538 0.0
H363 H 0.2539 0.89282 0.22378 0.0
H364 H 0.21378 0.95106 0.24158 0.0
H365 H 0.17314 0.91982 0.19328 0.0
C366 C 0.09292 0.79292 0.1812 0.0
C367 C 0.06936 0.7931 0.20386 0.0
C368 C 0.05251 0.7695 0.23094 0.0
C369 C 0.0597 0.74599 0.2363 0.0
C370 C 0.08284 0.74558 0.2129 0.0
C371 C 0.0992 0.76876 0.18543 0.0
C372 C 0.11382 0.81948 0.15635 0.0
C373 C 0.1365 0.84634 0.17548 0.0
C374 C 0.11663 0.8157 0.11566 0.0
C375 C 0.09465 0.7866 0.09487 0.0
C376 C 0.06229 0.77402 0.09822 0.0
C377 C 0.04178 0.74527 0.08125 0.0
C378 C 0.05334 0.72876 0.06042 0.0
C379 C 0.08571 0.74188 0.05598 0.0
C380 C 0.10617 0.77049 0.07314 0.0
C381 C 0.19824 0.87966 0.09602 0.0
C382 C 0.21135 0.86264 0.08074 0.0
C383 C 0.24051 0.87768 0.06276 0.0
C384 C 0.25716 0.91008 0.05951 0.0
C385 C 0.244 0.92718 0.07479 0.0
C386 C 0.21474 0.91204 0.0931 0.0
C387 C 0.16761 0.86286 0.11583 0.0
C388 C 0.14296 0.83824 0.09558 0.0
C389 C 0.16406 0.86741 0.15606 0.0
C390 C 0.19075 0.88904 0.18058 0.0
C391 C 0.21395 0.88195 0.18912 0.0
C392 C 0.23674 0.89931 0.21696 0.0
C393 C 0.23681 0.92417 0.23656 0.0
C394 C 0.21429 0.93205 0.2268 0.0
C395 C 0.19116 0.91434 0.19926 0.0
H396 H 0.24841 0.16975 0.82007 0.0
H397 H 0.25601 0.20977 0.77284 0.0
H398 H 0.35451 0.26042 0.79948 0.0
H399 H 0.34662 0.22088 0.84706 0.0
H400 H 0.28657 0.13862 0.81023 0.0
H401 H 0.26402 0.19745 0.9057 0.0
H402 H 0.27745 0.24709 0.93619 0.0
H403 H 0.36401 0.25701 0.97763 0.0
H404 H 0.35073 0.2077 0.94645 0.0
H405 H 0.35044 0.13616 0.94797 0.0
H406 H 0.36294 0.10031 0.97971 0.0
H407 H 0.2772 0.02294 0.9354 0.0
H408 H 0.26457 0.05893 0.90438 0.0
H409 H 0.30705 0.15009 0.95338 0.0
H410 H 0.34875 0.12027 0.84779 0.0
H411 H 0.35885 0.08962 0.79986 0.0
H412 H 0.26075 0.03785 0.77123 0.0
H413 H 0.25093 0.06929 0.81868 0.0
C414 C 0.29692 0.19261 0.83715 0.0
C415 C 0.27145 0.18987 0.81625 0.0
C416 C 0.27584 0.21267 0.78938 0.0
C417 C 0.30589 0.23802 0.78242 0.0
C418 C 0.33114 0.24104 0.80417 0.0
C419 C 0.32665 0.21861 0.83149 0.0
C420 C 0.29357 0.16687 0.86144 0.0
C421 C 0.28979 0.14048 0.84182 0.0
C422 C 0.29991 0.17046 0.9021 0.0
C423 C 0.30651 0.19905 0.92345 0.0
C424 C 0.28584 0.21031 0.92142 0.0
C425 C 0.2935 0.2386 0.93899 0.0
C426 C 0.32188 0.256 0.95911 0.0
C427 C 0.34199 0.24413 0.96233 0.0
C428 C 0.33437 0.2159 0.94463 0.0
C429 C 0.30672 0.10019 0.92348 0.0
C430 C 0.3341 0.11148 0.94563 0.0
C431 C 0.34126 0.09098 0.96367 0.0
C432 C 0.32116 0.05883 0.95982 0.0
C433 C 0.29325 0.0476 0.93872 0.0
C434 C 0.28606 0.06812 0.92081 0.0
C435 C 0.30041 0.12196 0.90202 0.0
C436 C 0.30235 0.14747 0.92213 0.0
C437 C 0.29441 0.11868 0.86128 0.0
C438 C 0.29908 0.09681 0.83685 0.0
C439 C 0.32935 0.10193 0.83169 0.0
C440 C 0.33511 0.08457 0.80418 0.0
C441 C 0.3106 0.06152 0.78179 0.0
C442 C 0.28003 0.05543 0.78826 0.0
C443 C 0.27438 0.07329 0.81527 0.0
H444 H 0.81013 0.06816 0.81014 0.0
H445 H 0.77029 0.04489 0.75842 0.0
H446 H 0.73417 0.10379 0.79436 0.0
H447 H 0.77333 0.12641 0.84566 0.0
H448 H 0.85046 0.13774 0.80617 0.0
H449 H 0.78025 0.05824 0.90725 0.0
H450 H 0.72955 0.03161 0.94123 0.0
H451 H 0.7376 0.12025 0.96659 0.0
H452 H 0.78756 0.14629 0.93296 0.0
H453 H 0.8411 0.20056 0.9322 0.0
H454 H 0.86676 0.25049 0.96543 0.0
H455 H 0.95663 0.26007 0.93978 0.0
H456 H 0.93041 0.20949 0.90617 0.0
H457 H 0.84013 0.14902 0.94909 0.0
H458 H 0.85879 0.21339 0.84507 0.0
H459 H 0.88013 0.25249 0.79404 0.0
H460 H 0.9424 0.22029 0.75759 0.0
H461 H 0.92043 0.18054 0.80902 0.0
C462 C 0.79424 0.09853 0.83214 0.0
C463 C 0.7929 0.0752 0.80756 0.0
C464 C 0.7703 0.06208 0.77803 0.0
C465 C 0.74946 0.07285 0.77221 0.0
C466 C 0.75011 0.09524 0.79799 0.0
C467 C 0.77222 0.10789 0.82767 0.0
C468 C 0.82163 0.11764 0.85718 0.0
C469 C 0.84899 0.13947 0.83782 0.0
C470 C 0.81841 0.12119 0.89784 0.0
C471 C 0.78784 0.10421 0.9181 0.0
C472 C 0.77099 0.07177 0.92029 0.0
C473 C 0.74212 0.05667 0.93973 0.0
C474 C 0.72963 0.07386 0.9568 0.0
C475 C 0.74651 0.10628 0.95398 0.0
C476 C 0.77524 0.12124 0.93493 0.0
C477 C 0.88387 0.20114 0.91724 0.0
C478 C 0.86635 0.21325 0.93399 0.0
C479 C 0.88107 0.24194 0.9528 0.0
C480 C 0.91373 0.25919 0.95545 0.0
C481 C 0.93139 0.2472 0.9384 0.0
C482 C 0.91653 0.21839 0.91918 0.0
C483 C 0.8672 0.17059 0.89734 0.0
C484 C 0.8428 0.14614 0.91794 0.0
C485 C 0.87042 0.16724 0.85665 0.0
C486 C 0.88845 0.19446 0.83125 0.0
C487 C 0.87773 0.21533 0.82697 0.0
C488 C 0.88968 0.23743 0.79746 0.0
C489 C 0.91271 0.23922 0.77166 0.0
C490 C 0.92472 0.21944 0.77721 0.0
C491 C 0.91232 0.19686 0.80656 0.0
H492 H 0.76417 0.63551 0.84769 0.0
H493 H 0.72518 0.62059 0.79645 0.0
H494 H 0.77228 0.71477 0.75452 0.0
H495 H 0.81206 0.72963 0.80588 0.0
H496 H 0.84716 0.6978 0.80692 0.0
H497 H 0.77519 0.63482 0.94338 0.0
H498 H 0.72622 0.62296 0.9748 0.0
H499 H 0.73519 0.70686 0.92739 0.0
H500 H 0.78476 0.71904 0.89664 0.0
H501 H 0.92237 0.70616 0.91151 0.0
H502 H 0.94852 0.68263 0.94527 0.0
H503 H 0.85905 0.59989 0.96505 0.0
H504 H 0.83335 0.62346 0.93148 0.0
H505 H 0.83109 0.67475 0.94905 0.0
H506 H 0.91855 0.73168 0.82344 0.0
H507 H 0.95082 0.72274 0.77618 0.0
H508 H 0.89143 0.6239 0.79136 0.0
H509 H 0.85976 0.63306 0.83885 0.0
C510 C 0.79079 0.68375 0.83081 0.0
C511 C 0.76568 0.65321 0.82825 0.0
C512 C 0.74357 0.64464 0.79876 0.0
C513 C 0.74592 0.66652 0.77149 0.0
C514 C 0.76994 0.69756 0.77541 0.0
C515 C 0.79258 0.70605 0.80463 0.0
C516 C 0.81719 0.69022 0.85664 0.0
C517 C 0.84436 0.69418 0.83839 0.0
C518 C 0.81278 0.68408 0.89731 0.0
C519 C 0.78372 0.67788 0.91766 0.0
C520 C 0.76695 0.65099 0.94028 0.0
C521 C 0.73886 0.64414 0.95812 0.0
C522 C 0.72686 0.66395 0.95351 0.0
C523 C 0.74387 0.69113 0.93141 0.0
C524 C 0.77211 0.69806 0.9137 0.0
C525 C 0.87598 0.66661 0.91924 0.0
C526 C 0.90852 0.68299 0.92321 0.0
C527 C 0.92335 0.66952 0.94257 0.0
C528 C 0.90581 0.63939 0.95791 0.0
C529 C 0.87324 0.6231 0.95364 0.0
C530 C 0.8585 0.63662 0.93461 0.0
C531 C 0.85955 0.67995 0.8986 0.0
C532 C 0.83477 0.68026 0.91805 0.0
C533 C 0.86491 0.68783 0.85852 0.0
C534 C 0.88709 0.68303 0.8348 0.0
C535 C 0.91303 0.70817 0.81716 0.0
C536 C 0.93134 0.70302 0.79021 0.0
C537 C 0.92344 0.67261 0.77995 0.0
C538 C 0.89795 0.64755 0.79858 0.0
C539 C 0.88 0.65274 0.82588 0.0
H540 H 0.786 0.67653 0.50496 0.0
H541 H 0.75531 0.68749 0.55185 0.0
H542 H 0.70151 0.59024 0.58072 0.0
H543 H 0.73295 0.57951 0.53408 0.0
H544 H 0.80371 0.61548 0.54357 0.0
H545 H 0.80307 0.67956 0.40723 0.0
H546 H 0.76862 0.69392 0.37523 0.0
H547 H 0.6885 0.60916 0.41594 0.0
H548 H 0.72317 0.59453 0.44724 0.0
H549 H 0.87608 0.60874 0.44322 0.0
H550 H 0.92711 0.63325 0.41018 0.0
H551 H 0.91997 0.71443 0.3885 0.0
H552 H 0.86948 0.68992 0.42114 0.0
H553 H 0.81687 0.63791 0.4012 0.0
H554 H 0.84424 0.58668 0.53828 0.0
H555 H 0.88421 0.60149 0.58936 0.0
H556 H 0.92247 0.69778 0.55958 0.0
H557 H 0.8831 0.68296 0.50892 0.0
C558 C 0.76144 0.62719 0.51595 0.0
C559 C 0.76718 0.65749 0.52085 0.0
C560 C 0.74981 0.66375 0.54777 0.0
C561 C 0.7262 0.63972 0.56992 0.0
C562 C 0.71954 0.60913 0.5638 0.0
C563 C 0.73738 0.60296 0.53728 0.0
C564 C 0.78332 0.62218 0.49196 0.0
C565 C 0.80598 0.61891 0.51205 0.0
C566 C 0.78696 0.62862 0.45137 0.0
C567 C 0.76572 0.63594 0.42976 0.0
C568 C 0.77809 0.66373 0.40867 0.0
C569 C 0.75838 0.67202 0.39048 0.0
C570 C 0.72587 0.65275 0.39318 0.0
C571 C 0.71349 0.62456 0.41344 0.0
C572 C 0.73325 0.61619 0.43148 0.0
C573 C 0.86901 0.64743 0.43416 0.0
C574 C 0.88566 0.63179 0.43127 0.0
C575 C 0.91469 0.64579 0.41236 0.0
C576 C 0.92746 0.67572 0.3966 0.0
C577 C 0.9108 0.69137 0.40022 0.0
C578 C 0.88185 0.67732 0.4187 0.0
C579 C 0.83816 0.63334 0.45339 0.0
C580 C 0.81366 0.63239 0.43222 0.0
C581 C 0.83421 0.6261 0.49374 0.0
C582 C 0.86103 0.6337 0.51948 0.0
C583 C 0.86183 0.61087 0.54217 0.0
C584 C 0.8846 0.61933 0.57127 0.0
C585 C 0.90625 0.65079 0.57859 0.0
C586 C 0.90598 0.67337 0.55477 0.0
C587 C 0.88367 0.66492 0.52551 0.0
H588 H 0.39914 0.24796 0.54801 0.0
H589 H 0.38163 0.27104 0.59905 0.0
H590 H 0.28788 0.21936 0.55344 0.0
H591 H 0.30545 0.19714 0.50242 0.0
H592 H 0.36799 0.18062 0.54704 0.0
H593 H 0.38968 0.26276 0.4559 0.0
H594 H 0.37635 0.29785 0.4235 0.0
H595 H 0.29432 0.21918 0.37394 0.0
H596 H 0.30734 0.18431 0.40692 0.0
H597 H 0.29597 0.11864 0.42102 0.0
H598 H 0.27122 0.06885 0.38724 0.0
H599 H 0.35189 0.06025 0.41054 0.0
H600 H 0.37665 0.11057 0.44474 0.0
H601 H 0.34893 0.17109 0.40383 0.0
H602 H 0.30201 0.10232 0.50926 0.0
H603 H 0.28716 0.06324 0.55979 0.0
H604 H 0.384 0.10252 0.59146 0.0
H605 H 0.39882 0.14218 0.54058 0.0
C606 C 0.35367 0.22121 0.52118 0.0
C607 C 0.37509 0.24253 0.5483 0.0
C608 C 0.36507 0.25559 0.57739 0.0
C609 C 0.33338 0.24666 0.58025 0.0
C610 C 0.3124 0.22645 0.55196 0.0
C611 C 0.32249 0.21401 0.52257 0.0
C612 C 0.36159 0.20182 0.49619 0.0
C613 C 0.36533 0.17925 0.51537 0.0
C614 C 0.35641 0.19932 0.45524 0.0
C615 C 0.34958 0.2209 0.4339 0.0
C616 C 0.36888 0.2531 0.43799 0.0
C617 C 0.36129 0.2731 0.4193 0.0
C618 C 0.33427 0.26123 0.39611 0.0
C619 C 0.31536 0.22903 0.3914 0.0
C620 C 0.32289 0.20908 0.41017 0.0
C621 C 0.33826 0.11837 0.43503 0.0
C622 C 0.30845 0.10614 0.41865 0.0
C623 C 0.29424 0.07757 0.39951 0.0
C624 C 0.30963 0.06065 0.39607 0.0
C625 C 0.33953 0.07287 0.41255 0.0
C626 C 0.35369 0.10151 0.43214 0.0
C627 C 0.35234 0.14869 0.4554 0.0
C628 C 0.35361 0.17349 0.43509 0.0
C629 C 0.35902 0.15183 0.49595 0.0
C630 C 0.35155 0.12485 0.52078 0.0
C631 C 0.32018 0.10199 0.52617 0.0
C632 C 0.3117 0.07987 0.55538 0.0
C633 C 0.33442 0.08003 0.57976 0.0
C634 C 0.36606 0.10181 0.57295 0.0
C635 C 0.37454 0.12438 0.54392 0.0
H636 H 0.73123 0.14468 0.53483 0.0
H637 H 0.70159 0.10328 0.5825 0.0
H638 H 0.7554 0.06049 0.54998 0.0
H639 H 0.78429 0.10136 0.50206 0.0
H640 H 0.80151 0.1815 0.54024 0.0
H641 H 0.71933 0.11893 0.44824 0.0
H642 H 0.68319 0.06841 0.4191 0.0
H643 H 0.76136 0.06198 0.37416 0.0
H644 H 0.79726 0.11196 0.40409 0.0
H645 H 0.86541 0.17027 0.41609 0.0
H646 H 0.91617 0.19642 0.38409 0.0
H647 H 0.92259 0.28485 0.4054 0.0
H648 H 0.87127 0.25818 0.4376 0.0
H649 H 0.81189 0.1675 0.39779 0.0
H650 H 0.88035 0.19523 0.50815 0.0
H651 H 0.92061 0.22595 0.55648 0.0
H652 H 0.88025 0.28397 0.57445 0.0
H653 H 0.83959 0.25264 0.52624 0.0
C654 C 0.75959 0.12575 0.51479 0.0
C655 C 0.73607 0.12597 0.53751 0.0
C656 C 0.71925 0.10239 0.56462 0.0
C657 C 0.72641 0.07886 0.56995 0.0
C658 C 0.74953 0.07843 0.54653 0.0
C659 C 0.76587 0.1016 0.51903 0.0
C660 C 0.78038 0.15224 0.48978 0.0
C661 C 0.80311 0.17919 0.50871 0.0
C662 C 0.78304 0.14834 0.44909 0.0
C663 C 0.76098 0.11918 0.4285 0.0
C664 C 0.72863 0.10666 0.432 0.0
C665 C 0.70805 0.07785 0.41525 0.0
C666 C 0.7195 0.06122 0.39449 0.0
C667 C 0.75185 0.07427 0.38991 0.0
C668 C 0.77239 0.10294 0.40686 0.0
C669 C 0.86455 0.21232 0.42888 0.0
C670 C 0.87763 0.19529 0.41357 0.0
C671 C 0.90676 0.2103 0.3955 0.0
C672 C 0.9234 0.24271 0.39217 0.0
C673 C 0.91025 0.25982 0.40744 0.0
C674 C 0.88102 0.2447 0.42585 0.0
C675 C 0.83398 0.19555 0.44887 0.0
C676 C 0.80929 0.17083 0.42881 0.0
C677 C 0.83057 0.20023 0.4891 0.0
C678 C 0.85732 0.22197 0.51345 0.0
C679 C 0.8806 0.21498 0.5219 0.0
C680 C 0.90341 0.23238 0.5497 0.0
C681 C 0.9034 0.25719 0.56935 0.0
C682 C 0.88082 0.265 0.55964 0.0
C683 C 0.85768 0.24724 0.53214 0.0
H684 H 0.91699 0.5035 0.15219 0.0
H685 H 0.92429 0.5435 0.10513 0.0
H686 H 0.02282 0.59457 0.13153 0.0
H687 H 0.01521 0.55503 0.179 0.0
H688 H 0.95563 0.47278 0.14203 0.0
H689 H 0.93214 0.53078 0.23753 0.0
H690 H 0.94492 0.58012 0.26837 0.0
H691 H 0.0316 0.59068 0.31044 0.0
H692 H 0.01896 0.54166 0.2789 0.0
H693 H 0.01862 0.46943 0.28032 0.0
H694 H 0.03045 0.43314 0.31225 0.0
H695 H 0.9446 0.35641 0.26714 0.0
H696 H 0.93266 0.39282 0.23593 0.0
H697 H 0.97542 0.4838 0.28534 0.0
H698 H 0.01743 0.45399 0.17974 0.0
H699 H 0.02739 0.42316 0.13191 0.0
H700 H 0.92929 0.37175 0.10317 0.0
H701 H 0.91964 0.40338 0.1505 0.0
C702 C 0.96553 0.52656 0.16915 0.0
C703 C 0.93997 0.5237 0.14836 0.0
C704 C 0.94418 0.5465 0.12159 0.0
C705 C 0.97416 0.57196 0.1146 0.0
C706 C -0.00049 0.57509 0.13625 0.0
C707 C -0.00482 0.55267 0.16349 0.0
C708 C 0.96234 0.50084 0.19334 0.0
C709 C 0.95872 0.47455 0.17363 0.0
C710 C 0.9685 0.50431 0.23404 0.0
C711 C 0.97474 0.53273 0.25554 0.0
C712 C 0.95385 0.54372 0.25345 0.0
C713 C 0.96114 0.57184 0.27123 0.0
C714 C -0.01064 0.58933 0.29164 0.0
C715 C 0.00969 0.57772 0.29493 0.0
C716 C 0.00244 0.54967 0.27701 0.0
C717 C 0.97492 0.4338 0.2554 0.0
C718 C 0.00213 0.4448 0.27783 0.0
C719 C 0.00889 0.42405 0.29599 0.0
C720 C -0.01145 0.39195 0.29198 0.0
C721 C 0.96082 0.38102 0.27059 0.0
C722 C 0.95403 0.40178 0.25257 0.0
C723 C 0.96898 0.4558 0.23389 0.0
C724 C 0.9709 0.48128 0.25404 0.0
C725 C 0.9632 0.45266 0.1931 0.0
C726 C 0.96779 0.43073 0.16871 0.0
C727 C -0.00199 0.4357 0.16362 0.0
C728 C 0.00368 0.41824 0.13617 0.0
C729 C 0.97912 0.39523 0.11379 0.0
C730 C 0.9486 0.3893 0.1202 0.0
C731 C 0.94304 0.40726 0.14713 0.0
H732 H 0.47701 0.40172 0.1433 0.0
H733 H 0.43716 0.37857 0.09158 0.0
H734 H 0.40101 0.43735 0.12798 0.0
H735 H 0.4402 0.45987 0.17926 0.0
H736 H 0.51729 0.47124 0.13952 0.0
H737 H 0.44723 0.39166 0.24062 0.0
H738 H 0.3965 0.36495 0.27454 0.0
H739 H 0.40438 0.45351 0.29991 0.0
H740 H 0.45436 0.47963 0.26635 0.0
H741 H 0.50759 0.53392 0.26519 0.0
H742 H 0.53298 0.58385 0.29845 0.0
H743 H 0.62308 0.59379 0.27335 0.0
H744 H 0.59712 0.54321 0.23971 0.0
H745 H 0.50698 0.4825 0.28244 0.0
H746 H 0.52518 0.54665 0.1782 0.0
H747 H 0.54638 0.58573 0.12714 0.0
H748 H 0.60918 0.55408 0.09102 0.0
H749 H 0.58735 0.51436 0.14248 0.0
C750 C 0.4611 0.43203 0.16552 0.0
C751 C 0.45978 0.40876 0.14081 0.0
C752 C 0.43717 0.39571 0.11128 0.0
C753 C 0.41632 0.40649 0.1056 0.0
C754 C 0.41696 0.4288 0.1315 0.0
C755 C 0.43908 0.44139 0.16118 0.0
C756 C 0.48851 0.4511 0.19055 0.0
C757 C 0.51584 0.47297 0.17117 0.0
C758 C 0.4853 0.45463 0.23121 0.0
C759 C 0.45473 0.4376 0.25149 0.0
C760 C 0.43793 0.40516 0.25365 0.0
C761 C 0.40904 0.39001 0.27306 0.0
C762 C 0.3965 0.40715 0.29011 0.0
C763 C 0.41333 0.43958 0.28731 0.0
C764 C 0.44208 0.45458 0.2683 0.0
C765 C 0.55049 0.53469 0.25051 0.0
C766 C 0.53282 0.5467 0.2671 0.0
C767 C 0.5474 0.57539 0.28592 0.0
C768 C 0.58004 0.59272 0.28876 0.0
C769 C 0.59784 0.58084 0.27184 0.0
C770 C 0.58313 0.55204 0.2526 0.0
C771 C 0.53397 0.50412 0.23067 0.0
C772 C 0.50966 0.47962 0.25129 0.0
C773 C 0.5372 0.50077 0.18998 0.0
C774 C 0.55512 0.52801 0.16455 0.0
C775 C 0.54421 0.54871 0.16016 0.0
C776 C 0.55607 0.57079 0.13063 0.0
C777 C 0.57922 0.57273 0.10492 0.0
C778 C 0.5914 0.55311 0.11057 0.0
C779 C 0.57909 0.53055 0.13994 0.0
H780 H 0.58575 0.06577 0.15791 0.0
H781 H 0.61805 0.05693 0.11057 0.0
H782 H 0.55835 0.95805 0.12496 0.0
H783 H 0.52665 0.96711 0.17251 0.0
H784 H 0.51437 0.03218 0.14123 0.0
H785 H 0.58926 0.03964 0.2459 0.0
H786 H 0.61508 0.01573 0.27957 0.0
H787 H 0.52534 0.93307 0.29834 0.0
H788 H 0.49998 0.95702 0.26488 0.0
H789 H 0.44221 0.96862 0.27731 0.0
H790 H 0.39317 0.9566 0.30869 0.0
H791 H 0.40218 0.0407 0.26196 0.0
H792 H 0.45182 0.05306 0.23126 0.0
H793 H 0.49805 0.00844 0.28318 0.0
H794 H 0.43121 0.96983 0.18185 0.0
H795 H 0.39228 0.95513 0.1306 0.0
H796 H 0.43965 0.04938 0.08893 0.0
H797 H 0.47938 0.06404 0.14033 0.0
C798 C 0.55413 0.01709 0.16887 0.0
C799 C 0.58016 0.04227 0.15143 0.0
C800 C 0.59849 0.03717 0.12444 0.0
C801 C 0.59052 0.00679 0.11395 0.0
C802 C 0.56493 0.98169 0.13237 0.0
C803 C 0.54696 0.98682 0.1597 0.0
C804 C 0.53197 0.02186 0.19269 0.0
C805 C 0.5115 0.02841 0.17267 0.0
C806 C 0.52652 0.01377 0.2327 0.0
C807 C 0.54276 0.00016 0.25315 0.0
C808 C 0.57529 0.0164 0.25735 0.0
C809 C 0.58992 0.00272 0.27666 0.0
C810 C 0.57221 0.9725 0.29171 0.0
C811 C 0.53967 0.95634 0.28717 0.0
C812 C 0.52512 0.97007 0.2682 0.0
C813 C 0.45077 0.0118 0.25194 0.0
C814 C 0.43397 0.98481 0.27436 0.0
C815 C 0.40584 0.97786 0.29218 0.0
C816 C 0.39383 -0.00233 0.28774 0.0
C817 C 0.41087 0.02496 0.26585 0.0
C818 C 0.43915 0.032 0.24816 0.0
C819 C 0.47986 0.0181 0.23157 0.0
C820 C 0.50178 0.0141 0.25223 0.0
C821 C 0.48433 0.02443 0.19095 0.0
C822 C 0.45797 0.0181 0.16513 0.0
C823 C 0.43279 0.9876 0.16249 0.0
C824 C 0.41072 0.97915 0.13299 0.0
C825 C 0.41317 0.00111 0.10579 0.0
C826 C 0.43724 0.03212 0.10978 0.0
C827 C 0.45985 0.04049 0.13901 0.0
H828 H 0.45333 0.01139 0.83917 0.0
H829 H 0.4226 0.02233 0.88603 0.0
H830 H 0.36887 0.92508 0.91496 0.0
H831 H 0.40036 0.91438 0.86838 0.0
H832 H 0.47119 0.95051 0.87785 0.0
H833 H 0.46983 0.01401 0.7411 0.0
H834 H 0.43499 0.02786 0.70908 0.0
H835 H 0.35539 0.94298 0.75051 0.0
H836 H 0.39046 0.92886 0.7818 0.0
H837 H 0.54304 0.94316 0.77751 0.0
H838 H 0.59399 0.96726 0.7443 0.0
H839 H 0.58735 0.04866 0.72204 0.0
H840 H 0.53693 0.02455 0.75486 0.0
H841 H 0.48407 0.97262 0.73539 0.0
H842 H 0.51139 0.92143 0.87248 0.0
H843 H 0.55139 0.93609 0.92347 0.0
H844 H 0.59013 0.03241 0.89348 0.0
H845 H 0.55073 0.01772 0.84289 0.0
C846 C 0.42881 0.96206 0.85023 0.0
C847 C 0.43452 -0.00765 0.85508 0.0
C848 C 0.41713 -0.0014 0.88197 0.0
C849 C 0.39352 0.97457 0.90412 0.0
C850 C 0.38689 0.94398 0.89803 0.0
C851 C 0.40476 0.93782 0.87156 0.0
C852 C 0.45069 0.95705 0.82624 0.0
C853 C 0.4734 0.95387 0.84632 0.0
C854 C 0.45423 0.96337 0.78562 0.0
C855 C 0.43277 0.97038 0.76399 0.0
C856 C 0.44489 -0.00195 0.74269 0.0
C857 C 0.42495 0.00605 0.7245 0.0
C858 C 0.39247 0.9866 0.7274 0.0
C859 C 0.38035 0.95852 0.74785 0.0
C860 C 0.40034 0.95045 0.76589 0.0
C861 C 0.53623 0.98199 0.76819 0.0
C862 C 0.55271 0.96617 0.76539 0.0
C863 C 0.58169 0.97994 0.74639 0.0
C864 C 0.59458 0.00982 0.73042 0.0
C865 C 0.57809 0.02564 0.73393 0.0
C866 C 0.54918 0.01182 0.7525 0.0
C867 C 0.50545 0.96812 0.78755 0.0
C868 C 0.48093 0.96718 0.76643 0.0
C869 C 0.50157 0.96096 0.82792 0.0
C870 C 0.52841 0.96847 0.85357 0.0
C871 C 0.5291 0.94558 0.8763 0.0
C872 C 0.55188 0.95396 0.90534 0.0
C873 C 0.57367 0.98539 0.91259 0.0
C874 C 0.57353 0.00802 0.88873 0.0
C875 C 0.5512 -0.00035 0.85951 0.0
H876 H 0.06638 0.58147 0.87992 0.0
H877 H 0.04906 0.60472 0.93097 0.0
H878 H 0.95512 0.55278 0.88603 0.0
H879 H 0.97249 0.53039 0.83501 0.0
H880 H 0.03535 0.51411 0.87922 0.0
H881 H 0.05636 0.59598 0.78785 0.0
H882 H 0.04272 0.63085 0.75549 0.0
H883 H 0.96059 0.55188 0.70661 0.0
H884 H 0.97392 0.51722 0.73956 0.0
H885 H 0.96282 0.45177 0.75379 0.0
H886 H 0.93794 0.40189 0.72023 0.0
H887 H 0.0188 0.39348 0.74282 0.0
H888 H 0.04371 0.44389 0.7768 0.0
H889 H 0.01565 0.50421 0.73614 0.0
H890 H 0.9694 0.43554 0.84176 0.0
H891 H 0.95489 0.39646 0.89219 0.0
H892 H 0.05188 0.43621 0.92343 0.0
H893 H 0.06635 0.47587 0.8726 0.0
C894 C 0.0208 0.55457 0.85343 0.0
C895 C 0.04232 0.57601 0.88036 0.0
C896 C 0.03242 0.58917 0.90945 0.0
C897 C 0.00073 0.58023 0.9125 0.0
C898 C 0.97963 0.55989 0.8844 0.0
C899 C -0.01039 0.54734 0.85501 0.0
C900 C 0.02864 0.53514 0.8284 0.0
C901 C 0.03254 0.51266 0.84757 0.0
C902 C 0.02328 0.53253 0.78749 0.0
C903 C 0.01624 0.55398 0.76619 0.0
C904 C 0.03548 0.5862 0.7701 0.0
C905 C 0.0277 0.60608 0.75143 0.0
C906 C 0.00057 0.59406 0.72844 0.0
C907 C 0.98172 0.56184 0.7239 0.0
C908 C -0.01057 0.54201 0.74266 0.0
C909 C 0.00522 0.45161 0.76743 0.0
C910 C 0.97532 0.43929 0.75131 0.0
C911 C 0.96103 0.41067 0.73229 0.0
C912 C 0.97643 0.39378 0.72872 0.0
C913 C 0.00643 0.40608 0.74493 0.0
C914 C 0.02067 0.43477 0.7644 0.0
C915 C 0.01937 0.48197 0.78768 0.0
C916 C 0.02048 0.50669 0.76737 0.0
C917 C 0.02624 0.48522 0.82819 0.0
C918 C 0.01898 0.45831 0.85305 0.0
C919 C -0.01232 0.43532 0.85855 0.0
C920 C 0.9794 0.41319 0.8877 0.0
C921 C 0.00226 0.41348 0.91193 0.0
C922 C 0.03384 0.4354 0.90502 0.0
C923 C 0.04211 0.45797 0.87604 0.0
H924 H 0.39757 0.47862 0.86823 0.0
H925 H 0.36806 0.43727 0.91601 0.0
H926 H 0.42188 0.39453 0.88328 0.0
H927 H 0.45064 0.43534 0.83528 0.0
H928 H 0.46785 0.51548 0.87345 0.0
H929 H 0.38559 0.45272 0.78152 0.0
H930 H 0.34952 0.40211 0.75252 0.0
H931 H 0.42777 0.39579 0.7077 0.0
H932 H 0.46361 0.44585 0.7375 0.0
H933 H 0.53152 0.50372 0.74952 0.0
H934 H 0.58228 0.52958 0.7175 0.0
H935 H 0.58924 0.61828 0.7385 0.0
H936 H 0.53792 0.59191 0.77072 0.0
H937 H 0.47818 0.5013 0.73105 0.0
H938 H 0.54655 0.5288 0.84143 0.0
H939 H 0.58687 0.55942 0.88975 0.0
H940 H 0.54693 0.61781 0.90764 0.0
H941 H 0.50622 0.5866 0.85943 0.0
C942 C 0.42592 0.45971 0.84809 0.0
C943 C 0.40243 0.45994 0.87088 0.0
C944 C 0.38569 0.43638 0.89806 0.0
C945 C 0.39291 0.41288 0.90337 0.0
C946 C 0.41598 0.41244 0.87985 0.0
C947 C 0.43223 0.43558 0.8523 0.0
C948 C 0.44667 0.48619 0.82303 0.0
C949 C 0.46944 0.51313 0.84193 0.0
C950 C 0.44932 0.48223 0.78236 0.0
C951 C 0.42728 0.45303 0.76182 0.0
C952 C 0.39493 0.44045 0.76533 0.0
C953 C 0.37438 0.41159 0.74867 0.0
C954 C 0.38587 0.39498 0.72798 0.0
C955 C 0.41823 0.40808 0.7234 0.0
C956 C 0.43873 0.43679 0.74026 0.0
C957 C 0.53093 0.54593 0.76215 0.0
C958 C 0.54386 0.52874 0.74693 0.0
C959 C 0.57299 0.54358 0.72884 0.0
C960 C 0.58978 0.57598 0.72542 0.0
C961 C 0.57679 0.59325 0.74061 0.0
C962 C 0.54756 0.5783 0.75903 0.0
C963 C 0.50034 0.52934 0.78211 0.0
C964 C 0.47559 0.50467 0.76206 0.0
C965 C 0.49695 0.53408 0.82232 0.0
C966 C 0.52373 0.55575 0.84668 0.0
C967 C 0.54691 0.54861 0.85516 0.0
C968 C 0.56975 0.56595 0.88296 0.0
C969 C 0.56988 0.59084 0.90258 0.0
C970 C 0.5474 0.59878 0.89285 0.0
C971 C 0.52423 0.58108 0.86535 0.0
H972 H 0.58207 0.83612 0.48663 0.0
H973 H 0.58961 0.87609 0.43939 0.0
H974 H 0.68809 0.92692 0.46609 0.0
H975 H 0.68025 0.88741 0.51373 0.0
H976 H 0.62044 0.80525 0.47653 0.0
H977 H 0.59749 0.86354 0.57229 0.0
H978 H 0.6107 0.91305 0.60298 0.0
H979 H 0.69725 0.92309 0.64468 0.0
H980 H 0.68418 0.8739 0.61329 0.0
H981 H 0.684 0.80213 0.61428 0.0
H982 H 0.6963 0.76602 0.64575 0.0
H983 H 0.61054 0.68901 0.60087 0.0
H984 H 0.59813 0.72524 0.57013 0.0
H985 H 0.64064 0.81619 0.61975 0.0
H986 H 0.6826 0.78682 0.51395 0.0
H987 H 0.6928 0.75634 0.46585 0.0
H988 H 0.59475 0.70464 0.43695 0.0
H989 H 0.58483 0.73591 0.48458 0.0
C990 C 0.63056 0.85907 0.50376 0.0
C991 C 0.60509 0.85627 0.48284 0.0
C992 C 0.60944 0.87905 0.45596 0.0
C993 C 0.63947 0.90442 0.44899 0.0
C994 C 0.66474 0.90751 0.47079 0.0
C995 C 0.66027 0.8851 0.49814 0.0
C996 C 0.62728 0.83328 0.52791 0.0
C997 C 0.6236 0.80699 0.50813 0.0
C998 C 0.63355 0.83673 0.56859 0.0
C999 C 0.63999 0.86521 0.59013 0.0
C1000 C 0.61926 0.87639 0.58811 0.0
C1001 C 0.6268 0.90461 0.60581 0.0
C1002 C 0.65511 0.92202 0.62604 0.0
C1003 C 0.67527 0.9102 0.6293 0.0
C1004 C 0.66778 0.88205 0.61147 0.0
C1005 C 0.6403 0.76635 0.58953 0.0
C1006 C 0.66762 0.77747 0.61175 0.0
C1007 C 0.67466 0.75682 0.62964 0.0
C1008 C 0.65449 0.7247 0.62555 0.0
C1009 C 0.62664 0.71365 0.60437 0.0
C1010 C 0.61957 0.7343 0.58662 0.0
C1011 C 0.63411 0.78826 0.56821 0.0
C1012 C 0.63601 0.81369 0.58848 0.0
C1013 C 0.62821 0.78514 0.52745 0.0
C1014 C 0.63295 0.76338 0.50289 0.0
C1015 C 0.66324 0.76854 0.49775 0.0
C1016 C 0.66905 0.75128 0.47014 0.0
C1017 C 0.64458 0.72829 0.44763 0.0
C1018 C 0.61399 0.72217 0.45407 0.0
C1019 C 0.60829 0.73993 0.48118 0.0
H1020 H 0.14325 0.73511 0.4766 0.0
H1021 H 0.10349 0.71186 0.42479 0.0
H1022 H 0.06719 0.77061 0.46077 0.0
H1023 H 0.10629 0.79321 0.51214 0.0
H1024 H 0.18358 0.80476 0.47301 0.0
H1025 H 0.11325 0.72484 0.57357 0.0
H1026 H 0.06242 0.69791 0.60725 0.0
H1027 H 0.06991 0.78628 0.63277 0.0
H1028 H 0.11999 0.81261 0.59946 0.0
H1029 H 0.17356 0.86706 0.59915 0.0
H1030 H 0.19899 0.91688 0.63268 0.0
H1031 H 0.28905 0.92674 0.60757 0.0
H1032 H 0.26306 0.87627 0.57366 0.0
H1033 H 0.17264 0.81553 0.6159 0.0
H1034 H 0.19179 0.88033 0.51212 0.0
H1035 H 0.21326 0.91948 0.46115 0.0
H1036 H 0.27557 0.88726 0.42496 0.0
H1037 H 0.25347 0.84747 0.47632 0.0
C1038 C 0.12727 0.76541 0.49861 0.0
C1039 C 0.12601 0.74213 0.47399 0.0
C1040 C 0.10345 0.72902 0.44441 0.0
C1041 C 0.08257 0.73974 0.4386 0.0
C1042 C 0.08316 0.76209 0.46439 0.0
C1043 C 0.10524 0.77474 0.49412 0.0
C1044 C 0.15457 0.78445 0.52382 0.0
C1045 C 0.18199 0.80638 0.50466 0.0
C1046 C 0.15119 0.78784 0.56447 0.0
C1047 C 0.12056 0.77069 0.58454 0.0
C1048 C 0.10384 0.73825 0.58658 0.0
C1049 C 0.07489 0.72298 0.60585 0.0
C1050 C 0.06222 0.74 0.62287 0.0
C1051 C 0.07896 0.77244 0.62018 0.0
C1052 C 0.10776 0.78756 0.60131 0.0
C1053 C 0.21644 0.8678 0.58442 0.0
C1054 C 0.1988 0.8798 0.60112 0.0
C1055 C 0.21339 0.90842 0.6201 0.0
C1056 C 0.24603 0.92571 0.623 0.0
C1057 C 0.26381 0.91382 0.60602 0.0
C1058 C 0.24908 0.88509 0.58661 0.0
C1059 C 0.19991 0.83731 0.56436 0.0
C1060 C 0.17546 0.81277 0.58476 0.0
C1061 C 0.20332 0.83409 0.52368 0.0
C1062 C 0.22146 0.86139 0.49843 0.0
C1063 C 0.21077 0.88229 0.4941 0.0
C1064 C 0.2228 0.9044 0.46462 0.0
C1065 C 0.24587 0.90619 0.4389 0.0
C1066 C 0.25786 0.88641 0.44452 0.0
C1067 C 0.24539 0.86381 0.47384 0.0
H1068 H 0.09824 0.30287 0.51426 0.0
H1069 H 0.05923 0.28779 0.46302 0.0
H1070 H 0.10585 0.38201 0.42127 0.0
H1071 H 0.14566 0.39703 0.47263 0.0
H1072 H 0.18113 0.36543 0.4738 0.0
H1073 H 0.10903 0.30213 0.60987 0.0
H1074 H 0.05996 0.28996 0.64125 0.0
H1075 H 0.06847 0.37373 0.59405 0.0
H1076 H 0.11815 0.38623 0.56334 0.0
H1077 H 0.25604 0.37338 0.57896 0.0
H1078 H 0.28177 0.34947 0.61285 0.0
H1079 H 0.19196 0.26689 0.63158 0.0
H1080 H 0.16669 0.29083 0.59789 0.0
H1081 H 0.16477 0.3423 0.61589 0.0
H1082 H 0.25258 0.3993 0.49068 0.0
H1083 H 0.285 0.39037 0.44365 0.0
H1084 H 0.22543 0.29152 0.45855 0.0
H1085 H 0.1936 0.30067 0.50578 0.0
C1086 C 0.12463 0.35113 0.49748 0.0
C1087 C 0.09964 0.32053 0.49485 0.0
C1088 C 0.07753 0.31188 0.46536 0.0
C1089 C 0.07973 0.33373 0.43816 0.0
C1090 C 0.10363 0.36482 0.44211 0.0
C1091 C 0.12628 0.3734 0.47133 0.0
C1092 C 0.15102 0.35775 0.5234 0.0
C1093 C 0.17826 0.36179 0.50526 0.0
C1094 C 0.14653 0.35159 0.56406 0.0
C1095 C 0.11735 0.34516 0.58428 0.0
C1096 C 0.10067 0.31821 0.60681 0.0
C1097 C 0.07251 0.31118 0.62462 0.0
C1098 C 0.06038 0.33087 0.62008 0.0
C1099 C 0.07727 0.35809 0.59802 0.0
C1100 C 0.10558 0.36521 0.58034 0.0
C1101 C 0.20952 0.33394 0.58618 0.0
C1102 C 0.24203 0.35017 0.59046 0.0
C1103 C 0.25661 0.33648 0.60989 0.0
C1104 C 0.23885 0.30628 0.62498 0.0
C1105 C 0.20632 0.29015 0.62037 0.0
C1106 C 0.19183 0.30388 0.60128 0.0
C1107 C 0.19332 0.34752 0.56554 0.0
C1108 C 0.16853 0.34784 0.5849 0.0
C1109 C 0.19879 0.35545 0.52548 0.0
C1110 C 0.22101 0.35065 0.50186 0.0
C1111 C 0.24705 0.3758 0.48438 0.0
C1112 C 0.26545 0.37064 0.45757 0.0
C1113 C 0.25755 0.34024 0.44731 0.0
C1114 C 0.23196 0.31518 0.46578 0.0
C1115 C 0.21391 0.32036 0.49293 0.0
loop_
_geom_bond_atom_site_label_1
_geom_bond_atom_site_label_2
_geom_bond_distance
_geom_bond_site_symmetry_2
_ccdc_geom_bond_type
C0 O1 1.306 . S
C0 O3 1.160 . S
O1 C0 1.306 . S
O1 Cd2 2.228 1_556 S
Cd2 O1 2.228 1_554 S
Cd2 O6 2.273 . S
Cd2 O10 2.277 1_554 S
O3 C0 1.160 . S
O3 Cd4 2.203 1_656 S
Cd4 O3 2.203 1_454 S
Cd4 O6 2.411 1_455 S
Cd4 O7 2.333 . S
Cd4 O8 2.352 . S
Cd4 O12 2.277 1_554 S
Cd4 O13 2.356 . S
C5 O10 1.209 1_455 S
C5 O12 1.226 . S
O6 Cd2 2.273 . S
O6 Cd4 2.411 1_655 S
O6 C9 1.320 . S
O7 Cd4 2.333 . S
O7 C9 1.214 1_455 S
O8 Cd4 2.352 . S
O8 C11 1.258 . S
C9 O6 1.320 . S
C9 O7 1.214 1_655 S
O10 Cd2 2.277 1_556 S
O10 C5 1.209 1_655 S
C11 O8 1.258 . S
C11 O13 1.282 . S
O12 Cd4 2.277 1_556 S
O12 C5 1.226 . S
O13 Cd4 2.356 . S
O13 C11 1.282 . S
C14 O15 1.306 . S
C14 O17 1.160 . S
O15 C14 1.306 . S
O15 Cd16 2.228 . S
Cd16 O15 2.228 . S
Cd16 O20 2.273 1_554 S
Cd16 O24 2.277 . S
O17 C14 1.160 . S
O17 Cd18 2.203 . S
Cd18 O17 2.203 . S
Cd18 O20 2.411 1_554 S
Cd18 O21 2.333 1_554 S
Cd18 O22 2.352 1_554 S
Cd18 O26 2.277 . S
Cd18 O27 2.356 1_554 S
C19 O24 1.209 . S
C19 O26 1.226 . S
O20 Cd16 2.273 1_556 S
O20 Cd18 2.411 1_556 S
O20 C23 1.320 . S
O21 Cd18 2.333 1_556 S
O21 C23 1.214 . S
O22 Cd18 2.352 1_556 S
O22 C25 1.258 . S
C23 O20 1.320 . S
C23 O21 1.214 . S
O24 Cd16 2.277 . S
O24 C19 1.209 . S
C25 O22 1.258 . S
C25 O27 1.282 . S
O26 Cd18 2.277 . S
O26 C19 1.226 . S
O27 Cd18 2.356 1_556 S
O27 C25 1.282 . S
C28 O29 1.306 . S
C28 O31 1.160 . S
O29 C28 1.306 . S
O29 Cd30 2.228 . S
Cd30 O29 2.228 . S
Cd30 O34 2.273 1_554 S
Cd30 O38 2.277 . S
O31 C28 1.160 . S
O31 Cd32 2.203 1_565 S
Cd32 O31 2.203 1_545 S
Cd32 O34 2.411 1_544 S
Cd32 O35 2.333 1_554 S
Cd32 O36 2.352 1_554 S
Cd32 O40 2.277 . S
Cd32 O41 2.356 . S
C33 O38 1.209 1_545 S
C33 O40 1.226 . S
O34 Cd30 2.273 1_556 S
O34 Cd32 2.411 1_566 S
O34 C37 1.320 . S
O35 Cd32 2.333 1_556 S
O35 C37 1.214 1_545 S
O36 Cd32 2.352 1_556 S
O36 C39 1.258 . S
C37 O34 1.320 . S
C37 O35 1.214 1_565 S
O38 Cd30 2.277 . S
O38 C33 1.209 1_565 S
C39 O36 1.258 . S
C39 O41 1.282 1_556 S
O40 Cd32 2.277 . S
O40 C33 1.226 . S
O41 Cd32 2.356 . S
O41 C39 1.282 1_554 S
C42 O43 1.306 . S
C42 O45 1.160 . S
O43 C42 1.306 . S
O43 Cd44 2.228 1_556 S
Cd44 O43 2.228 1_554 S
Cd44 O48 2.273 . S
Cd44 O52 2.277 1_554 S
O45 C42 1.160 . S
O45 Cd46 2.203 1_656 S
Cd46 O45 2.203 1_454 S
Cd46 O48 2.411 1_455 S
Cd46 O49 2.333 . S
Cd46 O50 2.352 . S
Cd46 O54 2.277 1_554 S
Cd46 O55 2.356 . S
C47 O52 1.209 1_455 S
C47 O54 1.226 . S
O48 Cd44 2.273 . S
O48 Cd46 2.411 1_655 S
O48 C51 1.320 . S
O49 Cd46 2.333 . S
O49 C51 1.214 1_455 S
O50 Cd46 2.352 . S
O50 C53 1.258 . S
C51 O48 1.320 . S
C51 O49 1.214 1_655 S
O52 Cd44 2.277 1_556 S
O52 C47 1.209 1_655 S
C53 O50 1.258 . S
C53 O55 1.282 . S
O54 Cd46 2.277 1_556 S
O54 C47 1.226 . S
O55 Cd46 2.356 . S
O55 C53 1.282 . S
C56 O57 1.306 . S
C56 O59 1.160 . S
O57 C56 1.306 . S
O57 Cd58 2.228 . S
Cd58 O57 2.228 . S
Cd58 O62 2.273 1_554 S
Cd58 O66 2.277 . S
O59 C56 1.160 . S
O59 Cd60 2.203 . S
Cd60 O59 2.203 . S
Cd60 O62 2.411 1_554 S
Cd60 O63 2.333 1_554 S
Cd60 O64 2.352 1_554 S
Cd60 O68 2.277 . S
Cd60 O69 2.356 1_554 S
C61 O66 1.209 . S
C61 O68 1.226 . S
O62 Cd58 2.273 1_556 S
O62 Cd60 2.411 1_556 S
O62 C65 1.320 . S
O63 Cd60 2.333 1_556 S
O63 C65 1.214 . S
O64 Cd60 2.352 1_556 S
O64 C67 1.258 . S
C65 O62 1.320 . S
C65 O63 1.214 . S
O66 Cd58 2.277 . S
O66 C61 1.209 . S
C67 O64 1.258 . S
C67 O69 1.282 . S
O68 Cd60 2.277 . S
O68 C61 1.226 . S
O69 Cd60 2.356 1_556 S
O69 C67 1.282 . S
C70 O71 1.306 . S
C70 O73 1.160 . S
O71 C70 1.306 . S
O71 Cd72 2.228 1_556 S
Cd72 O71 2.228 1_554 S
Cd72 O76 2.273 . S
Cd72 O80 2.277 1_554 S
O73 C70 1.160 . S
O73 Cd74 2.203 1_546 S
Cd74 O73 2.203 1_564 S
Cd74 O76 2.411 1_565 S
Cd74 O77 2.333 . S
Cd74 O78 2.352 . S
Cd74 O82 2.277 1_554 S
Cd74 O83 2.356 . S
C75 O80 1.209 1_565 S
C75 O82 1.226 . S
O76 Cd72 2.273 . S
O76 Cd74 2.411 1_545 S
O76 C79 1.320 . S
O77 Cd74 2.333 . S
O77 C79 1.214 1_565 S
O78 Cd74 2.352 . S
O78 C81 1.258 . S
C79 O76 1.320 . S
C79 O77 1.214 1_545 S
O80 Cd72 2.277 1_556 S
O80 C75 1.209 1_545 S
C81 O78 1.258 . S
C81 O83 1.282 . S
O82 Cd74 2.277 1_556 S
O82 C75 1.226 . S
O83 Cd74 2.356 . S
O83 C81 1.282 . S
C84 O85 1.306 . S
C84 O87 1.160 . S
O85 C84 1.306 . S
O85 Cd86 2.228 . S
Cd86 O85 2.228 . S
Cd86 O90 2.273 . S
Cd86 O94 2.277 . S
O87 C84 1.160 . S
O87 Cd88 2.203 . S
Cd88 O87 2.203 . S
Cd88 O90 2.411 . S
Cd88 O91 2.333 . S
Cd88 O92 2.352 . S
Cd88 O96 2.277 . S
Cd88 O97 2.356 . S
C89 O94 1.209 . S
C89 O96 1.226 . S
O90 Cd86 2.273 . S
O90 Cd88 2.411 . S
O90 C93 1.320 . S
O91 Cd88 2.333 . S
O91 C93 1.214 . S
O92 Cd88 2.352 . S
O92 C95 1.258 . S
C93 O90 1.320 . S
C93 O91 1.214 . S
O94 Cd86 2.277 . S
O94 C89 1.209 . S
C95 O92 1.258 . S
C95 O97 1.282 . S
O96 Cd88 2.277 . S
O96 C89 1.226 . S
O97 Cd88 2.356 . S
O97 C95 1.282 . S
C98 O99 1.306 . S
C98 O101 1.160 . S
O99 C98 1.306 . S
O99 Cd100 2.228 1_545 S
Cd100 O99 2.228 1_565 S
Cd100 O104 2.273 . S
Cd100 O108 2.277 . S
O101 C98 1.160 . S
O101 Cd102 2.203 1_545 S
Cd102 O101 2.203 1_565 S
Cd102 O104 2.411 . S
Cd102 O105 2.333 . S
Cd102 O106 2.352 1_565 S
Cd102 O110 2.277 . S
Cd102 O111 2.356 . S
C103 O108 1.209 . S
C103 O110 1.226 . S
O104 Cd100 2.273 . S
O104 Cd102 2.411 . S
O104 C107 1.320 . S
O105 Cd102 2.333 . S
O105 C107 1.214 . S
O106 Cd102 2.352 1_545 S
O106 C109 1.258 1_545 S
C107 O104 1.320 . S
C107 O105 1.214 . S
O108 Cd100 2.277 . S
O108 C103 1.209 . S
C109 O106 1.258 1_565 S
C109 O111 1.282 . S
O110 Cd102 2.277 . S
O110 C103 1.226 . S
O111 Cd102 2.356 . S
O111 C109 1.282 . S
C112 O113 1.306 . S
C112 O115 1.160 . S
O113 C112 1.306 . S
O113 Cd114 2.228 1_655 S
Cd114 O113 2.228 1_455 S
Cd114 O118 2.273 . S
Cd114 O122 2.277 . S
O115 C112 1.160 . S
O115 Cd116 2.203 1_655 S
Cd116 O115 2.203 1_455 S
Cd116 O118 2.411 . S
Cd116 O119 2.333 . S
Cd116 O120 2.352 1_455 S
Cd116 O124 2.277 . S
Cd116 O125 2.356 . S
C117 O122 1.209 . S
C117 O124 1.226 . S
O118 Cd114 2.273 . S
O118 Cd116 2.411 . S
O118 C121 1.320 . S
O119 Cd116 2.333 . S
O119 C121 1.214 . S
O120 Cd116 2.352 1_655 S
O120 C123 1.258 1_655 S
C121 O118 1.320 . S
C121 O119 1.214 . S
O122 Cd114 2.277 . S
O122 C117 1.209 . S
C123 O120 1.258 1_455 S
C123 O125 1.282 . S
O124 Cd116 2.277 . S
O124 C117 1.226 . S
O125 Cd116 2.356 . S
O125 C123 1.282 . S
C126 O127 1.306 . S
C126 O129 1.160 1_565 S
O127 C126 1.306 . S
O127 Cd128 2.228 . S
Cd128 O127 2.228 . S
Cd128 O132 2.273 . S
Cd128 O136 2.277 . S
O129 C126 1.160 1_545 S
O129 Cd130 2.203 1_545 S
Cd130 O129 2.203 1_565 S
Cd130 O132 2.411 . S
Cd130 O133 2.333 . S
Cd130 O134 2.352 1_565 S
Cd130 O138 2.277 . S
Cd130 O139 2.356 1_565 S
C131 O136 1.209 . S
C131 O138 1.226 . S
O132 Cd128 2.273 . S
O132 Cd130 2.411 . S
O132 C135 1.320 . S
O133 Cd130 2.333 . S
O133 C135 1.214 . S
O134 Cd130 2.352 1_545 S
O134 C137 1.258 . S
C135 O132 1.320 . S
C135 O133 1.214 . S
O136 Cd128 2.277 . S
O136 C131 1.209 . S
C137 O134 1.258 . S
C137 O139 1.282 . S
O138 Cd130 2.277 . S
O138 C131 1.226 . S
O139 Cd130 2.356 1_545 S
O139 C137 1.282 . S
C140 O141 1.306 . S
C140 O143 1.160 . S
O141 C140 1.306 . S
O141 Cd142 2.228 1_655 S
Cd142 O141 2.228 1_455 S
Cd142 O146 2.273 . S
Cd142 O150 2.277 . S
O143 C140 1.160 . S
O143 Cd144 2.203 1_655 S
Cd144 O143 2.203 1_455 S
Cd144 O146 2.411 . S
Cd144 O147 2.333 . S
Cd144 O148 2.352 1_455 S
Cd144 O152 2.277 . S
Cd144 O153 2.356 . S
C145 O150 1.209 . S
C145 O152 1.226 . S
O146 Cd142 2.273 . S
O146 Cd144 2.411 . S
O146 C149 1.320 . S
O147 Cd144 2.333 . S
O147 C149 1.214 . S
O148 Cd144 2.352 1_655 S
O148 C151 1.258 1_655 S
C149 O146 1.320 . S
C149 O147 1.214 . S
O150 Cd142 2.277 . S
O150 C145 1.209 . S
C151 O148 1.258 1_455 S
C151 O153 1.282 . S
O152 Cd144 2.277 . S
O152 C145 1.226 . S
O153 Cd144 2.356 . S
O153 C151 1.282 . S
C154 O155 1.306 . S
C154 O157 1.160 . S
O155 C154 1.306 . S
O155 Cd156 2.228 . S
Cd156 O155 2.228 . S
Cd156 O160 2.273 . S
Cd156 O164 2.277 . S
O157 C154 1.160 . S
O157 Cd158 2.203 . S
Cd158 O157 2.203 . S
Cd158 O160 2.411 . S
Cd158 O161 2.333 . S
Cd158 O162 2.352 . S
Cd158 O166 2.277 . S
Cd158 O167 2.356 . S
C159 O164 1.209 . S
C159 O166 1.226 . S
O160 Cd156 2.273 . S
O160 Cd158 2.411 . S
O160 C163 1.320 . S
O161 Cd158 2.333 . S
O161 C163 1.214 . S
O162 Cd158 2.352 . S
O162 C165 1.258 . S
C163 O160 1.320 . S
C163 O161 1.214 . S
O164 Cd156 2.277 . S
O164 C159 1.209 . S
C165 O162 1.258 . S
C165 O167 1.282 . S
O166 Cd158 2.277 . S
O166 C159 1.226 . S
O167 Cd158 2.356 . S
O167 C165 1.282 . S
C168 O169 1.306 . S
C168 O171 1.160 . S
O169 C168 1.306 . S
O169 Cd170 2.228 1_565 S
Cd170 O169 2.228 1_545 S
Cd170 O174 2.273 . S
Cd170 O178 2.277 . S
O171 C168 1.160 . S
O171 Cd172 2.203 1_565 S
Cd172 O171 2.203 1_545 S
Cd172 O174 2.411 . S
Cd172 O175 2.333 . S
Cd172 O176 2.352 1_545 S
Cd172 O180 2.277 . S
Cd172 O181 2.356 . S
C173 O178 1.209 . S
C173 O180 1.226 . S
O174 Cd170 2.273 . S
O174 Cd172 2.411 . S
O174 C177 1.320 . S
O175 Cd172 2.333 . S
O175 C177 1.214 . S
O176 Cd172 2.352 1_565 S
O176 C179 1.258 1_565 S
C177 O174 1.320 . S
C177 O175 1.214 . S
O178 Cd170 2.277 . S
O178 C173 1.209 . S
C179 O176 1.258 1_545 S
C179 O181 1.282 . S
O180 Cd172 2.277 . S
O180 C173 1.226 . S
O181 Cd172 2.356 . S
O181 C179 1.282 . S
C182 O183 1.306 . S
C182 O185 1.160 1_655 S
O183 C182 1.306 . S
O183 Cd184 2.228 . S
Cd184 O183 2.228 . S
Cd184 O188 2.273 . S
Cd184 O192 2.277 . S
O185 C182 1.160 1_455 S
O185 Cd186 2.203 1_455 S
Cd186 O185 2.203 1_655 S
Cd186 O188 2.411 . S
Cd186 O189 2.333 . S
Cd186 O190 2.352 1_655 S
Cd186 O194 2.277 . S
Cd186 O195 2.356 1_655 S
C187 O192 1.209 . S
C187 O194 1.226 . S
O188 Cd184 2.273 . S
O188 Cd186 2.411 . S
O188 C191 1.320 . S
O189 Cd186 2.333 . S
O189 C191 1.214 . S
O190 Cd186 2.352 1_455 S
O190 C193 1.258 . S
C191 O188 1.320 . S
C191 O189 1.214 . S
O192 Cd184 2.277 . S
O192 C187 1.209 . S
C193 O190 1.258 . S
C193 O195 1.282 . S
O194 Cd186 2.277 . S
O194 C187 1.226 . S
O195 Cd186 2.356 1_455 S
O195 C193 1.282 . S
C196 O197 1.306 . S
C196 O199 1.160 . S
O197 C196 1.306 . S
O197 Cd198 2.228 . S
Cd198 O197 2.228 . S
Cd198 O202 2.273 . S
Cd198 O206 2.277 . S
O199 C196 1.160 . S
O199 Cd200 2.203 . S
Cd200 O199 2.203 . S
Cd200 O202 2.411 . S
Cd200 O203 2.333 . S
Cd200 O204 2.352 . S
Cd200 O208 2.277 . S
Cd200 O209 2.356 . S
C201 O206 1.209 . S
C201 O208 1.226 . S
O202 Cd198 2.273 . S
O202 Cd200 2.411 . S
O202 C205 1.320 . S
O203 Cd200 2.333 . S
O203 C205 1.214 . S
O204 Cd200 2.352 . S
O204 C207 1.258 . S
C205 O202 1.320 . S
C205 O203 1.214 . S
O206 Cd198 2.277 . S
O206 C201 1.209 . S
C207 O204 1.258 . S
C207 O209 1.282 . S
O208 Cd200 2.277 . S
O208 C201 1.226 . S
O209 Cd200 2.356 . S
O209 C207 1.282 . S
C210 O211 1.306 . S
C210 O213 1.160 . S
O211 C210 1.306 . S
O211 Cd212 2.228 . S
Cd212 O211 2.228 . S
Cd212 O216 2.273 . S
Cd212 O220 2.277 . S
O213 C210 1.160 . S
O213 Cd214 2.203 . S
Cd214 O213 2.203 . S
Cd214 O216 2.411 . S
Cd214 O217 2.333 . S
Cd214 O218 2.352 . S
Cd214 O222 2.277 . S
Cd214 O223 2.356 . S
C215 O220 1.209 . S
C215 O222 1.226 . S
O216 Cd212 2.273 . S
O216 Cd214 2.411 . S
O216 C219 1.320 . S
O217 Cd214 2.333 . S
O217 C219 1.214 . S
O218 Cd214 2.352 . S
O218 C221 1.258 . S
C219 O216 1.320 . S
C219 O217 1.214 . S
O220 Cd212 2.277 . S
O220 C215 1.209 . S
C221 O218 1.258 . S
C221 O223 1.282 . S
O222 Cd214 2.277 . S
O222 C215 1.226 . S
O223 Cd214 2.356 . S
O223 C221 1.282 . S
C224 O225 1.306 . S
C224 O227 1.160 1_545 S
O225 C224 1.306 . S
O225 Cd226 2.228 . S
Cd226 O225 2.228 . S
Cd226 O230 2.273 . S
Cd226 O234 2.277 . S
O227 C224 1.160 1_565 S
O227 Cd228 2.203 1_565 S
Cd228 O227 2.203 1_545 S
Cd228 O230 2.411 . S
Cd228 O231 2.333 . S
Cd228 O232 2.352 1_545 S
Cd228 O236 2.277 . S
Cd228 O237 2.356 1_545 S
C229 O234 1.209 . S
C229 O236 1.226 . S
O230 Cd226 2.273 . S
O230 Cd228 2.411 . S
O230 C233 1.320 . S
O231 Cd228 2.333 . S
O231 C233 1.214 . S
O232 Cd228 2.352 1_565 S
O232 C235 1.258 . S
C233 O230 1.320 . S
C233 O231 1.214 . S
O234 Cd226 2.277 . S
O234 C229 1.209 . S
C235 O232 1.258 . S
C235 O237 1.282 . S
O236 Cd228 2.277 . S
O236 C229 1.226 . S
O237 Cd228 2.356 1_565 S
O237 C235 1.282 . S
C238 O239 1.306 . S
C238 O241 1.160 . S
O239 C238 1.306 . S
O239 Cd240 2.228 1_455 S
Cd240 O239 2.228 1_655 S
Cd240 O244 2.273 . S
Cd240 O248 2.277 . S
O241 C238 1.160 . S
O241 Cd242 2.203 1_455 S
Cd242 O241 2.203 1_655 S
Cd242 O244 2.411 . S
Cd242 O245 2.333 . S
Cd242 O246 2.352 1_655 S
Cd242 O250 2.277 . S
Cd242 O251 2.356 . S
C243 O248 1.209 . S
C243 O250 1.226 . S
O244 Cd240 2.273 . S
O244 Cd242 2.411 . S
O244 C247 1.320 . S
O245 Cd242 2.333 . S
O245 C247 1.214 . S
O246 Cd242 2.352 1_455 S
O246 C249 1.258 1_455 S
C247 O244 1.320 . S
C247 O245 1.214 . S
O248 Cd240 2.277 . S
O248 C243 1.209 . S
C249 O246 1.258 1_655 S
C249 O251 1.282 . S
O250 Cd242 2.277 . S
O250 C243 1.226 . S
O251 Cd242 2.356 . S
O251 C249 1.282 . S
H252 C271 0.949 . S
H253 C272 0.950 . S
H254 C274 0.950 . S
H255 C275 0.950 . S
H256 C277 0.950 . S
H257 C280 0.950 . S
H258 C281 0.950 . S
H259 C283 0.951 . S
H260 C284 0.949 . S
H261 C286 0.949 . S
H262 C287 0.950 . S
H263 C289 0.950 . S
H264 C290 0.950 . S
H265 C292 0.950 . S
H266 C295 0.950 . S
H267 C296 0.950 . S
H268 C298 0.951 . S
H269 C299 0.949 . S
C270 C271 1.376 . S
C270 C275 1.386 . S
C270 C276 1.483 . S
C271 H252 0.949 . S
C271 C270 1.376 . S
C271 C272 1.397 . S
C272 H253 0.950 . S
C272 C271 1.397 . S
C272 C273 1.391 . S
C273 C272 1.391 . S
C273 C274 1.405 . S
C274 H254 0.950 . S
C274 C273 1.405 . S
C274 C275 1.367 . S
C275 H255 0.950 . S
C275 C270 1.386 . S
C275 C274 1.367 . S
C276 C270 1.483 . S
C276 C277 1.382 . S
C276 C278 1.403 . S
C277 H256 0.950 . S
C277 C276 1.382 . S
C277 C293 1.411 . S
C278 C276 1.403 . S
C278 C279 1.489 . S
C278 C292 1.411 . S
C279 C278 1.489 . S
C279 C280 1.383 . S
C279 C284 1.382 . S
C280 H257 0.950 . S
C280 C279 1.383 . S
C280 C281 1.395 . S
C281 H258 0.950 . S
C281 C280 1.395 . S
C281 C282 1.288 . S
C282 C281 1.288 . S
C282 C283 1.392 . S
C283 H259 0.951 . S
C283 C282 1.392 . S
C283 C284 1.392 . S
C284 H260 0.949 . S
C284 C279 1.382 . S
C284 C283 1.392 . S
C285 C286 1.376 . S
C285 C290 1.386 . S
C285 C291 1.483 . S
C286 H261 0.949 . S
C286 C285 1.376 . S
C286 C287 1.397 . S
C287 H262 0.950 . S
C287 C286 1.397 . S
C287 C288 1.391 . S
C288 C287 1.391 . S
C288 C289 1.405 . S
C289 H263 0.950 . S
C289 C288 1.405 . S
C289 C290 1.367 . S
C290 H264 0.950 . S
C290 C285 1.386 . S
C290 C289 1.367 . S
C291 C285 1.483 . S
C291 C292 1.382 . S
C291 C293 1.403 . S
C292 H265 0.950 . S
C292 C278 1.411 . S
C292 C291 1.382 . S
C293 C277 1.411 . S
C293 C291 1.403 . S
C293 C294 1.489 . S
C294 C293 1.489 . S
C294 C295 1.383 . S
C294 C299 1.382 . S
C295 H266 0.950 . S
C295 C294 1.383 . S
C295 C296 1.395 . S
C296 H267 0.950 . S
C296 C295 1.395 . S
C296 C297 1.288 . S
C297 C296 1.288 . S
C297 C298 1.392 . S
C298 H268 0.951 . S
C298 C297 1.392 . S
C298 C299 1.392 . S
C299 H269 0.949 . S
C299 C294 1.382 . S
C299 C298 1.392 . S
H300 C319 0.949 . S
H301 C320 0.950 . S
H302 C322 0.950 . S
H303 C323 0.950 . S
H304 C325 0.950 . S
H305 C328 0.950 . S
H306 C329 0.950 . S
H307 C331 0.951 . S
H308 C332 0.949 . S
H309 C334 0.949 . S
H310 C335 0.950 . S
H311 C337 0.950 . S
H312 C338 0.950 . S
H313 C340 0.950 . S
H314 C343 0.950 . S
H315 C344 0.950 . S
H316 C346 0.951 . S
H317 C347 0.949 . S
C318 C319 1.376 . S
C318 C323 1.386 . S
C318 C324 1.483 . S
C319 H300 0.949 . S
C319 C318 1.376 . S
C319 C320 1.397 . S
C320 H301 0.950 . S
C320 C319 1.397 . S
C320 C321 1.391 . S
C321 C320 1.391 . S
C321 C322 1.405 . S
C322 H302 0.950 . S
C322 C321 1.405 . S
C322 C323 1.367 . S
C323 H303 0.950 . S
C323 C318 1.386 . S
C323 C322 1.367 . S
C324 C318 1.483 . S
C324 C325 1.382 . S
C324 C326 1.403 . S
C325 H304 0.950 . S
C325 C324 1.382 . S
C325 C341 1.411 . S
C326 C324 1.403 . S
C326 C327 1.489 . S
C326 C340 1.411 . S
C327 C326 1.489 . S
C327 C328 1.383 . S
C327 C332 1.382 . S
C328 H305 0.950 . S
C328 C327 1.383 . S
C328 C329 1.395 . S
C329 H306 0.950 . S
C329 C328 1.395 . S
C329 C330 1.288 . S
C330 C329 1.288 . S
C330 C331 1.392 . S
C331 H307 0.951 . S
C331 C330 1.392 . S
C331 C332 1.392 . S
C332 H308 0.949 . S
C332 C327 1.382 . S
C332 C331 1.392 . S
C333 C334 1.376 . S
C333 C338 1.386 . S
C333 C339 1.483 . S
C334 H309 0.949 . S
C334 C333 1.376 . S
C334 C335 1.397 . S
C335 H310 0.950 . S
C335 C334 1.397 . S
C335 C336 1.391 . S
C336 C335 1.391 . S
C336 C337 1.405 . S
C337 H311 0.950 . S
C337 C336 1.405 . S
C337 C338 1.367 . S
C338 H312 0.950 . S
C338 C333 1.386 . S
C338 C337 1.367 . S
C339 C333 1.483 . S
C339 C340 1.382 . S
C339 C341 1.403 . S
C340 H313 0.950 . S
C340 C326 1.411 . S
C340 C339 1.382 . S
C341 C325 1.411 . S
C341 C339 1.403 . S
C341 C342 1.489 . S
C342 C341 1.489 . S
C342 C343 1.383 . S
C342 C347 1.382 . S
C343 H314 0.950 . S
C343 C342 1.383 . S
C343 C344 1.395 . S
C344 H315 0.950 . S
C344 C343 1.395 . S
C344 C345 1.288 . S
C345 C344 1.288 . S
C345 C346 1.392 . S
C346 H316 0.951 . S
C346 C345 1.392 . S
C346 C347 1.392 . S
C347 H317 0.949 . S
C347 C342 1.382 . S
C347 C346 1.392 . S
H348 C367 0.949 . S
H349 C368 0.950 . S
H350 C370 0.950 . S
H351 C371 0.950 . S
H352 C373 0.950 . S
H353 C376 0.950 . S
H354 C377 0.950 . S
H355 C379 0.951 . S
H356 C380 0.949 . S
H357 C382 0.949 . S
H358 C383 0.950 . S
H359 C385 0.950 . S
H360 C386 0.950 . S
H361 C388 0.950 . S
H362 C391 0.950 . S
H363 C392 0.950 . S
H364 C394 0.951 . S
H365 C395 0.949 . S
C366 C367 1.376 . S
C366 C371 1.386 . S
C366 C372 1.483 . S
C367 H348 0.949 . S
C367 C366 1.376 . S
C367 C368 1.397 . S
C368 H349 0.950 . S
C368 C367 1.397 . S
C368 C369 1.391 . S
C369 C368 1.391 . S
C369 C370 1.405 . S
C370 H350 0.950 . S
C370 C369 1.405 . S
C370 C371 1.367 . S
C371 H351 0.950 . S
C371 C366 1.386 . S
C371 C370 1.367 . S
C372 C366 1.483 . S
C372 C373 1.382 . S
C372 C374 1.403 . S
C373 H352 0.950 . S
C373 C372 1.382 . S
C373 C389 1.411 . S
C374 C372 1.403 . S
C374 C375 1.489 . S
C374 C388 1.411 . S
C375 C374 1.489 . S
C375 C376 1.383 . S
C375 C380 1.382 . S
C376 H353 0.950 . S
C376 C375 1.383 . S
C376 C377 1.395 . S
C377 H354 0.950 . S
C377 C376 1.395 . S
C377 C378 1.288 . S
C378 C377 1.288 . S
C378 C379 1.392 . S
C379 H355 0.951 . S
C379 C378 1.392 . S
C379 C380 1.392 . S
C380 H356 0.949 . S
C380 C375 1.382 . S
C380 C379 1.392 . S
C381 C382 1.376 . S
C381 C386 1.386 . S
C381 C387 1.483 . S
C382 H357 0.949 . S
C382 C381 1.376 . S
C382 C383 1.397 . S
C383 H358 0.950 . S
C383 C382 1.397 . S
C383 C384 1.391 . S
C384 C383 1.391 . S
C384 C385 1.405 . S
C385 H359 0.950 . S
C385 C384 1.405 . S
C385 C386 1.367 . S
C386 H360 0.950 . S
C386 C381 1.386 . S
C386 C385 1.367 . S
C387 C381 1.483 . S
C387 C388 1.382 . S
C387 C389 1.403 . S
C388 H361 0.950 . S
C388 C374 1.411 . S
C388 C387 1.382 . S
C389 C373 1.411 . S
C389 C387 1.403 . S
C389 C390 1.489 . S
C390 C389 1.489 . S
C390 C391 1.383 . S
C390 C395 1.382 . S
C391 H362 0.950 . S
C391 C390 1.383 . S
C391 C392 1.395 . S
C392 H363 0.950 . S
C392 C391 1.395 . S
C392 C393 1.288 . S
C393 C392 1.288 . S
C393 C394 1.392 . S
C394 H364 0.951 . S
C394 C393 1.392 . S
C394 C395 1.392 . S
C395 H365 0.949 . S
C395 C390 1.382 . S
C395 C394 1.392 . S
H396 C415 0.949 . S
H397 C416 0.950 . S
H398 C418 0.950 . S
H399 C419 0.950 . S
H400 C421 0.950 . S
H401 C424 0.950 . S
H402 C425 0.950 . S
H403 C427 0.951 . S
H404 C428 0.949 . S
H405 C430 0.949 . S
H406 C431 0.950 . S
H407 C433 0.950 . S
H408 C434 0.950 . S
H409 C436 0.950 . S
H410 C439 0.950 . S
H411 C440 0.950 . S
H412 C442 0.951 . S
H413 C443 0.949 . S
C414 C415 1.376 . S
C414 C419 1.386 . S
C414 C420 1.483 . S
C415 H396 0.949 . S
C415 C414 1.376 . S
C415 C416 1.397 . S
C416 H397 0.950 . S
C416 C415 1.397 . S
C416 C417 1.391 . S
C417 C416 1.391 . S
C417 C418 1.405 . S
C418 H398 0.950 . S
C418 C417 1.405 . S
C418 C419 1.367 . S
C419 H399 0.950 . S
C419 C414 1.386 . S
C419 C418 1.367 . S
C420 C414 1.483 . S
C420 C421 1.382 . S
C420 C422 1.403 . S
C421 H400 0.950 . S
C421 C420 1.382 . S
C421 C437 1.411 . S
C422 C420 1.403 . S
C422 C423 1.489 . S
C422 C436 1.411 . S
C423 C422 1.489 . S
C423 C424 1.383 . S
C423 C428 1.382 . S
C424 H401 0.950 . S
C424 C423 1.383 . S
C424 C425 1.395 . S
C425 H402 0.950 . S
C425 C424 1.395 . S
C425 C426 1.288 . S
C426 C425 1.288 . S
C426 C427 1.392 . S
C427 H403 0.951 . S
C427 C426 1.392 . S
C427 C428 1.392 . S
C428 H404 0.949 . S
C428 C423 1.382 . S
C428 C427 1.392 . S
C429 C430 1.376 . S
C429 C434 1.386 . S
C429 C435 1.483 . S
C430 H405 0.949 . S
C430 C429 1.376 . S
C430 C431 1.397 . S
C431 H406 0.950 . S
C431 C430 1.397 . S
C431 C432 1.391 . S
C432 C431 1.391 . S
C432 C433 1.405 . S
C433 H407 0.950 . S
C433 C432 1.405 . S
C433 C434 1.367 . S
C434 H408 0.950 . S
C434 C429 1.386 . S
C434 C433 1.367 . S
C435 C429 1.483 . S
C435 C436 1.382 . S
C435 C437 1.403 . S
C436 H409 0.950 . S
C436 C422 1.411 . S
C436 C435 1.382 . S
C437 C421 1.411 . S
C437 C435 1.403 . S
C437 C438 1.489 . S
C438 C437 1.489 . S
C438 C439 1.383 . S
C438 C443 1.382 . S
C439 H410 0.950 . S
C439 C438 1.383 . S
C439 C440 1.395 . S
C440 H411 0.950 . S
C440 C439 1.395 . S
C440 C441 1.288 . S
C441 C440 1.288 . S
C441 C442 1.392 . S
C442 H412 0.951 . S
C442 C441 1.392 . S
C442 C443 1.392 . S
C443 H413 0.949 . S
C443 C438 1.382 . S
C443 C442 1.392 . S
H444 C463 0.949 . S
H445 C464 0.950 . S
H446 C466 0.950 . S
H447 C467 0.950 . S
H448 C469 0.950 . S
H449 C472 0.950 . S
H450 C473 0.950 . S
H451 C475 0.951 . S
H452 C476 0.949 . S
H453 C478 0.949 . S
H454 C479 0.950 . S
H455 C481 0.950 . S
H456 C482 0.950 . S
H457 C484 0.950 . S
H458 C487 0.950 . S
H459 C488 0.950 . S
H460 C490 0.951 . S
H461 C491 0.949 . S
C462 C463 1.376 . S
C462 C467 1.386 . S
C462 C468 1.483 . S
C463 H444 0.949 . S
C463 C462 1.376 . S
C463 C464 1.397 . S
C464 H445 0.950 . S
C464 C463 1.397 . S
C464 C465 1.391 . S
C465 C464 1.391 . S
C465 C466 1.405 . S
C466 H446 0.950 . S
C466 C465 1.405 . S
C466 C467 1.367 . S
C467 H447 0.950 . S
C467 C462 1.386 . S
C467 C466 1.367 . S
C468 C462 1.483 . S
C468 C469 1.382 . S
C468 C470 1.403 . S
C469 H448 0.950 . S
C469 C468 1.382 . S
C469 C485 1.411 . S
C470 C468 1.403 . S
C470 C471 1.489 . S
C470 C484 1.411 . S
C471 C470 1.489 . S
C471 C472 1.383 . S
C471 C476 1.382 . S
C472 H449 0.950 . S
C472 C471 1.383 . S
C472 C473 1.395 . S
C473 H450 0.950 . S
C473 C472 1.395 . S
C473 C474 1.288 . S
C474 C473 1.288 . S
C474 C475 1.392 . S
C475 H451 0.951 . S
C475 C474 1.392 . S
C475 C476 1.392 . S
C476 H452 0.949 . S
C476 C471 1.382 . S
C476 C475 1.392 . S
C477 C478 1.376 . S
C477 C482 1.386 . S
C477 C483 1.483 . S
C478 H453 0.949 . S
C478 C477 1.376 . S
C478 C479 1.397 . S
C479 H454 0.950 . S
C479 C478 1.397 . S
C479 C480 1.391 . S
C480 C479 1.391 . S
C480 C481 1.405 . S
C481 H455 0.950 . S
C481 C480 1.405 . S
C481 C482 1.367 . S
C482 H456 0.950 . S
C482 C477 1.386 . S
C482 C481 1.367 . S
C483 C477 1.483 . S
C483 C484 1.382 . S
C483 C485 1.403 . S
C484 H457 0.950 . S
C484 C470 1.411 . S
C484 C483 1.382 . S
C485 C469 1.411 . S
C485 C483 1.403 . S
C485 C486 1.489 . S
C486 C485 1.489 . S
C486 C487 1.383 . S
C486 C491 1.382 . S
C487 H458 0.950 . S
C487 C486 1.383 . S
C487 C488 1.395 . S
C488 H459 0.950 . S
C488 C487 1.395 . S
C488 C489 1.288 . S
C489 C488 1.288 . S
C489 C490 1.392 . S
C490 H460 0.951 . S
C490 C489 1.392 . S
C490 C491 1.392 . S
C491 H461 0.949 . S
C491 C486 1.382 . S
C491 C490 1.392 . S
H492 C511 0.949 . S
H493 C512 0.950 . S
H494 C514 0.950 . S
H495 C515 0.950 . S
H496 C517 0.950 . S
H497 C520 0.950 . S
H498 C521 0.950 . S
H499 C523 0.951 . S
H500 C524 0.949 . S
H501 C526 0.949 . S
H502 C527 0.950 . S
H503 C529 0.950 . S
H504 C530 0.950 . S
H505 C532 0.950 . S
H506 C535 0.950 . S
H507 C536 0.950 . S
H508 C538 0.951 . S
H509 C539 0.949 . S
C510 C511 1.376 . S
C510 C515 1.386 . S
C510 C516 1.483 . S
C511 H492 0.949 . S
C511 C510 1.376 . S
C511 C512 1.397 . S
C512 H493 0.950 . S
C512 C511 1.397 . S
C512 C513 1.391 . S
C513 C512 1.391 . S
C513 C514 1.405 . S
C514 H494 0.950 . S
C514 C513 1.405 . S
C514 C515 1.367 . S
C515 H495 0.950 . S
C515 C510 1.386 . S
C515 C514 1.367 . S
C516 C510 1.483 . S
C516 C517 1.382 . S
C516 C518 1.403 . S
C517 H496 0.950 . S
C517 C516 1.382 . S
C517 C533 1.411 . S
C518 C516 1.403 . S
C518 C519 1.489 . S
C518 C532 1.411 . S
C519 C518 1.489 . S
C519 C520 1.383 . S
C519 C524 1.382 . S
C520 H497 0.950 . S
C520 C519 1.383 . S
C520 C521 1.395 . S
C521 H498 0.950 . S
C521 C520 1.395 . S
C521 C522 1.288 . S
C522 C521 1.288 . S
C522 C523 1.392 . S
C523 H499 0.951 . S
C523 C522 1.392 . S
C523 C524 1.392 . S
C524 H500 0.949 . S
C524 C519 1.382 . S
C524 C523 1.392 . S
C525 C526 1.376 . S
C525 C530 1.386 . S
C525 C531 1.483 . S
C526 H501 0.949 . S
C526 C525 1.376 . S
C526 C527 1.397 . S
C527 H502 0.950 . S
C527 C526 1.397 . S
C527 C528 1.391 . S
C528 C527 1.391 . S
C528 C529 1.405 . S
C529 H503 0.950 . S
C529 C528 1.405 . S
C529 C530 1.367 . S
C530 H504 0.950 . S
C530 C525 1.386 . S
C530 C529 1.367 . S
C531 C525 1.483 . S
C531 C532 1.382 . S
C531 C533 1.403 . S
C532 H505 0.950 . S
C532 C518 1.411 . S
C532 C531 1.382 . S
C533 C517 1.411 . S
C533 C531 1.403 . S
C533 C534 1.489 . S
C534 C533 1.489 . S
C534 C535 1.383 . S
C534 C539 1.382 . S
C535 H506 0.950 . S
C535 C534 1.383 . S
C535 C536 1.395 . S
C536 H507 0.950 . S
C536 C535 1.395 . S
C536 C537 1.288 . S
C537 C536 1.288 . S
C537 C538 1.392 . S
C538 H508 0.951 . S
C538 C537 1.392 . S
C538 C539 1.392 . S
C539 H509 0.949 . S
C539 C534 1.382 . S
C539 C538 1.392 . S
H540 C559 0.949 . S
H541 C560 0.950 . S
H542 C562 0.950 . S
H543 C563 0.950 . S
H544 C565 0.950 . S
H545 C568 0.950 . S
H546 C569 0.950 . S
H547 C571 0.951 . S
H548 C572 0.949 . S
H549 C574 0.949 . S
H550 C575 0.950 . S
H551 C577 0.950 . S
H552 C578 0.950 . S
H553 C580 0.950 . S
H554 C583 0.950 . S
H555 C584 0.950 . S
H556 C586 0.951 . S
H557 C587 0.949 . S
C558 C559 1.376 . S
C558 C563 1.386 . S
C558 C564 1.483 . S
C559 H540 0.949 . S
C559 C558 1.376 . S
C559 C560 1.397 . S
C560 H541 0.950 . S
C560 C559 1.397 . S
C560 C561 1.391 . S
C561 C560 1.391 . S
C561 C562 1.405 . S
C562 H542 0.950 . S
C562 C561 1.405 . S
C562 C563 1.367 . S
C563 H543 0.950 . S
C563 C558 1.386 . S
C563 C562 1.367 . S
C564 C558 1.483 . S
C564 C565 1.382 . S
C564 C566 1.403 . S
C565 H544 0.950 . S
C565 C564 1.382 . S
C565 C581 1.411 . S
C566 C564 1.403 . S
C566 C567 1.489 . S
C566 C580 1.411 . S
C567 C566 1.489 . S
C567 C568 1.383 . S
C567 C572 1.382 . S
C568 H545 0.950 . S
C568 C567 1.383 . S
C568 C569 1.395 . S
C569 H546 0.950 . S
C569 C568 1.395 . S
C569 C570 1.288 . S
C570 C569 1.288 . S
C570 C571 1.392 . S
C571 H547 0.951 . S
C571 C570 1.392 . S
C571 C572 1.392 . S
C572 H548 0.949 . S
C572 C567 1.382 . S
C572 C571 1.392 . S
C573 C574 1.376 . S
C573 C578 1.386 . S
C573 C579 1.483 . S
C574 H549 0.949 . S
C574 C573 1.376 . S
C574 C575 1.397 . S
C575 H550 0.950 . S
C575 C574 1.397 . S
C575 C576 1.391 . S
C576 C575 1.391 . S
C576 C577 1.405 . S
C577 H551 0.950 . S
C577 C576 1.405 . S
C577 C578 1.367 . S
C578 H552 0.950 . S
C578 C573 1.386 . S
C578 C577 1.367 . S
C579 C573 1.483 . S
C579 C580 1.382 . S
C579 C581 1.403 . S
C580 H553 0.950 . S
C580 C566 1.411 . S
C580 C579 1.382 . S
C581 C565 1.411 . S
C581 C579 1.403 . S
C581 C582 1.489 . S
C582 C581 1.489 . S
C582 C583 1.383 . S
C582 C587 1.382 . S
C583 H554 0.950 . S
C583 C582 1.383 . S
C583 C584 1.395 . S
C584 H555 0.950 . S
C584 C583 1.395 . S
C584 C585 1.288 . S
C585 C584 1.288 . S
C585 C586 1.392 . S
C586 H556 0.951 . S
C586 C585 1.392 . S
C586 C587 1.392 . S
C587 H557 0.949 . S
C587 C582 1.382 . S
C587 C586 1.392 . S
H588 C607 0.949 . S
H589 C608 0.950 . S
H590 C610 0.950 . S
H591 C611 0.950 . S
H592 C613 0.950 . S
H593 C616 0.950 . S
H594 C617 0.950 . S
H595 C619 0.951 . S
H596 C620 0.949 . S
H597 C622 0.949 . S
H598 C623 0.950 . S
H599 C625 0.950 . S
H600 C626 0.950 . S
H601 C628 0.950 . S
H602 C631 0.950 . S
H603 C632 0.950 . S
H604 C634 0.951 . S
H605 C635 0.949 . S
C606 C607 1.376 . S
C606 C611 1.386 . S
C606 C612 1.483 . S
C607 H588 0.949 . S
C607 C606 1.376 . S
C607 C608 1.397 . S
C608 H589 0.950 . S
C608 C607 1.397 . S
C608 C609 1.391 . S
C609 C608 1.391 . S
C609 C610 1.405 . S
C610 H590 0.950 . S
C610 C609 1.405 . S
C610 C611 1.367 . S
C611 H591 0.950 . S
C611 C606 1.386 . S
C611 C610 1.367 . S
C612 C606 1.483 . S
C612 C613 1.382 . S
C612 C614 1.403 . S
C613 H592 0.950 . S
C613 C612 1.382 . S
C613 C629 1.411 . S
C614 C612 1.403 . S
C614 C615 1.489 . S
C614 C628 1.411 . S
C615 C614 1.489 . S
C615 C616 1.383 . S
C615 C620 1.382 . S
C616 H593 0.950 . S
C616 C615 1.383 . S
C616 C617 1.395 . S
C617 H594 0.950 . S
C617 C616 1.395 . S
C617 C618 1.288 . S
C618 C617 1.288 . S
C618 C619 1.392 . S
C619 H595 0.951 . S
C619 C618 1.392 . S
C619 C620 1.392 . S
C620 H596 0.949 . S
C620 C615 1.382 . S
C620 C619 1.392 . S
C621 C622 1.376 . S
C621 C626 1.386 . S
C621 C627 1.483 . S
C622 H597 0.949 . S
C622 C621 1.376 . S
C622 C623 1.397 . S
C623 H598 0.950 . S
C623 C622 1.397 . S
C623 C624 1.391 . S
C624 C623 1.391 . S
C624 C625 1.405 . S
C625 H599 0.950 . S
C625 C624 1.405 . S
C625 C626 1.367 . S
C626 H600 0.950 . S
C626 C621 1.386 . S
C626 C625 1.367 . S
C627 C621 1.483 . S
C627 C628 1.382 . S
C627 C629 1.403 . S
C628 H601 0.950 . S
C628 C614 1.411 . S
C628 C627 1.382 . S
C629 C613 1.411 . S
C629 C627 1.403 . S
C629 C630 1.489 . S
C630 C629 1.489 . S
C630 C631 1.383 . S
C630 C635 1.382 . S
C631 H602 0.950 . S
C631 C630 1.383 . S
C631 C632 1.395 . S
C632 H603 0.950 . S
C632 C631 1.395 . S
C632 C633 1.288 . S
C633 C632 1.288 . S
C633 C634 1.392 . S
C634 H604 0.951 . S
C634 C633 1.392 . S
C634 C635 1.392 . S
C635 H605 0.949 . S
C635 C630 1.382 . S
C635 C634 1.392 . S
H636 C655 0.949 . S
H637 C656 0.950 . S
H638 C658 0.950 . S
H639 C659 0.950 . S
H640 C661 0.950 . S
H641 C664 0.950 . S
H642 C665 0.950 . S
H643 C667 0.951 . S
H644 C668 0.949 . S
H645 C670 0.949 . S
H646 C671 0.950 . S
H647 C673 0.950 . S
H648 C674 0.950 . S
H649 C676 0.950 . S
H650 C679 0.950 . S
H651 C680 0.950 . S
H652 C682 0.951 . S
H653 C683 0.949 . S
C654 C655 1.376 . S
C654 C659 1.386 . S
C654 C660 1.483 . S
C655 H636 0.949 . S
C655 C654 1.376 . S
C655 C656 1.397 . S
C656 H637 0.950 . S
C656 C655 1.397 . S
C656 C657 1.391 . S
C657 C656 1.391 . S
C657 C658 1.405 . S
C658 H638 0.950 . S
C658 C657 1.405 . S
C658 C659 1.367 . S
C659 H639 0.950 . S
C659 C654 1.386 . S
C659 C658 1.367 . S
C660 C654 1.483 . S
C660 C661 1.382 . S
C660 C662 1.403 . S
C661 H640 0.950 . S
C661 C660 1.382 . S
C661 C677 1.411 . S
C662 C660 1.403 . S
C662 C663 1.489 . S
C662 C676 1.411 . S
C663 C662 1.489 . S
C663 C664 1.383 . S
C663 C668 1.382 . S
C664 H641 0.950 . S
C664 C663 1.383 . S
C664 C665 1.395 . S
C665 H642 0.950 . S
C665 C664 1.395 . S
C665 C666 1.288 . S
C666 C665 1.288 . S
C666 C667 1.392 . S
C667 H643 0.951 . S
C667 C666 1.392 . S
C667 C668 1.392 . S
C668 H644 0.949 . S
C668 C663 1.382 . S
C668 C667 1.392 . S
C669 C670 1.376 . S
C669 C674 1.386 . S
C669 C675 1.483 . S
C670 H645 0.949 . S
C670 C669 1.376 . S
C670 C671 1.397 . S
C671 H646 0.950 . S
C671 C670 1.397 . S
C671 C672 1.391 . S
C672 C671 1.391 . S
C672 C673 1.405 . S
C673 H647 0.950 . S
C673 C672 1.405 . S
C673 C674 1.367 . S
C674 H648 0.950 . S
C674 C669 1.386 . S
C674 C673 1.367 . S
C675 C669 1.483 . S
C675 C676 1.382 . S
C675 C677 1.403 . S
C676 H649 0.950 . S
C676 C662 1.411 . S
C676 C675 1.382 . S
C677 C661 1.411 . S
C677 C675 1.403 . S
C677 C678 1.489 . S
C678 C677 1.489 . S
C678 C679 1.383 . S
C678 C683 1.382 . S
C679 H650 0.950 . S
C679 C678 1.383 . S
C679 C680 1.395 . S
C680 H651 0.950 . S
C680 C679 1.395 . S
C680 C681 1.288 . S
C681 C680 1.288 . S
C681 C682 1.392 . S
C682 H652 0.951 . S
C682 C681 1.392 . S
C682 C683 1.392 . S
C683 H653 0.949 . S
C683 C678 1.382 . S
C683 C682 1.392 . S
H684 C703 0.949 . S
H685 C704 0.950 . S
H686 C706 0.950 . S
H687 C707 0.950 . S
H688 C709 0.950 . S
H689 C712 0.950 . S
H690 C713 0.950 . S
H691 C715 0.951 . S
H692 C716 0.949 . S
H693 C718 0.949 . S
H694 C719 0.950 . S
H695 C721 0.950 . S
H696 C722 0.950 . S
H697 C724 0.950 . S
H698 C727 0.950 . S
H699 C728 0.950 . S
H700 C730 0.951 . S
H701 C731 0.949 . S
C702 C703 1.376 . S
C702 C707 1.386 1_655 S
C702 C708 1.483 . S
C703 H684 0.949 . S
C703 C702 1.376 . S
C703 C704 1.397 . S
C704 H685 0.950 . S
C704 C703 1.397 . S
C704 C705 1.391 . S
C705 C704 1.391 . S
C705 C706 1.405 1_655 S
C706 H686 0.950 . S
C706 C705 1.405 1_455 S
C706 C707 1.367 . S
C707 H687 0.950 . S
C707 C702 1.386 1_455 S
C707 C706 1.367 . S
C708 C702 1.483 . S
C708 C709 1.382 . S
C708 C710 1.403 1_655 S
C709 H688 0.950 . S
C709 C708 1.382 . S
C709 C725 1.411 . S
C710 C708 1.403 1_455 S
C710 C711 1.489 . S
C710 C724 1.411 . S
C711 C710 1.489 . S
C711 C712 1.383 1_455 S
C711 C716 1.382 . S
C712 H689 0.950 . S
C712 C711 1.383 1_655 S
C712 C713 1.395 . S
C713 H690 0.950 . S
C713 C712 1.395 . S
C713 C714 1.288 1_655 S
C714 C713 1.288 1_455 S
C714 C715 1.392 . S
C715 H691 0.951 . S
C715 C714 1.392 . S
C715 C716 1.392 . S
C716 H692 0.949 . S
C716 C711 1.382 . S
C716 C715 1.392 . S
C717 C718 1.376 . S
C717 C722 1.386 1_455 S
C717 C723 1.483 . S
C718 H693 0.949 . S
C718 C717 1.376 . S
C718 C719 1.397 . S
C719 H694 0.950 . S
C719 C718 1.397 . S
C719 C720 1.391 . S
C720 C719 1.391 . S
C720 C721 1.405 1_455 S
C721 H695 0.950 . S
C721 C720 1.405 1_655 S
C721 C722 1.367 . S
C722 H696 0.950 . S
C722 C717 1.386 1_655 S
C722 C721 1.367 . S
C723 C717 1.483 . S
C723 C724 1.382 . S
C723 C725 1.403 1_455 S
C724 H697 0.950 . S
C724 C710 1.411 . S
C724 C723 1.382 . S
C725 C709 1.411 . S
C725 C723 1.403 1_655 S
C725 C726 1.489 . S
C726 C725 1.489 . S
C726 C727 1.383 1_655 S
C726 C731 1.382 . S
C727 H698 0.950 . S
C727 C726 1.383 1_455 S
C727 C728 1.395 . S
C728 H699 0.950 . S
C728 C727 1.395 . S
C728 C729 1.288 1_455 S
C729 C728 1.288 1_655 S
C729 C730 1.392 . S
C730 H700 0.951 . S
C730 C729 1.392 . S
C730 C731 1.392 . S
C731 H701 0.949 . S
C731 C726 1.382 . S
C731 C730 1.392 . S
H732 C751 0.949 . S
H733 C752 0.950 . S
H734 C754 0.950 . S
H735 C755 0.950 . S
H736 C757 0.950 . S
H737 C760 0.950 . S
H738 C761 0.950 . S
H739 C763 0.951 . S
H740 C764 0.949 . S
H741 C766 0.949 . S
H742 C767 0.950 . S
H743 C769 0.950 . S
H744 C770 0.950 . S
H745 C772 0.950 . S
H746 C775 0.950 . S
H747 C776 0.950 . S
H748 C778 0.951 . S
H749 C779 0.949 . S
C750 C751 1.376 . S
C750 C755 1.386 . S
C750 C756 1.483 . S
C751 H732 0.949 . S
C751 C750 1.376 . S
C751 C752 1.397 . S
C752 H733 0.950 . S
C752 C751 1.397 . S
C752 C753 1.391 . S
C753 C752 1.391 . S
C753 C754 1.405 . S
C754 H734 0.950 . S
C754 C753 1.405 . S
C754 C755 1.367 . S
C755 H735 0.950 . S
C755 C750 1.386 . S
C755 C754 1.367 . S
C756 C750 1.483 . S
C756 C757 1.382 . S
C756 C758 1.403 . S
C757 H736 0.950 . S
C757 C756 1.382 . S
C757 C773 1.411 . S
C758 C756 1.403 . S
C758 C759 1.489 . S
C758 C772 1.411 . S
C759 C758 1.489 . S
C759 C760 1.383 . S
C759 C764 1.382 . S
C760 H737 0.950 . S
C760 C759 1.383 . S
C760 C761 1.395 . S
C761 H738 0.950 . S
C761 C760 1.395 . S
C761 C762 1.288 . S
C762 C761 1.288 . S
C762 C763 1.392 . S
C763 H739 0.951 . S
C763 C762 1.392 . S
C763 C764 1.392 . S
C764 H740 0.949 . S
C764 C759 1.382 . S
C764 C763 1.392 . S
C765 C766 1.376 . S
C765 C770 1.386 . S
C765 C771 1.483 . S
C766 H741 0.949 . S
C766 C765 1.376 . S
C766 C767 1.397 . S
C767 H742 0.950 . S
C767 C766 1.397 . S
C767 C768 1.391 . S
C768 C767 1.391 . S
C768 C769 1.405 . S
C769 H743 0.950 . S
C769 C768 1.405 . S
C769 C770 1.367 . S
C770 H744 0.950 . S
C770 C765 1.386 . S
C770 C769 1.367 . S
C771 C765 1.483 . S
C771 C772 1.382 . S
C771 C773 1.403 . S
C772 H745 0.950 . S
C772 C758 1.411 . S
C772 C771 1.382 . S
C773 C757 1.411 . S
C773 C771 1.403 . S
C773 C774 1.489 . S
C774 C773 1.489 . S
C774 C775 1.383 . S
C774 C779 1.382 . S
C775 H746 0.950 . S
C775 C774 1.383 . S
C775 C776 1.395 . S
C776 H747 0.950 . S
C776 C775 1.395 . S
C776 C777 1.288 . S
C777 C776 1.288 . S
C777 C778 1.392 . S
C778 H748 0.951 . S
C778 C777 1.392 . S
C778 C779 1.392 . S
C779 H749 0.949 . S
C779 C774 1.382 . S
C779 C778 1.392 . S
H780 C799 0.949 . S
H781 C800 0.950 . S
H782 C802 0.950 . S
H783 C803 0.950 . S
H784 C805 0.950 . S
H785 C808 0.950 . S
H786 C809 0.950 . S
H787 C811 0.951 . S
H788 C812 0.949 . S
H789 C814 0.949 . S
H790 C815 0.950 . S
H791 C817 0.950 . S
H792 C818 0.950 . S
H793 C820 0.950 . S
H794 C823 0.950 . S
H795 C824 0.950 . S
H796 C826 0.951 . S
H797 C827 0.949 . S
C798 C799 1.376 . S
C798 C803 1.386 1_545 S
C798 C804 1.483 . S
C799 H780 0.949 . S
C799 C798 1.376 . S
C799 C800 1.397 . S
C800 H781 0.950 . S
C800 C799 1.397 . S
C800 C801 1.391 . S
C801 C800 1.391 . S
C801 C802 1.405 1_545 S
C802 H782 0.950 . S
C802 C801 1.405 1_565 S
C802 C803 1.367 . S
C803 H783 0.950 . S
C803 C798 1.386 1_565 S
C803 C802 1.367 . S
C804 C798 1.483 . S
C804 C805 1.382 . S
C804 C806 1.403 1_545 S
C805 H784 0.950 . S
C805 C804 1.382 . S
C805 C821 1.411 . S
C806 C804 1.403 1_565 S
C806 C807 1.489 . S
C806 C820 1.411 . S
C807 C806 1.489 . S
C807 C808 1.383 1_565 S
C807 C812 1.382 . S
C808 H785 0.950 . S
C808 C807 1.383 1_545 S
C808 C809 1.395 . S
C809 H786 0.950 . S
C809 C808 1.395 . S
C809 C810 1.288 1_545 S
C810 C809 1.288 1_565 S
C810 C811 1.392 . S
C811 H787 0.951 . S
C811 C810 1.392 . S
C811 C812 1.392 . S
C812 H788 0.949 . S
C812 C807 1.382 . S
C812 C811 1.392 . S
C813 C814 1.376 . S
C813 C818 1.386 1_565 S
C813 C819 1.483 . S
C814 H789 0.949 . S
C814 C813 1.376 . S
C814 C815 1.397 . S
C815 H790 0.950 . S
C815 C814 1.397 . S
C815 C816 1.391 . S
C816 C815 1.391 . S
C816 C817 1.405 1_565 S
C817 H791 0.950 . S
C817 C816 1.405 1_545 S
C817 C818 1.367 . S
C818 H792 0.950 . S
C818 C813 1.386 1_545 S
C818 C817 1.367 . S
C819 C813 1.483 . S
C819 C820 1.382 . S
C819 C821 1.403 1_565 S
C820 H793 0.950 . S
C820 C806 1.411 . S
C820 C819 1.382 . S
C821 C805 1.411 . S
C821 C819 1.403 1_545 S
C821 C822 1.489 . S
C822 C821 1.489 . S
C822 C823 1.383 1_545 S
C822 C827 1.382 . S
C823 H794 0.950 . S
C823 C822 1.383 1_565 S
C823 C824 1.395 . S
C824 H795 0.950 . S
C824 C823 1.395 . S
C824 C825 1.288 1_565 S
C825 C824 1.288 1_545 S
C825 C826 1.392 . S
C826 H796 0.951 . S
C826 C825 1.392 . S
C826 C827 1.392 . S
C827 H797 0.949 . S
C827 C822 1.382 . S
C827 C826 1.392 . S
H828 C847 0.949 . S
H829 C848 0.950 . S
H830 C850 0.950 . S
H831 C851 0.950 . S
H832 C853 0.950 . S
H833 C856 0.950 . S
H834 C857 0.950 . S
H835 C859 0.951 . S
H836 C860 0.949 . S
H837 C862 0.949 . S
H838 C863 0.950 . S
H839 C865 0.950 . S
H840 C866 0.950 . S
H841 C868 0.950 . S
H842 C871 0.950 . S
H843 C872 0.950 . S
H844 C874 0.951 . S
H845 C875 0.949 . S
C846 C847 1.383 . S
C846 C851 1.383 1_545 S
C846 C852 1.479 . S
C847 H828 0.949 . S
C847 C846 1.383 . S
C847 C848 1.397 . S
C848 H829 0.950 . S
C848 C847 1.397 . S
C848 C849 1.391 1_545 S
C849 C848 1.391 1_565 S
C849 C850 1.405 . S
C850 H830 0.950 . S
C850 C849 1.405 . S
C850 C851 1.367 . S
C851 H831 0.950 . S
C851 C846 1.383 1_565 S
C851 C850 1.367 . S
C852 C846 1.479 . S
C852 C853 1.382 . S
C852 C854 1.403 1_545 S
C853 H832 0.950 . S
C853 C852 1.382 . S
C853 C869 1.411 . S
C854 C852 1.403 1_565 S
C854 C855 1.507 . S
C854 C868 1.411 . S
C855 C854 1.507 . S
C855 C856 1.343 1_565 S
C855 C860 1.403 . S
C856 H833 0.950 . S
C856 C855 1.343 1_545 S
C856 C857 1.395 . S
C857 H834 0.950 . S
C857 C856 1.395 . S
C857 C858 1.288 . S
C858 C857 1.288 . S
C858 C859 1.392 1_545 S
C859 H835 0.951 . S
C859 C858 1.392 1_565 S
C859 C860 1.392 . S
C860 H836 0.949 . S
C860 C855 1.403 . S
C860 C859 1.392 . S
C861 C862 1.376 . S
C861 C866 1.386 1_565 S
C861 C867 1.483 . S
C862 H837 0.949 . S
C862 C861 1.376 . S
C862 C863 1.397 . S
C863 H838 0.950 . S
C863 C862 1.397 . S
C863 C864 1.391 1_565 S
C864 C863 1.391 1_545 S
C864 C865 1.405 . S
C865 H839 0.950 . S
C865 C864 1.405 . S
C865 C866 1.367 . S
C866 H840 0.950 . S
C866 C861 1.386 1_545 S
C866 C865 1.367 . S
C867 C861 1.483 . S
C867 C868 1.382 . S
C867 C869 1.403 1_565 S
C868 H841 0.950 . S
C868 C854 1.411 . S
C868 C867 1.382 . S
C869 C853 1.411 . S
C869 C867 1.403 1_545 S
C869 C870 1.489 . S
C870 C869 1.489 . S
C870 C871 1.383 1_545 S
C870 C875 1.382 . S
C871 H842 0.950 . S
C871 C870 1.383 1_565 S
C871 C872 1.395 . S
C872 H843 0.950 . S
C872 C871 1.395 . S
C872 C873 1.288 . S
C873 C872 1.288 . S
C873 C874 1.392 1_565 S
C874 H844 0.951 . S
C874 C873 1.392 1_545 S
C874 C875 1.392 . S
C875 H845 0.949 . S
C875 C870 1.382 . S
C875 C874 1.392 . S
H876 C895 0.949 . S
H877 C896 0.950 . S
H878 C898 0.950 . S
H879 C899 0.950 . S
H880 C901 0.950 . S
H881 C904 0.950 . S
H882 C905 0.950 . S
H883 C907 0.951 . S
H884 C908 0.949 . S
H885 C910 0.949 . S
H886 C911 0.950 . S
H887 C913 0.950 . S
H888 C914 0.950 . S
H889 C916 0.950 . S
H890 C919 0.950 . S
H891 C920 0.950 . S
H892 C922 0.951 . S
H893 C923 0.949 . S
C894 C895 1.376 . S
C894 C899 1.386 1_455 S
C894 C900 1.483 . S
C895 H876 0.949 . S
C895 C894 1.376 . S
C895 C896 1.397 . S
C896 H877 0.950 . S
C896 C895 1.397 . S
C896 C897 1.391 . S
C897 C896 1.391 . S
C897 C898 1.405 1_455 S
C898 H878 0.950 . S
C898 C897 1.405 1_655 S
C898 C899 1.367 . S
C899 H879 0.950 . S
C899 C894 1.386 1_655 S
C899 C898 1.367 . S
C900 C894 1.483 . S
C900 C901 1.382 . S
C900 C902 1.403 1_455 S
C901 H880 0.950 . S
C901 C900 1.382 . S
C901 C917 1.411 . S
C902 C900 1.403 1_655 S
C902 C903 1.489 . S
C902 C916 1.411 . S
C903 C902 1.489 . S
C903 C904 1.383 1_655 S
C903 C908 1.382 . S
C904 H881 0.950 . S
C904 C903 1.383 1_455 S
C904 C905 1.395 . S
C905 H882 0.950 . S
C905 C904 1.395 . S
C905 C906 1.288 1_455 S
C906 C905 1.288 1_655 S
C906 C907 1.392 . S
C907 H883 0.951 . S
C907 C906 1.392 . S
C907 C908 1.392 . S
C908 H884 0.949 . S
C908 C903 1.382 . S
C908 C907 1.392 . S
C909 C910 1.376 . S
C909 C914 1.386 1_655 S
C909 C915 1.483 . S
C910 H885 0.949 . S
C910 C909 1.376 . S
C910 C911 1.397 . S
C911 H886 0.950 . S
C911 C910 1.397 . S
C911 C912 1.391 . S
C912 C911 1.391 . S
C912 C913 1.405 1_655 S
C913 H887 0.950 . S
C913 C912 1.405 1_455 S
C913 C914 1.367 . S
C914 H888 0.950 . S
C914 C909 1.386 1_455 S
C914 C913 1.367 . S
C915 C909 1.483 . S
C915 C916 1.382 . S
C915 C917 1.403 1_655 S
C916 H889 0.950 . S
C916 C902 1.411 . S
C916 C915 1.382 . S
C917 C901 1.411 . S
C917 C915 1.403 1_455 S
C917 C918 1.489 . S
C918 C917 1.489 . S
C918 C919 1.383 1_455 S
C918 C923 1.382 . S
C919 H890 0.950 . S
C919 C918 1.383 1_655 S
C919 C920 1.395 . S
C920 H891 0.950 . S
C920 C919 1.395 . S
C920 C921 1.288 1_655 S
C921 C920 1.288 1_455 S
C921 C922 1.392 . S
C922 H892 0.951 . S
C922 C921 1.392 . S
C922 C923 1.392 . S
C923 H893 0.949 . S
C923 C918 1.382 . S
C923 C922 1.392 . S
H924 C943 0.949 . S
H925 C944 0.950 . S
H926 C946 0.950 . S
H927 C947 0.950 . S
H928 C949 0.950 . S
H929 C952 0.950 . S
H930 C953 0.950 . S
H931 C955 0.951 . S
H932 C956 0.949 . S
H933 C958 0.949 . S
H934 C959 0.950 . S
H935 C961 0.950 . S
H936 C962 0.950 . S
H937 C964 0.950 . S
H938 C967 0.950 . S
H939 C968 0.950 . S
H940 C970 0.951 . S
H941 C971 0.949 . S
C942 C943 1.376 . S
C942 C947 1.386 . S
C942 C948 1.483 . S
C943 H924 0.949 . S
C943 C942 1.376 . S
C943 C944 1.397 . S
C944 H925 0.950 . S
C944 C943 1.397 . S
C944 C945 1.391 . S
C945 C944 1.391 . S
C945 C946 1.405 . S
C946 H926 0.950 . S
C946 C945 1.405 . S
C946 C947 1.367 . S
C947 H927 0.950 . S
C947 C942 1.386 . S
C947 C946 1.367 . S
C948 C942 1.483 . S
C948 C949 1.382 . S
C948 C950 1.403 . S
C949 H928 0.950 . S
C949 C948 1.382 . S
C949 C965 1.411 . S
C950 C948 1.403 . S
C950 C951 1.489 . S
C950 C964 1.411 . S
C951 C950 1.489 . S
C951 C952 1.383 . S
C951 C956 1.382 . S
C952 H929 0.950 . S
C952 C951 1.383 . S
C952 C953 1.395 . S
C953 H930 0.950 . S
C953 C952 1.395 . S
C953 C954 1.288 . S
C954 C953 1.288 . S
C954 C955 1.392 . S
C955 H931 0.951 . S
C955 C954 1.392 . S
C955 C956 1.392 . S
C956 H932 0.949 . S
C956 C951 1.382 . S
C956 C955 1.392 . S
C957 C958 1.376 . S
C957 C962 1.386 . S
C957 C963 1.483 . S
C958 H933 0.949 . S
C958 C957 1.376 . S
C958 C959 1.397 . S
C959 H934 0.950 . S
C959 C958 1.397 . S
C959 C960 1.391 . S
C960 C959 1.391 . S
C960 C961 1.405 . S
C961 H935 0.950 . S
C961 C960 1.405 . S
C961 C962 1.367 . S
C962 H936 0.950 . S
C962 C957 1.386 . S
C962 C961 1.367 . S
C963 C957 1.483 . S
C963 C964 1.382 . S
C963 C965 1.403 . S
C964 H937 0.950 . S
C964 C950 1.411 . S
C964 C963 1.382 . S
C965 C949 1.411 . S
C965 C963 1.403 . S
C965 C966 1.489 . S
C966 C965 1.489 . S
C966 C967 1.383 . S
C966 C971 1.382 . S
C967 H938 0.950 . S
C967 C966 1.383 . S
C967 C968 1.395 . S
C968 H939 0.950 . S
C968 C967 1.395 . S
C968 C969 1.288 . S
C969 C968 1.288 . S
C969 C970 1.392 . S
C970 H940 0.951 . S
C970 C969 1.392 . S
C970 C971 1.392 . S
C971 H941 0.949 . S
C971 C966 1.382 . S
C971 C970 1.392 . S
H972 C991 0.949 . S
H973 C992 0.950 . S
H974 C994 0.950 . S
H975 C995 0.950 . S
H976 C997 0.950 . S
H977 C1000 0.950 . S
H978 C1001 0.950 . S
H979 C1003 0.951 . S
H980 C1004 0.949 . S
H981 C1006 0.949 . S
H982 C1007 0.950 . S
H983 C1009 0.950 . S
H984 C1010 0.950 . S
H985 C1012 0.950 . S
H986 C1015 0.950 . S
H987 C1016 0.950 . S
H988 C1018 0.951 . S
H989 C1019 0.949 . S
C990 C991 1.376 . S
C990 C995 1.386 . S
C990 C996 1.483 . S
C991 H972 0.949 . S
C991 C990 1.376 . S
C991 C992 1.397 . S
C992 H973 0.950 . S
C992 C991 1.397 . S
C992 C993 1.391 . S
C993 C992 1.391 . S
C993 C994 1.405 . S
C994 H974 0.950 . S
C994 C993 1.405 . S
C994 C995 1.367 . S
C995 H975 0.950 . S
C995 C990 1.386 . S
C995 C994 1.367 . S
C996 C990 1.483 . S
C996 C997 1.382 . S
C996 C998 1.403 . S
C997 H976 0.950 . S
C997 C996 1.382 . S
C997 C1013 1.411 . S
C998 C996 1.403 . S
C998 C999 1.489 . S
C998 C1012 1.411 . S
C999 C998 1.489 . S
C999 C1000 1.383 . S
C999 C1004 1.382 . S
C1000 H977 0.950 . S
C1000 C999 1.383 . S
C1000 C1001 1.395 . S
C1001 H978 0.950 . S
C1001 C1000 1.395 . S
C1001 C1002 1.288 . S
C1002 C1001 1.288 . S
C1002 C1003 1.392 . S
C1003 H979 0.951 . S
C1003 C1002 1.392 . S
C1003 C1004 1.392 . S
C1004 H980 0.949 . S
C1004 C999 1.382 . S
C1004 C1003 1.392 . S
C1005 C1006 1.376 . S
C1005 C1010 1.386 . S
C1005 C1011 1.483 . S
C1006 H981 0.949 . S
C1006 C1005 1.376 . S
C1006 C1007 1.397 . S
C1007 H982 0.950 . S
C1007 C1006 1.397 . S
C1007 C1008 1.391 . S
C1008 C1007 1.391 . S
C1008 C1009 1.405 . S
C1009 H983 0.950 . S
C1009 C1008 1.405 . S
C1009 C1010 1.367 . S
C1010 H984 0.950 . S
C1010 C1005 1.386 . S
C1010 C1009 1.367 . S
C1011 C1005 1.483 . S
C1011 C1012 1.382 . S
C1011 C1013 1.403 . S
C1012 H985 0.950 . S
C1012 C998 1.411 . S
C1012 C1011 1.382 . S
C1013 C997 1.411 . S
C1013 C1011 1.403 . S
C1013 C1014 1.489 . S
C1014 C1013 1.489 . S
C1014 C1015 1.383 . S
C1014 C1019 1.382 . S
C1015 H986 0.950 . S
C1015 C1014 1.383 . S
C1015 C1016 1.395 . S
C1016 H987 0.950 . S
C1016 C1015 1.395 . S
C1016 C1017 1.288 . S
C1017 C1016 1.288 . S
C1017 C1018 1.392 . S
C1018 H988 0.951 . S
C1018 C1017 1.392 . S
C1018 C1019 1.392 . S
C1019 H989 0.949 . S
C1019 C1014 1.382 . S
C1019 C1018 1.392 . S
H1020 C1039 0.949 . S
H1021 C1040 0.950 . S
H1022 C1042 0.950 . S
H1023 C1043 0.950 . S
H1024 C1045 0.950 . S
H1025 C1048 0.950 . S
H1026 C1049 0.950 . S
H1027 C1051 0.951 . S
H1028 C1052 0.949 . S
H1029 C1054 0.949 . S
H1030 C1055 0.950 . S
H1031 C1057 0.950 . S
H1032 C1058 0.950 . S
H1033 C1060 0.950 . S
H1034 C1063 0.950 . S
H1035 C1064 0.950 . S
H1036 C1066 0.951 . S
H1037 C1067 0.949 . S
C1038 C1039 1.376 . S
C1038 C1043 1.386 . S
C1038 C1044 1.483 . S
C1039 H1020 0.949 . S
C1039 C1038 1.376 . S
C1039 C1040 1.397 . S
C1040 H1021 0.950 . S
C1040 C1039 1.397 . S
C1040 C1041 1.391 . S
C1041 C1040 1.391 . S
C1041 C1042 1.405 . S
C1042 H1022 0.950 . S
C1042 C1041 1.405 . S
C1042 C1043 1.367 . S
C1043 H1023 0.950 . S
C1043 C1038 1.386 . S
C1043 C1042 1.367 . S
C1044 C1038 1.483 . S
C1044 C1045 1.382 . S
C1044 C1046 1.403 . S
C1045 H1024 0.950 . S
C1045 C1044 1.382 . S
C1045 C1061 1.411 . S
C1046 C1044 1.403 . S
C1046 C1047 1.489 . S
C1046 C1060 1.411 . S
C1047 C1046 1.489 . S
C1047 C1048 1.383 . S
C1047 C1052 1.382 . S
C1048 H1025 0.950 . S
C1048 C1047 1.383 . S
C1048 C1049 1.395 . S
C1049 H1026 0.950 . S
C1049 C1048 1.395 . S
C1049 C1050 1.288 . S
C1050 C1049 1.288 . S
C1050 C1051 1.392 . S
C1051 H1027 0.951 . S
C1051 C1050 1.392 . S
C1051 C1052 1.392 . S
C1052 H1028 0.949 . S
C1052 C1047 1.382 . S
C1052 C1051 1.392 . S
C1053 C1054 1.376 . S
C1053 C1058 1.386 . S
C1053 C1059 1.483 . S
C1054 H1029 0.949 . S
C1054 C1053 1.376 . S
C1054 C1055 1.397 . S
C1055 H1030 0.950 . S
C1055 C1054 1.397 . S
C1055 C1056 1.391 . S
C1056 C1055 1.391 . S
C1056 C1057 1.405 . S
C1057 H1031 0.950 . S
C1057 C1056 1.405 . S
C1057 C1058 1.367 . S
C1058 H1032 0.950 . S
C1058 C1053 1.386 . S
C1058 C1057 1.367 . S
C1059 C1053 1.483 . S
C1059 C1060 1.382 . S
C1059 C1061 1.403 . S
C1060 H1033 0.950 . S
C1060 C1046 1.411 . S
C1060 C1059 1.382 . S
C1061 C1045 1.411 . S
C1061 C1059 1.403 . S
C1061 C1062 1.489 . S
C1062 C1061 1.489 . S
C1062 C1063 1.383 . S
C1062 C1067 1.382 . S
C1063 H1034 0.950 . S
C1063 C1062 1.383 . S
C1063 C1064 1.395 . S
C1064 H1035 0.950 . S
C1064 C1063 1.395 . S
C1064 C1065 1.288 . S
C1065 C1064 1.288 . S
C1065 C1066 1.392 . S
C1066 H1036 0.951 . S
C1066 C1065 1.392 . S
C1066 C1067 1.392 . S
C1067 H1037 0.949 . S
C1067 C1062 1.382 . S
C1067 C1066 1.392 . S
H1068 C1087 0.949 . S
H1069 C1088 0.950 . S
H1070 C1090 0.950 . S
H1071 C1091 0.950 . S
H1072 C1093 0.950 . S
H1073 C1096 0.950 . S
H1074 C1097 0.950 . S
H1075 C1099 0.951 . S
H1076 C1100 0.949 . S
H1077 C1102 0.949 . S
H1078 C1103 0.950 . S
H1079 C1105 0.950 . S
H1080 C1106 0.950 . S
H1081 C1108 0.950 . S
H1082 C1111 0.950 . S
H1083 C1112 0.950 . S
H1084 C1114 0.951 . S
H1085 C1115 0.949 . S
C1086 C1087 1.376 . S
C1086 C1091 1.386 . S
C1086 C1092 1.483 . S
C1087 H1068 0.949 . S
C1087 C1086 1.376 . S
C1087 C1088 1.397 . S
C1088 H1069 0.950 . S
C1088 C1087 1.397 . S
C1088 C1089 1.391 . S
C1089 C1088 1.391 . S
C1089 C1090 1.405 . S
C1090 H1070 0.950 . S
C1090 C1089 1.405 . S
C1090 C1091 1.367 . S
C1091 H1071 0.950 . S
C1091 C1086 1.386 . S
C1091 C1090 1.367 . S
C1092 C1086 1.483 . S
C1092 C1093 1.382 . S
C1092 C1094 1.403 . S
C1093 H1072 0.950 . S
C1093 C1092 1.382 . S
C1093 C1109 1.411 . S
C1094 C1092 1.403 . S
C1094 C1095 1.489 . S
C1094 C1108 1.411 . S
C1095 C1094 1.489 . S
C1095 C1096 1.383 . S
C1095 C1100 1.382 . S
C1096 H1073 0.950 . S
C1096 C1095 1.383 . S
C1096 C1097 1.395 . S
C1097 H1074 0.950 . S
C1097 C1096 1.395 . S
C1097 C1098 1.288 . S
C1098 C1097 1.288 . S
C1098 C1099 1.392 . S
C1099 H1075 0.951 . S
C1099 C1098 1.392 . S
C1099 C1100 1.392 . S
C1100 H1076 0.949 . S
C1100 C1095 1.382 . S
C1100 C1099 1.392 . S
C1101 C1102 1.376 . S
C1101 C1106 1.386 . S
C1101 C1107 1.483 . S
C1102 H1077 0.949 . S
C1102 C1101 1.376 . S
C1102 C1103 1.397 . S
C1103 H1078 0.950 . S
C1103 C1102 1.397 . S
C1103 C1104 1.391 . S
C1104 C1103 1.391 . S
C1104 C1105 1.405 . S
C1105 H1079 0.950 . S
C1105 C1104 1.405 . S
C1105 C1106 1.367 . S
C1106 H1080 0.950 . S
C1106 C1101 1.386 . S
C1106 C1105 1.367 . S
C1107 C1101 1.483 . S
C1107 C1108 1.382 . S
C1107 C1109 1.403 . S
C1108 H1081 0.950 . S
C1108 C1094 1.411 . S
C1108 C1107 1.382 . S
C1109 C1093 1.411 . S
C1109 C1107 1.403 . S
C1109 C1110 1.489 . S
C1110 C1109 1.489 . S
C1110 C1111 1.383 . S
C1110 C1115 1.382 . S
C1111 H1082 0.950 . S
C1111 C1110 1.383 . S
C1111 C1112 1.395 . S
C1112 H1083 0.950 . S
C1112 C1111 1.395 . S
C1112 C1113 1.288 . S
C1113 C1112 1.288 . S
C1113 C1114 1.392 . S
C1114 H1084 0.951 . S
C1114 C1113 1.392 . S
C1114 C1115 1.392 . S
C1115 H1085 0.949 . S
C1115 C1110 1.382 . S
C1115 C1114 1.392 . S
C9 C729 1.527 . S
C19 C777 1.855 . S
C825 C33 1.571 . S
C37 C849 1.563 . S
C5 C921 1.507 . S
C23 C969 1.978 . S
C47 C897 1.540 . S
C945 C65 1.939 . S
C873 C75 1.509 . S
C79 C801 1.496 . S
C705 C51 1.594 . S
C61 C753 1.895 . S
C93 C1017 2.104 . S
C103 C1065 2.008 . S
C1089 C117 1.959 . S
C121 C273 1.934 . S
C89 C345 2.005 . S
C107 C393 2.095 . S
C131 C321 1.924 . S
C149 C369 2.044 . S
C297 C159 1.814 . S
C1113 C163 1.909 . S
C993 C135 2.117 . S
C1041 C145 2.047 . S
C177 C441 2.018 . S
C187 C489 1.955 . S
C201 C513 1.932 . S
C205 C561 2.020 . S
C633 C173 2.043 . S
C681 C191 2.147 . S
C609 C215 2.019 . S
C657 C233 2.097 . S
C243 C585 1.842 . S
C537 C247 1.816 . S
C219 C417 2.076 . S
C465 C229 2.006 . S
C282 C11 1.877 . S
C14 C336 1.816 . S
C384 C28 2.004 . S
C432 C39 1.958 . S
C480 C0 1.888 . S
C522 C25 1.815 . S
C42 C528 2.038 . S
C67 C426 1.753 . S
C70 C474 1.747 . S
C81 C330 1.724 . S
C378 C53 1.856 . S
C56 C288 1.960 . S
C570 C95 1.834 . S
C98 C624 1.864 . S
C112 C672 1.977 . S
C720 C123 1.455 . S
C84 C768 1.800 . S
C109 C816 1.370 . S
C126 C810 1.486 . S
C151 C714 1.419 . S
C762 C154 1.683 . S
C165 C618 1.694 . S
C137 C666 1.827 . S
C576 C140 2.000 . S
C858 C179 1.427 . S
C182 C912 1.405 . S
C196 C960 1.900 . S
C1008 C207 1.897 . S
C1056 C168 1.865 . S
C193 C1098 1.860 . S
C210 C1104 1.987 . S
C235 C1002 1.814 . S
C1050 C238 1.757 . S
C906 C249 1.394 . S
C954 C221 1.756 . S
C224 C864 1.479 . S
