# Generated by pormake.
# Topology eea, (3,6)-cn, num edge types: 1
# Building blocks:
#     Node 0, Type 0, BuildingBlock: BELTOD_clean_linker_0, # of connection points: 3
#     Node 1, Type 0, BuildingBlock: BELTOD_clean_linker_0, # of connection points: 3
#     Node 2, Type 0, BuildingBlock: BELTOD_clean_linker_0, # of connection points: 3
#     Node 3, Type 0, BuildingBlock: BELTOD_clean_linker_0, # of connection points: 3
#     Node 4, Type 0, BuildingBlock: BELTOD_clean_linker_0, # of connection points: 3
#     Node 5, Type 0, BuildingBlock: BELTOD_clean_linker_0, # of connection points: 3
#     Node 6, Type 0, BuildingBlock: BELTOD_clean_linker_0, # of connection points: 3
#     Node 7, Type 0, BuildingBlock: BELTOD_clean_linker_0, # of connection points: 3
#     Node 8, Type 0, BuildingBlock: BELTOD_clean_linker_0, # of connection points: 3
#     Node 9, Type 0, BuildingBlock: BELTOD_clean_linker_0, # of connection points: 3
#     Node 10, Type 0, BuildingBlock: BELTOD_clean_linker_0, # of connection points: 3
#     Node 11, Type 0, BuildingBlock: BELTOD_clean_linker_0, # of connection points: 3
#     Node 12, Type 0, BuildingBlock: BELTOD_clean_linker_0, # of connection points: 3
#     Node 13, Type 0, BuildingBlock: BELTOD_clean_linker_0, # of connection points: 3
#     Node 14, Type 0, BuildingBlock: BELTOD_clean_linker_0, # of connection points: 3
#     Node 15, Type 0, BuildingBlock: BELTOD_clean_linker_0, # of connection points: 3
#     Node 16, Type 0, BuildingBlock: BELTOD_clean_linker_0, # of connection points: 3
#     Node 17, Type 0, BuildingBlock: BELTOD_clean_linker_0, # of connection points: 3
#     Node 18, Type 1, BuildingBlock: CIFDUS_clean_sbu_1, # of connection points: 6
#     Node 19, Type 1, BuildingBlock: CIFDUS_clean_sbu_1, # of connection points: 6
#     Node 20, Type 1, BuildingBlock: CIFDUS_clean_sbu_1, # of connection points: 6
#     Node 21, Type 1, BuildingBlock: CIFDUS_clean_sbu_1, # of connection points: 6
#     Node 22, Type 1, BuildingBlock: CIFDUS_clean_sbu_1, # of connection points: 6
#     Node 23, Type 1, BuildingBlock: CIFDUS_clean_sbu_1, # of connection points: 6
#     Node 24, Type 1, BuildingBlock: CIFDUS_clean_sbu_1, # of connection points: 6
#     Node 25, Type 1, BuildingBlock: CIFDUS_clean_sbu_1, # of connection points: 6
#     Node 26, Type 1, BuildingBlock: CIFDUS_clean_sbu_1, # of connection points: 6
#     Edge 27, Type (0, 1), BuildingBlock: CIFDUS_clean_linker_0, # of connection points: 2
#     Edge 28, Type (0, 1), BuildingBlock: CIFDUS_clean_linker_0, # of connection points: 2
#     Edge 29, Type (0, 1), BuildingBlock: CIFDUS_clean_linker_0, # of connection points: 2
#     Edge 30, Type (0, 1), BuildingBlock: CIFDUS_clean_linker_0, # of connection points: 2
#     Edge 31, Type (0, 1), BuildingBlock: CIFDUS_clean_linker_0, # of connection points: 2
#     Edge 32, Type (0, 1), BuildingBlock: CIFDUS_clean_linker_0, # of connection points: 2
#     Edge 33, Type (0, 1), BuildingBlock: CIFDUS_clean_linker_0, # of connection points: 2
#     Edge 34, Type (0, 1), BuildingBlock: CIFDUS_clean_linker_0, # of connection points: 2
#     Edge 35, Type (0, 1), BuildingBlock: CIFDUS_clean_linker_0, # of connection points: 2
#     Edge 36, Type (0, 1), BuildingBlock: CIFDUS_clean_linker_0, # of connection points: 2
#     Edge 37, Type (0, 1), BuildingBlock: CIFDUS_clean_linker_0, # of connection points: 2
#     Edge 38, Type (0, 1), BuildingBlock: CIFDUS_clean_linker_0, # of connection points: 2
#     Edge 39, Type (0, 1), BuildingBlock: CIFDUS_clean_linker_0, # of connection points: 2
#     Edge 40, Type (0, 1), BuildingBlock: CIFDUS_clean_linker_0, # of connection points: 2
#     Edge 41, Type (0, 1), BuildingBlock: CIFDUS_clean_linker_0, # of connection points: 2
#     Edge 42, Type (0, 1), BuildingBlock: CIFDUS_clean_linker_0, # of connection points: 2
#     Edge 43, Type (0, 1), BuildingBlock: CIFDUS_clean_linker_0, # of connection points: 2
#     Edge 44, Type (0, 1), BuildingBlock: CIFDUS_clean_linker_0, # of connection points: 2
#     Edge 45, Type (0, 1), BuildingBlock: CIFDUS_clean_linker_0, # of connection points: 2
#     Edge 46, Type (0, 1), BuildingBlock: CIFDUS_clean_linker_0, # of connection points: 2
#     Edge 47, Type (0, 1), BuildingBlock: CIFDUS_clean_linker_0, # of connection points: 2
#     Edge 48, Type (0, 1), BuildingBlock: CIFDUS_clean_linker_0, # of connection points: 2
#     Edge 49, Type (0, 1), BuildingBlock: CIFDUS_clean_linker_0, # of connection points: 2
#     Edge 50, Type (0, 1), BuildingBlock: CIFDUS_clean_linker_0, # of connection points: 2
#     Edge 51, Type (0, 1), BuildingBlock: CIFDUS_clean_linker_0, # of connection points: 2
#     Edge 52, Type (0, 1), BuildingBlock: CIFDUS_clean_linker_0, # of connection points: 2
#     Edge 53, Type (0, 1), BuildingBlock: CIFDUS_clean_linker_0, # of connection points: 2
#     Edge 54, Type (0, 1), BuildingBlock: CIFDUS_clean_linker_0, # of connection points: 2
#     Edge 55, Type (0, 1), BuildingBlock: CIFDUS_clean_linker_0, # of connection points: 2
#     Edge 56, Type (0, 1), BuildingBlock: CIFDUS_clean_linker_0, # of connection points: 2
#     Edge 57, Type (0, 1), BuildingBlock: CIFDUS_clean_linker_0, # of connection points: 2
#     Edge 58, Type (0, 1), BuildingBlock: CIFDUS_clean_linker_0, # of connection points: 2
#     Edge 59, Type (0, 1), BuildingBlock: CIFDUS_clean_linker_0, # of connection points: 2
#     Edge 60, Type (0, 1), BuildingBlock: CIFDUS_clean_linker_0, # of connection points: 2
#     Edge 61, Type (0, 1), BuildingBlock: CIFDUS_clean_linker_0, # of connection points: 2
#     Edge 62, Type (0, 1), BuildingBlock: CIFDUS_clean_linker_0, # of connection points: 2
#     Edge 63, Type (0, 1), BuildingBlock: CIFDUS_clean_linker_0, # of connection points: 2
#     Edge 64, Type (0, 1), BuildingBlock: CIFDUS_clean_linker_0, # of connection points: 2
#     Edge 65, Type (0, 1), BuildingBlock: CIFDUS_clean_linker_0, # of connection points: 2
#     Edge 66, Type (0, 1), BuildingBlock: CIFDUS_clean_linker_0, # of connection points: 2
#     Edge 67, Type (0, 1), BuildingBlock: CIFDUS_clean_linker_0, # of connection points: 2
#     Edge 68, Type (0, 1), BuildingBlock: CIFDUS_clean_linker_0, # of connection points: 2
#     Edge 69, Type (0, 1), BuildingBlock: CIFDUS_clean_linker_0, # of connection points: 2
#     Edge 70, Type (0, 1), BuildingBlock: CIFDUS_clean_linker_0, # of connection points: 2
#     Edge 71, Type (0, 1), BuildingBlock: CIFDUS_clean_linker_0, # of connection points: 2
#     Edge 72, Type (0, 1), BuildingBlock: CIFDUS_clean_linker_0, # of connection points: 2
#     Edge 73, Type (0, 1), BuildingBlock: CIFDUS_clean_linker_0, # of connection points: 2
#     Edge 74, Type (0, 1), BuildingBlock: CIFDUS_clean_linker_0, # of connection points: 2
#     Edge 75, Type (0, 1), BuildingBlock: CIFDUS_clean_linker_0, # of connection points: 2
#     Edge 76, Type (0, 1), BuildingBlock: CIFDUS_clean_linker_0, # of connection points: 2
#     Edge 77, Type (0, 1), BuildingBlock: CIFDUS_clean_linker_0, # of connection points: 2
#     Edge 78, Type (0, 1), BuildingBlock: CIFDUS_clean_linker_0, # of connection points: 2
#     Edge 79, Type (0, 1), BuildingBlock: CIFDUS_clean_linker_0, # of connection points: 2
#     Edge 80, Type (0, 1), BuildingBlock: CIFDUS_clean_linker_0, # of connection points: 2
# Relax obj value: 0.094
# Max RMSD: 0.176
# Mean RMSD: 0.087
data_MOF--net-eea--node1-CIFDUS_clean_sbu_1--node2-BELTOD_clean_linker_0--edge1-CIFDUS_clean_linker_0
_symmetry_space_group_name_H-M    P1
_symmetry_Int_Tables_number       1
_symmetry_cell_setting            triclinic
loop_
_symmetry_equiv_pos_as_xyz
'x, y, z'
_cell_length_a     55.344684
_cell_length_b     54.699474
_cell_length_c     54.229905
_cell_angle_alpha  90.369481
_cell_angle_beta   89.963791
_cell_angle_gamma 119.98839
loop_
_atom_site_label
_atom_site_type_symbol
_atom_site_fract_x
_atom_site_fract_y
_atom_site_fract_z
_atom_type_partial_charge
P0 P 0.19719 0.09129 0.419 0.0
H1 H 0.16913 0.0656 0.37284 0.0
H2 H 0.14836 0.01747 0.35702 0.0
H3 H 0.15357 0.98845 0.4297 0.0
H4 H 0.1752 0.03655 0.4451 0.0
H5 H 0.22177 0.15082 0.42963 0.0
H6 H 0.20878 0.18553 0.41797 0.0
H7 H 0.12844 0.11833 0.39308 0.0
H8 H 0.14226 0.08372 0.40404 0.0
H9 H 0.25487 0.11103 0.43342 0.0
H10 H 0.17526 0.07749 0.46959 0.0
O11 O 0.22241 0.10346 0.39785 0.0
H12 H 0.27688 0.1123 0.47223 0.0
H13 H 0.19683 0.0765 0.50872 0.0
C14 C 0.17382 0.05497 0.41016 0.0
C15 C 0.16501 0.04877 0.38555 0.0
C16 C 0.15303 0.0211 0.37653 0.0
C17 C 0.14957 0.999 0.39201 0.0
C18 C 0.1564 0.00499 0.41714 0.0
C19 C 0.16858 0.0327 0.42607 0.0
C20 C 0.1831 0.1147 0.4176 0.0
C21 C 0.20103 0.14349 0.42233 0.0
C22 C 0.19344 0.1634 0.4157 0.0
C23 C 0.16761 0.15494 0.40422 0.0
C24 C 0.14875 0.12576 0.40137 0.0
C25 C 0.15652 0.10584 0.40782 0.0
C26 C 0.21333 0.09386 0.44853 0.0
C27 C 0.24199 0.10364 0.44974 0.0
C28 C 0.25455 0.1039 0.47207 0.0
C29 C 0.23865 0.09376 0.49377 0.0
C30 C 0.20989 0.08454 0.49256 0.0
C31 C 0.19745 0.085 0.47018 0.0
P32 P 0.93131 0.07187 0.45229 0.0
H33 H 0.91518 0.01501 0.43412 0.0
H34 H 0.87226 0.97764 0.41546 0.0
H35 H 0.83786 0.03334 0.41602 0.0
H36 H 0.88002 0.0698 0.4359 0.0
H37 H 0.99153 0.11003 0.45142 0.0
H38 H 0.02187 0.15214 0.4275 0.0
H39 H 0.95004 0.14337 0.38831 0.0
H40 H 0.91984 0.10128 0.41218 0.0
H41 H 0.91512 0.04655 0.50089 0.0
H42 H 0.91686 0.11596 0.46207 0.0
O43 O 0.95024 0.05762 0.46169 0.0
H44 H 0.89285 0.05541 0.53613 0.0
H45 H 0.89461 0.12496 0.49723 0.0
C46 C 0.90097 0.04535 0.43613 0.0
C47 C 0.89843 0.01919 0.43013 0.0
C48 C 0.87386 0.99783 0.4194 0.0
C49 C 0.85149 0.00238 0.41426 0.0
C50 C 0.85437 0.02881 0.42011 0.0
C51 C 0.87874 0.04994 0.43112 0.0
C52 C 0.95336 0.1022 0.4335 0.0
C53 C 0.9823 0.11693 0.43748 0.0
C54 C 0.99968 0.14095 0.42369 0.0
C55 C 0.98841 0.15103 0.40587 0.0
C56 C 0.95937 0.13621 0.40193 0.0
C57 C 0.94204 0.11202 0.41559 0.0
C58 C 0.91836 0.0811 0.47915 0.0
C59 C 0.91117 0.06403 0.50013 0.0
C60 C 0.89828 0.06898 0.52019 0.0
C61 C 0.89191 0.09082 0.51942 0.0
C62 C 0.89899 0.10778 0.49826 0.0
C63 C 0.91208 0.10292 0.47828 0.0
P64 P 0.84693 0.69662 0.38778 0.0
H65 H 0.79997 0.67782 0.35416 0.0
H66 H 0.76992 0.69718 0.34453 0.0
H67 H 0.82548 0.77352 0.38442 0.0
H68 H 0.85582 0.75392 0.39408 0.0
H69 H 0.8895 0.6972 0.41975 0.0
H70 H 0.93865 0.71358 0.4139 0.0
H71 H 0.93621 0.74913 0.34366 0.0
H72 H 0.88669 0.73368 0.35033 0.0
H73 H 0.79921 0.64796 0.4098 0.0
H74 H 0.86648 0.72841 0.43445 0.0
O75 O 0.83587 0.66616 0.37266 0.0
H76 H 0.78351 0.63542 0.45226 0.0
H77 H 0.85178 0.71556 0.47724 0.0
C78 C 0.83029 0.71456 0.37465 0.0
C79 C 0.80631 0.69911 0.36017 0.0
C80 C 0.78901 0.7101 0.35478 0.0
C81 C 0.79528 0.73672 0.36389 0.0
C82 C 0.82032 0.75304 0.377 0.0
C83 C 0.83764 0.74189 0.38251 0.0
C84 C 0.88449 0.71495 0.38586 0.0
C85 C 0.89962 0.70952 0.40354 0.0
C86 C 0.92777 0.71848 0.39992 0.0
C87 C 0.94134 0.73229 0.3781 0.0
C88 C 0.92646 0.73872 0.36074 0.0
C89 C 0.89817 0.72995 0.36456 0.0
C90 C 0.83472 0.68858 0.41913 0.0
C91 C 0.81075 0.66286 0.42442 0.0
C92 C 0.8018 0.65572 0.44875 0.0
C93 C 0.8167 0.67419 0.46833 0.0
C94 C 0.83972 0.70079 0.46272 0.0
C95 C 0.84843 0.70803 0.43827 0.0
P96 P 0.15241 0.2988 0.62132 0.0
H97 H 0.11286 0.26076 0.65814 0.0
H98 H 0.06182 0.23653 0.66077 0.0
H99 H 0.05875 0.26713 0.58818 0.0
H100 H 0.10887 0.28968 0.58528 0.0
H101 H 0.19849 0.31647 0.65628 0.0
H102 H 0.22693 0.29568 0.66813 0.0
H103 H 0.17504 0.22235 0.62334 0.0
H104 H 0.14581 0.24278 0.61221 0.0
H105 H 0.15309 0.34416 0.59308 0.0
H106 H 0.17915 0.28267 0.58179 0.0
O107 O 0.15998 0.32642 0.63956 0.0
H108 H 0.16572 0.36006 0.55081 0.0
H109 H 0.19335 0.29945 0.53997 0.0
C110 C 0.11484 0.27678 0.62141 0.0
C111 C 0.10103 0.26157 0.64257 0.0
C112 C 0.07183 0.24803 0.64417 0.0
C113 C 0.05591 0.24978 0.6247 0.0
C114 C 0.06999 0.26467 0.60339 0.0
C115 C 0.099 0.27789 0.60175 0.0
C116 C 0.16996 0.28111 0.63341 0.0
C117 C 0.19267 0.29557 0.64954 0.0
C118 C 0.20894 0.2837 0.65634 0.0
C119 C 0.20314 0.25748 0.64663 0.0
C120 C 0.17985 0.24259 0.63109 0.0
C121 C 0.16316 0.25419 0.62478 0.0
C122 C 0.16515 0.31225 0.59078 0.0
C123 C 0.16212 0.33448 0.58167 0.0
C124 C 0.16959 0.3437 0.55743 0.0
C125 C 0.18072 0.33117 0.54174 0.0
C126 C 0.18445 0.30936 0.55123 0.0
C127 C 0.1765 0.29984 0.5754 0.0
P128 P 0.87137 0.94323 0.56469 0.0
H129 H 0.89887 0.00482 0.56484 0.0
H130 H 0.88982 0.03839 0.58727 0.0
H131 H 0.82625 0.96974 0.62969 0.0
H132 H 0.83506 0.9363 0.60684 0.0
H133 H 0.84994 0.88439 0.5477 0.0
H134 H 0.84828 0.84355 0.56675 0.0
H135 H 0.87817 0.89038 0.63512 0.0
H136 H 0.88146 0.93178 0.61531 0.0
H137 H 0.86957 0.91997 0.51561 0.0
H138 H 0.82325 0.95156 0.55546 0.0
O139 O 0.90406 0.95894 0.55425 0.0
H140 H 0.83876 0.90935 0.48033 0.0
H141 H 0.79428 0.9439 0.51959 0.0
C142 C 0.86818 0.96811 0.58463 0.0
C143 C 0.88347 0.99708 0.57941 0.0
C144 C 0.87824 0.01628 0.59221 0.0
C145 C 0.8573 0.00679 0.61027 0.0
C146 C 0.84237 0.97776 0.61574 0.0
C147 C 0.84764 0.95861 0.60295 0.0
C148 C 0.86528 0.91126 0.58013 0.0
C149 C 0.85591 0.88596 0.56684 0.0
C150 C 0.85487 0.86233 0.57789 0.0
C151 C 0.86316 0.86334 0.60259 0.0
C152 C 0.8721 0.88869 0.61595 0.0
C153 C 0.87352 0.9124 0.60474 0.0
C154 C 0.8486 0.93614 0.53842 0.0
C155 C 0.85287 0.92482 0.51672 0.0
C156 C 0.83542 0.91924 0.4963 0.0
C157 C 0.81376 0.92576 0.49676 0.0
C158 C 0.81011 0.93785 0.51846 0.0
C159 C 0.82703 0.94256 0.53912 0.0
P160 P 0.12497 0.89341 0.61043 0.0
H161 H 0.18096 0.92533 0.62901 0.0
H162 H 0.2123 0.97508 0.63713 0.0
H163 H 0.1478 0.99339 0.61578 0.0
H164 H 0.11591 0.94261 0.60794 0.0
H165 H 0.0888 0.89709 0.64803 0.0
H166 H 0.0393 0.8649 0.65741 0.0
H167 H 0.03004 0.82111 0.58856 0.0
H168 H 0.07897 0.85314 0.57917 0.0
H169 H 0.13947 0.92641 0.56461 0.0
H170 H 0.13328 0.84887 0.58976 0.0
O171 O 0.13333 0.87578 0.63048 0.0
H172 H 0.15651 0.92041 0.52453 0.0
H173 H 0.14965 0.84243 0.54986 0.0
C174 C 0.14595 0.93021 0.61842 0.0
C175 C 0.17332 0.9399 0.62635 0.0
C176 C 0.19141 0.96851 0.63063 0.0
C177 C 0.18273 0.98834 0.62676 0.0
C178 C 0.15508 0.97862 0.61896 0.0
C179 C 0.13685 0.94968 0.61458 0.0
C180 C 0.08761 0.87782 0.61276 0.0
C181 C 0.07579 0.88136 0.63446 0.0
C182 C 0.04756 0.8629 0.63987 0.0
C183 C 0.03098 0.8404 0.62379 0.0
C184 C 0.04241 0.83822 0.60131 0.0
C185 C 0.07043 0.85671 0.59586 0.0
C186 C 0.13567 0.88837 0.58031 0.0
C187 C 0.14174 0.90809 0.5615 0.0
C188 C 0.15138 0.90458 0.53857 0.0
C189 C 0.15494 0.8812 0.53412 0.0
C190 C 0.14793 0.8611 0.55287 0.0
C191 C 0.13836 0.86464 0.57568 0.0
P192 P 0.86825 0.43071 0.76376 0.0
H193 H 0.84573 0.40526 0.71561 0.0
H194 H 0.83132 0.35795 0.69973 0.0
H195 H 0.82931 0.32908 0.77401 0.0
H196 H 0.84387 0.37612 0.78969 0.0
H197 H 0.89995 0.49114 0.76186 0.0
H198 H 0.88905 0.52767 0.75242 0.0
H199 H 0.80176 0.46459 0.74506 0.0
H200 H 0.8135 0.4275 0.7536 0.0
H201 H 0.91886 0.43945 0.78836 0.0
H202 H 0.83735 0.42385 0.80975 0.0
O203 O 0.89751 0.44172 0.74755 0.0
H204 H 0.93131 0.43994 0.83122 0.0
H205 H 0.84922 0.42295 0.85324 0.0
C206 C 0.84597 0.39452 0.75384 0.0
C207 C 0.84099 0.38847 0.72857 0.0
C208 C 0.83284 0.36135 0.7195 0.0
C209 C 0.82966 0.33981 0.73558 0.0
C210 C 0.83207 0.34529 0.76108 0.0
C211 C 0.84018 0.37234 0.7701 0.0
C212 C 0.85766 0.45656 0.75806 0.0
C213 C 0.87841 0.48506 0.75824 0.0
C214 C 0.87198 0.50612 0.75315 0.0
C215 C 0.84437 0.49944 0.74815 0.0
C216 C 0.8233 0.47068 0.74859 0.0
C217 C 0.82991 0.4494 0.75355 0.0
C218 C 0.8773 0.432 0.79586 0.0
C219 C 0.90353 0.43604 0.80233 0.0
C220 C 0.91048 0.43581 0.82699 0.0
C221 C 0.89116 0.43105 0.84587 0.0
C222 C 0.86471 0.42685 0.83927 0.0
C223 C 0.85788 0.42739 0.81445 0.0
P224 P 0.58702 0.40459 0.77261 0.0
H225 H 0.59076 0.37507 0.72859 0.0
H226 H 0.55596 0.33542 0.70418 0.0
H227 H 0.49235 0.32474 0.75634 0.0
H228 H 0.52661 0.36512 0.77954 0.0
H229 H 0.62552 0.46195 0.78856 0.0
H230 H 0.65906 0.50467 0.76684 0.0
H231 H 0.63064 0.46072 0.69728 0.0
H232 H 0.59605 0.41856 0.71882 0.0
H233 H 0.59267 0.40446 0.82646 0.0
H234 H 0.54471 0.42171 0.77406 0.0
O235 O 0.60879 0.3949 0.78436 0.0
H236 H 0.56904 0.41308 0.86029 0.0
H237 H 0.51913 0.42816 0.80771 0.0
C238 C 0.56117 0.37471 0.7549 0.0
C239 C 0.56914 0.36484 0.73427 0.0
C240 C 0.54926 0.34166 0.72063 0.0
C241 C 0.52108 0.32718 0.7279 0.0
C242 C 0.51356 0.33603 0.74953 0.0
C243 C 0.53334 0.35944 0.76286 0.0
C244 C 0.60822 0.43676 0.7555 0.0
C245 C 0.626 0.46159 0.7686 0.0
C246 C 0.64524 0.48599 0.75619 0.0
C247 C 0.64757 0.48588 0.7304 0.0
C248 C 0.62944 0.46124 0.7172 0.0
C249 C 0.6097 0.43699 0.72961 0.0
C250 C 0.57036 0.41233 0.79773 0.0
C251 C 0.57683 0.40989 0.82222 0.0
C252 C 0.56288 0.41444 0.84164 0.0
C253 C 0.5417 0.42102 0.83702 0.0
C254 C 0.53549 0.42359 0.81227 0.0
C255 C 0.55002 0.41977 0.79289 0.0
P256 P 0.5193 0.04348 0.71906 0.0
H257 H 0.46631 0.02322 0.69434 0.0
H258 H 0.43845 0.04508 0.68469 0.0
H259 H 0.50443 0.12502 0.71231 0.0
H260 H 0.53257 0.10285 0.72175 0.0
H261 H 0.56366 0.05774 0.75593 0.0
H262 H 0.61332 0.07598 0.75195 0.0
H263 H 0.60817 0.08895 0.67408 0.0
H264 H 0.55807 0.07169 0.67847 0.0
H265 H 0.48611 0.98707 0.74015 0.0
H266 H 0.52456 0.0733 0.7657 0.0
O267 O 0.50958 0.01532 0.70089 0.0
H268 H 0.47238 0.97048 0.78215 0.0
H269 H 0.51201 0.05688 0.80819 0.0
C270 C 0.50171 0.06155 0.70832 0.0
C271 C 0.47512 0.04561 0.69782 0.0
C272 C 0.45907 0.05807 0.69252 0.0
C273 C 0.46917 0.08673 0.69787 0.0
C274 C 0.49622 0.10295 0.70777 0.0
C275 C 0.51231 0.09035 0.71316 0.0
C276 C 0.55695 0.06357 0.71754 0.0
C277 C 0.57309 0.06535 0.73812 0.0
C278 C 0.60166 0.07546 0.73573 0.0
C279 C 0.61473 0.08339 0.71258 0.0
C280 C 0.59885 0.08312 0.6922 0.0
C281 C 0.57018 0.07325 0.69469 0.0
C282 C 0.50695 0.03144 0.74988 0.0
C283 C 0.49161 0.00249 0.75481 0.0
C284 C 0.48382 0.99301 0.77893 0.0
C285 C 0.49151 0.0123 0.79871 0.0
C286 C 0.50557 0.04138 0.79347 0.0
C287 C 0.51301 0.05083 0.76921 0.0
P288 P 0.81856 0.62599 0.94817 0.0
H289 H 0.77944 0.58507 0.98372 0.0
H290 H 0.72839 0.56046 0.98686 0.0
H291 H 0.7246 0.59779 0.91797 0.0
H292 H 0.77479 0.62101 0.91458 0.0
H293 H 0.87036 0.6452 0.97524 0.0
H294 H 0.89927 0.6238 0.9824 0.0
H295 H 0.83567 0.546 0.94934 0.0
H296 H 0.80659 0.56755 0.94244 0.0
H297 H 0.82271 0.67379 0.9211 0.0
H298 H 0.84075 0.60681 0.90739 0.0
O299 O 0.82721 0.65348 0.9669 0.0
H300 H 0.83609 0.69023 0.879 0.0
H301 H 0.85582 0.62406 0.86584 0.0
C302 C 0.78101 0.60445 0.94868 0.0
C303 C 0.76745 0.58732 0.96904 0.0
C304 C 0.73828 0.57354 0.97095 0.0
C305 C 0.7222 0.57694 0.95262 0.0
C306 C 0.73604 0.59399 0.93218 0.0
C307 C 0.76502 0.60752 0.93026 0.0
C308 C 0.83618 0.60782 0.95864 0.0
C309 C 0.86221 0.62325 0.97026 0.0
C310 C 0.87875 0.61102 0.97432 0.0
C311 C 0.86974 0.58328 0.96637 0.0
C312 C 0.84315 0.56747 0.95557 0.0
C313 C 0.82643 0.57964 0.95183 0.0
C314 C 0.83091 0.63923 0.91758 0.0
C315 C 0.83013 0.66298 0.90919 0.0
C316 C 0.83804 0.67249 0.88507 0.0
C317 C 0.8473 0.65865 0.86886 0.0
C318 C 0.8485 0.63509 0.87757 0.0
C319 C 0.84009 0.62531 0.90157 0.0
P320 P 0.53926 0.2725 0.88681 0.0
H321 H 0.56363 0.33382 0.88383 0.0
H322 H 0.5535 0.36693 0.90591 0.0
H323 H 0.4974 0.29939 0.95382 0.0
H324 H 0.50663 0.26647 0.93105 0.0
H325 H 0.5151 0.21215 0.87404 0.0
H326 H 0.50692 0.17094 0.89833 0.0
H327 H 0.54805 0.22552 0.96072 0.0
H328 H 0.55624 0.26648 0.93644 0.0
H329 H 0.53966 0.29343 0.83725 0.0
H330 H 0.47912 0.2334 0.88761 0.0
O331 O 0.57039 0.28779 0.87314 0.0
H332 H 0.50231 0.28529 0.8085 0.0
H333 H 0.44167 0.22443 0.85871 0.0
C334 C 0.53654 0.29784 0.90627 0.0
C335 C 0.54967 0.32636 0.89948 0.0
C336 C 0.54385 0.34528 0.9121 0.0
C337 C 0.52454 0.33583 0.93158 0.0
C338 C 0.51209 0.30735 0.93869 0.0
C339 C 0.5177 0.28851 0.92594 0.0
C340 C 0.53514 0.24225 0.90381 0.0
C341 C 0.52241 0.21525 0.89294 0.0
C342 C 0.51806 0.19174 0.9067 0.0
C343 C 0.52656 0.19497 0.93151 0.0
C344 C 0.54093 0.22233 0.94175 0.0
C345 C 0.54544 0.24574 0.92794 0.0
C346 C 0.51224 0.26325 0.86415 0.0
C347 C 0.51837 0.27796 0.84184 0.0
C348 C 0.49695 0.27336 0.82546 0.0
C349 C 0.46893 0.25414 0.83123 0.0
C350 C 0.46294 0.2396 0.85375 0.0
C351 C 0.48438 0.24431 0.87013 0.0
P352 P 0.78693 0.23949 0.92619 0.0
H353 H 0.83533 0.25943 0.95841 0.0
H354 H 0.86881 0.30591 0.9742 0.0
H355 H 0.82029 0.34021 0.94313 0.0
H356 H 0.78632 0.29296 0.92718 0.0
H357 H 0.7597 0.20414 0.96849 0.0
H358 H 0.71082 0.17343 0.97909 0.0
H359 H 0.68641 0.20676 0.918 0.0
H360 H 0.7357 0.23755 0.90745 0.0
H361 H 0.83273 0.28128 0.89612 0.0
H362 H 0.75263 0.20672 0.88387 0.0
O363 O 0.7991 0.21795 0.93322 0.0
H364 H 0.84328 0.28268 0.85228 0.0
H365 H 0.76297 0.20844 0.83989 0.0
C366 C 0.80829 0.27272 0.94166 0.0
C367 C 0.83151 0.27672 0.95522 0.0
C368 C 0.85086 0.30343 0.96404 0.0
C369 C 0.84744 0.32678 0.95947 0.0
C370 C 0.82346 0.32258 0.94683 0.0
C371 C 0.80404 0.29566 0.93784 0.0
C372 C 0.75125 0.22235 0.93667 0.0
C373 C 0.74386 0.20524 0.95762 0.0
C374 C 0.71584 0.18781 0.96381 0.0
C375 C 0.69461 0.18726 0.94917 0.0
C376 C 0.70224 0.2063 0.92938 0.0
C377 C 0.73039 0.22389 0.92331 0.0
C378 C 0.79142 0.24442 0.89329 0.0
C379 C 0.81691 0.26583 0.88394 0.0
C380 C 0.82306 0.26656 0.85886 0.0
C381 C 0.80385 0.24585 0.84266 0.0
C382 C 0.77791 0.22505 0.85187 0.0
C383 C 0.77193 0.22411 0.87703 0.0
P384 P 0.54759 0.77172 0.08485 0.0
H385 H 0.52649 0.74263 0.03766 0.0
H386 H 0.50848 0.69332 0.0259 0.0
H387 H 0.50129 0.67057 0.10272 0.0
H388 H 0.51853 0.71973 0.11444 0.0
H389 H 0.55706 0.82066 0.11523 0.0
H390 H 0.54583 0.85744 0.10928 0.0
H391 H 0.50138 0.81606 0.04228 0.0
H392 H 0.5099 0.77722 0.05027 0.0
H393 H 0.595 0.76479 0.09646 0.0
H394 H 0.53467 0.7767 0.13697 0.0
O395 O 0.57277 0.78425 0.06366 0.0
H396 H 0.61852 0.76614 0.13469 0.0
H397 H 0.55971 0.78129 0.17517 0.0
C398 C 0.52436 0.73509 0.0769 0.0
C399 C 0.51992 0.72691 0.05201 0.0
C400 C 0.50965 0.69865 0.04531 0.0
C401 C 0.50391 0.67815 0.06342 0.0
C402 C 0.50588 0.68598 0.08838 0.0
C403 C 0.51573 0.71417 0.09506 0.0
C404 C 0.53333 0.79519 0.08385 0.0
C405 C 0.54338 0.81833 0.1001 0.0
C406 C 0.53762 0.84012 0.09617 0.0
C407 C 0.52312 0.84043 0.07494 0.0
C408 C 0.51223 0.8167 0.05906 0.0
C409 C 0.51718 0.79431 0.06357 0.0
C410 C 0.56419 0.77252 0.11372 0.0
C411 C 0.58723 0.76844 0.11361 0.0
C412 C 0.60074 0.76932 0.13559 0.0
C413 C 0.59179 0.77482 0.15821 0.0
C414 C 0.56748 0.77708 0.15831 0.0
C415 C 0.55343 0.77519 0.13632 0.0
P416 P 0.25344 0.73712 0.10923 0.0
H417 H 0.236 0.67709 0.11153 0.0
H418 H 0.20085 0.63571 0.08855 0.0
H419 H 0.18228 0.68983 0.04461 0.0
H420 H 0.21787 0.73115 0.06712 0.0
H421 H 0.28162 0.74624 0.06158 0.0
H422 H 0.31057 0.78884 0.03733 0.0
H423 H 0.29885 0.83906 0.09274 0.0
H424 H 0.2701 0.79674 0.11662 0.0
H425 H 0.20711 0.74816 0.10516 0.0
H426 H 0.25488 0.73896 0.16344 0.0
O427 O 0.27605 0.72999 0.12319 0.0
H428 H 0.18068 0.7582 0.13555 0.0
H429 H 0.22912 0.7499 0.194 0.0
C430 C 0.22978 0.70719 0.09077 0.0
C431 C 0.22471 0.6801 0.09666 0.0
C432 C 0.20463 0.6565 0.08362 0.0
C433 C 0.18891 0.65968 0.06492 0.0
C434 C 0.19404 0.68685 0.05908 0.0
C435 C 0.21442 0.71044 0.07184 0.0
C436 C 0.27311 0.76817 0.09061 0.0
C437 C 0.28504 0.76642 0.0683 0.0
C438 C 0.30172 0.79079 0.05455 0.0
C439 C 0.30679 0.81734 0.06295 0.0
C440 C 0.29487 0.8189 0.08542 0.0
C441 C 0.27839 0.79463 0.09916 0.0
C442 C 0.23296 0.7428 0.132 0.0
C443 C 0.21174 0.74802 0.12451 0.0
C444 C 0.19674 0.75394 0.14194 0.0
C445 C 0.20282 0.75497 0.16724 0.0
C446 C 0.22361 0.74891 0.17471 0.0
C447 C 0.23856 0.7429 0.15722 0.0
P448 P 0.18866 0.37347 0.05627 0.0
H449 H 0.13358 0.34995 0.03426 0.0
H450 H 0.10436 0.37022 0.0241 0.0
H451 H 0.17057 0.45251 0.04693 0.0
H452 H 0.19995 0.43203 0.05682 0.0
H453 H 0.22363 0.37637 0.01465 0.0
H454 H 0.27424 0.40037 0.00924 0.0
H455 H 0.28522 0.44327 0.07905 0.0
H456 H 0.23458 0.4188 0.08449 0.0
H457 H 0.21322 0.35127 0.09025 0.0
H458 H 0.15069 0.3763 0.09343 0.0
O459 O 0.17732 0.34308 0.04097 0.0
H460 H 0.20418 0.33677 0.13328 0.0
H461 H 0.14117 0.36131 0.13648 0.0
C462 C 0.16908 0.38958 0.04589 0.0
C463 C 0.14205 0.37246 0.03662 0.0
C464 C 0.12527 0.38402 0.03101 0.0
C465 C 0.13515 0.41294 0.03476 0.0
C466 C 0.16254 0.43022 0.04354 0.0
C467 C 0.17932 0.41856 0.04924 0.0
C468 C 0.22544 0.39526 0.05027 0.0
C469 C 0.23693 0.39125 0.02862 0.0
C470 C 0.26589 0.40517 0.02545 0.0
C471 C 0.28379 0.42342 0.04388 0.0
C472 C 0.27201 0.42892 0.06472 0.0
C473 C 0.24307 0.415 0.06785 0.0
C474 C 0.18282 0.36501 0.08862 0.0
C475 C 0.19762 0.35376 0.10026 0.0
C476 C 0.19224 0.34525 0.12482 0.0
C477 C 0.17169 0.34757 0.13827 0.0
C478 C 0.1572 0.35937 0.12669 0.0
C479 C 0.16262 0.36789 0.102 0.0
P480 P 0.47672 0.95985 0.28437 0.0
H481 H 0.44775 0.95148 0.33101 0.0
H482 H 0.3987 0.92311 0.34264 0.0
H483 H 0.37943 0.88472 0.27011 0.0
H484 H 0.42871 0.91265 0.25889 0.0
H485 H 0.53252 0.9938 0.30462 0.0
H486 H 0.56904 0.98329 0.31542 0.0
H487 H 0.51398 0.89547 0.29706 0.0
H488 H 0.47703 0.90619 0.28652 0.0
H489 H 0.44292 0.97071 0.25019 0.0
H490 H 0.51685 0.9633 0.24637 0.0
O491 O 0.48441 0.99066 0.29737 0.0
H492 H 0.44853 0.9843 0.20693 0.0
H493 H 0.523 0.97763 0.20309 0.0
C494 C 0.44172 0.93469 0.2939 0.0
C495 C 0.43303 0.9366 0.31775 0.0
C496 C 0.40494 0.92049 0.32433 0.0
C497 C 0.38499 0.90204 0.30716 0.0
C498 C 0.39419 0.89869 0.28381 0.0
C499 C 0.42237 0.91482 0.27728 0.0
C500 C 0.50196 0.9507 0.29507 0.0
C501 C 0.52803 0.97217 0.30334 0.0
C502 C 0.54899 0.96617 0.30937 0.0
C503 C 0.54443 0.93857 0.30702 0.0
C504 C 0.51799 0.91687 0.29933 0.0
C505 C 0.49693 0.92296 0.29324 0.0
C506 C 0.47918 0.96561 0.2515 0.0
C507 C 0.46015 0.97161 0.23994 0.0
C508 C 0.46359 0.9797 0.21525 0.0
C509 C 0.48645 0.98242 0.2016 0.0
C510 C 0.5051 0.97559 0.21301 0.0
C511 C 0.50159 0.96741 0.23782 0.0
P512 P 0.21176 0.60512 0.22697 0.0
H513 H 0.23169 0.66566 0.2236 0.0
H514 H 0.21925 0.69672 0.24627 0.0
H515 H 0.16898 0.62823 0.29581 0.0
H516 H 0.18013 0.59723 0.27233 0.0
H517 H 0.18904 0.54505 0.21382 0.0
H518 H 0.18185 0.50405 0.2379 0.0
H519 H 0.22295 0.55877 0.3002 0.0
H520 H 0.23027 0.59957 0.2761 0.0
H521 H 0.21099 0.6255 0.17739 0.0
H522 H 0.1521 0.56446 0.22814 0.0
O523 O 0.24287 0.62186 0.2133 0.0
H524 H 0.17293 0.61613 0.14903 0.0
H525 H 0.114 0.55424 0.19964 0.0
C526 C 0.20757 0.62936 0.24674 0.0
C527 C 0.21847 0.6576 0.23969 0.0
C528 C 0.21132 0.67534 0.25265 0.0
C529 C 0.19293 0.66499 0.27279 0.0
C530 C 0.18278 0.63686 0.28014 0.0
C531 C 0.1896 0.61915 0.267 0.0
C532 C 0.20902 0.5752 0.24356 0.0
C533 C 0.19663 0.54824 0.23262 0.0
C534 C 0.19284 0.52487 0.24627 0.0
C535 C 0.20156 0.52819 0.271 0.0
C536 C 0.21573 0.55554 0.28126 0.0
C537 C 0.21972 0.57884 0.26756 0.0
C538 C 0.18446 0.59494 0.20445 0.0
C539 C 0.18993 0.60954 0.18213 0.0
C540 C 0.1681 0.60424 0.16598 0.0
C541 C 0.14034 0.58441 0.17201 0.0
C542 C 0.13504 0.5699 0.1945 0.0
C543 C 0.15686 0.57532 0.21064 0.0
P544 P 0.47241 0.57151 0.26901 0.0
H545 H 0.47103 0.60451 0.31056 0.0
H546 H 0.49834 0.65497 0.31966 0.0
H547 H 0.52788 0.67068 0.24449 0.0
H548 H 0.50069 0.62028 0.23554 0.0
H549 H 0.44305 0.5231 0.30152 0.0
H550 H 0.39393 0.49154 0.3105 0.0
H551 H 0.37154 0.53842 0.26082 0.0
H552 H 0.42127 0.57069 0.25223 0.0
H553 H 0.52425 0.57761 0.25055 0.0
H554 H 0.4426 0.55216 0.22115 0.0
O555 O 0.4905 0.56461 0.2897 0.0
H556 H 0.53937 0.57083 0.21012 0.0
H557 H 0.45746 0.54483 0.18058 0.0
C558 C 0.48405 0.60852 0.27253 0.0
C559 C 0.48257 0.61892 0.2958 0.0
C560 C 0.49817 0.64784 0.30095 0.0
C561 C 0.51562 0.6668 0.28286 0.0
C562 C 0.51498 0.65654 0.25889 0.0
C563 C 0.49932 0.62763 0.25377 0.0
C564 C 0.43588 0.54927 0.27613 0.0
C565 C 0.42772 0.52696 0.29274 0.0
C566 C 0.39956 0.50896 0.29803 0.0
C567 C 0.37886 0.51259 0.28651 0.0
C568 C 0.38705 0.53513 0.26998 0.0
C569 C 0.4154 0.55349 0.26501 0.0
C570 C 0.48205 0.56461 0.23908 0.0
C571 C 0.50942 0.57015 0.23545 0.0
C572 C 0.51808 0.56635 0.21228 0.0
C573 C 0.49959 0.5571 0.19213 0.0
C574 C 0.4723 0.55218 0.19568 0.0
C575 C 0.46364 0.55602 0.21896 0.0
O576 O 0.45636 0.96631 0.00473 0.0
Mn577 Mn 0.49514 0.00379 0.00056 0.0
O578 O 0.42553 0.97881 0.01776 0.0
Mn579 Mn 0.45245 0.01463 0.02754 0.0
O580 O 0.53367 0.04108 0.99656 0.0
O581 O 0.51351 0.97984 0.99725 0.0
Mn582 Mn 0.53568 0.99161 0.97132 0.0
O583 O 0.48808 0.00254 0.9622 0.0
O584 O 0.56197 0.02927 0.97634 0.0
O585 O 0.50146 0.00462 0.03884 0.0
O586 O 0.47138 0.01604 0.05616 0.0
O587 O 0.53971 0.96295 0.98436 0.0
O588 O 0.5129 0.98502 0.94439 0.0
C589 C 0.47227 0.04888 0.00214 0.0
C590 C 0.43134 0.96013 0.01061 0.0
C591 C 0.55719 0.04742 0.98664 0.0
C592 C 0.52152 0.96144 1.00021 0.0
C593 C 0.4952 0.99337 0.94318 0.0
C594 C 0.49081 0.01001 0.0578 0.0
O595 O 0.47775 0.02851 0.00407 0.0
O596 O 0.45257 0.04639 0.01664 0.0
O597 O 0.02144 0.47562 0.01944 0.0
Mn598 Mn 0.00422 0.50121 0.01341 0.0
O599 O 0.00369 0.45369 0.05575 0.0
Mn600 Mn 0.98284 0.47083 0.06427 0.0
O601 O 0.98699 0.52656 0.00732 0.0
O602 O 0.03554 0.5258 0.9912 0.0
Mn603 Mn 0.02449 0.52913 0.96177 0.0
O604 O 0.98104 0.47601 0.98329 0.0
O605 O 0.99862 0.54119 0.96791 0.0
O606 O 0.02773 0.52597 0.0434 0.0
O607 O 0.00418 0.50639 0.07834 0.0
O608 O 0.06268 0.55506 0.96422 0.0
O609 O 0.00829 0.49255 0.9499 0.0
C610 C 0.9472 0.45843 0.0402 0.0
C611 C 0.01912 0.45854 0.03669 0.0
C612 C 0.98534 0.53904 0.98793 0.0
C613 C 0.05993 0.54658 0.98675 0.0
C614 C 0.98669 0.47349 0.96072 0.0
C615 C 0.02511 0.52591 0.06702 0.0
O616 O 0.97257 0.47705 0.03555 0.0
O617 O 0.9439 0.44936 0.06259 0.0
O618 O 0.54678 0.51886 0.9946 0.0
Mn619 Mn 0.50376 0.50239 0.9983 0.0
O620 O 0.56071 0.55163 0.96466 0.0
Mn621 Mn 0.52594 0.54737 0.95751 0.0
O622 O 0.46069 0.48572 0.00244 0.0
O623 O 0.50044 0.46658 0.01118 0.0
Mn624 Mn 0.48286 0.45744 0.0395 0.0
O625 O 0.50969 0.51996 0.03413 0.0
O626 O 0.44828 0.45406 0.03323 0.0
O627 O 0.49779 0.48452 0.96248 0.0
O628 O 0.50506 0.51853 0.93568 0.0
O629 O 0.48979 0.42861 0.03151 0.0
O630 O 0.50513 0.48658 0.06068 0.0
C631 C 0.50568 0.56119 0.98286 0.0
C632 C 0.56561 0.53741 0.98047 0.0
C633 C 0.44254 0.46768 0.01743 0.0
C634 C 0.50093 0.44329 0.01187 0.0
C635 C 0.51135 0.51183 0.05603 0.0
C636 C 0.4977 0.493 0.94036 0.0
O637 O 0.50718 0.53847 0.98536 0.0
O638 O 0.51753 0.57549 0.96321 0.0
O639 O 0.13539 0.30143 0.34487 0.0
Mn640 Mn 0.17413 0.33813 0.33972 0.0
O641 O 0.10633 0.31409 0.36189 0.0
Mn642 Mn 0.13431 0.35035 0.3698 0.0
O643 O 0.21336 0.3743 0.33466 0.0
O644 O 0.19053 0.31297 0.33475 0.0
Mn645 Mn 0.21196 0.323 0.30852 0.0
O646 O 0.16572 0.33734 0.30162 0.0
O647 O 0.23976 0.36005 0.31412 0.0
O648 O 0.18213 0.33851 0.37768 0.0
O649 O 0.15536 0.3528 0.39721 0.0
O650 O 0.21247 0.29201 0.32138 0.0
O651 O 0.1887 0.31847 0.28242 0.0
C652 C 0.15202 0.38397 0.34368 0.0
C653 C 0.11124 0.29535 0.35313 0.0
C654 C 0.23638 0.37912 0.32452 0.0
C655 C 0.19562 0.29258 0.33762 0.0
C656 C 0.17176 0.32786 0.28213 0.0
C657 C 0.1738 0.34537 0.39736 0.0
O658 O 0.15781 0.36373 0.34477 0.0
O659 O 0.13343 0.3817 0.35946 0.0
O660 O 0.69898 0.82519 0.34591 0.0
Mn661 Mn 0.67612 0.8459 0.34367 0.0
O662 O 0.68088 0.795 0.37784 0.0
Mn663 Mn 0.65501 0.80518 0.38851 0.0
O664 O 0.65308 0.86657 0.34127 0.0
O665 O 0.708 0.87791 0.32641 0.0
Mn666 Mn 0.69789 0.88755 0.29928 0.0
O667 O 0.65853 0.82558 0.30986 0.0
O668 O 0.67158 0.89715 0.30966 0.0
O669 O 0.6943 0.86626 0.37728 0.0
O670 O 0.66974 0.83717 0.40816 0.0
O671 O 0.73591 0.91234 0.30306 0.0
O672 O 0.68374 0.85566 0.27964 0.0
C673 C 0.61957 0.79275 0.36481 0.0
C674 C 0.69818 0.806 0.36005 0.0
C675 C 0.65381 0.88571 0.32705 0.0
C676 C 0.73288 0.89855 0.32317 0.0
C677 C 0.66489 0.83146 0.28695 0.0
C678 C 0.689 0.86087 0.40038 0.0
O679 O 0.64417 0.81391 0.36118 0.0
O680 O 0.61709 0.78004 0.38547 0.0
O681 O 0.20885 0.84274 0.33959 0.0
Mn682 Mn 0.16542 0.82396 0.34233 0.0
O683 O 0.2221 0.87629 0.31029 0.0
Mn684 Mn 0.18664 0.86815 0.30027 0.0
O685 O 0.12206 0.80545 0.34506 0.0
O686 O 0.16367 0.78958 0.35682 0.0
Mn687 Mn 0.14392 0.77906 0.38399 0.0
O688 O 0.16922 0.84197 0.37761 0.0
O689 O 0.10875 0.77256 0.37481 0.0
O690 O 0.16141 0.80536 0.3074 0.0
O691 O 0.16894 0.83785 0.27879 0.0
O692 O 0.15378 0.75195 0.37712 0.0
O693 O 0.16313 0.80903 0.40549 0.0
C694 C 0.16443 0.88038 0.32533 0.0
C695 C 0.22758 0.86292 0.32655 0.0
C696 C 0.10323 0.78588 0.35852 0.0
C697 C 0.16527 0.76692 0.35771 0.0
C698 C 0.16939 0.83413 0.39996 0.0
C699 C 0.1623 0.81277 0.28478 0.0
O700 O 0.16704 0.85834 0.3276 0.0
O701 O 0.17508 0.89425 0.30524 0.0
O702 O 0.78839 0.63713 0.67738 0.0
Mn703 Mn 0.83011 0.66622 0.66891 0.0
O704 O 0.77233 0.66078 0.69972 0.0
Mn705 Mn 0.8061 0.69438 0.70247 0.0
O706 O 0.87209 0.69548 0.66091 0.0
O707 O 0.83613 0.63281 0.6637 0.0
Mn708 Mn 0.85521 0.63865 0.6362 0.0
O709 O 0.81948 0.66623 0.63159 0.0
O710 O 0.88915 0.67131 0.64087 0.0
O711 O 0.84073 0.6661 0.70608 0.0
O712 O 0.82954 0.69467 0.72685 0.0
O713 O 0.84933 0.60465 0.64754 0.0
O714 O 0.83352 0.6398 0.61094 0.0
C715 C 0.82288 0.72248 0.67207 0.0
C716 C 0.76888 0.63814 0.68949 0.0
C717 C 0.89232 0.694 0.65066 0.0
C718 C 0.83654 0.60933 0.66534 0.0
C719 C 0.82127 0.65424 0.6117 0.0
C720 C 0.84056 0.6791 0.72587 0.0
O721 O 0.82375 0.69931 0.67422 0.0
O722 O 0.8108 0.72769 0.69014 0.0
O723 O 0.35417 0.14768 0.6784 0.0
Mn724 Mn 0.3363 0.17247 0.67088 0.0
O725 O 0.33612 0.12653 0.71488 0.0
Mn726 Mn 0.31435 0.14311 0.72175 0.0
O727 O 0.31844 0.19716 0.66274 0.0
O728 O 0.36858 0.19717 0.64951 0.0
Mn729 Mn 0.35888 0.19973 0.6194 0.0
O730 O 0.31436 0.14692 0.64063 0.0
O731 O 0.33325 0.21229 0.6239 0.0
O732 O 0.35873 0.19788 0.70103 0.0
O733 O 0.33447 0.17883 0.73567 0.0
O734 O 0.3971 0.22518 0.62248 0.0
O735 O 0.34258 0.16296 0.60786 0.0
C736 C 0.27865 0.12867 0.69764 0.0
C737 C 0.35205 0.13129 0.69621 0.0
C738 C 0.31817 0.20973 0.64279 0.0
C739 C 0.39337 0.21736 0.64525 0.0
C740 C 0.32027 0.14436 0.61816 0.0
C741 C 0.35564 0.1982 0.72455 0.0
O742 O 0.30383 0.14773 0.69242 0.0
O743 O 0.27568 0.12081 0.7204 0.0
O744 O 0.88059 0.19153 0.66683 0.0
Mn745 Mn 0.83743 0.17223 0.67131 0.0
O746 O 0.89008 0.21756 0.63218 0.0
Mn747 Mn 0.8539 0.20976 0.62485 0.0
O748 O 0.79421 0.15304 0.67575 0.0
O749 O 0.83751 0.14026 0.68878 0.0
Mn750 Mn 0.81984 0.13273 0.71701 0.0
O751 O 0.84265 0.19415 0.70454 0.0
O752 O 0.78383 0.12468 0.70883 0.0
O753 O 0.83252 0.14985 0.63836 0.0
O754 O 0.83343 0.17671 0.60698 0.0
O755 O 0.83029 0.10557 0.71207 0.0
O756 O 0.84015 0.16553 0.73531 0.0
C757 C 0.83385 0.22552 0.64918 0.0
C758 C 0.89756 0.20783 0.65024 0.0
C759 C 0.77667 0.13536 0.69131 0.0
C760 C 0.84015 0.11838 0.69142 0.0
C761 C 0.84509 0.18949 0.72738 0.0
C762 C 0.83001 0.1535 0.61531 0.0
O763 O 0.83734 0.20435 0.65369 0.0
O764 O 0.84297 0.23665 0.62778 0.0
H765 H 0.35669 0.83265 0.04052 0.0
H766 H 0.29785 0.86117 0.05391 0.0
H767 H 0.32993 0.90677 0.03574 0.0
H768 H 0.37627 0.94002 0.02011 0.0
H769 H 0.4358 0.91252 0.00733 0.0
H770 H 0.40166 0.86483 0.02041 0.0
C771 C 0.35066 0.84864 0.03901 0.0
C772 C 0.32503 0.8436 0.04895 0.0
C773 C 0.36938 0.87503 0.02867 0.0
C774 C 0.31766 0.86467 0.04692 0.0
C775 C 0.33595 0.89072 0.03641 0.0
C776 C 0.38176 0.92355 0.01977 0.0
C777 C 0.40895 0.93008 0.01308 0.0
C778 C 0.36215 0.8964 0.02786 0.0
C779 C 0.41528 0.90821 0.01251 0.0
C780 C 0.39572 0.88094 0.02017 0.0
H781 H 0.08167 0.39007 0.04992 0.0
H782 H 0.14639 0.46202 0.0118 0.0
H783 H 0.11531 0.48158 0.00727 0.0
H784 H 0.07024 0.47896 0.01574 0.0
H785 H 0.00665 0.40766 0.05551 0.0
H786 H 0.03659 0.38677 0.05733 0.0
C787 C 0.08885 0.40982 0.04028 0.0
C788 C 0.11622 0.42451 0.03109 0.0
C789 C 0.07103 0.42099 0.03799 0.0
C790 C 0.12544 0.45041 0.01915 0.0
C791 C 0.10765 0.46152 0.01647 0.0
C792 C 0.06282 0.45864 0.02445 0.0
C793 C 0.03626 0.4448 0.03541 0.0
C794 C 0.08046 0.44709 0.026 0.0
C795 C 0.02705 0.41873 0.047 0.0
C796 C 0.04416 0.4068 0.04808 0.0
H797 H 0.46918 0.64155 0.02827 0.0
H798 H 0.53138 0.65267 0.08192 0.0
H799 H 0.53358 0.61262 0.06436 0.0
H800 H 0.52417 0.58038 0.02893 0.0
H801 H 0.46256 0.56979 0.97507 0.0
H802 H 0.45344 0.60323 0.99752 0.0
C803 C 0.48272 0.63475 0.03642 0.0
C804 C 0.50031 0.65025 0.05615 0.0
C805 C 0.48409 0.61183 0.02606 0.0
C806 C 0.51757 0.64106 0.06675 0.0
C807 C 0.51901 0.61827 0.05659 0.0
C808 C 0.50777 0.58436 0.02291 0.0
C809 C 0.49359 0.57229 0.00076 0.0
C810 C 0.50319 0.60421 0.03564 0.0
C811 C 0.47324 0.57846 0.99242 0.0
C812 C 0.46829 0.59784 0.00508 0.0
H813 H 0.84114 0.36669 0.9847 0.0
H814 H 0.90321 0.35059 0.95256 0.0
H815 H 0.94026 0.39293 0.97229 0.0
H816 H 0.95416 0.42933 0.00406 0.0
H817 H 0.89331 0.44657 0.03658 0.0
H818 H 0.85638 0.40875 0.01159 0.0
C819 C 0.86281 0.37292 0.98156 0.0
C820 C 0.86944 0.35523 0.9677 0.0
C821 C 0.88411 0.39726 0.99322 0.0
C822 C 0.8976 0.36352 0.96368 0.0
C823 C 0.91879 0.38773 0.97491 0.0
C824 C 0.93314 0.42603 0.00449 0.0
C825 C 0.92657 0.44148 0.02118 0.0
C826 C 0.91223 0.40413 0.99041 0.0
C827 C 0.89884 0.4354 0.02322 0.0
C828 C 0.87777 0.41366 0.00911 0.0
H829 H 0.69141 0.57032 0.99446 0.0
H830 H 0.6831 0.55418 0.91593 0.0
H831 H 0.63389 0.53986 0.91803 0.0
H832 H 0.59404 0.5354 0.94138 0.0
H833 H 0.60032 0.54791 0.0201 0.0
H834 H 0.6494 0.55962 0.01886 0.0
C835 C 0.67876 0.5631 0.97788 0.0
C836 C 0.69131 0.56408 0.95494 0.0
C837 C 0.65014 0.5544 0.97923 0.0
C838 C 0.67438 0.55458 0.93371 0.0
C839 C 0.64612 0.5462 0.93488 0.0
C840 C 0.60617 0.54049 0.95827 0.0
C841 C 0.59396 0.54131 0.98073 0.0
C842 C 0.63399 0.54673 0.95739 0.0
C843 C 0.60949 0.54732 0.00261 0.0
C844 C 0.6375 0.55409 0.00185 0.0
H845 H 0.53176 0.1477 0.92404 0.0
H846 H 0.50046 0.18603 0.97519 0.0
H847 H 0.48257 0.14495 0.00165 0.0
H848 H 0.47374 0.09782 0.00955 0.0
H849 H 0.5057 0.05821 0.96079 0.0
H850 H 0.52575 0.10016 0.93421 0.0
C851 C 0.52113 0.14698 0.94105 0.0
C852 C 0.51747 0.16997 0.94765 0.0
C853 C 0.51099 0.12312 0.95651 0.0
C854 C 0.50382 0.16885 0.96981 0.0
C855 C 0.49346 0.14529 0.98491 0.0
C856 C 0.48512 0.09822 0.99312 0.0
C857 C 0.48759 0.07458 0.98683 0.0
C858 C 0.49666 0.12228 0.97833 0.0
C859 C 0.50308 0.0759 0.96584 0.0
C860 C 0.51451 0.09991 0.95065 0.0
H861 H 0.6655 0.1669 0.99239 0.0
H862 H 0.65769 0.15537 0.91336 0.0
H863 H 0.61273 0.11263 0.91822 0.0
H864 H 0.57858 0.07533 0.94481 0.0
H865 H 0.58534 0.08557 0.02372 0.0
H866 H 0.62769 0.13198 0.01914 0.0
C867 C 0.65376 0.1552 0.97624 0.0
C868 C 0.66515 0.16433 0.95253 0.0
C869 C 0.62789 0.13025 0.97918 0.0
C870 C 0.64944 0.14912 0.93179 0.0
C871 C 0.62379 0.12446 0.93455 0.0
C872 C 0.58912 0.08804 0.96096 0.0
C873 C 0.57923 0.07719 0.98454 0.0
C874 C 0.61327 0.1144 0.95812 0.0
C875 C 0.5927 0.09369 0.0054 0.0
C876 C 0.61695 0.12007 0.00275 0.0
H877 H 0.90169 0.58443 0.00509 0.0
H878 H 0.88174 0.55746 0.92925 0.0
H879 H 0.91648 0.54238 0.92903 0.0
H880 H 0.95322 0.5378 0.95003 0.0
H881 H 0.97185 0.56235 0.02645 0.0
H882 H 0.93721 0.57781 0.02678 0.0
C883 C 0.90495 0.57517 0.98858 0.0
C884 C 0.88918 0.57203 0.96723 0.0
C885 C 0.92492 0.56645 0.98861 0.0
C886 C 0.89338 0.55977 0.946 0.0
C887 C 0.91341 0.55138 0.94579 0.0
C888 C 0.94989 0.54683 0.96667 0.0
C889 C 0.96535 0.54946 0.98806 0.0
C890 C 0.92946 0.55487 0.96689 0.0
C891 C 0.96031 0.56039 0.00971 0.0
C892 C 0.94049 0.56914 0.00991 0.0
H893 H 0.55713 0.39173 0.94517 0.0
H894 H 0.47197 0.32278 0.94425 0.0
H895 H 0.45704 0.35141 0.96678 0.0
H896 H 0.46835 0.39429 0.98967 0.0
H897 H 0.55227 0.46466 0.98996 0.0
H898 H 0.56748 0.43763 0.96413 0.0
C899 C 0.5353 0.3831 0.94971 0.0
C900 C 0.51585 0.35478 0.9436 0.0
C901 C 0.52665 0.39992 0.96256 0.0
C902 C 0.48757 0.3441 0.9494 0.0
C903 C 0.47891 0.36054 0.96212 0.0
C904 C 0.48985 0.40389 0.98355 0.0
C905 C 0.50921 0.43124 0.99151 0.0
C906 C 0.4983 0.38819 0.96918 0.0
C907 C 0.53701 0.44366 0.98369 0.0
C908 C 0.54572 0.42805 0.96927 0.0
H909 H 0.13492 0.64531 0.05922 0.0
H910 H 0.19389 0.61843 0.04104 0.0
H911 H 0.15838 0.57931 0.01625 0.0
H912 H 0.11126 0.55486 0.99737 0.0
H913 H 0.05209 0.58098 0.017 0.0
H914 H 0.08688 0.61844 0.04352 0.0
C915 C 0.13988 0.63079 0.04985 0.0
C916 C 0.16694 0.63481 0.05159 0.0
C917 C 0.11937 0.60837 0.03585 0.0
C918 C 0.17313 0.61566 0.03984 0.0
C919 C 0.1529 0.59341 0.02563 0.0
C920 C 0.10598 0.56843 0.00795 0.0
C921 C 0.07924 0.56509 0.00579 0.0
C922 C 0.12606 0.58981 0.02321 0.0
C923 C 0.0725 0.583 0.01897 0.0
C924 C 0.09242 0.60453 0.03389 0.0
H925 H 0.31923 0.44537 0.00425 0.0
H926 H 0.31681 0.42425 0.08116 0.0
H927 H 0.36564 0.43709 0.07965 0.0
H928 H 0.40814 0.45173 0.05644 0.0
H929 H 0.41247 0.47374 0.9797 0.0
H930 H 0.36376 0.46313 0.98118 0.0
C931 C 0.32948 0.44373 0.02067 0.0
C932 C 0.31431 0.43392 0.04282 0.0
C933 C 0.35778 0.45106 0.01967 0.0
C934 C 0.32798 0.43214 0.06399 0.0
C935 C 0.35589 0.43924 0.06311 0.0
C936 C 0.39848 0.45416 0.03994 0.0
C937 C 0.41374 0.463 0.01786 0.0
C938 C 0.37082 0.44831 0.04102 0.0
C939 C 0.40109 0.46676 0.99688 0.0
C940 C 0.37325 0.46065 0.99773 0.0
H941 H 0.48293 0.84517 0.04853 0.0
H942 H 0.56249 0.89564 0.08502 0.0
H943 H 0.56484 0.93829 0.07003 0.0
H944 H 0.54885 0.96128 0.0409 0.0
H945 H 0.47444 0.9109 0.99851 0.0
H946 H 0.46519 0.86875 0.02148 0.0
C947 C 0.50078 0.86543 0.05332 0.0
C948 C 0.52244 0.86665 0.06801 0.0
C949 C 0.50282 0.89025 0.04359 0.0
C950 C 0.54506 0.89347 0.07427 0.0
C951 C 0.54668 0.91816 0.06543 0.0
C952 C 0.52997 0.94124 0.03758 0.0
C953 C 0.51133 0.9394 0.01915 0.0
C954 C 0.5262 0.91679 0.04945 0.0
C955 C 0.48778 0.91314 0.01395 0.0
C956 C 0.48307 0.88888 0.02656 0.0
H957 H 0.03912 0.16793 0.38446 0.0
H958 H 0.97882 0.19456 0.39771 0.0
H959 H 0.01018 0.2404 0.37953 0.0
H960 H 0.05628 0.27442 0.3636 0.0
H961 H 0.11723 0.24855 0.35074 0.0
H962 H 0.084 0.20093 0.36463 0.0
C963 C 0.03282 0.18374 0.38323 0.0
C964 C 0.0067 0.17785 0.39262 0.0
C965 C 0.05108 0.21023 0.37281 0.0
C966 C 0.99867 0.19841 0.39052 0.0
C967 C 0.01668 0.22472 0.38023 0.0
C968 C 0.0622 0.25828 0.36341 0.0
C969 C 0.0894 0.26527 0.35633 0.0
C970 C 0.04313 0.23106 0.37179 0.0
C971 C 0.0965 0.24389 0.35603 0.0
C972 C 0.07754 0.21665 0.3642 0.0
H973 H 0.80136 0.78696 0.34802 0.0
H974 H 0.74127 0.70586 0.37738 0.0
H975 H 0.7057 0.71968 0.37771 0.0
H976 H 0.69203 0.75521 0.37136 0.0
H977 H 0.75086 0.83611 0.3409 0.0
H978 H 0.78644 0.82195 0.33902 0.0
C979 C 0.78043 0.77238 0.35436 0.0
C980 C 0.7739 0.74544 0.36262 0.0
C981 C 0.75987 0.78039 0.35429 0.0
C982 C 0.74669 0.7266 0.37068 0.0
C983 C 0.72636 0.73452 0.37099 0.0
C984 C 0.7126 0.7697 0.36418 0.0
C985 C 0.71887 0.79669 0.35644 0.0
C986 C 0.73277 0.7614 0.36305 0.0
C987 C 0.74549 0.81513 0.34687 0.0
C988 C 0.76588 0.80711 0.34594 0.0
H989 H 0.17181 0.9661 0.40421 0.0
H990 H 0.11186 0.96908 0.35525 0.0
H991 H 0.10746 0.9284 0.33239 0.0
H992 H 0.12617 0.89692 0.32266 0.0
H993 H 0.18749 0.89576 0.37063 0.0
H994 H 0.18509 0.93004 0.39812 0.0
C995 C 0.15705 0.95737 0.38907 0.0
C996 C 0.14249 0.971 0.38129 0.0
C997 C 0.15484 0.93417 0.37585 0.0
C998 C 0.12379 0.95945 0.36134 0.0
C999 C 0.12119 0.93611 0.3483 0.0
C1000 C 0.13808 0.90337 0.3397 0.0
C1001 C 0.15627 0.89319 0.34514 0.0
C1002 C 0.13738 0.92397 0.35484 0.0
C1003 C 0.17244 0.90237 0.3667 0.0
C1004 C 0.17149 0.92244 0.38212 0.0
H1005 H 0.51058 0.70456 0.31264 0.0
H1006 H 0.57043 0.69361 0.27002 0.0
H1007 H 0.60851 0.73584 0.2888 0.0
H1008 H 0.62506 0.7706 0.32255 0.0
H1009 H 0.56591 0.78087 0.36644 0.0
H1010 H 0.52732 0.74443 0.34198 0.0
C1011 C 0.53193 0.71178 0.30714 0.0
C1012 C 0.5376 0.69574 0.29016 0.0
C1013 C 0.5539 0.73589 0.31839 0.0
C1014 C 0.56537 0.70556 0.28294 0.0
C1015 C 0.58725 0.72958 0.29388 0.0
C1016 C 0.60379 0.76576 0.32593 0.0
C1017 C 0.59821 0.77883 0.34568 0.0
C1018 C 0.58181 0.74424 0.3123 0.0
C1019 C 0.57057 0.77152 0.35079 0.0
C1020 C 0.54855 0.75048 0.33702 0.0
H1021 H 0.35802 0.92564 0.33029 0.0
H1022 H 0.34349 0.84799 0.2961 0.0
H1023 H 0.29316 0.82764 0.30169 0.0
H1024 H 0.25305 0.83359 0.31312 0.0
H1025 H 0.26814 0.91208 0.34555 0.0
H1026 H 0.31852 0.93029 0.3444 0.0
C1027 C 0.34395 0.90403 0.32456 0.0
C1028 C 0.3546 0.8884 0.31277 0.0
C1029 C 0.31508 0.89263 0.32757 0.0
C1030 C 0.33588 0.86062 0.30498 0.0
C1031 C 0.30709 0.84893 0.30825 0.0
C1032 C 0.26744 0.85432 0.32058 0.0
C1033 C 0.25712 0.87137 0.32985 0.0
C1034 C 0.29641 0.86493 0.31911 0.0
C1035 C 0.2758 0.89856 0.33869 0.0
C1036 C 0.30454 0.909 0.33787 0.0
H1037 H 0.20859 0.48194 0.26425 0.0
H1038 H 0.17404 0.51845 0.31391 0.0
H1039 H 0.15669 0.47754 0.34055 0.0
H1040 H 0.14986 0.43135 0.34929 0.0
H1041 H 0.18568 0.39392 0.30242 0.0
H1042 H 0.20421 0.43524 0.27515 0.0
C1043 C 0.19735 0.48084 0.28097 0.0
C1044 C 0.19264 0.50326 0.28714 0.0
C1045 C 0.18761 0.45714 0.29658 0.0
C1046 C 0.17819 0.50169 0.3089 0.0
C1047 C 0.16815 0.47823 0.3241 0.0
C1048 C 0.16171 0.43204 0.33311 0.0
C1049 C 0.16573 0.40917 0.32755 0.0
C1050 C 0.17255 0.45584 0.31804 0.0
C1051 C 0.18178 0.41094 0.30684 0.0
C1052 C 0.19241 0.43462 0.29131 0.0
H1053 H 0.35187 0.49125 0.3301 0.0
H1054 H 0.33889 0.48593 0.25137 0.0
H1055 H 0.29187 0.44584 0.25666 0.0
H1056 H 0.2568 0.40879 0.28317 0.0
H1057 H 0.269 0.41362 0.36182 0.0
H1058 H 0.31387 0.45755 0.35724 0.0
C1059 C 0.33856 0.4815 0.31417 0.0
C1060 C 0.34895 0.49138 0.29035 0.0
C1061 C 0.31152 0.45832 0.31736 0.0
C1062 C 0.33137 0.47884 0.26988 0.0
C1063 C 0.30455 0.45578 0.27288 0.0
C1064 C 0.26907 0.41992 0.29931 0.0
C1065 C 0.25987 0.40822 0.32278 0.0
C1066 C 0.29474 0.44488 0.29644 0.0
C1067 C 0.27572 0.42253 0.34363 0.0
C1068 C 0.30142 0.44745 0.34095 0.0
H1069 H 0.54471 0.89547 0.33236 0.0
H1070 H 0.59711 0.96969 0.28953 0.0
H1071 H 0.63608 0.96124 0.29401 0.0
H1072 H 0.65471 0.9318 0.30804 0.0
H1073 H 0.60307 0.85691 0.35037 0.0
H1074 H 0.56458 0.86684 0.34847 0.0
C1075 C 0.56468 0.90974 0.32405 0.0
C1076 C 0.56799 0.9332 0.31066 0.0
C1077 C 0.58718 0.90473 0.32667 0.0
C1078 C 0.59407 0.95168 0.30017 0.0
C1079 C 0.61637 0.94681 0.30263 0.0
C1080 C 0.63514 0.9177 0.31707 0.0
C1081 C 0.6318 0.89355 0.3292 0.0
C1082 C 0.61309 0.9233 0.31562 0.0
C1083 C 0.60632 0.87574 0.34099 0.0
C1084 C 0.5842 0.88128 0.33973 0.0
H1085 H 0.22258 0.72181 0.2845 0.0
H1086 H 0.14041 0.64807 0.289 0.0
H1087 H 0.12447 0.67416 0.314 0.0
H1088 H 0.13462 0.71611 0.33778 0.0
H1089 H 0.21509 0.79117 0.33269 0.0
H1090 H 0.23085 0.76673 0.30414 0.0
C1091 C 0.20109 0.71158 0.29064 0.0
C1092 C 0.18304 0.68262 0.28555 0.0
C1093 C 0.19177 0.72694 0.30487 0.0
C1094 C 0.15514 0.66991 0.29344 0.0
C1095 C 0.14586 0.68489 0.30758 0.0
C1096 C 0.15549 0.72722 0.33007 0.0
C1097 C 0.17381 0.7552 0.33723 0.0
C1098 C 0.16416 0.71308 0.31395 0.0
C1099 C 0.20068 0.76963 0.32714 0.0
C1100 C 0.20967 0.75555 0.31105 0.0
H1101 H 0.84665 0.96522 0.37812 0.0
H1102 H 0.79763 0.98918 0.42357 0.0
H1103 H 0.75567 0.95664 0.4007 0.0
H1104 H 0.73359 0.92432 0.36551 0.0
H1105 H 0.78221 0.89976 0.32067 0.0
H1106 H 0.82353 0.9288 0.34617 0.0
C1107 C 0.82674 0.96294 0.38342 0.0
C1108 C 0.8255 0.98011 0.40226 0.0
C1109 C 0.80258 0.94393 0.37038 0.0
C1110 C 0.79942 0.97691 0.40867 0.0
C1111 C 0.77535 0.95819 0.3957 0.0
C1112 C 0.75307 0.92471 0.36192 0.0
C1113 C 0.75496 0.90953 0.34182 0.0
C1114 C 0.77678 0.94201 0.37622 0.0
C1115 C 0.78035 0.91082 0.33656 0.0
C1116 C 0.80396 0.92764 0.35093 0.0
H1117 H 0.98569 0.77918 0.35741 0.0
H1118 H 0.96139 0.69682 0.38666 0.0
H1119 H 0.00866 0.70557 0.38161 0.0
H1120 H 0.05733 0.73718 0.37131 0.0
H1121 H 0.08294 0.81945 0.34142 0.0
H1122 H 0.0347 0.80987 0.34367 0.0
C1123 C 0.99071 0.76308 0.36241 0.0
C1124 C 0.97006 0.73765 0.373 0.0
C1125 C 0.01817 0.76815 0.35929 0.0
C1126 C 0.97696 0.71694 0.37923 0.0
C1127 C 0.00399 0.7218 0.37616 0.0
C1128 C 0.05239 0.753 0.36509 0.0
C1129 C 0.07377 0.77907 0.35643 0.0
C1130 C 0.02483 0.74747 0.36665 0.0
C1131 C 0.06687 0.79914 0.34811 0.0
C1132 C 0.03931 0.79374 0.34956 0.0
H1133 H 0.18267 0.20866 0.42034 0.0
H1134 H 0.14133 0.15005 0.36023 0.0
H1135 H 0.14114 0.18725 0.33627 0.0
H1136 H 0.16049 0.23783 0.32913 0.0
H1137 H 0.20545 0.29759 0.38703 0.0
H1138 H 0.19646 0.25887 0.41507 0.0
C1139 C 0.17334 0.20391 0.40211 0.0
C1140 C 0.1624 0.17644 0.39213 0.0
C1141 C 0.17417 0.2258 0.38788 0.0
C1142 C 0.14976 0.17072 0.36867 0.0
C1143 C 0.14989 0.19215 0.35472 0.0
C1144 C 0.16737 0.2422 0.3482 0.0
C1145 C 0.18304 0.27032 0.35631 0.0
C1146 C 0.16308 0.21993 0.36371 0.0
C1147 C 0.19258 0.27599 0.38075 0.0
C1148 C 0.18782 0.25385 0.39658 0.0
H1149 H 0.65684 0.53941 0.73273 0.0
H1150 H 0.688 0.48882 0.69969 0.0
H1151 H 0.72749 0.53125 0.68217 0.0
H1152 H 0.75502 0.58331 0.67905 0.0
H1153 H 0.7223 0.63318 0.71146 0.0
H1154 H 0.68157 0.59059 0.72596 0.0
C1155 C 0.67216 0.53772 0.72147 0.0
C1156 C 0.66969 0.51115 0.71763 0.0
C1157 C 0.69459 0.56212 0.71132 0.0
C1158 C 0.68948 0.50911 0.70282 0.0
C1159 C 0.71209 0.53336 0.69289 0.0
C1160 C 0.73876 0.58487 0.68888 0.0
C1161 C 0.74209 0.61165 0.69431 0.0
C1162 C 0.71513 0.56009 0.69735 0.0
C1163 C 0.72063 0.61304 0.70711 0.0
C1164 C 0.69724 0.58862 0.71554 0.0
H1165 H 0.41524 0.06364 0.71176 0.0
H1166 H 0.48167 0.13727 0.67696 0.0
H1167 H 0.45066 0.15687 0.67179 0.0
H1168 H 0.40471 0.1533 0.67808 0.0
H1169 H 0.33943 0.08029 0.71471 0.0
H1170 H 0.36975 0.05991 0.71779 0.0
C1171 C 0.42286 0.08383 0.70277 0.0
C1172 C 0.45064 0.09888 0.69457 0.0
C1173 C 0.40504 0.09498 0.70009 0.0
C1174 C 0.46039 0.12534 0.6835 0.0
C1175 C 0.44263 0.13646 0.68045 0.0
C1176 C 0.39706 0.13275 0.6864 0.0
C1177 C 0.36981 0.11818 0.69599 0.0
C1178 C 0.41491 0.12148 0.68872 0.0
C1179 C 0.36031 0.09186 0.70719 0.0
C1180 C 0.37764 0.08023 0.709 0.0
H1181 H 0.79778 0.30637 0.69725 0.0
H1182 H 0.8585 0.3144 0.75134 0.0
H1183 H 0.86203 0.27624 0.73153 0.0
H1184 H 0.85273 0.24502 0.69546 0.0
H1185 H 0.7933 0.238 0.64068 0.0
H1186 H 0.78412 0.27083 0.66412 0.0
C1187 C 0.81143 0.29943 0.70491 0.0
C1188 C 0.82795 0.31345 0.72568 0.0
C1189 C 0.81356 0.27749 0.69327 0.0
C1190 C 0.84533 0.30395 0.73551 0.0
C1191 C 0.84752 0.28216 0.72408 0.0
C1192 C 0.83681 0.24963 0.68933 0.0
C1193 C 0.8232 0.23861 0.66671 0.0
C1194 C 0.83227 0.26923 0.70258 0.0
C1195 C 0.80367 0.24592 0.65828 0.0
C1196 C 0.79861 0.26489 0.67156 0.0
H1197 H 0.17343 0.02702 0.65096 0.0
H1198 H 0.23736 0.01813 0.61328 0.0
H1199 H 0.27299 0.06381 0.62925 0.0
H1200 H 0.28638 0.10089 0.66044 0.0
H1201 H 0.22347 0.11196 0.69694 0.0
H1202 H 0.18685 0.07048 0.67521 0.0
C1203 C 0.19504 0.03547 0.64564 0.0
C1204 C 0.2028 0.01875 0.6316 0.0
C1205 C 0.21559 0.0619 0.65496 0.0
C1206 C 0.23092 0.03014 0.62475 0.0
C1207 C 0.25134 0.05629 0.63383 0.0
C1208 C 0.26481 0.09562 0.66221 0.0
C1209 C 0.25768 0.11027 0.67932 0.0
C1210 C 0.24404 0.07173 0.64982 0.0
C1211 C 0.22941 0.10143 0.68324 0.0
C1212 C 0.2085 0.07757 0.67101 0.0
H1213 H 0.0249 0.24637 0.66564 0.0
H1214 H 0.01681 0.22474 0.58812 0.0
H1215 H 0.96755 0.21029 0.58942 0.0
H1216 H 0.92717 0.20601 0.61178 0.0
H1217 H 0.9332 0.22331 0.68982 0.0
H1218 H 0.98275 0.23672 0.68923 0.0
C1219 C 0.01233 0.23798 0.64911 0.0
C1220 C 0.02499 0.23737 0.62666 0.0
C1221 C 0.98363 0.22907 0.65004 0.0
C1222 C 0.00808 0.22641 0.6055 0.0
C1223 C 0.97976 0.21793 0.60622 0.0
C1224 C 0.93938 0.21271 0.62866 0.0
C1225 C 0.92686 0.21426 0.65071 0.0
C1226 C 0.96748 0.21973 0.62823 0.0
C1227 C 0.94257 0.22221 0.6726 0.0
C1228 C 0.97084 0.22989 0.67223 0.0
H1229 H 0.8264 0.80668 0.59457 0.0
H1230 H 0.89959 0.86328 0.63702 0.0
H1231 H 0.89651 0.82342 0.65942 0.0
H1232 H 0.86966 0.77315 0.67063 0.0
H1233 H 0.7969 0.71659 0.6284 0.0
H1234 H 0.80401 0.75542 0.60144 0.0
C1235 C 0.84212 0.81041 0.6083 0.0
C1236 C 0.86277 0.83835 0.6144 0.0
C1237 C 0.84052 0.78721 0.62101 0.0
C1238 C 0.88278 0.84233 0.63243 0.0
C1239 C 0.88127 0.81944 0.64513 0.0
C1240 C 0.85614 0.76918 0.65482 0.0
C1241 C 0.83323 0.74196 0.65104 0.0
C1242 C 0.8598 0.79187 0.64006 0.0
C1243 C 0.81521 0.73719 0.63112 0.0
C1244 C 0.81898 0.75953 0.61603 0.0
H1245 H 0.01616 0.78581 0.62648 0.0
H1246 H 0.98456 0.84245 0.63937 0.0
H1247 H 0.93878 0.80227 0.65058 0.0
H1248 H 0.90716 0.75023 0.65449 0.0
H1249 H 0.94104 0.69512 0.64198 0.0
H1250 H 0.9864 0.73543 0.63312 0.0
C1251 C 0.99921 0.78934 0.63172 0.0
C1252 C 0.00347 0.81687 0.6317 0.0
C1253 C 0.97334 0.76636 0.63829 0.0
C1254 C 0.98162 0.82133 0.63909 0.0
C1255 C 0.9555 0.79837 0.64548 0.0
C1256 C 0.92458 0.74713 0.65019 0.0
C1257 C 0.92045 0.71951 0.64867 0.0
C1258 C 0.951 0.77066 0.6449 0.0
C1259 C 0.94335 0.71597 0.64301 0.0
C1260 C 0.96942 0.73905 0.6379 0.0
H1261 H 0.231 0.24646 0.61179 0.0
H1262 H 0.22052 0.24679 0.69044 0.0
H1263 H 0.2553 0.23195 0.6966 0.0
H1264 H 0.28909 0.21922 0.67924 0.0
H1265 H 0.30079 0.22219 0.60029 0.0
H1266 H 0.26545 0.23557 0.59471 0.0
C1267 C 0.23618 0.24299 0.63025 0.0
C1268 C 0.22304 0.24723 0.65062 0.0
C1269 C 0.25665 0.23532 0.63361 0.0
C1270 C 0.23031 0.24338 0.6745 0.0
C1271 C 0.25021 0.23499 0.678 0.0
C1272 C 0.28399 0.22293 0.66085 0.0
C1273 C 0.29778 0.21975 0.64027 0.0
C1274 C 0.26365 0.23101 0.65766 0.0
C1275 C 0.29086 0.22472 0.61656 0.0
C1276 C 0.27045 0.23222 0.61326 0.0
H1277 H 0.89264 0.05998 0.62849 0.0
H1278 H 0.80535 0.99856 0.61925 0.0
H1279 H 0.79253 0.02947 0.64108 0.0
H1280 H 0.80591 0.07223 0.66557 0.0
H1281 H 0.89265 0.13393 0.6755 0.0
H1282 H 0.90602 0.10493 0.65048 0.0
C1283 C 0.87083 0.0535 0.63107 0.0
C1284 C 0.85 0.02671 0.62258 0.0
C1285 C 0.86353 0.07145 0.64377 0.0
C1286 C 0.82183 0.0187 0.62608 0.0
C1287 C 0.81444 0.03647 0.6384 0.0
C1288 C 0.8277 0.07961 0.6616 0.0
C1289 C 0.84831 0.10521 0.67189 0.0
C1290 C 0.83508 0.06266 0.64764 0.0
C1291 C 0.8765 0.11447 0.66728 0.0
C1292 C 0.88409 0.09772 0.65328 0.0
H1293 H 0.46761 0.31461 0.71914 0.0
H1294 H 0.52582 0.28601 0.7026 0.0
H1295 H 0.49105 0.24865 0.67621 0.0
H1296 H 0.44437 0.22504 0.65651 0.0
H1297 H 0.38587 0.2524 0.67497 0.0
H1298 H 0.42035 0.28913 0.70222 0.0
C1299 C 0.47265 0.29997 0.71016 0.0
C1300 C 0.49948 0.30338 0.71282 0.0
C1301 C 0.45246 0.2783 0.6953 0.0
C1302 C 0.50559 0.28434 0.70057 0.0
C1303 C 0.48564 0.26281 0.68558 0.0
C1304 C 0.43916 0.23874 0.66697 0.0
C1305 C 0.41263 0.23583 0.66437 0.0
C1306 C 0.45908 0.25972 0.68265 0.0
C1307 C 0.40606 0.25401 0.67732 0.0
C1308 C 0.42582 0.27513 0.69265 0.0
H1309 H 0.65701 0.12406 0.68427 0.0
H1310 H 0.63815 0.05523 0.73374 0.0
H1311 H 0.68579 0.06457 0.73061 0.0
H1312 H 0.733 0.09262 0.71503 0.0
H1313 H 0.75318 0.1614 0.66521 0.0
H1314 H 0.70478 0.15126 0.66683 0.0
C1315 C 0.6633 0.11101 0.69422 0.0
C1316 C 0.644 0.08931 0.70963 0.0
C1317 C 0.69095 0.11634 0.69218 0.0
C1318 C 0.65261 0.07259 0.72232 0.0
C1319 C 0.67986 0.07773 0.72038 0.0
C1320 C 0.72691 0.10541 0.70437 0.0
C1321 C 0.74686 0.12784 0.69009 0.0
C1322 C 0.69924 0.09966 0.70558 0.0
C1323 C 0.73832 0.14392 0.67629 0.0
C1324 C 0.71064 0.13822 0.67733 0.0
H1325 H 0.80574 0.49746 0.7149 0.0
H1326 H 0.86963 0.55407 0.76575 0.0
H1327 H 0.86888 0.59417 0.74739 0.0
H1328 H 0.85685 0.61371 0.71149 0.0
H1329 H 0.79168 0.55726 0.66207 0.0
H1330 H 0.78539 0.51667 0.68582 0.0
C1331 C 0.81891 0.51837 0.72258 0.0
C1332 C 0.8386 0.52258 0.74106 0.0
C1333 C 0.81816 0.54156 0.71214 0.0
C1334 C 0.85519 0.55008 0.75075 0.0
C1335 C 0.85464 0.57316 0.7404 0.0
C1336 C 0.84015 0.59264 0.70686 0.0
C1337 C 0.82445 0.58849 0.68531 0.0
C1338 C 0.83718 0.5693 0.72029 0.0
C1339 C 0.80364 0.56098 0.67888 0.0
C1340 C 0.80038 0.53771 0.69223 0.0
H1341 H 0.50279 0.96435 0.16068 0.0
H1342 H 0.48144 0.02647 0.1851 0.0
H1343 H 0.48456 0.04279 0.14299 0.0
H1344 H 0.48885 0.03668 0.09903 0.0
H1345 H 0.50972 0.97476 0.07338 0.0
H1346 H 0.51229 0.96182 0.11615 0.0
C1347 C 0.49923 0.98172 0.1568 0.0
C1348 C 0.4912 0.99368 0.17601 0.0
C1349 C 0.50108 0.99113 0.13233 0.0
C1350 C 0.48681 0.01628 0.17064 0.0
C1351 C 0.4888 0.02582 0.14656 0.0
C1352 C 0.49443 0.02065 0.10278 0.0
C1353 C 0.49882 0.00652 0.08306 0.0
C1354 C 0.49521 0.01295 0.12723 0.0
C1355 C 0.50637 0.98606 0.08823 0.0
C1356 C 0.50752 0.97845 0.11269 0.0
H1357 H 0.13993 0.58005 0.12196 0.0
H1358 H 0.08816 0.57523 0.18339 0.0
H1359 H 0.04842 0.56037 0.15564 0.0
H1360 H 0.02724 0.54417 0.11443 0.0
H1361 H 0.07892 0.54614 0.05417 0.0
H1362 H 0.11994 0.56806 0.08052 0.0
C1363 C 0.12015 0.57637 0.12926 0.0
C1364 C 0.11701 0.57838 0.15481 0.0
C1365 C 0.09733 0.56768 0.11324 0.0
C1366 C 0.09104 0.57321 0.16389 0.0
C1367 C 0.06832 0.56488 0.148 0.0
C1368 C 0.04763 0.55013 0.10697 0.0
C1369 C 0.05011 0.54451 0.08202 0.0
C1370 C 0.07103 0.56137 0.1227 0.0
C1371 C 0.07658 0.55166 0.07283 0.0
C1372 C 0.10002 0.56357 0.08811 0.0
H1373 H 0.48919 0.57006 0.14609 0.0
H1374 H 0.5299 0.53109 0.18367 0.0
H1375 H 0.54177 0.51831 0.14425 0.0
H1376 H 0.53591 0.51325 0.09943 0.0
H1377 H 0.49179 0.54833 0.06186 0.0
H1378 H 0.48682 0.56843 0.10058 0.0
C1379 C 0.50074 0.55886 0.14562 0.0
C1380 C 0.50844 0.55138 0.16786 0.0
C1381 C 0.50721 0.55117 0.12279 0.0
C1382 C 0.52385 0.5373 0.1669 0.0
C1383 C 0.53057 0.52986 0.14433 0.0
C1384 C 0.52589 0.52597 0.09966 0.0
C1385 C 0.51485 0.52991 0.07768 0.0
C1386 C 0.52181 0.5361 0.12221 0.0
C1387 C 0.50157 0.54608 0.07826 0.0
C1388 C 0.4981 0.55695 0.10057 0.0
H1389 H 0.92379 0.41167 0.86564 0.0
H1390 H 0.87755 0.45318 0.8856 0.0
H1391 H 0.89845 0.46322 0.92662 0.0
H1392 H 0.93675 0.46888 0.95342 0.0
H1393 H 0.98829 0.43452 0.93049 0.0
H1394 H 0.95844 0.41273 0.89433 0.0
C1395 C 0.91814 0.42282 0.87897 0.0
C1396 C 0.89959 0.43224 0.87219 0.0
C1397 C 0.93138 0.42988 0.90209 0.0
C1398 C 0.89177 0.44568 0.89012 0.0
C1399 C 0.90391 0.45166 0.9136 0.0
C1400 C 0.9407 0.45567 0.94094 0.0
C1401 C 0.96442 0.453 0.94452 0.0
C1402 C 0.92468 0.44503 0.91936 0.0
C1403 C 0.96992 0.43652 0.92808 0.0
C1404 C 0.95305 0.42438 0.90732 0.0
H1405 H 0.52044 0.45686 0.83844 0.0
H1406 H 0.52898 0.39639 0.88306 0.0
H1407 H 0.51135 0.40993 0.91857 0.0
H1408 H 0.50094 0.44441 0.93867 0.0
H1409 H 0.48859 0.50145 0.89271 0.0
H1410 H 0.49949 0.48292 0.85621 0.0
C1411 C 0.51794 0.44599 0.85569 0.0
C1412 C 0.52712 0.42626 0.85794 0.0
C1413 C 0.50739 0.45348 0.87617 0.0
C1414 C 0.52346 0.41264 0.88077 0.0
C1415 C 0.5132 0.42024 0.90123 0.0
C1416 C 0.49971 0.45215 0.92064 0.0
C1417 C 0.49475 0.47493 0.91866 0.0
C1418 C 0.50619 0.44147 0.89944 0.0
C1419 C 0.49296 0.48438 0.89497 0.0
C1420 C 0.49939 0.47392 0.87399 0.0
H1421 H 0.47678 0.03244 0.83937 0.0
H1422 H 0.4978 0.96948 0.81667 0.0
H1423 H 0.496 0.95513 0.85915 0.0
H1424 H 0.49391 0.96373 0.90284 0.0
H1425 H 0.47542 0.02786 0.92701 0.0
H1426 H 0.47044 0.03818 0.88399 0.0
C1427 C 0.48083 0.0155 0.84373 0.0
C1428 C 0.48745 0.00215 0.82467 0.0
C1429 C 0.48034 0.0076 0.8685 0.0
C1430 C 0.49223 0.97993 0.83072 0.0
C1431 C 0.49143 0.9718 0.85511 0.0
C1432 C 0.48838 0.97972 0.89878 0.0
C1433 C 0.48558 0.99536 0.91813 0.0
C1434 C 0.48621 0.98592 0.87415 0.0
C1435 C 0.47789 0.01561 0.9125 0.0
C1436 C 0.47526 0.02167 0.88787 0.0
H1437 H 0.17453 0.29798 0.50139 0.0
H1438 H 0.201 0.38415 0.52227 0.0
H1439 H 0.20432 0.397 0.47898 0.0
H1440 H 0.19465 0.3826 0.43528 0.0
H1441 H 0.16914 0.29698 0.41456 0.0
H1442 H 0.17182 0.28539 0.45756 0.0
C1443 C 0.18179 0.31978 0.49662 0.0
C1444 C 0.18685 0.33985 0.51533 0.0
C1445 C 0.1841 0.32721 0.47159 0.0
C1446 C 0.19601 0.36793 0.50844 0.0
C1447 C 0.19818 0.37542 0.48362 0.0
C1448 C 0.19059 0.36169 0.4402 0.0
C1449 C 0.18242 0.34081 0.4218 0.0
C1450 C 0.1915 0.35507 0.46506 0.0
C1451 C 0.17662 0.31363 0.4283 0.0
C1452 C 0.17758 0.30688 0.45297 0.0
H1453 H 0.75847 0.91133 0.49676 0.0
H1454 H 0.82551 0.92516 0.44737 0.0
H1455 H 0.79293 0.90785 0.41301 0.0
H1456 H 0.74478 0.88528 0.3975 0.0
H1457 H 0.67865 0.87504 0.44582 0.0
H1458 H 0.71194 0.89577 0.47998 0.0
C1459 C 0.76641 0.91158 0.47845 0.0
C1460 C 0.79458 0.91902 0.47511 0.0
C1461 C 0.74777 0.90271 0.4584 0.0
C1462 C 0.80388 0.91859 0.45099 0.0
C1463 C 0.7853 0.90908 0.43111 0.0
C1464 C 0.73794 0.88905 0.41513 0.0
C1465 C 0.70951 0.8796 0.41893 0.0
C1466 C 0.75714 0.9007 0.43466 0.0
C1467 C 0.70057 0.88277 0.44236 0.0
C1468 C 0.71955 0.89438 0.46191 0.0
H1469 H 0.14125 0.88992 0.48781 0.0
H1470 H 0.19259 0.86361 0.52629 0.0
H1471 H 0.20522 0.85071 0.48724 0.0
H1472 H 0.19706 0.8414 0.44281 0.0
H1473 H 0.14402 0.86539 0.40458 0.0
H1474 H 0.13777 0.88594 0.44249 0.0
C1475 C 0.1557 0.88197 0.48762 0.0
C1476 C 0.16549 0.87721 0.51003 0.0
C1477 C 0.16281 0.87443 0.46503 0.0
C1478 C 0.18414 0.86679 0.50938 0.0
C1479 C 0.19153 0.85955 0.48704 0.0
C1480 C 0.18485 0.85193 0.4427 0.0
C1481 C 0.17168 0.85264 0.4208 0.0
C1482 C 0.18031 0.86247 0.46483 0.0
C1483 C 0.15543 0.86578 0.42092 0.0
C1484 C 0.15131 0.87693 0.44277 0.0
H1485 H 0.57418 0.76425 0.20652 0.0
H1486 H 0.64868 0.79887 0.16175 0.0
H1487 H 0.67738 0.81359 0.19851 0.0
H1488 H 0.68203 0.82344 0.24274 0.0
H1489 H 0.60847 0.79767 0.28661 0.0
H1490 H 0.57887 0.77246 0.25129 0.0
C1491 C 0.59667 0.77508 0.20467 0.0
C1492 C 0.60895 0.78049 0.18107 0.0
C1493 C 0.61337 0.78506 0.22598 0.0
C1494 C 0.63826 0.79383 0.17941 0.0
C1495 C 0.65489 0.80265 0.20053 0.0
C1496 C 0.65951 0.81167 0.24466 0.0
C1497 C 0.64742 0.81143 0.2675 0.0
C1498 C 0.64273 0.79924 0.2238 0.0
C1499 C 0.61826 0.7967 0.26966 0.0
C1500 C 0.60134 0.78297 0.24923 0.0
H1501 H 0.18408 0.73477 0.21372 0.0
H1502 H 0.19178 0.79788 0.16187 0.0
H1503 H 0.17487 0.8181 0.19272 0.0
H1504 H 0.16374 0.82176 0.23547 0.0
H1505 H 0.15764 0.76046 0.28841 0.0
H1506 H 0.1676 0.73541 0.25606 0.0
C1507 C 0.18188 0.75284 0.20916 0.0
C1508 C 0.1894 0.76485 0.18549 0.0
C1509 C 0.17257 0.7648 0.22722 0.0
C1510 C 0.18593 0.78797 0.17978 0.0
C1511 C 0.17643 0.79971 0.19749 0.0
C1512 C 0.16409 0.80264 0.23998 0.0
C1513 C 0.16073 0.79349 0.2646 0.0
C1514 C 0.17044 0.78881 0.22142 0.0
C1515 C 0.16071 0.76832 0.2698 0.0
C1516 C 0.16654 0.75407 0.25128 0.0
H1517 H 0.16233 0.3725 0.17851 0.0
H1518 H 0.16634 0.29874 0.15602 0.0
H1519 H 0.16206 0.28383 0.19875 0.0
H1520 H 0.163 0.29452 0.24252 0.0
H1521 H 0.15945 0.36806 0.26605 0.0
H1522 H 0.15665 0.37971 0.22297 0.0
C1523 C 0.16174 0.3529 0.18294 0.0
C1524 C 0.16538 0.33714 0.16409 0.0
C1525 C 0.15932 0.34439 0.20774 0.0
C1526 C 0.16443 0.31173 0.17018 0.0
C1527 C 0.16178 0.30305 0.19462 0.0
C1528 C 0.16102 0.31281 0.23826 0.0
C1529 C 0.16197 0.3307 0.25745 0.0
C1530 C 0.16011 0.31965 0.21356 0.0
C1531 C 0.15892 0.35402 0.25166 0.0
C1532 C 0.15759 0.36082 0.22698 0.0
H1533 H 0.83794 0.62578 0.82761 0.0
H1534 H 0.87249 0.71266 0.85091 0.0
H1535 H 0.87699 0.72726 0.80804 0.0
H1536 H 0.86572 0.71463 0.76433 0.0
H1537 H 0.83213 0.62817 0.74102 0.0
H1538 H 0.8341 0.61435 0.78341 0.0
C1539 C 0.8472 0.64803 0.82345 0.0
C1540 C 0.85416 0.66794 0.84269 0.0
C1541 C 0.85012 0.65641 0.79866 0.0
C1542 C 0.86599 0.69666 0.83663 0.0
C1543 C 0.86883 0.70511 0.81206 0.0
C1544 C 0.85959 0.69291 0.76849 0.0
C1545 C 0.84892 0.67244 0.74961 0.0
C1546 C 0.86012 0.68506 0.79298 0.0
C1547 C 0.841 0.64438 0.75514 0.0
C1548 C 0.84165 0.63641 0.77947 0.0
H1549 H 0.46918 0.24932 0.78129 0.0
H1550 H 0.41714 0.2467 0.84166 0.0
H1551 H 0.37812 0.23299 0.81323 0.0
H1552 H 0.35751 0.21717 0.77172 0.0
H1553 H 0.40934 0.2164 0.71277 0.0
H1554 H 0.44984 0.23735 0.73968 0.0
C1555 C 0.44952 0.24637 0.78821 0.0
C1556 C 0.44607 0.24871 0.81365 0.0
C1557 C 0.42711 0.23827 0.77182 0.0
C1558 C 0.42024 0.24444 0.82224 0.0
C1559 C 0.39794 0.23677 0.80596 0.0
C1560 C 0.37786 0.22239 0.76465 0.0
C1561 C 0.38055 0.21638 0.73984 0.0
C1562 C 0.40092 0.23296 0.78077 0.0
C1563 C 0.40691 0.22239 0.73122 0.0
C1564 C 0.43003 0.23371 0.74685 0.0
H1565 H 0.85081 0.24626 0.82836 0.0
H1566 H 0.77485 0.23923 0.79996 0.0
H1567 H 0.78465 0.22679 0.75913 0.0
H1568 H 0.81063 0.21012 0.73392 0.0
H1569 H 0.88372 0.21235 0.76394 0.0
H1570 H 0.87976 0.23507 0.80159 0.0
C1571 C 0.83681 0.24275 0.81304 0.0
C1572 C 0.81208 0.24348 0.81711 0.0
C1573 C 0.84205 0.23457 0.78999 0.0
C1574 C 0.79388 0.23851 0.79724 0.0
C1575 C 0.79946 0.23137 0.77396 0.0
C1576 C 0.82625 0.21663 0.74837 0.0
C1577 C 0.8477 0.21011 0.74619 0.0
C1578 C 0.8229 0.22824 0.77041 0.0
C1579 C 0.86734 0.21766 0.76523 0.0
C1580 C 0.86488 0.23035 0.78679 0.0
H1581 H 0.22574 0.10232 0.54084 0.0
H1582 H 0.28283 0.08479 0.50049 0.0
H1583 H 0.3115 0.09475 0.53721 0.0
H1584 H 0.32425 0.11587 0.57874 0.0
H1585 H 0.26601 0.13086 0.6196 0.0
H1586 H 0.2332 0.11284 0.58517 0.0
C1587 C 0.24393 0.09979 0.5401 0.0
C1588 C 0.25261 0.094 0.51744 0.0
C1589 C 0.26014 0.10492 0.56151 0.0
C1590 C 0.27626 0.09064 0.51724 0.0
C1591 C 0.2926 0.09601 0.53836 0.0
C1592 C 0.30395 0.11422 0.58036 0.0
C1593 C 0.29764 0.12482 0.60154 0.0
C1594 C 0.28538 0.10436 0.56029 0.0
C1595 C 0.27127 0.12257 0.60355 0.0
C1596 C 0.25264 0.11267 0.58369 0.0
H1597 H 0.84875 0.10151 0.51921 0.0
H1598 H 0.90596 0.09339 0.56785 0.0
H1599 H 0.88827 0.10789 0.60272 0.0
H1600 H 0.8595 0.12673 0.61898 0.0
H1601 H 0.80495 0.13861 0.57008 0.0
H1602 H 0.81748 0.11741 0.53608 0.0
C1603 C 0.85701 0.10253 0.53755 0.0
C1604 C 0.87876 0.09655 0.5409 0.0
C1605 C 0.84665 0.11083 0.55766 0.0
C1606 C 0.88907 0.09764 0.56478 0.0
C1607 C 0.87884 0.10581 0.58482 0.0
C1608 C 0.84953 0.12365 0.60113 0.0
C1609 C 0.83102 0.13382 0.59711 0.0
C1610 C 0.85791 0.11281 0.58146 0.0
C1611 C 0.819 0.13062 0.57365 0.0
C1612 C 0.8264 0.1188 0.55417 0.0
H1613 H 0.81798 0.70482 0.5093 0.0
H1614 H 0.80077 0.62186 0.48621 0.0
H1615 H 0.79527 0.60694 0.52887 0.0
H1616 H 0.80175 0.61902 0.57261 0.0
H1617 H 0.82245 0.70249 0.5966 0.0
H1618 H 0.81964 0.71545 0.55397 0.0
C1619 C 0.81285 0.68343 0.5136 0.0
C1620 C 0.80998 0.66462 0.4944 0.0
C1621 C 0.81034 0.67504 0.53842 0.0
C1622 C 0.8028 0.6368 0.5004 0.0
C1623 C 0.79986 0.62823 0.52489 0.0
C1624 C 0.805 0.63986 0.56856 0.0
C1625 C 0.81229 0.65979 0.58771 0.0
C1626 C 0.80441 0.64739 0.54401 0.0
C1627 C 0.81633 0.68664 0.58226 0.0
C1628 C 0.81518 0.69417 0.5578 0.0
loop_
_geom_bond_atom_site_label_1
_geom_bond_atom_site_label_2
_geom_bond_distance
_geom_bond_site_symmetry_2
_ccdc_geom_bond_type
P0 O11 1.490 . S
P0 C14 1.812 . S
P0 C20 1.803 . S
P0 C26 1.819 . S
H1 C15 0.941 . S
H2 C16 0.939 . S
H3 C18 0.940 . S
H4 C19 0.940 . S
H5 C21 0.939 . S
H6 C22 0.942 . S
H7 C24 0.940 . S
H8 C25 0.939 . S
H9 C27 0.941 . S
H10 C31 0.939 . S
O11 P0 1.490 . S
H12 C28 0.939 . S
H13 C30 0.940 . S
C14 P0 1.812 . S
C14 C15 1.389 . S
C14 C19 1.391 . S
C15 H1 0.941 . S
C15 C14 1.389 . S
C15 C16 1.397 . S
C16 H2 0.939 . S
C16 C15 1.397 . S
C16 C17 1.378 . S
C17 C16 1.378 . S
C17 C18 1.378 . S
C18 H3 0.940 . S
C18 C17 1.378 . S
C18 C19 1.396 . S
C19 H4 0.940 . S
C19 C14 1.391 . S
C19 C18 1.396 . S
C20 P0 1.803 . S
C20 C21 1.378 . S
C20 C25 1.400 . S
C21 H5 0.939 . S
C21 C20 1.378 . S
C21 C22 1.361 . S
C22 H6 0.942 . S
C22 C21 1.361 . S
C22 C23 1.369 . S
C23 C22 1.369 . S
C23 C24 1.404 . S
C24 H7 0.940 . S
C24 C23 1.404 . S
C24 C25 1.389 . S
C25 H8 0.939 . S
C25 C20 1.400 . S
C25 C24 1.389 . S
C26 P0 1.819 . S
C26 C27 1.391 . S
C26 C31 1.391 . S
C27 H9 0.941 . S
C27 C26 1.391 . S
C27 C28 1.396 . S
C28 H12 0.939 . S
C28 C27 1.396 . S
C28 C29 1.397 . S
C29 C28 1.397 . S
C29 C30 1.385 . S
C30 H13 0.940 . S
C30 C29 1.385 . S
C30 C31 1.388 . S
C31 H10 0.939 . S
C31 C26 1.391 . S
C31 C30 1.388 . S
P32 O43 1.490 . S
P32 C46 1.812 . S
P32 C52 1.803 . S
P32 C58 1.819 . S
H33 C47 0.941 . S
H34 C48 0.939 . S
H35 C50 0.940 . S
H36 C51 0.940 . S
H37 C53 0.939 . S
H38 C54 0.942 . S
H39 C56 0.940 . S
H40 C57 0.939 . S
H41 C59 0.941 . S
H42 C63 0.939 . S
O43 P32 1.490 . S
H44 C60 0.939 . S
H45 C62 0.940 . S
C46 P32 1.812 . S
C46 C47 1.389 . S
C46 C51 1.391 . S
C47 H33 0.941 . S
C47 C46 1.389 . S
C47 C48 1.397 . S
C48 H34 0.939 . S
C48 C47 1.397 . S
C48 C49 1.378 . S
C49 C48 1.378 . S
C49 C50 1.378 . S
C50 H35 0.940 . S
C50 C49 1.378 . S
C50 C51 1.396 . S
C51 H36 0.940 . S
C51 C46 1.391 . S
C51 C50 1.396 . S
C52 P32 1.803 . S
C52 C53 1.378 . S
C52 C57 1.400 . S
C53 H37 0.939 . S
C53 C52 1.378 . S
C53 C54 1.361 . S
C54 H38 0.942 . S
C54 C53 1.361 . S
C54 C55 1.369 . S
C55 C54 1.369 . S
C55 C56 1.404 . S
C56 H39 0.940 . S
C56 C55 1.404 . S
C56 C57 1.389 . S
C57 H40 0.939 . S
C57 C52 1.400 . S
C57 C56 1.389 . S
C58 P32 1.819 . S
C58 C59 1.391 . S
C58 C63 1.391 . S
C59 H41 0.941 . S
C59 C58 1.391 . S
C59 C60 1.396 . S
C60 H44 0.939 . S
C60 C59 1.396 . S
C60 C61 1.397 . S
C61 C60 1.397 . S
C61 C62 1.385 . S
C62 H45 0.940 . S
C62 C61 1.385 . S
C62 C63 1.388 . S
C63 H42 0.939 . S
C63 C58 1.391 . S
C63 C62 1.388 . S
P64 O75 1.490 . S
P64 C78 1.812 . S
P64 C84 1.803 . S
P64 C90 1.819 . S
H65 C79 0.941 . S
H66 C80 0.939 . S
H67 C82 0.940 . S
H68 C83 0.940 . S
H69 C85 0.939 . S
H70 C86 0.942 . S
H71 C88 0.940 . S
H72 C89 0.939 . S
H73 C91 0.941 . S
H74 C95 0.939 . S
O75 P64 1.490 . S
H76 C92 0.939 . S
H77 C94 0.940 . S
C78 P64 1.812 . S
C78 C79 1.389 . S
C78 C83 1.391 . S
C79 H65 0.941 . S
C79 C78 1.389 . S
C79 C80 1.397 . S
C80 H66 0.939 . S
C80 C79 1.397 . S
C80 C81 1.378 . S
C81 C80 1.378 . S
C81 C82 1.378 . S
C82 H67 0.940 . S
C82 C81 1.378 . S
C82 C83 1.396 . S
C83 H68 0.940 . S
C83 C78 1.391 . S
C83 C82 1.396 . S
C84 P64 1.803 . S
C84 C85 1.378 . S
C84 C89 1.400 . S
C85 H69 0.939 . S
C85 C84 1.378 . S
C85 C86 1.361 . S
C86 H70 0.942 . S
C86 C85 1.361 . S
C86 C87 1.369 . S
C87 C86 1.369 . S
C87 C88 1.404 . S
C88 H71 0.940 . S
C88 C87 1.404 . S
C88 C89 1.389 . S
C89 H72 0.939 . S
C89 C84 1.400 . S
C89 C88 1.389 . S
C90 P64 1.819 . S
C90 C91 1.391 . S
C90 C95 1.391 . S
C91 H73 0.941 . S
C91 C90 1.391 . S
C91 C92 1.396 . S
C92 H76 0.939 . S
C92 C91 1.396 . S
C92 C93 1.397 . S
C93 C92 1.397 . S
C93 C94 1.385 . S
C94 H77 0.940 . S
C94 C93 1.385 . S
C94 C95 1.388 . S
C95 H74 0.939 . S
C95 C90 1.391 . S
C95 C94 1.388 . S
P96 O107 1.490 . S
P96 C110 1.812 . S
P96 C116 1.803 . S
P96 C122 1.819 . S
H97 C111 0.941 . S
H98 C112 0.939 . S
H99 C114 0.940 . S
H100 C115 0.940 . S
H101 C117 0.939 . S
H102 C118 0.942 . S
H103 C120 0.940 . S
H104 C121 0.939 . S
H105 C123 0.941 . S
H106 C127 0.939 . S
O107 P96 1.490 . S
H108 C124 0.939 . S
H109 C126 0.940 . S
C110 P96 1.812 . S
C110 C111 1.389 . S
C110 C115 1.391 . S
C111 H97 0.941 . S
C111 C110 1.389 . S
C111 C112 1.397 . S
C112 H98 0.939 . S
C112 C111 1.397 . S
C112 C113 1.378 . S
C113 C112 1.378 . S
C113 C114 1.378 . S
C114 H99 0.940 . S
C114 C113 1.378 . S
C114 C115 1.396 . S
C115 H100 0.940 . S
C115 C110 1.391 . S
C115 C114 1.396 . S
C116 P96 1.803 . S
C116 C117 1.378 . S
C116 C121 1.400 . S
C117 H101 0.939 . S
C117 C116 1.378 . S
C117 C118 1.361 . S
C118 H102 0.942 . S
C118 C117 1.361 . S
C118 C119 1.369 . S
C119 C118 1.369 . S
C119 C120 1.404 . S
C120 H103 0.940 . S
C120 C119 1.404 . S
C120 C121 1.389 . S
C121 H104 0.939 . S
C121 C116 1.400 . S
C121 C120 1.389 . S
C122 P96 1.819 . S
C122 C123 1.391 . S
C122 C127 1.391 . S
C123 H105 0.941 . S
C123 C122 1.391 . S
C123 C124 1.396 . S
C124 H108 0.939 . S
C124 C123 1.396 . S
C124 C125 1.397 . S
C125 C124 1.397 . S
C125 C126 1.385 . S
C126 H109 0.940 . S
C126 C125 1.385 . S
C126 C127 1.388 . S
C127 H106 0.939 . S
C127 C122 1.391 . S
C127 C126 1.388 . S
P128 O139 1.490 . S
P128 C142 1.812 . S
P128 C148 1.803 . S
P128 C154 1.819 . S
H129 C143 0.941 . S
H130 C144 0.939 . S
H131 C146 0.940 . S
H132 C147 0.940 . S
H133 C149 0.939 . S
H134 C150 0.942 . S
H135 C152 0.940 . S
H136 C153 0.939 . S
H137 C155 0.941 . S
H138 C159 0.939 . S
O139 P128 1.490 . S
H140 C156 0.939 . S
H141 C158 0.940 . S
C142 P128 1.812 . S
C142 C143 1.389 . S
C142 C147 1.391 . S
C143 H129 0.941 . S
C143 C142 1.389 . S
C143 C144 1.397 . S
C144 H130 0.939 . S
C144 C143 1.397 . S
C144 C145 1.378 . S
C145 C144 1.378 . S
C145 C146 1.378 . S
C146 H131 0.940 . S
C146 C145 1.378 . S
C146 C147 1.396 . S
C147 H132 0.940 . S
C147 C142 1.391 . S
C147 C146 1.396 . S
C148 P128 1.803 . S
C148 C149 1.378 . S
C148 C153 1.400 . S
C149 H133 0.939 . S
C149 C148 1.378 . S
C149 C150 1.361 . S
C150 H134 0.942 . S
C150 C149 1.361 . S
C150 C151 1.369 . S
C151 C150 1.369 . S
C151 C152 1.404 . S
C152 H135 0.940 . S
C152 C151 1.404 . S
C152 C153 1.389 . S
C153 H136 0.939 . S
C153 C148 1.400 . S
C153 C152 1.389 . S
C154 P128 1.819 . S
C154 C155 1.391 . S
C154 C159 1.391 . S
C155 H137 0.941 . S
C155 C154 1.391 . S
C155 C156 1.396 . S
C156 H140 0.939 . S
C156 C155 1.396 . S
C156 C157 1.397 . S
C157 C156 1.397 . S
C157 C158 1.385 . S
C158 H141 0.940 . S
C158 C157 1.385 . S
C158 C159 1.388 . S
C159 H138 0.939 . S
C159 C154 1.391 . S
C159 C158 1.388 . S
P160 O171 1.490 . S
P160 C174 1.812 . S
P160 C180 1.803 . S
P160 C186 1.819 . S
H161 C175 0.941 . S
H162 C176 0.939 . S
H163 C178 0.940 . S
H164 C179 0.940 . S
H165 C181 0.939 . S
H166 C182 0.942 . S
H167 C184 0.940 . S
H168 C185 0.939 . S
H169 C187 0.941 . S
H170 C191 0.939 . S
O171 P160 1.490 . S
H172 C188 0.939 . S
H173 C190 0.940 . S
C174 P160 1.812 . S
C174 C175 1.389 . S
C174 C179 1.391 . S
C175 H161 0.941 . S
C175 C174 1.389 . S
C175 C176 1.397 . S
C176 H162 0.939 . S
C176 C175 1.397 . S
C176 C177 1.378 . S
C177 C176 1.378 . S
C177 C178 1.378 . S
C178 H163 0.940 . S
C178 C177 1.378 . S
C178 C179 1.396 . S
C179 H164 0.940 . S
C179 C174 1.391 . S
C179 C178 1.396 . S
C180 P160 1.803 . S
C180 C181 1.378 . S
C180 C185 1.400 . S
C181 H165 0.939 . S
C181 C180 1.378 . S
C181 C182 1.361 . S
C182 H166 0.942 . S
C182 C181 1.361 . S
C182 C183 1.369 . S
C183 C182 1.369 . S
C183 C184 1.404 . S
C184 H167 0.940 . S
C184 C183 1.404 . S
C184 C185 1.389 . S
C185 H168 0.939 . S
C185 C180 1.400 . S
C185 C184 1.389 . S
C186 P160 1.819 . S
C186 C187 1.391 . S
C186 C191 1.391 . S
C187 H169 0.941 . S
C187 C186 1.391 . S
C187 C188 1.396 . S
C188 H172 0.939 . S
C188 C187 1.396 . S
C188 C189 1.397 . S
C189 C188 1.397 . S
C189 C190 1.385 . S
C190 H173 0.940 . S
C190 C189 1.385 . S
C190 C191 1.388 . S
C191 H170 0.939 . S
C191 C186 1.391 . S
C191 C190 1.388 . S
P192 O203 1.490 . S
P192 C206 1.812 . S
P192 C212 1.803 . S
P192 C218 1.819 . S
H193 C207 0.941 . S
H194 C208 0.939 . S
H195 C210 0.940 . S
H196 C211 0.940 . S
H197 C213 0.939 . S
H198 C214 0.942 . S
H199 C216 0.940 . S
H200 C217 0.939 . S
H201 C219 0.941 . S
H202 C223 0.939 . S
O203 P192 1.490 . S
H204 C220 0.939 . S
H205 C222 0.940 . S
C206 P192 1.812 . S
C206 C207 1.389 . S
C206 C211 1.391 . S
C207 H193 0.941 . S
C207 C206 1.389 . S
C207 C208 1.397 . S
C208 H194 0.939 . S
C208 C207 1.397 . S
C208 C209 1.378 . S
C209 C208 1.378 . S
C209 C210 1.378 . S
C210 H195 0.940 . S
C210 C209 1.378 . S
C210 C211 1.396 . S
C211 H196 0.940 . S
C211 C206 1.391 . S
C211 C210 1.396 . S
C212 P192 1.803 . S
C212 C213 1.378 . S
C212 C217 1.400 . S
C213 H197 0.939 . S
C213 C212 1.378 . S
C213 C214 1.361 . S
C214 H198 0.942 . S
C214 C213 1.361 . S
C214 C215 1.369 . S
C215 C214 1.369 . S
C215 C216 1.404 . S
C216 H199 0.940 . S
C216 C215 1.404 . S
C216 C217 1.389 . S
C217 H200 0.939 . S
C217 C212 1.400 . S
C217 C216 1.389 . S
C218 P192 1.819 . S
C218 C219 1.391 . S
C218 C223 1.391 . S
C219 H201 0.941 . S
C219 C218 1.391 . S
C219 C220 1.396 . S
C220 H204 0.939 . S
C220 C219 1.396 . S
C220 C221 1.397 . S
C221 C220 1.397 . S
C221 C222 1.385 . S
C222 H205 0.940 . S
C222 C221 1.385 . S
C222 C223 1.388 . S
C223 H202 0.939 . S
C223 C218 1.391 . S
C223 C222 1.388 . S
P224 O235 1.490 . S
P224 C238 1.812 . S
P224 C244 1.803 . S
P224 C250 1.819 . S
H225 C239 0.941 . S
H226 C240 0.939 . S
H227 C242 0.940 . S
H228 C243 0.940 . S
H229 C245 0.939 . S
H230 C246 0.942 . S
H231 C248 0.940 . S
H232 C249 0.939 . S
H233 C251 0.941 . S
H234 C255 0.939 . S
O235 P224 1.490 . S
H236 C252 0.939 . S
H237 C254 0.940 . S
C238 P224 1.812 . S
C238 C239 1.389 . S
C238 C243 1.391 . S
C239 H225 0.941 . S
C239 C238 1.389 . S
C239 C240 1.397 . S
C240 H226 0.939 . S
C240 C239 1.397 . S
C240 C241 1.378 . S
C241 C240 1.378 . S
C241 C242 1.378 . S
C242 H227 0.940 . S
C242 C241 1.378 . S
C242 C243 1.396 . S
C243 H228 0.940 . S
C243 C238 1.391 . S
C243 C242 1.396 . S
C244 P224 1.803 . S
C244 C245 1.378 . S
C244 C249 1.400 . S
C245 H229 0.939 . S
C245 C244 1.378 . S
C245 C246 1.361 . S
C246 H230 0.942 . S
C246 C245 1.361 . S
C246 C247 1.369 . S
C247 C246 1.369 . S
C247 C248 1.404 . S
C248 H231 0.940 . S
C248 C247 1.404 . S
C248 C249 1.389 . S
C249 H232 0.939 . S
C249 C244 1.400 . S
C249 C248 1.389 . S
C250 P224 1.819 . S
C250 C251 1.391 . S
C250 C255 1.391 . S
C251 H233 0.941 . S
C251 C250 1.391 . S
C251 C252 1.396 . S
C252 H236 0.939 . S
C252 C251 1.396 . S
C252 C253 1.397 . S
C253 C252 1.397 . S
C253 C254 1.385 . S
C254 H237 0.940 . S
C254 C253 1.385 . S
C254 C255 1.388 . S
C255 H234 0.939 . S
C255 C250 1.391 . S
C255 C254 1.388 . S
P256 O267 1.490 . S
P256 C270 1.812 . S
P256 C276 1.803 . S
P256 C282 1.819 . S
H257 C271 0.941 . S
H258 C272 0.939 . S
H259 C274 0.940 . S
H260 C275 0.940 . S
H261 C277 0.939 . S
H262 C278 0.942 . S
H263 C280 0.940 . S
H264 C281 0.939 . S
H265 C283 0.941 . S
H266 C287 0.939 . S
O267 P256 1.490 . S
H268 C284 0.939 . S
H269 C286 0.940 . S
C270 P256 1.812 . S
C270 C271 1.389 . S
C270 C275 1.391 . S
C271 H257 0.941 . S
C271 C270 1.389 . S
C271 C272 1.397 . S
C272 H258 0.939 . S
C272 C271 1.397 . S
C272 C273 1.378 . S
C273 C272 1.378 . S
C273 C274 1.378 . S
C274 H259 0.940 . S
C274 C273 1.378 . S
C274 C275 1.396 . S
C275 H260 0.940 . S
C275 C270 1.391 . S
C275 C274 1.396 . S
C276 P256 1.803 . S
C276 C277 1.378 . S
C276 C281 1.400 . S
C277 H261 0.939 . S
C277 C276 1.378 . S
C277 C278 1.361 . S
C278 H262 0.942 . S
C278 C277 1.361 . S
C278 C279 1.369 . S
C279 C278 1.369 . S
C279 C280 1.404 . S
C280 H263 0.940 . S
C280 C279 1.404 . S
C280 C281 1.389 . S
C281 H264 0.939 . S
C281 C276 1.400 . S
C281 C280 1.389 . S
C282 P256 1.819 . S
C282 C283 1.391 . S
C282 C287 1.391 . S
C283 H265 0.941 . S
C283 C282 1.391 . S
C283 C284 1.396 . S
C284 H268 0.939 . S
C284 C283 1.396 . S
C284 C285 1.397 . S
C285 C284 1.397 . S
C285 C286 1.385 . S
C286 H269 0.940 . S
C286 C285 1.385 . S
C286 C287 1.388 . S
C287 H266 0.939 . S
C287 C282 1.391 . S
C287 C286 1.388 . S
P288 O299 1.490 . S
P288 C302 1.812 . S
P288 C308 1.803 . S
P288 C314 1.819 . S
H289 C303 0.968 . S
H290 C304 0.939 1_554 S
H291 C306 0.940 . S
H292 C307 0.940 . S
H293 C309 0.939 . S
H294 C310 0.942 . S
H295 C312 0.940 . S
H296 C313 0.939 . S
H297 C315 0.941 . S
H298 C319 0.939 . S
O299 P288 1.490 . S
H300 C316 0.939 . S
H301 C318 0.940 . S
C302 P288 1.812 . S
C302 C303 1.389 . S
C302 C307 1.391 . S
C303 H289 0.968 . S
C303 C302 1.389 . S
C303 C304 1.397 . S
C304 H290 0.939 1_556 S
C304 C303 1.397 . S
C304 C305 1.378 . S
C305 C304 1.378 . S
C305 C306 1.378 . S
C306 H291 0.940 . S
C306 C305 1.378 . S
C306 C307 1.396 . S
C307 H292 0.940 . S
C307 C302 1.391 . S
C307 C306 1.396 . S
C308 P288 1.803 . S
C308 C309 1.378 . S
C308 C313 1.400 . S
C309 H293 0.939 . S
C309 C308 1.378 . S
C309 C310 1.361 . S
C310 H294 0.942 . S
C310 C309 1.361 . S
C310 C311 1.369 . S
C311 C310 1.369 . S
C311 C312 1.404 . S
C312 H295 0.940 . S
C312 C311 1.404 . S
C312 C313 1.389 . S
C313 H296 0.939 . S
C313 C308 1.400 . S
C313 C312 1.389 . S
C314 P288 1.819 . S
C314 C315 1.391 . S
C314 C319 1.391 . S
C315 H297 0.941 . S
C315 C314 1.391 . S
C315 C316 1.396 . S
C316 H300 0.939 . S
C316 C315 1.396 . S
C316 C317 1.397 . S
C317 C316 1.397 . S
C317 C318 1.385 . S
C318 H301 0.940 . S
C318 C317 1.385 . S
C318 C319 1.388 . S
C319 H298 0.939 . S
C319 C314 1.391 . S
C319 C318 1.388 . S
P320 O331 1.490 . S
P320 C334 1.812 . S
P320 C340 1.803 . S
P320 C346 1.819 . S
H321 C335 0.941 . S
H322 C336 0.939 . S
H323 C338 0.940 . S
H324 C339 0.940 . S
H325 C341 0.939 . S
H326 C342 0.942 . S
H327 C344 0.940 . S
H328 C345 0.939 . S
H329 C347 0.941 . S
H330 C351 0.939 . S
O331 P320 1.490 . S
H332 C348 0.939 . S
H333 C350 0.940 . S
C334 P320 1.812 . S
C334 C335 1.389 . S
C334 C339 1.391 . S
C335 H321 0.941 . S
C335 C334 1.389 . S
C335 C336 1.397 . S
C336 H322 0.939 . S
C336 C335 1.397 . S
C336 C337 1.378 . S
C337 C336 1.378 . S
C337 C338 1.378 . S
C338 H323 0.940 . S
C338 C337 1.378 . S
C338 C339 1.396 . S
C339 H324 0.940 . S
C339 C334 1.391 . S
C339 C338 1.396 . S
C340 P320 1.803 . S
C340 C341 1.378 . S
C340 C345 1.400 . S
C341 H325 0.939 . S
C341 C340 1.378 . S
C341 C342 1.361 . S
C342 H326 0.942 . S
C342 C341 1.361 . S
C342 C343 1.369 . S
C343 C342 1.369 . S
C343 C344 1.404 . S
C344 H327 0.940 . S
C344 C343 1.404 . S
C344 C345 1.389 . S
C345 H328 0.939 . S
C345 C340 1.400 . S
C345 C344 1.389 . S
C346 P320 1.819 . S
C346 C347 1.391 . S
C346 C351 1.391 . S
C347 H329 0.941 . S
C347 C346 1.391 . S
C347 C348 1.396 . S
C348 H332 0.939 . S
C348 C347 1.396 . S
C348 C349 1.397 . S
C349 C348 1.397 . S
C349 C350 1.385 . S
C350 H333 0.940 . S
C350 C349 1.385 . S
C350 C351 1.388 . S
C351 H330 0.939 . S
C351 C346 1.391 . S
C351 C350 1.388 . S
P352 O363 1.490 . S
P352 C366 1.812 . S
P352 C372 1.803 . S
P352 C378 1.819 . S
H353 C367 0.941 . S
H354 C368 0.939 1_554 S
H355 C370 0.940 . S
H356 C371 0.940 . S
H357 C373 0.939 . S
H358 C374 0.942 . S
H359 C376 0.940 . S
H360 C377 0.939 . S
H361 C379 0.941 . S
H362 C383 0.939 . S
O363 P352 1.490 . S
H364 C380 0.939 . S
H365 C382 0.940 . S
C366 P352 1.812 . S
C366 C367 1.389 . S
C366 C371 1.391 . S
C367 H353 0.941 . S
C367 C366 1.389 . S
C367 C368 1.397 . S
C368 H354 0.939 1_556 S
C368 C367 1.397 . S
C368 C369 1.378 . S
C369 C368 1.378 . S
C369 C370 1.378 . S
C370 H355 0.940 . S
C370 C369 1.378 . S
C370 C371 1.396 . S
C371 H356 0.940 . S
C371 C366 1.391 . S
C371 C370 1.396 . S
C372 P352 1.803 . S
C372 C373 1.378 . S
C372 C377 1.400 . S
C373 H357 0.939 . S
C373 C372 1.378 . S
C373 C374 1.361 . S
C374 H358 0.942 . S
C374 C373 1.361 . S
C374 C375 1.369 . S
C375 C374 1.369 . S
C375 C376 1.404 . S
C376 H359 0.940 . S
C376 C375 1.404 . S
C376 C377 1.389 . S
C377 H360 0.939 . S
C377 C372 1.400 . S
C377 C376 1.389 . S
C378 P352 1.819 . S
C378 C379 1.391 . S
C378 C383 1.391 . S
C379 H361 0.941 . S
C379 C378 1.391 . S
C379 C380 1.396 . S
C380 H364 0.939 . S
C380 C379 1.396 . S
C380 C381 1.397 . S
C381 C380 1.397 . S
C381 C382 1.385 . S
C382 H365 0.940 . S
C382 C381 1.385 . S
C382 C383 1.388 . S
C383 H362 0.939 . S
C383 C378 1.391 . S
C383 C382 1.388 . S
P384 O395 1.490 . S
P384 C398 1.812 . S
P384 C404 1.803 . S
P384 C410 1.819 . S
H385 C399 0.941 . S
H386 C400 0.939 . S
H387 C402 0.940 . S
H388 C403 0.940 . S
H389 C405 0.939 . S
H390 C406 0.942 . S
H391 C408 0.940 . S
H392 C409 0.939 . S
H393 C411 0.941 . S
H394 C415 0.939 . S
O395 P384 1.490 . S
H396 C412 0.939 . S
H397 C414 0.940 . S
C398 P384 1.812 . S
C398 C399 1.389 . S
C398 C403 1.391 . S
C399 H385 0.941 . S
C399 C398 1.389 . S
C399 C400 1.397 . S
C400 H386 0.939 . S
C400 C399 1.397 . S
C400 C401 1.378 . S
C401 C400 1.378 . S
C401 C402 1.378 . S
C402 H387 0.940 . S
C402 C401 1.378 . S
C402 C403 1.396 . S
C403 H388 0.940 . S
C403 C398 1.391 . S
C403 C402 1.396 . S
C404 P384 1.803 . S
C404 C405 1.378 . S
C404 C409 1.400 . S
C405 H389 0.939 . S
C405 C404 1.378 . S
C405 C406 1.361 . S
C406 H390 0.942 . S
C406 C405 1.361 . S
C406 C407 1.369 . S
C407 C406 1.369 . S
C407 C408 1.404 . S
C408 H391 0.940 . S
C408 C407 1.404 . S
C408 C409 1.389 . S
C409 H392 0.939 . S
C409 C404 1.400 . S
C409 C408 1.389 . S
C410 P384 1.819 . S
C410 C411 1.391 . S
C410 C415 1.391 . S
C411 H393 0.941 . S
C411 C410 1.391 . S
C411 C412 1.396 . S
C412 H396 0.939 . S
C412 C411 1.396 . S
C412 C413 1.397 . S
C413 C412 1.397 . S
C413 C414 1.385 . S
C414 H397 0.940 . S
C414 C413 1.385 . S
C414 C415 1.388 . S
C415 H394 0.939 . S
C415 C410 1.391 . S
C415 C414 1.388 . S
P416 O427 1.490 . S
P416 C430 1.812 . S
P416 C436 1.803 . S
P416 C442 1.819 . S
H417 C431 0.941 . S
H418 C432 0.939 . S
H419 C434 0.940 . S
H420 C435 0.940 . S
H421 C437 0.939 . S
H422 C438 0.942 . S
H423 C440 0.940 . S
H424 C441 0.939 . S
H425 C443 0.941 . S
H426 C447 0.939 . S
O427 P416 1.490 . S
H428 C444 0.939 . S
H429 C446 0.940 . S
C430 P416 1.812 . S
C430 C431 1.389 . S
C430 C435 1.391 . S
C431 H417 0.941 . S
C431 C430 1.389 . S
C431 C432 1.397 . S
C432 H418 0.939 . S
C432 C431 1.397 . S
C432 C433 1.378 . S
C433 C432 1.378 . S
C433 C434 1.378 . S
C434 H419 0.940 . S
C434 C433 1.378 . S
C434 C435 1.396 . S
C435 H420 0.940 . S
C435 C430 1.391 . S
C435 C434 1.396 . S
C436 P416 1.803 . S
C436 C437 1.378 . S
C436 C441 1.400 . S
C437 H421 0.939 . S
C437 C436 1.378 . S
C437 C438 1.361 . S
C438 H422 0.942 . S
C438 C437 1.361 . S
C438 C439 1.369 . S
C439 C438 1.369 . S
C439 C440 1.404 . S
C440 H423 0.940 . S
C440 C439 1.404 . S
C440 C441 1.389 . S
C441 H424 0.939 . S
C441 C436 1.400 . S
C441 C440 1.389 . S
C442 P416 1.819 . S
C442 C443 1.391 . S
C442 C447 1.391 . S
C443 H425 0.941 . S
C443 C442 1.391 . S
C443 C444 1.396 . S
C444 H428 0.939 . S
C444 C443 1.396 . S
C444 C445 1.397 . S
C445 C444 1.397 . S
C445 C446 1.385 . S
C446 H429 0.940 . S
C446 C445 1.385 . S
C446 C447 1.388 . S
C447 H426 0.939 . S
C447 C442 1.391 . S
C447 C446 1.388 . S
P448 O459 1.490 . S
P448 C462 1.812 . S
P448 C468 1.803 . S
P448 C474 1.819 . S
H449 C463 0.941 . S
H450 C464 0.939 . S
H451 C466 0.940 . S
H452 C467 0.940 . S
H453 C469 0.939 . S
H454 C470 0.942 . S
H455 C472 0.940 . S
H456 C473 0.939 . S
H457 C475 0.941 . S
H458 C479 0.939 . S
O459 P448 1.490 . S
H460 C476 0.939 . S
H461 C478 0.940 . S
C462 P448 1.812 . S
C462 C463 1.389 . S
C462 C467 1.391 . S
C463 H449 0.941 . S
C463 C462 1.389 . S
C463 C464 1.397 . S
C464 H450 0.939 . S
C464 C463 1.397 . S
C464 C465 1.378 . S
C465 C464 1.378 . S
C465 C466 1.378 . S
C466 H451 0.940 . S
C466 C465 1.378 . S
C466 C467 1.396 . S
C467 H452 0.940 . S
C467 C462 1.391 . S
C467 C466 1.396 . S
C468 P448 1.803 . S
C468 C469 1.378 . S
C468 C473 1.400 . S
C469 H453 0.939 . S
C469 C468 1.378 . S
C469 C470 1.361 . S
C470 H454 0.942 . S
C470 C469 1.361 . S
C470 C471 1.369 . S
C471 C470 1.369 . S
C471 C472 1.404 . S
C472 H455 0.940 . S
C472 C471 1.404 . S
C472 C473 1.389 . S
C473 H456 0.939 . S
C473 C468 1.400 . S
C473 C472 1.389 . S
C474 P448 1.819 . S
C474 C475 1.391 . S
C474 C479 1.391 . S
C475 H457 0.941 . S
C475 C474 1.391 . S
C475 C476 1.396 . S
C476 H460 0.939 . S
C476 C475 1.396 . S
C476 C477 1.397 . S
C477 C476 1.397 . S
C477 C478 1.385 . S
C478 H461 0.940 . S
C478 C477 1.385 . S
C478 C479 1.388 . S
C479 H458 0.939 . S
C479 C474 1.391 . S
C479 C478 1.388 . S
P480 O491 1.490 . S
P480 C494 1.812 . S
P480 C500 1.803 . S
P480 C506 1.819 . S
H481 C495 0.941 . S
H482 C496 0.939 . S
H483 C498 0.940 . S
H484 C499 0.940 . S
H485 C501 0.939 . S
H486 C502 0.942 . S
H487 C504 0.940 . S
H488 C505 0.939 . S
H489 C507 0.941 . S
H490 C511 0.939 . S
O491 P480 1.490 . S
H492 C508 0.924 1_545 S
H493 C510 0.940 . S
C494 P480 1.812 . S
C494 C495 1.389 . S
C494 C499 1.391 . S
C495 H481 0.941 . S
C495 C494 1.389 . S
C495 C496 1.397 . S
C496 H482 0.939 . S
C496 C495 1.397 . S
C496 C497 1.378 . S
C497 C496 1.378 . S
C497 C498 1.378 . S
C498 H483 0.940 . S
C498 C497 1.378 . S
C498 C499 1.396 . S
C499 H484 0.940 . S
C499 C494 1.391 . S
C499 C498 1.396 . S
C500 P480 1.803 . S
C500 C501 1.378 . S
C500 C505 1.400 . S
C501 H485 0.939 . S
C501 C500 1.378 . S
C501 C502 1.361 . S
C502 H486 0.942 . S
C502 C501 1.361 . S
C502 C503 1.369 . S
C503 C502 1.369 . S
C503 C504 1.404 . S
C504 H487 0.940 . S
C504 C503 1.404 . S
C504 C505 1.389 . S
C505 H488 0.939 . S
C505 C500 1.400 . S
C505 C504 1.389 . S
C506 P480 1.819 . S
C506 C507 1.391 . S
C506 C511 1.391 . S
C507 H489 0.941 . S
C507 C506 1.391 . S
C507 C508 1.396 . S
C508 H492 0.924 1_565 S
C508 C507 1.396 . S
C508 C509 1.397 . S
C509 C508 1.397 . S
C509 C510 1.385 . S
C510 H493 0.940 . S
C510 C509 1.385 . S
C510 C511 1.388 . S
C511 H490 0.939 . S
C511 C506 1.391 . S
C511 C510 1.388 . S
P512 O523 1.490 . S
P512 C526 1.812 . S
P512 C532 1.803 . S
P512 C538 1.819 . S
H513 C527 0.941 . S
H514 C528 0.939 . S
H515 C530 0.940 . S
H516 C531 0.940 . S
H517 C533 0.939 . S
H518 C534 0.942 . S
H519 C536 0.940 . S
H520 C537 0.939 . S
H521 C539 0.941 . S
H522 C543 0.939 . S
O523 P512 1.490 . S
H524 C540 0.939 . S
H525 C542 0.940 . S
C526 P512 1.812 . S
C526 C527 1.389 . S
C526 C531 1.391 . S
C527 H513 0.941 . S
C527 C526 1.389 . S
C527 C528 1.397 . S
C528 H514 0.939 . S
C528 C527 1.397 . S
C528 C529 1.378 . S
C529 C528 1.378 . S
C529 C530 1.378 . S
C530 H515 0.940 . S
C530 C529 1.378 . S
C530 C531 1.396 . S
C531 H516 0.940 . S
C531 C526 1.391 . S
C531 C530 1.396 . S
C532 P512 1.803 . S
C532 C533 1.378 . S
C532 C537 1.400 . S
C533 H517 0.939 . S
C533 C532 1.378 . S
C533 C534 1.361 . S
C534 H518 0.942 . S
C534 C533 1.361 . S
C534 C535 1.369 . S
C535 C534 1.369 . S
C535 C536 1.404 . S
C536 H519 0.940 . S
C536 C535 1.404 . S
C536 C537 1.389 . S
C537 H520 0.939 . S
C537 C532 1.400 . S
C537 C536 1.389 . S
C538 P512 1.819 . S
C538 C539 1.391 . S
C538 C543 1.391 . S
C539 H521 0.941 . S
C539 C538 1.391 . S
C539 C540 1.396 . S
C540 H524 0.939 . S
C540 C539 1.396 . S
C540 C541 1.397 . S
C541 C540 1.397 . S
C541 C542 1.385 . S
C542 H525 0.940 . S
C542 C541 1.385 . S
C542 C543 1.388 . S
C543 H522 0.939 . S
C543 C538 1.391 . S
C543 C542 1.388 . S
P544 O555 1.490 . S
P544 C558 1.812 . S
P544 C564 1.803 . S
P544 C570 1.819 . S
H545 C559 0.941 . S
H546 C560 0.939 . S
H547 C562 0.940 . S
H548 C563 0.940 . S
H549 C565 0.939 . S
H550 C566 0.942 . S
H551 C568 0.940 . S
H552 C569 0.939 . S
H553 C571 0.941 . S
H554 C575 0.939 . S
O555 P544 1.490 . S
H556 C572 0.939 . S
H557 C574 0.940 . S
C558 P544 1.812 . S
C558 C559 1.389 . S
C558 C563 1.391 . S
C559 H545 0.941 . S
C559 C558 1.389 . S
C559 C560 1.397 . S
C560 H546 0.939 . S
C560 C559 1.397 . S
C560 C561 1.378 . S
C561 C560 1.378 . S
C561 C562 1.378 . S
C562 H547 0.940 . S
C562 C561 1.378 . S
C562 C563 1.396 . S
C563 H548 0.940 . S
C563 C558 1.391 . S
C563 C562 1.396 . S
C564 P544 1.803 . S
C564 C565 1.378 . S
C564 C569 1.400 . S
C565 H549 0.939 . S
C565 C564 1.378 . S
C565 C566 1.361 . S
C566 H550 0.942 . S
C566 C565 1.361 . S
C566 C567 1.369 . S
C567 C566 1.369 . S
C567 C568 1.404 . S
C568 H551 0.940 . S
C568 C567 1.404 . S
C568 C569 1.389 . S
C569 H552 0.939 . S
C569 C564 1.400 . S
C569 C568 1.389 . S
C570 P544 1.819 . S
C570 C571 1.391 . S
C570 C575 1.391 . S
C571 H553 0.941 . S
C571 C570 1.391 . S
C571 C572 1.396 . S
C572 H556 0.939 . S
C572 C571 1.396 . S
C572 C573 1.397 . S
C573 C572 1.397 . S
C573 C574 1.385 . S
C574 H557 0.940 . S
C574 C573 1.385 . S
C574 C575 1.388 . S
C575 H554 0.939 . S
C575 C570 1.391 . S
C575 C574 1.388 . S
O576 Mn577 2.163 1_565 S
O576 C590 1.244 . S
Mn577 O576 2.163 1_545 S
Mn577 O580 2.160 . S
Mn577 O581 2.221 1_545 S
Mn577 O583 2.163 1_554 S
Mn577 O585 2.160 . S
Mn577 O595 2.221 . S
O578 Mn579 2.087 1_565 S
O578 C590 1.256 . S
Mn579 O578 2.087 1_545 S
Mn579 O586 2.116 . S
Mn579 O595 2.290 . S
Mn579 O596 2.251 . S
O580 Mn577 2.160 . S
O580 C591 1.239 1_554 S
O581 Mn577 2.221 1_565 S
O581 Mn582 2.290 1_554 S
O581 C592 1.280 . S
Mn582 O581 2.290 1_556 S
Mn582 O584 2.089 1_565 S
Mn582 O587 2.251 . S
Mn582 O588 2.087 . S
O583 Mn577 2.163 1_556 S
O583 C593 1.244 . S
O584 Mn582 2.089 1_545 S
O584 C591 1.256 . S
O585 Mn577 2.160 . S
O585 C594 1.239 . S
O586 Mn579 2.116 . S
O586 C594 1.236 . S
O587 Mn582 2.251 . S
O587 C592 1.229 1_556 S
O588 Mn582 2.087 . S
O588 C593 1.256 1_565 S
C589 O595 1.278 . S
C589 O596 1.241 . S
C590 O576 1.244 . S
C590 O578 1.256 . S
C591 O580 1.239 1_556 S
C591 O584 1.256 . S
C592 O581 1.280 . S
C592 O587 1.229 1_554 S
C593 O583 1.244 . S
C593 O588 1.256 1_545 S
C594 O585 1.239 . S
C594 O586 1.236 . S
O595 Mn577 2.221 . S
O595 Mn579 2.290 . S
O595 C589 1.278 . S
O596 Mn579 2.251 . S
O596 C589 1.241 . S
O597 Mn598 2.144 1_455 S
O597 C611 1.244 . S
Mn598 O597 2.144 1_655 S
Mn598 O601 2.179 . S
Mn598 O602 2.219 1_655 S
Mn598 O604 2.163 1_554 S
Mn598 O606 2.161 . S
Mn598 O616 2.224 . S
O599 Mn600 2.087 1_455 S
O599 C611 1.256 . S
Mn600 O599 2.087 1_655 S
Mn600 O607 2.089 1_655 S
Mn600 O616 2.290 . S
Mn600 O617 2.251 . S
O601 Mn598 2.179 . S
O601 C612 1.239 1_554 S
O602 Mn598 2.219 1_455 S
O602 Mn603 2.290 1_554 S
O602 C613 1.278 . S
Mn603 O602 2.290 1_556 S
Mn603 O605 2.089 1_455 S
Mn603 O608 2.251 . S
Mn603 O609 2.087 . S
O604 Mn598 2.163 1_556 S
O604 C614 1.242 . S
O605 Mn603 2.089 1_655 S
O605 C612 1.256 . S
O606 Mn598 2.161 . S
O606 C615 1.239 1_655 S
O607 Mn600 2.089 1_455 S
O607 C615 1.256 . S
O608 Mn603 2.251 . S
O608 C613 1.241 1_556 S
O609 Mn603 2.087 . S
O609 C614 1.257 1_455 S
C610 O616 1.278 . S
C610 O617 1.241 . S
C611 O597 1.244 . S
C611 O599 1.256 . S
C612 O601 1.239 1_556 S
C612 O605 1.256 . S
C613 O602 1.278 . S
C613 O608 1.241 1_554 S
C614 O604 1.242 . S
C614 O609 1.257 1_655 S
C615 O606 1.239 1_455 S
C615 O607 1.256 . S
O616 Mn598 2.224 . S
O616 Mn600 2.290 . S
O616 C610 1.278 . S
O617 Mn600 2.251 . S
O617 C610 1.241 . S
O618 Mn619 2.162 1_556 S
O618 C632 1.244 . S
Mn619 O618 2.162 1_554 S
Mn619 O622 2.160 . S
Mn619 O623 2.223 . S
Mn619 O625 2.185 . S
Mn619 O627 2.138 1_554 S
Mn619 O637 2.218 1_554 S
O620 Mn621 2.087 . S
O620 C632 1.256 . S
Mn621 O620 2.087 . S
Mn621 O628 2.089 . S
Mn621 O637 2.290 . S
Mn621 O638 2.251 1_556 S
O622 Mn619 2.160 . S
O622 C633 1.260 . S
O623 Mn619 2.223 . S
O623 Mn624 2.290 . S
O623 C634 1.278 . S
Mn624 O623 2.290 . S
Mn624 O626 2.089 . S
Mn624 O629 2.251 . S
Mn624 O630 2.087 . S
O625 Mn619 2.185 . S
O625 C635 1.244 . S
O626 Mn624 2.089 . S
O626 C633 1.256 . S
O627 Mn619 2.138 1_556 S
O627 C636 1.239 . S
O628 Mn621 2.089 . S
O628 C636 1.256 . S
O629 Mn624 2.251 . S
O629 C634 1.241 . S
O630 Mn624 2.087 . S
O630 C635 1.256 . S
C631 O637 1.278 1_554 S
C631 O638 1.241 . S
C632 O618 1.244 . S
C632 O620 1.256 . S
C633 O622 1.260 . S
C633 O626 1.256 . S
C634 O623 1.278 . S
C634 O629 1.241 . S
C635 O625 1.244 . S
C635 O630 1.256 . S
C636 O627 1.239 . S
C636 O628 1.256 . S
O637 Mn619 2.218 1_556 S
O637 Mn621 2.290 . S
O637 C631 1.278 1_556 S
O638 Mn621 2.251 1_554 S
O638 C631 1.241 . S
O639 Mn640 2.163 . S
O639 C653 1.244 . S
Mn640 O639 2.163 . S
Mn640 O643 2.160 . S
Mn640 O644 2.221 . S
Mn640 O646 2.163 . S
Mn640 O648 2.160 . S
Mn640 O658 2.221 . S
O641 Mn642 2.087 . S
O641 C653 1.256 . S
Mn642 O641 2.087 . S
Mn642 O649 2.089 . S
Mn642 O658 2.290 . S
Mn642 O659 2.251 . S
O643 Mn640 2.160 . S
O643 C654 1.239 . S
O644 Mn640 2.221 . S
O644 Mn645 2.290 . S
O644 C655 1.278 . S
Mn645 O644 2.290 . S
Mn645 O647 2.089 . S
Mn645 O650 2.251 . S
Mn645 O651 2.087 . S
O646 Mn640 2.163 . S
O646 C656 1.244 . S
O647 Mn645 2.089 . S
O647 C654 1.256 . S
O648 Mn640 2.160 . S
O648 C657 1.239 . S
O649 Mn642 2.089 . S
O649 C657 1.256 . S
O650 Mn645 2.251 . S
O650 C655 1.241 . S
O651 Mn645 2.087 . S
O651 C656 1.256 . S
C652 O658 1.278 . S
C652 O659 1.241 . S
C653 O639 1.244 . S
C653 O641 1.256 . S
C654 O643 1.239 . S
C654 O647 1.256 . S
C655 O644 1.278 . S
C655 O650 1.241 . S
C656 O646 1.244 . S
C656 O651 1.256 . S
C657 O648 1.239 . S
C657 O649 1.256 . S
O658 Mn640 2.221 . S
O658 Mn642 2.290 . S
O658 C652 1.278 . S
O659 Mn642 2.251 . S
O659 C652 1.241 . S
O660 Mn661 2.163 . S
O660 C674 1.244 . S
Mn661 O660 2.163 . S
Mn661 O664 2.160 . S
Mn661 O665 2.221 . S
Mn661 O667 2.163 . S
Mn661 O669 2.160 . S
Mn661 O679 2.221 . S
O662 Mn663 2.087 . S
O662 C674 1.256 . S
Mn663 O662 2.087 . S
Mn663 O670 2.089 . S
Mn663 O679 2.290 . S
Mn663 O680 2.251 . S
O664 Mn661 2.160 . S
O664 C675 1.239 . S
O665 Mn661 2.221 . S
O665 Mn666 2.290 . S
O665 C676 1.278 . S
Mn666 O665 2.290 . S
Mn666 O668 2.089 . S
Mn666 O671 2.251 . S
Mn666 O672 2.087 . S
O667 Mn661 2.163 . S
O667 C677 1.244 . S
O668 Mn666 2.089 . S
O668 C675 1.256 . S
O669 Mn661 2.160 . S
O669 C678 1.239 . S
O670 Mn663 2.089 . S
O670 C678 1.256 . S
O671 Mn666 2.251 . S
O671 C676 1.241 . S
O672 Mn666 2.087 . S
O672 C677 1.256 . S
C673 O679 1.278 . S
C673 O680 1.241 . S
C674 O660 1.244 . S
C674 O662 1.256 . S
C675 O664 1.239 . S
C675 O668 1.256 . S
C676 O665 1.278 . S
C676 O671 1.241 . S
C677 O667 1.244 . S
C677 O672 1.256 . S
C678 O669 1.239 . S
C678 O670 1.256 . S
O679 Mn661 2.221 . S
O679 Mn663 2.290 . S
O679 C673 1.278 . S
O680 Mn663 2.251 . S
O680 C673 1.241 . S
O681 Mn682 2.163 . S
O681 C695 1.244 . S
Mn682 O681 2.163 . S
Mn682 O685 2.160 . S
Mn682 O686 2.221 . S
Mn682 O688 2.163 . S
Mn682 O690 2.160 . S
Mn682 O700 2.221 . S
O683 Mn684 2.087 . S
O683 C695 1.256 . S
Mn684 O683 2.087 . S
Mn684 O691 2.089 . S
Mn684 O700 2.290 . S
Mn684 O701 2.251 . S
O685 Mn682 2.160 . S
O685 C696 1.239 . S
O686 Mn682 2.221 . S
O686 Mn687 2.290 . S
O686 C697 1.278 . S
Mn687 O686 2.290 . S
Mn687 O689 2.089 . S
Mn687 O692 2.251 . S
Mn687 O693 2.087 . S
O688 Mn682 2.163 . S
O688 C698 1.244 . S
O689 Mn687 2.089 . S
O689 C696 1.256 . S
O690 Mn682 2.160 . S
O690 C699 1.239 . S
O691 Mn684 2.089 . S
O691 C699 1.256 . S
O692 Mn687 2.251 . S
O692 C697 1.241 . S
O693 Mn687 2.087 . S
O693 C698 1.256 . S
C694 O700 1.278 . S
C694 O701 1.241 . S
C695 O681 1.244 . S
C695 O683 1.256 . S
C696 O685 1.239 . S
C696 O689 1.256 . S
C697 O686 1.278 . S
C697 O692 1.241 . S
C698 O688 1.244 . S
C698 O693 1.256 . S
C699 O690 1.239 . S
C699 O691 1.256 . S
O700 Mn682 2.221 . S
O700 Mn684 2.290 . S
O700 C694 1.278 . S
O701 Mn684 2.251 . S
O701 C694 1.241 . S
O702 Mn703 2.163 . S
O702 C716 1.244 . S
Mn703 O702 2.163 . S
Mn703 O706 2.160 . S
Mn703 O707 2.221 . S
Mn703 O709 2.163 . S
Mn703 O711 2.160 . S
Mn703 O721 2.221 . S
O704 Mn705 2.087 . S
O704 C716 1.256 . S
Mn705 O704 2.087 . S
Mn705 O712 2.089 . S
Mn705 O721 2.290 . S
Mn705 O722 2.251 . S
O706 Mn703 2.160 . S
O706 C717 1.239 . S
O707 Mn703 2.221 . S
O707 Mn708 2.290 . S
O707 C718 1.278 . S
Mn708 O707 2.290 . S
Mn708 O710 2.089 . S
Mn708 O713 2.251 . S
Mn708 O714 2.087 . S
O709 Mn703 2.163 . S
O709 C719 1.244 . S
O710 Mn708 2.089 . S
O710 C717 1.256 . S
O711 Mn703 2.160 . S
O711 C720 1.239 . S
O712 Mn705 2.089 . S
O712 C720 1.256 . S
O713 Mn708 2.251 . S
O713 C718 1.241 . S
O714 Mn708 2.087 . S
O714 C719 1.256 . S
C715 O721 1.278 . S
C715 O722 1.241 . S
C716 O702 1.244 . S
C716 O704 1.256 . S
C717 O706 1.239 . S
C717 O710 1.256 . S
C718 O707 1.278 . S
C718 O713 1.241 . S
C719 O709 1.244 . S
C719 O714 1.256 . S
C720 O711 1.239 . S
C720 O712 1.256 . S
O721 Mn703 2.221 . S
O721 Mn705 2.290 . S
O721 C715 1.278 . S
O722 Mn705 2.251 . S
O722 C715 1.241 . S
O723 Mn724 2.163 . S
O723 C737 1.244 . S
Mn724 O723 2.163 . S
Mn724 O727 2.160 . S
Mn724 O728 2.221 . S
Mn724 O730 2.163 . S
Mn724 O732 2.160 . S
Mn724 O742 2.221 . S
O725 Mn726 2.087 . S
O725 C737 1.256 . S
Mn726 O725 2.087 . S
Mn726 O733 2.089 . S
Mn726 O742 2.290 . S
Mn726 O743 2.251 . S
O727 Mn724 2.160 . S
O727 C738 1.239 . S
O728 Mn724 2.221 . S
O728 Mn729 2.290 . S
O728 C739 1.278 . S
Mn729 O728 2.290 . S
Mn729 O731 2.089 . S
Mn729 O734 2.251 . S
Mn729 O735 2.087 . S
O730 Mn724 2.163 . S
O730 C740 1.244 . S
O731 Mn729 2.089 . S
O731 C738 1.256 . S
O732 Mn724 2.160 . S
O732 C741 1.239 . S
O733 Mn726 2.089 . S
O733 C741 1.256 . S
O734 Mn729 2.251 . S
O734 C739 1.241 . S
O735 Mn729 2.087 . S
O735 C740 1.256 . S
C736 O742 1.278 . S
C736 O743 1.241 . S
C737 O723 1.244 . S
C737 O725 1.256 . S
C738 O727 1.239 . S
C738 O731 1.256 . S
C739 O728 1.278 . S
C739 O734 1.241 . S
C740 O730 1.244 . S
C740 O735 1.256 . S
C741 O732 1.239 . S
C741 O733 1.256 . S
O742 Mn724 2.221 . S
O742 Mn726 2.290 . S
O742 C736 1.278 . S
O743 Mn726 2.251 . S
O743 C736 1.241 . S
O744 Mn745 2.163 . S
O744 C758 1.244 . S
Mn745 O744 2.163 . S
Mn745 O748 2.160 . S
Mn745 O749 2.221 . S
Mn745 O751 2.163 . S
Mn745 O753 2.160 . S
Mn745 O763 2.221 . S
O746 Mn747 2.087 . S
O746 C758 1.256 . S
Mn747 O746 2.087 . S
Mn747 O754 2.089 . S
Mn747 O763 2.290 . S
Mn747 O764 2.251 . S
O748 Mn745 2.160 . S
O748 C759 1.239 . S
O749 Mn745 2.221 . S
O749 Mn750 2.290 . S
O749 C760 1.278 . S
Mn750 O749 2.290 . S
Mn750 O752 2.089 . S
Mn750 O755 2.251 . S
Mn750 O756 2.087 . S
O751 Mn745 2.163 . S
O751 C761 1.244 . S
O752 Mn750 2.089 . S
O752 C759 1.256 . S
O753 Mn745 2.160 . S
O753 C762 1.239 . S
O754 Mn747 2.089 . S
O754 C762 1.256 . S
O755 Mn750 2.251 . S
O755 C760 1.241 . S
O756 Mn750 2.087 . S
O756 C761 1.256 . S
C757 O763 1.278 . S
C757 O764 1.241 . S
C758 O744 1.244 . S
C758 O746 1.256 . S
C759 O748 1.239 . S
C759 O752 1.256 . S
C760 O749 1.278 . S
C760 O755 1.241 . S
C761 O751 1.244 . S
C761 O756 1.256 . S
C762 O753 1.239 . S
C762 O754 1.256 . S
O763 Mn745 2.221 . S
O763 Mn747 2.290 . S
O763 C757 1.278 . S
O764 Mn747 2.251 . S
O764 C757 1.241 . S
H765 C771 0.930 . S
H766 C774 0.935 . S
H767 C775 0.930 . S
H768 C776 0.930 1_556 S
H769 C779 0.930 . S
H770 C780 0.930 . S
C771 H765 0.930 . S
C771 C772 1.355 . S
C771 C773 1.415 . S
C772 C771 1.355 . S
C772 C774 1.412 1_554 S
C773 C771 1.415 . S
C773 C778 1.425 . S
C773 C780 1.409 . S
C774 H766 0.935 . S
C774 C772 1.412 1_556 S
C774 C775 1.364 . S
C775 H767 0.930 . S
C775 C774 1.364 . S
C775 C778 1.409 1_556 S
C776 H768 0.930 1_554 S
C776 C777 1.355 . S
C776 C778 1.415 . S
C777 C776 1.355 . S
C777 C779 1.419 . S
C778 C773 1.425 . S
C778 C775 1.409 1_554 S
C778 C776 1.415 . S
C779 H769 0.930 . S
C779 C777 1.419 . S
C779 C780 1.362 . S
C780 H770 0.930 . S
C780 C773 1.409 . S
C780 C779 1.362 . S
H781 C787 0.930 . S
H782 C790 0.930 . S
H783 C791 0.930 . S
H784 C792 0.930 . S
H785 C795 0.930 . S
H786 C796 0.930 . S
C787 H781 0.930 . S
C787 C788 1.355 . S
C787 C789 1.415 . S
C788 C787 1.355 . S
C788 C790 1.419 . S
C789 C787 1.415 . S
C789 C794 1.425 . S
C789 C796 1.409 . S
C790 H782 0.930 . S
C790 C788 1.419 . S
C790 C791 1.362 . S
C791 H783 0.930 . S
C791 C790 1.362 . S
C791 C794 1.409 . S
C792 H784 0.930 . S
C792 C793 1.355 . S
C792 C794 1.415 . S
C793 C792 1.355 . S
C793 C795 1.419 . S
C794 C789 1.425 . S
C794 C791 1.409 . S
C794 C792 1.415 . S
C795 H785 0.930 . S
C795 C793 1.419 . S
C795 C796 1.362 . S
C796 H786 0.930 . S
C796 C789 1.409 . S
C796 C795 1.362 . S
H797 C803 0.930 1_556 S
H798 C806 0.930 . S
H799 C807 0.930 . S
H800 C808 0.930 . S
H801 C811 0.930 . S
H802 C812 0.930 . S
C803 H797 0.930 1_554 S
C803 C804 1.355 . S
C803 C805 1.415 . S
C804 C803 1.355 . S
C804 C806 1.419 . S
C805 C803 1.415 . S
C805 C810 1.425 . S
C805 C812 1.409 1_554 S
C806 H798 0.930 . S
C806 C804 1.419 . S
C806 C807 1.362 . S
C807 H799 0.930 . S
C807 C806 1.362 . S
C807 C810 1.409 . S
C808 H800 0.930 . S
C808 C809 1.355 . S
C808 C810 1.415 . S
C809 C808 1.355 . S
C809 C811 1.419 1_554 S
C810 C805 1.425 . S
C810 C807 1.409 . S
C810 C808 1.415 . S
C811 H801 0.930 . S
C811 C809 1.419 1_556 S
C811 C812 1.362 . S
C812 H802 0.930 . S
C812 C805 1.409 1_556 S
C812 C811 1.362 . S
H813 C819 0.913 1_554 S
H814 C822 0.930 . S
H815 C823 0.930 . S
H816 C824 0.930 . S
H817 C827 0.930 . S
H818 C828 0.930 . S
C819 H813 0.913 1_556 S
C819 C820 1.370 . S
C819 C821 1.416 . S
C820 C819 1.370 . S
C820 C822 1.419 . S
C821 C819 1.416 . S
C821 C826 1.425 . S
C821 C828 1.409 1_556 S
C822 H814 0.930 . S
C822 C820 1.419 . S
C822 C823 1.362 . S
C823 H815 0.930 . S
C823 C822 1.362 . S
C823 C826 1.409 . S
C824 H816 0.930 . S
C824 C825 1.355 . S
C824 C826 1.415 . S
C825 C824 1.355 . S
C825 C827 1.419 1_556 S
C826 C821 1.425 . S
C826 C823 1.409 . S
C826 C824 1.415 . S
C827 H817 0.930 . S
C827 C825 1.419 1_554 S
C827 C828 1.362 . S
C828 H818 0.930 . S
C828 C821 1.409 1_554 S
C828 C827 1.362 . S
H829 C835 0.930 . S
H830 C838 0.930 . S
H831 C839 0.930 . S
H832 C840 0.930 . S
H833 C843 0.917 1_554 S
H834 C844 0.930 1_554 S
C835 H829 0.930 . S
C835 C836 1.355 . S
C835 C837 1.415 . S
C836 C835 1.355 . S
C836 C838 1.419 . S
C837 C835 1.415 . S
C837 C842 1.425 . S
C837 C844 1.409 . S
C838 H830 0.930 . S
C838 C836 1.419 . S
C838 C839 1.362 . S
C839 H831 0.930 . S
C839 C838 1.362 . S
C839 C842 1.409 . S
C840 H832 0.930 . S
C840 C841 1.355 . S
C840 C842 1.415 . S
C841 C840 1.355 . S
C841 C843 1.431 . S
C842 C837 1.425 . S
C842 C839 1.409 . S
C842 C840 1.415 . S
C843 H833 0.917 1_556 S
C843 C841 1.431 . S
C843 C844 1.365 . S
C844 H834 0.930 1_556 S
C844 C837 1.409 . S
C844 C843 1.365 . S
H845 C851 0.930 . S
H846 C854 0.930 . S
H847 C855 0.930 . S
H848 C856 0.930 . S
H849 C859 0.923 1_554 S
H850 C860 0.930 1_554 S
C851 H845 0.930 . S
C851 C852 1.355 . S
C851 C853 1.415 . S
C852 C851 1.355 . S
C852 C854 1.419 . S
C853 C851 1.415 . S
C853 C858 1.425 . S
C853 C860 1.409 . S
C854 H846 0.930 . S
C854 C852 1.419 . S
C854 C855 1.362 . S
C855 H847 0.930 . S
C855 C854 1.362 . S
C855 C858 1.409 . S
C856 H848 0.930 . S
C856 C857 1.355 . S
C856 C858 1.415 . S
C857 C856 1.355 . S
C857 C859 1.426 . S
C858 C853 1.425 . S
C858 C855 1.409 . S
C858 C856 1.415 . S
C859 H849 0.923 1_556 S
C859 C857 1.426 . S
C859 C860 1.364 . S
C860 H850 0.930 1_556 S
C860 C853 1.409 . S
C860 C859 1.364 . S
H861 C867 0.930 . S
H862 C870 0.930 . S
H863 C871 0.930 . S
H864 C872 0.930 . S
H865 C875 0.925 1_554 S
H866 C876 0.930 . S
C867 H861 0.930 . S
C867 C868 1.355 . S
C867 C869 1.415 . S
C868 C867 1.355 . S
C868 C870 1.419 . S
C869 C867 1.415 . S
C869 C874 1.425 . S
C869 C876 1.409 . S
C870 H862 0.930 . S
C870 C868 1.419 . S
C870 C871 1.362 . S
C871 H863 0.930 . S
C871 C870 1.362 . S
C871 C874 1.409 . S
C872 H864 0.930 . S
C872 C873 1.355 . S
C872 C874 1.415 . S
C873 C872 1.355 . S
C873 C875 1.422 . S
C874 C869 1.425 . S
C874 C871 1.409 . S
C874 C872 1.415 . S
C875 H865 0.925 1_556 S
C875 C873 1.422 . S
C875 C876 1.366 . S
C876 H866 0.930 . S
C876 C869 1.409 . S
C876 C875 1.366 . S
H877 C883 0.930 . S
H878 C886 0.930 . S
H879 C887 0.930 . S
H880 C888 0.930 . S
H881 C891 0.930 . S
H882 C892 0.930 . S
C883 H877 0.930 . S
C883 C884 1.355 1_554 S
C883 C885 1.415 . S
C884 C883 1.355 1_556 S
C884 C886 1.419 . S
C885 C883 1.415 . S
C885 C890 1.425 1_554 S
C885 C892 1.409 . S
C886 H878 0.930 . S
C886 C884 1.419 . S
C886 C887 1.362 . S
C887 H879 0.930 . S
C887 C886 1.362 . S
C887 C890 1.409 . S
C888 H880 0.930 . S
C888 C889 1.355 . S
C888 C890 1.415 . S
C889 C888 1.355 . S
C889 C891 1.419 1_556 S
C890 C885 1.425 1_556 S
C890 C887 1.409 . S
C890 C888 1.415 . S
C891 H881 0.930 . S
C891 C889 1.419 1_554 S
C891 C892 1.362 . S
C892 H882 0.930 . S
C892 C885 1.409 . S
C892 C891 1.362 . S
H893 C899 0.930 . S
H894 C902 0.930 . S
H895 C903 0.930 . S
H896 C904 0.930 . S
H897 C907 0.930 1_554 S
H898 C908 0.930 . S
C899 H893 0.930 . S
C899 C900 1.355 . S
C899 C901 1.415 . S
C900 C899 1.355 . S
C900 C902 1.419 . S
C901 C899 1.415 . S
C901 C906 1.425 . S
C901 C908 1.409 . S
C902 H894 0.930 . S
C902 C900 1.419 . S
C902 C903 1.362 . S
C903 H895 0.930 . S
C903 C902 1.362 . S
C903 C906 1.409 . S
C904 H896 0.930 . S
C904 C905 1.355 . S
C904 C906 1.415 . S
C905 C904 1.355 . S
C905 C907 1.419 . S
C906 C901 1.425 . S
C906 C903 1.409 . S
C906 C904 1.415 . S
C907 H897 0.930 1_556 S
C907 C905 1.419 . S
C907 C908 1.362 . S
C908 H898 0.930 . S
C908 C901 1.409 . S
C908 C907 1.362 . S
H909 C915 0.930 . S
H910 C918 0.930 . S
H911 C919 0.930 . S
H912 C920 0.930 . S
H913 C923 0.930 . S
H914 C924 0.930 . S
C915 H909 0.930 . S
C915 C916 1.355 . S
C915 C917 1.415 . S
C916 C915 1.355 . S
C916 C918 1.419 . S
C917 C915 1.415 . S
C917 C922 1.425 . S
C917 C924 1.409 . S
C918 H910 0.930 . S
C918 C916 1.419 . S
C918 C919 1.362 . S
C919 H911 0.930 . S
C919 C918 1.362 . S
C919 C922 1.409 . S
C920 H912 0.930 . S
C920 C921 1.355 . S
C920 C922 1.415 . S
C921 C920 1.355 . S
C921 C923 1.419 . S
C922 C917 1.425 . S
C922 C919 1.409 . S
C922 C920 1.415 . S
C923 H913 0.930 . S
C923 C921 1.419 . S
C923 C924 1.362 . S
C924 H914 0.930 . S
C924 C917 1.409 . S
C924 C923 1.362 . S
H925 C931 0.930 . S
H926 C934 0.930 . S
H927 C935 0.930 . S
H928 C936 0.930 . S
H929 C939 0.930 . S
H930 C940 0.930 . S
C931 H925 0.930 . S
C931 C932 1.355 . S
C931 C933 1.415 . S
C932 C931 1.355 . S
C932 C934 1.419 . S
C933 C931 1.415 . S
C933 C938 1.425 . S
C933 C940 1.409 1_554 S
C934 H926 0.930 . S
C934 C932 1.419 . S
C934 C935 1.362 . S
C935 H927 0.930 . S
C935 C934 1.362 . S
C935 C938 1.409 . S
C936 H928 0.930 . S
C936 C937 1.355 . S
C936 C938 1.415 . S
C937 C936 1.355 . S
C937 C939 1.419 1_554 S
C938 C933 1.425 . S
C938 C935 1.409 . S
C938 C936 1.415 . S
C939 H929 0.930 . S
C939 C937 1.419 1_556 S
C939 C940 1.362 . S
C940 H930 0.930 . S
C940 C933 1.409 1_556 S
C940 C939 1.362 . S
H941 C947 0.930 . S
H942 C950 0.930 1_556 S
H943 C951 0.930 . S
H944 C952 0.930 1_556 S
H945 C955 0.930 . S
H946 C956 0.930 . S
C947 H941 0.930 . S
C947 C948 1.355 . S
C947 C949 1.415 . S
C948 C947 1.355 . S
C948 C950 1.419 . S
C949 C947 1.415 . S
C949 C954 1.425 . S
C949 C956 1.409 . S
C950 H942 0.930 1_554 S
C950 C948 1.419 . S
C950 C951 1.362 1_554 S
C951 H943 0.930 . S
C951 C950 1.362 1_556 S
C951 C954 1.409 1_556 S
C952 H944 0.930 1_554 S
C952 C953 1.355 . S
C952 C954 1.415 . S
C953 C952 1.355 . S
C953 C955 1.419 . S
C954 C949 1.425 . S
C954 C951 1.409 1_554 S
C954 C952 1.415 . S
C955 H945 0.930 . S
C955 C953 1.419 . S
C955 C956 1.362 . S
C956 H946 0.930 . S
C956 C949 1.409 . S
C956 C955 1.362 . S
H957 C963 0.929 . S
H958 C966 0.930 . S
H959 C967 0.930 . S
H960 C968 0.930 . S
H961 C971 0.930 . S
H962 C972 0.930 . S
C963 H957 0.929 . S
C963 C964 1.356 . S
C963 C965 1.414 1_655 S
C964 C963 1.356 . S
C964 C966 1.419 . S
C965 C963 1.414 1_455 S
C965 C970 1.425 . S
C965 C972 1.409 . S
C966 H958 0.930 . S
C966 C964 1.419 . S
C966 C967 1.362 1_655 S
C967 H959 0.930 . S
C967 C966 1.362 1_455 S
C967 C970 1.409 . S
C968 H960 0.930 . S
C968 C969 1.355 . S
C968 C970 1.415 . S
C969 C968 1.355 . S
C969 C971 1.419 . S
C970 C965 1.425 . S
C970 C967 1.409 . S
C970 C968 1.415 . S
C971 H961 0.930 . S
C971 C969 1.419 . S
C971 C972 1.362 . S
C972 H962 0.930 . S
C972 C965 1.409 . S
C972 C971 1.362 . S
H973 C979 0.930 . S
H974 C982 0.930 . S
H975 C983 0.930 . S
H976 C984 0.930 . S
H977 C987 0.930 . S
H978 C988 0.930 . S
C979 H973 0.930 . S
C979 C980 1.355 . S
C979 C981 1.415 . S
C980 C979 1.355 . S
C980 C982 1.419 . S
C981 C979 1.415 . S
C981 C986 1.425 . S
C981 C988 1.409 . S
C982 H974 0.930 . S
C982 C980 1.419 . S
C982 C983 1.362 . S
C983 H975 0.930 . S
C983 C982 1.362 . S
C983 C986 1.409 . S
C984 H976 0.930 . S
C984 C985 1.355 . S
C984 C986 1.415 . S
C985 C984 1.355 . S
C985 C987 1.419 . S
C986 C981 1.425 . S
C986 C983 1.409 . S
C986 C984 1.415 . S
C987 H977 0.930 . S
C987 C985 1.419 . S
C987 C988 1.362 . S
C988 H978 0.930 . S
C988 C981 1.409 . S
C988 C987 1.362 . S
H989 C995 0.930 . S
H990 C998 0.930 . S
H991 C999 0.930 . S
H992 C1000 0.930 . S
H993 C1003 0.930 . S
H994 C1004 0.930 . S
C995 H989 0.930 . S
C995 C996 1.355 . S
C995 C997 1.415 1_545 S
C996 C995 1.355 . S
C996 C998 1.419 . S
C997 C995 1.415 1_565 S
C997 C1002 1.425 . S
C997 C1004 1.409 . S
C998 H990 0.930 . S
C998 C996 1.419 . S
C998 C999 1.362 1_545 S
C999 H991 0.930 . S
C999 C998 1.362 1_565 S
C999 C1002 1.409 . S
C1000 H992 0.930 . S
C1000 C1001 1.355 . S
C1000 C1002 1.415 . S
C1001 C1000 1.355 . S
C1001 C1003 1.419 . S
C1002 C997 1.425 . S
C1002 C999 1.409 . S
C1002 C1000 1.415 . S
C1003 H993 0.930 . S
C1003 C1001 1.419 . S
C1003 C1004 1.362 . S
C1004 H994 0.930 . S
C1004 C997 1.409 . S
C1004 C1003 1.362 . S
H1005 C1011 0.930 . S
H1006 C1014 0.930 . S
H1007 C1015 0.930 . S
H1008 C1016 0.930 . S
H1009 C1019 0.930 . S
H1010 C1020 0.930 . S
C1011 H1005 0.930 . S
C1011 C1012 1.355 . S
C1011 C1013 1.415 . S
C1012 C1011 1.355 . S
C1012 C1014 1.419 . S
C1013 C1011 1.415 . S
C1013 C1018 1.425 . S
C1013 C1020 1.409 . S
C1014 H1006 0.930 . S
C1014 C1012 1.419 . S
C1014 C1015 1.362 . S
C1015 H1007 0.930 . S
C1015 C1014 1.362 . S
C1015 C1018 1.409 . S
C1016 H1008 0.930 . S
C1016 C1017 1.355 . S
C1016 C1018 1.415 . S
C1017 C1016 1.355 . S
C1017 C1019 1.419 . S
C1018 C1013 1.425 . S
C1018 C1015 1.409 . S
C1018 C1016 1.415 . S
C1019 H1009 0.930 . S
C1019 C1017 1.419 . S
C1019 C1020 1.362 . S
C1020 H1010 0.930 . S
C1020 C1013 1.409 . S
C1020 C1019 1.362 . S
H1021 C1027 0.930 . S
H1022 C1030 0.930 . S
H1023 C1031 0.930 . S
H1024 C1032 0.930 . S
H1025 C1035 0.930 . S
H1026 C1036 0.930 . S
C1027 H1021 0.930 . S
C1027 C1028 1.355 . S
C1027 C1029 1.415 . S
C1028 C1027 1.355 . S
C1028 C1030 1.419 . S
C1029 C1027 1.415 . S
C1029 C1034 1.425 . S
C1029 C1036 1.409 . S
C1030 H1022 0.930 . S
C1030 C1028 1.419 . S
C1030 C1031 1.362 . S
C1031 H1023 0.930 . S
C1031 C1030 1.362 . S
C1031 C1034 1.409 . S
C1032 H1024 0.930 . S
C1032 C1033 1.355 . S
C1032 C1034 1.415 . S
C1033 C1032 1.355 . S
C1033 C1035 1.419 . S
C1034 C1029 1.425 . S
C1034 C1031 1.409 . S
C1034 C1032 1.415 . S
C1035 H1025 0.930 . S
C1035 C1033 1.419 . S
C1035 C1036 1.362 . S
C1036 H1026 0.930 . S
C1036 C1029 1.409 . S
C1036 C1035 1.362 . S
H1037 C1043 0.930 . S
H1038 C1046 0.930 . S
H1039 C1047 0.930 . S
H1040 C1048 0.930 . S
H1041 C1051 0.930 . S
H1042 C1052 0.930 . S
C1043 H1037 0.930 . S
C1043 C1044 1.355 . S
C1043 C1045 1.415 . S
C1044 C1043 1.355 . S
C1044 C1046 1.419 . S
C1045 C1043 1.415 . S
C1045 C1050 1.425 . S
C1045 C1052 1.409 . S
C1046 H1038 0.930 . S
C1046 C1044 1.419 . S
C1046 C1047 1.362 . S
C1047 H1039 0.930 . S
C1047 C1046 1.362 . S
C1047 C1050 1.409 . S
C1048 H1040 0.930 . S
C1048 C1049 1.355 . S
C1048 C1050 1.415 . S
C1049 C1048 1.355 . S
C1049 C1051 1.419 . S
C1050 C1045 1.425 . S
C1050 C1047 1.409 . S
C1050 C1048 1.415 . S
C1051 H1041 0.930 . S
C1051 C1049 1.419 . S
C1051 C1052 1.362 . S
C1052 H1042 0.930 . S
C1052 C1045 1.409 . S
C1052 C1051 1.362 . S
H1053 C1059 0.930 . S
H1054 C1062 0.930 . S
H1055 C1063 0.930 . S
H1056 C1064 0.930 . S
H1057 C1067 0.930 . S
H1058 C1068 0.930 . S
C1059 H1053 0.930 . S
C1059 C1060 1.355 . S
C1059 C1061 1.415 . S
C1060 C1059 1.355 . S
C1060 C1062 1.419 . S
C1061 C1059 1.415 . S
C1061 C1066 1.425 . S
C1061 C1068 1.409 . S
C1062 H1054 0.930 . S
C1062 C1060 1.419 . S
C1062 C1063 1.362 . S
C1063 H1055 0.930 . S
C1063 C1062 1.362 . S
C1063 C1066 1.409 . S
C1064 H1056 0.930 . S
C1064 C1065 1.355 . S
C1064 C1066 1.415 . S
C1065 C1064 1.355 . S
C1065 C1067 1.419 . S
C1066 C1061 1.425 . S
C1066 C1063 1.409 . S
C1066 C1064 1.415 . S
C1067 H1057 0.930 . S
C1067 C1065 1.419 . S
C1067 C1068 1.362 . S
C1068 H1058 0.930 . S
C1068 C1061 1.409 . S
C1068 C1067 1.362 . S
H1069 C1075 0.930 . S
H1070 C1078 0.930 . S
H1071 C1079 0.930 . S
H1072 C1080 0.930 . S
H1073 C1083 0.930 . S
H1074 C1084 0.930 . S
C1075 H1069 0.930 . S
C1075 C1076 1.355 . S
C1075 C1077 1.415 . S
C1076 C1075 1.355 . S
C1076 C1078 1.419 . S
C1077 C1075 1.415 . S
C1077 C1082 1.425 . S
C1077 C1084 1.409 . S
C1078 H1070 0.930 . S
C1078 C1076 1.419 . S
C1078 C1079 1.362 . S
C1079 H1071 0.930 . S
C1079 C1078 1.362 . S
C1079 C1082 1.409 . S
C1080 H1072 0.930 . S
C1080 C1081 1.355 . S
C1080 C1082 1.415 . S
C1081 C1080 1.355 . S
C1081 C1083 1.419 . S
C1082 C1077 1.425 . S
C1082 C1079 1.409 . S
C1082 C1080 1.415 . S
C1083 H1073 0.930 . S
C1083 C1081 1.419 . S
C1083 C1084 1.362 . S
C1084 H1074 0.930 . S
C1084 C1077 1.409 . S
C1084 C1083 1.362 . S
H1085 C1091 0.930 . S
H1086 C1094 0.930 . S
H1087 C1095 0.930 . S
H1088 C1096 0.930 . S
H1089 C1099 0.930 . S
H1090 C1100 0.930 . S
C1091 H1085 0.930 . S
C1091 C1092 1.355 . S
C1091 C1093 1.415 . S
C1092 C1091 1.355 . S
C1092 C1094 1.419 . S
C1093 C1091 1.415 . S
C1093 C1098 1.425 . S
C1093 C1100 1.409 . S
C1094 H1086 0.930 . S
C1094 C1092 1.419 . S
C1094 C1095 1.362 . S
C1095 H1087 0.930 . S
C1095 C1094 1.362 . S
C1095 C1098 1.409 . S
C1096 H1088 0.930 . S
C1096 C1097 1.355 . S
C1096 C1098 1.415 . S
C1097 C1096 1.355 . S
C1097 C1099 1.419 . S
C1098 C1093 1.425 . S
C1098 C1095 1.409 . S
C1098 C1096 1.415 . S
C1099 H1089 0.930 . S
C1099 C1097 1.419 . S
C1099 C1100 1.362 . S
C1100 H1090 0.930 . S
C1100 C1093 1.409 . S
C1100 C1099 1.362 . S
H1101 C1107 0.930 . S
H1102 C1110 0.930 . S
H1103 C1111 0.930 . S
H1104 C1112 0.930 . S
H1105 C1115 0.930 . S
H1106 C1116 0.930 . S
C1107 H1101 0.930 . S
C1107 C1108 1.355 . S
C1107 C1109 1.415 1_545 S
C1108 C1107 1.355 . S
C1108 C1110 1.419 . S
C1109 C1107 1.415 1_565 S
C1109 C1114 1.425 . S
C1109 C1116 1.409 . S
C1110 H1102 0.930 . S
C1110 C1108 1.419 . S
C1110 C1111 1.362 1_545 S
C1111 H1103 0.930 . S
C1111 C1110 1.362 1_565 S
C1111 C1114 1.409 . S
C1112 H1104 0.930 . S
C1112 C1113 1.355 . S
C1112 C1114 1.415 . S
C1113 C1112 1.355 . S
C1113 C1115 1.419 . S
C1114 C1109 1.425 . S
C1114 C1111 1.409 . S
C1114 C1112 1.415 . S
C1115 H1105 0.930 . S
C1115 C1113 1.419 . S
C1115 C1116 1.362 . S
C1116 H1106 0.930 . S
C1116 C1109 1.409 . S
C1116 C1115 1.362 . S
H1117 C1123 0.930 . S
H1118 C1126 0.930 . S
H1119 C1127 0.930 . S
H1120 C1128 0.930 . S
H1121 C1131 0.930 . S
H1122 C1132 0.930 . S
C1123 H1117 0.930 . S
C1123 C1124 1.355 . S
C1123 C1125 1.415 1_655 S
C1124 C1123 1.355 . S
C1124 C1126 1.419 . S
C1125 C1123 1.415 1_455 S
C1125 C1130 1.425 . S
C1125 C1132 1.409 . S
C1126 H1118 0.930 . S
C1126 C1124 1.419 . S
C1126 C1127 1.362 1_655 S
C1127 H1119 0.930 . S
C1127 C1126 1.362 1_455 S
C1127 C1130 1.409 . S
C1128 H1120 0.930 . S
C1128 C1129 1.355 . S
C1128 C1130 1.415 . S
C1129 C1128 1.355 . S
C1129 C1131 1.419 . S
C1130 C1125 1.425 . S
C1130 C1127 1.409 . S
C1130 C1128 1.415 . S
C1131 H1121 0.930 . S
C1131 C1129 1.419 . S
C1131 C1132 1.362 . S
C1132 H1122 0.930 . S
C1132 C1125 1.409 . S
C1132 C1131 1.362 . S
H1133 C1139 0.930 . S
H1134 C1142 0.930 . S
H1135 C1143 0.930 . S
H1136 C1144 0.930 . S
H1137 C1147 0.930 . S
H1138 C1148 0.930 . S
C1139 H1133 0.930 . S
C1139 C1140 1.355 . S
C1139 C1141 1.415 . S
C1140 C1139 1.355 . S
C1140 C1142 1.419 . S
C1141 C1139 1.415 . S
C1141 C1146 1.425 . S
C1141 C1148 1.409 . S
C1142 H1134 0.930 . S
C1142 C1140 1.419 . S
C1142 C1143 1.362 . S
C1143 H1135 0.930 . S
C1143 C1142 1.362 . S
C1143 C1146 1.409 . S
C1144 H1136 0.930 . S
C1144 C1145 1.355 . S
C1144 C1146 1.415 . S
C1145 C1144 1.355 . S
C1145 C1147 1.419 . S
C1146 C1141 1.425 . S
C1146 C1143 1.409 . S
C1146 C1144 1.415 . S
C1147 H1137 0.930 . S
C1147 C1145 1.419 . S
C1147 C1148 1.362 . S
C1148 H1138 0.930 . S
C1148 C1141 1.409 . S
C1148 C1147 1.362 . S
H1149 C1155 0.930 . S
H1150 C1158 0.930 . S
H1151 C1159 0.930 . S
H1152 C1160 0.930 . S
H1153 C1163 0.930 . S
H1154 C1164 0.930 . S
C1155 H1149 0.930 . S
C1155 C1156 1.355 . S
C1155 C1157 1.415 . S
C1156 C1155 1.355 . S
C1156 C1158 1.419 . S
C1157 C1155 1.415 . S
C1157 C1162 1.425 . S
C1157 C1164 1.409 . S
C1158 H1150 0.930 . S
C1158 C1156 1.419 . S
C1158 C1159 1.362 . S
C1159 H1151 0.930 . S
C1159 C1158 1.362 . S
C1159 C1162 1.409 . S
C1160 H1152 0.930 . S
C1160 C1161 1.355 . S
C1160 C1162 1.415 . S
C1161 C1160 1.355 . S
C1161 C1163 1.419 . S
C1162 C1157 1.425 . S
C1162 C1159 1.409 . S
C1162 C1160 1.415 . S
C1163 H1153 0.930 . S
C1163 C1161 1.419 . S
C1163 C1164 1.362 . S
C1164 H1154 0.930 . S
C1164 C1157 1.409 . S
C1164 C1163 1.362 . S
H1165 C1171 0.930 . S
H1166 C1174 0.930 . S
H1167 C1175 0.930 . S
H1168 C1176 0.930 . S
H1169 C1179 0.930 . S
H1170 C1180 0.930 . S
C1171 H1165 0.930 . S
C1171 C1172 1.355 . S
C1171 C1173 1.415 . S
C1172 C1171 1.355 . S
C1172 C1174 1.419 . S
C1173 C1171 1.415 . S
C1173 C1178 1.425 . S
C1173 C1180 1.409 . S
C1174 H1166 0.930 . S
C1174 C1172 1.419 . S
C1174 C1175 1.362 . S
C1175 H1167 0.930 . S
C1175 C1174 1.362 . S
C1175 C1178 1.409 . S
C1176 H1168 0.930 . S
C1176 C1177 1.355 . S
C1176 C1178 1.415 . S
C1177 C1176 1.355 . S
C1177 C1179 1.419 . S
C1178 C1173 1.425 . S
C1178 C1175 1.409 . S
C1178 C1176 1.415 . S
C1179 H1169 0.930 . S
C1179 C1177 1.419 . S
C1179 C1180 1.362 . S
C1180 H1170 0.930 . S
C1180 C1173 1.409 . S
C1180 C1179 1.362 . S
H1181 C1187 0.930 . S
H1182 C1190 0.930 . S
H1183 C1191 0.930 . S
H1184 C1192 0.930 . S
H1185 C1195 0.930 . S
H1186 C1196 0.930 . S
C1187 H1181 0.930 . S
C1187 C1188 1.355 . S
C1187 C1189 1.415 . S
C1188 C1187 1.355 . S
C1188 C1190 1.419 . S
C1189 C1187 1.415 . S
C1189 C1194 1.425 . S
C1189 C1196 1.409 . S
C1190 H1182 0.930 . S
C1190 C1188 1.419 . S
C1190 C1191 1.362 . S
C1191 H1183 0.930 . S
C1191 C1190 1.362 . S
C1191 C1194 1.409 . S
C1192 H1184 0.930 . S
C1192 C1193 1.355 . S
C1192 C1194 1.415 . S
C1193 C1192 1.355 . S
C1193 C1195 1.419 . S
C1194 C1189 1.425 . S
C1194 C1191 1.409 . S
C1194 C1192 1.415 . S
C1195 H1185 0.930 . S
C1195 C1193 1.419 . S
C1195 C1196 1.362 . S
C1196 H1186 0.930 . S
C1196 C1189 1.409 . S
C1196 C1195 1.362 . S
H1197 C1203 0.930 . S
H1198 C1206 0.930 . S
H1199 C1207 0.930 . S
H1200 C1208 0.930 . S
H1201 C1211 0.930 . S
H1202 C1212 0.930 . S
C1203 H1197 0.930 . S
C1203 C1204 1.355 . S
C1203 C1205 1.415 1_565 S
C1204 C1203 1.355 . S
C1204 C1206 1.419 . S
C1205 C1203 1.415 1_545 S
C1205 C1210 1.425 . S
C1205 C1212 1.409 . S
C1206 H1198 0.930 . S
C1206 C1204 1.419 . S
C1206 C1207 1.362 1_565 S
C1207 H1199 0.930 . S
C1207 C1206 1.362 1_545 S
C1207 C1210 1.409 . S
C1208 H1200 0.930 . S
C1208 C1209 1.355 . S
C1208 C1210 1.415 . S
C1209 C1208 1.355 . S
C1209 C1211 1.419 . S
C1210 C1205 1.425 . S
C1210 C1207 1.409 . S
C1210 C1208 1.415 . S
C1211 H1201 0.930 . S
C1211 C1209 1.419 . S
C1211 C1212 1.362 . S
C1212 H1202 0.930 . S
C1212 C1205 1.409 . S
C1212 C1211 1.362 . S
H1213 C1219 0.930 . S
H1214 C1222 0.930 . S
H1215 C1223 0.930 . S
H1216 C1224 0.930 . S
H1217 C1227 0.930 . S
H1218 C1228 0.930 . S
C1219 H1213 0.930 . S
C1219 C1220 1.355 . S
C1219 C1221 1.415 1_455 S
C1220 C1219 1.355 . S
C1220 C1222 1.419 . S
C1221 C1219 1.415 1_655 S
C1221 C1226 1.425 . S
C1221 C1228 1.409 . S
C1222 H1214 0.930 . S
C1222 C1220 1.419 . S
C1222 C1223 1.362 1_455 S
C1223 H1215 0.930 . S
C1223 C1222 1.362 1_655 S
C1223 C1226 1.409 . S
C1224 H1216 0.930 . S
C1224 C1225 1.355 . S
C1224 C1226 1.415 . S
C1225 C1224 1.355 . S
C1225 C1227 1.419 . S
C1226 C1221 1.425 . S
C1226 C1223 1.409 . S
C1226 C1224 1.415 . S
C1227 H1217 0.930 . S
C1227 C1225 1.419 . S
C1227 C1228 1.362 . S
C1228 H1218 0.930 . S
C1228 C1221 1.409 . S
C1228 C1227 1.362 . S
H1229 C1235 0.930 . S
H1230 C1238 0.930 . S
H1231 C1239 0.930 . S
H1232 C1240 0.930 . S
H1233 C1243 0.930 . S
H1234 C1244 0.930 . S
C1235 H1229 0.930 . S
C1235 C1236 1.355 . S
C1235 C1237 1.415 . S
C1236 C1235 1.355 . S
C1236 C1238 1.419 . S
C1237 C1235 1.415 . S
C1237 C1242 1.425 . S
C1237 C1244 1.409 . S
C1238 H1230 0.930 . S
C1238 C1236 1.419 . S
C1238 C1239 1.362 . S
C1239 H1231 0.930 . S
C1239 C1238 1.362 . S
C1239 C1242 1.409 . S
C1240 H1232 0.930 . S
C1240 C1241 1.355 . S
C1240 C1242 1.415 . S
C1241 C1240 1.355 . S
C1241 C1243 1.419 . S
C1242 C1237 1.425 . S
C1242 C1239 1.409 . S
C1242 C1240 1.415 . S
C1243 H1233 0.930 . S
C1243 C1241 1.419 . S
C1243 C1244 1.362 . S
C1244 H1234 0.930 . S
C1244 C1237 1.409 . S
C1244 C1243 1.362 . S
H1245 C1251 0.930 . S
H1246 C1254 0.930 . S
H1247 C1255 0.930 . S
H1248 C1256 0.930 . S
H1249 C1259 0.930 . S
H1250 C1260 0.930 . S
C1251 H1245 0.930 . S
C1251 C1252 1.355 . S
C1251 C1253 1.415 1_455 S
C1252 C1251 1.355 . S
C1252 C1254 1.419 . S
C1253 C1251 1.415 1_655 S
C1253 C1258 1.425 . S
C1253 C1260 1.409 . S
C1254 H1246 0.930 . S
C1254 C1252 1.419 . S
C1254 C1255 1.362 1_455 S
C1255 H1247 0.930 . S
C1255 C1254 1.362 1_655 S
C1255 C1258 1.409 . S
C1256 H1248 0.930 . S
C1256 C1257 1.355 . S
C1256 C1258 1.415 . S
C1257 C1256 1.355 . S
C1257 C1259 1.419 . S
C1258 C1253 1.425 . S
C1258 C1255 1.409 . S
C1258 C1256 1.415 . S
C1259 H1249 0.930 . S
C1259 C1257 1.419 . S
C1259 C1260 1.362 . S
C1260 H1250 0.930 . S
C1260 C1253 1.409 . S
C1260 C1259 1.362 . S
H1261 C1267 0.930 . S
H1262 C1270 0.930 . S
H1263 C1271 0.930 . S
H1264 C1272 0.930 . S
H1265 C1275 0.930 . S
H1266 C1276 0.930 . S
C1267 H1261 0.930 . S
C1267 C1268 1.355 . S
C1267 C1269 1.415 . S
C1268 C1267 1.355 . S
C1268 C1270 1.419 . S
C1269 C1267 1.415 . S
C1269 C1274 1.425 . S
C1269 C1276 1.409 . S
C1270 H1262 0.930 . S
C1270 C1268 1.419 . S
C1270 C1271 1.362 . S
C1271 H1263 0.930 . S
C1271 C1270 1.362 . S
C1271 C1274 1.409 . S
C1272 H1264 0.930 . S
C1272 C1273 1.355 . S
C1272 C1274 1.415 . S
C1273 C1272 1.355 . S
C1273 C1275 1.419 . S
C1274 C1269 1.425 . S
C1274 C1271 1.409 . S
C1274 C1272 1.415 . S
C1275 H1265 0.930 . S
C1275 C1273 1.419 . S
C1275 C1276 1.362 . S
C1276 H1266 0.930 . S
C1276 C1269 1.409 . S
C1276 C1275 1.362 . S
H1277 C1283 0.930 . S
H1278 C1286 0.930 . S
H1279 C1287 0.930 . S
H1280 C1288 0.930 . S
H1281 C1291 0.930 . S
H1282 C1292 0.930 . S
C1283 H1277 0.930 . S
C1283 C1284 1.355 . S
C1283 C1285 1.415 1_565 S
C1284 C1283 1.355 . S
C1284 C1286 1.419 . S
C1285 C1283 1.415 1_545 S
C1285 C1290 1.425 . S
C1285 C1292 1.409 . S
C1286 H1278 0.930 . S
C1286 C1284 1.419 . S
C1286 C1287 1.362 1_565 S
C1287 H1279 0.930 . S
C1287 C1286 1.362 1_545 S
C1287 C1290 1.409 . S
C1288 H1280 0.930 . S
C1288 C1289 1.355 . S
C1288 C1290 1.415 . S
C1289 C1288 1.355 . S
C1289 C1291 1.419 . S
C1290 C1285 1.425 . S
C1290 C1287 1.409 . S
C1290 C1288 1.415 . S
C1291 H1281 0.930 . S
C1291 C1289 1.419 . S
C1291 C1292 1.362 . S
C1292 H1282 0.930 . S
C1292 C1285 1.409 . S
C1292 C1291 1.362 . S
H1293 C1299 0.930 . S
H1294 C1302 0.930 . S
H1295 C1303 0.930 . S
H1296 C1304 0.930 . S
H1297 C1307 0.930 . S
H1298 C1308 0.930 . S
C1299 H1293 0.930 . S
C1299 C1300 1.355 . S
C1299 C1301 1.415 . S
C1300 C1299 1.355 . S
C1300 C1302 1.419 . S
C1301 C1299 1.415 . S
C1301 C1306 1.425 . S
C1301 C1308 1.409 . S
C1302 H1294 0.930 . S
C1302 C1300 1.419 . S
C1302 C1303 1.362 . S
C1303 H1295 0.930 . S
C1303 C1302 1.362 . S
C1303 C1306 1.409 . S
C1304 H1296 0.930 . S
C1304 C1305 1.355 . S
C1304 C1306 1.415 . S
C1305 C1304 1.355 . S
C1305 C1307 1.419 . S
C1306 C1301 1.425 . S
C1306 C1303 1.409 . S
C1306 C1304 1.415 . S
C1307 H1297 0.930 . S
C1307 C1305 1.419 . S
C1307 C1308 1.362 . S
C1308 H1298 0.930 . S
C1308 C1301 1.409 . S
C1308 C1307 1.362 . S
H1309 C1315 0.930 . S
H1310 C1318 0.930 . S
H1311 C1319 0.930 . S
H1312 C1320 0.930 . S
H1313 C1323 0.930 . S
H1314 C1324 0.930 . S
C1315 H1309 0.930 . S
C1315 C1316 1.355 . S
C1315 C1317 1.415 . S
C1316 C1315 1.355 . S
C1316 C1318 1.419 . S
C1317 C1315 1.415 . S
C1317 C1322 1.425 . S
C1317 C1324 1.409 . S
C1318 H1310 0.930 . S
C1318 C1316 1.419 . S
C1318 C1319 1.362 . S
C1319 H1311 0.930 . S
C1319 C1318 1.362 . S
C1319 C1322 1.409 . S
C1320 H1312 0.930 . S
C1320 C1321 1.355 . S
C1320 C1322 1.415 . S
C1321 C1320 1.355 . S
C1321 C1323 1.419 . S
C1322 C1317 1.425 . S
C1322 C1319 1.409 . S
C1322 C1320 1.415 . S
C1323 H1313 0.930 . S
C1323 C1321 1.419 . S
C1323 C1324 1.362 . S
C1324 H1314 0.930 . S
C1324 C1317 1.409 . S
C1324 C1323 1.362 . S
H1325 C1331 0.930 . S
H1326 C1334 0.930 . S
H1327 C1335 0.930 . S
H1328 C1336 0.930 . S
H1329 C1339 0.930 . S
H1330 C1340 0.930 . S
C1331 H1325 0.930 . S
C1331 C1332 1.355 . S
C1331 C1333 1.415 . S
C1332 C1331 1.355 . S
C1332 C1334 1.419 . S
C1333 C1331 1.415 . S
C1333 C1338 1.425 . S
C1333 C1340 1.409 . S
C1334 H1326 0.930 . S
C1334 C1332 1.419 . S
C1334 C1335 1.362 . S
C1335 H1327 0.930 . S
C1335 C1334 1.362 . S
C1335 C1338 1.409 . S
C1336 H1328 0.930 . S
C1336 C1337 1.355 . S
C1336 C1338 1.415 . S
C1337 C1336 1.355 . S
C1337 C1339 1.419 . S
C1338 C1333 1.425 . S
C1338 C1335 1.409 . S
C1338 C1336 1.415 . S
C1339 H1329 0.930 . S
C1339 C1337 1.419 . S
C1339 C1340 1.362 . S
C1340 H1330 0.930 . S
C1340 C1333 1.409 . S
C1340 C1339 1.362 . S
H1341 C1347 0.930 . S
H1342 C1350 0.930 . S
H1343 C1351 0.930 . S
H1344 C1352 0.930 . S
H1345 C1355 0.930 . S
H1346 C1356 0.930 . S
C1347 H1341 0.930 . S
C1347 C1348 1.355 . S
C1347 C1349 1.415 . S
C1348 C1347 1.355 . S
C1348 C1350 1.419 1_565 S
C1349 C1347 1.415 . S
C1349 C1354 1.447 . S
C1349 C1356 1.409 . S
C1350 H1342 0.930 . S
C1350 C1348 1.419 1_545 S
C1350 C1351 1.362 . S
C1351 H1343 0.930 . S
C1351 C1350 1.362 . S
C1351 C1354 1.395 1_545 S
C1352 H1344 0.930 . S
C1352 C1353 1.355 1_545 S
C1352 C1354 1.407 1_545 S
C1353 C1352 1.355 1_565 S
C1353 C1355 1.419 . S
C1354 C1349 1.447 . S
C1354 C1351 1.395 1_565 S
C1354 C1352 1.407 1_565 S
C1355 H1345 0.930 . S
C1355 C1353 1.419 . S
C1355 C1356 1.362 . S
C1356 H1346 0.930 . S
C1356 C1349 1.409 . S
C1356 C1355 1.362 . S
H1357 C1363 0.930 . S
H1358 C1366 0.930 1_655 S
H1359 C1367 0.930 . S
H1360 C1368 0.930 . S
H1361 C1371 0.930 . S
H1362 C1372 0.930 . S
C1363 H1357 0.930 . S
C1363 C1364 1.355 . S
C1363 C1365 1.415 . S
C1364 C1363 1.355 . S
C1364 C1366 1.419 . S
C1365 C1363 1.415 . S
C1365 C1370 1.425 . S
C1365 C1372 1.409 . S
C1366 H1358 0.930 1_455 S
C1366 C1364 1.419 . S
C1366 C1367 1.362 1_455 S
C1367 H1359 0.930 . S
C1367 C1366 1.362 1_655 S
C1367 C1370 1.409 1_655 S
C1368 H1360 0.930 . S
C1368 C1369 1.355 1_655 S
C1368 C1370 1.415 1_655 S
C1369 C1368 1.355 1_455 S
C1369 C1371 1.419 . S
C1370 C1365 1.425 . S
C1370 C1367 1.409 1_455 S
C1370 C1368 1.415 1_455 S
C1371 H1361 0.930 . S
C1371 C1369 1.419 . S
C1371 C1372 1.362 . S
C1372 H1362 0.930 . S
C1372 C1365 1.409 . S
C1372 C1371 1.362 . S
H1373 C1379 0.930 . S
H1374 C1382 0.930 . S
H1375 C1383 0.930 . S
H1376 C1384 0.930 . S
H1377 C1387 0.930 . S
H1378 C1388 0.930 . S
C1379 H1373 0.930 . S
C1379 C1380 1.355 . S
C1379 C1381 1.415 . S
C1380 C1379 1.355 . S
C1380 C1382 1.419 . S
C1381 C1379 1.415 . S
C1381 C1386 1.425 . S
C1381 C1388 1.409 . S
C1382 H1374 0.930 . S
C1382 C1380 1.419 . S
C1382 C1383 1.362 . S
C1383 H1375 0.930 . S
C1383 C1382 1.362 . S
C1383 C1386 1.409 . S
C1384 H1376 0.930 . S
C1384 C1385 1.355 . S
C1384 C1386 1.415 . S
C1385 C1384 1.355 . S
C1385 C1387 1.419 . S
C1386 C1381 1.425 . S
C1386 C1383 1.409 . S
C1386 C1384 1.415 . S
C1387 H1377 0.930 . S
C1387 C1385 1.419 . S
C1387 C1388 1.362 . S
C1388 H1378 0.930 . S
C1388 C1381 1.409 . S
C1388 C1387 1.362 . S
H1389 C1395 0.930 . S
H1390 C1398 0.930 . S
H1391 C1399 0.930 . S
H1392 C1400 0.930 1_455 S
H1393 C1403 0.930 . S
H1394 C1404 0.930 . S
C1395 H1389 0.930 . S
C1395 C1396 1.355 . S
C1395 C1397 1.415 . S
C1396 C1395 1.355 . S
C1396 C1398 1.419 . S
C1397 C1395 1.415 . S
C1397 C1402 1.425 . S
C1397 C1404 1.409 . S
C1398 H1390 0.930 . S
C1398 C1396 1.419 . S
C1398 C1399 1.362 . S
C1399 H1391 0.930 . S
C1399 C1398 1.362 . S
C1399 C1402 1.409 . S
C1400 H1392 0.930 1_655 S
C1400 C1401 1.355 . S
C1400 C1402 1.415 . S
C1401 C1400 1.355 . S
C1401 C1403 1.419 . S
C1402 C1397 1.425 . S
C1402 C1399 1.409 . S
C1402 C1400 1.415 . S
C1403 H1393 0.930 . S
C1403 C1401 1.419 . S
C1403 C1404 1.362 . S
C1404 H1394 0.930 . S
C1404 C1397 1.409 . S
C1404 C1403 1.362 . S
H1405 C1411 0.930 . S
H1406 C1414 0.930 . S
H1407 C1415 0.930 . S
H1408 C1416 0.930 . S
H1409 C1419 0.930 . S
H1410 C1420 0.930 . S
C1411 H1405 0.930 . S
C1411 C1412 1.355 . S
C1411 C1413 1.415 . S
C1412 C1411 1.355 . S
C1412 C1414 1.419 . S
C1413 C1411 1.415 . S
C1413 C1418 1.425 . S
C1413 C1420 1.409 . S
C1414 H1406 0.930 . S
C1414 C1412 1.419 . S
C1414 C1415 1.362 . S
C1415 H1407 0.930 . S
C1415 C1414 1.362 . S
C1415 C1418 1.409 . S
C1416 H1408 0.930 . S
C1416 C1417 1.355 . S
C1416 C1418 1.415 . S
C1417 C1416 1.355 . S
C1417 C1419 1.419 . S
C1418 C1413 1.425 . S
C1418 C1415 1.409 . S
C1418 C1416 1.415 . S
C1419 H1409 0.930 . S
C1419 C1417 1.419 . S
C1419 C1420 1.362 . S
C1420 H1410 0.930 . S
C1420 C1413 1.409 . S
C1420 C1419 1.362 . S
H1421 C1427 0.930 . S
H1422 C1430 0.930 1_565 S
H1423 C1431 0.930 . S
H1424 C1432 0.923 1_565 S
H1425 C1435 0.930 . S
H1426 C1436 0.930 . S
C1427 H1421 0.930 . S
C1427 C1428 1.355 . S
C1427 C1429 1.415 . S
C1428 C1427 1.355 . S
C1428 C1430 1.419 . S
C1429 C1427 1.415 . S
C1429 C1434 1.425 . S
C1429 C1436 1.409 . S
C1430 H1422 0.930 1_545 S
C1430 C1428 1.419 . S
C1430 C1431 1.362 1_545 S
C1431 H1423 0.930 . S
C1431 C1430 1.362 1_565 S
C1431 C1434 1.409 1_565 S
C1432 H1424 0.923 1_545 S
C1432 C1433 1.357 . S
C1432 C1434 1.419 . S
C1433 C1432 1.357 . S
C1433 C1435 1.419 . S
C1434 C1429 1.425 . S
C1434 C1431 1.409 1_545 S
C1434 C1432 1.419 . S
C1435 H1425 0.930 . S
C1435 C1433 1.419 . S
C1435 C1436 1.362 . S
C1436 H1426 0.930 . S
C1436 C1429 1.409 . S
C1436 C1435 1.362 . S
H1437 C1443 0.930 . S
H1438 C1446 0.930 . S
H1439 C1447 0.930 . S
H1440 C1448 0.930 . S
H1441 C1451 0.930 . S
H1442 C1452 0.930 . S
C1443 H1437 0.930 . S
C1443 C1444 1.355 . S
C1443 C1445 1.415 . S
C1444 C1443 1.355 . S
C1444 C1446 1.419 . S
C1445 C1443 1.415 . S
C1445 C1450 1.425 . S
C1445 C1452 1.409 . S
C1446 H1438 0.930 . S
C1446 C1444 1.419 . S
C1446 C1447 1.362 . S
C1447 H1439 0.930 . S
C1447 C1446 1.362 . S
C1447 C1450 1.409 . S
C1448 H1440 0.930 . S
C1448 C1449 1.355 . S
C1448 C1450 1.415 . S
C1449 C1448 1.355 . S
C1449 C1451 1.419 . S
C1450 C1445 1.425 . S
C1450 C1447 1.409 . S
C1450 C1448 1.415 . S
C1451 H1441 0.930 . S
C1451 C1449 1.419 . S
C1451 C1452 1.362 . S
C1452 H1442 0.930 . S
C1452 C1445 1.409 . S
C1452 C1451 1.362 . S
H1453 C1459 0.930 . S
H1454 C1462 0.930 . S
H1455 C1463 0.930 . S
H1456 C1464 0.930 . S
H1457 C1467 0.930 . S
H1458 C1468 0.930 . S
C1459 H1453 0.930 . S
C1459 C1460 1.355 . S
C1459 C1461 1.415 . S
C1460 C1459 1.355 . S
C1460 C1462 1.419 . S
C1461 C1459 1.415 . S
C1461 C1466 1.425 . S
C1461 C1468 1.409 . S
C1462 H1454 0.930 . S
C1462 C1460 1.419 . S
C1462 C1463 1.362 . S
C1463 H1455 0.930 . S
C1463 C1462 1.362 . S
C1463 C1466 1.409 . S
C1464 H1456 0.930 . S
C1464 C1465 1.355 . S
C1464 C1466 1.415 . S
C1465 C1464 1.355 . S
C1465 C1467 1.419 . S
C1466 C1461 1.425 . S
C1466 C1463 1.409 . S
C1466 C1464 1.415 . S
C1467 H1457 0.930 . S
C1467 C1465 1.419 . S
C1467 C1468 1.362 . S
C1468 H1458 0.930 . S
C1468 C1461 1.409 . S
C1468 C1467 1.362 . S
H1469 C1475 0.930 . S
H1470 C1478 0.930 . S
H1471 C1479 0.930 . S
H1472 C1480 0.930 . S
H1473 C1483 0.930 . S
H1474 C1484 0.930 . S
C1475 H1469 0.930 . S
C1475 C1476 1.355 . S
C1475 C1477 1.415 . S
C1476 C1475 1.355 . S
C1476 C1478 1.419 . S
C1477 C1475 1.415 . S
C1477 C1482 1.425 . S
C1477 C1484 1.409 . S
C1478 H1470 0.930 . S
C1478 C1476 1.419 . S
C1478 C1479 1.362 . S
C1479 H1471 0.930 . S
C1479 C1478 1.362 . S
C1479 C1482 1.409 . S
C1480 H1472 0.930 . S
C1480 C1481 1.355 . S
C1480 C1482 1.415 . S
C1481 C1480 1.355 . S
C1481 C1483 1.419 . S
C1482 C1477 1.425 . S
C1482 C1479 1.409 . S
C1482 C1480 1.415 . S
C1483 H1473 0.930 . S
C1483 C1481 1.419 . S
C1483 C1484 1.362 . S
C1484 H1474 0.930 . S
C1484 C1477 1.409 . S
C1484 C1483 1.362 . S
H1485 C1491 0.930 . S
H1486 C1494 0.930 . S
H1487 C1495 0.930 . S
H1488 C1496 0.930 . S
H1489 C1499 0.930 . S
H1490 C1500 0.930 . S
C1491 H1485 0.930 . S
C1491 C1492 1.355 . S
C1491 C1493 1.415 . S
C1492 C1491 1.355 . S
C1492 C1494 1.419 . S
C1493 C1491 1.415 . S
C1493 C1498 1.425 . S
C1493 C1500 1.409 . S
C1494 H1486 0.930 . S
C1494 C1492 1.419 . S
C1494 C1495 1.362 . S
C1495 H1487 0.930 . S
C1495 C1494 1.362 . S
C1495 C1498 1.409 . S
C1496 H1488 0.930 . S
C1496 C1497 1.355 . S
C1496 C1498 1.415 . S
C1497 C1496 1.355 . S
C1497 C1499 1.419 . S
C1498 C1493 1.425 . S
C1498 C1495 1.409 . S
C1498 C1496 1.415 . S
C1499 H1489 0.930 . S
C1499 C1497 1.419 . S
C1499 C1500 1.362 . S
C1500 H1490 0.930 . S
C1500 C1493 1.409 . S
C1500 C1499 1.362 . S
H1501 C1507 0.930 . S
H1502 C1510 0.930 . S
H1503 C1511 0.930 . S
H1504 C1512 0.930 . S
H1505 C1515 0.930 . S
H1506 C1516 0.930 . S
C1507 H1501 0.930 . S
C1507 C1508 1.355 . S
C1507 C1509 1.415 . S
C1508 C1507 1.355 . S
C1508 C1510 1.419 . S
C1509 C1507 1.415 . S
C1509 C1514 1.425 . S
C1509 C1516 1.409 . S
C1510 H1502 0.930 . S
C1510 C1508 1.419 . S
C1510 C1511 1.362 . S
C1511 H1503 0.930 . S
C1511 C1510 1.362 . S
C1511 C1514 1.409 . S
C1512 H1504 0.930 . S
C1512 C1513 1.355 . S
C1512 C1514 1.415 . S
C1513 C1512 1.355 . S
C1513 C1515 1.419 . S
C1514 C1509 1.425 . S
C1514 C1511 1.409 . S
C1514 C1512 1.415 . S
C1515 H1505 0.930 . S
C1515 C1513 1.419 . S
C1515 C1516 1.362 . S
C1516 H1506 0.930 . S
C1516 C1509 1.409 . S
C1516 C1515 1.362 . S
H1517 C1523 0.930 . S
H1518 C1526 0.930 . S
H1519 C1527 0.930 . S
H1520 C1528 0.930 . S
H1521 C1531 0.930 . S
H1522 C1532 0.930 . S
C1523 H1517 0.930 . S
C1523 C1524 1.355 . S
C1523 C1525 1.415 . S
C1524 C1523 1.355 . S
C1524 C1526 1.419 . S
C1525 C1523 1.415 . S
C1525 C1530 1.425 . S
C1525 C1532 1.409 . S
C1526 H1518 0.930 . S
C1526 C1524 1.419 . S
C1526 C1527 1.362 . S
C1527 H1519 0.930 . S
C1527 C1526 1.362 . S
C1527 C1530 1.409 . S
C1528 H1520 0.930 . S
C1528 C1529 1.355 . S
C1528 C1530 1.415 . S
C1529 C1528 1.355 . S
C1529 C1531 1.419 . S
C1530 C1525 1.425 . S
C1530 C1527 1.409 . S
C1530 C1528 1.415 . S
C1531 H1521 0.930 . S
C1531 C1529 1.419 . S
C1531 C1532 1.362 . S
C1532 H1522 0.930 . S
C1532 C1525 1.409 . S
C1532 C1531 1.362 . S
H1533 C1539 0.930 . S
H1534 C1542 0.930 . S
H1535 C1543 0.930 . S
H1536 C1544 0.930 . S
H1537 C1547 0.930 . S
H1538 C1548 0.930 . S
C1539 H1533 0.930 . S
C1539 C1540 1.355 . S
C1539 C1541 1.415 . S
C1540 C1539 1.355 . S
C1540 C1542 1.419 . S
C1541 C1539 1.415 . S
C1541 C1546 1.425 . S
C1541 C1548 1.409 . S
C1542 H1534 0.930 . S
C1542 C1540 1.419 . S
C1542 C1543 1.362 . S
C1543 H1535 0.930 . S
C1543 C1542 1.362 . S
C1543 C1546 1.409 . S
C1544 H1536 0.930 . S
C1544 C1545 1.355 . S
C1544 C1546 1.415 . S
C1545 C1544 1.355 . S
C1545 C1547 1.419 . S
C1546 C1541 1.425 . S
C1546 C1543 1.409 . S
C1546 C1544 1.415 . S
C1547 H1537 0.930 . S
C1547 C1545 1.419 . S
C1547 C1548 1.362 . S
C1548 H1538 0.930 . S
C1548 C1541 1.409 . S
C1548 C1547 1.362 . S
H1549 C1555 0.930 . S
H1550 C1558 0.930 . S
H1551 C1559 0.930 . S
H1552 C1560 0.930 . S
H1553 C1563 0.930 . S
H1554 C1564 0.930 . S
C1555 H1549 0.930 . S
C1555 C1556 1.355 . S
C1555 C1557 1.415 . S
C1556 C1555 1.355 . S
C1556 C1558 1.419 . S
C1557 C1555 1.415 . S
C1557 C1562 1.425 . S
C1557 C1564 1.409 . S
C1558 H1550 0.930 . S
C1558 C1556 1.419 . S
C1558 C1559 1.362 . S
C1559 H1551 0.930 . S
C1559 C1558 1.362 . S
C1559 C1562 1.409 . S
C1560 H1552 0.930 . S
C1560 C1561 1.355 . S
C1560 C1562 1.415 . S
C1561 C1560 1.355 . S
C1561 C1563 1.419 . S
C1562 C1557 1.425 . S
C1562 C1559 1.409 . S
C1562 C1560 1.415 . S
C1563 H1553 0.930 . S
C1563 C1561 1.419 . S
C1563 C1564 1.362 . S
C1564 H1554 0.930 . S
C1564 C1557 1.409 . S
C1564 C1563 1.362 . S
H1565 C1571 0.930 . S
H1566 C1574 0.930 . S
H1567 C1575 0.930 . S
H1568 C1576 0.930 . S
H1569 C1579 0.930 . S
H1570 C1580 0.930 . S
C1571 H1565 0.930 . S
C1571 C1572 1.355 . S
C1571 C1573 1.415 . S
C1572 C1571 1.355 . S
C1572 C1574 1.419 . S
C1573 C1571 1.415 . S
C1573 C1578 1.425 . S
C1573 C1580 1.409 . S
C1574 H1566 0.930 . S
C1574 C1572 1.419 . S
C1574 C1575 1.362 . S
C1575 H1567 0.930 . S
C1575 C1574 1.362 . S
C1575 C1578 1.409 . S
C1576 H1568 0.930 . S
C1576 C1577 1.355 . S
C1576 C1578 1.415 . S
C1577 C1576 1.355 . S
C1577 C1579 1.419 . S
C1578 C1573 1.425 . S
C1578 C1575 1.409 . S
C1578 C1576 1.415 . S
C1579 H1569 0.930 . S
C1579 C1577 1.419 . S
C1579 C1580 1.362 . S
C1580 H1570 0.930 . S
C1580 C1573 1.409 . S
C1580 C1579 1.362 . S
H1581 C1587 0.930 . S
H1582 C1590 0.930 . S
H1583 C1591 0.930 . S
H1584 C1592 0.930 . S
H1585 C1595 0.930 . S
H1586 C1596 0.930 . S
C1587 H1581 0.930 . S
C1587 C1588 1.355 . S
C1587 C1589 1.415 . S
C1588 C1587 1.355 . S
C1588 C1590 1.419 . S
C1589 C1587 1.415 . S
C1589 C1594 1.425 . S
C1589 C1596 1.409 . S
C1590 H1582 0.930 . S
C1590 C1588 1.419 . S
C1590 C1591 1.362 . S
C1591 H1583 0.930 . S
C1591 C1590 1.362 . S
C1591 C1594 1.409 . S
C1592 H1584 0.930 . S
C1592 C1593 1.355 . S
C1592 C1594 1.415 . S
C1593 C1592 1.355 . S
C1593 C1595 1.419 . S
C1594 C1589 1.425 . S
C1594 C1591 1.409 . S
C1594 C1592 1.415 . S
C1595 H1585 0.930 . S
C1595 C1593 1.419 . S
C1595 C1596 1.362 . S
C1596 H1586 0.930 . S
C1596 C1589 1.409 . S
C1596 C1595 1.362 . S
H1597 C1603 0.930 . S
H1598 C1606 0.930 . S
H1599 C1607 0.930 . S
H1600 C1608 0.930 . S
H1601 C1611 0.930 . S
H1602 C1612 0.930 . S
C1603 H1597 0.930 . S
C1603 C1604 1.355 . S
C1603 C1605 1.415 . S
C1604 C1603 1.355 . S
C1604 C1606 1.419 . S
C1605 C1603 1.415 . S
C1605 C1610 1.425 . S
C1605 C1612 1.409 . S
C1606 H1598 0.930 . S
C1606 C1604 1.419 . S
C1606 C1607 1.362 . S
C1607 H1599 0.930 . S
C1607 C1606 1.362 . S
C1607 C1610 1.409 . S
C1608 H1600 0.930 . S
C1608 C1609 1.355 . S
C1608 C1610 1.415 . S
C1609 C1608 1.355 . S
C1609 C1611 1.419 . S
C1610 C1605 1.425 . S
C1610 C1607 1.409 . S
C1610 C1608 1.415 . S
C1611 H1601 0.930 . S
C1611 C1609 1.419 . S
C1611 C1612 1.362 . S
C1612 H1602 0.930 . S
C1612 C1605 1.409 . S
C1612 C1611 1.362 . S
H1613 C1619 0.930 . S
H1614 C1622 0.930 . S
H1615 C1623 0.930 . S
H1616 C1624 0.930 . S
H1617 C1627 0.930 . S
H1618 C1628 0.930 . S
C1619 H1613 0.930 . S
C1619 C1620 1.355 . S
C1619 C1621 1.415 . S
C1620 C1619 1.355 . S
C1620 C1622 1.419 . S
C1621 C1619 1.415 . S
C1621 C1626 1.425 . S
C1621 C1628 1.409 . S
C1622 H1614 0.930 . S
C1622 C1620 1.419 . S
C1622 C1623 1.362 . S
C1623 H1615 0.930 . S
C1623 C1622 1.362 . S
C1623 C1626 1.409 . S
C1624 H1616 0.930 . S
C1624 C1625 1.355 . S
C1624 C1626 1.415 . S
C1625 C1624 1.355 . S
C1625 C1627 1.419 . S
C1626 C1621 1.425 . S
C1626 C1623 1.409 . S
C1626 C1624 1.415 . S
C1627 H1617 0.930 . S
C1627 C1625 1.419 . S
C1627 C1628 1.362 . S
C1628 H1618 0.930 . S
C1628 C1621 1.409 . S
C1628 C1627 1.362 . S
C772 C439 1.407 . S
C777 C590 1.391 . S
C788 C465 1.511 . S
C793 C611 1.353 . S
C804 C401 1.399 . S
C809 C631 1.088 . S
C820 C369 1.421 . S
C825 C610 1.102 1_556 S
C841 C632 1.373 . S
C836 C305 1.537 . S
C852 C343 1.336 . S
C857 C589 1.182 1_556 S
C873 C591 1.301 . S
C868 C375 1.440 . S
C889 C612 1.347 . S
C884 C311 1.425 . S
C900 C337 1.426 . S
C905 C634 1.271 1_556 S
C916 C433 1.301 . S
C921 C613 1.110 . S
C932 C471 1.403 . S
C937 C633 1.369 . S
C953 C592 1.284 . S
C948 C407 1.468 . S
C969 C653 1.402 . S
C964 C55 1.368 . S
C980 C81 1.507 . S
C985 C674 1.446 . S
C996 C17 1.412 . S
C1001 C694 1.207 . S
C1012 C561 1.426 . S
C1017 C673 1.092 . S
C1028 C497 1.539 . S
C1033 C695 1.375 . S
C1044 C535 1.371 . S
C1049 C652 1.239 . S
C1060 C567 1.438 . S
C1065 C654 1.318 . S
C1076 C503 1.428 . S
C1081 C675 1.382 . S
C1097 C697 1.224 . S
C1092 C529 1.400 . S
C1108 C49 1.389 . S
C1113 C676 1.246 . S
C1129 C696 1.271 . S
C1124 C87 1.416 . S
C1140 C23 1.466 . S
C1145 C655 1.131 . S
C1161 C716 1.313 . S
C1156 C247 1.337 . S
C1172 C273 1.509 . S
C1177 C737 1.352 . S
C1193 C757 1.106 . S
C1188 C209 1.395 . S
C1209 C736 1.221 . S
C1204 C177 1.423 . S
C1225 C758 1.373 . S
C1220 C113 1.536 . S
C1236 C151 1.300 . S
C1241 C715 1.132 . S
C1252 C183 1.445 . S
C1257 C717 1.285 . S
C1268 C119 1.440 . S
C1273 C738 1.304 . S
C1289 C760 1.214 . S
C1284 C145 1.394 . S
C1300 C241 1.298 . S
C1305 C739 1.097 . S
C1316 C279 1.409 . S
C1321 C759 1.333 . S
C1332 C215 1.462 . S
C1337 C718 1.275 . S
C1348 C509 1.437 . S
C1353 C594 1.412 1_565 S
C1369 C615 1.397 . S
C1364 C541 1.420 . S
C1380 C573 1.498 . S
C1385 C635 1.503 . S
C1396 C221 1.541 . S
C1401 C614 1.547 . S
C1412 C253 1.381 . S
C1417 C636 1.401 . S
C1433 C593 1.507 . S
C1428 C285 1.527 . S
C1444 C125 1.447 . S
C1449 C657 1.380 . S
C1460 C157 1.345 . S
C1465 C678 1.390 . S
C1476 C189 1.498 . S
C1481 C698 1.503 . S
C1492 C413 1.539 . S
C1497 C677 1.546 . S
C1513 C699 1.387 . S
C1508 C445 1.404 . S
C1524 C477 1.536 . S
C1529 C656 1.490 . S
C1540 C317 1.433 . S
C1545 C720 1.382 . S
C1556 C349 1.418 . S
C1561 C741 1.405 . S
C1577 C761 1.448 . S
C1572 C381 1.520 . S
C1588 C29 1.543 . S
C1593 C740 1.500 . S
C1604 C61 1.367 . S
C1609 C762 1.433 . S
C1620 C93 1.522 . S
C1625 C719 1.522 . S
