# Generated by pormake.
# Topology hwx, (6,3)-cn, num edge types: 1
# Building blocks:
#     Node 0, Type 0, BuildingBlock: OJICUG_clean_sbu_0, # of connection points: 6
#     Node 1, Type 0, BuildingBlock: OJICUG_clean_sbu_0, # of connection points: 6
#     Node 2, Type 0, BuildingBlock: OJICUG_clean_sbu_0, # of connection points: 6
#     Node 3, Type 0, BuildingBlock: OJICUG_clean_sbu_0, # of connection points: 6
#     Node 4, Type 1, BuildingBlock: BETDAH_clean_linker_0, # of connection points: 3
#     Node 5, Type 1, BuildingBlock: BETDAH_clean_linker_0, # of connection points: 3
#     Node 6, Type 1, BuildingBlock: BETDAH_clean_linker_0, # of connection points: 3
#     Node 7, Type 1, BuildingBlock: BETDAH_clean_linker_0, # of connection points: 3
#     Node 8, Type 1, BuildingBlock: BETDAH_clean_linker_0, # of connection points: 3
#     Node 9, Type 1, BuildingBlock: BETDAH_clean_linker_0, # of connection points: 3
#     Node 10, Type 1, BuildingBlock: BETDAH_clean_linker_0, # of connection points: 3
#     Node 11, Type 1, BuildingBlock: BETDAH_clean_linker_0, # of connection points: 3
#     Edge 12, Type (0, 1), BuildingBlock: XUDNAN_clean_linker_2, # of connection points: 2
#     Edge 13, Type (0, 1), BuildingBlock: XUDNAN_clean_linker_2, # of connection points: 2
#     Edge 14, Type (0, 1), BuildingBlock: XUDNAN_clean_linker_2, # of connection points: 2
#     Edge 15, Type (0, 1), BuildingBlock: XUDNAN_clean_linker_2, # of connection points: 2
#     Edge 16, Type (0, 1), BuildingBlock: XUDNAN_clean_linker_2, # of connection points: 2
#     Edge 17, Type (0, 1), BuildingBlock: XUDNAN_clean_linker_2, # of connection points: 2
#     Edge 18, Type (0, 1), BuildingBlock: XUDNAN_clean_linker_2, # of connection points: 2
#     Edge 19, Type (0, 1), BuildingBlock: XUDNAN_clean_linker_2, # of connection points: 2
#     Edge 20, Type (0, 1), BuildingBlock: XUDNAN_clean_linker_2, # of connection points: 2
#     Edge 21, Type (0, 1), BuildingBlock: XUDNAN_clean_linker_2, # of connection points: 2
#     Edge 22, Type (0, 1), BuildingBlock: XUDNAN_clean_linker_2, # of connection points: 2
#     Edge 23, Type (0, 1), BuildingBlock: XUDNAN_clean_linker_2, # of connection points: 2
#     Edge 24, Type (0, 1), BuildingBlock: XUDNAN_clean_linker_2, # of connection points: 2
#     Edge 25, Type (0, 1), BuildingBlock: XUDNAN_clean_linker_2, # of connection points: 2
#     Edge 26, Type (0, 1), BuildingBlock: XUDNAN_clean_linker_2, # of connection points: 2
#     Edge 27, Type (0, 1), BuildingBlock: XUDNAN_clean_linker_2, # of connection points: 2
#     Edge 28, Type (0, 1), BuildingBlock: XUDNAN_clean_linker_2, # of connection points: 2
#     Edge 29, Type (0, 1), BuildingBlock: XUDNAN_clean_linker_2, # of connection points: 2
#     Edge 30, Type (0, 1), BuildingBlock: XUDNAN_clean_linker_2, # of connection points: 2
#     Edge 31, Type (0, 1), BuildingBlock: XUDNAN_clean_linker_2, # of connection points: 2
#     Edge 32, Type (0, 1), BuildingBlock: XUDNAN_clean_linker_2, # of connection points: 2
#     Edge 33, Type (0, 1), BuildingBlock: XUDNAN_clean_linker_2, # of connection points: 2
#     Edge 34, Type (0, 1), BuildingBlock: XUDNAN_clean_linker_2, # of connection points: 2
#     Edge 35, Type (0, 1), BuildingBlock: XUDNAN_clean_linker_2, # of connection points: 2
# Relax obj value: 0.008
# Max RMSD: 0.044
# Mean RMSD: 0.041
data_MOF--net-hwx--node1-OJICUG_clean_sbu_0--node2-BETDAH_clean_linker_0--edge1-XUDNAN_clean_linker_2
_symmetry_space_group_name_H-M    P1
_symmetry_Int_Tables_number       1
_symmetry_cell_setting            triclinic
loop_
_symmetry_equiv_pos_as_xyz
'x, y, z'
_cell_length_a     52.744817
_cell_length_b     52.732162
_cell_length_c     20.296974
_cell_angle_alpha  91.860691
_cell_angle_beta   91.892874
_cell_angle_gamma 90.020163
loop_
_atom_site_label
_atom_site_type_symbol
_atom_site_fract_x
_atom_site_fract_y
_atom_site_fract_z
_atom_type_partial_charge
Sc0 Sc 0.22819 0.23364 0.11823 0.0
Sc1 Sc 0.19024 0.19604 0.00543 0.0
Sc2 Sc 0.23312 0.24078 0.94752 0.0
O3 O 0.21718 0.22346 0.02385 0.0
C4 C 0.2268 0.28747 0.05017 0.0
C5 C 0.16792 0.22697 0.12829 0.0
C6 C 0.17522 0.23673 0.89823 0.0
C7 C 0.22211 0.17349 0.12669 0.0
C8 C 0.28107 0.23396 0.04545 0.0
C9 C 0.23019 0.1828 0.89536 0.0
O10 O 0.2263 0.27372 0.10043 0.0
O11 O 0.16547 0.21232 0.07748 0.0
O12 O 0.19702 0.24694 0.89865 0.0
O13 O 0.23114 0.19481 0.14702 0.0
O14 O 0.27066 0.23693 0.98895 0.0
O15 O 0.21206 0.17675 0.93142 0.0
O16 O 0.26843 0.23256 0.09766 0.0
O17 O 0.20716 0.17102 0.07643 0.0
O18 O 0.23952 0.20505 0.89541 0.0
O19 O 0.18928 0.23596 0.14894 0.0
O20 O 0.22909 0.27824 0.99199 0.0
O21 O 0.17001 0.2178 0.9325 0.0
Sc22 Sc 0.26881 0.74192 0.44538 0.0
Sc23 Sc 0.30968 0.69498 0.50794 0.0
Sc24 Sc 0.27319 0.73295 0.61628 0.0
O25 O 0.2839 0.72326 0.5233 0.0
C26 C 0.27667 0.7874 0.55086 0.0
C27 C 0.32668 0.73558 0.40595 0.0
C28 C 0.33293 0.72441 0.63703 0.0
C29 C 0.26919 0.68451 0.38985 0.0
C30 C 0.22052 0.73615 0.53516 0.0
C31 C 0.27715 0.67254 0.62147 0.0
O32 O 0.27563 0.77865 0.49174 0.0
O33 O 0.33148 0.71697 0.44249 0.0
O34 O 0.31217 0.73501 0.65276 0.0
O35 O 0.25993 0.70679 0.39166 0.0
O36 O 0.23302 0.73161 0.58829 0.0
O37 O 0.29066 0.66965 0.57119 0.0
O38 O 0.23108 0.74093 0.4816 0.0
O39 O 0.28779 0.67783 0.42671 0.0
O40 O 0.27022 0.69403 0.64447 0.0
O41 O 0.305 0.74592 0.40104 0.0
O42 O 0.27511 0.7733 0.60029 0.0
O43 O 0.33456 0.70905 0.58764 0.0
Sc44 Sc 0.77567 0.76637 0.94443 0.0
Sc45 Sc 0.81696 0.80872 0.03183 0.0
Sc46 Sc 0.77336 0.7726 0.11808 0.0
O47 O 0.78861 0.78252 0.03153 0.0
C48 C 0.72412 0.77418 0.02073 0.0
C49 C 0.7825 0.82483 0.90889 0.0
C50 C 0.78102 0.83233 0.14173 0.0
C51 C 0.83503 0.76852 0.92265 0.0
C52 C 0.77584 0.71906 0.03984 0.0
C53 C 0.83313 0.77606 0.15535 0.0
O54 O 0.73685 0.77119 0.96905 0.0
O55 O 0.79855 0.8293 0.95567 0.0
O56 O 0.77008 0.8115 0.15309 0.0
O57 O 0.81322 0.75891 0.91141 0.0
O58 O 0.77471 0.73267 0.09256 0.0
O59 O 0.83784 0.79053 0.10853 0.0
O60 O 0.7764 0.7285 0.98291 0.0
O61 O 0.83924 0.78714 0.96271 0.0
O62 O 0.81074 0.76842 0.16663 0.0
O63 O 0.77303 0.80285 0.89651 0.0
O64 O 0.73444 0.77531 0.07855 0.0
O65 O 0.79853 0.83393 0.10059 0.0
Sc66 Sc 0.73512 0.268 0.51944 0.0
Sc67 Sc 0.68724 0.30531 0.44495 0.0
Sc68 Sc 0.72765 0.26787 0.34641 0.0
O69 O 0.71668 0.28039 0.43696 0.0
C70 C 0.78122 0.27512 0.42291 0.0
C71 C 0.72656 0.32669 0.55614 0.0
C72 C 0.71673 0.32684 0.32375 0.0
C73 C 0.67731 0.26824 0.5626 0.0
C74 C 0.7315 0.21723 0.42869 0.0
C75 C 0.66713 0.26787 0.32868 0.0
O76 O 0.77219 0.2736 0.48004 0.0
O77 O 0.70788 0.32912 0.51577 0.0
O78 O 0.72737 0.30586 0.30861 0.0
O79 O 0.70017 0.26071 0.56758 0.0
O80 O 0.72928 0.22871 0.37461 0.0
O81 O 0.66333 0.2844 0.3742 0.0
O82 O 0.73391 0.22894 0.48436 0.0
O83 O 0.66982 0.28443 0.52118 0.0
O84 O 0.6891 0.26036 0.31318 0.0
O85 O 0.73817 0.30578 0.56371 0.0
O86 O 0.76745 0.27341 0.37033 0.0
O87 O 0.70149 0.3292 0.37072 0.0
H88 H 0.23732 0.58206 0.00754 0.0
H89 H 0.20208 0.52049 0.10288 0.0
H90 H 0.2118 0.51579 0.89383 0.0
C91 C 0.22959 0.56301 0.00431 0.0
C92 C 0.22638 0.55022 0.9427 0.0
C93 C 0.22125 0.55234 0.06211 0.0
C94 C 0.20944 0.52846 0.05881 0.0
C95 C 0.20618 0.51538 0.99776 0.0
C96 C 0.21465 0.52622 0.94032 0.0
N97 N 0.19178 0.49275 0.99192 0.0
C98 C 0.19994 0.47012 0.01846 0.0
H99 H 0.93052 0.73513 0.55576 0.0
H100 H 0.98968 0.70215 0.43914 0.0
H101 H 0.99219 0.69539 0.6496 0.0
C102 C 0.94823 0.72481 0.55211 0.0
C103 C 0.96026 0.71617 0.60969 0.0
C104 C 0.95829 0.71957 0.48998 0.0
C105 C 0.98157 0.70656 0.48649 0.0
C106 C 0.99393 0.69819 0.5442 0.0
C107 C 0.98299 0.70256 0.60545 0.0
N108 N 0.01642 0.68369 0.54049 0.0
C109 C 0.03997 0.69523 0.53694 0.0
H110 H 0.75894 0.4236 0.95495 0.0
H111 H 0.79536 0.48444 0.85881 0.0
H112 H 0.78693 0.48861 0.069 0.0
C113 C 0.76854 0.44181 0.95762 0.0
C114 C 0.77243 0.4544 0.01909 0.0
C115 C 0.77653 0.45247 0.89955 0.0
C116 C 0.78848 0.47623 0.90312 0.0
C117 C 0.79182 0.48951 0.96371 0.0
C118 C 0.78355 0.47873 0.02189 0.0
N119 N 0.80583 0.51244 0.96537 0.0
C120 C 0.79716 0.53514 0.99292 0.0
H121 H 0.0731 0.26349 0.51468 0.0
H122 H 0.01546 0.30516 0.61572 0.0
H123 H 0.00848 0.29239 0.40543 0.0
C124 C 0.055 0.27327 0.5134 0.0
C125 C 0.04228 0.27705 0.45267 0.0
C126 C 0.04547 0.28326 0.57221 0.0
C127 C 0.02264 0.29675 0.57059 0.0
C128 C 0.00875 0.29918 0.51111 0.0
C129 C 0.01851 0.28923 0.45188 0.0
N130 N 0.98617 0.31367 0.51168 0.0
C131 C 0.96362 0.30575 0.48032 0.0
H132 H 0.74056 0.92363 0.52371 0.0
H133 H 0.71671 0.99346 0.43712 0.0
H134 H 0.71196 0.98447 0.64616 0.0
C135 C 0.73233 0.94239 0.52906 0.0
C136 C 0.72682 0.9521 0.59199 0.0
C137 C 0.72833 0.9569 0.47284 0.0
C138 C 0.71967 0.98204 0.48013 0.0
C139 C 0.71374 0.99191 0.54306 0.0
C140 C 0.71688 0.97674 0.59814 0.0
N141 N 0.70375 0.01666 0.55292 0.0
C142 C 0.70964 0.03742 0.51578 0.0
H143 H 0.57516 0.22464 0.95491 0.0
H144 H 0.50142 0.24223 0.02732 0.0
H145 H 0.51513 0.24607 0.81965 0.0
C146 C 0.55546 0.22957 0.94517 0.0
C147 C 0.5471 0.23449 0.88065 0.0
C148 C 0.53919 0.23244 0.99808 0.0
C149 C 0.51391 0.23975 0.98631 0.0
C150 C 0.50512 0.24433 0.92145 0.0
C151 C 0.52191 0.24217 0.86929 0.0
N152 N 0.47976 0.25176 0.90685 0.0
C153 C 0.45942 0.24745 0.94686 0.0
H154 H 0.25563 0.07829 0.52426 0.0
H155 H 0.29751 0.01853 0.61747 0.0
H156 H 0.28912 0.01879 0.40615 0.0
C157 C 0.26598 0.06055 0.52053 0.0
C158 C 0.27082 0.04975 0.45817 0.0
C159 C 0.27563 0.0496 0.57812 0.0
C160 C 0.28938 0.02682 0.57341 0.0
C161 C 0.29366 0.01541 0.5112 0.0
C162 C 0.28467 0.02708 0.45394 0.0
N163 N 0.30933 0.99378 0.50482 0.0
C164 C 0.30307 0.97056 0.53024 0.0
H165 H 0.42979 0.75814 0.03883 0.0
H166 H 0.49444 0.78694 0.94018 0.0
H167 H 0.48791 0.79945 0.1494 0.0
C168 C 0.44802 0.76773 0.04056 0.0
C169 C 0.4577 0.77767 0.10096 0.0
C170 C 0.46066 0.77149 0.98186 0.0
C171 C 0.48451 0.78365 0.98499 0.0
C172 C 0.49446 0.79347 0.04593 0.0
C173 C 0.48067 0.79099 0.10314 0.0
N174 N 0.51672 0.80851 0.04982 0.0
C175 C 0.54024 0.79956 0.03109 0.0
H176 H 0.16469 0.25717 0.24061 0.0
H177 H 0.11873 0.21189 0.09954 0.0
H178 H 0.08061 0.22223 0.16235 0.0
H179 H 0.13369 0.23885 0.38257 0.0
H180 H 0.1361 0.2696 0.4237 0.0
H181 H 0.15935 0.25993 0.36508 0.0
H182 H 0.14989 0.30019 0.29843 0.0
H183 H 0.12656 0.30997 0.3569 0.0
H184 H 0.11781 0.30661 0.27045 0.0
H185 H 0.04746 0.23603 0.24495 0.0
H186 H 0.02324 0.25097 0.3417 0.0
H187 H 0.09122 0.28737 0.42539 0.0
C188 C 0.14663 0.24955 0.22242 0.0
C189 C 0.14483 0.2337 0.165 0.0
C190 C 0.12071 0.22409 0.14338 0.0
C191 C 0.09887 0.22991 0.17861 0.0
C192 C 0.10138 0.24547 0.23522 0.0
C193 C 0.12468 0.25516 0.25684 0.0
C194 C 0.12258 0.27057 0.3205 0.0
C195 C 0.13889 0.25904 0.37623 0.0
C196 C 0.12962 0.29849 0.31096 0.0
C197 C 0.09458 0.26764 0.33205 0.0
C198 C 0.08251 0.25331 0.28223 0.0
C199 C 0.05671 0.24742 0.28402 0.0
C200 C 0.04307 0.25604 0.33886 0.0
C201 C 0.05541 0.2701 0.39112 0.0
C202 C 0.08133 0.27638 0.38651 0.0
H203 H 0.29209 0.6584 0.74389 0.0
H204 H 0.24396 0.63636 0.5747 0.0
H205 H 0.22773 0.59993 0.63541 0.0
H206 H 0.30793 0.59281 0.79119 0.0
H207 H 0.30827 0.60116 0.87804 0.0
H208 H 0.31692 0.62439 0.81957 0.0
H209 H 0.28272 0.65497 0.86505 0.0
H210 H 0.2739 0.63182 0.92333 0.0
H211 H 0.25027 0.64434 0.86707 0.0
H212 H 0.21313 0.56965 0.72019 0.0
H213 H 0.20335 0.54585 0.81834 0.0
H214 H 0.26543 0.58425 0.92713 0.0
C215 C 0.27841 0.64561 0.7196 0.0
C216 C 0.2691 0.64991 0.65514 0.0
C217 C 0.25124 0.63305 0.62422 0.0
C218 C 0.24199 0.61242 0.65825 0.0
C219 C 0.25134 0.60874 0.72233 0.0
C220 C 0.2695 0.62461 0.75221 0.0
C221 C 0.27614 0.61678 0.82171 0.0
C222 C 0.30397 0.60827 0.82797 0.0
C223 C 0.27041 0.63825 0.87224 0.0
C224 C 0.25819 0.59463 0.82721 0.0
C225 C 0.24402 0.5903 0.76953 0.0
C226 C 0.22459 0.57238 0.76507 0.0
C227 C 0.21932 0.55876 0.82128 0.0
C228 C 0.23365 0.56285 0.88119 0.0
C229 C 0.25377 0.58066 0.88294 0.0
H230 H 0.83336 0.75026 0.27253 0.0
H231 H 0.88325 0.78288 0.13145 0.0
H232 H 0.92036 0.77013 0.19839 0.0
H233 H 0.87001 0.76961 0.41638 0.0
H234 H 0.86428 0.74111 0.4603 0.0
H235 H 0.84126 0.7517 0.39978 0.0
H236 H 0.84347 0.70809 0.33753 0.0
H237 H 0.86652 0.69738 0.39793 0.0
H238 H 0.87373 0.69619 0.3117 0.0
H239 H 0.95242 0.75532 0.28182 0.0
H240 H 0.97694 0.74017 0.37873 0.0
H241 H 0.90685 0.71643 0.46488 0.0
C242 C 0.85207 0.75457 0.25551 0.0
C243 C 0.8552 0.76766 0.1966 0.0
C244 C 0.88014 0.77301 0.17645 0.0
C245 C 0.90147 0.76576 0.21402 0.0
C246 C 0.89775 0.75307 0.27183 0.0
C247 C 0.87373 0.7475 0.29266 0.0
C248 C 0.87516 0.73435 0.35798 0.0
C249 C 0.86189 0.75014 0.41178 0.0
C250 C 0.86406 0.7074 0.35082 0.0
C251 C 0.90366 0.73376 0.37067 0.0
C252 C 0.91635 0.74451 0.32017 0.0
C253 C 0.94273 0.74668 0.32159 0.0
C254 C 0.95652 0.73791 0.37662 0.0
C255 C 0.94388 0.72721 0.42957 0.0
C256 C 0.9171 0.72483 0.42569 0.0
H257 H 0.75471 0.32836 0.67251 0.0
H258 H 0.71736 0.37635 0.52917 0.0
H259 H 0.73008 0.41431 0.59643 0.0
H260 H 0.73521 0.36295 0.81242 0.0
H261 H 0.76421 0.35855 0.86013 0.0
H262 H 0.75457 0.33533 0.79736 0.0
H263 H 0.79767 0.3404 0.74129 0.0
H264 H 0.80743 0.3637 0.80398 0.0
H265 H 0.80777 0.37145 0.71817 0.0
H266 H 0.74449 0.4469 0.68237 0.0
H267 H 0.75724 0.47132 0.78427 0.0
H268 H 0.78476 0.40212 0.87161 0.0
C269 C 0.74957 0.34687 0.65474 0.0
C270 C 0.73512 0.34938 0.59549 0.0
C271 C 0.72836 0.37394 0.57453 0.0
C272 C 0.73564 0.39564 0.61214 0.0
C273 C 0.74964 0.39249 0.67064 0.0
C274 C 0.75646 0.36873 0.692 0.0
C275 C 0.76983 0.37045 0.75912 0.0
C276 C 0.75506 0.35597 0.81025 0.0
C277 C 0.79731 0.36094 0.75538 0.0
C278 C 0.76894 0.39881 0.77273 0.0
C279 C 0.75758 0.41125 0.72071 0.0
C280 C 0.75366 0.43742 0.72319 0.0
C281 C 0.76105 0.45114 0.78104 0.0
C282 C 0.77195 0.43859 0.83564 0.0
C283 C 0.77639 0.41218 0.83063 0.0
H284 H 0.6235 0.29129 0.28668 0.0
H285 H 0.66164 0.21852 0.2884 0.0
H286 H 0.6261 0.19918 0.2224 0.0
H287 H 0.5561 0.26679 0.2823 0.0
H288 H 0.54577 0.29048 0.22526 0.0
H289 H 0.57117 0.29751 0.28473 0.0
H290 H 0.60052 0.30953 0.19056 0.0
H291 H 0.57518 0.30285 0.13131 0.0
H292 H 0.60526 0.28701 0.12333 0.0
H293 H 0.59051 0.18911 0.14442 0.0
H294 H 0.56026 0.1902 0.04913 0.0
H295 H 0.5452 0.2695 0.09342 0.0
C296 C 0.62389 0.27113 0.27468 0.0
C297 C 0.64505 0.25626 0.29301 0.0
C298 C 0.6455 0.23015 0.27479 0.0
C299 C 0.62528 0.21897 0.238 0.0
C300 C 0.60483 0.2342 0.21951 0.0
C301 C 0.60405 0.25978 0.23671 0.0
C302 C 0.58198 0.2727 0.20181 0.0
C303 C 0.56261 0.28244 0.25151 0.0
C304 C 0.5913 0.29427 0.15922 0.0
C305 C 0.57127 0.25067 0.15979 0.0
C306 C 0.58425 0.22846 0.17249 0.0
C307 C 0.57978 0.20618 0.13507 0.0
C308 C 0.56252 0.20691 0.08129 0.0
C309 C 0.55013 0.22977 0.06527 0.0
C310 C 0.55378 0.25161 0.10647 0.0
H311 H 0.20612 0.14496 0.82222 0.0
H312 H 0.28056 0.17535 0.87666 0.0
H313 H 0.3005 0.14033 0.81286 0.0
H314 H 0.22218 0.07772 0.82009 0.0
H315 H 0.20253 0.07028 0.74769 0.0
H316 H 0.1941 0.09617 0.80286 0.0
H317 H 0.19354 0.12706 0.70597 0.0
H318 H 0.20151 0.1012 0.65053 0.0
H319 H 0.22108 0.12927 0.65612 0.0
H320 H 0.31222 0.10227 0.74218 0.0
H321 H 0.31478 0.06878 0.65429 0.0
H322 H 0.23275 0.06524 0.63926 0.0
C323 C 0.22662 0.14405 0.82101 0.0
C324 C 0.24188 0.16263 0.85459 0.0
C325 C 0.2686 0.16126 0.851 0.0
C326 C 0.28006 0.14132 0.81552 0.0
C327 C 0.2645 0.12315 0.78321 0.0
C328 C 0.23834 0.12465 0.78447 0.0
C329 C 0.2259 0.10429 0.74004 0.0
C330 C 0.21025 0.08603 0.78009 0.0
C331 C 0.20956 0.11617 0.6849 0.0
C332 C 0.24912 0.09127 0.71302 0.0
C333 C 0.27121 0.10201 0.73986 0.0
C334 C 0.29507 0.09362 0.7211 0.0
C335 C 0.29637 0.07446 0.67169 0.0
C336 C 0.27397 0.06431 0.641 0.0
C337 C 0.25011 0.07243 0.66301 0.0
H338 H 0.36206 0.7102 0.33397 0.0
H339 H 0.33754 0.78554 0.3953 0.0
H340 H 0.37228 0.80438 0.33401 0.0
H341 H 0.43049 0.72259 0.33265 0.0
H342 H 0.43474 0.70352 0.25852 0.0
H343 H 0.40999 0.69579 0.31368 0.0
H344 H 0.37653 0.69815 0.21758 0.0
H345 H 0.40117 0.70568 0.16219 0.0
H346 H 0.37432 0.72654 0.17056 0.0
H347 H 0.40868 0.81499 0.26374 0.0
H348 H 0.44048 0.81698 0.17703 0.0
H349 H 0.43912 0.73498 0.15461 0.0
C350 C 0.36434 0.73063 0.33515 0.0
C351 C 0.34748 0.74651 0.36967 0.0
C352 C 0.35043 0.77316 0.36902 0.0
C353 C 0.37017 0.78398 0.33488 0.0
C354 C 0.3865 0.76784 0.30097 0.0
C355 C 0.38355 0.74176 0.29992 0.0
C356 C 0.4019 0.72885 0.25391 0.0
C357 C 0.42038 0.71167 0.29199 0.0
C358 C 0.38763 0.71394 0.19774 0.0
C359 C 0.41539 0.75175 0.22867 0.0
C360 C 0.40664 0.77402 0.25761 0.0
C361 C 0.4158 0.79769 0.24098 0.0
C362 C 0.43391 0.79866 0.1921 0.0
C363 C 0.44221 0.77613 0.15988 0.0
C364 C 0.43314 0.75241 0.17915 0.0
H365 H 0.75549 0.82542 0.78884 0.0
H366 H 0.78995 0.87465 0.94287 0.0
H367 H 0.77657 0.91201 0.88231 0.0
H368 H 0.77368 0.8626 0.65445 0.0
H369 H 0.74477 0.85735 0.6061 0.0
H370 H 0.75561 0.83394 0.66318 0.0
H371 H 0.71251 0.83631 0.72075 0.0
H372 H 0.70157 0.85979 0.66386 0.0
H373 H 0.70114 0.86655 0.75145 0.0
H374 H 0.76168 0.94418 0.80469 0.0
H375 H 0.74729 0.9694 0.71067 0.0
H376 H 0.72132 0.90045 0.60631 0.0
C377 C 0.76004 0.84405 0.80994 0.0
C378 C 0.77388 0.84693 0.87064 0.0
C379 C 0.77958 0.87174 0.89629 0.0
C380 C 0.77192 0.89322 0.86249 0.0
C381 C 0.75851 0.88977 0.80288 0.0
C382 C 0.75262 0.8659 0.77649 0.0
C383 C 0.73895 0.86781 0.70987 0.0
C384 C 0.75417 0.85465 0.65518 0.0
C385 C 0.71193 0.85697 0.71162 0.0
C386 C 0.73855 0.89639 0.70292 0.0
C387 C 0.74973 0.90863 0.75752 0.0
C388 C 0.75258 0.9349 0.76185 0.0
C389 C 0.74415 0.94909 0.70832 0.0
C390 C 0.73302 0.93702 0.65108 0.0
C391 C 0.72985 0.9103 0.64912 0.0
H392 H 0.87061 0.79178 0.851 0.0
H393 H 0.84693 0.71857 0.91809 0.0
H394 H 0.8819 0.69787 0.85845 0.0
H395 H 0.88151 0.77019 0.69059 0.0
H396 H 0.90818 0.79068 0.67832 0.0
H397 H 0.88444 0.80013 0.73567 0.0
H398 H 0.91925 0.80559 0.82832 0.0
H399 H 0.94312 0.79595 0.77111 0.0
H400 H 0.93998 0.77941 0.84675 0.0
H401 H 0.91707 0.68483 0.78543 0.0
H402 H 0.94601 0.67962 0.69243 0.0
H403 H 0.94472 0.76083 0.66626 0.0
C404 C 0.8733 0.77149 0.85422 0.0
C405 C 0.85654 0.75669 0.88959 0.0
C406 C 0.85984 0.73011 0.89133 0.0
C407 C 0.87972 0.71827 0.85816 0.0
C408 C 0.89585 0.73331 0.8229 0.0
C409 C 0.89265 0.7593 0.81993 0.0
C410 C 0.91027 0.77059 0.7713 0.0
C411 C 0.8952 0.78365 0.71569 0.0
C412 C 0.92928 0.78897 0.80649 0.0
C413 C 0.92336 0.74682 0.74613 0.0
C414 C 0.91531 0.72561 0.77789 0.0
C415 C 0.92376 0.70131 0.76071 0.0
C416 C 0.94025 0.69852 0.70819 0.0
C417 C 0.9476 0.71986 0.67297 0.0
C418 C 0.93953 0.74431 0.69319 0.0
H419 H 0.74872 0.3306 0.22001 0.0
H420 H 0.69947 0.37549 0.34535 0.0
H421 H 0.71112 0.41398 0.28745 0.0
H422 H 0.7983 0.37776 0.21003 0.0
H423 H 0.80429 0.36982 0.12491 0.0
H424 H 0.79277 0.3459 0.17786 0.0
H425 H 0.75469 0.33693 0.09629 0.0
H426 H 0.76622 0.36063 0.0429 0.0
H427 H 0.73439 0.36276 0.0722 0.0
H428 H 0.72736 0.44776 0.21269 0.0
H429 H 0.74462 0.47275 0.1227 0.0
H430 H 0.78348 0.40568 0.04927 0.0
C431 C 0.74037 0.34848 0.23549 0.0
C432 C 0.72314 0.34987 0.28734 0.0
C433 C 0.71268 0.37379 0.30572 0.0
C434 C 0.71928 0.39585 0.27335 0.0
C435 C 0.73643 0.3938 0.22276 0.0
C436 C 0.74673 0.37068 0.2038 0.0
C437 C 0.76402 0.37336 0.14647 0.0
C438 C 0.79147 0.36629 0.16602 0.0
C439 C 0.75424 0.35749 0.0859 0.0
C440 C 0.76151 0.4015 0.13542 0.0
C441 C 0.74573 0.4131 0.18019 0.0
C442 C 0.73989 0.4389 0.17763 0.0
C443 C 0.74987 0.453 0.12676 0.0
C444 C 0.76528 0.44112 0.07911 0.0
C445 C 0.77165 0.41523 0.08493 0.0
H446 H 0.13897 0.21254 0.81989 0.0
H447 H 0.16591 0.28702 0.88654 0.0
H448 H 0.13176 0.30699 0.81993 0.0
H449 H 0.12703 0.22957 0.6548 0.0
H450 H 0.09951 0.20953 0.64181 0.0
H451 H 0.12396 0.20116 0.70104 0.0
H452 H 0.09055 0.19962 0.7917 0.0
H453 H 0.066 0.20821 0.7327 0.0
H454 H 0.07096 0.22699 0.80781 0.0
H455 H 0.09566 0.31885 0.74381 0.0
H456 H 0.06389 0.32195 0.65183 0.0
H457 H 0.06259 0.23998 0.62846 0.0
C458 C 0.13735 0.23303 0.82105 0.0
C459 C 0.15476 0.24832 0.85858 0.0
C460 C 0.15263 0.27506 0.85793 0.0
C461 C 0.13322 0.28654 0.82077 0.0
C462 C 0.11635 0.27096 0.78393 0.0
C463 C 0.11846 0.2448 0.78291 0.0
C464 C 0.09964 0.23254 0.73376 0.0
C465 C 0.11336 0.21731 0.67965 0.0
C466 C 0.08066 0.21585 0.7686 0.0
C467 C 0.08688 0.25589 0.70671 0.0
C468 C 0.09636 0.27784 0.73742 0.0
C469 C 0.08796 0.30181 0.71963 0.0
C470 C 0.06986 0.30341 0.66775 0.0
C471 C 0.06083 0.2812 0.63383 0.0
C472 C 0.06913 0.25718 0.65428 0.0
H473 H 0.29228 0.64625 0.32012 0.0
H474 H 0.21868 0.67893 0.35964 0.0
H475 H 0.19796 0.64503 0.28986 0.0
H476 H 0.27805 0.63153 0.15005 0.0
H477 H 0.29653 0.60278 0.14835 0.0
H478 H 0.30508 0.62829 0.20585 0.0
H479 H 0.30259 0.59734 0.30215 0.0
H480 H 0.29362 0.57182 0.24486 0.0
H481 H 0.27372 0.57986 0.31295 0.0
H482 H 0.18534 0.60759 0.21538 0.0
H483 H 0.18221 0.57372 0.12786 0.0
H484 H 0.26409 0.5675 0.13091 0.0
C485 C 0.27179 0.64613 0.31432 0.0
C486 C 0.25701 0.66503 0.34548 0.0
C487 C 0.23031 0.66461 0.33591 0.0
C488 C 0.21838 0.64532 0.29695 0.0
C489 C 0.23348 0.62682 0.26722 0.0
C490 C 0.25964 0.62737 0.27439 0.0
C491 C 0.27163 0.60664 0.23249 0.0
C492 C 0.28882 0.61799 0.18114 0.0
C493 C 0.28626 0.5878 0.27572 0.0
C494 C 0.24816 0.59446 0.20021 0.0
C495 C 0.2263 0.60599 0.22204 0.0
C496 C 0.20231 0.59834 0.19815 0.0
C497 C 0.20067 0.579 0.14901 0.0
C498 C 0.22289 0.56791 0.12383 0.0
C499 C 0.24686 0.57544 0.15053 0.0
H500 H 0.33733 0.75439 0.75017 0.0
H501 H 0.38157 0.70749 0.61692 0.0
H502 H 0.4201 0.7167 0.68602 0.0
H503 H 0.38562 0.80236 0.78725 0.0
H504 H 0.37714 0.80612 0.8723 0.0
H505 H 0.35342 0.79684 0.81027 0.0
H506 H 0.34293 0.75697 0.87583 0.0
H507 H 0.36654 0.76616 0.93806 0.0
H508 H 0.36801 0.73528 0.89767 0.0
H509 H 0.45395 0.73003 0.77378 0.0
H510 H 0.4788 0.74478 0.87401 0.0
H511 H 0.41195 0.78287 0.94664 0.0
C512 C 0.3551 0.74616 0.73502 0.0
C513 C 0.35629 0.73022 0.67788 0.0
C514 C 0.38005 0.71977 0.66043 0.0
C515 C 0.40211 0.72495 0.69927 0.0
C516 C 0.4002 0.74069 0.75539 0.0
C517 C 0.37725 0.7511 0.77312 0.0
C518 C 0.37991 0.76658 0.83697 0.0
C519 C 0.37366 0.79464 0.82601 0.0
C520 C 0.36337 0.75558 0.89026 0.0
C521 C 0.40785 0.76295 0.85304 0.0
C522 C 0.41941 0.74816 0.80535 0.0
C523 C 0.44508 0.74174 0.81123 0.0
C524 C 0.45909 0.75026 0.86803 0.0
C525 C 0.44725 0.76475 0.91817 0.0
C526 C 0.42147 0.77156 0.90943 0.0
H527 H 0.7456 0.83683 0.23748 0.0
H528 H 0.79873 0.88092 0.12877 0.0
H529 H 0.78676 0.91946 0.19257 0.0
H530 H 0.69691 0.88657 0.25432 0.0
H531 H 0.68968 0.8775 0.33649 0.0
H532 H 0.70044 0.85399 0.27733 0.0
H533 H 0.73713 0.84172 0.35841 0.0
H534 H 0.72641 0.86503 0.41774 0.0
H535 H 0.75861 0.86599 0.39088 0.0
H536 H 0.7718 0.95255 0.2759 0.0
H537 H 0.75664 0.97618 0.37466 0.0
H538 H 0.71294 0.91044 0.4257 0.0
C539 C 0.7545 0.85461 0.22627 0.0
C540 C 0.77312 0.85575 0.17801 0.0
C541 C 0.78441 0.87947 0.16551 0.0
C542 C 0.77764 0.90155 0.20124 0.0
C543 C 0.7594 0.89967 0.24893 0.0
C544 C 0.74797 0.87678 0.26132 0.0
C545 C 0.7303 0.87935 0.31828 0.0
C546 C 0.7027 0.87404 0.2952 0.0
C547 C 0.73863 0.862 0.37464 0.0
C548 C 0.73421 0.90705 0.33746 0.0
C549 C 0.75074 0.91864 0.29643 0.0
C550 C 0.75852 0.94378 0.30775 0.0
C551 C 0.74975 0.95711 0.36364 0.0
C552 C 0.73365 0.9451 0.40752 0.0
C553 C 0.72522 0.92008 0.39278 0.0
H554 H 0.63187 0.28884 0.59962 0.0
H555 H 0.68062 0.22336 0.62599 0.0
H556 H 0.65005 0.20561 0.70156 0.0
H557 H 0.61486 0.2953 0.76586 0.0
H558 H 0.58268 0.30505 0.74787 0.0
H559 H 0.60711 0.31141 0.69083 0.0
H560 H 0.58094 0.28783 0.59744 0.0
H561 H 0.55646 0.28126 0.65443 0.0
H562 H 0.57091 0.2556 0.60844 0.0
H563 H 0.61563 0.19597 0.7782 0.0
H564 H 0.581 0.19642 0.85704 0.0
H565 H 0.55504 0.26868 0.78402 0.0
C566 C 0.63593 0.27059 0.62055 0.0
C567 C 0.65859 0.25743 0.60667 0.0
C568 C 0.66343 0.23383 0.63604 0.0
C569 C 0.6461 0.2235 0.67866 0.0
C570 C 0.62404 0.23703 0.69163 0.0
C571 C 0.61895 0.26013 0.66382 0.0
C572 C 0.59479 0.27167 0.68992 0.0
C573 C 0.6002 0.29737 0.72576 0.0
C574 C 0.57458 0.27423 0.63422 0.0
C575 C 0.58736 0.25166 0.73763 0.0
C576 C 0.60432 0.23168 0.73707 0.0
C577 C 0.60214 0.21143 0.77886 0.0
C578 C 0.58248 0.2119 0.82357 0.0
C579 C 0.56536 0.23258 0.82663 0.0
C580 C 0.56756 0.25242 0.78201 0.0
H581 H 0.24833 0.17185 0.24517 0.0
H582 H 0.21075 0.12354 0.09443 0.0
H583 H 0.22066 0.086 0.16041 0.0
H584 H 0.29879 0.1282 0.28876 0.0
H585 H 0.29839 0.13715 0.37519 0.0
H586 H 0.28948 0.15983 0.31414 0.0
H587 H 0.24636 0.16676 0.36981 0.0
H588 H 0.25508 0.14405 0.43082 0.0
H589 H 0.22613 0.13987 0.38199 0.0
H590 H 0.23372 0.05375 0.24575 0.0
H591 H 0.2479 0.03011 0.34397 0.0
H592 H 0.27644 0.10016 0.43674 0.0
C593 C 0.24236 0.1534 0.22546 0.0
C594 C 0.2288 0.1507 0.16443 0.0
C595 C 0.22117 0.12614 0.14105 0.0
C596 C 0.22675 0.10468 0.17809 0.0
C597 C 0.23995 0.10811 0.23834 0.0
C598 C 0.24764 0.13189 0.26174 0.0
C599 C 0.26073 0.13074 0.32893 0.0
C600 C 0.2885 0.1395 0.32658 0.0
C601 C 0.2462 0.14627 0.38093 0.0
C602 C 0.25897 0.10263 0.34015 0.0
C603 C 0.24712 0.08979 0.28731 0.0
C604 C 0.2431 0.06363 0.28729 0.0
C605 C 0.25126 0.05035 0.34306 0.0
C606 C 0.26305 0.06335 0.39803 0.0
C607 C 0.26713 0.08976 0.39587 0.0
H608 H 0.22312 0.32327 0.95479 0.0
H609 H 0.22477 0.31508 0.16718 0.0
H610 H 0.22005 0.36144 0.18268 0.0
H611 H 0.25804 0.38242 0.95457 0.0
H612 H 0.23911 0.39476 0.88737 0.0
H613 H 0.24359 0.36103 0.8932 0.0
H614 H 0.19486 0.35439 0.89043 0.0
H615 H 0.19023 0.38806 0.88439 0.0
H616 H 0.176 0.37131 0.94983 0.0
H617 H 0.21378 0.40892 0.17481 0.0
H618 H 0.20562 0.45339 0.14307 0.0
H619 H 0.2081 0.4301 0.93683 0.0
C620 C 0.22269 0.33116 0.00468 0.0
C621 C 0.22442 0.31541 0.05974 0.0
C622 C 0.22353 0.32665 0.1241 0.0
C623 C 0.2209 0.35301 0.13347 0.0
C624 C 0.21919 0.36792 0.07807 0.0
C625 C 0.22003 0.35737 0.01494 0.0
C626 C 0.21702 0.37741 0.96354 0.0
C627 C 0.24086 0.379 0.92225 0.0
C628 C 0.19311 0.37249 0.91948 0.0
C629 C 0.21415 0.40088 0.00756 0.0
C630 C 0.21558 0.39508 0.07353 0.0
C631 C 0.21281 0.41369 0.12333 0.0
C632 C 0.20824 0.43881 0.10506 0.0
C633 C 0.20652 0.44486 0.03783 0.0
C634 C 0.20966 0.42578 0.98864 0.0
H635 H 0.18876 0.70782 0.60954 0.0
H636 H 0.18888 0.76327 0.45612 0.0
H637 H 0.1423 0.76067 0.44526 0.0
H638 H 0.14128 0.66875 0.53348 0.0
H639 H 0.12647 0.66064 0.60876 0.0
H640 H 0.15966 0.66867 0.60997 0.0
H641 H 0.15231 0.70395 0.69906 0.0
H642 H 0.11908 0.69595 0.6984 0.0
H643 H 0.12876 0.72802 0.68386 0.0
H644 H 0.09617 0.75037 0.44543 0.0
H645 H 0.05316 0.7323 0.4566 0.0
H646 H 0.08243 0.68286 0.60748 0.0
C647 C 0.17889 0.71979 0.57473 0.0
C648 C 0.19244 0.73587 0.53396 0.0
C649 C 0.1789 0.7508 0.48784 0.0
C650 C 0.15242 0.74953 0.48142 0.0
C651 C 0.13965 0.73315 0.52126 0.0
C652 C 0.15236 0.71852 0.56706 0.0
C653 C 0.13411 0.70124 0.60054 0.0
C654 C 0.14078 0.67317 0.58737 0.0
C655 C 0.13353 0.70768 0.67488 0.0
C656 C 0.1093 0.70822 0.56572 0.0
C657 C 0.11293 0.72685 0.52059 0.0
C658 C 0.09303 0.73593 0.48098 0.0
C659 C 0.06875 0.7256 0.48749 0.0
C660 C 0.06478 0.70644 0.53292 0.0
C661 C 0.08517 0.6977 0.57273 0.0
H662 H 0.78342 0.68284 0.94147 0.0
H663 H 0.77038 0.69162 0.1512 0.0
H664 H 0.77246 0.64521 0.16131 0.0
H665 H 0.74691 0.625 0.91273 0.0
H666 H 0.7688 0.61164 0.85479 0.0
H667 H 0.76533 0.64556 0.86353 0.0
H668 H 0.81366 0.6502 0.88821 0.0
H669 H 0.8173 0.61633 0.87937 0.0
H670 H 0.8283 0.63275 0.95421 0.0
H671 H 0.77725 0.59754 0.14937 0.0
H672 H 0.78533 0.55261 0.11545 0.0
H673 H 0.7952 0.57519 0.91466 0.0
C674 C 0.7808 0.67506 0.9895 0.0
C675 C 0.77666 0.69102 0.04545 0.0
C676 C 0.77357 0.67991 0.10746 0.0
C677 C 0.77466 0.65351 0.11376 0.0
C678 C 0.77884 0.63837 0.05768 0.0
C679 C 0.78189 0.64875 0.99675 0.0
C680 C 0.78695 0.62837 0.94456 0.0
C681 C 0.76573 0.6276 0.89073 0.0
C682 C 0.81311 0.63214 0.91486 0.0
C683 C 0.78646 0.60494 0.98571 0.0
C684 C 0.78163 0.61105 0.05084 0.0
C685 C 0.78088 0.59252 0.09843 0.0
C686 C 0.78543 0.56714 0.07892 0.0
C687 C 0.7906 0.56075 0.01266 0.0
C688 C 0.79098 0.57977 0.96556 0.0
H689 H 0.81715 0.28147 0.52343 0.0
H690 H 0.80832 0.27734 0.30977 0.0
H691 H 0.85446 0.28336 0.30079 0.0
H692 H 0.86455 0.32997 0.53213 0.0
H693 H 0.88168 0.31668 0.60112 0.0
H694 H 0.84804 0.31147 0.5904 0.0
H695 H 0.85528 0.26288 0.59217 0.0
H696 H 0.88897 0.26793 0.60264 0.0
H697 H 0.87663 0.24814 0.53492 0.0
H698 H 0.90193 0.29047 0.31529 0.0
H699 H 0.94651 0.29909 0.35323 0.0
H700 H 0.9238 0.29847 0.55625 0.0
C701 C 0.82484 0.28174 0.47464 0.0
C702 C 0.80898 0.27885 0.41734 0.0
C703 C 0.81997 0.27947 0.35452 0.0
C704 C 0.84621 0.28285 0.34885 0.0
C705 C 0.86125 0.28558 0.40638 0.0
C706 C 0.85093 0.28512 0.46805 0.0
C707 C 0.87109 0.28895 0.52225 0.0
C708 C 0.86603 0.31321 0.5639 0.0
C709 C 0.87311 0.26558 0.56553 0.0
C710 C 0.89438 0.29173 0.48148 0.0
C711 C 0.88838 0.28966 0.41469 0.0
C712 C 0.90684 0.29202 0.36746 0.0
C713 C 0.93202 0.29685 0.38922 0.0
C714 C 0.93826 0.29919 0.4573 0.0
C715 C 0.91933 0.29649 0.50384 0.0
H716 H 0.73051 0.18597 0.53418 0.0
H717 H 0.72925 0.18452 0.32002 0.0
H718 H 0.72529 0.13781 0.31839 0.0
H719 H 0.76647 0.12802 0.55572 0.0
H720 H 0.74851 0.11871 0.62501 0.0
H721 H 0.75252 0.15184 0.60891 0.0
H722 H 0.70372 0.15783 0.60556 0.0
H723 H 0.69955 0.12474 0.6216 0.0
H724 H 0.68432 0.13811 0.54992 0.0
H725 H 0.71975 0.09085 0.34073 0.0
H726 H 0.71284 0.04819 0.38601 0.0
H727 H 0.71762 0.08109 0.58428 0.0
C728 C 0.7297 0.1759 0.48679 0.0
C729 C 0.73032 0.18904 0.42722 0.0
C730 C 0.72889 0.17497 0.36641 0.0
C731 C 0.72666 0.14839 0.36495 0.0
C732 C 0.72589 0.13611 0.42465 0.0
C733 C 0.7274 0.14946 0.48441 0.0
C734 C 0.72526 0.132 0.54167 0.0
C735 C 0.74965 0.13269 0.58539 0.0
C736 C 0.70182 0.13856 0.58204 0.0
C737 C 0.72213 0.10672 0.50491 0.0
C738 C 0.72263 0.10938 0.4374 0.0
C739 C 0.71949 0.08856 0.39349 0.0
C740 C 0.7156 0.06448 0.4194 0.0
C741 C 0.7149 0.06165 0.48824 0.0
C742 C 0.71831 0.08292 0.53134 0.0
H743 H 0.31234 0.22324 0.94435 0.0
H744 H 0.31342 0.24238 0.15397 0.0
H745 H 0.36042 0.24476 0.15443 0.0
H746 H 0.37063 0.18518 0.94489 0.0
H747 H 0.37949 0.1966 0.86612 0.0
H748 H 0.34647 0.19391 0.88496 0.0
H749 H 0.33986 0.24133 0.85925 0.0
H750 H 0.37281 0.24424 0.8408 0.0
H751 H 0.35927 0.26507 0.90239 0.0
H752 H 0.40749 0.24932 0.12778 0.0
H753 H 0.44953 0.25414 0.07725 0.0
H754 H 0.41625 0.23166 0.88649 0.0
C755 C 0.32238 0.22763 0.99074 0.0
C756 C 0.30917 0.23274 0.04913 0.0
C757 C 0.32314 0.23828 0.10869 0.0
C758 C 0.34982 0.2397 0.10934 0.0
C759 C 0.36217 0.2352 0.05024 0.0
C760 C 0.34879 0.22899 0.99226 0.0
C761 C 0.36605 0.22623 0.93451 0.0
C762 C 0.36563 0.19885 0.90596 0.0
C763 C 0.35908 0.24536 0.88114 0.0
C764 C 0.39128 0.23257 0.96838 0.0
C765 C 0.38884 0.23751 0.03527 0.0
C766 C 0.40961 0.24512 0.07571 0.0
C767 C 0.43333 0.24784 0.04682 0.0
C768 C 0.43583 0.24302 0.97848 0.0
C769 C 0.41469 0.23511 0.93913 0.0
H770 H 0.28408 0.82334 0.45854 0.0
H771 H 0.27656 0.81457 0.66907 0.0
H772 H 0.28172 0.86088 0.68716 0.0
H773 H 0.33182 0.87156 0.47112 0.0
H774 H 0.31937 0.8883 0.40112 0.0
H775 H 0.3147 0.85457 0.4052 0.0
H776 H 0.26611 0.86082 0.39072 0.0
H777 H 0.27061 0.89459 0.3868 0.0
H778 H 0.25 0.88201 0.44689 0.0
H779 H 0.28799 0.90864 0.68187 0.0
H780 H 0.29561 0.95342 0.65292 0.0
H781 H 0.29899 0.93019 0.44681 0.0
C782 C 0.28342 0.83106 0.50855 0.0
C783 C 0.27982 0.8152 0.56234 0.0
C784 C 0.27927 0.82625 0.62695 0.0
C785 C 0.28215 0.85256 0.63775 0.0
C786 C 0.28561 0.86759 0.58351 0.0
C787 C 0.28631 0.85719 0.52022 0.0
C788 C 0.29061 0.87731 0.4703 0.0
C789 C 0.31561 0.87265 0.43487 0.0
C790 C 0.26798 0.87876 0.42077 0.0
C791 C 0.29222 0.90072 0.51529 0.0
C792 C 0.28926 0.89481 0.58049 0.0
C793 C 0.29028 0.91346 0.63099 0.0
C794 C 0.29456 0.93875 0.61428 0.0
C795 C 0.29772 0.94491 0.54789 0.0
C796 C 0.29647 0.92576 0.49795 0.0
H797 H 0.68811 0.78607 0.11372 0.0
H798 H 0.69638 0.76609 0.90603 0.0
H799 H 0.65029 0.76884 0.88774 0.0
H800 H 0.62917 0.75164 0.13307 0.0
H801 H 0.61597 0.77556 0.18732 0.0
H802 H 0.64984 0.77134 0.1855 0.0
H803 H 0.65539 0.81877 0.15966 0.0
H804 H 0.62157 0.82315 0.16159 0.0
H805 H 0.63845 0.83153 0.08963 0.0
H806 H 0.60338 0.77441 0.88994 0.0
H807 H 0.55845 0.78379 0.91385 0.0
H808 H 0.5799 0.80035 0.11861 0.0
C809 C 0.68023 0.78215 0.06451 0.0
C810 C 0.69608 0.77585 0.0115 0.0
C811 C 0.68485 0.77103 0.94771 0.0
C812 C 0.65858 0.77245 0.93663 0.0
C813 C 0.64356 0.77873 0.98967 0.0
C814 C 0.65389 0.78357 0.05235 0.0
C815 C 0.63335 0.79059 0.10021 0.0
C816 C 0.63201 0.77112 0.15474 0.0
C817 C 0.63744 0.81762 0.12947 0.0
C818 C 0.61002 0.7891 0.05441 0.0
C819 C 0.61635 0.78207 0.9909 0.0
C820 C 0.59813 0.77982 0.93953 0.0
C821 C 0.57275 0.78511 0.95339 0.0
C822 C 0.56602 0.79254 0.01785 0.0
C823 C 0.58476 0.79444 0.06899 0.0
loop_
_geom_bond_atom_site_label_1
_geom_bond_atom_site_label_2
_geom_bond_distance
_geom_bond_site_symmetry_2
_ccdc_geom_bond_type
Sc0 O3 2.025 . S
Sc0 O10 2.105 . S
Sc0 O13 2.105 . S
Sc0 O16 2.105 . S
Sc0 O19 2.105 . S
Sc1 O3 2.025 . S
Sc1 O11 2.105 . S
Sc1 O15 2.105 1_554 S
Sc1 O17 2.105 . S
Sc1 O21 2.105 1_554 S
Sc2 O3 2.025 1_556 S
Sc2 O12 2.105 . S
Sc2 O14 2.105 . S
Sc2 O18 2.105 . S
Sc2 O20 2.105 . S
O3 Sc0 2.025 . S
O3 Sc1 2.025 . S
O3 Sc2 2.025 1_554 S
C4 O10 1.268 . S
C4 O20 1.268 1_554 S
C5 O11 1.268 . S
C5 O19 1.268 . S
C6 O12 1.268 . S
C6 O21 1.268 . S
C7 O13 1.268 . S
C7 O17 1.268 . S
C8 O14 1.268 1_554 S
C8 O16 1.268 . S
C9 O15 1.268 . S
C9 O18 1.268 . S
O10 Sc0 2.105 . S
O10 C4 1.268 . S
O11 Sc1 2.105 . S
O11 C5 1.268 . S
O12 Sc2 2.105 . S
O12 C6 1.268 . S
O13 Sc0 2.105 . S
O13 C7 1.268 . S
O14 Sc2 2.105 . S
O14 C8 1.268 1_556 S
O15 Sc1 2.105 1_556 S
O15 C9 1.268 . S
O16 Sc0 2.105 . S
O16 C8 1.268 . S
O17 Sc1 2.105 . S
O17 C7 1.268 . S
O18 Sc2 2.105 . S
O18 C9 1.268 . S
O19 Sc0 2.105 . S
O19 C5 1.268 . S
O20 Sc2 2.105 . S
O20 C4 1.268 1_556 S
O21 Sc1 2.105 1_556 S
O21 C6 1.268 . S
Sc22 O25 2.025 . S
Sc22 O32 2.105 . S
Sc22 O35 2.105 . S
Sc22 O38 2.105 . S
Sc22 O41 2.105 . S
Sc23 O25 2.025 . S
Sc23 O33 2.105 . S
Sc23 O37 2.105 . S
Sc23 O39 2.105 . S
Sc23 O43 2.105 . S
Sc24 O25 2.025 . S
Sc24 O34 2.105 . S
Sc24 O36 2.105 . S
Sc24 O40 2.105 . S
Sc24 O42 2.105 . S
O25 Sc22 2.025 . S
O25 Sc23 2.025 . S
O25 Sc24 2.025 . S
C26 O32 1.268 . S
C26 O42 1.268 . S
C27 O33 1.268 . S
C27 O41 1.268 . S
C28 O34 1.268 . S
C28 O43 1.268 . S
C29 O35 1.268 . S
C29 O39 1.268 . S
C30 O36 1.268 . S
C30 O38 1.268 . S
C31 O37 1.268 . S
C31 O40 1.268 . S
O32 Sc22 2.105 . S
O32 C26 1.268 . S
O33 Sc23 2.105 . S
O33 C27 1.268 . S
O34 Sc24 2.105 . S
O34 C28 1.268 . S
O35 Sc22 2.105 . S
O35 C29 1.268 . S
O36 Sc24 2.105 . S
O36 C30 1.268 . S
O37 Sc23 2.105 . S
O37 C31 1.268 . S
O38 Sc22 2.105 . S
O38 C30 1.268 . S
O39 Sc23 2.105 . S
O39 C29 1.268 . S
O40 Sc24 2.105 . S
O40 C31 1.268 . S
O41 Sc22 2.105 . S
O41 C27 1.268 . S
O42 Sc24 2.105 . S
O42 C26 1.268 . S
O43 Sc23 2.105 . S
O43 C28 1.268 . S
Sc44 O47 2.025 1_556 S
Sc44 O54 2.105 . S
Sc44 O57 2.105 . S
Sc44 O60 2.105 . S
Sc44 O63 2.105 . S
Sc45 O47 2.025 . S
Sc45 O55 2.105 1_554 S
Sc45 O59 2.105 . S
Sc45 O61 2.105 1_554 S
Sc45 O65 2.105 . S
Sc46 O47 2.025 . S
Sc46 O56 2.105 . S
Sc46 O58 2.105 . S
Sc46 O62 2.105 . S
Sc46 O64 2.105 . S
O47 Sc44 2.025 1_554 S
O47 Sc45 2.025 . S
O47 Sc46 2.025 . S
C48 O54 1.268 1_554 S
C48 O64 1.268 . S
C49 O55 1.268 . S
C49 O63 1.268 . S
C50 O56 1.268 . S
C50 O65 1.268 . S
C51 O57 1.268 . S
C51 O61 1.268 . S
C52 O58 1.268 . S
C52 O60 1.268 1_554 S
C53 O59 1.268 . S
C53 O62 1.268 . S
O54 Sc44 2.105 . S
O54 C48 1.268 1_556 S
O55 Sc45 2.105 1_556 S
O55 C49 1.268 . S
O56 Sc46 2.105 . S
O56 C50 1.268 . S
O57 Sc44 2.105 . S
O57 C51 1.268 . S
O58 Sc46 2.105 . S
O58 C52 1.268 . S
O59 Sc45 2.105 . S
O59 C53 1.268 . S
O60 Sc44 2.105 . S
O60 C52 1.268 1_556 S
O61 Sc45 2.105 1_556 S
O61 C51 1.268 . S
O62 Sc46 2.105 . S
O62 C53 1.268 . S
O63 Sc44 2.105 . S
O63 C49 1.268 . S
O64 Sc46 2.105 . S
O64 C48 1.268 . S
O65 Sc45 2.105 . S
O65 C50 1.268 . S
Sc66 O69 2.025 . S
Sc66 O76 2.105 . S
Sc66 O79 2.105 . S
Sc66 O82 2.105 . S
Sc66 O85 2.105 . S
Sc67 O69 2.025 . S
Sc67 O77 2.105 . S
Sc67 O81 2.105 . S
Sc67 O83 2.105 . S
Sc67 O87 2.105 . S
Sc68 O69 2.025 . S
Sc68 O78 2.105 . S
Sc68 O80 2.105 . S
Sc68 O84 2.105 . S
Sc68 O86 2.105 . S
O69 Sc66 2.025 . S
O69 Sc67 2.025 . S
O69 Sc68 2.025 . S
C70 O76 1.268 . S
C70 O86 1.268 . S
C71 O77 1.268 . S
C71 O85 1.268 . S
C72 O78 1.268 . S
C72 O87 1.268 . S
C73 O79 1.268 . S
C73 O83 1.268 . S
C74 O80 1.268 . S
C74 O82 1.268 . S
C75 O81 1.268 . S
C75 O84 1.268 . S
O76 Sc66 2.105 . S
O76 C70 1.268 . S
O77 Sc67 2.105 . S
O77 C71 1.268 . S
O78 Sc68 2.105 . S
O78 C72 1.268 . S
O79 Sc66 2.105 . S
O79 C73 1.268 . S
O80 Sc68 2.105 . S
O80 C74 1.268 . S
O81 Sc67 2.105 . S
O81 C75 1.268 . S
O82 Sc66 2.105 . S
O82 C74 1.268 . S
O83 Sc67 2.105 . S
O83 C73 1.268 . S
O84 Sc68 2.105 . S
O84 C75 1.268 . S
O85 Sc66 2.105 . S
O85 C71 1.268 . S
O86 Sc68 2.105 . S
O86 C70 1.268 . S
O87 Sc67 2.105 . S
O87 C72 1.268 . S
H88 C91 0.929 . S
H89 C94 0.929 . S
H90 C96 0.930 . S
C91 H88 0.929 . S
C91 C92 1.398 1_554 S
C91 C93 1.396 . S
C92 C91 1.398 1_556 S
C92 C96 1.407 . S
C93 C91 1.396 . S
C93 C94 1.394 . S
C94 H89 0.929 . S
C94 C93 1.394 . S
C94 C95 1.382 1_554 S
C95 C94 1.382 1_556 S
C95 C96 1.392 . S
C95 N97 1.420 . S
C96 H90 0.930 . S
C96 C92 1.407 . S
C96 C95 1.392 . S
N97 C95 1.420 . S
N97 C98 1.244 1_556 S
C98 N97 1.244 1_554 S
H99 C102 0.929 . S
H100 C105 0.929 . S
H101 C107 0.930 . S
C102 H99 0.929 . S
C102 C103 1.398 . S
C102 C104 1.396 . S
C103 C102 1.398 . S
C103 C107 1.407 . S
C104 C102 1.396 . S
C104 C105 1.394 . S
C105 H100 0.929 . S
C105 C104 1.394 . S
C105 C106 1.396 . S
C106 C105 1.396 . S
C106 C107 1.412 . S
C106 N108 1.387 1_655 S
C107 H101 0.930 . S
C107 C103 1.407 . S
C107 C106 1.412 . S
N108 C106 1.387 1_455 S
N108 C109 1.244 . S
C109 N108 1.244 . S
H110 C113 0.929 . S
H111 C116 0.929 . S
H112 C118 0.930 . S
C113 H110 0.929 . S
C113 C114 1.398 . S
C113 C115 1.396 1_554 S
C114 C113 1.398 . S
C114 C118 1.407 . S
C115 C113 1.396 1_556 S
C115 C116 1.394 . S
C116 H111 0.929 . S
C116 C115 1.394 . S
C116 C117 1.382 1_556 S
C117 C116 1.382 1_554 S
C117 C118 1.392 . S
C117 N119 1.420 . S
C118 H112 0.930 . S
C118 C114 1.407 . S
C118 C117 1.392 . S
N119 C117 1.420 . S
N119 C120 1.244 . S
C120 N119 1.244 . S
H121 C124 0.929 . S
H122 C127 0.929 . S
H123 C129 0.930 . S
C124 H121 0.929 . S
C124 C125 1.398 . S
C124 C126 1.396 . S
C125 C124 1.398 . S
C125 C129 1.407 . S
C126 C124 1.396 . S
C126 C127 1.394 . S
C127 H122 0.929 . S
C127 C126 1.394 . S
C127 C128 1.382 . S
C128 C127 1.382 . S
C128 C129 1.392 . S
C128 N130 1.420 1_455 S
C129 H123 0.930 . S
C129 C125 1.407 . S
C129 C128 1.392 . S
N130 C128 1.420 1_655 S
N130 C131 1.244 . S
C131 N130 1.244 . S
H132 C135 0.929 . S
H133 C138 0.929 . S
H134 C140 0.930 . S
C135 H132 0.929 . S
C135 C136 1.398 . S
C135 C137 1.396 . S
C136 C135 1.398 . S
C136 C140 1.407 . S
C137 C135 1.396 . S
C137 C138 1.394 . S
C138 H133 0.929 . S
C138 C137 1.394 . S
C138 C139 1.382 . S
C139 C138 1.382 . S
C139 C140 1.392 . S
C139 N141 1.420 1_565 S
C140 H134 0.930 . S
C140 C136 1.407 . S
C140 C139 1.392 . S
N141 C139 1.420 1_545 S
N141 C142 1.244 . S
C142 N141 1.244 . S
H143 C146 0.929 . S
H144 C149 0.929 . S
H145 C151 0.930 . S
C146 H143 0.929 . S
C146 C147 1.398 1_554 S
C146 C148 1.396 . S
C147 C146 1.398 1_556 S
C147 C151 1.407 . S
C148 C146 1.396 . S
C148 C149 1.394 . S
C149 H144 0.929 . S
C149 C148 1.394 . S
C149 C150 1.382 1_554 S
C150 C149 1.382 1_556 S
C150 C151 1.392 . S
C150 N152 1.420 . S
C151 H145 0.930 . S
C151 C147 1.407 . S
C151 C150 1.392 . S
N152 C150 1.420 . S
N152 C153 1.244 1_556 S
C153 N152 1.244 1_554 S
H154 C157 0.929 . S
H155 C160 0.929 . S
H156 C162 0.930 . S
C157 H154 0.929 . S
C157 C158 1.398 . S
C157 C159 1.396 . S
C158 C157 1.398 . S
C158 C162 1.407 . S
C159 C157 1.396 . S
C159 C160 1.394 . S
C160 H155 0.929 . S
C160 C159 1.394 . S
C160 C161 1.396 . S
C161 C160 1.396 . S
C161 C162 1.412 . S
C161 N163 1.387 1_545 S
C162 H156 0.930 . S
C162 C158 1.407 . S
C162 C161 1.412 . S
N163 C161 1.387 1_565 S
N163 C164 1.244 . S
C164 N163 1.244 . S
H165 C168 0.929 . S
H166 C171 0.929 . S
H167 C173 0.930 . S
C168 H165 0.929 . S
C168 C169 1.398 . S
C168 C170 1.396 1_554 S
C169 C168 1.398 . S
C169 C173 1.407 . S
C170 C168 1.396 1_556 S
C170 C171 1.394 . S
C171 H166 0.929 . S
C171 C170 1.394 . S
C171 C172 1.382 1_556 S
C172 C171 1.382 1_554 S
C172 C173 1.392 . S
C172 N174 1.420 . S
C173 H167 0.930 . S
C173 C169 1.407 . S
C173 C172 1.392 . S
N174 C172 1.420 . S
N174 C175 1.244 . S
C175 N174 1.244 . S
H176 C188 0.930 . S
H177 C190 0.930 . S
H178 C191 0.930 . S
H179 C195 0.959 . S
H180 C195 0.959 . S
H181 C195 0.961 . S
H182 C196 0.960 . S
H183 C196 0.961 . S
H184 C196 0.959 . S
H185 C199 0.929 . S
H186 C200 0.931 . S
H187 C202 0.930 . S
C188 H176 0.930 . S
C188 C189 1.399 . S
C188 C193 1.399 . S
C189 C188 1.399 . S
C189 C190 1.376 . S
C190 H177 0.930 . S
C190 C189 1.376 . S
C190 C191 1.388 . S
C191 H178 0.930 . S
C191 C190 1.388 . S
C191 C192 1.390 . S
C192 C191 1.390 . S
C192 C193 1.394 . S
C192 C198 1.465 . S
C193 C188 1.399 . S
C193 C192 1.394 . S
C193 C194 1.516 . S
C194 C193 1.516 . S
C194 C195 1.502 . S
C194 C196 1.561 . S
C194 C197 1.526 . S
C195 H179 0.959 . S
C195 H180 0.959 . S
C195 H181 0.961 . S
C195 C194 1.502 . S
C196 H182 0.960 . S
C196 H183 0.961 . S
C196 H184 0.959 . S
C196 C194 1.561 . S
C197 C194 1.526 . S
C197 C198 1.396 . S
C197 C202 1.390 . S
C198 C192 1.465 . S
C198 C197 1.396 . S
C198 C199 1.399 . S
C199 H185 0.929 . S
C199 C198 1.399 . S
C199 C200 1.385 . S
C200 H186 0.931 . S
C200 C199 1.385 . S
C200 C201 1.389 . S
C201 C200 1.389 . S
C201 C202 1.387 . S
C202 H187 0.930 . S
C202 C197 1.390 . S
C202 C201 1.387 . S
H203 C215 0.930 . S
H204 C217 0.930 . S
H205 C218 0.930 . S
H206 C222 0.959 . S
H207 C222 0.959 . S
H208 C222 0.961 . S
H209 C223 0.960 . S
H210 C223 0.961 . S
H211 C223 0.959 . S
H212 C226 0.929 . S
H213 C227 0.931 . S
H214 C229 0.930 . S
C215 H203 0.930 . S
C215 C216 1.399 . S
C215 C220 1.399 . S
C216 C215 1.399 . S
C216 C217 1.376 . S
C217 H204 0.930 . S
C217 C216 1.376 . S
C217 C218 1.388 . S
C218 H205 0.930 . S
C218 C217 1.388 . S
C218 C219 1.390 . S
C219 C218 1.390 . S
C219 C220 1.394 . S
C219 C225 1.465 . S
C220 C215 1.399 . S
C220 C219 1.394 . S
C220 C221 1.516 . S
C221 C220 1.516 . S
C221 C222 1.502 . S
C221 C223 1.561 . S
C221 C224 1.526 . S
C222 H206 0.959 . S
C222 H207 0.959 . S
C222 H208 0.961 . S
C222 C221 1.502 . S
C223 H209 0.960 . S
C223 H210 0.961 . S
C223 H211 0.959 . S
C223 C221 1.561 . S
C224 C221 1.526 . S
C224 C225 1.396 . S
C224 C229 1.390 . S
C225 C219 1.465 . S
C225 C224 1.396 . S
C225 C226 1.399 . S
C226 H212 0.929 . S
C226 C225 1.399 . S
C226 C227 1.385 . S
C227 H213 0.931 . S
C227 C226 1.385 . S
C227 C228 1.389 . S
C228 C227 1.389 . S
C228 C229 1.387 . S
C229 H214 0.930 . S
C229 C224 1.390 . S
C229 C228 1.387 . S
H230 C242 0.930 . S
H231 C244 0.930 . S
H232 C245 0.930 . S
H233 C249 0.959 . S
H234 C249 0.959 . S
H235 C249 0.961 . S
H236 C250 0.960 . S
H237 C250 0.961 . S
H238 C250 0.959 . S
H239 C253 0.929 . S
H240 C254 0.931 . S
H241 C256 0.930 . S
C242 H230 0.930 . S
C242 C243 1.399 . S
C242 C247 1.399 . S
C243 C242 1.399 . S
C243 C244 1.376 . S
C244 H231 0.930 . S
C244 C243 1.376 . S
C244 C245 1.388 . S
C245 H232 0.930 . S
C245 C244 1.388 . S
C245 C246 1.390 . S
C246 C245 1.390 . S
C246 C247 1.394 . S
C246 C252 1.465 . S
C247 C242 1.399 . S
C247 C246 1.394 . S
C247 C248 1.516 . S
C248 C247 1.516 . S
C248 C249 1.502 . S
C248 C250 1.561 . S
C248 C251 1.526 . S
C249 H233 0.959 . S
C249 H234 0.959 . S
C249 H235 0.961 . S
C249 C248 1.502 . S
C250 H236 0.960 . S
C250 H237 0.961 . S
C250 H238 0.959 . S
C250 C248 1.561 . S
C251 C248 1.526 . S
C251 C252 1.396 . S
C251 C256 1.390 . S
C252 C246 1.465 . S
C252 C251 1.396 . S
C252 C253 1.399 . S
C253 H239 0.929 . S
C253 C252 1.399 . S
C253 C254 1.385 . S
C254 H240 0.931 . S
C254 C253 1.385 . S
C254 C255 1.389 . S
C255 C254 1.389 . S
C255 C256 1.387 . S
C256 H241 0.930 . S
C256 C251 1.390 . S
C256 C255 1.387 . S
H257 C269 0.930 . S
H258 C271 0.930 . S
H259 C272 0.930 . S
H260 C276 0.959 . S
H261 C276 0.959 . S
H262 C276 0.961 . S
H263 C277 0.960 . S
H264 C277 0.961 . S
H265 C277 0.959 . S
H266 C280 0.929 . S
H267 C281 0.931 . S
H268 C283 0.930 . S
C269 H257 0.930 . S
C269 C270 1.399 . S
C269 C274 1.399 . S
C270 C269 1.399 . S
C270 C271 1.376 . S
C271 H258 0.930 . S
C271 C270 1.376 . S
C271 C272 1.388 . S
C272 H259 0.930 . S
C272 C271 1.388 . S
C272 C273 1.390 . S
C273 C272 1.390 . S
C273 C274 1.394 . S
C273 C279 1.465 . S
C274 C269 1.399 . S
C274 C273 1.394 . S
C274 C275 1.516 . S
C275 C274 1.516 . S
C275 C276 1.502 . S
C275 C277 1.561 . S
C275 C278 1.526 . S
C276 H260 0.959 . S
C276 H261 0.959 . S
C276 H262 0.961 . S
C276 C275 1.502 . S
C277 H263 0.960 . S
C277 H264 0.961 . S
C277 H265 0.959 . S
C277 C275 1.561 . S
C278 C275 1.526 . S
C278 C279 1.396 . S
C278 C283 1.390 . S
C279 C273 1.465 . S
C279 C278 1.396 . S
C279 C280 1.399 . S
C280 H266 0.929 . S
C280 C279 1.399 . S
C280 C281 1.385 . S
C281 H267 0.931 . S
C281 C280 1.385 . S
C281 C282 1.389 . S
C282 C281 1.389 . S
C282 C283 1.387 . S
C283 H268 0.930 . S
C283 C278 1.390 . S
C283 C282 1.387 . S
H284 C296 0.930 . S
H285 C298 0.930 . S
H286 C299 0.930 . S
H287 C303 0.959 . S
H288 C303 0.959 . S
H289 C303 0.961 . S
H290 C304 0.960 . S
H291 C304 0.961 . S
H292 C304 0.959 . S
H293 C307 0.929 . S
H294 C308 0.931 . S
H295 C310 0.930 . S
C296 H284 0.930 . S
C296 C297 1.399 . S
C296 C301 1.399 . S
C297 C296 1.399 . S
C297 C298 1.376 . S
C298 H285 0.930 . S
C298 C297 1.376 . S
C298 C299 1.388 . S
C299 H286 0.930 . S
C299 C298 1.388 . S
C299 C300 1.390 . S
C300 C299 1.390 . S
C300 C301 1.394 . S
C300 C306 1.465 . S
C301 C296 1.399 . S
C301 C300 1.394 . S
C301 C302 1.516 . S
C302 C301 1.516 . S
C302 C303 1.502 . S
C302 C304 1.561 . S
C302 C305 1.526 . S
C303 H287 0.959 . S
C303 H288 0.959 . S
C303 H289 0.961 . S
C303 C302 1.502 . S
C304 H290 0.960 . S
C304 H291 0.961 . S
C304 H292 0.959 . S
C304 C302 1.561 . S
C305 C302 1.526 . S
C305 C306 1.396 . S
C305 C310 1.390 . S
C306 C300 1.465 . S
C306 C305 1.396 . S
C306 C307 1.399 . S
C307 H293 0.929 . S
C307 C306 1.399 . S
C307 C308 1.385 . S
C308 H294 0.931 . S
C308 C307 1.385 . S
C308 C309 1.389 . S
C309 C308 1.389 . S
C309 C310 1.387 . S
C310 H295 0.930 . S
C310 C305 1.390 . S
C310 C309 1.387 . S
H311 C323 0.930 . S
H312 C325 0.930 . S
H313 C326 0.930 . S
H314 C330 0.959 . S
H315 C330 0.959 . S
H316 C330 0.961 . S
H317 C331 0.960 . S
H318 C331 0.961 . S
H319 C331 0.959 . S
H320 C334 0.929 . S
H321 C335 0.931 . S
H322 C337 0.930 . S
C323 H311 0.930 . S
C323 C324 1.399 . S
C323 C328 1.399 . S
C324 C323 1.399 . S
C324 C325 1.376 . S
C325 H312 0.930 . S
C325 C324 1.376 . S
C325 C326 1.388 . S
C326 H313 0.930 . S
C326 C325 1.388 . S
C326 C327 1.390 . S
C327 C326 1.390 . S
C327 C328 1.394 . S
C327 C333 1.465 . S
C328 C323 1.399 . S
C328 C327 1.394 . S
C328 C329 1.516 . S
C329 C328 1.516 . S
C329 C330 1.502 . S
C329 C331 1.561 . S
C329 C332 1.526 . S
C330 H314 0.959 . S
C330 H315 0.959 . S
C330 H316 0.961 . S
C330 C329 1.502 . S
C331 H317 0.960 . S
C331 H318 0.961 . S
C331 H319 0.959 . S
C331 C329 1.561 . S
C332 C329 1.526 . S
C332 C333 1.396 . S
C332 C337 1.390 . S
C333 C327 1.465 . S
C333 C332 1.396 . S
C333 C334 1.399 . S
C334 H320 0.929 . S
C334 C333 1.399 . S
C334 C335 1.385 . S
C335 H321 0.931 . S
C335 C334 1.385 . S
C335 C336 1.389 . S
C336 C335 1.389 . S
C336 C337 1.387 . S
C337 H322 0.930 . S
C337 C332 1.390 . S
C337 C336 1.387 . S
H338 C350 0.930 . S
H339 C352 0.930 . S
H340 C353 0.930 . S
H341 C357 0.959 . S
H342 C357 0.959 . S
H343 C357 0.961 . S
H344 C358 0.960 . S
H345 C358 0.961 . S
H346 C358 0.959 . S
H347 C361 0.929 . S
H348 C362 0.931 . S
H349 C364 0.930 . S
C350 H338 0.930 . S
C350 C351 1.399 . S
C350 C355 1.399 . S
C351 C350 1.399 . S
C351 C352 1.376 . S
C352 H339 0.930 . S
C352 C351 1.376 . S
C352 C353 1.388 . S
C353 H340 0.930 . S
C353 C352 1.388 . S
C353 C354 1.390 . S
C354 C353 1.390 . S
C354 C355 1.394 . S
C354 C360 1.465 . S
C355 C350 1.399 . S
C355 C354 1.394 . S
C355 C356 1.516 . S
C356 C355 1.516 . S
C356 C357 1.502 . S
C356 C358 1.561 . S
C356 C359 1.526 . S
C357 H341 0.959 . S
C357 H342 0.959 . S
C357 H343 0.961 . S
C357 C356 1.502 . S
C358 H344 0.960 . S
C358 H345 0.961 . S
C358 H346 0.959 . S
C358 C356 1.561 . S
C359 C356 1.526 . S
C359 C360 1.396 . S
C359 C364 1.390 . S
C360 C354 1.465 . S
C360 C359 1.396 . S
C360 C361 1.399 . S
C361 H347 0.929 . S
C361 C360 1.399 . S
C361 C362 1.385 . S
C362 H348 0.931 . S
C362 C361 1.385 . S
C362 C363 1.389 . S
C363 C362 1.389 . S
C363 C364 1.387 . S
C364 H349 0.930 . S
C364 C359 1.390 . S
C364 C363 1.387 . S
H365 C377 0.930 . S
H366 C379 0.930 . S
H367 C380 0.930 . S
H368 C384 0.959 . S
H369 C384 0.959 . S
H370 C384 0.961 . S
H371 C385 0.960 . S
H372 C385 0.961 . S
H373 C385 0.959 . S
H374 C388 0.929 . S
H375 C389 0.931 . S
H376 C391 0.930 . S
C377 H365 0.930 . S
C377 C378 1.399 . S
C377 C382 1.399 . S
C378 C377 1.399 . S
C378 C379 1.376 . S
C379 H366 0.930 . S
C379 C378 1.376 . S
C379 C380 1.388 . S
C380 H367 0.930 . S
C380 C379 1.388 . S
C380 C381 1.390 . S
C381 C380 1.390 . S
C381 C382 1.394 . S
C381 C387 1.465 . S
C382 C377 1.399 . S
C382 C381 1.394 . S
C382 C383 1.516 . S
C383 C382 1.516 . S
C383 C384 1.502 . S
C383 C385 1.561 . S
C383 C386 1.526 . S
C384 H368 0.959 . S
C384 H369 0.959 . S
C384 H370 0.961 . S
C384 C383 1.502 . S
C385 H371 0.960 . S
C385 H372 0.961 . S
C385 H373 0.959 . S
C385 C383 1.561 . S
C386 C383 1.526 . S
C386 C387 1.396 . S
C386 C391 1.390 . S
C387 C381 1.465 . S
C387 C386 1.396 . S
C387 C388 1.399 . S
C388 H374 0.929 . S
C388 C387 1.399 . S
C388 C389 1.385 . S
C389 H375 0.931 . S
C389 C388 1.385 . S
C389 C390 1.389 . S
C390 C389 1.389 . S
C390 C391 1.387 . S
C391 H376 0.930 . S
C391 C386 1.390 . S
C391 C390 1.387 . S
H392 C404 0.930 . S
H393 C406 0.930 . S
H394 C407 0.930 . S
H395 C411 0.959 . S
H396 C411 0.959 . S
H397 C411 0.961 . S
H398 C412 0.960 . S
H399 C412 0.961 . S
H400 C412 0.959 . S
H401 C415 0.929 . S
H402 C416 0.931 . S
H403 C418 0.930 . S
C404 H392 0.930 . S
C404 C405 1.399 . S
C404 C409 1.399 . S
C405 C404 1.399 . S
C405 C406 1.376 . S
C406 H393 0.930 . S
C406 C405 1.376 . S
C406 C407 1.388 . S
C407 H394 0.930 . S
C407 C406 1.388 . S
C407 C408 1.390 . S
C408 C407 1.390 . S
C408 C409 1.394 . S
C408 C414 1.465 . S
C409 C404 1.399 . S
C409 C408 1.394 . S
C409 C410 1.516 . S
C410 C409 1.516 . S
C410 C411 1.502 . S
C410 C412 1.561 . S
C410 C413 1.526 . S
C411 H395 0.959 . S
C411 H396 0.959 . S
C411 H397 0.961 . S
C411 C410 1.502 . S
C412 H398 0.960 . S
C412 H399 0.961 . S
C412 H400 0.959 . S
C412 C410 1.561 . S
C413 C410 1.526 . S
C413 C414 1.396 . S
C413 C418 1.390 . S
C414 C408 1.465 . S
C414 C413 1.396 . S
C414 C415 1.399 . S
C415 H401 0.929 . S
C415 C414 1.399 . S
C415 C416 1.385 . S
C416 H402 0.931 . S
C416 C415 1.385 . S
C416 C417 1.389 . S
C417 C416 1.389 . S
C417 C418 1.387 . S
C418 H403 0.930 . S
C418 C413 1.390 . S
C418 C417 1.387 . S
H419 C431 0.930 . S
H420 C433 0.930 . S
H421 C434 0.930 . S
H422 C438 0.959 . S
H423 C438 0.959 . S
H424 C438 0.961 . S
H425 C439 0.960 . S
H426 C439 0.961 . S
H427 C439 0.959 . S
H428 C442 0.929 . S
H429 C443 0.931 . S
H430 C445 0.930 . S
C431 H419 0.930 . S
C431 C432 1.399 . S
C431 C436 1.399 . S
C432 C431 1.399 . S
C432 C433 1.376 . S
C433 H420 0.930 . S
C433 C432 1.376 . S
C433 C434 1.388 . S
C434 H421 0.930 . S
C434 C433 1.388 . S
C434 C435 1.390 . S
C435 C434 1.390 . S
C435 C436 1.394 . S
C435 C441 1.465 . S
C436 C431 1.399 . S
C436 C435 1.394 . S
C436 C437 1.516 . S
C437 C436 1.516 . S
C437 C438 1.502 . S
C437 C439 1.561 . S
C437 C440 1.526 . S
C438 H422 0.959 . S
C438 H423 0.959 . S
C438 H424 0.961 . S
C438 C437 1.502 . S
C439 H425 0.960 . S
C439 H426 0.961 . S
C439 H427 0.959 . S
C439 C437 1.561 . S
C440 C437 1.526 . S
C440 C441 1.396 . S
C440 C445 1.390 . S
C441 C435 1.465 . S
C441 C440 1.396 . S
C441 C442 1.399 . S
C442 H428 0.929 . S
C442 C441 1.399 . S
C442 C443 1.385 . S
C443 H429 0.931 . S
C443 C442 1.385 . S
C443 C444 1.389 . S
C444 C443 1.389 . S
C444 C445 1.387 . S
C445 H430 0.930 . S
C445 C440 1.390 . S
C445 C444 1.387 . S
H446 C458 0.930 . S
H447 C460 0.930 . S
H448 C461 0.930 . S
H449 C465 0.959 . S
H450 C465 0.959 . S
H451 C465 0.961 . S
H452 C466 0.960 . S
H453 C466 0.961 . S
H454 C466 0.959 . S
H455 C469 0.929 . S
H456 C470 0.931 . S
H457 C472 0.930 . S
C458 H446 0.930 . S
C458 C459 1.399 . S
C458 C463 1.399 . S
C459 C458 1.399 . S
C459 C460 1.376 . S
C460 H447 0.930 . S
C460 C459 1.376 . S
C460 C461 1.388 . S
C461 H448 0.930 . S
C461 C460 1.388 . S
C461 C462 1.390 . S
C462 C461 1.390 . S
C462 C463 1.394 . S
C462 C468 1.465 . S
C463 C458 1.399 . S
C463 C462 1.394 . S
C463 C464 1.516 . S
C464 C463 1.516 . S
C464 C465 1.502 . S
C464 C466 1.561 . S
C464 C467 1.526 . S
C465 H449 0.959 . S
C465 H450 0.959 . S
C465 H451 0.961 . S
C465 C464 1.502 . S
C466 H452 0.960 . S
C466 H453 0.961 . S
C466 H454 0.959 . S
C466 C464 1.561 . S
C467 C464 1.526 . S
C467 C468 1.396 . S
C467 C472 1.390 . S
C468 C462 1.465 . S
C468 C467 1.396 . S
C468 C469 1.399 . S
C469 H455 0.929 . S
C469 C468 1.399 . S
C469 C470 1.385 . S
C470 H456 0.931 . S
C470 C469 1.385 . S
C470 C471 1.389 . S
C471 C470 1.389 . S
C471 C472 1.387 . S
C472 H457 0.930 . S
C472 C467 1.390 . S
C472 C471 1.387 . S
H473 C485 0.930 . S
H474 C487 0.930 . S
H475 C488 0.930 . S
H476 C492 0.959 . S
H477 C492 0.959 . S
H478 C492 0.961 . S
H479 C493 0.960 . S
H480 C493 0.961 . S
H481 C493 0.959 . S
H482 C496 0.929 . S
H483 C497 0.931 . S
H484 C499 0.930 . S
C485 H473 0.930 . S
C485 C486 1.399 . S
C485 C490 1.399 . S
C486 C485 1.399 . S
C486 C487 1.376 . S
C487 H474 0.930 . S
C487 C486 1.376 . S
C487 C488 1.388 . S
C488 H475 0.930 . S
C488 C487 1.388 . S
C488 C489 1.390 . S
C489 C488 1.390 . S
C489 C490 1.394 . S
C489 C495 1.465 . S
C490 C485 1.399 . S
C490 C489 1.394 . S
C490 C491 1.516 . S
C491 C490 1.516 . S
C491 C492 1.502 . S
C491 C493 1.561 . S
C491 C494 1.526 . S
C492 H476 0.959 . S
C492 H477 0.959 . S
C492 H478 0.961 . S
C492 C491 1.502 . S
C493 H479 0.960 . S
C493 H480 0.961 . S
C493 H481 0.959 . S
C493 C491 1.561 . S
C494 C491 1.526 . S
C494 C495 1.396 . S
C494 C499 1.390 . S
C495 C489 1.465 . S
C495 C494 1.396 . S
C495 C496 1.399 . S
C496 H482 0.929 . S
C496 C495 1.399 . S
C496 C497 1.385 . S
C497 H483 0.931 . S
C497 C496 1.385 . S
C497 C498 1.389 . S
C498 C497 1.389 . S
C498 C499 1.387 . S
C499 H484 0.930 . S
C499 C494 1.390 . S
C499 C498 1.387 . S
H500 C512 0.930 . S
H501 C514 0.930 . S
H502 C515 0.930 . S
H503 C519 0.959 . S
H504 C519 0.959 . S
H505 C519 0.961 . S
H506 C520 0.960 . S
H507 C520 0.961 . S
H508 C520 0.959 . S
H509 C523 0.929 . S
H510 C524 0.931 . S
H511 C526 0.930 . S
C512 H500 0.930 . S
C512 C513 1.399 . S
C512 C517 1.399 . S
C513 C512 1.399 . S
C513 C514 1.376 . S
C514 H501 0.930 . S
C514 C513 1.376 . S
C514 C515 1.388 . S
C515 H502 0.930 . S
C515 C514 1.388 . S
C515 C516 1.390 . S
C516 C515 1.390 . S
C516 C517 1.394 . S
C516 C522 1.465 . S
C517 C512 1.399 . S
C517 C516 1.394 . S
C517 C518 1.516 . S
C518 C517 1.516 . S
C518 C519 1.502 . S
C518 C520 1.561 . S
C518 C521 1.526 . S
C519 H503 0.959 . S
C519 H504 0.959 . S
C519 H505 0.961 . S
C519 C518 1.502 . S
C520 H506 0.960 . S
C520 H507 0.961 . S
C520 H508 0.959 . S
C520 C518 1.561 . S
C521 C518 1.526 . S
C521 C522 1.396 . S
C521 C526 1.390 . S
C522 C516 1.465 . S
C522 C521 1.396 . S
C522 C523 1.399 . S
C523 H509 0.929 . S
C523 C522 1.399 . S
C523 C524 1.385 . S
C524 H510 0.931 . S
C524 C523 1.385 . S
C524 C525 1.389 . S
C525 C524 1.389 . S
C525 C526 1.387 . S
C526 H511 0.930 . S
C526 C521 1.390 . S
C526 C525 1.387 . S
H527 C539 0.930 . S
H528 C541 0.930 . S
H529 C542 0.930 . S
H530 C546 0.959 . S
H531 C546 0.959 . S
H532 C546 0.961 . S
H533 C547 0.960 . S
H534 C547 0.961 . S
H535 C547 0.959 . S
H536 C550 0.929 . S
H537 C551 0.931 . S
H538 C553 0.930 . S
C539 H527 0.930 . S
C539 C540 1.399 . S
C539 C544 1.399 . S
C540 C539 1.399 . S
C540 C541 1.376 . S
C541 H528 0.930 . S
C541 C540 1.376 . S
C541 C542 1.388 . S
C542 H529 0.930 . S
C542 C541 1.388 . S
C542 C543 1.390 . S
C543 C542 1.390 . S
C543 C544 1.394 . S
C543 C549 1.465 . S
C544 C539 1.399 . S
C544 C543 1.394 . S
C544 C545 1.516 . S
C545 C544 1.516 . S
C545 C546 1.502 . S
C545 C547 1.561 . S
C545 C548 1.526 . S
C546 H530 0.959 . S
C546 H531 0.959 . S
C546 H532 0.961 . S
C546 C545 1.502 . S
C547 H533 0.960 . S
C547 H534 0.961 . S
C547 H535 0.959 . S
C547 C545 1.561 . S
C548 C545 1.526 . S
C548 C549 1.396 . S
C548 C553 1.390 . S
C549 C543 1.465 . S
C549 C548 1.396 . S
C549 C550 1.399 . S
C550 H536 0.929 . S
C550 C549 1.399 . S
C550 C551 1.385 . S
C551 H537 0.931 . S
C551 C550 1.385 . S
C551 C552 1.389 . S
C552 C551 1.389 . S
C552 C553 1.387 . S
C553 H538 0.930 . S
C553 C548 1.390 . S
C553 C552 1.387 . S
H554 C566 0.930 . S
H555 C568 0.930 . S
H556 C569 0.930 . S
H557 C573 0.959 . S
H558 C573 0.959 . S
H559 C573 0.961 . S
H560 C574 0.960 . S
H561 C574 0.961 . S
H562 C574 0.959 . S
H563 C577 0.929 . S
H564 C578 0.931 . S
H565 C580 0.930 . S
C566 H554 0.930 . S
C566 C567 1.399 . S
C566 C571 1.399 . S
C567 C566 1.399 . S
C567 C568 1.376 . S
C568 H555 0.930 . S
C568 C567 1.376 . S
C568 C569 1.388 . S
C569 H556 0.930 . S
C569 C568 1.388 . S
C569 C570 1.390 . S
C570 C569 1.390 . S
C570 C571 1.394 . S
C570 C576 1.465 . S
C571 C566 1.399 . S
C571 C570 1.394 . S
C571 C572 1.516 . S
C572 C571 1.516 . S
C572 C573 1.502 . S
C572 C574 1.561 . S
C572 C575 1.526 . S
C573 H557 0.959 . S
C573 H558 0.959 . S
C573 H559 0.961 . S
C573 C572 1.502 . S
C574 H560 0.960 . S
C574 H561 0.961 . S
C574 H562 0.959 . S
C574 C572 1.561 . S
C575 C572 1.526 . S
C575 C576 1.396 . S
C575 C580 1.390 . S
C576 C570 1.465 . S
C576 C575 1.396 . S
C576 C577 1.399 . S
C577 H563 0.929 . S
C577 C576 1.399 . S
C577 C578 1.385 . S
C578 H564 0.931 . S
C578 C577 1.385 . S
C578 C579 1.389 . S
C579 C578 1.389 . S
C579 C580 1.387 . S
C580 H565 0.930 . S
C580 C575 1.390 . S
C580 C579 1.387 . S
H581 C593 0.930 . S
H582 C595 0.930 . S
H583 C596 0.930 . S
H584 C600 0.959 . S
H585 C600 0.959 . S
H586 C600 0.961 . S
H587 C601 0.960 . S
H588 C601 0.961 . S
H589 C601 0.959 . S
H590 C604 0.929 . S
H591 C605 0.931 . S
H592 C607 0.930 . S
C593 H581 0.930 . S
C593 C594 1.399 . S
C593 C598 1.399 . S
C594 C593 1.399 . S
C594 C595 1.376 . S
C595 H582 0.930 . S
C595 C594 1.376 . S
C595 C596 1.388 . S
C596 H583 0.930 . S
C596 C595 1.388 . S
C596 C597 1.390 . S
C597 C596 1.390 . S
C597 C598 1.394 . S
C597 C603 1.465 . S
C598 C593 1.399 . S
C598 C597 1.394 . S
C598 C599 1.516 . S
C599 C598 1.516 . S
C599 C600 1.502 . S
C599 C601 1.561 . S
C599 C602 1.526 . S
C600 H584 0.959 . S
C600 H585 0.959 . S
C600 H586 0.961 . S
C600 C599 1.502 . S
C601 H587 0.960 . S
C601 H588 0.961 . S
C601 H589 0.959 . S
C601 C599 1.561 . S
C602 C599 1.526 . S
C602 C603 1.396 . S
C602 C607 1.390 . S
C603 C597 1.465 . S
C603 C602 1.396 . S
C603 C604 1.399 . S
C604 H590 0.929 . S
C604 C603 1.399 . S
C604 C605 1.385 . S
C605 H591 0.931 . S
C605 C604 1.385 . S
C605 C606 1.389 . S
C606 C605 1.389 . S
C606 C607 1.387 . S
C607 H592 0.930 . S
C607 C602 1.390 . S
C607 C606 1.387 . S
H608 C620 0.930 . S
H609 C622 0.930 . S
H610 C623 0.930 . S
H611 C627 0.959 . S
H612 C627 0.959 . S
H613 C627 0.961 . S
H614 C628 0.960 . S
H615 C628 0.961 . S
H616 C628 0.959 . S
H617 C631 0.929 . S
H618 C632 0.931 . S
H619 C634 0.930 . S
C620 H608 0.930 . S
C620 C621 1.399 1_556 S
C620 C625 1.399 . S
C621 C620 1.399 1_554 S
C621 C622 1.376 . S
C622 H609 0.930 . S
C622 C621 1.376 . S
C622 C623 1.388 . S
C623 H610 0.930 . S
C623 C622 1.388 . S
C623 C624 1.390 . S
C624 C623 1.390 . S
C624 C625 1.394 1_554 S
C624 C630 1.465 . S
C625 C620 1.399 . S
C625 C624 1.394 1_556 S
C625 C626 1.516 . S
C626 C625 1.516 . S
C626 C627 1.502 . S
C626 C628 1.561 . S
C626 C629 1.526 . S
C627 H611 0.959 . S
C627 H612 0.959 . S
C627 H613 0.961 . S
C627 C626 1.502 . S
C628 H614 0.960 . S
C628 H615 0.961 . S
C628 H616 0.959 . S
C628 C626 1.561 . S
C629 C626 1.526 . S
C629 C630 1.396 1_556 S
C629 C634 1.390 . S
C630 C624 1.465 . S
C630 C629 1.396 1_554 S
C630 C631 1.399 . S
C631 H617 0.929 . S
C631 C630 1.399 . S
C631 C632 1.385 . S
C632 H618 0.931 . S
C632 C631 1.385 . S
C632 C633 1.389 . S
C633 C632 1.389 . S
C633 C634 1.387 1_554 S
C634 H619 0.930 . S
C634 C629 1.390 . S
C634 C633 1.387 1_556 S
H635 C647 0.930 . S
H636 C649 0.930 . S
H637 C650 0.930 . S
H638 C654 0.959 . S
H639 C654 0.959 . S
H640 C654 0.961 . S
H641 C655 0.960 . S
H642 C655 0.961 . S
H643 C655 0.959 . S
H644 C658 0.929 . S
H645 C659 0.931 . S
H646 C661 0.930 . S
C647 H635 0.930 . S
C647 C648 1.399 . S
C647 C652 1.399 . S
C648 C647 1.399 . S
C648 C649 1.376 . S
C649 H636 0.930 . S
C649 C648 1.376 . S
C649 C650 1.388 . S
C650 H637 0.930 . S
C650 C649 1.388 . S
C650 C651 1.390 . S
C651 C650 1.390 . S
C651 C652 1.394 . S
C651 C657 1.465 . S
C652 C647 1.399 . S
C652 C651 1.394 . S
C652 C653 1.516 . S
C653 C652 1.516 . S
C653 C654 1.502 . S
C653 C655 1.561 . S
C653 C656 1.526 . S
C654 H638 0.959 . S
C654 H639 0.959 . S
C654 H640 0.961 . S
C654 C653 1.502 . S
C655 H641 0.960 . S
C655 H642 0.961 . S
C655 H643 0.959 . S
C655 C653 1.561 . S
C656 C653 1.526 . S
C656 C657 1.396 . S
C656 C661 1.390 . S
C657 C651 1.465 . S
C657 C656 1.396 . S
C657 C658 1.399 . S
C658 H644 0.929 . S
C658 C657 1.399 . S
C658 C659 1.385 . S
C659 H645 0.931 . S
C659 C658 1.385 . S
C659 C660 1.389 . S
C660 C659 1.389 . S
C660 C661 1.387 . S
C661 H646 0.930 . S
C661 C656 1.390 . S
C661 C660 1.387 . S
H662 C674 0.930 . S
H663 C676 0.930 . S
H664 C677 0.930 . S
H665 C681 0.959 . S
H666 C681 0.959 . S
H667 C681 0.961 . S
H668 C682 0.960 . S
H669 C682 0.961 . S
H670 C682 0.959 . S
H671 C685 0.929 . S
H672 C686 0.931 . S
H673 C688 0.930 . S
C674 H662 0.930 . S
C674 C675 1.399 1_556 S
C674 C679 1.399 . S
C675 C674 1.399 1_554 S
C675 C676 1.376 . S
C676 H663 0.930 . S
C676 C675 1.376 . S
C676 C677 1.388 . S
C677 H664 0.930 . S
C677 C676 1.388 . S
C677 C678 1.390 . S
C678 C677 1.390 . S
C678 C679 1.394 1_554 S
C678 C684 1.465 . S
C679 C674 1.399 . S
C679 C678 1.394 1_556 S
C679 C680 1.516 . S
C680 C679 1.516 . S
C680 C681 1.502 . S
C680 C682 1.561 . S
C680 C683 1.526 . S
C681 H665 0.959 . S
C681 H666 0.959 . S
C681 H667 0.961 . S
C681 C680 1.502 . S
C682 H668 0.960 . S
C682 H669 0.961 . S
C682 H670 0.959 . S
C682 C680 1.561 . S
C683 C680 1.526 . S
C683 C684 1.396 1_556 S
C683 C688 1.390 . S
C684 C678 1.465 . S
C684 C683 1.396 1_554 S
C684 C685 1.399 . S
C685 H671 0.929 . S
C685 C684 1.399 . S
C685 C686 1.385 . S
C686 H672 0.931 . S
C686 C685 1.385 . S
C686 C687 1.389 . S
C687 C686 1.389 . S
C687 C688 1.387 1_554 S
C688 H673 0.930 . S
C688 C683 1.390 . S
C688 C687 1.387 1_556 S
H689 C701 0.930 . S
H690 C703 0.930 . S
H691 C704 0.930 . S
H692 C708 0.959 . S
H693 C708 0.959 . S
H694 C708 0.961 . S
H695 C709 0.960 . S
H696 C709 0.961 . S
H697 C709 0.959 . S
H698 C712 0.929 . S
H699 C713 0.931 . S
H700 C715 0.930 . S
C701 H689 0.930 . S
C701 C702 1.399 . S
C701 C706 1.399 . S
C702 C701 1.399 . S
C702 C703 1.376 . S
C703 H690 0.930 . S
C703 C702 1.376 . S
C703 C704 1.388 . S
C704 H691 0.930 . S
C704 C703 1.388 . S
C704 C705 1.390 . S
C705 C704 1.390 . S
C705 C706 1.394 . S
C705 C711 1.465 . S
C706 C701 1.399 . S
C706 C705 1.394 . S
C706 C707 1.516 . S
C707 C706 1.516 . S
C707 C708 1.502 . S
C707 C709 1.561 . S
C707 C710 1.526 . S
C708 H692 0.959 . S
C708 H693 0.959 . S
C708 H694 0.961 . S
C708 C707 1.502 . S
C709 H695 0.960 . S
C709 H696 0.961 . S
C709 H697 0.959 . S
C709 C707 1.561 . S
C710 C707 1.526 . S
C710 C711 1.396 . S
C710 C715 1.390 . S
C711 C705 1.465 . S
C711 C710 1.396 . S
C711 C712 1.399 . S
C712 H698 0.929 . S
C712 C711 1.399 . S
C712 C713 1.385 . S
C713 H699 0.931 . S
C713 C712 1.385 . S
C713 C714 1.389 . S
C714 C713 1.389 . S
C714 C715 1.387 . S
C715 H700 0.930 . S
C715 C710 1.390 . S
C715 C714 1.387 . S
H716 C728 0.930 . S
H717 C730 0.930 . S
H718 C731 0.930 . S
H719 C735 0.959 . S
H720 C735 0.959 . S
H721 C735 0.961 . S
H722 C736 0.960 . S
H723 C736 0.961 . S
H724 C736 0.959 . S
H725 C739 0.929 . S
H726 C740 0.931 . S
H727 C742 0.930 . S
C728 H716 0.930 . S
C728 C729 1.399 . S
C728 C733 1.399 . S
C729 C728 1.399 . S
C729 C730 1.376 . S
C730 H717 0.930 . S
C730 C729 1.376 . S
C730 C731 1.388 . S
C731 H718 0.930 . S
C731 C730 1.388 . S
C731 C732 1.390 . S
C732 C731 1.390 . S
C732 C733 1.394 . S
C732 C738 1.465 . S
C733 C728 1.399 . S
C733 C732 1.394 . S
C733 C734 1.516 . S
C734 C733 1.516 . S
C734 C735 1.502 . S
C734 C736 1.561 . S
C734 C737 1.526 . S
C735 H719 0.959 . S
C735 H720 0.959 . S
C735 H721 0.961 . S
C735 C734 1.502 . S
C736 H722 0.960 . S
C736 H723 0.961 . S
C736 H724 0.959 . S
C736 C734 1.561 . S
C737 C734 1.526 . S
C737 C738 1.396 . S
C737 C742 1.390 . S
C738 C732 1.465 . S
C738 C737 1.396 . S
C738 C739 1.399 . S
C739 H725 0.929 . S
C739 C738 1.399 . S
C739 C740 1.385 . S
C740 H726 0.931 . S
C740 C739 1.385 . S
C740 C741 1.389 . S
C741 C740 1.389 . S
C741 C742 1.387 . S
C742 H727 0.930 . S
C742 C737 1.390 . S
C742 C741 1.387 . S
H743 C755 0.930 . S
H744 C757 0.930 . S
H745 C758 0.930 . S
H746 C762 0.959 . S
H747 C762 0.959 . S
H748 C762 0.961 . S
H749 C763 0.960 . S
H750 C763 0.961 . S
H751 C763 0.959 . S
H752 C766 0.929 . S
H753 C767 0.931 . S
H754 C769 0.930 . S
C755 H743 0.930 . S
C755 C756 1.399 1_556 S
C755 C760 1.399 . S
C756 C755 1.399 1_554 S
C756 C757 1.376 . S
C757 H744 0.930 . S
C757 C756 1.376 . S
C757 C758 1.388 . S
C758 H745 0.930 . S
C758 C757 1.388 . S
C758 C759 1.390 . S
C759 C758 1.390 . S
C759 C760 1.394 1_554 S
C759 C765 1.465 . S
C760 C755 1.399 . S
C760 C759 1.394 1_556 S
C760 C761 1.516 . S
C761 C760 1.516 . S
C761 C762 1.502 . S
C761 C763 1.561 . S
C761 C764 1.526 . S
C762 H746 0.959 . S
C762 H747 0.959 . S
C762 H748 0.961 . S
C762 C761 1.502 . S
C763 H749 0.960 . S
C763 H750 0.961 . S
C763 H751 0.959 . S
C763 C761 1.561 . S
C764 C761 1.526 . S
C764 C765 1.396 1_556 S
C764 C769 1.390 . S
C765 C759 1.465 . S
C765 C764 1.396 1_554 S
C765 C766 1.399 . S
C766 H752 0.929 . S
C766 C765 1.399 . S
C766 C767 1.385 . S
C767 H753 0.931 . S
C767 C766 1.385 . S
C767 C768 1.389 . S
C768 C767 1.389 . S
C768 C769 1.387 1_554 S
C769 H754 0.930 . S
C769 C764 1.390 . S
C769 C768 1.387 1_556 S
H770 C782 0.930 . S
H771 C784 0.930 . S
H772 C785 0.930 . S
H773 C789 0.959 . S
H774 C789 0.959 . S
H775 C789 0.961 . S
H776 C790 0.960 . S
H777 C790 0.961 . S
H778 C790 0.959 . S
H779 C793 0.929 . S
H780 C794 0.931 . S
H781 C796 0.930 . S
C782 H770 0.930 . S
C782 C783 1.399 . S
C782 C787 1.399 . S
C783 C782 1.399 . S
C783 C784 1.376 . S
C784 H771 0.930 . S
C784 C783 1.376 . S
C784 C785 1.388 . S
C785 H772 0.930 . S
C785 C784 1.388 . S
C785 C786 1.390 . S
C786 C785 1.390 . S
C786 C787 1.394 . S
C786 C792 1.465 . S
C787 C782 1.399 . S
C787 C786 1.394 . S
C787 C788 1.516 . S
C788 C787 1.516 . S
C788 C789 1.502 . S
C788 C790 1.561 . S
C788 C791 1.526 . S
C789 H773 0.959 . S
C789 H774 0.959 . S
C789 H775 0.961 . S
C789 C788 1.502 . S
C790 H776 0.960 . S
C790 H777 0.961 . S
C790 H778 0.959 . S
C790 C788 1.561 . S
C791 C788 1.526 . S
C791 C792 1.396 . S
C791 C796 1.390 . S
C792 C786 1.465 . S
C792 C791 1.396 . S
C792 C793 1.399 . S
C793 H779 0.929 . S
C793 C792 1.399 . S
C793 C794 1.385 . S
C794 H780 0.931 . S
C794 C793 1.385 . S
C794 C795 1.389 . S
C795 C794 1.389 . S
C795 C796 1.387 . S
C796 H781 0.930 . S
C796 C791 1.390 . S
C796 C795 1.387 . S
H797 C809 0.930 . S
H798 C811 0.930 . S
H799 C812 0.930 . S
H800 C816 0.959 . S
H801 C816 0.959 . S
H802 C816 0.961 . S
H803 C817 0.960 . S
H804 C817 0.961 . S
H805 C817 0.959 . S
H806 C820 0.929 . S
H807 C821 0.931 . S
H808 C823 0.930 . S
C809 H797 0.930 . S
C809 C810 1.399 . S
C809 C814 1.399 . S
C810 C809 1.399 . S
C810 C811 1.376 1_554 S
C811 H798 0.930 . S
C811 C810 1.376 1_556 S
C811 C812 1.388 . S
C812 H799 0.930 . S
C812 C811 1.388 . S
C812 C813 1.390 . S
C813 C812 1.390 . S
C813 C814 1.394 1_556 S
C813 C819 1.465 . S
C814 C809 1.399 . S
C814 C813 1.394 1_554 S
C814 C815 1.516 . S
C815 C814 1.516 . S
C815 C816 1.502 . S
C815 C817 1.561 . S
C815 C818 1.526 . S
C816 H800 0.959 . S
C816 H801 0.959 . S
C816 H802 0.961 . S
C816 C815 1.502 . S
C817 H803 0.960 . S
C817 H804 0.961 . S
C817 H805 0.959 . S
C817 C815 1.561 . S
C818 C815 1.526 . S
C818 C819 1.396 1_554 S
C818 C823 1.390 . S
C819 C813 1.465 . S
C819 C818 1.396 1_556 S
C819 C820 1.399 . S
C820 H806 0.929 . S
C820 C819 1.399 . S
C820 C821 1.385 . S
C821 H807 0.931 . S
C821 C820 1.385 . S
C821 C822 1.389 1_556 S
C822 C821 1.389 1_554 S
C822 C823 1.387 . S
C823 H808 0.930 . S
C823 C818 1.390 . S
C823 C822 1.387 . S
C189 C5 1.419 . S
C201 C125 1.439 . S
C216 C31 1.478 . S
C228 C92 1.480 . S
C255 C104 1.469 . S
C243 C53 1.485 . S
C270 C71 1.439 . S
C282 C115 1.422 . S
C309 C148 1.454 . S
C297 C75 1.464 . S
C336 C159 1.493 . S
C324 C9 1.501 . S
C363 C169 1.463 . S
C351 C27 1.453 . S
C390 C136 1.467 . S
C378 C49 1.463 . S
C405 C51 1.464 . S
C417 C103 1.465 . S
C432 C72 1.433 . S
C444 C114 1.441 . S
C459 C6 1.501 . S
C471 C126 1.485 . S
C498 C93 1.441 . S
C486 C29 1.470 . S
C513 C28 1.438 . S
C525 C170 1.440 . S
C552 C137 1.457 . S
C540 C50 1.458 . S
C579 C147 1.467 . S
C567 C73 1.469 . S
C594 C7 1.436 . S
C606 C158 1.449 . S
C633 C98 1.499 . S
C621 C4 1.510 . S
C660 C109 1.495 . S
C648 C30 1.476 . S
C675 C52 1.509 . S
C687 C120 1.517 . S
C702 C70 1.475 . S
C714 C131 1.495 . S
C741 C142 1.500 . S
C729 C74 1.511 . S
C756 C8 1.481 . S
C768 C153 1.495 . S
C783 C26 1.475 . S
C795 C164 1.496 . S
C810 C48 1.512 . S
C822 C175 1.503 . S
