# Generated by pormake.
# Topology ssa, (4,4)-cn, num edge types: 1
# Building blocks:
#     Node 0, Type 0, BuildingBlock: KOZSID_clean_sbu_0, # of connection points: 4
#     Node 1, Type 0, BuildingBlock: KOZSID_clean_sbu_0, # of connection points: 4
#     Node 2, Type 0, BuildingBlock: KOZSID_clean_sbu_0, # of connection points: 4
#     Node 3, Type 0, BuildingBlock: KOZSID_clean_sbu_0, # of connection points: 4
#     Node 4, Type 0, BuildingBlock: KOZSID_clean_sbu_0, # of connection points: 4
#     Node 5, Type 0, BuildingBlock: KOZSID_clean_sbu_0, # of connection points: 4
#     Node 6, Type 1, BuildingBlock: AZAVOO_clean_linker_0, # of connection points: 4
#     Node 7, Type 1, BuildingBlock: AZAVOO_clean_linker_0, # of connection points: 4
#     Node 8, Type 1, BuildingBlock: AZAVOO_clean_linker_0, # of connection points: 4
#     Node 9, Type 1, BuildingBlock: AZAVOO_clean_linker_0, # of connection points: 4
#     Node 10, Type 1, BuildingBlock: AZAVOO_clean_linker_0, # of connection points: 4
#     Node 11, Type 1, BuildingBlock: AZAVOO_clean_linker_0, # of connection points: 4
#     Edge 12, Type (0, 1), BuildingBlock: OJICUG_clean_linker_0, # of connection points: 2
#     Edge 13, Type (0, 1), BuildingBlock: OJICUG_clean_linker_0, # of connection points: 2
#     Edge 14, Type (0, 1), BuildingBlock: OJICUG_clean_linker_0, # of connection points: 2
#     Edge 15, Type (0, 1), BuildingBlock: OJICUG_clean_linker_0, # of connection points: 2
#     Edge 16, Type (0, 1), BuildingBlock: OJICUG_clean_linker_0, # of connection points: 2
#     Edge 17, Type (0, 1), BuildingBlock: OJICUG_clean_linker_0, # of connection points: 2
#     Edge 18, Type (0, 1), BuildingBlock: OJICUG_clean_linker_0, # of connection points: 2
#     Edge 19, Type (0, 1), BuildingBlock: OJICUG_clean_linker_0, # of connection points: 2
#     Edge 20, Type (0, 1), BuildingBlock: OJICUG_clean_linker_0, # of connection points: 2
#     Edge 21, Type (0, 1), BuildingBlock: OJICUG_clean_linker_0, # of connection points: 2
#     Edge 22, Type (0, 1), BuildingBlock: OJICUG_clean_linker_0, # of connection points: 2
#     Edge 23, Type (0, 1), BuildingBlock: OJICUG_clean_linker_0, # of connection points: 2
#     Edge 24, Type (0, 1), BuildingBlock: OJICUG_clean_linker_0, # of connection points: 2
#     Edge 25, Type (0, 1), BuildingBlock: OJICUG_clean_linker_0, # of connection points: 2
#     Edge 26, Type (0, 1), BuildingBlock: OJICUG_clean_linker_0, # of connection points: 2
#     Edge 27, Type (0, 1), BuildingBlock: OJICUG_clean_linker_0, # of connection points: 2
#     Edge 28, Type (0, 1), BuildingBlock: OJICUG_clean_linker_0, # of connection points: 2
#     Edge 29, Type (0, 1), BuildingBlock: OJICUG_clean_linker_0, # of connection points: 2
#     Edge 30, Type (0, 1), BuildingBlock: OJICUG_clean_linker_0, # of connection points: 2
#     Edge 31, Type (0, 1), BuildingBlock: OJICUG_clean_linker_0, # of connection points: 2
#     Edge 32, Type (0, 1), BuildingBlock: OJICUG_clean_linker_0, # of connection points: 2
#     Edge 33, Type (0, 1), BuildingBlock: OJICUG_clean_linker_0, # of connection points: 2
#     Edge 34, Type (0, 1), BuildingBlock: OJICUG_clean_linker_0, # of connection points: 2
#     Edge 35, Type (0, 1), BuildingBlock: OJICUG_clean_linker_0, # of connection points: 2
# Relax obj value: 0.081
# Max RMSD: 0.234
# Mean RMSD: 0.122
data_MOF--net-ssa--node1-KOZSID_clean_sbu_0--node2-AZAVOO_clean_linker_0--edge1-OJICUG_clean_linker_0
_symmetry_space_group_name_H-M    P1
_symmetry_Int_Tables_number       1
_symmetry_cell_setting            triclinic
loop_
_symmetry_equiv_pos_as_xyz
'x, y, z'
_cell_length_a     42.518059
_cell_length_b     43.945527
_cell_length_c     41.006863
_cell_angle_alpha  86.698003
_cell_angle_beta   93.063516
_cell_angle_gamma 123.17716
loop_
_atom_site_label
_atom_site_type_symbol
_atom_site_fract_x
_atom_site_fract_y
_atom_site_fract_z
_atom_type_partial_charge
C0 C 0.07318 0.54926 0.01756 0.0
C1 C 0.03845 0.53295 0.03199 0.0
C2 C 0.037 0.50909 0.05552 0.0
C3 C 0.07072 0.51213 0.05411 0.0
N4 N 0.09381 0.53665 0.03118 0.0
Co5 Co 0.14537 0.54949 0.02065 0.0
N6 N 0.14348 0.5151 0.05609 0.0
C7 C 0.11501 0.49371 0.07668 0.0
C8 C 0.12216 0.47357 0.09885 0.0
C9 C 0.15751 0.4829 0.09236 0.0
C10 C 0.16987 0.50828 0.06641 0.0
N11 N 0.19672 0.56182 0.00995 0.0
C12 C 0.21808 0.55055 0.02481 0.0
C13 C 0.25235 0.56593 0.00993 0.0
C14 C 0.25283 0.58798 0.98482 0.0
C15 C 0.21894 0.58477 0.98582 0.0
N16 N 0.1474 0.58436 0.98564 0.0
C17 C 0.17602 0.60601 0.9653 0.0
C18 C 0.16921 0.62703 0.94391 0.0
C19 C 0.13414 0.61834 0.951 0.0
C20 C 0.12158 0.59239 0.97638 0.0
N21 N 0.16795 0.58906 0.05217 0.0
C22 C 0.19765 0.64637 0.09555 0.0
C23 C 0.2145 0.65129 0.06576 0.0
C24 C 0.19928 0.62248 0.04459 0.0
C25 C 0.16614 0.61215 0.10354 0.0
C26 C 0.15198 0.58406 0.08175 0.0
N27 N 0.12262 0.51005 0.98878 0.0
C28 C 0.11636 0.49033 0.9336 0.0
C29 C 0.08608 0.45571 0.94225 0.0
C30 C 0.0752 0.44827 0.97474 0.0
C31 C 0.09362 0.47562 0.99738 0.0
C32 C 0.13437 0.51677 0.95717 0.0
H33 H 0.08331 0.46838 0.02149 0.0
H34 H 0.15729 0.54255 0.94901 0.0
H35 H 0.21325 0.62798 0.02218 0.0
H36 H 0.1281 0.55857 0.08936 0.0
C37 C 0.08187 0.49313 0.07467 0.0
C38 C 0.08471 0.5758 0.99048 0.0
C39 C 0.20748 0.52618 0.05349 0.0
C40 C 0.20832 0.6049 0.96609 0.0
H41 H 0.01635 0.53772 0.02605 0.0
H42 H 0.01416 0.49168 0.07181 0.0
H43 H 0.10399 0.45466 0.11769 0.0
H44 H 0.17264 0.47252 0.10559 0.0
H45 H 0.27481 0.56194 0.01685 0.0
H46 H 0.27556 0.60502 0.96833 0.0
H47 H 0.18739 0.6461 0.92516 0.0
H48 H 0.11934 0.62961 0.93877 0.0
H49 H 0.23906 0.67737 0.05862 0.0
H50 H 0.15273 0.60683 0.12678 0.0
H51 H 0.12595 0.49706 0.9087 0.0
H52 H 0.05159 0.4218 0.98246 0.0
C53 C 0.63671 0.01717 0.61515 0.0
C54 C 0.63321 0.99548 0.64246 0.0
C55 C 0.59868 0.96391 0.6397 0.0
C56 C 0.58324 0.9681 0.61094 0.0
N57 N 0.60593 0.00037 0.59508 0.0
Co58 Co 0.5952 0.01755 0.55217 0.0
N59 N 0.54237 0.97377 0.55059 0.0
C60 C 0.52539 0.94686 0.57377 0.0
C61 C 0.48838 0.92139 0.56657 0.0
C62 C 0.48134 0.93256 0.53693 0.0
C63 C 0.51476 0.96411 0.52756 0.0
N64 N 0.58504 0.03393 0.50849 0.0
C65 C 0.55419 0.01724 0.4884 0.0
C66 C 0.55999 0.03671 0.45898 0.0
C67 C 0.59563 0.06681 0.46059 0.0
C68 C 0.60966 0.06389 0.4906 0.0
N69 N 0.64739 0.06236 0.55463 0.0
C70 C 0.66375 0.09037 0.53243 0.0
C71 C 0.69912 0.11816 0.54159 0.0
C72 C 0.70556 0.10758 0.57176 0.0
C73 C 0.67364 0.07372 0.57911 0.0
N74 N 0.61355 0.9914 0.52966 0.0
C75 C 0.6412 0.95428 0.50005 0.0
C76 C 0.65889 0.99199 0.49591 0.0
C77 C 0.64444 0.00972 0.51036 0.0
C78 C 0.60912 0.93555 0.51901 0.0
C79 C 0.59616 0.95443 0.53364 0.0
N80 N 0.57695 0.0434 0.57489 0.0
C81 C 0.57312 0.09577 0.58047 0.0
C82 C 0.55235 0.08028 0.60882 0.0
C83 C 0.54392 0.04599 0.61968 0.0
C84 C 0.55646 0.02827 0.6026 0.0
C85 C 0.5849 0.07688 0.56388 0.0
H86 H 0.5496 0.0025 0.61255 0.0
H87 H 0.60063 0.08994 0.54236 0.0
H88 H 0.65894 0.03829 0.50556 0.0
H89 H 0.57191 0.93826 0.54801 0.0
C90 C 0.54591 0.94467 0.60055 0.0
C91 C 0.66894 0.05412 0.61014 0.0
C92 C 0.51947 0.98248 0.4957 0.0
C93 C 0.64543 0.0893 0.50293 0.0
H94 H 0.65321 0.00225 0.66263 0.0
H95 H 0.58575 0.94126 0.65726 0.0
H96 H 0.46911 0.89708 0.58075 0.0
H97 H 0.45486 0.91855 0.52333 0.0
H98 H 0.54074 0.02983 0.43824 0.0
H99 H 0.60973 0.08817 0.44201 0.0
H100 H 0.71784 0.14323 0.52807 0.0
H101 H 0.73072 0.12322 0.58679 0.0
H102 H 0.68404 0.00809 0.48175 0.0
H103 H 0.59352 0.90625 0.52236 0.0
H104 H 0.58015 0.12226 0.57106 0.0
H105 H 0.52849 0.03316 0.64185 0.0
C106 C 0.6579 0.56023 0.02762 0.0
C107 C 0.6673 0.58715 0.00348 0.0
C108 C 0.63896 0.59309 0.00159 0.0
C109 C 0.61394 0.56953 0.0245 0.0
N110 N 0.62478 0.54917 0.04129 0.0
Co111 Co 0.59605 0.51037 0.07585 0.0
N112 N 0.55331 0.51764 0.07162 0.0
C113 C 0.55032 0.541 0.05077 0.0
C114 C 0.51854 0.54106 0.05458 0.0
C115 C 0.50038 0.51673 0.07974 0.0
C116 C 0.52221 0.50311 0.0898 0.0
N117 N 0.56735 0.47165 0.11043 0.0
C118 C 0.53502 0.46172 0.12498 0.0
C119 C 0.52527 0.43455 0.14888 0.0
C120 C 0.55288 0.42756 0.15 0.0
C121 C 0.57773 0.4507 0.12675 0.0
N122 N 0.63882 0.50317 0.08013 0.0
C123 C 0.64168 0.47962 0.10084 0.0
C124 C 0.67393 0.48024 0.09751 0.0
C125 C 0.6926 0.50532 0.07292 0.0
C126 C 0.67048 0.51852 0.0626 0.0
N127 N 0.61986 0.54728 0.1101 0.0
C128 C 0.64731 0.59684 0.16094 0.0
C129 C 0.64587 0.56435 0.16488 0.0
C130 C 0.63247 0.54031 0.13925 0.0
C131 C 0.63601 0.60469 0.13077 0.0
C132 C 0.62246 0.57974 0.10591 0.0
N133 N 0.57215 0.47332 0.04159 0.0
C134 C 0.55612 0.41589 0.02087 0.0
C135 C 0.54358 0.42309 0.99106 0.0
C136 C 0.54447 0.45535 0.98735 0.0
C137 C 0.55856 0.47976 0.01275 0.0
C138 C 0.57014 0.44112 0.04555 0.0
H139 H 0.55863 0.50386 0.00825 0.0
H140 H 0.57985 0.4342 0.06736 0.0
H141 H 0.632 0.51599 0.14383 0.0
H142 H 0.61349 0.58696 0.08379 0.0
C143 C 0.5792 0.56457 0.02965 0.0
C144 C 0.68009 0.54449 0.0352 0.0
C145 C 0.51363 0.47838 0.11807 0.0
C146 C 0.61255 0.45571 0.12168 0.0
H147 H 0.69165 0.60049 0.9882 0.0
H148 H 0.63639 0.61164 0.98488 0.0
H149 H 0.51028 0.55781 0.04145 0.0
H150 H 0.47459 0.51061 0.09015 0.0
H151 H 0.50119 0.42184 0.16447 0.0
H152 H 0.55527 0.40882 0.1666 0.0
H153 H 0.68238 0.46371 0.11079 0.0
H154 H 0.71912 0.51259 0.06319 0.0
H155 H 0.65491 0.5574 0.1877 0.0
H156 H 0.6364 0.62947 0.12664 0.0
H157 H 0.5563 0.3914 0.02488 0.0
H158 H 0.53449 0.46188 0.96487 0.0
C159 C 0.97426 0.39124 0.57347 0.0
C160 C 0.93718 0.36476 0.56558 0.0
C161 C 0.92789 0.37698 0.53773 0.0
C162 C 0.95961 0.41017 0.5303 0.0
N163 N 0.98892 0.41958 0.55133 0.0
Co164 Co 0.03911 0.46704 0.55171 0.0
N165 N 0.02362 0.48733 0.51365 0.0
C166 C 0.99027 0.47009 0.49697 0.0
C167 C 0.98843 0.49035 0.47116 0.0
C168 C 0.02283 0.52228 0.47101 0.0
C169 C 0.04369 0.51964 0.49692 0.0
N170 N 0.08904 0.5146 0.55265 0.0
C171 C 0.10259 0.54451 0.53256 0.0
C172 C 0.13888 0.57183 0.54177 0.0
C173 C 0.14891 0.55845 0.56828 0.0
C174 C 0.11826 0.52395 0.57381 0.0
N175 N 0.05476 0.44663 0.58945 0.0
C176 C 0.08887 0.46283 0.60481 0.0
C177 C 0.09074 0.44236 0.63042 0.0
C178 C 0.0555 0.41158 0.63199 0.0
C179 C 0.03409 0.41523 0.60725 0.0
N180 N 0.05887 0.44875 0.52048 0.0
C181 C 0.09153 0.43366 0.47101 0.0
C182 C 0.11116 0.44846 0.50027 0.0
C183 C 0.09445 0.45573 0.52447 0.0
C184 C 0.0545 0.42442 0.46774 0.0
C185 C 0.03868 0.43166 0.49277 0.0
N186 N 0.01959 0.48568 0.58255 0.0
C187 C 0.02508 0.51383 0.63332 0.0
C188 C 0.99105 0.51117 0.62671 0.0
C189 C 0.97179 0.49574 0.59742 0.0
C190 C 0.98629 0.4831 0.57603 0.0
C191 C 0.03879 0.50121 0.61104 0.0
H192 H 0.96992 0.47119 0.55443 0.0
H193 H 0.06482 0.50399 0.61753 0.0
H194 H 0.11135 0.46805 0.54569 0.0
H195 H 0.0104 0.42401 0.48869 0.0
C196 C 0.96162 0.43449 0.50567 0.0
C197 C 0.99365 0.38959 0.60334 0.0
C198 C 0.08299 0.54772 0.50364 0.0
C199 C 0.11704 0.49889 0.59712 0.0
H200 H 0.91833 0.33977 0.57909 0.0
H201 H 0.90072 0.36398 0.52523 0.0
H202 H 0.96512 0.48255 0.45408 0.0
H203 H 0.03181 0.54469 0.45343 0.0
H204 H 0.15657 0.59839 0.53006 0.0
H205 H 0.17572 0.5719 0.5814 0.0
H206 H 0.11437 0.44973 0.64699 0.0
H207 H 0.04613 0.38958 0.65009 0.0
H208 H 0.13994 0.45593 0.50397 0.0
H209 H 0.03791 0.41206 0.44576 0.0
H210 H 0.04088 0.52499 0.65588 0.0
H211 H 0.94563 0.49351 0.59079 0.0
C212 C 0.51784 0.02912 0.1493 0.0
C213 C 0.51726 0.04658 0.17617 0.0
C214 C 0.54616 0.0824 0.17257 0.0
C215 C 0.56262 0.08477 0.14378 0.0
N216 N 0.54581 0.05268 0.12915 0.0
Co217 Co 0.56043 0.04344 0.0876 0.0
N218 N 0.61153 0.08834 0.0908 0.0
C219 C 0.62218 0.11626 0.1103 0.0
C220 C 0.65947 0.14342 0.1077 0.0
C221 C 0.67296 0.13214 0.0848 0.0
C222 C 0.64292 0.09873 0.07438 0.0
N223 N 0.57452 0.0342 0.0457 0.0
C224 C 0.60872 0.04962 0.0324 0.0
C225 C 0.60526 0.03613 0.00162 0.0
C226 C 0.56771 0.01184 0.99552 0.0
C227 C 0.55024 0.01179 0.02267 0.0
N228 N 0.50942 0.99846 0.0848 0.0
C229 C 0.49199 0.97975 0.05774 0.0
C230 C 0.45707 0.94919 0.06376 0.0
C231 C 0.45231 0.94881 0.09667 0.0
C232 C 0.48467 0.97936 0.10882 0.0
N233 N 0.54236 0.07099 0.06353 0.0
C234 C 0.51613 0.10815 0.02605 0.0
C235 C 0.49363 0.08221 0.05 0.0
C236 C 0.50757 0.06431 0.06892 0.0
C237 C 0.55203 0.11559 0.0216 0.0
C238 C 0.56442 0.09652 0.04026 0.0
N239 N 0.57869 0.01611 0.11138 0.0
C240 C 0.58397 0.96427 0.11637 0.0
C241 C 0.60515 0.97722 0.14543 0.0
C242 C 0.61299 0.01009 0.15702 0.0
C243 C 0.59972 0.0292 0.13954 0.0
C244 C 0.57076 0.98399 0.09985 0.0
H245 H 0.60644 0.05456 0.14888 0.0
H246 H 0.55397 0.97314 0.07782 0.0
H247 H 0.48998 0.04462 0.08749 0.0
H248 H 0.59168 0.10207 0.03524 0.0
C249 C 0.59784 0.1138 0.13358 0.0
C250 C 0.49061 0.99071 0.14271 0.0
C251 C 0.6441 0.08024 0.04607 0.0
C252 C 0.51201 0.98782 0.02913 0.0
H253 H 0.49815 0.03461 0.19629 0.0
H254 H 0.55529 0.10365 0.1898 0.0
H255 H 0.67521 0.1681 0.12132 0.0
H256 H 0.70142 0.14726 0.07613 0.0
H257 H 0.62735 0.04368 0.9848 0.0
H258 H 0.5548 0.99573 0.97406 0.0
H259 H 0.43812 0.92867 0.04666 0.0
H260 H 0.42794 0.92833 0.11009 0.0
H261 H 0.4656 0.07578 0.05392 0.0
H262 H 0.56994 0.13517 0.00293 0.0
H263 H 0.57695 0.93872 0.10686 0.0
H264 H 0.62949 0.02108 0.17932 0.0
C265 C 0.60768 0.61814 0.55769 0.0
C266 C 0.60004 0.64474 0.56085 0.0
C267 C 0.57139 0.63082 0.58222 0.0
C268 C 0.5631 0.59662 0.59075 0.0
N269 N 0.58531 0.58814 0.57669 0.0
Co270 Co 0.5809 0.54024 0.57984 0.0
N271 N 0.53631 0.51844 0.60864 0.0
C272 C 0.51958 0.53481 0.61899 0.0
C273 C 0.49151 0.51375 0.64067 0.0
C274 C 0.49095 0.48243 0.64513 0.0
C275 C 0.51876 0.4863 0.62576 0.0
N276 N 0.57611 0.4922 0.58239 0.0
C277 C 0.55385 0.46228 0.60139 0.0
C278 C 0.55995 0.43487 0.59685 0.0
C279 C 0.58777 0.44835 0.57466 0.0
C280 C 0.59697 0.48303 0.56696 0.0
N281 N 0.62602 0.5622 0.55173 0.0
C282 C 0.64341 0.54611 0.54226 0.0
C283 C 0.67309 0.56794 0.52226 0.0
C284 C 0.67424 0.59957 0.51817 0.0
C285 C 0.64499 0.59506 0.53589 0.0
N286 N 0.61393 0.55518 0.61959 0.0
C287 C 0.65307 0.56583 0.67973 0.0
C288 C 0.65995 0.55153 0.65352 0.0
C289 C 0.64038 0.5466 0.62394 0.0
C290 C 0.62795 0.57685 0.67473 0.0
C291 C 0.60892 0.57146 0.64458 0.0
N292 N 0.5476 0.52493 0.54014 0.0
C293 C 0.53299 0.50279 0.48516 0.0
C294 C 0.50203 0.50598 0.48277 0.0
C295 C 0.49391 0.51819 0.50987 0.0
C296 C 0.51695 0.52762 0.53793 0.0
C297 C 0.55505 0.51213 0.51385 0.0
H298 H 0.50951 0.53729 0.55738 0.0
H299 H 0.57825 0.50917 0.51393 0.0
H300 H 0.64646 0.53493 0.60524 0.0
H301 H 0.58959 0.57977 0.64237 0.0
C302 C 0.53305 0.57102 0.61002 0.0
C303 C 0.63415 0.62131 0.53441 0.0
C304 C 0.52951 0.46009 0.62628 0.0
C305 C 0.62836 0.50914 0.54925 0.0
H306 H 0.61292 0.671 0.54822 0.0
H307 H 0.55729 0.64356 0.58964 0.0
H308 H 0.47466 0.52098 0.65291 0.0
H309 H 0.47311 0.45983 0.66161 0.0
H310 H 0.54683 0.40853 0.6094 0.0
H311 H 0.60119 0.4352 0.5666 0.0
H312 H 0.69056 0.56101 0.51069 0.0
H313 H 0.69333 0.62278 0.50277 0.0
H314 H 0.68017 0.54376 0.65584 0.0
H315 H 0.62206 0.58849 0.69424 0.0
H316 H 0.5408 0.49386 0.46478 0.0
H317 H 0.46979 0.52047 0.5096 0.0
H318 H 0.3113 0.46048 0.49923 0.0
H319 H 0.08426 0.42119 0.17822 0.0
H320 H 0.38001 0.51333 0.30961 0.0
H321 H 0.43031 0.52802 0.34965 0.0
H322 H 0.37931 0.41331 0.37269 0.0
H323 H 0.33061 0.39893 0.33051 0.0
H324 H 0.31236 0.4953 0.35924 0.0
H325 H 0.31627 0.49153 0.41899 0.0
H326 H 0.26806 0.37587 0.41531 0.0
H327 H 0.26441 0.38013 0.35558 0.0
H328 H 0.24096 0.49065 0.31307 0.0
H329 H 0.19649 0.4858 0.35193 0.0
H330 H 0.15843 0.37354 0.37347 0.0
H331 H 0.20233 0.37833 0.33388 0.0
H332 H 0.25929 0.50613 0.24067 0.0
H333 H 0.20988 0.50863 0.20979 0.0
H334 H 0.13406 0.39239 0.22509 0.0
H335 H 0.18399 0.3902 0.25554 0.0
H336 H 0.33489 0.5185 0.2202 0.0
H337 H 0.32935 0.53995 0.16533 0.0
H338 H 0.23464 0.43183 0.14426 0.0
H339 H 0.24192 0.41025 0.19856 0.0
H340 H 0.38562 0.51322 0.25081 0.0
H341 H 0.43367 0.51813 0.21656 0.0
H342 H 0.36309 0.40268 0.20049 0.0
H343 H 0.31501 0.39823 0.23452 0.0
O344 O 0.30936 0.46134 0.47561 0.0
O345 O 0.28421 0.40193 0.4724 0.0
O346 O 0.14414 0.48077 0.1839 0.0
O347 O 0.10411 0.42102 0.19074 0.0
C348 C 0.3173 0.44756 0.299 0.0
C349 C 0.28647 0.44066 0.31701 0.0
C350 C 0.25564 0.43948 0.30093 0.0
C351 C 0.25617 0.44623 0.26682 0.0
C352 C 0.2868 0.45249 0.24868 0.0
C353 C 0.31689 0.45227 0.26473 0.0
C354 C 0.35187 0.45509 0.31697 0.0
C355 C 0.38073 0.49134 0.32216 0.0
C356 C 0.40901 0.49967 0.34561 0.0
C357 C 0.40835 0.47189 0.36504 0.0
C358 C 0.38083 0.4354 0.35813 0.0
C359 C 0.35291 0.42708 0.33407 0.0
C360 C 0.28809 0.43799 0.35324 0.0
C361 C 0.30259 0.4692 0.37146 0.0
C362 C 0.30482 0.46695 0.40554 0.0
C363 C 0.29248 0.43339 0.42194 0.0
C364 C 0.2778 0.40213 0.40347 0.0
C365 C 0.27565 0.40445 0.36939 0.0
C366 C 0.22488 0.43485 0.32066 0.0
C367 C 0.22231 0.46475 0.32552 0.0
C368 C 0.19699 0.46196 0.34776 0.0
C369 C 0.17422 0.42935 0.36585 0.0
C370 C 0.17592 0.39907 0.36008 0.0
C371 C 0.20083 0.40173 0.33744 0.0
C372 C 0.22525 0.44795 0.25015 0.0
C373 C 0.23196 0.48125 0.23737 0.0
C374 C 0.20369 0.4826 0.21976 0.0
C375 C 0.16804 0.45066 0.21485 0.0
C376 C 0.16121 0.41746 0.22833 0.0
C377 C 0.1896 0.41613 0.24585 0.0
C378 C 0.28878 0.46281 0.21338 0.0
C379 C 0.3141 0.49908 0.2032 0.0
C380 C 0.31055 0.51141 0.17196 0.0
C381 C 0.28118 0.4878 0.15055 0.0
C382 C 0.25782 0.45074 0.15992 0.0
C383 C 0.26174 0.43833 0.19106 0.0
C384 C 0.34701 0.45531 0.24537 0.0
C385 C 0.38079 0.48894 0.24026 0.0
C386 C 0.40821 0.49166 0.2207 0.0
C387 C 0.40225 0.46077 0.20581 0.0
C388 C 0.3684 0.42705 0.21129 0.0
C389 C 0.34103 0.42439 0.23087 0.0
C390 C 0.29503 0.43112 0.45814 0.0
C391 C 0.13815 0.45188 0.19558 0.0
H392 H 0.91896 0.33044 0.01769 0.0
H393 H 0.64631 0.98191 0.83263 0.0
H394 H 0.88848 0.31162 0.84065 0.0
H395 H 0.94673 0.3666 0.85867 0.0
H396 H 0.00603 0.31295 0.85142 0.0
H397 H 0.94746 0.258 0.83313 0.0
H398 H 0.83473 0.26172 0.89748 0.0
H399 H 0.86214 0.29303 0.94879 0.0
H400 H 0.94429 0.26397 0.94896 0.0
H401 H 0.91624 0.23233 0.89792 0.0
H402 H 0.75717 0.1869 0.86947 0.0
H403 H 0.71714 0.16072 0.91666 0.0
H404 H 0.7969 0.14006 0.96505 0.0
H405 H 0.8361 0.16487 0.91658 0.0
H406 H 0.74199 0.16135 0.80271 0.0
H407 H 0.68348 0.10148 0.79858 0.0
H408 H 0.73769 0.05253 0.84958 0.0
H409 H 0.79621 0.11254 0.85309 0.0
H410 H 0.79599 0.21626 0.7541 0.0
H411 H 0.75951 0.18243 0.70606 0.0
H412 H 0.78744 0.10263 0.72952 0.0
H413 H 0.82461 0.13716 0.77716 0.0
H414 H 0.86126 0.28812 0.7777 0.0
H415 H 0.89098 0.32526 0.72855 0.0
H416 H 0.9348 0.25936 0.71053 0.0
H417 H 0.90386 0.22165 0.75952 0.0
O418 O 0.90818 0.31742 0.9977 0.0
O419 O 0.94999 0.30207 0.99644 0.0
O420 O 0.64256 0.03242 0.80772 0.0
O421 O 0.66906 0.00592 0.83397 0.0
C422 C 0.8777 0.24565 0.83327 0.0
C423 C 0.85807 0.22745 0.86212 0.0
C424 C 0.82321 0.19385 0.86023 0.0
C425 C 0.80926 0.17746 0.8297 0.0
C426 C 0.82898 0.19583 0.80087 0.0
C427 C 0.86261 0.23054 0.80254 0.0
C428 C 0.91394 0.28101 0.83576 0.0
C429 C 0.91436 0.31228 0.84176 0.0
C430 C 0.94762 0.3436 0.85198 0.0
C431 C 0.98074 0.34383 0.85662 0.0
C432 C 0.98078 0.31331 0.84816 0.0
C433 C 0.94754 0.28211 0.83758 0.0
C434 C 0.87347 0.24472 0.8941 0.0
C435 C 0.8584 0.26186 0.90884 0.0
C436 C 0.87422 0.27984 0.93806 0.0
C437 C 0.90547 0.28107 0.95295 0.0
C438 C 0.92026 0.26355 0.93815 0.0
C439 C 0.9043 0.24546 0.90903 0.0
C440 C 0.79945 0.17765 0.88949 0.0
C441 C 0.76588 0.17645 0.89014 0.0
C442 C 0.74327 0.16189 0.91738 0.0
C443 C 0.75397 0.14865 0.94493 0.0
C444 C 0.7877 0.14981 0.94422 0.0
C445 C 0.81024 0.16417 0.91667 0.0
C446 C 0.77342 0.14121 0.82791 0.0
C447 C 0.74123 0.13763 0.81278 0.0
C448 C 0.70781 0.10342 0.81057 0.0
C449 C 0.70594 0.07218 0.82368 0.0
C450 C 0.73818 0.07599 0.83917 0.0
C451 C 0.77161 0.11022 0.84127 0.0
C452 C 0.81293 0.17913 0.76895 0.0
C453 C 0.7951 0.19205 0.7483 0.0
C454 C 0.77391 0.17246 0.72119 0.0
C455 C 0.77025 0.13965 0.71439 0.0
C456 C 0.78993 0.12789 0.73411 0.0
C457 C 0.81112 0.14752 0.76126 0.0
C458 C 0.8806 0.25235 0.77225 0.0
C459 C 0.87728 0.28172 0.7631 0.0
C460 C 0.89447 0.30303 0.73506 0.0
C461 C 0.91561 0.29556 0.7156 0.0
C462 C 0.91846 0.26571 0.72469 0.0
C463 C 0.90102 0.24425 0.75277 0.0
C464 C 0.92264 0.30075 0.98367 0.0
C465 C 0.67056 0.03573 0.82125 0.0
H466 H 0.64481 0.71404 0.12081 0.0
H467 H 0.71604 0.02761 0.34682 0.0
H468 H 0.6244 0.71306 0.30449 0.0
H469 H 0.62007 0.66452 0.27443 0.0
H470 H 0.73967 0.73136 0.25932 0.0
H471 H 0.74388 0.77968 0.29011 0.0
H472 H 0.62161 0.75286 0.24734 0.0
H473 H 0.61958 0.73038 0.1935 0.0
H474 H 0.73911 0.80907 0.18545 0.0
H475 H 0.74072 0.83098 0.23947 0.0
H476 H 0.61308 0.82129 0.27614 0.0
H477 H 0.59511 0.85551 0.2395 0.0
H478 H 0.7084 0.92093 0.20437 0.0
H479 H 0.72643 0.88665 0.24171 0.0
H480 H 0.62849 0.84703 0.34468 0.0
H481 H 0.62813 0.90064 0.35708 0.0
H482 H 0.74097 0.97006 0.32122 0.0
H483 H 0.7411 0.91615 0.30936 0.0
H484 H 0.63165 0.79301 0.39016 0.0
H485 H 0.62688 0.82391 0.43552 0.0
H486 H 0.74153 0.91351 0.42154 0.0
H487 H 0.74658 0.88192 0.37685 0.0
H488 H 0.62063 0.73127 0.35885 0.0
H489 H 0.61001 0.68995 0.40543 0.0
H490 H 0.72875 0.75418 0.43049 0.0
H491 H 0.73898 0.79579 0.38357 0.0
O492 O 0.64596 0.72424 0.14148 0.0
O493 O 0.70691 0.76681 0.13749 0.0
O494 O 0.65745 0.96904 0.36033 0.0
O495 O 0.71528 0.00595 0.34182 0.0
C496 C 0.68498 0.78247 0.30756 0.0
C497 C 0.68335 0.80401 0.28132 0.0
C498 C 0.68209 0.83438 0.28767 0.0
C499 C 0.68566 0.84519 0.32005 0.0
C500 C 0.68781 0.82404 0.34637 0.0
C501 C 0.68573 0.79169 0.34017 0.0
C502 C 0.68453 0.74971 0.29988 0.0
C503 C 0.65 0.71645 0.29639 0.0
C504 C 0.64753 0.68886 0.2789 0.0
C505 C 0.67949 0.69439 0.26426 0.0
C506 C 0.71458 0.72655 0.27016 0.0
C507 C 0.7171 0.75395 0.28804 0.0
C508 C 0.68129 0.79353 0.24716 0.0
C509 C 0.6472 0.76547 0.23369 0.0
C510 C 0.64618 0.7526 0.20302 0.0
C511 C 0.67923 0.7678 0.18523 0.0
C512 C 0.71316 0.79672 0.1985 0.0
C513 C 0.71414 0.80944 0.22923 0.0
C514 C 0.67099 0.85156 0.26148 0.0
C515 C 0.63385 0.84258 0.26011 0.0
C516 C 0.62372 0.86224 0.23939 0.0
C517 C 0.6505 0.891 0.21943 0.0
C518 C 0.68728 0.89876 0.2195 0.0
C519 C 0.69757 0.87925 0.24065 0.0
C520 C 0.68495 0.87778 0.32643 0.0
C521 C 0.65312 0.87385 0.33962 0.0
C522 C 0.65295 0.90451 0.34657 0.0
C523 C 0.68458 0.93966 0.3402 0.0
C524 C 0.7162 0.94341 0.32648 0.0
C525 C 0.71634 0.91271 0.31962 0.0
C526 C 0.68944 0.83526 0.38017 0.0
C527 C 0.65645 0.81824 0.39812 0.0
C528 C 0.65367 0.83607 0.42386 0.0
C529 C 0.6837 0.87125 0.43157 0.0
C530 C 0.71798 0.88647 0.41586 0.0
C531 C 0.72096 0.86836 0.39055 0.0
C532 C 0.68065 0.76603 0.36751 0.0
C533 C 0.64445 0.73601 0.37403 0.0
C534 C 0.63846 0.71247 0.40069 0.0
C535 C 0.66859 0.71857 0.42154 0.0
C536 C 0.70495 0.74884 0.41497 0.0
C537 C 0.71092 0.77244 0.38813 0.0
C538 C 0.67833 0.7531 0.15326 0.0
C539 C 0.68478 0.97233 0.34806 0.0
H540 H 0.77056 0.5997 0.64101 0.0
H541 H 0.05819 0.54713 0.86554 0.0
H542 H 0.83861 0.64477 0.8059 0.0
H543 H 0.78387 0.63975 0.77858 0.0
H544 H 0.71434 0.52891 0.81616 0.0
H545 H 0.76996 0.5338 0.84213 0.0
H546 H 0.87698 0.63548 0.75141 0.0
H547 H 0.84111 0.63038 0.70092 0.0
H548 H 0.75731 0.51857 0.72803 0.0
H549 H 0.79354 0.52405 0.77826 0.0
H550 H 0.94398 0.62968 0.7605 0.0
H551 H 0.96763 0.61401 0.71531 0.0
H552 H 0.88808 0.49975 0.73795 0.0
H553 H 0.86393 0.51588 0.78192 0.0
H554 H 0.97991 0.64251 0.83307 0.0
H555 H 0.03634 0.64087 0.84258 0.0
H556 H 0.96679 0.52336 0.84977 0.0
H557 H 0.91065 0.52548 0.84038 0.0
H558 H 0.94797 0.64621 0.89339 0.0
H559 H 0.99498 0.6452 0.9297 0.0
H560 H 0.92403 0.52789 0.93677 0.0
H561 H 0.87795 0.52914 0.89973 0.0
H562 H 0.84939 0.63832 0.8865 0.0
H563 H 0.80838 0.62839 0.93127 0.0
H564 H 0.77998 0.51788 0.94477 0.0
H565 H 0.81965 0.52767 0.89935 0.0
O566 O 0.785 0.60083 0.66048 0.0
O567 O 0.74444 0.54262 0.67423 0.0
O568 O 0.07115 0.60891 0.85532 0.0
O569 O 0.03651 0.54852 0.86041 0.0
C570 C 0.84223 0.58788 0.82906 0.0
C571 C 0.85732 0.5844 0.80055 0.0
C572 C 0.88943 0.5827 0.80296 0.0
C573 C 0.90712 0.58545 0.8336 0.0
C574 C 0.89126 0.58747 0.86225 0.0
C575 C 0.85816 0.58771 0.86014 0.0
C576 C 0.8083 0.58946 0.82543 0.0
C577 C 0.81126 0.61997 0.80949 0.0
C578 C 0.77979 0.617 0.79387 0.0
C579 C 0.74486 0.58354 0.79438 0.0
C580 C 0.74109 0.55475 0.81458 0.0
C581 C 0.77272 0.55762 0.82985 0.0
C582 C 0.83779 0.58016 0.7684 0.0
C583 C 0.85115 0.60979 0.74612 0.0
C584 C 0.83047 0.60685 0.71743 0.0
C585 C 0.79621 0.57412 0.71054 0.0
C586 C 0.78353 0.54417 0.7326 0.0
C587 C 0.8042 0.54718 0.76124 0.0
C588 C 0.90217 0.57387 0.77418 0.0
C589 C 0.93143 0.60135 0.75522 0.0
C590 C 0.94507 0.59229 0.72968 0.0
C591 C 0.9298 0.55558 0.72295 0.0
C592 C 0.90007 0.52827 0.74193 0.0
C593 C 0.88632 0.53737 0.76719 0.0
C594 C 0.94134 0.58413 0.83609 0.0
C595 C 0.97703 0.61647 0.83633 0.0
C596 C 0.00915 0.61543 0.84188 0.0
C597 C 0.00606 0.58196 0.84712 0.0
C598 C 0.97019 0.54958 0.84591 0.0
C599 C 0.9381 0.55067 0.84042 0.0
C600 C 0.90952 0.58777 0.89404 0.0
C601 C 0.94171 0.62046 0.90423 0.0
C602 C 0.96869 0.6198 0.92473 0.0
C603 C 0.96352 0.58639 0.93529 0.0
C604 C 0.92904 0.55398 0.92838 0.0
C605 C 0.90226 0.55466 0.9078 0.0
C606 C 0.83791 0.58388 0.88998 0.0
C607 C 0.83476 0.61221 0.89955 0.0
C608 C 0.81141 0.60648 0.92517 0.0
C609 C 0.79075 0.57226 0.94153 0.0
C610 C 0.79508 0.5444 0.93246 0.0
C611 C 0.81824 0.55011 0.90684 0.0
C612 C 0.7736 0.57142 0.68068 0.0
C613 C 0.03995 0.58076 0.85442 0.0
H614 H 0.27839 0.81703 0.54484 0.0
H615 H 0.10409 0.57153 0.25192 0.0
H616 H 0.31346 0.87323 0.37907 0.0
H617 H 0.3668 0.91646 0.4131 0.0
H618 H 0.43472 0.88275 0.37285 0.0
H619 H 0.38031 0.83737 0.34152 0.0
H620 H 0.23826 0.8011 0.40539 0.0
H621 H 0.2459 0.80839 0.46457 0.0
H622 H 0.3428 0.8003 0.46445 0.0
H623 H 0.33451 0.79251 0.40536 0.0
H624 H 0.1762 0.7331 0.36307 0.0
H625 H 0.13342 0.68056 0.39833 0.0
H626 H 0.22424 0.66652 0.42669 0.0
H627 H 0.26621 0.71815 0.39083 0.0
H628 H 0.18348 0.74589 0.28663 0.0
H629 H 0.13177 0.69056 0.2616 0.0
H630 H 0.18547 0.63384 0.29394 0.0
H631 H 0.23713 0.68949 0.31861 0.0
H632 H 0.24117 0.7993 0.24609 0.0
H633 H 0.22748 0.77494 0.19095 0.0
H634 H 0.28683 0.7222 0.21659 0.0
H635 H 0.29987 0.74617 0.27127 0.0
H636 H 0.31657 0.88019 0.28926 0.0
H637 H 0.36287 0.92465 0.25024 0.0
H638 H 0.40415 0.85504 0.24053 0.0
H639 H 0.35858 0.81146 0.2801 0.0
O640 O 0.27577 0.81391 0.52148 0.0
O641 O 0.32562 0.80995 0.52004 0.0
O642 O 0.09746 0.62404 0.24593 0.0
O643 O 0.12395 0.59366 0.26188 0.0
C644 C 0.30862 0.81989 0.34385 0.0
C645 C 0.28132 0.79242 0.3651 0.0
C646 C 0.25017 0.76021 0.35223 0.0
C647 C 0.24599 0.75567 0.31821 0.0
C648 C 0.27361 0.78261 0.29717 0.0
C649 C 0.30487 0.81478 0.30981 0.0
C650 C 0.34289 0.852 0.35793 0.0
C651 C 0.34009 0.87568 0.37727 0.0
C652 C 0.37075 0.90055 0.39657 0.0
C653 C 0.40501 0.90269 0.39625 0.0
C654 C 0.40852 0.88113 0.37451 0.0
C655 C 0.37761 0.85565 0.35595 0.0
C656 C 0.28598 0.79656 0.40108 0.0
C657 C 0.26104 0.80081 0.41823 0.0
C658 C 0.26553 0.80504 0.45201 0.0
C659 C 0.29504 0.80505 0.46923 0.0
C660 C 0.31984 0.80052 0.45193 0.0
C661 C 0.31523 0.79616 0.41818 0.0
C662 C 0.22431 0.72949 0.37453 0.0
C663 C 0.18673 0.71862 0.37697 0.0
C664 C 0.16244 0.68875 0.39721 0.0
C665 C 0.17538 0.66924 0.41521 0.0
C666 C 0.21319 0.68054 0.41279 0.0
C667 C 0.23734 0.71027 0.39259 0.0
C668 C 0.21386 0.72156 0.30449 0.0
C669 C 0.18389 0.72142 0.28837 0.0
C670 C 0.15445 0.68981 0.27408 0.0
C671 C 0.1545 0.65776 0.27575 0.0
C672 C 0.18454 0.65802 0.29221 0.0
C673 C 0.21399 0.68969 0.30642 0.0
C674 C 0.27162 0.77455 0.26238 0.0
C675 C 0.25203 0.78333 0.23933 0.0
C676 C 0.24414 0.76932 0.20806 0.0
C677 C 0.25617 0.74677 0.19956 0.0
C678 C 0.27775 0.73998 0.22225 0.0
C679 C 0.28516 0.75355 0.25348 0.0
C680 C 0.33402 0.84249 0.2873 0.0
C681 C 0.33582 0.87476 0.27882 0.0
C682 C 0.36211 0.89996 0.25638 0.0
C683 C 0.38716 0.89336 0.24211 0.0
C684 C 0.38561 0.86122 0.25123 0.0
C685 C 0.35933 0.83609 0.2736 0.0
C686 C 0.29986 0.80976 0.50509 0.0
C687 C 0.12352 0.62423 0.26027 0.0
H688 H 0.54532 0.31469 0.5831 0.0
H689 H 0.43809 0.0068 0.84109 0.0
H690 H 0.55775 0.32391 0.76141 0.0
H691 H 0.56472 0.37584 0.72965 0.0
H692 H 0.44552 0.32942 0.73618 0.0
H693 H 0.43885 0.27717 0.76789 0.0
H694 H 0.55436 0.26871 0.71813 0.0
H695 H 0.56135 0.29042 0.661 0.0
H696 H 0.44497 0.25749 0.65653 0.0
H697 H 0.43831 0.23554 0.71357 0.0
H698 H 0.55287 0.20659 0.76076 0.0
H699 H 0.56661 0.17684 0.72045 0.0
H700 H 0.45657 0.13407 0.67546 0.0
H701 H 0.44288 0.16377 0.71637 0.0
H702 H 0.53849 0.18832 0.8316 0.0
H703 H 0.53297 0.13165 0.84996 0.0
H704 H 0.42096 0.07029 0.80658 0.0
H705 H 0.42671 0.12723 0.78875 0.0
H706 H 0.5435 0.24719 0.86634 0.0
H707 H 0.54473 0.22249 0.9207 0.0
H708 H 0.42547 0.14145 0.91106 0.0
H709 H 0.42517 0.16568 0.85584 0.0
H710 H 0.5536 0.31665 0.82628 0.0
H711 H 0.56353 0.35833 0.86842 0.0
H712 H 0.44787 0.28613 0.89641 0.0
H713 H 0.4381 0.2445 0.85379 0.0
O714 O 0.54175 0.30526 0.60543 0.0
O715 O 0.4817 0.28762 0.60437 0.0
O716 O 0.49862 0.06244 0.85621 0.0
O717 O 0.44103 0.02961 0.83411 0.0
C718 C 0.49262 0.26193 0.77838 0.0
C719 C 0.4922 0.23925 0.75503 0.0
C720 C 0.49008 0.20705 0.76526 0.0
C721 C 0.48588 0.19622 0.79864 0.0
C722 C 0.48573 0.21862 0.82203 0.0
C723 C 0.49011 0.25203 0.81198 0.0
C724 C 0.49785 0.29696 0.767 0.0
C725 C 0.5334 0.32563 0.75698 0.0
C726 C 0.53729 0.35525 0.73881 0.0
C727 C 0.5056 0.35658 0.73021 0.0
C728 C 0.47035 0.32892 0.74218 0.0
C729 C 0.46654 0.29932 0.76056 0.0
C730 C 0.49579 0.25042 0.71985 0.0
C731 C 0.53033 0.26584 0.70462 0.0
C732 C 0.53427 0.27838 0.67206 0.0
C733 C 0.50374 0.27577 0.65421 0.0
C734 C 0.46905 0.25992 0.66956 0.0
C735 C 0.46513 0.24731 0.70208 0.0
C736 C 0.49683 0.1871 0.74156 0.0
C737 C 0.53163 0.19055 0.74235 0.0
C738 C 0.53957 0.17389 0.71911 0.0
C739 C 0.51279 0.15339 0.69463 0.0
C740 C 0.47767 0.14958 0.69413 0.0
C741 C 0.46981 0.16648 0.71738 0.0
C742 C 0.48284 0.16182 0.80917 0.0
C743 C 0.51271 0.1626 0.82628 0.0
C744 C 0.50952 0.1302 0.83664 0.0
C745 C 0.47645 0.09641 0.82982 0.0
C746 C 0.44676 0.09582 0.81231 0.0
C747 C 0.44997 0.12826 0.80205 0.0
C748 C 0.48431 0.20815 0.8572 0.0
C749 C 0.51749 0.22469 0.87634 0.0
C750 C 0.51801 0.21051 0.90755 0.0
C751 C 0.4852 0.17969 0.92039 0.0
C752 C 0.4514 0.16474 0.90181 0.0
C753 C 0.45104 0.17872 0.87039 0.0
C754 C 0.49501 0.27779 0.83668 0.0
C755 C 0.53021 0.31014 0.8411 0.0
C756 C 0.53583 0.33391 0.8652 0.0
C757 C 0.50642 0.32563 0.88563 0.0
C758 C 0.4711 0.29314 0.88115 0.0
C759 C 0.46543 0.26945 0.85679 0.0
C760 C 0.50823 0.28982 0.61984 0.0
C761 C 0.47286 0.06191 0.84088 0.0
C762 C 0.23798 0.49223 0.06867 0.0
C763 C 0.23569 0.52242 0.07264 0.0
H764 H 0.25534 0.45788 0.0901 0.0
C765 C 0.2537 0.54434 0.09955 0.0
H766 H 0.22374 0.4748 0.04814 0.0
C767 C 0.2712 0.53453 0.12371 0.0
C768 C 0.27093 0.50255 0.12133 0.0
H769 H 0.25156 0.56737 0.10318 0.0
H770 H 0.28212 0.55043 0.14547 0.0
C771 C 0.25562 0.48239 0.09283 0.0
C772 C 0.68339 0.08971 0.65978 0.0
C773 C 0.69418 0.07389 0.63799 0.0
H774 H 0.69914 0.12285 0.70132 0.0
C775 C 0.72965 0.07886 0.64155 0.0
H776 H 0.65603 0.08605 0.65718 0.0
C777 C 0.75448 0.1001 0.66654 0.0
C778 C 0.7441 0.11672 0.68807 0.0
H779 H 0.73829 0.06688 0.62465 0.0
H780 H 0.78203 0.10417 0.66859 0.0
C781 C 0.70816 0.11098 0.68467 0.0
C782 C 0.64451 0.60778 0.21975 0.0
C783 C 0.65887 0.62166 0.18845 0.0
H784 H 0.64 0.62001 0.26851 0.0
C785 C 0.68251 0.65949 0.18319 0.0
H786 H 0.62593 0.57875 0.22443 0.0
C787 C 0.69067 0.68299 0.20841 0.0
C788 C 0.67513 0.66916 0.23934 0.0
H789 H 0.69415 0.67094 0.15939 0.0
H790 H 0.70782 0.71206 0.20326 0.0
C791 C 0.65238 0.63133 0.24491 0.0
C792 C 0.93638 0.5042 0.65509 0.0
C793 C 0.97535 0.52359 0.65042 0.0
H794 H 0.89144 0.49961 0.6807 0.0
C795 C 0.99912 0.5545 0.66897 0.0
H796 H 0.91718 0.48002 0.64159 0.0
C797 C 0.98435 0.56525 0.69208 0.0
C798 C 0.94542 0.54553 0.69704 0.0
H799 H 0.02921 0.57045 0.66572 0.0
H800 H 0.0036 0.58855 0.70657 0.0
C801 C 0.92161 0.51516 0.67793 0.0
C802 C 0.47588 0.95055 0.19282 0.0
C803 C 0.46425 0.96618 0.16836 0.0
H804 H 0.46077 0.91553 0.23562 0.0
C805 C 0.42781 0.95898 0.16875 0.0
H806 H 0.50411 0.95623 0.19308 0.0
C807 C 0.40295 0.9357 0.19289 0.0
C808 C 0.41415 0.91932 0.21721 0.0
H809 H 0.41855 0.97119 0.15019 0.0
H810 H 0.3747 0.92996 0.1921 0.0
C811 C 0.45103 0.92722 0.21699 0.0
C812 C 0.4889 0.39925 0.65403 0.0
C813 C 0.52075 0.43478 0.65473 0.0
H814 H 0.45911 0.34648 0.67762 0.0
C815 C 0.54596 0.44559 0.68157 0.0
H816 H 0.46937 0.39057 0.63329 0.0
C817 C 0.5401 0.42065 0.70703 0.0
C818 C 0.50895 0.3845 0.70592 0.0
H819 H 0.57074 0.47303 0.68232 0.0
H820 H 0.56043 0.42937 0.72716 0.0
C821 C 0.48299 0.37426 0.67947 0.0
C822 C 0.67213 0.94664 0.45332 0.0
C823 C 0.65519 0.93442 0.48395 0.0
H824 H 0.69512 0.93652 0.41334 0.0
C825 C 0.65047 0.90229 0.4984 0.0
H826 H 0.67564 0.9707 0.44094 0.0
C827 C 0.66076 0.88212 0.48195 0.0
C828 C 0.67695 0.8942 0.45118 0.0
H829 H 0.63843 0.89238 0.52228 0.0
H830 H 0.65569 0.8569 0.49306 0.0
C831 C 0.68321 0.92696 0.43733 0.0
C832 C 0.74459 0.58421 0.01235 0.0
C833 C 0.70935 0.55128 0.01238 0.0
H834 H 0.79832 0.61663 0.99005 0.0
C835 C 0.70125 0.52499 0.98986 0.0
H836 H 0.75121 0.60475 0.02968 0.0
C837 C 0.72785 0.53171 0.96715 0.0
C838 C 0.76316 0.56487 0.96662 0.0
H839 H 0.67404 0.49951 0.98949 0.0
H840 H 0.72037 0.51124 0.94949 0.0
C841 C 0.7713 0.591 0.9896 0.0
C842 C 0.10175 0.60829 0.47783 0.0
C843 C 0.10449 0.57786 0.47942 0.0
H844 H 0.1223 0.66134 0.45632 0.0
C845 C 0.1293 0.57682 0.45909 0.0
H846 H 0.08284 0.60952 0.49357 0.0
C847 C 0.15169 0.60616 0.43776 0.0
C848 C 0.1498 0.6372 0.43651 0.0
H849 H 0.13167 0.55345 0.46005 0.0
H850 H 0.17062 0.6046 0.42234 0.0
C851 C 0.1242 0.63774 0.45648 0.0
C852 C 0.5208 0.16387 0.00225 0.0
C853 C 0.50206 0.12586 0.00371 0.0
H854 H 0.52881 0.21078 0.97565 0.0
C855 C 0.47414 0.10541 0.98011 0.0
H856 H 0.54251 0.18008 0.02027 0.0
C857 C 0.46704 0.12287 0.95396 0.0
C858 C 0.48745 0.16116 0.9512 0.0
H859 H 0.45979 0.07605 0.9806 0.0
H860 H 0.44738 0.10631 0.93487 0.0
C861 C 0.51322 0.18135 0.97648 0.0
C862 C 0.46424 0.51849 0.44176 0.0
C863 C 0.4788 0.49743 0.45211 0.0
H864 H 0.43018 0.5265 0.40698 0.0
C865 C 0.47091 0.46832 0.43298 0.0
H866 H 0.4702 0.54148 0.4555 0.0
C867 C 0.44869 0.46032 0.40437 0.0
C868 C 0.43376 0.48116 0.39433 0.0
H869 H 0.48136 0.45129 0.44037 0.0
H870 H 0.44319 0.43779 0.39016 0.0
C871 C 0.44182 0.5103 0.41345 0.0
C872 C 0.0513 0.43711 0.88854 0.0
C873 C 0.06419 0.42808 0.91742 0.0
H874 H 0.01466 0.41721 0.84623 0.0
C875 C 0.053 0.39182 0.92385 0.0
H876 H 0.05935 0.46486 0.88315 0.0
C877 C 0.02771 0.36473 0.9027 0.0
C878 C 0.01296 0.3734 0.8749 0.0
H879 H 0.06277 0.38426 0.94585 0.0
H880 H 0.01798 0.33671 0.90919 0.0
C881 C 0.02567 0.40992 0.86753 0.0
C882 C 0.03285 0.5583 0.94971 0.0
C883 C 0.05628 0.58145 0.97442 0.0
H884 H 0.98503 0.54175 0.91811 0.0
C885 C 0.04989 0.60693 0.98609 0.0
H886 H 0.03738 0.53834 0.94066 0.0
C887 C 0.01978 0.60884 0.97341 0.0
C888 C 0.99552 0.58491 0.94924 0.0
H889 H 0.06763 0.62466 0.00551 0.0
H890 H 0.01495 0.62837 0.98297 0.0
C891 C 0.00271 0.55998 0.93724 0.0
C892 C 0.46975 0.97655 0.45571 0.0
C893 C 0.49099 0.96314 0.46934 0.0
H894 H 0.42689 0.96883 0.42087 0.0
C895 C 0.48467 0.9306 0.45842 0.0
H896 H 0.47421 0.00162 0.46403 0.0
C897 C 0.4571 0.91133 0.43451 0.0
C898 C 0.43567 0.92457 0.42051 0.0
H899 H 0.50072 0.91978 0.46884 0.0
H900 H 0.45203 0.88554 0.42767 0.0
C901 C 0.44254 0.95761 0.43125 0.0
C902 C 0.50938 0.36004 0.96925 0.0
C903 C 0.53142 0.39796 0.96362 0.0
H904 H 0.48413 0.30745 0.94902 0.0
C905 C 0.54334 0.4118 0.93175 0.0
H906 H 0.49945 0.34854 0.99346 0.0
C907 C 0.53441 0.38829 0.90632 0.0
C908 C 0.51323 0.35041 0.91211 0.0
H909 H 0.56063 0.44085 0.92664 0.0
H910 H 0.54446 0.39981 0.88213 0.0
C911 C 0.50028 0.33651 0.94374 0.0
C912 C 0.13247 0.41517 0.44901 0.0
C913 C 0.1103 0.42978 0.44355 0.0
H914 H 0.16978 0.40329 0.42854 0.0
C915 C 0.1078 0.44259 0.41192 0.0
H916 H 0.13479 0.40499 0.47311 0.0
C917 C 0.12797 0.44183 0.38649 0.0
C918 C 0.15062 0.42777 0.39208 0.0
H919 H 0.09122 0.45432 0.40709 0.0
H920 H 0.12615 0.45254 0.36251 0.0
C921 C 0.15223 0.41395 0.42347 0.0
C922 C 0.69693 0.08556 0.01585 0.0
C923 C 0.67651 0.10044 0.02395 0.0
H924 H 0.73724 0.08886 0.98415 0.0
C925 C 0.68375 0.13257 0.00779 0.0
H926 H 0.6913 0.06047 0.02777 0.0
C927 C 0.71022 0.14909 0.98332 0.0
C928 C 0.72947 0.13338 0.97386 0.0
H929 H 0.66794 0.14425 0.01334 0.0
H930 H 0.71489 0.17375 0.97122 0.0
C931 C 0.72319 0.10187 0.99096 0.0
C932 C 0.67039 0.68397 0.50827 0.0
C933 C 0.64428 0.64649 0.50553 0.0
H934 H 0.69843 0.73639 0.48377 0.0
C935 C 0.62755 0.63256 0.47502 0.0
H936 H 0.68375 0.69506 0.53167 0.0
C937 C 0.6361 0.65591 0.44765 0.0
C938 C 0.66156 0.69368 0.4503 0.0
H939 H 0.60756 0.6036 0.47248 0.0
H940 H 0.62268 0.64437 0.4244 0.0
C941 C 0.67896 0.70744 0.48086 0.0
C942 C 0.50492 0.08164 0.64151 0.0
C943 C 0.54082 0.10007 0.62799 0.0
H944 H 0.4679 0.08406 0.67315 0.0
C945 C 0.56646 0.13689 0.63477 0.0
H946 H 0.48442 0.05334 0.63643 0.0
C947 C 0.55697 0.15446 0.65572 0.0
C948 C 0.52155 0.13565 0.67017 0.0
H949 H 0.5944 0.15174 0.6249 0.0
H950 H 0.57757 0.18267 0.66101 0.0
C951 C 0.49534 0.09928 0.6623 0.0
C952 C 0.49624 0.49037 0.1708 0.0
C953 C 0.48497 0.47236 0.1412 0.0
H954 H 0.47885 0.50051 0.21473 0.0
C955 C 0.4466 0.44955 0.13329 0.0
H956 H 0.52583 0.508 0.17726 0.0
C957 C 0.41971 0.44539 0.15448 0.0
C958 C 0.4308 0.46396 0.18397 0.0
H959 H 0.43752 0.43548 0.11047 0.0
H960 H 0.39028 0.42836 0.14736 0.0
C961 C 0.4694 0.48625 0.19202 0.0
C962 C 0.97035 0.37973 0.66002 0.0
C963 C 0.97225 0.36494 0.63137 0.0
H964 H 0.95175 0.3697 0.70915 0.0
C965 C 0.95566 0.32726 0.63034 0.0
H966 H 0.98342 0.40883 0.66141 0.0
C967 C 0.93711 0.30463 0.65754 0.0
C968 C 0.93509 0.31935 0.68639 0.0
H969 H 0.95729 0.31541 0.60855 0.0
H970 H 0.92413 0.2756 0.65588 0.0
C971 C 0.95203 0.35724 0.68723 0.0
C972 C 0.63571 0.94177 0.14877 0.0
C973 C 0.61792 0.95596 0.16425 0.0
H974 H 0.66059 0.91033 0.15436 0.0
C975 C 0.61182 0.94935 0.19794 0.0
H976 H 0.64093 0.94673 0.12283 0.0
C977 C 0.6227 0.92843 0.21575 0.0
C978 C 0.64026 0.91404 0.2003 0.0
H979 H 0.59796 0.95978 0.21041 0.0
H980 H 0.61742 0.92352 0.24168 0.0
C981 C 0.64713 0.92122 0.16675 0.0
C982 C 0.67615 0.5404 0.72363 0.0
C983 C 0.67197 0.56868 0.71191 0.0
H984 H 0.70229 0.5229 0.75866 0.0
C985 C 0.68768 0.60011 0.73025 0.0
H986 H 0.66369 0.51551 0.71041 0.0
C987 C 0.70931 0.6041 0.75859 0.0
C988 C 0.71556 0.57672 0.76907 0.0
H989 H 0.68481 0.62232 0.72187 0.0
H990 H 0.72237 0.6292 0.77154 0.0
C991 C 0.69775 0.5444 0.75175 0.0
C992 C 0.18955 0.68194 0.13596 0.0
C993 C 0.21347 0.67614 0.11884 0.0
H994 H 0.18455 0.70934 0.17484 0.0
C995 C 0.25234 0.69731 0.12571 0.0
H996 H 0.15954 0.66636 0.13079 0.0
C997 C 0.2667 0.72216 0.15071 0.0
C998 C 0.24247 0.72638 0.1691 0.0
H999 H 0.27142 0.69335 0.11295 0.0
H1000 H 0.29656 0.73701 0.15654 0.0
C1001 C 0.20393 0.7069 0.16084 0.0
loop_
_geom_bond_atom_site_label_1
_geom_bond_atom_site_label_2
_geom_bond_distance
_geom_bond_site_symmetry_2
_ccdc_geom_bond_type
C0 C1 1.443 . S
C0 N4 1.392 . S
C0 C38 1.389 . S
C1 C0 1.443 . S
C1 C2 1.340 1_556 S
C1 H41 0.951 . S
C2 C1 1.340 1_554 S
C2 C3 1.439 . S
C2 H42 0.950 . S
C3 C2 1.439 . S
C3 N4 1.360 1_554 S
C3 C37 1.395 . S
N4 C0 1.392 . S
N4 C3 1.360 1_556 S
N4 Co5 2.009 1_556 S
Co5 N4 2.009 1_554 S
Co5 N6 1.997 . S
Co5 N11 2.008 . S
Co5 N16 1.992 1_554 S
Co5 N21 2.285 . S
Co5 N27 2.280 1_554 S
N6 Co5 1.997 . S
N6 C7 1.376 . S
N6 C10 1.383 . S
C7 N6 1.376 . S
C7 C8 1.446 . S
C7 C37 1.391 . S
C8 C7 1.446 . S
C8 C9 1.339 . S
C8 H43 0.949 . S
C9 C8 1.339 . S
C9 C10 1.439 . S
C9 H44 0.950 . S
C10 N6 1.383 . S
C10 C9 1.439 . S
C10 C39 1.392 . S
N11 Co5 2.008 . S
N11 C12 1.376 . S
N11 C15 1.374 1_554 S
C12 N11 1.376 . S
C12 C13 1.443 . S
C12 C39 1.389 . S
C13 C12 1.443 . S
C13 C14 1.340 1_554 S
C13 H45 0.951 . S
C14 C13 1.340 1_556 S
C14 C15 1.439 . S
C14 H46 0.950 . S
C15 N11 1.374 1_556 S
C15 C14 1.439 . S
C15 C40 1.395 . S
N16 Co5 1.992 1_556 S
N16 C17 1.376 . S
N16 C20 1.383 . S
C17 N16 1.376 . S
C17 C18 1.446 . S
C17 C40 1.391 . S
C18 C17 1.446 . S
C18 C19 1.339 . S
C18 H47 0.949 . S
C19 C18 1.339 . S
C19 C20 1.439 . S
C19 H48 0.950 . S
C20 N16 1.383 . S
C20 C19 1.439 . S
C20 C38 1.392 . S
N21 Co5 2.285 . S
N21 C24 1.332 . S
N21 C26 1.332 . S
C22 C23 1.386 . S
C22 C25 1.388 . S
C23 C22 1.386 . S
C23 C24 1.382 . S
C23 H49 0.950 . S
C24 N21 1.332 . S
C24 C23 1.382 . S
C24 H35 0.952 . S
C25 C22 1.388 . S
C25 C26 1.382 . S
C25 H50 0.950 . S
C26 N21 1.332 . S
C26 C25 1.382 . S
C26 H36 0.948 . S
N27 Co5 2.280 1_556 S
N27 C31 1.332 . S
N27 C32 1.332 . S
C28 C29 1.388 . S
C28 C32 1.382 . S
C28 H51 0.950 . S
C29 C28 1.388 . S
C29 C30 1.386 . S
C30 C29 1.386 . S
C30 C31 1.382 . S
C30 H52 0.950 . S
C31 N27 1.332 . S
C31 C30 1.382 . S
C31 H33 0.952 . S
C32 N27 1.332 . S
C32 C28 1.382 . S
C32 H34 0.948 . S
H33 C31 0.952 . S
H34 C32 0.948 . S
H35 C24 0.952 . S
H36 C26 0.948 . S
C37 C3 1.395 . S
C37 C7 1.391 . S
C38 C0 1.389 . S
C38 C20 1.392 . S
C39 C10 1.392 . S
C39 C12 1.389 . S
C40 C15 1.395 . S
C40 C17 1.391 . S
H41 C1 0.951 . S
H42 C2 0.950 . S
H43 C8 0.949 . S
H44 C9 0.950 . S
H45 C13 0.951 . S
H46 C14 0.950 . S
H47 C18 0.949 . S
H48 C19 0.950 . S
H49 C23 0.950 . S
H50 C25 0.950 . S
H51 C28 0.950 . S
H52 C30 0.950 . S
C53 C54 1.443 . S
C53 N57 1.376 1_545 S
C53 C91 1.389 . S
C54 C53 1.443 . S
C54 C55 1.340 1_545 S
C54 H94 0.951 . S
C55 C54 1.340 1_565 S
C55 C56 1.439 . S
C55 H95 0.950 . S
C56 C55 1.439 . S
C56 N57 1.374 . S
C56 C90 1.395 . S
N57 C53 1.376 1_565 S
N57 C56 1.374 . S
N57 Co58 2.008 1_565 S
Co58 N57 2.008 1_545 S
Co58 N59 1.995 1_545 S
Co58 N64 2.008 . S
Co58 N69 1.995 . S
Co58 N74 2.282 1_545 S
Co58 N80 2.282 . S
N59 Co58 1.995 1_565 S
N59 C60 1.376 . S
N59 C63 1.383 . S
C60 N59 1.376 . S
C60 C61 1.446 . S
C60 C90 1.391 . S
C61 C60 1.446 . S
C61 C62 1.339 . S
C61 H96 0.949 . S
C62 C61 1.339 . S
C62 C63 1.439 . S
C62 H97 0.950 . S
C63 N59 1.383 . S
C63 C62 1.439 . S
C63 C92 1.392 . S
N64 Co58 2.008 . S
N64 C65 1.376 1_545 S
N64 C68 1.374 . S
C65 N64 1.376 1_565 S
C65 C66 1.443 1_565 S
C65 C92 1.389 . S
C66 C65 1.443 1_545 S
C66 C67 1.340 . S
C66 H98 0.951 . S
C67 C66 1.340 . S
C67 C68 1.439 . S
C67 H99 0.950 . S
C68 N64 1.374 . S
C68 C67 1.439 . S
C68 C93 1.395 . S
N69 Co58 1.995 . S
N69 C70 1.376 . S
N69 C73 1.383 . S
C70 N69 1.376 . S
C70 C71 1.446 . S
C70 C93 1.391 . S
C71 C70 1.446 . S
C71 C72 1.339 . S
C71 H100 0.949 . S
C72 C71 1.339 . S
C72 C73 1.439 . S
C72 H101 0.950 . S
C73 N69 1.383 . S
C73 C72 1.439 . S
C73 C91 1.392 . S
N74 Co58 2.282 1_565 S
N74 C77 1.332 . S
N74 C79 1.332 . S
C75 C76 1.386 . S
C75 C78 1.388 . S
C76 C75 1.386 . S
C76 C77 1.382 . S
C76 H102 0.950 . S
C77 N74 1.332 . S
C77 C76 1.382 . S
C77 H88 0.952 1_565 S
C78 C75 1.388 . S
C78 C79 1.382 . S
C78 H103 0.950 . S
C79 N74 1.332 . S
C79 C78 1.382 . S
C79 H89 0.948 . S
N80 Co58 2.282 . S
N80 C84 1.332 . S
N80 C85 1.332 . S
C81 C82 1.388 . S
C81 C85 1.382 . S
C81 H104 0.950 . S
C82 C81 1.388 . S
C82 C83 1.386 . S
C83 C82 1.386 . S
C83 C84 1.382 . S
C83 H105 0.950 . S
C84 N80 1.332 . S
C84 C83 1.382 . S
C84 H86 0.952 1_545 S
C85 N80 1.332 . S
C85 C81 1.382 . S
C85 H87 0.948 . S
H86 C84 0.952 1_565 S
H87 C85 0.948 . S
H88 C77 0.952 1_545 S
H89 C79 0.948 . S
C90 C56 1.395 . S
C90 C60 1.391 . S
C91 C53 1.389 . S
C91 C73 1.392 . S
C92 C63 1.392 . S
C92 C65 1.389 . S
C93 C68 1.395 . S
C93 C70 1.391 . S
H94 C54 0.951 . S
H95 C55 0.950 . S
H96 C61 0.949 . S
H97 C62 0.950 . S
H98 C66 0.951 . S
H99 C67 0.950 . S
H100 C71 0.949 . S
H101 C72 0.950 . S
H102 C76 0.950 . S
H103 C78 0.950 . S
H104 C81 0.950 . S
H105 C83 0.950 . S
C106 C107 1.443 . S
C106 N110 1.376 . S
C106 C144 1.389 . S
C107 C106 1.443 . S
C107 C108 1.340 . S
C107 H147 0.951 1_554 S
C108 C107 1.340 . S
C108 C109 1.439 . S
C108 H148 0.950 1_554 S
C109 C108 1.439 . S
C109 N110 1.374 . S
C109 C143 1.395 . S
N110 C106 1.376 . S
N110 C109 1.374 . S
N110 Co111 2.008 . S
Co111 N110 2.008 . S
Co111 N112 1.995 . S
Co111 N117 2.008 . S
Co111 N122 1.995 . S
Co111 N127 2.282 . S
Co111 N133 2.282 . S
N112 Co111 1.995 . S
N112 C113 1.376 . S
N112 C116 1.383 . S
C113 N112 1.376 . S
C113 C114 1.446 . S
C113 C143 1.391 . S
C114 C113 1.446 . S
C114 C115 1.339 . S
C114 H149 0.949 . S
C115 C114 1.339 . S
C115 C116 1.439 . S
C115 H150 0.950 . S
C116 N112 1.383 . S
C116 C115 1.439 . S
C116 C145 1.392 . S
N117 Co111 2.008 . S
N117 C118 1.376 . S
N117 C121 1.374 . S
C118 N117 1.376 . S
C118 C119 1.443 . S
C118 C145 1.389 . S
C119 C118 1.443 . S
C119 C120 1.340 . S
C119 H151 0.951 . S
C120 C119 1.340 . S
C120 C121 1.439 . S
C120 H152 0.950 . S
C121 N117 1.374 . S
C121 C120 1.439 . S
C121 C146 1.395 . S
N122 Co111 1.995 . S
N122 C123 1.376 . S
N122 C126 1.383 . S
C123 N122 1.376 . S
C123 C124 1.446 . S
C123 C146 1.391 . S
C124 C123 1.446 . S
C124 C125 1.339 . S
C124 H153 0.949 . S
C125 C124 1.339 . S
C125 C126 1.439 . S
C125 H154 0.950 . S
C126 N122 1.383 . S
C126 C125 1.439 . S
C126 C144 1.392 . S
N127 Co111 2.282 . S
N127 C130 1.332 . S
N127 C132 1.332 . S
C128 C129 1.386 . S
C128 C131 1.388 . S
C129 C128 1.386 . S
C129 C130 1.382 . S
C129 H155 0.950 . S
C130 N127 1.332 . S
C130 C129 1.382 . S
C130 H141 0.952 . S
C131 C128 1.388 . S
C131 C132 1.382 . S
C131 H156 0.950 . S
C132 N127 1.332 . S
C132 C131 1.382 . S
C132 H142 0.948 . S
N133 Co111 2.282 . S
N133 C137 1.332 . S
N133 C138 1.332 . S
C134 C135 1.388 . S
C134 C138 1.382 . S
C134 H157 0.950 . S
C135 C134 1.388 . S
C135 C136 1.386 . S
C136 C135 1.386 . S
C136 C137 1.382 . S
C136 H158 0.950 1_554 S
C137 N133 1.332 . S
C137 C136 1.382 . S
C137 H139 0.952 . S
C138 N133 1.332 . S
C138 C134 1.382 . S
C138 H140 0.948 . S
H139 C137 0.952 . S
H140 C138 0.948 . S
H141 C130 0.952 . S
H142 C132 0.948 . S
C143 C109 1.395 . S
C143 C113 1.391 . S
C144 C106 1.389 . S
C144 C126 1.392 . S
C145 C116 1.392 . S
C145 C118 1.389 . S
C146 C121 1.395 . S
C146 C123 1.391 . S
H147 C107 0.951 1_556 S
H148 C108 0.950 1_556 S
H149 C114 0.949 . S
H150 C115 0.950 . S
H151 C119 0.951 . S
H152 C120 0.950 . S
H153 C124 0.949 . S
H154 C125 0.950 . S
H155 C129 0.950 . S
H156 C131 0.950 . S
H157 C134 0.950 . S
H158 C136 0.950 1_556 S
C159 C160 1.443 . S
C159 N163 1.376 . S
C159 C197 1.389 . S
C160 C159 1.443 . S
C160 C161 1.340 . S
C160 H200 0.951 . S
C161 C160 1.340 . S
C161 C162 1.439 . S
C161 H201 0.950 . S
C162 C161 1.439 . S
C162 N163 1.374 . S
C162 C196 1.395 . S
N163 C159 1.376 . S
N163 C162 1.374 . S
N163 Co164 2.008 1_655 S
Co164 N163 2.008 1_455 S
Co164 N165 1.995 1_455 S
Co164 N170 2.008 . S
Co164 N175 1.995 . S
Co164 N180 2.282 . S
Co164 N186 2.282 1_455 S
N165 Co164 1.995 1_655 S
N165 C166 1.376 . S
N165 C169 1.383 1_655 S
C166 N165 1.376 . S
C166 C167 1.446 . S
C166 C196 1.391 . S
C167 C166 1.446 . S
C167 C168 1.339 . S
C167 H202 0.949 . S
C168 C167 1.339 . S
C168 C169 1.439 1_655 S
C168 H203 0.950 1_655 S
C169 N165 1.383 1_455 S
C169 C168 1.439 1_455 S
C169 C198 1.392 . S
N170 Co164 2.008 . S
N170 C171 1.376 . S
N170 C174 1.374 . S
C171 N170 1.376 . S
C171 C172 1.443 . S
C171 C198 1.389 . S
C172 C171 1.443 . S
C172 C173 1.340 . S
C172 H204 0.951 . S
C173 C172 1.340 . S
C173 C174 1.439 . S
C173 H205 0.950 . S
C174 N170 1.374 . S
C174 C173 1.439 . S
C174 C199 1.395 . S
N175 Co164 1.995 . S
N175 C176 1.376 . S
N175 C179 1.383 1_455 S
C176 N175 1.376 . S
C176 C177 1.446 . S
C176 C199 1.391 . S
C177 C176 1.446 . S
C177 C178 1.339 . S
C177 H206 0.949 . S
C178 C177 1.339 . S
C178 C179 1.439 1_455 S
C178 H207 0.950 . S
C179 N175 1.383 1_655 S
C179 C178 1.439 1_655 S
C179 C197 1.392 . S
N180 Co164 2.282 . S
N180 C183 1.332 . S
N180 C185 1.332 . S
C181 C182 1.386 . S
C181 C184 1.388 . S
C182 C181 1.386 . S
C182 C183 1.382 . S
C182 H208 0.950 . S
C183 N180 1.332 . S
C183 C182 1.382 . S
C183 H194 0.952 . S
C184 C181 1.388 . S
C184 C185 1.382 . S
C184 H209 0.950 . S
C185 N180 1.332 . S
C185 C184 1.382 . S
C185 H195 0.948 1_455 S
N186 Co164 2.282 1_655 S
N186 C190 1.332 . S
N186 C191 1.332 . S
C187 C188 1.388 . S
C187 C191 1.382 . S
C187 H210 0.950 . S
C188 C187 1.388 . S
C188 C189 1.386 . S
C189 C188 1.386 . S
C189 C190 1.382 . S
C189 H211 0.950 . S
C190 N186 1.332 . S
C190 C189 1.382 . S
C190 H192 0.952 . S
C191 N186 1.332 . S
C191 C187 1.382 . S
C191 H193 0.948 1_655 S
H192 C190 0.952 . S
H193 C191 0.948 1_455 S
H194 C183 0.952 . S
H195 C185 0.948 1_655 S
C196 C162 1.395 . S
C196 C166 1.391 . S
C197 C159 1.389 . S
C197 C179 1.392 . S
C198 C169 1.392 . S
C198 C171 1.389 . S
C199 C174 1.395 . S
C199 C176 1.391 . S
H200 C160 0.951 . S
H201 C161 0.950 . S
H202 C167 0.949 . S
H203 C168 0.950 1_455 S
H204 C172 0.951 . S
H205 C173 0.950 . S
H206 C177 0.949 . S
H207 C178 0.950 . S
H208 C182 0.950 . S
H209 C184 0.950 . S
H210 C187 0.950 . S
H211 C189 0.950 . S
C212 C213 1.443 . S
C212 N216 1.376 . S
C212 C250 1.389 . S
C213 C212 1.443 . S
C213 C214 1.340 . S
C213 H253 0.951 . S
C214 C213 1.340 . S
C214 C215 1.439 . S
C214 H254 0.950 . S
C215 C214 1.439 . S
C215 N216 1.374 . S
C215 C249 1.395 . S
N216 C212 1.376 . S
N216 C215 1.374 . S
N216 Co217 2.008 . S
Co217 N216 2.008 . S
Co217 N218 1.995 . S
Co217 N223 2.008 . S
Co217 N228 1.995 . S
Co217 N233 2.282 . S
Co217 N239 2.282 . S
N218 Co217 1.995 . S
N218 C219 1.376 . S
N218 C222 1.383 . S
C219 N218 1.376 . S
C219 C220 1.446 . S
C219 C249 1.391 . S
C220 C219 1.446 . S
C220 C221 1.339 . S
C220 H255 0.949 . S
C221 C220 1.339 . S
C221 C222 1.439 . S
C221 H256 0.950 . S
C222 N218 1.383 . S
C222 C221 1.439 . S
C222 C251 1.392 . S
N223 Co217 2.008 . S
N223 C224 1.376 . S
N223 C227 1.374 . S
C224 N223 1.376 . S
C224 C225 1.443 1_554 S
C224 C251 1.389 . S
C225 C224 1.443 1_556 S
C225 C226 1.338 1_556 S
C225 H257 0.951 . S
C226 C225 1.338 1_554 S
C226 C227 1.472 . S
C226 H258 0.924 1_544 S
C227 N223 1.374 . S
C227 C226 1.472 . S
C227 C252 1.395 1_545 S
N228 Co217 1.995 . S
N228 C229 1.376 1_545 S
N228 C232 1.383 1_545 S
C229 N228 1.376 1_565 S
C229 C230 1.446 . S
C229 C252 1.391 . S
C230 C229 1.446 . S
C230 C231 1.339 . S
C230 H259 0.949 . S
C231 C230 1.339 . S
C231 C232 1.439 . S
C231 H260 0.950 . S
C232 N228 1.383 1_565 S
C232 C231 1.439 . S
C232 C250 1.392 1_565 S
N233 Co217 2.282 . S
N233 C236 1.332 . S
N233 C238 1.332 . S
C234 C235 1.386 . S
C234 C237 1.388 . S
C235 C234 1.386 . S
C235 C236 1.382 . S
C235 H261 0.950 1_554 S
C236 N233 1.332 . S
C236 C235 1.382 . S
C236 H247 0.952 . S
C237 C234 1.388 . S
C237 C238 1.382 . S
C237 H262 0.950 . S
C238 N233 1.332 . S
C238 C237 1.382 . S
C238 H248 0.948 . S
N239 Co217 2.282 . S
N239 C243 1.332 . S
N239 C244 1.332 1_545 S
C240 C241 1.388 . S
C240 C244 1.382 . S
C240 H263 0.950 . S
C241 C240 1.388 . S
C241 C242 1.386 1_565 S
C242 C241 1.386 1_545 S
C242 C243 1.382 . S
C242 H264 0.950 . S
C243 N239 1.332 . S
C243 C242 1.382 . S
C243 H245 0.952 . S
C244 N239 1.332 1_565 S
C244 C240 1.382 . S
C244 H246 0.948 . S
H245 C243 0.952 . S
H246 C244 0.948 . S
H247 C236 0.952 . S
H248 C238 0.948 . S
C249 C215 1.395 . S
C249 C219 1.391 . S
C250 C212 1.389 . S
C250 C232 1.392 1_545 S
C251 C222 1.392 . S
C251 C224 1.389 . S
C252 C227 1.395 1_565 S
C252 C229 1.391 . S
H253 C213 0.951 . S
H254 C214 0.950 . S
H255 C220 0.949 . S
H256 C221 0.950 . S
H257 C225 0.951 . S
H258 C226 0.924 1_566 S
H259 C230 0.949 . S
H260 C231 0.950 . S
H261 C235 0.950 1_556 S
H262 C237 0.950 . S
H263 C240 0.950 . S
H264 C242 0.950 . S
C265 C266 1.443 . S
C265 N269 1.376 . S
C265 C303 1.389 . S
C266 C265 1.443 . S
C266 C267 1.340 . S
C266 H306 0.951 . S
C267 C266 1.340 . S
C267 C268 1.439 . S
C267 H307 0.950 . S
C268 C267 1.439 . S
C268 N269 1.374 . S
C268 C302 1.395 . S
N269 C265 1.376 . S
N269 C268 1.374 . S
N269 Co270 2.008 . S
Co270 N269 2.008 . S
Co270 N271 1.995 . S
Co270 N276 2.008 . S
Co270 N281 1.995 . S
Co270 N286 2.282 . S
Co270 N292 2.282 . S
N271 Co270 1.995 . S
N271 C272 1.376 . S
N271 C275 1.383 . S
C272 N271 1.376 . S
C272 C273 1.446 . S
C272 C302 1.391 . S
C273 C272 1.446 . S
C273 C274 1.339 . S
C273 H308 0.949 . S
C274 C273 1.339 . S
C274 C275 1.439 . S
C274 H309 0.950 . S
C275 N271 1.383 . S
C275 C274 1.439 . S
C275 C304 1.392 . S
N276 Co270 2.008 . S
N276 C277 1.376 . S
N276 C280 1.374 . S
C277 N276 1.376 . S
C277 C278 1.443 . S
C277 C304 1.389 . S
C278 C277 1.443 . S
C278 C279 1.340 . S
C278 H310 0.951 . S
C279 C278 1.340 . S
C279 C280 1.439 . S
C279 H311 0.950 . S
C280 N276 1.374 . S
C280 C279 1.439 . S
C280 C305 1.395 . S
N281 Co270 1.995 . S
N281 C282 1.376 . S
N281 C285 1.383 . S
C282 N281 1.376 . S
C282 C283 1.446 . S
C282 C305 1.391 . S
C283 C282 1.446 . S
C283 C284 1.339 . S
C283 H312 0.949 . S
C284 C283 1.339 . S
C284 C285 1.439 . S
C284 H313 0.950 . S
C285 N281 1.383 . S
C285 C284 1.439 . S
C285 C303 1.392 . S
N286 Co270 2.282 . S
N286 C289 1.332 . S
N286 C291 1.332 . S
C287 C288 1.386 . S
C287 C290 1.388 . S
C288 C287 1.386 . S
C288 C289 1.382 . S
C288 H314 0.950 . S
C289 N286 1.332 . S
C289 C288 1.382 . S
C289 H300 0.952 . S
C290 C287 1.388 . S
C290 C291 1.382 . S
C290 H315 0.950 . S
C291 N286 1.332 . S
C291 C290 1.382 . S
C291 H301 0.948 . S
N292 Co270 2.282 . S
N292 C296 1.332 . S
N292 C297 1.332 . S
C293 C294 1.388 . S
C293 C297 1.382 . S
C293 H316 0.950 . S
C294 C293 1.388 . S
C294 C295 1.386 . S
C295 C294 1.386 . S
C295 C296 1.382 . S
C295 H317 0.950 . S
C296 N292 1.332 . S
C296 C295 1.382 . S
C296 H298 0.952 . S
C297 N292 1.332 . S
C297 C293 1.382 . S
C297 H299 0.948 . S
H298 C296 0.952 . S
H299 C297 0.948 . S
H300 C289 0.952 . S
H301 C291 0.948 . S
C302 C268 1.395 . S
C302 C272 1.391 . S
C303 C265 1.389 . S
C303 C285 1.392 . S
C304 C275 1.392 . S
C304 C277 1.389 . S
C305 C280 1.395 . S
C305 C282 1.391 . S
H306 C266 0.951 . S
H307 C267 0.950 . S
H308 C273 0.949 . S
H309 C274 0.950 . S
H310 C278 0.951 . S
H311 C279 0.950 . S
H312 C283 0.949 . S
H313 C284 0.950 . S
H314 C288 0.950 . S
H315 C290 0.950 . S
H316 C293 0.950 . S
H317 C295 0.950 . S
H318 O344 0.856 . S
H319 O347 0.854 . S
H320 C355 0.930 . S
H321 C356 0.930 . S
H322 C358 0.930 . S
H323 C359 0.930 . S
H324 C361 0.931 . S
H325 C362 0.930 . S
H326 C364 0.930 . S
H327 C365 0.929 . S
H328 C367 0.930 . S
H329 C368 0.931 . S
H330 C370 0.930 . S
H331 C371 0.929 . S
H332 C373 0.931 . S
H333 C374 0.930 . S
H334 C376 0.930 . S
H335 C377 0.932 . S
H336 C379 0.930 . S
H337 C380 0.929 . S
H338 C382 0.931 . S
H339 C383 0.930 . S
H340 C385 0.929 . S
H341 C386 0.931 . S
H342 C388 0.930 . S
H343 C389 0.929 . S
O344 H318 0.856 . S
O344 C390 1.300 . S
O345 C390 1.209 . S
O346 C391 1.199 . S
O347 H319 0.854 . S
O347 C391 1.297 . S
C348 C349 1.404 . S
C348 C353 1.397 . S
C348 C354 1.492 . S
C349 C348 1.404 . S
C349 C350 1.396 . S
C349 C360 1.492 . S
C350 C349 1.396 . S
C350 C351 1.397 . S
C350 C366 1.509 . S
C351 C350 1.397 . S
C351 C352 1.412 . S
C351 C372 1.485 . S
C352 C351 1.412 . S
C352 C353 1.388 . S
C352 C378 1.490 . S
C353 C348 1.397 . S
C353 C352 1.388 . S
C353 C384 1.519 . S
C354 C348 1.492 . S
C354 C355 1.363 . S
C354 C359 1.390 . S
C355 H320 0.930 . S
C355 C354 1.363 . S
C355 C356 1.372 . S
C356 H321 0.930 . S
C356 C355 1.372 . S
C356 C357 1.383 . S
C357 C356 1.383 . S
C357 C358 1.395 . S
C358 H322 0.930 . S
C358 C357 1.395 . S
C358 C359 1.362 . S
C359 H323 0.930 . S
C359 C354 1.390 . S
C359 C358 1.362 . S
C360 C349 1.492 . S
C360 C361 1.377 . S
C360 C365 1.397 . S
C361 H324 0.931 . S
C361 C360 1.377 . S
C361 C362 1.376 . S
C362 H325 0.930 . S
C362 C361 1.376 . S
C362 C363 1.376 . S
C363 C362 1.376 . S
C363 C364 1.378 . S
C363 C390 1.486 . S
C364 H326 0.930 . S
C364 C363 1.378 . S
C364 C365 1.376 . S
C365 H327 0.929 . S
C365 C360 1.397 . S
C365 C364 1.376 . S
C366 C350 1.509 . S
C366 C367 1.391 . S
C366 C371 1.386 . S
C367 H328 0.930 . S
C367 C366 1.391 . S
C367 C368 1.375 . S
C368 H329 0.931 . S
C368 C367 1.375 . S
C368 C369 1.375 . S
C369 C368 1.375 . S
C369 C370 1.361 . S
C370 H330 0.930 . S
C370 C369 1.361 . S
C370 C371 1.399 . S
C371 H331 0.929 . S
C371 C366 1.386 . S
C371 C370 1.399 . S
C372 C351 1.485 . S
C372 C373 1.394 . S
C372 C377 1.360 . S
C373 H332 0.931 . S
C373 C372 1.394 . S
C373 C374 1.372 . S
C374 H333 0.930 . S
C374 C373 1.372 . S
C374 C375 1.397 . S
C375 C374 1.397 . S
C375 C376 1.390 . S
C375 C391 1.476 . S
C376 H334 0.930 . S
C376 C375 1.390 . S
C376 C377 1.366 . S
C377 H335 0.932 . S
C377 C372 1.360 . S
C377 C376 1.366 . S
C378 C352 1.490 . S
C378 C379 1.380 . S
C378 C383 1.386 . S
C379 H336 0.930 . S
C379 C378 1.380 . S
C379 C380 1.381 . S
C380 H337 0.929 . S
C380 C379 1.381 . S
C380 C381 1.371 . S
C381 C380 1.371 . S
C381 C382 1.380 . S
C382 H338 0.931 . S
C382 C381 1.380 . S
C382 C383 1.387 . S
C383 H339 0.930 . S
C383 C378 1.386 . S
C383 C382 1.387 . S
C384 C353 1.519 . S
C384 C385 1.377 . S
C384 C389 1.361 . S
C385 H340 0.929 . S
C385 C384 1.377 . S
C385 C386 1.386 . S
C386 H341 0.931 . S
C386 C385 1.386 . S
C386 C387 1.363 . S
C387 C386 1.363 . S
C387 C388 1.385 . S
C388 H342 0.930 . S
C388 C387 1.385 . S
C388 C389 1.396 . S
C389 H343 0.929 . S
C389 C384 1.361 . S
C389 C388 1.396 . S
C390 O344 1.300 . S
C390 O345 1.209 . S
C390 C363 1.486 . S
C391 O346 1.199 . S
C391 O347 1.297 . S
C391 C375 1.476 . S
H392 O418 0.856 . S
H393 O421 0.854 . S
H394 C429 0.930 . S
H395 C430 0.930 . S
H396 C432 0.930 1_455 S
H397 C433 0.930 . S
H398 C435 0.931 . S
H399 C436 0.930 . S
H400 C438 0.930 . S
H401 C439 0.929 . S
H402 C441 0.930 . S
H403 C442 0.931 . S
H404 C444 0.930 . S
H405 C445 0.929 . S
H406 C447 0.931 . S
H407 C448 0.930 . S
H408 C450 0.930 . S
H409 C451 0.932 . S
H410 C453 0.930 . S
H411 C454 0.929 . S
H412 C456 0.931 . S
H413 C457 0.930 . S
H414 C459 0.929 . S
H415 C460 0.931 . S
H416 C462 0.930 . S
H417 C463 0.929 . S
O418 H392 0.856 . S
O418 C464 1.300 1_554 S
O419 C464 1.209 . S
O420 C465 1.199 . S
O421 H393 0.854 . S
O421 C465 1.297 1_565 S
C422 C423 1.404 . S
C422 C427 1.397 . S
C422 C428 1.492 . S
C423 C422 1.404 . S
C423 C424 1.396 . S
C423 C434 1.492 . S
C424 C423 1.396 . S
C424 C425 1.397 . S
C424 C440 1.509 . S
C425 C424 1.397 . S
C425 C426 1.412 . S
C425 C446 1.485 . S
C426 C425 1.412 . S
C426 C427 1.388 . S
C426 C452 1.490 . S
C427 C422 1.397 . S
C427 C426 1.388 . S
C427 C458 1.519 . S
C428 C422 1.492 . S
C428 C429 1.363 . S
C428 C433 1.390 . S
C429 H394 0.930 . S
C429 C428 1.363 . S
C429 C430 1.372 . S
C430 H395 0.930 . S
C430 C429 1.372 . S
C430 C431 1.383 . S
C431 C430 1.383 . S
C431 C432 1.395 . S
C432 H396 0.930 1_655 S
C432 C431 1.395 . S
C432 C433 1.362 . S
C433 H397 0.930 . S
C433 C428 1.390 . S
C433 C432 1.362 . S
C434 C423 1.492 . S
C434 C435 1.377 . S
C434 C439 1.397 . S
C435 H398 0.931 . S
C435 C434 1.377 . S
C435 C436 1.376 . S
C436 H399 0.930 . S
C436 C435 1.376 . S
C436 C437 1.376 . S
C437 C436 1.376 . S
C437 C438 1.378 . S
C437 C464 1.486 . S
C438 H400 0.930 . S
C438 C437 1.378 . S
C438 C439 1.376 . S
C439 H401 0.929 . S
C439 C434 1.397 . S
C439 C438 1.376 . S
C440 C424 1.509 . S
C440 C441 1.391 . S
C440 C445 1.386 . S
C441 H402 0.930 . S
C441 C440 1.391 . S
C441 C442 1.375 . S
C442 H403 0.931 . S
C442 C441 1.375 . S
C442 C443 1.375 . S
C443 C442 1.375 . S
C443 C444 1.361 . S
C444 H404 0.930 . S
C444 C443 1.361 . S
C444 C445 1.399 . S
C445 H405 0.929 . S
C445 C440 1.386 . S
C445 C444 1.399 . S
C446 C425 1.485 . S
C446 C447 1.394 . S
C446 C451 1.360 . S
C447 H406 0.931 . S
C447 C446 1.394 . S
C447 C448 1.372 . S
C448 H407 0.930 . S
C448 C447 1.372 . S
C448 C449 1.397 . S
C449 C448 1.397 . S
C449 C450 1.390 . S
C449 C465 1.476 . S
C450 H408 0.930 . S
C450 C449 1.390 . S
C450 C451 1.366 . S
C451 H409 0.932 . S
C451 C446 1.360 . S
C451 C450 1.366 . S
C452 C426 1.490 . S
C452 C453 1.380 . S
C452 C457 1.386 . S
C453 H410 0.930 . S
C453 C452 1.380 . S
C453 C454 1.381 . S
C454 H411 0.929 . S
C454 C453 1.381 . S
C454 C455 1.371 . S
C455 C454 1.371 . S
C455 C456 1.380 . S
C456 H412 0.931 . S
C456 C455 1.380 . S
C456 C457 1.387 . S
C457 H413 0.930 . S
C457 C452 1.386 . S
C457 C456 1.387 . S
C458 C427 1.519 . S
C458 C459 1.377 . S
C458 C463 1.361 . S
C459 H414 0.929 . S
C459 C458 1.377 . S
C459 C460 1.386 . S
C460 H415 0.931 . S
C460 C459 1.386 . S
C460 C461 1.363 . S
C461 C460 1.363 . S
C461 C462 1.385 . S
C462 H416 0.930 . S
C462 C461 1.385 . S
C462 C463 1.396 . S
C463 H417 0.929 . S
C463 C458 1.361 . S
C463 C462 1.396 . S
C464 O418 1.300 1_556 S
C464 O419 1.209 . S
C464 C437 1.486 . S
C465 O420 1.199 . S
C465 O421 1.297 1_545 S
C465 C449 1.476 . S
H466 O492 0.856 . S
H467 O495 0.854 . S
H468 C503 0.930 . S
H469 C504 0.930 . S
H470 C506 0.930 . S
H471 C507 0.930 . S
H472 C509 0.931 . S
H473 C510 0.930 . S
H474 C512 0.930 . S
H475 C513 0.929 . S
H476 C515 0.930 . S
H477 C516 0.931 . S
H478 C518 0.930 . S
H479 C519 0.929 . S
H480 C521 0.931 . S
H481 C522 0.930 . S
H482 C524 0.930 . S
H483 C525 0.932 . S
H484 C527 0.930 . S
H485 C528 0.929 . S
H486 C530 0.931 . S
H487 C531 0.930 . S
H488 C533 0.929 . S
H489 C534 0.931 . S
H490 C536 0.930 . S
H491 C537 0.929 . S
O492 H466 0.856 . S
O492 C538 1.300 . S
O493 C538 1.209 . S
O494 C539 1.199 . S
O495 H467 0.854 . S
O495 C539 1.297 . S
C496 C497 1.404 . S
C496 C501 1.397 . S
C496 C502 1.492 . S
C497 C496 1.404 . S
C497 C498 1.396 . S
C497 C508 1.492 . S
C498 C497 1.396 . S
C498 C499 1.397 . S
C498 C514 1.509 . S
C499 C498 1.397 . S
C499 C500 1.412 . S
C499 C520 1.485 . S
C500 C499 1.412 . S
C500 C501 1.388 . S
C500 C526 1.490 . S
C501 C496 1.397 . S
C501 C500 1.388 . S
C501 C532 1.519 . S
C502 C496 1.492 . S
C502 C503 1.363 . S
C502 C507 1.390 . S
C503 H468 0.930 . S
C503 C502 1.363 . S
C503 C504 1.372 . S
C504 H469 0.930 . S
C504 C503 1.372 . S
C504 C505 1.383 . S
C505 C504 1.383 . S
C505 C506 1.395 . S
C506 H470 0.930 . S
C506 C505 1.395 . S
C506 C507 1.362 . S
C507 H471 0.930 . S
C507 C502 1.390 . S
C507 C506 1.362 . S
C508 C497 1.492 . S
C508 C509 1.377 . S
C508 C513 1.397 . S
C509 H472 0.931 . S
C509 C508 1.377 . S
C509 C510 1.376 . S
C510 H473 0.930 . S
C510 C509 1.376 . S
C510 C511 1.376 . S
C511 C510 1.376 . S
C511 C512 1.378 . S
C511 C538 1.486 . S
C512 H474 0.930 . S
C512 C511 1.378 . S
C512 C513 1.376 . S
C513 H475 0.929 . S
C513 C508 1.397 . S
C513 C512 1.376 . S
C514 C498 1.509 . S
C514 C515 1.391 . S
C514 C519 1.386 . S
C515 H476 0.930 . S
C515 C514 1.391 . S
C515 C516 1.375 . S
C516 H477 0.931 . S
C516 C515 1.375 . S
C516 C517 1.375 . S
C517 C516 1.375 . S
C517 C518 1.361 . S
C518 H478 0.930 . S
C518 C517 1.361 . S
C518 C519 1.399 . S
C519 H479 0.929 . S
C519 C514 1.386 . S
C519 C518 1.399 . S
C520 C499 1.485 . S
C520 C521 1.394 . S
C520 C525 1.360 . S
C521 H480 0.931 . S
C521 C520 1.394 . S
C521 C522 1.372 . S
C522 H481 0.930 . S
C522 C521 1.372 . S
C522 C523 1.397 . S
C523 C522 1.397 . S
C523 C524 1.390 . S
C523 C539 1.476 1_565 S
C524 H482 0.930 . S
C524 C523 1.390 . S
C524 C525 1.366 . S
C525 H483 0.932 . S
C525 C520 1.360 . S
C525 C524 1.366 . S
C526 C500 1.490 . S
C526 C527 1.380 . S
C526 C531 1.386 . S
C527 H484 0.930 . S
C527 C526 1.380 . S
C527 C528 1.381 . S
C528 H485 0.929 . S
C528 C527 1.381 . S
C528 C529 1.371 . S
C529 C528 1.371 . S
C529 C530 1.380 . S
C530 H486 0.931 . S
C530 C529 1.380 . S
C530 C531 1.387 . S
C531 H487 0.930 . S
C531 C526 1.386 . S
C531 C530 1.387 . S
C532 C501 1.519 . S
C532 C533 1.377 . S
C532 C537 1.361 . S
C533 H488 0.929 . S
C533 C532 1.377 . S
C533 C534 1.386 . S
C534 H489 0.931 . S
C534 C533 1.386 . S
C534 C535 1.363 . S
C535 C534 1.363 . S
C535 C536 1.385 . S
C536 H490 0.930 . S
C536 C535 1.385 . S
C536 C537 1.396 . S
C537 H491 0.929 . S
C537 C532 1.361 . S
C537 C536 1.396 . S
C538 O492 1.300 . S
C538 O493 1.209 . S
C538 C511 1.486 . S
C539 O494 1.199 . S
C539 O495 1.297 . S
C539 C523 1.476 1_545 S
H540 O566 0.856 . S
H541 O569 0.854 . S
H542 C577 0.930 . S
H543 C578 0.930 . S
H544 C580 0.930 . S
H545 C581 0.930 . S
H546 C583 0.931 . S
H547 C584 0.930 . S
H548 C586 0.930 . S
H549 C587 0.929 . S
H550 C589 0.930 . S
H551 C590 0.931 1_455 S
H552 C592 0.930 . S
H553 C593 0.929 . S
H554 C595 0.931 . S
H555 C596 0.930 . S
H556 C598 0.927 . S
H557 C599 0.932 . S
H558 C601 0.930 . S
H559 C602 0.929 . S
H560 C604 0.931 . S
H561 C605 0.930 . S
H562 C607 0.929 . S
H563 C608 0.931 . S
H564 C610 0.930 . S
H565 C611 0.929 . S
O566 H540 0.856 . S
O566 C612 1.300 . S
O567 C612 1.209 . S
O568 C613 1.199 . S
O569 H541 0.854 . S
O569 C613 1.297 . S
C570 C571 1.404 . S
C570 C575 1.397 . S
C570 C576 1.492 . S
C571 C570 1.404 . S
C571 C572 1.396 . S
C571 C582 1.492 . S
C572 C571 1.396 . S
C572 C573 1.397 . S
C572 C588 1.509 . S
C573 C572 1.397 . S
C573 C574 1.412 . S
C573 C594 1.485 . S
C574 C573 1.412 . S
C574 C575 1.388 . S
C574 C600 1.490 . S
C575 C570 1.397 . S
C575 C574 1.388 . S
C575 C606 1.519 . S
C576 C570 1.492 . S
C576 C577 1.363 . S
C576 C581 1.390 . S
C577 H542 0.930 . S
C577 C576 1.363 . S
C577 C578 1.372 . S
C578 H543 0.930 . S
C578 C577 1.372 . S
C578 C579 1.383 . S
C579 C578 1.383 . S
C579 C580 1.395 . S
C580 H544 0.930 . S
C580 C579 1.395 . S
C580 C581 1.362 . S
C581 H545 0.930 . S
C581 C576 1.390 . S
C581 C580 1.362 . S
C582 C571 1.492 . S
C582 C583 1.377 . S
C582 C587 1.397 . S
C583 H546 0.931 . S
C583 C582 1.377 . S
C583 C584 1.376 . S
C584 H547 0.930 . S
C584 C583 1.376 . S
C584 C585 1.376 . S
C585 C584 1.376 . S
C585 C586 1.378 . S
C585 C612 1.486 . S
C586 H548 0.930 . S
C586 C585 1.378 . S
C586 C587 1.376 . S
C587 H549 0.929 . S
C587 C582 1.397 . S
C587 C586 1.376 . S
C588 C572 1.509 . S
C588 C589 1.391 . S
C588 C593 1.386 . S
C589 H550 0.930 . S
C589 C588 1.391 . S
C589 C590 1.375 . S
C590 H551 0.931 1_655 S
C590 C589 1.375 . S
C590 C591 1.375 . S
C591 C590 1.375 . S
C591 C592 1.361 . S
C592 H552 0.930 . S
C592 C591 1.361 . S
C592 C593 1.399 . S
C593 H553 0.929 . S
C593 C588 1.386 . S
C593 C592 1.399 . S
C594 C573 1.485 . S
C594 C595 1.394 1_655 S
C594 C599 1.360 . S
C595 H554 0.931 . S
C595 C594 1.394 1_455 S
C595 C596 1.372 . S
C596 H555 0.930 . S
C596 C595 1.372 . S
C596 C597 1.397 . S
C597 C596 1.397 . S
C597 C598 1.387 1_455 S
C597 C613 1.476 . S
C598 H556 0.927 . S
C598 C597 1.387 1_655 S
C598 C599 1.372 . S
C599 H557 0.932 . S
C599 C594 1.360 . S
C599 C598 1.372 . S
C600 C574 1.490 . S
C600 C601 1.380 . S
C600 C605 1.386 . S
C601 H558 0.930 . S
C601 C600 1.380 . S
C601 C602 1.381 . S
C602 H559 0.929 . S
C602 C601 1.381 . S
C602 C603 1.371 . S
C603 C602 1.371 . S
C603 C604 1.380 . S
C604 H560 0.931 . S
C604 C603 1.380 . S
C604 C605 1.387 . S
C605 H561 0.930 . S
C605 C600 1.386 . S
C605 C604 1.387 . S
C606 C575 1.519 . S
C606 C607 1.377 . S
C606 C611 1.361 . S
C607 H562 0.929 . S
C607 C606 1.377 . S
C607 C608 1.386 . S
C608 H563 0.931 . S
C608 C607 1.386 . S
C608 C609 1.363 . S
C609 C608 1.363 . S
C609 C610 1.385 . S
C610 H564 0.930 . S
C610 C609 1.385 . S
C610 C611 1.396 . S
C611 H565 0.929 . S
C611 C606 1.361 . S
C611 C610 1.396 . S
C612 O566 1.300 . S
C612 O567 1.209 . S
C612 C585 1.486 . S
C613 O568 1.199 . S
C613 O569 1.297 . S
C613 C597 1.476 . S
H614 O640 0.856 . S
H615 O643 0.854 . S
H616 C651 0.930 . S
H617 C652 0.930 . S
H618 C654 0.930 . S
H619 C655 0.930 . S
H620 C657 0.931 . S
H621 C658 0.930 . S
H622 C660 0.930 . S
H623 C661 0.929 . S
H624 C663 0.930 . S
H625 C664 0.931 . S
H626 C666 0.930 . S
H627 C667 0.929 . S
H628 C669 0.931 . S
H629 C670 0.930 . S
H630 C672 0.930 . S
H631 C673 0.932 . S
H632 C675 0.930 . S
H633 C676 0.929 . S
H634 C678 0.931 . S
H635 C679 0.930 . S
H636 C681 0.929 . S
H637 C682 0.931 . S
H638 C684 0.930 . S
H639 C685 0.929 . S
O640 H614 0.856 . S
O640 C686 1.300 . S
O641 C686 1.209 . S
O642 C687 1.199 . S
O643 H615 0.854 . S
O643 C687 1.297 . S
C644 C645 1.404 . S
C644 C649 1.397 . S
C644 C650 1.492 . S
C645 C644 1.404 . S
C645 C646 1.396 . S
C645 C656 1.492 . S
C646 C645 1.396 . S
C646 C647 1.397 . S
C646 C662 1.509 . S
C647 C646 1.397 . S
C647 C648 1.412 . S
C647 C668 1.485 . S
C648 C647 1.412 . S
C648 C649 1.388 . S
C648 C674 1.490 . S
C649 C644 1.397 . S
C649 C648 1.388 . S
C649 C680 1.519 . S
C650 C644 1.492 . S
C650 C651 1.363 . S
C650 C655 1.390 . S
C651 H616 0.930 . S
C651 C650 1.363 . S
C651 C652 1.372 . S
C652 H617 0.930 . S
C652 C651 1.372 . S
C652 C653 1.383 . S
C653 C652 1.383 . S
C653 C654 1.395 . S
C654 H618 0.930 . S
C654 C653 1.395 . S
C654 C655 1.362 . S
C655 H619 0.930 . S
C655 C650 1.390 . S
C655 C654 1.362 . S
C656 C645 1.492 . S
C656 C657 1.377 . S
C656 C661 1.397 . S
C657 H620 0.931 . S
C657 C656 1.377 . S
C657 C658 1.376 . S
C658 H621 0.930 . S
C658 C657 1.376 . S
C658 C659 1.376 . S
C659 C658 1.376 . S
C659 C660 1.378 . S
C659 C686 1.486 . S
C660 H622 0.930 . S
C660 C659 1.378 . S
C660 C661 1.376 . S
C661 H623 0.929 . S
C661 C656 1.397 . S
C661 C660 1.376 . S
C662 C646 1.509 . S
C662 C663 1.391 . S
C662 C667 1.386 . S
C663 H624 0.930 . S
C663 C662 1.391 . S
C663 C664 1.375 . S
C664 H625 0.931 . S
C664 C663 1.375 . S
C664 C665 1.375 . S
C665 C664 1.375 . S
C665 C666 1.361 . S
C666 H626 0.930 . S
C666 C665 1.361 . S
C666 C667 1.399 . S
C667 H627 0.929 . S
C667 C662 1.386 . S
C667 C666 1.399 . S
C668 C647 1.485 . S
C668 C669 1.394 . S
C668 C673 1.360 . S
C669 H628 0.931 . S
C669 C668 1.394 . S
C669 C670 1.372 . S
C670 H629 0.930 . S
C670 C669 1.372 . S
C670 C671 1.397 . S
C671 C670 1.397 . S
C671 C672 1.390 . S
C671 C687 1.476 . S
C672 H630 0.930 . S
C672 C671 1.390 . S
C672 C673 1.366 . S
C673 H631 0.932 . S
C673 C668 1.360 . S
C673 C672 1.366 . S
C674 C648 1.490 . S
C674 C675 1.380 . S
C674 C679 1.386 . S
C675 H632 0.930 . S
C675 C674 1.380 . S
C675 C676 1.381 . S
C676 H633 0.929 . S
C676 C675 1.381 . S
C676 C677 1.371 . S
C677 C676 1.371 . S
C677 C678 1.380 . S
C678 H634 0.931 . S
C678 C677 1.380 . S
C678 C679 1.387 . S
C679 H635 0.930 . S
C679 C674 1.386 . S
C679 C678 1.387 . S
C680 C649 1.519 . S
C680 C681 1.377 . S
C680 C685 1.361 . S
C681 H636 0.929 . S
C681 C680 1.377 . S
C681 C682 1.386 . S
C682 H637 0.931 . S
C682 C681 1.386 . S
C682 C683 1.363 . S
C683 C682 1.363 . S
C683 C684 1.385 . S
C684 H638 0.930 . S
C684 C683 1.385 . S
C684 C685 1.396 . S
C685 H639 0.929 . S
C685 C680 1.361 . S
C685 C684 1.396 . S
C686 O640 1.300 . S
C686 O641 1.209 . S
C686 C659 1.486 . S
C687 O642 1.199 . S
C687 O643 1.297 . S
C687 C671 1.476 . S
H688 O714 0.856 . S
H689 O717 0.854 1_565 S
H690 C725 0.930 . S
H691 C726 0.930 . S
H692 C728 0.930 . S
H693 C729 0.930 . S
H694 C731 0.931 . S
H695 C732 0.930 . S
H696 C734 0.930 . S
H697 C735 0.929 . S
H698 C737 0.930 . S
H699 C738 0.931 . S
H700 C740 0.930 . S
H701 C741 0.929 . S
H702 C743 0.931 . S
H703 C744 0.930 . S
H704 C746 0.930 . S
H705 C747 0.932 . S
H706 C749 0.930 . S
H707 C750 0.929 . S
H708 C752 0.931 . S
H709 C753 0.930 . S
H710 C755 0.929 . S
H711 C756 0.931 . S
H712 C758 0.930 . S
H713 C759 0.929 . S
O714 H688 0.856 . S
O714 C760 1.300 . S
O715 C760 1.209 . S
O716 C761 1.199 . S
O717 H689 0.854 1_545 S
O717 C761 1.297 . S
C718 C719 1.404 . S
C718 C723 1.397 . S
C718 C724 1.492 . S
C719 C718 1.404 . S
C719 C720 1.396 . S
C719 C730 1.492 . S
C720 C719 1.396 . S
C720 C721 1.397 . S
C720 C736 1.509 . S
C721 C720 1.397 . S
C721 C722 1.412 . S
C721 C742 1.485 . S
C722 C721 1.412 . S
C722 C723 1.388 . S
C722 C748 1.490 . S
C723 C718 1.397 . S
C723 C722 1.388 . S
C723 C754 1.519 . S
C724 C718 1.492 . S
C724 C725 1.363 . S
C724 C729 1.390 . S
C725 H690 0.930 . S
C725 C724 1.363 . S
C725 C726 1.372 . S
C726 H691 0.930 . S
C726 C725 1.372 . S
C726 C727 1.383 . S
C727 C726 1.383 . S
C727 C728 1.395 . S
C728 H692 0.930 . S
C728 C727 1.395 . S
C728 C729 1.362 . S
C729 H693 0.930 . S
C729 C724 1.390 . S
C729 C728 1.362 . S
C730 C719 1.492 . S
C730 C731 1.377 . S
C730 C735 1.397 . S
C731 H694 0.931 . S
C731 C730 1.377 . S
C731 C732 1.376 . S
C732 H695 0.930 . S
C732 C731 1.376 . S
C732 C733 1.376 . S
C733 C732 1.376 . S
C733 C734 1.378 . S
C733 C760 1.486 . S
C734 H696 0.930 . S
C734 C733 1.378 . S
C734 C735 1.376 . S
C735 H697 0.929 . S
C735 C730 1.397 . S
C735 C734 1.376 . S
C736 C720 1.509 . S
C736 C737 1.391 . S
C736 C741 1.386 . S
C737 H698 0.930 . S
C737 C736 1.391 . S
C737 C738 1.375 . S
C738 H699 0.931 . S
C738 C737 1.375 . S
C738 C739 1.375 . S
C739 C738 1.375 . S
C739 C740 1.361 . S
C740 H700 0.930 . S
C740 C739 1.361 . S
C740 C741 1.399 . S
C741 H701 0.929 . S
C741 C736 1.386 . S
C741 C740 1.399 . S
C742 C721 1.485 . S
C742 C743 1.394 . S
C742 C747 1.360 . S
C743 H702 0.931 . S
C743 C742 1.394 . S
C743 C744 1.372 . S
C744 H703 0.930 . S
C744 C743 1.372 . S
C744 C745 1.397 . S
C745 C744 1.397 . S
C745 C746 1.390 . S
C745 C761 1.476 . S
C746 H704 0.930 . S
C746 C745 1.390 . S
C746 C747 1.366 . S
C747 H705 0.932 . S
C747 C742 1.360 . S
C747 C746 1.366 . S
C748 C722 1.490 . S
C748 C749 1.380 . S
C748 C753 1.386 . S
C749 H706 0.930 . S
C749 C748 1.380 . S
C749 C750 1.381 . S
C750 H707 0.929 . S
C750 C749 1.381 . S
C750 C751 1.371 . S
C751 C750 1.371 . S
C751 C752 1.380 . S
C752 H708 0.931 . S
C752 C751 1.380 . S
C752 C753 1.387 . S
C753 H709 0.930 . S
C753 C748 1.386 . S
C753 C752 1.387 . S
C754 C723 1.519 . S
C754 C755 1.377 . S
C754 C759 1.361 . S
C755 H710 0.929 . S
C755 C754 1.377 . S
C755 C756 1.386 . S
C756 H711 0.931 . S
C756 C755 1.386 . S
C756 C757 1.363 . S
C757 C756 1.363 . S
C757 C758 1.385 . S
C758 H712 0.930 . S
C758 C757 1.385 . S
C758 C759 1.396 . S
C759 H713 0.929 . S
C759 C754 1.361 . S
C759 C758 1.396 . S
C760 O714 1.300 . S
C760 O715 1.209 . S
C760 C733 1.486 . S
C761 O716 1.199 . S
C761 O717 1.297 . S
C761 C745 1.476 . S
C762 C763 1.387 . S
C762 H766 0.950 . S
C762 C771 1.390 . S
C763 C762 1.387 . S
C763 C765 1.387 . S
H764 C771 0.950 . S
C765 C763 1.387 . S
C765 C767 1.390 . S
C765 H769 0.950 . S
H766 C762 0.950 . S
C767 C765 1.390 . S
C767 C768 1.387 . S
C767 H770 0.950 . S
C768 C767 1.387 . S
C768 C771 1.387 . S
H769 C765 0.950 . S
H770 C767 0.950 . S
C771 C762 1.390 . S
C771 H764 0.950 . S
C771 C768 1.387 . S
C772 C773 1.387 . S
C772 H776 0.950 . S
C772 C781 1.390 . S
C773 C772 1.387 . S
C773 C775 1.387 . S
H774 C781 0.950 . S
C775 C773 1.387 . S
C775 C777 1.390 . S
C775 H779 0.950 . S
H776 C772 0.950 . S
C777 C775 1.390 . S
C777 C778 1.387 . S
C777 H780 0.950 . S
C778 C777 1.387 . S
C778 C781 1.387 . S
H779 C775 0.950 . S
H780 C777 0.950 . S
C781 C772 1.390 . S
C781 H774 0.950 . S
C781 C778 1.387 . S
C782 C783 1.387 . S
C782 H786 0.950 . S
C782 C791 1.390 . S
C783 C782 1.387 . S
C783 C785 1.387 . S
H784 C791 0.950 . S
C785 C783 1.387 . S
C785 C787 1.390 . S
C785 H789 0.950 . S
H786 C782 0.950 . S
C787 C785 1.390 . S
C787 C788 1.387 . S
C787 H790 0.950 . S
C788 C787 1.387 . S
C788 C791 1.387 . S
H789 C785 0.950 . S
H790 C787 0.950 . S
C791 C782 1.390 . S
C791 H784 0.950 . S
C791 C788 1.387 . S
C792 C793 1.387 . S
C792 H796 0.950 . S
C792 C801 1.390 . S
C793 C792 1.387 . S
C793 C795 1.387 . S
H794 C801 0.950 . S
C795 C793 1.387 . S
C795 C797 1.390 . S
C795 H799 0.950 . S
H796 C792 0.950 . S
C797 C795 1.390 . S
C797 C798 1.387 . S
C797 H800 0.950 1_655 S
C798 C797 1.387 . S
C798 C801 1.387 . S
H799 C795 0.950 . S
H800 C797 0.950 1_455 S
C801 C792 1.390 . S
C801 H794 0.950 . S
C801 C798 1.387 . S
C802 C803 1.387 . S
C802 H806 0.950 . S
C802 C811 1.390 . S
C803 C802 1.387 . S
C803 C805 1.387 . S
H804 C811 0.950 . S
C805 C803 1.387 . S
C805 C807 1.390 . S
C805 H809 0.950 . S
H806 C802 0.950 . S
C807 C805 1.390 . S
C807 C808 1.387 . S
C807 H810 0.950 . S
C808 C807 1.387 . S
C808 C811 1.387 . S
H809 C805 0.950 . S
H810 C807 0.950 . S
C811 C802 1.390 . S
C811 H804 0.950 . S
C811 C808 1.387 . S
C812 C813 1.387 . S
C812 H816 0.950 . S
C812 C821 1.390 . S
C813 C812 1.387 . S
C813 C815 1.387 . S
H814 C821 0.950 . S
C815 C813 1.387 . S
C815 C817 1.390 . S
C815 H819 0.950 . S
H816 C812 0.950 . S
C817 C815 1.390 . S
C817 C818 1.387 . S
C817 H820 0.950 . S
C818 C817 1.387 . S
C818 C821 1.387 . S
H819 C815 0.950 . S
H820 C817 0.950 . S
C821 C812 1.390 . S
C821 H814 0.950 . S
C821 C818 1.387 . S
C822 C823 1.387 . S
C822 H826 0.950 . S
C822 C831 1.390 . S
C823 C822 1.387 . S
C823 C825 1.387 . S
H824 C831 0.950 . S
C825 C823 1.387 . S
C825 C827 1.390 . S
C825 H829 0.950 . S
H826 C822 0.950 . S
C827 C825 1.390 . S
C827 C828 1.387 . S
C827 H830 0.950 . S
C828 C827 1.387 . S
C828 C831 1.387 . S
H829 C825 0.950 . S
H830 C827 0.950 . S
C831 C822 1.390 . S
C831 H824 0.950 . S
C831 C828 1.387 . S
C832 C833 1.387 . S
C832 H836 0.950 . S
C832 C841 1.390 1_554 S
C833 C832 1.387 . S
C833 C835 1.387 1_554 S
H834 C841 0.950 1_554 S
C835 C833 1.387 1_556 S
C835 C837 1.390 . S
C835 H839 0.950 . S
H836 C832 0.950 . S
C837 C835 1.390 . S
C837 C838 1.387 . S
C837 H840 0.950 . S
C838 C837 1.387 . S
C838 C841 1.387 . S
H839 C835 0.950 . S
H840 C837 0.950 . S
C841 C832 1.390 1_556 S
C841 H834 0.950 1_556 S
C841 C838 1.387 . S
C842 C843 1.387 . S
C842 H846 0.950 . S
C842 C851 1.390 . S
C843 C842 1.387 . S
C843 C845 1.387 . S
H844 C851 0.950 . S
C845 C843 1.387 . S
C845 C847 1.390 . S
C845 H849 0.950 . S
H846 C842 0.950 . S
C847 C845 1.390 . S
C847 C848 1.387 . S
C847 H850 0.950 . S
C848 C847 1.387 . S
C848 C851 1.387 . S
H849 C845 0.950 . S
H850 C847 0.950 . S
C851 C842 1.390 . S
C851 H844 0.950 . S
C851 C848 1.387 . S
C852 C853 1.386 . S
C852 H856 0.953 1_556 S
C852 C861 1.388 . S
C853 C852 1.386 . S
C853 C855 1.387 . S
H854 C861 0.950 . S
C855 C853 1.387 . S
C855 C857 1.390 . S
C855 H859 0.950 . S
H856 C852 0.953 1_554 S
C857 C855 1.390 . S
C857 C858 1.387 . S
C857 H860 0.950 . S
C858 C857 1.387 . S
C858 C861 1.387 . S
H859 C855 0.950 . S
H860 C857 0.950 . S
C861 C852 1.388 . S
C861 H854 0.950 . S
C861 C858 1.387 . S
C862 C863 1.387 . S
C862 H866 0.950 . S
C862 C871 1.390 . S
C863 C862 1.387 . S
C863 C865 1.387 . S
H864 C871 0.950 . S
C865 C863 1.387 . S
C865 C867 1.390 . S
C865 H869 0.950 . S
H866 C862 0.950 . S
C867 C865 1.390 . S
C867 C868 1.387 . S
C867 H870 0.950 . S
C868 C867 1.387 . S
C868 C871 1.387 . S
H869 C865 0.950 . S
H870 C867 0.950 . S
C871 C862 1.390 . S
C871 H864 0.950 . S
C871 C868 1.387 . S
C872 C873 1.387 . S
C872 H876 0.950 . S
C872 C881 1.390 . S
C873 C872 1.387 . S
C873 C875 1.387 . S
H874 C881 0.950 . S
C875 C873 1.387 . S
C875 C877 1.390 . S
C875 H879 0.950 . S
H876 C872 0.950 . S
C877 C875 1.390 . S
C877 C878 1.387 . S
C877 H880 0.950 1_455 S
C878 C877 1.387 . S
C878 C881 1.387 . S
H879 C875 0.950 . S
H880 C877 0.950 1_655 S
C881 C872 1.390 . S
C881 H874 0.950 . S
C881 C878 1.387 . S
C882 C883 1.387 . S
C882 H886 0.950 . S
C882 C891 1.390 . S
C883 C882 1.387 . S
C883 C885 1.387 . S
H884 C891 0.950 . S
C885 C883 1.387 . S
C885 C887 1.390 . S
C885 H889 0.950 . S
H886 C882 0.950 . S
C887 C885 1.390 . S
C887 C888 1.387 . S
C887 H890 0.950 . S
C888 C887 1.387 . S
C888 C891 1.387 . S
H889 C885 0.950 . S
H890 C887 0.950 . S
C891 C882 1.390 . S
C891 H884 0.950 . S
C891 C888 1.387 . S
C892 C893 1.387 . S
C892 H896 0.950 1_565 S
C892 C901 1.390 . S
C893 C892 1.387 . S
C893 C895 1.387 . S
H894 C901 0.950 . S
C895 C893 1.387 . S
C895 C897 1.390 . S
C895 H899 0.950 . S
H896 C892 0.950 1_545 S
C897 C895 1.390 . S
C897 C898 1.387 . S
C897 H900 0.950 . S
C898 C897 1.387 . S
C898 C901 1.387 . S
H899 C895 0.950 . S
H900 C897 0.950 . S
C901 C892 1.390 . S
C901 H894 0.950 . S
C901 C898 1.387 . S
C902 C903 1.387 . S
C902 H906 0.950 . S
C902 C911 1.390 . S
C903 C902 1.387 . S
C903 C905 1.387 . S
H904 C911 0.950 . S
C905 C903 1.387 . S
C905 C907 1.390 . S
C905 H909 0.950 . S
H906 C902 0.950 . S
C907 C905 1.390 . S
C907 C908 1.387 . S
C907 H910 0.950 . S
C908 C907 1.387 . S
C908 C911 1.387 . S
H909 C905 0.950 . S
H910 C907 0.950 . S
C911 C902 1.390 . S
C911 H904 0.950 . S
C911 C908 1.387 . S
C912 C913 1.387 . S
C912 H916 0.950 . S
C912 C921 1.390 . S
C913 C912 1.387 . S
C913 C915 1.387 . S
H914 C921 0.950 . S
C915 C913 1.387 . S
C915 C917 1.390 . S
C915 H919 0.950 . S
H916 C912 0.950 . S
C917 C915 1.390 . S
C917 C918 1.387 . S
C917 H920 0.950 . S
C918 C917 1.387 . S
C918 C921 1.387 . S
H919 C915 0.950 . S
H920 C917 0.950 . S
C921 C912 1.390 . S
C921 H914 0.950 . S
C921 C918 1.387 . S
C922 C923 1.387 . S
C922 H926 0.950 . S
C922 C931 1.390 1_554 S
C923 C922 1.387 . S
C923 C925 1.387 1_554 S
H924 C931 0.950 . S
C925 C923 1.387 1_556 S
C925 C927 1.390 . S
C925 H929 0.950 . S
H926 C922 0.950 . S
C927 C925 1.390 . S
C927 C928 1.387 . S
C927 H930 0.950 . S
C928 C927 1.387 . S
C928 C931 1.387 . S
H929 C925 0.950 . S
H930 C927 0.950 . S
C931 C922 1.390 1_556 S
C931 H924 0.950 . S
C931 C928 1.387 . S
C932 C933 1.387 . S
C932 H936 0.950 . S
C932 C941 1.390 . S
C933 C932 1.387 . S
C933 C935 1.387 . S
H934 C941 0.950 . S
C935 C933 1.387 . S
C935 C937 1.390 . S
C935 H939 0.950 . S
H936 C932 0.950 . S
C937 C935 1.390 . S
C937 C938 1.387 . S
C937 H940 0.950 . S
C938 C937 1.387 . S
C938 C941 1.387 . S
H939 C935 0.950 . S
H940 C937 0.950 . S
C941 C932 1.390 . S
C941 H934 0.950 . S
C941 C938 1.387 . S
C942 C943 1.387 . S
C942 H946 0.950 . S
C942 C951 1.390 . S
C943 C942 1.387 . S
C943 C945 1.387 . S
H944 C951 0.950 . S
C945 C943 1.387 . S
C945 C947 1.390 . S
C945 H949 0.950 . S
H946 C942 0.950 . S
C947 C945 1.390 . S
C947 C948 1.387 . S
C947 H950 0.950 . S
C948 C947 1.387 . S
C948 C951 1.387 . S
H949 C945 0.950 . S
H950 C947 0.950 . S
C951 C942 1.390 . S
C951 H944 0.950 . S
C951 C948 1.387 . S
C952 C953 1.387 . S
C952 H956 0.950 . S
C952 C961 1.390 . S
C953 C952 1.387 . S
C953 C955 1.387 . S
H954 C961 0.950 . S
C955 C953 1.387 . S
C955 C957 1.390 . S
C955 H959 0.950 . S
H956 C952 0.950 . S
C957 C955 1.390 . S
C957 C958 1.387 . S
C957 H960 0.950 . S
C958 C957 1.387 . S
C958 C961 1.387 . S
H959 C955 0.950 . S
H960 C957 0.950 . S
C961 C952 1.390 . S
C961 H954 0.950 . S
C961 C958 1.387 . S
C962 C963 1.387 . S
C962 H966 0.950 . S
C962 C971 1.390 . S
C963 C962 1.387 . S
C963 C965 1.387 . S
H964 C971 0.950 . S
C965 C963 1.387 . S
C965 C967 1.390 . S
C965 H969 0.950 . S
H966 C962 0.950 . S
C967 C965 1.390 . S
C967 C968 1.387 . S
C967 H970 0.950 . S
C968 C967 1.387 . S
C968 C971 1.387 . S
H969 C965 0.950 . S
H970 C967 0.950 . S
C971 C962 1.390 . S
C971 H964 0.950 . S
C971 C968 1.387 . S
C972 C973 1.387 . S
C972 H976 0.950 . S
C972 C981 1.390 . S
C973 C972 1.387 . S
C973 C975 1.387 . S
H974 C981 0.950 . S
C975 C973 1.387 . S
C975 C977 1.390 . S
C975 H979 0.950 . S
H976 C972 0.950 . S
C977 C975 1.390 . S
C977 C978 1.387 . S
C977 H980 0.950 . S
C978 C977 1.387 . S
C978 C981 1.387 . S
H979 C975 0.950 . S
H980 C977 0.950 . S
C981 C972 1.390 . S
C981 H974 0.950 . S
C981 C978 1.387 . S
C982 C983 1.387 . S
C982 H986 0.950 . S
C982 C991 1.390 . S
C983 C982 1.387 . S
C983 C985 1.387 . S
H984 C991 0.950 . S
C985 C983 1.387 . S
C985 C987 1.390 . S
C985 H989 0.950 . S
H986 C982 0.950 . S
C987 C985 1.390 . S
C987 C988 1.387 . S
C987 H990 0.950 . S
C988 C987 1.387 . S
C988 C991 1.387 . S
H989 C985 0.950 . S
H990 C987 0.950 . S
C991 C982 1.390 . S
C991 H984 0.950 . S
C991 C988 1.387 . S
C992 C993 1.387 . S
C992 H996 0.950 . S
C992 C1001 1.390 . S
C993 C992 1.387 . S
C993 C995 1.387 . S
H994 C1001 0.950 . S
C995 C993 1.387 . S
C995 C997 1.390 . S
C995 H999 0.950 . S
H996 C992 0.950 . S
C997 C995 1.390 . S
C997 C998 1.387 . S
C997 H1000 0.950 . S
C998 C997 1.387 . S
C998 C1001 1.387 . S
H999 C995 0.950 . S
H1000 C997 0.950 . S
C1001 C992 1.390 . S
C1001 H994 0.950 . S
C1001 C998 1.387 . S
C763 C39 2.311 . S
C768 C381 2.228 . S
C773 C91 1.480 . S
C778 C455 1.434 . S
C788 C505 1.688 . S
C783 C128 1.773 . S
C798 C591 1.304 . S
C793 C188 1.292 . S
C808 C683 1.875 . S
C803 C250 1.870 1_565 S
C818 C727 1.836 . S
C813 C304 1.900 . S
C823 C75 1.432 . S
C828 C529 1.288 . S
C833 C144 2.432 . S
C838 C609 2.400 . S
C848 C665 1.482 . S
C843 C198 1.470 . S
C858 C751 1.313 . S
C853 C234 1.354 1_556 S
C863 C294 2.195 . S
C868 C357 2.034 . S
C878 C431 1.798 1_455 S
C873 C29 1.814 . S
C888 C603 2.188 1_455 S
C883 C38 2.434 . S
C893 C92 2.257 . S
C898 C653 2.066 . S
C908 C757 2.208 . S
C903 C135 2.349 1_556 S
C913 C181 1.363 . S
C918 C369 1.326 . S
C923 C251 2.053 . S
C928 C443 1.960 . S
C933 C303 2.446 . S
C938 C535 2.298 . S
C943 C82 1.976 . S
C948 C739 1.839 . S
C958 C387 2.181 . S
C953 C145 2.208 . S
C963 C197 2.342 . S
C968 C461 2.214 . S
C973 C241 1.872 . S
C978 C517 1.715 . S
C983 C287 1.702 . S
C988 C579 1.489 . S
C993 C22 2.016 . S
C998 C677 1.899 . S
