# Generated by pormake.
# Topology tsx, (6,3)-cn, num edge types: 1
# Building blocks:
#     Node 0, Type 0, BuildingBlock: JUFBIX_clean_sbu_0, # of connection points: 6
#     Node 1, Type 0, BuildingBlock: JUFBIX_clean_sbu_0, # of connection points: 6
#     Node 2, Type 1, BuildingBlock: KAKCAD_clean_linker_0, # of connection points: 3
#     Node 3, Type 1, BuildingBlock: KAKCAD_clean_linker_0, # of connection points: 3
#     Node 4, Type 1, BuildingBlock: KAKCAD_clean_linker_0, # of connection points: 3
#     Node 5, Type 1, BuildingBlock: KAKCAD_clean_linker_0, # of connection points: 3
#     Edge 6, Type (0, 1), BuildingBlock: MIFKUJ_clean_linker_0, # of connection points: 2
#     Edge 7, Type (0, 1), BuildingBlock: MIFKUJ_clean_linker_0, # of connection points: 2
#     Edge 8, Type (0, 1), BuildingBlock: MIFKUJ_clean_linker_0, # of connection points: 2
#     Edge 9, Type (0, 1), BuildingBlock: MIFKUJ_clean_linker_0, # of connection points: 2
#     Edge 10, Type (0, 1), BuildingBlock: MIFKUJ_clean_linker_0, # of connection points: 2
#     Edge 11, Type (0, 1), BuildingBlock: MIFKUJ_clean_linker_0, # of connection points: 2
#     Edge 12, Type (0, 1), BuildingBlock: MIFKUJ_clean_linker_0, # of connection points: 2
#     Edge 13, Type (0, 1), BuildingBlock: MIFKUJ_clean_linker_0, # of connection points: 2
#     Edge 14, Type (0, 1), BuildingBlock: MIFKUJ_clean_linker_0, # of connection points: 2
#     Edge 15, Type (0, 1), BuildingBlock: MIFKUJ_clean_linker_0, # of connection points: 2
#     Edge 16, Type (0, 1), BuildingBlock: MIFKUJ_clean_linker_0, # of connection points: 2
#     Edge 17, Type (0, 1), BuildingBlock: MIFKUJ_clean_linker_0, # of connection points: 2
# Relax obj value: 0.158
# Max RMSD: 0.165
# Mean RMSD: 0.132
data_MOF--net-tsx--node1-JUFBIX_clean_sbu_0--node2-KAKCAD_clean_linker_0--edge1-MIFKUJ_clean_linker_0
_symmetry_space_group_name_H-M    P1
_symmetry_Int_Tables_number       1
_symmetry_cell_setting            triclinic
loop_
_symmetry_equiv_pos_as_xyz
'x, y, z'
_cell_length_a     29.622898
_cell_length_b     35.119179
_cell_length_c     54.32966
_cell_angle_alpha  92.480834
_cell_angle_beta   89.711728
_cell_angle_gamma 96.34489
loop_
_atom_site_label
_atom_site_type_symbol
_atom_site_fract_x
_atom_site_fract_y
_atom_site_fract_z
_atom_type_partial_charge
Co0 Co 0.03596 0.98875 0.00906 0.0
C1 C 1.00003 0.011 0.96491 0.0
Co2 Co 0.97689 0.02184 0.01336 0.0
C3 C 0.09971 0.93128 0.01211 0.0
C4 C 0.12367 0.97847 0.99007 0.0
N5 N 0.08802 0.96461 0.00381 0.0
N6 N 0.14149 0.92421 0.00424 0.0
C7 C 0.15651 0.95388 0.99037 0.0
H8 H 0.07824 0.91282 0.02384 0.0
H9 H 0.12556 0.00478 0.98028 0.0
C10 C 0.01296 -2e-05 0.05757 0.0
N11 N 0.92496 0.04599 0.01869 0.0
C12 C 0.91307 0.07875 0.0097 0.0
C13 C 0.88986 0.0331 0.03312 0.0
N14 N 0.87173 0.08652 0.01785 0.0
C15 C 0.85712 0.05781 0.03258 0.0
C16 C 0.95636 0.94175 0.0082 0.0
O17 O 0.041 0.98434 0.04371 0.0
O18 O 0.98271 0.01754 0.04789 0.0
O19 O 0.94069 0.97388 0.01103 0.0
O20 O 0.99907 0.94085 0.0068 0.0
O21 O 0.97165 0.02606 0.97883 0.0
H22 H 0.88821 0.00732 0.04344 0.0
H23 H 0.93403 0.09621 0.99718 0.0
O24 O 0.03044 0.99344 0.97448 0.0
O25 O 0.07224 0.037 0.01143 0.0
O26 O 0.01348 0.06958 0.01551 0.0
C27 C 0.0562 0.06903 0.014 0.0
H28 H 0.18863 0.95715 0.98067 0.0
H29 H 0.82529 0.05516 0.04256 0.0
Co30 Co 0.53765 0.49289 0.51179 0.0
C31 C 0.50024 0.51463 0.46779 0.0
Co32 Co 0.47929 0.52683 0.51634 0.0
C33 C 0.59669 0.43186 0.51287 0.0
C34 C 0.62288 0.47843 0.49085 0.0
N35 N 0.58812 0.46686 0.50588 0.0
N36 N 0.63507 0.42107 0.50246 0.0
C37 C 0.65165 0.45039 0.48868 0.0
H38 H 0.57411 0.41387 0.52435 0.0
H39 H 0.62621 0.50501 0.48131 0.0
C40 C 0.51683 0.50538 0.56038 0.0
N41 N 0.42851 0.55247 0.52214 0.0
C42 C 0.41692 0.58519 0.51293 0.0
C43 C 0.39377 0.54052 0.53708 0.0
N44 N 0.37608 0.59376 0.5214 0.0
C45 C 0.36152 0.56568 0.53659 0.0
C46 C 0.45681 0.44718 0.51215 0.0
O47 O 0.54433 0.48934 0.54637 0.0
O48 O 0.48634 0.52288 0.55085 0.0
O49 O 0.44144 0.47948 0.51468 0.0
O50 O 0.49938 0.44597 0.51055 0.0
O51 O 0.47289 0.53066 0.48186 0.0
H52 H 0.39195 0.51498 0.54765 0.0
H53 H 0.43759 0.60197 0.49994 0.0
O54 O 0.53045 0.49671 0.47723 0.0
O55 O 0.57543 0.54023 0.51309 0.0
O56 O 0.51755 0.57382 0.51777 0.0
C57 C 0.56011 0.57257 0.51564 0.0
H58 H 0.68197 0.45115 0.47742 0.0
H59 H 0.32997 0.56369 0.54684 0.0
C60 C 0.01179 0.96164 0.33587 0.0
C61 C 0.01472 0.99557 0.32283 0.0
C62 C 0.00869 0.96285 0.36157 0.0
C63 C 0.00901 0.99806 0.37499 0.0
C64 C 0.01221 0.03201 0.36197 0.0
C65 C 0.01478 0.03077 0.33625 0.0
C66 C 0.00617 0.99932 0.40243 0.0
C67 C 0.02809 0.97379 0.41609 0.0
C68 C 0.02521 0.97426 0.44192 0.0
C69 C 1.00072 0.00134 0.45435 0.0
C70 C 0.97878 0.02741 0.44098 0.0
C71 C 0.98144 0.0259 0.41509 0.0
C72 C 0.95218 0.05604 0.45356 0.0
C73 C 0.92014 0.04535 0.4719 0.0
C74 C 0.95635 0.0939 0.44579 0.0
C75 C 0.9275 0.11989 0.45504 0.0
C76 C 0.89359 0.1087 0.47228 0.0
C77 C 0.04831 0.94613 0.45542 0.0
C78 C 0.04304 0.90736 0.44737 0.0
C79 C 0.07859 0.95799 0.47479 0.0
C80 C 0.1049 0.93182 0.48499 0.0
C81 C 0.10086 0.89329 0.47621 0.0
C82 C 0.06892 0.88126 0.45764 0.0
C83 C 0.89104 0.07146 0.48117 0.0
H84 H 0.01223 0.93402 0.32627 0.0
H85 H 0.00563 0.93604 0.37087 0.0
H86 H 0.01314 0.0597 0.37164 0.0
H87 H 0.01629 0.05749 0.3269 0.0
H88 H 0.04835 0.9538 0.40665 0.0
H89 H 0.96315 0.04496 0.40473 0.0
H90 H 0.99866 0.00203 0.47429 0.0
H91 H 0.91611 0.01633 0.4782 0.0
H92 H 0.98138 0.10322 0.43207 0.0
H93 H 0.93119 0.14865 0.44831 0.0
H94 H 0.0197 0.89741 0.43257 0.0
H95 H 0.08336 0.98777 0.48127 0.0
H96 H 0.86527 0.06196 0.49444 0.0
H97 H 0.06527 0.85194 0.45024 0.0
H98 H 0.12895 0.94184 0.49943 0.0
C99 C 0.99776 0.0619 0.68776 0.0
C100 C 0.99381 0.02801 0.70082 0.0
C101 C 0.99963 0.06035 0.66201 0.0
C102 C 0.99792 0.02488 0.64877 0.0
C103 C 0.99444 0.99105 0.66194 0.0
C104 C 0.99224 0.9926 0.68763 0.0
C105 C 0.9996 0.02297 0.62137 0.0
C106 C 0.02848 0.0497 0.60851 0.0
C107 C 0.03078 0.04735 0.58264 0.0
C108 C 0.00369 0.01807 0.56952 0.0
C109 C 0.97469 0.99122 0.58208 0.0
C110 C 0.9727 0.99392 0.60791 0.0
C111 C 0.94651 0.95994 0.56846 0.0
C112 C 0.91845 0.96779 0.54896 0.0
C113 C 0.94607 0.92208 0.57578 0.0
C114 C 0.91712 0.8927 0.56434 0.0
C115 C 0.88772 0.90063 0.54548 0.0
C116 C 0.0623 0.07512 0.56947 0.0
C117 C 0.06381 0.11451 0.57547 0.0
C118 C 0.09211 0.0624 0.55147 0.0
C119 C 0.12385 0.08859 0.54022 0.0
C120 C 0.12573 0.12795 0.54652 0.0
C121 C 0.09506 0.14068 0.56402 0.0
C122 C 0.88895 0.93837 0.53768 0.0
H123 H 0.99867 0.08959 0.69745 0.0
H124 H 0.00171 0.08693 0.65246 0.0
H125 H 0.994 0.96329 0.65241 0.0
H126 H 0.99005 0.96604 0.69721 0.0
H127 H 0.05034 0.07169 0.61864 0.0
H128 H 0.94943 0.97362 0.61751 0.0
H129 H 0.00537 0.01604 0.54957 0.0
H130 H 0.9182 0.99683 0.54304 0.0
H131 H 0.96769 0.9153 0.59063 0.0
H132 H 0.91654 0.86395 0.5709 0.0
H133 H 0.04097 0.12503 0.58916 0.0
H134 H 0.09174 0.03212 0.54662 0.0
H135 H 0.8667 0.94515 0.52311 0.0
H136 H 0.09616 0.17083 0.56943 0.0
H137 H 0.14709 0.07812 0.52674 0.0
C138 C 0.50536 0.46556 0.83712 0.0
C139 C 0.51176 0.50022 0.82494 0.0
C140 C 0.50253 0.46563 0.86281 0.0
C141 C 0.50642 0.50037 0.87695 0.0
C142 C 0.51264 0.53505 0.8647 0.0
C143 C 0.51513 0.53497 0.83899 0.0
C144 C 0.5048 0.50036 0.90436 0.0
C145 C 0.52595 0.47319 0.91701 0.0
C146 C 0.52494 0.47284 0.94285 0.0
C147 C 0.50271 0.50039 0.95626 0.0
C148 C 0.48143 0.52794 0.94391 0.0
C149 C 0.48253 0.52758 0.91801 0.0
C150 C 0.45775 0.55724 0.95776 0.0
C151 C 0.42658 0.54686 0.97657 0.0
C152 C 0.46449 0.5957 0.95122 0.0
C153 C 0.43962 0.623 0.96261 0.0
C154 C 0.40724 0.6125 0.9808 0.0
C155 C 0.54811 0.44381 0.95542 0.0
C156 C 0.54174 0.40527 0.9469 0.0
C157 C 0.57931 0.45466 0.97453 0.0
C158 C 0.60527 0.42772 0.98408 0.0
C159 C 0.6 0.38942 0.97489 0.0
C160 C 0.5673 0.37838 0.95654 0.0
C161 C 0.4013 0.57422 0.98788 0.0
H162 H 0.50196 0.43834 0.82676 0.0
H163 H 0.49689 0.43839 0.87157 0.0
H164 H 0.5165 0.56232 0.87499 0.0
H165 H 0.52061 0.56213 0.83012 0.0
H166 H 0.54444 0.45276 0.90675 0.0
H167 H 0.4651 0.54812 0.90844 0.0
H168 H 0.50207 0.50044 0.97621 0.0
H169 H 0.42061 0.51737 0.98193 0.0
H170 H 0.48859 0.60459 0.93695 0.0
H171 H 0.44465 0.65213 0.95652 0.0
H172 H 0.51767 0.3961 0.93231 0.0
H173 H 0.58498 0.48424 0.98136 0.0
H174 H 0.37677 0.56536 0.00194 0.0
H175 H 0.56272 0.34923 0.94888 0.0
H176 H 0.62996 0.43696 0.99836 0.0
C177 C 0.49253 0.55931 0.1907 0.0
C178 C 0.49486 0.52572 0.20358 0.0
C179 C 0.49303 0.55813 0.16495 0.0
C180 C 0.49555 0.52329 0.15154 0.0
C181 C 0.49782 0.48971 0.16443 0.0
C182 C 0.49758 0.49093 0.19016 0.0
C183 C 0.49557 0.52185 0.12418 0.0
C184 C 0.52241 0.54967 0.11117 0.0
C185 C 0.52301 0.54814 0.08526 0.0
C186 C 0.49588 0.51859 0.07233 0.0
C187 C 0.46894 0.49056 0.08512 0.0
C188 C 0.46903 0.49235 0.11098 0.0
C189 C 0.4404 0.45921 0.07174 0.0
C190 C 0.40993 0.46719 0.05341 0.0
C191 C 0.44171 0.42116 0.07834 0.0
C192 C 0.41214 0.3917 0.06739 0.0
C193 C 0.38034 0.39974 0.04979 0.0
C194 C 0.55319 0.57685 0.07193 0.0
C195 C 0.5562 0.6158 0.07944 0.0
C196 C 0.58099 0.56533 0.05257 0.0
C197 C 0.61242 0.5921 0.04158 0.0
C198 C 0.61631 0.63091 0.04962 0.0
C199 C 0.58735 0.64254 0.06839 0.0
C200 C 0.37982 0.43769 0.04265 0.0
H201 H 0.49082 0.5866 0.20054 0.0
H202 H 0.49089 0.58442 0.15551 0.0
H203 H 0.50021 0.46249 0.15461 0.0
H204 H 0.49902 0.4645 0.19955 0.0
H205 H 0.54405 0.57187 0.12126 0.0
H206 H 0.44755 0.47111 0.12086 0.0
H207 H 0.49597 0.51722 0.05235 0.0
H208 H 0.40826 0.49637 0.04807 0.0
H209 H 0.46515 0.41428 0.0923 0.0
H210 H 0.413 0.36278 0.07341 0.0
H211 H 0.53488 0.62554 0.09416 0.0
H212 H 0.57955 0.53543 0.04649 0.0
H213 H 0.35576 0.44457 0.02903 0.0
H214 H 0.58981 0.67216 0.07517 0.0
H215 H 0.63405 0.58238 0.02701 0.0
H216 H 0.14772 0.07698 0.00682 0.0
H217 H 0.19985 0.1357 0.00971 0.0
H218 H 0.08797 0.20126 0.02674 0.0
H219 H 0.03508 0.14239 0.02341 0.0
H220 H 0.14823 0.23788 0.99485 0.0
H221 H 0.15471 0.179 0.07233 0.0
H222 H 0.16238 0.12605 0.09976 0.0
H223 H 0.29703 0.11655 0.07227 0.0
H224 H 0.28989 0.16918 0.04438 0.0
H225 H 0.28872 0.40135 0.04647 0.0
H226 H 0.23127 0.34731 0.03672 0.0
H227 H 0.33714 0.27413 0.02242 0.0
H228 H 0.39461 0.32796 0.03254 0.0
H229 H 0.27684 0.24276 0.05347 0.0
H230 H 0.26967 0.30299 0.97582 0.0
H231 H 0.26069 0.35633 0.94883 0.0
H232 H 0.12656 0.3644 0.97748 0.0
H233 H 0.13497 0.31144 0.00489 0.0
C234 C 0.13405 0.10385 0.01113 0.0
C235 C 0.08729 0.10499 0.01515 0.0
C236 C 0.16395 0.1374 0.01279 0.0
C237 C 0.14785 0.17273 0.01881 0.0
C238 C 0.10105 0.17423 0.02215 0.0
C239 C 0.07096 0.14058 0.02035 0.0
C240 C 0.18035 0.20773 0.02237 0.0
C241 C 0.17606 0.23924 0.00787 0.0
C242 C 0.21694 0.20918 0.03914 0.0
C243 C 0.22161 0.17783 0.05612 0.0
C244 C 0.18585 0.16546 0.07202 0.0
C245 C 0.19012 0.13551 0.08767 0.0
C246 C 0.23014 0.11786 0.08773 0.0
C247 C 0.26603 0.13022 0.07219 0.0
C248 C 0.26191 0.16015 0.05647 0.0
C249 C 0.29969 0.37394 0.04068 0.0
C250 C 0.34606 0.36874 0.04033 0.0
C251 C 0.26685 0.34308 0.03512 0.0
C252 C 0.2799 0.30667 0.02877 0.0
C253 C 0.3263 0.30192 0.02738 0.0
C254 C 0.35907 0.33264 0.03314 0.0
C255 C 0.24545 0.27283 0.02558 0.0
C256 C 0.24917 0.24151 0.04034 0.0
C257 C 0.20831 0.27177 0.00915 0.0
C258 C 0.20313 0.30348 0.99258 0.0
C259 C 0.23839 0.31633 0.97651 0.0
C260 C 0.23338 0.34646 0.9611 0.0
C261 C 0.19312 0.36381 0.96148 0.0
C262 C 0.15774 0.35097 0.97722 0.0
C263 C 0.1626 0.32088 0.99267 0.0
H264 H 0.18931 0.38713 0.94955 0.0
H265 H 0.2334 0.09465 0.09985 0.0
H266 H 0.10518 0.85045 0.00894 0.0
H267 H 0.14725 0.79417 0.01087 0.0
H268 H 0.27366 0.86819 0.01128 0.0
H269 H 0.23188 0.92403 0.0091 0.0
H270 H 0.27441 0.81336 0.97666 0.0
H271 H 0.23355 0.81969 0.06256 0.0
H272 H 0.18076 0.82136 0.09774 0.0
H273 H 0.1138 0.71137 0.07387 0.0
H274 H 0.16582 0.70927 0.03834 0.0
H275 H 0.43351 0.68666 0.99625 0.0
H276 H 0.38453 0.73679 0.00622 0.0
H277 H 0.26623 0.65393 0.99809 0.0
H278 H 0.31515 0.60349 0.98802 0.0
H279 H 0.25724 0.70978 0.0364 0.0
H280 H 0.29724 0.70363 0.95073 0.0
H281 H 0.34985 0.70138 0.91552 0.0
H282 H 0.41722 0.81153 0.93877 0.0
H283 H 0.36545 0.81414 0.97438 0.0
C284 C 0.14189 0.85462 0.00994 0.0
C285 C 0.16531 0.89154 0.00858 0.0
C286 C 0.16591 0.8225 0.01104 0.0
C287 C 0.21368 0.82693 0.01116 0.0
C288 C 0.23687 0.86399 0.01099 0.0
C289 C 0.21298 0.89589 0.00969 0.0
C290 C 0.23998 0.79323 0.00945 0.0
C291 C 0.27102 0.79106 0.98997 0.0
C292 C 0.23448 0.76334 0.02627 0.0
C293 C 0.20328 0.76451 0.04765 0.0
C294 C 0.20732 0.796 0.0647 0.0
C295 C 0.17759 0.797 0.08472 0.0
C296 C 0.14387 0.76654 0.088 0.0
C297 C 0.13989 0.73497 0.07129 0.0
C298 C 0.16952 0.73384 0.05122 0.0
C299 C 0.3971 0.679 0.99689 0.0
C300 C 0.37815 0.64125 0.99099 0.0
C301 C 0.36917 0.70763 0.00268 0.0
C302 C 0.32173 0.69917 0.00248 0.0
C303 C 0.30276 0.66104 0.99831 0.0
C304 C 0.33076 0.63227 0.99258 0.0
C305 C 0.29233 0.73076 0.00406 0.0
C306 C 0.26055 0.73228 0.02323 0.0
C307 C 0.29691 0.76017 0.98693 0.0
C308 C 0.32773 0.75891 0.96535 0.0
C309 C 0.32348 0.72725 0.94844 0.0
C310 C 0.35313 0.72592 0.92839 0.0
C311 C 0.38692 0.75625 0.92494 0.0
C312 C 0.39106 0.78803 0.94149 0.0
C313 C 0.36156 0.78946 0.9616 0.0
H314 H 0.40985 0.75517 0.90941 0.0
H315 H 0.12088 0.76737 0.10351 0.0
H316 H 0.86454 0.93584 0.00399 0.0
H317 H 0.8108 0.8786 0.00693 0.0
H318 H 0.92152 0.80979 0.0142 0.0
H319 H 0.97615 0.86735 0.01091 0.0
H320 H 0.84927 0.77348 0.98475 0.0
H321 H 0.87124 0.83591 0.06448 0.0
H322 H 0.87701 0.89102 0.09442 0.0
H323 H 0.73855 0.90837 0.07997 0.0
H324 H 0.73217 0.85372 0.04962 0.0
H325 H 0.70545 0.62154 0.04066 0.0
H326 H 0.76619 0.67054 0.02914 0.0
H327 H 0.66892 0.75286 0.02503 0.0
H328 H 0.60809 0.70403 0.03647 0.0
H329 H 0.73972 0.7794 0.05387 0.0
H330 H 0.71852 0.71737 0.97331 0.0
H331 H 0.71352 0.66266 0.94306 0.0
H332 H 0.85073 0.64375 0.95944 0.0
H333 H 0.85635 0.69804 0.99005 0.0
C334 C 0.87766 0.90854 0.00597 0.0
C335 C 0.92462 0.90618 0.00755 0.0
C336 C 0.84684 0.87584 0.00763 0.0
C337 C 0.8622 0.84014 0.01119 0.0
C338 C 0.90907 0.83718 0.01153 0.0
C339 C 0.94016 0.87005 0.00973 0.0
C340 C 0.82886 0.8068 0.01624 0.0
C341 C 0.8257 0.77439 1.00006 0.0
C342 C 0.79789 0.80836 0.03607 0.0
C343 C 0.80134 0.84087 0.05463 0.0
C344 C 0.8421 0.85162 0.06757 0.0
C345 C 0.84548 0.88277 0.08463 0.0
C346 C 0.8082 0.90323 0.08906 0.0
C347 C 0.76741 0.8925 0.0765 0.0
C348 C 0.76388 0.86142 0.05939 0.0
C349 C 0.69686 0.64985 0.03674 0.0
C350 C 0.65204 0.65903 0.03962 0.0
C351 C 0.73162 0.67783 0.0302 0.0
C352 C 0.72206 0.71534 0.02623 0.0
C353 C 0.67706 0.72413 0.02815 0.0
C354 C 0.64237 0.69625 0.03473 0.0
C355 C 0.75918 0.74628 0.02202 0.0
C356 C 0.76327 0.77826 0.03856 0.0
C357 C 0.79099 0.74411 0.0026 0.0
C358 C 0.78768 0.71152 0.98417 0.0
C359 C 0.7475 0.70133 0.97062 0.0
C360 C 0.74458 0.67044 0.95338 0.0
C361 C 0.78174 0.64967 0.94938 0.0
C362 C 0.82195 0.65982 0.96258 0.0
C363 C 0.82503 0.69067 0.97986 0.0
H364 H 0.77941 0.62577 0.93602 0.0
H365 H 0.81089 0.92735 0.10227 0.0
H366 H 0.9079 0.15895 0.00878 0.0
H367 H 0.86595 0.21394 0.00142 0.0
H368 H 0.73936 0.14136 0.00727 0.0
H369 H 0.78094 0.08656 0.01433 0.0
H370 H 0.74061 0.18814 0.96799 0.0
H371 H 0.77685 0.19902 0.05489 0.0
H372 H 0.82844 0.20438 0.09065 0.0
H373 H 0.89728 0.3087 0.06409 0.0
H374 H 0.84644 0.30366 0.02796 0.0
H375 H 0.57631 0.31472 0.98606 0.0
H376 H 0.62712 0.26628 0.99384 0.0
H377 H 0.74284 0.3518 0.98951 0.0
H378 H 0.6921 0.40051 0.98169 0.0
H379 H 0.75317 0.30205 0.02592 0.0
H380 H 0.71487 0.29389 0.94048 0.0
H381 H 0.6639 0.28914 0.90449 0.0
H382 H 0.60081 0.18035 0.92733 0.0
H383 H 0.65095 0.18473 0.9637 0.0
C384 C 0.87116 0.15475 0.00823 0.0
C385 C 0.84766 0.11854 0.01228 0.0
C386 C 0.84726 0.18617 0.00422 0.0
C387 C 0.79954 0.18175 0.00404 0.0
C388 C 0.77616 0.14541 0.00742 0.0
C389 C 0.79994 0.11419 0.01162 0.0
C390 C 0.77351 0.21482 0.00058 0.0
C391 C 0.74309 0.21291 0.98076 0.0
C392 C 0.77775 0.2476 0.01685 0.0
C393 C 0.80821 0.25071 0.03858 0.0
C394 C 0.80325 0.22292 0.05656 0.0
C395 C 0.8323 0.22593 0.07692 0.0
C396 C 0.86621 0.2568 0.0796 0.0
C397 C 0.87105 0.28477 0.06196 0.0
C398 C 0.84212 0.28186 0.04155 0.0
C399 C 0.61256 0.32327 0.98693 0.0
C400 C 0.63023 0.36134 0.983 0.0
C401 C 0.64154 0.29558 0.99137 0.0
C402 C 0.68881 0.3053 0.99175 0.0
C403 C 0.70648 0.34368 0.98919 0.0
C404 C 0.67744 0.37148 0.98481 0.0
C405 C 0.71957 0.27496 0.99362 0.0
C406 C 0.75094 0.27743 0.01304 0.0
C407 C 0.71645 0.24271 0.97689 0.0
C408 C 0.68643 0.23981 0.95493 0.0
C409 C 0.68991 0.26908 0.93793 0.0
C410 C 0.66119 0.26644 0.91745 0.0
C411 C 0.62907 0.2345 0.91365 0.0
C412 C 0.62568 0.20509 0.93031 0.0
C413 C 0.65427 0.20763 0.95085 0.0
H414 H 0.60687 0.2325 0.89778 0.0
H415 H 0.88866 0.25909 0.09538 0.0
H416 H 0.65179 0.57873 0.5092 0.0
H417 H 0.70487 0.63692 0.5105 0.0
H418 H 0.59412 0.70516 0.52403 0.0
H419 H 0.54028 0.64679 0.52242 0.0
H420 H 0.65655 0.73742 0.49059 0.0
H421 H 0.65791 0.68676 0.57104 0.0
H422 H 0.66337 0.63678 0.60105 0.0
H423 H 0.79877 0.62306 0.57634 0.0
H424 H 0.79387 0.67259 0.54591 0.0
H425 H 0.79692 0.90349 0.53909 0.0
H426 H 0.73927 0.84958 0.52937 0.0
H427 H 0.84438 0.7743 0.52007 0.0
H428 H 0.90202 0.82803 0.53007 0.0
H429 H 0.78192 0.74693 0.55152 0.0
H430 H 0.7807 0.79848 0.47108 0.0
H431 H 0.7747 0.84849 0.44115 0.0
H432 H 0.63921 0.86138 0.46605 0.0
H433 H 0.64462 0.81179 0.49638 0.0
C434 C 0.63856 0.60606 0.51242 0.0
C435 C 0.59184 0.60813 0.51596 0.0
C436 C 0.669 0.6393 0.51315 0.0
C437 C 0.65345 0.67524 0.51767 0.0
C438 C 0.60673 0.67762 0.52057 0.0
C439 C 0.57611 0.64428 0.51977 0.0
C440 C 0.68645 0.71002 0.52021 0.0
C441 C 0.68367 0.73985 0.5041 0.0
C442 C 0.72215 0.71273 0.53759 0.0
C443 C 0.72537 0.68316 0.55605 0.0
C444 C 0.68873 0.6729 0.57188 0.0
C445 C 0.69174 0.64467 0.58899 0.0
C446 C 0.73135 0.6267 0.59057 0.0
C447 C 0.76809 0.63699 0.57508 0.0
C448 C 0.76523 0.66516 0.55792 0.0
C449 C 0.80773 0.87563 0.53433 0.0
C450 C 0.85384 0.8698 0.53547 0.0
C451 C 0.77479 0.84485 0.52879 0.0
C452 C 0.78754 0.80791 0.524 0.0
C453 C 0.83379 0.80253 0.52384 0.0
C454 C 0.86665 0.83318 0.52955 0.0
C455 C 0.75275 0.77424 0.52157 0.0
C456 C 0.75497 0.74462 0.5379 0.0
C457 C 0.71659 0.7719 0.50444 0.0
C458 C 0.71324 0.80167 0.48617 0.0
C459 C 0.74976 0.8122 0.47032 0.0
C460 C 0.74644 0.84043 0.45325 0.0
C461 C 0.70665 0.85817 0.45175 0.0
C462 C 0.67004 0.84764 0.46726 0.0
C463 C 0.6732 0.81945 0.48437 0.0
H464 H 0.70415 0.88002 0.43852 0.0
H465 H 0.73361 0.60485 0.60382 0.0
H466 H 0.67299 0.38286 0.46516 0.0
H467 H 0.70572 0.32223 0.46683 0.0
H468 H 0.67011 0.31558 0.54371 0.0
H469 H 0.6367 0.3767 0.54202 0.0
H470 H 0.76291 0.30301 0.53182 0.0
H471 H 0.61279 0.25513 0.50809 0.0
H472 H 0.54133 0.25217 0.48466 0.0
H473 H 0.61252 0.22889 0.41761 0.0
H474 H 0.68457 0.23232 0.44055 0.0
H475 H 0.85903 0.12346 0.5185 0.0
H476 H 0.8045 0.16906 0.52998 0.0
H477 H 0.7976 0.19954 0.45412 0.0
H478 H 0.85065 0.15364 0.44252 0.0
H479 H 0.71472 0.19251 0.47435 0.0
H480 H 0.86505 0.25438 0.49679 0.0
H481 H 0.9378 0.25985 0.51926 0.0
H482 H 0.86623 0.25812 0.58821 0.0
H483 H 0.793 0.25216 0.5661 0.0
C484 C 0.67211 0.36852 0.48243 0.0
C485 C 0.65259 0.38454 0.50351 0.0
C486 C 0.69051 0.33375 0.48332 0.0
C487 C 0.6901 0.31434 0.50535 0.0
C488 C 0.67057 0.33011 0.52651 0.0
C489 C 0.6514 0.3648 0.52552 0.0
C490 C 0.71188 0.27836 0.50597 0.0
C491 C 0.75175 0.27834 0.51979 0.0
C492 C 0.69754 0.24648 0.49001 0.0
C493 C 0.6542 0.24416 0.47607 0.0
C494 C 0.61331 0.24965 0.48832 0.0
C495 C 0.57266 0.24785 0.47513 0.0
C496 C 0.5724 0.24037 0.44967 0.0
C497 C 0.61277 0.23465 0.43734 0.0
C498 C 0.65353 0.23647 0.45044 0.0
C499 C 0.84548 0.13965 0.50428 0.0
C500 C 0.85965 0.1353 0.47965 0.0
C501 C 0.81453 0.16581 0.51087 0.0
C502 C 0.79724 0.18799 0.49293 0.0
C503 C 0.81044 0.18282 0.46829 0.0
C504 C 0.84124 0.15685 0.46173 0.0
C505 C 0.76672 0.21776 0.4995 0.0
C506 C 0.72521 0.21663 0.48695 0.0
C507 C 0.77965 0.24865 0.51655 0.0
C508 C 0.8236 0.25231 0.52981 0.0
C509 C 0.86485 0.25485 0.51674 0.0
C510 C 0.90615 0.2581 0.5294 0.0
C511 C 0.90663 0.25919 0.55514 0.0
C512 C 0.8658 0.25717 0.56827 0.0
C513 C 0.8244 0.25387 0.55569 0.0
H514 H 0.93864 0.26171 0.56492 0.0
H515 H 0.54091 0.23896 0.43949 0.0
H516 H 0.47702 0.37356 0.51666 0.0
H517 H 0.42335 0.31547 0.51838 0.0
H518 H 0.31195 0.38249 0.50752 0.0
H519 H 0.36507 0.44058 0.50655 0.0
H520 H 0.29503 0.3378 0.54458 0.0
H521 H 0.35024 0.32059 0.46122 0.0
H522 H 0.41021 0.31565 0.42996 0.0
H523 H 0.45345 0.21893 0.46539 0.0
H524 H 0.39392 0.2235 0.49701 0.0
H525 H 0.11439 0.19634 0.52693 0.0
H526 H 0.17387 0.24666 0.51589 0.0
H527 H 0.27628 0.17314 0.53223 0.0
H528 H 0.21673 0.1224 0.54295 0.0
H529 H 0.30104 0.21835 0.49296 0.0
H530 H 0.24711 0.2346 0.57569 0.0
H531 H 0.18893 0.2393 0.60797 0.0
H532 H 0.14626 0.33837 0.57503 0.0
H533 H 0.20374 0.33387 0.5423 0.0
C534 C 0.4411 0.37579 0.51444 0.0
C535 C 0.4252 0.41161 0.51158 0.0
C536 C 0.4105 0.34257 0.5153 0.0
C537 C 0.36365 0.3446 0.51289 0.0
C538 C 0.34794 0.38026 0.50948 0.0
C539 C 0.37836 0.41344 0.50891 0.0
C540 C 0.33044 0.31017 0.51531 0.0
C541 C 0.29601 0.31193 0.533 0.0
C542 C 0.33273 0.27588 0.50087 0.0
C543 C 0.36786 0.27258 0.48158 0.0
C544 C 0.37265 0.29837 0.4624 0.0
C545 C 0.40654 0.29561 0.44461 0.0
C546 C 0.43567 0.26704 0.44572 0.0
C547 C 0.43085 0.24104 0.46456 0.0
C548 C 0.39699 0.24366 0.48239 0.0
C549 C 0.14957 0.19074 0.52778 0.0
C550 C 0.16108 0.15577 0.53609 0.0
C551 C 0.18347 0.21941 0.52144 0.0
C552 C 0.22945 0.21383 0.52373 0.0
C553 C 0.24099 0.178 0.5304 0.0
C554 C 0.207 0.1491 0.53652 0.0
C555 C 0.26502 0.24664 0.52167 0.0
C556 C 0.30005 0.24439 0.50435 0.0
C557 C 0.26362 0.28056 0.53656 0.0
C558 C 0.22946 0.28368 0.55643 0.0
C559 C 0.22513 0.25724 0.57524 0.0
C560 C 0.19229 0.25988 0.59362 0.0
C561 C 0.16385 0.28907 0.59352 0.0
C562 C 0.16828 0.31575 0.57507 0.0
C563 C 0.201 0.31318 0.55661 0.0
H564 H 0.13844 0.29106 0.60776 0.0
H565 H 0.46192 0.265 0.43195 0.0
H566 H 0.41228 0.66622 0.51247 0.0
H567 H 0.37024 0.72118 0.50488 0.0
H568 H 0.24378 0.64812 0.50963 0.0
H569 H 0.28545 0.59349 0.51711 0.0
H570 H 0.24682 0.69555 0.47002 0.0
H571 H 0.27833 0.7046 0.55746 0.0
H572 H 0.32797 0.70957 0.59401 0.0
H573 H 0.39704 0.81508 0.56935 0.0
H574 H 0.34817 0.81044 0.53244 0.0
H575 H 0.07876 0.81841 0.48751 0.0
H576 H 0.13071 0.77104 0.49565 0.0
H577 H 0.24455 0.85856 0.49248 0.0
H578 H 0.19267 0.90621 0.48416 0.0
H579 H 0.25472 0.80795 0.52908 0.0
H580 H 0.22054 0.80177 0.44322 0.0
H581 H 0.17134 0.79742 0.40652 0.0
H582 H 0.10916 0.68717 0.42727 0.0
H583 H 0.1575 0.69113 0.46435 0.0
C584 C 0.37556 0.66195 0.51163 0.0
C585 C 0.35208 0.62568 0.51553 0.0
C586 C 0.35161 0.69332 0.50748 0.0
C587 C 0.30388 0.68873 0.5069 0.0
C588 C 0.28057 0.65231 0.51008 0.0
C589 C 0.30439 0.62119 0.5145 0.0
C590 C 0.27772 0.7217 0.50327 0.0
C591 C 0.24831 0.72 0.48301 0.0
C592 C 0.28067 0.75409 0.51987 0.0
C593 C 0.31 0.75692 0.54204 0.0
C594 C 0.30439 0.72867 0.55971 0.0
C595 C 0.33232 0.73146 0.58052 0.0
C596 C 0.36574 0.76255 0.58396 0.0
C597 C 0.37121 0.79097 0.56663 0.0
C598 C 0.34339 0.78829 0.54577 0.0
C599 C 0.11482 0.82766 0.48872 0.0
C600 C 0.13163 0.86598 0.4849 0.0
C601 C 0.14447 0.80057 0.49339 0.0
C602 C 0.19156 0.81114 0.49418 0.0
C603 C 0.20834 0.84978 0.49184 0.0
C604 C 0.17862 0.87699 0.48718 0.0
C605 C 0.22308 0.78134 0.49611 0.0
C606 C 0.25354 0.78368 0.51596 0.0
C607 C 0.22134 0.74956 0.47905 0.0
C608 C 0.19239 0.74691 0.45668 0.0
C609 C 0.19613 0.77673 0.44006 0.0
C610 C 0.16843 0.77432 0.41918 0.0
C611 C 0.13707 0.74208 0.41459 0.0
C612 C 0.13343 0.71214 0.43086 0.0
C613 C 0.161 0.71444 0.45181 0.0
H614 H 0.11566 0.74026 0.39841 0.0
H615 H 0.38732 0.76468 0.60009 0.0
H616 H 0.96914 0.04155 0.09165 0.0
H617 H 0.97266 0.03974 0.13635 0.0
H618 H 0.06394 0.95216 0.12982 0.0
H619 H 0.06179 0.95482 0.08485 0.0
H620 H 0.94704 0.98796 0.16658 0.0
H621 H 0.13368 0.95809 0.17963 0.0
H622 H 0.20797 0.97088 0.15906 0.0
H623 H 0.16412 0.07033 0.12721 0.0
H624 H 0.08986 0.05841 0.14776 0.0
H625 H 0.97158 0.94171 0.2902 0.0
H626 H 0.97508 0.94008 0.24535 0.0
H627 H 0.06461 0.04576 0.24814 0.0
H628 H 0.0638 0.04627 0.29306 0.0
H629 H 0.09176 0.00109 0.21331 0.0
H630 H 0.94828 0.04265 0.23626 0.0
H631 H 0.87376 0.03934 0.25698 0.0
H632 H 0.83097 0.93337 0.2171 0.0
H633 H 0.9055 0.9358 0.19637 0.0
C634 C 0.99012 0.02195 0.09968 0.0
C635 C 0.01531 0.99839 0.0847 0.0
C636 C 0.99198 0.02087 0.12529 0.0
C637 C 0.0188 0.99603 0.13654 0.0
C638 C 0.04364 0.97209 0.12161 0.0
C639 C 0.04224 0.9735 0.09591 0.0
C640 C 0.02008 0.99516 0.16388 0.0
C641 C 0.97874 0.99072 0.17676 0.0
C642 C 0.06133 -0.00056 0.17728 0.0
C643 C 0.10606 0.00707 0.16502 0.0
C644 C 0.13997 0.98274 0.16828 0.0
C645 C 0.18206 0.98983 0.15661 0.0
C646 C 0.19071 0.02132 0.14175 0.0
C647 C 0.15734 0.04586 0.13861 0.0
C648 C 0.11522 0.03892 0.15024 0.0
C649 C 0.99272 0.96429 0.28136 0.0
C650 C 0.01722 0.99426 0.29539 0.0
C651 C 0.99422 0.96355 0.25563 0.0
C652 C 0.01947 0.99315 0.2433 0.0
C653 C 0.04471 0.02267 0.2572 0.0
C654 C 0.04371 0.02318 0.28294 0.0
C655 C 0.01872 0.99388 0.21595 0.0
C656 C 0.06011 0.99813 0.20309 0.0
C657 C 0.97748 0.99074 0.20256 0.0
C658 C 0.93262 0.98921 0.21497 0.0
C659 C 0.92309 0.0185 0.23205 0.0
C660 C 0.88084 0.0168 0.24377 0.0
C661 C 0.8477 0.98611 0.23841 0.0
C662 C 0.85671 0.95709 0.22126 0.0
C663 C 0.89893 0.95862 0.20951 0.0
H664 H 0.81501 0.98485 0.2475 0.0
H665 H 0.22329 0.02677 0.13272 0.0
H666 H 0.06112 0.98882 0.93096 0.0
H667 H 0.05928 0.99446 0.88641 0.0
H668 H 0.93309 0.04484 0.89286 0.0
H669 H 0.93525 0.04013 0.93765 0.0
H670 H 0.00294 0.96346 0.85273 0.0
H671 H 0.9269 0.10791 0.84727 0.0
H672 H 0.92505 0.16839 0.87194 0.0
H673 H 0.05156 0.15198 0.90599 0.0
H674 H 0.05447 0.09171 0.88129 0.0
H675 H 0.9363 0.98386 0.73018 0.0
H676 H 0.93576 0.9835 0.77517 0.0
H677 H 0.04641 0.07445 0.77815 0.0
H678 H 0.04669 0.07525 0.7331 0.0
H679 H 0.98683 0.08627 0.81352 0.0
H680 H 0.0654 0.98102 0.78442 0.0
H681 H 0.07584 0.92197 0.7598 0.0
H682 H 0.96032 0.8627 0.79516 0.0
H683 H 0.94881 0.92158 0.81975 0.0
C684 C 0.03296 0.00116 0.92295 0.0
C685 C 0.99835 0.01409 0.93786 0.0
C686 C 0.03192 0.00428 0.89744 0.0
C687 C 0.99627 0.02035 0.88628 0.0
C688 C 0.96135 0.03292 0.90109 0.0
C689 C 0.96252 0.03005 0.92668 0.0
C690 C 0.99563 0.02346 0.85912 0.0
C691 C 0.9993 0.99032 0.84418 0.0
C692 C 0.99169 0.05861 0.84791 0.0
C693 C 0.99061 0.0951 0.86261 0.0
C694 C 0.95439 0.1173 0.85995 0.0
C695 C 0.95315 0.15153 0.87395 0.0
C696 C 0.98808 0.16395 0.89058 0.0
C697 C 0.02444 0.14225 0.89317 0.0
C698 C 0.02587 0.10803 0.8792 0.0
C699 C 0.9605 0.00378 0.74044 0.0
C700 C 0.99182 0.02935 0.72813 0.0
C701 C 0.96013 0.00358 0.76614 0.0
C702 C 0.99152 0.02854 0.78002 0.0
C703 C 0.02189 0.05494 0.76781 0.0
C704 C 0.02202 0.05537 0.74209 0.0
C705 C 0.99368 0.02619 0.8072 0.0
C706 C 0.99024 0.05941 0.82211 0.0
C707 C 0.99903 0.99131 0.81842 0.0
C708 C 0.00599 0.9558 0.80375 0.0
C709 C 0.04203 0.95547 0.78682 0.0
C710 C 0.04817 0.92202 0.77289 0.0
C711 C 0.01869 0.88863 0.77587 0.0
C712 C 0.98309 0.8886 0.79284 0.0
C713 C 0.97676 0.92199 0.80679 0.0
H714 H 0.0235 0.86276 0.76507 0.0
H715 H 0.98703 0.19044 0.90142 0.0
H716 H 0.57106 0.46442 0.58752 0.0
H717 H 0.5748 0.46257 0.63255 0.0
H718 H 0.47349 0.54166 0.6394 0.0
H719 H 0.46953 0.54373 0.59467 0.0
H720 H 0.54543 0.56118 0.67092 0.0
H721 H 0.44415 0.44845 0.64675 0.0
H722 H 0.42296 0.38698 0.62382 0.0
H723 H 0.53286 0.33848 0.65768 0.0
H724 H 0.5551 0.39989 0.68056 0.0
H725 H 0.47034 0.54431 0.79364 0.0
H726 H 0.47588 0.54423 0.74874 0.0
H727 H 0.56641 0.45611 0.74968 0.0
H728 H 0.5604 0.45569 0.79464 0.0
H729 H 0.50666 0.44017 0.71402 0.0
H730 H 0.60597 0.55087 0.74003 0.0
H731 H 0.62867 0.61221 0.76278 0.0
H732 H 0.52574 0.66462 0.72539 0.0
H733 H 0.50198 0.60342 0.70265 0.0
C734 C 0.54965 0.48144 0.59864 0.0
C735 C 0.51993 0.50414 0.58751 0.0
C736 C 0.55174 0.48027 0.62433 0.0
C737 C 0.52423 0.50184 0.63928 0.0
C738 C 0.49504 0.52485 0.62821 0.0
C739 C 0.49271 0.52586 0.60261 0.0
C740 C 0.52538 0.50047 0.66651 0.0
C741 C 0.5366 0.5348 0.68039 0.0
C742 C 0.51512 0.46585 0.67877 0.0
C743 C 0.5016 0.42888 0.66515 0.0
C744 C 0.46403 0.42477 0.64915 0.0
C745 C 0.45178 0.38993 0.63619 0.0
C746 C 0.47663 0.35888 0.63923 0.0
C747 C 0.51369 0.36258 0.6553 0.0
C748 C 0.52612 0.39739 0.66828 0.0
C749 C 0.49167 0.52512 0.78428 0.0
C750 C 0.51509 0.50013 0.79766 0.0
C751 C 0.49487 0.52511 0.75862 0.0
C752 C 0.52216 0.50058 0.74582 0.0
C753 C 0.54521 0.47531 0.75913 0.0
C754 C 0.54169 0.47506 0.7848 0.0
C755 C 0.52612 0.50105 0.71855 0.0
C756 C 0.5159 0.46655 0.70463 0.0
C757 C 0.53761 0.53552 0.70622 0.0
C758 C 0.55195 0.57245 0.71978 0.0
C759 C 0.58796 0.5754 0.73678 0.0
C760 C 0.60105 0.61016 0.74966 0.0
C761 C 0.5786 0.64227 0.74557 0.0
C762 C 0.54308 0.63971 0.72855 0.0
C763 C 0.52981 0.605 0.71564 0.0
H764 H 0.58879 0.66915 0.75556 0.0
H765 H 0.4671 0.33193 0.62919 0.0
H766 H 0.44165 0.55195 0.44113 0.0
H767 H 0.43905 0.55649 0.39632 0.0
H768 H 0.55021 0.48719 0.38854 0.0
H769 H 0.55349 0.48296 0.43317 0.0
H770 H 0.56306 0.5479 0.36032 0.0
H771 H 0.44121 0.44967 0.37605 0.0
H772 H 0.37049 0.4222 0.39571 0.0
H773 H 0.29844 0.50898 0.36552 0.0
H774 H 0.36894 0.5373 0.34594 0.0
H775 H 0.54844 0.49025 0.23411 0.0
H776 H 0.54733 0.49138 0.27913 0.0
H777 H 0.44021 0.56524 0.27997 0.0
H778 H 0.44052 0.56363 0.23482 0.0
H779 H 0.4235 0.50648 0.31174 0.0
H780 H 0.54566 0.60249 0.29414 0.0
H781 H 0.61672 0.62883 0.27433 0.0
H782 H 0.68862 0.54499 0.30797 0.0
H783 H 0.61782 0.51777 0.32771 0.0
C784 C 0.46546 0.53761 0.42986 0.0
C785 C 0.4977 0.51702 0.44072 0.0
C786 C 0.46384 0.54014 0.40426 0.0
C787 C 0.49422 0.52193 0.38908 0.0
C788 C 0.52649 0.5015 0.3999 0.0
C789 C 0.52819 0.49901 0.42543 0.0
C790 C 0.49288 0.5243 0.36191 0.0
C791 C 0.53267 0.53847 0.34968 0.0
C792 C 0.4529 0.51291 0.34809 0.0
C793 C 0.41045 0.49585 0.35976 0.0
C794 C 0.41037 0.46308 0.37377 0.0
C795 C 0.37031 0.44733 0.38487 0.0
C796 C 0.33003 0.46391 0.38192 0.0
C797 C 0.32969 0.49621 0.36781 0.0
C798 C 0.36968 0.51211 0.3567 0.0
C799 C 0.52446 0.50655 0.24387 0.0
C800 C 0.49459 0.52689 0.23093 0.0
C801 C 0.52411 0.50742 0.26959 0.0
C802 C 0.49398 0.5287 0.28288 0.0
C803 C 0.46383 0.54876 0.27004 0.0
C804 C 0.46429 0.54805 0.24429 0.0
C805 C 0.49384 0.52962 0.31018 0.0
C806 C 0.45379 0.51613 0.32242 0.0
C807 C 0.53363 0.54149 0.32402 0.0
C808 C 0.57632 0.55788 0.31224 0.0
C809 C 0.57654 0.58947 0.29716 0.0
C810 C 0.61679 0.6046 0.28597 0.0
C811 C 0.65714 0.58854 0.28984 0.0
C812 C 0.65733 0.55738 0.30497 0.0
C813 C 0.61716 0.54211 0.31618 0.0
H814 H 0.68827 0.6003 0.28116 0.0
H815 H 0.29904 0.45166 0.39053 0.0
loop_
_geom_bond_atom_site_label_1
_geom_bond_atom_site_label_2
_geom_bond_distance
_geom_bond_site_symmetry_2
_ccdc_geom_bond_type
Co0 N5 2.057 . S
Co0 O17 2.021 . S
Co0 O20 2.062 1_455 S
Co0 O24 2.117 1_554 S
Co0 O25 2.020 1_565 S
C1 O21 1.259 1_455 S
C1 O24 1.258 1_545 S
Co2 N11 2.057 . S
Co2 O18 2.117 . S
Co2 O19 2.020 1_545 S
Co2 O21 2.021 1_554 S
Co2 O26 2.062 1_655 S
C3 N5 1.316 . S
C3 N6 1.347 . S
C3 H8 0.931 . S
C4 N5 1.375 1_556 S
C4 C7 1.350 . S
C4 H9 0.930 . S
N5 Co0 2.057 . S
N5 C3 1.316 . S
N5 C4 1.375 1_554 S
N6 C3 1.347 . S
N6 C7 1.373 1_554 S
C7 C4 1.350 . S
C7 N6 1.373 1_556 S
C7 H28 0.931 . S
H8 C3 0.931 . S
H9 C4 0.930 . S
C10 O17 1.259 1_545 S
C10 O18 1.258 1_455 S
N11 Co2 2.057 . S
N11 C12 1.316 . S
N11 C13 1.375 . S
C12 N11 1.316 . S
C12 N14 1.347 . S
C12 H23 0.931 1_554 S
C13 N11 1.375 . S
C13 C15 1.350 . S
C13 H22 0.930 . S
N14 C12 1.347 . S
N14 C15 1.373 . S
C15 C13 1.350 . S
C15 N14 1.373 . S
C15 H29 0.931 . S
C16 O19 1.256 . S
C16 O20 1.255 . S
O17 Co0 2.021 . S
O17 C10 1.259 1_565 S
O18 Co2 2.117 . S
O18 C10 1.258 1_655 S
O19 Co2 2.020 1_565 S
O19 C16 1.256 . S
O20 Co0 2.062 1_655 S
O20 C16 1.255 . S
O21 C1 1.259 1_655 S
O21 Co2 2.021 1_556 S
H22 C13 0.930 . S
H23 C12 0.931 1_556 S
O24 Co0 2.117 1_556 S
O24 C1 1.258 1_565 S
O25 Co0 2.020 1_545 S
O25 C27 1.256 . S
O26 Co2 2.062 1_455 S
O26 C27 1.255 . S
C27 O25 1.256 . S
C27 O26 1.255 . S
H28 C7 0.931 . S
H29 C15 0.931 . S
Co30 N35 2.057 . S
Co30 O47 2.021 . S
Co30 O50 2.062 . S
Co30 O54 2.117 . S
Co30 O55 2.020 . S
C31 O51 1.259 . S
C31 O54 1.258 . S
Co32 N41 2.057 . S
Co32 O48 2.117 . S
Co32 O49 2.020 . S
Co32 O51 2.021 . S
Co32 O56 2.062 . S
C33 N35 1.316 . S
C33 N36 1.347 . S
C33 H38 0.931 . S
C34 N35 1.375 . S
C34 C37 1.350 . S
C34 H39 0.930 . S
N35 Co30 2.057 . S
N35 C33 1.316 . S
N35 C34 1.375 . S
N36 C33 1.347 . S
N36 C37 1.373 . S
C37 C34 1.350 . S
C37 N36 1.373 . S
C37 H58 0.931 . S
H38 C33 0.931 . S
H39 C34 0.930 . S
C40 O47 1.259 . S
C40 O48 1.258 . S
N41 Co32 2.057 . S
N41 C42 1.316 . S
N41 C43 1.375 . S
C42 N41 1.316 . S
C42 N44 1.347 . S
C42 H53 0.931 . S
C43 N41 1.375 . S
C43 C45 1.350 . S
C43 H52 0.930 . S
N44 C42 1.347 . S
N44 C45 1.373 . S
C45 C43 1.350 . S
C45 N44 1.373 . S
C45 H59 0.931 . S
C46 O49 1.256 . S
C46 O50 1.255 . S
O47 Co30 2.021 . S
O47 C40 1.259 . S
O48 Co32 2.117 . S
O48 C40 1.258 . S
O49 Co32 2.020 . S
O49 C46 1.256 . S
O50 Co30 2.062 . S
O50 C46 1.255 . S
O51 C31 1.259 . S
O51 Co32 2.021 . S
H52 C43 0.930 . S
H53 C42 0.931 . S
O54 Co30 2.117 . S
O54 C31 1.258 . S
O55 Co30 2.020 . S
O55 C57 1.256 . S
O56 Co32 2.062 . S
O56 C57 1.255 . S
C57 O55 1.256 . S
C57 O56 1.255 . S
H58 C37 0.931 . S
H59 C45 0.931 . S
C60 C61 1.397 1_655 S
C60 C62 1.397 . S
C60 H84 0.931 . S
C61 C60 1.397 1_455 S
C61 C65 1.387 1_565 S
C62 C60 1.397 . S
C62 C63 1.401 1_655 S
C62 H85 0.930 . S
C63 C62 1.401 1_455 S
C63 C64 1.359 1_565 S
C63 C66 1.481 . S
C64 C63 1.359 1_545 S
C64 C65 1.389 . S
C64 H86 0.929 . S
C65 C61 1.387 1_545 S
C65 C64 1.389 . S
C65 H87 0.931 . S
C66 C63 1.481 . S
C66 C67 1.411 . S
C66 C71 1.367 1_465 S
C67 C66 1.411 . S
C67 C68 1.401 . S
C67 H88 0.930 . S
C68 C67 1.401 . S
C68 C69 1.365 1_465 S
C68 C77 1.511 . S
C69 C68 1.365 1_645 S
C69 C70 1.404 . S
C69 H90 0.931 . S
C70 C69 1.404 . S
C70 C71 1.361 . S
C70 C72 1.500 . S
C71 C66 1.367 1_645 S
C71 C70 1.361 . S
C71 H89 0.931 . S
C72 C70 1.500 . S
C72 C73 1.371 . S
C72 C74 1.365 . S
C73 C72 1.371 . S
C73 C83 1.386 . S
C73 H91 0.931 . S
C74 C72 1.365 . S
C74 C75 1.409 . S
C74 H92 0.929 . S
C75 C74 1.409 . S
C75 C76 1.380 . S
C75 H93 0.930 . S
C76 C75 1.380 . S
C76 C83 1.357 . S
C77 C68 1.511 . S
C77 C78 1.341 . S
C77 C79 1.371 . S
C78 C77 1.341 . S
C78 C82 1.394 . S
C78 H94 0.930 . S
C79 C77 1.371 . S
C79 C80 1.392 . S
C79 H95 0.931 . S
C80 C79 1.392 . S
C80 C81 1.331 . S
C80 H98 0.932 . S
C81 C80 1.331 . S
C81 C82 1.336 . S
C82 C78 1.394 . S
C82 C81 1.336 . S
C82 H97 0.929 . S
C83 C73 1.386 . S
C83 C76 1.357 . S
C83 H96 0.928 . S
H84 C60 0.931 . S
H85 C62 0.930 . S
H86 C64 0.929 . S
H87 C65 0.931 . S
H88 C67 0.930 . S
H89 C71 0.931 . S
H90 C69 0.931 . S
H91 C73 0.931 . S
H92 C74 0.929 . S
H93 C75 0.930 . S
H94 C78 0.930 . S
H95 C79 0.931 . S
H96 C83 0.928 . S
H97 C82 0.929 . S
H98 C80 0.932 . S
C99 C100 1.386 . S
C99 C101 1.397 . S
C99 H123 0.931 . S
C100 C99 1.386 . S
C100 C104 1.397 1_545 S
C101 C99 1.397 . S
C101 C102 1.384 . S
C101 H124 0.930 . S
C102 C101 1.384 . S
C102 C103 1.377 1_545 S
C102 C105 1.481 . S
C103 C102 1.377 1_565 S
C103 C104 1.389 . S
C103 H125 0.929 . S
C104 C100 1.397 1_565 S
C104 C103 1.389 . S
C104 H126 0.931 . S
C105 C102 1.481 . S
C105 C106 1.387 . S
C105 C110 1.390 1_445 S
C106 C105 1.387 . S
C106 C107 1.401 . S
C106 H127 0.930 . S
C107 C106 1.401 . S
C107 C108 1.389 . S
C107 C116 1.511 . S
C108 C107 1.389 . S
C108 C109 1.381 1_445 S
C108 H129 0.930 1_455 S
C109 C108 1.381 1_665 S
C109 C110 1.361 . S
C109 C111 1.500 . S
C110 C105 1.390 1_665 S
C110 C109 1.361 . S
C110 H128 0.931 . S
C111 C109 1.500 . S
C111 C112 1.371 . S
C111 C113 1.365 . S
C112 C111 1.371 . S
C112 C122 1.386 . S
C112 H130 0.931 . S
C113 C111 1.365 . S
C113 C114 1.409 . S
C113 H131 0.929 . S
C114 C113 1.409 . S
C114 C115 1.380 . S
C114 H132 0.930 . S
C115 C114 1.380 . S
C115 C122 1.357 . S
C116 C107 1.511 . S
C116 C117 1.341 . S
C116 C118 1.371 . S
C117 C116 1.341 . S
C117 C121 1.394 . S
C117 H133 0.930 . S
C118 C116 1.371 . S
C118 C119 1.392 . S
C118 H134 0.931 . S
C119 C118 1.392 . S
C119 C120 1.331 . S
C119 H137 0.932 . S
C120 C119 1.331 . S
C120 C121 1.336 . S
C121 C117 1.394 . S
C121 C120 1.336 . S
C121 H136 0.929 . S
C122 C112 1.386 . S
C122 C115 1.357 . S
C122 H135 0.928 . S
H123 C99 0.931 . S
H124 C101 0.930 . S
H125 C103 0.929 . S
H126 C104 0.931 . S
H127 C106 0.930 . S
H128 C110 0.931 . S
H129 C108 0.930 1_655 S
H130 C112 0.931 . S
H131 C113 0.929 . S
H132 C114 0.930 . S
H133 C117 0.930 . S
H134 C118 0.931 . S
H135 C122 0.928 . S
H136 C121 0.929 . S
H137 C119 0.932 . S
C138 C139 1.386 . S
C138 C140 1.397 . S
C138 H162 0.931 . S
C139 C138 1.386 . S
C139 C143 1.397 . S
C140 C138 1.397 . S
C140 C141 1.384 . S
C140 H163 0.930 . S
C141 C140 1.384 . S
C141 C142 1.377 . S
C141 C144 1.481 . S
C142 C141 1.377 . S
C142 C143 1.389 . S
C142 H164 0.929 . S
C143 C139 1.397 . S
C143 C142 1.389 . S
C143 H165 0.931 . S
C144 C141 1.481 . S
C144 C145 1.387 . S
C144 C149 1.390 . S
C145 C144 1.387 . S
C145 C146 1.401 . S
C145 H166 0.930 . S
C146 C145 1.401 . S
C146 C147 1.376 . S
C146 C155 1.511 . S
C147 C146 1.376 . S
C147 C148 1.392 . S
C147 H168 0.931 . S
C148 C147 1.392 . S
C148 C149 1.361 . S
C148 C150 1.500 . S
C149 C144 1.390 . S
C149 C148 1.361 . S
C149 H167 0.931 . S
C150 C148 1.500 . S
C150 C151 1.371 . S
C150 C152 1.365 . S
C151 C150 1.371 . S
C151 C161 1.386 . S
C151 H169 0.931 . S
C152 C150 1.365 . S
C152 C153 1.409 . S
C152 H170 0.929 . S
C153 C152 1.409 . S
C153 C154 1.380 . S
C153 H171 0.930 . S
C154 C153 1.380 . S
C154 C161 1.357 . S
C155 C146 1.511 . S
C155 C156 1.341 . S
C155 C157 1.371 . S
C156 C155 1.341 . S
C156 C160 1.394 . S
C156 H172 0.930 . S
C157 C155 1.371 . S
C157 C158 1.392 . S
C157 H173 0.931 . S
C158 C157 1.392 . S
C158 C159 1.331 . S
C158 H176 0.932 1_556 S
C159 C158 1.331 . S
C159 C160 1.336 . S
C160 C156 1.394 . S
C160 C159 1.336 . S
C160 H175 0.929 . S
C161 C151 1.386 . S
C161 C154 1.357 . S
C161 H174 0.928 1_556 S
H162 C138 0.931 . S
H163 C140 0.930 . S
H164 C142 0.929 . S
H165 C143 0.931 . S
H166 C145 0.930 . S
H167 C149 0.931 . S
H168 C147 0.931 . S
H169 C151 0.931 . S
H170 C152 0.929 . S
H171 C153 0.930 . S
H172 C156 0.930 . S
H173 C157 0.931 . S
H174 C161 0.928 1_554 S
H175 C160 0.929 . S
H176 C158 0.932 1_554 S
C177 C178 1.386 . S
C177 C179 1.397 . S
C177 H201 0.931 . S
C178 C177 1.386 . S
C178 C182 1.397 . S
C179 C177 1.397 . S
C179 C180 1.384 . S
C179 H202 0.930 . S
C180 C179 1.384 . S
C180 C181 1.377 . S
C180 C183 1.481 . S
C181 C180 1.377 . S
C181 C182 1.389 . S
C181 H203 0.929 . S
C182 C178 1.397 . S
C182 C181 1.389 . S
C182 H204 0.931 . S
C183 C180 1.481 . S
C183 C184 1.387 . S
C183 C188 1.390 . S
C184 C183 1.387 . S
C184 C185 1.401 . S
C184 H205 0.930 . S
C185 C184 1.401 . S
C185 C186 1.376 . S
C185 C194 1.511 . S
C186 C185 1.376 . S
C186 C187 1.392 . S
C186 H207 0.931 . S
C187 C186 1.392 . S
C187 C188 1.361 . S
C187 C189 1.500 . S
C188 C183 1.390 . S
C188 C187 1.361 . S
C188 H206 0.931 . S
C189 C187 1.500 . S
C189 C190 1.371 . S
C189 C191 1.365 . S
C190 C189 1.371 . S
C190 C200 1.386 . S
C190 H208 0.931 . S
C191 C189 1.365 . S
C191 C192 1.409 . S
C191 H209 0.929 . S
C192 C191 1.409 . S
C192 C193 1.380 . S
C192 H210 0.930 . S
C193 C192 1.380 . S
C193 C200 1.357 . S
C194 C185 1.511 . S
C194 C195 1.341 . S
C194 C196 1.371 . S
C195 C194 1.341 . S
C195 C199 1.394 . S
C195 H211 0.930 . S
C196 C194 1.371 . S
C196 C197 1.392 . S
C196 H212 0.931 . S
C197 C196 1.392 . S
C197 C198 1.331 . S
C197 H215 0.932 . S
C198 C197 1.331 . S
C198 C199 1.336 . S
C199 C195 1.394 . S
C199 C198 1.336 . S
C199 H214 0.929 . S
C200 C190 1.386 . S
C200 C193 1.357 . S
C200 H213 0.928 . S
H201 C177 0.931 . S
H202 C179 0.930 . S
H203 C181 0.929 . S
H204 C182 0.931 . S
H205 C184 0.930 . S
H206 C188 0.931 . S
H207 C186 0.931 . S
H208 C190 0.931 . S
H209 C191 0.929 . S
H210 C192 0.930 . S
H211 C195 0.930 . S
H212 C196 0.931 . S
H213 C200 0.928 . S
H214 C199 0.929 . S
H215 C197 0.932 . S
H216 C234 0.951 . S
H217 C236 0.949 1_556 S
H218 C238 0.950 . S
H219 C239 0.950 . S
H220 C241 0.950 . S
H221 C244 0.950 . S
H222 C245 0.950 . S
H223 C247 0.978 . S
H224 C248 0.926 1_556 S
H225 C249 0.951 . S
H226 C251 0.951 . S
H227 C253 0.950 1_556 S
H228 C254 0.950 . S
H229 C256 0.950 . S
H230 C259 0.969 . S
H231 C260 0.950 . S
H232 C262 0.950 . S
H233 C263 0.950 . S
C234 H216 0.951 . S
C234 C235 1.366 1_556 S
C234 C236 1.388 1_556 S
C235 C234 1.366 1_554 S
C235 C239 1.385 . S
C236 H217 0.949 1_554 S
C236 C234 1.388 1_554 S
C236 C237 1.368 . S
C237 C236 1.368 . S
C237 C238 1.414 . S
C237 C240 1.499 . S
C238 H218 0.950 . S
C238 C237 1.414 . S
C238 C239 1.374 . S
C239 H219 0.950 . S
C239 C235 1.385 . S
C239 C238 1.374 . S
C240 C237 1.499 . S
C240 C241 1.373 . S
C240 C242 1.389 . S
C241 H220 0.950 . S
C241 C240 1.373 . S
C241 C257 1.377 . S
C242 C240 1.389 . S
C242 C243 1.524 . S
C242 C256 1.377 . S
C243 C242 1.524 . S
C243 C244 1.397 . S
C243 C248 1.388 . S
C244 H221 0.950 . S
C244 C243 1.397 . S
C244 C245 1.334 . S
C245 H222 0.950 . S
C245 C244 1.334 . S
C245 C246 1.287 . S
C246 C245 1.287 . S
C246 C247 1.493 1_554 S
C246 H265 0.913 . S
C247 H223 0.978 . S
C247 C246 1.493 1_556 S
C247 C248 1.415 1_556 S
C248 H224 0.926 1_554 S
C248 C243 1.388 . S
C248 C247 1.415 1_554 S
C249 H225 0.951 . S
C249 C250 1.366 . S
C249 C251 1.388 . S
C250 C249 1.366 . S
C250 C254 1.385 . S
C251 H226 0.951 . S
C251 C249 1.388 . S
C251 C252 1.366 . S
C252 C251 1.366 . S
C252 C253 1.414 . S
C252 C255 1.499 . S
C253 H227 0.950 1_554 S
C253 C252 1.414 . S
C253 C254 1.374 . S
C254 H228 0.950 . S
C254 C250 1.385 . S
C254 C253 1.374 . S
C255 C252 1.499 . S
C255 C256 1.373 . S
C255 C257 1.389 . S
C256 H229 0.950 . S
C256 C242 1.377 . S
C256 C255 1.373 . S
C257 C241 1.377 . S
C257 C255 1.389 . S
C257 C258 1.524 . S
C258 C257 1.524 . S
C258 C259 1.397 . S
C258 C263 1.363 . S
C259 H230 0.969 . S
C259 C258 1.397 . S
C259 C260 1.334 . S
C260 H231 0.950 . S
C260 C259 1.334 . S
C260 C261 1.287 . S
C261 C260 1.287 . S
C261 C262 1.524 . S
C261 H264 0.999 . S
C262 H232 0.950 . S
C262 C261 1.524 . S
C262 C263 1.415 . S
C263 H233 0.950 . S
C263 C258 1.363 . S
C263 C262 1.415 . S
H264 C261 0.999 . S
H265 C246 0.913 . S
H266 C284 0.951 . S
H267 C286 0.951 . S
H268 C288 0.945 1_556 S
H269 C289 0.946 1_556 S
H270 C291 0.950 . S
H271 C294 0.950 . S
H272 C295 0.950 . S
H273 C297 0.950 . S
H274 C298 0.950 . S
H275 C299 0.951 . S
H276 C301 0.951 . S
H277 C303 0.950 1_554 S
H278 C304 0.950 . S
H279 C306 0.950 . S
H280 C309 0.950 . S
H281 C310 0.950 . S
H282 C312 0.950 . S
H283 C313 0.950 . S
C284 H266 0.951 . S
C284 C285 1.366 . S
C284 C286 1.388 . S
C285 C284 1.366 . S
C285 C289 1.385 . S
C286 H267 0.951 . S
C286 C284 1.388 . S
C286 C287 1.366 . S
C287 C286 1.366 . S
C287 C288 1.418 . S
C287 C290 1.499 . S
C288 H268 0.945 1_554 S
C288 C287 1.418 . S
C288 C289 1.375 . S
C289 H269 0.946 1_554 S
C289 C285 1.385 . S
C289 C288 1.375 . S
C290 C287 1.499 . S
C290 C291 1.373 1_554 S
C290 C292 1.389 . S
C291 H270 0.950 . S
C291 C290 1.373 1_556 S
C291 C307 1.377 . S
C292 C290 1.389 . S
C292 C293 1.524 . S
C292 C306 1.377 . S
C293 C292 1.524 . S
C293 C294 1.397 . S
C293 C298 1.363 . S
C294 H271 0.950 . S
C294 C293 1.397 . S
C294 C295 1.334 . S
C295 H272 0.950 . S
C295 C294 1.334 . S
C295 C296 1.287 . S
C296 C295 1.287 . S
C296 C297 1.524 . S
C296 H315 0.913 . S
C297 H273 0.950 . S
C297 C296 1.524 . S
C297 C298 1.415 . S
C298 H274 0.950 . S
C298 C293 1.363 . S
C298 C297 1.415 . S
C299 H275 0.951 . S
C299 C300 1.366 . S
C299 C301 1.388 . S
C300 C299 1.366 . S
C300 C304 1.385 . S
C301 H276 0.951 . S
C301 C299 1.388 . S
C301 C302 1.366 . S
C302 C301 1.366 . S
C302 C303 1.414 . S
C302 C305 1.499 . S
C303 H277 0.950 1_556 S
C303 C302 1.414 . S
C303 C304 1.374 . S
C304 H278 0.950 . S
C304 C300 1.385 . S
C304 C303 1.374 . S
C305 C302 1.499 . S
C305 C306 1.373 1_556 S
C305 C307 1.389 . S
C306 H279 0.950 . S
C306 C292 1.377 . S
C306 C305 1.373 1_554 S
C307 C291 1.377 . S
C307 C305 1.389 . S
C307 C308 1.524 . S
C308 C307 1.524 . S
C308 C309 1.397 . S
C308 C313 1.363 . S
C309 H280 0.950 . S
C309 C308 1.397 . S
C309 C310 1.334 . S
C310 H281 0.950 . S
C310 C309 1.334 . S
C310 C311 1.287 . S
C311 C310 1.287 . S
C311 C312 1.524 . S
C311 H314 0.999 . S
C312 H282 0.950 . S
C312 C311 1.524 . S
C312 C313 1.415 . S
C313 H283 0.950 . S
C313 C308 1.363 . S
C313 C312 1.415 . S
H314 C311 0.999 . S
H315 C296 0.913 . S
H316 C334 0.951 . S
H317 C336 0.951 . S
H318 C338 0.950 . S
H319 C339 0.950 . S
H320 C341 0.950 . S
H321 C344 0.950 . S
H322 C345 0.950 . S
H323 C347 0.950 . S
H324 C348 0.950 . S
H325 C349 0.951 . S
H326 C351 0.951 . S
H327 C353 0.950 . S
H328 C354 0.950 . S
H329 C356 0.950 . S
H330 C359 0.950 . S
H331 C360 0.950 . S
H332 C362 0.950 . S
H333 C363 0.950 . S
C334 H316 0.951 . S
C334 C335 1.366 . S
C334 C336 1.388 . S
C335 C334 1.366 . S
C335 C339 1.385 . S
C336 H317 0.951 . S
C336 C334 1.388 . S
C336 C337 1.366 . S
C337 C336 1.366 . S
C337 C338 1.414 . S
C337 C340 1.499 . S
C338 H318 0.950 . S
C338 C337 1.414 . S
C338 C339 1.374 . S
C339 H319 0.950 . S
C339 C335 1.385 . S
C339 C338 1.374 . S
C340 C337 1.499 . S
C340 C341 1.373 . S
C340 C342 1.389 . S
C341 H320 0.950 . S
C341 C340 1.373 . S
C341 C357 1.377 . S
C342 C340 1.389 . S
C342 C343 1.524 . S
C342 C356 1.377 . S
C343 C342 1.524 . S
C343 C344 1.397 . S
C343 C348 1.363 . S
C344 H321 0.950 . S
C344 C343 1.397 . S
C344 C345 1.334 . S
C345 H322 0.950 . S
C345 C344 1.334 . S
C345 C346 1.287 . S
C346 C345 1.287 . S
C346 C347 1.524 . S
C346 H365 0.913 . S
C347 H323 0.950 . S
C347 C346 1.524 . S
C347 C348 1.415 . S
C348 H324 0.950 . S
C348 C343 1.363 . S
C348 C347 1.415 . S
C349 H325 0.951 . S
C349 C350 1.366 . S
C349 C351 1.388 . S
C350 C349 1.366 . S
C350 C354 1.385 . S
C351 H326 0.951 . S
C351 C349 1.388 . S
C351 C352 1.366 . S
C352 C351 1.366 . S
C352 C353 1.414 . S
C352 C355 1.499 . S
C353 H327 0.950 . S
C353 C352 1.414 . S
C353 C354 1.374 . S
C354 H328 0.950 . S
C354 C350 1.385 . S
C354 C353 1.374 . S
C355 C352 1.499 . S
C355 C356 1.373 . S
C355 C357 1.389 . S
C356 H329 0.950 . S
C356 C342 1.377 . S
C356 C355 1.373 . S
C357 C341 1.377 . S
C357 C355 1.389 . S
C357 C358 1.517 1_554 S
C358 C357 1.517 1_556 S
C358 C359 1.407 . S
C358 C363 1.361 1_556 S
C359 H330 0.950 . S
C359 C358 1.407 . S
C359 C360 1.334 . S
C360 H331 0.950 . S
C360 C359 1.334 . S
C360 C361 1.287 . S
C361 C360 1.287 . S
C361 C362 1.524 . S
C361 H364 0.999 . S
C362 H332 0.950 . S
C362 C361 1.524 . S
C362 C363 1.415 1_556 S
C363 H333 0.950 . S
C363 C358 1.361 1_554 S
C363 C362 1.415 1_554 S
H364 C361 0.999 . S
H365 C346 0.913 . S
H366 C384 0.951 . S
H367 C386 0.951 . S
H368 C388 0.950 . S
H369 C389 0.950 . S
H370 C391 0.950 . S
H371 C394 0.950 . S
H372 C395 0.950 . S
H373 C397 0.950 . S
H374 C398 0.950 . S
H375 C399 0.951 . S
H376 C401 0.951 . S
H377 C403 0.950 . S
H378 C404 0.970 . S
H379 C406 0.950 . S
H380 C409 0.950 . S
H381 C410 0.950 . S
H382 C412 0.950 . S
H383 C413 0.950 . S
C384 H366 0.951 . S
C384 C385 1.366 . S
C384 C386 1.388 . S
C385 C384 1.366 . S
C385 C389 1.385 1_554 S
C386 H367 0.951 . S
C386 C384 1.388 . S
C386 C387 1.366 . S
C387 C386 1.366 . S
C387 C388 1.414 1_554 S
C387 C390 1.499 . S
C388 H368 0.950 . S
C388 C387 1.414 1_556 S
C388 C389 1.374 . S
C389 H369 0.950 . S
C389 C385 1.385 1_556 S
C389 C388 1.374 . S
C390 C387 1.499 . S
C390 C391 1.373 1_554 S
C390 C392 1.389 . S
C391 H370 0.950 . S
C391 C390 1.373 1_556 S
C391 C407 1.377 . S
C392 C390 1.389 . S
C392 C393 1.524 . S
C392 C406 1.377 . S
C393 C392 1.524 . S
C393 C394 1.397 . S
C393 C398 1.363 . S
C394 H371 0.950 . S
C394 C393 1.397 . S
C394 C395 1.334 . S
C395 H372 0.950 . S
C395 C394 1.334 . S
C395 C396 1.287 . S
C396 C395 1.287 . S
C396 C397 1.524 . S
C396 H415 0.913 . S
C397 H373 0.950 . S
C397 C396 1.524 . S
C397 C398 1.415 . S
C398 H374 0.950 . S
C398 C393 1.363 . S
C398 C397 1.415 . S
C399 H375 0.951 . S
C399 C400 1.366 . S
C399 C401 1.388 . S
C400 C399 1.366 . S
C400 C404 1.360 1_556 S
C401 H376 0.951 . S
C401 C399 1.388 . S
C401 C402 1.366 . S
C402 C401 1.366 . S
C402 C403 1.414 1_556 S
C402 C405 1.499 . S
C403 H377 0.950 . S
C403 C402 1.414 1_554 S
C403 C404 1.380 . S
C404 H378 0.970 . S
C404 C400 1.360 1_554 S
C404 C403 1.380 . S
C405 C402 1.499 . S
C405 C406 1.373 1_556 S
C405 C407 1.389 . S
C406 H379 0.950 . S
C406 C392 1.377 . S
C406 C405 1.373 1_554 S
C407 C391 1.377 . S
C407 C405 1.389 . S
C407 C408 1.524 . S
C408 C407 1.524 . S
C408 C409 1.397 . S
C408 C413 1.363 . S
C409 H380 0.950 . S
C409 C408 1.397 . S
C409 C410 1.334 . S
C410 H381 0.950 . S
C410 C409 1.334 . S
C410 C411 1.287 . S
C411 C410 1.287 . S
C411 C412 1.524 . S
C411 H414 0.999 . S
C412 H382 0.950 . S
C412 C411 1.524 . S
C412 C413 1.415 . S
C413 H383 0.950 . S
C413 C408 1.363 . S
C413 C412 1.415 . S
H414 C411 0.999 . S
H415 C396 0.913 . S
H416 C434 0.951 . S
H417 C436 0.951 . S
H418 C438 0.950 . S
H419 C439 0.950 . S
H420 C441 0.950 . S
H421 C444 0.950 . S
H422 C445 0.950 . S
H423 C447 0.950 . S
H424 C448 0.950 . S
H425 C449 0.951 . S
H426 C451 0.951 . S
H427 C453 0.950 . S
H428 C454 0.950 . S
H429 C456 0.950 . S
H430 C459 0.950 . S
H431 C460 0.950 . S
H432 C462 0.950 . S
H433 C463 0.950 . S
C434 H416 0.951 . S
C434 C435 1.366 . S
C434 C436 1.388 . S
C435 C434 1.366 . S
C435 C439 1.385 . S
C436 H417 0.951 . S
C436 C434 1.388 . S
C436 C437 1.366 . S
C437 C436 1.366 . S
C437 C438 1.414 . S
C437 C440 1.499 . S
C438 H418 0.950 . S
C438 C437 1.414 . S
C438 C439 1.374 . S
C439 H419 0.950 . S
C439 C435 1.385 . S
C439 C438 1.374 . S
C440 C437 1.499 . S
C440 C441 1.373 . S
C440 C442 1.389 . S
C441 H420 0.950 . S
C441 C440 1.373 . S
C441 C457 1.377 . S
C442 C440 1.389 . S
C442 C443 1.524 . S
C442 C456 1.377 . S
C443 C442 1.524 . S
C443 C444 1.397 . S
C443 C448 1.363 . S
C444 H421 0.950 . S
C444 C443 1.397 . S
C444 C445 1.334 . S
C445 H422 0.950 . S
C445 C444 1.334 . S
C445 C446 1.287 . S
C446 C445 1.287 . S
C446 C447 1.524 . S
C446 H465 0.913 . S
C447 H423 0.950 . S
C447 C446 1.524 . S
C447 C448 1.415 . S
C448 H424 0.950 . S
C448 C443 1.363 . S
C448 C447 1.415 . S
C449 H425 0.951 . S
C449 C450 1.366 . S
C449 C451 1.388 . S
C450 C449 1.366 . S
C450 C454 1.385 . S
C451 H426 0.951 . S
C451 C449 1.388 . S
C451 C452 1.366 . S
C452 C451 1.366 . S
C452 C453 1.414 . S
C452 C455 1.499 . S
C453 H427 0.950 . S
C453 C452 1.414 . S
C453 C454 1.374 . S
C454 H428 0.950 . S
C454 C450 1.385 . S
C454 C453 1.374 . S
C455 C452 1.499 . S
C455 C456 1.373 . S
C455 C457 1.389 . S
C456 H429 0.950 . S
C456 C442 1.377 . S
C456 C455 1.373 . S
C457 C441 1.377 . S
C457 C455 1.389 . S
C457 C458 1.524 . S
C458 C457 1.524 . S
C458 C459 1.397 . S
C458 C463 1.363 . S
C459 H430 0.950 . S
C459 C458 1.397 . S
C459 C460 1.334 . S
C460 H431 0.950 . S
C460 C459 1.334 . S
C460 C461 1.287 . S
C461 C460 1.287 . S
C461 C462 1.524 . S
C461 H464 0.999 . S
C462 H432 0.950 . S
C462 C461 1.524 . S
C462 C463 1.415 . S
C463 H433 0.950 . S
C463 C458 1.363 . S
C463 C462 1.415 . S
H464 C461 0.999 . S
H465 C446 0.913 . S
H466 C484 0.951 . S
H467 C486 0.951 . S
H468 C488 0.950 . S
H469 C489 0.950 . S
H470 C491 0.950 . S
H471 C494 0.950 . S
H472 C495 0.950 . S
H473 C497 0.950 . S
H474 C498 0.950 . S
H475 C499 0.951 . S
H476 C501 0.951 . S
H477 C503 0.950 . S
H478 C504 0.950 . S
H479 C506 0.950 . S
H480 C509 0.950 . S
H481 C510 0.950 . S
H482 C512 0.950 . S
H483 C513 0.950 . S
C484 H466 0.951 . S
C484 C485 1.366 . S
C484 C486 1.388 . S
C485 C484 1.366 . S
C485 C489 1.385 . S
C486 H467 0.951 . S
C486 C484 1.388 . S
C486 C487 1.366 . S
C487 C486 1.366 . S
C487 C488 1.414 . S
C487 C490 1.499 . S
C488 H468 0.950 . S
C488 C487 1.414 . S
C488 C489 1.374 . S
C489 H469 0.950 . S
C489 C485 1.385 . S
C489 C488 1.374 . S
C490 C487 1.499 . S
C490 C491 1.373 . S
C490 C492 1.389 . S
C491 H470 0.950 . S
C491 C490 1.373 . S
C491 C507 1.377 . S
C492 C490 1.389 . S
C492 C493 1.524 . S
C492 C506 1.377 . S
C493 C492 1.524 . S
C493 C494 1.397 . S
C493 C498 1.363 . S
C494 H471 0.950 . S
C494 C493 1.397 . S
C494 C495 1.334 . S
C495 H472 0.950 . S
C495 C494 1.334 . S
C495 C496 1.287 . S
C496 C495 1.287 . S
C496 C497 1.524 . S
C496 H515 0.913 . S
C497 H473 0.950 . S
C497 C496 1.524 . S
C497 C498 1.415 . S
C498 H474 0.950 . S
C498 C493 1.363 . S
C498 C497 1.415 . S
C499 H475 0.951 . S
C499 C500 1.366 . S
C499 C501 1.388 . S
C500 C499 1.366 . S
C500 C504 1.385 . S
C501 H476 0.951 . S
C501 C499 1.388 . S
C501 C502 1.366 . S
C502 C501 1.366 . S
C502 C503 1.414 . S
C502 C505 1.499 . S
C503 H477 0.950 . S
C503 C502 1.414 . S
C503 C504 1.374 . S
C504 H478 0.950 . S
C504 C500 1.385 . S
C504 C503 1.374 . S
C505 C502 1.499 . S
C505 C506 1.373 . S
C505 C507 1.389 . S
C506 H479 0.950 . S
C506 C492 1.377 . S
C506 C505 1.373 . S
C507 C491 1.377 . S
C507 C505 1.389 . S
C507 C508 1.524 . S
C508 C507 1.524 . S
C508 C509 1.397 . S
C508 C513 1.363 . S
C509 H480 0.950 . S
C509 C508 1.397 . S
C509 C510 1.334 . S
C510 H481 0.950 . S
C510 C509 1.334 . S
C510 C511 1.287 . S
C511 C510 1.287 . S
C511 C512 1.524 . S
C511 H514 0.999 . S
C512 H482 0.950 . S
C512 C511 1.524 . S
C512 C513 1.415 . S
C513 H483 0.950 . S
C513 C508 1.363 . S
C513 C512 1.415 . S
H514 C511 0.999 . S
H515 C496 0.913 . S
H516 C534 0.951 . S
H517 C536 0.951 . S
H518 C538 0.950 . S
H519 C539 0.950 . S
H520 C541 0.950 . S
H521 C544 0.950 . S
H522 C545 0.950 . S
H523 C547 0.950 . S
H524 C548 0.950 . S
H525 C549 0.951 . S
H526 C551 0.951 . S
H527 C553 0.950 . S
H528 C554 0.950 . S
H529 C556 0.950 . S
H530 C559 0.950 . S
H531 C560 0.950 . S
H532 C562 0.950 . S
H533 C563 0.950 . S
C534 H516 0.951 . S
C534 C535 1.366 . S
C534 C536 1.388 . S
C535 C534 1.366 . S
C535 C539 1.385 . S
C536 H517 0.951 . S
C536 C534 1.388 . S
C536 C537 1.366 . S
C537 C536 1.366 . S
C537 C538 1.414 . S
C537 C540 1.499 . S
C538 H518 0.950 . S
C538 C537 1.414 . S
C538 C539 1.374 . S
C539 H519 0.950 . S
C539 C535 1.385 . S
C539 C538 1.374 . S
C540 C537 1.499 . S
C540 C541 1.373 . S
C540 C542 1.389 . S
C541 H520 0.950 . S
C541 C540 1.373 . S
C541 C557 1.377 . S
C542 C540 1.389 . S
C542 C543 1.524 . S
C542 C556 1.377 . S
C543 C542 1.524 . S
C543 C544 1.397 . S
C543 C548 1.363 . S
C544 H521 0.950 . S
C544 C543 1.397 . S
C544 C545 1.334 . S
C545 H522 0.950 . S
C545 C544 1.334 . S
C545 C546 1.287 . S
C546 C545 1.287 . S
C546 C547 1.524 . S
C546 H565 0.913 . S
C547 H523 0.950 . S
C547 C546 1.524 . S
C547 C548 1.415 . S
C548 H524 0.950 . S
C548 C543 1.363 . S
C548 C547 1.415 . S
C549 H525 0.951 . S
C549 C550 1.366 . S
C549 C551 1.388 . S
C550 C549 1.366 . S
C550 C554 1.385 . S
C551 H526 0.951 . S
C551 C549 1.388 . S
C551 C552 1.366 . S
C552 C551 1.366 . S
C552 C553 1.414 . S
C552 C555 1.499 . S
C553 H527 0.950 . S
C553 C552 1.414 . S
C553 C554 1.374 . S
C554 H528 0.950 . S
C554 C550 1.385 . S
C554 C553 1.374 . S
C555 C552 1.499 . S
C555 C556 1.373 . S
C555 C557 1.389 . S
C556 H529 0.950 . S
C556 C542 1.377 . S
C556 C555 1.373 . S
C557 C541 1.377 . S
C557 C555 1.389 . S
C557 C558 1.524 . S
C558 C557 1.524 . S
C558 C559 1.397 . S
C558 C563 1.363 . S
C559 H530 0.950 . S
C559 C558 1.397 . S
C559 C560 1.334 . S
C560 H531 0.950 . S
C560 C559 1.334 . S
C560 C561 1.287 . S
C561 C560 1.287 . S
C561 C562 1.524 . S
C561 H564 0.999 . S
C562 H532 0.950 . S
C562 C561 1.524 . S
C562 C563 1.415 . S
C563 H533 0.950 . S
C563 C558 1.363 . S
C563 C562 1.415 . S
H564 C561 0.999 . S
H565 C546 0.913 . S
H566 C584 0.951 . S
H567 C586 0.951 . S
H568 C588 0.950 . S
H569 C589 0.950 . S
H570 C591 0.950 . S
H571 C594 0.950 . S
H572 C595 0.950 . S
H573 C597 0.950 . S
H574 C598 0.950 . S
H575 C599 0.951 . S
H576 C601 0.951 . S
H577 C603 0.950 . S
H578 C604 0.950 . S
H579 C606 0.950 . S
H580 C609 0.950 . S
H581 C610 0.950 . S
H582 C612 0.950 . S
H583 C613 0.950 . S
C584 H566 0.951 . S
C584 C585 1.366 . S
C584 C586 1.388 . S
C585 C584 1.366 . S
C585 C589 1.385 . S
C586 H567 0.951 . S
C586 C584 1.388 . S
C586 C587 1.366 . S
C587 C586 1.366 . S
C587 C588 1.414 . S
C587 C590 1.499 . S
C588 H568 0.950 . S
C588 C587 1.414 . S
C588 C589 1.374 . S
C589 H569 0.950 . S
C589 C585 1.385 . S
C589 C588 1.374 . S
C590 C587 1.499 . S
C590 C591 1.373 . S
C590 C592 1.389 . S
C591 H570 0.950 . S
C591 C590 1.373 . S
C591 C607 1.377 . S
C592 C590 1.389 . S
C592 C593 1.524 . S
C592 C606 1.377 . S
C593 C592 1.524 . S
C593 C594 1.397 . S
C593 C598 1.363 . S
C594 H571 0.950 . S
C594 C593 1.397 . S
C594 C595 1.334 . S
C595 H572 0.950 . S
C595 C594 1.334 . S
C595 C596 1.287 . S
C596 C595 1.287 . S
C596 C597 1.524 . S
C596 H615 0.913 . S
C597 H573 0.950 . S
C597 C596 1.524 . S
C597 C598 1.415 . S
C598 H574 0.950 . S
C598 C593 1.363 . S
C598 C597 1.415 . S
C599 H575 0.951 . S
C599 C600 1.366 . S
C599 C601 1.388 . S
C600 C599 1.366 . S
C600 C604 1.385 . S
C601 H576 0.951 . S
C601 C599 1.388 . S
C601 C602 1.366 . S
C602 C601 1.366 . S
C602 C603 1.414 . S
C602 C605 1.499 . S
C603 H577 0.950 . S
C603 C602 1.414 . S
C603 C604 1.374 . S
C604 H578 0.950 . S
C604 C600 1.385 . S
C604 C603 1.374 . S
C605 C602 1.499 . S
C605 C606 1.373 . S
C605 C607 1.389 . S
C606 H579 0.950 . S
C606 C592 1.377 . S
C606 C605 1.373 . S
C607 C591 1.377 . S
C607 C605 1.389 . S
C607 C608 1.524 . S
C608 C607 1.524 . S
C608 C609 1.397 . S
C608 C613 1.363 . S
C609 H580 0.950 . S
C609 C608 1.397 . S
C609 C610 1.334 . S
C610 H581 0.950 . S
C610 C609 1.334 . S
C610 C611 1.287 . S
C611 C610 1.287 . S
C611 C612 1.524 . S
C611 H614 0.999 . S
C612 H582 0.950 . S
C612 C611 1.524 . S
C612 C613 1.415 . S
C613 H583 0.950 . S
C613 C608 1.363 . S
C613 C612 1.415 . S
H614 C611 0.999 . S
H615 C596 0.913 . S
H616 C634 0.951 . S
H617 C636 0.951 . S
H618 C638 0.950 . S
H619 C639 0.950 . S
H620 C641 0.950 . S
H621 C644 0.950 . S
H622 C645 0.950 . S
H623 C647 0.950 . S
H624 C648 0.950 . S
H625 C649 0.951 . S
H626 C651 0.951 . S
H627 C653 0.950 . S
H628 C654 0.950 . S
H629 C656 0.950 . S
H630 C659 0.950 . S
H631 C660 0.950 . S
H632 C662 0.950 . S
H633 C663 0.950 . S
C634 H616 0.951 . S
C634 C635 1.366 . S
C634 C636 1.388 . S
C635 C634 1.366 . S
C635 C639 1.385 1_445 S
C636 H617 0.951 . S
C636 C634 1.388 . S
C636 C637 1.366 . S
C637 C636 1.366 . S
C637 C638 1.414 1_445 S
C637 C640 1.499 . S
C638 H618 0.950 . S
C638 C637 1.414 1_665 S
C638 C639 1.374 . S
C639 H619 0.950 . S
C639 C635 1.385 1_665 S
C639 C638 1.374 . S
C640 C637 1.499 . S
C640 C641 1.373 1_445 S
C640 C642 1.389 . S
C641 H620 0.950 . S
C641 C640 1.373 1_665 S
C641 C657 1.377 . S
C642 C640 1.389 . S
C642 C643 1.524 . S
C642 C656 1.377 . S
C643 C642 1.524 . S
C643 C644 1.397 1_545 S
C643 C648 1.363 . S
C644 H621 0.950 . S
C644 C643 1.397 1_565 S
C644 C645 1.334 . S
C645 H622 0.950 . S
C645 C644 1.334 . S
C645 C646 1.287 1_565 S
C646 C645 1.287 1_545 S
C646 C647 1.524 . S
C646 H665 0.913 . S
C647 H623 0.950 . S
C647 C646 1.524 . S
C647 C648 1.415 . S
C648 H624 0.950 . S
C648 C643 1.363 . S
C648 C647 1.415 . S
C649 H625 0.951 . S
C649 C650 1.359 1_665 S
C649 C651 1.388 . S
C650 C649 1.359 1_445 S
C650 C654 1.392 . S
C651 H626 0.951 . S
C651 C649 1.388 . S
C651 C652 1.359 1_665 S
C652 C651 1.359 1_445 S
C652 C653 1.422 . S
C652 C655 1.499 . S
C653 H627 0.950 . S
C653 C652 1.422 . S
C653 C654 1.374 . S
C654 H628 0.950 . S
C654 C650 1.392 . S
C654 C653 1.374 . S
C655 C652 1.499 . S
C655 C656 1.373 . S
C655 C657 1.389 1_445 S
C656 H629 0.950 . S
C656 C642 1.377 . S
C656 C655 1.373 . S
C657 C641 1.377 . S
C657 C655 1.389 1_665 S
C657 C658 1.524 . S
C658 C657 1.524 . S
C658 C659 1.397 1_565 S
C658 C663 1.363 . S
C659 H630 0.950 . S
C659 C658 1.397 1_545 S
C659 C660 1.334 . S
C660 H631 0.950 . S
C660 C659 1.334 . S
C660 C661 1.287 1_545 S
C661 C660 1.287 1_565 S
C661 C662 1.524 . S
C661 H664 0.999 . S
C662 H632 0.950 . S
C662 C661 1.524 . S
C662 C663 1.415 . S
C663 H633 0.950 . S
C663 C658 1.363 . S
C663 C662 1.415 . S
H664 C661 0.999 . S
H665 C646 0.913 . S
H666 C684 0.951 . S
H667 C686 0.951 . S
H668 C688 0.950 . S
H669 C689 0.950 . S
H670 C691 0.951 1_655 S
H671 C694 0.950 . S
H672 C695 0.950 . S
H673 C697 0.950 . S
H674 C698 0.950 . S
H675 C699 0.951 . S
H676 C701 0.951 . S
H677 C703 0.950 . S
H678 C704 0.950 . S
H679 C706 0.950 . S
H680 C709 0.950 . S
H681 C710 0.950 . S
H682 C712 0.950 . S
H683 C713 0.950 . S
C684 H666 0.951 . S
C684 C685 1.366 . S
C684 C686 1.388 . S
C685 C684 1.366 . S
C685 C689 1.385 1_445 S
C686 H667 0.951 . S
C686 C684 1.388 . S
C686 C687 1.366 . S
C687 C686 1.366 . S
C687 C688 1.414 1_445 S
C687 C690 1.499 . S
C688 H668 0.950 . S
C688 C687 1.414 1_665 S
C688 C689 1.374 . S
C689 H669 0.950 . S
C689 C685 1.385 1_665 S
C689 C688 1.374 . S
C690 C687 1.499 . S
C690 C691 1.373 1_545 S
C690 C692 1.389 . S
C691 H670 0.951 1_455 S
C691 C690 1.373 1_565 S
C691 C707 1.377 . S
C692 C690 1.389 . S
C692 C693 1.524 . S
C692 C706 1.377 . S
C693 C692 1.524 . S
C693 C694 1.397 1_455 S
C693 C698 1.363 . S
C694 H671 0.950 . S
C694 C693 1.397 1_655 S
C694 C695 1.334 . S
C695 H672 0.950 . S
C695 C694 1.334 . S
C695 C696 1.287 . S
C696 C695 1.287 . S
C696 C697 1.524 1_655 S
C696 H715 0.913 . S
C697 H673 0.950 . S
C697 C696 1.524 1_455 S
C697 C698 1.415 . S
C698 H674 0.950 . S
C698 C693 1.363 . S
C698 C697 1.415 . S
C699 H675 0.951 . S
C699 C700 1.366 1_665 S
C699 C701 1.388 . S
C700 C699 1.366 1_445 S
C700 C704 1.385 . S
C701 H676 0.951 . S
C701 C699 1.388 . S
C701 C702 1.366 1_665 S
C702 C701 1.366 1_445 S
C702 C703 1.414 . S
C702 C705 1.499 . S
C703 H677 0.950 . S
C703 C702 1.414 . S
C703 C704 1.374 . S
C704 H678 0.950 . S
C704 C700 1.385 . S
C704 C703 1.374 . S
C705 C702 1.499 . S
C705 C706 1.373 . S
C705 C707 1.389 1_545 S
C706 H679 0.950 . S
C706 C692 1.377 . S
C706 C705 1.373 . S
C707 C691 1.377 . S
C707 C705 1.389 1_565 S
C707 C708 1.524 . S
C708 C707 1.524 . S
C708 C709 1.397 . S
C708 C713 1.363 1_455 S
C709 H680 0.950 . S
C709 C708 1.397 . S
C709 C710 1.334 . S
C710 H681 0.950 . S
C710 C709 1.334 . S
C710 C711 1.287 . S
C711 C710 1.287 . S
C711 C712 1.524 1_455 S
C711 H714 0.999 . S
C712 H682 0.950 . S
C712 C711 1.524 1_655 S
C712 C713 1.415 . S
C713 H683 0.950 . S
C713 C708 1.363 1_655 S
C713 C712 1.415 . S
H714 C711 0.999 . S
H715 C696 0.913 . S
H716 C734 0.951 . S
H717 C736 0.951 . S
H718 C738 0.950 . S
H719 C739 0.950 . S
H720 C741 0.950 . S
H721 C744 0.950 . S
H722 C745 0.950 . S
H723 C747 0.950 . S
H724 C748 0.950 . S
H725 C749 0.951 . S
H726 C751 0.951 . S
H727 C753 0.950 . S
H728 C754 0.950 . S
H729 C756 0.950 . S
H730 C759 0.950 . S
H731 C760 0.950 . S
H732 C762 0.950 . S
H733 C763 0.950 . S
C734 H716 0.951 . S
C734 C735 1.366 . S
C734 C736 1.388 . S
C735 C734 1.366 . S
C735 C739 1.385 . S
C736 H717 0.951 . S
C736 C734 1.388 . S
C736 C737 1.366 . S
C737 C736 1.366 . S
C737 C738 1.414 . S
C737 C740 1.499 . S
C738 H718 0.950 . S
C738 C737 1.414 . S
C738 C739 1.374 . S
C739 H719 0.950 . S
C739 C735 1.385 . S
C739 C738 1.374 . S
C740 C737 1.499 . S
C740 C741 1.373 . S
C740 C742 1.389 . S
C741 H720 0.950 . S
C741 C740 1.373 . S
C741 C757 1.377 . S
C742 C740 1.389 . S
C742 C743 1.524 . S
C742 C756 1.377 . S
C743 C742 1.524 . S
C743 C744 1.397 . S
C743 C748 1.363 . S
C744 H721 0.950 . S
C744 C743 1.397 . S
C744 C745 1.334 . S
C745 H722 0.950 . S
C745 C744 1.334 . S
C745 C746 1.287 . S
C746 C745 1.287 . S
C746 C747 1.524 . S
C746 H765 0.913 . S
C747 H723 0.950 . S
C747 C746 1.524 . S
C747 C748 1.415 . S
C748 H724 0.950 . S
C748 C743 1.363 . S
C748 C747 1.415 . S
C749 H725 0.951 . S
C749 C750 1.366 . S
C749 C751 1.388 . S
C750 C749 1.366 . S
C750 C754 1.385 . S
C751 H726 0.951 . S
C751 C749 1.388 . S
C751 C752 1.366 . S
C752 C751 1.366 . S
C752 C753 1.414 . S
C752 C755 1.499 . S
C753 H727 0.950 . S
C753 C752 1.414 . S
C753 C754 1.374 . S
C754 H728 0.950 . S
C754 C750 1.385 . S
C754 C753 1.374 . S
C755 C752 1.499 . S
C755 C756 1.373 . S
C755 C757 1.389 . S
C756 H729 0.950 . S
C756 C742 1.377 . S
C756 C755 1.373 . S
C757 C741 1.377 . S
C757 C755 1.389 . S
C757 C758 1.524 . S
C758 C757 1.524 . S
C758 C759 1.397 . S
C758 C763 1.363 . S
C759 H730 0.950 . S
C759 C758 1.397 . S
C759 C760 1.334 . S
C760 H731 0.950 . S
C760 C759 1.334 . S
C760 C761 1.287 . S
C761 C760 1.287 . S
C761 C762 1.524 . S
C761 H764 0.999 . S
C762 H732 0.950 . S
C762 C761 1.524 . S
C762 C763 1.415 . S
C763 H733 0.950 . S
C763 C758 1.363 . S
C763 C762 1.415 . S
H764 C761 0.999 . S
H765 C746 0.913 . S
H766 C784 0.951 . S
H767 C786 0.951 . S
H768 C788 0.950 . S
H769 C789 0.950 . S
H770 C791 0.950 . S
H771 C794 0.950 . S
H772 C795 0.950 . S
H773 C797 0.950 . S
H774 C798 0.950 . S
H775 C799 0.951 . S
H776 C801 0.951 . S
H777 C803 0.950 . S
H778 C804 0.950 . S
H779 C806 0.950 . S
H780 C809 0.950 . S
H781 C810 0.950 . S
H782 C812 0.950 . S
H783 C813 0.950 . S
C784 H766 0.951 . S
C784 C785 1.366 . S
C784 C786 1.388 . S
C785 C784 1.366 . S
C785 C789 1.385 . S
C786 H767 0.951 . S
C786 C784 1.388 . S
C786 C787 1.366 . S
C787 C786 1.366 . S
C787 C788 1.414 . S
C787 C790 1.499 . S
C788 H768 0.950 . S
C788 C787 1.414 . S
C788 C789 1.374 . S
C789 H769 0.950 . S
C789 C785 1.385 . S
C789 C788 1.374 . S
C790 C787 1.499 . S
C790 C791 1.373 . S
C790 C792 1.389 . S
C791 H770 0.950 . S
C791 C790 1.373 . S
C791 C807 1.377 . S
C792 C790 1.389 . S
C792 C793 1.524 . S
C792 C806 1.377 . S
C793 C792 1.524 . S
C793 C794 1.397 . S
C793 C798 1.363 . S
C794 H771 0.950 . S
C794 C793 1.397 . S
C794 C795 1.334 . S
C795 H772 0.950 . S
C795 C794 1.334 . S
C795 C796 1.287 . S
C796 C795 1.287 . S
C796 C797 1.524 . S
C796 H815 0.913 . S
C797 H773 0.950 . S
C797 C796 1.524 . S
C797 C798 1.415 . S
C798 H774 0.950 . S
C798 C793 1.363 . S
C798 C797 1.415 . S
C799 H775 0.951 . S
C799 C800 1.366 . S
C799 C801 1.388 . S
C800 C799 1.366 . S
C800 C804 1.385 . S
C801 H776 0.951 . S
C801 C799 1.388 . S
C801 C802 1.366 . S
C802 C801 1.366 . S
C802 C803 1.414 . S
C802 C805 1.499 . S
C803 H777 0.950 . S
C803 C802 1.414 . S
C803 C804 1.374 . S
C804 H778 0.950 . S
C804 C800 1.385 . S
C804 C803 1.374 . S
C805 C802 1.499 . S
C805 C806 1.373 . S
C805 C807 1.389 . S
C806 H779 0.950 . S
C806 C792 1.377 . S
C806 C805 1.373 . S
C807 C791 1.377 . S
C807 C805 1.389 . S
C807 C808 1.524 . S
C808 C807 1.524 . S
C808 C809 1.397 . S
C808 C813 1.363 . S
C809 H780 0.950 . S
C809 C808 1.397 . S
C809 C810 1.334 . S
C810 H781 0.950 . S
C810 C809 1.334 . S
C810 C811 1.287 . S
C811 C810 1.287 . S
C811 C812 1.524 . S
C811 H814 0.999 . S
C812 H782 0.950 . S
C812 C811 1.524 . S
C812 C813 1.415 . S
C813 H783 0.950 . S
C813 C808 1.363 . S
C813 C812 1.415 . S
H814 C811 0.999 . S
H815 C796 0.913 . S
C250 C193 1.384 . S
C235 C27 1.413 . S
C285 N6 1.320 . S
C300 C154 1.344 . S
C335 C16 1.399 . S
C350 C198 1.378 . S
C385 N14 1.342 . S
C400 C159 1.340 . S
C435 C57 1.413 . S
C450 C115 1.384 . S
C485 N36 1.320 . S
C500 C76 1.344 . S
C550 C120 1.379 . S
C535 C46 1.399 . S
C600 C81 1.340 . S
C585 N44 1.341 . S
C635 C10 1.385 . S
C650 C61 1.387 1_545 S
C685 C1 1.524 . S
C700 C100 1.528 . S
C750 C139 1.388 . S
C735 C40 1.385 . S
C785 C31 1.524 . S
C800 C178 1.528 . S
