# Generated by pormake.
# Topology pyr, (3,6)-cn, num edge types: 1
# Building blocks:
#     Node 0, Type 0, BuildingBlock: BETDIP_clean_linker_0, # of connection points: 3
#     Node 1, Type 0, BuildingBlock: BETDIP_clean_linker_0, # of connection points: 3
#     Node 2, Type 0, BuildingBlock: BETDIP_clean_linker_0, # of connection points: 3
#     Node 3, Type 0, BuildingBlock: BETDIP_clean_linker_0, # of connection points: 3
#     Node 4, Type 0, BuildingBlock: BETDIP_clean_linker_0, # of connection points: 3
#     Node 5, Type 0, BuildingBlock: BETDIP_clean_linker_0, # of connection points: 3
#     Node 6, Type 0, BuildingBlock: BETDIP_clean_linker_0, # of connection points: 3
#     Node 7, Type 0, BuildingBlock: BETDIP_clean_linker_0, # of connection points: 3
#     Node 8, Type 1, BuildingBlock: MIFKUJ_clean_sbu_0, # of connection points: 6
#     Node 9, Type 1, BuildingBlock: MIFKUJ_clean_sbu_0, # of connection points: 6
#     Node 10, Type 1, BuildingBlock: MIFKUJ_clean_sbu_0, # of connection points: 6
#     Node 11, Type 1, BuildingBlock: MIFKUJ_clean_sbu_0, # of connection points: 6
#     Edge 12, Type (0, 1), BuildingBlock: MIFKUJ_clean_linker_0, # of connection points: 2
#     Edge 13, Type (0, 1), BuildingBlock: MIFKUJ_clean_linker_0, # of connection points: 2
#     Edge 14, Type (0, 1), BuildingBlock: MIFKUJ_clean_linker_0, # of connection points: 2
#     Edge 15, Type (0, 1), BuildingBlock: MIFKUJ_clean_linker_0, # of connection points: 2
#     Edge 16, Type (0, 1), BuildingBlock: MIFKUJ_clean_linker_0, # of connection points: 2
#     Edge 17, Type (0, 1), BuildingBlock: MIFKUJ_clean_linker_0, # of connection points: 2
#     Edge 18, Type (0, 1), BuildingBlock: MIFKUJ_clean_linker_0, # of connection points: 2
#     Edge 19, Type (0, 1), BuildingBlock: MIFKUJ_clean_linker_0, # of connection points: 2
#     Edge 20, Type (0, 1), BuildingBlock: MIFKUJ_clean_linker_0, # of connection points: 2
#     Edge 21, Type (0, 1), BuildingBlock: MIFKUJ_clean_linker_0, # of connection points: 2
#     Edge 22, Type (0, 1), BuildingBlock: MIFKUJ_clean_linker_0, # of connection points: 2
#     Edge 23, Type (0, 1), BuildingBlock: MIFKUJ_clean_linker_0, # of connection points: 2
#     Edge 24, Type (0, 1), BuildingBlock: MIFKUJ_clean_linker_0, # of connection points: 2
#     Edge 25, Type (0, 1), BuildingBlock: MIFKUJ_clean_linker_0, # of connection points: 2
#     Edge 26, Type (0, 1), BuildingBlock: MIFKUJ_clean_linker_0, # of connection points: 2
#     Edge 27, Type (0, 1), BuildingBlock: MIFKUJ_clean_linker_0, # of connection points: 2
#     Edge 28, Type (0, 1), BuildingBlock: MIFKUJ_clean_linker_0, # of connection points: 2
#     Edge 29, Type (0, 1), BuildingBlock: MIFKUJ_clean_linker_0, # of connection points: 2
#     Edge 30, Type (0, 1), BuildingBlock: MIFKUJ_clean_linker_0, # of connection points: 2
#     Edge 31, Type (0, 1), BuildingBlock: MIFKUJ_clean_linker_0, # of connection points: 2
#     Edge 32, Type (0, 1), BuildingBlock: MIFKUJ_clean_linker_0, # of connection points: 2
#     Edge 33, Type (0, 1), BuildingBlock: MIFKUJ_clean_linker_0, # of connection points: 2
#     Edge 34, Type (0, 1), BuildingBlock: MIFKUJ_clean_linker_0, # of connection points: 2
#     Edge 35, Type (0, 1), BuildingBlock: MIFKUJ_clean_linker_0, # of connection points: 2
# Relax obj value: 0.057
# Max RMSD: 0.191
# Mean RMSD: 0.129
data_MOF--net-pyr--node1-MIFKUJ_clean_sbu_0--node2-BETDIP_clean_linker_0--edge1-MIFKUJ_clean_linker_0
_symmetry_space_group_name_H-M    P1
_symmetry_Int_Tables_number       1
_symmetry_cell_setting            triclinic
loop_
_symmetry_equiv_pos_as_xyz
'x, y, z'
_cell_length_a     50.114354
_cell_length_b     44.0679
_cell_length_c     50.463946
_cell_angle_alpha  89.594803
_cell_angle_beta   84.204192
_cell_angle_gamma 103.28791
loop_
_atom_site_label
_atom_site_type_symbol
_atom_site_fract_x
_atom_site_fract_y
_atom_site_fract_z
_atom_type_partial_charge
H0 H 0.1679 0.21128 0.23717 0.0
H1 H 0.22848 0.21329 0.17039 0.0
H2 H 0.21886 0.14466 0.23366 0.0
H3 H 0.22295 0.26201 0.16423 0.0
C4 C 0.20113 0.25998 0.17001 0.0
C5 C 0.18411 0.20167 0.22713 0.0
C6 C 0.19202 0.1765 0.2388 0.0
C7 C 0.19707 0.21506 0.20261 0.0
C8 C 0.21844 0.20324 0.18945 0.0
C9 C 0.22677 0.1781 0.20074 0.0
C10 C 0.21331 0.1648 0.22535 0.0
N11 N 0.18709 0.23935 0.19131 0.0
H12 H 0.31101 0.86901 0.71595 0.0
H13 H 0.31941 0.81479 0.64647 0.0
H14 H 0.37374 0.81651 0.70743 0.0
H15 H 0.30241 0.85335 0.62757 0.0
C16 C 0.28668 0.85668 0.64299 0.0
C17 C 0.3216 0.85369 0.7046 0.0
C18 C 0.34328 0.84369 0.71489 0.0
C19 C 0.31335 0.84411 0.67968 0.0
C20 C 0.32649 0.82347 0.66514 0.0
C21 C 0.34808 0.81294 0.67523 0.0
C22 C 0.35645 0.82351 0.69997 0.0
N23 N 0.2912 0.85484 0.67027 0.0
H24 H 0.70537 0.40305 0.7964 0.0
H25 H 0.63196 0.32865 0.80103 0.0
H26 H 0.69582 0.3241 0.85015 0.0
H27 H 0.61387 0.36293 0.78226 0.0
C28 C 0.63017 0.37871 0.76977 0.0
C29 C 0.69336 0.38084 0.80488 0.0
C30 C 0.70395 0.36489 0.82406 0.0
C31 C 0.66732 0.36828 0.79645 0.0
C32 C 0.65179 0.33931 0.80751 0.0
C33 C 0.6621 0.32326 0.82676 0.0
C34 C 0.6882 0.33608 0.83474 0.0
N35 N 0.6578 0.38498 0.77645 0.0
H36 H 0.78457 0.65963 0.26838 0.0
H37 H 0.86222 0.72602 0.27059 0.0
H38 H 0.80404 0.70833 0.34017 0.0
H39 H 0.86927 0.719 0.22825 0.0
C40 C 0.85541 0.69784 0.22272 0.0
C41 C 0.79837 0.67667 0.27906 0.0
C42 C 0.79107 0.68194 0.30597 0.0
C43 C 0.82385 0.69239 0.26589 0.0
C44 C 0.84221 0.71394 0.27991 0.0
C45 C 0.83515 0.71937 0.30677 0.0
C46 C 0.80962 0.70346 0.31958 0.0
N47 N 0.83071 0.6844 0.23919 0.0
H48 H 0.7761 0.81752 0.8623 0.0
H49 H 0.83981 0.81756 0.79887 0.0
H50 H 0.77938 0.87088 0.78965 0.0
H51 H 0.83413 0.7672 0.81658 0.0
C52 C 0.83456 0.77317 0.83742 0.0
C53 C 0.78567 0.82538 0.84245 0.0
C54 C 0.77484 0.84568 0.82729 0.0
C55 C 0.80851 0.81445 0.83203 0.0
C56 C 0.8212 0.82455 0.80639 0.0
C57 C 0.8108 0.84484 0.79087 0.0
C58 C 0.78748 0.85513 0.80144 0.0
N59 N 0.81909 0.79435 0.8481 0.0
H60 H 0.68894 0.13405 0.31467 0.0
H61 H 0.68429 0.1944 0.38059 0.0
H62 H 0.62686 0.18748 0.3218 0.0
H63 H 0.70395 0.159 0.40029 0.0
C64 C 0.71851 0.15403 0.38443 0.0
C65 C 0.67918 0.15069 0.32516 0.0
C66 C 0.65637 0.15889 0.31556 0.0
C67 C 0.68907 0.16288 0.34875 0.0
C68 C 0.67647 0.18441 0.36259 0.0
C69 C 0.65383 0.19335 0.35309 0.0
C70 C 0.64388 0.18028 0.32963 0.0
N71 N 0.71205 0.15338 0.35762 0.0
H72 H 0.31252 0.62639 0.22052 0.0
H73 H 0.38177 0.70367 0.22691 0.0
H74 H 0.3201 0.71179 0.17571 0.0
H75 H 0.40202 0.6638 0.23693 0.0
C76 C 0.38569 0.64863 0.24992 0.0
C77 C 0.32367 0.65004 0.21492 0.0
C78 C 0.31325 0.66779 0.19705 0.0
C79 C 0.34849 0.66258 0.22561 0.0
C80 C 0.36294 0.69338 0.21834 0.0
C81 C 0.35267 0.71143 0.20052 0.0
C82 C 0.32776 0.69842 0.1901 0.0
N83 N 0.35785 0.64401 0.24421 0.0
H84 H 0.14878 0.25938 0.75787 0.0
H85 H 0.22056 0.33435 0.75989 0.0
H86 H 0.21304 0.27526 0.69254 0.0
H87 H 0.20812 0.32659 0.80585 0.0
C88 C 0.18617 0.32482 0.80552 0.0
C89 C 0.16871 0.2722 0.7487 0.0
C90 C 0.17921 0.26394 0.72361 0.0
C91 C 0.18376 0.29699 0.76222 0.0
C92 C 0.20944 0.31415 0.75026 0.0
C93 C 0.22006 0.30649 0.72502 0.0
C94 C 0.20496 0.28115 0.71207 0.0
N95 N 0.1715 0.30572 0.78671 0.0
Zn96 Zn 0.02519 0.98476 0.52188 0.0
Zn97 Zn 0.9763 0.00944 0.49899 0.0
C98 C 0.05836 0.03662 0.54342 0.0
O99 O 0.07653 0.0266 0.52728 0.0
C100 C 0.95029 0.94807 0.48424 0.0
O101 O 0.93116 0.95237 0.50268 0.0
O102 O 0.05268 0.96028 0.53158 0.0
O103 O 0.98728 0.95913 0.53469 0.0
O104 O 0.96891 -0.00013 0.53843 0.0
C105 C 0.05248 0.95223 0.55589 0.0
O106 O 0.03324 0.95807 0.57346 0.0
O107 O 0.03307 0.02272 0.54422 0.0
C108 C 0.94467 0.03463 0.46339 0.0
O109 O 0.96327 0.02776 0.44565 0.0
O110 O 0.94613 0.02932 0.48797 0.0
O111 O 0.01264 0.03714 0.48518 0.0
O112 O 0.03522 0.99949 0.48339 0.0
O113 O 0.97221 0.96932 0.47942 0.0
C114 C 0.97023 0.97302 0.54673 0.0
C115 C 0.03225 0.02568 0.47496 0.0
Zn116 Zn 0.51029 0.98499 0.98 0.0
Zn117 Zn 0.48954 0.03721 0.04732 0.0
C118 C 0.47372 0.94448 0.94925 0.0
O119 O 0.48342 0.92396 0.96203 0.0
C120 C 0.53744 0.04799 0.07752 0.0
O121 O 0.55164 0.04705 0.05431 0.0
O122 O 0.54594 0.9762 0.9632 0.0
O123 O 0.51498 0.03167 0.98892 0.0
O124 O 0.50817 0.06777 0.01762 0.0
C125 C 0.55083 0.97522 0.93803 0.0
O126 O 0.53334 0.98241 0.92275 0.0
O127 O 0.48194 0.97326 0.95394 0.0
C128 C 0.44247 0.04059 0.083 0.0
O129 O 0.45692 0.03009 0.09976 0.0
O130 O 0.45141 0.04361 0.0584 0.0
O131 O 0.49125 0.99693 0.03172 0.0
O132 O 0.49708 0.95531 0.01231 0.0
O133 O 0.51145 0.0442 0.07877 0.0
C134 C 0.5177 0.06035 0.99476 0.0
C135 C 0.48917 0.96789 0.03318 0.0
Zn136 Zn 0.50654 0.47669 0.49447 0.0
Zn137 Zn 0.48931 0.53091 0.53023 0.0
C138 C 0.53977 0.51634 0.454 0.0
O139 O 0.52094 0.49966 0.44035 0.0
C140 C 0.45893 0.49589 0.57474 0.0
O141 O 0.47848 0.51471 0.58617 0.0
O142 O 0.51531 0.43752 0.47846 0.0
O143 O 0.50766 0.47191 0.53403 0.0
O144 O 0.52537 0.52172 0.5392 0.0
C145 C 0.53958 0.43411 0.48047 0.0
O146 O 0.55636 0.45521 0.493 0.0
O147 O 0.538 0.51142 0.47905 0.0
C148 C 0.47988 0.59406 0.5348 0.0
O149 O 0.48166 0.59373 0.50866 0.0
O150 O 0.48398 0.57089 0.54769 0.0
O151 O 0.48144 0.53383 0.49192 0.0
O152 O 0.47222 0.48438 0.48068 0.0
O153 O 0.459 0.49786 0.54958 0.0
C154 C 0.52316 0.49329 0.54589 0.0
C155 C 0.47001 0.5123 0.47728 0.0
Zn156 Zn 0.98477 0.53101 0.977 0.0
Zn157 Zn 0.04373 0.51185 0.02777 0.0
C158 C 0.94337 0.47851 0.96063 0.0
O159 O 0.96427 0.46519 0.95639 0.0
C160 C 0.07903 0.5645 0.05145 0.0
O161 O 0.05566 0.56878 0.06324 0.0
O162 O 0.98472 0.57422 0.96437 0.0
O163 O 0.99316 0.52808 0.01498 0.0
O164 O 0.01152 0.52161 0.05128 0.0
C165 C 0.98435 0.59856 0.97761 0.0
O166 O 0.98686 0.59815 0.00324 0.0
O167 O 0.94717 0.50524 0.97087 0.0
C168 C 0.07563 0.46812 0.03412 0.0
O169 O 0.09346 0.49065 0.0204 0.0
O170 O 0.05089 0.47071 0.03933 0.0
O171 O 0.03431 0.51108 0.98953 0.0
O172 O 0.01373 0.51506 0.95394 0.0
O173 O 0.07851 0.54395 0.03383 0.0
C174 C 0.99222 0.52922 0.04015 0.0
C175 C 0.03317 0.50728 0.96469 0.0
H176 H 0.21461 0.15381 0.27992 0.0
H177 H 0.19078 0.1294 0.32215 0.0
H178 H 0.11383 0.14357 0.29936 0.0
H179 H 0.13707 0.16668 0.25666 0.0
H180 H 0.12627 0.16201 0.35316 0.0
H181 H 0.12404 0.07518 0.29319 0.0
H182 H 0.14612 0.04283 0.26238 0.0
H183 H 0.19336 0.02229 0.32375 0.0
H184 H 0.17181 0.0549 0.35482 0.0
H185 H 0.02189 0.06739 0.43967 0.0
H186 H 0.05258 0.0944 0.40196 0.0
H187 H 0.11653 0.05027 0.42262 0.0
H188 H 0.08522 0.02189 0.45971 0.0
H189 H 0.11611 0.04911 0.3724 0.0
H190 H 0.1183 0.13019 0.4338 0.0
H191 H 0.10002 0.16383 0.46629 0.0
H192 H 0.05868 0.19766 0.40589 0.0
H193 H 0.07644 0.16395 0.37309 0.0
C194 C 0.19256 0.15142 0.2837 0.0
C195 C 0.17779 0.16222 0.26478 0.0
C196 C 0.17906 0.1377 0.30794 0.0
C197 C 0.15062 0.13478 0.31378 0.0
C198 C 0.13586 0.14588 0.29522 0.0
C199 C 0.14924 0.15922 0.27087 0.0
C200 C 0.13594 0.11948 0.33898 0.0
C201 C 0.12381 0.13729 0.35739 0.0
C202 C 0.13384 0.08756 0.34483 0.0
C203 C 0.14655 0.06773 0.32622 0.0
C204 C 0.1393 0.06397 0.30004 0.0
C205 C 0.15169 0.04555 0.28254 0.0
C206 C 0.17119 0.03058 0.29108 0.0
C207 C 0.17828 0.03393 0.31715 0.0
C208 C 0.16598 0.05236 0.33471 0.0
C209 C 0.04254 0.06356 0.43625 0.0
C210 C 0.05122 0.04261 0.45263 0.0
C211 C 0.06017 0.07919 0.41477 0.0
C212 C 0.08714 0.07494 0.40971 0.0
C213 C 0.09586 0.05402 0.42613 0.0
C214 C 0.07799 0.03784 0.44731 0.0
C215 C 0.10573 0.09145 0.38664 0.0
C216 C 0.11871 0.07392 0.36855 0.0
C217 C 0.10919 0.12385 0.38142 0.0
C218 C 0.09856 0.14435 0.40102 0.0
C219 C 0.10517 0.14466 0.42748 0.0
C220 C 0.09492 0.16376 0.44595 0.0
C221 C 0.07815 0.18282 0.43817 0.0
C222 C 0.07166 0.18288 0.41189 0.0
C223 C 0.08186 0.16381 0.39333 0.0
H224 H 0.07022 0.19758 0.4525 0.0
H225 H 0.18076 0.01634 0.2775 0.0
H226 H 0.35681 0.80914 0.75452 0.0
H227 H 0.37487 0.82743 0.7962 0.0
H228 H 0.36833 0.92067 0.77647 0.0
H229 H 0.35099 0.90268 0.73427 0.0
H230 H 0.41775 0.92065 0.79309 0.0
H231 H 0.32319 0.87583 0.82466 0.0
H232 H 0.28012 0.83483 0.83033 0.0
H233 H 0.32129 0.77439 0.86906 0.0
H234 H 0.36472 0.81488 0.8633 0.0
H235 H 0.45118 0.98082 0.9179 0.0
H236 H 0.42437 0.96437 0.88048 0.0
H237 H 0.42872 0.86912 0.89492 0.0
H238 H 0.4551 0.88523 0.93261 0.0
H239 H 0.37831 0.87209 0.88173 0.0
H240 H 0.47282 0.91371 0.8476 0.0
H241 H 0.51661 0.95363 0.84262 0.0
H242 H 0.47639 0.01843 0.80859 0.0
H243 H 0.43223 0.97901 0.81376 0.0
C244 C 0.35924 0.83356 0.75902 0.0
C245 C 0.35253 0.85448 0.74103 0.0
C246 C 0.36931 0.84392 0.78299 0.0
C247 C 0.3727 0.87537 0.78959 0.0
C248 C 0.36577 0.89628 0.77182 0.0
C249 C 0.35567 0.88592 0.74782 0.0
C250 C 0.3846 0.88662 0.8145 0.0
C251 C 0.40881 0.91042 0.81252 0.0
C252 C 0.37339 0.87269 0.83978 0.0
C253 C 0.34727 0.84832 0.84335 0.0
C254 C 0.32312 0.85371 0.8342 0.0
C255 C 0.29863 0.83058 0.83747 0.0
C256 C 0.29798 0.802 0.84999 0.0
C257 C 0.32182 0.79653 0.85934 0.0
C258 C 0.34637 0.81958 0.85611 0.0
C259 C 0.4462 0.95632 0.91329 0.0
C260 C 0.45552 0.93438 0.92807 0.0
C261 C 0.43092 0.94698 0.89186 0.0
C262 C 0.42491 0.91559 0.88468 0.0
C263 C 0.43317 0.89346 0.90009 0.0
C264 C 0.44836 0.90276 0.92156 0.0
C265 C 0.41137 0.90606 0.86025 0.0
C266 C 0.38701 0.88251 0.86231 0.0
C267 C 0.42254 0.92001 0.83498 0.0
C268 C 0.44918 0.94352 0.83129 0.0
C269 C 0.47328 0.93653 0.83918 0.0
C270 C 0.49817 0.95906 0.83632 0.0
C271 C 0.49927 0.98857 0.82534 0.0
C272 C 0.4755 0.99557 0.81711 0.0
C273 C 0.45054 0.97314 0.81999 0.0
H274 H 0.51854 0.006 0.82317 0.0
H275 H 0.279 0.78412 0.8525 0.0
H276 H 0.66201 0.42607 0.73624 0.0
H277 H 0.64815 0.44898 0.69676 0.0
H278 H 0.56765 0.38666 0.71004 0.0
H279 H 0.58123 0.36403 0.74952 0.0
H280 H 0.59243 0.38915 0.65685 0.0
H281 H 0.57531 0.45986 0.72719 0.0
H282 H 0.58947 0.4968 0.76245 0.0
H283 H 0.64883 0.55595 0.70576 0.0
H284 H 0.63526 0.51912 0.67023 0.0
H285 H 0.505 0.44265 0.57928 0.0
H286 H 0.52729 0.42699 0.61611 0.0
H287 H 0.59422 0.50843 0.6007 0.0
H288 H 0.57107 0.52505 0.56441 0.0
H289 H 0.58373 0.4989 0.65168 0.0
H290 H 0.59999 0.43372 0.58053 0.0
H291 H 0.58843 0.39822 0.54369 0.0
H292 H 0.53624 0.32987 0.59879 0.0
H293 H 0.54709 0.36516 0.63591 0.0
C294 C 0.64137 0.41732 0.73073 0.0
C295 C 0.62264 0.39325 0.74592 0.0
C296 C 0.63347 0.43046 0.70823 0.0
C297 C 0.60686 0.41952 0.70051 0.0
C298 C 0.5883 0.39538 0.71561 0.0
C299 C 0.59604 0.38255 0.73818 0.0
C300 C 0.59803 0.43287 0.67669 0.0
C301 C 0.59036 0.41309 0.65573 0.0
C302 C 0.59647 0.46445 0.67478 0.0
C303 C 0.60451 0.48656 0.69614 0.0
C304 C 0.59155 0.4806 0.7223 0.0
C305 C 0.59943 0.50154 0.74232 0.0
C306 C 0.6201 0.52865 0.73637 0.0
C307 C 0.63287 0.53491 0.71036 0.0
C308 C 0.62508 0.51403 0.69028 0.0
C309 C 0.52447 0.45725 0.58373 0.0
C310 C 0.53651 0.48486 0.56877 0.0
C311 C 0.5373 0.44819 0.60473 0.0
C312 C 0.56291 0.46599 0.61075 0.0
C313 C 0.57461 0.49413 0.59632 0.0
C314 C 0.56141 0.5036 0.57559 0.0
C315 C 0.57725 0.45489 0.63205 0.0
C316 C 0.58609 0.47506 0.65249 0.0
C317 C 0.58049 0.42379 0.63322 0.0
C318 C 0.57425 0.4022 0.61101 0.0
C319 C 0.58594 0.41118 0.58479 0.0
C320 C 0.57951 0.3911 0.56385 0.0
C321 C 0.56159 0.36183 0.5689 0.0
C322 C 0.55012 0.35255 0.59491 0.0
C323 C 0.55643 0.37258 0.61592 0.0
H324 H 0.55662 0.34632 0.55266 0.0
H325 H 0.62616 0.54484 0.7519 0.0
H326 H 0.90626 0.70865 0.19566 0.0
H327 H 0.92248 0.67867 0.15944 0.0
H328 H 0.84034 0.62046 0.1601 0.0
H329 H 0.82436 0.64962 0.19709 0.0
H330 H 0.87456 0.58534 0.15901 0.0
H331 H 0.87155 0.67601 0.10779 0.0
H332 H 0.88079 0.73221 0.09629 0.0
H333 H 0.96791 0.73774 0.0886 0.0
H334 H 0.95921 0.68168 0.10038 0.0
H335 H 0.94789 0.54761 0.02294 0.0
H336 H 0.91657 0.57447 0.04883 0.0
H337 H 0.95629 0.56422 0.11919 0.0
H338 H 0.98804 0.53842 0.09354 0.0
H339 H 0.93497 0.63151 0.07784 0.0
H340 H 0.90966 0.54648 0.16791 0.0
H341 H 0.89923 0.48964 0.17729 0.0
H342 H 0.86389 0.4731 0.10315 0.0
H343 H 0.8743 0.5298 0.09331 0.0
C344 C 0.89164 0.68966 0.18783 0.0
C345 C 0.86415 0.68135 0.19921 0.0
C346 C 0.90086 0.67266 0.16701 0.0
C347 C 0.88257 0.6475 0.15673 0.0
C348 C 0.85485 0.63975 0.16767 0.0
C349 C 0.84573 0.65644 0.18879 0.0
C350 C 0.89282 0.62791 0.13603 0.0
C351 C 0.88743 0.59555 0.14112 0.0
C352 C 0.9094 0.64093 0.11241 0.0
C353 C 0.9147 0.67464 0.10511 0.0
C354 C 0.89268 0.68924 0.10379 0.0
C355 C 0.89783 0.72108 0.0972 0.0
C356 C 0.92492 0.73854 0.09175 0.0
C357 C 0.94693 0.72419 0.09281 0.0
C358 C 0.9419 0.69237 0.0994 0.0
C359 C 0.94986 0.55101 0.04396 0.0
C360 C 0.97076 0.54139 0.05609 0.0
C361 C 0.93195 0.56628 0.05867 0.0
C362 C 0.93422 0.57132 0.08584 0.0
C363 C 0.95416 0.56039 0.09824 0.0
C364 C 0.97228 0.54562 0.08353 0.0
C365 C 0.91707 0.58951 0.10134 0.0
C366 C 0.92143 0.62151 0.09542 0.0
C367 C 0.89921 0.57625 0.12393 0.0
C368 C 0.89273 0.54226 0.12992 0.0
C369 C 0.89955 0.53067 0.1537 0.0
C370 C 0.89375 0.49851 0.15904 0.0
C371 C 0.8809 0.47778 0.14083 0.0
C372 C 0.8739 0.48917 0.11721 0.0
C373 C 0.87985 0.52129 0.11169 0.0
H374 H 0.87636 0.45289 0.14503 0.0
H375 H 0.92886 0.76319 0.08667 0.0
H376 H 0.26765 0.15802 0.22277 0.0
H377 H 0.30375 0.13583 0.20021 0.0
H378 H 0.27411 0.1487 0.12452 0.0
H379 H 0.23687 0.16927 0.14716 0.0
H380 H 0.28538 0.09396 0.12684 0.0
H381 H 0.33381 0.19701 0.14365 0.0
H382 H 0.34906 0.24343 0.17011 0.0
H383 H 0.38741 0.19065 0.22015 0.0
H384 H 0.37205 0.14376 0.19422 0.0
H385 H 0.40803 0.06489 0.05443 0.0
H386 H 0.37108 0.08953 0.07208 0.0
H387 H 0.38604 0.0693 0.15226 0.0
H388 H 0.42283 0.04465 0.13492 0.0
H389 H 0.38315 0.13098 0.14399 0.0
H390 H 0.33131 0.02705 0.12718 0.0
H391 H 0.31677 0.98209 0.09889 0.0
H392 H 0.28595 0.03963 0.04612 0.0
H393 H 0.30067 0.08507 0.07393 0.0
C394 C 0.2686 0.15587 0.20135 0.0
C395 C 0.24932 0.16547 0.1868 0.0
C396 C 0.28952 0.14355 0.18841 0.0
C397 C 0.29196 0.14106 0.16059 0.0
C398 C 0.27274 0.15056 0.14599 0.0
C399 C 0.25162 0.16262 0.15895 0.0
C400 C 0.31414 0.12775 0.14693 0.0
C401 C 0.30682 0.10245 0.13025 0.0
C402 C 0.34212 0.13857 0.15153 0.0
C403 C 0.35157 0.16678 0.1671 0.0
C404 C 0.34533 0.19523 0.16041 0.0
C405 C 0.35402 0.22164 0.1753 0.0
C406 C 0.36914 0.21997 0.19683 0.0
C407 C 0.37567 0.1919 0.20348 0.0
C408 C 0.36701 0.1654 0.18867 0.0
C409 C 0.40324 0.06538 0.07581 0.0
C410 C 0.41837 0.05278 0.09326 0.0
C411 C 0.38216 0.07949 0.08585 0.0
C412 C 0.3759 0.08126 0.11347 0.0
C413 C 0.39067 0.06829 0.13088 0.0
C414 C 0.41157 0.05403 0.1209 0.0
C415 C 0.35423 0.09698 0.12441 0.0
C416 C 0.36171 0.12276 0.14049 0.0
C417 C 0.3265 0.08688 0.11899 0.0
C418 C 0.31734 0.0595 0.10248 0.0
C419 C 0.32161 0.03016 0.10944 0.0
C420 C 0.31331 0.00458 0.09351 0.0
C421 C 0.30051 0.00802 0.07068 0.0
C422 C 0.2959 0.03702 0.06379 0.0
C423 C 0.3042 0.06268 0.07964 0.0
H424 H 0.29411 0.98819 0.05837 0.0
H425 H 0.37585 0.24044 0.20834 0.0
H426 H 0.24018 0.86253 0.67466 0.0
H427 H 0.19974 0.87804 0.66048 0.0
H428 H 0.23732 0.88816 0.57919 0.0
H429 H 0.27776 0.8725 0.59325 0.0
H430 H 0.21421 0.93798 0.59482 0.0
H431 H 0.18832 0.82551 0.59752 0.0
H432 H 0.18091 0.77316 0.61855 0.0
H433 H 0.12201 0.79576 0.67846 0.0
H434 H 0.12938 0.84846 0.658 0.0
H435 H 0.09965 0.94552 0.52637 0.0
H436 H 0.13854 0.92843 0.54216 0.0
H437 H 0.09584 0.91348 0.62143 0.0
H438 H 0.05676 0.93032 0.60578 0.0
H439 H 0.12123 0.86677 0.60844 0.0
H440 H 0.14542 0.97788 0.60655 0.0
H441 H 0.15235 0.03091 0.58701 0.0
H442 H 0.21418 0.01245 0.52808 0.0
H443 H 0.20724 0.95907 0.54697 0.0
C444 C 0.23985 0.86811 0.65378 0.0
C445 C 0.26211 0.86631 0.635 0.0
C446 C 0.2167 0.87688 0.6457 0.0
C447 C 0.21546 0.8841 0.61875 0.0
C448 C 0.23785 0.88272 0.60008 0.0
C449 C 0.26087 0.87368 0.6081 0.0
C450 C 0.19076 0.89288 0.60992 0.0
C451 C 0.19393 0.92227 0.59749 0.0
C452 C 0.16417 0.87275 0.61414 0.0
C453 C 0.15962 0.84104 0.62639 0.0
C454 C 0.17397 0.81942 0.61531 0.0
C455 C 0.16974 0.78966 0.6271 0.0
C456 C 0.15106 0.78117 0.64987 0.0
C457 C 0.13651 0.80239 0.66085 0.0
C458 C 0.14069 0.8322 0.64915 0.0
C459 C 0.09839 0.93832 0.54711 0.0
C460 C 0.07513 0.93944 0.56483 0.0
C461 C 0.12072 0.92871 0.55615 0.0
C462 C 0.12029 0.92009 0.58308 0.0
C463 C 0.09669 0.92012 0.6006 0.0
C464 C 0.07438 0.92983 0.59161 0.0
C465 C 0.1447 0.91176 0.59304 0.0
C466 C 0.14148 0.88251 0.60576 0.0
C467 C 0.17122 0.93216 0.58934 0.0
C468 C 0.1756 0.96433 0.57801 0.0
C469 C 0.16033 0.98502 0.58928 0.0
C470 C 0.16428 0.01516 0.57834 0.0
C471 C 0.18364 0.02501 0.55628 0.0
C472 C 0.19915 0.00476 0.54515 0.0
C473 C 0.19522 0.97456 0.55596 0.0
H474 H 0.18668 0.04836 0.54784 0.0
H475 H 0.14782 0.75812 0.65897 0.0
H476 H 0.72275 0.42424 0.84065 0.0
H477 H 0.76415 0.4441 0.86303 0.0
H478 H 0.78695 0.35589 0.85291 0.0
H479 H 0.74542 0.33588 0.83092 0.0
H480 H 0.78985 0.37224 0.90226 0.0
H481 H 0.82239 0.4236 0.81746 0.0
H482 H 0.82198 0.45665 0.77795 0.0
H483 H 0.82198 0.53545 0.82752 0.0
H484 H 0.82198 0.50276 0.8674 0.0
H485 H 0.92788 0.42176 0.93791 0.0
H486 H 0.88671 0.40241 0.91513 0.0
H487 H 0.8581 0.48514 0.93548 0.0
H488 H 0.89922 0.50489 0.95823 0.0
H489 H 0.85847 0.4722 0.88121 0.0
H490 H 0.82596 0.41962 0.96597 0.0
H491 H 0.82769 0.38614 0.00481 0.0
H492 H 0.82935 0.30887 0.9538 0.0
H493 H 0.82802 0.34204 0.91458 0.0
C494 C 0.73692 0.40936 0.84272 0.0
C495 C 0.73083 0.37849 0.83415 0.0
C496 C 0.76057 0.4207 0.85553 0.0
C497 C 0.77874 0.40151 0.85965 0.0
C498 C 0.77318 0.37108 0.85014 0.0
C499 C 0.74948 0.35968 0.83755 0.0
C500 C 0.80259 0.41233 0.8753 0.0
C501 C 0.80508 0.39388 0.89735 0.0
C502 C 0.82212 0.44095 0.8694 0.0
C503 C 0.82184 0.46061 0.84547 0.0
C504 C 0.82201 0.4479 0.81998 0.0
C505 C 0.82191 0.46659 0.7975 0.0
C506 C 0.82186 0.4981 0.80023 0.0
C507 C 0.82196 0.51101 0.82544 0.0
C508 C 0.82202 0.49242 0.84799 0.0
C509 C 0.91269 0.43571 0.93785 0.0
C510 C 0.91693 0.46494 0.94981 0.0
C511 C 0.88917 0.42459 0.92483 0.0
C512 C 0.8695 0.44251 0.9235 0.0
C513 C 0.87323 0.4712 0.9361 0.0
C514 C 0.89664 0.48228 0.94925 0.0
C515 C 0.84566 0.43202 0.90793 0.0
C516 C 0.8432 0.45055 0.88598 0.0
C517 C 0.82629 0.40338 0.91377 0.0
C518 C 0.82719 0.38341 0.93731 0.0
C519 C 0.82697 0.39558 0.963 0.0
C520 C 0.82781 0.37664 0.98509 0.0
C521 C 0.82871 0.34542 0.98177 0.0
C522 C 0.8287 0.33307 0.95634 0.0
C523 C 0.82787 0.35192 0.93418 0.0
H524 H 0.82935 0.33079 0.9989 0.0
H525 H 0.82182 0.51254 0.7828 0.0
H526 H 0.7817 0.65699 0.35669 0.0
H527 H 0.73782 0.63098 0.38098 0.0
H528 H 0.69616 0.64069 0.31173 0.0
H529 H 0.74005 0.66818 0.28756 0.0
H530 H 0.66759 0.65463 0.3555 0.0
H531 H 0.70829 0.57046 0.32939 0.0
H532 H 0.74458 0.54088 0.3239 0.0
H533 H 0.74444 0.53414 0.40884 0.0
H534 H 0.7084 0.56409 0.41484 0.0
H535 H 0.54507 0.54 0.40322 0.0
H536 H 0.58677 0.57097 0.37799 0.0
H537 H 0.63088 0.57236 0.44725 0.0
H538 H 0.58921 0.54135 0.47267 0.0
H539 H 0.65716 0.55231 0.40194 0.0
H540 H 0.61511 0.6374 0.42672 0.0
H541 H 0.5781 0.66606 0.43029 0.0
H542 H 0.57918 0.6685 0.34512 0.0
H543 H 0.61598 0.63951 0.34103 0.0
C544 C 0.7632 0.65387 0.34665 0.0
C545 C 0.76439 0.66477 0.32019 0.0
C546 C 0.73814 0.63868 0.36049 0.0
C547 C 0.71374 0.63354 0.34808 0.0
C548 C 0.71477 0.64433 0.32166 0.0
C549 C 0.73989 0.65975 0.3078 0.0
C550 C 0.68721 0.61716 0.36293 0.0
C551 C 0.66516 0.63203 0.36532 0.0
C552 C 0.68416 0.58788 0.37606 0.0
C553 C 0.70581 0.56978 0.37255 0.0
C554 C 0.71615 0.56289 0.3469 0.0
C555 C 0.73665 0.54602 0.34369 0.0
C556 C 0.74686 0.5357 0.366 0.0
C557 C 0.73653 0.54218 0.39157 0.0
C558 C 0.71605 0.55908 0.39489 0.0
C559 C 0.56357 0.54721 0.41317 0.0
C560 C 0.56396 0.53808 0.43986 0.0
C561 C 0.58732 0.56502 0.39876 0.0
C562 C 0.61187 0.57392 0.41078 0.0
C563 C 0.6121 0.56566 0.43765 0.0
C564 C 0.58828 0.54808 0.45216 0.0
C565 C 0.63775 0.58998 0.39482 0.0
C566 C 0.65963 0.57491 0.39212 0.0
C567 C 0.64044 0.61882 0.38113 0.0
C568 C 0.61816 0.63606 0.38359 0.0
C569 C 0.60729 0.6438 0.40876 0.0
C570 C 0.5864 0.66018 0.41087 0.0
C571 C 0.57632 0.66911 0.38794 0.0
C572 C 0.58704 0.6616 0.36285 0.0
C573 C 0.60794 0.64523 0.36063 0.0
H574 H 0.56022 0.68189 0.38959 0.0
H575 H 0.76273 0.52264 0.36348 0.0
H576 H 0.14597 0.2595 0.17646 0.0
H577 H 0.12247 0.29306 0.15344 0.0
H578 H 0.19985 0.33968 0.11005 0.0
H579 H 0.22356 0.30612 0.13311 0.0
H580 H 0.16965 0.38074 0.13047 0.0
H581 H 0.15499 0.2872 0.07985 0.0
H582 H 0.14001 0.23065 0.07341 0.0
H583 H 0.05721 0.23238 0.10383 0.0
H584 H 0.07179 0.2889 0.1108 0.0
H585 H 0.12759 0.45882 0.0277 0.0
H586 H 0.14584 0.42111 0.05136 0.0
H587 H 0.06498 0.38215 0.0917 0.0
H588 H 0.04629 0.42006 0.06789 0.0
H589 H 0.09419 0.33692 0.07521 0.0
H590 H 0.10814 0.43066 0.12427 0.0
H591 H 0.12266 0.48741 0.1297 0.0
H592 H 0.20623 0.48548 0.10247 0.0
H593 H 0.19212 0.42871 0.0965 0.0
C594 C 0.15801 0.27693 0.16206 0.0
C595 C 0.18663 0.2803 0.15654 0.0
C596 C 0.14452 0.29599 0.14886 0.0
C597 C 0.1594 0.31867 0.12992 0.0
C598 C 0.18802 0.32229 0.12461 0.0
C599 C 0.2015 0.30312 0.13771 0.0
C600 C 0.14518 0.33877 0.11571 0.0
C601 C 0.15334 0.37118 0.11819 0.0
C602 C 0.12336 0.32618 0.10032 0.0
C603 C 0.11455 0.29221 0.09613 0.0
C604 C 0.13364 0.27547 0.08539 0.0
C605 C 0.12521 0.24343 0.0816 0.0
C606 C 0.0977 0.22791 0.08828 0.0
C607 C 0.07853 0.24442 0.09871 0.0
C608 C 0.08686 0.27646 0.10257 0.0
C609 C 0.11354 0.44213 0.04143 0.0
C610 C 0.08552 0.44267 0.04617 0.0
C611 C 0.12406 0.42063 0.05498 0.0
C612 C 0.10685 0.39929 0.0736 0.0
C613 C 0.07859 0.39862 0.07747 0.0
C614 C 0.06797 0.42027 0.0639 0.0
C615 C 0.11892 0.37881 0.08976 0.0
C616 C 0.11034 0.3464 0.08768 0.0
C617 C 0.1403 0.39137 0.10563 0.0
C618 C 0.14902 0.42544 0.10974 0.0
C619 C 0.12959 0.44236 0.11929 0.0
C620 C 0.13776 0.47454 0.12247 0.0
C621 C 0.16535 0.49008 0.11636 0.0
C622 C 0.18486 0.47342 0.10717 0.0
C623 C 0.17679 0.44122 0.10392 0.0
H624 H 0.17165 0.51502 0.11879 0.0
H625 H 0.09121 0.20311 0.08532 0.0
H626 H 0.67744 0.26831 0.83311 0.0
H627 H 0.6513 0.22144 0.85867 0.0
H628 H 0.58328 0.2654 0.87604 0.0
H629 H 0.60921 0.31217 0.8502 0.0
H630 H 0.60318 0.24058 0.92157 0.0
H631 H 0.57467 0.2098 0.83513 0.0
H632 H 0.58267 0.19965 0.78734 0.0
H633 H 0.62712 0.13105 0.80577 0.0
H634 H 0.61971 0.14112 0.85367 0.0
H635 H 0.50697 0.11764 0.98993 0.0
H636 H 0.5302 0.16014 0.95867 0.0
H637 H 0.58351 0.10307 0.92456 0.0
H638 H 0.5589 0.05959 0.95486 0.0
H639 H 0.57254 0.13461 0.88677 0.0
H640 H 0.60387 0.16392 0.97112 0.0
H641 H 0.60038 0.17427 0.01917 0.0
H642 H 0.55701 0.2455 0.00575 0.0
H643 H 0.55994 0.23531 0.95766 0.0
C644 C 0.65676 0.26774 0.8421 0.0
C645 C 0.64528 0.29377 0.8397 0.0
C646 C 0.64186 0.241 0.8566 0.0
C647 C 0.61538 0.24001 0.86918 0.0
C648 C 0.60367 0.26574 0.8664 0.0
C649 C 0.6184 0.29231 0.85154 0.0
C650 C 0.60061 0.2129 0.8866 0.0
C651 C 0.59607 0.21746 0.91398 0.0
C652 C 0.5925 0.18259 0.87674 0.0
C653 C 0.59686 0.17644 0.84796 0.0
C654 C 0.58636 0.19275 0.82898 0.0
C655 C 0.59075 0.18697 0.80187 0.0
C656 C 0.60546 0.16478 0.79351 0.0
C657 C 0.61576 0.14826 0.81226 0.0
C658 C 0.61145 0.15398 0.83939 0.0
C659 C 0.52358 0.11411 0.97568 0.0
C660 C 0.53131 0.08542 0.97496 0.0
C661 C 0.53703 0.13854 0.95793 0.0
C662 C 0.55925 0.1353 0.9397 0.0
C663 C 0.56657 0.10632 0.93851 0.0
C664 C 0.55255 0.08149 0.95585 0.0
C665 C 0.57471 0.16218 0.92199 0.0
C666 C 0.57956 0.15764 0.89453 0.0
C667 C 0.58376 0.19248 0.93188 0.0
C668 C 0.58191 0.19864 0.96082 0.0
C669 C 0.59342 0.18163 0.97845 0.0
C670 C 0.59156 0.1875 0.00568 0.0
C671 C 0.57842 0.21047 0.01551 0.0
C672 C 0.56716 0.22768 0.99812 0.0
C673 C 0.56893 0.2219 0.97086 0.0
H674 H 0.57701 0.21498 0.0366 0.0
H675 H 0.60883 0.16033 0.77252 0.0
H676 H 0.85873 0.78042 0.29368 0.0
H677 H 0.88574 0.81894 0.32146 0.0
H678 H 0.88116 0.74707 0.38134 0.0
H679 H 0.85385 0.70867 0.35386 0.0
H680 H 0.86448 0.83145 0.37409 0.0
H681 H 0.94398 0.768 0.4098 0.0
H682 H 0.97112 0.73074 0.39287 0.0
H683 H 0.96885 0.76212 0.31255 0.0
H684 H 0.94207 0.79986 0.32901 0.0
H685 H 0.9081 0.89623 0.49196 0.0
H686 H 0.89549 0.85453 0.46074 0.0
H687 H 0.96737 0.89601 0.40701 0.0
H688 H 0.98048 0.93757 0.43837 0.0
H689 H 0.95406 0.82979 0.40742 0.0
H690 H 0.9097 0.91604 0.39963 0.0
H691 H 0.88327 0.95209 0.42028 0.0
H692 H 0.81508 0.87494 0.44401 0.0
H693 H 0.84146 0.83834 0.42418 0.0
C694 C 0.86396 0.77285 0.31256 0.0
C695 C 0.85421 0.74175 0.32178 0.0
C696 C 0.87925 0.79479 0.32839 0.0
C697 C 0.88545 0.78574 0.35334 0.0
C698 C 0.87674 0.7544 0.36204 0.0
C699 C 0.8611 0.73259 0.34643 0.0
C700 C 0.89878 0.80939 0.37144 0.0
C701 C 0.88417 0.83124 0.38119 0.0
C702 C 0.92437 0.8089 0.38076 0.0
C703 C 0.94079 0.78656 0.37066 0.0
C704 C 0.94938 0.76704 0.38853 0.0
C705 C 0.96468 0.74582 0.37902 0.0
C706 C 0.97163 0.744 0.35165 0.0
C707 C 0.96336 0.76346 0.33374 0.0
C708 C 0.94807 0.78473 0.34316 0.0
C709 C 0.92152 0.89619 0.47374 0.0
C710 C 0.94501 0.92049 0.46739 0.0
C711 C 0.91433 0.8723 0.45597 0.0
C712 C 0.93027 0.87255 0.43141 0.0
C713 C 0.95479 0.89547 0.42586 0.0
C714 C 0.96214 0.91929 0.44374 0.0
C715 C 0.91951 0.85141 0.41032 0.0
C716 C 0.93451 0.83009 0.40008 0.0
C717 C 0.89422 0.85228 0.40049 0.0
C718 C 0.87762 0.87445 0.41059 0.0
C719 C 0.88908 0.90678 0.40927 0.0
C720 C 0.87415 0.92729 0.42093 0.0
C721 C 0.84754 0.91579 0.43355 0.0
C722 C 0.83572 0.88379 0.4343 0.0
C723 C 0.85066 0.86315 0.42286 0.0
H724 H 0.83606 0.93168 0.44272 0.0
H725 H 0.98347 0.72755 0.34432 0.0
H726 H 0.3628 0.81256 0.62129 0.0
H727 H 0.38642 0.77669 0.59704 0.0
H728 H 0.38885 0.72788 0.6708 0.0
H729 H 0.36486 0.76319 0.69512 0.0
H730 H 0.43848 0.73935 0.6403 0.0
H731 H 0.34343 0.6965 0.6287 0.0
H732 H 0.29739 0.69791 0.61627 0.0
H733 H 0.33182 0.72377 0.53565 0.0
H734 H 0.37817 0.72295 0.54771 0.0
H735 H 0.47046 0.60025 0.58876 0.0
H736 H 0.44997 0.63928 0.61193 0.0
H737 H 0.44597 0.6839 0.53655 0.0
H738 H 0.46615 0.64478 0.5132 0.0
H739 H 0.39793 0.67587 0.56719 0.0
H740 H 0.493 0.71726 0.57862 0.0
H741 H 0.539 0.71613 0.59133 0.0
H742 H 0.50465 0.69314 0.67238 0.0
H743 H 0.45834 0.6937 0.66008 0.0
C744 C 0.36806 0.79397 0.63233 0.0
C745 C 0.36193 0.79082 0.66019 0.0
C746 C 0.38167 0.77356 0.61844 0.0
C747 C 0.38934 0.74954 0.63211 0.0
C748 C 0.38329 0.74636 0.65987 0.0
C749 C 0.36962 0.76665 0.67375 0.0
C750 C 0.40363 0.72764 0.61751 0.0
C751 C 0.42949 0.72519 0.62451 0.0
C752 C 0.39218 0.7097 0.59653 0.0
C753 C 0.36431 0.70997 0.58917 0.0
C754 C 0.34122 0.70272 0.60837 0.0
C755 C 0.31506 0.70338 0.60138 0.0
C756 C 0.31169 0.71101 0.5752 0.0
C757 C 0.33447 0.71791 0.55593 0.0
C758 C 0.36069 0.71733 0.56283 0.0
C759 C 0.46553 0.61857 0.5771 0.0
C760 C 0.46998 0.61936 0.5491 0.0
C761 C 0.45386 0.64093 0.5904 0.0
C762 C 0.44654 0.66465 0.576 0.0
C763 C 0.4514 0.6658 0.54808 0.0
C764 C 0.46308 0.64347 0.53477 0.0
C765 C 0.43283 0.68751 0.58996 0.0
C766 C 0.40702 0.69011 0.58289 0.0
C767 C 0.44434 0.70557 0.61089 0.0
C768 C 0.47216 0.70523 0.61836 0.0
C769 C 0.49521 0.7117 0.59911 0.0
C770 C 0.52135 0.71122 0.60625 0.0
C771 C 0.52473 0.70449 0.63263 0.0
C772 C 0.50199 0.69831 0.65194 0.0
C773 C 0.4758 0.69874 0.6449 0.0
H774 H 0.54499 0.70413 0.63812 0.0
H775 H 0.29143 0.71151 0.56983 0.0
H776 H 0.82044 0.9036 0.76824 0.0
H777 H 0.84509 0.9222 0.72481 0.0
H778 H 0.85887 0.83053 0.70973 0.0
H779 H 0.83347 0.81138 0.75282 0.0
H780 H 0.90653 0.8785 0.69966 0.0
H781 H 0.81336 0.85325 0.67755 0.0
H782 H 0.76412 0.85424 0.6826 0.0
H783 H 0.78548 0.95367 0.66957 0.0
H784 H 0.8349 0.95334 0.66483 0.0
H785 H 0.96219 0.91288 0.56539 0.0
H786 H 0.93282 0.88843 0.60499 0.0
H787 H 0.90793 0.97452 0.62109 0.0
H788 H 0.93665 0.99889 0.58112 0.0
H789 H 0.86495 0.92634 0.62975 0.0
H790 H 0.95767 0.95257 0.65403 0.0
H791 H 0.00713 0.95253 0.64876 0.0
H792 H 0.9871 0.85271 0.65843 0.0
H793 H 0.93748 0.85211 0.66331 0.0
C794 C 0.82823 0.8872 0.75552 0.0
C795 C 0.82492 0.85596 0.76404 0.0
C796 C 0.84245 0.89793 0.73077 0.0
C797 C 0.85369 0.87769 0.71408 0.0
C798 C 0.85041 0.84652 0.72241 0.0
C799 C 0.83598 0.83568 0.74707 0.0
C800 C 0.86945 0.88936 0.68821 0.0
C801 C 0.89737 0.88852 0.68417 0.0
C802 C 0.85756 0.90302 0.66834 0.0
C803 C 0.82785 0.9033 0.67108 0.0
C804 C 0.80757 0.87537 0.67599 0.0
C805 C 0.77963 0.8758 0.67875 0.0
C806 C 0.77168 0.90401 0.67647 0.0
C807 C 0.79167 0.93184 0.67136 0.0
C808 C 0.81965 0.93154 0.6686 0.0
C809 C 0.95039 0.92659 0.57731 0.0
C810 C 0.95189 0.9579 0.57023 0.0
C811 C 0.93367 0.9126 0.59997 0.0
C812 C 0.91852 0.9298 0.61622 0.0
C813 C 0.91949 0.96083 0.60885 0.0
C814 C 0.93599 0.97475 0.58605 0.0
C815 C 0.90215 0.91576 0.64124 0.0
C816 C 0.87411 0.91617 0.64515 0.0
C817 C 0.914 0.90191 0.66109 0.0
C818 C 0.94384 0.90227 0.65878 0.0
C819 C 0.96381 0.93059 0.65489 0.0
C820 C 0.99187 0.93069 0.65197 0.0
C821 C 1.00025 0.90263 0.65319 0.0
C822 C 0.98057 0.87442 0.65745 0.0
C823 C 0.95248 0.87419 0.6603 0.0
H824 H 0.02198 0.90274 0.65089 0.0
H825 H 0.75003 0.9043 0.67861 0.0
H826 H 0.68564 0.15007 0.26854 0.0
H827 H 0.66752 0.12751 0.22798 0.0
H828 H 0.58452 0.1144 0.26614 0.0
H829 H 0.60251 0.13627 0.30696 0.0
H830 H 0.59159 0.06349 0.23838 0.0
H831 H 0.61095 0.17468 0.22292 0.0
H832 H 0.63954 0.22844 0.21952 0.0
H833 H 0.69508 0.20174 0.15851 0.0
H834 H 0.66702 0.14767 0.16182 0.0
H835 H 0.51348 0.04977 0.12831 0.0
H836 H 0.53625 0.06448 0.16828 0.0
H837 H 0.61567 0.07665 0.12246 0.0
H838 H 0.59296 0.06234 0.08208 0.0
H839 H 0.6134 0.1255 0.15328 0.0
H840 H 0.59158 0.01481 0.16628 0.0
H841 H 0.56178 0.96168 0.16887 0.0
H842 H 0.51011 0.98737 0.23388 0.0
H843 H 0.53938 0.04082 0.23144 0.0
C844 C 0.66354 0.14212 0.26837 0.0
C845 C 0.64549 0.14508 0.29092 0.0
C846 C 0.65322 0.12944 0.24513 0.0
C847 C 0.62467 0.11953 0.24398 0.0
C848 C 0.60662 0.12195 0.26659 0.0
C849 C 0.61692 0.13471 0.2898 0.0
C850 C 0.61352 0.10712 0.21908 0.0
C851 C 0.59616 0.07711 0.21981 0.0
C852 C 0.62007 0.12462 0.19471 0.0
C853 C 0.63708 0.15705 0.19286 0.0
C854 C 0.62942 0.18019 0.20897 0.0
C855 C 0.64549 0.21074 0.20702 0.0
C856 C 0.66917 0.21848 0.18888 0.0
C857 C 0.67678 0.19569 0.1726 0.0
C858 C 0.66079 0.1651 0.1745 0.0
C859 C 0.5358 0.05534 0.1267 0.0
C860 C 0.55142 0.05496 0.10197 0.0
C861 C 0.54879 0.06356 0.14964 0.0
C862 C 0.57766 0.07134 0.14842 0.0
C863 C 0.59335 0.07063 0.12384 0.0
C864 C 0.58035 0.06238 0.10082 0.0
C865 C 0.59131 0.08193 0.17256 0.0
C866 C 0.60909 0.11166 0.17174 0.0
C867 C 0.5851 0.06417 0.19681 0.0
C868 C 0.56759 0.03192 0.19854 0.0
C869 C 0.57376 0.0092 0.18102 0.0
C870 C 0.55698 0.97901 0.18247 0.0
C871 C 0.53404 0.97117 0.20149 0.0
C872 C 0.52788 0.99348 0.21915 0.0
C873 C 0.54459 0.02372 0.21776 0.0
H874 H 0.52106 0.94778 0.20257 0.0
H875 H 0.68157 0.24215 0.18737 0.0
H876 H 0.43711 0.64664 0.26058 0.0
H877 H 0.4505 0.61912 0.29752 0.0
H878 H 0.36478 0.58541 0.32713 0.0
H879 H 0.35134 0.61209 0.28975 0.0
H880 H 0.44571 0.62605 0.34776 0.0
H881 H 0.35445 0.51609 0.36071 0.0
H882 H 0.3235 0.48154 0.33285 0.0
H883 H 0.38348 0.50698 0.26468 0.0
H884 H 0.41494 0.54133 0.29219 0.0
H885 H 0.44555 0.5609 0.47344 0.0
H886 H 0.42884 0.57958 0.43409 0.0
H887 H 0.44879 0.50299 0.38967 0.0
H888 H 0.4644 0.48334 0.42954 0.0
H889 H 0.40392 0.51522 0.37393 0.0
H890 H 0.49367 0.57601 0.38556 0.0
H891 H 0.529 0.60714 0.41134 0.0
H892 H 0.48083 0.67578 0.42374 0.0
H893 H 0.44505 0.64485 0.39828 0.0
C894 C 0.42115 0.63312 0.27489 0.0
C895 C 0.39323 0.63136 0.27222 0.0
C896 C 0.4288 0.61749 0.29603 0.0
C897 C 0.40868 0.59987 0.31505 0.0
C898 C 0.38071 0.59826 0.31247 0.0
C899 C 0.37304 0.61367 0.29114 0.0
C900 C 0.41705 0.58415 0.33802 0.0
C901 C 0.43656 0.60179 0.35337 0.0
C902 C 0.40567 0.55228 0.34516 0.0
C903 C 0.38692 0.53155 0.32848 0.0
C904 C 0.36107 0.51424 0.33979 0.0
C905 C 0.34343 0.4947 0.32406 0.0
C906 C 0.35148 0.49215 0.29699 0.0
C907 C 0.37722 0.50907 0.28562 0.0
C908 C 0.39495 0.52862 0.30127 0.0
C909 C 0.44605 0.54781 0.45539 0.0
C910 C 0.45666 0.52093 0.45444 0.0
C911 C 0.43659 0.55857 0.43287 0.0
C912 C 0.43829 0.54322 0.40867 0.0
C913 C 0.44745 0.51536 0.40805 0.0
C914 C 0.45641 0.50418 0.43083 0.0
C915 C 0.43203 0.55735 0.38384 0.0
C916 C 0.41302 0.53945 0.36819 0.0
C917 C 0.44459 0.58868 0.37581 0.0
C918 C 0.46659 0.608 0.39018 0.0
C919 C 0.4906 0.59772 0.39382 0.0
C920 C 0.51068 0.6153 0.40841 0.0
C921 C 0.50707 0.64334 0.41929 0.0
C922 C 0.48354 0.65401 0.41536 0.0
C923 C 0.46338 0.6365 0.4008 0.0
H924 H 0.52254 0.65685 0.43072 0.0
H925 H 0.33779 0.47701 0.28484 0.0
H926 H 0.13349 0.33282 0.80619 0.0
H927 H 0.11151 0.36597 0.83539 0.0
H928 H 0.18458 0.39135 0.8763 0.0
H929 H 0.20696 0.35825 0.8468 0.0
H930 H 0.13294 0.37661 0.9105 0.0
H931 H 0.17695 0.44195 0.83478 0.0
H932 H 0.18878 0.45541 0.78687 0.0
H933 H 0.1033 0.4478 0.7775 0.0
H934 H 0.0909 0.43382 0.82531 0.0
H935 H 0.08466 0.50253 0.97451 0.0
H936 H 0.11407 0.4723 0.94997 0.0
H937 H 0.05343 0.44675 0.8942 0.0
H938 H 0.02399 0.47618 0.91897 0.0
H939 H 0.1042 0.46477 0.86898 0.0
H940 H 0.05934 0.3971 0.94325 0.0
H941 H 0.04598 0.37962 0.99021 0.0
H942 H 0.13102 0.38838 0.00202 0.0
H943 H 0.14499 0.40682 0.95531 0.0
C944 C 0.14485 0.34522 0.82151 0.0
C945 C 0.17198 0.34305 0.82425 0.0
C946 C 0.13228 0.36421 0.83812 0.0
C947 C 0.14654 0.38124 0.8578 0.0
C948 C 0.1733 0.37837 0.86118 0.0
C949 C 0.18603 0.35957 0.84435 0.0
C950 C 0.13358 0.40273 0.87418 0.0
C951 C 0.1271 0.3963 0.90162 0.0
C952 C 0.12559 0.42796 0.86233 0.0
C953 C 0.13298 0.43659 0.8336 0.0
C954 C 0.16065 0.44291 0.82247 0.0
C955 C 0.16746 0.45067 0.79533 0.0
C956 C 0.1468 0.45239 0.77914 0.0
C957 C 0.11928 0.44643 0.79007 0.0
C958 C 0.11235 0.43862 0.81719 0.0
C959 C 0.07753 0.48993 0.95734 0.0
C960 C 0.05188 0.49109 0.94904 0.0
C961 C 0.09435 0.47292 0.94321 0.0
C962 C 0.08575 0.45696 0.92045 0.0
C963 C 0.06045 0.45885 0.91173 0.0
C964 C 0.04367 0.47574 0.92588 0.0
C965 C 0.10298 0.43839 0.90538 0.0
C966 C 0.11034 0.4454 0.87807 0.0
C967 C 0.11158 0.41359 0.9174 0.0
C968 C 0.10325 0.40377 0.94582 0.0
C969 C 0.07525 0.39583 0.95595 0.0
C970 C 0.06755 0.38566 0.98252 0.0
C971 C 0.08764 0.38289 0.99908 0.0
C972 C 0.11549 0.39057 0.98917 0.0
C973 C 0.12331 0.40098 0.96268 0.0
H974 H 0.08162 0.37469 0.01955 0.0
H975 H 0.15211 0.45841 0.75813 0.0
H976 H 0.76424 0.86456 0.87806 0.0
H977 H 0.72509 0.88498 0.89633 0.0
H978 H 0.69211 0.87492 0.82035 0.0
H979 H 0.73089 0.85377 0.80202 0.0
H980 H 0.69265 0.93241 0.84156 0.0
H981 H 0.66234 0.82507 0.86976 0.0
H982 H 0.66617 0.77577 0.89073 0.0
H983 H 0.67404 0.8199 0.96605 0.0
H984 H 0.67066 0.86963 0.94543 0.0
H985 H 0.56197 0.96079 0.88617 0.0
H986 H 0.59935 0.93801 0.86713 0.0
H987 H 0.63069 0.93979 0.94381 0.0
H988 H 0.59287 0.96188 0.9632 0.0
H989 H 0.63038 0.88546 0.92138 0.0
H990 H 0.66188 0.99326 0.89277 0.0
H991 H 0.65832 0.04257 0.87157 0.0
H992 H 0.64845 0.99754 0.79683 0.0
H993 H 0.65159 0.94784 0.81768 0.0
C994 C 0.74846 0.86621 0.86532 0.0
C995 C 0.75071 0.85748 0.83857 0.0
C996 C 0.72615 0.878 0.87578 0.0
C997 C 0.70565 0.88129 0.85972 0.0
C998 C 0.70778 0.87264 0.83303 0.0
C999 C 0.73002 0.86069 0.82258 0.0
C1000 C 0.68233 0.89447 0.87066 0.0
C1001 C 0.67876 0.92193 0.85878 0.0
C1002 C 0.66464 0.88109 0.89346 0.0
C1003 C 0.66651 0.85117 0.90598 0.0
C1004 C 0.66511 0.82434 0.89075 0.0
C1005 C 0.66716 0.7963 0.90258 0.0
C1006 C 0.67041 0.79472 0.92969 0.0
C1007 C 0.67155 0.82117 0.94504 0.0
C1008 C 0.66954 0.84928 0.93329 0.0
C1009 C 0.57693 0.95659 0.89897 0.0
C1010 C 0.57453 0.96331 0.92619 0.0
C1011 C 0.59834 0.9436 0.88803 0.0
C1012 C 0.61803 0.93751 0.90397 0.0
C1013 C 0.61574 0.9443 0.93113 0.0
C1014 C 0.59419 0.95707 0.94215 0.0
C1015 C 0.64077 0.92362 0.89241 0.0
C1016 C 0.64423 0.89598 0.90415 0.0
C1017 C 0.65839 0.93685 0.86947 0.0
C1018 C 0.65671 0.96677 0.85685 0.0
C1019 C 0.65876 0.99383 0.87186 0.0
C1020 C 0.65685 0.02185 0.8599 0.0
C1021 C 0.65309 0.02317 0.83289 0.0
C1022 C 0.65133 0.99648 0.81776 0.0
C1023 C 0.6532 0.96838 0.82963 0.0
H1024 H 0.6516 0.04489 0.82367 0.0
H1025 H 0.672 0.77299 0.93882 0.0
H1026 H 0.72947 0.13947 0.4338 0.0
H1027 H 0.76903 0.12084 0.44615 0.0
H1028 H 0.80292 0.12773 0.36362 0.0
H1029 H 0.76282 0.14519 0.35115 0.0
H1030 H 0.80838 0.07628 0.38398 0.0
H1031 H 0.82968 0.18139 0.41149 0.0
H1032 H 0.82135 0.22822 0.43418 0.0
H1033 H 0.81009 0.17949 0.50994 0.0
H1034 H 0.81801 0.1322 0.48766 0.0
H1035 H 0.93874 0.05377 0.41308 0.0
H1036 H 0.90174 0.07541 0.39861 0.0
H1037 H 0.86206 0.06632 0.47915 0.0
H1038 H 0.89947 0.0454 0.49392 0.0
H1039 H 0.86139 0.12098 0.45802 0.0
H1040 H 0.83452 0.0138 0.42741 0.0
H1041 H 0.84104 0.96763 0.40251 0.0
H1042 H 0.86574 0.02376 0.33053 0.0
H1043 H 0.85853 0.07015 0.35482 0.0
C1044 C 0.74544 0.13708 0.41834 0.0
C1045 C 0.74307 0.14374 0.39157 0.0
C1046 C 0.76815 0.12663 0.42541 0.0
C1047 C 0.7893 0.12332 0.40589 0.0
C1048 C 0.78695 0.1301 0.37908 0.0
C1049 C 0.76402 0.14014 0.37197 0.0
C1050 C 0.81338 0.11184 0.41336 0.0
C1051 C 0.82022 0.08645 0.39991 0.0
C1052 C 0.82873 0.1247 0.43435 0.0
C1053 C 0.82422 0.15317 0.44788 0.0
C1054 C 0.82526 0.1806 0.43298 0.0
C1055 C 0.82064 0.20723 0.44577 0.0
C1056 C 0.81514 0.20681 0.47348 0.0
C1057 C 0.81434 0.17978 0.48847 0.0
C1058 C 0.81893 0.15306 0.47578 0.0
C1059 C 0.92213 0.05631 0.42775 0.0
C1060 C 0.92209 0.04779 0.45468 0.0
C1061 C 0.90083 0.0685 0.41938 0.0
C1062 C 0.87876 0.07206 0.43767 0.0
C1063 C 0.87878 0.06375 0.46461 0.0
C1064 C 0.90019 0.05175 0.47304 0.0
C1065 C 0.85605 0.08515 0.42891 0.0
C1066 C 0.84955 0.11093 0.44207 0.0
C1067 C 0.84127 0.073 0.40737 0.0
C1068 C 0.84631 0.04541 0.39296 0.0
C1069 C 0.84154 0.0163 0.40632 0.0
C1070 C 0.8453 0.9901 0.39231 0.0
C1071 C 0.85417 0.99279 0.36507 0.0
C1072 C 0.85899 0.0217 0.35166 0.0
C1073 C 0.85489 0.04791 0.36548 0.0
H1074 H 0.85713 0.97245 0.35432 0.0
H1075 H 0.81155 0.22746 0.48335 0.0
H1076 H 0.3014 0.61369 0.1701 0.0
H1077 H 0.26158 0.59483 0.14502 0.0
H1078 H 0.22823 0.67295 0.17071 0.0
H1079 H 0.26815 0.69211 0.19544 0.0
H1080 H 0.18869 0.61262 0.17286 0.0
H1081 H 0.26034 0.6798 0.11314 0.0
H1082 H 0.30746 0.69618 0.09032 0.0
H1083 H 0.29832 0.60721 0.05373 0.0
H1084 H 0.25125 0.59011 0.0767 0.0
H1085 H 0.08898 0.61293 0.08532 0.0
H1086 H 0.12957 0.62999 0.10929 0.0
H1087 H 0.1682 0.56324 0.0681 0.0
H1088 H 0.12805 0.54671 0.04346 0.0
H1089 H 0.20565 0.61499 0.07414 0.0
H1090 H 0.13507 0.54724 0.13068 0.0
H1091 H 0.08862 0.52721 0.15405 0.0
H1092 H 0.09592 0.61181 0.19729 0.0
H1093 H 0.14234 0.63248 0.17392 0.0
C1094 C 0.28532 0.62649 0.1707 0.0
C1095 C 0.28778 0.65434 0.18461 0.0
C1096 C 0.26272 0.61582 0.15631 0.0
C1097 C 0.24212 0.63265 0.15592 0.0
C1098 C 0.24394 0.65968 0.17078 0.0
C1099 C 0.26672 0.67062 0.1848 0.0
C1100 C 0.21933 0.62302 0.13899 0.0
C1101 C 0.19229 0.61343 0.15128 0.0
C1102 C 0.22425 0.62319 0.11089 0.0
C1103 C 0.25241 0.63357 0.09686 0.0
C1104 C 0.26847 0.66363 0.10041 0.0
C1105 C 0.29515 0.67307 0.08742 0.0
C1106 C 0.30591 0.65272 0.07064 0.0
C1107 C 0.28997 0.62293 0.06676 0.0
C1108 C 0.26329 0.61336 0.07975 0.0
C1109 C 0.10632 0.60227 0.08101 0.0
C1110 C 0.10519 0.57834 0.06261 0.0
C1111 C 0.12943 0.61189 0.09487 0.0
C1112 C 0.15168 0.59739 0.09096 0.0
C1113 C 0.15125 0.57468 0.07154 0.0
C1114 C 0.12826 0.56529 0.05744 0.0
C1115 C 0.17475 0.60496 0.10796 0.0
C1116 C 0.20191 0.61408 0.09572 0.0
C1117 C 0.16997 0.60384 0.13616 0.0
C1118 C 0.1421 0.59149 0.15038 0.0
C1119 C 0.12671 0.56163 0.14507 0.0
C1120 C 0.1004 0.55016 0.15832 0.0
C1121 C 0.0893 0.56826 0.1771 0.0
C1122 C 0.10454 0.59783 0.18271 0.0
C1123 C 0.13087 0.60942 0.16949 0.0
H1124 H 0.06891 0.55935 0.18735 0.0
H1125 H 0.32657 0.66007 0.06059 0.0
H1126 H 0.26847 0.33057 0.74645 0.0
H1127 H 0.31172 0.36128 0.72323 0.0
H1128 H 0.27393 0.35607 0.64979 0.0
H1129 H 0.23071 0.32606 0.67279 0.0
H1130 H 0.32501 0.3422 0.64353 0.0
H1131 H 0.28266 0.42133 0.68412 0.0
H1132 H 0.26233 0.44671 0.72189 0.0
H1133 H 0.33763 0.45972 0.75863 0.0
H1134 H 0.35827 0.434 0.72123 0.0
H1135 H 0.41126 0.4604 0.55894 0.0
H1136 H 0.37347 0.42616 0.58684 0.0
H1137 H 0.41867 0.44668 0.65545 0.0
H1138 H 0.45631 0.48153 0.62777 0.0
H1139 H 0.36714 0.45034 0.66753 0.0
H1140 H 0.41129 0.37564 0.62584 0.0
H1141 H 0.43221 0.34997 0.58866 0.0
H1142 H 0.35495 0.32749 0.55504 0.0
H1143 H 0.33365 0.35344 0.59182 0.0
C1144 C 0.26934 0.33623 0.72541 0.0
C1145 C 0.24623 0.32567 0.71142 0.0
C1146 C 0.29406 0.35365 0.71218 0.0
C1147 C 0.29598 0.36086 0.6848 0.0
C1148 C 0.27293 0.35049 0.67087 0.0
C1149 C 0.24828 0.33324 0.68405 0.0
C1150 C 0.3219 0.37927 0.67039 0.0
C1151 C 0.33416 0.36593 0.64862 0.0
C1152 C 0.33425 0.40982 0.67764 0.0
C1153 C 0.32189 0.42542 0.70004 0.0
C1154 C 0.2948 0.42937 0.70036 0.0
C1155 C 0.28323 0.44385 0.72168 0.0
C1156 C 0.29865 0.45473 0.74269 0.0
C1157 C 0.32569 0.45123 0.74237 0.0
C1158 C 0.33734 0.43671 0.72112 0.0
C1159 C 0.41326 0.45745 0.57992 0.0
C1160 C 0.43674 0.47371 0.59117 0.0
C1161 C 0.39168 0.43777 0.59584 0.0
C1162 C 0.39336 0.43361 0.6232 0.0
C1163 C 0.41693 0.44956 0.6344 0.0
C1164 C 0.43844 0.46941 0.61853 0.0
C1165 C 0.37003 0.41352 0.64024 0.0
C1166 C 0.35826 0.42649 0.66256 0.0
C1167 C 0.35824 0.38252 0.63361 0.0
C1168 C 0.37092 0.36671 0.6115 0.0
C1169 C 0.3988 0.36542 0.61042 0.0
C1170 C 0.41073 0.35079 0.58943 0.0
C1171 C 0.39493 0.33716 0.56947 0.0
C1172 C 0.36716 0.33807 0.5705 0.0
C1173 C 0.35514 0.35271 0.59144 0.0
H1174 H 0.40421 0.32585 0.55323 0.0
H1175 H 0.28966 0.46594 0.75917 0.0
H1176 H 0.8448 0.78506 0.88935 0.0
H1177 H 0.87229 0.75997 0.9162 0.0
H1178 H 0.88799 0.70267 0.85013 0.0
H1179 H 0.86059 0.72766 0.82323 0.0
H1180 H 0.8719 0.66898 0.89719 0.0
H1181 H 0.937 0.76329 0.86436 0.0
H1182 H 0.95391 0.82017 0.85726 0.0
H1183 H 0.94945 0.83192 0.94187 0.0
H1184 H 0.93213 0.77509 0.94947 0.0
H1185 H 0.98159 0.60804 0.92476 0.0
H1186 H 0.95794 0.64331 0.90457 0.0
H1187 H 0.94273 0.68264 0.98104 0.0
H1188 H 0.96634 0.64702 0.00171 0.0
H1189 H 0.95646 0.72709 0.9341 0.0
H1190 H 0.8938 0.63185 0.96661 0.0
H1191 H 0.8777 0.57481 0.97305 0.0
H1192 H 0.87755 0.56487 0.88848 0.0
H1193 H 0.89419 0.62186 0.88148 0.0
C1194 C 0.85407 0.76707 0.8806 0.0
C1195 C 0.85056 0.75814 0.85425 0.0
C1196 C 0.86986 0.7529 0.8959 0.0
C1197 C 0.88227 0.72961 0.88507 0.0
C1198 C 0.87856 0.72058 0.85884 0.0
C1199 C 0.86296 0.73485 0.84351 0.0
C1200 C 0.89879 0.71412 0.90105 0.0
C1201 C 0.89047 0.68168 0.90511 0.0
C1202 C 0.92257 0.73085 0.91202 0.0
C1203 C 0.93294 0.76499 0.90749 0.0
C1204 C 0.93937 0.77803 0.88146 0.0
C1205 C 0.94908 0.81025 0.87734 0.0
C1206 C 0.95266 0.82966 0.8991 0.0
C1207 C 0.94661 0.81686 0.92503 0.0
C1208 C 0.93686 0.78465 0.92926 0.0
C1209 C 0.97374 0.62458 0.93729 0.0
C1210 C 0.97549 0.62442 0.96492 0.0
C1211 C 0.96024 0.64472 0.92568 0.0
C1212 C 0.94828 0.66514 0.94142 0.0
C1213 C 0.95183 0.66692 0.96864 0.0
C1214 C 0.96532 0.64659 0.98037 0.0
C1215 C 0.92979 0.68199 0.92966 0.0
C1216 C 0.93768 0.71454 0.92645 0.0
C1217 C 0.90555 0.66541 0.91942 0.0
C1218 C 0.89549 0.63112 0.92352 0.0
C1219 C 0.8906 0.61749 0.94936 0.0
C1220 C 0.88135 0.58518 0.95312 0.0
C1221 C 0.87666 0.56626 0.93118 0.0
C1222 C 0.88123 0.57959 0.90544 0.0
C1223 C 0.89056 0.61189 0.90157 0.0
H1224 H 0.86939 0.5413 0.93414 0.0
H1225 H 0.9602 0.8546 0.89588 0.0
H1226 H 0.40791 0.73139 0.18498 0.0
H1227 H 0.43223 0.78214 0.16491 0.0
H1228 H 0.3569 0.81434 0.17567 0.0
H1229 H 0.33246 0.76354 0.19558 0.0
H1230 H 0.37905 0.82517 0.12648 0.0
H1231 H 0.41214 0.84432 0.2111 0.0
H1232 H 0.43317 0.83418 0.25136 0.0
H1233 H 0.50902 0.8336 0.20369 0.0
H1234 H 0.4883 0.84321 0.16305 0.0
H1235 H 0.4479 0.97462 0.07055 0.0
H1236 H 0.42599 0.93797 0.10763 0.0
H1237 H 0.48546 0.88249 0.08841 0.0
H1238 H 0.50687 0.91851 0.05102 0.0
H1239 H 0.46954 0.88928 0.14641 0.0
H1240 H 0.43256 0.86078 0.06212 0.0
H1241 H 0.41171 0.87154 0.02191 0.0
H1242 H 0.34245 0.89045 0.07073 0.0
H1243 H 0.36322 0.88037 0.11128 0.0
C1244 C 0.39669 0.74953 0.18364 0.0
C1245 C 0.36824 0.74342 0.1917 0.0
C1246 C 0.41062 0.77857 0.17218 0.0
C1247 C 0.39644 0.80218 0.16887 0.0
C1248 C 0.36827 0.79649 0.17793 0.0
C1249 C 0.35432 0.76744 0.18925 0.0
C1250 C 0.41032 0.83155 0.15368 0.0
C1251 C 0.39851 0.83953 0.13131 0.0
C1252 C 0.43599 0.8501 0.15959 0.0
C1253 C 0.44856 0.84424 0.18397 0.0
C1254 C 0.43322 0.84176 0.20915 0.0
C1255 C 0.44511 0.83615 0.23205 0.0
C1256 C 0.47239 0.83318 0.23007 0.0
C1257 C 0.48787 0.83587 0.20519 0.0
C1258 C 0.47607 0.84143 0.18221 0.0
C1259 C 0.45668 0.95507 0.07476 0.0
C1260 C 0.47894 0.94924 0.05799 0.0
C1261 C 0.44417 0.93417 0.09585 0.0
C1262 C 0.45415 0.90757 0.10067 0.0
C1263 C 0.47758 0.90297 0.08507 0.0
C1264 C 0.48965 0.92341 0.06365 0.0
C1265 C 0.43824 0.88238 0.11943 0.0
C1266 C 0.44976 0.87515 0.14218 0.0
C1267 C 0.41224 0.8645 0.11403 0.0
C1268 C 0.39962 0.87029 0.08971 0.0
C1269 C 0.41303 0.86757 0.06428 0.0
C1270 C 0.40121 0.87349 0.04143 0.0
C1271 C 0.37581 0.88179 0.04376 0.0
C1272 C 0.36216 0.88411 0.06896 0.0
C1273 C 0.37395 0.87831 0.09188 0.0
H1274 H 0.36667 0.88634 0.02605 0.0
H1275 H 0.48156 0.82885 0.24783 0.0
H1276 H 0.12367 0.25042 0.71864 0.0
H1277 H 0.09849 0.21204 0.68971 0.0
H1278 H 0.17321 0.18256 0.66492 0.0
H1279 H 0.19829 0.21994 0.69433 0.0
H1280 H 0.14543 0.19973 0.62249 0.0
H1281 H 0.12639 0.13638 0.7044 0.0
H1282 H 0.10851 0.12489 0.75162 0.0
H1283 H 0.02775 0.13051 0.73382 0.0
H1284 H 0.04526 0.14247 0.68653 0.0
H1285 H 0.11115 0.06321 0.55233 0.0
H1286 H 0.12685 0.10312 0.58395 0.0
H1287 H 0.0427 0.1075 0.60783 0.0
H1288 H 0.02665 0.06666 0.5765 0.0
H1289 H 0.06982 0.10748 0.65033 0.0
H1290 H 0.086 0.16581 0.56872 0.0
H1291 H 0.10223 0.17828 0.52127 0.0
H1292 H 0.18579 0.18521 0.53772 0.0
H1293 H 0.17003 0.17228 0.58521 0.0
C1294 C 0.1346 0.23526 0.70751 0.0
C1295 C 0.16307 0.23845 0.70859 0.0
C1296 C 0.12021 0.21351 0.69089 0.0
C1297 C 0.1341 0.19473 0.67507 0.0
C1298 C 0.16223 0.19711 0.6768 0.0
C1299 C 0.17653 0.21855 0.69355 0.0
C1300 C 0.11986 0.17358 0.65566 0.0
C1301 C 0.12903 0.17941 0.62853 0.0
C1302 C 0.09771 0.14794 0.66359 0.0
C1303 C 0.0872 0.1407 0.692 0.0
C1304 C 0.10488 0.13547 0.7106 0.0
C1305 C 0.0948 0.1288 0.73737 0.0
C1306 C 0.06704 0.12707 0.74573 0.0
C1307 C 0.04927 0.13192 0.72733 0.0
C1308 C 0.05925 0.13862 0.70054 0.0
C1309 C 0.09592 0.07279 0.5641 0.0
C1310 C 0.06765 0.06194 0.56176 0.0
C1311 C 0.10496 0.09571 0.58216 0.0
C1312 C 0.08598 0.1087 0.59795 0.0
C1313 C 0.05769 0.09788 0.59575 0.0
C1314 C 0.04858 0.07467 0.57779 0.0
C1315 C 0.09597 0.13304 0.61709 0.0
C1316 C 0.08597 0.12798 0.64416 0.0
C1317 C 0.11711 0.15975 0.60907 0.0
C1318 C 0.12678 0.16787 0.58054 0.0
C1319 C 0.10782 0.1698 0.5622 0.0
C1320 C 0.11694 0.17697 0.53529 0.0
C1321 C 0.14502 0.18248 0.52648 0.0
C1322 C 0.16404 0.18092 0.54458 0.0
C1323 C 0.15503 0.17371 0.57151 0.0
H1324 H 0.15203 0.18801 0.50564 0.0
H1325 H 0.05927 0.1219 0.76647 0.0
H1326 H 0.67933 0.2474 0.37552 0.0
H1327 H 0.65786 0.28605 0.39808 0.0
H1328 H 0.57746 0.23129 0.38487 0.0
H1329 H 0.59875 0.19232 0.36253 0.0
H1330 H 0.5828 0.29302 0.37299 0.0
H1331 H 0.59957 0.23173 0.44594 0.0
H1332 H 0.62795 0.20632 0.4719 0.0
H1333 H 0.6813 0.29542 0.48361 0.0
H1334 H 0.65344 0.32133 0.45739 0.0
H1335 H 0.50965 0.38251 0.45763 0.0
H1336 H 0.52681 0.33946 0.43716 0.0
H1337 H 0.60914 0.38344 0.45451 0.0
H1338 H 0.59204 0.42575 0.47568 0.0
H1339 H 0.60038 0.32438 0.46502 0.0
H1340 H 0.58636 0.38573 0.39055 0.0
H1341 H 0.5599 0.41213 0.36314 0.0
H1342 H 0.50344 0.32464 0.35297 0.0
H1343 H 0.52939 0.29777 0.38062 0.0
C1344 C 0.65706 0.24334 0.37772 0.0
C1345 C 0.64078 0.21665 0.3673 0.0
C1346 C 0.64481 0.26553 0.39054 0.0
C1347 C 0.61602 0.26144 0.39338 0.0
C1348 C 0.59971 0.23496 0.38287 0.0
C1349 C 0.61193 0.21274 0.37006 0.0
C1350 C 0.60298 0.28491 0.40718 0.0
C1351 C 0.58628 0.29957 0.39327 0.0
C1352 C 0.60799 0.29392 0.43341 0.0
C1353 C 0.62453 0.27844 0.44954 0.0
C1354 C 0.61744 0.24589 0.45392 0.0
C1355 C 0.63343 0.2314 0.46869 0.0
C1356 C 0.65644 0.24924 0.47935 0.0
C1357 C 0.66347 0.28163 0.47533 0.0
C1358 C 0.64757 0.29623 0.46054 0.0
C1359 C 0.53139 0.38294 0.45712 0.0
C1360 C 0.54947 0.40764 0.46823 0.0
C1361 C 0.54122 0.35839 0.44528 0.0
C1362 C 0.56939 0.35834 0.44392 0.0
C1363 C 0.58734 0.38284 0.45529 0.0
C1364 C 0.5775 0.40713 0.46734 0.0
C1365 C 0.58041 0.33292 0.43074 0.0
C1366 C 0.59673 0.3178 0.44479 0.0
C1367 C 0.57523 0.3237 0.40454 0.0
C1368 C 0.55963 0.33981 0.3879 0.0
C1369 C 0.56818 0.37216 0.38264 0.0
C1370 C 0.5533 0.3872 0.36703 0.0
C1371 C 0.52995 0.37009 0.35639 0.0
C1372 C 0.52149 0.33788 0.36127 0.0
C1373 C 0.53629 0.32273 0.37689 0.0
H1374 H 0.51846 0.38178 0.34431 0.0
H1375 H 0.66881 0.23797 0.49077 0.0
loop_
_geom_bond_atom_site_label_1
_geom_bond_atom_site_label_2
_geom_bond_distance
_geom_bond_site_symmetry_2
_ccdc_geom_bond_type
H0 C5 0.930 . S
H1 C8 0.930 . S
H2 C10 0.930 . S
H3 C4 1.016 . S
C4 H3 1.016 . S
C4 N11 1.286 . S
C5 H0 0.930 . S
C5 C6 1.397 . S
C5 C7 1.361 . S
C6 C5 1.397 . S
C6 C10 1.390 . S
C7 C5 1.361 . S
C7 C8 1.393 . S
C7 N11 1.413 . S
C8 H1 0.930 . S
C8 C7 1.393 . S
C8 C9 1.399 . S
C9 C8 1.399 . S
C9 C10 1.381 . S
C10 H2 0.930 . S
C10 C6 1.390 . S
C10 C9 1.381 . S
N11 C4 1.286 . S
N11 C7 1.413 . S
H12 C17 0.930 . S
H13 C20 0.930 . S
H14 C22 0.930 . S
H15 C16 1.016 . S
C16 H15 1.016 . S
C16 N23 1.286 . S
C17 H12 0.930 . S
C17 C18 1.397 . S
C17 C19 1.361 . S
C18 C17 1.397 . S
C18 C22 1.390 . S
C19 C17 1.361 . S
C19 C20 1.393 . S
C19 N23 1.413 . S
C20 H13 0.930 . S
C20 C19 1.393 . S
C20 C21 1.399 . S
C21 C20 1.399 . S
C21 C22 1.381 . S
C22 H14 0.930 . S
C22 C18 1.390 . S
C22 C21 1.381 . S
N23 C16 1.286 . S
N23 C19 1.413 . S
H24 C29 0.930 . S
H25 C32 0.930 . S
H26 C34 0.930 . S
H27 C28 1.016 . S
C28 H27 1.016 . S
C28 N35 1.286 . S
C29 H24 0.930 . S
C29 C30 1.397 . S
C29 C31 1.361 . S
C30 C29 1.397 . S
C30 C34 1.390 . S
C31 C29 1.361 . S
C31 C32 1.393 . S
C31 N35 1.413 . S
C32 H25 0.930 . S
C32 C31 1.393 . S
C32 C33 1.399 . S
C33 C32 1.399 . S
C33 C34 1.381 . S
C34 H26 0.930 . S
C34 C30 1.390 . S
C34 C33 1.381 . S
N35 C28 1.286 . S
N35 C31 1.413 . S
H36 C41 0.930 . S
H37 C44 0.930 . S
H38 C46 0.930 . S
H39 C40 1.016 . S
C40 H39 1.016 . S
C40 N47 1.286 . S
C41 H36 0.930 . S
C41 C42 1.397 . S
C41 C43 1.361 . S
C42 C41 1.397 . S
C42 C46 1.390 . S
C43 C41 1.361 . S
C43 C44 1.393 . S
C43 N47 1.413 . S
C44 H37 0.930 . S
C44 C43 1.393 . S
C44 C45 1.399 . S
C45 C44 1.399 . S
C45 C46 1.381 . S
C46 H38 0.930 . S
C46 C42 1.390 . S
C46 C45 1.381 . S
N47 C40 1.286 . S
N47 C43 1.413 . S
H48 C53 0.930 . S
H49 C56 0.930 . S
H50 C58 0.930 . S
H51 C52 1.016 . S
C52 H51 1.016 . S
C52 N59 1.286 . S
C53 H48 0.930 . S
C53 C54 1.397 . S
C53 C55 1.361 . S
C54 C53 1.397 . S
C54 C58 1.390 . S
C55 C53 1.361 . S
C55 C56 1.393 . S
C55 N59 1.413 . S
C56 H49 0.930 . S
C56 C55 1.393 . S
C56 C57 1.399 . S
C57 C56 1.399 . S
C57 C58 1.381 . S
C58 H50 0.930 . S
C58 C54 1.390 . S
C58 C57 1.381 . S
N59 C52 1.286 . S
N59 C55 1.413 . S
H60 C65 0.930 . S
H61 C68 0.930 . S
H62 C70 0.930 . S
H63 C64 1.016 . S
C64 H63 1.016 . S
C64 N71 1.286 . S
C65 H60 0.930 . S
C65 C66 1.397 . S
C65 C67 1.361 . S
C66 C65 1.397 . S
C66 C70 1.390 . S
C67 C65 1.361 . S
C67 C68 1.393 . S
C67 N71 1.413 . S
C68 H61 0.930 . S
C68 C67 1.393 . S
C68 C69 1.399 . S
C69 C68 1.399 . S
C69 C70 1.381 . S
C70 H62 0.930 . S
C70 C66 1.390 . S
C70 C69 1.381 . S
N71 C64 1.286 . S
N71 C67 1.413 . S
H72 C77 0.930 . S
H73 C80 0.930 . S
H74 C82 0.930 . S
H75 C76 1.016 . S
C76 H75 1.016 . S
C76 N83 1.286 . S
C77 H72 0.930 . S
C77 C78 1.397 . S
C77 C79 1.361 . S
C78 C77 1.397 . S
C78 C82 1.390 . S
C79 C77 1.361 . S
C79 C80 1.393 . S
C79 N83 1.413 . S
C80 H73 0.930 . S
C80 C79 1.393 . S
C80 C81 1.399 . S
C81 C80 1.399 . S
C81 C82 1.381 . S
C82 H74 0.930 . S
C82 C78 1.390 . S
C82 C81 1.381 . S
N83 C76 1.286 . S
N83 C79 1.413 . S
H84 C89 0.930 . S
H85 C92 0.930 . S
H86 C94 0.930 . S
H87 C88 1.016 . S
C88 H87 1.016 . S
C88 N95 1.286 . S
C89 H84 0.930 . S
C89 C90 1.397 . S
C89 C91 1.361 . S
C90 C89 1.397 . S
C90 C94 1.390 . S
C91 C89 1.361 . S
C91 C92 1.393 . S
C91 N95 1.413 . S
C92 H85 0.930 . S
C92 C91 1.393 . S
C92 C93 1.399 . S
C93 C92 1.399 . S
C93 C94 1.381 . S
C94 H86 0.930 . S
C94 C90 1.390 . S
C94 C93 1.381 . S
N95 C88 1.286 . S
N95 C91 1.413 . S
Zn96 O102 1.969 1_545 S
Zn96 O103 1.965 1_545 S
Zn96 O107 2.024 . S
Zn96 O112 1.969 . S
Zn97 O104 1.969 . S
Zn97 O110 1.969 1_565 S
Zn97 O111 1.965 1_665 S
Zn97 O113 2.024 . S
C98 O99 1.229 . S
C98 O107 1.058 . S
O99 C98 1.229 . S
C100 O101 1.229 . S
C100 O113 1.058 . S
O101 C100 1.229 . S
O102 Zn96 1.969 1_565 S
O102 C105 1.267 . S
O103 Zn96 1.965 1_565 S
O103 C114 1.260 1_455 S
O104 Zn97 1.969 . S
O104 C114 1.258 . S
C105 O102 1.267 . S
C105 O106 1.228 . S
O106 C105 1.228 . S
O107 Zn96 2.024 . S
O107 C98 1.058 . S
C108 O109 1.228 . S
C108 O110 1.267 . S
O109 C108 1.228 . S
O110 Zn97 1.969 1_545 S
O110 C108 1.267 . S
O111 Zn97 1.965 1_445 S
O111 C115 1.260 . S
O112 Zn96 1.969 . S
O112 C115 1.258 . S
O113 Zn97 2.024 . S
O113 C100 1.058 . S
C114 O103 1.260 1_655 S
C114 O104 1.258 . S
C115 O111 1.260 . S
C115 O112 1.258 . S
Zn116 O122 1.969 . S
Zn116 O123 1.965 1_565 S
Zn116 O127 2.024 . S
Zn116 O132 1.969 1_556 S
Zn117 O124 1.969 . S
Zn117 O130 1.969 . S
Zn117 O131 1.933 1_545 S
Zn117 O133 2.024 . S
C118 O119 1.229 . S
C118 O127 1.058 . S
O119 C118 1.229 . S
C120 O121 1.229 . S
C120 O133 1.058 . S
O121 C120 1.229 . S
O122 Zn116 1.969 . S
O122 C125 1.267 . S
O123 Zn116 1.965 1_545 S
O123 C134 1.260 . S
O124 Zn117 1.969 . S
O124 C134 1.258 1_554 S
C125 O122 1.267 . S
C125 O126 1.228 . S
O126 C125 1.228 . S
O127 Zn116 2.024 . S
O127 C118 1.058 . S
C128 O129 1.228 . S
C128 O130 1.267 . S
O129 C128 1.228 . S
O130 Zn117 1.969 . S
O130 C128 1.267 . S
O131 Zn117 1.933 1_565 S
O131 C135 1.298 . S
O132 Zn116 1.969 1_554 S
O132 C135 1.258 . S
O133 Zn117 2.024 . S
O133 C120 1.058 . S
C134 O123 1.260 . S
C134 O124 1.258 1_556 S
C135 O131 1.298 . S
C135 O132 1.258 . S
Zn136 O142 1.969 . S
Zn136 O143 1.965 . S
Zn136 O147 2.024 . S
Zn136 O152 1.969 . S
Zn137 O144 1.969 . S
Zn137 O150 1.969 . S
Zn137 O151 1.965 . S
Zn137 O153 2.024 . S
C138 O139 1.229 . S
C138 O147 1.058 . S
O139 C138 1.229 . S
C140 O141 1.229 . S
C140 O153 1.058 . S
O141 C140 1.229 . S
O142 Zn136 1.969 . S
O142 C145 1.267 . S
O143 Zn136 1.965 . S
O143 C154 1.260 . S
O144 Zn137 1.969 . S
O144 C154 1.258 . S
C145 O142 1.267 . S
C145 O146 1.228 . S
O146 C145 1.228 . S
O147 Zn136 2.024 . S
O147 C138 1.058 . S
C148 O149 1.228 . S
C148 O150 1.267 . S
O149 C148 1.228 . S
O150 Zn137 1.969 . S
O150 C148 1.267 . S
O151 Zn137 1.965 . S
O151 C155 1.260 . S
O152 Zn136 1.969 . S
O152 C155 1.258 . S
O153 Zn137 2.024 . S
O153 C140 1.058 . S
C154 O143 1.260 . S
C154 O144 1.258 . S
C155 O151 1.260 . S
C155 O152 1.258 . S
Zn156 O162 1.969 . S
Zn156 O163 1.965 1_556 S
Zn156 O167 2.024 . S
Zn156 O172 1.969 1_655 S
Zn157 O164 1.969 . S
Zn157 O170 1.969 . S
Zn157 O171 1.936 1_554 S
Zn157 O173 2.024 . S
C158 O159 1.229 . S
C158 O167 1.058 . S
O159 C158 1.229 . S
C160 O161 1.229 . S
C160 O173 1.058 . S
O161 C160 1.229 . S
O162 Zn156 1.969 . S
O162 C165 1.267 . S
O163 Zn156 1.965 1_554 S
O163 C174 1.260 . S
O164 Zn157 1.969 . S
O164 C174 1.258 1_455 S
C165 O162 1.267 . S
C165 O166 1.228 . S
O166 C165 1.228 . S
O167 Zn156 2.024 . S
O167 C158 1.058 . S
C168 O169 1.228 . S
C168 O170 1.267 . S
O169 C168 1.228 . S
O170 Zn157 1.969 . S
O170 C168 1.267 . S
O171 Zn157 1.936 1_556 S
O171 C175 1.290 . S
O172 Zn156 1.969 1_455 S
O172 C175 1.258 . S
O173 Zn157 2.024 . S
O173 C160 1.058 . S
C174 O163 1.260 . S
C174 O164 1.258 1_655 S
C175 O171 1.290 . S
C175 O172 1.258 . S
H176 C194 0.951 . S
H177 C196 0.951 . S
H178 C198 0.950 . S
H179 C199 0.950 . S
H180 C201 0.950 . S
H181 C204 0.950 . S
H182 C205 0.950 . S
H183 C207 0.950 . S
H184 C208 0.950 . S
H185 C209 0.951 . S
H186 C211 0.951 . S
H187 C213 0.950 . S
H188 C214 0.950 . S
H189 C216 0.950 . S
H190 C219 0.950 . S
H191 C220 0.950 . S
H192 C222 0.950 . S
H193 C223 0.950 . S
C194 H176 0.951 . S
C194 C195 1.366 . S
C194 C196 1.388 . S
C195 C194 1.366 . S
C195 C199 1.385 . S
C196 H177 0.951 . S
C196 C194 1.388 . S
C196 C197 1.366 . S
C197 C196 1.366 . S
C197 C198 1.414 . S
C197 C200 1.499 . S
C198 H178 0.950 . S
C198 C197 1.414 . S
C198 C199 1.374 . S
C199 H179 0.950 . S
C199 C195 1.385 . S
C199 C198 1.374 . S
C200 C197 1.499 . S
C200 C201 1.373 . S
C200 C202 1.389 . S
C201 H180 0.950 . S
C201 C200 1.373 . S
C201 C217 1.377 . S
C202 C200 1.389 . S
C202 C203 1.524 . S
C202 C216 1.377 . S
C203 C202 1.524 . S
C203 C204 1.397 . S
C203 C208 1.363 . S
C204 H181 0.950 . S
C204 C203 1.397 . S
C204 C205 1.334 . S
C205 H182 0.950 . S
C205 C204 1.334 . S
C205 C206 1.287 . S
C206 C205 1.287 . S
C206 C207 1.524 . S
C206 H225 0.913 . S
C207 H183 0.950 . S
C207 C206 1.524 . S
C207 C208 1.415 . S
C208 H184 0.950 . S
C208 C203 1.363 . S
C208 C207 1.415 . S
C209 H185 0.951 . S
C209 C210 1.366 . S
C209 C211 1.388 . S
C210 C209 1.366 . S
C210 C214 1.385 . S
C211 H186 0.951 . S
C211 C209 1.388 . S
C211 C212 1.366 . S
C212 C211 1.366 . S
C212 C213 1.414 . S
C212 C215 1.499 . S
C213 H187 0.950 . S
C213 C212 1.414 . S
C213 C214 1.374 . S
C214 H188 0.950 . S
C214 C210 1.385 . S
C214 C213 1.374 . S
C215 C212 1.499 . S
C215 C216 1.373 . S
C215 C217 1.389 . S
C216 H189 0.950 . S
C216 C202 1.377 . S
C216 C215 1.373 . S
C217 C201 1.377 . S
C217 C215 1.389 . S
C217 C218 1.524 . S
C218 C217 1.524 . S
C218 C219 1.397 . S
C218 C223 1.363 . S
C219 H190 0.950 . S
C219 C218 1.397 . S
C219 C220 1.334 . S
C220 H191 0.950 . S
C220 C219 1.334 . S
C220 C221 1.287 . S
C221 C220 1.287 . S
C221 C222 1.524 . S
C221 H224 0.999 1_455 S
C222 H192 0.950 . S
C222 C221 1.524 . S
C222 C223 1.415 . S
C223 H193 0.950 . S
C223 C218 1.363 . S
C223 C222 1.415 . S
H224 C221 0.999 1_655 S
H225 C206 0.913 . S
H226 C244 0.951 . S
H227 C246 0.951 . S
H228 C248 0.950 . S
H229 C249 0.950 . S
H230 C251 0.950 . S
H231 C254 0.950 . S
H232 C255 0.950 . S
H233 C257 0.950 . S
H234 C258 0.950 . S
H235 C259 0.951 . S
H236 C261 0.951 . S
H237 C263 0.950 . S
H238 C264 0.950 . S
H239 C266 0.950 . S
H240 C269 0.950 . S
H241 C270 0.950 . S
H242 C272 0.950 . S
H243 C273 0.950 . S
C244 H226 0.951 . S
C244 C245 1.366 . S
C244 C246 1.388 . S
C245 C244 1.366 . S
C245 C249 1.385 . S
C246 H227 0.951 . S
C246 C244 1.388 . S
C246 C247 1.366 . S
C247 C246 1.366 . S
C247 C248 1.414 . S
C247 C250 1.499 . S
C248 H228 0.950 . S
C248 C247 1.414 . S
C248 C249 1.374 . S
C249 H229 0.950 . S
C249 C245 1.385 . S
C249 C248 1.374 . S
C250 C247 1.499 . S
C250 C251 1.373 . S
C250 C252 1.389 . S
C251 H230 0.950 . S
C251 C250 1.373 . S
C251 C267 1.377 . S
C252 C250 1.389 . S
C252 C253 1.524 . S
C252 C266 1.377 . S
C253 C252 1.524 . S
C253 C254 1.397 . S
C253 C258 1.363 . S
C254 H231 0.950 . S
C254 C253 1.397 . S
C254 C255 1.334 . S
C255 H232 0.950 . S
C255 C254 1.334 . S
C255 C256 1.287 . S
C256 C255 1.287 . S
C256 C257 1.524 . S
C256 H275 0.913 . S
C257 H233 0.950 . S
C257 C256 1.524 . S
C257 C258 1.415 . S
C258 H234 0.950 . S
C258 C253 1.363 . S
C258 C257 1.415 . S
C259 H235 0.951 . S
C259 C260 1.366 . S
C259 C261 1.388 . S
C260 C259 1.366 . S
C260 C264 1.385 . S
C261 H236 0.951 . S
C261 C259 1.388 . S
C261 C262 1.366 . S
C262 C261 1.366 . S
C262 C263 1.414 . S
C262 C265 1.499 . S
C263 H237 0.950 . S
C263 C262 1.414 . S
C263 C264 1.374 . S
C264 H238 0.950 . S
C264 C260 1.385 . S
C264 C263 1.374 . S
C265 C262 1.499 . S
C265 C266 1.373 . S
C265 C267 1.389 . S
C266 H239 0.950 . S
C266 C252 1.377 . S
C266 C265 1.373 . S
C267 C251 1.377 . S
C267 C265 1.389 . S
C267 C268 1.524 . S
C268 C267 1.524 . S
C268 C269 1.397 . S
C268 C273 1.363 . S
C269 H240 0.950 . S
C269 C268 1.397 . S
C269 C270 1.334 . S
C270 H241 0.950 . S
C270 C269 1.334 . S
C270 C271 1.287 1_565 S
C271 C270 1.287 1_545 S
C271 C272 1.524 . S
C271 H274 0.999 . S
C272 H242 0.950 . S
C272 C271 1.524 . S
C272 C273 1.415 1_545 S
C273 H243 0.950 . S
C273 C268 1.363 . S
C273 C272 1.415 1_565 S
H274 C271 0.999 . S
H275 C256 0.913 . S
H276 C294 0.951 . S
H277 C296 0.951 . S
H278 C298 0.950 . S
H279 C299 0.950 . S
H280 C301 0.950 . S
H281 C304 0.950 . S
H282 C305 0.950 . S
H283 C307 0.950 . S
H284 C308 0.950 . S
H285 C309 0.951 . S
H286 C311 0.951 . S
H287 C313 0.950 . S
H288 C314 0.950 . S
H289 C316 0.950 . S
H290 C319 0.950 . S
H291 C320 0.950 . S
H292 C322 0.950 . S
H293 C323 0.950 . S
C294 H276 0.951 . S
C294 C295 1.366 . S
C294 C296 1.388 . S
C295 C294 1.366 . S
C295 C299 1.385 . S
C296 H277 0.951 . S
C296 C294 1.388 . S
C296 C297 1.366 . S
C297 C296 1.366 . S
C297 C298 1.414 . S
C297 C300 1.499 . S
C298 H278 0.950 . S
C298 C297 1.414 . S
C298 C299 1.374 . S
C299 H279 0.950 . S
C299 C295 1.385 . S
C299 C298 1.374 . S
C300 C297 1.499 . S
C300 C301 1.373 . S
C300 C302 1.389 . S
C301 H280 0.950 . S
C301 C300 1.373 . S
C301 C317 1.377 . S
C302 C300 1.389 . S
C302 C303 1.524 . S
C302 C316 1.377 . S
C303 C302 1.524 . S
C303 C304 1.397 . S
C303 C308 1.363 . S
C304 H281 0.950 . S
C304 C303 1.397 . S
C304 C305 1.334 . S
C305 H282 0.950 . S
C305 C304 1.334 . S
C305 C306 1.287 . S
C306 C305 1.287 . S
C306 C307 1.524 . S
C306 H325 0.913 . S
C307 H283 0.950 . S
C307 C306 1.524 . S
C307 C308 1.415 . S
C308 H284 0.950 . S
C308 C303 1.363 . S
C308 C307 1.415 . S
C309 H285 0.951 . S
C309 C310 1.366 . S
C309 C311 1.388 . S
C310 C309 1.366 . S
C310 C314 1.385 . S
C311 H286 0.951 . S
C311 C309 1.388 . S
C311 C312 1.366 . S
C312 C311 1.366 . S
C312 C313 1.414 . S
C312 C315 1.499 . S
C313 H287 0.950 . S
C313 C312 1.414 . S
C313 C314 1.374 . S
C314 H288 0.950 . S
C314 C310 1.385 . S
C314 C313 1.374 . S
C315 C312 1.499 . S
C315 C316 1.373 . S
C315 C317 1.389 . S
C316 H289 0.950 . S
C316 C302 1.377 . S
C316 C315 1.373 . S
C317 C301 1.377 . S
C317 C315 1.389 . S
C317 C318 1.524 . S
C318 C317 1.524 . S
C318 C319 1.397 . S
C318 C323 1.363 . S
C319 H290 0.950 . S
C319 C318 1.397 . S
C319 C320 1.334 . S
C320 H291 0.950 . S
C320 C319 1.334 . S
C320 C321 1.287 . S
C321 C320 1.287 . S
C321 C322 1.524 . S
C321 H324 0.999 . S
C322 H292 0.950 . S
C322 C321 1.524 . S
C322 C323 1.415 . S
C323 H293 0.950 . S
C323 C318 1.363 . S
C323 C322 1.415 . S
H324 C321 0.999 . S
H325 C306 0.913 . S
H326 C344 0.951 . S
H327 C346 0.951 . S
H328 C348 0.950 . S
H329 C349 0.950 . S
H330 C351 0.950 . S
H331 C354 0.950 . S
H332 C355 0.950 . S
H333 C357 0.950 1_455 S
H334 C358 0.950 . S
H335 C359 0.951 . S
H336 C361 0.951 . S
H337 C363 0.950 . S
H338 C364 0.950 1_455 S
H339 C366 0.950 . S
H340 C369 0.950 . S
H341 C370 0.950 . S
H342 C372 0.950 . S
H343 C373 0.950 . S
C344 H326 0.951 . S
C344 C345 1.366 . S
C344 C346 1.388 . S
C345 C344 1.366 . S
C345 C349 1.385 . S
C346 H327 0.951 . S
C346 C344 1.388 . S
C346 C347 1.366 . S
C347 C346 1.366 . S
C347 C348 1.414 . S
C347 C350 1.499 . S
C348 H328 0.950 . S
C348 C347 1.414 . S
C348 C349 1.374 . S
C349 H329 0.950 . S
C349 C345 1.385 . S
C349 C348 1.374 . S
C350 C347 1.499 . S
C350 C351 1.373 . S
C350 C352 1.389 . S
C351 H330 0.950 . S
C351 C350 1.373 . S
C351 C367 1.377 . S
C352 C350 1.389 . S
C352 C353 1.524 . S
C352 C366 1.377 . S
C353 C352 1.524 . S
C353 C354 1.397 . S
C353 C358 1.363 . S
C354 H331 0.950 . S
C354 C353 1.397 . S
C354 C355 1.334 . S
C355 H332 0.950 . S
C355 C354 1.334 . S
C355 C356 1.287 . S
C356 C355 1.287 . S
C356 C357 1.524 . S
C356 H375 0.913 . S
C357 H333 0.950 1_655 S
C357 C356 1.524 . S
C357 C358 1.415 . S
C358 H334 0.950 . S
C358 C353 1.363 . S
C358 C357 1.415 . S
C359 H335 0.951 . S
C359 C360 1.366 . S
C359 C361 1.388 . S
C360 C359 1.366 . S
C360 C364 1.385 . S
C361 H336 0.951 . S
C361 C359 1.388 . S
C361 C362 1.366 . S
C362 C361 1.366 . S
C362 C363 1.414 . S
C362 C365 1.499 . S
C363 H337 0.950 . S
C363 C362 1.414 . S
C363 C364 1.374 . S
C364 H338 0.950 1_655 S
C364 C360 1.385 . S
C364 C363 1.374 . S
C365 C362 1.499 . S
C365 C366 1.373 . S
C365 C367 1.389 . S
C366 H339 0.950 . S
C366 C352 1.377 . S
C366 C365 1.373 . S
C367 C351 1.377 . S
C367 C365 1.389 . S
C367 C368 1.524 . S
C368 C367 1.524 . S
C368 C369 1.397 . S
C368 C373 1.363 . S
C369 H340 0.950 . S
C369 C368 1.397 . S
C369 C370 1.334 . S
C370 H341 0.950 . S
C370 C369 1.334 . S
C370 C371 1.287 . S
C371 C370 1.287 . S
C371 C372 1.524 . S
C371 H374 0.999 . S
C372 H342 0.950 . S
C372 C371 1.524 . S
C372 C373 1.415 . S
C373 H343 0.950 . S
C373 C368 1.363 . S
C373 C372 1.415 . S
H374 C371 0.999 . S
H375 C356 0.913 . S
H376 C394 0.951 . S
H377 C396 0.951 . S
H378 C398 0.950 . S
H379 C399 0.950 . S
H380 C401 0.950 . S
H381 C404 0.950 . S
H382 C405 0.950 . S
H383 C407 0.950 . S
H384 C408 0.950 . S
H385 C409 0.951 . S
H386 C411 0.951 . S
H387 C413 0.950 . S
H388 C414 0.950 . S
H389 C416 0.950 . S
H390 C419 0.950 . S
H391 C420 0.950 . S
H392 C422 0.950 . S
H393 C423 0.950 . S
C394 H376 0.951 . S
C394 C395 1.366 . S
C394 C396 1.388 . S
C395 C394 1.366 . S
C395 C399 1.385 . S
C396 H377 0.951 . S
C396 C394 1.388 . S
C396 C397 1.366 . S
C397 C396 1.366 . S
C397 C398 1.414 . S
C397 C400 1.499 . S
C398 H378 0.950 . S
C398 C397 1.414 . S
C398 C399 1.374 . S
C399 H379 0.950 . S
C399 C395 1.385 . S
C399 C398 1.374 . S
C400 C397 1.499 . S
C400 C401 1.373 . S
C400 C402 1.389 . S
C401 H380 0.950 . S
C401 C400 1.373 . S
C401 C417 1.377 . S
C402 C400 1.389 . S
C402 C403 1.524 . S
C402 C416 1.377 . S
C403 C402 1.524 . S
C403 C404 1.397 . S
C403 C408 1.363 . S
C404 H381 0.950 . S
C404 C403 1.397 . S
C404 C405 1.334 . S
C405 H382 0.950 . S
C405 C404 1.334 . S
C405 C406 1.287 . S
C406 C405 1.287 . S
C406 C407 1.524 . S
C406 H425 0.913 . S
C407 H383 0.950 . S
C407 C406 1.524 . S
C407 C408 1.415 . S
C408 H384 0.950 . S
C408 C403 1.363 . S
C408 C407 1.415 . S
C409 H385 0.951 . S
C409 C410 1.366 . S
C409 C411 1.388 . S
C410 C409 1.366 . S
C410 C414 1.385 . S
C411 H386 0.951 . S
C411 C409 1.388 . S
C411 C412 1.366 . S
C412 C411 1.366 . S
C412 C413 1.414 . S
C412 C415 1.499 . S
C413 H387 0.950 . S
C413 C412 1.414 . S
C413 C414 1.374 . S
C414 H388 0.950 . S
C414 C410 1.385 . S
C414 C413 1.374 . S
C415 C412 1.499 . S
C415 C416 1.373 . S
C415 C417 1.389 . S
C416 H389 0.950 . S
C416 C402 1.377 . S
C416 C415 1.373 . S
C417 C401 1.377 . S
C417 C415 1.389 . S
C417 C418 1.524 . S
C418 C417 1.524 . S
C418 C419 1.397 . S
C418 C423 1.363 . S
C419 H390 0.950 . S
C419 C418 1.397 . S
C419 C420 1.334 . S
C420 H391 0.950 . S
C420 C419 1.334 . S
C420 C421 1.287 . S
C421 C420 1.287 . S
C421 C422 1.524 . S
C421 H424 0.999 . S
C422 H392 0.950 . S
C422 C421 1.524 . S
C422 C423 1.415 . S
C423 H393 0.950 . S
C423 C418 1.363 . S
C423 C422 1.415 . S
H424 C421 0.999 . S
H425 C406 0.913 . S
H426 C444 0.951 . S
H427 C446 0.951 . S
H428 C448 0.950 . S
H429 C449 0.950 . S
H430 C451 0.950 . S
H431 C454 0.950 . S
H432 C455 0.950 . S
H433 C457 0.950 . S
H434 C458 0.950 . S
H435 C459 0.951 . S
H436 C461 0.951 . S
H437 C463 0.950 . S
H438 C464 0.950 . S
H439 C466 0.950 . S
H440 C469 0.950 . S
H441 C470 0.950 . S
H442 C472 0.950 . S
H443 C473 0.950 1_565 S
C444 H426 0.951 . S
C444 C445 1.366 . S
C444 C446 1.388 . S
C445 C444 1.366 . S
C445 C449 1.385 . S
C446 H427 0.951 . S
C446 C444 1.388 . S
C446 C447 1.366 . S
C447 C446 1.366 . S
C447 C448 1.414 . S
C447 C450 1.499 . S
C448 H428 0.950 . S
C448 C447 1.414 . S
C448 C449 1.374 . S
C449 H429 0.950 . S
C449 C445 1.385 . S
C449 C448 1.374 . S
C450 C447 1.499 . S
C450 C451 1.373 . S
C450 C452 1.389 . S
C451 H430 0.950 . S
C451 C450 1.373 . S
C451 C467 1.377 . S
C452 C450 1.389 . S
C452 C453 1.524 . S
C452 C466 1.377 . S
C453 C452 1.524 . S
C453 C454 1.397 . S
C453 C458 1.363 . S
C454 H431 0.950 . S
C454 C453 1.397 . S
C454 C455 1.334 . S
C455 H432 0.950 . S
C455 C454 1.334 . S
C455 C456 1.287 . S
C456 C455 1.287 . S
C456 C457 1.524 . S
C456 H475 0.913 . S
C457 H433 0.950 . S
C457 C456 1.524 . S
C457 C458 1.415 . S
C458 H434 0.950 . S
C458 C453 1.363 . S
C458 C457 1.415 . S
C459 H435 0.951 . S
C459 C460 1.366 . S
C459 C461 1.388 . S
C460 C459 1.366 . S
C460 C464 1.385 . S
C461 H436 0.951 . S
C461 C459 1.388 . S
C461 C462 1.366 . S
C462 C461 1.366 . S
C462 C463 1.414 . S
C462 C465 1.499 . S
C463 H437 0.950 . S
C463 C462 1.414 . S
C463 C464 1.374 . S
C464 H438 0.950 . S
C464 C460 1.385 . S
C464 C463 1.374 . S
C465 C462 1.499 . S
C465 C466 1.373 . S
C465 C467 1.389 . S
C466 H439 0.950 . S
C466 C452 1.377 . S
C466 C465 1.373 . S
C467 C451 1.377 . S
C467 C465 1.389 . S
C467 C468 1.524 . S
C468 C467 1.524 . S
C468 C469 1.397 . S
C468 C473 1.363 1_565 S
C469 H440 0.950 . S
C469 C468 1.397 . S
C469 C470 1.334 1_565 S
C470 H441 0.950 . S
C470 C469 1.334 1_545 S
C470 C471 1.287 . S
C471 C470 1.287 . S
C471 C472 1.524 . S
C471 H474 0.999 . S
C472 H442 0.950 . S
C472 C471 1.524 . S
C472 C473 1.415 . S
C473 H443 0.950 1_545 S
C473 C468 1.363 1_545 S
C473 C472 1.415 . S
H474 C471 0.999 . S
H475 C456 0.913 . S
H476 C494 0.951 . S
H477 C496 0.951 . S
H478 C498 0.950 . S
H479 C499 0.950 . S
H480 C501 0.950 . S
H481 C504 0.950 . S
H482 C505 0.950 . S
H483 C507 0.950 . S
H484 C508 0.950 . S
H485 C509 0.951 . S
H486 C511 0.951 . S
H487 C513 0.950 . S
H488 C514 0.950 . S
H489 C516 0.950 . S
H490 C519 0.950 . S
H491 C520 0.950 1_554 S
H492 C522 0.950 . S
H493 C523 0.950 . S
C494 H476 0.951 . S
C494 C495 1.366 . S
C494 C496 1.388 . S
C495 C494 1.366 . S
C495 C499 1.385 . S
C496 H477 0.951 . S
C496 C494 1.388 . S
C496 C497 1.366 . S
C497 C496 1.366 . S
C497 C498 1.414 . S
C497 C500 1.499 . S
C498 H478 0.950 . S
C498 C497 1.414 . S
C498 C499 1.374 . S
C499 H479 0.950 . S
C499 C495 1.385 . S
C499 C498 1.374 . S
C500 C497 1.499 . S
C500 C501 1.373 . S
C500 C502 1.389 . S
C501 H480 0.950 . S
C501 C500 1.373 . S
C501 C517 1.377 . S
C502 C500 1.389 . S
C502 C503 1.524 . S
C502 C516 1.377 . S
C503 C502 1.524 . S
C503 C504 1.397 . S
C503 C508 1.363 . S
C504 H481 0.950 . S
C504 C503 1.397 . S
C504 C505 1.334 . S
C505 H482 0.950 . S
C505 C504 1.334 . S
C505 C506 1.287 . S
C506 C505 1.287 . S
C506 C507 1.524 . S
C506 H525 0.913 . S
C507 H483 0.950 . S
C507 C506 1.524 . S
C507 C508 1.415 . S
C508 H484 0.950 . S
C508 C503 1.363 . S
C508 C507 1.415 . S
C509 H485 0.951 . S
C509 C510 1.366 . S
C509 C511 1.388 . S
C510 C509 1.366 . S
C510 C514 1.385 . S
C511 H486 0.951 . S
C511 C509 1.388 . S
C511 C512 1.366 . S
C512 C511 1.366 . S
C512 C513 1.414 . S
C512 C515 1.499 . S
C513 H487 0.950 . S
C513 C512 1.414 . S
C513 C514 1.374 . S
C514 H488 0.950 . S
C514 C510 1.385 . S
C514 C513 1.374 . S
C515 C512 1.499 . S
C515 C516 1.373 . S
C515 C517 1.389 . S
C516 H489 0.950 . S
C516 C502 1.377 . S
C516 C515 1.373 . S
C517 C501 1.377 . S
C517 C515 1.389 . S
C517 C518 1.524 . S
C518 C517 1.524 . S
C518 C519 1.397 . S
C518 C523 1.363 . S
C519 H490 0.950 . S
C519 C518 1.397 . S
C519 C520 1.334 . S
C520 H491 0.950 1_556 S
C520 C519 1.334 . S
C520 C521 1.287 1_556 S
C521 C520 1.287 1_554 S
C521 C522 1.524 1_554 S
C521 H524 0.999 . S
C522 H492 0.950 . S
C522 C521 1.524 1_556 S
C522 C523 1.415 . S
C523 H493 0.950 . S
C523 C518 1.363 . S
C523 C522 1.415 . S
H524 C521 0.999 . S
H525 C506 0.913 . S
H526 C544 0.951 . S
H527 C546 0.951 . S
H528 C548 0.950 . S
H529 C549 0.950 . S
H530 C551 0.950 . S
H531 C554 0.950 . S
H532 C555 0.950 . S
H533 C557 0.950 . S
H534 C558 0.950 . S
H535 C559 0.951 . S
H536 C561 0.951 . S
H537 C563 0.950 . S
H538 C564 0.950 . S
H539 C566 0.950 . S
H540 C569 0.950 . S
H541 C570 0.950 . S
H542 C572 0.950 . S
H543 C573 0.950 . S
C544 H526 0.951 . S
C544 C545 1.366 . S
C544 C546 1.388 . S
C545 C544 1.366 . S
C545 C549 1.385 . S
C546 H527 0.951 . S
C546 C544 1.388 . S
C546 C547 1.366 . S
C547 C546 1.366 . S
C547 C548 1.414 . S
C547 C550 1.499 . S
C548 H528 0.950 . S
C548 C547 1.414 . S
C548 C549 1.374 . S
C549 H529 0.950 . S
C549 C545 1.385 . S
C549 C548 1.374 . S
C550 C547 1.499 . S
C550 C551 1.373 . S
C550 C552 1.389 . S
C551 H530 0.950 . S
C551 C550 1.373 . S
C551 C567 1.377 . S
C552 C550 1.389 . S
C552 C553 1.524 . S
C552 C566 1.377 . S
C553 C552 1.524 . S
C553 C554 1.397 . S
C553 C558 1.363 . S
C554 H531 0.950 . S
C554 C553 1.397 . S
C554 C555 1.334 . S
C555 H532 0.950 . S
C555 C554 1.334 . S
C555 C556 1.287 . S
C556 C555 1.287 . S
C556 C557 1.524 . S
C556 H575 0.913 . S
C557 H533 0.950 . S
C557 C556 1.524 . S
C557 C558 1.415 . S
C558 H534 0.950 . S
C558 C553 1.363 . S
C558 C557 1.415 . S
C559 H535 0.951 . S
C559 C560 1.366 . S
C559 C561 1.388 . S
C560 C559 1.366 . S
C560 C564 1.385 . S
C561 H536 0.951 . S
C561 C559 1.388 . S
C561 C562 1.366 . S
C562 C561 1.366 . S
C562 C563 1.414 . S
C562 C565 1.499 . S
C563 H537 0.950 . S
C563 C562 1.414 . S
C563 C564 1.374 . S
C564 H538 0.950 . S
C564 C560 1.385 . S
C564 C563 1.374 . S
C565 C562 1.499 . S
C565 C566 1.373 . S
C565 C567 1.389 . S
C566 H539 0.950 . S
C566 C552 1.377 . S
C566 C565 1.373 . S
C567 C551 1.377 . S
C567 C565 1.389 . S
C567 C568 1.524 . S
C568 C567 1.524 . S
C568 C569 1.397 . S
C568 C573 1.363 . S
C569 H540 0.950 . S
C569 C568 1.397 . S
C569 C570 1.334 . S
C570 H541 0.950 . S
C570 C569 1.334 . S
C570 C571 1.287 . S
C571 C570 1.287 . S
C571 C572 1.524 . S
C571 H574 0.999 . S
C572 H542 0.950 . S
C572 C571 1.524 . S
C572 C573 1.415 . S
C573 H543 0.950 . S
C573 C568 1.363 . S
C573 C572 1.415 . S
H574 C571 0.999 . S
H575 C556 0.913 . S
H576 C594 0.951 . S
H577 C596 0.951 . S
H578 C598 0.950 . S
H579 C599 0.950 . S
H580 C601 0.950 . S
H581 C604 0.950 . S
H582 C605 0.950 . S
H583 C607 0.950 . S
H584 C608 0.950 . S
H585 C609 0.951 . S
H586 C611 0.951 . S
H587 C613 0.950 . S
H588 C614 0.950 . S
H589 C616 0.950 . S
H590 C619 0.950 . S
H591 C620 0.950 . S
H592 C622 0.950 . S
H593 C623 0.950 . S
C594 H576 0.951 . S
C594 C595 1.366 . S
C594 C596 1.388 . S
C595 C594 1.366 . S
C595 C599 1.385 . S
C596 H577 0.951 . S
C596 C594 1.388 . S
C596 C597 1.366 . S
C597 C596 1.366 . S
C597 C598 1.414 . S
C597 C600 1.499 . S
C598 H578 0.950 . S
C598 C597 1.414 . S
C598 C599 1.374 . S
C599 H579 0.950 . S
C599 C595 1.385 . S
C599 C598 1.374 . S
C600 C597 1.499 . S
C600 C601 1.373 . S
C600 C602 1.389 . S
C601 H580 0.950 . S
C601 C600 1.373 . S
C601 C617 1.377 . S
C602 C600 1.389 . S
C602 C603 1.524 . S
C602 C616 1.377 . S
C603 C602 1.524 . S
C603 C604 1.397 . S
C603 C608 1.363 . S
C604 H581 0.950 . S
C604 C603 1.397 . S
C604 C605 1.334 . S
C605 H582 0.950 . S
C605 C604 1.334 . S
C605 C606 1.287 . S
C606 C605 1.287 . S
C606 C607 1.524 . S
C606 H625 0.913 . S
C607 H583 0.950 . S
C607 C606 1.524 . S
C607 C608 1.415 . S
C608 H584 0.950 . S
C608 C603 1.363 . S
C608 C607 1.415 . S
C609 H585 0.951 . S
C609 C610 1.366 . S
C609 C611 1.388 . S
C610 C609 1.366 . S
C610 C614 1.385 . S
C611 H586 0.951 . S
C611 C609 1.388 . S
C611 C612 1.366 . S
C612 C611 1.366 . S
C612 C613 1.414 . S
C612 C615 1.499 . S
C613 H587 0.950 . S
C613 C612 1.414 . S
C613 C614 1.374 . S
C614 H588 0.950 . S
C614 C610 1.385 . S
C614 C613 1.374 . S
C615 C612 1.499 . S
C615 C616 1.373 . S
C615 C617 1.389 . S
C616 H589 0.950 . S
C616 C602 1.377 . S
C616 C615 1.373 . S
C617 C601 1.377 . S
C617 C615 1.389 . S
C617 C618 1.524 . S
C618 C617 1.524 . S
C618 C619 1.397 . S
C618 C623 1.363 . S
C619 H590 0.950 . S
C619 C618 1.397 . S
C619 C620 1.334 . S
C620 H591 0.950 . S
C620 C619 1.334 . S
C620 C621 1.287 . S
C621 C620 1.287 . S
C621 C622 1.524 . S
C621 H624 0.999 . S
C622 H592 0.950 . S
C622 C621 1.524 . S
C622 C623 1.415 . S
C623 H593 0.950 . S
C623 C618 1.363 . S
C623 C622 1.415 . S
H624 C621 0.999 . S
H625 C606 0.913 . S
H626 C644 0.951 . S
H627 C646 0.951 . S
H628 C648 0.950 . S
H629 C649 0.950 . S
H630 C651 0.950 . S
H631 C654 0.950 . S
H632 C655 0.950 . S
H633 C657 0.950 . S
H634 C658 0.950 . S
H635 C659 0.951 . S
H636 C661 0.951 . S
H637 C663 0.950 . S
H638 C664 0.950 . S
H639 C666 0.950 . S
H640 C669 0.950 . S
H641 C670 0.913 1_554 S
H642 C672 0.950 . S
H643 C673 0.950 . S
C644 H626 0.951 . S
C644 C645 1.366 . S
C644 C646 1.388 . S
C645 C644 1.366 . S
C645 C649 1.385 . S
C646 H627 0.951 . S
C646 C644 1.388 . S
C646 C647 1.366 . S
C647 C646 1.366 . S
C647 C648 1.414 . S
C647 C650 1.499 . S
C648 H628 0.950 . S
C648 C647 1.414 . S
C648 C649 1.374 . S
C649 H629 0.950 . S
C649 C645 1.385 . S
C649 C648 1.374 . S
C650 C647 1.499 . S
C650 C651 1.373 . S
C650 C652 1.389 . S
C651 H630 0.950 . S
C651 C650 1.373 . S
C651 C667 1.377 . S
C652 C650 1.389 . S
C652 C653 1.524 . S
C652 C666 1.377 . S
C653 C652 1.524 . S
C653 C654 1.397 . S
C653 C658 1.363 . S
C654 H631 0.950 . S
C654 C653 1.397 . S
C654 C655 1.334 . S
C655 H632 0.950 . S
C655 C654 1.334 . S
C655 C656 1.287 . S
C656 C655 1.287 . S
C656 C657 1.524 . S
C656 H675 0.913 . S
C657 H633 0.950 . S
C657 C656 1.524 . S
C657 C658 1.415 . S
C658 H634 0.950 . S
C658 C653 1.363 . S
C658 C657 1.415 . S
C659 H635 0.951 . S
C659 C660 1.366 . S
C659 C661 1.388 . S
C660 C659 1.366 . S
C660 C664 1.385 . S
C661 H636 0.951 . S
C661 C659 1.388 . S
C661 C662 1.366 . S
C662 C661 1.366 . S
C662 C663 1.414 . S
C662 C665 1.499 . S
C663 H637 0.950 . S
C663 C662 1.414 . S
C663 C664 1.374 . S
C664 H638 0.950 . S
C664 C660 1.385 . S
C664 C663 1.374 . S
C665 C662 1.499 . S
C665 C666 1.373 . S
C665 C667 1.389 . S
C666 H639 0.950 . S
C666 C652 1.377 . S
C666 C665 1.373 . S
C667 C651 1.377 . S
C667 C665 1.389 . S
C667 C668 1.524 . S
C668 C667 1.524 . S
C668 C669 1.397 . S
C668 C673 1.363 . S
C669 H640 0.950 . S
C669 C668 1.397 . S
C669 C670 1.369 . S
C670 H641 0.913 1_556 S
C670 C669 1.369 . S
C670 C671 1.291 . S
C671 C670 1.291 . S
C671 C672 1.524 . S
C671 H674 0.999 1_556 S
C672 H642 0.950 . S
C672 C671 1.524 . S
C672 C673 1.415 . S
C673 H643 0.950 . S
C673 C668 1.363 . S
C673 C672 1.415 . S
H674 C671 0.999 1_554 S
H675 C656 0.913 . S
H676 C694 0.951 . S
H677 C696 0.951 . S
H678 C698 0.950 . S
H679 C699 0.950 . S
H680 C701 0.950 . S
H681 C704 0.950 . S
H682 C705 0.950 . S
H683 C707 0.950 . S
H684 C708 0.950 . S
H685 C709 0.951 . S
H686 C711 0.951 . S
H687 C713 0.950 . S
H688 C714 0.950 . S
H689 C716 0.950 . S
H690 C719 0.950 . S
H691 C720 0.950 . S
H692 C722 0.950 . S
H693 C723 0.950 . S
C694 H676 0.951 . S
C694 C695 1.366 . S
C694 C696 1.388 . S
C695 C694 1.366 . S
C695 C699 1.385 . S
C696 H677 0.951 . S
C696 C694 1.388 . S
C696 C697 1.366 . S
C697 C696 1.366 . S
C697 C698 1.414 . S
C697 C700 1.499 . S
C698 H678 0.950 . S
C698 C697 1.414 . S
C698 C699 1.374 . S
C699 H679 0.950 . S
C699 C695 1.385 . S
C699 C698 1.374 . S
C700 C697 1.499 . S
C700 C701 1.373 . S
C700 C702 1.389 . S
C701 H680 0.950 . S
C701 C700 1.373 . S
C701 C717 1.377 . S
C702 C700 1.389 . S
C702 C703 1.524 . S
C702 C716 1.377 . S
C703 C702 1.524 . S
C703 C704 1.397 . S
C703 C708 1.363 . S
C704 H681 0.950 . S
C704 C703 1.397 . S
C704 C705 1.334 . S
C705 H682 0.950 . S
C705 C704 1.334 . S
C705 C706 1.287 . S
C706 C705 1.287 . S
C706 C707 1.524 . S
C706 H725 0.913 . S
C707 H683 0.950 . S
C707 C706 1.524 . S
C707 C708 1.415 . S
C708 H684 0.950 . S
C708 C703 1.363 . S
C708 C707 1.415 . S
C709 H685 0.951 . S
C709 C710 1.366 . S
C709 C711 1.388 . S
C710 C709 1.366 . S
C710 C714 1.385 . S
C711 H686 0.951 . S
C711 C709 1.388 . S
C711 C712 1.366 . S
C712 C711 1.366 . S
C712 C713 1.414 . S
C712 C715 1.499 . S
C713 H687 0.950 . S
C713 C712 1.414 . S
C713 C714 1.374 . S
C714 H688 0.950 . S
C714 C710 1.385 . S
C714 C713 1.374 . S
C715 C712 1.499 . S
C715 C716 1.373 . S
C715 C717 1.389 . S
C716 H689 0.950 . S
C716 C702 1.377 . S
C716 C715 1.373 . S
C717 C701 1.377 . S
C717 C715 1.389 . S
C717 C718 1.524 . S
C718 C717 1.524 . S
C718 C719 1.397 . S
C718 C723 1.363 . S
C719 H690 0.950 . S
C719 C718 1.397 . S
C719 C720 1.334 . S
C720 H691 0.950 . S
C720 C719 1.334 . S
C720 C721 1.287 . S
C721 C720 1.287 . S
C721 C722 1.524 . S
C721 H724 0.999 . S
C722 H692 0.950 . S
C722 C721 1.524 . S
C722 C723 1.415 . S
C723 H693 0.950 . S
C723 C718 1.363 . S
C723 C722 1.415 . S
H724 C721 0.999 . S
H725 C706 0.913 . S
H726 C744 0.951 . S
H727 C746 0.951 . S
H728 C748 0.950 . S
H729 C749 0.950 . S
H730 C751 0.950 . S
H731 C754 0.950 . S
H732 C755 0.950 . S
H733 C757 0.950 . S
H734 C758 0.950 . S
H735 C759 0.951 . S
H736 C761 0.951 . S
H737 C763 0.950 . S
H738 C764 0.950 . S
H739 C766 0.950 . S
H740 C769 0.950 . S
H741 C770 0.950 . S
H742 C772 0.950 . S
H743 C773 0.950 . S
C744 H726 0.951 . S
C744 C745 1.366 . S
C744 C746 1.388 . S
C745 C744 1.366 . S
C745 C749 1.385 . S
C746 H727 0.951 . S
C746 C744 1.388 . S
C746 C747 1.366 . S
C747 C746 1.366 . S
C747 C748 1.414 . S
C747 C750 1.499 . S
C748 H728 0.950 . S
C748 C747 1.414 . S
C748 C749 1.374 . S
C749 H729 0.950 . S
C749 C745 1.385 . S
C749 C748 1.374 . S
C750 C747 1.499 . S
C750 C751 1.373 . S
C750 C752 1.389 . S
C751 H730 0.950 . S
C751 C750 1.373 . S
C751 C767 1.377 . S
C752 C750 1.389 . S
C752 C753 1.524 . S
C752 C766 1.377 . S
C753 C752 1.524 . S
C753 C754 1.397 . S
C753 C758 1.363 . S
C754 H731 0.950 . S
C754 C753 1.397 . S
C754 C755 1.334 . S
C755 H732 0.950 . S
C755 C754 1.334 . S
C755 C756 1.287 . S
C756 C755 1.287 . S
C756 C757 1.524 . S
C756 H775 0.913 . S
C757 H733 0.950 . S
C757 C756 1.524 . S
C757 C758 1.415 . S
C758 H734 0.950 . S
C758 C753 1.363 . S
C758 C757 1.415 . S
C759 H735 0.951 . S
C759 C760 1.366 . S
C759 C761 1.388 . S
C760 C759 1.366 . S
C760 C764 1.385 . S
C761 H736 0.951 . S
C761 C759 1.388 . S
C761 C762 1.366 . S
C762 C761 1.366 . S
C762 C763 1.414 . S
C762 C765 1.499 . S
C763 H737 0.950 . S
C763 C762 1.414 . S
C763 C764 1.374 . S
C764 H738 0.950 . S
C764 C760 1.385 . S
C764 C763 1.374 . S
C765 C762 1.499 . S
C765 C766 1.373 . S
C765 C767 1.389 . S
C766 H739 0.950 . S
C766 C752 1.377 . S
C766 C765 1.373 . S
C767 C751 1.377 . S
C767 C765 1.389 . S
C767 C768 1.524 . S
C768 C767 1.524 . S
C768 C769 1.397 . S
C768 C773 1.363 . S
C769 H740 0.950 . S
C769 C768 1.397 . S
C769 C770 1.334 . S
C770 H741 0.950 . S
C770 C769 1.334 . S
C770 C771 1.287 . S
C771 C770 1.287 . S
C771 C772 1.524 . S
C771 H774 0.999 . S
C772 H742 0.950 . S
C772 C771 1.524 . S
C772 C773 1.415 . S
C773 H743 0.950 . S
C773 C768 1.363 . S
C773 C772 1.415 . S
H774 C771 0.999 . S
H775 C756 0.913 . S
H776 C794 0.951 . S
H777 C796 0.951 . S
H778 C798 0.950 . S
H779 C799 0.950 . S
H780 C801 0.950 . S
H781 C804 0.950 . S
H782 C805 0.950 . S
H783 C807 0.950 . S
H784 C808 0.950 . S
H785 C809 0.951 . S
H786 C811 0.951 . S
H787 C813 0.950 . S
H788 C814 0.950 . S
H789 C816 0.950 . S
H790 C819 0.950 . S
H791 C820 0.945 1_455 S
H792 C822 0.950 1_455 S
H793 C823 0.950 . S
C794 H776 0.951 . S
C794 C795 1.366 . S
C794 C796 1.388 . S
C795 C794 1.366 . S
C795 C799 1.385 . S
C796 H777 0.951 . S
C796 C794 1.388 . S
C796 C797 1.366 . S
C797 C796 1.366 . S
C797 C798 1.414 . S
C797 C800 1.499 . S
C798 H778 0.950 . S
C798 C797 1.414 . S
C798 C799 1.374 . S
C799 H779 0.950 . S
C799 C795 1.385 . S
C799 C798 1.374 . S
C800 C797 1.499 . S
C800 C801 1.373 . S
C800 C802 1.389 . S
C801 H780 0.950 . S
C801 C800 1.373 . S
C801 C817 1.377 . S
C802 C800 1.389 . S
C802 C803 1.524 . S
C802 C816 1.377 . S
C803 C802 1.524 . S
C803 C804 1.397 . S
C803 C808 1.363 . S
C804 H781 0.950 . S
C804 C803 1.397 . S
C804 C805 1.334 . S
C805 H782 0.950 . S
C805 C804 1.334 . S
C805 C806 1.287 . S
C806 C805 1.287 . S
C806 C807 1.524 . S
C806 H825 0.913 . S
C807 H783 0.950 . S
C807 C806 1.524 . S
C807 C808 1.415 . S
C808 H784 0.950 . S
C808 C803 1.363 . S
C808 C807 1.415 . S
C809 H785 0.951 . S
C809 C810 1.366 . S
C809 C811 1.388 . S
C810 C809 1.366 . S
C810 C814 1.385 . S
C811 H786 0.951 . S
C811 C809 1.388 . S
C811 C812 1.366 . S
C812 C811 1.366 . S
C812 C813 1.414 . S
C812 C815 1.499 . S
C813 H787 0.950 . S
C813 C812 1.414 . S
C813 C814 1.374 . S
C814 H788 0.950 . S
C814 C810 1.385 . S
C814 C813 1.374 . S
C815 C812 1.499 . S
C815 C816 1.373 . S
C815 C817 1.389 . S
C816 H789 0.950 . S
C816 C802 1.377 . S
C816 C815 1.373 . S
C817 C801 1.377 . S
C817 C815 1.389 . S
C817 C818 1.524 . S
C818 C817 1.524 . S
C818 C819 1.397 . S
C818 C823 1.363 . S
C819 H790 0.950 . S
C819 C818 1.397 . S
C819 C820 1.334 . S
C820 H791 0.945 1_655 S
C820 C819 1.334 . S
C820 C821 1.287 1_655 S
C821 C820 1.287 1_455 S
C821 C822 1.524 1_455 S
C821 H824 0.999 . S
C822 H792 0.950 1_655 S
C822 C821 1.524 1_655 S
C822 C823 1.415 . S
C823 H793 0.950 . S
C823 C818 1.363 . S
C823 C822 1.415 . S
H824 C821 0.999 . S
H825 C806 0.913 . S
H826 C844 0.951 . S
H827 C846 0.951 . S
H828 C848 0.950 . S
H829 C849 0.950 . S
H830 C851 0.950 . S
H831 C854 0.950 . S
H832 C855 0.950 . S
H833 C857 0.950 . S
H834 C858 0.950 . S
H835 C859 0.951 . S
H836 C861 0.951 . S
H837 C863 0.950 . S
H838 C864 0.950 . S
H839 C866 0.950 . S
H840 C869 0.950 . S
H841 C870 0.950 1_565 S
H842 C872 0.950 . S
H843 C873 0.950 . S
C844 H826 0.951 . S
C844 C845 1.366 . S
C844 C846 1.388 . S
C845 C844 1.366 . S
C845 C849 1.385 . S
C846 H827 0.951 . S
C846 C844 1.388 . S
C846 C847 1.366 . S
C847 C846 1.366 . S
C847 C848 1.414 . S
C847 C850 1.499 . S
C848 H828 0.950 . S
C848 C847 1.414 . S
C848 C849 1.374 . S
C849 H829 0.950 . S
C849 C845 1.385 . S
C849 C848 1.374 . S
C850 C847 1.499 . S
C850 C851 1.373 . S
C850 C852 1.389 . S
C851 H830 0.950 . S
C851 C850 1.373 . S
C851 C867 1.377 . S
C852 C850 1.389 . S
C852 C853 1.524 . S
C852 C866 1.377 . S
C853 C852 1.524 . S
C853 C854 1.397 . S
C853 C858 1.363 . S
C854 H831 0.950 . S
C854 C853 1.397 . S
C854 C855 1.334 . S
C855 H832 0.950 . S
C855 C854 1.334 . S
C855 C856 1.287 . S
C856 C855 1.287 . S
C856 C857 1.524 . S
C856 H875 0.913 . S
C857 H833 0.950 . S
C857 C856 1.524 . S
C857 C858 1.415 . S
C858 H834 0.950 . S
C858 C853 1.363 . S
C858 C857 1.415 . S
C859 H835 0.951 . S
C859 C860 1.366 . S
C859 C861 1.388 . S
C860 C859 1.366 . S
C860 C864 1.385 . S
C861 H836 0.951 . S
C861 C859 1.388 . S
C861 C862 1.366 . S
C862 C861 1.366 . S
C862 C863 1.414 . S
C862 C865 1.499 . S
C863 H837 0.950 . S
C863 C862 1.414 . S
C863 C864 1.374 . S
C864 H838 0.950 . S
C864 C860 1.385 . S
C864 C863 1.374 . S
C865 C862 1.499 . S
C865 C866 1.373 . S
C865 C867 1.389 . S
C866 H839 0.950 . S
C866 C852 1.377 . S
C866 C865 1.373 . S
C867 C851 1.377 . S
C867 C865 1.389 . S
C867 C868 1.524 . S
C868 C867 1.524 . S
C868 C869 1.397 . S
C868 C873 1.363 . S
C869 H840 0.950 . S
C869 C868 1.397 . S
C869 C870 1.334 . S
C870 H841 0.950 1_545 S
C870 C869 1.334 . S
C870 C871 1.287 . S
C871 C870 1.287 . S
C871 C872 1.524 . S
C871 H874 0.999 1_545 S
C872 H842 0.950 . S
C872 C871 1.524 . S
C872 C873 1.415 . S
C873 H843 0.950 . S
C873 C868 1.363 . S
C873 C872 1.415 . S
H874 C871 0.999 1_565 S
H875 C856 0.913 . S
H876 C894 0.951 . S
H877 C896 0.951 . S
H878 C898 0.950 . S
H879 C899 0.950 . S
H880 C901 0.950 . S
H881 C904 0.950 . S
H882 C905 0.950 . S
H883 C907 0.950 . S
H884 C908 0.950 . S
H885 C909 0.951 . S
H886 C911 0.951 . S
H887 C913 0.950 . S
H888 C914 0.950 . S
H889 C916 0.950 . S
H890 C919 0.950 . S
H891 C920 0.950 . S
H892 C922 0.950 . S
H893 C923 0.950 . S
C894 H876 0.951 . S
C894 C895 1.366 . S
C894 C896 1.388 . S
C895 C894 1.366 . S
C895 C899 1.385 . S
C896 H877 0.951 . S
C896 C894 1.388 . S
C896 C897 1.366 . S
C897 C896 1.366 . S
C897 C898 1.414 . S
C897 C900 1.499 . S
C898 H878 0.950 . S
C898 C897 1.414 . S
C898 C899 1.374 . S
C899 H879 0.950 . S
C899 C895 1.385 . S
C899 C898 1.374 . S
C900 C897 1.499 . S
C900 C901 1.373 . S
C900 C902 1.389 . S
C901 H880 0.950 . S
C901 C900 1.373 . S
C901 C917 1.377 . S
C902 C900 1.389 . S
C902 C903 1.524 . S
C902 C916 1.377 . S
C903 C902 1.524 . S
C903 C904 1.397 . S
C903 C908 1.363 . S
C904 H881 0.950 . S
C904 C903 1.397 . S
C904 C905 1.334 . S
C905 H882 0.950 . S
C905 C904 1.334 . S
C905 C906 1.287 . S
C906 C905 1.287 . S
C906 C907 1.524 . S
C906 H925 0.913 . S
C907 H883 0.950 . S
C907 C906 1.524 . S
C907 C908 1.415 . S
C908 H884 0.950 . S
C908 C903 1.363 . S
C908 C907 1.415 . S
C909 H885 0.951 . S
C909 C910 1.366 . S
C909 C911 1.388 . S
C910 C909 1.366 . S
C910 C914 1.385 . S
C911 H886 0.951 . S
C911 C909 1.388 . S
C911 C912 1.366 . S
C912 C911 1.366 . S
C912 C913 1.414 . S
C912 C915 1.499 . S
C913 H887 0.950 . S
C913 C912 1.414 . S
C913 C914 1.374 . S
C914 H888 0.950 . S
C914 C910 1.385 . S
C914 C913 1.374 . S
C915 C912 1.499 . S
C915 C916 1.373 . S
C915 C917 1.389 . S
C916 H889 0.950 . S
C916 C902 1.377 . S
C916 C915 1.373 . S
C917 C901 1.377 . S
C917 C915 1.389 . S
C917 C918 1.524 . S
C918 C917 1.524 . S
C918 C919 1.397 . S
C918 C923 1.363 . S
C919 H890 0.950 . S
C919 C918 1.397 . S
C919 C920 1.334 . S
C920 H891 0.950 . S
C920 C919 1.334 . S
C920 C921 1.287 . S
C921 C920 1.287 . S
C921 C922 1.524 . S
C921 H924 0.999 . S
C922 H892 0.950 . S
C922 C921 1.524 . S
C922 C923 1.415 . S
C923 H893 0.950 . S
C923 C918 1.363 . S
C923 C922 1.415 . S
H924 C921 0.999 . S
H925 C906 0.913 . S
H926 C944 0.951 . S
H927 C946 0.951 . S
H928 C948 0.950 . S
H929 C949 0.950 . S
H930 C951 0.950 . S
H931 C954 0.950 . S
H932 C955 0.950 . S
H933 C957 0.950 . S
H934 C958 0.950 . S
H935 C959 0.951 . S
H936 C961 0.951 . S
H937 C963 0.950 . S
H938 C964 0.950 . S
H939 C966 0.950 . S
H940 C969 0.950 . S
H941 C970 0.950 . S
H942 C972 0.950 . S
H943 C973 0.950 . S
C944 H926 0.951 . S
C944 C945 1.366 . S
C944 C946 1.388 . S
C945 C944 1.366 . S
C945 C949 1.385 . S
C946 H927 0.951 . S
C946 C944 1.388 . S
C946 C947 1.366 . S
C947 C946 1.366 . S
C947 C948 1.414 . S
C947 C950 1.499 . S
C948 H928 0.950 . S
C948 C947 1.414 . S
C948 C949 1.374 . S
C949 H929 0.950 . S
C949 C945 1.385 . S
C949 C948 1.374 . S
C950 C947 1.499 . S
C950 C951 1.373 . S
C950 C952 1.389 . S
C951 H930 0.950 . S
C951 C950 1.373 . S
C951 C967 1.377 . S
C952 C950 1.389 . S
C952 C953 1.524 . S
C952 C966 1.377 . S
C953 C952 1.524 . S
C953 C954 1.397 . S
C953 C958 1.363 . S
C954 H931 0.950 . S
C954 C953 1.397 . S
C954 C955 1.334 . S
C955 H932 0.950 . S
C955 C954 1.334 . S
C955 C956 1.287 . S
C956 C955 1.287 . S
C956 C957 1.524 . S
C956 H975 0.913 . S
C957 H933 0.950 . S
C957 C956 1.524 . S
C957 C958 1.415 . S
C958 H934 0.950 . S
C958 C953 1.363 . S
C958 C957 1.415 . S
C959 H935 0.951 . S
C959 C960 1.366 . S
C959 C961 1.388 . S
C960 C959 1.366 . S
C960 C964 1.385 . S
C961 H936 0.951 . S
C961 C959 1.388 . S
C961 C962 1.366 . S
C962 C961 1.366 . S
C962 C963 1.414 . S
C962 C965 1.499 . S
C963 H937 0.950 . S
C963 C962 1.414 . S
C963 C964 1.374 . S
C964 H938 0.950 . S
C964 C960 1.385 . S
C964 C963 1.374 . S
C965 C962 1.499 . S
C965 C966 1.373 . S
C965 C967 1.389 . S
C966 H939 0.950 . S
C966 C952 1.377 . S
C966 C965 1.373 . S
C967 C951 1.377 . S
C967 C965 1.389 . S
C967 C968 1.524 . S
C968 C967 1.524 . S
C968 C969 1.397 . S
C968 C973 1.363 . S
C969 H940 0.950 . S
C969 C968 1.397 . S
C969 C970 1.334 . S
C970 H941 0.950 . S
C970 C969 1.334 . S
C970 C971 1.287 . S
C971 C970 1.287 . S
C971 C972 1.524 . S
C971 H974 0.999 . S
C972 H942 0.950 . S
C972 C971 1.524 . S
C972 C973 1.415 . S
C973 H943 0.950 . S
C973 C968 1.363 . S
C973 C972 1.415 . S
H974 C971 0.999 . S
H975 C956 0.913 . S
H976 C994 0.951 . S
H977 C996 0.951 . S
H978 C998 0.950 . S
H979 C999 0.950 . S
H980 C1001 0.950 . S
H981 C1004 0.950 . S
H982 C1005 0.950 . S
H983 C1007 0.950 . S
H984 C1008 0.950 . S
H985 C1009 0.951 . S
H986 C1011 0.951 . S
H987 C1013 0.950 . S
H988 C1014 0.950 . S
H989 C1016 0.950 . S
H990 C1019 0.950 . S
H991 C1020 0.950 1_545 S
H992 C1022 0.950 . S
H993 C1023 0.950 . S
C994 H976 0.951 . S
C994 C995 1.366 . S
C994 C996 1.388 . S
C995 C994 1.366 . S
C995 C999 1.385 . S
C996 H977 0.951 . S
C996 C994 1.388 . S
C996 C997 1.366 . S
C997 C996 1.366 . S
C997 C998 1.414 . S
C997 C1000 1.499 . S
C998 H978 0.950 . S
C998 C997 1.414 . S
C998 C999 1.374 . S
C999 H979 0.950 . S
C999 C995 1.385 . S
C999 C998 1.374 . S
C1000 C997 1.499 . S
C1000 C1001 1.373 . S
C1000 C1002 1.389 . S
C1001 H980 0.950 . S
C1001 C1000 1.373 . S
C1001 C1017 1.377 . S
C1002 C1000 1.389 . S
C1002 C1003 1.524 . S
C1002 C1016 1.377 . S
C1003 C1002 1.524 . S
C1003 C1004 1.397 . S
C1003 C1008 1.363 . S
C1004 H981 0.950 . S
C1004 C1003 1.397 . S
C1004 C1005 1.334 . S
C1005 H982 0.950 . S
C1005 C1004 1.334 . S
C1005 C1006 1.287 . S
C1006 C1005 1.287 . S
C1006 C1007 1.524 . S
C1006 H1025 0.913 . S
C1007 H983 0.950 . S
C1007 C1006 1.524 . S
C1007 C1008 1.415 . S
C1008 H984 0.950 . S
C1008 C1003 1.363 . S
C1008 C1007 1.415 . S
C1009 H985 0.951 . S
C1009 C1010 1.366 . S
C1009 C1011 1.388 . S
C1010 C1009 1.366 . S
C1010 C1014 1.385 . S
C1011 H986 0.951 . S
C1011 C1009 1.388 . S
C1011 C1012 1.366 . S
C1012 C1011 1.366 . S
C1012 C1013 1.414 . S
C1012 C1015 1.499 . S
C1013 H987 0.950 . S
C1013 C1012 1.414 . S
C1013 C1014 1.374 . S
C1014 H988 0.950 . S
C1014 C1010 1.385 . S
C1014 C1013 1.374 . S
C1015 C1012 1.499 . S
C1015 C1016 1.373 . S
C1015 C1017 1.389 . S
C1016 H989 0.950 . S
C1016 C1002 1.377 . S
C1016 C1015 1.373 . S
C1017 C1001 1.377 . S
C1017 C1015 1.389 . S
C1017 C1018 1.524 . S
C1018 C1017 1.524 . S
C1018 C1019 1.397 . S
C1018 C1023 1.363 . S
C1019 H990 0.950 . S
C1019 C1018 1.397 . S
C1019 C1020 1.334 . S
C1020 H991 0.950 1_565 S
C1020 C1019 1.334 . S
C1020 C1021 1.287 . S
C1021 C1020 1.287 . S
C1021 C1022 1.524 . S
C1021 H1024 1.018 . S
C1022 H992 0.950 . S
C1022 C1021 1.524 . S
C1022 C1023 1.415 . S
C1023 H993 0.950 . S
C1023 C1018 1.363 . S
C1023 C1022 1.415 . S
H1024 C1021 1.018 . S
H1025 C1006 0.913 . S
H1026 C1044 0.951 . S
H1027 C1046 0.951 . S
H1028 C1048 0.950 . S
H1029 C1049 0.950 . S
H1030 C1051 0.950 . S
H1031 C1054 0.950 . S
H1032 C1055 0.950 . S
H1033 C1057 0.950 . S
H1034 C1058 0.950 . S
H1035 C1059 0.951 . S
H1036 C1061 0.951 . S
H1037 C1063 0.950 . S
H1038 C1064 0.950 . S
H1039 C1066 0.950 . S
H1040 C1069 0.950 . S
H1041 C1070 0.950 . S
H1042 C1072 0.950 . S
H1043 C1073 0.950 . S
C1044 H1026 0.951 . S
C1044 C1045 1.366 . S
C1044 C1046 1.388 . S
C1045 C1044 1.366 . S
C1045 C1049 1.385 . S
C1046 H1027 0.951 . S
C1046 C1044 1.388 . S
C1046 C1047 1.366 . S
C1047 C1046 1.366 . S
C1047 C1048 1.414 . S
C1047 C1050 1.499 . S
C1048 H1028 0.950 . S
C1048 C1047 1.414 . S
C1048 C1049 1.374 . S
C1049 H1029 0.950 . S
C1049 C1045 1.385 . S
C1049 C1048 1.374 . S
C1050 C1047 1.499 . S
C1050 C1051 1.373 . S
C1050 C1052 1.389 . S
C1051 H1030 0.950 . S
C1051 C1050 1.373 . S
C1051 C1067 1.377 . S
C1052 C1050 1.389 . S
C1052 C1053 1.524 . S
C1052 C1066 1.377 . S
C1053 C1052 1.524 . S
C1053 C1054 1.397 . S
C1053 C1058 1.363 . S
C1054 H1031 0.950 . S
C1054 C1053 1.397 . S
C1054 C1055 1.334 . S
C1055 H1032 0.950 . S
C1055 C1054 1.334 . S
C1055 C1056 1.287 . S
C1056 C1055 1.287 . S
C1056 C1057 1.524 . S
C1056 H1075 0.913 . S
C1057 H1033 0.950 . S
C1057 C1056 1.524 . S
C1057 C1058 1.415 . S
C1058 H1034 0.950 . S
C1058 C1053 1.363 . S
C1058 C1057 1.415 . S
C1059 H1035 0.951 . S
C1059 C1060 1.366 . S
C1059 C1061 1.388 . S
C1060 C1059 1.366 . S
C1060 C1064 1.385 . S
C1061 H1036 0.951 . S
C1061 C1059 1.388 . S
C1061 C1062 1.366 . S
C1062 C1061 1.366 . S
C1062 C1063 1.414 . S
C1062 C1065 1.499 . S
C1063 H1037 0.950 . S
C1063 C1062 1.414 . S
C1063 C1064 1.374 . S
C1064 H1038 0.950 . S
C1064 C1060 1.385 . S
C1064 C1063 1.374 . S
C1065 C1062 1.499 . S
C1065 C1066 1.373 . S
C1065 C1067 1.389 . S
C1066 H1039 0.950 . S
C1066 C1052 1.377 . S
C1066 C1065 1.373 . S
C1067 C1051 1.377 . S
C1067 C1065 1.389 . S
C1067 C1068 1.524 . S
C1068 C1067 1.524 . S
C1068 C1069 1.397 . S
C1068 C1073 1.363 . S
C1069 H1040 0.950 . S
C1069 C1068 1.397 . S
C1069 C1070 1.334 1_545 S
C1070 H1041 0.950 . S
C1070 C1069 1.334 1_565 S
C1070 C1071 1.287 . S
C1071 C1070 1.287 . S
C1071 C1072 1.524 1_565 S
C1071 H1074 0.999 . S
C1072 H1042 0.950 . S
C1072 C1071 1.524 1_545 S
C1072 C1073 1.415 . S
C1073 H1043 0.950 . S
C1073 C1068 1.363 . S
C1073 C1072 1.415 . S
H1074 C1071 0.999 . S
H1075 C1056 0.913 . S
H1076 C1094 0.951 . S
H1077 C1096 0.951 . S
H1078 C1098 0.950 . S
H1079 C1099 0.950 . S
H1080 C1101 0.950 . S
H1081 C1104 0.950 . S
H1082 C1105 0.950 . S
H1083 C1107 0.950 . S
H1084 C1108 0.950 . S
H1085 C1109 0.951 . S
H1086 C1111 0.951 . S
H1087 C1113 0.950 . S
H1088 C1114 0.950 . S
H1089 C1116 0.950 . S
H1090 C1119 0.950 . S
H1091 C1120 0.950 . S
H1092 C1122 0.950 . S
H1093 C1123 0.950 . S
C1094 H1076 0.951 . S
C1094 C1095 1.366 . S
C1094 C1096 1.388 . S
C1095 C1094 1.366 . S
C1095 C1099 1.385 . S
C1096 H1077 0.951 . S
C1096 C1094 1.388 . S
C1096 C1097 1.366 . S
C1097 C1096 1.366 . S
C1097 C1098 1.414 . S
C1097 C1100 1.499 . S
C1098 H1078 0.950 . S
C1098 C1097 1.414 . S
C1098 C1099 1.374 . S
C1099 H1079 0.950 . S
C1099 C1095 1.385 . S
C1099 C1098 1.374 . S
C1100 C1097 1.499 . S
C1100 C1101 1.373 . S
C1100 C1102 1.389 . S
C1101 H1080 0.950 . S
C1101 C1100 1.373 . S
C1101 C1117 1.377 . S
C1102 C1100 1.389 . S
C1102 C1103 1.524 . S
C1102 C1116 1.377 . S
C1103 C1102 1.524 . S
C1103 C1104 1.397 . S
C1103 C1108 1.363 . S
C1104 H1081 0.950 . S
C1104 C1103 1.397 . S
C1104 C1105 1.334 . S
C1105 H1082 0.950 . S
C1105 C1104 1.334 . S
C1105 C1106 1.287 . S
C1106 C1105 1.287 . S
C1106 C1107 1.524 . S
C1106 H1125 0.913 . S
C1107 H1083 0.950 . S
C1107 C1106 1.524 . S
C1107 C1108 1.415 . S
C1108 H1084 0.950 . S
C1108 C1103 1.363 . S
C1108 C1107 1.415 . S
C1109 H1085 0.951 . S
C1109 C1110 1.366 . S
C1109 C1111 1.388 . S
C1110 C1109 1.366 . S
C1110 C1114 1.385 . S
C1111 H1086 0.951 . S
C1111 C1109 1.388 . S
C1111 C1112 1.366 . S
C1112 C1111 1.366 . S
C1112 C1113 1.414 . S
C1112 C1115 1.499 . S
C1113 H1087 0.950 . S
C1113 C1112 1.414 . S
C1113 C1114 1.374 . S
C1114 H1088 0.950 . S
C1114 C1110 1.385 . S
C1114 C1113 1.374 . S
C1115 C1112 1.499 . S
C1115 C1116 1.373 . S
C1115 C1117 1.389 . S
C1116 H1089 0.950 . S
C1116 C1102 1.377 . S
C1116 C1115 1.373 . S
C1117 C1101 1.377 . S
C1117 C1115 1.389 . S
C1117 C1118 1.524 . S
C1118 C1117 1.524 . S
C1118 C1119 1.397 . S
C1118 C1123 1.363 . S
C1119 H1090 0.950 . S
C1119 C1118 1.397 . S
C1119 C1120 1.334 . S
C1120 H1091 0.950 . S
C1120 C1119 1.334 . S
C1120 C1121 1.287 . S
C1121 C1120 1.287 . S
C1121 C1122 1.524 . S
C1121 H1124 0.999 . S
C1122 H1092 0.950 . S
C1122 C1121 1.524 . S
C1122 C1123 1.415 . S
C1123 H1093 0.950 . S
C1123 C1118 1.363 . S
C1123 C1122 1.415 . S
H1124 C1121 0.999 . S
H1125 C1106 0.913 . S
H1126 C1144 0.951 . S
H1127 C1146 0.951 . S
H1128 C1148 0.950 . S
H1129 C1149 0.950 . S
H1130 C1151 0.950 . S
H1131 C1154 0.950 . S
H1132 C1155 0.950 . S
H1133 C1157 0.950 . S
H1134 C1158 0.950 . S
H1135 C1159 0.951 . S
H1136 C1161 0.951 . S
H1137 C1163 0.950 . S
H1138 C1164 0.950 . S
H1139 C1166 0.950 . S
H1140 C1169 0.950 . S
H1141 C1170 0.950 . S
H1142 C1172 0.950 . S
H1143 C1173 0.950 . S
C1144 H1126 0.951 . S
C1144 C1145 1.366 . S
C1144 C1146 1.388 . S
C1145 C1144 1.366 . S
C1145 C1149 1.385 . S
C1146 H1127 0.951 . S
C1146 C1144 1.388 . S
C1146 C1147 1.366 . S
C1147 C1146 1.366 . S
C1147 C1148 1.414 . S
C1147 C1150 1.499 . S
C1148 H1128 0.950 . S
C1148 C1147 1.414 . S
C1148 C1149 1.374 . S
C1149 H1129 0.950 . S
C1149 C1145 1.385 . S
C1149 C1148 1.374 . S
C1150 C1147 1.499 . S
C1150 C1151 1.373 . S
C1150 C1152 1.389 . S
C1151 H1130 0.950 . S
C1151 C1150 1.373 . S
C1151 C1167 1.377 . S
C1152 C1150 1.389 . S
C1152 C1153 1.524 . S
C1152 C1166 1.377 . S
C1153 C1152 1.524 . S
C1153 C1154 1.397 . S
C1153 C1158 1.363 . S
C1154 H1131 0.950 . S
C1154 C1153 1.397 . S
C1154 C1155 1.334 . S
C1155 H1132 0.950 . S
C1155 C1154 1.334 . S
C1155 C1156 1.287 . S
C1156 C1155 1.287 . S
C1156 C1157 1.524 . S
C1156 H1175 0.913 . S
C1157 H1133 0.950 . S
C1157 C1156 1.524 . S
C1157 C1158 1.415 . S
C1158 H1134 0.950 . S
C1158 C1153 1.363 . S
C1158 C1157 1.415 . S
C1159 H1135 0.951 . S
C1159 C1160 1.366 . S
C1159 C1161 1.388 . S
C1160 C1159 1.366 . S
C1160 C1164 1.385 . S
C1161 H1136 0.951 . S
C1161 C1159 1.388 . S
C1161 C1162 1.366 . S
C1162 C1161 1.366 . S
C1162 C1163 1.414 . S
C1162 C1165 1.499 . S
C1163 H1137 0.950 . S
C1163 C1162 1.414 . S
C1163 C1164 1.374 . S
C1164 H1138 0.950 . S
C1164 C1160 1.385 . S
C1164 C1163 1.374 . S
C1165 C1162 1.499 . S
C1165 C1166 1.373 . S
C1165 C1167 1.389 . S
C1166 H1139 0.950 . S
C1166 C1152 1.377 . S
C1166 C1165 1.373 . S
C1167 C1151 1.377 . S
C1167 C1165 1.389 . S
C1167 C1168 1.524 . S
C1168 C1167 1.524 . S
C1168 C1169 1.397 . S
C1168 C1173 1.363 . S
C1169 H1140 0.950 . S
C1169 C1168 1.397 . S
C1169 C1170 1.334 . S
C1170 H1141 0.950 . S
C1170 C1169 1.334 . S
C1170 C1171 1.287 . S
C1171 C1170 1.287 . S
C1171 C1172 1.524 . S
C1171 H1174 0.999 . S
C1172 H1142 0.950 . S
C1172 C1171 1.524 . S
C1172 C1173 1.415 . S
C1173 H1143 0.950 . S
C1173 C1168 1.363 . S
C1173 C1172 1.415 . S
H1174 C1171 0.999 . S
H1175 C1156 0.913 . S
H1176 C1194 0.951 . S
H1177 C1196 0.951 . S
H1178 C1198 0.950 . S
H1179 C1199 0.950 . S
H1180 C1201 0.950 . S
H1181 C1204 0.950 . S
H1182 C1205 0.950 . S
H1183 C1207 0.950 . S
H1184 C1208 0.950 . S
H1185 C1209 0.951 . S
H1186 C1211 0.951 . S
H1187 C1213 0.950 . S
H1188 C1214 0.950 . S
H1189 C1216 0.950 . S
H1190 C1219 0.950 . S
H1191 C1220 0.950 . S
H1192 C1222 0.950 . S
H1193 C1223 0.950 . S
C1194 H1176 0.951 . S
C1194 C1195 1.366 . S
C1194 C1196 1.388 . S
C1195 C1194 1.366 . S
C1195 C1199 1.385 . S
C1196 H1177 0.951 . S
C1196 C1194 1.388 . S
C1196 C1197 1.366 . S
C1197 C1196 1.366 . S
C1197 C1198 1.414 . S
C1197 C1200 1.499 . S
C1198 H1178 0.950 . S
C1198 C1197 1.414 . S
C1198 C1199 1.374 . S
C1199 H1179 0.950 . S
C1199 C1195 1.385 . S
C1199 C1198 1.374 . S
C1200 C1197 1.499 . S
C1200 C1201 1.373 . S
C1200 C1202 1.389 . S
C1201 H1180 0.950 . S
C1201 C1200 1.373 . S
C1201 C1217 1.377 . S
C1202 C1200 1.389 . S
C1202 C1203 1.524 . S
C1202 C1216 1.377 . S
C1203 C1202 1.524 . S
C1203 C1204 1.397 . S
C1203 C1208 1.363 . S
C1204 H1181 0.950 . S
C1204 C1203 1.397 . S
C1204 C1205 1.334 . S
C1205 H1182 0.950 . S
C1205 C1204 1.334 . S
C1205 C1206 1.287 . S
C1206 C1205 1.287 . S
C1206 C1207 1.524 . S
C1206 H1225 0.913 . S
C1207 H1183 0.950 . S
C1207 C1206 1.524 . S
C1207 C1208 1.415 . S
C1208 H1184 0.950 . S
C1208 C1203 1.363 . S
C1208 C1207 1.415 . S
C1209 H1185 0.951 . S
C1209 C1210 1.366 . S
C1209 C1211 1.388 . S
C1210 C1209 1.366 . S
C1210 C1214 1.385 . S
C1211 H1186 0.951 . S
C1211 C1209 1.388 . S
C1211 C1212 1.366 . S
C1212 C1211 1.366 . S
C1212 C1213 1.414 . S
C1212 C1215 1.499 . S
C1213 H1187 0.950 . S
C1213 C1212 1.414 . S
C1213 C1214 1.374 . S
C1214 H1188 0.950 . S
C1214 C1210 1.385 . S
C1214 C1213 1.374 . S
C1215 C1212 1.499 . S
C1215 C1216 1.373 . S
C1215 C1217 1.389 . S
C1216 H1189 0.950 . S
C1216 C1202 1.377 . S
C1216 C1215 1.373 . S
C1217 C1201 1.377 . S
C1217 C1215 1.389 . S
C1217 C1218 1.524 . S
C1218 C1217 1.524 . S
C1218 C1219 1.397 . S
C1218 C1223 1.363 . S
C1219 H1190 0.950 . S
C1219 C1218 1.397 . S
C1219 C1220 1.334 . S
C1220 H1191 0.950 . S
C1220 C1219 1.334 . S
C1220 C1221 1.287 . S
C1221 C1220 1.287 . S
C1221 C1222 1.524 . S
C1221 H1224 0.999 . S
C1222 H1192 0.950 . S
C1222 C1221 1.524 . S
C1222 C1223 1.415 . S
C1223 H1193 0.950 . S
C1223 C1218 1.363 . S
C1223 C1222 1.415 . S
H1224 C1221 0.999 . S
H1225 C1206 0.913 . S
H1226 C1244 0.951 . S
H1227 C1246 0.951 . S
H1228 C1248 0.950 . S
H1229 C1249 0.950 . S
H1230 C1251 0.950 . S
H1231 C1254 0.950 . S
H1232 C1255 0.950 . S
H1233 C1257 0.950 . S
H1234 C1258 0.950 . S
H1235 C1259 0.951 . S
H1236 C1261 0.951 . S
H1237 C1263 0.950 . S
H1238 C1264 0.950 . S
H1239 C1266 0.950 . S
H1240 C1269 0.950 . S
H1241 C1270 0.950 . S
H1242 C1272 0.950 . S
H1243 C1273 0.950 . S
C1244 H1226 0.951 . S
C1244 C1245 1.366 . S
C1244 C1246 1.388 . S
C1245 C1244 1.366 . S
C1245 C1249 1.385 . S
C1246 H1227 0.951 . S
C1246 C1244 1.388 . S
C1246 C1247 1.366 . S
C1247 C1246 1.366 . S
C1247 C1248 1.414 . S
C1247 C1250 1.499 . S
C1248 H1228 0.950 . S
C1248 C1247 1.414 . S
C1248 C1249 1.374 . S
C1249 H1229 0.950 . S
C1249 C1245 1.385 . S
C1249 C1248 1.374 . S
C1250 C1247 1.499 . S
C1250 C1251 1.373 . S
C1250 C1252 1.389 . S
C1251 H1230 0.950 . S
C1251 C1250 1.373 . S
C1251 C1267 1.377 . S
C1252 C1250 1.389 . S
C1252 C1253 1.524 . S
C1252 C1266 1.377 . S
C1253 C1252 1.524 . S
C1253 C1254 1.397 . S
C1253 C1258 1.363 . S
C1254 H1231 0.950 . S
C1254 C1253 1.397 . S
C1254 C1255 1.334 . S
C1255 H1232 0.950 . S
C1255 C1254 1.334 . S
C1255 C1256 1.287 . S
C1256 C1255 1.287 . S
C1256 C1257 1.524 . S
C1256 H1275 0.913 . S
C1257 H1233 0.950 . S
C1257 C1256 1.524 . S
C1257 C1258 1.415 . S
C1258 H1234 0.950 . S
C1258 C1253 1.363 . S
C1258 C1257 1.415 . S
C1259 H1235 0.951 . S
C1259 C1260 1.366 . S
C1259 C1261 1.388 . S
C1260 C1259 1.366 . S
C1260 C1264 1.385 . S
C1261 H1236 0.951 . S
C1261 C1259 1.388 . S
C1261 C1262 1.366 . S
C1262 C1261 1.366 . S
C1262 C1263 1.414 . S
C1262 C1265 1.499 . S
C1263 H1237 0.950 . S
C1263 C1262 1.414 . S
C1263 C1264 1.374 . S
C1264 H1238 0.950 . S
C1264 C1260 1.385 . S
C1264 C1263 1.374 . S
C1265 C1262 1.499 . S
C1265 C1266 1.373 . S
C1265 C1267 1.389 . S
C1266 H1239 0.950 . S
C1266 C1252 1.377 . S
C1266 C1265 1.373 . S
C1267 C1251 1.377 . S
C1267 C1265 1.389 . S
C1267 C1268 1.524 . S
C1268 C1267 1.524 . S
C1268 C1269 1.397 . S
C1268 C1273 1.363 . S
C1269 H1240 0.950 . S
C1269 C1268 1.397 . S
C1269 C1270 1.334 . S
C1270 H1241 0.950 . S
C1270 C1269 1.334 . S
C1270 C1271 1.287 . S
C1271 C1270 1.287 . S
C1271 C1272 1.524 . S
C1271 H1274 0.999 1_554 S
C1272 H1242 0.950 . S
C1272 C1271 1.524 . S
C1272 C1273 1.415 . S
C1273 H1243 0.950 . S
C1273 C1268 1.363 . S
C1273 C1272 1.415 . S
H1274 C1271 0.999 1_556 S
H1275 C1256 0.913 . S
H1276 C1294 0.951 . S
H1277 C1296 0.951 . S
H1278 C1298 0.950 . S
H1279 C1299 0.950 . S
H1280 C1301 0.950 . S
H1281 C1304 0.950 . S
H1282 C1305 0.950 . S
H1283 C1307 0.950 . S
H1284 C1308 0.950 . S
H1285 C1309 0.951 . S
H1286 C1311 0.951 . S
H1287 C1313 0.950 . S
H1288 C1314 0.950 . S
H1289 C1316 0.950 . S
H1290 C1319 0.950 . S
H1291 C1320 0.950 . S
H1292 C1322 0.950 . S
H1293 C1323 0.950 . S
C1294 H1276 0.951 . S
C1294 C1295 1.366 . S
C1294 C1296 1.388 . S
C1295 C1294 1.366 . S
C1295 C1299 1.385 . S
C1296 H1277 0.951 . S
C1296 C1294 1.388 . S
C1296 C1297 1.366 . S
C1297 C1296 1.366 . S
C1297 C1298 1.414 . S
C1297 C1300 1.499 . S
C1298 H1278 0.950 . S
C1298 C1297 1.414 . S
C1298 C1299 1.374 . S
C1299 H1279 0.950 . S
C1299 C1295 1.385 . S
C1299 C1298 1.374 . S
C1300 C1297 1.499 . S
C1300 C1301 1.373 . S
C1300 C1302 1.389 . S
C1301 H1280 0.950 . S
C1301 C1300 1.373 . S
C1301 C1317 1.377 . S
C1302 C1300 1.389 . S
C1302 C1303 1.524 . S
C1302 C1316 1.377 . S
C1303 C1302 1.524 . S
C1303 C1304 1.397 . S
C1303 C1308 1.363 . S
C1304 H1281 0.950 . S
C1304 C1303 1.397 . S
C1304 C1305 1.334 . S
C1305 H1282 0.950 . S
C1305 C1304 1.334 . S
C1305 C1306 1.287 . S
C1306 C1305 1.287 . S
C1306 C1307 1.524 . S
C1306 H1325 0.913 . S
C1307 H1283 0.950 . S
C1307 C1306 1.524 . S
C1307 C1308 1.415 . S
C1308 H1284 0.950 . S
C1308 C1303 1.363 . S
C1308 C1307 1.415 . S
C1309 H1285 0.951 . S
C1309 C1310 1.366 . S
C1309 C1311 1.388 . S
C1310 C1309 1.366 . S
C1310 C1314 1.385 . S
C1311 H1286 0.951 . S
C1311 C1309 1.388 . S
C1311 C1312 1.366 . S
C1312 C1311 1.366 . S
C1312 C1313 1.414 . S
C1312 C1315 1.499 . S
C1313 H1287 0.950 . S
C1313 C1312 1.414 . S
C1313 C1314 1.374 . S
C1314 H1288 0.950 . S
C1314 C1310 1.385 . S
C1314 C1313 1.374 . S
C1315 C1312 1.499 . S
C1315 C1316 1.373 . S
C1315 C1317 1.389 . S
C1316 H1289 0.950 . S
C1316 C1302 1.377 . S
C1316 C1315 1.373 . S
C1317 C1301 1.377 . S
C1317 C1315 1.389 . S
C1317 C1318 1.524 . S
C1318 C1317 1.524 . S
C1318 C1319 1.397 . S
C1318 C1323 1.363 . S
C1319 H1290 0.950 . S
C1319 C1318 1.397 . S
C1319 C1320 1.334 . S
C1320 H1291 0.950 . S
C1320 C1319 1.334 . S
C1320 C1321 1.287 . S
C1321 C1320 1.287 . S
C1321 C1322 1.524 . S
C1321 H1324 0.999 . S
C1322 H1292 0.950 . S
C1322 C1321 1.524 . S
C1322 C1323 1.415 . S
C1323 H1293 0.950 . S
C1323 C1318 1.363 . S
C1323 C1322 1.415 . S
H1324 C1321 0.999 . S
H1325 C1306 0.913 . S
H1326 C1344 0.951 . S
H1327 C1346 0.951 . S
H1328 C1348 0.950 . S
H1329 C1349 0.950 . S
H1330 C1351 0.950 . S
H1331 C1354 0.950 . S
H1332 C1355 0.950 . S
H1333 C1357 0.950 . S
H1334 C1358 0.950 . S
H1335 C1359 0.951 . S
H1336 C1361 0.951 . S
H1337 C1363 0.950 . S
H1338 C1364 0.950 . S
H1339 C1366 0.950 . S
H1340 C1369 0.950 . S
H1341 C1370 0.950 . S
H1342 C1372 0.950 . S
H1343 C1373 0.950 . S
C1344 H1326 0.951 . S
C1344 C1345 1.366 . S
C1344 C1346 1.388 . S
C1345 C1344 1.366 . S
C1345 C1349 1.385 . S
C1346 H1327 0.951 . S
C1346 C1344 1.388 . S
C1346 C1347 1.366 . S
C1347 C1346 1.366 . S
C1347 C1348 1.414 . S
C1347 C1350 1.499 . S
C1348 H1328 0.950 . S
C1348 C1347 1.414 . S
C1348 C1349 1.374 . S
C1349 H1329 0.950 . S
C1349 C1345 1.385 . S
C1349 C1348 1.374 . S
C1350 C1347 1.499 . S
C1350 C1351 1.373 . S
C1350 C1352 1.389 . S
C1351 H1330 0.950 . S
C1351 C1350 1.373 . S
C1351 C1367 1.377 . S
C1352 C1350 1.389 . S
C1352 C1353 1.524 . S
C1352 C1366 1.377 . S
C1353 C1352 1.524 . S
C1353 C1354 1.397 . S
C1353 C1358 1.363 . S
C1354 H1331 0.950 . S
C1354 C1353 1.397 . S
C1354 C1355 1.334 . S
C1355 H1332 0.950 . S
C1355 C1354 1.334 . S
C1355 C1356 1.287 . S
C1356 C1355 1.287 . S
C1356 C1357 1.524 . S
C1356 H1375 0.913 . S
C1357 H1333 0.950 . S
C1357 C1356 1.524 . S
C1357 C1358 1.415 . S
C1358 H1334 0.950 . S
C1358 C1353 1.363 . S
C1358 C1357 1.415 . S
C1359 H1335 0.951 . S
C1359 C1360 1.366 . S
C1359 C1361 1.388 . S
C1360 C1359 1.366 . S
C1360 C1364 1.385 . S
C1361 H1336 0.951 . S
C1361 C1359 1.388 . S
C1361 C1362 1.366 . S
C1362 C1361 1.366 . S
C1362 C1363 1.414 . S
C1362 C1365 1.499 . S
C1363 H1337 0.950 . S
C1363 C1362 1.414 . S
C1363 C1364 1.374 . S
C1364 H1338 0.950 . S
C1364 C1360 1.385 . S
C1364 C1363 1.374 . S
C1365 C1362 1.499 . S
C1365 C1366 1.373 . S
C1365 C1367 1.389 . S
C1366 H1339 0.950 . S
C1366 C1352 1.377 . S
C1366 C1365 1.373 . S
C1367 C1351 1.377 . S
C1367 C1365 1.389 . S
C1367 C1368 1.524 . S
C1368 C1367 1.524 . S
C1368 C1369 1.397 . S
C1368 C1373 1.363 . S
C1369 H1340 0.950 . S
C1369 C1368 1.397 . S
C1369 C1370 1.334 . S
C1370 H1341 0.950 . S
C1370 C1369 1.334 . S
C1370 C1371 1.287 . S
C1371 C1370 1.287 . S
C1371 C1372 1.524 . S
C1371 H1374 0.999 . S
C1372 H1342 0.950 . S
C1372 C1371 1.524 . S
C1372 C1373 1.415 . S
C1373 H1343 0.950 . S
C1373 C1368 1.363 . S
C1373 C1372 1.415 . S
H1374 C1371 0.999 . S
H1375 C1356 0.913 . S
C195 C6 1.610 . S
C210 C115 1.606 . S
C245 C18 1.625 . S
C260 C118 1.560 . S
C310 C154 1.771 . S
C295 C28 1.786 . S
C345 C40 0.984 . S
C360 C174 0.977 . S
C410 C128 2.031 . S
C395 C9 2.049 . S
C460 C105 1.489 . S
C445 C16 1.513 . S
C510 C158 1.424 . S
C495 C30 1.541 . S
C560 C138 1.059 . S
C545 C42 1.105 . S
C595 C4 1.349 . S
C610 C168 1.282 . S
C660 C134 1.754 . S
C645 C33 1.763 . S
C695 C45 1.443 . S
C710 C100 1.391 . S
C745 C21 1.589 . S
C760 C148 1.545 . S
C810 C114 1.638 . S
C795 C57 1.646 . S
C845 C66 1.600 . S
C860 C120 1.541 . S
C895 C76 1.811 . S
C910 C155 1.795 . S
C945 C88 0.903 . S
C960 C175 0.896 . S
C995 C54 2.023 . S
C1010 C125 2.007 . S
C1060 C108 1.551 . S
C1045 C64 1.575 . S
C1110 C160 1.328 . S
C1095 C78 1.454 . S
C1160 C140 1.110 . S
C1145 C93 1.153 . S
C1195 C52 1.309 . S
C1210 C165 1.243 . S
C1260 C135 1.750 . S
C1245 C81 1.758 . S
C1310 C98 1.352 . S
C1295 C90 1.411 . S
C1345 C69 1.614 . S
C1360 C145 1.572 . S
