# Generated by pormake.
# Topology ctn, (3,4)-cn, num edge types: 1
# Building blocks:
#     Node 0, Type 0, BuildingBlock: VETTIZ_charged_linker_0, # of connection points: 3
#     Node 1, Type 0, BuildingBlock: VETTIZ_charged_linker_0, # of connection points: 3
#     Node 2, Type 0, BuildingBlock: VETTIZ_charged_linker_0, # of connection points: 3
#     Node 3, Type 0, BuildingBlock: VETTIZ_charged_linker_0, # of connection points: 3
#     Node 4, Type 0, BuildingBlock: VETTIZ_charged_linker_0, # of connection points: 3
#     Node 5, Type 0, BuildingBlock: VETTIZ_charged_linker_0, # of connection points: 3
#     Node 6, Type 0, BuildingBlock: VETTIZ_charged_linker_0, # of connection points: 3
#     Node 7, Type 0, BuildingBlock: VETTIZ_charged_linker_0, # of connection points: 3
#     Node 8, Type 0, BuildingBlock: VETTIZ_charged_linker_0, # of connection points: 3
#     Node 9, Type 0, BuildingBlock: VETTIZ_charged_linker_0, # of connection points: 3
#     Node 10, Type 0, BuildingBlock: VETTIZ_charged_linker_0, # of connection points: 3
#     Node 11, Type 0, BuildingBlock: VETTIZ_charged_linker_0, # of connection points: 3
#     Node 12, Type 0, BuildingBlock: VETTIZ_charged_linker_0, # of connection points: 3
#     Node 13, Type 0, BuildingBlock: VETTIZ_charged_linker_0, # of connection points: 3
#     Node 14, Type 0, BuildingBlock: VETTIZ_charged_linker_0, # of connection points: 3
#     Node 15, Type 0, BuildingBlock: VETTIZ_charged_linker_0, # of connection points: 3
#     Node 16, Type 1, BuildingBlock: UXUYUI_clean_sbu_0, # of connection points: 4
#     Node 17, Type 1, BuildingBlock: UXUYUI_clean_sbu_0, # of connection points: 4
#     Node 18, Type 1, BuildingBlock: UXUYUI_clean_sbu_0, # of connection points: 4
#     Node 19, Type 1, BuildingBlock: UXUYUI_clean_sbu_0, # of connection points: 4
#     Node 20, Type 1, BuildingBlock: UXUYUI_clean_sbu_0, # of connection points: 4
#     Node 21, Type 1, BuildingBlock: UXUYUI_clean_sbu_0, # of connection points: 4
#     Node 22, Type 1, BuildingBlock: UXUYUI_clean_sbu_0, # of connection points: 4
#     Node 23, Type 1, BuildingBlock: UXUYUI_clean_sbu_0, # of connection points: 4
#     Node 24, Type 1, BuildingBlock: UXUYUI_clean_sbu_0, # of connection points: 4
#     Node 25, Type 1, BuildingBlock: UXUYUI_clean_sbu_0, # of connection points: 4
#     Node 26, Type 1, BuildingBlock: UXUYUI_clean_sbu_0, # of connection points: 4
#     Node 27, Type 1, BuildingBlock: UXUYUI_clean_sbu_0, # of connection points: 4
#     Edge 28, Type (0, 1), BuildingBlock: CIFDUS_clean_linker_0, # of connection points: 2
#     Edge 29, Type (0, 1), BuildingBlock: CIFDUS_clean_linker_0, # of connection points: 2
#     Edge 30, Type (0, 1), BuildingBlock: CIFDUS_clean_linker_0, # of connection points: 2
#     Edge 31, Type (0, 1), BuildingBlock: CIFDUS_clean_linker_0, # of connection points: 2
#     Edge 32, Type (0, 1), BuildingBlock: CIFDUS_clean_linker_0, # of connection points: 2
#     Edge 33, Type (0, 1), BuildingBlock: CIFDUS_clean_linker_0, # of connection points: 2
#     Edge 34, Type (0, 1), BuildingBlock: CIFDUS_clean_linker_0, # of connection points: 2
#     Edge 35, Type (0, 1), BuildingBlock: CIFDUS_clean_linker_0, # of connection points: 2
#     Edge 36, Type (0, 1), BuildingBlock: CIFDUS_clean_linker_0, # of connection points: 2
#     Edge 37, Type (0, 1), BuildingBlock: CIFDUS_clean_linker_0, # of connection points: 2
#     Edge 38, Type (0, 1), BuildingBlock: CIFDUS_clean_linker_0, # of connection points: 2
#     Edge 39, Type (0, 1), BuildingBlock: CIFDUS_clean_linker_0, # of connection points: 2
#     Edge 40, Type (0, 1), BuildingBlock: CIFDUS_clean_linker_0, # of connection points: 2
#     Edge 41, Type (0, 1), BuildingBlock: CIFDUS_clean_linker_0, # of connection points: 2
#     Edge 42, Type (0, 1), BuildingBlock: CIFDUS_clean_linker_0, # of connection points: 2
#     Edge 43, Type (0, 1), BuildingBlock: CIFDUS_clean_linker_0, # of connection points: 2
#     Edge 44, Type (0, 1), BuildingBlock: CIFDUS_clean_linker_0, # of connection points: 2
#     Edge 45, Type (0, 1), BuildingBlock: CIFDUS_clean_linker_0, # of connection points: 2
#     Edge 46, Type (0, 1), BuildingBlock: CIFDUS_clean_linker_0, # of connection points: 2
#     Edge 47, Type (0, 1), BuildingBlock: CIFDUS_clean_linker_0, # of connection points: 2
#     Edge 48, Type (0, 1), BuildingBlock: CIFDUS_clean_linker_0, # of connection points: 2
#     Edge 49, Type (0, 1), BuildingBlock: CIFDUS_clean_linker_0, # of connection points: 2
#     Edge 50, Type (0, 1), BuildingBlock: CIFDUS_clean_linker_0, # of connection points: 2
#     Edge 51, Type (0, 1), BuildingBlock: CIFDUS_clean_linker_0, # of connection points: 2
#     Edge 52, Type (0, 1), BuildingBlock: CIFDUS_clean_linker_0, # of connection points: 2
#     Edge 53, Type (0, 1), BuildingBlock: CIFDUS_clean_linker_0, # of connection points: 2
#     Edge 54, Type (0, 1), BuildingBlock: CIFDUS_clean_linker_0, # of connection points: 2
#     Edge 55, Type (0, 1), BuildingBlock: CIFDUS_clean_linker_0, # of connection points: 2
#     Edge 56, Type (0, 1), BuildingBlock: CIFDUS_clean_linker_0, # of connection points: 2
#     Edge 57, Type (0, 1), BuildingBlock: CIFDUS_clean_linker_0, # of connection points: 2
#     Edge 58, Type (0, 1), BuildingBlock: CIFDUS_clean_linker_0, # of connection points: 2
#     Edge 59, Type (0, 1), BuildingBlock: CIFDUS_clean_linker_0, # of connection points: 2
#     Edge 60, Type (0, 1), BuildingBlock: CIFDUS_clean_linker_0, # of connection points: 2
#     Edge 61, Type (0, 1), BuildingBlock: CIFDUS_clean_linker_0, # of connection points: 2
#     Edge 62, Type (0, 1), BuildingBlock: CIFDUS_clean_linker_0, # of connection points: 2
#     Edge 63, Type (0, 1), BuildingBlock: CIFDUS_clean_linker_0, # of connection points: 2
#     Edge 64, Type (0, 1), BuildingBlock: CIFDUS_clean_linker_0, # of connection points: 2
#     Edge 65, Type (0, 1), BuildingBlock: CIFDUS_clean_linker_0, # of connection points: 2
#     Edge 66, Type (0, 1), BuildingBlock: CIFDUS_clean_linker_0, # of connection points: 2
#     Edge 67, Type (0, 1), BuildingBlock: CIFDUS_clean_linker_0, # of connection points: 2
#     Edge 68, Type (0, 1), BuildingBlock: CIFDUS_clean_linker_0, # of connection points: 2
#     Edge 69, Type (0, 1), BuildingBlock: CIFDUS_clean_linker_0, # of connection points: 2
#     Edge 70, Type (0, 1), BuildingBlock: CIFDUS_clean_linker_0, # of connection points: 2
#     Edge 71, Type (0, 1), BuildingBlock: CIFDUS_clean_linker_0, # of connection points: 2
#     Edge 72, Type (0, 1), BuildingBlock: CIFDUS_clean_linker_0, # of connection points: 2
#     Edge 73, Type (0, 1), BuildingBlock: CIFDUS_clean_linker_0, # of connection points: 2
#     Edge 74, Type (0, 1), BuildingBlock: CIFDUS_clean_linker_0, # of connection points: 2
#     Edge 75, Type (0, 1), BuildingBlock: CIFDUS_clean_linker_0, # of connection points: 2
# Relax obj value: 0.000
# Max RMSD: 0.002
# Mean RMSD: 0.001
data_MOF--net-ctn--node1-UXUYUI_clean_sbu_0--node2-VETTIZ_charged_linker_0--edge1-CIFDUS_clean_linker_0
_symmetry_space_group_name_H-M    P1
_symmetry_Int_Tables_number       1
_symmetry_cell_setting            triclinic
loop_
_symmetry_equiv_pos_as_xyz
'x, y, z'
_cell_length_a     73.264928
_cell_length_b     73.311574
_cell_length_c     73.216173
_cell_angle_alpha  89.989001
_cell_angle_beta   90.045495
_cell_angle_gamma 89.983341
loop_
_atom_site_label
_atom_site_type_symbol
_atom_site_fract_x
_atom_site_fract_y
_atom_site_fract_z
_atom_type_partial_charge
C0 C 0.03673 0.09152 0.9968 0.0
C1 C 0.02279 0.10451 0.99901 0.0
C2 C 0.01161 0.10354 0.01468 0.0
C3 C 0.02834 0.077 0.02543 0.0
C4 C 0.03928 0.07804 0.0101 0.0
C5 C 0.05379 0.06356 0.00985 0.0
H6 H 0.09836 0.99518 0.0526 0.0
C7 C 0.03492 0.06153 0.03671 0.0
C8 C 0.04988 0.05369 0.02763 0.0
H9 H 0.10818 0.0174 0.99865 0.0
H10 H 0.08278 0.03767 1.00217 0.0
H11 H 0.08772 0.03266 0.0731 0.0
H12 H 0.05539 0.99167 0.04623 0.0
H13 H 0.04256 0.99925 0.06496 0.0
H14 H 0.06434 0.98834 0.06879 0.0
H15 H 0.0847 0.01003 0.08198 0.0
H16 H 0.06866 0.02798 0.08694 0.0
C17 C 0.07263 0.07319 0.01015 0.0
C18 C 0.05053 0.05116 0.99298 0.0
C19 C 1.00309 0.04526 0.09643 0.0
C20 C 0.00655 0.03195 0.10988 0.0
C21 C 0.02162 0.02019 0.10763 0.0
C22 C 0.03301 0.02159 0.09233 0.0
C23 C 0.02938 0.03491 0.07903 0.0
C24 C 0.01467 0.04652 0.08121 0.0
C25 C 0.01317 0.06004 0.06577 0.0
C26 C 0.02909 0.05429 0.05377 0.0
C27 C 0.03856 0.03958 0.06166 0.0
C28 C 0.01585 0.07944 0.07371 0.0
C29 C 0.9946 0.05709 0.05612 0.0
C30 C 0.09502 1.00428 0.04144 0.0
C31 C 0.10577 0.00484 0.02547 0.0
C32 C 0.10068 0.01698 0.01138 0.0
C33 C 0.08573 0.0287 0.01335 0.0
C34 C 0.07546 0.02827 0.02951 0.0
C35 C 0.07989 0.01593 0.04306 0.0
C36 C 0.06665 0.01669 0.05879 0.0
C37 C 0.05392 0.0319 0.05262 0.0
C38 C 0.05933 0.03874 0.03557 0.0
C39 C 0.07738 0.022 0.07622 0.0
C40 C 0.05674 0.99804 0.05996 0.0
H41 H 0.00528 0.08978 0.03941 0.0
H42 H 0.04574 0.092 0.98508 0.0
H43 H 0.03585 0.05089 0.98905 0.0
H44 H 0.05399 0.03671 0.99565 0.0
H45 H 0.05836 0.05603 0.98095 0.0
H46 H 0.07243 0.08504 0.01965 0.0
H47 H 0.07629 0.07837 0.99638 0.0
H48 H 0.08377 0.06438 0.01514 0.0
H49 H 0.99177 0.05466 0.09784 0.0
H50 H 0.02449 0.00968 0.11764 0.0
H51 H 0.04421 0.0122 0.09147 0.0
H52 H 0.02566 0.07927 0.08533 0.0
H53 H 1.00276 0.08511 0.07884 0.0
H54 H 0.02185 0.08905 0.06378 0.0
H55 H 0.99163 0.04228 0.05469 0.0
H56 H 0.99428 0.06259 0.0421 0.0
H57 H 0.9833 0.06333 0.06408 0.0
H58 H 1.00068 0.11329 0.01665 0.0
C59 C 0.01427 0.08984 0.02785 0.0
C60 C 0.25396 0.6614 0.2312 0.0
C61 C 0.23839 0.65819 0.22035 0.0
C62 C 0.23524 0.66946 0.20505 0.0
C63 C 0.26269 0.6867 0.21163 0.0
C64 C 0.26587 0.67565 0.22658 0.0
C65 C 0.28313 0.68082 0.23649 0.0
H66 H 0.35729 0.73572 0.24368 0.0
C67 C 0.27767 0.70016 0.21051 0.0
C68 C 0.28972 0.69681 0.22502 0.0
H69 H 0.3422 0.6901 0.27791 0.0
H70 H 0.31521 0.68511 0.25976 0.0
H71 H 0.31567 0.75261 0.23928 0.0
H72 H 0.34771 0.71618 0.20596 0.0
H73 H 0.33607 0.73115 0.19129 0.0
H74 H 0.35252 0.74015 0.20727 0.0
H75 H 0.33568 0.7599 0.22716 0.0
H76 H 0.31361 0.75938 0.2163 0.0
C77 C 0.27792 0.68679 0.25611 0.0
C78 C 0.29644 0.66441 0.23558 0.0
C79 C 0.27755 0.74674 0.15926 0.0
C80 C 0.28961 0.76074 0.15408 0.0
C81 C 0.30528 0.76389 0.16488 0.0
C82 C 0.30889 0.75323 0.18042 0.0
C83 C 0.29676 0.73917 0.18525 0.0
C84 C 0.28141 0.73616 0.1747 0.0
C85 C 0.27011 0.72053 0.18161 0.0
C86 C 0.28119 0.71458 0.19806 0.0
C87 C 0.29677 0.72555 0.20022 0.0
C88 C 0.25115 0.72809 0.18719 0.0
C89 C 0.26958 0.70563 0.16657 0.0
C90 C 0.34805 0.72478 0.24733 0.0
C91 C 0.35189 0.71327 0.26224 0.0
C92 C 0.33966 0.69902 0.26638 0.0
C93 C 0.32394 0.69618 0.25586 0.0
C94 C 0.32036 0.70765 0.24091 0.0
C95 C 0.33232 0.72166 0.23682 0.0
C96 C 0.32647 0.73215 0.2201 0.0
C97 C 0.309 0.7222 0.21495 0.0
C98 C 0.30549 0.7079 0.22725 0.0
C99 C 0.32273 0.75212 0.22584 0.0
C100 C 0.34144 0.72999 0.20534 0.0
H101 H 0.24403 0.69167 0.18884 0.0
H102 H 0.25675 0.65313 0.24314 0.0
H103 H 0.29479 0.65677 0.22255 0.0
H104 H 0.31093 0.66856 0.23574 0.0
H105 H 0.29395 0.65469 0.24695 0.0
H106 H 0.2649 0.6946 0.25606 0.0
H107 H 0.27605 0.67478 0.26516 0.0
H108 H 0.28801 0.69608 0.26234 0.0
H109 H 0.26524 0.74407 0.15152 0.0
H110 H 0.31494 0.77443 0.16116 0.0
H111 H 0.32106 0.75625 0.188 0.0
H112 H 0.25244 0.74191 0.19334 0.0
H113 H 0.24197 0.72924 0.17517 0.0
H114 H 0.24437 0.7198 0.19779 0.0
H115 H 0.28248 0.70548 0.15855 0.0
H116 H 0.26845 0.69168 0.17216 0.0
H117 H 0.25819 0.70804 0.15684 0.0
H118 H 0.2236 0.66715 0.19624 0.0
C119 C 0.24724 0.68366 0.20068 0.0
C120 C 0.97853 0.41217 0.01403 0.0
C121 C 0.96827 0.40768 0.9984 0.0
C122 C 0.95355 0.41901 0.99335 0.0
C123 C 0.95935 0.43869 0.01936 0.0
C124 C 0.9739 0.4277 0.0242 0.0
C125 C 0.98354 0.43453 0.04102 0.0
H126 H 0.99101 0.4977 0.10814 0.0
C127 C 0.95814 0.4537 0.03282 0.0
C128 C 0.97235 0.45141 0.04549 0.0
H129 H 0.024 0.44944 0.09963 0.0
H130 H 0.00632 0.44185 0.07302 0.0
H131 H 0.95286 0.47732 0.10063 0.0
H132 H 0.98753 0.5096 0.06582 0.0
H133 H 0.9648 0.51608 0.06162 0.0
H134 H 0.97441 0.51937 0.08406 0.0
H135 H 0.95467 0.50162 0.10295 0.0
H136 H 0.93867 0.49132 0.08733 0.0
C137 C 0.98189 0.41975 0.05607 0.0
C138 C 1.00341 0.43941 0.03568 0.0
C139 C 0.90663 0.49998 0.02818 0.0
C140 C 0.9018 0.51536 0.03863 0.0
C141 C 0.91304 0.52041 0.05344 0.0
C142 C 0.92861 0.5102 0.05794 0.0
C143 C 0.93308 0.4947 0.04754 0.0
C144 C 0.92224 0.48994 0.03284 0.0
C145 C 0.92919 0.47324 0.02314 0.0
C146 C 0.94578 0.46853 0.03467 0.0
C147 C 0.94799 0.48112 0.04897 0.0
C148 C 0.91429 0.4583 0.0243 0.0
C149 C 0.93455 0.47876 1.00342 0.0
C150 C 0.99439 0.48542 0.10065 0.0
C151 C 0.00913 0.47429 0.10606 0.0
C152 C 0.01304 0.45853 0.09567 0.0
C153 C 1.00262 0.45403 0.08025 0.0
C154 C 0.98798 0.46528 0.07507 0.0
C155 C 0.98401 0.48063 0.08527 0.0
C156 C 0.9676 0.49068 0.07802 0.0
C157 C 0.96251 0.47893 0.06169 0.0
C158 C 0.97455 0.4641 0.06001 0.0
C159 C 0.95262 0.49041 0.09295 0.0
C160 C 0.97373 0.51002 0.07215 0.0
H161 H 0.93761 0.44241 0.99922 0.0
H162 H 0.99006 0.40388 0.01816 0.0
H163 H 1.00388 0.44563 0.02183 0.0
H164 H 0.00962 0.44969 0.04477 0.0
H165 H 0.0122 0.42707 0.03548 0.0
H166 H 0.96863 0.41242 0.05505 0.0
H167 H 0.99294 0.40944 0.05485 0.0
H168 H 0.98203 0.42549 0.07002 0.0
H169 H 0.89848 0.49589 0.01653 0.0
H170 H 0.90959 0.5321 0.0618 0.0
H171 H 0.9365 0.51469 0.06944 0.0
H172 H 0.90768 0.45837 0.03798 0.0
H173 H 0.90347 0.46058 0.01392 0.0
H174 H 0.91974 0.44436 0.02267 0.0
H175 H 0.93945 0.49312 1.00289 0.0
H176 H 0.94603 0.47063 0.99798 0.0
H177 H 0.92272 0.47761 0.99398 0.0
H178 H 0.94531 0.41577 0.9815 0.0
C179 C 0.94903 0.43444 1.00373 0.0
C180 C 0.66622 0.79147 0.26274 0.0
C181 C 0.65293 0.7778 0.26045 0.0
C182 C 0.6548 0.76541 0.24583 0.0
C183 C 0.6825 0.78067 0.23593 0.0
C184 C 0.6808 0.79262 0.25042 0.0
C185 C 0.69605 0.80634 0.25102 0.0
H186 H 0.77326 0.8411 0.21402 0.0
C187 C 0.69905 0.78583 0.2255 0.0
C188 C 0.70705 0.80084 0.23435 0.0
H189 H 0.7452 0.8585 0.26296 0.0
H190 H 0.72258 0.83508 0.2586 0.0
H191 H 0.73705 0.83546 0.18981 0.0
H192 H 0.76953 0.79818 0.22155 0.0
H193 H 0.76367 0.78701 0.20115 0.0
H194 H 0.77721 0.80753 0.20024 0.0
H195 H 0.75903 0.82765 0.18234 0.0
H196 H 0.73845 0.81507 0.17733 0.0
C197 C 0.68761 0.82561 0.24887 0.0
C198 C 0.70688 0.80343 0.26899 0.0
C199 C 0.71608 0.75139 0.16749 0.0
C200 C 0.73014 0.75369 0.1546 0.0
C201 C 0.74315 0.76758 0.15744 0.0
C202 C 0.74212 0.77908 0.17268 0.0
C203 C 0.72789 0.77678 0.18532 0.0
C204 C 0.71517 0.7631 0.18264 0.0
C205 C 0.70082 0.76294 0.19736 0.0
C206 C 0.70703 0.77874 0.20928 0.0
C207 C 0.72293 0.78676 0.20216 0.0
C208 C 0.68208 0.76674 0.1883 0.0
C209 C 0.70201 0.74447 0.20756 0.0
C210 C 0.76216 0.83995 0.22371 0.0
C211 C 0.7611 0.85168 0.2389 0.0
C212 C 0.74652 0.84952 0.25129 0.0
C213 C 0.73331 0.83594 0.24868 0.0
C214 C 0.7346 0.82428 0.2335 0.0
C215 C 0.74886 0.82638 0.22133 0.0
C216 C 0.74809 0.81262 0.20609 0.0
C217 C 0.73108 0.80189 0.21117 0.0
C218 C 0.72321 0.80884 0.2272 0.0
C219 C 0.74566 0.82311 0.18786 0.0
C220 C 0.76554 0.80071 0.2071 0.0
H221 H 0.67003 0.75702 0.22266 0.0
H222 H 0.66539 0.80103 0.27399 0.0
H223 H 0.7069 0.78881 0.27306 0.0
H224 H 0.72147 0.80702 0.2677 0.0
H225 H 0.7008 0.81135 0.28041 0.0
H226 H 0.67612 0.82539 0.23893 0.0
H227 H 0.68217 0.83067 0.26209 0.0
H228 H 0.6973 0.83573 0.24336 0.0
H229 H 0.70577 0.74097 0.16563 0.0
H230 H 0.75426 0.7695 0.14786 0.0
H231 H 0.75245 0.78936 0.174 0.0
H232 H 0.68345 0.7769 0.17709 0.0
H233 H 0.67623 0.75409 0.18234 0.0
H234 H 0.67206 0.77277 0.19779 0.0
H235 H 0.71645 0.73993 0.20885 0.0
H236 H 0.69692 0.74523 0.22173 0.0
H237 H 0.69442 0.73366 0.20013 0.0
H238 H 0.6447 0.75484 0.24366 0.0
C239 C 0.66947 0.76677 0.23358 0.0
C240 C 0.04877 0.91881 0.50877 0.0
C241 C 0.03478 0.90568 0.5077 0.0
C242 C 0.02152 0.90746 0.49379 0.0
C243 C 0.03633 0.93488 0.48251 0.0
C244 C 0.04932 0.93312 0.49609 0.0
C245 C 0.06356 0.94788 0.49518 0.0
H246 H 0.09742 0.02308 0.45346 0.0
C247 C 0.04095 0.95121 0.47149 0.0
C248 C 0.05696 0.95882 0.47886 0.0
H249 H 0.11943 0.99448 0.50022 0.0
H250 H 0.09438 0.97315 0.49918 0.0
H251 H 0.05626 0.02198 0.46634 0.0
H252 H 0.08693 0.98716 0.43047 0.0
H253 H 0.06542 0.99045 0.42038 0.0
H254 H 0.08006 0.00983 0.42428 0.0
H255 H 0.0618 0.02856 0.44341 0.0
H256 H 0.04138 0.01579 0.44862 0.0
C257 C 0.06261 0.95908 0.5131 0.0
C258 C 0.0823 0.93876 0.49155 0.0
C259 C 1.00025 0.97074 0.41831 0.0
C260 C 1.00103 0.98558 0.40608 0.0
C261 C 0.01577 0.99789 0.40741 0.0
C262 C 0.02933 0.99566 0.42069 0.0
C263 C 0.02828 0.98095 0.43293 0.0
C264 C 0.01395 0.96875 0.43163 0.0
C265 C 0.01511 0.95403 0.44598 0.0
C266 C 0.0324 0.95953 0.45613 0.0
C267 C 0.04005 0.97528 0.44834 0.0
C268 C 0.99798 0.95544 0.45827 0.0
C269 C 0.01729 0.93544 0.43618 0.0
C270 C 0.09694 0.01213 0.46338 0.0
C271 C 0.1105 0.01049 0.47692 0.0
C272 C 0.1091 0.99621 0.48976 0.0
C273 C 0.09459 0.98374 0.48906 0.0
C274 C 0.08123 0.98549 0.47536 0.0
C275 C 0.08253 0.99957 0.46288 0.0
C276 C 0.06702 0.99946 0.4494 0.0
C277 C 0.05631 0.98288 0.45571 0.0
C278 C 0.0647 0.97473 0.4709 0.0
C279 C 0.05603 0.01738 0.45186 0.0
C280 C 0.07514 0.99672 0.43005 0.0
H281 H 0.01175 0.92247 0.47099 0.0
H282 H 0.05908 0.91809 0.51935 0.0
H283 H 0.08077 0.92668 0.48247 0.0
H284 H 0.09194 0.94778 0.4843 0.0
H285 H 0.08868 0.93403 0.50447 0.0
H286 H 0.04824 0.96055 0.51779 0.0
H287 H 0.07041 0.95231 0.52421 0.0
H288 H 0.06762 0.97319 0.51149 0.0
H289 H 0.98907 0.9611 0.41775 0.0
H290 H 0.01691 0.00924 0.398 0.0
H291 H 0.04012 0.00554 0.42091 0.0
H292 H 0.99439 0.96996 0.46083 0.0
H293 H 0.98602 0.94882 0.45171 0.0
H294 H 1.00001 0.94944 0.47194 0.0
H295 H 0.02586 0.93687 0.42372 0.0
H296 H 0.02439 0.92517 0.44461 0.0
H297 H 1.00383 0.92993 0.43189 0.0
H298 H 0.01074 0.89746 0.49238 0.0
C299 C 0.0222 0.92195 0.48126 0.0
C300 C 0.26232 0.6724 0.79065 0.0
C301 C 0.26084 0.66002 0.77607 0.0
C302 C 0.24615 0.66191 0.76373 0.0
C303 C 0.23507 0.68834 0.7804 0.0
C304 C 0.24936 0.68631 0.79257 0.0
C305 C 0.24896 0.70033 0.80752 0.0
H306 H 0.20748 0.77173 0.84859 0.0
C307 C 0.22409 0.70427 0.78634 0.0
C308 C 0.23218 0.71127 0.80227 0.0
H309 H 0.25687 0.7436 0.8648 0.0
H310 H 0.25455 0.72404 0.83866 0.0
H311 H 0.1847 0.73596 0.83526 0.0
H312 H 0.21854 0.77445 0.80656 0.0
H313 H 0.20074 0.76854 0.79166 0.0
H314 H 0.19553 0.77982 0.81297 0.0
H315 H 0.17852 0.75944 0.83191 0.0
H316 H 0.17345 0.74237 0.81498 0.0
C317 C 0.24639 0.69021 0.82594 0.0
C318 C 0.26665 0.71188 0.80622 0.0
C319 C 0.16895 0.72483 0.74915 0.0
C320 C 0.15677 0.73959 0.75091 0.0
C321 C 0.15868 0.75144 0.76597 0.0
C322 C 0.17248 0.74874 0.77897 0.0
C323 C 0.18466 0.73407 0.77693 0.0
C324 C 0.18281 0.72242 0.76219 0.0
C325 C 0.19733 0.70786 0.76202 0.0
C326 C 0.20823 0.71277 0.77899 0.0
C327 C 0.20065 0.72807 0.78775 0.0
C328 C 0.18786 0.68908 0.76391 0.0
C329 C 0.20873 0.71011 0.74436 0.0
C330 C 0.21787 0.76144 0.84646 0.0
C331 C 0.23221 0.75909 0.8591 0.0
C332 C 0.24539 0.74547 0.85567 0.0
C333 C 0.2441 0.73415 0.84033 0.0
C334 C 0.22954 0.73641 0.82807 0.0
C335 C 0.21684 0.75002 0.83108 0.0
C336 C 0.20264 0.75069 0.81618 0.0
C337 C 0.2087 0.73496 0.80405 0.0
C338 C 0.22442 0.72664 0.81116 0.0
C339 C 0.18375 0.74705 0.82492 0.0
C340 C 0.20424 0.76934 0.80633 0.0
H341 H 0.22251 0.67677 0.7559 0.0
H342 H 0.27324 0.67117 0.80056 0.0
H343 H 0.27114 0.71336 0.79177 0.0
H344 H 0.2648 0.72602 0.81109 0.0
H345 H 0.27801 0.70542 0.81392 0.0
H346 H 0.23737 0.67811 0.82425 0.0
H347 H 0.25966 0.68531 0.8314 0.0
H348 H 0.23957 0.6986 0.83643 0.0
H349 H 0.16797 0.7156 0.73764 0.0
H350 H 0.14937 0.76278 0.76776 0.0
H351 H 0.17316 0.75822 0.7901 0.0
H352 H 0.17594 0.68996 0.77329 0.0
H353 H 0.1828 0.68414 0.75049 0.0
H354 H 0.1968 0.67858 0.76999 0.0
H355 H 0.21082 0.7248 0.74115 0.0
H356 H 0.2226 0.70436 0.74553 0.0
H357 H 0.20174 0.70376 0.7325 0.0
H358 H 0.24474 0.65263 0.75231 0.0
C359 C 0.2333 0.676 0.76579 0.0
C360 C 0.91356 0.5062 0.48452 0.0
C361 C 0.90994 0.49112 0.47314 0.0
C362 C 0.92088 0.48844 0.45753 0.0
C363 C 0.93901 0.51498 0.46516 0.0
C364 C 0.92812 0.51791 0.48027 0.0
C365 C 0.93406 0.53447 0.49093 0.0
H366 H 0.99378 0.6043 0.50241 0.0
C367 C 0.95325 0.52925 0.46482 0.0
C368 C 0.95044 0.54078 0.47983 0.0
H369 H 0.94652 0.59088 0.53515 0.0
H370 H 0.93981 0.56547 0.51545 0.0
H371 H 0.9739 0.59721 0.46266 0.0
H372 H 0.00755 0.56308 0.49695 0.0
H373 H 0.01432 0.55981 0.47417 0.0
H374 H 0.01674 0.58203 0.48444 0.0
H375 H 0.99774 0.60161 0.46631 0.0
H376 H 0.99009 0.58604 0.44887 0.0
C377 C 0.9183 0.54857 0.49048 0.0
C378 C 0.93963 0.52817 0.51034 0.0
C379 C 1.00162 0.52712 0.41544 0.0
C380 C 0.01736 0.53747 0.41183 0.0
C381 C 0.02126 0.55259 0.42312 0.0
C382 C 0.00984 0.55707 0.4379 0.0
C383 C 0.99435 0.54631 0.44149 0.0
C384 C 0.9905 0.53166 0.43026 0.0
C385 C 0.97379 0.52142 0.43617 0.0
C386 C 0.96817 0.53228 0.45285 0.0
C387 C 0.98018 0.5469 0.45594 0.0
C388 C 0.95941 0.52275 0.42067 0.0
C389 C 0.97964 0.50168 0.44117 0.0
C390 C 0.98189 0.59599 0.50522 0.0
C391 C 0.97074 0.5996 0.52047 0.0
C392 C 0.95552 0.58827 0.52371 0.0
C393 C 0.95157 0.57355 0.51217 0.0
C394 C 0.96292 0.56999 0.49715 0.0
C395 C 0.97775 0.58116 0.4938 0.0
C396 C 0.98831 0.57519 0.47719 0.0
C397 C 0.9773 0.55872 0.47108 0.0
C398 C 0.96247 0.55571 0.48289 0.0
C399 C 0.98766 0.59079 0.46296 0.0
C400 C 0.00782 0.56983 0.48334 0.0
H401 H 0.9431 0.49732 0.44145 0.0
H402 H 0.90547 0.50867 0.49665 0.0
H403 H 0.94696 0.51489 0.50978 0.0
H404 H 0.94921 0.5376 0.51712 0.0
H405 H 0.92746 0.52634 0.51918 0.0
H406 H 0.91072 0.54788 0.47732 0.0
H407 H 0.90836 0.54603 0.50164 0.0
H408 H 0.92315 0.56281 0.49133 0.0
H409 H 0.99796 0.51563 0.40691 0.0
H410 H 0.03335 0.56075 0.42078 0.0
H411 H 0.01362 0.56862 0.44607 0.0
H412 H 0.96035 0.53609 0.41347 0.0
H413 H 0.96144 0.51184 0.41035 0.0
H414 H 0.94522 0.52217 0.42575 0.0
H415 H 0.9936 0.50147 0.44717 0.0
H416 H 0.97092 0.49541 0.45173 0.0
H417 H 0.97979 0.49277 0.42891 0.0
H418 H 0.91818 0.47721 0.44829 0.0
C419 C 0.93532 0.50023 0.45349 0.0
C420 C 0.79316 0.74611 0.84027 0.0
C421 C 0.77802 0.74656 0.85208 0.0
C422 C 0.76473 0.76028 0.84957 0.0
C423 C 0.78165 0.77258 0.82389 0.0
C424 C 0.79469 0.75917 0.82635 0.0
C425 C 0.80996 0.76063 0.81269 0.0
H426 H 0.84715 0.80223 0.73889 0.0
C427 C 0.78726 0.78395 0.80815 0.0
C428 C 0.80384 0.77701 0.80153 0.0
H429 H 0.86889 0.75733 0.77036 0.0
H430 H 0.84279 0.75832 0.79037 0.0
H431 H 0.8353 0.82564 0.77356 0.0
H432 H 0.80406 0.78913 0.7396 0.0
H433 H 0.79104 0.80895 0.74343 0.0
H434 H 0.81253 0.81068 0.73161 0.0
H435 H 0.82807 0.83189 0.75098 0.0
H436 H 0.8136 0.83535 0.77062 0.0
C437 C 0.82793 0.76446 0.82323 0.0
C438 C 0.81015 0.74291 0.80118 0.0
C439 C 0.74756 0.83729 0.7883 0.0
C440 C 0.74907 0.85037 0.77431 0.0
C441 C 0.7642 0.84949 0.76242 0.0
C442 C 0.77754 0.83587 0.76443 0.0
C443 C 0.77584 0.82296 0.77853 0.0
C444 C 0.76102 0.82383 0.79017 0.0
C445 C 0.76146 0.80909 0.80445 0.0
C446 C 0.77904 0.79927 0.79956 0.0
C447 C 0.78742 0.80742 0.78434 0.0
C448 C 0.76262 0.81831 0.82346 0.0
C449 C 0.74449 0.79677 0.80169 0.0
C450 C 0.84613 0.79254 0.75 0.0
C451 C 0.86003 0.77963 0.75304 0.0
C452 C 0.85841 0.76744 0.76783 0.0
C453 C 0.8432 0.76802 0.7794 0.0
C454 C 0.82945 0.78102 0.77631 0.0
C455 C 0.83109 0.7931 0.76189 0.0
C456 C 0.81551 0.80652 0.76129 0.0
C457 C 0.80416 0.80031 0.77753 0.0
C458 C 0.81236 0.78527 0.78617 0.0
C459 C 0.82339 0.82593 0.76412 0.0
C460 C 0.80521 0.80388 0.74301 0.0
H461 H 0.75585 0.78326 0.83441 0.0
H462 H 0.80376 0.73593 0.84192 0.0
H463 H 0.79599 0.73841 0.79801 0.0
H464 H 0.81679 0.7446 0.78777 0.0
H465 H 0.81701 0.73165 0.80867 0.0
H466 H 0.82528 0.77231 0.83596 0.0
H467 H 0.83484 0.75157 0.82719 0.0
H468 H 0.83756 0.77305 0.81542 0.0
H469 H 0.73626 0.83767 0.79783 0.0
H470 H 0.76562 0.85924 0.75139 0.0
H471 H 0.78866 0.83592 0.7549 0.0
H472 H 0.77129 0.83076 0.8229 0.0
H473 H 0.74889 0.82248 0.82835 0.0
H474 H 0.7691 0.80957 0.8339 0.0
H475 H 0.74102 0.7955 0.78695 0.0
H476 H 0.74668 0.78261 0.80635 0.0
H477 H 0.73236 0.8025 0.80877 0.0
H478 H 0.7528 0.76084 0.85829 0.0
C479 C 0.76646 0.77324 0.83559 0.0
C480 C 0.29187 0.25053 0.34169 0.0
C481 C 0.27794 0.253 0.35472 0.0
C482 C 0.26515 0.26714 0.35203 0.0
C483 C 0.28029 0.27615 0.32402 0.0
C484 C 0.2928 0.26224 0.32653 0.0
C485 C 0.30683 0.2617 0.3115 0.0
H486 H 0.34003 0.29752 0.23275 0.0
C487 C 0.28511 0.28596 0.30703 0.0
C488 C 0.30068 0.27757 0.29961 0.0
H489 H 0.36068 0.25115 0.26289 0.0
H490 H 0.337 0.25505 0.28548 0.0
H491 H 0.33218 0.32278 0.26746 0.0
H492 H 0.29818 0.28664 0.23609 0.0
H493 H 0.28482 0.3058 0.24132 0.0
H494 H 0.30516 0.30856 0.22772 0.0
H495 H 0.32439 0.32824 0.24487 0.0
H496 H 0.31098 0.33364 0.2648 0.0
C497 C 0.32584 0.26516 0.3201 0.0
C498 C 0.30504 0.2432 0.30147 0.0
C499 C 0.2465 0.33982 0.28591 0.0
C500 C 0.24753 0.35146 0.27064 0.0
C501 C 0.26183 0.34894 0.25799 0.0
C502 C 0.27477 0.33507 0.26041 0.0
C503 C 0.27349 0.32348 0.27565 0.0
C504 C 0.25955 0.32597 0.2881 0.0
C505 C 0.26035 0.31229 0.30343 0.0
C506 C 0.27704 0.30118 0.29808 0.0
C507 C 0.28467 0.30783 0.28181 0.0
C508 C 0.26336 0.32283 0.32153 0.0
C509 C 0.24265 0.30074 0.30285 0.0
C510 C 0.3394 0.28808 0.24411 0.0
C511 C 0.35231 0.27399 0.24595 0.0
C512 C 0.35108 0.26225 0.2612 0.0
C513 C 0.33722 0.26446 0.27426 0.0
C514 C 0.32438 0.27857 0.27213 0.0
C515 C 0.32564 0.29008 0.25723 0.0
C516 C 0.31082 0.30426 0.25706 0.0
C517 C 0.30041 0.29938 0.27429 0.0
C518 C 0.30839 0.28433 0.28311 0.0
C519 C 0.31992 0.32329 0.25849 0.0
C520 C 0.29913 0.30137 0.23963 0.0
H521 H 0.25607 0.28913 0.33562 0.0
H522 H 0.30202 0.23992 0.3434 0.0
H523 H 0.29048 0.239 0.30045 0.0
H524 H 0.30992 0.24372 0.28722 0.0
H525 H 0.31249 0.23226 0.30886 0.0
H526 H 0.32494 0.27548 0.3312 0.0
H527 H 0.33152 0.25245 0.32609 0.0
H528 H 0.33577 0.27083 0.3103 0.0
H529 H 0.23561 0.34126 0.29581 0.0
H530 H 0.26314 0.35785 0.24627 0.0
H531 H 0.28528 0.33393 0.2503 0.0
H532 H 0.27241 0.33483 0.31935 0.0
H533 H 0.25023 0.32794 0.32712 0.0
H534 H 0.27035 0.31462 0.33207 0.0
H535 H 0.23816 0.2984 0.28852 0.0
H536 H 0.24444 0.28694 0.30862 0.0
H537 H 0.23133 0.30771 0.31013 0.0
H538 H 0.25412 0.26919 0.36165 0.0
C539 C 0.26625 0.27867 0.33681 0.0
C540 C 0.4887 0.91013 0.50834 0.0
C541 C 0.47797 0.90589 0.49294 0.0
C542 C 0.46274 0.91701 0.48896 0.0
C543 C 0.46923 0.93606 0.51529 0.0
C544 C 0.48417 0.92523 0.51916 0.0
C545 C 0.49453 0.93186 0.53562 0.0
H546 H 0.50597 0.99441 0.60266 0.0
C547 C 0.4685 0.95081 0.52909 0.0
C548 C 0.48337 0.94848 0.54096 0.0
H549 H 0.5385 0.94647 0.59118 0.0
H550 H 0.51871 0.93872 0.56625 0.0
H551 H 0.46673 0.97354 0.59719 0.0
H552 H 0.49928 0.00653 0.56091 0.0
H553 H 0.4763 0.01293 0.55827 0.0
H554 H 0.48732 0.01602 0.58008 0.0
H555 H 0.46917 0.99772 0.60017 0.0
H556 H 0.45202 0.98827 0.58525 0.0
C557 C 0.49378 0.91677 0.55044 0.0
C558 C 0.51406 0.9371 0.52938 0.0
C559 C 0.41676 0.99695 0.52736 0.0
C560 C 0.41246 0.01232 0.53803 0.0
C561 C 0.42431 0.01727 0.55239 0.0
C562 C 0.44001 0.00695 0.55622 0.0
C563 C 0.44401 0.99151 0.54554 0.0
C564 C 0.43251 0.98685 0.5313 0.0
C565 C 0.43907 0.97031 0.52108 0.0
C566 C 0.45618 0.96554 0.53176 0.0
C567 C 0.45903 0.97797 0.54611 0.0
C568 C 0.42431 0.95528 0.52274 0.0
C569 C 0.44348 0.97609 0.50119 0.0
C570 C 0.50876 0.98218 0.59485 0.0
C571 C 0.52408 0.97122 0.59883 0.0
C572 C 0.52714 0.95545 0.58822 0.0
C573 C 0.51551 0.95086 0.57376 0.0
C574 C 0.50051 0.96208 0.56974 0.0
C575 C 0.49718 0.97734 0.58031 0.0
C576 C 0.48028 0.98737 0.57416 0.0
C577 C 0.47423 0.97573 0.55804 0.0
C578 C 0.48621 0.96098 0.55553 0.0
C579 C 0.46626 0.98689 0.58997 0.0
C580 C 0.48592 0.0068 0.56812 0.0
H581 H 0.44658 0.93988 0.49621 0.0
H582 H 0.50036 0.90183 0.51202 0.0
H583 H 0.51383 0.94322 0.51547 0.0
H584 H 0.52045 0.9476 0.53809 0.0
H585 H 0.52309 0.92494 0.52888 0.0
H586 H 0.48063 0.9092 0.54983 0.0
H587 H 0.50496 0.9067 0.54858 0.0
H588 H 0.49436 0.92226 0.56448 0.0
H589 H 0.40813 0.99296 0.51603 0.0
H590 H 0.42127 0.02898 0.56088 0.0
H591 H 0.44841 0.01136 0.56738 0.0
H592 H 0.41851 0.955 0.53677 0.0
H593 H 0.4129 0.95776 0.51305 0.0
H594 H 0.42971 0.94142 0.52043 0.0
H595 H 0.44811 0.99053 0.50057 0.0
H596 H 0.45486 0.96821 0.4952 0.0
H597 H 0.43129 0.97481 0.49226 0.0
H598 H 0.45437 0.91434 0.47706 0.0
C599 C 0.4583 0.93198 0.50004 0.0
C600 C 0.16339 0.28972 0.75909 0.0
C601 C 0.1501 0.27604 0.75661 0.0
C602 C 0.15246 0.26331 0.74236 0.0
C603 C 0.18047 0.27821 0.73304 0.0
C604 C 0.17839 0.29056 0.74715 0.0
C605 C 0.19363 0.30437 0.74755 0.0
H606 H 0.27194 0.33711 0.71024 0.0
C607 C 0.19722 0.28299 0.72286 0.0
C608 C 0.20506 0.29832 0.73129 0.0
H609 H 0.24319 0.35743 0.75761 0.0
H610 H 0.22027 0.33403 0.75398 0.0
H611 H 0.23678 0.33076 0.68585 0.0
H612 H 0.26753 0.29424 0.72013 0.0
H613 H 0.26236 0.28256 0.69981 0.0
H614 H 0.27613 0.30291 0.69888 0.0
H615 H 0.25859 0.32191 0.67914 0.0
H616 H 0.2377 0.30972 0.67448 0.0
C617 C 0.18524 0.32354 0.74458 0.0
C618 C 0.20407 0.30215 0.76581 0.0
C619 C 0.21525 0.24583 0.66703 0.0
C620 C 0.22963 0.24724 0.65435 0.0
C621 C 0.24268 0.26121 0.65673 0.0
C622 C 0.2414 0.27351 0.67135 0.0
C623 C 0.22689 0.27197 0.6838 0.0
C624 C 0.21412 0.25829 0.6815 0.0
C625 C 0.19946 0.25888 0.69587 0.0
C626 C 0.20552 0.27518 0.70716 0.0
C627 C 0.22161 0.28276 0.70006 0.0
C628 C 0.18095 0.26237 0.68619 0.0
C629 C 0.20036 0.24089 0.70695 0.0
C630 C 0.26081 0.33642 0.71995 0.0
C631 C 0.25945 0.34916 0.73426 0.0
C632 C 0.24451 0.34793 0.74636 0.0
C633 C 0.23125 0.33425 0.74429 0.0
C634 C 0.23284 0.32162 0.72993 0.0
C635 C 0.24744 0.32288 0.71804 0.0
C636 C 0.24688 0.30845 0.70346 0.0
C637 C 0.22964 0.2982 0.70862 0.0
C638 C 0.22143 0.30595 0.72415 0.0
C639 C 0.24502 0.31807 0.68468 0.0
C640 C 0.26414 0.2964 0.70547 0.0
H641 H 0.1684 0.25421 0.72007 0.0
H642 H 0.16197 0.29978 0.76983 0.0
H643 H 0.20502 0.28752 0.76974 0.0
H644 H 0.21835 0.30689 0.76505 0.0
H645 H 0.19702 0.30948 0.77706 0.0
H646 H 0.17389 0.32295 0.7345 0.0
H647 H 0.17964 0.32909 0.75753 0.0
H648 H 0.19504 0.33342 0.73883 0.0
H649 H 0.20508 0.23518 0.6658 0.0
H650 H 0.25374 0.26287 0.64708 0.0
H651 H 0.25172 0.28385 0.6723 0.0
H652 H 0.18273 0.27145 0.67414 0.0
H653 H 0.17482 0.24941 0.68127 0.0
H654 H 0.17098 0.26953 0.69491 0.0
H655 H 0.21472 0.23615 0.70845 0.0
H656 H 0.19535 0.24241 0.72109 0.0
H657 H 0.19257 0.22985 0.70007 0.0
H658 H 0.14266 0.25243 0.74032 0.0
C659 C 0.1675 0.26431 0.73063 0.0
C660 C 0.75589 0.16568 0.73381 0.0
C661 C 0.74019 0.16205 0.72327 0.0
C662 C 0.73653 0.17311 0.70794 0.0
C663 C 0.76361 0.19109 0.71393 0.0
C664 C 0.76736 0.18024 0.72891 0.0
C665 C 0.78457 0.18612 0.73856 0.0
H666 H 0.85643 0.24444 0.74372 0.0
C667 C 0.7781 0.20503 0.71248 0.0
C668 C 0.79047 0.20224 0.72686 0.0
H669 H 0.84416 0.19897 0.77932 0.0
H670 H 0.81706 0.19237 0.76177 0.0
H671 H 0.81485 0.25922 0.73989 0.0
H672 H 0.84778 0.22351 0.70682 0.0
H673 H 0.83495 0.23708 0.6918 0.0
H674 H 0.85114 0.24776 0.70702 0.0
H675 H 0.83406 0.26709 0.72688 0.0
H676 H 0.81164 0.26537 0.71689 0.0
C677 C 0.77944 0.19206 0.75819 0.0
C678 C 0.79844 0.17021 0.73764 0.0
C679 C 0.77564 0.25126 0.66085 0.0
C680 C 0.78726 0.26553 0.65537 0.0
C681 C 0.80307 0.26909 0.66582 0.0
C682 C 0.80722 0.25862 0.68133 0.0
C683 C 0.79552 0.24433 0.6865 0.0
C684 C 0.78006 0.24086 0.67626 0.0
C685 C 0.76937 0.22492 0.68349 0.0
C686 C 0.78092 0.21941 0.6998 0.0
C687 C 0.79617 0.23086 0.70156 0.0
C688 C 0.75029 0.23195 0.68936 0.0
C689 C 0.76903 0.20991 0.66856 0.0
C690 C 0.84801 0.23296 0.74769 0.0
C691 C 0.85253 0.22225 0.763 0.0
C692 C 0.84094 0.20762 0.76777 0.0
C693 C 0.82524 0.20372 0.75747 0.0
C694 C 0.821 0.21452 0.74217 0.0
C695 C 0.83233 0.22886 0.73753 0.0
C696 C 0.82584 0.23879 0.72076 0.0
C697 C 0.80872 0.22811 0.71612 0.0
C698 C 0.8059 0.2139 0.72871 0.0
C699 C 0.82144 0.25872 0.72621 0.0
C700 C 0.84066 0.23688 0.70577 0.0
H701 H 0.74446 0.19539 0.69143 0.0
H702 H 0.75907 0.15754 0.74574 0.0
H703 H 0.79752 0.16305 0.72427 0.0
H704 H 0.81275 0.17479 0.73862 0.0
H705 H 0.79576 0.16001 0.74854 0.0
H706 H 0.76615 0.19941 0.75828 0.0
H707 H 0.77814 0.18006 0.76736 0.0
H708 H 0.78929 0.20175 0.76419 0.0
H709 H 0.76325 0.24823 0.65336 0.0
H710 H 0.81245 0.27978 0.66183 0.0
H711 H 0.81947 0.26199 0.68862 0.0
H712 H 0.75127 0.24586 0.69537 0.0
H713 H 0.74086 0.23271 0.6775 0.0
H714 H 0.74397 0.22356 0.70016 0.0
H715 H 0.78175 0.21015 0.66026 0.0
H716 H 0.76852 0.19597 0.67426 0.0
H717 H 0.75735 0.21185 0.65907 0.0
H718 H 0.72478 0.17046 0.69936 0.0
C719 C 0.74808 0.18756 0.70325 0.0
C720 C 0.53957 0.59006 0.50082 0.0
C721 C 0.52523 0.60276 0.50179 0.0
C722 C 0.51157 0.6004 0.51513 0.0
C723 C 0.52706 0.57345 0.52668 0.0
C724 C 0.54013 0.57551 0.51321 0.0
C725 C 0.55416 0.56056 0.51361 0.0
H726 H 0.5876 0.48401 0.55302 0.0
C727 C 0.53192 0.55713 0.53761 0.0
C728 C 0.5477 0.54945 0.52985 0.0
H729 H 0.60715 0.51155 0.50459 0.0
H730 H 0.5836 0.53428 0.50775 0.0
H731 H 0.58133 0.5191 0.57625 0.0
H732 H 0.54434 0.4877 0.54328 0.0
H733 H 0.53315 0.49291 0.56388 0.0
H734 H 0.55385 0.47965 0.56441 0.0
H735 H 0.5713 0.49835 0.58444 0.0
H736 H 0.56017 0.52014 0.58738 0.0
C737 C 0.57307 0.56933 0.51713 0.0
C738 C 0.55276 0.5497 0.49547 0.0
C739 C 0.49532 0.54046 0.59451 0.0
C740 C 0.49779 0.52701 0.60802 0.0
C741 C 0.51221 0.51442 0.60614 0.0
C742 C 0.52408 0.51525 0.5912 0.0
C743 C 0.52167 0.52891 0.57796 0.0
C744 C 0.50752 0.54127 0.57972 0.0
C745 C 0.50759 0.55524 0.5646 0.0
C746 C 0.52413 0.54923 0.55356 0.0
C747 C 0.5322 0.53371 0.56143 0.0
C748 C 0.51039 0.57428 0.5733 0.0
C749 C 0.48965 0.55325 0.5536 0.0
C750 C 0.5867 0.49483 0.54299 0.0
C751 C 0.5993 0.49593 0.52852 0.0
C752 C 0.59779 0.51047 0.51598 0.0
C753 C 0.58399 0.52361 0.51776 0.0
C754 C 0.57148 0.52228 0.53225 0.0
C755 C 0.57298 0.50807 0.54456 0.0
C756 C 0.55856 0.50891 0.55916 0.0
C757 C 0.54793 0.52573 0.55335 0.0
C758 C 0.5556 0.53354 0.53763 0.0
C759 C 0.5682 0.51164 0.57785 0.0
C760 C 0.54685 0.49137 0.55781 0.0
H761 H 0.50174 0.58489 0.53756 0.0
H762 H 0.55007 0.59133 0.49048 0.0
H763 H 0.5386 0.54991 0.48998 0.0
H764 H 0.55593 0.53506 0.49718 0.0
H765 H 0.56185 0.55556 0.48484 0.0
H766 H 0.57199 0.58044 0.52743 0.0
H767 H 0.57872 0.57535 0.50441 0.0
H768 H 0.58312 0.55966 0.52283 0.0
H769 H 0.48446 0.55042 0.5957 0.0
H770 H 0.51426 0.50385 0.61628 0.0
H771 H 0.53475 0.50527 0.59062 0.0
H772 H 0.52068 0.57361 0.58446 0.0
H773 H 0.49745 0.57948 0.57925 0.0
H774 H 0.51571 0.58448 0.56362 0.0
H775 H 0.48539 0.5387 0.55277 0.0
H776 H 0.49105 0.55769 0.53925 0.0
H777 H 0.47836 0.56098 0.56012 0.0
H778 H 0.50039 0.61002 0.5161 0.0
C779 C 0.51244 0.58586 0.52761 0.0
C780 C 0.54412 0.41319 0.00828 0.0
C781 C 0.5291 0.40127 0.00838 0.0
C782 C 0.51456 0.4045 0.99617 0.0
C783 C 0.53036 0.43086 0.98376 0.0
C784 C 0.5444 0.42788 0.99602 0.0
C785 C 0.5592 0.442 0.99448 0.0
H786 H 0.59292 0.5181 0.95437 0.0
C787 C 0.53506 0.44717 0.97275 0.0
C788 C 0.55188 0.45382 0.97909 0.0
H789 H 0.61638 0.48627 0.99821 0.0
H790 H 0.59093 0.46555 0.99714 0.0
H791 H 0.55028 0.51603 0.96856 0.0
H792 H 0.58122 0.48375 0.93035 0.0
H793 H 0.55914 0.48616 0.92137 0.0
H794 H 0.5731 0.50616 0.92473 0.0
H795 H 0.55806 0.52472 0.94699 0.0
H796 H 0.53684 0.51246 0.94893 0.0
C797 C 0.56014 0.45254 0.01282 0.0
C798 C 0.57714 0.43219 0.98904 0.0
C799 C 0.49345 0.46722 0.92076 0.0
C800 C 0.49447 0.48138 0.9078 0.0
C801 C 0.50936 0.49356 0.90859 0.0
C802 C 0.52299 0.49165 0.92195 0.0
C803 C 0.52185 0.47735 0.93469 0.0
C804 C 0.50723 0.46544 0.93397 0.0
C805 C 0.50833 0.45095 0.9485 0.0
C806 C 0.5261 0.45599 0.95794 0.0
C807 C 0.53395 0.47152 0.94983 0.0
C808 C 0.49168 0.45315 0.96135 0.0
C809 C 0.50954 0.43215 0.93893 0.0
C810 C 0.59243 0.50673 0.96381 0.0
C811 C 0.60668 0.50381 0.9764 0.0
C812 C 0.60568 0.48871 0.98828 0.0
C813 C 0.59082 0.47673 0.98769 0.0
C814 C 0.57673 0.47972 0.97501 0.0
C815 C 0.57769 0.49447 0.96328 0.0
C816 C 0.56168 0.49504 0.95033 0.0
C817 C 0.55083 0.47846 0.95652 0.0
C818 C 0.55973 0.4696 0.97102 0.0
C819 C 0.55113 0.51302 0.95369 0.0
C820 C 0.56903 0.4928 0.93061 0.0
H821 H 0.50373 0.42078 0.97477 0.0
H822 H 0.55537 0.41125 0.01769 0.0
H823 H 0.57433 0.42055 0.9797 0.0
H824 H 0.58661 0.44104 0.98135 0.0
H825 H 0.58429 0.42669 1.00124 0.0
H826 H 0.54635 0.45389 0.01904 0.0
H827 H 0.56899 0.44535 0.02284 0.0
H828 H 0.565 0.46671 0.01123 0.0
H829 H 0.48233 0.4575 0.92047 0.0
H830 H 0.51039 0.50473 0.89896 0.0
H831 H 0.53391 0.5014 0.92182 0.0
H832 H 0.48767 0.46774 0.96264 0.0
H833 H 0.47966 0.44556 0.95608 0.0
H834 H 0.49457 0.44872 0.97548 0.0
H835 H 0.5186 0.43291 0.92676 0.0
H836 H 0.51555 0.42145 0.94766 0.0
H837 H 0.49588 0.42755 0.93423 0.0
H838 H 0.50287 0.39546 0.99594 0.0
C839 C 0.51513 0.41917 0.98383 0.0
C840 C 0.76668 0.17094 0.29153 0.0
C841 C 0.76549 0.15749 0.27786 0.0
C842 C 0.7509 0.15826 0.2653 0.0
C843 C 0.73916 0.1855 0.27999 0.0
C844 C 0.75338 0.18469 0.29239 0.0
C845 C 0.75244 0.19981 0.30627 0.0
H846 H 0.70871 0.27402 0.33986 0.0
C847 C 0.72767 0.20144 0.28469 0.0
C848 C 0.73534 0.20983 0.30015 0.0
H849 H 0.75861 0.24923 0.35951 0.0
H850 H 0.7568 0.22648 0.33586 0.0
H851 H 0.68714 0.2369 0.33176 0.0
H852 H 0.71967 0.27185 0.29756 0.0
H853 H 0.70084 0.26485 0.2845 0.0
H854 H 0.69717 0.27805 0.30497 0.0
H855 H 0.67938 0.25888 0.32423 0.0
H856 H 0.67592 0.23867 0.31061 0.0
C857 C 0.75008 0.19108 0.32539 0.0
C858 C 0.76977 0.21175 0.30419 0.0
C859 C 0.67251 0.21736 0.2454 0.0
C860 C 0.65925 0.23123 0.24645 0.0
C861 C 0.66012 0.2438 0.26101 0.0
C862 C 0.67399 0.2427 0.27417 0.0
C863 C 0.68721 0.22887 0.27285 0.0
C864 C 0.68627 0.21642 0.25871 0.0
C865 C 0.70132 0.20246 0.2597 0.0
C866 C 0.71163 0.20879 0.27657 0.0
C867 C 0.70331 0.22429 0.28419 0.0
C868 C 0.69253 0.18344 0.26251 0.0
C869 C 0.71303 0.20418 0.24218 0.0
C870 C 0.71935 0.2638 0.33902 0.0
C871 C 0.73378 0.26347 0.35174 0.0
C872 C 0.74716 0.2497 0.35016 0.0
C873 C 0.74616 0.23653 0.3363 0.0
C874 C 0.73167 0.23708 0.32372 0.0
C875 C 0.71862 0.25061 0.32518 0.0
C876 C 0.70438 0.2493 0.31041 0.0
C877 C 0.71098 0.23269 0.29992 0.0
C878 C 0.72694 0.22555 0.3078 0.0
C879 C 0.68564 0.24588 0.31959 0.0
C880 C 0.70535 0.26692 0.29874 0.0
H881 H 0.72709 0.17201 0.25625 0.0
H882 H 0.77758 0.17064 0.30153 0.0
H883 H 0.77401 0.21266 0.28963 0.0
H884 H 0.7676 0.22603 0.30846 0.0
H885 H 0.78139 0.20594 0.31202 0.0
H886 H 0.74106 0.17889 0.32466 0.0
H887 H 0.76342 0.18662 0.33106 0.0
H888 H 0.74338 0.20025 0.33529 0.0
H889 H 0.67209 0.20732 0.23456 0.0
H890 H 0.65021 0.25472 0.26206 0.0
H891 H 0.67391 0.25274 0.28482 0.0
H892 H 0.67975 0.18447 0.27066 0.0
H893 H 0.68898 0.17703 0.24922 0.0
H894 H 0.70131 0.17403 0.27038 0.0
H895 H 0.71489 0.21876 0.23839 0.0
H896 H 0.72698 0.19875 0.24384 0.0
H897 H 0.70638 0.19719 0.23048 0.0
H898 H 0.74976 0.1482 0.25453 0.0
C899 C 0.73778 0.17217 0.26627 0.0
C900 C 0.41493 1.00346 0.98313 0.0
C901 C 0.41263 0.98704 0.97347 0.0
C902 C 0.42522 0.98246 0.95967 0.0
C903 C 0.44198 0.01042 0.96526 0.0
C904 C 0.42973 0.01482 0.97892 0.0
C905 C 0.43463 0.0324 0.98834 0.0
H906 H 0.49098 0.10522 0.99642 0.0
C907 C 0.45588 0.02504 0.9644 0.0
C908 C 0.45174 0.03789 0.97798 0.0
H909 H 0.44354 0.09181 0.02895 0.0
H910 H 0.43868 0.06475 0.01109 0.0
H911 H 0.47339 0.09374 0.95723 0.0
H912 H 0.50718 0.06427 0.99542 0.0
H913 H 0.51505 0.0594 0.97328 0.0
H914 H 0.51595 0.08253 0.98164 0.0
H915 H 0.49696 0.09931 0.96098 0.0
H916 H 0.49026 0.08201 0.94483 0.0
C917 C 0.41881 0.04609 0.98526 0.0
C918 C 0.43871 0.0281 0.00869 0.0
C919 C 0.50576 0.0219 0.91641 0.0
C920 C 0.5208 0.03308 0.91221 0.0
C921 C 0.5237 0.04897 0.92272 0.0
C922 C 0.51187 0.05359 0.93709 0.0
C923 C 0.49695 0.04222 0.9411 0.0
C924 C 0.49417 0.02665 0.93084 0.0
C925 C 0.47787 0.01594 0.93717 0.0
C926 C 0.4712 0.02771 0.95284 0.0
C927 C 0.48236 0.04313 0.95509 0.0
C928 C 0.46388 0.01527 0.9213 0.0
C929 C 0.48456 0.99697 0.94381 0.0
C930 C 0.47962 0.09639 0.99978 0.0
C931 C 0.46757 0.10083 0.01411 0.0
C932 C 0.45286 0.08898 0.01782 0.0
C933 C 0.45011 0.07314 0.0075 0.0
C934 C 0.46222 0.06892 0.99325 0.0
C935 C 0.4767 0.08044 0.98959 0.0
C936 C 0.48821 0.07361 0.97397 0.0
C937 C 0.47828 0.0561 0.96895 0.0
C938 C 0.46304 0.05347 0.9803 0.0
C939 C 0.48735 0.08788 0.9584 0.0
C940 C 0.50769 0.06983 0.98128 0.0
H941 H 0.44884 0.98984 0.94476 0.0
H942 H 0.4056 0.0072 0.99398 0.0
H943 H 0.44468 0.01423 0.01026 0.0
H944 H 0.449 0.03733 0.0147 0.0
H945 H 0.42608 0.02862 0.01704 0.0
H946 H 0.41322 0.04479 0.97119 0.0
H947 H 0.40746 0.04357 0.99498 0.0
H948 H 0.42314 0.06046 0.98641 0.0
H949 H 0.50291 0.00973 0.90854 0.0
H950 H 0.53528 0.05773 0.92003 0.0
H951 H 0.51485 0.06582 0.94458 0.0
H952 H 0.46325 0.02864 0.91413 0.0
H953 H 0.46773 0.00475 0.91109 0.0
H954 H 0.4498 0.01263 0.92593 0.0
H955 H 0.49875 0.99769 0.9492 0.0
H956 H 0.47644 0.99161 0.95533 0.0
H957 H 0.48447 0.98687 0.9325 0.0
H958 H 0.42364 0.96994 0.95197 0.0
C959 C 0.43981 0.99408 0.95547 0.0
Li960 Li 0.27043 0.89372 1.0032 0.0
Li961 Li 0.25761 0.87018 0.02339 0.0
Li962 Li 0.25104 0.87009 0.99042 0.0
Li963 Li 0.23758 0.89325 0.01097 0.0
C964 C 0.2931 0.86562 1.00003 0.0
N965 N 0.33044 0.86432 0.99493 0.0
C966 C 0.30466 0.86166 0.01471 0.0
C967 C 0.30052 0.86881 0.98274 0.0
C968 C 0.3235 0.86108 0.01184 0.0
C969 C 0.31943 0.86814 0.98045 0.0
C970 C 0.25431 0.91121 0.03818 0.0
C971 C 0.2353 0.92485 0.06135 0.0
N972 N 0.24418 0.94097 0.059 0.0
C973 C 0.26327 0.92791 0.03602 0.0
C974 C 0.24025 0.90964 0.05099 0.0
C975 C 0.25794 0.94279 0.04668 0.0
C976 C 0.28993 0.92136 0.98466 0.0
N977 N 0.29081 0.90936 0.99879 0.0
C978 C 0.32045 0.9203 0.00703 0.0
C979 C 0.30556 0.90879 0.01007 0.0
C980 C 0.31992 0.93281 0.99252 0.0
C981 C 0.30438 0.93332 0.98129 0.0
H982 H 0.27792 0.92178 0.97609 0.0
H983 H 0.30568 0.89951 0.02154 0.0
C984 C 0.26899 0.83783 0.04152 0.0
N985 N 0.26267 0.85508 0.04412 0.0
C986 C 0.27338 0.82682 0.0565 0.0
C987 C 0.26435 0.85141 0.07652 0.0
C988 C 0.26029 0.86197 0.06117 0.0
C989 C 0.27116 0.8336 0.07435 0.0
H990 H 0.27086 0.83273 0.02779 0.0
H991 H 0.25534 0.87571 0.0629 0.0
C992 C 0.24354 0.89893 0.96933 0.0
N993 N 0.23146 0.9016 0.93367 0.0
C994 C 0.22537 0.9035 0.96567 0.0
C995 C 0.2556 0.8959 0.95486 0.0
C996 C 0.21952 0.90475 0.94755 0.0
C997 C 0.24921 0.89724 0.93693 0.0
C998 C 0.22742 0.852 0.02044 0.0
C999 C 0.23045 0.83439 0.0138 0.0
C1000 C 0.2188 0.85443 0.03728 0.0
C1001 C 0.22488 0.81944 0.02423 0.0
C1002 C 0.21347 0.83912 0.04731 0.0
N1003 N 0.2166 0.82209 0.04064 0.0
C1004 C 0.25965 0.84331 0.96379 0.0
C1005 C 0.23004 0.85601 0.96091 0.0
C1006 C 0.2567 0.83225 0.94853 0.0
N1007 N 0.24646 0.85501 0.96956 0.0
C1008 C 0.22662 0.84542 0.94541 0.0
C1009 C 0.24006 0.83333 0.93906 0.0
H1010 H 0.27246 0.84252 0.97108 0.0
H1011 H 0.2196 0.86507 0.96605 0.0
C1012 C 0.21849 0.9266 0.01511 0.0
N1013 N 0.21657 0.90817 0.01495 0.0
C1014 C 0.20343 0.93783 0.01823 0.0
C1015 C 0.18441 0.91097 0.01977 0.0
C1016 C 0.19996 0.90023 0.0171 0.0
C1017 C 0.18598 0.93011 0.02051 0.0
H1018 H 0.23179 0.9326 0.01296 0.0
H1019 H 0.19874 0.88554 0.01651 0.0
O1020 O 0.27463 0.86644 1.00259 0.0
O1021 O 0.25929 0.8965 0.02781 0.0
O1022 O 0.24947 0.89742 0.98697 0.0
O1023 O 0.23325 0.86679 0.0107 0.0
H1024 H 0.29917 0.85929 0.02821 0.0
H1025 H 0.29177 0.87189 0.97125 0.0
H1026 H 0.33261 0.85812 0.02309 0.0
H1027 H 0.32536 0.87067 0.96717 0.0
H1028 H 0.22436 0.92386 0.07121 0.0
H1029 H 0.27416 0.9294 0.02618 0.0
H1030 H 0.23298 0.8969 0.05266 0.0
H1031 H 0.26473 0.9558 0.04512 0.0
H1032 H 0.33209 0.91969 0.01614 0.0
H1033 H 0.30348 0.94276 0.96995 0.0
H1034 H 0.2788 0.8133 0.05408 0.0
H1035 H 0.26209 0.85716 0.08995 0.0
H1036 H 0.21586 0.9059 0.9767 0.0
H1037 H 0.26971 0.8924 0.95746 0.0
H1038 H 0.20549 0.90818 0.94451 0.0
H1039 H 0.25836 0.89481 0.9256 0.0
H1040 H 0.2372 0.83231 1.00082 0.0
H1041 H 0.21646 0.86799 0.04264 0.0
H1042 H 0.22721 0.80572 0.01931 0.0
H1043 H 0.20688 0.84078 0.06043 0.0
H1044 H 0.26742 0.82311 0.94405 0.0
H1045 H 0.21352 0.84646 0.93863 0.0
H1046 H 0.20558 0.95241 0.01898 0.0
H1047 H 0.1713 0.90428 0.02095 0.0
Li1048 Li 0.11784 0.50718 0.27367 0.0
Li1049 Li 0.13964 0.48673 0.26062 0.0
Li1050 Li 0.14168 0.51908 0.2541 0.0
Li1051 Li 0.11707 0.49934 0.2396 0.0
C1052 C 0.14577 0.51142 0.29585 0.0
N1053 N 0.14721 0.52082 0.33239 0.0
C1054 C 0.14811 0.49795 0.30917 0.0
C1055 C 0.14428 0.52968 0.30113 0.0
C1056 C 0.14879 0.50297 0.32757 0.0
C1057 C 0.14499 0.53415 0.31966 0.0
C1058 C 0.11046 0.4653 0.26487 0.0
C1059 C 0.10149 0.43508 0.25545 0.0
N1060 N 0.1065 0.42852 0.27209 0.0
C1061 C 0.11545 0.45827 0.28191 0.0
C1062 C 0.10338 0.45363 0.25153 0.0
C1063 C 0.11339 0.43963 0.28528 0.0
C1064 C 0.09169 0.52827 0.29284 0.0
N1065 N 0.10249 0.51324 0.29411 0.0
C1066 C 0.09244 0.50806 0.32477 0.0
C1067 C 0.10276 0.50297 0.30957 0.0
C1068 C 0.08132 0.52369 0.32398 0.0
C1069 C 0.08094 0.53374 0.30762 0.0
H1070 H 0.09137 0.53604 0.28031 0.0
H1071 H 0.1112 0.49094 0.31028 0.0
C1072 C 0.16958 0.46763 0.2757 0.0
N1073 N 0.15495 0.46559 0.26445 0.0
C1074 C 0.18144 0.45306 0.2789 0.0
C1075 C 0.16344 0.43465 0.25833 0.0
C1076 C 0.15191 0.44958 0.25554 0.0
C1077 C 0.17841 0.43623 0.27024 0.0
H1078 H 0.17223 0.48069 0.28199 0.0
H1079 H 0.14065 0.44843 0.2461 0.0
C1080 C 0.11322 0.54123 0.24612 0.0
N1081 N 0.1108 0.57672 0.23362 0.0
C1082 C 0.10805 0.54473 0.22808 0.0
C1083 C 0.11693 0.55579 0.25787 0.0
C1084 C 0.10695 0.56277 0.222 0.0
C1085 C 0.1157 0.57363 0.25127 0.0
C1086 C 0.15758 0.48865 0.22933 0.0
C1087 C 0.17556 0.49218 0.23465 0.0
C1088 C 0.15389 0.47437 0.21725 0.0
C1089 C 0.18959 0.48117 0.22791 0.0
C1090 C 0.16831 0.46369 0.21079 0.0
N1091 N 0.1857 0.46727 0.21623 0.0
C1092 C 0.17152 0.54215 0.262 0.0
C1093 C 0.15673 0.54883 0.234 0.0
C1094 C 0.18386 0.55641 0.25927 0.0
N1095 N 0.15812 0.53882 0.24958 0.0
C1096 C 0.16864 0.56336 0.23082 0.0
C1097 C 0.18241 0.56732 0.24358 0.0
H1098 H 0.1727 0.53367 0.27401 0.0
H1099 H 0.1464 0.54549 0.224 0.0
C1100 C 0.08473 0.49018 0.2202 0.0
N1101 N 0.10237 0.49562 0.21843 0.0
C1102 C 0.07397 0.48712 0.20471 0.0
C1103 C 0.09961 0.49582 0.18588 0.0
C1104 C 0.1099 0.49853 0.20173 0.0
C1105 C 0.08138 0.48988 0.18719 0.0
H1106 H 0.07908 0.48801 0.23368 0.0
H1107 H 0.12392 0.50305 0.20073 0.0
O1108 O 0.14485 0.50677 0.27776 0.0
O1109 O 0.11239 0.48351 0.26128 0.0
O1110 O 0.11452 0.52364 0.25226 0.0
O1111 O 0.14363 0.49893 0.23619 0.0
H1112 H 0.14906 0.48372 0.30542 0.0
H1113 H 0.14257 0.54029 0.29104 0.0
H1114 H 0.15047 0.49267 0.33802 0.0
H1115 H 0.14378 0.54823 0.32393 0.0
H1116 H 0.0961 0.42588 0.24523 0.0
H1117 H 0.12121 0.46703 0.29227 0.0
H1118 H 0.09956 0.4588 0.23824 0.0
H1119 H 0.11733 0.43399 0.29835 0.0
H1120 H 0.09341 0.49994 0.33708 0.0
H1121 H 0.0723 0.54563 0.30614 0.0
H1122 H 0.19308 0.45508 0.28781 0.0
H1123 H 0.16058 0.42196 0.25132 0.0
H1124 H 0.105 0.53366 0.21882 0.0
H1125 H 0.12075 0.55336 0.27191 0.0
H1126 H 0.10306 0.56567 0.20805 0.0
H1127 H 0.11865 0.58502 0.26019 0.0
H1128 H 0.17859 0.50315 0.24407 0.0
H1129 H 0.14002 0.47141 0.21311 0.0
H1130 H 0.20356 0.48365 0.232 0.0
H1131 H 0.16566 0.45251 0.20153 0.0
H1132 H 0.1943 0.55899 0.26943 0.0
H1133 H 0.16729 0.57122 0.21836 0.0
H1134 H 0.06012 0.48231 0.20647 0.0
H1135 H 0.10586 0.4985 0.17276 0.0
Li1136 Li 0.73267 0.61944 1.00196 0.0
Li1137 Li 0.74597 0.64191 0.02333 0.0
Li1138 Li 0.75212 0.64341 0.98919 0.0
Li1139 Li 0.76682 0.61996 0.00847 0.0
C1140 C 0.71059 0.64929 0.99952 0.0
N1141 N 0.67382 0.65476 0.99305 0.0
C1142 C 0.69906 0.65469 0.01373 0.0
C1143 C 0.70346 0.64695 0.98197 0.0
C1144 C 0.6805 0.65733 0.0102 0.0
C1145 C 0.68483 0.6497 0.97899 0.0
C1146 C 0.74377 0.60998 0.04323 0.0
C1147 C 0.75584 0.6064 0.07369 0.0
N1148 N 0.73921 0.60056 0.0795 0.0
C1149 C 0.72687 0.60372 0.04946 0.0
C1150 C 0.75843 0.61114 0.05539 0.0
C1151 C 0.72481 0.59911 0.06786 0.0
C1152 C 0.71338 0.59078 0.98436 0.0
N1153 N 0.71191 0.60409 0.99721 0.0
C1154 C 0.68089 0.59565 1.00307 0.0
C1155 C 0.69611 0.60658 0.00664 0.0
C1156 C 0.68197 0.58183 0.98981 0.0
C1157 C 0.69853 0.57944 0.98044 0.0
H1158 H 0.72612 0.58892 0.97717 0.0
H1159 H 0.69533 0.61696 0.01707 0.0
C1160 C 0.75278 0.67125 0.04737 0.0
N1161 N 0.74204 0.65632 0.04491 0.0
C1162 C 0.75063 0.68227 0.06278 0.0
C1163 C 0.72607 0.6627 0.07271 0.0
C1164 C 0.72874 0.652 0.05712 0.0
C1165 C 0.73712 0.67809 0.07575 0.0
H1166 H 0.76302 0.67466 0.03733 0.0
H1167 H 0.71999 0.64043 0.05464 0.0
C1168 C 0.75739 0.61465 0.9666 0.0
N1169 N 0.765 0.61124 0.92979 0.0
C1170 C 0.775 0.61011 0.96084 0.0
C1171 C 0.74359 0.61716 0.95366 0.0
C1172 C 0.77859 0.60852 0.94216 0.0
C1173 C 0.74772 0.61547 0.93511 0.0
C1174 C 0.78656 0.65163 0.015 0.0
C1175 C 0.79842 0.65938 1.00222 0.0
C1176 C 0.79255 0.64881 0.0329 0.0
C1177 C 0.81621 0.6638 0.00748 0.0
C1178 C 0.81044 0.65341 0.03764 0.0
N1179 N 0.82181 0.66072 0.02493 0.0
C1180 C 0.74296 0.67325 0.9666 0.0
C1181 C 0.77027 0.65836 0.95785 0.0
C1182 C 0.74495 0.6859 0.95248 0.0
N1183 N 0.75549 0.65979 0.96901 0.0
C1184 C 0.77281 0.67074 0.94354 0.0
C1185 C 0.76009 0.68484 0.94075 0.0
H1186 H 0.73147 0.67431 0.97578 0.0
H1187 H 0.7803 0.64783 0.96026 0.0
C1188 C 0.78733 0.59016 0.02248 0.0
N1189 N 0.78842 0.60551 0.0121 0.0
C1190 C 0.80294 0.57975 0.02602 0.0
C1191 C 0.82046 0.60086 0.00777 0.0
C1192 C 0.80451 0.61079 1.00451 0.0
C1193 C 0.81985 0.58516 0.01877 0.0
H1194 H 0.77434 0.58607 0.02816 0.0
H1195 H 0.80499 0.62271 0.99586 0.0
O1196 O 0.72877 0.64647 1.00277 0.0
O1197 O 0.746 0.61465 0.02527 0.0
O1198 O 0.75366 0.61641 0.98482 0.0
O1199 O 0.76914 0.64705 0.01002 0.0
H1200 H 0.70436 0.65675 0.02735 0.0
H1201 H 0.71222 0.64308 0.97076 0.0
H1202 H 0.67141 0.6614 0.02109 0.0
H1203 H 0.67912 0.64783 0.96549 0.0
H1204 H 0.76706 0.60731 0.08325 0.0
H1205 H 0.71543 0.60252 0.04022 0.0
H1206 H 0.77172 0.61549 0.05074 0.0
H1207 H 0.71176 0.59437 0.07288 0.0
H1208 H 0.66851 0.59778 0.01085 0.0
H1209 H 0.69996 0.56901 0.97006 0.0
H1210 H 0.75961 0.69387 0.06457 0.0
H1211 H 0.71524 0.65913 0.0821 0.0
H1212 H 0.7858 0.60792 0.97065 0.0
H1213 H 0.72983 0.62034 0.95788 0.0
H1214 H 0.79218 0.60513 0.93751 0.0
H1215 H 0.73719 0.61748 0.92495 0.0
H1216 H 0.79399 0.66186 0.98836 0.0
H1217 H 0.78344 0.64327 0.04307 0.0
H1218 H 0.82557 0.66968 0.99769 0.0
H1219 H 0.81525 0.65122 0.05143 0.0
H1220 H 0.73469 0.6964 0.95077 0.0
H1221 H 0.78485 0.66955 0.93505 0.0
H1222 H 0.80183 0.56779 0.03463 0.0
H1223 H 0.83312 0.60534 1.0016 0.0
Li1224 Li 0.869 0.0196 0.25816 0.0
Li1225 Li 0.89232 0.99934 0.2718 0.0
Li1226 Li 0.89265 0.0066 0.23783 0.0
Li1227 Li 0.86984 0.98572 0.25127 0.0
C1228 C 0.8998 0.04133 0.26177 0.0
N1229 N 0.90736 0.0779 0.26697 0.0
C1230 C 0.90497 0.04771 0.279 0.0
C1231 C 0.89879 0.05351 0.24711 0.0
C1232 C 0.90865 0.06625 0.28137 0.0
C1233 C 0.90258 0.07195 0.25003 0.0
C1234 C 0.86237 0.99553 0.29307 0.0
C1235 C 0.86237 0.97555 0.31925 0.0
N1236 N 0.85695 0.98971 0.32996 0.0
C1237 C 0.85664 0.00983 0.3043 0.0
C1238 C 0.86511 0.9782 0.30056 0.0
C1239 C 0.85402 0.00663 0.32293 0.0
C1240 C 0.83734 0.04002 0.25128 0.0
N1241 N 0.85271 0.03989 0.26169 0.0
C1242 C 0.84334 0.06745 0.27658 0.0
C1243 C 0.85585 0.0532 0.27427 0.0
C1244 C 0.82738 0.06799 0.2659 0.0
C1245 C 0.82455 0.05403 0.25305 0.0
H1246 H 0.83493 0.02914 0.24163 0.0
H1247 H 0.86784 0.05258 0.28281 0.0
C1248 C 0.92112 0.98227 0.2911 0.0
N1249 N 0.90751 0.99478 0.29279 0.0
C1250 C 0.9326 0.97837 0.30586 0.0
C1251 C 0.916 1.00039 0.32389 0.0
C1252 C 0.90486 1.00388 0.30876 0.0
C1253 C 0.93015 0.98748 0.32258 0.0
H1254 H 0.9232 0.97541 0.27821 0.0
H1255 H 0.89414 0.01394 0.30978 0.0
C1256 C 0.86124 0.01231 0.21726 0.0
N1257 N 0.85238 0.02385 0.18242 0.0
C1258 C 0.85489 0.99982 0.20431 0.0
C1259 C 0.86279 0.03072 0.21257 0.0
C1260 C 0.85056 0.0059 0.18675 0.0
C1261 C 0.85833 0.03628 0.19487 0.0
C1262 C 0.89959 0.96488 0.24653 0.0
C1263 C 0.90539 0.95967 0.22911 0.0
C1264 C 0.89651 0.95155 0.25983 0.0
C1265 C 0.90769 0.94117 0.22519 0.0
C1266 C 0.89895 0.93319 0.25537 0.0
N1267 N 0.90442 0.92842 0.23828 0.0
C1268 C 0.92273 0.02215 0.21896 0.0
C1269 C 0.90361 1.00376 0.2005 0.0
C1270 C 0.93399 0.02596 0.20403 0.0
N1271 N 0.90777 0.01135 0.21693 0.0
C1272 C 0.91446 0.00724 0.1852 0.0
C1273 C 0.9299 0.0185 0.18682 0.0
H1274 H 0.92594 0.02781 0.23222 0.0
H1275 H 0.892 0.99477 0.1993 0.0
C1276 C 0.8414 0.96088 0.25902 0.0
N1277 N 0.85479 0.96477 0.24679 0.0
C1278 C 0.82974 0.94606 0.25619 0.0
C1279 C 0.84579 0.93949 0.22815 0.0
C1280 C 0.85712 0.95447 0.23151 0.0
C1281 C 0.83182 0.93512 0.24055 0.0
H1282 H 0.83956 0.96946 0.27087 0.0
H1283 H 0.86766 0.95798 0.22182 0.0
O1284 O 0.8961 0.02321 0.25921 0.0
O1285 O 0.86513 0.99845 0.27482 0.0
O1286 O 0.86566 0.00656 0.23449 0.0
O1287 O 0.89706 0.98292 0.25057 0.0
H1288 H 0.90603 0.03847 0.29045 0.0
H1289 H 0.8953 0.04876 0.23359 0.0
H1290 H 0.91254 0.07139 0.29467 0.0
H1291 H 0.90178 0.08153 0.23882 0.0
H1292 H 0.86454 0.96224 0.32524 0.0
H1293 H 0.85432 0.02328 0.29873 0.0
H1294 H 0.86929 0.96693 0.29204 0.0
H1295 H 0.84969 0.01761 0.3318 0.0
H1296 H 0.84596 0.07769 0.28691 0.0
H1297 H 0.8126 0.05391 0.24435 0.0
H1298 H 0.94351 0.96857 0.30406 0.0
H1299 H 0.91347 0.00766 0.33651 0.0
H1300 H 0.85341 0.98556 0.20774 0.0
H1301 H 0.86721 0.04064 0.22253 0.0
H1302 H 0.84575 0.99636 0.17656 0.0
H1303 H 0.85952 0.05048 0.19105 0.0
H1304 H 0.908 0.9698 0.21871 0.0
H1305 H 0.89227 0.95536 0.27343 0.0
H1306 H 0.91207 0.93694 0.21173 0.0
H1307 H 0.89651 0.92273 0.26551 0.0
H1308 H 0.94569 0.03479 0.20591 0.0
H1309 H 0.91098 1.00087 0.17232 0.0
H1310 H 0.81896 0.94347 0.26595 0.0
H1311 H 0.84801 0.9314 0.21598 0.0
Li1312 Li 0.25897 0.14175 0.5199 0.0
Li1313 Li 0.2445 0.11789 0.50113 0.0
Li1314 Li 0.27888 0.11821 0.5062 0.0
Li1315 Li 0.26382 0.1403 0.48551 0.0
C1316 C 0.2578 0.11175 0.5426 0.0
N1317 N 0.25596 0.10568 0.57982 0.0
C1318 C 0.2414 0.10625 0.55063 0.0
C1319 C 0.27334 0.11383 0.55348 0.0
C1320 C 0.24072 0.10334 0.56948 0.0
C1321 C 0.27212 0.11079 0.57227 0.0
C1322 C 0.22283 0.14761 0.49641 0.0
C1323 C 0.19694 0.14684 0.47607 0.0
N1324 N 0.18603 0.15275 0.48988 0.0
C1325 C 0.21142 0.15387 0.51035 0.0
C1326 C 0.21559 0.14425 0.47908 0.0
C1327 C 0.19284 0.15631 0.5068 0.0
C1328 C 0.26756 0.17206 0.54226 0.0
N1329 N 0.25602 0.15764 0.54053 0.0
C1330 C 0.24082 0.16588 0.56827 0.0
C1331 C 0.24266 0.15453 0.55304 0.0
C1332 C 0.25286 0.18062 0.57065 0.0
C1333 C 0.26631 0.18368 0.55733 0.0
H1334 H 0.27776 0.17458 0.53192 0.0
H1335 H 0.23336 0.14325 0.55119 0.0
C1336 C 0.2236 0.08834 0.48702 0.0
N1337 N 0.22335 0.10256 0.49895 0.0
C1338 C 0.20857 0.07666 0.48559 0.0
C1339 C 0.19329 0.09441 0.50878 0.0
C1340 C 0.20859 0.10574 0.50973 0.0
C1341 C 0.19316 0.07955 0.49665 0.0
H1342 H 0.2356 0.08589 0.4788 0.0
H1343 H 0.20876 0.11697 0.51929 0.0
C1344 C 0.29945 0.15009 0.50874 0.0
N1345 N 0.33536 0.15955 0.51545 0.0
C1346 C 0.31051 0.15643 0.49455 0.0
C1347 C 0.30659 0.14886 0.52641 0.0
C1348 C 0.32864 0.16107 0.49819 0.0
C1349 C 0.32479 0.15362 0.52951 0.0
C1350 C 0.26772 0.10912 0.46548 0.0
C1351 C 0.28495 0.10334 0.45972 0.0
C1352 C 0.25357 0.11072 0.45277 0.0
C1353 C 0.28784 0.09959 0.44123 0.0
C1354 C 0.257 0.10687 0.43441 0.0
N1355 N 0.27393 0.10145 0.42906 0.0
C1356 C 0.29905 0.08889 0.52156 0.0
C1357 C 0.31633 0.10797 0.50203 0.0
C1358 C 0.31449 0.07834 0.52544 0.0
N1359 N 0.30028 0.10356 0.51024 0.0
C1360 C 0.33212 0.09788 0.50561 0.0
C1361 C 0.33137 0.08292 0.51758 0.0
H1362 H 0.28609 0.08546 0.52771 0.0
H1363 H 0.3169 0.11928 0.49261 0.0
C1364 C 0.25494 0.16872 0.46082 0.0
N1365 N 0.26678 0.15474 0.46378 0.0
C1366 C 0.25676 0.17985 0.44541 0.0
C1367 C 0.28301 0.1621 0.43636 0.0
C1368 C 0.28071 0.15135 0.45198 0.0
C1369 C 0.27097 0.17663 0.43292 0.0
H1370 H 0.24413 0.17134 0.4705 0.0
H1371 H 0.29027 0.14051 0.45482 0.0
O1372 O 0.25868 0.11481 0.52418 0.0
O1373 O 0.24104 0.14497 0.49968 0.0
O1374 O 0.28169 0.14533 0.50536 0.0
O1375 O 0.26468 0.11298 0.48351 0.0
H1376 H 0.22929 0.10433 0.54243 0.0
H1377 H 0.28625 0.11758 0.54747 0.0
H1378 H 0.22807 0.09921 0.57587 0.0
H1379 H 0.28404 0.11243 0.58085 0.0
H1380 H 0.19114 0.1442 0.46273 0.0
H1381 H 0.21681 0.15672 0.52379 0.0
H1382 H 0.22428 0.13974 0.46805 0.0
H1383 H 0.18382 0.16103 0.5175 0.0
H1384 H 0.23028 0.163 0.57821 0.0
H1385 H 0.27564 0.19509 0.55842 0.0
H1386 H 0.20921 0.06523 0.47625 0.0
H1387 H 0.18167 0.09729 0.51744 0.0
H1388 H 0.30519 0.15768 0.48084 0.0
H1389 H 0.29814 0.14445 0.53763 0.0
H1390 H 0.33738 0.16588 0.48731 0.0
H1391 H 0.33049 0.15266 0.54311 0.0
H1392 H 0.29601 0.10185 0.46938 0.0
H1393 H 0.24007 0.11484 0.45703 0.0
H1394 H 0.30115 0.09522 0.43656 0.0
H1395 H 0.24619 0.10814 0.42441 0.0
H1396 H 0.31329 0.06695 0.53478 0.0
H1397 H 0.34476 0.10167 0.49894 0.0
H1398 H 0.24706 0.19079 0.44326 0.0
H1399 H 0.29434 0.15929 0.4273 0.0
Li1400 Li 0.38728 0.50195 0.77235 0.0
Li1401 Li 0.36317 0.52106 0.75814 0.0
Li1402 Li 0.36349 0.48675 0.75381 0.0
Li1403 Li 0.38569 0.50668 0.73802 0.0
C1404 C 0.35715 0.49789 0.79468 0.0
N1405 N 0.35076 0.49099 0.83122 0.0
C1406 C 0.35127 0.5119 0.80621 0.0
C1407 C 0.35953 0.48032 0.80168 0.0
C1408 C 0.34817 0.50815 0.82465 0.0
C1409 C 0.3563 0.47711 0.82021 0.0
C1410 C 0.3927 0.54303 0.76115 0.0
C1411 C 0.39266 0.57428 0.75086 0.0
N1412 N 0.39754 0.57979 0.76792 0.0
C1413 C 0.39788 0.54897 0.77853 0.0
C1414 C 0.39022 0.55575 0.74715 0.0
C1415 C 0.4002 0.56762 0.78169 0.0
C1416 C 0.4197 0.48968 0.78889 0.0
N1417 N 0.40402 0.49894 0.79247 0.0
C1418 C 0.41366 0.50403 0.82335 0.0
C1419 C 0.40085 0.50615 0.80931 0.0
C1420 C 0.43002 0.49457 0.82001 0.0
C1421 C 0.43289 0.48729 0.80249 0.0
H1422 H 0.42205 0.48425 0.77536 0.0
H1423 H 0.38859 0.51391 0.81179 0.0
C1424 C 0.33265 0.54238 0.74905 0.0
N1425 N 0.34699 0.54156 0.76081 0.0
C1426 C 0.31999 0.55656 0.75016 0.0
C1427 C 0.33685 0.56884 0.77569 0.0
C1428 C 0.34923 0.55438 0.77407 0.0
C1429 C 0.32192 0.57004 0.76366 0.0
H1430 H 0.3309 0.53189 0.73884 0.0
H1431 H 0.36043 0.55325 0.7836 0.0
C1432 C 0.3943 0.46571 0.75077 0.0
N1433 N 0.40179 0.42888 0.74803 0.0
C1434 C 0.39861 0.45805 0.73384 0.0
C1435 C 0.39408 0.45471 0.76635 0.0
C1436 C 0.40228 0.43938 0.73272 0.0
C1437 C 0.39783 0.4361 0.76468 0.0
C1438 C 0.355 0.50918 0.7176 0.0
C1439 C 0.34865 0.49485 0.70673 0.0
C1440 C 0.35761 0.52641 0.70986 0.0
C1441 C 0.34531 0.49794 0.68819 0.0
C1442 C 0.35413 0.52895 0.69127 0.0
N1443 N 0.34812 0.51477 0.68091 0.0
C1444 C 0.33334 0.4651 0.76351 0.0
C1445 C 0.35012 0.45291 0.73874 0.0
C1446 C 0.32064 0.45096 0.76231 0.0
N1447 N 0.34776 0.46584 0.75186 0.0
C1448 C 0.33769 0.43851 0.73701 0.0
C1449 C 0.32258 0.43747 0.74881 0.0
H1450 H 0.33149 0.47571 0.77359 0.0
H1451 H 0.36134 0.45403 0.72925 0.0
C1452 C 0.41393 0.52254 0.71713 0.0
N1453 N 0.40015 0.51014 0.71641 0.0
C1454 C 0.42488 0.52573 0.70184 0.0
C1455 C 0.40733 0.5033 0.68525 0.0
C1456 C 0.39683 0.50042 0.70093 0.0
C1457 C 0.42162 0.51608 0.68559 0.0
H1458 H 0.41647 0.52995 0.72964 0.0
H1459 H 0.38609 0.49033 0.70075 0.0
O1460 O 0.36032 0.50134 0.7766 0.0
O1461 O 0.39029 0.52482 0.75782 0.0
O1462 O 0.3906 0.48395 0.75211 0.0
O1463 O 0.35853 0.50637 0.73573 0.0
H1464 H 0.34922 0.52555 0.80099 0.0
H1465 H 0.3637 0.46925 0.79288 0.0
H1466 H 0.34372 0.51889 0.83375 0.0
H1467 H 0.35815 0.46359 0.82582 0.0
H1468 H 0.3907 0.58428 0.74017 0.0
H1469 H 0.39997 0.53932 0.78948 0.0
H1470 H 0.38652 0.55137 0.73355 0.0
H1471 H 0.40411 0.57242 0.79511 0.0
H1472 H 0.41099 0.51015 0.83654 0.0
H1473 H 0.4452 0.47976 0.7993 0.0
H1474 H 0.30882 0.55698 0.74047 0.0
H1475 H 0.33873 0.57872 0.78652 0.0
H1476 H 0.399 0.4664 0.72168 0.0
H1477 H 0.39118 0.46049 0.77961 0.0
H1478 H 0.40551 0.43324 0.71969 0.0
H1479 H 0.39764 0.42741 0.77662 0.0
H1480 H 0.34642 0.48147 0.71251 0.0
H1481 H 0.36226 0.5377 0.71813 0.0
H1482 H 0.34049 0.48694 0.6796 0.0
H1483 H 0.35619 0.54219 0.68509 0.0
H1484 H 0.30934 0.45066 0.77184 0.0
H1485 H 0.3396 0.42863 0.72619 0.0
H1486 H 0.4357 0.53576 0.70268 0.0
H1487 H 0.40454 0.49534 0.6731 0.0
Li1488 Li 0.77006 0.39365 0.5014 0.0
Li1489 Li 0.7564 0.37089 0.5217 0.0
Li1490 Li 0.75103 0.36892 0.48838 0.0
Li1491 Li 0.7366 0.39244 0.5066 0.0
C1492 C 0.7883 0.36203 0.49013 0.0
N1493 N 0.8154 0.35188 0.46596 0.0
C1494 C 0.79957 0.34716 0.49408 0.0
C1495 C 0.79081 0.37174 0.4739 0.0
C1496 C 0.8132 0.34224 0.48168 0.0
C1497 C 0.80458 0.3664 0.46185 0.0
C1498 C 0.76021 0.40145 0.542 0.0
C1499 C 0.75053 0.40556 0.57321 0.0
N1500 N 0.76819 0.40826 0.57826 0.0
C1501 C 0.77823 0.40451 0.54746 0.0
C1502 C 0.7462 0.40219 0.55493 0.0
C1503 C 0.782 0.40784 0.56586 0.0
C1504 C 0.78701 0.42639 0.491 0.0
N1505 N 0.79029 0.40958 0.49807 0.0
C1506 C 0.82203 0.41643 0.50129 0.0
C1507 C 0.80735 0.40441 0.50322 0.0
C1508 C 0.81911 0.43393 0.49395 0.0
C1509 C 0.80129 0.43881 0.48873 0.0
H1510 H 0.77326 0.43019 0.48724 0.0
H1511 H 0.80952 0.39103 0.50907 0.0
C1512 C 0.74862 0.34529 0.55004 0.0
N1513 N 0.76129 0.35702 0.54325 0.0
C1514 C 0.75241 0.33502 0.56567 0.0
C1515 C 0.78227 0.34896 0.56696 0.0
C1516 C 0.77799 0.35877 0.55118 0.0
C1517 C 0.76939 0.33688 0.57439 0.0
H1518 H 0.73563 0.34375 0.54324 0.0
H1519 H 0.78805 0.36771 0.54514 0.0
C1520 C 0.73831 0.40013 0.46913 0.0
N1521 N 0.71457 0.40954 0.44133 0.0
C1522 C 0.72296 0.38942 0.46557 0.0
C1523 C 0.74165 0.4156 0.45848 0.0
C1524 C 0.7111 0.3944 0.45149 0.0
C1525 C 0.72947 0.42014 0.4445 0.0
C1526 C 0.71551 0.36261 0.51309 0.0
C1527 C 0.70368 0.35415 0.50071 0.0
C1528 C 0.70896 0.3681 0.53014 0.0
C1529 C 0.6854 0.35163 0.50551 0.0
C1530 C 0.69059 0.36534 0.53442 0.0
N1531 N 0.67928 0.35725 0.52211 0.0
C1532 C 0.74303 0.33499 0.47255 0.0
C1533 C 0.75305 0.35703 0.45112 0.0
C1534 C 0.74139 0.3219 0.45878 0.0
N1535 N 0.74874 0.35215 0.46851 0.0
C1536 C 0.75172 0.34433 0.43693 0.0
C1537 C 0.74585 0.32644 0.44066 0.0
H1538 H 0.73977 0.33147 0.48652 0.0
H1539 H 0.7577 0.37074 0.44828 0.0
C1540 C 0.71935 0.42427 0.51815 0.0
N1541 N 0.71594 0.40831 0.50934 0.0
C1542 C 0.70553 0.43716 0.52048 0.0
C1543 C 0.6848 0.41706 0.50458 0.0
C1544 C 0.69907 0.40455 0.50249 0.0
C1545 C 0.68798 0.43368 0.5136 0.0
H1546 H 0.73291 0.42707 0.52325 0.0
H1547 H 0.69667 0.39197 0.49522 0.0
O1548 O 0.77485 0.3669 0.50212 0.0
O1549 O 0.75627 0.39801 0.52405 0.0
O1550 O 0.75011 0.39551 0.48286 0.0
O1551 O 0.73344 0.36531 0.50859 0.0
H1552 H 0.79778 0.3395 0.5066 0.0
H1553 H 0.78222 0.38328 0.4706 0.0
H1554 H 0.82202 0.33076 0.48456 0.0
H1555 H 0.80667 0.37378 0.44923 0.0
H1556 H 0.73983 0.4061 0.58337 0.0
H1557 H 0.78922 0.40411 0.53763 0.0
H1558 H 0.73214 0.40033 0.5509 0.0
H1559 H 0.79591 0.41006 0.5703 0.0
H1560 H 0.83544 0.41215 0.50579 0.0
H1561 H 0.79839 0.45203 0.4828 0.0
H1562 H 0.74213 0.32582 0.57096 0.0
H1563 H 0.79564 0.35053 0.57309 0.0
H1564 H 0.72023 0.37738 0.4736 0.0
H1565 H 0.75353 0.424 0.46096 0.0
H1566 H 0.69914 0.38623 0.44863 0.0
H1567 H 0.73188 0.43208 0.43616 0.0
H1568 H 0.70852 0.34963 0.48751 0.0
H1569 H 0.71797 0.37439 0.53995 0.0
H1570 H 0.67608 0.3452 0.49602 0.0
H1571 H 0.68533 0.36961 0.54754 0.0
H1572 H 0.73655 0.30841 0.46232 0.0
H1573 H 0.75557 0.34841 0.42325 0.0
H1574 H 0.70857 0.44971 0.52767 0.0
H1575 H 0.67155 0.41392 0.49883 0.0
Li1576 Li 0.6443 0.98804 0.75888 0.0
Li1577 Li 0.62264 0.00751 0.77389 0.0
Li1578 Li 0.62056 1.00129 0.73953 0.0
Li1579 Li 0.64561 0.02067 0.7539 0.0
C1580 C 0.61536 0.96615 0.76405 0.0
N1581 N 0.61158 0.92931 0.77102 0.0
C1582 C 0.62082 0.95897 0.78087 0.0
C1583 C 0.60789 0.95462 0.7508 0.0
C1584 C 0.61884 0.94029 0.78412 0.0
C1585 C 0.6061 0.93603 0.75459 0.0
C1586 C 0.65163 0.01039 0.79514 0.0
C1587 C 0.65164 0.03094 0.82087 0.0
N1588 N 0.6551 0.01665 0.83221 0.0
C1589 C 0.65527 0.99592 0.80704 0.0
C1590 C 0.6499 0.02806 0.80209 0.0
C1591 C 0.65696 0.99937 0.82573 0.0
C1592 C 0.67629 0.97008 0.77027 0.0
N1593 N 0.66042 0.96721 0.76106 0.0
C1594 C 0.66968 0.93669 0.75388 0.0
C1595 C 0.65704 0.95095 0.75272 0.0
C1596 C 0.68613 0.93926 0.76342 0.0
C1597 C 0.68932 0.95625 0.7717 0.0
H1598 H 0.67899 0.98328 0.77626 0.0
H1599 H 0.64479 0.94916 0.74474 0.0
C1600 C 0.59561 0.02655 0.79349 0.0
N1601 N 0.60764 0.0125 0.7949 0.0
C1602 C 0.58458 0.03138 0.80826 0.0
C1603 C 0.59826 0.00703 0.82575 0.0
C1604 C 0.6089 1.00255 0.81054 0.0
C1605 C 0.58591 0.0217 0.82479 0.0
H1606 H 0.59448 0.03401 0.78082 0.0
H1607 H 0.61825 0.99122 0.81134 0.0
C1608 C 0.65976 0.99085 0.72644 0.0
N1609 N 0.68562 0.96871 0.71033 0.0
C1610 C 0.6783 0.9939 0.72969 0.0
C1611 C 0.65434 0.97668 0.7149 0.0
C1612 C 0.69118 0.9825 0.72145 0.0
C1613 C 0.66764 0.96561 0.70689 0.0
C1614 C 0.61671 0.04283 0.74852 0.0
C1615 C 0.6111 0.04746 0.73087 0.0
C1616 C 0.62052 0.05662 0.76114 0.0
C1617 C 0.60965 0.06585 0.72605 0.0
C1618 C 0.61893 0.07484 0.75579 0.0
N1619 N 0.61359 0.07904 0.7385 0.0
C1620 C 0.5871 0.99259 0.72252 0.0
C1621 C 0.61016 1.00247 0.70213 0.0
C1622 C 0.57482 0.99037 0.70807 0.0
N1623 N 0.6044 0.99844 0.7193 0.0
C1624 C 0.59827 1.00064 0.68728 0.0
C1625 C 0.5803 0.99443 0.6901 0.0
H1626 H 0.58288 0.98953 0.73634 0.0
H1627 H 0.62396 0.00727 0.7 0.0
C1628 C 0.67529 0.04376 0.76224 0.0
N1629 N 0.66167 0.04088 0.74994 0.0
C1630 C 0.68742 0.05828 0.75997 0.0
C1631 C 0.6715 0.0665 0.73225 0.0
C1632 C 0.6598 0.05168 0.73495 0.0
C1633 C 0.68553 0.06996 0.74489 0.0
H1634 H 0.67682 0.03472 0.77379 0.0
H1635 H 0.64927 0.04876 0.72504 0.0
O1636 O 0.61719 0.98438 0.7606 0.0
O1637 O 0.64979 0.00729 0.77679 0.0
O1638 O 0.64695 1.00149 0.73482 0.0
O1639 O 0.61838 0.02489 0.75343 0.0
H1640 H 0.62677 0.96766 0.79118 0.0
H1641 H 0.60368 0.95993 0.73767 0.0
H1642 H 0.62312 0.93453 0.79703 0.0
H1643 H 0.6004 0.92693 0.74445 0.0
H1644 H 0.65025 0.04454 0.82643 0.0
H1645 H 0.65652 0.98213 0.80196 0.0
H1646 H 0.64721 0.03943 0.79309 0.0
H1647 H 0.65967 0.98828 0.8351 0.0
H1648 H 0.66683 0.92396 0.74694 0.0
H1649 H 0.70178 0.95885 0.77923 0.0
H1650 H 0.57496 0.04249 0.80665 0.0
H1651 H 0.59992 0.99921 0.83818 0.0
H1652 H 0.68267 0.00479 0.73866 0.0
H1653 H 0.64001 0.97411 0.71236 0.0
H1654 H 0.70558 0.98458 0.72395 0.0
H1655 H 0.66366 0.95451 0.69802 0.0
H1656 H 0.608 0.03699 0.72095 0.0
H1657 H 0.62468 0.05329 0.77491 0.0
H1658 H 0.60542 0.06962 0.71241 0.0
H1659 H 0.62194 0.08565 0.7654 0.0
H1660 H 0.56126 0.98527 0.71096 0.0
H1661 H 0.60308 1.00425 0.67378 0.0
H1662 H 0.69805 0.06047 0.77003 0.0
H1663 H 0.6698 0.07496 0.72025 0.0
Li1664 Li 0.01991 0.26005 0.86978 0.0
Li1665 Li 0.99903 0.27517 0.89149 0.0
Li1666 Li 0.0056 0.24121 0.8939 0.0
Li1667 Li 0.98581 0.25346 0.8696 0.0
C1668 C 0.04019 0.26509 0.90171 0.0
N1669 N 0.07621 0.27059 0.91152 0.0
C1670 C 0.04627 0.28251 0.9065 0.0
C1671 C 0.05235 0.25041 0.90224 0.0
C1672 C 0.06455 0.28504 0.91133 0.0
C1673 C 0.07053 0.25348 0.90714 0.0
C1674 C 0.99538 0.29431 0.85945 0.0
C1675 C 0.97435 0.31948 0.85661 0.0
N1676 N 0.98811 0.33014 0.8502 0.0
C1677 C 0.00927 0.30546 0.85264 0.0
C1678 C 0.97773 0.30131 0.86127 0.0
C1679 C 0.00534 0.32356 0.84811 0.0
C1680 C 0.04413 0.25195 0.84057 0.0
N1681 N 0.04129 0.26339 0.85491 0.0
C1682 C 0.06856 0.2799 0.84772 0.0
C1683 C 0.05305 0.2773 0.85851 0.0
C1684 C 0.07195 0.26821 0.8329 0.0
C1685 C 0.05945 0.25409 0.82938 0.0
H1686 H 0.03445 0.24119 0.83775 0.0
H1687 H 0.05022 0.28662 0.86956 0.0
C1688 C 0.98349 0.29575 0.92017 0.0
N1689 N 0.99475 0.29688 0.90545 0.0
C1690 C 0.97994 0.31117 0.93082 0.0
C1691 C 0.99981 0.32862 0.91115 0.0
C1692 C 1.00308 0.31284 0.90097 0.0
C1693 C 0.98807 0.32792 0.9263 0.0
H1694 H 0.97726 0.28285 0.92367 0.0
H1695 H 0.01244 0.3133 0.8896 0.0
C1696 C 0.01251 0.21874 0.86432 0.0
N1697 N 0.02407 0.18327 0.8589 0.0
C1698 C 1.00017 0.20543 0.85846 0.0
C1699 C 0.03079 0.21407 0.86713 0.0
C1700 C 0.00626 0.18756 0.85589 0.0
C1701 C 0.03635 0.19605 0.86439 0.0
C1702 C 0.96392 0.25199 0.89979 0.0
C1703 C 0.95759 0.23514 0.90608 0.0
C1704 C 0.95156 0.26622 0.89695 0.0
C1705 C 0.93891 0.23269 0.90902 0.0
C1706 C 0.93299 0.26324 0.90004 0.0
N1707 N 0.92709 0.24667 0.90594 0.0
C1708 C 0.01854 0.22443 0.92623 0.0
C1709 C 1.00056 0.2051 0.90758 0.0
C1710 C 0.0204 0.21066 0.93931 0.0
N1711 N 0.00879 0.22143 0.91071 0.0
C1712 C 1.00206 0.19095 0.92028 0.0
C1713 C 0.01202 0.19364 0.93647 0.0
H1714 H 0.02468 0.23763 0.92859 0.0
H1715 H 0.99238 0.2032 0.89545 0.0
C1716 C 0.96034 0.25917 0.84065 0.0
N1717 N 0.96487 0.24804 0.85481 0.0
C1718 C 0.94482 0.25557 0.8301 0.0
C1719 C 0.93906 0.22899 0.84872 0.0
C1720 C 0.95473 0.23303 0.85881 0.0
C1721 C 0.93386 0.24037 0.83418 0.0
H1722 H 0.96875 0.27087 0.83754 0.0
H1723 H 0.95884 0.22414 0.86984 0.0
O1724 O 0.02235 0.26239 0.8969 0.0
O1725 O 0.99902 0.2766 0.8641 0.0
O1726 O 0.00676 0.23629 0.86703 0.0
O1727 O 0.98215 0.25457 0.89663 0.0
H1728 H 0.03702 0.294 0.90635 0.0
H1729 H 0.04779 0.23676 0.89908 0.0
H1730 H 0.06947 0.29848 0.91492 0.0
H1731 H 0.08009 0.24225 0.90754 0.0
H1732 H 0.96076 0.32508 0.85804 0.0
H1733 H 0.02296 0.30024 0.85095 0.0
H1734 H 0.96674 0.29279 0.86615 0.0
H1735 H 0.01599 0.33236 0.84293 0.0
H1736 H 0.07761 0.29118 0.85074 0.0
H1737 H 0.06155 0.24467 0.81818 0.0
H1738 H 0.97074 0.31004 0.94234 0.0
H1739 H 0.00662 0.34118 0.90737 0.0
H1740 H 0.98602 0.20884 0.85602 0.0
H1741 H 0.0406 0.22428 0.8712 0.0
H1742 H 0.99682 0.1771 0.85148 0.0
H1743 H 0.05045 0.19225 0.86657 0.0
H1744 H 0.96696 0.22402 0.90853 0.0
H1745 H 0.95625 0.27945 0.89249 0.0
H1746 H 0.93381 0.21967 0.91375 0.0
H1747 H 0.92326 0.27412 0.89781 0.0
H1748 H 0.02834 0.21333 0.9515 0.0
H1749 H 0.99507 0.1782 0.91766 0.0
H1750 H 0.94129 0.26475 0.81906 0.0
H1751 H 0.93122 0.21695 0.85214 0.0
Li1752 Li 0.51887 0.75296 0.36758 0.0
Li1753 Li 0.49984 0.76815 0.38938 0.0
Li1754 Li 0.50466 0.73355 0.39062 0.0
Li1755 Li 0.48605 0.74935 0.3658 0.0
C1756 C 0.54073 0.75647 0.39662 0.0
N1757 N 0.57788 0.76182 0.40024 0.0
C1758 C 0.54857 0.77304 0.39139 0.0
C1759 C 0.55176 0.74265 0.40378 0.0
C1760 C 0.56739 0.77546 0.39328 0.0
C1761 C 0.57053 0.74562 0.4055 0.0
C1762 C 0.49772 0.79031 0.36124 0.0
C1763 C 0.47771 0.81644 0.36222 0.0
N1764 N 0.49229 0.8276 0.35961 0.0
C1765 C 0.5125 0.80205 0.35849 0.0
C1766 C 0.48016 0.79756 0.36304 0.0
C1767 C 0.50948 0.82085 0.35772 0.0
C1768 C 0.53955 0.76549 0.33731 0.0
N1769 N 0.54029 0.7544 0.35219 0.0
C1770 C 0.57032 0.74454 0.34387 0.0
C1771 C 0.5552 0.74382 0.35548 0.0
C1772 C 0.57009 0.75618 0.32862 0.0
C1773 C 0.55439 0.76671 0.3254 0.0
H1774 H 0.52727 0.77316 0.33449 0.0
H1775 H 0.55527 0.73456 0.36694 0.0
C1776 C 0.4812 0.78786 0.41664 0.0
N1777 N 0.49562 0.7889 0.405 0.0
C1778 C 0.47687 0.80249 0.42805 0.0
C1779 C 0.50251 0.81901 0.41565 0.0
C1780 C 0.50645 0.80397 0.40459 0.0
C1781 C 0.48746 0.81847 0.42755 0.0
H1782 H 0.47305 0.77561 0.41714 0.0
H1783 H 0.51806 0.80445 0.39557 0.0
C1784 C 0.51408 0.72149 0.35036 0.0
N1785 N 0.53414 0.70575 0.32263 0.0
C1786 C 0.51128 0.72689 0.33227 0.0
C1787 C 0.52693 0.70799 0.35437 0.0
C1788 C 0.52161 0.7188 0.31844 0.0
C1789 C 0.53697 0.70021 0.34014 0.0
C1790 C 0.46345 0.74411 0.39429 0.0
C1791 C 0.45806 0.72652 0.39931 0.0
C1792 C 0.45019 0.75735 0.39069 0.0
C1793 C 0.43947 0.7224 0.40034 0.0
C1794 C 0.43175 0.75268 0.39185 0.0
N1795 N 0.42681 0.73544 0.39659 0.0
C1796 C 0.51274 0.71506 0.42349 0.0
C1797 C 0.501 0.69614 0.4 0.0
C1798 C 0.51377 0.7002 0.43543 0.0
N1799 N 0.50647 0.71277 0.40617 0.0
C1800 C 0.5015 0.68097 0.41158 0.0
C1801 C 0.50795 0.68292 0.42955 0.0
H1802 H 0.51684 0.72847 0.42807 0.0
H1803 H 0.49599 0.69475 0.38617 0.0
C1804 C 0.46215 0.75909 0.33686 0.0
N1805 N 0.46566 0.74617 0.34972 0.0
C1806 C 0.44732 0.75718 0.32501 0.0
C1807 C 0.44018 0.72847 0.33953 0.0
C1808 C 0.45524 0.73088 0.35101 0.0
C1809 C 0.43597 0.74176 0.32631 0.0
H1810 H 0.47098 0.77083 0.33568 0.0
H1811 H 0.45859 0.72056 0.361 0.0
O1812 O 0.52234 0.75379 0.39479 0.0
O1813 O 0.50039 0.77184 0.3622 0.0
O1814 O 0.5045 0.72963 0.36412 0.0
O1815 O 0.4816 0.74834 0.39298 0.0
H1816 H 0.54027 0.78378 0.38564 0.0
H1817 H 0.54595 0.7297 0.40779 0.0
H1818 H 0.57365 0.78817 0.38916 0.0
H1819 H 0.57925 0.73502 0.41094 0.0
H1820 H 0.4642 0.82222 0.36367 0.0
H1821 H 0.52623 0.79677 0.35728 0.0
H1822 H 0.46855 0.78872 0.36506 0.0
H1823 H 0.52082 0.83009 0.35571 0.0
H1824 H 0.58211 0.73614 0.34688 0.0
H1825 H 0.55342 0.77552 0.31357 0.0
H1826 H 0.46542 0.80118 0.4373 0.0
H1827 H 0.51103 0.83104 0.41464 0.0
H1828 H 0.5014 0.73738 0.329 0.0
H1829 H 0.52928 0.70374 0.36834 0.0
H1830 H 0.51971 0.72293 0.30438 0.0
H1831 H 0.54706 0.68982 0.34303 0.0
H1832 H 0.46809 0.71613 0.40227 0.0
H1833 H 0.4541 0.77108 0.38702 0.0
H1834 H 0.43511 0.70881 0.40411 0.0
H1835 H 0.42136 0.76278 0.38899 0.0
H1836 H 0.51866 0.70229 0.44923 0.0
H1837 H 0.49699 0.66784 0.40651 0.0
H1838 H 0.44492 0.76758 0.31477 0.0
H1839 H 0.43181 0.71642 0.34117 0.0
Li1840 Li 0.0107 0.77257 0.61664 0.0
Li1841 Li 0.98958 0.75845 0.6403 0.0
Li1842 Li 0.02404 0.75226 0.63934 0.0
Li1843 Li 1.00414 0.7401 0.61643 0.0
C1844 C 0.0123 0.79402 0.64648 0.0
N1845 N 0.01522 0.83134 0.65092 0.0
C1846 C 0.99703 0.80431 0.65148 0.0
C1847 C 0.0291 0.80268 0.64397 0.0
C1848 C 0.99878 0.82316 0.6536 0.0
C1849 C 0.03029 0.82157 0.64621 0.0
C1850 C 0.97601 0.7553 0.59948 0.0
C1851 C 0.94897 0.74072 0.58771 0.0
N1852 N 0.95543 0.74287 0.57043 0.0
C1853 C 0.98235 0.75748 0.58162 0.0
C1854 C 0.95916 0.74694 0.60259 0.0
C1855 C 0.97176 0.75105 0.56711 0.0
C1856 C 0.02636 0.7941 0.5882 0.0
N1857 N 0.0134 0.79377 0.60148 0.0
C1858 C 1.00217 0.8229 0.59187 0.0
C1859 C 1.00129 0.8077 0.60337 0.0
C1860 C 0.01538 0.82366 0.57796 0.0
C1861 C 0.02764 0.80897 0.57629 0.0
H1862 H 0.03544 0.7826 0.58654 0.0
H1863 H 0.99073 0.80688 0.61363 0.0
C1864 C 0.96827 0.75542 0.67248 0.0
N1865 N 0.96864 0.7624 0.65529 0.0
C1866 C 0.953 0.75806 0.68362 0.0
C1867 C 0.93899 0.77546 0.65934 0.0
C1868 C 0.95444 0.77229 0.64859 0.0
C1869 C 0.93804 0.76825 0.67714 0.0
H1870 H 0.97979 0.74764 0.67747 0.0
H1871 H 0.95519 0.77785 0.63492 0.0
C1872 C 0.0463 0.74968 0.61133 0.0
N1873 N 0.08364 0.74445 0.61007 0.0
C1874 C 0.05346 0.7323 0.60809 0.0
C1875 C 0.05815 0.76441 0.61378 0.0
C1876 C 0.07237 0.72993 0.60753 0.0
C1877 C 0.07698 0.76149 0.61314 0.0
C1878 C 0.99944 0.71687 0.6443 0.0
C1879 C 0.01229 0.70407 0.63841 0.0
C1880 C 0.98266 0.71092 0.65115 0.0
C1881 C 0.00812 0.68551 0.63941 0.0
C1882 C 0.97901 0.69224 0.65196 0.0
N1883 N 0.9917 0.68002 0.64611 0.0
C1884 C 0.04892 0.76101 0.66792 0.0
C1885 C 0.05447 0.73237 0.65412 0.0
C1886 C 0.06337 0.75828 0.68014 0.0
N1887 N 0.04475 0.74814 0.6552 0.0
C1888 C 0.06912 0.72915 0.66593 0.0
C1889 C 0.07372 0.74212 0.67931 0.0
H1890 H 0.04082 0.77329 0.66883 0.0
H1891 H 0.05087 0.72218 0.64416 0.0
C1892 C 0.0106 0.71782 0.58535 0.0
N1893 N 0.99933 0.72004 0.59993 0.0
C1894 C 0.00778 0.70354 0.57301 0.0
C1895 C 0.98139 0.69441 0.59049 0.0
C1896 C 0.98469 0.7089 0.60245 0.0
C1897 C 0.9931 0.69148 0.57558 0.0
H1898 H 0.02176 0.72721 0.58322 0.0
H1899 H 0.97544 0.71133 0.61366 0.0
O1900 O 0.0108 0.77557 0.64412 0.0
O1901 O 0.98641 0.76102 0.61386 0.0
O1902 O 0.02781 0.75226 0.61214 0.0
O1903 O 1.00324 0.73512 0.64338 0.0
H1904 H 0.98395 0.79784 0.65358 0.0
H1905 H 0.0411 0.79491 0.64036 0.0
H1906 H 0.98705 0.83131 0.65736 0.0
H1907 H 0.04319 0.82845 0.64422 0.0
H1908 H 0.93595 0.73411 0.58991 0.0
H1909 H 0.99542 0.76386 0.57903 0.0
H1910 H 0.95414 0.74506 0.61637 0.0
H1911 H 0.97654 0.75253 0.55321 0.0
H1912 H 0.99251 0.8339 0.59385 0.0
H1913 H 0.03778 0.80867 0.56555 0.0
H1914 H 0.95287 0.75194 0.69707 0.0
H1915 H 0.92802 0.78367 0.6538 0.0
H1916 H 0.04454 0.72068 0.60635 0.0
H1917 H 0.05287 0.77796 0.61615 0.0
H1918 H 0.07809 0.71653 0.60517 0.0
H1919 H 0.08629 0.77277 0.61509 0.0
H1920 H 0.02517 0.70842 0.63273 0.0
H1921 H 0.97248 0.72061 0.65562 0.0
H1922 H 0.01788 0.67547 0.63476 0.0
H1923 H 0.96606 0.68745 0.65718 0.0
H1924 H 0.0661 0.76855 0.69041 0.0
H1925 H 0.07677 0.71659 0.66453 0.0
H1926 H 0.01715 0.70184 0.5617 0.0
H1927 H 0.96963 0.68576 0.59276 0.0
Li1928 Li 0.50862 0.26903 0.11798 0.0
Li1929 Li 0.48945 0.25265 0.14192 0.0
Li1930 Li 0.52236 0.2494 0.1412 0.0
Li1931 Li 0.50434 0.23434 0.11832 0.0
C1932 C 0.51777 0.2808 0.15788 0.0
N1933 N 0.53895 0.29664 0.18473 0.0
C1934 C 0.51456 0.27675 0.17624 0.0
C1935 C 0.53163 0.29299 0.15314 0.0
C1936 C 0.52546 0.28487 0.18963 0.0
C1937 C 0.54221 0.30085 0.16694 0.0
C1938 C 0.4677 0.25753 0.11221 0.0
C1939 C 0.43632 0.24759 0.11166 0.0
N1940 N 0.43099 0.26488 0.10755 0.0
C1941 C 0.46193 0.27517 0.10782 0.0
C1942 C 0.45482 0.24359 0.114 0.0
C1943 C 0.4433 0.27862 0.10557 0.0
C1944 C 0.51698 0.28811 0.08551 0.0
N1945 N 0.51055 0.29008 0.10281 0.0
C1946 C 0.50558 0.32196 0.09792 0.0
C1947 C 0.50498 0.30658 0.10921 0.0
C1948 C 0.51216 0.32036 0.07997 0.0
C1949 C 0.51805 0.30317 0.07384 0.0
H1950 H 0.52116 0.27479 0.08074 0.0
H1951 H 0.49984 0.30772 0.12301 0.0
C1952 C 0.4675 0.2428 0.1719 0.0
N1953 N 0.46894 0.25504 0.15801 0.0
C1954 C 0.4535 0.24433 0.18473 0.0
C1955 C 0.44268 0.27115 0.16891 0.0
C1956 C 0.457 0.26917 0.15642 0.0
C1957 C 0.44086 0.25868 0.18338 0.0
H1958 H 0.47745 0.23201 0.17323 0.0
H1959 H 0.45879 0.27913 0.14571 0.0
C1960 C 0.54518 0.24653 0.11253 0.0
N1961 N 0.58236 0.24121 0.10915 0.0
C1962 C 0.55302 0.22998 0.11784 0.0
C1963 C 0.55623 0.26037 0.10545 0.0
C1964 C 0.57185 0.22757 0.11606 0.0
C1965 C 0.57501 0.25741 0.10385 0.0
C1966 C 0.50071 0.21201 0.14686 0.0
C1967 C 0.51504 0.20002 0.15075 0.0
C1968 C 0.48304 0.2052 0.14467 0.0
C1969 C 0.51145 0.18136 0.15218 0.0
C1970 C 0.48001 0.18645 0.1462 0.0
N1971 N 0.49416 0.17502 0.14987 0.0
C1972 C 0.53993 0.23715 0.17299 0.0
C1973 C 0.55906 0.25594 0.15497 0.0
C1974 C 0.55363 0.23519 0.18611 0.0
N1975 N 0.54288 0.24722 0.15768 0.0
C1976 C 0.57323 0.2542 0.16767 0.0
C1977 C 0.57058 0.24372 0.18351 0.0
H1978 H 0.52679 0.23082 0.17517 0.0
H1979 H 0.56091 0.26453 0.14314 0.0
C1980 C 0.48866 0.21468 0.08894 0.0
N1981 N 0.50157 0.21373 0.10226 0.0
C1982 C 0.48619 0.20018 0.07678 0.0
C1983 C 0.51042 0.18396 0.09215 0.0
C1984 C 0.51251 0.19883 0.1039 0.0
C1985 C 0.49712 0.18448 0.07831 0.0
H1986 H 0.48037 0.2268 0.08761 0.0
H1987 H 0.52289 0.1984 0.11433 0.0
O1988 O 0.50764 0.27256 0.14457 0.0
O1989 O 0.48587 0.25392 0.11458 0.0
O1990 O 0.52678 0.24918 0.11417 0.0
O1991 O 0.50396 0.23033 0.14529 0.0
H1992 H 0.50391 0.26726 0.18008 0.0
H1993 H 0.53433 0.29616 0.13895 0.0
H1994 H 0.52324 0.28176 0.2039 0.0
H1995 H 0.55307 0.31023 0.16349 0.0
H1996 H 0.42621 0.23694 0.11308 0.0
H1997 H 0.47169 0.28611 0.10628 0.0
H1998 H 0.45907 0.22981 0.11708 0.0
H1999 H 0.43864 0.29223 0.10227 0.0
H2000 H 0.50102 0.33499 0.1032 0.0
H2001 H 0.52303 0.30132 0.06004 0.0
H2002 H 0.45259 0.23437 0.19562 0.0
H2003 H 0.43346 0.28262 0.16755 0.0
H2004 H 0.54472 0.21928 0.12363 0.0
H2005 H 0.55041 0.27331 0.10138 0.0
H2006 H 0.57812 0.21487 0.12025 0.0
H2007 H 0.58374 0.26801 0.09844 0.0
H2008 H 0.52884 0.20502 0.15238 0.0
H2009 H 0.47177 0.2143 0.14189 0.0
H2010 H 0.52243 0.17191 0.15506 0.0
H2011 H 0.4664 0.181 0.14448 0.0
H2012 H 0.55099 0.227 0.19814 0.0
H2013 H 0.58596 0.26132 0.16533 0.0
H2014 H 0.476 0.2014 0.06613 0.0
H2015 H 0.51905 0.17212 0.09405 0.0
H2016 H 0.22463 0.79555 0.86291 0.0
H2017 H 0.24274 0.74839 0.89331 0.0
H2018 H 0.24696 0.76714 0.92041 0.0
H2019 H 0.24599 0.79698 0.93555 0.0
H2020 H 0.2266 0.84396 0.90592 0.0
H2021 H 0.22203 0.82518 0.87862 0.0
C2022 C 0.22926 0.7893 0.87551 0.0
C2023 C 0.2336 0.77057 0.87588 0.0
C2024 C 0.23142 0.80014 0.89124 0.0
C2025 C 0.23972 0.76282 0.89239 0.0
C2026 C 0.24203 0.77351 0.90799 0.0
C2027 C 0.24081 0.80309 0.92309 0.0
C2028 C 0.23675 0.82182 0.92269 0.0
C2029 C 0.23809 0.7922 0.90753 0.0
C2030 C 0.22975 0.82953 0.90656 0.0
C2031 C 0.2272 0.81882 0.89095 0.0
H2032 H 0.03532 0.55979 0.38779 0.0
H2033 H 0.02725 0.50306 0.40148 0.0
H2034 H 0.04583 0.49392 0.3755 0.0
H2035 H 0.06375 0.50183 0.34852 0.0
H2036 H 0.0737 0.55847 0.33574 0.0
H2037 H 0.05492 0.56775 0.36163 0.0
C2038 C 0.03781 0.54544 0.38525 0.0
C2039 C 0.02966 0.53217 0.39652 0.0
C2040 C 0.04875 0.5402 0.37034 0.0
C2041 C 0.03296 0.51361 0.39284 0.0
C2042 C 0.0437 0.50833 0.37803 0.0
C2043 C 0.0621 0.51622 0.3515 0.0
C2044 C 0.07015 0.52938 0.34004 0.0
C2045 C 0.05156 0.5215 0.36662 0.0
C2046 C 0.06744 0.54798 0.34404 0.0
C2047 C 0.0568 0.55333 0.35897 0.0
H2048 H 0.7667 0.75219 0.88708 0.0
H2049 H 0.78478 0.70987 0.85035 0.0
H2050 H 0.78116 0.68715 0.87449 0.0
H2051 H 0.77215 0.67916 0.90588 0.0
H2052 H 0.75415 0.72161 0.94253 0.0
H2053 H 0.75803 0.74428 0.91846 0.0
C2054 C 0.76971 0.73797 0.8843 0.0
C2055 C 0.77598 0.73278 0.86689 0.0
C2056 C 0.76748 0.72495 0.89821 0.0
C2057 C 0.78013 0.71432 0.86366 0.0
C2058 C 0.77795 0.70128 0.87744 0.0
C2059 C 0.76923 0.69339 0.90866 0.0
C2060 C 0.76276 0.6986 0.92601 0.0
C2061 C 0.77161 0.70643 0.89476 0.0
C2062 C 0.75885 0.71711 0.92925 0.0
C2063 C 0.76117 0.73013 0.91552 0.0
H2064 H 0.98494 0.96022 0.3839 0.0
H2065 H 0.98471 0.01768 0.39666 0.0
H2066 H 0.96265 0.02325 0.37233 0.0
H2067 H 0.94434 0.0121 0.34664 0.0
H2068 H 0.94397 0.95461 0.33399 0.0
H2069 H 0.96533 0.94881 0.35896 0.0
C2070 C 0.97988 0.97391 0.3815 0.0
C2071 C 0.98662 0.98852 0.39202 0.0
C2072 C 0.96717 0.97706 0.36739 0.0
C2073 C 0.98002 0.00622 0.38859 0.0
C2074 C 0.96733 0.00942 0.37471 0.0
C2075 C 0.94869 0.99825 0.34948 0.0
C2076 C 0.94255 0.98385 0.33835 0.0
C2077 C 0.96095 0.99499 0.3639 0.0
C2078 C 0.94865 0.96603 0.34212 0.0
C2079 C 0.96081 0.96267 0.35648 0.0
H2080 H 0.26029 0.23185 0.63974 0.0
H2081 H 0.20173 0.2338 0.63334 0.0
H2082 H 0.20368 0.213 0.60741 0.0
H2083 H 0.22205 0.19485 0.58595 0.0
H2084 H 0.28063 0.19359 0.59186 0.0
H2085 H 0.27863 0.21385 0.61826 0.0
C2086 C 0.24795 0.22789 0.63259 0.0
C2087 C 0.23089 0.23442 0.63858 0.0
C2088 C 0.24917 0.21611 0.61749 0.0
C2089 C 0.21504 0.22881 0.62927 0.0
C2090 C 0.21613 0.217 0.61433 0.0
C2091 C 0.23436 0.19888 0.59311 0.0
C2092 C 0.25147 0.19273 0.5869 0.0
C2093 C 0.23312 0.21059 0.60828 0.0
C2094 C 0.26731 0.1983 0.59621 0.0
C2095 C 0.26618 0.20982 0.61137 0.0
H2096 H 0.46057 0.527 0.60906 0.0
H2097 H 0.50825 0.52492 0.64357 0.0
H2098 H 0.48895 0.52188 0.67059 0.0
H2099 H 0.4586 0.51877 0.68436 0.0
H2100 H 0.41077 0.51993 0.65002 0.0
H2101 H 0.42997 0.52425 0.62303 0.0
C2102 C 0.46667 0.52605 0.62253 0.0
C2103 C 0.48579 0.52615 0.62434 0.0
C2104 C 0.45547 0.524 0.63802 0.0
C2105 C 0.49356 0.52472 0.64184 0.0
C2106 C 0.48254 0.52301 0.65729 0.0
C2107 C 0.45236 0.52016 0.67099 0.0
C2108 C 0.43328 0.51906 0.66922 0.0
C2109 C 0.46349 0.52248 0.65554 0.0
C2110 C 0.42544 0.52057 0.65174 0.0
C2111 C 0.43641 0.52312 0.63631 0.0
H2112 H 0.79212 0.30215 0.65008 0.0
H2113 H 0.77283 0.25348 0.62302 0.0
H2114 H 0.76509 0.27129 0.59601 0.0
H2115 H 0.7641 0.30061 0.57978 0.0
H2116 H 0.78465 0.34902 0.60614 0.0
H2117 H 0.79197 0.33132 0.63352 0.0
C2118 C 0.78643 0.29537 0.63821 0.0
C2119 C 0.78298 0.27647 0.63873 0.0
C2120 C 0.78229 0.30564 0.62253 0.0
C2121 C 0.77532 0.26804 0.62324 0.0
C2122 C 0.771 0.27819 0.60768 0.0
C2123 C 0.77007 0.30728 0.59158 0.0
C2124 C 0.77377 0.32609 0.59098 0.0
C2125 C 0.77438 0.297 0.60719 0.0
C2126 C 0.78178 0.33453 0.60625 0.0
C2127 C 0.78591 0.32443 0.62191 0.0
H2128 H 0.51608 0.98498 0.63271 0.0
H2129 H 0.56127 0.9683 0.59878 0.0
H2130 H 0.58243 0.97393 0.62382 0.0
H2131 H 0.58812 0.98249 0.65561 0.0
H2132 H 0.54334 1.00089 0.68921 0.0
H2133 H 0.52212 0.9956 0.66408 0.0
C2134 C 0.53057 0.98281 0.63069 0.0
C2135 C 0.53697 0.97598 0.61389 0.0
C2136 C 0.54279 0.98624 0.64515 0.0
C2137 C 0.55584 0.97314 0.61165 0.0
C2138 C 0.56801 0.97646 0.62595 0.0
C2139 C 0.57378 0.98566 0.65742 0.0
C2140 C 0.56743 0.99199 0.67444 0.0
C2141 C 0.56163 0.98284 0.64281 0.0
C2142 C 0.54867 0.99566 0.67646 0.0
C2143 C 0.53649 0.99277 0.66201 0.0
H2144 H 0.85688 0.22096 0.80007 0.0
H2145 H 0.88612 0.23248 0.75022 0.0
H2146 H 0.91356 0.23949 0.76775 0.0
H2147 H 0.9295 0.24195 0.79722 0.0
H2148 H 0.90047 0.22984 0.84701 0.0
H2149 H 0.8729 0.22307 0.8295 0.0
C2150 C 0.86929 0.22481 0.793 0.0
C2151 C 0.86933 0.22623 0.77381 0.0
C2152 C 0.88514 0.22865 0.80316 0.0
C2153 C 0.88554 0.23154 0.76497 0.0
C2154 C 0.90131 0.23545 0.77498 0.0
C2155 C 0.91709 0.23797 0.80424 0.0
C2156 C 0.91708 0.23641 0.8234 0.0
C2157 C 0.90127 0.23408 0.79408 0.0
C2158 C 0.90095 0.23096 0.83226 0.0
C2159 C 0.88513 0.22717 0.82226 0.0
H2160 H 0.45476 0.88213 0.47592 0.0
H2161 H 0.51205 0.89405 0.48297 0.0
H2162 H 0.51999 0.86801 0.46385 0.0
H2163 H 0.51075 0.84181 0.44512 0.0
H2164 H 0.45342 0.83117 0.43645 0.0
H2165 H 0.44551 0.85676 0.45614 0.0
C2166 C 0.46899 0.87922 0.47311 0.0
C2167 C 0.48275 0.89009 0.48101 0.0
C2168 C 0.4735 0.86438 0.46182 0.0
C2169 C 0.50113 0.88579 0.47741 0.0
C2170 C 0.50571 0.87096 0.46633 0.0
C2171 C 0.49652 0.84519 0.44732 0.0
C2172 C 0.48274 0.83441 0.43932 0.0
C2173 C 0.49201 0.86015 0.45846 0.0
C2174 C 0.46436 0.83893 0.44266 0.0
C2175 C 0.4598 0.85368 0.45383 0.0
H2176 H 0.14818 0.28016 0.79372 0.0
H2177 H 0.11492 0.26962 0.7462 0.0
H2178 H 0.08802 0.26627 0.76548 0.0
H2179 H 0.07386 0.26598 0.79581 0.0
H2180 H 0.10686 0.27646 0.84348 0.0
H2181 H 0.13377 0.28053 0.82418 0.0
C2182 C 0.13501 0.27732 0.78757 0.0
C2183 C 0.13365 0.27499 0.76852 0.0
C2184 C 0.1195 0.27541 0.79877 0.0
C2185 C 0.11647 0.27116 0.76083 0.0
C2186 C 0.10103 0.26932 0.77184 0.0
C2187 C 0.08696 0.26901 0.802 0.0
C2188 C 0.08831 0.27083 0.82109 0.0
C2189 C 0.1024 0.27126 0.79083 0.0
C2190 C 0.10537 0.27513 0.82883 0.0
C2191 C 0.1208 0.27738 0.8178 0.0
H2192 H 0.49686 0.61409 0.48061 0.0
H2193 H 0.55267 0.62662 0.49442 0.0
H2194 H 0.55225 0.65262 0.47348 0.0
H2195 H 0.53602 0.6718 0.45115 0.0
H2196 H 0.48063 0.65857 0.4363 0.0
H2197 H 0.48086 0.63284 0.45761 0.0
C2198 C 0.50887 0.6226 0.47906 0.0
C2199 C 0.52474 0.61852 0.48907 0.0
C2200 C 0.50862 0.63735 0.46676 0.0
C2201 C 0.54032 0.62946 0.48679 0.0
C2202 C 0.54007 0.64434 0.47486 0.0
C2203 C 0.524 0.6633 0.45266 0.0
C2204 C 0.50832 0.6671 0.44223 0.0
C2205 C 0.52431 0.64841 0.46476 0.0
C2206 C 0.4929 0.65584 0.4441 0.0
C2207 C 0.493 0.64118 0.45633 0.0
H2208 H 0.86112 0.77784 0.7159 0.0
H2209 H 0.89562 0.77954 0.76359 0.0
H2210 H 0.92276 0.77683 0.74436 0.0
H2211 H 0.93664 0.77346 0.71413 0.0
H2212 H 0.90208 0.76964 0.66647 0.0
H2213 H 0.87514 0.77411 0.68547 0.0
C2214 C 0.87461 0.77778 0.72201 0.0
C2215 C 0.87639 0.77888 0.74111 0.0
C2216 C 0.89016 0.77587 0.71088 0.0
C2217 C 0.89392 0.77858 0.74892 0.0
C2218 C 0.90943 0.77706 0.73794 0.0
C2219 C 0.92324 0.77338 0.70785 0.0
C2220 C 0.92155 0.77119 0.6888 0.0
C2221 C 0.90771 0.77552 0.71892 0.0
C2222 C 0.90396 0.77157 0.681 0.0
C2223 C 0.88847 0.77399 0.6919 0.0
H2224 H 1.00475 0.89002 0.52345 0.0
H2225 H 0.06353 0.88614 0.52161 0.0
H2226 H 0.06276 0.86103 0.54342 0.0
H2227 H 0.04548 0.84003 0.56301 0.0
H2228 H 0.98659 0.8427 0.5634 0.0
H2229 H 0.98742 0.86835 0.54225 0.0
C2230 C 0.0174 0.88357 0.52763 0.0
C2231 C 0.03417 0.89012 0.52086 0.0
C2232 C 0.01688 0.8689 0.54003 0.0
C2233 C 0.05041 0.88169 0.52677 0.0
C2234 C 0.05 0.8672 0.53918 0.0
C2235 C 0.03279 0.84606 0.55835 0.0
C2236 C 0.01601 0.83938 0.56497 0.0
C2237 C 0.03331 0.86068 0.5459 0.0
C2238 C 0.99976 0.84768 0.5589 0.0
C2239 C 1.00019 0.8623 0.54665 0.0
H2240 H 0.13345 0.71478 0.73587 0.0
H2241 H 0.14753 0.77189 0.73486 0.0
H2242 H 0.12339 0.77769 0.71256 0.0
H2243 H 0.09827 0.76659 0.69332 0.0
H2244 H 0.08332 0.70965 0.69531 0.0
H2245 H 0.108 0.70373 0.71685 0.0
C2246 C 0.1313 0.72846 0.73065 0.0
C2247 C 0.14226 0.74288 0.73705 0.0
C2248 C 0.11727 0.73174 0.71791 0.0
C2249 C 0.13917 0.76058 0.73031 0.0
C2250 C 0.1254 0.7639 0.7175 0.0
C2251 C 0.10024 0.7529 0.69858 0.0
C2252 C 0.08888 0.73861 0.69254 0.0
C2253 C 0.1143 0.74961 0.71126 0.0
C2254 C 0.09197 0.72091 0.69937 0.0
C2255 C 0.10603 0.7175 0.71184 0.0
H2256 H 0.98167 0.63419 0.51178 0.0
H2257 H 0.96924 0.59948 0.55773 0.0
H2258 H 0.97494 0.62471 0.57868 0.0
H2259 H 0.98339 0.65665 0.58406 0.0
H2260 H 0.9958 0.69152 0.53826 0.0
H2261 H 0.99057 0.66616 0.51724 0.0
C2262 C 0.98039 0.6321 0.52639 0.0
C2263 C 0.97491 0.61496 0.53313 0.0
C2264 C 0.98373 0.6467 0.53842 0.0
C2265 C 0.97314 0.61258 0.55212 0.0
C2266 C 0.97649 0.62699 0.56414 0.0
C2267 C 0.9848 0.65875 0.56947 0.0
C2268 C 0.98995 0.676 0.56278 0.0
C2269 C 0.98168 0.64413 0.55745 0.0
C2270 C 0.99204 0.67836 0.54383 0.0
C2271 C 0.98896 0.66388 0.53177 0.0
H2272 H 0.7762 0.87461 0.21372 0.0
H2273 H 0.77747 0.8611 0.27107 0.0
H2274 H 0.79957 0.88539 0.27656 0.0
H2275 H 0.81834 0.91067 0.2652 0.0
H2276 H 0.81677 0.92459 0.20794 0.0
H2277 H 0.79542 0.89967 0.20225 0.0
C2278 C 0.78147 0.87686 0.22738 0.0
C2279 C 0.77509 0.86609 0.24197 0.0
C2280 C 0.7942 0.89089 0.23047 0.0
C2281 C 0.78191 0.86935 0.25963 0.0
C2282 C 0.79463 0.88318 0.26278 0.0
C2283 C 0.81324 0.90836 0.25149 0.0
C2284 C 0.81919 0.91956 0.23705 0.0
C2285 C 0.80078 0.89413 0.24833 0.0
C2286 C 0.81265 0.91608 0.2193 0.0
C2287 C 0.80032 0.90189 0.21604 0.0
H2288 H 0.75963 0.12127 0.27233 0.0
H2289 H 0.80259 0.1606 0.2807 0.0
H2290 H 0.82549 0.13647 0.27806 0.0
H2291 H 0.83335 0.10429 0.27247 0.0
H2292 H 0.79015 0.06495 0.26489 0.0
H2293 H 0.76741 0.08902 0.26772 0.0
C2294 C 0.77401 0.12457 0.27347 0.0
C2295 C 0.77938 0.14273 0.27663 0.0
C2296 C 0.7871 0.11064 0.27194 0.0
C2297 C 0.79807 0.14672 0.2784 0.0
C2298 C 0.81118 0.13294 0.27681 0.0
C2299 C 0.81896 0.10092 0.27165 0.0
C2300 C 0.81356 0.08277 0.26829 0.0
C2301 C 0.80586 0.11484 0.27351 0.0
C2302 C 0.7948 0.07879 0.26707 0.0
C2303 C 0.78174 0.09255 0.26882 0.0
H2304 H 0.37676 0.99578 0.97687 0.0
H2305 H 0.41413 0.95041 0.97955 0.0
H2306 H 0.38882 0.92967 0.98612 0.0
H2307 H 0.35596 0.92436 0.99067 0.0
H2308 H 0.31846 0.96953 0.98685 0.0
H2309 H 0.34386 0.99043 0.98116 0.0
C2310 C 0.37933 0.98137 0.97903 0.0
C2311 C 0.39725 0.97462 0.97777 0.0
C2312 C 0.36469 0.96949 0.98253 0.0
C2313 C 0.40041 0.95588 0.98033 0.0
C2314 C 0.38597 0.94404 0.98414 0.0
C2315 C 0.35341 0.9388 0.98871 0.0
C2316 C 0.3354 0.94542 0.9892 0.0
C2317 C 0.36804 0.95068 0.98521 0.0
C2318 C 0.33221 0.96411 0.98639 0.0
C2319 C 0.34672 0.97606 0.9832 0.0
H2320 H 0.23332 0.37469 0.29605 0.0
H2321 H 0.23095 0.36135 0.23869 0.0
H2322 H 0.20935 0.38618 0.23354 0.0
H2323 H 0.19161 0.41212 0.24516 0.0
H2324 H 0.19351 0.42519 0.30259 0.0
H2325 H 0.21478 0.40007 0.30785 0.0
C2326 C 0.22791 0.37708 0.28246 0.0
C2327 C 0.23383 0.3662 0.26777 0.0
C2328 C 0.21546 0.39141 0.27958 0.0
C2329 C 0.22686 0.36967 0.2502 0.0
C2330 C 0.21443 0.38382 0.24725 0.0
C2331 C 0.19649 0.40934 0.25887 0.0
C2332 C 0.19097 0.42058 0.27344 0.0
C2333 C 0.20871 0.39484 0.26181 0.0
C2334 C 0.19771 0.41693 0.29107 0.0
C2335 C 0.2098 0.4025 0.29411 0.0
H2336 H 0.12584 0.02639 0.50693 0.0
H2337 H 0.1303 0.02386 0.44822 0.0
H2338 H 0.15597 0.0451 0.44908 0.0
H2339 H 0.17734 0.06428 0.4665 0.0
H2340 H 0.17323 0.06624 0.52527 0.0
H2341 H 0.1473 0.04539 0.52435 0.0
C2342 C 0.13252 0.03036 0.49433 0.0
C2343 C 0.12612 0.0235 0.47754 0.0
C2344 C 0.14734 0.04254 0.49491 0.0
C2345 C 0.13478 0.02907 0.46132 0.0
C2346 C 0.14954 0.04115 0.4618 0.0
C2347 C 0.17086 0.06004 0.47912 0.0
C2348 C 0.17726 0.06688 0.49592 0.0
C2349 C 0.15597 0.04794 0.47852 0.0
C2350 C 0.16848 0.06143 0.51212 0.0
C2351 C 0.1537 0.04939 0.51162 0.0
H2352 H 0.74899 0.12763 0.73468 0.0
H2353 H 0.70293 0.16228 0.72245 0.0
H2354 H 0.68209 0.13695 0.72792 0.0
H2355 H 0.67686 0.10478 0.7356 0.0
H2356 H 0.72268 0.07013 0.74841 0.0
H2357 H 0.74363 0.09566 0.74363 0.0
C2358 C 0.73438 0.1297 0.73345 0.0
C2359 C 0.72759 0.14682 0.72797 0.0
C2360 C 0.72241 0.11506 0.73671 0.0
C2361 C 0.70859 0.14918 0.7263 0.0
C2362 C 0.69663 0.13472 0.72951 0.0
C2363 C 0.69144 0.10281 0.73725 0.0
C2364 C 0.6982 0.08557 0.74226 0.0
C2365 C 0.70339 0.11755 0.73452 0.0
C2366 C 0.71712 0.0833 0.74467 0.0
C2367 C 0.72911 0.09788 0.74187 0.0
H2368 H 0.40873 0.04931 0.53656 0.0
H2369 H 0.3783 0.99926 0.53088 0.0
H2370 H 0.3506 0.01657 0.52417 0.0
H2371 H 0.33501 0.04595 0.51966 0.0
H2372 H 0.36544 0.09602 0.52519 0.0
H2373 H 0.39309 0.07871 0.53218 0.0
C2374 C 0.396 0.04221 0.534 0.0
C2375 C 0.39561 0.02301 0.53423 0.0
C2376 C 0.38011 0.05226 0.53005 0.0
C2377 C 0.37904 0.01401 0.53061 0.0
C2378 C 0.36317 0.02391 0.52685 0.0
C2379 C 0.34766 0.05307 0.52254 0.0
C2380 C 0.34813 0.07226 0.52189 0.0
C2381 C 0.36354 0.04303 0.52649 0.0
C2382 C 0.36472 0.08126 0.52539 0.0
C2383 C 0.38053 0.07138 0.52948 0.0
H2384 H 0.63495 0.50147 0.5196 0.0
H2385 H 0.59646 0.45896 0.53286 0.0
H2386 H 0.6204 0.43599 0.52947 0.0
H2387 H 0.65231 0.42795 0.52268 0.0
H2388 H 0.69056 0.47053 0.50888 0.0
H2389 H 0.66666 0.49344 0.51246 0.0
C2390 C 0.63174 0.48717 0.52157 0.0
C2391 C 0.61391 0.48198 0.52646 0.0
C2392 C 0.64555 0.47402 0.51953 0.0
C2393 C 0.61011 0.46338 0.5293 0.0
C2394 C 0.62377 0.45022 0.52725 0.0
C2395 C 0.65537 0.44223 0.5203 0.0
C2396 C 0.67323 0.4475 0.51556 0.0
C2397 C 0.64154 0.45537 0.52235 0.0
C2398 C 0.67701 0.4661 0.51278 0.0
C2399 C 0.66332 0.47922 0.51473 0.0
H2400 H 0.74451 0.25863 0.38716 0.0
H2401 H 0.72574 0.29995 0.34954 0.0
H2402 H 0.72743 0.32284 0.37366 0.0
H2403 H 0.73431 0.33123 0.40543 0.0
H2404 H 0.7547 0.29018 0.44251 0.0
H2405 H 0.75233 0.26719 0.41858 0.0
C2406 C 0.74099 0.27268 0.38413 0.0
C2407 C 0.73497 0.27747 0.36649 0.0
C2408 C 0.74224 0.28587 0.398 0.0
C2409 C 0.73014 0.29573 0.36302 0.0
C2410 C 0.73123 0.3089 0.37678 0.0
C2411 C 0.73844 0.31731 0.40825 0.0
C2412 C 0.7446 0.31251 0.42585 0.0
C2413 C 0.73728 0.30413 0.39433 0.0
C2414 C 0.7496 0.29428 0.42924 0.0
C2415 C 0.74838 0.28111 0.41551 0.0
H2416 H 0.53724 0.05581 0.88757 0.0
H2417 H 0.53274 0.99901 0.90251 0.0
H2418 H 0.55212 0.99053 0.87685 0.0
H2419 H 0.56991 0.99909 0.84983 0.0
H2420 H 0.57602 0.05602 0.83596 0.0
H2421 H 0.55647 0.0645 0.86151 0.0
C2422 C 0.54068 0.04159 0.8854 0.0
C2423 C 0.53335 0.02809 0.89696 0.0
C2424 C 0.55207 0.03678 0.87071 0.0
C2425 C 0.53783 0.0097 0.89368 0.0
C2426 C 0.54903 0.00482 0.87905 0.0
C2427 C 0.56722 0.01338 0.8525 0.0
C2428 C 0.57441 0.02684 0.84081 0.0
C2429 C 0.55617 0.01823 0.86742 0.0
C2430 C 0.57043 0.04528 0.84444 0.0
C2431 C 0.55934 0.05019 0.85916 0.0
H2432 H 0.28254 0.21603 0.35673 0.0
H2433 H 0.27059 0.26326 0.38981 0.0
H2434 H 0.26732 0.24391 0.41671 0.0
H2435 H 0.26773 0.21361 0.43093 0.0
H2436 H 0.27963 0.16626 0.39804 0.0
H2437 H 0.28341 0.18564 0.37114 0.0
C2438 C 0.2794 0.2221 0.36986 0.0
C2439 C 0.2767 0.24108 0.37117 0.0
C2440 C 0.27757 0.21087 0.38535 0.0
C2441 C 0.27245 0.24868 0.3883 0.0
C2442 C 0.27066 0.23763 0.40374 0.0
C2443 C 0.271 0.2075 0.41785 0.0
C2444 C 0.27333 0.18848 0.41654 0.0
C2445 C 0.27307 0.2187 0.40241 0.0
C2446 C 0.27792 0.18086 0.39952 0.0
C2447 C 0.28 0.19193 0.38409 0.0
H2448 H 0.49919 0.4891 0.87166 0.0
H2449 H 0.45744 0.47806 0.91169 0.0
H2450 H 0.43391 0.48109 0.88821 0.0
H2451 H 0.42512 0.48684 0.85622 0.0
H2452 H 0.46696 0.49822 0.81637 0.0
H2453 H 0.49043 0.49511 0.83983 0.0
C2454 C 0.48493 0.48753 0.8753 0.0
C2455 C 0.48014 0.48338 0.89345 0.0
C2456 C 0.47145 0.4893 0.86172 0.0
C2457 C 0.46158 0.48107 0.89781 0.0
C2458 C 0.44808 0.48289 0.8844 0.0
C2459 C 0.43936 0.48878 0.8527 0.0
C2460 C 0.44422 0.49272 0.8345 0.0
C2461 C 0.45285 0.487 0.8663 0.0
C2462 C 0.4628 0.49494 0.83017 0.0
C2463 C 0.47625 0.49327 0.84362 0.0
H2464 H 0.72602 0.71672 0.15245 0.0
H2465 H 0.73664 0.76437 0.11954 0.0
H2466 H 0.73944 0.74532 0.09236 0.0
H2467 H 0.73908 0.71519 0.07791 0.0
H2468 H 0.72931 0.66729 0.11077 0.0
H2469 H 0.72553 0.68639 0.13783 0.0
C2470 C 0.72879 0.72293 0.13929 0.0
C2471 C 0.73121 0.74194 0.13806 0.0
C2472 C 0.73047 0.71186 0.12367 0.0
C2473 C 0.73497 0.74975 0.12093 0.0
C2474 C 0.73649 0.73888 0.10535 0.0
C2475 C 0.73631 0.70887 0.09101 0.0
C2476 C 0.73455 0.68978 0.09223 0.0
C2477 C 0.7344 0.71991 0.10658 0.0
C2478 C 0.73054 0.68194 0.10931 0.0
C2479 C 0.72849 0.69286 0.12485 0.0
H2480 H 0.96932 0.03294 0.11118 0.0
H2481 H 0.01696 0.02691 0.14534 0.0
H2482 H 0.99755 0.0225 0.17207 0.0
H2483 H 0.96709 0.01949 0.18566 0.0
H2484 H 0.91936 0.02572 0.15166 0.0
H2485 H 0.93874 0.03087 0.12502 0.0
C2486 C 0.97545 0.03087 0.12451 0.0
C2487 C 0.99458 0.03018 0.12621 0.0
C2488 C 0.96419 0.02826 0.13986 0.0
C2489 C 1.00228 0.02726 0.14358 0.0
C2490 C 0.99119 0.0248 0.1589 0.0
C2491 C 0.9609 0.0222 0.17247 0.0
C2492 C 0.94177 0.02218 0.17071 0.0
C2493 C 0.97213 0.02515 0.15719 0.0
C2494 C 0.93403 0.02542 0.15341 0.0
C2495 C 0.94511 0.02846 0.13816 0.0
H2496 H 0.29485 0.79736 0.14923 0.0
H2497 H 0.27583 0.74908 0.12133 0.0
H2498 H 0.26823 0.76727 0.09452 0.0
H2499 H 0.26646 0.79691 0.07909 0.0
H2500 H 0.28715 0.84492 0.10627 0.0
H2501 H 0.29455 0.82679 0.13317 0.0
C2502 C 0.28927 0.79075 0.13722 0.0
C2503 C 0.28581 0.77186 0.13744 0.0
C2504 C 0.28511 0.80126 0.12169 0.0
C2505 C 0.27833 0.76363 0.12175 0.0
C2506 C 0.27407 0.77401 0.10633 0.0
C2507 C 0.27281 0.80341 0.09078 0.0
C2508 C 0.27609 0.82233 0.09059 0.0
C2509 C 0.27732 0.79285 0.10616 0.0
C2510 C 0.28409 0.83048 0.10607 0.0
C2511 C 0.28848 0.82008 0.12146 0.0
H2512 H 0.04589 0.46992 0.1109 0.0
H2513 H 0.99743 0.48891 0.13854 0.0
H2514 H 0.01549 0.49601 0.16562 0.0
H2515 H 0.04494 0.49638 0.18171 0.0
H2516 H 0.09289 0.47523 0.15473 0.0
H2517 H 0.07507 0.46943 0.12725 0.0
C2518 C 0.03918 0.47541 0.12289 0.0
C2519 C 0.02025 0.47884 0.12255 0.0
C2520 C 0.04958 0.47912 0.1386 0.0
C2521 C 0.01198 0.48636 0.13819 0.0
C2522 C 0.02229 0.4903 0.15379 0.0
C2523 C 0.0515 0.49031 0.16992 0.0
C2524 C 0.07033 0.48634 0.17041 0.0
C2525 C 0.04108 0.48665 0.15419 0.0
C2526 C 0.07854 0.47878 0.15477 0.0
C2527 C 0.06832 0.4753 0.13903 0.0
H2528 H 0.36539 0.74499 0.27622 0.0
H2529 H 0.37595 0.68718 0.27336 0.0
H2530 H 0.40294 0.6909 0.29262 0.0
H2531 H 0.42342 0.71047 0.31043 0.0
H2532 H 0.41228 0.76817 0.31433 0.0
H2533 H 0.38595 0.76464 0.29422 0.0
C2534 C 0.37371 0.73325 0.2797 0.0
C2535 C 0.36864 0.71584 0.27341 0.0
C2536 C 0.38915 0.73546 0.29093 0.0
C2537 C 0.37944 0.70071 0.27819 0.0
C2538 C 0.39491 0.70283 0.28915 0.0
C2539 C 0.41515 0.72227 0.30706 0.0
C2540 C 0.41991 0.73956 0.31395 0.0
C2541 C 0.39982 0.72011 0.29571 0.0
C2542 C 0.40916 0.75472 0.30907 0.0
C2543 C 0.39399 0.75271 0.29765 0.0
H2544 H 0.97003 0.40469 0.96137 0.0
H2545 H 0.97659 0.37358 0.01096 0.0
H2546 H 0.98339 0.34624 0.99311 0.0
H2547 H 0.98714 0.33106 0.96337 0.0
H2548 H 0.9806 0.3622 0.91379 0.0
H2549 H 0.97412 0.38961 0.93165 0.0
C2550 C 0.97284 0.39189 0.96826 0.0
C2551 C 0.97274 0.39117 0.98747 0.0
C2552 C 0.97675 0.37623 0.95791 0.0
C2553 C 0.97673 0.37455 0.99619 0.0
C2554 C 0.98052 0.35889 0.98599 0.0
C2555 C 0.98418 0.34382 0.95648 0.0
C2556 C 0.98431 0.34457 0.93727 0.0
C2557 C 0.98051 0.35955 0.96684 0.0
C2558 C 0.98075 0.36129 0.92856 0.0
C2559 C 0.97695 0.37695 0.93876 0.0
H2560 H 0.63799 0.74735 0.27585 0.0
H2561 H 0.6322 0.80587 0.27348 0.0
H2562 H 0.60626 0.80437 0.29435 0.0
H2563 H 0.58519 0.78649 0.31331 0.0
H2564 H 0.59071 0.72794 0.31553 0.0
H2565 H 0.61675 0.72941 0.29474 0.0
C2566 C 0.63096 0.75975 0.27979 0.0
C2567 C 0.63707 0.7767 0.2731 0.0
C2568 C 0.61602 0.7588 0.29182 0.0
C2569 C 0.62794 0.79267 0.27858 0.0
C2570 C 0.61304 0.79182 0.29045 0.0
C2571 C 0.592 0.77403 0.30913 0.0
C2572 C 0.58598 0.75713 0.31599 0.0
C2573 C 0.60696 0.77497 0.29716 0.0
C2574 C 0.59517 0.74115 0.31065 0.0
C2575 C 0.61001 0.74197 0.29867 0.0
H2576 H 0.01668 0.14076 1.00476 0.0
H2577 H 0.02321 0.10091 0.9619 0.0
H2578 H 0.02052 0.12485 0.93887 0.0
H2579 H 0.01696 0.15718 0.93086 0.0
H2580 H 0.00997 0.19704 0.97366 0.0
H2581 H 0.01229 0.17307 0.99669 0.0
C2582 C 0.01729 0.13729 0.99038 0.0
C2583 C 0.02018 0.11906 0.98509 0.0
C2584 C 0.0158 0.15116 0.97717 0.0
C2585 C 0.02121 0.11486 0.96637 0.0
C2586 C 0.01961 0.12853 0.95317 0.0
C2587 C 0.01575 0.16062 0.94521 0.0
C2588 C 0.01335 0.17893 0.95047 0.0
C2589 C 0.01701 0.14674 0.95841 0.0
C2590 C 0.01211 0.18312 0.96919 0.0
C2591 C 0.01331 0.16939 0.98239 0.0
H2592 H 0.38817 0.26535 0.25152 0.0
H2593 H 0.34924 0.27708 0.20881 0.0
H2594 H 0.37312 0.27377 0.18584 0.0
H2595 H 0.40505 0.26725 0.17774 0.0
H2596 H 0.44384 0.25509 0.22041 0.0
H2597 H 0.41997 0.25848 0.24341 0.0
C2598 C 0.38484 0.26699 0.23718 0.0
C2599 C 0.3669 0.27153 0.23197 0.0
C2600 C 0.39862 0.26492 0.22397 0.0
C2601 C 0.36296 0.27387 0.21329 0.0
C2602 C 0.3766 0.27187 0.2001 0.0
C2603 C 0.4083 0.26546 0.19208 0.0
C2604 C 0.42621 0.26087 0.1973 0.0
C2605 C 0.39449 0.26744 0.20527 0.0
C2606 C 0.43012 0.25838 0.21596 0.0
C2607 C 0.4165 0.26041 0.22915 0.0
H2608 H 0.50122 0.39033 0.03042 0.0
H2609 H 0.55627 0.37669 0.01473 0.0
H2610 H 0.55594 0.35049 0.0354 0.0
H2611 H 0.53996 0.33136 0.05791 0.0
H2612 H 0.48518 0.3454 0.07422 0.0
H2613 H 0.48544 0.37152 0.05343 0.0
C2614 C 0.51309 0.38154 0.03148 0.0
C2615 C 0.52873 0.38541 0.02102 0.0
C2616 C 0.51286 0.3666 0.04354 0.0
C2617 C 0.54412 0.37407 0.02272 0.0
C2618 C 0.54391 0.35906 0.03449 0.0
C2619 C 0.52806 0.34011 0.05684 0.0
C2620 C 0.51256 0.33642 0.06756 0.0
C2621 C 0.52836 0.35518 0.04496 0.0
C2622 C 0.49734 0.34803 0.06623 0.0
C2623 C 0.49744 0.36291 0.05428 0.0
H2624 H 0.62309 0.23793 0.25186 0.0
H2625 H 0.66263 0.22792 0.2094 0.0
H2626 H 0.63882 0.231 0.1862 0.0
H2627 H 0.6067 0.23675 0.17793 0.0
H2628 H 0.56726 0.24673 0.22049 0.0
H2629 H 0.59107 0.24356 0.24365 0.0
C2630 C 0.62652 0.23655 0.23752 0.0
C2631 C 0.64464 0.23275 0.23239 0.0
C2632 C 0.61276 0.23834 0.22425 0.0
C2633 C 0.64878 0.23067 0.21375 0.0
C2634 C 0.63518 0.23254 0.20046 0.0
C2635 C 0.60337 0.23836 0.19227 0.0
C2636 C 0.58523 0.24197 0.19747 0.0
C2637 C 0.61713 0.23642 0.20554 0.0
C2638 C 0.58107 0.24376 0.21613 0.0
C2639 C 0.5947 0.24202 0.22938 0.0
H2640 H 0.49965 0.11513 0.02673 0.0
H2641 H 0.44145 0.12433 0.02673 0.0
H2642 H 0.44543 0.1508 0.04649 0.0
H2643 H 0.46527 0.17087 0.06447 0.0
H2644 H 0.52362 0.16261 0.06339 0.0
H2645 H 0.51968 0.13627 0.04343 0.0
C2646 C 0.48785 0.12306 0.03084 0.0
C2647 C 0.47026 0.11759 0.02532 0.0
C2648 C 0.49023 0.13839 0.04214 0.0
C2649 C 0.45513 0.12796 0.03101 0.0
C2650 C 0.45739 0.14319 0.04225 0.0
C2651 C 0.47718 0.1635 0.05968 0.0
C2652 C 0.49471 0.16875 0.06559 0.0
C2653 C 0.47486 0.14846 0.04801 0.0
C2654 C 0.50992 0.15876 0.05941 0.0
C2655 C 0.5077 0.14373 0.04786 0.0
H2656 H 0.25415 0.38508 0.74239 0.0
H2657 H 0.29651 0.34577 0.73117 0.0
H2658 H 0.3197 0.36948 0.7345 0.0
H2659 H 0.32802 0.40137 0.74096 0.0
H2660 H 0.2855 0.44067 0.75179 0.0
H2661 H 0.26243 0.41692 0.74867 0.0
C2662 C 0.26846 0.38165 0.74085 0.0
C2663 C 0.27354 0.36364 0.73654 0.0
C2664 C 0.28175 0.39536 0.74281 0.0
C2665 C 0.29217 0.35955 0.73428 0.0
C2666 C 0.30546 0.37309 0.73628 0.0
C2667 C 0.31371 0.40479 0.74249 0.0
C2668 C 0.30859 0.42282 0.74672 0.0
C2669 C 0.30042 0.39106 0.74051 0.0
C2670 C 0.28993 0.42689 0.74887 0.0
C2671 C 0.27668 0.41332 0.74696 0.0
H2672 H 0.2547 0.62424 0.76793 0.0
H2673 H 0.29789 0.66256 0.77936 0.0
H2674 H 0.32052 0.63824 0.7767 0.0
H2675 H 0.32811 0.60606 0.77101 0.0
H2676 H 0.28481 0.56765 0.76009 0.0
H2677 H 0.26228 0.59205 0.76232 0.0
C2678 C 0.26908 0.6273 0.76966 0.0
C2679 C 0.27456 0.64521 0.77386 0.0
C2680 C 0.28204 0.61322 0.76816 0.0
C2681 C 0.29326 0.64887 0.77632 0.0
C2682 C 0.30622 0.63497 0.77473 0.0
C2683 C 0.31373 0.60298 0.76928 0.0
C2684 C 0.30823 0.58501 0.76532 0.0
C2685 C 0.30078 0.61708 0.77073 0.0
C2686 C 0.28952 0.58138 0.76287 0.0
C2687 C 0.27658 0.59531 0.76425 0.0
H2688 H 0.87559 0.49879 0.48548 0.0
H2689 H 0.91071 0.454 0.47036 0.0
H2690 H 0.88586 0.4325 0.47545 0.0
H2691 H 0.85395 0.42643 0.48324 0.0
H2692 H 0.819 0.47093 0.49959 0.0
H2693 H 0.84395 0.49246 0.4949 0.0
C2694 C 0.87787 0.48431 0.48353 0.0
C2695 C 0.89497 0.47808 0.47738 0.0
C2696 C 0.86351 0.47194 0.48657 0.0
C2697 C 0.89761 0.45925 0.47475 0.0
C2698 C 0.88342 0.4469 0.47775 0.0
C2699 C 0.85182 0.44079 0.48605 0.0
C2700 C 0.83454 0.44699 0.49168 0.0
C2701 C 0.86628 0.45311 0.4835 0.0
C2702 C 0.83203 0.46575 0.49493 0.0
C2703 C 0.84634 0.47809 0.49238 0.0
H2704 H 0.75443 0.88649 0.76719 0.0
H2705 H 0.71198 0.84687 0.77683 0.0
H2706 H 0.68883 0.87071 0.77419 0.0
H2707 H 0.68061 0.90295 0.76953 0.0
H2708 H 0.72309 0.94245 0.75956 0.0
H2709 H 0.74619 0.91856 0.76189 0.0
C2710 C 0.74011 0.88303 0.76851 0.0
C2711 C 0.73499 0.86489 0.77222 0.0
C2712 C 0.72684 0.89682 0.76698 0.0
C2713 C 0.71635 0.86074 0.77419 0.0
C2714 C 0.70307 0.87436 0.7726 0.0
C2715 C 0.69491 0.90629 0.7677 0.0
C2716 C 0.70008 0.9245 0.76445 0.0
C2717 C 0.70816 0.89246 0.76905 0.0
C2718 C 0.71872 0.92862 0.76234 0.0
C2719 C 0.73195 0.91493 0.76357 0.0
H2720 H 0.6067 0.541 0.97755 0.0
H2721 H 0.64261 0.49439 0.97742 0.0
H2722 H 0.66905 0.51437 0.98092 0.0
H2723 H 0.68192 0.54497 0.98532 0.0
H2724 H 0.64613 0.59169 0.98609 0.0
H2725 H 0.61976 0.57186 0.98112 0.0
C2726 C 0.62034 0.53528 0.97807 0.0
C2727 C 0.62269 0.51624 0.97728 0.0
C2728 C 0.63551 0.54686 0.98035 0.0
C2729 C 0.64043 0.50898 0.97819 0.0
C2730 C 0.65556 0.5204 0.98015 0.0
C2731 C 0.66837 0.55084 0.98417 0.0
C2732 C 0.66602 0.5698 0.9861 0.0
C2733 C 0.65326 0.53934 0.98145 0.0
C2734 C 0.64832 0.57713 0.98486 0.0
C2735 C 0.63323 0.5658 0.98194 0.0
H2736 H 0.24656 0.62385 0.23235 0.0
H2737 H 0.20111 0.65863 0.21827 0.0
H2738 H 0.17993 0.63361 0.22392 0.0
H2739 H 0.17423 0.60178 0.23267 0.0
H2740 H 0.21947 0.5672 0.24762 0.0
H2741 H 0.24076 0.59231 0.24219 0.0
C2742 C 0.23201 0.62605 0.23075 0.0
C2743 C 0.2255 0.64311 0.22474 0.0
C2744 C 0.21984 0.61163 0.2342 0.0
C2745 C 0.20658 0.64558 0.22253 0.0
C2746 C 0.19442 0.6313 0.22586 0.0
C2747 C 0.18876 0.59973 0.23464 0.0
C2748 C 0.19527 0.58265 0.24046 0.0
C2749 C 0.2009 0.61424 0.23157 0.0
C2750 C 0.21411 0.58027 0.24326 0.0
C2751 C 0.22629 0.5946 0.24009 0.0
H2752 H 0.89749 0.55232 0.03787 0.0
H2753 H 0.86818 0.50194 0.02964 0.0
H2754 H 0.84038 0.51898 0.02268 0.0
H2755 H 0.82428 0.54821 0.01906 0.0
H2756 H 0.85352 0.59858 0.02754 0.0
H2757 H 0.88138 0.58155 0.03426 0.0
C2758 C 0.88498 0.54507 0.03468 0.0
C2759 C 0.88495 0.52587 0.03429 0.0
C2760 C 0.86901 0.55496 0.0307 0.0
C2761 C 0.86867 0.51671 0.02984 0.0
C2762 C 0.85273 0.52644 0.02596 0.0
C2763 C 0.83672 0.55546 0.02251 0.0
C2764 C 0.83678 0.57466 0.02279 0.0
C2765 C 0.85272 0.54557 0.02637 0.0
C2766 C 0.85311 0.58382 0.02702 0.0
C2767 C 0.86904 0.57409 0.03096 0.0
H2768 H 0.11129 0.97004 0.0384 0.0
H2769 H 0.13784 0.01305 0.008 0.0
H2770 H 0.1642 0.99358 1.00311 0.0
H2771 H 0.17965 0.96439 0.00699 0.0
H2772 H 0.15503 0.92264 0.0406 0.0
H2773 H 0.12804 0.94162 0.04454 0.0
C2774 C 0.12291 0.97533 0.03095 0.0
C2775 C 0.12227 0.99301 0.02337 0.0
C2776 C 0.13842 0.96423 0.02862 0.0
C2777 C 0.13753 0.99937 0.01357 0.0
C2778 C 0.15278 0.98829 0.01088 0.0
C2779 C 0.16862 0.95946 0.01551 0.0
C2780 C 0.16957 0.94193 0.02337 0.0
C2781 C 0.15334 0.97068 0.01828 0.0
C2782 C 0.15471 0.93583 0.03397 0.0
C2783 C 0.13926 0.94678 0.03641 0.0
loop_
_geom_bond_atom_site_label_1
_geom_bond_atom_site_label_2
_geom_bond_distance
_geom_bond_site_symmetry_2
_ccdc_geom_bond_type
C0 C1 1.391 . S
C0 C4 1.391 . S
C0 H42 0.948 . S
C1 C0 1.391 . S
C1 C2 1.423 . S
C2 C1 1.423 . S
C2 H58 0.942 1_456 S
C2 C59 1.364 1_556 S
C3 C4 1.391 1_554 S
C3 C7 1.397 . S
C3 C59 1.419 . S
C4 C0 1.391 . S
C4 C3 1.391 1_556 S
C4 C5 1.399 . S
C5 C4 1.399 . S
C5 C8 1.396 1_556 S
C5 C17 1.453 . S
C5 C18 1.684 . S
H6 C30 0.948 . S
C7 C3 1.397 . S
C7 C8 1.394 . S
C7 C26 1.723 . S
C8 C5 1.396 1_554 S
C8 C7 1.394 . S
C8 C38 1.723 . S
H9 C32 0.942 1_546 S
H10 C33 0.948 1_556 S
H11 C39 0.982 1_545 S
H12 C40 0.979 . S
H13 C40 0.980 . S
H14 C40 0.983 . S
H15 C39 0.979 . S
H16 C39 0.979 . S
C17 C5 1.453 . S
C17 H46 0.982 1_556 S
C17 H47 0.979 . S
C17 H48 0.979 . S
C18 C5 1.684 . S
C18 H43 0.979 . S
C18 H44 0.980 . S
C18 H45 0.983 . S
C19 C20 1.391 . S
C19 C24 1.391 . S
C19 H49 0.948 . S
C20 C19 1.391 . S
C20 C21 1.423 . S
C21 C20 1.423 . S
C21 C22 1.364 1_655 S
C21 H50 0.942 1_645 S
C22 C21 1.364 1_455 S
C22 C23 1.419 . S
C22 H51 0.948 1_545 S
C23 C22 1.419 . S
C23 C24 1.391 1_455 S
C23 C27 1.397 . S
C24 C19 1.391 . S
C24 C23 1.391 1_655 S
C24 C25 1.399 . S
C25 C24 1.399 . S
C25 C26 1.396 1_655 S
C25 C28 1.453 . S
C25 C29 1.684 . S
C26 C7 1.723 . S
C26 C25 1.396 1_455 S
C26 C27 1.394 . S
C27 C23 1.397 . S
C27 C26 1.394 . S
C27 C37 1.723 . S
C28 C25 1.453 . S
C28 H52 0.982 1_655 S
C28 H53 0.979 . S
C28 H54 0.979 . S
C29 C25 1.684 . S
C29 H55 0.979 . S
C29 H56 0.980 . S
C29 H57 0.983 . S
C30 H6 0.948 . S
C30 C31 1.391 . S
C30 C35 1.391 . S
C31 C30 1.391 . S
C31 C32 1.423 . S
C32 H9 0.942 1_564 S
C32 C31 1.423 . S
C32 C33 1.364 1_565 S
C33 H10 0.948 1_554 S
C33 C32 1.364 1_545 S
C33 C34 1.419 . S
C34 C33 1.419 . S
C34 C35 1.391 1_545 S
C34 C38 1.397 . S
C35 C30 1.391 . S
C35 C34 1.391 1_565 S
C35 C36 1.399 . S
C36 C35 1.399 . S
C36 C37 1.396 1_565 S
C36 C39 1.453 . S
C36 C40 1.684 . S
C37 C27 1.723 . S
C37 C36 1.396 1_545 S
C37 C38 1.394 . S
C38 C8 1.723 . S
C38 C34 1.397 . S
C38 C37 1.394 . S
C39 H11 0.982 1_565 S
C39 H15 0.979 . S
C39 H16 0.979 . S
C39 C36 1.453 . S
C40 H12 0.979 . S
C40 H13 0.980 . S
C40 H14 0.983 . S
C40 C36 1.684 . S
H41 C59 0.948 1_655 S
H42 C0 0.948 . S
H43 C18 0.979 . S
H44 C18 0.980 . S
H45 C18 0.983 . S
H46 C17 0.982 1_554 S
H47 C17 0.979 . S
H48 C17 0.979 . S
H49 C19 0.948 . S
H50 C21 0.942 1_465 S
H51 C22 0.948 1_565 S
H52 C28 0.982 1_455 S
H53 C28 0.979 . S
H54 C28 0.979 . S
H55 C29 0.979 . S
H56 C29 0.980 . S
H57 C29 0.983 . S
H58 C2 0.942 1_654 S
C59 C2 1.364 1_554 S
C59 C3 1.419 . S
C59 H41 0.948 1_455 S
C60 C61 1.391 . S
C60 C64 1.391 . S
C60 H102 0.948 . S
C61 C60 1.391 . S
C61 C62 1.391 . S
C62 C61 1.391 . S
C62 H118 0.947 . S
C62 C119 1.392 . S
C63 C64 1.391 . S
C63 C67 1.397 . S
C63 C119 1.419 . S
C64 C60 1.391 . S
C64 C63 1.391 . S
C64 C65 1.399 . S
C65 C64 1.399 . S
C65 C68 1.396 . S
C65 C77 1.453 . S
C65 C78 1.684 . S
H66 C90 0.948 . S
C67 C63 1.397 . S
C67 C68 1.394 . S
C67 C86 1.723 . S
C68 C65 1.396 . S
C68 C67 1.394 . S
C68 C98 1.723 . S
H69 C92 0.947 . S
H70 C93 0.948 . S
H71 C99 0.982 . S
H72 C100 0.979 . S
H73 C100 0.980 . S
H74 C100 0.983 . S
H75 C99 0.979 . S
H76 C99 0.977 . S
C77 C65 1.453 . S
C77 H106 0.982 . S
C77 H107 0.979 . S
C77 H108 0.977 . S
C78 C65 1.684 . S
C78 H103 0.979 . S
C78 H104 0.980 . S
C78 H105 0.983 . S
C79 C80 1.391 . S
C79 C84 1.391 . S
C79 H109 0.948 . S
C80 C79 1.391 . S
C80 C81 1.391 . S
C81 C80 1.391 . S
C81 C82 1.392 . S
C81 H110 0.947 . S
C82 C81 1.392 . S
C82 C83 1.419 . S
C82 H111 0.948 . S
C83 C82 1.419 . S
C83 C84 1.391 . S
C83 C87 1.397 . S
C84 C79 1.391 . S
C84 C83 1.391 . S
C84 C85 1.399 . S
C85 C84 1.399 . S
C85 C86 1.396 . S
C85 C88 1.453 . S
C85 C89 1.684 . S
C86 C67 1.723 . S
C86 C85 1.396 . S
C86 C87 1.394 . S
C87 C83 1.397 . S
C87 C86 1.394 . S
C87 C97 1.723 . S
C88 C85 1.453 . S
C88 H112 0.982 . S
C88 H113 0.979 . S
C88 H114 0.977 . S
C89 C85 1.684 . S
C89 H115 0.979 . S
C89 H116 0.980 . S
C89 H117 0.983 . S
C90 H66 0.948 . S
C90 C91 1.391 . S
C90 C95 1.391 . S
C91 C90 1.391 . S
C91 C92 1.391 . S
C92 H69 0.947 . S
C92 C91 1.391 . S
C92 C93 1.392 . S
C93 H70 0.948 . S
C93 C92 1.392 . S
C93 C94 1.419 . S
C94 C93 1.419 . S
C94 C95 1.391 . S
C94 C98 1.397 . S
C95 C90 1.391 . S
C95 C94 1.391 . S
C95 C96 1.399 . S
C96 C95 1.399 . S
C96 C97 1.396 . S
C96 C99 1.453 . S
C96 C100 1.684 . S
C97 C87 1.723 . S
C97 C96 1.396 . S
C97 C98 1.394 . S
C98 C68 1.723 . S
C98 C94 1.397 . S
C98 C97 1.394 . S
C99 H71 0.982 . S
C99 H75 0.979 . S
C99 H76 0.977 . S
C99 C96 1.453 . S
C100 H72 0.979 . S
C100 H73 0.980 . S
C100 H74 0.983 . S
C100 C96 1.684 . S
H101 C119 0.948 . S
H102 C60 0.948 . S
H103 C78 0.979 . S
H104 C78 0.980 . S
H105 C78 0.983 . S
H106 C77 0.982 . S
H107 C77 0.979 . S
H108 C77 0.977 . S
H109 C79 0.948 . S
H110 C81 0.947 . S
H111 C82 0.948 . S
H112 C88 0.982 . S
H113 C88 0.979 . S
H114 C88 0.977 . S
H115 C89 0.979 . S
H116 C89 0.980 . S
H117 C89 0.983 . S
H118 C62 0.947 . S
C119 C62 1.392 . S
C119 C63 1.419 . S
C119 H101 0.948 . S
C120 C121 1.391 . S
C120 C124 1.391 1_556 S
C120 H162 0.960 . S
C121 C120 1.391 . S
C121 C122 1.391 . S
C122 C121 1.391 . S
C122 H178 0.947 . S
C122 C179 1.392 . S
C123 C124 1.391 . S
C123 C127 1.397 . S
C123 C179 1.419 1_554 S
C124 C120 1.391 1_554 S
C124 C123 1.391 . S
C124 C125 1.399 . S
C125 C124 1.399 . S
C125 C128 1.396 . S
C125 C137 1.453 . S
C125 C138 1.684 1_655 S
H126 C150 0.955 . S
C127 C123 1.397 . S
C127 C128 1.394 . S
C127 C146 1.723 . S
C128 C125 1.396 . S
C128 C127 1.394 . S
C128 C158 1.723 . S
H129 C152 0.947 . S
H130 C153 0.948 . S
H131 C159 0.982 . S
H132 C160 0.979 . S
H133 C160 0.980 . S
H134 C160 0.983 . S
H135 C159 0.979 . S
H136 C159 0.977 . S
C137 C125 1.453 . S
C137 H166 0.982 . S
C137 H167 0.979 1_655 S
C137 H168 0.977 1_655 S
C138 C125 1.684 1_455 S
C138 H163 0.979 . S
C138 H164 0.980 . S
C138 H165 0.983 . S
C139 C140 1.391 . S
C139 C144 1.391 . S
C139 H169 0.954 . S
C140 C139 1.391 . S
C140 C141 1.391 . S
C141 C140 1.391 . S
C141 C142 1.392 . S
C141 H170 0.947 . S
C142 C141 1.392 . S
C142 C143 1.419 . S
C142 H171 0.948 . S
C143 C142 1.419 . S
C143 C144 1.391 . S
C143 C147 1.397 . S
C144 C139 1.391 . S
C144 C143 1.391 . S
C144 C145 1.399 . S
C145 C144 1.399 . S
C145 C146 1.396 . S
C145 C148 1.453 . S
C145 C149 1.684 1_554 S
C146 C127 1.723 . S
C146 C145 1.396 . S
C146 C147 1.394 . S
C147 C143 1.397 . S
C147 C146 1.394 . S
C147 C157 1.723 . S
C148 C145 1.453 . S
C148 H172 0.982 . S
C148 H173 0.979 1_554 S
C148 H174 0.977 1_554 S
C149 C145 1.684 1_556 S
C149 H175 0.979 . S
C149 H176 0.980 . S
C149 H177 0.983 . S
C150 H126 0.955 . S
C150 C151 1.391 . S
C150 C155 1.391 1_455 S
C151 C150 1.391 . S
C151 C152 1.391 . S
C152 H129 0.947 . S
C152 C151 1.391 . S
C152 C153 1.392 . S
C153 H130 0.948 . S
C153 C152 1.392 . S
C153 C154 1.419 1_455 S
C154 C153 1.419 1_655 S
C154 C155 1.391 . S
C154 C158 1.397 . S
C155 C150 1.391 1_655 S
C155 C154 1.391 . S
C155 C156 1.399 . S
C156 C155 1.399 . S
C156 C157 1.396 . S
C156 C159 1.453 . S
C156 C160 1.684 . S
C157 C147 1.723 . S
C157 C156 1.396 . S
C157 C158 1.394 . S
C158 C128 1.723 . S
C158 C154 1.397 . S
C158 C157 1.394 . S
C159 H131 0.982 . S
C159 H135 0.979 . S
C159 H136 0.977 . S
C159 C156 1.453 . S
C160 H132 0.979 . S
C160 H133 0.980 . S
C160 H134 0.983 . S
C160 C156 1.684 . S
H161 C179 0.948 . S
H162 C120 0.960 . S
H163 C138 0.979 . S
H164 C138 0.980 . S
H165 C138 0.983 . S
H166 C137 0.982 . S
H167 C137 0.979 1_455 S
H168 C137 0.977 1_455 S
H169 C139 0.954 . S
H170 C141 0.947 . S
H171 C142 0.948 . S
H172 C148 0.982 . S
H173 C148 0.979 1_556 S
H174 C148 0.977 1_556 S
H175 C149 0.979 . S
H176 C149 0.980 . S
H177 C149 0.983 . S
H178 C122 0.947 . S
C179 C122 1.392 . S
C179 C123 1.419 1_556 S
C179 H161 0.948 . S
C180 C181 1.391 . S
C180 C184 1.391 . S
C180 H222 0.948 . S
C181 C180 1.391 . S
C181 C182 1.391 . S
C182 C181 1.391 . S
C182 H238 0.947 . S
C182 C239 1.392 . S
C183 C184 1.391 . S
C183 C187 1.397 . S
C183 C239 1.419 . S
C184 C180 1.391 . S
C184 C183 1.391 . S
C184 C185 1.399 . S
C185 C184 1.399 . S
C185 C188 1.396 . S
C185 C197 1.453 . S
C185 C198 1.684 . S
H186 C210 0.948 . S
C187 C183 1.397 . S
C187 C188 1.394 . S
C187 C206 1.723 . S
C188 C185 1.396 . S
C188 C187 1.394 . S
C188 C218 1.723 . S
H189 C212 0.947 . S
H190 C213 0.948 . S
H191 C219 0.982 . S
H192 C220 0.979 . S
H193 C220 0.980 . S
H194 C220 0.983 . S
H195 C219 0.979 . S
H196 C219 0.977 . S
C197 C185 1.453 . S
C197 H226 0.982 . S
C197 H227 0.979 . S
C197 H228 0.977 . S
C198 C185 1.684 . S
C198 H223 0.979 . S
C198 H224 0.980 . S
C198 H225 0.983 . S
C199 C200 1.391 . S
C199 C204 1.391 . S
C199 H229 0.948 . S
C200 C199 1.391 . S
C200 C201 1.391 . S
C201 C200 1.391 . S
C201 C202 1.392 . S
C201 H230 0.947 . S
C202 C201 1.392 . S
C202 C203 1.419 . S
C202 H231 0.948 . S
C203 C202 1.419 . S
C203 C204 1.391 . S
C203 C207 1.397 . S
C204 C199 1.391 . S
C204 C203 1.391 . S
C204 C205 1.399 . S
C205 C204 1.399 . S
C205 C206 1.396 . S
C205 C208 1.453 . S
C205 C209 1.684 . S
C206 C187 1.723 . S
C206 C205 1.396 . S
C206 C207 1.394 . S
C207 C203 1.397 . S
C207 C206 1.394 . S
C207 C217 1.723 . S
C208 C205 1.453 . S
C208 H232 0.982 . S
C208 H233 0.979 . S
C208 H234 0.977 . S
C209 C205 1.684 . S
C209 H235 0.979 . S
C209 H236 0.980 . S
C209 H237 0.983 . S
C210 H186 0.948 . S
C210 C211 1.391 . S
C210 C215 1.391 . S
C211 C210 1.391 . S
C211 C212 1.391 . S
C212 H189 0.947 . S
C212 C211 1.391 . S
C212 C213 1.392 . S
C213 H190 0.948 . S
C213 C212 1.392 . S
C213 C214 1.419 . S
C214 C213 1.419 . S
C214 C215 1.391 . S
C214 C218 1.397 . S
C215 C210 1.391 . S
C215 C214 1.391 . S
C215 C216 1.399 . S
C216 C215 1.399 . S
C216 C217 1.396 . S
C216 C219 1.453 . S
C216 C220 1.684 . S
C217 C207 1.723 . S
C217 C216 1.396 . S
C217 C218 1.394 . S
C218 C188 1.723 . S
C218 C214 1.397 . S
C218 C217 1.394 . S
C219 H191 0.982 . S
C219 H195 0.979 . S
C219 H196 0.977 . S
C219 C216 1.453 . S
C220 H192 0.979 . S
C220 H193 0.980 . S
C220 H194 0.983 . S
C220 C216 1.684 . S
H221 C239 0.948 . S
H222 C180 0.948 . S
H223 C198 0.979 . S
H224 C198 0.980 . S
H225 C198 0.983 . S
H226 C197 0.982 . S
H227 C197 0.979 . S
H228 C197 0.977 . S
H229 C199 0.948 . S
H230 C201 0.947 . S
H231 C202 0.948 . S
H232 C208 0.982 . S
H233 C208 0.979 . S
H234 C208 0.977 . S
H235 C209 0.979 . S
H236 C209 0.980 . S
H237 C209 0.983 . S
H238 C182 0.947 . S
C239 C182 1.392 . S
C239 C183 1.419 . S
C239 H221 0.948 . S
C240 C241 1.391 . S
C240 C244 1.391 . S
C240 H282 0.948 . S
C241 C240 1.391 . S
C241 C242 1.391 . S
C242 C241 1.391 . S
C242 H298 0.947 1_455 S
C242 C299 1.392 . S
C243 C244 1.391 . S
C243 C247 1.397 . S
C243 C299 1.419 . S
C244 C240 1.391 . S
C244 C243 1.391 . S
C244 C245 1.399 . S
C245 C244 1.399 . S
C245 C248 1.396 . S
C245 C257 1.453 . S
C245 C258 1.684 . S
H246 C270 0.948 . S
C247 C243 1.397 . S
C247 C248 1.394 . S
C247 C266 1.723 . S
C248 C245 1.396 . S
C248 C247 1.394 . S
C248 C278 1.723 . S
H249 C272 0.947 . S
H250 C273 0.948 . S
H251 C279 0.982 . S
H252 C280 0.979 1_565 S
H253 C280 0.980 . S
H254 C280 0.983 . S
H255 C279 0.979 . S
H256 C279 0.977 . S
C257 C245 1.453 . S
C257 H286 0.982 . S
C257 H287 0.979 . S
C257 H288 0.977 . S
C258 C245 1.684 . S
C258 H283 0.979 . S
C258 H284 0.980 . S
C258 H285 0.983 . S
C259 C260 1.391 . S
C259 C264 1.391 . S
C259 H289 0.948 . S
C260 C259 1.391 . S
C260 C261 1.391 1_655 S
C261 C260 1.391 1_455 S
C261 C262 1.392 . S
C261 H290 0.947 1_565 S
C262 C261 1.392 . S
C262 C263 1.419 . S
C262 H291 0.969 . S
C263 C262 1.419 . S
C263 C264 1.391 1_455 S
C263 C267 1.397 . S
C264 C259 1.391 . S
C264 C263 1.391 1_655 S
C264 C265 1.399 . S
C265 C264 1.399 . S
C265 C266 1.400 1_655 S
C265 C268 1.449 . S
C265 C269 1.683 . S
C266 C247 1.723 . S
C266 C265 1.400 1_455 S
C266 C267 1.394 . S
C267 C263 1.397 . S
C267 C266 1.394 . S
C267 C277 1.723 . S
C268 C265 1.449 . S
C268 H292 0.982 . S
C268 H293 0.979 . S
C268 H294 0.977 . S
C269 C265 1.683 . S
C269 H295 0.979 1_655 S
C269 H296 0.980 . S
C269 H297 0.983 . S
C270 H246 0.948 . S
C270 C271 1.391 . S
C270 C275 1.391 . S
C271 C270 1.391 . S
C271 C272 1.391 1_545 S
C272 H249 0.947 . S
C272 C271 1.391 1_565 S
C272 C273 1.392 . S
C273 H250 0.948 . S
C273 C272 1.392 . S
C273 C274 1.419 . S
C274 C273 1.419 . S
C274 C275 1.391 1_565 S
C274 C278 1.397 . S
C275 C270 1.391 . S
C275 C274 1.391 1_545 S
C275 C276 1.399 . S
C276 C275 1.399 . S
C276 C277 1.399 1_545 S
C276 C279 1.450 . S
C276 C280 1.683 . S
C277 C267 1.723 . S
C277 C276 1.399 1_565 S
C277 C278 1.394 . S
C278 C248 1.723 . S
C278 C274 1.397 . S
C278 C277 1.394 . S
C279 H251 0.982 . S
C279 H255 0.979 . S
C279 H256 0.977 . S
C279 C276 1.450 . S
C280 H252 0.979 1_545 S
C280 H253 0.980 . S
C280 H254 0.983 . S
C280 C276 1.683 . S
H281 C299 0.969 . S
H282 C240 0.948 . S
H283 C258 0.979 . S
H284 C258 0.980 . S
H285 C258 0.983 . S
H286 C257 0.982 . S
H287 C257 0.979 . S
H288 C257 0.977 . S
H289 C259 0.948 . S
H290 C261 0.947 1_545 S
H291 C262 0.969 . S
H292 C268 0.982 . S
H293 C268 0.979 . S
H294 C268 0.977 . S
H295 C269 0.979 1_455 S
H296 C269 0.980 . S
H297 C269 0.983 . S
H298 C242 0.947 1_655 S
C299 C242 1.392 . S
C299 C243 1.419 . S
C299 H281 0.969 . S
C300 C301 1.391 . S
C300 C304 1.391 . S
C300 H342 0.948 . S
C301 C300 1.391 . S
C301 C302 1.391 . S
C302 C301 1.391 . S
C302 H358 0.947 . S
C302 C359 1.392 . S
C303 C304 1.391 . S
C303 C307 1.397 . S
C303 C359 1.419 . S
C304 C300 1.391 . S
C304 C303 1.391 . S
C304 C305 1.399 . S
C305 C304 1.399 . S
C305 C308 1.396 . S
C305 C317 1.453 . S
C305 C318 1.684 . S
H306 C330 0.948 . S
C307 C303 1.397 . S
C307 C308 1.394 . S
C307 C326 1.723 . S
C308 C305 1.396 . S
C308 C307 1.394 . S
C308 C338 1.723 . S
H309 C332 0.947 . S
H310 C333 0.948 . S
H311 C339 0.982 . S
H312 C340 0.979 . S
H313 C340 0.980 . S
H314 C340 0.983 . S
H315 C339 0.979 . S
H316 C339 0.977 . S
C317 C305 1.453 . S
C317 H346 0.982 . S
C317 H347 0.979 . S
C317 H348 0.977 . S
C318 C305 1.684 . S
C318 H343 0.979 . S
C318 H344 0.980 . S
C318 H345 0.983 . S
C319 C320 1.391 . S
C319 C324 1.391 . S
C319 H349 0.948 . S
C320 C319 1.391 . S
C320 C321 1.391 . S
C321 C320 1.391 . S
C321 C322 1.392 . S
C321 H350 0.947 . S
C322 C321 1.392 . S
C322 C323 1.419 . S
C322 H351 0.948 . S
C323 C322 1.419 . S
C323 C324 1.391 . S
C323 C327 1.397 . S
C324 C319 1.391 . S
C324 C323 1.391 . S
C324 C325 1.399 . S
C325 C324 1.399 . S
C325 C326 1.396 . S
C325 C328 1.453 . S
C325 C329 1.684 . S
C326 C307 1.723 . S
C326 C325 1.396 . S
C326 C327 1.394 . S
C327 C323 1.397 . S
C327 C326 1.394 . S
C327 C337 1.723 . S
C328 C325 1.453 . S
C328 H352 0.982 . S
C328 H353 0.979 . S
C328 H354 0.977 . S
C329 C325 1.684 . S
C329 H355 0.979 . S
C329 H356 0.980 . S
C329 H357 0.983 . S
C330 H306 0.948 . S
C330 C331 1.391 . S
C330 C335 1.391 . S
C331 C330 1.391 . S
C331 C332 1.391 . S
C332 H309 0.947 . S
C332 C331 1.391 . S
C332 C333 1.392 . S
C333 H310 0.948 . S
C333 C332 1.392 . S
C333 C334 1.419 . S
C334 C333 1.419 . S
C334 C335 1.391 . S
C334 C338 1.397 . S
C335 C330 1.391 . S
C335 C334 1.391 . S
C335 C336 1.399 . S
C336 C335 1.399 . S
C336 C337 1.396 . S
C336 C339 1.453 . S
C336 C340 1.684 . S
C337 C327 1.723 . S
C337 C336 1.396 . S
C337 C338 1.394 . S
C338 C308 1.723 . S
C338 C334 1.397 . S
C338 C337 1.394 . S
C339 H311 0.982 . S
C339 H315 0.979 . S
C339 H316 0.977 . S
C339 C336 1.453 . S
C340 H312 0.979 . S
C340 H313 0.980 . S
C340 H314 0.983 . S
C340 C336 1.684 . S
H341 C359 0.948 . S
H342 C300 0.948 . S
H343 C318 0.979 . S
H344 C318 0.980 . S
H345 C318 0.983 . S
H346 C317 0.982 . S
H347 C317 0.979 . S
H348 C317 0.977 . S
H349 C319 0.948 . S
H350 C321 0.947 . S
H351 C322 0.948 . S
H352 C328 0.982 . S
H353 C328 0.979 . S
H354 C328 0.977 . S
H355 C329 0.979 . S
H356 C329 0.980 . S
H357 C329 0.983 . S
H358 C302 0.947 . S
C359 C302 1.392 . S
C359 C303 1.419 . S
C359 H341 0.948 . S
C360 C361 1.391 . S
C360 C364 1.391 . S
C360 H402 0.948 . S
C361 C360 1.391 . S
C361 C362 1.391 . S
C362 C361 1.391 . S
C362 H418 0.947 . S
C362 C419 1.392 . S
C363 C364 1.391 . S
C363 C367 1.397 . S
C363 C419 1.419 . S
C364 C360 1.391 . S
C364 C363 1.391 . S
C364 C365 1.399 . S
C365 C364 1.399 . S
C365 C368 1.396 . S
C365 C377 1.453 . S
C365 C378 1.684 . S
H366 C390 0.953 . S
C367 C363 1.397 . S
C367 C368 1.394 . S
C367 C386 1.723 . S
C368 C365 1.396 . S
C368 C367 1.394 . S
C368 C398 1.723 . S
H369 C392 0.947 . S
H370 C393 0.948 . S
H371 C399 0.982 . S
H372 C400 0.979 . S
H373 C400 0.980 . S
H374 C400 0.983 . S
H375 C399 0.979 1_455 S
H376 C399 0.977 1_455 S
C377 C365 1.453 . S
C377 H406 0.982 . S
C377 H407 0.979 . S
C377 H408 0.977 . S
C378 C365 1.684 . S
C378 H403 0.979 . S
C378 H404 0.980 . S
C378 H405 0.983 . S
C379 C380 1.391 . S
C379 C384 1.391 1_455 S
C379 H409 0.955 . S
C380 C379 1.391 . S
C380 C381 1.391 . S
C381 C380 1.391 . S
C381 C382 1.392 . S
C381 H410 0.947 . S
C382 C381 1.392 . S
C382 C383 1.419 1_455 S
C382 H411 0.948 . S
C383 C382 1.419 1_655 S
C383 C384 1.391 . S
C383 C387 1.397 . S
C384 C379 1.391 1_655 S
C384 C383 1.391 . S
C384 C385 1.399 . S
C385 C384 1.399 . S
C385 C386 1.396 . S
C385 C388 1.453 . S
C385 C389 1.684 . S
C386 C367 1.723 . S
C386 C385 1.396 . S
C386 C387 1.394 . S
C387 C383 1.397 . S
C387 C386 1.394 . S
C387 C397 1.723 . S
C388 C385 1.453 . S
C388 H412 0.982 . S
C388 H413 0.979 . S
C388 H414 0.977 . S
C389 C385 1.684 . S
C389 H415 0.979 . S
C389 H416 0.980 . S
C389 H417 0.983 . S
C390 H366 0.953 . S
C390 C391 1.391 . S
C390 C395 1.391 . S
C391 C390 1.391 . S
C391 C392 1.391 . S
C392 H369 0.947 . S
C392 C391 1.391 . S
C392 C393 1.392 . S
C393 H370 0.948 . S
C393 C392 1.392 . S
C393 C394 1.419 . S
C394 C393 1.419 . S
C394 C395 1.391 . S
C394 C398 1.397 . S
C395 C390 1.391 . S
C395 C394 1.391 . S
C395 C396 1.399 . S
C396 C395 1.399 . S
C396 C397 1.396 . S
C396 C399 1.453 . S
C396 C400 1.684 1_655 S
C397 C387 1.723 . S
C397 C396 1.396 . S
C397 C398 1.394 . S
C398 C368 1.723 . S
C398 C394 1.397 . S
C398 C397 1.394 . S
C399 H371 0.982 . S
C399 H375 0.979 1_655 S
C399 H376 0.977 1_655 S
C399 C396 1.453 . S
C400 H372 0.979 . S
C400 H373 0.980 . S
C400 H374 0.983 . S
C400 C396 1.684 1_455 S
H401 C419 0.948 . S
H402 C360 0.948 . S
H403 C378 0.979 . S
H404 C378 0.980 . S
H405 C378 0.983 . S
H406 C377 0.982 . S
H407 C377 0.979 . S
H408 C377 0.977 . S
H409 C379 0.955 . S
H410 C381 0.947 . S
H411 C382 0.948 . S
H412 C388 0.982 . S
H413 C388 0.979 . S
H414 C388 0.977 . S
H415 C389 0.979 . S
H416 C389 0.980 . S
H417 C389 0.983 . S
H418 C362 0.947 . S
C419 C362 1.392 . S
C419 C363 1.419 . S
C419 H401 0.948 . S
C420 C421 1.391 . S
C420 C424 1.391 . S
C420 H462 0.948 . S
C421 C420 1.391 . S
C421 C422 1.391 . S
C422 C421 1.391 . S
C422 H478 0.947 . S
C422 C479 1.392 . S
C423 C424 1.391 . S
C423 C427 1.397 . S
C423 C479 1.419 . S
C424 C420 1.391 . S
C424 C423 1.391 . S
C424 C425 1.399 . S
C425 C424 1.399 . S
C425 C428 1.396 . S
C425 C437 1.453 . S
C425 C438 1.684 . S
H426 C450 0.948 . S
C427 C423 1.397 . S
C427 C428 1.394 . S
C427 C446 1.723 . S
C428 C425 1.396 . S
C428 C427 1.394 . S
C428 C458 1.723 . S
H429 C452 0.947 . S
H430 C453 0.948 . S
H431 C459 0.982 . S
H432 C460 0.979 . S
H433 C460 0.980 . S
H434 C460 0.983 . S
H435 C459 0.979 . S
H436 C459 0.977 . S
C437 C425 1.453 . S
C437 H466 0.982 . S
C437 H467 0.979 . S
C437 H468 0.977 . S
C438 C425 1.684 . S
C438 H463 0.979 . S
C438 H464 0.980 . S
C438 H465 0.983 . S
C439 C440 1.391 . S
C439 C444 1.391 . S
C439 H469 0.948 . S
C440 C439 1.391 . S
C440 C441 1.391 . S
C441 C440 1.391 . S
C441 C442 1.392 . S
C441 H470 0.947 . S
C442 C441 1.392 . S
C442 C443 1.419 . S
C442 H471 0.948 . S
C443 C442 1.419 . S
C443 C444 1.391 . S
C443 C447 1.397 . S
C444 C439 1.391 . S
C444 C443 1.391 . S
C444 C445 1.399 . S
C445 C444 1.399 . S
C445 C446 1.396 . S
C445 C448 1.453 . S
C445 C449 1.684 . S
C446 C427 1.723 . S
C446 C445 1.396 . S
C446 C447 1.394 . S
C447 C443 1.397 . S
C447 C446 1.394 . S
C447 C457 1.723 . S
C448 C445 1.453 . S
C448 H472 0.982 . S
C448 H473 0.979 . S
C448 H474 0.977 . S
C449 C445 1.684 . S
C449 H475 0.979 . S
C449 H476 0.980 . S
C449 H477 0.983 . S
C450 H426 0.948 . S
C450 C451 1.391 . S
C450 C455 1.391 . S
C451 C450 1.391 . S
C451 C452 1.391 . S
C452 H429 0.947 . S
C452 C451 1.391 . S
C452 C453 1.392 . S
C453 H430 0.948 . S
C453 C452 1.392 . S
C453 C454 1.419 . S
C454 C453 1.419 . S
C454 C455 1.391 . S
C454 C458 1.397 . S
C455 C450 1.391 . S
C455 C454 1.391 . S
C455 C456 1.399 . S
C456 C455 1.399 . S
C456 C457 1.396 . S
C456 C459 1.453 . S
C456 C460 1.684 . S
C457 C447 1.723 . S
C457 C456 1.396 . S
C457 C458 1.394 . S
C458 C428 1.723 . S
C458 C454 1.397 . S
C458 C457 1.394 . S
C459 H431 0.982 . S
C459 H435 0.979 . S
C459 H436 0.977 . S
C459 C456 1.453 . S
C460 H432 0.979 . S
C460 H433 0.980 . S
C460 H434 0.983 . S
C460 C456 1.684 . S
H461 C479 0.948 . S
H462 C420 0.948 . S
H463 C438 0.979 . S
H464 C438 0.980 . S
H465 C438 0.983 . S
H466 C437 0.982 . S
H467 C437 0.979 . S
H468 C437 0.977 . S
H469 C439 0.948 . S
H470 C441 0.947 . S
H471 C442 0.948 . S
H472 C448 0.982 . S
H473 C448 0.979 . S
H474 C448 0.977 . S
H475 C449 0.979 . S
H476 C449 0.980 . S
H477 C449 0.983 . S
H478 C422 0.947 . S
C479 C422 1.392 . S
C479 C423 1.419 . S
C479 H461 0.948 . S
C480 C481 1.391 . S
C480 C484 1.391 . S
C480 H522 0.948 . S
C481 C480 1.391 . S
C481 C482 1.391 . S
C482 C481 1.391 . S
C482 H538 0.947 . S
C482 C539 1.392 . S
C483 C484 1.391 . S
C483 C487 1.397 . S
C483 C539 1.419 . S
C484 C480 1.391 . S
C484 C483 1.391 . S
C484 C485 1.399 . S
C485 C484 1.399 . S
C485 C488 1.396 . S
C485 C497 1.453 . S
C485 C498 1.684 . S
H486 C510 0.948 . S
C487 C483 1.397 . S
C487 C488 1.394 . S
C487 C506 1.723 . S
C488 C485 1.396 . S
C488 C487 1.394 . S
C488 C518 1.723 . S
H489 C512 0.947 . S
H490 C513 0.948 . S
H491 C519 0.982 . S
H492 C520 0.979 . S
H493 C520 0.980 . S
H494 C520 0.983 . S
H495 C519 0.979 . S
H496 C519 0.977 . S
C497 C485 1.453 . S
C497 H526 0.982 . S
C497 H527 0.979 . S
C497 H528 0.977 . S
C498 C485 1.684 . S
C498 H523 0.979 . S
C498 H524 0.980 . S
C498 H525 0.983 . S
C499 C500 1.391 . S
C499 C504 1.391 . S
C499 H529 0.948 . S
C500 C499 1.391 . S
C500 C501 1.391 . S
C501 C500 1.391 . S
C501 C502 1.392 . S
C501 H530 0.947 . S
C502 C501 1.392 . S
C502 C503 1.419 . S
C502 H531 0.948 . S
C503 C502 1.419 . S
C503 C504 1.391 . S
C503 C507 1.397 . S
C504 C499 1.391 . S
C504 C503 1.391 . S
C504 C505 1.399 . S
C505 C504 1.399 . S
C505 C506 1.396 . S
C505 C508 1.453 . S
C505 C509 1.684 . S
C506 C487 1.723 . S
C506 C505 1.396 . S
C506 C507 1.394 . S
C507 C503 1.397 . S
C507 C506 1.394 . S
C507 C517 1.723 . S
C508 C505 1.453 . S
C508 H532 0.982 . S
C508 H533 0.979 . S
C508 H534 0.977 . S
C509 C505 1.684 . S
C509 H535 0.979 . S
C509 H536 0.980 . S
C509 H537 0.983 . S
C510 H486 0.948 . S
C510 C511 1.391 . S
C510 C515 1.391 . S
C511 C510 1.391 . S
C511 C512 1.391 . S
C512 H489 0.947 . S
C512 C511 1.391 . S
C512 C513 1.392 . S
C513 H490 0.948 . S
C513 C512 1.392 . S
C513 C514 1.419 . S
C514 C513 1.419 . S
C514 C515 1.391 . S
C514 C518 1.397 . S
C515 C510 1.391 . S
C515 C514 1.391 . S
C515 C516 1.399 . S
C516 C515 1.399 . S
C516 C517 1.396 . S
C516 C519 1.453 . S
C516 C520 1.684 . S
C517 C507 1.723 . S
C517 C516 1.396 . S
C517 C518 1.394 . S
C518 C488 1.723 . S
C518 C514 1.397 . S
C518 C517 1.394 . S
C519 H491 0.982 . S
C519 H495 0.979 . S
C519 H496 0.977 . S
C519 C516 1.453 . S
C520 H492 0.979 . S
C520 H493 0.980 . S
C520 H494 0.983 . S
C520 C516 1.684 . S
H521 C539 0.948 . S
H522 C480 0.948 . S
H523 C498 0.979 . S
H524 C498 0.980 . S
H525 C498 0.983 . S
H526 C497 0.982 . S
H527 C497 0.979 . S
H528 C497 0.977 . S
H529 C499 0.948 . S
H530 C501 0.947 . S
H531 C502 0.948 . S
H532 C508 0.982 . S
H533 C508 0.979 . S
H534 C508 0.977 . S
H535 C509 0.979 . S
H536 C509 0.980 . S
H537 C509 0.983 . S
H538 C482 0.947 . S
C539 C482 1.392 . S
C539 C483 1.419 . S
C539 H521 0.948 . S
C540 C541 1.391 . S
C540 C544 1.391 . S
C540 H582 0.948 . S
C541 C540 1.391 . S
C541 C542 1.391 . S
C542 C541 1.391 . S
C542 H598 0.947 . S
C542 C599 1.392 . S
C543 C544 1.391 . S
C543 C547 1.397 . S
C543 C599 1.419 . S
C544 C540 1.391 . S
C544 C543 1.391 . S
C544 C545 1.399 . S
C545 C544 1.399 . S
C545 C548 1.396 . S
C545 C557 1.453 . S
C545 C558 1.684 . S
H546 C570 0.953 . S
C547 C543 1.397 . S
C547 C548 1.394 . S
C547 C566 1.723 . S
C548 C545 1.396 . S
C548 C547 1.394 . S
C548 C578 1.723 . S
H549 C572 0.947 . S
H550 C573 0.948 . S
H551 C579 0.982 . S
H552 C580 0.979 . S
H553 C580 0.980 . S
H554 C580 0.983 . S
H555 C579 0.979 1_545 S
H556 C579 0.977 1_545 S
C557 C545 1.453 . S
C557 H586 0.982 . S
C557 H587 0.979 . S
C557 H588 0.977 . S
C558 C545 1.684 . S
C558 H583 0.979 . S
C558 H584 0.980 . S
C558 H585 0.983 . S
C559 C560 1.391 . S
C559 C564 1.391 1_545 S
C559 H589 0.955 . S
C560 C559 1.391 . S
C560 C561 1.391 . S
C561 C560 1.391 . S
C561 C562 1.392 . S
C561 H590 0.947 . S
C562 C561 1.392 . S
C562 C563 1.419 1_545 S
C562 H591 0.948 . S
C563 C562 1.419 1_565 S
C563 C564 1.391 . S
C563 C567 1.397 . S
C564 C559 1.391 1_565 S
C564 C563 1.391 . S
C564 C565 1.399 . S
C565 C564 1.399 . S
C565 C566 1.396 . S
C565 C568 1.453 . S
C565 C569 1.684 . S
C566 C547 1.723 . S
C566 C565 1.396 . S
C566 C567 1.394 . S
C567 C563 1.397 . S
C567 C566 1.394 . S
C567 C577 1.723 . S
C568 C565 1.453 . S
C568 H592 0.982 . S
C568 H593 0.979 . S
C568 H594 0.977 . S
C569 C565 1.684 . S
C569 H595 0.979 . S
C569 H596 0.980 . S
C569 H597 0.983 . S
C570 H546 0.953 . S
C570 C571 1.391 . S
C570 C575 1.391 . S
C571 C570 1.391 . S
C571 C572 1.391 . S
C572 H549 0.947 . S
C572 C571 1.391 . S
C572 C573 1.392 . S
C573 H550 0.948 . S
C573 C572 1.392 . S
C573 C574 1.419 . S
C574 C573 1.419 . S
C574 C575 1.391 . S
C574 C578 1.397 . S
C575 C570 1.391 . S
C575 C574 1.391 . S
C575 C576 1.399 . S
C576 C575 1.399 . S
C576 C577 1.396 . S
C576 C579 1.453 . S
C576 C580 1.684 1_565 S
C577 C567 1.723 . S
C577 C576 1.396 . S
C577 C578 1.394 . S
C578 C548 1.723 . S
C578 C574 1.397 . S
C578 C577 1.394 . S
C579 H551 0.982 . S
C579 H555 0.979 1_565 S
C579 H556 0.977 1_565 S
C579 C576 1.453 . S
C580 H552 0.979 . S
C580 H553 0.980 . S
C580 H554 0.983 . S
C580 C576 1.684 1_545 S
H581 C599 0.948 . S
H582 C540 0.948 . S
H583 C558 0.979 . S
H584 C558 0.980 . S
H585 C558 0.983 . S
H586 C557 0.982 . S
H587 C557 0.979 . S
H588 C557 0.977 . S
H589 C559 0.955 . S
H590 C561 0.947 . S
H591 C562 0.948 . S
H592 C568 0.982 . S
H593 C568 0.979 . S
H594 C568 0.977 . S
H595 C569 0.979 . S
H596 C569 0.980 . S
H597 C569 0.983 . S
H598 C542 0.947 . S
C599 C542 1.392 . S
C599 C543 1.419 . S
C599 H581 0.948 . S
C600 C601 1.391 . S
C600 C604 1.391 . S
C600 H642 0.948 . S
C601 C600 1.391 . S
C601 C602 1.391 . S
C602 C601 1.391 . S
C602 H658 0.947 . S
C602 C659 1.392 . S
C603 C604 1.391 . S
C603 C607 1.397 . S
C603 C659 1.419 . S
C604 C600 1.391 . S
C604 C603 1.391 . S
C604 C605 1.399 . S
C605 C604 1.399 . S
C605 C608 1.396 . S
C605 C617 1.453 . S
C605 C618 1.684 . S
H606 C630 0.948 . S
C607 C603 1.397 . S
C607 C608 1.394 . S
C607 C626 1.723 . S
C608 C605 1.396 . S
C608 C607 1.394 . S
C608 C638 1.723 . S
H609 C632 0.947 . S
H610 C633 0.948 . S
H611 C639 0.982 . S
H612 C640 0.979 . S
H613 C640 0.980 . S
H614 C640 0.983 . S
H615 C639 0.979 . S
H616 C639 0.977 . S
C617 C605 1.453 . S
C617 H646 0.982 . S
C617 H647 0.979 . S
C617 H648 0.977 . S
C618 C605 1.684 . S
C618 H643 0.979 . S
C618 H644 0.980 . S
C618 H645 0.983 . S
C619 C620 1.391 . S
C619 C624 1.391 . S
C619 H649 0.948 . S
C620 C619 1.391 . S
C620 C621 1.391 . S
C621 C620 1.391 . S
C621 C622 1.392 . S
C621 H650 0.947 . S
C622 C621 1.392 . S
C622 C623 1.419 . S
C622 H651 0.948 . S
C623 C622 1.419 . S
C623 C624 1.391 . S
C623 C627 1.397 . S
C624 C619 1.391 . S
C624 C623 1.391 . S
C624 C625 1.399 . S
C625 C624 1.399 . S
C625 C626 1.396 . S
C625 C628 1.453 . S
C625 C629 1.684 . S
C626 C607 1.723 . S
C626 C625 1.396 . S
C626 C627 1.394 . S
C627 C623 1.397 . S
C627 C626 1.394 . S
C627 C637 1.723 . S
C628 C625 1.453 . S
C628 H652 0.982 . S
C628 H653 0.979 . S
C628 H654 0.977 . S
C629 C625 1.684 . S
C629 H655 0.979 . S
C629 H656 0.980 . S
C629 H657 0.983 . S
C630 H606 0.948 . S
C630 C631 1.391 . S
C630 C635 1.391 . S
C631 C630 1.391 . S
C631 C632 1.391 . S
C632 H609 0.947 . S
C632 C631 1.391 . S
C632 C633 1.392 . S
C633 H610 0.948 . S
C633 C632 1.392 . S
C633 C634 1.419 . S
C634 C633 1.419 . S
C634 C635 1.391 . S
C634 C638 1.397 . S
C635 C630 1.391 . S
C635 C634 1.391 . S
C635 C636 1.399 . S
C636 C635 1.399 . S
C636 C637 1.396 . S
C636 C639 1.453 . S
C636 C640 1.684 . S
C637 C627 1.723 . S
C637 C636 1.396 . S
C637 C638 1.394 . S
C638 C608 1.723 . S
C638 C634 1.397 . S
C638 C637 1.394 . S
C639 H611 0.982 . S
C639 H615 0.979 . S
C639 H616 0.977 . S
C639 C636 1.453 . S
C640 H612 0.979 . S
C640 H613 0.980 . S
C640 H614 0.983 . S
C640 C636 1.684 . S
H641 C659 0.948 . S
H642 C600 0.948 . S
H643 C618 0.979 . S
H644 C618 0.980 . S
H645 C618 0.983 . S
H646 C617 0.982 . S
H647 C617 0.979 . S
H648 C617 0.977 . S
H649 C619 0.948 . S
H650 C621 0.947 . S
H651 C622 0.948 . S
H652 C628 0.982 . S
H653 C628 0.979 . S
H654 C628 0.977 . S
H655 C629 0.979 . S
H656 C629 0.980 . S
H657 C629 0.983 . S
H658 C602 0.947 . S
C659 C602 1.392 . S
C659 C603 1.419 . S
C659 H641 0.948 . S
C660 C661 1.391 . S
C660 C664 1.391 . S
C660 H702 0.948 . S
C661 C660 1.391 . S
C661 C662 1.391 . S
C662 C661 1.391 . S
C662 H718 0.947 . S
C662 C719 1.392 . S
C663 C664 1.391 . S
C663 C667 1.397 . S
C663 C719 1.419 . S
C664 C660 1.391 . S
C664 C663 1.391 . S
C664 C665 1.399 . S
C665 C664 1.399 . S
C665 C668 1.396 . S
C665 C677 1.453 . S
C665 C678 1.684 . S
H666 C690 0.948 . S
C667 C663 1.397 . S
C667 C668 1.394 . S
C667 C686 1.723 . S
C668 C665 1.396 . S
C668 C667 1.394 . S
C668 C698 1.723 . S
H669 C692 0.947 . S
H670 C693 0.948 . S
H671 C699 0.982 . S
H672 C700 0.979 . S
H673 C700 0.980 . S
H674 C700 0.983 . S
H675 C699 0.979 . S
H676 C699 0.977 . S
C677 C665 1.453 . S
C677 H706 0.982 . S
C677 H707 0.979 . S
C677 H708 0.977 . S
C678 C665 1.684 . S
C678 H703 0.979 . S
C678 H704 0.980 . S
C678 H705 0.983 . S
C679 C680 1.391 . S
C679 C684 1.391 . S
C679 H709 0.948 . S
C680 C679 1.391 . S
C680 C681 1.391 . S
C681 C680 1.391 . S
C681 C682 1.392 . S
C681 H710 0.947 . S
C682 C681 1.392 . S
C682 C683 1.419 . S
C682 H711 0.948 . S
C683 C682 1.419 . S
C683 C684 1.391 . S
C683 C687 1.397 . S
C684 C679 1.391 . S
C684 C683 1.391 . S
C684 C685 1.399 . S
C685 C684 1.399 . S
C685 C686 1.396 . S
C685 C688 1.453 . S
C685 C689 1.684 . S
C686 C667 1.723 . S
C686 C685 1.396 . S
C686 C687 1.394 . S
C687 C683 1.397 . S
C687 C686 1.394 . S
C687 C697 1.723 . S
C688 C685 1.453 . S
C688 H712 0.982 . S
C688 H713 0.979 . S
C688 H714 0.977 . S
C689 C685 1.684 . S
C689 H715 0.979 . S
C689 H716 0.980 . S
C689 H717 0.983 . S
C690 H666 0.948 . S
C690 C691 1.391 . S
C690 C695 1.391 . S
C691 C690 1.391 . S
C691 C692 1.391 . S
C692 H669 0.947 . S
C692 C691 1.391 . S
C692 C693 1.392 . S
C693 H670 0.948 . S
C693 C692 1.392 . S
C693 C694 1.419 . S
C694 C693 1.419 . S
C694 C695 1.391 . S
C694 C698 1.397 . S
C695 C690 1.391 . S
C695 C694 1.391 . S
C695 C696 1.399 . S
C696 C695 1.399 . S
C696 C697 1.396 . S
C696 C699 1.453 . S
C696 C700 1.684 . S
C697 C687 1.723 . S
C697 C696 1.396 . S
C697 C698 1.394 . S
C698 C668 1.723 . S
C698 C694 1.397 . S
C698 C697 1.394 . S
C699 H671 0.982 . S
C699 H675 0.979 . S
C699 H676 0.977 . S
C699 C696 1.453 . S
C700 H672 0.979 . S
C700 H673 0.980 . S
C700 H674 0.983 . S
C700 C696 1.684 . S
H701 C719 0.948 . S
H702 C660 0.948 . S
H703 C678 0.979 . S
H704 C678 0.980 . S
H705 C678 0.983 . S
H706 C677 0.982 . S
H707 C677 0.979 . S
H708 C677 0.977 . S
H709 C679 0.948 . S
H710 C681 0.947 . S
H711 C682 0.948 . S
H712 C688 0.982 . S
H713 C688 0.979 . S
H714 C688 0.977 . S
H715 C689 0.979 . S
H716 C689 0.980 . S
H717 C689 0.983 . S
H718 C662 0.947 . S
C719 C662 1.392 . S
C719 C663 1.419 . S
C719 H701 0.948 . S
C720 C721 1.391 . S
C720 C724 1.391 . S
C720 H762 0.948 . S
C721 C720 1.391 . S
C721 C722 1.391 . S
C722 C721 1.391 . S
C722 H778 0.947 . S
C722 C779 1.392 . S
C723 C724 1.391 . S
C723 C727 1.397 . S
C723 C779 1.419 . S
C724 C720 1.391 . S
C724 C723 1.391 . S
C724 C725 1.399 . S
C725 C724 1.399 . S
C725 C728 1.396 . S
C725 C737 1.453 . S
C725 C738 1.684 . S
H726 C750 0.948 . S
C727 C723 1.397 . S
C727 C728 1.394 . S
C727 C746 1.723 . S
C728 C725 1.396 . S
C728 C727 1.394 . S
C728 C758 1.723 . S
H729 C752 0.947 . S
H730 C753 0.948 . S
H731 C759 0.982 . S
H732 C760 0.979 . S
H733 C760 0.980 . S
H734 C760 0.983 . S
H735 C759 0.979 . S
H736 C759 0.977 . S
C737 C725 1.453 . S
C737 H766 0.982 . S
C737 H767 0.979 . S
C737 H768 0.977 . S
C738 C725 1.684 . S
C738 H763 0.979 . S
C738 H764 0.980 . S
C738 H765 0.983 . S
C739 C740 1.391 . S
C739 C744 1.391 . S
C739 H769 0.948 . S
C740 C739 1.391 . S
C740 C741 1.391 . S
C741 C740 1.391 . S
C741 C742 1.392 . S
C741 H770 0.947 . S
C742 C741 1.392 . S
C742 C743 1.419 . S
C742 H771 0.948 . S
C743 C742 1.419 . S
C743 C744 1.391 . S
C743 C747 1.397 . S
C744 C739 1.391 . S
C744 C743 1.391 . S
C744 C745 1.399 . S
C745 C744 1.399 . S
C745 C746 1.396 . S
C745 C748 1.453 . S
C745 C749 1.684 . S
C746 C727 1.723 . S
C746 C745 1.396 . S
C746 C747 1.394 . S
C747 C743 1.397 . S
C747 C746 1.394 . S
C747 C757 1.723 . S
C748 C745 1.453 . S
C748 H772 0.982 . S
C748 H773 0.979 . S
C748 H774 0.977 . S
C749 C745 1.684 . S
C749 H775 0.979 . S
C749 H776 0.980 . S
C749 H777 0.983 . S
C750 H726 0.948 . S
C750 C751 1.391 . S
C750 C755 1.391 . S
C751 C750 1.391 . S
C751 C752 1.391 . S
C752 H729 0.947 . S
C752 C751 1.391 . S
C752 C753 1.392 . S
C753 H730 0.948 . S
C753 C752 1.392 . S
C753 C754 1.419 . S
C754 C753 1.419 . S
C754 C755 1.391 . S
C754 C758 1.397 . S
C755 C750 1.391 . S
C755 C754 1.391 . S
C755 C756 1.399 . S
C756 C755 1.399 . S
C756 C757 1.396 . S
C756 C759 1.453 . S
C756 C760 1.684 . S
C757 C747 1.723 . S
C757 C756 1.396 . S
C757 C758 1.394 . S
C758 C728 1.723 . S
C758 C754 1.397 . S
C758 C757 1.394 . S
C759 H731 0.982 . S
C759 H735 0.979 . S
C759 H736 0.977 . S
C759 C756 1.453 . S
C760 H732 0.979 . S
C760 H733 0.980 . S
C760 H734 0.983 . S
C760 C756 1.684 . S
H761 C779 0.948 . S
H762 C720 0.948 . S
H763 C738 0.979 . S
H764 C738 0.980 . S
H765 C738 0.983 . S
H766 C737 0.982 . S
H767 C737 0.979 . S
H768 C737 0.977 . S
H769 C739 0.948 . S
H770 C741 0.947 . S
H771 C742 0.948 . S
H772 C748 0.982 . S
H773 C748 0.979 . S
H774 C748 0.977 . S
H775 C749 0.979 . S
H776 C749 0.980 . S
H777 C749 0.983 . S
H778 C722 0.947 . S
C779 C722 1.392 . S
C779 C723 1.419 . S
C779 H761 0.948 . S
C780 C781 1.391 . S
C780 C784 1.391 . S
C780 H822 0.948 . S
C781 C780 1.391 . S
C781 C782 1.391 1_554 S
C782 C781 1.391 1_556 S
C782 H838 0.947 . S
C782 C839 1.392 . S
C783 C784 1.391 1_556 S
C783 C787 1.397 . S
C783 C839 1.419 . S
C784 C780 1.391 . S
C784 C783 1.391 1_554 S
C784 C785 1.399 . S
C785 C784 1.399 . S
C785 C788 1.399 1_554 S
C785 C797 1.450 . S
C785 C798 1.683 . S
H786 C810 0.948 . S
C787 C783 1.397 . S
C787 C788 1.394 . S
C787 C806 1.723 . S
C788 C785 1.399 1_556 S
C788 C787 1.394 . S
C788 C818 1.723 . S
H789 C812 0.947 1_554 S
H790 C813 0.969 . S
H791 C819 0.982 . S
H792 C820 0.979 . S
H793 C820 0.980 . S
H794 C820 0.983 . S
H795 C819 0.979 . S
H796 C819 0.977 . S
C797 C785 1.450 . S
C797 H826 0.982 . S
C797 H827 0.979 . S
C797 H828 0.977 . S
C798 C785 1.683 . S
C798 H823 0.979 1_554 S
C798 H824 0.980 . S
C798 H825 0.983 . S
C799 C800 1.391 . S
C799 C804 1.391 . S
C799 H829 0.948 . S
C800 C799 1.391 . S
C800 C801 1.391 . S
C801 C800 1.391 . S
C801 C802 1.392 . S
C801 H830 0.947 . S
C802 C801 1.392 . S
C802 C803 1.419 . S
C802 H831 0.948 . S
C803 C802 1.419 . S
C803 C804 1.391 . S
C803 C807 1.397 . S
C804 C799 1.391 . S
C804 C803 1.391 . S
C804 C805 1.399 . S
C805 C804 1.399 . S
C805 C806 1.396 . S
C805 C808 1.453 . S
C805 C809 1.684 . S
C806 C787 1.723 . S
C806 C805 1.396 . S
C806 C807 1.394 . S
C807 C803 1.397 . S
C807 C806 1.394 . S
C807 C817 1.723 . S
C808 C805 1.453 . S
C808 H832 0.982 . S
C808 H833 0.979 . S
C808 H834 0.977 . S
C809 C805 1.684 . S
C809 H835 0.979 . S
C809 H836 0.980 . S
C809 H837 0.983 . S
C810 H786 0.948 . S
C810 C811 1.391 . S
C810 C815 1.391 . S
C811 C810 1.391 . S
C811 C812 1.391 . S
C812 H789 0.947 1_556 S
C812 C811 1.391 . S
C812 C813 1.392 . S
C813 H790 0.969 . S
C813 C812 1.392 . S
C813 C814 1.419 . S
C814 C813 1.419 . S
C814 C815 1.391 . S
C814 C818 1.397 . S
C815 C810 1.391 . S
C815 C814 1.391 . S
C815 C816 1.399 . S
C816 C815 1.399 . S
C816 C817 1.396 . S
C816 C819 1.453 . S
C816 C820 1.684 . S
C817 C807 1.723 . S
C817 C816 1.396 . S
C817 C818 1.394 . S
C818 C788 1.723 . S
C818 C814 1.397 . S
C818 C817 1.394 . S
C819 H791 0.982 . S
C819 H795 0.979 . S
C819 H796 0.977 . S
C819 C816 1.453 . S
C820 H792 0.979 . S
C820 H793 0.980 . S
C820 H794 0.983 . S
C820 C816 1.684 . S
H821 C839 0.948 . S
H822 C780 0.948 . S
H823 C798 0.979 1_556 S
H824 C798 0.980 . S
H825 C798 0.983 . S
H826 C797 0.982 . S
H827 C797 0.979 . S
H828 C797 0.977 . S
H829 C799 0.948 . S
H830 C801 0.947 . S
H831 C802 0.948 . S
H832 C808 0.982 . S
H833 C808 0.979 . S
H834 C808 0.977 . S
H835 C809 0.979 . S
H836 C809 0.980 . S
H837 C809 0.983 . S
H838 C782 0.947 . S
C839 C782 1.392 . S
C839 C783 1.419 . S
C839 H821 0.948 . S
C840 C841 1.391 . S
C840 C844 1.391 . S
C840 H882 0.948 . S
C841 C840 1.391 . S
C841 C842 1.391 . S
C842 C841 1.391 . S
C842 H898 0.947 . S
C842 C899 1.392 . S
C843 C844 1.391 . S
C843 C847 1.397 . S
C843 C899 1.419 . S
C844 C840 1.391 . S
C844 C843 1.391 . S
C844 C845 1.399 . S
C845 C844 1.399 . S
C845 C848 1.396 . S
C845 C857 1.453 . S
C845 C858 1.684 . S
H846 C870 0.948 . S
C847 C843 1.397 . S
C847 C848 1.394 . S
C847 C866 1.723 . S
C848 C845 1.396 . S
C848 C847 1.394 . S
C848 C878 1.723 . S
H849 C872 0.947 . S
H850 C873 0.948 . S
H851 C879 0.982 . S
H852 C880 0.979 . S
H853 C880 0.980 . S
H854 C880 0.983 . S
H855 C879 0.979 . S
H856 C879 0.977 . S
C857 C845 1.453 . S
C857 H886 0.982 . S
C857 H887 0.979 . S
C857 H888 0.977 . S
C858 C845 1.684 . S
C858 H883 0.979 . S
C858 H884 0.980 . S
C858 H885 0.983 . S
C859 C860 1.391 . S
C859 C864 1.391 . S
C859 H889 0.948 . S
C860 C859 1.391 . S
C860 C861 1.391 . S
C861 C860 1.391 . S
C861 C862 1.392 . S
C861 H890 0.947 . S
C862 C861 1.392 . S
C862 C863 1.419 . S
C862 H891 0.948 . S
C863 C862 1.419 . S
C863 C864 1.391 . S
C863 C867 1.397 . S
C864 C859 1.391 . S
C864 C863 1.391 . S
C864 C865 1.399 . S
C865 C864 1.399 . S
C865 C866 1.396 . S
C865 C868 1.453 . S
C865 C869 1.684 . S
C866 C847 1.723 . S
C866 C865 1.396 . S
C866 C867 1.394 . S
C867 C863 1.397 . S
C867 C866 1.394 . S
C867 C877 1.723 . S
C868 C865 1.453 . S
C868 H892 0.982 . S
C868 H893 0.979 . S
C868 H894 0.977 . S
C869 C865 1.684 . S
C869 H895 0.979 . S
C869 H896 0.980 . S
C869 H897 0.983 . S
C870 H846 0.948 . S
C870 C871 1.391 . S
C870 C875 1.391 . S
C871 C870 1.391 . S
C871 C872 1.391 . S
C872 H849 0.947 . S
C872 C871 1.391 . S
C872 C873 1.392 . S
C873 H850 0.948 . S
C873 C872 1.392 . S
C873 C874 1.419 . S
C874 C873 1.419 . S
C874 C875 1.391 . S
C874 C878 1.397 . S
C875 C870 1.391 . S
C875 C874 1.391 . S
C875 C876 1.399 . S
C876 C875 1.399 . S
C876 C877 1.396 . S
C876 C879 1.453 . S
C876 C880 1.684 . S
C877 C867 1.723 . S
C877 C876 1.396 . S
C877 C878 1.394 . S
C878 C848 1.723 . S
C878 C874 1.397 . S
C878 C877 1.394 . S
C879 H851 0.982 . S
C879 H855 0.979 . S
C879 H856 0.977 . S
C879 C876 1.453 . S
C880 H852 0.979 . S
C880 H853 0.980 . S
C880 H854 0.983 . S
C880 C876 1.684 . S
H881 C899 0.948 . S
H882 C840 0.948 . S
H883 C858 0.979 . S
H884 C858 0.980 . S
H885 C858 0.983 . S
H886 C857 0.982 . S
H887 C857 0.979 . S
H888 C857 0.977 . S
H889 C859 0.948 . S
H890 C861 0.947 . S
H891 C862 0.948 . S
H892 C868 0.982 . S
H893 C868 0.979 . S
H894 C868 0.977 . S
H895 C869 0.979 . S
H896 C869 0.980 . S
H897 C869 0.983 . S
H898 C842 0.947 . S
C899 C842 1.392 . S
C899 C843 1.419 . S
C899 H881 0.948 . S
C900 C901 1.391 . S
C900 C904 1.391 1_565 S
C900 H942 0.960 . S
C901 C900 1.391 . S
C901 C902 1.391 . S
C902 C901 1.391 . S
C902 H958 0.947 . S
C902 C959 1.392 . S
C903 C904 1.391 . S
C903 C907 1.397 . S
C903 C959 1.419 1_545 S
C904 C900 1.391 1_545 S
C904 C903 1.391 . S
C904 C905 1.399 . S
C905 C904 1.399 . S
C905 C908 1.396 . S
C905 C917 1.453 . S
C905 C918 1.684 1_556 S
H906 C930 0.955 . S
C907 C903 1.397 . S
C907 C908 1.394 . S
C907 C926 1.723 . S
C908 C905 1.396 . S
C908 C907 1.394 . S
C908 C938 1.723 . S
H909 C932 0.947 . S
H910 C933 0.948 . S
H911 C939 0.982 . S
H912 C940 0.979 . S
H913 C940 0.980 . S
H914 C940 0.983 . S
H915 C939 0.979 . S
H916 C939 0.977 . S
C917 C905 1.453 . S
C917 H946 0.982 . S
C917 H947 0.979 1_556 S
C917 H948 0.977 1_556 S
C918 C905 1.684 1_554 S
C918 H943 0.979 . S
C918 H944 0.980 . S
C918 H945 0.983 . S
C919 C920 1.391 . S
C919 C924 1.391 . S
C919 H949 0.954 . S
C920 C919 1.391 . S
C920 C921 1.391 . S
C921 C920 1.391 . S
C921 C922 1.392 . S
C921 H950 0.947 . S
C922 C921 1.392 . S
C922 C923 1.419 . S
C922 H951 0.948 . S
C923 C922 1.419 . S
C923 C924 1.391 . S
C923 C927 1.397 . S
C924 C919 1.391 . S
C924 C923 1.391 . S
C924 C925 1.399 . S
C925 C924 1.399 . S
C925 C926 1.396 . S
C925 C928 1.453 . S
C925 C929 1.684 1_545 S
C926 C907 1.723 . S
C926 C925 1.396 . S
C926 C927 1.394 . S
C927 C923 1.397 . S
C927 C926 1.394 . S
C927 C937 1.723 . S
C928 C925 1.453 . S
C928 H952 0.982 . S
C928 H953 0.979 1_545 S
C928 H954 0.977 1_545 S
C929 C925 1.684 1_565 S
C929 H955 0.979 . S
C929 H956 0.980 . S
C929 H957 0.983 . S
C930 H906 0.955 . S
C930 C931 1.391 . S
C930 C935 1.391 1_554 S
C931 C930 1.391 . S
C931 C932 1.391 . S
C932 H909 0.947 . S
C932 C931 1.391 . S
C932 C933 1.392 . S
C933 H910 0.948 . S
C933 C932 1.392 . S
C933 C934 1.419 1_554 S
C934 C933 1.419 1_556 S
C934 C935 1.391 . S
C934 C938 1.397 . S
C935 C930 1.391 1_556 S
C935 C934 1.391 . S
C935 C936 1.399 . S
C936 C935 1.399 . S
C936 C937 1.396 . S
C936 C939 1.453 . S
C936 C940 1.684 . S
C937 C927 1.723 . S
C937 C936 1.396 . S
C937 C938 1.394 . S
C938 C908 1.723 . S
C938 C934 1.397 . S
C938 C937 1.394 . S
C939 H911 0.982 . S
C939 H915 0.979 . S
C939 H916 0.977 . S
C939 C936 1.453 . S
C940 H912 0.979 . S
C940 H913 0.980 . S
C940 H914 0.983 . S
C940 C936 1.684 . S
H941 C959 0.948 . S
H942 C900 0.960 . S
H943 C918 0.979 . S
H944 C918 0.980 . S
H945 C918 0.983 . S
H946 C917 0.982 . S
H947 C917 0.979 1_554 S
H948 C917 0.977 1_554 S
H949 C919 0.954 . S
H950 C921 0.947 . S
H951 C922 0.948 . S
H952 C928 0.982 . S
H953 C928 0.979 1_565 S
H954 C928 0.977 1_565 S
H955 C929 0.979 . S
H956 C929 0.980 . S
H957 C929 0.983 . S
H958 C902 0.947 . S
C959 C902 1.392 . S
C959 C903 1.419 1_565 S
C959 H941 0.948 . S
Li960 N977 1.990 . S
Li960 O1020 1.956 . S
Li960 O1021 1.970 1_556 S
Li960 O1022 1.961 . S
Li961 N985 1.990 . S
Li961 O1020 1.970 1_554 S
Li961 O1021 1.956 . S
Li961 O1023 1.961 . S
Li962 N1007 1.990 . S
Li962 O1020 1.961 . S
Li962 O1022 1.956 . S
Li962 O1023 1.970 1_556 S
Li963 N1013 1.990 . S
Li963 O1021 1.961 . S
Li963 O1022 1.970 1_554 S
Li963 O1023 1.956 . S
C964 C966 1.348 1_556 S
C964 C967 1.356 . S
C964 O1020 1.325 . S
N965 C968 1.314 1_556 S
N965 C969 1.279 . S
C966 C964 1.348 1_554 S
C966 C968 1.353 . S
C966 H1024 0.929 . S
C967 C964 1.356 . S
C967 C969 1.358 . S
C967 H1025 0.930 . S
C968 N965 1.314 1_554 S
C968 C966 1.353 . S
C968 H1026 0.930 . S
C969 N965 1.279 . S
C969 C967 1.358 . S
C969 H1027 0.930 . S
C970 C973 1.348 . S
C970 C974 1.356 . S
C970 O1021 1.325 . S
C971 N972 1.279 . S
C971 C974 1.358 . S
C971 H1028 0.930 . S
N972 C971 1.279 . S
N972 C975 1.314 . S
C973 C970 1.348 . S
C973 C975 1.353 . S
C973 H1029 0.929 . S
C974 C970 1.356 . S
C974 C971 1.358 . S
C974 H1030 0.930 . S
C975 N972 1.314 . S
C975 C973 1.353 . S
C975 H1031 0.930 . S
C976 N977 1.314 . S
C976 C981 1.353 . S
C976 H982 0.930 . S
N977 Li960 1.990 . S
N977 C976 1.314 . S
N977 C979 1.279 . S
C978 C979 1.358 . S
C978 C980 1.356 . S
C978 H1032 0.930 . S
C979 N977 1.279 . S
C979 C978 1.358 . S
C979 H983 0.930 . S
C980 C978 1.356 . S
C980 C981 1.348 . S
C981 C976 1.353 . S
C981 C980 1.348 . S
C981 H1033 0.929 . S
H982 C976 0.930 . S
H983 C979 0.930 . S
C984 N985 1.314 . S
C984 C986 1.353 . S
C984 H990 0.930 . S
N985 Li961 1.990 . S
N985 C984 1.314 . S
N985 C988 1.279 . S
C986 C984 1.353 . S
C986 C989 1.348 . S
C986 H1034 0.929 . S
C987 C988 1.358 . S
C987 C989 1.356 . S
C987 H1035 0.930 . S
C988 N985 1.279 . S
C988 C987 1.358 . S
C988 H991 0.930 . S
C989 C986 1.348 . S
C989 C987 1.356 . S
H990 C984 0.930 . S
H991 C988 0.930 . S
C992 C994 1.348 . S
C992 C995 1.356 . S
C992 O1022 1.325 . S
N993 C996 1.314 . S
N993 C997 1.279 . S
C994 C992 1.348 . S
C994 C996 1.353 . S
C994 H1036 0.929 . S
C995 C992 1.356 . S
C995 C997 1.358 . S
C995 H1037 0.930 . S
C996 N993 1.314 . S
C996 C994 1.353 . S
C996 H1038 0.930 . S
C997 N993 1.279 . S
C997 C995 1.358 . S
C997 H1039 0.930 . S
C998 C999 1.348 1_554 S
C998 C1000 1.356 . S
C998 O1023 1.325 . S
C999 C998 1.348 1_556 S
C999 C1001 1.353 . S
C999 H1040 0.929 . S
C1000 C998 1.356 . S
C1000 C1002 1.358 . S
C1000 H1041 0.930 . S
C1001 C999 1.353 . S
C1001 N1003 1.314 1_556 S
C1001 H1042 0.930 . S
C1002 C1000 1.358 . S
C1002 N1003 1.279 . S
C1002 H1043 0.930 . S
N1003 C1001 1.314 1_554 S
N1003 C1002 1.279 . S
C1004 C1006 1.353 . S
C1004 N1007 1.314 . S
C1004 H1010 0.930 . S
C1005 N1007 1.279 . S
C1005 C1008 1.358 . S
C1005 H1011 0.930 . S
C1006 C1004 1.353 . S
C1006 C1009 1.348 . S
C1006 H1044 0.929 . S
N1007 Li962 1.990 . S
N1007 C1004 1.314 . S
N1007 C1005 1.279 . S
C1008 C1005 1.358 . S
C1008 C1009 1.356 . S
C1008 H1045 0.930 . S
C1009 C1006 1.348 . S
C1009 C1008 1.356 . S
H1010 C1004 0.930 . S
H1011 C1005 0.930 . S
C1012 N1013 1.314 . S
C1012 C1014 1.353 . S
C1012 H1018 0.930 . S
N1013 Li963 1.990 . S
N1013 C1012 1.314 . S
N1013 C1016 1.279 . S
C1014 C1012 1.353 . S
C1014 C1017 1.348 . S
C1014 H1046 0.929 . S
C1015 C1016 1.358 . S
C1015 C1017 1.356 . S
C1015 H1047 0.930 . S
C1016 N1013 1.279 . S
C1016 C1015 1.358 . S
C1016 H1019 0.930 . S
C1017 C1014 1.348 . S
C1017 C1015 1.356 . S
H1018 C1012 0.930 . S
H1019 C1016 0.930 . S
O1020 Li960 1.956 . S
O1020 Li961 1.970 1_556 S
O1020 Li962 1.961 . S
O1020 C964 1.325 . S
O1021 Li960 1.970 1_554 S
O1021 Li961 1.956 . S
O1021 Li963 1.961 . S
O1021 C970 1.325 . S
O1022 Li960 1.961 . S
O1022 Li962 1.956 . S
O1022 Li963 1.970 1_556 S
O1022 C992 1.325 . S
O1023 Li961 1.961 . S
O1023 Li962 1.970 1_554 S
O1023 Li963 1.956 . S
O1023 C998 1.325 . S
H1024 C966 0.929 . S
H1025 C967 0.930 . S
H1026 C968 0.930 . S
H1027 C969 0.930 . S
H1028 C971 0.930 . S
H1029 C973 0.929 . S
H1030 C974 0.930 . S
H1031 C975 0.930 . S
H1032 C978 0.930 . S
H1033 C981 0.929 . S
H1034 C986 0.929 . S
H1035 C987 0.930 . S
H1036 C994 0.929 . S
H1037 C995 0.930 . S
H1038 C996 0.930 . S
H1039 C997 0.930 . S
H1040 C999 0.929 . S
H1041 C1000 0.930 . S
H1042 C1001 0.930 . S
H1043 C1002 0.930 . S
H1044 C1006 0.929 . S
H1045 C1008 0.930 . S
H1046 C1014 0.929 . S
H1047 C1015 0.930 . S
Li1048 N1065 1.990 . S
Li1048 O1108 1.956 . S
Li1048 O1109 1.970 . S
Li1048 O1110 1.961 . S
Li1049 N1073 1.990 . S
Li1049 O1108 1.970 . S
Li1049 O1109 1.956 . S
Li1049 O1111 1.961 . S
Li1050 N1095 1.990 . S
Li1050 O1108 1.961 . S
Li1050 O1110 1.956 . S
Li1050 O1111 1.970 . S
Li1051 N1101 1.990 . S
Li1051 O1109 1.961 . S
Li1051 O1110 1.970 . S
Li1051 O1111 1.956 . S
C1052 C1054 1.348 . S
C1052 C1055 1.356 . S
C1052 O1108 1.325 . S
N1053 C1056 1.314 . S
N1053 C1057 1.279 . S
C1054 C1052 1.348 . S
C1054 C1056 1.353 . S
C1054 H1112 0.929 . S
C1055 C1052 1.356 . S
C1055 C1057 1.358 . S
C1055 H1113 0.930 . S
C1056 N1053 1.314 . S
C1056 C1054 1.353 . S
C1056 H1114 0.930 . S
C1057 N1053 1.279 . S
C1057 C1055 1.358 . S
C1057 H1115 0.930 . S
C1058 C1061 1.348 . S
C1058 C1062 1.356 . S
C1058 O1109 1.325 . S
C1059 N1060 1.279 . S
C1059 C1062 1.358 . S
C1059 H1116 0.930 . S
N1060 C1059 1.279 . S
N1060 C1063 1.314 . S
C1061 C1058 1.348 . S
C1061 C1063 1.353 . S
C1061 H1117 0.929 . S
C1062 C1058 1.356 . S
C1062 C1059 1.358 . S
C1062 H1118 0.930 . S
C1063 N1060 1.314 . S
C1063 C1061 1.353 . S
C1063 H1119 0.930 . S
C1064 N1065 1.314 . S
C1064 C1069 1.353 . S
C1064 H1070 0.930 . S
N1065 Li1048 1.990 . S
N1065 C1064 1.314 . S
N1065 C1067 1.279 . S
C1066 C1067 1.358 . S
C1066 C1068 1.356 . S
C1066 H1120 0.930 . S
C1067 N1065 1.279 . S
C1067 C1066 1.358 . S
C1067 H1071 0.930 . S
C1068 C1066 1.356 . S
C1068 C1069 1.348 . S
C1069 C1064 1.353 . S
C1069 C1068 1.348 . S
C1069 H1121 0.929 . S
H1070 C1064 0.930 . S
H1071 C1067 0.930 . S
C1072 N1073 1.314 . S
C1072 C1074 1.353 . S
C1072 H1078 0.930 . S
N1073 Li1049 1.990 . S
N1073 C1072 1.314 . S
N1073 C1076 1.279 . S
C1074 C1072 1.353 . S
C1074 C1077 1.348 . S
C1074 H1122 0.929 . S
C1075 C1076 1.358 . S
C1075 C1077 1.356 . S
C1075 H1123 0.930 . S
C1076 N1073 1.279 . S
C1076 C1075 1.358 . S
C1076 H1079 0.930 . S
C1077 C1074 1.348 . S
C1077 C1075 1.356 . S
H1078 C1072 0.930 . S
H1079 C1076 0.930 . S
C1080 C1082 1.348 . S
C1080 C1083 1.356 . S
C1080 O1110 1.325 . S
N1081 C1084 1.314 . S
N1081 C1085 1.279 . S
C1082 C1080 1.348 . S
C1082 C1084 1.353 . S
C1082 H1124 0.929 . S
C1083 C1080 1.356 . S
C1083 C1085 1.358 . S
C1083 H1125 0.930 . S
C1084 N1081 1.314 . S
C1084 C1082 1.353 . S
C1084 H1126 0.930 . S
C1085 N1081 1.279 . S
C1085 C1083 1.358 . S
C1085 H1127 0.930 . S
C1086 C1087 1.348 . S
C1086 C1088 1.356 . S
C1086 O1111 1.325 . S
C1087 C1086 1.348 . S
C1087 C1089 1.353 . S
C1087 H1128 0.929 . S
C1088 C1086 1.356 . S
C1088 C1090 1.358 . S
C1088 H1129 0.930 . S
C1089 C1087 1.353 . S
C1089 N1091 1.314 . S
C1089 H1130 0.930 . S
C1090 C1088 1.358 . S
C1090 N1091 1.279 . S
C1090 H1131 0.930 . S
N1091 C1089 1.314 . S
N1091 C1090 1.279 . S
C1092 C1094 1.353 . S
C1092 N1095 1.314 . S
C1092 H1098 0.930 . S
C1093 N1095 1.279 . S
C1093 C1096 1.358 . S
C1093 H1099 0.930 . S
C1094 C1092 1.353 . S
C1094 C1097 1.348 . S
C1094 H1132 0.929 . S
N1095 Li1050 1.990 . S
N1095 C1092 1.314 . S
N1095 C1093 1.279 . S
C1096 C1093 1.358 . S
C1096 C1097 1.356 . S
C1096 H1133 0.930 . S
C1097 C1094 1.348 . S
C1097 C1096 1.356 . S
H1098 C1092 0.930 . S
H1099 C1093 0.930 . S
C1100 N1101 1.314 . S
C1100 C1102 1.353 . S
C1100 H1106 0.930 . S
N1101 Li1051 1.990 . S
N1101 C1100 1.314 . S
N1101 C1104 1.279 . S
C1102 C1100 1.353 . S
C1102 C1105 1.348 . S
C1102 H1134 0.929 . S
C1103 C1104 1.358 . S
C1103 C1105 1.356 . S
C1103 H1135 0.930 . S
C1104 N1101 1.279 . S
C1104 C1103 1.358 . S
C1104 H1107 0.930 . S
C1105 C1102 1.348 . S
C1105 C1103 1.356 . S
H1106 C1100 0.930 . S
H1107 C1104 0.930 . S
O1108 Li1048 1.956 . S
O1108 Li1049 1.970 . S
O1108 Li1050 1.961 . S
O1108 C1052 1.325 . S
O1109 Li1048 1.970 . S
O1109 Li1049 1.956 . S
O1109 Li1051 1.961 . S
O1109 C1058 1.325 . S
O1110 Li1048 1.961 . S
O1110 Li1050 1.956 . S
O1110 Li1051 1.970 . S
O1110 C1080 1.325 . S
O1111 Li1049 1.961 . S
O1111 Li1050 1.970 . S
O1111 Li1051 1.956 . S
O1111 C1086 1.325 . S
H1112 C1054 0.929 . S
H1113 C1055 0.930 . S
H1114 C1056 0.930 . S
H1115 C1057 0.930 . S
H1116 C1059 0.930 . S
H1117 C1061 0.929 . S
H1118 C1062 0.930 . S
H1119 C1063 0.930 . S
H1120 C1066 0.930 . S
H1121 C1069 0.929 . S
H1122 C1074 0.929 . S
H1123 C1075 0.930 . S
H1124 C1082 0.929 . S
H1125 C1083 0.930 . S
H1126 C1084 0.930 . S
H1127 C1085 0.930 . S
H1128 C1087 0.929 . S
H1129 C1088 0.930 . S
H1130 C1089 0.930 . S
H1131 C1090 0.930 . S
H1132 C1094 0.929 . S
H1133 C1096 0.930 . S
H1134 C1102 0.929 . S
H1135 C1103 0.930 . S
Li1136 N1153 1.990 . S
Li1136 O1196 1.956 . S
Li1136 O1197 1.970 1_556 S
Li1136 O1198 1.961 . S
Li1137 N1161 1.990 . S
Li1137 O1196 1.970 1_554 S
Li1137 O1197 1.956 . S
Li1137 O1199 1.961 . S
Li1138 N1183 1.990 . S
Li1138 O1196 1.961 . S
Li1138 O1198 1.956 . S
Li1138 O1199 1.970 1_556 S
Li1139 N1189 1.990 . S
Li1139 O1197 1.961 . S
Li1139 O1198 1.970 1_554 S
Li1139 O1199 1.956 . S
C1140 C1142 1.348 1_556 S
C1140 C1143 1.356 . S
C1140 O1196 1.325 . S
N1141 C1144 1.314 1_556 S
N1141 C1145 1.279 . S
C1142 C1140 1.348 1_554 S
C1142 C1144 1.353 . S
C1142 H1200 0.929 . S
C1143 C1140 1.356 . S
C1143 C1145 1.358 . S
C1143 H1201 0.930 . S
C1144 N1141 1.314 1_554 S
C1144 C1142 1.353 . S
C1144 H1202 0.930 . S
C1145 N1141 1.279 . S
C1145 C1143 1.358 . S
C1145 H1203 0.930 . S
C1146 C1149 1.348 . S
C1146 C1150 1.356 . S
C1146 O1197 1.325 . S
C1147 N1148 1.279 . S
C1147 C1150 1.358 . S
C1147 H1204 0.930 . S
N1148 C1147 1.279 . S
N1148 C1151 1.314 . S
C1149 C1146 1.348 . S
C1149 C1151 1.353 . S
C1149 H1205 0.929 . S
C1150 C1146 1.356 . S
C1150 C1147 1.358 . S
C1150 H1206 0.930 . S
C1151 N1148 1.314 . S
C1151 C1149 1.353 . S
C1151 H1207 0.930 . S
C1152 N1153 1.314 . S
C1152 C1157 1.353 . S
C1152 H1158 0.930 . S
N1153 Li1136 1.990 . S
N1153 C1152 1.314 . S
N1153 C1155 1.279 . S
C1154 C1155 1.358 . S
C1154 C1156 1.356 . S
C1154 H1208 0.930 . S
C1155 N1153 1.279 . S
C1155 C1154 1.358 . S
C1155 H1159 0.930 . S
C1156 C1154 1.356 . S
C1156 C1157 1.348 . S
C1157 C1152 1.353 . S
C1157 C1156 1.348 . S
C1157 H1209 0.929 . S
H1158 C1152 0.930 . S
H1159 C1155 0.930 . S
C1160 N1161 1.314 . S
C1160 C1162 1.353 . S
C1160 H1166 0.930 . S
N1161 Li1137 1.990 . S
N1161 C1160 1.314 . S
N1161 C1164 1.279 . S
C1162 C1160 1.353 . S
C1162 C1165 1.348 . S
C1162 H1210 0.929 . S
C1163 C1164 1.358 . S
C1163 C1165 1.356 . S
C1163 H1211 0.930 . S
C1164 N1161 1.279 . S
C1164 C1163 1.358 . S
C1164 H1167 0.930 . S
C1165 C1162 1.348 . S
C1165 C1163 1.356 . S
H1166 C1160 0.930 . S
H1167 C1164 0.930 . S
C1168 C1170 1.348 . S
C1168 C1171 1.356 . S
C1168 O1198 1.325 . S
N1169 C1172 1.314 . S
N1169 C1173 1.279 . S
C1170 C1168 1.348 . S
C1170 C1172 1.353 . S
C1170 H1212 0.929 . S
C1171 C1168 1.356 . S
C1171 C1173 1.358 . S
C1171 H1213 0.930 . S
C1172 N1169 1.314 . S
C1172 C1170 1.353 . S
C1172 H1214 0.930 . S
C1173 N1169 1.279 . S
C1173 C1171 1.358 . S
C1173 H1215 0.930 . S
C1174 C1175 1.348 1_554 S
C1174 C1176 1.356 . S
C1174 O1199 1.325 . S
C1175 C1174 1.348 1_556 S
C1175 C1177 1.353 . S
C1175 H1216 0.929 . S
C1176 C1174 1.356 . S
C1176 C1178 1.358 . S
C1176 H1217 0.930 . S
C1177 C1175 1.353 . S
C1177 N1179 1.314 1_556 S
C1177 H1218 0.930 . S
C1178 C1176 1.358 . S
C1178 N1179 1.279 . S
C1178 H1219 0.930 . S
N1179 C1177 1.314 1_554 S
N1179 C1178 1.279 . S
C1180 C1182 1.353 . S
C1180 N1183 1.314 . S
C1180 H1186 0.930 . S
C1181 N1183 1.279 . S
C1181 C1184 1.358 . S
C1181 H1187 0.930 . S
C1182 C1180 1.353 . S
C1182 C1185 1.348 . S
C1182 H1220 0.929 . S
N1183 Li1138 1.990 . S
N1183 C1180 1.314 . S
N1183 C1181 1.279 . S
C1184 C1181 1.358 . S
C1184 C1185 1.356 . S
C1184 H1221 0.930 . S
C1185 C1182 1.348 . S
C1185 C1184 1.356 . S
H1186 C1180 0.930 . S
H1187 C1181 0.930 . S
C1188 N1189 1.314 . S
C1188 C1190 1.353 . S
C1188 H1194 0.930 . S
N1189 Li1139 1.990 . S
N1189 C1188 1.314 . S
N1189 C1192 1.279 . S
C1190 C1188 1.353 . S
C1190 C1193 1.348 . S
C1190 H1222 0.929 . S
C1191 C1192 1.358 . S
C1191 C1193 1.356 . S
C1191 H1223 0.930 . S
C1192 N1189 1.279 . S
C1192 C1191 1.358 . S
C1192 H1195 0.930 . S
C1193 C1190 1.348 . S
C1193 C1191 1.356 . S
H1194 C1188 0.930 . S
H1195 C1192 0.930 . S
O1196 Li1136 1.956 . S
O1196 Li1137 1.970 1_556 S
O1196 Li1138 1.961 . S
O1196 C1140 1.325 . S
O1197 Li1136 1.970 1_554 S
O1197 Li1137 1.956 . S
O1197 Li1139 1.961 . S
O1197 C1146 1.325 . S
O1198 Li1136 1.961 . S
O1198 Li1138 1.956 . S
O1198 Li1139 1.970 1_556 S
O1198 C1168 1.325 . S
O1199 Li1137 1.961 . S
O1199 Li1138 1.970 1_554 S
O1199 Li1139 1.956 . S
O1199 C1174 1.325 . S
H1200 C1142 0.929 . S
H1201 C1143 0.930 . S
H1202 C1144 0.930 . S
H1203 C1145 0.930 . S
H1204 C1147 0.930 . S
H1205 C1149 0.929 . S
H1206 C1150 0.930 . S
H1207 C1151 0.930 . S
H1208 C1154 0.930 . S
H1209 C1157 0.929 . S
H1210 C1162 0.929 . S
H1211 C1163 0.930 . S
H1212 C1170 0.929 . S
H1213 C1171 0.930 . S
H1214 C1172 0.930 . S
H1215 C1173 0.930 . S
H1216 C1175 0.929 . S
H1217 C1176 0.930 . S
H1218 C1177 0.930 . S
H1219 C1178 0.930 . S
H1220 C1182 0.929 . S
H1221 C1184 0.930 . S
H1222 C1190 0.929 . S
H1223 C1191 0.930 . S
Li1224 N1241 1.990 . S
Li1224 O1284 1.956 . S
Li1224 O1285 1.970 1_545 S
Li1224 O1286 1.961 . S
Li1225 N1249 1.990 . S
Li1225 O1284 1.970 1_565 S
Li1225 O1285 1.956 . S
Li1225 O1287 1.961 . S
Li1226 N1271 1.990 . S
Li1226 O1284 1.961 . S
Li1226 O1286 1.956 . S
Li1226 O1287 1.970 1_545 S
Li1227 N1277 1.990 . S
Li1227 O1285 1.961 . S
Li1227 O1286 1.970 1_565 S
Li1227 O1287 1.956 . S
C1228 C1230 1.348 . S
C1228 C1231 1.356 . S
C1228 O1284 1.325 . S
N1229 C1232 1.314 . S
N1229 C1233 1.279 . S
C1230 C1228 1.348 . S
C1230 C1232 1.353 . S
C1230 H1288 0.929 . S
C1231 C1228 1.356 . S
C1231 C1233 1.358 . S
C1231 H1289 0.930 . S
C1232 N1229 1.314 . S
C1232 C1230 1.353 . S
C1232 H1290 0.930 . S
C1233 N1229 1.279 . S
C1233 C1231 1.358 . S
C1233 H1291 0.930 . S
C1234 C1237 1.348 1_565 S
C1234 C1238 1.356 . S
C1234 O1285 1.325 . S
C1235 N1236 1.279 . S
C1235 C1238 1.358 . S
C1235 H1292 0.930 . S
N1236 C1235 1.279 . S
N1236 C1239 1.314 1_565 S
C1237 C1234 1.348 1_545 S
C1237 C1239 1.353 . S
C1237 H1293 0.929 . S
C1238 C1234 1.356 . S
C1238 C1235 1.358 . S
C1238 H1294 0.930 . S
C1239 N1236 1.314 1_545 S
C1239 C1237 1.353 . S
C1239 H1295 0.930 . S
C1240 N1241 1.314 . S
C1240 C1245 1.353 . S
C1240 H1246 0.930 . S
N1241 Li1224 1.990 . S
N1241 C1240 1.314 . S
N1241 C1243 1.279 . S
C1242 C1243 1.358 . S
C1242 C1244 1.356 . S
C1242 H1296 0.930 . S
C1243 N1241 1.279 . S
C1243 C1242 1.358 . S
C1243 H1247 0.930 . S
C1244 C1242 1.356 . S
C1244 C1245 1.348 . S
C1245 C1240 1.353 . S
C1245 C1244 1.348 . S
C1245 H1297 0.929 . S
H1246 C1240 0.930 . S
H1247 C1243 0.930 . S
C1248 N1249 1.314 . S
C1248 C1250 1.353 . S
C1248 H1254 0.930 . S
N1249 Li1225 1.990 . S
N1249 C1248 1.314 . S
N1249 C1252 1.279 . S
C1250 C1248 1.353 . S
C1250 C1253 1.348 . S
C1250 H1298 0.929 . S
C1251 C1252 1.358 . S
C1251 C1253 1.356 . S
C1251 H1299 0.930 . S
C1252 N1249 1.279 . S
C1252 C1251 1.358 . S
C1252 H1255 0.930 . S
C1253 C1250 1.348 . S
C1253 C1251 1.356 . S
H1254 C1248 0.930 . S
H1255 C1252 0.930 . S
C1256 C1258 1.348 1_545 S
C1256 C1259 1.356 . S
C1256 O1286 1.325 . S
N1257 C1260 1.314 1_545 S
N1257 C1261 1.279 . S
C1258 C1256 1.348 1_565 S
C1258 C1260 1.353 . S
C1258 H1300 0.929 . S
C1259 C1256 1.356 . S
C1259 C1261 1.358 . S
C1259 H1301 0.930 . S
C1260 N1257 1.314 1_565 S
C1260 C1258 1.353 . S
C1260 H1302 0.930 . S
C1261 N1257 1.279 . S
C1261 C1259 1.358 . S
C1261 H1303 0.930 . S
C1262 C1263 1.348 . S
C1262 C1264 1.356 . S
C1262 O1287 1.325 . S
C1263 C1262 1.348 . S
C1263 C1265 1.353 . S
C1263 H1304 0.929 . S
C1264 C1262 1.356 . S
C1264 C1266 1.358 . S
C1264 H1305 0.930 . S
C1265 C1263 1.353 . S
C1265 N1267 1.314 . S
C1265 H1306 0.930 . S
C1266 C1264 1.358 . S
C1266 N1267 1.279 . S
C1266 H1307 0.930 . S
N1267 C1265 1.314 . S
N1267 C1266 1.279 . S
C1268 C1270 1.353 . S
C1268 N1271 1.314 . S
C1268 H1274 0.930 . S
C1269 N1271 1.279 . S
C1269 C1272 1.358 . S
C1269 H1275 0.930 . S
C1270 C1268 1.353 . S
C1270 C1273 1.348 . S
C1270 H1308 0.929 . S
N1271 Li1226 1.990 . S
N1271 C1268 1.314 . S
N1271 C1269 1.279 . S
C1272 C1269 1.358 . S
C1272 C1273 1.356 . S
C1272 H1309 0.930 . S
C1273 C1270 1.348 . S
C1273 C1272 1.356 . S
H1274 C1268 0.930 . S
H1275 C1269 0.930 . S
C1276 N1277 1.314 . S
C1276 C1278 1.353 . S
C1276 H1282 0.930 . S
N1277 Li1227 1.990 . S
N1277 C1276 1.314 . S
N1277 C1280 1.279 . S
C1278 C1276 1.353 . S
C1278 C1281 1.348 . S
C1278 H1310 0.929 . S
C1279 C1280 1.358 . S
C1279 C1281 1.356 . S
C1279 H1311 0.930 . S
C1280 N1277 1.279 . S
C1280 C1279 1.358 . S
C1280 H1283 0.930 . S
C1281 C1278 1.348 . S
C1281 C1279 1.356 . S
H1282 C1276 0.930 . S
H1283 C1280 0.930 . S
O1284 Li1224 1.956 . S
O1284 Li1225 1.970 1_545 S
O1284 Li1226 1.961 . S
O1284 C1228 1.325 . S
O1285 Li1224 1.970 1_565 S
O1285 Li1225 1.956 . S
O1285 Li1227 1.961 . S
O1285 C1234 1.325 . S
O1286 Li1224 1.961 . S
O1286 Li1226 1.956 . S
O1286 Li1227 1.970 1_545 S
O1286 C1256 1.325 . S
O1287 Li1225 1.961 . S
O1287 Li1226 1.970 1_565 S
O1287 Li1227 1.956 . S
O1287 C1262 1.325 . S
H1288 C1230 0.929 . S
H1289 C1231 0.930 . S
H1290 C1232 0.930 . S
H1291 C1233 0.930 . S
H1292 C1235 0.930 . S
H1293 C1237 0.929 . S
H1294 C1238 0.930 . S
H1295 C1239 0.930 . S
H1296 C1242 0.930 . S
H1297 C1245 0.929 . S
H1298 C1250 0.929 . S
H1299 C1251 0.930 . S
H1300 C1258 0.929 . S
H1301 C1259 0.930 . S
H1302 C1260 0.930 . S
H1303 C1261 0.930 . S
H1304 C1263 0.929 . S
H1305 C1264 0.930 . S
H1306 C1265 0.930 . S
H1307 C1266 0.930 . S
H1308 C1270 0.929 . S
H1309 C1272 0.930 . S
H1310 C1278 0.929 . S
H1311 C1279 0.930 . S
Li1312 N1329 1.990 . S
Li1312 O1372 1.956 . S
Li1312 O1373 1.970 . S
Li1312 O1374 1.961 . S
Li1313 N1337 1.990 . S
Li1313 O1372 1.970 . S
Li1313 O1373 1.956 . S
Li1313 O1375 1.961 . S
Li1314 N1359 1.990 . S
Li1314 O1372 1.961 . S
Li1314 O1374 1.956 . S
Li1314 O1375 1.970 . S
Li1315 N1365 1.990 . S
Li1315 O1373 1.961 . S
Li1315 O1374 1.970 . S
Li1315 O1375 1.956 . S
C1316 C1318 1.348 . S
C1316 C1319 1.356 . S
C1316 O1372 1.325 . S
N1317 C1320 1.314 . S
N1317 C1321 1.279 . S
C1318 C1316 1.348 . S
C1318 C1320 1.353 . S
C1318 H1376 0.929 . S
C1319 C1316 1.356 . S
C1319 C1321 1.358 . S
C1319 H1377 0.930 . S
C1320 N1317 1.314 . S
C1320 C1318 1.353 . S
C1320 H1378 0.930 . S
C1321 N1317 1.279 . S
C1321 C1319 1.358 . S
C1321 H1379 0.930 . S
C1322 C1325 1.348 . S
C1322 C1326 1.356 . S
C1322 O1373 1.325 . S
C1323 N1324 1.279 . S
C1323 C1326 1.358 . S
C1323 H1380 0.930 . S
N1324 C1323 1.279 . S
N1324 C1327 1.314 . S
C1325 C1322 1.348 . S
C1325 C1327 1.353 . S
C1325 H1381 0.929 . S
C1326 C1322 1.356 . S
C1326 C1323 1.358 . S
C1326 H1382 0.930 . S
C1327 N1324 1.314 . S
C1327 C1325 1.353 . S
C1327 H1383 0.930 . S
C1328 N1329 1.314 . S
C1328 C1333 1.353 . S
C1328 H1334 0.930 . S
N1329 Li1312 1.990 . S
N1329 C1328 1.314 . S
N1329 C1331 1.279 . S
C1330 C1331 1.358 . S
C1330 C1332 1.356 . S
C1330 H1384 0.930 . S
C1331 N1329 1.279 . S
C1331 C1330 1.358 . S
C1331 H1335 0.930 . S
C1332 C1330 1.356 . S
C1332 C1333 1.348 . S
C1333 C1328 1.353 . S
C1333 C1332 1.348 . S
C1333 H1385 0.929 . S
H1334 C1328 0.930 . S
H1335 C1331 0.930 . S
C1336 N1337 1.314 . S
C1336 C1338 1.353 . S
C1336 H1342 0.930 . S
N1337 Li1313 1.990 . S
N1337 C1336 1.314 . S
N1337 C1340 1.279 . S
C1338 C1336 1.353 . S
C1338 C1341 1.348 . S
C1338 H1386 0.929 . S
C1339 C1340 1.358 . S
C1339 C1341 1.356 . S
C1339 H1387 0.930 . S
C1340 N1337 1.279 . S
C1340 C1339 1.358 . S
C1340 H1343 0.930 . S
C1341 C1338 1.348 . S
C1341 C1339 1.356 . S
H1342 C1336 0.930 . S
H1343 C1340 0.930 . S
C1344 C1346 1.348 . S
C1344 C1347 1.356 . S
C1344 O1374 1.325 . S
N1345 C1348 1.314 . S
N1345 C1349 1.279 . S
C1346 C1344 1.348 . S
C1346 C1348 1.353 . S
C1346 H1388 0.929 . S
C1347 C1344 1.356 . S
C1347 C1349 1.358 . S
C1347 H1389 0.930 . S
C1348 N1345 1.314 . S
C1348 C1346 1.353 . S
C1348 H1390 0.930 . S
C1349 N1345 1.279 . S
C1349 C1347 1.358 . S
C1349 H1391 0.930 . S
C1350 C1351 1.348 . S
C1350 C1352 1.356 . S
C1350 O1375 1.325 . S
C1351 C1350 1.348 . S
C1351 C1353 1.353 . S
C1351 H1392 0.929 . S
C1352 C1350 1.356 . S
C1352 C1354 1.358 . S
C1352 H1393 0.930 . S
C1353 C1351 1.353 . S
C1353 N1355 1.314 . S
C1353 H1394 0.930 . S
C1354 C1352 1.358 . S
C1354 N1355 1.279 . S
C1354 H1395 0.930 . S
N1355 C1353 1.314 . S
N1355 C1354 1.279 . S
C1356 C1358 1.353 . S
C1356 N1359 1.314 . S
C1356 H1362 0.930 . S
C1357 N1359 1.279 . S
C1357 C1360 1.358 . S
C1357 H1363 0.930 . S
C1358 C1356 1.353 . S
C1358 C1361 1.348 . S
C1358 H1396 0.929 . S
N1359 Li1314 1.990 . S
N1359 C1356 1.314 . S
N1359 C1357 1.279 . S
C1360 C1357 1.358 . S
C1360 C1361 1.356 . S
C1360 H1397 0.930 . S
C1361 C1358 1.348 . S
C1361 C1360 1.356 . S
H1362 C1356 0.930 . S
H1363 C1357 0.930 . S
C1364 N1365 1.314 . S
C1364 C1366 1.353 . S
C1364 H1370 0.930 . S
N1365 Li1315 1.990 . S
N1365 C1364 1.314 . S
N1365 C1368 1.279 . S
C1366 C1364 1.353 . S
C1366 C1369 1.348 . S
C1366 H1398 0.929 . S
C1367 C1368 1.358 . S
C1367 C1369 1.356 . S
C1367 H1399 0.930 . S
C1368 N1365 1.279 . S
C1368 C1367 1.358 . S
C1368 H1371 0.930 . S
C1369 C1366 1.348 . S
C1369 C1367 1.356 . S
H1370 C1364 0.930 . S
H1371 C1368 0.930 . S
O1372 Li1312 1.956 . S
O1372 Li1313 1.970 . S
O1372 Li1314 1.961 . S
O1372 C1316 1.325 . S
O1373 Li1312 1.970 . S
O1373 Li1313 1.956 . S
O1373 Li1315 1.961 . S
O1373 C1322 1.325 . S
O1374 Li1312 1.961 . S
O1374 Li1314 1.956 . S
O1374 Li1315 1.970 . S
O1374 C1344 1.325 . S
O1375 Li1313 1.961 . S
O1375 Li1314 1.970 . S
O1375 Li1315 1.956 . S
O1375 C1350 1.325 . S
H1376 C1318 0.929 . S
H1377 C1319 0.930 . S
H1378 C1320 0.930 . S
H1379 C1321 0.930 . S
H1380 C1323 0.930 . S
H1381 C1325 0.929 . S
H1382 C1326 0.930 . S
H1383 C1327 0.930 . S
H1384 C1330 0.930 . S
H1385 C1333 0.929 . S
H1386 C1338 0.929 . S
H1387 C1339 0.930 . S
H1388 C1346 0.929 . S
H1389 C1347 0.930 . S
H1390 C1348 0.930 . S
H1391 C1349 0.930 . S
H1392 C1351 0.929 . S
H1393 C1352 0.930 . S
H1394 C1353 0.930 . S
H1395 C1354 0.930 . S
H1396 C1358 0.929 . S
H1397 C1360 0.930 . S
H1398 C1366 0.929 . S
H1399 C1367 0.930 . S
Li1400 N1417 1.990 . S
Li1400 O1460 1.956 . S
Li1400 O1461 1.970 . S
Li1400 O1462 1.961 . S
Li1401 N1425 1.990 . S
Li1401 O1460 1.970 . S
Li1401 O1461 1.956 . S
Li1401 O1463 1.961 . S
Li1402 N1447 1.990 . S
Li1402 O1460 1.961 . S
Li1402 O1462 1.956 . S
Li1402 O1463 1.970 . S
Li1403 N1453 1.990 . S
Li1403 O1461 1.961 . S
Li1403 O1462 1.970 . S
Li1403 O1463 1.956 . S
C1404 C1406 1.348 . S
C1404 C1407 1.356 . S
C1404 O1460 1.325 . S
N1405 C1408 1.314 . S
N1405 C1409 1.279 . S
C1406 C1404 1.348 . S
C1406 C1408 1.353 . S
C1406 H1464 0.929 . S
C1407 C1404 1.356 . S
C1407 C1409 1.358 . S
C1407 H1465 0.930 . S
C1408 N1405 1.314 . S
C1408 C1406 1.353 . S
C1408 H1466 0.930 . S
C1409 N1405 1.279 . S
C1409 C1407 1.358 . S
C1409 H1467 0.930 . S
C1410 C1413 1.348 . S
C1410 C1414 1.356 . S
C1410 O1461 1.325 . S
C1411 N1412 1.279 . S
C1411 C1414 1.358 . S
C1411 H1468 0.930 . S
N1412 C1411 1.279 . S
N1412 C1415 1.314 . S
C1413 C1410 1.348 . S
C1413 C1415 1.353 . S
C1413 H1469 0.929 . S
C1414 C1410 1.356 . S
C1414 C1411 1.358 . S
C1414 H1470 0.930 . S
C1415 N1412 1.314 . S
C1415 C1413 1.353 . S
C1415 H1471 0.930 . S
C1416 N1417 1.314 . S
C1416 C1421 1.353 . S
C1416 H1422 0.930 . S
N1417 Li1400 1.990 . S
N1417 C1416 1.314 . S
N1417 C1419 1.279 . S
C1418 C1419 1.358 . S
C1418 C1420 1.356 . S
C1418 H1472 0.930 . S
C1419 N1417 1.279 . S
C1419 C1418 1.358 . S
C1419 H1423 0.930 . S
C1420 C1418 1.356 . S
C1420 C1421 1.348 . S
C1421 C1416 1.353 . S
C1421 C1420 1.348 . S
C1421 H1473 0.929 . S
H1422 C1416 0.930 . S
H1423 C1419 0.930 . S
C1424 N1425 1.314 . S
C1424 C1426 1.353 . S
C1424 H1430 0.930 . S
N1425 Li1401 1.990 . S
N1425 C1424 1.314 . S
N1425 C1428 1.279 . S
C1426 C1424 1.353 . S
C1426 C1429 1.348 . S
C1426 H1474 0.929 . S
C1427 C1428 1.358 . S
C1427 C1429 1.356 . S
C1427 H1475 0.930 . S
C1428 N1425 1.279 . S
C1428 C1427 1.358 . S
C1428 H1431 0.930 . S
C1429 C1426 1.348 . S
C1429 C1427 1.356 . S
H1430 C1424 0.930 . S
H1431 C1428 0.930 . S
C1432 C1434 1.348 . S
C1432 C1435 1.356 . S
C1432 O1462 1.325 . S
N1433 C1436 1.314 . S
N1433 C1437 1.279 . S
C1434 C1432 1.348 . S
C1434 C1436 1.353 . S
C1434 H1476 0.929 . S
C1435 C1432 1.356 . S
C1435 C1437 1.358 . S
C1435 H1477 0.930 . S
C1436 N1433 1.314 . S
C1436 C1434 1.353 . S
C1436 H1478 0.930 . S
C1437 N1433 1.279 . S
C1437 C1435 1.358 . S
C1437 H1479 0.930 . S
C1438 C1439 1.348 . S
C1438 C1440 1.356 . S
C1438 O1463 1.325 . S
C1439 C1438 1.348 . S
C1439 C1441 1.353 . S
C1439 H1480 0.929 . S
C1440 C1438 1.356 . S
C1440 C1442 1.358 . S
C1440 H1481 0.930 . S
C1441 C1439 1.353 . S
C1441 N1443 1.314 . S
C1441 H1482 0.930 . S
C1442 C1440 1.358 . S
C1442 N1443 1.279 . S
C1442 H1483 0.930 . S
N1443 C1441 1.314 . S
N1443 C1442 1.279 . S
C1444 C1446 1.353 . S
C1444 N1447 1.314 . S
C1444 H1450 0.930 . S
C1445 N1447 1.279 . S
C1445 C1448 1.358 . S
C1445 H1451 0.930 . S
C1446 C1444 1.353 . S
C1446 C1449 1.348 . S
C1446 H1484 0.929 . S
N1447 Li1402 1.990 . S
N1447 C1444 1.314 . S
N1447 C1445 1.279 . S
C1448 C1445 1.358 . S
C1448 C1449 1.356 . S
C1448 H1485 0.930 . S
C1449 C1446 1.348 . S
C1449 C1448 1.356 . S
H1450 C1444 0.930 . S
H1451 C1445 0.930 . S
C1452 N1453 1.314 . S
C1452 C1454 1.353 . S
C1452 H1458 0.930 . S
N1453 Li1403 1.990 . S
N1453 C1452 1.314 . S
N1453 C1456 1.279 . S
C1454 C1452 1.353 . S
C1454 C1457 1.348 . S
C1454 H1486 0.929 . S
C1455 C1456 1.358 . S
C1455 C1457 1.356 . S
C1455 H1487 0.930 . S
C1456 N1453 1.279 . S
C1456 C1455 1.358 . S
C1456 H1459 0.930 . S
C1457 C1454 1.348 . S
C1457 C1455 1.356 . S
H1458 C1452 0.930 . S
H1459 C1456 0.930 . S
O1460 Li1400 1.956 . S
O1460 Li1401 1.970 . S
O1460 Li1402 1.961 . S
O1460 C1404 1.325 . S
O1461 Li1400 1.970 . S
O1461 Li1401 1.956 . S
O1461 Li1403 1.961 . S
O1461 C1410 1.325 . S
O1462 Li1400 1.961 . S
O1462 Li1402 1.956 . S
O1462 Li1403 1.970 . S
O1462 C1432 1.325 . S
O1463 Li1401 1.961 . S
O1463 Li1402 1.970 . S
O1463 Li1403 1.956 . S
O1463 C1438 1.325 . S
H1464 C1406 0.929 . S
H1465 C1407 0.930 . S
H1466 C1408 0.930 . S
H1467 C1409 0.930 . S
H1468 C1411 0.930 . S
H1469 C1413 0.929 . S
H1470 C1414 0.930 . S
H1471 C1415 0.930 . S
H1472 C1418 0.930 . S
H1473 C1421 0.929 . S
H1474 C1426 0.929 . S
H1475 C1427 0.930 . S
H1476 C1434 0.929 . S
H1477 C1435 0.930 . S
H1478 C1436 0.930 . S
H1479 C1437 0.930 . S
H1480 C1439 0.929 . S
H1481 C1440 0.930 . S
H1482 C1441 0.930 . S
H1483 C1442 0.930 . S
H1484 C1446 0.929 . S
H1485 C1448 0.930 . S
H1486 C1454 0.929 . S
H1487 C1455 0.930 . S
Li1488 N1505 1.990 . S
Li1488 O1548 1.956 . S
Li1488 O1549 1.970 . S
Li1488 O1550 1.961 . S
Li1489 N1513 1.990 . S
Li1489 O1548 1.970 . S
Li1489 O1549 1.956 . S
Li1489 O1551 1.961 . S
Li1490 N1535 1.990 . S
Li1490 O1548 1.961 . S
Li1490 O1550 1.956 . S
Li1490 O1551 1.970 . S
Li1491 N1541 1.990 . S
Li1491 O1549 1.961 . S
Li1491 O1550 1.970 . S
Li1491 O1551 1.956 . S
C1492 C1494 1.348 . S
C1492 C1495 1.356 . S
C1492 O1548 1.325 . S
N1493 C1496 1.314 . S
N1493 C1497 1.279 . S
C1494 C1492 1.348 . S
C1494 C1496 1.353 . S
C1494 H1552 0.929 . S
C1495 C1492 1.356 . S
C1495 C1497 1.358 . S
C1495 H1553 0.930 . S
C1496 N1493 1.314 . S
C1496 C1494 1.353 . S
C1496 H1554 0.930 . S
C1497 N1493 1.279 . S
C1497 C1495 1.358 . S
C1497 H1555 0.930 . S
C1498 C1501 1.348 . S
C1498 C1502 1.356 . S
C1498 O1549 1.325 . S
C1499 N1500 1.279 . S
C1499 C1502 1.358 . S
C1499 H1556 0.930 . S
N1500 C1499 1.279 . S
N1500 C1503 1.314 . S
C1501 C1498 1.348 . S
C1501 C1503 1.353 . S
C1501 H1557 0.929 . S
C1502 C1498 1.356 . S
C1502 C1499 1.358 . S
C1502 H1558 0.930 . S
C1503 N1500 1.314 . S
C1503 C1501 1.353 . S
C1503 H1559 0.930 . S
C1504 N1505 1.314 . S
C1504 C1509 1.353 . S
C1504 H1510 0.930 . S
N1505 Li1488 1.990 . S
N1505 C1504 1.314 . S
N1505 C1507 1.279 . S
C1506 C1507 1.358 . S
C1506 C1508 1.356 . S
C1506 H1560 0.930 . S
C1507 N1505 1.279 . S
C1507 C1506 1.358 . S
C1507 H1511 0.930 . S
C1508 C1506 1.356 . S
C1508 C1509 1.348 . S
C1509 C1504 1.353 . S
C1509 C1508 1.348 . S
C1509 H1561 0.929 . S
H1510 C1504 0.930 . S
H1511 C1507 0.930 . S
C1512 N1513 1.314 . S
C1512 C1514 1.353 . S
C1512 H1518 0.930 . S
N1513 Li1489 1.990 . S
N1513 C1512 1.314 . S
N1513 C1516 1.279 . S
C1514 C1512 1.353 . S
C1514 C1517 1.348 . S
C1514 H1562 0.929 . S
C1515 C1516 1.358 . S
C1515 C1517 1.356 . S
C1515 H1563 0.930 . S
C1516 N1513 1.279 . S
C1516 C1515 1.358 . S
C1516 H1519 0.930 . S
C1517 C1514 1.348 . S
C1517 C1515 1.356 . S
H1518 C1512 0.930 . S
H1519 C1516 0.930 . S
C1520 C1522 1.348 . S
C1520 C1523 1.356 . S
C1520 O1550 1.325 . S
N1521 C1524 1.314 . S
N1521 C1525 1.279 . S
C1522 C1520 1.348 . S
C1522 C1524 1.353 . S
C1522 H1564 0.929 . S
C1523 C1520 1.356 . S
C1523 C1525 1.358 . S
C1523 H1565 0.930 . S
C1524 N1521 1.314 . S
C1524 C1522 1.353 . S
C1524 H1566 0.930 . S
C1525 N1521 1.279 . S
C1525 C1523 1.358 . S
C1525 H1567 0.930 . S
C1526 C1527 1.348 . S
C1526 C1528 1.356 . S
C1526 O1551 1.325 . S
C1527 C1526 1.348 . S
C1527 C1529 1.353 . S
C1527 H1568 0.929 . S
C1528 C1526 1.356 . S
C1528 C1530 1.358 . S
C1528 H1569 0.930 . S
C1529 C1527 1.353 . S
C1529 N1531 1.314 . S
C1529 H1570 0.930 . S
C1530 C1528 1.358 . S
C1530 N1531 1.279 . S
C1530 H1571 0.930 . S
N1531 C1529 1.314 . S
N1531 C1530 1.279 . S
C1532 C1534 1.353 . S
C1532 N1535 1.314 . S
C1532 H1538 0.930 . S
C1533 N1535 1.279 . S
C1533 C1536 1.358 . S
C1533 H1539 0.930 . S
C1534 C1532 1.353 . S
C1534 C1537 1.348 . S
C1534 H1572 0.929 . S
N1535 Li1490 1.990 . S
N1535 C1532 1.314 . S
N1535 C1533 1.279 . S
C1536 C1533 1.358 . S
C1536 C1537 1.356 . S
C1536 H1573 0.930 . S
C1537 C1534 1.348 . S
C1537 C1536 1.356 . S
H1538 C1532 0.930 . S
H1539 C1533 0.930 . S
C1540 N1541 1.314 . S
C1540 C1542 1.353 . S
C1540 H1546 0.930 . S
N1541 Li1491 1.990 . S
N1541 C1540 1.314 . S
N1541 C1544 1.279 . S
C1542 C1540 1.353 . S
C1542 C1545 1.348 . S
C1542 H1574 0.929 . S
C1543 C1544 1.358 . S
C1543 C1545 1.356 . S
C1543 H1575 0.930 . S
C1544 N1541 1.279 . S
C1544 C1543 1.358 . S
C1544 H1547 0.930 . S
C1545 C1542 1.348 . S
C1545 C1543 1.356 . S
H1546 C1540 0.930 . S
H1547 C1544 0.930 . S
O1548 Li1488 1.956 . S
O1548 Li1489 1.970 . S
O1548 Li1490 1.961 . S
O1548 C1492 1.325 . S
O1549 Li1488 1.970 . S
O1549 Li1489 1.956 . S
O1549 Li1491 1.961 . S
O1549 C1498 1.325 . S
O1550 Li1488 1.961 . S
O1550 Li1490 1.956 . S
O1550 Li1491 1.970 . S
O1550 C1520 1.325 . S
O1551 Li1489 1.961 . S
O1551 Li1490 1.970 . S
O1551 Li1491 1.956 . S
O1551 C1526 1.325 . S
H1552 C1494 0.929 . S
H1553 C1495 0.930 . S
H1554 C1496 0.930 . S
H1555 C1497 0.930 . S
H1556 C1499 0.930 . S
H1557 C1501 0.929 . S
H1558 C1502 0.930 . S
H1559 C1503 0.930 . S
H1560 C1506 0.930 . S
H1561 C1509 0.929 . S
H1562 C1514 0.929 . S
H1563 C1515 0.930 . S
H1564 C1522 0.929 . S
H1565 C1523 0.930 . S
H1566 C1524 0.930 . S
H1567 C1525 0.930 . S
H1568 C1527 0.929 . S
H1569 C1528 0.930 . S
H1570 C1529 0.930 . S
H1571 C1530 0.930 . S
H1572 C1534 0.929 . S
H1573 C1536 0.930 . S
H1574 C1542 0.929 . S
H1575 C1543 0.930 . S
Li1576 N1593 1.990 . S
Li1576 O1636 1.956 . S
Li1576 O1637 1.970 1_565 S
Li1576 O1638 1.961 . S
Li1577 N1601 1.990 . S
Li1577 O1636 1.970 1_545 S
Li1577 O1637 1.956 . S
Li1577 O1639 1.961 . S
Li1578 N1623 1.990 . S
Li1578 O1636 1.961 . S
Li1578 O1638 1.956 . S
Li1578 O1639 1.970 1_565 S
Li1579 N1629 1.990 . S
Li1579 O1637 1.961 . S
Li1579 O1638 1.970 1_545 S
Li1579 O1639 1.956 . S
C1580 C1582 1.348 . S
C1580 C1583 1.356 . S
C1580 O1636 1.325 . S
N1581 C1584 1.314 . S
N1581 C1585 1.279 . S
C1582 C1580 1.348 . S
C1582 C1584 1.353 . S
C1582 H1640 0.929 . S
C1583 C1580 1.356 . S
C1583 C1585 1.358 . S
C1583 H1641 0.930 . S
C1584 N1581 1.314 . S
C1584 C1582 1.353 . S
C1584 H1642 0.930 . S
C1585 N1581 1.279 . S
C1585 C1583 1.358 . S
C1585 H1643 0.930 . S
C1586 C1589 1.348 1_545 S
C1586 C1590 1.356 . S
C1586 O1637 1.325 . S
C1587 N1588 1.279 . S
C1587 C1590 1.358 . S
C1587 H1644 0.930 . S
N1588 C1587 1.279 . S
N1588 C1591 1.314 1_545 S
C1589 C1586 1.348 1_565 S
C1589 C1591 1.353 . S
C1589 H1645 0.929 . S
C1590 C1586 1.356 . S
C1590 C1587 1.358 . S
C1590 H1646 0.930 . S
C1591 N1588 1.314 1_565 S
C1591 C1589 1.353 . S
C1591 H1647 0.930 . S
C1592 N1593 1.314 . S
C1592 C1597 1.353 . S
C1592 H1598 0.930 . S
N1593 Li1576 1.990 . S
N1593 C1592 1.314 . S
N1593 C1595 1.279 . S
C1594 C1595 1.358 . S
C1594 C1596 1.356 . S
C1594 H1648 0.930 . S
C1595 N1593 1.279 . S
C1595 C1594 1.358 . S
C1595 H1599 0.930 . S
C1596 C1594 1.356 . S
C1596 C1597 1.348 . S
C1597 C1592 1.353 . S
C1597 C1596 1.348 . S
C1597 H1649 0.929 . S
H1598 C1592 0.930 . S
H1599 C1595 0.930 . S
C1600 N1601 1.314 . S
C1600 C1602 1.353 . S
C1600 H1606 0.930 . S
N1601 Li1577 1.990 . S
N1601 C1600 1.314 . S
N1601 C1604 1.279 . S
C1602 C1600 1.353 . S
C1602 C1605 1.348 . S
C1602 H1650 0.929 . S
C1603 C1604 1.358 . S
C1603 C1605 1.356 . S
C1603 H1651 0.930 . S
C1604 N1601 1.279 . S
C1604 C1603 1.358 . S
C1604 H1607 0.930 . S
C1605 C1602 1.348 . S
C1605 C1603 1.356 . S
H1606 C1600 0.930 . S
H1607 C1604 0.930 . S
C1608 C1610 1.348 1_565 S
C1608 C1611 1.356 . S
C1608 O1638 1.325 . S
N1609 C1612 1.314 1_565 S
N1609 C1613 1.279 . S
C1610 C1608 1.348 1_545 S
C1610 C1612 1.353 . S
C1610 H1652 0.929 . S
C1611 C1608 1.356 . S
C1611 C1613 1.358 . S
C1611 H1653 0.930 . S
C1612 N1609 1.314 1_545 S
C1612 C1610 1.353 . S
C1612 H1654 0.930 . S
C1613 N1609 1.279 . S
C1613 C1611 1.358 . S
C1613 H1655 0.930 . S
C1614 C1615 1.348 . S
C1614 C1616 1.356 . S
C1614 O1639 1.325 . S
C1615 C1614 1.348 . S
C1615 C1617 1.353 . S
C1615 H1656 0.929 . S
C1616 C1614 1.356 . S
C1616 C1618 1.358 . S
C1616 H1657 0.930 . S
C1617 C1615 1.353 . S
C1617 N1619 1.314 . S
C1617 H1658 0.930 . S
C1618 C1616 1.358 . S
C1618 N1619 1.279 . S
C1618 H1659 0.930 . S
N1619 C1617 1.314 . S
N1619 C1618 1.279 . S
C1620 C1622 1.353 . S
C1620 N1623 1.314 . S
C1620 H1626 0.930 . S
C1621 N1623 1.279 . S
C1621 C1624 1.358 . S
C1621 H1627 0.930 . S
C1622 C1620 1.353 . S
C1622 C1625 1.348 . S
C1622 H1660 0.929 . S
N1623 Li1578 1.990 . S
N1623 C1620 1.314 . S
N1623 C1621 1.279 . S
C1624 C1621 1.358 . S
C1624 C1625 1.356 . S
C1624 H1661 0.930 . S
C1625 C1622 1.348 . S
C1625 C1624 1.356 . S
H1626 C1620 0.930 . S
H1627 C1621 0.930 . S
C1628 N1629 1.314 . S
C1628 C1630 1.353 . S
C1628 H1634 0.930 . S
N1629 Li1579 1.990 . S
N1629 C1628 1.314 . S
N1629 C1632 1.279 . S
C1630 C1628 1.353 . S
C1630 C1633 1.348 . S
C1630 H1662 0.929 . S
C1631 C1632 1.358 . S
C1631 C1633 1.356 . S
C1631 H1663 0.930 . S
C1632 N1629 1.279 . S
C1632 C1631 1.358 . S
C1632 H1635 0.930 . S
C1633 C1630 1.348 . S
C1633 C1631 1.356 . S
H1634 C1628 0.930 . S
H1635 C1632 0.930 . S
O1636 Li1576 1.956 . S
O1636 Li1577 1.970 1_565 S
O1636 Li1578 1.961 . S
O1636 C1580 1.325 . S
O1637 Li1576 1.970 1_545 S
O1637 Li1577 1.956 . S
O1637 Li1579 1.961 . S
O1637 C1586 1.325 . S
O1638 Li1576 1.961 . S
O1638 Li1578 1.956 . S
O1638 Li1579 1.970 1_565 S
O1638 C1608 1.325 . S
O1639 Li1577 1.961 . S
O1639 Li1578 1.970 1_545 S
O1639 Li1579 1.956 . S
O1639 C1614 1.325 . S
H1640 C1582 0.929 . S
H1641 C1583 0.930 . S
H1642 C1584 0.930 . S
H1643 C1585 0.930 . S
H1644 C1587 0.930 . S
H1645 C1589 0.929 . S
H1646 C1590 0.930 . S
H1647 C1591 0.930 . S
H1648 C1594 0.930 . S
H1649 C1597 0.929 . S
H1650 C1602 0.929 . S
H1651 C1603 0.930 . S
H1652 C1610 0.929 . S
H1653 C1611 0.930 . S
H1654 C1612 0.930 . S
H1655 C1613 0.930 . S
H1656 C1615 0.929 . S
H1657 C1616 0.930 . S
H1658 C1617 0.930 . S
H1659 C1618 0.930 . S
H1660 C1622 0.929 . S
H1661 C1624 0.930 . S
H1662 C1630 0.929 . S
H1663 C1631 0.930 . S
Li1664 N1681 1.990 . S
Li1664 O1724 1.956 . S
Li1664 O1725 1.970 1_455 S
Li1664 O1726 1.961 . S
Li1665 N1689 1.990 . S
Li1665 O1724 1.970 1_655 S
Li1665 O1725 1.956 . S
Li1665 O1727 1.961 . S
Li1666 N1711 1.990 . S
Li1666 O1724 1.961 . S
Li1666 O1726 1.956 . S
Li1666 O1727 1.970 1_455 S
Li1667 N1717 1.990 . S
Li1667 O1725 1.961 . S
Li1667 O1726 1.970 1_655 S
Li1667 O1727 1.956 . S
C1668 C1670 1.348 . S
C1668 C1671 1.356 . S
C1668 O1724 1.325 . S
N1669 C1672 1.314 . S
N1669 C1673 1.279 . S
C1670 C1668 1.348 . S
C1670 C1672 1.353 . S
C1670 H1728 0.929 . S
C1671 C1668 1.356 . S
C1671 C1673 1.358 . S
C1671 H1729 0.930 . S
C1672 N1669 1.314 . S
C1672 C1670 1.353 . S
C1672 H1730 0.930 . S
C1673 N1669 1.279 . S
C1673 C1671 1.358 . S
C1673 H1731 0.930 . S
C1674 C1677 1.348 1_655 S
C1674 C1678 1.356 . S
C1674 O1725 1.325 . S
C1675 N1676 1.279 . S
C1675 C1678 1.358 . S
C1675 H1732 0.930 . S
N1676 C1675 1.279 . S
N1676 C1679 1.314 1_655 S
C1677 C1674 1.348 1_455 S
C1677 C1679 1.353 . S
C1677 H1733 0.929 . S
C1678 C1674 1.356 . S
C1678 C1675 1.358 . S
C1678 H1734 0.930 . S
C1679 N1676 1.314 1_455 S
C1679 C1677 1.353 . S
C1679 H1735 0.930 . S
C1680 N1681 1.314 . S
C1680 C1685 1.353 . S
C1680 H1686 0.930 . S
N1681 Li1664 1.990 . S
N1681 C1680 1.314 . S
N1681 C1683 1.279 . S
C1682 C1683 1.358 . S
C1682 C1684 1.356 . S
C1682 H1736 0.930 . S
C1683 N1681 1.279 . S
C1683 C1682 1.358 . S
C1683 H1687 0.930 . S
C1684 C1682 1.356 . S
C1684 C1685 1.348 . S
C1685 C1680 1.353 . S
C1685 C1684 1.348 . S
C1685 H1737 0.929 . S
H1686 C1680 0.930 . S
H1687 C1683 0.930 . S
C1688 N1689 1.314 . S
C1688 C1690 1.353 . S
C1688 H1694 0.930 . S
N1689 Li1665 1.990 . S
N1689 C1688 1.314 . S
N1689 C1692 1.279 . S
C1690 C1688 1.353 . S
C1690 C1693 1.348 . S
C1690 H1738 0.929 . S
C1691 C1692 1.358 . S
C1691 C1693 1.356 . S
C1691 H1739 0.930 . S
C1692 N1689 1.279 . S
C1692 C1691 1.358 . S
C1692 H1695 0.930 . S
C1693 C1690 1.348 . S
C1693 C1691 1.356 . S
H1694 C1688 0.930 . S
H1695 C1692 0.930 . S
C1696 C1698 1.348 1_455 S
C1696 C1699 1.356 . S
C1696 O1726 1.325 . S
N1697 C1700 1.314 1_455 S
N1697 C1701 1.279 . S
C1698 C1696 1.348 1_655 S
C1698 C1700 1.353 . S
C1698 H1740 0.929 . S
C1699 C1696 1.356 . S
C1699 C1701 1.358 . S
C1699 H1741 0.930 . S
C1700 N1697 1.314 1_655 S
C1700 C1698 1.353 . S
C1700 H1742 0.930 . S
C1701 N1697 1.279 . S
C1701 C1699 1.358 . S
C1701 H1743 0.930 . S
C1702 C1703 1.348 . S
C1702 C1704 1.356 . S
C1702 O1727 1.325 . S
C1703 C1702 1.348 . S
C1703 C1705 1.353 . S
C1703 H1744 0.929 . S
C1704 C1702 1.356 . S
C1704 C1706 1.358 . S
C1704 H1745 0.930 . S
C1705 C1703 1.353 . S
C1705 N1707 1.314 . S
C1705 H1746 0.930 . S
C1706 C1704 1.358 . S
C1706 N1707 1.279 . S
C1706 H1747 0.930 . S
N1707 C1705 1.314 . S
N1707 C1706 1.279 . S
C1708 C1710 1.353 . S
C1708 N1711 1.314 . S
C1708 H1714 0.930 . S
C1709 N1711 1.279 . S
C1709 C1712 1.358 . S
C1709 H1715 0.930 . S
C1710 C1708 1.353 . S
C1710 C1713 1.348 . S
C1710 H1748 0.929 . S
N1711 Li1666 1.990 . S
N1711 C1708 1.314 . S
N1711 C1709 1.279 . S
C1712 C1709 1.358 . S
C1712 C1713 1.356 . S
C1712 H1749 0.930 . S
C1713 C1710 1.348 . S
C1713 C1712 1.356 . S
H1714 C1708 0.930 . S
H1715 C1709 0.930 . S
C1716 N1717 1.314 . S
C1716 C1718 1.353 . S
C1716 H1722 0.930 . S
N1717 Li1667 1.990 . S
N1717 C1716 1.314 . S
N1717 C1720 1.279 . S
C1718 C1716 1.353 . S
C1718 C1721 1.348 . S
C1718 H1750 0.929 . S
C1719 C1720 1.358 . S
C1719 C1721 1.356 . S
C1719 H1751 0.930 . S
C1720 N1717 1.279 . S
C1720 C1719 1.358 . S
C1720 H1723 0.930 . S
C1721 C1718 1.348 . S
C1721 C1719 1.356 . S
H1722 C1716 0.930 . S
H1723 C1720 0.930 . S
O1724 Li1664 1.956 . S
O1724 Li1665 1.970 1_455 S
O1724 Li1666 1.961 . S
O1724 C1668 1.325 . S
O1725 Li1664 1.970 1_655 S
O1725 Li1665 1.956 . S
O1725 Li1667 1.961 . S
O1725 C1674 1.325 . S
O1726 Li1664 1.961 . S
O1726 Li1666 1.956 . S
O1726 Li1667 1.970 1_455 S
O1726 C1696 1.325 . S
O1727 Li1665 1.961 . S
O1727 Li1666 1.970 1_655 S
O1727 Li1667 1.956 . S
O1727 C1702 1.325 . S
H1728 C1670 0.929 . S
H1729 C1671 0.930 . S
H1730 C1672 0.930 . S
H1731 C1673 0.930 . S
H1732 C1675 0.930 . S
H1733 C1677 0.929 . S
H1734 C1678 0.930 . S
H1735 C1679 0.930 . S
H1736 C1682 0.930 . S
H1737 C1685 0.929 . S
H1738 C1690 0.929 . S
H1739 C1691 0.930 . S
H1740 C1698 0.929 . S
H1741 C1699 0.930 . S
H1742 C1700 0.930 . S
H1743 C1701 0.930 . S
H1744 C1703 0.929 . S
H1745 C1704 0.930 . S
H1746 C1705 0.930 . S
H1747 C1706 0.930 . S
H1748 C1710 0.929 . S
H1749 C1712 0.930 . S
H1750 C1718 0.929 . S
H1751 C1719 0.930 . S
Li1752 N1769 1.990 . S
Li1752 O1812 1.956 . S
Li1752 O1813 1.970 . S
Li1752 O1814 1.961 . S
Li1753 N1777 1.990 . S
Li1753 O1812 1.970 . S
Li1753 O1813 1.956 . S
Li1753 O1815 1.961 . S
Li1754 N1799 1.990 . S
Li1754 O1812 1.961 . S
Li1754 O1814 1.956 . S
Li1754 O1815 1.970 . S
Li1755 N1805 1.990 . S
Li1755 O1813 1.961 . S
Li1755 O1814 1.970 . S
Li1755 O1815 1.956 . S
C1756 C1758 1.348 . S
C1756 C1759 1.356 . S
C1756 O1812 1.325 . S
N1757 C1760 1.314 . S
N1757 C1761 1.279 . S
C1758 C1756 1.348 . S
C1758 C1760 1.353 . S
C1758 H1816 0.929 . S
C1759 C1756 1.356 . S
C1759 C1761 1.358 . S
C1759 H1817 0.930 . S
C1760 N1757 1.314 . S
C1760 C1758 1.353 . S
C1760 H1818 0.930 . S
C1761 N1757 1.279 . S
C1761 C1759 1.358 . S
C1761 H1819 0.930 . S
C1762 C1765 1.348 . S
C1762 C1766 1.356 . S
C1762 O1813 1.325 . S
C1763 N1764 1.279 . S
C1763 C1766 1.358 . S
C1763 H1820 0.930 . S
N1764 C1763 1.279 . S
N1764 C1767 1.314 . S
C1765 C1762 1.348 . S
C1765 C1767 1.353 . S
C1765 H1821 0.929 . S
C1766 C1762 1.356 . S
C1766 C1763 1.358 . S
C1766 H1822 0.930 . S
C1767 N1764 1.314 . S
C1767 C1765 1.353 . S
C1767 H1823 0.930 . S
C1768 N1769 1.314 . S
C1768 C1773 1.353 . S
C1768 H1774 0.930 . S
N1769 Li1752 1.990 . S
N1769 C1768 1.314 . S
N1769 C1771 1.279 . S
C1770 C1771 1.358 . S
C1770 C1772 1.356 . S
C1770 H1824 0.930 . S
C1771 N1769 1.279 . S
C1771 C1770 1.358 . S
C1771 H1775 0.930 . S
C1772 C1770 1.356 . S
C1772 C1773 1.348 . S
C1773 C1768 1.353 . S
C1773 C1772 1.348 . S
C1773 H1825 0.929 . S
H1774 C1768 0.930 . S
H1775 C1771 0.930 . S
C1776 N1777 1.314 . S
C1776 C1778 1.353 . S
C1776 H1782 0.930 . S
N1777 Li1753 1.990 . S
N1777 C1776 1.314 . S
N1777 C1780 1.279 . S
C1778 C1776 1.353 . S
C1778 C1781 1.348 . S
C1778 H1826 0.929 . S
C1779 C1780 1.358 . S
C1779 C1781 1.356 . S
C1779 H1827 0.930 . S
C1780 N1777 1.279 . S
C1780 C1779 1.358 . S
C1780 H1783 0.930 . S
C1781 C1778 1.348 . S
C1781 C1779 1.356 . S
H1782 C1776 0.930 . S
H1783 C1780 0.930 . S
C1784 C1786 1.348 . S
C1784 C1787 1.356 . S
C1784 O1814 1.325 . S
N1785 C1788 1.314 . S
N1785 C1789 1.279 . S
C1786 C1784 1.348 . S
C1786 C1788 1.353 . S
C1786 H1828 0.929 . S
C1787 C1784 1.356 . S
C1787 C1789 1.358 . S
C1787 H1829 0.930 . S
C1788 N1785 1.314 . S
C1788 C1786 1.353 . S
C1788 H1830 0.930 . S
C1789 N1785 1.279 . S
C1789 C1787 1.358 . S
C1789 H1831 0.930 . S
C1790 C1791 1.348 . S
C1790 C1792 1.356 . S
C1790 O1815 1.325 . S
C1791 C1790 1.348 . S
C1791 C1793 1.353 . S
C1791 H1832 0.929 . S
C1792 C1790 1.356 . S
C1792 C1794 1.358 . S
C1792 H1833 0.930 . S
C1793 C1791 1.353 . S
C1793 N1795 1.314 . S
C1793 H1834 0.930 . S
C1794 C1792 1.358 . S
C1794 N1795 1.279 . S
C1794 H1835 0.930 . S
N1795 C1793 1.314 . S
N1795 C1794 1.279 . S
C1796 C1798 1.353 . S
C1796 N1799 1.314 . S
C1796 H1802 0.930 . S
C1797 N1799 1.279 . S
C1797 C1800 1.358 . S
C1797 H1803 0.930 . S
C1798 C1796 1.353 . S
C1798 C1801 1.348 . S
C1798 H1836 0.929 . S
N1799 Li1754 1.990 . S
N1799 C1796 1.314 . S
N1799 C1797 1.279 . S
C1800 C1797 1.358 . S
C1800 C1801 1.356 . S
C1800 H1837 0.930 . S
C1801 C1798 1.348 . S
C1801 C1800 1.356 . S
H1802 C1796 0.930 . S
H1803 C1797 0.930 . S
C1804 N1805 1.314 . S
C1804 C1806 1.353 . S
C1804 H1810 0.930 . S
N1805 Li1755 1.990 . S
N1805 C1804 1.314 . S
N1805 C1808 1.279 . S
C1806 C1804 1.353 . S
C1806 C1809 1.348 . S
C1806 H1838 0.929 . S
C1807 C1808 1.358 . S
C1807 C1809 1.356 . S
C1807 H1839 0.930 . S
C1808 N1805 1.279 . S
C1808 C1807 1.358 . S
C1808 H1811 0.930 . S
C1809 C1806 1.348 . S
C1809 C1807 1.356 . S
H1810 C1804 0.930 . S
H1811 C1808 0.930 . S
O1812 Li1752 1.956 . S
O1812 Li1753 1.970 . S
O1812 Li1754 1.961 . S
O1812 C1756 1.325 . S
O1813 Li1752 1.970 . S
O1813 Li1753 1.956 . S
O1813 Li1755 1.961 . S
O1813 C1762 1.325 . S
O1814 Li1752 1.961 . S
O1814 Li1754 1.956 . S
O1814 Li1755 1.970 . S
O1814 C1784 1.325 . S
O1815 Li1753 1.961 . S
O1815 Li1754 1.970 . S
O1815 Li1755 1.956 . S
O1815 C1790 1.325 . S
H1816 C1758 0.929 . S
H1817 C1759 0.930 . S
H1818 C1760 0.930 . S
H1819 C1761 0.930 . S
H1820 C1763 0.930 . S
H1821 C1765 0.929 . S
H1822 C1766 0.930 . S
H1823 C1767 0.930 . S
H1824 C1770 0.930 . S
H1825 C1773 0.929 . S
H1826 C1778 0.929 . S
H1827 C1779 0.930 . S
H1828 C1786 0.929 . S
H1829 C1787 0.930 . S
H1830 C1788 0.930 . S
H1831 C1789 0.930 . S
H1832 C1791 0.929 . S
H1833 C1792 0.930 . S
H1834 C1793 0.930 . S
H1835 C1794 0.930 . S
H1836 C1798 0.929 . S
H1837 C1800 0.930 . S
H1838 C1806 0.929 . S
H1839 C1807 0.930 . S
Li1840 N1857 1.990 . S
Li1840 O1900 1.956 . S
Li1840 O1901 1.970 1_455 S
Li1840 O1902 1.961 . S
Li1841 N1865 1.990 . S
Li1841 O1900 1.970 1_655 S
Li1841 O1901 1.956 . S
Li1841 O1903 1.961 . S
Li1842 N1887 1.990 . S
Li1842 O1900 1.961 . S
Li1842 O1902 1.956 . S
Li1842 O1903 1.970 1_455 S
Li1843 N1893 1.990 . S
Li1843 O1901 1.961 . S
Li1843 O1902 1.970 1_655 S
Li1843 O1903 1.956 . S
C1844 C1846 1.348 1_455 S
C1844 C1847 1.356 . S
C1844 O1900 1.325 . S
N1845 C1848 1.314 1_455 S
N1845 C1849 1.279 . S
C1846 C1844 1.348 1_655 S
C1846 C1848 1.353 . S
C1846 H1904 0.929 . S
C1847 C1844 1.356 . S
C1847 C1849 1.358 . S
C1847 H1905 0.930 . S
C1848 N1845 1.314 1_655 S
C1848 C1846 1.353 . S
C1848 H1906 0.930 . S
C1849 N1845 1.279 . S
C1849 C1847 1.358 . S
C1849 H1907 0.930 . S
C1850 C1853 1.348 . S
C1850 C1854 1.356 . S
C1850 O1901 1.325 . S
C1851 N1852 1.279 . S
C1851 C1854 1.358 . S
C1851 H1908 0.930 . S
N1852 C1851 1.279 . S
N1852 C1855 1.314 . S
C1853 C1850 1.348 . S
C1853 C1855 1.353 . S
C1853 H1909 0.929 . S
C1854 C1850 1.356 . S
C1854 C1851 1.358 . S
C1854 H1910 0.930 . S
C1855 N1852 1.314 . S
C1855 C1853 1.353 . S
C1855 H1911 0.930 . S
C1856 N1857 1.314 . S
C1856 C1861 1.353 . S
C1856 H1862 0.930 . S
N1857 Li1840 1.990 . S
N1857 C1856 1.314 . S
N1857 C1859 1.279 . S
C1858 C1859 1.358 . S
C1858 C1860 1.356 . S
C1858 H1912 0.930 . S
C1859 N1857 1.279 . S
C1859 C1858 1.358 . S
C1859 H1863 0.930 . S
C1860 C1858 1.356 . S
C1860 C1861 1.348 . S
C1861 C1856 1.353 . S
C1861 C1860 1.348 . S
C1861 H1913 0.929 . S
H1862 C1856 0.930 . S
H1863 C1859 0.930 . S
C1864 N1865 1.314 . S
C1864 C1866 1.353 . S
C1864 H1870 0.930 . S
N1865 Li1841 1.990 . S
N1865 C1864 1.314 . S
N1865 C1868 1.279 . S
C1866 C1864 1.353 . S
C1866 C1869 1.348 . S
C1866 H1914 0.929 . S
C1867 C1868 1.358 . S
C1867 C1869 1.356 . S
C1867 H1915 0.930 . S
C1868 N1865 1.279 . S
C1868 C1867 1.358 . S
C1868 H1871 0.930 . S
C1869 C1866 1.348 . S
C1869 C1867 1.356 . S
H1870 C1864 0.930 . S
H1871 C1868 0.930 . S
C1872 C1874 1.348 . S
C1872 C1875 1.356 . S
C1872 O1902 1.325 . S
N1873 C1876 1.314 . S
N1873 C1877 1.279 . S
C1874 C1872 1.348 . S
C1874 C1876 1.353 . S
C1874 H1916 0.929 . S
C1875 C1872 1.356 . S
C1875 C1877 1.358 . S
C1875 H1917 0.930 . S
C1876 N1873 1.314 . S
C1876 C1874 1.353 . S
C1876 H1918 0.930 . S
C1877 N1873 1.279 . S
C1877 C1875 1.358 . S
C1877 H1919 0.930 . S
C1878 C1879 1.348 1_655 S
C1878 C1880 1.356 . S
C1878 O1903 1.325 . S
C1879 C1878 1.348 1_455 S
C1879 C1881 1.353 . S
C1879 H1920 0.929 . S
C1880 C1878 1.356 . S
C1880 C1882 1.358 . S
C1880 H1921 0.930 . S
C1881 C1879 1.353 . S
C1881 N1883 1.314 1_455 S
C1881 H1922 0.930 . S
C1882 C1880 1.358 . S
C1882 N1883 1.279 . S
C1882 H1923 0.930 . S
N1883 C1881 1.314 1_655 S
N1883 C1882 1.279 . S
C1884 C1886 1.353 . S
C1884 N1887 1.314 . S
C1884 H1890 0.930 . S
C1885 N1887 1.279 . S
C1885 C1888 1.358 . S
C1885 H1891 0.930 . S
C1886 C1884 1.353 . S
C1886 C1889 1.348 . S
C1886 H1924 0.929 . S
N1887 Li1842 1.990 . S
N1887 C1884 1.314 . S
N1887 C1885 1.279 . S
C1888 C1885 1.358 . S
C1888 C1889 1.356 . S
C1888 H1925 0.930 . S
C1889 C1886 1.348 . S
C1889 C1888 1.356 . S
H1890 C1884 0.930 . S
H1891 C1885 0.930 . S
C1892 N1893 1.314 . S
C1892 C1894 1.353 . S
C1892 H1898 0.930 . S
N1893 Li1843 1.990 . S
N1893 C1892 1.314 . S
N1893 C1896 1.279 . S
C1894 C1892 1.353 . S
C1894 C1897 1.348 . S
C1894 H1926 0.929 . S
C1895 C1896 1.358 . S
C1895 C1897 1.356 . S
C1895 H1927 0.930 . S
C1896 N1893 1.279 . S
C1896 C1895 1.358 . S
C1896 H1899 0.930 . S
C1897 C1894 1.348 . S
C1897 C1895 1.356 . S
H1898 C1892 0.930 . S
H1899 C1896 0.930 . S
O1900 Li1840 1.956 . S
O1900 Li1841 1.970 1_455 S
O1900 Li1842 1.961 . S
O1900 C1844 1.325 . S
O1901 Li1840 1.970 1_655 S
O1901 Li1841 1.956 . S
O1901 Li1843 1.961 . S
O1901 C1850 1.325 . S
O1902 Li1840 1.961 . S
O1902 Li1842 1.956 . S
O1902 Li1843 1.970 1_455 S
O1902 C1872 1.325 . S
O1903 Li1841 1.961 . S
O1903 Li1842 1.970 1_655 S
O1903 Li1843 1.956 . S
O1903 C1878 1.325 . S
H1904 C1846 0.929 . S
H1905 C1847 0.930 . S
H1906 C1848 0.930 . S
H1907 C1849 0.930 . S
H1908 C1851 0.930 . S
H1909 C1853 0.929 . S
H1910 C1854 0.930 . S
H1911 C1855 0.930 . S
H1912 C1858 0.930 . S
H1913 C1861 0.929 . S
H1914 C1866 0.929 . S
H1915 C1867 0.930 . S
H1916 C1874 0.929 . S
H1917 C1875 0.930 . S
H1918 C1876 0.930 . S
H1919 C1877 0.930 . S
H1920 C1879 0.929 . S
H1921 C1880 0.930 . S
H1922 C1881 0.930 . S
H1923 C1882 0.930 . S
H1924 C1886 0.929 . S
H1925 C1888 0.930 . S
H1926 C1894 0.929 . S
H1927 C1895 0.930 . S
Li1928 N1945 1.990 . S
Li1928 O1988 1.956 . S
Li1928 O1989 1.970 . S
Li1928 O1990 1.961 . S
Li1929 N1953 1.990 . S
Li1929 O1988 1.970 . S
Li1929 O1989 1.956 . S
Li1929 O1991 1.961 . S
Li1930 N1975 1.990 . S
Li1930 O1988 1.961 . S
Li1930 O1990 1.956 . S
Li1930 O1991 1.970 . S
Li1931 N1981 1.990 . S
Li1931 O1989 1.961 . S
Li1931 O1990 1.970 . S
Li1931 O1991 1.956 . S
C1932 C1934 1.348 . S
C1932 C1935 1.356 . S
C1932 O1988 1.325 . S
N1933 C1936 1.314 . S
N1933 C1937 1.279 . S
C1934 C1932 1.348 . S
C1934 C1936 1.353 . S
C1934 H1992 0.929 . S
C1935 C1932 1.356 . S
C1935 C1937 1.358 . S
C1935 H1993 0.930 . S
C1936 N1933 1.314 . S
C1936 C1934 1.353 . S
C1936 H1994 0.930 . S
C1937 N1933 1.279 . S
C1937 C1935 1.358 . S
C1937 H1995 0.930 . S
C1938 C1941 1.348 . S
C1938 C1942 1.356 . S
C1938 O1989 1.325 . S
C1939 N1940 1.279 . S
C1939 C1942 1.358 . S
C1939 H1996 0.930 . S
N1940 C1939 1.279 . S
N1940 C1943 1.314 . S
C1941 C1938 1.348 . S
C1941 C1943 1.353 . S
C1941 H1997 0.929 . S
C1942 C1938 1.356 . S
C1942 C1939 1.358 . S
C1942 H1998 0.930 . S
C1943 N1940 1.314 . S
C1943 C1941 1.353 . S
C1943 H1999 0.930 . S
C1944 N1945 1.314 . S
C1944 C1949 1.353 . S
C1944 H1950 0.930 . S
N1945 Li1928 1.990 . S
N1945 C1944 1.314 . S
N1945 C1947 1.279 . S
C1946 C1947 1.358 . S
C1946 C1948 1.356 . S
C1946 H2000 0.930 . S
C1947 N1945 1.279 . S
C1947 C1946 1.358 . S
C1947 H1951 0.930 . S
C1948 C1946 1.356 . S
C1948 C1949 1.348 . S
C1949 C1944 1.353 . S
C1949 C1948 1.348 . S
C1949 H2001 0.929 . S
H1950 C1944 0.930 . S
H1951 C1947 0.930 . S
C1952 N1953 1.314 . S
C1952 C1954 1.353 . S
C1952 H1958 0.930 . S
N1953 Li1929 1.990 . S
N1953 C1952 1.314 . S
N1953 C1956 1.279 . S
C1954 C1952 1.353 . S
C1954 C1957 1.348 . S
C1954 H2002 0.929 . S
C1955 C1956 1.358 . S
C1955 C1957 1.356 . S
C1955 H2003 0.930 . S
C1956 N1953 1.279 . S
C1956 C1955 1.358 . S
C1956 H1959 0.930 . S
C1957 C1954 1.348 . S
C1957 C1955 1.356 . S
H1958 C1952 0.930 . S
H1959 C1956 0.930 . S
C1960 C1962 1.348 . S
C1960 C1963 1.356 . S
C1960 O1990 1.325 . S
N1961 C1964 1.314 . S
N1961 C1965 1.279 . S
C1962 C1960 1.348 . S
C1962 C1964 1.353 . S
C1962 H2004 0.929 . S
C1963 C1960 1.356 . S
C1963 C1965 1.358 . S
C1963 H2005 0.930 . S
C1964 N1961 1.314 . S
C1964 C1962 1.353 . S
C1964 H2006 0.930 . S
C1965 N1961 1.279 . S
C1965 C1963 1.358 . S
C1965 H2007 0.930 . S
C1966 C1967 1.348 . S
C1966 C1968 1.356 . S
C1966 O1991 1.325 . S
C1967 C1966 1.348 . S
C1967 C1969 1.353 . S
C1967 H2008 0.929 . S
C1968 C1966 1.356 . S
C1968 C1970 1.358 . S
C1968 H2009 0.930 . S
C1969 C1967 1.353 . S
C1969 N1971 1.314 . S
C1969 H2010 0.930 . S
C1970 C1968 1.358 . S
C1970 N1971 1.279 . S
C1970 H2011 0.930 . S
N1971 C1969 1.314 . S
N1971 C1970 1.279 . S
C1972 C1974 1.353 . S
C1972 N1975 1.314 . S
C1972 H1978 0.930 . S
C1973 N1975 1.279 . S
C1973 C1976 1.358 . S
C1973 H1979 0.930 . S
C1974 C1972 1.353 . S
C1974 C1977 1.348 . S
C1974 H2012 0.929 . S
N1975 Li1930 1.990 . S
N1975 C1972 1.314 . S
N1975 C1973 1.279 . S
C1976 C1973 1.358 . S
C1976 C1977 1.356 . S
C1976 H2013 0.930 . S
C1977 C1974 1.348 . S
C1977 C1976 1.356 . S
H1978 C1972 0.930 . S
H1979 C1973 0.930 . S
C1980 N1981 1.314 . S
C1980 C1982 1.353 . S
C1980 H1986 0.930 . S
N1981 Li1931 1.990 . S
N1981 C1980 1.314 . S
N1981 C1984 1.279 . S
C1982 C1980 1.353 . S
C1982 C1985 1.348 . S
C1982 H2014 0.929 . S
C1983 C1984 1.358 . S
C1983 C1985 1.356 . S
C1983 H2015 0.930 . S
C1984 N1981 1.279 . S
C1984 C1983 1.358 . S
C1984 H1987 0.930 . S
C1985 C1982 1.348 . S
C1985 C1983 1.356 . S
H1986 C1980 0.930 . S
H1987 C1984 0.930 . S
O1988 Li1928 1.956 . S
O1988 Li1929 1.970 . S
O1988 Li1930 1.961 . S
O1988 C1932 1.325 . S
O1989 Li1928 1.970 . S
O1989 Li1929 1.956 . S
O1989 Li1931 1.961 . S
O1989 C1938 1.325 . S
O1990 Li1928 1.961 . S
O1990 Li1930 1.956 . S
O1990 Li1931 1.970 . S
O1990 C1960 1.325 . S
O1991 Li1929 1.961 . S
O1991 Li1930 1.970 . S
O1991 Li1931 1.956 . S
O1991 C1966 1.325 . S
H1992 C1934 0.929 . S
H1993 C1935 0.930 . S
H1994 C1936 0.930 . S
H1995 C1937 0.930 . S
H1996 C1939 0.930 . S
H1997 C1941 0.929 . S
H1998 C1942 0.930 . S
H1999 C1943 0.930 . S
H2000 C1946 0.930 . S
H2001 C1949 0.929 . S
H2002 C1954 0.929 . S
H2003 C1955 0.930 . S
H2004 C1962 0.929 . S
H2005 C1963 0.930 . S
H2006 C1964 0.930 . S
H2007 C1965 0.930 . S
H2008 C1967 0.929 . S
H2009 C1968 0.930 . S
H2010 C1969 0.930 . S
H2011 C1970 0.930 . S
H2012 C1974 0.929 . S
H2013 C1976 0.930 . S
H2014 C1982 0.929 . S
H2015 C1983 0.930 . S
H2016 C2022 0.930 . S
H2017 C2025 0.930 . S
H2018 C2026 0.930 . S
H2019 C2027 0.930 . S
H2020 C2030 0.930 . S
H2021 C2031 0.930 . S
C2022 H2016 0.930 . S
C2022 C2023 1.355 . S
C2022 C2024 1.415 . S
C2023 C2022 1.355 . S
C2023 C2025 1.419 . S
C2024 C2022 1.415 . S
C2024 C2029 1.425 . S
C2024 C2031 1.409 . S
C2025 H2017 0.930 . S
C2025 C2023 1.419 . S
C2025 C2026 1.362 . S
C2026 H2018 0.930 . S
C2026 C2025 1.362 . S
C2026 C2029 1.409 . S
C2027 H2019 0.930 . S
C2027 C2028 1.355 . S
C2027 C2029 1.415 . S
C2028 C2027 1.355 . S
C2028 C2030 1.419 . S
C2029 C2024 1.425 . S
C2029 C2026 1.409 . S
C2029 C2027 1.415 . S
C2030 H2020 0.930 . S
C2030 C2028 1.419 . S
C2030 C2031 1.362 . S
C2031 H2021 0.930 . S
C2031 C2024 1.409 . S
C2031 C2030 1.362 . S
H2032 C2038 0.930 . S
H2033 C2041 0.930 . S
H2034 C2042 0.930 . S
H2035 C2043 0.930 . S
H2036 C2046 0.930 . S
H2037 C2047 0.930 . S
C2038 H2032 0.930 . S
C2038 C2039 1.355 . S
C2038 C2040 1.415 . S
C2039 C2038 1.355 . S
C2039 C2041 1.419 . S
C2040 C2038 1.415 . S
C2040 C2045 1.425 . S
C2040 C2047 1.409 . S
C2041 H2033 0.930 . S
C2041 C2039 1.419 . S
C2041 C2042 1.362 . S
C2042 H2034 0.930 . S
C2042 C2041 1.362 . S
C2042 C2045 1.409 . S
C2043 H2035 0.930 . S
C2043 C2044 1.355 . S
C2043 C2045 1.415 . S
C2044 C2043 1.355 . S
C2044 C2046 1.419 . S
C2045 C2040 1.425 . S
C2045 C2042 1.409 . S
C2045 C2043 1.415 . S
C2046 H2036 0.930 . S
C2046 C2044 1.419 . S
C2046 C2047 1.362 . S
C2047 H2037 0.930 . S
C2047 C2040 1.409 . S
C2047 C2046 1.362 . S
H2048 C2054 0.930 . S
H2049 C2057 0.930 . S
H2050 C2058 0.930 . S
H2051 C2059 0.930 . S
H2052 C2062 0.930 . S
H2053 C2063 0.930 . S
C2054 H2048 0.930 . S
C2054 C2055 1.355 . S
C2054 C2056 1.415 . S
C2055 C2054 1.355 . S
C2055 C2057 1.419 . S
C2056 C2054 1.415 . S
C2056 C2061 1.425 . S
C2056 C2063 1.409 . S
C2057 H2049 0.930 . S
C2057 C2055 1.419 . S
C2057 C2058 1.362 . S
C2058 H2050 0.930 . S
C2058 C2057 1.362 . S
C2058 C2061 1.409 . S
C2059 H2051 0.930 . S
C2059 C2060 1.355 . S
C2059 C2061 1.415 . S
C2060 C2059 1.355 . S
C2060 C2062 1.419 . S
C2061 C2056 1.425 . S
C2061 C2058 1.409 . S
C2061 C2059 1.415 . S
C2062 H2052 0.930 . S
C2062 C2060 1.419 . S
C2062 C2063 1.362 . S
C2063 H2053 0.930 . S
C2063 C2056 1.409 . S
C2063 C2062 1.362 . S
H2064 C2070 0.930 . S
H2065 C2073 0.930 1_545 S
H2066 C2074 0.930 . S
H2067 C2075 0.930 1_545 S
H2068 C2078 0.930 . S
H2069 C2079 0.930 . S
C2070 H2064 0.930 . S
C2070 C2071 1.355 . S
C2070 C2072 1.415 . S
C2071 C2070 1.355 . S
C2071 C2073 1.419 . S
C2072 C2070 1.415 . S
C2072 C2077 1.425 . S
C2072 C2079 1.409 . S
C2073 H2065 0.930 1_565 S
C2073 C2071 1.419 . S
C2073 C2074 1.362 1_565 S
C2074 H2066 0.930 . S
C2074 C2073 1.362 1_545 S
C2074 C2077 1.409 1_545 S
C2075 H2067 0.930 1_565 S
C2075 C2076 1.355 . S
C2075 C2077 1.415 . S
C2076 C2075 1.355 . S
C2076 C2078 1.419 . S
C2077 C2072 1.425 . S
C2077 C2074 1.409 1_565 S
C2077 C2075 1.415 . S
C2078 H2068 0.930 . S
C2078 C2076 1.419 . S
C2078 C2079 1.362 . S
C2079 H2069 0.930 . S
C2079 C2072 1.409 . S
C2079 C2078 1.362 . S
H2080 C2086 0.930 . S
H2081 C2089 0.930 . S
H2082 C2090 0.930 . S
H2083 C2091 0.930 . S
H2084 C2094 0.930 . S
H2085 C2095 0.930 . S
C2086 H2080 0.930 . S
C2086 C2087 1.355 . S
C2086 C2088 1.415 . S
C2087 C2086 1.355 . S
C2087 C2089 1.419 . S
C2088 C2086 1.415 . S
C2088 C2093 1.425 . S
C2088 C2095 1.409 . S
C2089 H2081 0.930 . S
C2089 C2087 1.419 . S
C2089 C2090 1.362 . S
C2090 H2082 0.930 . S
C2090 C2089 1.362 . S
C2090 C2093 1.409 . S
C2091 H2083 0.930 . S
C2091 C2092 1.355 . S
C2091 C2093 1.415 . S
C2092 C2091 1.355 . S
C2092 C2094 1.419 . S
C2093 C2088 1.425 . S
C2093 C2090 1.409 . S
C2093 C2091 1.415 . S
C2094 H2084 0.930 . S
C2094 C2092 1.419 . S
C2094 C2095 1.362 . S
C2095 H2085 0.930 . S
C2095 C2088 1.409 . S
C2095 C2094 1.362 . S
H2096 C2102 0.930 . S
H2097 C2105 0.930 . S
H2098 C2106 0.930 . S
H2099 C2107 0.930 . S
H2100 C2110 0.930 . S
H2101 C2111 0.930 . S
C2102 H2096 0.930 . S
C2102 C2103 1.355 . S
C2102 C2104 1.415 . S
C2103 C2102 1.355 . S
C2103 C2105 1.419 . S
C2104 C2102 1.415 . S
C2104 C2109 1.425 . S
C2104 C2111 1.409 . S
C2105 H2097 0.930 . S
C2105 C2103 1.419 . S
C2105 C2106 1.362 . S
C2106 H2098 0.930 . S
C2106 C2105 1.362 . S
C2106 C2109 1.409 . S
C2107 H2099 0.930 . S
C2107 C2108 1.355 . S
C2107 C2109 1.415 . S
C2108 C2107 1.355 . S
C2108 C2110 1.419 . S
C2109 C2104 1.425 . S
C2109 C2106 1.409 . S
C2109 C2107 1.415 . S
C2110 H2100 0.930 . S
C2110 C2108 1.419 . S
C2110 C2111 1.362 . S
C2111 H2101 0.930 . S
C2111 C2104 1.409 . S
C2111 C2110 1.362 . S
H2112 C2118 0.930 . S
H2113 C2121 0.930 . S
H2114 C2122 0.930 . S
H2115 C2123 0.930 . S
H2116 C2126 0.930 . S
H2117 C2127 0.930 . S
C2118 H2112 0.930 . S
C2118 C2119 1.355 . S
C2118 C2120 1.415 . S
C2119 C2118 1.355 . S
C2119 C2121 1.419 . S
C2120 C2118 1.415 . S
C2120 C2125 1.425 . S
C2120 C2127 1.409 . S
C2121 H2113 0.930 . S
C2121 C2119 1.419 . S
C2121 C2122 1.362 . S
C2122 H2114 0.930 . S
C2122 C2121 1.362 . S
C2122 C2125 1.409 . S
C2123 H2115 0.930 . S
C2123 C2124 1.355 . S
C2123 C2125 1.415 . S
C2124 C2123 1.355 . S
C2124 C2126 1.419 . S
C2125 C2120 1.425 . S
C2125 C2122 1.409 . S
C2125 C2123 1.415 . S
C2126 H2116 0.930 . S
C2126 C2124 1.419 . S
C2126 C2127 1.362 . S
C2127 H2117 0.930 . S
C2127 C2120 1.409 . S
C2127 C2126 1.362 . S
H2128 C2134 0.930 . S
H2129 C2137 0.930 . S
H2130 C2138 0.930 . S
H2131 C2139 0.930 . S
H2132 C2142 0.930 . S
H2133 C2143 0.930 . S
C2134 H2128 0.930 . S
C2134 C2135 1.355 . S
C2134 C2136 1.415 . S
C2135 C2134 1.355 . S
C2135 C2137 1.419 . S
C2136 C2134 1.415 . S
C2136 C2141 1.425 . S
C2136 C2143 1.409 . S
C2137 H2129 0.930 . S
C2137 C2135 1.419 . S
C2137 C2138 1.362 . S
C2138 H2130 0.930 . S
C2138 C2137 1.362 . S
C2138 C2141 1.409 . S
C2139 H2131 0.930 . S
C2139 C2140 1.355 . S
C2139 C2141 1.415 . S
C2140 C2139 1.355 . S
C2140 C2142 1.419 . S
C2141 C2136 1.425 . S
C2141 C2138 1.409 . S
C2141 C2139 1.415 . S
C2142 H2132 0.930 . S
C2142 C2140 1.419 . S
C2142 C2143 1.362 . S
C2143 H2133 0.930 . S
C2143 C2136 1.409 . S
C2143 C2142 1.362 . S
H2144 C2150 0.930 . S
H2145 C2153 0.930 . S
H2146 C2154 0.930 . S
H2147 C2155 0.930 . S
H2148 C2158 0.930 . S
H2149 C2159 0.930 . S
C2150 H2144 0.930 . S
C2150 C2151 1.355 . S
C2150 C2152 1.415 . S
C2151 C2150 1.355 . S
C2151 C2153 1.419 . S
C2152 C2150 1.415 . S
C2152 C2157 1.425 . S
C2152 C2159 1.409 . S
C2153 H2145 0.930 . S
C2153 C2151 1.419 . S
C2153 C2154 1.362 . S
C2154 H2146 0.930 . S
C2154 C2153 1.362 . S
C2154 C2157 1.409 . S
C2155 H2147 0.930 . S
C2155 C2156 1.355 . S
C2155 C2157 1.415 . S
C2156 C2155 1.355 . S
C2156 C2158 1.419 . S
C2157 C2152 1.425 . S
C2157 C2154 1.409 . S
C2157 C2155 1.415 . S
C2158 H2148 0.930 . S
C2158 C2156 1.419 . S
C2158 C2159 1.362 . S
C2159 H2149 0.930 . S
C2159 C2152 1.409 . S
C2159 C2158 1.362 . S
H2160 C2166 0.930 . S
H2161 C2169 0.930 . S
H2162 C2170 0.930 . S
H2163 C2171 0.930 . S
H2164 C2174 0.930 . S
H2165 C2175 0.930 . S
C2166 H2160 0.930 . S
C2166 C2167 1.355 . S
C2166 C2168 1.415 . S
C2167 C2166 1.355 . S
C2167 C2169 1.419 . S
C2168 C2166 1.415 . S
C2168 C2173 1.425 . S
C2168 C2175 1.409 . S
C2169 H2161 0.930 . S
C2169 C2167 1.419 . S
C2169 C2170 1.362 . S
C2170 H2162 0.930 . S
C2170 C2169 1.362 . S
C2170 C2173 1.409 . S
C2171 H2163 0.930 . S
C2171 C2172 1.355 . S
C2171 C2173 1.415 . S
C2172 C2171 1.355 . S
C2172 C2174 1.419 . S
C2173 C2168 1.425 . S
C2173 C2170 1.409 . S
C2173 C2171 1.415 . S
C2174 H2164 0.930 . S
C2174 C2172 1.419 . S
C2174 C2175 1.362 . S
C2175 H2165 0.930 . S
C2175 C2168 1.409 . S
C2175 C2174 1.362 . S
H2176 C2182 0.930 . S
H2177 C2185 0.930 . S
H2178 C2186 0.930 . S
H2179 C2187 0.930 . S
H2180 C2190 0.930 . S
H2181 C2191 0.930 . S
C2182 H2176 0.930 . S
C2182 C2183 1.355 . S
C2182 C2184 1.415 . S
C2183 C2182 1.355 . S
C2183 C2185 1.419 . S
C2184 C2182 1.415 . S
C2184 C2189 1.425 . S
C2184 C2191 1.409 . S
C2185 H2177 0.930 . S
C2185 C2183 1.419 . S
C2185 C2186 1.362 . S
C2186 H2178 0.930 . S
C2186 C2185 1.362 . S
C2186 C2189 1.409 . S
C2187 H2179 0.930 . S
C2187 C2188 1.355 . S
C2187 C2189 1.415 . S
C2188 C2187 1.355 . S
C2188 C2190 1.419 . S
C2189 C2184 1.425 . S
C2189 C2186 1.409 . S
C2189 C2187 1.415 . S
C2190 H2180 0.930 . S
C2190 C2188 1.419 . S
C2190 C2191 1.362 . S
C2191 H2181 0.930 . S
C2191 C2184 1.409 . S
C2191 C2190 1.362 . S
H2192 C2198 0.930 . S
H2193 C2201 0.930 . S
H2194 C2202 0.930 . S
H2195 C2203 0.930 . S
H2196 C2206 0.930 . S
H2197 C2207 0.930 . S
C2198 H2192 0.930 . S
C2198 C2199 1.355 . S
C2198 C2200 1.415 . S
C2199 C2198 1.355 . S
C2199 C2201 1.419 . S
C2200 C2198 1.415 . S
C2200 C2205 1.425 . S
C2200 C2207 1.409 . S
C2201 H2193 0.930 . S
C2201 C2199 1.419 . S
C2201 C2202 1.362 . S
C2202 H2194 0.930 . S
C2202 C2201 1.362 . S
C2202 C2205 1.409 . S
C2203 H2195 0.930 . S
C2203 C2204 1.355 . S
C2203 C2205 1.415 . S
C2204 C2203 1.355 . S
C2204 C2206 1.419 . S
C2205 C2200 1.425 . S
C2205 C2202 1.409 . S
C2205 C2203 1.415 . S
C2206 H2196 0.930 . S
C2206 C2204 1.419 . S
C2206 C2207 1.362 . S
C2207 H2197 0.930 . S
C2207 C2200 1.409 . S
C2207 C2206 1.362 . S
H2208 C2214 0.930 . S
H2209 C2217 0.930 . S
H2210 C2218 0.930 . S
H2211 C2219 0.930 . S
H2212 C2222 0.930 . S
H2213 C2223 0.930 . S
C2214 H2208 0.930 . S
C2214 C2215 1.355 . S
C2214 C2216 1.415 . S
C2215 C2214 1.355 . S
C2215 C2217 1.419 . S
C2216 C2214 1.415 . S
C2216 C2221 1.425 . S
C2216 C2223 1.409 . S
C2217 H2209 0.930 . S
C2217 C2215 1.419 . S
C2217 C2218 1.362 . S
C2218 H2210 0.930 . S
C2218 C2217 1.362 . S
C2218 C2221 1.409 . S
C2219 H2211 0.930 . S
C2219 C2220 1.355 . S
C2219 C2221 1.415 . S
C2220 C2219 1.355 . S
C2220 C2222 1.419 . S
C2221 C2216 1.425 . S
C2221 C2218 1.409 . S
C2221 C2219 1.415 . S
C2222 H2212 0.930 . S
C2222 C2220 1.419 . S
C2222 C2223 1.362 . S
C2223 H2213 0.930 . S
C2223 C2216 1.409 . S
C2223 C2222 1.362 . S
H2224 C2230 0.955 . S
H2225 C2233 0.930 . S
H2226 C2234 0.930 . S
H2227 C2235 0.930 . S
H2228 C2238 0.930 . S
H2229 C2239 0.930 . S
C2230 H2224 0.955 . S
C2230 C2231 1.355 . S
C2230 C2232 1.415 . S
C2231 C2230 1.355 . S
C2231 C2233 1.419 . S
C2232 C2230 1.415 . S
C2232 C2237 1.425 . S
C2232 C2239 1.409 1_455 S
C2233 H2225 0.930 . S
C2233 C2231 1.419 . S
C2233 C2234 1.362 . S
C2234 H2226 0.930 . S
C2234 C2233 1.362 . S
C2234 C2237 1.409 . S
C2235 H2227 0.930 . S
C2235 C2236 1.355 . S
C2235 C2237 1.415 . S
C2236 C2235 1.355 . S
C2236 C2238 1.419 1_455 S
C2237 C2232 1.425 . S
C2237 C2234 1.409 . S
C2237 C2235 1.415 . S
C2238 H2228 0.930 . S
C2238 C2236 1.419 1_655 S
C2238 C2239 1.362 . S
C2239 H2229 0.930 . S
C2239 C2232 1.409 1_655 S
C2239 C2238 1.362 . S
H2240 C2246 0.930 . S
H2241 C2249 0.930 . S
H2242 C2250 0.930 . S
H2243 C2251 0.930 . S
H2244 C2254 0.930 . S
H2245 C2255 0.930 . S
C2246 H2240 0.930 . S
C2246 C2247 1.355 . S
C2246 C2248 1.415 . S
C2247 C2246 1.355 . S
C2247 C2249 1.419 . S
C2248 C2246 1.415 . S
C2248 C2253 1.425 . S
C2248 C2255 1.409 . S
C2249 H2241 0.930 . S
C2249 C2247 1.419 . S
C2249 C2250 1.362 . S
C2250 H2242 0.930 . S
C2250 C2249 1.362 . S
C2250 C2253 1.409 . S
C2251 H2243 0.930 . S
C2251 C2252 1.355 . S
C2251 C2253 1.415 . S
C2252 C2251 1.355 . S
C2252 C2254 1.419 . S
C2253 C2248 1.425 . S
C2253 C2250 1.409 . S
C2253 C2251 1.415 . S
C2254 H2244 0.930 . S
C2254 C2252 1.419 . S
C2254 C2255 1.362 . S
C2255 H2245 0.930 . S
C2255 C2248 1.409 . S
C2255 C2254 1.362 . S
H2256 C2262 0.930 . S
H2257 C2265 0.930 . S
H2258 C2266 0.930 . S
H2259 C2267 0.930 . S
H2260 C2270 0.930 . S
H2261 C2271 0.930 . S
C2262 H2256 0.930 . S
C2262 C2263 1.355 . S
C2262 C2264 1.415 . S
C2263 C2262 1.355 . S
C2263 C2265 1.419 . S
C2264 C2262 1.415 . S
C2264 C2269 1.425 . S
C2264 C2271 1.409 . S
C2265 H2257 0.930 . S
C2265 C2263 1.419 . S
C2265 C2266 1.362 . S
C2266 H2258 0.930 . S
C2266 C2265 1.362 . S
C2266 C2269 1.409 . S
C2267 H2259 0.930 . S
C2267 C2268 1.355 . S
C2267 C2269 1.415 . S
C2268 C2267 1.355 . S
C2268 C2270 1.419 . S
C2269 C2264 1.425 . S
C2269 C2266 1.409 . S
C2269 C2267 1.415 . S
C2270 H2260 0.930 . S
C2270 C2268 1.419 . S
C2270 C2271 1.362 . S
C2271 H2261 0.930 . S
C2271 C2264 1.409 . S
C2271 C2270 1.362 . S
H2272 C2278 0.930 . S
H2273 C2281 0.930 . S
H2274 C2282 0.930 . S
H2275 C2283 0.930 . S
H2276 C2286 0.930 . S
H2277 C2287 0.930 . S
C2278 H2272 0.930 . S
C2278 C2279 1.355 . S
C2278 C2280 1.415 . S
C2279 C2278 1.355 . S
C2279 C2281 1.419 . S
C2280 C2278 1.415 . S
C2280 C2285 1.425 . S
C2280 C2287 1.409 . S
C2281 H2273 0.930 . S
C2281 C2279 1.419 . S
C2281 C2282 1.362 . S
C2282 H2274 0.930 . S
C2282 C2281 1.362 . S
C2282 C2285 1.409 . S
C2283 H2275 0.930 . S
C2283 C2284 1.355 . S
C2283 C2285 1.415 . S
C2284 C2283 1.355 . S
C2284 C2286 1.419 . S
C2285 C2280 1.425 . S
C2285 C2282 1.409 . S
C2285 C2283 1.415 . S
C2286 H2276 0.930 . S
C2286 C2284 1.419 . S
C2286 C2287 1.362 . S
C2287 H2277 0.930 . S
C2287 C2280 1.409 . S
C2287 C2286 1.362 . S
H2288 C2294 0.930 . S
H2289 C2297 0.930 . S
H2290 C2298 0.930 . S
H2291 C2299 0.930 . S
H2292 C2302 0.930 . S
H2293 C2303 0.930 . S
C2294 H2288 0.930 . S
C2294 C2295 1.355 . S
C2294 C2296 1.415 . S
C2295 C2294 1.355 . S
C2295 C2297 1.419 . S
C2296 C2294 1.415 . S
C2296 C2301 1.425 . S
C2296 C2303 1.409 . S
C2297 H2289 0.930 . S
C2297 C2295 1.419 . S
C2297 C2298 1.362 . S
C2298 H2290 0.930 . S
C2298 C2297 1.362 . S
C2298 C2301 1.409 . S
C2299 H2291 0.930 . S
C2299 C2300 1.355 . S
C2299 C2301 1.415 . S
C2300 C2299 1.355 . S
C2300 C2302 1.419 . S
C2301 C2296 1.425 . S
C2301 C2298 1.409 . S
C2301 C2299 1.415 . S
C2302 H2292 0.930 . S
C2302 C2300 1.419 . S
C2302 C2303 1.362 . S
C2303 H2293 0.930 . S
C2303 C2296 1.409 . S
C2303 C2302 1.362 . S
H2304 C2310 0.930 . S
H2305 C2313 0.930 . S
H2306 C2314 0.930 . S
H2307 C2315 0.930 . S
H2308 C2318 0.930 . S
H2309 C2319 0.930 . S
C2310 H2304 0.930 . S
C2310 C2311 1.355 . S
C2310 C2312 1.415 . S
C2311 C2310 1.355 . S
C2311 C2313 1.419 . S
C2312 C2310 1.415 . S
C2312 C2317 1.425 . S
C2312 C2319 1.409 . S
C2313 H2305 0.930 . S
C2313 C2311 1.419 . S
C2313 C2314 1.362 . S
C2314 H2306 0.930 . S
C2314 C2313 1.362 . S
C2314 C2317 1.409 . S
C2315 H2307 0.930 . S
C2315 C2316 1.355 . S
C2315 C2317 1.415 . S
C2316 C2315 1.355 . S
C2316 C2318 1.419 . S
C2317 C2312 1.425 . S
C2317 C2314 1.409 . S
C2317 C2315 1.415 . S
C2318 H2308 0.930 . S
C2318 C2316 1.419 . S
C2318 C2319 1.362 . S
C2319 H2309 0.930 . S
C2319 C2312 1.409 . S
C2319 C2318 1.362 . S
H2320 C2326 0.930 . S
H2321 C2329 0.930 . S
H2322 C2330 0.930 . S
H2323 C2331 0.930 . S
H2324 C2334 0.930 . S
H2325 C2335 0.930 . S
C2326 H2320 0.930 . S
C2326 C2327 1.355 . S
C2326 C2328 1.415 . S
C2327 C2326 1.355 . S
C2327 C2329 1.419 . S
C2328 C2326 1.415 . S
C2328 C2333 1.425 . S
C2328 C2335 1.409 . S
C2329 H2321 0.930 . S
C2329 C2327 1.419 . S
C2329 C2330 1.362 . S
C2330 H2322 0.930 . S
C2330 C2329 1.362 . S
C2330 C2333 1.409 . S
C2331 H2323 0.930 . S
C2331 C2332 1.355 . S
C2331 C2333 1.415 . S
C2332 C2331 1.355 . S
C2332 C2334 1.419 . S
C2333 C2328 1.425 . S
C2333 C2330 1.409 . S
C2333 C2331 1.415 . S
C2334 H2324 0.930 . S
C2334 C2332 1.419 . S
C2334 C2335 1.362 . S
C2335 H2325 0.930 . S
C2335 C2328 1.409 . S
C2335 C2334 1.362 . S
H2336 C2342 0.930 . S
H2337 C2345 0.930 . S
H2338 C2346 0.930 . S
H2339 C2347 0.930 . S
H2340 C2350 0.930 . S
H2341 C2351 0.930 . S
C2342 H2336 0.930 . S
C2342 C2343 1.355 . S
C2342 C2344 1.415 . S
C2343 C2342 1.355 . S
C2343 C2345 1.419 . S
C2344 C2342 1.415 . S
C2344 C2349 1.425 . S
C2344 C2351 1.409 . S
C2345 H2337 0.930 . S
C2345 C2343 1.419 . S
C2345 C2346 1.362 . S
C2346 H2338 0.930 . S
C2346 C2345 1.362 . S
C2346 C2349 1.409 . S
C2347 H2339 0.930 . S
C2347 C2348 1.355 . S
C2347 C2349 1.415 . S
C2348 C2347 1.355 . S
C2348 C2350 1.419 . S
C2349 C2344 1.425 . S
C2349 C2346 1.409 . S
C2349 C2347 1.415 . S
C2350 H2340 0.930 . S
C2350 C2348 1.419 . S
C2350 C2351 1.362 . S
C2351 H2341 0.930 . S
C2351 C2344 1.409 . S
C2351 C2350 1.362 . S
H2352 C2358 0.930 . S
H2353 C2361 0.930 . S
H2354 C2362 0.930 . S
H2355 C2363 0.930 . S
H2356 C2366 0.930 . S
H2357 C2367 0.930 . S
C2358 H2352 0.930 . S
C2358 C2359 1.355 . S
C2358 C2360 1.415 . S
C2359 C2358 1.355 . S
C2359 C2361 1.419 . S
C2360 C2358 1.415 . S
C2360 C2365 1.425 . S
C2360 C2367 1.409 . S
C2361 H2353 0.930 . S
C2361 C2359 1.419 . S
C2361 C2362 1.362 . S
C2362 H2354 0.930 . S
C2362 C2361 1.362 . S
C2362 C2365 1.409 . S
C2363 H2355 0.930 . S
C2363 C2364 1.355 . S
C2363 C2365 1.415 . S
C2364 C2363 1.355 . S
C2364 C2366 1.419 . S
C2365 C2360 1.425 . S
C2365 C2362 1.409 . S
C2365 C2363 1.415 . S
C2366 H2356 0.930 . S
C2366 C2364 1.419 . S
C2366 C2367 1.362 . S
C2367 H2357 0.930 . S
C2367 C2360 1.409 . S
C2367 C2366 1.362 . S
H2368 C2374 0.930 . S
H2369 C2377 0.990 . S
H2370 C2378 0.930 . S
H2371 C2379 0.930 . S
H2372 C2382 0.930 . S
H2373 C2383 0.930 . S
C2374 H2368 0.930 . S
C2374 C2375 1.355 . S
C2374 C2376 1.415 . S
C2375 C2374 1.355 . S
C2375 C2377 1.419 . S
C2376 C2374 1.415 . S
C2376 C2381 1.425 . S
C2376 C2383 1.409 . S
C2377 H2369 0.990 . S
C2377 C2375 1.419 . S
C2377 C2378 1.362 . S
C2378 H2370 0.930 . S
C2378 C2377 1.362 . S
C2378 C2381 1.409 . S
C2379 H2371 0.930 . S
C2379 C2380 1.355 . S
C2379 C2381 1.415 . S
C2380 C2379 1.355 . S
C2380 C2382 1.419 . S
C2381 C2376 1.425 . S
C2381 C2378 1.409 . S
C2381 C2379 1.415 . S
C2382 H2372 0.930 . S
C2382 C2380 1.419 . S
C2382 C2383 1.362 . S
C2383 H2373 0.930 . S
C2383 C2376 1.409 . S
C2383 C2382 1.362 . S
H2384 C2390 0.930 . S
H2385 C2393 0.930 . S
H2386 C2394 0.930 . S
H2387 C2395 0.930 . S
H2388 C2398 0.930 . S
H2389 C2399 0.930 . S
C2390 H2384 0.930 . S
C2390 C2391 1.355 . S
C2390 C2392 1.415 . S
C2391 C2390 1.355 . S
C2391 C2393 1.419 . S
C2392 C2390 1.415 . S
C2392 C2397 1.425 . S
C2392 C2399 1.409 . S
C2393 H2385 0.930 . S
C2393 C2391 1.419 . S
C2393 C2394 1.362 . S
C2394 H2386 0.930 . S
C2394 C2393 1.362 . S
C2394 C2397 1.409 . S
C2395 H2387 0.930 . S
C2395 C2396 1.355 . S
C2395 C2397 1.415 . S
C2396 C2395 1.355 . S
C2396 C2398 1.419 . S
C2397 C2392 1.425 . S
C2397 C2394 1.409 . S
C2397 C2395 1.415 . S
C2398 H2388 0.930 . S
C2398 C2396 1.419 . S
C2398 C2399 1.362 . S
C2399 H2389 0.930 . S
C2399 C2392 1.409 . S
C2399 C2398 1.362 . S
H2400 C2406 0.930 . S
H2401 C2409 0.930 . S
H2402 C2410 0.930 . S
H2403 C2411 0.930 . S
H2404 C2414 0.930 . S
H2405 C2415 0.930 . S
C2406 H2400 0.930 . S
C2406 C2407 1.355 . S
C2406 C2408 1.415 . S
C2407 C2406 1.355 . S
C2407 C2409 1.419 . S
C2408 C2406 1.415 . S
C2408 C2413 1.425 . S
C2408 C2415 1.409 . S
C2409 H2401 0.930 . S
C2409 C2407 1.419 . S
C2409 C2410 1.362 . S
C2410 H2402 0.930 . S
C2410 C2409 1.362 . S
C2410 C2413 1.409 . S
C2411 H2403 0.930 . S
C2411 C2412 1.355 . S
C2411 C2413 1.415 . S
C2412 C2411 1.355 . S
C2412 C2414 1.419 . S
C2413 C2408 1.425 . S
C2413 C2410 1.409 . S
C2413 C2411 1.415 . S
C2414 H2404 0.930 . S
C2414 C2412 1.419 . S
C2414 C2415 1.362 . S
C2415 H2405 0.930 . S
C2415 C2408 1.409 . S
C2415 C2414 1.362 . S
H2416 C2422 0.930 . S
H2417 C2425 0.930 1_565 S
H2418 C2426 0.931 . S
H2419 C2427 0.930 1_565 S
H2420 C2430 0.930 . S
H2421 C2431 0.930 . S
C2422 H2416 0.930 . S
C2422 C2423 1.355 . S
C2422 C2424 1.415 . S
C2423 C2422 1.355 . S
C2423 C2425 1.419 . S
C2424 C2422 1.415 . S
C2424 C2429 1.425 . S
C2424 C2431 1.409 . S
C2425 H2417 0.930 1_545 S
C2425 C2423 1.419 . S
C2425 C2426 1.362 1_545 S
C2426 H2418 0.931 . S
C2426 C2425 1.362 1_565 S
C2426 C2429 1.409 1_565 S
C2427 H2419 0.930 1_545 S
C2427 C2428 1.355 . S
C2427 C2429 1.415 . S
C2428 C2427 1.355 . S
C2428 C2430 1.419 . S
C2429 C2424 1.425 . S
C2429 C2426 1.409 1_545 S
C2429 C2427 1.415 . S
C2430 H2420 0.930 . S
C2430 C2428 1.419 . S
C2430 C2431 1.362 . S
C2431 H2421 0.930 . S
C2431 C2424 1.409 . S
C2431 C2430 1.362 . S
H2432 C2438 0.930 . S
H2433 C2441 0.930 . S
H2434 C2442 0.930 . S
H2435 C2443 0.930 . S
H2436 C2446 0.930 . S
H2437 C2447 0.930 . S
C2438 H2432 0.930 . S
C2438 C2439 1.355 . S
C2438 C2440 1.415 . S
C2439 C2438 1.355 . S
C2439 C2441 1.419 . S
C2440 C2438 1.415 . S
C2440 C2445 1.425 . S
C2440 C2447 1.409 . S
C2441 H2433 0.930 . S
C2441 C2439 1.419 . S
C2441 C2442 1.362 . S
C2442 H2434 0.930 . S
C2442 C2441 1.362 . S
C2442 C2445 1.409 . S
C2443 H2435 0.930 . S
C2443 C2444 1.355 . S
C2443 C2445 1.415 . S
C2444 C2443 1.355 . S
C2444 C2446 1.419 . S
C2445 C2440 1.425 . S
C2445 C2442 1.409 . S
C2445 C2443 1.415 . S
C2446 H2436 0.930 . S
C2446 C2444 1.419 . S
C2446 C2447 1.362 . S
C2447 H2437 0.930 . S
C2447 C2440 1.409 . S
C2447 C2446 1.362 . S
H2448 C2454 0.930 . S
H2449 C2457 0.930 . S
H2450 C2458 0.930 . S
H2451 C2459 0.930 . S
H2452 C2462 0.930 . S
H2453 C2463 0.930 . S
C2454 H2448 0.930 . S
C2454 C2455 1.355 . S
C2454 C2456 1.415 . S
C2455 C2454 1.355 . S
C2455 C2457 1.419 . S
C2456 C2454 1.415 . S
C2456 C2461 1.425 . S
C2456 C2463 1.409 . S
C2457 H2449 0.930 . S
C2457 C2455 1.419 . S
C2457 C2458 1.362 . S
C2458 H2450 0.930 . S
C2458 C2457 1.362 . S
C2458 C2461 1.409 . S
C2459 H2451 0.930 . S
C2459 C2460 1.355 . S
C2459 C2461 1.415 . S
C2460 C2459 1.355 . S
C2460 C2462 1.419 . S
C2461 C2456 1.425 . S
C2461 C2458 1.409 . S
C2461 C2459 1.415 . S
C2462 H2452 0.930 . S
C2462 C2460 1.419 . S
C2462 C2463 1.362 . S
C2463 H2453 0.930 . S
C2463 C2456 1.409 . S
C2463 C2462 1.362 . S
H2464 C2470 0.930 . S
H2465 C2473 0.930 . S
H2466 C2474 0.930 . S
H2467 C2475 0.930 . S
H2468 C2478 0.930 . S
H2469 C2479 0.930 . S
C2470 H2464 0.930 . S
C2470 C2471 1.355 . S
C2470 C2472 1.415 . S
C2471 C2470 1.355 . S
C2471 C2473 1.419 . S
C2472 C2470 1.415 . S
C2472 C2477 1.425 . S
C2472 C2479 1.409 . S
C2473 H2465 0.930 . S
C2473 C2471 1.419 . S
C2473 C2474 1.362 . S
C2474 H2466 0.930 . S
C2474 C2473 1.362 . S
C2474 C2477 1.409 . S
C2475 H2467 0.930 . S
C2475 C2476 1.355 . S
C2475 C2477 1.415 . S
C2476 C2475 1.355 . S
C2476 C2478 1.419 . S
C2477 C2472 1.425 . S
C2477 C2474 1.409 . S
C2477 C2475 1.415 . S
C2478 H2468 0.930 . S
C2478 C2476 1.419 . S
C2478 C2479 1.362 . S
C2479 H2469 0.930 . S
C2479 C2472 1.409 . S
C2479 C2478 1.362 . S
H2480 C2486 0.930 . S
H2481 C2489 0.930 . S
H2482 C2490 0.930 . S
H2483 C2491 0.930 . S
H2484 C2494 0.930 . S
H2485 C2495 0.930 . S
C2486 H2480 0.930 . S
C2486 C2487 1.355 . S
C2486 C2488 1.415 . S
C2487 C2486 1.355 . S
C2487 C2489 1.419 . S
C2488 C2486 1.415 . S
C2488 C2493 1.425 . S
C2488 C2495 1.409 . S
C2489 H2481 0.930 . S
C2489 C2487 1.419 . S
C2489 C2490 1.362 . S
C2490 H2482 0.930 . S
C2490 C2489 1.362 . S
C2490 C2493 1.409 . S
C2491 H2483 0.930 . S
C2491 C2492 1.355 . S
C2491 C2493 1.415 . S
C2492 C2491 1.355 . S
C2492 C2494 1.419 . S
C2493 C2488 1.425 . S
C2493 C2490 1.409 . S
C2493 C2491 1.415 . S
C2494 H2484 0.930 . S
C2494 C2492 1.419 . S
C2494 C2495 1.362 . S
C2495 H2485 0.930 . S
C2495 C2488 1.409 . S
C2495 C2494 1.362 . S
H2496 C2502 0.930 . S
H2497 C2505 0.930 . S
H2498 C2506 0.930 . S
H2499 C2507 0.930 . S
H2500 C2510 0.930 . S
H2501 C2511 0.930 . S
C2502 H2496 0.930 . S
C2502 C2503 1.355 . S
C2502 C2504 1.415 . S
C2503 C2502 1.355 . S
C2503 C2505 1.419 . S
C2504 C2502 1.415 . S
C2504 C2509 1.425 . S
C2504 C2511 1.409 . S
C2505 H2497 0.930 . S
C2505 C2503 1.419 . S
C2505 C2506 1.362 . S
C2506 H2498 0.930 . S
C2506 C2505 1.362 . S
C2506 C2509 1.409 . S
C2507 H2499 0.930 . S
C2507 C2508 1.355 . S
C2507 C2509 1.415 . S
C2508 C2507 1.355 . S
C2508 C2510 1.419 . S
C2509 C2504 1.425 . S
C2509 C2506 1.409 . S
C2509 C2507 1.415 . S
C2510 H2500 0.930 . S
C2510 C2508 1.419 . S
C2510 C2511 1.362 . S
C2511 H2501 0.930 . S
C2511 C2504 1.409 . S
C2511 C2510 1.362 . S
H2512 C2518 0.930 . S
H2513 C2521 0.930 . S
H2514 C2522 0.930 . S
H2515 C2523 0.930 . S
H2516 C2526 0.930 . S
H2517 C2527 0.930 . S
C2518 H2512 0.930 . S
C2518 C2519 1.355 . S
C2518 C2520 1.415 . S
C2519 C2518 1.355 . S
C2519 C2521 1.419 . S
C2520 C2518 1.415 . S
C2520 C2525 1.425 . S
C2520 C2527 1.409 . S
C2521 H2513 0.930 . S
C2521 C2519 1.419 . S
C2521 C2522 1.362 . S
C2522 H2514 0.930 . S
C2522 C2521 1.362 . S
C2522 C2525 1.409 . S
C2523 H2515 0.930 . S
C2523 C2524 1.355 . S
C2523 C2525 1.415 . S
C2524 C2523 1.355 . S
C2524 C2526 1.419 . S
C2525 C2520 1.425 . S
C2525 C2522 1.409 . S
C2525 C2523 1.415 . S
C2526 H2516 0.930 . S
C2526 C2524 1.419 . S
C2526 C2527 1.362 . S
C2527 H2517 0.930 . S
C2527 C2520 1.409 . S
C2527 C2526 1.362 . S
H2528 C2534 0.930 . S
H2529 C2537 0.930 . S
H2530 C2538 0.930 . S
H2531 C2539 0.930 . S
H2532 C2542 0.930 . S
H2533 C2543 0.930 . S
C2534 H2528 0.930 . S
C2534 C2535 1.355 . S
C2534 C2536 1.415 . S
C2535 C2534 1.355 . S
C2535 C2537 1.419 . S
C2536 C2534 1.415 . S
C2536 C2541 1.425 . S
C2536 C2543 1.409 . S
C2537 H2529 0.930 . S
C2537 C2535 1.419 . S
C2537 C2538 1.362 . S
C2538 H2530 0.930 . S
C2538 C2537 1.362 . S
C2538 C2541 1.409 . S
C2539 H2531 0.930 . S
C2539 C2540 1.355 . S
C2539 C2541 1.415 . S
C2540 C2539 1.355 . S
C2540 C2542 1.419 . S
C2541 C2536 1.425 . S
C2541 C2538 1.409 . S
C2541 C2539 1.415 . S
C2542 H2532 0.930 . S
C2542 C2540 1.419 . S
C2542 C2543 1.362 . S
C2543 H2533 0.930 . S
C2543 C2536 1.409 . S
C2543 C2542 1.362 . S
H2544 C2550 0.930 . S
H2545 C2553 0.930 . S
H2546 C2554 0.930 . S
H2547 C2555 0.930 . S
H2548 C2558 0.930 . S
H2549 C2559 0.930 . S
C2550 H2544 0.930 . S
C2550 C2551 1.355 . S
C2550 C2552 1.415 . S
C2551 C2550 1.355 . S
C2551 C2553 1.419 . S
C2552 C2550 1.415 . S
C2552 C2557 1.425 . S
C2552 C2559 1.409 . S
C2553 H2545 0.930 . S
C2553 C2551 1.419 . S
C2553 C2554 1.362 . S
C2554 H2546 0.930 . S
C2554 C2553 1.362 . S
C2554 C2557 1.409 . S
C2555 H2547 0.930 . S
C2555 C2556 1.355 . S
C2555 C2557 1.415 . S
C2556 C2555 1.355 . S
C2556 C2558 1.419 . S
C2557 C2552 1.425 . S
C2557 C2554 1.409 . S
C2557 C2555 1.415 . S
C2558 H2548 0.930 . S
C2558 C2556 1.419 . S
C2558 C2559 1.362 . S
C2559 H2549 0.930 . S
C2559 C2552 1.409 . S
C2559 C2558 1.362 . S
H2560 C2566 0.930 . S
H2561 C2569 0.930 . S
H2562 C2570 0.930 . S
H2563 C2571 0.930 . S
H2564 C2574 0.930 . S
H2565 C2575 0.930 . S
C2566 H2560 0.930 . S
C2566 C2567 1.355 . S
C2566 C2568 1.415 . S
C2567 C2566 1.355 . S
C2567 C2569 1.419 . S
C2568 C2566 1.415 . S
C2568 C2573 1.425 . S
C2568 C2575 1.409 . S
C2569 H2561 0.930 . S
C2569 C2567 1.419 . S
C2569 C2570 1.362 . S
C2570 H2562 0.930 . S
C2570 C2569 1.362 . S
C2570 C2573 1.409 . S
C2571 H2563 0.930 . S
C2571 C2572 1.355 . S
C2571 C2573 1.415 . S
C2572 C2571 1.355 . S
C2572 C2574 1.419 . S
C2573 C2568 1.425 . S
C2573 C2570 1.409 . S
C2573 C2571 1.415 . S
C2574 H2564 0.930 . S
C2574 C2572 1.419 . S
C2574 C2575 1.362 . S
C2575 H2565 0.930 . S
C2575 C2568 1.409 . S
C2575 C2574 1.362 . S
H2576 C2582 0.930 . S
H2577 C2585 0.930 . S
H2578 C2586 0.930 . S
H2579 C2587 0.930 . S
H2580 C2590 0.900 1_655 S
H2581 C2591 0.923 1_655 S
C2582 H2576 0.930 . S
C2582 C2583 1.355 . S
C2582 C2584 1.415 . S
C2583 C2582 1.355 . S
C2583 C2585 1.419 . S
C2584 C2582 1.415 . S
C2584 C2589 1.425 . S
C2584 C2591 1.416 . S
C2585 H2577 0.930 . S
C2585 C2583 1.419 . S
C2585 C2586 1.362 . S
C2586 H2578 0.930 . S
C2586 C2585 1.362 . S
C2586 C2589 1.409 . S
C2587 H2579 0.930 . S
C2587 C2588 1.355 . S
C2587 C2589 1.415 . S
C2588 C2587 1.355 . S
C2588 C2590 1.453 . S
C2589 C2584 1.425 . S
C2589 C2586 1.409 . S
C2589 C2587 1.415 . S
C2590 H2580 0.900 1_455 S
C2590 C2588 1.453 . S
C2590 C2591 1.361 . S
C2591 H2581 0.923 1_455 S
C2591 C2584 1.416 . S
C2591 C2590 1.361 . S
H2592 C2598 0.930 . S
H2593 C2601 0.930 . S
H2594 C2602 0.930 . S
H2595 C2603 0.930 . S
H2596 C2606 0.930 . S
H2597 C2607 0.930 . S
C2598 H2592 0.930 . S
C2598 C2599 1.355 . S
C2598 C2600 1.415 . S
C2599 C2598 1.355 . S
C2599 C2601 1.419 . S
C2600 C2598 1.415 . S
C2600 C2605 1.425 . S
C2600 C2607 1.409 . S
C2601 H2593 0.930 . S
C2601 C2599 1.419 . S
C2601 C2602 1.362 . S
C2602 H2594 0.930 . S
C2602 C2601 1.362 . S
C2602 C2605 1.409 . S
C2603 H2595 0.930 . S
C2603 C2604 1.355 . S
C2603 C2605 1.415 . S
C2604 C2603 1.355 . S
C2604 C2606 1.419 . S
C2605 C2600 1.425 . S
C2605 C2602 1.409 . S
C2605 C2603 1.415 . S
C2606 H2596 0.930 . S
C2606 C2604 1.419 . S
C2606 C2607 1.362 . S
C2607 H2597 0.930 . S
C2607 C2600 1.409 . S
C2607 C2606 1.362 . S
H2608 C2614 0.930 . S
H2609 C2617 0.930 . S
H2610 C2618 0.930 . S
H2611 C2619 0.930 . S
H2612 C2622 0.930 . S
H2613 C2623 0.930 . S
C2614 H2608 0.930 . S
C2614 C2615 1.355 . S
C2614 C2616 1.415 . S
C2615 C2614 1.355 . S
C2615 C2617 1.419 . S
C2616 C2614 1.415 . S
C2616 C2621 1.425 . S
C2616 C2623 1.409 . S
C2617 H2609 0.930 . S
C2617 C2615 1.419 . S
C2617 C2618 1.362 . S
C2618 H2610 0.930 . S
C2618 C2617 1.362 . S
C2618 C2621 1.409 . S
C2619 H2611 0.930 . S
C2619 C2620 1.355 . S
C2619 C2621 1.415 . S
C2620 C2619 1.355 . S
C2620 C2622 1.419 . S
C2621 C2616 1.425 . S
C2621 C2618 1.409 . S
C2621 C2619 1.415 . S
C2622 H2612 0.930 . S
C2622 C2620 1.419 . S
C2622 C2623 1.362 . S
C2623 H2613 0.930 . S
C2623 C2616 1.409 . S
C2623 C2622 1.362 . S
H2624 C2630 0.930 . S
H2625 C2633 0.930 . S
H2626 C2634 0.930 . S
H2627 C2635 0.930 . S
H2628 C2638 0.930 . S
H2629 C2639 0.930 . S
C2630 H2624 0.930 . S
C2630 C2631 1.355 . S
C2630 C2632 1.415 . S
C2631 C2630 1.355 . S
C2631 C2633 1.419 . S
C2632 C2630 1.415 . S
C2632 C2637 1.425 . S
C2632 C2639 1.409 . S
C2633 H2625 0.930 . S
C2633 C2631 1.419 . S
C2633 C2634 1.362 . S
C2634 H2626 0.930 . S
C2634 C2633 1.362 . S
C2634 C2637 1.409 . S
C2635 H2627 0.930 . S
C2635 C2636 1.355 . S
C2635 C2637 1.415 . S
C2636 C2635 1.355 . S
C2636 C2638 1.419 . S
C2637 C2632 1.425 . S
C2637 C2634 1.409 . S
C2637 C2635 1.415 . S
C2638 H2628 0.930 . S
C2638 C2636 1.419 . S
C2638 C2639 1.362 . S
C2639 H2629 0.930 . S
C2639 C2632 1.409 . S
C2639 C2638 1.362 . S
H2640 C2646 0.930 . S
H2641 C2649 0.930 . S
H2642 C2650 0.930 . S
H2643 C2651 0.930 . S
H2644 C2654 0.930 . S
H2645 C2655 0.930 . S
C2646 H2640 0.930 . S
C2646 C2647 1.355 . S
C2646 C2648 1.415 . S
C2647 C2646 1.355 . S
C2647 C2649 1.419 . S
C2648 C2646 1.415 . S
C2648 C2653 1.425 . S
C2648 C2655 1.409 . S
C2649 H2641 0.930 . S
C2649 C2647 1.419 . S
C2649 C2650 1.362 . S
C2650 H2642 0.930 . S
C2650 C2649 1.362 . S
C2650 C2653 1.409 . S
C2651 H2643 0.930 . S
C2651 C2652 1.355 . S
C2651 C2653 1.415 . S
C2652 C2651 1.355 . S
C2652 C2654 1.419 . S
C2653 C2648 1.425 . S
C2653 C2650 1.409 . S
C2653 C2651 1.415 . S
C2654 H2644 0.930 . S
C2654 C2652 1.419 . S
C2654 C2655 1.362 . S
C2655 H2645 0.930 . S
C2655 C2648 1.409 . S
C2655 C2654 1.362 . S
H2656 C2662 0.930 . S
H2657 C2665 0.930 . S
H2658 C2666 0.930 . S
H2659 C2667 0.930 . S
H2660 C2670 0.930 . S
H2661 C2671 0.930 . S
C2662 H2656 0.930 . S
C2662 C2663 1.355 . S
C2662 C2664 1.415 . S
C2663 C2662 1.355 . S
C2663 C2665 1.419 . S
C2664 C2662 1.415 . S
C2664 C2669 1.425 . S
C2664 C2671 1.409 . S
C2665 H2657 0.930 . S
C2665 C2663 1.419 . S
C2665 C2666 1.362 . S
C2666 H2658 0.930 . S
C2666 C2665 1.362 . S
C2666 C2669 1.409 . S
C2667 H2659 0.930 . S
C2667 C2668 1.355 . S
C2667 C2669 1.415 . S
C2668 C2667 1.355 . S
C2668 C2670 1.419 . S
C2669 C2664 1.425 . S
C2669 C2666 1.409 . S
C2669 C2667 1.415 . S
C2670 H2660 0.930 . S
C2670 C2668 1.419 . S
C2670 C2671 1.362 . S
C2671 H2661 0.930 . S
C2671 C2664 1.409 . S
C2671 C2670 1.362 . S
H2672 C2678 0.930 . S
H2673 C2681 0.930 . S
H2674 C2682 0.930 . S
H2675 C2683 0.930 . S
H2676 C2686 0.930 . S
H2677 C2687 0.930 . S
C2678 H2672 0.930 . S
C2678 C2679 1.355 . S
C2678 C2680 1.415 . S
C2679 C2678 1.355 . S
C2679 C2681 1.419 . S
C2680 C2678 1.415 . S
C2680 C2685 1.425 . S
C2680 C2687 1.409 . S
C2681 H2673 0.930 . S
C2681 C2679 1.419 . S
C2681 C2682 1.362 . S
C2682 H2674 0.930 . S
C2682 C2681 1.362 . S
C2682 C2685 1.409 . S
C2683 H2675 0.930 . S
C2683 C2684 1.355 . S
C2683 C2685 1.415 . S
C2684 C2683 1.355 . S
C2684 C2686 1.419 . S
C2685 C2680 1.425 . S
C2685 C2682 1.409 . S
C2685 C2683 1.415 . S
C2686 H2676 0.930 . S
C2686 C2684 1.419 . S
C2686 C2687 1.362 . S
C2687 H2677 0.930 . S
C2687 C2680 1.409 . S
C2687 C2686 1.362 . S
H2688 C2694 0.930 . S
H2689 C2697 0.930 . S
H2690 C2698 0.930 . S
H2691 C2699 0.930 . S
H2692 C2702 0.930 . S
H2693 C2703 0.930 . S
C2694 H2688 0.930 . S
C2694 C2695 1.355 . S
C2694 C2696 1.415 . S
C2695 C2694 1.355 . S
C2695 C2697 1.419 . S
C2696 C2694 1.415 . S
C2696 C2701 1.425 . S
C2696 C2703 1.409 . S
C2697 H2689 0.930 . S
C2697 C2695 1.419 . S
C2697 C2698 1.362 . S
C2698 H2690 0.930 . S
C2698 C2697 1.362 . S
C2698 C2701 1.409 . S
C2699 H2691 0.930 . S
C2699 C2700 1.355 . S
C2699 C2701 1.415 . S
C2700 C2699 1.355 . S
C2700 C2702 1.419 . S
C2701 C2696 1.425 . S
C2701 C2698 1.409 . S
C2701 C2699 1.415 . S
C2702 H2692 0.930 . S
C2702 C2700 1.419 . S
C2702 C2703 1.362 . S
C2703 H2693 0.930 . S
C2703 C2696 1.409 . S
C2703 C2702 1.362 . S
H2704 C2710 0.930 . S
H2705 C2713 0.930 . S
H2706 C2714 0.930 . S
H2707 C2715 0.930 . S
H2708 C2718 0.930 . S
H2709 C2719 0.930 . S
C2710 H2704 0.930 . S
C2710 C2711 1.355 . S
C2710 C2712 1.415 . S
C2711 C2710 1.355 . S
C2711 C2713 1.419 . S
C2712 C2710 1.415 . S
C2712 C2717 1.425 . S
C2712 C2719 1.409 . S
C2713 H2705 0.930 . S
C2713 C2711 1.419 . S
C2713 C2714 1.362 . S
C2714 H2706 0.930 . S
C2714 C2713 1.362 . S
C2714 C2717 1.409 . S
C2715 H2707 0.930 . S
C2715 C2716 1.355 . S
C2715 C2717 1.415 . S
C2716 C2715 1.355 . S
C2716 C2718 1.419 . S
C2717 C2712 1.425 . S
C2717 C2714 1.409 . S
C2717 C2715 1.415 . S
C2718 H2708 0.930 . S
C2718 C2716 1.419 . S
C2718 C2719 1.362 . S
C2719 H2709 0.930 . S
C2719 C2712 1.409 . S
C2719 C2718 1.362 . S
H2720 C2726 0.930 . S
H2721 C2729 0.930 . S
H2722 C2730 0.930 . S
H2723 C2731 0.930 . S
H2724 C2734 0.930 . S
H2725 C2735 0.930 . S
C2726 H2720 0.930 . S
C2726 C2727 1.355 . S
C2726 C2728 1.415 . S
C2727 C2726 1.355 . S
C2727 C2729 1.419 . S
C2728 C2726 1.415 . S
C2728 C2733 1.425 . S
C2728 C2735 1.409 . S
C2729 H2721 0.930 . S
C2729 C2727 1.419 . S
C2729 C2730 1.362 . S
C2730 H2722 0.930 . S
C2730 C2729 1.362 . S
C2730 C2733 1.409 . S
C2731 H2723 0.930 . S
C2731 C2732 1.355 . S
C2731 C2733 1.415 . S
C2732 C2731 1.355 . S
C2732 C2734 1.419 . S
C2733 C2728 1.425 . S
C2733 C2730 1.409 . S
C2733 C2731 1.415 . S
C2734 H2724 0.930 . S
C2734 C2732 1.419 . S
C2734 C2735 1.362 . S
C2735 H2725 0.930 . S
C2735 C2728 1.409 . S
C2735 C2734 1.362 . S
H2736 C2742 0.930 . S
H2737 C2745 0.930 . S
H2738 C2746 0.930 . S
H2739 C2747 0.930 . S
H2740 C2750 0.930 . S
H2741 C2751 0.930 . S
C2742 H2736 0.930 . S
C2742 C2743 1.355 . S
C2742 C2744 1.415 . S
C2743 C2742 1.355 . S
C2743 C2745 1.419 . S
C2744 C2742 1.415 . S
C2744 C2749 1.425 . S
C2744 C2751 1.409 . S
C2745 H2737 0.930 . S
C2745 C2743 1.419 . S
C2745 C2746 1.362 . S
C2746 H2738 0.930 . S
C2746 C2745 1.362 . S
C2746 C2749 1.409 . S
C2747 H2739 0.930 . S
C2747 C2748 1.355 . S
C2747 C2749 1.415 . S
C2748 C2747 1.355 . S
C2748 C2750 1.419 . S
C2749 C2744 1.425 . S
C2749 C2746 1.409 . S
C2749 C2747 1.415 . S
C2750 H2740 0.930 . S
C2750 C2748 1.419 . S
C2750 C2751 1.362 . S
C2751 H2741 0.930 . S
C2751 C2744 1.409 . S
C2751 C2750 1.362 . S
H2752 C2758 0.930 . S
H2753 C2761 0.930 . S
H2754 C2762 0.930 . S
H2755 C2763 0.930 . S
H2756 C2766 0.930 . S
H2757 C2767 0.930 . S
C2758 H2752 0.930 . S
C2758 C2759 1.355 . S
C2758 C2760 1.415 . S
C2759 C2758 1.355 . S
C2759 C2761 1.419 . S
C2760 C2758 1.415 . S
C2760 C2765 1.425 . S
C2760 C2767 1.409 . S
C2761 H2753 0.930 . S
C2761 C2759 1.419 . S
C2761 C2762 1.362 . S
C2762 H2754 0.930 . S
C2762 C2761 1.362 . S
C2762 C2765 1.409 . S
C2763 H2755 0.930 . S
C2763 C2764 1.355 . S
C2763 C2765 1.415 . S
C2764 C2763 1.355 . S
C2764 C2766 1.419 . S
C2765 C2760 1.425 . S
C2765 C2762 1.409 . S
C2765 C2763 1.415 . S
C2766 H2756 0.930 . S
C2766 C2764 1.419 . S
C2766 C2767 1.362 . S
C2767 H2757 0.930 . S
C2767 C2760 1.409 . S
C2767 C2766 1.362 . S
H2768 C2774 0.930 . S
H2769 C2777 0.930 . S
H2770 C2778 0.930 . S
H2771 C2779 0.930 . S
H2772 C2782 0.930 . S
H2773 C2783 0.930 . S
C2774 H2768 0.930 . S
C2774 C2775 1.355 . S
C2774 C2776 1.415 . S
C2775 C2774 1.355 . S
C2775 C2777 1.419 . S
C2776 C2774 1.415 . S
C2776 C2781 1.425 . S
C2776 C2783 1.409 . S
C2777 H2769 0.930 . S
C2777 C2775 1.419 . S
C2777 C2778 1.362 . S
C2778 H2770 0.930 . S
C2778 C2777 1.362 . S
C2778 C2781 1.409 . S
C2779 H2771 0.930 . S
C2779 C2780 1.355 . S
C2779 C2781 1.415 . S
C2780 C2779 1.355 . S
C2780 C2782 1.419 . S
C2781 C2776 1.425 . S
C2781 C2778 1.409 . S
C2781 C2779 1.415 . S
C2782 H2772 0.930 . S
C2782 C2780 1.419 . S
C2782 C2783 1.362 . S
C2783 H2773 0.930 . S
C2783 C2776 1.409 . S
C2783 C2782 1.362 . S
C2028 C1009 1.503 . S
C2023 C331 1.477 . S
C2044 C1068 1.519 . S
C2039 C380 1.499 . S
C2055 C421 1.488 . S
C2060 C1185 1.516 . S
C2076 C1253 1.511 . S
C2071 C260 1.455 . S
C2092 C1332 1.502 . S
C2087 C620 1.509 . S
C2108 C1457 1.510 . S
C2103 C740 1.497 . S
C2119 C680 1.464 . S
C2124 C1517 1.499 . S
C2140 C1625 1.520 . S
C2135 C571 1.493 . S
C2151 C691 1.458 . S
C2156 C1721 1.505 . S
C2172 C1781 1.519 . S
C2167 C541 1.500 . S
C2183 C601 1.470 . S
C2188 C1684 1.497 . S
C2204 C1801 1.512 . S
C2199 C721 1.510 . S
C2215 C451 1.471 . S
C2220 C1869 1.509 . S
C2231 C241 1.472 . S
C2236 C1860 1.513 . S
C2247 C320 1.472 . S
C2252 C1889 1.504 . S
C2263 C391 1.494 . S
C2268 C1897 1.521 . S
C2279 C211 1.468 . S
C2284 C1281 1.514 . S
C2295 C841 1.507 . S
C2300 C1244 1.500 . S
C2316 C980 1.521 . S
C2311 C901 1.490 . S
C2332 C1077 1.511 . S
C2327 C500 1.481 . S
C2343 C271 1.459 . S
C2348 C1341 1.511 . S
C2364 C1633 1.509 . S
C2359 C661 1.464 . S
C2380 C1361 1.510 . S
C2375 C560 1.510 . S
C2396 C1545 1.520 . S
C2391 C751 1.496 . S
C2412 C1537 1.504 . S
C2407 C871 1.509 . S
C2423 C920 1.503 . S
C2428 C1605 1.517 . S
C2439 C481 1.474 . S
C2444 C1369 1.502 . S
C2460 C1420 1.521 . S
C2455 C800 1.508 . S
C2471 C200 1.475 . S
C2476 C1165 1.495 . S
C2492 C1273 1.510 . S
C2487 C20 1.493 . S
C2508 C989 1.504 . S
C2503 C80 1.484 . S
C2524 C1105 1.510 . S
C2519 C151 1.515 . S
C2535 C91 1.444 . S
C2540 C1809 1.499 . S
C2551 C121 1.507 . S
C2556 C1693 1.511 . S
C2567 C181 1.491 . S
C2572 C1772 1.498 . S
C2583 C1 1.512 . S
C2588 C1713 1.520 . S
C2604 C1957 1.510 . S
C2599 C511 1.494 . S
C2620 C1948 1.511 . S
C2615 C781 1.463 . S
C2636 C1977 1.503 . S
C2631 C860 1.509 . S
C2647 C931 1.500 . S
C2652 C1985 1.511 . S
C2663 C631 1.501 . S
C2668 C1449 1.509 . S
C2684 C1429 1.507 . S
C2679 C301 1.504 . S
C2700 C1508 1.521 . S
C2695 C361 1.486 . S
C2716 C1596 1.506 . S
C2711 C440 1.513 . S
C2727 C811 1.456 . S
C2732 C1156 1.511 . S
C2748 C1097 1.508 . S
C2743 C61 1.464 . S
C2759 C140 1.513 . S
C2764 C1193 1.510 . S
C2780 C1017 1.510 . S
C2775 C31 1.499 . S
