# Generated by pormake.
# Topology pyr, (3,6)-cn, num edge types: 1
# Building blocks:
#     Node 0, Type 0, BuildingBlock: BETDIP_clean_linker_0, # of connection points: 3
#     Node 1, Type 0, BuildingBlock: BETDIP_clean_linker_0, # of connection points: 3
#     Node 2, Type 0, BuildingBlock: BETDIP_clean_linker_0, # of connection points: 3
#     Node 3, Type 0, BuildingBlock: BETDIP_clean_linker_0, # of connection points: 3
#     Node 4, Type 0, BuildingBlock: BETDIP_clean_linker_0, # of connection points: 3
#     Node 5, Type 0, BuildingBlock: BETDIP_clean_linker_0, # of connection points: 3
#     Node 6, Type 0, BuildingBlock: BETDIP_clean_linker_0, # of connection points: 3
#     Node 7, Type 0, BuildingBlock: BETDIP_clean_linker_0, # of connection points: 3
#     Node 8, Type 1, BuildingBlock: PAMTOO_clean_sbu_0, # of connection points: 6
#     Node 9, Type 1, BuildingBlock: PAMTOO_clean_sbu_0, # of connection points: 6
#     Node 10, Type 1, BuildingBlock: PAMTOO_clean_sbu_0, # of connection points: 6
#     Node 11, Type 1, BuildingBlock: PAMTOO_clean_sbu_0, # of connection points: 6
#     Edge 12, Type (0, 1), BuildingBlock: ZUJKAS_clean_linker_0, # of connection points: 2
#     Edge 13, Type (0, 1), BuildingBlock: ZUJKAS_clean_linker_0, # of connection points: 2
#     Edge 14, Type (0, 1), BuildingBlock: ZUJKAS_clean_linker_0, # of connection points: 2
#     Edge 15, Type (0, 1), BuildingBlock: ZUJKAS_clean_linker_0, # of connection points: 2
#     Edge 16, Type (0, 1), BuildingBlock: ZUJKAS_clean_linker_0, # of connection points: 2
#     Edge 17, Type (0, 1), BuildingBlock: ZUJKAS_clean_linker_0, # of connection points: 2
#     Edge 18, Type (0, 1), BuildingBlock: ZUJKAS_clean_linker_0, # of connection points: 2
#     Edge 19, Type (0, 1), BuildingBlock: ZUJKAS_clean_linker_0, # of connection points: 2
#     Edge 20, Type (0, 1), BuildingBlock: ZUJKAS_clean_linker_0, # of connection points: 2
#     Edge 21, Type (0, 1), BuildingBlock: ZUJKAS_clean_linker_0, # of connection points: 2
#     Edge 22, Type (0, 1), BuildingBlock: ZUJKAS_clean_linker_0, # of connection points: 2
#     Edge 23, Type (0, 1), BuildingBlock: ZUJKAS_clean_linker_0, # of connection points: 2
#     Edge 24, Type (0, 1), BuildingBlock: ZUJKAS_clean_linker_0, # of connection points: 2
#     Edge 25, Type (0, 1), BuildingBlock: ZUJKAS_clean_linker_0, # of connection points: 2
#     Edge 26, Type (0, 1), BuildingBlock: ZUJKAS_clean_linker_0, # of connection points: 2
#     Edge 27, Type (0, 1), BuildingBlock: ZUJKAS_clean_linker_0, # of connection points: 2
#     Edge 28, Type (0, 1), BuildingBlock: ZUJKAS_clean_linker_0, # of connection points: 2
#     Edge 29, Type (0, 1), BuildingBlock: ZUJKAS_clean_linker_0, # of connection points: 2
#     Edge 30, Type (0, 1), BuildingBlock: ZUJKAS_clean_linker_0, # of connection points: 2
#     Edge 31, Type (0, 1), BuildingBlock: ZUJKAS_clean_linker_0, # of connection points: 2
#     Edge 32, Type (0, 1), BuildingBlock: ZUJKAS_clean_linker_0, # of connection points: 2
#     Edge 33, Type (0, 1), BuildingBlock: ZUJKAS_clean_linker_0, # of connection points: 2
#     Edge 34, Type (0, 1), BuildingBlock: ZUJKAS_clean_linker_0, # of connection points: 2
#     Edge 35, Type (0, 1), BuildingBlock: ZUJKAS_clean_linker_0, # of connection points: 2
# Relax obj value: 0.092
# Max RMSD: 0.181
# Mean RMSD: 0.129
data_MOF--net-pyr--node1-PAMTOO_clean_sbu_0--node2-BETDIP_clean_linker_0--edge1-ZUJKAS_clean_linker_0
_symmetry_space_group_name_H-M    P1
_symmetry_Int_Tables_number       1
_symmetry_cell_setting            triclinic
loop_
_symmetry_equiv_pos_as_xyz
'x, y, z'
_cell_length_a     47.626024
_cell_length_b     49.466848
_cell_length_c     51.662643
_cell_angle_alpha  90.936597
_cell_angle_beta   88.331377
_cell_angle_gamma 108.08536
loop_
_atom_site_label
_atom_site_type_symbol
_atom_site_fract_x
_atom_site_fract_y
_atom_site_fract_z
_atom_type_partial_charge
H0 H 0.29771 0.28421 0.21657 0.0
H1 H 0.35258 0.27027 0.15365 0.0
H2 H 0.33563 0.21622 0.22059 0.0
H3 H 0.31567 0.33095 0.19962 0.0
C4 C 0.30947 0.32367 0.18001 0.0
C5 C 0.31181 0.27273 0.20823 0.0
C6 C 0.31548 0.24971 0.22172 0.0
C7 C 0.32527 0.28024 0.1837 0.0
C8 C 0.34257 0.26457 0.1727 0.0
C9 C 0.34698 0.24175 0.1861 0.0
C10 C 0.33344 0.23457 0.21067 0.0
N11 N 0.31959 0.30184 0.16888 0.0
H12 H 0.18554 0.79037 0.73287 0.0
H13 H 0.18994 0.74654 0.66105 0.0
H14 H 0.24662 0.74254 0.72299 0.0
H15 H 0.15142 0.75922 0.65006 0.0
C16 C 0.14941 0.77624 0.66276 0.0
C17 C 0.19446 0.77623 0.72143 0.0
C18 C 0.2171 0.76703 0.7312 0.0
C19 C 0.18426 0.76889 0.69636 0.0
C20 C 0.19689 0.75188 0.6807 0.0
C21 C 0.21928 0.74207 0.69033 0.0
C22 C 0.22894 0.74951 0.71567 0.0
N23 N 0.16291 0.78093 0.68728 0.0
H24 H 0.69046 0.40654 0.82786 0.0
H25 H 0.61466 0.33107 0.82354 0.0
H26 H 0.67988 0.33774 0.88089 0.0
H27 H 0.60961 0.34682 0.78435 0.0
C28 C 0.62002 0.36965 0.78343 0.0
C29 C 0.67803 0.38555 0.8348 0.0
C30 C 0.68821 0.37412 0.85605 0.0
C31 C 0.65168 0.37033 0.82258 0.0
C32 C 0.63528 0.34312 0.8321 0.0
C33 C 0.64567 0.33124 0.85299 0.0
C34 C 0.67198 0.3469 0.86477 0.0
N35 N 0.64239 0.38343 0.8013 0.0
H36 H 0.8299 0.62099 0.33735 0.0
H37 H 0.90908 0.69259 0.33177 0.0
H38 H 0.84631 0.68825 0.39412 0.0
H39 H 0.90666 0.6806 0.28963 0.0
C40 C 0.89752 0.65759 0.28887 0.0
C41 C 0.84387 0.64103 0.34502 0.0
C42 C 0.83495 0.65288 0.36743 0.0
C43 C 0.87011 0.65543 0.33163 0.0
C44 C 0.88824 0.68164 0.34134 0.0
C45 C 0.87985 0.6935 0.36403 0.0
C46 C 0.85315 0.679 0.37683 0.0
N47 N 0.87751 0.64279 0.30861 0.0
H48 H 0.67215 0.77451 0.90895 0.0
H49 H 0.72552 0.7589 0.84569 0.0
H50 H 0.68376 0.82384 0.83922 0.0
H51 H 0.70561 0.71188 0.86291 0.0
C52 C 0.71268 0.71923 0.88231 0.0
C53 C 0.68087 0.77908 0.88935 0.0
C54 C 0.67571 0.80121 0.87541 0.0
C55 C 0.69795 0.76314 0.8784 0.0
C56 C 0.71072 0.76991 0.85353 0.0
C57 C 0.7061 0.79206 0.83937 0.0
C58 C 0.68809 0.80722 0.8503 0.0
N59 N 0.70414 0.74201 0.89348 0.0
H60 H 0.81798 0.24 0.33453 0.0
H61 H 0.81186 0.28217 0.4069 0.0
H62 H 0.76148 0.29272 0.34233 0.0
H63 H 0.85164 0.26969 0.41735 0.0
C64 C 0.8514 0.25125 0.4056 0.0
C65 C 0.80954 0.25461 0.34577 0.0
C66 C 0.78894 0.26597 0.3351 0.0
C67 C 0.81832 0.26055 0.3714 0.0
C68 C 0.80618 0.27814 0.38678 0.0
C69 C 0.78582 0.29006 0.37626 0.0
C70 C 0.77765 0.2841 0.35036 0.0
N71 N 0.83759 0.24652 0.38122 0.0
H72 H 0.32629 0.63427 0.21741 0.0
H73 H 0.39576 0.71347 0.22792 0.0
H74 H 0.33366 0.70487 0.16732 0.0
H75 H 0.39388 0.69733 0.26932 0.0
C76 C 0.38853 0.67438 0.26787 0.0
C77 C 0.33719 0.65608 0.21171 0.0
C78 C 0.32685 0.66751 0.19052 0.0
C79 C 0.36166 0.67247 0.22571 0.0
C80 C 0.37647 0.70072 0.21786 0.0
C81 C 0.36633 0.7126 0.19676 0.0
C82 C 0.34154 0.6958 0.18347 0.0
N83 N 0.37098 0.65954 0.24706 0.0
H84 H 0.11091 0.31672 0.72262 0.0
H85 H 0.18344 0.39426 0.71658 0.0
H86 H 0.1672 0.33358 0.65418 0.0
H87 H 0.18297 0.38767 0.76079 0.0
C88 C 0.15939 0.38194 0.76508 0.0
C89 C 0.12959 0.33031 0.71169 0.0
C90 C 0.13666 0.32209 0.68679 0.0
C91 C 0.14676 0.35591 0.72283 0.0
C92 C 0.1707 0.37395 0.70857 0.0
C93 C 0.17783 0.36619 0.68358 0.0
C94 C 0.16085 0.34019 0.67297 0.0
N95 N 0.13906 0.36329 0.74816 0.0
Dy96 Dy 0.03399 0.01887 0.50352 0.0
Dy97 Dy 0.9721 0.99932 0.53886 0.0
C98 C 0.0244 0.05603 0.55224 0.0
O99 O 0.03553 0.98148 0.52622 0.0
O100 O 0.00364 0.98292 0.56011 0.0
O101 O 0.08161 0.03028 0.49954 0.0
O102 O 0.05468 0.02562 0.46559 0.0
O103 O 0.973 0.96104 0.51605 0.0
O104 O 1.00018 0.98523 0.48181 0.0
O105 O 0.96445 0.02235 0.50414 0.0
O106 O 0.01161 0.05126 0.4961 0.0
O107 O 0.92481 0.97952 0.54087 0.0
O108 O 0.94826 0.99995 0.57489 0.0
C109 C 0.02487 0.97418 0.54971 0.0
O110 O 0.04341 0.04683 0.53867 0.0
O111 O 0.99578 0.04373 0.55101 0.0
C112 C 0.10271 0.05787 0.46286 0.0
C113 C 0.14155 0.10357 0.43523 0.0
C114 C 0.1158 0.10642 0.44746 0.0
C115 C 0.09649 0.0837 0.46121 0.0
C116 C 0.12884 0.05531 0.45159 0.0
C117 C 0.1481 0.07792 0.4379 0.0
C118 C 0.08137 0.03268 0.47445 0.0
C119 C 0.98227 0.96179 0.49186 0.0
C120 C 0.98296 0.04569 0.49437 0.0
C121 C 0.90454 0.96217 0.5819 0.0
C122 C 0.86958 0.91983 0.61535 0.0
C123 C 0.89143 0.91431 0.59904 0.0
C124 C 0.90884 0.93539 0.58242 0.0
C125 C 0.88276 0.96767 0.59795 0.0
C126 C 0.86549 0.94677 0.61455 0.0
C127 C 0.92295 0.98512 0.56551 0.0
H128 H 0.11029 0.12599 0.44598 0.0
H129 H 0.07637 0.086 0.4699 0.0
H130 H 0.13385 0.03543 0.45262 0.0
H131 H 0.16745 0.0748 0.42841 0.0
H132 H 0.89503 0.89375 0.59909 0.0
H133 H 0.92573 0.9309 0.57017 0.0
H134 H 0.87938 0.98835 0.59791 0.0
H135 H 0.8494 0.95202 0.62723 0.0
Dy136 Dy 0.47887 0.01221 1.00922 0.0
Dy137 Dy 0.53912 0.03239 0.04324 0.0
C138 C 0.48816 0.97439 0.05623 0.0
O139 O 0.47651 0.04992 0.03221 0.0
O140 O 0.50559 0.04689 0.06587 0.0
O141 O 0.43113 0.99959 1.00752 0.0
O142 O 0.45811 1.00482 0.97223 0.0
O143 O 0.53907 0.07074 0.02082 0.0
O144 O 0.5119 0.04714 0.98697 0.0
O145 O 0.54947 0.01024 1.00789 0.0
O146 O 0.50296 0.98139 0.99868 0.0
O147 O 0.58622 0.05323 0.04493 0.0
O148 O 0.56145 0.03278 0.07897 0.0
C149 C 0.48542 0.0564 0.05595 0.0
O150 O 0.46932 0.98417 0.04428 0.0
O151 O 0.51677 0.98698 0.05392 0.0
C152 C 0.4105 0.97072 0.97146 0.0
C153 C 0.36959 0.92558 0.94535 0.0
C154 C 0.35981 0.94405 0.96167 0.0
C155 C 0.3801 0.96647 0.9745 0.0
C156 C 0.42032 0.95137 0.95638 0.0
C157 C 0.40006 0.92908 0.94339 0.0
C158 C 0.43144 0.99659 0.98239 0.0
C159 C 0.53031 0.07031 0.9969 0.0
C160 C 0.53178 0.98754 0.99667 0.0
C161 C 0.6033 0.07338 0.08584 0.0
C162 C 0.63782 0.11747 0.11769 0.0
C163 C 0.64696 0.11425 0.09202 0.0
C164 C 0.62994 0.09236 0.0763 0.0
C165 C 0.59381 0.07696 0.11132 0.0
C166 C 0.61087 0.09875 0.12705 0.0
C167 C 0.5868 0.04895 0.06974 0.0
H168 H 0.33649 0.94166 0.964 0.0
H169 H 0.37208 0.98107 0.98616 0.0
H170 H 0.44369 0.95406 0.95383 0.0
H171 H 0.40844 0.91547 0.9308 0.0
H172 H 0.66743 0.12849 0.08412 0.0
H173 H 0.6379 0.08999 0.0568 0.0
H174 H 0.57354 0.06256 0.11939 0.0
H175 H 0.6034 0.10028 0.14686 0.0
Dy176 Dy 0.49937 0.49165 0.50994 0.0
Dy177 Dy 0.50827 0.55188 0.54159 0.0
C178 C 0.52578 0.50123 0.56725 0.0
O179 O 0.45358 0.49017 0.52175 0.0
O180 O 0.46568 0.52162 0.55585 0.0
O181 O 0.48587 0.4457 0.50816 0.0
O182 O 0.50549 0.47048 0.47438 0.0
O183 O 0.47915 0.5532 0.50862 0.0
O184 O 0.49222 0.52218 0.48102 0.0
O185 O 0.547 0.55928 0.51427 0.0
O186 O 0.54782 0.51341 0.511 0.0
O187 O 0.51935 0.59765 0.54198 0.0
O188 O 0.50663 0.57417 0.57767 0.0
C189 C 0.44635 0.50139 0.54313 0.0
O190 O 0.50789 0.48362 0.55118 0.0
O191 O 0.53377 0.52892 0.56376 0.0
C192 C 0.51869 0.42964 0.48155 0.0
C193 C 0.5639 0.40504 0.47135 0.0
C194 C 0.56401 0.42112 0.49406 0.0
C195 C 0.54167 0.43347 0.49904 0.0
C196 C 0.51802 0.41293 0.4593 0.0
C197 C 0.54043 0.40072 0.45422 0.0
C198 C 0.49732 0.44542 0.48494 0.0
C199 C 0.4806 0.5428 0.48522 0.0
C200 C 0.56063 0.54073 0.50787 0.0
C201 C 0.48864 0.61263 0.57175 0.0
C202 C 0.44259 0.63542 0.5846 0.0
C203 C 0.44241 0.62051 0.56118 0.0
C204 C 0.46513 0.60908 0.55489 0.0
C205 C 0.48921 0.62792 0.5949 0.0
C206 C 0.46635 0.63921 0.60131 0.0
C207 C 0.51117 0.59849 0.56623 0.0
H208 H 0.58194 0.42505 0.50745 0.0
H209 H 0.5428 0.44672 0.51614 0.0
H210 H 0.5006 0.40999 0.4455 0.0
H211 H 0.53962 0.38818 0.43671 0.0
H212 H 0.42422 0.6169 0.54809 0.0
H213 H 0.46397 0.59694 0.5371 0.0
H214 H 0.50705 0.63066 0.60824 0.0
H215 H 0.46718 0.65079 0.6194 0.0
Dy216 Dy 0.01646 0.54647 1.00511 0.0
Dy217 Dy 0.00521 0.48573 0.03472 0.0
C218 C 0.97953 0.5326 0.05876 0.0
O219 O 0.06014 0.54961 0.02227 0.0
O220 O 0.04221 0.51757 0.05495 0.0
O221 O 0.02932 0.59239 1.00531 0.0
O222 O 0.01543 0.56885 0.9698 0.0
O223 O 0.04275 0.49 1.00665 0.0
O224 O 0.02944 0.51731 0.97722 0.0
O225 O 0.97209 0.47756 1.00323 0.0
O226 O 0.96852 0.52248 1.00065 0.0
O227 O 0.99887 0.44061 0.03245 0.0
O228 O 0.9999 0.46128 0.06979 0.0
C229 C 0.06335 0.53879 0.0447 0.0
O230 O 0.99931 0.55161 0.04484 0.0
O231 O 0.9736 0.50524 0.05412 0.0
C232 C 1.00017 0.60889 0.97731 0.0
C233 C 0.95627 0.63381 0.96595 0.0
C234 C 0.95284 0.61599 0.98751 0.0
C235 C 0.97455 0.60352 0.99307 0.0
C236 C 0.00406 0.62719 0.95619 0.0
C237 C 0.98227 0.63956 0.95052 0.0
C238 C 0.02143 0.59346 0.98148 0.0
C239 C 0.04352 0.49936 0.98299 0.0
C240 C 0.95806 0.49508 0.99584 0.0
C241 C 0.0244 0.42711 0.0654 0.0
C242 C 0.07026 0.40722 0.0819 0.0
C243 C 0.07656 0.43168 0.06651 0.0
C244 C 0.05387 0.44156 0.05843 0.0
C245 C 0.01782 0.40256 0.08048 0.0
C246 C 0.0406 0.39263 0.08867 0.0
C247 C 1.00099 0.43844 0.05739 0.0
H248 H 0.9329 0.61084 0.99954 0.0
H249 H 0.97097 0.58908 1.00926 0.0
H250 H 0.0236 0.63136 0.94372 0.0
H251 H 0.9856 0.65339 0.93392 0.0
H252 H 0.09906 0.44316 0.0606 0.0
H253 H 0.05934 0.46062 0.04682 0.0
H254 H 0.99517 0.39127 0.08613 0.0
H255 H 0.03505 0.3739 0.10072 0.0
H256 H 0.2578 0.24496 0.23307 0.0
H257 H 0.22941 0.22686 0.27265 0.0
H258 H 0.30625 0.21328 0.30521 0.0
H259 H 0.33518 0.23225 0.26588 0.0
H260 H 0.21982 0.17221 0.29101 0.0
H261 H 0.27458 0.25289 0.36467 0.0
H262 H 0.27915 0.25966 0.3303 0.0
H263 H 0.29921 0.23915 0.34547 0.0
C264 C 0.2689 0.23879 0.24888 0.0
C265 C 0.29882 0.2402 0.2464 0.0
C266 C 0.25258 0.2283 0.27142 0.0
C267 C 0.26583 0.21911 0.29197 0.0
C268 C 0.29577 0.2208 0.28977 0.0
H269 H 0.202 0.12224 0.43031 0.0
H270 H 0.23184 0.15296 0.39646 0.0
C271 C 0.31216 0.23132 0.26718 0.0
C272 C 0.2476 0.20548 0.31469 0.0
H273 H 0.24016 0.20996 0.38044 0.0
C274 C 0.22408 0.18059 0.31054 0.0
C275 C 0.25339 0.21644 0.34011 0.0
C276 C 0.27779 0.24364 0.34549 0.0
C277 C 0.20651 0.16593 0.33121 0.0
C278 C 0.21228 0.17682 0.35667 0.0
C279 C 0.23574 0.2018 0.36086 0.0
C280 C 0.19479 0.16171 0.37916 0.0
C281 C 0.1825 0.13843 0.32567 0.0
C282 C 0.16428 0.15742 0.38121 0.0
C283 C 0.14713 0.13965 0.40032 0.0
C284 C 0.16027 0.12603 0.41784 0.0
C285 C 0.19116 0.13198 0.4168 0.0
C286 C 0.20826 0.14968 0.39761 0.0
H287 H 0.18546 0.12974 0.30617 0.0
H288 H 0.182 0.12213 0.34036 0.0
H289 H 0.16076 0.1423 0.32642 0.0
H290 H 0.15358 0.16692 0.36737 0.0
H291 H 0.12342 0.13543 0.40047 0.0
H292 H 0.27556 0.78493 0.74299 0.0
H293 H 0.29774 0.80615 0.78332 0.0
H294 H 0.21124 0.79712 0.81661 0.0
H295 H 0.18862 0.77456 0.77653 0.0
H296 H 0.29266 0.85573 0.80305 0.0
H297 H 0.25138 0.76926 0.87497 0.0
H298 H 0.24981 0.76275 0.84045 0.0
H299 H 0.22311 0.77648 0.85657 0.0
C300 C 0.26111 0.78662 0.7591 0.0
C301 C 0.23025 0.77787 0.75654 0.0
C302 C 0.27388 0.79898 0.78209 0.0
C303 C 0.25614 0.80295 0.80304 0.0
C304 C 0.22531 0.79377 0.80084 0.0
H305 H 0.32266 0.93249 0.92007 0.0
H306 H 0.29225 0.90087 0.888 0.0
C307 C 0.21245 0.78122 0.77782 0.0
C308 C 0.27026 0.8191 0.8261 0.0
H309 H 0.27677 0.8153 0.89152 0.0
C310 C 0.28921 0.84686 0.82238 0.0
C311 C 0.26585 0.80737 0.85124 0.0
C312 C 0.24665 0.77724 0.85613 0.0
C313 C 0.3039 0.86331 0.84311 0.0
C314 C 0.29897 0.8519 0.86836 0.0
C315 C 0.28018 0.82405 0.87214 0.0
C316 C 0.31393 0.8686 0.8908 0.0
C317 C 0.32507 0.89257 0.83767 0.0
C318 C 0.33514 0.86017 0.90396 0.0
C319 C 0.35234 0.87803 0.92267 0.0
C320 C 0.34858 0.90461 0.9285 0.0
C321 C 0.32605 0.91212 0.91629 0.0
C322 C 0.30881 0.8942 0.89773 0.0
H323 H 0.33171 0.89532 0.81684 0.0
H324 H 0.3142 0.90879 0.84307 0.0
H325 H 0.34529 0.89673 0.84923 0.0
H326 H 0.33925 0.84035 0.89896 0.0
H327 H 0.36911 0.87137 0.93205 0.0
H328 H 0.5814 0.34748 0.74532 0.0
H329 H 0.5673 0.37208 0.70958 0.0
H330 H 0.62513 0.45207 0.73745 0.0
H331 H 0.63976 0.42738 0.773 0.0
H332 H 0.54024 0.41273 0.71006 0.0
H333 H 0.65059 0.45539 0.66193 0.0
H334 H 0.64305 0.42876 0.68684 0.0
H335 H 0.64949 0.46555 0.69536 0.0
C336 C 0.59124 0.37031 0.74375 0.0
C337 C 0.61183 0.38539 0.76194 0.0
C338 C 0.58313 0.38439 0.7233 0.0
C339 C 0.59543 0.41397 0.7204 0.0
C340 C 0.6158 0.42918 0.73876 0.0
H341 H 0.56356 0.52998 0.60516 0.0
H342 H 0.5804 0.50993 0.64265 0.0
C343 C 0.62402 0.41505 0.75924 0.0
C344 C 0.5862 0.42867 0.69855 0.0
H345 H 0.61197 0.47013 0.64515 0.0
C346 C 0.55598 0.42524 0.69588 0.0
C347 C 0.60662 0.44517 0.67997 0.0
C348 C 0.63922 0.44879 0.68094 0.0
C349 C 0.54569 0.43777 0.67538 0.0
C350 C 0.56605 0.45392 0.65662 0.0
C351 C 0.59631 0.45778 0.65948 0.0
C352 C 0.5562 0.4662 0.63354 0.0
C353 C 0.51305 0.43386 0.6742 0.0
C354 C 0.53739 0.44838 0.61556 0.0
C355 C 0.52776 0.45975 0.5941 0.0
C356 C 0.53675 0.48933 0.58992 0.0
C357 C 0.55603 0.50715 0.60773 0.0
C358 C 0.56574 0.4957 0.6292 0.0
H359 H 0.50175 0.42802 0.69336 0.0
H360 H 0.50905 0.45351 0.66744 0.0
H361 H 0.50286 0.41643 0.66034 0.0
H362 H 0.53018 0.42553 0.61807 0.0
H363 H 0.51314 0.44525 0.5808 0.0
H364 H 0.87863 0.60004 0.27882 0.0
H365 H 0.89014 0.57557 0.24028 0.0
H366 H 0.94199 0.65615 0.20817 0.0
H367 H 0.93093 0.68072 0.24681 0.0
H368 H 0.87872 0.58183 0.18823 0.0
H369 H 0.99899 0.60916 0.204 0.0
H370 H 0.97327 0.61317 0.229 0.0
H371 H 0.98615 0.63965 0.20425 0.0
C372 C 0.89257 0.61254 0.26359 0.0
C373 C 0.90407 0.64231 0.26581 0.0
C374 C 0.89906 0.59852 0.24159 0.0
C375 C 0.91726 0.61401 0.22158 0.0
C376 C 0.9284 0.64375 0.22364 0.0
H377 H 0.98393 0.58734 0.07174 0.0
H378 H 0.96597 0.60457 0.11133 0.0
C379 C 0.92197 0.65776 0.24563 0.0
C380 C 0.92442 0.59923 0.19836 0.0
H381 H 0.98233 0.59092 0.16224 0.0
C382 C 0.90133 0.58352 0.18264 0.0
C383 C 0.95392 0.60133 0.19128 0.0
C384 C 0.97949 0.6165 0.20814 0.0
C385 C 0.90712 0.57084 0.1594 0.0
C386 C 0.93669 0.57384 0.15193 0.0
C387 C 0.95968 0.58886 0.168 0.0
C388 C 0.94462 0.56272 0.12698 0.0
C389 C 0.88178 0.55518 0.14254 0.0
C390 C 0.93813 0.53338 0.12253 0.0
C391 C 0.94845 0.52335 0.09983 0.0
C392 C 0.96553 0.54257 0.08136 0.0
C393 C 0.97102 0.57191 0.08559 0.0
C394 C 0.96076 0.58185 0.10821 0.0
H395 H 0.86066 0.55847 0.14912 0.0
H396 H 0.88655 0.56222 0.12213 0.0
H397 H 0.87896 0.53206 0.14301 0.0
H398 H 0.92596 0.51831 0.13697 0.0
H399 H 0.9439 0.50064 0.0972 0.0
H400 H 0.34558 0.22267 0.13602 0.0
H401 H 0.37272 0.19252 0.11657 0.0
H402 H 0.41463 0.19122 0.18922 0.0
H403 H 0.3876 0.22149 0.20884 0.0
H404 H 0.43384 0.20194 0.11174 0.0
H405 H 0.37872 0.10656 0.17131 0.0
H406 H 0.36453 0.13631 0.16946 0.0
H407 H 0.3956 0.13865 0.18924 0.0
C408 C 0.3608 0.21624 0.1478 0.0
C409 C 0.36439 0.22442 0.174 0.0
C410 C 0.37617 0.19889 0.1367 0.0
C411 C 0.39532 0.1893 0.15157 0.0
C412 C 0.39946 0.19789 0.17756 0.0
H413 H 0.49731 0.07493 0.10609 0.0
H414 H 0.47762 0.10829 0.13053 0.0
C415 C 0.38404 0.21521 0.18872 0.0
C416 C 0.41093 0.17038 0.13968 0.0
H417 H 0.4164 0.10321 0.14191 0.0
C418 C 0.43012 0.18039 0.11838 0.0
C419 C 0.4061 0.14231 0.14849 0.0
C420 C 0.38495 0.13013 0.17074 0.0
C421 C 0.44441 0.16299 0.10548 0.0
C422 C 0.43902 0.13474 0.11388 0.0
C423 C 0.42047 0.12493 0.13559 0.0
C424 C 0.45097 0.11454 0.09936 0.0
C425 C 0.46512 0.17496 0.0829 0.0
C426 C 0.44205 0.1067 0.07398 0.0
C427 C 0.4531 0.08767 0.06004 0.0
C428 C 0.47327 0.07599 0.07124 0.0
C429 C 0.48188 0.08358 0.09686 0.0
C430 C 0.47068 0.10262 0.11085 0.0
H431 H 0.47303 0.19859 0.08335 0.0
H432 H 0.48456 0.16706 0.08275 0.0
H433 H 0.45329 0.16809 0.06457 0.0
H434 H 0.42641 0.11525 0.06495 0.0
H435 H 0.44586 0.08224 0.04042 0.0
H436 H 0.13935 0.82126 0.68891 0.0
H437 H 0.11459 0.85396 0.67305 0.0
H438 H 0.09833 0.80757 0.60075 0.0
H439 H 0.12291 0.77445 0.61664 0.0
H440 H 0.13186 0.88839 0.63017 0.0
H441 H 0.01737 0.81609 0.62039 0.0
H442 H 0.04463 0.80706 0.63906 0.0
H443 H 0.04488 0.8034 0.60438 0.0
C444 C 0.13025 0.81778 0.66973 0.0
C445 C 0.13303 0.79525 0.65395 0.0
C446 C 0.1161 0.83651 0.66072 0.0
C447 C 0.10431 0.833 0.63587 0.0
C448 C 0.10674 0.81033 0.62019 0.0
H449 H 0.0712 0.95516 0.53579 0.0
H450 H 0.08961 0.92171 0.5587 0.0
C451 C 0.12092 0.79155 0.6292 0.0
C452 C 0.09124 0.85415 0.62577 0.0
H453 H 0.02869 0.86149 0.60024 0.0
C454 C 0.10922 0.88255 0.62383 0.0
C455 C 0.06161 0.84656 0.61784 0.0
C456 C 0.04087 0.81667 0.62072 0.0
C457 C 0.09866 0.90341 0.61335 0.0
C458 C 0.06948 0.89555 0.60428 0.0
C459 C 0.05114 0.86737 0.60704 0.0
C460 C 0.05814 0.91603 0.59076 0.0
C461 C 0.11886 0.93368 0.612 0.0
C462 C 0.03395 0.92355 0.601 0.0
C463 C 0.02324 0.94274 0.5879 0.0
C464 C 0.03642 0.95447 0.56421 0.0
C465 C 0.06055 0.94667 0.55401 0.0
C466 C 0.07124 0.92762 0.56714 0.0
H467 H 0.1371 0.93766 0.62589 0.0
H468 H 0.12884 0.93783 0.59221 0.0
H469 H 0.10644 0.94899 0.6161 0.0
H470 H 0.02345 0.91465 0.61916 0.0
H471 H 0.00452 0.94815 0.59621 0.0
H472 H 0.74345 0.39934 0.83473 0.0
H473 H 0.78958 0.4211 0.85774 0.0
H474 H 0.74079 0.40768 0.93057 0.0
H475 H 0.69505 0.38502 0.90774 0.0
H476 H 0.81048 0.46579 0.88843 0.0
H477 H 0.80082 0.36945 0.94529 0.0
H478 H 0.77672 0.36931 0.919 0.0
H479 H 0.76947 0.38174 0.95071 0.0
C480 C 0.74264 0.40124 0.85564 0.0
C481 C 0.71573 0.39019 0.86947 0.0
C482 C 0.769 0.41361 0.8688 0.0
C483 C 0.76891 0.41536 0.89603 0.0
C484 C 0.74173 0.40571 0.90968 0.0
H485 H 0.91593 0.52099 0.98719 0.0
H486 H 0.87048 0.50225 0.96296 0.0
C487 C 0.71554 0.39296 0.8966 0.0
C488 C 0.79714 0.42692 0.91018 0.0
H489 H 0.83721 0.41198 0.95874 0.0
C490 C 0.81639 0.45394 0.90371 0.0
C491 C 0.80532 0.41133 0.92982 0.0
C492 C 0.78716 0.38124 0.93643 0.0
C493 C 0.84317 0.46597 0.91656 0.0
C494 C 0.85057 0.45097 0.93712 0.0
C495 C 0.83152 0.42376 0.94328 0.0
C496 C 0.87821 0.46261 0.95213 0.0
C497 C 0.86352 0.49429 0.90743 0.0
C498 C 0.89732 0.44625 0.95519 0.0
C499 C 0.92295 0.45663 0.96964 0.0
C500 C 0.9303 0.48377 0.98123 0.0
C501 C 0.91111 0.5001 0.97832 0.0
C502 C 0.88519 0.4895 0.96421 0.0
H503 H 0.85948 0.49832 0.88699 0.0
H504 H 0.85943 0.5115 0.9195 0.0
H505 H 0.88708 0.49548 0.90902 0.0
H506 H 0.89251 0.42541 0.94623 0.0
H507 H 0.93724 0.4435 0.97138 0.0
H508 H 0.81091 0.59642 0.37933 0.0
H509 H 0.76381 0.57365 0.40233 0.0
H510 H 0.74787 0.6547 0.409 0.0
H511 H 0.79421 0.67736 0.38553 0.0
H512 H 0.74656 0.58664 0.45272 0.0
H513 H 0.67122 0.60258 0.37884 0.0
H514 H 0.70947 0.60592 0.3716 0.0
H515 H 0.69971 0.6347 0.38712 0.0
C516 C 0.79712 0.60926 0.38541 0.0
C517 C 0.80624 0.63866 0.38068 0.0
C518 C 0.77037 0.59628 0.39864 0.0
C519 C 0.75227 0.61247 0.40704 0.0
C520 C 0.76131 0.64177 0.40229 0.0
H521 H 0.5932 0.59525 0.49573 0.0
H522 H 0.64065 0.61094 0.47218 0.0
C523 C 0.78795 0.65472 0.38913 0.0
C524 C 0.7243 0.59916 0.42157 0.0
H525 H 0.65043 0.59058 0.42137 0.0
C526 C 0.72545 0.58713 0.44578 0.0
C527 C 0.69687 0.59986 0.41237 0.0
C528 C 0.69411 0.6112 0.38594 0.0
C529 C 0.69995 0.57682 0.46156 0.0
C530 C 0.67271 0.57837 0.45267 0.0
C531 C 0.67146 0.58969 0.42818 0.0
C532 C 0.64521 0.56886 0.46859 0.0
C533 C 0.70245 0.56526 0.48794 0.0
C534 C 0.63226 0.54003 0.47448 0.0
C535 C 0.60513 0.53096 0.48793 0.0
C536 C 0.59047 0.5506 0.49562 0.0
C537 C 0.60389 0.57957 0.49013 0.0
C538 C 0.63096 0.58858 0.47665 0.0
H539 H 0.72578 0.57075 0.49393 0.0
H540 H 0.68981 0.57358 0.50275 0.0
H541 H 0.69295 0.54174 0.48751 0.0
H542 H 0.64274 0.52445 0.46807 0.0
H543 H 0.59538 0.50847 0.49176 0.0
H544 H 0.28146 0.35947 0.19989 0.0
H545 H 0.24065 0.3723 0.18124 0.0
H546 H 0.24493 0.32156 0.11344 0.0
H547 H 0.28587 0.30876 0.13191 0.0
H548 H 0.2394 0.37671 0.10326 0.0
H549 H 0.15588 0.31558 0.17526 0.0
H550 H 0.18834 0.33994 0.18907 0.0
H551 H 0.19142 0.31011 0.17019 0.0
C552 C 0.27382 0.35126 0.18092 0.0
C553 C 0.28667 0.33305 0.16741 0.0
C554 C 0.25044 0.35843 0.17039 0.0
C555 C 0.23951 0.34746 0.1462 0.0
C556 C 0.25297 0.33005 0.13223 0.0
H557 H 0.07213 0.35246 0.08483 0.0
H558 H 0.11309 0.33674 0.09924 0.0
C559 C 0.27634 0.32279 0.1428 0.0
C560 C 0.21385 0.35403 0.13564 0.0
H561 H 0.14103 0.34662 0.14791 0.0
C562 C 0.21784 0.37002 0.1129 0.0
C563 C 0.18568 0.34485 0.14808 0.0
C564 C 0.17987 0.32644 0.17188 0.0
C565 C 0.19454 0.37791 0.10271 0.0
C566 C 0.16671 0.36979 0.11581 0.0
C567 C 0.16248 0.353 0.13807 0.0
C568 C 0.14195 0.37921 0.10713 0.0
C569 C 0.19984 0.39481 0.07802 0.0
C570 C 0.14448 0.40821 0.10731 0.0
C571 C 0.12112 0.41722 0.09932 0.0
C572 C 0.09471 0.39738 0.09103 0.0
C573 C 0.09208 0.36825 0.09128 0.0
C574 C 0.11549 0.35925 0.09934 0.0
H575 H 0.21949 0.3929 0.06693 0.0
H576 H 0.18032 0.38773 0.06546 0.0
H577 H 0.2038 0.41761 0.08284 0.0
H578 H 0.16447 0.42388 0.11385 0.0
H579 H 0.12365 0.43975 0.09992 0.0
H580 H 0.59248 0.31385 0.87927 0.0
H581 H 0.57098 0.26882 0.90254 0.0
H582 H 0.64163 0.23893 0.87259 0.0
H583 H 0.66367 0.28428 0.85038 0.0
H584 H 0.55002 0.21377 0.89068 0.0
H585 H 0.65011 0.2303 0.94832 0.0
H586 H 0.64521 0.25754 0.92783 0.0
H587 H 0.65811 0.22961 0.91425 0.0
C588 C 0.60307 0.29742 0.87741 0.0
C589 C 0.62969 0.30245 0.86308 0.0
C590 C 0.59089 0.27174 0.89077 0.0
C591 C 0.60508 0.25064 0.88998 0.0
C592 C 0.63072 0.25511 0.87429 0.0
H593 H 0.5264 0.07562 0.94441 0.0
H594 H 0.54378 0.1189 0.91855 0.0
C595 C 0.64311 0.28088 0.86131 0.0
C596 C 0.59366 0.22441 0.90607 0.0
H597 H 0.61425 0.18454 0.95094 0.0
C598 C 0.56405 0.20745 0.90392 0.0
C599 C 0.61167 0.21631 0.92388 0.0
C600 C 0.64292 0.23455 0.92895 0.0
C601 C 0.55218 0.18251 0.9186 0.0
C602 C 0.57064 0.17369 0.93542 0.0
C603 C 0.60009 0.19093 0.93787 0.0
C604 C 0.55988 0.14706 0.95109 0.0
C605 C 0.51977 0.16636 0.91637 0.0
C606 C 0.56403 0.148 0.97798 0.0
C607 C 0.55469 0.12313 0.99276 0.0
C608 C 0.54077 0.09663 0.98106 0.0
C609 C 0.53675 0.09566 0.95413 0.0
C610 C 0.54647 0.12051 0.9393 0.0
H611 H 0.50715 0.18026 0.90956 0.0
H612 H 0.51708 0.14887 0.90202 0.0
H613 H 0.50997 0.15702 0.93521 0.0
H614 H 0.57441 0.16809 0.98763 0.0
H615 H 0.55811 0.12476 1.01343 0.0
H616 H 0.90638 0.74228 0.33687 0.0
H617 H 0.9311 0.78974 0.35461 0.0
H618 H 0.91754 0.75544 0.43185 0.0
H619 H 0.89392 0.70803 0.41426 0.0
H620 H 0.90475 0.81882 0.38689 0.0
H621 H 1.00209 0.80568 0.43448 0.0
H622 H 0.98123 0.78029 0.41117 0.0
H623 H 0.96874 0.77892 0.44452 0.0
C624 C 0.90945 0.74477 0.35756 0.0
C625 C 0.89811 0.72147 0.37419 0.0
C626 C 0.9234 0.77189 0.36767 0.0
C627 C 0.92645 0.77608 0.39453 0.0
C628 C 0.91602 0.75266 0.41104 0.0
H629 H 0.95253 0.90783 0.50784 0.0
H630 H 0.94048 0.86406 0.48197 0.0
C631 C 0.90218 0.72561 0.40098 0.0
C632 C 0.93778 0.80513 0.40564 0.0
H633 H 0.98582 0.84492 0.44973 0.0
C634 C 0.92285 0.82474 0.40024 0.0
C635 C 0.9614 0.8128 0.42307 0.0
C636 C 0.97947 0.79339 0.42844 0.0
C637 C 0.92997 0.85129 0.4128 0.0
C638 C 0.95262 0.85834 0.43108 0.0
C639 C 0.96826 0.83922 0.43583 0.0
C640 C 0.95956 0.88502 0.4463 0.0
C641 C 0.91249 0.87121 0.40729 0.0
C642 C 0.97421 0.91119 0.43468 0.0
C643 C 0.98123 0.93625 0.4494 0.0
C644 C 0.97358 0.93551 0.47596 0.0
C645 C 0.9586 0.90919 0.48742 0.0
C646 C 0.9518 0.88415 0.47272 0.0
H647 H 0.89336 0.86118 0.39483 0.0
H648 H 0.9043 0.87833 0.4257 0.0
H649 H 0.92706 0.89038 0.39733 0.0
H650 H 0.98051 0.91216 0.41431 0.0
H651 H 0.99282 0.95616 0.43998 0.0
H652 H 0.23905 0.75317 0.64012 0.0
H653 H 0.27134 0.73168 0.61528 0.0
H654 H 0.26842 0.6751 0.67868 0.0
H655 H 0.23528 0.69561 0.70308 0.0
H656 H 0.32567 0.73436 0.62993 0.0
H657 H 0.26028 0.62132 0.61831 0.0
H658 H 0.24355 0.64826 0.62768 0.0
H659 H 0.26042 0.63248 0.6515 0.0
C660 C 0.24447 0.73548 0.64839 0.0
C661 C 0.23469 0.72613 0.6736 0.0
C662 C 0.2631 0.72337 0.63425 0.0
C663 C 0.27211 0.7016 0.645 0.0
C664 C 0.26131 0.69143 0.66971 0.0
H665 H 0.41369 0.631 0.63151 0.0
H666 H 0.37155 0.64746 0.64343 0.0
C667 C 0.24263 0.70341 0.68378 0.0
C668 C 0.29537 0.69176 0.6319 0.0
H669 H 0.31341 0.63206 0.61504 0.0
C670 C 0.3228 0.71204 0.62618 0.0
C671 C 0.29163 0.66263 0.62704 0.0
C672 C 0.26226 0.63998 0.63121 0.0
C673 C 0.34698 0.70385 0.61696 0.0
C674 C 0.34356 0.67467 0.61329 0.0
C675 C 0.31593 0.65443 0.61811 0.0
C676 C 0.36887 0.66471 0.60572 0.0
C677 C 0.37638 0.72629 0.61223 0.0
C678 C 0.38117 0.66897 0.58056 0.0
C679 C 0.40526 0.65963 0.57369 0.0
C680 C 0.41749 0.646 0.59195 0.0
C681 C 0.40505 0.6418 0.61715 0.0
C682 C 0.38086 0.65097 0.62392 0.0
H683 H 0.37625 0.74768 0.61899 0.0
H684 H 0.39409 0.72063 0.62224 0.0
H685 H 0.38194 0.72738 0.59118 0.0
H686 H 0.37208 0.67946 0.56624 0.0
H687 H 0.41448 0.66327 0.55417 0.0
H688 H 0.71584 0.75747 0.80025 0.0
H689 H 0.74495 0.77193 0.76012 0.0
H690 H 0.75965 0.86004 0.78054 0.0
H691 H 0.73195 0.84592 0.82112 0.0
H692 H 0.73783 0.80275 0.71907 0.0
H693 H 0.84299 0.85807 0.76646 0.0
H694 H 0.81151 0.83498 0.78391 0.0
H695 H 0.8138 0.87136 0.77779 0.0
C696 C 0.72549 0.77993 0.7963 0.0
C697 C 0.7217 0.80053 0.81401 0.0
C698 C 0.74197 0.78813 0.77329 0.0
C699 C 0.75499 0.81704 0.76764 0.0
C700 C 0.7504 0.8376 0.78483 0.0
H701 H 0.81089 0.90773 0.62827 0.0
H702 H 0.7837 0.87787 0.66344 0.0
C703 C 0.73413 0.82947 0.80786 0.0
C704 C 0.77316 0.82595 0.74367 0.0
H705 H 0.83973 0.8698 0.72192 0.0
C706 C 0.76027 0.8171 0.71964 0.0
C707 C 0.8027 0.84402 0.74443 0.0
C708 C 0.81867 0.8524 0.76955 0.0
C709 C 0.77556 0.82722 0.69634 0.0
C710 C 0.80418 0.84723 0.6972 0.0
C711 C 0.81765 0.85474 0.72121 0.0
C712 C 0.8197 0.86245 0.67385 0.0
C713 C 0.76078 0.81648 0.67111 0.0
C714 C 0.84916 0.86402 0.66805 0.0
C715 C 0.86508 0.88173 0.64829 0.0
C716 C 0.85181 0.89825 0.63401 0.0
C717 C 0.82192 0.89563 0.63914 0.0
C718 C 0.80614 0.87815 0.659 0.0
H719 H 0.74517 0.7946 0.6732 0.0
H720 H 0.74782 0.83046 0.66529 0.0
H721 H 0.77719 0.81638 0.65543 0.0
H722 H 0.86014 0.85225 0.67939 0.0
H723 H 0.88813 0.88345 0.64505 0.0
H724 H 0.73166 0.25198 0.31996 0.0
H725 H 0.71177 0.23336 0.27803 0.0
H726 H 0.79938 0.23952 0.24921 0.0
H727 H 0.81973 0.25883 0.2911 0.0
H728 H 0.72762 0.2565 0.22518 0.0
H729 H 0.74876 0.15359 0.24201 0.0
H730 H 0.7485 0.1784 0.26797 0.0
H731 H 0.77935 0.18561 0.24553 0.0
C732 C 0.74686 0.25004 0.30458 0.0
C733 C 0.77732 0.25689 0.30891 0.0
C734 C 0.7354 0.23926 0.28066 0.0
C735 C 0.7541 0.2349 0.2607 0.0
C736 C 0.7846 0.2425 0.26455 0.0
H737 H 0.69799 0.13293 0.12123 0.0
H738 H 0.72895 0.16541 0.1526 0.0
C739 C 0.79614 0.25341 0.28849 0.0
C740 C 0.74119 0.22084 0.23645 0.0
H741 H 0.7247 0.1575 0.20398 0.0
C742 C 0.72719 0.23496 0.22033 0.0
C743 C 0.7408 0.19279 0.23027 0.0
C744 C 0.75496 0.1765 0.24735 0.0
C745 C 0.71237 0.22156 0.19825 0.0
C746 C 0.71099 0.19309 0.1926 0.0
C747 C 0.72581 0.17933 0.20833 0.0
C748 C 0.69282 0.17641 0.17155 0.0
C749 C 0.69834 0.238 0.18124 0.0
C750 C 0.66225 0.17204 0.17161 0.0
C751 C 0.64453 0.15375 0.15351 0.0
C752 C 0.65697 0.13916 0.13519 0.0
C753 C 0.68772 0.14413 0.1348 0.0
C754 C 0.70544 0.16254 0.15283 0.0
H755 H 0.70948 0.26127 0.18295 0.0
H756 H 0.69908 0.2316 0.16059 0.0
H757 H 0.67488 0.23378 0.18744 0.0
H758 H 0.65191 0.18199 0.18624 0.0
H759 H 0.62099 0.15063 0.15418 0.0
H760 H 0.41279 0.69695 0.3133 0.0
H761 H 0.42683 0.67279 0.34952 0.0
H762 H 0.39789 0.59323 0.3078 0.0
H763 H 0.38344 0.61725 0.27155 0.0
H764 H 0.38628 0.62047 0.3779 0.0
H765 H 0.4871 0.60568 0.33065 0.0
H766 H 0.47199 0.63305 0.32067 0.0
H767 H 0.45375 0.59661 0.31237 0.0
C768 C 0.40939 0.67429 0.31183 0.0
C769 C 0.39697 0.65906 0.28954 0.0
C770 C 0.4174 0.66051 0.33257 0.0
C771 C 0.41358 0.63121 0.33138 0.0
C772 C 0.40123 0.61588 0.30911 0.0
H773 H 0.46971 0.52101 0.43593 0.0
H774 H 0.45197 0.54132 0.3993 0.0
C775 C 0.3929 0.62964 0.28842 0.0
C776 C 0.42234 0.61683 0.35358 0.0
H777 H 0.47483 0.58789 0.37281 0.0
C778 C 0.40561 0.61329 0.37681 0.0
C779 C 0.44741 0.60726 0.35211 0.0
C780 C 0.46633 0.61086 0.32772 0.0
C781 C 0.4131 0.60026 0.39852 0.0
C782 C 0.43873 0.59135 0.39737 0.0
C783 C 0.45527 0.59471 0.37394 0.0
C784 C 0.44888 0.57866 0.42015 0.0
C785 C 0.39291 0.59556 0.4222 0.0
C786 C 0.45342 0.59278 0.44428 0.0
C787 C 0.46318 0.58096 0.46544 0.0
C788 C 0.46931 0.55494 0.46293 0.0
C789 C 0.4652 0.54103 0.43868 0.0
C790 C 0.45507 0.5527 0.41762 0.0
H791 H 0.3701 0.59457 0.41714 0.0
H792 H 0.39196 0.57559 0.4322 0.0
H793 H 0.40122 0.61363 0.43588 0.0
H794 H 0.44984 0.61325 0.44673 0.0
H795 H 0.46645 0.59252 0.48365 0.0
H796 H 0.19342 0.41313 0.80271 0.0
H797 H 0.17725 0.43219 0.84253 0.0
H798 H 0.08636 0.39505 0.82109 0.0
H799 H 0.10235 0.37545 0.78165 0.0
H800 H 0.14667 0.46973 0.84766 0.0
H801 H 0.08376 0.36866 0.89508 0.0
H802 H 0.10851 0.37005 0.86765 0.0
H803 H 0.07162 0.37123 0.86293 0.0
C804 C 0.16999 0.40883 0.80668 0.0
C805 C 0.14916 0.39268 0.78925 0.0
C806 C 0.16079 0.41973 0.82937 0.0
C807 C 0.13058 0.41463 0.835 0.0
C808 C 0.10974 0.39862 0.81748 0.0
H809 H 0.04595 0.51071 0.93127 0.0
H810 H 0.06966 0.49088 0.89669 0.0
C811 C 0.11892 0.38758 0.79486 0.0
C812 C 0.12092 0.4272 0.85853 0.0
H813 H 0.07532 0.41089 0.91206 0.0
C814 C 0.13129 0.45685 0.86188 0.0
C815 C 0.10127 0.41034 0.87732 0.0
C816 C 0.09088 0.37829 0.87575 0.0
C817 C 0.12172 0.47017 0.88301 0.0
C818 C 0.10071 0.45344 0.90094 0.0
C819 C 0.09117 0.42372 0.89813 0.0
C820 C 0.08748 0.46635 0.92219 0.0
C821 C 0.13428 0.50204 0.88595 0.0
C822 C 0.0891 0.45871 0.94802 0.0
C823 C 0.07527 0.46981 0.9679 0.0
C824 C 0.05948 0.48867 0.96224 0.0
C825 C 0.05811 0.49642 0.93635 0.0
C826 C 0.07182 0.48523 0.91653 0.0
H827 H 0.15621 0.51031 0.87596 0.0
H828 H 0.11918 0.5122 0.87706 0.0
H829 H 0.13664 0.50849 0.90666 0.0
H830 H 0.10093 0.44402 0.95278 0.0
H831 H 0.07671 0.46334 0.98762 0.0
H832 H 0.625 0.78358 0.90562 0.0
H833 H 0.5971 0.81307 0.92536 0.0
H834 H 0.65932 0.88792 0.89186 0.0
H835 H 0.68762 0.85885 0.87254 0.0
H836 H 0.61861 0.86022 0.96032 0.0
H837 H 0.57751 0.89152 0.86966 0.0
H838 H 0.5915 0.86158 0.87126 0.0
H839 H 0.61665 0.89715 0.86948 0.0
C840 C 0.63282 0.80633 0.90255 0.0
C841 C 0.65843 0.81881 0.88732 0.0
C842 C 0.61677 0.8231 0.91371 0.0
C843 C 0.6259 0.85256 0.90967 0.0
C844 C 0.65154 0.86512 0.8947 0.0
H845 H 0.58987 0.98981 0.99347 0.0
H846 H 0.6109 0.95571 0.97233 0.0
C847 C 0.66765 0.84844 0.88364 0.0
C848 C 0.60933 0.87048 0.92181 0.0
H849 H 0.57219 0.91726 0.90796 0.0
C850 C 0.60823 0.87251 0.94891 0.0
C851 C 0.59559 0.88625 0.90684 0.0
C852 C 0.59507 0.8839 0.87769 0.0
C853 C 0.5946 0.89069 0.96144 0.0
C854 C 0.58198 0.90738 0.94642 0.0
C855 C 0.58216 0.90461 0.91936 0.0
C856 C 0.56915 0.92832 0.95852 0.0
C857 C 0.59385 0.89203 0.99064 0.0
C858 C 0.53881 0.92455 0.95712 0.0
C859 C 0.52665 0.94401 0.96919 0.0
C860 C 0.54473 0.96774 0.98262 0.0
C861 C 0.57527 0.97178 0.98335 0.0
C862 C 0.58734 0.95224 0.97141 0.0
H863 H 0.59819 0.87334 0.99929 0.0
H864 H 0.61113 0.91148 0.99719 0.0
H865 H 0.57212 0.89313 0.9981 0.0
H866 H 0.52448 0.90628 0.94708 0.0
H867 H 0.50306 0.94031 0.96817 0.0
H868 H 0.85233 0.20097 0.3831 0.0
H869 H 0.87684 0.16797 0.39845 0.0
H870 H 0.91037 0.22367 0.4632 0.0
H871 H 0.88516 0.25673 0.44816 0.0
H872 H 0.93524 0.17536 0.40592 0.0
H873 H 0.87076 0.14795 0.4984 0.0
H874 H 0.86014 0.16705 0.47294 0.0
H875 H 0.88937 0.18525 0.49418 0.0
C876 C 0.86488 0.20629 0.40062 0.0
C877 C 0.86677 0.23144 0.41453 0.0
C878 C 0.87893 0.18737 0.40934 0.0
C879 C 0.89513 0.19316 0.43212 0.0
C880 C 0.89749 0.2185 0.44584 0.0
H881 H 0.01372 0.09946 0.4782 0.0
H882 H 0.99354 0.13583 0.46261 0.0
C883 C 0.88325 0.23742 0.43719 0.0
C884 C 0.90943 0.17251 0.44128 0.0
H885 H 0.90974 0.12834 0.49127 0.0
C886 C 0.92974 0.16511 0.42461 0.0
C887 C 0.90191 0.15892 0.46553 0.0
C888 C 0.87916 0.16494 0.48374 0.0
C889 C 0.94267 0.1444 0.43148 0.0
C890 C 0.9355 0.13115 0.4559 0.0
C891 C 0.9153 0.13865 0.47261 0.0
C892 C 0.94802 0.10887 0.46429 0.0
C893 C 0.96319 0.13631 0.41223 0.0
C894 C 0.92911 0.08173 0.47068 0.0
C895 C 0.94052 0.06096 0.4798 0.0
C896 C 0.97111 0.06695 0.48275 0.0
C897 C 0.99007 0.09404 0.47596 0.0
C898 C 0.97859 0.11486 0.46695 0.0
H899 H 0.96036 0.14287 0.39226 0.0
H900 H 0.98639 0.14711 0.41763 0.0
H901 H 0.95945 0.113 0.41223 0.0
H902 H 0.90543 0.07669 0.4688 0.0
H903 H 0.92528 0.04035 0.48488 0.0
H904 H 0.31919 0.6664 0.138 0.0
H905 H 0.27457 0.64298 0.11421 0.0
H906 H 0.23061 0.60508 0.18494 0.0
H907 H 0.27481 0.62976 0.20921 0.0
H908 H 0.24323 0.58883 0.10598 0.0
H909 H 0.17245 0.64208 0.15985 0.0
H910 H 0.21198 0.6528 0.16319 0.0
H911 H 0.18864 0.62224 0.18023 0.0
C912 C 0.29997 0.65334 0.14864 0.0
C913 C 0.30055 0.65049 0.1757 0.0
C914 C 0.27447 0.63973 0.13491 0.0
C915 C 0.24886 0.62277 0.14779 0.0
C916 C 0.24976 0.61869 0.1746 0.0
H917 H 0.07472 0.52571 0.09376 0.0
H918 H 0.11983 0.5455 0.11809 0.0
C919 C 0.27525 0.63251 0.18844 0.0
C920 C 0.22134 0.60971 0.13302 0.0
H921 H 0.1486 0.60618 0.12977 0.0
C922 C 0.22258 0.59272 0.11118 0.0
C923 C 0.19432 0.61484 0.13963 0.0
C924 C 0.19173 0.6342 0.16184 0.0
C925 C 0.19761 0.58053 0.09604 0.0
C926 C 0.17066 0.58555 0.10278 0.0
C927 C 0.16929 0.60234 0.12465 0.0
C928 C 0.14353 0.57336 0.0875 0.0
C929 C 0.20005 0.56202 0.07314 0.0
C930 C 0.14173 0.58258 0.06219 0.0
C931 C 0.11578 0.57143 0.04819 0.0
C932 C 0.09115 0.55074 0.0592 0.0
C933 C 0.09318 0.54155 0.08456 0.0
C934 C 0.11898 0.55286 0.09857 0.0
H935 H 0.22063 0.55595 0.07332 0.0
H936 H 0.18078 0.54238 0.07284 0.0
H937 H 0.20014 0.57377 0.055 0.0
H938 H 0.1603 0.59863 0.05337 0.0
H939 H 0.11504 0.57904 0.02876 0.0
H940 H 0.23317 0.39313 0.70114 0.0
H941 H 0.27689 0.41966 0.67561 0.0
H942 H 0.22483 0.4061 0.60691 0.0
H943 H 0.1809 0.38007 0.63238 0.0
H944 H 0.29989 0.39569 0.63298 0.0
H945 H 0.27157 0.49193 0.60505 0.0
H946 H 0.25323 0.46949 0.63167 0.0
H947 H 0.24367 0.4586 0.59891 0.0
C948 C 0.23091 0.39635 0.68072 0.0
C949 C 0.20365 0.3845 0.66873 0.0
C950 C 0.2559 0.41135 0.66615 0.0
C951 C 0.25397 0.41498 0.63946 0.0
C952 C 0.22665 0.40386 0.62756 0.0
H953 H 0.40253 0.45326 0.52869 0.0
H954 H 0.35428 0.43248 0.55031 0.0
C955 C 0.20168 0.38879 0.64208 0.0
C956 C 0.28098 0.42851 0.62374 0.0
H957 H 0.31433 0.48518 0.58484 0.0
C958 C 0.3031 0.41526 0.62246 0.0
C959 C 0.285 0.45406 0.61015 0.0
C960 C 0.26225 0.46956 0.61159 0.0
C961 C 0.32922 0.42687 0.60784 0.0
C962 C 0.33308 0.45219 0.59393 0.0
C963 C 0.31104 0.46556 0.5953 0.0
C964 C 0.36072 0.46593 0.57915 0.0
C965 C 0.35278 0.41232 0.60786 0.0
C966 C 0.37973 0.49202 0.58773 0.0
C967 C 0.4072 0.50393 0.57548 0.0
C968 C 0.4161 0.48999 0.55431 0.0
C969 C 0.3964 0.46445 0.54501 0.0
C970 C 0.36891 0.4525 0.55738 0.0
H971 H 0.34878 0.39626 0.62345 0.0
H972 H 0.35302 0.40132 0.589 0.0
H973 H 0.37494 0.42811 0.61035 0.0
H974 H 0.37369 0.50273 0.60445 0.0
H975 H 0.4217 0.52378 0.58299 0.0
H976 H 0.73997 0.6837 0.86079 0.0
H977 H 0.78093 0.67 0.87813 0.0
H978 H 0.77764 0.71828 0.94775 0.0
H979 H 0.73676 0.73227 0.93047 0.0
H980 H 0.83754 0.71625 0.89729 0.0
H981 H 0.77789 0.63357 0.96871 0.0
H982 H 0.76003 0.64099 0.94048 0.0
H983 H 0.76812 0.66591 0.96689 0.0
C984 C 0.74776 0.69109 0.87993 0.0
C985 C 0.7353 0.70905 0.89426 0.0
C986 C 0.77112 0.68331 0.88975 0.0
C987 C 0.78213 0.69311 0.91418 0.0
C988 C 0.76923 0.71042 0.92891 0.0
H989 H 0.92308 0.65726 0.99797 0.0
H990 H 0.88171 0.6738 0.98619 0.0
C991 C 0.74595 0.71839 0.919 0.0
C992 C 0.80824 0.6865 0.92351 0.0
H993 H 0.82949 0.64369 0.96465 0.0
C994 C 0.83589 0.70048 0.91208 0.0
C995 C 0.80586 0.66615 0.94295 0.0
C996 C 0.77643 0.65059 0.95554 0.0
C997 C 0.8614 0.69446 0.91949 0.0
C998 C 0.85895 0.67334 0.93833 0.0
C999 C 0.8313 0.6598 0.95016 0.0
C1000 C 0.88458 0.66425 0.94535 0.0
C1001 C 0.89074 0.711 0.90725 0.0
C1002 C 0.89975 0.65323 0.92634 0.0
C1003 C 0.9234 0.64392 0.93298 0.0
C1004 C 0.93211 0.6451 0.95884 0.0
C1005 C 0.91679 0.656 0.9779 0.0
C1006 C 0.89322 0.66549 0.9712 0.0
H1007 H 0.89028 0.7318 0.89982 0.0
H1008 H 0.90886 0.71487 0.92124 0.0
H1009 H 0.8958 0.69867 0.8906 0.0
H1010 H 0.89295 0.65133 0.90639 0.0
H1011 H 0.93436 0.63506 0.91796 0.0
H1012 H 0.4259 0.73956 0.18902 0.0
H1013 H 0.44949 0.78609 0.16896 0.0
H1014 H 0.3642 0.79838 0.16267 0.0
H1015 H 0.3408 0.75267 0.18337 0.0
H1016 H 0.44101 0.80201 0.12041 0.0
H1017 H 0.41133 0.87461 0.19084 0.0
H1018 H 0.40768 0.83819 0.19851 0.0
H1019 H 0.37951 0.84654 0.18071 0.0
C1020 C 0.4123 0.75254 0.18398 0.0
C1021 C 0.38144 0.7423 0.18778 0.0
C1022 C 0.42578 0.77905 0.17231 0.0
C1023 C 0.40872 0.79602 0.16448 0.0
C1024 C 0.37801 0.78612 0.16895 0.0
H1025 H 0.4306 0.94427 0.06911 0.0
H1026 H 0.41273 0.90135 0.09558 0.0
C1027 C 0.36459 0.75975 0.18058 0.0
C1028 C 0.42249 0.82303 0.15 0.0
H1029 H 0.42674 0.89336 0.14838 0.0
C1030 C 0.43822 0.82205 0.12673 0.0
C1031 C 0.41881 0.84927 0.1581 0.0
C1032 C 0.40367 0.85233 0.18354 0.0
C1033 C 0.44945 0.84622 0.11101 0.0
C1034 C 0.44515 0.87224 0.11883 0.0
C1035 C 0.42985 0.87338 0.14227 0.0
C1036 C 0.45619 0.89846 0.10286 0.0
C1037 C 0.46503 0.84349 0.08572 0.0
C1038 C 0.48661 0.91137 0.09834 0.0
C1039 C 0.49692 0.93597 0.08328 0.0
C1040 C 0.47705 0.94829 0.07236 0.0
C1041 C 0.44657 0.93539 0.07708 0.0
C1042 C 0.43629 0.91085 0.09228 0.0
H1043 H 0.46081 0.82091 0.07979 0.0
H1044 H 0.45792 0.85481 0.07003 0.0
H1045 H 0.4892 0.85327 0.08785 0.0
H1046 H 0.50243 0.90249 0.1066 0.0
H1047 H 0.52054 0.94528 0.08017 0.0
H1048 H 0.11611 0.27042 0.71095 0.0
H1049 H 0.09347 0.22388 0.69079 0.0
H1050 H 0.09833 0.26396 0.61655 0.0
H1051 H 0.11951 0.31055 0.63672 0.0
H1052 H 0.04707 0.22184 0.62331 0.0
H1053 H 0.14127 0.184 0.64765 0.0
H1054 H 0.1232 0.1944 0.67528 0.0
H1055 H 0.14235 0.22058 0.65178 0.0
C1056 C 0.11179 0.26937 0.69044 0.0
C1057 C 0.11997 0.29416 0.67537 0.0
C1058 C 0.09925 0.24273 0.67888 0.0
C1059 C 0.09498 0.24042 0.65206 0.0
C1060 C 0.10175 0.26522 0.63724 0.0
H1061 H 0.07919 0.09592 0.55073 0.0
H1062 H 0.09555 0.14029 0.5757 0.0
C1063 C 0.11405 0.29182 0.64877 0.0
C1064 C 0.0842 0.21227 0.63911 0.0
H1065 H 0.10096 0.15084 0.62725 0.0
C1066 C 0.05879 0.20626 0.62422 0.0
C1067 C 0.09987 0.19222 0.63995 0.0
C1068 C 0.12834 0.19815 0.6543 0.0
C1069 C 0.04859 0.18078 0.6101 0.0
C1070 C 0.0638 0.16041 0.6115 0.0
C1071 C 0.08921 0.16639 0.6264 0.0
C1072 C 0.05414 0.13306 0.59711 0.0
C1073 C 0.0222 0.17638 0.59317 0.0
C1074 C 0.0257 0.11401 0.60128 0.0
C1075 C 0.01621 0.08884 0.58689 0.0
C1076 C 0.03519 0.08198 0.56835 0.0
C1077 C 0.06406 0.10059 0.56486 0.0
C1078 C 0.07342 0.12595 0.5791 0.0
H1079 H 0.01846 0.19684 0.58859 0.0
H1080 H 0.02497 0.16556 0.57471 0.0
H1081 H 1.00213 0.16288 0.60352 0.0
H1082 H 0.01075 0.11868 0.61559 0.0
H1083 H 0.99396 0.07477 0.59029 0.0
H1084 H 0.77585 0.33975 0.36423 0.0
H1085 H 0.7418 0.36107 0.38661 0.0
H1086 H 0.72671 0.29871 0.44698 0.0
H1087 H 0.76046 0.2769 0.42451 0.0
H1088 H 0.67735 0.31482 0.40121 0.0
H1089 H 0.73909 0.3877 0.47816 0.0
H1090 H 0.75738 0.38287 0.44809 0.0
H1091 H 0.74611 0.35448 0.47094 0.0
C1092 C 0.76576 0.33094 0.38255 0.0
C1093 C 0.7706 0.30651 0.39251 0.0
C1094 C 0.74646 0.34321 0.39533 0.0
C1095 C 0.73188 0.33142 0.41837 0.0
C1096 C 0.73805 0.3082 0.4293 0.0
H1097 H 0.5914 0.37792 0.50327 0.0
H1098 H 0.63224 0.35914 0.49188 0.0
C1099 C 0.75739 0.29586 0.4165 0.0
C1100 C 0.70725 0.34085 0.42873 0.0
H1101 H 0.68949 0.38585 0.47233 0.0
C1102 C 0.67988 0.33023 0.41685 0.0
C1103 C 0.71073 0.36063 0.44928 0.0
C1104 C 0.73986 0.37224 0.46252 0.0
C1105 C 0.65584 0.33929 0.42471 0.0
C1106 C 0.65957 0.36008 0.44456 0.0
C1107 C 0.68677 0.37008 0.457 0.0
C1108 C 0.63571 0.37232 0.45188 0.0
C1109 C 0.62666 0.32643 0.41171 0.0
C1110 C 0.62459 0.38641 0.4333 0.0
C1111 C 0.60127 0.39694 0.43967 0.0
C1112 C 0.58882 0.39391 0.46487 0.0
C1113 C 0.60057 0.38054 0.4837 0.0
C1114 C 0.62384 0.36982 0.47723 0.0
H1115 H 0.625 0.30534 0.40296 0.0
H1116 H 0.60782 0.32388 0.42562 0.0
H1117 H 0.62467 0.34063 0.39593 0.0
H1118 H 0.63396 0.38923 0.41379 0.0
H1119 H 0.59317 0.40774 0.42492 0.0
loop_
_geom_bond_atom_site_label_1
_geom_bond_atom_site_label_2
_geom_bond_distance
_geom_bond_site_symmetry_2
_ccdc_geom_bond_type
H0 C5 0.930 . S
H1 C8 0.930 . S
H2 C10 0.930 . S
H3 C4 1.016 . S
C4 H3 1.016 . S
C4 N11 1.286 . S
C5 H0 0.930 . S
C5 C6 1.397 . S
C5 C7 1.361 . S
C6 C5 1.397 . S
C6 C10 1.390 . S
C7 C5 1.361 . S
C7 C8 1.393 . S
C7 N11 1.413 . S
C8 H1 0.930 . S
C8 C7 1.393 . S
C8 C9 1.399 . S
C9 C8 1.399 . S
C9 C10 1.381 . S
C10 H2 0.930 . S
C10 C6 1.390 . S
C10 C9 1.381 . S
N11 C4 1.286 . S
N11 C7 1.413 . S
H12 C17 0.930 . S
H13 C20 0.930 . S
H14 C22 0.930 . S
H15 C16 1.016 . S
C16 H15 1.016 . S
C16 N23 1.286 . S
C17 H12 0.930 . S
C17 C18 1.397 . S
C17 C19 1.361 . S
C18 C17 1.397 . S
C18 C22 1.390 . S
C19 C17 1.361 . S
C19 C20 1.393 . S
C19 N23 1.413 . S
C20 H13 0.930 . S
C20 C19 1.393 . S
C20 C21 1.399 . S
C21 C20 1.399 . S
C21 C22 1.381 . S
C22 H14 0.930 . S
C22 C18 1.390 . S
C22 C21 1.381 . S
N23 C16 1.286 . S
N23 C19 1.413 . S
H24 C29 0.930 . S
H25 C32 0.930 . S
H26 C34 0.930 . S
H27 C28 1.016 . S
C28 H27 1.016 . S
C28 N35 1.286 . S
C29 H24 0.930 . S
C29 C30 1.397 . S
C29 C31 1.361 . S
C30 C29 1.397 . S
C30 C34 1.390 . S
C31 C29 1.361 . S
C31 C32 1.393 . S
C31 N35 1.413 . S
C32 H25 0.930 . S
C32 C31 1.393 . S
C32 C33 1.399 . S
C33 C32 1.399 . S
C33 C34 1.381 . S
C34 H26 0.930 . S
C34 C30 1.390 . S
C34 C33 1.381 . S
N35 C28 1.286 . S
N35 C31 1.413 . S
H36 C41 0.930 . S
H37 C44 0.930 . S
H38 C46 0.930 . S
H39 C40 1.016 . S
C40 H39 1.016 . S
C40 N47 1.286 . S
C41 H36 0.930 . S
C41 C42 1.397 . S
C41 C43 1.361 . S
C42 C41 1.397 . S
C42 C46 1.390 . S
C43 C41 1.361 . S
C43 C44 1.393 . S
C43 N47 1.413 . S
C44 H37 0.930 . S
C44 C43 1.393 . S
C44 C45 1.399 . S
C45 C44 1.399 . S
C45 C46 1.381 . S
C46 H38 0.930 . S
C46 C42 1.390 . S
C46 C45 1.381 . S
N47 C40 1.286 . S
N47 C43 1.413 . S
H48 C53 0.930 . S
H49 C56 0.930 . S
H50 C58 0.930 . S
H51 C52 1.016 . S
C52 H51 1.016 . S
C52 N59 1.286 . S
C53 H48 0.930 . S
C53 C54 1.397 . S
C53 C55 1.361 . S
C54 C53 1.397 . S
C54 C58 1.390 . S
C55 C53 1.361 . S
C55 C56 1.393 . S
C55 N59 1.413 . S
C56 H49 0.930 . S
C56 C55 1.393 . S
C56 C57 1.399 . S
C57 C56 1.399 . S
C57 C58 1.381 . S
C58 H50 0.930 . S
C58 C54 1.390 . S
C58 C57 1.381 . S
N59 C52 1.286 . S
N59 C55 1.413 . S
H60 C65 0.930 . S
H61 C68 0.930 . S
H62 C70 0.930 . S
H63 C64 1.016 . S
C64 H63 1.016 . S
C64 N71 1.286 . S
C65 H60 0.930 . S
C65 C66 1.397 . S
C65 C67 1.361 . S
C66 C65 1.397 . S
C66 C70 1.390 . S
C67 C65 1.361 . S
C67 C68 1.393 . S
C67 N71 1.413 . S
C68 H61 0.930 . S
C68 C67 1.393 . S
C68 C69 1.399 . S
C69 C68 1.399 . S
C69 C70 1.381 . S
C70 H62 0.930 . S
C70 C66 1.390 . S
C70 C69 1.381 . S
N71 C64 1.286 . S
N71 C67 1.413 . S
H72 C77 0.930 . S
H73 C80 0.930 . S
H74 C82 0.930 . S
H75 C76 1.016 . S
C76 H75 1.016 . S
C76 N83 1.286 . S
C77 H72 0.930 . S
C77 C78 1.397 . S
C77 C79 1.361 . S
C78 C77 1.397 . S
C78 C82 1.390 . S
C79 C77 1.361 . S
C79 C80 1.393 . S
C79 N83 1.413 . S
C80 H73 0.930 . S
C80 C79 1.393 . S
C80 C81 1.399 . S
C81 C80 1.399 . S
C81 C82 1.381 . S
C82 H74 0.930 . S
C82 C78 1.390 . S
C82 C81 1.381 . S
N83 C76 1.286 . S
N83 C79 1.413 . S
H84 C89 0.930 . S
H85 C92 0.930 . S
H86 C94 0.930 . S
H87 C88 1.016 . S
C88 H87 1.016 . S
C88 N95 1.286 . S
C89 H84 0.930 . S
C89 C90 1.397 . S
C89 C91 1.361 . S
C90 C89 1.397 . S
C90 C94 1.390 . S
C91 C89 1.361 . S
C91 C92 1.393 . S
C91 N95 1.413 . S
C92 H85 0.930 . S
C92 C91 1.393 . S
C92 C93 1.399 . S
C93 C92 1.399 . S
C93 C94 1.381 . S
C94 H86 0.930 . S
C94 C90 1.390 . S
C94 C93 1.381 . S
N95 C88 1.286 . S
N95 C91 1.413 . S
Dy96 O99 2.307 1_545 S
Dy96 O101 2.395 . S
Dy96 O102 2.379 . S
Dy96 O104 2.339 1_545 S
Dy96 O106 2.264 1_455 S
Dy96 O110 2.275 . S
Dy96 C118 2.738 . S
Dy97 O100 2.298 1_655 S
Dy97 O103 2.275 . S
Dy97 O105 2.307 1_565 S
Dy97 O107 2.395 . S
Dy97 O108 2.379 . S
Dy97 O111 2.339 1_565 S
Dy97 C127 2.738 . S
C98 O110 1.254 . S
C98 O111 1.257 1_455 S
O99 Dy96 2.307 1_565 S
O99 C109 1.266 . S
O100 Dy97 2.298 1_455 S
O100 C109 1.236 . S
O101 Dy96 2.395 . S
O101 C118 1.255 . S
O102 Dy96 2.379 . S
O102 C118 1.249 . S
O103 Dy97 2.275 . S
O103 C119 1.254 . S
O104 Dy96 2.339 1_565 S
O104 C119 1.257 1_455 S
O105 Dy97 2.307 1_545 S
O105 C120 1.266 . S
O106 Dy96 2.264 1_655 S
O106 C120 1.268 . S
O107 Dy97 2.395 . S
O107 C127 1.255 . S
O108 Dy97 2.379 . S
O108 C127 1.249 . S
C109 O99 1.266 . S
C109 O100 1.236 . S
O110 Dy96 2.275 . S
O110 C98 1.254 . S
O111 Dy97 2.339 1_545 S
O111 C98 1.257 1_655 S
C112 C115 1.344 . S
C112 C116 1.328 . S
C112 C118 1.516 . S
C113 C114 1.304 . S
C113 C117 1.323 . S
C114 C113 1.304 . S
C114 C115 1.371 . S
C114 H128 0.930 . S
C115 C112 1.344 . S
C115 C114 1.371 . S
C115 H129 0.931 . S
C116 C112 1.328 . S
C116 C117 1.433 . S
C116 H130 0.931 . S
C117 C113 1.323 . S
C117 C116 1.433 . S
C117 H131 0.933 . S
C118 Dy96 2.738 . S
C118 O101 1.255 . S
C118 O102 1.249 . S
C118 C112 1.516 . S
C119 O103 1.254 . S
C119 O104 1.257 1_655 S
C120 O105 1.266 . S
C120 O106 1.268 . S
C121 C124 1.344 . S
C121 C125 1.328 . S
C121 C127 1.516 . S
C122 C123 1.304 . S
C122 C126 1.323 . S
C123 C122 1.304 . S
C123 C124 1.371 . S
C123 H132 0.930 . S
C124 C121 1.344 . S
C124 C123 1.371 . S
C124 H133 0.931 . S
C125 C121 1.328 . S
C125 C126 1.433 . S
C125 H134 0.931 . S
C126 C122 1.323 . S
C126 C125 1.433 . S
C126 H135 0.933 . S
C127 Dy97 2.738 . S
C127 O107 1.255 . S
C127 O108 1.249 . S
C127 C121 1.516 . S
H128 C114 0.930 . S
H129 C115 0.931 . S
H130 C116 0.931 . S
H131 C117 0.933 . S
H132 C123 0.930 . S
H133 C124 0.931 . S
H134 C125 0.931 . S
H135 C126 0.933 . S
Dy136 O139 2.307 1_556 S
Dy136 O141 2.395 1_545 S
Dy136 O142 2.379 1_545 S
Dy136 O144 2.339 . S
Dy136 O146 2.298 1_545 S
Dy136 O150 2.275 1_546 S
Dy136 C158 2.738 1_545 S
Dy137 O140 2.298 . S
Dy137 O143 2.264 1_554 S
Dy137 O145 2.294 1_544 S
Dy137 O147 2.395 . S
Dy137 O148 2.379 . S
Dy137 O151 2.339 1_545 S
Dy137 C167 2.738 . S
C138 O150 1.254 . S
C138 O151 1.257 . S
O139 Dy136 2.307 1_554 S
O139 C149 1.266 . S
O140 Dy137 2.298 . S
O140 C149 1.236 . S
O141 Dy136 2.395 1_565 S
O141 C158 1.255 . S
O142 Dy136 2.379 1_565 S
O142 C158 1.249 . S
O143 Dy137 2.264 1_556 S
O143 C159 1.265 . S
O144 Dy136 2.339 . S
O144 C159 1.257 . S
O145 Dy137 2.294 1_566 S
O145 C160 1.282 . S
O146 Dy136 2.298 1_565 S
O146 C160 1.236 . S
O147 Dy137 2.395 . S
O147 C167 1.255 . S
O148 Dy137 2.379 . S
O148 C167 1.249 . S
C149 O139 1.266 . S
C149 O140 1.236 . S
O150 Dy136 2.275 1_564 S
O150 C138 1.254 . S
O151 Dy137 2.339 1_565 S
O151 C138 1.257 . S
C152 C155 1.344 . S
C152 C156 1.328 . S
C152 C158 1.516 . S
C153 C154 1.304 . S
C153 C157 1.323 . S
C154 C153 1.304 . S
C154 C155 1.371 . S
C154 H168 0.930 . S
C155 C152 1.344 . S
C155 C154 1.371 . S
C155 H169 0.931 . S
C156 C152 1.328 . S
C156 C157 1.433 . S
C156 H170 0.931 . S
C157 C153 1.323 . S
C157 C156 1.433 . S
C157 H171 0.933 . S
C158 Dy136 2.738 1_565 S
C158 O141 1.255 . S
C158 O142 1.249 . S
C158 C152 1.516 . S
C159 O143 1.265 . S
C159 O144 1.257 . S
C160 O145 1.282 . S
C160 O146 1.236 . S
C161 C164 1.344 . S
C161 C165 1.328 . S
C161 C167 1.516 . S
C162 C163 1.304 . S
C162 C166 1.323 . S
C163 C162 1.304 . S
C163 C164 1.371 . S
C163 H172 0.930 . S
C164 C161 1.344 . S
C164 C163 1.371 . S
C164 H173 0.931 . S
C165 C161 1.328 . S
C165 C166 1.433 . S
C165 H174 0.931 . S
C166 C162 1.323 . S
C166 C165 1.433 . S
C166 H175 0.933 . S
C167 Dy137 2.738 . S
C167 O147 1.255 . S
C167 O148 1.249 . S
C167 C161 1.516 . S
H168 C154 0.930 . S
H169 C155 0.931 . S
H170 C156 0.931 . S
H171 C157 0.933 . S
H172 C163 0.930 . S
H173 C164 0.931 . S
H174 C165 0.931 . S
H175 C166 0.933 . S
Dy176 O179 2.307 . S
Dy176 O181 2.395 . S
Dy176 O182 2.379 . S
Dy176 O184 2.339 . S
Dy176 O186 2.298 . S
Dy176 O190 2.275 . S
Dy176 C198 2.738 . S
Dy177 O180 2.298 . S
Dy177 O183 2.275 . S
Dy177 O185 2.307 . S
Dy177 O187 2.395 . S
Dy177 O188 2.379 . S
Dy177 O191 2.339 . S
Dy177 C207 2.738 . S
C178 O190 1.254 . S
C178 O191 1.257 . S
O179 Dy176 2.307 . S
O179 C189 1.266 . S
O180 Dy177 2.298 . S
O180 C189 1.236 . S
O181 Dy176 2.395 . S
O181 C198 1.255 . S
O182 Dy176 2.379 . S
O182 C198 1.249 . S
O183 Dy177 2.275 . S
O183 C199 1.254 . S
O184 Dy176 2.339 . S
O184 C199 1.257 . S
O185 Dy177 2.307 . S
O185 C200 1.266 . S
O186 Dy176 2.298 . S
O186 C200 1.236 . S
O187 Dy177 2.395 . S
O187 C207 1.255 . S
O188 Dy177 2.379 . S
O188 C207 1.249 . S
C189 O179 1.266 . S
C189 O180 1.236 . S
O190 Dy176 2.275 . S
O190 C178 1.254 . S
O191 Dy177 2.339 . S
O191 C178 1.257 . S
C192 C195 1.344 . S
C192 C196 1.328 . S
C192 C198 1.516 . S
C193 C194 1.304 . S
C193 C197 1.323 . S
C194 C193 1.304 . S
C194 C195 1.371 . S
C194 H208 0.930 . S
C195 C192 1.344 . S
C195 C194 1.371 . S
C195 H209 0.931 . S
C196 C192 1.328 . S
C196 C197 1.433 . S
C196 H210 0.931 . S
C197 C193 1.323 . S
C197 C196 1.433 . S
C197 H211 0.933 . S
C198 Dy176 2.738 . S
C198 O181 1.255 . S
C198 O182 1.249 . S
C198 C192 1.516 . S
C199 O183 1.254 . S
C199 O184 1.257 . S
C200 O185 1.266 . S
C200 O186 1.236 . S
C201 C204 1.344 . S
C201 C205 1.328 . S
C201 C207 1.516 . S
C202 C203 1.304 . S
C202 C206 1.323 . S
C203 C202 1.304 . S
C203 C204 1.371 . S
C203 H212 0.930 . S
C204 C201 1.344 . S
C204 C203 1.371 . S
C204 H213 0.931 . S
C205 C201 1.328 . S
C205 C206 1.433 . S
C205 H214 0.931 . S
C206 C202 1.323 . S
C206 C205 1.433 . S
C206 H215 0.933 . S
C207 Dy177 2.738 . S
C207 O187 1.255 . S
C207 O188 1.249 . S
C207 C201 1.516 . S
H208 C194 0.930 . S
H209 C195 0.931 . S
H210 C196 0.931 . S
H211 C197 0.933 . S
H212 C203 0.930 . S
H213 C204 0.931 . S
H214 C205 0.931 . S
H215 C206 0.933 . S
Dy216 O219 2.307 1_556 S
Dy216 O221 2.395 1_455 S
Dy216 O222 2.379 1_455 S
Dy216 O224 2.339 . S
Dy216 O226 2.298 1_455 S
Dy216 O230 2.275 1_456 S
Dy216 C238 2.738 1_455 S
Dy217 O220 2.298 . S
Dy217 O223 2.275 1_554 S
Dy217 O225 2.307 1_455 S
Dy217 O227 2.395 . S
Dy217 O228 2.379 . S
Dy217 O231 2.339 1_455 S
Dy217 C247 2.738 . S
C218 O230 1.254 . S
C218 O231 1.257 . S
O219 Dy216 2.307 1_554 S
O219 C229 1.266 . S
O220 Dy217 2.298 . S
O220 C229 1.236 . S
O221 Dy216 2.395 1_655 S
O221 C238 1.255 . S
O222 Dy216 2.379 1_655 S
O222 C238 1.249 . S
O223 Dy217 2.275 1_556 S
O223 C239 1.254 . S
O224 Dy216 2.339 . S
O224 C239 1.257 . S
O225 Dy217 2.307 1_655 S
O225 C240 1.266 1_554 S
O226 Dy216 2.298 1_655 S
O226 C240 1.236 . S
O227 Dy217 2.395 . S
O227 C247 1.255 . S
O228 Dy217 2.379 . S
O228 C247 1.249 . S
C229 O219 1.266 . S
C229 O220 1.236 . S
O230 Dy216 2.275 1_654 S
O230 C218 1.254 . S
O231 Dy217 2.339 1_655 S
O231 C218 1.257 . S
C232 C235 1.344 . S
C232 C236 1.328 . S
C232 C238 1.516 . S
C233 C234 1.304 . S
C233 C237 1.323 . S
C234 C233 1.304 . S
C234 C235 1.371 . S
C234 H248 0.930 . S
C235 C232 1.344 . S
C235 C234 1.371 . S
C235 H249 0.931 . S
C236 C232 1.328 . S
C236 C237 1.433 . S
C236 H250 0.931 . S
C237 C233 1.323 . S
C237 C236 1.433 . S
C237 H251 0.933 . S
C238 Dy216 2.738 1_655 S
C238 O221 1.255 . S
C238 O222 1.249 . S
C238 C232 1.516 . S
C239 O223 1.254 . S
C239 O224 1.257 . S
C240 O225 1.266 1_556 S
C240 O226 1.236 . S
C241 C244 1.344 . S
C241 C245 1.328 . S
C241 C247 1.516 . S
C242 C243 1.304 . S
C242 C246 1.323 . S
C243 C242 1.304 . S
C243 C244 1.371 . S
C243 H252 0.930 . S
C244 C241 1.344 . S
C244 C243 1.371 . S
C244 H253 0.931 . S
C245 C241 1.328 . S
C245 C246 1.433 . S
C245 H254 0.931 . S
C246 C242 1.323 . S
C246 C245 1.433 . S
C246 H255 0.933 . S
C247 Dy217 2.738 . S
C247 O227 1.255 . S
C247 O228 1.249 . S
C247 C241 1.516 . S
H248 C234 0.930 . S
H249 C235 0.931 . S
H250 C236 0.931 . S
H251 C237 0.933 . S
H252 C243 0.930 . S
H253 C244 0.931 . S
H254 C245 0.931 . S
H255 C246 0.933 . S
H256 C264 0.929 . S
H257 C266 0.930 . S
H258 C268 0.930 . S
H259 C271 0.929 . S
H260 C274 0.930 . S
H261 C276 0.960 . S
H262 C276 0.960 . S
H263 C276 0.960 . S
C264 H256 0.929 . S
C264 C265 1.377 . S
C264 C266 1.384 . S
C265 C264 1.377 . S
C265 C271 1.390 . S
C266 H257 0.930 . S
C266 C264 1.384 . S
C266 C267 1.372 . S
C267 C266 1.372 . S
C267 C268 1.400 . S
C267 C272 1.490 . S
C268 H258 0.930 . S
C268 C267 1.400 . S
C268 C271 1.386 . S
H269 C285 0.930 . S
H270 C286 0.931 . S
C271 H259 0.929 . S
C271 C265 1.390 . S
C271 C268 1.386 . S
C272 C267 1.490 . S
C272 C274 1.395 . S
C272 C275 1.403 . S
H273 C279 0.930 . S
C274 H260 0.930 . S
C274 C272 1.395 . S
C274 C277 1.403 . S
C275 C272 1.403 . S
C275 C276 1.524 . S
C275 C279 1.400 . S
C276 H261 0.960 . S
C276 H262 0.960 . S
C276 H263 0.960 . S
C276 C275 1.524 . S
C277 C274 1.403 . S
C277 C278 1.392 . S
C277 C281 1.495 . S
C278 C277 1.392 . S
C278 C279 1.385 . S
C278 C280 1.478 . S
C279 H273 0.930 . S
C279 C275 1.400 . S
C279 C278 1.385 . S
C280 C278 1.478 . S
C280 C282 1.381 . S
C280 C286 1.383 . S
C281 C277 1.495 . S
C281 H287 0.959 . S
C281 H288 0.961 . S
C281 H289 0.960 . S
C282 C280 1.381 . S
C282 C283 1.394 . S
C282 H290 0.930 . S
C283 C282 1.394 . S
C283 C284 1.383 . S
C283 H291 0.929 . S
C284 C283 1.383 . S
C284 C285 1.377 . S
C285 H269 0.930 . S
C285 C284 1.377 . S
C285 C286 1.379 . S
C286 H270 0.931 . S
C286 C280 1.383 . S
C286 C285 1.379 . S
H287 C281 0.959 . S
H288 C281 0.961 . S
H289 C281 0.960 . S
H290 C282 0.930 . S
H291 C283 0.929 . S
H292 C300 0.929 . S
H293 C302 0.930 . S
H294 C304 0.930 . S
H295 C307 0.929 . S
H296 C310 0.930 . S
H297 C312 0.960 . S
H298 C312 0.960 . S
H299 C312 0.960 . S
C300 H292 0.929 . S
C300 C301 1.377 . S
C300 C302 1.384 . S
C301 C300 1.377 . S
C301 C307 1.390 . S
C302 H293 0.930 . S
C302 C300 1.384 . S
C302 C303 1.372 . S
C303 C302 1.372 . S
C303 C304 1.400 . S
C303 C308 1.490 . S
C304 H294 0.930 . S
C304 C303 1.400 . S
C304 C307 1.386 . S
H305 C321 0.930 . S
H306 C322 0.931 . S
C307 H295 0.929 . S
C307 C301 1.390 . S
C307 C304 1.386 . S
C308 C303 1.490 . S
C308 C310 1.395 . S
C308 C311 1.403 . S
H309 C315 0.930 . S
C310 H296 0.930 . S
C310 C308 1.395 . S
C310 C313 1.403 . S
C311 C308 1.403 . S
C311 C312 1.524 . S
C311 C315 1.400 . S
C312 H297 0.960 . S
C312 H298 0.960 . S
C312 H299 0.960 . S
C312 C311 1.524 . S
C313 C310 1.403 . S
C313 C314 1.392 . S
C313 C317 1.495 . S
C314 C313 1.392 . S
C314 C315 1.385 . S
C314 C316 1.478 . S
C315 H309 0.930 . S
C315 C311 1.400 . S
C315 C314 1.385 . S
C316 C314 1.478 . S
C316 C318 1.381 . S
C316 C322 1.383 . S
C317 C313 1.495 . S
C317 H323 0.959 . S
C317 H324 0.961 . S
C317 H325 0.960 . S
C318 C316 1.381 . S
C318 C319 1.394 . S
C318 H326 0.930 . S
C319 C318 1.394 . S
C319 C320 1.383 . S
C319 H327 0.929 . S
C320 C319 1.383 . S
C320 C321 1.377 . S
C321 H305 0.930 . S
C321 C320 1.377 . S
C321 C322 1.379 . S
C322 H306 0.931 . S
C322 C316 1.383 . S
C322 C321 1.379 . S
H323 C317 0.959 . S
H324 C317 0.961 . S
H325 C317 0.960 . S
H326 C318 0.930 . S
H327 C319 0.929 . S
H328 C336 0.929 . S
H329 C338 0.930 . S
H330 C340 0.930 . S
H331 C343 0.929 . S
H332 C346 0.930 . S
H333 C348 0.960 . S
H334 C348 0.960 . S
H335 C348 0.960 . S
C336 H328 0.929 . S
C336 C337 1.377 . S
C336 C338 1.384 . S
C337 C336 1.377 . S
C337 C343 1.390 . S
C338 H329 0.930 . S
C338 C336 1.384 . S
C338 C339 1.372 . S
C339 C338 1.372 . S
C339 C340 1.400 . S
C339 C344 1.490 . S
C340 H330 0.930 . S
C340 C339 1.400 . S
C340 C343 1.386 . S
H341 C357 0.930 . S
H342 C358 0.931 . S
C343 H331 0.929 . S
C343 C337 1.390 . S
C343 C340 1.386 . S
C344 C339 1.490 . S
C344 C346 1.395 . S
C344 C347 1.403 . S
H345 C351 0.930 . S
C346 H332 0.930 . S
C346 C344 1.395 . S
C346 C349 1.403 . S
C347 C344 1.403 . S
C347 C348 1.524 . S
C347 C351 1.400 . S
C348 H333 0.960 . S
C348 H334 0.960 . S
C348 H335 0.960 . S
C348 C347 1.524 . S
C349 C346 1.403 . S
C349 C350 1.392 . S
C349 C353 1.495 . S
C350 C349 1.392 . S
C350 C351 1.385 . S
C350 C352 1.478 . S
C351 H345 0.930 . S
C351 C347 1.400 . S
C351 C350 1.385 . S
C352 C350 1.478 . S
C352 C354 1.381 . S
C352 C358 1.383 . S
C353 C349 1.495 . S
C353 H359 0.959 . S
C353 H360 0.961 . S
C353 H361 0.960 . S
C354 C352 1.381 . S
C354 C355 1.394 . S
C354 H362 0.930 . S
C355 C354 1.394 . S
C355 C356 1.383 . S
C355 H363 0.929 . S
C356 C355 1.383 . S
C356 C357 1.377 . S
C357 H341 0.930 . S
C357 C356 1.377 . S
C357 C358 1.379 . S
C358 H342 0.931 . S
C358 C352 1.383 . S
C358 C357 1.379 . S
H359 C353 0.959 . S
H360 C353 0.961 . S
H361 C353 0.960 . S
H362 C354 0.930 . S
H363 C355 0.929 . S
H364 C372 0.929 . S
H365 C374 0.930 . S
H366 C376 0.930 . S
H367 C379 0.929 . S
H368 C382 0.930 . S
H369 C384 0.960 . S
H370 C384 0.960 . S
H371 C384 0.960 . S
C372 H364 0.929 . S
C372 C373 1.377 . S
C372 C374 1.384 . S
C373 C372 1.377 . S
C373 C379 1.390 . S
C374 H365 0.930 . S
C374 C372 1.384 . S
C374 C375 1.372 . S
C375 C374 1.372 . S
C375 C376 1.400 . S
C375 C380 1.490 . S
C376 H366 0.930 . S
C376 C375 1.400 . S
C376 C379 1.386 . S
H377 C393 0.930 . S
H378 C394 0.931 . S
C379 H367 0.929 . S
C379 C373 1.390 . S
C379 C376 1.386 . S
C380 C375 1.490 . S
C380 C382 1.395 . S
C380 C383 1.403 . S
H381 C387 0.930 . S
C382 H368 0.930 . S
C382 C380 1.395 . S
C382 C385 1.403 . S
C383 C380 1.403 . S
C383 C384 1.524 . S
C383 C387 1.400 . S
C384 H369 0.960 . S
C384 H370 0.960 . S
C384 H371 0.960 . S
C384 C383 1.524 . S
C385 C382 1.403 . S
C385 C386 1.392 . S
C385 C389 1.495 . S
C386 C385 1.392 . S
C386 C387 1.385 . S
C386 C388 1.478 . S
C387 H381 0.930 . S
C387 C383 1.400 . S
C387 C386 1.385 . S
C388 C386 1.478 . S
C388 C390 1.381 . S
C388 C394 1.383 . S
C389 C385 1.495 . S
C389 H395 0.959 . S
C389 H396 0.961 . S
C389 H397 0.960 . S
C390 C388 1.381 . S
C390 C391 1.394 . S
C390 H398 0.930 . S
C391 C390 1.394 . S
C391 C392 1.383 . S
C391 H399 0.929 . S
C392 C391 1.383 . S
C392 C393 1.377 . S
C393 H377 0.930 . S
C393 C392 1.377 . S
C393 C394 1.379 . S
C394 H378 0.931 . S
C394 C388 1.383 . S
C394 C393 1.379 . S
H395 C389 0.959 . S
H396 C389 0.961 . S
H397 C389 0.960 . S
H398 C390 0.930 . S
H399 C391 0.929 . S
H400 C408 0.929 . S
H401 C410 0.930 . S
H402 C412 0.930 . S
H403 C415 0.929 . S
H404 C418 0.930 . S
H405 C420 0.960 . S
H406 C420 0.960 . S
H407 C420 0.960 . S
C408 H400 0.929 . S
C408 C409 1.377 . S
C408 C410 1.384 . S
C409 C408 1.377 . S
C409 C415 1.390 . S
C410 H401 0.930 . S
C410 C408 1.384 . S
C410 C411 1.372 . S
C411 C410 1.372 . S
C411 C412 1.400 . S
C411 C416 1.490 . S
C412 H402 0.930 . S
C412 C411 1.400 . S
C412 C415 1.386 . S
H413 C429 0.930 . S
H414 C430 0.931 . S
C415 H403 0.929 . S
C415 C409 1.390 . S
C415 C412 1.386 . S
C416 C411 1.490 . S
C416 C418 1.395 . S
C416 C419 1.403 . S
H417 C423 0.930 . S
C418 H404 0.930 . S
C418 C416 1.395 . S
C418 C421 1.403 . S
C419 C416 1.403 . S
C419 C420 1.524 . S
C419 C423 1.400 . S
C420 H405 0.960 . S
C420 H406 0.960 . S
C420 H407 0.960 . S
C420 C419 1.524 . S
C421 C418 1.403 . S
C421 C422 1.392 . S
C421 C425 1.495 . S
C422 C421 1.392 . S
C422 C423 1.385 . S
C422 C424 1.478 . S
C423 H417 0.930 . S
C423 C419 1.400 . S
C423 C422 1.385 . S
C424 C422 1.478 . S
C424 C426 1.381 . S
C424 C430 1.383 . S
C425 C421 1.495 . S
C425 H431 0.959 . S
C425 H432 0.961 . S
C425 H433 0.960 . S
C426 C424 1.381 . S
C426 C427 1.394 . S
C426 H434 0.930 . S
C427 C426 1.394 . S
C427 C428 1.383 . S
C427 H435 0.929 . S
C428 C427 1.383 . S
C428 C429 1.377 . S
C429 H413 0.930 . S
C429 C428 1.377 . S
C429 C430 1.379 . S
C430 H414 0.931 . S
C430 C424 1.383 . S
C430 C429 1.379 . S
H431 C425 0.959 . S
H432 C425 0.961 . S
H433 C425 0.960 . S
H434 C426 0.930 . S
H435 C427 0.929 . S
H436 C444 0.929 . S
H437 C446 0.930 . S
H438 C448 0.930 . S
H439 C451 0.929 . S
H440 C454 0.930 . S
H441 C456 0.960 . S
H442 C456 0.960 . S
H443 C456 0.960 . S
C444 H436 0.929 . S
C444 C445 1.377 . S
C444 C446 1.384 . S
C445 C444 1.377 . S
C445 C451 1.390 . S
C446 H437 0.930 . S
C446 C444 1.384 . S
C446 C447 1.372 . S
C447 C446 1.372 . S
C447 C448 1.400 . S
C447 C452 1.490 . S
C448 H438 0.930 . S
C448 C447 1.400 . S
C448 C451 1.386 . S
H449 C465 0.930 . S
H450 C466 0.931 . S
C451 H439 0.929 . S
C451 C445 1.390 . S
C451 C448 1.386 . S
C452 C447 1.490 . S
C452 C454 1.395 . S
C452 C455 1.403 . S
H453 C459 0.930 . S
C454 H440 0.930 . S
C454 C452 1.395 . S
C454 C457 1.403 . S
C455 C452 1.403 . S
C455 C456 1.524 . S
C455 C459 1.400 . S
C456 H441 0.960 . S
C456 H442 0.960 . S
C456 H443 0.960 . S
C456 C455 1.524 . S
C457 C454 1.403 . S
C457 C458 1.392 . S
C457 C461 1.495 . S
C458 C457 1.392 . S
C458 C459 1.385 . S
C458 C460 1.478 . S
C459 H453 0.930 . S
C459 C455 1.400 . S
C459 C458 1.385 . S
C460 C458 1.478 . S
C460 C462 1.381 . S
C460 C466 1.383 . S
C461 C457 1.495 . S
C461 H467 0.959 . S
C461 H468 0.961 . S
C461 H469 0.960 . S
C462 C460 1.381 . S
C462 C463 1.394 . S
C462 H470 0.930 . S
C463 C462 1.394 . S
C463 C464 1.383 . S
C463 H471 0.929 . S
C464 C463 1.383 . S
C464 C465 1.377 . S
C465 H449 0.930 . S
C465 C464 1.377 . S
C465 C466 1.379 . S
C466 H450 0.931 . S
C466 C460 1.383 . S
C466 C465 1.379 . S
H467 C461 0.959 . S
H468 C461 0.961 . S
H469 C461 0.960 . S
H470 C462 0.930 . S
H471 C463 0.929 . S
H472 C480 0.929 . S
H473 C482 0.930 . S
H474 C484 0.930 . S
H475 C487 0.929 . S
H476 C490 0.930 . S
H477 C492 0.960 . S
H478 C492 0.960 . S
H479 C492 0.960 . S
C480 H472 0.929 . S
C480 C481 1.377 . S
C480 C482 1.384 . S
C481 C480 1.377 . S
C481 C487 1.390 . S
C482 H473 0.930 . S
C482 C480 1.384 . S
C482 C483 1.372 . S
C483 C482 1.372 . S
C483 C484 1.400 . S
C483 C488 1.490 . S
C484 H474 0.930 . S
C484 C483 1.400 . S
C484 C487 1.386 . S
H485 C501 0.930 1_554 S
H486 C502 0.931 . S
C487 H475 0.929 . S
C487 C481 1.390 . S
C487 C484 1.386 . S
C488 C483 1.490 . S
C488 C490 1.395 . S
C488 C491 1.403 . S
H489 C495 0.930 . S
C490 H476 0.930 . S
C490 C488 1.395 . S
C490 C493 1.403 . S
C491 C488 1.403 . S
C491 C492 1.524 . S
C491 C495 1.400 . S
C492 H477 0.960 . S
C492 H478 0.960 . S
C492 H479 0.960 . S
C492 C491 1.524 . S
C493 C490 1.403 . S
C493 C494 1.392 . S
C493 C497 1.495 . S
C494 C493 1.392 . S
C494 C495 1.385 . S
C494 C496 1.478 . S
C495 H489 0.930 . S
C495 C491 1.400 . S
C495 C494 1.385 . S
C496 C494 1.478 . S
C496 C498 1.381 . S
C496 C502 1.383 . S
C497 C493 1.495 . S
C497 H503 0.959 . S
C497 H504 0.961 . S
C497 H505 0.960 . S
C498 C496 1.381 . S
C498 C499 1.394 . S
C498 H506 0.930 . S
C499 C498 1.394 . S
C499 C500 1.383 . S
C499 H507 0.929 . S
C500 C499 1.383 . S
C500 C501 1.377 . S
C501 H485 0.930 1_556 S
C501 C500 1.377 . S
C501 C502 1.379 . S
C502 H486 0.931 . S
C502 C496 1.383 . S
C502 C501 1.379 . S
H503 C497 0.959 . S
H504 C497 0.961 . S
H505 C497 0.960 . S
H506 C498 0.930 . S
H507 C499 0.929 . S
H508 C516 0.929 . S
H509 C518 0.930 . S
H510 C520 0.930 . S
H511 C523 0.929 . S
H512 C526 0.930 . S
H513 C528 0.960 . S
H514 C528 0.960 . S
H515 C528 0.960 . S
C516 H508 0.929 . S
C516 C517 1.377 . S
C516 C518 1.384 . S
C517 C516 1.377 . S
C517 C523 1.390 . S
C518 H509 0.930 . S
C518 C516 1.384 . S
C518 C519 1.372 . S
C519 C518 1.372 . S
C519 C520 1.400 . S
C519 C524 1.490 . S
C520 H510 0.930 . S
C520 C519 1.400 . S
C520 C523 1.386 . S
H521 C537 0.930 . S
H522 C538 0.931 . S
C523 H511 0.929 . S
C523 C517 1.390 . S
C523 C520 1.386 . S
C524 C519 1.490 . S
C524 C526 1.395 . S
C524 C527 1.403 . S
H525 C531 0.930 . S
C526 H512 0.930 . S
C526 C524 1.395 . S
C526 C529 1.403 . S
C527 C524 1.403 . S
C527 C528 1.524 . S
C527 C531 1.400 . S
C528 H513 0.960 . S
C528 H514 0.960 . S
C528 H515 0.960 . S
C528 C527 1.524 . S
C529 C526 1.403 . S
C529 C530 1.392 . S
C529 C533 1.495 . S
C530 C529 1.392 . S
C530 C531 1.385 . S
C530 C532 1.478 . S
C531 H525 0.930 . S
C531 C527 1.400 . S
C531 C530 1.385 . S
C532 C530 1.478 . S
C532 C534 1.381 . S
C532 C538 1.383 . S
C533 C529 1.495 . S
C533 H539 0.959 . S
C533 H540 0.961 . S
C533 H541 0.960 . S
C534 C532 1.381 . S
C534 C535 1.394 . S
C534 H542 0.930 . S
C535 C534 1.394 . S
C535 C536 1.383 . S
C535 H543 0.929 . S
C536 C535 1.383 . S
C536 C537 1.377 . S
C537 H521 0.930 . S
C537 C536 1.377 . S
C537 C538 1.379 . S
C538 H522 0.931 . S
C538 C532 1.383 . S
C538 C537 1.379 . S
H539 C533 0.959 . S
H540 C533 0.961 . S
H541 C533 0.960 . S
H542 C534 0.930 . S
H543 C535 0.929 . S
H544 C552 0.929 . S
H545 C554 0.930 . S
H546 C556 0.930 . S
H547 C559 0.929 . S
H548 C562 0.930 . S
H549 C564 0.960 . S
H550 C564 0.960 . S
H551 C564 0.960 . S
C552 H544 0.929 . S
C552 C553 1.377 . S
C552 C554 1.384 . S
C553 C552 1.377 . S
C553 C559 1.390 . S
C554 H545 0.930 . S
C554 C552 1.384 . S
C554 C555 1.372 . S
C555 C554 1.372 . S
C555 C556 1.400 . S
C555 C560 1.490 . S
C556 H546 0.930 . S
C556 C555 1.400 . S
C556 C559 1.386 . S
H557 C573 0.930 . S
H558 C574 0.931 . S
C559 H547 0.929 . S
C559 C553 1.390 . S
C559 C556 1.386 . S
C560 C555 1.490 . S
C560 C562 1.395 . S
C560 C563 1.403 . S
H561 C567 0.930 . S
C562 H548 0.930 . S
C562 C560 1.395 . S
C562 C565 1.403 . S
C563 C560 1.403 . S
C563 C564 1.524 . S
C563 C567 1.400 . S
C564 H549 0.960 . S
C564 H550 0.960 . S
C564 H551 0.960 . S
C564 C563 1.524 . S
C565 C562 1.403 . S
C565 C566 1.392 . S
C565 C569 1.495 . S
C566 C565 1.392 . S
C566 C567 1.385 . S
C566 C568 1.478 . S
C567 H561 0.930 . S
C567 C563 1.400 . S
C567 C566 1.385 . S
C568 C566 1.478 . S
C568 C570 1.381 . S
C568 C574 1.383 . S
C569 C565 1.495 . S
C569 H575 0.959 . S
C569 H576 0.961 . S
C569 H577 0.960 . S
C570 C568 1.381 . S
C570 C571 1.394 . S
C570 H578 0.930 . S
C571 C570 1.394 . S
C571 C572 1.383 . S
C571 H579 0.929 . S
C572 C571 1.383 . S
C572 C573 1.377 . S
C573 H557 0.930 . S
C573 C572 1.377 . S
C573 C574 1.379 . S
C574 H558 0.931 . S
C574 C568 1.383 . S
C574 C573 1.379 . S
H575 C569 0.959 . S
H576 C569 0.961 . S
H577 C569 0.960 . S
H578 C570 0.930 . S
H579 C571 0.929 . S
H580 C588 0.929 . S
H581 C590 0.930 . S
H582 C592 0.930 . S
H583 C595 0.929 . S
H584 C598 0.930 . S
H585 C600 0.960 . S
H586 C600 0.960 . S
H587 C600 0.960 . S
C588 H580 0.929 . S
C588 C589 1.377 . S
C588 C590 1.384 . S
C589 C588 1.377 . S
C589 C595 1.390 . S
C590 H581 0.930 . S
C590 C588 1.384 . S
C590 C591 1.372 . S
C591 C590 1.372 . S
C591 C592 1.400 . S
C591 C596 1.490 . S
C592 H582 0.930 . S
C592 C591 1.400 . S
C592 C595 1.386 . S
H593 C609 0.930 . S
H594 C610 0.931 . S
C595 H583 0.929 . S
C595 C589 1.390 . S
C595 C592 1.386 . S
C596 C591 1.490 . S
C596 C598 1.395 . S
C596 C599 1.403 . S
H597 C603 0.930 . S
C598 H584 0.930 . S
C598 C596 1.395 . S
C598 C601 1.403 . S
C599 C596 1.403 . S
C599 C600 1.524 . S
C599 C603 1.400 . S
C600 H585 0.960 . S
C600 H586 0.960 . S
C600 H587 0.960 . S
C600 C599 1.524 . S
C601 C598 1.403 . S
C601 C602 1.392 . S
C601 C605 1.495 . S
C602 C601 1.392 . S
C602 C603 1.385 . S
C602 C604 1.478 . S
C603 H597 0.930 . S
C603 C599 1.400 . S
C603 C602 1.385 . S
C604 C602 1.478 . S
C604 C606 1.381 . S
C604 C610 1.383 . S
C605 C601 1.495 . S
C605 H611 0.959 . S
C605 H612 0.961 . S
C605 H613 0.960 . S
C606 C604 1.381 . S
C606 C607 1.394 . S
C606 H614 0.930 . S
C607 C606 1.394 . S
C607 C608 1.383 . S
C607 H615 0.929 . S
C608 C607 1.383 . S
C608 C609 1.377 . S
C609 H593 0.930 . S
C609 C608 1.377 . S
C609 C610 1.379 . S
C610 H594 0.931 . S
C610 C604 1.383 . S
C610 C609 1.379 . S
H611 C605 0.959 . S
H612 C605 0.961 . S
H613 C605 0.960 . S
H614 C606 0.930 . S
H615 C607 0.929 . S
H616 C624 0.929 . S
H617 C626 0.930 . S
H618 C628 0.930 . S
H619 C631 0.929 . S
H620 C634 0.930 . S
H621 C636 0.960 . S
H622 C636 0.960 . S
H623 C636 0.960 . S
C624 H616 0.929 . S
C624 C625 1.377 . S
C624 C626 1.384 . S
C625 C624 1.377 . S
C625 C631 1.390 . S
C626 H617 0.930 . S
C626 C624 1.384 . S
C626 C627 1.372 . S
C627 C626 1.372 . S
C627 C628 1.400 . S
C627 C632 1.490 . S
C628 H618 0.930 . S
C628 C627 1.400 . S
C628 C631 1.386 . S
H629 C645 0.930 . S
H630 C646 0.931 . S
C631 H619 0.929 . S
C631 C625 1.390 . S
C631 C628 1.386 . S
C632 C627 1.490 . S
C632 C634 1.395 . S
C632 C635 1.403 . S
H633 C639 0.930 . S
C634 H620 0.930 . S
C634 C632 1.395 . S
C634 C637 1.403 . S
C635 C632 1.403 . S
C635 C636 1.524 . S
C635 C639 1.400 . S
C636 H621 0.960 . S
C636 H622 0.960 . S
C636 H623 0.960 . S
C636 C635 1.524 . S
C637 C634 1.403 . S
C637 C638 1.392 . S
C637 C641 1.495 . S
C638 C637 1.392 . S
C638 C639 1.385 . S
C638 C640 1.478 . S
C639 H633 0.930 . S
C639 C635 1.400 . S
C639 C638 1.385 . S
C640 C638 1.478 . S
C640 C642 1.381 . S
C640 C646 1.383 . S
C641 C637 1.495 . S
C641 H647 0.959 . S
C641 H648 0.961 . S
C641 H649 0.960 . S
C642 C640 1.381 . S
C642 C643 1.394 . S
C642 H650 0.930 . S
C643 C642 1.394 . S
C643 C644 1.383 . S
C643 H651 0.929 . S
C644 C643 1.383 . S
C644 C645 1.377 . S
C645 H629 0.930 . S
C645 C644 1.377 . S
C645 C646 1.379 . S
C646 H630 0.931 . S
C646 C640 1.383 . S
C646 C645 1.379 . S
H647 C641 0.959 . S
H648 C641 0.961 . S
H649 C641 0.960 . S
H650 C642 0.930 . S
H651 C643 0.929 . S
H652 C660 0.929 . S
H653 C662 0.930 . S
H654 C664 0.930 . S
H655 C667 0.929 . S
H656 C670 0.930 . S
H657 C672 0.960 . S
H658 C672 0.960 . S
H659 C672 0.960 . S
C660 H652 0.929 . S
C660 C661 1.377 . S
C660 C662 1.384 . S
C661 C660 1.377 . S
C661 C667 1.390 . S
C662 H653 0.930 . S
C662 C660 1.384 . S
C662 C663 1.372 . S
C663 C662 1.372 . S
C663 C664 1.400 . S
C663 C668 1.490 . S
C664 H654 0.930 . S
C664 C663 1.400 . S
C664 C667 1.386 . S
H665 C681 0.930 . S
H666 C682 0.931 . S
C667 H655 0.929 . S
C667 C661 1.390 . S
C667 C664 1.386 . S
C668 C663 1.490 . S
C668 C670 1.395 . S
C668 C671 1.403 . S
H669 C675 0.930 . S
C670 H656 0.930 . S
C670 C668 1.395 . S
C670 C673 1.403 . S
C671 C668 1.403 . S
C671 C672 1.524 . S
C671 C675 1.400 . S
C672 H657 0.960 . S
C672 H658 0.960 . S
C672 H659 0.960 . S
C672 C671 1.524 . S
C673 C670 1.403 . S
C673 C674 1.392 . S
C673 C677 1.495 . S
C674 C673 1.392 . S
C674 C675 1.385 . S
C674 C676 1.478 . S
C675 H669 0.930 . S
C675 C671 1.400 . S
C675 C674 1.385 . S
C676 C674 1.478 . S
C676 C678 1.381 . S
C676 C682 1.383 . S
C677 C673 1.495 . S
C677 H683 0.959 . S
C677 H684 0.961 . S
C677 H685 0.960 . S
C678 C676 1.381 . S
C678 C679 1.394 . S
C678 H686 0.930 . S
C679 C678 1.394 . S
C679 C680 1.383 . S
C679 H687 0.929 . S
C680 C679 1.383 . S
C680 C681 1.377 . S
C681 H665 0.930 . S
C681 C680 1.377 . S
C681 C682 1.379 . S
C682 H666 0.931 . S
C682 C676 1.383 . S
C682 C681 1.379 . S
H683 C677 0.959 . S
H684 C677 0.961 . S
H685 C677 0.960 . S
H686 C678 0.930 . S
H687 C679 0.929 . S
H688 C696 0.929 . S
H689 C698 0.930 . S
H690 C700 0.930 . S
H691 C703 0.929 . S
H692 C706 0.930 . S
H693 C708 0.960 . S
H694 C708 0.960 . S
H695 C708 0.960 . S
C696 H688 0.929 . S
C696 C697 1.377 . S
C696 C698 1.384 . S
C697 C696 1.377 . S
C697 C703 1.390 . S
C698 H689 0.930 . S
C698 C696 1.384 . S
C698 C699 1.372 . S
C699 C698 1.372 . S
C699 C700 1.400 . S
C699 C704 1.490 . S
C700 H690 0.930 . S
C700 C699 1.400 . S
C700 C703 1.386 . S
H701 C717 0.930 . S
H702 C718 0.931 . S
C703 H691 0.929 . S
C703 C697 1.390 . S
C703 C700 1.386 . S
C704 C699 1.490 . S
C704 C706 1.395 . S
C704 C707 1.403 . S
H705 C711 0.930 . S
C706 H692 0.930 . S
C706 C704 1.395 . S
C706 C709 1.403 . S
C707 C704 1.403 . S
C707 C708 1.524 . S
C707 C711 1.400 . S
C708 H693 0.960 . S
C708 H694 0.960 . S
C708 H695 0.960 . S
C708 C707 1.524 . S
C709 C706 1.403 . S
C709 C710 1.392 . S
C709 C713 1.495 . S
C710 C709 1.392 . S
C710 C711 1.385 . S
C710 C712 1.478 . S
C711 H705 0.930 . S
C711 C707 1.400 . S
C711 C710 1.385 . S
C712 C710 1.478 . S
C712 C714 1.381 . S
C712 C718 1.383 . S
C713 C709 1.495 . S
C713 H719 0.959 . S
C713 H720 0.961 . S
C713 H721 0.960 . S
C714 C712 1.381 . S
C714 C715 1.394 . S
C714 H722 0.930 . S
C715 C714 1.394 . S
C715 C716 1.383 . S
C715 H723 0.929 . S
C716 C715 1.383 . S
C716 C717 1.377 . S
C717 H701 0.930 . S
C717 C716 1.377 . S
C717 C718 1.379 . S
C718 H702 0.931 . S
C718 C712 1.383 . S
C718 C717 1.379 . S
H719 C713 0.959 . S
H720 C713 0.961 . S
H721 C713 0.960 . S
H722 C714 0.930 . S
H723 C715 0.929 . S
H724 C732 0.929 . S
H725 C734 0.930 . S
H726 C736 0.930 . S
H727 C739 0.929 . S
H728 C742 0.930 . S
H729 C744 0.960 . S
H730 C744 0.960 . S
H731 C744 0.960 . S
C732 H724 0.929 . S
C732 C733 1.377 . S
C732 C734 1.384 . S
C733 C732 1.377 . S
C733 C739 1.390 . S
C734 H725 0.930 . S
C734 C732 1.384 . S
C734 C735 1.372 . S
C735 C734 1.372 . S
C735 C736 1.400 . S
C735 C740 1.490 . S
C736 H726 0.930 . S
C736 C735 1.400 . S
C736 C739 1.386 . S
H737 C753 0.930 . S
H738 C754 0.931 . S
C739 H727 0.929 . S
C739 C733 1.390 . S
C739 C736 1.386 . S
C740 C735 1.490 . S
C740 C742 1.395 . S
C740 C743 1.403 . S
H741 C747 0.930 . S
C742 H728 0.930 . S
C742 C740 1.395 . S
C742 C745 1.403 . S
C743 C740 1.403 . S
C743 C744 1.524 . S
C743 C747 1.400 . S
C744 H729 0.960 . S
C744 H730 0.960 . S
C744 H731 0.960 . S
C744 C743 1.524 . S
C745 C742 1.403 . S
C745 C746 1.392 . S
C745 C749 1.495 . S
C746 C745 1.392 . S
C746 C747 1.385 . S
C746 C748 1.478 . S
C747 H741 0.930 . S
C747 C743 1.400 . S
C747 C746 1.385 . S
C748 C746 1.478 . S
C748 C750 1.381 . S
C748 C754 1.383 . S
C749 C745 1.495 . S
C749 H755 0.959 . S
C749 H756 0.961 . S
C749 H757 0.960 . S
C750 C748 1.381 . S
C750 C751 1.394 . S
C750 H758 0.930 . S
C751 C750 1.394 . S
C751 C752 1.383 . S
C751 H759 0.929 . S
C752 C751 1.383 . S
C752 C753 1.377 . S
C753 H737 0.930 . S
C753 C752 1.377 . S
C753 C754 1.379 . S
C754 H738 0.931 . S
C754 C748 1.383 . S
C754 C753 1.379 . S
H755 C749 0.959 . S
H756 C749 0.961 . S
H757 C749 0.960 . S
H758 C750 0.930 . S
H759 C751 0.929 . S
H760 C768 0.929 . S
H761 C770 0.930 . S
H762 C772 0.930 . S
H763 C775 0.929 . S
H764 C778 0.930 . S
H765 C780 0.960 . S
H766 C780 0.960 . S
H767 C780 0.960 . S
C768 H760 0.929 . S
C768 C769 1.377 . S
C768 C770 1.384 . S
C769 C768 1.377 . S
C769 C775 1.390 . S
C770 H761 0.930 . S
C770 C768 1.384 . S
C770 C771 1.372 . S
C771 C770 1.372 . S
C771 C772 1.400 . S
C771 C776 1.490 . S
C772 H762 0.930 . S
C772 C771 1.400 . S
C772 C775 1.386 . S
H773 C789 0.930 . S
H774 C790 0.931 . S
C775 H763 0.929 . S
C775 C769 1.390 . S
C775 C772 1.386 . S
C776 C771 1.490 . S
C776 C778 1.395 . S
C776 C779 1.403 . S
H777 C783 0.930 . S
C778 H764 0.930 . S
C778 C776 1.395 . S
C778 C781 1.403 . S
C779 C776 1.403 . S
C779 C780 1.524 . S
C779 C783 1.400 . S
C780 H765 0.960 . S
C780 H766 0.960 . S
C780 H767 0.960 . S
C780 C779 1.524 . S
C781 C778 1.403 . S
C781 C782 1.392 . S
C781 C785 1.495 . S
C782 C781 1.392 . S
C782 C783 1.385 . S
C782 C784 1.478 . S
C783 H777 0.930 . S
C783 C779 1.400 . S
C783 C782 1.385 . S
C784 C782 1.478 . S
C784 C786 1.381 . S
C784 C790 1.383 . S
C785 C781 1.495 . S
C785 H791 0.959 . S
C785 H792 0.961 . S
C785 H793 0.960 . S
C786 C784 1.381 . S
C786 C787 1.394 . S
C786 H794 0.930 . S
C787 C786 1.394 . S
C787 C788 1.383 . S
C787 H795 0.929 . S
C788 C787 1.383 . S
C788 C789 1.377 . S
C789 H773 0.930 . S
C789 C788 1.377 . S
C789 C790 1.379 . S
C790 H774 0.931 . S
C790 C784 1.383 . S
C790 C789 1.379 . S
H791 C785 0.959 . S
H792 C785 0.961 . S
H793 C785 0.960 . S
H794 C786 0.930 . S
H795 C787 0.929 . S
H796 C804 0.929 . S
H797 C806 0.930 . S
H798 C808 0.930 . S
H799 C811 0.929 . S
H800 C814 0.930 . S
H801 C816 0.960 . S
H802 C816 0.960 . S
H803 C816 0.960 . S
C804 H796 0.929 . S
C804 C805 1.377 . S
C804 C806 1.384 . S
C805 C804 1.377 . S
C805 C811 1.390 . S
C806 H797 0.930 . S
C806 C804 1.384 . S
C806 C807 1.372 . S
C807 C806 1.372 . S
C807 C808 1.400 . S
C807 C812 1.490 . S
C808 H798 0.930 . S
C808 C807 1.400 . S
C808 C811 1.386 . S
H809 C825 0.930 . S
H810 C826 0.931 . S
C811 H799 0.929 . S
C811 C805 1.390 . S
C811 C808 1.386 . S
C812 C807 1.490 . S
C812 C814 1.395 . S
C812 C815 1.403 . S
H813 C819 0.930 . S
C814 H800 0.930 . S
C814 C812 1.395 . S
C814 C817 1.403 . S
C815 C812 1.403 . S
C815 C816 1.524 . S
C815 C819 1.400 . S
C816 H801 0.960 . S
C816 H802 0.960 . S
C816 H803 0.960 . S
C816 C815 1.524 . S
C817 C814 1.403 . S
C817 C818 1.392 . S
C817 C821 1.495 . S
C818 C817 1.392 . S
C818 C819 1.385 . S
C818 C820 1.478 . S
C819 H813 0.930 . S
C819 C815 1.400 . S
C819 C818 1.385 . S
C820 C818 1.478 . S
C820 C822 1.381 . S
C820 C826 1.383 . S
C821 C817 1.495 . S
C821 H827 0.959 . S
C821 H828 0.961 . S
C821 H829 0.960 . S
C822 C820 1.381 . S
C822 C823 1.394 . S
C822 H830 0.930 . S
C823 C822 1.394 . S
C823 C824 1.383 . S
C823 H831 0.929 . S
C824 C823 1.383 . S
C824 C825 1.377 . S
C825 H809 0.930 . S
C825 C824 1.377 . S
C825 C826 1.379 . S
C826 H810 0.931 . S
C826 C820 1.383 . S
C826 C825 1.379 . S
H827 C821 0.959 . S
H828 C821 0.961 . S
H829 C821 0.960 . S
H830 C822 0.930 . S
H831 C823 0.929 . S
H832 C840 0.929 . S
H833 C842 0.930 . S
H834 C844 0.930 . S
H835 C847 0.929 . S
H836 C850 0.930 . S
H837 C852 0.960 . S
H838 C852 0.960 . S
H839 C852 0.960 . S
C840 H832 0.929 . S
C840 C841 1.377 . S
C840 C842 1.384 . S
C841 C840 1.377 . S
C841 C847 1.390 . S
C842 H833 0.930 . S
C842 C840 1.384 . S
C842 C843 1.372 . S
C843 C842 1.372 . S
C843 C844 1.400 . S
C843 C848 1.490 . S
C844 H834 0.930 . S
C844 C843 1.400 . S
C844 C847 1.386 . S
H845 C861 0.930 . S
H846 C862 0.931 . S
C847 H835 0.929 . S
C847 C841 1.390 . S
C847 C844 1.386 . S
C848 C843 1.490 . S
C848 C850 1.395 . S
C848 C851 1.403 . S
H849 C855 0.930 . S
C850 H836 0.930 . S
C850 C848 1.395 . S
C850 C853 1.403 . S
C851 C848 1.403 . S
C851 C852 1.524 . S
C851 C855 1.400 . S
C852 H837 0.960 . S
C852 H838 0.960 . S
C852 H839 0.960 . S
C852 C851 1.524 . S
C853 C850 1.403 . S
C853 C854 1.392 . S
C853 C857 1.495 . S
C854 C853 1.392 . S
C854 C855 1.385 . S
C854 C856 1.478 . S
C855 H849 0.930 . S
C855 C851 1.400 . S
C855 C854 1.385 . S
C856 C854 1.478 . S
C856 C858 1.381 . S
C856 C862 1.383 . S
C857 C853 1.495 . S
C857 H863 0.959 . S
C857 H864 0.961 . S
C857 H865 0.960 . S
C858 C856 1.381 . S
C858 C859 1.394 . S
C858 H866 0.930 . S
C859 C858 1.394 . S
C859 C860 1.383 . S
C859 H867 0.929 . S
C860 C859 1.383 . S
C860 C861 1.377 . S
C861 H845 0.930 . S
C861 C860 1.377 . S
C861 C862 1.379 . S
C862 H846 0.931 . S
C862 C856 1.383 . S
C862 C861 1.379 . S
H863 C857 0.959 . S
H864 C857 0.961 . S
H865 C857 0.960 . S
H866 C858 0.930 . S
H867 C859 0.929 . S
H868 C876 0.929 . S
H869 C878 0.930 . S
H870 C880 0.930 . S
H871 C883 0.929 . S
H872 C886 0.930 . S
H873 C888 0.960 . S
H874 C888 0.960 . S
H875 C888 0.960 . S
C876 H868 0.929 . S
C876 C877 1.377 . S
C876 C878 1.384 . S
C877 C876 1.377 . S
C877 C883 1.390 . S
C878 H869 0.930 . S
C878 C876 1.384 . S
C878 C879 1.372 . S
C879 C878 1.372 . S
C879 C880 1.400 . S
C879 C884 1.490 . S
C880 H870 0.930 . S
C880 C879 1.400 . S
C880 C883 1.386 . S
H881 C897 0.930 1_455 S
H882 C898 0.931 . S
C883 H871 0.929 . S
C883 C877 1.390 . S
C883 C880 1.386 . S
C884 C879 1.490 . S
C884 C886 1.395 . S
C884 C887 1.403 . S
H885 C891 0.930 . S
C886 H872 0.930 . S
C886 C884 1.395 . S
C886 C889 1.403 . S
C887 C884 1.403 . S
C887 C888 1.524 . S
C887 C891 1.400 . S
C888 H873 0.960 . S
C888 H874 0.960 . S
C888 H875 0.960 . S
C888 C887 1.524 . S
C889 C886 1.403 . S
C889 C890 1.392 . S
C889 C893 1.495 . S
C890 C889 1.392 . S
C890 C891 1.385 . S
C890 C892 1.478 . S
C891 H885 0.930 . S
C891 C887 1.400 . S
C891 C890 1.385 . S
C892 C890 1.478 . S
C892 C894 1.381 . S
C892 C898 1.383 . S
C893 C889 1.495 . S
C893 H899 0.959 . S
C893 H900 0.961 . S
C893 H901 0.960 . S
C894 C892 1.381 . S
C894 C895 1.394 . S
C894 H902 0.930 . S
C895 C894 1.394 . S
C895 C896 1.383 . S
C895 H903 0.929 . S
C896 C895 1.383 . S
C896 C897 1.377 . S
C897 H881 0.930 1_655 S
C897 C896 1.377 . S
C897 C898 1.379 . S
C898 H882 0.931 . S
C898 C892 1.383 . S
C898 C897 1.379 . S
H899 C893 0.959 . S
H900 C893 0.961 . S
H901 C893 0.960 . S
H902 C894 0.930 . S
H903 C895 0.929 . S
H904 C912 0.929 . S
H905 C914 0.930 . S
H906 C916 0.930 . S
H907 C919 0.929 . S
H908 C922 0.930 . S
H909 C924 0.960 . S
H910 C924 0.960 . S
H911 C924 0.960 . S
C912 H904 0.929 . S
C912 C913 1.377 . S
C912 C914 1.384 . S
C913 C912 1.377 . S
C913 C919 1.390 . S
C914 H905 0.930 . S
C914 C912 1.384 . S
C914 C915 1.372 . S
C915 C914 1.372 . S
C915 C916 1.400 . S
C915 C920 1.490 . S
C916 H906 0.930 . S
C916 C915 1.400 . S
C916 C919 1.386 . S
H917 C933 0.930 . S
H918 C934 0.931 . S
C919 H907 0.929 . S
C919 C913 1.390 . S
C919 C916 1.386 . S
C920 C915 1.490 . S
C920 C922 1.395 . S
C920 C923 1.403 . S
H921 C927 0.930 . S
C922 H908 0.930 . S
C922 C920 1.395 . S
C922 C925 1.403 . S
C923 C920 1.403 . S
C923 C924 1.524 . S
C923 C927 1.400 . S
C924 H909 0.960 . S
C924 H910 0.960 . S
C924 H911 0.960 . S
C924 C923 1.524 . S
C925 C922 1.403 . S
C925 C926 1.392 . S
C925 C929 1.495 . S
C926 C925 1.392 . S
C926 C927 1.385 . S
C926 C928 1.478 . S
C927 H921 0.930 . S
C927 C923 1.400 . S
C927 C926 1.385 . S
C928 C926 1.478 . S
C928 C930 1.381 . S
C928 C934 1.383 . S
C929 C925 1.495 . S
C929 H935 0.959 . S
C929 H936 0.961 . S
C929 H937 0.960 . S
C930 C928 1.381 . S
C930 C931 1.394 . S
C930 H938 0.930 . S
C931 C930 1.394 . S
C931 C932 1.383 . S
C931 H939 0.929 . S
C932 C931 1.383 . S
C932 C933 1.377 . S
C933 H917 0.930 . S
C933 C932 1.377 . S
C933 C934 1.379 . S
C934 H918 0.931 . S
C934 C928 1.383 . S
C934 C933 1.379 . S
H935 C929 0.959 . S
H936 C929 0.961 . S
H937 C929 0.960 . S
H938 C930 0.930 . S
H939 C931 0.929 . S
H940 C948 0.929 . S
H941 C950 0.930 . S
H942 C952 0.930 . S
H943 C955 0.929 . S
H944 C958 0.930 . S
H945 C960 0.960 . S
H946 C960 0.960 . S
H947 C960 0.960 . S
C948 H940 0.929 . S
C948 C949 1.377 . S
C948 C950 1.384 . S
C949 C948 1.377 . S
C949 C955 1.390 . S
C950 H941 0.930 . S
C950 C948 1.384 . S
C950 C951 1.372 . S
C951 C950 1.372 . S
C951 C952 1.400 . S
C951 C956 1.490 . S
C952 H942 0.930 . S
C952 C951 1.400 . S
C952 C955 1.386 . S
H953 C969 0.930 . S
H954 C970 0.931 . S
C955 H943 0.929 . S
C955 C949 1.390 . S
C955 C952 1.386 . S
C956 C951 1.490 . S
C956 C958 1.395 . S
C956 C959 1.403 . S
H957 C963 0.930 . S
C958 H944 0.930 . S
C958 C956 1.395 . S
C958 C961 1.403 . S
C959 C956 1.403 . S
C959 C960 1.524 . S
C959 C963 1.400 . S
C960 H945 0.960 . S
C960 H946 0.960 . S
C960 H947 0.960 . S
C960 C959 1.524 . S
C961 C958 1.403 . S
C961 C962 1.392 . S
C961 C965 1.495 . S
C962 C961 1.392 . S
C962 C963 1.385 . S
C962 C964 1.478 . S
C963 H957 0.930 . S
C963 C959 1.400 . S
C963 C962 1.385 . S
C964 C962 1.478 . S
C964 C966 1.381 . S
C964 C970 1.383 . S
C965 C961 1.495 . S
C965 H971 0.959 . S
C965 H972 0.961 . S
C965 H973 0.960 . S
C966 C964 1.381 . S
C966 C967 1.394 . S
C966 H974 0.930 . S
C967 C966 1.394 . S
C967 C968 1.383 . S
C967 H975 0.929 . S
C968 C967 1.383 . S
C968 C969 1.377 . S
C969 H953 0.930 . S
C969 C968 1.377 . S
C969 C970 1.379 . S
C970 H954 0.931 . S
C970 C964 1.383 . S
C970 C969 1.379 . S
H971 C965 0.959 . S
H972 C965 0.961 . S
H973 C965 0.960 . S
H974 C966 0.930 . S
H975 C967 0.929 . S
H976 C984 0.929 . S
H977 C986 0.930 . S
H978 C988 0.930 . S
H979 C991 0.929 . S
H980 C994 0.930 . S
H981 C996 0.960 . S
H982 C996 0.960 . S
H983 C996 0.960 . S
C984 H976 0.929 . S
C984 C985 1.377 . S
C984 C986 1.384 . S
C985 C984 1.377 . S
C985 C991 1.390 . S
C986 H977 0.930 . S
C986 C984 1.384 . S
C986 C987 1.372 . S
C987 C986 1.372 . S
C987 C988 1.400 . S
C987 C992 1.490 . S
C988 H978 0.930 . S
C988 C987 1.400 . S
C988 C991 1.386 . S
H989 C1005 0.930 . S
H990 C1006 0.931 . S
C991 H979 0.929 . S
C991 C985 1.390 . S
C991 C988 1.386 . S
C992 C987 1.490 . S
C992 C994 1.395 . S
C992 C995 1.403 . S
H993 C999 0.930 . S
C994 H980 0.930 . S
C994 C992 1.395 . S
C994 C997 1.403 . S
C995 C992 1.403 . S
C995 C996 1.524 . S
C995 C999 1.400 . S
C996 H981 0.960 . S
C996 H982 0.960 . S
C996 H983 0.960 . S
C996 C995 1.524 . S
C997 C994 1.403 . S
C997 C998 1.392 . S
C997 C1001 1.495 . S
C998 C997 1.392 . S
C998 C999 1.385 . S
C998 C1000 1.478 . S
C999 H993 0.930 . S
C999 C995 1.400 . S
C999 C998 1.385 . S
C1000 C998 1.478 . S
C1000 C1002 1.381 . S
C1000 C1006 1.383 . S
C1001 C997 1.495 . S
C1001 H1007 0.959 . S
C1001 H1008 0.961 . S
C1001 H1009 0.960 . S
C1002 C1000 1.381 . S
C1002 C1003 1.394 . S
C1002 H1010 0.930 . S
C1003 C1002 1.394 . S
C1003 C1004 1.383 . S
C1003 H1011 0.929 . S
C1004 C1003 1.383 . S
C1004 C1005 1.377 . S
C1005 H989 0.930 . S
C1005 C1004 1.377 . S
C1005 C1006 1.379 . S
C1006 H990 0.931 . S
C1006 C1000 1.383 . S
C1006 C1005 1.379 . S
H1007 C1001 0.959 . S
H1008 C1001 0.961 . S
H1009 C1001 0.960 . S
H1010 C1002 0.930 . S
H1011 C1003 0.929 . S
H1012 C1020 0.929 . S
H1013 C1022 0.930 . S
H1014 C1024 0.930 . S
H1015 C1027 0.929 . S
H1016 C1030 0.930 . S
H1017 C1032 0.960 . S
H1018 C1032 0.960 . S
H1019 C1032 0.960 . S
C1020 H1012 0.929 . S
C1020 C1021 1.377 . S
C1020 C1022 1.384 . S
C1021 C1020 1.377 . S
C1021 C1027 1.390 . S
C1022 H1013 0.930 . S
C1022 C1020 1.384 . S
C1022 C1023 1.372 . S
C1023 C1022 1.372 . S
C1023 C1024 1.400 . S
C1023 C1028 1.490 . S
C1024 H1014 0.930 . S
C1024 C1023 1.400 . S
C1024 C1027 1.386 . S
H1025 C1041 0.930 . S
H1026 C1042 0.931 . S
C1027 H1015 0.929 . S
C1027 C1021 1.390 . S
C1027 C1024 1.386 . S
C1028 C1023 1.490 . S
C1028 C1030 1.395 . S
C1028 C1031 1.403 . S
H1029 C1035 0.930 . S
C1030 H1016 0.930 . S
C1030 C1028 1.395 . S
C1030 C1033 1.403 . S
C1031 C1028 1.403 . S
C1031 C1032 1.524 . S
C1031 C1035 1.400 . S
C1032 H1017 0.960 . S
C1032 H1018 0.960 . S
C1032 H1019 0.960 . S
C1032 C1031 1.524 . S
C1033 C1030 1.403 . S
C1033 C1034 1.392 . S
C1033 C1037 1.495 . S
C1034 C1033 1.392 . S
C1034 C1035 1.385 . S
C1034 C1036 1.478 . S
C1035 H1029 0.930 . S
C1035 C1031 1.400 . S
C1035 C1034 1.385 . S
C1036 C1034 1.478 . S
C1036 C1038 1.381 . S
C1036 C1042 1.383 . S
C1037 C1033 1.495 . S
C1037 H1043 0.959 . S
C1037 H1044 0.961 . S
C1037 H1045 0.960 . S
C1038 C1036 1.381 . S
C1038 C1039 1.394 . S
C1038 H1046 0.930 . S
C1039 C1038 1.394 . S
C1039 C1040 1.383 . S
C1039 H1047 0.929 . S
C1040 C1039 1.383 . S
C1040 C1041 1.377 . S
C1041 H1025 0.930 . S
C1041 C1040 1.377 . S
C1041 C1042 1.379 . S
C1042 H1026 0.931 . S
C1042 C1036 1.383 . S
C1042 C1041 1.379 . S
H1043 C1037 0.959 . S
H1044 C1037 0.961 . S
H1045 C1037 0.960 . S
H1046 C1038 0.930 . S
H1047 C1039 0.929 . S
H1048 C1056 0.929 . S
H1049 C1058 0.930 . S
H1050 C1060 0.930 . S
H1051 C1063 0.929 . S
H1052 C1066 0.930 . S
H1053 C1068 0.960 . S
H1054 C1068 0.960 . S
H1055 C1068 0.960 . S
C1056 H1048 0.929 . S
C1056 C1057 1.377 . S
C1056 C1058 1.384 . S
C1057 C1056 1.377 . S
C1057 C1063 1.390 . S
C1058 H1049 0.930 . S
C1058 C1056 1.384 . S
C1058 C1059 1.372 . S
C1059 C1058 1.372 . S
C1059 C1060 1.400 . S
C1059 C1064 1.490 . S
C1060 H1050 0.930 . S
C1060 C1059 1.400 . S
C1060 C1063 1.386 . S
H1061 C1077 0.930 . S
H1062 C1078 0.931 . S
C1063 H1051 0.929 . S
C1063 C1057 1.390 . S
C1063 C1060 1.386 . S
C1064 C1059 1.490 . S
C1064 C1066 1.395 . S
C1064 C1067 1.403 . S
H1065 C1071 0.930 . S
C1066 H1052 0.930 . S
C1066 C1064 1.395 . S
C1066 C1069 1.403 . S
C1067 C1064 1.403 . S
C1067 C1068 1.524 . S
C1067 C1071 1.400 . S
C1068 H1053 0.960 . S
C1068 H1054 0.960 . S
C1068 H1055 0.960 . S
C1068 C1067 1.524 . S
C1069 C1066 1.403 . S
C1069 C1070 1.392 . S
C1069 C1073 1.495 . S
C1070 C1069 1.392 . S
C1070 C1071 1.385 . S
C1070 C1072 1.478 . S
C1071 H1065 0.930 . S
C1071 C1067 1.400 . S
C1071 C1070 1.385 . S
C1072 C1070 1.478 . S
C1072 C1074 1.381 . S
C1072 C1078 1.383 . S
C1073 C1069 1.495 . S
C1073 H1079 0.959 . S
C1073 H1080 0.961 . S
C1073 H1081 0.960 . S
C1074 C1072 1.381 . S
C1074 C1075 1.394 . S
C1074 H1082 0.930 . S
C1075 C1074 1.394 . S
C1075 C1076 1.383 . S
C1075 H1083 0.929 . S
C1076 C1075 1.383 . S
C1076 C1077 1.377 . S
C1077 H1061 0.930 . S
C1077 C1076 1.377 . S
C1077 C1078 1.379 . S
C1078 H1062 0.931 . S
C1078 C1072 1.383 . S
C1078 C1077 1.379 . S
H1079 C1073 0.959 . S
H1080 C1073 0.961 . S
H1081 C1073 0.960 . S
H1082 C1074 0.930 . S
H1083 C1075 0.929 . S
H1084 C1092 0.929 . S
H1085 C1094 0.930 . S
H1086 C1096 0.930 . S
H1087 C1099 0.929 . S
H1088 C1102 0.930 . S
H1089 C1104 0.960 . S
H1090 C1104 0.960 . S
H1091 C1104 0.960 . S
C1092 H1084 0.929 . S
C1092 C1093 1.377 . S
C1092 C1094 1.384 . S
C1093 C1092 1.377 . S
C1093 C1099 1.390 . S
C1094 H1085 0.930 . S
C1094 C1092 1.384 . S
C1094 C1095 1.372 . S
C1095 C1094 1.372 . S
C1095 C1096 1.400 . S
C1095 C1100 1.490 . S
C1096 H1086 0.930 . S
C1096 C1095 1.400 . S
C1096 C1099 1.386 . S
H1097 C1113 0.930 . S
H1098 C1114 0.931 . S
C1099 H1087 0.929 . S
C1099 C1093 1.390 . S
C1099 C1096 1.386 . S
C1100 C1095 1.490 . S
C1100 C1102 1.395 . S
C1100 C1103 1.403 . S
H1101 C1107 0.930 . S
C1102 H1088 0.930 . S
C1102 C1100 1.395 . S
C1102 C1105 1.403 . S
C1103 C1100 1.403 . S
C1103 C1104 1.524 . S
C1103 C1107 1.400 . S
C1104 H1089 0.960 . S
C1104 H1090 0.960 . S
C1104 H1091 0.960 . S
C1104 C1103 1.524 . S
C1105 C1102 1.403 . S
C1105 C1106 1.392 . S
C1105 C1109 1.495 . S
C1106 C1105 1.392 . S
C1106 C1107 1.385 . S
C1106 C1108 1.478 . S
C1107 H1101 0.930 . S
C1107 C1103 1.400 . S
C1107 C1106 1.385 . S
C1108 C1106 1.478 . S
C1108 C1110 1.381 . S
C1108 C1114 1.383 . S
C1109 C1105 1.495 . S
C1109 H1115 0.959 . S
C1109 H1116 0.961 . S
C1109 H1117 0.960 . S
C1110 C1108 1.381 . S
C1110 C1111 1.394 . S
C1110 H1118 0.930 . S
C1111 C1110 1.394 . S
C1111 C1112 1.383 . S
C1111 H1119 0.929 . S
C1112 C1111 1.383 . S
C1112 C1113 1.377 . S
C1113 H1097 0.930 . S
C1113 C1112 1.377 . S
C1113 C1114 1.379 . S
C1114 H1098 0.931 . S
C1114 C1108 1.383 . S
C1114 C1113 1.379 . S
H1115 C1109 0.959 . S
H1116 C1109 0.961 . S
H1117 C1109 0.960 . S
H1118 C1110 0.930 . S
H1119 C1111 0.929 . S
C265 C6 1.072 . S
C284 C113 1.101 . S
C301 C18 1.343 . S
C320 C153 1.355 . S
C356 C178 2.467 . S
C337 C28 2.522 . S
C373 C40 1.654 . S
C392 C218 1.621 . S
C428 C149 1.964 . S
C409 C9 1.912 . S
C464 C109 1.686 . S
C445 C16 1.642 . S
C500 C240 1.575 . S
C481 C30 1.604 . S
C536 C200 1.190 . S
C517 C42 1.187 . S
C553 C4 1.163 . S
C572 C242 1.139 . S
C608 C159 2.329 . S
C589 C33 2.375 . S
C625 C45 1.820 . S
C644 C119 1.787 . S
C661 C21 1.403 . S
C680 C202 1.442 . S
C716 C122 1.116 . S
C697 C57 1.108 . S
C733 C66 1.313 . S
C752 C162 1.347 . S
C769 C76 2.578 . S
C788 C199 2.536 . S
C805 C88 1.560 . S
C824 C239 1.535 . S
C841 C54 1.904 . S
C860 C160 1.945 . S
C896 C120 1.780 . S
C877 C64 1.752 . S
C932 C229 1.474 . S
C913 C78 1.482 . S
C968 C189 1.227 . S
C949 C93 1.247 . S
C985 C52 1.152 . S
C1004 C233 1.195 . S
C1040 C138 2.332 . S
C1021 C81 2.359 . S
C1076 C98 1.744 . S
C1057 C90 1.782 . S
C1093 C69 1.408 . S
C1112 C193 1.456 . S
