# Generated by pormake.
# Topology zzz, (3,6)-cn, num edge types: 1
# Building blocks:
#     Node 0, Type 0, BuildingBlock: VETTIZ_charged_linker_0, # of connection points: 3
#     Node 1, Type 0, BuildingBlock: VETTIZ_charged_linker_0, # of connection points: 3
#     Node 2, Type 0, BuildingBlock: VETTIZ_charged_linker_0, # of connection points: 3
#     Node 3, Type 0, BuildingBlock: VETTIZ_charged_linker_0, # of connection points: 3
#     Node 4, Type 0, BuildingBlock: VETTIZ_charged_linker_0, # of connection points: 3
#     Node 5, Type 0, BuildingBlock: VETTIZ_charged_linker_0, # of connection points: 3
#     Node 6, Type 0, BuildingBlock: VETTIZ_charged_linker_0, # of connection points: 3
#     Node 7, Type 0, BuildingBlock: VETTIZ_charged_linker_0, # of connection points: 3
#     Node 8, Type 1, BuildingBlock: CUKXOW_clean_sbu_0, # of connection points: 6
#     Node 9, Type 1, BuildingBlock: CUKXOW_clean_sbu_0, # of connection points: 6
#     Node 10, Type 1, BuildingBlock: CUKXOW_clean_sbu_0, # of connection points: 6
#     Node 11, Type 1, BuildingBlock: CUKXOW_clean_sbu_0, # of connection points: 6
#     Edge 12, Type (0, 1), BuildingBlock: KIFKEQ_clean_linker_1, # of connection points: 2
#     Edge 13, Type (0, 1), BuildingBlock: KIFKEQ_clean_linker_1, # of connection points: 2
#     Edge 14, Type (0, 1), BuildingBlock: KIFKEQ_clean_linker_1, # of connection points: 2
#     Edge 15, Type (0, 1), BuildingBlock: KIFKEQ_clean_linker_1, # of connection points: 2
#     Edge 16, Type (0, 1), BuildingBlock: KIFKEQ_clean_linker_1, # of connection points: 2
#     Edge 17, Type (0, 1), BuildingBlock: KIFKEQ_clean_linker_1, # of connection points: 2
#     Edge 18, Type (0, 1), BuildingBlock: KIFKEQ_clean_linker_1, # of connection points: 2
#     Edge 19, Type (0, 1), BuildingBlock: KIFKEQ_clean_linker_1, # of connection points: 2
#     Edge 20, Type (0, 1), BuildingBlock: KIFKEQ_clean_linker_1, # of connection points: 2
#     Edge 21, Type (0, 1), BuildingBlock: KIFKEQ_clean_linker_1, # of connection points: 2
#     Edge 22, Type (0, 1), BuildingBlock: KIFKEQ_clean_linker_1, # of connection points: 2
#     Edge 23, Type (0, 1), BuildingBlock: KIFKEQ_clean_linker_1, # of connection points: 2
#     Edge 24, Type (0, 1), BuildingBlock: KIFKEQ_clean_linker_1, # of connection points: 2
#     Edge 25, Type (0, 1), BuildingBlock: KIFKEQ_clean_linker_1, # of connection points: 2
#     Edge 26, Type (0, 1), BuildingBlock: KIFKEQ_clean_linker_1, # of connection points: 2
#     Edge 27, Type (0, 1), BuildingBlock: KIFKEQ_clean_linker_1, # of connection points: 2
#     Edge 28, Type (0, 1), BuildingBlock: KIFKEQ_clean_linker_1, # of connection points: 2
#     Edge 29, Type (0, 1), BuildingBlock: KIFKEQ_clean_linker_1, # of connection points: 2
#     Edge 30, Type (0, 1), BuildingBlock: KIFKEQ_clean_linker_1, # of connection points: 2
#     Edge 31, Type (0, 1), BuildingBlock: KIFKEQ_clean_linker_1, # of connection points: 2
#     Edge 32, Type (0, 1), BuildingBlock: KIFKEQ_clean_linker_1, # of connection points: 2
#     Edge 33, Type (0, 1), BuildingBlock: KIFKEQ_clean_linker_1, # of connection points: 2
#     Edge 34, Type (0, 1), BuildingBlock: KIFKEQ_clean_linker_1, # of connection points: 2
#     Edge 35, Type (0, 1), BuildingBlock: KIFKEQ_clean_linker_1, # of connection points: 2
# Relax obj value: 0.220
# Max RMSD: 0.235
# Mean RMSD: 0.190
data_MOF--net-zzz--node1-CUKXOW_clean_sbu_0--node2-VETTIZ_charged_linker_0--edge1-KIFKEQ_clean_linker_1
_symmetry_space_group_name_H-M    P1
_symmetry_Int_Tables_number       1
_symmetry_cell_setting            triclinic
loop_
_symmetry_equiv_pos_as_xyz
'x, y, z'
_cell_length_a     58.562413
_cell_length_b     57.47023
_cell_length_c     20.728001
_cell_angle_alpha  92.551529
_cell_angle_beta   88.069016
_cell_angle_gamma 95.407584
loop_
_atom_site_label
_atom_site_type_symbol
_atom_site_fract_x
_atom_site_fract_y
_atom_site_fract_z
_atom_type_partial_charge
C0 C 0.79187 0.47685 0.28971 0.0
C1 C 0.81183 0.46823 0.31258 0.0
C2 C 0.82281 0.45155 0.27428 0.0
C3 C 0.79656 0.4546 0.18847 0.0
C4 C 0.78418 0.46925 0.22763 0.0
C5 C 0.76265 0.47476 0.19476 0.0
H6 H 0.70539 0.47211 0.91167 0.0
C7 C 0.78633 0.45214 0.12441 0.0
C8 C 0.76606 0.46345 0.12729 0.0
H9 H 0.67954 0.4933 0.10113 0.0
H10 H 0.71559 0.48583 0.14737 0.0
H11 H 0.7561 0.49531 0.92617 0.0
H12 H 0.72433 0.4259 0.95573 0.0
H13 H 0.75064 0.4231 0.914 0.0
H14 H 0.72894 0.43792 0.87736 0.0
H15 H 0.74964 0.47484 0.86002 0.0
H16 H 0.77654 0.47618 0.90074 0.0
C17 C 0.76231 0.50153 0.19283 0.0
C18 C 0.7417 0.46266 0.23146 0.0
C19 C 0.83521 0.42291 0.93761 0.0
C20 C 0.83357 0.42331 0.87023 0.0
C21 C 0.813 0.42924 0.84447 0.0
C22 C 0.79486 0.43572 0.88543 0.0
C23 C 0.7974 0.43655 0.95286 0.0
C24 C 0.81721 0.4298 0.97765 0.0
C25 C 0.81785 0.43315 0.04978 0.0
C26 C 0.79521 0.44345 0.06449 0.0
C27 C 0.7833 0.44532 0.00779 0.0
C28 C 0.83884 0.4508 0.06573 0.0
C29 C 0.81838 0.40877 0.07893 0.0
C30 C 0.70703 0.47476 0.96339 0.0
C31 C 0.68913 0.48291 0.00249 0.0
C32 C 0.69287 0.48701 0.06936 0.0
C33 C 0.7137 0.48234 0.09645 0.0
C34 C 0.7309 0.47316 0.0566 0.0
C35 C 0.72726 0.46958 0.99119 0.0
C36 C 0.7467 0.459 0.95559 0.0
C37 C 0.76223 0.45566 0.01058 0.0
C38 C 0.75336 0.46447 0.0699 0.0
C39 C 0.75784 0.47706 0.90771 0.0
C40 C 0.73732 0.43529 0.92344 0.0
H41 H 0.82486 0.43245 0.18566 0.0
H42 H 0.78271 0.48918 0.31912 0.0
H43 H 0.74569 0.44557 0.24933 0.0
H44 H 0.72682 0.45839 0.2004 0.0
H45 H 0.73653 0.47365 0.27393 0.0
H46 H 0.77886 0.50955 0.17237 0.0
H47 H 0.75973 0.50938 0.24219 0.0
H48 H 0.74863 0.50656 0.1624 0.0
H49 H 0.85091 0.41899 0.95923 0.0
H50 H 0.81125 0.42958 0.79268 0.0
H51 H 0.77985 0.44054 0.86293 0.0
H52 H 0.84011 0.46554 0.03235 0.0
H53 H 0.85507 0.44224 0.06051 0.0
H54 H 0.83802 0.4591 0.11449 0.0
H55 H 0.81221 0.39429 0.04455 0.0
H56 H 0.80676 0.40661 0.12204 0.0
H57 H 0.83604 0.40564 0.09206 0.0
H58 H 0.83805 0.44458 0.29083 0.0
C59 C 0.81526 0.44466 0.21282 0.0
C60 C 0.92667 0.80364 0.89882 0.0
C61 C 0.92169 0.82713 0.90682 0.0
C62 C 0.90518 0.83313 0.9543 0.0
C63 C 0.90431 0.79462 0.99601 0.0
C64 C 0.9173 0.78748 0.94348 0.0
C65 C 0.92094 0.76192 0.94525 0.0
H66 H 0.94459 0.67376 0.11327 0.0
C67 C 0.90261 0.77627 0.04327 0.0
C68 C 0.91028 0.7562 0.01199 0.0
H69 H 0.91698 0.66783 0.92164 0.0
H70 H 0.90359 0.7068 0.93816 0.0
H71 H 0.96489 0.73096 0.11857 0.0
H72 H 0.89809 0.69692 0.17007 0.0
H73 H 0.90659 0.71842 0.23002 0.0
H74 H 0.923 0.6936 0.2159 0.0
H75 H 0.96057 0.71206 0.18555 0.0
H76 H 0.9552 0.7424 0.19378 0.0
C77 C 0.94685 0.75875 0.94157 0.0
C78 C 0.90829 0.74873 0.88837 0.0
C79 C 0.90832 0.80737 0.2748 0.0
C80 C 0.9193 0.79991 0.32813 0.0
C81 C 0.92676 0.77726 0.32569 0.0
C82 C 0.92384 0.76256 0.26984 0.0
C83 C 0.91413 0.77096 0.21522 0.0
C84 C 0.9067 0.79313 0.21843 0.0
C85 C 0.89929 0.80057 0.15446 0.0
C86 C 0.90325 0.77898 0.11181 0.0
C87 C 0.9116 0.76152 0.14792 0.0
C88 C 0.91478 0.82287 0.13477 0.0
C89 C 0.87353 0.80437 0.16051 0.0
C90 C 0.93674 0.6813 0.07354 0.0
C91 C 0.93292 0.66838 0.01481 0.0
C92 C 0.92108 0.67797 0.96574 0.0
C93 C 0.91439 0.70066 0.97332 0.0
C94 C 0.92044 0.71403 0.02897 0.0
C95 C 0.92958 0.70399 0.08019 0.0
C96 C 0.92866 0.71963 0.14079 0.0
C97 C 0.91743 0.74034 0.11605 0.0
C98 C 0.9145 0.73725 0.04945 0.0
C99 C 0.95357 0.72663 0.16142 0.0
C100 C 0.91342 0.70654 0.19242 0.0
H101 H 0.88383 0.82187 0.03443 0.0
H102 H 0.93839 0.79835 0.86061 0.0
H103 H 0.90883 0.75961 0.84521 0.0
H104 H 0.88996 0.74384 0.90152 0.0
H105 H 0.91666 0.73292 0.87191 0.0
H106 H 0.95591 0.76907 0.98125 0.0
H107 H 0.95469 0.76449 0.8947 0.0
H108 H 0.94985 0.7401 0.94567 0.0
H109 H 0.9029 0.82489 0.2748 0.0
H110 H 0.93538 0.7712 0.36633 0.0
H111 H 0.93005 0.7456 0.27044 0.0
H112 H 0.92439 0.83171 0.17563 0.0
H113 H 0.90462 0.83644 0.11691 0.0
H114 H 0.92807 0.81867 0.09769 0.0
H115 H 0.86379 0.7899 0.18657 0.0
H116 H 0.86564 0.80456 0.11289 0.0
H117 H 0.87095 0.82107 0.18771 0.0
H118 H 0.90045 0.85088 0.96026 0.0
C119 C 0.89616 0.81673 0.99842 0.0
C120 C 0.81102 0.99103 0.08638 0.0
C121 C 0.82069 0.98852 0.02327 0.0
C122 C 0.80625 0.98205 0.97155 0.0
C123 C 0.77307 0.98007 0.04421 0.0
C124 C 0.78699 0.9865 0.09583 0.0
C125 C 0.77292 0.98776 0.15867 0.0
H126 H 0.66726 0.96265 0.30741 0.0
C127 C 0.74931 0.97527 0.06866 0.0
C128 C 0.74889 0.9789 0.1363 0.0
H129 H 0.72614 0.00024 0.39548 0.0
H130 H 0.74875 0.99536 0.29489 0.0
H131 H 0.66703 0.99002 0.20572 0.0
H132 H 0.69357 0.92412 0.21315 0.0
H133 H 0.67944 0.92406 0.13936 0.0
H134 H 0.66387 0.92962 0.21429 0.0
H135 H 0.65069 0.96429 0.17585 0.0
H136 H 0.66933 0.98238 0.12342 0.0
C137 C 0.77413 0.0136 0.18314 0.0
C138 C 0.78194 0.9715 0.20718 0.0
C139 C 0.68379 0.96481 0.91417 0.0
C140 C 0.65995 0.96097 0.92577 0.0
C141 C 0.65171 0.95166 0.98482 0.0
C142 C 0.66674 0.94912 0.03433 0.0
C143 C 0.69012 0.95638 0.02517 0.0
C144 C 0.69859 0.96239 0.9647 0.0
C145 C 0.72424 0.9679 0.96373 0.0
C146 C 0.72897 0.96766 0.0356 0.0
C147 C 0.70883 0.96119 0.07097 0.0
C148 C 0.73016 0.99251 0.93658 0.0
C149 C 0.73511 0.94793 0.92413 0.0
C150 C 0.68521 0.96931 0.30572 0.0
C151 C 0.69509 0.98132 0.35939 0.0
C152 C 0.71824 0.99069 0.35454 0.0
C153 C 0.73121 0.98803 0.29613 0.0
C154 C 0.72059 0.97667 0.24167 0.0
C155 C 0.69781 0.96785 0.24763 0.0
C156 C 0.6877 0.95955 0.1846 0.0
C157 C 0.70817 0.96433 0.1391 0.0
C158 C 0.72778 0.97382 0.17216 0.0
C159 C 0.66764 0.97461 0.17147 0.0
C160 C 0.68057 0.93296 0.18772 0.0
H161 H 0.77269 0.97307 0.93999 0.0
H162 H 0.82187 0.99605 0.12691 0.0
H163 H 0.78294 0.95368 0.18469 0.0
H164 H 0.77066 0.96961 0.25072 0.0
H165 H 0.79938 0.97827 0.22273 0.0
H166 H 0.77254 0.02527 0.14241 0.0
H167 H 0.79076 0.01897 0.20627 0.0
H168 H 0.76001 0.01714 0.21762 0.0
H169 H 0.69061 0.97112 0.8683 0.0
H170 H 0.63348 0.9482 0.99505 0.0
H171 H 0.65939 0.94296 0.07911 0.0
H172 H 0.71883 0.00518 0.95964 0.0
H173 H 0.72778 0.99212 0.8836 0.0
H174 H 0.7479 0.9998 0.94586 0.0
H175 H 0.72259 0.93244 0.91482 0.0
H176 H 0.74915 0.94111 0.95024 0.0
H177 H 0.74189 0.95381 0.87626 0.0
H178 H 0.81337 0.98014 0.92284 0.0
C179 C 0.78263 0.9778 0.98164 0.0
C180 C 0.59394 0.71778 0.33374 0.0
C181 C 0.60079 0.69574 0.3487 0.0
C182 C 0.61468 0.68399 0.30368 0.0
C183 C 0.61024 0.71291 0.22563 0.0
C184 C 0.59957 0.72639 0.27201 0.0
C185 C 0.59525 0.74978 0.24615 0.0
H186 H 0.59263 0.81545 0.98026 0.0
C187 C 0.61024 0.72418 0.16365 0.0
C188 C 0.60255 0.74645 0.17508 0.0
H189 H 0.57984 0.83814 0.17843 0.0
H190 H 0.58706 0.7997 0.21406 0.0
H191 H 0.63622 0.7848 0.99913 0.0
H192 H 0.56352 0.77163 0.9876 0.0
H193 H 0.57305 0.74402 0.96898 0.0
H194 H 0.58163 0.76805 0.91749 0.0
H195 H 0.61953 0.78746 0.92906 0.0
H196 H 0.62992 0.76001 0.94677 0.0
C197 C 0.611 0.76901 0.28151 0.0
C198 C 0.56944 0.7531 0.25456 0.0
C199 C 0.60556 0.6714 0.96253 0.0
C200 C 0.59866 0.67526 0.89993 0.0
C201 C 0.59921 0.6984 0.87981 0.0
C202 C 0.60451 0.71735 0.92338 0.0
C203 C 0.60861 0.71309 0.98808 0.0
C204 C 0.61001 0.69045 0.00612 0.0
C205 C 0.61357 0.68904 0.07735 0.0
C206 C 0.61227 0.71453 0.09975 0.0
C207 C 0.60927 0.7284 0.04733 0.0
C208 C 0.63759 0.68054 0.08689 0.0
C209 C 0.59356 0.67272 0.10617 0.0
C210 C 0.59199 0.81241 0.03154 0.0
C211 C 0.58633 0.82999 0.07672 0.0
C212 C 0.58451 0.82492 0.14281 0.0
C213 C 0.58884 0.80271 0.16334 0.0
C214 C 0.59472 0.78538 0.11714 0.0
C215 C 0.59593 0.79044 0.05245 0.0
C216 C 0.60038 0.76969 0.00908 0.0
C217 C 0.6038 0.75179 0.05842 0.0
C218 C 0.60026 0.76085 0.12186 0.0
C219 C 0.62263 0.77572 0.96838 0.0
C220 C 0.57869 0.76296 0.96839 0.0
H221 H 0.62977 0.6828 0.20935 0.0
H222 H 0.58405 0.72764 0.36847 0.0
H223 H 0.55892 0.73718 0.23634 0.0
H224 H 0.56445 0.76779 0.22736 0.0
H225 H 0.56464 0.75625 0.3063 0.0
H226 H 0.62781 0.76258 0.29158 0.0
H227 H 0.60306 0.77453 0.32847 0.0
H228 H 0.61531 0.7845 0.25234 0.0
H229 H 0.60536 0.65381 0.97922 0.0
H230 H 0.59439 0.7018 0.83135 0.0
H231 H 0.60413 0.73457 0.90585 0.0
H232 H 0.64754 0.67862 0.04059 0.0
H233 H 0.63619 0.66318 0.10899 0.0
H234 H 0.64838 0.69317 0.11771 0.0
H235 H 0.57675 0.67865 0.09397 0.0
H236 H 0.59379 0.67203 0.15906 0.0
H237 H 0.59421 0.65444 0.087 0.0
H238 H 0.62052 0.66727 0.31427 0.0
C239 C 0.61964 0.69264 0.24249 0.0
C240 C 0.30946 0.52377 0.34809 0.0
C241 C 0.31885 0.53067 0.40872 0.0
C242 C 0.30585 0.54321 0.45406 0.0
C243 C 0.27527 0.54315 0.37867 0.0
C244 C 0.28762 0.53047 0.33379 0.0
C245 C 0.27475 0.52582 0.27146 0.0
H246 H 0.18287 0.55014 0.09733 0.0
C247 C 0.2541 0.54886 0.34908 0.0
C248 C 0.25371 0.53931 0.28531 0.0
H249 H 0.23178 0.50101 0.03973 0.0
H250 H 0.25228 0.51053 0.1398 0.0
H251 H 0.17304 0.53202 0.22098 0.0
H252 H 0.21826 0.59105 0.16722 0.0
H253 H 0.20372 0.59963 0.23878 0.0
H254 H 0.18751 0.58979 0.16853 0.0
H255 H 0.1631 0.56047 0.21919 0.0
H256 H 0.17386 0.54974 0.29169 0.0
C257 C 0.26812 0.49922 0.26343 0.0
C258 C 0.28983 0.53588 0.21499 0.0
C259 C 0.19366 0.58773 0.48576 0.0
C260 C 0.17206 0.59453 0.47041 0.0
C261 C 0.16697 0.59623 0.40482 0.0
C262 C 0.182 0.5891 0.35575 0.0
C263 C 0.20227 0.57987 0.37204 0.0
C264 C 0.20847 0.58048 0.43576 0.0
C265 C 0.23125 0.57085 0.44296 0.0
C266 C 0.23628 0.56214 0.37384 0.0
C267 C 0.21911 0.56732 0.33305 0.0
C268 C 0.22783 0.55045 0.48983 0.0
C269 C 0.24879 0.59134 0.46543 0.0
C270 C 0.19834 0.54181 0.10524 0.0
C271 C 0.20599 0.52524 0.06008 0.0
C272 C 0.22564 0.51402 0.07375 0.0
C273 C 0.23741 0.51948 0.13187 0.0
C274 C 0.22903 0.53583 0.17741 0.0
C275 C 0.20963 0.54643 0.16326 0.0
C276 C 0.20106 0.5611 0.21855 0.0
C277 C 0.21859 0.55803 0.26862 0.0
C278 C 0.2354 0.54362 0.24465 0.0
C279 C 0.17651 0.55054 0.23874 0.0
C280 C 0.20249 0.58677 0.19749 0.0
H281 H 0.27537 0.55892 0.47641 0.0
H282 H 0.31912 0.51407 0.31242 0.0
H283 H 0.29649 0.55428 0.22697 0.0
H284 H 0.28028 0.5361 0.17011 0.0
H285 H 0.30475 0.52554 0.20491 0.0
H286 H 0.26216 0.49186 0.31049 0.0
H287 H 0.28305 0.48998 0.24536 0.0
H288 H 0.25376 0.49489 0.23063 0.0
H289 H 0.19833 0.5868 0.53562 0.0
H290 H 0.15054 0.6013 0.391 0.0
H291 H 0.17659 0.58985 0.30709 0.0
H292 H 0.21202 0.53893 0.47837 0.0
H293 H 0.22607 0.55715 0.54067 0.0
H294 H 0.24194 0.53897 0.48658 0.0
H295 H 0.24271 0.60874 0.45753 0.0
H296 H 0.26533 0.59139 0.43771 0.0
H297 H 0.2521 0.59075 0.51775 0.0
H298 H 0.31258 0.54839 0.50117 0.0
C299 C 0.28424 0.54941 0.43949 0.0
C300 C 0.0929 0.19934 0.493 0.0
C301 C 0.09884 0.17614 0.48623 0.0
C302 C 0.11719 0.17102 0.44364 0.0
C303 C 0.11763 0.20931 0.40108 0.0
C304 C 0.10297 0.21587 0.45041 0.0
C305 C 0.09823 0.24103 0.44649 0.0
H306 H 0.07844 0.32923 0.27263 0.0
C307 C 0.11934 0.22723 0.35269 0.0
C308 C 0.11046 0.24703 0.38187 0.0
H309 H 0.10384 0.33485 0.46759 0.0
H310 H 0.11663 0.29594 0.45266 0.0
H311 H 0.12358 0.30149 0.21419 0.0
H312 H 0.05571 0.27231 0.27554 0.0
H313 H 0.06454 0.25867 0.20238 0.0
H314 H 0.06005 0.28929 0.20468 0.0
H315 H 0.09813 0.30809 0.17515 0.0
H316 H 0.1109 0.28137 0.15538 0.0
C317 C 0.10858 0.25492 0.50567 0.0
C318 C 0.07214 0.24292 0.44403 0.0
C319 C 0.11383 0.19246 0.12548 0.0
C320 C 0.0998 0.19691 0.07478 0.0
C321 C 0.0912 0.21905 0.07416 0.0
C322 C 0.095 0.23551 0.12621 0.0
C323 C 0.10671 0.22935 0.18031 0.0
C324 C 0.11566 0.20792 0.17922 0.0
C325 C 0.12377 0.20191 0.24377 0.0
C326 C 0.11875 0.22367 0.28428 0.0
C327 C 0.10936 0.24005 0.24641 0.0
C328 C 0.14979 0.1995 0.23789 0.0
C329 C 0.10954 0.17916 0.26598 0.0
C330 C 0.08564 0.32176 0.31353 0.0
C331 C 0.08932 0.33506 0.37209 0.0
C332 C 0.10015 0.32506 0.42272 0.0
C333 C 0.10635 0.30223 0.41639 0.0
C334 C 0.10042 0.28876 0.36104 0.0
C335 C 0.09193 0.29866 0.30866 0.0
C336 C 0.09199 0.28201 0.24968 0.0
C337 C 0.10301 0.26142 0.27621 0.0
C338 C 0.1059 0.26529 0.34254 0.0
C339 C 0.10686 0.2938 0.19528 0.0
C340 C 0.0668 0.27521 0.23145 0.0
H341 H 0.14062 0.18346 0.36872 0.0
H342 H 0.07977 0.20404 0.52793 0.0
H343 H 0.06464 0.23196 0.40303 0.0
H344 H 0.06853 0.26129 0.43779 0.0
H345 H 0.06326 0.23712 0.48954 0.0
H346 H 0.10617 0.24457 0.54984 0.0
H347 H 0.09977 0.2709 0.51724 0.0
H348 H 0.12729 0.25962 0.49794 0.0
H349 H 0.12136 0.17598 0.12665 0.0
H350 H 0.0805 0.22318 0.03543 0.0
H351 H 0.08769 0.25186 0.12396 0.0
H352 H 0.15882 0.21439 0.21191 0.0
H353 H 0.15322 0.18302 0.21074 0.0
H354 H 0.15763 0.19965 0.28569 0.0
H355 H 0.10083 0.16879 0.22596 0.0
H356 H 0.0956 0.18312 0.30126 0.0
H357 H 0.1205 0.16687 0.28671 0.0
H358 H 0.12274 0.15356 0.43902 0.0
C359 C 0.12698 0.18785 0.40169 0.0
C360 C 0.30639 0.02075 0.0464 0.0
C361 C 0.3284 0.03086 0.0262 0.0
C362 C 0.33994 0.04825 0.06632 0.0
C363 C 0.31129 0.04101 0.15053 0.0
C364 C 0.29775 0.02694 0.10886 0.0
C365 C 0.27405 0.02113 0.13988 0.0
H366 H 0.21108 0.01923 0.42659 0.0
C367 C 0.30024 0.04126 0.2146 0.0
C368 C 0.27768 0.03075 0.20949 0.0
H369 H 0.18402 0.00192 0.23739 0.0
H370 H 0.22238 0.01036 0.18873 0.0
H371 H 0.25109 0.99158 0.4077 0.0
H372 H 0.24421 0.06435 0.39441 0.0
H373 H 0.26933 0.0616 0.43723 0.0
H374 H 0.24218 0.04836 0.46726 0.0
H375 H 0.25701 0.01135 0.47523 0.0
H376 H 0.27931 0.00404 0.41761 0.0
C377 C 0.26789 0.99446 0.1366 0.0
C378 C 0.25691 0.03463 0.1049 0.0
C379 C 0.35341 0.04298 0.40136 0.0
C380 C 0.34935 0.03675 0.46569 0.0
C381 C 0.32684 0.03594 0.49211 0.0
C382 C 0.30843 0.03927 0.45319 0.0
C383 C 0.31252 0.04269 0.38689 0.0
C384 C 0.33479 0.04546 0.36253 0.0
C385 C 0.33599 0.04841 0.29077 0.0
C386 C 0.31049 0.04512 0.27555 0.0
C387 C 0.29703 0.04147 0.33184 0.0
C388 C 0.34946 0.02878 0.25863 0.0
C389 C 0.3473 0.07336 0.27754 0.0
C390 C 0.21317 0.01715 0.37459 0.0
C391 C 0.19438 0.00981 0.33615 0.0
C392 C 0.19814 0.00775 0.26836 0.0
C393 C 0.22033 0.01281 0.24013 0.0
C394 C 0.23887 0.02031 0.27996 0.0
C395 C 0.23489 0.02215 0.3461 0.0
C396 C 0.2562 0.02916 0.38259 0.0
C397 C 0.27347 0.03347 0.3276 0.0
C398 C 0.2636 0.02795 0.26699 0.0
C399 C 0.26122 0.00813 0.42315 0.0
C400 C 0.25289 0.05201 0.42298 0.0
H401 H 0.34039 0.06708 0.1567 0.0
H402 H 0.29649 0.00843 0.01489 0.0
H403 H 0.26426 0.05287 0.09675 0.0
H404 H 0.24083 0.03624 0.13317 0.0
H405 H 0.25278 0.02605 0.05706 0.0
H406 H 0.28164 0.98543 0.15792 0.0
H407 H 0.26591 0.98785 0.08572 0.0
H408 H 0.25173 0.98942 0.16359 0.0
H409 H 0.3706 0.04389 0.38016 0.0
H410 H 0.3234 0.03161 0.54206 0.0
H411 H 0.29163 0.03796 0.47559 0.0
H412 H 0.3413 0.01127 0.27153 0.0
H413 H 0.36749 0.0304 0.27436 0.0
H414 H 0.35039 0.02923 0.20555 0.0
H415 H 0.35386 0.08293 0.32199 0.0
H416 H 0.33488 0.08438 0.25743 0.0
H417 H 0.36236 0.07279 0.24366 0.0
H418 H 0.35635 0.05694 0.05116 0.0
C419 C 0.33123 0.05364 0.12791 0.0
C420 C 0.41815 0.28304 0.03504 0.0
C421 C 0.4099 0.30496 0.02502 0.0
C422 C 0.39559 0.3147 0.07305 0.0
C423 C 0.40364 0.28521 0.14534 0.0
C424 C 0.41398 0.27301 0.09569 0.0
C425 C 0.4196 0.2494 0.11768 0.0
H426 H 0.43216 0.18297 0.37847 0.0
C427 C 0.40634 0.27375 0.20561 0.0
C428 C 0.41452 0.25192 0.19047 0.0
H429 H 0.43577 0.15946 0.17816 0.0
H430 H 0.42886 0.19852 0.14544 0.0
H431 H 0.46274 0.22657 0.3584 0.0
H432 H 0.38985 0.21491 0.37828 0.0
H433 H 0.39937 0.23971 0.42738 0.0
H434 H 0.41019 0.21205 0.43986 0.0
H435 H 0.44862 0.23105 0.43499 0.0
H436 H 0.45464 0.25456 0.38007 0.0
C437 C 0.44511 0.24632 0.10218 0.0
C438 C 0.40297 0.23038 0.08475 0.0
C439 C 0.42051 0.32754 0.40184 0.0
C440 C 0.431 0.32416 0.46004 0.0
C441 C 0.43295 0.30128 0.47918 0.0
C442 C 0.42579 0.28202 0.43856 0.0
C443 C 0.41757 0.2858 0.37726 0.0
C444 C 0.41443 0.30824 0.36049 0.0
C445 C 0.40704 0.30927 0.292 0.0
C446 C 0.40749 0.28366 0.26938 0.0
C447 C 0.41383 0.2702 0.31933 0.0
C448 C 0.4252 0.32555 0.25533 0.0
C449 C 0.38261 0.31771 0.29264 0.0
C450 C 0.43089 0.18604 0.32755 0.0
C451 C 0.43367 0.16808 0.28091 0.0
C452 C 0.43316 0.17302 0.21491 0.0
C453 C 0.42892 0.19552 0.19615 0.0
C454 C 0.42545 0.21314 0.24399 0.0
C455 C 0.42696 0.20821 0.30835 0.0
C456 C 0.42504 0.2292 0.35295 0.0
C457 C 0.41919 0.24692 0.30581 0.0
C458 C 0.41978 0.23773 0.24169 0.0
C459 C 0.44884 0.23573 0.38353 0.0
C460 C 0.40514 0.22377 0.40267 0.0
H461 H 0.38158 0.31277 0.1688 0.0
H462 H 0.42812 0.27451 0.99764 0.0
H463 H 0.38558 0.23647 0.08162 0.0
H464 H 0.40036 0.21428 0.11211 0.0
H465 H 0.40915 0.22595 0.03484 0.0
H466 H 0.45614 0.26175 0.12119 0.0
H467 H 0.4484 0.24453 0.04918 0.0
H468 H 0.45072 0.23077 0.12427 0.0
H469 H 0.41888 0.34505 0.38646 0.0
H470 H 0.44074 0.29839 0.52447 0.0
H471 H 0.42777 0.26499 0.45536 0.0
H472 H 0.44252 0.31926 0.25805 0.0
H473 H 0.42596 0.34373 0.27616 0.0
H474 H 0.42155 0.32674 0.20393 0.0
H475 H 0.37602 0.32205 0.34226 0.0
H476 H 0.36993 0.30403 0.27195 0.0
H477 H 0.38231 0.33383 0.26516 0.0
H478 H 0.38842 0.33109 0.06618 0.0
C479 C 0.39215 0.30465 0.13297 0.0
Tb480 Tb 0.99467 0.98554 0.63361 0.0
C481 C 0.04771 0.0006 0.6103 0.0
Tb482 Tb 0.02158 0.0174 0.74109 0.0
O483 O 0.99679 0.01382 0.56459 0.0
O484 O 1.00012 0.02096 0.66309 0.0
O485 O 0.02952 0.98638 0.59288 0.0
C486 C 0.04018 0.05513 0.80696 0.0
O487 O 0.04799 0.01464 0.66338 0.0
C488 C 0.01362 0.97291 0.76587 0.0
C489 C 0.96849 0.00251 0.76389 0.0
O490 O 0.05007 0.03598 0.79457 0.0
O491 O 0.01986 0.05284 0.78309 0.0
O492 O 0.01921 0.98908 0.81005 0.0
O493 O 0.01607 0.98203 0.71164 0.0
O494 O 0.9865 0.01716 0.78038 0.0
O495 O 0.96843 0.98812 0.71157 0.0
C496 C 0.97713 0.94678 0.57059 0.0
O497 O 0.96682 0.96585 0.57975 0.0
O498 O 0.99719 0.9498 0.59593 0.0
C499 C 1.00251 0.03001 0.60871 0.0
Tb500 Tb 0.50322 0.01961 0.63853 0.0
C501 C 0.54958 0.99643 0.61852 0.0
Tb502 Tb 0.51241 0.97945 0.72804 0.0
O503 O 0.53154 0.04259 0.67987 0.0
O504 O 0.51432 0.01644 0.733 0.0
O505 O 0.53432 0.00823 0.59078 0.0
C506 C 0.52958 0.95185 0.81118 0.0
O507 O 0.54523 0.98607 0.67441 0.0
C508 C 0.48394 0.96773 0.63395 0.0
C509 C 0.46647 0.00324 0.74993 0.0
O510 O 0.52897 0.94814 0.74902 0.0
O511 O 0.52022 0.97099 0.82679 0.0
O512 O 0.48408 0.95649 0.68698 0.0
O513 O 0.50115 0.98262 0.63372 0.0
O514 O 0.48179 0.99135 0.77716 0.0
O515 O 0.47057 0.01338 0.69356 0.0
C516 C 0.48626 0.04656 0.55325 0.0
O517 O 0.48686 0.05083 0.61525 0.0
O518 O 0.49548 0.02724 0.53913 0.0
C519 C 0.53146 0.03139 0.73303 0.0
Tb520 Tb 0.51794 0.52087 0.64941 0.0
C521 C 0.46474 0.50874 0.63408 0.0
Tb522 Tb 0.49051 0.48765 0.74875 0.0
O523 O 0.51881 0.49271 0.57321 0.0
O524 O 0.51359 0.48533 0.66945 0.0
O525 O 0.48243 0.52483 0.62702 0.0
C526 C 0.47251 0.44806 0.80129 0.0
O527 O 0.46485 0.49152 0.67508 0.0
C528 C 0.49708 0.53204 0.78398 0.0
C529 C 0.54384 0.50228 0.76787 0.0
O530 O 0.46246 0.46737 0.80104 0.0
O531 O 0.49256 0.45129 0.77297 0.0
O532 O 0.49327 0.51542 0.82498 0.0
O533 O 0.49426 0.52328 0.72789 0.0
O534 O 0.52507 0.48903 0.78632 0.0
O535 O 0.54484 0.51592 0.71728 0.0
C536 C 0.53882 0.55912 0.59613 0.0
O537 O 0.54087 0.55338 0.65534 0.0
O538 O 0.52559 0.54296 0.56653 0.0
C539 C 0.51273 0.47631 0.61328 0.0
Tb540 Tb 0.9869 0.50455 0.64091 0.0
C541 C 0.02523 0.47356 0.58608 0.0
Tb542 Tb 0.02832 0.49842 0.72692 0.0
O543 O 0.00795 0.52931 0.58125 0.0
O544 O 0.01565 0.52564 0.67733 0.0
O545 O 1.00306 0.47699 0.58525 0.0
C546 C 0.0698 0.499 0.77943 0.0
O547 O 0.03874 0.48222 0.63355 0.0
C548 C 0.99208 0.46825 0.74127 0.0
C549 C 0.98993 0.52962 0.78189 0.0
O550 O 0.05083 0.48837 0.80168 0.0
O551 O 0.06544 0.50928 0.7273 0.0
O552 O 0.00647 0.4741 0.78677 0.0
O553 O 0.99963 0.4775 0.69029 0.0
O554 O 0.01184 0.52531 0.78477 0.0
O555 O 0.97676 0.52153 0.73308 0.0
C556 C 0.94514 0.50341 0.59027 0.0
O557 O 0.96433 0.51155 0.56293 0.0
O558 O 0.94945 0.49593 0.64636 0.0
C559 C 0.02273 0.53495 0.62587 0.0
H560 H 0.18426 0.98686 0.44779 0.0
H561 H 0.15216 0.0214 0.29877 0.0
H562 H 0.14853 0.98463 0.51155 0.0
H563 H 0.11588 0.01832 0.36233 0.0
H564 H 0.05081 0.98626 0.48263 0.0
H565 H 0.08513 0.98706 0.41168 0.0
H566 H 0.12623 0.01678 0.56906 0.0
H567 H 0.09195 0.01635 0.63988 0.0
C568 C 0.16953 0.99387 0.42831 0.0
C569 C 0.17131 0.00477 0.36853 0.0
C570 C 0.14903 0.99256 0.46501 0.0
C571 C 0.12951 0.00168 0.44259 0.0
C572 C 0.1307 0.01121 0.38097 0.0
C573 C 0.15143 0.01284 0.34439 0.0
C574 C 0.06717 0.99295 0.50222 0.0
C575 C 0.06862 0.00109 0.56725 0.0
C576 C 0.08679 0.99354 0.46134 0.0
C577 C 0.10839 0.00186 0.48481 0.0
C578 C 0.10984 0.01005 0.54971 0.0
C579 C 0.09018 0.00988 0.59025 0.0
H580 H 0.40653 0.14156 0.36289 0.0
H581 H 0.47036 0.14279 0.25255 0.0
H582 H 0.41718 0.10869 0.42229 0.0
H583 H 0.48131 0.10993 0.31272 0.0
H584 H 0.48833 0.04232 0.42123 0.0
H585 H 0.47304 0.06788 0.34463 0.0
H586 H 0.44682 0.10931 0.50456 0.0
H587 H 0.46206 0.08395 0.5804 0.0
C588 C 0.42261 0.13434 0.3503 0.0
C589 C 0.4377 0.14475 0.30351 0.0
C590 C 0.4288 0.11568 0.38462 0.0
C591 C 0.45029 0.10705 0.37318 0.0
C592 C 0.46461 0.11618 0.3226 0.0
C593 C 0.45835 0.13492 0.28799 0.0
C594 C 0.47921 0.05687 0.43973 0.0
C595 C 0.47649 0.06131 0.50665 0.0
C596 C 0.4705 0.07149 0.39597 0.0
C597 C 0.45863 0.09055 0.41847 0.0
C598 C 0.45558 0.09458 0.48554 0.0
C599 C 0.46448 0.08018 0.52907 0.0
H600 H 0.33684 0.48837 0.41616 0.0
H601 H 0.35328 0.56275 0.44448 0.0
H602 H 0.37316 0.48148 0.4652 0.0
H603 H 0.38899 0.55612 0.49408 0.0
H604 H 0.45949 0.53977 0.54077 0.0
H605 H 0.42621 0.54312 0.47633 0.0
H606 H 0.38968 0.48518 0.57315 0.0
H607 H 0.42342 0.48139 0.637 0.0
C608 C 0.34848 0.50321 0.4315 0.0
C609 C 0.34235 0.52608 0.42629 0.0
C610 C 0.3691 0.4993 0.4604 0.0
C611 C 0.38403 0.51824 0.48405 0.0
C612 C 0.37819 0.54109 0.4759 0.0
C613 C 0.35767 0.54493 0.44752 0.0
C614 C 0.44441 0.52768 0.54858 0.0
C615 C 0.44413 0.51049 0.59494 0.0
C616 C 0.42524 0.52964 0.51147 0.0
C617 C 0.40511 0.51455 0.51967 0.0
C618 C 0.40494 0.49698 0.565 0.0
C619 C 0.42423 0.49495 0.60215 0.0
H620 H 0.11223 0.37297 0.43336 0.0
H621 H 0.04946 0.3516 0.33464 0.0
H622 H 0.09672 0.40844 0.47318 0.0
H623 H 0.03446 0.38843 0.36972 0.0
H624 H 1.00242 0.43508 0.5287 0.0
H625 H 0.01867 0.40447 0.46247 0.0
H626 H 0.08503 0.44465 0.46503 0.0
H627 H 0.06886 0.47432 0.53561 0.0
C628 C 0.0952 0.37608 0.41904 0.0
C629 C 0.08183 0.35904 0.38247 0.0
C630 C 0.08636 0.39678 0.4411 0.0
C631 C 0.06402 0.40142 0.42591 0.0
C632 C 0.05143 0.38528 0.38426 0.0
C633 C 0.06018 0.36427 0.36311 0.0
C634 C 0.02042 0.43744 0.51436 0.0
C635 C 0.03446 0.45689 0.53794 0.0
C636 C 0.02979 0.41992 0.47579 0.0
C637 C 0.05337 0.4217 0.45856 0.0
C638 C 0.067 0.44212 0.47872 0.0
C639 C 0.05773 0.45929 0.51881 0.0
H640 H 0.8469 0.02936 0.00214 0.0
H641 H 0.8496 0.95475 0.00317 0.0
H642 H 0.88412 0.03333 0.94397 0.0
H643 H 0.88688 0.95851 0.94596 0.0
H644 H 0.93102 0.97011 0.76105 0.0
H645 H 0.89772 0.96741 0.83474 0.0
H646 H 0.92567 0.02918 0.94166 0.0
H647 H 0.95899 0.03211 0.86728 0.0
C648 C 0.85599 0.01396 0.99237 0.0
C649 C 0.84565 0.99181 0.00813 0.0
C650 C 0.87722 0.01615 0.95858 0.0
C651 C 0.88837 0.99619 0.93925 0.0
C652 C 0.87861 0.97421 0.95893 0.0
C653 C 0.85746 0.97206 0.99273 0.0
C654 C 0.93009 0.98323 0.79997 0.0
C655 C 0.94774 0.00141 0.80776 0.0
C656 C 0.91106 0.98152 0.84284 0.0
C657 C 0.90905 0.99796 0.89469 0.0
C658 C 0.92658 0.01627 0.9022 0.0
C659 C 0.94573 0.01791 0.85951 0.0
H660 H 0.54889 0.8542 0.10555 0.0
H661 H 0.61218 0.85701 0.99217 0.0
H662 H 0.53693 0.88695 0.0471 0.0
H663 H 0.6004 0.88971 0.93424 0.0
H664 H 0.55387 0.91483 0.78051 0.0
H665 H 0.57003 0.88918 0.85377 0.0
H666 H 0.54456 0.92931 0.0174 0.0
H667 H 0.52836 0.95519 0.94338 0.0
C668 C 0.56052 0.86229 0.06958 0.0
C669 C 0.58131 0.85288 0.05275 0.0
C670 C 0.55368 0.881 0.03601 0.0
C671 C 0.56753 0.89058 0.98517 0.0
C672 C 0.58912 0.88234 0.97212 0.0
C673 C 0.59591 0.8637 0.00547 0.0
C674 C 0.55179 0.91823 0.8321 0.0
C675 C 0.53973 0.93684 0.85632 0.0
C676 C 0.56122 0.90367 0.87413 0.0
C677 C 0.55865 0.90726 0.94147 0.0
C678 C 0.54672 0.92605 0.96579 0.0
C679 C 0.53748 0.94084 0.92352 0.0
H680 H 0.6682 0.45733 0.90213 0.0
H681 H 0.65858 0.51589 0.03567 0.0
H682 H 0.63369 0.4645 0.84735 0.0
H683 H 0.62289 0.52185 0.98245 0.0
H684 H 0.54673 0.49366 0.89585 0.0
H685 H 0.58152 0.4907 0.95668 0.0
H686 H 0.62313 0.50542 0.78516 0.0
H687 H 0.58849 0.50909 0.72462 0.0
C688 C 0.65893 0.47186 0.91981 0.0
C689 C 0.66673 0.48636 0.97284 0.0
C690 C 0.63898 0.47577 0.8885 0.0
C691 C 0.62583 0.49384 0.91029 0.0
C692 C 0.63285 0.50782 0.96471 0.0
C693 C 0.65321 0.50426 0.99538 0.0
C694 C 0.56332 0.49643 0.87125 0.0
C695 C 0.56488 0.50144 0.8053 0.0
C696 C 0.58317 0.4949 0.9062 0.0
C697 C 0.60491 0.49784 0.87549 0.0
C698 C 0.60652 0.50311 0.80985 0.0
C699 C 0.58672 0.50521 0.77531 0.0
H700 H 0.97702 0.65745 0.00492 0.0
H701 H 0.90701 0.62714 0.99482 0.0
H702 H 0.99044 0.62103 0.95956 0.0
H703 H 0.92021 0.59023 0.95273 0.0
H704 H 0.94829 0.5473 0.78178 0.0
H705 H 0.93455 0.57814 0.85151 0.0
H706 H 0.99601 0.58079 0.96249 0.0
H707 H 0.01029 0.55029 0.89037 0.0
C708 C 0.9646 0.64262 0.99517 0.0
C709 C 0.94104 0.64498 0.00295 0.0
C710 C 0.97223 0.6217 0.96925 0.0
C711 C 0.95641 0.6027 0.95127 0.0
C712 C 0.93288 0.60464 0.96423 0.0
C713 C 0.92528 0.62565 0.98905 0.0
C714 C 0.95884 0.55421 0.8214 0.0
C715 C 0.98054 0.54641 0.82992 0.0
C716 C 0.95082 0.57186 0.86204 0.0
C717 C 0.96413 0.5821 0.91296 0.0
C718 C 0.98543 0.5736 0.92324 0.0
C719 C 0.99357 0.556 0.88208 0.0
H720 H 0.11187 0.13791 0.5449 0.0
H721 H 0.05221 0.17028 0.4896 0.0
H722 H 0.08727 0.10329 0.57577 0.0
H723 H 0.02756 0.13587 0.52185 0.0
H724 H 0.99804 0.05701 0.50547 0.0
H725 H 0.02054 0.09399 0.48064 0.0
H726 H 0.0576 0.09086 0.65624 0.0
H727 H 0.03617 0.05398 0.67783 0.0
C728 C 0.09348 0.13777 0.54039 0.0
C729 C 0.08397 0.15683 0.51516 0.0
C730 C 0.07938 0.118 0.55819 0.0
C731 C 0.05549 0.11686 0.5508 0.0
C732 C 0.04592 0.13618 0.52736 0.0
C733 C 0.06001 0.15601 0.50994 0.0
C734 C 0.01086 0.06446 0.53884 0.0
C735 C 0.01485 0.05296 0.59516 0.0
C736 C 0.02363 0.08562 0.52491 0.0
C737 C 0.04078 0.09537 0.56675 0.0
C738 C 0.04455 0.08385 0.623 0.0
C739 C 0.03182 0.0629 0.63655 0.0
H740 H 0.34649 0.99623 0.52889 0.0
H741 H 0.39399 0.05502 0.47695 0.0
H742 H 0.37809 0.9761 0.56552 0.0
H743 H 0.4257 0.03508 0.5149 0.0
H744 H 0.47961 0.98483 0.51568 0.0
H745 H 0.44592 0.00182 0.47822 0.0
H746 H 0.4067 0.97596 0.64492 0.0
H747 H 0.44026 0.95895 0.6814 0.0
C748 C 0.36363 0.00515 0.52723 0.0
C749 C 0.36782 0.02719 0.50018 0.0
C750 C 0.38176 0.99354 0.54777 0.0
C751 C 0.40443 0.00379 0.54194 0.0
C752 C 0.40847 0.02643 0.51827 0.0
C753 C 0.39034 0.03798 0.49732 0.0
C754 C 0.46364 0.98261 0.54353 0.0
C755 C 0.46262 0.97136 0.60217 0.0
C756 C 0.44444 0.99242 0.52254 0.0
C757 C 0.42387 0.99089 0.55979 0.0
C758 C 0.4223 0.97756 0.61526 0.0
C759 C 0.4415 0.96768 0.63598 0.0
H760 H 0.47584 0.33042 0.49104 0.0
H761 H 0.41292 0.36414 0.50277 0.0
H762 H 0.49707 0.36685 0.5301 0.0
H763 H 0.43405 0.40044 0.54217 0.0
H764 H 0.47556 0.45278 0.67 0.0
H765 H 0.45703 0.41472 0.64086 0.0
H766 H 0.50557 0.40863 0.481 0.0
H767 H 0.52475 0.44727 0.51242 0.0
C768 C 0.46652 0.34548 0.50361 0.0
C769 C 0.44276 0.34455 0.49469 0.0
C770 C 0.47868 0.36632 0.52493 0.0
C771 C 0.46718 0.38638 0.53853 0.0
C772 C 0.44328 0.38514 0.53215 0.0
C773 C 0.43119 0.36444 0.50993 0.0
C774 C 0.48283 0.44323 0.6302 0.0
C775 C 0.502 0.45281 0.59498 0.0
C776 C 0.47192 0.42147 0.61267 0.0
C777 C 0.47992 0.40874 0.55889 0.0
C778 C 0.49926 0.41808 0.52328 0.0
C779 C 0.5101 0.44014 0.54089 0.0
H780 H 0.13813 0.62456 0.48048 0.0
H781 H 0.1628 0.56588 0.57158 0.0
H782 H 0.10067 0.61618 0.5341 0.0
H783 H 0.12576 0.55824 0.62668 0.0
H784 H 0.03944 0.55462 0.51569 0.0
H785 H 0.07634 0.57713 0.4984 0.0
H786 H 0.09116 0.57259 0.69988 0.0
H787 H 0.05344 0.55096 0.71796 0.0
C788 C 0.13587 0.61044 0.51369 0.0
C789 C 0.15324 0.59545 0.5201 0.0
C790 C 0.11447 0.60574 0.54452 0.0
C791 C 0.1103 0.58631 0.58333 0.0
C792 C 0.12858 0.57335 0.59697 0.0
C793 C 0.14988 0.57782 0.56541 0.0
C794 C 0.05036 0.55882 0.55656 0.0
C795 C 0.04397 0.5505 0.61771 0.0
C796 C 0.07138 0.57186 0.54682 0.0
C797 C 0.08653 0.57659 0.5979 0.0
C798 C 0.07975 0.56913 0.65981 0.0
C799 C 0.05839 0.55652 0.66986 0.0
H800 H 0.96812 0.83224 0.89041 0.0
H801 H 0.90695 0.86474 0.84927 0.0
H802 H 0.99183 0.86625 0.8511 0.0
H803 H 0.93064 0.89889 0.81093 0.0
H804 H 0.97896 0.94849 0.70022 0.0
H805 H 0.95848 0.91128 0.72415 0.0
H806 H 0.99931 0.90825 0.89272 0.0
H807 H 0.02066 0.94557 0.86592 0.0
C808 C 0.95975 0.84642 0.87154 0.0
C809 C 0.93568 0.84584 0.87268 0.0
C810 C 0.97333 0.866 0.84996 0.0
C811 C 0.96309 0.88527 0.82854 0.0
C812 C 0.93902 0.88423 0.82687 0.0
C813 C 0.92545 0.86474 0.84895 0.0
C814 C 0.98432 0.93956 0.74041 0.0
C815 C 1.00196 0.94964 0.77946 0.0
C816 C 0.97218 0.91838 0.75523 0.0
C817 C 0.97731 0.90679 0.81022 0.0
C818 C 0.99519 0.91665 0.8494 0.0
C819 C 0.0073 0.93802 0.83436 0.0
H820 H 0.66545 0.00278 0.86761 0.0
H821 H 0.61735 0.9416 0.89016 0.0
H822 H 0.63569 0.02303 0.82101 0.0
H823 H 0.58751 0.96213 0.84422 0.0
H824 H 0.53444 0.01412 0.85115 0.0
H825 H 0.56738 0.99638 0.89047 0.0
H826 H 0.60884 0.02298 0.72881 0.0
H827 H 0.57577 0.04047 0.68939 0.0
C828 C 0.64875 0.99336 0.86072 0.0
C829 C 0.6437 0.97063 0.88315 0.0
C830 C 0.63166 0.00509 0.83457 0.0
C831 C 0.60922 0.99434 0.83072 0.0
C832 C 0.60457 0.97101 0.84846 0.0
C833 C 0.62167 0.95923 0.87429 0.0
C834 C 0.55072 0.01639 0.82477 0.0
C835 C 0.55249 0.0279 0.76649 0.0
C836 C 0.56947 0.00616 0.84683 0.0
C837 C 0.59038 0.00766 0.81133 0.0
C838 C 0.59282 0.02136 0.75665 0.0
C839 C 0.57398 0.03155 0.73449 0.0
H840 H 0.5583 0.67467 0.83836 0.0
H841 H 0.6118 0.63098 0.87846 0.0
H842 H 0.53372 0.64024 0.80355 0.0
H843 H 0.58716 0.59641 0.84327 0.0
H844 H 0.52626 0.54246 0.88231 0.0
H845 H 0.55276 0.57751 0.89702 0.0
H846 H 0.52623 0.60635 0.72878 0.0
H847 H 0.49934 0.57129 0.71505 0.0
C848 C 0.56515 0.6578 0.8374 0.0
C849 C 0.58689 0.6555 0.86187 0.0
C850 C 0.55098 0.63802 0.81779 0.0
C851 C 0.5583 0.61558 0.82228 0.0
C852 C 0.58083 0.61346 0.84104 0.0
C853 C 0.595 0.63323 0.86067 0.0
C854 C 0.52585 0.55647 0.84922 0.0
C855 C 0.51083 0.55431 0.79764 0.0
C856 C 0.54129 0.57635 0.85686 0.0
C857 C 0.54188 0.59451 0.8133 0.0
C858 C 0.52619 0.59266 0.76307 0.0
C859 C 0.51079 0.5727 0.75534 0.0
H860 H 0.86609 0.39243 0.88008 0.0
H861 H 0.84906 0.44994 0.76889 0.0
H862 H 0.90555 0.39755 0.83745 0.0
H863 H 0.88823 0.45442 0.72489 0.0
H864 H 0.97174 0.45284 0.85303 0.0
H865 H 0.93267 0.43469 0.8685 0.0
H866 H 0.92243 0.43562 0.66333 0.0
H867 H 0.96201 0.45293 0.64752 0.0
C868 C 0.87057 0.40567 0.84504 0.0
C869 C 0.85459 0.42115 0.82911 0.0
C870 C 0.89311 0.40854 0.82062 0.0
C871 C 0.89994 0.42663 0.77888 0.0
C872 C 0.88336 0.4403 0.75695 0.0
C873 C 0.86086 0.43764 0.78203 0.0
C874 C 0.96131 0.44871 0.81113 0.0
C875 C 0.9696 0.4548 0.74935 0.0
C876 C 0.93902 0.43821 0.81988 0.0
C877 C 0.92457 0.43383 0.76704 0.0
C878 C 0.93322 0.43892 0.70479 0.0
C879 C 0.95573 0.44897 0.69592 0.0
H880 H 0.09136 0.19746 0.94384 0.0
H881 H 0.08902 0.15133 0.1037 0.0
H882 H 0.07825 0.16388 0.87219 0.0
H883 H 0.07722 0.11834 0.03234 0.0
H884 H 0.07926 0.06076 0.87618 0.0
H885 H 0.09521 0.09636 0.93432 0.0
H886 H 0.0408 0.13393 0.86685 0.0
H887 H 0.02472 0.09828 0.80937 0.0
C888 C 0.08825 0.18029 0.96364 0.0
C889 C 0.09189 0.17713 0.02932 0.0
C890 C 0.08085 0.16111 0.92266 0.0
C891 C 0.07722 0.13847 0.94662 0.0
C892 C 0.08051 0.13545 0.01217 0.0
C893 C 0.08745 0.15447 0.05299 0.0
C894 C 0.07084 0.07666 0.87351 0.0
C895 C 0.05063 0.07675 0.8392 0.0
C896 C 0.07994 0.09701 0.90658 0.0
C897 C 0.06919 0.11786 0.90503 0.0
C898 C 0.04951 0.11816 0.8684 0.0
C899 C 0.04022 0.09772 0.83614 0.0
H900 H 0.34169 0.98734 0.99724 0.0
H901 H 0.34553 0.05695 0.92613 0.0
H902 H 0.37302 0.97791 0.92211 0.0
H903 H 0.37695 0.0479 0.852 0.0
H904 H 0.42955 0.02362 0.70676 0.0
H905 H 0.39224 0.02666 0.76058 0.0
H906 H 0.41387 0.98953 0.92111 0.0
H907 H 0.45099 0.98601 0.8667 0.0
C908 C 0.34861 0.0003 0.96366 0.0
C909 C 0.34106 0.02282 0.96721 0.0
C910 C 0.36687 0.99509 0.92143 0.0
C911 C 0.3779 0.01227 0.88165 0.0
C912 C 0.36892 0.03414 0.88145 0.0
C913 C 0.35079 0.03935 0.92379 0.0
C914 C 0.42638 0.01603 0.75349 0.0
C915 C 0.44351 0.00478 0.78257 0.0
C916 C 0.40491 0.01779 0.78442 0.0
C917 C 0.39991 0.00838 0.84542 0.0
C918 C 0.41687 0.99669 0.8738 0.0
C919 C 0.43833 0.99489 0.84281 0.0
H920 H 0.45426 0.31589 0.98644 0.0
H921 H 0.38498 0.32885 0.94517 0.0
H922 H 0.46896 0.34929 0.92407 0.0
H923 H 0.3996 0.36207 0.88143 0.0
H924 H 0.43198 0.43844 0.86898 0.0
H925 H 0.41638 0.40074 0.90975 0.0
H926 H 0.47464 0.3685 0.82451 0.0
H927 H 0.49042 0.40627 0.78575 0.0
C928 C 0.44221 0.32528 0.96166 0.0
C929 C 0.41848 0.31982 0.97093 0.0
C930 C 0.45061 0.34459 0.92616 0.0
C931 C 0.43545 0.35877 0.89878 0.0
C932 C 0.41176 0.35197 0.9033 0.0
C933 C 0.40337 0.33274 0.93906 0.0
C934 C 0.44137 0.42326 0.85903 0.0
C935 C 0.4625 0.42532 0.82495 0.0
C936 C 0.43236 0.40157 0.88175 0.0
C937 C 0.44423 0.38146 0.87044 0.0
C938 C 0.46517 0.38359 0.835 0.0
C939 C 0.4742 0.40525 0.81269 0.0
H940 H 0.18734 0.48182 0.019 0.0
H941 H 0.19149 0.55464 0.97392 0.0
H942 H 0.15657 0.47314 0.94176 0.0
H943 H 0.16066 0.54623 0.89791 0.0
H944 H 0.11003 0.5237 0.74259 0.0
H945 H 0.14647 0.52755 0.79843 0.0
H946 H 0.11653 0.4813 0.94357 0.0
H947 H 0.08038 0.47724 0.88716 0.0
C948 C 0.18216 0.49583 0.99112 0.0
C949 C 0.19181 0.5189 0.00249 0.0
C950 C 0.1643 0.49095 0.94754 0.0
C951 C 0.15584 0.50903 0.9141 0.0
C952 C 0.16673 0.53181 0.92226 0.0
C953 C 0.18441 0.53667 0.96597 0.0
C954 C 0.11137 0.51417 0.78604 0.0
C955 C 0.09233 0.50024 0.81067 0.0
C956 C 0.13222 0.51643 0.81823 0.0
C957 C 0.13454 0.50475 0.87569 0.0
C958 C 0.11558 0.49029 0.89904 0.0
C959 C 0.09476 0.4881 0.867 0.0
H960 H 0.96182 0.81112 0.37505 0.0
H961 H 0.89197 0.82898 0.39604 0.0
H962 H 0.97469 0.84584 0.43998 0.0
H963 H 0.9046 0.86343 0.46345 0.0
H964 H 0.93932 0.93831 0.49588 0.0
H965 H 0.92405 0.9007 0.44747 0.0
H966 H 0.97643 0.86664 0.53923 0.0
H967 H 0.99218 0.9043 0.58439 0.0
C968 C 0.94911 0.82203 0.39576 0.0
C969 C 0.92592 0.81737 0.38058 0.0
C970 C 0.95646 0.84205 0.43295 0.0
C971 C 0.94074 0.85774 0.45647 0.0
C972 C 0.91729 0.85212 0.44488 0.0
C973 C 0.90998 0.83223 0.40701 0.0
C974 C 0.94749 0.92272 0.50543 0.0
C975 C 0.96709 0.9242 0.54287 0.0
C976 C 0.93864 0.9011 0.47834 0.0
C977 C 0.94904 0.8805 0.48911 0.0
C978 C 0.96825 0.88209 0.52855 0.0
C979 C 0.97726 0.90369 0.55463 0.0
H980 H 0.68081 0.02293 0.40472 0.0
H981 H 0.67301 0.94903 0.43702 0.0
H982 H 0.64698 0.02826 0.47498 0.0
H983 H 0.63932 0.95416 0.50706 0.0
H984 H 0.5674 0.01837 0.51026 0.0
H985 H 0.60553 0.01668 0.46004 0.0
H986 H 0.62316 0.97139 0.60766 0.0
H987 H 0.58503 0.9729 0.65779 0.0
C988 C 0.6724 0.008 0.42899 0.0
C989 C 0.67971 0.98563 0.41626 0.0
C990 C 0.6528 0.01095 0.46832 0.0
C991 C 0.64022 0.99159 0.49612 0.0
C992 C 0.64861 0.96949 0.48695 0.0
C993 C 0.66801 0.96653 0.44712 0.0
C994 C 0.57937 0.00804 0.53214 0.0
C995 C 0.5729 0.99554 0.58773 0.0
C996 C 0.60137 0.00728 0.50367 0.0
C997 C 0.6175 0.99392 0.52979 0.0
C998 C 0.61114 0.98168 0.58588 0.0
C999 C 0.5892 0.98255 0.61458 0.0
H1000 H 0.55594 0.68689 0.38504 0.0
H1001 H 0.62424 0.67441 0.43763 0.0
H1002 H 0.5399 0.65599 0.45535 0.0
H1003 H 0.60825 0.64351 0.50799 0.0
H1004 H 0.56807 0.59385 0.6512 0.0
H1005 H 0.58216 0.63139 0.60528 0.0
H1006 H 0.54322 0.61256 0.43445 0.0
H1007 H 0.52944 0.5752 0.47978 0.0
C1008 C 0.56746 0.6782 0.41368 0.0
C1009 C 0.59132 0.68297 0.40575 0.0
C1010 C 0.55831 0.66031 0.45326 0.0
C1011 C 0.57285 0.64706 0.48623 0.0
C1012 C 0.59661 0.6534 0.48323 0.0
C1013 C 0.60577 0.6711 0.44305 0.0
C1014 C 0.56263 0.59778 0.60376 0.0
C1015 C 0.54785 0.58156 0.5687 0.0
C1016 C 0.57061 0.61925 0.57766 0.0
C1017 C 0.5636 0.62502 0.51658 0.0
C1018 C 0.54861 0.60882 0.48209 0.0
C1019 C 0.54092 0.58731 0.50771 0.0
H1020 H 0.82219 0.44345 0.4147 0.0
H1021 H 0.8288 0.51303 0.34266 0.0
H1022 H 0.85197 0.45504 0.49218 0.0
H1023 H 0.8585 0.52496 0.42106 0.0
H1024 H 0.93461 0.52022 0.47539 0.0
H1025 H 0.89796 0.51516 0.42182 0.0
H1026 H 0.86735 0.47798 0.5846 0.0
H1027 H 0.90434 0.48286 0.63778 0.0
C1028 C 0.82936 0.46154 0.4175 0.0
C1029 C 0.82318 0.47735 0.37274 0.0
C1030 C 0.84651 0.46821 0.46183 0.0
C1031 C 0.858 0.49084 0.46218 0.0
C1032 C 0.85031 0.50726 0.42131 0.0
C1033 C 0.83303 0.50058 0.3771 0.0
C1034 C 0.91999 0.51119 0.50002 0.0
C1035 C 0.92236 0.50182 0.56056 0.0
C1036 C 0.89887 0.50847 0.4696 0.0
C1037 C 0.87956 0.49621 0.49885 0.0
C1038 C 0.88184 0.48738 0.56041 0.0
C1039 C 0.903 0.49021 0.59099 0.0
loop_
_geom_bond_atom_site_label_1
_geom_bond_atom_site_label_2
_geom_bond_distance
_geom_bond_site_symmetry_2
_ccdc_geom_bond_type
C0 C1 1.391 . S
C0 C4 1.391 . S
C0 H42 0.948 . S
C1 C0 1.391 . S
C1 C2 1.391 . S
C2 C1 1.391 . S
C2 H58 0.947 . S
C2 C59 1.392 . S
C3 C4 1.391 . S
C3 C7 1.397 . S
C3 C59 1.419 . S
C4 C0 1.391 . S
C4 C3 1.391 . S
C4 C5 1.399 . S
C5 C4 1.399 . S
C5 C8 1.396 . S
C5 C17 1.453 . S
C5 C18 1.684 . S
H6 C30 0.948 . S
C7 C3 1.397 . S
C7 C8 1.394 . S
C7 C26 1.723 . S
C8 C5 1.396 . S
C8 C7 1.394 . S
C8 C38 1.723 . S
H9 C32 0.947 . S
H10 C33 0.948 . S
H11 C39 0.982 . S
H12 C40 0.979 . S
H13 C40 0.980 . S
H14 C40 0.983 . S
H15 C39 0.979 . S
H16 C39 0.977 . S
C17 C5 1.453 . S
C17 H46 0.982 . S
C17 H47 0.979 . S
C17 H48 0.977 . S
C18 C5 1.684 . S
C18 H43 0.979 . S
C18 H44 0.980 . S
C18 H45 0.983 . S
C19 C20 1.391 . S
C19 C24 1.391 . S
C19 H49 0.948 . S
C20 C19 1.391 . S
C20 C21 1.391 . S
C21 C20 1.391 . S
C21 C22 1.392 . S
C21 H50 0.947 . S
C22 C21 1.392 . S
C22 C23 1.419 . S
C22 H51 0.948 . S
C23 C22 1.419 . S
C23 C24 1.391 . S
C23 C27 1.394 1_556 S
C24 C19 1.391 . S
C24 C23 1.391 . S
C24 C25 1.399 1_556 S
C25 C24 1.399 1_554 S
C25 C26 1.396 . S
C25 C28 1.453 . S
C25 C29 1.684 . S
C26 C7 1.723 . S
C26 C25 1.396 . S
C26 C27 1.397 . S
C27 C23 1.394 1_554 S
C27 C26 1.397 . S
C27 C37 1.723 1_554 S
C28 C25 1.453 . S
C28 H52 0.982 . S
C28 H53 0.979 . S
C28 H54 0.977 . S
C29 C25 1.684 . S
C29 H55 0.979 . S
C29 H56 0.980 . S
C29 H57 0.983 . S
C30 H6 0.948 . S
C30 C31 1.391 1_556 S
C30 C35 1.391 . S
C31 C30 1.391 1_554 S
C31 C32 1.391 . S
C32 H9 0.947 . S
C32 C31 1.391 . S
C32 C33 1.392 . S
C33 H10 0.948 . S
C33 C32 1.392 . S
C33 C34 1.419 . S
C34 C33 1.419 . S
C34 C35 1.391 1_554 S
C34 C38 1.397 . S
C35 C30 1.391 . S
C35 C34 1.391 1_556 S
C35 C36 1.399 . S
C36 C35 1.399 . S
C36 C37 1.396 . S
C36 C39 1.453 . S
C36 C40 1.684 . S
C37 C27 1.723 1_556 S
C37 C36 1.396 . S
C37 C38 1.394 1_556 S
C38 C8 1.723 . S
C38 C34 1.397 . S
C38 C37 1.394 1_554 S
C39 H11 0.982 . S
C39 H15 0.979 . S
C39 H16 0.977 . S
C39 C36 1.453 . S
C40 H12 0.979 . S
C40 H13 0.980 . S
C40 H14 0.983 . S
C40 C36 1.684 . S
H41 C59 0.948 . S
H42 C0 0.948 . S
H43 C18 0.979 . S
H44 C18 0.980 . S
H45 C18 0.983 . S
H46 C17 0.982 . S
H47 C17 0.979 . S
H48 C17 0.977 . S
H49 C19 0.948 . S
H50 C21 0.947 . S
H51 C22 0.948 . S
H52 C28 0.982 . S
H53 C28 0.979 . S
H54 C28 0.977 . S
H55 C29 0.979 . S
H56 C29 0.980 . S
H57 C29 0.983 . S
H58 C2 0.947 . S
C59 C2 1.392 . S
C59 C3 1.419 . S
C59 H41 0.948 . S
C60 C61 1.391 . S
C60 C64 1.391 . S
C60 H102 0.948 . S
C61 C60 1.391 . S
C61 C62 1.391 . S
C62 C61 1.391 . S
C62 H118 0.947 . S
C62 C119 1.392 . S
C63 C64 1.391 . S
C63 C67 1.397 . S
C63 C119 1.419 . S
C64 C60 1.391 . S
C64 C63 1.391 . S
C64 C65 1.399 . S
C65 C64 1.399 . S
C65 C68 1.396 . S
C65 C77 1.453 . S
C65 C78 1.684 . S
H66 C90 0.948 . S
C67 C63 1.397 . S
C67 C68 1.394 . S
C67 C86 1.723 1_556 S
C68 C65 1.396 . S
C68 C67 1.394 . S
C68 C98 1.723 . S
H69 C92 0.947 . S
H70 C93 0.948 . S
H71 C99 0.982 . S
H72 C100 0.979 . S
H73 C100 0.980 . S
H74 C100 0.983 . S
H75 C99 0.979 . S
H76 C99 0.977 . S
C77 C65 1.453 . S
C77 H106 0.982 . S
C77 H107 0.979 . S
C77 H108 0.977 . S
C78 C65 1.684 . S
C78 H103 0.979 . S
C78 H104 0.980 . S
C78 H105 0.983 . S
C79 C80 1.391 . S
C79 C84 1.391 . S
C79 H109 0.948 . S
C80 C79 1.391 . S
C80 C81 1.391 . S
C81 C80 1.391 . S
C81 C82 1.392 . S
C81 H110 0.947 . S
C82 C81 1.392 . S
C82 C83 1.419 . S
C82 H111 0.948 . S
C83 C82 1.419 . S
C83 C84 1.391 . S
C83 C87 1.397 . S
C84 C79 1.391 . S
C84 C83 1.391 . S
C84 C85 1.399 . S
C85 C84 1.399 . S
C85 C86 1.396 . S
C85 C88 1.453 . S
C85 C89 1.684 . S
C86 C67 1.723 1_554 S
C86 C85 1.396 . S
C86 C87 1.394 . S
C87 C83 1.397 . S
C87 C86 1.394 . S
C87 C97 1.723 . S
C88 C85 1.453 . S
C88 H112 0.982 . S
C88 H113 0.979 . S
C88 H114 0.977 . S
C89 C85 1.684 . S
C89 H115 0.979 . S
C89 H116 0.980 . S
C89 H117 0.983 . S
C90 H66 0.948 . S
C90 C91 1.391 1_554 S
C90 C95 1.391 . S
C91 C90 1.391 1_556 S
C91 C92 1.391 . S
C92 H69 0.947 . S
C92 C91 1.391 . S
C92 C93 1.392 . S
C93 H70 0.948 . S
C93 C92 1.392 . S
C93 C94 1.419 . S
C94 C93 1.419 . S
C94 C95 1.391 1_556 S
C94 C98 1.397 . S
C95 C90 1.391 . S
C95 C94 1.391 1_554 S
C95 C96 1.399 . S
C96 C95 1.399 . S
C96 C97 1.396 . S
C96 C99 1.453 . S
C96 C100 1.684 . S
C97 C87 1.723 . S
C97 C96 1.396 . S
C97 C98 1.394 1_554 S
C98 C68 1.723 . S
C98 C94 1.397 . S
C98 C97 1.394 1_556 S
C99 H71 0.982 . S
C99 H75 0.979 . S
C99 H76 0.977 . S
C99 C96 1.453 . S
C100 H72 0.979 . S
C100 H73 0.980 . S
C100 H74 0.983 . S
C100 C96 1.684 . S
H101 C119 0.948 . S
H102 C60 0.948 . S
H103 C78 0.979 . S
H104 C78 0.980 . S
H105 C78 0.983 . S
H106 C77 0.982 . S
H107 C77 0.979 . S
H108 C77 0.977 . S
H109 C79 0.948 . S
H110 C81 0.947 . S
H111 C82 0.948 . S
H112 C88 0.982 . S
H113 C88 0.979 . S
H114 C88 0.977 . S
H115 C89 0.979 . S
H116 C89 0.980 . S
H117 C89 0.983 . S
H118 C62 0.947 . S
C119 C62 1.392 . S
C119 C63 1.419 . S
C119 H101 0.948 . S
C120 C121 1.391 . S
C120 C124 1.391 . S
C120 H162 0.948 . S
C121 C120 1.391 . S
C121 C122 1.391 1_554 S
C122 C121 1.391 1_556 S
C122 H178 0.947 . S
C122 C179 1.392 . S
C123 C124 1.391 . S
C123 C127 1.397 1_565 S
C123 C179 1.419 1_554 S
C124 C120 1.391 . S
C124 C123 1.391 . S
C124 C125 1.399 . S
C125 C124 1.399 . S
C125 C128 1.396 1_565 S
C125 C137 1.453 1_565 S
C125 C138 1.684 . S
H126 C150 0.948 . S
C127 C123 1.397 1_545 S
C127 C128 1.394 . S
C127 C146 1.722 . S
C128 C125 1.396 1_545 S
C128 C127 1.394 . S
C128 C158 1.723 . S
H129 C152 0.947 . S
H130 C153 0.948 . S
H131 C159 0.982 . S
H132 C160 0.979 . S
H133 C160 0.980 . S
H134 C160 0.983 . S
H135 C159 0.979 . S
H136 C159 0.977 . S
C137 C125 1.453 1_545 S
C137 H166 0.982 . S
C137 H167 0.979 . S
C137 H168 0.977 . S
C138 C125 1.684 . S
C138 H163 0.979 . S
C138 H164 0.980 . S
C138 H165 0.983 . S
C139 C140 1.391 . S
C139 C144 1.391 . S
C139 H169 0.948 . S
C140 C139 1.391 . S
C140 C141 1.391 . S
C141 C140 1.391 . S
C141 C142 1.392 1_556 S
C141 H170 0.947 . S
C142 C141 1.392 1_554 S
C142 C143 1.419 . S
C142 H171 0.948 . S
C143 C142 1.419 . S
C143 C144 1.391 1_554 S
C143 C147 1.397 1_565 S
C144 C139 1.391 . S
C144 C143 1.391 1_556 S
C144 C145 1.399 . S
C145 C144 1.399 . S
C145 C146 1.396 1_566 S
C145 C148 1.453 1_565 S
C145 C149 1.684 . S
C146 C127 1.722 . S
C146 C145 1.396 1_544 S
C146 C147 1.394 . S
C147 C143 1.397 1_545 S
C147 C146 1.394 . S
C147 C157 1.723 . S
C148 C145 1.453 1_545 S
C148 H172 0.982 . S
C148 H173 0.979 . S
C148 H174 0.977 . S
C149 C145 1.684 . S
C149 H175 0.979 . S
C149 H176 0.980 . S
C149 H177 0.983 . S
C150 H126 0.948 . S
C150 C151 1.391 . S
C150 C155 1.391 . S
C151 C150 1.391 . S
C151 C152 1.391 . S
C152 H129 0.947 . S
C152 C151 1.391 . S
C152 C153 1.392 . S
C153 H130 0.948 . S
C153 C152 1.392 . S
C153 C154 1.419 . S
C154 C153 1.419 . S
C154 C155 1.391 . S
C154 C158 1.397 1_565 S
C155 C150 1.391 . S
C155 C154 1.391 . S
C155 C156 1.399 . S
C156 C155 1.399 . S
C156 C157 1.396 1_565 S
C156 C159 1.453 1_565 S
C156 C160 1.684 . S
C157 C147 1.723 . S
C157 C156 1.396 1_545 S
C157 C158 1.394 . S
C158 C128 1.723 . S
C158 C154 1.397 1_545 S
C158 C157 1.394 . S
C159 H131 0.982 . S
C159 H135 0.979 . S
C159 H136 0.977 . S
C159 C156 1.453 1_545 S
C160 H132 0.979 . S
C160 H133 0.980 . S
C160 H134 0.983 . S
C160 C156 1.684 . S
H161 C179 0.948 . S
H162 C120 0.948 . S
H163 C138 0.979 . S
H164 C138 0.980 . S
H165 C138 0.983 . S
H166 C137 0.982 . S
H167 C137 0.979 . S
H168 C137 0.977 . S
H169 C139 0.948 . S
H170 C141 0.947 . S
H171 C142 0.948 . S
H172 C148 0.982 . S
H173 C148 0.979 . S
H174 C148 0.977 . S
H175 C149 0.979 . S
H176 C149 0.980 . S
H177 C149 0.983 . S
H178 C122 0.947 . S
C179 C122 1.392 . S
C179 C123 1.419 1_556 S
C179 H161 0.948 . S
C180 C181 1.391 . S
C180 C184 1.391 . S
C180 H222 0.948 . S
C181 C180 1.391 . S
C181 C182 1.391 . S
C182 C181 1.391 . S
C182 H238 0.947 . S
C182 C239 1.392 . S
C183 C184 1.391 . S
C183 C187 1.397 . S
C183 C239 1.419 . S
C184 C180 1.391 . S
C184 C183 1.391 . S
C184 C185 1.399 . S
C185 C184 1.399 . S
C185 C188 1.396 . S
C185 C197 1.453 . S
C185 C198 1.684 . S
H186 C210 0.948 . S
C187 C183 1.397 . S
C187 C188 1.394 . S
C187 C206 1.723 . S
C188 C185 1.396 . S
C188 C187 1.394 . S
C188 C218 1.723 . S
H189 C212 0.947 . S
H190 C213 0.948 . S
H191 C219 0.982 . S
H192 C220 0.979 . S
H193 C220 0.980 . S
H194 C220 0.983 . S
H195 C219 0.979 . S
H196 C219 0.977 . S
C197 C185 1.453 . S
C197 H226 0.982 . S
C197 H227 0.979 . S
C197 H228 0.977 . S
C198 C185 1.684 . S
C198 H223 0.979 . S
C198 H224 0.980 . S
C198 H225 0.983 . S
C199 C200 1.391 . S
C199 C204 1.391 . S
C199 H229 0.948 . S
C200 C199 1.391 . S
C200 C201 1.391 . S
C201 C200 1.391 . S
C201 C202 1.392 . S
C201 H230 0.947 . S
C202 C201 1.392 . S
C202 C203 1.419 . S
C202 H231 0.948 . S
C203 C202 1.419 . S
C203 C204 1.391 . S
C203 C207 1.397 1_556 S
C204 C199 1.391 . S
C204 C203 1.391 . S
C204 C205 1.399 1_556 S
C205 C204 1.399 1_554 S
C205 C206 1.396 . S
C205 C208 1.453 . S
C205 C209 1.684 . S
C206 C187 1.723 . S
C206 C205 1.396 . S
C206 C207 1.394 . S
C207 C203 1.397 1_554 S
C207 C206 1.394 . S
C207 C217 1.723 . S
C208 C205 1.453 . S
C208 H232 0.982 . S
C208 H233 0.979 . S
C208 H234 0.977 . S
C209 C205 1.684 . S
C209 H235 0.979 . S
C209 H236 0.980 . S
C209 H237 0.983 . S
C210 H186 0.948 . S
C210 C211 1.391 1_556 S
C210 C215 1.391 1_556 S
C211 C210 1.391 1_554 S
C211 C212 1.391 . S
C212 H189 0.947 . S
C212 C211 1.391 . S
C212 C213 1.392 . S
C213 H190 0.948 . S
C213 C212 1.392 . S
C213 C214 1.419 . S
C214 C213 1.419 . S
C214 C215 1.391 . S
C214 C218 1.397 . S
C215 C210 1.391 1_554 S
C215 C214 1.391 . S
C215 C216 1.399 1_554 S
C216 C215 1.399 1_556 S
C216 C217 1.396 1_556 S
C216 C219 1.453 . S
C216 C220 1.684 . S
C217 C207 1.723 . S
C217 C216 1.396 1_554 S
C217 C218 1.394 . S
C218 C188 1.723 . S
C218 C214 1.397 . S
C218 C217 1.394 . S
C219 H191 0.982 . S
C219 H195 0.979 . S
C219 H196 0.977 . S
C219 C216 1.453 . S
C220 H192 0.979 . S
C220 H193 0.980 . S
C220 H194 0.983 . S
C220 C216 1.684 . S
H221 C239 0.948 . S
H222 C180 0.948 . S
H223 C198 0.979 . S
H224 C198 0.980 . S
H225 C198 0.983 . S
H226 C197 0.982 . S
H227 C197 0.979 . S
H228 C197 0.977 . S
H229 C199 0.948 . S
H230 C201 0.947 . S
H231 C202 0.948 . S
H232 C208 0.982 . S
H233 C208 0.979 . S
H234 C208 0.977 . S
H235 C209 0.979 . S
H236 C209 0.980 . S
H237 C209 0.983 . S
H238 C182 0.947 . S
C239 C182 1.392 . S
C239 C183 1.419 . S
C239 H221 0.948 . S
C240 C241 1.391 . S
C240 C244 1.391 . S
C240 H282 0.948 . S
C241 C240 1.391 . S
C241 C242 1.391 . S
C242 C241 1.391 . S
C242 H298 0.947 . S
C242 C299 1.392 . S
C243 C244 1.391 . S
C243 C247 1.397 . S
C243 C299 1.419 . S
C244 C240 1.391 . S
C244 C243 1.391 . S
C244 C245 1.399 . S
C245 C244 1.399 . S
C245 C248 1.396 . S
C245 C257 1.453 . S
C245 C258 1.684 . S
H246 C270 0.948 . S
C247 C243 1.397 . S
C247 C248 1.394 . S
C247 C266 1.723 . S
C248 C245 1.396 . S
C248 C247 1.394 . S
C248 C278 1.723 . S
H249 C272 0.947 . S
H250 C273 0.948 . S
H251 C279 0.982 . S
H252 C280 0.979 . S
H253 C280 0.980 . S
H254 C280 0.983 . S
H255 C279 0.979 . S
H256 C279 0.977 . S
C257 C245 1.453 . S
C257 H286 0.982 . S
C257 H287 0.979 . S
C257 H288 0.977 . S
C258 C245 1.684 . S
C258 H283 0.979 . S
C258 H284 0.980 . S
C258 H285 0.983 . S
C259 C260 1.391 . S
C259 C264 1.391 . S
C259 H289 0.948 . S
C260 C259 1.391 . S
C260 C261 1.391 . S
C261 C260 1.391 . S
C261 C262 1.392 . S
C261 H290 0.947 . S
C262 C261 1.392 . S
C262 C263 1.419 . S
C262 H291 0.948 . S
C263 C262 1.419 . S
C263 C264 1.391 . S
C263 C267 1.397 . S
C264 C259 1.391 . S
C264 C263 1.391 . S
C264 C265 1.399 . S
C265 C264 1.399 . S
C265 C266 1.396 . S
C265 C268 1.453 . S
C265 C269 1.684 . S
C266 C247 1.723 . S
C266 C265 1.396 . S
C266 C267 1.394 . S
C267 C263 1.397 . S
C267 C266 1.394 . S
C267 C277 1.723 . S
C268 C265 1.453 . S
C268 H292 0.982 . S
C268 H293 0.979 . S
C268 H294 0.977 . S
C269 C265 1.684 . S
C269 H295 0.979 . S
C269 H296 0.980 . S
C269 H297 0.983 . S
C270 H246 0.948 . S
C270 C271 1.391 . S
C270 C275 1.391 . S
C271 C270 1.391 . S
C271 C272 1.391 . S
C272 H249 0.947 . S
C272 C271 1.391 . S
C272 C273 1.392 . S
C273 H250 0.948 . S
C273 C272 1.392 . S
C273 C274 1.419 . S
C274 C273 1.419 . S
C274 C275 1.391 . S
C274 C278 1.397 . S
C275 C270 1.391 . S
C275 C274 1.391 . S
C275 C276 1.399 . S
C276 C275 1.399 . S
C276 C277 1.396 . S
C276 C279 1.453 . S
C276 C280 1.684 . S
C277 C267 1.723 . S
C277 C276 1.396 . S
C277 C278 1.394 . S
C278 C248 1.723 . S
C278 C274 1.397 . S
C278 C277 1.394 . S
C279 H251 0.982 . S
C279 H255 0.979 . S
C279 H256 0.977 . S
C279 C276 1.453 . S
C280 H252 0.979 . S
C280 H253 0.980 . S
C280 H254 0.983 . S
C280 C276 1.684 . S
H281 C299 0.948 . S
H282 C240 0.948 . S
H283 C258 0.979 . S
H284 C258 0.980 . S
H285 C258 0.983 . S
H286 C257 0.982 . S
H287 C257 0.979 . S
H288 C257 0.977 . S
H289 C259 0.948 . S
H290 C261 0.947 . S
H291 C262 0.948 . S
H292 C268 0.982 . S
H293 C268 0.979 . S
H294 C268 0.977 . S
H295 C269 0.979 . S
H296 C269 0.980 . S
H297 C269 0.983 . S
H298 C242 0.947 . S
C299 C242 1.392 . S
C299 C243 1.419 . S
C299 H281 0.948 . S
C300 C301 1.391 . S
C300 C304 1.391 . S
C300 H342 0.948 . S
C301 C300 1.391 . S
C301 C302 1.391 . S
C302 C301 1.391 . S
C302 H358 0.947 . S
C302 C359 1.392 . S
C303 C304 1.391 . S
C303 C307 1.397 . S
C303 C359 1.419 . S
C304 C300 1.391 . S
C304 C303 1.391 . S
C304 C305 1.399 . S
C305 C304 1.399 . S
C305 C308 1.396 . S
C305 C317 1.453 . S
C305 C318 1.684 . S
H306 C330 0.948 . S
C307 C303 1.397 . S
C307 C308 1.394 . S
C307 C326 1.723 . S
C308 C305 1.396 . S
C308 C307 1.394 . S
C308 C338 1.723 . S
H309 C332 0.947 . S
H310 C333 0.948 . S
H311 C339 0.982 . S
H312 C340 0.979 . S
H313 C340 0.980 . S
H314 C340 0.983 . S
H315 C339 0.979 . S
H316 C339 0.977 . S
C317 C305 1.453 . S
C317 H346 0.982 . S
C317 H347 0.979 . S
C317 H348 0.977 . S
C318 C305 1.684 . S
C318 H343 0.979 . S
C318 H344 0.980 . S
C318 H345 0.983 . S
C319 C320 1.391 . S
C319 C324 1.391 . S
C319 H349 0.948 . S
C320 C319 1.391 . S
C320 C321 1.391 . S
C321 C320 1.391 . S
C321 C322 1.392 . S
C321 H350 0.947 . S
C322 C321 1.392 . S
C322 C323 1.419 . S
C322 H351 0.948 . S
C323 C322 1.419 . S
C323 C324 1.391 . S
C323 C327 1.397 . S
C324 C319 1.391 . S
C324 C323 1.391 . S
C324 C325 1.399 . S
C325 C324 1.399 . S
C325 C326 1.396 . S
C325 C328 1.453 . S
C325 C329 1.684 . S
C326 C307 1.723 . S
C326 C325 1.396 . S
C326 C327 1.394 . S
C327 C323 1.397 . S
C327 C326 1.394 . S
C327 C337 1.723 . S
C328 C325 1.453 . S
C328 H352 0.982 . S
C328 H353 0.979 . S
C328 H354 0.977 . S
C329 C325 1.684 . S
C329 H355 0.979 . S
C329 H356 0.980 . S
C329 H357 0.983 . S
C330 H306 0.948 . S
C330 C331 1.391 . S
C330 C335 1.391 . S
C331 C330 1.391 . S
C331 C332 1.391 . S
C332 H309 0.947 . S
C332 C331 1.391 . S
C332 C333 1.392 . S
C333 H310 0.948 . S
C333 C332 1.392 . S
C333 C334 1.419 . S
C334 C333 1.419 . S
C334 C335 1.391 . S
C334 C338 1.397 . S
C335 C330 1.391 . S
C335 C334 1.391 . S
C335 C336 1.399 . S
C336 C335 1.399 . S
C336 C337 1.396 . S
C336 C339 1.453 . S
C336 C340 1.684 . S
C337 C327 1.723 . S
C337 C336 1.396 . S
C337 C338 1.394 . S
C338 C308 1.723 . S
C338 C334 1.397 . S
C338 C337 1.394 . S
C339 H311 0.982 . S
C339 H315 0.979 . S
C339 H316 0.977 . S
C339 C336 1.453 . S
C340 H312 0.979 . S
C340 H313 0.980 . S
C340 H314 0.983 . S
C340 C336 1.684 . S
H341 C359 0.948 . S
H342 C300 0.948 . S
H343 C318 0.979 . S
H344 C318 0.980 . S
H345 C318 0.983 . S
H346 C317 0.982 . S
H347 C317 0.979 . S
H348 C317 0.977 . S
H349 C319 0.948 . S
H350 C321 0.947 . S
H351 C322 0.948 . S
H352 C328 0.982 . S
H353 C328 0.979 . S
H354 C328 0.977 . S
H355 C329 0.979 . S
H356 C329 0.980 . S
H357 C329 0.983 . S
H358 C302 0.947 . S
C359 C302 1.392 . S
C359 C303 1.419 . S
C359 H341 0.948 . S
C360 C361 1.391 . S
C360 C364 1.391 . S
C360 H402 0.948 . S
C361 C360 1.391 . S
C361 C362 1.391 . S
C362 C361 1.391 . S
C362 H418 0.947 . S
C362 C419 1.392 . S
C363 C364 1.391 . S
C363 C367 1.397 . S
C363 C419 1.419 . S
C364 C360 1.391 . S
C364 C363 1.391 . S
C364 C365 1.399 . S
C365 C364 1.399 . S
C365 C368 1.396 . S
C365 C377 1.453 1_545 S
C365 C378 1.684 . S
H366 C390 0.948 . S
C367 C363 1.397 . S
C367 C368 1.394 . S
C367 C386 1.723 . S
C368 C365 1.396 . S
C368 C367 1.394 . S
C368 C398 1.723 . S
H369 C392 0.947 . S
H370 C393 0.948 . S
H371 C399 0.982 . S
H372 C400 0.979 . S
H373 C400 0.980 . S
H374 C400 0.983 . S
H375 C399 0.979 . S
H376 C399 0.977 . S
C377 C365 1.453 1_565 S
C377 H406 0.982 . S
C377 H407 0.979 . S
C377 H408 0.977 . S
C378 C365 1.684 . S
C378 H403 0.979 . S
C378 H404 0.980 . S
C378 H405 0.983 . S
C379 C380 1.391 . S
C379 C384 1.391 . S
C379 H409 0.948 . S
C380 C379 1.391 . S
C380 C381 1.391 . S
C381 C380 1.391 . S
C381 C382 1.392 . S
C381 H410 0.947 . S
C382 C381 1.392 . S
C382 C383 1.419 . S
C382 H411 0.948 . S
C383 C382 1.419 . S
C383 C384 1.391 . S
C383 C387 1.397 . S
C384 C379 1.391 . S
C384 C383 1.391 . S
C384 C385 1.399 . S
C385 C384 1.399 . S
C385 C386 1.396 . S
C385 C388 1.453 1_545 S
C385 C389 1.684 . S
C386 C367 1.723 . S
C386 C385 1.396 . S
C386 C387 1.394 . S
C387 C383 1.397 . S
C387 C386 1.394 . S
C387 C397 1.723 . S
C388 C385 1.453 1_565 S
C388 H412 0.982 . S
C388 H413 0.979 . S
C388 H414 0.977 . S
C389 C385 1.684 . S
C389 H415 0.979 . S
C389 H416 0.980 . S
C389 H417 0.983 . S
C390 H366 0.948 . S
C390 C391 1.391 . S
C390 C395 1.391 . S
C391 C390 1.391 . S
C391 C392 1.391 . S
C392 H369 0.947 . S
C392 C391 1.391 . S
C392 C393 1.392 . S
C393 H370 0.948 . S
C393 C392 1.392 . S
C393 C394 1.419 . S
C394 C393 1.419 . S
C394 C395 1.391 . S
C394 C398 1.397 . S
C395 C390 1.391 . S
C395 C394 1.391 . S
C395 C396 1.399 . S
C396 C395 1.399 . S
C396 C397 1.396 . S
C396 C399 1.453 1_545 S
C396 C400 1.684 . S
C397 C387 1.723 . S
C397 C396 1.396 . S
C397 C398 1.394 . S
C398 C368 1.723 . S
C398 C394 1.397 . S
C398 C397 1.394 . S
C399 H371 0.982 . S
C399 H375 0.979 . S
C399 H376 0.977 . S
C399 C396 1.453 1_565 S
C400 H372 0.979 . S
C400 H373 0.980 . S
C400 H374 0.983 . S
C400 C396 1.684 . S
H401 C419 0.948 . S
H402 C360 0.948 . S
H403 C378 0.979 . S
H404 C378 0.980 . S
H405 C378 0.983 . S
H406 C377 0.982 . S
H407 C377 0.979 . S
H408 C377 0.977 . S
H409 C379 0.948 . S
H410 C381 0.947 . S
H411 C382 0.948 . S
H412 C388 0.982 . S
H413 C388 0.979 . S
H414 C388 0.977 . S
H415 C389 0.979 . S
H416 C389 0.980 . S
H417 C389 0.983 . S
H418 C362 0.947 . S
C419 C362 1.392 . S
C419 C363 1.419 . S
C419 H401 0.948 . S
C420 C421 1.391 . S
C420 C424 1.391 . S
C420 H462 0.948 . S
C421 C420 1.391 . S
C421 C422 1.391 . S
C422 C421 1.391 . S
C422 H478 0.947 . S
C422 C479 1.392 . S
C423 C424 1.391 . S
C423 C427 1.397 . S
C423 C479 1.419 . S
C424 C420 1.391 . S
C424 C423 1.391 . S
C424 C425 1.399 . S
C425 C424 1.399 . S
C425 C428 1.396 . S
C425 C437 1.453 . S
C425 C438 1.684 . S
H426 C450 0.948 . S
C427 C423 1.397 . S
C427 C428 1.394 . S
C427 C446 1.723 . S
C428 C425 1.396 . S
C428 C427 1.394 . S
C428 C458 1.723 . S
H429 C452 0.947 . S
H430 C453 0.948 . S
H431 C459 0.982 . S
H432 C460 0.979 . S
H433 C460 0.980 . S
H434 C460 0.983 . S
H435 C459 0.979 . S
H436 C459 0.977 . S
C437 C425 1.453 . S
C437 H466 0.982 . S
C437 H467 0.979 . S
C437 H468 0.977 . S
C438 C425 1.684 . S
C438 H463 0.979 . S
C438 H464 0.980 . S
C438 H465 0.983 . S
C439 C440 1.391 . S
C439 C444 1.391 . S
C439 H469 0.948 . S
C440 C439 1.391 . S
C440 C441 1.391 . S
C441 C440 1.391 . S
C441 C442 1.392 . S
C441 H470 0.947 . S
C442 C441 1.392 . S
C442 C443 1.419 . S
C442 H471 0.948 . S
C443 C442 1.419 . S
C443 C444 1.391 . S
C443 C447 1.397 . S
C444 C439 1.391 . S
C444 C443 1.391 . S
C444 C445 1.399 . S
C445 C444 1.399 . S
C445 C446 1.396 . S
C445 C448 1.453 . S
C445 C449 1.684 . S
C446 C427 1.723 . S
C446 C445 1.396 . S
C446 C447 1.394 . S
C447 C443 1.397 . S
C447 C446 1.394 . S
C447 C457 1.723 . S
C448 C445 1.453 . S
C448 H472 0.982 . S
C448 H473 0.979 . S
C448 H474 0.977 . S
C449 C445 1.684 . S
C449 H475 0.979 . S
C449 H476 0.980 . S
C449 H477 0.983 . S
C450 H426 0.948 . S
C450 C451 1.391 . S
C450 C455 1.391 . S
C451 C450 1.391 . S
C451 C452 1.391 . S
C452 H429 0.947 . S
C452 C451 1.391 . S
C452 C453 1.392 . S
C453 H430 0.948 . S
C453 C452 1.392 . S
C453 C454 1.419 . S
C454 C453 1.419 . S
C454 C455 1.391 . S
C454 C458 1.397 . S
C455 C450 1.391 . S
C455 C454 1.391 . S
C455 C456 1.399 . S
C456 C455 1.399 . S
C456 C457 1.396 . S
C456 C459 1.453 . S
C456 C460 1.684 . S
C457 C447 1.723 . S
C457 C456 1.396 . S
C457 C458 1.394 . S
C458 C428 1.723 . S
C458 C454 1.397 . S
C458 C457 1.394 . S
C459 H431 0.982 . S
C459 H435 0.979 . S
C459 H436 0.977 . S
C459 C456 1.453 . S
C460 H432 0.979 . S
C460 H433 0.980 . S
C460 H434 0.983 . S
C460 C456 1.684 . S
H461 C479 0.948 . S
H462 C420 0.948 . S
H463 C438 0.979 . S
H464 C438 0.980 . S
H465 C438 0.983 . S
H466 C437 0.982 . S
H467 C437 0.979 . S
H468 C437 0.977 . S
H469 C439 0.948 . S
H470 C441 0.947 . S
H471 C442 0.948 . S
H472 C448 0.982 . S
H473 C448 0.979 . S
H474 C448 0.977 . S
H475 C449 0.979 . S
H476 C449 0.980 . S
H477 C449 0.983 . S
H478 C422 0.947 . S
C479 C422 1.392 . S
C479 C423 1.419 . S
C479 H461 0.948 . S
Tb480 O483 2.453 1_665 S
Tb480 O484 2.596 1_665 S
Tb480 O485 2.374 1_655 S
Tb480 O493 2.343 . S
Tb480 O495 2.353 1_565 S
Tb480 O497 2.427 . S
Tb480 O498 2.513 . S
C481 O485 1.251 . S
C481 O487 1.263 . S
Tb482 O484 2.343 . S
Tb482 O487 2.353 1_545 S
Tb482 O490 2.427 . S
Tb482 O491 2.513 . S
Tb482 O492 2.453 1_545 S
Tb482 O493 2.596 1_445 S
Tb482 O494 2.374 1_455 S
O483 Tb480 2.453 1_445 S
O483 C499 1.245 . S
O484 Tb480 2.596 1_445 S
O484 Tb482 2.343 . S
O484 C499 1.259 . S
O485 Tb480 2.374 1_455 S
O485 C481 1.251 . S
C486 O490 1.275 . S
C486 O491 1.246 . S
O487 C481 1.263 . S
O487 Tb482 2.353 1_565 S
C488 O492 1.245 1_655 S
C488 O493 1.259 . S
C489 O494 1.250 . S
C489 O495 1.263 . S
O490 Tb482 2.427 . S
O490 C486 1.275 . S
O491 Tb482 2.513 . S
O491 C486 1.246 . S
O492 Tb482 2.453 1_565 S
O492 C488 1.245 1_455 S
O493 Tb480 2.343 . S
O493 Tb482 2.596 1_665 S
O493 C488 1.259 . S
O494 Tb482 2.374 1_655 S
O494 C489 1.250 . S
O495 Tb480 2.353 1_545 S
O495 C489 1.263 . S
C496 O497 1.275 . S
C496 O498 1.246 . S
O497 Tb480 2.427 . S
O497 C496 1.275 . S
O498 Tb480 2.513 . S
O498 C496 1.246 . S
C499 O483 1.245 . S
C499 O484 1.259 . S
Tb500 O503 2.453 . S
Tb500 O504 2.596 1_545 S
Tb500 O505 2.374 . S
Tb500 O513 2.343 . S
Tb500 O515 2.353 . S
Tb500 O517 2.427 . S
Tb500 O518 2.513 . S
C501 O505 1.274 . S
C501 O507 1.241 1_545 S
Tb502 O504 2.343 . S
Tb502 O507 2.353 . S
Tb502 O510 2.427 . S
Tb502 O511 2.513 . S
Tb502 O512 2.453 . S
Tb502 O513 2.596 1_565 S
Tb502 O514 2.374 . S
O503 Tb500 2.453 . S
O503 C519 1.245 . S
O504 Tb500 2.596 1_565 S
O504 Tb502 2.343 . S
O504 C519 1.259 1_565 S
O505 Tb500 2.374 . S
O505 C501 1.274 . S
C506 O510 1.275 . S
C506 O511 1.246 . S
O507 C501 1.241 1_565 S
O507 Tb502 2.353 . S
C508 O512 1.245 . S
C508 O513 1.259 1_565 S
C509 O514 1.250 1_545 S
C509 O515 1.263 . S
O510 Tb502 2.427 . S
O510 C506 1.275 . S
O511 Tb502 2.513 . S
O511 C506 1.246 . S
O512 Tb502 2.453 . S
O512 C508 1.245 . S
O513 Tb500 2.343 . S
O513 Tb502 2.596 1_545 S
O513 C508 1.259 1_545 S
O514 Tb502 2.374 . S
O514 C509 1.250 1_565 S
O515 Tb500 2.353 . S
O515 C509 1.263 . S
C516 O517 1.275 . S
C516 O518 1.246 . S
O517 Tb500 2.427 . S
O517 C516 1.275 . S
O518 Tb500 2.513 . S
O518 C516 1.246 . S
C519 O503 1.245 . S
C519 O504 1.259 1_545 S
Tb520 O523 2.453 . S
Tb520 O524 2.596 . S
Tb520 O525 2.374 . S
Tb520 O533 2.343 . S
Tb520 O535 2.353 . S
Tb520 O537 2.427 . S
Tb520 O538 2.513 . S
C521 O525 1.251 . S
C521 O527 1.263 . S
Tb522 O524 2.343 . S
Tb522 O527 2.353 . S
Tb522 O530 2.427 . S
Tb522 O531 2.513 . S
Tb522 O532 2.453 . S
Tb522 O533 2.596 . S
Tb522 O534 2.374 . S
O523 Tb520 2.453 . S
O523 C539 1.245 . S
O524 Tb520 2.596 . S
O524 Tb522 2.343 . S
O524 C539 1.259 . S
O525 Tb520 2.374 . S
O525 C521 1.251 . S
C526 O530 1.275 . S
C526 O531 1.246 . S
O527 C521 1.263 . S
O527 Tb522 2.353 . S
C528 O532 1.245 . S
C528 O533 1.259 . S
C529 O534 1.250 . S
C529 O535 1.263 . S
O530 Tb522 2.427 . S
O530 C526 1.275 . S
O531 Tb522 2.513 . S
O531 C526 1.246 . S
O532 Tb522 2.453 . S
O532 C528 1.245 . S
O533 Tb520 2.343 . S
O533 Tb522 2.596 . S
O533 C528 1.259 . S
O534 Tb522 2.374 . S
O534 C529 1.250 . S
O535 Tb520 2.353 . S
O535 C529 1.263 . S
C536 O537 1.275 . S
C536 O538 1.246 . S
O537 Tb520 2.427 . S
O537 C536 1.275 . S
O538 Tb520 2.513 . S
O538 C536 1.246 . S
C539 O523 1.245 . S
C539 O524 1.259 . S
Tb540 O543 2.453 1_655 S
Tb540 O544 2.596 1_655 S
Tb540 O545 2.374 1_655 S
Tb540 O553 2.343 . S
Tb540 O555 2.353 . S
Tb540 O557 2.427 . S
Tb540 O558 2.513 . S
C541 O545 1.251 . S
C541 O547 1.263 . S
Tb542 O544 2.343 . S
Tb542 O547 2.353 . S
Tb542 O550 2.427 . S
Tb542 O551 2.513 . S
Tb542 O552 2.453 1_455 S
Tb542 O553 2.596 1_455 S
Tb542 O554 2.374 . S
O543 Tb540 2.453 1_455 S
O543 C559 1.245 . S
O544 Tb540 2.596 1_455 S
O544 Tb542 2.343 . S
O544 C559 1.259 . S
O545 Tb540 2.374 1_455 S
O545 C541 1.251 . S
C546 O550 1.275 . S
C546 O551 1.246 . S
O547 C541 1.263 . S
O547 Tb542 2.353 . S
C548 O552 1.245 . S
C548 O553 1.259 . S
C549 O554 1.250 1_655 S
C549 O555 1.263 . S
O550 Tb542 2.427 . S
O550 C546 1.275 . S
O551 Tb542 2.513 . S
O551 C546 1.246 . S
O552 Tb542 2.453 1_655 S
O552 C548 1.245 . S
O553 Tb540 2.343 . S
O553 Tb542 2.596 1_655 S
O553 C548 1.259 . S
O554 Tb542 2.374 . S
O554 C549 1.250 1_455 S
O555 Tb540 2.353 . S
O555 C549 1.263 . S
C556 O557 1.275 . S
C556 O558 1.246 . S
O557 Tb540 2.427 . S
O557 C556 1.275 . S
O558 Tb540 2.513 . S
O558 C556 1.246 . S
C559 O543 1.245 . S
C559 O544 1.259 . S
H560 C568 0.950 . S
H561 C573 0.950 . S
H562 C570 0.950 . S
H563 C572 0.950 . S
H564 C574 0.950 . S
H565 C576 0.950 . S
H566 C578 0.950 . S
H567 C579 0.950 . S
C568 H560 0.950 . S
C568 C569 1.386 1_565 S
C568 C570 1.391 . S
C569 C568 1.386 1_545 S
C569 C573 1.393 . S
C570 H562 0.950 . S
C570 C568 1.391 . S
C570 C571 1.377 1_565 S
C571 C570 1.377 1_545 S
C571 C572 1.423 . S
C571 C577 1.490 1_545 S
C572 H563 0.950 . S
C572 C571 1.423 . S
C572 C573 1.391 . S
C573 H561 0.950 . S
C573 C569 1.393 . S
C573 C572 1.391 . S
C574 H564 0.950 . S
C574 C575 1.386 1_545 S
C574 C576 1.391 . S
C575 C574 1.386 1_565 S
C575 C579 1.393 . S
C576 H565 0.950 . S
C576 C574 1.391 . S
C576 C577 1.400 1_545 S
C577 C571 1.490 1_565 S
C577 C576 1.400 1_565 S
C577 C578 1.398 . S
C578 H566 0.950 . S
C578 C577 1.398 . S
C578 C579 1.391 . S
C579 H567 0.950 . S
C579 C575 1.393 . S
C579 C578 1.391 . S
H580 C588 0.950 . S
H581 C593 0.950 . S
H582 C590 0.950 . S
H583 C592 0.950 . S
H584 C594 0.950 . S
H585 C596 0.950 . S
H586 C598 0.950 . S
H587 C599 0.950 . S
C588 H580 0.950 . S
C588 C589 1.386 . S
C588 C590 1.391 . S
C589 C588 1.386 . S
C589 C593 1.393 . S
C590 H582 0.950 . S
C590 C588 1.391 . S
C590 C591 1.400 . S
C591 C590 1.400 . S
C591 C592 1.398 . S
C591 C597 1.491 . S
C592 H583 0.950 . S
C592 C591 1.398 . S
C592 C593 1.391 . S
C593 H581 0.950 . S
C593 C589 1.393 . S
C593 C592 1.391 . S
C594 H584 0.950 . S
C594 C595 1.386 . S
C594 C596 1.391 . S
C595 C594 1.386 . S
C595 C599 1.393 . S
C596 H585 0.950 . S
C596 C594 1.391 . S
C596 C597 1.400 . S
C597 C591 1.491 . S
C597 C596 1.400 . S
C597 C598 1.398 . S
C598 H586 0.950 . S
C598 C597 1.398 . S
C598 C599 1.391 . S
C599 H587 0.950 . S
C599 C595 1.393 . S
C599 C598 1.391 . S
H600 C608 0.950 . S
H601 C613 0.950 . S
H602 C610 0.950 . S
H603 C612 0.950 . S
H604 C614 0.950 . S
H605 C616 0.950 . S
H606 C618 0.950 . S
H607 C619 0.950 . S
C608 H600 0.950 . S
C608 C609 1.386 . S
C608 C610 1.391 . S
C609 C608 1.386 . S
C609 C613 1.393 . S
C610 H602 0.950 . S
C610 C608 1.391 . S
C610 C611 1.400 . S
C611 C610 1.400 . S
C611 C612 1.398 . S
C611 C617 1.491 . S
C612 H603 0.950 . S
C612 C611 1.398 . S
C612 C613 1.391 . S
C613 H601 0.950 . S
C613 C609 1.393 . S
C613 C612 1.391 . S
C614 H604 0.950 . S
C614 C615 1.386 . S
C614 C616 1.391 . S
C615 C614 1.386 . S
C615 C619 1.393 . S
C616 H605 0.950 . S
C616 C614 1.391 . S
C616 C617 1.400 . S
C617 C611 1.491 . S
C617 C616 1.400 . S
C617 C618 1.398 . S
C618 H606 0.950 . S
C618 C617 1.398 . S
C618 C619 1.391 . S
C619 H607 0.950 . S
C619 C615 1.393 . S
C619 C618 1.391 . S
H620 C628 0.950 . S
H621 C633 0.950 . S
H622 C630 0.950 . S
H623 C632 0.950 . S
H624 C634 0.950 . S
H625 C636 0.950 . S
H626 C638 0.950 . S
H627 C639 0.950 . S
C628 H620 0.950 . S
C628 C629 1.386 . S
C628 C630 1.391 . S
C629 C628 1.386 . S
C629 C633 1.393 . S
C630 H622 0.950 . S
C630 C628 1.391 . S
C630 C631 1.400 . S
C631 C630 1.400 . S
C631 C632 1.398 . S
C631 C637 1.491 . S
C632 H623 0.950 . S
C632 C631 1.398 . S
C632 C633 1.391 . S
C633 H621 0.950 . S
C633 C629 1.393 . S
C633 C632 1.391 . S
C634 H624 0.950 . S
C634 C635 1.386 . S
C634 C636 1.391 . S
C635 C634 1.386 . S
C635 C639 1.393 . S
C636 H625 0.950 . S
C636 C634 1.391 . S
C636 C637 1.400 . S
C637 C631 1.491 . S
C637 C636 1.400 . S
C637 C638 1.398 . S
C638 H626 0.950 . S
C638 C637 1.398 . S
C638 C639 1.391 . S
C639 H627 0.950 . S
C639 C635 1.393 . S
C639 C638 1.391 . S
H640 C648 0.950 . S
H641 C653 0.950 . S
H642 C650 0.950 . S
H643 C652 0.950 . S
H644 C654 0.950 . S
H645 C656 0.950 . S
H646 C658 0.950 . S
H647 C659 0.950 . S
C648 H640 0.950 . S
C648 C649 1.385 . S
C648 C650 1.391 1_554 S
C649 C648 1.385 . S
C649 C653 1.393 1_544 S
C650 H642 0.950 . S
C650 C648 1.391 1_556 S
C650 C651 1.400 . S
C651 C650 1.400 . S
C651 C652 1.398 1_545 S
C651 C657 1.491 . S
C652 H643 0.950 . S
C652 C651 1.398 1_565 S
C652 C653 1.391 . S
C653 H641 0.950 . S
C653 C649 1.393 1_566 S
C653 C652 1.391 . S
C654 H644 0.950 . S
C654 C655 1.386 1_565 S
C654 C656 1.391 . S
C655 C654 1.386 1_545 S
C655 C659 1.393 . S
C656 H645 0.950 . S
C656 C654 1.391 . S
C656 C657 1.400 1_565 S
C657 C651 1.491 . S
C657 C656 1.400 1_545 S
C657 C658 1.398 . S
C658 H646 0.950 . S
C658 C657 1.398 . S
C658 C659 1.391 . S
C659 H647 0.950 . S
C659 C655 1.393 . S
C659 C658 1.391 . S
H660 C668 0.950 . S
H661 C673 0.950 . S
H662 C670 0.950 1_554 S
H663 C672 0.950 . S
H664 C674 0.950 . S
H665 C676 0.950 . S
H666 C678 0.950 . S
H667 C679 0.950 . S
C668 H660 0.950 . S
C668 C669 1.386 1_554 S
C668 C670 1.391 1_554 S
C669 C668 1.386 1_556 S
C669 C673 1.393 . S
C670 H662 0.950 1_556 S
C670 C668 1.391 1_556 S
C670 C671 1.400 . S
C671 C670 1.400 . S
C671 C672 1.398 . S
C671 C677 1.491 . S
C672 H663 0.950 . S
C672 C671 1.398 . S
C672 C673 1.391 . S
C673 H661 0.950 . S
C673 C669 1.393 . S
C673 C672 1.391 . S
C674 H664 0.950 . S
C674 C675 1.386 . S
C674 C676 1.391 . S
C675 C674 1.386 . S
C675 C679 1.393 . S
C676 H665 0.950 . S
C676 C674 1.391 . S
C676 C677 1.400 . S
C677 C671 1.491 . S
C677 C676 1.400 . S
C677 C678 1.398 . S
C678 H666 0.950 . S
C678 C677 1.398 . S
C678 C679 1.391 . S
C679 H667 0.950 . S
C679 C675 1.393 . S
C679 C678 1.391 . S
H680 C688 0.950 . S
H681 C693 0.950 1_554 S
H682 C690 0.950 . S
H683 C692 0.950 . S
H684 C694 0.950 . S
H685 C696 0.950 . S
H686 C698 0.950 . S
H687 C699 0.950 . S
C688 H680 0.950 . S
C688 C689 1.386 . S
C688 C690 1.391 . S
C689 C688 1.386 . S
C689 C693 1.393 . S
C690 H682 0.950 . S
C690 C688 1.391 . S
C690 C691 1.400 . S
C691 C690 1.400 . S
C691 C692 1.398 . S
C691 C697 1.491 . S
C692 H683 0.950 . S
C692 C691 1.398 . S
C692 C693 1.391 . S
C693 H681 0.950 1_556 S
C693 C689 1.393 . S
C693 C692 1.391 . S
C694 H684 0.950 . S
C694 C695 1.386 . S
C694 C696 1.391 . S
C695 C694 1.386 . S
C695 C699 1.393 . S
C696 H685 0.950 . S
C696 C694 1.391 . S
C696 C697 1.400 . S
C697 C691 1.491 . S
C697 C696 1.400 . S
C697 C698 1.398 . S
C698 H686 0.950 . S
C698 C697 1.398 . S
C698 C699 1.391 . S
C699 H687 0.950 . S
C699 C695 1.393 . S
C699 C698 1.391 . S
H700 C708 0.950 1_554 S
H701 C713 0.950 . S
H702 C710 0.950 . S
H703 C712 0.950 . S
H704 C714 0.950 . S
H705 C716 0.950 . S
H706 C718 0.950 . S
H707 C719 0.950 . S
C708 H700 0.950 1_556 S
C708 C709 1.386 . S
C708 C710 1.391 . S
C709 C708 1.386 . S
C709 C713 1.393 . S
C710 H702 0.950 . S
C710 C708 1.391 . S
C710 C711 1.400 . S
C711 C710 1.400 . S
C711 C712 1.398 . S
C711 C717 1.491 . S
C712 H703 0.950 . S
C712 C711 1.398 . S
C712 C713 1.391 . S
C713 H701 0.950 . S
C713 C709 1.393 . S
C713 C712 1.391 . S
C714 H704 0.950 . S
C714 C715 1.386 . S
C714 C716 1.391 . S
C715 C714 1.386 . S
C715 C719 1.393 . S
C716 H705 0.950 . S
C716 C714 1.391 . S
C716 C717 1.400 . S
C717 C711 1.491 . S
C717 C716 1.400 . S
C717 C718 1.398 . S
C718 H706 0.950 . S
C718 C717 1.398 . S
C718 C719 1.391 . S
C719 H707 0.950 . S
C719 C715 1.393 . S
C719 C718 1.391 . S
H720 C728 0.950 . S
H721 C733 0.950 . S
H722 C730 0.950 . S
H723 C732 0.950 . S
H724 C734 0.950 . S
H725 C736 0.950 . S
H726 C738 0.950 . S
H727 C739 0.950 . S
C728 H720 0.950 . S
C728 C729 1.386 . S
C728 C730 1.391 . S
C729 C728 1.386 . S
C729 C733 1.393 . S
C730 H722 0.950 . S
C730 C728 1.391 . S
C730 C731 1.400 . S
C731 C730 1.400 . S
C731 C732 1.398 . S
C731 C737 1.491 . S
C732 H723 0.950 . S
C732 C731 1.398 . S
C732 C733 1.391 . S
C733 H721 0.950 . S
C733 C729 1.393 . S
C733 C732 1.391 . S
C734 H724 0.950 . S
C734 C735 1.386 . S
C734 C736 1.391 . S
C735 C734 1.386 . S
C735 C739 1.393 . S
C736 H725 0.950 . S
C736 C734 1.391 . S
C736 C737 1.400 . S
C737 C731 1.491 . S
C737 C736 1.400 . S
C737 C738 1.398 . S
C738 H726 0.950 . S
C738 C737 1.398 . S
C738 C739 1.391 . S
C739 H727 0.950 . S
C739 C735 1.393 . S
C739 C738 1.391 . S
H740 C748 0.950 . S
H741 C753 0.950 . S
H742 C750 0.950 . S
H743 C752 0.950 . S
H744 C754 0.950 . S
H745 C756 0.950 . S
H746 C758 0.950 . S
H747 C759 0.950 . S
C748 H740 0.950 . S
C748 C749 1.386 1_565 S
C748 C750 1.391 . S
C749 C748 1.386 1_545 S
C749 C753 1.393 . S
C750 H742 0.950 . S
C750 C748 1.391 . S
C750 C751 1.400 1_565 S
C751 C750 1.400 1_545 S
C751 C752 1.398 . S
C751 C757 1.496 . S
C752 H743 0.950 . S
C752 C751 1.398 . S
C752 C753 1.391 . S
C753 H741 0.950 . S
C753 C749 1.393 . S
C753 C752 1.391 . S
C754 H744 0.950 . S
C754 C755 1.375 1_545 S
C754 C756 1.391 . S
C755 C754 1.375 1_565 S
C755 C759 1.401 . S
C756 H745 0.950 . S
C756 C754 1.391 . S
C756 C757 1.419 . S
C757 C751 1.496 . S
C757 C756 1.419 . S
C757 C758 1.375 1_545 S
C758 H746 0.950 . S
C758 C757 1.375 1_565 S
C758 C759 1.391 . S
C759 H747 0.950 . S
C759 C755 1.401 . S
C759 C758 1.391 . S
H760 C768 0.950 . S
H761 C773 0.950 . S
H762 C770 0.950 . S
H763 C772 0.950 . S
H764 C774 0.950 . S
H765 C776 0.950 . S
H766 C778 0.950 . S
H767 C779 0.950 . S
C768 H760 0.950 . S
C768 C769 1.386 . S
C768 C770 1.391 . S
C769 C768 1.386 . S
C769 C773 1.393 . S
C770 H762 0.950 . S
C770 C768 1.391 . S
C770 C771 1.400 . S
C771 C770 1.400 . S
C771 C772 1.398 . S
C771 C777 1.491 . S
C772 H763 0.950 . S
C772 C771 1.398 . S
C772 C773 1.391 . S
C773 H761 0.950 . S
C773 C769 1.393 . S
C773 C772 1.391 . S
C774 H764 0.950 . S
C774 C775 1.386 . S
C774 C776 1.391 . S
C775 C774 1.386 . S
C775 C779 1.393 . S
C776 H765 0.950 . S
C776 C774 1.391 . S
C776 C777 1.400 . S
C777 C771 1.491 . S
C777 C776 1.400 . S
C777 C778 1.398 . S
C778 H766 0.950 . S
C778 C777 1.398 . S
C778 C779 1.391 . S
C779 H767 0.950 . S
C779 C775 1.393 . S
C779 C778 1.391 . S
H780 C788 0.950 . S
H781 C793 0.950 . S
H782 C790 0.950 . S
H783 C792 0.950 . S
H784 C794 0.950 . S
H785 C796 0.950 . S
H786 C798 0.950 . S
H787 C799 0.950 . S
C788 H780 0.950 . S
C788 C789 1.386 . S
C788 C790 1.391 . S
C789 C788 1.386 . S
C789 C793 1.393 . S
C790 H782 0.950 . S
C790 C788 1.391 . S
C790 C791 1.400 . S
C791 C790 1.400 . S
C791 C792 1.398 . S
C791 C797 1.491 . S
C792 H783 0.950 . S
C792 C791 1.398 . S
C792 C793 1.391 . S
C793 H781 0.950 . S
C793 C789 1.393 . S
C793 C792 1.391 . S
C794 H784 0.950 . S
C794 C795 1.386 . S
C794 C796 1.391 . S
C795 C794 1.386 . S
C795 C799 1.393 . S
C796 H785 0.950 . S
C796 C794 1.391 . S
C796 C797 1.400 . S
C797 C791 1.491 . S
C797 C796 1.400 . S
C797 C798 1.398 . S
C798 H786 0.950 . S
C798 C797 1.398 . S
C798 C799 1.391 . S
C799 H787 0.950 . S
C799 C795 1.393 . S
C799 C798 1.391 . S
H800 C808 0.950 . S
H801 C813 0.950 . S
H802 C810 0.950 . S
H803 C812 0.950 . S
H804 C814 0.950 . S
H805 C816 0.950 . S
H806 C818 0.950 . S
H807 C819 0.950 . S
C808 H800 0.950 . S
C808 C809 1.386 . S
C808 C810 1.391 . S
C809 C808 1.386 . S
C809 C813 1.393 . S
C810 H802 0.950 . S
C810 C808 1.391 . S
C810 C811 1.400 . S
C811 C810 1.400 . S
C811 C812 1.398 . S
C811 C817 1.491 . S
C812 H803 0.950 . S
C812 C811 1.398 . S
C812 C813 1.391 . S
C813 H801 0.950 . S
C813 C809 1.393 . S
C813 C812 1.391 . S
C814 H804 0.950 . S
C814 C815 1.386 . S
C814 C816 1.391 . S
C815 C814 1.386 . S
C815 C819 1.393 . S
C816 H805 0.950 . S
C816 C814 1.391 . S
C816 C817 1.400 . S
C817 C811 1.491 . S
C817 C816 1.400 . S
C817 C818 1.398 . S
C818 H806 0.950 . S
C818 C817 1.398 . S
C818 C819 1.391 . S
C819 H807 0.950 . S
C819 C815 1.393 . S
C819 C818 1.391 . S
H820 C828 0.950 . S
H821 C833 0.950 . S
H822 C830 0.950 . S
H823 C832 0.950 . S
H824 C834 0.950 . S
H825 C836 0.950 . S
H826 C838 0.950 . S
H827 C839 0.950 . S
C828 H820 0.950 . S
C828 C829 1.384 . S
C828 C830 1.391 . S
C829 C828 1.384 . S
C829 C833 1.395 1_545 S
C830 H822 0.950 . S
C830 C828 1.391 . S
C830 C831 1.400 . S
C831 C830 1.400 . S
C831 C832 1.398 1_545 S
C831 C837 1.491 . S
C832 H823 0.950 . S
C832 C831 1.398 1_565 S
C832 C833 1.391 . S
C833 H821 0.950 . S
C833 C829 1.395 1_565 S
C833 C832 1.391 . S
C834 H824 0.950 . S
C834 C835 1.386 1_565 S
C834 C836 1.391 . S
C835 C834 1.386 1_545 S
C835 C839 1.393 . S
C836 H825 0.950 . S
C836 C834 1.391 . S
C836 C837 1.400 1_565 S
C837 C831 1.491 . S
C837 C836 1.400 1_545 S
C837 C838 1.398 . S
C838 H826 0.950 . S
C838 C837 1.398 . S
C838 C839 1.391 . S
C839 H827 0.950 . S
C839 C835 1.393 . S
C839 C838 1.391 . S
H840 C848 0.950 . S
H841 C853 0.950 . S
H842 C850 0.950 . S
H843 C852 0.950 . S
H844 C854 0.950 . S
H845 C856 0.950 . S
H846 C858 0.950 . S
H847 C859 0.950 . S
C848 H840 0.950 . S
C848 C849 1.386 . S
C848 C850 1.391 . S
C849 C848 1.386 . S
C849 C853 1.393 . S
C850 H842 0.950 . S
C850 C848 1.391 . S
C850 C851 1.400 . S
C851 C850 1.400 . S
C851 C852 1.398 . S
C851 C857 1.491 . S
C852 H843 0.950 . S
C852 C851 1.398 . S
C852 C853 1.391 . S
C853 H841 0.950 . S
C853 C849 1.393 . S
C853 C852 1.391 . S
C854 H844 0.950 . S
C854 C855 1.386 . S
C854 C856 1.391 . S
C855 C854 1.386 . S
C855 C859 1.393 . S
C856 H845 0.950 . S
C856 C854 1.391 . S
C856 C857 1.400 . S
C857 C851 1.491 . S
C857 C856 1.400 . S
C857 C858 1.398 . S
C858 H846 0.950 . S
C858 C857 1.398 . S
C858 C859 1.391 . S
C859 H847 0.950 . S
C859 C855 1.393 . S
C859 C858 1.391 . S
H860 C868 0.950 . S
H861 C873 0.950 . S
H862 C870 0.950 . S
H863 C872 0.950 . S
H864 C874 0.950 . S
H865 C876 0.950 . S
H866 C878 0.950 . S
H867 C879 0.950 . S
C868 H860 0.950 . S
C868 C869 1.386 . S
C868 C870 1.391 . S
C869 C868 1.386 . S
C869 C873 1.393 . S
C870 H862 0.950 . S
C870 C868 1.391 . S
C870 C871 1.400 . S
C871 C870 1.400 . S
C871 C872 1.398 . S
C871 C877 1.491 . S
C872 H863 0.950 . S
C872 C871 1.398 . S
C872 C873 1.391 . S
C873 H861 0.950 . S
C873 C869 1.393 . S
C873 C872 1.391 . S
C874 H864 0.950 . S
C874 C875 1.386 . S
C874 C876 1.391 . S
C875 C874 1.386 . S
C875 C879 1.393 . S
C876 H865 0.950 . S
C876 C874 1.391 . S
C876 C877 1.400 . S
C877 C871 1.491 . S
C877 C876 1.400 . S
C877 C878 1.398 . S
C878 H866 0.950 . S
C878 C877 1.398 . S
C878 C879 1.391 . S
C879 H867 0.950 . S
C879 C875 1.393 . S
C879 C878 1.391 . S
H880 C888 0.950 . S
H881 C893 0.950 . S
H882 C890 0.950 . S
H883 C892 0.950 . S
H884 C894 0.950 . S
H885 C896 0.950 . S
H886 C898 0.950 . S
H887 C899 0.950 . S
C888 H880 0.950 . S
C888 C889 1.386 1_556 S
C888 C890 1.391 . S
C889 C888 1.386 1_554 S
C889 C893 1.393 . S
C890 H882 0.950 . S
C890 C888 1.391 . S
C890 C891 1.400 . S
C891 C890 1.400 . S
C891 C892 1.398 1_556 S
C891 C897 1.491 . S
C892 H883 0.950 . S
C892 C891 1.398 1_554 S
C892 C893 1.391 . S
C893 H881 0.950 . S
C893 C889 1.393 . S
C893 C892 1.391 . S
C894 H884 0.950 . S
C894 C895 1.386 . S
C894 C896 1.391 . S
C895 C894 1.386 . S
C895 C899 1.393 . S
C896 H885 0.950 . S
C896 C894 1.391 . S
C896 C897 1.400 . S
C897 C891 1.491 . S
C897 C896 1.400 . S
C897 C898 1.398 . S
C898 H886 0.950 . S
C898 C897 1.398 . S
C898 C899 1.391 . S
C899 H887 0.950 . S
C899 C895 1.393 . S
C899 C898 1.391 . S
H900 C908 0.950 . S
H901 C913 0.950 . S
H902 C910 0.950 . S
H903 C912 0.950 . S
H904 C914 0.950 . S
H905 C916 0.950 . S
H906 C918 0.950 . S
H907 C919 0.950 . S
C908 H900 0.950 . S
C908 C909 1.386 1_565 S
C908 C910 1.391 . S
C909 C908 1.386 1_545 S
C909 C913 1.393 . S
C910 H902 0.950 . S
C910 C908 1.391 . S
C910 C911 1.400 1_565 S
C911 C910 1.400 1_545 S
C911 C912 1.398 . S
C911 C917 1.491 . S
C912 H903 0.950 . S
C912 C911 1.398 . S
C912 C913 1.391 . S
C913 H901 0.950 . S
C913 C909 1.393 . S
C913 C912 1.391 . S
C914 H904 0.950 . S
C914 C915 1.386 . S
C914 C916 1.391 . S
C915 C914 1.386 . S
C915 C919 1.393 1_545 S
C916 H905 0.950 . S
C916 C914 1.391 . S
C916 C917 1.400 . S
C917 C911 1.491 . S
C917 C916 1.400 . S
C917 C918 1.398 1_545 S
C918 H906 0.950 . S
C918 C917 1.398 1_565 S
C918 C919 1.391 . S
C919 H907 0.950 . S
C919 C915 1.393 1_565 S
C919 C918 1.391 . S
H920 C928 0.950 . S
H921 C933 0.950 . S
H922 C930 0.950 . S
H923 C932 0.950 . S
H924 C934 0.950 . S
H925 C936 0.950 . S
H926 C938 0.950 . S
H927 C939 0.950 . S
C928 H920 0.950 . S
C928 C929 1.386 . S
C928 C930 1.391 . S
C929 C928 1.386 . S
C929 C933 1.393 . S
C930 H922 0.950 . S
C930 C928 1.391 . S
C930 C931 1.400 . S
C931 C930 1.400 . S
C931 C932 1.398 . S
C931 C937 1.491 . S
C932 H923 0.950 . S
C932 C931 1.398 . S
C932 C933 1.391 . S
C933 H921 0.950 . S
C933 C929 1.393 . S
C933 C932 1.391 . S
C934 H924 0.950 . S
C934 C935 1.386 . S
C934 C936 1.391 . S
C935 C934 1.386 . S
C935 C939 1.393 . S
C936 H925 0.950 . S
C936 C934 1.391 . S
C936 C937 1.400 . S
C937 C931 1.491 . S
C937 C936 1.400 . S
C937 C938 1.398 . S
C938 H926 0.950 . S
C938 C937 1.398 . S
C938 C939 1.391 . S
C939 H927 0.950 . S
C939 C935 1.393 . S
C939 C938 1.391 . S
H940 C948 0.950 . S
H941 C953 0.950 . S
H942 C950 0.950 . S
H943 C952 0.950 . S
H944 C954 0.950 . S
H945 C956 0.950 . S
H946 C958 0.950 . S
H947 C959 0.950 . S
C948 H940 0.950 . S
C948 C949 1.386 1_554 S
C948 C950 1.391 . S
C949 C948 1.386 1_556 S
C949 C953 1.393 . S
C950 H942 0.950 . S
C950 C948 1.391 . S
C950 C951 1.400 1_554 S
C951 C950 1.400 1_556 S
C951 C952 1.398 . S
C951 C957 1.491 . S
C952 H943 0.950 . S
C952 C951 1.398 . S
C952 C953 1.391 . S
C953 H941 0.950 . S
C953 C949 1.393 . S
C953 C952 1.391 . S
C954 H944 0.950 . S
C954 C955 1.386 . S
C954 C956 1.391 . S
C955 C954 1.386 . S
C955 C959 1.393 . S
C956 H945 0.950 . S
C956 C954 1.391 . S
C956 C957 1.400 . S
C957 C951 1.491 . S
C957 C956 1.400 . S
C957 C958 1.398 . S
C958 H946 0.950 . S
C958 C957 1.398 . S
C958 C959 1.391 . S
C959 H947 0.950 . S
C959 C955 1.393 . S
C959 C958 1.391 . S
H960 C968 0.950 . S
H961 C973 0.950 . S
H962 C970 0.950 . S
H963 C972 0.950 . S
H964 C974 0.950 . S
H965 C976 0.950 . S
H966 C978 0.950 . S
H967 C979 0.950 . S
C968 H960 0.950 . S
C968 C969 1.386 . S
C968 C970 1.391 . S
C969 C968 1.386 . S
C969 C973 1.393 . S
C970 H962 0.950 . S
C970 C968 1.391 . S
C970 C971 1.400 . S
C971 C970 1.400 . S
C971 C972 1.398 . S
C971 C977 1.491 . S
C972 H963 0.950 . S
C972 C971 1.398 . S
C972 C973 1.391 . S
C973 H961 0.950 . S
C973 C969 1.393 . S
C973 C972 1.391 . S
C974 H964 0.950 . S
C974 C975 1.386 . S
C974 C976 1.391 . S
C975 C974 1.386 . S
C975 C979 1.393 . S
C976 H965 0.950 . S
C976 C974 1.391 . S
C976 C977 1.400 . S
C977 C971 1.491 . S
C977 C976 1.400 . S
C977 C978 1.398 . S
C978 H966 0.950 . S
C978 C977 1.398 . S
C978 C979 1.391 . S
C979 H967 0.950 . S
C979 C975 1.393 . S
C979 C978 1.391 . S
H980 C988 0.950 . S
H981 C993 0.950 . S
H982 C990 0.950 . S
H983 C992 0.950 . S
H984 C994 0.950 . S
H985 C996 0.950 . S
H986 C998 0.950 . S
H987 C999 0.950 . S
C988 H980 0.950 . S
C988 C989 1.399 . S
C988 C990 1.391 . S
C989 C988 1.399 . S
C989 C993 1.381 1_545 S
C990 H982 0.950 . S
C990 C988 1.391 . S
C990 C991 1.403 . S
C991 C990 1.403 . S
C991 C992 1.396 1_545 S
C991 C997 1.492 1_545 S
C992 H983 0.950 . S
C992 C991 1.396 1_565 S
C992 C993 1.391 . S
C993 H981 0.950 . S
C993 C989 1.381 1_565 S
C993 C992 1.391 . S
C994 H984 0.950 . S
C994 C995 1.406 . S
C994 C996 1.391 . S
C995 C994 1.406 . S
C995 C999 1.375 1_565 S
C996 H985 0.950 . S
C996 C994 1.391 . S
C996 C997 1.409 . S
C997 C991 1.492 1_565 S
C997 C996 1.409 . S
C997 C998 1.389 1_565 S
C998 H986 0.950 . S
C998 C997 1.389 1_545 S
C998 C999 1.391 . S
C999 H987 0.950 . S
C999 C995 1.375 1_545 S
C999 C998 1.391 . S
H1000 C1008 0.950 . S
H1001 C1013 0.950 . S
H1002 C1010 0.950 . S
H1003 C1012 0.950 . S
H1004 C1014 0.950 . S
H1005 C1016 0.950 . S
H1006 C1018 0.950 . S
H1007 C1019 0.950 . S
C1008 H1000 0.950 . S
C1008 C1009 1.386 . S
C1008 C1010 1.391 . S
C1009 C1008 1.386 . S
C1009 C1013 1.393 . S
C1010 H1002 0.950 . S
C1010 C1008 1.391 . S
C1010 C1011 1.400 . S
C1011 C1010 1.400 . S
C1011 C1012 1.398 . S
C1011 C1017 1.491 . S
C1012 H1003 0.950 . S
C1012 C1011 1.398 . S
C1012 C1013 1.391 . S
C1013 H1001 0.950 . S
C1013 C1009 1.393 . S
C1013 C1012 1.391 . S
C1014 H1004 0.950 . S
C1014 C1015 1.386 . S
C1014 C1016 1.391 . S
C1015 C1014 1.386 . S
C1015 C1019 1.393 . S
C1016 H1005 0.950 . S
C1016 C1014 1.391 . S
C1016 C1017 1.400 . S
C1017 C1011 1.491 . S
C1017 C1016 1.400 . S
C1017 C1018 1.398 . S
C1018 H1006 0.950 . S
C1018 C1017 1.398 . S
C1018 C1019 1.391 . S
C1019 H1007 0.950 . S
C1019 C1015 1.393 . S
C1019 C1018 1.391 . S
H1020 C1028 0.950 . S
H1021 C1033 0.950 . S
H1022 C1030 0.950 . S
H1023 C1032 0.950 . S
H1024 C1034 0.950 . S
H1025 C1036 0.950 . S
H1026 C1038 0.950 . S
H1027 C1039 0.950 . S
C1028 H1020 0.950 . S
C1028 C1029 1.386 . S
C1028 C1030 1.391 . S
C1029 C1028 1.386 . S
C1029 C1033 1.393 . S
C1030 H1022 0.950 . S
C1030 C1028 1.391 . S
C1030 C1031 1.400 . S
C1031 C1030 1.400 . S
C1031 C1032 1.398 . S
C1031 C1037 1.491 . S
C1032 H1023 0.950 . S
C1032 C1031 1.398 . S
C1032 C1033 1.391 . S
C1033 H1021 0.950 . S
C1033 C1029 1.393 . S
C1033 C1032 1.391 . S
C1034 H1024 0.950 . S
C1034 C1035 1.386 . S
C1034 C1036 1.391 . S
C1035 C1034 1.386 . S
C1035 C1039 1.393 . S
C1036 H1025 0.950 . S
C1036 C1034 1.391 . S
C1036 C1037 1.400 . S
C1037 C1031 1.491 . S
C1037 C1036 1.400 . S
C1037 C1038 1.398 . S
C1038 H1026 0.950 . S
C1038 C1037 1.398 . S
C1038 C1039 1.391 . S
C1039 H1027 0.950 . S
C1039 C1035 1.393 . S
C1039 C1038 1.391 . S
C569 C391 1.549 . S
C575 C481 1.535 . S
C595 C516 2.248 . S
C589 C451 2.185 . S
C615 C521 1.432 . S
C609 C241 1.375 . S
C635 C541 1.950 . S
C629 C331 1.728 . S
C655 C489 1.546 . S
C649 C121 1.454 1_545 S
C669 C211 2.084 1_556 S
C675 C506 2.247 . S
C689 C31 1.464 1_556 S
C695 C529 1.434 . S
C709 C91 1.831 . S
C715 C549 1.948 . S
C735 C499 1.481 . S
C729 C301 1.242 . S
C755 C508 0.684 . S
C749 C380 0.647 . S
C775 C539 1.639 . S
C769 C440 1.569 . S
C789 C260 0.834 . S
C795 C559 0.900 . S
C809 C61 1.353 . S
C815 C488 1.480 . S
C835 C519 0.660 . S
C829 C140 0.719 1_545 S
C855 C528 1.634 . S
C849 C200 1.463 . S
C869 C20 0.886 . S
C875 C548 0.870 . S
C889 C320 2.100 . S
C895 C486 2.229 . S
C909 C361 1.609 1_556 S
C915 C509 1.897 . S
C935 C526 2.377 . S
C929 C421 2.107 1_556 S
C955 C546 2.099 . S
C949 C271 2.050 1_556 S
C969 C80 2.180 . S
C975 C496 2.231 . S
C995 C501 1.890 1_565 S
C989 C151 1.812 1_545 S
C1015 C536 2.381 . S
C1009 C181 1.969 . S
C1029 C1 1.816 . S
C1035 C556 2.100 . S
