# Generated by pormake.
# Topology anh, (6,3)-cn, num edge types: 1
# Building blocks:
#     Node 0, Type 0, BuildingBlock: VOLQOD_clean_sbu_1, # of connection points: 6
#     Node 1, Type 0, BuildingBlock: VOLQOD_clean_sbu_1, # of connection points: 6
#     Node 2, Type 0, BuildingBlock: VOLQOD_clean_sbu_1, # of connection points: 6
#     Node 3, Type 1, BuildingBlock: ESEHIV_clean_linker_0, # of connection points: 3
#     Node 4, Type 1, BuildingBlock: ESEHIV_clean_linker_0, # of connection points: 3
#     Node 5, Type 1, BuildingBlock: ESEHIV_clean_linker_0, # of connection points: 3
#     Node 6, Type 1, BuildingBlock: ESEHIV_clean_linker_0, # of connection points: 3
#     Node 7, Type 1, BuildingBlock: ESEHIV_clean_linker_0, # of connection points: 3
#     Node 8, Type 1, BuildingBlock: ESEHIV_clean_linker_0, # of connection points: 3
#     Edge 9, Type (0, 1), BuildingBlock: CIFDUS_clean_linker_0, # of connection points: 2
#     Edge 10, Type (0, 1), BuildingBlock: CIFDUS_clean_linker_0, # of connection points: 2
#     Edge 11, Type (0, 1), BuildingBlock: CIFDUS_clean_linker_0, # of connection points: 2
#     Edge 12, Type (0, 1), BuildingBlock: CIFDUS_clean_linker_0, # of connection points: 2
#     Edge 13, Type (0, 1), BuildingBlock: CIFDUS_clean_linker_0, # of connection points: 2
#     Edge 14, Type (0, 1), BuildingBlock: CIFDUS_clean_linker_0, # of connection points: 2
#     Edge 15, Type (0, 1), BuildingBlock: CIFDUS_clean_linker_0, # of connection points: 2
#     Edge 16, Type (0, 1), BuildingBlock: CIFDUS_clean_linker_0, # of connection points: 2
#     Edge 17, Type (0, 1), BuildingBlock: CIFDUS_clean_linker_0, # of connection points: 2
#     Edge 18, Type (0, 1), BuildingBlock: CIFDUS_clean_linker_0, # of connection points: 2
#     Edge 19, Type (0, 1), BuildingBlock: CIFDUS_clean_linker_0, # of connection points: 2
#     Edge 20, Type (0, 1), BuildingBlock: CIFDUS_clean_linker_0, # of connection points: 2
#     Edge 21, Type (0, 1), BuildingBlock: CIFDUS_clean_linker_0, # of connection points: 2
#     Edge 22, Type (0, 1), BuildingBlock: CIFDUS_clean_linker_0, # of connection points: 2
#     Edge 23, Type (0, 1), BuildingBlock: CIFDUS_clean_linker_0, # of connection points: 2
#     Edge 24, Type (0, 1), BuildingBlock: CIFDUS_clean_linker_0, # of connection points: 2
#     Edge 25, Type (0, 1), BuildingBlock: CIFDUS_clean_linker_0, # of connection points: 2
#     Edge 26, Type (0, 1), BuildingBlock: CIFDUS_clean_linker_0, # of connection points: 2
# Relax obj value: 0.166
# Max RMSD: 0.230
# Mean RMSD: 0.114
data_MOF--net-anh--node1-VOLQOD_clean_sbu_1--node2-ESEHIV_clean_linker_0--edge1-CIFDUS_clean_linker_0
_symmetry_space_group_name_H-M    P1
_symmetry_Int_Tables_number       1
_symmetry_cell_setting            triclinic
loop_
_symmetry_equiv_pos_as_xyz
'x, y, z'
_cell_length_a     23.732419
_cell_length_b     23.637307
_cell_length_c     50.694544
_cell_angle_alpha  89.762344
_cell_angle_beta   89.795078
_cell_angle_gamma 120.27906
loop_
_atom_site_label
_atom_site_type_symbol
_atom_site_fract_x
_atom_site_fract_y
_atom_site_fract_z
_atom_type_partial_charge
O0 O 0.00308 0.57353 0.23048 0.0
Zn1 Zn -0.00044 0.59704 0.19262 0.0
O2 O 0.02395 0.54725 0.16938 0.0
Zn3 Zn 0.95551 0.50228 0.14428 0.0
Zn4 Zn 0.03533 0.48393 0.18996 0.0
Zn5 Zn 0.10244 0.60331 0.14975 0.0
O6 O -0.01194 0.51033 0.10726 0.0
O7 O 0.08802 0.59611 0.11025 0.0
O8 O 0.90992 0.58349 0.18406 0.0
O9 O 0.89554 0.53819 0.14447 0.0
O10 O 0.89925 0.40937 0.15557 0.0
O11 O 0.95358 0.39556 0.18812 0.0
O12 O 0.11571 0.48124 0.17803 0.0
O13 O 0.06634 0.69307 0.18972 0.0
O14 O 0.169 0.57701 0.1568 0.0
O15 O 0.13881 0.6958 0.16109 0.0
C16 C 0.02558 0.5409 0.24182 0.0
C17 C 0.04096 0.55371 0.09645 0.0
C18 C 0.90308 0.37414 0.17372 0.0
C19 C 0.87867 0.56395 0.1625 0.0
C20 C 0.16678 0.52621 0.16656 0.0
C21 C 0.11971 0.72463 0.17685 0.0
O22 O 0.04431 0.50752 0.22858 0.0
O23 O 0.45527 0.01861 0.43504 0.0
Zn24 Zn 0.43352 0.01022 0.47382 0.0
O25 O 0.48946 0.98583 0.49274 0.0
Zn26 Zn 0.5541 0.05617 0.51387 0.0
Zn27 Zn 0.53295 0.96017 0.46702 0.0
Zn28 Zn 0.43748 0.91521 0.51649 0.0
O29 O 0.54683 0.03417 0.55292 0.0
O30 O 0.45067 0.94237 0.55456 0.0
O31 O 0.44785 0.09776 0.48651 0.0
O32 O 0.53599 0.12863 0.51108 0.0
O33 O 0.64512 0.09338 0.49912 0.0
O34 O 0.62564 0.03335 0.46309 0.0
O35 O 0.53152 0.87736 0.4784 0.0
O36 O 0.33875 0.93688 0.47652 0.0
O37 O 0.46462 0.84918 0.51296 0.0
O38 O 0.34386 0.87094 0.50648 0.0
C39 C 0.47301 0.98615 0.42068 0.0
C40 C 0.49945 0.98907 0.56611 0.0
C41 C 0.66415 0.08163 0.47737 0.0
C42 C 0.49422 0.14022 0.50063 0.0
C43 C 0.50085 0.8388 0.49758 0.0
C44 C 0.31145 0.88397 0.49009 0.0
O45 O 0.49467 0.95136 0.43074 0.0
O46 O 0.40529 0.42759 0.77035 0.0
Zn47 Zn 0.37382 0.39096 0.80691 0.0
O48 O 0.44612 0.43939 0.83083 0.0
Zn49 Zn 0.43427 0.4955 0.85393 0.0
Zn50 Zn 0.52595 0.49359 0.8113 0.0
Zn51 Zn 0.45232 0.37891 0.85378 0.0
O52 O 0.44831 0.48252 0.89208 0.0
O53 O 0.41999 0.37766 0.89083 0.0
O54 O 0.2957 0.40115 0.81764 0.0
O55 O 0.34365 0.47293 0.85004 0.0
O56 O 0.48336 0.58906 0.84225 0.0
O57 O 0.54416 0.58716 0.80944 0.0
O58 O 0.60107 0.48868 0.8281 0.0
O59 O 0.3533 0.29599 0.80443 0.0
O60 O 0.54585 0.40874 0.85732 0.0
O61 O 0.41191 0.29087 0.83739 0.0
C62 C 0.46129 0.44885 0.75966 0.0
C63 C 0.43221 0.42862 0.90382 0.0
C64 C 0.52259 0.61741 0.82311 0.0
C65 C 0.29456 0.43841 0.8356 0.0
C66 C 0.59935 0.45106 0.84664 0.0
C67 C 0.37505 0.2649 0.8176 0.0
O68 O 0.51218 0.46563 0.77344 0.0
H69 H 0.3911 -0.00469 0.2633 0.0
H70 H 0.58759 0.15727 0.2671 0.0
H71 H 0.49481 0.09047 0.19186 0.0
C72 C 0.43407 0.03361 0.25335 0.0
C73 C 0.43586 0.03836 0.2257 0.0
C74 C 0.48831 0.07684 0.26834 0.0
C75 C 0.54516 0.12463 0.25556 0.0
C76 C 0.54786 0.12924 0.22791 0.0
C77 C 0.49269 0.08694 0.2132 0.0
H78 H 0.5274 0.58658 0.6066 0.0
H79 H 0.57607 0.43501 0.60101 0.0
H80 H 0.54353 0.51581 0.53046 0.0
C81 C 0.53788 0.55501 0.59464 0.0
C82 C 0.53531 0.55759 0.56703 0.0
C83 C 0.55307 0.51128 0.60697 0.0
C84 C 0.56688 0.47078 0.59153 0.0
C85 C 0.56299 0.47204 0.56396 0.0
C86 C 0.54783 0.51587 0.55176 0.0
H87 H 0.91132 0.53542 0.93738 0.0
H88 H 0.09188 0.53406 0.93523 0.0
H89 H -0.00387 0.53068 0.86292 0.0
C90 C 0.95042 0.53526 0.9263 0.0
C91 C 0.9483 0.53412 0.89863 0.0
C92 C 0.00189 0.5351 0.93977 0.0
C93 C 0.05241 0.53553 0.92515 0.0
C94 C 0.05017 0.53383 0.89747 0.0
C95 C -0.00165 0.53341 0.88427 0.0
H96 H 0.97369 0.38255 0.3966 0.0
H97 H 0.09325 0.59016 0.40363 0.0
H98 H -0.00974 0.47517 0.47169 0.0
C99 C -0.00727 0.42558 0.40885 0.0
C100 C 0.97611 0.41985 0.43586 0.0
C101 C 0.0322 0.48702 0.397 0.0
C102 C 0.06002 0.54322 0.41268 0.0
C103 C 0.04684 0.53899 0.43987 0.0
C104 C 0.00342 0.47744 0.45111 0.0
H105 H 0.43948 0.02327 0.72458 0.0
H106 H 0.47382 0.86132 0.72715 0.0
H107 H 0.44971 0.94177 0.79932 0.0
C108 C 0.44577 0.98791 0.73593 0.0
C109 C 0.44279 0.98805 0.76366 0.0
C110 C 0.45673 0.94216 0.72269 0.0
C111 C 0.46578 0.89684 0.73738 0.0
C112 C 0.46394 0.89672 0.76509 0.0
C113 C 0.4519 0.94214 0.77797 0.0
H114 H 0.38344 0.44672 0.0662 0.0
H115 H 0.58695 0.51275 0.05775 0.0
H116 H 0.50609 0.50662 0.13476 0.0
C117 C 0.4305 0.46269 0.07517 0.0
C118 C 0.43803 0.47254 0.10254 0.0
C119 C 0.48462 0.47898 0.05905 0.0
C120 C 0.54594 0.5021 0.07048 0.0
C121 C 0.55469 0.51205 0.09785 0.0
C122 C 0.50017 0.49728 0.11376 0.0
H123 H 0.16909 0.41959 0.14862 0.0
H124 H 0.29256 0.61815 0.1747 0.0
H125 H 0.3895 0.61511 0.1605 0.0
H126 H 0.43741 0.56177 0.13524 0.0
H127 H 0.31401 0.36739 0.10493 0.0
H128 H 0.2187 0.36251 0.12618 0.0
C129 C 0.21744 0.46136 0.15177 0.0
C130 C 0.22416 0.5189 0.16271 0.0
C131 C 0.27271 0.46026 0.14242 0.0
C132 C 0.28666 0.57339 0.1663 0.0
C133 C 0.34193 0.57176 0.15809 0.0
C134 C 0.3899 0.51773 0.13389 0.0
C135 C 0.38249 0.46499 0.11865 0.0
C136 C 0.33536 0.51631 0.14532 0.0
C137 C 0.32056 0.40863 0.11654 0.0
C138 C 0.2662 0.40591 0.12864 0.0
H139 H 0.77286 0.17351 0.50321 0.0
H140 H 0.69515 0.10523 0.42544 0.0
H141 H 0.78561 0.20299 0.40577 0.0
H142 H 0.87672 0.31299 0.41104 0.0
H143 H 0.96535 0.3773 0.48775 0.0
H144 H 0.87871 0.27669 0.50743 0.0
C145 C 0.77665 0.17943 0.48193 0.0
C146 C 0.72689 0.13248 0.46588 0.0
C147 C 0.82939 0.23578 0.47058 0.0
C148 C 0.73274 0.14043 0.43831 0.0
C149 C 0.78417 0.19673 0.42701 0.0
C150 C 0.87949 0.30503 0.43191 0.0
C151 C 0.92786 0.35465 0.4477 0.0
C152 C 0.83155 0.2456 0.44302 0.0
C153 C 0.92783 0.34203 0.47494 0.0
C154 C 0.87861 0.28379 0.48629 0.0
H155 H 0.45595 0.67699 0.83863 0.0
H156 H 0.6071 0.69886 0.78475 0.0
H157 H 0.60464 0.78998 0.7628 0.0
H158 H 0.55243 0.85674 0.7565 0.0
H159 H 0.39562 0.82751 0.80869 0.0
H160 H 0.4077 0.74611 0.83369 0.0
C161 C 0.48948 0.7024 0.82244 0.0
C162 C 0.53167 0.68085 0.81338 0.0
C163 C 0.48607 0.75294 0.80932 0.0
C164 C 0.57421 0.71434 0.7922 0.0
C165 C 0.57244 0.76615 0.77949 0.0
C166 C 0.52078 0.83241 0.7733 0.0
C167 C 0.47309 0.84832 0.78062 0.0
C168 C 0.52719 0.78456 0.7874 0.0
C169 C 0.43326 0.817 0.80274 0.0
C170 C 0.43992 0.77014 0.81702 0.0
H171 H 0.85136 0.61997 0.1223 0.0
H172 H 0.76966 0.5059 0.19316 0.0
H173 H 0.66043 0.48245 0.18026 0.0
H174 H 0.58765 0.48263 0.14573 0.0
H175 H 0.67187 0.60404 0.07633 0.0
H176 H 0.78071 0.63596 0.09168 0.0
C177 C 0.80973 0.59164 0.13522 0.0
C178 C 0.81789 0.56471 0.15857 0.0
C179 C 0.74757 0.57843 0.12764 0.0
C180 C 0.76414 0.52774 0.17524 0.0
C181 C 0.70176 0.51376 0.1677 0.0
C182 C 0.62967 0.51731 0.13421 0.0
C183 C 0.62099 0.53888 0.1094 0.0
C184 C 0.69267 0.53709 0.14349 0.0
C185 C 0.67654 0.58412 0.09492 0.0
C186 C 0.73907 0.60314 0.10381 0.0
H187 H 0.24251 0.76424 0.51331 0.0
H188 H 0.23201 0.88222 0.45037 0.0
H189 H 0.14019 0.78472 0.43127 0.0
H190 H 0.07635 0.66444 0.42838 0.0
H191 H 0.09652 0.54728 0.48913 0.0
H192 H 0.16993 0.64593 0.51331 0.0
C193 C 0.21937 0.76913 0.49572 0.0
C194 C 0.24524 0.83043 0.483 0.0
C195 C 0.1687 0.71261 0.48419 0.0
C196 C 0.21368 0.83568 0.46048 0.0
C197 C 0.16146 0.77976 0.44939 0.0
C198 C 0.09649 0.66044 0.44699 0.0
C199 C 0.08173 0.59836 0.45661 0.0
C200 C 0.14086 0.71765 0.46036 0.0
C201 C 0.1067 0.59414 0.48119 0.0
C202 C 0.14925 0.65068 0.49498 0.0
H203 H 0.43605 0.20168 0.83536 0.0
H204 H 0.30178 0.19071 0.7756 0.0
H205 H 0.30861 0.10164 0.75412 0.0
H206 H 0.35961 0.03273 0.75063 0.0
H207 H 0.50144 0.05358 0.80878 0.0
H208 H 0.48445 0.13286 0.83251 0.0
C209 C 0.40725 0.17936 0.81787 0.0
C210 C 0.36844 0.20318 0.80715 0.0
C211 C 0.41344 0.13029 0.80511 0.0
C212 C 0.33192 0.1734 0.78437 0.0
C213 C 0.33625 0.12279 0.77195 0.0
C214 C 0.38709 0.0549 0.7684 0.0
C215 C 0.43159 0.03667 0.77788 0.0
C216 C 0.37824 0.10202 0.78178 0.0
C217 C 0.46602 0.06545 0.80119 0.0
C218 C 0.45663 0.11121 0.81476 0.0
H219 H 0.42922 0.74022 0.53154 0.0
H220 H 0.59293 0.81209 0.47774 0.0
H221 H 0.61553 0.72734 0.4934 0.0
H222 H 0.59443 0.63973 0.5255 0.0
H223 H 0.43278 0.57264 0.58004 0.0
H224 H 0.40412 0.64974 0.56111 0.0
C225 C 0.4697 0.73731 0.52303 0.0
C226 C 0.50993 0.78293 0.50378 0.0
C227 C 0.48321 0.68999 0.53253 0.0
C228 C 0.56139 0.77763 0.49267 0.0
C229 C 0.57453 0.7295 0.50173 0.0
C230 C 0.55253 0.64167 0.53295 0.0
C231 C 0.51622 0.6015 0.55431 0.0
C232 C 0.53669 0.68651 0.52212 0.0
C233 C 0.4621 0.60418 0.56394 0.0
C234 C 0.44551 0.64786 0.55305 0.0
H235 H 0.72589 0.53956 0.83275 0.0
H236 H 0.60876 0.37507 0.88459 0.0
H237 H 0.70624 0.38673 0.90477 0.0
H238 H 0.82403 0.44442 0.90892 0.0
H239 H 0.94415 0.60754 0.85755 0.0
H240 H 0.84629 0.5954 0.83583 0.0
C241 C 0.72182 0.50611 0.84833 0.0
C242 C 0.65996 0.45694 0.8572 0.0
C243 C 0.77848 0.51289 0.86004 0.0
C244 C 0.65557 0.41375 0.87739 0.0
C245 C 0.71133 0.42024 0.88904 0.0
C246 C 0.82863 0.47753 0.89307 0.0
C247 C 0.89052 0.52726 0.88501 0.0
C248 C 0.7728 0.46995 0.88075 0.0
C249 C 0.89648 0.56902 0.86405 0.0
C250 C 0.84073 0.56211 0.85172 0.0
H251 H 0.24036 0.80257 0.15636 0.0
H252 H 0.10306 0.80172 0.21275 0.0
H253 H 0.18864 0.90498 0.23093 0.0
H254 H 0.30556 0.98623 0.23488 0.0
H255 H 0.44289 0.97887 0.18086 0.0
H256 H 0.35397 0.88875 0.15751 0.0
C257 C 0.22861 0.8254 0.17231 0.0
C258 C 0.16572 0.79372 0.18351 0.0
C259 C 0.27838 0.8831 0.18333 0.0
C260 C 0.1513 0.82468 0.20392 0.0
C261 C 0.20032 0.88352 0.21446 0.0
C262 C 0.3159 0.96504 0.21792 0.0
C263 C 0.38083 0.98897 0.20981 0.0
C264 C 0.26461 0.91155 0.20505 0.0
C265 C 0.39341 0.96197 0.18744 0.0
C266 C 0.3426 0.91 0.17415 0.0
H267 H 0.59865 0.24541 0.52114 0.0
H268 H 0.40472 0.17962 0.49184 0.0
H269 H 0.41323 0.28272 0.50593 0.0
H270 H 0.47116 0.38522 0.53126 0.0
H271 H 0.66139 0.44523 0.56299 0.0
H272 H 0.65922 0.35009 0.54305 0.0
C273 C 0.55813 0.25347 0.51766 0.0
C274 C 0.50056 0.20444 0.50594 0.0
C275 C 0.56283 0.31159 0.5263 0.0
C276 C 0.44929 0.21643 0.50105 0.0
C277 C 0.4541 0.27519 0.50916 0.0
C278 C 0.51263 0.378 0.5332 0.0
C279 C 0.56643 0.42157 0.54842 0.0
C280 C 0.50996 0.32224 0.52244 0.0
C281 C 0.61964 0.41185 0.55131 0.0
C282 C 0.61824 0.35758 0.54002 0.0
H283 H 0.30062 0.54872 0.85095 0.0
H284 H 0.16297 0.34952 0.82927 0.0
H285 H 0.07249 0.36452 0.84422 0.0
H286 H 0.03531 0.43117 0.86864 0.0
H287 H 0.17716 0.62612 0.89347 0.0
H288 H 0.26431 0.61604 0.87221 0.0
C289 C 0.25074 0.50844 0.84934 0.0
C290 C 0.23823 0.44761 0.8396 0.0
C291 C 0.20028 0.51675 0.8588 0.0
C292 C 0.17353 0.39661 0.83686 0.0
C293 C 0.12212 0.40512 0.8456 0.0
C294 C 0.08533 0.47146 0.86896 0.0
C295 C 0.10066 0.52925 0.8825 0.0
C296 C 0.13524 0.46436 0.8574 0.0
C297 C 0.16508 0.58135 0.88317 0.0
C298 C 0.21455 0.57553 0.87106 0.0
H299 H 0.78041 0.33584 0.15794 0.0
H300 H 0.88931 0.28014 0.20935 0.0
H301 H 0.78774 0.19793 0.23055 0.0
H302 H 0.66915 0.14929 0.23705 0.0
H303 H 0.56288 0.21117 0.18721 0.0
H304 H 0.66288 0.28462 0.16301 0.0
C305 C 0.78215 0.30488 0.17339 0.0
C306 C 0.84253 0.31436 0.18209 0.0
C307 C 0.72418 0.25999 0.18619 0.0
C308 C 0.84351 0.27385 0.20225 0.0
C309 C 0.78553 0.22733 0.21457 0.0
C310 C 0.66818 0.17932 0.22102 0.0
C311 C 0.60906 0.17544 0.21404 0.0
C312 C 0.72588 0.22156 0.20726 0.0
C313 C 0.60793 0.21343 0.1929 0.0
C314 C 0.66496 0.25524 0.17904 0.0
H315 H 0.9455 0.48122 0.06149 0.0
H316 H 0.14825 0.63244 0.06576 0.0
H317 H 0.15467 0.63921 0.01759 0.0
H318 H 0.10142 0.6041 0.97418 0.0
H319 H 0.89838 0.4537 0.97074 0.0
H320 H 0.89336 0.44514 0.01871 0.0
C321 C -0.00868 0.5155 0.05197 0.0
C322 C 0.04627 0.55625 0.06728 0.0
C323 C -0.00551 0.51964 0.02438 0.0
C324 C 0.1051 0.60051 0.05449 0.0
C325 C 0.10882 0.60447 0.02693 0.0
C326 C 0.05629 0.56922 0.98399 0.0
C327 C 0.00023 0.53003 0.96895 0.0
C328 C 0.05367 0.56457 0.01167 0.0
C329 C 0.94191 0.48526 0.98189 0.0
C330 C 0.93907 0.48002 0.00931 0.0
H331 H 0.48824 0.09035 0.39246 0.0
H332 H 0.45553 0.8945 0.38411 0.0
H333 H 0.45525 0.90464 0.33604 0.0
H334 H 0.46608 0.97011 0.29639 0.0
H335 H 0.50699 0.1686 0.30476 0.0
H336 H 0.50255 0.1569 0.35292 0.0
C337 C 0.48058 0.04976 0.38009 0.0
C338 C 0.47134 0.99156 0.39172 0.0
C339 C 0.4823 0.05664 0.35255 0.0
C340 C 0.4627 0.93975 0.37553 0.0
C341 C 0.46251 0.94551 0.3481 0.0
C342 C 0.47377 0.01055 0.30887 0.0
C343 C 0.48642 0.06994 0.29731 0.0
C344 C 0.47254 0.00382 0.33641 0.0
C345 C 0.49727 0.12254 0.31344 0.0
C346 C 0.49458 0.11577 0.34087 0.0
H347 H 0.5661 0.47302 0.7294 0.0
H348 H 0.3714 0.44377 0.72489 0.0
H349 H 0.38396 0.46275 0.67739 0.0
H350 H 0.45013 0.48812 0.63718 0.0
H351 H 0.64294 0.51352 0.64101 0.0
H352 H 0.63142 0.49579 0.6889 0.0
C353 C 0.52636 0.47071 0.71803 0.0
C354 C 0.46798 0.45717 0.73071 0.0
C355 C 0.53371 0.48131 0.69069 0.0
C356 C 0.4168 0.45387 0.71565 0.0
C357 C 0.42398 0.46498 0.68849 0.0
C358 C 0.48978 0.49039 0.64862 0.0
C359 C 0.54757 0.50286 0.63588 0.0
C360 C 0.48227 0.47903 0.67586 0.0
C361 C 0.59818 0.50424 0.65061 0.0
C362 C 0.59154 0.49407 0.67788 0.0
H363 H 0.42734 0.88884 0.60019 0.0
H364 H 0.57376 0.09414 0.59778 0.0
H365 H 0.57254 0.09823 0.64596 0.0
H366 H 0.52917 0.04338 0.68894 0.0
H367 H 0.38635 0.83723 0.69109 0.0
H368 H 0.38678 0.8335 0.64288 0.0
C369 C 0.45898 0.93454 0.61018 0.0
C370 C 0.50035 0.99116 0.59535 0.0
C371 C 0.4586 0.93637 0.63787 0.0
C372 C 0.54155 0.04977 0.60868 0.0
C373 C 0.54074 0.05221 0.63624 0.0
C374 C 0.49804 -0.00218 0.67876 0.0
C375 C 0.4576 0.9407 0.69345 0.0
C376 C 0.49932 -0.00413 0.65104 0.0
C377 C 0.41806 0.8817 0.68014 0.0
C378 C 0.4182 0.87961 0.65262 0.0
H379 H 0.4983 0.53042 0.93676 0.0
H380 H 0.36533 0.32168 0.93619 0.0
H381 H 0.36729 0.31873 0.98448 0.0
H382 H 0.40933 0.37592 0.02702 0.0
H383 H 0.54803 0.5832 0.02653 0.0
H384 H 0.54135 0.58653 0.97851 0.0
C385 C 0.46931 0.48432 0.9472 0.0
C386 C 0.4314 0.42646 0.93297 0.0
C387 C 0.472 0.48279 0.97478 0.0
C388 C 0.39494 0.36692 0.94674 0.0
C389 C 0.39603 0.36522 0.97433 0.0
C390 C 0.43776 0.4216 0.01626 0.0
C391 C 0.47913 0.47924 0.03006 0.0
C392 C 0.43473 0.42283 0.98857 0.0
C393 C 0.51623 0.53828 0.01613 0.0
C394 C 0.51231 0.54021 0.98876 0.0
H395 H 0.05326 0.46467 0.27366 0.0
H396 H 0.00623 0.61897 0.27568 0.0
H397 H 0.00836 0.61836 0.32369 0.0
H398 H 0.01842 0.57093 0.36512 0.0
H399 H 0.06273 0.41506 0.36371 0.0
H400 H 0.06686 0.4194 0.31542 0.0
C401 C 0.04384 0.49843 0.28458 0.0
C402 C 0.02932 0.54158 0.271 0.0
C403 C 0.0445 0.49747 0.3123 0.0
C404 C 0.01712 0.58489 0.28554 0.0
C405 C 0.01842 0.58472 0.31304 0.0
C406 C 0.03006 0.53866 0.35424 0.0
C407 C 0.04043 0.49289 0.36791 0.0
C408 C 0.03146 0.54086 0.3266 0.0
C409 C 0.05421 0.45048 0.35358 0.0
C410 C 0.05663 0.453 0.326 0.0
loop_
_geom_bond_atom_site_label_1
_geom_bond_atom_site_label_2
_geom_bond_distance
_geom_bond_site_symmetry_2
_ccdc_geom_bond_type
O0 Zn1 1.953 . S
O0 C16 1.225 1_655 S
Zn1 O0 1.953 . S
Zn1 O2 1.949 1_655 S
Zn1 O8 1.919 . S
Zn1 O13 1.924 1_655 S
O2 Zn1 1.949 1_455 S
O2 Zn3 1.923 1_455 S
O2 Zn4 1.950 . S
O2 Zn5 1.945 . S
Zn3 O2 1.923 1_655 S
Zn3 O6 1.933 . S
Zn3 O9 1.941 . S
Zn3 O10 1.965 . S
Zn4 O2 1.950 . S
Zn4 O11 1.938 1_455 S
Zn4 O12 1.906 . S
Zn4 O22 1.953 . S
Zn5 O2 1.945 . S
Zn5 O7 1.932 . S
Zn5 O14 1.977 . S
Zn5 O15 1.910 . S
O6 Zn3 1.933 . S
O6 C17 1.226 1_655 S
O7 Zn5 1.932 . S
O7 C17 1.307 . S
O8 Zn1 1.919 . S
O8 C19 1.253 . S
O9 Zn3 1.941 . S
O9 C19 1.283 . S
O10 Zn3 1.965 . S
O10 C18 1.303 . S
O11 Zn4 1.938 1_655 S
O11 C18 1.247 . S
O12 Zn4 1.906 . S
O12 C20 1.304 . S
O13 Zn1 1.924 1_455 S
O13 C21 1.311 . S
O14 Zn5 1.977 . S
O14 C20 1.272 . S
O15 Zn5 1.910 . S
O15 C21 1.231 . S
C16 O0 1.225 1_455 S
C16 O22 1.298 . S
C17 O6 1.226 1_455 S
C17 O7 1.307 . S
C18 O10 1.303 . S
C18 O11 1.247 . S
C19 O8 1.253 . S
C19 O9 1.283 . S
C20 O12 1.304 . S
C20 O14 1.272 . S
C21 O13 1.311 . S
C21 O15 1.231 . S
O22 Zn4 1.953 . S
O22 C16 1.298 . S
O23 Zn24 1.953 . S
O23 C39 1.225 . S
Zn24 O23 1.953 . S
Zn24 O25 1.949 . S
Zn24 O31 1.919 . S
Zn24 O36 1.924 1_545 S
O25 Zn24 1.949 . S
O25 Zn26 1.923 . S
O25 Zn27 1.950 1_545 S
O25 Zn28 1.945 1_545 S
Zn26 O25 1.923 . S
Zn26 O29 1.933 . S
Zn26 O32 1.941 . S
Zn26 O33 1.965 . S
Zn27 O25 1.950 1_565 S
Zn27 O34 1.938 1_565 S
Zn27 O35 1.906 . S
Zn27 O45 1.953 . S
Zn28 O25 1.945 1_565 S
Zn28 O30 1.932 . S
Zn28 O37 1.977 . S
Zn28 O38 1.910 . S
O29 Zn26 1.933 . S
O29 C40 1.226 . S
O30 Zn28 1.932 . S
O30 C40 1.307 1_565 S
O31 Zn24 1.919 . S
O31 C42 1.253 . S
O32 Zn26 1.941 . S
O32 C42 1.283 . S
O33 Zn26 1.965 . S
O33 C41 1.303 . S
O34 Zn27 1.938 1_545 S
O34 C41 1.247 . S
O35 Zn27 1.906 . S
O35 C43 1.304 . S
O36 Zn24 1.924 1_565 S
O36 C44 1.311 . S
O37 Zn28 1.977 . S
O37 C43 1.272 . S
O38 Zn28 1.910 . S
O38 C44 1.231 . S
C39 O23 1.225 . S
C39 O45 1.298 1_545 S
C40 O29 1.226 . S
C40 O30 1.307 1_545 S
C41 O33 1.303 . S
C41 O34 1.247 . S
C42 O31 1.253 . S
C42 O32 1.283 . S
C43 O35 1.304 . S
C43 O37 1.272 . S
C44 O36 1.311 . S
C44 O38 1.231 . S
O45 Zn27 1.953 . S
O45 C39 1.298 1_565 S
O46 Zn47 1.953 . S
O46 C62 1.225 . S
Zn47 O46 1.953 . S
Zn47 O48 1.949 . S
Zn47 O54 1.919 . S
Zn47 O59 1.924 . S
O48 Zn47 1.949 . S
O48 Zn49 1.923 . S
O48 Zn50 1.950 . S
O48 Zn51 1.945 . S
Zn49 O48 1.923 . S
Zn49 O52 1.933 . S
Zn49 O55 1.941 . S
Zn49 O56 1.965 . S
Zn50 O48 1.950 . S
Zn50 O57 1.938 . S
Zn50 O58 1.906 . S
Zn50 O68 1.953 . S
Zn51 O48 1.945 . S
Zn51 O53 1.932 . S
Zn51 O60 1.977 . S
Zn51 O61 1.910 . S
O52 Zn49 1.933 . S
O52 C63 1.226 . S
O53 Zn51 1.932 . S
O53 C63 1.307 . S
O54 Zn47 1.919 . S
O54 C65 1.253 . S
O55 Zn49 1.941 . S
O55 C65 1.283 . S
O56 Zn49 1.965 . S
O56 C64 1.303 . S
O57 Zn50 1.938 . S
O57 C64 1.247 . S
O58 Zn50 1.906 . S
O58 C66 1.304 . S
O59 Zn47 1.924 . S
O59 C67 1.311 . S
O60 Zn51 1.977 . S
O60 C66 1.272 . S
O61 Zn51 1.910 . S
O61 C67 1.231 . S
C62 O46 1.225 . S
C62 O68 1.298 . S
C63 O52 1.226 . S
C63 O53 1.307 . S
C64 O56 1.303 . S
C64 O57 1.247 . S
C65 O54 1.253 . S
C65 O55 1.283 . S
C66 O58 1.304 . S
C66 O60 1.272 . S
C67 O59 1.311 . S
C67 O61 1.231 . S
O68 Zn50 1.953 . S
O68 C62 1.298 . S
H69 C72 0.931 . S
H70 C75 0.928 . S
H71 C77 0.930 . S
C72 H69 0.931 . S
C72 C73 1.413 . S
C72 C74 1.360 1_565 S
C73 C72 1.413 . S
C73 C77 1.429 1_565 S
C74 C72 1.360 1_545 S
C74 C75 1.372 . S
C75 H70 0.928 . S
C75 C74 1.372 . S
C75 C76 1.404 . S
C76 C75 1.404 . S
C76 C77 1.391 . S
C77 H71 0.930 . S
C77 C73 1.429 1_545 S
C77 C76 1.391 . S
H78 C81 0.931 . S
H79 C84 0.928 . S
H80 C86 0.930 . S
C81 H78 0.931 . S
C81 C82 1.413 . S
C81 C83 1.360 . S
C82 C81 1.413 . S
C82 C86 1.429 . S
C83 C81 1.360 . S
C83 C84 1.372 . S
C84 H79 0.928 . S
C84 C83 1.372 . S
C84 C85 1.404 . S
C85 C84 1.404 . S
C85 C86 1.391 . S
C86 H80 0.930 . S
C86 C82 1.429 . S
C86 C85 1.391 . S
H87 C90 0.931 . S
H88 C93 0.928 . S
H89 C95 0.930 . S
C90 H87 0.931 . S
C90 C91 1.413 . S
C90 C92 1.360 1_655 S
C91 C90 1.413 . S
C91 C95 1.429 1_655 S
C92 C90 1.360 1_455 S
C92 C93 1.372 . S
C93 H88 0.928 . S
C93 C92 1.372 . S
C93 C94 1.404 . S
C94 C93 1.404 . S
C94 C95 1.391 . S
C95 H89 0.930 . S
C95 C91 1.429 1_455 S
C95 C94 1.391 . S
H96 C99 0.931 . S
H97 C102 0.928 . S
H98 C104 0.930 . S
C99 H96 0.931 . S
C99 C100 1.413 . S
C99 C101 1.360 1_655 S
C100 C99 1.413 . S
C100 C104 1.429 1_655 S
C101 C99 1.360 1_455 S
C101 C102 1.372 . S
C102 H97 0.928 . S
C102 C101 1.372 . S
C102 C103 1.404 . S
C103 C102 1.404 . S
C103 C104 1.391 . S
C104 H98 0.930 . S
C104 C100 1.429 1_455 S
C104 C103 1.391 . S
H105 C108 0.931 . S
H106 C111 0.928 . S
H107 C113 0.930 . S
C108 H105 0.931 . S
C108 C109 1.413 . S
C108 C110 1.352 1_545 S
C109 C108 1.413 . S
C109 C113 1.429 1_545 S
C110 C108 1.352 1_565 S
C110 C111 1.379 . S
C111 H106 0.928 . S
C111 C110 1.379 . S
C111 C112 1.404 . S
C112 C111 1.404 . S
C112 C113 1.391 . S
C113 H107 0.930 . S
C113 C109 1.429 1_565 S
C113 C112 1.391 . S
H114 C117 0.931 . S
H115 C120 0.928 . S
H116 C122 0.930 . S
C117 H114 0.931 . S
C117 C118 1.413 . S
C117 C119 1.360 . S
C118 C117 1.413 . S
C118 C122 1.429 . S
C119 C117 1.360 . S
C119 C120 1.372 . S
C120 H115 0.928 . S
C120 C119 1.372 . S
C120 C121 1.404 . S
C121 C120 1.404 . S
C121 C122 1.391 . S
C122 H116 0.930 . S
C122 C118 1.429 . S
C122 C121 1.391 . S
H123 C129 0.930 . S
H124 C132 0.930 . S
H125 C133 0.930 . S
H126 C134 0.930 . S
H127 C137 0.930 . S
H128 C138 0.930 . S
C129 H123 0.930 . S
C129 C130 1.355 . S
C129 C131 1.415 . S
C130 C129 1.355 . S
C130 C132 1.419 . S
C131 C129 1.415 . S
C131 C136 1.425 . S
C131 C138 1.409 . S
C132 H124 0.930 . S
C132 C130 1.419 . S
C132 C133 1.362 . S
C133 H125 0.930 . S
C133 C132 1.362 . S
C133 C136 1.409 . S
C134 H126 0.930 . S
C134 C135 1.355 . S
C134 C136 1.415 . S
C135 C134 1.355 . S
C135 C137 1.419 . S
C136 C131 1.425 . S
C136 C133 1.409 . S
C136 C134 1.415 . S
C137 H127 0.930 . S
C137 C135 1.419 . S
C137 C138 1.362 . S
C138 H128 0.930 . S
C138 C131 1.409 . S
C138 C137 1.362 . S
H139 C145 0.930 . S
H140 C148 0.930 . S
H141 C149 0.930 . S
H142 C150 0.930 . S
H143 C153 0.930 . S
H144 C154 0.930 . S
C145 H139 0.930 . S
C145 C146 1.355 . S
C145 C147 1.415 . S
C146 C145 1.355 . S
C146 C148 1.419 . S
C147 C145 1.415 . S
C147 C152 1.425 . S
C147 C154 1.409 . S
C148 H140 0.930 . S
C148 C146 1.419 . S
C148 C149 1.362 . S
C149 H141 0.930 . S
C149 C148 1.362 . S
C149 C152 1.409 . S
C150 H142 0.930 . S
C150 C151 1.355 . S
C150 C152 1.415 . S
C151 C150 1.355 . S
C151 C153 1.419 . S
C152 C147 1.425 . S
C152 C149 1.409 . S
C152 C150 1.415 . S
C153 H143 0.930 . S
C153 C151 1.419 . S
C153 C154 1.362 . S
C154 H144 0.930 . S
C154 C147 1.409 . S
C154 C153 1.362 . S
H155 C161 0.930 . S
H156 C164 0.930 . S
H157 C165 0.930 . S
H158 C166 0.930 . S
H159 C169 0.930 . S
H160 C170 0.930 . S
C161 H155 0.930 . S
C161 C162 1.355 . S
C161 C163 1.415 . S
C162 C161 1.355 . S
C162 C164 1.419 . S
C163 C161 1.415 . S
C163 C168 1.425 . S
C163 C170 1.409 . S
C164 H156 0.930 . S
C164 C162 1.419 . S
C164 C165 1.362 . S
C165 H157 0.930 . S
C165 C164 1.362 . S
C165 C168 1.409 . S
C166 H158 0.930 . S
C166 C167 1.355 . S
C166 C168 1.415 . S
C167 C166 1.355 . S
C167 C169 1.419 . S
C168 C163 1.425 . S
C168 C165 1.409 . S
C168 C166 1.415 . S
C169 H159 0.930 . S
C169 C167 1.419 . S
C169 C170 1.362 . S
C170 H160 0.930 . S
C170 C163 1.409 . S
C170 C169 1.362 . S
H171 C177 0.930 . S
H172 C180 0.930 . S
H173 C181 0.930 . S
H174 C182 0.930 . S
H175 C185 0.930 . S
H176 C186 0.930 . S
C177 H171 0.930 . S
C177 C178 1.355 . S
C177 C179 1.415 . S
C178 C177 1.355 . S
C178 C180 1.419 . S
C179 C177 1.415 . S
C179 C184 1.425 . S
C179 C186 1.409 . S
C180 H172 0.930 . S
C180 C178 1.419 . S
C180 C181 1.362 . S
C181 H173 0.930 . S
C181 C180 1.362 . S
C181 C184 1.409 . S
C182 H174 0.930 . S
C182 C183 1.355 . S
C182 C184 1.415 . S
C183 C182 1.355 . S
C183 C185 1.419 . S
C184 C179 1.425 . S
C184 C181 1.409 . S
C184 C182 1.415 . S
C185 H175 0.930 . S
C185 C183 1.419 . S
C185 C186 1.362 . S
C186 H176 0.930 . S
C186 C179 1.409 . S
C186 C185 1.362 . S
H187 C193 0.930 . S
H188 C196 0.930 . S
H189 C197 0.930 . S
H190 C198 0.930 . S
H191 C201 0.930 . S
H192 C202 0.930 . S
C193 H187 0.930 . S
C193 C194 1.355 . S
C193 C195 1.415 . S
C194 C193 1.355 . S
C194 C196 1.419 . S
C195 C193 1.415 . S
C195 C200 1.425 . S
C195 C202 1.409 . S
C196 H188 0.930 . S
C196 C194 1.419 . S
C196 C197 1.362 . S
C197 H189 0.930 . S
C197 C196 1.362 . S
C197 C200 1.409 . S
C198 H190 0.930 . S
C198 C199 1.355 . S
C198 C200 1.415 . S
C199 C198 1.355 . S
C199 C201 1.419 . S
C200 C195 1.425 . S
C200 C197 1.409 . S
C200 C198 1.415 . S
C201 H191 0.930 . S
C201 C199 1.419 . S
C201 C202 1.362 . S
C202 H192 0.930 . S
C202 C195 1.409 . S
C202 C201 1.362 . S
H203 C209 0.930 . S
H204 C212 0.930 . S
H205 C213 0.930 . S
H206 C214 0.930 . S
H207 C217 0.930 . S
H208 C218 0.930 . S
C209 H203 0.930 . S
C209 C210 1.355 . S
C209 C211 1.415 . S
C210 C209 1.355 . S
C210 C212 1.419 . S
C211 C209 1.415 . S
C211 C216 1.425 . S
C211 C218 1.409 . S
C212 H204 0.930 . S
C212 C210 1.419 . S
C212 C213 1.362 . S
C213 H205 0.930 . S
C213 C212 1.362 . S
C213 C216 1.409 . S
C214 H206 0.930 . S
C214 C215 1.355 . S
C214 C216 1.415 . S
C215 C214 1.355 . S
C215 C217 1.419 . S
C216 C211 1.425 . S
C216 C213 1.409 . S
C216 C214 1.415 . S
C217 H207 0.930 . S
C217 C215 1.419 . S
C217 C218 1.362 . S
C218 H208 0.930 . S
C218 C211 1.409 . S
C218 C217 1.362 . S
H219 C225 0.930 . S
H220 C228 0.930 . S
H221 C229 0.930 . S
H222 C230 0.930 . S
H223 C233 0.930 . S
H224 C234 0.930 . S
C225 H219 0.930 . S
C225 C226 1.355 . S
C225 C227 1.415 . S
C226 C225 1.355 . S
C226 C228 1.419 . S
C227 C225 1.415 . S
C227 C232 1.425 . S
C227 C234 1.409 . S
C228 H220 0.930 . S
C228 C226 1.419 . S
C228 C229 1.362 . S
C229 H221 0.930 . S
C229 C228 1.362 . S
C229 C232 1.409 . S
C230 H222 0.930 . S
C230 C231 1.355 . S
C230 C232 1.415 . S
C231 C230 1.355 . S
C231 C233 1.419 . S
C232 C227 1.425 . S
C232 C229 1.409 . S
C232 C230 1.415 . S
C233 H223 0.930 . S
C233 C231 1.419 . S
C233 C234 1.362 . S
C234 H224 0.930 . S
C234 C227 1.409 . S
C234 C233 1.362 . S
H235 C241 0.930 . S
H236 C244 0.930 . S
H237 C245 0.930 . S
H238 C246 0.930 . S
H239 C249 0.930 . S
H240 C250 0.930 . S
C241 H235 0.930 . S
C241 C242 1.355 . S
C241 C243 1.415 . S
C242 C241 1.355 . S
C242 C244 1.419 . S
C243 C241 1.415 . S
C243 C248 1.425 . S
C243 C250 1.409 . S
C244 H236 0.930 . S
C244 C242 1.419 . S
C244 C245 1.362 . S
C245 H237 0.930 . S
C245 C244 1.362 . S
C245 C248 1.409 . S
C246 H238 0.930 . S
C246 C247 1.355 . S
C246 C248 1.415 . S
C247 C246 1.355 . S
C247 C249 1.419 . S
C248 C243 1.425 . S
C248 C245 1.409 . S
C248 C246 1.415 . S
C249 H239 0.930 . S
C249 C247 1.419 . S
C249 C250 1.362 . S
C250 H240 0.930 . S
C250 C243 1.409 . S
C250 C249 1.362 . S
H251 C257 0.930 . S
H252 C260 0.930 . S
H253 C261 0.930 . S
H254 C262 0.930 . S
H255 C265 0.930 . S
H256 C266 0.930 . S
C257 H251 0.930 . S
C257 C258 1.355 . S
C257 C259 1.415 . S
C258 C257 1.355 . S
C258 C260 1.419 . S
C259 C257 1.415 . S
C259 C264 1.425 . S
C259 C266 1.409 . S
C260 H252 0.930 . S
C260 C258 1.419 . S
C260 C261 1.362 . S
C261 H253 0.930 . S
C261 C260 1.362 . S
C261 C264 1.409 . S
C262 H254 0.930 . S
C262 C263 1.355 . S
C262 C264 1.415 . S
C263 C262 1.355 . S
C263 C265 1.419 . S
C264 C259 1.425 . S
C264 C261 1.409 . S
C264 C262 1.415 . S
C265 H255 0.930 . S
C265 C263 1.419 . S
C265 C266 1.362 . S
C266 H256 0.930 . S
C266 C259 1.409 . S
C266 C265 1.362 . S
H267 C273 0.930 . S
H268 C276 0.930 . S
H269 C277 0.930 . S
H270 C278 0.930 . S
H271 C281 0.930 . S
H272 C282 0.930 . S
C273 H267 0.930 . S
C273 C274 1.355 . S
C273 C275 1.415 . S
C274 C273 1.355 . S
C274 C276 1.419 . S
C275 C273 1.415 . S
C275 C280 1.425 . S
C275 C282 1.409 . S
C276 H268 0.930 . S
C276 C274 1.419 . S
C276 C277 1.362 . S
C277 H269 0.930 . S
C277 C276 1.362 . S
C277 C280 1.409 . S
C278 H270 0.930 . S
C278 C279 1.355 . S
C278 C280 1.415 . S
C279 C278 1.355 . S
C279 C281 1.419 . S
C280 C275 1.425 . S
C280 C277 1.409 . S
C280 C278 1.415 . S
C281 H271 0.930 . S
C281 C279 1.419 . S
C281 C282 1.362 . S
C282 H272 0.930 . S
C282 C275 1.409 . S
C282 C281 1.362 . S
H283 C289 0.930 . S
H284 C292 0.930 . S
H285 C293 0.930 . S
H286 C294 0.930 . S
H287 C297 0.930 . S
H288 C298 0.930 . S
C289 H283 0.930 . S
C289 C290 1.355 . S
C289 C291 1.415 . S
C290 C289 1.355 . S
C290 C292 1.419 . S
C291 C289 1.415 . S
C291 C296 1.425 . S
C291 C298 1.409 . S
C292 H284 0.930 . S
C292 C290 1.419 . S
C292 C293 1.362 . S
C293 H285 0.930 . S
C293 C292 1.362 . S
C293 C296 1.409 . S
C294 H286 0.930 . S
C294 C295 1.355 . S
C294 C296 1.415 . S
C295 C294 1.355 . S
C295 C297 1.419 . S
C296 C291 1.425 . S
C296 C293 1.409 . S
C296 C294 1.415 . S
C297 H287 0.930 . S
C297 C295 1.419 . S
C297 C298 1.362 . S
C298 H288 0.930 . S
C298 C291 1.409 . S
C298 C297 1.362 . S
H299 C305 0.930 . S
H300 C308 0.930 . S
H301 C309 0.930 . S
H302 C310 0.930 . S
H303 C313 0.930 . S
H304 C314 0.930 . S
C305 H299 0.930 . S
C305 C306 1.355 . S
C305 C307 1.415 . S
C306 C305 1.355 . S
C306 C308 1.419 . S
C307 C305 1.415 . S
C307 C312 1.425 . S
C307 C314 1.409 . S
C308 H300 0.930 . S
C308 C306 1.419 . S
C308 C309 1.362 . S
C309 H301 0.930 . S
C309 C308 1.362 . S
C309 C312 1.409 . S
C310 H302 0.930 . S
C310 C311 1.355 . S
C310 C312 1.415 . S
C311 C310 1.355 . S
C311 C313 1.419 . S
C312 C307 1.425 . S
C312 C309 1.409 . S
C312 C310 1.415 . S
C313 H303 0.930 . S
C313 C311 1.419 . S
C313 C314 1.362 . S
C314 H304 0.930 . S
C314 C307 1.409 . S
C314 C313 1.362 . S
H315 C321 0.930 . S
H316 C324 0.930 . S
H317 C325 0.930 . S
H318 C326 0.930 . S
H319 C329 0.930 . S
H320 C330 0.930 . S
C321 H315 0.930 . S
C321 C322 1.355 1_655 S
C321 C323 1.415 . S
C322 C321 1.355 1_455 S
C322 C324 1.419 . S
C323 C321 1.415 . S
C323 C328 1.425 1_655 S
C323 C330 1.409 . S
C324 H316 0.930 . S
C324 C322 1.419 . S
C324 C325 1.362 . S
C325 H317 0.930 . S
C325 C324 1.362 . S
C325 C328 1.409 . S
C326 H318 0.930 . S
C326 C327 1.355 . S
C326 C328 1.415 1_556 S
C327 C326 1.355 . S
C327 C329 1.419 1_455 S
C328 C323 1.425 1_455 S
C328 C325 1.409 . S
C328 C326 1.415 1_554 S
C329 H319 0.930 . S
C329 C327 1.419 1_655 S
C329 C330 1.362 1_556 S
C330 H320 0.930 . S
C330 C323 1.409 . S
C330 C329 1.362 1_554 S
H331 C337 0.930 . S
H332 C340 0.930 . S
H333 C341 0.930 . S
H334 C342 0.930 . S
H335 C345 0.930 . S
H336 C346 0.930 . S
C337 H331 0.930 . S
C337 C338 1.355 . S
C337 C339 1.415 . S
C338 C337 1.355 . S
C338 C340 1.419 1_545 S
C339 C337 1.415 . S
C339 C344 1.425 1_545 S
C339 C346 1.409 . S
C340 H332 0.930 . S
C340 C338 1.419 1_565 S
C340 C341 1.362 . S
C341 H333 0.930 . S
C341 C340 1.362 . S
C341 C344 1.409 . S
C342 H334 0.930 . S
C342 C343 1.355 1_565 S
C342 C344 1.415 . S
C343 C342 1.355 1_545 S
C343 C345 1.419 . S
C344 C339 1.425 1_565 S
C344 C341 1.409 . S
C344 C342 1.415 . S
C345 H335 0.930 . S
C345 C343 1.419 . S
C345 C346 1.362 . S
C346 H336 0.930 . S
C346 C339 1.409 . S
C346 C345 1.362 . S
H347 C353 0.930 . S
H348 C356 0.930 . S
H349 C357 0.930 . S
H350 C358 0.930 . S
H351 C361 0.930 . S
H352 C362 0.930 . S
C353 H347 0.930 . S
C353 C354 1.355 . S
C353 C355 1.415 . S
C354 C353 1.355 . S
C354 C356 1.419 . S
C355 C353 1.415 . S
C355 C360 1.425 . S
C355 C362 1.409 . S
C356 H348 0.930 . S
C356 C354 1.419 . S
C356 C357 1.362 . S
C357 H349 0.930 . S
C357 C356 1.362 . S
C357 C360 1.409 . S
C358 H350 0.930 . S
C358 C359 1.355 . S
C358 C360 1.415 . S
C359 C358 1.355 . S
C359 C361 1.419 . S
C360 C355 1.425 . S
C360 C357 1.409 . S
C360 C358 1.415 . S
C361 H351 0.930 . S
C361 C359 1.419 . S
C361 C362 1.362 . S
C362 H352 0.930 . S
C362 C355 1.409 . S
C362 C361 1.362 . S
H363 C369 0.930 . S
H364 C372 0.930 . S
H365 C373 0.930 . S
H366 C374 0.930 . S
H367 C377 0.930 . S
H368 C378 0.930 . S
C369 H363 0.930 . S
C369 C370 1.355 . S
C369 C371 1.415 . S
C370 C369 1.355 . S
C370 C372 1.419 1_545 S
C371 C369 1.415 . S
C371 C376 1.425 1_545 S
C371 C378 1.409 . S
C372 H364 0.930 . S
C372 C370 1.419 1_565 S
C372 C373 1.362 . S
C373 H365 0.930 . S
C373 C372 1.362 . S
C373 C376 1.409 . S
C374 H366 0.930 . S
C374 C375 1.355 1_565 S
C374 C376 1.415 . S
C375 C374 1.355 1_545 S
C375 C377 1.419 . S
C376 C371 1.425 1_565 S
C376 C373 1.409 . S
C376 C374 1.415 . S
C377 H367 0.930 . S
C377 C375 1.419 . S
C377 C378 1.362 . S
C378 H368 0.930 . S
C378 C371 1.409 . S
C378 C377 1.362 . S
H379 C385 0.930 . S
H380 C388 0.930 . S
H381 C389 0.930 . S
H382 C390 0.930 . S
H383 C393 0.930 . S
H384 C394 0.930 . S
C385 H379 0.930 . S
C385 C386 1.355 . S
C385 C387 1.415 . S
C386 C385 1.355 . S
C386 C388 1.419 . S
C387 C385 1.415 . S
C387 C392 1.425 . S
C387 C394 1.409 . S
C388 H380 0.930 . S
C388 C386 1.419 . S
C388 C389 1.362 . S
C389 H381 0.930 . S
C389 C388 1.362 . S
C389 C392 1.409 . S
C390 H382 0.930 . S
C390 C391 1.355 . S
C390 C392 1.415 1_554 S
C391 C390 1.355 . S
C391 C393 1.419 . S
C392 C387 1.425 . S
C392 C389 1.409 . S
C392 C390 1.415 1_556 S
C393 H383 0.930 . S
C393 C391 1.419 . S
C393 C394 1.362 1_554 S
C394 H384 0.930 . S
C394 C387 1.409 . S
C394 C393 1.362 1_556 S
H395 C401 0.930 . S
H396 C404 0.930 . S
H397 C405 0.930 . S
H398 C406 0.930 . S
H399 C409 0.930 . S
H400 C410 0.930 . S
C401 H395 0.930 . S
C401 C402 1.355 1_455 S
C401 C403 1.415 . S
C402 C401 1.355 1_655 S
C402 C404 1.419 . S
C403 C401 1.415 . S
C403 C408 1.425 1_455 S
C403 C410 1.409 . S
C404 H396 0.930 . S
C404 C402 1.419 . S
C404 C405 1.362 . S
C405 H397 0.930 . S
C405 C404 1.362 . S
C405 C408 1.409 . S
C406 H398 0.930 . S
C406 C407 1.355 1_655 S
C406 C408 1.415 . S
C407 C406 1.355 1_455 S
C407 C409 1.419 . S
C408 C403 1.425 1_655 S
C408 C405 1.409 . S
C408 C406 1.415 . S
C409 H399 0.930 . S
C409 C407 1.419 . S
C409 C410 1.362 . S
C410 H400 0.930 . S
C410 C403 1.409 . S
C410 C409 1.362 . S
C130 C20 1.243 . S
C135 C118 1.313 . S
C146 C41 1.338 . S
C151 C100 1.333 . S
C162 C64 1.359 . S
C167 C112 1.365 . S
C178 C19 1.296 . S
C183 C121 1.333 . S
C199 C103 1.324 . S
C194 C44 1.334 . S
C215 C109 1.337 . S
C210 C67 1.337 . S
C226 C43 1.306 . S
C231 C82 1.334 . S
C242 C66 1.233 . S
C247 C91 1.307 . S
C258 C21 1.350 . S
C263 C73 1.353 . S
C279 C85 1.342 . S
C274 C42 1.327 . S
C295 C94 1.364 . S
C290 C65 1.340 . S
C306 C18 1.338 . S
C311 C76 1.341 . S
C327 C92 1.468 . S
C322 C17 1.466 . S
C338 C39 1.467 . S
C343 C74 1.464 . S
C354 C62 1.477 . S
C359 C83 1.480 . S
C375 C110 1.453 1_545 S
C370 C40 1.448 . S
C391 C119 1.467 . S
C386 C63 1.471 . S
C402 C16 1.465 1_655 S
C407 C101 1.463 . S
