# Generated by pormake.
# Topology pyr, (3,6)-cn, num edge types: 1
# Building blocks:
#     Node 0, Type 0, BuildingBlock: BETDIP_clean_linker_0, # of connection points: 3
#     Node 1, Type 0, BuildingBlock: BETDIP_clean_linker_0, # of connection points: 3
#     Node 2, Type 0, BuildingBlock: BETDIP_clean_linker_0, # of connection points: 3
#     Node 3, Type 0, BuildingBlock: BETDIP_clean_linker_0, # of connection points: 3
#     Node 4, Type 0, BuildingBlock: BETDIP_clean_linker_0, # of connection points: 3
#     Node 5, Type 0, BuildingBlock: BETDIP_clean_linker_0, # of connection points: 3
#     Node 6, Type 0, BuildingBlock: BETDIP_clean_linker_0, # of connection points: 3
#     Node 7, Type 0, BuildingBlock: BETDIP_clean_linker_0, # of connection points: 3
#     Node 8, Type 1, BuildingBlock: BETDIP_clean_sbu_0, # of connection points: 6
#     Node 9, Type 1, BuildingBlock: BETDIP_clean_sbu_0, # of connection points: 6
#     Node 10, Type 1, BuildingBlock: BETDIP_clean_sbu_0, # of connection points: 6
#     Node 11, Type 1, BuildingBlock: BETDIP_clean_sbu_0, # of connection points: 6
#     Edge 12, Type (0, 1), BuildingBlock: CIFDUS_clean_linker_0, # of connection points: 2
#     Edge 13, Type (0, 1), BuildingBlock: CIFDUS_clean_linker_0, # of connection points: 2
#     Edge 14, Type (0, 1), BuildingBlock: CIFDUS_clean_linker_0, # of connection points: 2
#     Edge 15, Type (0, 1), BuildingBlock: CIFDUS_clean_linker_0, # of connection points: 2
#     Edge 16, Type (0, 1), BuildingBlock: CIFDUS_clean_linker_0, # of connection points: 2
#     Edge 17, Type (0, 1), BuildingBlock: CIFDUS_clean_linker_0, # of connection points: 2
#     Edge 18, Type (0, 1), BuildingBlock: CIFDUS_clean_linker_0, # of connection points: 2
#     Edge 19, Type (0, 1), BuildingBlock: CIFDUS_clean_linker_0, # of connection points: 2
#     Edge 20, Type (0, 1), BuildingBlock: CIFDUS_clean_linker_0, # of connection points: 2
#     Edge 21, Type (0, 1), BuildingBlock: CIFDUS_clean_linker_0, # of connection points: 2
#     Edge 22, Type (0, 1), BuildingBlock: CIFDUS_clean_linker_0, # of connection points: 2
#     Edge 23, Type (0, 1), BuildingBlock: CIFDUS_clean_linker_0, # of connection points: 2
#     Edge 24, Type (0, 1), BuildingBlock: CIFDUS_clean_linker_0, # of connection points: 2
#     Edge 25, Type (0, 1), BuildingBlock: CIFDUS_clean_linker_0, # of connection points: 2
#     Edge 26, Type (0, 1), BuildingBlock: CIFDUS_clean_linker_0, # of connection points: 2
#     Edge 27, Type (0, 1), BuildingBlock: CIFDUS_clean_linker_0, # of connection points: 2
#     Edge 28, Type (0, 1), BuildingBlock: CIFDUS_clean_linker_0, # of connection points: 2
#     Edge 29, Type (0, 1), BuildingBlock: CIFDUS_clean_linker_0, # of connection points: 2
#     Edge 30, Type (0, 1), BuildingBlock: CIFDUS_clean_linker_0, # of connection points: 2
#     Edge 31, Type (0, 1), BuildingBlock: CIFDUS_clean_linker_0, # of connection points: 2
#     Edge 32, Type (0, 1), BuildingBlock: CIFDUS_clean_linker_0, # of connection points: 2
#     Edge 33, Type (0, 1), BuildingBlock: CIFDUS_clean_linker_0, # of connection points: 2
#     Edge 34, Type (0, 1), BuildingBlock: CIFDUS_clean_linker_0, # of connection points: 2
#     Edge 35, Type (0, 1), BuildingBlock: CIFDUS_clean_linker_0, # of connection points: 2
# Relax obj value: 0.190
# Max RMSD: 0.242
# Mean RMSD: 0.150
data_MOF--net-pyr--node1-BETDIP_clean_sbu_0--node2-BETDIP_clean_linker_0--edge1-CIFDUS_clean_linker_0
_symmetry_space_group_name_H-M    P1
_symmetry_Int_Tables_number       1
_symmetry_cell_setting            triclinic
loop_
_symmetry_equiv_pos_as_xyz
'x, y, z'
_cell_length_a     31.9446
_cell_length_b     33.579912
_cell_length_c     33.336966
_cell_angle_alpha  89.528532
_cell_angle_beta   91.06513
_cell_angle_gamma 110.61561
loop_
_atom_site_label
_atom_site_type_symbol
_atom_site_fract_x
_atom_site_fract_y
_atom_site_fract_z
_atom_type_partial_charge
H0 H 0.365 0.3682 0.2832 0.0
H1 H 0.44257 0.3433 0.18943 0.0
H2 H 0.39113 0.25098 0.28326 0.0
H3 H 0.40829 0.38979 0.15177 0.0
C4 C 0.39071 0.39894 0.17555 0.0
C5 C 0.38074 0.34762 0.27022 0.0
C6 C 0.37476 0.30783 0.28751 0.0
C7 C 0.40464 0.3602 0.23482 0.0
C8 C 0.42469 0.33371 0.21722 0.0
C9 C 0.42062 0.29443 0.23502 0.0
C10 C 0.39558 0.28181 0.27014 0.0
N11 N 0.40493 0.39819 0.216 0.0
H12 H 0.14062 0.80217 0.81698 0.0
H13 H 0.13042 0.74878 0.6991 0.0
H14 H 0.20632 0.71384 0.79204 0.0
H15 H 0.06702 0.77138 0.6951 0.0
C16 C 0.08299 0.80196 0.70964 0.0
C17 C 0.14662 0.77948 0.79702 0.0
C18 C 0.17412 0.75705 0.80966 0.0
C19 C 0.13012 0.77623 0.7576 0.0
C20 C 0.14089 0.74968 0.73026 0.0
C21 C 0.16815 0.72661 0.74259 0.0
C22 C 0.18361 0.72981 0.78263 0.0
N23 N 0.10866 0.80492 0.74537 0.0
H24 H 0.72316 0.45384 0.88062 0.0
H25 H 0.59978 0.34762 0.86872 0.0
H26 H 0.69278 0.35078 0.96512 0.0
H27 H 0.59211 0.37759 0.80917 0.0
C28 C 0.61448 0.4105 0.80843 0.0
C29 C 0.70112 0.42307 0.89104 0.0
C30 C 0.71336 0.40434 0.925 0.0
C31 C 0.66043 0.40322 0.87046 0.0
C32 C 0.63116 0.36332 0.88434 0.0
C33 C 0.64251 0.34369 0.9187 0.0
C34 C 0.68368 0.3649 0.9386 0.0
N35 N 0.65045 0.42556 0.83696 0.0
H36 H 0.79951 0.65193 0.37472 0.0
H37 H 0.91356 0.76598 0.35885 0.0
H38 H 0.82515 0.75677 0.45694 0.0
H39 H 0.89965 0.74293 0.29181 0.0
C40 C 0.89293 0.70902 0.29494 0.0
C41 C 0.81952 0.6837 0.38464 0.0
C42 C 0.80698 0.7013 0.41867 0.0
C43 C 0.85718 0.70686 0.36237 0.0
C44 C 0.88354 0.74826 0.3749 0.0
C45 C 0.87183 0.76663 0.40884 0.0
C46 C 0.83333 0.74309 0.4302 0.0
N47 N 0.86843 0.68691 0.32858 0.0
H48 H 0.60466 0.79095 0.97664 0.0
H49 H 0.67827 0.77453 0.87508 0.0
H50 H 0.6423 0.88573 0.88354 0.0
H51 H 0.64387 0.70229 0.89334 0.0
C52 C 0.65337 0.7083 0.9248 0.0
C53 C 0.61963 0.80173 0.94777 0.0
C54 C 0.62003 0.84071 0.93188 0.0
C55 C 0.63924 0.7769 0.92695 0.0
C56 C 0.66051 0.79196 0.89032 0.0
C57 C 0.66205 0.83138 0.87479 0.0
C58 C 0.6408 0.85502 0.89524 0.0
N59 N 0.64141 0.7394 0.94548 0.0
H60 H 0.91532 0.30403 0.39269 0.0
H61 H 0.90002 0.38985 0.48174 0.0
H62 H 0.80839 0.35317 0.38131 0.0
H63 H 0.00833 0.35768 0.42376 0.0
C64 C 0.98524 0.33487 0.44358 0.0
C65 C 0.89856 0.32489 0.40313 0.0
C66 C 0.8599 0.32553 0.38293 0.0
C67 C 0.91352 0.34853 0.43858 0.0
C68 C 0.88947 0.37282 0.45372 0.0
C69 C 0.8521 0.37535 0.43254 0.0
C70 C 0.83798 0.35206 0.39707 0.0
N71 N 0.95033 0.34538 0.46112 0.0
H72 H 0.30851 0.65351 0.24531 0.0
H73 H 0.41622 0.76877 0.27791 0.0
H74 H 0.32571 0.76858 0.18018 0.0
H75 H 0.41547 0.73171 0.33898 0.0
C76 C 0.40188 0.69807 0.33175 0.0
C77 C 0.32624 0.68723 0.24076 0.0
C78 C 0.31324 0.70838 0.20907 0.0
C79 C 0.36246 0.70867 0.26646 0.0
C80 C 0.38708 0.75238 0.2595 0.0
C81 C 0.37491 0.77424 0.22723 0.0
C82 C 0.33708 0.75188 0.20344 0.0
N83 N 0.37386 0.68383 0.297 0.0
H84 H 0.0688 0.31696 0.75948 0.0
H85 H 0.18881 0.42713 0.76106 0.0
H86 H 0.16679 0.33169 0.66885 0.0
H87 H 0.17029 0.41763 0.83347 0.0
C88 C 0.13548 0.41458 0.82936 0.0
C89 C 0.1009 0.33489 0.74662 0.0
C90 C 0.11573 0.31887 0.71302 0.0
C91 C 0.12729 0.37346 0.76443 0.0
C92 C 0.1688 0.39715 0.74749 0.0
C93 C 0.18367 0.38288 0.71246 0.0
C94 C 0.1569 0.34314 0.69605 0.0
N95 N 0.10965 0.38884 0.79754 0.0
Tb96 Tb 0.94491 1.02664 0.56548 0.0
Tb97 Tb 0.0439 0.06034 0.55214 0.0
C98 C 0.86403 0.98036 0.57251 0.0
C99 C 0.83914 0.95314 0.60496 0.0
C100 C 0.79392 0.92825 0.59942 0.0
C101 C 0.76957 0.90427 0.63126 0.0
C102 C 0.79021 0.90519 0.66904 0.0
C103 C 0.83599 0.92911 0.67394 0.0
C104 C 0.86027 0.95286 0.64214 0.0
C105 C 0.99159 0.08876 0.61465 0.0
C106 C 0.00697 0.9812 0.60657 0.0
C107 C 0.12571 0.10536 0.54941 0.0
C108 C 0.15773 0.13322 0.52139 0.0
C109 C 0.20152 0.15525 0.53485 0.0
C110 C 0.23353 0.18004 0.50825 0.0
C111 C 0.22221 0.18313 0.46768 0.0
C112 C 0.1778 0.16178 0.45455 0.0
C113 C 0.14575 0.13698 0.48126 0.0
C114 C 0.99734 0.99835 0.50275 0.0
C115 C 0.98098 0.10545 0.51088 0.0
O116 O 0.89377 0.96778 0.55561 0.0
O117 O 0.87969 1.02105 0.58047 0.0
O118 O 0.00314 0.05893 0.60207 0.0
O119 O 0.95084 0.08175 0.60299 0.0
O120 O 0.96681 0.97757 0.59269 0.0
O121 O 0.04184 1.01632 0.60091 0.0
O122 O 0.09497 0.11914 0.56249 0.0
O123 O 0.10952 0.06506 0.53993 0.0
O124 O 0.98576 1.02806 0.51557 0.0
O125 O 0.03824 1.00555 0.51415 0.0
O126 O 0.02169 0.10886 0.52351 0.0
O127 O 0.94601 0.07059 0.51731 0.0
H128 H 0.77727 0.9281 0.57078 0.0
H129 H 0.73427 0.88633 0.62679 0.0
H130 H 0.85283 0.92995 0.70261 0.0
H131 H 0.89532 0.97174 0.64677 0.0
H132 H 0.21113 0.15278 0.56586 0.0
H133 H 0.26723 0.19661 0.51941 0.0
H134 H 0.16815 0.16321 0.42341 0.0
H135 H 0.11195 0.1201 0.47049 0.0
Tb136 Tb 0.55089 0.07402 0.09623 0.0
Tb137 Tb 0.45553 0.04493 1.05546 0.0
C138 C 0.63293 0.10477 0.11309 0.0
C139 C 0.65996 0.12478 0.14848 0.0
C140 C 0.6985 0.1608 0.14344 0.0
C141 C 0.72253 0.18266 0.1768 0.0
C142 C 0.70845 0.1687 0.21584 0.0
C143 C 0.67059 0.13165 0.22068 0.0
C144 C 0.64637 0.11005 0.18732 0.0
C145 C 0.48876 1.00699 0.12881 0.0
C146 C 0.48031 0.1101 0.12856 0.0
C147 C 0.37385 1.00535 1.04298 0.0
C148 C 0.34342 0.96232 1.03348 0.0
C149 C 0.35949 0.92913 1.02715 0.0
C150 C 0.33078 0.89007 1.0123 0.0
C151 C 0.28586 0.88411 1.00257 0.0
C152 C 0.26952 0.91685 1.01143 0.0
C153 C 0.29809 0.95554 1.02687 0.0
C154 C 0.50951 0.11913 1.02523 0.0
C155 C 0.52741 1.0119 1.02025 0.0
O156 O 0.61058 0.12662 0.09614 0.0
O157 O 0.60912 0.06415 0.11591 0.0
O158 O 0.49369 1.017 0.09219 0.0
O159 O 0.52107 1.03481 0.14893 0.0
O160 O 0.5235 0.11653 0.12591 0.0
O161 O 0.44895 0.08046 0.10786 0.0
O162 O 0.39244 1.01128 0.07895 0.0
O163 O 0.40197 1.02435 1.01465 0.0
O164 O 0.5169 0.09558 1.05172 0.0
O165 O 0.46797 0.10063 1.01458 0.0
O166 O 0.48421 1.00555 1.0226 0.0
O167 O 0.55856 0.0402 1.04255 0.0
H168 H 0.70927 0.17275 0.11365 0.0
H169 H 0.75111 0.21139 0.17196 0.0
H170 H 0.65923 0.11967 0.25031 0.0
H171 H 0.61656 0.08238 0.19194 0.0
H172 H 0.39456 0.93407 1.03175 0.0
H173 H 0.34435 0.86537 1.0065 0.0
H174 H 0.23546 0.91389 1.00384 0.0
H175 H 0.28527 0.98101 1.03153 0.0
Tb176 Tb 0.49825 0.58246 0.59587 0.0
Tb177 Tb 0.49914 0.5057 0.54414 0.0
C178 C 0.4738 0.63727 0.62863 0.0
C179 C 0.42927 0.63828 0.63857 0.0
C180 C 0.39827 0.63952 0.60843 0.0
C181 C 0.35592 0.63936 0.6186 0.0
C182 C 0.34366 0.63754 0.659 0.0
C183 C 0.37457 0.63602 0.689 0.0
C184 C 0.41696 0.63661 0.67889 0.0
C185 C 0.54013 0.534 0.62836 0.0
C186 C 0.41209 0.49474 0.59187 0.0
C187 C 0.52034 0.44383 0.52316 0.0
C188 C 0.56336 0.4369 0.52086 0.0
C189 C 0.59295 0.44397 0.55406 0.0
C190 C 0.63434 0.43882 0.55046 0.0
C191 C 0.64708 0.42715 0.51353 0.0
C192 C 0.61736 0.42001 0.4805 0.0
C193 C 0.57588 0.42468 0.48419 0.0
C194 C 0.46638 0.5566 0.50177 0.0
C195 C 0.5805 0.5947 0.54236 0.0
O196 O 0.48343 0.63829 0.59051 0.0
O197 O 0.48646 0.60973 0.64883 0.0
O198 O 0.50529 0.52243 0.60644 0.0
O199 O 0.55204 0.57483 0.63386 0.0
O200 O 0.43014 0.53541 0.60266 0.0
O201 O 0.43304 0.47579 0.56899 0.0
O202 O 0.506 0.4475 0.55898 0.0
O203 O 0.51508 0.47178 0.4979 0.0
O204 O 0.48081 0.55971 0.53739 0.0
O205 O 0.4675 0.52065 0.48881 0.0
O206 O 0.56758 0.55253 0.5408 0.0
O207 O 0.55587 0.61429 0.55924 0.0
H208 H 0.40658 0.64056 0.57699 0.0
H209 H 0.33273 0.64055 0.59491 0.0
H210 H 0.36636 0.63544 0.72044 0.0
H211 H 0.4402 0.63572 0.70269 0.0
H212 H 0.58438 0.45384 0.58267 0.0
H213 H 0.65668 0.44461 0.57634 0.0
H214 H 0.62601 0.41034 0.45182 0.0
H215 H 0.55366 0.41909 0.45822 0.0
Tb216 Tb 0.00687 0.57142 1.0503 0.0
Tb217 Tb 0.00759 0.50209 0.10642 0.0
C218 C 0.98582 0.6214 1.00425 0.0
C219 C 0.94558 0.63143 0.99523 0.0
C220 C 0.90701 0.61449 1.01835 0.0
C221 C 0.86764 0.62117 1.00687 0.0
C222 C 0.86627 0.64431 0.97183 0.0
C223 C 0.90526 0.66171 0.94922 0.0
C224 C 0.9446 0.65535 0.96089 0.0
C225 C 0.08402 0.5858 0.08969 0.0
C226 C 0.96605 0.56653 0.13778 0.0
C227 C 0.03041 0.45123 0.14958 0.0
C228 C 0.0712 0.4407 0.1526 0.0
C229 C 0.10992 0.4653 0.13234 0.0
C230 C 0.14961 0.45706 0.13753 0.0
C231 C 0.15128 0.42434 0.16336 0.0
C232 C 0.1121 0.3992 0.1829 0.0
C233 C 0.07234 0.40731 0.17749 0.0
C234 C 0.92943 0.48888 0.07028 0.0
C235 C 0.049 0.50783 1.01934 0.0
O236 O 0.98304 0.58305 0.99426 0.0
O237 O 0.00462 0.63243 1.0396 0.0
O238 O 0.04523 0.56801 0.10257 0.0
O239 O 0.08061 0.59975 1.05386 0.0
O240 O 0.96478 0.57825 0.09976 0.0
O241 O 0.98572 0.53934 0.14856 0.0
O242 O 0.03531 0.48997 0.16038 0.0
O243 O 0.00687 0.43998 0.11632 0.0
O244 O 0.96744 0.50541 1.05494 0.0
O245 O 0.93449 0.4755 0.10594 0.0
O246 O 0.05156 0.49776 1.05757 0.0
O247 O 0.02744 0.53317 1.00823 0.0
H248 H 0.90708 0.59538 1.04466 0.0
H249 H 0.83796 0.60721 1.02465 0.0
H250 H 0.90525 0.68011 0.92237 0.0
H251 H 0.97403 0.66835 0.9426 0.0
H252 H 0.1098 0.49158 0.11336 0.0
H253 H 0.17935 0.47727 0.12247 0.0
H254 H 0.11232 0.37352 0.20268 0.0
H255 H 0.04273 0.38807 0.19335 0.0
H256 H 0.38609 0.26408 0.3535 0.0
H257 H 0.29276 0.31455 0.29678 0.0
H258 H 0.23826 0.28242 0.34868 0.0
H259 H 0.21536 0.23649 0.408 0.0
H260 H 0.30739 0.18318 0.4627 0.0
H261 H 0.36398 0.21982 0.41381 0.0
C262 C 0.35383 0.26805 0.35252 0.0
C263 C 0.34357 0.29163 0.32127 0.0
C264 C 0.32226 0.24878 0.382 0.0
C265 C 0.30185 0.29706 0.32079 0.0
C266 C 0.27044 0.27835 0.35025 0.0
C267 C 0.24776 0.23281 0.40912 0.0
C268 C 0.25705 0.20706 0.43889 0.0
C269 C 0.28001 0.25357 0.38062 0.0
C270 C 0.29949 0.20318 0.44038 0.0
C271 C 0.33181 0.22392 0.41228 0.0
H272 H 0.14289 0.76631 0.88339 0.0
H273 H 0.2633 0.7753 0.82133 0.0
H274 H 0.30845 0.80882 0.87956 0.0
H275 H 0.31442 0.84701 0.94212 0.0
H276 H 0.1951 0.83978 1.0052 0.0
H277 H 0.1489 0.79425 0.95243 0.0
C278 C 0.17895 0.77489 0.88305 0.0
C279 C 0.19967 0.76865 0.848 0.0
C280 C 0.20498 0.79514 0.91643 0.0
C281 C 0.24639 0.7794 0.84799 0.0
C282 C 0.27235 0.799 0.88118 0.0
C283 C 0.27841 0.83432 0.94536 0.0
C284 C 0.25835 0.84768 0.97726 0.0
C285 C 0.25211 0.80859 0.91483 0.0
C286 C 0.21146 0.83097 0.98041 0.0
C287 C 0.18499 0.80488 0.95026 0.0
H288 H 0.55363 0.38974 0.7468 0.0
H289 H 0.66127 0.49596 0.79699 0.0
H290 H 0.64957 0.5427 0.7448 0.0
H291 H 0.60697 0.55433 0.68571 0.0
H292 H 0.4984 0.44818 0.63664 0.0
H293 H 0.51268 0.40085 0.68663 0.0
C294 C 0.57462 0.42311 0.74622 0.0
C295 C 0.60818 0.43914 0.776 0.0
C296 C 0.56771 0.44998 0.71594 0.0
C297 C 0.63513 0.48252 0.77466 0.0
C298 C 0.62845 0.5094 0.7447 0.0
C299 C 0.58675 0.52075 0.68571 0.0
C300 C 0.55196 0.50491 0.65691 0.0
C301 C 0.59465 0.49361 0.71527 0.0
C302 C 0.52593 0.46129 0.65772 0.0
C303 C 0.5338 0.43415 0.68668 0.0
H304 H 0.89504 0.62774 0.29365 0.0
H305 H 0.91804 0.73966 0.22052 0.0
H306 H 0.93929 0.70474 0.16437 0.0
H307 H 0.9541 0.64323 0.13654 0.0
H308 H 0.93609 0.53312 0.21118 0.0
H309 H 0.90995 0.56611 0.26576 0.0
C310 C 0.90443 0.64435 0.26535 0.0
C311 C 0.90473 0.68624 0.26123 0.0
C312 C 0.91757 0.62431 0.23331 0.0
C313 C 0.9175 0.70742 0.22446 0.0
C314 C 0.92964 0.68745 0.19229 0.0
C315 C 0.94396 0.62626 0.16459 0.0
C316 C 0.94689 0.58561 0.16958 0.0
C317 C 0.9301 0.64597 0.19639 0.0
C318 C 0.93424 0.56442 0.20643 0.0
C319 C 0.91931 0.58331 0.23775 0.0
H320 H 0.38029 0.20971 0.22309 0.0
H321 H 0.50409 0.31374 0.20349 0.0
H322 H 0.53522 0.26513 0.17146 0.0
H323 H 0.52599 0.19312 0.14712 0.0
H324 H 0.40084 0.09032 0.16574 0.0
H325 H 0.37193 0.13818 0.20112 0.0
C326 C 0.41434 0.22169 0.21236 0.0
C327 C 0.43993 0.2652 0.21584 0.0
C328 C 0.43185 0.1937 0.19404 0.0
C329 C 0.48361 0.28039 0.20088 0.0
C330 C 0.50149 0.25259 0.18281 0.0
C331 C 0.4927 0.18116 0.15955 0.0
C332 C 0.4656 0.13828 0.15395 0.0
C333 C 0.47581 0.20917 0.17904 0.0
C334 C 0.42227 0.12325 0.16959 0.0
C335 C 0.40566 0.15059 0.18973 0.0
H336 H 0.01173 0.80383 0.66574 0.0
H337 H 0.1354 0.8851 0.72027 0.0
H338 H 0.12244 0.94804 0.69416 0.0
H339 H 0.07679 0.97996 0.65421 0.0
H340 H 0.95088 0.89875 0.60292 0.0
H341 H 0.9635 0.83609 0.62976 0.0
C342 C 0.03567 0.83539 0.67189 0.0
C343 C 0.07442 0.83993 0.69467 0.0
C344 C 0.02751 0.87149 0.65754 0.0
C345 C 0.10516 0.88087 0.70289 0.0
C346 C 0.09783 0.91688 0.68792 0.0
C347 C 0.05199 0.94858 0.64919 0.0
C348 C 0.01309 0.94409 0.6265 0.0
C349 C 0.05921 0.91258 0.66505 0.0
C350 C 0.98107 0.90319 0.62047 0.0
C351 C 0.98834 0.86724 0.6356 0.0
H352 H 0.73026 0.4112 1.00583 0.0
H353 H 0.79547 0.44611 0.89202 0.0
H354 H 0.86766 0.47834 0.92655 0.0
H355 H 0.91333 0.49298 0.98941 0.0
H356 H 0.84743 0.45525 0.10254 0.0
H357 H 0.77492 0.42771 0.06807 0.0
C358 C 0.76025 0.42558 0.98847 0.0
C359 C 0.75721 0.42579 0.94626 0.0
C360 C 0.8018 0.44354 1.0085 0.0
C361 C 0.79653 0.44563 0.9245 0.0
C362 C 0.83798 0.4639 0.94425 0.0
C363 C 0.88301 0.47903 1.00643 0.0
C364 C 0.88581 0.47584 1.04848 0.0
C365 C 0.84118 0.4626 0.98627 0.0
C366 C 0.84624 0.45777 0.07015 0.0
C367 C 0.80471 0.44197 1.05045 0.0
H368 H 0.74606 0.72873 0.4559 0.0
H369 H 0.77773 0.61572 0.43572 0.0
H370 H 0.71153 0.57324 0.47231 0.0
H371 H 0.64366 0.56756 0.50928 0.0
H372 H 0.61352 0.68103 0.53149 0.0
H373 H 0.68048 0.72369 0.49589 0.0
C374 C 0.73896 0.69493 0.45989 0.0
C375 C 0.76701 0.67567 0.44247 0.0
C376 C 0.701 0.67056 0.48161 0.0
C377 C 0.7565 0.63155 0.44779 0.0
C378 C 0.71871 0.60714 0.46909 0.0
C379 C 0.65179 0.60166 0.5066 0.0
C380 C 0.62325 0.62085 0.52315 0.0
C381 C 0.69052 0.62622 0.48594 0.0
C382 C 0.63468 0.66519 0.51929 0.0
C383 C 0.67301 0.68972 0.49873 0.0
H384 H 0.32798 0.40188 0.22852 0.0
H385 H 0.35686 0.40877 0.10223 0.0
H386 H 0.28502 0.41718 0.08678 0.0
H387 H 0.21384 0.42212 0.10961 0.0
H388 H 0.18539 0.41301 0.2361 0.0
H389 H 0.25713 0.40516 0.25102 0.0
C390 C 0.31881 0.40541 0.19758 0.0
C391 C 0.34786 0.40512 0.16649 0.0
C392 C 0.27737 0.40942 0.189 0.0
C393 C 0.33506 0.40918 0.12661 0.0
C394 C 0.29403 0.41388 0.11781 0.0
C395 C 0.2235 0.41855 0.14041 0.0
C396 C 0.19433 0.41808 0.1717 0.0
C397 C 0.26488 0.41401 0.14881 0.0
C398 C 0.20699 0.41292 0.21145 0.0
C399 C 0.24813 0.40875 0.22004 0.0
H400 H 0.6639 0.27901 0.95515 0.0
H401 H 0.55029 0.3134 0.91968 0.0
H402 H 0.49998 0.24744 0.9488 0.0
H403 H 0.48777 0.1805 0.98615 0.0
H404 H 0.60112 0.14768 1.02408 0.0
H405 H 0.65189 0.21315 0.99371 0.0
C406 C 0.62821 0.27264 0.95413 0.0
C407 C 0.61139 0.30189 0.935 0.0
C408 C 0.59927 0.23501 0.97208 0.0
C409 C 0.56467 0.29172 0.93336 0.0
C410 C 0.5357 0.25402 0.95049 0.0
C411 C 0.52365 0.18784 0.98796 0.0
C412 C 0.54071 0.15961 1.00821 0.0
C413 C 0.55259 0.22556 0.97016 0.0
C414 C 0.58719 0.16942 1.00995 0.0
C415 C 0.61618 0.20666 0.99205 0.0
H416 H 0.84887 0.83568 0.42666 0.0
H417 H 0.96122 0.79292 0.42477 0.0
H418 H 0.00986 0.86084 0.45289 0.0
H419 H 0.02009 0.93147 0.48024 0.0
H420 H 0.90967 0.977 0.4781 0.0
H421 H 0.86067 0.90917 0.44952 0.0
C422 C 0.88406 0.84142 0.4323 0.0
C423 C 0.9014 0.80923 0.42372 0.0
C424 C 0.91209 0.88097 0.44797 0.0
C425 C 0.94713 0.81722 0.43083 0.0
C426 C 0.97492 0.856 0.44708 0.0
C427 C 0.98535 0.92668 0.4733 0.0
C428 C 0.96828 0.95891 0.4822 0.0
C429 C 0.95773 0.88799 0.45603 0.0
C430 C 0.92338 0.95236 0.47245 0.0
C431 C 0.8954 0.91361 0.45593 0.0
H432 H 0.17945 0.65033 0.75012 0.0
H433 H 0.20335 0.7571 0.66975 0.0
H434 H 0.25537 0.7341 0.63191 0.0
H435 H 0.30486 0.69228 0.63024 0.0
H436 H 0.28511 0.58883 0.71388 0.0
H437 H 0.2212 0.60209 0.74214 0.0
C438 C 0.19532 0.66797 0.72375 0.0
C439 C 0.18805 0.7057 0.71318 0.0
C440 C 0.22686 0.65577 0.70335 0.0
C441 C 0.20815 0.72787 0.67853 0.0
C442 C 0.23847 0.71506 0.65718 0.0
C443 C 0.28577 0.67191 0.65389 0.0
C444 C 0.30008 0.64013 0.67047 0.0
C445 C 0.24974 0.68036 0.67058 0.0
C446 C 0.2752 0.61405 0.70123 0.0
C447 C 0.23863 0.62156 0.71731 0.0
H448 H 0.6618 0.79442 0.8022 0.0
H449 H 0.72453 0.91035 0.86903 0.0
H450 H 0.77022 0.94282 0.81154 0.0
H451 H 0.79139 0.93897 0.74221 0.0
H452 H 0.72878 0.82422 0.67387 0.0
H453 H 0.68379 0.79049 0.73193 0.0
C454 C 0.68564 0.8267 0.80404 0.0
C455 C 0.6896 0.85013 0.83955 0.0
C456 C 0.71167 0.84534 0.7707 0.0
C457 C 0.72043 0.89198 0.84173 0.0
C458 C 0.74671 0.91048 0.80899 0.0
C459 C 0.76828 0.90638 0.74018 0.0
C460 C 0.76359 0.88395 0.70405 0.0
C461 C 0.74247 0.88754 0.77334 0.0
C462 C 0.7328 0.84211 0.70146 0.0
C463 C 0.70722 0.82283 0.73461 0.0
H464 H 0.77278 0.27755 0.37289 0.0
H465 H 0.90155 0.30606 0.31847 0.0
H466 H 0.86633 0.25805 0.2627 0.0
H467 H 0.79824 0.20996 0.22857 0.0
H468 H 0.66962 0.18559 0.28253 0.0
H469 H 0.70567 0.23 0.33948 0.0
C470 C 0.79316 0.27369 0.34859 0.0
C471 C 0.83958 0.29584 0.34942 0.0
C472 C 0.77273 0.24666 0.31669 0.0
C473 C 0.8657 0.2894 0.31842 0.0
C474 C 0.84556 0.26211 0.28652 0.0
C475 C 0.7781 0.21452 0.25271 0.0
C476 C 0.73126 0.19426 0.25124 0.0
C477 C 0.79899 0.2409 0.28517 0.0
C478 C 0.70575 0.20006 0.28311 0.0
C479 C 0.72628 0.22579 0.31558 0.0
H480 H 0.44191 0.71233 0.40636 0.0
H481 H 0.37882 0.61198 0.32133 0.0
H482 H 0.39136 0.56005 0.36695 0.0
H483 H 0.42177 0.54266 0.43039 0.0
H484 H 0.48578 0.64203 0.51561 0.0
H485 H 0.47081 0.69427 0.47136 0.0
C486 C 0.43085 0.67907 0.3979 0.0
C487 C 0.40947 0.66635 0.36024 0.0
C488 C 0.438 0.64895 0.42464 0.0
C489 C 0.39528 0.62299 0.34992 0.0
C490 C 0.40245 0.59309 0.37611 0.0
C491 C 0.43202 0.5757 0.43952 0.0
C492 C 0.45409 0.58816 0.47686 0.0
C493 C 0.42389 0.60565 0.41347 0.0
C494 C 0.46753 0.6312 0.48784 0.0
C495 C 0.45947 0.66124 0.46215 0.0
H496 H 0.1623 0.43352 0.907 0.0
H497 H 0.06009 0.43513 0.82143 0.0
H498 H 0.02548 0.46544 0.87202 0.0
H499 H 0.02401 0.49146 0.94084 0.0
H500 H 0.12234 0.48424 1.0282 0.0
H501 H 0.15853 0.45617 0.97703 0.0
C502 C 0.13242 0.44052 0.89953 0.0
C503 C 0.11388 0.43217 0.86046 0.0
C504 C 0.11198 0.45696 0.92919 0.0
C505 C 0.07494 0.44104 0.85127 0.0
C506 C 0.05519 0.45849 0.8802 0.0
C507 C 0.05347 0.48388 0.94864 0.0
C508 C 0.07069 0.49037 0.98827 0.0
C509 C 0.07339 0.46662 0.91927 0.0
C510 C 0.10841 0.47964 0.99799 0.0
C511 C 0.12917 0.46362 0.96868 0.0
H512 H 0.56083 0.87729 0.90672 0.0
H513 H 0.64276 0.86831 1.00817 0.0
H514 H 0.62294 0.9225 1.04361 0.0
H515 H 0.58435 0.9739 1.04474 0.0
H516 H 0.49791 0.97976 0.94583 0.0
H517 H 0.51783 0.9256 0.90983 0.0
C518 C 0.57387 0.88703 0.93675 0.0
C519 C 0.60311 0.86904 0.95497 0.0
C520 C 0.56215 0.91798 0.95693 0.0
C521 C 0.61979 0.88151 0.99388 0.0
C522 C 0.60884 0.91272 1.01393 0.0
C523 C 0.57035 0.96362 1.01506 0.0
C524 C 0.54071 0.9813 0.9973 0.0
C525 C 0.58059 0.93155 0.99549 0.0
C526 C 0.52139 0.96686 0.95959 0.0
C527 C 0.53259 0.93586 0.93922 0.0
H528 H 0.92167 0.26007 0.46485 0.0
H529 H 0.0625 0.31872 0.44186 0.0
H530 H 0.0738 0.25185 0.45828 0.0
H531 H 0.04376 0.17763 0.48199 0.0
H532 H 0.90185 0.11836 0.50114 0.0
H533 H 0.8907 0.18428 0.48255 0.0
C534 C 0.95483 0.25818 0.4636 0.0
C535 C 0.99145 0.29428 0.45306 0.0
C536 C 0.96075 0.21945 0.47196 0.0
C537 C 0.03401 0.29126 0.45041 0.0
C538 C 0.04041 0.2531 0.45967 0.0
C539 C 0.01032 0.17897 0.48158 0.0
C540 C 0.97377 0.14312 0.49316 0.0
C541 C 0.00405 0.21706 0.4708 0.0
C542 C 0.93061 0.14534 0.49221 0.0
C543 C 0.92419 0.18318 0.4819 0.0
H544 H 0.23173 0.64845 0.22704 0.0
H545 H 0.30979 0.71637 0.12746 0.0
H546 H 0.24699 0.68328 0.08154 0.0
H547 H 0.16834 0.63734 0.06972 0.0
H548 H 0.09026 0.56983 0.16929 0.0
H549 H 0.1545 0.59945 0.21461 0.0
C550 C 0.23524 0.65558 0.19523 0.0
C551 C 0.27544 0.68538 0.181 0.0
C552 C 0.19882 0.63635 0.16877 0.0
C553 C 0.27905 0.69432 0.13956 0.0
C554 C 0.24317 0.67519 0.11313 0.0
C555 C 0.16557 0.62886 0.10127 0.0
C556 C 0.1245 0.60138 0.11603 0.0
C557 C 0.20263 0.6466 0.12742 0.0
C558 C 0.12148 0.5907 0.15703 0.0
C559 C 0.15821 0.60784 0.18308 0.0
H560 H 0.24274 0.35733 0.66955 0.0
H561 H 0.22001 0.47058 0.7079 0.0
H562 H 0.28752 0.51469 0.67415 0.0
H563 H 0.35338 0.52163 0.63327 0.0
H564 H 0.37251 0.40808 0.59103 0.0
H565 H 0.30524 0.36408 0.62532 0.0
C566 C 0.25183 0.3916 0.67017 0.0
C567 C 0.22577 0.41009 0.6919 0.0
C568 C 0.29009 0.41705 0.64943 0.0
C569 C 0.23946 0.4549 0.6926 0.0
C570 C 0.278 0.48038 0.67276 0.0
C571 C 0.34269 0.48725 0.63123 0.0
C572 C 0.36833 0.46841 0.60942 0.0
C573 C 0.30362 0.46184 0.65104 0.0
C574 C 0.35361 0.42372 0.60725 0.0
C575 C 0.31514 0.39839 0.62713 0.0
H576 H 0.70136 0.67085 0.88447 0.0
H577 H 0.6832 0.71213 1.0029 0.0
H578 H 0.74602 0.69323 1.02856 0.0
H579 H 0.80948 0.6696 1.0161 0.0
H580 H 0.82923 0.6314 0.89682 0.0
H581 H 0.76261 0.64453 0.87262 0.0
C582 C 0.71089 0.67516 0.91599 0.0
C583 C 0.68794 0.6929 0.94172 0.0
C584 C 0.7476 0.66519 0.93025 0.0
C585 C 0.70057 0.69866 0.98247 0.0
C586 C 0.73652 0.68794 0.99713 0.0
C587 C 0.79878 0.66369 0.98495 0.0
C588 C 0.82428 0.64985 0.9582 0.0
C589 C 0.76079 0.6719 0.97113 0.0
C590 C 0.81039 0.64262 0.91782 0.0
C591 C 0.77226 0.64995 0.90401 0.0
H592 H 0.39206 0.80933 0.15246 0.0
H593 H 0.41778 0.8426 0.27755 0.0
H594 H 0.45514 0.9175 0.25878 0.0
H595 H 0.47844 0.97443 0.20606 0.0
H596 H 0.44749 0.93865 0.08208 0.0
H597 H 0.41245 0.86448 0.10135 0.0
C598 C 0.40503 0.83281 0.17596 0.0
C599 C 0.40117 0.81986 0.21658 0.0
C600 C 0.42498 0.87583 0.16505 0.0
C601 C 0.42018 0.85115 0.24607 0.0
C602 C 0.44122 0.8942 0.23532 0.0
C603 C 0.46365 0.95036 0.1834 0.0
C604 C 0.46505 0.96242 0.14255 0.0
C605 C 0.44341 0.90708 0.19484 0.0
C606 C 0.44607 0.93067 0.11363 0.0
C607 C 0.42642 0.88801 0.12464 0.0
H608 H 0.13888 0.25011 0.69441 0.0
H609 H 0.02808 0.29518 0.69038 0.0
H610 H 0.98022 0.22819 0.66006 0.0
H611 H 0.96977 0.15703 0.63407 0.0
H612 H 0.07856 0.10938 0.64131 0.0
H613 H 0.12725 0.17686 0.67084 0.0
C614 C 0.10428 0.24519 0.68676 0.0
C615 C 0.08709 0.27768 0.69457 0.0
C616 C 0.07661 0.2061 0.66989 0.0
C617 C 0.04204 0.27067 0.68491 0.0
C618 C 0.01469 0.23238 0.66748 0.0
C619 C 0.0041 0.1613 0.64227 0.0
C620 C 0.02072 0.12842 0.63488 0.0
C621 C 0.03155 0.19987 0.65985 0.0
C622 C 0.06515 0.13441 0.64604 0.0
C623 C 0.09295 0.17298 0.66304 0.0
H624 H 0.81057 0.36433 0.50414 0.0
H625 H 0.83038 0.43729 0.39466 0.0
H626 H 0.77098 0.46372 0.41246 0.0
H627 H 0.70716 0.45837 0.45461 0.0
H628 H 0.68465 0.38303 0.56276 0.0
H629 H 0.75162 0.36569 0.55054 0.0
C630 C 0.80269 0.38704 0.48492 0.0
C631 C 0.82458 0.39892 0.44819 0.0
C632 C 0.76755 0.40106 0.4948 0.0
C633 C 0.81381 0.42784 0.42309 0.0
C634 C 0.77971 0.44267 0.43312 0.0
C635 C 0.71721 0.43845 0.47564 0.0
C636 C 0.69073 0.42145 0.50916 0.0
C637 C 0.75525 0.42819 0.46811 0.0
C638 C 0.70452 0.39643 0.53669 0.0
C639 C 0.74266 0.38635 0.52961 0.0
loop_
_geom_bond_atom_site_label_1
_geom_bond_atom_site_label_2
_geom_bond_distance
_geom_bond_site_symmetry_2
_ccdc_geom_bond_type
H0 C5 0.930 . S
H1 C8 0.930 . S
H2 C10 0.930 . S
H3 C4 1.016 . S
C4 H3 1.016 . S
C4 N11 1.286 . S
C5 H0 0.930 . S
C5 C6 1.397 . S
C5 C7 1.361 . S
C6 C5 1.397 . S
C6 C10 1.390 . S
C7 C5 1.361 . S
C7 C8 1.393 . S
C7 N11 1.413 . S
C8 H1 0.930 . S
C8 C7 1.393 . S
C8 C9 1.399 . S
C9 C8 1.399 . S
C9 C10 1.381 . S
C10 H2 0.930 . S
C10 C6 1.390 . S
C10 C9 1.381 . S
N11 C4 1.286 . S
N11 C7 1.413 . S
H12 C17 0.930 . S
H13 C20 0.930 . S
H14 C22 0.930 . S
H15 C16 1.016 . S
C16 H15 1.016 . S
C16 N23 1.286 . S
C17 H12 0.930 . S
C17 C18 1.397 . S
C17 C19 1.361 . S
C18 C17 1.397 . S
C18 C22 1.390 . S
C19 C17 1.361 . S
C19 C20 1.393 . S
C19 N23 1.413 . S
C20 H13 0.930 . S
C20 C19 1.393 . S
C20 C21 1.399 . S
C21 C20 1.399 . S
C21 C22 1.381 . S
C22 H14 0.930 . S
C22 C18 1.390 . S
C22 C21 1.381 . S
N23 C16 1.286 . S
N23 C19 1.413 . S
H24 C29 0.930 . S
H25 C32 0.930 . S
H26 C34 0.930 . S
H27 C28 1.016 . S
C28 H27 1.016 . S
C28 N35 1.286 . S
C29 H24 0.930 . S
C29 C30 1.397 . S
C29 C31 1.361 . S
C30 C29 1.397 . S
C30 C34 1.390 . S
C31 C29 1.361 . S
C31 C32 1.393 . S
C31 N35 1.413 . S
C32 H25 0.930 . S
C32 C31 1.393 . S
C32 C33 1.399 . S
C33 C32 1.399 . S
C33 C34 1.381 . S
C34 H26 0.930 . S
C34 C30 1.390 . S
C34 C33 1.381 . S
N35 C28 1.286 . S
N35 C31 1.413 . S
H36 C41 0.930 . S
H37 C44 0.930 . S
H38 C46 0.930 . S
H39 C40 1.016 . S
C40 H39 1.016 . S
C40 N47 1.286 . S
C41 H36 0.930 . S
C41 C42 1.397 . S
C41 C43 1.361 . S
C42 C41 1.397 . S
C42 C46 1.390 . S
C43 C41 1.361 . S
C43 C44 1.393 . S
C43 N47 1.413 . S
C44 H37 0.930 . S
C44 C43 1.393 . S
C44 C45 1.399 . S
C45 C44 1.399 . S
C45 C46 1.381 . S
C46 H38 0.930 . S
C46 C42 1.390 . S
C46 C45 1.381 . S
N47 C40 1.286 . S
N47 C43 1.413 . S
H48 C53 0.930 . S
H49 C56 0.930 . S
H50 C58 0.930 . S
H51 C52 1.016 . S
C52 H51 1.016 . S
C52 N59 1.286 . S
C53 H48 0.930 . S
C53 C54 1.397 . S
C53 C55 1.361 . S
C54 C53 1.397 . S
C54 C58 1.390 . S
C55 C53 1.361 . S
C55 C56 1.393 . S
C55 N59 1.413 . S
C56 H49 0.930 . S
C56 C55 1.393 . S
C56 C57 1.399 . S
C57 C56 1.399 . S
C57 C58 1.381 . S
C58 H50 0.930 . S
C58 C54 1.390 . S
C58 C57 1.381 . S
N59 C52 1.286 . S
N59 C55 1.413 . S
H60 C65 0.930 . S
H61 C68 0.930 . S
H62 C70 0.930 . S
H63 C64 1.016 . S
C64 H63 1.016 . S
C64 N71 1.286 . S
C65 H60 0.930 . S
C65 C66 1.397 . S
C65 C67 1.361 . S
C66 C65 1.397 . S
C66 C70 1.390 . S
C67 C65 1.361 . S
C67 C68 1.393 . S
C67 N71 1.413 . S
C68 H61 0.930 . S
C68 C67 1.393 . S
C68 C69 1.399 . S
C69 C68 1.399 . S
C69 C70 1.381 . S
C70 H62 0.930 . S
C70 C66 1.390 . S
C70 C69 1.381 . S
N71 C64 1.286 . S
N71 C67 1.413 . S
H72 C77 0.930 . S
H73 C80 0.930 . S
H74 C82 0.930 . S
H75 C76 1.016 . S
C76 H75 1.016 . S
C76 N83 1.286 . S
C77 H72 0.930 . S
C77 C78 1.397 . S
C77 C79 1.361 . S
C78 C77 1.397 . S
C78 C82 1.390 . S
C79 C77 1.361 . S
C79 C80 1.393 . S
C79 N83 1.413 . S
C80 H73 0.930 . S
C80 C79 1.393 . S
C80 C81 1.399 . S
C81 C80 1.399 . S
C81 C82 1.381 . S
C82 H74 0.930 . S
C82 C78 1.390 . S
C82 C81 1.381 . S
N83 C76 1.286 . S
N83 C79 1.413 . S
H84 C89 0.930 . S
H85 C92 0.930 . S
H86 C94 0.930 . S
H87 C88 1.016 . S
C88 H87 1.016 . S
C88 N95 1.286 . S
C89 H84 0.930 . S
C89 C90 1.397 . S
C89 C91 1.361 . S
C90 C89 1.397 . S
C90 C94 1.390 . S
C91 C89 1.361 . S
C91 C92 1.393 . S
C91 N95 1.413 . S
C92 H85 0.930 . S
C92 C91 1.393 . S
C92 C93 1.399 . S
C93 C92 1.399 . S
C93 C94 1.381 . S
C94 H86 0.930 . S
C94 C90 1.390 . S
C94 C93 1.381 . S
N95 C88 1.286 . S
N95 C91 1.413 . S
Tb96 C98 2.809 . S
Tb96 O116 2.484 . S
Tb96 O117 2.440 . S
Tb96 O118 2.658 1_665 S
Tb96 O119 2.409 1_565 S
Tb96 O120 2.378 . S
Tb96 O124 2.325 . S
Tb96 O127 2.341 1_565 S
Tb97 C107 2.809 . S
Tb97 O118 2.325 . S
Tb97 O121 2.341 1_545 S
Tb97 O122 2.484 . S
Tb97 O123 2.440 . S
Tb97 O124 2.658 1_445 S
Tb97 O125 2.409 1_545 S
Tb97 O126 2.378 . S
C98 Tb96 2.809 . S
C98 C99 1.514 . S
C98 O116 1.248 . S
C98 O117 1.266 . S
C99 C98 1.514 . S
C99 C100 1.359 . S
C99 C104 1.348 . S
C100 C99 1.359 . S
C100 C101 1.380 . S
C100 H128 0.929 . S
C101 C100 1.380 . S
C101 C102 1.347 . S
C101 H129 0.931 . S
C102 C101 1.347 . S
C102 C103 1.369 . S
C103 C102 1.369 . S
C103 C104 1.408 . S
C103 H130 0.930 . S
C104 C99 1.348 . S
C104 C103 1.408 . S
C104 H131 0.930 . S
C105 O118 1.281 . S
C105 O119 1.254 1_455 S
C106 O120 1.236 1_455 S
C106 O121 1.266 . S
C107 Tb97 2.809 . S
C107 C108 1.514 . S
C107 O122 1.248 . S
C107 O123 1.266 . S
C108 C107 1.514 . S
C108 C109 1.359 . S
C108 C113 1.348 . S
C109 C108 1.359 . S
C109 C110 1.380 . S
C109 H132 0.929 . S
C110 C109 1.380 . S
C110 C111 1.347 . S
C110 H133 0.931 . S
C111 C110 1.347 . S
C111 C112 1.369 . S
C112 C111 1.369 . S
C112 C113 1.408 . S
C112 H134 0.930 . S
C113 C108 1.348 . S
C113 C112 1.408 . S
C113 H135 0.930 . S
C114 O124 1.281 . S
C114 O125 1.254 1_655 S
C115 O126 1.236 1_655 S
C115 O127 1.266 . S
O116 Tb96 2.484 . S
O116 C98 1.248 . S
O117 Tb96 2.440 . S
O117 C98 1.266 . S
O118 Tb96 2.658 1_445 S
O118 Tb97 2.325 . S
O118 C105 1.281 . S
O119 Tb96 2.409 1_545 S
O119 C105 1.254 1_655 S
O120 Tb96 2.378 . S
O120 C106 1.236 1_655 S
O121 Tb97 2.341 1_565 S
O121 C106 1.266 . S
O122 Tb97 2.484 . S
O122 C107 1.248 . S
O123 Tb97 2.440 . S
O123 C107 1.266 . S
O124 Tb96 2.325 . S
O124 Tb97 2.658 1_665 S
O124 C114 1.281 . S
O125 Tb97 2.409 1_565 S
O125 C114 1.254 1_455 S
O126 Tb97 2.378 . S
O126 C115 1.236 1_455 S
O127 Tb96 2.341 1_545 S
O127 C115 1.266 . S
H128 C100 0.929 . S
H129 C101 0.931 . S
H130 C103 0.930 . S
H131 C104 0.930 . S
H132 C109 0.929 . S
H133 C110 0.931 . S
H134 C112 0.930 . S
H135 C113 0.930 . S
Tb136 C138 2.809 . S
Tb136 O156 2.484 . S
Tb136 O157 2.440 . S
Tb136 O158 2.658 1_545 S
Tb136 O159 2.409 1_545 S
Tb136 O160 2.378 . S
Tb136 O164 2.325 1_554 S
Tb136 O167 2.341 1_544 S
Tb137 C147 2.809 1_545 S
Tb137 O158 2.325 1_546 S
Tb137 O161 2.341 1_556 S
Tb137 O162 2.484 1_545 S
Tb137 O163 2.440 1_545 S
Tb137 O164 2.658 . S
Tb137 O165 2.409 . S
Tb137 O166 2.378 1_545 S
C138 Tb136 2.809 . S
C138 C139 1.514 . S
C138 O156 1.248 . S
C138 O157 1.266 . S
C139 C138 1.514 . S
C139 C140 1.359 . S
C139 C144 1.348 . S
C140 C139 1.359 . S
C140 C141 1.380 . S
C140 H168 0.929 . S
C141 C140 1.380 . S
C141 C142 1.347 . S
C141 H169 0.931 . S
C142 C141 1.347 . S
C142 C143 1.369 . S
C143 C142 1.369 . S
C143 C144 1.408 . S
C143 H170 0.930 . S
C144 C139 1.348 . S
C144 C143 1.408 . S
C144 H171 0.930 . S
C145 O158 1.281 . S
C145 O159 1.254 . S
C146 O160 1.236 . S
C146 O161 1.266 . S
C147 Tb137 2.809 1_565 S
C147 C148 1.514 . S
C147 O162 1.248 . S
C147 O163 1.266 . S
C148 C147 1.514 . S
C148 C149 1.359 . S
C148 C153 1.348 . S
C149 C148 1.359 . S
C149 C150 1.380 . S
C149 H172 0.929 . S
C150 C149 1.380 . S
C150 C151 1.347 . S
C150 H173 0.931 . S
C151 C150 1.347 . S
C151 C152 1.369 . S
C152 C151 1.369 . S
C152 C153 1.408 . S
C152 H174 0.930 . S
C153 C148 1.348 . S
C153 C152 1.408 . S
C153 H175 0.930 . S
C154 O164 1.281 . S
C154 O165 1.254 . S
C155 O166 1.236 . S
C155 O167 1.266 . S
O156 Tb136 2.484 . S
O156 C138 1.248 . S
O157 Tb136 2.440 . S
O157 C138 1.266 . S
O158 Tb136 2.658 1_565 S
O158 Tb137 2.325 1_564 S
O158 C145 1.281 . S
O159 Tb136 2.409 1_565 S
O159 C145 1.254 . S
O160 Tb136 2.378 . S
O160 C146 1.236 . S
O161 Tb137 2.341 1_554 S
O161 C146 1.266 . S
O162 Tb137 2.484 1_565 S
O162 C147 1.248 . S
O163 Tb137 2.440 1_565 S
O163 C147 1.266 . S
O164 Tb136 2.325 1_556 S
O164 Tb137 2.658 . S
O164 C154 1.281 . S
O165 Tb137 2.409 . S
O165 C154 1.254 . S
O166 Tb137 2.378 1_565 S
O166 C155 1.236 . S
O167 Tb136 2.341 1_566 S
O167 C155 1.266 . S
H168 C140 0.929 . S
H169 C141 0.931 . S
H170 C143 0.930 . S
H171 C144 0.930 . S
H172 C149 0.929 . S
H173 C150 0.931 . S
H174 C152 0.930 . S
H175 C153 0.930 . S
Tb176 C178 2.809 . S
Tb176 O196 2.484 . S
Tb176 O197 2.440 . S
Tb176 O198 2.658 . S
Tb176 O199 2.409 . S
Tb176 O200 2.378 . S
Tb176 O204 2.325 . S
Tb176 O207 2.341 . S
Tb177 C187 2.809 . S
Tb177 O198 2.325 . S
Tb177 O201 2.341 . S
Tb177 O202 2.484 . S
Tb177 O203 2.440 . S
Tb177 O204 2.658 . S
Tb177 O205 2.409 . S
Tb177 O206 2.378 . S
C178 Tb176 2.809 . S
C178 C179 1.514 . S
C178 O196 1.248 . S
C178 O197 1.266 . S
C179 C178 1.514 . S
C179 C180 1.359 . S
C179 C184 1.348 . S
C180 C179 1.359 . S
C180 C181 1.380 . S
C180 H208 0.929 . S
C181 C180 1.380 . S
C181 C182 1.347 . S
C181 H209 0.931 . S
C182 C181 1.347 . S
C182 C183 1.369 . S
C183 C182 1.369 . S
C183 C184 1.408 . S
C183 H210 0.930 . S
C184 C179 1.348 . S
C184 C183 1.408 . S
C184 H211 0.930 . S
C185 O198 1.281 . S
C185 O199 1.254 . S
C186 O200 1.236 . S
C186 O201 1.266 . S
C187 Tb177 2.809 . S
C187 C188 1.514 . S
C187 O202 1.248 . S
C187 O203 1.266 . S
C188 C187 1.514 . S
C188 C189 1.359 . S
C188 C193 1.348 . S
C189 C188 1.359 . S
C189 C190 1.380 . S
C189 H212 0.929 . S
C190 C189 1.380 . S
C190 C191 1.347 . S
C190 H213 0.931 . S
C191 C190 1.347 . S
C191 C192 1.369 . S
C192 C191 1.369 . S
C192 C193 1.408 . S
C192 H214 0.930 . S
C193 C188 1.348 . S
C193 C192 1.408 . S
C193 H215 0.930 . S
C194 O204 1.281 . S
C194 O205 1.254 . S
C195 O206 1.236 . S
C195 O207 1.266 . S
O196 Tb176 2.484 . S
O196 C178 1.248 . S
O197 Tb176 2.440 . S
O197 C178 1.266 . S
O198 Tb176 2.658 . S
O198 Tb177 2.325 . S
O198 C185 1.281 . S
O199 Tb176 2.409 . S
O199 C185 1.254 . S
O200 Tb176 2.378 . S
O200 C186 1.236 . S
O201 Tb177 2.341 . S
O201 C186 1.266 . S
O202 Tb177 2.484 . S
O202 C187 1.248 . S
O203 Tb177 2.440 . S
O203 C187 1.266 . S
O204 Tb176 2.325 . S
O204 Tb177 2.658 . S
O204 C194 1.281 . S
O205 Tb177 2.409 . S
O205 C194 1.254 . S
O206 Tb177 2.378 . S
O206 C195 1.236 . S
O207 Tb176 2.341 . S
O207 C195 1.266 . S
H208 C180 0.929 . S
H209 C181 0.931 . S
H210 C183 0.930 . S
H211 C184 0.930 . S
H212 C189 0.929 . S
H213 C190 0.931 . S
H214 C192 0.930 . S
H215 C193 0.930 . S
Tb216 C218 2.809 1_455 S
Tb216 O236 2.484 1_455 S
Tb216 O237 2.440 . S
Tb216 O238 2.658 1_556 S
Tb216 O239 2.409 1_556 S
Tb216 O240 2.378 1_456 S
Tb216 O244 2.325 1_455 S
Tb216 O247 2.341 . S
Tb217 C227 2.809 . S
Tb217 O238 2.325 . S
Tb217 O241 2.341 1_455 S
Tb217 O242 2.484 . S
Tb217 O243 2.440 . S
Tb217 O244 2.658 1_454 S
Tb217 O245 2.409 1_454 S
Tb217 O246 2.378 1_554 S
C218 Tb216 2.809 1_655 S
C218 C219 1.514 . S
C218 O236 1.248 . S
C218 O237 1.266 1_655 S
C219 C218 1.514 . S
C219 C220 1.359 . S
C219 C224 1.348 . S
C220 C219 1.359 . S
C220 C221 1.380 . S
C220 H248 0.929 . S
C221 C220 1.380 . S
C221 C222 1.347 . S
C221 H249 0.931 . S
C222 C221 1.347 . S
C222 C223 1.369 . S
C223 C222 1.369 . S
C223 C224 1.408 . S
C223 H250 0.930 . S
C224 C219 1.348 . S
C224 C223 1.408 . S
C224 H251 0.930 . S
C225 O238 1.281 . S
C225 O239 1.254 . S
C226 O240 1.236 . S
C226 O241 1.266 . S
C227 Tb217 2.809 . S
C227 C228 1.514 . S
C227 O242 1.248 . S
C227 O243 1.266 . S
C228 C227 1.514 . S
C228 C229 1.359 . S
C228 C233 1.348 . S
C229 C228 1.359 . S
C229 C230 1.380 . S
C229 H252 0.929 . S
C230 C229 1.380 . S
C230 C231 1.347 . S
C230 H253 0.931 . S
C231 C230 1.347 . S
C231 C232 1.369 . S
C232 C231 1.369 . S
C232 C233 1.408 . S
C232 H254 0.930 . S
C233 C228 1.348 . S
C233 C232 1.408 . S
C233 H255 0.930 . S
C234 O244 1.281 . S
C234 O245 1.254 . S
C235 O246 1.236 . S
C235 O247 1.266 . S
O236 Tb216 2.484 1_655 S
O236 C218 1.248 . S
O237 Tb216 2.440 . S
O237 C218 1.266 1_455 S
O238 Tb216 2.658 1_554 S
O238 Tb217 2.325 . S
O238 C225 1.281 . S
O239 Tb216 2.409 1_554 S
O239 C225 1.254 . S
O240 Tb216 2.378 1_654 S
O240 C226 1.236 . S
O241 Tb217 2.341 1_655 S
O241 C226 1.266 . S
O242 Tb217 2.484 . S
O242 C227 1.248 . S
O243 Tb217 2.440 . S
O243 C227 1.266 . S
O244 Tb216 2.325 1_655 S
O244 Tb217 2.658 1_656 S
O244 C234 1.281 . S
O245 Tb217 2.409 1_656 S
O245 C234 1.254 . S
O246 Tb217 2.378 1_556 S
O246 C235 1.236 . S
O247 Tb216 2.341 . S
O247 C235 1.266 . S
H248 C220 0.929 . S
H249 C221 0.931 . S
H250 C223 0.930 . S
H251 C224 0.930 . S
H252 C229 0.929 . S
H253 C230 0.931 . S
H254 C232 0.930 . S
H255 C233 0.930 . S
H256 C262 0.930 . S
H257 C265 0.930 . S
H258 C266 0.930 . S
H259 C267 0.930 . S
H260 C270 0.930 . S
H261 C271 0.930 . S
C262 H256 0.930 . S
C262 C263 1.355 . S
C262 C264 1.415 . S
C263 C262 1.355 . S
C263 C265 1.419 . S
C264 C262 1.415 . S
C264 C269 1.425 . S
C264 C271 1.409 . S
C265 H257 0.930 . S
C265 C263 1.419 . S
C265 C266 1.362 . S
C266 H258 0.930 . S
C266 C265 1.362 . S
C266 C269 1.409 . S
C267 H259 0.930 . S
C267 C268 1.355 . S
C267 C269 1.415 . S
C268 C267 1.355 . S
C268 C270 1.419 . S
C269 C264 1.425 . S
C269 C266 1.409 . S
C269 C267 1.415 . S
C270 H260 0.930 . S
C270 C268 1.419 . S
C270 C271 1.362 . S
C271 H261 0.930 . S
C271 C264 1.409 . S
C271 C270 1.362 . S
H272 C278 0.930 . S
H273 C281 0.930 . S
H274 C282 0.930 . S
H275 C283 0.930 . S
H276 C286 0.930 . S
H277 C287 0.930 . S
C278 H272 0.930 . S
C278 C279 1.355 . S
C278 C280 1.415 . S
C279 C278 1.355 . S
C279 C281 1.419 . S
C280 C278 1.415 . S
C280 C285 1.425 . S
C280 C287 1.409 . S
C281 H273 0.930 . S
C281 C279 1.419 . S
C281 C282 1.362 . S
C282 H274 0.930 . S
C282 C281 1.362 . S
C282 C285 1.409 . S
C283 H275 0.930 . S
C283 C284 1.355 . S
C283 C285 1.415 . S
C284 C283 1.355 . S
C284 C286 1.419 . S
C285 C280 1.425 . S
C285 C282 1.409 . S
C285 C283 1.415 . S
C286 H276 0.930 . S
C286 C284 1.419 . S
C286 C287 1.362 . S
C287 H277 0.930 . S
C287 C280 1.409 . S
C287 C286 1.362 . S
H288 C294 0.930 . S
H289 C297 0.930 . S
H290 C298 0.930 . S
H291 C299 0.930 . S
H292 C302 0.930 . S
H293 C303 0.930 . S
C294 H288 0.930 . S
C294 C295 1.355 . S
C294 C296 1.415 . S
C295 C294 1.355 . S
C295 C297 1.419 . S
C296 C294 1.415 . S
C296 C301 1.425 . S
C296 C303 1.409 . S
C297 H289 0.930 . S
C297 C295 1.419 . S
C297 C298 1.362 . S
C298 H290 0.930 . S
C298 C297 1.362 . S
C298 C301 1.409 . S
C299 H291 0.930 . S
C299 C300 1.355 . S
C299 C301 1.415 . S
C300 C299 1.355 . S
C300 C302 1.419 . S
C301 C296 1.425 . S
C301 C298 1.409 . S
C301 C299 1.415 . S
C302 H292 0.930 . S
C302 C300 1.419 . S
C302 C303 1.362 . S
C303 H293 0.930 . S
C303 C296 1.409 . S
C303 C302 1.362 . S
H304 C310 0.930 . S
H305 C313 0.930 . S
H306 C314 0.930 . S
H307 C315 0.930 . S
H308 C318 0.930 . S
H309 C319 0.930 . S
C310 H304 0.930 . S
C310 C311 1.355 . S
C310 C312 1.415 . S
C311 C310 1.355 . S
C311 C313 1.419 . S
C312 C310 1.415 . S
C312 C317 1.425 . S
C312 C319 1.409 . S
C313 H305 0.930 . S
C313 C311 1.419 . S
C313 C314 1.362 . S
C314 H306 0.930 . S
C314 C313 1.362 . S
C314 C317 1.409 . S
C315 H307 0.930 . S
C315 C316 1.355 . S
C315 C317 1.415 . S
C316 C315 1.355 . S
C316 C318 1.419 . S
C317 C312 1.425 . S
C317 C314 1.409 . S
C317 C315 1.415 . S
C318 H308 0.930 . S
C318 C316 1.419 . S
C318 C319 1.362 . S
C319 H309 0.930 . S
C319 C312 1.409 . S
C319 C318 1.362 . S
H320 C326 0.930 . S
H321 C329 0.930 . S
H322 C330 0.930 . S
H323 C331 0.930 . S
H324 C334 0.930 . S
H325 C335 0.930 . S
C326 H320 0.930 . S
C326 C327 1.355 . S
C326 C328 1.415 . S
C327 C326 1.355 . S
C327 C329 1.419 . S
C328 C326 1.415 . S
C328 C333 1.425 . S
C328 C335 1.409 . S
C329 H321 0.930 . S
C329 C327 1.419 . S
C329 C330 1.362 . S
C330 H322 0.930 . S
C330 C329 1.362 . S
C330 C333 1.409 . S
C331 H323 0.930 . S
C331 C332 1.355 . S
C331 C333 1.415 . S
C332 C331 1.355 . S
C332 C334 1.419 . S
C333 C328 1.425 . S
C333 C330 1.409 . S
C333 C331 1.415 . S
C334 H324 0.930 . S
C334 C332 1.419 . S
C334 C335 1.362 . S
C335 H325 0.930 . S
C335 C328 1.409 . S
C335 C334 1.362 . S
H336 C342 0.930 . S
H337 C345 0.930 . S
H338 C346 0.930 . S
H339 C347 0.930 . S
H340 C350 0.930 . S
H341 C351 0.930 . S
C342 H336 0.930 . S
C342 C343 1.355 1_655 S
C342 C344 1.414 . S
C343 C342 1.355 1_455 S
C343 C345 1.419 . S
C344 C342 1.414 . S
C344 C349 1.424 1_655 S
C344 C351 1.410 . S
C345 H337 0.930 . S
C345 C343 1.419 . S
C345 C346 1.362 . S
C346 H338 0.930 . S
C346 C345 1.362 . S
C346 C349 1.409 . S
C347 H339 0.930 . S
C347 C348 1.355 . S
C347 C349 1.415 . S
C348 C347 1.355 . S
C348 C350 1.419 1_455 S
C349 C344 1.424 1_455 S
C349 C346 1.409 . S
C349 C347 1.415 . S
C350 H340 0.930 . S
C350 C348 1.419 1_655 S
C350 C351 1.362 . S
C351 H341 0.930 . S
C351 C344 1.410 . S
C351 C350 1.362 . S
H352 C358 0.930 . S
H353 C361 0.930 . S
H354 C362 0.930 . S
H355 C363 0.930 . S
H356 C366 0.930 . S
H357 C367 0.930 . S
C358 H352 0.930 . S
C358 C359 1.355 . S
C358 C360 1.415 . S
C359 C358 1.355 . S
C359 C361 1.419 . S
C360 C358 1.415 . S
C360 C365 1.425 . S
C360 C367 1.409 . S
C361 H353 0.930 . S
C361 C359 1.419 . S
C361 C362 1.362 . S
C362 H354 0.930 . S
C362 C361 1.362 . S
C362 C365 1.409 . S
C363 H355 0.930 . S
C363 C364 1.355 . S
C363 C365 1.415 . S
C364 C363 1.355 . S
C364 C366 1.419 . S
C365 C360 1.425 . S
C365 C362 1.409 . S
C365 C363 1.415 . S
C366 H356 0.930 . S
C366 C364 1.419 . S
C366 C367 1.362 . S
C367 H357 0.930 . S
C367 C360 1.409 . S
C367 C366 1.362 . S
H368 C374 0.930 . S
H369 C377 0.930 . S
H370 C378 0.930 . S
H371 C379 0.930 . S
H372 C382 0.930 . S
H373 C383 0.930 . S
C374 H368 0.930 . S
C374 C375 1.355 . S
C374 C376 1.415 . S
C375 C374 1.355 . S
C375 C377 1.419 . S
C376 C374 1.415 . S
C376 C381 1.425 . S
C376 C383 1.409 . S
C377 H369 0.930 . S
C377 C375 1.419 . S
C377 C378 1.362 . S
C378 H370 0.930 . S
C378 C377 1.362 . S
C378 C381 1.409 . S
C379 H371 0.930 . S
C379 C380 1.355 . S
C379 C381 1.415 . S
C380 C379 1.355 . S
C380 C382 1.419 . S
C381 C376 1.425 . S
C381 C378 1.409 . S
C381 C379 1.415 . S
C382 H372 0.930 . S
C382 C380 1.419 . S
C382 C383 1.362 . S
C383 H373 0.930 . S
C383 C376 1.409 . S
C383 C382 1.362 . S
H384 C390 0.930 . S
H385 C393 0.930 . S
H386 C394 0.930 . S
H387 C395 0.930 . S
H388 C398 0.930 . S
H389 C399 0.930 . S
C390 H384 0.930 . S
C390 C391 1.355 . S
C390 C392 1.415 . S
C391 C390 1.355 . S
C391 C393 1.419 . S
C392 C390 1.415 . S
C392 C397 1.425 . S
C392 C399 1.409 . S
C393 H385 0.930 . S
C393 C391 1.419 . S
C393 C394 1.362 . S
C394 H386 0.930 . S
C394 C393 1.362 . S
C394 C397 1.409 . S
C395 H387 0.930 . S
C395 C396 1.355 . S
C395 C397 1.415 . S
C396 C395 1.355 . S
C396 C398 1.419 . S
C397 C392 1.425 . S
C397 C394 1.409 . S
C397 C395 1.415 . S
C398 H388 0.930 . S
C398 C396 1.419 . S
C398 C399 1.362 . S
C399 H389 0.930 . S
C399 C392 1.409 . S
C399 C398 1.362 . S
H400 C406 0.930 . S
H401 C409 0.930 . S
H402 C410 0.930 . S
H403 C411 0.930 . S
H404 C414 0.930 . S
H405 C415 0.930 . S
C406 H400 0.930 . S
C406 C407 1.355 . S
C406 C408 1.415 . S
C407 C406 1.355 . S
C407 C409 1.419 . S
C408 C406 1.415 . S
C408 C413 1.425 . S
C408 C415 1.409 . S
C409 H401 0.930 . S
C409 C407 1.419 . S
C409 C410 1.362 . S
C410 H402 0.930 . S
C410 C409 1.362 . S
C410 C413 1.409 . S
C411 H403 0.930 . S
C411 C412 1.355 . S
C411 C413 1.415 . S
C412 C411 1.355 . S
C412 C414 1.419 . S
C413 C408 1.425 . S
C413 C410 1.409 . S
C413 C411 1.415 . S
C414 H404 0.930 . S
C414 C412 1.419 . S
C414 C415 1.362 . S
C415 H405 0.930 . S
C415 C408 1.409 . S
C415 C414 1.362 . S
H416 C422 0.930 . S
H417 C425 0.930 . S
H418 C426 0.930 . S
H419 C427 0.930 . S
H420 C430 0.930 . S
H421 C431 0.930 . S
C422 H416 0.930 . S
C422 C423 1.355 . S
C422 C424 1.415 . S
C423 C422 1.355 . S
C423 C425 1.419 . S
C424 C422 1.415 . S
C424 C429 1.425 . S
C424 C431 1.409 . S
C425 H417 0.930 . S
C425 C423 1.419 . S
C425 C426 1.362 . S
C426 H418 0.930 . S
C426 C425 1.362 . S
C426 C429 1.409 . S
C427 H419 0.930 . S
C427 C428 1.355 . S
C427 C429 1.415 . S
C428 C427 1.355 . S
C428 C430 1.419 . S
C429 C424 1.425 . S
C429 C426 1.409 . S
C429 C427 1.415 . S
C430 H420 0.930 . S
C430 C428 1.419 . S
C430 C431 1.362 . S
C431 H421 0.930 . S
C431 C424 1.409 . S
C431 C430 1.362 . S
H432 C438 0.930 . S
H433 C441 0.930 . S
H434 C442 0.930 . S
H435 C443 0.930 . S
H436 C446 0.930 . S
H437 C447 0.930 . S
C438 H432 0.930 . S
C438 C439 1.355 . S
C438 C440 1.415 . S
C439 C438 1.355 . S
C439 C441 1.419 . S
C440 C438 1.415 . S
C440 C445 1.425 . S
C440 C447 1.409 . S
C441 H433 0.930 . S
C441 C439 1.419 . S
C441 C442 1.362 . S
C442 H434 0.930 . S
C442 C441 1.362 . S
C442 C445 1.409 . S
C443 H435 0.930 . S
C443 C444 1.355 . S
C443 C445 1.415 . S
C444 C443 1.355 . S
C444 C446 1.419 . S
C445 C440 1.425 . S
C445 C442 1.409 . S
C445 C443 1.415 . S
C446 H436 0.930 . S
C446 C444 1.419 . S
C446 C447 1.362 . S
C447 H437 0.930 . S
C447 C440 1.409 . S
C447 C446 1.362 . S
H448 C454 0.930 . S
H449 C457 0.930 . S
H450 C458 0.930 . S
H451 C459 0.930 . S
H452 C462 0.930 . S
H453 C463 0.930 . S
C454 H448 0.930 . S
C454 C455 1.355 . S
C454 C456 1.415 . S
C455 C454 1.355 . S
C455 C457 1.419 . S
C456 C454 1.415 . S
C456 C461 1.425 . S
C456 C463 1.409 . S
C457 H449 0.930 . S
C457 C455 1.419 . S
C457 C458 1.362 . S
C458 H450 0.930 . S
C458 C457 1.362 . S
C458 C461 1.409 . S
C459 H451 0.930 . S
C459 C460 1.355 . S
C459 C461 1.415 . S
C460 C459 1.355 . S
C460 C462 1.419 . S
C461 C456 1.425 . S
C461 C458 1.409 . S
C461 C459 1.415 . S
C462 H452 0.930 . S
C462 C460 1.419 . S
C462 C463 1.362 . S
C463 H453 0.930 . S
C463 C456 1.409 . S
C463 C462 1.362 . S
H464 C470 0.930 . S
H465 C473 0.930 . S
H466 C474 0.930 . S
H467 C475 0.930 . S
H468 C478 0.930 . S
H469 C479 0.930 . S
C470 H464 0.930 . S
C470 C471 1.355 . S
C470 C472 1.415 . S
C471 C470 1.355 . S
C471 C473 1.419 . S
C472 C470 1.415 . S
C472 C477 1.425 . S
C472 C479 1.409 . S
C473 H465 0.930 . S
C473 C471 1.419 . S
C473 C474 1.362 . S
C474 H466 0.930 . S
C474 C473 1.362 . S
C474 C477 1.409 . S
C475 H467 0.930 . S
C475 C476 1.355 . S
C475 C477 1.415 . S
C476 C475 1.355 . S
C476 C478 1.419 . S
C477 C472 1.425 . S
C477 C474 1.409 . S
C477 C475 1.415 . S
C478 H468 0.930 . S
C478 C476 1.419 . S
C478 C479 1.362 . S
C479 H469 0.930 . S
C479 C472 1.409 . S
C479 C478 1.362 . S
H480 C486 0.930 . S
H481 C489 0.930 . S
H482 C490 0.930 . S
H483 C491 0.930 . S
H484 C494 0.930 . S
H485 C495 0.930 . S
C486 H480 0.930 . S
C486 C487 1.355 . S
C486 C488 1.415 . S
C487 C486 1.355 . S
C487 C489 1.419 . S
C488 C486 1.415 . S
C488 C493 1.425 . S
C488 C495 1.409 . S
C489 H481 0.930 . S
C489 C487 1.419 . S
C489 C490 1.362 . S
C490 H482 0.930 . S
C490 C489 1.362 . S
C490 C493 1.409 . S
C491 H483 0.930 . S
C491 C492 1.355 . S
C491 C493 1.415 . S
C492 C491 1.355 . S
C492 C494 1.419 . S
C493 C488 1.425 . S
C493 C490 1.409 . S
C493 C491 1.415 . S
C494 H484 0.930 . S
C494 C492 1.419 . S
C494 C495 1.362 . S
C495 H485 0.930 . S
C495 C488 1.409 . S
C495 C494 1.362 . S
H496 C502 0.930 . S
H497 C505 0.930 . S
H498 C506 0.930 . S
H499 C507 0.930 . S
H500 C510 0.930 . S
H501 C511 0.930 . S
C502 H496 0.930 . S
C502 C503 1.355 . S
C502 C504 1.415 . S
C503 C502 1.355 . S
C503 C505 1.419 . S
C504 C502 1.415 . S
C504 C509 1.425 . S
C504 C511 1.409 . S
C505 H497 0.930 . S
C505 C503 1.419 . S
C505 C506 1.362 . S
C506 H498 0.930 . S
C506 C505 1.362 . S
C506 C509 1.409 . S
C507 H499 0.930 . S
C507 C508 1.355 . S
C507 C509 1.415 . S
C508 C507 1.355 . S
C508 C510 1.419 . S
C509 C504 1.425 . S
C509 C506 1.409 . S
C509 C507 1.415 . S
C510 H500 0.930 . S
C510 C508 1.419 . S
C510 C511 1.362 . S
C511 H501 0.930 . S
C511 C504 1.409 . S
C511 C510 1.362 . S
H512 C518 0.930 . S
H513 C521 0.930 . S
H514 C522 0.930 . S
H515 C523 0.930 . S
H516 C526 0.930 . S
H517 C527 0.930 . S
C518 H512 0.930 . S
C518 C519 1.355 . S
C518 C520 1.415 . S
C519 C518 1.355 . S
C519 C521 1.419 . S
C520 C518 1.415 . S
C520 C525 1.425 . S
C520 C527 1.409 . S
C521 H513 0.930 . S
C521 C519 1.419 . S
C521 C522 1.362 . S
C522 H514 0.930 . S
C522 C521 1.362 . S
C522 C525 1.409 . S
C523 H515 0.930 . S
C523 C524 1.355 . S
C523 C525 1.415 . S
C524 C523 1.355 . S
C524 C526 1.419 . S
C525 C520 1.425 . S
C525 C522 1.409 . S
C525 C523 1.415 . S
C526 H516 0.930 . S
C526 C524 1.419 . S
C526 C527 1.362 . S
C527 H517 0.930 . S
C527 C520 1.409 . S
C527 C526 1.362 . S
H528 C534 0.930 . S
H529 C537 0.930 . S
H530 C538 0.930 . S
H531 C539 0.930 1_455 S
H532 C542 0.930 . S
H533 C543 0.930 . S
C534 H528 0.930 . S
C534 C535 1.355 . S
C534 C536 1.415 . S
C535 C534 1.355 . S
C535 C537 1.419 1_655 S
C536 C534 1.415 . S
C536 C541 1.425 . S
C536 C543 1.409 . S
C537 H529 0.930 . S
C537 C535 1.419 1_455 S
C537 C538 1.362 . S
C538 H530 0.930 . S
C538 C537 1.362 . S
C538 C541 1.409 1_455 S
C539 H531 0.930 1_655 S
C539 C540 1.355 . S
C539 C541 1.415 . S
C540 C539 1.355 . S
C540 C542 1.419 . S
C541 C536 1.425 . S
C541 C538 1.409 1_655 S
C541 C539 1.415 . S
C542 H532 0.930 . S
C542 C540 1.419 . S
C542 C543 1.362 . S
C543 H533 0.930 . S
C543 C536 1.409 . S
C543 C542 1.362 . S
H544 C550 0.930 . S
H545 C553 0.930 . S
H546 C554 0.930 . S
H547 C555 0.930 . S
H548 C558 0.930 . S
H549 C559 0.930 . S
C550 H544 0.930 . S
C550 C551 1.355 . S
C550 C552 1.415 . S
C551 C550 1.355 . S
C551 C553 1.419 . S
C552 C550 1.415 . S
C552 C557 1.425 . S
C552 C559 1.409 . S
C553 H545 0.930 . S
C553 C551 1.419 . S
C553 C554 1.362 . S
C554 H546 0.930 . S
C554 C553 1.362 . S
C554 C557 1.409 . S
C555 H547 0.930 . S
C555 C556 1.355 . S
C555 C557 1.415 . S
C556 C555 1.355 . S
C556 C558 1.419 . S
C557 C552 1.425 . S
C557 C554 1.409 . S
C557 C555 1.415 . S
C558 H548 0.930 . S
C558 C556 1.419 . S
C558 C559 1.362 . S
C559 H549 0.930 . S
C559 C552 1.409 . S
C559 C558 1.362 . S
H560 C566 0.930 . S
H561 C569 0.930 . S
H562 C570 0.930 . S
H563 C571 0.930 . S
H564 C574 0.930 . S
H565 C575 0.930 . S
C566 H560 0.930 . S
C566 C567 1.355 . S
C566 C568 1.415 . S
C567 C566 1.355 . S
C567 C569 1.419 . S
C568 C566 1.415 . S
C568 C573 1.425 . S
C568 C575 1.409 . S
C569 H561 0.930 . S
C569 C567 1.419 . S
C569 C570 1.362 . S
C570 H562 0.930 . S
C570 C569 1.362 . S
C570 C573 1.409 . S
C571 H563 0.930 . S
C571 C572 1.355 . S
C571 C573 1.415 . S
C572 C571 1.355 . S
C572 C574 1.419 . S
C573 C568 1.425 . S
C573 C570 1.409 . S
C573 C571 1.415 . S
C574 H564 0.930 . S
C574 C572 1.419 . S
C574 C575 1.362 . S
C575 H565 0.930 . S
C575 C568 1.409 . S
C575 C574 1.362 . S
H576 C582 0.930 . S
H577 C585 0.930 . S
H578 C586 0.930 . S
H579 C587 0.930 . S
H580 C590 0.930 . S
H581 C591 0.930 . S
C582 H576 0.930 . S
C582 C583 1.355 . S
C582 C584 1.415 . S
C583 C582 1.355 . S
C583 C585 1.419 . S
C584 C582 1.415 . S
C584 C589 1.425 . S
C584 C591 1.409 . S
C585 H577 0.930 . S
C585 C583 1.419 . S
C585 C586 1.362 . S
C586 H578 0.930 . S
C586 C585 1.362 . S
C586 C589 1.409 . S
C587 H579 0.930 . S
C587 C588 1.355 . S
C587 C589 1.415 . S
C588 C587 1.355 . S
C588 C590 1.419 . S
C589 C584 1.425 . S
C589 C586 1.409 . S
C589 C587 1.415 . S
C590 H580 0.930 . S
C590 C588 1.419 . S
C590 C591 1.362 . S
C591 H581 0.930 . S
C591 C584 1.409 . S
C591 C590 1.362 . S
H592 C598 0.930 . S
H593 C601 0.930 . S
H594 C602 0.930 . S
H595 C603 0.930 . S
H596 C606 0.930 . S
H597 C607 0.930 . S
C598 H592 0.930 . S
C598 C599 1.355 . S
C598 C600 1.415 . S
C599 C598 1.355 . S
C599 C601 1.419 . S
C600 C598 1.415 . S
C600 C605 1.425 . S
C600 C607 1.409 . S
C601 H593 0.930 . S
C601 C599 1.419 . S
C601 C602 1.362 . S
C602 H594 0.930 . S
C602 C601 1.362 . S
C602 C605 1.409 . S
C603 H595 0.930 . S
C603 C604 1.355 . S
C603 C605 1.415 . S
C604 C603 1.355 . S
C604 C606 1.419 . S
C605 C600 1.425 . S
C605 C602 1.409 . S
C605 C603 1.415 . S
C606 H596 0.930 . S
C606 C604 1.419 . S
C606 C607 1.362 . S
C607 H597 0.930 . S
C607 C600 1.409 . S
C607 C606 1.362 . S
H608 C614 0.930 . S
H609 C617 0.930 . S
H610 C618 0.930 . S
H611 C619 0.930 . S
H612 C622 0.930 . S
H613 C623 0.930 . S
C614 H608 0.930 . S
C614 C615 1.355 . S
C614 C616 1.415 . S
C615 C614 1.355 . S
C615 C617 1.419 . S
C616 C614 1.415 . S
C616 C621 1.425 . S
C616 C623 1.409 . S
C617 H609 0.930 . S
C617 C615 1.419 . S
C617 C618 1.362 . S
C618 H610 0.930 . S
C618 C617 1.362 . S
C618 C621 1.409 . S
C619 H611 0.930 . S
C619 C620 1.355 . S
C619 C621 1.415 . S
C620 C619 1.355 . S
C620 C622 1.419 . S
C621 C616 1.425 . S
C621 C618 1.409 . S
C621 C619 1.415 . S
C622 H612 0.930 . S
C622 C620 1.419 . S
C622 C623 1.362 . S
C623 H613 0.930 . S
C623 C616 1.409 . S
C623 C622 1.362 . S
H624 C630 0.930 . S
H625 C633 0.930 . S
H626 C634 0.930 . S
H627 C635 0.930 . S
H628 C638 0.930 . S
H629 C639 0.930 . S
C630 H624 0.930 . S
C630 C631 1.355 . S
C630 C632 1.415 . S
C631 C630 1.355 . S
C631 C633 1.419 . S
C632 C630 1.415 . S
C632 C637 1.425 . S
C632 C639 1.409 . S
C633 H625 0.930 . S
C633 C631 1.419 . S
C633 C634 1.362 . S
C634 H626 0.930 . S
C634 C633 1.362 . S
C634 C637 1.409 . S
C635 H627 0.930 . S
C635 C636 1.355 . S
C635 C637 1.415 . S
C636 C635 1.355 . S
C636 C638 1.419 . S
C637 C632 1.425 . S
C637 C634 1.409 . S
C637 C635 1.415 . S
C638 H628 0.930 . S
C638 C636 1.419 . S
C638 C639 1.362 . S
C639 H629 0.930 . S
C639 C632 1.409 . S
C639 C638 1.362 . S
C263 C6 1.198 . S
C268 C111 1.252 . S
C279 C18 1.225 . S
C284 C151 1.261 . S
C300 C185 2.437 . S
C295 C28 2.467 . S
C311 C40 2.099 . S
C316 C226 2.059 . S
C332 C146 1.527 . S
C327 C9 1.506 . S
C348 C106 2.001 . S
C343 C16 1.835 . S
C364 C234 1.637 . S
C359 C30 1.662 . S
C380 C195 1.513 . S
C375 C42 1.572 . S
C391 C4 1.457 . S
C396 C231 1.430 . S
C412 C154 2.237 . S
C407 C33 2.273 . S
C423 C45 2.118 . S
C428 C114 2.088 . S
C439 C21 1.605 . S
C444 C182 1.694 . S
C460 C102 1.308 . S
C455 C57 1.284 . S
C471 C66 1.276 . S
C476 C142 1.281 . S
C487 C76 2.507 . S
C492 C194 2.509 . S
C503 C88 1.997 . S
C508 C235 1.973 . S
C519 C54 1.456 . S
C524 C155 1.556 . S
C540 C115 2.092 . S
C535 C64 2.020 . S
C556 C225 1.573 . S
C551 C78 1.578 . S
C572 C186 1.552 . S
C567 C93 1.614 . S
C583 C52 1.549 . S
C588 C222 1.546 . S
C604 C145 2.177 . S
C599 C81 2.249 . S
C620 C105 2.014 . S
C615 C90 2.087 . S
C631 C69 1.603 . S
C636 C191 1.697 . S
