# Generated by pormake.
# Topology eea, (3,6)-cn, num edge types: 1
# Building blocks:
#     Node 0, Type 0, BuildingBlock: BELTOD_clean_linker_0, # of connection points: 3
#     Node 1, Type 0, BuildingBlock: BELTOD_clean_linker_0, # of connection points: 3
#     Node 2, Type 0, BuildingBlock: BELTOD_clean_linker_0, # of connection points: 3
#     Node 3, Type 0, BuildingBlock: BELTOD_clean_linker_0, # of connection points: 3
#     Node 4, Type 0, BuildingBlock: BELTOD_clean_linker_0, # of connection points: 3
#     Node 5, Type 0, BuildingBlock: BELTOD_clean_linker_0, # of connection points: 3
#     Node 6, Type 0, BuildingBlock: BELTOD_clean_linker_0, # of connection points: 3
#     Node 7, Type 0, BuildingBlock: BELTOD_clean_linker_0, # of connection points: 3
#     Node 8, Type 0, BuildingBlock: BELTOD_clean_linker_0, # of connection points: 3
#     Node 9, Type 0, BuildingBlock: BELTOD_clean_linker_0, # of connection points: 3
#     Node 10, Type 0, BuildingBlock: BELTOD_clean_linker_0, # of connection points: 3
#     Node 11, Type 0, BuildingBlock: BELTOD_clean_linker_0, # of connection points: 3
#     Node 12, Type 0, BuildingBlock: BELTOD_clean_linker_0, # of connection points: 3
#     Node 13, Type 0, BuildingBlock: BELTOD_clean_linker_0, # of connection points: 3
#     Node 14, Type 0, BuildingBlock: BELTOD_clean_linker_0, # of connection points: 3
#     Node 15, Type 0, BuildingBlock: BELTOD_clean_linker_0, # of connection points: 3
#     Node 16, Type 0, BuildingBlock: BELTOD_clean_linker_0, # of connection points: 3
#     Node 17, Type 0, BuildingBlock: BELTOD_clean_linker_0, # of connection points: 3
#     Node 18, Type 1, BuildingBlock: HISSIN_clean_sbu_0, # of connection points: 6
#     Node 19, Type 1, BuildingBlock: HISSIN_clean_sbu_0, # of connection points: 6
#     Node 20, Type 1, BuildingBlock: HISSIN_clean_sbu_0, # of connection points: 6
#     Node 21, Type 1, BuildingBlock: HISSIN_clean_sbu_0, # of connection points: 6
#     Node 22, Type 1, BuildingBlock: HISSIN_clean_sbu_0, # of connection points: 6
#     Node 23, Type 1, BuildingBlock: HISSIN_clean_sbu_0, # of connection points: 6
#     Node 24, Type 1, BuildingBlock: HISSIN_clean_sbu_0, # of connection points: 6
#     Node 25, Type 1, BuildingBlock: HISSIN_clean_sbu_0, # of connection points: 6
#     Node 26, Type 1, BuildingBlock: HISSIN_clean_sbu_0, # of connection points: 6
#     Edge 27, Type (0, 1), BuildingBlock: XIVTED_clean_linker_0, # of connection points: 2
#     Edge 28, Type (0, 1), BuildingBlock: XIVTED_clean_linker_0, # of connection points: 2
#     Edge 29, Type (0, 1), BuildingBlock: XIVTED_clean_linker_0, # of connection points: 2
#     Edge 30, Type (0, 1), BuildingBlock: XIVTED_clean_linker_0, # of connection points: 2
#     Edge 31, Type (0, 1), BuildingBlock: XIVTED_clean_linker_0, # of connection points: 2
#     Edge 32, Type (0, 1), BuildingBlock: XIVTED_clean_linker_0, # of connection points: 2
#     Edge 33, Type (0, 1), BuildingBlock: XIVTED_clean_linker_0, # of connection points: 2
#     Edge 34, Type (0, 1), BuildingBlock: XIVTED_clean_linker_0, # of connection points: 2
#     Edge 35, Type (0, 1), BuildingBlock: XIVTED_clean_linker_0, # of connection points: 2
#     Edge 36, Type (0, 1), BuildingBlock: XIVTED_clean_linker_0, # of connection points: 2
#     Edge 37, Type (0, 1), BuildingBlock: XIVTED_clean_linker_0, # of connection points: 2
#     Edge 38, Type (0, 1), BuildingBlock: XIVTED_clean_linker_0, # of connection points: 2
#     Edge 39, Type (0, 1), BuildingBlock: XIVTED_clean_linker_0, # of connection points: 2
#     Edge 40, Type (0, 1), BuildingBlock: XIVTED_clean_linker_0, # of connection points: 2
#     Edge 41, Type (0, 1), BuildingBlock: XIVTED_clean_linker_0, # of connection points: 2
#     Edge 42, Type (0, 1), BuildingBlock: XIVTED_clean_linker_0, # of connection points: 2
#     Edge 43, Type (0, 1), BuildingBlock: XIVTED_clean_linker_0, # of connection points: 2
#     Edge 44, Type (0, 1), BuildingBlock: XIVTED_clean_linker_0, # of connection points: 2
#     Edge 45, Type (0, 1), BuildingBlock: XIVTED_clean_linker_0, # of connection points: 2
#     Edge 46, Type (0, 1), BuildingBlock: XIVTED_clean_linker_0, # of connection points: 2
#     Edge 47, Type (0, 1), BuildingBlock: XIVTED_clean_linker_0, # of connection points: 2
#     Edge 48, Type (0, 1), BuildingBlock: XIVTED_clean_linker_0, # of connection points: 2
#     Edge 49, Type (0, 1), BuildingBlock: XIVTED_clean_linker_0, # of connection points: 2
#     Edge 50, Type (0, 1), BuildingBlock: XIVTED_clean_linker_0, # of connection points: 2
#     Edge 51, Type (0, 1), BuildingBlock: XIVTED_clean_linker_0, # of connection points: 2
#     Edge 52, Type (0, 1), BuildingBlock: XIVTED_clean_linker_0, # of connection points: 2
#     Edge 53, Type (0, 1), BuildingBlock: XIVTED_clean_linker_0, # of connection points: 2
#     Edge 54, Type (0, 1), BuildingBlock: XIVTED_clean_linker_0, # of connection points: 2
#     Edge 55, Type (0, 1), BuildingBlock: XIVTED_clean_linker_0, # of connection points: 2
#     Edge 56, Type (0, 1), BuildingBlock: XIVTED_clean_linker_0, # of connection points: 2
#     Edge 57, Type (0, 1), BuildingBlock: XIVTED_clean_linker_0, # of connection points: 2
#     Edge 58, Type (0, 1), BuildingBlock: XIVTED_clean_linker_0, # of connection points: 2
#     Edge 59, Type (0, 1), BuildingBlock: XIVTED_clean_linker_0, # of connection points: 2
#     Edge 60, Type (0, 1), BuildingBlock: XIVTED_clean_linker_0, # of connection points: 2
#     Edge 61, Type (0, 1), BuildingBlock: XIVTED_clean_linker_0, # of connection points: 2
#     Edge 62, Type (0, 1), BuildingBlock: XIVTED_clean_linker_0, # of connection points: 2
#     Edge 63, Type (0, 1), BuildingBlock: XIVTED_clean_linker_0, # of connection points: 2
#     Edge 64, Type (0, 1), BuildingBlock: XIVTED_clean_linker_0, # of connection points: 2
#     Edge 65, Type (0, 1), BuildingBlock: XIVTED_clean_linker_0, # of connection points: 2
#     Edge 66, Type (0, 1), BuildingBlock: XIVTED_clean_linker_0, # of connection points: 2
#     Edge 67, Type (0, 1), BuildingBlock: XIVTED_clean_linker_0, # of connection points: 2
#     Edge 68, Type (0, 1), BuildingBlock: XIVTED_clean_linker_0, # of connection points: 2
#     Edge 69, Type (0, 1), BuildingBlock: XIVTED_clean_linker_0, # of connection points: 2
#     Edge 70, Type (0, 1), BuildingBlock: XIVTED_clean_linker_0, # of connection points: 2
#     Edge 71, Type (0, 1), BuildingBlock: XIVTED_clean_linker_0, # of connection points: 2
#     Edge 72, Type (0, 1), BuildingBlock: XIVTED_clean_linker_0, # of connection points: 2
#     Edge 73, Type (0, 1), BuildingBlock: XIVTED_clean_linker_0, # of connection points: 2
#     Edge 74, Type (0, 1), BuildingBlock: XIVTED_clean_linker_0, # of connection points: 2
#     Edge 75, Type (0, 1), BuildingBlock: XIVTED_clean_linker_0, # of connection points: 2
#     Edge 76, Type (0, 1), BuildingBlock: XIVTED_clean_linker_0, # of connection points: 2
#     Edge 77, Type (0, 1), BuildingBlock: XIVTED_clean_linker_0, # of connection points: 2
#     Edge 78, Type (0, 1), BuildingBlock: XIVTED_clean_linker_0, # of connection points: 2
#     Edge 79, Type (0, 1), BuildingBlock: XIVTED_clean_linker_0, # of connection points: 2
#     Edge 80, Type (0, 1), BuildingBlock: XIVTED_clean_linker_0, # of connection points: 2
# Relax obj value: 0.032
# Max RMSD: 0.129
# Mean RMSD: 0.080
data_MOF--net-eea--node1-HISSIN_clean_sbu_0--node2-BELTOD_clean_linker_0--edge1-XIVTED_clean_linker_0
_symmetry_space_group_name_H-M    P1
_symmetry_Int_Tables_number       1
_symmetry_cell_setting            triclinic
loop_
_symmetry_equiv_pos_as_xyz
'x, y, z'
_cell_length_a     58.689245
_cell_length_b     58.599007
_cell_length_c     84.577284
_cell_angle_alpha  93.86623
_cell_angle_beta   93.45898
_cell_angle_gamma 119.86081
loop_
_atom_site_label
_atom_site_type_symbol
_atom_site_fract_x
_atom_site_fract_y
_atom_site_fract_z
_atom_type_partial_charge
P0 P 0.33454 0.16787 0.40253 0.0
H1 H 0.33382 0.13589 0.37422 0.0
H2 H 0.30734 0.08847 0.36514 0.0
H3 H 0.26682 0.07613 0.40753 0.0
H4 H 0.29372 0.12321 0.41664 0.0
H5 H 0.35153 0.21944 0.3912 0.0
H6 H 0.3271 0.24024 0.38116 0.0
H7 H 0.25354 0.17018 0.38736 0.0
H8 H 0.27799 0.14952 0.39717 0.0
H9 H 0.36062 0.15174 0.42573 0.0
H10 H 0.31819 0.19432 0.4265 0.0
O11 O 0.36407 0.181 0.39568 0.0
H12 H 0.36409 0.15468 0.45486 0.0
H13 H 0.32134 0.19707 0.45552 0.0
C14 C 0.31615 0.1329 0.39626 0.0
C15 C 0.31946 0.12285 0.38163 0.0
C16 C 0.30413 0.09581 0.37639 0.0
C17 C 0.28505 0.07847 0.38566 0.0
C18 C 0.28171 0.08879 0.40026 0.0
C19 C 0.29708 0.11575 0.40549 0.0
C20 C 0.31656 0.18274 0.39458 0.0
C21 C 0.33014 0.20849 0.39022 0.0
C22 C 0.31616 0.22041 0.38461 0.0
C23 C 0.28837 0.20677 0.38337 0.0
C24 C 0.2749 0.181 0.38787 0.0
C25 C 0.28889 0.16917 0.39352 0.0
C26 C 0.33923 0.17284 0.42396 0.0
C27 C 0.35228 0.16193 0.43218 0.0
C28 C 0.35404 0.16342 0.4488 0.0
C29 C 0.34286 0.17598 0.45748 0.0
C30 C 0.33035 0.18747 0.44918 0.0
C31 C 0.32848 0.18584 0.43255 0.0
P32 P 0.91523 0.10687 0.44038 0.0
H33 H 0.90715 0.06487 0.41653 0.0
H34 H 0.86876 0.03182 0.39869 0.0
H35 H 0.82255 0.06473 0.41666 0.0
H36 H 0.86097 0.09742 0.4347 0.0
H37 H 0.97133 0.14458 0.44702 0.0
H38 H 0.00325 0.17774 0.43179 0.0
H39 H 0.94014 0.16145 0.39565 0.0
H40 H 0.90835 0.12789 0.41088 0.0
H41 H 0.90458 0.08892 0.47169 0.0
H42 H 0.90372 0.14996 0.44635 0.0
O43 O 0.93097 0.09151 0.44674 0.0
H44 H 0.89017 0.10338 0.49481 0.0
H45 H 0.88914 0.16463 0.46959 0.0
C46 C 0.88673 0.08315 0.42717 0.0
C47 C 0.88872 0.06489 0.41666 0.0
C48 C 0.86682 0.04619 0.40635 0.0
C49 C 0.84255 0.04559 0.40629 0.0
C50 C 0.84084 0.06441 0.4166 0.0
C51 C 0.86282 0.08314 0.42692 0.0
C52 C 0.93763 0.13349 0.42994 0.0
C53 C 0.96436 0.14832 0.43588 0.0
C54 C 0.98256 0.16739 0.42719 0.0
C55 C 0.97428 0.17213 0.41242 0.0
C56 C 0.94721 0.15794 0.40683 0.0
C57 C 0.929 0.13883 0.41557 0.0
C58 C 0.90575 0.11875 0.45747 0.0
C59 C 0.90159 0.10568 0.47118 0.0
C60 C 0.89338 0.11398 0.4844 0.0
C61 C 0.88879 0.13532 0.48406 0.0
C62 C 0.89253 0.14814 0.47017 0.0
C63 C 0.90103 0.13992 0.45696 0.0
P64 P 0.85384 0.72545 0.41652 0.0
H65 H 0.82399 0.7164 0.38578 0.0
H66 H 0.79913 0.73579 0.37461 0.0
H67 H 0.82136 0.7888 0.41804 0.0
H68 H 0.84592 0.76881 0.42925 0.0
H69 H 0.89041 0.70616 0.41246 0.0
H70 H 0.93413 0.72548 0.40315 0.0
H71 H 0.93446 0.79877 0.39913 0.0
H72 H 0.89049 0.77915 0.40837 0.0
H73 H 0.81137 0.71314 0.43648 0.0
H74 H 0.89298 0.73333 0.44306 0.0
O75 O 0.83826 0.69403 0.40829 0.0
H76 H 0.80699 0.70477 0.46435 0.0
H77 H 0.8888 0.72515 0.47097 0.0
C78 C 0.83627 0.74075 0.40846 0.0
C79 C 0.82344 0.73213 0.39293 0.0
C80 C 0.80942 0.74343 0.3865 0.0
C81 C 0.80815 0.76384 0.39543 0.0
C82 C 0.82156 0.77284 0.41093 0.0
C83 C 0.83566 0.76149 0.41734 0.0
C84 C 0.88705 0.74106 0.41091 0.0
C85 C 0.89994 0.72644 0.40965 0.0
C86 C 0.92504 0.73758 0.40441 0.0
C87 C 0.93779 0.76367 0.40031 0.0
C88 C 0.92503 0.77852 0.40197 0.0
C89 C 0.89993 0.76735 0.40732 0.0
C90 C 0.8526 0.72432 0.43772 0.0
C91 C 0.82855 0.71644 0.44403 0.0
C92 C 0.82607 0.71165 0.45999 0.0
C93 C 0.84754 0.71425 0.46991 0.0
C94 C 0.87181 0.72271 0.46362 0.0
C95 C 0.87429 0.72763 0.44766 0.0
P96 P 0.1221 0.28301 0.59222 0.0
H97 H 0.09868 0.24886 0.61715 0.0
H98 H 0.05493 0.22902 0.62632 0.0
H99 H 0.02819 0.25721 0.58747 0.0
H100 H 0.07196 0.27635 0.57808 0.0
H101 H 0.1755 0.30616 0.60819 0.0
H102 H 0.20221 0.28725 0.61707 0.0
H103 H 0.13949 0.20934 0.59743 0.0
H104 H 0.11263 0.2285 0.5886 0.0
H105 H 0.13252 0.32918 0.576 0.0
H106 H 0.1172 0.24999 0.56292 0.0
O107 O 0.13448 0.31216 0.60328 0.0
H108 H 0.14018 0.33916 0.54866 0.0
H109 H 0.12531 0.26002 0.53546 0.0
C110 C 0.08845 0.2635 0.59667 0.0
C111 C 0.0832 0.25005 0.61028 0.0
C112 C 0.05821 0.23903 0.61567 0.0
C113 C 0.03802 0.24168 0.60773 0.0
C114 C 0.04312 0.25448 0.59377 0.0
C115 C 0.06817 0.26543 0.58836 0.0
C116 C 0.14188 0.26867 0.59801 0.0
C117 C 0.16739 0.285 0.60582 0.0
C118 C 0.18266 0.27416 0.61091 0.0
C119 C 0.17284 0.24677 0.6081 0.0
C120 C 0.1476 0.23052 0.59973 0.0
C121 C 0.13221 0.24141 0.59474 0.0
C122 C 0.12478 0.28899 0.57159 0.0
C123 C 0.13077 0.31388 0.56724 0.0
C124 C 0.13529 0.31964 0.55159 0.0
C125 C 0.1338 0.30055 0.53991 0.0
C126 C 0.1266 0.27517 0.54415 0.0
C127 C 0.1221 0.26944 0.55987 0.0
P128 P 0.80648 0.89707 0.57543 0.0
H129 H 0.84602 0.94754 0.59293 0.0
H130 H 0.84299 0.98295 0.60773 0.0
H131 H 0.75808 0.93899 0.59658 0.0
H132 H 0.76132 0.90369 0.58161 0.0
H133 H 0.79489 0.84306 0.56769 0.0
H134 H 0.7895 0.80839 0.58413 0.0
H135 H 0.79648 0.85847 0.62626 0.0
H136 H 0.8024 0.89324 0.60977 0.0
H137 H 0.81584 0.91095 0.54314 0.0
H138 H 0.75007 0.85825 0.56743 0.0
O139 O 0.83755 0.90874 0.57126 0.0
H140 H 0.78716 0.89584 0.51803 0.0
H141 H 0.72109 0.84303 0.54225 0.0
C142 C 0.80396 0.92329 0.58589 0.0
C143 C 0.82677 0.9456 0.59355 0.0
C144 C 0.82498 0.96571 0.60214 0.0
C145 C 0.80028 0.96375 0.60331 0.0
C146 C 0.7774 0.94121 0.5957 0.0
C147 C 0.77923 0.92104 0.58715 0.0
C148 C 0.79868 0.87054 0.58746 0.0
C149 C 0.79476 0.84636 0.58043 0.0
C150 C 0.79158 0.82653 0.58985 0.0
C151 C 0.79252 0.83066 0.60651 0.0
C152 C 0.79588 0.85477 0.61348 0.0
C153 C 0.79906 0.8746 0.60403 0.0
C154 C 0.78514 0.88536 0.55704 0.0
C155 C 0.79526 0.89595 0.54304 0.0
C156 C 0.77886 0.88726 0.5287 0.0
C157 C 0.75197 0.86807 0.52818 0.0
C158 C 0.74174 0.85785 0.54232 0.0
C159 C 0.75827 0.86642 0.55667 0.0
P160 P 0.1342 0.82764 0.60075 0.0
H161 H 0.16144 0.85974 0.63105 0.0
H162 H 0.18324 0.90744 0.63934 0.0
H163 H 0.15983 0.9195 0.59267 0.0
H164 H 0.13778 0.87186 0.58454 0.0
H165 H 0.10743 0.78379 0.61993 0.0
H166 H 0.06356 0.76244 0.62906 0.0
H167 H 0.04432 0.81297 0.60334 0.0
H168 H 0.08838 0.83415 0.5941 0.0
H169 H 0.17799 0.8508 0.58178 0.0
H170 H 0.09428 0.79495 0.57338 0.0
O171 O 0.15227 0.81668 0.60993 0.0
H172 H 0.18122 0.84826 0.55313 0.0
H173 H 0.09739 0.79236 0.5446 0.0
C174 C 0.14868 0.86241 0.60707 0.0
C175 C 0.16095 0.87266 0.62264 0.0
C176 C 0.17327 0.89986 0.62737 0.0
C177 C 0.17349 0.91717 0.61656 0.0
C178 C 0.16037 0.90666 0.60114 0.0
C179 C 0.14778 0.87945 0.59649 0.0
C180 C 0.10114 0.8106 0.60639 0.0
C181 C 0.09376 0.7902 0.61617 0.0
C182 C 0.06871 0.77812 0.62147 0.0
C183 C 0.05053 0.78617 0.61703 0.0
C184 C 0.05781 0.80622 0.60688 0.0
C185 C 0.08298 0.8184 0.60165 0.0
C186 C 0.13588 0.82337 0.57967 0.0
C187 C 0.16032 0.83791 0.57375 0.0
C188 C 0.16211 0.83657 0.55738 0.0
C189 C 0.13949 0.82036 0.54663 0.0
C190 C 0.11513 0.80501 0.55263 0.0
C191 C 0.11332 0.80656 0.56906 0.0
P192 P 0.99816 0.50902 0.73631 0.0
H193 H 0.99588 0.47508 0.70848 0.0
H194 H 0.96731 0.42772 0.69987 0.0
H195 H 0.92602 0.41939 0.74166 0.0
H196 H 0.95495 0.46651 0.7503 0.0
H197 H 0.00341 0.54338 0.71149 0.0
H198 H 0.97617 0.56154 0.70209 0.0
H199 H 0.92303 0.52402 0.73745 0.0
H200 H 0.9507 0.50646 0.74698 0.0
H201 H 0.01375 0.48163 0.75804 0.0
H202 H 0.0018 0.54864 0.7613 0.0
O203 O 0.02611 0.52133 0.72765 0.0
H204 H 0.02188 0.48611 0.78702 0.0
H205 H 0.01028 0.5535 0.79034 0.0
C206 C 0.97787 0.47412 0.73018 0.0
C207 C 0.98083 0.46297 0.71584 0.0
C208 C 0.96433 0.43596 0.71087 0.0
C209 C 0.94446 0.41977 0.72013 0.0
C210 C 0.94142 0.4312 0.7344 0.0
C211 C 0.95789 0.45816 0.73933 0.0
C212 C 0.97925 0.52392 0.73007 0.0
C213 C 0.98606 0.53932 0.71732 0.0
C214 C 0.97033 0.54947 0.71186 0.0
C215 C 0.94742 0.54422 0.71902 0.0
C216 C 0.94073 0.52876 0.73183 0.0
C217 C 0.95647 0.51862 0.73725 0.0
C218 C 0.00637 0.51426 0.75757 0.0
C219 C 0.01298 0.49739 0.76501 0.0
C220 C 0.01783 0.50011 0.78158 0.0
C221 C 0.01646 0.52001 0.791 0.0
C222 C 0.01093 0.53763 0.78343 0.0
C223 C 0.00611 0.53488 0.76682 0.0
P224 P 0.58127 0.44084 0.7739 0.0
H225 H 0.5727 0.39745 0.75095 0.0
H226 H 0.53306 0.36057 0.73582 0.0
H227 H 0.48518 0.3884 0.75738 0.0
H228 H 0.52493 0.42538 0.7724 0.0
H229 H 0.62875 0.49242 0.78112 0.0
H230 H 0.65805 0.52472 0.76431 0.0
H231 H 0.60489 0.47709 0.72254 0.0
H232 H 0.57581 0.44489 0.73937 0.0
H233 H 0.57499 0.42603 0.80613 0.0
H234 H 0.56876 0.48331 0.77959 0.0
O235 O 0.60032 0.4288 0.78006 0.0
H236 H 0.56268 0.44199 0.82964 0.0
H237 H 0.55665 0.49974 0.80323 0.0
C238 C 0.55173 0.41392 0.76294 0.0
C239 C 0.55366 0.39557 0.75244 0.0
C240 C 0.53104 0.37464 0.74373 0.0
C241 C 0.50604 0.37161 0.74546 0.0
C242 C 0.50417 0.39012 0.75595 0.0
C243 C 0.5269 0.41127 0.76452 0.0
C244 C 0.60007 0.4663 0.76155 0.0
C245 C 0.62319 0.48919 0.76837 0.0
C246 C 0.63989 0.50765 0.75874 0.0
C247 C 0.63385 0.50341 0.74207 0.0
C248 C 0.61026 0.48076 0.73532 0.0
C249 C 0.59351 0.46237 0.74498 0.0
C250 C 0.57337 0.4539 0.79126 0.0
C251 C 0.57133 0.44233 0.80544 0.0
C252 C 0.56435 0.45154 0.8189 0.0
C253 C 0.55897 0.47236 0.81838 0.0
C254 C 0.56063 0.48366 0.80402 0.0
C255 C 0.56776 0.47446 0.79055 0.0
P256 P 0.52079 0.05079 0.74855 0.0
H257 H 0.5 0.05113 0.71662 0.0
H258 H 0.47434 0.07022 0.70604 0.0
H259 H 0.47767 0.10481 0.75349 0.0
H260 H 0.50359 0.08575 0.76399 0.0
H261 H 0.55876 0.03331 0.74438 0.0
H262 H 0.60275 0.05426 0.73538 0.0
H263 H 0.60107 0.12683 0.73285 0.0
H264 H 0.55682 0.10555 0.74176 0.0
H265 H 0.47625 0.03151 0.76743 0.0
H266 H 0.55966 0.05931 0.77555 0.0
O267 O 0.506 0.0203 0.73892 0.0
H268 H 0.4711 0.02056 0.79484 0.0
H269 H 0.55462 0.04827 0.80298 0.0
C270 C 0.50313 0.06646 0.74112 0.0
C271 C 0.49525 0.06286 0.72474 0.0
C272 C 0.48072 0.07393 0.7187 0.0
C273 C 0.47377 0.08887 0.72894 0.0
C274 C 0.48234 0.09304 0.74533 0.0
C275 C 0.49715 0.08215 0.75135 0.0
C276 C 0.55438 0.06773 0.74355 0.0
C277 C 0.56793 0.05379 0.742 0.0
C278 C 0.59318 0.06587 0.73692 0.0
C279 C 0.60544 0.09223 0.73329 0.0
C280 C 0.59204 0.1064 0.73531 0.0
C281 C 0.56678 0.09429 0.74048 0.0
C282 C 0.51841 0.04673 0.76949 0.0
C283 C 0.49358 0.0358 0.77522 0.0
C284 C 0.49065 0.02951 0.7909 0.0
C285 C 0.51246 0.03356 0.80113 0.0
C286 C 0.5374 0.04474 0.79538 0.0
C287 C 0.54034 0.05126 0.77971 0.0
P288 P 0.78872 0.61283 0.92818 0.0
H289 H 0.76676 0.58012 0.95387 0.0
H290 H 0.72312 0.55917 0.96319 0.0
H291 H 0.69416 0.5848 0.92395 0.0
H292 H 0.73782 0.6049 0.91437 0.0
H293 H 0.84445 0.63517 0.93901 0.0
H294 H 0.87129 0.61545 0.94597 0.0
H295 H 0.8032 0.53736 0.9332 0.0
H296 H 0.77636 0.55737 0.92632 0.0
H297 H 0.80371 0.66087 0.91287 0.0
H298 H 0.77697 0.57875 0.89824 0.0
O299 O 0.80223 0.6417 0.93968 0.0
H300 H 0.80934 0.67057 0.88534 0.0
H301 H 0.78295 0.58842 0.87052 0.0
C302 C 0.7554 0.59345 0.93318 0.0
C303 C 0.75084 0.58056 0.94699 0.0
C304 C 0.72591 0.5689 0.95245 0.0
C305 C 0.70509 0.57043 0.9444 0.0
C306 C 0.70959 0.58289 0.93033 0.0
C307 C 0.73458 0.59443 0.92482 0.0
C308 C 0.80828 0.59772 0.93258 0.0
C309 C 0.83527 0.6138 0.93772 0.0
C310 C 0.85066 0.60249 0.94157 0.0
C311 C 0.83935 0.57481 0.94024 0.0
C312 C 0.81239 0.55873 0.9346 0.0
C313 C 0.79705 0.57013 0.93066 0.0
C314 C 0.79022 0.61913 0.90762 0.0
C315 C 0.79896 0.64486 0.90372 0.0
C316 C 0.80232 0.65044 0.88796 0.0
C317 C 0.79694 0.63035 0.87575 0.0
C318 C 0.78719 0.60432 0.87963 0.0
C319 C 0.78387 0.59878 0.89546 0.0
P320 P 0.4494 0.21493 0.90951 0.0
H321 H 0.48898 0.25943 0.93152 0.0
H322 H 0.48712 0.29319 0.94901 0.0
H323 H 0.40312 0.25576 0.93497 0.0
H324 H 0.4053 0.22231 0.91726 0.0
H325 H 0.46321 0.17468 0.90203 0.0
H326 H 0.4597 0.13805 0.91589 0.0
H327 H 0.42157 0.15699 0.95254 0.0
H328 H 0.42553 0.19389 0.93869 0.0
H329 H 0.44824 0.24037 0.88158 0.0
H330 H 0.39692 0.16759 0.90069 0.0
O331 O 0.47927 0.22918 0.90307 0.0
H332 H 0.41555 0.22769 0.85858 0.0
H333 H 0.36382 0.15484 0.87775 0.0
C334 C 0.44745 0.23889 0.92282 0.0
C335 C 0.4702 0.25854 0.9322 0.0
C336 C 0.46902 0.27765 0.94232 0.0
C337 C 0.44497 0.27721 0.94331 0.0
C338 C 0.422 0.25687 0.93426 0.0
C339 C 0.42323 0.23776 0.92414 0.0
C340 C 0.44517 0.18727 0.91951 0.0
C341 C 0.45406 0.17089 0.91303 0.0
C342 C 0.4518 0.14982 0.9209 0.0
C343 C 0.44041 0.14468 0.93535 0.0
C344 C 0.43077 0.1607 0.94156 0.0
C345 C 0.43301 0.18178 0.93363 0.0
C346 C 0.42521 0.20466 0.89259 0.0
C347 C 0.42992 0.2216 0.88077 0.0
C348 C 0.41109 0.21445 0.86773 0.0
C349 C 0.38707 0.19026 0.86637 0.0
C350 C 0.38227 0.17344 0.87839 0.0
C351 C 0.40117 0.18069 0.89148 0.0
P352 P 0.80322 0.16451 0.93282 0.0
H353 H 0.80527 0.19546 0.96187 0.0
H354 H 0.82851 0.24292 0.97047 0.0
H355 H 0.86264 0.25816 0.92574 0.0
H356 H 0.83851 0.21091 0.91701 0.0
H357 H 0.76838 0.11105 0.94044 0.0
H358 H 0.72343 0.08871 0.94809 0.0
H359 H 0.71929 0.15962 0.94366 0.0
H360 H 0.7643 0.18182 0.93592 0.0
H361 H 0.84046 0.15849 0.91431 0.0
H362 H 0.76725 0.15816 0.90507 0.0
O363 O 0.8198 0.15255 0.94261 0.0
H364 H 0.84382 0.15489 0.88578 0.0
H365 H 0.76986 0.15353 0.87641 0.0
C366 C 0.8197 0.19962 0.9387 0.0
C367 C 0.81747 0.20907 0.95384 0.0
C368 C 0.831 0.23623 0.95879 0.0
C369 C 0.84749 0.25444 0.94879 0.0
C370 C 0.84974 0.2448 0.93363 0.0
C371 C 0.83601 0.21765 0.92865 0.0
C372 C 0.76986 0.14825 0.93803 0.0
C373 C 0.75781 0.12179 0.94114 0.0
C374 C 0.73207 0.10901 0.94541 0.0
C375 C 0.71791 0.1225 0.94658 0.0
C376 C 0.72989 0.14889 0.94311 0.0
C377 C 0.75558 0.16158 0.9387 0.0
C378 C 0.80336 0.15806 0.91177 0.0
C379 C 0.82475 0.15695 0.9061 0.0
C380 C 0.8266 0.15483 0.88975 0.0
C381 C 0.80705 0.15381 0.87874 0.0
C382 C 0.7854 0.15455 0.88453 0.0
C383 C 0.78371 0.15688 0.90092 0.0
P384 P 0.66643 0.83413 0.06482 0.0
H385 H 0.66484 0.80141 0.03664 0.0
H386 H 0.6381 0.75386 0.02801 0.0
H387 H 0.5994 0.74269 0.07108 0.0
H388 H 0.62657 0.78991 0.07974 0.0
H389 H 0.68299 0.88653 0.05498 0.0
H390 H 0.65824 0.90716 0.0452 0.0
H391 H 0.58495 0.83476 0.0483 0.0
H392 H 0.60972 0.81429 0.05784 0.0
H393 H 0.69643 0.82247 0.08813 0.0
H394 H 0.64675 0.85734 0.08861 0.0
O395 O 0.69575 0.84712 0.05772 0.0
H396 H 0.70021 0.82579 0.11728 0.0
H397 H 0.65023 0.86047 0.11764 0.0
C398 C 0.64812 0.79903 0.05898 0.0
C399 C 0.65086 0.7886 0.0443 0.0
C400 C 0.63537 0.76147 0.03932 0.0
C401 C 0.61668 0.74443 0.04889 0.0
C402 C 0.61397 0.75512 0.06357 0.0
C403 C 0.62951 0.78216 0.06854 0.0
C404 C 0.64823 0.84872 0.05678 0.0
C405 C 0.66161 0.87504 0.05336 0.0
C406 C 0.64743 0.88685 0.0479 0.0
C407 C 0.61962 0.87252 0.04589 0.0
C408 C 0.60634 0.84615 0.04942 0.0
C409 C 0.62053 0.83443 0.0549 0.0
C410 C 0.67154 0.83985 0.08622 0.0
C411 C 0.68663 0.83115 0.09453 0.0
C412 C 0.68857 0.83284 0.11115 0.0
C413 C 0.67544 0.84331 0.11975 0.0
C414 C 0.66082 0.85259 0.11137 0.0
C415 C 0.65878 0.85075 0.09473 0.0
P416 P 0.24942 0.77952 0.10832 0.0
H417 H 0.2429 0.73569 0.0867 0.0
H418 H 0.20521 0.70021 0.06955 0.0
H419 H 0.15636 0.73181 0.08469 0.0
H420 H 0.19423 0.76707 0.10209 0.0
H421 H 0.30441 0.82093 0.11429 0.0
H422 H 0.3348 0.8527 0.09777 0.0
H423 H 0.27069 0.82671 0.06036 0.0
H424 H 0.24047 0.79459 0.07692 0.0
H425 H 0.23708 0.76231 0.1396 0.0
H426 H 0.23929 0.82381 0.11334 0.0
O427 O 0.26691 0.76645 0.11558 0.0
H428 H 0.22403 0.77884 0.16251 0.0
H429 H 0.22631 0.84073 0.13641 0.0
C430 C 0.22118 0.75359 0.0959 0.0
C431 C 0.22403 0.73487 0.08639 0.0
C432 C 0.20251 0.71476 0.07647 0.0
C433 C 0.17774 0.71315 0.07576 0.0
C434 C 0.17507 0.73228 0.08515 0.0
C435 C 0.1967 0.75245 0.09509 0.0
C436 C 0.27036 0.80516 0.09674 0.0
C437 C 0.29686 0.82226 0.10259 0.0
C438 C 0.31418 0.84053 0.09314 0.0
C439 C 0.30522 0.84215 0.07766 0.0
C440 C 0.2783 0.82565 0.0721 0.0
C441 C 0.26098 0.80736 0.0816 0.0
C442 C 0.23973 0.79222 0.12495 0.0
C443 C 0.23497 0.77956 0.13883 0.0
C444 C 0.22759 0.78909 0.15194 0.0
C445 C 0.22452 0.81134 0.15136 0.0
C446 C 0.22856 0.82357 0.13722 0.0
C447 C 0.23613 0.81405 0.12409 0.0
P448 P 0.18753 0.3829 0.08461 0.0
H449 H 0.17923 0.39586 0.05317 0.0
H450 H 0.15413 0.41516 0.04227 0.0
H451 H 0.1326 0.4248 0.08923 0.0
H452 H 0.15901 0.40679 0.10015 0.0
H453 H 0.2248 0.36441 0.08095 0.0
H454 H 0.26888 0.38454 0.07204 0.0
H455 H 0.26896 0.45795 0.06933 0.0
H456 H 0.22474 0.43758 0.07823 0.0
H457 H 0.14199 0.3541 0.10182 0.0
H458 H 0.22668 0.39944 0.11295 0.0
O459 O 0.17229 0.35287 0.07434 0.0
H460 H 0.13713 0.34313 0.12924 0.0
H461 H 0.22196 0.38837 0.14043 0.0
C462 C 0.1708 0.3996 0.07742 0.0
C463 C 0.16934 0.40242 0.06115 0.0
C464 C 0.15472 0.41324 0.05491 0.0
C465 C 0.14085 0.42116 0.06479 0.0
C466 C 0.14307 0.41906 0.08124 0.0
C467 C 0.15801 0.40848 0.08751 0.0
C468 C 0.22131 0.39932 0.07997 0.0
C469 C 0.2344 0.38491 0.07857 0.0
C470 C 0.25967 0.3965 0.07354 0.0
C471 C 0.27237 0.42281 0.06983 0.0
C472 C 0.25953 0.43752 0.07183 0.0
C473 C 0.23428 0.42592 0.07697 0.0
C474 C 0.18464 0.37772 0.10536 0.0
C475 C 0.15953 0.36199 0.11024 0.0
C476 C 0.15678 0.35577 0.12593 0.0
C477 C 0.17916 0.36486 0.13703 0.0
C478 C 0.20435 0.38088 0.13213 0.0
C479 C 0.20706 0.38734 0.11643 0.0
P480 P 0.45224 0.94961 0.25591 0.0
H481 H 0.43352 0.96128 0.28474 0.0
H482 H 0.39063 0.94121 0.29492 0.0
H483 H 0.35666 0.88435 0.25283 0.0
H484 H 0.39998 0.9051 0.2425 0.0
H485 H 0.49481 0.94558 0.24211 0.0
H486 H 0.5201 0.92477 0.24997 0.0
H487 H 0.47251 0.89462 0.28884 0.0
H488 H 0.44644 0.91437 0.28034 0.0
H489 H 0.45961 0.9948 0.23974 0.0
H490 H 0.44274 0.91521 0.22622 0.0
O491 O 0.47105 0.97942 0.26621 0.0
H492 H 0.46496 0.0043 0.21215 0.0
H493 H 0.44863 0.92475 0.19848 0.0
C494 C 0.41987 0.93498 0.26273 0.0
C495 C 0.41685 0.94467 0.27758 0.0
C496 C 0.39229 0.93295 0.2835 0.0
C497 C 0.37015 0.91105 0.27475 0.0
C498 C 0.37322 0.90135 0.2598 0.0
C499 C 0.39796 0.91315 0.25389 0.0
C500 C 0.46815 0.93086 0.2603 0.0
C501 C 0.48925 0.93379 0.25201 0.0
C502 C 0.50403 0.9222 0.25671 0.0
C503 C 0.49851 0.90804 0.27012 0.0
C504 C 0.4771 0.90492 0.27829 0.0
C505 C 0.46214 0.91629 0.27345 0.0
C506 C 0.45145 0.95452 0.23509 0.0
C507 C 0.4569 0.97928 0.2308 0.0
C508 C 0.46012 0.98475 0.21501 0.0
C509 C 0.45784 0.96549 0.20314 0.0
C510 C 0.45059 0.94006 0.20731 0.0
C511 C 0.44731 0.9346 0.22317 0.0
P512 P 0.12579 0.55295 0.24885 0.0
H513 H 0.15904 0.59447 0.27436 0.0
H514 H 0.15262 0.62635 0.29063 0.0
H515 H 0.07296 0.59145 0.26751 0.0
H516 H 0.07976 0.5598 0.25107 0.0
H517 H 0.13088 0.50761 0.23906 0.0
H518 H 0.12378 0.469 0.25205 0.0
H519 H 0.09374 0.49375 0.29106 0.0
H520 H 0.10142 0.53262 0.27812 0.0
H521 H 0.13862 0.58101 0.22079 0.0
H522 H 0.07323 0.51059 0.23479 0.0
O523 O 0.15796 0.56756 0.24669 0.0
H524 H 0.11442 0.57293 0.1946 0.0
H525 H 0.04892 0.50212 0.20846 0.0
C526 C 0.12016 0.57534 0.26124 0.0
C527 C 0.14021 0.5937 0.27279 0.0
C528 C 0.13638 0.6117 0.28221 0.0
C529 C 0.11229 0.61148 0.28031 0.0
C530 C 0.09186 0.59236 0.26908 0.0
C531 C 0.09573 0.57429 0.25967 0.0
C532 C 0.11694 0.52304 0.25769 0.0
C533 C 0.12247 0.50452 0.25032 0.0
C534 C 0.1182 0.48235 0.25771 0.0
C535 C 0.10826 0.47834 0.27263 0.0
C536 C 0.10174 0.49648 0.27968 0.0
C537 C 0.10605 0.51868 0.27225 0.0
C538 C 0.10795 0.54603 0.22952 0.0
C539 C 0.11916 0.56361 0.21813 0.0
C540 C 0.10532 0.55895 0.20317 0.0
C541 C 0.07988 0.53674 0.19942 0.0
C542 C 0.06845 0.51943 0.21103 0.0
C543 C 0.08241 0.52409 0.226 0.0
P544 P 0.47144 0.49855 0.26814 0.0
H545 H 0.47566 0.53026 0.29734 0.0
H546 H 0.49803 0.57794 0.30517 0.0
H547 H 0.52676 0.59195 0.25887 0.0
H548 H 0.50356 0.5445 0.25096 0.0
H549 H 0.43569 0.44486 0.27497 0.0
H550 H 0.3906 0.42287 0.28245 0.0
H551 H 0.38799 0.49477 0.27894 0.0
H552 H 0.43307 0.5166 0.27134 0.0
H553 H 0.50992 0.49299 0.25068 0.0
H554 H 0.43598 0.49058 0.23973 0.0
O555 O 0.48781 0.48703 0.2786 0.0
H556 H 0.51462 0.48943 0.22225 0.0
H557 H 0.44057 0.48703 0.21122 0.0
C558 C 0.48764 0.53377 0.27354 0.0
C559 C 0.48659 0.54365 0.28885 0.0
C560 C 0.49957 0.57092 0.29334 0.0
C561 C 0.51424 0.58884 0.28265 0.0
C562 C 0.51528 0.57878 0.26731 0.0
C563 C 0.50211 0.55151 0.2628 0.0
C564 C 0.4379 0.48249 0.27301 0.0
C565 C 0.4254 0.45587 0.27581 0.0
C566 C 0.3996 0.44331 0.27999 0.0
C567 C 0.38585 0.45719 0.2814 0.0
C568 C 0.39826 0.48373 0.2782 0.0
C569 C 0.42401 0.4962 0.27387 0.0
C570 C 0.47235 0.4915 0.24727 0.0
C571 C 0.49442 0.49112 0.24213 0.0
C572 C 0.49722 0.48936 0.2259 0.0
C573 C 0.47798 0.48801 0.21453 0.0
C574 C 0.45553 0.48772 0.21971 0.0
C575 C 0.45287 0.48971 0.23599 0.0
Eu576 Eu 0.48482 0.96865 0.98413 0.0
Eu577 Eu 0.50762 0.00964 0.01788 0.0
C578 C 0.47699 0.0185 0.98858 0.0
C579 C 0.47318 0.95032 0.9399 0.0
C580 C 0.48183 0.97689 0.93786 0.0
C581 C 0.47377 0.94134 0.91147 0.0
C582 C 0.48613 0.98557 0.92275 0.0
C583 C 0.46926 0.93261 0.92663 0.0
C584 C 0.48215 0.96792 0.90936 0.0
C585 C 0.46894 0.94149 0.95594 0.0
O586 O 0.47559 0.97048 0.02355 0.0
O587 O 0.45072 0.95425 0.9993 0.0
C588 C 0.45294 0.95515 0.01492 0.0
O589 O 0.49826 0.94865 0.00108 0.0
O590 O 0.49981 0.03127 0.03673 0.0
O591 O 0.53699 0.03186 0.03843 0.0
O592 O 0.52841 0.98609 0.01745 0.0
C593 C 0.51896 0.9612 0.01182 0.0
O594 O 0.52784 0.99793 0.98285 0.0
O595 O 0.53527 0.03332 0.0004 0.0
O596 O 0.47935 0.01847 0.00408 0.0
O597 O 0.49 0.94562 0.9647 0.0
O598 O 0.45437 0.94804 0.964 0.0
O599 O 0.48442 0.00541 0.97914 0.0
C600 C 0.51701 0.02993 0.06212 0.0
C601 C 0.50732 0.00351 0.065 0.0
C602 C 0.51477 0.0412 0.08993 0.0
C603 C 0.50128 0.99595 0.08023 0.0
C604 C 0.5208 0.04873 0.07468 0.0
C605 C 0.50475 0.01466 0.09289 0.0
C606 C 0.52122 0.03746 0.04584 0.0
C607 C 0.54204 0.02309 0.98852 0.0
H608 H 0.48537 0.99101 0.94798 0.0
H609 H 0.47036 0.92721 0.90139 0.0
H610 H 0.49298 0.00623 0.92161 0.0
H611 H 0.46273 0.91207 0.92797 0.0
H612 H 0.50409 0.98866 0.0554 0.0
H613 H 0.51734 0.05607 0.09931 0.0
H614 H 0.49393 0.97544 0.08209 0.0
H615 H 0.52794 0.06914 0.07263 0.0
Eu616 Eu 0.00842 0.50396 0.98451 0.0
Eu617 Eu 0.97598 0.49438 0.01613 0.0
C618 C 0.95757 0.4483 0.98712 0.0
C619 C 0.03278 0.51419 0.94276 0.0
C620 C 0.00794 0.50451 0.93419 0.0
C621 C 0.05357 0.52676 0.91844 0.0
C622 C 0.00593 0.50583 0.91774 0.0
C623 C 0.05553 0.52538 0.93483 0.0
C624 C 0.02875 0.51689 0.90968 0.0
C625 C 0.03561 0.51315 0.95997 0.0
O626 O 0.01353 0.49477 0.02429 0.0
O627 O 0.02059 0.48116 0.99999 0.0
C628 C 0.02456 0.48428 0.01563 0.0
O629 O 0.03591 0.53605 0.00385 0.0
O630 O 0.95742 0.47019 0.03509 0.0
O631 O 0.95611 0.50615 0.03308 0.0
O632 O 0.00497 0.53811 0.01804 0.0
C633 C 0.02918 0.54874 0.01418 0.0
O634 O 0.982 0.52127 0.9807 0.0
O635 O 0.94982 0.49617 0.99625 0.0
O636 O 0.96155 0.45448 0.00263 0.0
O637 O 0.03468 0.53152 0.96902 0.0
O638 O 0.02259 0.48991 0.965 0.0
O639 O 0.96961 0.46621 0.9774 0.0
C640 C 0.96228 0.49569 0.0588 0.0
C641 C 0.98769 0.51751 0.06319 0.0
C642 C 0.95922 0.48601 0.08629 0.0
C643 C 0.99893 0.52335 0.07898 0.0
C644 C 0.94793 0.48024 0.07046 0.0
C645 C 0.98509 0.50729 0.09064 0.0
C646 C 0.95209 0.48734 0.04192 0.0
C647 C 0.95801 0.51181 0.98492 0.0
H648 H 0.99019 0.49587 0.9402 0.0
H649 H 0.07155 0.53582 0.91267 0.0
H650 H 0.98652 0.49785 0.91132 0.0
H651 H 0.07487 0.53313 0.94133 0.0
H652 H 0.9992 0.52953 0.05431 0.0
H653 H 0.94816 0.47312 0.09495 0.0
H654 H 0.01871 0.54013 0.08199 0.0
H655 H 0.9284 0.46314 0.06721 0.0
Eu656 Eu 0.50098 0.49505 0.0223 0.0
Eu657 Eu 0.47353 0.49974 0.98836 0.0
C658 C 0.50651 0.54932 0.01481 0.0
C659 C 0.51561 0.49025 0.06637 0.0
C660 C 0.51965 0.51339 0.07523 0.0
C661 C 0.50161 0.46672 0.08972 0.0
C662 C 0.51481 0.51318 0.09122 0.0
C663 C 0.50667 0.46699 0.0738 0.0
C664 C 0.50566 0.48982 0.0986 0.0
C665 C 0.52053 0.48982 0.04947 0.0
O666 O 0.51089 0.50062 0.98236 0.0
O667 O 0.5345 0.51448 0.00716 0.0
C668 C 0.53334 0.51084 0.99155 0.0
O669 O 0.49326 0.46082 0.00489 0.0
O670 O 0.46576 0.52259 0.97165 0.0
O671 O 0.45056 0.48082 0.9653 0.0
O672 O 0.45636 0.45656 0.99146 0.0
C673 C 0.47088 0.44639 0.99585 0.0
O674 O 0.45783 0.47839 0.02525 0.0
O675 O 0.44548 0.4975 0.00615 0.0
O676 O 0.50325 0.54098 0.99961 0.0
O677 O 0.50215 0.46993 0.03982 0.0
O678 O 0.53034 0.51212 0.04316 0.0
O679 O 0.49964 0.53263 0.02556 0.0
C680 C 0.46712 0.50815 0.9451 0.0
C681 C 0.49472 0.52177 0.94518 0.0
C682 C 0.46252 0.49757 0.9164 0.0
C683 C 0.50614 0.52295 0.93101 0.0
C684 C 0.45112 0.49648 0.9306 0.0
C685 C 0.49019 0.51029 0.91649 0.0
C686 C 0.45518 0.50306 0.96021 0.0
C687 C 0.44121 0.48509 0.01902 0.0
H688 H 0.52649 0.53164 0.06984 0.0
H689 H 0.49492 0.44853 0.09516 0.0
H690 H 0.51791 0.53121 0.09776 0.0
H691 H 0.50359 0.44895 0.06726 0.0
H692 H 0.50747 0.5307 0.95628 0.0
H693 H 0.44962 0.48732 0.9055 0.0
H694 H 0.52748 0.53325 0.93151 0.0
H695 H 0.42979 0.48556 0.93035 0.0
Eu696 Eu 0.15434 0.30349 0.3206 0.0
Eu697 Eu 0.17774 0.34453 0.35428 0.0
C698 C 0.14554 0.35279 0.32553 0.0
C699 C 0.14135 0.28447 0.27641 0.0
C700 C 0.14611 0.30987 0.27395 0.0
C701 C 0.1449 0.27646 0.24831 0.0
C702 C 0.1499 0.31839 0.2588 0.0
C703 C 0.14085 0.26784 0.2635 0.0
C704 C 0.14936 0.30182 0.24579 0.0
C705 C 0.13806 0.27595 0.29255 0.0
O706 O 0.146 0.30537 0.36025 0.0
O707 O 0.12076 0.28883 0.33611 0.0
C708 C 0.12331 0.28966 0.35172 0.0
O709 O 0.16827 0.28367 0.33742 0.0
O710 O 0.17046 0.36605 0.37348 0.0
O711 O 0.20789 0.36719 0.3744 0.0
O712 O 0.19883 0.32129 0.35344 0.0
C713 C 0.18926 0.29635 0.34794 0.0
O714 O 0.19708 0.33309 0.31889 0.0
O715 O 0.20443 0.3684 0.33645 0.0
O716 O 0.14872 0.35289 0.34101 0.0
O717 O 0.15965 0.28083 0.301 0.0
O718 O 0.12333 0.28193 0.30085 0.0
O719 O 0.15258 0.3397 0.31577 0.0
C720 C 0.18902 0.36514 0.39853 0.0
C721 C 0.18002 0.33883 0.40139 0.0
C722 C 0.18773 0.37634 0.42651 0.0
C723 C 0.17479 0.33128 0.4167 0.0
C724 C 0.19296 0.38386 0.41118 0.0
C725 C 0.17836 0.3499 0.42944 0.0
C726 C 0.19232 0.37257 0.3822 0.0
C727 C 0.21106 0.3583 0.32444 0.0
H728 H 0.14708 0.32324 0.28379 0.0
H729 H 0.14424 0.26319 0.23851 0.0
H730 H 0.15373 0.33818 0.25733 0.0
H731 H 0.13744 0.24826 0.26518 0.0
H732 H 0.17668 0.32404 0.39172 0.0
H733 H 0.19035 0.39113 0.43596 0.0
H734 H 0.16794 0.31085 0.41853 0.0
H735 H 0.19958 0.40419 0.40914 0.0
Eu736 Eu 0.6685 0.83954 0.31519 0.0
Eu737 Eu 0.63794 0.83034 0.34769 0.0
C738 C 0.62006 0.78343 0.31955 0.0
C739 C 0.68809 0.84752 0.27215 0.0
C740 C 0.66616 0.8262 0.26292 0.0
C741 C 0.70328 0.86859 0.24817 0.0
C742 C 0.66303 0.82596 0.24637 0.0
C743 C 0.70648 0.86874 0.26467 0.0
C744 C 0.68166 0.8471 0.23882 0.0
C745 C 0.69282 0.84792 0.28948 0.0
O746 O 0.676 0.83154 0.35539 0.0
O747 O 0.68447 0.8199 0.33089 0.0
C748 C 0.68834 0.8228 0.34655 0.0
O749 O 0.69678 0.87254 0.33376 0.0
O750 O 0.61724 0.80463 0.36561 0.0
O751 O 0.62202 0.84374 0.36653 0.0
O752 O 0.66664 0.87413 0.34904 0.0
C753 C 0.69048 0.88503 0.34451 0.0
O754 O 0.64174 0.85667 0.31243 0.0
O755 O 0.61042 0.83131 0.32835 0.0
O756 O 0.62563 0.79046 0.33495 0.0
O757 O 0.69203 0.86645 0.29845 0.0
O758 O 0.68189 0.82526 0.29539 0.0
O759 O 0.63004 0.80098 0.30937 0.0
C760 C 0.62675 0.8282 0.39071 0.0
C761 C 0.65421 0.84364 0.39448 0.0
C762 C 0.62206 0.81878 0.41821 0.0
C763 C 0.66557 0.84638 0.40994 0.0
C764 C 0.61067 0.816 0.40266 0.0
C765 C 0.64968 0.83361 0.42192 0.0
C766 C 0.61543 0.82297 0.37406 0.0
C767 C 0.61795 0.84696 0.317 0.0
H768 H 0.65159 0.80966 0.26846 0.0
H769 H 0.71813 0.885 0.24269 0.0
H770 H 0.64603 0.80927 0.23948 0.0
H771 H 0.72357 0.88533 0.27158 0.0
H772 H 0.66694 0.85308 0.38535 0.0
H773 H 0.60935 0.80859 0.42717 0.0
H774 H 0.68685 0.85831 0.41248 0.0
H775 H 0.58945 0.8038 0.39987 0.0
Eu776 Eu 0.16753 0.82967 0.35544 0.0
Eu777 Eu 0.14057 0.83527 0.32152 0.0
C778 C 0.17465 0.88456 0.34791 0.0
C779 C 0.18106 0.82439 0.39928 0.0
C780 C 0.16918 0.83858 0.40492 0.0
C781 C 0.18067 0.80906 0.42526 0.0
C782 C 0.16327 0.83817 0.42071 0.0
C783 C 0.18675 0.80964 0.40952 0.0
C784 C 0.16888 0.82333 0.43103 0.0
C785 C 0.18655 0.82379 0.3826 0.0
O786 O 0.1777 0.83579 0.31538 0.0
O787 O 0.20119 0.84799 0.34022 0.0
C788 C 0.20002 0.84497 0.32458 0.0
O789 O 0.15862 0.79505 0.33803 0.0
O790 O 0.13208 0.85837 0.30537 0.0
O791 O 0.11859 0.81715 0.29813 0.0
O792 O 0.12229 0.7919 0.32447 0.0
C793 C 0.13612 0.78108 0.32904 0.0
O794 O 0.12456 0.81407 0.3585 0.0
O795 O 0.11283 0.83358 0.33937 0.0
O796 O 0.17128 0.87619 0.33271 0.0
O797 O 0.16798 0.80416 0.37291 0.0
O798 O 0.19661 0.84621 0.37642 0.0
O799 O 0.16728 0.86782 0.35864 0.0
C800 C 0.13455 0.84593 0.2786 0.0
C801 C 0.16214 0.86078 0.27887 0.0
C802 C 0.13076 0.83642 0.24986 0.0
C803 C 0.17399 0.86305 0.26478 0.0
C804 C 0.11892 0.83426 0.26398 0.0
C805 C 0.15847 0.85026 0.25014 0.0
C806 C 0.12236 0.83945 0.29356 0.0
C807 C 0.10831 0.82122 0.35225 0.0
H808 H 0.1643 0.84979 0.3971 0.0
H809 H 0.18548 0.79769 0.43298 0.0
H810 H 0.15393 0.84912 0.42477 0.0
H811 H 0.19577 0.79845 0.40531 0.0
H812 H 0.17461 0.86972 0.29007 0.0
H813 H 0.1182 0.82604 0.23886 0.0
H814 H 0.19535 0.87419 0.26542 0.0
H815 H 0.09761 0.82242 0.26357 0.0
Eu816 Eu 0.81627 0.64293 0.6528 0.0
Eu817 Eu 0.83744 0.6771 0.68859 0.0
C818 C 0.81339 0.69556 0.66097 0.0
C819 C 0.80464 0.62897 0.60786 0.0
C820 C 0.81216 0.65545 0.60635 0.0
C821 C 0.80621 0.62175 0.57942 0.0
C822 C 0.81669 0.66503 0.59146 0.0
C823 C 0.80158 0.61217 0.59431 0.0
C824 C 0.81399 0.64835 0.57783 0.0
C825 C 0.80155 0.61925 0.62363 0.0
O826 O 0.79341 0.65036 0.68749 0.0
O827 O 0.78747 0.61679 0.66911 0.0
C828 C 0.77961 0.62562 0.68108 0.0
O829 O 0.84163 0.62945 0.66547 0.0
O830 O 0.83265 0.70009 0.70817 0.0
O831 O 0.86523 0.69257 0.71015 0.0
O832 O 0.83571 0.6384 0.69116 0.0
C833 C 0.8431 0.62653 0.68069 0.0
O834 O 0.85323 0.68103 0.64989 0.0
O835 O 0.87348 0.69032 0.6754 0.0
O836 O 0.83274 0.7037 0.67242 0.0
O837 O 0.82341 0.62447 0.63187 0.0
O838 O 0.78616 0.62355 0.63234 0.0
O839 O 0.80043 0.67088 0.65443 0.0
C840 C 0.8456 0.69338 0.73349 0.0
C841 C 0.832 0.66645 0.73577 0.0
C842 C 0.84712 0.70493 0.76178 0.0
C843 C 0.82613 0.6588 0.751 0.0
C844 C 0.85303 0.71254 0.74655 0.0
C845 C 0.83371 0.67796 0.76423 0.0
C846 C 0.85194 0.70159 0.71754 0.0
C847 C 0.8746 0.69299 0.66012 0.0
H848 H 0.81493 0.66882 0.61673 0.0
H849 H 0.80365 0.6083 0.56915 0.0
H850 H 0.82296 0.68568 0.5907 0.0
H851 H 0.79592 0.59171 0.59527 0.0
H852 H 0.82604 0.65136 0.72577 0.0
H853 H 0.85285 0.72021 0.77162 0.0
H854 H 0.81605 0.6379 0.75245 0.0
H855 H 0.86337 0.7334 0.74497 0.0
Eu856 Eu 0.33478 0.16892 0.65194 0.0
Eu857 Eu 0.30045 0.15351 0.683 0.0
C858 C 0.28332 0.11152 0.65224 0.0
C859 C 0.35806 0.18054 0.60996 0.0
C860 C 0.3352 0.15972 0.60117 0.0
C861 C 0.37441 0.19873 0.58544 0.0
C862 C 0.33205 0.15837 0.58453 0.0
C863 C 0.37758 0.19998 0.60201 0.0
C864 C 0.3516 0.17795 0.57651 0.0
C865 C 0.36191 0.18284 0.62742 0.0
O866 O 0.32803 0.13731 0.68617 0.0
O867 O 0.35988 0.16271 0.6704 0.0
C868 C 0.35175 0.14658 0.6815 0.0
O869 O 0.35087 0.20635 0.66885 0.0
O870 O 0.27842 0.12552 0.69971 0.0
O871 O 0.28007 0.16334 0.70047 0.0
O872 O 0.33935 0.18915 0.69257 0.0
C873 C 0.35382 0.20886 0.68451 0.0
O874 O 0.29679 0.16802 0.64443 0.0
O875 O 0.29028 0.17952 0.66934 0.0
O876 O 0.27498 0.12202 0.66296 0.0
O877 O 0.35418 0.19742 0.63505 0.0
O878 O 0.35604 0.16131 0.63397 0.0
O879 O 0.30735 0.12469 0.64802 0.0
C880 C 0.28008 0.14631 0.72487 0.0
C881 C 0.30346 0.16877 0.73193 0.0
C882 C 0.27025 0.13108 0.75093 0.0
C883 C 0.31006 0.17249 0.74838 0.0
C884 C 0.2635 0.1275 0.73445 0.0
C885 C 0.29358 0.15366 0.75804 0.0
C886 C 0.27328 0.14209 0.70753 0.0
C887 C 0.28585 0.17765 0.65379 0.0
H888 H 0.31981 0.14463 0.60716 0.0
H889 H 0.38997 0.2139 0.57961 0.0
H890 H 0.31417 0.14225 0.57797 0.0
H891 H 0.39534 0.21619 0.60865 0.0
H892 H 0.31673 0.18337 0.72473 0.0
H893 H 0.25721 0.1163 0.75813 0.0
H894 H 0.32841 0.18982 0.7535 0.0
H895 H 0.24545 0.10998 0.72916 0.0
Eu896 Eu 0.83651 0.17225 0.68762 0.0
Eu897 Eu 0.80946 0.17803 0.65383 0.0
C898 C 0.83849 0.22609 0.68207 0.0
C899 C 0.85066 0.16549 0.73139 0.0
C900 C 0.84778 0.18539 0.73962 0.0
C901 C 0.84229 0.14248 0.75507 0.0
C902 C 0.84236 0.18389 0.75551 0.0
C903 C 0.84792 0.1441 0.73925 0.0
C904 C 0.8395 0.16238 0.76343 0.0
C905 C 0.85592 0.16618 0.71457 0.0
O906 O 0.84685 0.17889 0.64796 0.0
O907 O 0.87018 0.19381 0.67278 0.0
C908 C 0.86931 0.18986 0.65721 0.0
O909 O 0.83192 0.13964 0.66991 0.0
O910 O 0.81195 0.20176 0.63452 0.0
O911 O 0.77801 0.16255 0.63408 0.0
O912 O 0.79702 0.13487 0.65353 0.0
C913 C 0.81189 0.12565 0.65897 0.0
O914 O 0.79271 0.15284 0.68942 0.0
O915 O 0.78132 0.17459 0.67183 0.0
O916 O 0.83501 0.21903 0.66667 0.0
O917 O 0.83788 0.14653 0.70465 0.0
O918 O 0.86531 0.18887 0.70875 0.0
O919 O 0.8337 0.20888 0.69236 0.0
C920 C 0.79653 0.17557 0.61001 0.0
C921 C 0.80557 0.15756 0.60803 0.0
C922 C 0.80449 0.18559 0.58279 0.0
C923 C 0.81431 0.15383 0.59364 0.0
C924 C 0.79568 0.1893 0.59725 0.0
C925 C 0.81445 0.16824 0.58097 0.0
C926 C 0.79136 0.18235 0.62593 0.0
C927 C 0.77629 0.16025 0.68384 0.0
H928 H 0.84967 0.20207 0.73379 0.0
H929 H 0.83976 0.12539 0.76066 0.0
H930 H 0.84068 0.19974 0.76163 0.0
H931 H 0.8499 0.12847 0.73308 0.0
H932 H 0.80668 0.14698 0.61781 0.0
H933 H 0.80453 0.19712 0.57329 0.0
H934 H 0.82142 0.13998 0.59255 0.0
H935 H 0.78913 0.20357 0.59866 0.0
H936 H 0.30735 0.83263 0.04563 0.0
H937 H 0.44904 0.96103 0.04661 0.0
H938 H 0.34675 0.8926 0.0859 0.0
H939 H 0.40391 0.91309 0.00277 0.0
H940 H 0.41161 0.935 0.061 0.0
H941 H 0.34169 0.86099 0.02945 0.0
C942 C 0.32298 0.8519 0.05102 0.0
C943 C 0.32429 0.86012 0.06723 0.0
C944 C 0.40973 0.93014 0.04823 0.0
C945 C 0.36383 0.89238 0.04884 0.0
C946 C 0.43123 0.94494 0.03996 0.0
C947 C 0.42972 0.93913 0.02342 0.0
C948 C 0.38643 0.90908 0.04 0.0
C949 C 0.40594 0.9182 0.01552 0.0
C950 C 0.34264 0.86799 0.04179 0.0
C951 C 0.3452 0.88516 0.07358 0.0
N952 N 0.38522 0.90375 0.02391 0.0
N953 N 0.3642 0.90025 0.06442 0.0
H954 H 0.10983 0.40323 0.03611 0.0
H955 H 0.04496 0.49433 0.04716 0.0
H956 H 0.13157 0.46015 0.07751 0.0
H957 H 0.04317 0.45409 0.00201 0.0
H958 H 0.0733 0.47923 0.05957 0.0
H959 H 0.08195 0.41892 0.0245 0.0
C960 C 0.10901 0.41923 0.04274 0.0
C961 C 0.12346 0.43055 0.05778 0.0
C962 C 0.0667 0.47379 0.04694 0.0
C963 C 0.09079 0.44824 0.04459 0.0
C964 C 0.05047 0.48232 0.03986 0.0
C965 C 0.04168 0.4755 0.0235 0.0
C966 C 0.07388 0.45807 0.03763 0.0
C967 C 0.04951 0.45994 0.01464 0.0
C968 C 0.09287 0.42806 0.03611 0.0
C969 C 0.12072 0.45066 0.06594 0.0
N970 N 0.06504 0.4517 0.02182 0.0
N971 N 0.10471 0.45886 0.05924 0.0
H972 H 0.59313 0.72034 0.01876 0.0
H973 H 0.52181 0.57408 0.04534 0.0
H974 H 0.60148 0.70296 0.06687 0.0
H975 H 0.52314 0.59007 0.99619 0.0
H976 H 0.54774 0.62159 0.05363 0.0
H977 H 0.56494 0.67293 0.01039 0.0
C978 C 0.5892 0.70657 0.02755 0.0
C979 C 0.59975 0.71569 0.04355 0.0
C980 C 0.54229 0.61472 0.04103 0.0
C981 C 0.56711 0.66142 0.03409 0.0
C982 C 0.52737 0.58757 0.03628 0.0
C983 C 0.52036 0.57805 0.02003 0.0
C984 C 0.55023 0.63253 0.02946 0.0
C985 C 0.52817 0.59651 0.00884 0.0
C986 C 0.57294 0.67952 0.02278 0.0
C987 C 0.59352 0.69691 0.05446 0.0
N988 N 0.54275 0.62287 0.01377 0.0
N989 N 0.57763 0.6707 0.04953 0.0
H990 H 0.87183 0.27823 0.97873 0.0
H991 H 0.9408 0.42637 0.95579 0.0
H992 H 0.85881 0.29646 0.93156 0.0
H993 H 0.93468 0.40595 0.0041 0.0
H994 H 0.91315 0.37913 0.94609 0.0
H995 H 0.8974 0.32537 0.98773 0.0
C996 C 0.87408 0.2921 0.97028 0.0
C997 C 0.86294 0.28324 0.95437 0.0
C998 C 0.91782 0.38512 0.9588 0.0
C999 C 0.89283 0.33752 0.96458 0.0
C1000 C 0.93361 0.41203 0.96435 0.0
C1001 C 0.94013 0.42016 0.98079 0.0
C1002 C 0.90877 0.3663 0.96979 0.0
C1003 C 0.93022 0.40071 0.99133 0.0
C1004 C 0.88887 0.31909 0.97542 0.0
C1005 C 0.86725 0.30233 0.9439 0.0
N1006 N 0.9152 0.37476 0.98565 0.0
N1007 N 0.88191 0.32859 0.94917 0.0
H1008 H 0.69708 0.57416 0.97582 0.0
H1009 H 0.53984 0.50738 0.95968 0.0
H1010 H 0.65456 0.54477 0.92874 0.0
H1011 H 0.58348 0.53218 0.00652 0.0
H1012 H 0.58124 0.52109 0.94793 0.0
H1013 H 0.65534 0.5588 0.98704 0.0
C1014 C 0.67895 0.5642 0.96782 0.0
C1015 C 0.67944 0.5606 0.95128 0.0
C1016 C 0.58171 0.52345 0.96078 0.0
C1017 C 0.63127 0.54334 0.96413 0.0
C1018 C 0.55807 0.51563 0.96751 0.0
C1019 C 0.55811 0.5186 0.98415 0.0
C1020 C 0.60559 0.53437 0.97073 0.0
C1021 C 0.58239 0.52948 0.99365 0.0
C1022 C 0.65505 0.55559 0.97425 0.0
C1023 C 0.65521 0.54817 0.94154 0.0
N1024 N 0.60508 0.53697 0.98681 0.0
N1025 N 0.63212 0.53999 0.94811 0.0
H1026 H 0.45144 0.1462 0.96751 0.0
H1027 H 0.45932 0.01453 0.95746 0.0
H1028 H 0.42848 0.09496 0.92334 0.0
H1029 H 0.47112 0.05824 0.0033 0.0
H1030 H 0.44542 0.04257 0.94518 0.0
H1031 H 0.45563 0.11294 0.98133 0.0
C1032 C 0.44684 0.12777 0.96076 0.0
C1033 C 0.43991 0.12348 0.9442 0.0
C1034 C 0.45083 0.04597 0.95795 0.0
C1035 C 0.44509 0.08558 0.95989 0.0
C1036 C 0.4589 0.03001 0.96497 0.0
C1037 C 0.4667 0.03428 0.98141 0.0
C1038 C 0.45081 0.0666 0.96738 0.0
C1039 C 0.46538 0.05438 0.99057 0.0
C1040 C 0.44938 0.10886 0.96865 0.0
C1041 C 0.43444 0.09935 0.93605 0.0
N1042 N 0.45787 0.07003 0.98339 0.0
N1043 N 0.4374 0.08144 0.94395 0.0
H1044 H 0.67754 0.07239 0.93641 0.0
H1045 H 0.58048 0.07498 0.99813 0.0
H1046 H 0.69675 0.14187 0.96807 0.0
H1047 H 0.56039 0.00906 0.96294 0.0
H1048 H 0.62257 0.10059 0.98703 0.0
H1049 H 0.63395 0.04946 0.94578 0.0
C1050 C 0.67255 0.08281 0.94535 0.0
C1051 C 0.69084 0.109 0.95155 0.0
C1052 C 0.60884 0.08056 0.98172 0.0
C1053 C 0.64086 0.08289 0.96236 0.0
C1054 C 0.58481 0.06593 0.98804 0.0
C1055 C 0.56693 0.03973 0.98157 0.0
C1056 C 0.61499 0.06885 0.96886 0.0
C1057 C 0.57359 0.02908 0.96846 0.0
C1058 C 0.6476 0.06977 0.95066 0.0
C1059 C 0.68316 0.12171 0.96292 0.0
N1060 N 0.59707 0.04361 0.96262 0.0
N1061 N 0.6588 0.10846 0.96806 0.0
H1062 H 0.8254 0.53269 0.95753 0.0
H1063 H 0.96839 0.54598 0.96216 0.0
H1064 H 0.89025 0.59007 0.9345 0.0
H1065 H 0.90631 0.49485 0.98944 0.0
H1066 H 0.93876 0.55945 0.94999 0.0
H1067 H 0.85336 0.51546 0.9672 0.0
C1068 C 0.84543 0.54147 0.95435 0.0
C1069 C 0.85553 0.56296 0.94525 0.0
C1070 C 0.9316 0.54523 0.9586 0.0
C1071 C 0.88777 0.54351 0.95644 0.0
C1072 C 0.94851 0.53749 0.96556 0.0
C1073 C 0.93992 0.51935 0.97694 0.0
C1074 C 0.90584 0.53473 0.96299 0.0
C1075 C 0.91388 0.50899 0.9808 0.0
C1076 C 0.86145 0.53175 0.95997 0.0
C1077 C 0.88175 0.57375 0.94167 0.0
N1078 N 0.89782 0.51687 0.97388 0.0
N1079 N 0.89697 0.56396 0.9473 0.0
H1080 H 0.47039 0.30076 0.97312 0.0
H1081 H 0.4306 0.41294 0.9729 0.0
H1082 H 0.41815 0.30284 0.9358 0.0
H1083 H 0.49277 0.41723 0.00526 0.0
H1084 H 0.4202 0.36878 0.96178 0.0
H1085 H 0.47315 0.33967 0.98763 0.0
C1086 C 0.4594 0.30933 0.96802 0.0
C1087 C 0.4443 0.29875 0.95313 0.0
C1088 C 0.43598 0.37934 0.97139 0.0
C1089 C 0.44724 0.34317 0.9697 0.0
C1090 C 0.44189 0.40451 0.97777 0.0
C1091 C 0.46278 0.4189 0.9899 0.0
C1092 C 0.45099 0.36849 0.97724 0.0
C1093 C 0.4767 0.40698 0.99578 0.0
C1094 C 0.4609 0.33148 0.97633 0.0
C1095 C 0.42996 0.31028 0.94726 0.0
N1096 N 0.47065 0.38253 0.98934 0.0
N1097 N 0.43198 0.33203 0.95549 0.0
H1098 H 0.17681 0.69237 0.04555 0.0
H1099 H 0.02537 0.57725 0.03994 0.0
H1100 H 0.12639 0.68392 0.08251 0.0
H1101 H 0.07983 0.57962 0.00706 0.0
H1102 H 0.06051 0.61917 0.05408 0.0
H1103 H 0.13982 0.65394 0.02972 0.0
C1104 C 0.15794 0.68244 0.05034 0.0
C1105 C 0.1548 0.69122 0.06547 0.0
C1106 C 0.06471 0.61056 0.04373 0.0
C1107 C 0.11223 0.64728 0.04732 0.0
C1108 C 0.04464 0.58666 0.03561 0.0
C1109 C 0.0497 0.57482 0.02233 0.0
C1110 C 0.08996 0.62277 0.03848 0.0
C1111 C 0.07506 0.58791 0.0173 0.0
C1112 C 0.13679 0.66055 0.04126 0.0
C1113 C 0.1297 0.67793 0.07089 0.0
N1114 N 0.09424 0.61113 0.02539 0.0
N1115 N 0.10942 0.65652 0.06186 0.0
H1116 H 0.31511 0.41809 0.07961 0.0
H1117 H 0.4004 0.49372 0.01001 0.0
H1118 H 0.28902 0.45368 0.04521 0.0
H1119 H 0.42626 0.4599 0.04581 0.0
H1120 H 0.36004 0.48048 0.02296 0.0
H1121 H 0.35654 0.43455 0.06766 0.0
C1122 C 0.3181 0.42939 0.06954 0.0
C1123 C 0.29845 0.43438 0.06337 0.0
C1124 C 0.37461 0.47604 0.02798 0.0
C1125 C 0.34604 0.45342 0.04959 0.0
C1126 C 0.39767 0.48358 0.02058 0.0
C1127 C 0.41679 0.47784 0.02675 0.0
C1128 C 0.37062 0.46264 0.04164 0.0
C1129 C 0.41212 0.46469 0.04053 0.0
C1130 C 0.34183 0.43889 0.06274 0.0
C1131 C 0.30367 0.44954 0.05045 0.0
N1132 N 0.38956 0.45751 0.04745 0.0
N1133 N 0.32687 0.45837 0.04393 0.0
H1134 H 0.57514 0.85121 0.0245 0.0
H1135 H 0.56164 0.9806 0.03425 0.0
H1136 H 0.62938 0.92251 0.0552 0.0
H1137 H 0.50839 0.91084 0.00201 0.0
H1138 H 0.58583 0.95891 0.0425 0.0
H1139 H 0.54975 0.87208 0.01648 0.0
C1140 C 0.58167 0.87124 0.02958 0.0
C1141 C 0.60444 0.88515 0.04053 0.0
C1142 C 0.56884 0.9483 0.03364 0.0
C1143 C 0.57555 0.90918 0.03136 0.0
C1144 C 0.55495 0.96067 0.02891 0.0
C1145 C 0.53294 0.94757 0.01736 0.0
C1146 C 0.56075 0.92258 0.02679 0.0
C1147 C 0.52524 0.92171 0.01094 0.0
C1148 C 0.56722 0.88317 0.02495 0.0
C1149 C 0.61217 0.91116 0.04658 0.0
N1150 N 0.53917 0.91008 0.01572 0.0
N1151 N 0.59773 0.9223 0.04193 0.0
H1152 H 0.97564 0.16675 0.38 0.0
H1153 H 0.12043 0.29237 0.38375 0.0
H1154 H 0.01831 0.22025 0.42258 0.0
H1155 H 0.07385 0.24906 0.33922 0.0
H1156 H 0.08306 0.26524 0.39796 0.0
H1157 H 0.01069 0.19617 0.36462 0.0
C1158 C 0.99217 0.18484 0.38609 0.0
C1159 C 0.99411 0.19091 0.40266 0.0
C1160 C 0.08089 0.26164 0.38508 0.0
C1161 C 0.03448 0.22438 0.38515 0.0
C1162 C 0.10233 0.27708 0.37691 0.0
C1163 C 0.10036 0.27292 0.36022 0.0
C1164 C 0.05719 0.24165 0.37657 0.0
C1165 C 0.07625 0.25292 0.35208 0.0
C1166 C 0.01225 0.20153 0.3773 0.0
C1167 C 0.01619 0.21447 0.40991 0.0
N1168 N 0.0556 0.2379 0.36035 0.0
N1169 N 0.03554 0.2302 0.40114 0.0
H1170 H 0.80462 0.7755 0.36483 0.0
H1171 H 0.6989 0.82157 0.37854 0.0
H1172 H 0.77604 0.77823 0.41036 0.0
H1173 H 0.72082 0.80853 0.3324 0.0
H1174 H 0.7295 0.80929 0.3909 0.0
H1175 H 0.7766 0.79123 0.35328 0.0
C1176 C 0.79242 0.77936 0.37242 0.0
C1177 C 0.79255 0.77525 0.38858 0.0
C1178 C 0.72762 0.80918 0.37808 0.0
C1179 C 0.76046 0.79359 0.37541 0.0
C1180 C 0.71016 0.81621 0.371 0.0
C1181 C 0.70715 0.81599 0.35437 0.0
C1182 C 0.74228 0.80199 0.36847 0.0
C1183 C 0.72233 0.80888 0.34524 0.0
C1184 C 0.77647 0.78846 0.36582 0.0
C1185 C 0.77674 0.78124 0.39788 0.0
N1186 N 0.73917 0.80217 0.3524 0.0
N1187 N 0.76124 0.78998 0.39114 0.0
H1188 H 0.26959 0.03673 0.4034 0.0
H1189 H 0.19226 0.9255 0.32938 0.0
H1190 H 0.26261 0.05474 0.35529 0.0
H1191 H 0.19007 0.9091 0.37846 0.0
H1192 H 0.21865 0.97286 0.33843 0.0
H1193 H 0.24132 0.98975 0.39426 0.0
C1194 C 0.262 0.03083 0.39092 0.0
C1195 C 0.26844 0.04977 0.38011 0.0
C1196 C 0.21226 0.95888 0.34721 0.0
C1197 C 0.23625 0.99586 0.36951 0.0
C1198 C 0.19717 0.93184 0.34205 0.0
C1199 C 0.18898 0.91328 0.35317 0.0
C1200 C 0.21934 0.96741 0.36359 0.0
C1201 C 0.19593 0.92266 0.36945 0.0
C1202 C 0.24592 0.00396 0.3857 0.0
C1203 C 0.25844 0.04085 0.36402 0.0
N1204 N 0.21082 0.94904 0.37415 0.0
N1205 N 0.24284 0.01453 0.35921 0.0
H1206 H 0.52125 0.62919 0.26492 0.0
H1207 H 0.60129 0.74216 0.3375 0.0
H1208 H 0.5412 0.61476 0.31176 0.0
H1209 H 0.6007 0.75963 0.28871 0.0
H1210 H 0.57497 0.69522 0.32834 0.0
H1211 H 0.54657 0.67684 0.27346 0.0
C1212 C 0.53099 0.63598 0.27697 0.0
C1213 C 0.529 0.61784 0.28764 0.0
C1214 C 0.58056 0.70927 0.31961 0.0
C1215 C 0.55761 0.67228 0.29751 0.0
C1216 C 0.59556 0.73617 0.32483 0.0
C1217 C 0.60332 0.75494 0.31385 0.0
C1218 C 0.57302 0.70089 0.30327 0.0
C1219 C 0.59523 0.74584 0.29759 0.0
C1220 C 0.54534 0.66318 0.28183 0.0
C1221 C 0.54171 0.62785 0.30318 0.0
N1222 N 0.58046 0.71939 0.29277 0.0
N1223 N 0.5554 0.65434 0.30763 0.0
H1224 H 0.32048 0.89219 0.2591 0.0
H1225 H 0.24934 0.86092 0.33928 0.0
H1226 H 0.36051 0.90131 0.3056 0.0
H1227 H 0.20715 0.84665 0.29272 0.0
H1228 H 0.29001 0.87487 0.32687 0.0
H1229 H 0.27852 0.87414 0.27082 0.0
C1230 C 0.32045 0.89019 0.27173 0.0
C1231 C 0.34417 0.89854 0.28138 0.0
C1232 C 0.27186 0.8686 0.31934 0.0
C1233 C 0.29622 0.87815 0.29492 0.0
C1234 C 0.24856 0.86063 0.32644 0.0
C1235 C 0.2247 0.85261 0.31707 0.0
C1236 C 0.27146 0.86872 0.30271 0.0
C1237 C 0.22504 0.85264 0.30045 0.0
C1238 C 0.29649 0.88002 0.27844 0.0
C1239 C 0.34287 0.89566 0.29772 0.0
N1240 N 0.24805 0.86067 0.29382 0.0
N1241 N 0.3194 0.88584 0.30395 0.0
H1242 H 0.09196 0.42732 0.26051 0.0
H1243 H 0.13962 0.39184 0.3411 0.0
H1244 H 0.12172 0.47982 0.30443 0.0
H1245 H 0.12687 0.34947 0.29464 0.0
H1246 H 0.12486 0.41979 0.32906 0.0
H1247 H 0.09619 0.39401 0.2742 0.0
C1248 C 0.09919 0.43177 0.27306 0.0
C1249 C 0.10685 0.45655 0.28127 0.0
C1250 C 0.12513 0.40423 0.32155 0.0
C1251 C 0.11163 0.41849 0.29702 0.0
C1252 C 0.1335 0.38826 0.32841 0.0
C1253 C 0.13483 0.36855 0.31882 0.0
C1254 C 0.11785 0.40027 0.30503 0.0
C1255 C 0.12657 0.3647 0.30245 0.0
C1256 C 0.10154 0.41273 0.28087 0.0
C1257 C 0.11549 0.46098 0.29763 0.0
N1258 N 0.11857 0.3805 0.29607 0.0
N1259 N 0.11791 0.44224 0.30493 0.0
H1260 H 0.3448 0.40762 0.27085 0.0
H1261 H 0.24977 0.41008 0.33411 0.0
H1262 H 0.36545 0.47667 0.30336 0.0
H1263 H 0.22836 0.34471 0.29818 0.0
H1264 H 0.29151 0.43575 0.32264 0.0
H1265 H 0.30131 0.385 0.28039 0.0
C1266 C 0.34014 0.41802 0.28 0.0
C1267 C 0.35881 0.44398 0.2864 0.0
C1268 C 0.27755 0.41584 0.31724 0.0
C1269 C 0.30897 0.41822 0.29742 0.0
C1270 C 0.25372 0.40118 0.32377 0.0
C1271 C 0.23561 0.37509 0.31721 0.0
C1272 C 0.28325 0.40426 0.30409 0.0
C1273 C 0.24177 0.36463 0.30379 0.0
C1274 C 0.31525 0.40515 0.28541 0.0
C1275 C 0.35156 0.45668 0.29806 0.0
N1276 N 0.26507 0.37917 0.29776 0.0
N1277 N 0.32726 0.4436 0.3033 0.0
H1278 H 0.55236 0.93118 0.2703 0.0
H1279 H 0.56522 0.82662 0.32029 0.0
H1280 H 0.48463 0.86201 0.2838 0.0
H1281 H 0.62859 0.88436 0.29644 0.0
H1282 H 0.53563 0.84031 0.30818 0.0
H1283 H 0.58075 0.91519 0.28076 0.0
C1284 C 0.54333 0.91245 0.27527 0.0
C1285 C 0.5159 0.89791 0.27606 0.0
C1286 C 0.55598 0.84989 0.30556 0.0
C1287 C 0.54865 0.87978 0.2885 0.0
C1288 C 0.57293 0.84214 0.3125 0.0
C1289 C 0.59949 0.8544 0.30943 0.0
C1290 C 0.56572 0.87023 0.29559 0.0
C1291 C 0.60829 0.87433 0.29917 0.0
C1292 C 0.55965 0.90342 0.28136 0.0
C1293 C 0.50564 0.87412 0.28309 0.0
N1294 N 0.59151 0.8817 0.29271 0.0
N1295 N 0.52202 0.86586 0.28908 0.0
H1296 H 0.12879 0.63133 0.31174 0.0
H1297 H 0.09818 0.74904 0.30455 0.0
H1298 H 0.08922 0.63904 0.26947 0.0
H1299 H 0.15344 0.74969 0.34093 0.0
H1300 H 0.08673 0.70412 0.29418 0.0
H1301 H 0.12968 0.66998 0.32523 0.0
C1302 C 0.12011 0.64104 0.30533 0.0
C1303 C 0.10932 0.63223 0.28937 0.0
C1304 C 0.10117 0.71405 0.30452 0.0
C1305 C 0.11016 0.67636 0.30475 0.0
C1306 C 0.10767 0.73963 0.31046 0.0
C1307 C 0.12705 0.75321 0.32348 0.0
C1308 C 0.114 0.702 0.31177 0.0
C1309 C 0.13867 0.74009 0.33072 0.0
C1310 C 0.12055 0.66304 0.31305 0.0
C1311 C 0.09773 0.64515 0.28178 0.0
N1312 N 0.13207 0.71527 0.32471 0.0
N1313 N 0.09873 0.66678 0.28949 0.0
H1314 H 0.84003 0.02651 0.37534 0.0
H1315 H 0.68804 0.91328 0.37092 0.0
H1316 H 0.79142 0.01721 0.41347 0.0
H1317 H 0.74032 0.91624 0.33627 0.0
H1318 H 0.72394 0.95481 0.38498 0.0
H1319 H 0.80193 0.98952 0.35925 0.0
C1320 C 0.82133 0.01671 0.38032 0.0
C1321 C 0.81901 0.0248 0.39585 0.0
C1322 C 0.72748 0.94644 0.37424 0.0
C1323 C 0.77522 0.98254 0.37743 0.0
C1324 C 0.70697 0.92277 0.36617 0.0
C1325 C 0.71123 0.91115 0.35245 0.0
C1326 C 0.75238 0.95862 0.36851 0.0
C1327 C 0.73618 0.92434 0.34687 0.0
C1328 C 0.79955 0.99566 0.3711 0.0
C1329 C 0.79411 0.01176 0.40154 0.0
N1330 N 0.75583 0.94729 0.35496 0.0
N1331 N 0.77323 0.99115 0.39237 0.0
H1332 H 0.95491 0.79394 0.37545 0.0
H1333 H 0.09342 0.79749 0.37954 0.0
H1334 H 0.98027 0.75881 0.41058 0.0
H1335 H 0.06768 0.82978 0.34269 0.0
H1336 H 0.05305 0.78553 0.39181 0.0
H1337 H 0.99707 0.80983 0.36423 0.0
C1338 C 0.96944 0.7898 0.38092 0.0
C1339 C 0.96394 0.77488 0.39395 0.0
C1340 C 0.05619 0.79526 0.38106 0.0
C1341 C 0.01216 0.79279 0.38104 0.0
C1342 C 0.07931 0.80211 0.374 0.0
C1343 C 0.08399 0.81456 0.35996 0.0
C1344 C 0.03744 0.80083 0.37408 0.0
C1345 C 0.06493 0.82014 0.35346 0.0
C1346 C 0.99344 0.79873 0.37443 0.0
C1347 C 0.98343 0.76986 0.40039 0.0
N1348 N 0.04246 0.81317 0.36054 0.0
N1349 N 0.00657 0.77873 0.39386 0.0
H1350 H 0.24271 0.18473 0.36294 0.0
H1351 H 0.2331 0.31646 0.36951 0.0
H1352 H 0.29992 0.25779 0.39112 0.0
H1353 H 0.17758 0.24532 0.339 0.0
H1354 H 0.25697 0.29459 0.37801 0.0
H1355 H 0.21787 0.20593 0.35445 0.0
C1356 C 0.25001 0.20521 0.36737 0.0
C1357 C 0.27344 0.21952 0.37775 0.0
C1358 C 0.23957 0.28371 0.36946 0.0
C1359 C 0.24519 0.24393 0.36803 0.0
C1360 C 0.22585 0.29619 0.3646 0.0
C1361 C 0.20327 0.28274 0.35347 0.0
C1362 C 0.23071 0.25752 0.3632 0.0
C1363 C 0.19488 0.25647 0.34759 0.0
C1364 C 0.23588 0.21733 0.36247 0.0
C1365 C 0.28215 0.2461 0.38295 0.0
N1366 N 0.20863 0.24472 0.35251 0.0
N1367 N 0.268 0.25741 0.37806 0.0
H1368 H 0.66209 0.55768 0.74661 0.0
H1369 H 0.74676 0.57189 0.67323 0.0
H1370 H 0.64897 0.49117 0.71417 0.0
H1371 H 0.75764 0.63773 0.70549 0.0
H1372 H 0.7091 0.5421 0.68689 0.0
H1373 H 0.69554 0.58746 0.7306 0.0
C1374 C 0.66621 0.54934 0.73609 0.0
C1375 C 0.65278 0.52188 0.73178 0.0
C1376 C 0.71965 0.5631 0.69089 0.0
C1377 C 0.69109 0.55589 0.71332 0.0
C1378 C 0.74113 0.58013 0.68308 0.0
C1379 C 0.75551 0.60736 0.68825 0.0
C1380 C 0.71255 0.57339 0.70397 0.0
C1381 C 0.74728 0.61689 0.70109 0.0
C1382 C 0.68525 0.56637 0.72691 0.0
C1383 C 0.65866 0.51223 0.71787 0.0
N1384 N 0.7265 0.59994 0.70853 0.0
N1385 N 0.67751 0.52919 0.70921 0.0
H1386 H 0.47807 0.11319 0.70179 0.0
H1387 H 0.34549 0.11924 0.70757 0.0
H1388 H 0.43136 0.08832 0.74133 0.0
H1389 H 0.39978 0.15632 0.67276 0.0
H1390 H 0.37585 0.10652 0.71968 0.0
H1391 H 0.44889 0.12799 0.69058 0.0
C1392 C 0.46167 0.11085 0.70812 0.0
C1393 C 0.45712 0.09941 0.7225 0.0
C1394 C 0.38115 0.1175 0.70942 0.0
C1395 C 0.42355 0.11633 0.70972 0.0
C1396 C 0.36377 0.12471 0.70245 0.0
C1397 C 0.37001 0.13884 0.68908 0.0
C1398 C 0.4049 0.12428 0.70291 0.0
C1399 C 0.39408 0.14546 0.68305 0.0
C1400 C 0.44507 0.11942 0.70175 0.0
C1401 C 0.43575 0.09722 0.73029 0.0
N1402 N 0.41055 0.13803 0.68996 0.0
N1403 N 0.41966 0.10542 0.72375 0.0
H1404 H 0.92733 0.37856 0.73844 0.0
H1405 H 0.84987 0.26722 0.66443 0.0
H1406 H 0.92159 0.39558 0.68997 0.0
H1407 H 0.85478 0.24978 0.71292 0.0
H1408 H 0.87374 0.31434 0.67387 0.0
H1409 H 0.89871 0.33141 0.72959 0.0
C1410 C 0.91989 0.3724 0.72595 0.0
C1411 C 0.92694 0.39107 0.71492 0.0
C1412 C 0.86946 0.30022 0.68247 0.0
C1413 C 0.89434 0.33706 0.70469 0.0
C1414 C 0.85576 0.27326 0.67709 0.0
C1415 C 0.85044 0.25447 0.68788 0.0
C1416 C 0.87802 0.30853 0.69876 0.0
C1417 C 0.85849 0.26353 0.70415 0.0
C1418 C 0.90364 0.34545 0.7209 0.0
C1419 C 0.91701 0.38188 0.69885 0.0
N1420 N 0.87204 0.28993 0.70908 0.0
N1421 N 0.90126 0.35554 0.69422 0.0
H1422 H 0.17227 0.94401 0.64395 0.0
H1423 H 0.28936 0.08426 0.62667 0.0
H1424 H 0.20781 0.9561 0.59982 0.0
H1425 H 0.2371 0.07506 0.66264 0.0
H1426 H 0.2613 0.03712 0.6172 0.0
H1427 H 0.19772 0.99187 0.6518 0.0
C1428 C 0.18543 0.95678 0.63592 0.0
C1429 C 0.18798 0.94615 0.62123 0.0
C1430 C 0.2559 0.04551 0.62708 0.0
C1431 C 0.21718 0.0008 0.63012 0.0
C1432 C 0.27192 0.0724 0.63251 0.0
C1433 C 0.26562 0.08363 0.6455 0.0
C1434 C 0.23366 0.02971 0.63484 0.0
C1435 C 0.24273 0.0673 0.65257 0.0
C1436 C 0.19983 0.98407 0.64036 0.0
C1437 C 0.20513 0.96356 0.6112 0.0
N1438 N 0.22773 0.04114 0.64725 0.0
N1439 N 0.21925 0.99003 0.61588 0.0
H1440 H 0.9876 0.21769 0.59209 0.0
H1441 H 0.91957 0.2123 0.67231 0.0
H1442 H 0.03021 0.24589 0.63916 0.0
H1443 H 0.87582 0.18437 0.62551 0.0
H1444 H 0.96016 0.22417 0.6602 0.0
H1445 H 0.94636 0.20489 0.60391 0.0
C1446 C 0.98832 0.2212 0.60489 0.0
C1447 C 0.01249 0.2328 0.61462 0.0
C1448 C 0.9417 0.21545 0.65256 0.0
C1449 C 0.9653 0.21809 0.62825 0.0
C1450 C 0.91845 0.20866 0.65948 0.0
C1451 C 0.89416 0.19731 0.64995 0.0
C1452 C 0.94078 0.2109 0.63594 0.0
C1453 C 0.89406 0.19308 0.63337 0.0
C1454 C 0.96474 0.21379 0.61164 0.0
C1455 C 0.01209 0.2366 0.63117 0.0
N1456 N 0.91699 0.19988 0.6269 0.0
N1457 N 0.98896 0.22933 0.63743 0.0
H1458 H 0.82285 0.83922 0.63458 0.0
H1459 H 0.77523 0.68609 0.63701 0.0
H1460 H 0.76127 0.77655 0.60129 0.0
H1461 H 0.83669 0.74878 0.6704 0.0
H1462 H 0.76692 0.71854 0.62538 0.0
H1463 H 0.82491 0.80605 0.64956 0.0
C1464 C 0.80944 0.81847 0.63056 0.0
C1465 C 0.79197 0.81066 0.61658 0.0
C1466 C 0.78209 0.72519 0.63533 0.0
C1467 C 0.7946 0.77255 0.63354 0.0
C1468 C 0.78687 0.70665 0.64199 0.0
C1469 C 0.80685 0.71475 0.65464 0.0
C1470 C 0.79746 0.75205 0.6413 0.0
C1471 C 0.8212 0.74165 0.66061 0.0
C1472 C 0.81078 0.79952 0.63906 0.0
C1473 C 0.77536 0.78347 0.61183 0.0
N1474 N 0.81634 0.75937 0.65381 0.0
N1475 N 0.77722 0.7654 0.62022 0.0
H1476 H 0.002 0.77024 0.60093 0.0
H1477 H 0.92364 0.71781 0.67708 0.0
H1478 H 0.03945 0.77454 0.64741 0.0
H1479 H 0.88494 0.70467 0.62955 0.0
H1480 H 0.96638 0.74198 0.66676 0.0
H1481 H 0.95908 0.74945 0.61155 0.0
C1482 C 0.00121 0.76695 0.61339 0.0
C1483 C 0.02434 0.77399 0.62327 0.0
C1484 C 0.94854 0.73389 0.65859 0.0
C1485 C 0.97532 0.75016 0.63549 0.0
C1486 C 0.92409 0.72013 0.66449 0.0
C1487 C 0.9006 0.70907 0.65417 0.0
C1488 C 0.94961 0.73671 0.64224 0.0
C1489 C 0.9025 0.71275 0.63795 0.0
C1490 C 0.9767 0.75498 0.61942 0.0
C1491 C 0.02211 0.76906 0.63929 0.0
N1492 N 0.92657 0.7262 0.63249 0.0
N1493 N 0.99807 0.75746 0.64488 0.0
H1494 H 0.18212 0.20961 0.5929 0.0
H1495 H 0.26609 0.20507 0.66953 0.0
H1496 H 0.19952 0.25784 0.63772 0.0
H1497 H 0.26634 0.17193 0.62241 0.0
H1498 H 0.23805 0.22091 0.65829 0.0
H1499 H 0.20923 0.19192 0.60375 0.0
C1500 C 0.19154 0.21637 0.60503 0.0
C1501 C 0.1887 0.23533 0.6144 0.0
C1502 C 0.24423 0.2102 0.65038 0.0
C1503 C 0.21958 0.21521 0.62685 0.0
C1504 C 0.26023 0.20106 0.6568 0.0
C1505 C 0.26869 0.18717 0.6469 0.0
C1506 C 0.23634 0.2053 0.63392 0.0
C1507 C 0.26039 0.18264 0.63048 0.0
C1508 C 0.20711 0.2064 0.61117 0.0
C1509 C 0.20146 0.24353 0.63 0.0
N1510 N 0.24461 0.19163 0.6245 0.0
N1511 N 0.21625 0.23339 0.63572 0.0
H1512 H 0.77005 0.9857 0.59508 0.0
H1513 H 0.83488 0.09801 0.6694 0.0
H1514 H 0.82668 0.99082 0.63222 0.0
H1515 H 0.77829 0.09414 0.63265 0.0
H1516 H 0.82936 0.05672 0.65684 0.0
H1517 H 0.76988 0.02319 0.6096 0.0
C1518 C 0.78223 0.99454 0.60637 0.0
C1519 C 0.7986 0.9853 0.61239 0.0
C1520 C 0.81801 0.06478 0.65155 0.0
C1521 C 0.79868 0.02826 0.62896 0.0
C1522 C 0.82117 0.08841 0.65872 0.0
C1523 C 0.80715 0.09966 0.65201 0.0
C1524 C 0.80081 0.05229 0.63749 0.0
C1525 C 0.78952 0.08619 0.63822 0.0
C1526 C 0.78223 0.016 0.6146 0.0
C1527 C 0.81415 0.99762 0.62699 0.0
N1528 N 0.78698 0.06327 0.63134 0.0
N1529 N 0.81389 0.01852 0.63473 0.0
H1530 H 0.45901 0.33826 0.75654 0.0
H1531 H 0.39278 0.25133 0.67215 0.0
H1532 H 0.49859 0.35355 0.71385 0.0
H1533 H 0.36258 0.22441 0.71671 0.0
H1534 H 0.4286 0.29215 0.68679 0.0
H1535 H 0.42041 0.29968 0.74158 0.0
C1536 C 0.45946 0.33362 0.74398 0.0
C1537 C 0.48205 0.349 0.73642 0.0
C1538 C 0.41408 0.27735 0.69336 0.0
C1539 C 0.4381 0.30501 0.7193 0.0
C1540 C 0.39355 0.25405 0.685 0.0
C1541 C 0.37468 0.23431 0.69321 0.0
C1542 C 0.41572 0.2811 0.71004 0.0
C1543 C 0.37676 0.239 0.70989 0.0
C1544 C 0.43752 0.31154 0.7355 0.0
C1545 C 0.4817 0.34201 0.72018 0.0
N1546 N 0.39694 0.26191 0.71776 0.0
N1547 N 0.46008 0.32053 0.71215 0.0
H1548 H 0.64851 0.08795 0.74299 0.0
H1549 H 0.73564 0.16942 0.67552 0.0
H1550 H 0.62227 0.12419 0.70914 0.0
H1551 H 0.76026 0.13196 0.70944 0.0
H1552 H 0.69474 0.15462 0.6881 0.0
H1553 H 0.69029 0.10554 0.73135 0.0
C1554 C 0.65152 0.0996 0.73309 0.0
C1555 C 0.63171 0.10442 0.72699 0.0
C1556 C 0.70914 0.1497 0.69279 0.0
C1557 C 0.67977 0.12484 0.71358 0.0
C1558 C 0.73251 0.15814 0.6856 0.0
C1559 C 0.75146 0.15186 0.69135 0.0
C1560 C 0.70465 0.13488 0.70584 0.0
C1561 C 0.74626 0.13721 0.7045 0.0
C1562 C 0.67546 0.10975 0.72648 0.0
C1563 C 0.63701 0.12012 0.71433 0.0
N1564 N 0.72341 0.12922 0.71125 0.0
N1565 N 0.66044 0.12963 0.708 0.0
H1566 H 0.93287 0.54656 0.68802 0.0
H1567 H 0.85117 0.61753 0.71135 0.0
H1568 H 0.92311 0.5654 0.73646 0.0
H1569 H 0.863 0.60096 0.66295 0.0
H1570 H 0.87489 0.59576 0.72064 0.0
H1571 H 0.90537 0.56433 0.67852 0.0
C1572 C 0.92504 0.55455 0.69667 0.0
C1573 C 0.93043 0.55461 0.71307 0.0
C1574 C 0.87216 0.59675 0.70798 0.0
C1575 C 0.89863 0.57469 0.70226 0.0
C1576 C 0.85855 0.60913 0.70265 0.0
C1577 C 0.8552 0.61123 0.68634 0.0
C1578 C 0.88257 0.58642 0.69693 0.0
C1579 C 0.86517 0.59991 0.67564 0.0
C1580 C 0.90918 0.56452 0.69123 0.0
C1581 C 0.9193 0.56473 0.72371 0.0
N1582 N 0.87853 0.58813 0.68113 0.0
N1583 N 0.90401 0.57444 0.71812 0.0
H1584 H 0.49864 0.0112 0.19479 0.0
H1585 H 0.46219 0.96909 0.10059 0.0
H1586 H 0.43278 0.93585 0.17419 0.0
H1587 H 0.53089 0.04164 0.12208 0.0
H1588 H 0.45067 0.95652 0.12722 0.0
H1589 H 0.50988 0.02283 0.16811 0.0
C1590 C 0.48636 0.99715 0.18464 0.0
C1591 C 0.46455 0.97256 0.18679 0.0
C1592 C 0.46828 0.97516 0.1261 0.0
C1593 C 0.47765 0.98569 0.15602 0.0
C1594 C 0.47499 0.98231 0.11088 0.0
C1595 C 0.4976 0.00651 0.10903 0.0
C1596 C 0.48424 0.99233 0.13961 0.0
C1597 C 0.51309 0.02299 0.12286 0.0
C1598 C 0.49294 0.00375 0.16937 0.0
C1599 C 0.44982 0.95496 0.17314 0.0
N1600 N 0.50612 0.01561 0.13752 0.0
N1601 N 0.45659 0.96189 0.15834 0.0
H1602 H 0.0996 0.54101 0.17068 0.0
H1603 H 0.96432 0.50417 0.11928 0.0
H1604 H 0.0276 0.52092 0.19167 0.0
H1605 H 0.03597 0.51991 0.09916 0.0
H1606 H 0.98681 0.51057 0.14595 0.0
H1607 H 0.07634 0.53395 0.14438 0.0
C1608 C 0.07889 0.53521 0.16974 0.0
C1609 C 0.06555 0.53168 0.18338 0.0
C1610 C 0.99758 0.51266 0.13568 0.0
C1611 C 0.03865 0.52333 0.15324 0.0
C1612 C 0.98475 0.50895 0.12046 0.0
C1613 C 0.99834 0.5117 0.10697 0.0
C1614 C 0.02415 0.51912 0.13737 0.0
C1615 C 0.02484 0.51811 0.10921 0.0
C1616 C 0.06556 0.53104 0.15471 0.0
C1617 C 0.03857 0.52366 0.18144 0.0
N1618 N 0.03684 0.52159 0.1241 0.0
N1619 N 0.026 0.51984 0.16663 0.0
H1620 H 0.52301 0.51977 0.20126 0.0
H1621 H 0.46321 0.45268 0.11199 0.0
H1622 H 0.44218 0.45712 0.18889 0.0
H1623 H 0.53688 0.52625 0.12381 0.0
H1624 H 0.45608 0.45204 0.14022 0.0
H1625 H 0.52951 0.52039 0.17301 0.0
C1626 C 0.50667 0.50601 0.19258 0.0
C1627 C 0.48205 0.48827 0.19741 0.0
C1628 C 0.47375 0.46837 0.13662 0.0
C1629 C 0.48928 0.48901 0.16505 0.0
C1630 C 0.4779 0.46867 0.12054 0.0
C1631 C 0.50069 0.48955 0.11558 0.0
C1632 C 0.49267 0.48895 0.14783 0.0
C1633 C 0.51893 0.50992 0.12711 0.0
C1634 C 0.51033 0.50651 0.17646 0.0
C1635 C 0.46143 0.4712 0.18565 0.0
N1636 N 0.51459 0.50904 0.14271 0.0
N1637 N 0.46554 0.4719 0.17 0.0
H1638 H 0.05251 0.51411 0.80979 0.0
H1639 H 0.99664 0.5291 0.89158 0.0
H1640 H 0.98807 0.52949 0.81242 0.0
H1641 H 0.05656 0.50732 0.88792 0.0
H1642 H 0.99432 0.53121 0.86278 0.0
H1643 H 0.0558 0.51395 0.83868 0.0
C1644 C 0.03904 0.51745 0.81645 0.0
C1645 C 0.01989 0.52168 0.80865 0.0
C1646 C 0.00799 0.526 0.86829 0.0
C1647 C 0.02364 0.52168 0.84178 0.0
C1648 C 0.0092 0.52463 0.88472 0.0
C1649 C 0.02684 0.51805 0.8922 0.0
C1650 C 0.02453 0.52075 0.85927 0.0
C1651 C 0.04294 0.51285 0.88273 0.0
C1652 C 0.04098 0.51744 0.83296 0.0
C1653 C 0.00329 0.52639 0.81794 0.0
N1654 N 0.04138 0.5143 0.86678 0.0
N1655 N 0.00547 0.52615 0.83401 0.0
H1656 H 0.58025 0.48068 0.84936 0.0
H1657 H 0.47525 0.51328 0.8855 0.0
H1658 H 0.52012 0.4854 0.8202 0.0
H1659 H 0.53245 0.50293 0.91387 0.0
H1660 H 0.49355 0.50691 0.86144 0.0
H1661 H 0.56529 0.49281 0.87309 0.0
C1662 C 0.56388 0.48427 0.84794 0.0
C1663 C 0.55126 0.48174 0.83276 0.0
C1664 C 0.5022 0.50623 0.87295 0.0
C1665 C 0.53405 0.49584 0.85996 0.0
C1666 C 0.49169 0.50976 0.8867 0.0
C1667 C 0.50225 0.5086 0.90178 0.0
C1668 C 0.5234 0.50145 0.87427 0.0
C1669 C 0.52383 0.50437 0.90257 0.0
C1670 C 0.5554 0.49132 0.86151 0.0
C1671 C 0.53051 0.48722 0.83166 0.0
N1672 N 0.53356 0.50083 0.88904 0.0
N1673 N 0.52243 0.49383 0.84508 0.0
H1674 H 0.48294 0.04031 0.82297 0.0
H1675 H 0.50706 0.95651 0.88621 0.0
H1676 H 0.53349 0.0073 0.81646 0.0
H1677 H 0.46792 0.00093 0.89589 0.0
H1678 H 0.51504 0.97294 0.86006 0.0
H1679 H 0.4756 0.02439 0.84924 0.0
C1680 C 0.4925 0.02971 0.82706 0.0
C1681 C 0.50886 0.02514 0.81747 0.0
C1682 C 0.50473 0.97912 0.86791 0.0
C1683 C 0.5005 0.00679 0.84758 0.0
C1684 C 0.5 0.96959 0.8828 0.0
C1685 C 0.48681 0.97735 0.89329 0.0
C1686 C 0.49601 0.99638 0.86338 0.0
C1687 C 0.47843 0.99464 0.88829 0.0
C1688 C 0.48839 0.02071 0.8421 0.0
C1689 C 0.52096 0.01153 0.8235 0.0
N1690 N 0.48309 0.00348 0.87371 0.0
N1691 N 0.51643 0.00272 0.83811 0.0
H1692 H 0.17441 0.34642 0.53152 0.0
H1693 H 0.13669 0.30396 0.43742 0.0
H1694 H 0.10914 0.2706 0.51106 0.0
H1695 H 0.20509 0.37711 0.45849 0.0
H1696 H 0.12608 0.29129 0.46412 0.0
H1697 H 0.18538 0.35807 0.50477 0.0
C1698 C 0.16224 0.33226 0.52139 0.0
C1699 C 0.14067 0.30754 0.52358 0.0
C1700 C 0.14344 0.31009 0.4629 0.0
C1701 C 0.15338 0.3207 0.49278 0.0
C1702 C 0.14963 0.31729 0.44764 0.0
C1703 C 0.17186 0.34169 0.44564 0.0
C1704 C 0.15955 0.32739 0.47633 0.0
C1705 C 0.18756 0.3583 0.45939 0.0
C1706 C 0.16865 0.33887 0.50609 0.0
C1707 C 0.12603 0.2898 0.50996 0.0
N1708 N 0.18109 0.35086 0.47411 0.0
N1709 N 0.13258 0.29676 0.49515 0.0
H1710 H 0.76259 0.85419 0.49932 0.0
H1711 H 0.63443 0.84102 0.45104 0.0
H1712 H 0.70243 0.86145 0.52223 0.0
H1713 H 0.69327 0.82953 0.42944 0.0
H1714 H 0.65719 0.84588 0.4774 0.0
H1715 H 0.73581 0.84264 0.47374 0.0
C1716 C 0.74367 0.85331 0.49894 0.0
C1717 C 0.73481 0.85904 0.51286 0.0
C1718 C 0.66502 0.84217 0.46688 0.0
C1719 C 0.70396 0.84581 0.48361 0.0
C1720 C 0.65199 0.8393 0.45185 0.0
C1721 C 0.66218 0.83522 0.43803 0.0
C1722 C 0.68834 0.8409 0.46804 0.0
C1723 C 0.68506 0.83327 0.43976 0.0
C1724 C 0.72832 0.84661 0.48435 0.0
C1725 C 0.70994 0.85712 0.51176 0.0
N1726 N 0.69741 0.83626 0.45446 0.0
N1727 N 0.69545 0.85089 0.49734 0.0
H1728 H 0.11817 0.77741 0.52384 0.0
H1729 H 0.1777 0.86506 0.45219 0.0
H1730 H 0.1653 0.86271 0.52989 0.0
H1731 H 0.14597 0.78055 0.44799 0.0
H1732 H 0.16855 0.86409 0.48003 0.0
H1733 H 0.12346 0.77772 0.49529 0.0
C1734 C 0.12946 0.79619 0.51913 0.0
C1735 C 0.14148 0.82006 0.52924 0.0
C1736 C 0.16354 0.84574 0.47301 0.0
C1737 C 0.14762 0.82058 0.4967 0.0
C1738 C 0.16862 0.84627 0.4571 0.0
C1739 C 0.16268 0.82287 0.44779 0.0
C1740 C 0.15226 0.82161 0.47966 0.0
C1741 C 0.15117 0.7991 0.45482 0.0
C1742 C 0.1326 0.79635 0.50288 0.0
C1743 C 0.15604 0.84383 0.52255 0.0
N1744 N 0.14632 0.79907 0.47033 0.0
N1745 N 0.15869 0.84349 0.50671 0.0
H1746 H 0.67045 0.8042 0.13764 0.0
H1747 H 0.68931 0.88746 0.22122 0.0
H1748 H 0.6818 0.88308 0.14184 0.0
H1749 H 0.66862 0.80541 0.21638 0.0
H1750 H 0.68756 0.88665 0.19222 0.0
H1751 H 0.67107 0.8048 0.16657 0.0
C1752 C 0.67327 0.82173 0.14467 0.0
C1753 C 0.67618 0.84367 0.13733 0.0
C1754 C 0.68329 0.86879 0.1975 0.0
C1755 C 0.6766 0.84439 0.17045 0.0
C1756 C 0.68438 0.86927 0.21405 0.0
C1757 C 0.67915 0.84648 0.22122 0.0
C1758 C 0.6771 0.84539 0.18804 0.0
C1759 C 0.67254 0.82335 0.21134 0.0
C1760 C 0.6734 0.82198 0.16118 0.0
C1761 C 0.67928 0.86566 0.147 0.0
N1762 N 0.67184 0.82345 0.19526 0.0
N1763 N 0.67949 0.8655 0.16307 0.0
H1764 H 0.18814 0.82782 0.15257 0.0
H1765 H 0.20202 0.84499 0.24795 0.0
H1766 H 0.24412 0.81796 0.1825 0.0
H1767 H 0.14354 0.85267 0.21901 0.0
H1768 H 0.22046 0.83967 0.22394 0.0
H1769 H 0.17421 0.84128 0.17651 0.0
C1770 C 0.19769 0.82876 0.16416 0.0
C1771 C 0.21712 0.82147 0.16555 0.0
C1772 C 0.2037 0.8427 0.2228 0.0
C1773 C 0.2012 0.83667 0.19295 0.0
C1774 C 0.19327 0.846 0.23657 0.0
C1775 C 0.17111 0.84928 0.23556 0.0
C1776 C 0.19189 0.84251 0.20781 0.0
C1777 C 0.16038 0.84982 0.22037 0.0
C1778 C 0.18964 0.83631 0.17782 0.0
C1779 C 0.22871 0.82291 0.18087 0.0
N1780 N 0.17078 0.84632 0.20709 0.0
N1781 N 0.2205 0.83021 0.19394 0.0
H1782 H 0.20763 0.3477 0.15437 0.0
H1783 H 0.12829 0.32824 0.23086 0.0
H1784 H 0.14354 0.36353 0.15703 0.0
H1785 H 0.18015 0.29686 0.22413 0.0
H1786 H 0.13631 0.34455 0.20474 0.0
H1787 H 0.20079 0.3326 0.1809 0.0
C1788 C 0.19228 0.34823 0.1606 0.0
C1789 C 0.17611 0.35687 0.15345 0.0
C1790 C 0.14591 0.33406 0.20895 0.0
C1791 C 0.16805 0.33944 0.18378 0.0
C1792 C 0.14143 0.32484 0.2239 0.0
C1793 C 0.15358 0.31116 0.22971 0.0
C1794 C 0.16286 0.32981 0.19974 0.0
C1795 C 0.17018 0.30707 0.22007 0.0
C1796 C 0.18825 0.33941 0.17568 0.0
C1797 C 0.15629 0.35679 0.162 0.0
N1798 N 0.17442 0.31645 0.20559 0.0
N1799 N 0.15286 0.34826 0.1767 0.0
H1800 H 0.83986 0.67304 0.86634 0.0
H1801 H 0.78895 0.63591 0.77317 0.0
H1802 H 0.76688 0.60256 0.84747 0.0
H1803 H 0.86519 0.70165 0.79252 0.0
H1804 H 0.77996 0.62347 0.80011 0.0
H1805 H 0.84868 0.68419 0.83928 0.0
C1806 C 0.82558 0.65996 0.8565 0.0
C1807 C 0.80248 0.63691 0.85921 0.0
C1808 C 0.79866 0.6406 0.79844 0.0
C1809 C 0.81264 0.64946 0.82805 0.0
C1810 C 0.80388 0.64766 0.78304 0.0
C1811 C 0.82787 0.66995 0.78052 0.0
C1812 C 0.81752 0.65595 0.81145 0.0
C1813 C 0.84625 0.68459 0.79385 0.0
C1814 C 0.83073 0.66626 0.84102 0.0
C1815 C 0.785 0.62045 0.84593 0.0
N1816 N 0.84068 0.67736 0.8087 0.0
N1817 N 0.79038 0.6271 0.83093 0.0
H1818 H 0.35811 0.14157 0.84886 0.0
H1819 H 0.31206 0.19858 0.77863 0.0
H1820 H 0.37181 0.22132 0.85151 0.0
H1821 H 0.2932 0.11721 0.7768 0.0
H1822 H 0.32994 0.20588 0.80649 0.0
H1823 H 0.32996 0.13067 0.82379 0.0
C1824 C 0.35487 0.15668 0.8443 0.0
C1825 C 0.36762 0.1825 0.85217 0.0
C1826 C 0.32165 0.18633 0.80008 0.0
C1827 C 0.33576 0.17028 0.8234 0.0
C1828 C 0.31154 0.18221 0.78416 0.0
C1829 C 0.30145 0.15735 0.77538 0.0
C1830 C 0.32195 0.16552 0.80724 0.0
C1831 C 0.3008 0.13667 0.78317 0.0
C1832 C 0.3389 0.15048 0.82994 0.0
C1833 C 0.36286 0.20133 0.84565 0.0
N1834 N 0.31124 0.1413 0.79862 0.0
N1835 N 0.34752 0.19491 0.83158 0.0
H1836 H 0.82613 0.12693 0.86131 0.0
H1837 H 0.80718 0.17639 0.77838 0.0
H1838 H 0.79467 0.17919 0.85654 0.0
H1839 H 0.85836 0.14425 0.78709 0.0
H1840 H 0.79805 0.17335 0.80621 0.0
H1841 H 0.83337 0.12845 0.83319 0.0
C1842 C 0.82077 0.13876 0.85438 0.0
C1843 C 0.80991 0.15309 0.86139 0.0
C1844 C 0.81127 0.16697 0.80199 0.0
C1845 C 0.81783 0.15458 0.82908 0.0
C1846 C 0.81664 0.16885 0.78613 0.0
C1847 C 0.83363 0.16061 0.78032 0.0
C1848 C 0.82278 0.15659 0.81213 0.0
C1849 C 0.84482 0.15047 0.7909 0.0
C1850 C 0.82483 0.13953 0.8383 0.0
C1851 C 0.8028 0.16757 0.85166 0.0
N1852 N 0.83917 0.14872 0.80626 0.0
N1853 N 0.80692 0.16798 0.83602 0.0
H1854 H 0.35343 0.21739 0.47957 0.0
H1855 H 0.3339 0.13473 0.55432 0.0
H1856 H 0.33383 0.13565 0.47541 0.0
H1857 H 0.36229 0.21866 0.55861 0.0
H1858 H 0.33077 0.13389 0.52528 0.0
H1859 H 0.3541 0.21754 0.50851 0.0
C1860 C 0.34918 0.19945 0.48475 0.0
C1861 C 0.34365 0.1765 0.47507 0.0
C1862 C 0.33766 0.15248 0.53258 0.0
C1863 C 0.34446 0.17653 0.50818 0.0
C1864 C 0.33927 0.15293 0.54914 0.0
C1865 C 0.34848 0.17683 0.55889 0.0
C1866 C 0.34517 0.17607 0.5257 0.0
C1867 C 0.35544 0.19988 0.55155 0.0
C1868 C 0.34967 0.19957 0.50127 0.0
C1869 C 0.33855 0.15389 0.48243 0.0
N1870 N 0.35366 0.19893 0.53541 0.0
N1871 N 0.33904 0.15446 0.49854 0.0
H1872 H 0.90818 0.14242 0.51524 0.0
H1873 H 0.79646 0.1658 0.54969 0.0
H1874 H 0.8491 0.14721 0.48507 0.0
H1875 H 0.85955 0.16598 0.57881 0.0
H1876 H 0.816 0.16082 0.52581 0.0
H1877 H 0.89122 0.15274 0.53862 0.0
C1878 C 0.89162 0.1457 0.51355 0.0
C1879 C 0.87988 0.14373 0.4982 0.0
C1880 C 0.82557 0.16202 0.53744 0.0
C1881 C 0.86027 0.15559 0.52496 0.0
C1882 C 0.81447 0.16494 0.55107 0.0
C1883 C 0.82619 0.16597 0.56628 0.0
C1884 C 0.84855 0.16017 0.53905 0.0
C1885 C 0.84946 0.16465 0.56734 0.0
C1886 C 0.88199 0.15169 0.52691 0.0
C1887 C 0.85878 0.14863 0.4967 0.0
N1888 N 0.85978 0.16172 0.55394 0.0
N1889 N 0.84948 0.15412 0.50993 0.0
H1890 H 0.82055 0.72451 0.49217 0.0
H1891 H 0.84077 0.63849 0.55539 0.0
H1892 H 0.86629 0.68615 0.48523 0.0
H1893 H 0.80061 0.68211 0.56439 0.0
H1894 H 0.84993 0.65554 0.52955 0.0
H1895 H 0.81292 0.70925 0.5186 0.0
C1896 C 0.82903 0.71292 0.49621 0.0
C1897 C 0.84409 0.70662 0.48643 0.0
C1898 C 0.83914 0.66143 0.53717 0.0
C1899 C 0.83542 0.68906 0.51672 0.0
C1900 C 0.83373 0.65154 0.5519 0.0
C1901 C 0.81978 0.65876 0.56208 0.0
C1902 C 0.83045 0.67863 0.53248 0.0
C1903 C 0.81161 0.67616 0.557 0.0
C1904 C 0.82474 0.70429 0.51133 0.0
C1905 C 0.85483 0.69179 0.4924 0.0
N1906 N 0.81697 0.68541 0.54255 0.0
N1907 N 0.85018 0.68342 0.50709 0.0
loop_
_geom_bond_atom_site_label_1
_geom_bond_atom_site_label_2
_geom_bond_distance
_geom_bond_site_symmetry_2
_ccdc_geom_bond_type
P0 O11 1.490 . S
P0 C14 1.812 . S
P0 C20 1.803 . S
P0 C26 1.819 . S
H1 C15 0.941 . S
H2 C16 0.939 . S
H3 C18 0.940 . S
H4 C19 0.940 . S
H5 C21 0.939 . S
H6 C22 0.942 . S
H7 C24 0.940 . S
H8 C25 0.939 . S
H9 C27 0.941 . S
H10 C31 0.939 . S
O11 P0 1.490 . S
H12 C28 0.939 . S
H13 C30 0.940 . S
C14 P0 1.812 . S
C14 C15 1.389 . S
C14 C19 1.391 . S
C15 H1 0.941 . S
C15 C14 1.389 . S
C15 C16 1.397 . S
C16 H2 0.939 . S
C16 C15 1.397 . S
C16 C17 1.378 . S
C17 C16 1.378 . S
C17 C18 1.378 . S
C18 H3 0.940 . S
C18 C17 1.378 . S
C18 C19 1.396 . S
C19 H4 0.940 . S
C19 C14 1.391 . S
C19 C18 1.396 . S
C20 P0 1.803 . S
C20 C21 1.378 . S
C20 C25 1.400 . S
C21 H5 0.939 . S
C21 C20 1.378 . S
C21 C22 1.361 . S
C22 H6 0.942 . S
C22 C21 1.361 . S
C22 C23 1.369 . S
C23 C22 1.369 . S
C23 C24 1.404 . S
C24 H7 0.940 . S
C24 C23 1.404 . S
C24 C25 1.389 . S
C25 H8 0.939 . S
C25 C20 1.400 . S
C25 C24 1.389 . S
C26 P0 1.819 . S
C26 C27 1.391 . S
C26 C31 1.391 . S
C27 H9 0.941 . S
C27 C26 1.391 . S
C27 C28 1.396 . S
C28 H12 0.939 . S
C28 C27 1.396 . S
C28 C29 1.397 . S
C29 C28 1.397 . S
C29 C30 1.385 . S
C30 H13 0.940 . S
C30 C29 1.385 . S
C30 C31 1.388 . S
C31 H10 0.939 . S
C31 C26 1.391 . S
C31 C30 1.388 . S
P32 O43 1.490 . S
P32 C46 1.812 . S
P32 C52 1.803 . S
P32 C58 1.819 . S
H33 C47 0.941 . S
H34 C48 0.939 . S
H35 C50 0.940 . S
H36 C51 0.940 . S
H37 C53 0.939 . S
H38 C54 0.942 . S
H39 C56 0.940 . S
H40 C57 0.939 . S
H41 C59 0.941 . S
H42 C63 0.939 . S
O43 P32 1.490 . S
H44 C60 0.939 . S
H45 C62 0.940 . S
C46 P32 1.812 . S
C46 C47 1.389 . S
C46 C51 1.391 . S
C47 H33 0.941 . S
C47 C46 1.389 . S
C47 C48 1.397 . S
C48 H34 0.939 . S
C48 C47 1.397 . S
C48 C49 1.378 . S
C49 C48 1.378 . S
C49 C50 1.378 . S
C50 H35 0.940 . S
C50 C49 1.378 . S
C50 C51 1.396 . S
C51 H36 0.940 . S
C51 C46 1.391 . S
C51 C50 1.396 . S
C52 P32 1.803 . S
C52 C53 1.378 . S
C52 C57 1.400 . S
C53 H37 0.939 . S
C53 C52 1.378 . S
C53 C54 1.361 . S
C54 H38 0.942 . S
C54 C53 1.361 . S
C54 C55 1.369 . S
C55 C54 1.369 . S
C55 C56 1.404 . S
C56 H39 0.940 . S
C56 C55 1.404 . S
C56 C57 1.389 . S
C57 H40 0.939 . S
C57 C52 1.400 . S
C57 C56 1.389 . S
C58 P32 1.819 . S
C58 C59 1.391 . S
C58 C63 1.391 . S
C59 H41 0.941 . S
C59 C58 1.391 . S
C59 C60 1.396 . S
C60 H44 0.939 . S
C60 C59 1.396 . S
C60 C61 1.397 . S
C61 C60 1.397 . S
C61 C62 1.385 . S
C62 H45 0.940 . S
C62 C61 1.385 . S
C62 C63 1.388 . S
C63 H42 0.939 . S
C63 C58 1.391 . S
C63 C62 1.388 . S
P64 O75 1.490 . S
P64 C78 1.812 . S
P64 C84 1.803 . S
P64 C90 1.819 . S
H65 C79 0.941 . S
H66 C80 0.939 . S
H67 C82 0.940 . S
H68 C83 0.940 . S
H69 C85 0.939 . S
H70 C86 0.942 . S
H71 C88 0.940 . S
H72 C89 0.939 . S
H73 C91 0.941 . S
H74 C95 0.939 . S
O75 P64 1.490 . S
H76 C92 0.939 . S
H77 C94 0.940 . S
C78 P64 1.812 . S
C78 C79 1.389 . S
C78 C83 1.391 . S
C79 H65 0.941 . S
C79 C78 1.389 . S
C79 C80 1.397 . S
C80 H66 0.939 . S
C80 C79 1.397 . S
C80 C81 1.378 . S
C81 C80 1.378 . S
C81 C82 1.378 . S
C82 H67 0.940 . S
C82 C81 1.378 . S
C82 C83 1.396 . S
C83 H68 0.940 . S
C83 C78 1.391 . S
C83 C82 1.396 . S
C84 P64 1.803 . S
C84 C85 1.378 . S
C84 C89 1.400 . S
C85 H69 0.939 . S
C85 C84 1.378 . S
C85 C86 1.361 . S
C86 H70 0.942 . S
C86 C85 1.361 . S
C86 C87 1.369 . S
C87 C86 1.369 . S
C87 C88 1.404 . S
C88 H71 0.940 . S
C88 C87 1.404 . S
C88 C89 1.389 . S
C89 H72 0.939 . S
C89 C84 1.400 . S
C89 C88 1.389 . S
C90 P64 1.819 . S
C90 C91 1.391 . S
C90 C95 1.391 . S
C91 H73 0.941 . S
C91 C90 1.391 . S
C91 C92 1.396 . S
C92 H76 0.939 . S
C92 C91 1.396 . S
C92 C93 1.397 . S
C93 C92 1.397 . S
C93 C94 1.385 . S
C94 H77 0.940 . S
C94 C93 1.385 . S
C94 C95 1.388 . S
C95 H74 0.939 . S
C95 C90 1.391 . S
C95 C94 1.388 . S
P96 O107 1.490 . S
P96 C110 1.812 . S
P96 C116 1.803 . S
P96 C122 1.819 . S
H97 C111 0.941 . S
H98 C112 0.939 . S
H99 C114 0.940 . S
H100 C115 0.940 . S
H101 C117 0.939 . S
H102 C118 0.942 . S
H103 C120 0.940 . S
H104 C121 0.939 . S
H105 C123 0.941 . S
H106 C127 0.939 . S
O107 P96 1.490 . S
H108 C124 0.939 . S
H109 C126 0.940 . S
C110 P96 1.812 . S
C110 C111 1.389 . S
C110 C115 1.391 . S
C111 H97 0.941 . S
C111 C110 1.389 . S
C111 C112 1.397 . S
C112 H98 0.939 . S
C112 C111 1.397 . S
C112 C113 1.378 . S
C113 C112 1.378 . S
C113 C114 1.378 . S
C114 H99 0.940 . S
C114 C113 1.378 . S
C114 C115 1.396 . S
C115 H100 0.940 . S
C115 C110 1.391 . S
C115 C114 1.396 . S
C116 P96 1.803 . S
C116 C117 1.378 . S
C116 C121 1.400 . S
C117 H101 0.939 . S
C117 C116 1.378 . S
C117 C118 1.361 . S
C118 H102 0.942 . S
C118 C117 1.361 . S
C118 C119 1.369 . S
C119 C118 1.369 . S
C119 C120 1.404 . S
C120 H103 0.940 . S
C120 C119 1.404 . S
C120 C121 1.389 . S
C121 H104 0.939 . S
C121 C116 1.400 . S
C121 C120 1.389 . S
C122 P96 1.819 . S
C122 C123 1.391 . S
C122 C127 1.391 . S
C123 H105 0.941 . S
C123 C122 1.391 . S
C123 C124 1.396 . S
C124 H108 0.939 . S
C124 C123 1.396 . S
C124 C125 1.397 . S
C125 C124 1.397 . S
C125 C126 1.385 . S
C126 H109 0.940 . S
C126 C125 1.385 . S
C126 C127 1.388 . S
C127 H106 0.939 . S
C127 C122 1.391 . S
C127 C126 1.388 . S
P128 O139 1.490 . S
P128 C142 1.812 . S
P128 C148 1.803 . S
P128 C154 1.819 . S
H129 C143 0.941 . S
H130 C144 0.939 . S
H131 C146 0.940 . S
H132 C147 0.940 . S
H133 C149 0.939 . S
H134 C150 0.942 . S
H135 C152 0.940 . S
H136 C153 0.939 . S
H137 C155 0.941 . S
H138 C159 0.939 . S
O139 P128 1.490 . S
H140 C156 0.939 . S
H141 C158 0.940 . S
C142 P128 1.812 . S
C142 C143 1.389 . S
C142 C147 1.391 . S
C143 H129 0.941 . S
C143 C142 1.389 . S
C143 C144 1.397 . S
C144 H130 0.939 . S
C144 C143 1.397 . S
C144 C145 1.378 . S
C145 C144 1.378 . S
C145 C146 1.378 . S
C146 H131 0.940 . S
C146 C145 1.378 . S
C146 C147 1.396 . S
C147 H132 0.940 . S
C147 C142 1.391 . S
C147 C146 1.396 . S
C148 P128 1.803 . S
C148 C149 1.378 . S
C148 C153 1.400 . S
C149 H133 0.939 . S
C149 C148 1.378 . S
C149 C150 1.361 . S
C150 H134 0.942 . S
C150 C149 1.361 . S
C150 C151 1.369 . S
C151 C150 1.369 . S
C151 C152 1.404 . S
C152 H135 0.940 . S
C152 C151 1.404 . S
C152 C153 1.389 . S
C153 H136 0.939 . S
C153 C148 1.400 . S
C153 C152 1.389 . S
C154 P128 1.819 . S
C154 C155 1.391 . S
C154 C159 1.391 . S
C155 H137 0.941 . S
C155 C154 1.391 . S
C155 C156 1.396 . S
C156 H140 0.939 . S
C156 C155 1.396 . S
C156 C157 1.397 . S
C157 C156 1.397 . S
C157 C158 1.385 . S
C158 H141 0.940 . S
C158 C157 1.385 . S
C158 C159 1.388 . S
C159 H138 0.939 . S
C159 C154 1.391 . S
C159 C158 1.388 . S
P160 O171 1.490 . S
P160 C174 1.812 . S
P160 C180 1.803 . S
P160 C186 1.819 . S
H161 C175 0.941 . S
H162 C176 0.939 . S
H163 C178 0.940 . S
H164 C179 0.940 . S
H165 C181 0.939 . S
H166 C182 0.942 . S
H167 C184 0.940 . S
H168 C185 0.939 . S
H169 C187 0.941 . S
H170 C191 0.939 . S
O171 P160 1.490 . S
H172 C188 0.939 . S
H173 C190 0.940 . S
C174 P160 1.812 . S
C174 C175 1.389 . S
C174 C179 1.391 . S
C175 H161 0.941 . S
C175 C174 1.389 . S
C175 C176 1.397 . S
C176 H162 0.939 . S
C176 C175 1.397 . S
C176 C177 1.378 . S
C177 C176 1.378 . S
C177 C178 1.378 . S
C178 H163 0.940 . S
C178 C177 1.378 . S
C178 C179 1.396 . S
C179 H164 0.940 . S
C179 C174 1.391 . S
C179 C178 1.396 . S
C180 P160 1.803 . S
C180 C181 1.378 . S
C180 C185 1.400 . S
C181 H165 0.939 . S
C181 C180 1.378 . S
C181 C182 1.361 . S
C182 H166 0.942 . S
C182 C181 1.361 . S
C182 C183 1.369 . S
C183 C182 1.369 . S
C183 C184 1.404 . S
C184 H167 0.940 . S
C184 C183 1.404 . S
C184 C185 1.389 . S
C185 H168 0.939 . S
C185 C180 1.400 . S
C185 C184 1.389 . S
C186 P160 1.819 . S
C186 C187 1.391 . S
C186 C191 1.391 . S
C187 H169 0.941 . S
C187 C186 1.391 . S
C187 C188 1.396 . S
C188 H172 0.939 . S
C188 C187 1.396 . S
C188 C189 1.397 . S
C189 C188 1.397 . S
C189 C190 1.385 . S
C190 H173 0.940 . S
C190 C189 1.385 . S
C190 C191 1.388 . S
C191 H170 0.939 . S
C191 C186 1.391 . S
C191 C190 1.388 . S
P192 O203 1.490 1_655 S
P192 C206 1.812 . S
P192 C212 1.803 . S
P192 C218 1.819 . S
H193 C207 0.941 . S
H194 C208 0.939 . S
H195 C210 0.940 . S
H196 C211 0.940 . S
H197 C213 0.939 1_455 S
H198 C214 0.942 . S
H199 C216 0.940 . S
H200 C217 0.939 . S
H201 C219 0.941 . S
H202 C223 0.939 . S
O203 P192 1.490 1_455 S
H204 C220 0.939 . S
H205 C222 0.940 . S
C206 P192 1.812 . S
C206 C207 1.389 . S
C206 C211 1.391 . S
C207 H193 0.941 . S
C207 C206 1.389 . S
C207 C208 1.397 . S
C208 H194 0.939 . S
C208 C207 1.397 . S
C208 C209 1.378 . S
C209 C208 1.378 . S
C209 C210 1.378 . S
C210 H195 0.940 . S
C210 C209 1.378 . S
C210 C211 1.396 . S
C211 H196 0.940 . S
C211 C206 1.391 . S
C211 C210 1.396 . S
C212 P192 1.803 . S
C212 C213 1.378 . S
C212 C217 1.400 . S
C213 H197 0.939 1_655 S
C213 C212 1.378 . S
C213 C214 1.361 . S
C214 H198 0.942 . S
C214 C213 1.361 . S
C214 C215 1.369 . S
C215 C214 1.369 . S
C215 C216 1.404 . S
C216 H199 0.940 . S
C216 C215 1.404 . S
C216 C217 1.389 . S
C217 H200 0.939 . S
C217 C212 1.400 . S
C217 C216 1.389 . S
C218 P192 1.819 . S
C218 C219 1.391 1_655 S
C218 C223 1.391 . S
C219 H201 0.941 . S
C219 C218 1.391 1_455 S
C219 C220 1.396 . S
C220 H204 0.939 . S
C220 C219 1.396 . S
C220 C221 1.397 1_455 S
C221 C220 1.397 1_655 S
C221 C222 1.385 . S
C222 H205 0.940 . S
C222 C221 1.385 . S
C222 C223 1.388 . S
C223 H202 0.939 . S
C223 C218 1.391 . S
C223 C222 1.388 . S
P224 O235 1.490 . S
P224 C238 1.812 . S
P224 C244 1.803 . S
P224 C250 1.819 . S
H225 C239 0.941 . S
H226 C240 0.939 . S
H227 C242 0.940 . S
H228 C243 0.940 . S
H229 C245 0.939 . S
H230 C246 0.942 . S
H231 C248 0.940 . S
H232 C249 0.939 . S
H233 C251 0.941 . S
H234 C255 0.939 . S
O235 P224 1.490 . S
H236 C252 0.939 . S
H237 C254 0.940 . S
C238 P224 1.812 . S
C238 C239 1.389 . S
C238 C243 1.391 . S
C239 H225 0.941 . S
C239 C238 1.389 . S
C239 C240 1.397 . S
C240 H226 0.939 . S
C240 C239 1.397 . S
C240 C241 1.378 . S
C241 C240 1.378 . S
C241 C242 1.378 . S
C242 H227 0.940 . S
C242 C241 1.378 . S
C242 C243 1.396 . S
C243 H228 0.940 . S
C243 C238 1.391 . S
C243 C242 1.396 . S
C244 P224 1.803 . S
C244 C245 1.378 . S
C244 C249 1.400 . S
C245 H229 0.939 . S
C245 C244 1.378 . S
C245 C246 1.361 . S
C246 H230 0.942 . S
C246 C245 1.361 . S
C246 C247 1.369 . S
C247 C246 1.369 . S
C247 C248 1.404 . S
C248 H231 0.940 . S
C248 C247 1.404 . S
C248 C249 1.389 . S
C249 H232 0.939 . S
C249 C244 1.400 . S
C249 C248 1.389 . S
C250 P224 1.819 . S
C250 C251 1.391 . S
C250 C255 1.391 . S
C251 H233 0.941 . S
C251 C250 1.391 . S
C251 C252 1.396 . S
C252 H236 0.939 . S
C252 C251 1.396 . S
C252 C253 1.397 . S
C253 C252 1.397 . S
C253 C254 1.385 . S
C254 H237 0.940 . S
C254 C253 1.385 . S
C254 C255 1.388 . S
C255 H234 0.939 . S
C255 C250 1.391 . S
C255 C254 1.388 . S
P256 O267 1.490 . S
P256 C270 1.812 . S
P256 C276 1.803 . S
P256 C282 1.819 . S
H257 C271 0.941 . S
H258 C272 0.939 . S
H259 C274 0.940 . S
H260 C275 0.940 . S
H261 C277 0.939 . S
H262 C278 0.942 . S
H263 C280 0.940 . S
H264 C281 0.939 . S
H265 C283 0.941 . S
H266 C287 0.939 . S
O267 P256 1.490 . S
H268 C284 0.939 . S
H269 C286 0.940 . S
C270 P256 1.812 . S
C270 C271 1.389 . S
C270 C275 1.391 . S
C271 H257 0.941 . S
C271 C270 1.389 . S
C271 C272 1.397 . S
C272 H258 0.939 . S
C272 C271 1.397 . S
C272 C273 1.378 . S
C273 C272 1.378 . S
C273 C274 1.378 . S
C274 H259 0.940 . S
C274 C273 1.378 . S
C274 C275 1.396 . S
C275 H260 0.940 . S
C275 C270 1.391 . S
C275 C274 1.396 . S
C276 P256 1.803 . S
C276 C277 1.378 . S
C276 C281 1.400 . S
C277 H261 0.939 . S
C277 C276 1.378 . S
C277 C278 1.361 . S
C278 H262 0.942 . S
C278 C277 1.361 . S
C278 C279 1.369 . S
C279 C278 1.369 . S
C279 C280 1.404 . S
C280 H263 0.940 . S
C280 C279 1.404 . S
C280 C281 1.389 . S
C281 H264 0.939 . S
C281 C276 1.400 . S
C281 C280 1.389 . S
C282 P256 1.819 . S
C282 C283 1.391 . S
C282 C287 1.391 . S
C283 H265 0.941 . S
C283 C282 1.391 . S
C283 C284 1.396 . S
C284 H268 0.939 . S
C284 C283 1.396 . S
C284 C285 1.397 . S
C285 C284 1.397 . S
C285 C286 1.385 . S
C286 H269 0.940 . S
C286 C285 1.385 . S
C286 C287 1.388 . S
C287 H266 0.939 . S
C287 C282 1.391 . S
C287 C286 1.388 . S
P288 O299 1.490 . S
P288 C302 1.812 . S
P288 C308 1.803 . S
P288 C314 1.819 . S
H289 C303 0.941 . S
H290 C304 0.939 . S
H291 C306 0.940 . S
H292 C307 0.940 . S
H293 C309 0.939 . S
H294 C310 0.942 . S
H295 C312 0.940 . S
H296 C313 0.939 . S
H297 C315 0.941 . S
H298 C319 0.939 . S
O299 P288 1.490 . S
H300 C316 0.939 . S
H301 C318 0.940 . S
C302 P288 1.812 . S
C302 C303 1.389 . S
C302 C307 1.391 . S
C303 H289 0.941 . S
C303 C302 1.389 . S
C303 C304 1.397 . S
C304 H290 0.939 . S
C304 C303 1.397 . S
C304 C305 1.378 . S
C305 C304 1.378 . S
C305 C306 1.378 . S
C306 H291 0.940 . S
C306 C305 1.378 . S
C306 C307 1.396 . S
C307 H292 0.940 . S
C307 C302 1.391 . S
C307 C306 1.396 . S
C308 P288 1.803 . S
C308 C309 1.378 . S
C308 C313 1.400 . S
C309 H293 0.939 . S
C309 C308 1.378 . S
C309 C310 1.361 . S
C310 H294 0.942 . S
C310 C309 1.361 . S
C310 C311 1.369 . S
C311 C310 1.369 . S
C311 C312 1.404 . S
C312 H295 0.940 . S
C312 C311 1.404 . S
C312 C313 1.389 . S
C313 H296 0.939 . S
C313 C308 1.400 . S
C313 C312 1.389 . S
C314 P288 1.819 . S
C314 C315 1.391 . S
C314 C319 1.391 . S
C315 H297 0.941 . S
C315 C314 1.391 . S
C315 C316 1.396 . S
C316 H300 0.939 . S
C316 C315 1.396 . S
C316 C317 1.397 . S
C317 C316 1.397 . S
C317 C318 1.385 . S
C318 H301 0.940 . S
C318 C317 1.385 . S
C318 C319 1.388 . S
C319 H298 0.939 . S
C319 C314 1.391 . S
C319 C318 1.388 . S
P320 O331 1.490 . S
P320 C334 1.812 . S
P320 C340 1.803 . S
P320 C346 1.819 . S
H321 C335 0.941 . S
H322 C336 0.939 . S
H323 C338 0.940 . S
H324 C339 0.940 . S
H325 C341 0.939 . S
H326 C342 0.942 . S
H327 C344 0.940 . S
H328 C345 0.939 . S
H329 C347 0.941 . S
H330 C351 0.939 . S
O331 P320 1.490 . S
H332 C348 0.939 . S
H333 C350 0.940 . S
C334 P320 1.812 . S
C334 C335 1.389 . S
C334 C339 1.391 . S
C335 H321 0.941 . S
C335 C334 1.389 . S
C335 C336 1.397 . S
C336 H322 0.939 . S
C336 C335 1.397 . S
C336 C337 1.378 . S
C337 C336 1.378 . S
C337 C338 1.378 . S
C338 H323 0.940 . S
C338 C337 1.378 . S
C338 C339 1.396 . S
C339 H324 0.940 . S
C339 C334 1.391 . S
C339 C338 1.396 . S
C340 P320 1.803 . S
C340 C341 1.378 . S
C340 C345 1.400 . S
C341 H325 0.939 . S
C341 C340 1.378 . S
C341 C342 1.361 . S
C342 H326 0.942 . S
C342 C341 1.361 . S
C342 C343 1.369 . S
C343 C342 1.369 . S
C343 C344 1.404 . S
C344 H327 0.940 . S
C344 C343 1.404 . S
C344 C345 1.389 . S
C345 H328 0.939 . S
C345 C340 1.400 . S
C345 C344 1.389 . S
C346 P320 1.819 . S
C346 C347 1.391 . S
C346 C351 1.391 . S
C347 H329 0.941 . S
C347 C346 1.391 . S
C347 C348 1.396 . S
C348 H332 0.939 . S
C348 C347 1.396 . S
C348 C349 1.397 . S
C349 C348 1.397 . S
C349 C350 1.385 . S
C350 H333 0.940 . S
C350 C349 1.385 . S
C350 C351 1.388 . S
C351 H330 0.939 . S
C351 C346 1.391 . S
C351 C350 1.388 . S
P352 O363 1.490 . S
P352 C366 1.812 . S
P352 C372 1.803 . S
P352 C378 1.819 . S
H353 C367 0.941 . S
H354 C368 0.939 . S
H355 C370 0.940 . S
H356 C371 0.940 . S
H357 C373 0.939 . S
H358 C374 0.942 . S
H359 C376 0.940 . S
H360 C377 0.939 . S
H361 C379 0.941 . S
H362 C383 0.939 . S
O363 P352 1.490 . S
H364 C380 0.939 . S
H365 C382 0.940 . S
C366 P352 1.812 . S
C366 C367 1.389 . S
C366 C371 1.391 . S
C367 H353 0.941 . S
C367 C366 1.389 . S
C367 C368 1.397 . S
C368 H354 0.939 . S
C368 C367 1.397 . S
C368 C369 1.378 . S
C369 C368 1.378 . S
C369 C370 1.378 . S
C370 H355 0.940 . S
C370 C369 1.378 . S
C370 C371 1.396 . S
C371 H356 0.940 . S
C371 C366 1.391 . S
C371 C370 1.396 . S
C372 P352 1.803 . S
C372 C373 1.378 . S
C372 C377 1.400 . S
C373 H357 0.939 . S
C373 C372 1.378 . S
C373 C374 1.361 . S
C374 H358 0.942 . S
C374 C373 1.361 . S
C374 C375 1.369 . S
C375 C374 1.369 . S
C375 C376 1.404 . S
C376 H359 0.940 . S
C376 C375 1.404 . S
C376 C377 1.389 . S
C377 H360 0.939 . S
C377 C372 1.400 . S
C377 C376 1.389 . S
C378 P352 1.819 . S
C378 C379 1.391 . S
C378 C383 1.391 . S
C379 H361 0.941 . S
C379 C378 1.391 . S
C379 C380 1.396 . S
C380 H364 0.939 . S
C380 C379 1.396 . S
C380 C381 1.397 . S
C381 C380 1.397 . S
C381 C382 1.385 . S
C382 H365 0.940 . S
C382 C381 1.385 . S
C382 C383 1.388 . S
C383 H362 0.939 . S
C383 C378 1.391 . S
C383 C382 1.388 . S
P384 O395 1.490 . S
P384 C398 1.812 . S
P384 C404 1.803 . S
P384 C410 1.819 . S
H385 C399 0.941 . S
H386 C400 0.939 . S
H387 C402 0.940 . S
H388 C403 0.940 . S
H389 C405 0.939 . S
H390 C406 0.942 . S
H391 C408 0.940 . S
H392 C409 0.939 . S
H393 C411 0.941 . S
H394 C415 0.939 . S
O395 P384 1.490 . S
H396 C412 0.939 . S
H397 C414 0.940 . S
C398 P384 1.812 . S
C398 C399 1.389 . S
C398 C403 1.391 . S
C399 H385 0.941 . S
C399 C398 1.389 . S
C399 C400 1.397 . S
C400 H386 0.939 . S
C400 C399 1.397 . S
C400 C401 1.378 . S
C401 C400 1.378 . S
C401 C402 1.378 . S
C402 H387 0.940 . S
C402 C401 1.378 . S
C402 C403 1.396 . S
C403 H388 0.940 . S
C403 C398 1.391 . S
C403 C402 1.396 . S
C404 P384 1.803 . S
C404 C405 1.378 . S
C404 C409 1.400 . S
C405 H389 0.939 . S
C405 C404 1.378 . S
C405 C406 1.361 . S
C406 H390 0.942 . S
C406 C405 1.361 . S
C406 C407 1.369 . S
C407 C406 1.369 . S
C407 C408 1.404 . S
C408 H391 0.940 . S
C408 C407 1.404 . S
C408 C409 1.389 . S
C409 H392 0.939 . S
C409 C404 1.400 . S
C409 C408 1.389 . S
C410 P384 1.819 . S
C410 C411 1.391 . S
C410 C415 1.391 . S
C411 H393 0.941 . S
C411 C410 1.391 . S
C411 C412 1.396 . S
C412 H396 0.939 . S
C412 C411 1.396 . S
C412 C413 1.397 . S
C413 C412 1.397 . S
C413 C414 1.385 . S
C414 H397 0.940 . S
C414 C413 1.385 . S
C414 C415 1.388 . S
C415 H394 0.939 . S
C415 C410 1.391 . S
C415 C414 1.388 . S
P416 O427 1.490 . S
P416 C430 1.812 . S
P416 C436 1.803 . S
P416 C442 1.819 . S
H417 C431 0.941 . S
H418 C432 0.939 . S
H419 C434 0.940 . S
H420 C435 0.940 . S
H421 C437 0.939 . S
H422 C438 0.942 . S
H423 C440 0.940 . S
H424 C441 0.939 . S
H425 C443 0.941 . S
H426 C447 0.939 . S
O427 P416 1.490 . S
H428 C444 0.939 . S
H429 C446 0.940 . S
C430 P416 1.812 . S
C430 C431 1.389 . S
C430 C435 1.391 . S
C431 H417 0.941 . S
C431 C430 1.389 . S
C431 C432 1.397 . S
C432 H418 0.939 . S
C432 C431 1.397 . S
C432 C433 1.378 . S
C433 C432 1.378 . S
C433 C434 1.378 . S
C434 H419 0.940 . S
C434 C433 1.378 . S
C434 C435 1.396 . S
C435 H420 0.940 . S
C435 C430 1.391 . S
C435 C434 1.396 . S
C436 P416 1.803 . S
C436 C437 1.378 . S
C436 C441 1.400 . S
C437 H421 0.939 . S
C437 C436 1.378 . S
C437 C438 1.361 . S
C438 H422 0.942 . S
C438 C437 1.361 . S
C438 C439 1.369 . S
C439 C438 1.369 . S
C439 C440 1.404 . S
C440 H423 0.940 . S
C440 C439 1.404 . S
C440 C441 1.389 . S
C441 H424 0.939 . S
C441 C436 1.400 . S
C441 C440 1.389 . S
C442 P416 1.819 . S
C442 C443 1.391 . S
C442 C447 1.391 . S
C443 H425 0.941 . S
C443 C442 1.391 . S
C443 C444 1.396 . S
C444 H428 0.939 . S
C444 C443 1.396 . S
C444 C445 1.397 . S
C445 C444 1.397 . S
C445 C446 1.385 . S
C446 H429 0.940 . S
C446 C445 1.385 . S
C446 C447 1.388 . S
C447 H426 0.939 . S
C447 C442 1.391 . S
C447 C446 1.388 . S
P448 O459 1.490 . S
P448 C462 1.812 . S
P448 C468 1.803 . S
P448 C474 1.819 . S
H449 C463 0.941 . S
H450 C464 0.939 . S
H451 C466 0.940 . S
H452 C467 0.940 . S
H453 C469 0.939 . S
H454 C470 0.942 . S
H455 C472 0.940 . S
H456 C473 0.939 . S
H457 C475 0.941 . S
H458 C479 0.939 . S
O459 P448 1.490 . S
H460 C476 0.939 . S
H461 C478 0.940 . S
C462 P448 1.812 . S
C462 C463 1.389 . S
C462 C467 1.391 . S
C463 H449 0.941 . S
C463 C462 1.389 . S
C463 C464 1.397 . S
C464 H450 0.939 . S
C464 C463 1.397 . S
C464 C465 1.378 . S
C465 C464 1.378 . S
C465 C466 1.378 . S
C466 H451 0.940 . S
C466 C465 1.378 . S
C466 C467 1.396 . S
C467 H452 0.940 . S
C467 C462 1.391 . S
C467 C466 1.396 . S
C468 P448 1.803 . S
C468 C469 1.378 . S
C468 C473 1.400 . S
C469 H453 0.939 . S
C469 C468 1.378 . S
C469 C470 1.361 . S
C470 H454 0.942 . S
C470 C469 1.361 . S
C470 C471 1.369 . S
C471 C470 1.369 . S
C471 C472 1.404 . S
C472 H455 0.940 . S
C472 C471 1.404 . S
C472 C473 1.389 . S
C473 H456 0.939 . S
C473 C468 1.400 . S
C473 C472 1.389 . S
C474 P448 1.819 . S
C474 C475 1.391 . S
C474 C479 1.391 . S
C475 H457 0.941 . S
C475 C474 1.391 . S
C475 C476 1.396 . S
C476 H460 0.939 . S
C476 C475 1.396 . S
C476 C477 1.397 . S
C477 C476 1.397 . S
C477 C478 1.385 . S
C478 H461 0.940 . S
C478 C477 1.385 . S
C478 C479 1.388 . S
C479 H458 0.939 . S
C479 C474 1.391 . S
C479 C478 1.388 . S
P480 O491 1.490 . S
P480 C494 1.812 . S
P480 C500 1.803 . S
P480 C506 1.819 . S
H481 C495 0.941 . S
H482 C496 0.939 . S
H483 C498 0.940 . S
H484 C499 0.940 . S
H485 C501 0.939 . S
H486 C502 0.942 . S
H487 C504 0.940 . S
H488 C505 0.939 . S
H489 C507 0.941 . S
H490 C511 0.939 . S
O491 P480 1.490 . S
H492 C508 0.939 . S
H493 C510 0.940 . S
C494 P480 1.812 . S
C494 C495 1.389 . S
C494 C499 1.391 . S
C495 H481 0.941 . S
C495 C494 1.389 . S
C495 C496 1.397 . S
C496 H482 0.939 . S
C496 C495 1.397 . S
C496 C497 1.378 . S
C497 C496 1.378 . S
C497 C498 1.378 . S
C498 H483 0.940 . S
C498 C497 1.378 . S
C498 C499 1.396 . S
C499 H484 0.940 . S
C499 C494 1.391 . S
C499 C498 1.396 . S
C500 P480 1.803 . S
C500 C501 1.378 . S
C500 C505 1.400 . S
C501 H485 0.939 . S
C501 C500 1.378 . S
C501 C502 1.361 . S
C502 H486 0.942 . S
C502 C501 1.361 . S
C502 C503 1.369 . S
C503 C502 1.369 . S
C503 C504 1.404 . S
C504 H487 0.940 . S
C504 C503 1.404 . S
C504 C505 1.389 . S
C505 H488 0.939 . S
C505 C500 1.400 . S
C505 C504 1.389 . S
C506 P480 1.819 . S
C506 C507 1.391 . S
C506 C511 1.391 . S
C507 H489 0.941 . S
C507 C506 1.391 . S
C507 C508 1.396 . S
C508 H492 0.939 . S
C508 C507 1.396 . S
C508 C509 1.397 . S
C509 C508 1.397 . S
C509 C510 1.385 . S
C510 H493 0.940 . S
C510 C509 1.385 . S
C510 C511 1.388 . S
C511 H490 0.939 . S
C511 C506 1.391 . S
C511 C510 1.388 . S
P512 O523 1.490 . S
P512 C526 1.812 . S
P512 C532 1.803 . S
P512 C538 1.819 . S
H513 C527 0.941 . S
H514 C528 0.939 . S
H515 C530 0.940 . S
H516 C531 0.940 . S
H517 C533 0.939 . S
H518 C534 0.942 . S
H519 C536 0.940 . S
H520 C537 0.939 . S
H521 C539 0.941 . S
H522 C543 0.939 . S
O523 P512 1.490 . S
H524 C540 0.939 . S
H525 C542 0.940 . S
C526 P512 1.812 . S
C526 C527 1.389 . S
C526 C531 1.391 . S
C527 H513 0.941 . S
C527 C526 1.389 . S
C527 C528 1.397 . S
C528 H514 0.939 . S
C528 C527 1.397 . S
C528 C529 1.378 . S
C529 C528 1.378 . S
C529 C530 1.378 . S
C530 H515 0.940 . S
C530 C529 1.378 . S
C530 C531 1.396 . S
C531 H516 0.940 . S
C531 C526 1.391 . S
C531 C530 1.396 . S
C532 P512 1.803 . S
C532 C533 1.378 . S
C532 C537 1.400 . S
C533 H517 0.939 . S
C533 C532 1.378 . S
C533 C534 1.361 . S
C534 H518 0.942 . S
C534 C533 1.361 . S
C534 C535 1.369 . S
C535 C534 1.369 . S
C535 C536 1.404 . S
C536 H519 0.940 . S
C536 C535 1.404 . S
C536 C537 1.389 . S
C537 H520 0.939 . S
C537 C532 1.400 . S
C537 C536 1.389 . S
C538 P512 1.819 . S
C538 C539 1.391 . S
C538 C543 1.391 . S
C539 H521 0.941 . S
C539 C538 1.391 . S
C539 C540 1.396 . S
C540 H524 0.939 . S
C540 C539 1.396 . S
C540 C541 1.397 . S
C541 C540 1.397 . S
C541 C542 1.385 . S
C542 H525 0.940 . S
C542 C541 1.385 . S
C542 C543 1.388 . S
C543 H522 0.939 . S
C543 C538 1.391 . S
C543 C542 1.388 . S
P544 O555 1.490 . S
P544 C558 1.812 . S
P544 C564 1.803 . S
P544 C570 1.819 . S
H545 C559 0.941 . S
H546 C560 0.939 . S
H547 C562 0.940 . S
H548 C563 0.940 . S
H549 C565 0.939 . S
H550 C566 0.942 . S
H551 C568 0.940 . S
H552 C569 0.939 . S
H553 C571 0.941 . S
H554 C575 0.939 . S
O555 P544 1.490 . S
H556 C572 0.939 . S
H557 C574 0.940 . S
C558 P544 1.812 . S
C558 C559 1.389 . S
C558 C563 1.391 . S
C559 H545 0.941 . S
C559 C558 1.389 . S
C559 C560 1.397 . S
C560 H546 0.939 . S
C560 C559 1.397 . S
C560 C561 1.378 . S
C561 C560 1.378 . S
C561 C562 1.378 . S
C562 H547 0.940 . S
C562 C561 1.378 . S
C562 C563 1.396 . S
C563 H548 0.940 . S
C563 C558 1.391 . S
C563 C562 1.396 . S
C564 P544 1.803 . S
C564 C565 1.378 . S
C564 C569 1.400 . S
C565 H549 0.939 . S
C565 C564 1.378 . S
C565 C566 1.361 . S
C566 H550 0.942 . S
C566 C565 1.361 . S
C566 C567 1.369 . S
C567 C566 1.369 . S
C567 C568 1.404 . S
C568 H551 0.940 . S
C568 C567 1.404 . S
C568 C569 1.389 . S
C569 H552 0.939 . S
C569 C564 1.400 . S
C569 C568 1.389 . S
C570 P544 1.819 . S
C570 C571 1.391 . S
C570 C575 1.391 . S
C571 H553 0.941 . S
C571 C570 1.391 . S
C571 C572 1.396 . S
C572 H556 0.939 . S
C572 C571 1.396 . S
C572 C573 1.397 . S
C573 C572 1.397 . S
C573 C574 1.385 . S
C574 H557 0.940 . S
C574 C573 1.385 . S
C574 C575 1.388 . S
C575 H554 0.939 . S
C575 C570 1.391 . S
C575 C574 1.388 . S
Eu576 C585 2.828 . S
Eu576 O587 2.366 1_556 S
Eu576 O589 2.418 . S
Eu576 O594 2.373 1_565 S
Eu576 O597 2.488 . S
Eu576 O598 2.471 1_565 S
Eu576 O599 2.349 1_565 S
Eu577 O586 2.373 1_545 S
Eu577 O590 2.488 . S
Eu577 O591 2.471 1_545 S
Eu577 O592 2.349 1_545 S
Eu577 O595 2.392 . S
Eu577 O596 2.418 . S
Eu577 C606 2.828 . S
C578 O596 1.298 . S
C578 O599 1.245 1_554 S
C579 C580 1.379 1_565 S
C579 C583 1.373 . S
C579 C585 1.505 . S
C580 C579 1.379 1_545 S
C580 C582 1.369 . S
C580 H608 0.930 . S
C581 C583 1.383 . S
C581 C584 1.382 1_565 S
C581 H609 0.930 . S
C582 C580 1.369 . S
C582 C584 1.392 . S
C582 H610 0.930 . S
C583 C579 1.373 . S
C583 C581 1.383 . S
C583 H611 0.931 . S
C584 C581 1.382 1_545 S
C584 C582 1.392 . S
C585 Eu576 2.828 . S
C585 C579 1.505 . S
C585 O597 1.249 . S
C585 O598 1.244 1_565 S
O586 Eu577 2.373 1_565 S
O586 C588 1.258 . S
O587 Eu576 2.366 1_554 S
O587 C588 1.274 . S
C588 O586 1.258 . S
C588 O587 1.274 . S
O589 Eu576 2.418 . S
O589 C593 1.244 1_556 S
O590 Eu577 2.488 . S
O590 C606 1.249 . S
O591 Eu577 2.471 1_565 S
O591 C606 1.244 1_565 S
O592 Eu577 2.349 1_565 S
O592 C593 1.265 . S
C593 O589 1.244 1_554 S
C593 O592 1.265 . S
O594 Eu576 2.373 1_545 S
O594 C607 1.258 . S
O595 Eu577 2.392 . S
O595 C607 1.242 1_554 S
O596 Eu577 2.418 . S
O596 C578 1.298 . S
O597 Eu576 2.488 . S
O597 C585 1.249 . S
O598 Eu576 2.471 1_545 S
O598 C585 1.244 1_545 S
O599 Eu576 2.349 1_545 S
O599 C578 1.245 1_556 S
C600 C601 1.379 1_545 S
C600 C604 1.373 . S
C600 C606 1.505 . S
C601 C600 1.379 1_565 S
C601 C603 1.369 . S
C601 H612 0.930 . S
C602 C604 1.383 . S
C602 C605 1.382 1_545 S
C602 H613 0.930 . S
C603 C601 1.369 . S
C603 C605 1.392 . S
C603 H614 0.930 . S
C604 C600 1.373 . S
C604 C602 1.383 . S
C604 H615 0.931 . S
C605 C602 1.382 1_565 S
C605 C603 1.392 . S
C606 Eu577 2.828 . S
C606 O590 1.249 . S
C606 O591 1.244 1_545 S
C606 C600 1.505 . S
C607 O594 1.258 . S
C607 O595 1.242 1_556 S
H608 C580 0.930 . S
H609 C581 0.930 . S
H610 C582 0.930 . S
H611 C583 0.931 . S
H612 C601 0.930 . S
H613 C602 0.930 . S
H614 C603 0.930 . S
H615 C604 0.931 . S
Eu616 C625 2.828 . S
Eu616 O627 2.392 1_556 S
Eu616 O629 2.418 . S
Eu616 O634 2.373 1_455 S
Eu616 O637 2.488 . S
Eu616 O638 2.471 1_455 S
Eu616 O639 2.349 1_455 S
Eu617 O626 2.373 1_655 S
Eu617 O630 2.488 . S
Eu617 O631 2.471 1_655 S
Eu617 O632 2.349 1_655 S
Eu617 O635 2.392 . S
Eu617 O636 2.418 . S
Eu617 C646 2.828 . S
C618 O636 1.244 1_556 S
C618 O639 1.265 . S
C619 C620 1.349 1_455 S
C619 C623 1.391 . S
C619 C625 1.519 . S
C620 C619 1.349 1_655 S
C620 C622 1.369 . S
C620 H648 0.930 . S
C621 C623 1.383 . S
C621 C624 1.382 1_455 S
C621 H649 0.930 . S
C622 C620 1.369 . S
C622 C624 1.392 . S
C622 H650 0.930 . S
C623 C619 1.391 . S
C623 C621 1.383 . S
C623 H651 0.931 . S
C624 C621 1.382 1_655 S
C624 C622 1.392 . S
C625 Eu616 2.828 . S
C625 C619 1.519 . S
C625 O637 1.249 . S
C625 O638 1.244 1_455 S
O626 Eu617 2.373 1_455 S
O626 C628 1.258 . S
O627 Eu616 2.392 1_554 S
O627 C628 1.242 . S
C628 O626 1.258 . S
C628 O627 1.242 . S
O629 Eu616 2.418 . S
O629 C633 1.244 1_556 S
O630 Eu617 2.488 . S
O630 C646 1.249 . S
O631 Eu617 2.471 1_455 S
O631 C646 1.244 1_455 S
O632 Eu617 2.349 1_455 S
O632 C633 1.265 . S
C633 O629 1.244 1_554 S
C633 O632 1.265 . S
O634 Eu616 2.373 1_655 S
O634 C647 1.258 . S
O635 Eu617 2.392 . S
O635 C647 1.242 1_554 S
O636 Eu617 2.418 . S
O636 C618 1.244 1_554 S
O637 Eu616 2.488 . S
O637 C625 1.249 . S
O638 Eu616 2.471 1_655 S
O638 C625 1.244 1_655 S
O639 Eu616 2.349 1_655 S
O639 C618 1.265 . S
C640 C641 1.379 . S
C640 C644 1.373 1_455 S
C640 C646 1.505 1_455 S
C641 C640 1.379 . S
C641 C643 1.369 . S
C641 H652 0.930 . S
C642 C644 1.383 . S
C642 C645 1.382 1_655 S
C642 H653 0.930 . S
C643 C641 1.369 . S
C643 C645 1.392 . S
C643 H654 0.930 . S
C644 C640 1.373 1_655 S
C644 C642 1.383 . S
C644 H655 0.931 . S
C645 C642 1.382 1_455 S
C645 C643 1.392 . S
C646 Eu617 2.828 . S
C646 O630 1.249 . S
C646 O631 1.244 1_655 S
C646 C640 1.505 1_655 S
C647 O634 1.258 . S
C647 O635 1.242 1_556 S
H648 C620 0.930 . S
H649 C621 0.930 . S
H650 C622 0.930 . S
H651 C623 0.931 . S
H652 C641 0.930 . S
H653 C642 0.930 . S
H654 C643 0.930 . S
H655 C644 0.931 . S
Eu656 C665 2.828 . S
Eu656 O667 2.392 . S
Eu656 O669 2.418 . S
Eu656 O674 2.373 . S
Eu656 O677 2.488 . S
Eu656 O678 2.471 . S
Eu656 O679 2.349 . S
Eu657 O666 2.373 . S
Eu657 O670 2.488 . S
Eu657 O671 2.471 . S
Eu657 O672 2.349 . S
Eu657 O675 2.392 1_556 S
Eu657 O676 2.418 . S
Eu657 C686 2.828 . S
C658 O676 1.244 1_554 S
C658 O679 1.265 . S
C659 C660 1.379 . S
C659 C663 1.373 . S
C659 C665 1.505 . S
C660 C659 1.379 . S
C660 C662 1.369 . S
C660 H688 0.930 . S
C661 C663 1.383 . S
C661 C664 1.382 . S
C661 H689 0.930 . S
C662 C660 1.369 . S
C662 C664 1.392 . S
C662 H690 0.930 . S
C663 C659 1.373 . S
C663 C661 1.383 . S
C663 H691 0.931 . S
C664 C661 1.382 . S
C664 C662 1.392 . S
C665 Eu656 2.828 . S
C665 C659 1.505 . S
C665 O677 1.249 . S
C665 O678 1.244 . S
O666 Eu657 2.373 . S
O666 C668 1.258 . S
O667 Eu656 2.392 . S
O667 C668 1.242 1_554 S
C668 O666 1.258 . S
C668 O667 1.242 1_556 S
O669 Eu656 2.418 . S
O669 C673 1.244 1_554 S
O670 Eu657 2.488 . S
O670 C686 1.249 . S
O671 Eu657 2.471 . S
O671 C686 1.244 . S
O672 Eu657 2.349 . S
O672 C673 1.265 . S
C673 O669 1.244 1_556 S
C673 O672 1.265 . S
O674 Eu656 2.373 . S
O674 C687 1.258 . S
O675 Eu657 2.392 1_554 S
O675 C687 1.242 . S
O676 Eu657 2.418 . S
O676 C658 1.244 1_556 S
O677 Eu656 2.488 . S
O677 C665 1.249 . S
O678 Eu656 2.471 . S
O678 C665 1.244 . S
O679 Eu656 2.349 . S
O679 C658 1.265 . S
C680 C681 1.379 . S
C680 C684 1.373 . S
C680 C686 1.505 . S
C681 C680 1.379 . S
C681 C683 1.369 . S
C681 H692 0.930 . S
C682 C684 1.383 . S
C682 C685 1.382 . S
C682 H693 0.930 . S
C683 C681 1.369 . S
C683 C685 1.392 . S
C683 H694 0.930 . S
C684 C680 1.373 . S
C684 C682 1.383 . S
C684 H695 0.931 . S
C685 C682 1.382 . S
C685 C683 1.392 . S
C686 Eu657 2.828 . S
C686 O670 1.249 . S
C686 O671 1.244 . S
C686 C680 1.505 . S
C687 O674 1.258 . S
C687 O675 1.242 . S
H688 C660 0.930 . S
H689 C661 0.930 . S
H690 C662 0.930 . S
H691 C663 0.931 . S
H692 C681 0.930 . S
H693 C682 0.930 . S
H694 C683 0.930 . S
H695 C684 0.931 . S
Eu696 C705 2.828 . S
Eu696 O707 2.392 . S
Eu696 O709 2.418 . S
Eu696 O714 2.373 . S
Eu696 O717 2.488 . S
Eu696 O718 2.471 . S
Eu696 O719 2.349 . S
Eu697 O706 2.373 . S
Eu697 O710 2.488 . S
Eu697 O711 2.471 . S
Eu697 O712 2.349 . S
Eu697 O715 2.392 . S
Eu697 O716 2.418 . S
Eu697 C726 2.828 . S
C698 O716 1.244 . S
C698 O719 1.265 . S
C699 C700 1.379 . S
C699 C703 1.373 . S
C699 C705 1.505 . S
C700 C699 1.379 . S
C700 C702 1.369 . S
C700 H728 0.930 . S
C701 C703 1.383 . S
C701 C704 1.382 . S
C701 H729 0.930 . S
C702 C700 1.369 . S
C702 C704 1.392 . S
C702 H730 0.930 . S
C703 C699 1.373 . S
C703 C701 1.383 . S
C703 H731 0.931 . S
C704 C701 1.382 . S
C704 C702 1.392 . S
C705 Eu696 2.828 . S
C705 C699 1.505 . S
C705 O717 1.249 . S
C705 O718 1.244 . S
O706 Eu697 2.373 . S
O706 C708 1.258 . S
O707 Eu696 2.392 . S
O707 C708 1.242 . S
C708 O706 1.258 . S
C708 O707 1.242 . S
O709 Eu696 2.418 . S
O709 C713 1.244 . S
O710 Eu697 2.488 . S
O710 C726 1.249 . S
O711 Eu697 2.471 . S
O711 C726 1.244 . S
O712 Eu697 2.349 . S
O712 C713 1.265 . S
C713 O709 1.244 . S
C713 O712 1.265 . S
O714 Eu696 2.373 . S
O714 C727 1.258 . S
O715 Eu697 2.392 . S
O715 C727 1.242 . S
O716 Eu697 2.418 . S
O716 C698 1.244 . S
O717 Eu696 2.488 . S
O717 C705 1.249 . S
O718 Eu696 2.471 . S
O718 C705 1.244 . S
O719 Eu696 2.349 . S
O719 C698 1.265 . S
C720 C721 1.379 . S
C720 C724 1.373 . S
C720 C726 1.505 . S
C721 C720 1.379 . S
C721 C723 1.369 . S
C721 H732 0.930 . S
C722 C724 1.383 . S
C722 C725 1.382 . S
C722 H733 0.930 . S
C723 C721 1.369 . S
C723 C725 1.392 . S
C723 H734 0.930 . S
C724 C720 1.373 . S
C724 C722 1.383 . S
C724 H735 0.931 . S
C725 C722 1.382 . S
C725 C723 1.392 . S
C726 Eu697 2.828 . S
C726 O710 1.249 . S
C726 O711 1.244 . S
C726 C720 1.505 . S
C727 O714 1.258 . S
C727 O715 1.242 . S
H728 C700 0.930 . S
H729 C701 0.930 . S
H730 C702 0.930 . S
H731 C703 0.931 . S
H732 C721 0.930 . S
H733 C722 0.930 . S
H734 C723 0.930 . S
H735 C724 0.931 . S
Eu736 C745 2.828 . S
Eu736 O747 2.392 . S
Eu736 O749 2.418 . S
Eu736 O754 2.373 . S
Eu736 O757 2.488 . S
Eu736 O758 2.471 . S
Eu736 O759 2.349 . S
Eu737 O746 2.373 . S
Eu737 O750 2.488 . S
Eu737 O751 2.471 . S
Eu737 O752 2.349 . S
Eu737 O755 2.392 . S
Eu737 O756 2.418 . S
Eu737 C766 2.828 . S
C738 O756 1.244 . S
C738 O759 1.265 . S
C739 C740 1.379 . S
C739 C743 1.373 . S
C739 C745 1.505 . S
C740 C739 1.379 . S
C740 C742 1.369 . S
C740 H768 0.930 . S
C741 C743 1.383 . S
C741 C744 1.382 . S
C741 H769 0.930 . S
C742 C740 1.369 . S
C742 C744 1.392 . S
C742 H770 0.930 . S
C743 C739 1.373 . S
C743 C741 1.383 . S
C743 H771 0.931 . S
C744 C741 1.382 . S
C744 C742 1.392 . S
C745 Eu736 2.828 . S
C745 C739 1.505 . S
C745 O757 1.249 . S
C745 O758 1.244 . S
O746 Eu737 2.373 . S
O746 C748 1.258 . S
O747 Eu736 2.392 . S
O747 C748 1.242 . S
C748 O746 1.258 . S
C748 O747 1.242 . S
O749 Eu736 2.418 . S
O749 C753 1.244 . S
O750 Eu737 2.488 . S
O750 C766 1.249 . S
O751 Eu737 2.471 . S
O751 C766 1.244 . S
O752 Eu737 2.349 . S
O752 C753 1.265 . S
C753 O749 1.244 . S
C753 O752 1.265 . S
O754 Eu736 2.373 . S
O754 C767 1.258 . S
O755 Eu737 2.392 . S
O755 C767 1.242 . S
O756 Eu737 2.418 . S
O756 C738 1.244 . S
O757 Eu736 2.488 . S
O757 C745 1.249 . S
O758 Eu736 2.471 . S
O758 C745 1.244 . S
O759 Eu736 2.349 . S
O759 C738 1.265 . S
C760 C761 1.379 . S
C760 C764 1.373 . S
C760 C766 1.505 . S
C761 C760 1.379 . S
C761 C763 1.369 . S
C761 H772 0.930 . S
C762 C764 1.383 . S
C762 C765 1.382 . S
C762 H773 0.930 . S
C763 C761 1.369 . S
C763 C765 1.392 . S
C763 H774 0.930 . S
C764 C760 1.373 . S
C764 C762 1.383 . S
C764 H775 0.931 . S
C765 C762 1.382 . S
C765 C763 1.392 . S
C766 Eu737 2.828 . S
C766 O750 1.249 . S
C766 O751 1.244 . S
C766 C760 1.505 . S
C767 O754 1.258 . S
C767 O755 1.242 . S
H768 C740 0.930 . S
H769 C741 0.930 . S
H770 C742 0.930 . S
H771 C743 0.931 . S
H772 C761 0.930 . S
H773 C762 0.930 . S
H774 C763 0.930 . S
H775 C764 0.931 . S
Eu776 C785 2.828 . S
Eu776 O787 2.392 . S
Eu776 O789 2.418 . S
Eu776 O794 2.373 . S
Eu776 O797 2.488 . S
Eu776 O798 2.471 . S
Eu776 O799 2.349 . S
Eu777 O786 2.373 . S
Eu777 O790 2.488 . S
Eu777 O791 2.471 . S
Eu777 O792 2.349 . S
Eu777 O795 2.392 . S
Eu777 O796 2.418 . S
Eu777 C806 2.828 . S
C778 O796 1.244 . S
C778 O799 1.265 . S
C779 C780 1.379 . S
C779 C783 1.373 . S
C779 C785 1.505 . S
C780 C779 1.379 . S
C780 C782 1.369 . S
C780 H808 0.930 . S
C781 C783 1.383 . S
C781 C784 1.382 . S
C781 H809 0.930 . S
C782 C780 1.369 . S
C782 C784 1.392 . S
C782 H810 0.930 . S
C783 C779 1.373 . S
C783 C781 1.383 . S
C783 H811 0.931 . S
C784 C781 1.382 . S
C784 C782 1.392 . S
C785 Eu776 2.828 . S
C785 C779 1.505 . S
C785 O797 1.249 . S
C785 O798 1.244 . S
O786 Eu777 2.373 . S
O786 C788 1.258 . S
O787 Eu776 2.392 . S
O787 C788 1.242 . S
C788 O786 1.258 . S
C788 O787 1.242 . S
O789 Eu776 2.418 . S
O789 C793 1.244 . S
O790 Eu777 2.488 . S
O790 C806 1.249 . S
O791 Eu777 2.471 . S
O791 C806 1.244 . S
O792 Eu777 2.349 . S
O792 C793 1.265 . S
C793 O789 1.244 . S
C793 O792 1.265 . S
O794 Eu776 2.373 . S
O794 C807 1.258 . S
O795 Eu777 2.392 . S
O795 C807 1.242 . S
O796 Eu777 2.418 . S
O796 C778 1.244 . S
O797 Eu776 2.488 . S
O797 C785 1.249 . S
O798 Eu776 2.471 . S
O798 C785 1.244 . S
O799 Eu776 2.349 . S
O799 C778 1.265 . S
C800 C801 1.379 . S
C800 C804 1.373 . S
C800 C806 1.505 . S
C801 C800 1.379 . S
C801 C803 1.369 . S
C801 H812 0.930 . S
C802 C804 1.383 . S
C802 C805 1.382 . S
C802 H813 0.930 . S
C803 C801 1.369 . S
C803 C805 1.392 . S
C803 H814 0.930 . S
C804 C800 1.373 . S
C804 C802 1.383 . S
C804 H815 0.931 . S
C805 C802 1.382 . S
C805 C803 1.392 . S
C806 Eu777 2.828 . S
C806 O790 1.249 . S
C806 O791 1.244 . S
C806 C800 1.505 . S
C807 O794 1.258 . S
C807 O795 1.242 . S
H808 C780 0.930 . S
H809 C781 0.930 . S
H810 C782 0.930 . S
H811 C783 0.931 . S
H812 C801 0.930 . S
H813 C802 0.930 . S
H814 C803 0.930 . S
H815 C804 0.931 . S
Eu816 C825 2.828 . S
Eu816 O827 2.392 . S
Eu816 O829 2.418 . S
Eu816 O834 2.373 . S
Eu816 O837 2.488 . S
Eu816 O838 2.471 . S
Eu816 O839 2.349 . S
Eu817 O826 2.373 . S
Eu817 O830 2.488 . S
Eu817 O831 2.471 . S
Eu817 O832 2.349 . S
Eu817 O835 2.392 . S
Eu817 O836 2.418 . S
Eu817 C846 2.828 . S
C818 O836 1.244 . S
C818 O839 1.265 . S
C819 C820 1.379 . S
C819 C823 1.373 . S
C819 C825 1.505 . S
C820 C819 1.379 . S
C820 C822 1.369 . S
C820 H848 0.930 . S
C821 C823 1.383 . S
C821 C824 1.382 . S
C821 H849 0.930 . S
C822 C820 1.369 . S
C822 C824 1.392 . S
C822 H850 0.930 . S
C823 C819 1.373 . S
C823 C821 1.383 . S
C823 H851 0.931 . S
C824 C821 1.382 . S
C824 C822 1.392 . S
C825 Eu816 2.828 . S
C825 C819 1.505 . S
C825 O837 1.249 . S
C825 O838 1.244 . S
O826 Eu817 2.373 . S
O826 C828 1.258 . S
O827 Eu816 2.392 . S
O827 C828 1.242 . S
C828 O826 1.258 . S
C828 O827 1.242 . S
O829 Eu816 2.418 . S
O829 C833 1.244 . S
O830 Eu817 2.488 . S
O830 C846 1.249 . S
O831 Eu817 2.471 . S
O831 C846 1.244 . S
O832 Eu817 2.349 . S
O832 C833 1.265 . S
C833 O829 1.244 . S
C833 O832 1.265 . S
O834 Eu816 2.373 . S
O834 C847 1.258 . S
O835 Eu817 2.392 . S
O835 C847 1.242 . S
O836 Eu817 2.418 . S
O836 C818 1.244 . S
O837 Eu816 2.488 . S
O837 C825 1.249 . S
O838 Eu816 2.471 . S
O838 C825 1.244 . S
O839 Eu816 2.349 . S
O839 C818 1.265 . S
C840 C841 1.379 . S
C840 C844 1.373 . S
C840 C846 1.505 . S
C841 C840 1.379 . S
C841 C843 1.369 . S
C841 H852 0.930 . S
C842 C844 1.383 . S
C842 C845 1.382 . S
C842 H853 0.930 . S
C843 C841 1.369 . S
C843 C845 1.392 . S
C843 H854 0.930 . S
C844 C840 1.373 . S
C844 C842 1.383 . S
C844 H855 0.931 . S
C845 C842 1.382 . S
C845 C843 1.392 . S
C846 Eu817 2.828 . S
C846 O830 1.249 . S
C846 O831 1.244 . S
C846 C840 1.505 . S
C847 O834 1.258 . S
C847 O835 1.242 . S
H848 C820 0.930 . S
H849 C821 0.930 . S
H850 C822 0.930 . S
H851 C823 0.931 . S
H852 C841 0.930 . S
H853 C842 0.930 . S
H854 C843 0.930 . S
H855 C844 0.931 . S
Eu856 C865 2.828 . S
Eu856 O867 2.392 . S
Eu856 O869 2.418 . S
Eu856 O874 2.373 . S
Eu856 O877 2.488 . S
Eu856 O878 2.471 . S
Eu856 O879 2.349 . S
Eu857 O866 2.373 . S
Eu857 O870 2.488 . S
Eu857 O871 2.471 . S
Eu857 O872 2.349 . S
Eu857 O875 2.392 . S
Eu857 O876 2.418 . S
Eu857 C886 2.828 . S
C858 O876 1.244 . S
C858 O879 1.265 . S
C859 C860 1.379 . S
C859 C863 1.373 . S
C859 C865 1.505 . S
C860 C859 1.379 . S
C860 C862 1.369 . S
C860 H888 0.930 . S
C861 C863 1.383 . S
C861 C864 1.382 . S
C861 H889 0.930 . S
C862 C860 1.369 . S
C862 C864 1.392 . S
C862 H890 0.930 . S
C863 C859 1.373 . S
C863 C861 1.383 . S
C863 H891 0.931 . S
C864 C861 1.382 . S
C864 C862 1.392 . S
C865 Eu856 2.828 . S
C865 C859 1.505 . S
C865 O877 1.249 . S
C865 O878 1.244 . S
O866 Eu857 2.373 . S
O866 C868 1.258 . S
O867 Eu856 2.392 . S
O867 C868 1.242 . S
C868 O866 1.258 . S
C868 O867 1.242 . S
O869 Eu856 2.418 . S
O869 C873 1.244 . S
O870 Eu857 2.488 . S
O870 C886 1.249 . S
O871 Eu857 2.471 . S
O871 C886 1.244 . S
O872 Eu857 2.349 . S
O872 C873 1.265 . S
C873 O869 1.244 . S
C873 O872 1.265 . S
O874 Eu856 2.373 . S
O874 C887 1.258 . S
O875 Eu857 2.392 . S
O875 C887 1.242 . S
O876 Eu857 2.418 . S
O876 C858 1.244 . S
O877 Eu856 2.488 . S
O877 C865 1.249 . S
O878 Eu856 2.471 . S
O878 C865 1.244 . S
O879 Eu856 2.349 . S
O879 C858 1.265 . S
C880 C881 1.379 . S
C880 C884 1.373 . S
C880 C886 1.505 . S
C881 C880 1.379 . S
C881 C883 1.369 . S
C881 H892 0.930 . S
C882 C884 1.383 . S
C882 C885 1.382 . S
C882 H893 0.930 . S
C883 C881 1.369 . S
C883 C885 1.392 . S
C883 H894 0.930 . S
C884 C880 1.373 . S
C884 C882 1.383 . S
C884 H895 0.931 . S
C885 C882 1.382 . S
C885 C883 1.392 . S
C886 Eu857 2.828 . S
C886 O870 1.249 . S
C886 O871 1.244 . S
C886 C880 1.505 . S
C887 O874 1.258 . S
C887 O875 1.242 . S
H888 C860 0.930 . S
H889 C861 0.930 . S
H890 C862 0.930 . S
H891 C863 0.931 . S
H892 C881 0.930 . S
H893 C882 0.930 . S
H894 C883 0.930 . S
H895 C884 0.931 . S
Eu896 C905 2.828 . S
Eu896 O907 2.392 . S
Eu896 O909 2.418 . S
Eu896 O914 2.373 . S
Eu896 O917 2.488 . S
Eu896 O918 2.471 . S
Eu896 O919 2.349 . S
Eu897 O906 2.373 . S
Eu897 O910 2.488 . S
Eu897 O911 2.471 . S
Eu897 O912 2.349 . S
Eu897 O915 2.392 . S
Eu897 O916 2.418 . S
Eu897 C926 2.828 . S
C898 O916 1.244 . S
C898 O919 1.265 . S
C899 C900 1.379 . S
C899 C903 1.373 . S
C899 C905 1.505 . S
C900 C899 1.379 . S
C900 C902 1.369 . S
C900 H928 0.930 . S
C901 C903 1.383 . S
C901 C904 1.382 . S
C901 H929 0.930 . S
C902 C900 1.369 . S
C902 C904 1.392 . S
C902 H930 0.930 . S
C903 C899 1.373 . S
C903 C901 1.383 . S
C903 H931 0.931 . S
C904 C901 1.382 . S
C904 C902 1.392 . S
C905 Eu896 2.828 . S
C905 C899 1.505 . S
C905 O917 1.249 . S
C905 O918 1.244 . S
O906 Eu897 2.373 . S
O906 C908 1.258 . S
O907 Eu896 2.392 . S
O907 C908 1.242 . S
C908 O906 1.258 . S
C908 O907 1.242 . S
O909 Eu896 2.418 . S
O909 C913 1.244 . S
O910 Eu897 2.488 . S
O910 C926 1.249 . S
O911 Eu897 2.471 . S
O911 C926 1.244 . S
O912 Eu897 2.349 . S
O912 C913 1.265 . S
C913 O909 1.244 . S
C913 O912 1.265 . S
O914 Eu896 2.373 . S
O914 C927 1.258 . S
O915 Eu897 2.392 . S
O915 C927 1.242 . S
O916 Eu897 2.418 . S
O916 C898 1.244 . S
O917 Eu896 2.488 . S
O917 C905 1.249 . S
O918 Eu896 2.471 . S
O918 C905 1.244 . S
O919 Eu896 2.349 . S
O919 C898 1.265 . S
C920 C921 1.379 . S
C920 C924 1.373 . S
C920 C926 1.505 . S
C921 C920 1.379 . S
C921 C923 1.369 . S
C921 H932 0.930 . S
C922 C924 1.383 . S
C922 C925 1.382 . S
C922 H933 0.930 . S
C923 C921 1.369 . S
C923 C925 1.392 . S
C923 H934 0.930 . S
C924 C920 1.373 . S
C924 C922 1.383 . S
C924 H935 0.931 . S
C925 C922 1.382 . S
C925 C923 1.392 . S
C926 Eu897 2.828 . S
C926 O910 1.249 . S
C926 O911 1.244 . S
C926 C920 1.505 . S
C927 O914 1.258 . S
C927 O915 1.242 . S
H928 C900 0.930 . S
H929 C901 0.930 . S
H930 C902 0.930 . S
H931 C903 0.931 . S
H932 C921 0.930 . S
H933 C922 0.930 . S
H934 C923 0.930 . S
H935 C924 0.931 . S
H936 C942 0.930 . S
H937 C946 0.930 . S
H938 C951 0.929 . S
H939 C949 0.929 1_556 S
H940 C944 0.929 . S
H941 C950 0.929 . S
C942 H936 0.930 . S
C942 C943 1.367 . S
C942 C950 1.378 . S
C943 C942 1.367 . S
C943 C951 1.433 . S
C944 H940 0.929 . S
C944 C946 1.378 . S
C944 C948 1.350 . S
C945 C948 1.463 . S
C945 C950 1.350 . S
C945 N953 1.427 . S
C946 H937 0.930 . S
C946 C944 1.378 . S
C946 C947 1.367 . S
C947 C946 1.367 . S
C947 C949 1.433 . S
C948 C944 1.350 . S
C948 C945 1.463 . S
C948 N952 1.427 . S
C949 H939 0.929 1_554 S
C949 C947 1.433 . S
C949 N952 1.384 . S
C950 H941 0.929 . S
C950 C942 1.378 . S
C950 C945 1.350 . S
C951 H938 0.929 . S
C951 C943 1.433 . S
C951 N953 1.384 . S
N952 C948 1.427 . S
N952 C949 1.384 . S
N953 C945 1.427 . S
N953 C951 1.384 . S
H954 C960 0.930 . S
H955 C964 0.930 . S
H956 C969 0.929 . S
H957 C967 0.929 . S
H958 C962 0.929 . S
H959 C968 0.929 . S
C960 H954 0.930 . S
C960 C961 1.367 . S
C960 C968 1.378 . S
C961 C960 1.367 . S
C961 C969 1.433 . S
C962 H958 0.929 . S
C962 C964 1.378 . S
C962 C966 1.350 . S
C963 C966 1.463 . S
C963 C968 1.350 . S
C963 N971 1.427 . S
C964 H955 0.930 . S
C964 C962 1.378 . S
C964 C965 1.367 . S
C965 C964 1.367 . S
C965 C967 1.433 . S
C966 C962 1.350 . S
C966 C963 1.463 . S
C966 N970 1.427 . S
C967 H957 0.929 . S
C967 C965 1.433 . S
C967 N970 1.384 . S
C968 H959 0.929 . S
C968 C960 1.378 . S
C968 C963 1.350 . S
C969 H956 0.929 . S
C969 C961 1.433 . S
C969 N971 1.384 . S
N970 C966 1.427 . S
N970 C967 1.384 . S
N971 C963 1.427 . S
N971 C969 1.384 . S
H972 C978 0.930 . S
H973 C982 0.930 . S
H974 C987 0.929 . S
H975 C985 0.929 1_556 S
H976 C980 0.929 . S
H977 C986 0.929 . S
C978 H972 0.930 . S
C978 C979 1.367 . S
C978 C986 1.378 . S
C979 C978 1.367 . S
C979 C987 1.433 . S
C980 H976 0.929 . S
C980 C982 1.378 . S
C980 C984 1.350 . S
C981 C984 1.463 . S
C981 C986 1.350 . S
C981 N989 1.427 . S
C982 H973 0.930 . S
C982 C980 1.378 . S
C982 C983 1.367 . S
C983 C982 1.367 . S
C983 C985 1.433 . S
C984 C980 1.350 . S
C984 C981 1.463 . S
C984 N988 1.427 . S
C985 H975 0.929 1_554 S
C985 C983 1.433 . S
C985 N988 1.384 . S
C986 H977 0.929 . S
C986 C978 1.378 . S
C986 C981 1.350 . S
C987 H974 0.929 . S
C987 C979 1.433 . S
C987 N989 1.384 . S
N988 C984 1.427 . S
N988 C985 1.384 . S
N989 C981 1.427 . S
N989 C987 1.384 . S
H990 C996 0.930 . S
H991 C1000 0.930 . S
H992 C1005 0.929 . S
H993 C1003 0.929 . S
H994 C998 0.929 . S
H995 C1004 0.929 . S
C996 H990 0.930 . S
C996 C997 1.367 . S
C996 C1004 1.378 . S
C997 C996 1.367 . S
C997 C1005 1.433 . S
C998 H994 0.929 . S
C998 C1000 1.378 . S
C998 C1002 1.350 . S
C999 C1002 1.463 . S
C999 C1004 1.350 . S
C999 N1007 1.427 . S
C1000 H991 0.930 . S
C1000 C998 1.378 . S
C1000 C1001 1.367 . S
C1001 C1000 1.367 . S
C1001 C1003 1.433 . S
C1002 C998 1.350 . S
C1002 C999 1.463 . S
C1002 N1006 1.427 . S
C1003 H993 0.929 . S
C1003 C1001 1.433 . S
C1003 N1006 1.384 . S
C1004 H995 0.929 . S
C1004 C996 1.378 . S
C1004 C999 1.350 . S
C1005 H992 0.929 . S
C1005 C997 1.433 . S
C1005 N1007 1.384 . S
N1006 C1002 1.427 . S
N1006 C1003 1.384 . S
N1007 C999 1.427 . S
N1007 C1005 1.384 . S
H1008 C1014 0.930 . S
H1009 C1018 0.930 . S
H1010 C1023 0.929 . S
H1011 C1021 0.929 . S
H1012 C1016 0.929 . S
H1013 C1022 0.929 . S
C1014 H1008 0.930 . S
C1014 C1015 1.367 . S
C1014 C1022 1.378 . S
C1015 C1014 1.367 . S
C1015 C1023 1.433 . S
C1016 H1012 0.929 . S
C1016 C1018 1.378 . S
C1016 C1020 1.350 . S
C1017 C1020 1.463 . S
C1017 C1022 1.350 . S
C1017 N1025 1.427 . S
C1018 H1009 0.930 . S
C1018 C1016 1.378 . S
C1018 C1019 1.367 . S
C1019 C1018 1.367 . S
C1019 C1021 1.433 . S
C1020 C1016 1.350 . S
C1020 C1017 1.463 . S
C1020 N1024 1.427 . S
C1021 H1011 0.929 . S
C1021 C1019 1.433 . S
C1021 N1024 1.384 . S
C1022 H1013 0.929 . S
C1022 C1014 1.378 . S
C1022 C1017 1.350 . S
C1023 H1010 0.929 . S
C1023 C1015 1.433 . S
C1023 N1025 1.384 . S
N1024 C1020 1.427 . S
N1024 C1021 1.384 . S
N1025 C1017 1.427 . S
N1025 C1023 1.384 . S
H1026 C1032 0.930 . S
H1027 C1036 0.930 . S
H1028 C1041 0.929 . S
H1029 C1039 0.929 . S
H1030 C1034 0.929 . S
H1031 C1040 0.929 1_554 S
C1032 H1026 0.930 . S
C1032 C1033 1.367 . S
C1032 C1040 1.378 . S
C1033 C1032 1.367 . S
C1033 C1041 1.433 . S
C1034 H1030 0.929 . S
C1034 C1036 1.378 . S
C1034 C1038 1.350 . S
C1035 C1038 1.463 . S
C1035 C1040 1.350 . S
C1035 N1043 1.427 . S
C1036 H1027 0.930 . S
C1036 C1034 1.378 . S
C1036 C1037 1.367 . S
C1037 C1036 1.367 . S
C1037 C1039 1.433 1_556 S
C1038 C1034 1.350 . S
C1038 C1035 1.463 . S
C1038 N1042 1.427 1_556 S
C1039 H1029 0.929 . S
C1039 C1037 1.433 1_554 S
C1039 N1042 1.384 . S
C1040 H1031 0.929 1_556 S
C1040 C1032 1.378 . S
C1040 C1035 1.350 . S
C1041 H1028 0.929 . S
C1041 C1033 1.433 . S
C1041 N1043 1.384 . S
N1042 C1038 1.427 1_554 S
N1042 C1039 1.384 . S
N1043 C1035 1.427 . S
N1043 C1041 1.384 . S
H1044 C1050 0.930 . S
H1045 C1054 0.930 1_554 S
H1046 C1059 0.929 . S
H1047 C1057 0.929 . S
H1048 C1052 0.953 . S
H1049 C1058 0.929 . S
C1050 H1044 0.930 . S
C1050 C1051 1.367 . S
C1050 C1058 1.378 . S
C1051 C1050 1.367 . S
C1051 C1059 1.433 . S
C1052 H1048 0.953 . S
C1052 C1054 1.378 . S
C1052 C1056 1.350 . S
C1053 C1056 1.463 . S
C1053 C1058 1.350 . S
C1053 N1061 1.427 . S
C1054 H1045 0.930 1_556 S
C1054 C1052 1.378 . S
C1054 C1055 1.367 . S
C1055 C1054 1.367 . S
C1055 C1057 1.433 . S
C1056 C1052 1.350 . S
C1056 C1053 1.463 . S
C1056 N1060 1.427 . S
C1057 H1047 0.929 . S
C1057 C1055 1.433 . S
C1057 N1060 1.384 . S
C1058 H1049 0.929 . S
C1058 C1050 1.378 . S
C1058 C1053 1.350 . S
C1059 H1046 0.929 . S
C1059 C1051 1.433 . S
C1059 N1061 1.384 . S
N1060 C1056 1.427 . S
N1060 C1057 1.384 . S
N1061 C1053 1.427 . S
N1061 C1059 1.384 . S
H1062 C1068 0.930 . S
H1063 C1072 0.930 . S
H1064 C1077 0.929 . S
H1065 C1075 0.929 . S
H1066 C1070 0.929 . S
H1067 C1076 0.929 . S
C1068 H1062 0.930 . S
C1068 C1069 1.367 . S
C1068 C1076 1.378 . S
C1069 C1068 1.367 . S
C1069 C1077 1.433 . S
C1070 H1066 0.929 . S
C1070 C1072 1.378 . S
C1070 C1074 1.350 . S
C1071 C1074 1.463 . S
C1071 C1076 1.350 . S
C1071 N1079 1.427 . S
C1072 H1063 0.930 . S
C1072 C1070 1.378 . S
C1072 C1073 1.367 . S
C1073 C1072 1.367 . S
C1073 C1075 1.433 . S
C1074 C1070 1.350 . S
C1074 C1071 1.463 . S
C1074 N1078 1.427 . S
C1075 H1065 0.929 . S
C1075 C1073 1.433 . S
C1075 N1078 1.384 . S
C1076 H1067 0.929 . S
C1076 C1068 1.378 . S
C1076 C1071 1.350 . S
C1077 H1064 0.929 . S
C1077 C1069 1.433 . S
C1077 N1079 1.384 . S
N1078 C1074 1.427 . S
N1078 C1075 1.384 . S
N1079 C1071 1.427 . S
N1079 C1077 1.384 . S
H1080 C1086 0.991 . S
H1081 C1090 0.930 . S
H1082 C1095 0.929 . S
H1083 C1093 0.929 . S
H1084 C1088 0.929 . S
H1085 C1094 0.929 1_554 S
C1086 H1080 0.991 . S
C1086 C1087 1.367 . S
C1086 C1094 1.378 . S
C1087 C1086 1.367 . S
C1087 C1095 1.433 . S
C1088 H1084 0.929 . S
C1088 C1090 1.378 . S
C1088 C1092 1.350 . S
C1089 C1092 1.463 . S
C1089 C1094 1.350 . S
C1089 N1097 1.427 . S
C1090 H1081 0.930 . S
C1090 C1088 1.378 . S
C1090 C1091 1.367 . S
C1091 C1090 1.367 . S
C1091 C1093 1.433 1_556 S
C1092 C1088 1.350 . S
C1092 C1089 1.463 . S
C1092 N1096 1.405 1_556 S
C1093 H1083 0.929 . S
C1093 C1091 1.433 1_554 S
C1093 N1096 1.386 . S
C1094 H1085 0.929 1_556 S
C1094 C1086 1.378 . S
C1094 C1089 1.350 . S
C1095 H1082 0.929 . S
C1095 C1087 1.433 . S
C1095 N1097 1.384 . S
N1096 C1092 1.405 1_554 S
N1096 C1093 1.386 . S
N1097 C1089 1.427 . S
N1097 C1095 1.384 . S
H1098 C1104 0.930 . S
H1099 C1108 0.930 . S
H1100 C1113 0.929 . S
H1101 C1111 0.929 1_556 S
H1102 C1106 0.929 . S
H1103 C1112 0.929 . S
C1104 H1098 0.930 . S
C1104 C1105 1.367 . S
C1104 C1112 1.378 . S
C1105 C1104 1.367 . S
C1105 C1113 1.433 . S
C1106 H1102 0.929 . S
C1106 C1108 1.378 . S
C1106 C1110 1.350 . S
C1107 C1110 1.463 . S
C1107 C1112 1.350 . S
C1107 N1115 1.427 . S
C1108 H1099 0.930 . S
C1108 C1106 1.378 . S
C1108 C1109 1.367 . S
C1109 C1108 1.367 . S
C1109 C1111 1.433 . S
C1110 C1106 1.350 . S
C1110 C1107 1.463 . S
C1110 N1114 1.427 . S
C1111 H1101 0.929 1_554 S
C1111 C1109 1.433 . S
C1111 N1114 1.384 . S
C1112 H1103 0.929 . S
C1112 C1104 1.378 . S
C1112 C1107 1.350 . S
C1113 H1100 0.929 . S
C1113 C1105 1.433 . S
C1113 N1115 1.384 . S
N1114 C1110 1.427 . S
N1114 C1111 1.384 . S
N1115 C1107 1.427 . S
N1115 C1113 1.384 . S
H1116 C1122 0.930 . S
H1117 C1126 0.930 . S
H1118 C1131 0.929 . S
H1119 C1129 0.929 . S
H1120 C1124 0.929 . S
H1121 C1130 0.929 . S
C1122 H1116 0.930 . S
C1122 C1123 1.367 . S
C1122 C1130 1.378 . S
C1123 C1122 1.367 . S
C1123 C1131 1.433 . S
C1124 H1120 0.929 . S
C1124 C1126 1.378 . S
C1124 C1128 1.350 . S
C1125 C1128 1.463 . S
C1125 C1130 1.350 . S
C1125 N1133 1.427 . S
C1126 H1117 0.930 . S
C1126 C1124 1.378 . S
C1126 C1127 1.367 . S
C1127 C1126 1.367 . S
C1127 C1129 1.433 . S
C1128 C1124 1.350 . S
C1128 C1125 1.463 . S
C1128 N1132 1.427 . S
C1129 H1119 0.929 . S
C1129 C1127 1.433 . S
C1129 N1132 1.384 . S
C1130 H1121 0.929 . S
C1130 C1122 1.378 . S
C1130 C1125 1.350 . S
C1131 H1118 0.929 . S
C1131 C1123 1.433 . S
C1131 N1133 1.384 . S
N1132 C1128 1.427 . S
N1132 C1129 1.384 . S
N1133 C1125 1.427 . S
N1133 C1131 1.384 . S
H1134 C1140 0.930 . S
H1135 C1144 0.930 . S
H1136 C1149 0.929 . S
H1137 C1147 0.878 1_556 S
H1138 C1142 0.929 . S
H1139 C1148 0.929 . S
C1140 H1134 0.930 . S
C1140 C1141 1.367 . S
C1140 C1148 1.378 . S
C1141 C1140 1.367 . S
C1141 C1149 1.433 . S
C1142 H1138 0.929 . S
C1142 C1144 1.378 . S
C1142 C1146 1.350 . S
C1143 C1146 1.463 . S
C1143 C1148 1.350 . S
C1143 N1151 1.427 . S
C1144 H1135 0.930 . S
C1144 C1142 1.378 . S
C1144 C1145 1.367 . S
C1145 C1144 1.367 . S
C1145 C1147 1.473 . S
C1146 C1142 1.350 . S
C1146 C1143 1.463 . S
C1146 N1150 1.427 . S
C1147 H1137 0.878 1_554 S
C1147 C1145 1.473 . S
C1147 N1150 1.399 . S
C1148 H1139 0.929 . S
C1148 C1140 1.378 . S
C1148 C1143 1.350 . S
C1149 H1136 0.929 . S
C1149 C1141 1.433 . S
C1149 N1151 1.384 . S
N1150 C1146 1.427 . S
N1150 C1147 1.399 . S
N1151 C1143 1.427 . S
N1151 C1149 1.384 . S
H1152 C1158 0.930 . S
H1153 C1162 0.930 . S
H1154 C1167 0.929 . S
H1155 C1165 0.929 . S
H1156 C1160 0.929 . S
H1157 C1166 0.929 . S
C1158 H1152 0.930 . S
C1158 C1159 1.367 . S
C1158 C1166 1.378 . S
C1159 C1158 1.367 . S
C1159 C1167 1.433 . S
C1160 H1156 0.929 . S
C1160 C1162 1.378 . S
C1160 C1164 1.350 . S
C1161 C1164 1.463 . S
C1161 C1166 1.350 1_455 S
C1161 N1169 1.427 . S
C1162 H1153 0.930 . S
C1162 C1160 1.378 . S
C1162 C1163 1.367 . S
C1163 C1162 1.367 . S
C1163 C1165 1.433 . S
C1164 C1160 1.350 . S
C1164 C1161 1.463 . S
C1164 N1168 1.427 . S
C1165 H1155 0.929 . S
C1165 C1163 1.433 . S
C1165 N1168 1.384 . S
C1166 H1157 0.929 . S
C1166 C1158 1.378 . S
C1166 C1161 1.350 1_655 S
C1167 H1154 0.929 . S
C1167 C1159 1.433 . S
C1167 N1169 1.384 1_655 S
N1168 C1164 1.427 . S
N1168 C1165 1.384 . S
N1169 C1161 1.427 . S
N1169 C1167 1.384 1_455 S
H1170 C1176 0.930 . S
H1171 C1180 0.930 . S
H1172 C1185 0.929 . S
H1173 C1183 0.929 . S
H1174 C1178 0.929 . S
H1175 C1184 0.929 . S
C1176 H1170 0.930 . S
C1176 C1177 1.367 . S
C1176 C1184 1.378 . S
C1177 C1176 1.367 . S
C1177 C1185 1.433 . S
C1178 H1174 0.929 . S
C1178 C1180 1.378 . S
C1178 C1182 1.350 . S
C1179 C1182 1.463 . S
C1179 C1184 1.350 . S
C1179 N1187 1.427 . S
C1180 H1171 0.930 . S
C1180 C1178 1.378 . S
C1180 C1181 1.367 . S
C1181 C1180 1.367 . S
C1181 C1183 1.433 . S
C1182 C1178 1.350 . S
C1182 C1179 1.463 . S
C1182 N1186 1.427 . S
C1183 H1173 0.929 . S
C1183 C1181 1.433 . S
C1183 N1186 1.384 . S
C1184 H1175 0.929 . S
C1184 C1176 1.378 . S
C1184 C1179 1.350 . S
C1185 H1172 0.929 . S
C1185 C1177 1.433 . S
C1185 N1187 1.384 . S
N1186 C1182 1.427 . S
N1186 C1183 1.384 . S
N1187 C1179 1.427 . S
N1187 C1185 1.384 . S
H1188 C1194 0.930 . S
H1189 C1198 0.930 . S
H1190 C1203 0.929 . S
H1191 C1201 0.929 . S
H1192 C1196 0.929 . S
H1193 C1202 0.936 . S
C1194 H1188 0.930 . S
C1194 C1195 1.367 . S
C1194 C1202 1.378 . S
C1195 C1194 1.367 . S
C1195 C1203 1.433 . S
C1196 H1192 0.929 . S
C1196 C1198 1.378 . S
C1196 C1200 1.350 . S
C1197 C1200 1.469 . S
C1197 C1202 1.348 1_565 S
C1197 N1205 1.423 1_565 S
C1198 H1189 0.930 . S
C1198 C1196 1.378 . S
C1198 C1199 1.367 . S
C1199 C1198 1.367 . S
C1199 C1201 1.433 . S
C1200 C1196 1.350 . S
C1200 C1197 1.469 . S
C1200 N1204 1.427 . S
C1201 H1191 0.929 . S
C1201 C1199 1.433 . S
C1201 N1204 1.384 . S
C1202 H1193 0.936 . S
C1202 C1194 1.378 . S
C1202 C1197 1.348 1_545 S
C1203 H1190 0.929 . S
C1203 C1195 1.433 . S
C1203 N1205 1.384 . S
N1204 C1200 1.427 . S
N1204 C1201 1.384 . S
N1205 C1197 1.423 1_545 S
N1205 C1203 1.384 . S
H1206 C1212 0.930 . S
H1207 C1216 0.930 . S
H1208 C1221 0.929 . S
H1209 C1219 0.929 . S
H1210 C1214 0.929 . S
H1211 C1220 0.929 . S
C1212 H1206 0.930 . S
C1212 C1213 1.367 . S
C1212 C1220 1.378 . S
C1213 C1212 1.367 . S
C1213 C1221 1.433 . S
C1214 H1210 0.929 . S
C1214 C1216 1.378 . S
C1214 C1218 1.350 . S
C1215 C1218 1.463 . S
C1215 C1220 1.350 . S
C1215 N1223 1.427 . S
C1216 H1207 0.930 . S
C1216 C1214 1.378 . S
C1216 C1217 1.367 . S
C1217 C1216 1.367 . S
C1217 C1219 1.433 . S
C1218 C1214 1.350 . S
C1218 C1215 1.463 . S
C1218 N1222 1.427 . S
C1219 H1209 0.929 . S
C1219 C1217 1.433 . S
C1219 N1222 1.384 . S
C1220 H1211 0.929 . S
C1220 C1212 1.378 . S
C1220 C1215 1.350 . S
C1221 H1208 0.929 . S
C1221 C1213 1.433 . S
C1221 N1223 1.384 . S
N1222 C1218 1.427 . S
N1222 C1219 1.384 . S
N1223 C1215 1.427 . S
N1223 C1221 1.384 . S
H1224 C1230 0.930 . S
H1225 C1234 0.930 . S
H1226 C1239 0.929 . S
H1227 C1237 0.929 . S
H1228 C1232 0.929 . S
H1229 C1238 0.929 . S
C1230 H1224 0.930 . S
C1230 C1231 1.367 . S
C1230 C1238 1.378 . S
C1231 C1230 1.367 . S
C1231 C1239 1.433 . S
C1232 H1228 0.929 . S
C1232 C1234 1.378 . S
C1232 C1236 1.350 . S
C1233 C1236 1.463 . S
C1233 C1238 1.350 . S
C1233 N1241 1.427 . S
C1234 H1225 0.930 . S
C1234 C1232 1.378 . S
C1234 C1235 1.367 . S
C1235 C1234 1.367 . S
C1235 C1237 1.433 . S
C1236 C1232 1.350 . S
C1236 C1233 1.463 . S
C1236 N1240 1.427 . S
C1237 H1227 0.929 . S
C1237 C1235 1.433 . S
C1237 N1240 1.384 . S
C1238 H1229 0.929 . S
C1238 C1230 1.378 . S
C1238 C1233 1.350 . S
C1239 H1226 0.929 . S
C1239 C1231 1.433 . S
C1239 N1241 1.384 . S
N1240 C1236 1.427 . S
N1240 C1237 1.384 . S
N1241 C1233 1.427 . S
N1241 C1239 1.384 . S
H1242 C1248 0.930 . S
H1243 C1252 0.930 . S
H1244 C1257 0.929 . S
H1245 C1255 0.929 . S
H1246 C1250 0.929 . S
H1247 C1256 0.929 . S
C1248 H1242 0.930 . S
C1248 C1249 1.367 . S
C1248 C1256 1.378 . S
C1249 C1248 1.367 . S
C1249 C1257 1.433 . S
C1250 H1246 0.929 . S
C1250 C1252 1.378 . S
C1250 C1254 1.350 . S
C1251 C1254 1.463 . S
C1251 C1256 1.350 . S
C1251 N1259 1.427 . S
C1252 H1243 0.930 . S
C1252 C1250 1.378 . S
C1252 C1253 1.367 . S
C1253 C1252 1.367 . S
C1253 C1255 1.433 . S
C1254 C1250 1.350 . S
C1254 C1251 1.463 . S
C1254 N1258 1.427 . S
C1255 H1245 0.929 . S
C1255 C1253 1.433 . S
C1255 N1258 1.384 . S
C1256 H1247 0.929 . S
C1256 C1248 1.378 . S
C1256 C1251 1.350 . S
C1257 H1244 0.929 . S
C1257 C1249 1.433 . S
C1257 N1259 1.384 . S
N1258 C1254 1.427 . S
N1258 C1255 1.384 . S
N1259 C1251 1.427 . S
N1259 C1257 1.384 . S
H1260 C1266 0.930 . S
H1261 C1270 0.930 . S
H1262 C1275 0.929 . S
H1263 C1273 0.929 . S
H1264 C1268 0.929 . S
H1265 C1274 0.929 . S
C1266 H1260 0.930 . S
C1266 C1267 1.367 . S
C1266 C1274 1.378 . S
C1267 C1266 1.367 . S
C1267 C1275 1.433 . S
C1268 H1264 0.929 . S
C1268 C1270 1.378 . S
C1268 C1272 1.350 . S
C1269 C1272 1.463 . S
C1269 C1274 1.350 . S
C1269 N1277 1.427 . S
C1270 H1261 0.930 . S
C1270 C1268 1.378 . S
C1270 C1271 1.367 . S
C1271 C1270 1.367 . S
C1271 C1273 1.433 . S
C1272 C1268 1.350 . S
C1272 C1269 1.463 . S
C1272 N1276 1.427 . S
C1273 H1263 0.929 . S
C1273 C1271 1.433 . S
C1273 N1276 1.384 . S
C1274 H1265 0.929 . S
C1274 C1266 1.378 . S
C1274 C1269 1.350 . S
C1275 H1262 0.929 . S
C1275 C1267 1.433 . S
C1275 N1277 1.384 . S
N1276 C1272 1.427 . S
N1276 C1273 1.384 . S
N1277 C1269 1.427 . S
N1277 C1275 1.384 . S
H1278 C1284 0.930 . S
H1279 C1288 0.930 . S
H1280 C1293 0.929 . S
H1281 C1291 0.929 . S
H1282 C1286 0.929 . S
H1283 C1292 0.929 . S
C1284 H1278 0.930 . S
C1284 C1285 1.367 . S
C1284 C1292 1.378 . S
C1285 C1284 1.367 . S
C1285 C1293 1.433 . S
C1286 H1282 0.929 . S
C1286 C1288 1.378 . S
C1286 C1290 1.350 . S
C1287 C1290 1.463 . S
C1287 C1292 1.350 . S
C1287 N1295 1.427 . S
C1288 H1279 0.930 . S
C1288 C1286 1.378 . S
C1288 C1289 1.367 . S
C1289 C1288 1.367 . S
C1289 C1291 1.433 . S
C1290 C1286 1.350 . S
C1290 C1287 1.463 . S
C1290 N1294 1.427 . S
C1291 H1281 0.929 . S
C1291 C1289 1.433 . S
C1291 N1294 1.384 . S
C1292 H1283 0.929 . S
C1292 C1284 1.378 . S
C1292 C1287 1.350 . S
C1293 H1280 0.929 . S
C1293 C1285 1.433 . S
C1293 N1295 1.384 . S
N1294 C1290 1.427 . S
N1294 C1291 1.384 . S
N1295 C1287 1.427 . S
N1295 C1293 1.384 . S
H1296 C1302 0.930 . S
H1297 C1306 0.930 . S
H1298 C1311 0.929 . S
H1299 C1309 0.929 . S
H1300 C1304 0.929 . S
H1301 C1310 0.929 . S
C1302 H1296 0.930 . S
C1302 C1303 1.367 . S
C1302 C1310 1.378 . S
C1303 C1302 1.367 . S
C1303 C1311 1.433 . S
C1304 H1300 0.929 . S
C1304 C1306 1.378 . S
C1304 C1308 1.350 . S
C1305 C1308 1.463 . S
C1305 C1310 1.350 . S
C1305 N1313 1.427 . S
C1306 H1297 0.930 . S
C1306 C1304 1.378 . S
C1306 C1307 1.367 . S
C1307 C1306 1.367 . S
C1307 C1309 1.433 . S
C1308 C1304 1.350 . S
C1308 C1305 1.463 . S
C1308 N1312 1.427 . S
C1309 H1299 0.929 . S
C1309 C1307 1.433 . S
C1309 N1312 1.384 . S
C1310 H1301 0.929 . S
C1310 C1302 1.378 . S
C1310 C1305 1.350 . S
C1311 H1298 0.929 . S
C1311 C1303 1.433 . S
C1311 N1313 1.384 . S
N1312 C1308 1.427 . S
N1312 C1309 1.384 . S
N1313 C1305 1.427 . S
N1313 C1311 1.384 . S
H1314 C1320 0.930 . S
H1315 C1324 0.930 . S
H1316 C1329 0.929 . S
H1317 C1327 0.929 . S
H1318 C1322 0.929 . S
H1319 C1328 0.929 . S
C1320 H1314 0.930 . S
C1320 C1321 1.367 . S
C1320 C1328 1.378 . S
C1321 C1320 1.367 . S
C1321 C1329 1.433 . S
C1322 H1318 0.929 . S
C1322 C1324 1.378 . S
C1322 C1326 1.350 . S
C1323 C1326 1.463 . S
C1323 C1328 1.350 1_565 S
C1323 N1331 1.427 1_565 S
C1324 H1315 0.930 . S
C1324 C1322 1.378 . S
C1324 C1325 1.367 . S
C1325 C1324 1.367 . S
C1325 C1327 1.433 . S
C1326 C1322 1.350 . S
C1326 C1323 1.463 . S
C1326 N1330 1.427 . S
C1327 H1317 0.929 . S
C1327 C1325 1.433 . S
C1327 N1330 1.384 . S
C1328 H1319 0.929 . S
C1328 C1320 1.378 . S
C1328 C1323 1.350 1_545 S
C1329 H1316 0.929 . S
C1329 C1321 1.433 . S
C1329 N1331 1.384 . S
N1330 C1326 1.427 . S
N1330 C1327 1.384 . S
N1331 C1323 1.427 1_545 S
N1331 C1329 1.384 . S
H1332 C1338 0.930 . S
H1333 C1342 0.930 . S
H1334 C1347 0.929 . S
H1335 C1345 0.929 . S
H1336 C1340 0.929 . S
H1337 C1346 0.929 . S
C1338 H1332 0.930 . S
C1338 C1339 1.367 . S
C1338 C1346 1.378 1_655 S
C1339 C1338 1.367 . S
C1339 C1347 1.433 . S
C1340 H1336 0.929 . S
C1340 C1342 1.378 . S
C1340 C1344 1.350 . S
C1341 C1344 1.463 . S
C1341 C1346 1.350 . S
C1341 N1349 1.427 . S
C1342 H1333 0.930 . S
C1342 C1340 1.378 . S
C1342 C1343 1.367 . S
C1343 C1342 1.367 . S
C1343 C1345 1.433 . S
C1344 C1340 1.350 . S
C1344 C1341 1.463 . S
C1344 N1348 1.427 . S
C1345 H1335 0.929 . S
C1345 C1343 1.433 . S
C1345 N1348 1.384 . S
C1346 H1337 0.929 . S
C1346 C1338 1.378 1_455 S
C1346 C1341 1.350 . S
C1347 H1334 0.929 . S
C1347 C1339 1.433 . S
C1347 N1349 1.384 1_655 S
N1348 C1344 1.427 . S
N1348 C1345 1.384 . S
N1349 C1341 1.427 . S
N1349 C1347 1.384 1_455 S
H1350 C1356 0.930 . S
H1351 C1360 0.930 . S
H1352 C1365 0.929 . S
H1353 C1363 0.929 . S
H1354 C1358 0.929 . S
H1355 C1364 0.929 . S
C1356 H1350 0.930 . S
C1356 C1357 1.367 . S
C1356 C1364 1.378 . S
C1357 C1356 1.367 . S
C1357 C1365 1.433 . S
C1358 H1354 0.929 . S
C1358 C1360 1.378 . S
C1358 C1362 1.350 . S
C1359 C1362 1.463 . S
C1359 C1364 1.350 . S
C1359 N1367 1.427 . S
C1360 H1351 0.930 . S
C1360 C1358 1.378 . S
C1360 C1361 1.367 . S
C1361 C1360 1.367 . S
C1361 C1363 1.433 . S
C1362 C1358 1.350 . S
C1362 C1359 1.463 . S
C1362 N1366 1.427 . S
C1363 H1353 0.929 . S
C1363 C1361 1.433 . S
C1363 N1366 1.384 . S
C1364 H1355 0.929 . S
C1364 C1356 1.378 . S
C1364 C1359 1.350 . S
C1365 H1352 0.929 . S
C1365 C1357 1.433 . S
C1365 N1367 1.384 . S
N1366 C1362 1.427 . S
N1366 C1363 1.384 . S
N1367 C1359 1.427 . S
N1367 C1365 1.384 . S
H1368 C1374 0.930 . S
H1369 C1378 0.930 . S
H1370 C1383 0.929 . S
H1371 C1381 0.929 . S
H1372 C1376 0.929 . S
H1373 C1382 0.929 . S
C1374 H1368 0.930 . S
C1374 C1375 1.367 . S
C1374 C1382 1.378 . S
C1375 C1374 1.367 . S
C1375 C1383 1.433 . S
C1376 H1372 0.929 . S
C1376 C1378 1.378 . S
C1376 C1380 1.350 . S
C1377 C1380 1.463 . S
C1377 C1382 1.350 . S
C1377 N1385 1.427 . S
C1378 H1369 0.930 . S
C1378 C1376 1.378 . S
C1378 C1379 1.367 . S
C1379 C1378 1.367 . S
C1379 C1381 1.433 . S
C1380 C1376 1.350 . S
C1380 C1377 1.463 . S
C1380 N1384 1.427 . S
C1381 H1371 0.929 . S
C1381 C1379 1.433 . S
C1381 N1384 1.384 . S
C1382 H1373 0.929 . S
C1382 C1374 1.378 . S
C1382 C1377 1.350 . S
C1383 H1370 0.929 . S
C1383 C1375 1.433 . S
C1383 N1385 1.384 . S
N1384 C1380 1.427 . S
N1384 C1381 1.384 . S
N1385 C1377 1.427 . S
N1385 C1383 1.384 . S
H1386 C1392 0.930 . S
H1387 C1396 0.930 . S
H1388 C1401 0.929 . S
H1389 C1399 0.929 . S
H1390 C1394 0.929 . S
H1391 C1400 0.929 . S
C1392 H1386 0.930 . S
C1392 C1393 1.367 . S
C1392 C1400 1.378 . S
C1393 C1392 1.367 . S
C1393 C1401 1.433 . S
C1394 H1390 0.929 . S
C1394 C1396 1.378 . S
C1394 C1398 1.350 . S
C1395 C1398 1.463 . S
C1395 C1400 1.350 . S
C1395 N1403 1.427 . S
C1396 H1387 0.930 . S
C1396 C1394 1.378 . S
C1396 C1397 1.367 . S
C1397 C1396 1.367 . S
C1397 C1399 1.433 . S
C1398 C1394 1.350 . S
C1398 C1395 1.463 . S
C1398 N1402 1.427 . S
C1399 H1389 0.929 . S
C1399 C1397 1.433 . S
C1399 N1402 1.384 . S
C1400 H1391 0.929 . S
C1400 C1392 1.378 . S
C1400 C1395 1.350 . S
C1401 H1388 0.929 . S
C1401 C1393 1.433 . S
C1401 N1403 1.384 . S
N1402 C1398 1.427 . S
N1402 C1399 1.384 . S
N1403 C1395 1.427 . S
N1403 C1401 1.384 . S
H1404 C1410 0.930 . S
H1405 C1414 0.930 . S
H1406 C1419 0.929 . S
H1407 C1417 0.929 . S
H1408 C1412 0.929 . S
H1409 C1418 0.929 . S
C1410 H1404 0.930 . S
C1410 C1411 1.367 . S
C1410 C1418 1.378 . S
C1411 C1410 1.367 . S
C1411 C1419 1.433 . S
C1412 H1408 0.929 . S
C1412 C1414 1.378 . S
C1412 C1416 1.350 . S
C1413 C1416 1.463 . S
C1413 C1418 1.350 . S
C1413 N1421 1.427 . S
C1414 H1405 0.930 . S
C1414 C1412 1.378 . S
C1414 C1415 1.367 . S
C1415 C1414 1.367 . S
C1415 C1417 1.433 . S
C1416 C1412 1.350 . S
C1416 C1413 1.463 . S
C1416 N1420 1.427 . S
C1417 H1407 0.929 . S
C1417 C1415 1.433 . S
C1417 N1420 1.384 . S
C1418 H1409 0.929 . S
C1418 C1410 1.378 . S
C1418 C1413 1.350 . S
C1419 H1406 0.929 . S
C1419 C1411 1.433 . S
C1419 N1421 1.384 . S
N1420 C1416 1.427 . S
N1420 C1417 1.384 . S
N1421 C1413 1.427 . S
N1421 C1419 1.384 . S
H1422 C1428 0.930 . S
H1423 C1432 0.930 . S
H1424 C1437 0.929 . S
H1425 C1435 0.929 . S
H1426 C1430 0.929 . S
H1427 C1436 0.949 . S
C1428 H1422 0.930 . S
C1428 C1429 1.367 . S
C1428 C1436 1.378 . S
C1429 C1428 1.367 . S
C1429 C1437 1.433 . S
C1430 H1426 0.929 . S
C1430 C1432 1.378 . S
C1430 C1434 1.350 . S
C1431 C1434 1.463 . S
C1431 C1436 1.350 1_545 S
C1431 N1439 1.427 1_545 S
C1432 H1423 0.930 . S
C1432 C1430 1.378 . S
C1432 C1433 1.367 . S
C1433 C1432 1.367 . S
C1433 C1435 1.433 . S
C1434 C1430 1.350 . S
C1434 C1431 1.463 . S
C1434 N1438 1.427 . S
C1435 H1425 0.929 . S
C1435 C1433 1.433 . S
C1435 N1438 1.384 . S
C1436 H1427 0.949 . S
C1436 C1428 1.378 . S
C1436 C1431 1.350 1_565 S
C1437 H1424 0.929 . S
C1437 C1429 1.433 . S
C1437 N1439 1.384 . S
N1438 C1434 1.427 . S
N1438 C1435 1.384 . S
N1439 C1431 1.427 1_565 S
N1439 C1437 1.384 . S
H1440 C1446 0.930 . S
H1441 C1450 0.930 . S
H1442 C1455 0.929 . S
H1443 C1453 0.929 . S
H1444 C1448 0.929 . S
H1445 C1454 0.929 . S
C1446 H1440 0.930 . S
C1446 C1447 1.367 . S
C1446 C1454 1.378 1_455 S
C1447 C1446 1.367 . S
C1447 C1455 1.433 . S
C1448 H1444 0.929 . S
C1448 C1450 1.378 . S
C1448 C1452 1.350 . S
C1449 C1452 1.463 . S
C1449 C1454 1.350 . S
C1449 N1457 1.427 . S
C1450 H1441 0.930 . S
C1450 C1448 1.378 . S
C1450 C1451 1.367 . S
C1451 C1450 1.367 . S
C1451 C1453 1.433 . S
C1452 C1448 1.350 . S
C1452 C1449 1.463 . S
C1452 N1456 1.427 . S
C1453 H1443 0.929 . S
C1453 C1451 1.433 . S
C1453 N1456 1.384 . S
C1454 H1445 0.929 . S
C1454 C1446 1.378 1_655 S
C1454 C1449 1.350 . S
C1455 H1442 0.929 . S
C1455 C1447 1.433 . S
C1455 N1457 1.384 1_455 S
N1456 C1452 1.427 . S
N1456 C1453 1.384 . S
N1457 C1449 1.427 . S
N1457 C1455 1.384 1_655 S
H1458 C1464 0.930 . S
H1459 C1468 0.930 . S
H1460 C1473 0.929 . S
H1461 C1471 0.929 . S
H1462 C1466 0.929 . S
H1463 C1472 0.929 . S
C1464 H1458 0.930 . S
C1464 C1465 1.367 . S
C1464 C1472 1.378 . S
C1465 C1464 1.367 . S
C1465 C1473 1.433 . S
C1466 H1462 0.929 . S
C1466 C1468 1.378 . S
C1466 C1470 1.350 . S
C1467 C1470 1.463 . S
C1467 C1472 1.350 . S
C1467 N1475 1.427 . S
C1468 H1459 0.930 . S
C1468 C1466 1.378 . S
C1468 C1469 1.367 . S
C1469 C1468 1.367 . S
C1469 C1471 1.433 . S
C1470 C1466 1.350 . S
C1470 C1467 1.463 . S
C1470 N1474 1.427 . S
C1471 H1461 0.929 . S
C1471 C1469 1.433 . S
C1471 N1474 1.384 . S
C1472 H1463 0.929 . S
C1472 C1464 1.378 . S
C1472 C1467 1.350 . S
C1473 H1460 0.929 . S
C1473 C1465 1.433 . S
C1473 N1475 1.384 . S
N1474 C1470 1.427 . S
N1474 C1471 1.384 . S
N1475 C1467 1.427 . S
N1475 C1473 1.384 . S
H1476 C1482 0.930 . S
H1477 C1486 0.930 . S
H1478 C1491 0.929 . S
H1479 C1489 0.929 . S
H1480 C1484 0.929 . S
H1481 C1490 0.929 . S
C1482 H1476 0.930 . S
C1482 C1483 1.367 . S
C1482 C1490 1.378 1_455 S
C1483 C1482 1.367 . S
C1483 C1491 1.433 . S
C1484 H1480 0.929 . S
C1484 C1486 1.378 . S
C1484 C1488 1.350 . S
C1485 C1488 1.463 . S
C1485 C1490 1.350 . S
C1485 N1493 1.427 1_655 S
C1486 H1477 0.930 . S
C1486 C1484 1.378 . S
C1486 C1487 1.367 . S
C1487 C1486 1.367 . S
C1487 C1489 1.433 . S
C1488 C1484 1.350 . S
C1488 C1485 1.463 . S
C1488 N1492 1.427 . S
C1489 H1479 0.929 . S
C1489 C1487 1.433 . S
C1489 N1492 1.384 . S
C1490 H1481 0.929 . S
C1490 C1482 1.378 1_655 S
C1490 C1485 1.350 . S
C1491 H1478 0.929 . S
C1491 C1483 1.433 . S
C1491 N1493 1.384 . S
N1492 C1488 1.427 . S
N1492 C1489 1.384 . S
N1493 C1485 1.427 1_455 S
N1493 C1491 1.384 . S
H1494 C1500 0.930 . S
H1495 C1504 0.930 . S
H1496 C1509 0.929 . S
H1497 C1507 0.929 . S
H1498 C1502 0.929 . S
H1499 C1508 0.929 . S
C1500 H1494 0.930 . S
C1500 C1501 1.367 . S
C1500 C1508 1.378 . S
C1501 C1500 1.367 . S
C1501 C1509 1.433 . S
C1502 H1498 0.929 . S
C1502 C1504 1.378 . S
C1502 C1506 1.350 . S
C1503 C1506 1.463 . S
C1503 C1508 1.350 . S
C1503 N1511 1.427 . S
C1504 H1495 0.930 . S
C1504 C1502 1.378 . S
C1504 C1505 1.367 . S
C1505 C1504 1.367 . S
C1505 C1507 1.433 . S
C1506 C1502 1.350 . S
C1506 C1503 1.463 . S
C1506 N1510 1.427 . S
C1507 H1497 0.929 . S
C1507 C1505 1.433 . S
C1507 N1510 1.384 . S
C1508 H1499 0.929 . S
C1508 C1500 1.378 . S
C1508 C1503 1.350 . S
C1509 H1496 0.929 . S
C1509 C1501 1.433 . S
C1509 N1511 1.384 . S
N1510 C1506 1.427 . S
N1510 C1507 1.384 . S
N1511 C1503 1.427 . S
N1511 C1509 1.384 . S
H1512 C1518 0.930 . S
H1513 C1522 0.930 . S
H1514 C1527 0.929 . S
H1515 C1525 0.929 . S
H1516 C1520 0.929 . S
H1517 C1526 0.931 . S
C1518 H1512 0.930 . S
C1518 C1519 1.367 . S
C1518 C1526 1.378 . S
C1519 C1518 1.367 . S
C1519 C1527 1.433 . S
C1520 H1516 0.929 . S
C1520 C1522 1.378 . S
C1520 C1524 1.350 . S
C1521 C1524 1.463 . S
C1521 C1526 1.350 1_545 S
C1521 N1529 1.427 1_545 S
C1522 H1513 0.930 . S
C1522 C1520 1.378 . S
C1522 C1523 1.367 . S
C1523 C1522 1.367 . S
C1523 C1525 1.433 . S
C1524 C1520 1.350 . S
C1524 C1521 1.463 . S
C1524 N1528 1.427 . S
C1525 H1515 0.929 . S
C1525 C1523 1.433 . S
C1525 N1528 1.384 . S
C1526 H1517 0.931 . S
C1526 C1518 1.378 . S
C1526 C1521 1.350 1_565 S
C1527 H1514 0.929 . S
C1527 C1519 1.433 . S
C1527 N1529 1.384 . S
N1528 C1524 1.427 . S
N1528 C1525 1.384 . S
N1529 C1521 1.427 1_565 S
N1529 C1527 1.384 . S
H1530 C1536 0.930 . S
H1531 C1540 0.930 . S
H1532 C1545 0.929 . S
H1533 C1543 0.929 . S
H1534 C1538 0.929 . S
H1535 C1544 0.929 . S
C1536 H1530 0.930 . S
C1536 C1537 1.367 . S
C1536 C1544 1.378 . S
C1537 C1536 1.367 . S
C1537 C1545 1.433 . S
C1538 H1534 0.929 . S
C1538 C1540 1.378 . S
C1538 C1542 1.350 . S
C1539 C1542 1.463 . S
C1539 C1544 1.350 . S
C1539 N1547 1.427 . S
C1540 H1531 0.930 . S
C1540 C1538 1.378 . S
C1540 C1541 1.367 . S
C1541 C1540 1.367 . S
C1541 C1543 1.433 . S
C1542 C1538 1.350 . S
C1542 C1539 1.463 . S
C1542 N1546 1.427 . S
C1543 H1533 0.929 . S
C1543 C1541 1.433 . S
C1543 N1546 1.384 . S
C1544 H1535 0.929 . S
C1544 C1536 1.378 . S
C1544 C1539 1.350 . S
C1545 H1532 0.929 . S
C1545 C1537 1.433 . S
C1545 N1547 1.384 . S
N1546 C1542 1.427 . S
N1546 C1543 1.384 . S
N1547 C1539 1.427 . S
N1547 C1545 1.384 . S
H1548 C1554 0.930 . S
H1549 C1558 0.930 . S
H1550 C1563 0.929 . S
H1551 C1561 0.929 . S
H1552 C1556 0.929 . S
H1553 C1562 0.929 . S
C1554 H1548 0.930 . S
C1554 C1555 1.367 . S
C1554 C1562 1.378 . S
C1555 C1554 1.367 . S
C1555 C1563 1.433 . S
C1556 H1552 0.929 . S
C1556 C1558 1.378 . S
C1556 C1560 1.350 . S
C1557 C1560 1.463 . S
C1557 C1562 1.350 . S
C1557 N1565 1.427 . S
C1558 H1549 0.930 . S
C1558 C1556 1.378 . S
C1558 C1559 1.367 . S
C1559 C1558 1.367 . S
C1559 C1561 1.433 . S
C1560 C1556 1.350 . S
C1560 C1557 1.463 . S
C1560 N1564 1.427 . S
C1561 H1551 0.929 . S
C1561 C1559 1.433 . S
C1561 N1564 1.384 . S
C1562 H1553 0.929 . S
C1562 C1554 1.378 . S
C1562 C1557 1.350 . S
C1563 H1550 0.929 . S
C1563 C1555 1.433 . S
C1563 N1565 1.384 . S
N1564 C1560 1.427 . S
N1564 C1561 1.384 . S
N1565 C1557 1.427 . S
N1565 C1563 1.384 . S
H1566 C1572 0.930 . S
H1567 C1576 0.930 . S
H1568 C1581 0.929 . S
H1569 C1579 0.929 . S
H1570 C1574 0.929 . S
H1571 C1580 0.929 . S
C1572 H1566 0.930 . S
C1572 C1573 1.367 . S
C1572 C1580 1.378 . S
C1573 C1572 1.367 . S
C1573 C1581 1.433 . S
C1574 H1570 0.929 . S
C1574 C1576 1.378 . S
C1574 C1578 1.350 . S
C1575 C1578 1.463 . S
C1575 C1580 1.350 . S
C1575 N1583 1.427 . S
C1576 H1567 0.930 . S
C1576 C1574 1.378 . S
C1576 C1577 1.367 . S
C1577 C1576 1.367 . S
C1577 C1579 1.433 . S
C1578 C1574 1.350 . S
C1578 C1575 1.463 . S
C1578 N1582 1.427 . S
C1579 H1569 0.929 . S
C1579 C1577 1.433 . S
C1579 N1582 1.384 . S
C1580 H1571 0.929 . S
C1580 C1572 1.378 . S
C1580 C1575 1.350 . S
C1581 H1568 0.929 . S
C1581 C1573 1.433 . S
C1581 N1583 1.384 . S
N1582 C1578 1.427 . S
N1582 C1579 1.384 . S
N1583 C1575 1.427 . S
N1583 C1581 1.384 . S
H1584 C1590 0.930 . S
H1585 C1594 0.930 . S
H1586 C1599 0.929 . S
H1587 C1597 0.929 . S
H1588 C1592 0.929 . S
H1589 C1598 0.929 1_545 S
C1590 H1584 0.930 . S
C1590 C1591 1.367 . S
C1590 C1598 1.378 . S
C1591 C1590 1.367 . S
C1591 C1599 1.433 . S
C1592 H1588 0.929 . S
C1592 C1594 1.378 . S
C1592 C1596 1.350 . S
C1593 C1596 1.463 . S
C1593 C1598 1.350 . S
C1593 N1601 1.427 . S
C1594 H1585 0.930 . S
C1594 C1592 1.378 . S
C1594 C1595 1.367 . S
C1595 C1594 1.367 . S
C1595 C1597 1.433 1_565 S
C1596 C1592 1.350 . S
C1596 C1593 1.463 . S
C1596 N1600 1.418 1_565 S
C1597 H1587 0.929 . S
C1597 C1595 1.433 1_545 S
C1597 N1600 1.388 . S
C1598 H1589 0.929 1_565 S
C1598 C1590 1.378 . S
C1598 C1593 1.350 . S
C1599 H1586 0.929 . S
C1599 C1591 1.433 . S
C1599 N1601 1.384 . S
N1600 C1596 1.418 1_545 S
N1600 C1597 1.388 . S
N1601 C1593 1.427 . S
N1601 C1599 1.384 . S
H1602 C1608 0.930 . S
H1603 C1612 0.930 . S
H1604 C1617 0.929 . S
H1605 C1615 0.929 . S
H1606 C1610 0.929 . S
H1607 C1616 0.929 . S
C1608 H1602 0.930 . S
C1608 C1609 1.367 . S
C1608 C1616 1.378 . S
C1609 C1608 1.367 . S
C1609 C1617 1.433 1_455 S
C1610 H1606 0.929 . S
C1610 C1612 1.378 . S
C1610 C1614 1.350 1_655 S
C1611 C1614 1.463 . S
C1611 C1616 1.350 . S
C1611 N1619 1.427 1_455 S
C1612 H1603 0.930 . S
C1612 C1610 1.378 . S
C1612 C1613 1.367 1_655 S
C1613 C1612 1.367 1_455 S
C1613 C1615 1.433 . S
C1614 C1610 1.350 1_455 S
C1614 C1611 1.463 . S
C1614 N1618 1.427 . S
C1615 H1605 0.929 . S
C1615 C1613 1.433 . S
C1615 N1618 1.384 . S
C1616 H1607 0.929 . S
C1616 C1608 1.378 . S
C1616 C1611 1.350 . S
C1617 H1604 0.929 . S
C1617 C1609 1.433 1_655 S
C1617 N1619 1.384 . S
N1618 C1614 1.427 . S
N1618 C1615 1.384 . S
N1619 C1611 1.427 1_655 S
N1619 C1617 1.384 . S
H1620 C1626 0.930 . S
H1621 C1630 0.930 . S
H1622 C1635 0.929 . S
H1623 C1633 0.929 . S
H1624 C1628 0.929 . S
H1625 C1634 0.929 . S
C1626 H1620 0.930 . S
C1626 C1627 1.367 . S
C1626 C1634 1.378 . S
C1627 C1626 1.367 . S
C1627 C1635 1.433 . S
C1628 H1624 0.929 . S
C1628 C1630 1.378 . S
C1628 C1632 1.350 . S
C1629 C1632 1.463 . S
C1629 C1634 1.350 . S
C1629 N1637 1.427 . S
C1630 H1621 0.930 . S
C1630 C1628 1.378 . S
C1630 C1631 1.367 . S
C1631 C1630 1.367 . S
C1631 C1633 1.433 . S
C1632 C1628 1.350 . S
C1632 C1629 1.463 . S
C1632 N1636 1.427 . S
C1633 H1623 0.929 . S
C1633 C1631 1.433 . S
C1633 N1636 1.384 . S
C1634 H1625 0.929 . S
C1634 C1626 1.378 . S
C1634 C1629 1.350 . S
C1635 H1622 0.929 . S
C1635 C1627 1.433 . S
C1635 N1637 1.384 . S
N1636 C1632 1.427 . S
N1636 C1633 1.384 . S
N1637 C1629 1.427 . S
N1637 C1635 1.384 . S
H1638 C1644 0.930 . S
H1639 C1648 0.930 . S
H1640 C1653 0.929 . S
H1641 C1651 0.929 . S
H1642 C1646 0.929 . S
H1643 C1652 0.929 . S
C1644 H1638 0.930 . S
C1644 C1645 1.367 1_455 S
C1644 C1652 1.378 . S
C1645 C1644 1.367 1_655 S
C1645 C1653 1.433 . S
C1646 H1642 0.929 . S
C1646 C1648 1.378 . S
C1646 C1650 1.350 . S
C1647 C1650 1.463 . S
C1647 C1652 1.350 1_655 S
C1647 N1655 1.427 . S
C1648 H1639 0.930 . S
C1648 C1646 1.378 . S
C1648 C1649 1.367 . S
C1649 C1648 1.367 . S
C1649 C1651 1.433 1_655 S
C1650 C1646 1.350 . S
C1650 C1647 1.463 . S
C1650 N1654 1.427 1_655 S
C1651 H1641 0.929 . S
C1651 C1649 1.433 1_455 S
C1651 N1654 1.384 . S
C1652 H1643 0.929 . S
C1652 C1644 1.378 . S
C1652 C1647 1.350 1_455 S
C1653 H1640 0.929 . S
C1653 C1645 1.433 . S
C1653 N1655 1.384 . S
N1654 C1650 1.427 1_455 S
N1654 C1651 1.384 . S
N1655 C1647 1.427 . S
N1655 C1653 1.384 . S
H1656 C1662 0.930 . S
H1657 C1666 0.930 . S
H1658 C1671 0.929 . S
H1659 C1669 0.929 . S
H1660 C1664 0.929 . S
H1661 C1670 0.929 . S
C1662 H1656 0.930 . S
C1662 C1663 1.367 . S
C1662 C1670 1.378 . S
C1663 C1662 1.367 . S
C1663 C1671 1.433 . S
C1664 H1660 0.929 . S
C1664 C1666 1.378 . S
C1664 C1668 1.350 . S
C1665 C1668 1.463 . S
C1665 C1670 1.350 . S
C1665 N1673 1.427 . S
C1666 H1657 0.930 . S
C1666 C1664 1.378 . S
C1666 C1667 1.367 . S
C1667 C1666 1.367 . S
C1667 C1669 1.433 . S
C1668 C1664 1.350 . S
C1668 C1665 1.463 . S
C1668 N1672 1.427 . S
C1669 H1659 0.929 . S
C1669 C1667 1.433 . S
C1669 N1672 1.384 . S
C1670 H1661 0.929 . S
C1670 C1662 1.378 . S
C1670 C1665 1.350 . S
C1671 H1658 0.929 . S
C1671 C1663 1.433 . S
C1671 N1673 1.384 . S
N1672 C1668 1.427 . S
N1672 C1669 1.384 . S
N1673 C1665 1.427 . S
N1673 C1671 1.384 . S
H1674 C1680 0.930 . S
H1675 C1684 0.930 . S
H1676 C1689 0.929 . S
H1677 C1687 0.929 . S
H1678 C1682 0.929 . S
H1679 C1688 0.929 . S
C1680 H1674 0.930 . S
C1680 C1681 1.367 . S
C1680 C1688 1.378 . S
C1681 C1680 1.367 . S
C1681 C1689 1.433 . S
C1682 H1678 0.929 . S
C1682 C1684 1.378 . S
C1682 C1686 1.350 . S
C1683 C1686 1.463 . S
C1683 C1688 1.350 . S
C1683 N1691 1.427 . S
C1684 H1675 0.930 . S
C1684 C1682 1.378 . S
C1684 C1685 1.367 . S
C1685 C1684 1.367 . S
C1685 C1687 1.433 . S
C1686 C1682 1.350 . S
C1686 C1683 1.463 . S
C1686 N1690 1.427 . S
C1687 H1677 0.929 . S
C1687 C1685 1.433 . S
C1687 N1690 1.384 . S
C1688 H1679 0.929 . S
C1688 C1680 1.378 . S
C1688 C1683 1.350 . S
C1689 H1676 0.929 . S
C1689 C1681 1.433 . S
C1689 N1691 1.384 . S
N1690 C1686 1.427 . S
N1690 C1687 1.384 . S
N1691 C1683 1.427 . S
N1691 C1689 1.384 . S
H1692 C1698 0.930 . S
H1693 C1702 0.930 . S
H1694 C1707 0.929 . S
H1695 C1705 0.929 . S
H1696 C1700 0.929 . S
H1697 C1706 0.929 . S
C1698 H1692 0.930 . S
C1698 C1699 1.367 . S
C1698 C1706 1.378 . S
C1699 C1698 1.367 . S
C1699 C1707 1.433 . S
C1700 H1696 0.929 . S
C1700 C1702 1.378 . S
C1700 C1704 1.350 . S
C1701 C1704 1.463 . S
C1701 C1706 1.350 . S
C1701 N1709 1.427 . S
C1702 H1693 0.930 . S
C1702 C1700 1.378 . S
C1702 C1703 1.367 . S
C1703 C1702 1.367 . S
C1703 C1705 1.433 . S
C1704 C1700 1.350 . S
C1704 C1701 1.463 . S
C1704 N1708 1.427 . S
C1705 H1695 0.929 . S
C1705 C1703 1.433 . S
C1705 N1708 1.384 . S
C1706 H1697 0.929 . S
C1706 C1698 1.378 . S
C1706 C1701 1.350 . S
C1707 H1694 0.929 . S
C1707 C1699 1.433 . S
C1707 N1709 1.384 . S
N1708 C1704 1.427 . S
N1708 C1705 1.384 . S
N1709 C1701 1.427 . S
N1709 C1707 1.384 . S
H1710 C1716 0.930 . S
H1711 C1720 0.930 . S
H1712 C1725 0.929 . S
H1713 C1723 0.929 . S
H1714 C1718 0.929 . S
H1715 C1724 0.929 . S
C1716 H1710 0.930 . S
C1716 C1717 1.367 . S
C1716 C1724 1.378 . S
C1717 C1716 1.367 . S
C1717 C1725 1.433 . S
C1718 H1714 0.929 . S
C1718 C1720 1.378 . S
C1718 C1722 1.350 . S
C1719 C1722 1.463 . S
C1719 C1724 1.350 . S
C1719 N1727 1.427 . S
C1720 H1711 0.930 . S
C1720 C1718 1.378 . S
C1720 C1721 1.367 . S
C1721 C1720 1.367 . S
C1721 C1723 1.433 . S
C1722 C1718 1.350 . S
C1722 C1719 1.463 . S
C1722 N1726 1.427 . S
C1723 H1713 0.929 . S
C1723 C1721 1.433 . S
C1723 N1726 1.384 . S
C1724 H1715 0.929 . S
C1724 C1716 1.378 . S
C1724 C1719 1.350 . S
C1725 H1712 0.929 . S
C1725 C1717 1.433 . S
C1725 N1727 1.384 . S
N1726 C1722 1.427 . S
N1726 C1723 1.384 . S
N1727 C1719 1.427 . S
N1727 C1725 1.384 . S
H1728 C1734 0.930 . S
H1729 C1738 0.930 . S
H1730 C1743 0.929 . S
H1731 C1741 0.929 . S
H1732 C1736 0.929 . S
H1733 C1742 0.929 . S
C1734 H1728 0.930 . S
C1734 C1735 1.367 . S
C1734 C1742 1.378 . S
C1735 C1734 1.367 . S
C1735 C1743 1.433 . S
C1736 H1732 0.929 . S
C1736 C1738 1.378 . S
C1736 C1740 1.350 . S
C1737 C1740 1.463 . S
C1737 C1742 1.350 . S
C1737 N1745 1.427 . S
C1738 H1729 0.930 . S
C1738 C1736 1.378 . S
C1738 C1739 1.367 . S
C1739 C1738 1.367 . S
C1739 C1741 1.433 . S
C1740 C1736 1.350 . S
C1740 C1737 1.463 . S
C1740 N1744 1.427 . S
C1741 H1731 0.929 . S
C1741 C1739 1.433 . S
C1741 N1744 1.384 . S
C1742 H1733 0.929 . S
C1742 C1734 1.378 . S
C1742 C1737 1.350 . S
C1743 H1730 0.929 . S
C1743 C1735 1.433 . S
C1743 N1745 1.384 . S
N1744 C1740 1.427 . S
N1744 C1741 1.384 . S
N1745 C1737 1.427 . S
N1745 C1743 1.384 . S
H1746 C1752 0.930 . S
H1747 C1756 0.930 . S
H1748 C1761 0.929 . S
H1749 C1759 0.929 . S
H1750 C1754 0.929 . S
H1751 C1760 0.929 . S
C1752 H1746 0.930 . S
C1752 C1753 1.367 . S
C1752 C1760 1.378 . S
C1753 C1752 1.367 . S
C1753 C1761 1.433 . S
C1754 H1750 0.929 . S
C1754 C1756 1.378 . S
C1754 C1758 1.350 . S
C1755 C1758 1.463 . S
C1755 C1760 1.350 . S
C1755 N1763 1.427 . S
C1756 H1747 0.930 . S
C1756 C1754 1.378 . S
C1756 C1757 1.367 . S
C1757 C1756 1.367 . S
C1757 C1759 1.433 . S
C1758 C1754 1.350 . S
C1758 C1755 1.463 . S
C1758 N1762 1.427 . S
C1759 H1749 0.929 . S
C1759 C1757 1.433 . S
C1759 N1762 1.384 . S
C1760 H1751 0.929 . S
C1760 C1752 1.378 . S
C1760 C1755 1.350 . S
C1761 H1748 0.929 . S
C1761 C1753 1.433 . S
C1761 N1763 1.384 . S
N1762 C1758 1.427 . S
N1762 C1759 1.384 . S
N1763 C1755 1.427 . S
N1763 C1761 1.384 . S
H1764 C1770 0.930 . S
H1765 C1774 0.930 . S
H1766 C1779 0.929 . S
H1767 C1777 0.929 . S
H1768 C1772 0.929 . S
H1769 C1778 0.929 . S
C1770 H1764 0.930 . S
C1770 C1771 1.367 . S
C1770 C1778 1.378 . S
C1771 C1770 1.367 . S
C1771 C1779 1.433 . S
C1772 H1768 0.929 . S
C1772 C1774 1.378 . S
C1772 C1776 1.350 . S
C1773 C1776 1.463 . S
C1773 C1778 1.350 . S
C1773 N1781 1.427 . S
C1774 H1765 0.930 . S
C1774 C1772 1.378 . S
C1774 C1775 1.367 . S
C1775 C1774 1.367 . S
C1775 C1777 1.433 . S
C1776 C1772 1.350 . S
C1776 C1773 1.463 . S
C1776 N1780 1.427 . S
C1777 H1767 0.929 . S
C1777 C1775 1.433 . S
C1777 N1780 1.384 . S
C1778 H1769 0.929 . S
C1778 C1770 1.378 . S
C1778 C1773 1.350 . S
C1779 H1766 0.929 . S
C1779 C1771 1.433 . S
C1779 N1781 1.384 . S
N1780 C1776 1.427 . S
N1780 C1777 1.384 . S
N1781 C1773 1.427 . S
N1781 C1779 1.384 . S
H1782 C1788 0.930 . S
H1783 C1792 0.930 . S
H1784 C1797 0.929 . S
H1785 C1795 0.929 . S
H1786 C1790 0.929 . S
H1787 C1796 0.929 . S
C1788 H1782 0.930 . S
C1788 C1789 1.367 . S
C1788 C1796 1.378 . S
C1789 C1788 1.367 . S
C1789 C1797 1.433 . S
C1790 H1786 0.929 . S
C1790 C1792 1.378 . S
C1790 C1794 1.350 . S
C1791 C1794 1.463 . S
C1791 C1796 1.350 . S
C1791 N1799 1.427 . S
C1792 H1783 0.930 . S
C1792 C1790 1.378 . S
C1792 C1793 1.367 . S
C1793 C1792 1.367 . S
C1793 C1795 1.433 . S
C1794 C1790 1.350 . S
C1794 C1791 1.463 . S
C1794 N1798 1.427 . S
C1795 H1785 0.929 . S
C1795 C1793 1.433 . S
C1795 N1798 1.384 . S
C1796 H1787 0.929 . S
C1796 C1788 1.378 . S
C1796 C1791 1.350 . S
C1797 H1784 0.929 . S
C1797 C1789 1.433 . S
C1797 N1799 1.384 . S
N1798 C1794 1.427 . S
N1798 C1795 1.384 . S
N1799 C1791 1.427 . S
N1799 C1797 1.384 . S
H1800 C1806 0.930 . S
H1801 C1810 0.930 . S
H1802 C1815 0.929 . S
H1803 C1813 0.929 . S
H1804 C1808 0.929 . S
H1805 C1814 0.929 . S
C1806 H1800 0.930 . S
C1806 C1807 1.367 . S
C1806 C1814 1.378 . S
C1807 C1806 1.367 . S
C1807 C1815 1.433 . S
C1808 H1804 0.929 . S
C1808 C1810 1.378 . S
C1808 C1812 1.350 . S
C1809 C1812 1.463 . S
C1809 C1814 1.350 . S
C1809 N1817 1.427 . S
C1810 H1801 0.930 . S
C1810 C1808 1.378 . S
C1810 C1811 1.367 . S
C1811 C1810 1.367 . S
C1811 C1813 1.433 . S
C1812 C1808 1.350 . S
C1812 C1809 1.463 . S
C1812 N1816 1.427 . S
C1813 H1803 0.929 . S
C1813 C1811 1.433 . S
C1813 N1816 1.384 . S
C1814 H1805 0.929 . S
C1814 C1806 1.378 . S
C1814 C1809 1.350 . S
C1815 H1802 0.929 . S
C1815 C1807 1.433 . S
C1815 N1817 1.384 . S
N1816 C1812 1.427 . S
N1816 C1813 1.384 . S
N1817 C1809 1.427 . S
N1817 C1815 1.384 . S
H1818 C1824 0.930 . S
H1819 C1828 0.930 . S
H1820 C1833 0.929 . S
H1821 C1831 0.929 . S
H1822 C1826 0.929 . S
H1823 C1832 0.929 . S
C1824 H1818 0.930 . S
C1824 C1825 1.367 . S
C1824 C1832 1.378 . S
C1825 C1824 1.367 . S
C1825 C1833 1.433 . S
C1826 H1822 0.929 . S
C1826 C1828 1.378 . S
C1826 C1830 1.350 . S
C1827 C1830 1.463 . S
C1827 C1832 1.350 . S
C1827 N1835 1.427 . S
C1828 H1819 0.930 . S
C1828 C1826 1.378 . S
C1828 C1829 1.367 . S
C1829 C1828 1.367 . S
C1829 C1831 1.433 . S
C1830 C1826 1.350 . S
C1830 C1827 1.463 . S
C1830 N1834 1.427 . S
C1831 H1821 0.929 . S
C1831 C1829 1.433 . S
C1831 N1834 1.384 . S
C1832 H1823 0.929 . S
C1832 C1824 1.378 . S
C1832 C1827 1.350 . S
C1833 H1820 0.929 . S
C1833 C1825 1.433 . S
C1833 N1835 1.384 . S
N1834 C1830 1.427 . S
N1834 C1831 1.384 . S
N1835 C1827 1.427 . S
N1835 C1833 1.384 . S
H1836 C1842 0.930 . S
H1837 C1846 0.930 . S
H1838 C1851 0.929 . S
H1839 C1849 0.929 . S
H1840 C1844 0.929 . S
H1841 C1850 0.929 . S
C1842 H1836 0.930 . S
C1842 C1843 1.367 . S
C1842 C1850 1.378 . S
C1843 C1842 1.367 . S
C1843 C1851 1.433 . S
C1844 H1840 0.929 . S
C1844 C1846 1.378 . S
C1844 C1848 1.350 . S
C1845 C1848 1.463 . S
C1845 C1850 1.350 . S
C1845 N1853 1.427 . S
C1846 H1837 0.930 . S
C1846 C1844 1.378 . S
C1846 C1847 1.367 . S
C1847 C1846 1.367 . S
C1847 C1849 1.433 . S
C1848 C1844 1.350 . S
C1848 C1845 1.463 . S
C1848 N1852 1.427 . S
C1849 H1839 0.929 . S
C1849 C1847 1.433 . S
C1849 N1852 1.384 . S
C1850 H1841 0.929 . S
C1850 C1842 1.378 . S
C1850 C1845 1.350 . S
C1851 H1838 0.929 . S
C1851 C1843 1.433 . S
C1851 N1853 1.384 . S
N1852 C1848 1.427 . S
N1852 C1849 1.384 . S
N1853 C1845 1.427 . S
N1853 C1851 1.384 . S
H1854 C1860 0.930 . S
H1855 C1864 0.930 . S
H1856 C1869 0.929 . S
H1857 C1867 0.929 . S
H1858 C1862 0.929 . S
H1859 C1868 0.929 . S
C1860 H1854 0.930 . S
C1860 C1861 1.367 . S
C1860 C1868 1.378 . S
C1861 C1860 1.367 . S
C1861 C1869 1.433 . S
C1862 H1858 0.929 . S
C1862 C1864 1.378 . S
C1862 C1866 1.350 . S
C1863 C1866 1.463 . S
C1863 C1868 1.350 . S
C1863 N1871 1.427 . S
C1864 H1855 0.930 . S
C1864 C1862 1.378 . S
C1864 C1865 1.367 . S
C1865 C1864 1.367 . S
C1865 C1867 1.433 . S
C1866 C1862 1.350 . S
C1866 C1863 1.463 . S
C1866 N1870 1.427 . S
C1867 H1857 0.929 . S
C1867 C1865 1.433 . S
C1867 N1870 1.384 . S
C1868 H1859 0.929 . S
C1868 C1860 1.378 . S
C1868 C1863 1.350 . S
C1869 H1856 0.929 . S
C1869 C1861 1.433 . S
C1869 N1871 1.384 . S
N1870 C1866 1.427 . S
N1870 C1867 1.384 . S
N1871 C1863 1.427 . S
N1871 C1869 1.384 . S
H1872 C1878 0.930 . S
H1873 C1882 0.930 . S
H1874 C1887 0.929 . S
H1875 C1885 0.929 . S
H1876 C1880 0.929 . S
H1877 C1886 0.929 . S
C1878 H1872 0.930 . S
C1878 C1879 1.367 . S
C1878 C1886 1.378 . S
C1879 C1878 1.367 . S
C1879 C1887 1.433 . S
C1880 H1876 0.929 . S
C1880 C1882 1.378 . S
C1880 C1884 1.350 . S
C1881 C1884 1.463 . S
C1881 C1886 1.350 . S
C1881 N1889 1.427 . S
C1882 H1873 0.930 . S
C1882 C1880 1.378 . S
C1882 C1883 1.367 . S
C1883 C1882 1.367 . S
C1883 C1885 1.433 . S
C1884 C1880 1.350 . S
C1884 C1881 1.463 . S
C1884 N1888 1.427 . S
C1885 H1875 0.929 . S
C1885 C1883 1.433 . S
C1885 N1888 1.384 . S
C1886 H1877 0.929 . S
C1886 C1878 1.378 . S
C1886 C1881 1.350 . S
C1887 H1874 0.929 . S
C1887 C1879 1.433 . S
C1887 N1889 1.384 . S
N1888 C1884 1.427 . S
N1888 C1885 1.384 . S
N1889 C1881 1.427 . S
N1889 C1887 1.384 . S
H1890 C1896 0.930 . S
H1891 C1900 0.930 . S
H1892 C1905 0.929 . S
H1893 C1903 0.929 . S
H1894 C1898 0.929 . S
H1895 C1904 0.929 . S
C1896 H1890 0.930 . S
C1896 C1897 1.367 . S
C1896 C1904 1.378 . S
C1897 C1896 1.367 . S
C1897 C1905 1.433 . S
C1898 H1894 0.929 . S
C1898 C1900 1.378 . S
C1898 C1902 1.350 . S
C1899 C1902 1.463 . S
C1899 C1904 1.350 . S
C1899 N1907 1.427 . S
C1900 H1891 0.930 . S
C1900 C1898 1.378 . S
C1900 C1901 1.367 . S
C1901 C1900 1.367 . S
C1901 C1903 1.433 . S
C1902 C1898 1.350 . S
C1902 C1899 1.463 . S
C1902 N1906 1.427 . S
C1903 H1893 0.929 . S
C1903 C1901 1.433 . S
C1903 N1906 1.384 . S
C1904 H1895 0.929 . S
C1904 C1896 1.378 . S
C1904 C1899 1.350 . S
C1905 H1892 0.929 . S
C1905 C1897 1.433 . S
C1905 N1907 1.384 . S
N1906 C1902 1.427 . S
N1906 C1903 1.384 . S
N1907 C1899 1.427 . S
N1907 C1905 1.384 . S
C943 C439 1.524 . S
C947 C588 1.626 . S
C961 C465 1.809 . S
C965 C628 1.807 . S
C979 C401 1.723 . S
C983 C658 1.689 . S
C997 C369 1.559 . S
C1001 C618 1.526 . S
C1019 C668 1.513 . S
C1015 C305 1.504 . S
C1033 C343 1.273 . S
C1037 C578 1.351 1_556 S
C1055 C607 1.659 . S
C1051 C375 1.673 . S
C1073 C647 1.769 . S
C1069 C311 1.774 . S
C1087 C337 1.599 . S
C1091 C673 1.691 . S
C1105 C433 1.462 . S
C1109 C633 1.530 . S
C1123 C471 1.470 . S
C1127 C687 1.475 . S
C1145 C593 1.415 . S
C1141 C407 1.430 . S
C1163 C708 1.626 . S
C1159 C55 1.523 . S
C1177 C81 1.809 . S
C1181 C748 1.808 . S
C1195 C17 1.721 . S
C1199 C778 1.679 . S
C1213 C561 1.558 . S
C1217 C738 1.522 . S
C1231 C497 1.508 . S
C1235 C788 1.510 . S
C1249 C535 1.263 . S
C1253 C698 1.366 . S
C1267 C567 1.673 . S
C1271 C727 1.662 . S
C1285 C503 1.772 . S
C1289 C767 1.770 . S
C1307 C793 1.690 . S
C1303 C529 1.595 . S
C1321 C49 1.459 . S
C1325 C753 1.530 . S
C1343 C807 1.471 . S
C1339 C87 1.469 . S
C1357 C23 1.430 . S
C1361 C713 1.415 . S
C1379 C828 1.627 . S
C1375 C247 1.527 . S
C1393 C273 1.810 . S
C1397 C868 1.807 . S
C1415 C898 1.679 . S
C1411 C209 1.720 . S
C1433 C858 1.529 . S
C1429 C177 1.559 . S
C1451 C908 1.508 . S
C1447 C113 1.507 . S
C1465 C151 1.271 . S
C1469 C818 1.376 . S
C1483 C183 1.673 . S
C1487 C847 1.657 . S
C1501 C119 1.775 . S
C1505 C887 1.767 . S
C1523 C913 1.682 . S
C1519 C145 1.599 . S
C1537 C241 1.465 . S
C1541 C873 1.521 . S
C1555 C279 1.469 . S
C1559 C927 1.475 . S
C1573 C215 1.430 . S
C1577 C833 1.414 . S
C1591 C509 1.338 . S
C1595 C605 1.357 . S
C1613 C645 1.787 . S
C1609 C541 1.697 . S
C1627 C573 1.559 . S
C1631 C664 1.560 . S
C1645 C221 1.841 . S
C1649 C624 1.817 . S
C1663 C253 1.460 . S
C1667 C685 1.531 . S
C1685 C584 1.353 . S
C1681 C285 1.340 . S
C1699 C125 1.339 . S
C1703 C725 1.358 . S
C1717 C157 1.696 . S
C1721 C765 1.786 . S
C1735 C189 1.559 . S
C1739 C784 1.557 . S
C1753 C413 1.842 . S
C1757 C744 1.816 . S
C1775 C805 1.532 . S
C1771 C445 1.473 . S
C1789 C477 1.332 . S
C1793 C704 1.347 . S
C1807 C317 1.339 . S
C1811 C845 1.357 . S
C1825 C349 1.708 . S
C1829 C885 1.789 . S
C1847 C904 1.561 . S
C1843 C381 1.557 . S
C1861 C29 1.839 . S
C1865 C864 1.813 . S
C1879 C61 1.459 . S
C1883 C925 1.530 . S
C1897 C93 1.342 . S
C1901 C824 1.352 . S
