# Generated by pormake.
# Topology csq, (4,8)-cn, num edge types: 1
# Building blocks:
#     Node 0, Type 0, BuildingBlock: GIZVER_clean_linker_0, # of connection points: 4
#     Node 1, Type 0, BuildingBlock: GIZVER_clean_linker_0, # of connection points: 4
#     Node 2, Type 0, BuildingBlock: GIZVER_clean_linker_0, # of connection points: 4
#     Node 3, Type 0, BuildingBlock: GIZVER_clean_linker_0, # of connection points: 4
#     Node 4, Type 0, BuildingBlock: GIZVER_clean_linker_0, # of connection points: 4
#     Node 5, Type 0, BuildingBlock: GIZVER_clean_linker_0, # of connection points: 4
#     Node 6, Type 1, BuildingBlock: TAGTUT_clean_sbu_3, # of connection points: 8
#     Node 7, Type 1, BuildingBlock: TAGTUT_clean_sbu_3, # of connection points: 8
#     Node 8, Type 1, BuildingBlock: TAGTUT_clean_sbu_3, # of connection points: 8
#     Edge 9, Type (0, 1), BuildingBlock: KIFKEQ_clean_linker_1, # of connection points: 2
#     Edge 10, Type (0, 1), BuildingBlock: KIFKEQ_clean_linker_1, # of connection points: 2
#     Edge 11, Type (0, 1), BuildingBlock: KIFKEQ_clean_linker_1, # of connection points: 2
#     Edge 12, Type (0, 1), BuildingBlock: KIFKEQ_clean_linker_1, # of connection points: 2
#     Edge 13, Type (0, 1), BuildingBlock: KIFKEQ_clean_linker_1, # of connection points: 2
#     Edge 14, Type (0, 1), BuildingBlock: KIFKEQ_clean_linker_1, # of connection points: 2
#     Edge 15, Type (0, 1), BuildingBlock: KIFKEQ_clean_linker_1, # of connection points: 2
#     Edge 16, Type (0, 1), BuildingBlock: KIFKEQ_clean_linker_1, # of connection points: 2
#     Edge 17, Type (0, 1), BuildingBlock: KIFKEQ_clean_linker_1, # of connection points: 2
#     Edge 18, Type (0, 1), BuildingBlock: KIFKEQ_clean_linker_1, # of connection points: 2
#     Edge 19, Type (0, 1), BuildingBlock: KIFKEQ_clean_linker_1, # of connection points: 2
#     Edge 20, Type (0, 1), BuildingBlock: KIFKEQ_clean_linker_1, # of connection points: 2
#     Edge 21, Type (0, 1), BuildingBlock: KIFKEQ_clean_linker_1, # of connection points: 2
#     Edge 22, Type (0, 1), BuildingBlock: KIFKEQ_clean_linker_1, # of connection points: 2
#     Edge 23, Type (0, 1), BuildingBlock: KIFKEQ_clean_linker_1, # of connection points: 2
#     Edge 24, Type (0, 1), BuildingBlock: KIFKEQ_clean_linker_1, # of connection points: 2
#     Edge 25, Type (0, 1), BuildingBlock: KIFKEQ_clean_linker_1, # of connection points: 2
#     Edge 26, Type (0, 1), BuildingBlock: KIFKEQ_clean_linker_1, # of connection points: 2
#     Edge 27, Type (0, 1), BuildingBlock: KIFKEQ_clean_linker_1, # of connection points: 2
#     Edge 28, Type (0, 1), BuildingBlock: KIFKEQ_clean_linker_1, # of connection points: 2
#     Edge 29, Type (0, 1), BuildingBlock: KIFKEQ_clean_linker_1, # of connection points: 2
#     Edge 30, Type (0, 1), BuildingBlock: KIFKEQ_clean_linker_1, # of connection points: 2
#     Edge 31, Type (0, 1), BuildingBlock: KIFKEQ_clean_linker_1, # of connection points: 2
#     Edge 32, Type (0, 1), BuildingBlock: KIFKEQ_clean_linker_1, # of connection points: 2
# Relax obj value: 0.038
# Max RMSD: 0.114
# Mean RMSD: 0.081
data_MOF--net-csq--node1-TAGTUT_clean_sbu_3--node2-GIZVER_clean_linker_0--edge1-KIFKEQ_clean_linker_1
_symmetry_space_group_name_H-M    P1
_symmetry_Int_Tables_number       1
_symmetry_cell_setting            triclinic
loop_
_symmetry_equiv_pos_as_xyz
'x, y, z'
_cell_length_a     55.778681
_cell_length_b     55.023237
_cell_length_c     18.397476
_cell_angle_alpha  92.366779
_cell_angle_beta   92.83107
_cell_angle_gamma 119.66711
loop_
_atom_site_label
_atom_site_type_symbol
_atom_site_fract_x
_atom_site_fract_y
_atom_site_fract_z
_atom_type_partial_charge
H0 H 0.22963 0.50767 0.05207 0.0
H1 H 0.24159 0.53806 0.27834 0.0
H2 H 0.1603 0.47897 0.18348 0.0
H3 H 0.27153 0.55301 0.10273 0.0
H4 H 0.27856 0.56124 0.19926 0.0
H5 H 0.30116 0.5387 0.05254 0.0
H6 H 0.33344 0.49568 0.17706 0.0
H7 H 0.27815 0.51866 0.27243 0.0
C8 C 0.22137 0.50712 0.10447 0.0
C9 C 0.19277 0.49049 0.11082 0.0
C10 C 0.23923 0.52406 0.165 0.0
C11 C 0.2282 0.52437 0.23216 0.0
C12 C 0.19976 0.50748 0.23912 0.0
C13 C 0.18245 0.49052 0.17873 0.0
C14 C 0.26954 0.54363 0.15609 0.0
C15 C 0.28605 0.52864 0.16011 0.0
C16 C 0.30155 0.52861 0.10158 0.0
C17 C 0.31878 0.51686 0.10837 0.0
C18 C 0.31959 0.50419 0.17172 0.0
C19 C 0.30509 0.50471 0.23086 0.0
C20 C 0.28848 0.51719 0.22549 0.0
H21 H 0.79952 0.27612 0.98314 0.0
H22 H 0.81373 0.2688 0.21131 0.0
H23 H 0.84467 0.35016 0.12974 0.0
H24 H 0.79376 0.23228 0.02536 0.0
H25 H 0.8011 0.22953 0.11922 0.0
H26 H 0.74841 0.22589 0.98089 0.0
H27 H 0.68161 0.1796 0.11449 0.0
H28 H 0.76536 0.21475 0.20443 0.0
C29 C 0.80727 0.28585 0.03801 0.0
C30 C 0.82182 0.31522 0.04969 0.0
C31 C 0.80394 0.26897 0.09627 0.0
C32 C 0.81523 0.28167 0.16677 0.0
C33 C 0.82951 0.31097 0.17924 0.0
C34 C 0.8322 0.32752 0.12082 0.0
C35 C 0.79082 0.23766 0.08197 0.0
C36 C 0.76033 0.22331 0.09262 0.0
C37 C 0.74111 0.21869 0.03362 0.0
C38 C 0.71252 0.20293 0.04111 0.0
C39 C 0.70352 0.19327 0.10928 0.0
C40 C 0.7223 0.19717 0.168 0.0
C41 C 0.75077 0.21244 0.15982 0.0
H42 H 0.5731 0.82074 0.95325 0.0
H43 H 0.56794 0.80314 0.18025 0.0
H44 H 0.54945 0.86524 0.10482 0.0
H45 H 0.59732 0.79758 0.00838 0.0
H46 H 0.59572 0.79119 0.10269 0.0
H47 H 0.56137 0.76483 0.91761 0.0
H48 H 0.5087 0.6815 0.97983 0.0
H49 H 0.55772 0.74827 0.14477 0.0
C50 C 0.5681 0.82402 0.00765 0.0
C51 C 0.56042 0.84444 0.02188 0.0
C52 C 0.57098 0.80908 0.06488 0.0
C53 C 0.56521 0.81407 0.13568 0.0
C54 C 0.55728 0.83413 0.14977 0.0
C55 C 0.55492 0.84919 0.09305 0.0
C56 C 0.58304 0.79017 0.05279 0.0
C57 C 0.56069 0.76017 0.03363 0.0
C58 C 0.55227 0.75055 0.95991 0.0
C59 C 0.53361 0.72218 0.94037 0.0
C60 C 0.52267 0.70356 -0.00469 0.0
C61 C 0.53159 0.71238 0.06924 0.0
C62 C 0.55012 0.74106 0.08825 0.0
H63 H 0.75256 0.54985 0.93344 0.0
H64 H 0.76653 0.57161 0.16553 0.0
H65 H 0.68371 0.5251 0.06446 0.0
H66 H 0.79763 0.59142 -0.0036 0.0
H67 H 0.80513 0.5908 0.09147 0.0
H68 H 0.80709 0.56431 0.90828 0.0
H69 H 0.84257 0.51583 0.98497 0.0
H70 H 0.80927 0.55046 0.13678 0.0
C71 C 0.74457 0.5483 0.98663 0.0
C72 C 0.7159 0.53519 -0.00803 0.0
C73 C 0.76305 0.56088 0.0492 0.0
C74 C 0.75253 0.56068 0.11754 0.0
C75 C 0.72382 0.5472 0.1232 0.0
C76 C 0.70581 0.53399 0.06059 0.0
C77 C 0.79375 0.57719 0.04105 0.0
C78 C 0.80513 0.55793 0.02386 0.0
C79 C 0.81116 0.55397 0.95215 0.0
C80 C 0.82399 0.538 0.93807 0.0
C81 C 0.83056 0.52601 -0.00434 0.0
C82 C 0.82627 0.53104 0.06778 0.0
C83 C 0.8125 0.54615 0.0812 0.0
H84 H 0.25953 0.79509 0.96332 0.0
H85 H 0.30389 0.79644 0.1633 0.0
H86 H 0.32519 0.87315 0.06489 0.0
H87 H 0.26491 0.75265 0.00761 0.0
H88 H 0.2725 0.75284 0.10277 0.0
H89 H 0.22099 0.74666 0.95985 0.0
H90 H 0.15419 0.70965 0.09876 0.0
H91 H 0.23842 0.74797 0.19067 0.0
C92 C 0.2747 0.80677 0.00867 0.0
C93 C 0.29122 0.83605 0.00847 0.0
C94 C 0.27869 0.79243 0.06567 0.0
C95 C 0.29981 0.80754 0.1215 0.0
C96 C 0.31696 0.83659 0.12054 0.0
C97 C 0.31179 0.85068 0.06563 0.0
C98 C 0.26313 0.76083 0.06222 0.0
C99 C 0.23297 0.74929 0.0742 0.0
C100 C 0.21376 0.74235 0.01396 0.0
C101 C 0.18527 0.72816 0.0223 0.0
C102 C 0.17617 0.72208 0.09258 0.0
C103 C 0.19507 0.72908 0.15393 0.0
C104 C 0.22359 0.74301 0.14429 0.0
H105 H 0.52619 0.29608 0.07898 0.0
H106 H 0.50265 0.28515 0.29968 0.0
H107 H 0.46892 0.32098 0.15185 0.0
H108 H 0.55456 0.28948 0.17611 0.0
H109 H 0.54514 0.28633 0.26812 0.0
H110 H 0.52798 0.24913 0.08267 0.0
H111 H 0.49187 0.16749 0.16355 0.0
H112 H 0.5178 0.23996 0.31281 0.0
C113 C 0.51378 0.29739 0.12079 0.0
C114 C 0.49613 0.30836 0.10544 0.0
C115 C 0.516 0.28876 0.19086 0.0
C116 C 0.50041 0.2911 0.24538 0.0
C117 C 0.48336 0.30268 0.23171 0.0
C118 C 0.48094 0.31068 0.16141 0.0
C119 C 0.5367 0.27946 0.21027 0.0
C120 C 0.52356 0.24804 0.1987 0.0
C121 C 0.52065 0.23594 0.12788 0.0
C122 C 0.50896 0.20696 0.11545 0.0
C123 C 0.49987 0.18986 0.17366 0.0
C124 C 0.50311 0.20141 0.24528 0.0
C125 C 0.51494 0.2307 0.25769 0.0
C126 C 0.0536 0.49785 0.54368 0.0
C127 C 0.03657 0.46665 0.80205 0.0
C128 C 0.95387 0.4568 0.75597 0.0
Mg129 Mg 0.02659 0.52567 0.43996 0.0
Mg130 Mg 0.00961 0.56986 0.51439 0.0
O131 O 1.00404 0.53332 0.50959 0.0
Mg132 Mg 0.01141 0.51846 0.5993 0.0
O133 O 0.01946 0.50113 0.6837 0.0
Mg134 Mg 1.00181 0.46109 0.64218 0.0
Mg135 Mg 0.01278 0.50687 0.77965 0.0
C136 C 0.97073 0.54379 0.64376 0.0
O137 O 0.04017 0.56168 0.66028 0.0
O138 O 1.00155 0.53477 0.35095 0.0
O139 O 0.03195 0.55235 0.77813 0.0
O140 O 0.06186 0.57202 0.44821 0.0
O141 O 0.99138 0.56552 0.40659 0.0
O142 O 0.05291 0.60048 0.51628 0.0
O143 O 0.9822 0.47392 0.54884 0.0
O144 O 0.99223 0.47969 0.43297 0.0
C145 C 0.97858 0.46413 0.48261 0.0
C146 C 0.98991 0.54996 0.35092 0.0
O147 O 0.97619 0.52363 0.64831 0.0
O148 O 0.02524 0.45415 0.73902 0.0
O149 O 0.98353 0.56418 0.60316 0.0
O150 O 0.96292 0.44719 0.70635 0.0
O151 O 0.03457 0.48745 0.82874 0.0
O152 O 0.96916 0.48096 0.78924 0.0
O153 O 0.04623 0.51647 0.54184 0.0
O154 O 0.04039 0.47598 0.5786 0.0
C155 C 0.06925 0.5963 0.4784 0.0
C156 C 0.04256 0.56962 0.72838 0.0
C157 C 0.50292 0.04693 0.49344 0.0
C158 C 0.58993 0.03843 0.43236 0.0
C159 C 0.54167 0.95436 0.5082 0.0
Mg160 Mg 0.46022 0.01652 0.61692 0.0
Mg161 Mg 0.48197 1.00103 0.76869 0.0
O162 O 0.47764 0.99637 0.66695 0.0
Mg163 Mg 0.51095 0.00838 0.61171 0.0
O164 O 0.54244 0.02018 0.54975 0.0
Mg165 Mg 0.52161 1.00038 0.45424 0.0
Mg166 Mg 0.57095 0.0132 0.58105 0.0
C167 C 0.51787 0.97147 0.74064 0.0
O168 O 0.54251 0.04131 0.69974 0.0
O169 O 0.42138 0.98903 0.68096 0.0
O170 O 0.57944 0.03528 0.68803 0.0
O171 O 0.4775 0.0526 0.70614 0.0
O172 O 0.43833 0.97773 0.77982 0.0
O173 O 0.49901 0.0448 0.7998 0.0
O174 O 0.48271 0.97709 0.51825 0.0
O175 O 0.44538 0.98195 0.52557 0.0
C176 C 0.45817 0.97083 0.4953 0.0
C177 C 0.41805 0.97579 0.73906 0.0
O178 O 0.51936 0.97637 0.67256 0.0
O179 O 0.56445 0.02719 0.40677 0.0
O180 O 0.50678 0.98099 0.78479 0.0
O181 O 0.52977 0.96377 0.46621 0.0
O182 O 0.59689 0.03512 0.49705 0.0
O183 O 0.5577 0.96921 0.56363 0.0
O184 O 0.50091 0.03987 0.55929 0.0
O185 O 0.51144 0.03597 0.4457 0.0
C186 C 0.49229 0.06073 0.76678 0.0
C187 C 0.56716 0.04671 0.72044 0.0
C188 C 0.52335 0.56529 0.69719 0.0
C189 C 0.45198 0.48496 0.83847 0.0
C190 C 0.48752 0.43578 0.75087 0.0
Mg191 Mg 0.55112 0.5631 0.54617 0.0
Mg192 Mg 0.51352 0.51322 0.41679 0.0
O193 O 0.52757 0.52213 0.51437 0.0
Mg194 Mg 0.50365 0.50779 0.59764 0.0
O195 O 0.48229 0.4956 0.68549 0.0
Mg196 Mg 0.51266 0.50659 0.76411 0.0
Mg197 Mg 0.45232 0.45891 0.68521 0.0
C198 C 0.482 0.45292 0.48296 0.0
O199 O 0.46312 0.50056 0.5375 0.0
O200 O 0.58017 0.56471 0.45668 0.0
O201 O 0.43123 0.46093 0.58451 0.0
O202 O 0.52779 0.57662 0.46484 0.0
O203 O 0.55363 0.52792 0.3758 0.0
O204 O 0.49862 0.54132 0.38547 0.0
O205 O 0.54067 0.51186 0.66897 0.0
O206 O 0.57436 0.54979 0.62501 0.0
C207 C 0.56632 0.52981 0.66721 0.0
C208 C 0.57723 0.54876 0.39973 0.0
O209 O 0.48939 0.46312 0.54973 0.0
O210 O 0.4786 0.50015 0.84327 0.0
O211 O 0.48682 0.46832 0.42856 0.0
O212 O 0.50385 0.46121 0.77515 0.0
O213 O 0.43823 0.46737 0.78395 0.0
O214 O 0.4665 0.42935 0.70667 0.0
O215 O 0.51878 0.55392 0.63239 0.0
O216 O 0.52155 0.5513 0.75244 0.0
C217 C 0.50944 0.56684 0.41086 0.0
C218 C 0.43806 0.48029 0.53975 0.0
H219 H 0.20275 0.55408 0.30704 0.0
H220 H 0.16553 0.46455 0.31645 0.0
H221 H 0.17067 0.55465 0.39252 0.0
H222 H 0.13306 0.46472 0.39933 0.0
H223 H 0.08301 0.47139 0.57032 0.0
H224 H 0.12384 0.47735 0.51408 0.0
H225 H 0.12192 0.53959 0.38179 0.0
H226 H 0.08144 0.53432 0.44048 0.0
C227 C 0.18832 0.5347 0.32941 0.0
C228 C 0.18657 0.50927 0.30545 0.0
C229 C 0.16963 0.53491 0.37727 0.0
C230 C 0.14894 0.50968 0.40199 0.0
C231 C 0.14877 0.48461 0.38215 0.0
C232 C 0.16739 0.48444 0.33459 0.0
C233 C 0.09127 0.48639 0.52926 0.0
C234 C 0.07867 0.50208 0.50903 0.0
C235 C 0.11476 0.48983 0.49701 0.0
C236 C 0.12613 0.50877 0.44286 0.0
C237 C 0.11398 0.52505 0.42395 0.0
C238 C 0.09057 0.52184 0.45699 0.0
H239 H 0.73449 0.15849 0.21839 0.0
H240 H 0.68321 0.19562 0.25314 0.0
H241 H 0.70399 0.11872 0.28618 0.0
H242 H 0.65273 0.15595 0.32075 0.0
H243 H 0.58406 0.06507 0.3165 0.0
H244 H 0.62044 0.10629 0.26585 0.0
H245 H 0.68222 0.1017 0.40612 0.0
H246 H 0.64587 0.06029 0.45692 0.0
C247 C 0.71745 0.15877 0.24351 0.0
C248 C 0.71105 0.17997 0.23043 0.0
C249 C 0.69983 0.13587 0.28152 0.0
C250 C 0.67561 0.13394 0.30661 0.0
C251 C 0.67091 0.15662 0.3002 0.0
C252 C 0.68854 0.17949 0.26262 0.0
C253 C 0.6054 0.07243 0.33556 0.0
C254 C 0.61202 0.05948 0.39111 0.0
C255 C 0.6262 0.0963 0.30734 0.0
C256 C 0.65404 0.10755 0.33356 0.0
C257 C 0.66089 0.09359 0.38553 0.0
C258 C 0.64006 0.06985 0.41433 0.0
H259 H 0.52915 0.6617 0.05131 0.0
H260 H 0.51841 0.7144 0.21176 0.0
H261 H 0.51753 0.62622 0.13735 0.0
H262 H 0.50708 0.67852 0.29954 0.0
H263 H 0.52922 0.62267 0.44814 0.0
H264 H 0.53045 0.65758 0.36897 0.0
H265 H 0.47957 0.59191 0.20178 0.0
H266 H 0.47877 0.55692 0.28032 0.0
C267 C 0.52372 0.66555 0.10459 0.0
C268 C 0.52423 0.69085 0.12386 0.0
C269 C 0.51703 0.64506 0.15417 0.0
C270 C 0.51088 0.64921 0.22515 0.0
C271 C 0.51165 0.67461 0.2452 0.0
C272 C 0.51822 0.6952 0.19503 0.0
C273 C 0.51777 0.61553 0.39508 0.0
C274 C 0.50434 0.58692 0.37019 0.0
C275 C 0.5184 0.63564 0.34972 0.0
C276 C 0.50561 0.62766 0.27838 0.0
C277 C 0.4902 0.59885 0.25585 0.0
C278 C 0.48954 0.57872 0.30119 0.0
H279 H 0.85595 0.56684 0.18664 0.0
H280 H 0.83486 0.48632 0.0813 0.0
H281 H 0.89534 0.5686 0.25331 0.0
H282 H 0.87595 0.4894 0.14234 0.0
H283 H 0.94803 0.49941 0.2979 0.0
H284 H 0.90389 0.49066 0.24092 0.0
H285 H 0.93888 0.57967 0.21896 0.0
H286 H 0.98222 0.58826 0.281 0.0
C287 C 0.8592 0.54909 0.17907 0.0
C288 C 0.84266 0.52681 0.12689 0.0
C289 C 0.88238 0.55049 0.21579 0.0
C290 C 0.88981 0.52995 0.20012 0.0
C291 C 0.8713 0.50594 0.15496 0.0
C292 C 0.84767 0.50416 0.11979 0.0
C293 C 0.94646 0.51693 0.27839 0.0
C294 C 0.96844 0.54448 0.2932 0.0
C295 C 0.92104 0.51198 0.24645 0.0
C296 C 0.91741 0.53453 0.22744 0.0
C297 C 0.94045 0.56186 0.23582 0.0
C298 C 0.96557 0.56682 0.26947 0.0
H299 H 0.36876 0.87604 0.09027 0.0
H300 H 0.32142 0.83235 0.26829 0.0
H301 H 0.40774 0.90698 0.17703 0.0
H302 H 0.36121 0.86286 0.35488 0.0
H303 H 0.45278 0.91909 0.47091 0.0
H304 H 0.42124 0.88244 0.37641 0.0
H305 H 0.40016 0.94106 0.28486 0.0
H306 H 0.4306 0.97707 0.38012 0.0
C307 C 0.36677 0.87284 0.14786 0.0
C308 C 0.34173 0.85231 0.17278 0.0
C309 C 0.38921 0.89029 0.19712 0.0
C310 C 0.38728 0.88712 0.27203 0.0
C311 C 0.36311 0.86535 0.29697 0.0
C312 C 0.3404 0.84804 0.2476 0.0
C313 C 0.44177 0.92412 0.42951 0.0
C314 C 0.44387 0.95066 0.43222 0.0
C315 C 0.42373 0.90325 0.37615 0.0
C316 C 0.40845 0.90917 0.32408 0.0
C317 C 0.4119 0.9362 0.32451 0.0
C318 C 0.42923 0.9567 0.37872 0.0
H319 H 0.50999 0.3282 0.36404 0.0
H320 H 0.4321 0.2979 0.23659 0.0
H321 H 0.4985 0.35575 0.44578 0.0
H322 H 0.4203 0.32551 0.31959 0.0
H323 H 0.45229 0.42247 0.35817 0.0
H324 H 0.44205 0.37568 0.31818 0.0
H325 H 0.47269 0.36676 0.53013 0.0
H326 H 0.48359 0.4143 0.56992 0.0
C327 C 0.48979 0.32635 0.3554 0.0
C328 C 0.47224 0.31143 0.29279 0.0
C329 C 0.48311 0.34219 0.40265 0.0
C330 C 0.45876 0.34341 0.38817 0.0
C331 C 0.43954 0.32551 0.33112 0.0
C332 C 0.44628 0.30973 0.2836 0.0
C333 C 0.45627 0.41033 0.39693 0.0
C334 C 0.46956 0.42238 0.46635 0.0
C335 C 0.45002 0.38324 0.37431 0.0
C336 C 0.45698 0.36758 0.42058 0.0
C337 C 0.4675 0.3785 0.49284 0.0
C338 C 0.4737 0.4057 0.51565 0.0
H339 H 0.52748 0.82945 0.89351 0.0
H340 H 0.59227 0.90078 0.02438 0.0
H341 H 0.52115 0.86121 0.81467 0.0
H342 H 0.58667 0.9324 0.94531 0.0
H343 H 0.53499 0.97289 0.88169 0.0
H344 H 0.549 0.94242 0.93772 0.0
H345 H 0.54017 0.89986 0.72713 0.0
H346 H 0.52557 0.93067 0.67016 0.0
C347 C 0.54088 0.8519 0.90395 0.0
C348 C 0.56012 0.86276 0.96532 0.0
C349 C 0.53733 0.87009 0.85885 0.0
C350 C 0.55308 0.89937 0.87446 0.0
C351 C 0.57378 0.90999 0.93264 0.0
C352 C 0.57711 0.89192 0.97775 0.0
C353 C 0.53619 0.95722 0.84685 0.0
C354 C 0.52903 0.95419 0.77139 0.0
C355 C 0.5445 0.93984 0.87906 0.0
C356 C 0.5459 0.91874 0.837 0.0
C357 C 0.53923 0.91587 0.76107 0.0
C358 C 0.53109 0.93363 0.72841 0.0
H359 H 0.72093 0.56773 0.88094 0.0
H360 H 0.66626 0.48706 0.95895 0.0
H361 H 0.68411 0.56245 0.79487 0.0
H362 H 0.62922 0.48109 0.87048 0.0
H363 H 0.61768 0.54556 0.62721 0.0
H364 H 0.65386 0.54061 0.6913 0.0
H365 H 0.59967 0.50069 0.86167 0.0
H366 H 0.56275 0.50434 0.79465 0.0
C367 C 0.70134 0.54827 0.87732 0.0
C368 C 0.69641 0.52784 0.92663 0.0
C369 C 0.68007 0.54522 0.82802 0.0
C370 C 0.65345 0.52147 0.82632 0.0
C371 C 0.64924 0.49993 0.87155 0.0
C372 C 0.67051 0.50315 0.92148 0.0
C373 C 0.61345 0.53565 0.67833 0.0
C374 C 0.58759 0.52583 0.70683 0.0
C375 C 0.63423 0.53282 0.71512 0.0
C376 C 0.62993 0.52064 0.78228 0.0
C377 C 0.60367 0.50992 0.80967 0.0
C378 C 0.58258 0.51226 0.77185 0.0
H379 H 0.1346 0.72467 -0.00059 0.0
H380 H 0.18978 0.70164 0.89963 0.0
H381 H 0.0973 0.69322 0.90847 0.0
H382 H 0.15287 0.67056 0.80959 0.0
H383 H 0.08356 0.6114 0.6578 0.0
H384 H 0.11719 0.65863 0.71011 0.0
H385 H 0.07358 0.64233 0.90602 0.0
H386 H 0.04004 0.59579 0.85369 0.0
C387 C 0.13896 0.71348 0.95701 0.0
C388 C 0.16499 0.71528 0.95754 0.0
C389 C 0.11765 0.69555 0.9049 0.0
C390 C 0.12201 0.67906 0.85256 0.0
C391 C 0.14882 0.6831 0.84864 0.0
C392 C 0.17007 0.70098 0.90062 0.0
C393 C 0.08077 0.61827 0.71115 0.0
C394 C 0.05957 0.5997 0.75242 0.0
C395 C 0.10005 0.64526 0.74115 0.0
C396 C 0.09825 0.65412 0.81254 0.0
C397 C 0.07553 0.63636 0.85073 0.0
C398 C 0.05645 0.60946 0.82107 0.0
H399 H 0.55362 0.21547 0.04497 0.0
H400 H 0.46437 0.16871 0.02839 0.0
H401 H 0.55402 0.18545 0.94321 0.0
H402 H 0.46462 0.13905 0.92618 0.0
H403 H 0.47218 0.095 0.72847 0.0
H404 H 0.47975 0.13755 0.79616 0.0
H405 H 0.53789 0.13241 0.94965 0.0
H406 H 0.53026 0.08967 0.88251 0.0
C407 C 0.53414 0.19947 0.01747 0.0
C408 C 0.50894 0.19422 0.04372 0.0
C409 C 0.53437 0.18226 0.95987 0.0
C410 C 0.50937 0.15997 0.92731 0.0
C411 C 0.48416 0.1563 0.9499 0.0
C412 C 0.48396 0.17315 0.00822 0.0
C413 C 0.48697 0.10318 0.77589 0.0
C414 C 0.50019 0.08865 0.80117 0.0
C415 C 0.49129 0.12755 0.81439 0.0
C416 C 0.50923 0.13806 0.87809 0.0
C417 C 0.52407 0.12479 0.90029 0.0
C418 C 0.51948 0.10018 0.86234 0.0
H419 H 0.37391 0.55123 0.12483 0.0
H420 H 0.30866 0.48727 0.97719 0.0
H421 H 0.40817 0.54487 0.06277 0.0
H422 H 0.34299 0.48155 0.91207 0.0
H423 H 0.40146 0.44849 0.88212 0.0
H424 H 0.36986 0.46019 0.94028 0.0
H425 H 0.43309 0.54778 0.96045 0.0
H426 H 0.46503 0.53573 0.90476 0.0
C427 C 0.36714 0.53673 0.07665 0.0
C428 C 0.33879 0.51989 0.05513 0.0
C429 C 0.38673 0.53293 0.04129 0.0
C430 C 0.37836 0.51223 0.98337 0.0
C431 C 0.35011 0.49712 0.95786 0.0
C432 C 0.33045 0.50078 -0.00614 0.0
C433 C 0.40879 0.47015 0.90076 0.0
C434 C 0.43574 0.49116 0.88941 0.0
C435 C 0.39052 0.47697 0.93277 0.0
C436 C 0.39859 0.50506 0.95322 0.0
C437 C 0.4261 0.52593 0.94541 0.0
C438 C 0.44454 0.51902 0.91416 0.0
H439 H 0.84383 0.30794 0.92766 0.0
H440 H 0.82065 0.36392 0.03318 0.0
H441 H 0.86872 0.34266 0.84242 0.0
H442 H 0.84502 0.39872 0.94612 0.0
H443 H 0.93231 0.46434 0.87957 0.0
H444 H 0.89267 0.42908 0.93591 0.0
H445 H 0.87257 0.37124 0.74651 0.0
H446 H 0.91308 0.40633 0.69124 0.0
C447 C 0.84312 0.32728 0.93076 0.0
C448 C 0.83053 0.33332 0.98756 0.0
C449 C 0.85743 0.3473 0.88165 0.0
C450 C 0.85931 0.3738 0.88784 0.0
C451 C 0.84458 0.37883 0.94075 0.0
C452 C 0.83046 0.35885 0.99035 0.0
C453 C 0.91914 0.44433 0.84914 0.0
C454 C 0.9263 0.43794 0.78172 0.0
C455 C 0.89616 0.42406 0.88134 0.0
C456 C 0.87961 0.397 0.84648 0.0
C457 C 0.88528 0.39157 0.77584 0.0
C458 C 0.90845 0.41176 0.74396 0.0
H459 H 0.86227 0.58393 0.87739 0.0
H460 H 0.81704 0.49359 0.84987 0.0
H461 H 0.89668 0.58494 0.79946 0.0
H462 H 0.85108 0.49437 0.76988 0.0
H463 H 0.93745 0.50566 0.73798 0.0
H464 H 0.89781 0.50377 0.79387 0.0
H465 H 0.91027 0.5769 0.68555 0.0
H466 H 0.9502 0.57946 0.6324 0.0
C467 C 0.85891 0.56435 0.85135 0.0
C468 C 0.83698 0.53871 0.86938 0.0
C469 C 0.87883 0.56484 0.80721 0.0
C470 C 0.87706 0.53967 0.77976 0.0
C471 C 0.8535 0.51411 0.79175 0.0
C472 C 0.83368 0.51364 0.8362 0.0
C473 C 0.93185 0.52144 0.72661 0.0
C474 C 0.94729 0.54284 0.6812 0.0
C475 C 0.90886 0.52016 0.75783 0.0
C476 C 0.90067 0.54013 0.7439 0.0
C477 C 0.91609 0.56139 0.69829 0.0
C478 C 0.93909 0.5628 0.6677 0.0
H479 H 0.29067 0.82036 0.86538 0.0
H480 H 0.29374 0.88701 0.00492 0.0
H481 H 0.31155 0.8529 0.77168 0.0
H482 H 0.31597 0.91989 0.91287 0.0
H483 H 0.37014 0.97838 0.75257 0.0
H484 H 0.32628 0.9409 0.79289 0.0
H485 H 0.3608 0.88577 0.79633 0.0
H486 H 0.40369 0.92265 0.7575 0.0
C487 C 0.29455 0.84161 0.87482 0.0
C488 C 0.29152 0.85139 0.94354 0.0
C489 C 0.30681 0.86039 0.82132 0.0
C490 C 0.31654 0.88922 0.83619 0.0
C491 C 0.30911 0.89793 0.89989 0.0
C492 C 0.2965 0.87908 0.95298 0.0
C493 C 0.36786 0.95797 0.76069 0.0
C494 C 0.39025 0.95337 0.75324 0.0
C495 C 0.34287 0.93658 0.78356 0.0
C496 C 0.33991 0.91023 0.79735 0.0
C497 C 0.36195 0.90546 0.78493 0.0
C498 C 0.38677 0.92676 0.76368 0.0
H499 H 0.53973 0.34132 0.0256 0.0
H500 H 0.45102 0.30359 0.02581 0.0
H501 H 0.53932 0.36809 0.92343 0.0
H502 H 0.45067 0.33121 0.92645 0.0
H503 H 0.45315 0.37839 0.73352 0.0
H504 H 0.45642 0.34317 0.80343 0.0
H505 H 0.53384 0.40779 0.91254 0.0
H506 H 0.53103 0.44253 0.84153 0.0
C507 C 0.52006 0.33826 0.00291 0.0
C508 C 0.49545 0.32052 0.03465 0.0
C509 C 0.51984 0.35393 0.94483 0.0
C510 C 0.49502 0.3523 0.91708 0.0
C511 C 0.47021 0.33305 0.94565 0.0
C512 C 0.47042 0.31735 0.00339 0.0
C513 C 0.47118 0.38495 0.77122 0.0
C514 C 0.49161 0.41343 0.78244 0.0
C515 C 0.47295 0.36477 0.81187 0.0
C516 C 0.4952 0.37255 0.86472 0.0
C517 C 0.51648 0.40076 0.8722 0.0
C518 C 0.51475 0.42085 0.8316 0.0
H519 H 0.14582 0.43888 0.09846 0.0
H520 H 0.19318 0.51147 0.97836 0.0
H521 H 0.10514 0.4251 0.01432 0.0
H522 H 0.15283 0.49669 0.89229 0.0
H523 H 0.07027 0.45042 0.74066 0.0
H524 H 0.10911 0.44832 0.80241 0.0
H525 H 0.08599 0.46554 0.0104 0.0
H526 H 0.04782 0.46875 0.94885 0.0
C527 C 0.14788 0.45125 0.05243 0.0
C528 C 0.17253 0.47668 0.04617 0.0
C529 C 0.12462 0.44329 0.00438 0.0
C530 C 0.12595 0.46008 0.94781 0.0
C531 C 0.15146 0.48342 0.93564 0.0
C532 C 0.17461 0.49176 0.9847 0.0
C533 C 0.07304 0.453 0.79973 0.0
C534 C 0.05605 0.45972 0.8402 0.0
C535 C 0.09528 0.4519 0.83475 0.0
C536 C 0.10027 0.45661 0.9108 0.0
C537 C 0.08226 0.46153 0.95161 0.0
C538 C 0.06052 0.46343 0.91653 0.0
H539 H 0.66006 0.19569 0.02508 0.0
H540 H 0.71801 0.18015 0.91316 0.0
H541 H 0.62185 0.15851 0.94624 0.0
H542 H 0.68014 0.1442 0.83246 0.0
H543 H 0.6121 0.05467 0.80462 0.0
H544 H 0.64687 0.09795 0.87121 0.0
H545 H 0.59681 0.13614 0.82465 0.0
H546 H 0.56153 0.09231 0.75805 0.0
C547 C 0.66475 0.18516 0.98166 0.0
C548 C 0.69198 0.1903 0.97676 0.0
C549 C 0.64284 0.16386 0.93659 0.0
C550 C 0.64796 0.14772 0.88531 0.0
C551 C 0.67553 0.15567 0.87345 0.0
C552 C 0.69735 0.17672 0.91884 0.0
C553 C 0.60824 0.07211 0.80955 0.0
C554 C 0.58425 0.07019 0.7754 0.0
C555 C 0.62836 0.09706 0.84678 0.0
C556 C 0.62507 0.1208 0.85059 0.0
C557 C 0.60009 0.11831 0.82153 0.0
C558 C 0.57979 0.09315 0.78412 0.0
H559 H 0.48529 0.68661 0.85956 0.0
H560 H 0.57405 0.72933 0.8528 0.0
H561 H 0.48079 0.65112 0.76735 0.0
H562 H 0.56948 0.69378 0.76082 0.0
H563 H 0.54132 0.60946 0.60841 0.0
H564 H 0.54149 0.65403 0.63383 0.0
H565 H 0.50637 0.62532 0.83824 0.0
H566 H 0.50686 0.58207 0.81478 0.0
C567 C 0.50367 0.68932 0.83518 0.0
C568 C 0.53002 0.71019 0.8645 0.0
C569 C 0.5011 0.66909 0.78227 0.0
C570 C 0.52486 0.66953 0.7585 0.0
C571 C 0.55089 0.69307 0.77831 0.0
C572 C 0.55347 0.7134 0.83118 0.0
C573 C 0.5337 0.61287 0.65863 0.0
C574 C 0.52445 0.59249 0.71006 0.0
C575 C 0.53361 0.63813 0.67274 0.0
C576 C 0.52334 0.64265 0.73709 0.0
C577 C 0.5138 0.62205 0.78744 0.0
C578 C 0.51452 0.59744 0.77442 0.0
H579 H 0.53668 0.20697 0.36609 0.0
H580 H 0.45567 0.15213 0.25776 0.0
H581 H 0.53159 0.16912 0.44107 0.0
H582 H 0.45065 0.11438 0.3321 0.0
H583 H 0.50825 0.09228 0.57681 0.0
H584 H 0.5038 0.13167 0.53321 0.0
H585 H 0.47882 0.08997 0.31646 0.0
H586 H 0.48371 0.05129 0.35924 0.0
C587 C 0.51734 0.18724 0.36047 0.0
C588 C 0.49671 0.18239 0.30549 0.0
C589 C 0.51445 0.16551 0.40322 0.0
C590 C 0.49093 0.13863 0.39143 0.0
C591 C 0.46919 0.13474 0.3416 0.0
C592 C 0.47201 0.15638 0.29928 0.0
C593 C 0.50134 0.0914 0.5202 0.0
C594 C 0.49645 0.06878 0.47128 0.0
C595 C 0.49894 0.11398 0.49525 0.0
C596 C 0.49089 0.11389 0.42148 0.0
C597 C 0.48474 0.09056 0.37377 0.0
C598 C 0.48769 0.06844 0.39819 0.0
H599 H 0.33323 0.53894 0.35111 0.0
H600 H 0.2959 0.45319 0.26198 0.0
H601 H 0.36362 0.53131 0.43575 0.0
H602 H 0.32638 0.4455 0.34562 0.0
H603 H 0.38309 0.44047 0.52561 0.0
H604 H 0.34494 0.44449 0.46897 0.0
H605 H 0.40315 0.52576 0.39994 0.0
H606 H 0.44137 0.52207 0.45744 0.0
C607 C 0.3305 0.51805 0.3525 0.0
C608 C 0.31233 0.49663 0.30031 0.0
C609 C 0.34828 0.51383 0.39973 0.0
C610 C 0.34793 0.48807 0.3956 0.0
C611 C 0.32723 0.46561 0.3499 0.0
C612 C 0.30955 0.46987 0.30254 0.0
C613 C 0.38784 0.45915 0.49792 0.0
C614 C 0.41537 0.481 0.49628 0.0
C615 C 0.36591 0.46145 0.46577 0.0
C616 C 0.37099 0.48567 0.43147 0.0
C617 C 0.39853 0.50715 0.42786 0.0
C618 C 0.42048 0.50483 0.45976 0.0
H619 H 0.86829 0.3023 0.24951 0.0
H620 H 0.82826 0.35209 0.26395 0.0
H621 H 0.90376 0.3339 0.3445 0.0
H622 H 0.86347 0.38345 0.35959 0.0
H623 H 0.97828 0.42982 0.37196 0.0
H624 H 0.93898 0.38574 0.32003 0.0
H625 H 0.88958 0.38927 0.48913 0.0
H626 H 0.92937 0.43331 0.54259 0.0
C627 C 0.86644 0.31931 0.27524 0.0
C628 C 0.84568 0.32491 0.24943 0.0
C629 C 0.88678 0.33742 0.32922 0.0
C630 C 0.88638 0.36114 0.35897 0.0
C631 C 0.86411 0.36518 0.33804 0.0
C632 C 0.84405 0.34734 0.28322 0.0
C633 C 0.95928 0.42079 0.39924 0.0
C634 C 0.95675 0.43504 0.46079 0.0
C635 C 0.93684 0.39547 0.36984 0.0
C636 C 0.91126 0.38418 0.40055 0.0
C637 C 0.90912 0.39759 0.46458 0.0
C638 C 0.93186 0.42267 0.49514 0.0
H639 H 0.5105 0.81209 0.22218 0.0
H640 H 0.59707 0.87455 0.24316 0.0
H641 H 0.50369 0.83235 0.33514 0.0
H642 H 0.59049 0.89548 0.35418 0.0
H643 H 0.50049 0.91244 0.41897 0.0
H644 H 0.5027 0.87494 0.35202 0.0
H645 H 0.57892 0.89627 0.47812 0.0
H646 H 0.57702 0.93469 0.54428 0.0
C647 C 0.52815 0.82968 0.25239 0.0
C648 C 0.55424 0.84193 0.22473 0.0
C649 C 0.52431 0.84139 0.31665 0.0
C650 C 0.54647 0.86577 0.35345 0.0
C651 C 0.57302 0.87654 0.32817 0.0
C652 C 0.57682 0.86474 0.26429 0.0
C653 C 0.51736 0.9087 0.43388 0.0
C654 C 0.53901 0.92701 0.48535 0.0
C655 C 0.51851 0.88692 0.39584 0.0
C656 C 0.54134 0.88292 0.40848 0.0
C657 C 0.56137 0.89922 0.46599 0.0
C658 C 0.56019 0.92109 0.50429 0.0
H659 H 0.68773 0.50527 0.20023 0.0
H660 H 0.73035 0.59513 0.19179 0.0
H661 H 0.65481 0.50792 0.2782 0.0
H662 H 0.69713 0.59788 0.26935 0.0
H663 H 0.57877 0.51835 0.28109 0.0
H664 H 0.61889 0.51966 0.23221 0.0
H665 H 0.6728 0.58803 0.38968 0.0
H666 H 0.63226 0.58677 0.43975 0.0
C667 C 0.69071 0.52569 0.21776 0.0
C668 C 0.7115 0.54998 0.1902 0.0
C669 C 0.67169 0.52721 0.2615 0.0
C670 C 0.673 0.55304 0.27819 0.0
C671 C 0.69559 0.5777 0.25721 0.0
C672 C 0.71473 0.57616 0.21334 0.0
C673 C 0.59908 0.53384 0.30541 0.0
C674 C 0.60215 0.55235 0.3648 0.0
C675 C 0.62213 0.53437 0.27775 0.0
C676 C 0.64897 0.55349 0.30827 0.0
C677 C 0.65232 0.5729 0.36556 0.0
C678 C 0.6291 0.57223 0.39391 0.0
H679 H 0.21321 0.70319 0.24812 0.0
H680 H 0.15217 0.72924 0.21948 0.0
H681 H 0.18945 0.67635 0.3495 0.0
H682 H 0.1278 0.70157 0.31861 0.0
H683 H 0.08724 0.65257 0.50303 0.0
H684 H 0.12432 0.6909 0.44473 0.0
H685 H 0.14687 0.63279 0.3485 0.0
H686 H 0.1105 0.59487 0.40776 0.0
C687 C 0.19515 0.70383 0.26469 0.0
C688 C 0.18438 0.71808 0.22506 0.0
C689 C 0.18133 0.68815 0.32234 0.0
C690 C 0.15642 0.68635 0.3416 0.0
C691 C 0.14697 0.70251 0.3058 0.0
C692 C 0.1608 0.7182 0.24833 0.0
C693 C 0.10063 0.64814 0.47115 0.0
C694 C 0.0955 0.62051 0.45893 0.0
C695 C 0.12178 0.6701 0.43724 0.0
C696 C 0.13831 0.66491 0.39072 0.0
C697 C 0.13472 0.63772 0.38407 0.0
C698 C 0.11363 0.61583 0.4178 0.0
loop_
_geom_bond_atom_site_label_1
_geom_bond_atom_site_label_2
_geom_bond_distance
_geom_bond_site_symmetry_2
_ccdc_geom_bond_type
H0 C8 0.930 . S
H1 C11 0.930 . S
H2 C13 0.930 . S
H3 C14 0.970 . S
H4 C14 0.970 . S
H5 C16 0.930 . S
H6 C18 0.930 . S
H7 C20 0.930 . S
C8 H0 0.930 . S
C8 C9 1.382 . S
C8 C10 1.426 . S
C9 C8 1.382 . S
C9 C13 1.389 . S
C10 C8 1.426 . S
C10 C11 1.375 . S
C10 C14 1.532 . S
C11 H1 0.930 . S
C11 C10 1.375 . S
C11 C12 1.416 . S
C12 C11 1.416 . S
C12 C13 1.371 . S
C13 H2 0.930 . S
C13 C9 1.389 . S
C13 C12 1.371 . S
C14 H3 0.970 . S
C14 H4 0.970 . S
C14 C10 1.532 . S
C14 C15 1.499 . S
C15 C14 1.499 . S
C15 C16 1.370 . S
C15 C20 1.415 . S
C16 H5 0.930 . S
C16 C15 1.370 . S
C16 C17 1.407 . S
C17 C16 1.407 . S
C17 C18 1.365 . S
C18 H6 0.930 . S
C18 C17 1.365 . S
C18 C19 1.393 . S
C19 C18 1.393 . S
C19 C20 1.387 . S
C20 H7 0.930 . S
C20 C15 1.415 . S
C20 C19 1.387 . S
H21 C29 0.930 1_556 S
H22 C32 0.930 . S
H23 C34 0.930 . S
H24 C35 0.970 . S
H25 C35 0.970 . S
H26 C37 0.930 1_556 S
H27 C39 0.930 . S
H28 C41 0.930 . S
C29 H21 0.930 1_554 S
C29 C30 1.382 . S
C29 C31 1.426 . S
C30 C29 1.382 . S
C30 C34 1.389 . S
C31 C29 1.426 . S
C31 C32 1.375 . S
C31 C35 1.532 . S
C32 H22 0.930 . S
C32 C31 1.375 . S
C32 C33 1.416 . S
C33 C32 1.416 . S
C33 C34 1.371 . S
C34 H23 0.930 . S
C34 C30 1.389 . S
C34 C33 1.371 . S
C35 H24 0.970 . S
C35 H25 0.970 . S
C35 C31 1.532 . S
C35 C36 1.499 . S
C36 C35 1.499 . S
C36 C37 1.370 . S
C36 C41 1.415 . S
C37 H26 0.930 1_554 S
C37 C36 1.370 . S
C37 C38 1.407 . S
C38 C37 1.407 . S
C38 C39 1.365 . S
C39 H27 0.930 . S
C39 C38 1.365 . S
C39 C40 1.393 . S
C40 C39 1.393 . S
C40 C41 1.387 . S
C41 H28 0.930 . S
C41 C36 1.415 . S
C41 C40 1.387 . S
H42 C50 0.930 . S
H43 C53 0.930 . S
H44 C55 0.930 . S
H45 C56 0.970 . S
H46 C56 0.970 . S
H47 C58 0.930 . S
H48 C60 0.930 . S
H49 C62 0.930 . S
C50 H42 0.930 . S
C50 C51 1.382 . S
C50 C52 1.426 1_556 S
C51 C50 1.382 . S
C51 C55 1.389 1_556 S
C52 C50 1.426 1_554 S
C52 C53 1.375 . S
C52 C56 1.532 . S
C53 H43 0.930 . S
C53 C52 1.375 . S
C53 C54 1.416 . S
C54 C53 1.416 . S
C54 C55 1.371 . S
C55 H44 0.930 . S
C55 C51 1.389 1_554 S
C55 C54 1.371 . S
C56 H45 0.970 . S
C56 H46 0.970 . S
C56 C52 1.532 . S
C56 C57 1.499 . S
C57 C56 1.499 . S
C57 C58 1.370 1_554 S
C57 C62 1.415 . S
C58 H47 0.930 . S
C58 C57 1.370 1_556 S
C58 C59 1.407 . S
C59 C58 1.407 . S
C59 C60 1.365 1_556 S
C60 H48 0.930 . S
C60 C59 1.365 1_554 S
C60 C61 1.393 . S
C61 C60 1.393 . S
C61 C62 1.387 . S
C62 H49 0.930 . S
C62 C57 1.415 . S
C62 C61 1.387 . S
H63 C71 0.930 . S
H64 C74 0.930 . S
H65 C76 0.930 . S
H66 C77 0.970 1_556 S
H67 C77 0.970 . S
H68 C79 0.930 . S
H69 C81 0.930 . S
H70 C83 0.930 . S
C71 H63 0.930 . S
C71 C72 1.382 . S
C71 C73 1.426 1_556 S
C72 C71 1.382 . S
C72 C76 1.389 1_556 S
C73 C71 1.426 1_554 S
C73 C74 1.375 . S
C73 C77 1.532 . S
C74 H64 0.930 . S
C74 C73 1.375 . S
C74 C75 1.416 . S
C75 C74 1.416 . S
C75 C76 1.371 . S
C76 H65 0.930 . S
C76 C72 1.389 1_554 S
C76 C75 1.371 . S
C77 H66 0.970 1_554 S
C77 H67 0.970 . S
C77 C73 1.532 . S
C77 C78 1.499 . S
C78 C77 1.499 . S
C78 C79 1.370 1_554 S
C78 C83 1.415 . S
C79 H68 0.930 . S
C79 C78 1.370 1_556 S
C79 C80 1.407 . S
C80 C79 1.407 . S
C80 C81 1.365 1_556 S
C81 H69 0.930 . S
C81 C80 1.365 1_554 S
C81 C82 1.393 . S
C82 C81 1.393 . S
C82 C83 1.387 . S
C83 H70 0.930 . S
C83 C78 1.415 . S
C83 C82 1.387 . S
H84 C92 0.930 . S
H85 C95 0.930 . S
H86 C97 0.930 . S
H87 C98 0.970 . S
H88 C98 0.970 . S
H89 C100 0.930 . S
H90 C102 0.930 . S
H91 C104 0.930 . S
C92 H84 0.930 . S
C92 C93 1.382 . S
C92 C94 1.426 . S
C93 C92 1.382 . S
C93 C97 1.389 . S
C94 C92 1.426 . S
C94 C95 1.375 . S
C94 C98 1.532 . S
C95 H85 0.930 . S
C95 C94 1.375 . S
C95 C96 1.416 . S
C96 C95 1.416 . S
C96 C97 1.371 . S
C97 H86 0.930 . S
C97 C93 1.389 . S
C97 C96 1.371 . S
C98 H87 0.970 . S
C98 H88 0.970 . S
C98 C94 1.532 . S
C98 C99 1.499 . S
C99 C98 1.499 . S
C99 C100 1.370 . S
C99 C104 1.415 . S
C100 H89 0.930 . S
C100 C99 1.370 . S
C100 C101 1.407 . S
C101 C100 1.407 . S
C101 C102 1.365 . S
C102 H90 0.930 . S
C102 C101 1.365 . S
C102 C103 1.393 . S
C103 C102 1.393 . S
C103 C104 1.387 . S
C104 H91 0.930 . S
C104 C99 1.415 . S
C104 C103 1.387 . S
H105 C113 0.930 . S
H106 C116 0.930 . S
H107 C118 0.930 . S
H108 C119 0.970 . S
H109 C119 0.970 . S
H110 C121 0.930 . S
H111 C123 0.930 . S
H112 C125 0.930 . S
C113 H105 0.930 . S
C113 C114 1.382 . S
C113 C115 1.426 . S
C114 C113 1.382 . S
C114 C118 1.389 . S
C115 C113 1.426 . S
C115 C116 1.375 . S
C115 C119 1.532 . S
C116 H106 0.930 . S
C116 C115 1.375 . S
C116 C117 1.416 . S
C117 C116 1.416 . S
C117 C118 1.371 . S
C118 H107 0.930 . S
C118 C114 1.389 . S
C118 C117 1.371 . S
C119 H108 0.970 . S
C119 H109 0.970 . S
C119 C115 1.532 . S
C119 C120 1.499 . S
C120 C119 1.499 . S
C120 C121 1.370 . S
C120 C125 1.415 . S
C121 H110 0.930 . S
C121 C120 1.370 . S
C121 C122 1.407 . S
C122 C121 1.407 . S
C122 C123 1.365 . S
C123 H111 0.930 . S
C123 C122 1.365 . S
C123 C124 1.393 . S
C124 C123 1.393 . S
C124 C125 1.387 . S
C125 H112 0.930 . S
C125 C120 1.415 . S
C125 C124 1.387 . S
C126 O153 1.312 . S
C126 O154 1.208 . S
C127 O148 1.331 . S
C127 O151 1.244 . S
C128 O150 1.264 . S
C128 O152 1.273 . S
Mg129 O131 1.936 1_455 S
Mg129 O138 2.081 1_455 S
Mg129 O140 2.023 . S
Mg129 O144 2.031 1_455 S
Mg129 O153 2.291 . S
Mg130 O131 1.963 . S
Mg130 O141 1.942 . S
Mg130 O142 1.955 1_655 S
Mg130 O149 1.986 . S
O131 Mg129 1.936 1_655 S
O131 Mg130 1.963 . S
O131 Mg132 1.915 1_655 S
Mg132 O131 1.915 1_455 S
Mg132 O133 1.915 . S
Mg132 O137 2.013 . S
Mg132 O143 2.114 1_455 S
Mg132 O147 2.013 1_455 S
Mg132 O153 2.114 . S
O133 Mg132 1.915 . S
O133 Mg134 1.936 . S
O133 Mg135 1.963 . S
Mg134 O133 1.936 . S
Mg134 O143 2.291 1_455 S
Mg134 O148 2.081 . S
Mg134 O150 2.023 1_455 S
Mg134 O154 2.031 . S
Mg135 O133 1.963 . S
Mg135 O139 1.986 . S
Mg135 O151 1.942 . S
Mg135 O152 1.955 1_455 S
C136 O147 1.191 . S
C136 O149 1.307 . S
O137 Mg132 2.013 . S
O137 C156 1.191 . S
O138 Mg129 2.081 1_655 S
O138 C146 1.331 . S
O139 Mg135 1.986 . S
O139 C156 1.307 . S
O140 Mg129 2.023 . S
O140 C155 1.264 . S
O141 Mg130 1.942 . S
O141 C146 1.244 . S
O142 Mg130 1.955 1_455 S
O142 C155 1.273 . S
O143 Mg132 2.114 1_655 S
O143 Mg134 2.291 1_655 S
O143 C145 1.312 . S
O144 Mg129 2.031 1_655 S
O144 C145 1.208 . S
C145 O143 1.312 . S
C145 O144 1.208 . S
C146 O138 1.331 . S
C146 O141 1.244 . S
O147 Mg132 2.013 1_655 S
O147 C136 1.191 . S
O148 C127 1.331 . S
O148 Mg134 2.081 . S
O149 Mg130 1.986 . S
O149 C136 1.307 . S
O150 C128 1.264 . S
O150 Mg134 2.023 1_655 S
O151 C127 1.244 . S
O151 Mg135 1.942 . S
O152 C128 1.273 . S
O152 Mg135 1.955 1_655 S
O153 C126 1.312 . S
O153 Mg129 2.291 . S
O153 Mg132 2.114 . S
O154 C126 1.208 . S
O154 Mg134 2.031 . S
C155 O140 1.264 . S
C155 O142 1.273 . S
C156 O137 1.191 . S
C156 O139 1.307 . S
C157 O184 1.312 . S
C157 O185 1.208 . S
C158 O179 1.331 . S
C158 O182 1.244 . S
C159 O181 1.264 . S
C159 O183 1.273 . S
Mg160 O162 1.936 . S
Mg160 O169 2.081 1_545 S
Mg160 O171 2.023 . S
Mg160 O175 2.031 1_545 S
Mg160 O184 2.291 . S
Mg161 O162 1.963 . S
Mg161 O172 1.942 1_545 S
Mg161 O173 1.955 . S
Mg161 O180 1.986 1_545 S
O162 Mg160 1.936 . S
O162 Mg161 1.963 . S
O162 Mg163 1.915 . S
Mg163 O162 1.915 . S
Mg163 O164 1.915 . S
Mg163 O168 2.013 . S
Mg163 O174 2.114 1_545 S
Mg163 O178 2.013 1_545 S
Mg163 O184 2.114 . S
O164 Mg163 1.915 . S
O164 Mg165 1.936 . S
O164 Mg166 1.963 . S
Mg165 O164 1.936 . S
Mg165 O174 2.291 1_545 S
Mg165 O179 2.081 . S
Mg165 O181 2.023 1_545 S
Mg165 O185 2.031 . S
Mg166 O164 1.963 . S
Mg166 O170 1.986 . S
Mg166 O182 1.942 . S
Mg166 O183 1.955 1_545 S
C167 O178 1.191 . S
C167 O180 1.307 . S
O168 Mg163 2.013 . S
O168 C187 1.191 . S
O169 Mg160 2.081 1_565 S
O169 C177 1.331 . S
O170 Mg166 1.986 . S
O170 C187 1.307 . S
O171 Mg160 2.023 . S
O171 C186 1.264 . S
O172 Mg161 1.942 1_565 S
O172 C177 1.244 . S
O173 Mg161 1.955 . S
O173 C186 1.273 . S
O174 Mg163 2.114 1_565 S
O174 Mg165 2.291 1_565 S
O174 C176 1.312 . S
O175 Mg160 2.031 1_565 S
O175 C176 1.208 . S
C176 O174 1.312 . S
C176 O175 1.208 . S
C177 O169 1.331 . S
C177 O172 1.244 . S
O178 Mg163 2.013 1_565 S
O178 C167 1.191 . S
O179 C158 1.331 . S
O179 Mg165 2.081 . S
O180 Mg161 1.986 1_565 S
O180 C167 1.307 . S
O181 C159 1.264 . S
O181 Mg165 2.023 1_565 S
O182 C158 1.244 . S
O182 Mg166 1.942 . S
O183 C159 1.273 . S
O183 Mg166 1.955 1_565 S
O184 C157 1.312 . S
O184 Mg160 2.291 . S
O184 Mg163 2.114 . S
O185 C157 1.208 . S
O185 Mg165 2.031 . S
C186 O171 1.264 . S
C186 O173 1.273 . S
C187 O168 1.191 . S
C187 O170 1.307 . S
C188 O215 1.312 . S
C188 O216 1.208 . S
C189 O210 1.331 . S
C189 O213 1.244 . S
C190 O212 1.264 . S
C190 O214 1.273 . S
Mg191 O193 1.936 . S
Mg191 O200 2.081 . S
Mg191 O202 2.023 . S
Mg191 O206 2.031 . S
Mg191 O215 2.291 . S
Mg192 O193 1.963 . S
Mg192 O203 1.942 . S
Mg192 O204 1.955 . S
Mg192 O211 1.986 . S
O193 Mg191 1.936 . S
O193 Mg192 1.963 . S
O193 Mg194 1.915 . S
Mg194 O193 1.915 . S
Mg194 O195 1.915 . S
Mg194 O199 2.013 . S
Mg194 O205 2.114 . S
Mg194 O209 2.013 . S
Mg194 O215 2.114 . S
O195 Mg194 1.915 . S
O195 Mg196 1.936 . S
O195 Mg197 1.963 . S
Mg196 O195 1.936 . S
Mg196 O205 2.291 . S
Mg196 O210 2.081 . S
Mg196 O212 2.023 . S
Mg196 O216 2.031 . S
Mg197 O195 1.963 . S
Mg197 O201 1.986 . S
Mg197 O213 1.942 . S
Mg197 O214 1.955 . S
C198 O209 1.191 . S
C198 O211 1.307 . S
O199 Mg194 2.013 . S
O199 C218 1.191 . S
O200 Mg191 2.081 . S
O200 C208 1.331 . S
O201 Mg197 1.986 . S
O201 C218 1.307 . S
O202 Mg191 2.023 . S
O202 C217 1.264 . S
O203 Mg192 1.942 . S
O203 C208 1.244 . S
O204 Mg192 1.955 . S
O204 C217 1.273 . S
O205 Mg194 2.114 . S
O205 Mg196 2.291 . S
O205 C207 1.312 . S
O206 Mg191 2.031 . S
O206 C207 1.208 . S
C207 O205 1.312 . S
C207 O206 1.208 . S
C208 O200 1.331 . S
C208 O203 1.244 . S
O209 Mg194 2.013 . S
O209 C198 1.191 . S
O210 C189 1.331 . S
O210 Mg196 2.081 . S
O211 Mg192 1.986 . S
O211 C198 1.307 . S
O212 C190 1.264 . S
O212 Mg196 2.023 . S
O213 C189 1.244 . S
O213 Mg197 1.942 . S
O214 C190 1.273 . S
O214 Mg197 1.955 . S
O215 C188 1.312 . S
O215 Mg191 2.291 . S
O215 Mg194 2.114 . S
O216 C188 1.208 . S
O216 Mg196 2.031 . S
C217 O202 1.264 . S
C217 O204 1.273 . S
C218 O199 1.191 . S
C218 O201 1.307 . S
H219 C227 0.950 . S
H220 C232 0.950 . S
H221 C229 0.950 . S
H222 C231 0.950 . S
H223 C233 0.950 . S
H224 C235 0.950 . S
H225 C237 0.950 . S
H226 C238 0.950 . S
C227 H219 0.950 . S
C227 C228 1.386 . S
C227 C229 1.391 . S
C228 C227 1.386 . S
C228 C232 1.393 . S
C229 H221 0.950 . S
C229 C227 1.391 . S
C229 C230 1.400 . S
C230 C229 1.400 . S
C230 C231 1.398 . S
C230 C236 1.491 . S
C231 H222 0.950 . S
C231 C230 1.398 . S
C231 C232 1.391 . S
C232 H220 0.950 . S
C232 C228 1.393 . S
C232 C231 1.391 . S
C233 H223 0.950 . S
C233 C234 1.386 . S
C233 C235 1.391 . S
C234 C233 1.386 . S
C234 C238 1.393 . S
C235 H224 0.950 . S
C235 C233 1.391 . S
C235 C236 1.400 . S
C236 C230 1.491 . S
C236 C235 1.400 . S
C236 C237 1.398 . S
C237 H225 0.950 . S
C237 C236 1.398 . S
C237 C238 1.391 . S
C238 H226 0.950 . S
C238 C234 1.393 . S
C238 C237 1.391 . S
H239 C247 0.950 . S
H240 C252 0.950 . S
H241 C249 0.950 . S
H242 C251 0.950 . S
H243 C253 0.950 . S
H244 C255 0.950 . S
H245 C257 0.950 . S
H246 C258 0.950 . S
C247 H239 0.950 . S
C247 C248 1.386 . S
C247 C249 1.391 . S
C248 C247 1.386 . S
C248 C252 1.393 . S
C249 H241 0.950 . S
C249 C247 1.391 . S
C249 C250 1.400 . S
C250 C249 1.400 . S
C250 C251 1.398 . S
C250 C256 1.491 . S
C251 H242 0.950 . S
C251 C250 1.398 . S
C251 C252 1.391 . S
C252 H240 0.950 . S
C252 C248 1.393 . S
C252 C251 1.391 . S
C253 H243 0.950 . S
C253 C254 1.386 . S
C253 C255 1.391 . S
C254 C253 1.386 . S
C254 C258 1.393 . S
C255 H244 0.950 . S
C255 C253 1.391 . S
C255 C256 1.400 . S
C256 C250 1.491 . S
C256 C255 1.400 . S
C256 C257 1.398 . S
C257 H245 0.950 . S
C257 C256 1.398 . S
C257 C258 1.391 . S
C258 H246 0.950 . S
C258 C254 1.393 . S
C258 C257 1.391 . S
H259 C267 0.950 . S
H260 C272 0.950 . S
H261 C269 0.950 . S
H262 C271 0.950 . S
H263 C273 0.950 . S
H264 C275 0.950 . S
H265 C277 0.950 . S
H266 C278 0.950 . S
C267 H259 0.950 . S
C267 C268 1.386 . S
C267 C269 1.391 . S
C268 C267 1.386 . S
C268 C272 1.393 . S
C269 H261 0.950 . S
C269 C267 1.391 . S
C269 C270 1.400 . S
C270 C269 1.400 . S
C270 C271 1.398 . S
C270 C276 1.491 . S
C271 H262 0.950 . S
C271 C270 1.398 . S
C271 C272 1.391 . S
C272 H260 0.950 . S
C272 C268 1.393 . S
C272 C271 1.391 . S
C273 H263 0.950 . S
C273 C274 1.386 . S
C273 C275 1.391 . S
C274 C273 1.386 . S
C274 C278 1.393 . S
C275 H264 0.950 . S
C275 C273 1.391 . S
C275 C276 1.400 . S
C276 C270 1.491 . S
C276 C275 1.400 . S
C276 C277 1.398 . S
C277 H265 0.950 . S
C277 C276 1.398 . S
C277 C278 1.391 . S
C278 H266 0.950 . S
C278 C274 1.393 . S
C278 C277 1.391 . S
H279 C287 0.950 . S
H280 C292 0.950 . S
H281 C289 0.950 . S
H282 C291 0.950 . S
H283 C293 0.950 . S
H284 C295 0.950 . S
H285 C297 0.950 . S
H286 C298 0.950 . S
C287 H279 0.950 . S
C287 C288 1.386 . S
C287 C289 1.391 . S
C288 C287 1.386 . S
C288 C292 1.393 . S
C289 H281 0.950 . S
C289 C287 1.391 . S
C289 C290 1.400 . S
C290 C289 1.400 . S
C290 C291 1.398 . S
C290 C296 1.491 . S
C291 H282 0.950 . S
C291 C290 1.398 . S
C291 C292 1.391 . S
C292 H280 0.950 . S
C292 C288 1.393 . S
C292 C291 1.391 . S
C293 H283 0.950 . S
C293 C294 1.386 . S
C293 C295 1.391 . S
C294 C293 1.386 . S
C294 C298 1.393 . S
C295 H284 0.950 . S
C295 C293 1.391 . S
C295 C296 1.400 . S
C296 C290 1.491 . S
C296 C295 1.400 . S
C296 C297 1.398 . S
C297 H285 0.950 . S
C297 C296 1.398 . S
C297 C298 1.391 . S
C298 H286 0.950 . S
C298 C294 1.393 . S
C298 C297 1.391 . S
H299 C307 0.950 . S
H300 C312 0.950 . S
H301 C309 0.950 . S
H302 C311 0.950 . S
H303 C313 0.950 . S
H304 C315 0.950 . S
H305 C317 0.950 . S
H306 C318 0.950 . S
C307 H299 0.950 . S
C307 C308 1.386 . S
C307 C309 1.391 . S
C308 C307 1.386 . S
C308 C312 1.393 . S
C309 H301 0.950 . S
C309 C307 1.391 . S
C309 C310 1.400 . S
C310 C309 1.400 . S
C310 C311 1.398 . S
C310 C316 1.491 . S
C311 H302 0.950 . S
C311 C310 1.398 . S
C311 C312 1.391 . S
C312 H300 0.950 . S
C312 C308 1.393 . S
C312 C311 1.391 . S
C313 H303 0.950 . S
C313 C314 1.386 . S
C313 C315 1.391 . S
C314 C313 1.386 . S
C314 C318 1.393 . S
C315 H304 0.950 . S
C315 C313 1.391 . S
C315 C316 1.400 . S
C316 C310 1.491 . S
C316 C315 1.400 . S
C316 C317 1.398 . S
C317 H305 0.950 . S
C317 C316 1.398 . S
C317 C318 1.391 . S
C318 H306 0.950 . S
C318 C314 1.393 . S
C318 C317 1.391 . S
H319 C327 0.950 . S
H320 C332 0.950 . S
H321 C329 0.950 . S
H322 C331 0.950 . S
H323 C333 0.950 . S
H324 C335 0.950 . S
H325 C337 0.950 . S
H326 C338 0.950 . S
C327 H319 0.950 . S
C327 C328 1.386 . S
C327 C329 1.391 . S
C328 C327 1.386 . S
C328 C332 1.393 . S
C329 H321 0.950 . S
C329 C327 1.391 . S
C329 C330 1.400 . S
C330 C329 1.400 . S
C330 C331 1.398 . S
C330 C336 1.491 . S
C331 H322 0.950 . S
C331 C330 1.398 . S
C331 C332 1.391 . S
C332 H320 0.950 . S
C332 C328 1.393 . S
C332 C331 1.391 . S
C333 H323 0.950 . S
C333 C334 1.386 . S
C333 C335 1.391 . S
C334 C333 1.386 . S
C334 C338 1.393 . S
C335 H324 0.950 . S
C335 C333 1.391 . S
C335 C336 1.400 . S
C336 C330 1.491 . S
C336 C335 1.400 . S
C336 C337 1.398 . S
C337 H325 0.950 . S
C337 C336 1.398 . S
C337 C338 1.391 . S
C338 H326 0.950 . S
C338 C334 1.393 . S
C338 C337 1.391 . S
H339 C347 0.950 . S
H340 C352 0.950 . S
H341 C349 0.950 . S
H342 C351 0.950 . S
H343 C353 0.950 . S
H344 C355 0.950 . S
H345 C357 0.950 . S
H346 C358 0.950 . S
C347 H339 0.950 . S
C347 C348 1.386 . S
C347 C349 1.391 . S
C348 C347 1.386 . S
C348 C352 1.393 . S
C349 H341 0.950 . S
C349 C347 1.391 . S
C349 C350 1.400 . S
C350 C349 1.400 . S
C350 C351 1.398 . S
C350 C356 1.491 . S
C351 H342 0.950 . S
C351 C350 1.398 . S
C351 C352 1.391 . S
C352 H340 0.950 . S
C352 C348 1.393 . S
C352 C351 1.391 . S
C353 H343 0.950 . S
C353 C354 1.386 . S
C353 C355 1.391 . S
C354 C353 1.386 . S
C354 C358 1.393 . S
C355 H344 0.950 . S
C355 C353 1.391 . S
C355 C356 1.400 . S
C356 C350 1.491 . S
C356 C355 1.400 . S
C356 C357 1.398 . S
C357 H345 0.950 . S
C357 C356 1.398 . S
C357 C358 1.391 . S
C358 H346 0.950 . S
C358 C354 1.393 . S
C358 C357 1.391 . S
H359 C367 0.950 . S
H360 C372 0.950 . S
H361 C369 0.950 . S
H362 C371 0.950 . S
H363 C373 0.950 . S
H364 C375 0.950 . S
H365 C377 0.950 . S
H366 C378 0.950 . S
C367 H359 0.950 . S
C367 C368 1.386 . S
C367 C369 1.391 . S
C368 C367 1.386 . S
C368 C372 1.393 . S
C369 H361 0.950 . S
C369 C367 1.391 . S
C369 C370 1.400 . S
C370 C369 1.400 . S
C370 C371 1.398 . S
C370 C376 1.491 . S
C371 H362 0.950 . S
C371 C370 1.398 . S
C371 C372 1.391 . S
C372 H360 0.950 . S
C372 C368 1.393 . S
C372 C371 1.391 . S
C373 H363 0.950 . S
C373 C374 1.386 . S
C373 C375 1.391 . S
C374 C373 1.386 . S
C374 C378 1.393 . S
C375 H364 0.950 . S
C375 C373 1.391 . S
C375 C376 1.400 . S
C376 C370 1.491 . S
C376 C375 1.400 . S
C376 C377 1.398 . S
C377 H365 0.950 . S
C377 C376 1.398 . S
C377 C378 1.391 . S
C378 H366 0.950 . S
C378 C374 1.393 . S
C378 C377 1.391 . S
H379 C387 0.950 . S
H380 C392 0.950 . S
H381 C389 0.950 . S
H382 C391 0.950 . S
H383 C393 0.950 . S
H384 C395 0.950 . S
H385 C397 0.950 . S
H386 C398 0.950 . S
C387 H379 0.950 . S
C387 C388 1.386 . S
C387 C389 1.391 . S
C388 C387 1.386 . S
C388 C392 1.393 . S
C389 H381 0.950 . S
C389 C387 1.391 . S
C389 C390 1.400 . S
C390 C389 1.400 . S
C390 C391 1.398 . S
C390 C396 1.491 . S
C391 H382 0.950 . S
C391 C390 1.398 . S
C391 C392 1.391 . S
C392 H380 0.950 . S
C392 C388 1.393 . S
C392 C391 1.391 . S
C393 H383 0.950 . S
C393 C394 1.386 . S
C393 C395 1.391 . S
C394 C393 1.386 . S
C394 C398 1.393 . S
C395 H384 0.950 . S
C395 C393 1.391 . S
C395 C396 1.400 . S
C396 C390 1.491 . S
C396 C395 1.400 . S
C396 C397 1.398 . S
C397 H385 0.950 . S
C397 C396 1.398 . S
C397 C398 1.391 . S
C398 H386 0.950 . S
C398 C394 1.393 . S
C398 C397 1.391 . S
H399 C407 0.950 . S
H400 C412 0.950 . S
H401 C409 0.950 . S
H402 C411 0.950 . S
H403 C413 0.950 . S
H404 C415 0.950 . S
H405 C417 0.950 . S
H406 C418 0.950 . S
C407 H399 0.950 . S
C407 C408 1.386 . S
C407 C409 1.391 . S
C408 C407 1.386 . S
C408 C412 1.393 1_554 S
C409 H401 0.950 . S
C409 C407 1.391 . S
C409 C410 1.400 1_554 S
C410 C409 1.400 1_556 S
C410 C411 1.398 . S
C410 C416 1.491 . S
C411 H402 0.950 . S
C411 C410 1.398 . S
C411 C412 1.391 . S
C412 H400 0.950 . S
C412 C408 1.393 1_556 S
C412 C411 1.391 . S
C413 H403 0.950 . S
C413 C414 1.386 . S
C413 C415 1.391 . S
C414 C413 1.386 . S
C414 C418 1.393 . S
C415 H404 0.950 . S
C415 C413 1.391 . S
C415 C416 1.400 . S
C416 C410 1.491 . S
C416 C415 1.400 . S
C416 C417 1.398 . S
C417 H405 0.950 . S
C417 C416 1.398 . S
C417 C418 1.391 . S
C418 H406 0.950 . S
C418 C414 1.393 . S
C418 C417 1.391 . S
H419 C427 0.950 1_556 S
H420 C432 0.950 . S
H421 C429 0.950 . S
H422 C431 0.950 . S
H423 C433 0.950 . S
H424 C435 0.950 . S
H425 C437 0.950 . S
H426 C438 0.950 . S
C427 H419 0.950 1_554 S
C427 C428 1.386 . S
C427 C429 1.391 1_554 S
C428 C427 1.386 . S
C428 C432 1.393 . S
C429 H421 0.950 . S
C429 C427 1.391 1_556 S
C429 C430 1.400 . S
C430 C429 1.400 . S
C430 C431 1.398 1_556 S
C430 C436 1.491 . S
C431 H422 0.950 . S
C431 C430 1.398 1_554 S
C431 C432 1.391 . S
C432 H420 0.950 . S
C432 C428 1.393 . S
C432 C431 1.391 . S
C433 H423 0.950 . S
C433 C434 1.386 . S
C433 C435 1.391 . S
C434 C433 1.386 . S
C434 C438 1.393 . S
C435 H424 0.950 . S
C435 C433 1.391 . S
C435 C436 1.400 . S
C436 C430 1.491 . S
C436 C435 1.400 . S
C436 C437 1.398 . S
C437 H425 0.950 . S
C437 C436 1.398 . S
C437 C438 1.391 . S
C438 H426 0.950 . S
C438 C434 1.393 . S
C438 C437 1.391 . S
H439 C447 0.950 . S
H440 C452 0.950 1_554 S
H441 C449 0.950 . S
H442 C451 0.950 . S
H443 C453 0.950 . S
H444 C455 0.950 . S
H445 C457 0.950 . S
H446 C458 0.950 . S
C447 H439 0.950 . S
C447 C448 1.386 . S
C447 C449 1.391 . S
C448 C447 1.386 . S
C448 C452 1.393 . S
C449 H441 0.950 . S
C449 C447 1.391 . S
C449 C450 1.400 . S
C450 C449 1.400 . S
C450 C451 1.398 . S
C450 C456 1.491 . S
C451 H442 0.950 . S
C451 C450 1.398 . S
C451 C452 1.391 . S
C452 H440 0.950 1_556 S
C452 C448 1.393 . S
C452 C451 1.391 . S
C453 H443 0.950 . S
C453 C454 1.386 . S
C453 C455 1.391 . S
C454 C453 1.386 . S
C454 C458 1.393 . S
C455 H444 0.950 . S
C455 C453 1.391 . S
C455 C456 1.400 . S
C456 C450 1.491 . S
C456 C455 1.400 . S
C456 C457 1.398 . S
C457 H445 0.950 . S
C457 C456 1.398 . S
C457 C458 1.391 . S
C458 H446 0.950 . S
C458 C454 1.393 . S
C458 C457 1.391 . S
H459 C467 0.950 . S
H460 C472 0.950 . S
H461 C469 0.950 . S
H462 C471 0.950 . S
H463 C473 0.950 . S
H464 C475 0.950 . S
H465 C477 0.950 . S
H466 C478 0.950 . S
C467 H459 0.950 . S
C467 C468 1.386 . S
C467 C469 1.391 . S
C468 C467 1.386 . S
C468 C472 1.393 . S
C469 H461 0.950 . S
C469 C467 1.391 . S
C469 C470 1.400 . S
C470 C469 1.400 . S
C470 C471 1.398 . S
C470 C476 1.491 . S
C471 H462 0.950 . S
C471 C470 1.398 . S
C471 C472 1.391 . S
C472 H460 0.950 . S
C472 C468 1.393 . S
C472 C471 1.391 . S
C473 H463 0.950 . S
C473 C474 1.386 . S
C473 C475 1.391 . S
C474 C473 1.386 . S
C474 C478 1.393 . S
C475 H464 0.950 . S
C475 C473 1.391 . S
C475 C476 1.400 . S
C476 C470 1.491 . S
C476 C475 1.400 . S
C476 C477 1.398 . S
C477 H465 0.950 . S
C477 C476 1.398 . S
C477 C478 1.391 . S
C478 H466 0.950 . S
C478 C474 1.393 . S
C478 C477 1.391 . S
H479 C487 0.950 . S
H480 C492 0.950 . S
H481 C489 0.950 . S
H482 C491 0.950 . S
H483 C493 0.950 . S
H484 C495 0.950 . S
H485 C497 0.950 . S
H486 C498 0.950 . S
C487 H479 0.950 . S
C487 C488 1.386 . S
C487 C489 1.391 . S
C488 C487 1.386 . S
C488 C492 1.393 . S
C489 H481 0.950 . S
C489 C487 1.391 . S
C489 C490 1.400 . S
C490 C489 1.400 . S
C490 C491 1.398 . S
C490 C496 1.491 . S
C491 H482 0.950 . S
C491 C490 1.398 . S
C491 C492 1.391 . S
C492 H480 0.950 . S
C492 C488 1.393 . S
C492 C491 1.391 . S
C493 H483 0.950 . S
C493 C494 1.386 . S
C493 C495 1.391 . S
C494 C493 1.386 . S
C494 C498 1.393 . S
C495 H484 0.950 . S
C495 C493 1.391 . S
C495 C496 1.400 . S
C496 C490 1.491 . S
C496 C495 1.400 . S
C496 C497 1.398 . S
C497 H485 0.950 . S
C497 C496 1.398 . S
C497 C498 1.391 . S
C498 H486 0.950 . S
C498 C494 1.393 . S
C498 C497 1.391 . S
H499 C507 0.950 . S
H500 C512 0.950 . S
H501 C509 0.950 . S
H502 C511 0.950 . S
H503 C513 0.950 . S
H504 C515 0.950 . S
H505 C517 0.950 . S
H506 C518 0.950 . S
C507 H499 0.950 . S
C507 C508 1.386 . S
C507 C509 1.391 . S
C508 C507 1.386 . S
C508 C512 1.393 1_554 S
C509 H501 0.950 . S
C509 C507 1.391 . S
C509 C510 1.400 1_554 S
C510 C509 1.400 1_556 S
C510 C511 1.398 . S
C510 C516 1.491 . S
C511 H502 0.950 . S
C511 C510 1.398 . S
C511 C512 1.391 . S
C512 H500 0.950 . S
C512 C508 1.393 1_556 S
C512 C511 1.391 . S
C513 H503 0.950 . S
C513 C514 1.386 . S
C513 C515 1.391 . S
C514 C513 1.386 . S
C514 C518 1.393 . S
C515 H504 0.950 . S
C515 C513 1.391 . S
C515 C516 1.400 . S
C516 C510 1.491 . S
C516 C515 1.400 . S
C516 C517 1.398 . S
C517 H505 0.950 . S
C517 C516 1.398 . S
C517 C518 1.391 . S
C518 H506 0.950 . S
C518 C514 1.393 . S
C518 C517 1.391 . S
H519 C527 0.950 . S
H520 C532 0.950 . S
H521 C529 0.950 . S
H522 C531 0.950 . S
H523 C533 0.950 . S
H524 C535 0.950 . S
H525 C537 0.950 . S
H526 C538 0.950 . S
C527 H519 0.950 . S
C527 C528 1.386 . S
C527 C529 1.391 . S
C528 C527 1.386 . S
C528 C532 1.393 . S
C529 H521 0.950 . S
C529 C527 1.391 . S
C529 C530 1.400 1_554 S
C530 C529 1.400 1_556 S
C530 C531 1.398 . S
C530 C536 1.491 . S
C531 H522 0.950 . S
C531 C530 1.398 . S
C531 C532 1.391 1_556 S
C532 H520 0.950 . S
C532 C528 1.393 . S
C532 C531 1.391 1_554 S
C533 H523 0.950 . S
C533 C534 1.386 . S
C533 C535 1.391 . S
C534 C533 1.386 . S
C534 C538 1.393 . S
C535 H524 0.950 . S
C535 C533 1.391 . S
C535 C536 1.400 . S
C536 C530 1.491 . S
C536 C535 1.400 . S
C536 C537 1.398 . S
C537 H525 0.950 . S
C537 C536 1.398 . S
C537 C538 1.391 . S
C538 H526 0.950 . S
C538 C534 1.393 . S
C538 C537 1.391 . S
H539 C547 0.950 . S
H540 C552 0.950 1_554 S
H541 C549 0.950 . S
H542 C551 0.950 . S
H543 C553 0.950 . S
H544 C555 0.950 . S
H545 C557 0.950 . S
H546 C558 0.950 . S
C547 H539 0.950 . S
C547 C548 1.386 . S
C547 C549 1.391 . S
C548 C547 1.386 . S
C548 C552 1.393 . S
C549 H541 0.950 . S
C549 C547 1.391 . S
C549 C550 1.400 . S
C550 C549 1.400 . S
C550 C551 1.398 . S
C550 C556 1.491 . S
C551 H542 0.950 . S
C551 C550 1.398 . S
C551 C552 1.391 . S
C552 H540 0.950 1_556 S
C552 C548 1.393 . S
C552 C551 1.391 . S
C553 H543 0.950 . S
C553 C554 1.386 . S
C553 C555 1.391 . S
C554 C553 1.386 . S
C554 C558 1.393 . S
C555 H544 0.950 . S
C555 C553 1.391 . S
C555 C556 1.400 . S
C556 C550 1.491 . S
C556 C555 1.400 . S
C556 C557 1.398 . S
C557 H545 0.950 . S
C557 C556 1.398 . S
C557 C558 1.391 . S
C558 H546 0.950 . S
C558 C554 1.393 . S
C558 C557 1.391 . S
H559 C567 0.950 . S
H560 C572 0.950 . S
H561 C569 0.950 . S
H562 C571 0.950 . S
H563 C573 0.950 . S
H564 C575 0.950 . S
H565 C577 0.950 . S
H566 C578 0.950 . S
C567 H559 0.950 . S
C567 C568 1.386 . S
C567 C569 1.391 . S
C568 C567 1.386 . S
C568 C572 1.393 . S
C569 H561 0.950 . S
C569 C567 1.391 . S
C569 C570 1.400 . S
C570 C569 1.400 . S
C570 C571 1.398 . S
C570 C576 1.491 . S
C571 H562 0.950 . S
C571 C570 1.398 . S
C571 C572 1.391 . S
C572 H560 0.950 . S
C572 C568 1.393 . S
C572 C571 1.391 . S
C573 H563 0.950 . S
C573 C574 1.386 . S
C573 C575 1.391 . S
C574 C573 1.386 . S
C574 C578 1.393 . S
C575 H564 0.950 . S
C575 C573 1.391 . S
C575 C576 1.400 . S
C576 C570 1.491 . S
C576 C575 1.400 . S
C576 C577 1.398 . S
C577 H565 0.950 . S
C577 C576 1.398 . S
C577 C578 1.391 . S
C578 H566 0.950 . S
C578 C574 1.393 . S
C578 C577 1.391 . S
H579 C587 0.950 . S
H580 C592 0.950 . S
H581 C589 0.950 . S
H582 C591 0.950 . S
H583 C593 0.950 . S
H584 C595 0.950 . S
H585 C597 0.950 . S
H586 C598 0.950 . S
C587 H579 0.950 . S
C587 C588 1.386 . S
C587 C589 1.391 . S
C588 C587 1.386 . S
C588 C592 1.393 . S
C589 H581 0.950 . S
C589 C587 1.391 . S
C589 C590 1.400 . S
C590 C589 1.400 . S
C590 C591 1.398 . S
C590 C596 1.491 . S
C591 H582 0.950 . S
C591 C590 1.398 . S
C591 C592 1.391 . S
C592 H580 0.950 . S
C592 C588 1.393 . S
C592 C591 1.391 . S
C593 H583 0.950 . S
C593 C594 1.386 . S
C593 C595 1.391 . S
C594 C593 1.386 . S
C594 C598 1.393 . S
C595 H584 0.950 . S
C595 C593 1.391 . S
C595 C596 1.400 . S
C596 C590 1.491 . S
C596 C595 1.400 . S
C596 C597 1.398 . S
C597 H585 0.950 . S
C597 C596 1.398 . S
C597 C598 1.391 . S
C598 H586 0.950 . S
C598 C594 1.393 . S
C598 C597 1.391 . S
H599 C607 0.950 . S
H600 C612 0.950 . S
H601 C609 0.950 . S
H602 C611 0.950 . S
H603 C613 0.950 . S
H604 C615 0.950 . S
H605 C617 0.950 . S
H606 C618 0.950 . S
C607 H599 0.950 . S
C607 C608 1.386 . S
C607 C609 1.391 . S
C608 C607 1.386 . S
C608 C612 1.393 . S
C609 H601 0.950 . S
C609 C607 1.391 . S
C609 C610 1.400 . S
C610 C609 1.400 . S
C610 C611 1.398 . S
C610 C616 1.491 . S
C611 H602 0.950 . S
C611 C610 1.398 . S
C611 C612 1.391 . S
C612 H600 0.950 . S
C612 C608 1.393 . S
C612 C611 1.391 . S
C613 H603 0.950 . S
C613 C614 1.386 . S
C613 C615 1.391 . S
C614 C613 1.386 . S
C614 C618 1.393 . S
C615 H604 0.950 . S
C615 C613 1.391 . S
C615 C616 1.400 . S
C616 C610 1.491 . S
C616 C615 1.400 . S
C616 C617 1.398 . S
C617 H605 0.950 . S
C617 C616 1.398 . S
C617 C618 1.391 . S
C618 H606 0.950 . S
C618 C614 1.393 . S
C618 C617 1.391 . S
H619 C627 0.950 . S
H620 C632 0.950 . S
H621 C629 0.950 . S
H622 C631 0.950 . S
H623 C633 0.950 . S
H624 C635 0.950 . S
H625 C637 0.950 . S
H626 C638 0.950 . S
C627 H619 0.950 . S
C627 C628 1.386 . S
C627 C629 1.391 . S
C628 C627 1.386 . S
C628 C632 1.393 . S
C629 H621 0.950 . S
C629 C627 1.391 . S
C629 C630 1.400 . S
C630 C629 1.400 . S
C630 C631 1.398 . S
C630 C636 1.491 . S
C631 H622 0.950 . S
C631 C630 1.398 . S
C631 C632 1.391 . S
C632 H620 0.950 . S
C632 C628 1.393 . S
C632 C631 1.391 . S
C633 H623 0.950 . S
C633 C634 1.386 . S
C633 C635 1.391 . S
C634 C633 1.386 . S
C634 C638 1.393 . S
C635 H624 0.950 . S
C635 C633 1.391 . S
C635 C636 1.400 . S
C636 C630 1.491 . S
C636 C635 1.400 . S
C636 C637 1.398 . S
C637 H625 0.950 . S
C637 C636 1.398 . S
C637 C638 1.391 . S
C638 H626 0.950 . S
C638 C634 1.393 . S
C638 C637 1.391 . S
H639 C647 0.950 . S
H640 C652 0.950 . S
H641 C649 0.950 . S
H642 C651 0.950 . S
H643 C653 0.950 . S
H644 C655 0.950 . S
H645 C657 0.950 . S
H646 C658 0.950 . S
C647 H639 0.950 . S
C647 C648 1.386 . S
C647 C649 1.391 . S
C648 C647 1.386 . S
C648 C652 1.393 . S
C649 H641 0.950 . S
C649 C647 1.391 . S
C649 C650 1.400 . S
C650 C649 1.400 . S
C650 C651 1.398 . S
C650 C656 1.491 . S
C651 H642 0.950 . S
C651 C650 1.398 . S
C651 C652 1.391 . S
C652 H640 0.950 . S
C652 C648 1.393 . S
C652 C651 1.391 . S
C653 H643 0.950 . S
C653 C654 1.386 . S
C653 C655 1.391 . S
C654 C653 1.386 . S
C654 C658 1.393 . S
C655 H644 0.950 . S
C655 C653 1.391 . S
C655 C656 1.400 . S
C656 C650 1.491 . S
C656 C655 1.400 . S
C656 C657 1.398 . S
C657 H645 0.950 . S
C657 C656 1.398 . S
C657 C658 1.391 . S
C658 H646 0.950 . S
C658 C654 1.393 . S
C658 C657 1.391 . S
H659 C667 0.950 . S
H660 C672 0.950 . S
H661 C669 0.950 . S
H662 C671 0.950 . S
H663 C673 0.950 . S
H664 C675 0.950 . S
H665 C677 0.950 . S
H666 C678 0.950 . S
C667 H659 0.950 . S
C667 C668 1.386 . S
C667 C669 1.391 . S
C668 C667 1.386 . S
C668 C672 1.393 . S
C669 H661 0.950 . S
C669 C667 1.391 . S
C669 C670 1.400 . S
C670 C669 1.400 . S
C670 C671 1.398 . S
C670 C676 1.491 . S
C671 H662 0.950 . S
C671 C670 1.398 . S
C671 C672 1.391 . S
C672 H660 0.950 . S
C672 C668 1.393 . S
C672 C671 1.391 . S
C673 H663 0.950 . S
C673 C674 1.386 . S
C673 C675 1.391 . S
C674 C673 1.386 . S
C674 C678 1.393 . S
C675 H664 0.950 . S
C675 C673 1.391 . S
C675 C676 1.400 . S
C676 C670 1.491 . S
C676 C675 1.400 . S
C676 C677 1.398 . S
C677 H665 0.950 . S
C677 C676 1.398 . S
C677 C678 1.391 . S
C678 H666 0.950 . S
C678 C674 1.393 . S
C678 C677 1.391 . S
H679 C687 0.950 . S
H680 C692 0.950 . S
H681 C689 0.950 . S
H682 C691 0.950 . S
H683 C693 0.950 . S
H684 C695 0.950 . S
H685 C697 0.950 . S
H686 C698 0.950 . S
C687 H679 0.950 . S
C687 C688 1.386 . S
C687 C689 1.391 . S
C688 C687 1.386 . S
C688 C692 1.393 . S
C689 H681 0.950 . S
C689 C687 1.391 . S
C689 C690 1.400 . S
C690 C689 1.400 . S
C690 C691 1.398 . S
C690 C696 1.491 . S
C691 H682 0.950 . S
C691 C690 1.398 . S
C691 C692 1.391 . S
C692 H680 0.950 . S
C692 C688 1.393 . S
C692 C691 1.391 . S
C693 H683 0.950 . S
C693 C694 1.386 . S
C693 C695 1.391 . S
C694 C693 1.386 . S
C694 C698 1.393 . S
C695 H684 0.950 . S
C695 C693 1.391 . S
C695 C696 1.400 . S
C696 C690 1.491 . S
C696 C695 1.400 . S
C696 C697 1.398 . S
C697 H685 0.950 . S
C697 C696 1.398 . S
C697 C698 1.391 . S
C698 H686 0.950 . S
C698 C694 1.393 . S
C698 C697 1.391 . S
C228 C12 1.643 . S
C234 C126 1.760 . S
C248 C40 1.533 . S
C254 C158 1.544 . S
C274 C217 1.889 . S
C268 C61 1.908 . S
C294 C146 1.433 . S
C288 C82 1.441 . S
C308 C96 1.568 . S
C314 C176 1.642 . S
C334 C198 1.308 . S
C328 C117 1.152 . S
C354 C167 1.748 . S
C348 C51 1.700 . S
C368 C72 1.330 . S
C374 C207 1.344 . S
C394 C156 1.618 . S
C388 C101 1.540 1_556 S
C408 C122 1.454 . S
C414 C186 1.528 . S
C428 C17 1.743 . S
C434 C189 1.829 . S
C454 C128 1.619 . S
C448 C30 1.604 1_556 S
C474 C136 1.696 . S
C468 C80 1.644 . S
C494 C177 1.514 . S
C488 C93 1.462 1_556 S
C514 C190 1.891 . S
C508 C114 1.857 . S
C534 C127 1.443 . S
C528 C9 1.385 . S
C554 C187 1.590 . S
C548 C38 1.576 1_556 S
C568 C59 1.270 . S
C574 C188 1.262 . S
C594 C157 1.661 . S
C588 C124 1.597 . S
C614 C218 1.255 . S
C608 C19 1.189 . S
C634 C145 1.581 . S
C628 C33 1.582 . S
C654 C159 1.535 . S
C648 C54 1.510 . S
C668 C75 1.789 . S
C674 C208 1.814 . S
C688 C103 1.556 . S
C694 C155 1.603 . S
