# Generated by pormake.
# Topology eea, (3,6)-cn, num edge types: 1
# Building blocks:
#     Node 0, Type 0, BuildingBlock: MIDCAF_clean_linker_0, # of connection points: 3
#     Node 1, Type 0, BuildingBlock: MIDCAF_clean_linker_0, # of connection points: 3
#     Node 2, Type 0, BuildingBlock: MIDCAF_clean_linker_0, # of connection points: 3
#     Node 3, Type 0, BuildingBlock: MIDCAF_clean_linker_0, # of connection points: 3
#     Node 4, Type 0, BuildingBlock: MIDCAF_clean_linker_0, # of connection points: 3
#     Node 5, Type 0, BuildingBlock: MIDCAF_clean_linker_0, # of connection points: 3
#     Node 6, Type 0, BuildingBlock: MIDCAF_clean_linker_0, # of connection points: 3
#     Node 7, Type 0, BuildingBlock: MIDCAF_clean_linker_0, # of connection points: 3
#     Node 8, Type 0, BuildingBlock: MIDCAF_clean_linker_0, # of connection points: 3
#     Node 9, Type 0, BuildingBlock: MIDCAF_clean_linker_0, # of connection points: 3
#     Node 10, Type 0, BuildingBlock: MIDCAF_clean_linker_0, # of connection points: 3
#     Node 11, Type 0, BuildingBlock: MIDCAF_clean_linker_0, # of connection points: 3
#     Node 12, Type 0, BuildingBlock: MIDCAF_clean_linker_0, # of connection points: 3
#     Node 13, Type 0, BuildingBlock: MIDCAF_clean_linker_0, # of connection points: 3
#     Node 14, Type 0, BuildingBlock: MIDCAF_clean_linker_0, # of connection points: 3
#     Node 15, Type 0, BuildingBlock: MIDCAF_clean_linker_0, # of connection points: 3
#     Node 16, Type 0, BuildingBlock: MIDCAF_clean_linker_0, # of connection points: 3
#     Node 17, Type 0, BuildingBlock: MIDCAF_clean_linker_0, # of connection points: 3
#     Node 18, Type 1, BuildingBlock: KUMBOL_clean_sbu_0, # of connection points: 6
#     Node 19, Type 1, BuildingBlock: KUMBOL_clean_sbu_0, # of connection points: 6
#     Node 20, Type 1, BuildingBlock: KUMBOL_clean_sbu_0, # of connection points: 6
#     Node 21, Type 1, BuildingBlock: KUMBOL_clean_sbu_0, # of connection points: 6
#     Node 22, Type 1, BuildingBlock: KUMBOL_clean_sbu_0, # of connection points: 6
#     Node 23, Type 1, BuildingBlock: KUMBOL_clean_sbu_0, # of connection points: 6
#     Node 24, Type 1, BuildingBlock: KUMBOL_clean_sbu_0, # of connection points: 6
#     Node 25, Type 1, BuildingBlock: KUMBOL_clean_sbu_0, # of connection points: 6
#     Node 26, Type 1, BuildingBlock: KUMBOL_clean_sbu_0, # of connection points: 6
#     Edge 27, Type (0, 1), BuildingBlock: OJICUG_clean_linker_0, # of connection points: 2
#     Edge 28, Type (0, 1), BuildingBlock: OJICUG_clean_linker_0, # of connection points: 2
#     Edge 29, Type (0, 1), BuildingBlock: OJICUG_clean_linker_0, # of connection points: 2
#     Edge 30, Type (0, 1), BuildingBlock: OJICUG_clean_linker_0, # of connection points: 2
#     Edge 31, Type (0, 1), BuildingBlock: OJICUG_clean_linker_0, # of connection points: 2
#     Edge 32, Type (0, 1), BuildingBlock: OJICUG_clean_linker_0, # of connection points: 2
#     Edge 33, Type (0, 1), BuildingBlock: OJICUG_clean_linker_0, # of connection points: 2
#     Edge 34, Type (0, 1), BuildingBlock: OJICUG_clean_linker_0, # of connection points: 2
#     Edge 35, Type (0, 1), BuildingBlock: OJICUG_clean_linker_0, # of connection points: 2
#     Edge 36, Type (0, 1), BuildingBlock: OJICUG_clean_linker_0, # of connection points: 2
#     Edge 37, Type (0, 1), BuildingBlock: OJICUG_clean_linker_0, # of connection points: 2
#     Edge 38, Type (0, 1), BuildingBlock: OJICUG_clean_linker_0, # of connection points: 2
#     Edge 39, Type (0, 1), BuildingBlock: OJICUG_clean_linker_0, # of connection points: 2
#     Edge 40, Type (0, 1), BuildingBlock: OJICUG_clean_linker_0, # of connection points: 2
#     Edge 41, Type (0, 1), BuildingBlock: OJICUG_clean_linker_0, # of connection points: 2
#     Edge 42, Type (0, 1), BuildingBlock: OJICUG_clean_linker_0, # of connection points: 2
#     Edge 43, Type (0, 1), BuildingBlock: OJICUG_clean_linker_0, # of connection points: 2
#     Edge 44, Type (0, 1), BuildingBlock: OJICUG_clean_linker_0, # of connection points: 2
#     Edge 45, Type (0, 1), BuildingBlock: OJICUG_clean_linker_0, # of connection points: 2
#     Edge 46, Type (0, 1), BuildingBlock: OJICUG_clean_linker_0, # of connection points: 2
#     Edge 47, Type (0, 1), BuildingBlock: OJICUG_clean_linker_0, # of connection points: 2
#     Edge 48, Type (0, 1), BuildingBlock: OJICUG_clean_linker_0, # of connection points: 2
#     Edge 49, Type (0, 1), BuildingBlock: OJICUG_clean_linker_0, # of connection points: 2
#     Edge 50, Type (0, 1), BuildingBlock: OJICUG_clean_linker_0, # of connection points: 2
#     Edge 51, Type (0, 1), BuildingBlock: OJICUG_clean_linker_0, # of connection points: 2
#     Edge 52, Type (0, 1), BuildingBlock: OJICUG_clean_linker_0, # of connection points: 2
#     Edge 53, Type (0, 1), BuildingBlock: OJICUG_clean_linker_0, # of connection points: 2
#     Edge 54, Type (0, 1), BuildingBlock: OJICUG_clean_linker_0, # of connection points: 2
#     Edge 55, Type (0, 1), BuildingBlock: OJICUG_clean_linker_0, # of connection points: 2
#     Edge 56, Type (0, 1), BuildingBlock: OJICUG_clean_linker_0, # of connection points: 2
#     Edge 57, Type (0, 1), BuildingBlock: OJICUG_clean_linker_0, # of connection points: 2
#     Edge 58, Type (0, 1), BuildingBlock: OJICUG_clean_linker_0, # of connection points: 2
#     Edge 59, Type (0, 1), BuildingBlock: OJICUG_clean_linker_0, # of connection points: 2
#     Edge 60, Type (0, 1), BuildingBlock: OJICUG_clean_linker_0, # of connection points: 2
#     Edge 61, Type (0, 1), BuildingBlock: OJICUG_clean_linker_0, # of connection points: 2
#     Edge 62, Type (0, 1), BuildingBlock: OJICUG_clean_linker_0, # of connection points: 2
#     Edge 63, Type (0, 1), BuildingBlock: OJICUG_clean_linker_0, # of connection points: 2
#     Edge 64, Type (0, 1), BuildingBlock: OJICUG_clean_linker_0, # of connection points: 2
#     Edge 65, Type (0, 1), BuildingBlock: OJICUG_clean_linker_0, # of connection points: 2
#     Edge 66, Type (0, 1), BuildingBlock: OJICUG_clean_linker_0, # of connection points: 2
#     Edge 67, Type (0, 1), BuildingBlock: OJICUG_clean_linker_0, # of connection points: 2
#     Edge 68, Type (0, 1), BuildingBlock: OJICUG_clean_linker_0, # of connection points: 2
#     Edge 69, Type (0, 1), BuildingBlock: OJICUG_clean_linker_0, # of connection points: 2
#     Edge 70, Type (0, 1), BuildingBlock: OJICUG_clean_linker_0, # of connection points: 2
#     Edge 71, Type (0, 1), BuildingBlock: OJICUG_clean_linker_0, # of connection points: 2
#     Edge 72, Type (0, 1), BuildingBlock: OJICUG_clean_linker_0, # of connection points: 2
#     Edge 73, Type (0, 1), BuildingBlock: OJICUG_clean_linker_0, # of connection points: 2
#     Edge 74, Type (0, 1), BuildingBlock: OJICUG_clean_linker_0, # of connection points: 2
#     Edge 75, Type (0, 1), BuildingBlock: OJICUG_clean_linker_0, # of connection points: 2
#     Edge 76, Type (0, 1), BuildingBlock: OJICUG_clean_linker_0, # of connection points: 2
#     Edge 77, Type (0, 1), BuildingBlock: OJICUG_clean_linker_0, # of connection points: 2
#     Edge 78, Type (0, 1), BuildingBlock: OJICUG_clean_linker_0, # of connection points: 2
#     Edge 79, Type (0, 1), BuildingBlock: OJICUG_clean_linker_0, # of connection points: 2
#     Edge 80, Type (0, 1), BuildingBlock: OJICUG_clean_linker_0, # of connection points: 2
# Relax obj value: 0.008
# Max RMSD: 0.089
# Mean RMSD: 0.072
data_MOF--net-eea--node1-KUMBOL_clean_sbu_0--node2-MIDCAF_clean_linker_0--edge1-OJICUG_clean_linker_0
_symmetry_space_group_name_H-M    P1
_symmetry_Int_Tables_number       1
_symmetry_cell_setting            triclinic
loop_
_symmetry_equiv_pos_as_xyz
'x, y, z'
_cell_length_a     47.853817
_cell_length_b     49.200339
_cell_length_c     71.574166
_cell_angle_alpha  89.915632
_cell_angle_beta   89.951966
_cell_angle_gamma 119.96012
loop_
_atom_site_label
_atom_site_type_symbol
_atom_site_fract_x
_atom_site_fract_y
_atom_site_fract_z
_atom_type_partial_charge
C0 C 0.2293 0.01162 0.40982 0.0
C1 C 0.21704 0.00563 0.39152 0.0
C2 C 0.21277 0.02849 0.38224 0.0
C3 C 0.22067 0.05673 0.39105 0.0
H4 H 0.19498 0.12647 0.39323 0.0
H5 H 0.17953 0.16139 0.37843 0.0
H6 H 0.25439 0.23965 0.40902 0.0
H7 H 0.2688 0.20426 0.42451 0.0
H8 H 0.29432 0.18413 0.46274 0.0
H9 H 0.32194 0.19558 0.49286 0.0
H10 H 0.30662 0.1014 0.49504 0.0
H11 H 0.27894 0.08974 0.46521 0.0
H12 H 0.24671 0.04368 0.4327 0.0
H13 H 0.23236 0.99428 0.41747 0.0
H14 H 0.20378 0.02478 0.36805 0.0
H15 H 0.21728 0.07389 0.38342 0.0
N16 N 0.2341 0.11323 0.41064 0.0
N17 N 0.25904 0.14867 0.43528 0.0
N18 N 0.25832 0.10066 0.43495 0.0
C19 C 0.24244 0.14108 0.41889 0.0
C20 C 0.26694 0.12842 0.44343 0.0
C21 C 0.24203 0.09294 0.41853 0.0
C22 C 0.23316 0.1626 0.41005 0.0
C23 C 0.20814 0.15114 0.39683 0.0
C24 C 0.1994 0.17125 0.38823 0.0
C25 C 0.21577 0.20346 0.3924 0.0
C26 C 0.24084 0.21492 0.40565 0.0
C27 C 0.24927 0.19467 0.41449 0.0
C28 C 0.28429 0.13598 0.46152 0.0
C29 C 0.29684 0.16586 0.46963 0.0
C30 C 0.31282 0.1725 0.48683 0.0
C31 C 0.3163 0.14933 0.49632 0.0
C32 C 0.30394 0.1196 0.48817 0.0
C33 C 0.28822 0.11302 0.47098 0.0
C34 C 0.23317 0.06281 0.4093 0.0
C35 C 0.23736 0.03991 0.41858 0.0
C36 C 0.99091 0.22431 0.40076 0.0
C37 C 1.00152 0.21645 0.3844 0.0
C38 C 0.98454 0.18537 0.37796 0.0
C39 C 0.95725 0.16274 0.38758 0.0
H40 H 0.87511 0.07588 0.38053 0.0
H41 H 0.83721 0.02634 0.36577 0.0
H42 H 0.77825 0.99842 0.41559 0.0
H43 H 0.81562 0.04798 0.43025 0.0
H44 H 0.8363 0.09103 0.4647 0.0
H45 H 0.82193 0.10226 0.49513 0.0
H46 H 0.89935 0.19827 0.4909 0.0
H47 H 0.91367 0.18723 0.4602 0.0
H48 H 0.95651 0.20871 0.42302 0.0
H49 H 0.00379 0.24797 0.40624 0.0
H50 H 0.99212 0.17867 0.36535 0.0
H51 H 0.94462 0.13903 0.38218 0.0
N52 N 0.89762 0.11847 0.4063 0.0
N53 N 0.86438 0.10331 0.4328 0.0
N54 N 0.91063 0.15308 0.43158 0.0
C55 C 0.87087 0.09663 0.41548 0.0
C56 C 0.88406 0.13139 0.44099 0.0
C57 C 0.91766 0.14675 0.41424 0.0
C58 C 0.84847 0.0661 0.40659 0.0
C59 C 0.8541 0.0592 0.38838 0.0
C60 C 0.83244 0.03071 0.37992 0.0
C61 C 0.80462 0.00847 0.38947 0.0
C62 C 0.79915 0.01524 0.40772 0.0
C63 C 0.82078 0.04366 0.41618 0.0
C64 C 0.87613 0.13824 0.45988 0.0
C65 C 0.8504 0.11457 0.4702 0.0
C66 C 0.84225 0.12093 0.48776 0.0
C67 C 0.85949 0.15115 0.49547 0.0
C68 C 0.88538 0.17481 0.48526 0.0
C69 C 0.89368 0.16841 0.4677 0.0
C70 C 0.94662 0.17063 0.40399 0.0
C71 C 0.9639 0.2017 0.41047 0.0
C72 C 0.78326 0.76834 0.40213 0.0
C73 C 0.79024 0.78661 0.38586 0.0
C74 C 0.82166 0.80053 0.37843 0.0
C75 C 0.8454 0.79583 0.38699 0.0
H76 H 0.94096 0.80681 0.38099 0.0
H77 H 0.99014 0.81462 0.36533 0.0
H78 H 1.00118 0.75793 0.40749 0.0
H79 H 0.95265 0.75023 0.4231 0.0
H80 H 0.91357 0.73637 0.46176 0.0
H81 H 0.89923 0.7115 0.49255 0.0
H82 H 0.81105 0.71533 0.4916 0.0
H83 H 0.82492 0.73955 0.46088 0.0
H84 H 0.80031 0.7497 0.4233 0.0
H85 H 0.75946 0.75764 0.40839 0.0
H86 H 0.82775 0.81468 0.36586 0.0
H87 H 0.8693 0.8067 0.38089 0.0
N88 N 0.89097 0.77855 0.40422 0.0
N89 N 0.90576 0.75992 0.43058 0.0
N90 N 0.85691 0.76 0.43043 0.0
C91 C 0.91251 0.77232 0.41299 0.0
C92 C 0.87808 0.75384 0.43947 0.0
C93 C 0.86296 0.77229 0.41289 0.0
C94 C 0.94263 0.77781 0.40335 0.0
C95 C 0.95389 0.79602 0.38692 0.0
C96 C 0.98214 0.80063 0.37798 0.0
C97 C 0.99944 0.78669 0.38507 0.0
C98 C 0.98822 0.76864 0.40149 0.0
C99 C 0.96039 0.76441 0.41053 0.0
C100 C 0.87035 0.73985 0.45863 0.0
C101 C 0.89115 0.732 0.46812 0.0
C102 C 0.88302 0.71789 0.48587 0.0
C103 C 0.85384 0.71115 0.49457 0.0
C104 C 0.83343 0.7196 0.48523 0.0
C105 C 0.84153 0.7337 0.46757 0.0
C106 C 0.83831 0.77755 0.40335 0.0
C107 C 0.8069 0.76399 0.41078 0.0
C108 C 0.01724 0.22936 0.61565 0.0
C109 C 0.0062 0.21141 0.63211 0.0
C110 C 0.02363 0.19758 0.63917 0.0
C111 C 0.05181 0.20219 0.63014 0.0
H112 H 0.13633 0.19171 0.63602 0.0
H113 H 0.17796 0.18395 0.65112 0.0
H114 H 0.24622 0.24097 0.60858 0.0
H115 H 0.20527 0.24867 0.59357 0.0
H116 H 0.1806 0.25922 0.55601 0.0
H117 H 0.19409 0.28325 0.52522 0.0
H118 H 0.10499 0.28536 0.52417 0.0
H119 H 0.09106 0.26072 0.55503 0.0
H120 H 0.05261 0.24771 0.59392 0.0
H121 H 0.00417 0.23999 0.60968 0.0
H122 H 0.01578 0.18366 0.65184 0.0
H123 H 0.06484 0.19148 0.63605 0.0
N124 N 0.1146 0.2197 0.6127 0.0
N125 N 0.14851 0.2382 0.58642 0.0
N126 N 0.09957 0.23811 0.58635 0.0
C127 C 0.14258 0.22599 0.60399 0.0
C128 C 0.12721 0.24422 0.57741 0.0
C129 C 0.09296 0.22581 0.60396 0.0
C130 C 0.1673 0.22083 0.61353 0.0
C131 C 0.16024 0.20261 0.62992 0.0
C132 C 0.18402 0.19804 0.63853 0.0
C133 C 0.21546 0.21202 0.63111 0.0
C134 C 0.22241 0.23022 0.61481 0.0
C135 C 0.19871 0.23443 0.60612 0.0
C136 C 0.13475 0.2581 0.55821 0.0
C137 C 0.1637 0.26465 0.54928 0.0
C138 C 0.17158 0.27864 0.53158 0.0
C139 C 0.15079 0.28654 0.52219 0.0
C140 C 0.12149 0.2794 0.53089 0.0
C141 C 0.11359 0.26541 0.54868 0.0
C142 C 0.06289 0.2203 0.61367 0.0
C143 C 0.04501 0.2336 0.60652 0.0
C144 C 0.78092 0.78962 0.60603 0.0
C145 C 0.79237 0.79493 0.62453 0.0
C146 C 0.79572 0.82134 0.63403 0.0
C147 C 0.7878 0.84195 0.62528 0.0
H148 H 0.7907 0.9247 0.63362 0.0
H149 H 0.80311 0.97331 0.64927 0.0
H150 H 0.7761 0.00462 0.59958 0.0
H151 H 0.76288 0.95575 0.58405 0.0
H152 H 0.72993 0.9095 0.55167 0.0
H153 H 0.70112 0.89733 0.52226 0.0
H154 H 0.69146 0.80521 0.52277 0.0
H155 H 0.72104 0.81756 0.55219 0.0
H156 H 0.76418 0.80541 0.58303 0.0
H157 H 0.77851 0.76973 0.59822 0.0
H158 H 0.80398 0.82586 0.64837 0.0
H159 H 0.79055 0.86195 0.63312 0.0
N160 N 0.77513 0.88598 0.60619 0.0
N161 N 0.75263 0.89934 0.58131 0.0
N162 N 0.7526 0.85167 0.58083 0.0
C163 C 0.76771 0.9065 0.59811 0.0
C164 C 0.74491 0.872 0.57257 0.0
C165 C 0.76778 0.85858 0.59767 0.0
C166 C 0.77572 0.93624 0.60757 0.0
C167 C 0.7874 0.94192 0.626 0.0
C168 C 0.79468 0.96987 0.63497 0.0
C169 C 0.79055 0.9928 0.62568 0.0
C170 C 0.77904 0.9872 0.60723 0.0
C171 C 0.77163 0.95921 0.59829 0.0
C172 C 0.72779 0.86448 0.5544 0.0
C173 C 0.72174 0.8866 0.54559 0.0
C174 C 0.70497 0.87956 0.52874 0.0
C175 C 0.69372 0.8502 0.52024 0.0
C176 C 0.70001 0.82813 0.5289 0.0
C177 C 0.71688 0.83519 0.54581 0.0
C178 C 0.77618 0.83659 0.60681 0.0
C179 C 0.77283 0.81017 0.59729 0.0
C180 C 0.20824 0.98346 0.60962 0.0
C181 C 0.20268 0.99019 0.62786 0.0
C182 C 0.17487 0.96785 0.63739 0.0
C183 C 0.1533 0.93933 0.62892 0.0
H184 H 0.06211 0.85948 0.6344 0.0
H185 H 0.01444 0.81969 0.65104 0.0
H186 H 0.00369 0.75055 0.61028 0.0
H187 H 0.05114 0.78999 0.59367 0.0
H188 H 0.09108 0.81421 0.55468 0.0
H189 H 0.10692 0.80341 0.52433 0.0
H190 H 0.19226 0.89516 0.52467 0.0
H191 H 0.17691 0.90587 0.55489 0.0
H192 H 0.19197 0.95077 0.58709 0.0
H193 H 0.22912 0.00035 0.60177 0.0
H194 H 0.17003 0.97219 0.65153 0.0
H195 H 0.13229 0.92258 0.63673 0.0
N196 N 0.1097 0.88015 0.61069 0.0
N197 N 0.09721 0.84576 0.5853 0.0
N198 N 0.14365 0.89541 0.58451 0.0
C199 C 0.08978 0.85195 0.60259 0.0
C200 C 0.12411 0.86747 0.57614 0.0
C201 C 0.13674 0.90201 0.60174 0.0
C202 C 0.06059 0.82799 0.61267 0.0
C203 C 0.04964 0.83578 0.62898 0.0
C204 C 0.02225 0.81305 0.6385 0.0
C205 C 0.00548 0.78197 0.63205 0.0
C206 C 0.0164 0.77421 0.61576 0.0
C207 C 0.0435 0.79693 0.60615 0.0
C208 C 0.13276 0.86085 0.55738 0.0
C209 C 0.11319 0.83211 0.54828 0.0
C210 C 0.12218 0.82596 0.53082 0.0
C211 C 0.15099 0.84834 0.52213 0.0
C212 C 0.17022 0.87719 0.53111 0.0
C213 C 0.16125 0.88337 0.54845 0.0
C214 C 0.15904 0.9325 0.61071 0.0
C215 C 0.18674 0.95502 0.60116 0.0
C216 C 0.91419 0.35762 0.73454 0.0
C217 C 0.88413 0.34029 0.7256 0.0
C218 C 0.8628 0.3522 0.72571 0.0
C219 C 0.87145 0.38077 0.73435 0.0
H220 H 0.85457 0.45915 0.73451 0.0
H221 H 0.83879 0.49392 0.71963 0.0
H222 H 0.92861 0.5741 0.7374 0.0
H223 H 0.94313 0.53921 0.75328 0.0
H224 H 0.96563 0.52022 0.79573 0.0
H225 H 0.99413 0.53206 0.82557 0.0
H226 H 0.98395 0.4398 0.8262 0.0
H227 H 0.9555 0.42777 0.79661 0.0
H228 H 0.94577 0.39852 0.75031 0.0
H229 H 0.93168 0.34979 0.73439 0.0
H230 H 0.83919 0.33935 0.71935 0.0
H231 H 0.85457 0.38939 0.73419 0.0
N232 N 0.90044 0.44699 0.74556 0.0
N233 N 0.92922 0.48409 0.76888 0.0
N234 N 0.92961 0.43664 0.76795 0.0
C235 C 0.90995 0.4753 0.75351 0.0
C236 C 0.93885 0.46463 0.77631 0.0
C237 C 0.91047 0.42772 0.75261 0.0
C238 C 0.90001 0.49653 0.74509 0.0
C239 C 0.87076 0.48426 0.73533 0.0
C240 C 0.86187 0.50425 0.72664 0.0
C241 C 0.88241 0.53699 0.72715 0.0
C242 C 0.91174 0.54913 0.73698 0.0
C243 C 0.92023 0.52914 0.74604 0.0
C244 C 0.95804 0.47297 0.79377 0.0
C245 C 0.96962 0.50251 0.80217 0.0
C246 C 0.98607 0.50937 0.81921 0.0
C247 C 0.99101 0.48675 0.82826 0.0
C248 C 0.98008 0.45753 0.81968 0.0
C249 C 0.9639 0.45075 0.80263 0.0
C250 C 0.90124 0.39763 0.74346 0.0
C251 C 0.92244 0.38573 0.74358 0.0
C252 C 0.65814 0.55661 0.73541 0.0
C253 C 0.6687 0.54867 0.71904 0.0
C254 C 0.65154 0.5176 0.7126 0.0
C255 C 0.62408 0.4951 0.72217 0.0
H256 H 0.54089 0.40903 0.71441 0.0
H257 H 0.50298 0.35953 0.6996 0.0
H258 H 0.4439 0.33155 0.74937 0.0
H259 H 0.48124 0.38107 0.76405 0.0
H260 H 0.49614 0.42671 0.79603 0.0
H261 H 0.48088 0.43787 0.82616 0.0
H262 H 0.56717 0.52891 0.82658 0.0
H263 H 0.58292 0.51765 0.79635 0.0
H264 H 0.62358 0.54121 0.75759 0.0
H265 H 0.67115 0.58025 0.7409 0.0
H266 H 0.65905 0.51082 0.7 0.0
H267 H 0.61127 0.47142 0.71673 0.0
N268 N 0.56389 0.45126 0.74051 0.0
N269 N 0.5297 0.4365 0.76656 0.0
N270 N 0.57656 0.48585 0.7658 0.0
C271 C 0.53664 0.42967 0.74941 0.0
C272 C 0.54943 0.46441 0.77492 0.0
C273 C 0.58402 0.47941 0.74859 0.0
C274 C 0.51418 0.39921 0.74044 0.0
C275 C 0.51985 0.39235 0.72223 0.0
C276 C 0.49817 0.36387 0.71375 0.0
C277 C 0.47031 0.3416 0.72327 0.0
C278 C 0.46481 0.34838 0.74151 0.0
C279 C 0.48642 0.37678 0.74998 0.0
C280 C 0.54077 0.47132 0.7936 0.0
C281 C 0.51203 0.44915 0.80247 0.0
C282 C 0.50311 0.4556 0.81976 0.0
C283 C 0.52264 0.48438 0.82874 0.0
C284 C 0.55167 0.50642 0.82009 0.0
C285 C 0.56061 0.5 0.8027 0.0
C286 C 0.61342 0.50309 0.73853 0.0
C287 C 0.63096 0.53411 0.74507 0.0
C288 C 0.45077 0.10244 0.73657 0.0
C289 C 0.4575 0.12038 0.72017 0.0
C290 C 0.48882 0.13417 0.71259 0.0
C291 C 0.51266 0.12961 0.72112 0.0
H292 H 0.60796 0.1407 0.71432 0.0
H293 H 0.65717 0.14888 0.69848 0.0
H294 H 0.66913 0.09259 0.74052 0.0
H295 H 0.62061 0.08447 0.75626 0.0
H296 H 0.57863 0.06354 0.79262 0.0
H297 H 0.56591 0.03894 0.82344 0.0
H298 H 0.48494 0.05438 0.82782 0.0
H299 H 0.49764 0.07915 0.79709 0.0
H300 H 0.46817 0.08417 0.75779 0.0
H301 H 0.42706 0.09184 0.74292 0.0
H302 H 0.49471 0.14806 0.69993 0.0
H303 H 0.53644 0.14032 0.71486 0.0
N304 N 0.55841 0.11254 0.73797 0.0
N305 N 0.57362 0.09357 0.76394 0.0
N306 N 0.52484 0.09378 0.76441 0.0
C307 C 0.58008 0.10618 0.74642 0.0
C308 C 0.54618 0.08746 0.77311 0.0
C309 C 0.53057 0.10624 0.74689 0.0
C310 C 0.6101 0.11184 0.7366 0.0
C311 C 0.62109 0.13006 0.72017 0.0
C312 C 0.64936 0.13489 0.71113 0.0
C313 C 0.66693 0.12118 0.71815 0.0
C314 C 0.65596 0.10312 0.73457 0.0
C315 C 0.62812 0.09864 0.74369 0.0
C316 C 0.53913 0.0733 0.79221 0.0
C317 C 0.55818 0.06187 0.80015 0.0
C318 C 0.5508 0.04759 0.81782 0.0
C319 C 0.52434 0.04459 0.82814 0.0
C320 C 0.50567 0.05655 0.82038 0.0
C321 C 0.51287 0.07059 0.80264 0.0
C322 C 0.50581 0.11159 0.73757 0.0
C323 C 0.47455 0.09824 0.74518 0.0
C324 C 0.68504 0.56322 0.94898 0.0
C325 C 0.67411 0.54519 0.9654 0.0
C326 C 0.69167 0.53145 0.97241 0.0
C327 C 0.71991 0.53626 0.96334 0.0
H328 H 0.80439 0.52562 0.96837 0.0
H329 H 0.84612 0.51786 0.98328 0.0
H330 H 0.91406 0.57498 0.94064 0.0
H331 H 0.87294 0.58267 0.92579 0.0
H332 H 0.84374 0.58823 0.88649 0.0
H333 H 0.85619 0.61305 0.85577 0.0
H334 H 0.77398 0.6266 0.85999 0.0
H335 H 0.76154 0.602 0.89079 0.0
H336 H 0.72033 0.58184 0.92725 0.0
H337 H 0.67186 0.57376 0.94304 0.0
H338 H 0.68389 0.51748 0.98506 0.0
H339 H 0.73305 0.52562 0.96918 0.0
N340 N 0.78256 0.55378 0.94549 0.0
N341 N 0.8161 0.57265 0.91903 0.0
N342 N 0.76727 0.57276 0.91955 0.0
C343 C 0.81039 0.56015 0.93654 0.0
C344 C 0.7947 0.57894 0.91037 0.0
C345 C 0.76085 0.56012 0.93706 0.0
C346 C 0.83516 0.5548 0.94583 0.0
C347 C 0.82824 0.53652 0.96219 0.0
C348 C 0.85207 0.53195 0.97069 0.0
C349 C 0.88346 0.54598 0.96321 0.0
C350 C 0.89028 0.56419 0.94691 0.0
C351 C 0.8665 0.5684 0.93831 0.0
C352 C 0.80167 0.59315 0.89128 0.0
C353 C 0.82819 0.59639 0.8809 0.0
C354 C 0.83525 0.61046 0.86317 0.0
C355 C 0.81615 0.62191 0.85537 0.0
C356 C 0.78943 0.61838 0.86564 0.0
C357 C 0.78221 0.60409 0.88331 0.0
C358 C 0.73086 0.55447 0.9469 0.0
C359 C 0.71284 0.56767 0.93983 0.0
C360 C 0.44715 0.12321 0.93918 0.0
C361 C 0.45952 0.12913 0.95748 0.0
C362 C 0.46351 0.15594 0.96678 0.0
C363 C 0.45513 0.17624 0.95807 0.0
H364 H 0.4864 0.27678 0.95077 0.0
H365 H 0.50132 0.32677 0.96542 0.0
H366 H 0.40934 0.3164 0.94915 0.0
H367 H 0.39581 0.26766 0.93332 0.0
H368 H 0.39129 0.24037 0.8861 0.0
H369 H 0.36311 0.22837 0.85644 0.0
H370 H 0.35203 0.13576 0.85746 0.0
H371 H 0.38026 0.14757 0.88741 0.0
H372 H 0.42899 0.13813 0.91642 0.0
H373 H 0.44425 0.10302 0.9315 0.0
H374 H 0.47248 0.16096 0.98097 0.0
H375 H 0.45826 0.19648 0.96579 0.0
N376 N 0.44077 0.21921 0.93925 0.0
N377 N 0.41407 0.23039 0.91571 0.0
N378 N 0.41553 0.18344 0.9148 0.0
C379 C 0.43142 0.23867 0.93172 0.0
C380 C 0.40619 0.20293 0.90706 0.0
C381 C 0.43276 0.19146 0.93098 0.0
C382 C 0.44005 0.26855 0.9409 0.0
C383 C 0.46951 0.28537 0.95033 0.0
C384 C 0.47789 0.31392 0.95886 0.0
C385 C 0.45656 0.32584 0.95859 0.0
C386 C 0.42681 0.30854 0.94932 0.0
C387 C 0.41886 0.28044 0.94035 0.0
C388 C 0.38819 0.19496 0.88918 0.0
C389 C 0.38283 0.21735 0.88013 0.0
C390 C 0.3668 0.21059 0.86304 0.0
C391 C 0.35555 0.18122 0.8546 0.0
C392 C 0.36031 0.15854 0.86373 0.0
C393 C 0.37663 0.1654 0.88082 0.0
C394 C 0.44234 0.17014 0.93987 0.0
C395 C 0.43854 0.14343 0.93049 0.0
C396 C 0.87628 0.31694 0.94212 0.0
C397 C 0.87095 0.32417 0.96028 0.0
C398 C 0.84328 0.30206 0.97002 0.0
C399 C 0.82157 0.27333 0.96181 0.0
H400 H 0.73026 0.19339 0.96822 0.0
H401 H 0.68237 0.15398 0.98493 0.0
H402 H 0.67107 0.08427 0.94444 0.0
H403 H 0.71866 0.12327 0.9278 0.0
H404 H 0.76111 0.14429 0.89049 0.0
H405 H 0.77514 0.13296 0.85978 0.0
H406 H 0.85299 0.22874 0.85537 0.0
H407 H 0.83891 0.24025 0.8858 0.0
H408 H 0.85965 0.28365 0.91988 0.0
H409 H 0.89705 0.33361 0.93411 0.0
H410 H 0.83862 0.30676 0.98411 0.0
H411 H 0.80066 0.2568 0.96978 0.0
N412 N 0.77768 0.21366 0.94421 0.0
N413 N 0.76448 0.17875 0.91906 0.0
N414 N 0.81086 0.22838 0.91768 0.0
C415 C 0.75752 0.1853 0.93636 0.0
C416 C 0.79107 0.20025 0.90959 0.0
C417 C 0.80448 0.23533 0.93496 0.0
C418 C 0.72844 0.16157 0.94663 0.0
C419 C 0.71762 0.16964 0.9629 0.0
C420 C 0.69012 0.14713 0.97245 0.0
C421 C 0.6731 0.11599 0.96608 0.0
C422 C 0.68394 0.10796 0.94987 0.0
C423 C 0.71115 0.13044 0.94024 0.0
C424 C 0.79888 0.19318 0.89072 0.0
C425 C 0.78114 0.16299 0.88295 0.0
C426 C 0.78928 0.15643 0.86538 0.0
C427 C 0.81519 0.17994 0.85511 0.0
C428 C 0.83265 0.21017 0.86278 0.0
C429 C 0.82466 0.2167 0.88035 0.0
C430 C 0.82702 0.26603 0.94366 0.0
C431 C 0.85462 0.28828 0.93391 0.0
C432 C 0.56369 0.67961 0.07667 0.0
C433 C 0.55176 0.67379 0.0583 0.0
C434 C 0.54756 0.69667 0.04901 0.0
C435 C 0.5551 0.72473 0.05789 0.0
H436 H 0.55199 0.80433 0.05041 0.0
H437 H 0.53801 0.83991 0.03503 0.0
H438 H 0.56288 0.89632 0.08505 0.0
H439 H 0.57778 0.86115 0.10037 0.0
H440 H 0.62163 0.84995 0.13109 0.0
H441 H 0.6513 0.86296 0.16048 0.0
H442 H 0.64353 0.77163 0.16123 0.0
H443 H 0.61461 0.75881 0.13182 0.0
H444 H 0.58041 0.71138 0.09972 0.0
H445 H 0.56673 0.66224 0.08431 0.0
H446 H 0.53884 0.69308 0.03476 0.0
H447 H 0.55169 0.74188 0.05026 0.0
N448 N 0.56754 0.78073 0.07749 0.0
N449 N 0.59036 0.81548 0.10262 0.0
N450 N 0.59066 0.76795 0.10231 0.0
C451 C 0.57488 0.80822 0.08587 0.0
C452 C 0.59837 0.79541 0.11091 0.0
C453 C 0.57527 0.76045 0.08561 0.0
C454 C 0.56612 0.82989 0.07666 0.0
C455 C 0.55449 0.82428 0.0582 0.0
C456 C 0.54625 0.8446 0.04937 0.0
C457 C 0.54928 0.87094 0.05879 0.0
C458 C 0.56071 0.87647 0.0773 0.0
C459 C 0.56913 0.85623 0.08611 0.0
C460 C 0.61576 0.80336 0.129 0.0
C461 C 0.62624 0.83263 0.13752 0.0
C462 C 0.64315 0.84006 0.15441 0.0
C463 C 0.64995 0.8184 0.16315 0.0
C464 C 0.63925 0.78909 0.1547 0.0
C465 C 0.62242 0.78167 0.13785 0.0
C466 C 0.56715 0.73062 0.07625 0.0
C467 C 0.57137 0.70774 0.08554 0.0
C468 C 0.32383 0.89142 0.06777 0.0
C469 C 0.33458 0.88343 0.0515 0.0
C470 C 0.31755 0.85232 0.04511 0.0
C471 C 0.2901 0.82979 0.05469 0.0
H472 H 0.20759 0.74305 0.04755 0.0
H473 H 0.16989 0.69336 0.03289 0.0
H474 H 0.11074 0.66561 0.08262 0.0
H475 H 0.14793 0.71537 0.09718 0.0
H476 H 0.16834 0.75866 0.13152 0.0
H477 H 0.15403 0.76995 0.16196 0.0
H478 H 0.23205 0.8657 0.15791 0.0
H479 H 0.24631 0.85461 0.12721 0.0
H480 H 0.2892 0.87602 0.08991 0.0
H481 H 0.33673 0.91509 0.07322 0.0
H482 H 0.32522 0.84551 0.03259 0.0
H483 H 0.27744 0.80605 0.04933 0.0
N484 N 0.23014 0.78573 0.07328 0.0
N485 N 0.19673 0.77075 0.09971 0.0
N486 N 0.24313 0.82043 0.09853 0.0
C487 C 0.20328 0.76398 0.08243 0.0
C488 C 0.21645 0.79883 0.10791 0.0
C489 C 0.25022 0.81402 0.08122 0.0
C490 C 0.18087 0.73339 0.07357 0.0
C491 C 0.18659 0.72639 0.0554 0.0
C492 C 0.16502 0.6978 0.047 0.0
C493 C 0.13722 0.67552 0.05656 0.0
C494 C 0.13163 0.68243 0.07475 0.0
C495 C 0.15315 0.71096 0.08315 0.0
C496 C 0.20848 0.80574 0.12678 0.0
C497 C 0.18258 0.78216 0.13705 0.0
C498 C 0.17446 0.78855 0.15462 0.0
C499 C 0.19189 0.81871 0.1624 0.0
C500 C 0.21792 0.84229 0.15223 0.0
C501 C 0.2262 0.83586 0.13466 0.0
C502 C 0.27935 0.8378 0.071 0.0
C503 C 0.29667 0.8689 0.07743 0.0
C504 C 0.11807 0.43527 0.06821 0.0
C505 C 0.12506 0.45383 0.05207 0.0
C506 C 0.15657 0.46814 0.04473 0.0
C507 C 0.1804 0.46358 0.05327 0.0
H508 H 0.27619 0.47499 0.04716 0.0
H509 H 0.32543 0.48299 0.03148 0.0
H510 H 0.33659 0.42618 0.0735 0.0
H511 H 0.28801 0.41829 0.08913 0.0
H512 H 0.24961 0.40523 0.12799 0.0
H513 H 0.23559 0.38042 0.15879 0.0
H514 H 0.14639 0.38235 0.15768 0.0
H515 H 0.15997 0.40654 0.12694 0.0
H516 H 0.13523 0.41657 0.08927 0.0
H517 H 0.0942 0.42425 0.07438 0.0
H518 H 0.16265 0.48251 0.03225 0.0
H519 H 0.20437 0.47477 0.04725 0.0
N520 N 0.22613 0.44639 0.07035 0.0
N521 N 0.24116 0.42796 0.09671 0.0
N522 N 0.19214 0.4277 0.09659 0.0
C523 C 0.2478 0.44032 0.07911 0.0
C524 C 0.21345 0.42173 0.10561 0.0
C525 C 0.19809 0.43997 0.07904 0.0
C526 C 0.27793 0.44592 0.06945 0.0
C527 C 0.28916 0.46421 0.05305 0.0
C528 C 0.31744 0.46893 0.0441 0.0
C529 C 0.33479 0.45501 0.05115 0.0
C530 C 0.32359 0.43687 0.06753 0.0
C531 C 0.29574 0.43253 0.07659 0.0
C532 C 0.20588 0.40777 0.12478 0.0
C533 C 0.22704 0.40046 0.13431 0.0
C534 C 0.21908 0.38638 0.15207 0.0
C535 C 0.18973 0.37914 0.16073 0.0
C536 C 0.16894 0.38704 0.15135 0.0
C537 C 0.17687 0.40112 0.13367 0.0
C538 C 0.17332 0.44505 0.06952 0.0
C539 C 0.14181 0.43107 0.07684 0.0
C540 C 0.34937 0.89444 0.28238 0.0
C541 C 0.33842 0.87622 0.29874 0.0
C542 C 0.35589 0.86228 0.30557 0.0
C543 C 0.38403 0.86704 0.29641 0.0
H544 H 0.46882 0.85727 0.30174 0.0
H545 H 0.51068 0.84957 0.31655 0.0
H546 H 0.57715 0.90341 0.27251 0.0
H547 H 0.53596 0.91106 0.25778 0.0
H548 H 0.50695 0.91782 0.21926 0.0
H549 H 0.51987 0.94295 0.18865 0.0
H550 H 0.43946 0.95922 0.19331 0.0
H551 H 0.42653 0.93425 0.22403 0.0
H552 H 0.38459 0.91315 0.26061 0.0
H553 H 0.33627 0.90515 0.27657 0.0
H554 H 0.3481 0.84816 0.31817 0.0
H555 H 0.39708 0.85622 0.30212 0.0
N556 N 0.44646 0.88432 0.2784 0.0
N557 N 0.47984 0.90305 0.25189 0.0
N558 N 0.43131 0.90373 0.2526 0.0
C559 C 0.47415 0.89046 0.26937 0.0
C560 C 0.45862 0.90969 0.24333 0.0
C561 C 0.42489 0.89096 0.27008 0.0
C562 C 0.49887 0.88485 0.27853 0.0
C563 C 0.49235 0.86742 0.29521 0.0
C564 C 0.51626 0.86288 0.30366 0.0
C565 C 0.5473 0.87608 0.29576 0.0
C566 C 0.55365 0.89329 0.27909 0.0
C567 C 0.52982 0.8975 0.27057 0.0
C568 C 0.46572 0.92404 0.22428 0.0
C569 C 0.49188 0.92663 0.21379 0.0
C570 C 0.4992 0.94088 0.19612 0.0
C571 C 0.48076 0.95318 0.18847 0.0
C572 C 0.4544 0.95031 0.19884 0.0
C573 C 0.44689 0.93581 0.21646 0.0
C574 C 0.395 0.88542 0.28003 0.0
C575 C 0.37709 0.89885 0.27313 0.0
C576 C 0.09878 0.45044 0.27803 0.0
C577 C 0.12693 0.46271 0.28901 0.0
C578 C 0.14608 0.49548 0.29074 0.0
C579 C 0.13697 0.51533 0.28209 0.0
H580 H 0.15272 0.60979 0.28242 0.0
H581 H 0.16734 0.65947 0.29747 0.0
H582 H 0.07427 0.64778 0.28259 0.0
H583 H 0.06095 0.59941 0.26643 0.0
H584 H 0.05315 0.57139 0.21955 0.0
H585 H 0.02506 0.55952 0.18984 0.0
H586 H 0.01554 0.46753 0.19025 0.0
H587 H 0.04371 0.47922 0.22021 0.0
H588 H 0.06806 0.46011 0.26092 0.0
H589 H 0.08296 0.42538 0.27664 0.0
H590 H 0.16827 0.50594 0.29868 0.0
H591 H 0.15211 0.54044 0.28386 0.0
N592 N 0.1074 0.55202 0.27095 0.0
N593 N 0.07834 0.56226 0.24844 0.0
N594 N 0.07968 0.51529 0.24727 0.0
C595 C 0.09711 0.57109 0.26392 0.0
C596 C 0.06975 0.53455 0.23989 0.0
C597 C 0.09856 0.52398 0.26281 0.0
C598 C 0.10581 0.60095 0.27321 0.0
C599 C 0.13554 0.61805 0.28235 0.0
C600 C 0.14376 0.64641 0.29111 0.0
C601 C 0.12203 0.65786 0.29134 0.0
C602 C 0.09204 0.6403 0.28236 0.0
C603 C 0.08423 0.6124 0.27318 0.0
C604 C 0.05091 0.52632 0.2223 0.0
C605 C 0.04498 0.54851 0.21345 0.0
C606 C 0.02901 0.54182 0.19634 0.0
C607 C 0.01835 0.51271 0.18767 0.0
C608 C 0.0234 0.49012 0.19667 0.0
C609 C 0.03966 0.49691 0.21379 0.0
C610 C 0.10886 0.50295 0.27119 0.0
C611 C 0.09007 0.47034 0.26906 0.0
C612 C 0.54619 0.64531 0.27902 0.0
C613 C 0.53635 0.65686 0.29411 0.0
C614 C 0.50436 0.63899 0.30058 0.0
C615 C 0.48291 0.61029 0.29227 0.0
H616 H 0.39563 0.52669 0.30108 0.0
H617 H 0.34801 0.48704 0.31785 0.0
H618 H 0.33656 0.41775 0.27701 0.0
H619 H 0.38391 0.45699 0.26031 0.0
H620 H 0.42725 0.47806 0.22338 0.0
H621 H 0.44158 0.46705 0.19267 0.0
H622 H 0.52026 0.56253 0.18899 0.0
H623 H 0.50592 0.57374 0.21943 0.0
H624 H 0.53323 0.60872 0.25905 0.0
H625 H 0.57074 0.65799 0.27387 0.0
H626 H 0.49569 0.64732 0.31195 0.0
H627 H 0.45847 0.59718 0.29758 0.0
N628 N 0.44305 0.54709 0.27718 0.0
N629 N 0.43031 0.51233 0.25199 0.0
N630 N 0.47717 0.56165 0.25106 0.0
C631 C 0.42296 0.51885 0.26919 0.0
C632 C 0.45731 0.53371 0.24278 0.0
C633 C 0.47029 0.56856 0.26821 0.0
C634 C 0.39374 0.49509 0.27932 0.0
C635 C 0.383 0.50299 0.29568 0.0
C636 C 0.35566 0.48035 0.30527 0.0
C637 C 0.33873 0.44925 0.29884 0.0
C638 C 0.3494 0.44141 0.28249 0.0
C639 C 0.37646 0.46402 0.27282 0.0
C640 C 0.46542 0.52679 0.22398 0.0
C641 C 0.44753 0.49676 0.21601 0.0
C642 C 0.45583 0.49038 0.19844 0.0
C643 C 0.48204 0.51392 0.18837 0.0
C644 C 0.49968 0.54397 0.19625 0.0
C645 C 0.49155 0.55031 0.21382 0.0
C646 C 0.4928 0.59895 0.27712 0.0
C647 C 0.52466 0.61687 0.27057 0.0
Gd648 Gd 0.51857 0.02397 0.02991 0.0
Gd649 Gd 0.48853 0.97538 0.98695 0.0
C650 C 0.39029 0.88581 0.98407 0.0
C651 C 0.40535 0.84566 0.98053 0.0
C652 C 0.44667 0.90068 0.9824 0.0
C653 C 0.42322 0.90898 0.98435 0.0
C654 C 0.43805 0.86899 0.9801 0.0
C655 C 0.3815 0.85406 0.98253 0.0
C656 C 0.36722 0.89532 0.98489 0.0
C657 C 0.37725 0.92726 0.9853 0.0
N658 N 0.43262 0.93987 0.98569 0.0
C659 C 0.41022 0.94935 0.98542 0.0
H660 H 0.41755 0.97391 0.98584 0.0
C661 C 0.50183 0.91713 0.97807 0.0
N662 N 0.47794 0.92383 0.98194 0.0
C663 C 0.49454 0.88604 0.97579 0.0
C664 C 0.46253 0.86181 0.97701 0.0
H665 H 0.52665 0.93572 0.97723 0.0
H666 H 0.35633 0.8359 0.98246 0.0
H667 H 0.58952 0.02532 0.03127 0.0
H668 H 0.34167 0.87826 0.98479 0.0
H669 H 0.35963 0.93492 0.9856 0.0
H670 H 0.39823 0.82114 0.97894 0.0
H671 H 0.48046 0.06376 0.03929 0.0
H672 H 0.66547 0.12091 0.03257 0.0
H673 H 0.64744 0.06424 0.03173 0.0
H674 H 0.60901 0.17817 0.03805 0.0
H675 H 0.51361 0.88079 0.97312 0.0
H676 H 0.45693 0.83775 0.97518 0.0
H677 H 0.65088 0.16333 0.03478 0.0
H678 H 0.49355 0.11872 0.04332 0.0
N679 N 0.57449 0.05941 0.03136 0.0
C680 C 0.63992 0.10388 0.03238 0.0
C681 C 0.62984 0.07193 0.03196 0.0
C682 C 0.61687 0.11343 0.0331 0.0
C683 C 0.58393 0.0903 0.03271 0.0
C684 C 0.59686 0.04989 0.03172 0.0
N685 N 0.52921 0.07554 0.03486 0.0
C686 C 0.5605 0.09865 0.03452 0.0
C687 C 0.51262 0.11341 0.04079 0.0
C688 C 0.54467 0.1376 0.03971 0.0
C689 C 0.5053 0.08231 0.03855 0.0
C690 C 0.56915 0.13036 0.03679 0.0
H691 H 0.5503 0.16168 0.0415 0.0
O692 O 0.4939 0.01668 0.05654 0.0
O693 O 0.47845 0.98217 0.01632 0.0
O694 O 0.47423 0.01294 0.98881 0.0
O695 O 0.51253 0.05297 0.00759 0.0
O696 O 0.46568 0.00824 0.03307 0.0
O697 O 0.53605 0.01141 0.05468 0.0
O698 O 0.513 0.98268 0.96025 0.0
O699 O 0.52862 0.01704 1.00059 0.0
O700 O 0.53297 0.98648 0.02806 0.0
O701 O 0.49495 0.94644 0.00915 0.0
O702 O 0.54148 0.9913 0.98364 0.0
O703 O 0.47075 0.98777 0.96226 0.0
C704 C 0.45465 0.98338 0.02294 0.0
C705 C 0.60187 0.15365 0.03649 0.0
C706 C 0.6257 0.1452 0.03462 0.0
C707 C 0.51399 0.01095 0.0656 0.0
C708 C 0.52463 0.02608 0.08398 0.0
C709 C 0.54548 0.05852 0.0853 0.0
C710 C 0.51308 0.00795 0.10042 0.0
C711 C 0.52199 0.02223 0.11817 0.0
C712 C 0.55459 0.07279 0.10279 0.0
C713 C 0.54292 0.05489 0.1191 0.0
C714 C 0.49023 0.0426 0.99436 0.0
C715 C 0.55246 0.016 0.99391 0.0
C716 C 0.49273 0.98824 0.95125 0.0
C717 C 0.48188 0.97292 0.93294 0.0
C718 C 0.4611 0.94044 0.93176 0.0
C719 C 0.49315 0.99087 0.91642 0.0
C720 C 0.48404 0.97638 0.89873 0.0
C721 C 0.45178 0.92597 0.91433 0.0
C722 C 0.46318 0.9437 0.89795 0.0
C723 C 0.51724 0.95687 0.02239 0.0
H724 H 0.55456 0.07279 0.07282 0.0
H725 H 0.4967 0.98289 0.09937 0.0
H726 H 0.57073 0.09786 0.10373 0.0
H727 H 0.55062 0.06659 0.13247 0.0
H728 H 0.45221 0.9263 0.94429 0.0
H729 H 0.50947 0.01595 0.91736 0.0
H730 H 0.4357 0.90088 0.91351 0.0
H731 H 0.45535 0.93185 0.88463 0.0
Gd732 Gd 0.97719 0.4911 0.0283 0.0
Gd733 Gd 0.03145 0.50937 0.9876 0.0
C734 C 0.1232 0.50268 0.98988 0.0
C735 C 0.16511 0.5574 0.98735 0.0
C736 C 0.10856 0.54298 0.98663 0.0
C737 C 0.09956 0.51176 0.98877 0.0
C738 C 0.14142 0.56612 0.98543 0.0
C739 C 0.15601 0.52573 0.9896 0.0
C740 C 0.11314 0.47068 0.99079 0.0
C741 C 0.08028 0.44866 0.98994 0.0
N742 N 0.06765 0.49012 0.98889 0.0
C743 C 0.05776 0.45883 0.98874 0.0
H744 H 0.03247 0.44152 0.98822 0.0
C745 C 0.09265 0.58042 0.98007 0.0
N746 N 0.08506 0.55051 0.98464 0.0
C747 C 0.12491 0.60425 0.97886 0.0
C748 C 0.14942 0.59715 0.98179 0.0
H749 H 0.07378 0.58605 0.9779 0.0
H750 H 0.17451 0.51925 0.99065 0.0
H751 H 0.97595 0.55884 0.02742 0.0
H752 H 0.13052 0.46274 0.99174 0.0
H753 H 0.07226 0.42383 0.99031 0.0
H754 H 0.1905 0.57487 0.98667 0.0
H755 H 0.93507 0.41449 0.03822 0.0
H756 H 0.8778 0.53732 0.02393 0.0
H757 H 0.93604 0.57636 0.02521 0.0
H758 H 0.81811 0.42525 0.02946 0.0
H759 H 0.13083 0.62805 0.97569 0.0
H760 H 0.17439 0.61562 0.98078 0.0
H761 H 0.83392 0.48079 0.02526 0.0
H762 H 0.87807 0.37241 0.04057 0.0
N763 N 0.94086 0.51021 0.02695 0.0
C764 C 0.89524 0.52946 0.02493 0.0
C765 C 0.92808 0.55156 0.0257 0.0
C766 C 0.88527 0.49749 0.02598 0.0
C767 C 0.90898 0.48851 0.02715 0.0
C768 C 0.95067 0.54148 0.02696 0.0
N769 N 0.92364 0.4499 0.0314 0.0
C770 C 0.90007 0.45733 0.02941 0.0
C771 C 0.88392 0.39617 0.03734 0.0
C772 C 0.85933 0.40317 0.0344 0.0
C773 C 0.91614 0.42004 0.03605 0.0
C774 C 0.86724 0.43414 0.03068 0.0
H775 H 0.83439 0.38466 0.03548 0.0
O776 O 0.98044 0.47417 0.05574 0.0
O777 O 0.02181 0.49394 0.01711 0.0
O778 O 0.99198 0.45774 0.98869 0.0
O779 O 0.94959 0.4558 1.00593 0.0
O780 O 0.99391 0.45611 0.03405 0.0
O781 O 0.98477 0.52001 0.05279 0.0
O782 O 0.02872 0.52662 0.96017 0.0
O783 O 0.98686 0.50654 0.99878 0.0
O784 O 0.01651 0.54273 0.02715 0.0
O785 O 0.05899 0.54461 0.01005 0.0
O786 O 0.0147 0.54433 0.98183 0.0
O787 O 0.02362 0.48045 0.96309 0.0
C788 C 0.02042 0.47014 0.02466 0.0
C789 C 0.84348 0.44275 0.02872 0.0
C790 C 0.85248 0.47438 0.02635 0.0
C791 C 0.98311 0.49868 0.06431 0.0
C792 C 0.96281 0.49224 0.08095 0.0
C793 C 0.92946 0.48022 0.07946 0.0
C794 C 0.97699 0.49717 0.09866 0.0
C795 C 0.95805 0.48992 0.11492 0.0
C796 C 0.91046 0.47289 0.09554 0.0
C797 C 0.92459 0.47757 0.1132 0.0
C798 C 0.96107 0.4438 0.99363 0.0
C799 C 0.98817 0.53029 0.9912 0.0
C800 C 0.02574 0.50199 0.95158 0.0
C801 C 0.04615 0.50821 0.93501 0.0
C802 C 0.07948 0.52019 0.9366 0.0
C803 C 0.03209 0.50307 0.91726 0.0
C804 C 0.05114 0.51006 0.90106 0.0
C805 C 0.09858 0.52726 0.92058 0.0
C806 C 0.08457 0.52237 0.90288 0.0
C807 C 0.04745 0.55661 0.02232 0.0
H808 H 0.91812 0.47636 0.06595 0.0
H809 H 1.00275 0.50616 0.09975 0.0
H810 H 0.88472 0.46356 0.09432 0.0
H811 H 0.90946 0.47199 0.12549 0.0
H812 H 0.09072 0.52422 0.95015 0.0
H813 H 0.00635 0.49411 0.91608 0.0
H814 H 0.1243 0.53656 0.92189 0.0
H815 H 0.09978 0.52775 0.89064 0.0
Gd816 Gd 0.48989 0.51048 0.98738 0.0
Gd817 Gd 0.51947 0.4902 0.02988 0.0
C818 C 0.61611 0.4926 0.032 0.0
C819 C 0.59936 0.43767 0.037 0.0
C820 C 0.55936 0.45423 0.03479 0.0
C821 C 0.58347 0.48484 0.03198 0.0
C822 C 0.56702 0.43039 0.03786 0.0
C823 C 0.62388 0.46873 0.03403 0.0
C824 C 0.63996 0.5242 0.0306 0.0
C825 C 0.63099 0.54718 0.03004 0.0
N826 N 0.57508 0.50731 0.03039 0.0
C827 C 0.59828 0.5383 0.03028 0.0
H828 H 0.59177 0.55633 0.02977 0.0
C829 C 0.50423 0.41917 0.041 0.0
N830 N 0.52848 0.44815 0.03571 0.0
C831 C 0.5106 0.39472 0.04421 0.0
C832 C 0.54207 0.40023 0.04234 0.0
H833 H 0.47982 0.41467 0.04237 0.0
H834 H 0.64879 0.47418 0.03389 0.0
H835 H 0.41883 0.44294 0.98599 0.0
H836 H 0.6653 0.53115 0.03048 0.0
H837 H 0.64924 0.57175 0.02938 0.0
H838 H 0.60573 0.41963 0.03913 0.0
H839 H 0.52799 0.5874 0.97835 0.0
H840 H 0.34306 0.46506 0.98608 0.0
H841 H 0.36093 0.42576 0.98606 0.0
H842 H 0.39964 0.57728 0.98149 0.0
H843 H 0.49122 0.37164 0.04804 0.0
H844 H 0.54695 0.38127 0.04486 0.0
H845 H 0.35775 0.52173 0.98457 0.0
H846 H 0.51493 0.62985 0.97501 0.0
N847 N 0.43397 0.49165 0.98646 0.0
C848 C 0.36859 0.47278 0.98604 0.0
C849 C 0.37859 0.45054 0.98598 0.0
C850 C 0.39169 0.50472 0.98551 0.0
C851 C 0.42462 0.5135 0.98559 0.0
C852 C 0.41154 0.46043 0.98593 0.0
N853 N 0.47937 0.55195 0.98324 0.0
C854 C 0.44808 0.54468 0.98394 0.0
C855 C 0.4959 0.60601 0.97759 0.0
C856 C 0.46391 0.59912 0.97914 0.0
C857 C 0.50321 0.58193 0.97943 0.0
C858 C 0.43946 0.56807 0.98207 0.0
H859 H 0.45829 0.61779 0.97765 0.0
O860 O 0.51349 0.52861 0.96065 0.0
O861 O 0.52971 0.50612 1.0003 0.0
O862 O 0.53531 0.54207 0.02793 0.0
O863 O 0.49662 0.54517 0.00976 0.0
O864 O 0.54306 0.54515 0.9839 0.0
O865 O 0.47151 0.4821 0.96235 0.0
O866 O 0.49526 0.47526 0.05672 0.0
O867 O 0.4796 0.49417 0.01675 0.0
O868 O 0.47542 0.45888 0.98852 0.0
O869 O 0.5114 0.45378 0.00833 0.0
O870 O 0.4662 0.45559 0.03344 0.0
O871 O 0.53974 0.51967 0.05437 0.0
C872 C 0.55376 0.53015 0.99355 0.0
C873 C 0.40676 0.55962 0.98273 0.0
C874 C 0.38291 0.52799 0.98447 0.0
C875 C 0.49284 0.50384 0.95144 0.0
C876 C 0.48088 0.50962 0.93384 0.0
C877 C 0.45892 0.5206 0.93387 0.0
C878 C 0.49183 0.50429 0.91676 0.0
C879 C 0.48082 0.50972 0.89967 0.0
C880 C 0.44801 0.5262 0.91702 0.0
C881 C 0.45881 0.52082 0.90003 0.0
C882 C 0.5195 0.5565 0.02261 0.0
C883 C 0.45546 0.47018 0.02344 0.0
C884 C 0.51744 0.49958 0.06556 0.0
C885 C 0.52826 0.49307 0.08336 0.0
C886 C 0.54979 0.48159 0.08374 0.0
C887 C 0.51614 0.49769 0.1002 0.0
C888 C 0.52532 0.49076 0.11746 0.0
C889 C 0.559 0.47462 0.10077 0.0
C890 C 0.54685 0.4791 0.11754 0.0
C891 C 0.48999 0.44361 0.99461 0.0
H892 H 0.45025 0.52483 0.94687 0.0
H893 H 0.50854 0.49544 0.91682 0.0
H894 H 0.43112 0.53479 0.91711 0.0
H895 H 0.45017 0.52564 0.88716 0.0
H896 H 0.55942 0.47797 0.07091 0.0
H897 H 0.4992 0.50625 0.09982 0.0
H898 H 0.57566 0.46578 0.10099 0.0
H899 H 0.5547 0.4739 0.13057 0.0
Gd900 Gd 0.18419 0.3564 0.36316 0.0
Gd901 Gd 0.15591 0.30906 0.31964 0.0
C902 C 0.05535 0.22232 0.31648 0.0
C903 C 0.06781 0.18066 0.3115 0.0
C904 C 0.11095 0.23485 0.31413 0.0
C905 C 0.08864 0.2444 0.31679 0.0
C906 C 0.10084 0.20302 0.31081 0.0
C907 C 0.04508 0.1903 0.31439 0.0
C908 C 0.03342 0.23322 0.31759 0.0
C909 C 0.04492 0.26545 0.31805 0.0
N910 N 0.09948 0.27555 0.31838 0.0
C911 C 0.07818 0.28641 0.31809 0.0
H912 H 0.08658 0.31121 0.31851 0.0
C913 C 0.16512 0.24963 0.30769 0.0
N914 N 0.14253 0.25711 0.31335 0.0
C915 C 0.15633 0.21837 0.30423 0.0
C916 C 0.12411 0.19486 0.30615 0.0
H917 H 0.19009 0.26772 0.30634 0.0
H918 H 0.01963 0.17295 0.31433 0.0
H919 H 0.25357 0.35454 0.36449 0.0
H920 H 0.00766 0.21704 0.31748 0.0
H921 H 0.02818 0.2742 0.31842 0.0
H922 H 0.05955 0.15603 0.30922 0.0
H923 H 0.1491 0.39767 0.37511 0.0
H924 H 0.33219 0.44885 0.36628 0.0
H925 H 0.31195 0.39176 0.36503 0.0
H926 H 0.27968 0.50944 0.37389 0.0
H927 H 0.17442 0.21243 0.30018 0.0
H928 H 0.11734 0.17068 0.30343 0.0
H929 H 0.3199 0.49273 0.36934 0.0
H930 H 0.16443 0.45289 0.3811 0.0
N931 N 0.24049 0.39006 0.36469 0.0
C932 C 0.30645 0.43259 0.36598 0.0
C933 C 0.29511 0.40039 0.36533 0.0
C934 C 0.28438 0.44334 0.36694 0.0
C935 C 0.25114 0.42117 0.36638 0.0
C936 C 0.26188 0.37932 0.36504 0.0
N937 N 0.19704 0.40829 0.36914 0.0
C938 C 0.22864 0.4306 0.36873 0.0
C939 C 0.18273 0.44698 0.37751 0.0
C940 C 0.21504 0.4705 0.3761 0.0
C941 C 0.17413 0.41575 0.37414 0.0
C942 C 0.23855 0.4624 0.37197 0.0
H943 H 0.22166 0.49466 0.37874 0.0
O944 O 0.15848 0.34929 0.38946 0.0
O945 O 0.1446 0.31494 0.34898 0.0
O946 O 0.14347 0.34793 0.3207 0.0
O947 O 0.17831 0.38669 0.34153 0.0
O948 O 0.13152 0.34167 0.36499 0.0
O949 O 0.20025 0.34344 0.38829 0.0
O950 O 0.18175 0.31674 0.29332 0.0
O951 O 0.19549 0.35026 0.33392 0.0
O952 O 0.19649 0.3174 0.36245 0.0
O953 O 0.16321 0.27908 0.3408 0.0
O954 O 0.20866 0.32391 0.31767 0.0
O955 O 0.13972 0.32209 0.29458 0.0
C956 C 0.12073 0.3166 0.35505 0.0
C957 C 0.27157 0.48483 0.37164 0.0
C958 C 0.29447 0.47531 0.36907 0.0
C959 C 0.17804 0.3433 0.3989 0.0
C960 C 0.18858 0.35862 0.41726 0.0
C961 C 0.20899 0.39116 0.41843 0.0
C962 C 0.17838 0.34053 0.43379 0.0
C963 C 0.18878 0.3549 0.45145 0.0
C964 C 0.21909 0.40556 0.43581 0.0
C965 C 0.20913 0.38768 0.45218 0.0
C966 C 0.15831 0.37714 0.32707 0.0
C967 C 0.21943 0.34877 0.32781 0.0
C968 C 0.162 0.3225 0.28393 0.0
C969 C 0.1515 0.30711 0.26559 0.0
C970 C 0.13104 0.27457 0.26446 0.0
C971 C 0.1618 0.32512 0.24905 0.0
C972 C 0.15149 0.31069 0.2314 0.0
C973 C 0.12104 0.26009 0.24709 0.0
C974 C 0.13112 0.27791 0.2307 0.0
C975 C 0.18275 0.28859 0.35548 0.0
H976 H 0.21716 0.4054 0.40592 0.0
H977 H 0.1629 0.31532 0.43285 0.0
H978 H 0.23475 0.43073 0.43661 0.0
H979 H 0.21718 0.39961 0.46546 0.0
H980 H 0.12276 0.26038 0.27698 0.0
H981 H 0.1773 0.35034 0.24996 0.0
H982 H 0.10536 0.23493 0.24632 0.0
H983 H 0.12314 0.26593 0.21743 0.0
Gd984 Gd 0.64332 0.82525 0.36252 0.0
Gd985 Gd 0.69609 0.84172 0.32126 0.0
C986 C 0.78626 0.83238 0.3231 0.0
C987 C 0.82911 0.88664 0.32003 0.0
C988 C 0.77295 0.87359 0.31972 0.0
C989 C 0.7632 0.84221 0.32208 0.0
C990 C 0.80598 0.8961 0.3182 0.0
C991 C 0.81926 0.85483 0.3225 0.0
C992 C 0.77544 0.80023 0.32424 0.0
C993 C 0.74239 0.77879 0.3237 0.0
N994 N 0.73112 0.82114 0.32251 0.0
C995 C 0.72046 0.78968 0.32258 0.0
H996 H 0.69501 0.77283 0.3223 0.0
C997 C 0.75823 0.91188 0.31306 0.0
N998 N 0.74999 0.88188 0.31785 0.0
C999 C 0.79069 0.9351 0.31152 0.0
C1000 C 0.8147 0.92726 0.31435 0.0
H1001 H 0.73971 0.91803 0.31097 0.0
H1002 H 0.83733 0.84776 0.32348 0.0
H1003 H 0.64392 0.89399 0.35968 0.0
H1004 H 0.79236 0.79173 0.32513 0.0
H1005 H 0.73378 0.75385 0.32424 0.0
H1006 H 0.85462 0.90362 0.3191 0.0
H1007 H 0.60049 0.75176 0.37787 0.0
H1008 H 0.54655 0.87468 0.35613 0.0
H1009 H 0.60513 0.91266 0.35659 0.0
H1010 H 0.48472 0.76373 0.36658 0.0
H1011 H 0.79716 0.959 0.30819 0.0
H1012 H 0.83982 0.94527 0.31309 0.0
H1013 H 0.50168 0.81884 0.35948 0.0
H1014 H 0.54333 0.71124 0.38259 0.0
N1015 N 0.60795 0.84559 0.36039 0.0
C1016 C 0.56352 0.86629 0.35749 0.0
C1017 C 0.59654 0.88779 0.3578 0.0
C1018 C 0.55278 0.8343 0.35964 0.0
C1019 C 0.5759 0.82463 0.36124 0.0
C1020 C 0.61852 0.87702 0.35958 0.0
N1021 N 0.58953 0.78601 0.3678 0.0
C1022 C 0.56636 0.79373 0.36504 0.0
C1023 C 0.54943 0.73429 0.3775 0.0
C1024 C 0.52512 0.74125 0.37351 0.0
C1025 C 0.58174 0.75727 0.37485 0.0
C1026 C 0.53345 0.7715 0.36758 0.0
H1027 H 0.50012 0.72348 0.37566 0.0
O1028 O 0.64863 0.81055 0.39027 0.0
O1029 O 0.68723 0.82714 0.35091 0.0
O1030 O 0.65582 0.79063 0.322 0.0
O1031 O 0.61501 0.78577 0.34236 0.0
O1032 O 0.65979 0.79019 0.36854 0.0
O1033 O 0.65308 0.85618 0.38623 0.0
O1034 O 0.69412 0.85948 0.29384 0.0
O1035 O 0.65139 0.83873 0.33254 0.0
O1036 O 0.68284 0.87661 0.3603 0.0
O1037 O 0.7247 0.8773 0.34331 0.0
O1038 O 0.6795 0.8767 0.31563 0.0
O1039 O 0.6875 0.81267 0.29677 0.0
C1040 C 0.68583 0.80349 0.35869 0.0
C1041 C 0.51016 0.78055 0.36493 0.0
C1042 C 0.51981 0.81193 0.36092 0.0
C1043 C 0.65192 0.83571 0.39825 0.0
C1044 C 0.63239 0.83063 0.41508 0.0
C1045 C 0.59986 0.82238 0.41387 0.0
C1046 C 0.64652 0.83357 0.43263 0.0
C1047 C 0.62835 0.82825 0.44908 0.0
C1048 C 0.58159 0.81694 0.4301 0.0
C1049 C 0.59567 0.81982 0.44762 0.0
C1050 C 0.62597 0.77524 0.32879 0.0
C1051 C 0.65275 0.86241 0.3248 0.0
C1052 C 0.69024 0.83447 0.28527 0.0
C1053 C 0.71022 0.83992 0.26861 0.0
C1054 C 0.74293 0.84894 0.27002 0.0
C1055 C 0.69622 0.8364 0.25095 0.0
C1056 C 0.71468 0.84192 0.23462 0.0
C1057 C 0.76148 0.85451 0.2539 0.0
C1058 C 0.74752 0.85105 0.23628 0.0
C1059 C 0.71369 0.88995 0.35543 0.0
H1060 H 0.58861 0.82016 0.40045 0.0
H1061 H 0.67184 0.84047 0.43344 0.0
H1062 H 0.55645 0.81044 0.4291 0.0
H1063 H 0.58094 0.81522 0.46 0.0
H1064 H 0.75409 0.85166 0.28351 0.0
H1065 H 0.67077 0.82892 0.24999 0.0
H1066 H 0.78676 0.86158 0.25506 0.0
H1067 H 0.76248 0.85579 0.22399 0.0
Gd1068 Gd 0.15441 0.84157 0.32114 0.0
Gd1069 Gd 0.1839 0.82121 0.36362 0.0
C1070 C 0.28078 0.82409 0.36548 0.0
C1071 C 0.26429 0.76914 0.37013 0.0
C1072 C 0.22409 0.78548 0.36818 0.0
C1073 C 0.2481 0.81618 0.36552 0.0
C1074 C 0.2319 0.7617 0.37104 0.0
C1075 C 0.2887 0.80029 0.36731 0.0
C1076 C 0.30452 0.85575 0.36422 0.0
C1077 C 0.2954 0.87862 0.36383 0.0
N1078 N 0.23956 0.83856 0.36411 0.0
C1079 C 0.26265 0.86959 0.3641 0.0
H1080 H 0.25603 0.88755 0.36372 0.0
C1081 C 0.16899 0.75011 0.37427 0.0
N1082 N 0.19316 0.77924 0.36916 0.0
C1083 C 0.17549 0.72571 0.37726 0.0
C1084 C 0.20703 0.7314 0.37536 0.0
H1085 H 0.14453 0.74549 0.37564 0.0
H1086 H 0.31365 0.80586 0.36712 0.0
H1087 H 0.08299 0.77444 0.32004 0.0
H1088 H 0.32989 0.86281 0.36406 0.0
H1089 H 0.31356 0.90323 0.36326 0.0
H1090 H 0.27077 0.75114 0.3721 0.0
H1091 H 0.19323 0.91845 0.31183 0.0
H1092 H 0.0079 0.79752 0.31976 0.0
H1093 H 0.02521 0.7578 0.32007 0.0
H1094 H 0.06548 0.90968 0.31458 0.0
H1095 H 0.15618 0.70252 0.38095 0.0
H1096 H 0.21202 0.71248 0.3777 0.0
H1097 H 0.02318 0.85432 0.31789 0.0
H1098 H 0.18072 0.96121 0.30821 0.0
N1099 N 0.09861 0.82326 0.32021 0.0
C1100 C 0.03339 0.805 0.31974 0.0
C1101 C 0.04306 0.78252 0.31987 0.0
C1102 C 0.05672 0.83685 0.31905 0.0
C1103 C 0.08956 0.84532 0.31916 0.0
C1104 C 0.07594 0.7921 0.31984 0.0
N1105 N 0.14445 0.88335 0.31673 0.0
C1106 C 0.11326 0.87638 0.31736 0.0
C1107 C 0.16152 0.93747 0.31085 0.0
C1108 C 0.12963 0.9309 0.31231 0.0
C1109 C 0.16851 0.91321 0.31285 0.0
C1110 C 0.10495 0.89998 0.31534 0.0
H1111 H 0.12426 0.94972 0.3107 0.0
O1112 O 0.17861 0.85894 0.29449 0.0
O1113 O 0.19422 0.83713 0.33407 0.0
O1114 O 0.19956 0.8731 0.3618 0.0
O1115 O 0.16121 0.87644 0.34341 0.0
O1116 O 0.2076 0.87624 0.31774 0.0
O1117 O 0.13538 0.8133 0.2961 0.0
O1118 O 0.16029 0.8055 0.3906 0.0
O1119 O 0.14407 0.82527 0.35053 0.0
O1120 O 0.13955 0.78988 0.3224 0.0
O1121 O 0.17593 0.78498 0.34193 0.0
O1122 O 0.13061 0.7867 0.36724 0.0
O1123 O 0.20359 0.85086 0.38809 0.0
C1124 C 0.2183 0.86122 0.32737 0.0
C1125 C 0.07235 0.89186 0.31594 0.0
C1126 C 0.04827 0.86034 0.31782 0.0
C1127 C 0.15743 0.8345 0.28525 0.0
C1128 C 0.1465 0.8409 0.26746 0.0
C1129 C 0.12526 0.85273 0.2671 0.0
C1130 C 0.15823 0.83583 0.2506 0.0
C1131 C 0.14899 0.84266 0.23333 0.0
C1132 C 0.11594 0.85954 0.25005 0.0
C1133 C 0.12771 0.85462 0.23327 0.0
C1134 C 0.18397 0.88769 0.35632 0.0
C1135 C 0.1199 0.80135 0.35726 0.0
C1136 C 0.18196 0.83024 0.39938 0.0
C1137 C 0.19379 0.82442 0.41703 0.0
C1138 C 0.216 0.81373 0.41704 0.0
C1139 C 0.18252 0.82942 0.43409 0.0
C1140 C 0.19348 0.82396 0.45119 0.0
C1141 C 0.2268 0.80804 0.4339 0.0
C1142 C 0.21569 0.81311 0.45087 0.0
C1143 C 0.15437 0.77474 0.32828 0.0
H1144 H 0.116 0.85678 0.27995 0.0
H1145 H 0.17497 0.82703 0.25098 0.0
H1146 H 0.0995 0.86864 0.24983 0.0
H1147 H 0.11979 0.85975 0.22024 0.0
H1148 H 0.22497 0.80981 0.40406 0.0
H1149 H 0.16563 0.83805 0.43401 0.0
H1150 H 0.24386 0.79967 0.43382 0.0
H1151 H 0.22429 0.80827 0.46374 0.0
Gd1152 Gd 0.85149 0.68947 0.6964 0.0
Gd1153 Gd 0.82199 0.64103 0.65341 0.0
C1154 C 0.72348 0.55169 0.65048 0.0
C1155 C 0.73828 0.51161 0.64563 0.0
C1156 C 0.77975 0.56649 0.6481 0.0
C1157 C 0.75644 0.57478 0.65071 0.0
C1158 C 0.77099 0.53492 0.64503 0.0
C1159 C 0.71455 0.51998 0.6484 0.0
C1160 C 0.7005 0.56126 0.65175 0.0
C1161 C 0.71065 0.59322 0.65241 0.0
N1162 N 0.76598 0.60565 0.65238 0.0
C1163 C 0.74365 0.61523 0.65239 0.0
H1164 H 0.75103 0.63979 0.65297 0.0
C1165 C 0.83465 0.58317 0.64251 0.0
N1166 N 0.811 0.58964 0.64745 0.0
C1167 C 0.8272 0.55221 0.63931 0.0
C1168 C 0.79527 0.5279 0.64086 0.0
H1169 H 0.85941 0.6018 0.64141 0.0
H1170 H 0.68937 0.50187 0.64837 0.0
H1171 H 0.92189 0.68973 0.69802 0.0
H1172 H 0.67494 0.54427 0.65171 0.0
H1173 H 0.6931 0.60095 0.65299 0.0
H1174 H 0.73105 0.48717 0.6435 0.0
H1175 H 0.81427 0.73009 0.70568 0.0
H1176 H 0.99873 0.78497 0.69885 0.0
H1177 H 0.97999 0.72814 0.69835 0.0
H1178 H 0.94359 0.84353 0.70392 0.0
H1179 H 0.84609 0.54712 0.63575 0.0
H1180 H 0.78954 0.50395 0.63837 0.0
H1181 H 0.98491 0.82794 0.70076 0.0
H1182 H 0.82812 0.78533 0.70953 0.0
N1183 N 0.90752 0.72431 0.69778 0.0
C1184 C 0.97312 0.76819 0.6987 0.0
C1185 C 0.96263 0.73613 0.69846 0.0
C1186 C 0.95039 0.77815 0.6993 0.0
C1187 C 0.91734 0.75532 0.69896 0.0
C1188 C 0.92957 0.71439 0.69829 0.0
N1189 N 0.86279 0.74129 0.70109 0.0
C1190 C 0.89422 0.7641 0.70068 0.0
C1191 C 0.84695 0.7797 0.70697 0.0
C1192 C 0.87912 0.8036 0.70575 0.0
C1193 C 0.83919 0.74845 0.70484 0.0
C1194 C 0.90329 0.79593 0.70284 0.0
H1195 H 0.88508 0.82779 0.70747 0.0
O1196 O 0.82653 0.68273 0.72288 0.0
O1197 O 0.81157 0.64741 0.68285 0.0
O1198 O 0.80765 0.67859 0.65519 0.0
O1199 O 0.84569 0.71856 0.67408 0.0
O1200 O 0.79866 0.6739 0.69917 0.0
O1201 O 0.86897 0.67791 0.72151 0.0
O1202 O 0.84652 0.64868 0.62667 0.0
O1203 O 0.86195 0.68259 0.66717 0.0
O1204 O 0.86507 0.65137 0.6952 0.0
O1205 O 0.82915 0.61174 0.67516 0.0
O1206 O 0.87493 0.65668 0.65051 0.0
O1207 O 0.80465 0.65425 0.62889 0.0
C1208 C 0.78773 0.64874 0.68931 0.0
C1209 C 0.93612 0.81891 0.70245 0.0
C1210 C 0.95964 0.81004 0.70066 0.0
C1211 C 0.84671 0.67748 0.73222 0.0
C1212 C 0.85714 0.69311 0.75048 0.0
C1213 C 0.87718 0.72571 0.75156 0.0
C1214 C 0.84631 0.67525 0.76705 0.0
C1215 C 0.8551 0.68994 0.78469 0.0
C1216 C 0.88616 0.74039 0.76894 0.0
C1217 C 0.87519 0.72275 0.78538 0.0
C1218 C 0.82353 0.70823 0.66079 0.0
C1219 C 0.88585 0.68144 0.66072 0.0
C1220 C 0.82641 0.65457 0.61778 0.0
C1221 C 0.81511 0.63925 0.59948 0.0
C1222 C 0.79397 0.60683 0.59842 0.0
C1223 C 0.82554 0.65719 0.58292 0.0
C1224 C 0.81466 0.64282 0.5653 0.0
C1225 C 0.78335 0.5924 0.58108 0.0
C1226 C 0.79354 0.61015 0.56466 0.0
C1227 C 0.85007 0.62194 0.68918 0.0
H1228 H 0.88576 0.73977 0.73898 0.0
H1229 H 0.83057 0.65006 0.76618 0.0
H1230 H 0.90168 0.76559 0.76969 0.0
H1231 H 0.88276 0.73477 0.79866 0.0
H1232 H 0.7857 0.5927 0.61097 0.0
H1233 H 0.84163 0.68232 0.58379 0.0
H1234 H 0.76713 0.56732 0.58035 0.0
H1235 H 0.7851 0.5982 0.55141 0.0
Gd1236 Gd 0.30962 0.15724 0.69597 0.0
Gd1237 Gd 0.36312 0.17465 0.65502 0.0
C1238 C 0.4549 0.16797 0.65685 0.0
C1239 C 0.49675 0.22259 0.6536 0.0
C1240 C 0.44019 0.20817 0.6533 0.0
C1241 C 0.43124 0.17702 0.65577 0.0
C1242 C 0.47301 0.23126 0.65174 0.0
C1243 C 0.4877 0.19099 0.65618 0.0
C1244 C 0.44486 0.13601 0.65814 0.0
C1245 C 0.41198 0.11397 0.65768 0.0
N1246 N 0.39934 0.15541 0.65627 0.0
C1247 C 0.38944 0.12412 0.65648 0.0
H1248 H 0.36413 0.1068 0.65626 0.0
C1249 C 0.42412 0.24545 0.64663 0.0
N1250 N 0.41664 0.21565 0.65141 0.0
C1251 C 0.45634 0.26923 0.64505 0.0
C1252 C 0.48093 0.26219 0.64784 0.0
H1253 H 0.40521 0.25105 0.64456 0.0
H1254 H 0.50623 0.18453 0.65719 0.0
H1255 H 0.30863 0.2251 0.69492 0.0
H1256 H 0.46226 0.12809 0.65909 0.0
H1257 H 0.40395 0.08916 0.65834 0.0
H1258 H 0.52212 0.24002 0.65263 0.0
H1259 H 0.2675 0.08078 0.70628 0.0
H1260 H 0.21051 0.20384 0.69203 0.0
H1261 H 0.26881 0.24276 0.6929 0.0
H1262 H 0.15062 0.09185 0.69816 0.0
H1263 H 0.46219 0.29295 0.6417 0.0
H1264 H 0.50587 0.28062 0.64655 0.0
H1265 H 0.16653 0.14738 0.69375 0.0
H1266 H 0.2105 0.03886 0.70904 0.0
N1267 N 0.27342 0.1765 0.69476 0.0
C1268 C 0.22791 0.19591 0.69296 0.0
C1269 C 0.26078 0.21794 0.69349 0.0
C1270 C 0.21786 0.16394 0.69414 0.0
C1271 C 0.24151 0.15488 0.69519 0.0
C1272 C 0.28332 0.20779 0.69465 0.0
N1273 N 0.25609 0.1162 0.69945 0.0
C1274 C 0.23255 0.1237 0.69757 0.0
C1275 C 0.21636 0.0626 0.70572 0.0
C1276 C 0.19179 0.06966 0.70291 0.0
C1277 C 0.24859 0.08638 0.7042 0.0
C1278 C 0.19972 0.10061 0.69908 0.0
H1279 H 0.16684 0.05122 0.70417 0.0
O1280 O 0.31329 0.14069 0.72343 0.0
O1281 O 0.35408 0.15984 0.68466 0.0
O1282 O 0.32375 0.12308 0.65663 0.0
O1283 O 0.28157 0.12162 0.67382 0.0
O1284 O 0.32629 0.12224 0.70178 0.0
O1285 O 0.31779 0.1866 0.7203 0.0
O1286 O 0.35952 0.19108 0.6275 0.0
O1287 O 0.31879 0.17218 0.66637 0.0
O1288 O 0.34905 0.20882 0.69444 0.0
O1289 O 0.39118 0.2104 0.67711 0.0
O1290 O 0.34643 0.20965 0.64917 0.0
O1291 O 0.35452 0.14499 0.63079 0.0
C1292 C 0.35273 0.13613 0.69232 0.0
C1293 C 0.176 0.10929 0.69724 0.0
C1294 C 0.18505 0.14091 0.69474 0.0
C1295 C 0.31627 0.16542 0.73189 0.0
C1296 C 0.29642 0.15939 0.74868 0.0
C1297 C 0.26309 0.14765 0.74749 0.0
C1298 C 0.31108 0.16444 0.76622 0.0
C1299 C 0.29266 0.15765 0.78266 0.0
C1300 C 0.24459 0.14076 0.76376 0.0
C1301 C 0.25921 0.14559 0.78128 0.0
C1302 C 0.29289 0.10933 0.66161 0.0
C1303 C 0.32008 0.19585 0.65871 0.0
C1304 C 0.35618 0.16615 0.61912 0.0
C1305 C 0.37583 0.17177 0.60229 0.0
C1306 C 0.40909 0.18307 0.60341 0.0
C1307 C 0.36105 0.16666 0.58477 0.0
C1308 C 0.37929 0.17292 0.56828 0.0
C1309 C 0.42741 0.18943 0.5871 0.0
C1310 C 0.41268 0.18451 0.56961 0.0
C1311 C 0.37989 0.22262 0.68938 0.0
H1312 H 0.25139 0.14367 0.73408 0.0
H1313 H 0.33682 0.17318 0.76706 0.0
H1314 H 0.21885 0.13164 0.76278 0.0
H1315 H 0.24448 0.14036 0.79372 0.0
H1316 H 0.42086 0.18709 0.6168 0.0
H1317 H 0.33538 0.15828 0.58399 0.0
H1318 H 0.45309 0.19819 0.58802 0.0
H1319 H 0.42728 0.18932 0.55715 0.0
Gd1320 Gd 0.8218 0.17629 0.65381 0.0
Gd1321 Gd 0.85137 0.15625 0.69637 0.0
C1322 C 0.9493 0.16149 0.69844 0.0
C1323 C 0.93395 0.10656 0.70161 0.0
C1324 C 0.89284 0.12177 0.70018 0.0
C1325 C 0.91642 0.15287 0.69834 0.0
C1326 C 0.9013 0.09829 0.70224 0.0
C1327 C 0.95791 0.13812 0.69969 0.0
C1328 C 0.97252 0.19338 0.69771 0.0
C1329 C 0.96269 0.21574 0.69755 0.0
N1330 N 0.90722 0.17482 0.69727 0.0
C1331 C 0.92977 0.20601 0.6976 0.0
H1332 H 0.92259 0.22358 0.69739 0.0
C1333 C 0.83765 0.08477 0.70476 0.0
N1334 N 0.86159 0.11465 0.70082 0.0
C1335 C 0.8448 0.06062 0.7068 0.0
C1336 C 0.87674 0.06733 0.70531 0.0
H1337 H 0.8129 0.07943 0.7058 0.0
H1338 H 0.98304 0.14426 0.69961 0.0
H1339 H 0.74976 0.10985 0.65379 0.0
H1340 H 0.99803 0.20098 0.69767 0.0
H1341 H 0.98045 0.24049 0.69732 0.0
H1342 H 0.94095 0.08884 0.703 0.0
H1343 H 0.86112 0.25195 0.6416 0.0
H1344 H 0.67574 0.13437 0.65287 0.0
H1345 H 0.69219 0.09405 0.65404 0.0
H1346 H 0.73469 0.24595 0.64444 0.0
H1347 H 0.82569 0.03686 0.70948 0.0
H1348 H 0.88224 0.0486 0.70695 0.0
H1349 H 0.69187 0.19124 0.64951 0.0
H1350 H 0.84937 0.29477 0.63599 0.0
N1351 N 0.76612 0.15881 0.65316 0.0
C1352 C 0.70113 0.14148 0.6528 0.0
C1353 C 0.71031 0.11866 0.65341 0.0
C1354 C 0.72482 0.17315 0.65146 0.0
C1355 C 0.75752 0.18113 0.65155 0.0
C1356 C 0.74308 0.12777 0.65325 0.0
N1357 N 0.81247 0.21814 0.648 0.0
C1358 C 0.7815 0.21182 0.64883 0.0
C1359 C 0.83007 0.27158 0.6397 0.0
C1360 C 0.79849 0.26582 0.64144 0.0
C1361 C 0.83663 0.24726 0.64287 0.0
C1362 C 0.77363 0.23553 0.64578 0.0
H1363 H 0.79345 0.28468 0.63896 0.0
O1364 O 0.84595 0.19154 0.62697 0.0
O1365 O 0.86175 0.17244 0.66696 0.0
O1366 O 0.86589 0.20784 0.69505 0.0
O1367 O 0.82956 0.2126 0.6754 0.0
O1368 O 0.87501 0.21106 0.65031 0.0
O1369 O 0.80195 0.14671 0.62932 0.0
O1370 O 0.82735 0.13885 0.72306 0.0
O1371 O 0.81153 0.16043 0.68336 0.0
O1372 O 0.80626 0.12444 0.65577 0.0
O1373 O 0.84476 0.12138 0.67416 0.0
O1374 O 0.79818 0.12151 0.69983 0.0
O1375 O 0.87037 0.18465 0.72136 0.0
C1376 C 0.88583 0.19648 0.66026 0.0
C1377 C 0.74122 0.22802 0.64655 0.0
C1378 C 0.71684 0.19687 0.64942 0.0
C1379 C 0.8241 0.16699 0.61814 0.0
C1380 C 0.81312 0.17309 0.60028 0.0
C1381 C 0.79139 0.18435 0.59978 0.0
C1382 C 0.82522 0.16827 0.58349 0.0
C1383 C 0.81584 0.17476 0.56616 0.0
C1384 C 0.78197 0.19085 0.58268 0.0
C1385 C 0.7941 0.18617 0.56597 0.0
C1386 C 0.85103 0.2229 0.6891 0.0
C1387 C 0.78745 0.1364 0.6901 0.0
C1388 C 0.84848 0.16338 0.73226 0.0
C1389 C 0.85964 0.15714 0.75 0.0
C1390 C 0.88102 0.14547 0.7503 0.0
C1391 C 0.84803 0.16224 0.76689 0.0
C1392 C 0.85754 0.15562 0.78414 0.0
C1393 C 0.8906 0.13885 0.76733 0.0
C1394 C 0.87894 0.14381 0.78414 0.0
C1395 C 0.82201 0.11002 0.66124 0.0
H1396 H 0.78179 0.18813 0.61256 0.0
H1397 H 0.84231 0.15991 0.58396 0.0
H1398 H 0.76515 0.19951 0.58236 0.0
H1399 H 0.78607 0.19103 0.55288 0.0
H1400 H 0.89021 0.14142 0.73743 0.0
H1401 H 0.83119 0.17092 0.76656 0.0
H1402 H 0.90715 0.12988 0.7675 0.0
H1403 H 0.88706 0.13883 0.79715 0.0
C1404 C 0.36825 0.93783 0.03876 0.0
C1405 C 0.36381 0.90766 0.04157 0.0
H1406 H 0.40046 0.9852 0.03023 0.0
C1407 C 0.38844 0.90163 0.03606 0.0
H1408 H 0.34955 0.94308 0.04259 0.0
C1409 C 0.41768 0.92585 0.02898 0.0
C1410 C 0.42246 0.9563 0.02695 0.0
H1411 H 0.38578 0.87865 0.03815 0.0
H1412 H 0.43694 0.92105 0.02591 0.0
C1413 C 0.39727 0.96188 0.03158 0.0
C1414 C 0.06808 0.43222 0.04091 0.0
C1415 C 0.09926 0.45811 0.04325 0.0
H1416 H 0.01903 0.41592 0.03296 0.0
C1417 C 0.1048 0.48811 0.03834 0.0
H1418 H 0.06305 0.40879 0.04445 0.0
C1419 C 0.07944 0.49218 0.03185 0.0
C1420 C 0.04826 0.46623 0.02969 0.0
H1421 H 0.12844 0.50856 0.04019 0.0
H1422 H 0.08412 0.51567 0.02895 0.0
C1423 C 0.0429 0.43626 0.03428 0.0
C1424 C 0.51596 0.62834 0.03773 0.0
C1425 C 0.54373 0.64396 0.04887 0.0
H1426 H 0.48639 0.58837 0.0208 0.0
C1427 C 0.56369 0.63079 0.05105 0.0
H1428 H 0.49984 0.63764 0.03599 0.0
C1429 C 0.55591 0.60248 0.04243 0.0
C1430 C 0.52809 0.58681 0.03135 0.0
H1431 H 0.58551 0.6425 0.05931 0.0
H1432 H 0.57181 0.59298 0.04442 0.0
C1433 C 0.50823 0.60006 0.02905 0.0
C1434 C 0.9276 0.36751 0.96665 0.0
C1435 C 0.89413 0.35472 0.96897 0.0
H1436 H 0.97496 0.40549 0.97262 0.0
C1437 C 0.88298 0.37152 0.97947 0.0
H1438 H 0.93702 0.35501 0.95882 0.0
C1439 C 0.90471 0.40041 0.9874 0.0
C1440 C 0.93817 0.41316 0.98514 0.0
H1441 H 0.85738 0.36263 0.98128 0.0
H1442 H 0.89517 0.4129 0.99512 0.0
C1443 C 0.94937 0.39641 0.97462 0.0
C1444 C 0.6402 0.56721 0.97734 0.0
C1445 C 0.64453 0.54118 0.97496 0.0
H1446 H 0.60833 0.58392 0.9854 0.0
C1447 C 0.61949 0.5114 0.9805 0.0
H1448 H 0.65912 0.59051 0.97344 0.0
C1449 C 0.59017 0.50761 0.9873 0.0
C1450 C 0.58567 0.53365 0.98908 0.0
H1451 H 0.622 0.49086 0.97874 0.0
H1452 H 0.57072 0.48424 0.99055 0.0
C1453 C 0.61117 0.56347 0.98426 0.0
C1454 C 0.49479 0.11828 0.97866 0.0
C1455 C 0.46756 0.10708 0.96702 0.0
H1456 H 0.52336 0.10676 0.99645 0.0
C1457 C 0.44771 0.07455 0.96476 0.0
H1458 H 0.51082 0.14322 0.98054 0.0
C1459 C 0.45501 0.05372 0.97375 0.0
C1460 C 0.48223 0.06488 0.98535 0.0
H1461 H 0.42622 0.06509 0.9562 0.0
H1462 H 0.43914 0.02882 0.97162 0.0
C1463 C 0.50201 0.09739 0.98777 0.0
C1464 C 0.63921 0.06158 0.97876 0.0
C1465 C 0.64375 0.09179 0.97593 0.0
H1466 H 0.60676 0.01415 0.98706 0.0
C1467 C 0.61905 0.09782 0.98126 0.0
H1468 H 0.65795 0.05631 0.97505 0.0
C1469 C 0.58965 0.07358 0.98815 0.0
C1470 C 0.58477 0.04309 0.99016 0.0
H1471 H 0.62178 0.12084 0.97916 0.0
H1472 H 0.57035 0.07839 0.99107 0.0
C1473 C 0.61002 0.0375 0.98573 0.0
C1474 C 0.90376 0.51197 0.97728 0.0
C1475 C 0.9093 0.54187 0.9721 0.0
H1476 H 0.92446 0.48462 0.98705 0.0
C1477 C 0.94046 0.56781 0.97435 0.0
H1478 H 0.88013 0.49148 0.97552 0.0
C1479 C 0.96563 0.56392 0.98118 0.0
C1480 C 0.96029 0.53405 0.98604 0.0
H1481 H 0.94548 0.59117 0.97061 0.0
H1482 H 0.98948 0.58431 0.98244 0.0
C1483 C 0.92912 0.50805 0.98395 0.0
C1484 C 0.48455 0.3657 0.98403 0.0
C1485 C 0.46529 0.35613 0.96785 0.0
H1486 H 0.50846 0.40113 1.00465 0.0
C1487 C 0.45454 0.37588 0.96056 0.0
H1488 H 0.49298 0.35107 0.9903 0.0
C1489 C 0.46224 0.404 0.96939 0.0
C1490 C 0.48153 0.41352 0.98551 0.0
H1491 H 0.44046 0.36991 0.94785 0.0
H1492 H 0.45335 0.41843 0.96336 0.0
C1493 C 0.493 0.39427 0.99255 0.0
C1494 C 0.12542 0.62857 0.03702 0.0
C1495 C 0.11415 0.64516 0.04763 0.0
H1496 H 0.11339 0.58752 0.02104 0.0
C1497 C 0.08067 0.63238 0.0498 0.0
H1498 H 0.15104 0.63746 0.03532 0.0
C1499 C 0.05899 0.60369 0.04158 0.0
C1500 C 0.07029 0.58712 0.03097 0.0
H1501 H 0.07116 0.64474 0.0577 0.0
H1502 H 0.03338 0.59461 0.04349 0.0
C1503 C 0.10377 0.59987 0.02884 0.0
C1504 C 0.38962 0.48886 0.03632 0.0
C1505 C 0.36447 0.45903 0.0417 0.0
H1506 H 0.43852 0.51609 0.02655 0.0
C1507 C 0.36875 0.433 0.03921 0.0
H1508 H 0.38716 0.50941 0.03817 0.0
C1509 C 0.39783 0.43677 0.03233 0.0
C1510 C 0.42343 0.46663 0.02766 0.0
H1511 H 0.34977 0.40967 0.04301 0.0
H1512 H 0.40066 0.41632 0.03113 0.0
C1513 C 0.41899 0.49268 0.02958 0.0
C1514 C 0.51403 0.88149 0.03743 0.0
C1515 C 0.54104 0.89283 0.04926 0.0
H1516 H 0.48522 0.89275 0.01969 0.0
C1517 C 0.56033 0.92535 0.05184 0.0
H1518 H 0.49844 0.85654 0.03531 0.0
C1519 C 0.55267 0.94604 0.043 0.0
C1520 C 0.52562 0.93474 0.03124 0.0
H1521 H 0.58162 0.93491 0.06057 0.0
H1522 H 0.56811 0.97093 0.04538 0.0
C1523 C 0.50642 0.90224 0.02849 0.0
C1524 C 0.03474 0.27085 0.37163 0.0
C1525 C 0.03055 0.24076 0.3744 0.0
H1526 H 0.06654 0.31819 0.36292 0.0
C1527 C 0.05521 0.23488 0.36875 0.0
H1528 H 0.01599 0.27596 0.37558 0.0
C1529 C 0.08424 0.25916 0.36152 0.0
C1530 C 0.08877 0.28951 0.35949 0.0
H1531 H 0.05272 0.21195 0.37081 0.0
H1532 H 0.10353 0.25447 0.35825 0.0
C1533 C 0.06355 0.29495 0.36429 0.0
C1534 C 0.73317 0.76525 0.37495 0.0
C1535 C 0.76451 0.791 0.37703 0.0
H1536 H 0.68405 0.74922 0.36728 0.0
C1537 C 0.77028 0.82098 0.37186 0.0
H1538 H 0.72794 0.74183 0.37867 0.0
C1539 C 0.74499 0.82519 0.36542 0.0
C1540 C 0.71363 0.7994 0.36355 0.0
H1541 H 0.79405 0.84133 0.3735 0.0
H1542 H 0.74985 0.84869 0.36234 0.0
C1543 C 0.70805 0.76944 0.36837 0.0
C1544 C 0.181 0.96002 0.37106 0.0
C1545 C 0.20882 0.97567 0.38216 0.0
H1546 H 0.1512 0.91988 0.3543 0.0
C1547 C 0.22865 0.96235 0.38441 0.0
H1548 H 0.16498 0.96942 0.36925 0.0
C1549 C 0.22065 0.93387 0.37594 0.0
C1550 C 0.19276 0.91816 0.36493 0.0
H1551 H 0.25053 0.97407 0.39261 0.0
H1552 H 0.23645 0.92427 0.378 0.0
C1553 C 0.17307 0.93157 0.36251 0.0
C1554 C 0.58276 0.71241 0.29233 0.0
C1555 C 0.55942 0.68728 0.30307 0.0
H1556 H 0.62215 0.75975 0.29212 0.0
C1557 C 0.55855 0.6914 0.32247 0.0
H1558 H 0.5839 0.71041 0.27732 0.0
C1559 C 0.5802 0.71991 0.33085 0.0
C1560 C 0.60339 0.74487 0.3201 0.0
H1561 H 0.54151 0.67242 0.33129 0.0
H1562 H 0.57925 0.72208 0.34578 0.0
C1563 C 0.60466 0.74077 0.30078 0.0
C1564 C 0.28389 0.84242 0.31397 0.0
C1565 C 0.3089 0.87221 0.30841 0.0
H1566 H 0.2352 0.81527 0.32416 0.0
C1567 C 0.30463 0.89825 0.31092 0.0
H1568 H 0.28635 0.82187 0.31213 0.0
C1569 C 0.27567 0.89451 0.31798 0.0
C1570 C 0.25019 0.86469 0.32282 0.0
H1571 H 0.32352 0.92155 0.30702 0.0
H1572 H 0.27287 0.91498 0.31921 0.0
C1573 C 0.25464 0.83864 0.32092 0.0
C1574 C 0.15162 0.44928 0.31616 0.0
C1575 C 0.13604 0.44139 0.29867 0.0
H1576 H 0.17173 0.43581 0.33854 0.0
C1577 C 0.12889 0.41265 0.29053 0.0
H1578 H 0.15727 0.47101 0.32304 0.0
C1579 C 0.13607 0.39199 0.29983 0.0
C1580 C 0.1513 0.3997 0.31738 0.0
H1581 H 0.11785 0.40602 0.27687 0.0
H1582 H 0.12983 0.37003 0.29308 0.0
C1583 C 0.15955 0.42886 0.32526 0.0
C1584 C 0.28499 0.43067 0.31445 0.0
C1585 C 0.30972 0.42488 0.30883 0.0
H1586 H 0.2366 0.41094 0.32481 0.0
C1587 C 0.30558 0.39481 0.31158 0.0
H1588 H 0.28743 0.45358 0.31241 0.0
C1589 C 0.27674 0.37062 0.31883 0.0
C1590 C 0.25144 0.37596 0.32358 0.0
H1591 H 0.32439 0.38976 0.30765 0.0
H1592 H 0.27379 0.34738 0.32015 0.0
C1593 C 0.25594 0.40631 0.3216 0.0
C1594 C 0.56801 0.84292 0.31067 0.0
C1595 C 0.5734 0.87243 0.30472 0.0
H1596 H 0.58902 0.81632 0.3214 0.0
C1597 C 0.60462 0.89851 0.30637 0.0
H1598 H 0.54431 0.82234 0.30941 0.0
C1599 C 0.62996 0.89512 0.3134 0.0
C1600 C 0.62476 0.86563 0.31908 0.0
H1601 H 0.60954 0.92159 0.30204 0.0
H1602 H 0.65382 0.91561 0.31425 0.0
C1603 C 0.59356 0.83948 0.31757 0.0
C1604 C 0.15018 0.69758 0.31687 0.0
C1605 C 0.13053 0.68794 0.30085 0.0
H1606 H 0.17405 0.73284 0.33762 0.0
C1607 C 0.11908 0.70737 0.29395 0.0
H1608 H 0.15917 0.68319 0.32282 0.0
C1609 C 0.12647 0.73523 0.30302 0.0
C1610 C 0.14614 0.74483 0.31899 0.0
H1611 H 0.10466 0.70136 0.28138 0.0
H1612 H 0.11705 0.74941 0.29729 0.0
C1613 C 0.15828 0.7259 0.32564 0.0
C1614 C 0.79224 0.9615 0.3698 0.0
C1615 C 0.78131 0.97832 0.38047 0.0
H1616 H 0.77961 0.92028 0.35383 0.0
C1617 C 0.7479 0.96595 0.38266 0.0
H1618 H 0.8178 0.97013 0.36806 0.0
C1619 C 0.72595 0.93737 0.37447 0.0
C1620 C 0.73689 0.9205 0.36386 0.0
H1621 H 0.73867 0.97852 0.39059 0.0
H1622 H 0.7004 0.92858 0.37645 0.0
C1623 C 0.7703 0.93288 0.36164 0.0
C1624 C 0.05422 0.82032 0.3701 0.0
C1625 C 0.02908 0.79057 0.37561 0.0
H1626 H 0.10305 0.84737 0.36018 0.0
C1627 C 0.0333 0.76448 0.37323 0.0
H1628 H 0.05181 0.84091 0.37186 0.0
C1629 C 0.06232 0.76813 0.36631 0.0
C1630 C 0.08792 0.79791 0.36151 0.0
H1631 H 0.01432 0.74121 0.37712 0.0
H1632 H 0.06509 0.74764 0.36519 0.0
C1633 C 0.08353 0.82401 0.36333 0.0
C1634 C 0.19674 0.22023 0.36415 0.0
C1635 C 0.20676 0.22496 0.38294 0.0
H1636 H 0.18097 0.23622 0.34089 0.0
C1637 C 0.20812 0.25044 0.3926 0.0
H1638 H 0.19587 0.2012 0.35612 0.0
C1639 C 0.20027 0.27094 0.38363 0.0
C1640 C 0.19037 0.26625 0.36485 0.0
H1641 H 0.21495 0.25447 0.40718 0.0
H1642 H 0.20162 0.29027 0.39155 0.0
C1643 C 0.18833 0.24046 0.3553 0.0
C1644 C 0.72224 0.56699 0.70313 0.0
C1645 C 0.6977 0.57294 0.70896 0.0
H1646 H 0.77041 0.58649 0.69238 0.0
C1647 C 0.70193 0.60305 0.7062 0.0
H1648 H 0.71972 0.54405 0.70515 0.0
C1649 C 0.73065 0.62709 0.69872 0.0
C1650 C 0.75578 0.6216 0.69376 0.0
H1651 H 0.68328 0.60823 0.71026 0.0
H1652 H 0.73366 0.65035 0.69739 0.0
C1653 C 0.7512 0.59122 0.69576 0.0
C1654 C 0.40037 0.09858 0.70926 0.0
C1655 C 0.43164 0.12447 0.71127 0.0
H1656 H 0.35126 0.08215 0.70141 0.0
C1657 C 0.43726 0.1543 0.70586 0.0
H1658 H 0.39527 0.07527 0.71317 0.0
C1659 C 0.41189 0.15823 0.69923 0.0
C1660 C 0.3806 0.1323 0.69742 0.0
H1661 H 0.46097 0.17475 0.70743 0.0
H1662 H 0.41663 0.18164 0.69595 0.0
C1663 C 0.37519 0.10248 0.70247 0.0
C1664 C 0.85568 0.30039 0.70019 0.0
C1665 C 0.8752 0.30998 0.71627 0.0
H1666 H 0.83183 0.26508 0.67945 0.0
C1667 C 0.88622 0.29033 0.72336 0.0
H1668 H 0.84699 0.31494 0.69411 0.0
C1669 C 0.87865 0.26235 0.7144 0.0
C1670 C 0.85923 0.25285 0.69833 0.0
H1671 H 0.90048 0.29629 0.736 0.0
H1672 H 0.8878 0.24803 0.72027 0.0
C1673 C 0.84741 0.27195 0.69151 0.0
C1674 C 0.21469 0.03714 0.64747 0.0
C1675 C 0.22583 0.02046 0.63683 0.0
H1676 H 0.22696 0.07837 0.66332 0.0
C1677 C 0.25929 0.03317 0.63456 0.0
H1678 H 0.1891 0.02827 0.64926 0.0
C1679 C 0.28107 0.06195 0.64263 0.0
C1680 C 0.26991 0.07866 0.65321 0.0
H1681 H 0.26869 0.02074 0.62665 0.0
H1682 H 0.30665 0.07099 0.64061 0.0
C1683 C 0.23646 0.06592 0.65552 0.0
C1684 C 0.9516 0.17774 0.64726 0.0
C1685 C 0.97662 0.20749 0.64165 0.0
H1686 H 0.90289 0.15062 0.65733 0.0
C1687 C 0.97231 0.23353 0.64402 0.0
H1688 H 0.95408 0.15719 0.64551 0.0
C1689 C 0.94332 0.22982 0.65103 0.0
C1690 C 0.91783 0.20003 0.65592 0.0
H1691 H 0.9912 0.25681 0.64007 0.0
H1692 H 0.94047 0.25027 0.65214 0.0
C1693 C 0.92233 0.17398 0.65411 0.0
C1694 C 0.82745 0.78392 0.64574 0.0
C1695 C 0.8004 0.7728 0.63396 0.0
H1696 H 0.85609 0.77233 0.66339 0.0
C1697 C 0.7809 0.74031 0.63134 0.0
H1698 H 0.84322 0.80884 0.64787 0.0
C1699 C 0.78835 0.71943 0.64015 0.0
C1700 C 0.81541 0.73051 0.65188 0.0
H1701 H 0.75959 0.73092 0.62264 0.0
H1702 H 0.77274 0.69455 0.63777 0.0
C1703 C 0.83485 0.76299 0.65462 0.0
C1704 C 0.97218 0.72749 0.64477 0.0
C1705 C 0.97634 0.75756 0.64195 0.0
H1706 H 0.94031 0.68008 0.65337 0.0
C1707 C 0.95154 0.76333 0.64744 0.0
H1708 H 0.99101 0.72244 0.64093 0.0
C1709 C 0.92242 0.73898 0.65455 0.0
C1710 C 0.91793 0.70865 0.65664 0.0
H1711 H 0.95398 0.78623 0.64534 0.0
H1712 H 0.90304 0.74361 0.6576 0.0
C1713 C 0.94328 0.70332 0.652 0.0
C1714 C 0.23559 0.17789 0.64525 0.0
C1715 C 0.24123 0.20781 0.64003 0.0
H1716 H 0.25619 0.1504 0.65493 0.0
C1717 C 0.27248 0.23366 0.64217 0.0
H1718 H 0.21189 0.15746 0.64358 0.0
C1719 C 0.29765 0.22965 0.64887 0.0
C1720 C 0.29222 0.19975 0.65372 0.0
H1721 H 0.2776 0.25704 0.63841 0.0
H1722 H 0.32158 0.24997 0.65001 0.0
C1723 C 0.26094 0.17385 0.65181 0.0
C1724 C 0.77831 0.03565 0.63281 0.0
C1725 C 0.79827 0.02251 0.63517 0.0
H1726 H 0.77004 0.07345 0.63921 0.0
C1727 C 0.82581 0.03814 0.64649 0.0
H1728 H 0.75664 0.02393 0.62442 0.0
C1729 C 0.83336 0.06641 0.65512 0.0
C1730 C 0.81355 0.07967 0.65259 0.0
H1731 H 0.84192 0.02886 0.64839 0.0
H1732 H 0.85506 0.07812 0.66349 0.0
C1733 C 0.78591 0.06395 0.64138 0.0
C1734 C 0.45816 0.29472 0.70356 0.0
C1735 C 0.44709 0.31136 0.71429 0.0
H1736 H 0.4458 0.25359 0.68758 0.0
C1737 C 0.41364 0.29865 0.71662 0.0
H1738 H 0.48374 0.30356 0.70172 0.0
C1739 C 0.39181 0.26993 0.7085 0.0
C1740 C 0.40291 0.25326 0.69781 0.0
H1741 H 0.40428 0.31105 0.72459 0.0
H1742 H 0.36624 0.26088 0.71057 0.0
C1743 C 0.43634 0.266 0.69545 0.0
C1744 C 0.70097 0.09924 0.70627 0.0
C1745 C 0.69656 0.12523 0.70861 0.0
H1746 H 0.73293 0.08261 0.69826 0.0
C1747 C 0.72156 0.15502 0.70304 0.0
H1748 H 0.6821 0.07594 0.71019 0.0
C1749 C 0.75091 0.15886 0.69624 0.0
C1750 C 0.75549 0.13286 0.69451 0.0
H1751 H 0.71899 0.17553 0.70476 0.0
H1752 H 0.77032 0.18223 0.69298 0.0
C1753 C 0.73003 0.10303 0.69936 0.0
C1754 C 0.85549 0.54935 0.70074 0.0
C1755 C 0.87344 0.55838 0.71745 0.0
H1756 H 0.83319 0.56176 0.67906 0.0
C1757 C 0.88296 0.58824 0.72479 0.0
H1758 H 0.84799 0.52674 0.69446 0.0
C1759 C 0.87556 0.60875 0.71548 0.0
C1760 C 0.85778 0.5998 0.69877 0.0
H1761 H 0.89596 0.59585 0.73786 0.0
H1762 H 0.88362 0.63158 0.7216 0.0
C1763 C 0.84738 0.56966 0.69167 0.0
C1764 C 0.48943 0.99812 0.16766 0.0
C1765 C 0.48971 0.96987 0.17007 0.0
H1766 H 0.49912 0.03653 0.14952 0.0
C1767 C 0.49951 0.95831 0.15493 0.0
H1768 H 0.48229 0.00788 0.17903 0.0
C1769 C 0.5092 0.9748 0.13795 0.0
C1770 C 0.50969 0.00346 0.13575 0.0
H1771 H 0.49973 0.93649 0.15622 0.0
H1772 H 0.51712 0.96552 0.12671 0.0
C1773 C 0.49939 0.01472 0.15078 0.0
C1774 C 0.0163 0.5293 0.15487 0.0
C1775 C 1.00285 0.50649 0.16903 0.0
H1776 H 0.01262 0.54194 0.12674 0.0
C1777 C 0.97454 0.47804 0.16528 0.0
H1778 H 0.03828 0.55133 0.15731 0.0
C1779 C 0.9598 0.47268 0.14775 0.0
C1780 C 0.97334 0.49551 0.13359 0.0
H1781 H 0.96357 0.46013 0.17597 0.0
H1782 H 0.93803 0.45053 0.14519 0.0
C1783 C 1.00178 0.52383 0.13733 0.0
C1784 C 0.49253 0.47945 0.16701 0.0
C1785 C 0.49152 0.5072 0.16989 0.0
H1786 H 0.50382 0.45243 0.14821 0.0
C1787 C 0.5007 0.52901 0.15517 0.0
H1788 H 0.48585 0.46228 0.17809 0.0
C1789 C 0.51116 0.52344 0.13809 0.0
C1790 C 0.51284 0.49601 0.13534 0.0
H1791 H 0.49988 0.55047 0.15687 0.0
H1792 H 0.51863 0.541 0.12718 0.0
C1793 C 0.50316 0.47396 0.14996 0.0
C1794 C 0.03494 0.52146 0.85057 0.0
C1795 C 0.00658 0.49303 0.84687 0.0
H1796 H 0.07143 0.5491 0.87064 0.0
C1797 C 0.99304 0.47035 0.8611 0.0
H1798 H 0.04597 0.53927 0.83982 0.0
C1799 C 0.00752 0.47595 0.87865 0.0
C1800 C 0.03598 0.50427 0.88234 0.0
H1801 H 0.97101 0.44835 0.85871 0.0
H1802 H 0.9966 0.45796 0.88931 0.0
C1803 C 0.04963 0.52696 0.86812 0.0
C1804 C 0.47987 0.48294 0.84978 0.0
C1805 C 0.51229 0.49135 0.84689 0.0
H1806 H 0.44456 0.4818 0.86861 0.0
C1807 C 0.53443 0.50607 0.86151 0.0
H1808 H 0.46224 0.4719 0.83877 0.0
C1809 C 0.52428 0.51196 0.87865 0.0
C1810 C 0.49182 0.50347 0.88151 0.0
H1811 H 0.55951 0.51264 0.8598 0.0
H1812 H 0.54195 0.52346 0.88959 0.0
C1813 C 0.46979 0.48893 0.86684 0.0
C1814 C 0.51609 0.0 0.84912 0.0
C1815 C 0.51557 0.0281 0.84661 0.0
H1816 H 0.50682 0.9619 0.86744 0.0
C1817 C 0.50573 0.03973 0.86169 0.0
H1818 H 0.52326 0.9902 0.8378 0.0
C1819 C 0.4963 0.02346 0.87875 0.0
C1820 C 0.49607 0.99495 0.88107 0.0
H1821 H 0.50532 0.06145 0.86031 0.0
H1822 H 0.48837 0.03278 0.88996 0.0
C1823 C 0.50637 0.98361 0.86608 0.0
C1824 C 0.13778 0.29575 0.48925 0.0
C1825 C 0.16035 0.30317 0.50374 0.0
H1826 H 0.12895 0.30597 0.46138 0.0
C1827 C 0.19237 0.32703 0.50058 0.0
H1828 H 0.11298 0.27733 0.49109 0.0
C1829 C 0.20152 0.34325 0.48358 0.0
C1830 C 0.17896 0.33616 0.46915 0.0
H1831 H 0.21039 0.33368 0.51143 0.0
H1832 H 0.22642 0.36148 0.48175 0.0
C1833 C 0.14701 0.31194 0.47213 0.0
C1834 C 0.65288 0.85256 0.49936 0.0
C1835 C 0.6757 0.84294 0.50235 0.0
H1836 H 0.62035 0.85576 0.48023 0.0
C1837 C 0.6818 0.82722 0.48794 0.0
H1838 H 0.64728 0.86432 0.51027 0.0
C1839 C 0.66601 0.82192 0.47078 0.0
C1840 C 0.64377 0.83223 0.46765 0.0
H1841 H 0.69937 0.81967 0.48975 0.0
H1842 H 0.67133 0.80985 0.45993 0.0
C1843 C 0.63714 0.8473 0.48221 0.0
C1844 C 0.13942 0.82677 0.48934 0.0
C1845 C 0.1615 0.84163 0.50396 0.0
H1846 H 0.13212 0.80951 0.46123 0.0
C1847 C 0.19402 0.85043 0.50107 0.0
H1848 H 0.11425 0.81989 0.49106 0.0
C1849 C 0.20426 0.84468 0.484 0.0
C1850 C 0.18229 0.82999 0.46933 0.0
H1851 H 0.21161 0.8616 0.51209 0.0
H1852 H 0.22956 0.85211 0.48223 0.0
C1853 C 0.14972 0.82112 0.47219 0.0
C1854 C 0.691 0.81696 0.18431 0.0
C1855 C 0.6678 0.82601 0.18111 0.0
H1856 H 0.72374 0.81461 0.20369 0.0
C1857 C 0.66113 0.84154 0.19539 0.0
H1858 H 0.69703 0.80535 0.17351 0.0
C1859 C 0.67678 0.84723 0.21262 0.0
C1860 C 0.69943 0.8375 0.21596 0.0
H1861 H 0.64324 0.84863 0.19343 0.0
H1862 H 0.67102 0.85915 0.22336 0.0
C1863 C 0.70661 0.82262 0.20154 0.0
C1864 C 0.17322 0.80388 0.19567 0.0
C1865 C 0.18237 0.82555 0.18087 0.0
H1866 H 0.15545 0.79219 0.22372 0.0
C1867 C 0.18135 0.85333 0.18367 0.0
H1868 H 0.17403 0.7824 0.19405 0.0
C1869 C 0.17083 0.859 0.20071 0.0
C1870 C 0.16124 0.83712 0.21541 0.0
H1871 H 0.18798 0.8704 0.17253 0.0
H1872 H 0.17023 0.88058 0.20237 0.0
C1873 C 0.16286 0.80963 0.21274 0.0
C1874 C 0.20263 0.36986 0.19367 0.0
C1875 C 0.18012 0.36243 0.17914 0.0
H1876 H 0.21133 0.35963 0.22156 0.0
C1877 C 0.14811 0.33849 0.18223 0.0
H1878 H 0.22741 0.38835 0.19187 0.0
C1879 C 0.1389 0.32224 0.19922 0.0
C1880 C 0.16139 0.32937 0.21369 0.0
H1881 H 0.13015 0.33183 0.17135 0.0
H1882 H 0.11401 0.30397 0.20101 0.0
C1883 C 0.19333 0.35363 0.21077 0.0
C1884 C 0.8234 0.66608 0.83434 0.0
C1885 C 0.82469 0.63838 0.8369 0.0
H1886 H 0.8317 0.70381 0.81596 0.0
C1887 C 0.83498 0.62711 0.82185 0.0
H1888 H 0.81586 0.67561 0.84563 0.0
C1889 C 0.8441 0.64334 0.80478 0.0
C1890 C 0.84351 0.67145 0.8024 0.0
H1891 H 0.83599 0.6057 0.82327 0.0
H1892 H 0.85239 0.6343 0.79359 0.0
C1893 C 0.83278 0.68243 0.81736 0.0
C1894 C 0.31074 0.14644 0.8328 0.0
C1895 C 0.33946 0.17473 0.83615 0.0
H1896 H 0.27324 0.11891 0.81322 0.0
C1897 C 0.35263 0.19721 0.8218 0.0
H1898 H 0.29996 0.12881 0.84366 0.0
C1899 C 0.3374 0.1916 0.80448 0.0
C1900 C 0.30856 0.16345 0.80115 0.0
H1901 H 0.3749 0.21911 0.82393 0.0
H1902 H 0.34804 0.20948 0.79374 0.0
C1903 C 0.29531 0.14093 0.81548 0.0
C1904 C 0.82568 0.14525 0.83389 0.0
C1905 C 0.82456 0.17299 0.83664 0.0
H1906 H 0.83677 0.11796 0.81521 0.0
C1907 C 0.83347 0.19452 0.82178 0.0
H1908 H 0.81923 0.1283 0.84508 0.0
C1909 C 0.84371 0.18868 0.8047 0.0
C1910 C 0.84544 0.16124 0.80207 0.0
H1911 H 0.83257 0.21595 0.82336 0.0
H1912 H 0.85094 0.20602 0.79367 0.0
C1913 C 0.83608 0.1395 0.81684 0.0
C1914 C 0.31874 0.13372 0.52931 0.0
C1915 C 0.33238 0.15581 0.51479 0.0
H1916 H 0.32299 0.12174 0.5575 0.0
C1917 C 0.36158 0.18372 0.51798 0.0
H1918 H 0.29611 0.11212 0.52732 0.0
C1919 C 0.37699 0.18925 0.5353 0.0
C1920 C 0.3633 0.16711 0.54981 0.0
H1921 H 0.37274 0.20105 0.50699 0.0
H1922 H 0.39942 0.21098 0.53741 0.0
C1923 C 0.33399 0.13934 0.54664 0.0
C1924 C 0.841 0.13644 0.52875 0.0
C1925 C 0.84988 0.15797 0.5139 0.0
H1926 H 0.82323 0.12477 0.5568 0.0
C1927 C 0.84844 0.18555 0.51658 0.0
H1928 H 0.84214 0.11512 0.52721 0.0
C1929 C 0.83773 0.19114 0.53358 0.0
C1930 C 0.82837 0.16938 0.54833 0.0
H1931 H 0.85485 0.20249 0.50539 0.0
H1932 H 0.83677 0.21255 0.53516 0.0
C1933 C 0.83045 0.14211 0.54577 0.0
C1934 C 0.86651 0.70138 0.52747 0.0
C1935 C 0.84402 0.69444 0.51298 0.0
H1936 H 0.87499 0.69081 0.55531 0.0
C1937 C 0.8118 0.67102 0.51614 0.0
H1938 H 0.89145 0.71947 0.52563 0.0
C1939 C 0.80237 0.6548 0.53314 0.0
C1940 C 0.82483 0.66145 0.54756 0.0
H1941 H 0.79383 0.66473 0.5053 0.0
H1942 H 0.77732 0.63697 0.53497 0.0
C1943 C 0.857 0.68519 0.54458 0.0
loop_
_geom_bond_atom_site_label_1
_geom_bond_atom_site_label_2
_geom_bond_distance
_geom_bond_site_symmetry_2
_ccdc_geom_bond_type
C0 C1 1.384 . S
C0 H13 0.947 . S
C0 C35 1.382 . S
C1 C0 1.384 . S
C1 C2 1.378 . S
C2 C1 1.378 . S
C2 C3 1.378 . S
C2 H14 0.952 . S
C3 C2 1.378 . S
C3 H15 0.950 . S
C3 C34 1.383 . S
H4 C23 0.947 . S
H5 C24 0.946 . S
H6 C26 0.953 . S
H7 C27 0.945 . S
H8 C29 0.952 . S
H9 C30 0.949 . S
H10 C32 0.950 . S
H11 C33 0.948 . S
H12 C35 0.951 . S
H13 C0 0.947 . S
H14 C2 0.952 . S
H15 C3 0.950 . S
N16 C19 1.382 . S
N16 C21 1.363 . S
N17 C19 1.371 . S
N17 C20 1.372 . S
N18 C20 1.361 . S
N18 C21 1.377 . S
C19 N16 1.382 . S
C19 N17 1.371 . S
C19 C22 1.480 . S
C20 N17 1.372 . S
C20 N18 1.361 . S
C20 C28 1.457 . S
C21 N16 1.363 . S
C21 N18 1.377 . S
C21 C34 1.479 . S
C22 C19 1.480 . S
C22 C23 1.383 . S
C22 C27 1.385 . S
C23 H4 0.947 . S
C23 C22 1.383 . S
C23 C24 1.388 . S
C24 H5 0.946 . S
C24 C23 1.388 . S
C24 C25 1.384 . S
C25 C24 1.384 . S
C25 C26 1.377 . S
C26 H6 0.953 . S
C26 C25 1.377 . S
C26 C27 1.369 . S
C27 H7 0.945 . S
C27 C22 1.385 . S
C27 C26 1.369 . S
C28 C20 1.457 . S
C28 C29 1.372 . S
C28 C33 1.364 . S
C29 H8 0.952 . S
C29 C28 1.372 . S
C29 C30 1.389 . S
C30 H9 0.949 . S
C30 C29 1.389 . S
C30 C31 1.387 . S
C31 C30 1.387 . S
C31 C32 1.372 . S
C32 H10 0.950 . S
C32 C31 1.372 . S
C32 C33 1.379 . S
C33 H11 0.948 . S
C33 C28 1.364 . S
C33 C32 1.379 . S
C34 C3 1.383 . S
C34 C21 1.479 . S
C34 C35 1.398 . S
C35 C0 1.382 . S
C35 H12 0.951 . S
C35 C34 1.398 . S
C36 C37 1.384 . S
C36 H49 0.947 1_655 S
C36 C71 1.382 . S
C37 C36 1.384 . S
C37 C38 1.378 . S
C38 C37 1.378 . S
C38 C39 1.378 . S
C38 H50 0.952 . S
C39 C38 1.378 . S
C39 H51 0.950 . S
C39 C70 1.383 . S
H40 C59 0.947 . S
H41 C60 0.946 . S
H42 C62 0.953 . S
H43 C63 0.945 . S
H44 C65 0.952 . S
H45 C66 0.949 . S
H46 C68 0.950 . S
H47 C69 0.948 . S
H48 C71 0.951 . S
H49 C36 0.947 1_455 S
H50 C38 0.952 . S
H51 C39 0.950 . S
N52 C55 1.382 . S
N52 C57 1.363 . S
N53 C55 1.371 . S
N53 C56 1.372 . S
N54 C56 1.361 . S
N54 C57 1.377 . S
C55 N52 1.382 . S
C55 N53 1.371 . S
C55 C58 1.480 . S
C56 N53 1.372 . S
C56 N54 1.361 . S
C56 C64 1.457 . S
C57 N52 1.363 . S
C57 N54 1.377 . S
C57 C70 1.479 . S
C58 C55 1.480 . S
C58 C59 1.383 . S
C58 C63 1.385 . S
C59 H40 0.947 . S
C59 C58 1.383 . S
C59 C60 1.388 . S
C60 H41 0.946 . S
C60 C59 1.388 . S
C60 C61 1.384 . S
C61 C60 1.384 . S
C61 C62 1.377 . S
C62 H42 0.953 . S
C62 C61 1.377 . S
C62 C63 1.369 . S
C63 H43 0.945 . S
C63 C58 1.385 . S
C63 C62 1.369 . S
C64 C56 1.457 . S
C64 C65 1.372 . S
C64 C69 1.364 . S
C65 H44 0.952 . S
C65 C64 1.372 . S
C65 C66 1.389 . S
C66 H45 0.949 . S
C66 C65 1.389 . S
C66 C67 1.387 . S
C67 C66 1.387 . S
C67 C68 1.372 . S
C68 H46 0.950 . S
C68 C67 1.372 . S
C68 C69 1.379 . S
C69 H47 0.948 . S
C69 C64 1.364 . S
C69 C68 1.379 . S
C70 C39 1.383 . S
C70 C57 1.479 . S
C70 C71 1.398 . S
C71 C36 1.382 . S
C71 H48 0.951 . S
C71 C70 1.398 . S
C72 C73 1.384 . S
C72 H85 0.947 . S
C72 C107 1.382 . S
C73 C72 1.384 . S
C73 C74 1.378 . S
C74 C73 1.378 . S
C74 C75 1.378 . S
C74 H86 0.952 . S
C75 C74 1.378 . S
C75 H87 0.950 . S
C75 C106 1.383 . S
H76 C95 0.947 . S
H77 C96 0.946 . S
H78 C98 0.953 1_455 S
H79 C99 0.945 . S
H80 C101 0.952 . S
H81 C102 0.949 . S
H82 C104 0.950 . S
H83 C105 0.948 . S
H84 C107 0.951 . S
H85 C72 0.947 . S
H86 C74 0.952 . S
H87 C75 0.950 . S
N88 C91 1.382 . S
N88 C93 1.363 . S
N89 C91 1.371 . S
N89 C92 1.372 . S
N90 C92 1.361 . S
N90 C93 1.377 . S
C91 N88 1.382 . S
C91 N89 1.371 . S
C91 C94 1.480 . S
C92 N89 1.372 . S
C92 N90 1.361 . S
C92 C100 1.457 . S
C93 N88 1.363 . S
C93 N90 1.377 . S
C93 C106 1.479 . S
C94 C91 1.480 . S
C94 C95 1.383 . S
C94 C99 1.385 . S
C95 H76 0.947 . S
C95 C94 1.383 . S
C95 C96 1.388 . S
C96 H77 0.946 . S
C96 C95 1.388 . S
C96 C97 1.384 . S
C97 C96 1.384 . S
C97 C98 1.377 . S
C98 H78 0.953 1_655 S
C98 C97 1.377 . S
C98 C99 1.369 . S
C99 H79 0.945 . S
C99 C94 1.385 . S
C99 C98 1.369 . S
C100 C92 1.457 . S
C100 C101 1.372 . S
C100 C105 1.364 . S
C101 H80 0.952 . S
C101 C100 1.372 . S
C101 C102 1.389 . S
C102 H81 0.949 . S
C102 C101 1.389 . S
C102 C103 1.387 . S
C103 C102 1.387 . S
C103 C104 1.372 . S
C104 H82 0.950 . S
C104 C103 1.372 . S
C104 C105 1.379 . S
C105 H83 0.948 . S
C105 C100 1.364 . S
C105 C104 1.379 . S
C106 C75 1.383 . S
C106 C93 1.479 . S
C106 C107 1.398 . S
C107 C72 1.382 . S
C107 H84 0.951 . S
C107 C106 1.398 . S
C108 C109 1.384 . S
C108 H121 0.947 1_455 S
C108 C143 1.382 . S
C109 C108 1.384 . S
C109 C110 1.378 . S
C110 C109 1.378 . S
C110 C111 1.378 . S
C110 H122 0.952 . S
C111 C110 1.378 . S
C111 H123 0.950 . S
C111 C142 1.383 . S
H112 C131 0.947 . S
H113 C132 0.946 . S
H114 C134 0.953 . S
H115 C135 0.945 . S
H116 C137 0.952 . S
H117 C138 0.949 . S
H118 C140 0.950 . S
H119 C141 0.948 . S
H120 C143 0.951 . S
H121 C108 0.947 1_655 S
H122 C110 0.952 . S
H123 C111 0.950 . S
N124 C127 1.382 . S
N124 C129 1.363 . S
N125 C127 1.371 . S
N125 C128 1.372 . S
N126 C128 1.361 . S
N126 C129 1.377 . S
C127 N124 1.382 . S
C127 N125 1.371 . S
C127 C130 1.480 . S
C128 N125 1.372 . S
C128 N126 1.361 . S
C128 C136 1.457 . S
C129 N124 1.363 . S
C129 N126 1.377 . S
C129 C142 1.479 . S
C130 C127 1.480 . S
C130 C131 1.383 . S
C130 C135 1.385 . S
C131 H112 0.947 . S
C131 C130 1.383 . S
C131 C132 1.388 . S
C132 H113 0.946 . S
C132 C131 1.388 . S
C132 C133 1.384 . S
C133 C132 1.384 . S
C133 C134 1.377 . S
C134 H114 0.953 . S
C134 C133 1.377 . S
C134 C135 1.369 . S
C135 H115 0.945 . S
C135 C130 1.385 . S
C135 C134 1.369 . S
C136 C128 1.457 . S
C136 C137 1.372 . S
C136 C141 1.364 . S
C137 H116 0.952 . S
C137 C136 1.372 . S
C137 C138 1.389 . S
C138 H117 0.949 . S
C138 C137 1.389 . S
C138 C139 1.387 . S
C139 C138 1.387 . S
C139 C140 1.372 . S
C140 H118 0.950 . S
C140 C139 1.372 . S
C140 C141 1.379 . S
C141 H119 0.948 . S
C141 C136 1.364 . S
C141 C140 1.379 . S
C142 C111 1.383 . S
C142 C129 1.479 . S
C142 C143 1.398 . S
C143 C108 1.382 . S
C143 H120 0.951 . S
C143 C142 1.398 . S
C144 C145 1.384 . S
C144 H157 0.947 . S
C144 C179 1.382 . S
C145 C144 1.384 . S
C145 C146 1.378 . S
C146 C145 1.378 . S
C146 C147 1.378 . S
C146 H158 0.952 . S
C147 C146 1.378 . S
C147 H159 0.950 . S
C147 C178 1.383 . S
H148 C167 0.947 . S
H149 C168 0.946 . S
H150 C170 0.953 . S
H151 C171 0.945 . S
H152 C173 0.952 . S
H153 C174 0.949 . S
H154 C176 0.950 . S
H155 C177 0.948 . S
H156 C179 0.951 . S
H157 C144 0.947 . S
H158 C146 0.952 . S
H159 C147 0.950 . S
N160 C163 1.382 . S
N160 C165 1.363 . S
N161 C163 1.371 . S
N161 C164 1.372 . S
N162 C164 1.361 . S
N162 C165 1.377 . S
C163 N160 1.382 . S
C163 N161 1.371 . S
C163 C166 1.480 . S
C164 N161 1.372 . S
C164 N162 1.361 . S
C164 C172 1.457 . S
C165 N160 1.363 . S
C165 N162 1.377 . S
C165 C178 1.479 . S
C166 C163 1.480 . S
C166 C167 1.383 . S
C166 C171 1.385 . S
C167 H148 0.947 . S
C167 C166 1.383 . S
C167 C168 1.388 . S
C168 H149 0.946 . S
C168 C167 1.388 . S
C168 C169 1.384 . S
C169 C168 1.384 . S
C169 C170 1.377 . S
C170 H150 0.953 . S
C170 C169 1.377 . S
C170 C171 1.369 . S
C171 H151 0.945 . S
C171 C166 1.385 . S
C171 C170 1.369 . S
C172 C164 1.457 . S
C172 C173 1.372 . S
C172 C177 1.364 . S
C173 H152 0.952 . S
C173 C172 1.372 . S
C173 C174 1.389 . S
C174 H153 0.949 . S
C174 C173 1.389 . S
C174 C175 1.387 . S
C175 C174 1.387 . S
C175 C176 1.372 . S
C176 H154 0.950 . S
C176 C175 1.372 . S
C176 C177 1.379 . S
C177 H155 0.948 . S
C177 C172 1.364 . S
C177 C176 1.379 . S
C178 C147 1.383 . S
C178 C165 1.479 . S
C178 C179 1.398 . S
C179 C144 1.382 . S
C179 H156 0.951 . S
C179 C178 1.398 . S
C180 C181 1.384 . S
C180 H193 0.947 . S
C180 C215 1.382 . S
C181 C180 1.384 . S
C181 C182 1.378 . S
C182 C181 1.378 . S
C182 C183 1.378 . S
C182 H194 0.952 . S
C183 C182 1.378 . S
C183 H195 0.950 . S
C183 C214 1.383 . S
H184 C203 0.947 . S
H185 C204 0.946 . S
H186 C206 0.964 . S
H187 C207 0.945 . S
H188 C209 0.952 . S
H189 C210 0.949 . S
H190 C212 0.950 . S
H191 C213 0.948 . S
H192 C215 0.951 . S
H193 C180 0.947 . S
H194 C182 0.952 . S
H195 C183 0.950 . S
N196 C199 1.382 . S
N196 C201 1.363 . S
N197 C199 1.371 . S
N197 C200 1.372 . S
N198 C200 1.361 . S
N198 C201 1.377 . S
C199 N196 1.382 . S
C199 N197 1.371 . S
C199 C202 1.480 . S
C200 N197 1.372 . S
C200 N198 1.361 . S
C200 C208 1.457 . S
C201 N196 1.363 . S
C201 N198 1.377 . S
C201 C214 1.479 . S
C202 C199 1.480 . S
C202 C203 1.383 . S
C202 C207 1.385 . S
C203 H184 0.947 . S
C203 C202 1.383 . S
C203 C204 1.388 . S
C204 H185 0.946 . S
C204 C203 1.388 . S
C204 C205 1.384 . S
C205 C204 1.384 . S
C205 C206 1.377 . S
C206 H186 0.964 . S
C206 C205 1.377 . S
C206 C207 1.369 . S
C207 H187 0.945 . S
C207 C202 1.385 . S
C207 C206 1.369 . S
C208 C200 1.457 . S
C208 C209 1.372 . S
C208 C213 1.364 . S
C209 H188 0.952 . S
C209 C208 1.372 . S
C209 C210 1.389 . S
C210 H189 0.949 . S
C210 C209 1.389 . S
C210 C211 1.387 . S
C211 C210 1.387 . S
C211 C212 1.372 . S
C212 H190 0.950 . S
C212 C211 1.372 . S
C212 C213 1.379 . S
C213 H191 0.948 . S
C213 C208 1.364 . S
C213 C212 1.379 . S
C214 C183 1.383 . S
C214 C201 1.479 . S
C214 C215 1.398 . S
C215 C180 1.382 . S
C215 H192 0.951 . S
C215 C214 1.398 . S
C216 C217 1.384 . S
C216 H229 0.947 . S
C216 C251 1.382 . S
C217 C216 1.384 . S
C217 C218 1.378 . S
C218 C217 1.378 . S
C218 C219 1.378 . S
C218 H230 0.952 . S
C219 C218 1.378 . S
C219 H231 0.950 . S
C219 C250 1.383 . S
H220 C239 0.947 . S
H221 C240 0.946 . S
H222 C242 0.953 . S
H223 C243 0.945 . S
H224 C245 0.952 . S
H225 C246 0.949 . S
H226 C248 0.950 . S
H227 C249 0.948 . S
H228 C251 0.951 . S
H229 C216 0.947 . S
H230 C218 0.952 . S
H231 C219 0.950 . S
N232 C235 1.382 . S
N232 C237 1.363 . S
N233 C235 1.371 . S
N233 C236 1.372 . S
N234 C236 1.361 . S
N234 C237 1.377 . S
C235 N232 1.382 . S
C235 N233 1.371 . S
C235 C238 1.480 . S
C236 N233 1.372 . S
C236 N234 1.361 . S
C236 C244 1.457 . S
C237 N232 1.363 . S
C237 N234 1.377 . S
C237 C250 1.479 . S
C238 C235 1.480 . S
C238 C239 1.383 . S
C238 C243 1.385 . S
C239 H220 0.947 . S
C239 C238 1.383 . S
C239 C240 1.388 . S
C240 H221 0.946 . S
C240 C239 1.388 . S
C240 C241 1.384 . S
C241 C240 1.384 . S
C241 C242 1.377 . S
C242 H222 0.953 . S
C242 C241 1.377 . S
C242 C243 1.369 . S
C243 H223 0.945 . S
C243 C238 1.385 . S
C243 C242 1.369 . S
C244 C236 1.457 . S
C244 C245 1.372 . S
C244 C249 1.364 . S
C245 H224 0.952 . S
C245 C244 1.372 . S
C245 C246 1.389 . S
C246 H225 0.949 . S
C246 C245 1.389 . S
C246 C247 1.387 . S
C247 C246 1.387 . S
C247 C248 1.372 . S
C248 H226 0.950 . S
C248 C247 1.372 . S
C248 C249 1.379 . S
C249 H227 0.948 . S
C249 C244 1.364 . S
C249 C248 1.379 . S
C250 C219 1.383 . S
C250 C237 1.479 . S
C250 C251 1.398 . S
C251 C216 1.382 . S
C251 H228 0.951 . S
C251 C250 1.398 . S
C252 C253 1.384 . S
C252 H265 0.947 . S
C252 C287 1.382 . S
C253 C252 1.384 . S
C253 C254 1.378 . S
C254 C253 1.378 . S
C254 C255 1.378 . S
C254 H266 0.952 . S
C255 C254 1.378 . S
C255 H267 0.950 . S
C255 C286 1.383 . S
H256 C275 0.947 . S
H257 C276 0.946 . S
H258 C278 0.953 . S
H259 C279 0.945 . S
H260 C281 0.952 . S
H261 C282 0.949 . S
H262 C284 0.950 . S
H263 C285 0.948 . S
H264 C287 0.951 . S
H265 C252 0.947 . S
H266 C254 0.952 . S
H267 C255 0.950 . S
N268 C271 1.382 . S
N268 C273 1.363 . S
N269 C271 1.371 . S
N269 C272 1.372 . S
N270 C272 1.361 . S
N270 C273 1.377 . S
C271 N268 1.382 . S
C271 N269 1.371 . S
C271 C274 1.480 . S
C272 N269 1.372 . S
C272 N270 1.361 . S
C272 C280 1.457 . S
C273 N268 1.363 . S
C273 N270 1.377 . S
C273 C286 1.479 . S
C274 C271 1.480 . S
C274 C275 1.383 . S
C274 C279 1.385 . S
C275 H256 0.947 . S
C275 C274 1.383 . S
C275 C276 1.388 . S
C276 H257 0.946 . S
C276 C275 1.388 . S
C276 C277 1.384 . S
C277 C276 1.384 . S
C277 C278 1.377 . S
C278 H258 0.953 . S
C278 C277 1.377 . S
C278 C279 1.369 . S
C279 H259 0.945 . S
C279 C274 1.385 . S
C279 C278 1.369 . S
C280 C272 1.457 . S
C280 C281 1.372 . S
C280 C285 1.364 . S
C281 H260 0.952 . S
C281 C280 1.372 . S
C281 C282 1.389 . S
C282 H261 0.949 . S
C282 C281 1.389 . S
C282 C283 1.387 . S
C283 C282 1.387 . S
C283 C284 1.372 . S
C284 H262 0.950 . S
C284 C283 1.372 . S
C284 C285 1.379 . S
C285 H263 0.948 . S
C285 C280 1.364 . S
C285 C284 1.379 . S
C286 C255 1.383 . S
C286 C273 1.479 . S
C286 C287 1.398 . S
C287 C252 1.382 . S
C287 H264 0.951 . S
C287 C286 1.398 . S
C288 C289 1.384 . S
C288 H301 0.947 . S
C288 C323 1.382 . S
C289 C288 1.384 . S
C289 C290 1.378 . S
C290 C289 1.378 . S
C290 C291 1.378 . S
C290 H302 0.952 . S
C291 C290 1.378 . S
C291 H303 0.950 . S
C291 C322 1.383 . S
H292 C311 0.947 . S
H293 C312 0.946 . S
H294 C314 0.953 . S
H295 C315 0.945 . S
H296 C317 0.952 . S
H297 C318 0.949 . S
H298 C320 0.950 . S
H299 C321 0.948 . S
H300 C323 0.951 . S
H301 C288 0.947 . S
H302 C290 0.952 . S
H303 C291 0.950 . S
N304 C307 1.382 . S
N304 C309 1.363 . S
N305 C307 1.371 . S
N305 C308 1.372 . S
N306 C308 1.361 . S
N306 C309 1.377 . S
C307 N304 1.382 . S
C307 N305 1.371 . S
C307 C310 1.480 . S
C308 N305 1.372 . S
C308 N306 1.361 . S
C308 C316 1.457 . S
C309 N304 1.363 . S
C309 N306 1.377 . S
C309 C322 1.479 . S
C310 C307 1.480 . S
C310 C311 1.383 . S
C310 C315 1.385 . S
C311 H292 0.947 . S
C311 C310 1.383 . S
C311 C312 1.388 . S
C312 H293 0.946 . S
C312 C311 1.388 . S
C312 C313 1.384 . S
C313 C312 1.384 . S
C313 C314 1.377 . S
C314 H294 0.953 . S
C314 C313 1.377 . S
C314 C315 1.369 . S
C315 H295 0.945 . S
C315 C310 1.385 . S
C315 C314 1.369 . S
C316 C308 1.457 . S
C316 C317 1.372 . S
C316 C321 1.364 . S
C317 H296 0.952 . S
C317 C316 1.372 . S
C317 C318 1.389 . S
C318 H297 0.949 . S
C318 C317 1.389 . S
C318 C319 1.387 . S
C319 C318 1.387 . S
C319 C320 1.372 . S
C320 H298 0.950 . S
C320 C319 1.372 . S
C320 C321 1.379 . S
C321 H299 0.948 . S
C321 C316 1.364 . S
C321 C320 1.379 . S
C322 C291 1.383 . S
C322 C309 1.479 . S
C322 C323 1.398 . S
C323 C288 1.382 . S
C323 H300 0.951 . S
C323 C322 1.398 . S
C324 C325 1.384 . S
C324 H337 0.947 . S
C324 C359 1.382 . S
C325 C324 1.384 . S
C325 C326 1.378 . S
C326 C325 1.378 . S
C326 C327 1.378 . S
C326 H338 0.952 . S
C327 C326 1.378 . S
C327 H339 0.950 . S
C327 C358 1.383 . S
H328 C347 0.947 . S
H329 C348 0.946 . S
H330 C350 0.953 . S
H331 C351 0.945 . S
H332 C353 0.952 . S
H333 C354 0.949 . S
H334 C356 0.950 . S
H335 C357 0.948 . S
H336 C359 0.951 . S
H337 C324 0.947 . S
H338 C326 0.952 . S
H339 C327 0.950 . S
N340 C343 1.382 . S
N340 C345 1.363 . S
N341 C343 1.371 . S
N341 C344 1.372 . S
N342 C344 1.361 . S
N342 C345 1.377 . S
C343 N340 1.382 . S
C343 N341 1.371 . S
C343 C346 1.480 . S
C344 N341 1.372 . S
C344 N342 1.361 . S
C344 C352 1.457 . S
C345 N340 1.363 . S
C345 N342 1.377 . S
C345 C358 1.479 . S
C346 C343 1.480 . S
C346 C347 1.383 . S
C346 C351 1.385 . S
C347 H328 0.947 . S
C347 C346 1.383 . S
C347 C348 1.388 . S
C348 H329 0.946 . S
C348 C347 1.388 . S
C348 C349 1.384 . S
C349 C348 1.384 . S
C349 C350 1.377 . S
C350 H330 0.953 . S
C350 C349 1.377 . S
C350 C351 1.369 . S
C351 H331 0.945 . S
C351 C346 1.385 . S
C351 C350 1.369 . S
C352 C344 1.457 . S
C352 C353 1.372 . S
C352 C357 1.364 . S
C353 H332 0.952 . S
C353 C352 1.372 . S
C353 C354 1.389 . S
C354 H333 0.949 . S
C354 C353 1.389 . S
C354 C355 1.387 . S
C355 C354 1.387 . S
C355 C356 1.372 . S
C356 H334 0.950 . S
C356 C355 1.372 . S
C356 C357 1.379 . S
C357 H335 0.948 . S
C357 C352 1.364 . S
C357 C356 1.379 . S
C358 C327 1.383 . S
C358 C345 1.479 . S
C358 C359 1.398 . S
C359 C324 1.382 . S
C359 H336 0.951 . S
C359 C358 1.398 . S
C360 C361 1.384 . S
C360 H373 0.947 . S
C360 C395 1.382 . S
C361 C360 1.384 . S
C361 C362 1.378 . S
C362 C361 1.378 . S
C362 C363 1.378 . S
C362 H374 0.952 . S
C363 C362 1.378 . S
C363 H375 0.950 . S
C363 C394 1.383 . S
H364 C383 0.947 . S
H365 C384 0.946 . S
H366 C386 0.953 . S
H367 C387 0.945 . S
H368 C389 0.952 . S
H369 C390 0.949 . S
H370 C392 0.950 . S
H371 C393 0.948 . S
H372 C395 0.951 . S
H373 C360 0.947 . S
H374 C362 0.952 . S
H375 C363 0.950 . S
N376 C379 1.382 . S
N376 C381 1.363 . S
N377 C379 1.371 . S
N377 C380 1.372 . S
N378 C380 1.361 . S
N378 C381 1.377 . S
C379 N376 1.382 . S
C379 N377 1.371 . S
C379 C382 1.480 . S
C380 N377 1.372 . S
C380 N378 1.361 . S
C380 C388 1.457 . S
C381 N376 1.363 . S
C381 N378 1.377 . S
C381 C394 1.479 . S
C382 C379 1.480 . S
C382 C383 1.383 . S
C382 C387 1.385 . S
C383 H364 0.947 . S
C383 C382 1.383 . S
C383 C384 1.388 . S
C384 H365 0.946 . S
C384 C383 1.388 . S
C384 C385 1.384 . S
C385 C384 1.384 . S
C385 C386 1.377 . S
C386 H366 0.953 . S
C386 C385 1.377 . S
C386 C387 1.369 . S
C387 H367 0.945 . S
C387 C382 1.385 . S
C387 C386 1.369 . S
C388 C380 1.457 . S
C388 C389 1.372 . S
C388 C393 1.364 . S
C389 H368 0.952 . S
C389 C388 1.372 . S
C389 C390 1.389 . S
C390 H369 0.949 . S
C390 C389 1.389 . S
C390 C391 1.387 . S
C391 C390 1.387 . S
C391 C392 1.372 . S
C392 H370 0.950 . S
C392 C391 1.372 . S
C392 C393 1.379 . S
C393 H371 0.948 . S
C393 C388 1.364 . S
C393 C392 1.379 . S
C394 C363 1.383 . S
C394 C381 1.479 . S
C394 C395 1.398 . S
C395 C360 1.382 . S
C395 H372 0.951 . S
C395 C394 1.398 . S
C396 C397 1.384 . S
C396 H409 0.947 . S
C396 C431 1.382 . S
C397 C396 1.384 . S
C397 C398 1.378 . S
C398 C397 1.378 . S
C398 C399 1.378 . S
C398 H410 0.952 . S
C399 C398 1.378 . S
C399 H411 0.950 . S
C399 C430 1.383 . S
H400 C419 0.947 . S
H401 C420 0.946 . S
H402 C422 0.953 . S
H403 C423 0.945 . S
H404 C425 0.952 . S
H405 C426 0.949 . S
H406 C428 0.950 . S
H407 C429 0.948 . S
H408 C431 0.951 . S
H409 C396 0.947 . S
H410 C398 0.952 . S
H411 C399 0.950 . S
N412 C415 1.382 . S
N412 C417 1.363 . S
N413 C415 1.371 . S
N413 C416 1.372 . S
N414 C416 1.361 . S
N414 C417 1.377 . S
C415 N412 1.382 . S
C415 N413 1.371 . S
C415 C418 1.480 . S
C416 N413 1.372 . S
C416 N414 1.361 . S
C416 C424 1.457 . S
C417 N412 1.363 . S
C417 N414 1.377 . S
C417 C430 1.479 . S
C418 C415 1.480 . S
C418 C419 1.383 . S
C418 C423 1.385 . S
C419 H400 0.947 . S
C419 C418 1.383 . S
C419 C420 1.388 . S
C420 H401 0.946 . S
C420 C419 1.388 . S
C420 C421 1.384 . S
C421 C420 1.384 . S
C421 C422 1.377 . S
C422 H402 0.953 . S
C422 C421 1.377 . S
C422 C423 1.369 . S
C423 H403 0.945 . S
C423 C418 1.385 . S
C423 C422 1.369 . S
C424 C416 1.457 . S
C424 C425 1.372 . S
C424 C429 1.364 . S
C425 H404 0.952 . S
C425 C424 1.372 . S
C425 C426 1.389 . S
C426 H405 0.949 . S
C426 C425 1.389 . S
C426 C427 1.387 . S
C427 C426 1.387 . S
C427 C428 1.372 . S
C428 H406 0.950 . S
C428 C427 1.372 . S
C428 C429 1.379 . S
C429 H407 0.948 . S
C429 C424 1.364 . S
C429 C428 1.379 . S
C430 C399 1.383 . S
C430 C417 1.479 . S
C430 C431 1.398 . S
C431 C396 1.382 . S
C431 H408 0.951 . S
C431 C430 1.398 . S
C432 C433 1.384 . S
C432 H445 0.947 . S
C432 C467 1.382 . S
C433 C432 1.384 . S
C433 C434 1.378 . S
C434 C433 1.378 . S
C434 C435 1.378 . S
C434 H446 0.952 . S
C435 C434 1.378 . S
C435 H447 0.950 . S
C435 C466 1.383 . S
H436 C455 0.947 . S
H437 C456 0.946 . S
H438 C458 0.953 . S
H439 C459 0.945 . S
H440 C461 0.952 . S
H441 C462 0.949 . S
H442 C464 0.950 . S
H443 C465 0.948 . S
H444 C467 0.951 . S
H445 C432 0.947 . S
H446 C434 0.952 . S
H447 C435 0.950 . S
N448 C451 1.382 . S
N448 C453 1.363 . S
N449 C451 1.371 . S
N449 C452 1.372 . S
N450 C452 1.361 . S
N450 C453 1.377 . S
C451 N448 1.382 . S
C451 N449 1.371 . S
C451 C454 1.480 . S
C452 N449 1.372 . S
C452 N450 1.361 . S
C452 C460 1.457 . S
C453 N448 1.363 . S
C453 N450 1.377 . S
C453 C466 1.479 . S
C454 C451 1.480 . S
C454 C455 1.383 . S
C454 C459 1.385 . S
C455 H436 0.947 . S
C455 C454 1.383 . S
C455 C456 1.388 . S
C456 H437 0.946 . S
C456 C455 1.388 . S
C456 C457 1.384 . S
C457 C456 1.384 . S
C457 C458 1.377 . S
C458 H438 0.953 . S
C458 C457 1.377 . S
C458 C459 1.369 . S
C459 H439 0.945 . S
C459 C454 1.385 . S
C459 C458 1.369 . S
C460 C452 1.457 . S
C460 C461 1.372 . S
C460 C465 1.364 . S
C461 H440 0.952 . S
C461 C460 1.372 . S
C461 C462 1.389 . S
C462 H441 0.949 . S
C462 C461 1.389 . S
C462 C463 1.387 . S
C463 C462 1.387 . S
C463 C464 1.372 . S
C464 H442 0.950 . S
C464 C463 1.372 . S
C464 C465 1.379 . S
C465 H443 0.948 . S
C465 C460 1.364 . S
C465 C464 1.379 . S
C466 C435 1.383 . S
C466 C453 1.479 . S
C466 C467 1.398 . S
C467 C432 1.382 . S
C467 H444 0.951 . S
C467 C466 1.398 . S
C468 C469 1.384 . S
C468 H481 0.947 . S
C468 C503 1.382 . S
C469 C468 1.384 . S
C469 C470 1.378 . S
C470 C469 1.378 . S
C470 C471 1.378 . S
C470 H482 0.952 . S
C471 C470 1.378 . S
C471 H483 0.950 . S
C471 C502 1.383 . S
H472 C491 0.947 . S
H473 C492 0.946 . S
H474 C494 0.953 . S
H475 C495 0.945 . S
H476 C497 0.952 . S
H477 C498 0.949 . S
H478 C500 0.950 . S
H479 C501 0.948 . S
H480 C503 0.951 . S
H481 C468 0.947 . S
H482 C470 0.952 . S
H483 C471 0.950 . S
N484 C487 1.382 . S
N484 C489 1.363 . S
N485 C487 1.371 . S
N485 C488 1.372 . S
N486 C488 1.361 . S
N486 C489 1.377 . S
C487 N484 1.382 . S
C487 N485 1.371 . S
C487 C490 1.480 . S
C488 N485 1.372 . S
C488 N486 1.361 . S
C488 C496 1.457 . S
C489 N484 1.363 . S
C489 N486 1.377 . S
C489 C502 1.479 . S
C490 C487 1.480 . S
C490 C491 1.383 . S
C490 C495 1.385 . S
C491 H472 0.947 . S
C491 C490 1.383 . S
C491 C492 1.388 . S
C492 H473 0.946 . S
C492 C491 1.388 . S
C492 C493 1.384 . S
C493 C492 1.384 . S
C493 C494 1.377 . S
C494 H474 0.953 . S
C494 C493 1.377 . S
C494 C495 1.369 . S
C495 H475 0.945 . S
C495 C490 1.385 . S
C495 C494 1.369 . S
C496 C488 1.457 . S
C496 C497 1.372 . S
C496 C501 1.364 . S
C497 H476 0.952 . S
C497 C496 1.372 . S
C497 C498 1.389 . S
C498 H477 0.949 . S
C498 C497 1.389 . S
C498 C499 1.387 . S
C499 C498 1.387 . S
C499 C500 1.372 . S
C500 H478 0.950 . S
C500 C499 1.372 . S
C500 C501 1.379 . S
C501 H479 0.948 . S
C501 C496 1.364 . S
C501 C500 1.379 . S
C502 C471 1.383 . S
C502 C489 1.479 . S
C502 C503 1.398 . S
C503 C468 1.382 . S
C503 H480 0.951 . S
C503 C502 1.398 . S
C504 C505 1.384 . S
C504 H517 0.947 . S
C504 C539 1.382 . S
C505 C504 1.384 . S
C505 C506 1.378 . S
C506 C505 1.378 . S
C506 C507 1.378 . S
C506 H518 0.952 . S
C507 C506 1.378 . S
C507 H519 0.950 . S
C507 C538 1.383 . S
H508 C527 0.947 . S
H509 C528 0.946 . S
H510 C530 0.953 . S
H511 C531 0.945 . S
H512 C533 0.952 . S
H513 C534 0.949 . S
H514 C536 0.950 . S
H515 C537 0.948 . S
H516 C539 0.951 . S
H517 C504 0.947 . S
H518 C506 0.952 . S
H519 C507 0.950 . S
N520 C523 1.382 . S
N520 C525 1.363 . S
N521 C523 1.371 . S
N521 C524 1.372 . S
N522 C524 1.361 . S
N522 C525 1.377 . S
C523 N520 1.382 . S
C523 N521 1.371 . S
C523 C526 1.480 . S
C524 N521 1.372 . S
C524 N522 1.361 . S
C524 C532 1.457 . S
C525 N520 1.363 . S
C525 N522 1.377 . S
C525 C538 1.479 . S
C526 C523 1.480 . S
C526 C527 1.383 . S
C526 C531 1.385 . S
C527 H508 0.947 . S
C527 C526 1.383 . S
C527 C528 1.388 . S
C528 H509 0.946 . S
C528 C527 1.388 . S
C528 C529 1.384 . S
C529 C528 1.384 . S
C529 C530 1.377 . S
C530 H510 0.953 . S
C530 C529 1.377 . S
C530 C531 1.369 . S
C531 H511 0.945 . S
C531 C526 1.385 . S
C531 C530 1.369 . S
C532 C524 1.457 . S
C532 C533 1.372 . S
C532 C537 1.364 . S
C533 H512 0.952 . S
C533 C532 1.372 . S
C533 C534 1.389 . S
C534 H513 0.949 . S
C534 C533 1.389 . S
C534 C535 1.387 . S
C535 C534 1.387 . S
C535 C536 1.372 . S
C536 H514 0.950 . S
C536 C535 1.372 . S
C536 C537 1.379 . S
C537 H515 0.948 . S
C537 C532 1.364 . S
C537 C536 1.379 . S
C538 C507 1.383 . S
C538 C525 1.479 . S
C538 C539 1.398 . S
C539 C504 1.382 . S
C539 H516 0.951 . S
C539 C538 1.398 . S
C540 C541 1.384 . S
C540 H553 0.947 . S
C540 C575 1.382 . S
C541 C540 1.384 . S
C541 C542 1.378 . S
C542 C541 1.378 . S
C542 C543 1.378 . S
C542 H554 0.952 . S
C543 C542 1.378 . S
C543 H555 0.950 . S
C543 C574 1.383 . S
H544 C563 0.947 . S
H545 C564 0.946 . S
H546 C566 0.953 . S
H547 C567 0.945 . S
H548 C569 0.952 . S
H549 C570 0.949 . S
H550 C572 0.950 . S
H551 C573 0.948 . S
H552 C575 0.951 . S
H553 C540 0.947 . S
H554 C542 0.952 . S
H555 C543 0.950 . S
N556 C559 1.382 . S
N556 C561 1.363 . S
N557 C559 1.371 . S
N557 C560 1.372 . S
N558 C560 1.361 . S
N558 C561 1.377 . S
C559 N556 1.382 . S
C559 N557 1.371 . S
C559 C562 1.480 . S
C560 N557 1.372 . S
C560 N558 1.361 . S
C560 C568 1.457 . S
C561 N556 1.363 . S
C561 N558 1.377 . S
C561 C574 1.479 . S
C562 C559 1.480 . S
C562 C563 1.383 . S
C562 C567 1.385 . S
C563 H544 0.947 . S
C563 C562 1.383 . S
C563 C564 1.388 . S
C564 H545 0.946 . S
C564 C563 1.388 . S
C564 C565 1.384 . S
C565 C564 1.384 . S
C565 C566 1.377 . S
C566 H546 0.953 . S
C566 C565 1.377 . S
C566 C567 1.369 . S
C567 H547 0.945 . S
C567 C562 1.385 . S
C567 C566 1.369 . S
C568 C560 1.457 . S
C568 C569 1.372 . S
C568 C573 1.364 . S
C569 H548 0.952 . S
C569 C568 1.372 . S
C569 C570 1.389 . S
C570 H549 0.949 . S
C570 C569 1.389 . S
C570 C571 1.387 . S
C571 C570 1.387 . S
C571 C572 1.372 . S
C572 H550 0.950 . S
C572 C571 1.372 . S
C572 C573 1.379 . S
C573 H551 0.948 . S
C573 C568 1.364 . S
C573 C572 1.379 . S
C574 C543 1.383 . S
C574 C561 1.479 . S
C574 C575 1.398 . S
C575 C540 1.382 . S
C575 H552 0.951 . S
C575 C574 1.398 . S
C576 C577 1.384 . S
C576 H589 0.947 . S
C576 C611 1.382 . S
C577 C576 1.384 . S
C577 C578 1.378 . S
C578 C577 1.378 . S
C578 C579 1.378 . S
C578 H590 0.952 . S
C579 C578 1.378 . S
C579 H591 0.950 . S
C579 C610 1.383 . S
H580 C599 0.947 . S
H581 C600 0.946 . S
H582 C602 0.953 . S
H583 C603 0.945 . S
H584 C605 0.952 . S
H585 C606 0.949 . S
H586 C608 0.950 . S
H587 C609 0.948 . S
H588 C611 0.951 . S
H589 C576 0.947 . S
H590 C578 0.952 . S
H591 C579 0.950 . S
N592 C595 1.382 . S
N592 C597 1.363 . S
N593 C595 1.371 . S
N593 C596 1.372 . S
N594 C596 1.361 . S
N594 C597 1.377 . S
C595 N592 1.382 . S
C595 N593 1.371 . S
C595 C598 1.480 . S
C596 N593 1.372 . S
C596 N594 1.361 . S
C596 C604 1.457 . S
C597 N592 1.363 . S
C597 N594 1.377 . S
C597 C610 1.479 . S
C598 C595 1.480 . S
C598 C599 1.383 . S
C598 C603 1.385 . S
C599 H580 0.947 . S
C599 C598 1.383 . S
C599 C600 1.388 . S
C600 H581 0.946 . S
C600 C599 1.388 . S
C600 C601 1.384 . S
C601 C600 1.384 . S
C601 C602 1.377 . S
C602 H582 0.953 . S
C602 C601 1.377 . S
C602 C603 1.369 . S
C603 H583 0.945 . S
C603 C598 1.385 . S
C603 C602 1.369 . S
C604 C596 1.457 . S
C604 C605 1.372 . S
C604 C609 1.364 . S
C605 H584 0.952 . S
C605 C604 1.372 . S
C605 C606 1.389 . S
C606 H585 0.949 . S
C606 C605 1.389 . S
C606 C607 1.387 . S
C607 C606 1.387 . S
C607 C608 1.372 . S
C608 H586 0.950 . S
C608 C607 1.372 . S
C608 C609 1.379 . S
C609 H587 0.948 . S
C609 C604 1.364 . S
C609 C608 1.379 . S
C610 C579 1.383 . S
C610 C597 1.479 . S
C610 C611 1.398 . S
C611 C576 1.382 . S
C611 H588 0.951 . S
C611 C610 1.398 . S
C612 C613 1.384 . S
C612 H625 0.947 . S
C612 C647 1.382 . S
C613 C612 1.384 . S
C613 C614 1.378 . S
C614 C613 1.378 . S
C614 C615 1.378 . S
C614 H626 0.952 . S
C615 C614 1.378 . S
C615 H627 0.950 . S
C615 C646 1.383 . S
H616 C635 0.947 . S
H617 C636 0.946 . S
H618 C638 0.953 . S
H619 C639 0.945 . S
H620 C641 0.952 . S
H621 C642 0.949 . S
H622 C644 0.950 . S
H623 C645 0.948 . S
H624 C647 0.951 . S
H625 C612 0.947 . S
H626 C614 0.952 . S
H627 C615 0.950 . S
N628 C631 1.382 . S
N628 C633 1.363 . S
N629 C631 1.371 . S
N629 C632 1.372 . S
N630 C632 1.361 . S
N630 C633 1.377 . S
C631 N628 1.382 . S
C631 N629 1.371 . S
C631 C634 1.480 . S
C632 N629 1.372 . S
C632 N630 1.361 . S
C632 C640 1.457 . S
C633 N628 1.363 . S
C633 N630 1.377 . S
C633 C646 1.479 . S
C634 C631 1.480 . S
C634 C635 1.383 . S
C634 C639 1.385 . S
C635 H616 0.947 . S
C635 C634 1.383 . S
C635 C636 1.388 . S
C636 H617 0.946 . S
C636 C635 1.388 . S
C636 C637 1.384 . S
C637 C636 1.384 . S
C637 C638 1.377 . S
C638 H618 0.953 . S
C638 C637 1.377 . S
C638 C639 1.369 . S
C639 H619 0.945 . S
C639 C634 1.385 . S
C639 C638 1.369 . S
C640 C632 1.457 . S
C640 C641 1.372 . S
C640 C645 1.364 . S
C641 H620 0.952 . S
C641 C640 1.372 . S
C641 C642 1.389 . S
C642 H621 0.949 . S
C642 C641 1.389 . S
C642 C643 1.387 . S
C643 C642 1.387 . S
C643 C644 1.372 . S
C644 H622 0.950 . S
C644 C643 1.372 . S
C644 C645 1.379 . S
C645 H623 0.948 . S
C645 C640 1.364 . S
C645 C644 1.379 . S
C646 C615 1.383 . S
C646 C633 1.479 . S
C646 C647 1.398 . S
C647 C612 1.382 . S
C647 H624 0.951 . S
C647 C646 1.398 . S
Gd648 N679 2.661 . S
Gd648 N685 2.601 . S
Gd648 O692 2.545 . S
Gd648 O693 2.606 1_545 S
Gd648 O695 2.429 . S
Gd648 O696 2.545 1_545 S
Gd648 O697 2.412 . S
Gd648 O699 2.362 1_554 S
Gd648 O700 2.324 1_545 S
Gd648 C707 2.828 . S
Gd649 N658 2.661 . S
Gd649 N662 2.601 . S
Gd649 O693 2.362 1_556 S
Gd649 O694 2.324 1_565 S
Gd649 O698 2.545 . S
Gd649 O699 2.606 1_565 S
Gd649 O701 2.429 . S
Gd649 O702 2.545 1_565 S
Gd649 O703 2.412 . S
Gd649 C716 2.828 . S
C650 C653 1.417 . S
C650 C655 1.431 . S
C650 C656 1.412 . S
C651 C654 1.437 . S
C651 C655 1.317 . S
C651 H670 0.929 . S
C652 C653 1.426 . S
C652 C654 1.413 . S
C652 N662 1.359 . S
C653 C650 1.417 . S
C653 C652 1.426 . S
C653 N658 1.350 . S
C654 C651 1.437 . S
C654 C652 1.413 . S
C654 C664 1.391 . S
C655 C650 1.431 . S
C655 C651 1.317 . S
C655 H666 0.930 . S
C656 C650 1.412 . S
C656 C657 1.355 . S
C656 H668 0.930 . S
C657 C656 1.355 . S
C657 C659 1.402 . S
C657 H669 0.930 . S
N658 Gd649 2.661 . S
N658 C653 1.350 . S
N658 C659 1.307 . S
C659 C657 1.402 . S
C659 N658 1.307 . S
C659 H660 0.930 . S
H660 C659 0.930 . S
C661 N662 1.334 . S
C661 C663 1.394 . S
C661 H665 0.930 . S
N662 Gd649 2.601 . S
N662 C652 1.359 . S
N662 C661 1.334 . S
C663 C661 1.394 . S
C663 C664 1.359 . S
C663 H675 0.930 . S
C664 C654 1.391 . S
C664 C663 1.359 . S
C664 H676 0.929 . S
H665 C661 0.930 . S
H666 C655 0.930 . S
H667 C684 0.930 . S
H668 C656 0.930 . S
H669 C657 0.930 . S
H670 C651 0.929 . S
H671 C689 0.930 . S
H672 C680 0.930 . S
H673 C681 0.930 . S
H674 C705 0.929 . S
H675 C663 0.930 . S
H676 C664 0.929 . S
H677 C706 0.930 . S
H678 C687 0.930 . S
N679 Gd648 2.661 . S
N679 C683 1.350 . S
N679 C684 1.307 . S
C680 H672 0.930 . S
C680 C681 1.355 . S
C680 C682 1.412 . S
C681 H673 0.930 . S
C681 C680 1.355 . S
C681 C684 1.402 . S
C682 C680 1.412 . S
C682 C683 1.417 . S
C682 C706 1.431 . S
C683 N679 1.350 . S
C683 C682 1.417 . S
C683 C686 1.426 . S
C684 H667 0.930 . S
C684 N679 1.307 . S
C684 C681 1.402 . S
N685 Gd648 2.601 . S
N685 C686 1.359 . S
N685 C689 1.334 . S
C686 C683 1.426 . S
C686 N685 1.359 . S
C686 C690 1.413 . S
C687 H678 0.930 . S
C687 C688 1.359 . S
C687 C689 1.394 . S
C688 C687 1.359 . S
C688 C690 1.391 . S
C688 H691 0.929 . S
C689 H671 0.930 . S
C689 N685 1.334 . S
C689 C687 1.394 . S
C690 C686 1.413 . S
C690 C688 1.391 . S
C690 C705 1.437 . S
H691 C688 0.929 . S
O692 Gd648 2.545 . S
O692 C707 1.258 . S
O693 Gd648 2.606 1_565 S
O693 Gd649 2.362 1_554 S
O693 C704 1.284 . S
O694 Gd649 2.324 1_545 S
O694 C714 1.254 . S
O695 Gd648 2.429 . S
O695 C714 1.268 1_554 S
O696 Gd648 2.545 1_565 S
O696 C704 1.250 . S
O697 Gd648 2.412 . S
O697 C707 1.252 . S
O698 Gd649 2.545 . S
O698 C716 1.258 . S
O699 Gd648 2.362 1_556 S
O699 Gd649 2.606 1_545 S
O699 C715 1.284 . S
O700 Gd648 2.324 1_565 S
O700 C723 1.254 . S
O701 Gd649 2.429 . S
O701 C723 1.268 1_556 S
O702 Gd649 2.545 1_545 S
O702 C715 1.250 . S
O703 Gd649 2.412 . S
O703 C716 1.252 . S
C704 O693 1.284 . S
C704 O696 1.250 . S
C705 H674 0.929 . S
C705 C690 1.437 . S
C705 C706 1.317 . S
C706 H677 0.930 . S
C706 C682 1.431 . S
C706 C705 1.317 . S
C707 Gd648 2.828 . S
C707 O692 1.258 . S
C707 O697 1.252 . S
C707 C708 1.497 . S
C708 C707 1.497 . S
C708 C709 1.395 . S
C708 C710 1.380 1_545 S
C709 C708 1.395 . S
C709 C712 1.398 . S
C709 H724 0.930 . S
C710 C708 1.380 1_565 S
C710 C711 1.391 . S
C710 H725 0.930 . S
C711 C710 1.391 . S
C711 C713 1.387 1_565 S
C712 C709 1.398 . S
C712 C713 1.380 . S
C712 H726 0.930 . S
C713 C711 1.387 1_545 S
C713 C712 1.380 . S
C713 H727 0.930 . S
C714 O694 1.254 . S
C714 O695 1.268 1_556 S
C715 O699 1.284 . S
C715 O702 1.250 . S
C716 Gd649 2.828 . S
C716 O698 1.258 . S
C716 O703 1.252 . S
C716 C717 1.497 . S
C717 C716 1.497 . S
C717 C718 1.395 . S
C717 C719 1.380 1_565 S
C718 C717 1.395 . S
C718 C721 1.398 . S
C718 H728 0.930 . S
C719 C717 1.380 1_545 S
C719 C720 1.391 . S
C719 H729 0.930 . S
C720 C719 1.391 . S
C720 C722 1.387 1_545 S
C721 C718 1.398 . S
C721 C722 1.380 . S
C721 H730 0.930 . S
C722 C720 1.387 1_565 S
C722 C721 1.380 . S
C722 H731 0.930 . S
C723 O700 1.254 . S
C723 O701 1.268 1_554 S
H724 C709 0.930 . S
H725 C710 0.930 . S
H726 C712 0.930 . S
H727 C713 0.930 . S
H728 C718 0.930 . S
H729 C719 0.930 . S
H730 C721 0.930 . S
H731 C722 0.930 . S
Gd732 N763 2.661 . S
Gd732 N769 2.601 . S
Gd732 O776 2.545 . S
Gd732 O777 2.606 1_655 S
Gd732 O779 2.429 . S
Gd732 O780 2.545 1_655 S
Gd732 O781 2.412 . S
Gd732 O783 2.362 1_554 S
Gd732 O784 2.324 1_655 S
Gd732 C791 2.828 . S
Gd733 N742 2.661 . S
Gd733 N746 2.601 . S
Gd733 O777 2.362 1_556 S
Gd733 O778 2.324 1_455 S
Gd733 O782 2.545 . S
Gd733 O783 2.606 1_455 S
Gd733 O785 2.429 . S
Gd733 O786 2.545 1_455 S
Gd733 O787 2.412 . S
Gd733 C800 2.828 . S
C734 C737 1.417 . S
C734 C739 1.431 . S
C734 C740 1.412 . S
C735 C738 1.437 . S
C735 C739 1.317 . S
C735 H754 0.929 . S
C736 C737 1.426 . S
C736 C738 1.413 . S
C736 N746 1.359 . S
C737 C734 1.417 . S
C737 C736 1.426 . S
C737 N742 1.350 . S
C738 C735 1.437 . S
C738 C736 1.413 . S
C738 C748 1.391 . S
C739 C734 1.431 . S
C739 C735 1.317 . S
C739 H750 0.930 . S
C740 C734 1.412 . S
C740 C741 1.355 . S
C740 H752 0.930 . S
C741 C740 1.355 . S
C741 C743 1.402 . S
C741 H753 0.930 . S
N742 Gd733 2.661 . S
N742 C737 1.350 . S
N742 C743 1.307 . S
C743 C741 1.402 . S
C743 N742 1.307 . S
C743 H744 0.930 . S
H744 C743 0.930 . S
C745 N746 1.334 . S
C745 C747 1.394 . S
C745 H749 0.930 . S
N746 Gd733 2.601 . S
N746 C736 1.359 . S
N746 C745 1.334 . S
C747 C745 1.394 . S
C747 C748 1.359 . S
C747 H759 0.930 . S
C748 C738 1.391 . S
C748 C747 1.359 . S
C748 H760 0.929 . S
H749 C745 0.930 . S
H750 C739 0.930 . S
H751 C768 0.930 . S
H752 C740 0.930 . S
H753 C741 0.930 . S
H754 C735 0.929 . S
H755 C773 0.930 . S
H756 C764 0.930 . S
H757 C765 0.930 . S
H758 C789 0.929 . S
H759 C747 0.930 . S
H760 C748 0.929 . S
H761 C790 0.930 . S
H762 C771 0.930 . S
N763 Gd732 2.661 . S
N763 C767 1.350 . S
N763 C768 1.307 . S
C764 H756 0.930 . S
C764 C765 1.355 . S
C764 C766 1.412 . S
C765 H757 0.930 . S
C765 C764 1.355 . S
C765 C768 1.402 . S
C766 C764 1.412 . S
C766 C767 1.417 . S
C766 C790 1.431 . S
C767 N763 1.350 . S
C767 C766 1.417 . S
C767 C770 1.426 . S
C768 H751 0.930 . S
C768 N763 1.307 . S
C768 C765 1.402 . S
N769 Gd732 2.601 . S
N769 C770 1.359 . S
N769 C773 1.334 . S
C770 C767 1.426 . S
C770 N769 1.359 . S
C770 C774 1.413 . S
C771 H762 0.930 . S
C771 C772 1.359 . S
C771 C773 1.394 . S
C772 C771 1.359 . S
C772 C774 1.391 . S
C772 H775 0.929 . S
C773 H755 0.930 . S
C773 N769 1.334 . S
C773 C771 1.394 . S
C774 C770 1.413 . S
C774 C772 1.391 . S
C774 C789 1.437 . S
H775 C772 0.929 . S
O776 Gd732 2.545 . S
O776 C791 1.258 . S
O777 Gd732 2.606 1_455 S
O777 Gd733 2.362 1_554 S
O777 C788 1.284 . S
O778 Gd733 2.324 1_655 S
O778 C798 1.254 . S
O779 Gd732 2.429 . S
O779 C798 1.268 1_554 S
O780 Gd732 2.545 1_455 S
O780 C788 1.250 . S
O781 Gd732 2.412 . S
O781 C791 1.252 . S
O782 Gd733 2.545 . S
O782 C800 1.258 . S
O783 Gd732 2.362 1_556 S
O783 Gd733 2.606 1_655 S
O783 C799 1.284 . S
O784 Gd732 2.324 1_455 S
O784 C807 1.254 . S
O785 Gd733 2.429 . S
O785 C807 1.268 1_556 S
O786 Gd733 2.545 1_655 S
O786 C799 1.250 . S
O787 Gd733 2.412 . S
O787 C800 1.252 . S
C788 O777 1.284 . S
C788 O780 1.250 . S
C789 H758 0.929 . S
C789 C774 1.437 . S
C789 C790 1.317 . S
C790 H761 0.930 . S
C790 C766 1.431 . S
C790 C789 1.317 . S
C791 Gd732 2.828 . S
C791 O776 1.258 . S
C791 O781 1.252 . S
C791 C792 1.497 . S
C792 C791 1.497 . S
C792 C793 1.395 . S
C792 C794 1.380 1_655 S
C793 C792 1.395 . S
C793 C796 1.398 . S
C793 H808 0.930 . S
C794 C792 1.380 1_455 S
C794 C795 1.391 . S
C794 H809 0.930 . S
C795 C794 1.391 . S
C795 C797 1.387 1_455 S
C796 C793 1.398 . S
C796 C797 1.380 . S
C796 H810 0.930 . S
C797 C795 1.387 1_655 S
C797 C796 1.380 . S
C797 H811 0.930 . S
C798 O778 1.254 . S
C798 O779 1.268 1_556 S
C799 O783 1.284 . S
C799 O786 1.250 . S
C800 Gd733 2.828 . S
C800 O782 1.258 . S
C800 O787 1.252 . S
C800 C801 1.497 . S
C801 C800 1.497 . S
C801 C802 1.395 . S
C801 C803 1.380 1_455 S
C802 C801 1.395 . S
C802 C805 1.398 . S
C802 H812 0.930 . S
C803 C801 1.380 1_655 S
C803 C804 1.391 . S
C803 H813 0.930 . S
C804 C803 1.391 . S
C804 C806 1.387 1_655 S
C805 C802 1.398 . S
C805 C806 1.380 . S
C805 H814 0.930 . S
C806 C804 1.387 1_455 S
C806 C805 1.380 . S
C806 H815 0.930 . S
C807 O784 1.254 . S
C807 O785 1.268 1_554 S
H808 C793 0.930 . S
H809 C794 0.930 . S
H810 C796 0.930 . S
H811 C797 0.930 . S
H812 C802 0.930 . S
H813 C803 0.930 . S
H814 C805 0.930 . S
H815 C806 0.930 . S
Gd816 N847 2.661 . S
Gd816 N853 2.601 . S
Gd816 O860 2.545 . S
Gd816 O861 2.606 . S
Gd816 O863 2.429 . S
Gd816 O864 2.545 . S
Gd816 O865 2.412 . S
Gd816 O867 2.362 1_556 S
Gd816 O868 2.324 . S
Gd816 C875 2.828 . S
Gd817 N826 2.661 . S
Gd817 N830 2.601 . S
Gd817 O861 2.362 1_554 S
Gd817 O862 2.324 . S
Gd817 O866 2.545 . S
Gd817 O867 2.606 . S
Gd817 O869 2.429 . S
Gd817 O870 2.545 . S
Gd817 O871 2.412 . S
Gd817 C884 2.828 . S
C818 C821 1.417 . S
C818 C823 1.431 . S
C818 C824 1.412 . S
C819 C822 1.437 . S
C819 C823 1.317 . S
C819 H838 0.929 . S
C820 C821 1.426 . S
C820 C822 1.413 . S
C820 N830 1.359 . S
C821 C818 1.417 . S
C821 C820 1.426 . S
C821 N826 1.350 . S
C822 C819 1.437 . S
C822 C820 1.413 . S
C822 C832 1.391 . S
C823 C818 1.431 . S
C823 C819 1.317 . S
C823 H834 0.930 . S
C824 C818 1.412 . S
C824 C825 1.355 . S
C824 H836 0.930 . S
C825 C824 1.355 . S
C825 C827 1.402 . S
C825 H837 0.930 . S
N826 Gd817 2.661 . S
N826 C821 1.350 . S
N826 C827 1.307 . S
C827 C825 1.402 . S
C827 N826 1.307 . S
C827 H828 0.930 . S
H828 C827 0.930 . S
C829 N830 1.334 . S
C829 C831 1.394 . S
C829 H833 0.930 . S
N830 Gd817 2.601 . S
N830 C820 1.359 . S
N830 C829 1.334 . S
C831 C829 1.394 . S
C831 C832 1.359 . S
C831 H843 0.930 . S
C832 C822 1.391 . S
C832 C831 1.359 . S
C832 H844 0.929 . S
H833 C829 0.930 . S
H834 C823 0.930 . S
H835 C852 0.930 . S
H836 C824 0.930 . S
H837 C825 0.930 . S
H838 C819 0.929 . S
H839 C857 0.930 . S
H840 C848 0.930 . S
H841 C849 0.930 . S
H842 C873 0.929 . S
H843 C831 0.930 . S
H844 C832 0.929 . S
H845 C874 0.930 . S
H846 C855 0.930 . S
N847 Gd816 2.661 . S
N847 C851 1.350 . S
N847 C852 1.307 . S
C848 H840 0.930 . S
C848 C849 1.355 . S
C848 C850 1.412 . S
C849 H841 0.930 . S
C849 C848 1.355 . S
C849 C852 1.402 . S
C850 C848 1.412 . S
C850 C851 1.417 . S
C850 C874 1.431 . S
C851 N847 1.350 . S
C851 C850 1.417 . S
C851 C854 1.426 . S
C852 H835 0.930 . S
C852 N847 1.307 . S
C852 C849 1.402 . S
N853 Gd816 2.601 . S
N853 C854 1.359 . S
N853 C857 1.334 . S
C854 C851 1.426 . S
C854 N853 1.359 . S
C854 C858 1.413 . S
C855 H846 0.930 . S
C855 C856 1.359 . S
C855 C857 1.394 . S
C856 C855 1.359 . S
C856 C858 1.391 . S
C856 H859 0.929 . S
C857 H839 0.930 . S
C857 N853 1.334 . S
C857 C855 1.394 . S
C858 C854 1.413 . S
C858 C856 1.391 . S
C858 C873 1.437 . S
H859 C856 0.929 . S
O860 Gd816 2.545 . S
O860 C875 1.258 . S
O861 Gd816 2.606 . S
O861 Gd817 2.362 1_556 S
O861 C872 1.284 . S
O862 Gd817 2.324 . S
O862 C882 1.254 . S
O863 Gd816 2.429 . S
O863 C882 1.268 1_556 S
O864 Gd816 2.545 . S
O864 C872 1.250 . S
O865 Gd816 2.412 . S
O865 C875 1.252 . S
O866 Gd817 2.545 . S
O866 C884 1.258 . S
O867 Gd816 2.362 1_554 S
O867 Gd817 2.606 . S
O867 C883 1.284 . S
O868 Gd816 2.324 . S
O868 C891 1.254 . S
O869 Gd817 2.429 . S
O869 C891 1.268 1_554 S
O870 Gd817 2.545 . S
O870 C883 1.250 . S
O871 Gd817 2.412 . S
O871 C884 1.252 . S
C872 O861 1.284 . S
C872 O864 1.250 . S
C873 H842 0.929 . S
C873 C858 1.437 . S
C873 C874 1.317 . S
C874 H845 0.930 . S
C874 C850 1.431 . S
C874 C873 1.317 . S
C875 Gd816 2.828 . S
C875 O860 1.258 . S
C875 O865 1.252 . S
C875 C876 1.497 . S
C876 C875 1.497 . S
C876 C877 1.395 . S
C876 C878 1.380 . S
C877 C876 1.395 . S
C877 C880 1.398 . S
C877 H892 0.930 . S
C878 C876 1.380 . S
C878 C879 1.391 . S
C878 H893 0.930 . S
C879 C878 1.391 . S
C879 C881 1.387 . S
C880 C877 1.398 . S
C880 C881 1.380 . S
C880 H894 0.930 . S
C881 C879 1.387 . S
C881 C880 1.380 . S
C881 H895 0.930 . S
C882 O862 1.254 . S
C882 O863 1.268 1_554 S
C883 O867 1.284 . S
C883 O870 1.250 . S
C884 Gd817 2.828 . S
C884 O866 1.258 . S
C884 O871 1.252 . S
C884 C885 1.497 . S
C885 C884 1.497 . S
C885 C886 1.395 . S
C885 C887 1.380 . S
C886 C885 1.395 . S
C886 C889 1.398 . S
C886 H896 0.930 . S
C887 C885 1.380 . S
C887 C888 1.391 . S
C887 H897 0.930 . S
C888 C887 1.391 . S
C888 C890 1.387 . S
C889 C886 1.398 . S
C889 C890 1.380 . S
C889 H898 0.930 . S
C890 C888 1.387 . S
C890 C889 1.380 . S
C890 H899 0.930 . S
C891 O868 1.254 . S
C891 O869 1.268 1_556 S
H892 C877 0.930 . S
H893 C878 0.930 . S
H894 C880 0.930 . S
H895 C881 0.930 . S
H896 C886 0.930 . S
H897 C887 0.930 . S
H898 C889 0.930 . S
H899 C890 0.930 . S
Gd900 N931 2.661 . S
Gd900 N937 2.601 . S
Gd900 O944 2.545 . S
Gd900 O945 2.606 . S
Gd900 O947 2.429 . S
Gd900 O948 2.545 . S
Gd900 O949 2.412 . S
Gd900 O951 2.362 . S
Gd900 O952 2.324 . S
Gd900 C959 2.828 . S
Gd901 N910 2.661 . S
Gd901 N914 2.601 . S
Gd901 O945 2.362 . S
Gd901 O946 2.324 . S
Gd901 O950 2.545 . S
Gd901 O951 2.606 . S
Gd901 O953 2.429 . S
Gd901 O954 2.545 . S
Gd901 O955 2.412 . S
Gd901 C968 2.828 . S
C902 C905 1.417 . S
C902 C907 1.431 . S
C902 C908 1.412 . S
C903 C906 1.437 . S
C903 C907 1.317 . S
C903 H922 0.929 . S
C904 C905 1.426 . S
C904 C906 1.413 . S
C904 N914 1.359 . S
C905 C902 1.417 . S
C905 C904 1.426 . S
C905 N910 1.350 . S
C906 C903 1.437 . S
C906 C904 1.413 . S
C906 C916 1.391 . S
C907 C902 1.431 . S
C907 C903 1.317 . S
C907 H918 0.930 . S
C908 C902 1.412 . S
C908 C909 1.355 . S
C908 H920 0.930 . S
C909 C908 1.355 . S
C909 C911 1.402 . S
C909 H921 0.930 . S
N910 Gd901 2.661 . S
N910 C905 1.350 . S
N910 C911 1.307 . S
C911 C909 1.402 . S
C911 N910 1.307 . S
C911 H912 0.930 . S
H912 C911 0.930 . S
C913 N914 1.334 . S
C913 C915 1.394 . S
C913 H917 0.930 . S
N914 Gd901 2.601 . S
N914 C904 1.359 . S
N914 C913 1.334 . S
C915 C913 1.394 . S
C915 C916 1.359 . S
C915 H927 0.930 . S
C916 C906 1.391 . S
C916 C915 1.359 . S
C916 H928 0.929 . S
H917 C913 0.930 . S
H918 C907 0.930 . S
H919 C936 0.930 . S
H920 C908 0.930 . S
H921 C909 0.930 . S
H922 C903 0.929 . S
H923 C941 0.930 . S
H924 C932 0.930 . S
H925 C933 0.930 . S
H926 C957 0.929 . S
H927 C915 0.930 . S
H928 C916 0.929 . S
H929 C958 0.930 . S
H930 C939 0.930 . S
N931 Gd900 2.661 . S
N931 C935 1.350 . S
N931 C936 1.307 . S
C932 H924 0.930 . S
C932 C933 1.355 . S
C932 C934 1.412 . S
C933 H925 0.930 . S
C933 C932 1.355 . S
C933 C936 1.402 . S
C934 C932 1.412 . S
C934 C935 1.417 . S
C934 C958 1.431 . S
C935 N931 1.350 . S
C935 C934 1.417 . S
C935 C938 1.426 . S
C936 H919 0.930 . S
C936 N931 1.307 . S
C936 C933 1.402 . S
N937 Gd900 2.601 . S
N937 C938 1.359 . S
N937 C941 1.334 . S
C938 C935 1.426 . S
C938 N937 1.359 . S
C938 C942 1.413 . S
C939 H930 0.930 . S
C939 C940 1.359 . S
C939 C941 1.394 . S
C940 C939 1.359 . S
C940 C942 1.391 . S
C940 H943 0.929 . S
C941 H923 0.930 . S
C941 N937 1.334 . S
C941 C939 1.394 . S
C942 C938 1.413 . S
C942 C940 1.391 . S
C942 C957 1.437 . S
H943 C940 0.929 . S
O944 Gd900 2.545 . S
O944 C959 1.258 . S
O945 Gd900 2.606 . S
O945 Gd901 2.362 . S
O945 C956 1.284 . S
O946 Gd901 2.324 . S
O946 C966 1.254 . S
O947 Gd900 2.429 . S
O947 C966 1.268 . S
O948 Gd900 2.545 . S
O948 C956 1.250 . S
O949 Gd900 2.412 . S
O949 C959 1.252 . S
O950 Gd901 2.545 . S
O950 C968 1.258 . S
O951 Gd900 2.362 . S
O951 Gd901 2.606 . S
O951 C967 1.284 . S
O952 Gd900 2.324 . S
O952 C975 1.254 . S
O953 Gd901 2.429 . S
O953 C975 1.268 . S
O954 Gd901 2.545 . S
O954 C967 1.250 . S
O955 Gd901 2.412 . S
O955 C968 1.252 . S
C956 O945 1.284 . S
C956 O948 1.250 . S
C957 H926 0.929 . S
C957 C942 1.437 . S
C957 C958 1.317 . S
C958 H929 0.930 . S
C958 C934 1.431 . S
C958 C957 1.317 . S
C959 Gd900 2.828 . S
C959 O944 1.258 . S
C959 O949 1.252 . S
C959 C960 1.497 . S
C960 C959 1.497 . S
C960 C961 1.395 . S
C960 C962 1.380 . S
C961 C960 1.395 . S
C961 C964 1.398 . S
C961 H976 0.930 . S
C962 C960 1.380 . S
C962 C963 1.391 . S
C962 H977 0.930 . S
C963 C962 1.391 . S
C963 C965 1.387 . S
C964 C961 1.398 . S
C964 C965 1.380 . S
C964 H978 0.930 . S
C965 C963 1.387 . S
C965 C964 1.380 . S
C965 H979 0.930 . S
C966 O946 1.254 . S
C966 O947 1.268 . S
C967 O951 1.284 . S
C967 O954 1.250 . S
C968 Gd901 2.828 . S
C968 O950 1.258 . S
C968 O955 1.252 . S
C968 C969 1.497 . S
C969 C968 1.497 . S
C969 C970 1.395 . S
C969 C971 1.380 . S
C970 C969 1.395 . S
C970 C973 1.398 . S
C970 H980 0.930 . S
C971 C969 1.380 . S
C971 C972 1.391 . S
C971 H981 0.930 . S
C972 C971 1.391 . S
C972 C974 1.387 . S
C973 C970 1.398 . S
C973 C974 1.380 . S
C973 H982 0.930 . S
C974 C972 1.387 . S
C974 C973 1.380 . S
C974 H983 0.930 . S
C975 O952 1.254 . S
C975 O953 1.268 . S
H976 C961 0.930 . S
H977 C962 0.930 . S
H978 C964 0.930 . S
H979 C965 0.930 . S
H980 C970 0.930 . S
H981 C971 0.930 . S
H982 C973 0.930 . S
H983 C974 0.930 . S
Gd984 N1015 2.661 . S
Gd984 N1021 2.601 . S
Gd984 O1028 2.545 . S
Gd984 O1029 2.606 . S
Gd984 O1031 2.429 . S
Gd984 O1032 2.545 . S
Gd984 O1033 2.412 . S
Gd984 O1035 2.362 . S
Gd984 O1036 2.324 . S
Gd984 C1043 2.828 . S
Gd985 N994 2.661 . S
Gd985 N998 2.601 . S
Gd985 O1029 2.362 . S
Gd985 O1030 2.324 . S
Gd985 O1034 2.545 . S
Gd985 O1035 2.606 . S
Gd985 O1037 2.429 . S
Gd985 O1038 2.545 . S
Gd985 O1039 2.412 . S
Gd985 C1052 2.828 . S
C986 C989 1.417 . S
C986 C991 1.431 . S
C986 C992 1.412 . S
C987 C990 1.437 . S
C987 C991 1.317 . S
C987 H1006 0.929 . S
C988 C989 1.426 . S
C988 C990 1.413 . S
C988 N998 1.359 . S
C989 C986 1.417 . S
C989 C988 1.426 . S
C989 N994 1.350 . S
C990 C987 1.437 . S
C990 C988 1.413 . S
C990 C1000 1.391 . S
C991 C986 1.431 . S
C991 C987 1.317 . S
C991 H1002 0.930 . S
C992 C986 1.412 . S
C992 C993 1.355 . S
C992 H1004 0.930 . S
C993 C992 1.355 . S
C993 C995 1.402 . S
C993 H1005 0.930 . S
N994 Gd985 2.661 . S
N994 C989 1.350 . S
N994 C995 1.307 . S
C995 C993 1.402 . S
C995 N994 1.307 . S
C995 H996 0.930 . S
H996 C995 0.930 . S
C997 N998 1.334 . S
C997 C999 1.394 . S
C997 H1001 0.930 . S
N998 Gd985 2.601 . S
N998 C988 1.359 . S
N998 C997 1.334 . S
C999 C997 1.394 . S
C999 C1000 1.359 . S
C999 H1011 0.930 . S
C1000 C990 1.391 . S
C1000 C999 1.359 . S
C1000 H1012 0.929 . S
H1001 C997 0.930 . S
H1002 C991 0.930 . S
H1003 C1020 0.930 . S
H1004 C992 0.930 . S
H1005 C993 0.930 . S
H1006 C987 0.929 . S
H1007 C1025 0.930 . S
H1008 C1016 0.930 . S
H1009 C1017 0.930 . S
H1010 C1041 0.929 . S
H1011 C999 0.930 . S
H1012 C1000 0.929 . S
H1013 C1042 0.930 . S
H1014 C1023 0.930 . S
N1015 Gd984 2.661 . S
N1015 C1019 1.350 . S
N1015 C1020 1.307 . S
C1016 H1008 0.930 . S
C1016 C1017 1.355 . S
C1016 C1018 1.412 . S
C1017 H1009 0.930 . S
C1017 C1016 1.355 . S
C1017 C1020 1.402 . S
C1018 C1016 1.412 . S
C1018 C1019 1.417 . S
C1018 C1042 1.431 . S
C1019 N1015 1.350 . S
C1019 C1018 1.417 . S
C1019 C1022 1.426 . S
C1020 H1003 0.930 . S
C1020 N1015 1.307 . S
C1020 C1017 1.402 . S
N1021 Gd984 2.601 . S
N1021 C1022 1.359 . S
N1021 C1025 1.334 . S
C1022 C1019 1.426 . S
C1022 N1021 1.359 . S
C1022 C1026 1.413 . S
C1023 H1014 0.930 . S
C1023 C1024 1.359 . S
C1023 C1025 1.394 . S
C1024 C1023 1.359 . S
C1024 C1026 1.391 . S
C1024 H1027 0.929 . S
C1025 H1007 0.930 . S
C1025 N1021 1.334 . S
C1025 C1023 1.394 . S
C1026 C1022 1.413 . S
C1026 C1024 1.391 . S
C1026 C1041 1.437 . S
H1027 C1024 0.929 . S
O1028 Gd984 2.545 . S
O1028 C1043 1.258 . S
O1029 Gd984 2.606 . S
O1029 Gd985 2.362 . S
O1029 C1040 1.284 . S
O1030 Gd985 2.324 . S
O1030 C1050 1.254 . S
O1031 Gd984 2.429 . S
O1031 C1050 1.268 . S
O1032 Gd984 2.545 . S
O1032 C1040 1.250 . S
O1033 Gd984 2.412 . S
O1033 C1043 1.252 . S
O1034 Gd985 2.545 . S
O1034 C1052 1.258 . S
O1035 Gd984 2.362 . S
O1035 Gd985 2.606 . S
O1035 C1051 1.284 . S
O1036 Gd984 2.324 . S
O1036 C1059 1.254 . S
O1037 Gd985 2.429 . S
O1037 C1059 1.268 . S
O1038 Gd985 2.545 . S
O1038 C1051 1.250 . S
O1039 Gd985 2.412 . S
O1039 C1052 1.252 . S
C1040 O1029 1.284 . S
C1040 O1032 1.250 . S
C1041 H1010 0.929 . S
C1041 C1026 1.437 . S
C1041 C1042 1.317 . S
C1042 H1013 0.930 . S
C1042 C1018 1.431 . S
C1042 C1041 1.317 . S
C1043 Gd984 2.828 . S
C1043 O1028 1.258 . S
C1043 O1033 1.252 . S
C1043 C1044 1.497 . S
C1044 C1043 1.497 . S
C1044 C1045 1.395 . S
C1044 C1046 1.380 . S
C1045 C1044 1.395 . S
C1045 C1048 1.398 . S
C1045 H1060 0.930 . S
C1046 C1044 1.380 . S
C1046 C1047 1.391 . S
C1046 H1061 0.930 . S
C1047 C1046 1.391 . S
C1047 C1049 1.387 . S
C1048 C1045 1.398 . S
C1048 C1049 1.380 . S
C1048 H1062 0.930 . S
C1049 C1047 1.387 . S
C1049 C1048 1.380 . S
C1049 H1063 0.930 . S
C1050 O1030 1.254 . S
C1050 O1031 1.268 . S
C1051 O1035 1.284 . S
C1051 O1038 1.250 . S
C1052 Gd985 2.828 . S
C1052 O1034 1.258 . S
C1052 O1039 1.252 . S
C1052 C1053 1.497 . S
C1053 C1052 1.497 . S
C1053 C1054 1.395 . S
C1053 C1055 1.380 . S
C1054 C1053 1.395 . S
C1054 C1057 1.398 . S
C1054 H1064 0.930 . S
C1055 C1053 1.380 . S
C1055 C1056 1.391 . S
C1055 H1065 0.930 . S
C1056 C1055 1.391 . S
C1056 C1058 1.387 . S
C1057 C1054 1.398 . S
C1057 C1058 1.380 . S
C1057 H1066 0.930 . S
C1058 C1056 1.387 . S
C1058 C1057 1.380 . S
C1058 H1067 0.930 . S
C1059 O1036 1.254 . S
C1059 O1037 1.268 . S
H1060 C1045 0.930 . S
H1061 C1046 0.930 . S
H1062 C1048 0.930 . S
H1063 C1049 0.930 . S
H1064 C1054 0.930 . S
H1065 C1055 0.930 . S
H1066 C1057 0.930 . S
H1067 C1058 0.930 . S
Gd1068 N1099 2.661 . S
Gd1068 N1105 2.601 . S
Gd1068 O1112 2.545 . S
Gd1068 O1113 2.606 . S
Gd1068 O1115 2.429 . S
Gd1068 O1116 2.545 . S
Gd1068 O1117 2.412 . S
Gd1068 O1119 2.362 . S
Gd1068 O1120 2.324 . S
Gd1068 C1127 2.828 . S
Gd1069 N1078 2.661 . S
Gd1069 N1082 2.601 . S
Gd1069 O1113 2.362 . S
Gd1069 O1114 2.324 . S
Gd1069 O1118 2.545 . S
Gd1069 O1119 2.606 . S
Gd1069 O1121 2.429 . S
Gd1069 O1122 2.545 . S
Gd1069 O1123 2.412 . S
Gd1069 C1136 2.828 . S
C1070 C1073 1.417 . S
C1070 C1075 1.431 . S
C1070 C1076 1.412 . S
C1071 C1074 1.437 . S
C1071 C1075 1.317 . S
C1071 H1090 0.929 . S
C1072 C1073 1.426 . S
C1072 C1074 1.413 . S
C1072 N1082 1.359 . S
C1073 C1070 1.417 . S
C1073 C1072 1.426 . S
C1073 N1078 1.350 . S
C1074 C1071 1.437 . S
C1074 C1072 1.413 . S
C1074 C1084 1.391 . S
C1075 C1070 1.431 . S
C1075 C1071 1.317 . S
C1075 H1086 0.930 . S
C1076 C1070 1.412 . S
C1076 C1077 1.355 . S
C1076 H1088 0.930 . S
C1077 C1076 1.355 . S
C1077 C1079 1.402 . S
C1077 H1089 0.930 . S
N1078 Gd1069 2.661 . S
N1078 C1073 1.350 . S
N1078 C1079 1.307 . S
C1079 C1077 1.402 . S
C1079 N1078 1.307 . S
C1079 H1080 0.930 . S
H1080 C1079 0.930 . S
C1081 N1082 1.334 . S
C1081 C1083 1.394 . S
C1081 H1085 0.930 . S
N1082 Gd1069 2.601 . S
N1082 C1072 1.359 . S
N1082 C1081 1.334 . S
C1083 C1081 1.394 . S
C1083 C1084 1.359 . S
C1083 H1095 0.930 . S
C1084 C1074 1.391 . S
C1084 C1083 1.359 . S
C1084 H1096 0.929 . S
H1085 C1081 0.930 . S
H1086 C1075 0.930 . S
H1087 C1104 0.930 . S
H1088 C1076 0.930 . S
H1089 C1077 0.930 . S
H1090 C1071 0.929 . S
H1091 C1109 0.930 . S
H1092 C1100 0.930 . S
H1093 C1101 0.930 . S
H1094 C1125 0.929 . S
H1095 C1083 0.930 . S
H1096 C1084 0.929 . S
H1097 C1126 0.930 . S
H1098 C1107 0.930 . S
N1099 Gd1068 2.661 . S
N1099 C1103 1.350 . S
N1099 C1104 1.307 . S
C1100 H1092 0.930 . S
C1100 C1101 1.355 . S
C1100 C1102 1.412 . S
C1101 H1093 0.930 . S
C1101 C1100 1.355 . S
C1101 C1104 1.402 . S
C1102 C1100 1.412 . S
C1102 C1103 1.417 . S
C1102 C1126 1.431 . S
C1103 N1099 1.350 . S
C1103 C1102 1.417 . S
C1103 C1106 1.426 . S
C1104 H1087 0.930 . S
C1104 N1099 1.307 . S
C1104 C1101 1.402 . S
N1105 Gd1068 2.601 . S
N1105 C1106 1.359 . S
N1105 C1109 1.334 . S
C1106 C1103 1.426 . S
C1106 N1105 1.359 . S
C1106 C1110 1.413 . S
C1107 H1098 0.930 . S
C1107 C1108 1.359 . S
C1107 C1109 1.394 . S
C1108 C1107 1.359 . S
C1108 C1110 1.391 . S
C1108 H1111 0.929 . S
C1109 H1091 0.930 . S
C1109 N1105 1.334 . S
C1109 C1107 1.394 . S
C1110 C1106 1.413 . S
C1110 C1108 1.391 . S
C1110 C1125 1.437 . S
H1111 C1108 0.929 . S
O1112 Gd1068 2.545 . S
O1112 C1127 1.258 . S
O1113 Gd1068 2.606 . S
O1113 Gd1069 2.362 . S
O1113 C1124 1.284 . S
O1114 Gd1069 2.324 . S
O1114 C1134 1.254 . S
O1115 Gd1068 2.429 . S
O1115 C1134 1.268 . S
O1116 Gd1068 2.545 . S
O1116 C1124 1.250 . S
O1117 Gd1068 2.412 . S
O1117 C1127 1.252 . S
O1118 Gd1069 2.545 . S
O1118 C1136 1.258 . S
O1119 Gd1068 2.362 . S
O1119 Gd1069 2.606 . S
O1119 C1135 1.284 . S
O1120 Gd1068 2.324 . S
O1120 C1143 1.254 . S
O1121 Gd1069 2.429 . S
O1121 C1143 1.268 . S
O1122 Gd1069 2.545 . S
O1122 C1135 1.250 . S
O1123 Gd1069 2.412 . S
O1123 C1136 1.252 . S
C1124 O1113 1.284 . S
C1124 O1116 1.250 . S
C1125 H1094 0.929 . S
C1125 C1110 1.437 . S
C1125 C1126 1.317 . S
C1126 H1097 0.930 . S
C1126 C1102 1.431 . S
C1126 C1125 1.317 . S
C1127 Gd1068 2.828 . S
C1127 O1112 1.258 . S
C1127 O1117 1.252 . S
C1127 C1128 1.497 . S
C1128 C1127 1.497 . S
C1128 C1129 1.395 . S
C1128 C1130 1.380 . S
C1129 C1128 1.395 . S
C1129 C1132 1.398 . S
C1129 H1144 0.930 . S
C1130 C1128 1.380 . S
C1130 C1131 1.391 . S
C1130 H1145 0.930 . S
C1131 C1130 1.391 . S
C1131 C1133 1.387 . S
C1132 C1129 1.398 . S
C1132 C1133 1.380 . S
C1132 H1146 0.930 . S
C1133 C1131 1.387 . S
C1133 C1132 1.380 . S
C1133 H1147 0.930 . S
C1134 O1114 1.254 . S
C1134 O1115 1.268 . S
C1135 O1119 1.284 . S
C1135 O1122 1.250 . S
C1136 Gd1069 2.828 . S
C1136 O1118 1.258 . S
C1136 O1123 1.252 . S
C1136 C1137 1.497 . S
C1137 C1136 1.497 . S
C1137 C1138 1.395 . S
C1137 C1139 1.380 . S
C1138 C1137 1.395 . S
C1138 C1141 1.398 . S
C1138 H1148 0.930 . S
C1139 C1137 1.380 . S
C1139 C1140 1.391 . S
C1139 H1149 0.930 . S
C1140 C1139 1.391 . S
C1140 C1142 1.387 . S
C1141 C1138 1.398 . S
C1141 C1142 1.380 . S
C1141 H1150 0.930 . S
C1142 C1140 1.387 . S
C1142 C1141 1.380 . S
C1142 H1151 0.930 . S
C1143 O1120 1.254 . S
C1143 O1121 1.268 . S
H1144 C1129 0.930 . S
H1145 C1130 0.930 . S
H1146 C1132 0.930 . S
H1147 C1133 0.930 . S
H1148 C1138 0.930 . S
H1149 C1139 0.930 . S
H1150 C1141 0.930 . S
H1151 C1142 0.930 . S
Gd1152 N1183 2.661 . S
Gd1152 N1189 2.601 . S
Gd1152 O1196 2.545 . S
Gd1152 O1197 2.606 . S
Gd1152 O1199 2.429 . S
Gd1152 O1200 2.545 . S
Gd1152 O1201 2.412 . S
Gd1152 O1203 2.362 . S
Gd1152 O1204 2.324 . S
Gd1152 C1211 2.828 . S
Gd1153 N1162 2.661 . S
Gd1153 N1166 2.601 . S
Gd1153 O1197 2.362 . S
Gd1153 O1198 2.324 . S
Gd1153 O1202 2.545 . S
Gd1153 O1203 2.606 . S
Gd1153 O1205 2.429 . S
Gd1153 O1206 2.545 . S
Gd1153 O1207 2.412 . S
Gd1153 C1220 2.828 . S
C1154 C1157 1.417 . S
C1154 C1159 1.431 . S
C1154 C1160 1.412 . S
C1155 C1158 1.437 . S
C1155 C1159 1.317 . S
C1155 H1174 0.929 . S
C1156 C1157 1.426 . S
C1156 C1158 1.413 . S
C1156 N1166 1.359 . S
C1157 C1154 1.417 . S
C1157 C1156 1.426 . S
C1157 N1162 1.350 . S
C1158 C1155 1.437 . S
C1158 C1156 1.413 . S
C1158 C1168 1.391 . S
C1159 C1154 1.431 . S
C1159 C1155 1.317 . S
C1159 H1170 0.930 . S
C1160 C1154 1.412 . S
C1160 C1161 1.355 . S
C1160 H1172 0.930 . S
C1161 C1160 1.355 . S
C1161 C1163 1.402 . S
C1161 H1173 0.930 . S
N1162 Gd1153 2.661 . S
N1162 C1157 1.350 . S
N1162 C1163 1.307 . S
C1163 C1161 1.402 . S
C1163 N1162 1.307 . S
C1163 H1164 0.930 . S
H1164 C1163 0.930 . S
C1165 N1166 1.334 . S
C1165 C1167 1.394 . S
C1165 H1169 0.930 . S
N1166 Gd1153 2.601 . S
N1166 C1156 1.359 . S
N1166 C1165 1.334 . S
C1167 C1165 1.394 . S
C1167 C1168 1.359 . S
C1167 H1179 0.930 . S
C1168 C1158 1.391 . S
C1168 C1167 1.359 . S
C1168 H1180 0.929 . S
H1169 C1165 0.930 . S
H1170 C1159 0.930 . S
H1171 C1188 0.930 . S
H1172 C1160 0.930 . S
H1173 C1161 0.930 . S
H1174 C1155 0.929 . S
H1175 C1193 0.930 . S
H1176 C1184 0.930 . S
H1177 C1185 0.930 . S
H1178 C1209 0.929 . S
H1179 C1167 0.930 . S
H1180 C1168 0.929 . S
H1181 C1210 0.930 . S
H1182 C1191 0.930 . S
N1183 Gd1152 2.661 . S
N1183 C1187 1.350 . S
N1183 C1188 1.307 . S
C1184 H1176 0.930 . S
C1184 C1185 1.355 . S
C1184 C1186 1.412 . S
C1185 H1177 0.930 . S
C1185 C1184 1.355 . S
C1185 C1188 1.402 . S
C1186 C1184 1.412 . S
C1186 C1187 1.417 . S
C1186 C1210 1.431 . S
C1187 N1183 1.350 . S
C1187 C1186 1.417 . S
C1187 C1190 1.426 . S
C1188 H1171 0.930 . S
C1188 N1183 1.307 . S
C1188 C1185 1.402 . S
N1189 Gd1152 2.601 . S
N1189 C1190 1.359 . S
N1189 C1193 1.334 . S
C1190 C1187 1.426 . S
C1190 N1189 1.359 . S
C1190 C1194 1.413 . S
C1191 H1182 0.930 . S
C1191 C1192 1.359 . S
C1191 C1193 1.394 . S
C1192 C1191 1.359 . S
C1192 C1194 1.391 . S
C1192 H1195 0.929 . S
C1193 H1175 0.930 . S
C1193 N1189 1.334 . S
C1193 C1191 1.394 . S
C1194 C1190 1.413 . S
C1194 C1192 1.391 . S
C1194 C1209 1.437 . S
H1195 C1192 0.929 . S
O1196 Gd1152 2.545 . S
O1196 C1211 1.258 . S
O1197 Gd1152 2.606 . S
O1197 Gd1153 2.362 . S
O1197 C1208 1.284 . S
O1198 Gd1153 2.324 . S
O1198 C1218 1.254 . S
O1199 Gd1152 2.429 . S
O1199 C1218 1.268 . S
O1200 Gd1152 2.545 . S
O1200 C1208 1.250 . S
O1201 Gd1152 2.412 . S
O1201 C1211 1.252 . S
O1202 Gd1153 2.545 . S
O1202 C1220 1.258 . S
O1203 Gd1152 2.362 . S
O1203 Gd1153 2.606 . S
O1203 C1219 1.284 . S
O1204 Gd1152 2.324 . S
O1204 C1227 1.254 . S
O1205 Gd1153 2.429 . S
O1205 C1227 1.268 . S
O1206 Gd1153 2.545 . S
O1206 C1219 1.250 . S
O1207 Gd1153 2.412 . S
O1207 C1220 1.252 . S
C1208 O1197 1.284 . S
C1208 O1200 1.250 . S
C1209 H1178 0.929 . S
C1209 C1194 1.437 . S
C1209 C1210 1.317 . S
C1210 H1181 0.930 . S
C1210 C1186 1.431 . S
C1210 C1209 1.317 . S
C1211 Gd1152 2.828 . S
C1211 O1196 1.258 . S
C1211 O1201 1.252 . S
C1211 C1212 1.497 . S
C1212 C1211 1.497 . S
C1212 C1213 1.395 . S
C1212 C1214 1.380 . S
C1213 C1212 1.395 . S
C1213 C1216 1.398 . S
C1213 H1228 0.930 . S
C1214 C1212 1.380 . S
C1214 C1215 1.391 . S
C1214 H1229 0.930 . S
C1215 C1214 1.391 . S
C1215 C1217 1.387 . S
C1216 C1213 1.398 . S
C1216 C1217 1.380 . S
C1216 H1230 0.930 . S
C1217 C1215 1.387 . S
C1217 C1216 1.380 . S
C1217 H1231 0.930 . S
C1218 O1198 1.254 . S
C1218 O1199 1.268 . S
C1219 O1203 1.284 . S
C1219 O1206 1.250 . S
C1220 Gd1153 2.828 . S
C1220 O1202 1.258 . S
C1220 O1207 1.252 . S
C1220 C1221 1.497 . S
C1221 C1220 1.497 . S
C1221 C1222 1.395 . S
C1221 C1223 1.380 . S
C1222 C1221 1.395 . S
C1222 C1225 1.398 . S
C1222 H1232 0.930 . S
C1223 C1221 1.380 . S
C1223 C1224 1.391 . S
C1223 H1233 0.930 . S
C1224 C1223 1.391 . S
C1224 C1226 1.387 . S
C1225 C1222 1.398 . S
C1225 C1226 1.380 . S
C1225 H1234 0.930 . S
C1226 C1224 1.387 . S
C1226 C1225 1.380 . S
C1226 H1235 0.930 . S
C1227 O1204 1.254 . S
C1227 O1205 1.268 . S
H1228 C1213 0.930 . S
H1229 C1214 0.930 . S
H1230 C1216 0.930 . S
H1231 C1217 0.930 . S
H1232 C1222 0.930 . S
H1233 C1223 0.930 . S
H1234 C1225 0.930 . S
H1235 C1226 0.930 . S
Gd1236 N1267 2.661 . S
Gd1236 N1273 2.601 . S
Gd1236 O1280 2.545 . S
Gd1236 O1281 2.606 . S
Gd1236 O1283 2.429 . S
Gd1236 O1284 2.545 . S
Gd1236 O1285 2.412 . S
Gd1236 O1287 2.362 . S
Gd1236 O1288 2.324 . S
Gd1236 C1295 2.828 . S
Gd1237 N1246 2.661 . S
Gd1237 N1250 2.601 . S
Gd1237 O1281 2.362 . S
Gd1237 O1282 2.324 . S
Gd1237 O1286 2.545 . S
Gd1237 O1287 2.606 . S
Gd1237 O1289 2.429 . S
Gd1237 O1290 2.545 . S
Gd1237 O1291 2.412 . S
Gd1237 C1304 2.828 . S
C1238 C1241 1.417 . S
C1238 C1243 1.431 . S
C1238 C1244 1.412 . S
C1239 C1242 1.437 . S
C1239 C1243 1.317 . S
C1239 H1258 0.929 . S
C1240 C1241 1.426 . S
C1240 C1242 1.413 . S
C1240 N1250 1.359 . S
C1241 C1238 1.417 . S
C1241 C1240 1.426 . S
C1241 N1246 1.350 . S
C1242 C1239 1.437 . S
C1242 C1240 1.413 . S
C1242 C1252 1.391 . S
C1243 C1238 1.431 . S
C1243 C1239 1.317 . S
C1243 H1254 0.930 . S
C1244 C1238 1.412 . S
C1244 C1245 1.355 . S
C1244 H1256 0.930 . S
C1245 C1244 1.355 . S
C1245 C1247 1.402 . S
C1245 H1257 0.930 . S
N1246 Gd1237 2.661 . S
N1246 C1241 1.350 . S
N1246 C1247 1.307 . S
C1247 C1245 1.402 . S
C1247 N1246 1.307 . S
C1247 H1248 0.930 . S
H1248 C1247 0.930 . S
C1249 N1250 1.334 . S
C1249 C1251 1.394 . S
C1249 H1253 0.930 . S
N1250 Gd1237 2.601 . S
N1250 C1240 1.359 . S
N1250 C1249 1.334 . S
C1251 C1249 1.394 . S
C1251 C1252 1.359 . S
C1251 H1263 0.930 . S
C1252 C1242 1.391 . S
C1252 C1251 1.359 . S
C1252 H1264 0.929 . S
H1253 C1249 0.930 . S
H1254 C1243 0.930 . S
H1255 C1272 0.930 . S
H1256 C1244 0.930 . S
H1257 C1245 0.930 . S
H1258 C1239 0.929 . S
H1259 C1277 0.930 . S
H1260 C1268 0.930 . S
H1261 C1269 0.930 . S
H1262 C1293 0.929 . S
H1263 C1251 0.930 . S
H1264 C1252 0.929 . S
H1265 C1294 0.930 . S
H1266 C1275 0.930 . S
N1267 Gd1236 2.661 . S
N1267 C1271 1.350 . S
N1267 C1272 1.307 . S
C1268 H1260 0.930 . S
C1268 C1269 1.355 . S
C1268 C1270 1.412 . S
C1269 H1261 0.930 . S
C1269 C1268 1.355 . S
C1269 C1272 1.402 . S
C1270 C1268 1.412 . S
C1270 C1271 1.417 . S
C1270 C1294 1.431 . S
C1271 N1267 1.350 . S
C1271 C1270 1.417 . S
C1271 C1274 1.426 . S
C1272 H1255 0.930 . S
C1272 N1267 1.307 . S
C1272 C1269 1.402 . S
N1273 Gd1236 2.601 . S
N1273 C1274 1.359 . S
N1273 C1277 1.334 . S
C1274 C1271 1.426 . S
C1274 N1273 1.359 . S
C1274 C1278 1.413 . S
C1275 H1266 0.930 . S
C1275 C1276 1.359 . S
C1275 C1277 1.394 . S
C1276 C1275 1.359 . S
C1276 C1278 1.391 . S
C1276 H1279 0.929 . S
C1277 H1259 0.930 . S
C1277 N1273 1.334 . S
C1277 C1275 1.394 . S
C1278 C1274 1.413 . S
C1278 C1276 1.391 . S
C1278 C1293 1.437 . S
H1279 C1276 0.929 . S
O1280 Gd1236 2.545 . S
O1280 C1295 1.258 . S
O1281 Gd1236 2.606 . S
O1281 Gd1237 2.362 . S
O1281 C1292 1.284 . S
O1282 Gd1237 2.324 . S
O1282 C1302 1.254 . S
O1283 Gd1236 2.429 . S
O1283 C1302 1.268 . S
O1284 Gd1236 2.545 . S
O1284 C1292 1.250 . S
O1285 Gd1236 2.412 . S
O1285 C1295 1.252 . S
O1286 Gd1237 2.545 . S
O1286 C1304 1.258 . S
O1287 Gd1236 2.362 . S
O1287 Gd1237 2.606 . S
O1287 C1303 1.284 . S
O1288 Gd1236 2.324 . S
O1288 C1311 1.254 . S
O1289 Gd1237 2.429 . S
O1289 C1311 1.268 . S
O1290 Gd1237 2.545 . S
O1290 C1303 1.250 . S
O1291 Gd1237 2.412 . S
O1291 C1304 1.252 . S
C1292 O1281 1.284 . S
C1292 O1284 1.250 . S
C1293 H1262 0.929 . S
C1293 C1278 1.437 . S
C1293 C1294 1.317 . S
C1294 H1265 0.930 . S
C1294 C1270 1.431 . S
C1294 C1293 1.317 . S
C1295 Gd1236 2.828 . S
C1295 O1280 1.258 . S
C1295 O1285 1.252 . S
C1295 C1296 1.497 . S
C1296 C1295 1.497 . S
C1296 C1297 1.395 . S
C1296 C1298 1.380 . S
C1297 C1296 1.395 . S
C1297 C1300 1.398 . S
C1297 H1312 0.930 . S
C1298 C1296 1.380 . S
C1298 C1299 1.391 . S
C1298 H1313 0.930 . S
C1299 C1298 1.391 . S
C1299 C1301 1.387 . S
C1300 C1297 1.398 . S
C1300 C1301 1.380 . S
C1300 H1314 0.930 . S
C1301 C1299 1.387 . S
C1301 C1300 1.380 . S
C1301 H1315 0.930 . S
C1302 O1282 1.254 . S
C1302 O1283 1.268 . S
C1303 O1287 1.284 . S
C1303 O1290 1.250 . S
C1304 Gd1237 2.828 . S
C1304 O1286 1.258 . S
C1304 O1291 1.252 . S
C1304 C1305 1.497 . S
C1305 C1304 1.497 . S
C1305 C1306 1.395 . S
C1305 C1307 1.380 . S
C1306 C1305 1.395 . S
C1306 C1309 1.398 . S
C1306 H1316 0.930 . S
C1307 C1305 1.380 . S
C1307 C1308 1.391 . S
C1307 H1317 0.930 . S
C1308 C1307 1.391 . S
C1308 C1310 1.387 . S
C1309 C1306 1.398 . S
C1309 C1310 1.380 . S
C1309 H1318 0.930 . S
C1310 C1308 1.387 . S
C1310 C1309 1.380 . S
C1310 H1319 0.930 . S
C1311 O1288 1.254 . S
C1311 O1289 1.268 . S
H1312 C1297 0.930 . S
H1313 C1298 0.930 . S
H1314 C1300 0.930 . S
H1315 C1301 0.930 . S
H1316 C1306 0.930 . S
H1317 C1307 0.930 . S
H1318 C1309 0.930 . S
H1319 C1310 0.930 . S
Gd1320 N1351 2.661 . S
Gd1320 N1357 2.601 . S
Gd1320 O1364 2.545 . S
Gd1320 O1365 2.606 . S
Gd1320 O1367 2.429 . S
Gd1320 O1368 2.545 . S
Gd1320 O1369 2.412 . S
Gd1320 O1371 2.362 . S
Gd1320 O1372 2.324 . S
Gd1320 C1379 2.828 . S
Gd1321 N1330 2.661 . S
Gd1321 N1334 2.601 . S
Gd1321 O1365 2.362 . S
Gd1321 O1366 2.324 . S
Gd1321 O1370 2.545 . S
Gd1321 O1371 2.606 . S
Gd1321 O1373 2.429 . S
Gd1321 O1374 2.545 . S
Gd1321 O1375 2.412 . S
Gd1321 C1388 2.828 . S
C1322 C1325 1.417 . S
C1322 C1327 1.431 . S
C1322 C1328 1.412 . S
C1323 C1326 1.437 . S
C1323 C1327 1.317 . S
C1323 H1342 0.929 . S
C1324 C1325 1.426 . S
C1324 C1326 1.413 . S
C1324 N1334 1.359 . S
C1325 C1322 1.417 . S
C1325 C1324 1.426 . S
C1325 N1330 1.350 . S
C1326 C1323 1.437 . S
C1326 C1324 1.413 . S
C1326 C1336 1.391 . S
C1327 C1322 1.431 . S
C1327 C1323 1.317 . S
C1327 H1338 0.930 . S
C1328 C1322 1.412 . S
C1328 C1329 1.355 . S
C1328 H1340 0.930 . S
C1329 C1328 1.355 . S
C1329 C1331 1.402 . S
C1329 H1341 0.930 . S
N1330 Gd1321 2.661 . S
N1330 C1325 1.350 . S
N1330 C1331 1.307 . S
C1331 C1329 1.402 . S
C1331 N1330 1.307 . S
C1331 H1332 0.930 . S
H1332 C1331 0.930 . S
C1333 N1334 1.334 . S
C1333 C1335 1.394 . S
C1333 H1337 0.930 . S
N1334 Gd1321 2.601 . S
N1334 C1324 1.359 . S
N1334 C1333 1.334 . S
C1335 C1333 1.394 . S
C1335 C1336 1.359 . S
C1335 H1347 0.930 . S
C1336 C1326 1.391 . S
C1336 C1335 1.359 . S
C1336 H1348 0.929 . S
H1337 C1333 0.930 . S
H1338 C1327 0.930 . S
H1339 C1356 0.930 . S
H1340 C1328 0.930 . S
H1341 C1329 0.930 . S
H1342 C1323 0.929 . S
H1343 C1361 0.930 . S
H1344 C1352 0.930 . S
H1345 C1353 0.930 . S
H1346 C1377 0.929 . S
H1347 C1335 0.930 . S
H1348 C1336 0.929 . S
H1349 C1378 0.930 . S
H1350 C1359 0.930 . S
N1351 Gd1320 2.661 . S
N1351 C1355 1.350 . S
N1351 C1356 1.307 . S
C1352 H1344 0.930 . S
C1352 C1353 1.355 . S
C1352 C1354 1.412 . S
C1353 H1345 0.930 . S
C1353 C1352 1.355 . S
C1353 C1356 1.402 . S
C1354 C1352 1.412 . S
C1354 C1355 1.417 . S
C1354 C1378 1.431 . S
C1355 N1351 1.350 . S
C1355 C1354 1.417 . S
C1355 C1358 1.426 . S
C1356 H1339 0.930 . S
C1356 N1351 1.307 . S
C1356 C1353 1.402 . S
N1357 Gd1320 2.601 . S
N1357 C1358 1.359 . S
N1357 C1361 1.334 . S
C1358 C1355 1.426 . S
C1358 N1357 1.359 . S
C1358 C1362 1.413 . S
C1359 H1350 0.930 . S
C1359 C1360 1.359 . S
C1359 C1361 1.394 . S
C1360 C1359 1.359 . S
C1360 C1362 1.391 . S
C1360 H1363 0.929 . S
C1361 H1343 0.930 . S
C1361 N1357 1.334 . S
C1361 C1359 1.394 . S
C1362 C1358 1.413 . S
C1362 C1360 1.391 . S
C1362 C1377 1.437 . S
H1363 C1360 0.929 . S
O1364 Gd1320 2.545 . S
O1364 C1379 1.258 . S
O1365 Gd1320 2.606 . S
O1365 Gd1321 2.362 . S
O1365 C1376 1.284 . S
O1366 Gd1321 2.324 . S
O1366 C1386 1.254 . S
O1367 Gd1320 2.429 . S
O1367 C1386 1.268 . S
O1368 Gd1320 2.545 . S
O1368 C1376 1.250 . S
O1369 Gd1320 2.412 . S
O1369 C1379 1.252 . S
O1370 Gd1321 2.545 . S
O1370 C1388 1.258 . S
O1371 Gd1320 2.362 . S
O1371 Gd1321 2.606 . S
O1371 C1387 1.284 . S
O1372 Gd1320 2.324 . S
O1372 C1395 1.254 . S
O1373 Gd1321 2.429 . S
O1373 C1395 1.268 . S
O1374 Gd1321 2.545 . S
O1374 C1387 1.250 . S
O1375 Gd1321 2.412 . S
O1375 C1388 1.252 . S
C1376 O1365 1.284 . S
C1376 O1368 1.250 . S
C1377 H1346 0.929 . S
C1377 C1362 1.437 . S
C1377 C1378 1.317 . S
C1378 H1349 0.930 . S
C1378 C1354 1.431 . S
C1378 C1377 1.317 . S
C1379 Gd1320 2.828 . S
C1379 O1364 1.258 . S
C1379 O1369 1.252 . S
C1379 C1380 1.497 . S
C1380 C1379 1.497 . S
C1380 C1381 1.395 . S
C1380 C1382 1.380 . S
C1381 C1380 1.395 . S
C1381 C1384 1.398 . S
C1381 H1396 0.930 . S
C1382 C1380 1.380 . S
C1382 C1383 1.391 . S
C1382 H1397 0.930 . S
C1383 C1382 1.391 . S
C1383 C1385 1.387 . S
C1384 C1381 1.398 . S
C1384 C1385 1.380 . S
C1384 H1398 0.930 . S
C1385 C1383 1.387 . S
C1385 C1384 1.380 . S
C1385 H1399 0.930 . S
C1386 O1366 1.254 . S
C1386 O1367 1.268 . S
C1387 O1371 1.284 . S
C1387 O1374 1.250 . S
C1388 Gd1321 2.828 . S
C1388 O1370 1.258 . S
C1388 O1375 1.252 . S
C1388 C1389 1.497 . S
C1389 C1388 1.497 . S
C1389 C1390 1.395 . S
C1389 C1391 1.380 . S
C1390 C1389 1.395 . S
C1390 C1393 1.398 . S
C1390 H1400 0.930 . S
C1391 C1389 1.380 . S
C1391 C1392 1.391 . S
C1391 H1401 0.930 . S
C1392 C1391 1.391 . S
C1392 C1394 1.387 . S
C1393 C1390 1.398 . S
C1393 C1394 1.380 . S
C1393 H1402 0.930 . S
C1394 C1392 1.387 . S
C1394 C1393 1.380 . S
C1394 H1403 0.930 . S
C1395 O1372 1.254 . S
C1395 O1373 1.268 . S
H1396 C1381 0.930 . S
H1397 C1382 0.930 . S
H1398 C1384 0.930 . S
H1399 C1385 0.930 . S
H1400 C1390 0.930 . S
H1401 C1391 0.930 . S
H1402 C1393 0.930 . S
H1403 C1394 0.930 . S
C1404 C1405 1.387 . S
C1404 H1408 0.950 . S
C1404 C1413 1.390 . S
C1405 C1404 1.387 . S
C1405 C1407 1.387 . S
H1406 C1413 0.950 . S
C1407 C1405 1.387 . S
C1407 C1409 1.390 . S
C1407 H1411 0.950 . S
H1408 C1404 0.950 . S
C1409 C1407 1.390 . S
C1409 C1410 1.387 . S
C1409 H1412 0.950 1_554 S
C1410 C1409 1.387 . S
C1410 C1413 1.387 . S
H1411 C1407 0.950 . S
H1412 C1409 0.950 1_556 S
C1413 C1404 1.390 . S
C1413 H1406 0.950 . S
C1413 C1410 1.387 . S
C1414 C1415 1.387 . S
C1414 H1418 0.950 . S
C1414 C1423 1.390 . S
C1415 C1414 1.387 . S
C1415 C1417 1.387 . S
H1416 C1423 0.950 . S
C1417 C1415 1.387 . S
C1417 C1419 1.390 . S
C1417 H1421 0.950 . S
H1418 C1414 0.950 . S
C1419 C1417 1.390 . S
C1419 C1420 1.387 . S
C1419 H1422 0.950 . S
C1420 C1419 1.387 . S
C1420 C1423 1.387 . S
H1421 C1417 0.950 . S
H1422 C1419 0.950 . S
C1423 C1414 1.390 . S
C1423 H1416 0.950 . S
C1423 C1420 1.387 . S
C1424 C1425 1.387 . S
C1424 H1428 0.950 . S
C1424 C1433 1.390 . S
C1425 C1424 1.387 . S
C1425 C1427 1.387 . S
H1426 C1433 0.950 . S
C1427 C1425 1.387 . S
C1427 C1429 1.390 . S
C1427 H1431 0.950 . S
H1428 C1424 0.950 . S
C1429 C1427 1.390 . S
C1429 C1430 1.387 . S
C1429 H1432 0.950 . S
C1430 C1429 1.387 . S
C1430 C1433 1.387 . S
H1431 C1427 0.950 . S
H1432 C1429 0.950 . S
C1433 C1424 1.390 . S
C1433 H1426 0.950 . S
C1433 C1430 1.387 . S
C1434 C1435 1.387 . S
C1434 H1438 0.950 . S
C1434 C1443 1.390 . S
C1435 C1434 1.387 . S
C1435 C1437 1.387 . S
H1436 C1443 0.950 . S
C1437 C1435 1.387 . S
C1437 C1439 1.390 . S
C1437 H1441 0.950 . S
H1438 C1434 0.950 . S
C1439 C1437 1.390 . S
C1439 C1440 1.387 . S
C1439 H1442 0.950 . S
C1440 C1439 1.387 . S
C1440 C1443 1.387 . S
H1441 C1437 0.950 . S
H1442 C1439 0.950 . S
C1443 C1434 1.390 . S
C1443 H1436 0.950 . S
C1443 C1440 1.387 . S
C1444 C1445 1.387 . S
C1444 H1448 0.950 . S
C1444 C1453 1.390 . S
C1445 C1444 1.387 . S
C1445 C1447 1.387 . S
H1446 C1453 0.950 1_554 S
C1447 C1445 1.387 . S
C1447 C1449 1.390 . S
C1447 H1451 0.950 . S
H1448 C1444 0.950 . S
C1449 C1447 1.390 . S
C1449 C1450 1.387 . S
C1449 H1452 0.950 . S
C1450 C1449 1.387 . S
C1450 C1453 1.387 . S
H1451 C1447 0.950 . S
H1452 C1449 0.950 . S
C1453 C1444 1.390 . S
C1453 H1446 0.950 1_556 S
C1453 C1450 1.387 . S
C1454 C1455 1.387 . S
C1454 H1458 0.950 . S
C1454 C1463 1.390 . S
C1455 C1454 1.387 . S
C1455 C1457 1.387 . S
H1456 C1463 0.990 . S
C1457 C1455 1.387 . S
C1457 C1459 1.390 . S
C1457 H1461 0.950 . S
H1458 C1454 0.950 . S
C1459 C1457 1.390 . S
C1459 C1460 1.387 . S
C1459 H1462 0.950 . S
C1460 C1459 1.387 . S
C1460 C1463 1.387 . S
H1461 C1457 0.950 . S
H1462 C1459 0.950 . S
C1463 C1454 1.390 . S
C1463 H1456 0.990 . S
C1463 C1460 1.387 . S
C1464 C1465 1.387 . S
C1464 H1468 0.950 . S
C1464 C1473 1.390 . S
C1465 C1464 1.387 . S
C1465 C1467 1.387 . S
H1466 C1473 0.950 . S
C1467 C1465 1.387 . S
C1467 C1469 1.390 . S
C1467 H1471 0.950 . S
H1468 C1464 0.950 . S
C1469 C1467 1.390 . S
C1469 C1470 1.387 . S
C1469 H1472 0.950 1_556 S
C1470 C1469 1.387 . S
C1470 C1473 1.387 . S
H1471 C1467 0.950 . S
H1472 C1469 0.950 1_554 S
C1473 C1464 1.390 . S
C1473 H1466 0.950 . S
C1473 C1470 1.387 . S
C1474 C1475 1.387 . S
C1474 H1478 0.950 . S
C1474 C1483 1.390 . S
C1475 C1474 1.387 . S
C1475 C1477 1.387 . S
H1476 C1483 0.950 . S
C1477 C1475 1.387 . S
C1477 C1479 1.390 . S
C1477 H1481 0.950 . S
H1478 C1474 0.950 . S
C1479 C1477 1.390 . S
C1479 C1480 1.387 . S
C1479 H1482 0.950 1_556 S
C1480 C1479 1.387 . S
C1480 C1483 1.387 . S
H1481 C1477 0.950 . S
H1482 C1479 0.950 1_554 S
C1483 C1474 1.390 . S
C1483 H1476 0.950 . S
C1483 C1480 1.387 . S
C1484 C1485 1.387 . S
C1484 H1488 0.950 . S
C1484 C1493 1.390 . S
C1485 C1484 1.387 . S
C1485 C1487 1.387 . S
H1486 C1493 0.950 1_554 S
C1487 C1485 1.387 . S
C1487 C1489 1.390 . S
C1487 H1491 0.950 . S
H1488 C1484 0.950 . S
C1489 C1487 1.390 . S
C1489 C1490 1.387 . S
C1489 H1492 0.950 . S
C1490 C1489 1.387 . S
C1490 C1493 1.387 . S
H1491 C1487 0.950 . S
H1492 C1489 0.950 . S
C1493 C1484 1.390 . S
C1493 H1486 0.950 1_556 S
C1493 C1490 1.387 . S
C1494 C1495 1.387 . S
C1494 H1498 0.950 . S
C1494 C1503 1.390 . S
C1495 C1494 1.387 . S
C1495 C1497 1.387 . S
H1496 C1503 0.988 . S
C1497 C1495 1.387 . S
C1497 C1499 1.390 . S
C1497 H1501 0.950 . S
H1498 C1494 0.950 . S
C1499 C1497 1.390 . S
C1499 C1500 1.387 . S
C1499 H1502 0.950 . S
C1500 C1499 1.387 . S
C1500 C1503 1.387 . S
H1501 C1497 0.950 . S
H1502 C1499 0.950 . S
C1503 C1494 1.390 . S
C1503 H1496 0.988 . S
C1503 C1500 1.387 . S
C1504 C1505 1.387 . S
C1504 H1508 0.950 . S
C1504 C1513 1.390 . S
C1505 C1504 1.387 . S
C1505 C1507 1.387 . S
H1506 C1513 0.950 . S
C1507 C1505 1.387 . S
C1507 C1509 1.390 . S
C1507 H1511 0.950 . S
H1508 C1504 0.950 . S
C1509 C1507 1.390 . S
C1509 C1510 1.387 . S
C1509 H1512 0.950 1_554 S
C1510 C1509 1.387 . S
C1510 C1513 1.387 . S
H1511 C1507 0.950 . S
H1512 C1509 0.950 1_556 S
C1513 C1504 1.390 . S
C1513 H1506 0.950 . S
C1513 C1510 1.387 . S
C1514 C1515 1.387 . S
C1514 H1518 0.950 . S
C1514 C1523 1.390 . S
C1515 C1514 1.387 . S
C1515 C1517 1.387 . S
H1516 C1523 0.950 . S
C1517 C1515 1.387 . S
C1517 C1519 1.390 . S
C1517 H1521 0.950 . S
H1518 C1514 0.950 . S
C1519 C1517 1.390 . S
C1519 C1520 1.387 . S
C1519 H1522 0.950 . S
C1520 C1519 1.387 . S
C1520 C1523 1.387 . S
H1521 C1517 0.950 . S
H1522 C1519 0.950 . S
C1523 C1514 1.390 . S
C1523 H1516 0.950 . S
C1523 C1520 1.387 . S
C1524 C1525 1.387 . S
C1524 H1528 0.950 . S
C1524 C1533 1.390 . S
C1525 C1524 1.387 . S
C1525 C1527 1.387 . S
H1526 C1533 0.950 . S
C1527 C1525 1.387 . S
C1527 C1529 1.390 . S
C1527 H1531 0.950 . S
H1528 C1524 0.950 . S
C1529 C1527 1.390 . S
C1529 C1530 1.387 . S
C1529 H1532 0.950 . S
C1530 C1529 1.387 . S
C1530 C1533 1.387 . S
H1531 C1527 0.950 . S
H1532 C1529 0.950 . S
C1533 C1524 1.390 . S
C1533 H1526 0.950 . S
C1533 C1530 1.387 . S
C1534 C1535 1.387 . S
C1534 H1538 0.950 . S
C1534 C1543 1.390 . S
C1535 C1534 1.387 . S
C1535 C1537 1.387 . S
H1536 C1543 0.950 . S
C1537 C1535 1.387 . S
C1537 C1539 1.390 . S
C1537 H1541 0.950 . S
H1538 C1534 0.950 . S
C1539 C1537 1.390 . S
C1539 C1540 1.387 . S
C1539 H1542 0.950 . S
C1540 C1539 1.387 . S
C1540 C1543 1.387 . S
H1541 C1537 0.950 . S
H1542 C1539 0.950 . S
C1543 C1534 1.390 . S
C1543 H1536 0.950 . S
C1543 C1540 1.387 . S
C1544 C1545 1.387 . S
C1544 H1548 0.950 . S
C1544 C1553 1.390 . S
C1545 C1544 1.387 . S
C1545 C1547 1.387 . S
H1546 C1553 0.950 . S
C1547 C1545 1.387 . S
C1547 C1549 1.390 . S
C1547 H1551 0.950 . S
H1548 C1544 0.950 . S
C1549 C1547 1.390 . S
C1549 C1550 1.387 . S
C1549 H1552 0.950 . S
C1550 C1549 1.387 . S
C1550 C1553 1.387 . S
H1551 C1547 0.950 . S
H1552 C1549 0.950 . S
C1553 C1544 1.390 . S
C1553 H1546 0.950 . S
C1553 C1550 1.387 . S
C1554 C1555 1.387 . S
C1554 H1558 0.950 . S
C1554 C1563 1.390 . S
C1555 C1554 1.387 . S
C1555 C1557 1.387 . S
H1556 C1563 0.950 . S
C1557 C1555 1.387 . S
C1557 C1559 1.390 . S
C1557 H1561 0.950 . S
H1558 C1554 0.950 . S
C1559 C1557 1.390 . S
C1559 C1560 1.387 . S
C1559 H1562 0.950 . S
C1560 C1559 1.387 . S
C1560 C1563 1.387 . S
H1561 C1557 0.950 . S
H1562 C1559 0.950 . S
C1563 C1554 1.390 . S
C1563 H1556 0.950 . S
C1563 C1560 1.387 . S
C1564 C1565 1.387 . S
C1564 H1568 0.950 . S
C1564 C1573 1.390 . S
C1565 C1564 1.387 . S
C1565 C1567 1.387 . S
H1566 C1573 0.950 . S
C1567 C1565 1.387 . S
C1567 C1569 1.390 . S
C1567 H1571 0.950 . S
H1568 C1564 0.950 . S
C1569 C1567 1.390 . S
C1569 C1570 1.387 . S
C1569 H1572 0.950 . S
C1570 C1569 1.387 . S
C1570 C1573 1.387 . S
H1571 C1567 0.950 . S
H1572 C1569 0.950 . S
C1573 C1564 1.390 . S
C1573 H1566 0.950 . S
C1573 C1570 1.387 . S
C1574 C1575 1.387 . S
C1574 H1578 0.950 . S
C1574 C1583 1.390 . S
C1575 C1574 1.387 . S
C1575 C1577 1.387 . S
H1576 C1583 0.950 . S
C1577 C1575 1.387 . S
C1577 C1579 1.390 . S
C1577 H1581 0.950 . S
H1578 C1574 0.950 . S
C1579 C1577 1.390 . S
C1579 C1580 1.387 . S
C1579 H1582 0.950 . S
C1580 C1579 1.387 . S
C1580 C1583 1.387 . S
H1581 C1577 0.950 . S
H1582 C1579 0.950 . S
C1583 C1574 1.390 . S
C1583 H1576 0.950 . S
C1583 C1580 1.387 . S
C1584 C1585 1.387 . S
C1584 H1588 0.950 . S
C1584 C1593 1.390 . S
C1585 C1584 1.387 . S
C1585 C1587 1.387 . S
H1586 C1593 0.950 . S
C1587 C1585 1.387 . S
C1587 C1589 1.390 . S
C1587 H1591 0.950 . S
H1588 C1584 0.950 . S
C1589 C1587 1.390 . S
C1589 C1590 1.387 . S
C1589 H1592 0.950 . S
C1590 C1589 1.387 . S
C1590 C1593 1.387 . S
H1591 C1587 0.950 . S
H1592 C1589 0.950 . S
C1593 C1584 1.390 . S
C1593 H1586 0.950 . S
C1593 C1590 1.387 . S
C1594 C1595 1.387 . S
C1594 H1598 0.950 . S
C1594 C1603 1.390 . S
C1595 C1594 1.387 . S
C1595 C1597 1.387 . S
H1596 C1603 0.950 . S
C1597 C1595 1.387 . S
C1597 C1599 1.390 . S
C1597 H1601 0.950 . S
H1598 C1594 0.950 . S
C1599 C1597 1.390 . S
C1599 C1600 1.387 . S
C1599 H1602 0.950 . S
C1600 C1599 1.387 . S
C1600 C1603 1.387 . S
H1601 C1597 0.950 . S
H1602 C1599 0.950 . S
C1603 C1594 1.390 . S
C1603 H1596 0.950 . S
C1603 C1600 1.387 . S
C1604 C1605 1.387 . S
C1604 H1608 0.950 . S
C1604 C1613 1.390 . S
C1605 C1604 1.387 . S
C1605 C1607 1.387 . S
H1606 C1613 0.950 . S
C1607 C1605 1.387 . S
C1607 C1609 1.390 . S
C1607 H1611 0.950 . S
H1608 C1604 0.950 . S
C1609 C1607 1.390 . S
C1609 C1610 1.387 . S
C1609 H1612 0.950 . S
C1610 C1609 1.387 . S
C1610 C1613 1.387 . S
H1611 C1607 0.950 . S
H1612 C1609 0.950 . S
C1613 C1604 1.390 . S
C1613 H1606 0.950 . S
C1613 C1610 1.387 . S
C1614 C1615 1.387 . S
C1614 H1618 0.950 . S
C1614 C1623 1.390 . S
C1615 C1614 1.387 . S
C1615 C1617 1.387 . S
H1616 C1623 0.950 . S
C1617 C1615 1.387 . S
C1617 C1619 1.390 . S
C1617 H1621 0.950 . S
H1618 C1614 0.950 . S
C1619 C1617 1.390 . S
C1619 C1620 1.387 . S
C1619 H1622 0.950 . S
C1620 C1619 1.387 . S
C1620 C1623 1.387 . S
H1621 C1617 0.950 . S
H1622 C1619 0.950 . S
C1623 C1614 1.390 . S
C1623 H1616 0.950 . S
C1623 C1620 1.387 . S
C1624 C1625 1.387 . S
C1624 H1628 0.950 . S
C1624 C1633 1.390 . S
C1625 C1624 1.387 . S
C1625 C1627 1.387 . S
H1626 C1633 0.950 . S
C1627 C1625 1.387 . S
C1627 C1629 1.390 . S
C1627 H1631 0.950 . S
H1628 C1624 0.950 . S
C1629 C1627 1.390 . S
C1629 C1630 1.387 . S
C1629 H1632 0.950 . S
C1630 C1629 1.387 . S
C1630 C1633 1.387 . S
H1631 C1627 0.950 . S
H1632 C1629 0.950 . S
C1633 C1624 1.390 . S
C1633 H1626 0.950 . S
C1633 C1630 1.387 . S
C1634 C1635 1.387 . S
C1634 H1638 0.950 . S
C1634 C1643 1.390 . S
C1635 C1634 1.387 . S
C1635 C1637 1.387 . S
H1636 C1643 0.950 . S
C1637 C1635 1.387 . S
C1637 C1639 1.390 . S
C1637 H1641 0.950 . S
H1638 C1634 0.950 . S
C1639 C1637 1.390 . S
C1639 C1640 1.387 . S
C1639 H1642 0.950 . S
C1640 C1639 1.387 . S
C1640 C1643 1.387 . S
H1641 C1637 0.950 . S
H1642 C1639 0.950 . S
C1643 C1634 1.390 . S
C1643 H1636 0.950 . S
C1643 C1640 1.387 . S
C1644 C1645 1.387 . S
C1644 H1648 0.950 . S
C1644 C1653 1.390 . S
C1645 C1644 1.387 . S
C1645 C1647 1.387 . S
H1646 C1653 0.950 . S
C1647 C1645 1.387 . S
C1647 C1649 1.390 . S
C1647 H1651 0.950 . S
H1648 C1644 0.950 . S
C1649 C1647 1.390 . S
C1649 C1650 1.387 . S
C1649 H1652 0.950 . S
C1650 C1649 1.387 . S
C1650 C1653 1.387 . S
H1651 C1647 0.950 . S
H1652 C1649 0.950 . S
C1653 C1644 1.390 . S
C1653 H1646 0.950 . S
C1653 C1650 1.387 . S
C1654 C1655 1.387 . S
C1654 H1658 0.950 . S
C1654 C1663 1.390 . S
C1655 C1654 1.387 . S
C1655 C1657 1.387 . S
H1656 C1663 0.950 . S
C1657 C1655 1.387 . S
C1657 C1659 1.390 . S
C1657 H1661 0.950 . S
H1658 C1654 0.950 . S
C1659 C1657 1.390 . S
C1659 C1660 1.387 . S
C1659 H1662 0.950 . S
C1660 C1659 1.387 . S
C1660 C1663 1.387 . S
H1661 C1657 0.950 . S
H1662 C1659 0.950 . S
C1663 C1654 1.390 . S
C1663 H1656 0.950 . S
C1663 C1660 1.387 . S
C1664 C1665 1.387 . S
C1664 H1668 0.950 . S
C1664 C1673 1.390 . S
C1665 C1664 1.387 . S
C1665 C1667 1.387 . S
H1666 C1673 0.950 . S
C1667 C1665 1.387 . S
C1667 C1669 1.390 . S
C1667 H1671 0.950 . S
H1668 C1664 0.950 . S
C1669 C1667 1.390 . S
C1669 C1670 1.387 . S
C1669 H1672 0.950 . S
C1670 C1669 1.387 . S
C1670 C1673 1.387 . S
H1671 C1667 0.950 . S
H1672 C1669 0.950 . S
C1673 C1664 1.390 . S
C1673 H1666 0.950 . S
C1673 C1670 1.387 . S
C1674 C1675 1.387 . S
C1674 H1678 0.950 . S
C1674 C1683 1.390 . S
C1675 C1674 1.387 . S
C1675 C1677 1.387 . S
H1676 C1683 0.950 . S
C1677 C1675 1.387 . S
C1677 C1679 1.390 . S
C1677 H1681 0.950 . S
H1678 C1674 0.950 . S
C1679 C1677 1.390 . S
C1679 C1680 1.387 . S
C1679 H1682 0.950 . S
C1680 C1679 1.387 . S
C1680 C1683 1.387 . S
H1681 C1677 0.950 . S
H1682 C1679 0.950 . S
C1683 C1674 1.390 . S
C1683 H1676 0.950 . S
C1683 C1680 1.387 . S
C1684 C1685 1.387 . S
C1684 H1688 0.950 . S
C1684 C1693 1.390 . S
C1685 C1684 1.387 . S
C1685 C1687 1.387 . S
H1686 C1693 0.950 . S
C1687 C1685 1.387 . S
C1687 C1689 1.390 . S
C1687 H1691 0.950 . S
H1688 C1684 0.950 . S
C1689 C1687 1.390 . S
C1689 C1690 1.387 . S
C1689 H1692 0.950 . S
C1690 C1689 1.387 . S
C1690 C1693 1.387 . S
H1691 C1687 0.950 . S
H1692 C1689 0.950 . S
C1693 C1684 1.390 . S
C1693 H1686 0.950 . S
C1693 C1690 1.387 . S
C1694 C1695 1.387 . S
C1694 H1698 0.950 . S
C1694 C1703 1.390 . S
C1695 C1694 1.387 . S
C1695 C1697 1.387 . S
H1696 C1703 0.950 . S
C1697 C1695 1.387 . S
C1697 C1699 1.390 . S
C1697 H1701 0.950 . S
H1698 C1694 0.950 . S
C1699 C1697 1.390 . S
C1699 C1700 1.387 . S
C1699 H1702 0.950 . S
C1700 C1699 1.387 . S
C1700 C1703 1.387 . S
H1701 C1697 0.950 . S
H1702 C1699 0.950 . S
C1703 C1694 1.390 . S
C1703 H1696 0.950 . S
C1703 C1700 1.387 . S
C1704 C1705 1.387 . S
C1704 H1708 0.950 . S
C1704 C1713 1.390 . S
C1705 C1704 1.387 . S
C1705 C1707 1.387 . S
H1706 C1713 0.950 . S
C1707 C1705 1.387 . S
C1707 C1709 1.390 . S
C1707 H1711 0.950 . S
H1708 C1704 0.950 . S
C1709 C1707 1.390 . S
C1709 C1710 1.387 . S
C1709 H1712 0.950 . S
C1710 C1709 1.387 . S
C1710 C1713 1.387 . S
H1711 C1707 0.950 . S
H1712 C1709 0.950 . S
C1713 C1704 1.390 . S
C1713 H1706 0.950 . S
C1713 C1710 1.387 . S
C1714 C1715 1.387 . S
C1714 H1718 0.950 . S
C1714 C1723 1.390 . S
C1715 C1714 1.387 . S
C1715 C1717 1.387 . S
H1716 C1723 0.950 . S
C1717 C1715 1.387 . S
C1717 C1719 1.390 . S
C1717 H1721 0.950 . S
H1718 C1714 0.950 . S
C1719 C1717 1.390 . S
C1719 C1720 1.387 . S
C1719 H1722 0.950 . S
C1720 C1719 1.387 . S
C1720 C1723 1.387 . S
H1721 C1717 0.950 . S
H1722 C1719 0.950 . S
C1723 C1714 1.390 . S
C1723 H1716 0.950 . S
C1723 C1720 1.387 . S
C1724 C1725 1.387 . S
C1724 H1728 0.950 . S
C1724 C1733 1.390 . S
C1725 C1724 1.387 . S
C1725 C1727 1.387 . S
H1726 C1733 0.950 . S
C1727 C1725 1.387 . S
C1727 C1729 1.390 . S
C1727 H1731 0.950 . S
H1728 C1724 0.950 . S
C1729 C1727 1.390 . S
C1729 C1730 1.387 . S
C1729 H1732 0.950 . S
C1730 C1729 1.387 . S
C1730 C1733 1.387 . S
H1731 C1727 0.950 . S
H1732 C1729 0.950 . S
C1733 C1724 1.390 . S
C1733 H1726 0.950 . S
C1733 C1730 1.387 . S
C1734 C1735 1.387 . S
C1734 H1738 0.950 . S
C1734 C1743 1.390 . S
C1735 C1734 1.387 . S
C1735 C1737 1.387 . S
H1736 C1743 0.950 . S
C1737 C1735 1.387 . S
C1737 C1739 1.390 . S
C1737 H1741 0.950 . S
H1738 C1734 0.950 . S
C1739 C1737 1.390 . S
C1739 C1740 1.387 . S
C1739 H1742 0.950 . S
C1740 C1739 1.387 . S
C1740 C1743 1.387 . S
H1741 C1737 0.950 . S
H1742 C1739 0.950 . S
C1743 C1734 1.390 . S
C1743 H1736 0.950 . S
C1743 C1740 1.387 . S
C1744 C1745 1.387 . S
C1744 H1748 0.950 . S
C1744 C1753 1.390 . S
C1745 C1744 1.387 . S
C1745 C1747 1.387 . S
H1746 C1753 0.950 . S
C1747 C1745 1.387 . S
C1747 C1749 1.390 . S
C1747 H1751 0.950 . S
H1748 C1744 0.950 . S
C1749 C1747 1.390 . S
C1749 C1750 1.387 . S
C1749 H1752 0.950 . S
C1750 C1749 1.387 . S
C1750 C1753 1.387 . S
H1751 C1747 0.950 . S
H1752 C1749 0.950 . S
C1753 C1744 1.390 . S
C1753 H1746 0.950 . S
C1753 C1750 1.387 . S
C1754 C1755 1.387 . S
C1754 H1758 0.950 . S
C1754 C1763 1.390 . S
C1755 C1754 1.387 . S
C1755 C1757 1.387 . S
H1756 C1763 0.950 . S
C1757 C1755 1.387 . S
C1757 C1759 1.390 . S
C1757 H1761 0.950 . S
H1758 C1754 0.950 . S
C1759 C1757 1.390 . S
C1759 C1760 1.387 . S
C1759 H1762 0.950 . S
C1760 C1759 1.387 . S
C1760 C1763 1.387 . S
H1761 C1757 0.950 . S
H1762 C1759 0.950 . S
C1763 C1754 1.390 . S
C1763 H1756 0.950 . S
C1763 C1760 1.387 . S
C1764 C1765 1.387 . S
C1764 H1768 0.950 . S
C1764 C1773 1.390 . S
C1765 C1764 1.387 . S
C1765 C1767 1.387 . S
H1766 C1773 0.950 . S
C1767 C1765 1.387 . S
C1767 C1769 1.390 . S
C1767 H1771 0.950 . S
H1768 C1764 0.950 . S
C1769 C1767 1.390 . S
C1769 C1770 1.387 . S
C1769 H1772 0.950 . S
C1770 C1769 1.387 . S
C1770 C1773 1.387 . S
H1771 C1767 0.950 . S
H1772 C1769 0.950 . S
C1773 C1764 1.390 . S
C1773 H1766 0.950 . S
C1773 C1770 1.387 . S
C1774 C1775 1.387 . S
C1774 H1778 0.950 . S
C1774 C1783 1.390 . S
C1775 C1774 1.387 . S
C1775 C1777 1.387 . S
H1776 C1783 0.950 . S
C1777 C1775 1.387 . S
C1777 C1779 1.390 . S
C1777 H1781 0.950 . S
H1778 C1774 0.950 . S
C1779 C1777 1.390 . S
C1779 C1780 1.387 . S
C1779 H1782 0.950 . S
C1780 C1779 1.387 . S
C1780 C1783 1.387 . S
H1781 C1777 0.950 . S
H1782 C1779 0.950 . S
C1783 C1774 1.390 . S
C1783 H1776 0.950 . S
C1783 C1780 1.387 . S
C1784 C1785 1.387 . S
C1784 H1788 0.950 . S
C1784 C1793 1.390 . S
C1785 C1784 1.387 . S
C1785 C1787 1.387 . S
H1786 C1793 0.950 . S
C1787 C1785 1.387 . S
C1787 C1789 1.390 . S
C1787 H1791 0.950 . S
H1788 C1784 0.950 . S
C1789 C1787 1.390 . S
C1789 C1790 1.387 . S
C1789 H1792 0.950 . S
C1790 C1789 1.387 . S
C1790 C1793 1.387 . S
H1791 C1787 0.950 . S
H1792 C1789 0.950 . S
C1793 C1784 1.390 . S
C1793 H1786 0.950 . S
C1793 C1790 1.387 . S
C1794 C1795 1.387 . S
C1794 H1798 0.950 . S
C1794 C1803 1.390 . S
C1795 C1794 1.387 . S
C1795 C1797 1.387 . S
H1796 C1803 0.950 1_455 S
C1797 C1795 1.387 . S
C1797 C1799 1.390 . S
C1797 H1801 0.950 . S
H1798 C1794 0.950 . S
C1799 C1797 1.390 . S
C1799 C1800 1.387 . S
C1799 H1802 0.950 . S
C1800 C1799 1.387 . S
C1800 C1803 1.387 . S
H1801 C1797 0.950 . S
H1802 C1799 0.950 . S
C1803 C1794 1.390 . S
C1803 H1796 0.950 1_655 S
C1803 C1800 1.387 . S
C1804 C1805 1.387 . S
C1804 H1808 0.950 . S
C1804 C1813 1.390 . S
C1805 C1804 1.387 . S
C1805 C1807 1.387 . S
H1806 C1813 0.950 . S
C1807 C1805 1.387 . S
C1807 C1809 1.390 . S
C1807 H1811 0.950 . S
H1808 C1804 0.950 . S
C1809 C1807 1.390 . S
C1809 C1810 1.387 . S
C1809 H1812 0.950 . S
C1810 C1809 1.387 . S
C1810 C1813 1.387 . S
H1811 C1807 0.950 . S
H1812 C1809 0.950 . S
C1813 C1804 1.390 . S
C1813 H1806 0.950 . S
C1813 C1810 1.387 . S
C1814 C1815 1.387 . S
C1814 H1818 0.950 . S
C1814 C1823 1.390 . S
C1815 C1814 1.387 . S
C1815 C1817 1.387 . S
H1816 C1823 0.950 . S
C1817 C1815 1.387 . S
C1817 C1819 1.390 . S
C1817 H1821 0.950 . S
H1818 C1814 0.950 . S
C1819 C1817 1.390 . S
C1819 C1820 1.387 . S
C1819 H1822 0.950 . S
C1820 C1819 1.387 . S
C1820 C1823 1.387 . S
H1821 C1817 0.950 . S
H1822 C1819 0.950 . S
C1823 C1814 1.390 . S
C1823 H1816 0.950 . S
C1823 C1820 1.387 . S
C1824 C1825 1.387 . S
C1824 H1828 0.950 . S
C1824 C1833 1.390 . S
C1825 C1824 1.387 . S
C1825 C1827 1.387 . S
H1826 C1833 0.950 . S
C1827 C1825 1.387 . S
C1827 C1829 1.390 . S
C1827 H1831 0.950 . S
H1828 C1824 0.950 . S
C1829 C1827 1.390 . S
C1829 C1830 1.387 . S
C1829 H1832 0.950 . S
C1830 C1829 1.387 . S
C1830 C1833 1.387 . S
H1831 C1827 0.950 . S
H1832 C1829 0.950 . S
C1833 C1824 1.390 . S
C1833 H1826 0.950 . S
C1833 C1830 1.387 . S
C1834 C1835 1.387 . S
C1834 H1838 0.950 . S
C1834 C1843 1.390 . S
C1835 C1834 1.387 . S
C1835 C1837 1.387 . S
H1836 C1843 0.950 . S
C1837 C1835 1.387 . S
C1837 C1839 1.390 . S
C1837 H1841 0.950 . S
H1838 C1834 0.950 . S
C1839 C1837 1.390 . S
C1839 C1840 1.387 . S
C1839 H1842 0.950 . S
C1840 C1839 1.387 . S
C1840 C1843 1.387 . S
H1841 C1837 0.950 . S
H1842 C1839 0.950 . S
C1843 C1834 1.390 . S
C1843 H1836 0.950 . S
C1843 C1840 1.387 . S
C1844 C1845 1.387 . S
C1844 H1848 0.950 . S
C1844 C1853 1.390 . S
C1845 C1844 1.387 . S
C1845 C1847 1.387 . S
H1846 C1853 0.950 . S
C1847 C1845 1.387 . S
C1847 C1849 1.390 . S
C1847 H1851 0.950 . S
H1848 C1844 0.950 . S
C1849 C1847 1.390 . S
C1849 C1850 1.387 . S
C1849 H1852 0.950 . S
C1850 C1849 1.387 . S
C1850 C1853 1.387 . S
H1851 C1847 0.950 . S
H1852 C1849 0.950 . S
C1853 C1844 1.390 . S
C1853 H1846 0.950 . S
C1853 C1850 1.387 . S
C1854 C1855 1.387 . S
C1854 H1858 0.950 . S
C1854 C1863 1.390 . S
C1855 C1854 1.387 . S
C1855 C1857 1.387 . S
H1856 C1863 0.950 . S
C1857 C1855 1.387 . S
C1857 C1859 1.390 . S
C1857 H1861 0.950 . S
H1858 C1854 0.950 . S
C1859 C1857 1.390 . S
C1859 C1860 1.387 . S
C1859 H1862 0.950 . S
C1860 C1859 1.387 . S
C1860 C1863 1.387 . S
H1861 C1857 0.950 . S
H1862 C1859 0.950 . S
C1863 C1854 1.390 . S
C1863 H1856 0.950 . S
C1863 C1860 1.387 . S
C1864 C1865 1.387 . S
C1864 H1868 0.950 . S
C1864 C1873 1.390 . S
C1865 C1864 1.387 . S
C1865 C1867 1.387 . S
H1866 C1873 0.950 . S
C1867 C1865 1.387 . S
C1867 C1869 1.390 . S
C1867 H1871 0.950 . S
H1868 C1864 0.950 . S
C1869 C1867 1.390 . S
C1869 C1870 1.387 . S
C1869 H1872 0.950 . S
C1870 C1869 1.387 . S
C1870 C1873 1.387 . S
H1871 C1867 0.950 . S
H1872 C1869 0.950 . S
C1873 C1864 1.390 . S
C1873 H1866 0.950 . S
C1873 C1870 1.387 . S
C1874 C1875 1.387 . S
C1874 H1878 0.950 . S
C1874 C1883 1.390 . S
C1875 C1874 1.387 . S
C1875 C1877 1.387 . S
H1876 C1883 0.950 . S
C1877 C1875 1.387 . S
C1877 C1879 1.390 . S
C1877 H1881 0.950 . S
H1878 C1874 0.950 . S
C1879 C1877 1.390 . S
C1879 C1880 1.387 . S
C1879 H1882 0.950 . S
C1880 C1879 1.387 . S
C1880 C1883 1.387 . S
H1881 C1877 0.950 . S
H1882 C1879 0.950 . S
C1883 C1874 1.390 . S
C1883 H1876 0.950 . S
C1883 C1880 1.387 . S
C1884 C1885 1.387 . S
C1884 H1888 0.950 . S
C1884 C1893 1.390 . S
C1885 C1884 1.387 . S
C1885 C1887 1.387 . S
H1886 C1893 0.950 . S
C1887 C1885 1.387 . S
C1887 C1889 1.390 . S
C1887 H1891 0.950 . S
H1888 C1884 0.950 . S
C1889 C1887 1.390 . S
C1889 C1890 1.387 . S
C1889 H1892 0.950 . S
C1890 C1889 1.387 . S
C1890 C1893 1.387 . S
H1891 C1887 0.950 . S
H1892 C1889 0.950 . S
C1893 C1884 1.390 . S
C1893 H1886 0.950 . S
C1893 C1890 1.387 . S
C1894 C1895 1.387 . S
C1894 H1898 0.950 . S
C1894 C1903 1.390 . S
C1895 C1894 1.387 . S
C1895 C1897 1.387 . S
H1896 C1903 0.950 . S
C1897 C1895 1.387 . S
C1897 C1899 1.390 . S
C1897 H1901 0.950 . S
H1898 C1894 0.950 . S
C1899 C1897 1.390 . S
C1899 C1900 1.387 . S
C1899 H1902 0.950 . S
C1900 C1899 1.387 . S
C1900 C1903 1.387 . S
H1901 C1897 0.950 . S
H1902 C1899 0.950 . S
C1903 C1894 1.390 . S
C1903 H1896 0.950 . S
C1903 C1900 1.387 . S
C1904 C1905 1.387 . S
C1904 H1908 0.950 . S
C1904 C1913 1.390 . S
C1905 C1904 1.387 . S
C1905 C1907 1.387 . S
H1906 C1913 0.950 . S
C1907 C1905 1.387 . S
C1907 C1909 1.390 . S
C1907 H1911 0.950 . S
H1908 C1904 0.950 . S
C1909 C1907 1.390 . S
C1909 C1910 1.387 . S
C1909 H1912 0.950 . S
C1910 C1909 1.387 . S
C1910 C1913 1.387 . S
H1911 C1907 0.950 . S
H1912 C1909 0.950 . S
C1913 C1904 1.390 . S
C1913 H1906 0.950 . S
C1913 C1910 1.387 . S
C1914 C1915 1.387 . S
C1914 H1918 0.950 . S
C1914 C1923 1.390 . S
C1915 C1914 1.387 . S
C1915 C1917 1.387 . S
H1916 C1923 0.950 . S
C1917 C1915 1.387 . S
C1917 C1919 1.390 . S
C1917 H1921 0.950 . S
H1918 C1914 0.950 . S
C1919 C1917 1.390 . S
C1919 C1920 1.387 . S
C1919 H1922 0.950 . S
C1920 C1919 1.387 . S
C1920 C1923 1.387 . S
H1921 C1917 0.950 . S
H1922 C1919 0.950 . S
C1923 C1914 1.390 . S
C1923 H1916 0.950 . S
C1923 C1920 1.387 . S
C1924 C1925 1.387 . S
C1924 H1928 0.950 . S
C1924 C1933 1.390 . S
C1925 C1924 1.387 . S
C1925 C1927 1.387 . S
H1926 C1933 0.950 . S
C1927 C1925 1.387 . S
C1927 C1929 1.390 . S
C1927 H1931 0.950 . S
H1928 C1924 0.950 . S
C1929 C1927 1.390 . S
C1929 C1930 1.387 . S
C1929 H1932 0.950 . S
C1930 C1929 1.387 . S
C1930 C1933 1.387 . S
H1931 C1927 0.950 . S
H1932 C1929 0.950 . S
C1933 C1924 1.390 . S
C1933 H1926 0.950 . S
C1933 C1930 1.387 . S
C1934 C1935 1.387 . S
C1934 H1938 0.950 . S
C1934 C1943 1.390 . S
C1935 C1934 1.387 . S
C1935 C1937 1.387 . S
H1936 C1943 0.950 . S
C1937 C1935 1.387 . S
C1937 C1939 1.390 . S
C1937 H1941 0.950 . S
H1938 C1934 0.950 . S
C1939 C1937 1.390 . S
C1939 C1940 1.387 . S
C1939 H1942 0.950 . S
C1940 C1939 1.387 . S
C1940 C1943 1.387 . S
H1941 C1937 0.950 . S
H1942 C1939 0.950 . S
C1943 C1934 1.390 . S
C1943 H1936 0.950 . S
C1943 C1940 1.387 . S
C1405 C469 1.488 . S
C1410 C704 1.403 . S
C1415 C505 1.497 . S
C1420 C788 1.418 . S
C1425 C433 1.523 . S
C1430 C882 1.454 . S
C1435 C397 1.478 . S
C1440 C798 1.419 . S
C1450 C872 1.361 . S
C1445 C325 1.445 . S
C1455 C361 1.473 . S
C1460 C714 1.404 . S
C1470 C715 1.402 . S
C1465 C421 1.488 . S
C1480 C799 1.419 . S
C1475 C349 1.496 . S
C1485 C385 1.523 . S
C1490 C891 1.457 . S
C1495 C493 1.478 . S
C1500 C807 1.420 . S
C1505 C529 1.446 . S
C1510 C883 1.362 . S
C1520 C723 1.407 . S
C1515 C457 1.475 . S
C1530 C956 1.401 . S
C1525 C37 1.487 1_455 S
C1535 C73 1.497 . S
C1540 C1040 1.419 . S
C1545 C1 1.523 1_565 S
C1550 C1134 1.453 . S
C1555 C613 1.478 . S
C1560 C1050 1.419 . S
C1565 C541 1.445 . S
C1570 C1124 1.365 . S
C1575 C577 1.473 . S
C1580 C966 1.404 . S
C1585 C637 1.488 . S
C1590 C967 1.404 . S
C1595 C565 1.496 . S
C1600 C1051 1.419 . S
C1610 C1143 1.457 . S
C1605 C601 1.523 . S
C1615 C61 1.478 1_565 S
C1620 C1059 1.420 . S
C1630 C1135 1.362 . S
C1625 C97 1.446 1_455 S
C1635 C25 1.476 . S
C1640 C975 1.409 . S
C1650 C1208 1.404 . S
C1645 C253 1.487 . S
C1655 C289 1.497 . S
C1660 C1292 1.418 . S
C1670 C1386 1.454 . S
C1665 C217 1.523 . S
C1680 C1302 1.416 . S
C1675 C181 1.477 1_545 S
C1690 C1376 1.365 . S
C1685 C109 1.445 1_655 S
C1695 C145 1.473 . S
C1700 C1218 1.405 . S
C1705 C205 1.488 1_655 S
C1710 C1219 1.403 . S
C1715 C133 1.496 . S
C1720 C1303 1.419 . S
C1730 C1395 1.454 . S
C1725 C169 1.522 1_545 S
C1735 C277 1.478 . S
C1740 C1311 1.420 . S
C1745 C313 1.445 . S
C1750 C1387 1.366 . S
C1755 C241 1.475 . S
C1760 C1227 1.408 . S
C1765 C571 1.476 . S
C1770 C711 1.377 . S
C1780 C795 1.370 . S
C1775 C607 1.517 . S
C1785 C643 1.491 . S
C1790 C888 1.365 . S
C1795 C247 1.517 . S
C1800 C804 1.369 . S
C1805 C283 1.492 . S
C1810 C879 1.367 . S
C1820 C720 1.380 . S
C1815 C319 1.475 . S
C1825 C139 1.476 . S
C1830 C963 1.376 . S
C1835 C175 1.517 . S
C1840 C1047 1.369 . S
C1845 C211 1.492 . S
C1850 C1140 1.365 . S
C1855 C463 1.517 . S
C1860 C1056 1.366 . S
C1870 C1131 1.366 . S
C1865 C499 1.492 . S
C1875 C535 1.475 . S
C1880 C972 1.380 . S
C1885 C355 1.476 . S
C1890 C1215 1.377 . S
C1895 C391 1.517 . S
C1900 C1299 1.368 . S
C1910 C1392 1.366 . S
C1905 C427 1.491 . S
C1915 C31 1.518 . S
C1920 C1308 1.366 . S
C1925 C67 1.492 . S
C1930 C1383 1.366 . S
C1935 C103 1.475 . S
C1940 C1224 1.380 . S
