# Generated by pormake.
# Topology ctn, (3,4)-cn, num edge types: 1
# Building blocks:
#     Node 0, Type 0, BuildingBlock: VETTIZ_charged_linker_0, # of connection points: 3
#     Node 1, Type 0, BuildingBlock: VETTIZ_charged_linker_0, # of connection points: 3
#     Node 2, Type 0, BuildingBlock: VETTIZ_charged_linker_0, # of connection points: 3
#     Node 3, Type 0, BuildingBlock: VETTIZ_charged_linker_0, # of connection points: 3
#     Node 4, Type 0, BuildingBlock: VETTIZ_charged_linker_0, # of connection points: 3
#     Node 5, Type 0, BuildingBlock: VETTIZ_charged_linker_0, # of connection points: 3
#     Node 6, Type 0, BuildingBlock: VETTIZ_charged_linker_0, # of connection points: 3
#     Node 7, Type 0, BuildingBlock: VETTIZ_charged_linker_0, # of connection points: 3
#     Node 8, Type 0, BuildingBlock: VETTIZ_charged_linker_0, # of connection points: 3
#     Node 9, Type 0, BuildingBlock: VETTIZ_charged_linker_0, # of connection points: 3
#     Node 10, Type 0, BuildingBlock: VETTIZ_charged_linker_0, # of connection points: 3
#     Node 11, Type 0, BuildingBlock: VETTIZ_charged_linker_0, # of connection points: 3
#     Node 12, Type 0, BuildingBlock: VETTIZ_charged_linker_0, # of connection points: 3
#     Node 13, Type 0, BuildingBlock: VETTIZ_charged_linker_0, # of connection points: 3
#     Node 14, Type 0, BuildingBlock: VETTIZ_charged_linker_0, # of connection points: 3
#     Node 15, Type 0, BuildingBlock: VETTIZ_charged_linker_0, # of connection points: 3
#     Node 16, Type 1, BuildingBlock: NAHDIM_clean_sbu_0, # of connection points: 4
#     Node 17, Type 1, BuildingBlock: NAHDIM_clean_sbu_0, # of connection points: 4
#     Node 18, Type 1, BuildingBlock: NAHDIM_clean_sbu_0, # of connection points: 4
#     Node 19, Type 1, BuildingBlock: NAHDIM_clean_sbu_0, # of connection points: 4
#     Node 20, Type 1, BuildingBlock: NAHDIM_clean_sbu_0, # of connection points: 4
#     Node 21, Type 1, BuildingBlock: NAHDIM_clean_sbu_0, # of connection points: 4
#     Node 22, Type 1, BuildingBlock: NAHDIM_clean_sbu_0, # of connection points: 4
#     Node 23, Type 1, BuildingBlock: NAHDIM_clean_sbu_0, # of connection points: 4
#     Node 24, Type 1, BuildingBlock: NAHDIM_clean_sbu_0, # of connection points: 4
#     Node 25, Type 1, BuildingBlock: NAHDIM_clean_sbu_0, # of connection points: 4
#     Node 26, Type 1, BuildingBlock: NAHDIM_clean_sbu_0, # of connection points: 4
#     Node 27, Type 1, BuildingBlock: NAHDIM_clean_sbu_0, # of connection points: 4
#     Edge 28, Type (0, 1), BuildingBlock: MIFKUJ_clean_linker_0, # of connection points: 2
#     Edge 29, Type (0, 1), BuildingBlock: MIFKUJ_clean_linker_0, # of connection points: 2
#     Edge 30, Type (0, 1), BuildingBlock: MIFKUJ_clean_linker_0, # of connection points: 2
#     Edge 31, Type (0, 1), BuildingBlock: MIFKUJ_clean_linker_0, # of connection points: 2
#     Edge 32, Type (0, 1), BuildingBlock: MIFKUJ_clean_linker_0, # of connection points: 2
#     Edge 33, Type (0, 1), BuildingBlock: MIFKUJ_clean_linker_0, # of connection points: 2
#     Edge 34, Type (0, 1), BuildingBlock: MIFKUJ_clean_linker_0, # of connection points: 2
#     Edge 35, Type (0, 1), BuildingBlock: MIFKUJ_clean_linker_0, # of connection points: 2
#     Edge 36, Type (0, 1), BuildingBlock: MIFKUJ_clean_linker_0, # of connection points: 2
#     Edge 37, Type (0, 1), BuildingBlock: MIFKUJ_clean_linker_0, # of connection points: 2
#     Edge 38, Type (0, 1), BuildingBlock: MIFKUJ_clean_linker_0, # of connection points: 2
#     Edge 39, Type (0, 1), BuildingBlock: MIFKUJ_clean_linker_0, # of connection points: 2
#     Edge 40, Type (0, 1), BuildingBlock: MIFKUJ_clean_linker_0, # of connection points: 2
#     Edge 41, Type (0, 1), BuildingBlock: MIFKUJ_clean_linker_0, # of connection points: 2
#     Edge 42, Type (0, 1), BuildingBlock: MIFKUJ_clean_linker_0, # of connection points: 2
#     Edge 43, Type (0, 1), BuildingBlock: MIFKUJ_clean_linker_0, # of connection points: 2
#     Edge 44, Type (0, 1), BuildingBlock: MIFKUJ_clean_linker_0, # of connection points: 2
#     Edge 45, Type (0, 1), BuildingBlock: MIFKUJ_clean_linker_0, # of connection points: 2
#     Edge 46, Type (0, 1), BuildingBlock: MIFKUJ_clean_linker_0, # of connection points: 2
#     Edge 47, Type (0, 1), BuildingBlock: MIFKUJ_clean_linker_0, # of connection points: 2
#     Edge 48, Type (0, 1), BuildingBlock: MIFKUJ_clean_linker_0, # of connection points: 2
#     Edge 49, Type (0, 1), BuildingBlock: MIFKUJ_clean_linker_0, # of connection points: 2
#     Edge 50, Type (0, 1), BuildingBlock: MIFKUJ_clean_linker_0, # of connection points: 2
#     Edge 51, Type (0, 1), BuildingBlock: MIFKUJ_clean_linker_0, # of connection points: 2
#     Edge 52, Type (0, 1), BuildingBlock: MIFKUJ_clean_linker_0, # of connection points: 2
#     Edge 53, Type (0, 1), BuildingBlock: MIFKUJ_clean_linker_0, # of connection points: 2
#     Edge 54, Type (0, 1), BuildingBlock: MIFKUJ_clean_linker_0, # of connection points: 2
#     Edge 55, Type (0, 1), BuildingBlock: MIFKUJ_clean_linker_0, # of connection points: 2
#     Edge 56, Type (0, 1), BuildingBlock: MIFKUJ_clean_linker_0, # of connection points: 2
#     Edge 57, Type (0, 1), BuildingBlock: MIFKUJ_clean_linker_0, # of connection points: 2
#     Edge 58, Type (0, 1), BuildingBlock: MIFKUJ_clean_linker_0, # of connection points: 2
#     Edge 59, Type (0, 1), BuildingBlock: MIFKUJ_clean_linker_0, # of connection points: 2
#     Edge 60, Type (0, 1), BuildingBlock: MIFKUJ_clean_linker_0, # of connection points: 2
#     Edge 61, Type (0, 1), BuildingBlock: MIFKUJ_clean_linker_0, # of connection points: 2
#     Edge 62, Type (0, 1), BuildingBlock: MIFKUJ_clean_linker_0, # of connection points: 2
#     Edge 63, Type (0, 1), BuildingBlock: MIFKUJ_clean_linker_0, # of connection points: 2
#     Edge 64, Type (0, 1), BuildingBlock: MIFKUJ_clean_linker_0, # of connection points: 2
#     Edge 65, Type (0, 1), BuildingBlock: MIFKUJ_clean_linker_0, # of connection points: 2
#     Edge 66, Type (0, 1), BuildingBlock: MIFKUJ_clean_linker_0, # of connection points: 2
#     Edge 67, Type (0, 1), BuildingBlock: MIFKUJ_clean_linker_0, # of connection points: 2
#     Edge 68, Type (0, 1), BuildingBlock: MIFKUJ_clean_linker_0, # of connection points: 2
#     Edge 69, Type (0, 1), BuildingBlock: MIFKUJ_clean_linker_0, # of connection points: 2
#     Edge 70, Type (0, 1), BuildingBlock: MIFKUJ_clean_linker_0, # of connection points: 2
#     Edge 71, Type (0, 1), BuildingBlock: MIFKUJ_clean_linker_0, # of connection points: 2
#     Edge 72, Type (0, 1), BuildingBlock: MIFKUJ_clean_linker_0, # of connection points: 2
#     Edge 73, Type (0, 1), BuildingBlock: MIFKUJ_clean_linker_0, # of connection points: 2
#     Edge 74, Type (0, 1), BuildingBlock: MIFKUJ_clean_linker_0, # of connection points: 2
#     Edge 75, Type (0, 1), BuildingBlock: MIFKUJ_clean_linker_0, # of connection points: 2
# Relax obj value: 0.002
# Max RMSD: 0.034
# Mean RMSD: 0.017
data_MOF--net-ctn--node1-NAHDIM_clean_sbu_0--node2-VETTIZ_charged_linker_0--edge1-MIFKUJ_clean_linker_0
_symmetry_space_group_name_H-M    P1
_symmetry_Int_Tables_number       1
_symmetry_cell_setting            triclinic
loop_
_symmetry_equiv_pos_as_xyz
'x, y, z'
_cell_length_a     83.784464
_cell_length_b     84.173117
_cell_length_c     83.409849
_cell_angle_alpha  91.059373
_cell_angle_beta   90.006388
_cell_angle_gamma 91.935194
loop_
_atom_site_label
_atom_site_type_symbol
_atom_site_fract_x
_atom_site_fract_y
_atom_site_fract_z
_atom_type_partial_charge
C0 C 0.03329 0.08638 0.00149 0.0
C1 C 0.02197 0.09814 0.00415 0.0
C2 C 0.01248 0.0974 0.01812 0.0
C3 C 0.02533 0.07346 0.02616 0.0
C4 C 0.03481 0.07427 0.01263 0.0
C5 C 0.04655 0.06114 0.01184 0.0
H6 H 0.07795 0.99667 0.04565 0.0
C7 C 0.0298 0.05936 0.03521 0.0
C8 C 0.04226 0.0521 0.02692 0.0
H9 H 0.09339 0.02069 0.00268 0.0
H10 H 0.07195 0.03894 0.00555 0.0
H11 H 0.07117 0.02829 0.06642 0.0
H12 H 0.04039 0.99704 0.03789 0.0
H13 H 0.02914 0.00322 0.05448 0.0
H14 H 0.04675 0.99184 0.05759 0.0
H15 H 0.06619 0.00814 0.07174 0.0
H16 H 0.05361 0.02421 0.07739 0.0
C17 C 0.06365 0.06878 0.01266 0.0
C18 C 0.04305 0.05099 0.99648 0.0
C19 C 0.00047 0.04563 0.08666 0.0
C20 C 0.0013 0.03286 0.0972 0.0
C21 C 0.01216 0.02078 0.09399 0.0
C22 C 0.02226 0.02157 0.08061 0.0
C23 C 0.02142 0.03451 0.07025 0.0
C24 C 0.01049 0.04613 0.07325 0.0
C25 C 0.01072 0.05859 0.06057 0.0
C26 C 0.02374 0.05266 0.04957 0.0
C27 C 0.03009 0.03866 0.05538 0.0
C28 C 0.01548 0.07481 0.06863 0.0
C29 C 0.99416 0.05806 0.05223 0.0
C30 C 0.07658 0.00574 0.03675 0.0
C31 C 0.08743 0.0073 0.02397 0.0
C32 C 0.08533 0.01939 0.01276 0.0
C33 C 0.07285 0.02996 0.01443 0.0
C34 C 0.06237 0.02852 0.02751 0.0
C35 C 0.06424 0.01648 0.03832 0.0
C36 C 0.05209 0.01693 0.0516 0.0
C37 C 0.04288 0.03144 0.04716 0.0
C38 C 0.04892 0.03814 0.03301 0.0
C39 C 0.06112 0.01942 0.06771 0.0
C40 C 0.04155 0.00145 0.05051 0.0
H41 H 0.00647 0.08529 0.03942 0.0
H42 H 0.04074 0.08646 0.99088 0.0
H43 H 0.02995 0.04931 0.99458 0.0
H44 H 0.04761 0.03887 0.99711 0.0
H45 H 0.04813 0.05686 0.98572 0.0
H46 H 0.06386 0.08017 0.01968 0.0
H47 H 0.06831 0.07142 0.0005 0.0
H48 H 0.07218 0.06134 0.01895 0.0
H49 H 0.99203 0.05492 0.08869 0.0
H50 H 0.01298 0.01085 0.10199 0.0
H51 H 0.03038 0.0121 0.07887 0.0
H52 H 0.02436 0.07328 0.07835 0.0
H53 H 0.00493 0.08048 0.07405 0.0
H54 H 0.02138 0.08319 0.0603 0.0
H55 H 0.9891 0.04568 0.05145 0.0
H56 H 0.99468 0.062 0.03968 0.0
H57 H 0.98552 0.06535 0.05897 0.0
H58 H 0.00392 0.10645 0.02074 0.0
C59 C 0.01406 0.08514 0.02906 0.0
C60 C 0.26114 0.66306 0.22636 0.0
C61 C 0.24765 0.65972 0.21664 0.0
C62 C 0.2444 0.67 0.20397 0.0
C63 C 0.26754 0.6867 0.21107 0.0
C64 C 0.27088 0.67653 0.22335 0.0
C65 C 0.28564 0.68179 0.23254 0.0
H66 H 0.34528 0.73679 0.24565 0.0
C67 C 0.27983 0.69971 0.21131 0.0
C68 C 0.29051 0.69688 0.22382 0.0
H69 H 0.33619 0.69287 0.2706 0.0
H70 H 0.31376 0.68646 0.25318 0.0
H71 H 0.30797 0.74644 0.24166 0.0
H72 H 0.34073 0.7218 0.21109 0.0
H73 H 0.32879 0.73285 0.19845 0.0
H74 H 0.34144 0.74306 0.21314 0.0
H75 H 0.32523 0.75589 0.23272 0.0
H76 H 0.30649 0.75399 0.22219 0.0
C77 C 0.28072 0.68528 0.25012 0.0
C78 C 0.29818 0.66878 0.23053 0.0
C79 C 0.27671 0.74432 0.17138 0.0
C80 C 0.28647 0.75789 0.16841 0.0
C81 C 0.30007 0.76092 0.17813 0.0
C82 C 0.30384 0.75067 0.19053 0.0
C83 C 0.29398 0.73717 0.19328 0.0
C84 C 0.28073 0.73414 0.18371 0.0
C85 C 0.27185 0.71901 0.18807 0.0
C86 C 0.28196 0.71345 0.20184 0.0
C87 C 0.29482 0.72419 0.20492 0.0
C88 C 0.25487 0.72333 0.19364 0.0
C89 C 0.27222 0.70741 0.17342 0.0
C90 C 0.33835 0.72586 0.2474 0.0
C91 C 0.34236 0.71537 0.25956 0.0
C92 C 0.33331 0.70109 0.26127 0.0
C93 C 0.32027 0.69744 0.25119 0.0
C94 C 0.31627 0.70812 0.23919 0.0
C95 C 0.32539 0.72196 0.23732 0.0
C96 C 0.31979 0.73158 0.22351 0.0
C97 C 0.30559 0.7214 0.21763 0.0
C98 C 0.30352 0.70776 0.22694 0.0
C99 C 0.31466 0.74791 0.23023 0.0
C100 C 0.33335 0.73254 0.21087 0.0
H101 H 0.25106 0.69079 0.19136 0.0
H102 H 0.26394 0.65552 0.23628 0.0
H103 H 0.29694 0.66255 0.21869 0.0
H104 H 0.31059 0.67368 0.23069 0.0
H105 H 0.2968 0.65967 0.23995 0.0
H106 H 0.26916 0.69139 0.25058 0.0
H107 H 0.27924 0.67409 0.25692 0.0
H108 H 0.28927 0.69334 0.25657 0.0
H109 H 0.26607 0.74167 0.16433 0.0
H110 H 0.30798 0.7711 0.17599 0.0
H111 H 0.31435 0.75364 0.19746 0.0
H112 H 0.25523 0.73464 0.20076 0.0
H113 H 0.24685 0.72491 0.18322 0.0
H114 H 0.24932 0.71445 0.20167 0.0
H115 H 0.28344 0.70916 0.16643 0.0
H116 H 0.27214 0.6948 0.17687 0.0
H117 H 0.26207 0.70927 0.16517 0.0
H118 H 0.23429 0.66759 0.1961 0.0
C119 C 0.25423 0.68345 0.20116 0.0
C120 C 0.97885 0.42255 0.00384 0.0
C121 C 0.96905 0.41935 0.99037 0.0
C122 C 0.95625 0.4294 0.98745 0.0
C123 C 0.96312 0.44527 0.01115 0.0
C124 C 0.97562 0.43543 0.01405 0.0
C125 C 0.98455 0.44011 0.02916 0.0
H126 H 0.99253 0.48871 0.09447 0.0
C127 C 0.96283 0.45737 0.0242 0.0
C128 C 0.9753 0.45436 0.03485 0.0
H129 H 0.02114 0.44874 0.08115 0.0
H130 H 0.00543 0.44433 0.05717 0.0
H131 H 0.95892 0.47202 0.08566 0.0
H132 H 0.99051 0.50301 0.05893 0.0
H133 H 0.97094 0.50907 0.05564 0.0
H134 H 0.97903 0.50989 0.07568 0.0
H135 H 0.961 0.49294 0.09005 0.0
H136 H 0.94691 0.48512 0.0753 0.0
C137 C 0.98298 0.42611 0.04094 0.0
C138 C 0.00195 0.44486 0.02455 0.0
C139 C 0.92139 0.50004 0.0235 0.0
C140 C 0.91788 0.5126 0.03412 0.0
C141 C 0.927 0.51482 0.04823 0.0
C142 C 0.93953 0.50478 0.05163 0.0
C143 C 0.94295 0.49232 0.04085 0.0
C144 C 0.93387 0.49006 0.02712 0.0
C145 C 0.93892 0.47595 0.01726 0.0
C146 C 0.95272 0.47029 0.02721 0.0
C147 C 0.95506 0.47994 0.04097 0.0
C148 C 0.92477 0.46358 0.01658 0.0
C149 C 0.94454 0.48196 0.00069 0.0
C150 C 0.99533 0.47892 0.08646 0.0
C151 C 0.00809 0.46905 0.08975 0.0
C152 C 0.01149 0.45663 0.07883 0.0
C153 C 0.00228 0.45401 0.06494 0.0
C154 C 0.98949 0.46391 0.0619 0.0
C155 C 0.98624 0.47616 0.07254 0.0
C156 C 0.97228 0.48556 0.06729 0.0
C157 C 0.96759 0.47685 0.05182 0.0
C158 C 0.9777 0.46418 0.04873 0.0
C159 C 0.95905 0.484 0.08022 0.0
C160 C 0.97835 0.50284 0.0643 0.0
H161 H 0.94333 0.44945 0.99484 0.0
H162 H 0.98889 0.41522 0.00639 0.0
H163 H 0.00233 0.45111 0.01291 0.0
H164 H 0.00771 0.45332 0.03321 0.0
H165 H 0.00938 0.43422 0.02329 0.0
H166 H 0.97106 0.41996 0.03982 0.0
H167 H 0.99216 0.41717 0.03848 0.0
H168 H 0.98379 0.42997 0.05364 0.0
H169 H 0.91442 0.49788 0.01269 0.0
H170 H 0.92458 0.52448 0.05655 0.0
H171 H 0.94608 0.50714 0.06252 0.0
H172 H 0.91726 0.46432 0.02756 0.0
H173 H 0.91692 0.46554 0.00612 0.0
H174 H 0.92872 0.45118 0.0162 0.0
H175 H 0.9516 0.49335 0.00202 0.0
H176 H 0.95255 0.47375 0.99445 0.0
H177 H 0.93419 0.48413 0.99279 0.0
H178 H 0.94831 0.42711 0.97737 0.0
C179 C 0.95328 0.44232 0.99772 0.0
C180 C 0.66472 0.79699 0.24135 0.0
C181 C 0.65425 0.78363 0.23974 0.0
C182 C 0.65659 0.77273 0.22697 0.0
C183 C 0.67935 0.78855 0.21773 0.0
C184 C 0.67714 0.79918 0.23029 0.0
C185 C 0.68943 0.81263 0.23042 0.0
H186 H 0.75442 0.84827 0.19663 0.0
C187 C 0.69329 0.7943 0.20837 0.0
C188 C 0.69926 0.8084 0.21576 0.0
H189 H 0.72972 0.86238 0.23989 0.0
H190 H 0.71077 0.84043 0.23623 0.0
H191 H 0.72335 0.83957 0.17576 0.0
H192 H 0.75379 0.81118 0.20432 0.0
H193 H 0.74938 0.80026 0.18665 0.0
H194 H 0.75995 0.81921 0.18544 0.0
H195 H 0.74285 0.83415 0.16918 0.0
H196 H 0.72542 0.82147 0.1653 0.0
C197 C 0.68068 0.82837 0.22829 0.0
C198 C 0.69924 0.81183 0.24614 0.0
C199 C 0.71088 0.76322 0.15899 0.0
C200 C 0.72312 0.76583 0.14771 0.0
C201 C 0.73322 0.7795 0.14938 0.0
C202 C 0.73123 0.79034 0.16211 0.0
C203 C 0.71899 0.78753 0.17333 0.0
C204 C 0.70901 0.7742 0.17161 0.0
C205 C 0.69647 0.77333 0.1845 0.0
C206 C 0.70068 0.78826 0.19431 0.0
C207 C 0.71392 0.79648 0.18775 0.0
C208 C 0.67988 0.77418 0.17641 0.0
C209 C 0.69891 0.75804 0.19415 0.0
C210 C 0.74502 0.84659 0.2054 0.0
C211 C 0.74363 0.85712 0.21859 0.0
C212 C 0.73098 0.8546 0.22952 0.0
C213 C 0.72005 0.84174 0.22745 0.0
C214 C 0.72177 0.83121 0.21434 0.0
C215 C 0.73407 0.83376 0.20358 0.0
C216 C 0.73421 0.82125 0.19049 0.0
C217 C 0.72003 0.81069 0.19524 0.0
C218 C 0.71275 0.8166 0.20919 0.0
C219 C 0.73143 0.82942 0.17427 0.0
C220 C 0.75016 0.81251 0.1916 0.0
H221 H 0.67017 0.76638 0.20656 0.0
H222 H 0.66321 0.80569 0.25091 0.0
H223 H 0.70035 0.79933 0.24997 0.0
H224 H 0.71169 0.81637 0.24479 0.0
H225 H 0.69347 0.81846 0.25608 0.0
H226 H 0.67072 0.82672 0.21953 0.0
H227 H 0.67551 0.83254 0.23983 0.0
H228 H 0.68842 0.83796 0.22339 0.0
H229 H 0.70278 0.75294 0.15791 0.0
H230 H 0.74283 0.7817 0.14095 0.0
H231 H 0.73935 0.80046 0.16274 0.0
H232 H 0.68042 0.78219 0.16594 0.0
H233 H 0.67556 0.76226 0.17201 0.0
H234 H 0.67076 0.77925 0.18438 0.0
H235 H 0.71183 0.75561 0.19529 0.0
H236 H 0.69456 0.75897 0.20662 0.0
H237 H 0.69299 0.74753 0.18815 0.0
H238 H 0.6489 0.76219 0.22557 0.0
C239 C 0.66904 0.77512 0.21597 0.0
C240 C 0.03605 0.9298 0.49911 0.0
C241 C 0.02325 0.91863 0.49738 0.0
C242 C 0.01245 0.92019 0.48457 0.0
C243 C 0.0271 0.94373 0.47569 0.0
C244 C 0.03775 0.94216 0.48816 0.0
C245 C 0.05075 0.95494 0.48822 0.0
H246 H 0.08417 0.02063 0.4545 0.0
C247 C 0.03221 0.95787 0.46652 0.0
C248 C 0.04608 0.96448 0.47378 0.0
H249 H 0.10055 0.99556 0.49588 0.0
H250 H 0.07836 0.9767 0.49321 0.0
H251 H 0.04691 0.01907 0.46407 0.0
H252 H 0.07527 0.98972 0.43322 0.0
H253 H 0.05693 0.99212 0.42352 0.0
H254 H 0.06971 0.00933 0.42785 0.0
H255 H 0.0539 0.02551 0.44484 0.0
H256 H 0.03534 0.01425 0.447 0.0
C257 C 0.04952 0.96472 0.50406 0.0
C258 C 0.06694 0.94687 0.48571 0.0
C259 C -0.0001 0.974 0.41827 0.0
C260 C 0.00157 0.98658 0.40747 0.0
C261 C 0.01445 0.99767 0.40943 0.0
C262 C 0.0255 0.99621 0.42189 0.0
C263 C 0.02369 0.98355 0.43256 0.0
C264 C 0.01103 0.97273 0.43066 0.0
C265 C 0.01094 0.96008 0.44315 0.0
C266 C 0.02567 0.96506 0.45284 0.0
C267 C 0.03309 0.9788 0.44657 0.0
C268 C 0.99542 0.96141 0.45313 0.0
C269 C 0.01284 0.94378 0.43453 0.0
C270 C 0.08289 0.01116 0.46308 0.0
C271 C 0.09415 0.00958 0.47541 0.0
C272 C 0.09216 0.99693 0.48615 0.0
C273 C 0.07921 0.98603 0.48463 0.0
C274 C 0.0681 0.98773 0.47221 0.0
C275 C 0.07005 0.00014 0.4617 0.0
C276 C 0.05715 2e-05 0.44916 0.0
C277 C 0.04715 0.98547 0.45386 0.0
C278 C 0.05361 0.97833 0.46738 0.0
C279 C 0.04783 0.01552 0.45119 0.0
C280 C 0.06506 0.9978 0.43251 0.0
H281 H 0.00567 0.93315 0.46428 0.0
H282 H 0.04448 0.92908 0.50888 0.0
H283 H 0.06555 0.93621 0.47768 0.0
H284 H 0.07593 0.9546 0.47971 0.0
H285 H 0.07189 0.94293 0.49727 0.0
H286 H 0.03681 0.96619 0.5075 0.0
H287 H 0.05549 0.95872 0.51407 0.0
H288 H 0.05457 0.97695 0.50314 0.0
H289 H 0.99002 0.9654 0.41724 0.0
H290 H 0.01613 0.00736 0.40117 0.0
H291 H 0.03507 0.00499 0.42268 0.0
H292 H 0.99226 0.97407 0.45484 0.0
H293 H 0.9852 0.95509 0.44704 0.0
H294 H 0.99655 0.95686 0.46539 0.0
H295 H 0.02065 0.94498 0.4238 0.0
H296 H 0.01873 0.93504 0.44205 0.0
H297 H 0.00111 0.93868 0.43041 0.0
H298 H 0.00264 0.91163 0.48276 0.0
C299 C 0.01429 0.93266 0.47376 0.0
C300 C 0.24268 0.67995 0.80021 0.0
C301 C 0.24194 0.66917 0.78711 0.0
C302 C 0.22961 0.67047 0.77572 0.0
C303 C 0.21951 0.69324 0.79023 0.0
C304 C 0.23147 0.69186 0.80147 0.0
C305 C 0.23099 0.70456 0.81436 0.0
H306 H 0.19814 0.77122 0.84415 0.0
C307 C 0.2102 0.70724 0.79477 0.0
C308 C 0.21692 0.71395 0.80886 0.0
H309 H 0.23728 0.74547 0.86361 0.0
H310 H 0.23473 0.72603 0.84209 0.0
H311 H 0.17601 0.73991 0.83544 0.0
H312 H 0.20876 0.76878 0.80778 0.0
H313 H 0.1926 0.76353 0.79515 0.0
H314 H 0.18924 0.77525 0.8131 0.0
H315 H 0.17176 0.75972 0.82952 0.0
H316 H 0.16714 0.74273 0.81667 0.0
C317 C 0.22764 0.69641 0.83059 0.0
C318 C 0.24689 0.7145 0.81376 0.0
C319 C 0.16317 0.72265 0.7605 0.0
C320 C 0.15295 0.73555 0.7612 0.0
C321 C 0.15508 0.74714 0.77348 0.0
C322 C 0.16709 0.74582 0.78502 0.0
C323 C 0.17719 0.73284 0.78422 0.0
C324 C 0.17524 0.7216 0.77201 0.0
C325 C 0.18756 0.70902 0.77265 0.0
C326 C 0.19695 0.71434 0.78748 0.0
C327 C 0.19076 0.72824 0.79424 0.0
C328 C 0.17877 0.69275 0.77498 0.0
C329 C 0.19783 0.71004 0.7572 0.0
C330 C 0.20622 0.76145 0.8437 0.0
C331 C 0.21796 0.75989 0.85557 0.0
C332 C 0.22806 0.74685 0.85469 0.0
C333 C 0.22661 0.73562 0.84212 0.0
C334 C 0.21492 0.73741 0.83027 0.0
C335 C 0.20489 0.75008 0.83125 0.0
C336 C 0.19296 0.74989 0.81776 0.0
C337 C 0.19758 0.73507 0.80846 0.0
C338 C 0.21049 0.72787 0.8158 0.0
C339 C 0.17603 0.74808 0.8251 0.0
C340 C 0.19586 0.76516 0.80792 0.0
H341 H 0.2094 0.68282 0.76812 0.0
H342 H 0.25182 0.67917 0.80932 0.0
H343 H 0.25089 0.71608 0.80115 0.0
H344 H 0.24587 0.72668 0.81867 0.0
H345 H 0.25652 0.70853 0.82025 0.0
H346 H 0.21984 0.68554 0.82892 0.0
H347 H 0.2389 0.69277 0.8363 0.0
H348 H 0.22107 0.70397 0.83911 0.0
H349 H 0.16195 0.71372 0.75102 0.0
H350 H 0.14728 0.75714 0.77427 0.0
H351 H 0.16804 0.75498 0.79411 0.0
H352 H 0.16884 0.69388 0.78374 0.0
H353 H 0.17357 0.68811 0.7635 0.0
H354 H 0.18652 0.68371 0.77995 0.0
H355 H 0.19866 0.72241 0.75273 0.0
H356 H 0.21035 0.70687 0.75919 0.0
H357 H 0.19261 0.70235 0.74744 0.0
H358 H 0.22883 0.66247 0.76541 0.0
C359 C 0.2184 0.6824 0.77723 0.0
C360 C 0.92059 0.50829 0.4804 0.0
C361 C 0.91789 0.49409 0.47155 0.0
C362 C 0.92851 0.49018 0.4591 0.0
C363 C 0.94397 0.51462 0.46424 0.0
C364 C 0.93367 0.51829 0.47661 0.0
C365 C 0.93843 0.53363 0.48511 0.0
H366 H 0.98867 0.59803 0.49186 0.0
C367 C 0.95627 0.52759 0.46338 0.0
C368 C 0.95313 0.53871 0.47564 0.0
H369 H 0.94829 0.58543 0.52186 0.0
H370 H 0.94307 0.56168 0.50583 0.0
H371 H 0.97148 0.58825 0.45802 0.0
H372 H 0.00237 0.5635 0.48956 0.0
H373 H 0.00826 0.55887 0.46987 0.0
H374 H 0.00961 0.57924 0.47699 0.0
H375 H 0.99241 0.59321 0.45992 0.0
H376 H 0.98508 0.57807 0.44593 0.0
C377 C 0.92469 0.54531 0.48313 0.0
C378 C 0.94251 0.52989 0.50275 0.0
C379 C 0.99855 0.5265 0.41968 0.0
C380 C 0.01123 0.53706 0.41563 0.0
C381 C 0.01396 0.55095 0.42509 0.0
C382 C 0.00416 0.55435 0.43824 0.0
C383 C 0.99146 0.54376 0.44203 0.0
C384 C 0.98885 0.53009 0.43285 0.0
C385 C 0.97478 0.52024 0.43868 0.0
C386 C 0.96933 0.5303 0.45281 0.0
C387 C 0.97915 0.54406 0.45471 0.0
C388 C 0.96213 0.51916 0.42511 0.0
C389 C 0.98085 0.50396 0.44402 0.0
C390 C 0.97861 0.59023 0.49486 0.0
C391 C 0.96887 0.59359 0.50814 0.0
C392 C 0.95605 0.583 0.51179 0.0
C393 C 0.95302 0.56924 0.50243 0.0
C394 C 0.96293 0.56596 0.48928 0.0
C395 C 0.97548 0.57636 0.48568 0.0
C396 C 0.98495 0.57077 0.47146 0.0
C397 C 0.97605 0.55526 0.46717 0.0
C398 C 0.96313 0.55256 0.47759 0.0
C399 C 0.98358 0.58319 0.4581 0.0
C400 C 0.00225 0.56802 0.4771 0.0
H401 H 0.94909 0.49681 0.44569 0.0
H402 H 0.91279 0.51147 0.49022 0.0
H403 H 0.94734 0.51779 0.50375 0.0
H404 H 0.952 0.53793 0.50782 0.0
H405 H 0.93176 0.53039 0.51052 0.0
H406 H 0.91953 0.54427 0.47085 0.0
H407 H 0.91491 0.54277 0.4918 0.0
H408 H 0.92865 0.5579 0.48453 0.0
H409 H 0.99601 0.51581 0.41259 0.0
H410 H 0.02378 0.55916 0.42241 0.0
H411 H 0.00688 0.56511 0.44493 0.0
H412 H 0.96149 0.5307 0.41889 0.0
H413 H 0.96515 0.50995 0.416 0.0
H414 H 0.94991 0.51664 0.42953 0.0
H415 H 0.9931 0.50525 0.44913 0.0
H416 H 0.97356 0.49865 0.45371 0.0
H417 H 0.98128 0.4954 0.43374 0.0
H418 H 0.92661 0.47932 0.45208 0.0
C419 C 0.9415 0.50039 0.45537 0.0
C420 C 0.79159 0.75652 0.83149 0.0
C421 C 0.77891 0.75763 0.84247 0.0
C422 C 0.76824 0.77012 0.84104 0.0
C423 C 0.78271 0.7799 0.81788 0.0
C424 C 0.79324 0.76772 0.81935 0.0
C425 C 0.80591 0.76813 0.80657 0.0
H426 H 0.83874 0.80367 0.74176 0.0
C427 C 0.78764 0.78937 0.80387 0.0
C428 C 0.80123 0.78256 0.7972 0.0
H429 H 0.85352 0.76114 0.76526 0.0
H430 H 0.83221 0.76352 0.78432 0.0
H431 H 0.83023 0.82394 0.77408 0.0
H432 H 0.80172 0.7939 0.74209 0.0
H433 H 0.79006 0.81002 0.74766 0.0
H434 H 0.8084 0.81358 0.73674 0.0
H435 H 0.82567 0.82935 0.75391 0.0
H436 H 0.8123 0.8335 0.77026 0.0
C437 C 0.82233 0.77077 0.81492 0.0
C438 C 0.80419 0.75256 0.79638 0.0
C439 C 0.75525 0.83648 0.78804 0.0
C440 C 0.7565 0.84733 0.77544 0.0
C441 C 0.76931 0.84615 0.76455 0.0
C442 C 0.78057 0.8343 0.76611 0.0
C443 C 0.77902 0.82345 0.77867 0.0
C444 C 0.76652 0.82469 0.78937 0.0
C445 C 0.76661 0.81207 0.80188 0.0
C446 C 0.78116 0.80297 0.79686 0.0
C447 C 0.78842 0.8097 0.78329 0.0
C448 C 0.76893 0.82037 0.8185 0.0
C449 C 0.75097 0.80179 0.80014 0.0
C450 C 0.83736 0.7948 0.75094 0.0
C451 C 0.84803 0.78229 0.75202 0.0
C452 C 0.84577 0.77112 0.7643 0.0
C453 C 0.83326 0.77243 0.77532 0.0
C454 C 0.82274 0.78498 0.77408 0.0
C455 C 0.82482 0.79586 0.76199 0.0
C456 C 0.81215 0.80813 0.76225 0.0
C457 C 0.80226 0.80289 0.77659 0.0
C458 C 0.80857 0.78937 0.78349 0.0
C459 C 0.82041 0.82467 0.76517 0.0
C460 C 0.80258 0.8065 0.74636 0.0
H461 H 0.76155 0.79045 0.82841 0.0
H462 H 0.7999 0.74697 0.83214 0.0
H463 H 0.7915 0.74829 0.79563 0.0
H464 H 0.80788 0.75413 0.78378 0.0
H465 H 0.81112 0.74293 0.80167 0.0
H466 H 0.82144 0.77921 0.82528 0.0
H467 H 0.82676 0.75943 0.81953 0.0
H468 H 0.83151 0.7762 0.80705 0.0
H469 H 0.74573 0.83717 0.79678 0.0
H470 H 0.7705 0.85422 0.75463 0.0
H471 H 0.78998 0.83399 0.7574 0.0
H472 H 0.77693 0.83114 0.81761 0.0
H473 H 0.75736 0.82419 0.8235 0.0
H474 H 0.77482 0.81285 0.82729 0.0
H475 H 0.74733 0.80051 0.78734 0.0
H476 H 0.75221 0.78948 0.8042 0.0
H477 H 0.741 0.80728 0.80677 0.0
H478 H 0.75851 0.77138 0.84947 0.0
C479 C 0.77007 0.78125 0.82884 0.0
C480 C 0.29519 0.25301 0.33133 0.0
C481 C 0.28387 0.25478 0.34361 0.0
C482 C 0.27402 0.26802 0.34356 0.0
C483 C 0.28638 0.27707 0.31892 0.0
C484 C 0.29626 0.26426 0.3192 0.0
C485 C 0.30769 0.26414 0.3053 0.0
H486 H 0.33347 0.29626 0.23578 0.0
C487 C 0.29019 0.28622 0.30438 0.0
C488 C 0.30269 0.27871 0.29637 0.0
H489 H 0.35277 0.2568 0.26094 0.0
H490 H 0.33303 0.25964 0.2818 0.0
H491 H 0.32969 0.31826 0.26714 0.0
H492 H 0.29634 0.28711 0.24158 0.0
H493 H 0.28595 0.30403 0.24743 0.0
H494 H 0.30277 0.30609 0.23402 0.0
H495 H 0.32175 0.32297 0.24788 0.0
H496 H 0.3115 0.32799 0.26619 0.0
C497 C 0.32494 0.26614 0.312 0.0
C498 C 0.30444 0.24863 0.29538 0.0
C499 C 0.25839 0.33467 0.29116 0.0
C500 C 0.25847 0.34482 0.27797 0.0
C501 C 0.26926 0.3422 0.26531 0.0
C502 C 0.2799 0.32973 0.26583 0.0
C503 C 0.27969 0.31968 0.2791 0.0
C504 C 0.26898 0.32216 0.29143 0.0
C505 C 0.27005 0.3099 0.30425 0.0
C506 C 0.28337 0.29984 0.29773 0.0
C507 C 0.28901 0.30568 0.28304 0.0
C508 C 0.27488 0.31854 0.32017 0.0
C509 C 0.25386 0.30046 0.30487 0.0
C510 C 0.3333 0.28815 0.24572 0.0
C511 C 0.34458 0.27623 0.24673 0.0
C512 C 0.34421 0.2661 0.25999 0.0
C513 C 0.33273 0.26776 0.27205 0.0
C514 C 0.32155 0.27977 0.27093 0.0
C515 C 0.32203 0.2898 0.25799 0.0
C516 C 0.30968 0.30231 0.25919 0.0
C517 C 0.3017 0.29813 0.27497 0.0
C518 C 0.3086 0.28483 0.28169 0.0
C519 C 0.31848 0.31881 0.26004 0.0
C520 C 0.29808 0.29994 0.24479 0.0
H521 H 0.26727 0.2889 0.33184 0.0
H522 H 0.30312 0.24311 0.33121 0.0
H523 H 0.29137 0.2461 0.29415 0.0
H524 H 0.30901 0.24927 0.283 0.0
H525 H 0.30971 0.23831 0.30129 0.0
H526 H 0.32518 0.27278 0.32366 0.0
H527 H 0.33025 0.25442 0.314 0.0
H528 H 0.3329 0.27326 0.30412 0.0
H529 H 0.25005 0.33625 0.30094 0.0
H530 H 0.26959 0.34994 0.25507 0.0
H531 H 0.28785 0.3284 0.25585 0.0
H532 H 0.28368 0.32846 0.31795 0.0
H533 H 0.26434 0.32367 0.32616 0.0
H534 H 0.28087 0.31077 0.32864 0.0
H535 H 0.24844 0.29916 0.29271 0.0
H536 H 0.25502 0.28815 0.30895 0.0
H537 H 0.24519 0.3066 0.3127 0.0
H538 H 0.26515 0.2696 0.35286 0.0
C539 C 0.2752 0.27916 0.33129 0.0
C540 C 0.48466 0.92476 0.50185 0.0
C541 C 0.47535 0.92183 0.48801 0.0
C542 C 0.46253 0.93176 0.48491 0.0
C543 C 0.46813 0.9468 0.50946 0.0
C544 C 0.48085 0.93722 0.51236 0.0
C545 C 0.48939 0.94173 0.52772 0.0
H546 H 0.49331 0.98644 0.59596 0.0
C547 C 0.46708 0.95831 0.52299 0.0
C548 C 0.47951 0.9554 0.53372 0.0
H549 H 0.52572 0.95067 0.57975 0.0
H550 H 0.51047 0.94663 0.55538 0.0
H551 H 0.46046 0.96822 0.58415 0.0
H552 H 0.49142 0.0034 0.56216 0.0
H553 H 0.47174 0.00817 0.55753 0.0
H554 H 0.47811 0.00834 0.57821 0.0
H555 H 0.46205 0.98849 0.5912 0.0
H556 H 0.44838 0.98238 0.57539 0.0
C557 C 0.48816 0.92731 0.53898 0.0
C558 C 0.50673 0.94726 0.52356 0.0
C559 C 0.42284 0.9981 0.52404 0.0
C560 C 0.4184 0.00989 0.5352 0.0
C561 C 0.42737 0.01204 0.54944 0.0
C562 C 0.4405 0.00265 0.55249 0.0
C563 C 0.44476 0.99093 0.54121 0.0
C564 C 0.43595 0.9888 0.52729 0.0
C565 C 0.44206 0.97567 0.51675 0.0
C566 C 0.45615 0.97041 0.52652 0.0
C567 C 0.45767 0.97937 0.54085 0.0
C568 C 0.42875 0.96247 0.51524 0.0
C569 C 0.44744 0.98291 0.5006 0.0
C570 C 0.497 0.97766 0.58718 0.0
C571 C 0.51063 0.96876 0.58977 0.0
C572 C 0.51529 0.95768 0.57796 0.0
C573 C 0.50638 0.95532 0.56385 0.0
C574 C 0.4927 0.96421 0.56146 0.0
C575 C 0.48833 0.9753 0.57292 0.0
C576 C 0.47389 0.98417 0.56797 0.0
C577 C 0.47018 0.97638 0.55176 0.0
C578 C 0.48114 0.96459 0.54812 0.0
C579 C 0.46044 0.98081 0.58031 0.0
C580 C 0.47889 0.00198 0.56646 0.0
H581 H 0.4489 0.95125 0.49256 0.0
H582 H 0.49476 0.91752 0.50445 0.0
H583 H 0.50738 0.95258 0.51146 0.0
H584 H 0.51143 0.95677 0.53176 0.0
H585 H 0.51491 0.93715 0.52361 0.0
H586 H 0.47603 0.92154 0.53833 0.0
H587 H 0.49691 0.91823 0.53555 0.0
H588 H 0.48993 0.93059 0.55174 0.0
H589 H 0.41638 0.99624 0.51288 0.0
H590 H 0.4241 0.02087 0.55836 0.0
H591 H 0.44678 0.00484 0.56357 0.0
H592 H 0.42165 0.96162 0.52648 0.0
H593 H 0.42037 0.96493 0.50534 0.0
H594 H 0.43348 0.95048 0.5134 0.0
H595 H 0.45315 0.99493 0.50254 0.0
H596 H 0.45657 0.97594 0.49438 0.0
H597 H 0.4371 0.9842 0.49243 0.0
H598 H 0.45507 0.92969 0.47442 0.0
C599 C 0.45888 0.94421 0.49554 0.0
C600 C 0.1641 0.2989 0.74179 0.0
C601 C 0.15314 0.28598 0.74002 0.0
C602 C 0.15513 0.27498 0.72729 0.0
C603 C 0.17869 0.28984 0.71839 0.0
C604 C 0.17675 0.30055 0.73094 0.0
C605 C 0.18968 0.31338 0.73142 0.0
H606 H 0.25631 0.34672 0.69868 0.0
C607 C 0.19312 0.29492 0.70939 0.0
C608 C 0.19964 0.30868 0.71702 0.0
H609 H 0.23159 0.36153 0.74171 0.0
H610 H 0.21223 0.33999 0.73798 0.0
H611 H 0.22484 0.338 0.67737 0.0
H612 H 0.25534 0.31047 0.70669 0.0
H613 H 0.24972 0.29816 0.69032 0.0
H614 H 0.26104 0.31642 0.68691 0.0
H615 H 0.24493 0.33352 0.67189 0.0
H616 H 0.22835 0.32016 0.66686 0.0
C617 C 0.18179 0.32955 0.72911 0.0
C618 C 0.19903 0.31208 0.74738 0.0
C619 C 0.21025 0.2634 0.66007 0.0
C620 C 0.22326 0.26513 0.64949 0.0
C621 C 0.2343 0.27798 0.65193 0.0
C622 C 0.23241 0.2889 0.66459 0.0
C623 C 0.2194 0.28698 0.67506 0.0
C624 C 0.2086 0.27438 0.67274 0.0
C625 C 0.19568 0.27409 0.68528 0.0
C626 C 0.20054 0.28858 0.69548 0.0
C627 C 0.21441 0.29609 0.68939 0.0
C628 C 0.17947 0.27615 0.67678 0.0
C629 C 0.1968 0.25845 0.6947 0.0
C630 C 0.24683 0.34528 0.7074 0.0
C631 C 0.24552 0.35596 0.72048 0.0
C632 C 0.23279 0.35369 0.73137 0.0
C633 C 0.22159 0.34107 0.72926 0.0
C634 C 0.22312 0.33051 0.71615 0.0
C635 C 0.23563 0.33268 0.70554 0.0
C636 C 0.23562 0.32006 0.69255 0.0
C637 C 0.221 0.30999 0.69708 0.0
C638 C 0.21369 0.31621 0.71085 0.0
C639 C 0.23343 0.32825 0.67624 0.0
C640 C 0.25124 0.3108 0.69401 0.0
H641 H 0.16865 0.26812 0.70699 0.0
H642 H 0.16303 0.30741 0.75161 0.0
H643 H 0.1992 0.29954 0.75136 0.0
H644 H 0.21175 0.31577 0.74627 0.0
H645 H 0.1935 0.31919 0.75712 0.0
H646 H 0.17209 0.32843 0.71999 0.0
H647 H 0.17642 0.33389 0.74048 0.0
H648 H 0.19013 0.33884 0.72456 0.0
H649 H 0.20146 0.25377 0.65851 0.0
H650 H 0.2446 0.27947 0.6442 0.0
H651 H 0.24125 0.29836 0.66579 0.0
H652 H 0.18072 0.28491 0.66699 0.0
H653 H 0.17492 0.26472 0.67137 0.0
H654 H 0.17024 0.28091 0.68481 0.0
H655 H 0.20941 0.25483 0.69568 0.0
H656 H 0.19268 0.25962 0.70723 0.0
H657 H 0.18993 0.24855 0.68863 0.0
H658 H 0.14676 0.26498 0.72565 0.0
C659 C 0.16781 0.27686 0.71645 0.0
C660 C 0.75684 0.16965 0.7235 0.0
C661 C 0.74381 0.16619 0.71323 0.0
C662 C 0.7415 0.17595 0.69992 0.0
C663 C 0.76482 0.19226 0.70736 0.0
C664 C 0.76714 0.18265 0.72034 0.0
C665 C 0.78153 0.18792 0.73008 0.0
H666 H 0.84448 0.23936 0.74169 0.0
C667 C 0.77757 0.20483 0.70758 0.0
C668 C 0.78741 0.20234 0.72085 0.0
H669 H 0.83035 0.19879 0.77008 0.0
H670 H 0.80788 0.1932 0.7526 0.0
H671 H 0.80978 0.25214 0.73745 0.0
H672 H 0.83761 0.22213 0.70673 0.0
H673 H 0.82867 0.23634 0.69474 0.0
H674 H 0.84248 0.24284 0.71026 0.0
H675 H 0.82592 0.25999 0.72553 0.0
H676 H 0.80589 0.25759 0.71766 0.0
C677 C 0.77583 0.1925 0.74719 0.0
C678 C 0.79363 0.17439 0.72946 0.0
C679 C 0.77873 0.24695 0.66474 0.0
C680 C 0.78869 0.26041 0.66209 0.0
C681 C 0.80153 0.26383 0.67267 0.0
C682 C 0.80444 0.25396 0.68563 0.0
C683 C 0.79435 0.24055 0.68814 0.0
C684 C 0.78172 0.23728 0.6778 0.0
C685 C 0.77199 0.22278 0.68252 0.0
C686 C 0.78088 0.21784 0.69737 0.0
C687 C 0.79401 0.22824 0.70056 0.0
C688 C 0.75483 0.22796 0.68649 0.0
C689 C 0.77298 0.21022 0.66876 0.0
C690 C 0.83662 0.22919 0.74403 0.0
C691 C 0.8392 0.21949 0.75727 0.0
C692 C 0.82853 0.20653 0.76006 0.0
C693 C 0.81553 0.20325 0.74983 0.0
C694 C 0.81309 0.21305 0.73666 0.0
C695 C 0.82353 0.22578 0.73395 0.0
C696 C 0.81888 0.23505 0.71951 0.0
C697 C 0.80405 0.22566 0.71392 0.0
C698 C 0.80075 0.21279 0.724 0.0
C699 C 0.815 0.25214 0.72519 0.0
C700 C 0.8326 0.23421 0.70711 0.0
H701 H 0.74949 0.19587 0.68661 0.0
H702 H 0.75889 0.16252 0.73394 0.0
H703 H 0.79336 0.16822 0.71754 0.0
H704 H 0.80614 0.17873 0.73096 0.0
H705 H 0.79083 0.16535 0.73867 0.0
H706 H 0.76397 0.19804 0.74679 0.0
H707 H 0.77465 0.18187 0.75486 0.0
H708 H 0.78377 0.2015 0.7532 0.0
H709 H 0.76862 0.24414 0.65698 0.0
H710 H 0.80944 0.27408 0.6708 0.0
H711 H 0.81442 0.25717 0.69321 0.0
H712 H 0.75502 0.24003 0.69218 0.0
H713 H 0.74741 0.22835 0.67548 0.0
H714 H 0.74871 0.22023 0.69528 0.0
H715 H 0.78503 0.21062 0.66314 0.0
H716 H 0.77128 0.1979 0.67291 0.0
H717 H 0.76411 0.21239 0.65921 0.0
H718 H 0.73172 0.17343 0.69167 0.0
C719 C 0.75191 0.18894 0.69694 0.0
C720 C 0.53263 0.5846 0.50215 0.0
C721 C 0.52042 0.5956 0.50371 0.0
C722 C 0.50982 0.59434 0.51681 0.0
C723 C 0.52365 0.57156 0.52642 0.0
C724 C 0.53403 0.57275 0.51359 0.0
C725 C 0.54642 0.56022 0.51379 0.0
H726 H 0.57726 0.49646 0.54957 0.0
C727 C 0.52844 0.55806 0.53621 0.0
C728 C 0.54179 0.55137 0.52889 0.0
H729 H 0.59375 0.51964 0.50652 0.0
H730 H 0.57286 0.53861 0.50907 0.0
H731 H 0.57221 0.52763 0.56945 0.0
H732 H 0.53905 0.49816 0.54181 0.0
H733 H 0.52981 0.50305 0.56011 0.0
H734 H 0.54786 0.49201 0.56022 0.0
H735 H 0.56393 0.50931 0.57699 0.0
H736 H 0.55399 0.52786 0.5798 0.0
C737 C 0.56309 0.56866 0.51533 0.0
C738 C 0.54418 0.54961 0.49852 0.0
C739 C 0.49747 0.54438 0.58679 0.0
C740 C 0.49953 0.533 0.59867 0.0
C741 C 0.51208 0.52235 0.59713 0.0
C742 C 0.52243 0.52302 0.58395 0.0
C743 C 0.5203 0.53453 0.57221 0.0
C744 C 0.50802 0.545 0.57378 0.0
C745 C 0.50791 0.55677 0.56044 0.0
C746 C 0.52211 0.55159 0.55057 0.0
C747 C 0.52925 0.53851 0.55747 0.0
C748 C 0.51066 0.57367 0.56787 0.0
C749 C 0.49199 0.55429 0.55113 0.0
C750 C 0.57625 0.50553 0.5406 0.0
C751 C 0.5871 0.50652 0.52778 0.0
C752 C 0.58559 0.5187 0.51656 0.0
C753 C 0.57342 0.52966 0.51803 0.0
C754 C 0.56265 0.5285 0.53092 0.0
C755 C 0.56423 0.51662 0.54197 0.0
C756 C 0.552 0.51744 0.55512 0.0
C757 C 0.54268 0.53165 0.55003 0.0
C758 C 0.54893 0.53806 0.53583 0.0
C759 C 0.56087 0.52061 0.57124 0.0
C760 C 0.54163 0.50185 0.55445 0.0
H761 H 0.50295 0.58216 0.53782 0.0
H762 H 0.54088 0.5851 0.49215 0.0
H763 H 0.53128 0.54769 0.49564 0.0
H764 H 0.54875 0.53757 0.49989 0.0
H765 H 0.55002 0.55523 0.488 0.0
H766 H 0.56251 0.57964 0.52292 0.0
H767 H 0.56778 0.57217 0.50341 0.0
H768 H 0.57193 0.56136 0.52133 0.0
H769 H 0.48807 0.55287 0.58779 0.0
H770 H 0.51381 0.51342 0.60609 0.0
H771 H 0.53173 0.51457 0.58345 0.0
H772 H 0.51857 0.57341 0.57858 0.0
H773 H 0.49922 0.57881 0.57174 0.0
H774 H 0.51688 0.58197 0.55966 0.0
H775 H 0.4885 0.54144 0.55017 0.0
H776 H 0.49275 0.55831 0.53862 0.0
H777 H 0.48215 0.56045 0.55731 0.0
H778 H 0.50046 0.60278 0.51847 0.0
C779 C 0.51136 0.5824 0.52812 0.0
C780 C 0.53472 0.42853 0.99794 0.0
C781 C 0.52223 0.41714 0.99556 0.0
C782 C 0.51167 0.41887 0.98258 0.0
C783 C 0.52599 0.44303 0.9748 0.0
C784 C 0.53637 0.44128 0.98747 0.0
C785 C 0.549 0.45439 0.98837 0.0
H786 H 0.5822 0.52168 0.95784 0.0
C787 C 0.53096 0.45763 0.9663 0.0
C788 C 0.54444 0.46434 0.9742 0.0
H789 H 0.59755 0.49557 0.99894 0.0
H790 H 0.57554 0.47671 0.99522 0.0
H791 H 0.54529 0.51978 0.96614 0.0
H792 H 0.57368 0.4906 0.93515 0.0
H793 H 0.55586 0.4945 0.92501 0.0
H794 H 0.56927 0.51079 0.93078 0.0
H795 H 0.55171 0.52625 0.94674 0.0
H796 H 0.53342 0.51463 0.94938 0.0
C797 C 0.54709 0.46352 0.00453 0.0
C798 C 0.56548 0.44685 0.98597 0.0
C799 C 0.49967 0.47467 0.91772 0.0
C800 C 0.50112 0.48785 0.90766 0.0
C801 C 0.51352 0.4993 0.91051 0.0
C802 C 0.52435 0.49759 0.92312 0.0
C803 C 0.52276 0.48433 0.93306 0.0
C804 C 0.51052 0.47319 0.93033 0.0
C805 C 0.51041 0.46008 0.94233 0.0
C806 C 0.52465 0.46514 0.95269 0.0
C807 C 0.53189 0.4793 0.94716 0.0
C808 C 0.49451 0.46052 0.9518 0.0
C809 C 0.51314 0.44421 0.93319 0.0
C810 C 0.58086 0.51183 0.96596 0.0
C811 C 0.59164 0.51011 0.9787 0.0
C812 C 0.58932 0.49726 0.98915 0.0
C813 C 0.57658 0.48625 0.9869 0.0
C814 C 0.56598 0.48806 0.97406 0.0
C815 C 0.56815 0.50073 0.9639 0.0
C816 C 0.55555 0.50084 0.95105 0.0
C817 C 0.5456 0.48603 0.95506 0.0
C818 C 0.5518 0.47859 0.96852 0.0
C819 C 0.546 0.51618 0.95326 0.0
C820 C 0.56391 0.49921 0.93457 0.0
H821 H 0.50507 0.43235 0.96257 0.0
H822 H 0.54294 0.42769 0.00789 0.0
H823 H 0.56462 0.43665 0.9773 0.0
H824 H 0.57451 0.4551 0.98077 0.0
H825 H 0.57011 0.44233 0.99744 0.0
H826 H 0.53428 0.46403 0.00798 0.0
H827 H 0.55345 0.45762 0.01435 0.0
H828 H 0.55129 0.47607 0.00402 0.0
H829 H 0.49013 0.46579 0.91598 0.0
H830 H 0.51495 0.50949 0.90284 0.0
H831 H 0.53356 0.50666 0.92462 0.0
H832 H 0.49066 0.47295 0.95357 0.0
H833 H 0.48479 0.4538 0.94531 0.0
H834 H 0.49549 0.45586 0.96404 0.0
H835 H 0.52168 0.44601 0.92312 0.0
H836 H 0.51858 0.43519 0.94073 0.0
H837 H 0.50179 0.43917 0.92805 0.0
H838 H 0.50207 0.41017 0.98033 0.0
C839 C 0.51348 0.43173 0.97221 0.0
C840 C 0.74382 0.17855 0.29319 0.0
C841 C 0.74147 0.16701 0.28094 0.0
C842 C 0.72805 0.16783 0.27083 0.0
C843 C 0.71962 0.19138 0.2852 0.0
C844 C 0.73273 0.1905 0.29516 0.0
C845 C 0.73311 0.20333 0.30796 0.0
H846 H 0.69891 0.26694 0.34293 0.0
C847 C 0.71029 0.20506 0.29063 0.0
C848 C 0.71807 0.21204 0.30404 0.0
H849 H 0.74277 0.24495 0.3562 0.0
H850 H 0.73931 0.22577 0.33453 0.0
H851 H 0.67844 0.2343 0.33571 0.0
H852 H 0.70562 0.26591 0.30531 0.0
H853 H 0.68817 0.26006 0.29482 0.0
H854 H 0.68663 0.27098 0.31353 0.0
H855 H 0.67176 0.2536 0.3306 0.0
H856 H 0.66744 0.23636 0.31798 0.0
C857 C 0.732 0.19527 0.3245 0.0
C858 C 0.74839 0.21392 0.30553 0.0
C859 C 0.66074 0.21967 0.25983 0.0
C860 C 0.64957 0.2316 0.26206 0.0
C861 C 0.65116 0.24203 0.27542 0.0
C862 C 0.66383 0.24077 0.28625 0.0
C863 C 0.67503 0.22891 0.28375 0.0
C864 C 0.67328 0.21852 0.2708 0.0
C865 C 0.68608 0.20642 0.27025 0.0
C866 C 0.69603 0.21152 0.28478 0.0
C867 C 0.68953 0.22472 0.2926 0.0
C868 C 0.67804 0.1897 0.27227 0.0
C869 C 0.69551 0.2085 0.25441 0.0
C870 C 0.70767 0.25787 0.34124 0.0
C871 C 0.72112 0.25741 0.35128 0.0
C872 C 0.73239 0.24562 0.34852 0.0
C873 C 0.73032 0.23445 0.33597 0.0
C874 C 0.71686 0.23509 0.32599 0.0
C875 C 0.70584 0.2467 0.32867 0.0
C876 C 0.69252 0.24583 0.31656 0.0
C877 C 0.69729 0.2317 0.30628 0.0
C878 C 0.71152 0.22543 0.3119 0.0
C879 C 0.67663 0.24246 0.32557 0.0
C880 C 0.69308 0.2615 0.30706 0.0
H881 H 0.70722 0.17996 0.26475 0.0
H882 H 0.75389 0.17808 0.30129 0.0
H883 H 0.75129 0.21499 0.29257 0.0
H884 H 0.74707 0.22628 0.30987 0.0
H885 H 0.75885 0.20882 0.31151 0.0
H886 H 0.72395 0.18448 0.32389 0.0
H887 H 0.7439 0.19152 0.32855 0.0
H888 H 0.72678 0.20289 0.3339 0.0
H889 H 0.65968 0.2113 0.24983 0.0
H890 H 0.64275 0.25137 0.27734 0.0
H891 H 0.66445 0.24914 0.29611 0.0
H892 H 0.66694 0.19033 0.27954 0.0
H893 H 0.67475 0.18419 0.26047 0.0
H894 H 0.68562 0.18154 0.27888 0.0
H895 H 0.69755 0.22134 0.25183 0.0
H896 H 0.70752 0.20355 0.25481 0.0
H897 H 0.68883 0.20296 0.24413 0.0
H898 H 0.72606 0.15911 0.26126 0.0
C899 C 0.71716 0.17996 0.27286 0.0
C900 C 0.41764 0.00805 0.97861 0.0
C901 C 0.41393 0.99487 0.96853 0.0
C902 C 0.42376 0.99189 0.95516 0.0
C903 C 0.44062 0.01498 0.96211 0.0
C904 C 0.43099 0.01787 0.97522 0.0
C905 C 0.43671 0.03219 0.98489 0.0
H906 H 0.49004 0.09366 0.99556 0.0
C907 C 0.4536 0.02732 0.96212 0.0
C908 C 0.45141 0.03739 0.97548 0.0
H909 H 0.44885 0.08134 0.02461 0.0
H910 H 0.44283 0.0586 0.00743 0.0
H911 H 0.47254 0.08642 0.96096 0.0
H912 H 0.50212 0.05884 0.99128 0.0
H913 H 0.50724 0.05401 0.97142 0.0
H914 H 0.5104 0.07417 0.97881 0.0
H915 H 0.49338 0.09101 0.96431 0.0
H916 H 0.48679 0.07713 0.94881 0.0
C917 C 0.42355 0.04469 0.98444 0.0
C918 C 0.44102 0.02668 0.00194 0.0
C919 C 0.49508 0.02751 0.91767 0.0
C920 C 0.50884 0.03705 0.91482 0.0
C921 C 0.51301 0.04946 0.92575 0.0
C922 C 0.5035 0.05248 0.93922 0.0
C923 C 0.4897 0.04291 0.94186 0.0
C924 C 0.4858 0.03056 0.93127 0.0
C925 C 0.4711 0.02121 0.93635 0.0
C926 C 0.46667 0.03015 0.9516 0.0
C927 C 0.47753 0.04292 0.95469 0.0
C928 C 0.45827 0.02257 0.92313 0.0
C929 C 0.47592 0.00396 0.93973 0.0
C930 C 0.47965 0.08612 0.99813 0.0
C931 C 0.4699 0.08932 0.01146 0.0
C932 C 0.45666 0.07905 0.01453 0.0
C933 C 0.45311 0.0659 0.00447 0.0
C934 C 0.46291 0.06291 0.99116 0.0
C935 C 0.47596 0.07291 0.9882 0.0
C936 C 0.48511 0.06778 0.97359 0.0
C937 C 0.47529 0.05316 0.96817 0.0
C938 C 0.4623 0.05039 0.9785 0.0
C939 C 0.48459 0.08125 0.96122 0.0
C940 C 0.50216 0.06356 0.9789 0.0
H941 H 0.44402 0.999 0.94151 0.0
H942 H 0.41047 0.01055 0.98911 0.0
H943 H 0.44608 0.01463 0.0015 0.0
H944 H 0.45037 0.03433 0.00779 0.0
H945 H 0.43031 0.02611 0.00979 0.0
H946 H 0.4175 0.04449 0.97255 0.0
H947 H 0.41427 0.04229 0.99367 0.0
H948 H 0.42829 0.05701 0.98602 0.0
H949 H 0.49174 0.01772 0.90961 0.0
H950 H 0.52355 0.05698 0.92374 0.0
H951 H 0.50724 0.06216 0.94703 0.0
H952 H 0.45835 0.03483 0.91836 0.0
H953 H 0.46053 0.01428 0.91293 0.0
H954 H 0.446 0.02033 0.92753 0.0
H955 H 0.48841 0.00369 0.94424 0.0
H956 H 0.46864 0.99833 0.94924 0.0
H957 H 0.47516 0.9964 0.92868 0.0
H958 H 0.42107 0.9819 0.94713 0.0
C959 C 0.43705 0.00187 0.95189 0.0
C960 C 0.22724 0.91278 0.01731 0.0
O961 O 0.24081 0.91991 0.01332 0.0
O962 O 0.24301 0.8697 0.99824 0.0
Zn963 Zn 0.24648 0.88483 0.01692 0.0
O964 O 0.26581 0.89886 0.01237 0.0
C965 C 0.24498 0.8581 0.03786 0.0
O966 O 0.23636 0.85188 0.02602 0.0
O967 O 0.22686 0.89789 0.01966 0.0
C968 C 0.27884 0.89282 0.00803 0.0
O969 O 0.2796 0.87727 0.0068 0.0
C970 C 0.24138 0.87463 0.98405 0.0
O971 O 0.24202 0.89 0.98153 0.0
O972 O 0.25044 0.87232 0.03682 0.0
C973 C 0.15145 0.47447 0.26851 0.0
O974 O 0.15144 0.48574 0.27962 0.0
O975 O 0.11609 0.498 0.27375 0.0
Zn976 Zn 0.12933 0.4949 0.25372 0.0
O977 O 0.14428 0.51382 0.25033 0.0
C978 C 0.10021 0.49286 0.23443 0.0
O979 O 0.09312 0.49651 0.24798 0.0
O980 O 0.14266 0.47571 0.25621 0.0
C981 C 0.14028 0.52555 0.24201 0.0
O982 O 0.12596 0.52548 0.23558 0.0
C983 C 0.11167 0.51167 0.27828 0.0
O984 O 0.11586 0.52411 0.26979 0.0
O985 O 0.11527 0.49151 0.2342 0.0
C986 C 0.78864 0.61262 0.99361 0.0
O987 O 0.78709 0.61732 0.97877 0.0
O988 O 0.76443 0.64229 0.97837 0.0
Zn989 Zn 0.75963 0.6298 0.99831 0.0
O990 O 0.74035 0.61534 0.99432 0.0
C991 C 0.75458 0.65981 0.01524 0.0
O992 O 0.75741 0.66597 0.00113 0.0
O993 O 0.77834 0.61657 0.004 0.0
C994 C 0.73135 0.61095 0.00579 0.0
O995 O 0.73493 0.61571 0.02048 0.0
C996 C 0.75314 0.6462 0.96923 0.0
O997 O 0.7384 0.64176 0.97281 0.0
O998 O 0.75503 0.64483 0.0168 0.0
C999 C 0.84424 0.03469 0.26176 0.0
O1000 O 0.83823 0.02054 0.26515 0.0
O1001 O 0.88524 0.01381 0.27342 0.0
Zn1002 Zn 0.87146 0.01632 0.25388 0.0
O1003 O 0.85645 0.99727 0.2507 0.0
C1004 C 0.89611 0.02945 0.23334 0.0
O1005 O 0.89755 0.0402 0.24492 0.0
O1006 O 0.85853 0.03599 0.25669 0.0
C1007 C 0.85971 0.98537 0.24185 0.0
O1008 O 0.87362 0.98507 0.23459 0.0
C1009 C 0.89101 0.0005 0.2768 0.0
O1010 O 0.88766 0.98807 0.26751 0.0
O1011 O 0.88561 0.01829 0.23453 0.0
C1012 C 0.28245 0.10301 0.49888 0.0
O1013 O 0.27083 0.09654 0.49013 0.0
O1014 O 0.26446 0.14338 0.4815 0.0
Zn1015 Zn 0.26118 0.1292 0.50043 0.0
O1016 O 0.2425 0.11404 0.49639 0.0
C1017 C 0.2612 0.15731 0.52051 0.0
O1018 O 0.26985 0.16308 0.5087 0.0
O1019 O 0.28104 0.11703 0.50452 0.0
C1020 C 0.22889 0.11921 0.49288 0.0
O1021 O 0.2272 0.13462 0.49179 0.0
C1022 C 0.26431 0.13857 0.46698 0.0
O1023 O 0.26201 0.12333 0.46371 0.0
O1024 O 0.2563 0.14286 0.51979 0.0
C1025 C 0.3594 0.54979 0.76463 0.0
O1026 O 0.37446 0.55225 0.76864 0.0
O1027 O 0.38296 0.51543 0.77529 0.0
Zn1028 Zn 0.36928 0.51799 0.75563 0.0
O1029 O 0.35511 0.49846 0.75208 0.0
C1030 C 0.39771 0.52612 0.73738 0.0
O1031 O 0.40387 0.52892 0.75168 0.0
O1032 O 0.35484 0.53632 0.75888 0.0
C1033 C 0.35868 0.48695 0.74283 0.0
O1034 O 0.37242 0.48743 0.73524 0.0
C1035 C 0.39068 0.50284 0.77712 0.0
O1036 O 0.38939 0.49142 0.76622 0.0
O1037 O 0.38313 0.52158 0.73616 0.0
C1038 C 0.71436 0.3962 0.51599 0.0
O1039 O 0.71144 0.38076 0.51586 0.0
O1040 O 0.74161 0.37285 0.49093 0.0
Zn1041 Zn 0.7467 0.38674 0.51049 0.0
O1042 O 0.76681 0.40007 0.50706 0.0
C1043 C 0.75131 0.3582 0.52849 0.0
O1044 O 0.7506 0.35149 0.51415 0.0
O1045 O 0.72862 0.40146 0.51415 0.0
C1046 C 0.78057 0.39447 0.50892 0.0
O1047 O 0.78174 0.37958 0.51311 0.0
C1048 C 0.75103 0.37157 0.47906 0.0
O1049 O 0.76458 0.37987 0.47907 0.0
O1050 O 0.74971 0.37313 0.52991 0.0
C1051 C 0.64026 0.96862 0.7622 0.0
O1052 O 0.62522 0.96589 0.76603 0.0
O1053 O 0.61624 0.00325 0.77383 0.0
Zn1054 Zn 0.62968 9e-05 0.75399 0.0
O1055 O 0.64326 0.01983 0.75036 0.0
C1056 C 0.60313 0.98715 0.73462 0.0
O1057 O 0.59818 0.98101 0.74818 0.0
O1058 O 0.64461 0.98218 0.75699 0.0
C1059 C 0.63773 0.03229 0.74437 0.0
O1060 O 0.62255 0.03244 0.74048 0.0
C1061 C 0.60297 0.01013 0.77332 0.0
O1062 O 0.59778 0.01522 0.75954 0.0
O1063 O 0.61605 0.9955 0.73438 0.0
C1064 C 0.999 0.23137 0.90225 0.0
O1065 O 0.9879 0.24129 0.90642 0.0
O1066 O 0.98482 0.24883 0.86144 0.0
Zn1067 Zn 0.00374 0.25314 0.87608 0.0
O1068 O 0.00017 0.27235 0.89039 0.0
C1069 C 0.02579 0.2696 0.85478 0.0
O1070 O 0.01576 0.28116 0.85652 0.0
O1071 O 0.00729 0.23406 0.88977 0.0
C1072 C 0.99179 0.28382 0.88603 0.0
O1073 O 0.9852 0.28332 0.87173 0.0
C1074 C 0.97047 0.24819 0.86639 0.0
O1075 O 0.96757 0.2504 0.88172 0.0
O1076 O 0.0232 0.25672 0.8622 0.0
C1077 C 0.49857 0.72676 0.39866 0.0
O1078 O 0.48401 0.73159 0.39636 0.0
O1079 O 0.48614 0.74799 0.36487 0.0
Zn1080 Zn 0.50604 0.75282 0.37806 0.0
O1081 O 0.50342 0.77231 0.39205 0.0
C1082 C 0.52431 0.75207 0.34869 0.0
O1083 O 0.51144 0.74444 0.34322 0.0
O1084 O 0.5102 0.73412 0.39199 0.0
C1085 C 0.50331 0.78601 0.38589 0.0
O1086 O 0.50482 0.78725 0.37028 0.0
C1087 C 0.4733 0.75556 0.36595 0.0
O1088 O 0.47235 0.76734 0.37641 0.0
O1089 O 0.5248 0.75666 0.36329 0.0
C1090 C 0.99817 0.78693 0.60312 0.0
O1091 O 0.98356 0.78119 0.60525 0.0
O1092 O 0.98548 0.76487 0.63672 0.0
Zn1093 Zn 0.00526 0.7611 0.62348 0.0
O1094 O 0.00197 0.74198 0.60859 0.0
C1095 C 0.02244 0.75096 0.65143 0.0
O1096 O 0.00839 0.74483 0.65535 0.0
O1097 O 0.00969 0.78026 0.6099 0.0
C1098 C 0.00452 0.7278 0.61263 0.0
O1099 O 0.00965 0.7251 0.62717 0.0
C1100 C 0.97522 0.75395 0.64002 0.0
O1101 O 0.97727 0.73944 0.63453 0.0
O1102 O 0.024 0.75838 0.63834 0.0
C1103 C 0.49748 0.28583 0.10171 0.0
O1104 O 0.48276 0.28045 0.10382 0.0
O1105 O 0.48446 0.26315 0.13558 0.0
Zn1106 Zn 0.50418 0.25974 0.1222 0.0
O1107 O 0.50084 0.24039 0.10793 0.0
C1108 C 0.52056 0.25311 0.15165 0.0
O1109 O 0.50588 0.25201 0.15714 0.0
O1110 O 0.50883 0.27888 0.1085 0.0
C1111 C 0.49784 0.22688 0.11399 0.0
O1112 O 0.49692 0.22575 0.12965 0.0
C1113 C 0.47042 0.25849 0.13151 0.0
O1114 O 0.46809 0.25134 0.11753 0.0
O1115 O 0.52287 0.25633 0.13697 0.0
H1116 H 0.21766 0.79224 0.8534 0.0
H1117 H 0.22108 0.81202 0.8751 0.0
H1118 H 0.22604 0.7745 0.9091 0.0
H1119 H 0.22234 0.75463 0.88749 0.0
H1120 H 0.2063 0.79775 0.9201 0.0
H1121 H 0.25843 0.79452 0.89651 0.0
H1122 H 0.278 0.79507 0.87444 0.0
H1123 H 0.26663 0.84328 0.86459 0.0
H1124 H 0.24681 0.84294 0.88647 0.0
H1125 H 0.23959 0.84221 0.98538 0.0
H1126 H 0.23504 0.82323 0.96324 0.0
H1127 H 0.23239 0.8619 0.93021 0.0
H1128 H 0.23717 0.88102 0.95229 0.0
H1129 H 0.25042 0.83853 0.91833 0.0
H1130 H 0.1987 0.84207 0.94225 0.0
H1131 H 0.17905 0.84156 0.96425 0.0
H1132 H 0.1894 0.79293 0.97336 0.0
H1133 H 0.20929 0.79322 0.95155 0.0
C1134 C 0.21933 0.7882 0.86552 0.0
C1135 C 0.21978 0.77189 0.86875 0.0
C1136 C 0.22141 0.79951 0.87788 0.0
C1137 C 0.22396 0.79472 0.89367 0.0
C1138 C 0.22413 0.77844 0.89698 0.0
C1139 C 0.22214 0.76712 0.88462 0.0
C1140 C 0.22657 0.80668 0.90674 0.0
C1141 C 0.21605 0.80655 0.91982 0.0
C1142 C 0.23907 0.81839 0.90615 0.0
C1143 C 0.25102 0.81864 0.89302 0.0
C1144 C 0.26001 0.80519 0.88955 0.0
C1145 C 0.27116 0.80547 0.87709 0.0
C1146 C 0.27353 0.81919 0.86809 0.0
C1147 C 0.26477 0.83266 0.87156 0.0
C1148 C 0.25358 0.83243 0.884 0.0
C1149 C 0.23803 0.84671 0.97341 0.0
C1150 C 0.23868 0.86314 0.9706 0.0
C1151 C 0.23536 0.83583 0.96078 0.0
C1152 C 0.23317 0.84116 0.94511 0.0
C1153 C 0.23401 0.85754 0.94223 0.0
C1154 C 0.2367 0.86845 0.95486 0.0
C1155 C 0.23017 0.82959 0.93174 0.0
C1156 C 0.24062 0.82977 0.9186 0.0
C1157 C 0.21759 0.81795 0.93226 0.0
C1158 C 0.2056 0.81772 0.94536 0.0
C1159 C 0.19688 0.8313 0.94903 0.0
C1160 C 0.18568 0.83105 0.96145 0.0
C1161 C 0.183 0.81723 0.97022 0.0
C1162 C 0.1915 0.80363 0.96657 0.0
C1163 C 0.20273 0.80383 0.95416 0.0
H1164 H 0.17433 0.81706 0.97984 0.0
H1165 H 0.28217 0.81938 0.85845 0.0
H1166 H 0.02315 0.50851 0.40593 0.0
H1167 H 0.0399 0.50316 0.38255 0.0
H1168 H 0.03957 0.55272 0.37032 0.0
H1169 H 0.02241 0.55807 0.39334 0.0
H1170 H 0.03466 0.53399 0.34433 0.0
H1171 H 0.07195 0.53703 0.38828 0.0
H1172 H 0.08268 0.52989 0.41462 0.0
H1173 H 0.0871 0.48158 0.39823 0.0
H1174 H 0.07618 0.48839 0.37185 0.0
H1175 H 0.09927 0.53901 0.29029 0.0
H1176 H 0.082 0.54207 0.31362 0.0
H1177 H 0.08357 0.49176 0.32211 0.0
H1178 H 0.10103 0.48857 0.2988 0.0
H1179 H 0.0873 0.50932 0.34976 0.0
H1180 H 0.05101 0.50655 0.30543 0.0
H1181 H 0.04044 0.51376 0.27905 0.0
H1182 H 0.03414 0.56158 0.29613 0.0
H1183 H 0.0449 0.55472 0.32255 0.0
C1184 C 0.02654 0.51825 0.39819 0.0
C1185 C 0.0215 0.53373 0.40153 0.0
C1186 C 0.03623 0.51519 0.38492 0.0
C1187 C 0.04113 0.52758 0.3748 0.0
C1188 C 0.03597 0.543 0.37801 0.0
C1189 C 0.02629 0.54606 0.39125 0.0
C1190 C 0.05155 0.52451 0.36078 0.0
C1191 C 0.04625 0.52877 0.34554 0.0
C1192 C 0.06648 0.51729 0.36231 0.0
C1193 C 0.07309 0.51318 0.37815 0.0
C1194 C 0.07508 0.52485 0.39033 0.0
C1195 C 0.08123 0.52087 0.40526 0.0
C1196 C 0.08553 0.50528 0.40811 0.0
C1197 C 0.08374 0.49364 0.39602 0.0
C1198 C 0.07759 0.49756 0.38107 0.0
C1199 C 0.09598 0.52858 0.29711 0.0
C1200 C 0.10147 0.51353 0.29264 0.0
C1201 C 0.08605 0.53035 0.31041 0.0
C1202 C 0.08135 0.51711 0.31947 0.0
C1203 C 0.08703 0.50211 0.31524 0.0
C1204 C 0.09697 0.50032 0.3019 0.0
C1205 C 0.07048 0.51899 0.33335 0.0
C1206 C 0.07568 0.51449 0.34855 0.0
C1207 C 0.05545 0.52599 0.33179 0.0
C1208 C 0.0489 0.53015 0.31593 0.0
C1209 C 0.04749 0.51864 0.30352 0.0
C1210 C 0.04144 0.52266 0.28857 0.0
C1211 C 0.03666 0.53813 0.2859 0.0
C1212 C 0.03787 0.5496 0.2982 0.0
C1213 C 0.04393 0.54565 0.31318 0.0
H1214 H 0.03198 0.54122 0.27432 0.0
H1215 H 0.09029 0.50222 0.41967 0.0
H1216 H 0.80183 0.74517 0.86148 0.0
H1217 H 0.79805 0.72565 0.88263 0.0
H1218 H 0.74732 0.72377 0.87356 0.0
H1219 H 0.751 0.74326 0.85241 0.0
H1220 H 0.75345 0.72602 0.90503 0.0
H1221 H 0.77119 0.694 0.86055 0.0
H1222 H 0.78936 0.68652 0.83862 0.0
H1223 H 0.82733 0.68132 0.87251 0.0
H1224 H 0.80944 0.68899 0.89463 0.0
H1225 H 0.73162 0.65734 0.94794 0.0
H1226 H 0.73677 0.6757 0.92607 0.0
H1227 H 0.78703 0.67713 0.93743 0.0
H1228 H 0.78202 0.65858 0.95926 0.0
H1229 H 0.78188 0.67525 0.90518 0.0
H1230 H 0.76427 0.70699 0.94962 0.0
H1231 H 0.74626 0.7145 0.97167 0.0
H1232 H 0.70828 0.72042 0.93796 0.0
H1233 H 0.726 0.71271 0.91572 0.0
C1234 C 0.78989 0.74049 0.8639 0.0
C1235 C 0.77671 0.74575 0.85527 0.0
C1236 C 0.78775 0.72934 0.87599 0.0
C1237 C 0.77242 0.72314 0.87957 0.0
C1238 C 0.75925 0.72843 0.87102 0.0
C1239 C 0.76137 0.7396 0.85897 0.0
C1240 C 0.77003 0.71133 0.89238 0.0
C1241 C 0.7595 0.71483 0.90495 0.0
C1242 C 0.77827 0.69692 0.8925 0.0
C1243 C 0.78902 0.69222 0.87922 0.0
C1244 C 0.78345 0.69138 0.86331 0.0
C1245 C 0.79369 0.68708 0.85085 0.0
C1246 C 0.8095 0.68349 0.85416 0.0
C1247 C 0.81508 0.68413 0.86996 0.0
C1248 C 0.8049 0.68844 0.88246 0.0
C1249 C 0.74379 0.66147 0.94575 0.0
C1250 C 0.75639 0.65659 0.95542 0.0
C1251 C 0.7467 0.67201 0.93328 0.0
C1252 C 0.76225 0.67795 0.93029 0.0
C1253 C 0.77494 0.67272 0.93958 0.0
C1254 C 0.77204 0.66216 0.95207 0.0
C1255 C 0.76518 0.6899 0.91771 0.0
C1256 C 0.77583 0.68645 0.90524 0.0
C1257 C 0.75708 0.70438 0.91768 0.0
C1258 C 0.74642 0.70913 0.93102 0.0
C1259 C 0.75204 0.70978 0.94692 0.0
C1260 C 0.74189 0.71409 0.95945 0.0
C1261 C 0.72612 0.7179 0.95622 0.0
C1262 C 0.72049 0.71745 0.94044 0.0
C1263 C 0.73058 0.71312 0.92787 0.0
H1264 H 0.71828 0.72123 0.96594 0.0
H1265 H 0.81741 0.68017 0.8445 0.0
H1266 H 0.98823 0.01368 0.39674 0.0
H1267 H 0.96924 0.01609 0.37473 0.0
H1268 H 0.96939 0.96536 0.36638 0.0
H1269 H 0.98874 0.96291 0.38806 0.0
H1270 H 0.97167 0.98133 0.33867 0.0
H1271 H 0.93839 0.98229 0.38556 0.0
H1272 H 0.92983 0.99183 0.41223 0.0
H1273 H 0.92308 0.03833 0.39356 0.0
H1274 H 0.93182 0.02913 0.36682 0.0
H1275 H 0.90401 0.97359 0.28816 0.0
H1276 H 0.92243 0.97142 0.31065 0.0
H1277 H 0.92107 0.02205 0.31927 0.0
H1278 H 0.90239 0.0243 0.29696 0.0
H1279 H 0.91945 0.00637 0.34687 0.0
H1280 H 0.95275 0.00561 0.3001 0.0
H1281 H 0.96145 0.99629 0.2734 0.0
H1282 H 0.96839 0.94971 0.2918 0.0
H1283 H 0.95952 0.9587 0.31857 0.0
C1284 C 0.98432 0.00305 0.39013 0.0
C1285 C 0.98997 0.98809 0.39417 0.0
C1286 C 0.97335 0.00443 0.37766 0.0
C1287 C 0.96777 0.99088 0.36904 0.0
C1288 C 0.9735 0.97596 0.37292 0.0
C1289 C 0.98445 0.97457 0.3854 0.0
C1290 C 0.95607 0.99226 0.35584 0.0
C1291 C 0.96016 0.98661 0.3405 0.0
C1292 C 0.94123 0.99952 0.35816 0.0
C1293 C 0.93591 0.00506 0.37422 0.0
C1294 C 0.9352 0.99459 0.38717 0.0
C1295 C 0.9303 -8e-05 0.40229 0.0
C1296 C 0.92595 0.01568 0.4046 0.0
C1297 C 0.92647 0.02613 0.39177 0.0
C1298 C 0.93138 0.02086 0.37662 0.0
C1299 C 0.90759 0.98427 0.29485 0.0
C1300 C 0.9018 0.99913 0.29072 0.0
C1301 C 0.91818 0.98302 0.30767 0.0
C1302 C 0.92331 0.99661 0.31649 0.0
C1303 C 0.9173 0.01142 0.3126 0.0
C1304 C 0.90665 0.01268 0.29982 0.0
C1305 C 0.93503 0.99539 0.32971 0.0
C1306 C 0.93096 0.00109 0.34504 0.0
C1307 C 0.94991 0.98821 0.32737 0.0
C1308 C 0.95532 0.98279 0.3113 0.0
C1309 C 0.95602 0.99335 0.29842 0.0
C1310 C 0.961 0.98813 0.28328 0.0
C1311 C 0.96543 0.97241 0.28089 0.0
C1312 C 0.96494 0.96188 0.29366 0.0
C1313 C 0.95995 0.96703 0.30882 0.0
H1314 H 0.96929 0.96839 0.26916 0.0
H1315 H 0.92216 0.01979 0.41632 0.0
H1316 H 0.21798 0.23277 0.64963 0.0
H1317 H 0.22264 0.21369 0.62786 0.0
H1318 H 0.23915 0.2519 0.59764 0.0
H1319 H 0.23369 0.27113 0.61901 0.0
H1320 H 0.22128 0.23161 0.58088 0.0
H1321 H 0.26527 0.22759 0.61749 0.0
H1322 H 0.278 0.22358 0.6437 0.0
H1323 H 0.25638 0.17667 0.64573 0.0
H1324 H 0.24334 0.1805 0.61961 0.0
H1325 H 0.26655 0.18937 0.52376 0.0
H1326 H 0.25858 0.2067 0.54594 0.0
H1327 H 0.23783 0.16627 0.57034 0.0
H1328 H 0.24577 0.14878 0.54815 0.0
H1329 H 0.25638 0.18638 0.59031 0.0
H1330 H 0.21378 0.19039 0.55231 0.0
H1331 H 0.20204 0.19481 0.52572 0.0
H1332 H 0.22229 0.24236 0.52594 0.0
H1333 H 0.23435 0.23815 0.55245 0.0
C1334 C 0.22235 0.23716 0.63827 0.0
C1335 C 0.22557 0.2535 0.63613 0.0
C1336 C 0.22519 0.2262 0.62589 0.0
C1337 C 0.23152 0.23133 0.61121 0.0
C1338 C 0.23436 0.24765 0.6089 0.0
C1339 C 0.23139 0.25862 0.6212 0.0
C1340 C 0.23542 0.21974 0.59829 0.0
C1341 C 0.22909 0.22182 0.58292 0.0
C1342 C 0.24533 0.20674 0.60101 0.0
C1343 C 0.2532 0.2044 0.61668 0.0
C1344 C 0.26314 0.21647 0.62358 0.0
C1345 C 0.27042 0.21422 0.63841 0.0
C1346 C 0.26797 0.1999 0.64639 0.0
C1347 C 0.25825 0.18777 0.63954 0.0
C1348 C 0.25092 0.18997 0.62472 0.0
C1349 C 0.26033 0.18413 0.53384 0.0
C1350 C 0.25675 0.1677 0.53417 0.0
C1351 C 0.25572 0.19407 0.54648 0.0
C1352 C 0.24747 0.18777 0.55968 0.0
C1353 C 0.24415 0.17135 0.56022 0.0
C1354 C 0.24866 0.1614 0.54752 0.0
C1355 C 0.24239 0.1984 0.57293 0.0
C1356 C 0.2485 0.19612 0.58834 0.0
C1357 C 0.2324 0.2113 0.57021 0.0
C1358 C 0.22508 0.2139 0.55431 0.0
C1359 C 0.21583 0.20175 0.54664 0.0
C1360 C 0.2091 0.20422 0.53159 0.0
C1361 C 0.21145 0.21884 0.52413 0.0
C1362 C 0.22049 0.23103 0.53173 0.0
C1363 C 0.22726 0.22861 0.54677 0.0
H1364 H 0.20623 0.22074 0.51248 0.0
H1365 H 0.27362 0.19818 0.65787 0.0
H1366 H 0.46696 0.53344 0.59895 0.0
H1367 H 0.44927 0.53247 0.62228 0.0
H1368 H 0.49025 0.53061 0.65349 0.0
H1369 H 0.50792 0.53115 0.63015 0.0
H1370 H 0.46837 0.51039 0.66304 0.0
H1371 H 0.46874 0.56523 0.64847 0.0
H1372 H 0.46577 0.58781 0.63041 0.0
H1373 H 0.41645 0.57423 0.62281 0.0
H1374 H 0.41918 0.55143 0.64066 0.0
H1375 H 0.43009 0.53086 0.73604 0.0
H1376 H 0.4469 0.53226 0.71213 0.0
H1377 H 0.40516 0.52615 0.68211 0.0
H1378 H 0.38821 0.52467 0.70598 0.0
H1379 H 0.42684 0.55028 0.67191 0.0
H1380 H 0.42709 0.49544 0.68726 0.0
H1381 H 0.43059 0.47352 0.70602 0.0
H1382 H 0.47972 0.48823 0.71294 0.0
H1383 H 0.47644 0.51039 0.6944 0.0
C1384 C 0.47216 0.53289 0.61081 0.0
C1385 C 0.48879 0.53239 0.61277 0.0
C1386 C 0.46206 0.53238 0.62413 0.0
C1387 C 0.46843 0.53171 0.63968 0.0
C1388 C 0.48505 0.53111 0.64163 0.0
C1389 C 0.49513 0.53141 0.62829 0.0
C1390 C 0.4578 0.53142 0.65394 0.0
C1391 C 0.45945 0.51926 0.66506 0.0
C1392 C 0.44591 0.54279 0.65646 0.0
C1393 C 0.44421 0.55653 0.64578 0.0
C1394 C 0.45729 0.567 0.64286 0.0
C1395 C 0.45564 0.57984 0.63267 0.0
C1396 C 0.44094 0.58243 0.62544 0.0
C1397 C 0.42783 0.5722 0.62841 0.0
C1398 C 0.42942 0.55932 0.63857 0.0
C1399 C 0.42446 0.52988 0.72436 0.0
C1400 C 0.40782 0.5276 0.72291 0.0
C1401 C 0.43409 0.53064 0.71072 0.0
C1402 C 0.42727 0.52917 0.69538 0.0
C1403 C 0.41064 0.52728 0.69386 0.0
C1404 C 0.40099 0.52639 0.70751 0.0
C1405 C 0.43754 0.52935 0.68094 0.0
C1406 C 0.43579 0.54146 0.66982 0.0
C1407 C 0.44945 0.51805 0.67849 0.0
C1408 C 0.45148 0.50467 0.68956 0.0
C1409 C 0.43861 0.49408 0.69289 0.0
C1410 C 0.44056 0.4816 0.70346 0.0
C1411 C 0.45536 0.47951 0.7107 0.0
C1412 C 0.46826 0.48987 0.70734 0.0
C1413 C 0.46636 0.50239 0.69679 0.0
H1414 H 0.45685 0.46984 0.71888 0.0
H1415 H 0.43969 0.59239 0.61755 0.0
H1416 H 0.7886 0.29289 0.66223 0.0
H1417 H 0.78263 0.31012 0.6398 0.0
H1418 H 0.77559 0.26887 0.60883 0.0
H1419 H 0.78171 0.2516 0.63115 0.0
H1420 H 0.79382 0.29291 0.59475 0.0
H1421 H 0.74406 0.28684 0.62325 0.0
H1422 H 0.72663 0.28787 0.64703 0.0
H1423 H 0.73685 0.33802 0.65241 0.0
H1424 H 0.75455 0.33724 0.62878 0.0
H1425 H 0.75404 0.32601 0.52958 0.0
H1426 H 0.7607 0.31016 0.5527 0.0
H1427 H 0.76334 0.35258 0.58253 0.0
H1428 H 0.75638 0.36855 0.55947 0.0
H1429 H 0.7481 0.32883 0.59773 0.0
H1430 H 0.79722 0.3354 0.56908 0.0
H1431 H 0.81501 0.33469 0.54556 0.0
H1432 H 0.80669 0.28421 0.54078 0.0
H1433 H 0.78866 0.28465 0.56415 0.0
C1434 C 0.78592 0.28752 0.6506 0.0
C1435 C 0.78557 0.2709 0.64844 0.0
C1436 C 0.78241 0.29735 0.63784 0.0
C1437 C 0.77854 0.29074 0.6227 0.0
C1438 C 0.77851 0.27419 0.62043 0.0
C1439 C 0.7819 0.26435 0.6332 0.0
C1440 C 0.77437 0.30106 0.60924 0.0
C1441 C 0.78373 0.30064 0.59531 0.0
C1442 C 0.76145 0.31144 0.61019 0.0
C1443 C 0.75076 0.31194 0.62435 0.0
C1444 C 0.7427 0.29806 0.62958 0.0
C1445 C 0.73275 0.2986 0.64302 0.0
C1446 C 0.73067 0.31299 0.65125 0.0
C1447 C 0.7385 0.32687 0.64604 0.0
C1448 C 0.74848 0.32639 0.63262 0.0
C1449 C 0.75599 0.33199 0.54106 0.0
C1450 C 0.75476 0.34856 0.54266 0.0
C1451 C 0.75987 0.32291 0.55425 0.0
C1452 C 0.76278 0.33022 0.56928 0.0
C1453 C 0.7612 0.34671 0.57102 0.0
C1454 C 0.75725 0.35581 0.55783 0.0
C1455 C 0.76749 0.32061 0.58314 0.0
C1456 C 0.75825 0.32116 0.59716 0.0
C1457 C 0.78058 0.31041 0.58231 0.0
C1458 C 0.79147 0.31008 0.56828 0.0
C1459 C 0.79908 0.32416 0.56294 0.0
C1460 C 0.80923 0.32381 0.54965 0.0
C1461 C 0.81195 0.30942 0.54165 0.0
C1462 C 0.80456 0.29535 0.54697 0.0
C1463 C 0.79438 0.29564 0.56025 0.0
H1464 H 0.81981 0.30916 0.53136 0.0
H1465 H 0.72295 0.31339 0.66165 0.0
H1466 H 0.49949 0.96874 0.62047 0.0
H1467 H 0.51503 0.97166 0.64525 0.0
H1468 H 0.55833 0.97709 0.61753 0.0
H1469 H 0.54284 0.97356 0.59276 0.0
H1470 H 0.56367 0.95875 0.641 0.0
H1471 H 0.53963 0.00925 0.63697 0.0
H1472 H 0.51771 0.0278 0.63394 0.0
H1473 H 0.49605 0.01061 0.67722 0.0
H1474 H 0.51774 0.9918 0.6804 0.0
H1475 H 0.61243 0.9928 0.7038 0.0
H1476 H 0.59641 0.98927 0.67939 0.0
H1477 H 0.55608 0.97307 0.70753 0.0
H1478 H 0.57207 0.97638 0.73203 0.0
H1479 H 0.54923 0.99679 0.68434 0.0
H1480 H 0.57477 0.94646 0.68787 0.0
H1481 H 0.59782 0.92924 0.69051 0.0
H1482 H 0.6181 0.94817 0.64731 0.0
H1483 H 0.59527 0.96568 0.64454 0.0
C1484 C 0.51232 0.97065 0.61971 0.0
C1485 C 0.51999 0.97097 0.60475 0.0
C1486 C 0.52119 0.97237 0.63386 0.0
C1487 C 0.53786 0.97485 0.63329 0.0
C1488 C 0.54551 0.97518 0.6183 0.0
C1489 C 0.53666 0.97318 0.60417 0.0
C1490 C 0.54737 0.9768 0.64829 0.0
C1491 C 0.56061 0.96724 0.65035 0.0
C1492 C 0.54327 0.98767 0.66068 0.0
C1493 C 0.53023 0.999 0.65883 0.0
C1494 C 0.53013 0.00934 0.64578 0.0
C1495 C 0.51776 0.01992 0.64404 0.0
C1496 C 0.50548 0.02035 0.65536 0.0
C1497 C 0.50556 0.01024 0.66846 0.0
C1498 C 0.5179 0.99963 0.67024 0.0
C1499 C 0.60016 0.98845 0.7048 0.0
C1500 C 0.59352 0.98483 0.71984 0.0
C1501 C 0.59105 0.98642 0.69085 0.0
C1502 C 0.5751 0.98086 0.69169 0.0
C1503 C 0.56838 0.97736 0.70667 0.0
C1504 C 0.57755 0.9792 0.72062 0.0
C1505 C 0.56544 0.97879 0.67691 0.0
C1506 C 0.55221 0.98833 0.67493 0.0
C1507 C 0.5697 0.96809 0.66449 0.0
C1508 C 0.58338 0.9575 0.66608 0.0
C1509 C 0.58421 0.94705 0.679 0.0
C1510 C 0.59722 0.93722 0.68051 0.0
C1511 C 0.60944 0.93764 0.66911 0.0
C1512 C 0.60864 0.94787 0.65615 0.0
C1513 C 0.59566 0.95774 0.6546 0.0
H1514 H 0.6195 0.93002 0.6703 0.0
H1515 H 0.49591 0.02854 0.65399 0.0
H1516 H 0.83925 0.2193 0.79002 0.0
H1517 H 0.86191 0.22454 0.80806 0.0
H1518 H 0.89269 0.23275 0.76738 0.0
H1519 H 0.8701 0.22725 0.74923 0.0
H1520 H 0.90605 0.21345 0.78976 0.0
H1521 H 0.88058 0.26363 0.78897 0.0
H1522 H 0.85801 0.28158 0.79139 0.0
H1523 H 0.85145 0.26853 0.84054 0.0
H1524 H 0.87384 0.25032 0.83834 0.0
H1525 H 0.97194 0.24694 0.83363 0.0
H1526 H 0.94986 0.2424 0.81479 0.0
H1527 H 0.9169 0.23806 0.85434 0.0
H1528 H 0.93886 0.24298 0.87325 0.0
H1529 H 0.90486 0.25578 0.8319 0.0
H1530 H 0.92957 0.20518 0.83282 0.0
H1531 H 0.95179 0.18677 0.83066 0.0
H1532 H 0.95943 0.20001 0.78171 0.0
H1533 H 0.93738 0.21865 0.78365 0.0
C1534 C 0.85087 0.22213 0.78491 0.0
C1535 C 0.85291 0.22287 0.76821 0.0
C1536 C 0.86377 0.22524 0.79523 0.0
C1537 C 0.87894 0.22916 0.78905 0.0
C1538 C 0.88106 0.22979 0.77238 0.0
C1539 C 0.86814 0.22676 0.76205 0.0
C1540 C 0.89261 0.23248 0.80001 0.0
C1541 C 0.90592 0.22286 0.79883 0.0
C1542 C 0.89222 0.2445 0.81207 0.0
C1543 C 0.87879 0.2555 0.81345 0.0
C1544 C 0.87424 0.26449 0.80026 0.0
C1545 C 0.8615 0.27473 0.8016 0.0
C1546 C 0.85328 0.27617 0.8161 0.0
C1547 C 0.85781 0.26739 0.82931 0.0
C1548 C 0.87054 0.25712 0.82803 0.0
C1549 C 0.96 0.24498 0.83833 0.0
C1550 C 0.95716 0.24526 0.85495 0.0
C1551 C 0.94739 0.24233 0.82754 0.0
C1552 C 0.93174 0.23968 0.83315 0.0
C1553 C 0.92887 0.24006 0.84973 0.0
C1554 C 0.94145 0.24283 0.86053 0.0
C1555 C 0.91832 0.23669 0.82175 0.0
C1556 C 0.90504 0.24639 0.82283 0.0
C1557 C 0.91871 0.22468 0.80965 0.0
C1558 C 0.93193 0.21343 0.80844 0.0
C1559 C 0.93607 0.20425 0.82164 0.0
C1560 C 0.94862 0.19376 0.82044 0.0
C1561 C 0.95704 0.19225 0.80607 0.0
C1562 C 0.95291 0.2012 0.79285 0.0
C1563 C 0.94038 0.21172 0.79398 0.0
H1564 H 0.96675 0.18412 0.80517 0.0
H1565 H 0.84341 0.2841 0.81711 0.0
H1566 H 0.48303 0.89173 0.49612 0.0
H1567 H 0.48847 0.86931 0.47817 0.0
H1568 H 0.48064 0.89864 0.43722 0.0
H1569 H 0.47521 0.92118 0.45514 0.0
H1570 H 0.46577 0.87004 0.43355 0.0
H1571 H 0.51823 0.8893 0.44807 0.0
H1572 H 0.53996 0.89804 0.46648 0.0
H1573 H 0.53905 0.85193 0.48772 0.0
H1574 H 0.51715 0.84299 0.46959 0.0
H1575 H 0.49843 0.81634 0.37627 0.0
H1576 H 0.4941 0.83982 0.39323 0.0
H1577 H 0.49854 0.81154 0.43549 0.0
H1578 H 0.50289 0.78799 0.41864 0.0
H1579 H 0.51563 0.84018 0.43774 0.0
H1580 H 0.46261 0.82132 0.42352 0.0
H1581 H 0.44095 0.81272 0.40497 0.0
H1582 H 0.44322 0.85841 0.38285 0.0
H1583 H 0.46506 0.8672 0.40113 0.0
C1584 C 0.48264 0.89347 0.48329 0.0
C1585 C 0.47877 0.90826 0.47705 0.0
C1586 C 0.48573 0.88064 0.47305 0.0
C1587 C 0.48515 0.88235 0.45635 0.0
C1588 C 0.48115 0.89706 0.45007 0.0
C1589 C 0.47802 0.90991 0.46032 0.0
C1590 C 0.48848 0.86871 0.44549 0.0
C1591 C 0.47679 0.86367 0.43429 0.0
C1592 C 0.50272 0.86021 0.44668 0.0
C1593 C 0.51594 0.86552 0.45756 0.0
C1594 C 0.52258 0.88106 0.45675 0.0
C1595 C 0.53494 0.88605 0.46712 0.0
C1596 C 0.54085 0.87556 0.47829 0.0
C1597 C 0.53444 0.86005 0.47908 0.0
C1598 C 0.52206 0.85501 0.46874 0.0
C1599 C 0.49852 0.81511 0.38917 0.0
C1600 C 0.50096 0.80029 0.39611 0.0
C1601 C 0.49599 0.82853 0.39884 0.0
C1602 C 0.49588 0.82738 0.4156 0.0
C1603 C 0.49857 0.81266 0.42257 0.0
C1604 C 0.501 0.79922 0.41292 0.0
C1605 C 0.4929 0.8415 0.42589 0.0
C1606 C 0.50466 0.84662 0.43697 0.0
C1607 C 0.47875 0.8501 0.42456 0.0
C1608 C 0.46559 0.84485 0.41358 0.0
C1609 C 0.45859 0.82948 0.41461 0.0
C1610 C 0.44626 0.82459 0.40416 0.0
C1611 C 0.44074 0.835 0.3927 0.0
C1612 C 0.44752 0.85035 0.39171 0.0
C1613 C 0.45987 0.8553 0.40212 0.0
H1614 H 0.4312 0.83118 0.38463 0.0
H1615 H 0.55043 0.87944 0.48631 0.0
H1616 H 0.13308 0.30857 0.75109 0.0
H1617 H 0.11165 0.30543 0.77079 0.0
H1618 H 0.12184 0.25574 0.77485 0.0
H1619 H 0.14312 0.25878 0.75491 0.0
H1620 H 0.09072 0.25933 0.77407 0.0
H1621 H 0.13439 0.28373 0.80353 0.0
H1622 H 0.1559 0.30378 0.80915 0.0
H1623 H 0.12146 0.34035 0.81219 0.0
H1624 H 0.09975 0.32055 0.80636 0.0
H1625 H 0.04719 0.2471 0.84621 0.0
H1626 H 0.0691 0.24968 0.82697 0.0
H1627 H 0.05727 0.29836 0.81893 0.0
H1628 H 0.03539 0.29594 0.83821 0.0
H1629 H 0.08953 0.29482 0.8222 0.0
H1630 H 0.04597 0.27001 0.79227 0.0
H1631 H 0.02469 0.24966 0.78688 0.0
H1632 H 0.05947 0.21335 0.78528 0.0
H1633 H 0.08094 0.23347 0.79088 0.0
C1634 C 0.13076 0.29699 0.75623 0.0
C1635 C 0.13981 0.28393 0.75155 0.0
C1636 C 0.11855 0.29521 0.76749 0.0
C1637 C 0.11532 0.28041 0.77452 0.0
C1638 C 0.12413 0.26728 0.76962 0.0
C1639 C 0.13626 0.26902 0.75822 0.0
C1640 C 0.10277 0.27864 0.78697 0.0
C1641 C 0.0906 0.26694 0.78471 0.0
C1642 C 0.10244 0.28876 0.80073 0.0
C1643 C 0.11546 0.30067 0.80437 0.0
C1644 C 0.13141 0.29607 0.80529 0.0
C1645 C 0.14364 0.30738 0.80853 0.0
C1646 C 0.14005 0.32333 0.81099 0.0
C1647 C 0.12422 0.32799 0.81026 0.0
C1648 C 0.11195 0.31673 0.80701 0.0
C1649 C 0.04929 0.25838 0.84041 0.0
C1650 C 0.0395 0.2713 0.84369 0.0
C1651 C 0.06177 0.25981 0.82938 0.0
C1652 C 0.06468 0.27416 0.82141 0.0
C1653 C 0.05519 0.28718 0.82494 0.0
C1654 C 0.04267 0.28575 0.83593 0.0
C1655 C 0.07751 0.27556 0.80924 0.0
C1656 C 0.08972 0.28719 0.81158 0.0
C1657 C 0.07793 0.26533 0.79561 0.0
C1658 C 0.06504 0.25323 0.79216 0.0
C1659 C 0.04906 0.25767 0.79089 0.0
C1660 C 0.03697 0.24618 0.78778 0.0
C1661 C 0.04072 0.23022 0.78578 0.0
C1662 C 0.05658 0.22572 0.78685 0.0
C1663 C 0.06872 0.23716 0.78998 0.0
H1664 H 0.03134 0.22134 0.78337 0.0
H1665 H 0.14954 0.33208 0.81349 0.0
H1666 H 0.49287 0.60671 0.49105 0.0
H1667 H 0.49013 0.62849 0.47244 0.0
H1668 H 0.54138 0.63502 0.47053 0.0
H1669 H 0.54421 0.61364 0.48969 0.0
H1670 H 0.52764 0.66285 0.47386 0.0
H1671 H 0.52038 0.61727 0.43929 0.0
H1672 H 0.50877 0.59131 0.43031 0.0
H1673 H 0.46238 0.61129 0.42762 0.0
H1674 H 0.47368 0.63733 0.43681 0.0
H1675 H 0.5272 0.71465 0.40726 0.0
H1676 H 0.53164 0.69188 0.4243 0.0
H1677 H 0.48077 0.68483 0.43023 0.0
H1678 H 0.4762 0.70749 0.41313 0.0
H1679 H 0.49547 0.65692 0.42403 0.0
H1680 H 0.50288 0.70223 0.45971 0.0
H1681 H 0.51473 0.72814 0.46856 0.0
H1682 H 0.56132 0.70839 0.4688 0.0
H1683 H 0.54976 0.68241 0.45973 0.0
C1684 C 0.50357 0.61284 0.48676 0.0
C1685 C 0.51877 0.60843 0.49188 0.0
C1686 C 0.50198 0.62518 0.47597 0.0
C1687 C 0.51556 0.63326 0.46993 0.0
C1688 C 0.53075 0.6289 0.47498 0.0
C1689 C 0.53235 0.61658 0.48583 0.0
C1690 C 0.51385 0.64657 0.45869 0.0
C1691 C 0.52082 0.66148 0.46283 0.0
C1692 C 0.5047 0.64487 0.44445 0.0
C1693 C 0.49786 0.62923 0.43888 0.0
C1694 C 0.50768 0.6161 0.43691 0.0
C1695 C 0.50116 0.60138 0.43176 0.0
C1696 C 0.48484 0.59964 0.42843 0.0
C1697 C 0.47502 0.61265 0.43022 0.0
C1698 C 0.48148 0.6274 0.43538 0.0
C1699 C 0.51695 0.70826 0.41218 0.0
C1700 C 0.50134 0.71293 0.40888 0.0
C1701 C 0.51951 0.69527 0.42195 0.0
C1702 C 0.50653 0.68675 0.42864 0.0
C1703 C 0.49095 0.69125 0.42519 0.0
C1704 C 0.48837 0.70425 0.41546 0.0
C1705 C 0.50916 0.67317 0.43928 0.0
C1706 C 0.50235 0.65823 0.43502 0.0
C1707 C 0.51852 0.67482 0.45338 0.0
C1708 C 0.52547 0.69043 0.45887 0.0
C1709 C 0.51567 0.70345 0.46152 0.0
C1710 C 0.52233 0.71814 0.4666 0.0
C1711 C 0.53877 0.71992 0.4692 0.0
C1712 C 0.54858 0.707 0.46676 0.0
C1713 C 0.54198 0.69229 0.46166 0.0
H1714 H 0.5439 0.73131 0.47313 0.0
H1715 H 0.47982 0.58823 0.42445 0.0
H1716 H 0.84784 0.78833 0.71976 0.0
H1717 H 0.86943 0.78482 0.70052 0.0
H1718 H 0.89953 0.76812 0.7382 0.0
H1719 H 0.8784 0.77258 0.75769 0.0
H1720 H 0.91662 0.78598 0.71972 0.0
H1721 H 0.8793 0.74227 0.71112 0.0
H1722 H 0.85297 0.72931 0.70568 0.0
H1723 H 0.85089 0.75245 0.66031 0.0
H1724 H 0.87714 0.76572 0.66558 0.0
H1725 H 0.9541 0.73264 0.65342 0.0
H1726 H 0.93249 0.73818 0.67213 0.0
H1727 H 0.94358 0.78847 0.66909 0.0
H1728 H 0.96551 0.78299 0.6507 0.0
H1729 H 0.90602 0.75345 0.67041 0.0
H1730 H 0.93667 0.8066 0.7049 0.0
H1731 H 0.96385 0.81648 0.71209 0.0
H1732 H 0.98077 0.76895 0.70888 0.0
H1733 H 0.95367 0.75876 0.70189 0.0
C1734 C 0.85914 0.78419 0.72403 0.0
C1735 C 0.8613 0.78063 0.7403 0.0
C1736 C 0.87142 0.78199 0.71296 0.0
C1737 C 0.88602 0.77592 0.71784 0.0
C1738 C 0.88835 0.77273 0.73411 0.0
C1739 C 0.87616 0.77511 0.74523 0.0
C1740 C 0.89879 0.7726 0.706 0.0
C1741 C 0.91427 0.77891 0.70892 0.0
C1742 C 0.89586 0.76311 0.69205 0.0
C1743 C 0.88011 0.75511 0.68882 0.0
C1744 C 0.87318 0.74468 0.70003 0.0
C1745 C 0.85828 0.73727 0.69697 0.0
C1746 C 0.85025 0.74009 0.68267 0.0
C1747 C 0.85712 0.7503 0.67139 0.0
C1748 C 0.87201 0.75776 0.6744 0.0
C1749 C 0.95192 0.74488 0.65669 0.0
C1750 C 0.9616 0.75737 0.65067 0.0
C1751 C 0.93953 0.74804 0.66737 0.0
C1752 C 0.93653 0.76372 0.67218 0.0
C1753 C 0.94586 0.77625 0.66579 0.0
C1754 C 0.95836 0.7731 0.65523 0.0
C1755 C 0.9238 0.76691 0.68409 0.0
C1756 C 0.90833 0.7606 0.68117 0.0
C1757 C 0.92686 0.77597 0.69829 0.0
C1758 C 0.94317 0.78196 0.7027 0.0
C1759 C 0.94618 0.79826 0.70578 0.0
C1760 C 0.96157 0.80391 0.70982 0.0
C1761 C 0.97404 0.79336 0.71089 0.0
C1762 C 0.97112 0.77712 0.70799 0.0
C1763 C 0.95575 0.7714 0.70397 0.0
H1764 H 0.98595 0.79776 0.71399 0.0
H1765 H 0.83871 0.73434 0.68033 0.0
H1766 H 0.99531 0.9065 0.50998 0.0
H1767 H 0.99181 0.88445 0.52835 0.0
H1768 H 0.04283 0.87912 0.52968 0.0
H1769 H 0.04639 0.90073 0.51069 0.0
H1770 H 0.028 0.85098 0.52679 0.0
H1771 H 0.02277 0.89667 0.56106 0.0
H1772 H 0.01218 0.92237 0.56989 0.0
H1773 H 0.96505 0.90099 0.5731 0.0
H1774 H 0.97533 0.8752 0.56407 0.0
H1775 H 0.02701 0.80029 0.59427 0.0
H1776 H 0.03181 0.82302 0.57685 0.0
H1777 H 0.98102 0.82771 0.5712 0.0
H1778 H 0.97609 0.80506 0.58866 0.0
H1779 H 0.99664 0.85643 0.57694 0.0
H1780 H 0.0022 0.81085 0.54185 0.0
H1781 H 0.01317 0.78524 0.53326 0.0
H1782 H 0.06035 0.80674 0.53209 0.0
H1783 H 0.04969 0.83244 0.5409 0.0
C1784 C 0.00579 0.90056 0.51404 0.0
C1785 C 0.02114 0.90541 0.50884 0.0
C1786 C 0.00378 0.88806 0.52471 0.0
C1787 C 0.01707 0.88027 0.53059 0.0
C1788 C 0.0324 0.88501 0.52537 0.0
C1789 C 0.03442 0.89747 0.51462 0.0
C1790 C 0.01494 0.86699 0.54193 0.0
C1791 C 0.02136 0.85226 0.53788 0.0
C1792 C 0.00601 0.86855 0.55626 0.0
C1793 C 0.9998 0.88403 0.56175 0.0
C1794 C 0.01012 0.89748 0.56353 0.0
C1795 C 0.00418 0.91206 0.56859 0.0
C1796 C 0.98795 0.91332 0.57202 0.0
C1797 C 0.97762 0.9 0.57043 0.0
C1798 C 0.9835 0.88539 0.56536 0.0
C1799 C 0.01685 0.80617 0.58934 0.0
C1800 C 0.00116 0.80083 0.5928 0.0
C1801 C 0.01962 0.81912 0.57935 0.0
C1802 C 0.00677 0.82695 0.57263 0.0
C1803 C 0.99111 0.82182 0.57627 0.0
C1804 C 0.98832 0.80884 0.5862 0.0
C1805 C 0.00963 0.84046 0.56173 0.0
C1806 C 0.00334 0.85522 0.56588 0.0
C1807 C 0.01874 0.83895 0.54754 0.0
C1808 C 0.02516 0.82352 0.5422 0.0
C1809 C 0.01493 0.81008 0.53989 0.0
C1810 C 0.02109 0.79556 0.53496 0.0
C1811 C 0.03745 0.79435 0.53217 0.0
C1812 C 0.04769 0.80768 0.53428 0.0
C1813 C 0.04159 0.82223 0.53922 0.0
H1814 H 0.0422 0.7831 0.52835 0.0
H1815 H 0.98337 0.92462 0.57594 0.0
H1816 H 0.13077 0.71284 0.75186 0.0
H1817 H 0.10904 0.71538 0.73258 0.0
H1818 H 0.12475 0.76385 0.72392 0.0
H1819 H 0.14611 0.76148 0.74368 0.0
H1820 H 0.09429 0.76292 0.72615 0.0
H1821 H 0.13135 0.732 0.69667 0.0
H1822 H 0.14933 0.70991 0.6914 0.0
H1823 H 0.10974 0.67637 0.69461 0.0
H1824 H 0.09155 0.69826 0.70012 0.0
H1825 H 0.05003 0.76919 0.65276 0.0
H1826 H 0.07266 0.76641 0.67104 0.0
H1827 H 0.04895 0.72561 0.69209 0.0
H1828 H 0.02611 0.72852 0.67415 0.0
H1829 H 0.08359 0.72291 0.68269 0.0
H1830 H 0.04701 0.75535 0.7129 0.0
H1831 H 0.02985 0.77834 0.71673 0.0
H1832 H 0.07031 0.81021 0.71005 0.0
H1833 H 0.08767 0.78738 0.70593 0.0
C1834 C 0.1296 0.72399 0.74574 0.0
C1835 C 0.1401 0.73696 0.74919 0.0
C1836 C 0.11724 0.72542 0.73468 0.0
C1837 C 0.11538 0.73973 0.72657 0.0
C1838 C 0.12591 0.75269 0.73002 0.0
C1839 C 0.13811 0.75134 0.74128 0.0
C1840 C 0.10222 0.74133 0.7148 0.0
C1841 C 0.09215 0.75427 0.71652 0.0
C1842 C 0.09921 0.72997 0.70231 0.0
C1843 C 0.11011 0.71677 0.69896 0.0
C1844 C 0.1265 0.71991 0.69637 0.0
C1845 C 0.13672 0.70742 0.69332 0.0
C1846 C 0.13069 0.69175 0.69271 0.0
C1847 C 0.1144 0.68852 0.6951 0.0
C1848 C 0.10412 0.70096 0.69818 0.0
C1849 C 0.04966 0.7596 0.66126 0.0
C1850 C 0.0363 0.7491 0.66209 0.0
C1851 C 0.06256 0.75805 0.67168 0.0
C1852 C 0.0624 0.74582 0.68287 0.0
C1853 C 0.04925 0.73511 0.68349 0.0
C1854 C 0.03621 0.73684 0.67331 0.0
C1855 C 0.07583 0.74439 0.69417 0.0
C1856 C 0.08589 0.73152 0.69232 0.0
C1857 C 0.079 0.75594 0.70636 0.0
C1858 C 0.0686 0.76966 0.70892 0.0
C1859 C 0.05221 0.76726 0.71209 0.0
C1860 C 0.04246 0.78026 0.71435 0.0
C1861 C 0.04897 0.79573 0.71359 0.0
C1862 C 0.06527 0.79822 0.71061 0.0
C1863 C 0.07508 0.78526 0.70832 0.0
H1864 H 0.0414 0.80578 0.71534 0.0
H1865 H 0.13863 0.6821 0.69035 0.0
H1866 H 0.96949 0.59557 0.5408 0.0
H1867 H 0.97515 0.6191 0.55769 0.0
H1868 H 0.98141 0.64753 0.51547 0.0
H1869 H 0.97599 0.6239 0.49849 0.0
H1870 H 0.00403 0.65499 0.53631 0.0
H1871 H 0.94734 0.64931 0.53872 0.0
H1872 H 0.92121 0.63557 0.54262 0.0
H1873 H 0.93321 0.62683 0.59165 0.0
H1874 H 0.95952 0.64033 0.58799 0.0
H1875 H 0.9996 0.72899 0.58025 0.0
H1876 H 0.99348 0.70667 0.56174 0.0
H1877 H 0.99515 0.67412 0.60097 0.0
H1878 H 0.00147 0.69629 0.61953 0.0
H1879 H 0.96776 0.66995 0.58072 0.0
H1880 H 0.02524 0.67539 0.57707 0.0
H1881 H 0.05079 0.69001 0.57249 0.0
H1882 H 0.03606 0.7005 0.52464 0.0
H1883 H 0.01031 0.68613 0.52902 0.0
C1884 C 0.97194 0.60687 0.53513 0.0
C1885 C 0.97221 0.60793 0.51834 0.0
C1886 C 0.97516 0.62031 0.54479 0.0
C1887 C 0.97845 0.63515 0.53786 0.0
C1888 C 0.97887 0.63621 0.52108 0.0
C1889 C 0.97579 0.62272 0.5114 0.0
C1890 C 0.98172 0.64946 0.54817 0.0
C1891 C 0.99596 0.65839 0.54585 0.0
C1892 C 0.9713 0.65382 0.56076 0.0
C1893 C 0.95547 0.64571 0.56303 0.0
C1894 C 0.94446 0.64435 0.5503 0.0
C1895 C 0.92961 0.63663 0.55248 0.0
C1896 C 0.92557 0.6303 0.56736 0.0
C1897 C 0.93637 0.63172 0.58012 0.0
C1898 C 0.95125 0.63942 0.57801 0.0
C1899 C 0.9987 0.71708 0.58493 0.0
C1900 C 0.00105 0.71439 0.60134 0.0
C1901 C 0.99524 0.70436 0.57434 0.0
C1902 C 0.99392 0.68878 0.58002 0.0
C1903 C 0.99613 0.68608 0.59639 0.0
C1904 C 0.9998 0.69875 0.60694 0.0
C1905 C 0.9901 0.67527 0.56892 0.0
C1906 C 0.97575 0.66654 0.5711 0.0
C1907 C 0.0003 0.67123 0.55609 0.0
C1908 C 0.01578 0.67984 0.55344 0.0
C1909 C 0.02739 0.68095 0.56562 0.0
C1910 C 0.04192 0.68916 0.56305 0.0
C1911 C 0.04503 0.69622 0.5483 0.0
C1912 C 0.03362 0.69505 0.53607 0.0
C1913 C 0.01907 0.68686 0.53858 0.0
H1914 H 0.05629 0.70257 0.54633 0.0
H1915 H 0.91406 0.62433 0.56902 0.0
H1916 H 0.77594 0.85694 0.21373 0.0
H1917 H 0.7954 0.87886 0.21763 0.0
H1918 H 0.75792 0.90925 0.23368 0.0
H1919 H 0.73821 0.88756 0.22905 0.0
H1920 H 0.77741 0.92479 0.21409 0.0
H1921 H 0.78387 0.89288 0.26031 0.0
H1922 H 0.78813 0.86832 0.27516 0.0
H1923 H 0.83382 0.86363 0.25256 0.0
H1924 H 0.82974 0.88806 0.2374 0.0
H1925 H 0.82826 0.98463 0.25051 0.0
H1926 H 0.80856 0.96283 0.24645 0.0
H1927 H 0.84454 0.93433 0.22424 0.0
H1928 H 0.86435 0.95612 0.22817 0.0
H1929 H 0.82582 0.91807 0.24724 0.0
H1930 H 0.81874 0.95048 0.20102 0.0
H1931 H 0.81417 0.97544 0.18697 0.0
H1932 H 0.76907 0.97963 0.21086 0.0
H1933 H 0.77348 0.95479 0.22524 0.0
C1934 C 0.77177 0.86833 0.2179 0.0
C1935 C 0.75549 0.87048 0.22108 0.0
C1936 C 0.78296 0.88081 0.22032 0.0
C1937 C 0.77816 0.89564 0.22618 0.0
C1938 C 0.76191 0.89788 0.22922 0.0
C1939 C 0.75068 0.88543 0.22671 0.0
C1940 C 0.7901 0.90882 0.22901 0.0
C1941 C 0.78787 0.92338 0.22153 0.0
C1942 C 0.80391 0.9069 0.23848 0.0
C1943 C 0.80643 0.89222 0.24761 0.0
C1944 C 0.79477 0.88655 0.25841 0.0
C1945 C 0.79716 0.87266 0.2669 0.0
C1946 C 0.81122 0.8644 0.26477 0.0
C1947 C 0.82293 0.87003 0.25418 0.0
C1948 C 0.82059 0.88391 0.24565 0.0
C1949 C 0.83201 0.97372 0.24478 0.0
C1950 C 0.84786 0.9721 0.23962 0.0
C1951 C 0.82072 0.96131 0.24243 0.0
C1952 C 0.8251 0.94704 0.23495 0.0
C1953 C 0.84095 0.94528 0.23002 0.0
C1954 C 0.85222 0.95775 0.23222 0.0
C1955 C 0.8131 0.93395 0.23231 0.0
C1956 C 0.81533 0.91943 0.23983 0.0
C1957 C 0.79922 0.93596 0.223 0.0
C1958 C 0.79652 0.95086 0.21433 0.0
C1959 C 0.80791 0.95679 0.20338 0.0
C1960 C 0.80534 0.9709 0.19534 0.0
C1961 C 0.79136 0.97914 0.19806 0.0
C1962 C 0.77991 0.97325 0.20879 0.0
C1963 C 0.78243 0.95915 0.21688 0.0
H1964 H 0.78939 0.99006 0.19182 0.0
H1965 H 0.81305 0.85365 0.27136 0.0
H1966 H 0.7343 0.13533 0.27714 0.0
H1967 H 0.75295 0.11368 0.27424 0.0
H1968 H 0.79269 0.14752 0.27734 0.0
H1969 H 0.77407 0.16928 0.28026 0.0
H1970 H 0.79507 0.12441 0.25206 0.0
H1971 H 0.78496 0.12709 0.3087 0.0
H1972 H 0.7681 0.12786 0.3329 0.0
H1973 H 0.74726 0.08202 0.32028 0.0
H1974 H 0.76383 0.08108 0.29586 0.0
H1975 H 0.85397 0.06607 0.26072 0.0
H1976 H 0.83752 0.08933 0.26436 0.0
H1977 H 0.7958 0.05854 0.2705 0.0
H1978 H 0.81223 0.03531 0.26739 0.0
H1979 H 0.79556 0.08136 0.29189 0.0
H1980 H 0.8039 0.07876 0.23491 0.0
H1981 H 0.81969 0.07766 0.20999 0.0
H1982 H 0.84261 0.12266 0.22221 0.0
H1983 H 0.8271 0.12393 0.24733 0.0
C1984 C 0.74701 0.13816 0.27709 0.0
C1985 C 0.75276 0.15396 0.27893 0.0
C1986 C 0.75763 0.12579 0.27553 0.0
C1987 C 0.77417 0.12903 0.27568 0.0
C1988 C 0.77996 0.14481 0.27724 0.0
C1989 C 0.76934 0.15718 0.27899 0.0
C1990 C 0.78537 0.11586 0.2743 0.0
C1991 C 0.79539 0.1151 0.26087 0.0
C1992 C 0.78546 0.10358 0.28564 0.0
C1993 C 0.77554 0.10408 0.30037 0.0
C1994 C 0.77669 0.11723 0.31101 0.0
C1995 C 0.7672 0.11769 0.32478 0.0
C1996 C 0.75659 0.10502 0.32811 0.0
C1997 C 0.75547 0.09184 0.31768 0.0
C1998 C 0.76492 0.09133 0.30388 0.0
C1999 C 0.84129 0.06427 0.26283 0.0
C2000 C 0.83439 0.04885 0.26375 0.0
C2001 C 0.83188 0.07757 0.26484 0.0
C2002 C 0.81537 0.0757 0.26751 0.0
C2003 C 0.80851 0.0603 0.26848 0.0
C2004 C 0.81792 0.04702 0.26665 0.0
C2005 C 0.80519 0.08971 0.26948 0.0
C2006 C 0.79535 0.09067 0.28307 0.0
C2007 C 0.80515 0.10208 0.25818 0.0
C2008 C 0.81447 0.10135 0.24308 0.0
C2009 C 0.8124 0.08836 0.23235 0.0
C2010 C 0.82128 0.08772 0.21818 0.0
C2011 C 0.83218 0.10006 0.21454 0.0
C2012 C 0.83418 0.1131 0.22505 0.0
C2013 C 0.82534 0.11379 0.23925 0.0
H2014 H 0.83904 0.09954 0.20356 0.0
H2015 H 0.74925 0.10539 0.33878 0.0
H2016 H 0.384 0.00329 0.97763 0.0
H2017 H 0.36122 0.9857 0.98421 0.0
H2018 H 0.38948 0.94481 0.97406 0.0
H2019 H 0.4123 0.96235 0.96737 0.0
H2020 H 0.36019 0.94077 0.96161 0.0
H2021 H 0.38218 0.95702 0.01267 0.0
H2022 H 0.39193 0.97621 0.03343 0.0
H2023 H 0.3457 0.99666 0.03574 0.0
H2024 H 0.33574 0.97773 0.01482 0.0
H2025 H 0.30858 0.88378 0.99882 0.0
H2026 H 0.3316 0.90095 0.99201 0.0
H2027 H 0.30386 0.94239 0.00129 0.0
H2028 H 0.28086 0.92532 0.00835 0.0
H2029 H 0.33313 0.94586 0.01428 0.0
H2030 H 0.31125 0.92966 0.96303 0.0
H2031 H 0.30158 0.91044 0.94226 0.0
H2032 H 0.3477 0.88975 0.94043 0.0
H2033 H 0.35759 0.90871 0.96136 0.0
C2034 C 0.38538 0.99055 0.97688 0.0
C2035 C 0.39997 0.9842 0.97207 0.0
C2036 C 0.37236 0.98051 0.98064 0.0
C2037 C 0.37372 0.96393 0.97985 0.0
C2038 C 0.38817 0.95756 0.97476 0.0
C2039 C 0.40118 0.9676 0.97091 0.0
C2040 C 0.36007 0.95325 0.98439 0.0
C2041 C 0.35441 0.94173 0.97322 0.0
C2042 C 0.35232 0.95473 0.9994 0.0
C2043 C 0.35826 0.96605 0.01207 0.0
C2044 C 0.37413 0.96569 0.01752 0.0
C2045 C 0.37968 0.97651 0.02933 0.0
C2046 C 0.36945 0.98768 0.03587 0.0
C2047 C 0.35362 0.98802 0.03065 0.0
C2048 C 0.34801 0.97724 0.01883 0.0
C2049 C 0.30737 0.89654 0.99943 0.0
C2050 C 0.29287 0.90318 0.00409 0.0
C2051 C 0.32052 0.90634 0.99546 0.0
C2052 C 0.31939 0.92295 0.99596 0.0
C2053 C 0.30499 0.9296 0.00081 0.0
C2054 C 0.29185 0.91982 0.0048 0.0
C2055 C 0.33322 0.93342 0.99149 0.0
C2056 C 0.33892 0.94489 0.00269 0.0
C2057 C 0.34101 0.93187 0.97651 0.0
C2058 C 0.33511 0.92051 0.96387 0.0
C2059 C 0.31929 0.92094 0.95829 0.0
C2060 C 0.31378 0.9101 0.94647 0.0
C2061 C 0.32401 0.89886 0.94006 0.0
C2062 C 0.33979 0.89845 0.94542 0.0
C2063 C 0.34536 0.90925 0.95725 0.0
H2064 H 0.31972 0.89048 0.93092 0.0
H2065 H 0.37378 0.99604 0.04501 0.0
H2066 H 0.25218 0.36669 0.30149 0.0
H2067 H 0.23385 0.38865 0.30027 0.0
H2068 H 0.22093 0.37445 0.25187 0.0
H2069 H 0.23959 0.35275 0.25292 0.0
H2070 H 0.22506 0.40518 0.25352 0.0
H2071 H 0.1962 0.36668 0.28503 0.0
H2072 H 0.1921 0.34813 0.30732 0.0
H2073 H 0.19851 0.38673 0.34134 0.0
H2074 H 0.20287 0.40548 0.31925 0.0
H2075 H 0.15542 0.45003 0.24697 0.0
H2076 H 0.17341 0.42793 0.2491 0.0
H2077 H 0.18934 0.44582 0.29539 0.0
H2078 H 0.17126 0.46793 0.29344 0.0
H2079 H 0.18368 0.41352 0.29509 0.0
H2080 H 0.21228 0.45194 0.26302 0.0
H2081 H 0.2159 0.47019 0.24043 0.0
H2082 H 0.20924 0.43111 0.20701 0.0
H2083 H 0.20536 0.41264 0.22942 0.0
C2084 C 0.24535 0.36823 0.29064 0.0
C2085 C 0.24726 0.35802 0.27731 0.0
C2086 C 0.23485 0.38075 0.28996 0.0
C2087 C 0.22582 0.38308 0.27605 0.0
C2088 C 0.22777 0.3729 0.26272 0.0
C2089 C 0.23843 0.36052 0.26332 0.0
C2090 C 0.21451 0.39626 0.27528 0.0
C2091 C 0.21587 0.40685 0.2625 0.0
C2092 C 0.20273 0.39869 0.28719 0.0
C2093 C 0.20001 0.38746 0.30049 0.0
C2094 C 0.19684 0.37119 0.29727 0.0
C2095 C 0.19446 0.36065 0.30987 0.0
C2096 C 0.19508 0.36625 0.32574 0.0
C2097 C 0.19805 0.38241 0.32904 0.0
C2098 C 0.20046 0.393 0.31649 0.0
C2099 C 0.16271 0.44926 0.25763 0.0
C2100 C 0.16196 0.4608 0.27 0.0
C2101 C 0.17302 0.43665 0.2588 0.0
C2102 C 0.18284 0.43535 0.27232 0.0
C2103 C 0.18188 0.44663 0.28484 0.0
C2104 C 0.17158 0.45928 0.28368 0.0
C2105 C 0.19421 0.4223 0.27331 0.0
C2106 C 0.19287 0.41179 0.28613 0.0
C2107 C 0.20594 0.41986 0.26139 0.0
C2108 C 0.20838 0.43093 0.2479 0.0
C2109 C 0.21147 0.44725 0.25086 0.0
C2110 C 0.21359 0.45764 0.23808 0.0
C2111 C 0.21276 0.45182 0.22229 0.0
C2112 C 0.20986 0.4356 0.21925 0.0
C2113 C 0.20771 0.42517 0.23198 0.0
H2114 H 0.2144 0.45988 0.21242 0.0
H2115 H 0.19323 0.35806 0.33547 0.0
H2116 H 0.12527 0.00308 0.48167 0.0
H2117 H 0.14797 0.02194 0.48442 0.0
H2118 H 0.11704 0.06076 0.47544 0.0
H2119 H 0.09426 0.04194 0.47266 0.0
H2120 H 0.14436 0.06405 0.45891 0.0
H2121 H 0.12975 0.05328 0.51331 0.0
H2122 H 0.12345 0.03645 0.53651 0.0
H2123 H 0.17032 0.01742 0.53433 0.0
H2124 H 0.17683 0.03398 0.51097 0.0
H2125 H 0.19805 0.1263 0.4859 0.0
H2126 H 0.17515 0.10777 0.48251 0.0
H2127 H 0.20549 0.06835 0.49083 0.0
H2128 H 0.22842 0.08678 0.49443 0.0
H2129 H 0.17824 0.06564 0.50775 0.0
H2130 H 0.19276 0.07646 0.45321 0.0
H2131 H 0.19896 0.09339 0.43007 0.0
H2132 H 0.15215 0.11254 0.43265 0.0
H2133 H 0.14574 0.09587 0.45596 0.0
C2134 C 0.12327 0.01565 0.48043 0.0
C2135 C 0.10795 0.02103 0.47703 0.0
C2136 C 0.13626 0.02641 0.48198 0.0
C2137 C 0.13416 0.04278 0.48033 0.0
C2138 C 0.11892 0.04818 0.47675 0.0
C2139 C 0.10593 0.03741 0.47513 0.0
C2140 C 0.14788 0.05426 0.48228 0.0
C2141 C 0.15164 0.06455 0.46968 0.0
C2142 C 0.15757 0.05468 0.4962 0.0
C2143 C 0.15372 0.04476 0.51029 0.0
C2144 C 0.13867 0.04542 0.5177 0.0
C2145 C 0.13507 0.03594 0.5309 0.0
C2146 C 0.14646 0.02584 0.53687 0.0
C2147 C 0.1615 0.02523 0.52968 0.0
C2148 C 0.16516 0.03467 0.51647 0.0
C2149 C 0.19987 0.11368 0.48696 0.0
C2150 C 0.21506 0.10802 0.49043 0.0
C2151 C 0.18677 0.1031 0.48496 0.0
C2152 C 0.18864 0.08666 0.48628 0.0
C2153 C 0.20379 0.08098 0.48976 0.0
C2154 C 0.21688 0.09155 0.49177 0.0
C2155 C 0.17476 0.07539 0.48436 0.0
C2156 C 0.17096 0.06514 0.49698 0.0
C2157 C 0.16502 0.07504 0.47048 0.0
C2158 C 0.16883 0.08503 0.45643 0.0
C2159 C 0.18383 0.08438 0.44893 0.0
C2160 C 0.18737 0.09391 0.43576 0.0
C2161 C 0.17597 0.10407 0.42992 0.0
C2162 C 0.16098 0.10468 0.4372 0.0
C2163 C 0.15738 0.09519 0.45038 0.0
H2164 H 0.17874 0.11144 0.41972 0.0
H2165 H 0.14365 0.01852 0.54708 0.0
H2166 H 0.75122 0.13654 0.7233 0.0
H2167 H 0.73288 0.11413 0.72875 0.0
H2168 H 0.693 0.14213 0.71525 0.0
H2169 H 0.71123 0.16483 0.71038 0.0
H2170 H 0.68644 0.12603 0.74191 0.0
H2171 H 0.7074 0.11368 0.68985 0.0
H2172 H 0.72839 0.10943 0.66966 0.0
H2173 H 0.74645 0.07139 0.69725 0.0
H2174 H 0.72569 0.07556 0.71773 0.0
H2175 H 0.62964 0.06139 0.73341 0.0
H2176 H 0.64748 0.08435 0.72833 0.0
H2177 H 0.68774 0.0579 0.74378 0.0
H2178 H 0.67004 0.03488 0.74881 0.0
H2179 H 0.69378 0.07331 0.71585 0.0
H2180 H 0.6728 0.08588 0.76798 0.0
H2181 H 0.65165 0.0901 0.78802 0.0
H2182 H 0.6334 0.12773 0.75998 0.0
H2183 H 0.65432 0.12358 0.73966 0.0
C2184 C 0.73853 0.138 0.72163 0.0
C2185 C 0.73269 0.15248 0.71636 0.0
C2186 C 0.72808 0.12511 0.7246 0.0
C2187 C 0.71159 0.12639 0.72221 0.0
C2188 C 0.70569 0.14086 0.71711 0.0
C2189 C 0.71614 0.15378 0.71418 0.0
C2190 C 0.70049 0.11265 0.72513 0.0
C2191 C 0.6879 0.11456 0.73604 0.0
C2192 C 0.7026 0.09761 0.71772 0.0
C2193 C 0.71508 0.09504 0.7054 0.0
C2194 C 0.71592 0.10449 0.69168 0.0
C2195 C 0.72777 0.10208 0.68017 0.0
C2196 C 0.73878 0.09017 0.68219 0.0
C2197 C 0.73793 0.08062 0.69571 0.0
C2198 C 0.72612 0.083 0.70727 0.0
C2199 C 0.64228 0.06046 0.73576 0.0
C2200 C 0.64842 0.04631 0.74153 0.0
C2201 C 0.65245 0.07361 0.73291 0.0
C2202 C 0.66891 0.07285 0.73579 0.0
C2203 C 0.67507 0.05873 0.74148 0.0
C2204 C 0.66492 0.0456 0.74439 0.0
C2205 C 0.67978 0.08669 0.73265 0.0
C2206 C 0.69231 0.08479 0.7217 0.0
C2207 C 0.67759 0.10175 0.73999 0.0
C2208 C 0.66503 0.1043 0.75221 0.0
C2209 C 0.6642 0.09496 0.76602 0.0
C2210 C 0.65226 0.09736 0.77744 0.0
C2211 C 0.64116 0.10915 0.77525 0.0
C2212 C 0.64199 0.11859 0.76165 0.0
C2213 C 0.65389 0.11623 0.75018 0.0
H2214 H 0.63193 0.11099 0.78411 0.0
H2215 H 0.74794 0.08832 0.67327 0.0
H2216 H 0.38967 0.00057 0.52181 0.0
H2217 H 0.36718 0.01714 0.51563 0.0
H2218 H 0.39286 0.05824 0.53535 0.0
H2219 H 0.41559 0.04181 0.54131 0.0
H2220 H 0.36138 0.05629 0.54532 0.0
H2221 H 0.39052 0.05356 0.49587 0.0
H2222 H 0.40397 0.0401 0.47339 0.0
H2223 H 0.35992 0.01569 0.46032 0.0
H2224 H 0.34625 0.02884 0.48289 0.0
H2225 H 0.30962 0.11352 0.51457 0.0
H2226 H 0.3331 0.09829 0.52077 0.0
H2227 H 0.31114 0.05672 0.4978 0.0
H2228 H 0.28779 0.07195 0.49124 0.0
H2229 H 0.34149 0.05962 0.48948 0.0
H2230 H 0.31241 0.06134 0.53906 0.0
H2231 H 0.29871 0.07411 0.5618 0.0
H2232 H 0.34213 0.09968 0.57485 0.0
H2233 H 0.35605 0.08721 0.55205 0.0
C2234 C 0.39062 0.01316 0.5247 0.0
C2235 C 0.4045 0.01988 0.53196 0.0
C2236 C 0.37773 0.0226 0.52122 0.0
C2237 C 0.37844 0.03894 0.52488 0.0
C2238 C 0.39209 0.04565 0.53243 0.0
C2239 C 0.40504 0.03622 0.53588 0.0
C2240 C 0.36493 0.04901 0.52073 0.0
C2241 C 0.35716 0.05723 0.53308 0.0
C2242 C 0.35923 0.04992 0.50482 0.0
C2243 C 0.3674 0.04208 0.49116 0.0
C2244 C 0.38373 0.04523 0.48828 0.0
C2245 C 0.39139 0.03767 0.47551 0.0
C2246 C 0.38281 0.02702 0.46546 0.0
C2247 C 0.36655 0.02393 0.46813 0.0
C2248 C 0.35884 0.03145 0.4809 0.0
C2249 C 0.30979 0.10114 0.51082 0.0
C2250 C 0.29681 0.09393 0.50246 0.0
C2251 C 0.3232 0.09243 0.51444 0.0
C2252 C 0.32379 0.07629 0.50994 0.0
C2253 C 0.31094 0.06914 0.5014 0.0
C2254 C 0.29758 0.07786 0.49769 0.0
C2255 C 0.33781 0.06685 0.51408 0.0
C2256 C 0.34571 0.05875 0.50172 0.0
C2257 C 0.34356 0.06598 0.53001 0.0
C2258 C 0.33523 0.07347 0.54375 0.0
C2259 C 0.31901 0.06978 0.54671 0.0
C2260 C 0.31121 0.07695 0.55962 0.0
C2261 C 0.31953 0.08774 0.56974 0.0
C2262 C 0.33569 0.09134 0.56699 0.0
C2263 C 0.34355 0.08422 0.55408 0.0
H2264 H 0.31347 0.09327 0.57973 0.0
H2265 H 0.38876 0.02118 0.45557 0.0
H2266 H 0.61864 0.5127 0.52135 0.0
H2267 H 0.64 0.49366 0.5193 0.0
H2268 H 0.60601 0.45523 0.52848 0.0
H2269 H 0.58468 0.47428 0.53084 0.0
H2270 H 0.632 0.45151 0.5453 0.0
H2271 H 0.62106 0.46247 0.49031 0.0
H2272 H 0.61725 0.47925 0.46678 0.0
H2273 H 0.66543 0.49783 0.47129 0.0
H2274 H 0.66947 0.48132 0.49499 0.0
H2275 H 0.68259 0.38905 0.52064 0.0
H2276 H 0.66079 0.40759 0.52275 0.0
H2277 H 0.69441 0.44708 0.51738 0.0
H2278 H 0.71625 0.42865 0.51513 0.0
H2279 H 0.66833 0.44978 0.49837 0.0
H2280 H 0.67886 0.4386 0.55372 0.0
H2281 H 0.68234 0.42139 0.57698 0.0
H2282 H 0.63437 0.40255 0.57123 0.0
H2283 H 0.63067 0.4195 0.54778 0.0
C2284 C 0.61572 0.50017 0.52279 0.0
C2285 C 0.6 0.49496 0.5262 0.0
C2286 C 0.62792 0.4893 0.5216 0.0
C2287 C 0.62458 0.47297 0.52352 0.0
C2288 C 0.60888 0.46776 0.52697 0.0
C2289 C 0.59671 0.47865 0.52832 0.0
C2290 C 0.6375 0.46136 0.5222 0.0
C2291 C 0.63979 0.45098 0.53492 0.0
C2292 C 0.64788 0.46086 0.50881 0.0
C2293 C 0.64551 0.47076 0.49452 0.0
C2294 C 0.63081 0.47022 0.48636 0.0
C2295 C 0.62861 0.47967 0.47298 0.0
C2296 C 0.64108 0.48963 0.46757 0.0
C2297 C 0.65578 0.49012 0.47551 0.0
C2298 C 0.65803 0.48071 0.4889 0.0
C2299 C 0.68536 0.40168 0.51996 0.0
C2300 C 0.70116 0.40737 0.51773 0.0
C2301 C 0.67289 0.41226 0.52122 0.0
C2302 C 0.676 0.42872 0.52033 0.0
C2303 C 0.69175 0.43442 0.51809 0.0
C2304 C 0.70422 0.42387 0.51686 0.0
C2305 C 0.66283 0.44001 0.52148 0.0
C2306 C 0.6605 0.45031 0.50872 0.0
C2307 C 0.65235 0.44037 0.53478 0.0
C2308 C 0.65455 0.4302 0.5489 0.0
C2309 C 0.6691 0.43069 0.55733 0.0
C2310 C 0.6711 0.421 0.57057 0.0
C2311 C 0.6586 0.41085 0.57555 0.0
C2312 C 0.64405 0.4104 0.56734 0.0
C2313 C 0.64199 0.42006 0.55409 0.0
H2314 H 0.66018 0.40336 0.5858 0.0
H2315 H 0.63936 0.49694 0.45721 0.0
H2316 H 0.74845 0.27434 0.359 0.0
H2317 H 0.75257 0.29372 0.3809 0.0
H2318 H 0.70342 0.2866 0.39534 0.0
H2319 H 0.69917 0.26738 0.37321 0.0
H2320 H 0.71138 0.31709 0.39662 0.0
H2321 H 0.73435 0.27001 0.41605 0.0
H2322 H 0.7515 0.24677 0.41537 0.0
H2323 H 0.79322 0.27763 0.41235 0.0
H2324 H 0.7763 0.30106 0.41278 0.0
H2325 H 0.72316 0.35424 0.47399 0.0
H2326 H 0.7172 0.335 0.45227 0.0
H2327 H 0.76404 0.34408 0.43232 0.0
H2328 H 0.77012 0.36332 0.45395 0.0
H2329 H 0.75631 0.31203 0.43475 0.0
H2330 H 0.73234 0.35917 0.41491 0.0
H2331 H 0.71459 0.38193 0.41632 0.0
H2332 H 0.67389 0.35004 0.42136 0.0
H2333 H 0.69144 0.32708 0.4202 0.0
C2334 C 0.73856 0.27684 0.36691 0.0
C2335 C 0.72352 0.26928 0.36449 0.0
C2336 C 0.74092 0.2879 0.37943 0.0
C2337 C 0.72838 0.29142 0.38995 0.0
C2338 C 0.71328 0.28406 0.3874 0.0
C2339 C 0.71086 0.2731 0.37476 0.0
C2340 C 0.73105 0.30284 0.40354 0.0
C2341 C 0.72106 0.31584 0.4051 0.0
C2342 C 0.74381 0.30134 0.4145 0.0
C2343 C 0.75404 0.28728 0.4143 0.0
C2344 C 0.74717 0.27184 0.41512 0.0
C2345 C 0.75686 0.25863 0.4148 0.0
C2346 C 0.77344 0.26072 0.41378 0.0
C2347 C 0.78037 0.27603 0.41312 0.0
C2348 C 0.77074 0.28927 0.41342 0.0
C2349 C 0.73217 0.3522 0.46494 0.0
C2350 C 0.74712 0.36032 0.46568 0.0
C2351 C 0.72873 0.34124 0.45252 0.0
C2352 C 0.74016 0.33819 0.44066 0.0
C2353 C 0.75506 0.34628 0.44137 0.0
C2354 C 0.75849 0.3573 0.45371 0.0
C2355 C 0.73677 0.32632 0.42768 0.0
C2356 C 0.74661 0.31322 0.42628 0.0
C2357 C 0.72379 0.32763 0.417 0.0
C2358 C 0.71322 0.34142 0.41764 0.0
C2359 C 0.71962 0.35702 0.41645 0.0
C2360 C 0.70959 0.36995 0.41718 0.0
C2361 C 0.69313 0.36743 0.41897 0.0
C2362 C 0.68665 0.35197 0.42 0.0
C2363 C 0.69663 0.33899 0.41929 0.0
H2364 H 0.68538 0.37746 0.41953 0.0
H2365 H 0.78092 0.25048 0.41353 0.0
H2366 H 0.49887 0.03307 0.88388 0.0
H2367 H 0.51523 0.02815 0.86015 0.0
H2368 H 0.55753 0.02896 0.88977 0.0
H2369 H 0.5412 0.03445 0.91346 0.0
H2370 H 0.56384 0.04429 0.86393 0.0
H2371 H 0.53939 0.99351 0.8744 0.0
H2372 H 0.51732 0.97419 0.87966 0.0
H2373 H 0.49657 0.98384 0.83394 0.0
H2374 H 0.5184 0.00339 0.82849 0.0
H2375 H 0.61273 0.00745 0.80442 0.0
H2376 H 0.59697 0.01173 0.82877 0.0
H2377 H 0.55598 0.02192 0.79992 0.0
H2378 H 0.57167 0.01787 0.77553 0.0
H2379 H 0.54974 0.00026 0.82559 0.0
H2380 H 0.57504 0.05169 0.81607 0.0
H2381 H 0.59806 0.07003 0.81135 0.0
H2382 H 0.61852 0.05741 0.85637 0.0
H2383 H 0.59572 0.03881 0.86125 0.0
C2384 C 0.51166 0.03213 0.8853 0.0
C2385 C 0.51879 0.03406 0.90048 0.0
C2386 C 0.521 0.02926 0.87175 0.0
C2387 C 0.53761 0.02788 0.87318 0.0
C2388 C 0.54475 0.02995 0.88835 0.0
C2389 C 0.53543 0.03308 0.90187 0.0
C2390 C 0.54753 0.02448 0.85882 0.0
C2391 C 0.56087 0.0345 0.85571 0.0
C2392 C 0.54358 0.01183 0.84791 0.0
C2393 C 0.53047 2e-05 0.85111 0.0
C2394 C 0.53006 0.99159 0.86552 0.0
C2395 C 0.5176 0.98059 0.86852 0.0
C2396 C 0.50553 0.97781 0.85716 0.0
C2397 C 0.50592 0.98601 0.84274 0.0
C2398 C 0.51834 0.99704 0.83968 0.0
C2399 C 0.60035 0.01058 0.80326 0.0
C2400 C 0.59345 0.01238 0.78806 0.0
C2401 C 0.59139 0.01305 0.81717 0.0
C2402 C 0.57535 0.0172 0.8161 0.0
C2403 C 0.56835 0.01872 0.80096 0.0
C2404 C 0.57735 0.01647 0.78706 0.0
C2405 C 0.56589 0.0201 0.83078 0.0
C2406 C 0.55268 0.00998 0.83392 0.0
C2407 C 0.57009 0.03249 0.84182 0.0
C2408 C 0.58375 0.04374 0.83894 0.0
C2409 C 0.58451 0.05272 0.8249 0.0
C2410 C 0.59751 0.06318 0.82221 0.0
C2411 C 0.60977 0.06485 0.83353 0.0
C2412 C 0.60903 0.05609 0.8476 0.0
C2413 C 0.59607 0.0456 0.85034 0.0
H2414 H 0.61982 0.07296 0.83143 0.0
H2415 H 0.49589 0.96929 0.85951 0.0
H2416 H 0.28278 0.2225 0.33976 0.0
H2417 H 0.27975 0.2025 0.36058 0.0
H2418 H 0.27791 0.2397 0.39674 0.0
H2419 H 0.28109 0.25978 0.37596 0.0
H2420 H 0.29795 0.2153 0.40489 0.0
H2421 H 0.24443 0.22121 0.38572 0.0
H2422 H 0.22328 0.22195 0.36522 0.0
H2423 H 0.23171 0.17349 0.35166 0.0
H2424 H 0.25309 0.17254 0.37194 0.0
H2425 H 0.2682 0.17082 0.46994 0.0
H2426 H 0.27193 0.19001 0.44861 0.0
H2427 H 0.26958 0.15192 0.41327 0.0
H2428 H 0.26556 0.13258 0.43459 0.0
H2429 H 0.25214 0.17635 0.40421 0.0
H2430 H 0.30525 0.17003 0.42347 0.0
H2431 H 0.32665 0.16911 0.44368 0.0
H2432 H 0.31949 0.21795 0.45668 0.0
H2433 H 0.29787 0.2191 0.43669 0.0
C2434 C 0.28184 0.22641 0.35216 0.0
C2435 C 0.28215 0.24269 0.35626 0.0
C2436 C 0.28 0.21499 0.36401 0.0
C2437 C 0.27849 0.21964 0.38017 0.0
C2438 C 0.27902 0.23588 0.38433 0.0
C2439 C 0.28073 0.24732 0.37246 0.0
C2440 C 0.27633 0.20754 0.39272 0.0
C2441 C 0.28784 0.2069 0.40488 0.0
C2442 C 0.26336 0.19633 0.3924 0.0
C2443 C 0.25048 0.19686 0.38023 0.0
C2444 C 0.24188 0.21076 0.37827 0.0
C2445 C 0.22983 0.21121 0.36671 0.0
C2446 C 0.22619 0.19779 0.35711 0.0
C2447 C 0.23456 0.18388 0.35909 0.0
C2448 C 0.24664 0.18338 0.37062 0.0
C2449 C 0.2685 0.16648 0.45764 0.0
C2450 C 0.26665 0.15014 0.45397 0.0
C2451 C 0.27071 0.17748 0.44546 0.0
C2452 C 0.27126 0.17238 0.42936 0.0
C2453 C 0.26924 0.15611 0.42562 0.0
C2454 C 0.26699 0.14507 0.43782 0.0
C2455 C 0.27374 0.18412 0.41646 0.0
C2456 C 0.26229 0.1847 0.40422 0.0
C2457 C 0.28681 0.19523 0.41666 0.0
C2458 C 0.29984 0.1946 0.42868 0.0
C2459 C 0.30815 0.18054 0.43072 0.0
C2460 C 0.32034 0.17998 0.44213 0.0
C2461 C 0.3244 0.19345 0.45149 0.0
C2462 C 0.31631 0.20752 0.44943 0.0
C2463 C 0.3041 0.20813 0.43806 0.0
H2464 H 0.33384 0.193 0.46031 0.0
H2465 H 0.21685 0.19816 0.34817 0.0
H2466 H 0.49052 0.46512 0.88604 0.0
H2467 H 0.47158 0.46808 0.86404 0.0
H2468 H 0.46711 0.51759 0.87695 0.0
H2469 H 0.48593 0.51467 0.89911 0.0
H2470 H 0.43784 0.50194 0.87114 0.0
H2471 H 0.48891 0.50829 0.84551 0.0
H2472 H 0.51621 0.50079 0.83828 0.0
H2473 H 0.49767 0.45786 0.81552 0.0
H2474 H 0.47025 0.465 0.82282 0.0
H2475 H 0.39843 0.52527 0.80028 0.0
H2476 H 0.41696 0.52287 0.82266 0.0
H2477 H 0.42578 0.47456 0.80788 0.0
H2478 H 0.40751 0.47697 0.78529 0.0
H2479 H 0.453 0.49002 0.8148 0.0
H2480 H 0.40217 0.48302 0.8405 0.0
H2481 H 0.37473 0.48988 0.84794 0.0
H2482 H 0.39246 0.53308 0.87077 0.0
H2483 H 0.42001 0.52659 0.86327 0.0
C2484 C 0.48544 0.47662 0.88423 0.0
C2485 C 0.48973 0.48968 0.89426 0.0
C2486 C 0.47471 0.47831 0.87161 0.0
C2487 C 0.46805 0.49309 0.86881 0.0
C2488 C 0.47216 0.50611 0.8789 0.0
C2489 C 0.48298 0.50445 0.89146 0.0
C2490 C 0.45676 0.49491 0.85535 0.0
C2491 C 0.44119 0.49956 0.85879 0.0
C2492 C 0.46107 0.49141 0.8393 0.0
C2493 C 0.47754 0.48711 0.83486 0.0
C2494 C 0.49066 0.49718 0.83908 0.0
C2495 C 0.50616 0.49301 0.83495 0.0
C2496 C 0.50868 0.47884 0.82648 0.0
C2497 C 0.4957 0.46883 0.8221 0.0
C2498 C 0.48018 0.47294 0.82622 0.0
C2499 C 0.40425 0.51411 0.80183 0.0
C2500 C 0.40147 0.5013 0.79102 0.0
C2501 C 0.4148 0.51274 0.81467 0.0
C2502 C 0.42264 0.49848 0.81705 0.0
C2503 C 0.41987 0.48568 0.80627 0.0
C2504 C 0.40938 0.48706 0.79339 0.0
C2505 C 0.43399 0.49699 0.83056 0.0
C2506 C 0.4496 0.49242 0.82714 0.0
C2507 C 0.42968 0.50047 0.84663 0.0
C2508 C 0.41314 0.5044 0.85118 0.0
C2509 C 0.40021 0.49405 0.84699 0.0
C2510 C 0.38464 0.49786 0.85124 0.0
C2511 C 0.38185 0.51193 0.85978 0.0
C2512 C 0.39464 0.5222 0.86413 0.0
C2513 C 0.41023 0.51846 0.8599 0.0
H2514 H 0.36979 0.51486 0.86306 0.0
H2515 H 0.52068 0.47563 0.82329 0.0
H2516 H 0.72888 0.7724 0.11625 0.0
H2517 H 0.73325 0.7535 0.09419 0.0
H2518 H 0.72675 0.71449 0.12664 0.0
H2519 H 0.72265 0.73337 0.14885 0.0
H2520 H 0.7529 0.71116 0.10731 0.0
H2521 H 0.69767 0.72233 0.10103 0.0
H2522 H 0.67441 0.73927 0.09842 0.0
H2523 H 0.69407 0.75885 0.05525 0.0
H2524 H 0.71758 0.74219 0.05773 0.0
H2525 H 0.74817 0.65108 0.04611 0.0
H2526 H 0.74198 0.66843 0.06895 0.0
H2527 H 0.7464 0.70936 0.0387 0.0
H2528 H 0.7524 0.69212 0.01577 0.0
H2529 H 0.72038 0.71076 0.05757 0.0
H2530 H 0.77607 0.70061 0.06444 0.0
H2531 H 0.79954 0.68395 0.06709 0.0
H2532 H 0.77915 0.6627 0.10912 0.0
H2533 H 0.75544 0.67909 0.1066 0.0
C2534 C 0.72845 0.7598 0.1187 0.0
C2535 C 0.72542 0.75436 0.13427 0.0
C2536 C 0.73082 0.74902 0.10607 0.0
C2537 C 0.73018 0.7326 0.10877 0.0
C2538 C 0.72723 0.72712 0.12431 0.0
C2539 C 0.72478 0.7379 0.13694 0.0
C2540 C 0.73289 0.72119 0.09539 0.0
C2541 C 0.74563 0.71088 0.09653 0.0
C2542 C 0.72361 0.72109 0.08121 0.0
C2543 C 0.70946 0.73111 0.07965 0.0
C2544 C 0.6971 0.73034 0.09105 0.0
C2545 C 0.68386 0.73988 0.08958 0.0
C2546 C 0.68278 0.75016 0.0767 0.0
C2547 C 0.69493 0.7509 0.06523 0.0
C2548 C 0.70821 0.74139 0.06666 0.0
C2549 C 0.74784 0.66378 0.04431 0.0
C2550 C 0.75085 0.67023 0.02913 0.0
C2551 C 0.74435 0.67367 0.05739 0.0
C2552 C 0.74389 0.6902 0.05555 0.0
C2553 C 0.7467 0.69664 0.04038 0.0
C2554 C 0.75019 0.68677 0.0273 0.0
C2555 C 0.74047 0.70081 0.06943 0.0
C2556 C 0.72759 0.71098 0.06838 0.0
C2557 C 0.74965 0.7008 0.08368 0.0
C2558 C 0.7639 0.69095 0.08523 0.0
C2559 C 0.77653 0.69228 0.07417 0.0
C2560 C 0.78989 0.68291 0.07566 0.0
C2561 C 0.79082 0.67224 0.08824 0.0
C2562 C 0.7784 0.67095 0.09937 0.0
C2563 C 0.765 0.68029 0.09792 0.0
H2564 H 0.80117 0.66499 0.08937 0.0
H2565 H 0.67252 0.75753 0.07558 0.0
H2566 H 0.99657 0.05633 0.11943 0.0
H2567 H 0.97885 0.05539 0.14281 0.0
H2568 H 0.9645 0.00704 0.13033 0.0
H2569 H 0.98235 0.00787 0.10699 0.0
H2570 H 0.93871 0.02799 0.13743 0.0
H2571 H 0.98832 0.01153 0.15969 0.0
H2572 H 0.01719 0.01387 0.16538 0.0
H2573 H 0.01059 0.05813 0.19054 0.0
H2574 H 0.9817 0.05617 0.18478 0.0
H2575 H 0.89782 0.0077 0.20873 0.0
H2576 H 0.91577 0.0084 0.1857 0.0
H2577 H 0.93644 0.05321 0.20279 0.0
H2578 H 0.91872 0.05243 0.2261 0.0
H2579 H 0.95917 0.03411 0.19312 0.0
H2580 H 0.91014 0.0513 0.17119 0.0
H2581 H 0.88131 0.05008 0.16519 0.0
H2582 H 0.88661 0.00612 0.1391 0.0
H2583 H 0.91546 0.00697 0.14514 0.0
C2584 C 0.98963 0.04551 0.1217 0.0
C2585 C 0.99081 0.03216 0.11146 0.0
C2586 C 0.97959 0.04497 0.13505 0.0
C2587 C 0.97044 0.03113 0.13827 0.0
C2588 C 0.9715 0.01781 0.12801 0.0
C2589 C 0.98173 0.01827 0.11478 0.0
C2590 C 0.95965 0.03066 0.1523 0.0
C2591 C 0.94315 0.0291 0.14964 0.0
C2592 C 0.96551 0.03259 0.16814 0.0
C2593 C 0.98287 0.03379 0.17165 0.0
C2594 C 0.99305 0.02184 0.1663 0.0
C2595 C 0.00941 0.02308 0.16957 0.0
C2596 C 0.01573 0.03617 0.17828 0.0
C2597 C 0.00569 0.04802 0.18377 0.0
C2598 C 0.98931 0.04684 0.18052 0.0
C2599 C 0.90614 0.01774 0.20758 0.0
C2600 C 0.9068 0.03005 0.21923 0.0
C2601 C 0.91636 0.01815 0.19437 0.0
C2602 C 0.92732 0.03096 0.19241 0.0
C2603 C 0.92807 0.04322 0.20405 0.0
C2604 C 0.9179 0.04278 0.21734 0.0
C2605 C 0.93813 0.03142 0.17832 0.0
C2606 C 0.95467 0.033 0.18094 0.0
C2607 C 0.93228 0.02967 0.16242 0.0
C2608 C 0.91494 0.02912 0.15875 0.0
C2609 C 0.90514 0.04131 0.16428 0.0
C2610 C 0.88879 0.0407 0.16086 0.0
C2611 C 0.88212 0.02801 0.15181 0.0
C2612 C 0.89179 0.01593 0.14613 0.0
C2613 C 0.90814 0.01648 0.14954 0.0
H2614 H 0.86947 0.02756 0.14916 0.0
H2615 H 0.0284 0.03711 0.18081 0.0
H2616 H 0.27424 0.74988 0.13875 0.0
H2617 H 0.26729 0.7676 0.11728 0.0
H2618 H 0.28371 0.80806 0.14601 0.0
H2619 H 0.28976 0.79046 0.168 0.0
H2620 H 0.2571 0.81469 0.13183 0.0
H2621 H 0.30612 0.79283 0.11426 0.0
H2622 H 0.32491 0.77174 0.10776 0.0
H2623 H 0.2927 0.75255 0.07174 0.0
H2624 H 0.27361 0.77341 0.07818 0.0
H2625 H 0.26026 0.8678 0.06557 0.0
H2626 H 0.2674 0.85139 0.08824 0.0
H2627 H 0.24581 0.81012 0.06444 0.0
H2628 H 0.23861 0.82639 0.04176 0.0
H2629 H 0.27603 0.80485 0.07629 0.0
H2630 H 0.22687 0.82711 0.09484 0.0
H2631 H 0.20885 0.84887 0.10141 0.0
H2632 H 0.2428 0.86826 0.13567 0.0
H2633 H 0.26113 0.84674 0.12914 0.0
C2634 C 0.27619 0.76255 0.14063 0.0
C2635 C 0.28258 0.76871 0.15516 0.0
C2636 C 0.27241 0.77267 0.12822 0.0
C2637 C 0.27524 0.78916 0.1299 0.0
C2638 C 0.28151 0.79537 0.14439 0.0
C2639 C 0.28513 0.78527 0.1569 0.0
C2640 C 0.27141 0.79989 0.1166 0.0
C2641 C 0.26146 0.81268 0.11974 0.0
C2642 C 0.27688 0.79715 0.10075 0.0
C2643 C 0.28837 0.78461 0.0968 0.0
C2644 C 0.30299 0.78405 0.10503 0.0
C2645 C 0.3137 0.77214 0.10135 0.0
C2646 C 0.30999 0.76079 0.08937 0.0
C2647 C 0.29556 0.76135 0.08103 0.0
C2648 C 0.28479 0.77322 0.08468 0.0
C2649 C 0.25697 0.85525 0.06519 0.0
C2650 C 0.24885 0.8484 0.05186 0.0
C2651 C 0.26102 0.84591 0.07816 0.0
C2652 C 0.25707 0.82957 0.07802 0.0
C2653 C 0.24897 0.82271 0.06476 0.0
C2654 C 0.24481 0.83205 0.05184 0.0
C2655 C 0.26165 0.8195 0.09154 0.0
C2656 C 0.27176 0.80687 0.08841 0.0
C2657 C 0.25647 0.82249 0.10741 0.0
C2658 C 0.24544 0.83541 0.11137 0.0
C2659 C 0.23055 0.8361 0.10367 0.0
C2660 C 0.22027 0.84837 0.10741 0.0
C2661 C 0.2247 0.85997 0.11891 0.0
C2662 C 0.2394 0.85929 0.12674 0.0
C2663 C 0.24973 0.84705 0.12304 0.0
H2664 H 0.21672 0.86946 0.12179 0.0
H2665 H 0.3183 0.75158 0.08654 0.0
H2666 H 0.99744 0.47598 0.11999 0.0
H2667 H 0.01332 0.4803 0.14435 0.0
H2668 H 0.05636 0.47208 0.1175 0.0
H2669 H 0.04055 0.4678 0.09304 0.0
H2670 H 0.0562 0.45648 0.14538 0.0
H2671 H 0.04662 0.50952 0.12871 0.0
H2672 H 0.03028 0.53173 0.12032 0.0
H2673 H 0.0052 0.53045 0.1652 0.0
H2674 H 0.02125 0.50807 0.17377 0.0
H2675 H 0.11122 0.48596 0.20431 0.0
H2676 H 0.09562 0.48201 0.17974 0.0
H2677 H 0.05231 0.49018 0.20616 0.0
H2678 H 0.06785 0.49438 0.23078 0.0
H2679 H 0.05278 0.50592 0.17835 0.0
H2680 H 0.06223 0.4527 0.1949 0.0
H2681 H 0.07857 0.43046 0.20322 0.0
H2682 H 0.10394 0.43212 0.15853 0.0
H2683 H 0.08789 0.45452 0.15002 0.0
C2684 C 0.0103 0.47525 0.11923 0.0
C2685 C 0.01774 0.47162 0.10456 0.0
C2686 C 0.01936 0.4777 0.13317 0.0
C2687 C 0.03604 0.47669 0.1327 0.0
C2688 C 0.0435 0.47291 0.11812 0.0
C2689 C 0.03444 0.47042 0.10417 0.0
C2690 C 0.04569 0.47942 0.14746 0.0
C2691 C 0.05563 0.46738 0.15247 0.0
C2692 C 0.04466 0.4935 0.1569 0.0
C2693 C 0.03504 0.50702 0.15181 0.0
C2694 C 0.03754 0.51389 0.13674 0.0
C2695 C 0.02834 0.52652 0.13196 0.0
C2696 C 0.01668 0.53247 0.1422 0.0
C2697 C 0.01423 0.52582 0.15727 0.0
C2698 C 0.02338 0.51317 0.1621 0.0
C2699 C 0.09837 0.4869 0.20492 0.0
C2700 C 0.09077 0.49042 0.21953 0.0
C2701 C 0.08947 0.48458 0.19086 0.0
C2702 C 0.07278 0.48562 0.19115 0.0
C2703 C 0.06517 0.4893 0.20567 0.0
C2704 C 0.07407 0.49165 0.21974 0.0
C2705 C 0.06327 0.48296 0.17628 0.0
C2706 C 0.05336 0.49502 0.17125 0.0
C2707 C 0.06434 0.4689 0.16682 0.0
C2708 C 0.07396 0.45539 0.17189 0.0
C2709 C 0.07138 0.4484 0.1869 0.0
C2710 C 0.08057 0.43575 0.19164 0.0
C2711 C 0.09231 0.42991 0.18143 0.0
C2712 C 0.09485 0.43667 0.16643 0.0
C2713 C 0.0857 0.44934 0.16164 0.0
H2714 H 0.09941 0.42011 0.18512 0.0
H2715 H 0.00957 0.54225 0.13848 0.0
H2716 H 0.34821 0.74318 0.27605 0.0
H2717 H 0.37039 0.74981 0.29429 0.0
H2718 H 0.38934 0.70336 0.28565 0.0
H2719 H 0.3668 0.69652 0.26783 0.0
H2720 H 0.39159 0.71021 0.31585 0.0
H2721 H 0.40559 0.73814 0.26822 0.0
H2722 H 0.40172 0.75621 0.24572 0.0
H2723 H 0.39588 0.79521 0.27888 0.0
H2724 H 0.3995 0.77732 0.3016 0.0
H2725 H 0.46966 0.7294 0.34623 0.0
H2726 H 0.44721 0.72247 0.3284 0.0
H2727 H 0.42374 0.76499 0.3436 0.0
H2728 H 0.44611 0.77201 0.36154 0.0
H2729 H 0.4242 0.76009 0.3101 0.0
H2730 H 0.41072 0.73091 0.35775 0.0
H2731 H 0.41579 0.71223 0.37946 0.0
H2732 H 0.42231 0.6747 0.34475 0.0
H2733 H 0.4175 0.69322 0.32282 0.0
C2734 C 0.35716 0.73443 0.27801 0.0
C2735 C 0.35587 0.71938 0.2705 0.0
C2736 C 0.36986 0.73824 0.28839 0.0
C2737 C 0.38172 0.72719 0.29114 0.0
C2738 C 0.38036 0.71209 0.28372 0.0
C2739 C 0.36751 0.70819 0.27354 0.0
C2740 C 0.39543 0.73132 0.30192 0.0
C2741 C 0.39884 0.72101 0.31442 0.0
C2742 C 0.40478 0.74554 0.30026 0.0
C2743 C 0.40267 0.75635 0.28662 0.0
C2744 C 0.40337 0.75055 0.27072 0.0
C2745 C 0.40123 0.76076 0.25792 0.0
C2746 C 0.39851 0.77684 0.26087 0.0
C2747 C 0.39796 0.78274 0.27662 0.0
C2748 C 0.40007 0.77258 0.28946 0.0
C2749 C 0.45971 0.73727 0.34581 0.0
C2750 C 0.45964 0.75125 0.35532 0.0
C2751 C 0.44689 0.73327 0.33566 0.0
C2752 C 0.4338 0.74318 0.33478 0.0
C2753 C 0.43374 0.75719 0.34414 0.0
C2754 C 0.4465 0.76114 0.35442 0.0
C2755 C 0.42024 0.739 0.32395 0.0
C2756 C 0.4169 0.7493 0.31145 0.0
C2757 C 0.41112 0.72467 0.32546 0.0
C2758 C 0.4139 0.7135 0.33864 0.0
C2759 C 0.41337 0.71871 0.35474 0.0
C2760 C 0.41617 0.70814 0.36709 0.0
C2761 C 0.41941 0.6923 0.36349 0.0
C2762 C 0.41981 0.68698 0.34753 0.0
C2763 C 0.41704 0.6975 0.33513 0.0
H2764 H 0.42158 0.68414 0.37306 0.0
H2765 H 0.39686 0.78472 0.25094 0.0
H2766 H 0.97859 0.3897 0.99858 0.0
H2767 H 0.98308 0.36691 0.98079 0.0
H2768 H 0.96997 0.39441 0.94002 0.0
H2769 H 0.96598 0.41747 0.95761 0.0
H2770 H 0.95472 0.36408 0.94098 0.0
H2771 H 0.00766 0.38785 0.94543 0.0
H2772 H 0.03138 0.39862 0.95997 0.0
H2773 H 0.03725 0.35349 0.98201 0.0
H2774 H 0.01341 0.34251 0.96777 0.0
H2775 H 0.97897 0.31221 0.87879 0.0
H2776 H 0.97544 0.33512 0.89664 0.0
H2777 H 0.99572 0.30963 0.93573 0.0
H2778 H 0.99973 0.2868 0.91779 0.0
H2779 H 0.00725 0.33893 0.93604 0.0
H2780 H 0.95487 0.31482 0.9324 0.0
H2781 H 0.93077 0.30351 0.91891 0.0
H2782 H 0.92317 0.3483 0.8968 0.0
H2783 H 0.94736 0.35982 0.90999 0.0
C2784 C 0.9769 0.39103 0.98581 0.0
C2785 C 0.97194 0.40548 0.97955 0.0
C2786 C 0.97939 0.37794 0.97567 0.0
C2787 C 0.97691 0.37902 0.95911 0.0
C2788 C 0.97189 0.39335 0.9528 0.0
C2789 C 0.96954 0.40649 0.9629 0.0
C2790 C 0.97935 0.36512 0.94836 0.0
C2791 C 0.96624 0.35868 0.93971 0.0
C2792 C 0.99428 0.35784 0.94714 0.0
C2793 C 0.00866 0.3644 0.95566 0.0
C2794 C 0.01393 0.38026 0.95348 0.0
C2795 C 0.02741 0.3864 0.96165 0.0
C2796 C 0.03579 0.37676 0.97194 0.0
C2797 C 0.03073 0.36095 0.97405 0.0
C2798 C 0.01725 0.35476 0.96592 0.0
C2799 C 0.98266 0.31146 0.89119 0.0
C2800 C 0.98957 0.29767 0.89689 0.0
C2801 C 0.98057 0.32455 0.90141 0.0
C2802 C 0.98508 0.32403 0.9176 0.0
C2803 C 0.99212 0.31031 0.92329 0.0
C2804 C 0.99437 0.29726 0.91303 0.0
C2805 C 0.9826 0.33784 0.92855 0.0
C2806 C 0.9957 0.34427 0.93728 0.0
C2807 C 0.9676 0.34501 0.92999 0.0
C2808 C 0.95302 0.33814 0.92206 0.0
C2809 C 0.94813 0.32222 0.92456 0.0
C2810 C 0.93444 0.31578 0.91698 0.0
C2811 C 0.92547 0.32517 0.90697 0.0
C2812 C 0.93014 0.34104 0.90454 0.0
C2813 C 0.94384 0.34753 0.91208 0.0
H2814 H 0.91487 0.32016 0.90111 0.0
H2815 H 0.04623 0.38153 0.97825 0.0
H2816 H 0.62376 0.77248 0.2334 0.0
H2817 H 0.60212 0.7677 0.25246 0.0
H2818 H 0.63265 0.7847 0.2912 0.0
H2819 H 0.65463 0.78879 0.2723 0.0
H2820 H 0.61664 0.75871 0.29971 0.0
H2821 H 0.60304 0.80769 0.27598 0.0
H2822 H 0.59773 0.82598 0.25401 0.0
H2823 H 0.55864 0.79548 0.23785 0.0
H2824 H 0.56386 0.77687 0.2596 0.0
H2825 H 0.55333 0.76614 0.35637 0.0
H2826 H 0.57565 0.77207 0.33829 0.0
H2827 H 0.54847 0.75185 0.29854 0.0
H2828 H 0.52608 0.74595 0.31648 0.0
H2829 H 0.56304 0.78049 0.29131 0.0
H2830 H 0.57757 0.73121 0.31506 0.0
H2831 H 0.58302 0.71344 0.33744 0.0
H2832 H 0.62057 0.74556 0.35415 0.0
H2833 H 0.6152 0.76364 0.33198 0.0
C2834 C 0.62595 0.77506 0.24599 0.0
C2835 C 0.64095 0.78103 0.2513 0.0
C2836 C 0.61349 0.7725 0.25686 0.0
C2837 C 0.61568 0.77607 0.27323 0.0
C2838 C 0.63066 0.78195 0.2786 0.0
C2839 C 0.64317 0.78441 0.26776 0.0
C2840 C 0.60243 0.77337 0.28478 0.0
C2841 C 0.605 0.76369 0.298 0.0
C2842 C 0.58715 0.77963 0.28242 0.0
C2843 C 0.58394 0.79081 0.26934 0.0
C2844 C 0.59339 0.80481 0.26767 0.0
C2845 C 0.59038 0.81525 0.25526 0.0
C2846 C 0.57788 0.81188 0.24451 0.0
C2847 C 0.56834 0.79807 0.24617 0.0
C2848 C 0.5713 0.78758 0.25854 0.0
C2849 C 0.5521 0.76293 0.34379 0.0
C2850 C 0.53794 0.75553 0.33787 0.0
C2851 C 0.56488 0.76629 0.33349 0.0
C2852 C 0.56374 0.76229 0.31711 0.0
C2853 C 0.54958 0.75503 0.31115 0.0
C2854 C 0.53682 0.75161 0.32144 0.0
C2855 C 0.57725 0.76576 0.30611 0.0
C2856 C 0.57472 0.77559 0.29302 0.0
C2857 C 0.59259 0.75974 0.30866 0.0
C2858 C 0.59587 0.74885 0.32196 0.0
C2859 C 0.5869 0.73455 0.32358 0.0
C2860 C 0.58999 0.72441 0.33622 0.0
C2861 C 0.6021 0.72839 0.34724 0.0
C2862 C 0.61118 0.7425 0.34562 0.0
C2863 C 0.60812 0.75269 0.33301 0.0
H2864 H 0.60448 0.72052 0.35701 0.0
H2865 H 0.57557 0.81997 0.23492 0.0
H2866 H 0.99432 0.11203 0.99507 0.0
H2867 H 0.99133 0.13404 0.97692 0.0
H2868 H 0.04206 0.13527 0.9679 0.0
H2869 H 0.04533 0.11393 0.98693 0.0
H2870 H 0.03289 0.16399 0.97153 0.0
H2871 H 0.01402 0.11959 0.93998 0.0
H2872 H 0.99814 0.09513 0.93346 0.0
H2873 H 0.95486 0.12068 0.93837 0.0
H2874 H 0.97047 0.14526 0.94516 0.0
H2875 H 0.02541 0.21317 0.90244 0.0
H2876 H 0.03 0.18993 0.91891 0.0
H2877 H 0.98339 0.19419 0.94013 0.0
H2878 H 0.9788 0.21759 0.92396 0.0
H2879 H 0.99163 0.16224 0.92879 0.0
H2880 H 0.01207 0.20655 0.96156 0.0
H2881 H 0.02904 0.23059 0.96682 0.0
H2882 H 0.07103 0.20405 0.95748 0.0
H2883 H 0.05428 0.17989 0.95194 0.0
C2884 C 0.0049 0.11707 0.9894 0.0
C2885 C 0.02008 0.11117 0.99254 0.0
C2886 C 0.00313 0.12953 0.9788 0.0
C2887 C 0.01643 0.13616 0.9708 0.0
C2888 C 0.0316 0.1303 0.97385 0.0
C2889 C 0.03342 0.11796 0.98463 0.0
C2890 C 0.01454 0.14954 0.95965 0.0
C2891 C 0.02404 0.16346 0.96202 0.0
C2892 C 0.00288 0.149 0.94731 0.0
C2893 C 0.99342 0.13424 0.94322 0.0
C2894 C 0.00111 0.11997 0.93979 0.0
C2895 C 0.99216 0.10609 0.93603 0.0
C2896 C 0.9755 0.10634 0.93554 0.0
C2897 C 0.96776 0.12049 0.93878 0.0
C2898 C 0.97666 0.13441 0.94256 0.0
C2899 C 0.01614 0.20914 0.9106 0.0
C2900 C 0.00176 0.21722 0.91196 0.0
C2901 C 0.01879 0.1959 0.92 0.0
C2902 C 0.00703 0.19041 0.93072 0.0
C2903 C 0.99258 0.19827 0.9319 0.0
C2904 C 0.99002 0.21166 0.92272 0.0
C2905 C 0.00985 0.17656 0.94085 0.0
C2906 C 0.00052 0.16261 0.93826 0.0
C2907 C 0.02184 0.17697 0.95278 0.0
C2908 C 0.03191 0.19147 0.95615 0.0
C2909 C 0.02491 0.20588 0.96047 0.0
C2910 C 0.03449 0.21952 0.96354 0.0
C2911 C 0.0511 0.21886 0.96244 0.0
C2912 C 0.05816 0.20455 0.95831 0.0
C2913 C 0.04863 0.19088 0.95521 0.0
H2914 H 0.0585 0.22943 0.96482 0.0
H2915 H 0.96859 0.09558 0.93262 0.0
H2916 H 0.37666 0.27416 0.25097 0.0
H2917 H 0.3972 0.27179 0.23022 0.0
H2918 H 0.36091 0.2721 0.19356 0.0
H2919 H 0.34029 0.27464 0.2143 0.0
H2920 H 0.38436 0.24737 0.19019 0.0
H2921 H 0.38115 0.30396 0.198 0.0
H2922 H 0.38099 0.32886 0.21402 0.0
H2923 H 0.42833 0.32058 0.23097 0.0
H2924 H 0.42868 0.29549 0.21523 0.0
H2925 H 0.43846 0.25516 0.12503 0.0
H2926 H 0.41627 0.25881 0.14364 0.0
H2927 H 0.44975 0.27027 0.1818 0.0
H2928 H 0.47191 0.26717 0.16316 0.0
H2929 H 0.42643 0.28965 0.18351 0.0
H2930 H 0.42993 0.23307 0.17779 0.0
H2931 H 0.43073 0.20734 0.16325 0.0
H2932 H 0.38396 0.21436 0.14412 0.0
H2933 H 0.38298 0.24025 0.15839 0.0
C2934 C 0.37308 0.27365 0.23848 0.0
C2935 C 0.35693 0.27458 0.23419 0.0
C2936 C 0.3848 0.27238 0.22667 0.0
C2937 C 0.38053 0.27184 0.2104 0.0
C2938 C 0.3644 0.27252 0.20607 0.0
C2939 C 0.35268 0.27404 0.21788 0.0
C2940 C 0.393 0.27062 0.19795 0.0
C2941 C 0.39344 0.2567 0.1885 0.0
C2942 C 0.40502 0.28264 0.19614 0.0
C2943 C 0.40488 0.29777 0.20555 0.0
C2944 C 0.39147 0.30738 0.20525 0.0
C2945 C 0.39136 0.32154 0.21426 0.0
C2946 C 0.40463 0.32628 0.22354 0.0
C2947 C 0.41805 0.31689 0.22379 0.0
C2948 C 0.41822 0.3027 0.21482 0.0
C2949 C 0.44108 0.25848 0.13738 0.0
C2950 C 0.45693 0.26083 0.14264 0.0
C2951 C 0.42839 0.26049 0.14803 0.0
C2952 C 0.43133 0.26459 0.16419 0.0
C2953 C 0.44716 0.26711 0.1694 0.0
C2954 C 0.45983 0.2653 0.15873 0.0
C2955 C 0.41797 0.26628 0.17574 0.0
C2956 C 0.41735 0.28032 0.18506 0.0
C2957 C 0.40591 0.25425 0.17759 0.0
C2958 C 0.40646 0.23868 0.16901 0.0
C2959 C 0.41987 0.22919 0.17038 0.0
C2960 C 0.42035 0.21456 0.1622 0.0
C2961 C 0.40742 0.20924 0.15273 0.0
C2962 C 0.39398 0.21851 0.15144 0.0
C2963 C 0.39345 0.23316 0.15958 0.0
H2964 H 0.40781 0.19791 0.14641 0.0
H2965 H 0.40452 0.33726 0.23051 0.0
H2966 H 0.54545 0.39915 0.00851 0.0
H2967 H 0.54201 0.37721 0.02711 0.0
H2968 H 0.49095 0.38221 0.02588 0.0
H2969 H 0.49433 0.40455 0.00774 0.0
H2970 H 0.50117 0.37859 0.05593 0.0
H2971 H 0.5088 0.3523 0.00503 0.0
H2972 H 0.52268 0.34646 0.97964 0.0
H2973 H 0.56374 0.33205 0.00578 0.0
H2974 H 0.55018 0.33801 0.03134 0.0
H2975 H 0.47576 0.30451 0.08753 0.0
H2976 H 0.48102 0.32714 0.0702 0.0
H2977 H 0.53171 0.32122 0.07513 0.0
H2978 H 0.52656 0.29845 0.09247 0.0
H2979 H 0.52283 0.32555 0.04389 0.0
H2980 H 0.5146 0.35097 0.09488 0.0
H2981 H 0.50046 0.35664 0.12016 0.0
H2982 H 0.46022 0.37254 0.09371 0.0
H2983 H 0.47404 0.36676 0.06825 0.0
C2984 C 0.53349 0.39567 0.0123 0.0
C2985 C 0.52016 0.40359 0.00661 0.0
C2986 C 0.53154 0.38302 0.02281 0.0
C2987 C 0.51621 0.37796 0.02774 0.0
C2988 C 0.50289 0.38589 0.02218 0.0
C2989 C 0.50483 0.39856 0.01169 0.0
C2990 C 0.51404 0.36447 0.03882 0.0
C2991 C 0.50574 0.36694 0.05321 0.0
C2992 C 0.52037 0.34938 0.03545 0.0
C2993 C 0.52854 0.34576 0.0201 0.0
C2994 C 0.52084 0.34801 0.00536 0.0
C2995 C 0.52864 0.34465 0.99094 0.0
C2996 C 0.5441 0.33893 0.99109 0.0
C2997 C 0.55177 0.3365 0.00568 0.0
C2998 C 0.54403 0.33986 0.02014 0.0
C2999 C 0.48804 0.30802 0.08498 0.0
C3000 C 0.50075 0.29969 0.09141 0.0
C3001 C 0.49102 0.32101 0.07511 0.0
C3002 C 0.50676 0.32595 0.07151 0.0
C3003 C 0.51948 0.31761 0.07781 0.0
C3004 C 0.51651 0.30464 0.08775 0.0
C3005 C 0.50985 0.33966 0.06092 0.0
C3006 C 0.51833 0.33722 0.04663 0.0
C3007 C 0.50364 0.35477 0.06436 0.0
C3008 C 0.49531 0.35829 0.07965 0.0
C3009 C 0.50269 0.35555 0.09444 0.0
C3010 C 0.49474 0.35881 0.10881 0.0
C3011 C 0.47944 0.36491 0.10854 0.0
C3012 C 0.47207 0.3678 0.0939 0.0
C3013 C 0.47996 0.36455 0.0795 0.0
H3014 H 0.47331 0.36743 0.11967 0.0
H3015 H 0.55012 0.33634 0.97991 0.0
H3016 H 0.65143 0.2309 0.22938 0.0
H3017 H 0.62976 0.23402 0.21011 0.0
H3018 H 0.59641 0.23932 0.24909 0.0
H3019 H 0.61802 0.23607 0.26843 0.0
H3020 H 0.58515 0.21867 0.22467 0.0
H3021 H 0.60928 0.27128 0.2303 0.0
H3022 H 0.63161 0.29111 0.23014 0.0
H3023 H 0.64073 0.2799 0.18062 0.0
H3024 H 0.61857 0.25982 0.18055 0.0
H3025 H 0.51971 0.24965 0.18409 0.0
H3026 H 0.54202 0.24544 0.20211 0.0
H3027 H 0.57448 0.24625 0.16195 0.0
H3028 H 0.5522 0.2509 0.14383 0.0
H3029 H 0.58686 0.26301 0.18624 0.0
H3030 H 0.56273 0.21108 0.17988 0.0
H3031 H 0.54086 0.19072 0.17961 0.0
H3032 H 0.53234 0.19971 0.22967 0.0
H3033 H 0.55402 0.22028 0.23019 0.0
C3034 C 0.63946 0.23262 0.23383 0.0
C3035 C 0.63641 0.23328 0.2504 0.0
C3036 C 0.62713 0.23449 0.22283 0.0
C3037 C 0.61153 0.23701 0.2282 0.0
C3038 C 0.60839 0.23742 0.24472 0.0
C3039 C 0.62074 0.23568 0.25574 0.0
C3040 C 0.59848 0.23931 0.21658 0.0
C3041 C 0.5854 0.22846 0.21638 0.0
C3042 C 0.5991 0.25181 0.20547 0.0
C3043 C 0.61237 0.26393 0.20547 0.0
C3044 C 0.61613 0.27295 0.21942 0.0
C3045 C 0.62874 0.28425 0.21936 0.0
C3046 C 0.63761 0.28674 0.20539 0.0
C3047 C 0.63386 0.27795 0.19144 0.0
C3048 C 0.62127 0.26661 0.19144 0.0
C3049 C 0.53158 0.24892 0.17905 0.0
C3050 C 0.53417 0.25055 0.1625 0.0
C3051 C 0.54433 0.24642 0.18938 0.0
C3052 C 0.5599 0.24526 0.18336 0.0
C3053 C 0.56256 0.24706 0.16686 0.0
C3054 C 0.54981 0.24968 0.15651 0.0
C3055 C 0.5734 0.24242 0.19436 0.0
C3056 C 0.58659 0.25316 0.19446 0.0
C3057 C 0.57294 0.22973 0.20529 0.0
C3058 C 0.55992 0.21733 0.20504 0.0
C3059 C 0.55612 0.2088 0.1908 0.0
C3060 C 0.54377 0.19721 0.19061 0.0
C3061 C 0.53519 0.19395 0.2046 0.0
C3062 C 0.53898 0.20225 0.21883 0.0
C3063 C 0.55131 0.21387 0.21909 0.0
H3064 H 0.52563 0.18497 0.20442 0.0
H3065 H 0.64737 0.2955 0.20537 0.0
H3066 H 0.46907 0.09085 0.04423 0.0
H3067 H 0.47414 0.11417 0.06163 0.0
H3068 H 0.4837 0.1428 0.02013 0.0
H3069 H 0.47869 0.11951 0.00265 0.0
H3070 H 0.5052 0.14938 0.04319 0.0
H3071 H 0.44809 0.14445 0.04 0.0
H3072 H 0.42171 0.13072 0.04188 0.0
H3073 H 0.42945 0.12286 0.09196 0.0
H3074 H 0.45599 0.13635 0.09033 0.0
H3075 H 0.49913 0.22513 0.08123 0.0
H3076 H 0.49483 0.20159 0.06399 0.0
H3077 H 0.48657 0.17288 0.10568 0.0
H3078 H 0.49068 0.1964 0.12303 0.0
H3079 H 0.46451 0.16633 0.0826 0.0
H3080 H 0.5217 0.17159 0.08564 0.0
H3081 H 0.54794 0.18556 0.08355 0.0
H3082 H 0.53982 0.19313 0.03348 0.0
H3083 H 0.51342 0.17939 0.03532 0.0
C3084 C 0.47216 0.10214 0.03881 0.0
C3085 C 0.47339 0.10337 0.02206 0.0
C3086 C 0.47506 0.11545 0.04876 0.0
C3087 C 0.47908 0.13028 0.04217 0.0
C3088 C 0.48061 0.13148 0.02547 0.0
C3089 C 0.47778 0.11815 0.01551 0.0
C3090 C 0.48166 0.14455 0.05268 0.0
C3091 C 0.49622 0.15321 0.05166 0.0
C3092 C 0.47007 0.14935 0.06397 0.0
C3093 C 0.45409 0.14128 0.065 0.0
C3094 C 0.44422 0.13969 0.05139 0.0
C3095 C 0.42923 0.13197 0.05241 0.0
C3096 C 0.42392 0.12589 0.06702 0.0
C3097 C 0.43359 0.12755 0.08065 0.0
C3098 C 0.4486 0.13525 0.07968 0.0
C3099 C 0.49642 0.21381 0.08675 0.0
C3100 C 0.4953 0.21263 0.10352 0.0
C3101 C 0.49403 0.20035 0.07688 0.0
C3102 C 0.49055 0.18545 0.08357 0.0
C3103 C 0.48927 0.18426 0.10028 0.0
C3104 C 0.49167 0.19771 0.11017 0.0
C3105 C 0.48805 0.17114 0.07312 0.0
C3106 C 0.47349 0.16248 0.07414 0.0
C3107 C 0.49962 0.16638 0.0618 0.0
C3108 C 0.51552 0.17459 0.06065 0.0
C3109 C 0.52545 0.17634 0.07421 0.0
C3110 C 0.54037 0.1842 0.07306 0.0
C3111 C 0.54553 0.19026 0.0584 0.0
C3112 C 0.5358 0.18844 0.04483 0.0
C3113 C 0.52087 0.18061 0.04592 0.0
H3114 H 0.55708 0.19634 0.05753 0.0
H3115 H 0.41231 0.11991 0.0678 0.0
H3116 H 0.2402 0.38636 0.73114 0.0
H3117 H 0.25976 0.40821 0.735 0.0
H3118 H 0.29714 0.37811 0.71812 0.0
H3119 H 0.27782 0.3559 0.71515 0.0
H3120 H 0.30738 0.39474 0.74286 0.0
H3121 H 0.28073 0.40692 0.69416 0.0
H3122 H 0.25776 0.41151 0.67656 0.0
H3123 H 0.24429 0.45072 0.70671 0.0
H3124 H 0.26706 0.44622 0.72463 0.0
H3125 H 0.36413 0.4583 0.72816 0.0
H3126 H 0.34515 0.43578 0.72433 0.0
H3127 H 0.30861 0.4622 0.74827 0.0
H3128 H 0.32749 0.48471 0.75224 0.0
H3129 H 0.29847 0.44742 0.71933 0.0
H3130 H 0.32577 0.43441 0.76805 0.0
H3131 H 0.34942 0.42967 0.78467 0.0
H3132 H 0.36255 0.39169 0.75275 0.0
H3133 H 0.33908 0.39636 0.73581 0.0
C3134 C 0.25261 0.38429 0.72844 0.0
C3135 C 0.2574 0.36935 0.72277 0.0
C3136 C 0.26376 0.39688 0.73045 0.0
C3137 C 0.27989 0.39489 0.72657 0.0
C3138 C 0.28475 0.37996 0.7211 0.0
C3139 C 0.27364 0.36731 0.71924 0.0
C3140 C 0.29171 0.40835 0.72837 0.0
C3141 C 0.30552 0.40618 0.73751 0.0
C3142 C 0.28921 0.42337 0.72159 0.0
C3143 C 0.27552 0.42614 0.71082 0.0
C3144 C 0.2728 0.41644 0.69711 0.0
C3145 C 0.25982 0.41904 0.68706 0.0
C3146 C 0.24954 0.43137 0.69054 0.0
C3147 C 0.25225 0.44116 0.70405 0.0
C3148 C 0.26519 0.4386 0.71414 0.0
C3149 C 0.35206 0.45931 0.73262 0.0
C3150 C 0.34732 0.47327 0.74053 0.0
C3151 C 0.34126 0.44643 0.73046 0.0
C3152 C 0.32552 0.44734 0.73609 0.0
C3153 C 0.32071 0.4613 0.74384 0.0
C3154 C 0.33154 0.47411 0.74615 0.0
C3155 C 0.31401 0.43377 0.73384 0.0
C3156 C 0.30029 0.43594 0.72461 0.0
C3157 C 0.31669 0.41871 0.74036 0.0
C3158 C 0.33076 0.41585 0.75057 0.0
C3159 C 0.33378 0.42514 0.7645 0.0
C3160 C 0.34713 0.42245 0.77399 0.0
C3161 C 0.35751 0.41042 0.76974 0.0
C3162 C 0.35452 0.40103 0.75601 0.0
C3163 C 0.34118 0.40368 0.74647 0.0
H3164 H 0.36784 0.40835 0.77711 0.0
H3165 H 0.23951 0.43337 0.68274 0.0
H3166 H 0.27406 0.6723 0.79301 0.0
H3167 H 0.29413 0.65216 0.78982 0.0
H3168 H 0.25786 0.61831 0.7729 0.0
H3169 H 0.23754 0.63819 0.77679 0.0
H3170 H 0.27729 0.60476 0.7933 0.0
H3171 H 0.28395 0.63726 0.74693 0.0
H3172 H 0.28815 0.6623 0.73238 0.0
H3173 H 0.33324 0.67056 0.7561 0.0
H3174 H 0.32921 0.64567 0.77095 0.0
H3175 H 0.32748 0.54814 0.75795 0.0
H3176 H 0.30802 0.56868 0.7623 0.0
H3177 H 0.34511 0.60048 0.78126 0.0
H3178 H 0.36479 0.57999 0.77678 0.0
H3179 H 0.32573 0.61528 0.76042 0.0
H3180 H 0.3191 0.58218 0.80632 0.0
H3181 H 0.31476 0.55693 0.82046 0.0
H3182 H 0.26938 0.54956 0.79709 0.0
H3183 H 0.27354 0.57467 0.78264 0.0
C3184 C 0.27029 0.66052 0.78881 0.0
C3185 C 0.25416 0.65688 0.78514 0.0
C3186 C 0.28183 0.64907 0.7868 0.0
C3187 C 0.27755 0.63379 0.7809 0.0
C3188 C 0.26145 0.63005 0.77741 0.0
C3189 C 0.24987 0.64147 0.77949 0.0
C3190 C 0.28984 0.6217 0.77843 0.0
C3191 C 0.28778 0.60699 0.78594 0.0
C3192 C 0.30372 0.62474 0.76914 0.0
C3193 C 0.3062 0.63968 0.76016 0.0
C3194 C 0.29471 0.64448 0.74913 0.0
C3195 C 0.29706 0.65863 0.74082 0.0
C3196 C 0.31093 0.66804 0.74335 0.0
C3197 C 0.32249 0.66328 0.75417 0.0
C3198 C 0.32018 0.64914 0.76252 0.0
C3199 C 0.33154 0.55949 0.76304 0.0
C3200 C 0.34769 0.5624 0.76708 0.0
C3201 C 0.32037 0.5712 0.76558 0.0
C3202 C 0.32508 0.58603 0.7723 0.0
C3203 C 0.34123 0.58909 0.77611 0.0
C3204 C 0.35244 0.57736 0.77357 0.0
C3205 C 0.31312 0.59834 0.77522 0.0
C3206 C 0.31526 0.61308 0.7678 0.0
C3207 C 0.29927 0.59531 0.78454 0.0
C3208 C 0.2967 0.58024 0.79329 0.0
C3209 C 0.30825 0.57512 0.80411 0.0
C3210 C 0.30581 0.56084 0.81219 0.0
C3211 C 0.29182 0.55163 0.80965 0.0
C3212 C 0.28022 0.5567 0.79904 0.0
C3213 C 0.2826 0.57096 0.79091 0.0
H3214 H 0.28996 0.54058 0.81592 0.0
H3215 H 0.31273 0.67899 0.7369 0.0
H3216 H 0.91746 0.46188 0.47518 0.0
H3217 H 0.89458 0.44444 0.48196 0.0
H3218 H 0.86415 0.48482 0.48292 0.0
H3219 H 0.88708 0.50232 0.47653 0.0
H3220 H 0.85774 0.46711 0.50749 0.0
H3221 H 0.86423 0.45711 0.45105 0.0
H3222 H 0.87874 0.44988 0.4264 0.0
H3223 H 0.88787 0.40402 0.44545 0.0
H3224 H 0.87359 0.41106 0.47032 0.0
H3225 H 0.78238 0.4262 0.5025 0.0
H3226 H 0.8063 0.44252 0.49676 0.0
H3227 H 0.83545 0.40171 0.50228 0.0
H3228 H 0.81156 0.38524 0.50801 0.0
H3229 H 0.84295 0.41883 0.47507 0.0
H3230 H 0.8352 0.42912 0.53132 0.0
H3231 H 0.81995 0.43671 0.5554 0.0
H3232 H 0.81231 0.48264 0.53578 0.0
H3233 H 0.82733 0.47525 0.51147 0.0
C3234 C 0.90585 0.46699 0.47674 0.0
C3235 C 0.90402 0.48343 0.47531 0.0
C3236 C 0.89278 0.45702 0.48058 0.0
C3237 C 0.87758 0.46328 0.48276 0.0
C3238 C 0.87576 0.47972 0.48133 0.0
C3239 C 0.88885 0.4897 0.47768 0.0
C3240 C 0.86359 0.45279 0.48676 0.0
C3241 C 0.85441 0.45667 0.50027 0.0
C3242 C 0.85942 0.43894 0.47757 0.0
C3243 C 0.86798 0.43467 0.46261 0.0
C3244 C 0.86944 0.44553 0.45003 0.0
C3245 C 0.8776 0.44146 0.43601 0.0
C3246 C 0.88426 0.42652 0.43438 0.0
C3247 C 0.88273 0.4156 0.44674 0.0
C3248 C 0.87459 0.41961 0.4608 0.0
C3249 C 0.79388 0.42068 0.50254 0.0
C3250 C 0.79508 0.40442 0.50575 0.0
C3251 C 0.80753 0.43004 0.49931 0.0
C3252 C 0.82264 0.42334 0.49922 0.0
C3253 C 0.82389 0.4071 0.50232 0.0
C3254 C 0.81023 0.39774 0.50564 0.0
C3255 C 0.8371 0.43327 0.49568 0.0
C3256 C 0.84635 0.42926 0.48228 0.0
C3257 C 0.84125 0.44708 0.50487 0.0
C3258 C 0.83227 0.45157 0.51951 0.0
C3259 C 0.83016 0.4408 0.53209 0.0
C3260 C 0.82158 0.44507 0.54578 0.0
C3261 C 0.81513 0.46013 0.5471 0.0
C3262 C 0.81729 0.47097 0.53473 0.0
C3263 C 0.82586 0.46675 0.521 0.0
H3264 H 0.80849 0.46342 0.55772 0.0
H3265 H 0.89058 0.42339 0.42351 0.0
H3266 H 0.76143 0.87843 0.76692 0.0
H3267 H 0.74151 0.89878 0.76437 0.0
H3268 H 0.70445 0.86484 0.77798 0.0
H3269 H 0.72417 0.84426 0.77982 0.0
H3270 H 0.69467 0.88199 0.75387 0.0
H3271 H 0.71971 0.89316 0.80473 0.0
H3272 H 0.74224 0.89865 0.82327 0.0
H3273 H 0.75528 0.94084 0.79753 0.0
H3274 H 0.73294 0.93549 0.77869 0.0
H3275 H 0.63502 0.93795 0.77185 0.0
H3276 H 0.65464 0.91722 0.77406 0.0
H3277 H 0.69173 0.95003 0.75812 0.0
H3278 H 0.67228 0.97084 0.75603 0.0
H3279 H 0.70127 0.93336 0.78365 0.0
H3280 H 0.67596 0.92187 0.73273 0.0
H3281 H 0.65316 0.91628 0.71456 0.0
H3282 H 0.64026 0.87449 0.74101 0.0
H3283 H 0.66287 0.87996 0.75948 0.0
C3284 C 0.74902 0.87524 0.76918 0.0
C3285 C 0.74442 0.85972 0.77367 0.0
C3286 C 0.73766 0.88693 0.76789 0.0
C3287 C 0.72151 0.8834 0.77124 0.0
C3288 C 0.71685 0.86787 0.77543 0.0
C3289 C 0.72817 0.85615 0.77663 0.0
C3290 C 0.70946 0.89589 0.77038 0.0
C3291 C 0.69601 0.89313 0.76055 0.0
C3292 C 0.71134 0.91056 0.77887 0.0
C3293 C 0.72475 0.91384 0.79021 0.0
C3294 C 0.72746 0.90355 0.80295 0.0
C3295 C 0.74018 0.90664 0.81352 0.0
C3296 C 0.75021 0.92006 0.81155 0.0
C3297 C 0.74751 0.93044 0.79903 0.0
C3298 C 0.73481 0.92739 0.78841 0.0
C3299 C 0.64735 0.94076 0.76882 0.0
C3300 C 0.65207 0.95604 0.76372 0.0
C3301 C 0.65854 0.92888 0.77004 0.0
C3302 C 0.67461 0.93205 0.7661 0.0
C3303 C 0.67938 0.94733 0.7612 0.0
C3304 C 0.66822 0.9592 0.75997 0.0
C3305 C 0.68652 0.91946 0.76712 0.0
C3306 C 0.69994 0.9222 0.77699 0.0
C3307 C 0.68457 0.90476 0.75873 0.0
C3308 C 0.67101 0.90141 0.74758 0.0
C3309 C 0.66819 0.91156 0.73475 0.0
C3310 C 0.65531 0.9084 0.72438 0.0
C3311 C 0.64524 0.89506 0.72666 0.0
C3312 C 0.64805 0.88483 0.73928 0.0
C3313 C 0.66091 0.88794 0.74969 0.0
H3314 H 0.63528 0.89264 0.71862 0.0
H3315 H 0.76005 0.92244 0.81975 0.0
H3316 H 0.61173 0.52226 0.95582 0.0
H3317 H 0.63503 0.54022 0.95983 0.0
H3318 H 0.62611 0.54134 0.01077 0.0
H3319 H 0.60261 0.52365 0.00681 0.0
H3320 H 0.63382 0.5709 0.99929 0.0
H3321 H 0.6544 0.51828 0.99582 0.0
H3322 H 0.65822 0.49187 0.98341 0.0
H3323 H 0.67962 0.51371 0.94218 0.0
H3324 H 0.67572 0.54028 0.95426 0.0
H3325 H 0.70918 0.6002 0.02743 0.0
H3326 H 0.68507 0.58383 0.02205 0.0
H3327 H 0.69642 0.58267 0.97161 0.0
H3328 H 0.72067 0.59891 0.97688 0.0
H3329 H 0.68728 0.55361 0.98198 0.0
H3330 H 0.66751 0.60621 0.98564 0.0
H3331 H 0.66365 0.63268 0.99789 0.0
H3332 H 0.64069 0.61112 0.03846 0.0
H3333 H 0.64462 0.58449 0.02655 0.0
C3334 C 0.61463 0.52648 0.96785 0.0
C3335 C 0.60539 0.52148 0.98101 0.0
C3336 C 0.628 0.53664 0.97013 0.0
C3337 C 0.63239 0.54196 0.98562 0.0
C3338 C 0.62296 0.53732 0.99873 0.0
C3339 C 0.60962 0.52712 0.99646 0.0
C3340 C 0.64698 0.55212 0.98821 0.0
C3341 C 0.64554 0.56707 0.99568 0.0
C3342 C 0.6622 0.54723 0.98313 0.0
C3343 C 0.66461 0.53127 0.97587 0.0
C3344 C 0.6598 0.51745 0.98405 0.0
C3345 C 0.662 0.50245 0.97709 0.0
C3346 C 0.66911 0.50111 0.962 0.0
C3347 C 0.67408 0.51477 0.95386 0.0
C3348 C 0.67189 0.5298 0.96076 0.0
C3349 C 0.70657 0.59647 0.01518 0.0
C3350 C 0.71684 0.60089 0.00258 0.0
C3351 C 0.69274 0.58717 0.01213 0.0
C3352 C 0.68886 0.58219 0.99641 0.0
C3353 C 0.69918 0.58642 0.98382 0.0
C3354 C 0.71301 0.59572 0.98686 0.0
C3355 C 0.67414 0.5724 0.99314 0.0
C3356 C 0.67556 0.5575 0.98554 0.0
C3357 C 0.6589 0.57734 0.99808 0.0
C3358 C 0.6565 0.59334 0.00527 0.0
C3359 C 0.66176 0.6071 0.99723 0.0
C3360 C 0.65954 0.62214 0.00411 0.0
C3361 C 0.65197 0.62358 0.01896 0.0
C3362 C 0.64657 0.60999 0.02696 0.0
C3363 C 0.64878 0.59492 0.02015 0.0
H3364 H 0.65026 0.63524 0.02426 0.0
H3365 H 0.67081 0.48949 0.95663 0.0
H3366 H 0.21501 0.65779 0.21486 0.0
H3367 H 0.1974 0.63472 0.21963 0.0
H3368 H 0.23814 0.60699 0.23099 0.0
H3369 H 0.25595 0.62985 0.22545 0.0
H3370 H 0.21813 0.59015 0.21259 0.0
H3371 H 0.21342 0.62138 0.26053 0.0
H3372 H 0.20895 0.64548 0.27694 0.0
H3373 H 0.16123 0.64744 0.25848 0.0
H3374 H 0.1655 0.62346 0.24177 0.0
H3375 H 0.1722 0.52738 0.24891 0.0
H3376 H 0.19082 0.55001 0.24502 0.0
H3377 H 0.15253 0.57727 0.2264 0.0
H3378 H 0.13383 0.55467 0.23013 0.0
H3379 H 0.17185 0.59386 0.24944 0.0
H3380 H 0.17759 0.56242 0.20095 0.0
H3381 H 0.18257 0.53788 0.18541 0.0
H3382 H 0.22922 0.53583 0.20644 0.0
H3383 H 0.22442 0.56025 0.22229 0.0
C3384 C 0.22027 0.64675 0.2182 0.0
C3385 C 0.23692 0.64569 0.21977 0.0
C3386 C 0.21015 0.63361 0.22112 0.0
C3387 C 0.21642 0.61918 0.22591 0.0
C3388 C 0.23303 0.61803 0.22739 0.0
C3389 C 0.24318 0.63115 0.22436 0.0
C3390 C 0.20563 0.60526 0.22914 0.0
C3391 C 0.20816 0.59091 0.22084 0.0
C3392 C 0.19247 0.60629 0.23973 0.0
C3393 C 0.18984 0.6207 0.24978 0.0
C3394 C 0.20202 0.62702 0.25987 0.0
C3395 C 0.19951 0.64064 0.26925 0.0
C3396 C 0.18483 0.64801 0.26872 0.0
C3397 C 0.1726 0.64173 0.25885 0.0
C3398 C 0.17505 0.62812 0.24944 0.0
C3399 C 0.16773 0.53819 0.244 0.0
C3400 C 0.15155 0.53923 0.23979 0.0
C3401 C 0.1784 0.55108 0.24175 0.0
C3402 C 0.17304 0.56525 0.23535 0.0
C3403 C 0.15687 0.56641 0.23135 0.0
C3404 C 0.14623 0.55347 0.23343 0.0
C3405 C 0.18432 0.57888 0.2328 0.0
C3406 C 0.18187 0.59314 0.24124 0.0
C3407 C 0.19764 0.57771 0.22249 0.0
C3408 C 0.20057 0.56307 0.21293 0.0
C3409 C 0.18885 0.55666 0.20237 0.0
C3410 C 0.19166 0.54279 0.19348 0.0
C3411 C 0.20619 0.53527 0.19498 0.0
C3412 C 0.21796 0.54165 0.20532 0.0
C3413 C 0.21521 0.55551 0.21425 0.0
H3414 H 0.20834 0.52454 0.18809 0.0
H3415 H 0.18291 0.65855 0.27599 0.0
H3416 H 0.9116 0.52658 0.00566 0.0
H3417 H 0.88977 0.54411 0.99954 0.0
H3418 H 0.87276 0.54044 0.04819 0.0
H3419 H 0.89454 0.52279 0.05436 0.0
H3420 H 0.84858 0.53636 0.02541 0.0
H3421 H 0.89171 0.57332 0.0378 0.0
H3422 H 0.91901 0.58498 0.03573 0.0
H3423 H 0.9113 0.59439 0.98596 0.0
H3424 H 0.88401 0.58257 0.98767 0.0
H3425 H 0.79414 0.59913 0.0226 0.0
H3426 H 0.81626 0.58249 0.0299 0.0
H3427 H 0.83573 0.58696 0.98226 0.0
H3428 H 0.8137 0.60371 0.97488 0.0
H3429 H 0.85874 0.59086 0.00521 0.0
H3430 H 0.81603 0.55341 0.99246 0.0
H3431 H 0.78881 0.54151 0.99419 0.0
H3432 H 0.79576 0.53274 0.04422 0.0
H3433 H 0.82297 0.54481 0.04284 0.0
C3434 C 0.90317 0.52947 0.01503 0.0
C3435 C 0.90476 0.52335 0.03049 0.0
C3436 C 0.89078 0.53956 0.01155 0.0
C3437 C 0.87974 0.54365 0.02345 0.0
C3438 C 0.8812 0.53745 0.03886 0.0
C3439 C 0.89368 0.52747 0.04239 0.0
C3440 C 0.86655 0.55426 0.01972 0.0
C3441 C 0.85077 0.54837 0.02123 0.0
C3442 C 0.86947 0.56977 0.0139 0.0
C3443 C 0.88587 0.57691 0.01283 0.0
C3444 C 0.89588 0.57775 0.02638 0.0
C3445 C 0.91134 0.58441 0.02528 0.0
C3446 C 0.9169 0.59038 0.01071 0.0
C3447 C 0.90698 0.58974 0.99723 0.0
C3448 C 0.89151 0.58307 0.99826 0.0
C3449 C 0.80313 0.5966 0.01367 0.0
C3450 C 0.80212 0.6027 0.99813 0.0
C3451 C 0.81573 0.58704 0.01785 0.0
C3452 C 0.82754 0.58337 0.00657 0.0
C3453 C 0.82672 0.58964 0.99114 0.0
C3454 C 0.81409 0.59916 0.98693 0.0
C3455 C 0.84075 0.57295 0.01086 0.0
C3456 C 0.85653 0.57887 0.00944 0.0
C3457 C 0.83783 0.55745 0.01671 0.0
C3458 C 0.82148 0.55018 0.01759 0.0
C3459 C 0.81171 0.54908 0.00387 0.0
C3460 C 0.79629 0.54227 0.00478 0.0
C3461 C 0.79054 0.53641 0.01932 0.0
C3462 C 0.80022 0.53731 0.03297 0.0
C3463 C 0.81565 0.54412 0.03213 0.0
H3464 H 0.7786 0.53114 0.02 0.0
H3465 H 0.92887 0.59554 0.00989 0.0
H3466 H 0.08774 0.97507 0.02787 0.0
H3467 H 0.11083 0.95801 0.02649 0.0
H3468 H 0.14138 0.9988 0.01602 0.0
H3469 H 0.11837 0.01584 0.01725 0.0
H3470 H 0.14854 0.97438 0.9972 0.0
H3471 H 0.13955 0.98256 0.05377 0.0
H3472 H 0.12369 0.98215 0.07868 0.0
H3473 H 0.11613 0.9316 0.07344 0.0
H3474 H 0.13177 0.93175 0.04837 0.0
H3475 H 0.22427 0.94476 0.014 0.0
H3476 H 0.19985 0.95974 0.01502 0.0
H3477 H 0.17234 0.91658 0.02401 0.0
H3478 H 0.19679 0.90149 0.02326 0.0
H3479 H 0.16277 0.94079 0.04299 0.0
H3480 H 0.17279 0.93256 0.98692 0.0
H3481 H 0.18884 0.93309 0.96215 0.0
H3482 H 0.1946 0.98387 0.96652 0.0
H3483 H 0.17876 0.98362 0.99145 0.0
C3484 C 0.0994 0.98038 0.02532 0.0
C3485 C 0.10125 0.99679 0.02267 0.0
C3486 C 0.11257 0.97064 0.02455 0.0
C3487 C 0.12787 0.97716 0.02134 0.0
C3488 C 0.12969 0.9935 0.01848 0.0
C3489 C 0.11652 0.00322 0.01914 0.0
C3490 C 0.14204 0.96705 0.021 0.0
C3491 C 0.15174 0.96717 0.00728 0.0
C3492 C 0.146 0.95732 0.03399 0.0
C3493 C 0.13668 0.9572 0.04911 0.0
C3494 C 0.1344 0.97138 0.05787 0.0
C3495 C 0.12547 0.97119 0.07202 0.0
C3496 C 0.11887 0.95686 0.07761 0.0
C3497 C 0.12123 0.94269 0.06908 0.0
C3498 C 0.13013 0.94282 0.05491 0.0
C3499 C 0.21304 0.93843 0.01623 0.0
C3500 C 0.21247 0.92191 0.01846 0.0
C3501 C 0.19908 0.94702 0.01675 0.0
C3502 C 0.18424 0.93924 0.01934 0.0
C3503 C 0.18366 0.9228 0.02193 0.0
C3504 C 0.19764 0.9142 0.02146 0.0
C3505 C 0.16936 0.9483 0.01927 0.0
C3506 C 0.15952 0.94795 0.03288 0.0
C3507 C 0.16528 0.95785 0.0062 0.0
C3508 C 0.1747 0.95805 0.99113 0.0
C3509 C 0.17757 0.94383 0.98266 0.0
C3510 C 0.18662 0.94408 0.96858 0.0
C3511 C 0.19277 0.9585 0.96278 0.0
C3512 C 0.18984 0.97271 0.97103 0.0
C3513 C 0.18082 0.97252 0.98513 0.0
H3514 H 0.19977 0.95867 0.95188 0.0
H3515 H 0.11195 0.95674 0.08858 0.0
loop_
_geom_bond_atom_site_label_1
_geom_bond_atom_site_label_2
_geom_bond_distance
_geom_bond_site_symmetry_2
_ccdc_geom_bond_type
C0 C1 1.387 1_556 S
C0 C4 1.345 1_556 S
C0 H42 1.002 . S
C1 C0 1.387 1_554 S
C1 C2 1.414 . S
C2 C1 1.414 . S
C2 H58 0.947 . S
C2 C59 1.392 . S
C3 C4 1.391 . S
C3 C7 1.397 . S
C3 C59 1.419 . S
C4 C0 1.345 1_554 S
C4 C3 1.391 . S
C4 C5 1.399 . S
C5 C4 1.399 . S
C5 C8 1.396 . S
C5 C17 1.453 . S
C5 C18 1.684 1_554 S
H6 C30 0.948 1_565 S
C7 C3 1.397 . S
C7 C8 1.394 . S
C7 C26 1.723 . S
C8 C5 1.396 . S
C8 C7 1.394 . S
C8 C38 1.723 . S
H9 C32 0.947 . S
H10 C33 0.948 . S
H11 C39 0.982 . S
H12 C40 0.982 1_565 S
H13 C40 0.978 . S
H14 C40 0.988 1_565 S
H15 C39 0.979 . S
H16 C39 0.977 . S
C17 C5 1.453 . S
C17 H46 0.982 . S
C17 H47 0.979 . S
C17 H48 0.977 . S
C18 C5 1.684 1_556 S
C18 H43 0.979 . S
C18 H44 0.980 . S
C18 H45 0.983 . S
C19 C20 1.391 . S
C19 C24 1.391 1_655 S
C19 H49 0.948 . S
C20 C19 1.391 . S
C20 C21 1.391 1_655 S
C21 C20 1.391 1_455 S
C21 C22 1.392 . S
C21 H50 0.947 . S
C22 C21 1.392 . S
C22 C23 1.419 . S
C22 H51 0.948 . S
C23 C22 1.419 . S
C23 C24 1.391 . S
C23 C27 1.397 . S
C24 C19 1.391 1_455 S
C24 C23 1.391 . S
C24 C25 1.399 . S
C25 C24 1.399 . S
C25 C26 1.396 . S
C25 C28 1.453 . S
C25 C29 1.684 1_455 S
C26 C7 1.723 . S
C26 C25 1.396 . S
C26 C27 1.394 . S
C27 C23 1.397 . S
C27 C26 1.394 . S
C27 C37 1.723 . S
C28 C25 1.453 . S
C28 H52 0.982 . S
C28 H53 0.979 1_455 S
C28 H54 0.977 . S
C29 C25 1.684 1_655 S
C29 H55 0.979 . S
C29 H56 0.980 . S
C29 H57 0.983 . S
C30 H6 0.948 1_545 S
C30 C31 1.391 . S
C30 C35 1.391 . S
C31 C30 1.391 . S
C31 C32 1.391 . S
C32 H9 0.947 . S
C32 C31 1.391 . S
C32 C33 1.392 . S
C33 H10 0.948 . S
C33 C32 1.392 . S
C33 C34 1.419 . S
C34 C33 1.419 . S
C34 C35 1.391 . S
C34 C38 1.397 . S
C35 C30 1.391 . S
C35 C34 1.391 . S
C35 C36 1.399 . S
C36 C35 1.399 . S
C36 C37 1.396 . S
C36 C39 1.453 . S
C36 C40 1.677 . S
C37 C27 1.723 . S
C37 C36 1.396 . S
C37 C38 1.394 . S
C38 C8 1.723 . S
C38 C34 1.397 . S
C38 C37 1.394 . S
C39 H11 0.982 . S
C39 H15 0.979 . S
C39 H16 0.977 . S
C39 C36 1.453 . S
C40 H12 0.982 1_545 S
C40 H13 0.978 . S
C40 H14 0.988 1_545 S
C40 C36 1.677 . S
H41 C59 0.948 . S
H42 C0 1.002 . S
H43 C18 0.979 . S
H44 C18 0.980 . S
H45 C18 0.983 . S
H46 C17 0.982 . S
H47 C17 0.979 . S
H48 C17 0.977 . S
H49 C19 0.948 . S
H50 C21 0.947 . S
H51 C22 0.948 . S
H52 C28 0.982 . S
H53 C28 0.979 1_655 S
H54 C28 0.977 . S
H55 C29 0.979 . S
H56 C29 0.980 . S
H57 C29 0.983 . S
H58 C2 0.947 . S
C59 C2 1.392 . S
C59 C3 1.419 . S
C59 H41 0.948 . S
C60 C61 1.391 . S
C60 C64 1.391 . S
C60 H102 0.948 . S
C61 C60 1.391 . S
C61 C62 1.391 . S
C62 C61 1.391 . S
C62 H118 0.947 . S
C62 C119 1.392 . S
C63 C64 1.391 . S
C63 C67 1.397 . S
C63 C119 1.419 . S
C64 C60 1.391 . S
C64 C63 1.391 . S
C64 C65 1.399 . S
C65 C64 1.399 . S
C65 C68 1.396 . S
C65 C77 1.453 . S
C65 C78 1.684 . S
H66 C90 0.948 . S
C67 C63 1.397 . S
C67 C68 1.394 . S
C67 C86 1.723 . S
C68 C65 1.396 . S
C68 C67 1.394 . S
C68 C98 1.723 . S
H69 C92 0.947 . S
H70 C93 0.948 . S
H71 C99 0.982 . S
H72 C100 0.979 . S
H73 C100 0.980 . S
H74 C100 0.983 . S
H75 C99 0.979 . S
H76 C99 0.977 . S
C77 C65 1.453 . S
C77 H106 0.982 . S
C77 H107 0.979 . S
C77 H108 0.977 . S
C78 C65 1.684 . S
C78 H103 0.979 . S
C78 H104 0.980 . S
C78 H105 0.983 . S
C79 C80 1.391 . S
C79 C84 1.391 . S
C79 H109 0.948 . S
C80 C79 1.391 . S
C80 C81 1.391 . S
C81 C80 1.391 . S
C81 C82 1.392 . S
C81 H110 0.947 . S
C82 C81 1.392 . S
C82 C83 1.419 . S
C82 H111 0.948 . S
C83 C82 1.419 . S
C83 C84 1.391 . S
C83 C87 1.397 . S
C84 C79 1.391 . S
C84 C83 1.391 . S
C84 C85 1.399 . S
C85 C84 1.399 . S
C85 C86 1.396 . S
C85 C88 1.453 . S
C85 C89 1.684 . S
C86 C67 1.723 . S
C86 C85 1.396 . S
C86 C87 1.394 . S
C87 C83 1.397 . S
C87 C86 1.394 . S
C87 C97 1.723 . S
C88 C85 1.453 . S
C88 H112 0.982 . S
C88 H113 0.979 . S
C88 H114 0.977 . S
C89 C85 1.684 . S
C89 H115 0.979 . S
C89 H116 0.980 . S
C89 H117 0.983 . S
C90 H66 0.948 . S
C90 C91 1.391 . S
C90 C95 1.391 . S
C91 C90 1.391 . S
C91 C92 1.391 . S
C92 H69 0.947 . S
C92 C91 1.391 . S
C92 C93 1.392 . S
C93 H70 0.948 . S
C93 C92 1.392 . S
C93 C94 1.419 . S
C94 C93 1.419 . S
C94 C95 1.391 . S
C94 C98 1.397 . S
C95 C90 1.391 . S
C95 C94 1.391 . S
C95 C96 1.399 . S
C96 C95 1.399 . S
C96 C97 1.396 . S
C96 C99 1.453 . S
C96 C100 1.684 . S
C97 C87 1.723 . S
C97 C96 1.396 . S
C97 C98 1.394 . S
C98 C68 1.723 . S
C98 C94 1.397 . S
C98 C97 1.394 . S
C99 H71 0.982 . S
C99 H75 0.979 . S
C99 H76 0.977 . S
C99 C96 1.453 . S
C100 H72 0.979 . S
C100 H73 0.980 . S
C100 H74 0.983 . S
C100 C96 1.684 . S
H101 C119 0.948 . S
H102 C60 0.948 . S
H103 C78 0.979 . S
H104 C78 0.980 . S
H105 C78 0.983 . S
H106 C77 0.982 . S
H107 C77 0.979 . S
H108 C77 0.977 . S
H109 C79 0.948 . S
H110 C81 0.947 . S
H111 C82 0.948 . S
H112 C88 0.982 . S
H113 C88 0.979 . S
H114 C88 0.977 . S
H115 C89 0.979 . S
H116 C89 0.980 . S
H117 C89 0.983 . S
H118 C62 0.947 . S
C119 C62 1.392 . S
C119 C63 1.419 . S
C119 H101 0.948 . S
C120 C121 1.391 1_554 S
C120 C124 1.391 . S
C120 H162 0.948 . S
C121 C120 1.391 1_556 S
C121 C122 1.391 . S
C122 C121 1.391 . S
C122 H178 0.947 . S
C122 C179 1.392 . S
C123 C124 1.391 . S
C123 C127 1.397 . S
C123 C179 1.419 1_554 S
C124 C120 1.391 . S
C124 C123 1.391 . S
C124 C125 1.399 . S
C125 C124 1.399 . S
C125 C128 1.396 . S
C125 C137 1.453 . S
C125 C138 1.684 1_655 S
H126 C150 0.948 . S
C127 C123 1.397 . S
C127 C128 1.394 . S
C127 C146 1.723 . S
C128 C125 1.396 . S
C128 C127 1.394 . S
C128 C158 1.723 . S
H129 C152 0.947 . S
H130 C153 0.948 . S
H131 C159 0.982 . S
H132 C160 0.979 . S
H133 C160 0.980 . S
H134 C160 0.983 . S
H135 C159 0.979 . S
H136 C159 0.977 . S
C137 C125 1.453 . S
C137 H166 0.982 . S
C137 H167 0.979 . S
C137 H168 0.977 . S
C138 C125 1.684 1_455 S
C138 H163 0.979 . S
C138 H164 0.980 . S
C138 H165 0.983 . S
C139 C140 1.391 . S
C139 C144 1.391 . S
C139 H169 0.948 . S
C140 C139 1.391 . S
C140 C141 1.391 . S
C141 C140 1.391 . S
C141 C142 1.392 . S
C141 H170 0.947 . S
C142 C141 1.392 . S
C142 C143 1.419 . S
C142 H171 0.948 . S
C143 C142 1.419 . S
C143 C144 1.391 . S
C143 C147 1.397 . S
C144 C139 1.391 . S
C144 C143 1.391 . S
C144 C145 1.399 . S
C145 C144 1.399 . S
C145 C146 1.396 . S
C145 C148 1.453 . S
C145 C149 1.684 1_554 S
C146 C127 1.723 . S
C146 C145 1.396 . S
C146 C147 1.394 . S
C147 C143 1.397 . S
C147 C146 1.394 . S
C147 C157 1.723 . S
C148 C145 1.453 . S
C148 H172 0.982 . S
C148 H173 0.979 . S
C148 H174 0.977 . S
C149 C145 1.684 1_556 S
C149 H175 0.979 . S
C149 H176 0.980 . S
C149 H177 0.983 . S
C150 H126 0.948 . S
C150 C151 1.391 1_655 S
C150 C155 1.391 . S
C151 C150 1.391 1_455 S
C151 C152 1.391 . S
C152 H129 0.947 . S
C152 C151 1.391 . S
C152 C153 1.392 . S
C153 H130 0.948 . S
C153 C152 1.392 . S
C153 C154 1.419 1_455 S
C154 C153 1.419 1_655 S
C154 C155 1.391 . S
C154 C158 1.397 . S
C155 C150 1.391 . S
C155 C154 1.391 . S
C155 C156 1.399 . S
C156 C155 1.399 . S
C156 C157 1.396 . S
C156 C159 1.453 . S
C156 C160 1.684 . S
C157 C147 1.723 . S
C157 C156 1.396 . S
C157 C158 1.394 . S
C158 C128 1.723 . S
C158 C154 1.397 . S
C158 C157 1.394 . S
C159 H131 0.982 . S
C159 H135 0.979 . S
C159 H136 0.977 . S
C159 C156 1.453 . S
C160 H132 0.979 . S
C160 H133 0.980 . S
C160 H134 0.983 . S
C160 C156 1.684 . S
H161 C179 0.948 . S
H162 C120 0.948 . S
H163 C138 0.979 . S
H164 C138 0.980 . S
H165 C138 0.983 . S
H166 C137 0.982 . S
H167 C137 0.979 . S
H168 C137 0.977 . S
H169 C139 0.948 . S
H170 C141 0.947 . S
H171 C142 0.948 . S
H172 C148 0.982 . S
H173 C148 0.979 . S
H174 C148 0.977 . S
H175 C149 0.979 . S
H176 C149 0.980 . S
H177 C149 0.983 . S
H178 C122 0.947 . S
C179 C122 1.392 . S
C179 C123 1.419 1_556 S
C179 H161 0.948 . S
C180 C181 1.391 . S
C180 C184 1.391 . S
C180 H222 0.948 . S
C181 C180 1.391 . S
C181 C182 1.391 . S
C182 C181 1.391 . S
C182 H238 0.947 . S
C182 C239 1.392 . S
C183 C184 1.391 . S
C183 C187 1.397 . S
C183 C239 1.419 . S
C184 C180 1.391 . S
C184 C183 1.391 . S
C184 C185 1.399 . S
C185 C184 1.399 . S
C185 C188 1.396 . S
C185 C197 1.453 . S
C185 C198 1.684 . S
H186 C210 0.948 . S
C187 C183 1.397 . S
C187 C188 1.394 . S
C187 C206 1.723 . S
C188 C185 1.396 . S
C188 C187 1.394 . S
C188 C218 1.723 . S
H189 C212 0.947 . S
H190 C213 0.948 . S
H191 C219 0.982 . S
H192 C220 0.979 . S
H193 C220 0.980 . S
H194 C220 0.983 . S
H195 C219 0.979 . S
H196 C219 0.977 . S
C197 C185 1.453 . S
C197 H226 0.982 . S
C197 H227 0.979 . S
C197 H228 0.977 . S
C198 C185 1.684 . S
C198 H223 0.979 . S
C198 H224 0.980 . S
C198 H225 0.983 . S
C199 C200 1.391 . S
C199 C204 1.391 . S
C199 H229 0.948 . S
C200 C199 1.391 . S
C200 C201 1.391 . S
C201 C200 1.391 . S
C201 C202 1.392 . S
C201 H230 0.947 . S
C202 C201 1.392 . S
C202 C203 1.419 . S
C202 H231 0.948 . S
C203 C202 1.419 . S
C203 C204 1.391 . S
C203 C207 1.397 . S
C204 C199 1.391 . S
C204 C203 1.391 . S
C204 C205 1.399 . S
C205 C204 1.399 . S
C205 C206 1.396 . S
C205 C208 1.453 . S
C205 C209 1.684 . S
C206 C187 1.723 . S
C206 C205 1.396 . S
C206 C207 1.394 . S
C207 C203 1.397 . S
C207 C206 1.394 . S
C207 C217 1.723 . S
C208 C205 1.453 . S
C208 H232 0.982 . S
C208 H233 0.979 . S
C208 H234 0.977 . S
C209 C205 1.684 . S
C209 H235 0.979 . S
C209 H236 0.980 . S
C209 H237 0.983 . S
C210 H186 0.948 . S
C210 C211 1.391 . S
C210 C215 1.391 . S
C211 C210 1.391 . S
C211 C212 1.391 . S
C212 H189 0.947 . S
C212 C211 1.391 . S
C212 C213 1.392 . S
C213 H190 0.948 . S
C213 C212 1.392 . S
C213 C214 1.419 . S
C214 C213 1.419 . S
C214 C215 1.391 . S
C214 C218 1.397 . S
C215 C210 1.391 . S
C215 C214 1.391 . S
C215 C216 1.399 . S
C216 C215 1.399 . S
C216 C217 1.396 . S
C216 C219 1.453 . S
C216 C220 1.684 . S
C217 C207 1.723 . S
C217 C216 1.396 . S
C217 C218 1.394 . S
C218 C188 1.723 . S
C218 C214 1.397 . S
C218 C217 1.394 . S
C219 H191 0.982 . S
C219 H195 0.979 . S
C219 H196 0.977 . S
C219 C216 1.453 . S
C220 H192 0.979 . S
C220 H193 0.980 . S
C220 H194 0.983 . S
C220 C216 1.684 . S
H221 C239 0.948 . S
H222 C180 0.948 . S
H223 C198 0.979 . S
H224 C198 0.980 . S
H225 C198 0.983 . S
H226 C197 0.982 . S
H227 C197 0.979 . S
H228 C197 0.977 . S
H229 C199 0.948 . S
H230 C201 0.947 . S
H231 C202 0.948 . S
H232 C208 0.982 . S
H233 C208 0.979 . S
H234 C208 0.977 . S
H235 C209 0.979 . S
H236 C209 0.980 . S
H237 C209 0.983 . S
H238 C182 0.947 . S
C239 C182 1.392 . S
C239 C183 1.419 . S
C239 H221 0.948 . S
C240 C241 1.391 . S
C240 C244 1.391 . S
C240 H282 0.948 . S
C241 C240 1.391 . S
C241 C242 1.391 . S
C242 C241 1.391 . S
C242 H298 0.947 . S
C242 C299 1.392 . S
C243 C244 1.391 . S
C243 C247 1.397 . S
C243 C299 1.419 . S
C244 C240 1.391 . S
C244 C243 1.391 . S
C244 C245 1.399 . S
C245 C244 1.399 . S
C245 C248 1.396 . S
C245 C257 1.453 . S
C245 C258 1.684 . S
H246 C270 0.948 . S
C247 C243 1.397 . S
C247 C248 1.394 . S
C247 C266 1.723 . S
C248 C245 1.396 . S
C248 C247 1.394 . S
C248 C278 1.723 . S
H249 C272 0.947 . S
H250 C273 0.948 . S
H251 C279 0.982 . S
H252 C280 0.979 1_565 S
H253 C280 0.980 . S
H254 C280 0.983 . S
H255 C279 0.979 . S
H256 C279 0.977 . S
C257 C245 1.453 . S
C257 H286 0.982 . S
C257 H287 0.979 . S
C257 H288 0.977 . S
C258 C245 1.684 . S
C258 H283 0.979 . S
C258 H284 0.980 . S
C258 H285 0.983 . S
C259 C260 1.391 . S
C259 C264 1.391 1_655 S
C259 H289 0.948 . S
C260 C259 1.391 . S
C260 C261 1.391 1_655 S
C261 C260 1.391 1_455 S
C261 C262 1.392 . S
C261 H290 0.947 1_565 S
C262 C261 1.392 . S
C262 C263 1.419 . S
C262 H291 0.951 1_565 S
C263 C262 1.419 . S
C263 C264 1.391 . S
C263 C267 1.397 . S
C264 C259 1.391 1_455 S
C264 C263 1.391 . S
C264 C265 1.399 . S
C265 C264 1.399 . S
C265 C266 1.396 . S
C265 C268 1.453 1_455 S
C265 C269 1.684 . S
C266 C247 1.723 . S
C266 C265 1.396 . S
C266 C267 1.394 . S
C267 C263 1.397 . S
C267 C266 1.394 . S
C267 C277 1.723 . S
C268 C265 1.453 1_655 S
C268 H292 0.982 . S
C268 H293 0.979 . S
C268 H294 0.977 . S
C269 C265 1.684 . S
C269 H295 0.979 . S
C269 H296 0.980 . S
C269 H297 0.983 1_455 S
C270 H246 0.948 . S
C270 C271 1.391 . S
C270 C275 1.391 . S
C271 C270 1.391 . S
C271 C272 1.391 1_545 S
C272 H249 0.947 . S
C272 C271 1.391 1_565 S
C272 C273 1.392 . S
C273 H250 0.948 . S
C273 C272 1.392 . S
C273 C274 1.419 . S
C274 C273 1.419 . S
C274 C275 1.391 1_565 S
C274 C278 1.397 . S
C275 C270 1.391 . S
C275 C274 1.391 1_545 S
C275 C276 1.400 . S
C276 C275 1.400 . S
C276 C277 1.379 1_545 S
C276 C279 1.474 . S
C276 C280 1.688 . S
C277 C267 1.723 . S
C277 C276 1.379 1_565 S
C277 C278 1.394 . S
C278 C248 1.723 . S
C278 C274 1.397 . S
C278 C277 1.394 . S
C279 H251 0.982 . S
C279 H255 0.979 . S
C279 H256 0.977 . S
C279 C276 1.474 . S
C280 H252 0.979 1_545 S
C280 H253 0.980 . S
C280 H254 0.983 . S
C280 C276 1.688 . S
H281 C299 0.948 . S
H282 C240 0.948 . S
H283 C258 0.979 . S
H284 C258 0.980 . S
H285 C258 0.983 . S
H286 C257 0.982 . S
H287 C257 0.979 . S
H288 C257 0.977 . S
H289 C259 0.948 . S
H290 C261 0.947 1_545 S
H291 C262 0.951 1_545 S
H292 C268 0.982 . S
H293 C268 0.979 . S
H294 C268 0.977 . S
H295 C269 0.979 . S
H296 C269 0.980 . S
H297 C269 0.983 1_655 S
H298 C242 0.947 . S
C299 C242 1.392 . S
C299 C243 1.419 . S
C299 H281 0.948 . S
C300 C301 1.391 . S
C300 C304 1.391 . S
C300 H342 0.948 . S
C301 C300 1.391 . S
C301 C302 1.391 . S
C302 C301 1.391 . S
C302 H358 0.947 . S
C302 C359 1.392 . S
C303 C304 1.391 . S
C303 C307 1.397 . S
C303 C359 1.419 . S
C304 C300 1.391 . S
C304 C303 1.391 . S
C304 C305 1.399 . S
C305 C304 1.399 . S
C305 C308 1.396 . S
C305 C317 1.453 . S
C305 C318 1.684 . S
H306 C330 0.948 . S
C307 C303 1.397 . S
C307 C308 1.394 . S
C307 C326 1.723 . S
C308 C305 1.396 . S
C308 C307 1.394 . S
C308 C338 1.723 . S
H309 C332 0.947 . S
H310 C333 0.948 . S
H311 C339 0.982 . S
H312 C340 0.979 . S
H313 C340 0.980 . S
H314 C340 0.983 . S
H315 C339 0.979 . S
H316 C339 0.977 . S
C317 C305 1.453 . S
C317 H346 0.982 . S
C317 H347 0.979 . S
C317 H348 0.977 . S
C318 C305 1.684 . S
C318 H343 0.979 . S
C318 H344 0.980 . S
C318 H345 0.983 . S
C319 C320 1.391 . S
C319 C324 1.391 . S
C319 H349 0.948 . S
C320 C319 1.391 . S
C320 C321 1.391 . S
C321 C320 1.391 . S
C321 C322 1.392 . S
C321 H350 0.947 . S
C322 C321 1.392 . S
C322 C323 1.419 . S
C322 H351 0.948 . S
C323 C322 1.419 . S
C323 C324 1.391 . S
C323 C327 1.397 . S
C324 C319 1.391 . S
C324 C323 1.391 . S
C324 C325 1.399 . S
C325 C324 1.399 . S
C325 C326 1.396 . S
C325 C328 1.453 . S
C325 C329 1.684 . S
C326 C307 1.723 . S
C326 C325 1.396 . S
C326 C327 1.394 . S
C327 C323 1.397 . S
C327 C326 1.394 . S
C327 C337 1.723 . S
C328 C325 1.453 . S
C328 H352 0.982 . S
C328 H353 0.979 . S
C328 H354 0.977 . S
C329 C325 1.684 . S
C329 H355 0.979 . S
C329 H356 0.980 . S
C329 H357 0.983 . S
C330 H306 0.948 . S
C330 C331 1.391 . S
C330 C335 1.391 . S
C331 C330 1.391 . S
C331 C332 1.391 . S
C332 H309 0.947 . S
C332 C331 1.391 . S
C332 C333 1.392 . S
C333 H310 0.948 . S
C333 C332 1.392 . S
C333 C334 1.419 . S
C334 C333 1.419 . S
C334 C335 1.391 . S
C334 C338 1.397 . S
C335 C330 1.391 . S
C335 C334 1.391 . S
C335 C336 1.399 . S
C336 C335 1.399 . S
C336 C337 1.396 . S
C336 C339 1.453 . S
C336 C340 1.684 . S
C337 C327 1.723 . S
C337 C336 1.396 . S
C337 C338 1.394 . S
C338 C308 1.723 . S
C338 C334 1.397 . S
C338 C337 1.394 . S
C339 H311 0.982 . S
C339 H315 0.979 . S
C339 H316 0.977 . S
C339 C336 1.453 . S
C340 H312 0.979 . S
C340 H313 0.980 . S
C340 H314 0.983 . S
C340 C336 1.684 . S
H341 C359 0.948 . S
H342 C300 0.948 . S
H343 C318 0.979 . S
H344 C318 0.980 . S
H345 C318 0.983 . S
H346 C317 0.982 . S
H347 C317 0.979 . S
H348 C317 0.977 . S
H349 C319 0.948 . S
H350 C321 0.947 . S
H351 C322 0.948 . S
H352 C328 0.982 . S
H353 C328 0.979 . S
H354 C328 0.977 . S
H355 C329 0.979 . S
H356 C329 0.980 . S
H357 C329 0.983 . S
H358 C302 0.947 . S
C359 C302 1.392 . S
C359 C303 1.419 . S
C359 H341 0.948 . S
C360 C361 1.391 . S
C360 C364 1.391 . S
C360 H402 0.948 . S
C361 C360 1.391 . S
C361 C362 1.391 . S
C362 C361 1.391 . S
C362 H418 0.947 . S
C362 C419 1.392 . S
C363 C364 1.391 . S
C363 C367 1.397 . S
C363 C419 1.419 . S
C364 C360 1.391 . S
C364 C363 1.391 . S
C364 C365 1.399 . S
C365 C364 1.399 . S
C365 C368 1.396 . S
C365 C377 1.453 . S
C365 C378 1.684 . S
H366 C390 0.948 . S
C367 C363 1.397 . S
C367 C368 1.394 . S
C367 C386 1.723 . S
C368 C365 1.396 . S
C368 C367 1.394 . S
C368 C398 1.723 . S
H369 C392 0.947 . S
H370 C393 0.948 . S
H371 C399 0.982 . S
H372 C400 0.979 . S
H373 C400 0.980 . S
H374 C400 0.983 . S
H375 C399 0.979 . S
H376 C399 0.977 . S
C377 C365 1.453 . S
C377 H406 0.982 . S
C377 H407 0.979 . S
C377 H408 0.977 . S
C378 C365 1.684 . S
C378 H403 0.979 . S
C378 H404 0.980 . S
C378 H405 0.983 . S
C379 C380 1.391 1_655 S
C379 C384 1.391 . S
C379 H409 0.948 . S
C380 C379 1.391 1_455 S
C380 C381 1.391 . S
C381 C380 1.391 . S
C381 C382 1.392 . S
C381 H410 0.947 . S
C382 C381 1.392 . S
C382 C383 1.419 1_455 S
C382 H411 0.948 . S
C383 C382 1.419 1_655 S
C383 C384 1.391 . S
C383 C387 1.397 . S
C384 C379 1.391 . S
C384 C383 1.391 . S
C384 C385 1.399 . S
C385 C384 1.399 . S
C385 C386 1.396 . S
C385 C388 1.453 . S
C385 C389 1.684 . S
C386 C367 1.723 . S
C386 C385 1.396 . S
C386 C387 1.394 . S
C387 C383 1.397 . S
C387 C386 1.394 . S
C387 C397 1.723 . S
C388 C385 1.453 . S
C388 H412 0.982 . S
C388 H413 0.979 . S
C388 H414 0.977 . S
C389 C385 1.684 . S
C389 H415 0.979 . S
C389 H416 0.980 . S
C389 H417 0.983 . S
C390 H366 0.948 . S
C390 C391 1.391 . S
C390 C395 1.391 . S
C391 C390 1.391 . S
C391 C392 1.391 . S
C392 H369 0.947 . S
C392 C391 1.391 . S
C392 C393 1.392 . S
C393 H370 0.948 . S
C393 C392 1.392 . S
C393 C394 1.419 . S
C394 C393 1.419 . S
C394 C395 1.391 . S
C394 C398 1.397 . S
C395 C390 1.391 . S
C395 C394 1.391 . S
C395 C396 1.399 . S
C396 C395 1.399 . S
C396 C397 1.396 . S
C396 C399 1.453 . S
C396 C400 1.684 1_655 S
C397 C387 1.723 . S
C397 C396 1.396 . S
C397 C398 1.394 . S
C398 C368 1.723 . S
C398 C394 1.397 . S
C398 C397 1.394 . S
C399 H371 0.982 . S
C399 H375 0.979 . S
C399 H376 0.977 . S
C399 C396 1.453 . S
C400 H372 0.979 . S
C400 H373 0.980 . S
C400 H374 0.983 . S
C400 C396 1.684 1_455 S
H401 C419 0.948 . S
H402 C360 0.948 . S
H403 C378 0.979 . S
H404 C378 0.980 . S
H405 C378 0.983 . S
H406 C377 0.982 . S
H407 C377 0.979 . S
H408 C377 0.977 . S
H409 C379 0.948 . S
H410 C381 0.947 . S
H411 C382 0.948 . S
H412 C388 0.982 . S
H413 C388 0.979 . S
H414 C388 0.977 . S
H415 C389 0.979 . S
H416 C389 0.980 . S
H417 C389 0.983 . S
H418 C362 0.947 . S
C419 C362 1.392 . S
C419 C363 1.419 . S
C419 H401 0.948 . S
C420 C421 1.391 . S
C420 C424 1.391 . S
C420 H462 0.948 . S
C421 C420 1.391 . S
C421 C422 1.391 . S
C422 C421 1.391 . S
C422 H478 0.947 . S
C422 C479 1.392 . S
C423 C424 1.391 . S
C423 C427 1.397 . S
C423 C479 1.419 . S
C424 C420 1.391 . S
C424 C423 1.391 . S
C424 C425 1.399 . S
C425 C424 1.399 . S
C425 C428 1.396 . S
C425 C437 1.453 . S
C425 C438 1.684 . S
H426 C450 0.948 . S
C427 C423 1.397 . S
C427 C428 1.394 . S
C427 C446 1.723 . S
C428 C425 1.396 . S
C428 C427 1.394 . S
C428 C458 1.723 . S
H429 C452 0.947 . S
H430 C453 0.948 . S
H431 C459 0.982 . S
H432 C460 0.979 . S
H433 C460 0.980 . S
H434 C460 0.983 . S
H435 C459 0.979 . S
H436 C459 0.977 . S
C437 C425 1.453 . S
C437 H466 0.982 . S
C437 H467 0.979 . S
C437 H468 0.977 . S
C438 C425 1.684 . S
C438 H463 0.979 . S
C438 H464 0.980 . S
C438 H465 0.983 . S
C439 C440 1.391 . S
C439 C444 1.391 . S
C439 H469 0.948 . S
C440 C439 1.391 . S
C440 C441 1.391 . S
C441 C440 1.391 . S
C441 C442 1.392 . S
C441 H470 0.947 . S
C442 C441 1.392 . S
C442 C443 1.419 . S
C442 H471 0.948 . S
C443 C442 1.419 . S
C443 C444 1.391 . S
C443 C447 1.397 . S
C444 C439 1.391 . S
C444 C443 1.391 . S
C444 C445 1.399 . S
C445 C444 1.399 . S
C445 C446 1.396 . S
C445 C448 1.453 . S
C445 C449 1.684 . S
C446 C427 1.723 . S
C446 C445 1.396 . S
C446 C447 1.394 . S
C447 C443 1.397 . S
C447 C446 1.394 . S
C447 C457 1.723 . S
C448 C445 1.453 . S
C448 H472 0.982 . S
C448 H473 0.979 . S
C448 H474 0.977 . S
C449 C445 1.684 . S
C449 H475 0.979 . S
C449 H476 0.980 . S
C449 H477 0.983 . S
C450 H426 0.948 . S
C450 C451 1.391 . S
C450 C455 1.391 . S
C451 C450 1.391 . S
C451 C452 1.391 . S
C452 H429 0.947 . S
C452 C451 1.391 . S
C452 C453 1.392 . S
C453 H430 0.948 . S
C453 C452 1.392 . S
C453 C454 1.419 . S
C454 C453 1.419 . S
C454 C455 1.391 . S
C454 C458 1.397 . S
C455 C450 1.391 . S
C455 C454 1.391 . S
C455 C456 1.399 . S
C456 C455 1.399 . S
C456 C457 1.396 . S
C456 C459 1.453 . S
C456 C460 1.684 . S
C457 C447 1.723 . S
C457 C456 1.396 . S
C457 C458 1.394 . S
C458 C428 1.723 . S
C458 C454 1.397 . S
C458 C457 1.394 . S
C459 H431 0.982 . S
C459 H435 0.979 . S
C459 H436 0.977 . S
C459 C456 1.453 . S
C460 H432 0.979 . S
C460 H433 0.980 . S
C460 H434 0.983 . S
C460 C456 1.684 . S
H461 C479 0.948 . S
H462 C420 0.948 . S
H463 C438 0.979 . S
H464 C438 0.980 . S
H465 C438 0.983 . S
H466 C437 0.982 . S
H467 C437 0.979 . S
H468 C437 0.977 . S
H469 C439 0.948 . S
H470 C441 0.947 . S
H471 C442 0.948 . S
H472 C448 0.982 . S
H473 C448 0.979 . S
H474 C448 0.977 . S
H475 C449 0.979 . S
H476 C449 0.980 . S
H477 C449 0.983 . S
H478 C422 0.947 . S
C479 C422 1.392 . S
C479 C423 1.419 . S
C479 H461 0.948 . S
C480 C481 1.391 . S
C480 C484 1.391 . S
C480 H522 0.948 . S
C481 C480 1.391 . S
C481 C482 1.391 . S
C482 C481 1.391 . S
C482 H538 0.947 . S
C482 C539 1.392 . S
C483 C484 1.391 . S
C483 C487 1.397 . S
C483 C539 1.419 . S
C484 C480 1.391 . S
C484 C483 1.391 . S
C484 C485 1.399 . S
C485 C484 1.399 . S
C485 C488 1.396 . S
C485 C497 1.453 . S
C485 C498 1.684 . S
H486 C510 0.948 . S
C487 C483 1.397 . S
C487 C488 1.394 . S
C487 C506 1.723 . S
C488 C485 1.396 . S
C488 C487 1.394 . S
C488 C518 1.723 . S
H489 C512 0.947 . S
H490 C513 0.948 . S
H491 C519 0.982 . S
H492 C520 0.979 . S
H493 C520 0.980 . S
H494 C520 0.983 . S
H495 C519 0.979 . S
H496 C519 0.977 . S
C497 C485 1.453 . S
C497 H526 0.982 . S
C497 H527 0.979 . S
C497 H528 0.977 . S
C498 C485 1.684 . S
C498 H523 0.979 . S
C498 H524 0.980 . S
C498 H525 0.983 . S
C499 C500 1.391 . S
C499 C504 1.391 . S
C499 H529 0.948 . S
C500 C499 1.391 . S
C500 C501 1.391 . S
C501 C500 1.391 . S
C501 C502 1.392 . S
C501 H530 0.947 . S
C502 C501 1.392 . S
C502 C503 1.419 . S
C502 H531 0.948 . S
C503 C502 1.419 . S
C503 C504 1.391 . S
C503 C507 1.397 . S
C504 C499 1.391 . S
C504 C503 1.391 . S
C504 C505 1.399 . S
C505 C504 1.399 . S
C505 C506 1.396 . S
C505 C508 1.453 . S
C505 C509 1.684 . S
C506 C487 1.723 . S
C506 C505 1.396 . S
C506 C507 1.394 . S
C507 C503 1.397 . S
C507 C506 1.394 . S
C507 C517 1.723 . S
C508 C505 1.453 . S
C508 H532 0.982 . S
C508 H533 0.979 . S
C508 H534 0.977 . S
C509 C505 1.684 . S
C509 H535 0.979 . S
C509 H536 0.980 . S
C509 H537 0.983 . S
C510 H486 0.948 . S
C510 C511 1.391 . S
C510 C515 1.391 . S
C511 C510 1.391 . S
C511 C512 1.391 . S
C512 H489 0.947 . S
C512 C511 1.391 . S
C512 C513 1.392 . S
C513 H490 0.948 . S
C513 C512 1.392 . S
C513 C514 1.419 . S
C514 C513 1.419 . S
C514 C515 1.391 . S
C514 C518 1.397 . S
C515 C510 1.391 . S
C515 C514 1.391 . S
C515 C516 1.399 . S
C516 C515 1.399 . S
C516 C517 1.396 . S
C516 C519 1.453 . S
C516 C520 1.684 . S
C517 C507 1.723 . S
C517 C516 1.396 . S
C517 C518 1.394 . S
C518 C488 1.723 . S
C518 C514 1.397 . S
C518 C517 1.394 . S
C519 H491 0.982 . S
C519 H495 0.979 . S
C519 H496 0.977 . S
C519 C516 1.453 . S
C520 H492 0.979 . S
C520 H493 0.980 . S
C520 H494 0.983 . S
C520 C516 1.684 . S
H521 C539 0.948 . S
H522 C480 0.948 . S
H523 C498 0.979 . S
H524 C498 0.980 . S
H525 C498 0.983 . S
H526 C497 0.982 . S
H527 C497 0.979 . S
H528 C497 0.977 . S
H529 C499 0.948 . S
H530 C501 0.947 . S
H531 C502 0.948 . S
H532 C508 0.982 . S
H533 C508 0.979 . S
H534 C508 0.977 . S
H535 C509 0.979 . S
H536 C509 0.980 . S
H537 C509 0.983 . S
H538 C482 0.947 . S
C539 C482 1.392 . S
C539 C483 1.419 . S
C539 H521 0.948 . S
C540 C541 1.391 . S
C540 C544 1.391 . S
C540 H582 0.948 . S
C541 C540 1.391 . S
C541 C542 1.391 . S
C542 C541 1.391 . S
C542 H598 0.947 . S
C542 C599 1.392 . S
C543 C544 1.391 . S
C543 C547 1.397 . S
C543 C599 1.419 . S
C544 C540 1.391 . S
C544 C543 1.391 . S
C544 C545 1.399 . S
C545 C544 1.399 . S
C545 C548 1.396 . S
C545 C557 1.453 . S
C545 C558 1.684 . S
H546 C570 0.948 . S
C547 C543 1.397 . S
C547 C548 1.394 . S
C547 C566 1.723 . S
C548 C545 1.396 . S
C548 C547 1.394 . S
C548 C578 1.723 . S
H549 C572 0.947 . S
H550 C573 0.948 . S
H551 C579 0.982 . S
H552 C580 0.979 . S
H553 C580 0.980 . S
H554 C580 0.983 . S
H555 C579 0.979 . S
H556 C579 0.977 . S
C557 C545 1.453 . S
C557 H586 0.982 . S
C557 H587 0.979 . S
C557 H588 0.977 . S
C558 C545 1.684 . S
C558 H583 0.979 . S
C558 H584 0.980 . S
C558 H585 0.983 . S
C559 C560 1.391 1_565 S
C559 C564 1.391 . S
C559 H589 0.948 . S
C560 C559 1.391 1_545 S
C560 C561 1.391 . S
C561 C560 1.391 . S
C561 C562 1.392 . S
C561 H590 0.947 . S
C562 C561 1.392 . S
C562 C563 1.419 1_545 S
C562 H591 0.948 . S
C563 C562 1.419 1_565 S
C563 C564 1.391 . S
C563 C567 1.397 . S
C564 C559 1.391 . S
C564 C563 1.391 . S
C564 C565 1.399 . S
C565 C564 1.399 . S
C565 C566 1.396 . S
C565 C568 1.453 . S
C565 C569 1.684 . S
C566 C547 1.723 . S
C566 C565 1.396 . S
C566 C567 1.394 . S
C567 C563 1.397 . S
C567 C566 1.394 . S
C567 C577 1.723 . S
C568 C565 1.453 . S
C568 H592 0.982 . S
C568 H593 0.979 . S
C568 H594 0.977 . S
C569 C565 1.684 . S
C569 H595 0.979 . S
C569 H596 0.980 . S
C569 H597 0.983 . S
C570 H546 0.948 . S
C570 C571 1.391 . S
C570 C575 1.391 . S
C571 C570 1.391 . S
C571 C572 1.391 . S
C572 H549 0.947 . S
C572 C571 1.391 . S
C572 C573 1.392 . S
C573 H550 0.948 . S
C573 C572 1.392 . S
C573 C574 1.419 . S
C574 C573 1.419 . S
C574 C575 1.391 . S
C574 C578 1.397 . S
C575 C570 1.391 . S
C575 C574 1.391 . S
C575 C576 1.399 . S
C576 C575 1.399 . S
C576 C577 1.396 . S
C576 C579 1.453 . S
C576 C580 1.684 1_565 S
C577 C567 1.723 . S
C577 C576 1.396 . S
C577 C578 1.394 . S
C578 C548 1.723 . S
C578 C574 1.397 . S
C578 C577 1.394 . S
C579 H551 0.982 . S
C579 H555 0.979 . S
C579 H556 0.977 . S
C579 C576 1.453 . S
C580 H552 0.979 . S
C580 H553 0.980 . S
C580 H554 0.983 . S
C580 C576 1.684 1_545 S
H581 C599 0.948 . S
H582 C540 0.948 . S
H583 C558 0.979 . S
H584 C558 0.980 . S
H585 C558 0.983 . S
H586 C557 0.982 . S
H587 C557 0.979 . S
H588 C557 0.977 . S
H589 C559 0.948 . S
H590 C561 0.947 . S
H591 C562 0.948 . S
H592 C568 0.982 . S
H593 C568 0.979 . S
H594 C568 0.977 . S
H595 C569 0.979 . S
H596 C569 0.980 . S
H597 C569 0.983 . S
H598 C542 0.947 . S
C599 C542 1.392 . S
C599 C543 1.419 . S
C599 H581 0.948 . S
C600 C601 1.391 . S
C600 C604 1.391 . S
C600 H642 0.948 . S
C601 C600 1.391 . S
C601 C602 1.391 . S
C602 C601 1.391 . S
C602 H658 0.947 . S
C602 C659 1.392 . S
C603 C604 1.391 . S
C603 C607 1.397 . S
C603 C659 1.419 . S
C604 C600 1.391 . S
C604 C603 1.391 . S
C604 C605 1.399 . S
C605 C604 1.399 . S
C605 C608 1.396 . S
C605 C617 1.453 . S
C605 C618 1.684 . S
H606 C630 0.948 . S
C607 C603 1.397 . S
C607 C608 1.394 . S
C607 C626 1.723 . S
C608 C605 1.396 . S
C608 C607 1.394 . S
C608 C638 1.723 . S
H609 C632 0.947 . S
H610 C633 0.948 . S
H611 C639 0.982 . S
H612 C640 0.979 . S
H613 C640 0.980 . S
H614 C640 0.983 . S
H615 C639 0.979 . S
H616 C639 0.977 . S
C617 C605 1.453 . S
C617 H646 0.982 . S
C617 H647 0.979 . S
C617 H648 0.977 . S
C618 C605 1.684 . S
C618 H643 0.979 . S
C618 H644 0.980 . S
C618 H645 0.983 . S
C619 C620 1.391 . S
C619 C624 1.391 . S
C619 H649 0.948 . S
C620 C619 1.391 . S
C620 C621 1.391 . S
C621 C620 1.391 . S
C621 C622 1.392 . S
C621 H650 0.947 . S
C622 C621 1.392 . S
C622 C623 1.419 . S
C622 H651 0.948 . S
C623 C622 1.419 . S
C623 C624 1.391 . S
C623 C627 1.397 . S
C624 C619 1.391 . S
C624 C623 1.391 . S
C624 C625 1.399 . S
C625 C624 1.399 . S
C625 C626 1.396 . S
C625 C628 1.453 . S
C625 C629 1.684 . S
C626 C607 1.723 . S
C626 C625 1.396 . S
C626 C627 1.394 . S
C627 C623 1.397 . S
C627 C626 1.394 . S
C627 C637 1.723 . S
C628 C625 1.453 . S
C628 H652 0.982 . S
C628 H653 0.979 . S
C628 H654 0.977 . S
C629 C625 1.684 . S
C629 H655 0.979 . S
C629 H656 0.980 . S
C629 H657 0.983 . S
C630 H606 0.948 . S
C630 C631 1.391 . S
C630 C635 1.391 . S
C631 C630 1.391 . S
C631 C632 1.391 . S
C632 H609 0.947 . S
C632 C631 1.391 . S
C632 C633 1.392 . S
C633 H610 0.948 . S
C633 C632 1.392 . S
C633 C634 1.419 . S
C634 C633 1.419 . S
C634 C635 1.391 . S
C634 C638 1.397 . S
C635 C630 1.391 . S
C635 C634 1.391 . S
C635 C636 1.399 . S
C636 C635 1.399 . S
C636 C637 1.396 . S
C636 C639 1.453 . S
C636 C640 1.684 . S
C637 C627 1.723 . S
C637 C636 1.396 . S
C637 C638 1.394 . S
C638 C608 1.723 . S
C638 C634 1.397 . S
C638 C637 1.394 . S
C639 H611 0.982 . S
C639 H615 0.979 . S
C639 H616 0.977 . S
C639 C636 1.453 . S
C640 H612 0.979 . S
C640 H613 0.980 . S
C640 H614 0.983 . S
C640 C636 1.684 . S
H641 C659 0.948 . S
H642 C600 0.948 . S
H643 C618 0.979 . S
H644 C618 0.980 . S
H645 C618 0.983 . S
H646 C617 0.982 . S
H647 C617 0.979 . S
H648 C617 0.977 . S
H649 C619 0.948 . S
H650 C621 0.947 . S
H651 C622 0.948 . S
H652 C628 0.982 . S
H653 C628 0.979 . S
H654 C628 0.977 . S
H655 C629 0.979 . S
H656 C629 0.980 . S
H657 C629 0.983 . S
H658 C602 0.947 . S
C659 C602 1.392 . S
C659 C603 1.419 . S
C659 H641 0.948 . S
C660 C661 1.391 . S
C660 C664 1.391 . S
C660 H702 0.948 . S
C661 C660 1.391 . S
C661 C662 1.391 . S
C662 C661 1.391 . S
C662 H718 0.947 . S
C662 C719 1.392 . S
C663 C664 1.391 . S
C663 C667 1.397 . S
C663 C719 1.419 . S
C664 C660 1.391 . S
C664 C663 1.391 . S
C664 C665 1.399 . S
C665 C664 1.399 . S
C665 C668 1.396 . S
C665 C677 1.453 . S
C665 C678 1.684 . S
H666 C690 0.948 . S
C667 C663 1.397 . S
C667 C668 1.394 . S
C667 C686 1.723 . S
C668 C665 1.396 . S
C668 C667 1.394 . S
C668 C698 1.723 . S
H669 C692 0.947 . S
H670 C693 0.948 . S
H671 C699 0.982 . S
H672 C700 0.979 . S
H673 C700 0.980 . S
H674 C700 0.983 . S
H675 C699 0.979 . S
H676 C699 0.977 . S
C677 C665 1.453 . S
C677 H706 0.982 . S
C677 H707 0.979 . S
C677 H708 0.977 . S
C678 C665 1.684 . S
C678 H703 0.979 . S
C678 H704 0.980 . S
C678 H705 0.983 . S
C679 C680 1.391 . S
C679 C684 1.391 . S
C679 H709 0.948 . S
C680 C679 1.391 . S
C680 C681 1.391 . S
C681 C680 1.391 . S
C681 C682 1.392 . S
C681 H710 0.947 . S
C682 C681 1.392 . S
C682 C683 1.419 . S
C682 H711 0.948 . S
C683 C682 1.419 . S
C683 C684 1.391 . S
C683 C687 1.397 . S
C684 C679 1.391 . S
C684 C683 1.391 . S
C684 C685 1.399 . S
C685 C684 1.399 . S
C685 C686 1.396 . S
C685 C688 1.453 . S
C685 C689 1.684 . S
C686 C667 1.723 . S
C686 C685 1.396 . S
C686 C687 1.394 . S
C687 C683 1.397 . S
C687 C686 1.394 . S
C687 C697 1.723 . S
C688 C685 1.453 . S
C688 H712 0.982 . S
C688 H713 0.979 . S
C688 H714 0.977 . S
C689 C685 1.684 . S
C689 H715 0.979 . S
C689 H716 0.980 . S
C689 H717 0.983 . S
C690 H666 0.948 . S
C690 C691 1.391 . S
C690 C695 1.391 . S
C691 C690 1.391 . S
C691 C692 1.391 . S
C692 H669 0.947 . S
C692 C691 1.391 . S
C692 C693 1.392 . S
C693 H670 0.948 . S
C693 C692 1.392 . S
C693 C694 1.419 . S
C694 C693 1.419 . S
C694 C695 1.391 . S
C694 C698 1.397 . S
C695 C690 1.391 . S
C695 C694 1.391 . S
C695 C696 1.399 . S
C696 C695 1.399 . S
C696 C697 1.396 . S
C696 C699 1.453 . S
C696 C700 1.684 . S
C697 C687 1.723 . S
C697 C696 1.396 . S
C697 C698 1.394 . S
C698 C668 1.723 . S
C698 C694 1.397 . S
C698 C697 1.394 . S
C699 H671 0.982 . S
C699 H675 0.979 . S
C699 H676 0.977 . S
C699 C696 1.453 . S
C700 H672 0.979 . S
C700 H673 0.980 . S
C700 H674 0.983 . S
C700 C696 1.684 . S
H701 C719 0.948 . S
H702 C660 0.948 . S
H703 C678 0.979 . S
H704 C678 0.980 . S
H705 C678 0.983 . S
H706 C677 0.982 . S
H707 C677 0.979 . S
H708 C677 0.977 . S
H709 C679 0.948 . S
H710 C681 0.947 . S
H711 C682 0.948 . S
H712 C688 0.982 . S
H713 C688 0.979 . S
H714 C688 0.977 . S
H715 C689 0.979 . S
H716 C689 0.980 . S
H717 C689 0.983 . S
H718 C662 0.947 . S
C719 C662 1.392 . S
C719 C663 1.419 . S
C719 H701 0.948 . S
C720 C721 1.391 . S
C720 C724 1.391 . S
C720 H762 0.948 . S
C721 C720 1.391 . S
C721 C722 1.391 . S
C722 C721 1.391 . S
C722 H778 0.947 . S
C722 C779 1.392 . S
C723 C724 1.391 . S
C723 C727 1.397 . S
C723 C779 1.419 . S
C724 C720 1.391 . S
C724 C723 1.391 . S
C724 C725 1.399 . S
C725 C724 1.399 . S
C725 C728 1.396 . S
C725 C737 1.453 . S
C725 C738 1.684 . S
H726 C750 0.948 . S
C727 C723 1.397 . S
C727 C728 1.394 . S
C727 C746 1.723 . S
C728 C725 1.396 . S
C728 C727 1.394 . S
C728 C758 1.723 . S
H729 C752 0.947 . S
H730 C753 0.948 . S
H731 C759 0.982 . S
H732 C760 0.979 . S
H733 C760 0.980 . S
H734 C760 0.983 . S
H735 C759 0.979 . S
H736 C759 0.977 . S
C737 C725 1.453 . S
C737 H766 0.982 . S
C737 H767 0.979 . S
C737 H768 0.977 . S
C738 C725 1.684 . S
C738 H763 0.979 . S
C738 H764 0.980 . S
C738 H765 0.983 . S
C739 C740 1.391 . S
C739 C744 1.391 . S
C739 H769 0.948 . S
C740 C739 1.391 . S
C740 C741 1.391 . S
C741 C740 1.391 . S
C741 C742 1.392 . S
C741 H770 0.947 . S
C742 C741 1.392 . S
C742 C743 1.419 . S
C742 H771 0.948 . S
C743 C742 1.419 . S
C743 C744 1.391 . S
C743 C747 1.397 . S
C744 C739 1.391 . S
C744 C743 1.391 . S
C744 C745 1.399 . S
C745 C744 1.399 . S
C745 C746 1.396 . S
C745 C748 1.453 . S
C745 C749 1.684 . S
C746 C727 1.723 . S
C746 C745 1.396 . S
C746 C747 1.394 . S
C747 C743 1.397 . S
C747 C746 1.394 . S
C747 C757 1.723 . S
C748 C745 1.453 . S
C748 H772 0.982 . S
C748 H773 0.979 . S
C748 H774 0.977 . S
C749 C745 1.684 . S
C749 H775 0.979 . S
C749 H776 0.980 . S
C749 H777 0.983 . S
C750 H726 0.948 . S
C750 C751 1.391 . S
C750 C755 1.391 . S
C751 C750 1.391 . S
C751 C752 1.391 . S
C752 H729 0.947 . S
C752 C751 1.391 . S
C752 C753 1.392 . S
C753 H730 0.948 . S
C753 C752 1.392 . S
C753 C754 1.419 . S
C754 C753 1.419 . S
C754 C755 1.391 . S
C754 C758 1.397 . S
C755 C750 1.391 . S
C755 C754 1.391 . S
C755 C756 1.399 . S
C756 C755 1.399 . S
C756 C757 1.396 . S
C756 C759 1.453 . S
C756 C760 1.684 . S
C757 C747 1.723 . S
C757 C756 1.396 . S
C757 C758 1.394 . S
C758 C728 1.723 . S
C758 C754 1.397 . S
C758 C757 1.394 . S
C759 H731 0.982 . S
C759 H735 0.979 . S
C759 H736 0.977 . S
C759 C756 1.453 . S
C760 H732 0.979 . S
C760 H733 0.980 . S
C760 H734 0.983 . S
C760 C756 1.684 . S
H761 C779 0.948 . S
H762 C720 0.948 . S
H763 C738 0.979 . S
H764 C738 0.980 . S
H765 C738 0.983 . S
H766 C737 0.982 . S
H767 C737 0.979 . S
H768 C737 0.977 . S
H769 C739 0.948 . S
H770 C741 0.947 . S
H771 C742 0.948 . S
H772 C748 0.982 . S
H773 C748 0.979 . S
H774 C748 0.977 . S
H775 C749 0.979 . S
H776 C749 0.980 . S
H777 C749 0.983 . S
H778 C722 0.947 . S
C779 C722 1.392 . S
C779 C723 1.419 . S
C779 H761 0.948 . S
C780 C781 1.391 . S
C780 C784 1.391 . S
C780 H822 0.948 1_556 S
C781 C780 1.391 . S
C781 C782 1.391 . S
C782 C781 1.391 . S
C782 H838 0.947 . S
C782 C839 1.392 . S
C783 C784 1.391 . S
C783 C787 1.397 . S
C783 C839 1.419 . S
C784 C780 1.391 . S
C784 C783 1.391 . S
C784 C785 1.399 . S
C785 C784 1.399 . S
C785 C788 1.396 . S
C785 C797 1.453 1_556 S
C785 C798 1.684 . S
H786 C810 0.948 . S
C787 C783 1.397 . S
C787 C788 1.394 . S
C787 C806 1.723 . S
C788 C785 1.396 . S
C788 C787 1.394 . S
C788 C818 1.723 . S
H789 C812 0.947 . S
H790 C813 0.948 . S
H791 C819 0.982 . S
H792 C820 0.979 . S
H793 C820 0.980 . S
H794 C820 0.983 . S
H795 C819 0.979 . S
H796 C819 0.977 . S
C797 C785 1.453 1_554 S
C797 H826 0.982 . S
C797 H827 0.979 . S
C797 H828 0.977 1_554 S
C798 C785 1.684 . S
C798 H823 0.979 . S
C798 H824 0.980 . S
C798 H825 1.016 . S
C799 C800 1.391 . S
C799 C804 1.391 . S
C799 H829 0.948 . S
C800 C799 1.391 . S
C800 C801 1.391 . S
C801 C800 1.391 . S
C801 C802 1.392 . S
C801 H830 0.947 . S
C802 C801 1.392 . S
C802 C803 1.419 . S
C802 H831 0.948 . S
C803 C802 1.419 . S
C803 C804 1.391 . S
C803 C807 1.397 . S
C804 C799 1.391 . S
C804 C803 1.391 . S
C804 C805 1.399 . S
C805 C804 1.399 . S
C805 C806 1.396 . S
C805 C808 1.453 . S
C805 C809 1.684 . S
C806 C787 1.723 . S
C806 C805 1.396 . S
C806 C807 1.394 . S
C807 C803 1.397 . S
C807 C806 1.394 . S
C807 C817 1.723 . S
C808 C805 1.453 . S
C808 H832 0.982 . S
C808 H833 0.979 . S
C808 H834 0.977 . S
C809 C805 1.684 . S
C809 H835 0.979 . S
C809 H836 0.980 . S
C809 H837 0.983 . S
C810 H786 0.948 . S
C810 C811 1.391 . S
C810 C815 1.391 . S
C811 C810 1.391 . S
C811 C812 1.391 . S
C812 H789 0.947 . S
C812 C811 1.391 . S
C812 C813 1.392 . S
C813 H790 0.948 . S
C813 C812 1.392 . S
C813 C814 1.419 . S
C814 C813 1.419 . S
C814 C815 1.391 . S
C814 C818 1.397 . S
C815 C810 1.391 . S
C815 C814 1.391 . S
C815 C816 1.399 . S
C816 C815 1.399 . S
C816 C817 1.396 . S
C816 C819 1.453 . S
C816 C820 1.684 . S
C817 C807 1.723 . S
C817 C816 1.396 . S
C817 C818 1.394 . S
C818 C788 1.723 . S
C818 C814 1.397 . S
C818 C817 1.394 . S
C819 H791 0.982 . S
C819 H795 0.979 . S
C819 H796 0.977 . S
C819 C816 1.453 . S
C820 H792 0.979 . S
C820 H793 0.980 . S
C820 H794 0.983 . S
C820 C816 1.684 . S
H821 C839 0.948 . S
H822 C780 0.948 1_554 S
H823 C798 0.979 . S
H824 C798 0.980 . S
H825 C798 1.016 . S
H826 C797 0.982 . S
H827 C797 0.979 . S
H828 C797 0.977 1_556 S
H829 C799 0.948 . S
H830 C801 0.947 . S
H831 C802 0.948 . S
H832 C808 0.982 . S
H833 C808 0.979 . S
H834 C808 0.977 . S
H835 C809 0.979 . S
H836 C809 0.980 . S
H837 C809 0.983 . S
H838 C782 0.947 . S
C839 C782 1.392 . S
C839 C783 1.419 . S
C839 H821 0.948 . S
C840 C841 1.391 . S
C840 C844 1.391 . S
C840 H882 0.948 . S
C841 C840 1.391 . S
C841 C842 1.391 . S
C842 C841 1.391 . S
C842 H898 0.947 . S
C842 C899 1.392 . S
C843 C844 1.391 . S
C843 C847 1.397 . S
C843 C899 1.419 . S
C844 C840 1.391 . S
C844 C843 1.391 . S
C844 C845 1.399 . S
C845 C844 1.399 . S
C845 C848 1.396 . S
C845 C857 1.453 . S
C845 C858 1.684 . S
H846 C870 0.948 . S
C847 C843 1.397 . S
C847 C848 1.394 . S
C847 C866 1.723 . S
C848 C845 1.396 . S
C848 C847 1.394 . S
C848 C878 1.723 . S
H849 C872 0.947 . S
H850 C873 0.948 . S
H851 C879 0.982 . S
H852 C880 0.979 . S
H853 C880 0.980 . S
H854 C880 0.983 . S
H855 C879 0.979 . S
H856 C879 0.977 . S
C857 C845 1.453 . S
C857 H886 0.982 . S
C857 H887 0.979 . S
C857 H888 0.977 . S
C858 C845 1.684 . S
C858 H883 0.979 . S
C858 H884 0.980 . S
C858 H885 0.983 . S
C859 C860 1.391 . S
C859 C864 1.391 . S
C859 H889 0.948 . S
C860 C859 1.391 . S
C860 C861 1.391 . S
C861 C860 1.391 . S
C861 C862 1.392 . S
C861 H890 0.947 . S
C862 C861 1.392 . S
C862 C863 1.419 . S
C862 H891 0.948 . S
C863 C862 1.419 . S
C863 C864 1.391 . S
C863 C867 1.397 . S
C864 C859 1.391 . S
C864 C863 1.391 . S
C864 C865 1.399 . S
C865 C864 1.399 . S
C865 C866 1.396 . S
C865 C868 1.453 . S
C865 C869 1.684 . S
C866 C847 1.723 . S
C866 C865 1.396 . S
C866 C867 1.394 . S
C867 C863 1.397 . S
C867 C866 1.394 . S
C867 C877 1.723 . S
C868 C865 1.453 . S
C868 H892 0.982 . S
C868 H893 0.979 . S
C868 H894 0.977 . S
C869 C865 1.684 . S
C869 H895 0.979 . S
C869 H896 0.980 . S
C869 H897 0.983 . S
C870 H846 0.948 . S
C870 C871 1.391 . S
C870 C875 1.391 . S
C871 C870 1.391 . S
C871 C872 1.391 . S
C872 H849 0.947 . S
C872 C871 1.391 . S
C872 C873 1.392 . S
C873 H850 0.948 . S
C873 C872 1.392 . S
C873 C874 1.419 . S
C874 C873 1.419 . S
C874 C875 1.391 . S
C874 C878 1.397 . S
C875 C870 1.391 . S
C875 C874 1.391 . S
C875 C876 1.399 . S
C876 C875 1.399 . S
C876 C877 1.396 . S
C876 C879 1.453 . S
C876 C880 1.684 . S
C877 C867 1.723 . S
C877 C876 1.396 . S
C877 C878 1.394 . S
C878 C848 1.723 . S
C878 C874 1.397 . S
C878 C877 1.394 . S
C879 H851 0.982 . S
C879 H855 0.979 . S
C879 H856 0.977 . S
C879 C876 1.453 . S
C880 H852 0.979 . S
C880 H853 0.980 . S
C880 H854 0.983 . S
C880 C876 1.684 . S
H881 C899 0.948 . S
H882 C840 0.948 . S
H883 C858 0.979 . S
H884 C858 0.980 . S
H885 C858 0.983 . S
H886 C857 0.982 . S
H887 C857 0.979 . S
H888 C857 0.977 . S
H889 C859 0.948 . S
H890 C861 0.947 . S
H891 C862 0.948 . S
H892 C868 0.982 . S
H893 C868 0.979 . S
H894 C868 0.977 . S
H895 C869 0.979 . S
H896 C869 0.980 . S
H897 C869 0.983 . S
H898 C842 0.947 . S
C899 C842 1.392 . S
C899 C843 1.419 . S
C899 H881 0.948 . S
C900 C901 1.391 1_545 S
C900 C904 1.391 . S
C900 H942 0.948 . S
C901 C900 1.391 1_565 S
C901 C902 1.391 . S
C902 C901 1.391 . S
C902 H958 0.947 . S
C902 C959 1.392 1_565 S
C903 C904 1.391 . S
C903 C907 1.397 . S
C903 C959 1.419 . S
C904 C900 1.391 . S
C904 C903 1.391 . S
C904 C905 1.399 . S
C905 C904 1.399 . S
C905 C908 1.396 . S
C905 C917 1.453 . S
C905 C918 1.684 1_556 S
H906 C930 0.948 . S
C907 C903 1.397 . S
C907 C908 1.394 . S
C907 C926 1.723 . S
C908 C905 1.396 . S
C908 C907 1.394 . S
C908 C938 1.723 . S
H909 C932 0.947 . S
H910 C933 0.948 . S
H911 C939 0.982 . S
H912 C940 0.979 . S
H913 C940 0.980 . S
H914 C940 0.983 . S
H915 C939 0.979 . S
H916 C939 0.977 . S
C917 C905 1.453 . S
C917 H946 0.982 . S
C917 H947 0.979 . S
C917 H948 0.977 . S
C918 C905 1.684 1_554 S
C918 H943 0.979 . S
C918 H944 0.980 . S
C918 H945 0.983 . S
C919 C920 1.391 . S
C919 C924 1.391 . S
C919 H949 0.948 . S
C920 C919 1.391 . S
C920 C921 1.391 . S
C921 C920 1.391 . S
C921 C922 1.392 . S
C921 H950 0.947 . S
C922 C921 1.392 . S
C922 C923 1.419 . S
C922 H951 0.948 . S
C923 C922 1.419 . S
C923 C924 1.391 . S
C923 C927 1.397 . S
C924 C919 1.391 . S
C924 C923 1.391 . S
C924 C925 1.399 . S
C925 C924 1.399 . S
C925 C926 1.396 . S
C925 C928 1.453 . S
C925 C929 1.684 1_545 S
C926 C907 1.723 . S
C926 C925 1.396 . S
C926 C927 1.394 . S
C927 C923 1.397 . S
C927 C926 1.394 . S
C927 C937 1.723 . S
C928 C925 1.453 . S
C928 H952 0.982 . S
C928 H953 0.979 . S
C928 H954 0.977 . S
C929 C925 1.684 1_565 S
C929 H955 0.979 . S
C929 H956 0.980 . S
C929 H957 0.983 . S
C930 H906 0.948 . S
C930 C931 1.391 1_556 S
C930 C935 1.391 . S
C931 C930 1.391 1_554 S
C931 C932 1.391 . S
C932 H909 0.947 . S
C932 C931 1.391 . S
C932 C933 1.392 . S
C933 H910 0.948 . S
C933 C932 1.392 . S
C933 C934 1.419 1_554 S
C934 C933 1.419 1_556 S
C934 C935 1.391 . S
C934 C938 1.397 . S
C935 C930 1.391 . S
C935 C934 1.391 . S
C935 C936 1.399 . S
C936 C935 1.399 . S
C936 C937 1.396 . S
C936 C939 1.453 . S
C936 C940 1.684 . S
C937 C927 1.723 . S
C937 C936 1.396 . S
C937 C938 1.394 . S
C938 C908 1.723 . S
C938 C934 1.397 . S
C938 C937 1.394 . S
C939 H911 0.982 . S
C939 H915 0.979 . S
C939 H916 0.977 . S
C939 C936 1.453 . S
C940 H912 0.979 . S
C940 H913 0.980 . S
C940 H914 0.983 . S
C940 C936 1.684 . S
H941 C959 0.945 1_565 S
H942 C900 0.948 . S
H943 C918 0.979 . S
H944 C918 0.980 . S
H945 C918 0.983 . S
H946 C917 0.982 . S
H947 C917 0.979 . S
H948 C917 0.977 . S
H949 C919 0.948 . S
H950 C921 0.947 . S
H951 C922 0.948 . S
H952 C928 0.982 . S
H953 C928 0.979 . S
H954 C928 0.977 . S
H955 C929 0.979 . S
H956 C929 0.980 . S
H957 C929 0.983 . S
H958 C902 0.947 . S
C959 C902 1.392 1_545 S
C959 C903 1.419 . S
C959 H941 0.945 1_545 S
C960 O961 1.160 1_554 S
C960 O967 1.185 . S
O961 C960 1.160 1_556 S
O962 Zn963 1.899 1_556 S
O962 C970 1.284 . S
Zn963 O962 1.899 1_554 S
Zn963 O964 2.032 . S
Zn963 O967 2.086 . S
Zn963 O972 1.977 . S
O964 Zn963 2.032 . S
O964 C968 1.278 . S
C965 O966 1.203 . S
C965 O972 1.267 . S
O966 C965 1.203 . S
O967 C960 1.185 . S
O967 Zn963 2.086 . S
C968 O964 1.278 . S
C968 O969 1.211 . S
O969 C968 1.211 . S
C970 O962 1.284 . S
C970 O971 1.273 . S
O971 C970 1.273 . S
O972 Zn963 1.977 . S
O972 C965 1.267 . S
C973 O974 1.160 . S
C973 O980 1.185 . S
O974 C973 1.160 . S
O975 Zn976 1.899 . S
O975 C983 1.284 . S
Zn976 O975 1.899 . S
Zn976 O977 2.032 . S
Zn976 O980 2.086 . S
Zn976 O985 1.977 . S
O977 Zn976 2.032 . S
O977 C981 1.278 . S
C978 O979 1.203 . S
C978 O985 1.267 . S
O979 C978 1.203 . S
O980 C973 1.185 . S
O980 Zn976 2.086 . S
C981 O977 1.278 . S
C981 O982 1.211 . S
O982 C981 1.211 . S
C983 O975 1.284 . S
C983 O984 1.273 . S
O984 C983 1.273 . S
O985 Zn976 1.977 . S
O985 C978 1.267 . S
C986 O987 1.160 1_554 S
C986 O993 1.185 . S
O987 C986 1.160 1_556 S
O988 Zn989 1.899 1_556 S
O988 C996 1.284 . S
Zn989 O988 1.899 1_554 S
Zn989 O990 2.032 1_554 S
Zn989 O993 2.086 . S
Zn989 O998 1.977 . S
O990 Zn989 2.032 1_556 S
O990 C994 1.278 . S
C991 O992 1.203 . S
C991 O998 1.267 . S
O992 C991 1.203 . S
O993 C986 1.185 . S
O993 Zn989 2.086 . S
C994 O990 1.278 . S
C994 O995 1.211 1_556 S
O995 C994 1.211 1_554 S
C996 O988 1.284 . S
C996 O997 1.273 . S
O997 C996 1.273 . S
O998 Zn989 1.977 . S
O998 C991 1.267 . S
C999 O1000 1.160 . S
C999 O1006 1.185 . S
O1000 C999 1.160 . S
O1001 Zn1002 1.899 . S
O1001 C1009 1.284 . S
Zn1002 O1001 1.899 . S
Zn1002 O1003 2.032 . S
Zn1002 O1006 2.086 . S
Zn1002 O1011 1.977 . S
O1003 Zn1002 2.032 . S
O1003 C1007 1.278 1_545 S
C1004 O1005 1.203 . S
C1004 O1011 1.267 . S
O1005 C1004 1.203 . S
O1006 C999 1.185 . S
O1006 Zn1002 2.086 . S
C1007 O1003 1.278 1_565 S
C1007 O1008 1.211 . S
O1008 C1007 1.211 . S
C1009 O1001 1.284 . S
C1009 O1010 1.273 1_545 S
O1010 C1009 1.273 1_565 S
O1011 Zn1002 1.977 . S
O1011 C1004 1.267 . S
C1012 O1013 1.160 . S
C1012 O1019 1.185 . S
O1013 C1012 1.160 . S
O1014 Zn1015 1.899 . S
O1014 C1022 1.284 . S
Zn1015 O1014 1.899 . S
Zn1015 O1016 2.032 . S
Zn1015 O1019 2.086 . S
Zn1015 O1024 1.977 . S
O1016 Zn1015 2.032 . S
O1016 C1020 1.278 . S
C1017 O1018 1.203 . S
C1017 O1024 1.267 . S
O1018 C1017 1.203 . S
O1019 C1012 1.185 . S
O1019 Zn1015 2.086 . S
C1020 O1016 1.278 . S
C1020 O1021 1.211 . S
O1021 C1020 1.211 . S
C1022 O1014 1.284 . S
C1022 O1023 1.273 . S
O1023 C1022 1.273 . S
O1024 Zn1015 1.977 . S
O1024 C1017 1.267 . S
C1025 O1026 1.160 . S
C1025 O1032 1.185 . S
O1026 C1025 1.160 . S
O1027 Zn1028 1.899 . S
O1027 C1035 1.284 . S
Zn1028 O1027 1.899 . S
Zn1028 O1029 2.032 . S
Zn1028 O1032 2.086 . S
Zn1028 O1037 1.977 . S
O1029 Zn1028 2.032 . S
O1029 C1033 1.278 . S
C1030 O1031 1.203 . S
C1030 O1037 1.267 . S
O1031 C1030 1.203 . S
O1032 C1025 1.185 . S
O1032 Zn1028 2.086 . S
C1033 O1029 1.278 . S
C1033 O1034 1.211 . S
O1034 C1033 1.211 . S
C1035 O1027 1.284 . S
C1035 O1036 1.273 . S
O1036 C1035 1.273 . S
O1037 Zn1028 1.977 . S
O1037 C1030 1.267 . S
C1038 O1039 1.160 . S
C1038 O1045 1.185 . S
O1039 C1038 1.160 . S
O1040 Zn1041 1.899 . S
O1040 C1048 1.284 . S
Zn1041 O1040 1.899 . S
Zn1041 O1042 2.032 . S
Zn1041 O1045 2.086 . S
Zn1041 O1050 1.977 . S
O1042 Zn1041 2.032 . S
O1042 C1046 1.278 . S
C1043 O1044 1.203 . S
C1043 O1050 1.267 . S
O1044 C1043 1.203 . S
O1045 C1038 1.185 . S
O1045 Zn1041 2.086 . S
C1046 O1042 1.278 . S
C1046 O1047 1.211 . S
O1047 C1046 1.211 . S
C1048 O1040 1.284 . S
C1048 O1049 1.273 . S
O1049 C1048 1.273 . S
O1050 Zn1041 1.977 . S
O1050 C1043 1.267 . S
C1051 O1052 1.160 . S
C1051 O1058 1.185 . S
O1052 C1051 1.160 . S
O1053 Zn1054 1.899 . S
O1053 C1061 1.284 1_565 S
Zn1054 O1053 1.899 . S
Zn1054 O1055 2.032 1_565 S
Zn1054 O1058 2.086 . S
Zn1054 O1063 1.977 . S
O1055 Zn1054 2.032 1_545 S
O1055 C1059 1.278 . S
C1056 O1057 1.158 1_565 S
C1056 O1063 1.304 . S
O1057 C1056 1.158 1_545 S
O1058 C1051 1.185 . S
O1058 Zn1054 2.086 . S
C1059 O1055 1.278 . S
C1059 O1060 1.211 . S
O1060 C1059 1.211 . S
C1061 O1053 1.284 1_545 S
C1061 O1062 1.273 . S
O1062 C1061 1.273 . S
O1063 Zn1054 1.977 . S
O1063 C1056 1.304 . S
C1064 O1065 1.160 1_455 S
C1064 O1071 1.185 . S
O1065 C1064 1.160 1_655 S
O1066 Zn1067 1.899 1_655 S
O1066 C1074 1.284 . S
Zn1067 O1066 1.899 1_455 S
Zn1067 O1068 2.016 1_455 S
Zn1067 O1071 2.086 . S
Zn1067 O1076 1.977 . S
O1068 Zn1067 2.016 1_655 S
O1068 C1072 1.274 1_655 S
C1069 O1070 1.203 . S
C1069 O1076 1.267 . S
O1070 C1069 1.203 . S
O1071 C1064 1.185 . S
O1071 Zn1067 2.086 . S
C1072 O1068 1.274 1_455 S
C1072 O1073 1.230 . S
O1073 C1072 1.230 . S
C1074 O1066 1.284 . S
C1074 O1075 1.273 . S
O1075 C1074 1.273 . S
O1076 Zn1067 1.977 . S
O1076 C1069 1.267 . S
C1077 O1078 1.160 . S
C1077 O1084 1.185 . S
O1078 C1077 1.160 . S
O1079 Zn1080 1.899 . S
O1079 C1087 1.284 . S
Zn1080 O1079 1.899 . S
Zn1080 O1081 2.032 . S
Zn1080 O1084 2.086 . S
Zn1080 O1089 1.977 . S
O1081 Zn1080 2.032 . S
O1081 C1085 1.278 . S
C1082 O1083 1.203 . S
C1082 O1089 1.267 . S
O1083 C1082 1.203 . S
O1084 C1077 1.185 . S
O1084 Zn1080 2.086 . S
C1085 O1081 1.278 . S
C1085 O1086 1.211 . S
O1086 C1085 1.211 . S
C1087 O1079 1.284 . S
C1087 O1088 1.273 . S
O1088 C1087 1.273 . S
O1089 Zn1080 1.977 . S
O1089 C1082 1.267 . S
C1090 O1091 1.160 1_455 S
C1090 O1097 1.185 . S
O1091 C1090 1.160 1_655 S
O1092 Zn1093 1.899 1_655 S
O1092 C1100 1.284 . S
Zn1093 O1092 1.899 1_455 S
Zn1093 O1094 2.032 1_455 S
Zn1093 O1097 2.086 . S
Zn1093 O1102 1.977 . S
O1094 Zn1093 2.032 1_655 S
O1094 C1098 1.276 1_655 S
C1095 O1096 1.203 . S
C1095 O1102 1.267 . S
O1096 C1095 1.203 . S
O1097 C1090 1.185 . S
O1097 Zn1093 2.086 . S
C1098 O1094 1.276 1_455 S
C1098 O1099 1.215 . S
O1099 C1098 1.215 . S
C1100 O1092 1.284 . S
C1100 O1101 1.273 . S
O1101 C1100 1.273 . S
O1102 Zn1093 1.977 . S
O1102 C1095 1.267 . S
C1103 O1104 1.160 . S
C1103 O1110 1.185 . S
O1104 C1103 1.160 . S
O1105 Zn1106 1.899 . S
O1105 C1113 1.284 . S
Zn1106 O1105 1.899 . S
Zn1106 O1107 2.032 . S
Zn1106 O1110 2.086 . S
Zn1106 O1115 1.977 . S
O1107 Zn1106 2.032 . S
O1107 C1111 1.278 . S
C1108 O1109 1.203 . S
C1108 O1115 1.267 . S
O1109 C1108 1.203 . S
O1110 C1103 1.185 . S
O1110 Zn1106 2.086 . S
C1111 O1107 1.278 . S
C1111 O1112 1.211 . S
O1112 C1111 1.211 . S
C1113 O1105 1.284 . S
C1113 O1114 1.273 . S
O1114 C1113 1.273 . S
O1115 Zn1106 1.977 . S
O1115 C1108 1.267 . S
H1116 C1134 0.951 . S
H1117 C1136 0.951 . S
H1118 C1138 0.950 . S
H1119 C1139 0.950 . S
H1120 C1141 0.950 . S
H1121 C1144 0.950 . S
H1122 C1145 0.950 . S
H1123 C1147 0.950 . S
H1124 C1148 0.950 . S
H1125 C1149 0.951 . S
H1126 C1151 0.951 . S
H1127 C1153 0.950 . S
H1128 C1154 0.950 . S
H1129 C1156 0.950 . S
H1130 C1159 0.950 . S
H1131 C1160 0.950 . S
H1132 C1162 0.950 . S
H1133 C1163 0.950 . S
C1134 H1116 0.951 . S
C1134 C1135 1.366 . S
C1134 C1136 1.388 . S
C1135 C1134 1.366 . S
C1135 C1139 1.385 . S
C1136 H1117 0.951 . S
C1136 C1134 1.388 . S
C1136 C1137 1.366 . S
C1137 C1136 1.366 . S
C1137 C1138 1.414 . S
C1137 C1140 1.499 . S
C1138 H1118 0.950 . S
C1138 C1137 1.414 . S
C1138 C1139 1.374 . S
C1139 H1119 0.950 . S
C1139 C1135 1.385 . S
C1139 C1138 1.374 . S
C1140 C1137 1.499 . S
C1140 C1141 1.373 . S
C1140 C1142 1.389 . S
C1141 H1120 0.950 . S
C1141 C1140 1.373 . S
C1141 C1157 1.377 . S
C1142 C1140 1.389 . S
C1142 C1143 1.524 . S
C1142 C1156 1.377 . S
C1143 C1142 1.524 . S
C1143 C1144 1.397 . S
C1143 C1148 1.363 . S
C1144 H1121 0.950 . S
C1144 C1143 1.397 . S
C1144 C1145 1.334 . S
C1145 H1122 0.950 . S
C1145 C1144 1.334 . S
C1145 C1146 1.287 . S
C1146 C1145 1.287 . S
C1146 C1147 1.524 . S
C1146 H1165 0.913 . S
C1147 H1123 0.950 . S
C1147 C1146 1.524 . S
C1147 C1148 1.415 . S
C1148 H1124 0.950 . S
C1148 C1143 1.363 . S
C1148 C1147 1.415 . S
C1149 H1125 0.951 . S
C1149 C1150 1.366 . S
C1149 C1151 1.388 . S
C1150 C1149 1.366 . S
C1150 C1154 1.385 . S
C1151 H1126 0.951 . S
C1151 C1149 1.388 . S
C1151 C1152 1.366 . S
C1152 C1151 1.366 . S
C1152 C1153 1.414 . S
C1152 C1155 1.499 . S
C1153 H1127 0.950 . S
C1153 C1152 1.414 . S
C1153 C1154 1.374 . S
C1154 H1128 0.950 . S
C1154 C1150 1.385 . S
C1154 C1153 1.374 . S
C1155 C1152 1.499 . S
C1155 C1156 1.373 . S
C1155 C1157 1.389 . S
C1156 H1129 0.950 . S
C1156 C1142 1.377 . S
C1156 C1155 1.373 . S
C1157 C1141 1.377 . S
C1157 C1155 1.389 . S
C1157 C1158 1.524 . S
C1158 C1157 1.524 . S
C1158 C1159 1.397 . S
C1158 C1163 1.363 . S
C1159 H1130 0.950 . S
C1159 C1158 1.397 . S
C1159 C1160 1.334 . S
C1160 H1131 0.950 . S
C1160 C1159 1.334 . S
C1160 C1161 1.287 . S
C1161 C1160 1.287 . S
C1161 C1162 1.524 . S
C1161 H1164 0.999 . S
C1162 H1132 0.950 . S
C1162 C1161 1.524 . S
C1162 C1163 1.415 . S
C1163 H1133 0.950 . S
C1163 C1158 1.363 . S
C1163 C1162 1.415 . S
H1164 C1161 0.999 . S
H1165 C1146 0.913 . S
H1166 C1184 0.951 . S
H1167 C1186 0.951 . S
H1168 C1188 0.950 . S
H1169 C1189 0.950 . S
H1170 C1191 0.950 . S
H1171 C1194 0.950 . S
H1172 C1195 0.950 . S
H1173 C1197 0.950 . S
H1174 C1198 0.950 . S
H1175 C1199 0.951 . S
H1176 C1201 0.951 . S
H1177 C1203 0.950 . S
H1178 C1204 0.950 . S
H1179 C1206 0.950 . S
H1180 C1209 0.950 . S
H1181 C1210 0.950 . S
H1182 C1212 0.950 . S
H1183 C1213 0.950 . S
C1184 H1166 0.951 . S
C1184 C1185 1.366 . S
C1184 C1186 1.388 . S
C1185 C1184 1.366 . S
C1185 C1189 1.385 . S
C1186 H1167 0.951 . S
C1186 C1184 1.388 . S
C1186 C1187 1.366 . S
C1187 C1186 1.366 . S
C1187 C1188 1.414 . S
C1187 C1190 1.499 . S
C1188 H1168 0.950 . S
C1188 C1187 1.414 . S
C1188 C1189 1.374 . S
C1189 H1169 0.950 . S
C1189 C1185 1.385 . S
C1189 C1188 1.374 . S
C1190 C1187 1.499 . S
C1190 C1191 1.373 . S
C1190 C1192 1.389 . S
C1191 H1170 0.950 . S
C1191 C1190 1.373 . S
C1191 C1207 1.377 . S
C1192 C1190 1.389 . S
C1192 C1193 1.524 . S
C1192 C1206 1.377 . S
C1193 C1192 1.524 . S
C1193 C1194 1.397 . S
C1193 C1198 1.363 . S
C1194 H1171 0.950 . S
C1194 C1193 1.397 . S
C1194 C1195 1.334 . S
C1195 H1172 0.950 . S
C1195 C1194 1.334 . S
C1195 C1196 1.287 . S
C1196 C1195 1.287 . S
C1196 C1197 1.524 . S
C1196 H1215 0.913 . S
C1197 H1173 0.950 . S
C1197 C1196 1.524 . S
C1197 C1198 1.415 . S
C1198 H1174 0.950 . S
C1198 C1193 1.363 . S
C1198 C1197 1.415 . S
C1199 H1175 0.951 . S
C1199 C1200 1.366 . S
C1199 C1201 1.388 . S
C1200 C1199 1.366 . S
C1200 C1204 1.385 . S
C1201 H1176 0.951 . S
C1201 C1199 1.388 . S
C1201 C1202 1.366 . S
C1202 C1201 1.366 . S
C1202 C1203 1.414 . S
C1202 C1205 1.499 . S
C1203 H1177 0.950 . S
C1203 C1202 1.414 . S
C1203 C1204 1.374 . S
C1204 H1178 0.950 . S
C1204 C1200 1.385 . S
C1204 C1203 1.374 . S
C1205 C1202 1.499 . S
C1205 C1206 1.373 . S
C1205 C1207 1.389 . S
C1206 H1179 0.950 . S
C1206 C1192 1.377 . S
C1206 C1205 1.373 . S
C1207 C1191 1.377 . S
C1207 C1205 1.389 . S
C1207 C1208 1.524 . S
C1208 C1207 1.524 . S
C1208 C1209 1.397 . S
C1208 C1213 1.363 . S
C1209 H1180 0.950 . S
C1209 C1208 1.397 . S
C1209 C1210 1.334 . S
C1210 H1181 0.950 . S
C1210 C1209 1.334 . S
C1210 C1211 1.287 . S
C1211 C1210 1.287 . S
C1211 C1212 1.524 . S
C1211 H1214 0.999 . S
C1212 H1182 0.950 . S
C1212 C1211 1.524 . S
C1212 C1213 1.415 . S
C1213 H1183 0.950 . S
C1213 C1208 1.363 . S
C1213 C1212 1.415 . S
H1214 C1211 0.999 . S
H1215 C1196 0.913 . S
H1216 C1234 0.951 . S
H1217 C1236 0.951 . S
H1218 C1238 0.950 . S
H1219 C1239 0.950 . S
H1220 C1241 0.950 . S
H1221 C1244 0.950 . S
H1222 C1245 0.950 . S
H1223 C1247 0.950 . S
H1224 C1248 0.950 . S
H1225 C1249 0.951 . S
H1226 C1251 0.951 . S
H1227 C1253 0.950 . S
H1228 C1254 0.950 . S
H1229 C1256 0.950 . S
H1230 C1259 0.950 . S
H1231 C1260 0.950 . S
H1232 C1262 0.950 . S
H1233 C1263 0.950 . S
C1234 H1216 0.951 . S
C1234 C1235 1.366 . S
C1234 C1236 1.388 . S
C1235 C1234 1.366 . S
C1235 C1239 1.385 . S
C1236 H1217 0.951 . S
C1236 C1234 1.388 . S
C1236 C1237 1.366 . S
C1237 C1236 1.366 . S
C1237 C1238 1.414 . S
C1237 C1240 1.499 . S
C1238 H1218 0.950 . S
C1238 C1237 1.414 . S
C1238 C1239 1.374 . S
C1239 H1219 0.950 . S
C1239 C1235 1.385 . S
C1239 C1238 1.374 . S
C1240 C1237 1.499 . S
C1240 C1241 1.373 . S
C1240 C1242 1.389 . S
C1241 H1220 0.950 . S
C1241 C1240 1.373 . S
C1241 C1257 1.377 . S
C1242 C1240 1.389 . S
C1242 C1243 1.524 . S
C1242 C1256 1.377 . S
C1243 C1242 1.524 . S
C1243 C1244 1.397 . S
C1243 C1248 1.363 . S
C1244 H1221 0.950 . S
C1244 C1243 1.397 . S
C1244 C1245 1.334 . S
C1245 H1222 0.950 . S
C1245 C1244 1.334 . S
C1245 C1246 1.287 . S
C1246 C1245 1.287 . S
C1246 C1247 1.524 . S
C1246 H1265 0.913 . S
C1247 H1223 0.950 . S
C1247 C1246 1.524 . S
C1247 C1248 1.415 . S
C1248 H1224 0.950 . S
C1248 C1243 1.363 . S
C1248 C1247 1.415 . S
C1249 H1225 0.951 . S
C1249 C1250 1.366 . S
C1249 C1251 1.388 . S
C1250 C1249 1.366 . S
C1250 C1254 1.385 . S
C1251 H1226 0.951 . S
C1251 C1249 1.388 . S
C1251 C1252 1.366 . S
C1252 C1251 1.366 . S
C1252 C1253 1.414 . S
C1252 C1255 1.499 . S
C1253 H1227 0.950 . S
C1253 C1252 1.414 . S
C1253 C1254 1.374 . S
C1254 H1228 0.950 . S
C1254 C1250 1.385 . S
C1254 C1253 1.374 . S
C1255 C1252 1.499 . S
C1255 C1256 1.373 . S
C1255 C1257 1.389 . S
C1256 H1229 0.950 . S
C1256 C1242 1.377 . S
C1256 C1255 1.373 . S
C1257 C1241 1.377 . S
C1257 C1255 1.389 . S
C1257 C1258 1.524 . S
C1258 C1257 1.524 . S
C1258 C1259 1.397 . S
C1258 C1263 1.363 . S
C1259 H1230 0.950 . S
C1259 C1258 1.397 . S
C1259 C1260 1.334 . S
C1260 H1231 0.950 . S
C1260 C1259 1.334 . S
C1260 C1261 1.287 . S
C1261 C1260 1.287 . S
C1261 C1262 1.524 . S
C1261 H1264 0.999 . S
C1262 H1232 0.950 . S
C1262 C1261 1.524 . S
C1262 C1263 1.415 . S
C1263 H1233 0.950 . S
C1263 C1258 1.363 . S
C1263 C1262 1.415 . S
H1264 C1261 0.999 . S
H1265 C1246 0.913 . S
H1266 C1284 1.004 . S
H1267 C1286 0.951 . S
H1268 C1288 0.950 . S
H1269 C1289 0.950 . S
H1270 C1291 0.950 . S
H1271 C1294 0.950 1_565 S
H1272 C1295 0.950 . S
H1273 C1297 0.950 . S
H1274 C1298 0.950 . S
H1275 C1299 0.951 . S
H1276 C1301 0.951 . S
H1277 C1303 0.950 . S
H1278 C1304 0.950 . S
H1279 C1306 0.950 . S
H1280 C1309 0.950 1_545 S
H1281 C1310 0.950 . S
H1282 C1312 0.950 . S
H1283 C1313 0.950 . S
C1284 H1266 1.004 . S
C1284 C1285 1.302 1_545 S
C1284 C1286 1.402 . S
C1285 C1284 1.302 1_565 S
C1285 C1289 1.385 . S
C1286 H1267 0.951 . S
C1286 C1284 1.402 . S
C1286 C1287 1.366 1_545 S
C1287 C1286 1.366 1_565 S
C1287 C1288 1.414 . S
C1287 C1290 1.499 . S
C1288 H1268 0.950 . S
C1288 C1287 1.414 . S
C1288 C1289 1.374 . S
C1289 H1269 0.950 . S
C1289 C1285 1.385 . S
C1289 C1288 1.374 . S
C1290 C1287 1.499 . S
C1290 C1291 1.373 . S
C1290 C1292 1.389 1_565 S
C1291 H1270 0.950 . S
C1291 C1290 1.373 . S
C1291 C1307 1.377 . S
C1292 C1290 1.389 1_545 S
C1292 C1293 1.524 . S
C1292 C1306 1.377 . S
C1293 C1292 1.524 . S
C1293 C1294 1.397 . S
C1293 C1298 1.363 . S
C1294 H1271 0.950 1_545 S
C1294 C1293 1.397 . S
C1294 C1295 1.334 . S
C1295 H1272 0.950 . S
C1295 C1294 1.334 . S
C1295 C1296 1.287 . S
C1296 C1295 1.287 . S
C1296 C1297 1.524 . S
C1296 H1315 0.913 . S
C1297 H1273 0.950 . S
C1297 C1296 1.524 . S
C1297 C1298 1.415 . S
C1298 H1274 0.950 . S
C1298 C1293 1.363 . S
C1298 C1297 1.415 . S
C1299 H1275 0.951 . S
C1299 C1300 1.366 1_565 S
C1299 C1301 1.388 . S
C1300 C1299 1.366 1_545 S
C1300 C1304 1.385 . S
C1301 H1276 0.951 . S
C1301 C1299 1.388 . S
C1301 C1302 1.366 1_565 S
C1302 C1301 1.366 1_545 S
C1302 C1303 1.414 . S
C1302 C1305 1.491 1_545 S
C1303 H1277 0.950 . S
C1303 C1302 1.414 . S
C1303 C1304 1.374 . S
C1304 H1278 0.950 . S
C1304 C1300 1.385 . S
C1304 C1303 1.374 . S
C1305 C1302 1.491 1_565 S
C1305 C1306 1.351 1_565 S
C1305 C1307 1.424 . S
C1306 H1279 0.950 . S
C1306 C1292 1.377 . S
C1306 C1305 1.351 1_545 S
C1307 C1291 1.377 . S
C1307 C1305 1.424 . S
C1307 C1308 1.524 . S
C1308 C1307 1.524 . S
C1308 C1309 1.397 . S
C1308 C1313 1.363 . S
C1309 H1280 0.950 1_565 S
C1309 C1308 1.397 . S
C1309 C1310 1.334 . S
C1310 H1281 0.950 . S
C1310 C1309 1.334 . S
C1310 C1311 1.287 . S
C1311 C1310 1.287 . S
C1311 C1312 1.524 . S
C1311 H1314 0.999 . S
C1312 H1282 0.950 . S
C1312 C1311 1.524 . S
C1312 C1313 1.415 . S
C1313 H1283 0.950 . S
C1313 C1308 1.363 . S
C1313 C1312 1.415 . S
H1314 C1311 0.999 . S
H1315 C1296 0.913 . S
H1316 C1334 0.951 . S
H1317 C1336 0.951 . S
H1318 C1338 0.950 . S
H1319 C1339 0.950 . S
H1320 C1341 0.950 . S
H1321 C1344 0.950 . S
H1322 C1345 0.950 . S
H1323 C1347 0.950 . S
H1324 C1348 0.950 . S
H1325 C1349 0.951 . S
H1326 C1351 0.951 . S
H1327 C1353 0.950 . S
H1328 C1354 0.950 . S
H1329 C1356 0.950 . S
H1330 C1359 0.950 . S
H1331 C1360 0.950 . S
H1332 C1362 0.950 . S
H1333 C1363 0.950 . S
C1334 H1316 0.951 . S
C1334 C1335 1.366 . S
C1334 C1336 1.388 . S
C1335 C1334 1.366 . S
C1335 C1339 1.385 . S
C1336 H1317 0.951 . S
C1336 C1334 1.388 . S
C1336 C1337 1.366 . S
C1337 C1336 1.366 . S
C1337 C1338 1.414 . S
C1337 C1340 1.499 . S
C1338 H1318 0.950 . S
C1338 C1337 1.414 . S
C1338 C1339 1.374 . S
C1339 H1319 0.950 . S
C1339 C1335 1.385 . S
C1339 C1338 1.374 . S
C1340 C1337 1.499 . S
C1340 C1341 1.373 . S
C1340 C1342 1.389 . S
C1341 H1320 0.950 . S
C1341 C1340 1.373 . S
C1341 C1357 1.377 . S
C1342 C1340 1.389 . S
C1342 C1343 1.524 . S
C1342 C1356 1.377 . S
C1343 C1342 1.524 . S
C1343 C1344 1.397 . S
C1343 C1348 1.363 . S
C1344 H1321 0.950 . S
C1344 C1343 1.397 . S
C1344 C1345 1.334 . S
C1345 H1322 0.950 . S
C1345 C1344 1.334 . S
C1345 C1346 1.287 . S
C1346 C1345 1.287 . S
C1346 C1347 1.524 . S
C1346 H1365 0.913 . S
C1347 H1323 0.950 . S
C1347 C1346 1.524 . S
C1347 C1348 1.415 . S
C1348 H1324 0.950 . S
C1348 C1343 1.363 . S
C1348 C1347 1.415 . S
C1349 H1325 0.951 . S
C1349 C1350 1.366 . S
C1349 C1351 1.388 . S
C1350 C1349 1.366 . S
C1350 C1354 1.385 . S
C1351 H1326 0.951 . S
C1351 C1349 1.388 . S
C1351 C1352 1.366 . S
C1352 C1351 1.366 . S
C1352 C1353 1.414 . S
C1352 C1355 1.499 . S
C1353 H1327 0.950 . S
C1353 C1352 1.414 . S
C1353 C1354 1.374 . S
C1354 H1328 0.950 . S
C1354 C1350 1.385 . S
C1354 C1353 1.374 . S
C1355 C1352 1.499 . S
C1355 C1356 1.373 . S
C1355 C1357 1.389 . S
C1356 H1329 0.950 . S
C1356 C1342 1.377 . S
C1356 C1355 1.373 . S
C1357 C1341 1.377 . S
C1357 C1355 1.389 . S
C1357 C1358 1.524 . S
C1358 C1357 1.524 . S
C1358 C1359 1.397 . S
C1358 C1363 1.363 . S
C1359 H1330 0.950 . S
C1359 C1358 1.397 . S
C1359 C1360 1.334 . S
C1360 H1331 0.950 . S
C1360 C1359 1.334 . S
C1360 C1361 1.287 . S
C1361 C1360 1.287 . S
C1361 C1362 1.524 . S
C1361 H1364 0.999 . S
C1362 H1332 0.950 . S
C1362 C1361 1.524 . S
C1362 C1363 1.415 . S
C1363 H1333 0.950 . S
C1363 C1358 1.363 . S
C1363 C1362 1.415 . S
H1364 C1361 0.999 . S
H1365 C1346 0.913 . S
H1366 C1384 0.951 . S
H1367 C1386 0.951 . S
H1368 C1388 0.950 . S
H1369 C1389 0.950 . S
H1370 C1391 0.950 . S
H1371 C1394 0.950 . S
H1372 C1395 0.950 . S
H1373 C1397 0.950 . S
H1374 C1398 0.950 . S
H1375 C1399 0.951 . S
H1376 C1401 0.951 . S
H1377 C1403 0.950 . S
H1378 C1404 0.950 . S
H1379 C1406 0.950 . S
H1380 C1409 0.950 . S
H1381 C1410 0.950 . S
H1382 C1412 0.950 . S
H1383 C1413 0.950 . S
C1384 H1366 0.951 . S
C1384 C1385 1.366 . S
C1384 C1386 1.388 . S
C1385 C1384 1.366 . S
C1385 C1389 1.385 . S
C1386 H1367 0.951 . S
C1386 C1384 1.388 . S
C1386 C1387 1.366 . S
C1387 C1386 1.366 . S
C1387 C1388 1.414 . S
C1387 C1390 1.499 . S
C1388 H1368 0.950 . S
C1388 C1387 1.414 . S
C1388 C1389 1.374 . S
C1389 H1369 0.950 . S
C1389 C1385 1.385 . S
C1389 C1388 1.374 . S
C1390 C1387 1.499 . S
C1390 C1391 1.373 . S
C1390 C1392 1.389 . S
C1391 H1370 0.950 . S
C1391 C1390 1.373 . S
C1391 C1407 1.377 . S
C1392 C1390 1.389 . S
C1392 C1393 1.524 . S
C1392 C1406 1.377 . S
C1393 C1392 1.524 . S
C1393 C1394 1.397 . S
C1393 C1398 1.363 . S
C1394 H1371 0.950 . S
C1394 C1393 1.397 . S
C1394 C1395 1.334 . S
C1395 H1372 0.950 . S
C1395 C1394 1.334 . S
C1395 C1396 1.287 . S
C1396 C1395 1.287 . S
C1396 C1397 1.524 . S
C1396 H1415 0.913 . S
C1397 H1373 0.950 . S
C1397 C1396 1.524 . S
C1397 C1398 1.415 . S
C1398 H1374 0.950 . S
C1398 C1393 1.363 . S
C1398 C1397 1.415 . S
C1399 H1375 0.951 . S
C1399 C1400 1.366 . S
C1399 C1401 1.388 . S
C1400 C1399 1.366 . S
C1400 C1404 1.385 . S
C1401 H1376 0.951 . S
C1401 C1399 1.388 . S
C1401 C1402 1.366 . S
C1402 C1401 1.366 . S
C1402 C1403 1.414 . S
C1402 C1405 1.499 . S
C1403 H1377 0.950 . S
C1403 C1402 1.414 . S
C1403 C1404 1.374 . S
C1404 H1378 0.950 . S
C1404 C1400 1.385 . S
C1404 C1403 1.374 . S
C1405 C1402 1.499 . S
C1405 C1406 1.373 . S
C1405 C1407 1.389 . S
C1406 H1379 0.950 . S
C1406 C1392 1.377 . S
C1406 C1405 1.373 . S
C1407 C1391 1.377 . S
C1407 C1405 1.389 . S
C1407 C1408 1.524 . S
C1408 C1407 1.524 . S
C1408 C1409 1.397 . S
C1408 C1413 1.363 . S
C1409 H1380 0.950 . S
C1409 C1408 1.397 . S
C1409 C1410 1.334 . S
C1410 H1381 0.950 . S
C1410 C1409 1.334 . S
C1410 C1411 1.287 . S
C1411 C1410 1.287 . S
C1411 C1412 1.524 . S
C1411 H1414 0.999 . S
C1412 H1382 0.950 . S
C1412 C1411 1.524 . S
C1412 C1413 1.415 . S
C1413 H1383 0.950 . S
C1413 C1408 1.363 . S
C1413 C1412 1.415 . S
H1414 C1411 0.999 . S
H1415 C1396 0.913 . S
H1416 C1434 0.951 . S
H1417 C1436 0.951 . S
H1418 C1438 0.950 . S
H1419 C1439 0.950 . S
H1420 C1441 0.950 . S
H1421 C1444 0.950 . S
H1422 C1445 0.950 . S
H1423 C1447 0.950 . S
H1424 C1448 0.950 . S
H1425 C1449 0.951 . S
H1426 C1451 0.951 . S
H1427 C1453 0.950 . S
H1428 C1454 0.950 . S
H1429 C1456 0.950 . S
H1430 C1459 0.950 . S
H1431 C1460 0.950 . S
H1432 C1462 0.950 . S
H1433 C1463 0.950 . S
C1434 H1416 0.951 . S
C1434 C1435 1.366 . S
C1434 C1436 1.388 . S
C1435 C1434 1.366 . S
C1435 C1439 1.385 . S
C1436 H1417 0.951 . S
C1436 C1434 1.388 . S
C1436 C1437 1.366 . S
C1437 C1436 1.366 . S
C1437 C1438 1.414 . S
C1437 C1440 1.499 . S
C1438 H1418 0.950 . S
C1438 C1437 1.414 . S
C1438 C1439 1.374 . S
C1439 H1419 0.950 . S
C1439 C1435 1.385 . S
C1439 C1438 1.374 . S
C1440 C1437 1.499 . S
C1440 C1441 1.373 . S
C1440 C1442 1.389 . S
C1441 H1420 0.950 . S
C1441 C1440 1.373 . S
C1441 C1457 1.377 . S
C1442 C1440 1.389 . S
C1442 C1443 1.524 . S
C1442 C1456 1.377 . S
C1443 C1442 1.524 . S
C1443 C1444 1.397 . S
C1443 C1448 1.363 . S
C1444 H1421 0.950 . S
C1444 C1443 1.397 . S
C1444 C1445 1.334 . S
C1445 H1422 0.950 . S
C1445 C1444 1.334 . S
C1445 C1446 1.287 . S
C1446 C1445 1.287 . S
C1446 C1447 1.524 . S
C1446 H1465 0.913 . S
C1447 H1423 0.950 . S
C1447 C1446 1.524 . S
C1447 C1448 1.415 . S
C1448 H1424 0.950 . S
C1448 C1443 1.363 . S
C1448 C1447 1.415 . S
C1449 H1425 0.951 . S
C1449 C1450 1.366 . S
C1449 C1451 1.388 . S
C1450 C1449 1.366 . S
C1450 C1454 1.385 . S
C1451 H1426 0.951 . S
C1451 C1449 1.388 . S
C1451 C1452 1.366 . S
C1452 C1451 1.366 . S
C1452 C1453 1.414 . S
C1452 C1455 1.499 . S
C1453 H1427 0.950 . S
C1453 C1452 1.414 . S
C1453 C1454 1.374 . S
C1454 H1428 0.950 . S
C1454 C1450 1.385 . S
C1454 C1453 1.374 . S
C1455 C1452 1.499 . S
C1455 C1456 1.373 . S
C1455 C1457 1.389 . S
C1456 H1429 0.950 . S
C1456 C1442 1.377 . S
C1456 C1455 1.373 . S
C1457 C1441 1.377 . S
C1457 C1455 1.389 . S
C1457 C1458 1.524 . S
C1458 C1457 1.524 . S
C1458 C1459 1.397 . S
C1458 C1463 1.363 . S
C1459 H1430 0.950 . S
C1459 C1458 1.397 . S
C1459 C1460 1.334 . S
C1460 H1431 0.950 . S
C1460 C1459 1.334 . S
C1460 C1461 1.287 . S
C1461 C1460 1.287 . S
C1461 C1462 1.524 . S
C1461 H1464 0.999 . S
C1462 H1432 0.950 . S
C1462 C1461 1.524 . S
C1462 C1463 1.415 . S
C1463 H1433 0.950 . S
C1463 C1458 1.363 . S
C1463 C1462 1.415 . S
H1464 C1461 0.999 . S
H1465 C1446 0.913 . S
H1466 C1484 0.951 . S
H1467 C1486 0.951 . S
H1468 C1488 0.950 . S
H1469 C1489 0.950 . S
H1470 C1491 0.950 . S
H1471 C1494 0.950 . S
H1472 C1495 0.950 . S
H1473 C1497 0.950 . S
H1474 C1498 0.950 . S
H1475 C1499 0.940 1_545 S
H1476 C1501 0.944 1_545 S
H1477 C1503 0.950 . S
H1478 C1504 0.950 . S
H1479 C1506 0.982 . S
H1480 C1509 0.950 . S
H1481 C1510 0.950 . S
H1482 C1512 0.950 . S
H1483 C1513 0.950 . S
C1484 H1466 0.951 . S
C1484 C1485 1.366 . S
C1484 C1486 1.388 . S
C1485 C1484 1.366 . S
C1485 C1489 1.385 . S
C1486 H1467 0.951 . S
C1486 C1484 1.388 . S
C1486 C1487 1.366 . S
C1487 C1486 1.366 . S
C1487 C1488 1.414 . S
C1487 C1490 1.499 . S
C1488 H1468 0.950 . S
C1488 C1487 1.414 . S
C1488 C1489 1.374 . S
C1489 H1469 0.950 . S
C1489 C1485 1.385 . S
C1489 C1488 1.374 . S
C1490 C1487 1.499 . S
C1490 C1491 1.373 . S
C1490 C1492 1.389 . S
C1491 H1470 0.950 . S
C1491 C1490 1.373 . S
C1491 C1507 1.377 . S
C1492 C1490 1.389 . S
C1492 C1493 1.524 1_565 S
C1492 C1506 1.377 . S
C1493 C1492 1.524 1_545 S
C1493 C1494 1.397 . S
C1493 C1498 1.363 1_545 S
C1494 H1471 0.950 . S
C1494 C1493 1.397 . S
C1494 C1495 1.334 . S
C1495 H1472 0.950 . S
C1495 C1494 1.334 . S
C1495 C1496 1.287 . S
C1496 C1495 1.287 . S
C1496 C1497 1.524 . S
C1496 H1515 0.913 . S
C1497 H1473 0.950 . S
C1497 C1496 1.524 . S
C1497 C1498 1.415 1_545 S
C1498 H1474 0.950 . S
C1498 C1493 1.363 1_565 S
C1498 C1497 1.415 1_565 S
C1499 H1475 0.940 1_565 S
C1499 C1500 1.375 . S
C1499 C1501 1.391 . S
C1500 C1499 1.375 . S
C1500 C1504 1.385 . S
C1501 H1476 0.944 1_565 S
C1501 C1499 1.391 . S
C1501 C1502 1.366 . S
C1502 C1501 1.366 . S
C1502 C1503 1.414 . S
C1502 C1505 1.499 . S
C1503 H1477 0.950 . S
C1503 C1502 1.414 . S
C1503 C1504 1.374 . S
C1504 H1478 0.950 . S
C1504 C1500 1.385 . S
C1504 C1503 1.374 . S
C1505 C1502 1.499 . S
C1505 C1506 1.373 . S
C1505 C1507 1.389 . S
C1506 H1479 0.982 . S
C1506 C1492 1.377 . S
C1506 C1505 1.373 . S
C1507 C1491 1.377 . S
C1507 C1505 1.389 . S
C1507 C1508 1.524 . S
C1508 C1507 1.524 . S
C1508 C1509 1.397 . S
C1508 C1513 1.363 . S
C1509 H1480 0.950 . S
C1509 C1508 1.397 . S
C1509 C1510 1.334 . S
C1510 H1481 0.950 . S
C1510 C1509 1.334 . S
C1510 C1511 1.287 . S
C1511 C1510 1.287 . S
C1511 C1512 1.524 . S
C1511 H1514 0.999 . S
C1512 H1482 0.950 . S
C1512 C1511 1.524 . S
C1512 C1513 1.415 . S
C1513 H1483 0.950 . S
C1513 C1508 1.363 . S
C1513 C1512 1.415 . S
H1514 C1511 0.999 . S
H1515 C1496 0.913 . S
H1516 C1534 0.951 . S
H1517 C1536 0.951 . S
H1518 C1538 0.950 . S
H1519 C1539 0.950 . S
H1520 C1541 0.950 . S
H1521 C1544 0.950 . S
H1522 C1545 0.950 . S
H1523 C1547 0.950 . S
H1524 C1548 0.950 . S
H1525 C1549 0.951 . S
H1526 C1551 0.951 . S
H1527 C1553 0.950 . S
H1528 C1554 0.950 . S
H1529 C1556 0.950 . S
H1530 C1559 0.950 . S
H1531 C1560 0.950 . S
H1532 C1562 0.950 . S
H1533 C1563 0.950 . S
C1534 H1516 0.951 . S
C1534 C1535 1.366 . S
C1534 C1536 1.388 . S
C1535 C1534 1.366 . S
C1535 C1539 1.385 . S
C1536 H1517 0.951 . S
C1536 C1534 1.388 . S
C1536 C1537 1.366 . S
C1537 C1536 1.366 . S
C1537 C1538 1.414 . S
C1537 C1540 1.499 . S
C1538 H1518 0.950 . S
C1538 C1537 1.414 . S
C1538 C1539 1.374 . S
C1539 H1519 0.950 . S
C1539 C1535 1.385 . S
C1539 C1538 1.374 . S
C1540 C1537 1.499 . S
C1540 C1541 1.373 . S
C1540 C1542 1.389 . S
C1541 H1520 0.950 . S
C1541 C1540 1.373 . S
C1541 C1557 1.377 . S
C1542 C1540 1.389 . S
C1542 C1543 1.524 . S
C1542 C1556 1.377 . S
C1543 C1542 1.524 . S
C1543 C1544 1.397 . S
C1543 C1548 1.363 . S
C1544 H1521 0.950 . S
C1544 C1543 1.397 . S
C1544 C1545 1.334 . S
C1545 H1522 0.950 . S
C1545 C1544 1.334 . S
C1545 C1546 1.287 . S
C1546 C1545 1.287 . S
C1546 C1547 1.524 . S
C1546 H1565 0.913 . S
C1547 H1523 0.950 . S
C1547 C1546 1.524 . S
C1547 C1548 1.415 . S
C1548 H1524 0.950 . S
C1548 C1543 1.363 . S
C1548 C1547 1.415 . S
C1549 H1525 0.951 . S
C1549 C1550 1.366 . S
C1549 C1551 1.388 . S
C1550 C1549 1.366 . S
C1550 C1554 1.385 . S
C1551 H1526 0.951 . S
C1551 C1549 1.388 . S
C1551 C1552 1.366 . S
C1552 C1551 1.366 . S
C1552 C1553 1.414 . S
C1552 C1555 1.499 . S
C1553 H1527 0.950 . S
C1553 C1552 1.414 . S
C1553 C1554 1.374 . S
C1554 H1528 0.950 . S
C1554 C1550 1.385 . S
C1554 C1553 1.374 . S
C1555 C1552 1.499 . S
C1555 C1556 1.373 . S
C1555 C1557 1.389 . S
C1556 H1529 0.950 . S
C1556 C1542 1.377 . S
C1556 C1555 1.373 . S
C1557 C1541 1.377 . S
C1557 C1555 1.389 . S
C1557 C1558 1.524 . S
C1558 C1557 1.524 . S
C1558 C1559 1.397 . S
C1558 C1563 1.363 . S
C1559 H1530 0.950 . S
C1559 C1558 1.397 . S
C1559 C1560 1.334 . S
C1560 H1531 0.950 . S
C1560 C1559 1.334 . S
C1560 C1561 1.287 . S
C1561 C1560 1.287 . S
C1561 C1562 1.524 . S
C1561 H1564 0.999 . S
C1562 H1532 0.950 . S
C1562 C1561 1.524 . S
C1562 C1563 1.415 . S
C1563 H1533 0.950 . S
C1563 C1558 1.363 . S
C1563 C1562 1.415 . S
H1564 C1561 0.999 . S
H1565 C1546 0.913 . S
H1566 C1584 0.951 . S
H1567 C1586 0.951 . S
H1568 C1588 0.950 . S
H1569 C1589 0.950 . S
H1570 C1591 0.950 . S
H1571 C1594 0.950 . S
H1572 C1595 0.950 . S
H1573 C1597 0.950 . S
H1574 C1598 0.950 . S
H1575 C1599 0.951 . S
H1576 C1601 0.951 . S
H1577 C1603 0.950 . S
H1578 C1604 0.950 . S
H1579 C1606 0.950 . S
H1580 C1609 0.950 . S
H1581 C1610 0.950 . S
H1582 C1612 0.950 . S
H1583 C1613 0.950 . S
C1584 H1566 0.951 . S
C1584 C1585 1.366 . S
C1584 C1586 1.388 . S
C1585 C1584 1.366 . S
C1585 C1589 1.385 . S
C1586 H1567 0.951 . S
C1586 C1584 1.388 . S
C1586 C1587 1.366 . S
C1587 C1586 1.366 . S
C1587 C1588 1.414 . S
C1587 C1590 1.499 . S
C1588 H1568 0.950 . S
C1588 C1587 1.414 . S
C1588 C1589 1.374 . S
C1589 H1569 0.950 . S
C1589 C1585 1.385 . S
C1589 C1588 1.374 . S
C1590 C1587 1.499 . S
C1590 C1591 1.373 . S
C1590 C1592 1.389 . S
C1591 H1570 0.950 . S
C1591 C1590 1.373 . S
C1591 C1607 1.377 . S
C1592 C1590 1.389 . S
C1592 C1593 1.524 . S
C1592 C1606 1.377 . S
C1593 C1592 1.524 . S
C1593 C1594 1.397 . S
C1593 C1598 1.363 . S
C1594 H1571 0.950 . S
C1594 C1593 1.397 . S
C1594 C1595 1.334 . S
C1595 H1572 0.950 . S
C1595 C1594 1.334 . S
C1595 C1596 1.287 . S
C1596 C1595 1.287 . S
C1596 C1597 1.524 . S
C1596 H1615 0.913 . S
C1597 H1573 0.950 . S
C1597 C1596 1.524 . S
C1597 C1598 1.415 . S
C1598 H1574 0.950 . S
C1598 C1593 1.363 . S
C1598 C1597 1.415 . S
C1599 H1575 0.951 . S
C1599 C1600 1.366 . S
C1599 C1601 1.388 . S
C1600 C1599 1.366 . S
C1600 C1604 1.385 . S
C1601 H1576 0.951 . S
C1601 C1599 1.388 . S
C1601 C1602 1.366 . S
C1602 C1601 1.366 . S
C1602 C1603 1.414 . S
C1602 C1605 1.499 . S
C1603 H1577 0.950 . S
C1603 C1602 1.414 . S
C1603 C1604 1.374 . S
C1604 H1578 0.950 . S
C1604 C1600 1.385 . S
C1604 C1603 1.374 . S
C1605 C1602 1.499 . S
C1605 C1606 1.373 . S
C1605 C1607 1.389 . S
C1606 H1579 0.950 . S
C1606 C1592 1.377 . S
C1606 C1605 1.373 . S
C1607 C1591 1.377 . S
C1607 C1605 1.389 . S
C1607 C1608 1.524 . S
C1608 C1607 1.524 . S
C1608 C1609 1.397 . S
C1608 C1613 1.363 . S
C1609 H1580 0.950 . S
C1609 C1608 1.397 . S
C1609 C1610 1.334 . S
C1610 H1581 0.950 . S
C1610 C1609 1.334 . S
C1610 C1611 1.287 . S
C1611 C1610 1.287 . S
C1611 C1612 1.524 . S
C1611 H1614 0.999 . S
C1612 H1582 0.950 . S
C1612 C1611 1.524 . S
C1612 C1613 1.415 . S
C1613 H1583 0.950 . S
C1613 C1608 1.363 . S
C1613 C1612 1.415 . S
H1614 C1611 0.999 . S
H1615 C1596 0.913 . S
H1616 C1634 0.951 . S
H1617 C1636 0.951 . S
H1618 C1638 0.950 . S
H1619 C1639 0.950 . S
H1620 C1641 0.950 . S
H1621 C1644 0.950 . S
H1622 C1645 0.950 . S
H1623 C1647 0.950 . S
H1624 C1648 0.950 . S
H1625 C1649 0.951 . S
H1626 C1651 0.951 . S
H1627 C1653 0.950 . S
H1628 C1654 0.950 . S
H1629 C1656 0.950 . S
H1630 C1659 0.950 . S
H1631 C1660 0.950 . S
H1632 C1662 0.950 . S
H1633 C1663 0.950 . S
C1634 H1616 0.951 . S
C1634 C1635 1.366 . S
C1634 C1636 1.388 . S
C1635 C1634 1.366 . S
C1635 C1639 1.385 . S
C1636 H1617 0.951 . S
C1636 C1634 1.388 . S
C1636 C1637 1.366 . S
C1637 C1636 1.366 . S
C1637 C1638 1.414 . S
C1637 C1640 1.499 . S
C1638 H1618 0.950 . S
C1638 C1637 1.414 . S
C1638 C1639 1.374 . S
C1639 H1619 0.950 . S
C1639 C1635 1.385 . S
C1639 C1638 1.374 . S
C1640 C1637 1.499 . S
C1640 C1641 1.373 . S
C1640 C1642 1.389 . S
C1641 H1620 0.950 . S
C1641 C1640 1.373 . S
C1641 C1657 1.377 . S
C1642 C1640 1.389 . S
C1642 C1643 1.524 . S
C1642 C1656 1.377 . S
C1643 C1642 1.524 . S
C1643 C1644 1.397 . S
C1643 C1648 1.363 . S
C1644 H1621 0.950 . S
C1644 C1643 1.397 . S
C1644 C1645 1.334 . S
C1645 H1622 0.950 . S
C1645 C1644 1.334 . S
C1645 C1646 1.287 . S
C1646 C1645 1.287 . S
C1646 C1647 1.524 . S
C1646 H1665 0.913 . S
C1647 H1623 0.950 . S
C1647 C1646 1.524 . S
C1647 C1648 1.415 . S
C1648 H1624 0.950 . S
C1648 C1643 1.363 . S
C1648 C1647 1.415 . S
C1649 H1625 0.951 . S
C1649 C1650 1.366 . S
C1649 C1651 1.388 . S
C1650 C1649 1.366 . S
C1650 C1654 1.385 . S
C1651 H1626 0.951 . S
C1651 C1649 1.388 . S
C1651 C1652 1.366 . S
C1652 C1651 1.366 . S
C1652 C1653 1.414 . S
C1652 C1655 1.499 . S
C1653 H1627 0.950 . S
C1653 C1652 1.414 . S
C1653 C1654 1.374 . S
C1654 H1628 0.950 . S
C1654 C1650 1.385 . S
C1654 C1653 1.374 . S
C1655 C1652 1.499 . S
C1655 C1656 1.373 . S
C1655 C1657 1.389 . S
C1656 H1629 0.950 . S
C1656 C1642 1.377 . S
C1656 C1655 1.373 . S
C1657 C1641 1.377 . S
C1657 C1655 1.389 . S
C1657 C1658 1.524 . S
C1658 C1657 1.524 . S
C1658 C1659 1.397 . S
C1658 C1663 1.363 . S
C1659 H1630 0.950 . S
C1659 C1658 1.397 . S
C1659 C1660 1.334 . S
C1660 H1631 0.950 . S
C1660 C1659 1.334 . S
C1660 C1661 1.287 . S
C1661 C1660 1.287 . S
C1661 C1662 1.524 . S
C1661 H1664 0.999 . S
C1662 H1632 0.950 . S
C1662 C1661 1.524 . S
C1662 C1663 1.415 . S
C1663 H1633 0.950 . S
C1663 C1658 1.363 . S
C1663 C1662 1.415 . S
H1664 C1661 0.999 . S
H1665 C1646 0.913 . S
H1666 C1684 0.951 . S
H1667 C1686 0.951 . S
H1668 C1688 0.950 . S
H1669 C1689 0.950 . S
H1670 C1691 0.950 . S
H1671 C1694 0.950 . S
H1672 C1695 0.950 . S
H1673 C1697 0.950 . S
H1674 C1698 0.950 . S
H1675 C1699 0.951 . S
H1676 C1701 0.951 . S
H1677 C1703 0.950 . S
H1678 C1704 0.950 . S
H1679 C1706 0.950 . S
H1680 C1709 0.950 . S
H1681 C1710 0.950 . S
H1682 C1712 0.950 . S
H1683 C1713 0.950 . S
C1684 H1666 0.951 . S
C1684 C1685 1.366 . S
C1684 C1686 1.388 . S
C1685 C1684 1.366 . S
C1685 C1689 1.385 . S
C1686 H1667 0.951 . S
C1686 C1684 1.388 . S
C1686 C1687 1.366 . S
C1687 C1686 1.366 . S
C1687 C1688 1.414 . S
C1687 C1690 1.499 . S
C1688 H1668 0.950 . S
C1688 C1687 1.414 . S
C1688 C1689 1.374 . S
C1689 H1669 0.950 . S
C1689 C1685 1.385 . S
C1689 C1688 1.374 . S
C1690 C1687 1.499 . S
C1690 C1691 1.373 . S
C1690 C1692 1.389 . S
C1691 H1670 0.950 . S
C1691 C1690 1.373 . S
C1691 C1707 1.377 . S
C1692 C1690 1.389 . S
C1692 C1693 1.524 . S
C1692 C1706 1.377 . S
C1693 C1692 1.524 . S
C1693 C1694 1.397 . S
C1693 C1698 1.363 . S
C1694 H1671 0.950 . S
C1694 C1693 1.397 . S
C1694 C1695 1.334 . S
C1695 H1672 0.950 . S
C1695 C1694 1.334 . S
C1695 C1696 1.287 . S
C1696 C1695 1.287 . S
C1696 C1697 1.524 . S
C1696 H1715 0.913 . S
C1697 H1673 0.950 . S
C1697 C1696 1.524 . S
C1697 C1698 1.415 . S
C1698 H1674 0.950 . S
C1698 C1693 1.363 . S
C1698 C1697 1.415 . S
C1699 H1675 0.951 . S
C1699 C1700 1.366 . S
C1699 C1701 1.388 . S
C1700 C1699 1.366 . S
C1700 C1704 1.385 . S
C1701 H1676 0.951 . S
C1701 C1699 1.388 . S
C1701 C1702 1.366 . S
C1702 C1701 1.366 . S
C1702 C1703 1.414 . S
C1702 C1705 1.499 . S
C1703 H1677 0.950 . S
C1703 C1702 1.414 . S
C1703 C1704 1.374 . S
C1704 H1678 0.950 . S
C1704 C1700 1.385 . S
C1704 C1703 1.374 . S
C1705 C1702 1.499 . S
C1705 C1706 1.373 . S
C1705 C1707 1.389 . S
C1706 H1679 0.950 . S
C1706 C1692 1.377 . S
C1706 C1705 1.373 . S
C1707 C1691 1.377 . S
C1707 C1705 1.389 . S
C1707 C1708 1.524 . S
C1708 C1707 1.524 . S
C1708 C1709 1.397 . S
C1708 C1713 1.363 . S
C1709 H1680 0.950 . S
C1709 C1708 1.397 . S
C1709 C1710 1.334 . S
C1710 H1681 0.950 . S
C1710 C1709 1.334 . S
C1710 C1711 1.287 . S
C1711 C1710 1.287 . S
C1711 C1712 1.524 . S
C1711 H1714 0.999 . S
C1712 H1682 0.950 . S
C1712 C1711 1.524 . S
C1712 C1713 1.415 . S
C1713 H1683 0.950 . S
C1713 C1708 1.363 . S
C1713 C1712 1.415 . S
H1714 C1711 0.999 . S
H1715 C1696 0.913 . S
H1716 C1734 0.951 . S
H1717 C1736 0.951 . S
H1718 C1738 0.950 . S
H1719 C1739 0.950 . S
H1720 C1741 0.950 . S
H1721 C1744 0.950 . S
H1722 C1745 0.950 . S
H1723 C1747 0.950 . S
H1724 C1748 0.950 . S
H1725 C1749 0.951 . S
H1726 C1751 0.951 . S
H1727 C1753 0.950 . S
H1728 C1754 0.950 . S
H1729 C1756 0.950 . S
H1730 C1759 0.950 . S
H1731 C1760 0.950 . S
H1732 C1762 0.950 . S
H1733 C1763 0.950 . S
C1734 H1716 0.951 . S
C1734 C1735 1.366 . S
C1734 C1736 1.388 . S
C1735 C1734 1.366 . S
C1735 C1739 1.385 . S
C1736 H1717 0.951 . S
C1736 C1734 1.388 . S
C1736 C1737 1.366 . S
C1737 C1736 1.366 . S
C1737 C1738 1.414 . S
C1737 C1740 1.499 . S
C1738 H1718 0.950 . S
C1738 C1737 1.414 . S
C1738 C1739 1.374 . S
C1739 H1719 0.950 . S
C1739 C1735 1.385 . S
C1739 C1738 1.374 . S
C1740 C1737 1.499 . S
C1740 C1741 1.373 . S
C1740 C1742 1.389 . S
C1741 H1720 0.950 . S
C1741 C1740 1.373 . S
C1741 C1757 1.377 . S
C1742 C1740 1.389 . S
C1742 C1743 1.524 . S
C1742 C1756 1.377 . S
C1743 C1742 1.524 . S
C1743 C1744 1.397 . S
C1743 C1748 1.363 . S
C1744 H1721 0.950 . S
C1744 C1743 1.397 . S
C1744 C1745 1.334 . S
C1745 H1722 0.950 . S
C1745 C1744 1.334 . S
C1745 C1746 1.287 . S
C1746 C1745 1.287 . S
C1746 C1747 1.524 . S
C1746 H1765 0.913 . S
C1747 H1723 0.950 . S
C1747 C1746 1.524 . S
C1747 C1748 1.415 . S
C1748 H1724 0.950 . S
C1748 C1743 1.363 . S
C1748 C1747 1.415 . S
C1749 H1725 0.951 . S
C1749 C1750 1.366 . S
C1749 C1751 1.388 . S
C1750 C1749 1.366 . S
C1750 C1754 1.385 . S
C1751 H1726 0.951 . S
C1751 C1749 1.388 . S
C1751 C1752 1.366 . S
C1752 C1751 1.366 . S
C1752 C1753 1.414 . S
C1752 C1755 1.499 . S
C1753 H1727 0.950 . S
C1753 C1752 1.414 . S
C1753 C1754 1.374 . S
C1754 H1728 0.950 . S
C1754 C1750 1.385 . S
C1754 C1753 1.374 . S
C1755 C1752 1.499 . S
C1755 C1756 1.373 . S
C1755 C1757 1.389 . S
C1756 H1729 0.950 . S
C1756 C1742 1.377 . S
C1756 C1755 1.373 . S
C1757 C1741 1.377 . S
C1757 C1755 1.389 . S
C1757 C1758 1.524 . S
C1758 C1757 1.524 . S
C1758 C1759 1.397 . S
C1758 C1763 1.363 . S
C1759 H1730 0.950 . S
C1759 C1758 1.397 . S
C1759 C1760 1.334 . S
C1760 H1731 0.950 . S
C1760 C1759 1.334 . S
C1760 C1761 1.287 . S
C1761 C1760 1.287 . S
C1761 C1762 1.524 . S
C1761 H1764 0.999 . S
C1762 H1732 0.950 . S
C1762 C1761 1.524 . S
C1762 C1763 1.415 . S
C1763 H1733 0.950 . S
C1763 C1758 1.363 . S
C1763 C1762 1.415 . S
H1764 C1761 0.999 . S
H1765 C1746 0.913 . S
H1766 C1784 0.951 . S
H1767 C1786 0.951 1_655 S
H1768 C1788 0.950 . S
H1769 C1789 0.950 . S
H1770 C1791 0.950 . S
H1771 C1794 0.950 . S
H1772 C1795 0.950 1_455 S
H1773 C1797 0.950 . S
H1774 C1798 0.950 . S
H1775 C1799 0.951 . S
H1776 C1801 0.951 . S
H1777 C1803 0.950 . S
H1778 C1804 0.950 . S
H1779 C1806 0.950 1_655 S
H1780 C1809 0.950 . S
H1781 C1810 0.950 . S
H1782 C1812 0.950 . S
H1783 C1813 0.950 . S
C1784 H1766 0.951 . S
C1784 C1785 1.366 . S
C1784 C1786 1.388 . S
C1785 C1784 1.366 . S
C1785 C1789 1.385 . S
C1786 H1767 0.951 1_455 S
C1786 C1784 1.388 . S
C1786 C1787 1.366 . S
C1787 C1786 1.366 . S
C1787 C1788 1.414 . S
C1787 C1790 1.499 . S
C1788 H1768 0.950 . S
C1788 C1787 1.414 . S
C1788 C1789 1.374 . S
C1789 H1769 0.950 . S
C1789 C1785 1.385 . S
C1789 C1788 1.374 . S
C1790 C1787 1.499 . S
C1790 C1791 1.373 . S
C1790 C1792 1.389 . S
C1791 H1770 0.950 . S
C1791 C1790 1.373 . S
C1791 C1807 1.377 . S
C1792 C1790 1.389 . S
C1792 C1793 1.524 1_455 S
C1792 C1806 1.377 . S
C1793 C1792 1.524 1_655 S
C1793 C1794 1.397 1_655 S
C1793 C1798 1.363 . S
C1794 H1771 0.950 . S
C1794 C1793 1.397 1_455 S
C1794 C1795 1.334 1_455 S
C1795 H1772 0.950 1_655 S
C1795 C1794 1.334 1_655 S
C1795 C1796 1.287 . S
C1796 C1795 1.287 . S
C1796 C1797 1.524 . S
C1796 H1815 0.913 . S
C1797 H1773 0.950 . S
C1797 C1796 1.524 . S
C1797 C1798 1.415 . S
C1798 H1774 0.950 . S
C1798 C1793 1.363 . S
C1798 C1797 1.415 . S
C1799 H1775 0.951 . S
C1799 C1800 1.366 . S
C1799 C1801 1.388 . S
C1800 C1799 1.366 . S
C1800 C1804 1.385 1_455 S
C1801 H1776 0.951 . S
C1801 C1799 1.388 . S
C1801 C1802 1.366 . S
C1802 C1801 1.366 . S
C1802 C1803 1.414 1_455 S
C1802 C1805 1.499 . S
C1803 H1777 0.950 . S
C1803 C1802 1.414 1_655 S
C1803 C1804 1.374 . S
C1804 H1778 0.950 . S
C1804 C1800 1.385 1_655 S
C1804 C1803 1.374 . S
C1805 C1802 1.499 . S
C1805 C1806 1.373 . S
C1805 C1807 1.389 . S
C1806 H1779 0.950 1_455 S
C1806 C1792 1.377 . S
C1806 C1805 1.373 . S
C1807 C1791 1.377 . S
C1807 C1805 1.389 . S
C1807 C1808 1.524 . S
C1808 C1807 1.524 . S
C1808 C1809 1.397 . S
C1808 C1813 1.363 . S
C1809 H1780 0.950 . S
C1809 C1808 1.397 . S
C1809 C1810 1.334 . S
C1810 H1781 0.950 . S
C1810 C1809 1.334 . S
C1810 C1811 1.287 . S
C1811 C1810 1.287 . S
C1811 C1812 1.524 . S
C1811 H1814 0.999 . S
C1812 H1782 0.950 . S
C1812 C1811 1.524 . S
C1812 C1813 1.415 . S
C1813 H1783 0.950 . S
C1813 C1808 1.363 . S
C1813 C1812 1.415 . S
H1814 C1811 0.999 . S
H1815 C1796 0.913 . S
H1816 C1834 0.951 . S
H1817 C1836 0.951 . S
H1818 C1838 0.950 . S
H1819 C1839 0.950 . S
H1820 C1841 0.950 . S
H1821 C1844 0.950 . S
H1822 C1845 0.950 . S
H1823 C1847 0.950 . S
H1824 C1848 0.950 . S
H1825 C1849 0.951 . S
H1826 C1851 0.951 . S
H1827 C1853 0.950 . S
H1828 C1854 0.950 . S
H1829 C1856 0.950 . S
H1830 C1859 0.950 . S
H1831 C1860 0.950 . S
H1832 C1862 0.950 . S
H1833 C1863 0.950 . S
C1834 H1816 0.951 . S
C1834 C1835 1.366 . S
C1834 C1836 1.388 . S
C1835 C1834 1.366 . S
C1835 C1839 1.385 . S
C1836 H1817 0.951 . S
C1836 C1834 1.388 . S
C1836 C1837 1.366 . S
C1837 C1836 1.366 . S
C1837 C1838 1.414 . S
C1837 C1840 1.499 . S
C1838 H1818 0.950 . S
C1838 C1837 1.414 . S
C1838 C1839 1.374 . S
C1839 H1819 0.950 . S
C1839 C1835 1.385 . S
C1839 C1838 1.374 . S
C1840 C1837 1.499 . S
C1840 C1841 1.373 . S
C1840 C1842 1.389 . S
C1841 H1820 0.950 . S
C1841 C1840 1.373 . S
C1841 C1857 1.377 . S
C1842 C1840 1.389 . S
C1842 C1843 1.524 . S
C1842 C1856 1.377 . S
C1843 C1842 1.524 . S
C1843 C1844 1.397 . S
C1843 C1848 1.363 . S
C1844 H1821 0.950 . S
C1844 C1843 1.397 . S
C1844 C1845 1.334 . S
C1845 H1822 0.950 . S
C1845 C1844 1.334 . S
C1845 C1846 1.287 . S
C1846 C1845 1.287 . S
C1846 C1847 1.524 . S
C1846 H1865 0.913 . S
C1847 H1823 0.950 . S
C1847 C1846 1.524 . S
C1847 C1848 1.415 . S
C1848 H1824 0.950 . S
C1848 C1843 1.363 . S
C1848 C1847 1.415 . S
C1849 H1825 0.951 . S
C1849 C1850 1.366 . S
C1849 C1851 1.388 . S
C1850 C1849 1.366 . S
C1850 C1854 1.385 . S
C1851 H1826 0.951 . S
C1851 C1849 1.388 . S
C1851 C1852 1.366 . S
C1852 C1851 1.366 . S
C1852 C1853 1.414 . S
C1852 C1855 1.499 . S
C1853 H1827 0.950 . S
C1853 C1852 1.414 . S
C1853 C1854 1.374 . S
C1854 H1828 0.950 . S
C1854 C1850 1.385 . S
C1854 C1853 1.374 . S
C1855 C1852 1.499 . S
C1855 C1856 1.373 . S
C1855 C1857 1.389 . S
C1856 H1829 0.950 . S
C1856 C1842 1.377 . S
C1856 C1855 1.373 . S
C1857 C1841 1.377 . S
C1857 C1855 1.389 . S
C1857 C1858 1.524 . S
C1858 C1857 1.524 . S
C1858 C1859 1.397 . S
C1858 C1863 1.363 . S
C1859 H1830 0.950 . S
C1859 C1858 1.397 . S
C1859 C1860 1.334 . S
C1860 H1831 0.950 . S
C1860 C1859 1.334 . S
C1860 C1861 1.287 . S
C1861 C1860 1.287 . S
C1861 C1862 1.524 . S
C1861 H1864 0.999 . S
C1862 H1832 0.950 . S
C1862 C1861 1.524 . S
C1862 C1863 1.415 . S
C1863 H1833 0.950 . S
C1863 C1858 1.363 . S
C1863 C1862 1.415 . S
H1864 C1861 0.999 . S
H1865 C1846 0.913 . S
H1866 C1884 0.951 . S
H1867 C1886 0.951 . S
H1868 C1888 0.950 . S
H1869 C1889 0.950 . S
H1870 C1891 0.914 1_455 S
H1871 C1894 0.950 . S
H1872 C1895 0.950 . S
H1873 C1897 0.950 . S
H1874 C1898 0.950 . S
H1875 C1899 0.951 . S
H1876 C1901 0.951 . S
H1877 C1903 0.950 . S
H1878 C1904 0.950 . S
H1879 C1906 0.950 . S
H1880 C1909 0.950 . S
H1881 C1910 0.950 . S
H1882 C1912 0.950 . S
H1883 C1913 0.950 . S
C1884 H1866 0.951 . S
C1884 C1885 1.366 . S
C1884 C1886 1.388 . S
C1885 C1884 1.366 . S
C1885 C1889 1.385 . S
C1886 H1867 0.951 . S
C1886 C1884 1.388 . S
C1886 C1887 1.366 . S
C1887 C1886 1.366 . S
C1887 C1888 1.414 . S
C1887 C1890 1.499 . S
C1888 H1868 0.950 . S
C1888 C1887 1.414 . S
C1888 C1889 1.374 . S
C1889 H1869 0.950 . S
C1889 C1885 1.385 . S
C1889 C1888 1.374 . S
C1890 C1887 1.499 . S
C1890 C1891 1.415 . S
C1890 C1892 1.389 . S
C1891 H1870 0.914 1_655 S
C1891 C1890 1.415 . S
C1891 C1907 1.372 1_655 S
C1892 C1890 1.389 . S
C1892 C1893 1.524 . S
C1892 C1906 1.377 . S
C1893 C1892 1.524 . S
C1893 C1894 1.397 . S
C1893 C1898 1.363 . S
C1894 H1871 0.950 . S
C1894 C1893 1.397 . S
C1894 C1895 1.334 . S
C1895 H1872 0.950 . S
C1895 C1894 1.334 . S
C1895 C1896 1.287 . S
C1896 C1895 1.287 . S
C1896 C1897 1.524 . S
C1896 H1915 0.913 . S
C1897 H1873 0.950 . S
C1897 C1896 1.524 . S
C1897 C1898 1.415 . S
C1898 H1874 0.950 . S
C1898 C1893 1.363 . S
C1898 C1897 1.415 . S
C1899 H1875 0.951 . S
C1899 C1900 1.366 1_455 S
C1899 C1901 1.388 . S
C1900 C1899 1.366 1_655 S
C1900 C1904 1.385 . S
C1901 H1876 0.951 . S
C1901 C1899 1.388 . S
C1901 C1902 1.366 1_455 S
C1902 C1901 1.366 1_655 S
C1902 C1903 1.414 . S
C1902 C1905 1.499 . S
C1903 H1877 0.950 . S
C1903 C1902 1.414 . S
C1903 C1904 1.374 . S
C1904 H1878 0.950 . S
C1904 C1900 1.385 . S
C1904 C1903 1.374 . S
C1905 C1902 1.499 . S
C1905 C1906 1.373 . S
C1905 C1907 1.389 1_655 S
C1906 H1879 0.950 . S
C1906 C1892 1.377 . S
C1906 C1905 1.373 . S
C1907 C1891 1.372 1_455 S
C1907 C1905 1.389 1_455 S
C1907 C1908 1.524 . S
C1908 C1907 1.524 . S
C1908 C1909 1.397 . S
C1908 C1913 1.363 . S
C1909 H1880 0.950 . S
C1909 C1908 1.397 . S
C1909 C1910 1.334 . S
C1910 H1881 0.950 . S
C1910 C1909 1.334 . S
C1910 C1911 1.287 . S
C1911 C1910 1.287 . S
C1911 C1912 1.524 . S
C1911 H1914 0.999 . S
C1912 H1882 0.950 . S
C1912 C1911 1.524 . S
C1912 C1913 1.415 . S
C1913 H1883 0.950 . S
C1913 C1908 1.363 . S
C1913 C1912 1.415 . S
H1914 C1911 0.999 . S
H1915 C1896 0.913 . S
H1916 C1934 0.951 . S
H1917 C1936 0.951 . S
H1918 C1938 0.950 . S
H1919 C1939 0.950 . S
H1920 C1941 0.950 . S
H1921 C1944 0.950 . S
H1922 C1945 0.950 . S
H1923 C1947 0.950 . S
H1924 C1948 0.950 . S
H1925 C1949 0.951 . S
H1926 C1951 0.951 . S
H1927 C1953 0.950 . S
H1928 C1954 0.950 . S
H1929 C1956 0.950 . S
H1930 C1959 0.950 . S
H1931 C1960 0.950 . S
H1932 C1962 0.950 . S
H1933 C1963 0.950 . S
C1934 H1916 0.951 . S
C1934 C1935 1.366 . S
C1934 C1936 1.388 . S
C1935 C1934 1.366 . S
C1935 C1939 1.385 . S
C1936 H1917 0.951 . S
C1936 C1934 1.388 . S
C1936 C1937 1.366 . S
C1937 C1936 1.366 . S
C1937 C1938 1.414 . S
C1937 C1940 1.499 . S
C1938 H1918 0.950 . S
C1938 C1937 1.414 . S
C1938 C1939 1.374 . S
C1939 H1919 0.950 . S
C1939 C1935 1.385 . S
C1939 C1938 1.374 . S
C1940 C1937 1.499 . S
C1940 C1941 1.373 . S
C1940 C1942 1.389 . S
C1941 H1920 0.950 . S
C1941 C1940 1.373 . S
C1941 C1957 1.377 . S
C1942 C1940 1.389 . S
C1942 C1943 1.524 . S
C1942 C1956 1.377 . S
C1943 C1942 1.524 . S
C1943 C1944 1.397 . S
C1943 C1948 1.363 . S
C1944 H1921 0.950 . S
C1944 C1943 1.397 . S
C1944 C1945 1.334 . S
C1945 H1922 0.950 . S
C1945 C1944 1.334 . S
C1945 C1946 1.287 . S
C1946 C1945 1.287 . S
C1946 C1947 1.524 . S
C1946 H1965 0.913 . S
C1947 H1923 0.950 . S
C1947 C1946 1.524 . S
C1947 C1948 1.415 . S
C1948 H1924 0.950 . S
C1948 C1943 1.363 . S
C1948 C1947 1.415 . S
C1949 H1925 0.951 . S
C1949 C1950 1.366 . S
C1949 C1951 1.388 . S
C1950 C1949 1.366 . S
C1950 C1954 1.385 . S
C1951 H1926 0.951 . S
C1951 C1949 1.388 . S
C1951 C1952 1.366 . S
C1952 C1951 1.366 . S
C1952 C1953 1.414 . S
C1952 C1955 1.499 . S
C1953 H1927 0.950 . S
C1953 C1952 1.414 . S
C1953 C1954 1.374 . S
C1954 H1928 0.950 . S
C1954 C1950 1.385 . S
C1954 C1953 1.374 . S
C1955 C1952 1.499 . S
C1955 C1956 1.373 . S
C1955 C1957 1.389 . S
C1956 H1929 0.950 . S
C1956 C1942 1.377 . S
C1956 C1955 1.373 . S
C1957 C1941 1.377 . S
C1957 C1955 1.389 . S
C1957 C1958 1.524 . S
C1958 C1957 1.524 . S
C1958 C1959 1.397 . S
C1958 C1963 1.363 . S
C1959 H1930 0.950 . S
C1959 C1958 1.397 . S
C1959 C1960 1.334 . S
C1960 H1931 0.950 . S
C1960 C1959 1.334 . S
C1960 C1961 1.287 . S
C1961 C1960 1.287 . S
C1961 C1962 1.524 . S
C1961 H1964 0.999 . S
C1962 H1932 0.950 . S
C1962 C1961 1.524 . S
C1962 C1963 1.415 . S
C1963 H1933 0.950 . S
C1963 C1958 1.363 . S
C1963 C1962 1.415 . S
H1964 C1961 0.999 . S
H1965 C1946 0.913 . S
H1966 C1984 0.951 . S
H1967 C1986 0.951 . S
H1968 C1988 0.950 . S
H1969 C1989 0.950 . S
H1970 C1991 0.950 . S
H1971 C1994 0.950 . S
H1972 C1995 0.950 . S
H1973 C1997 0.950 . S
H1974 C1998 0.950 . S
H1975 C1999 0.951 . S
H1976 C2001 0.951 . S
H1977 C2003 0.950 . S
H1978 C2004 0.950 . S
H1979 C2006 0.950 . S
H1980 C2009 0.950 . S
H1981 C2010 0.950 . S
H1982 C2012 0.950 . S
H1983 C2013 0.950 . S
C1984 H1966 0.951 . S
C1984 C1985 1.366 . S
C1984 C1986 1.388 . S
C1985 C1984 1.366 . S
C1985 C1989 1.385 . S
C1986 H1967 0.951 . S
C1986 C1984 1.388 . S
C1986 C1987 1.366 . S
C1987 C1986 1.366 . S
C1987 C1988 1.414 . S
C1987 C1990 1.499 . S
C1988 H1968 0.950 . S
C1988 C1987 1.414 . S
C1988 C1989 1.374 . S
C1989 H1969 0.950 . S
C1989 C1985 1.385 . S
C1989 C1988 1.374 . S
C1990 C1987 1.499 . S
C1990 C1991 1.373 . S
C1990 C1992 1.389 . S
C1991 H1970 0.950 . S
C1991 C1990 1.373 . S
C1991 C2007 1.377 . S
C1992 C1990 1.389 . S
C1992 C1993 1.524 . S
C1992 C2006 1.377 . S
C1993 C1992 1.524 . S
C1993 C1994 1.397 . S
C1993 C1998 1.363 . S
C1994 H1971 0.950 . S
C1994 C1993 1.397 . S
C1994 C1995 1.334 . S
C1995 H1972 0.950 . S
C1995 C1994 1.334 . S
C1995 C1996 1.287 . S
C1996 C1995 1.287 . S
C1996 C1997 1.524 . S
C1996 H2015 0.913 . S
C1997 H1973 0.950 . S
C1997 C1996 1.524 . S
C1997 C1998 1.415 . S
C1998 H1974 0.950 . S
C1998 C1993 1.363 . S
C1998 C1997 1.415 . S
C1999 H1975 0.951 . S
C1999 C2000 1.366 . S
C1999 C2001 1.388 . S
C2000 C1999 1.366 . S
C2000 C2004 1.385 . S
C2001 H1976 0.951 . S
C2001 C1999 1.388 . S
C2001 C2002 1.366 . S
C2002 C2001 1.366 . S
C2002 C2003 1.414 . S
C2002 C2005 1.499 . S
C2003 H1977 0.950 . S
C2003 C2002 1.414 . S
C2003 C2004 1.374 . S
C2004 H1978 0.950 . S
C2004 C2000 1.385 . S
C2004 C2003 1.374 . S
C2005 C2002 1.499 . S
C2005 C2006 1.373 . S
C2005 C2007 1.389 . S
C2006 H1979 0.950 . S
C2006 C1992 1.377 . S
C2006 C2005 1.373 . S
C2007 C1991 1.377 . S
C2007 C2005 1.389 . S
C2007 C2008 1.524 . S
C2008 C2007 1.524 . S
C2008 C2009 1.397 . S
C2008 C2013 1.363 . S
C2009 H1980 0.950 . S
C2009 C2008 1.397 . S
C2009 C2010 1.334 . S
C2010 H1981 0.950 . S
C2010 C2009 1.334 . S
C2010 C2011 1.287 . S
C2011 C2010 1.287 . S
C2011 C2012 1.524 . S
C2011 H2014 0.999 . S
C2012 H1982 0.950 . S
C2012 C2011 1.524 . S
C2012 C2013 1.415 . S
C2013 H1983 0.950 . S
C2013 C2008 1.363 . S
C2013 C2012 1.415 . S
H2014 C2011 0.999 . S
H2015 C1996 0.913 . S
H2016 C2034 0.951 1_545 S
H2017 C2036 0.951 . S
H2018 C2038 0.950 . S
H2019 C2039 0.950 . S
H2020 C2041 0.950 . S
H2021 C2044 0.950 . S
H2022 C2045 0.950 . S
H2023 C2047 0.950 . S
H2024 C2048 0.950 . S
H2025 C2049 0.951 . S
H2026 C2051 0.955 . S
H2027 C2053 0.950 . S
H2028 C2054 0.950 . S
H2029 C2056 0.973 . S
H2030 C2059 0.950 . S
H2031 C2060 0.950 . S
H2032 C2062 0.950 . S
H2033 C2063 0.950 . S
C2034 H2016 0.951 1_565 S
C2034 C2035 1.366 . S
C2034 C2036 1.388 . S
C2035 C2034 1.366 . S
C2035 C2039 1.385 . S
C2036 H2017 0.951 . S
C2036 C2034 1.388 . S
C2036 C2037 1.366 . S
C2037 C2036 1.366 . S
C2037 C2038 1.414 . S
C2037 C2040 1.499 . S
C2038 H2018 0.950 . S
C2038 C2037 1.414 . S
C2038 C2039 1.374 . S
C2039 H2019 0.950 . S
C2039 C2035 1.385 . S
C2039 C2038 1.374 . S
C2040 C2037 1.499 . S
C2040 C2041 1.373 . S
C2040 C2042 1.432 . S
C2041 H2020 0.950 . S
C2041 C2040 1.373 . S
C2041 C2057 1.377 . S
C2042 C2040 1.432 . S
C2042 C2043 1.486 1_556 S
C2042 C2056 1.369 1_556 S
C2043 C2042 1.486 1_554 S
C2043 C2044 1.397 . S
C2043 C2048 1.363 . S
C2044 H2021 0.950 . S
C2044 C2043 1.397 . S
C2044 C2045 1.334 . S
C2045 H2022 0.950 . S
C2045 C2044 1.334 . S
C2045 C2046 1.287 1_565 S
C2046 C2045 1.287 1_545 S
C2046 C2047 1.524 . S
C2046 H2065 0.913 . S
C2047 H2023 0.950 . S
C2047 C2046 1.524 . S
C2047 C2048 1.415 1_545 S
C2048 H2024 0.950 . S
C2048 C2043 1.363 . S
C2048 C2047 1.415 1_565 S
C2049 H2025 0.951 . S
C2049 C2050 1.366 . S
C2049 C2051 1.395 . S
C2050 C2049 1.366 . S
C2050 C2054 1.385 1_554 S
C2051 H2026 0.955 . S
C2051 C2049 1.395 . S
C2051 C2052 1.356 1_554 S
C2052 C2051 1.356 1_556 S
C2052 C2053 1.414 . S
C2052 C2055 1.499 . S
C2053 H2027 0.950 . S
C2053 C2052 1.414 . S
C2053 C2054 1.374 . S
C2054 H2028 0.950 . S
C2054 C2050 1.385 1_556 S
C2054 C2053 1.374 . S
C2055 C2052 1.499 . S
C2055 C2056 1.356 1_556 S
C2055 C2057 1.389 . S
C2056 H2029 0.973 . S
C2056 C2042 1.369 1_554 S
C2056 C2055 1.356 1_554 S
C2057 C2041 1.377 . S
C2057 C2055 1.389 . S
C2057 C2058 1.524 . S
C2058 C2057 1.524 . S
C2058 C2059 1.397 . S
C2058 C2063 1.363 . S
C2059 H2030 0.950 . S
C2059 C2058 1.397 . S
C2059 C2060 1.334 . S
C2060 H2031 0.950 . S
C2060 C2059 1.334 . S
C2060 C2061 1.287 . S
C2061 C2060 1.287 . S
C2061 C2062 1.524 . S
C2061 H2064 0.999 . S
C2062 H2032 0.950 . S
C2062 C2061 1.524 . S
C2062 C2063 1.415 . S
C2063 H2033 0.950 . S
C2063 C2058 1.363 . S
C2063 C2062 1.415 . S
H2064 C2061 0.999 . S
H2065 C2046 0.913 . S
H2066 C2084 0.951 . S
H2067 C2086 0.951 . S
H2068 C2088 0.950 . S
H2069 C2089 0.950 . S
H2070 C2091 0.950 . S
H2071 C2094 0.950 . S
H2072 C2095 0.950 . S
H2073 C2097 0.950 . S
H2074 C2098 0.950 . S
H2075 C2099 0.951 . S
H2076 C2101 0.951 . S
H2077 C2103 0.950 . S
H2078 C2104 0.950 . S
H2079 C2106 0.950 . S
H2080 C2109 0.950 . S
H2081 C2110 0.950 . S
H2082 C2112 0.950 . S
H2083 C2113 0.950 . S
C2084 H2066 0.951 . S
C2084 C2085 1.366 . S
C2084 C2086 1.388 . S
C2085 C2084 1.366 . S
C2085 C2089 1.385 . S
C2086 H2067 0.951 . S
C2086 C2084 1.388 . S
C2086 C2087 1.366 . S
C2087 C2086 1.366 . S
C2087 C2088 1.414 . S
C2087 C2090 1.499 . S
C2088 H2068 0.950 . S
C2088 C2087 1.414 . S
C2088 C2089 1.374 . S
C2089 H2069 0.950 . S
C2089 C2085 1.385 . S
C2089 C2088 1.374 . S
C2090 C2087 1.499 . S
C2090 C2091 1.373 . S
C2090 C2092 1.389 . S
C2091 H2070 0.950 . S
C2091 C2090 1.373 . S
C2091 C2107 1.377 . S
C2092 C2090 1.389 . S
C2092 C2093 1.524 . S
C2092 C2106 1.377 . S
C2093 C2092 1.524 . S
C2093 C2094 1.397 . S
C2093 C2098 1.363 . S
C2094 H2071 0.950 . S
C2094 C2093 1.397 . S
C2094 C2095 1.334 . S
C2095 H2072 0.950 . S
C2095 C2094 1.334 . S
C2095 C2096 1.287 . S
C2096 C2095 1.287 . S
C2096 C2097 1.524 . S
C2096 H2115 0.913 . S
C2097 H2073 0.950 . S
C2097 C2096 1.524 . S
C2097 C2098 1.415 . S
C2098 H2074 0.950 . S
C2098 C2093 1.363 . S
C2098 C2097 1.415 . S
C2099 H2075 0.951 . S
C2099 C2100 1.366 . S
C2099 C2101 1.388 . S
C2100 C2099 1.366 . S
C2100 C2104 1.385 . S
C2101 H2076 0.951 . S
C2101 C2099 1.388 . S
C2101 C2102 1.366 . S
C2102 C2101 1.366 . S
C2102 C2103 1.414 . S
C2102 C2105 1.499 . S
C2103 H2077 0.950 . S
C2103 C2102 1.414 . S
C2103 C2104 1.374 . S
C2104 H2078 0.950 . S
C2104 C2100 1.385 . S
C2104 C2103 1.374 . S
C2105 C2102 1.499 . S
C2105 C2106 1.373 . S
C2105 C2107 1.389 . S
C2106 H2079 0.950 . S
C2106 C2092 1.377 . S
C2106 C2105 1.373 . S
C2107 C2091 1.377 . S
C2107 C2105 1.389 . S
C2107 C2108 1.524 . S
C2108 C2107 1.524 . S
C2108 C2109 1.397 . S
C2108 C2113 1.363 . S
C2109 H2080 0.950 . S
C2109 C2108 1.397 . S
C2109 C2110 1.334 . S
C2110 H2081 0.950 . S
C2110 C2109 1.334 . S
C2110 C2111 1.287 . S
C2111 C2110 1.287 . S
C2111 C2112 1.524 . S
C2111 H2114 0.999 . S
C2112 H2082 0.950 . S
C2112 C2111 1.524 . S
C2112 C2113 1.415 . S
C2113 H2083 0.950 . S
C2113 C2108 1.363 . S
C2113 C2112 1.415 . S
H2114 C2111 0.999 . S
H2115 C2096 0.913 . S
H2116 C2134 0.951 . S
H2117 C2136 0.951 . S
H2118 C2138 0.950 . S
H2119 C2139 0.950 . S
H2120 C2141 0.950 . S
H2121 C2144 0.950 . S
H2122 C2145 0.950 . S
H2123 C2147 0.950 . S
H2124 C2148 0.950 . S
H2125 C2149 0.951 . S
H2126 C2151 0.951 . S
H2127 C2153 0.950 . S
H2128 C2154 0.950 . S
H2129 C2156 0.950 . S
H2130 C2159 0.950 . S
H2131 C2160 0.950 . S
H2132 C2162 0.950 . S
H2133 C2163 0.950 . S
C2134 H2116 0.951 . S
C2134 C2135 1.366 . S
C2134 C2136 1.388 . S
C2135 C2134 1.366 . S
C2135 C2139 1.385 . S
C2136 H2117 0.951 . S
C2136 C2134 1.388 . S
C2136 C2137 1.366 . S
C2137 C2136 1.366 . S
C2137 C2138 1.414 . S
C2137 C2140 1.499 . S
C2138 H2118 0.950 . S
C2138 C2137 1.414 . S
C2138 C2139 1.374 . S
C2139 H2119 0.950 . S
C2139 C2135 1.385 . S
C2139 C2138 1.374 . S
C2140 C2137 1.499 . S
C2140 C2141 1.373 . S
C2140 C2142 1.389 . S
C2141 H2120 0.950 . S
C2141 C2140 1.373 . S
C2141 C2157 1.377 . S
C2142 C2140 1.389 . S
C2142 C2143 1.524 . S
C2142 C2156 1.377 . S
C2143 C2142 1.524 . S
C2143 C2144 1.397 . S
C2143 C2148 1.363 . S
C2144 H2121 0.950 . S
C2144 C2143 1.397 . S
C2144 C2145 1.334 . S
C2145 H2122 0.950 . S
C2145 C2144 1.334 . S
C2145 C2146 1.287 . S
C2146 C2145 1.287 . S
C2146 C2147 1.524 . S
C2146 H2165 0.913 . S
C2147 H2123 0.950 . S
C2147 C2146 1.524 . S
C2147 C2148 1.415 . S
C2148 H2124 0.950 . S
C2148 C2143 1.363 . S
C2148 C2147 1.415 . S
C2149 H2125 0.951 . S
C2149 C2150 1.366 . S
C2149 C2151 1.388 . S
C2150 C2149 1.366 . S
C2150 C2154 1.385 . S
C2151 H2126 0.951 . S
C2151 C2149 1.388 . S
C2151 C2152 1.366 . S
C2152 C2151 1.366 . S
C2152 C2153 1.414 . S
C2152 C2155 1.499 . S
C2153 H2127 0.950 . S
C2153 C2152 1.414 . S
C2153 C2154 1.374 . S
C2154 H2128 0.950 . S
C2154 C2150 1.385 . S
C2154 C2153 1.374 . S
C2155 C2152 1.499 . S
C2155 C2156 1.373 . S
C2155 C2157 1.389 . S
C2156 H2129 0.950 . S
C2156 C2142 1.377 . S
C2156 C2155 1.373 . S
C2157 C2141 1.377 . S
C2157 C2155 1.389 . S
C2157 C2158 1.524 . S
C2158 C2157 1.524 . S
C2158 C2159 1.397 . S
C2158 C2163 1.363 . S
C2159 H2130 0.950 . S
C2159 C2158 1.397 . S
C2159 C2160 1.334 . S
C2160 H2131 0.950 . S
C2160 C2159 1.334 . S
C2160 C2161 1.287 . S
C2161 C2160 1.287 . S
C2161 C2162 1.524 . S
C2161 H2164 0.999 . S
C2162 H2132 0.950 . S
C2162 C2161 1.524 . S
C2162 C2163 1.415 . S
C2163 H2133 0.950 . S
C2163 C2158 1.363 . S
C2163 C2162 1.415 . S
H2164 C2161 0.999 . S
H2165 C2146 0.913 . S
H2166 C2184 0.951 . S
H2167 C2186 0.951 . S
H2168 C2188 0.950 . S
H2169 C2189 0.950 . S
H2170 C2191 0.950 . S
H2171 C2194 0.950 . S
H2172 C2195 0.950 . S
H2173 C2197 0.950 . S
H2174 C2198 0.950 . S
H2175 C2199 0.951 . S
H2176 C2201 0.951 . S
H2177 C2203 0.950 . S
H2178 C2204 0.950 . S
H2179 C2206 0.950 . S
H2180 C2209 0.950 . S
H2181 C2210 0.950 . S
H2182 C2212 0.950 . S
H2183 C2213 0.950 . S
C2184 H2166 0.951 . S
C2184 C2185 1.366 . S
C2184 C2186 1.388 . S
C2185 C2184 1.366 . S
C2185 C2189 1.385 . S
C2186 H2167 0.951 . S
C2186 C2184 1.388 . S
C2186 C2187 1.366 . S
C2187 C2186 1.366 . S
C2187 C2188 1.414 . S
C2187 C2190 1.499 . S
C2188 H2168 0.950 . S
C2188 C2187 1.414 . S
C2188 C2189 1.374 . S
C2189 H2169 0.950 . S
C2189 C2185 1.385 . S
C2189 C2188 1.374 . S
C2190 C2187 1.499 . S
C2190 C2191 1.373 . S
C2190 C2192 1.389 . S
C2191 H2170 0.950 . S
C2191 C2190 1.373 . S
C2191 C2207 1.377 . S
C2192 C2190 1.389 . S
C2192 C2193 1.524 . S
C2192 C2206 1.377 . S
C2193 C2192 1.524 . S
C2193 C2194 1.397 . S
C2193 C2198 1.363 . S
C2194 H2171 0.950 . S
C2194 C2193 1.397 . S
C2194 C2195 1.334 . S
C2195 H2172 0.950 . S
C2195 C2194 1.334 . S
C2195 C2196 1.287 . S
C2196 C2195 1.287 . S
C2196 C2197 1.524 . S
C2196 H2215 0.913 . S
C2197 H2173 0.950 . S
C2197 C2196 1.524 . S
C2197 C2198 1.415 . S
C2198 H2174 0.950 . S
C2198 C2193 1.363 . S
C2198 C2197 1.415 . S
C2199 H2175 0.951 . S
C2199 C2200 1.366 . S
C2199 C2201 1.388 . S
C2200 C2199 1.366 . S
C2200 C2204 1.385 . S
C2201 H2176 0.951 . S
C2201 C2199 1.388 . S
C2201 C2202 1.366 . S
C2202 C2201 1.366 . S
C2202 C2203 1.414 . S
C2202 C2205 1.499 . S
C2203 H2177 0.950 . S
C2203 C2202 1.414 . S
C2203 C2204 1.374 . S
C2204 H2178 0.950 . S
C2204 C2200 1.385 . S
C2204 C2203 1.374 . S
C2205 C2202 1.499 . S
C2205 C2206 1.373 . S
C2205 C2207 1.389 . S
C2206 H2179 0.950 . S
C2206 C2192 1.377 . S
C2206 C2205 1.373 . S
C2207 C2191 1.377 . S
C2207 C2205 1.389 . S
C2207 C2208 1.524 . S
C2208 C2207 1.524 . S
C2208 C2209 1.397 . S
C2208 C2213 1.363 . S
C2209 H2180 0.950 . S
C2209 C2208 1.397 . S
C2209 C2210 1.334 . S
C2210 H2181 0.950 . S
C2210 C2209 1.334 . S
C2210 C2211 1.287 . S
C2211 C2210 1.287 . S
C2211 C2212 1.524 . S
C2211 H2214 0.999 . S
C2212 H2182 0.950 . S
C2212 C2211 1.524 . S
C2212 C2213 1.415 . S
C2213 H2183 0.950 . S
C2213 C2208 1.363 . S
C2213 C2212 1.415 . S
H2214 C2211 0.999 . S
H2215 C2196 0.913 . S
H2216 C2234 0.951 . S
H2217 C2236 0.951 . S
H2218 C2238 0.950 . S
H2219 C2239 0.950 . S
H2220 C2241 0.950 . S
H2221 C2244 0.950 . S
H2222 C2245 0.950 . S
H2223 C2247 0.950 . S
H2224 C2248 0.950 . S
H2225 C2249 0.951 . S
H2226 C2251 0.951 . S
H2227 C2253 0.950 . S
H2228 C2254 0.950 . S
H2229 C2256 0.950 . S
H2230 C2259 0.950 . S
H2231 C2260 0.950 . S
H2232 C2262 0.950 . S
H2233 C2263 0.950 . S
C2234 H2216 0.951 . S
C2234 C2235 1.366 . S
C2234 C2236 1.388 . S
C2235 C2234 1.366 . S
C2235 C2239 1.385 . S
C2236 H2217 0.951 . S
C2236 C2234 1.388 . S
C2236 C2237 1.366 . S
C2237 C2236 1.366 . S
C2237 C2238 1.414 . S
C2237 C2240 1.499 . S
C2238 H2218 0.950 . S
C2238 C2237 1.414 . S
C2238 C2239 1.374 . S
C2239 H2219 0.950 . S
C2239 C2235 1.385 . S
C2239 C2238 1.374 . S
C2240 C2237 1.499 . S
C2240 C2241 1.373 . S
C2240 C2242 1.389 . S
C2241 H2220 0.950 . S
C2241 C2240 1.373 . S
C2241 C2257 1.377 . S
C2242 C2240 1.389 . S
C2242 C2243 1.524 . S
C2242 C2256 1.377 . S
C2243 C2242 1.524 . S
C2243 C2244 1.397 . S
C2243 C2248 1.363 . S
C2244 H2221 0.950 . S
C2244 C2243 1.397 . S
C2244 C2245 1.334 . S
C2245 H2222 0.950 . S
C2245 C2244 1.334 . S
C2245 C2246 1.287 . S
C2246 C2245 1.287 . S
C2246 C2247 1.524 . S
C2246 H2265 0.913 . S
C2247 H2223 0.950 . S
C2247 C2246 1.524 . S
C2247 C2248 1.415 . S
C2248 H2224 0.950 . S
C2248 C2243 1.363 . S
C2248 C2247 1.415 . S
C2249 H2225 0.951 . S
C2249 C2250 1.366 . S
C2249 C2251 1.388 . S
C2250 C2249 1.366 . S
C2250 C2254 1.385 . S
C2251 H2226 0.951 . S
C2251 C2249 1.388 . S
C2251 C2252 1.366 . S
C2252 C2251 1.366 . S
C2252 C2253 1.414 . S
C2252 C2255 1.499 . S
C2253 H2227 0.950 . S
C2253 C2252 1.414 . S
C2253 C2254 1.374 . S
C2254 H2228 0.950 . S
C2254 C2250 1.385 . S
C2254 C2253 1.374 . S
C2255 C2252 1.499 . S
C2255 C2256 1.373 . S
C2255 C2257 1.389 . S
C2256 H2229 0.950 . S
C2256 C2242 1.377 . S
C2256 C2255 1.373 . S
C2257 C2241 1.377 . S
C2257 C2255 1.389 . S
C2257 C2258 1.524 . S
C2258 C2257 1.524 . S
C2258 C2259 1.397 . S
C2258 C2263 1.363 . S
C2259 H2230 0.950 . S
C2259 C2258 1.397 . S
C2259 C2260 1.334 . S
C2260 H2231 0.950 . S
C2260 C2259 1.334 . S
C2260 C2261 1.287 . S
C2261 C2260 1.287 . S
C2261 C2262 1.524 . S
C2261 H2264 0.999 . S
C2262 H2232 0.950 . S
C2262 C2261 1.524 . S
C2262 C2263 1.415 . S
C2263 H2233 0.950 . S
C2263 C2258 1.363 . S
C2263 C2262 1.415 . S
H2264 C2261 0.999 . S
H2265 C2246 0.913 . S
H2266 C2284 0.951 . S
H2267 C2286 0.951 . S
H2268 C2288 0.950 . S
H2269 C2289 0.950 . S
H2270 C2291 0.950 . S
H2271 C2294 0.950 . S
H2272 C2295 0.950 . S
H2273 C2297 0.950 . S
H2274 C2298 0.950 . S
H2275 C2299 0.951 . S
H2276 C2301 0.951 . S
H2277 C2303 0.950 . S
H2278 C2304 0.950 . S
H2279 C2306 0.950 . S
H2280 C2309 0.950 . S
H2281 C2310 0.950 . S
H2282 C2312 0.950 . S
H2283 C2313 0.950 . S
C2284 H2266 0.951 . S
C2284 C2285 1.366 . S
C2284 C2286 1.388 . S
C2285 C2284 1.366 . S
C2285 C2289 1.385 . S
C2286 H2267 0.951 . S
C2286 C2284 1.388 . S
C2286 C2287 1.366 . S
C2287 C2286 1.366 . S
C2287 C2288 1.414 . S
C2287 C2290 1.499 . S
C2288 H2268 0.950 . S
C2288 C2287 1.414 . S
C2288 C2289 1.374 . S
C2289 H2269 0.950 . S
C2289 C2285 1.385 . S
C2289 C2288 1.374 . S
C2290 C2287 1.499 . S
C2290 C2291 1.373 . S
C2290 C2292 1.389 . S
C2291 H2270 0.950 . S
C2291 C2290 1.373 . S
C2291 C2307 1.377 . S
C2292 C2290 1.389 . S
C2292 C2293 1.524 . S
C2292 C2306 1.377 . S
C2293 C2292 1.524 . S
C2293 C2294 1.397 . S
C2293 C2298 1.363 . S
C2294 H2271 0.950 . S
C2294 C2293 1.397 . S
C2294 C2295 1.334 . S
C2295 H2272 0.950 . S
C2295 C2294 1.334 . S
C2295 C2296 1.287 . S
C2296 C2295 1.287 . S
C2296 C2297 1.524 . S
C2296 H2315 0.913 . S
C2297 H2273 0.950 . S
C2297 C2296 1.524 . S
C2297 C2298 1.415 . S
C2298 H2274 0.950 . S
C2298 C2293 1.363 . S
C2298 C2297 1.415 . S
C2299 H2275 0.951 . S
C2299 C2300 1.366 . S
C2299 C2301 1.388 . S
C2300 C2299 1.366 . S
C2300 C2304 1.385 . S
C2301 H2276 0.951 . S
C2301 C2299 1.388 . S
C2301 C2302 1.366 . S
C2302 C2301 1.366 . S
C2302 C2303 1.414 . S
C2302 C2305 1.499 . S
C2303 H2277 0.950 . S
C2303 C2302 1.414 . S
C2303 C2304 1.374 . S
C2304 H2278 0.950 . S
C2304 C2300 1.385 . S
C2304 C2303 1.374 . S
C2305 C2302 1.499 . S
C2305 C2306 1.373 . S
C2305 C2307 1.389 . S
C2306 H2279 0.950 . S
C2306 C2292 1.377 . S
C2306 C2305 1.373 . S
C2307 C2291 1.377 . S
C2307 C2305 1.389 . S
C2307 C2308 1.524 . S
C2308 C2307 1.524 . S
C2308 C2309 1.397 . S
C2308 C2313 1.363 . S
C2309 H2280 0.950 . S
C2309 C2308 1.397 . S
C2309 C2310 1.334 . S
C2310 H2281 0.950 . S
C2310 C2309 1.334 . S
C2310 C2311 1.287 . S
C2311 C2310 1.287 . S
C2311 C2312 1.524 . S
C2311 H2314 0.999 . S
C2312 H2282 0.950 . S
C2312 C2311 1.524 . S
C2312 C2313 1.415 . S
C2313 H2283 0.950 . S
C2313 C2308 1.363 . S
C2313 C2312 1.415 . S
H2314 C2311 0.999 . S
H2315 C2296 0.913 . S
H2316 C2334 0.951 . S
H2317 C2336 0.951 . S
H2318 C2338 0.950 . S
H2319 C2339 0.950 . S
H2320 C2341 0.950 . S
H2321 C2344 0.950 . S
H2322 C2345 0.950 . S
H2323 C2347 0.950 . S
H2324 C2348 0.950 . S
H2325 C2349 0.951 . S
H2326 C2351 0.951 . S
H2327 C2353 0.950 . S
H2328 C2354 0.950 . S
H2329 C2356 0.950 . S
H2330 C2359 0.950 . S
H2331 C2360 0.950 . S
H2332 C2362 0.950 . S
H2333 C2363 0.950 . S
C2334 H2316 0.951 . S
C2334 C2335 1.366 . S
C2334 C2336 1.388 . S
C2335 C2334 1.366 . S
C2335 C2339 1.385 . S
C2336 H2317 0.951 . S
C2336 C2334 1.388 . S
C2336 C2337 1.366 . S
C2337 C2336 1.366 . S
C2337 C2338 1.414 . S
C2337 C2340 1.499 . S
C2338 H2318 0.950 . S
C2338 C2337 1.414 . S
C2338 C2339 1.374 . S
C2339 H2319 0.950 . S
C2339 C2335 1.385 . S
C2339 C2338 1.374 . S
C2340 C2337 1.499 . S
C2340 C2341 1.373 . S
C2340 C2342 1.389 . S
C2341 H2320 0.950 . S
C2341 C2340 1.373 . S
C2341 C2357 1.377 . S
C2342 C2340 1.389 . S
C2342 C2343 1.524 . S
C2342 C2356 1.377 . S
C2343 C2342 1.524 . S
C2343 C2344 1.397 . S
C2343 C2348 1.363 . S
C2344 H2321 0.950 . S
C2344 C2343 1.397 . S
C2344 C2345 1.334 . S
C2345 H2322 0.950 . S
C2345 C2344 1.334 . S
C2345 C2346 1.287 . S
C2346 C2345 1.287 . S
C2346 C2347 1.524 . S
C2346 H2365 0.913 . S
C2347 H2323 0.950 . S
C2347 C2346 1.524 . S
C2347 C2348 1.415 . S
C2348 H2324 0.950 . S
C2348 C2343 1.363 . S
C2348 C2347 1.415 . S
C2349 H2325 0.951 . S
C2349 C2350 1.366 . S
C2349 C2351 1.388 . S
C2350 C2349 1.366 . S
C2350 C2354 1.385 . S
C2351 H2326 0.951 . S
C2351 C2349 1.388 . S
C2351 C2352 1.366 . S
C2352 C2351 1.366 . S
C2352 C2353 1.414 . S
C2352 C2355 1.499 . S
C2353 H2327 0.950 . S
C2353 C2352 1.414 . S
C2353 C2354 1.374 . S
C2354 H2328 0.950 . S
C2354 C2350 1.385 . S
C2354 C2353 1.374 . S
C2355 C2352 1.499 . S
C2355 C2356 1.373 . S
C2355 C2357 1.389 . S
C2356 H2329 0.950 . S
C2356 C2342 1.377 . S
C2356 C2355 1.373 . S
C2357 C2341 1.377 . S
C2357 C2355 1.389 . S
C2357 C2358 1.524 . S
C2358 C2357 1.524 . S
C2358 C2359 1.397 . S
C2358 C2363 1.363 . S
C2359 H2330 0.950 . S
C2359 C2358 1.397 . S
C2359 C2360 1.334 . S
C2360 H2331 0.950 . S
C2360 C2359 1.334 . S
C2360 C2361 1.287 . S
C2361 C2360 1.287 . S
C2361 C2362 1.524 . S
C2361 H2364 0.999 . S
C2362 H2332 0.950 . S
C2362 C2361 1.524 . S
C2362 C2363 1.415 . S
C2363 H2333 0.950 . S
C2363 C2358 1.363 . S
C2363 C2362 1.415 . S
H2364 C2361 0.999 . S
H2365 C2346 0.913 . S
H2366 C2384 0.951 . S
H2367 C2386 0.951 . S
H2368 C2388 0.950 . S
H2369 C2389 0.950 . S
H2370 C2391 0.950 . S
H2371 C2394 0.950 . S
H2372 C2395 0.950 . S
H2373 C2397 0.950 . S
H2374 C2398 0.950 . S
H2375 C2399 0.951 . S
H2376 C2401 0.951 . S
H2377 C2403 0.950 . S
H2378 C2404 0.950 . S
H2379 C2406 0.950 . S
H2380 C2409 0.950 . S
H2381 C2410 0.950 . S
H2382 C2412 0.950 . S
H2383 C2413 0.950 . S
C2384 H2366 0.951 . S
C2384 C2385 1.366 . S
C2384 C2386 1.388 . S
C2385 C2384 1.366 . S
C2385 C2389 1.385 . S
C2386 H2367 0.951 . S
C2386 C2384 1.388 . S
C2386 C2387 1.366 . S
C2387 C2386 1.366 . S
C2387 C2388 1.414 . S
C2387 C2390 1.499 . S
C2388 H2368 0.950 . S
C2388 C2387 1.414 . S
C2388 C2389 1.374 . S
C2389 H2369 0.950 . S
C2389 C2385 1.385 . S
C2389 C2388 1.374 . S
C2390 C2387 1.499 . S
C2390 C2391 1.373 . S
C2390 C2392 1.389 . S
C2391 H2370 0.950 . S
C2391 C2390 1.373 . S
C2391 C2407 1.377 . S
C2392 C2390 1.389 . S
C2392 C2393 1.535 . S
C2392 C2406 1.377 . S
C2393 C2392 1.535 . S
C2393 C2394 1.383 1_545 S
C2393 C2398 1.365 . S
C2394 H2371 0.950 . S
C2394 C2393 1.383 1_565 S
C2394 C2395 1.334 . S
C2395 H2372 0.950 . S
C2395 C2394 1.334 . S
C2395 C2396 1.287 . S
C2396 C2395 1.287 . S
C2396 C2397 1.524 . S
C2396 H2415 0.913 . S
C2397 H2373 0.950 . S
C2397 C2396 1.524 . S
C2397 C2398 1.415 1_565 S
C2398 H2374 0.950 . S
C2398 C2393 1.365 . S
C2398 C2397 1.415 1_545 S
C2399 H2375 0.951 . S
C2399 C2400 1.366 . S
C2399 C2401 1.388 . S
C2400 C2399 1.366 . S
C2400 C2404 1.385 . S
C2401 H2376 0.951 . S
C2401 C2399 1.388 . S
C2401 C2402 1.366 . S
C2402 C2401 1.366 . S
C2402 C2403 1.414 . S
C2402 C2405 1.499 . S
C2403 H2377 0.950 . S
C2403 C2402 1.414 . S
C2403 C2404 1.374 . S
C2404 H2378 0.950 . S
C2404 C2400 1.385 . S
C2404 C2403 1.374 . S
C2405 C2402 1.499 . S
C2405 C2406 1.373 . S
C2405 C2407 1.389 . S
C2406 H2379 0.950 . S
C2406 C2392 1.377 . S
C2406 C2405 1.373 . S
C2407 C2391 1.377 . S
C2407 C2405 1.389 . S
C2407 C2408 1.524 . S
C2408 C2407 1.524 . S
C2408 C2409 1.397 . S
C2408 C2413 1.363 . S
C2409 H2380 0.950 . S
C2409 C2408 1.397 . S
C2409 C2410 1.334 . S
C2410 H2381 0.950 . S
C2410 C2409 1.334 . S
C2410 C2411 1.287 . S
C2411 C2410 1.287 . S
C2411 C2412 1.524 . S
C2411 H2414 0.999 . S
C2412 H2382 0.950 . S
C2412 C2411 1.524 . S
C2412 C2413 1.415 . S
C2413 H2383 0.950 . S
C2413 C2408 1.363 . S
C2413 C2412 1.415 . S
H2414 C2411 0.999 . S
H2415 C2396 0.913 . S
H2416 C2434 0.951 . S
H2417 C2436 0.951 . S
H2418 C2438 0.950 . S
H2419 C2439 0.950 . S
H2420 C2441 0.950 . S
H2421 C2444 0.950 . S
H2422 C2445 0.950 . S
H2423 C2447 0.950 . S
H2424 C2448 0.950 . S
H2425 C2449 0.951 . S
H2426 C2451 0.951 . S
H2427 C2453 0.950 . S
H2428 C2454 0.950 . S
H2429 C2456 0.950 . S
H2430 C2459 0.950 . S
H2431 C2460 0.950 . S
H2432 C2462 0.950 . S
H2433 C2463 0.950 . S
C2434 H2416 0.951 . S
C2434 C2435 1.366 . S
C2434 C2436 1.388 . S
C2435 C2434 1.366 . S
C2435 C2439 1.385 . S
C2436 H2417 0.951 . S
C2436 C2434 1.388 . S
C2436 C2437 1.366 . S
C2437 C2436 1.366 . S
C2437 C2438 1.414 . S
C2437 C2440 1.499 . S
C2438 H2418 0.950 . S
C2438 C2437 1.414 . S
C2438 C2439 1.374 . S
C2439 H2419 0.950 . S
C2439 C2435 1.385 . S
C2439 C2438 1.374 . S
C2440 C2437 1.499 . S
C2440 C2441 1.373 . S
C2440 C2442 1.389 . S
C2441 H2420 0.950 . S
C2441 C2440 1.373 . S
C2441 C2457 1.377 . S
C2442 C2440 1.389 . S
C2442 C2443 1.524 . S
C2442 C2456 1.377 . S
C2443 C2442 1.524 . S
C2443 C2444 1.397 . S
C2443 C2448 1.363 . S
C2444 H2421 0.950 . S
C2444 C2443 1.397 . S
C2444 C2445 1.334 . S
C2445 H2422 0.950 . S
C2445 C2444 1.334 . S
C2445 C2446 1.287 . S
C2446 C2445 1.287 . S
C2446 C2447 1.524 . S
C2446 H2465 0.913 . S
C2447 H2423 0.950 . S
C2447 C2446 1.524 . S
C2447 C2448 1.415 . S
C2448 H2424 0.950 . S
C2448 C2443 1.363 . S
C2448 C2447 1.415 . S
C2449 H2425 0.951 . S
C2449 C2450 1.366 . S
C2449 C2451 1.388 . S
C2450 C2449 1.366 . S
C2450 C2454 1.385 . S
C2451 H2426 0.951 . S
C2451 C2449 1.388 . S
C2451 C2452 1.366 . S
C2452 C2451 1.366 . S
C2452 C2453 1.414 . S
C2452 C2455 1.499 . S
C2453 H2427 0.950 . S
C2453 C2452 1.414 . S
C2453 C2454 1.374 . S
C2454 H2428 0.950 . S
C2454 C2450 1.385 . S
C2454 C2453 1.374 . S
C2455 C2452 1.499 . S
C2455 C2456 1.373 . S
C2455 C2457 1.389 . S
C2456 H2429 0.950 . S
C2456 C2442 1.377 . S
C2456 C2455 1.373 . S
C2457 C2441 1.377 . S
C2457 C2455 1.389 . S
C2457 C2458 1.524 . S
C2458 C2457 1.524 . S
C2458 C2459 1.397 . S
C2458 C2463 1.363 . S
C2459 H2430 0.950 . S
C2459 C2458 1.397 . S
C2459 C2460 1.334 . S
C2460 H2431 0.950 . S
C2460 C2459 1.334 . S
C2460 C2461 1.287 . S
C2461 C2460 1.287 . S
C2461 C2462 1.524 . S
C2461 H2464 0.999 . S
C2462 H2432 0.950 . S
C2462 C2461 1.524 . S
C2462 C2463 1.415 . S
C2463 H2433 0.950 . S
C2463 C2458 1.363 . S
C2463 C2462 1.415 . S
H2464 C2461 0.999 . S
H2465 C2446 0.913 . S
H2466 C2484 0.951 . S
H2467 C2486 0.951 . S
H2468 C2488 0.950 . S
H2469 C2489 0.950 . S
H2470 C2491 0.950 . S
H2471 C2494 0.950 . S
H2472 C2495 0.950 . S
H2473 C2497 0.950 . S
H2474 C2498 0.950 . S
H2475 C2499 0.951 . S
H2476 C2501 0.951 . S
H2477 C2503 0.950 . S
H2478 C2504 0.950 . S
H2479 C2506 0.950 . S
H2480 C2509 0.950 . S
H2481 C2510 0.950 . S
H2482 C2512 0.950 . S
H2483 C2513 0.950 . S
C2484 H2466 0.951 . S
C2484 C2485 1.366 . S
C2484 C2486 1.388 . S
C2485 C2484 1.366 . S
C2485 C2489 1.385 . S
C2486 H2467 0.951 . S
C2486 C2484 1.388 . S
C2486 C2487 1.366 . S
C2487 C2486 1.366 . S
C2487 C2488 1.414 . S
C2487 C2490 1.499 . S
C2488 H2468 0.950 . S
C2488 C2487 1.414 . S
C2488 C2489 1.374 . S
C2489 H2469 0.950 . S
C2489 C2485 1.385 . S
C2489 C2488 1.374 . S
C2490 C2487 1.499 . S
C2490 C2491 1.373 . S
C2490 C2492 1.389 . S
C2491 H2470 0.950 . S
C2491 C2490 1.373 . S
C2491 C2507 1.377 . S
C2492 C2490 1.389 . S
C2492 C2493 1.524 . S
C2492 C2506 1.377 . S
C2493 C2492 1.524 . S
C2493 C2494 1.397 . S
C2493 C2498 1.363 . S
C2494 H2471 0.950 . S
C2494 C2493 1.397 . S
C2494 C2495 1.334 . S
C2495 H2472 0.950 . S
C2495 C2494 1.334 . S
C2495 C2496 1.287 . S
C2496 C2495 1.287 . S
C2496 C2497 1.524 . S
C2496 H2515 0.913 . S
C2497 H2473 0.950 . S
C2497 C2496 1.524 . S
C2497 C2498 1.415 . S
C2498 H2474 0.950 . S
C2498 C2493 1.363 . S
C2498 C2497 1.415 . S
C2499 H2475 0.951 . S
C2499 C2500 1.366 . S
C2499 C2501 1.388 . S
C2500 C2499 1.366 . S
C2500 C2504 1.385 . S
C2501 H2476 0.951 . S
C2501 C2499 1.388 . S
C2501 C2502 1.366 . S
C2502 C2501 1.366 . S
C2502 C2503 1.414 . S
C2502 C2505 1.499 . S
C2503 H2477 0.950 . S
C2503 C2502 1.414 . S
C2503 C2504 1.374 . S
C2504 H2478 0.950 . S
C2504 C2500 1.385 . S
C2504 C2503 1.374 . S
C2505 C2502 1.499 . S
C2505 C2506 1.373 . S
C2505 C2507 1.389 . S
C2506 H2479 0.950 . S
C2506 C2492 1.377 . S
C2506 C2505 1.373 . S
C2507 C2491 1.377 . S
C2507 C2505 1.389 . S
C2507 C2508 1.524 . S
C2508 C2507 1.524 . S
C2508 C2509 1.397 . S
C2508 C2513 1.363 . S
C2509 H2480 0.950 . S
C2509 C2508 1.397 . S
C2509 C2510 1.334 . S
C2510 H2481 0.950 . S
C2510 C2509 1.334 . S
C2510 C2511 1.287 . S
C2511 C2510 1.287 . S
C2511 C2512 1.524 . S
C2511 H2514 0.999 . S
C2512 H2482 0.950 . S
C2512 C2511 1.524 . S
C2512 C2513 1.415 . S
C2513 H2483 0.950 . S
C2513 C2508 1.363 . S
C2513 C2512 1.415 . S
H2514 C2511 0.999 . S
H2515 C2496 0.913 . S
H2516 C2534 0.951 . S
H2517 C2536 0.951 . S
H2518 C2538 0.950 . S
H2519 C2539 0.950 . S
H2520 C2541 0.950 . S
H2521 C2544 0.950 . S
H2522 C2545 0.950 . S
H2523 C2547 0.950 . S
H2524 C2548 0.950 . S
H2525 C2549 0.951 . S
H2526 C2551 0.951 . S
H2527 C2553 0.950 . S
H2528 C2554 0.950 . S
H2529 C2556 0.950 . S
H2530 C2559 0.950 . S
H2531 C2560 0.950 . S
H2532 C2562 0.950 . S
H2533 C2563 0.950 . S
C2534 H2516 0.951 . S
C2534 C2535 1.366 . S
C2534 C2536 1.388 . S
C2535 C2534 1.366 . S
C2535 C2539 1.385 . S
C2536 H2517 0.951 . S
C2536 C2534 1.388 . S
C2536 C2537 1.366 . S
C2537 C2536 1.366 . S
C2537 C2538 1.414 . S
C2537 C2540 1.499 . S
C2538 H2518 0.950 . S
C2538 C2537 1.414 . S
C2538 C2539 1.374 . S
C2539 H2519 0.950 . S
C2539 C2535 1.385 . S
C2539 C2538 1.374 . S
C2540 C2537 1.499 . S
C2540 C2541 1.373 . S
C2540 C2542 1.389 . S
C2541 H2520 0.950 . S
C2541 C2540 1.373 . S
C2541 C2557 1.377 . S
C2542 C2540 1.389 . S
C2542 C2543 1.524 . S
C2542 C2556 1.377 . S
C2543 C2542 1.524 . S
C2543 C2544 1.397 . S
C2543 C2548 1.363 . S
C2544 H2521 0.950 . S
C2544 C2543 1.397 . S
C2544 C2545 1.334 . S
C2545 H2522 0.950 . S
C2545 C2544 1.334 . S
C2545 C2546 1.287 . S
C2546 C2545 1.287 . S
C2546 C2547 1.524 . S
C2546 H2565 0.913 . S
C2547 H2523 0.950 . S
C2547 C2546 1.524 . S
C2547 C2548 1.415 . S
C2548 H2524 0.950 . S
C2548 C2543 1.363 . S
C2548 C2547 1.415 . S
C2549 H2525 0.951 . S
C2549 C2550 1.366 . S
C2549 C2551 1.388 . S
C2550 C2549 1.366 . S
C2550 C2554 1.385 . S
C2551 H2526 0.951 . S
C2551 C2549 1.388 . S
C2551 C2552 1.366 . S
C2552 C2551 1.366 . S
C2552 C2553 1.414 . S
C2552 C2555 1.499 . S
C2553 H2527 0.950 . S
C2553 C2552 1.414 . S
C2553 C2554 1.374 . S
C2554 H2528 0.950 . S
C2554 C2550 1.385 . S
C2554 C2553 1.374 . S
C2555 C2552 1.499 . S
C2555 C2556 1.373 . S
C2555 C2557 1.389 . S
C2556 H2529 0.950 . S
C2556 C2542 1.377 . S
C2556 C2555 1.373 . S
C2557 C2541 1.377 . S
C2557 C2555 1.389 . S
C2557 C2558 1.524 . S
C2558 C2557 1.524 . S
C2558 C2559 1.397 . S
C2558 C2563 1.363 . S
C2559 H2530 0.950 . S
C2559 C2558 1.397 . S
C2559 C2560 1.334 . S
C2560 H2531 0.950 . S
C2560 C2559 1.334 . S
C2560 C2561 1.287 . S
C2561 C2560 1.287 . S
C2561 C2562 1.524 . S
C2561 H2564 0.999 . S
C2562 H2532 0.950 . S
C2562 C2561 1.524 . S
C2562 C2563 1.415 . S
C2563 H2533 0.950 . S
C2563 C2558 1.363 . S
C2563 C2562 1.415 . S
H2564 C2561 0.999 . S
H2565 C2546 0.913 . S
H2566 C2584 0.951 . S
H2567 C2586 0.951 . S
H2568 C2588 0.950 . S
H2569 C2589 0.950 . S
H2570 C2591 0.950 . S
H2571 C2594 0.950 . S
H2572 C2595 0.954 1_465 S
H2573 C2597 0.950 . S
H2574 C2598 0.950 . S
H2575 C2599 0.951 . S
H2576 C2601 0.951 . S
H2577 C2603 0.950 . S
H2578 C2604 0.950 . S
H2579 C2606 0.950 . S
H2580 C2609 0.950 . S
H2581 C2610 0.950 . S
H2582 C2612 0.950 . S
H2583 C2613 0.950 . S
C2584 H2566 0.951 . S
C2584 C2585 1.366 . S
C2584 C2586 1.388 . S
C2585 C2584 1.366 . S
C2585 C2589 1.385 . S
C2586 H2567 0.951 . S
C2586 C2584 1.388 . S
C2586 C2587 1.366 . S
C2587 C2586 1.366 . S
C2587 C2588 1.414 . S
C2587 C2590 1.499 . S
C2588 H2568 0.950 . S
C2588 C2587 1.414 . S
C2588 C2589 1.374 . S
C2589 H2569 0.950 . S
C2589 C2585 1.385 . S
C2589 C2588 1.374 . S
C2590 C2587 1.499 . S
C2590 C2591 1.373 . S
C2590 C2592 1.389 . S
C2591 H2570 0.950 . S
C2591 C2590 1.373 . S
C2591 C2607 1.377 . S
C2592 C2590 1.389 . S
C2592 C2593 1.524 . S
C2592 C2606 1.377 . S
C2593 C2592 1.524 . S
C2593 C2594 1.397 . S
C2593 C2598 1.363 . S
C2594 H2571 0.950 . S
C2594 C2593 1.397 . S
C2594 C2595 1.331 . S
C2595 H2572 0.954 1_645 S
C2595 C2594 1.331 . S
C2595 C2596 1.285 1_655 S
C2596 C2595 1.285 1_455 S
C2596 C2597 1.524 . S
C2596 H2615 0.913 . S
C2597 H2573 0.950 . S
C2597 C2596 1.524 . S
C2597 C2598 1.415 1_455 S
C2598 H2574 0.950 . S
C2598 C2593 1.363 . S
C2598 C2597 1.415 1_655 S
C2599 H2575 0.951 . S
C2599 C2600 1.366 . S
C2599 C2601 1.388 . S
C2600 C2599 1.366 . S
C2600 C2604 1.385 . S
C2601 H2576 0.951 . S
C2601 C2599 1.388 . S
C2601 C2602 1.366 . S
C2602 C2601 1.366 . S
C2602 C2603 1.414 . S
C2602 C2605 1.499 . S
C2603 H2577 0.950 . S
C2603 C2602 1.414 . S
C2603 C2604 1.374 . S
C2604 H2578 0.950 . S
C2604 C2600 1.385 . S
C2604 C2603 1.374 . S
C2605 C2602 1.499 . S
C2605 C2606 1.373 . S
C2605 C2607 1.389 . S
C2606 H2579 0.950 . S
C2606 C2592 1.377 . S
C2606 C2605 1.373 . S
C2607 C2591 1.377 . S
C2607 C2605 1.389 . S
C2607 C2608 1.524 . S
C2608 C2607 1.524 . S
C2608 C2609 1.397 . S
C2608 C2613 1.363 . S
C2609 H2580 0.950 . S
C2609 C2608 1.397 . S
C2609 C2610 1.334 . S
C2610 H2581 0.950 . S
C2610 C2609 1.334 . S
C2610 C2611 1.287 . S
C2611 C2610 1.287 . S
C2611 C2612 1.524 . S
C2611 H2614 0.999 . S
C2612 H2582 0.950 . S
C2612 C2611 1.524 . S
C2612 C2613 1.415 . S
C2613 H2583 0.950 . S
C2613 C2608 1.363 . S
C2613 C2612 1.415 . S
H2614 C2611 0.999 . S
H2615 C2596 0.913 . S
H2616 C2634 0.951 . S
H2617 C2636 0.951 . S
H2618 C2638 0.950 . S
H2619 C2639 0.950 . S
H2620 C2641 0.950 . S
H2621 C2644 0.950 . S
H2622 C2645 0.950 . S
H2623 C2647 0.950 . S
H2624 C2648 0.950 . S
H2625 C2649 0.951 . S
H2626 C2651 0.951 . S
H2627 C2653 0.950 . S
H2628 C2654 0.950 . S
H2629 C2656 0.950 . S
H2630 C2659 0.950 . S
H2631 C2660 0.950 . S
H2632 C2662 0.950 . S
H2633 C2663 0.950 . S
C2634 H2616 0.951 . S
C2634 C2635 1.366 . S
C2634 C2636 1.388 . S
C2635 C2634 1.366 . S
C2635 C2639 1.385 . S
C2636 H2617 0.951 . S
C2636 C2634 1.388 . S
C2636 C2637 1.366 . S
C2637 C2636 1.366 . S
C2637 C2638 1.414 . S
C2637 C2640 1.499 . S
C2638 H2618 0.950 . S
C2638 C2637 1.414 . S
C2638 C2639 1.374 . S
C2639 H2619 0.950 . S
C2639 C2635 1.385 . S
C2639 C2638 1.374 . S
C2640 C2637 1.499 . S
C2640 C2641 1.373 . S
C2640 C2642 1.389 . S
C2641 H2620 0.950 . S
C2641 C2640 1.373 . S
C2641 C2657 1.377 . S
C2642 C2640 1.389 . S
C2642 C2643 1.524 . S
C2642 C2656 1.377 . S
C2643 C2642 1.524 . S
C2643 C2644 1.397 . S
C2643 C2648 1.363 . S
C2644 H2621 0.950 . S
C2644 C2643 1.397 . S
C2644 C2645 1.334 . S
C2645 H2622 0.950 . S
C2645 C2644 1.334 . S
C2645 C2646 1.287 . S
C2646 C2645 1.287 . S
C2646 C2647 1.524 . S
C2646 H2665 0.913 . S
C2647 H2623 0.950 . S
C2647 C2646 1.524 . S
C2647 C2648 1.415 . S
C2648 H2624 0.950 . S
C2648 C2643 1.363 . S
C2648 C2647 1.415 . S
C2649 H2625 0.951 . S
C2649 C2650 1.366 . S
C2649 C2651 1.388 . S
C2650 C2649 1.366 . S
C2650 C2654 1.385 . S
C2651 H2626 0.951 . S
C2651 C2649 1.388 . S
C2651 C2652 1.366 . S
C2652 C2651 1.366 . S
C2652 C2653 1.414 . S
C2652 C2655 1.499 . S
C2653 H2627 0.950 . S
C2653 C2652 1.414 . S
C2653 C2654 1.374 . S
C2654 H2628 0.950 . S
C2654 C2650 1.385 . S
C2654 C2653 1.374 . S
C2655 C2652 1.499 . S
C2655 C2656 1.373 . S
C2655 C2657 1.389 . S
C2656 H2629 0.950 . S
C2656 C2642 1.377 . S
C2656 C2655 1.373 . S
C2657 C2641 1.377 . S
C2657 C2655 1.389 . S
C2657 C2658 1.524 . S
C2658 C2657 1.524 . S
C2658 C2659 1.397 . S
C2658 C2663 1.363 . S
C2659 H2630 0.950 . S
C2659 C2658 1.397 . S
C2659 C2660 1.334 . S
C2660 H2631 0.950 . S
C2660 C2659 1.334 . S
C2660 C2661 1.287 . S
C2661 C2660 1.287 . S
C2661 C2662 1.524 . S
C2661 H2664 0.999 . S
C2662 H2632 0.950 . S
C2662 C2661 1.524 . S
C2662 C2663 1.415 . S
C2663 H2633 0.950 . S
C2663 C2658 1.363 . S
C2663 C2662 1.415 . S
H2664 C2661 0.999 . S
H2665 C2646 0.913 . S
H2666 C2684 0.908 1_655 S
H2667 C2686 0.951 . S
H2668 C2688 0.950 . S
H2669 C2689 0.950 . S
H2670 C2691 0.950 . S
H2671 C2694 0.950 . S
H2672 C2695 0.950 . S
H2673 C2697 0.950 . S
H2674 C2698 0.950 . S
H2675 C2699 0.951 . S
H2676 C2701 0.951 . S
H2677 C2703 0.950 . S
H2678 C2704 0.950 . S
H2679 C2706 0.950 . S
H2680 C2709 0.950 . S
H2681 C2710 0.950 . S
H2682 C2712 0.950 . S
H2683 C2713 0.950 . S
C2684 H2666 0.908 1_455 S
C2684 C2685 1.366 . S
C2684 C2686 1.388 . S
C2685 C2684 1.366 . S
C2685 C2689 1.385 . S
C2686 H2667 0.951 . S
C2686 C2684 1.388 . S
C2686 C2687 1.366 . S
C2687 C2686 1.366 . S
C2687 C2688 1.414 . S
C2687 C2690 1.499 . S
C2688 H2668 0.950 . S
C2688 C2687 1.414 . S
C2688 C2689 1.374 . S
C2689 H2669 0.950 . S
C2689 C2685 1.385 . S
C2689 C2688 1.374 . S
C2690 C2687 1.499 . S
C2690 C2691 1.373 . S
C2690 C2692 1.389 . S
C2691 H2670 0.950 . S
C2691 C2690 1.373 . S
C2691 C2707 1.377 . S
C2692 C2690 1.389 . S
C2692 C2693 1.524 . S
C2692 C2706 1.377 . S
C2693 C2692 1.524 . S
C2693 C2694 1.397 . S
C2693 C2698 1.363 . S
C2694 H2671 0.950 . S
C2694 C2693 1.397 . S
C2694 C2695 1.334 . S
C2695 H2672 0.950 . S
C2695 C2694 1.334 . S
C2695 C2696 1.287 . S
C2696 C2695 1.287 . S
C2696 C2697 1.524 . S
C2696 H2715 0.913 . S
C2697 H2673 0.950 . S
C2697 C2696 1.524 . S
C2697 C2698 1.415 . S
C2698 H2674 0.950 . S
C2698 C2693 1.363 . S
C2698 C2697 1.415 . S
C2699 H2675 0.951 . S
C2699 C2700 1.366 . S
C2699 C2701 1.388 . S
C2700 C2699 1.366 . S
C2700 C2704 1.385 . S
C2701 H2676 0.951 . S
C2701 C2699 1.388 . S
C2701 C2702 1.366 . S
C2702 C2701 1.366 . S
C2702 C2703 1.414 . S
C2702 C2705 1.499 . S
C2703 H2677 0.950 . S
C2703 C2702 1.414 . S
C2703 C2704 1.374 . S
C2704 H2678 0.950 . S
C2704 C2700 1.385 . S
C2704 C2703 1.374 . S
C2705 C2702 1.499 . S
C2705 C2706 1.373 . S
C2705 C2707 1.389 . S
C2706 H2679 0.950 . S
C2706 C2692 1.377 . S
C2706 C2705 1.373 . S
C2707 C2691 1.377 . S
C2707 C2705 1.389 . S
C2707 C2708 1.524 . S
C2708 C2707 1.524 . S
C2708 C2709 1.397 . S
C2708 C2713 1.363 . S
C2709 H2680 0.950 . S
C2709 C2708 1.397 . S
C2709 C2710 1.334 . S
C2710 H2681 0.950 . S
C2710 C2709 1.334 . S
C2710 C2711 1.287 . S
C2711 C2710 1.287 . S
C2711 C2712 1.524 . S
C2711 H2714 0.999 . S
C2712 H2682 0.950 . S
C2712 C2711 1.524 . S
C2712 C2713 1.415 . S
C2713 H2683 0.950 . S
C2713 C2708 1.363 . S
C2713 C2712 1.415 . S
H2714 C2711 0.999 . S
H2715 C2696 0.913 . S
H2716 C2734 0.951 . S
H2717 C2736 0.951 . S
H2718 C2738 0.950 . S
H2719 C2739 0.950 . S
H2720 C2741 0.950 . S
H2721 C2744 0.950 . S
H2722 C2745 0.950 . S
H2723 C2747 0.950 . S
H2724 C2748 0.950 . S
H2725 C2749 0.951 . S
H2726 C2751 0.951 . S
H2727 C2753 0.950 . S
H2728 C2754 0.950 . S
H2729 C2756 0.950 . S
H2730 C2759 0.950 . S
H2731 C2760 0.950 . S
H2732 C2762 0.950 . S
H2733 C2763 0.950 . S
C2734 H2716 0.951 . S
C2734 C2735 1.366 . S
C2734 C2736 1.388 . S
C2735 C2734 1.366 . S
C2735 C2739 1.385 . S
C2736 H2717 0.951 . S
C2736 C2734 1.388 . S
C2736 C2737 1.366 . S
C2737 C2736 1.366 . S
C2737 C2738 1.414 . S
C2737 C2740 1.499 . S
C2738 H2718 0.950 . S
C2738 C2737 1.414 . S
C2738 C2739 1.374 . S
C2739 H2719 0.950 . S
C2739 C2735 1.385 . S
C2739 C2738 1.374 . S
C2740 C2737 1.499 . S
C2740 C2741 1.373 . S
C2740 C2742 1.389 . S
C2741 H2720 0.950 . S
C2741 C2740 1.373 . S
C2741 C2757 1.377 . S
C2742 C2740 1.389 . S
C2742 C2743 1.524 . S
C2742 C2756 1.377 . S
C2743 C2742 1.524 . S
C2743 C2744 1.397 . S
C2743 C2748 1.363 . S
C2744 H2721 0.950 . S
C2744 C2743 1.397 . S
C2744 C2745 1.334 . S
C2745 H2722 0.950 . S
C2745 C2744 1.334 . S
C2745 C2746 1.287 . S
C2746 C2745 1.287 . S
C2746 C2747 1.524 . S
C2746 H2765 0.913 . S
C2747 H2723 0.950 . S
C2747 C2746 1.524 . S
C2747 C2748 1.415 . S
C2748 H2724 0.950 . S
C2748 C2743 1.363 . S
C2748 C2747 1.415 . S
C2749 H2725 0.951 . S
C2749 C2750 1.366 . S
C2749 C2751 1.388 . S
C2750 C2749 1.366 . S
C2750 C2754 1.385 . S
C2751 H2726 0.951 . S
C2751 C2749 1.388 . S
C2751 C2752 1.366 . S
C2752 C2751 1.366 . S
C2752 C2753 1.414 . S
C2752 C2755 1.499 . S
C2753 H2727 0.950 . S
C2753 C2752 1.414 . S
C2753 C2754 1.374 . S
C2754 H2728 0.950 . S
C2754 C2750 1.385 . S
C2754 C2753 1.374 . S
C2755 C2752 1.499 . S
C2755 C2756 1.373 . S
C2755 C2757 1.389 . S
C2756 H2729 0.950 . S
C2756 C2742 1.377 . S
C2756 C2755 1.373 . S
C2757 C2741 1.377 . S
C2757 C2755 1.389 . S
C2757 C2758 1.524 . S
C2758 C2757 1.524 . S
C2758 C2759 1.397 . S
C2758 C2763 1.363 . S
C2759 H2730 0.950 . S
C2759 C2758 1.397 . S
C2759 C2760 1.334 . S
C2760 H2731 0.950 . S
C2760 C2759 1.334 . S
C2760 C2761 1.287 . S
C2761 C2760 1.287 . S
C2761 C2762 1.524 . S
C2761 H2764 0.999 . S
C2762 H2732 0.950 . S
C2762 C2761 1.524 . S
C2762 C2763 1.415 . S
C2763 H2733 0.950 . S
C2763 C2758 1.363 . S
C2763 C2762 1.415 . S
H2764 C2761 0.999 . S
H2765 C2746 0.913 . S
H2766 C2784 0.951 . S
H2767 C2786 0.951 . S
H2768 C2788 0.950 . S
H2769 C2789 0.950 . S
H2770 C2791 0.950 . S
H2771 C2794 0.950 . S
H2772 C2795 0.950 . S
H2773 C2797 0.950 . S
H2774 C2798 0.950 . S
H2775 C2799 0.951 . S
H2776 C2801 0.951 . S
H2777 C2803 0.954 1_455 S
H2778 C2804 0.950 . S
H2779 C2806 0.950 . S
H2780 C2809 0.950 . S
H2781 C2810 0.950 . S
H2782 C2812 0.950 . S
H2783 C2813 0.950 . S
C2784 H2766 0.951 . S
C2784 C2785 1.366 . S
C2784 C2786 1.388 . S
C2785 C2784 1.366 . S
C2785 C2789 1.385 . S
C2786 H2767 0.951 . S
C2786 C2784 1.388 . S
C2786 C2787 1.366 . S
C2787 C2786 1.366 . S
C2787 C2788 1.414 . S
C2787 C2790 1.499 . S
C2788 H2768 0.950 . S
C2788 C2787 1.414 . S
C2788 C2789 1.374 . S
C2789 H2769 0.950 . S
C2789 C2785 1.385 . S
C2789 C2788 1.374 . S
C2790 C2787 1.499 . S
C2790 C2791 1.373 . S
C2790 C2792 1.394 . S
C2791 H2770 0.950 . S
C2791 C2790 1.373 . S
C2791 C2807 1.377 . S
C2792 C2790 1.394 . S
C2792 C2793 1.520 1_655 S
C2792 C2806 1.376 1_655 S
C2793 C2792 1.520 1_455 S
C2793 C2794 1.397 . S
C2793 C2798 1.363 . S
C2794 H2771 0.950 . S
C2794 C2793 1.397 . S
C2794 C2795 1.334 . S
C2795 H2772 0.950 . S
C2795 C2794 1.334 . S
C2795 C2796 1.287 . S
C2796 C2795 1.287 . S
C2796 C2797 1.524 . S
C2796 H2815 0.913 . S
C2797 H2773 0.950 . S
C2797 C2796 1.524 . S
C2797 C2798 1.415 . S
C2798 H2774 0.950 . S
C2798 C2793 1.363 . S
C2798 C2797 1.415 . S
C2799 H2775 0.951 . S
C2799 C2800 1.366 . S
C2799 C2801 1.388 . S
C2800 C2799 1.366 . S
C2800 C2804 1.385 1_655 S
C2801 H2776 0.951 . S
C2801 C2799 1.388 . S
C2801 C2802 1.366 . S
C2802 C2801 1.366 . S
C2802 C2803 1.409 . S
C2802 C2805 1.499 . S
C2803 H2777 0.954 1_655 S
C2803 C2802 1.409 . S
C2803 C2804 1.375 1_655 S
C2804 H2778 0.950 . S
C2804 C2800 1.385 1_455 S
C2804 C2803 1.375 1_455 S
C2805 C2802 1.499 . S
C2805 C2806 1.373 1_655 S
C2805 C2807 1.389 . S
C2806 H2779 0.950 . S
C2806 C2792 1.376 1_455 S
C2806 C2805 1.373 1_455 S
C2807 C2791 1.377 . S
C2807 C2805 1.389 . S
C2807 C2808 1.524 . S
C2808 C2807 1.524 . S
C2808 C2809 1.397 . S
C2808 C2813 1.363 . S
C2809 H2780 0.950 . S
C2809 C2808 1.397 . S
C2809 C2810 1.334 . S
C2810 H2781 0.950 . S
C2810 C2809 1.334 . S
C2810 C2811 1.287 . S
C2811 C2810 1.287 . S
C2811 C2812 1.524 . S
C2811 H2814 0.999 . S
C2812 H2782 0.950 . S
C2812 C2811 1.524 . S
C2812 C2813 1.415 . S
C2813 H2783 0.950 . S
C2813 C2808 1.363 . S
C2813 C2812 1.415 . S
H2814 C2811 0.999 . S
H2815 C2796 0.913 . S
H2816 C2834 0.951 . S
H2817 C2836 0.951 . S
H2818 C2838 0.950 . S
H2819 C2839 0.950 . S
H2820 C2841 0.950 . S
H2821 C2844 0.950 . S
H2822 C2845 0.950 . S
H2823 C2847 0.950 . S
H2824 C2848 0.950 . S
H2825 C2849 0.951 . S
H2826 C2851 0.951 . S
H2827 C2853 0.950 . S
H2828 C2854 0.950 . S
H2829 C2856 0.950 . S
H2830 C2859 0.950 . S
H2831 C2860 0.950 . S
H2832 C2862 0.950 . S
H2833 C2863 0.950 . S
C2834 H2816 0.951 . S
C2834 C2835 1.366 . S
C2834 C2836 1.388 . S
C2835 C2834 1.366 . S
C2835 C2839 1.385 . S
C2836 H2817 0.951 . S
C2836 C2834 1.388 . S
C2836 C2837 1.366 . S
C2837 C2836 1.366 . S
C2837 C2838 1.414 . S
C2837 C2840 1.499 . S
C2838 H2818 0.950 . S
C2838 C2837 1.414 . S
C2838 C2839 1.374 . S
C2839 H2819 0.950 . S
C2839 C2835 1.385 . S
C2839 C2838 1.374 . S
C2840 C2837 1.499 . S
C2840 C2841 1.373 . S
C2840 C2842 1.389 . S
C2841 H2820 0.950 . S
C2841 C2840 1.373 . S
C2841 C2857 1.377 . S
C2842 C2840 1.389 . S
C2842 C2843 1.524 . S
C2842 C2856 1.377 . S
C2843 C2842 1.524 . S
C2843 C2844 1.397 . S
C2843 C2848 1.363 . S
C2844 H2821 0.950 . S
C2844 C2843 1.397 . S
C2844 C2845 1.334 . S
C2845 H2822 0.950 . S
C2845 C2844 1.334 . S
C2845 C2846 1.287 . S
C2846 C2845 1.287 . S
C2846 C2847 1.524 . S
C2846 H2865 0.913 . S
C2847 H2823 0.950 . S
C2847 C2846 1.524 . S
C2847 C2848 1.415 . S
C2848 H2824 0.950 . S
C2848 C2843 1.363 . S
C2848 C2847 1.415 . S
C2849 H2825 0.951 . S
C2849 C2850 1.366 . S
C2849 C2851 1.388 . S
C2850 C2849 1.366 . S
C2850 C2854 1.385 . S
C2851 H2826 0.951 . S
C2851 C2849 1.388 . S
C2851 C2852 1.366 . S
C2852 C2851 1.366 . S
C2852 C2853 1.414 . S
C2852 C2855 1.499 . S
C2853 H2827 0.950 . S
C2853 C2852 1.414 . S
C2853 C2854 1.374 . S
C2854 H2828 0.950 . S
C2854 C2850 1.385 . S
C2854 C2853 1.374 . S
C2855 C2852 1.499 . S
C2855 C2856 1.373 . S
C2855 C2857 1.389 . S
C2856 H2829 0.950 . S
C2856 C2842 1.377 . S
C2856 C2855 1.373 . S
C2857 C2841 1.377 . S
C2857 C2855 1.389 . S
C2857 C2858 1.524 . S
C2858 C2857 1.524 . S
C2858 C2859 1.397 . S
C2858 C2863 1.363 . S
C2859 H2830 0.950 . S
C2859 C2858 1.397 . S
C2859 C2860 1.334 . S
C2860 H2831 0.950 . S
C2860 C2859 1.334 . S
C2860 C2861 1.287 . S
C2861 C2860 1.287 . S
C2861 C2862 1.524 . S
C2861 H2864 0.999 . S
C2862 H2832 0.950 . S
C2862 C2861 1.524 . S
C2862 C2863 1.415 . S
C2863 H2833 0.950 . S
C2863 C2858 1.363 . S
C2863 C2862 1.415 . S
H2864 C2861 0.999 . S
H2865 C2846 0.913 . S
H2866 C2884 0.951 . S
H2867 C2886 0.951 1_655 S
H2868 C2888 0.950 . S
H2869 C2889 0.950 . S
H2870 C2891 0.950 . S
H2871 C2894 0.950 . S
H2872 C2895 0.950 . S
H2873 C2897 0.950 . S
H2874 C2898 0.950 . S
H2875 C2899 0.951 . S
H2876 C2901 0.951 . S
H2877 C2903 0.950 . S
H2878 C2904 0.950 . S
H2879 C2906 0.921 1_655 S
H2880 C2909 0.950 . S
H2881 C2910 0.950 . S
H2882 C2912 0.950 . S
H2883 C2913 0.950 . S
C2884 H2866 0.951 . S
C2884 C2885 1.366 . S
C2884 C2886 1.388 . S
C2885 C2884 1.366 . S
C2885 C2889 1.385 . S
C2886 H2867 0.951 1_455 S
C2886 C2884 1.388 . S
C2886 C2887 1.366 . S
C2887 C2886 1.366 . S
C2887 C2888 1.414 . S
C2887 C2890 1.499 . S
C2888 H2868 0.950 . S
C2888 C2887 1.414 . S
C2888 C2889 1.374 . S
C2889 H2869 0.950 . S
C2889 C2885 1.385 . S
C2889 C2888 1.374 . S
C2890 C2887 1.499 . S
C2890 C2891 1.373 . S
C2890 C2892 1.389 . S
C2891 H2870 0.950 . S
C2891 C2890 1.373 . S
C2891 C2907 1.377 . S
C2892 C2890 1.389 . S
C2892 C2893 1.524 . S
C2892 C2906 1.377 . S
C2893 C2892 1.524 . S
C2893 C2894 1.397 . S
C2893 C2898 1.363 1_455 S
C2894 H2871 0.950 . S
C2894 C2893 1.397 . S
C2894 C2895 1.334 . S
C2895 H2872 0.950 . S
C2895 C2894 1.334 . S
C2895 C2896 1.287 1_455 S
C2896 C2895 1.287 1_655 S
C2896 C2897 1.524 . S
C2896 H2915 0.913 . S
C2897 H2873 0.950 . S
C2897 C2896 1.524 . S
C2897 C2898 1.415 . S
C2898 H2874 0.950 . S
C2898 C2893 1.363 1_655 S
C2898 C2897 1.415 . S
C2899 H2875 0.951 . S
C2899 C2900 1.366 . S
C2899 C2901 1.388 . S
C2900 C2899 1.366 . S
C2900 C2904 1.385 1_455 S
C2901 H2876 0.951 . S
C2901 C2899 1.388 . S
C2901 C2902 1.366 . S
C2902 C2901 1.366 . S
C2902 C2903 1.414 1_455 S
C2902 C2905 1.499 . S
C2903 H2877 0.950 . S
C2903 C2902 1.414 1_655 S
C2903 C2904 1.374 . S
C2904 H2878 0.950 . S
C2904 C2900 1.385 1_655 S
C2904 C2903 1.374 . S
C2905 C2902 1.499 . S
C2905 C2906 1.373 . S
C2905 C2907 1.389 . S
C2906 H2879 0.921 1_455 S
C2906 C2892 1.377 . S
C2906 C2905 1.373 . S
C2907 C2891 1.377 . S
C2907 C2905 1.389 . S
C2907 C2908 1.524 . S
C2908 C2907 1.524 . S
C2908 C2909 1.397 . S
C2908 C2913 1.363 . S
C2909 H2880 0.950 . S
C2909 C2908 1.397 . S
C2909 C2910 1.334 . S
C2910 H2881 0.950 . S
C2910 C2909 1.334 . S
C2910 C2911 1.287 . S
C2911 C2910 1.287 . S
C2911 C2912 1.524 . S
C2911 H2914 0.999 . S
C2912 H2882 0.950 . S
C2912 C2911 1.524 . S
C2912 C2913 1.415 . S
C2913 H2883 0.950 . S
C2913 C2908 1.363 . S
C2913 C2912 1.415 . S
H2914 C2911 0.999 . S
H2915 C2896 0.913 . S
H2916 C2934 0.951 . S
H2917 C2936 0.951 . S
H2918 C2938 0.950 . S
H2919 C2939 0.950 . S
H2920 C2941 0.950 . S
H2921 C2944 0.950 . S
H2922 C2945 0.950 . S
H2923 C2947 0.950 . S
H2924 C2948 0.950 . S
H2925 C2949 0.951 . S
H2926 C2951 0.951 . S
H2927 C2953 0.950 . S
H2928 C2954 0.950 . S
H2929 C2956 0.950 . S
H2930 C2959 0.950 . S
H2931 C2960 0.950 . S
H2932 C2962 0.950 . S
H2933 C2963 0.950 . S
C2934 H2916 0.951 . S
C2934 C2935 1.366 . S
C2934 C2936 1.388 . S
C2935 C2934 1.366 . S
C2935 C2939 1.385 . S
C2936 H2917 0.951 . S
C2936 C2934 1.388 . S
C2936 C2937 1.366 . S
C2937 C2936 1.366 . S
C2937 C2938 1.414 . S
C2937 C2940 1.499 . S
C2938 H2918 0.950 . S
C2938 C2937 1.414 . S
C2938 C2939 1.374 . S
C2939 H2919 0.950 . S
C2939 C2935 1.385 . S
C2939 C2938 1.374 . S
C2940 C2937 1.499 . S
C2940 C2941 1.373 . S
C2940 C2942 1.389 . S
C2941 H2920 0.950 . S
C2941 C2940 1.373 . S
C2941 C2957 1.377 . S
C2942 C2940 1.389 . S
C2942 C2943 1.524 . S
C2942 C2956 1.377 . S
C2943 C2942 1.524 . S
C2943 C2944 1.397 . S
C2943 C2948 1.363 . S
C2944 H2921 0.950 . S
C2944 C2943 1.397 . S
C2944 C2945 1.334 . S
C2945 H2922 0.950 . S
C2945 C2944 1.334 . S
C2945 C2946 1.287 . S
C2946 C2945 1.287 . S
C2946 C2947 1.524 . S
C2946 H2965 0.913 . S
C2947 H2923 0.950 . S
C2947 C2946 1.524 . S
C2947 C2948 1.415 . S
C2948 H2924 0.950 . S
C2948 C2943 1.363 . S
C2948 C2947 1.415 . S
C2949 H2925 0.951 . S
C2949 C2950 1.366 . S
C2949 C2951 1.388 . S
C2950 C2949 1.366 . S
C2950 C2954 1.385 . S
C2951 H2926 0.951 . S
C2951 C2949 1.388 . S
C2951 C2952 1.366 . S
C2952 C2951 1.366 . S
C2952 C2953 1.414 . S
C2952 C2955 1.499 . S
C2953 H2927 0.950 . S
C2953 C2952 1.414 . S
C2953 C2954 1.374 . S
C2954 H2928 0.950 . S
C2954 C2950 1.385 . S
C2954 C2953 1.374 . S
C2955 C2952 1.499 . S
C2955 C2956 1.373 . S
C2955 C2957 1.389 . S
C2956 H2929 0.950 . S
C2956 C2942 1.377 . S
C2956 C2955 1.373 . S
C2957 C2941 1.377 . S
C2957 C2955 1.389 . S
C2957 C2958 1.524 . S
C2958 C2957 1.524 . S
C2958 C2959 1.397 . S
C2958 C2963 1.363 . S
C2959 H2930 0.950 . S
C2959 C2958 1.397 . S
C2959 C2960 1.334 . S
C2960 H2931 0.950 . S
C2960 C2959 1.334 . S
C2960 C2961 1.287 . S
C2961 C2960 1.287 . S
C2961 C2962 1.524 . S
C2961 H2964 0.999 . S
C2962 H2932 0.950 . S
C2962 C2961 1.524 . S
C2962 C2963 1.415 . S
C2963 H2933 0.950 . S
C2963 C2958 1.363 . S
C2963 C2962 1.415 . S
H2964 C2961 0.999 . S
H2965 C2946 0.913 . S
H2966 C2984 0.951 . S
H2967 C2986 0.951 . S
H2968 C2988 0.950 . S
H2969 C2989 0.950 . S
H2970 C2991 0.950 . S
H2971 C2994 0.950 . S
H2972 C2995 0.950 . S
H2973 C2997 0.955 . S
H2974 C2998 0.950 . S
H2975 C2999 0.951 . S
H2976 C3001 0.951 . S
H2977 C3003 0.950 . S
H2978 C3004 0.950 . S
H2979 C3006 0.950 . S
H2980 C3009 0.950 . S
H2981 C3010 0.950 . S
H2982 C3012 0.950 . S
H2983 C3013 0.950 . S
C2984 H2966 0.951 . S
C2984 C2985 1.366 . S
C2984 C2986 1.388 . S
C2985 C2984 1.366 . S
C2985 C2989 1.385 . S
C2986 H2967 0.951 . S
C2986 C2984 1.388 . S
C2986 C2987 1.366 . S
C2987 C2986 1.366 . S
C2987 C2988 1.414 . S
C2987 C2990 1.499 . S
C2988 H2968 0.950 . S
C2988 C2987 1.414 . S
C2988 C2989 1.374 . S
C2989 H2969 0.950 . S
C2989 C2985 1.385 . S
C2989 C2988 1.374 . S
C2990 C2987 1.499 . S
C2990 C2991 1.373 . S
C2990 C2992 1.389 . S
C2991 H2970 0.950 . S
C2991 C2990 1.373 . S
C2991 C3007 1.377 . S
C2992 C2990 1.389 . S
C2992 C2993 1.524 . S
C2992 C3006 1.377 . S
C2993 C2992 1.524 . S
C2993 C2994 1.397 . S
C2993 C2998 1.363 . S
C2994 H2971 0.950 . S
C2994 C2993 1.397 . S
C2994 C2995 1.334 1_554 S
C2995 H2972 0.950 . S
C2995 C2994 1.334 1_556 S
C2995 C2996 1.287 . S
C2996 C2995 1.287 . S
C2996 C2997 1.524 1_556 S
C2996 H3015 0.913 . S
C2997 H2973 0.955 . S
C2997 C2996 1.524 1_554 S
C2997 C2998 1.415 . S
C2998 H2974 0.950 . S
C2998 C2993 1.363 . S
C2998 C2997 1.415 . S
C2999 H2975 0.951 . S
C2999 C3000 1.366 . S
C2999 C3001 1.388 . S
C3000 C2999 1.366 . S
C3000 C3004 1.385 . S
C3001 H2976 0.951 . S
C3001 C2999 1.388 . S
C3001 C3002 1.366 . S
C3002 C3001 1.366 . S
C3002 C3003 1.414 . S
C3002 C3005 1.499 . S
C3003 H2977 0.950 . S
C3003 C3002 1.414 . S
C3003 C3004 1.374 . S
C3004 H2978 0.950 . S
C3004 C3000 1.385 . S
C3004 C3003 1.374 . S
C3005 C3002 1.499 . S
C3005 C3006 1.373 . S
C3005 C3007 1.389 . S
C3006 H2979 0.950 . S
C3006 C2992 1.377 . S
C3006 C3005 1.373 . S
C3007 C2991 1.377 . S
C3007 C3005 1.389 . S
C3007 C3008 1.524 . S
C3008 C3007 1.524 . S
C3008 C3009 1.397 . S
C3008 C3013 1.363 . S
C3009 H2980 0.950 . S
C3009 C3008 1.397 . S
C3009 C3010 1.334 . S
C3010 H2981 0.950 . S
C3010 C3009 1.334 . S
C3010 C3011 1.287 . S
C3011 C3010 1.287 . S
C3011 C3012 1.524 . S
C3011 H3014 0.999 . S
C3012 H2982 0.950 . S
C3012 C3011 1.524 . S
C3012 C3013 1.415 . S
C3013 H2983 0.950 . S
C3013 C3008 1.363 . S
C3013 C3012 1.415 . S
H3014 C3011 0.999 . S
H3015 C2996 0.913 . S
H3016 C3034 0.951 . S
H3017 C3036 0.951 . S
H3018 C3038 0.950 . S
H3019 C3039 0.950 . S
H3020 C3041 0.950 . S
H3021 C3044 0.950 . S
H3022 C3045 0.950 . S
H3023 C3047 0.950 . S
H3024 C3048 0.950 . S
H3025 C3049 0.951 . S
H3026 C3051 0.951 . S
H3027 C3053 0.950 . S
H3028 C3054 0.950 . S
H3029 C3056 0.950 . S
H3030 C3059 0.950 . S
H3031 C3060 0.950 . S
H3032 C3062 0.950 . S
H3033 C3063 0.950 . S
C3034 H3016 0.951 . S
C3034 C3035 1.366 . S
C3034 C3036 1.388 . S
C3035 C3034 1.366 . S
C3035 C3039 1.385 . S
C3036 H3017 0.951 . S
C3036 C3034 1.388 . S
C3036 C3037 1.366 . S
C3037 C3036 1.366 . S
C3037 C3038 1.414 . S
C3037 C3040 1.499 . S
C3038 H3018 0.950 . S
C3038 C3037 1.414 . S
C3038 C3039 1.374 . S
C3039 H3019 0.950 . S
C3039 C3035 1.385 . S
C3039 C3038 1.374 . S
C3040 C3037 1.499 . S
C3040 C3041 1.373 . S
C3040 C3042 1.389 . S
C3041 H3020 0.950 . S
C3041 C3040 1.373 . S
C3041 C3057 1.377 . S
C3042 C3040 1.389 . S
C3042 C3043 1.524 . S
C3042 C3056 1.377 . S
C3043 C3042 1.524 . S
C3043 C3044 1.397 . S
C3043 C3048 1.363 . S
C3044 H3021 0.950 . S
C3044 C3043 1.397 . S
C3044 C3045 1.334 . S
C3045 H3022 0.950 . S
C3045 C3044 1.334 . S
C3045 C3046 1.287 . S
C3046 C3045 1.287 . S
C3046 C3047 1.524 . S
C3046 H3065 0.913 . S
C3047 H3023 0.950 . S
C3047 C3046 1.524 . S
C3047 C3048 1.415 . S
C3048 H3024 0.950 . S
C3048 C3043 1.363 . S
C3048 C3047 1.415 . S
C3049 H3025 0.951 . S
C3049 C3050 1.366 . S
C3049 C3051 1.388 . S
C3050 C3049 1.366 . S
C3050 C3054 1.385 . S
C3051 H3026 0.951 . S
C3051 C3049 1.388 . S
C3051 C3052 1.366 . S
C3052 C3051 1.366 . S
C3052 C3053 1.414 . S
C3052 C3055 1.499 . S
C3053 H3027 0.950 . S
C3053 C3052 1.414 . S
C3053 C3054 1.374 . S
C3054 H3028 0.950 . S
C3054 C3050 1.385 . S
C3054 C3053 1.374 . S
C3055 C3052 1.499 . S
C3055 C3056 1.373 . S
C3055 C3057 1.389 . S
C3056 H3029 0.950 . S
C3056 C3042 1.377 . S
C3056 C3055 1.373 . S
C3057 C3041 1.377 . S
C3057 C3055 1.389 . S
C3057 C3058 1.524 . S
C3058 C3057 1.524 . S
C3058 C3059 1.397 . S
C3058 C3063 1.363 . S
C3059 H3030 0.950 . S
C3059 C3058 1.397 . S
C3059 C3060 1.334 . S
C3060 H3031 0.950 . S
C3060 C3059 1.334 . S
C3060 C3061 1.287 . S
C3061 C3060 1.287 . S
C3061 C3062 1.524 . S
C3061 H3064 0.999 . S
C3062 H3032 0.950 . S
C3062 C3061 1.524 . S
C3062 C3063 1.415 . S
C3063 H3033 0.950 . S
C3063 C3058 1.363 . S
C3063 C3062 1.415 . S
H3064 C3061 0.999 . S
H3065 C3046 0.913 . S
H3066 C3084 0.951 . S
H3067 C3086 0.951 . S
H3068 C3088 0.950 . S
H3069 C3089 0.925 1_556 S
H3070 C3091 0.950 . S
H3071 C3094 0.950 . S
H3072 C3095 0.950 . S
H3073 C3097 0.950 . S
H3074 C3098 0.950 . S
H3075 C3099 0.951 . S
H3076 C3101 0.951 . S
H3077 C3103 0.950 . S
H3078 C3104 0.950 . S
H3079 C3106 0.950 . S
H3080 C3109 0.950 . S
H3081 C3110 0.950 . S
H3082 C3112 0.950 . S
H3083 C3113 0.950 . S
C3084 H3066 0.951 . S
C3084 C3085 1.366 . S
C3084 C3086 1.388 . S
C3085 C3084 1.366 . S
C3085 C3089 1.385 . S
C3086 H3067 0.951 . S
C3086 C3084 1.388 . S
C3086 C3087 1.366 . S
C3087 C3086 1.366 . S
C3087 C3088 1.414 . S
C3087 C3090 1.499 . S
C3088 H3068 0.950 . S
C3088 C3087 1.414 . S
C3088 C3089 1.374 . S
C3089 H3069 0.925 1_554 S
C3089 C3085 1.385 . S
C3089 C3088 1.374 . S
C3090 C3087 1.499 . S
C3090 C3091 1.373 . S
C3090 C3092 1.389 . S
C3091 H3070 0.950 . S
C3091 C3090 1.373 . S
C3091 C3107 1.377 . S
C3092 C3090 1.389 . S
C3092 C3093 1.524 . S
C3092 C3106 1.377 . S
C3093 C3092 1.524 . S
C3093 C3094 1.397 . S
C3093 C3098 1.363 . S
C3094 H3071 0.950 . S
C3094 C3093 1.397 . S
C3094 C3095 1.334 . S
C3095 H3072 0.950 . S
C3095 C3094 1.334 . S
C3095 C3096 1.287 . S
C3096 C3095 1.287 . S
C3096 C3097 1.524 . S
C3096 H3115 0.913 . S
C3097 H3073 0.950 . S
C3097 C3096 1.524 . S
C3097 C3098 1.415 . S
C3098 H3074 0.950 . S
C3098 C3093 1.363 . S
C3098 C3097 1.415 . S
C3099 H3075 0.951 . S
C3099 C3100 1.366 . S
C3099 C3101 1.388 . S
C3100 C3099 1.366 . S
C3100 C3104 1.385 . S
C3101 H3076 0.951 . S
C3101 C3099 1.388 . S
C3101 C3102 1.366 . S
C3102 C3101 1.366 . S
C3102 C3103 1.414 . S
C3102 C3105 1.499 . S
C3103 H3077 0.950 . S
C3103 C3102 1.414 . S
C3103 C3104 1.374 . S
C3104 H3078 0.950 . S
C3104 C3100 1.385 . S
C3104 C3103 1.374 . S
C3105 C3102 1.499 . S
C3105 C3106 1.373 . S
C3105 C3107 1.389 . S
C3106 H3079 0.950 . S
C3106 C3092 1.377 . S
C3106 C3105 1.373 . S
C3107 C3091 1.377 . S
C3107 C3105 1.389 . S
C3107 C3108 1.524 . S
C3108 C3107 1.524 . S
C3108 C3109 1.397 . S
C3108 C3113 1.363 . S
C3109 H3080 0.950 . S
C3109 C3108 1.397 . S
C3109 C3110 1.334 . S
C3110 H3081 0.950 . S
C3110 C3109 1.334 . S
C3110 C3111 1.287 . S
C3111 C3110 1.287 . S
C3111 C3112 1.524 . S
C3111 H3114 0.999 . S
C3112 H3082 0.950 . S
C3112 C3111 1.524 . S
C3112 C3113 1.415 . S
C3113 H3083 0.950 . S
C3113 C3108 1.363 . S
C3113 C3112 1.415 . S
H3114 C3111 0.999 . S
H3115 C3096 0.913 . S
H3116 C3134 0.951 . S
H3117 C3136 0.951 . S
H3118 C3138 0.950 . S
H3119 C3139 0.950 . S
H3120 C3141 0.950 . S
H3121 C3144 0.950 . S
H3122 C3145 0.950 . S
H3123 C3147 0.950 . S
H3124 C3148 0.950 . S
H3125 C3149 0.951 . S
H3126 C3151 0.951 . S
H3127 C3153 0.950 . S
H3128 C3154 0.950 . S
H3129 C3156 0.950 . S
H3130 C3159 0.950 . S
H3131 C3160 0.950 . S
H3132 C3162 0.950 . S
H3133 C3163 0.950 . S
C3134 H3116 0.951 . S
C3134 C3135 1.366 . S
C3134 C3136 1.388 . S
C3135 C3134 1.366 . S
C3135 C3139 1.385 . S
C3136 H3117 0.951 . S
C3136 C3134 1.388 . S
C3136 C3137 1.366 . S
C3137 C3136 1.366 . S
C3137 C3138 1.414 . S
C3137 C3140 1.499 . S
C3138 H3118 0.950 . S
C3138 C3137 1.414 . S
C3138 C3139 1.374 . S
C3139 H3119 0.950 . S
C3139 C3135 1.385 . S
C3139 C3138 1.374 . S
C3140 C3137 1.499 . S
C3140 C3141 1.373 . S
C3140 C3142 1.389 . S
C3141 H3120 0.950 . S
C3141 C3140 1.373 . S
C3141 C3157 1.377 . S
C3142 C3140 1.389 . S
C3142 C3143 1.524 . S
C3142 C3156 1.377 . S
C3143 C3142 1.524 . S
C3143 C3144 1.397 . S
C3143 C3148 1.363 . S
C3144 H3121 0.950 . S
C3144 C3143 1.397 . S
C3144 C3145 1.334 . S
C3145 H3122 0.950 . S
C3145 C3144 1.334 . S
C3145 C3146 1.287 . S
C3146 C3145 1.287 . S
C3146 C3147 1.524 . S
C3146 H3165 0.913 . S
C3147 H3123 0.950 . S
C3147 C3146 1.524 . S
C3147 C3148 1.415 . S
C3148 H3124 0.950 . S
C3148 C3143 1.363 . S
C3148 C3147 1.415 . S
C3149 H3125 0.951 . S
C3149 C3150 1.366 . S
C3149 C3151 1.388 . S
C3150 C3149 1.366 . S
C3150 C3154 1.385 . S
C3151 H3126 0.951 . S
C3151 C3149 1.388 . S
C3151 C3152 1.366 . S
C3152 C3151 1.366 . S
C3152 C3153 1.414 . S
C3152 C3155 1.499 . S
C3153 H3127 0.950 . S
C3153 C3152 1.414 . S
C3153 C3154 1.374 . S
C3154 H3128 0.950 . S
C3154 C3150 1.385 . S
C3154 C3153 1.374 . S
C3155 C3152 1.499 . S
C3155 C3156 1.373 . S
C3155 C3157 1.389 . S
C3156 H3129 0.950 . S
C3156 C3142 1.377 . S
C3156 C3155 1.373 . S
C3157 C3141 1.377 . S
C3157 C3155 1.389 . S
C3157 C3158 1.524 . S
C3158 C3157 1.524 . S
C3158 C3159 1.397 . S
C3158 C3163 1.363 . S
C3159 H3130 0.950 . S
C3159 C3158 1.397 . S
C3159 C3160 1.334 . S
C3160 H3131 0.950 . S
C3160 C3159 1.334 . S
C3160 C3161 1.287 . S
C3161 C3160 1.287 . S
C3161 C3162 1.524 . S
C3161 H3164 0.999 . S
C3162 H3132 0.950 . S
C3162 C3161 1.524 . S
C3162 C3163 1.415 . S
C3163 H3133 0.950 . S
C3163 C3158 1.363 . S
C3163 C3162 1.415 . S
H3164 C3161 0.999 . S
H3165 C3146 0.913 . S
H3166 C3184 0.951 . S
H3167 C3186 0.951 . S
H3168 C3188 0.950 . S
H3169 C3189 0.950 . S
H3170 C3191 0.950 . S
H3171 C3194 0.950 . S
H3172 C3195 0.950 . S
H3173 C3197 0.950 . S
H3174 C3198 0.950 . S
H3175 C3199 0.951 . S
H3176 C3201 0.951 . S
H3177 C3203 0.950 . S
H3178 C3204 0.950 . S
H3179 C3206 0.950 . S
H3180 C3209 0.950 . S
H3181 C3210 0.950 . S
H3182 C3212 0.950 . S
H3183 C3213 0.950 . S
C3184 H3166 0.951 . S
C3184 C3185 1.366 . S
C3184 C3186 1.388 . S
C3185 C3184 1.366 . S
C3185 C3189 1.385 . S
C3186 H3167 0.951 . S
C3186 C3184 1.388 . S
C3186 C3187 1.366 . S
C3187 C3186 1.366 . S
C3187 C3188 1.414 . S
C3187 C3190 1.499 . S
C3188 H3168 0.950 . S
C3188 C3187 1.414 . S
C3188 C3189 1.374 . S
C3189 H3169 0.950 . S
C3189 C3185 1.385 . S
C3189 C3188 1.374 . S
C3190 C3187 1.499 . S
C3190 C3191 1.373 . S
C3190 C3192 1.389 . S
C3191 H3170 0.950 . S
C3191 C3190 1.373 . S
C3191 C3207 1.377 . S
C3192 C3190 1.389 . S
C3192 C3193 1.524 . S
C3192 C3206 1.377 . S
C3193 C3192 1.524 . S
C3193 C3194 1.397 . S
C3193 C3198 1.363 . S
C3194 H3171 0.950 . S
C3194 C3193 1.397 . S
C3194 C3195 1.334 . S
C3195 H3172 0.950 . S
C3195 C3194 1.334 . S
C3195 C3196 1.287 . S
C3196 C3195 1.287 . S
C3196 C3197 1.524 . S
C3196 H3215 0.913 . S
C3197 H3173 0.950 . S
C3197 C3196 1.524 . S
C3197 C3198 1.415 . S
C3198 H3174 0.950 . S
C3198 C3193 1.363 . S
C3198 C3197 1.415 . S
C3199 H3175 0.951 . S
C3199 C3200 1.366 . S
C3199 C3201 1.388 . S
C3200 C3199 1.366 . S
C3200 C3204 1.385 . S
C3201 H3176 0.951 . S
C3201 C3199 1.388 . S
C3201 C3202 1.366 . S
C3202 C3201 1.366 . S
C3202 C3203 1.414 . S
C3202 C3205 1.499 . S
C3203 H3177 0.950 . S
C3203 C3202 1.414 . S
C3203 C3204 1.374 . S
C3204 H3178 0.950 . S
C3204 C3200 1.385 . S
C3204 C3203 1.374 . S
C3205 C3202 1.499 . S
C3205 C3206 1.373 . S
C3205 C3207 1.389 . S
C3206 H3179 0.950 . S
C3206 C3192 1.377 . S
C3206 C3205 1.373 . S
C3207 C3191 1.377 . S
C3207 C3205 1.389 . S
C3207 C3208 1.524 . S
C3208 C3207 1.524 . S
C3208 C3209 1.397 . S
C3208 C3213 1.363 . S
C3209 H3180 0.950 . S
C3209 C3208 1.397 . S
C3209 C3210 1.334 . S
C3210 H3181 0.950 . S
C3210 C3209 1.334 . S
C3210 C3211 1.287 . S
C3211 C3210 1.287 . S
C3211 C3212 1.524 . S
C3211 H3214 0.999 . S
C3212 H3182 0.950 . S
C3212 C3211 1.524 . S
C3212 C3213 1.415 . S
C3213 H3183 0.950 . S
C3213 C3208 1.363 . S
C3213 C3212 1.415 . S
H3214 C3211 0.999 . S
H3215 C3196 0.913 . S
H3216 C3234 0.951 . S
H3217 C3236 0.951 . S
H3218 C3238 0.950 . S
H3219 C3239 0.950 . S
H3220 C3241 0.950 . S
H3221 C3244 0.950 . S
H3222 C3245 0.950 . S
H3223 C3247 0.950 . S
H3224 C3248 0.950 . S
H3225 C3249 0.951 . S
H3226 C3251 0.951 . S
H3227 C3253 0.950 . S
H3228 C3254 0.950 . S
H3229 C3256 0.950 . S
H3230 C3259 0.950 . S
H3231 C3260 0.950 . S
H3232 C3262 0.950 . S
H3233 C3263 0.950 . S
C3234 H3216 0.951 . S
C3234 C3235 1.366 . S
C3234 C3236 1.388 . S
C3235 C3234 1.366 . S
C3235 C3239 1.385 . S
C3236 H3217 0.951 . S
C3236 C3234 1.388 . S
C3236 C3237 1.366 . S
C3237 C3236 1.366 . S
C3237 C3238 1.414 . S
C3237 C3240 1.499 . S
C3238 H3218 0.950 . S
C3238 C3237 1.414 . S
C3238 C3239 1.374 . S
C3239 H3219 0.950 . S
C3239 C3235 1.385 . S
C3239 C3238 1.374 . S
C3240 C3237 1.499 . S
C3240 C3241 1.373 . S
C3240 C3242 1.389 . S
C3241 H3220 0.950 . S
C3241 C3240 1.373 . S
C3241 C3257 1.377 . S
C3242 C3240 1.389 . S
C3242 C3243 1.524 . S
C3242 C3256 1.377 . S
C3243 C3242 1.524 . S
C3243 C3244 1.397 . S
C3243 C3248 1.363 . S
C3244 H3221 0.950 . S
C3244 C3243 1.397 . S
C3244 C3245 1.334 . S
C3245 H3222 0.950 . S
C3245 C3244 1.334 . S
C3245 C3246 1.287 . S
C3246 C3245 1.287 . S
C3246 C3247 1.524 . S
C3246 H3265 0.913 . S
C3247 H3223 0.950 . S
C3247 C3246 1.524 . S
C3247 C3248 1.415 . S
C3248 H3224 0.950 . S
C3248 C3243 1.363 . S
C3248 C3247 1.415 . S
C3249 H3225 0.951 . S
C3249 C3250 1.366 . S
C3249 C3251 1.388 . S
C3250 C3249 1.366 . S
C3250 C3254 1.385 . S
C3251 H3226 0.951 . S
C3251 C3249 1.388 . S
C3251 C3252 1.366 . S
C3252 C3251 1.366 . S
C3252 C3253 1.414 . S
C3252 C3255 1.499 . S
C3253 H3227 0.950 . S
C3253 C3252 1.414 . S
C3253 C3254 1.374 . S
C3254 H3228 0.950 . S
C3254 C3250 1.385 . S
C3254 C3253 1.374 . S
C3255 C3252 1.499 . S
C3255 C3256 1.373 . S
C3255 C3257 1.389 . S
C3256 H3229 0.950 . S
C3256 C3242 1.377 . S
C3256 C3255 1.373 . S
C3257 C3241 1.377 . S
C3257 C3255 1.389 . S
C3257 C3258 1.524 . S
C3258 C3257 1.524 . S
C3258 C3259 1.397 . S
C3258 C3263 1.363 . S
C3259 H3230 0.950 . S
C3259 C3258 1.397 . S
C3259 C3260 1.334 . S
C3260 H3231 0.950 . S
C3260 C3259 1.334 . S
C3260 C3261 1.287 . S
C3261 C3260 1.287 . S
C3261 C3262 1.524 . S
C3261 H3264 0.999 . S
C3262 H3232 0.950 . S
C3262 C3261 1.524 . S
C3262 C3263 1.415 . S
C3263 H3233 0.950 . S
C3263 C3258 1.363 . S
C3263 C3262 1.415 . S
H3264 C3261 0.999 . S
H3265 C3246 0.913 . S
H3266 C3284 0.951 . S
H3267 C3286 0.951 . S
H3268 C3288 0.950 . S
H3269 C3289 0.950 . S
H3270 C3291 0.950 . S
H3271 C3294 0.950 . S
H3272 C3295 0.950 . S
H3273 C3297 0.950 . S
H3274 C3298 0.950 . S
H3275 C3299 0.951 . S
H3276 C3301 0.951 . S
H3277 C3303 0.950 . S
H3278 C3304 0.950 . S
H3279 C3306 0.950 . S
H3280 C3309 0.950 . S
H3281 C3310 0.950 . S
H3282 C3312 0.950 . S
H3283 C3313 0.950 . S
C3284 H3266 0.951 . S
C3284 C3285 1.366 . S
C3284 C3286 1.388 . S
C3285 C3284 1.366 . S
C3285 C3289 1.385 . S
C3286 H3267 0.951 . S
C3286 C3284 1.388 . S
C3286 C3287 1.366 . S
C3287 C3286 1.366 . S
C3287 C3288 1.414 . S
C3287 C3290 1.499 . S
C3288 H3268 0.950 . S
C3288 C3287 1.414 . S
C3288 C3289 1.374 . S
C3289 H3269 0.950 . S
C3289 C3285 1.385 . S
C3289 C3288 1.374 . S
C3290 C3287 1.499 . S
C3290 C3291 1.373 . S
C3290 C3292 1.389 . S
C3291 H3270 0.950 . S
C3291 C3290 1.373 . S
C3291 C3307 1.377 . S
C3292 C3290 1.389 . S
C3292 C3293 1.524 . S
C3292 C3306 1.377 . S
C3293 C3292 1.524 . S
C3293 C3294 1.397 . S
C3293 C3298 1.363 . S
C3294 H3271 0.950 . S
C3294 C3293 1.397 . S
C3294 C3295 1.334 . S
C3295 H3272 0.950 . S
C3295 C3294 1.334 . S
C3295 C3296 1.287 . S
C3296 C3295 1.287 . S
C3296 C3297 1.524 . S
C3296 H3315 0.913 . S
C3297 H3273 0.950 . S
C3297 C3296 1.524 . S
C3297 C3298 1.415 . S
C3298 H3274 0.950 . S
C3298 C3293 1.363 . S
C3298 C3297 1.415 . S
C3299 H3275 0.951 . S
C3299 C3300 1.366 . S
C3299 C3301 1.388 . S
C3300 C3299 1.366 . S
C3300 C3304 1.385 . S
C3301 H3276 0.951 . S
C3301 C3299 1.388 . S
C3301 C3302 1.366 . S
C3302 C3301 1.366 . S
C3302 C3303 1.414 . S
C3302 C3305 1.499 . S
C3303 H3277 0.950 . S
C3303 C3302 1.414 . S
C3303 C3304 1.374 . S
C3304 H3278 0.950 . S
C3304 C3300 1.385 . S
C3304 C3303 1.374 . S
C3305 C3302 1.499 . S
C3305 C3306 1.373 . S
C3305 C3307 1.389 . S
C3306 H3279 0.950 . S
C3306 C3292 1.377 . S
C3306 C3305 1.373 . S
C3307 C3291 1.377 . S
C3307 C3305 1.389 . S
C3307 C3308 1.524 . S
C3308 C3307 1.524 . S
C3308 C3309 1.397 . S
C3308 C3313 1.363 . S
C3309 H3280 0.950 . S
C3309 C3308 1.397 . S
C3309 C3310 1.334 . S
C3310 H3281 0.950 . S
C3310 C3309 1.334 . S
C3310 C3311 1.287 . S
C3311 C3310 1.287 . S
C3311 C3312 1.524 . S
C3311 H3314 0.999 . S
C3312 H3282 0.950 . S
C3312 C3311 1.524 . S
C3312 C3313 1.415 . S
C3313 H3283 0.950 . S
C3313 C3308 1.363 . S
C3313 C3312 1.415 . S
H3314 C3311 0.999 . S
H3315 C3296 0.913 . S
H3316 C3334 0.951 . S
H3317 C3336 0.951 . S
H3318 C3338 0.950 . S
H3319 C3339 0.950 . S
H3320 C3341 0.950 . S
H3321 C3344 0.950 . S
H3322 C3345 0.950 . S
H3323 C3347 0.950 . S
H3324 C3348 0.950 . S
H3325 C3349 0.951 . S
H3326 C3351 0.951 . S
H3327 C3353 0.950 . S
H3328 C3354 0.950 . S
H3329 C3356 0.950 . S
H3330 C3359 0.950 . S
H3331 C3360 0.950 . S
H3332 C3362 0.950 . S
H3333 C3363 0.950 . S
C3334 H3316 0.951 . S
C3334 C3335 1.366 . S
C3334 C3336 1.388 . S
C3335 C3334 1.366 . S
C3335 C3339 1.385 . S
C3336 H3317 0.951 . S
C3336 C3334 1.388 . S
C3336 C3337 1.366 . S
C3337 C3336 1.366 . S
C3337 C3338 1.414 . S
C3337 C3340 1.499 . S
C3338 H3318 0.950 . S
C3338 C3337 1.414 . S
C3338 C3339 1.374 . S
C3339 H3319 0.950 . S
C3339 C3335 1.385 . S
C3339 C3338 1.374 . S
C3340 C3337 1.499 . S
C3340 C3341 1.373 . S
C3340 C3342 1.389 . S
C3341 H3320 0.950 . S
C3341 C3340 1.373 . S
C3341 C3357 1.377 . S
C3342 C3340 1.389 . S
C3342 C3343 1.524 . S
C3342 C3356 1.377 . S
C3343 C3342 1.524 . S
C3343 C3344 1.397 . S
C3343 C3348 1.363 . S
C3344 H3321 0.950 . S
C3344 C3343 1.397 . S
C3344 C3345 1.334 . S
C3345 H3322 0.950 . S
C3345 C3344 1.334 . S
C3345 C3346 1.287 . S
C3346 C3345 1.287 . S
C3346 C3347 1.524 . S
C3346 H3365 0.913 . S
C3347 H3323 0.950 . S
C3347 C3346 1.524 . S
C3347 C3348 1.415 . S
C3348 H3324 0.950 . S
C3348 C3343 1.363 . S
C3348 C3347 1.415 . S
C3349 H3325 0.951 . S
C3349 C3350 1.366 1_554 S
C3349 C3351 1.388 . S
C3350 C3349 1.366 1_556 S
C3350 C3354 1.385 . S
C3351 H3326 0.951 . S
C3351 C3349 1.388 . S
C3351 C3352 1.366 1_554 S
C3352 C3351 1.366 1_556 S
C3352 C3353 1.414 . S
C3352 C3355 1.499 . S
C3353 H3327 0.950 . S
C3353 C3352 1.414 . S
C3353 C3354 1.374 . S
C3354 H3328 0.950 . S
C3354 C3350 1.385 . S
C3354 C3353 1.374 . S
C3355 C3352 1.499 . S
C3355 C3356 1.373 . S
C3355 C3357 1.389 . S
C3356 H3329 0.950 . S
C3356 C3342 1.377 . S
C3356 C3355 1.373 . S
C3357 C3341 1.377 . S
C3357 C3355 1.389 . S
C3357 C3358 1.524 . S
C3358 C3357 1.524 . S
C3358 C3359 1.397 . S
C3358 C3363 1.363 1_556 S
C3359 H3330 0.950 . S
C3359 C3358 1.397 . S
C3359 C3360 1.334 . S
C3360 H3331 0.950 . S
C3360 C3359 1.334 . S
C3360 C3361 1.287 . S
C3361 C3360 1.287 . S
C3361 C3362 1.524 1_556 S
C3361 H3364 0.999 . S
C3362 H3332 0.950 . S
C3362 C3361 1.524 1_554 S
C3362 C3363 1.415 . S
C3363 H3333 0.950 . S
C3363 C3358 1.363 1_554 S
C3363 C3362 1.415 . S
H3364 C3361 0.999 . S
H3365 C3346 0.913 . S
H3366 C3384 0.951 . S
H3367 C3386 0.951 . S
H3368 C3388 0.950 . S
H3369 C3389 0.950 . S
H3370 C3391 0.950 . S
H3371 C3394 0.950 . S
H3372 C3395 0.950 . S
H3373 C3397 0.950 . S
H3374 C3398 0.950 . S
H3375 C3399 0.951 . S
H3376 C3401 0.951 . S
H3377 C3403 0.950 . S
H3378 C3404 0.950 . S
H3379 C3406 0.950 . S
H3380 C3409 0.950 . S
H3381 C3410 0.950 . S
H3382 C3412 0.950 . S
H3383 C3413 0.950 . S
C3384 H3366 0.951 . S
C3384 C3385 1.366 . S
C3384 C3386 1.388 . S
C3385 C3384 1.366 . S
C3385 C3389 1.385 . S
C3386 H3367 0.951 . S
C3386 C3384 1.388 . S
C3386 C3387 1.366 . S
C3387 C3386 1.366 . S
C3387 C3388 1.414 . S
C3387 C3390 1.499 . S
C3388 H3368 0.950 . S
C3388 C3387 1.414 . S
C3388 C3389 1.374 . S
C3389 H3369 0.950 . S
C3389 C3385 1.385 . S
C3389 C3388 1.374 . S
C3390 C3387 1.499 . S
C3390 C3391 1.373 . S
C3390 C3392 1.389 . S
C3391 H3370 0.950 . S
C3391 C3390 1.373 . S
C3391 C3407 1.377 . S
C3392 C3390 1.389 . S
C3392 C3393 1.524 . S
C3392 C3406 1.377 . S
C3393 C3392 1.524 . S
C3393 C3394 1.397 . S
C3393 C3398 1.363 . S
C3394 H3371 0.950 . S
C3394 C3393 1.397 . S
C3394 C3395 1.334 . S
C3395 H3372 0.950 . S
C3395 C3394 1.334 . S
C3395 C3396 1.287 . S
C3396 C3395 1.287 . S
C3396 C3397 1.524 . S
C3396 H3415 0.913 . S
C3397 H3373 0.950 . S
C3397 C3396 1.524 . S
C3397 C3398 1.415 . S
C3398 H3374 0.950 . S
C3398 C3393 1.363 . S
C3398 C3397 1.415 . S
C3399 H3375 0.951 . S
C3399 C3400 1.366 . S
C3399 C3401 1.388 . S
C3400 C3399 1.366 . S
C3400 C3404 1.385 . S
C3401 H3376 0.951 . S
C3401 C3399 1.388 . S
C3401 C3402 1.366 . S
C3402 C3401 1.366 . S
C3402 C3403 1.414 . S
C3402 C3405 1.499 . S
C3403 H3377 0.950 . S
C3403 C3402 1.414 . S
C3403 C3404 1.374 . S
C3404 H3378 0.950 . S
C3404 C3400 1.385 . S
C3404 C3403 1.374 . S
C3405 C3402 1.499 . S
C3405 C3406 1.373 . S
C3405 C3407 1.389 . S
C3406 H3379 0.950 . S
C3406 C3392 1.377 . S
C3406 C3405 1.373 . S
C3407 C3391 1.377 . S
C3407 C3405 1.389 . S
C3407 C3408 1.524 . S
C3408 C3407 1.524 . S
C3408 C3409 1.397 . S
C3408 C3413 1.363 . S
C3409 H3380 0.950 . S
C3409 C3408 1.397 . S
C3409 C3410 1.334 . S
C3410 H3381 0.950 . S
C3410 C3409 1.334 . S
C3410 C3411 1.287 . S
C3411 C3410 1.287 . S
C3411 C3412 1.524 . S
C3411 H3414 0.999 . S
C3412 H3382 0.950 . S
C3412 C3411 1.524 . S
C3412 C3413 1.415 . S
C3413 H3383 0.950 . S
C3413 C3408 1.363 . S
C3413 C3412 1.415 . S
H3414 C3411 0.999 . S
H3415 C3396 0.913 . S
H3416 C3434 0.951 . S
H3417 C3436 0.951 . S
H3418 C3438 0.950 . S
H3419 C3439 0.950 . S
H3420 C3441 0.950 . S
H3421 C3444 0.950 . S
H3422 C3445 0.950 . S
H3423 C3447 0.950 . S
H3424 C3448 0.950 . S
H3425 C3449 0.951 . S
H3426 C3451 0.951 . S
H3427 C3453 0.925 1_556 S
H3428 C3454 0.985 . S
H3429 C3456 0.950 . S
H3430 C3459 0.950 . S
H3431 C3460 0.950 . S
H3432 C3462 0.950 . S
H3433 C3463 0.950 . S
C3434 H3416 0.951 . S
C3434 C3435 1.366 . S
C3434 C3436 1.388 . S
C3435 C3434 1.366 . S
C3435 C3439 1.385 . S
C3436 H3417 0.951 . S
C3436 C3434 1.388 . S
C3436 C3437 1.366 . S
C3437 C3436 1.366 . S
C3437 C3438 1.414 . S
C3437 C3440 1.499 . S
C3438 H3418 0.950 . S
C3438 C3437 1.414 . S
C3438 C3439 1.374 . S
C3439 H3419 0.950 . S
C3439 C3435 1.385 . S
C3439 C3438 1.374 . S
C3440 C3437 1.499 . S
C3440 C3441 1.373 . S
C3440 C3442 1.389 . S
C3441 H3420 0.950 . S
C3441 C3440 1.373 . S
C3441 C3457 1.377 . S
C3442 C3440 1.389 . S
C3442 C3443 1.524 . S
C3442 C3456 1.377 . S
C3443 C3442 1.524 . S
C3443 C3444 1.397 . S
C3443 C3448 1.363 . S
C3444 H3421 0.950 . S
C3444 C3443 1.397 . S
C3444 C3445 1.334 . S
C3445 H3422 0.950 . S
C3445 C3444 1.334 . S
C3445 C3446 1.287 . S
C3446 C3445 1.287 . S
C3446 C3447 1.524 . S
C3446 H3465 0.913 . S
C3447 H3423 0.950 . S
C3447 C3446 1.524 . S
C3447 C3448 1.415 . S
C3448 H3424 0.950 . S
C3448 C3443 1.363 . S
C3448 C3447 1.415 . S
C3449 H3425 0.951 . S
C3449 C3450 1.366 . S
C3449 C3451 1.388 . S
C3450 C3449 1.366 . S
C3450 C3454 1.359 1_554 S
C3451 H3426 0.951 . S
C3451 C3449 1.388 . S
C3451 C3452 1.366 . S
C3452 C3451 1.366 . S
C3452 C3453 1.450 . S
C3452 C3455 1.499 . S
C3453 H3427 0.925 1_554 S
C3453 C3452 1.450 . S
C3453 C3454 1.365 1_554 S
C3454 H3428 0.985 . S
C3454 C3450 1.359 1_556 S
C3454 C3453 1.365 1_556 S
C3455 C3452 1.499 . S
C3455 C3456 1.373 . S
C3455 C3457 1.389 . S
C3456 H3429 0.950 . S
C3456 C3442 1.377 . S
C3456 C3455 1.373 . S
C3457 C3441 1.377 . S
C3457 C3455 1.389 . S
C3457 C3458 1.524 . S
C3458 C3457 1.524 . S
C3458 C3459 1.397 1_554 S
C3458 C3463 1.363 . S
C3459 H3430 0.950 . S
C3459 C3458 1.397 1_556 S
C3459 C3460 1.334 . S
C3460 H3431 0.950 . S
C3460 C3459 1.334 . S
C3460 C3461 1.287 . S
C3461 C3460 1.287 . S
C3461 C3462 1.524 1_556 S
C3461 H3464 0.999 . S
C3462 H3432 0.950 . S
C3462 C3461 1.524 1_554 S
C3462 C3463 1.415 . S
C3463 H3433 0.950 . S
C3463 C3458 1.363 . S
C3463 C3462 1.415 . S
H3464 C3461 0.999 . S
H3465 C3446 0.913 . S
H3466 C3484 0.951 . S
H3467 C3486 0.951 . S
H3468 C3488 0.950 . S
H3469 C3489 0.950 . S
H3470 C3491 0.950 . S
H3471 C3494 0.950 . S
H3472 C3495 0.950 . S
H3473 C3497 0.950 . S
H3474 C3498 0.950 . S
H3475 C3499 0.951 . S
H3476 C3501 0.951 . S
H3477 C3503 0.950 . S
H3478 C3504 0.950 . S
H3479 C3506 0.950 . S
H3480 C3509 0.950 . S
H3481 C3510 0.950 . S
H3482 C3512 0.950 . S
H3483 C3513 0.950 1_554 S
C3484 H3466 0.951 . S
C3484 C3485 1.366 . S
C3484 C3486 1.388 . S
C3485 C3484 1.366 . S
C3485 C3489 1.385 1_565 S
C3486 H3467 0.951 . S
C3486 C3484 1.388 . S
C3486 C3487 1.366 . S
C3487 C3486 1.366 . S
C3487 C3488 1.414 . S
C3487 C3490 1.499 . S
C3488 H3468 0.950 . S
C3488 C3487 1.414 . S
C3488 C3489 1.374 1_565 S
C3489 H3469 0.950 . S
C3489 C3485 1.385 1_545 S
C3489 C3488 1.374 1_545 S
C3490 C3487 1.499 . S
C3490 C3491 1.373 . S
C3490 C3492 1.389 . S
C3491 H3470 0.950 . S
C3491 C3490 1.373 . S
C3491 C3507 1.377 . S
C3492 C3490 1.389 . S
C3492 C3493 1.524 . S
C3492 C3506 1.377 . S
C3493 C3492 1.524 . S
C3493 C3494 1.397 . S
C3493 C3498 1.363 . S
C3494 H3471 0.950 . S
C3494 C3493 1.397 . S
C3494 C3495 1.334 . S
C3495 H3472 0.950 . S
C3495 C3494 1.334 . S
C3495 C3496 1.287 . S
C3496 C3495 1.287 . S
C3496 C3497 1.524 . S
C3496 H3515 0.913 . S
C3497 H3473 0.950 . S
C3497 C3496 1.524 . S
C3497 C3498 1.415 . S
C3498 H3474 0.950 . S
C3498 C3493 1.363 . S
C3498 C3497 1.415 . S
C3499 H3475 0.951 . S
C3499 C3500 1.366 . S
C3499 C3501 1.388 . S
C3500 C3499 1.366 . S
C3500 C3504 1.385 . S
C3501 H3476 0.951 . S
C3501 C3499 1.388 . S
C3501 C3502 1.366 . S
C3502 C3501 1.366 . S
C3502 C3503 1.414 . S
C3502 C3505 1.499 . S
C3503 H3477 0.950 . S
C3503 C3502 1.414 . S
C3503 C3504 1.374 . S
C3504 H3478 0.950 . S
C3504 C3500 1.385 . S
C3504 C3503 1.374 . S
C3505 C3502 1.499 . S
C3505 C3506 1.373 . S
C3505 C3507 1.389 . S
C3506 H3479 0.950 . S
C3506 C3492 1.377 . S
C3506 C3505 1.373 . S
C3507 C3491 1.377 . S
C3507 C3505 1.389 . S
C3507 C3508 1.524 1_554 S
C3508 C3507 1.524 1_556 S
C3508 C3509 1.397 . S
C3508 C3513 1.363 . S
C3509 H3480 0.950 . S
C3509 C3508 1.397 . S
C3509 C3510 1.334 . S
C3510 H3481 0.950 . S
C3510 C3509 1.334 . S
C3510 C3511 1.287 . S
C3511 C3510 1.287 . S
C3511 C3512 1.524 . S
C3511 H3514 0.999 . S
C3512 H3482 0.950 . S
C3512 C3511 1.524 . S
C3512 C3513 1.415 . S
C3513 H3483 0.950 1_556 S
C3513 C3508 1.363 . S
C3513 C3512 1.415 . S
H3514 C3511 0.999 . S
H3515 C3496 0.913 . S
C1150 C970 1.403 . S
C1135 C331 1.386 . S
C1200 C983 1.620 . S
C1185 C380 1.610 . S
C1235 C421 1.422 . S
C1250 C996 1.437 . S
C1300 C1009 1.532 . S
C1285 C260 1.516 . S
C1350 C1017 1.464 . S
C1335 C620 1.464 . S
C1400 C1030 1.408 . S
C1385 C740 1.406 . S
C1435 C680 1.498 . S
C1450 C1043 1.497 . S
C1500 C1056 1.514 . S
C1485 C571 1.497 . S
C1535 C691 1.405 . S
C1550 C1074 1.417 . S
C1600 C1085 1.522 . S
C1585 C541 1.534 . S
C1635 C601 1.424 . S
C1650 C1069 1.426 . S
C1700 C1077 1.460 . S
C1685 C721 1.464 . S
C1735 C451 1.471 . S
C1750 C1100 1.483 . S
C1785 C241 1.501 . S
C1800 C1090 1.494 . S
C1835 C320 1.485 . S
C1850 C1095 1.484 . S
C1885 C391 1.563 . S
C1900 C1098 1.552 1_655 S
C1935 C211 1.413 . S
C1950 C1007 1.416 . S
C1985 C841 1.386 . S
C2000 C999 1.391 . S
C2050 C968 1.562 . S
C2035 C901 1.571 . S
C2100 C973 1.491 . S
C2085 C500 1.491 . S
C2135 C271 1.524 . S
C2150 C1020 1.524 . S
C2200 C1059 1.510 . S
C2185 C661 1.512 . S
C2250 C1012 1.488 . S
C2235 C560 1.495 . S
C2300 C1038 1.449 . S
C2285 C751 1.459 . S
C2350 C1048 1.403 . S
C2335 C871 1.386 . S
C2385 C920 1.610 . S
C2400 C1061 1.620 . S
C2435 C481 1.423 . S
C2450 C1022 1.433 . S
C2500 C1035 1.532 . S
C2485 C800 1.517 . S
C2535 C200 1.464 . S
C2550 C991 1.459 . S
C2600 C1004 1.407 . S
C2585 C20 1.407 . S
C2650 C965 1.497 . S
C2635 C80 1.499 . S
C2700 C978 1.499 . S
C2685 C151 1.496 . S
C2735 C91 1.405 . S
C2750 C1087 1.417 . S
C2785 C121 1.534 . S
C2800 C1072 1.507 1_655 S
C2835 C181 1.424 . S
C2850 C1082 1.425 . S
C2885 C1 1.444 1_556 S
C2900 C1064 1.461 . S
C2950 C1113 1.483 . S
C2935 C511 1.470 . S
C3000 C1103 1.494 . S
C2985 C781 1.502 1_554 S
C3050 C1108 1.484 . S
C3035 C860 1.486 . S
C3085 C931 1.563 . S
C3100 C1111 1.554 . S
C3135 C631 1.412 . S
C3150 C1033 1.416 . S
C3200 C1025 1.391 . S
C3185 C301 1.387 . S
C3250 C1046 1.562 . S
C3235 C361 1.571 . S
C3300 C1051 1.491 . S
C3285 C440 1.496 . S
C3335 C811 1.524 . S
C3350 C994 1.525 . S
C3400 C981 1.511 . S
C3385 C61 1.516 . S
C3435 C140 1.496 . S
C3450 C986 1.487 . S
C3500 C960 1.449 . S
C3485 C31 1.458 1_565 S
