# Generated by pormake.
# Topology nom, (4,4)-cn, num edge types: 1
# Building blocks:
#     Node 0, Type 0, BuildingBlock: KUFVIS_clean_linker_0, # of connection points: 4
#     Node 1, Type 0, BuildingBlock: KUFVIS_clean_linker_0, # of connection points: 4
#     Node 2, Type 0, BuildingBlock: KUFVIS_clean_linker_0, # of connection points: 4
#     Node 3, Type 0, BuildingBlock: KUFVIS_clean_linker_0, # of connection points: 4
#     Node 4, Type 0, BuildingBlock: KUFVIS_clean_linker_0, # of connection points: 4
#     Node 5, Type 0, BuildingBlock: KUFVIS_clean_linker_0, # of connection points: 4
#     Node 6, Type 1, BuildingBlock: TATPOV_clean_sbu_0, # of connection points: 4
#     Node 7, Type 1, BuildingBlock: TATPOV_clean_sbu_0, # of connection points: 4
#     Node 8, Type 1, BuildingBlock: TATPOV_clean_sbu_0, # of connection points: 4
#     Node 9, Type 1, BuildingBlock: TATPOV_clean_sbu_0, # of connection points: 4
#     Node 10, Type 1, BuildingBlock: TATPOV_clean_sbu_0, # of connection points: 4
#     Node 11, Type 1, BuildingBlock: TATPOV_clean_sbu_0, # of connection points: 4
#     Edge 12, Type (0, 1), BuildingBlock: EZIPEK_clean_linker_0, # of connection points: 2
#     Edge 13, Type (0, 1), BuildingBlock: EZIPEK_clean_linker_0, # of connection points: 2
#     Edge 14, Type (0, 1), BuildingBlock: EZIPEK_clean_linker_0, # of connection points: 2
#     Edge 15, Type (0, 1), BuildingBlock: EZIPEK_clean_linker_0, # of connection points: 2
#     Edge 16, Type (0, 1), BuildingBlock: EZIPEK_clean_linker_0, # of connection points: 2
#     Edge 17, Type (0, 1), BuildingBlock: EZIPEK_clean_linker_0, # of connection points: 2
#     Edge 18, Type (0, 1), BuildingBlock: EZIPEK_clean_linker_0, # of connection points: 2
#     Edge 19, Type (0, 1), BuildingBlock: EZIPEK_clean_linker_0, # of connection points: 2
#     Edge 20, Type (0, 1), BuildingBlock: EZIPEK_clean_linker_0, # of connection points: 2
#     Edge 21, Type (0, 1), BuildingBlock: EZIPEK_clean_linker_0, # of connection points: 2
#     Edge 22, Type (0, 1), BuildingBlock: EZIPEK_clean_linker_0, # of connection points: 2
#     Edge 23, Type (0, 1), BuildingBlock: EZIPEK_clean_linker_0, # of connection points: 2
#     Edge 24, Type (0, 1), BuildingBlock: EZIPEK_clean_linker_0, # of connection points: 2
#     Edge 25, Type (0, 1), BuildingBlock: EZIPEK_clean_linker_0, # of connection points: 2
#     Edge 26, Type (0, 1), BuildingBlock: EZIPEK_clean_linker_0, # of connection points: 2
#     Edge 27, Type (0, 1), BuildingBlock: EZIPEK_clean_linker_0, # of connection points: 2
#     Edge 28, Type (0, 1), BuildingBlock: EZIPEK_clean_linker_0, # of connection points: 2
#     Edge 29, Type (0, 1), BuildingBlock: EZIPEK_clean_linker_0, # of connection points: 2
#     Edge 30, Type (0, 1), BuildingBlock: EZIPEK_clean_linker_0, # of connection points: 2
#     Edge 31, Type (0, 1), BuildingBlock: EZIPEK_clean_linker_0, # of connection points: 2
#     Edge 32, Type (0, 1), BuildingBlock: EZIPEK_clean_linker_0, # of connection points: 2
#     Edge 33, Type (0, 1), BuildingBlock: EZIPEK_clean_linker_0, # of connection points: 2
#     Edge 34, Type (0, 1), BuildingBlock: EZIPEK_clean_linker_0, # of connection points: 2
#     Edge 35, Type (0, 1), BuildingBlock: EZIPEK_clean_linker_0, # of connection points: 2
# Relax obj value: 0.020
# Max RMSD: 0.119
# Mean RMSD: 0.080
data_MOF--net-nom--node1-TATPOV_clean_sbu_0--node2-KUFVIS_clean_linker_0--edge1-EZIPEK_clean_linker_0
_symmetry_space_group_name_H-M    P1
_symmetry_Int_Tables_number       1
_symmetry_cell_setting            triclinic
loop_
_symmetry_equiv_pos_as_xyz
'x, y, z'
_cell_length_a     33.085677
_cell_length_b     33.482153
_cell_length_c     35.211132
_cell_angle_alpha  90.649588
_cell_angle_beta   90.857634
_cell_angle_gamma 119.85131
loop_
_atom_site_label
_atom_site_type_symbol
_atom_site_fract_x
_atom_site_fract_y
_atom_site_fract_z
_atom_type_partial_charge
H0 H 0.19235 0.60509 0.32042 0.0
H1 H 0.07883 0.53308 0.24146 0.0
H2 H 0.0558 0.52655 0.36298 0.0
H3 H 0.98783 0.47046 0.35152 0.0
H4 H 0.87347 0.45281 0.28137 0.0
H5 H 1.00887 0.51684 0.23493 0.0
C6 C 0.15579 0.58026 0.31502 0.0
C7 C 0.12581 0.56349 0.34546 0.0
C8 C 0.13813 0.57117 0.2778 0.0
C9 C 0.09064 0.53996 0.27076 0.0
C10 C 0.05909 0.52248 0.30119 0.0
C11 C 0.07788 0.53524 0.33864 0.0
C12 C 1.00693 0.49755 0.29431 0.0
C13 C 0.97573 0.47521 0.3242 0.0
C14 C 0.92842 0.46222 0.32036 0.0
C15 C 0.91028 0.46407 0.28483 0.0
C16 C 0.93937 0.48177 0.25393 0.0
C17 C 0.98751 0.5 0.25892 0.0
H18 H 0.59145 0.18959 0.4915 0.0
H19 H 0.53385 0.08129 0.40714 0.0
H20 H 0.56352 0.05492 0.52154 0.0
H21 H 0.49235 0.99208 0.51301 0.0
H22 H 0.44371 0.87772 0.43548 0.0
H23 H 0.53186 1.01391 0.39507 0.0
C24 C 0.57956 0.15399 0.48343 0.0
C25 C 0.57747 0.12334 0.5109 0.0
C26 C 0.56642 0.13954 0.4457 0.0
C27 C 0.54728 0.09259 0.43581 0.0
C28 C 0.54453 0.06082 0.46343 0.0
C29 C 0.56315 0.07776 0.50017 0.0
C30 C 0.51905 1.00988 0.4557 0.0
C31 C 0.49413 0.9792 0.48511 0.0
C32 C 0.4676 0.93164 0.47789 0.0
C33 C 0.46622 0.91429 0.44147 0.0
C34 C 0.48782 0.94394 0.4115 0.0
C35 C 0.51532 0.99152 0.41868 0.0
H36 H 0.58776 0.43779 0.60327 0.0
H37 H 0.49628 0.46177 0.67145 0.0
H38 H 0.53108 0.51869 0.55885 0.0
H39 H 0.46844 0.52613 0.56487 0.0
H40 H 0.41686 0.58548 0.64582 0.0
H41 H 0.49642 0.5254 0.68565 0.0
C42 C 0.56719 0.45457 0.60713 0.0
C43 C 0.56101 0.4779 0.57701 0.0
C44 C 0.54341 0.44835 0.64072 0.0
C45 C 0.51602 0.46904 0.64574 0.0
C46 C 0.51263 0.49679 0.61713 0.0
C47 C 0.5343 0.4996 0.58213 0.0
C48 C 0.48647 0.52214 0.62412 0.0
C49 C 0.46641 0.53503 0.59412 0.0
C50 C 0.44243 0.55901 0.60201 0.0
C51 C 0.43686 0.56861 0.63961 0.0
C52 C 0.45513 0.55505 0.66938 0.0
C53 C 0.48109 0.53352 0.66174 0.0
H54 H 0.17951 0.58154 0.77837 0.0
H55 H 0.06547 0.50637 0.85208 0.0
H56 H 0.04037 0.53255 0.73619 0.0
H57 H 0.97265 0.46542 0.74231 0.0
H58 H 0.85981 0.43135 0.81732 0.0
H59 H 0.99963 0.50454 0.86178 0.0
C60 C 0.14224 0.56267 0.78294 0.0
C61 C 0.11156 0.55803 0.75346 0.0
C62 C 0.12569 0.54498 0.81862 0.0
C63 C 0.07738 0.52068 0.8244 0.0
C64 C 0.04531 0.51456 0.79465 0.0
C65 C 0.06331 0.53428 0.75918 0.0
C66 C 0.99364 0.48958 0.80096 0.0
C67 C 0.96108 0.46725 0.77053 0.0
C68 C 0.91289 0.44608 0.77667 0.0
C69 C 0.89702 0.44733 0.81285 0.0
C70 C 0.92814 0.46707 0.84366 0.0
C71 C 0.97624 0.48819 0.83765 0.0
H72 H 0.48877 0.86518 -0.01197 0.0
H73 H 0.56334 0.97432 0.91039 0.0
H74 H 0.54291 1.00463 0.02628 0.0
H75 H 0.61424 0.07023 0.01635 0.0
H76 H 0.63613 0.17789 0.94017 0.0
H77 H 0.55433 0.03758 0.90209 0.0
C78 C 0.50904 0.90177 -0.0175 0.0
C79 C 0.51549 0.93343 0.01117 0.0
C80 C 0.52513 0.91623 0.94611 0.0
C81 C 0.55064 0.9636 0.93874 0.0
C82 C 0.55845 0.99655 0.96783 0.0
C83 C 0.54009 0.98069 0.00404 0.0
C84 C 0.58215 0.04696 0.95992 0.0
C85 C 0.60875 0.08046 -0.01144 0.0
C86 C 0.62784 0.12766 -0.0186 0.0
C87 C 0.62163 0.14148 0.94566 0.0
C88 C 0.59579 0.10918 0.91722 0.0
C89 C 0.57587 0.06207 0.92419 0.0
H90 H 0.46296 0.62237 0.11771 0.0
H91 H 0.52472 0.57344 0.19885 0.0
H92 H 0.55302 0.57396 0.07895 0.0
H93 H 0.55296 0.51011 0.09026 0.0
H94 H 0.63994 0.48133 0.16223 0.0
H95 H 0.586 0.56458 0.206 0.0
C96 C 0.48539 0.60807 0.12381 0.0
C97 C 0.50539 0.59665 0.094 0.0
C98 C 0.49487 0.60239 0.16151 0.0
C99 C 0.52079 0.58047 0.16955 0.0
C100 C 0.54094 0.56798 0.13976 0.0
C101 C 0.53558 0.57973 0.10234 0.0
C102 C 0.56681 0.54236 0.14683 0.0
C103 C 0.57069 0.51521 0.11745 0.0
C104 C 0.59935 0.49571 0.12219 0.0
C105 C 0.61917 0.49784 0.15793 0.0
C106 C 0.61248 0.5208 0.18831 0.0
C107 C 0.58812 0.54469 0.18251 0.0
Zn108 Zn 0.73479 0.5019 0.39764 0.0
Zn109 Zn 0.67404 0.41265 0.38169 0.0
O110 O 0.73892 0.41743 0.38837 0.0
O111 O 0.7885 0.49026 0.40027 0.0
O112 O 0.63084 0.34345 0.37462 0.0
O113 O 0.70119 0.49974 0.4451 0.0
O114 O 0.64625 0.43066 0.42631 0.0
C115 C 0.78048 0.44935 0.39605 0.0
C116 C 0.68364 0.48449 0.32572 0.0
O117 O 0.66649 0.44219 0.33389 0.0
O118 O 0.71289 0.51608 0.34794 0.0
C119 C 0.63568 0.31861 0.39931 0.0
O120 O 0.66655 0.33854 0.42711 0.0
C121 C 0.66094 0.46535 0.44895 0.0
Zn122 Zn 0.2247 0.70866 0.55615 0.0
Zn123 Zn 0.27775 0.66893 0.55539 0.0
O124 O 0.32392 0.73808 0.54703 0.0
O125 O 0.28209 0.77167 0.55656 0.0
O126 O 0.31821 0.63944 0.56011 0.0
O127 O 0.19371 0.67926 0.60403 0.0
O128 O 0.23862 0.64785 0.60429 0.0
C129 C 0.32061 0.77443 0.54874 0.0
C130 C 0.20761 0.64665 0.49161 0.0
O131 O 0.23854 0.63997 0.50737 0.0
O132 O 0.19626 0.67427 0.50638 0.0
C133 C 0.34352 0.63759 0.53408 0.0
O134 O 0.34456 0.65546 0.50085 0.0
C135 C 0.20676 0.65343 0.61918 0.0
Zn136 Zn 0.54729 0.22 0.72004 0.0
Zn137 Zn 0.63808 0.2736 0.72309 0.0
O138 O 0.60944 0.31553 0.71188 0.0
O139 O 0.5346 0.27228 0.72298 0.0
O140 O 0.70764 0.31757 0.73059 0.0
O141 O 0.54584 0.18543 0.76604 0.0
O142 O 0.62109 0.2353 0.77187 0.0
C143 C 0.56873 0.31065 0.71416 0.0
C144 C 0.5956 0.20589 0.65794 0.0
O145 O 0.63222 0.23315 0.67716 0.0
O146 O 0.55595 0.19774 0.66893 0.0
C147 C 0.73644 0.33786 0.70432 0.0
O148 O 0.72186 0.33102 0.66872 0.0
C149 C 0.58423 0.20075 0.78394 0.0
Zn150 Zn 0.35612 0.5484 0.89108 0.0
Zn151 Zn 0.39781 0.63908 0.88123 0.0
O152 O 0.32789 0.6199 0.88749 0.0
O153 O 0.29419 0.54499 0.89234 0.0
O154 O 0.43288 0.70809 0.87435 0.0
O155 O 0.39163 0.55824 0.9399 0.0
O156 O 0.43227 0.63199 0.92775 0.0
C157 C 0.29096 0.58108 0.89178 0.0
C158 C 0.40271 0.57603 0.82053 0.0
O159 O 0.41023 0.61542 0.83179 0.0
O160 O 0.38155 0.54121 0.84124 0.0
C161 C 0.42849 0.73446 0.89803 0.0
O162 O 0.39849 0.7165 0.92541 0.0
C163 C 0.42464 0.59817 0.94854 0.0
Zn164 Zn 0.81172 0.49625 0.04607 0.0
Zn165 Zn 0.77533 0.40446 0.05208 0.0
O166 O 0.71703 0.41251 0.0495 0.0
O167 O 0.74751 0.48758 0.04857 0.0
O168 O 0.74957 0.33555 0.05484 0.0
O169 O 0.83711 0.49431 -0.00488 0.0
O170 O 0.81679 0.42212 0.00524 0.0
C171 C 0.71187 0.44776 0.04877 0.0
C172 C 0.8431 0.46992 0.11285 0.0
O173 O 0.81418 0.4294 0.10077 0.0
O174 O 0.84997 0.50481 0.09421 0.0
C175 C 0.71425 0.30842 0.03436 0.0
O176 O 0.69367 0.32532 0.01308 0.0
C177 C 0.83745 0.45804 -0.01475 0.0
Zn178 Zn 0.35165 0.81985 0.20176 0.0
Zn179 Zn 0.39813 0.77416 0.21018 0.0
O180 O 0.32899 0.72572 0.21596 0.0
O181 O 0.28994 0.76032 0.19968 0.0
O182 O 0.42892 0.73513 0.20907 0.0
O183 O 0.38341 0.85003 0.1547 0.0
O184 O 0.42089 0.81124 0.1607 0.0
C185 C 0.2903 0.72451 0.21026 0.0
C186 C 0.41334 0.84555 0.26927 0.0
O187 O 0.42355 0.81569 0.25732 0.0
O188 O 0.38383 0.8523 0.2513 0.0
C189 C 0.41933 0.70213 0.2314 0.0
O190 O 0.39036 0.69402 0.2592 0.0
C191 C 0.41331 0.84008 0.1431 0.0
C192 C 0.20139 0.59921 0.22943 0.0
C193 C 0.16741 0.60473 0.24899 0.0
C194 C 0.21233 0.68781 0.24167 0.0
C195 C 0.24597 0.68287 0.22051 0.0
N196 N 0.26521 0.63224 0.18551 0.0
N197 N 0.1324 0.65164 0.26134 0.0
C198 C 0.23819 0.63795 0.21151 0.0
C199 C 0.16984 0.64809 0.25014 0.0
N200 N 0.19927 0.55745 0.22909 0.0
N201 N 0.22238 0.72939 0.25741 0.0
H202 H 0.10076 0.6231 0.26832 0.0
H203 H 0.13141 0.68222 0.25975 0.0
H204 H 0.255 0.75894 0.25652 0.0
H205 H 0.20016 0.73311 0.27597 0.0
H206 H 0.22597 0.55247 0.21913 0.0
H207 H 0.17142 0.52829 0.24057 0.0
H208 H 0.25885 0.60004 0.17588 0.0
H209 H 0.29104 0.65963 0.17068 0.0
C210 C 0.54486 0.19605 0.42124 0.0
C211 C 0.57323 0.17556 0.41804 0.0
C212 C 0.63184 0.24368 0.38543 0.0
C213 C 0.60868 0.2676 0.39688 0.0
N214 N 0.54127 0.26686 0.42233 0.0
N215 N 0.64183 0.17725 0.39424 0.0
C216 C 0.56394 0.24354 0.41293 0.0
C217 C 0.61562 0.19813 0.39825 0.0
N218 N 0.50033 0.17008 0.43346 0.0
N219 N 0.66957 0.265 0.36269 0.0
H220 H 0.62991 0.14331 0.4021 0.0
H221 H 0.67575 0.19382 0.38443 0.0
H222 H 0.68131 0.29817 0.35275 0.0
H223 H 0.68634 0.24866 0.35091 0.0
H224 H 0.47632 0.18153 0.43433 0.0
H225 H 0.48637 0.13528 0.43965 0.0
H226 H 0.51097 0.25287 0.43797 0.0
H227 H 0.55396 0.30125 0.41543 0.0
C228 C 0.37134 0.54609 0.56559 0.0
C229 C 0.42018 0.57308 0.57206 0.0
C230 C 0.42026 0.64052 0.54557 0.0
C231 C 0.37094 0.6143 0.54148 0.0
N232 N 0.30115 0.54016 0.53711 0.0
N233 N 0.4928 0.6409 0.55919 0.0
C234 C 0.34702 0.56628 0.54801 0.0
C235 C 0.4452 0.6186 0.55861 0.0
N236 N 0.34811 0.50194 0.57822 0.0
N237 N 0.44281 0.68685 0.53945 0.0
H238 H 0.51148 0.62534 0.56893 0.0
H239 H 0.51355 0.67278 0.54706 0.0
H240 H 0.42578 0.70397 0.52958 0.0
H241 H 0.4779 0.70894 0.54608 0.0
H242 H 0.31196 0.48208 0.57899 0.0
H243 H 0.36545 0.48567 0.5894 0.0
H244 H 0.28252 0.50437 0.53804 0.0
H245 H 0.28269 0.55415 0.52392 0.0
C246 C 0.85738 0.37207 0.74372 0.0
C247 C 0.87693 0.42048 0.74644 0.0
C248 C 0.80982 0.41483 0.71085 0.0
C249 C 0.78692 0.36618 0.71401 0.0
N250 N 0.7891 0.29741 0.72971 0.0
N251 N 0.87517 0.48922 0.73087 0.0
C252 C 0.81109 0.34446 0.7289 0.0
C253 C 0.85454 0.44229 0.72865 0.0
N254 N 0.88321 0.35288 0.75587 0.0
N255 N 0.78838 0.43464 0.69153 0.0
H256 H 0.90885 0.50994 0.74208 0.0
H257 H 0.85895 0.50769 0.72275 0.0
H258 H 0.75491 0.4157 0.67958 0.0
H259 H 0.80452 0.46942 0.68518 0.0
H260 H 0.87291 0.31817 0.75268 0.0
H261 H 0.91716 0.37268 0.76679 0.0
H262 H 0.80222 0.27901 0.74381 0.0
H263 H 0.75647 0.27626 0.71686 0.0
C264 C 0.53317 0.8539 0.91523 0.0
C265 C 0.50976 0.87944 0.91637 0.0
C266 C 0.43905 0.81307 0.88964 0.0
C267 C 0.4592 0.78513 0.89696 0.0
N268 N 0.52629 0.7783 0.91466 0.0
N269 N 0.44283 0.88666 0.90078 0.0
C270 C 0.50701 0.8055 0.9081 0.0
C271 C 0.46375 0.86031 0.90124 0.0
N272 N 0.58008 0.87611 0.92255 0.0
N273 N 0.39622 0.79409 0.87196 0.0
H274 H 0.46111 0.9218 0.90768 0.0
H275 H 0.40757 0.87382 0.89471 0.0
H276 H 0.37773 0.75952 0.86321 0.0
H277 H 0.38076 0.81303 0.86316 0.0
H278 H 0.60053 0.86069 0.91975 0.0
H279 H 0.59904 0.91157 0.92812 0.0
H280 H 0.55927 0.79037 0.92691 0.0
H281 H 0.50838 0.74281 0.90959 0.0
C282 C 0.6015 0.42778 0.09447 0.0
C283 C 0.6108 0.47371 0.09031 0.0
C284 C 0.66219 0.48265 0.03821 0.0
C285 C 0.66536 0.44469 0.05165 0.0
N286 N 0.62732 0.3722 0.08387 0.0
N287 N 0.64898 0.54495 0.05562 0.0
C288 C 0.63089 0.41373 0.0765 0.0
C289 C 0.63953 0.50072 0.0605 0.0
N290 N 0.5651 0.39842 0.11614 0.0
N291 N 0.68277 0.50227 0.00497 0.0
H292 H 0.6341 0.56045 0.0715 0.0
H293 H 0.67421 0.56746 0.03722 0.0
H294 H 0.69929 0.48868 -0.01148 0.0
H295 H 0.67898 0.52814 -0.00788 0.0
H296 H 0.55421 0.36361 0.11883 0.0
H297 H 0.54324 0.40854 0.12894 0.0
H298 H 0.60778 0.35108 0.10574 0.0
H299 H 0.64301 0.35814 0.06717 0.0
C300 C 0.38584 0.88851 0.49824 0.0
C301 C 0.43261 0.89999 0.50496 0.0
C302 C 0.40616 0.8354 0.54846 0.0
C303 C 0.35942 0.81903 0.53564 0.0
N304 N 0.30737 0.8258 0.49006 0.0
N305 N 0.48846 0.88417 0.53549 0.0
C306 C 0.3497 0.8447 0.50867 0.0
C307 C 0.44323 0.87359 0.53012 0.0
N308 N 0.37599 0.91892 0.48064 0.0
N309 N 0.41502 0.81521 0.57848 0.0
H310 H 0.51618 0.91312 0.52367 0.0
H311 H 0.49812 0.86315 0.54999 0.0
H312 H 0.3886 0.78813 0.59316 0.0
H313 H 0.44799 0.82806 0.59104 0.0
H314 H 0.34225 0.91362 0.47779 0.0
H315 H 0.40196 0.95155 0.47277 0.0
H316 H 0.30065 0.84188 0.46763 0.0
H317 H 0.28094 0.79187 0.4932 0.0
C318 C 0.57777 0.42699 0.69574 0.0
C319 C 0.54248 0.41384 0.66721 0.0
C320 C 0.52532 0.33421 0.66945 0.0
C321 C 0.55909 0.34644 0.69936 0.0
N322 N 0.61113 0.40244 0.74603 0.0
N323 N 0.47429 0.3539 0.6347 0.0
C324 C 0.58343 0.39231 0.71416 0.0
C325 C 0.51313 0.36694 0.6571 0.0
N326 N 0.60676 0.47262 0.70417 0.0
N327 N 0.50772 0.29278 0.65046 0.0
H328 H 0.46473 0.37734 0.62476 0.0
H329 H 0.44924 0.31957 0.62932 0.0
H330 H 0.5182 0.26876 0.65616 0.0
H331 H 0.48678 0.28441 0.62598 0.0
H332 H 0.6366 0.48493 0.7214 0.0
H333 H 0.60192 0.49841 0.6923 0.0
H334 H 0.6265 0.43429 0.76016 0.0
H335 H 0.61564 0.37768 0.7602 0.0
C336 C 0.16537 0.51895 0.86615 0.0
C337 C 0.16053 0.55485 0.84978 0.0
C338 C 0.2357 0.61238 0.87883 0.0
C339 C 0.24308 0.5758 0.88979 0.0
N340 N 0.2039 0.49961 0.9155 0.0
N341 N 0.18195 0.63493 0.85176 0.0
C342 C 0.20407 0.53072 0.89072 0.0
C343 C 0.19283 0.60154 0.85997 0.0
N344 N 0.13536 0.47393 0.85638 0.0
N345 N 0.26911 0.65689 0.88674 0.0
H346 H 0.15005 0.62722 0.83914 0.0
H347 H 0.2024 0.66941 0.85986 0.0
H348 H 0.29615 0.6652 0.90642 0.0
H349 H 0.26925 0.68539 0.87515 0.0
H350 H 0.14088 0.44722 0.86475 0.0
H351 H 0.10712 0.46349 0.83759 0.0
H352 H 0.17492 0.46712 0.91904 0.0
H353 H 0.23055 0.50898 0.93587 0.0
C354 C 0.62709 0.18136 0.0306 0.0
C355 C 0.65274 0.1647 0.01062 0.0
C356 C 0.72332 0.24026 0.01642 0.0
C357 C 0.69658 0.25809 0.03318 0.0
N358 N 0.62824 0.2441 0.06696 0.0
N359 N 0.72653 0.17231 -0.0044 0.0
C360 C 0.65012 0.22791 0.04403 0.0
C361 C 0.7016 0.19223 0.00786 0.0
N362 N 0.58015 0.15346 0.03426 0.0
N363 N 0.76808 0.2695 0.00596 0.0
H364 H 0.71049 0.13713 -0.01102 0.0
H365 H 0.76279 0.18927 -0.00459 0.0
H366 H 0.78528 0.30484 0.01172 0.0
H367 H 0.78748 0.25927 -0.01032 0.0
H368 H 0.55804 0.16484 0.04415 0.0
H369 H 0.56306 0.11871 0.02606 0.0
H370 H 0.59562 0.22326 0.07839 0.0
H371 H 0.64477 0.27804 0.07732 0.0
C372 C 0.42968 0.59891 0.19855 0.0
C373 C 0.47802 0.62155 0.19163 0.0
C374 C 0.48805 0.69096 0.22443 0.0
C375 C 0.43897 0.67156 0.22405 0.0
N376 N 0.36208 0.60689 0.21047 0.0
N377 N 0.55434 0.68869 0.19844 0.0
C378 C 0.40936 0.62503 0.21193 0.0
C379 C 0.50774 0.66717 0.2055 0.0
N380 N 0.40336 0.55261 0.19143 0.0
N381 N 0.51562 0.73209 0.24301 0.0
H382 H 0.57019 0.67178 0.18589 0.0
H383 H 0.57693 0.72374 0.20335 0.0
H384 H 0.50186 0.74994 0.25735 0.0
H385 H 0.55142 0.74629 0.24728 0.0
H386 H 0.36855 0.53296 0.19874 0.0
H387 H 0.41793 0.53319 0.18145 0.0
H388 H 0.33909 0.57517 0.19768 0.0
H389 H 0.34565 0.62472 0.21986 0.0
C390 C 0.90361 0.48586 0.37982 0.0
C391 C 0.89739 0.45053 0.35351 0.0
C392 C 0.81736 0.40196 0.37509 0.0
C393 C 0.82109 0.44128 0.39391 0.0
N394 N 0.87214 0.5062 0.4337 0.0
N395 N 0.85286 0.37155 0.33189 0.0
C396 C 0.86596 0.47843 0.40294 0.0
C397 C 0.85583 0.40694 0.35372 0.0
N398 N 0.94327 0.52799 0.38029 0.0
N399 N 0.77829 0.36016 0.37924 0.0
H400 H 0.88162 0.37418 0.3178 0.0
H401 H 0.82239 0.34024 0.32722 0.0
H402 H 0.75278 0.35556 0.39853 0.0
H403 H 0.77354 0.32948 0.36741 0.0
H404 H 0.94651 0.55635 0.3955 0.0
H405 H 0.97201 0.53588 0.36382 0.0
H406 H 0.90479 0.53191 0.44363 0.0
H407 H 0.84479 0.49935 0.4518 0.0
C408 C 0.16088 0.63083 0.39067 0.0
C409 C 0.14406 0.58323 0.38395 0.0
C410 C 0.16421 0.57575 0.44966 0.0
C411 C 0.18652 0.62439 0.45451 0.0
N412 N 0.21571 0.69902 0.42622 0.0
N413 N 0.13491 0.51101 0.40511 0.0
C414 C 0.18754 0.65222 0.42407 0.0
C415 C 0.14712 0.55574 0.41292 0.0
N416 N 0.1504 0.65542 0.36559 0.0
N417 N 0.15759 0.54859 0.48027 0.0
H418 H 0.1218 0.49516 0.37861 0.0
H419 H 0.14117 0.49082 0.42394 0.0
H420 H 0.16855 0.56184 0.5078 0.0
H421 H 0.13744 0.5128 0.47898 0.0
H422 H 0.15827 0.68924 0.37101 0.0
H423 H 0.1294 0.64056 0.34136 0.0
H424 H 0.22105 0.72027 0.40321 0.0
H425 H 0.23783 0.71616 0.44945 0.0
C426 C 0.62911 0.18045 0.56105 0.0
C427 C 0.58732 0.13919 0.55131 0.0
C428 C 0.56272 0.13525 0.61673 0.0
C429 C 0.59786 0.18175 0.62317 0.0
N430 N 0.66139 0.25136 0.59762 0.0
N431 N 0.50937 0.08169 0.56967 0.0
C432 C 0.63092 0.20513 0.59461 0.0
C433 C 0.55283 0.11722 0.57916 0.0
N434 N 0.66658 0.19639 0.53797 0.0
N435 N 0.53878 0.1083 0.64637 0.0
H436 H 0.49844 0.06947 0.54197 0.0
H437 H 0.48237 0.0679 0.58896 0.0
H438 H 0.54685 0.1198 0.67461 0.0
H439 H 0.51512 0.07317 0.643 0.0
H440 H 0.69898 0.22459 0.54538 0.0
H441 H 0.66643 0.17834 0.51354 0.0
H442 H 0.68305 0.27013 0.57564 0.0
H443 H 0.66139 0.27191 0.61997 0.0
C444 C 0.47652 0.59375 0.73389 0.0
C445 C 0.44291 0.55956 0.7088 0.0
C446 C 0.38247 0.53918 0.75581 0.0
C447 C 0.41682 0.57037 0.78222 0.0
N448 N 0.49788 0.62139 0.79904 0.0
N449 N 0.36647 0.49317 0.69826 0.0
C450 C 0.46431 0.59612 0.77202 0.0
C451 C 0.39663 0.53023 0.72051 0.0
N452 N 0.51955 0.62469 0.721 0.0
N453 N 0.33615 0.51984 0.76359 0.0
H454 H 0.37557 0.48517 0.67219 0.0
H455 H 0.33392 0.46791 0.70729 0.0
H456 H 0.32403 0.52656 0.78868 0.0
H457 H 0.30964 0.50082 0.74361 0.0
H458 H 0.54372 0.65348 0.73678 0.0
H459 H 0.52979 0.62364 0.69329 0.0
H460 H 0.53346 0.63702 0.7941 0.0
H461 H 0.49038 0.62333 0.82744 0.0
C462 C 0.87477 0.42074 0.89566 0.0
C463 C 0.90919 0.46418 0.88226 0.0
C464 C 0.90499 0.49963 0.94183 0.0
C465 C 0.86347 0.45854 0.95097 0.0
N466 N 0.80365 0.38171 0.93033 0.0
N467 N 0.9498 0.54721 0.89044 0.0
C468 C 0.84691 0.41926 0.92637 0.0
C469 C 0.92249 0.5044 0.90474 0.0
N470 N 0.86889 0.38092 0.87937 0.0
N471 N 0.92893 0.53341 0.96874 0.0
H472 H 0.96113 0.55265 0.86255 0.0
H473 H 0.95674 0.57724 0.90519 0.0
H474 H 0.92001 0.52961 -0.00272 0.0
H475 H 0.96111 0.56235 0.96359 0.0
H476 H 0.8466 0.34856 0.89027 0.0
H477 H 0.89012 0.38066 0.85786 0.0
H478 H 0.78934 0.3542 0.9108 0.0
H479 H 0.77975 0.38023 0.94996 0.0
C480 C 0.51528 0.91353 0.07974 0.0
C481 C 0.49081 0.91521 0.04701 0.0
C482 C 0.41639 0.86289 0.07564 0.0
C483 C 0.44051 0.86394 0.10959 0.0
N484 N 0.51234 0.8982 0.14696 0.0
N485 N 0.41865 0.90038 0.01673 0.0
C486 C 0.48988 0.89144 0.11256 0.0
C487 C 0.44146 0.89277 0.046 0.0
N488 N 0.56251 0.93175 0.0791 0.0
N489 N 0.3699 0.83182 0.07103 0.0
H490 H 0.43611 0.92252 -0.00537 0.0
H491 H 0.38294 0.88841 0.01633 0.0
H492 H 0.35057 0.80805 0.09162 0.0
H493 H 0.3516 0.82639 0.04539 0.0
H494 H 0.58149 0.9267 0.10051 0.0
H495 H 0.58239 0.94933 0.05589 0.0
H496 H 0.54763 0.92175 0.15141 0.0
H497 H 0.49509 0.88352 0.17194 0.0
C498 C 0.59944 0.48862 0.25381 0.0
C499 C 0.63067 0.518 0.22631 0.0
C500 C 0.69701 0.52471 0.26351 0.0
C501 C 0.66592 0.49716 0.29186 0.0
N502 N 0.58941 0.46368 0.31888 0.0
N503 N 0.70907 0.57226 0.20867 0.0
C504 C 0.61765 0.48235 0.28851 0.0
C505 C 0.67953 0.53883 0.23247 0.0
N506 N 0.55251 0.46482 0.24612 0.0
N507 N 0.74263 0.53538 0.26518 0.0
H508 H 0.69709 0.58351 0.18586 0.0
H509 H 0.74494 0.59176 0.21359 0.0
H510 H 0.75654 0.52492 0.28713 0.0
H511 H 0.76568 0.5511 0.24321 0.0
H512 H 0.52883 0.43875 0.26326 0.0
H513 H 0.53741 0.46839 0.22114 0.0
H514 H 0.55503 0.45674 0.31916 0.0
H515 H 0.60153 0.45948 0.34521 0.0
C516 C 0.50168 0.91795 0.34776 0.0
C517 C 0.47226 0.92494 0.37243 0.0
C518 C 0.40465 0.87551 0.33193 0.0
C519 C 0.43425 0.87177 0.30517 0.0
N520 N 0.51262 0.89825 0.28378 0.0
N521 N 0.39874 0.92197 0.38198 0.0
C522 C 0.48338 0.89545 0.31192 0.0
C523 C 0.42471 0.90759 0.36241 0.0
N524 N 0.5465 0.93163 0.35887 0.0
N525 N 0.35746 0.84668 0.32962 0.0
H526 H 0.41293 0.94689 0.40373 0.0
H527 H 0.36484 0.91309 0.37376 0.0
H528 H 0.34125 0.8202 0.30927 0.0
H529 H 0.33505 0.84549 0.35064 0.0
H530 H 0.56793 0.92286 0.34381 0.0
H531 H 0.56114 0.94912 0.38457 0.0
H532 H 0.54874 0.91872 0.28615 0.0
H533 H 0.50082 0.88384 0.25668 0.0
C534 C 0.5688 0.43119 0.52479 0.0
C535 C 0.58003 0.47525 0.53962 0.0
C536 C 0.6325 0.51021 0.487 0.0
C537 C 0.63023 0.46742 0.47845 0.0
N538 N 0.6003 0.3876 0.49544 0.0
N539 N 0.62886 0.55804 0.53707 0.0
C540 C 0.59911 0.42771 0.49871 0.0
C541 C 0.61344 0.5153 0.52126 0.0
N542 N 0.52943 0.39271 0.5359 0.0
N543 N 0.65098 0.54539 0.46188 0.0
H544 H 0.61722 0.56346 0.56291 0.0
H545 H 0.65654 0.5877 0.52611 0.0
H546 H 0.66129 0.54178 0.43481 0.0
H547 H 0.65011 0.57583 0.46605 0.0
H548 H 0.51808 0.36021 0.5237 0.0
H549 H 0.50563 0.39435 0.55407 0.0
H550 H 0.58062 0.35932 0.51238 0.0
H551 H 0.62467 0.38415 0.4795 0.0
C552 C 0.15355 0.63001 0.71659 0.0
C553 C 0.13161 0.58131 0.71739 0.0
C554 C 0.15674 0.57941 0.65265 0.0
C555 C 0.18299 0.62834 0.65358 0.0
N556 N 0.21286 0.7002 0.68864 0.0
N557 N 0.11697 0.50946 0.68872 0.0
C558 C 0.18307 0.65368 0.68615 0.0
C559 C 0.1344 0.55588 0.68609 0.0
N560 N 0.14556 0.65351 0.74476 0.0
N561 N 0.15138 0.55549 0.61945 0.0
H562 H 0.0992 0.49085 0.71236 0.0
H563 H 0.12291 0.48998 0.66866 0.0
H564 H 0.16669 0.57132 0.59417 0.0
H565 H 0.12851 0.52024 0.6161 0.0
H566 H 0.1568 0.68858 0.74384 0.0
H567 H 0.12388 0.63714 0.76745 0.0
H568 H 0.218 0.71982 0.71327 0.0
H569 H 0.23591 0.71861 0.66725 0.0
C570 C 0.55629 0.14276 0.87938 0.0
C571 C 0.58825 0.12625 0.8808 0.0
C572 C 0.61407 0.15438 0.81692 0.0
C573 C 0.58646 0.17601 0.81758 0.0
N574 N 0.53581 0.19612 0.85113 0.0
N575 N 0.65121 0.11999 0.8533 0.0
C576 C 0.55848 0.1714 0.84918 0.0
C577 C 0.61806 0.13286 0.85015 0.0
N578 N 0.52373 0.13076 0.90689 0.0
N579 N 0.63492 0.15275 0.78414 0.0
H580 H 0.65409 0.10264 0.87669 0.0
H581 H 0.67772 0.12912 0.83391 0.0
H582 H 0.63237 0.1675 0.75894 0.0
H583 H 0.65128 0.13325 0.78089 0.0
H584 H 0.49653 0.13793 0.90554 0.0
H585 H 0.52136 0.10984 0.92948 0.0
H586 H 0.51889 0.19798 0.87522 0.0
H587 H 0.53739 0.21827 0.82987 0.0
C588 C 0.47419 0.56204 0.02863 0.0
C589 C 0.49267 0.60067 0.054 0.0
C590 C 0.47013 0.64152 0.00869 0.0
C591 C 0.45459 0.60382 -0.01758 0.0
N592 N 0.46155 0.53811 0.96269 0.0
N593 N 0.52256 0.68247 0.0618 0.0
C594 C 0.4633 0.5674 -0.00919 0.0
C595 C 0.49553 0.64229 0.04186 0.0
N596 N 0.4637 0.51939 0.0408 0.0
N597 N 0.45838 0.67493 0.00386 0.0
H598 H 0.5429 0.6844 0.08546 0.0
H599 H 0.52867 0.71434 0.05231 0.0
H600 H 0.4377 0.67507 -0.01859 0.0
H601 H 0.46542 0.70026 0.02452 0.0
H602 H 0.44655 0.48996 0.0234 0.0
H603 H 0.46677 0.51225 0.06906 0.0
H604 H 0.47088 0.51303 0.96742 0.0
H605 H 0.45663 0.54283 0.9341 0.0
C606 C 0.91733 0.45289 0.18657 0.0
C607 C 0.91888 0.48243 0.21642 0.0
C608 C 0.86939 0.50303 0.17883 0.0
C609 C 0.87061 0.47601 0.14802 0.0
N610 N 0.90558 0.43501 0.1192 0.0
N611 N 0.90577 0.5436 0.238 0.0
C612 C 0.89754 0.45383 0.15086 0.0
C613 C 0.89786 0.51009 0.21159 0.0
N614 N 0.93284 0.42247 0.1927 0.0
N615 N 0.83937 0.51996 0.17771 0.0
H616 H 0.92708 0.55014 0.26209 0.0
H617 H 0.89498 0.5677 0.23417 0.0
H618 H 0.81706 0.51468 0.15459 0.0
H619 H 0.83345 0.53559 0.20106 0.0
H620 H 0.92761 0.39663 0.17317 0.0
H621 H 0.94732 0.42028 0.21856 0.0
H622 H 0.92884 0.42256 0.11903 0.0
H623 H 0.89286 0.43618 0.09219 0.0
loop_
_geom_bond_atom_site_label_1
_geom_bond_atom_site_label_2
_geom_bond_distance
_geom_bond_site_symmetry_2
_ccdc_geom_bond_type
H0 C6 0.930 . S
H1 C9 0.931 . S
H2 C11 0.931 . S
H3 C13 0.930 . S
H4 C15 0.930 . S
H5 C17 0.931 . S
C6 H0 0.930 . S
C6 C7 1.380 . S
C6 C8 1.394 . S
C7 C6 1.380 . S
C7 C11 1.382 . S
C8 C6 1.394 . S
C8 C9 1.400 . S
C9 H1 0.931 . S
C9 C8 1.400 . S
C9 C10 1.375 . S
C10 C9 1.375 . S
C10 C11 1.415 . S
C10 C12 1.501 1_455 S
C11 H2 0.931 . S
C11 C7 1.382 . S
C11 C10 1.415 . S
C12 C10 1.501 1_655 S
C12 C13 1.384 . S
C12 C17 1.408 . S
C13 H3 0.930 . S
C13 C12 1.384 . S
C13 C14 1.389 . S
C14 C13 1.389 . S
C14 C15 1.405 . S
C15 H4 0.930 . S
C15 C14 1.405 . S
C15 C16 1.364 . S
C16 C15 1.364 . S
C16 C17 1.400 . S
C17 H5 0.931 . S
C17 C12 1.408 . S
C17 C16 1.400 . S
H18 C24 0.930 . S
H19 C27 0.931 . S
H20 C29 0.931 . S
H21 C31 0.930 . S
H22 C33 0.930 . S
H23 C35 0.931 . S
C24 H18 0.930 . S
C24 C25 1.380 . S
C24 C26 1.394 . S
C25 C24 1.380 . S
C25 C29 1.382 . S
C26 C24 1.394 . S
C26 C27 1.400 . S
C27 H19 0.931 . S
C27 C26 1.400 . S
C27 C28 1.375 . S
C28 C27 1.375 . S
C28 C29 1.415 . S
C28 C30 1.501 1_545 S
C29 H20 0.931 . S
C29 C25 1.382 . S
C29 C28 1.415 . S
C30 C28 1.501 1_565 S
C30 C31 1.384 . S
C30 C35 1.408 . S
C31 H21 0.930 . S
C31 C30 1.384 . S
C31 C32 1.389 . S
C32 C31 1.389 . S
C32 C33 1.405 . S
C33 H22 0.930 . S
C33 C32 1.405 . S
C33 C34 1.364 . S
C34 C33 1.364 . S
C34 C35 1.400 . S
C35 H23 0.931 . S
C35 C30 1.408 . S
C35 C34 1.400 . S
H36 C42 0.930 . S
H37 C45 0.931 . S
H38 C47 0.931 . S
H39 C49 0.930 . S
H40 C51 0.930 . S
H41 C53 0.931 . S
C42 H36 0.930 . S
C42 C43 1.380 . S
C42 C44 1.394 . S
C43 C42 1.380 . S
C43 C47 1.382 . S
C44 C42 1.394 . S
C44 C45 1.400 . S
C45 H37 0.931 . S
C45 C44 1.400 . S
C45 C46 1.375 . S
C46 C45 1.375 . S
C46 C47 1.415 . S
C46 C48 1.501 . S
C47 H38 0.931 . S
C47 C43 1.382 . S
C47 C46 1.415 . S
C48 C46 1.501 . S
C48 C49 1.384 . S
C48 C53 1.408 . S
C49 H39 0.930 . S
C49 C48 1.384 . S
C49 C50 1.389 . S
C50 C49 1.389 . S
C50 C51 1.405 . S
C51 H40 0.930 . S
C51 C50 1.405 . S
C51 C52 1.364 . S
C52 C51 1.364 . S
C52 C53 1.400 . S
C53 H41 0.931 . S
C53 C48 1.408 . S
C53 C52 1.400 . S
H54 C60 0.930 . S
H55 C63 0.931 . S
H56 C65 0.931 . S
H57 C67 0.930 . S
H58 C69 0.930 . S
H59 C71 0.931 . S
C60 H54 0.930 . S
C60 C61 1.380 . S
C60 C62 1.394 . S
C61 C60 1.380 . S
C61 C65 1.382 . S
C62 C60 1.394 . S
C62 C63 1.400 . S
C63 H55 0.931 . S
C63 C62 1.400 . S
C63 C64 1.375 . S
C64 C63 1.375 . S
C64 C65 1.415 . S
C64 C66 1.501 1_455 S
C65 H56 0.931 . S
C65 C61 1.382 . S
C65 C64 1.415 . S
C66 C64 1.501 1_655 S
C66 C67 1.384 . S
C66 C71 1.408 . S
C67 H57 0.930 . S
C67 C66 1.384 . S
C67 C68 1.389 . S
C68 C67 1.389 . S
C68 C69 1.405 . S
C69 H58 0.930 . S
C69 C68 1.405 . S
C69 C70 1.364 . S
C70 C69 1.364 . S
C70 C71 1.400 . S
C71 H59 0.931 . S
C71 C66 1.408 . S
C71 C70 1.400 . S
H72 C78 0.930 . S
H73 C81 0.931 . S
H74 C83 0.931 . S
H75 C85 0.930 . S
H76 C87 0.930 . S
H77 C89 0.931 . S
C78 H72 0.930 . S
C78 C79 1.380 . S
C78 C80 1.394 1_554 S
C79 C78 1.380 . S
C79 C83 1.382 . S
C80 C78 1.394 1_556 S
C80 C81 1.400 . S
C81 H73 0.931 . S
C81 C80 1.400 . S
C81 C82 1.375 . S
C82 C81 1.375 . S
C82 C83 1.415 1_556 S
C82 C84 1.501 1_565 S
C83 H74 0.931 . S
C83 C79 1.382 . S
C83 C82 1.415 1_554 S
C84 C82 1.501 1_545 S
C84 C85 1.384 1_556 S
C84 C89 1.408 . S
C85 H75 0.930 . S
C85 C84 1.384 1_554 S
C85 C86 1.395 . S
C86 C85 1.395 . S
C86 C87 1.388 1_554 S
C87 H76 0.930 . S
C87 C86 1.388 1_556 S
C87 C88 1.364 . S
C88 C87 1.364 . S
C88 C89 1.400 . S
C89 H77 0.931 . S
C89 C84 1.408 . S
C89 C88 1.400 . S
H90 C96 0.930 . S
H91 C99 0.931 . S
H92 C101 0.931 . S
H93 C103 0.930 . S
H94 C105 0.930 . S
H95 C107 0.931 . S
C96 H90 0.930 . S
C96 C97 1.380 . S
C96 C98 1.394 . S
C97 C96 1.380 . S
C97 C101 1.382 . S
C98 C96 1.394 . S
C98 C99 1.400 . S
C99 H91 0.931 . S
C99 C98 1.400 . S
C99 C100 1.375 . S
C100 C99 1.375 . S
C100 C101 1.415 . S
C100 C102 1.501 . S
C101 H92 0.931 . S
C101 C97 1.382 . S
C101 C100 1.415 . S
C102 C100 1.501 . S
C102 C103 1.384 . S
C102 C107 1.408 . S
C103 H93 0.930 . S
C103 C102 1.384 . S
C103 C104 1.389 . S
C104 C103 1.389 . S
C104 C105 1.405 . S
C105 H94 0.930 . S
C105 C104 1.405 . S
C105 C106 1.364 . S
C106 C105 1.364 . S
C106 C107 1.400 . S
C107 H95 0.931 . S
C107 C102 1.408 . S
C107 C106 1.400 . S
Zn108 O111 2.031 . S
Zn108 O113 2.049 . S
Zn108 O118 2.067 . S
Zn109 O110 1.962 . S
Zn109 O112 1.986 . S
Zn109 O114 1.996 . S
Zn109 O117 1.943 . S
O110 Zn109 1.962 . S
O110 C115 1.254 . S
O111 Zn108 2.031 . S
O111 C115 1.269 . S
O112 Zn109 1.986 . S
O112 C119 1.262 . S
O113 Zn108 2.049 . S
O113 C121 1.260 . S
O114 Zn109 1.996 . S
O114 C121 1.257 . S
C115 O110 1.254 . S
C115 O111 1.269 . S
C116 O117 1.249 . S
C116 O118 1.270 . S
O117 Zn109 1.943 . S
O117 C116 1.249 . S
O118 Zn108 2.067 . S
O118 C116 1.270 . S
C119 O112 1.262 . S
C119 O120 1.232 . S
O120 C119 1.232 . S
C121 O113 1.260 . S
C121 O114 1.257 . S
Zn122 O125 2.031 . S
Zn122 O127 2.049 . S
Zn122 O132 2.067 . S
Zn123 O124 1.962 . S
Zn123 O126 1.986 . S
Zn123 O128 1.996 . S
Zn123 O131 1.943 . S
O124 Zn123 1.962 . S
O124 C129 1.254 . S
O125 Zn122 2.031 . S
O125 C129 1.269 . S
O126 Zn123 1.986 . S
O126 C133 1.262 . S
O127 Zn122 2.049 . S
O127 C135 1.260 . S
O128 Zn123 1.996 . S
O128 C135 1.257 . S
C129 O124 1.254 . S
C129 O125 1.269 . S
C130 O131 1.249 . S
C130 O132 1.270 . S
O131 Zn123 1.943 . S
O131 C130 1.249 . S
O132 Zn122 2.067 . S
O132 C130 1.270 . S
C133 O126 1.262 . S
C133 O134 1.232 . S
O134 C133 1.232 . S
C135 O127 1.260 . S
C135 O128 1.257 . S
Zn136 O139 2.031 . S
Zn136 O141 2.049 . S
Zn136 O146 2.067 . S
Zn137 O138 1.962 . S
Zn137 O140 1.986 . S
Zn137 O142 1.996 . S
Zn137 O145 1.943 . S
O138 Zn137 1.962 . S
O138 C143 1.254 . S
O139 Zn136 2.031 . S
O139 C143 1.269 . S
O140 Zn137 1.986 . S
O140 C147 1.262 . S
O141 Zn136 2.049 . S
O141 C149 1.260 . S
O142 Zn137 1.996 . S
O142 C149 1.257 . S
C143 O138 1.254 . S
C143 O139 1.269 . S
C144 O145 1.249 . S
C144 O146 1.270 . S
O145 Zn137 1.943 . S
O145 C144 1.249 . S
O146 Zn136 2.067 . S
O146 C144 1.270 . S
C147 O140 1.262 . S
C147 O148 1.232 . S
O148 C147 1.232 . S
C149 O141 1.260 . S
C149 O142 1.257 . S
Zn150 O153 2.031 . S
Zn150 O155 2.049 . S
Zn150 O160 2.067 . S
Zn151 O152 1.962 . S
Zn151 O154 1.986 . S
Zn151 O156 1.996 . S
Zn151 O159 1.943 . S
O152 Zn151 1.962 . S
O152 C157 1.254 . S
O153 Zn150 2.031 . S
O153 C157 1.269 . S
O154 Zn151 1.986 . S
O154 C161 1.262 . S
O155 Zn150 2.049 . S
O155 C163 1.260 . S
O156 Zn151 1.996 . S
O156 C163 1.257 . S
C157 O152 1.254 . S
C157 O153 1.269 . S
C158 O159 1.249 . S
C158 O160 1.270 . S
O159 Zn151 1.943 . S
O159 C158 1.249 . S
O160 Zn150 2.067 . S
O160 C158 1.270 . S
C161 O154 1.262 . S
C161 O162 1.232 . S
O162 C161 1.232 . S
C163 O155 1.260 . S
C163 O156 1.257 . S
Zn164 O167 2.031 . S
Zn164 O169 2.049 . S
Zn164 O174 2.067 . S
Zn165 O166 1.962 . S
Zn165 O168 1.986 . S
Zn165 O170 1.996 . S
Zn165 O173 1.943 . S
O166 Zn165 1.962 . S
O166 C171 1.254 . S
O167 Zn164 2.031 . S
O167 C171 1.269 . S
O168 Zn165 1.986 . S
O168 C175 1.262 . S
O169 Zn164 2.049 . S
O169 C177 1.260 . S
O170 Zn165 1.996 . S
O170 C177 1.257 . S
C171 O166 1.254 . S
C171 O167 1.269 . S
C172 O173 1.249 . S
C172 O174 1.270 . S
O173 Zn165 1.943 . S
O173 C172 1.249 . S
O174 Zn164 2.067 . S
O174 C172 1.270 . S
C175 O168 1.262 . S
C175 O176 1.232 . S
O176 C175 1.232 . S
C177 O169 1.260 . S
C177 O170 1.257 . S
Zn178 O181 2.031 . S
Zn178 O183 2.049 . S
Zn178 O188 2.067 . S
Zn179 O180 1.962 . S
Zn179 O182 1.986 . S
Zn179 O184 1.996 . S
Zn179 O187 1.943 . S
O180 Zn179 1.962 . S
O180 C185 1.254 . S
O181 Zn178 2.031 . S
O181 C185 1.269 . S
O182 Zn179 1.986 . S
O182 C189 1.262 . S
O183 Zn178 2.049 . S
O183 C191 1.260 . S
O184 Zn179 1.996 . S
O184 C191 1.257 . S
C185 O180 1.254 . S
C185 O181 1.269 . S
C186 O187 1.249 . S
C186 O188 1.270 . S
O187 Zn179 1.943 . S
O187 C186 1.249 . S
O188 Zn178 2.067 . S
O188 C186 1.270 . S
C189 O182 1.262 . S
C189 O190 1.232 . S
O190 C189 1.232 . S
C191 O183 1.260 . S
C191 O184 1.257 . S
C192 C193 1.363 . S
C192 C198 1.379 . S
C192 N200 1.356 . S
C193 C192 1.363 . S
C193 C199 1.363 . S
C194 C195 1.363 . S
C194 C199 1.379 . S
C194 N201 1.356 . S
C195 C194 1.363 . S
C195 C198 1.363 . S
N196 C198 1.356 . S
N196 H208 0.984 . S
N196 H209 0.985 . S
N197 C199 1.356 . S
N197 H202 0.984 . S
N197 H203 0.985 . S
C198 C192 1.379 . S
C198 C195 1.363 . S
C198 N196 1.356 . S
C199 C193 1.363 . S
C199 C194 1.379 . S
C199 N197 1.356 . S
N200 C192 1.356 . S
N200 H206 0.984 . S
N200 H207 0.984 . S
N201 C194 1.356 . S
N201 H204 0.984 . S
N201 H205 0.985 . S
H202 N197 0.984 . S
H203 N197 0.985 . S
H204 N201 0.984 . S
H205 N201 0.985 . S
H206 N200 0.984 . S
H207 N200 0.984 . S
H208 N196 0.984 . S
H209 N196 0.985 . S
C210 C211 1.363 . S
C210 C216 1.379 . S
C210 N218 1.356 . S
C211 C210 1.363 . S
C211 C217 1.363 . S
C212 C213 1.363 . S
C212 C217 1.379 . S
C212 N219 1.356 . S
C213 C212 1.363 . S
C213 C216 1.363 . S
N214 C216 1.356 . S
N214 H226 0.984 . S
N214 H227 0.985 . S
N215 C217 1.356 . S
N215 H220 0.984 . S
N215 H221 0.985 . S
C216 C210 1.379 . S
C216 C213 1.363 . S
C216 N214 1.356 . S
C217 C211 1.363 . S
C217 C212 1.379 . S
C217 N215 1.356 . S
N218 C210 1.356 . S
N218 H224 0.984 . S
N218 H225 0.984 . S
N219 C212 1.356 . S
N219 H222 0.984 . S
N219 H223 0.985 . S
H220 N215 0.984 . S
H221 N215 0.985 . S
H222 N219 0.984 . S
H223 N219 0.985 . S
H224 N218 0.984 . S
H225 N218 0.984 . S
H226 N214 0.984 . S
H227 N214 0.985 . S
C228 C229 1.363 . S
C228 C234 1.379 . S
C228 N236 1.356 . S
C229 C228 1.363 . S
C229 C235 1.363 . S
C230 C231 1.363 . S
C230 C235 1.379 . S
C230 N237 1.356 . S
C231 C230 1.363 . S
C231 C234 1.363 . S
N232 C234 1.356 . S
N232 H244 0.984 . S
N232 H245 0.985 . S
N233 C235 1.356 . S
N233 H238 0.984 . S
N233 H239 0.985 . S
C234 C228 1.379 . S
C234 C231 1.363 . S
C234 N232 1.356 . S
C235 C229 1.363 . S
C235 C230 1.379 . S
C235 N233 1.356 . S
N236 C228 1.356 . S
N236 H242 0.984 . S
N236 H243 0.984 . S
N237 C230 1.356 . S
N237 H240 0.984 . S
N237 H241 0.985 . S
H238 N233 0.984 . S
H239 N233 0.985 . S
H240 N237 0.984 . S
H241 N237 0.985 . S
H242 N236 0.984 . S
H243 N236 0.984 . S
H244 N232 0.984 . S
H245 N232 0.985 . S
C246 C247 1.363 . S
C246 C252 1.379 . S
C246 N254 1.356 . S
C247 C246 1.363 . S
C247 C253 1.363 . S
C248 C249 1.363 . S
C248 C253 1.379 . S
C248 N255 1.356 . S
C249 C248 1.363 . S
C249 C252 1.363 . S
N250 C252 1.356 . S
N250 H262 0.984 . S
N250 H263 0.985 . S
N251 C253 1.356 . S
N251 H256 0.984 . S
N251 H257 0.985 . S
C252 C246 1.379 . S
C252 C249 1.363 . S
C252 N250 1.356 . S
C253 C247 1.363 . S
C253 C248 1.379 . S
C253 N251 1.356 . S
N254 C246 1.356 . S
N254 H260 0.984 . S
N254 H261 0.984 . S
N255 C248 1.356 . S
N255 H258 0.984 . S
N255 H259 0.985 . S
H256 N251 0.984 . S
H257 N251 0.985 . S
H258 N255 0.984 . S
H259 N255 0.985 . S
H260 N254 0.984 . S
H261 N254 0.984 . S
H262 N250 0.984 . S
H263 N250 0.985 . S
C264 C265 1.363 . S
C264 C270 1.379 . S
C264 N272 1.356 1_556 S
C265 C264 1.363 . S
C265 C271 1.363 . S
C266 C267 1.363 . S
C266 C271 1.379 . S
C266 N273 1.356 . S
C267 C266 1.363 . S
C267 C270 1.363 . S
N268 C270 1.356 . S
N268 H280 0.984 1_556 S
N268 H281 0.985 . S
N269 C271 1.356 . S
N269 H274 0.984 . S
N269 H275 0.985 . S
C270 C264 1.379 . S
C270 C267 1.363 . S
C270 N268 1.356 . S
C271 C265 1.363 . S
C271 C266 1.379 . S
C271 N269 1.356 . S
N272 C264 1.356 1_554 S
N272 H278 0.984 . S
N272 H279 0.984 . S
N273 C266 1.356 . S
N273 H276 0.984 . S
N273 H277 0.985 . S
H274 N269 0.984 . S
H275 N269 0.985 . S
H276 N273 0.984 . S
H277 N273 0.985 . S
H278 N272 0.984 . S
H279 N272 0.984 . S
H280 N268 0.984 1_554 S
H281 N268 0.985 . S
C282 C283 1.363 . S
C282 C288 1.379 . S
C282 N290 1.356 . S
C283 C282 1.363 . S
C283 C289 1.363 . S
C284 C285 1.363 . S
C284 C289 1.379 . S
C284 N291 1.356 . S
C285 C284 1.363 . S
C285 C288 1.363 . S
N286 C288 1.356 . S
N286 H298 0.984 . S
N286 H299 0.985 . S
N287 C289 1.356 . S
N287 H292 0.984 . S
N287 H293 0.985 . S
C288 C282 1.379 . S
C288 C285 1.363 . S
C288 N286 1.356 . S
C289 C283 1.363 . S
C289 C284 1.379 . S
C289 N287 1.356 . S
N290 C282 1.356 . S
N290 H296 0.984 . S
N290 H297 0.984 . S
N291 C284 1.356 . S
N291 H294 0.984 . S
N291 H295 0.985 . S
H292 N287 0.984 . S
H293 N287 0.985 . S
H294 N291 0.984 . S
H295 N291 0.985 . S
H296 N290 0.984 . S
H297 N290 0.984 . S
H298 N286 0.984 . S
H299 N286 0.985 . S
C300 C301 1.363 . S
C300 C306 1.379 . S
C300 N308 1.356 . S
C301 C300 1.363 . S
C301 C307 1.363 . S
C302 C303 1.363 . S
C302 C307 1.379 . S
C302 N309 1.356 . S
C303 C302 1.363 . S
C303 C306 1.363 . S
N304 C306 1.356 . S
N304 H316 0.984 . S
N304 H317 0.985 . S
N305 C307 1.356 . S
N305 H310 0.984 . S
N305 H311 0.985 . S
C306 C300 1.379 . S
C306 C303 1.363 . S
C306 N304 1.356 . S
C307 C301 1.363 . S
C307 C302 1.379 . S
C307 N305 1.356 . S
N308 C300 1.356 . S
N308 H314 0.984 . S
N308 H315 0.984 . S
N309 C302 1.356 . S
N309 H312 0.984 . S
N309 H313 0.985 . S
H310 N305 0.984 . S
H311 N305 0.985 . S
H312 N309 0.984 . S
H313 N309 0.985 . S
H314 N308 0.984 . S
H315 N308 0.984 . S
H316 N304 0.984 . S
H317 N304 0.985 . S
C318 C319 1.363 . S
C318 C324 1.379 . S
C318 N326 1.356 . S
C319 C318 1.363 . S
C319 C325 1.363 . S
C320 C321 1.363 . S
C320 C325 1.379 . S
C320 N327 1.356 . S
C321 C320 1.363 . S
C321 C324 1.363 . S
N322 C324 1.356 . S
N322 H334 0.984 . S
N322 H335 0.985 . S
N323 C325 1.356 . S
N323 H328 0.984 . S
N323 H329 0.985 . S
C324 C318 1.379 . S
C324 C321 1.363 . S
C324 N322 1.356 . S
C325 C319 1.363 . S
C325 C320 1.379 . S
C325 N323 1.356 . S
N326 C318 1.356 . S
N326 H332 0.984 . S
N326 H333 0.984 . S
N327 C320 1.356 . S
N327 H330 0.984 . S
N327 H331 0.985 . S
H328 N323 0.984 . S
H329 N323 0.985 . S
H330 N327 0.984 . S
H331 N327 0.985 . S
H332 N326 0.984 . S
H333 N326 0.984 . S
H334 N322 0.984 . S
H335 N322 0.985 . S
C336 C337 1.363 . S
C336 C342 1.379 . S
C336 N344 1.356 . S
C337 C336 1.363 . S
C337 C343 1.363 . S
C338 C339 1.363 . S
C338 C343 1.379 . S
C338 N345 1.356 . S
C339 C338 1.363 . S
C339 C342 1.363 . S
N340 C342 1.356 . S
N340 H352 0.984 . S
N340 H353 0.985 . S
N341 C343 1.356 . S
N341 H346 0.984 . S
N341 H347 0.985 . S
C342 C336 1.379 . S
C342 C339 1.363 . S
C342 N340 1.356 . S
C343 C337 1.363 . S
C343 C338 1.379 . S
C343 N341 1.356 . S
N344 C336 1.356 . S
N344 H350 0.984 . S
N344 H351 0.984 . S
N345 C338 1.356 . S
N345 H348 0.984 . S
N345 H349 0.985 . S
H346 N341 0.984 . S
H347 N341 0.985 . S
H348 N345 0.984 . S
H349 N345 0.985 . S
H350 N344 0.984 . S
H351 N344 0.984 . S
H352 N340 0.984 . S
H353 N340 0.985 . S
C354 C355 1.363 . S
C354 C360 1.379 . S
C354 N362 1.356 . S
C355 C354 1.363 . S
C355 C361 1.363 . S
C356 C357 1.363 . S
C356 C361 1.379 . S
C356 N363 1.356 . S
C357 C356 1.363 . S
C357 C360 1.363 . S
N358 C360 1.356 . S
N358 H370 0.984 . S
N358 H371 0.985 . S
N359 C361 1.356 1_556 S
N359 H364 0.984 . S
N359 H365 0.985 . S
C360 C354 1.379 . S
C360 C357 1.363 . S
C360 N358 1.356 . S
C361 C355 1.363 . S
C361 C356 1.379 . S
C361 N359 1.356 1_554 S
N362 C354 1.356 . S
N362 H368 0.984 . S
N362 H369 0.984 . S
N363 C356 1.356 . S
N363 H366 0.984 . S
N363 H367 0.985 1_554 S
H364 N359 0.984 . S
H365 N359 0.985 . S
H366 N363 0.984 . S
H367 N363 0.985 1_556 S
H368 N362 0.984 . S
H369 N362 0.984 . S
H370 N358 0.984 . S
H371 N358 0.985 . S
C372 C373 1.363 . S
C372 C378 1.379 . S
C372 N380 1.356 . S
C373 C372 1.363 . S
C373 C379 1.363 . S
C374 C375 1.363 . S
C374 C379 1.379 . S
C374 N381 1.356 . S
C375 C374 1.363 . S
C375 C378 1.363 . S
N376 C378 1.356 . S
N376 H388 0.984 . S
N376 H389 0.985 . S
N377 C379 1.356 . S
N377 H382 0.984 . S
N377 H383 0.985 . S
C378 C372 1.379 . S
C378 C375 1.363 . S
C378 N376 1.356 . S
C379 C373 1.363 . S
C379 C374 1.379 . S
C379 N377 1.356 . S
N380 C372 1.356 . S
N380 H386 0.984 . S
N380 H387 0.984 . S
N381 C374 1.356 . S
N381 H384 0.984 . S
N381 H385 0.985 . S
H382 N377 0.984 . S
H383 N377 0.985 . S
H384 N381 0.984 . S
H385 N381 0.985 . S
H386 N380 0.984 . S
H387 N380 0.984 . S
H388 N376 0.984 . S
H389 N376 0.985 . S
C390 C391 1.363 . S
C390 C396 1.379 . S
C390 N398 1.356 . S
C391 C390 1.363 . S
C391 C397 1.363 . S
C392 C393 1.363 . S
C392 C397 1.379 . S
C392 N399 1.356 . S
C393 C392 1.363 . S
C393 C396 1.363 . S
N394 C396 1.356 . S
N394 H406 0.984 . S
N394 H407 0.985 . S
N395 C397 1.356 . S
N395 H400 0.984 . S
N395 H401 0.985 . S
C396 C390 1.379 . S
C396 C393 1.363 . S
C396 N394 1.356 . S
C397 C391 1.363 . S
C397 C392 1.379 . S
C397 N395 1.356 . S
N398 C390 1.356 . S
N398 H404 0.984 . S
N398 H405 0.984 . S
N399 C392 1.356 . S
N399 H402 0.984 . S
N399 H403 0.985 . S
H400 N395 0.984 . S
H401 N395 0.985 . S
H402 N399 0.984 . S
H403 N399 0.985 . S
H404 N398 0.984 . S
H405 N398 0.984 . S
H406 N394 0.984 . S
H407 N394 0.985 . S
C408 C409 1.363 . S
C408 C414 1.379 . S
C408 N416 1.356 . S
C409 C408 1.363 . S
C409 C415 1.363 . S
C410 C411 1.363 . S
C410 C415 1.379 . S
C410 N417 1.356 . S
C411 C410 1.363 . S
C411 C414 1.363 . S
N412 C414 1.356 . S
N412 H424 0.984 . S
N412 H425 0.985 . S
N413 C415 1.356 . S
N413 H418 0.984 . S
N413 H419 0.985 . S
C414 C408 1.379 . S
C414 C411 1.363 . S
C414 N412 1.356 . S
C415 C409 1.363 . S
C415 C410 1.379 . S
C415 N413 1.356 . S
N416 C408 1.356 . S
N416 H422 0.984 . S
N416 H423 0.984 . S
N417 C410 1.356 . S
N417 H420 0.984 . S
N417 H421 0.985 . S
H418 N413 0.984 . S
H419 N413 0.985 . S
H420 N417 0.984 . S
H421 N417 0.985 . S
H422 N416 0.984 . S
H423 N416 0.984 . S
H424 N412 0.984 . S
H425 N412 0.985 . S
C426 C427 1.363 . S
C426 C432 1.379 . S
C426 N434 1.356 . S
C427 C426 1.363 . S
C427 C433 1.363 . S
C428 C429 1.363 . S
C428 C433 1.379 . S
C428 N435 1.356 . S
C429 C428 1.363 . S
C429 C432 1.363 . S
N430 C432 1.356 . S
N430 H442 0.984 . S
N430 H443 0.985 . S
N431 C433 1.356 . S
N431 H436 0.984 . S
N431 H437 0.985 . S
C432 C426 1.379 . S
C432 C429 1.363 . S
C432 N430 1.356 . S
C433 C427 1.363 . S
C433 C428 1.379 . S
C433 N431 1.356 . S
N434 C426 1.356 . S
N434 H440 0.984 . S
N434 H441 0.984 . S
N435 C428 1.356 . S
N435 H438 0.984 . S
N435 H439 0.985 . S
H436 N431 0.984 . S
H437 N431 0.985 . S
H438 N435 0.984 . S
H439 N435 0.985 . S
H440 N434 0.984 . S
H441 N434 0.984 . S
H442 N430 0.984 . S
H443 N430 0.985 . S
C444 C445 1.363 . S
C444 C450 1.379 . S
C444 N452 1.356 . S
C445 C444 1.363 . S
C445 C451 1.363 . S
C446 C447 1.363 . S
C446 C451 1.379 . S
C446 N453 1.356 . S
C447 C446 1.363 . S
C447 C450 1.363 . S
N448 C450 1.356 . S
N448 H460 0.984 . S
N448 H461 0.985 . S
N449 C451 1.356 . S
N449 H454 0.984 . S
N449 H455 0.985 . S
C450 C444 1.379 . S
C450 C447 1.363 . S
C450 N448 1.356 . S
C451 C445 1.363 . S
C451 C446 1.379 . S
C451 N449 1.356 . S
N452 C444 1.356 . S
N452 H458 0.984 . S
N452 H459 0.984 . S
N453 C446 1.356 . S
N453 H456 0.984 . S
N453 H457 0.985 . S
H454 N449 0.984 . S
H455 N449 0.985 . S
H456 N453 0.984 . S
H457 N453 0.985 . S
H458 N452 0.984 . S
H459 N452 0.984 . S
H460 N448 0.984 . S
H461 N448 0.985 . S
C462 C463 1.363 . S
C462 C468 1.379 . S
C462 N470 1.356 . S
C463 C462 1.363 . S
C463 C469 1.363 . S
C464 C465 1.363 . S
C464 C469 1.379 . S
C464 N471 1.356 1_556 S
C465 C464 1.363 . S
C465 C468 1.363 . S
N466 C468 1.356 . S
N466 H478 0.984 . S
N466 H479 0.985 . S
N467 C469 1.356 . S
N467 H472 0.984 . S
N467 H473 0.985 . S
C468 C462 1.379 . S
C468 C465 1.363 . S
C468 N466 1.356 . S
C469 C463 1.363 . S
C469 C464 1.379 . S
C469 N467 1.356 . S
N470 C462 1.356 . S
N470 H476 0.984 . S
N470 H477 0.984 . S
N471 C464 1.356 1_554 S
N471 H474 0.984 . S
N471 H475 0.985 . S
H472 N467 0.984 . S
H473 N467 0.985 . S
H474 N471 0.984 . S
H475 N471 0.985 . S
H476 N470 0.984 . S
H477 N470 0.984 . S
H478 N466 0.984 . S
H479 N466 0.985 . S
C480 C481 1.363 . S
C480 C486 1.379 . S
C480 N488 1.356 . S
C481 C480 1.363 . S
C481 C487 1.363 . S
C482 C483 1.363 . S
C482 C487 1.379 . S
C482 N489 1.356 . S
C483 C482 1.363 . S
C483 C486 1.363 . S
N484 C486 1.356 . S
N484 H496 0.984 . S
N484 H497 0.985 . S
N485 C487 1.356 . S
N485 H490 0.984 . S
N485 H491 0.985 . S
C486 C480 1.379 . S
C486 C483 1.363 . S
C486 N484 1.356 . S
C487 C481 1.363 . S
C487 C482 1.379 . S
C487 N485 1.356 . S
N488 C480 1.356 . S
N488 H494 0.984 . S
N488 H495 0.984 . S
N489 C482 1.356 . S
N489 H492 0.984 . S
N489 H493 0.985 . S
H490 N485 0.984 . S
H491 N485 0.985 . S
H492 N489 0.984 . S
H493 N489 0.985 . S
H494 N488 0.984 . S
H495 N488 0.984 . S
H496 N484 0.984 . S
H497 N484 0.985 . S
C498 C499 1.363 . S
C498 C504 1.379 . S
C498 N506 1.356 . S
C499 C498 1.363 . S
C499 C505 1.363 . S
C500 C501 1.363 . S
C500 C505 1.379 . S
C500 N507 1.356 . S
C501 C500 1.363 . S
C501 C504 1.363 . S
N502 C504 1.356 . S
N502 H514 0.984 . S
N502 H515 0.985 . S
N503 C505 1.356 . S
N503 H508 0.984 . S
N503 H509 0.985 . S
C504 C498 1.379 . S
C504 C501 1.363 . S
C504 N502 1.356 . S
C505 C499 1.363 . S
C505 C500 1.379 . S
C505 N503 1.356 . S
N506 C498 1.356 . S
N506 H512 0.984 . S
N506 H513 0.984 . S
N507 C500 1.356 . S
N507 H510 0.984 . S
N507 H511 0.985 . S
H508 N503 0.984 . S
H509 N503 0.985 . S
H510 N507 0.984 . S
H511 N507 0.985 . S
H512 N506 0.984 . S
H513 N506 0.984 . S
H514 N502 0.984 . S
H515 N502 0.985 . S
C516 C517 1.363 . S
C516 C522 1.379 . S
C516 N524 1.356 . S
C517 C516 1.363 . S
C517 C523 1.363 . S
C518 C519 1.363 . S
C518 C523 1.379 . S
C518 N525 1.356 . S
C519 C518 1.363 . S
C519 C522 1.363 . S
N520 C522 1.356 . S
N520 H532 0.984 . S
N520 H533 0.985 . S
N521 C523 1.356 . S
N521 H526 0.984 . S
N521 H527 0.985 . S
C522 C516 1.379 . S
C522 C519 1.363 . S
C522 N520 1.356 . S
C523 C517 1.363 . S
C523 C518 1.379 . S
C523 N521 1.356 . S
N524 C516 1.356 . S
N524 H530 0.984 . S
N524 H531 0.984 . S
N525 C518 1.356 . S
N525 H528 0.984 . S
N525 H529 0.985 . S
H526 N521 0.984 . S
H527 N521 0.985 . S
H528 N525 0.984 . S
H529 N525 0.985 . S
H530 N524 0.984 . S
H531 N524 0.984 . S
H532 N520 0.984 . S
H533 N520 0.985 . S
C534 C535 1.363 . S
C534 C540 1.379 . S
C534 N542 1.356 . S
C535 C534 1.363 . S
C535 C541 1.363 . S
C536 C537 1.363 . S
C536 C541 1.379 . S
C536 N543 1.356 . S
C537 C536 1.363 . S
C537 C540 1.363 . S
N538 C540 1.356 . S
N538 H550 0.984 . S
N538 H551 0.985 . S
N539 C541 1.356 . S
N539 H544 0.984 . S
N539 H545 0.985 . S
C540 C534 1.379 . S
C540 C537 1.363 . S
C540 N538 1.356 . S
C541 C535 1.363 . S
C541 C536 1.379 . S
C541 N539 1.356 . S
N542 C534 1.356 . S
N542 H548 0.984 . S
N542 H549 0.984 . S
N543 C536 1.356 . S
N543 H546 0.984 . S
N543 H547 0.985 . S
H544 N539 0.984 . S
H545 N539 0.985 . S
H546 N543 0.984 . S
H547 N543 0.985 . S
H548 N542 0.984 . S
H549 N542 0.984 . S
H550 N538 0.984 . S
H551 N538 0.985 . S
C552 C553 1.363 . S
C552 C558 1.379 . S
C552 N560 1.356 . S
C553 C552 1.363 . S
C553 C559 1.363 . S
C554 C555 1.363 . S
C554 C559 1.379 . S
C554 N561 1.356 . S
C555 C554 1.363 . S
C555 C558 1.363 . S
N556 C558 1.356 . S
N556 H568 0.984 . S
N556 H569 0.985 . S
N557 C559 1.356 . S
N557 H562 0.984 . S
N557 H563 0.985 . S
C558 C552 1.379 . S
C558 C555 1.363 . S
C558 N556 1.356 . S
C559 C553 1.363 . S
C559 C554 1.379 . S
C559 N557 1.356 . S
N560 C552 1.356 . S
N560 H566 0.984 . S
N560 H567 0.984 . S
N561 C554 1.356 . S
N561 H564 0.984 . S
N561 H565 0.985 . S
H562 N557 0.984 . S
H563 N557 0.985 . S
H564 N561 0.984 . S
H565 N561 0.985 . S
H566 N560 0.984 . S
H567 N560 0.984 . S
H568 N556 0.984 . S
H569 N556 0.985 . S
C570 C571 1.363 . S
C570 C576 1.379 . S
C570 N578 1.356 . S
C571 C570 1.363 . S
C571 C577 1.363 . S
C572 C573 1.363 . S
C572 C577 1.379 . S
C572 N579 1.356 . S
C573 C572 1.363 . S
C573 C576 1.363 . S
N574 C576 1.356 . S
N574 H586 0.984 . S
N574 H587 0.985 . S
N575 C577 1.356 . S
N575 H580 0.984 . S
N575 H581 0.985 . S
C576 C570 1.379 . S
C576 C573 1.363 . S
C576 N574 1.356 . S
C577 C571 1.363 . S
C577 C572 1.379 . S
C577 N575 1.356 . S
N578 C570 1.356 . S
N578 H584 0.984 . S
N578 H585 0.984 . S
N579 C572 1.356 . S
N579 H582 0.984 . S
N579 H583 0.985 . S
H580 N575 0.984 . S
H581 N575 0.985 . S
H582 N579 0.984 . S
H583 N579 0.985 . S
H584 N578 0.984 . S
H585 N578 0.984 . S
H586 N574 0.984 . S
H587 N574 0.985 . S
C588 C589 1.363 . S
C588 C594 1.399 . S
C588 N596 1.356 . S
C589 C588 1.363 . S
C589 C595 1.363 . S
C590 C591 1.363 . S
C590 C595 1.379 . S
C590 N597 1.356 . S
C591 C590 1.363 . S
C591 C594 1.366 . S
N592 C594 1.331 1_556 S
N592 H604 0.984 . S
N592 H605 0.985 . S
N593 C595 1.356 . S
N593 H598 0.984 . S
N593 H599 0.985 . S
C594 C588 1.399 . S
C594 C591 1.366 . S
C594 N592 1.331 1_554 S
C595 C589 1.363 . S
C595 C590 1.379 . S
C595 N593 1.356 . S
N596 C588 1.356 . S
N596 H602 0.984 . S
N596 H603 0.984 . S
N597 C590 1.356 . S
N597 H600 0.984 . S
N597 H601 0.985 . S
H598 N593 0.984 . S
H599 N593 0.985 . S
H600 N597 0.984 . S
H601 N597 0.985 . S
H602 N596 0.984 . S
H603 N596 0.984 . S
H604 N592 0.984 . S
H605 N592 0.985 . S
C606 C607 1.363 . S
C606 C612 1.379 . S
C606 N614 1.356 . S
C607 C606 1.363 . S
C607 C613 1.363 . S
C608 C609 1.363 . S
C608 C613 1.379 . S
C608 N615 1.356 . S
C609 C608 1.363 . S
C609 C612 1.363 . S
N610 C612 1.356 . S
N610 H622 0.984 . S
N610 H623 0.985 . S
N611 C613 1.356 . S
N611 H616 0.984 . S
N611 H617 0.985 . S
C612 C606 1.379 . S
C612 C609 1.363 . S
C612 N610 1.356 . S
C613 C607 1.363 . S
C613 C608 1.379 . S
C613 N611 1.356 . S
N614 C606 1.356 . S
N614 H620 0.984 . S
N614 H621 0.984 . S
N615 C608 1.356 . S
N615 H618 0.984 . S
N615 H619 0.985 . S
H616 N611 0.984 . S
H617 N611 0.985 . S
H618 N615 0.984 . S
H619 N615 0.985 . S
H620 N614 0.984 . S
H621 N614 0.984 . S
H622 N610 0.984 . S
H623 N610 0.985 . S
C195 C185 1.556 . S
C193 C8 1.517 . S
C211 C26 1.465 . S
C213 C119 1.480 . S
C229 C50 1.421 . S
C231 C133 1.436 . S
C247 C68 1.447 . S
C249 C147 1.470 . S
C267 C161 1.486 . S
C265 C80 1.475 . S
C283 C104 1.481 . S
C285 C171 1.524 . S
C301 C32 1.521 . S
C303 C129 1.564 . S
C319 C44 1.559 . S
C321 C143 1.611 . S
C337 C62 1.510 . S
C339 C157 1.559 . S
C357 C175 1.479 . S
C355 C86 1.469 . S
C375 C189 1.508 . S
C373 C98 1.485 . S
C393 C115 1.545 . S
C391 C14 1.504 . S
C409 C7 1.466 . S
C411 C130 1.449 . S
C427 C25 1.519 . S
C429 C144 1.508 . S
C447 C158 1.509 . S
C445 C52 1.525 . S
C463 C70 1.449 . S
C465 C177 1.432 1_556 S
C483 C191 1.408 . S
C481 C79 1.429 . S
C501 C116 1.436 . S
C499 C106 1.455 . S
C519 C186 1.435 . S
C517 C34 1.454 . S
C535 C43 1.376 . S
C537 C121 1.369 . S
C555 C135 1.384 . S
C553 C61 1.386 . S
C571 C88 1.436 . S
C573 C149 1.418 . S
C589 C97 1.444 . S
C591 C163 1.429 1_554 S
C607 C16 1.475 . S
C609 C172 1.451 . S
