# Generated by pormake.
# Topology nom, (4,4)-cn, num edge types: 1
# Building blocks:
#     Node 0, Type 0, BuildingBlock: NAHDIM_clean_linker_0, # of connection points: 4
#     Node 1, Type 0, BuildingBlock: NAHDIM_clean_linker_0, # of connection points: 4
#     Node 2, Type 0, BuildingBlock: NAHDIM_clean_linker_0, # of connection points: 4
#     Node 3, Type 0, BuildingBlock: NAHDIM_clean_linker_0, # of connection points: 4
#     Node 4, Type 0, BuildingBlock: NAHDIM_clean_linker_0, # of connection points: 4
#     Node 5, Type 0, BuildingBlock: NAHDIM_clean_linker_0, # of connection points: 4
#     Node 6, Type 1, BuildingBlock: KUFVIS_clean_sbu_0, # of connection points: 4
#     Node 7, Type 1, BuildingBlock: KUFVIS_clean_sbu_0, # of connection points: 4
#     Node 8, Type 1, BuildingBlock: KUFVIS_clean_sbu_0, # of connection points: 4
#     Node 9, Type 1, BuildingBlock: KUFVIS_clean_sbu_0, # of connection points: 4
#     Node 10, Type 1, BuildingBlock: KUFVIS_clean_sbu_0, # of connection points: 4
#     Node 11, Type 1, BuildingBlock: KUFVIS_clean_sbu_0, # of connection points: 4
#     Edge 12, Type (0, 1), BuildingBlock: OJICUG_clean_linker_0, # of connection points: 2
#     Edge 13, Type (0, 1), BuildingBlock: OJICUG_clean_linker_0, # of connection points: 2
#     Edge 14, Type (0, 1), BuildingBlock: OJICUG_clean_linker_0, # of connection points: 2
#     Edge 15, Type (0, 1), BuildingBlock: OJICUG_clean_linker_0, # of connection points: 2
#     Edge 16, Type (0, 1), BuildingBlock: OJICUG_clean_linker_0, # of connection points: 2
#     Edge 17, Type (0, 1), BuildingBlock: OJICUG_clean_linker_0, # of connection points: 2
#     Edge 18, Type (0, 1), BuildingBlock: OJICUG_clean_linker_0, # of connection points: 2
#     Edge 19, Type (0, 1), BuildingBlock: OJICUG_clean_linker_0, # of connection points: 2
#     Edge 20, Type (0, 1), BuildingBlock: OJICUG_clean_linker_0, # of connection points: 2
#     Edge 21, Type (0, 1), BuildingBlock: OJICUG_clean_linker_0, # of connection points: 2
#     Edge 22, Type (0, 1), BuildingBlock: OJICUG_clean_linker_0, # of connection points: 2
#     Edge 23, Type (0, 1), BuildingBlock: OJICUG_clean_linker_0, # of connection points: 2
#     Edge 24, Type (0, 1), BuildingBlock: OJICUG_clean_linker_0, # of connection points: 2
#     Edge 25, Type (0, 1), BuildingBlock: OJICUG_clean_linker_0, # of connection points: 2
#     Edge 26, Type (0, 1), BuildingBlock: OJICUG_clean_linker_0, # of connection points: 2
#     Edge 27, Type (0, 1), BuildingBlock: OJICUG_clean_linker_0, # of connection points: 2
#     Edge 28, Type (0, 1), BuildingBlock: OJICUG_clean_linker_0, # of connection points: 2
#     Edge 29, Type (0, 1), BuildingBlock: OJICUG_clean_linker_0, # of connection points: 2
#     Edge 30, Type (0, 1), BuildingBlock: OJICUG_clean_linker_0, # of connection points: 2
#     Edge 31, Type (0, 1), BuildingBlock: OJICUG_clean_linker_0, # of connection points: 2
#     Edge 32, Type (0, 1), BuildingBlock: OJICUG_clean_linker_0, # of connection points: 2
#     Edge 33, Type (0, 1), BuildingBlock: OJICUG_clean_linker_0, # of connection points: 2
#     Edge 34, Type (0, 1), BuildingBlock: OJICUG_clean_linker_0, # of connection points: 2
#     Edge 35, Type (0, 1), BuildingBlock: OJICUG_clean_linker_0, # of connection points: 2
# Relax obj value: 0.044
# Max RMSD: 0.132
# Mean RMSD: 0.094
data_MOF--net-nom--node1-KUFVIS_clean_sbu_0--node2-NAHDIM_clean_linker_0--edge1-OJICUG_clean_linker_0
_symmetry_space_group_name_H-M    P1
_symmetry_Int_Tables_number       1
_symmetry_cell_setting            triclinic
loop_
_symmetry_equiv_pos_as_xyz
'x, y, z'
_cell_length_a     46.350086
_cell_length_b     46.962936
_cell_length_c     56.490934
_cell_angle_alpha  90.863406
_cell_angle_beta   90.992228
_cell_angle_gamma 120.00101
loop_
_atom_site_label
_atom_site_type_symbol
_atom_site_fract_x
_atom_site_fract_y
_atom_site_fract_z
_atom_type_partial_charge
C0 C 0.17327 0.65731 0.24799 0.0
C1 C 0.19455 0.64212 0.25559 0.0
C2 C 0.15732 0.60605 0.28458 0.0
C3 C 0.1485 0.57332 0.28007 0.0
C4 C 0.1165 0.54766 0.28516 0.0
C5 C 0.09282 0.55525 0.29439 0.0
C6 C 0.10203 0.58855 0.29911 0.0
C7 C 0.13457 0.61347 0.29473 0.0
C8 C 0.10782 0.51258 0.2802 0.0
C9 C 0.07739 0.59811 0.30798 0.0
C10 C 0.90092 0.46644 0.15653 0.0
C11 C 0.92167 0.48249 0.17823 0.0
C12 C 0.94553 0.47033 0.21273 0.0
C13 C 0.95524 0.50042 0.22468 0.0
C14 C 0.97374 0.50876 0.24607 0.0
C15 C 0.98294 0.48671 0.2557 0.0
C16 C 0.97306 0.45632 0.24385 0.0
C17 C 0.95424 0.44844 0.22254 0.0
C18 C 0.98357 0.54125 0.25837 0.0
C19 C 0.98254 0.43234 0.25365 0.0
C20 C 0.83766 0.42279 0.36357 0.0
C21 C 0.85763 0.45714 0.36575 0.0
C22 C 0.89235 0.47203 0.36853 0.0
C23 C 0.90726 0.45212 0.36978 0.0
C24 C 0.88693 0.41749 0.36971 0.0
C25 C 0.85226 0.40325 0.36664 0.0
C26 C 0.91321 0.50907 0.36907 0.0
C27 C 0.90199 0.3956 0.37151 0.0
C28 C 0.12722 0.61023 0.44995 0.0
C29 C 0.11934 0.57816 0.46198 0.0
C30 C 0.06266 0.54288 0.44852 0.0
C31 C 0.04319 0.55548 0.43962 0.0
C32 C 0.02169 0.54048 0.4199 0.0
C33 C 0.01889 0.51153 0.40947 0.0
C34 C 0.03711 0.49759 0.41951 0.0
C35 C 0.05925 0.51378 0.43878 0.0
C36 C 0.00259 0.55607 0.40998 0.0
C37 C 0.03395 0.46618 0.40946 0.0
C38 C 0.05774 0.5289 0.29728 0.0
C39 C 0.0375 0.51646 0.2768 0.0
C40 C 0.0031 0.49579 0.2781 0.0
C41 C 0.98825 0.48713 0.30044 0.0
C42 C 0.95354 0.46782 0.30237 0.0
C43 C 0.93901 0.46101 0.3244 0.0
C44 C 0.95865 0.47292 0.34541 0.0
C45 C 0.94392 0.46748 0.36782 0.0
C46 C 0.96407 0.47928 0.3884 0.0
C47 C 0.99885 0.49735 0.38717 0.0
C48 C 0.01399 0.50389 0.36481 0.0
C49 C 0.04878 0.52321 0.36279 0.0
C50 C 0.06327 0.53064 0.34071 0.0
C51 C 0.04353 0.5194 0.31978 0.0
C52 C 0.00857 0.49894 0.32136 0.0
C53 C 0.99376 0.49151 0.34389 0.0
C54 C 0.77278 0.39821 0.32251 0.0
C55 C 0.78833 0.42018 0.34471 0.0
O56 O 0.18744 0.63083 0.27848 0.0
O57 O 0.08553 0.55965 0.46604 0.0
O58 O 0.80446 0.40768 0.35832 0.0
O59 O 0.928 0.46174 0.19178 0.0
H60 H 0.18886 0.62106 0.2433 0.0
H61 H 0.14643 0.6383 0.24738 0.0
H62 H 0.17723 0.67739 0.26062 0.0
H63 H 0.17971 0.66739 0.22996 0.0
H64 H 0.16659 0.568 0.27236 0.0
H65 H 0.14195 0.63903 0.29817 0.0
H66 H 0.09119 0.50288 0.26419 0.0
H67 H 0.13033 0.51053 0.27707 0.0
H68 H 0.09421 0.49687 0.29522 0.0
H69 H 0.08658 0.62479 0.30611 0.0
H70 H 0.05307 0.58403 0.29824 0.0
H71 H 0.07307 0.59242 0.32702 0.0
H72 H 0.94453 0.50669 0.17539 0.0
H73 H 0.91775 0.47889 0.14136 0.0
H74 H 0.90071 0.44275 0.15411 0.0
H75 H 0.85736 0.46822 0.16219 0.0
H76 H 0.94843 0.51752 0.21746 0.0
H77 H 0.94656 0.42526 0.21327 0.0
H78 H 0.01111 0.55707 0.25866 0.0
H79 H 0.97246 0.55461 0.24948 0.0
H80 H 0.97561 0.53724 0.27704 0.0
H81 H 0.97383 0.41018 0.24193 0.0
H82 H 0.01005 0.44456 0.25606 0.0
H83 H 0.97161 0.42445 0.27133 0.0
H84 H 0.80609 0.44498 0.33815 0.0
H85 H 0.84633 0.47246 0.36495 0.0
H86 H 0.83654 0.37673 0.36556 0.0
H87 H 0.92978 0.51723 0.35366 0.0
H88 H 0.89777 0.52108 0.36862 0.0
H89 H 0.92931 0.51759 0.38535 0.0
H90 H 0.88281 0.36947 0.37399 0.0
H91 H 0.91545 0.3972 0.35507 0.0
H92 H 0.92043 0.40407 0.38653 0.0
H93 H 0.12676 0.56389 0.45009 0.0
H94 H 0.15442 0.62554 0.44715 0.0
H95 H 0.11426 0.60475 0.43235 0.0
H96 H 0.11897 0.62451 0.46097 0.0
H97 H 0.04596 0.57789 0.44757 0.0
H98 H 0.07422 0.50406 0.44613 0.0
H99 H 0.00473 0.55791 0.39044 0.0
H100 H 0.97585 0.54039 0.41392 0.0
H101 H 0.01143 0.58103 0.41779 0.0
H102 H 0.04504 0.45563 0.42162 0.0
H103 H 0.00734 0.44762 0.40582 0.0
H104 H 0.04699 0.47123 0.39242 0.0
H105 H 0.04844 0.52432 0.2596 0.0
H106 H 0.93714 0.4582 0.28686 0.0
H107 H 0.91211 0.44644 0.32468 0.0
H108 H 0.95255 0.47528 0.4055 0.0
H109 H 0.06526 0.53324 0.37823 0.0
H110 H 0.09013 0.54574 0.34021 0.0
H111 H 0.75901 0.40732 0.31163 0.0
H112 H 0.79273 0.39863 0.31164 0.0
H113 H 0.75541 0.37234 0.32723 0.0
C114 C 0.36394 0.85221 0.58343 0.0
C115 C 0.37891 0.83363 0.57074 0.0
C116 C 0.41127 0.87451 0.54228 0.0
C117 C 0.44463 0.8833 0.54612 0.0
C118 C 0.47037 0.91497 0.54089 0.0
C119 C 0.46228 0.93833 0.53217 0.0
C120 C 0.4284 0.92932 0.52842 0.0
C121 C 0.40334 0.89717 0.53299 0.0
C122 C 0.50611 0.92349 0.54482 0.0
C123 C 0.41848 0.9537 0.52005 0.0
C124 C 0.56512 0.12014 0.67056 0.0
C125 C 0.54703 0.09877 0.64953 0.0
C126 C 0.5576 0.08443 0.61026 0.0
C127 C 0.52559 0.07355 0.60049 0.0
C128 C 0.51555 0.05616 0.57871 0.0
C129 C 0.53756 0.04852 0.5668 0.0
C130 C 0.56987 0.05947 0.57661 0.0
C131 C 0.57971 0.07798 0.59798 0.0
C132 C 0.48112 0.04554 0.56867 0.0
C133 C 0.59369 0.05096 0.56488 0.0
C134 C 0.61917 0.18113 0.4403 0.0
C135 C 0.58689 0.16947 0.4484 0.0
C136 C 0.56569 0.13578 0.45193 0.0
C137 C 0.57768 0.11364 0.44815 0.0
C138 C 0.61025 0.12549 0.43974 0.0
C139 C 0.63035 0.15911 0.43547 0.0
C140 C 0.53055 0.12397 0.45965 0.0
C141 C 0.62398 0.10277 0.43548 0.0
C142 C 0.41004 0.88896 0.37346 0.0
C143 C 0.44267 0.90226 0.36018 0.0
C144 C 0.47357 0.95821 0.37528 0.0
C145 C 0.46137 0.97825 0.38345 0.0
C146 C 0.47661 -0.00017 0.40299 0.0
C147 C 0.50527 0.00189 0.41406 0.0
C148 C 0.51876 0.98292 0.40493 0.0
C149 C 0.50251 0.96098 0.38572 0.0
C150 C 0.46162 0.01978 0.41216 0.0
C151 C 0.54996 0.9854 0.41574 0.0
C152 C 0.48899 0.97256 0.52789 0.0
C153 C 0.50343 0.99382 0.54755 0.0
C154 C 0.52578 0.02734 0.54493 0.0
C155 C 0.5343 0.04015 0.52197 0.0
C156 C 0.55604 0.07384 0.51857 0.0
C157 C 0.56383 0.0862 0.49588 0.0
C158 C 0.54948 0.06552 0.4757 0.0
C159 C 0.55604 0.07805 0.45256 0.0
C160 C 0.54148 0.05669 0.43294 0.0
C161 C 0.52036 0.023 0.43568 0.0
C162 C 0.51326 0.01003 0.45865 0.0
C163 C 0.49173 0.97628 0.46204 0.0
C164 C 0.48438 0.96384 0.48469 0.0
C165 C 0.49782 0.98472 0.50483 0.0
C166 C 0.52022 0.01871 0.50186 0.0
C167 C 0.5278 0.03141 0.47872 0.0
C168 C 0.68472 0.25941 0.45693 0.0
C169 C 0.64688 0.23816 0.45368 0.0
O170 O 0.38632 0.84431 0.54774 0.0
O171 O 0.45671 0.93588 0.35758 0.0
O172 O 0.63994 0.21356 0.43692 0.0
O173 O 0.56788 0.10096 0.63146 0.0
H174 H 0.40213 0.8386 0.58048 0.0
H175 H 0.38208 0.87903 0.58411 0.0
H176 H 0.34086 0.84794 0.57392 0.0
H177 H 0.35795 0.84417 0.60196 0.0
H178 H 0.45043 0.86532 0.5531 0.0
H179 H 0.37734 0.88988 0.53015 0.0
H180 H 0.51721 0.94103 0.56015 0.0
H181 H 0.50828 0.90144 0.54847 0.0
H182 H 0.52088 0.93572 0.52907 0.0
H183 H 0.39149 0.94457 0.52221 0.0
H184 H 0.43295 0.97756 0.52994 0.0
H185 H 0.42396 0.95831 0.501 0.0
H186 H 0.52824 0.07282 0.65344 0.0
H187 H 0.56146 0.10272 0.68519 0.0
H188 H 0.59198 0.12823 0.66817 0.0
H189 H 0.54787 0.15366 0.67208 0.0
H190 H 0.50835 0.07869 0.60968 0.0
H191 H 0.60439 0.08656 0.60565 0.0
H192 H 0.48207 0.05036 0.54943 0.0
H193 H 0.46484 0.01868 0.57088 0.0
H194 H 0.46955 0.05837 0.57769 0.0
H195 H 0.61629 0.05808 0.57615 0.0
H196 H 0.58113 0.02412 0.56077 0.0
H197 H 0.60164 0.06387 0.54789 0.0
H198 H 0.63689 0.22727 0.47116 0.0
H199 H 0.57819 0.18669 0.4516 0.0
H200 H 0.65531 0.16853 0.42901 0.0
H201 H 0.52862 0.11785 0.47866 0.0
H202 H 0.52321 0.14296 0.45733 0.0
H203 H 0.51258 0.10136 0.44946 0.0
H204 H 0.65111 0.11647 0.4321 0.0
H205 H 0.61962 0.08696 0.45097 0.0
H206 H 0.61085 0.08639 0.41988 0.0
H207 H 0.46001 0.897 0.37061 0.0
H208 H 0.39842 0.86198 0.37562 0.0
H209 H 0.41503 0.90078 0.39139 0.0
H210 H 0.39224 0.89417 0.3637 0.0
H211 H 0.43911 0.976 0.37501 0.0
H212 H 0.51228 0.94593 0.37883 0.0
H213 H 0.45627 0.01517 0.43125 0.0
H214 H 0.47975 0.04638 0.41049 0.0
H215 H 0.43821 0.01392 0.40239 0.0
H216 H 0.55951 0.97218 0.40482 0.0
H217 H 0.56976 0.01161 0.41791 0.0
H218 H 0.54461 0.97469 0.4336 0.0
H219 H 0.49622 0.98435 0.56518 0.0
H220 H 0.56725 0.09105 0.53342 0.0
H221 H 0.58094 0.1123 0.49438 0.0
H222 H 0.54646 0.06647 0.41526 0.0
H223 H 0.48016 0.95907 0.44723 0.0
H224 H 0.46772 0.93765 0.48622 0.0
H225 H 0.69614 0.27133 0.44009 0.0
H226 H 0.6913 0.27876 0.47091 0.0
H227 H 0.69537 0.24386 0.46241 0.0
C228 C 0.52044 0.35248 0.74578 0.0
C229 C 0.55533 0.36622 0.73567 0.0
C230 C 0.55085 0.40033 0.70598 0.0
C231 C 0.5745 0.43282 0.71234 0.0
C232 C 0.5688 0.45871 0.70691 0.0
C233 C 0.53841 0.45163 0.69543 0.0
C234 C 0.51477 0.41869 0.68865 0.0
C235 C 0.52178 0.39355 0.69352 0.0
C236 C 0.59488 0.49348 0.71396 0.0
C237 C 0.48152 0.40969 0.67714 0.0
C238 C 0.42509 0.5324 0.82804 0.0
C239 C 0.43113 0.51654 0.80721 0.0
C240 C 0.47149 0.52931 0.77609 0.0
C241 C 0.45076 0.50114 0.76198 0.0
C242 C 0.46211 0.49462 0.74085 0.0
C243 C 0.49491 0.51653 0.73374 0.0
C244 C 0.51584 0.5449 0.74785 0.0
C245 C 0.50375 0.551 0.76881 0.0
C246 C 0.43907 0.46422 0.72612 0.0
C247 C 0.55099 0.56864 0.74079 0.0
C248 C 0.43546 0.60321 0.62314 0.0
C249 C 0.41883 0.5689 0.61971 0.0
C250 C 0.43675 0.55221 0.61805 0.0
C251 C 0.472 0.57029 0.61944 0.0
C252 C 0.48882 0.60505 0.62095 0.0
C253 C 0.47023 0.62111 0.62266 0.0
C254 C 0.41801 0.51515 0.61586 0.0
C255 C 0.52635 0.62503 0.622 0.0
C256 C 0.55573 0.43077 0.5443 0.0
C257 C 0.57101 0.46012 0.5278 0.0
C258 C 0.54147 0.487 0.5418 0.0
C259 C 0.50818 0.47352 0.54784 0.0
C260 C 0.49936 0.48572 0.56756 0.0
C261 C 0.5245 0.51276 0.58099 0.0
C262 C 0.558 0.52795 0.57385 0.0
C263 C 0.5662 0.51462 0.55444 0.0
C264 C 0.46332 0.46908 0.57441 0.0
C265 C 0.58525 0.55764 0.58712 0.0
C266 C 0.52975 0.47792 0.69275 0.0
C267 C 0.51986 0.48785 0.71302 0.0
C268 C 0.50733 0.50933 0.7117 0.0
C269 C 0.50444 0.52138 0.68954 0.0
C270 C 0.49072 0.54201 0.68749 0.0
C271 C 0.4866 0.55257 0.66549 0.0
C272 C 0.49627 0.5431 0.64468 0.0
C273 C 0.49085 0.5526 0.62214 0.0
C274 C 0.50109 0.54317 0.60182 0.0
C275 C 0.51602 0.52368 0.60332 0.0
C276 C 0.52092 0.51325 0.62569 0.0
C277 C 0.53486 0.49274 0.62784 0.0
C278 C 0.53854 0.48178 0.64984 0.0
C279 C 0.52804 0.49053 0.67051 0.0
C280 C 0.51485 0.51195 0.66887 0.0
C281 C 0.51102 0.52307 0.64642 0.0
C282 C 0.39682 0.63037 0.66196 0.0
C283 C 0.38993 0.60795 0.6401 0.0
O284 O 0.55517 0.37503 0.71236 0.0
O285 O 0.54932 0.47207 0.52441 0.0
O286 O 0.41882 0.61965 0.62734 0.0
O287 O 0.46136 0.53639 0.7967 0.0
H288 H 0.57329 0.38828 0.74649 0.0
H289 H 0.51296 0.37156 0.74573 0.0
H290 H 0.50185 0.33083 0.73499 0.0
H291 H 0.52015 0.34505 0.76439 0.0
H292 H 0.59724 0.43781 0.72168 0.0
H293 H 0.50383 0.36822 0.68867 0.0
H294 H 0.58648 0.50161 0.72964 0.0
H295 H 0.61927 0.49554 0.71856 0.0
H296 H 0.59833 0.51044 0.6994 0.0
H297 H 0.464 0.38272 0.67676 0.0
H298 H 0.46978 0.42198 0.68665 0.0
H299 H 0.48526 0.41809 0.65862 0.0
H300 H 0.42621 0.49103 0.80996 0.0
H301 H 0.42439 0.51729 0.84355 0.0
H302 H 0.44988 0.55432 0.83353 0.0
H303 H 0.38393 0.53662 0.81714 0.0
H304 H 0.42568 0.48414 0.7673 0.0
H305 H 0.51955 0.57268 0.77975 0.0
H306 H 0.437 0.47111 0.70771 0.0
H307 H 0.44957 0.44755 0.7253 0.0
H308 H 0.4137 0.45056 0.73341 0.0
H309 H 0.56439 0.58922 0.75395 0.0
H310 H 0.56512 0.55542 0.73881 0.0
H311 H 0.55052 0.57901 0.72335 0.0
H312 H 0.38215 0.58322 0.6472 0.0
H313 H 0.39185 0.55505 0.61875 0.0
H314 H 0.48282 0.64766 0.62475 0.0
H315 H 0.42269 0.50478 0.63205 0.0
H316 H 0.3907 0.50486 0.61345 0.0
H317 H 0.42713 0.50703 0.6006 0.0
H318 H 0.53567 0.65185 0.6211 0.0
H319 H 0.53581 0.62022 0.63878 0.0
H320 H 0.5367 0.61747 0.60717 0.0
H321 H 0.59486 0.47977 0.53603 0.0
H322 H 0.57271 0.42067 0.54676 0.0
H323 H 0.55173 0.43862 0.562 0.0
H324 H 0.53137 0.41104 0.53687 0.0
H325 H 0.48932 0.45236 0.53772 0.0
H326 H 0.59189 0.52557 0.54923 0.0
H327 H 0.46102 0.46266 0.59339 0.0
H328 H 0.45372 0.48629 0.57195 0.0
H329 H 0.44741 0.44635 0.56358 0.0
H330 H 0.60879 0.56953 0.57724 0.0
H331 H 0.57728 0.57599 0.59059 0.0
H332 H 0.5903 0.55005 0.60449 0.0
H333 H 0.52076 0.47773 0.72999 0.0
H334 H 0.48261 0.5499 0.70284 0.0
H335 H 0.47555 0.56813 0.66503 0.0
H336 H 0.49659 0.55035 0.5846 0.0
H337 H 0.54281 0.48463 0.61252 0.0
H338 H 0.54935 0.466 0.65043 0.0
H339 H 0.37363 0.62214 0.67194 0.0
H340 H 0.41558 0.62926 0.67384 0.0
H341 H 0.40679 0.65634 0.65695 0.0
C342 C 0.20223 0.59592 0.92125 0.0
C343 C 0.20651 0.58163 0.89785 0.0
C344 C 0.14909 0.53891 0.8863 0.0
C345 C 0.13735 0.56042 0.88042 0.0
C346 C 0.10409 0.54814 0.87288 0.0
C347 C 0.08227 0.51375 0.87094 0.0
C348 C 0.09408 0.49208 0.87656 0.0
C349 C 0.12736 0.505 0.88422 0.0
C350 C 0.09216 0.57189 0.86709 0.0
C351 C 0.07151 0.45527 0.87454 0.0
C352 C 0.8752 0.44744 0.98619 0.0
C353 C 0.89269 0.46305 0.96415 0.0
C354 C 0.9218 0.45301 0.93224 0.0
C355 C 0.92786 0.42978 0.92124 0.0
C356 C 0.94982 0.43831 0.90243 0.0
C357 C 0.96605 0.47099 0.89446 0.0
C358 C 0.95992 0.49465 0.90539 0.0
C359 C 0.93778 0.48544 0.92416 0.0
C360 C 0.95583 0.41247 0.89115 0.0
C361 C 0.97685 0.52968 0.89726 0.0
C362 C 0.84647 0.42972 0.75749 0.0
C363 C 0.85469 0.40732 0.76707 0.0
C364 C 0.88792 0.41708 0.77317 0.0
C365 C 0.91303 0.45035 0.77055 0.0
C366 C 0.90458 0.47289 0.76068 0.0
C367 C 0.8714 0.46201 0.7538 0.0
C368 C 0.896 0.39183 0.78247 0.0
C369 C 0.93044 0.50854 0.75761 0.0
C370 C 0.15598 0.53066 0.71271 0.0
C371 C 0.13332 0.5394 0.69833 0.0
C372 C 0.0773 0.50501 0.71271 0.0
C373 C 0.05868 0.47259 0.72 0.0
C374 C 0.0346 0.46399 0.73737 0.0
C375 C 0.02872 0.48842 0.74725 0.0
C376 C 0.04634 0.52095 0.73905 0.0
C377 C 0.07044 0.5289 0.7218 0.0
C378 C 0.01598 0.42902 0.74557 0.0
C379 C 0.03999 0.54738 0.74876 0.0
C380 C 0.04696 0.50046 0.86328 0.0
C381 C 0.02343 0.49262 0.88081 0.0
C382 C 0.98981 0.4804 0.87489 0.0
C383 C 0.97927 0.47639 0.85083 0.0
C384 C 0.94589 0.46551 0.84427 0.0
C385 C 0.93571 0.46129 0.82054 0.0
C386 C 0.95833 0.46699 0.80245 0.0
C387 C 0.94804 0.46176 0.77826 0.0
C388 C 0.9714 0.46831 0.76077 0.0
C389 C 0.00498 0.48032 0.76672 0.0
C390 C 0.01568 0.48534 0.79078 0.0
C391 C 0.04926 0.49711 0.79736 0.0
C392 C 0.0596 0.50216 0.82107 0.0
C393 C 0.03674 0.49551 0.83912 0.0
C394 C 0.00276 0.48351 0.83289 0.0
C395 C 0.99223 0.47853 0.80869 0.0
C396 C 0.7699 0.42693 0.76462 0.0
C397 C 0.78888 0.40823 0.76737 0.0
O398 O 0.18082 0.5495 0.89421 0.0
O399 O 0.10138 0.51238 0.69669 0.0
O400 O 0.81456 0.42056 0.75152 0.0
O401 O 0.9007 0.44322 0.95065 0.0
H402 H 0.20666 0.59695 0.88297 0.0
H403 H 0.17863 0.59655 0.92086 0.0
H404 H 0.2017 0.58076 0.93634 0.0
H405 H 0.22312 0.6215 0.92429 0.0
H406 H 0.15376 0.58675 0.88181 0.0
H407 H 0.13661 0.4886 0.88874 0.0
H408 H 0.07055 0.56684 0.87809 0.0
H409 H 0.11193 0.59795 0.87015 0.0
H410 H 0.08356 0.56833 0.84825 0.0
H411 H 0.08493 0.44176 0.87852 0.0
H412 H 0.05081 0.44754 0.88703 0.0
H413 H 0.06028 0.44813 0.85637 0.0
H414 H 0.88113 0.47467 0.9534 0.0
H415 H 0.90892 0.47711 0.0133 0.0
H416 H 0.84966 0.44448 0.98384 0.0
H417 H 0.86615 0.42033 0.98408 0.0
H418 H 0.91541 0.40486 0.92757 0.0
H419 H 0.93322 0.50369 0.93243 0.0
H420 H 0.94851 0.40938 0.87206 0.0
H421 H 0.98279 0.42055 0.89241 0.0
H422 H 0.9416 0.38827 0.89963 0.0
H423 H 0.96876 0.54498 0.90715 0.0
H424 H 0.00427 0.54094 0.89965 0.0
H425 H 0.97138 0.53001 0.87808 0.0
H426 H 0.79914 0.41271 0.78593 0.0
H427 H 0.83517 0.38214 0.76945 0.0
H428 H 0.86457 0.47893 0.74617 0.0
H429 H 0.89986 0.39503 0.80198 0.0
H430 H 0.87552 0.36633 0.77846 0.0
H431 H 0.91928 0.39501 0.77478 0.0
H432 H 0.91898 0.52378 0.75328 0.0
H433 H 0.94624 0.51889 0.77396 0.0
H434 H 0.94691 0.51039 0.74298 0.0
H435 H 0.13344 0.56044 0.7077 0.0
H436 H 0.18178 0.55198 0.71395 0.0
H437 H 0.14665 0.52421 0.73095 0.0
H438 H 0.15646 0.50929 0.70442 0.0
H439 H 0.06378 0.45423 0.71253 0.0
H440 H 0.0836 0.55369 0.71533 0.0
H441 H 0.02076 0.42857 0.76485 0.0
H442 H 0.98877 0.41885 0.74276 0.0
H443 H 0.02338 0.41288 0.73607 0.0
H444 H 0.0544 0.57101 0.73959 0.0
H445 H 0.01304 0.5392 0.74696 0.0
H446 H 0.04693 0.55168 0.76792 0.0
H447 H 0.03138 0.49591 0.89932 0.0
H448 H 0.92728 0.46031 0.85742 0.0
H449 H 0.90977 0.45324 0.81659 0.0
H450 H 0.96344 0.46447 0.74225 0.0
H451 H 0.06796 0.50254 0.78425 0.0
H452 H 0.08574 0.51124 0.82507 0.0
H453 H 0.75842 0.42272 0.74654 0.0
H454 H 0.75004 0.41897 0.77785 0.0
H455 H 0.78731 0.45372 0.7675 0.0
C456 C 0.48807 0.83807 0.89458 0.0
C457 C 0.45756 0.81946 0.9101 0.0
C458 C 0.47283 0.8636 0.9391 0.0
C459 C 0.45101 0.87525 0.93379 0.0
C460 C 0.46002 0.90798 0.93928 0.0
C461 C 0.49184 0.92952 0.94974 0.0
C462 C 0.51378 0.91755 0.9552 0.0
C463 C 0.50353 0.88442 0.95036 0.0
C464 C 0.43574 0.91962 0.9336 0.0
C465 C 0.54845 0.9398 0.96551 0.0
C466 C 0.60709 0.1254 0.8217 0.0
C467 C 0.60234 0.10424 0.84228 0.0
C468 C 0.56172 0.07456 0.8726 0.0
C469 C 0.58323 0.06796 0.88632 0.0
C470 C 0.57233 0.04999 0.90709 0.0
C471 C 0.53934 0.03848 0.91436 0.0
C472 C 0.5177 0.04521 0.90071 0.0
C473 C 0.52923 0.06322 0.87998 0.0
C474 C 0.59606 0.04321 0.92127 0.0
C475 C 0.48241 0.03333 0.90804 0.0
C476 C 0.61546 0.18334 0.02926 0.0
C477 C 0.62999 0.16335 0.03009 0.0
C478 C 0.61009 0.12905 0.03084 0.0
C479 C 0.575 0.11454 0.0312 0.0
C480 C 0.56047 0.13477 0.03228 0.0
C481 C 0.581 0.16906 0.03141 0.0
C482 C 0.62648 0.10822 0.03033 0.0
C483 C 0.52322 0.12006 0.03322 0.0
C484 C 0.46982 0.88549 0.10284 0.0
C485 C 0.46489 0.90732 0.12087 0.0
C486 C 0.50099 0.96112 0.10477 0.0
C487 C 0.53366 0.97731 0.09697 0.0
C488 C 0.54274 0.9987 0.07792 0.0
C489 C 0.51863 0.00464 0.06694 0.0
C490 C 0.48605 0.98996 0.07582 0.0
C491 C 0.47751 0.96817 0.09459 0.0
C492 C 0.57782 0.01423 0.06911 0.0
C493 C 0.46007 0.99664 0.06507 0.0
C494 C 0.50314 0.96498 0.95355 0.0
C495 C 0.51298 0.98484 0.93375 0.0
C496 C 0.52745 0.01895 0.93609 0.0
C497 C 0.53253 0.03392 0.95884 0.0
C498 C 0.54802 0.06825 0.96187 0.0
C499 C 0.5546 0.08285 0.98439 0.0
C500 C 0.54561 0.06367 0.00476 0.0
C501 C 0.55372 0.07839 0.02774 0.0
C502 C 0.544 0.05867 0.04764 0.0
C503 C 0.52683 0.02434 0.0452 0.0
C504 C 0.51921 0.00917 0.02233 0.0
C505 C 0.5028 0.97474 0.01921 0.0
C506 C 0.49671 0.96015 0.99668 0.0
C507 C 0.5071 0.97941 0.97641 0.0
C508 C 0.52246 0.01406 0.97908 0.0
C509 C 0.52876 0.02896 0.00207 0.0
C510 C 0.64968 0.24127 0.98887 0.0
C511 C 0.66087 0.23217 0.01181 0.0
O512 O 0.4652 0.83255 0.93303 0.0
O513 O 0.49277 0.93856 0.1219 0.0
O514 O 0.63385 0.21634 0.02643 0.0
O515 O 0.57131 0.09165 0.85226 0.0
H516 H 0.43657 0.82189 0.90259 0.0
H517 H 0.49527 0.86442 0.89386 0.0
H518 H 0.50955 0.83637 0.9019 0.0
H519 H 0.48246 0.82788 0.87613 0.0
H520 H 0.42693 0.85874 0.92547 0.0
H521 H 0.52007 0.87496 0.95437 0.0
H522 H 0.44454 0.93591 0.91817 0.0
H523 H 0.41033 0.89882 0.92923 0.0
H524 H 0.43435 0.93414 0.94879 0.0
H525 H 0.56431 0.9283 0.96436 0.0
H526 H 0.56087 0.96351 0.95622 0.0
H527 H 0.54686 0.94529 0.98446 0.0
H528 H 0.60986 0.08531 0.83941 0.0
H529 H 0.61006 0.11192 0.80613 0.0
H530 H 0.58154 0.12029 0.81579 0.0
H531 H 0.6449 0.17207 0.83357 0.0
H532 H 0.60852 0.07669 0.88094 0.0
H533 H 0.51283 0.06847 0.86935 0.0
H534 H 0.59962 0.05404 0.93942 0.0
H535 H 0.58529 0.01626 0.92294 0.0
H536 H 0.6208 0.05348 0.91307 0.0
H537 H 0.46889 0.04122 0.89578 0.0
H538 H 0.4686 0.00605 0.90856 0.0
H539 H 0.48258 0.04288 0.92617 0.0
H540 H 0.67062 0.21581 0.00636 0.0
H541 H 0.65682 0.17436 0.02998 0.0
H542 H 0.5701 0.18478 0.03141 0.0
H543 H 0.61947 0.09347 0.01351 0.0
H544 H 0.65409 0.12327 0.03178 0.0
H545 H 0.61752 0.09076 0.04509 0.0
H546 H 0.51595 0.13911 0.03586 0.0
H547 H 0.5114 0.10615 0.01642 0.0
H548 H 0.51328 0.10241 0.04784 0.0
H549 H 0.44254 0.90865 0.11515 0.0
H550 H 0.44786 0.86023 0.10228 0.0
H551 H 0.47264 0.89569 0.08487 0.0
H552 H 0.49251 0.88419 0.10753 0.0
H553 H 0.55171 0.97206 0.10523 0.0
H554 H 0.45253 0.95681 0.10127 0.0
H555 H 0.57734 0.0086 0.0499 0.0
H556 H 0.59013 0.04135 0.07148 0.0
H557 H 0.59303 0.00556 0.07868 0.0
H558 H 0.43725 0.98651 0.07571 0.0
H559 H 0.4704 0.02354 0.06344 0.0
H560 H 0.45299 0.98534 0.04697 0.0
H561 H 0.51037 0.9737 0.91629 0.0
H562 H 0.55572 0.08427 0.94687 0.0
H563 H 0.56704 0.10943 0.98559 0.0
H564 H 0.5506 0.07016 0.0652 0.0
H565 H 0.4948 0.95863 0.03414 0.0
H566 H 0.48415 0.93356 0.99535 0.0
H567 H 0.63782 0.25632 0.9926 0.0
H568 H 0.6713 0.25521 0.97735 0.0
H569 H 0.63116 0.21851 0.97907 0.0
C570 C 0.59349 0.39587 0.06728 0.0
C571 C 0.61545 0.41601 0.08871 0.0
C572 C 0.60238 0.46011 0.0965 0.0
C573 C 0.56911 0.44001 0.10297 0.0
C574 C 0.54975 0.45394 0.10977 0.0
C575 C 0.56438 0.4886 0.11102 0.0
C576 C 0.59824 0.5088 0.10542 0.0
C577 C 0.61658 0.49422 0.09786 0.0
C578 C 0.5135 0.43164 0.11515 0.0
C579 C 0.61499 0.54583 0.10692 0.0
C580 C 0.47361 0.58457 0.97916 0.0
C581 C 0.49317 0.5849 0.00034 0.0
C582 C 0.48346 0.56002 0.03917 0.0
C583 C 0.5162 0.57914 0.04824 0.0
C584 C 0.52627 0.57067 0.0693 0.0
C585 C 0.50334 0.54206 0.08114 0.0
C586 C 0.4702 0.52299 0.07211 0.0
C587 C 0.46057 0.53265 0.05145 0.0
C588 C 0.56161 0.59204 0.07857 0.0
C589 C 0.44514 0.492 0.08393 0.0
C590 C 0.43593 0.60522 0.20041 0.0
C591 C 0.47072 0.6209 0.20319 0.0
C592 C 0.48699 0.60251 0.20367 0.0
C593 C 0.46796 0.56781 0.20149 0.0
C594 C 0.43275 0.55191 0.20086 0.0
C595 C 0.41711 0.57093 0.20049 0.0
C596 C 0.52456 0.62021 0.20515 0.0
C597 C 0.41176 0.51493 0.19908 0.0
C598 C 0.55567 0.42061 0.26972 0.0
C599 C 0.54381 0.43458 0.28962 0.0
C600 C 0.54129 0.47876 0.26811 0.0
C601 C 0.55943 0.51238 0.26375 0.0
C602 C 0.54985 0.52606 0.24543 0.0
C603 C 0.521 0.50555 0.23135 0.0
C604 C 0.50171 0.47169 0.23626 0.0
C605 C 0.51212 0.45858 0.25451 0.0
C606 C 0.57098 0.56227 0.24077 0.0
C607 C 0.47039 0.44924 0.22193 0.0
C608 C 0.54399 0.50387 0.11687 0.0
C609 C 0.53265 0.51509 0.09812 0.0
C610 C 0.51452 0.53104 0.10213 0.0
C611 C 0.50732 0.53591 0.12557 0.0
C612 C 0.48993 0.55263 0.13033 0.0
C613 C 0.48256 0.55689 0.15341 0.0
C614 C 0.49234 0.54463 0.17268 0.0
C615 C 0.48488 0.54882 0.19621 0.0
C616 C 0.49431 0.53575 0.21492 0.0
C617 C 0.51187 0.51916 0.21081 0.0
C618 C 0.52055 0.51573 0.18744 0.0
C619 C 0.5395 0.50053 0.18275 0.0
C620 C 0.54757 0.49696 0.1597 0.0
C621 C 0.5366 0.50801 0.14041 0.0
C622 C 0.51799 0.52392 0.14474 0.0
C623 C 0.51024 0.52804 0.16831 0.0
C624 C 0.40799 0.63776 0.15969 0.0
C625 C 0.43042 0.64884 0.18209 0.0
O626 O 0.62154 0.448 0.08825 0.0
O627 O 0.55308 0.46707 0.2854 0.0
O628 O 0.41999 0.62251 0.19706 0.0
O629 O 0.47302 0.56709 0.01868 0.0
H630 H 0.6027 0.40424 0.10529 0.0
H631 H 0.56869 0.39397 0.06778 0.0
H632 H 0.60515 0.40752 0.05044 0.0
H633 H 0.58966 0.37055 0.06735 0.0
H634 H 0.55783 0.41354 0.10225 0.0
H635 H 0.64229 0.50949 0.09291 0.0
H636 H 0.49767 0.43872 0.10469 0.0
H637 H 0.5051 0.40535 0.11116 0.0
H638 H 0.50952 0.43437 0.13417 0.0
H639 H 0.64255 0.55769 0.10629 0.0
H640 H 0.60615 0.55445 0.09176 0.0
H641 H 0.60841 0.55404 0.12348 0.0
H642 H 0.51335 0.57917 0.99674 0.0
H643 H 0.47877 0.57072 0.96498 0.0
H644 H 0.44747 0.56471 0.98195 0.0
H645 H 0.4861 0.6337 0.97615 0.0
H646 H 0.5339 0.60074 0.03902 0.0
H647 H 0.43531 0.51822 0.04434 0.0
H648 H 0.5623 0.59551 0.09811 0.0
H649 H 0.57613 0.57976 0.07441 0.0
H650 H 0.57396 0.61657 0.07039 0.0
H651 H 0.42148 0.47827 0.07335 0.0
H652 H 0.45567 0.47561 0.08678 0.0
H653 H 0.4394 0.49836 0.10156 0.0
H654 H 0.45608 0.65733 0.17592 0.0
H655 H 0.48522 0.6475 0.20441 0.0
H656 H 0.39019 0.5591 0.19895 0.0
H657 H 0.53416 0.61749 0.18789 0.0
H658 H 0.53554 0.64685 0.20948 0.0
H659 H 0.53309 0.60907 0.2188 0.0
H660 H 0.38483 0.50623 0.20109 0.0
H661 H 0.4152 0.50615 0.18156 0.0
H662 H 0.41998 0.50371 0.21288 0.0
H663 H 0.51624 0.41964 0.29074 0.0
H664 H 0.54881 0.39482 0.27333 0.0
H665 H 0.54382 0.4206 0.25249 0.0
H666 H 0.58316 0.43563 0.26818 0.0
H667 H 0.58171 0.52782 0.27446 0.0
H668 H 0.49745 0.4326 0.25789 0.0
H669 H 0.57884 0.56575 0.22208 0.0
H670 H 0.55604 0.57451 0.24345 0.0
H671 H 0.59355 0.57456 0.25259 0.0
H672 H 0.4561 0.42452 0.22967 0.0
H673 H 0.4541 0.46026 0.22066 0.0
H674 H 0.47707 0.44622 0.20365 0.0
H675 H 0.53822 0.51155 0.08009 0.0
H676 H 0.48177 0.56259 0.11624 0.0
H677 H 0.46895 0.56983 0.15589 0.0
H678 H 0.48817 0.53878 0.23288 0.0
H679 H 0.54842 0.4913 0.19685 0.0
H680 H 0.5623 0.48518 0.15718 0.0
H681 H 0.38134 0.62698 0.16411 0.0
H682 H 0.41513 0.65889 0.14792 0.0
H683 H 0.41088 0.61872 0.14986 0.0
Mn684 Mn 0.61356 0.38339 0.41509 0.0
Mn685 Mn 0.65581 0.46626 0.41699 0.0
C686 C 0.59844 0.41104 0.44148 0.0
C687 C 0.61164 0.33525 0.42688 0.0
C688 C 0.60503 0.42537 0.37802 0.0
O689 O 0.65556 0.39547 0.39753 0.0
O690 O 0.68483 0.45054 0.40288 0.0
C691 C 0.7089 0.47803 0.4522 0.0
N692 N 0.68296 0.48214 0.44528 0.0
C693 C 0.68891 0.51395 0.48071 0.0
C694 C 0.71587 0.51028 0.48813 0.0
C695 C 0.72586 0.4922 0.47383 0.0
C696 C 0.67317 0.49955 0.45888 0.0
H697 H 0.71651 0.46396 0.44133 0.0
C698 C 0.68188 0.42322 0.39545 0.0
O699 O 0.59678 0.33587 0.40732 0.0
O700 O 0.62663 0.36213 0.43968 0.0
N701 N 0.6308 0.48458 0.4304 0.0
C702 C 0.60285 0.48374 0.42152 0.0
C703 C 0.58876 0.49953 0.43418 0.0
C704 C 0.6036 0.5161 0.45577 0.0
C705 C 0.63248 0.51682 0.46447 0.0
C706 C 0.64557 0.5009 0.45097 0.0
H707 H 0.59125 0.47091 0.40499 0.0
O708 O 0.5776 0.38053 0.43556 0.0
O709 O 0.62752 0.42408 0.43193 0.0
O710 O 0.59535 0.39718 0.3868 0.0
O711 O 0.62805 0.45227 0.38753 0.0
C712 C 0.6483 0.53202 0.48629 0.0
C713 C 0.6765 0.5306 0.4944 0.0
H714 H 0.72883 0.52091 0.5049 0.0
H715 H 0.74651 0.48907 0.47951 0.0
H716 H 0.56642 0.49878 0.42738 0.0
H717 H 0.59243 0.52791 0.46562 0.0
H718 H 0.63865 0.54439 0.49717 0.0
H719 H 0.68812 0.54191 0.51138 0.0
Mn720 Mn 0.24192 0.63901 0.57706 0.0
Mn721 Mn 0.21179 0.55926 0.56114 0.0
C722 C 0.20008 0.61464 0.54855 0.0
C723 C 0.28141 0.69433 0.57428 0.0
C724 C 0.19423 0.58093 0.60678 0.0
O725 O 0.27718 0.62943 0.58956 0.0
O726 O 0.25671 0.57687 0.57689 0.0
C727 C 0.26001 0.56812 0.52429 0.0
N728 N 0.22796 0.55658 0.53079 0.0
C729 C 0.20704 0.53465 0.49146 0.0
C730 C 0.23981 0.5461 0.48439 0.0
C731 C 0.2664 0.56295 0.50087 0.0
C732 C 0.20218 0.54031 0.51508 0.0
H733 H 0.28051 0.5812 0.53689 0.0
C734 C 0.27913 0.60341 0.58741 0.0
O735 O 0.2649 0.68274 0.59345 0.0
O736 O 0.27478 0.67386 0.55655 0.0
N737 N 0.16872 0.53912 0.54571 0.0
C738 C 0.13883 0.53143 0.55502 0.0
C739 C 0.10976 0.51545 0.54061 0.0
C740 C 0.11169 0.50736 0.51688 0.0
C741 C 0.14268 0.51519 0.50778 0.0
C742 C 0.17077 0.5309 0.52302 0.0
H743 H 0.13721 0.53768 0.57323 0.0
O744 O 0.20489 0.64086 0.56011 0.0
O745 O 0.22011 0.60364 0.55394 0.0
O746 O 0.21079 0.61167 0.60309 0.0
O747 O 0.19309 0.55917 0.59235 0.0
C748 C 0.14691 0.50872 0.48404 0.0
C749 C 0.17907 0.51846 0.47589 0.0
H750 H 0.24486 0.54237 0.46631 0.0
H751 H 0.29177 0.57201 0.49551 0.0
H752 H 0.08594 0.50954 0.54776 0.0
H753 H 0.08927 0.49539 0.50575 0.0
H754 H 0.12567 0.49676 0.47182 0.0
H755 H 0.18206 0.51379 0.45752 0.0
Mn756 Mn 0.61312 0.22943 0.74729 0.0
Mn757 Mn 0.66479 0.2034 0.72896 0.0
C758 C 0.59253 0.18509 0.72091 0.0
C759 C 0.59423 0.26667 0.74374 0.0
C760 C 0.63546 0.19174 0.77799 0.0
O761 O 0.65914 0.2666 0.75665 0.0
O762 O 0.69179 0.25135 0.73762 0.0
C763 C 0.6906 0.2406 0.6851 0.0
N764 N 0.67504 0.2114 0.69629 0.0
C765 C 0.67403 0.18168 0.66092 0.0
C766 C 0.69005 0.21144 0.64898 0.0
C767 C 0.6982 0.241 0.6611 0.0
C768 C 0.66672 0.18278 0.68474 0.0
H769 H 0.69714 0.26336 0.69444 0.0
C770 C 0.68743 0.27218 0.74968 0.0
O771 O 0.593 0.25279 0.76371 0.0
O772 O 0.60592 0.25852 0.72579 0.0
N773 N 0.64233 0.15776 0.71982 0.0
C774 C 0.62477 0.13101 0.73339 0.0
C775 C 0.61425 0.09943 0.72383 0.0
C776 C 0.62235 0.0957 0.70057 0.0
C777 C 0.64046 0.12359 0.68695 0.0
C778 C 0.64982 0.1544 0.69731 0.0
H779 H 0.61911 0.13371 0.75145 0.0
O780 O 0.57268 0.19037 0.73382 0.0
O781 O 0.62423 0.20643 0.72364 0.0
O782 O 0.61546 0.20235 0.77423 0.0
O783 O 0.65609 0.1929 0.76286 0.0
C784 C 0.64837 0.12196 0.66316 0.0
C785 C 0.66488 0.15096 0.65009 0.0
H786 H 0.69611 0.21188 0.63051 0.0
H787 H 0.71052 0.26406 0.652 0.0
H788 H 0.60022 0.07802 0.73445 0.0
H789 H 0.61418 0.0713 0.69326 0.0
H790 H 0.64116 0.09847 0.65457 0.0
H791 H 0.67026 0.14933 0.6317 0.0
Mn792 Mn 0.40918 0.62742 0.9031 0.0
Mn793 Mn 0.36942 0.55025 0.92313 0.0
C794 C 0.43773 0.61072 0.92806 0.0
C795 C 0.42201 0.68196 0.90587 0.0
C796 C 0.39277 0.56714 0.87282 0.0
O797 O 0.36021 0.61247 0.89728 0.0
O798 O 0.3361 0.56393 0.91552 0.0
C799 C 0.34254 0.55938 0.96797 0.0
N800 N 0.36114 0.54901 0.95618 0.0
C801 C 0.36944 0.52541 0.99135 0.0
C802 C 0.35056 0.53603 0.00394 0.0
C803 C 0.3372 0.55323 0.99222 0.0
C804 C 0.37441 0.53276 0.96734 0.0
H805 H 0.33183 0.57216 0.95891 0.0
C806 C 0.33466 0.58715 0.9049 0.0
O807 O 0.42217 0.66836 0.88575 0.0
O808 O 0.41452 0.66394 0.92447 0.0
N809 N 0.39846 0.53378 0.93136 0.0
C810 C 0.41807 0.5274 0.91708 0.0
C811 C 0.43361 0.51057 0.92612 0.0
C812 C 0.42836 0.49998 0.94959 0.0
C813 C 0.40806 0.50681 0.96394 0.0
C814 C 0.39369 0.52416 0.95406 0.0
H815 H 0.42153 0.53477 0.89886 0.0
O816 O 0.4536 0.63503 0.91396 0.0
O817 O 0.40535 0.59654 0.92693 0.0
O818 O 0.40807 0.59817 0.87571 0.0
O819 O 0.37644 0.54728 0.88898 0.0
C820 C 0.40262 0.49832 0.98794 0.0
C821 C 0.38355 0.50786 0.00168 0.0
H822 H 0.34615 0.5311 0.0226 0.0
H823 H 0.32255 0.56144 0.00181 0.0
H824 H 0.44929 0.50546 0.91494 0.0
H825 H 0.44037 0.48699 0.95649 0.0
H826 H 0.41363 0.48517 0.99615 0.0
H827 H 0.37999 0.50168 0.0202 0.0
Mn828 Mn 0.7906 0.41722 0.07933 0.0
Mn829 Mn 0.83417 0.37802 0.0874 0.0
C830 C 0.83143 0.43658 0.10873 0.0
C831 C 0.74257 0.42016 0.08445 0.0
C832 C 0.84756 0.42626 0.04836 0.0
O833 O 0.76326 0.37436 0.06112 0.0
O834 O 0.79143 0.34834 0.06975 0.0
C835 C 0.78832 0.32693 0.11968 0.0
N836 N 0.81947 0.35155 0.11474 0.0
C837 C 0.84283 0.34139 0.14977 0.0
C838 C 0.811 0.31583 0.15522 0.0
C839 C 0.7836 0.30873 0.1402 0.0
C840 C 0.84586 0.35904 0.12932 0.0
H841 H 0.7673 0.32118 0.10799 0.0
C842 C 0.76664 0.34917 0.06018 0.0
O843 O 0.76139 0.4331 0.06645 0.0
O844 O 0.75214 0.40616 0.09993 0.0
N845 N 0.87611 0.40223 0.10414 0.0
C846 C 0.90491 0.42827 0.0967 0.0
C847 C 0.93491 0.43803 0.10937 0.0
C848 C 0.93509 0.4207 0.12939 0.0
C849 C 0.90511 0.39405 0.13678 0.0
C850 C 0.87602 0.38543 0.12341 0.0
H851 H 0.90513 0.44108 0.08093 0.0
O852 O 0.82039 0.45491 0.10016 0.0
O853 O 0.81721 0.40623 0.10043 0.0
O854 O 0.82594 0.43395 0.05418 0.0
O855 O 0.85202 0.40493 0.05897 0.0
C856 C 0.90281 0.37624 0.15721 0.0
C857 C 0.87162 0.35014 0.16383 0.0
H858 H 0.80731 0.30156 0.17092 0.0
H859 H 0.75896 0.28909 0.14431 0.0
H860 H 0.95791 0.45868 0.10359 0.0
H861 H 0.95825 0.42839 0.13916 0.0
H862 H 0.92479 0.38266 0.1681 0.0
H863 H 0.87009 0.33689 0.17972 0.0
Mn864 Mn 0.38565 0.78891 0.24174 0.0
Mn865 Mn 0.46834 0.82578 0.2538 0.0
C866 C 0.40937 0.8298 0.27059 0.0
C867 C 0.33172 0.74598 0.24641 0.0
C868 C 0.4389 0.84027 0.21045 0.0
O869 O 0.39871 0.75761 0.22711 0.0
O870 O 0.45324 0.78221 0.23766 0.0
C871 C 0.4682 0.77997 0.28928 0.0
N872 N 0.476 0.81095 0.28331 0.0
C873 C 0.50016 0.8325 0.3221 0.0
C874 C 0.4926 0.80085 0.3286 0.0
C875 C 0.47651 0.77448 0.31212 0.0
C876 C 0.49154 0.83653 0.29901 0.0
H877 H 0.45566 0.75959 0.27671 0.0
C878 C 0.42664 0.75851 0.22792 0.0
O879 O 0.34026 0.7629 0.22726 0.0
O880 O 0.35445 0.75412 0.263 0.0
N881 N 0.48602 0.86779 0.2696 0.0
C882 C 0.48954 0.8963 0.26105 0.0
C883 C 0.5041 0.92483 0.27563 0.0
C884 C 0.51501 0.9238 0.29878 0.0
C885 C 0.51139 0.89425 0.30713 0.0
C886 C 0.49695 0.86667 0.29172 0.0
H887 H 0.48107 0.89721 0.2433 0.0
O888 O 0.38102 0.82258 0.26052 0.0
O889 O 0.42285 0.81272 0.26348 0.0
O890 O 0.40854 0.82142 0.21552 0.0
O891 O 0.46331 0.84336 0.22331 0.0
C892 C 0.5208 0.89089 0.33031 0.0
C893 C 0.51519 0.86004 0.33779 0.0
H894 H 0.49872 0.79646 0.34626 0.0
H895 H 0.47042 0.74995 0.31706 0.0
H896 H 0.50675 0.94753 0.26907 0.0
H897 H 0.52588 0.94576 0.31007 0.0
H898 H 0.53188 0.91175 0.34265 0.0
H899 H 0.52208 0.85766 0.35576 0.0
C900 C 0.24517 0.67589 0.23136 0.0
C901 C 0.23114 0.66755 0.25382 0.0
H902 H 0.28789 0.70758 0.21142 0.0
C903 C 0.25088 0.68493 0.27395 0.0
H904 H 0.23046 0.66312 0.21558 0.0
C905 C 0.28394 0.70983 0.27159 0.0
C906 C 0.29751 0.71857 0.24907 0.0
H907 H 0.24078 0.67963 0.2915 0.0
H908 H 0.29856 0.72293 0.28733 0.0
C909 C 0.2779 0.70137 0.22898 0.0
C910 C 0.62822 0.27864 0.4638 0.0
C911 C 0.63216 0.25928 0.4464 0.0
H912 H 0.61841 0.31777 0.47119 0.0
C913 C 0.62586 0.26289 0.42247 0.0
H914 H 0.6332 0.27655 0.48231 0.0
C915 C 0.61669 0.28607 0.41613 0.0
C916 C 0.6146 0.30657 0.43354 0.0
H917 H 0.62914 0.24869 0.40859 0.0
H918 H 0.61325 0.28931 0.39755 0.0
C919 C 0.61979 0.3022 0.45744 0.0
C920 C 0.33283 0.57609 0.61997 0.0
C921 C 0.3622 0.60628 0.62454 0.0
H922 H 0.28353 0.5514 0.60433 0.0
C923 C 0.36504 0.63497 0.61494 0.0
H924 H 0.33014 0.55354 0.6269 0.0
C925 C 0.33829 0.63383 0.60236 0.0
C926 C 0.30841 0.60385 0.59859 0.0
H927 H 0.38767 0.65845 0.61771 0.0
H928 H 0.34086 0.65654 0.59582 0.0
C929 C 0.30623 0.57485 0.60698 0.0
C930 C 0.76455 0.35506 0.74211 0.0
C931 C 0.76541 0.37162 0.76335 0.0
H932 H 0.73965 0.31001 0.72145 0.0
C933 C 0.74209 0.35417 0.78067 0.0
H934 H 0.78199 0.36777 0.72831 0.0
C935 C 0.71748 0.32146 0.77648 0.0
C936 C 0.71608 0.30521 0.75507 0.0
H937 H 0.74219 0.36629 0.79717 0.0
H938 H 0.69908 0.30903 0.78983 0.0
C939 C 0.74036 0.32196 0.73818 0.0
C940 C 0.45253 0.76836 0.92958 0.0
C941 C 0.44686 0.78317 0.90989 0.0
H942 H 0.44839 0.72444 0.94382 0.0
C943 C 0.43235 0.76403 0.88909 0.0
H944 H 0.46399 0.78229 0.94584 0.0
C945 C 0.42439 0.73116 0.88778 0.0
C946 C 0.42998 0.71649 0.90745 0.0
H947 H 0.42772 0.77476 0.87367 0.0
H948 H 0.41365 0.71717 0.87141 0.0
C949 C 0.44368 0.7352 0.92845 0.0
C950 C 0.67169 0.4357 0.07085 0.0
C951 C 0.64865 0.41725 0.08809 0.0
H952 H 0.71941 0.45129 0.05636 0.0
C953 C 0.657 0.40017 0.10452 0.0
H954 H 0.66589 0.44911 0.05798 0.0
C955 C 0.68786 0.4016 0.10372 0.0
C956 C 0.71074 0.41993 0.08636 0.0
H957 H 0.63965 0.3857 0.11793 0.0
H958 H 0.69357 0.388 0.11647 0.0
C959 C 0.70236 0.43701 0.06999 0.0
C960 C 0.34821 0.78048 0.59247 0.0
C961 C 0.35464 0.79687 0.5709 0.0
H962 H 0.31956 0.73535 0.61048 0.0
C963 C 0.33714 0.77882 0.55025 0.0
H964 H 0.36135 0.79367 0.60862 0.0
C965 C 0.31389 0.74525 0.55123 0.0
C966 C 0.30694 0.72932 0.57294 0.0
H967 H 0.34113 0.79052 0.53332 0.0
H968 H 0.3007 0.73195 0.53512 0.0
C969 C 0.3243 0.74718 0.59354 0.0
C970 C 0.57587 0.33443 0.75942 0.0
C971 C 0.56615 0.34069 0.73728 0.0
H972 H 0.59183 0.30571 0.7789 0.0
C973 C 0.56505 0.32174 0.71736 0.0
H974 H 0.57661 0.34842 0.77507 0.0
C975 C 0.57435 0.2978 0.71948 0.0
C976 C 0.58392 0.29157 0.74164 0.0
H977 H 0.55707 0.32535 0.70009 0.0
H978 H 0.57363 0.28383 0.70382 0.0
C979 C 0.58437 0.30992 0.76162 0.0
C980 C 0.24271 0.55801 0.91083 0.0
C981 C 0.2394 0.58211 0.8986 0.0
H982 H 0.27506 0.54043 0.92218 0.0
C983 C 0.2676 0.60779 0.8883 0.0
H984 H 0.22153 0.53829 0.91935 0.0
C985 C 0.29841 0.60918 0.88998 0.0
C986 C 0.30173 0.585 0.90216 0.0
H987 H 0.26586 0.62697 0.87911 0.0
H988 H 0.31967 0.62943 0.88194 0.0
C989 C 0.27344 0.55932 0.91247 0.0
C990 C 0.71979 0.26553 0.02889 0.0
C991 C 0.68831 0.26236 0.02465 0.0
H992 H 0.76929 0.2954 0.0435 0.0
C993 C 0.68269 0.28759 0.03261 0.0
H994 H 0.72472 0.24631 0.02312 0.0
C995 C 0.70823 0.3158 0.04396 0.0
C996 C 0.73985 0.31918 0.04801 0.0
H997 H 0.65852 0.28556 0.02998 0.0
H998 H 0.70303 0.33483 0.04978 0.0
C999 C 0.74527 0.29359 0.04057 0.0
C1000 C 0.39962 0.67323 0.20315 0.0
C1001 C 0.42969 0.677 0.19486 0.0
H1002 H 0.37505 0.69612 0.21982 0.0
C1003 C 0.45913 0.70742 0.19849 0.0
H1004 H 0.37668 0.64989 0.20105 0.0
C1005 C 0.45835 0.73381 0.20963 0.0
C1006 C 0.42805 0.73037 0.21711 0.0
H1007 H 0.48273 0.71089 0.19251 0.0
H1008 H 0.48135 0.75709 0.21191 0.0
C1009 C 0.39874 0.69972 0.21392 0.0
C1010 C 0.73723 0.3934 0.36978 0.0
C1011 C 0.76194 0.42174 0.35911 0.0
H1012 H 0.69269 0.37167 0.38954 0.0
C1013 C 0.76112 0.45118 0.36143 0.0
H1014 H 0.73747 0.37048 0.36846 0.0
C1015 C 0.73562 0.45205 0.37376 0.0
C1016 C 0.71027 0.42337 0.38374 0.0
H1017 H 0.77996 0.47342 0.35344 0.0
H1018 H 0.73529 0.47493 0.37495 0.0
C1019 C 0.7116 0.39414 0.38182 0.0
C1020 C 0.17231 0.59234 0.48463 0.0
C1021 C 0.13932 0.586 0.48499 0.0
H1022 H 0.21746 0.60671 0.5046 0.0
C1023 C 0.12668 0.58992 0.50653 0.0
H1024 H 0.18302 0.59056 0.46816 0.0
C1025 C 0.14628 0.59875 0.52738 0.0
C1026 C 0.17871 0.60374 0.52701 0.0
H1027 H 0.10176 0.58637 0.50724 0.0
H1028 H 0.1361 0.60157 0.54379 0.0
C1029 C 0.1919 0.60138 0.50542 0.0
C1030 C 0.57387 0.16063 0.64405 0.0
C1031 C 0.53478 0.12059 0.64756 0.0
H1032 H 0.61983 0.20253 0.67077 0.0
C1033 C 0.51111 0.1093 0.67544 0.0
H1034 H 0.58515 0.16873 0.62706 0.0
C1035 C 0.53566 0.13027 0.70169 0.0
C1036 C 0.57784 0.16416 0.69958 0.0
H1037 H 0.48681 0.08753 0.67653 0.0
H1038 H 0.52455 0.12333 0.71884 0.0
C1039 C 0.59625 0.17994 0.67139 0.0
C1040 C 0.42216 0.56464 0.79853 0.0
C1041 C 0.40471 0.51925 0.79716 0.0
H1042 H 0.4319 0.60702 0.83016 0.0
C1043 C 0.37189 0.49073 0.81721 0.0
H1044 H 0.43883 0.58058 0.78535 0.0
C1045 C 0.37024 0.50924 0.84489 0.0
C1046 C 0.39427 0.55329 0.84979 0.0
H1047 H 0.36006 0.4643 0.81491 0.0
H1048 H 0.35494 0.49371 0.85877 0.0
C1049 C 0.41884 0.58071 0.82686 0.0
C1050 C 0.89553 0.50284 0.99438 0.0
C1051 C 0.91818 0.48394 0.98033 0.0
H1052 H 0.8515 0.48646 0.02484 0.0
C1053 C 0.92713 0.45425 0.99573 0.0
H1054 H 0.89311 0.52217 0.98605 0.0
C1055 C 0.89901 0.43234 0.01897 0.0
C1056 C 0.86952 0.44406 0.02902 0.0
H1057 H 0.94311 0.44597 0.98831 0.0
H1058 H 0.89992 0.41203 0.027 0.0
C1059 C 0.86849 0.47932 0.01764 0.0
C1060 C 0.48519 0.89491 0.15936 0.0
C1061 C 0.45876 0.89212 0.14501 0.0
H1062 H 0.4998 0.88111 0.1914 0.0
C1063 C 0.42597 0.87264 0.15252 0.0
H1064 H 0.51069 0.90928 0.15377 0.0
C1065 C 0.41966 0.85637 0.17391 0.0
C1066 C 0.446 0.85893 0.18829 0.0
H1067 H 0.4051 0.86961 0.14162 0.0
H1068 H 0.39399 0.84138 0.17898 0.0
C1069 C 0.4789 0.87865 0.18085 0.0
C1070 C 0.59028 0.4586 0.32117 0.0
C1071 C 0.55918 0.43267 0.31304 0.0
H1072 H 0.62875 0.47677 0.34805 0.0
C1073 C 0.54357 0.40382 0.32619 0.0
H1074 H 0.60347 0.48078 0.31114 0.0
C1075 C 0.5584 0.40122 0.34724 0.0
C1076 C 0.58914 0.42749 0.35561 0.0
H1077 H 0.51994 0.3832 0.32006 0.0
H1078 H 0.54568 0.37874 0.35701 0.0
C1079 C 0.60485 0.45619 0.34231 0.0
C1080 C 0.43379 0.85393 0.33475 0.0
C1081 C 0.436 0.88484 0.33627 0.0
H1082 H 0.42321 0.81218 0.31266 0.0
C1083 C 0.42908 0.89747 0.31585 0.0
H1084 H 0.43801 0.84321 0.35034 0.0
C1085 C 0.42112 0.8799 0.29424 0.0
C1086 C 0.41999 0.84954 0.29273 0.0
H1087 H 0.42949 0.92072 0.3166 0.0
H1088 H 0.4158 0.88996 0.27872 0.0
C1089 C 0.42556 0.83633 0.31323 0.0
C1090 C 0.55515 0.43731 0.48537 0.0
C1091 C 0.5786 0.44954 0.5044 0.0
H1092 H 0.54351 0.416 0.45012 0.0
C1093 C 0.6084 0.44884 0.50237 0.0
H1094 H 0.53146 0.43646 0.48669 0.0
C1095 C 0.61493 0.43677 0.48168 0.0
C1096 C 0.59212 0.42575 0.46244 0.0
H1097 H 0.6264 0.45714 0.51702 0.0
H1098 H 0.63769 0.43566 0.48081 0.0
C1099 C 0.5619 0.42548 0.46454 0.0
C1100 C 0.14351 0.52643 0.65657 0.0
C1101 C 0.14673 0.5498 0.67382 0.0
H1102 H 0.15558 0.5178 0.6218 0.0
C1103 C 0.16464 0.58331 0.66855 0.0
H1104 H 0.13014 0.50045 0.66028 0.0
C1105 C 0.17926 0.59333 0.64658 0.0
C1106 C 0.17658 0.57005 0.6294 0.0
H1107 H 0.16781 0.60186 0.68162 0.0
H1108 H 0.19327 0.61943 0.6433 0.0
C1109 C 0.15817 0.53643 0.63457 0.0
C1110 C 0.66137 0.14142 0.83345 0.0
C1111 C 0.62652 0.13419 0.85293 0.0
H1112 H 0.67864 0.16183 0.79235 0.0
C1113 C 0.60509 0.15878 0.85147 0.0
H1114 H 0.67538 0.12887 0.83586 0.0
C1115 C 0.60751 0.17731 0.82336 0.0
C1116 C 0.6346 0.17702 0.80083 0.0
H1117 H 0.58709 0.15647 0.86436 0.0
H1118 H 0.59244 0.18853 0.81994 0.0
C1119 C 0.66195 0.16054 0.80597 0.0
C1120 C 0.46179 0.61607 0.00484 0.0
C1121 C 0.50279 0.6184 0.00119 0.0
H1122 H 0.41286 0.60491 0.97852 0.0
C1123 C 0.52545 0.62969 0.97283 0.0
H1124 H 0.45076 0.61344 0.02196 0.0
C1125 C 0.49918 0.62166 0.94678 0.0
C1126 C 0.45583 0.61007 0.94939 0.0
H1127 H 0.55063 0.63416 0.97155 0.0
H1128 H 0.50974 0.6248 0.92944 0.0
C1129 C 0.43774 0.60856 0.97775 0.0
C1130 C 0.89538 0.5124 0.16214 0.0
C1131 C 0.89325 0.48351 0.18512 0.0
H1132 H 0.87927 0.50846 0.11903 0.0
C1133 C 0.86085 0.43899 0.18439 0.0
H1134 H 0.91208 0.53867 0.16397 0.0
C1135 C 0.84315 0.42223 0.15535 0.0
C1136 C 0.85209 0.44889 0.1305 0.0
H1137 H 0.8571 0.42331 0.19922 0.0
H1138 H 0.82514 0.39636 0.15328 0.0
C1139 C 0.87671 0.49321 0.1339 0.0
loop_
_geom_bond_atom_site_label_1
_geom_bond_atom_site_label_2
_geom_bond_distance
_geom_bond_site_symmetry_2
_ccdc_geom_bond_type
C0 C1 1.560 . S
C0 H61 0.959 . S
C0 H62 0.959 . S
C0 H63 0.960 . S
C1 C0 1.560 . S
C1 O56 1.426 . S
C1 H60 0.980 . S
C2 C3 1.407 . S
C2 C7 1.418 . S
C2 O56 1.334 . S
C3 C2 1.407 . S
C3 C4 1.360 . S
C3 H64 0.929 . S
C4 C3 1.360 . S
C4 C5 1.401 . S
C4 C8 1.527 . S
C5 C4 1.401 . S
C5 C6 1.405 . S
C5 C38 1.587 . S
C6 C5 1.405 . S
C6 C7 1.332 . S
C6 C9 1.496 . S
C7 C2 1.418 . S
C7 C6 1.332 . S
C7 H65 0.929 . S
C8 C4 1.527 . S
C8 H66 0.959 . S
C8 H67 0.961 . S
C8 H68 0.961 . S
C9 C6 1.496 . S
C9 H69 0.960 . S
C9 H70 0.960 . S
C9 H71 0.961 . S
C10 C11 1.517 . S
C10 H73 0.961 . S
C10 H74 0.960 . S
C10 H75 0.959 . S
C11 C10 1.517 . S
C11 O59 1.468 . S
C11 H72 0.980 . S
C12 C13 1.349 . S
C12 C17 1.367 . S
C12 O59 1.408 . S
C13 C12 1.349 . S
C13 C14 1.407 . S
C13 H76 0.930 . S
C14 C13 1.407 . S
C14 C15 1.449 . S
C14 C18 1.535 . S
C15 C14 1.449 . S
C15 C16 1.384 . S
C15 C40 1.553 1_655 S
C16 C15 1.384 . S
C16 C17 1.364 . S
C16 C19 1.450 . S
C17 C12 1.367 . S
C17 C16 1.364 . S
C17 H77 0.931 . S
C18 C14 1.535 . S
C18 H78 0.959 1_655 S
C18 H79 0.961 . S
C18 H80 0.959 . S
C19 C16 1.450 . S
C19 H81 0.960 . S
C19 H82 0.960 1_655 S
C19 H83 0.960 . S
C20 C21 1.309 . S
C20 C25 1.304 . S
C20 O58 1.435 . S
C21 C20 1.309 . S
C21 C22 1.476 . S
C21 H85 0.930 . S
C22 C21 1.476 . S
C22 C23 1.400 . S
C22 C26 1.567 . S
C23 C22 1.400 . S
C23 C24 1.373 . S
C23 C45 1.432 . S
C24 C23 1.373 . S
C24 C25 1.339 . S
C24 C27 1.530 . S
C25 C20 1.304 . S
C25 C24 1.339 . S
C25 H86 0.930 . S
C26 C22 1.567 . S
C26 H87 0.961 . S
C26 H88 0.960 . S
C26 H89 0.958 . S
C27 C24 1.530 . S
C27 H90 0.961 . S
C27 H91 0.960 . S
C27 H92 0.960 . S
C28 C29 1.530 . S
C28 H94 0.961 . S
C28 H95 0.961 . S
C28 H96 0.959 . S
C29 C28 1.530 . S
C29 O57 1.412 . S
C29 H93 0.980 . S
C30 C31 1.288 . S
C30 C35 1.377 . S
C30 O57 1.393 . S
C31 C30 1.288 . S
C31 C32 1.369 . S
C31 H97 0.932 . S
C32 C31 1.369 . S
C32 C33 1.398 . S
C32 C36 1.527 . S
C33 C32 1.398 . S
C33 C34 1.380 . S
C33 C47 1.497 . S
C34 C33 1.380 . S
C34 C35 1.383 . S
C34 C37 1.603 . S
C35 C30 1.377 . S
C35 C34 1.383 . S
C35 H98 0.929 . S
C36 C32 1.527 . S
C36 H99 0.961 . S
C36 H100 0.959 1_455 S
C36 H101 0.959 . S
C37 C34 1.603 . S
C37 H102 0.960 . S
C37 H103 0.962 . S
C37 H104 0.961 . S
C38 C5 1.587 . S
C38 C39 1.360 . S
C38 C51 1.412 . S
C39 C38 1.360 . S
C39 C40 1.365 . S
C39 H105 0.929 . S
C40 C15 1.553 1_455 S
C40 C39 1.365 . S
C40 C41 1.404 1_455 S
C41 C40 1.404 1_655 S
C41 C42 1.395 . S
C41 C52 1.451 1_655 S
C42 C41 1.395 . S
C42 C43 1.322 . S
C42 H106 0.930 . S
C43 C42 1.322 . S
C43 C44 1.459 . S
C43 H107 0.929 . S
C44 C43 1.459 . S
C44 C45 1.445 . S
C44 C53 1.395 1_655 S
C45 C23 1.432 . S
C45 C44 1.445 . S
C45 C46 1.370 . S
C46 C45 1.370 . S
C46 C47 1.438 1_655 S
C46 H108 0.930 . S
C47 C33 1.497 . S
C47 C46 1.438 1_455 S
C47 C48 1.360 . S
C48 C47 1.360 . S
C48 C49 1.401 . S
C48 C53 1.446 . S
C49 C48 1.401 . S
C49 C50 1.347 . S
C49 H109 0.929 . S
C50 C49 1.347 . S
C50 C51 1.455 . S
C50 H110 0.930 . S
C51 C38 1.412 . S
C51 C50 1.455 . S
C51 C52 1.331 . S
C52 C41 1.451 1_455 S
C52 C51 1.331 . S
C52 C53 1.497 . S
C53 C44 1.395 1_455 S
C53 C48 1.446 . S
C53 C52 1.497 . S
C54 C55 1.582 . S
C54 H111 0.962 . S
C54 H112 0.959 . S
C54 H113 0.958 . S
C55 C54 1.582 . S
C55 O58 1.458 . S
C55 H84 0.980 . S
O56 C1 1.426 . S
O56 C2 1.334 . S
O57 C29 1.412 . S
O57 C30 1.393 . S
O58 C20 1.435 . S
O58 C55 1.458 . S
O59 C11 1.468 . S
O59 C12 1.408 . S
H60 C1 0.980 . S
H61 C0 0.959 . S
H62 C0 0.959 . S
H63 C0 0.960 . S
H64 C3 0.929 . S
H65 C7 0.929 . S
H66 C8 0.959 . S
H67 C8 0.961 . S
H68 C8 0.961 . S
H69 C9 0.960 . S
H70 C9 0.960 . S
H71 C9 0.961 . S
H72 C11 0.980 . S
H73 C10 0.961 . S
H74 C10 0.960 . S
H75 C10 0.959 . S
H76 C13 0.930 . S
H77 C17 0.931 . S
H78 C18 0.959 1_455 S
H79 C18 0.961 . S
H80 C18 0.959 . S
H81 C19 0.960 . S
H82 C19 0.960 1_455 S
H83 C19 0.960 . S
H84 C55 0.980 . S
H85 C21 0.930 . S
H86 C25 0.930 . S
H87 C26 0.961 . S
H88 C26 0.960 . S
H89 C26 0.958 . S
H90 C27 0.961 . S
H91 C27 0.960 . S
H92 C27 0.960 . S
H93 C29 0.980 . S
H94 C28 0.961 . S
H95 C28 0.961 . S
H96 C28 0.959 . S
H97 C31 0.932 . S
H98 C35 0.929 . S
H99 C36 0.961 . S
H100 C36 0.959 1_655 S
H101 C36 0.959 . S
H102 C37 0.960 . S
H103 C37 0.962 . S
H104 C37 0.961 . S
H105 C39 0.929 . S
H106 C42 0.930 . S
H107 C43 0.929 . S
H108 C46 0.930 . S
H109 C49 0.929 . S
H110 C50 0.930 . S
H111 C54 0.962 . S
H112 C54 0.959 . S
H113 C54 0.958 . S
C114 C115 1.560 . S
C114 H175 0.959 . S
C114 H176 0.959 . S
C114 H177 0.960 . S
C115 C114 1.560 . S
C115 O170 1.426 . S
C115 H174 0.980 . S
C116 C117 1.407 . S
C116 C121 1.418 . S
C116 O170 1.334 . S
C117 C116 1.407 . S
C117 C118 1.360 . S
C117 H178 0.929 . S
C118 C117 1.360 . S
C118 C119 1.401 . S
C118 C122 1.527 . S
C119 C118 1.401 . S
C119 C120 1.405 . S
C119 C152 1.587 . S
C120 C119 1.405 . S
C120 C121 1.332 . S
C120 C123 1.496 . S
C121 C116 1.418 . S
C121 C120 1.332 . S
C121 H179 0.929 . S
C122 C118 1.527 . S
C122 H180 0.959 . S
C122 H181 0.961 . S
C122 H182 0.961 . S
C123 C120 1.496 . S
C123 H183 0.960 . S
C123 H184 0.960 . S
C123 H185 0.961 . S
C124 C125 1.517 . S
C124 H187 0.961 . S
C124 H188 0.960 . S
C124 H189 0.959 . S
C125 C124 1.517 . S
C125 O173 1.468 . S
C125 H186 0.980 . S
C126 C127 1.349 . S
C126 C131 1.367 . S
C126 O173 1.408 . S
C127 C126 1.349 . S
C127 C128 1.407 . S
C127 H190 0.930 . S
C128 C127 1.407 . S
C128 C129 1.449 . S
C128 C132 1.535 . S
C129 C128 1.449 . S
C129 C130 1.384 . S
C129 C154 1.553 . S
C130 C129 1.384 . S
C130 C131 1.364 . S
C130 C133 1.450 . S
C131 C126 1.367 . S
C131 C130 1.364 . S
C131 H191 0.931 . S
C132 C128 1.535 . S
C132 H192 0.959 . S
C132 H193 0.961 . S
C132 H194 0.959 . S
C133 C130 1.450 . S
C133 H195 0.960 . S
C133 H196 0.960 . S
C133 H197 0.960 . S
C134 C135 1.309 . S
C134 C139 1.304 . S
C134 O172 1.435 . S
C135 C134 1.309 . S
C135 C136 1.476 . S
C135 H199 0.930 . S
C136 C135 1.476 . S
C136 C137 1.400 . S
C136 C140 1.567 . S
C137 C136 1.400 . S
C137 C138 1.373 . S
C137 C159 1.432 . S
C138 C137 1.373 . S
C138 C139 1.339 . S
C138 C141 1.530 . S
C139 C134 1.304 . S
C139 C138 1.339 . S
C139 H200 0.930 . S
C140 C136 1.567 . S
C140 H201 0.961 . S
C140 H202 0.960 . S
C140 H203 0.958 . S
C141 C138 1.530 . S
C141 H204 0.961 . S
C141 H205 0.960 . S
C141 H206 0.960 . S
C142 C143 1.530 . S
C142 H208 0.961 . S
C142 H209 0.961 . S
C142 H210 0.959 . S
C143 C142 1.530 . S
C143 O171 1.412 . S
C143 H207 0.980 . S
C144 C145 1.288 . S
C144 C149 1.377 . S
C144 O171 1.393 . S
C145 C144 1.288 . S
C145 C146 1.369 . S
C145 H211 0.932 . S
C146 C145 1.369 . S
C146 C147 1.398 . S
C146 C150 1.527 1_565 S
C147 C146 1.398 . S
C147 C148 1.380 . S
C147 C161 1.497 1_565 S
C148 C147 1.380 . S
C148 C149 1.383 . S
C148 C151 1.603 . S
C149 C144 1.377 . S
C149 C148 1.383 . S
C149 H212 0.929 . S
C150 C146 1.527 1_545 S
C150 H213 0.965 . S
C150 H214 0.959 . S
C150 H215 0.959 1_545 S
C151 C148 1.603 . S
C151 H216 0.960 . S
C151 H217 0.962 . S
C151 H218 0.961 . S
C152 C119 1.587 . S
C152 C153 1.360 . S
C152 C165 1.412 . S
C153 C152 1.360 . S
C153 C154 1.365 1_565 S
C153 H219 0.929 . S
C154 C129 1.553 . S
C154 C153 1.365 1_545 S
C154 C155 1.404 . S
C155 C154 1.404 . S
C155 C156 1.395 . S
C155 C166 1.451 . S
C156 C155 1.395 . S
C156 C157 1.322 . S
C156 H220 0.930 . S
C157 C156 1.322 . S
C157 C158 1.459 . S
C157 H221 0.929 . S
C158 C157 1.459 . S
C158 C159 1.445 . S
C158 C167 1.395 . S
C159 C137 1.432 . S
C159 C158 1.445 . S
C159 C160 1.370 . S
C160 C159 1.370 . S
C160 C161 1.438 . S
C160 H222 0.930 . S
C161 C147 1.497 1_545 S
C161 C160 1.438 . S
C161 C162 1.360 1_545 S
C162 C161 1.360 1_565 S
C162 C163 1.401 . S
C162 C167 1.446 1_565 S
C163 C162 1.401 . S
C163 C164 1.347 . S
C163 H223 0.929 . S
C164 C163 1.347 . S
C164 C165 1.455 . S
C164 H224 0.930 . S
C165 C152 1.412 . S
C165 C164 1.455 . S
C165 C166 1.331 1_565 S
C166 C155 1.451 . S
C166 C165 1.331 1_545 S
C166 C167 1.497 . S
C167 C158 1.395 . S
C167 C162 1.446 1_545 S
C167 C166 1.497 . S
C168 C169 1.582 . S
C168 H225 0.962 . S
C168 H226 0.959 . S
C168 H227 0.958 . S
C169 C168 1.582 . S
C169 O172 1.458 . S
C169 H198 0.980 . S
O170 C115 1.426 . S
O170 C116 1.334 . S
O171 C143 1.412 . S
O171 C144 1.393 . S
O172 C134 1.435 . S
O172 C169 1.458 . S
O173 C125 1.468 . S
O173 C126 1.408 . S
H174 C115 0.980 . S
H175 C114 0.959 . S
H176 C114 0.959 . S
H177 C114 0.960 . S
H178 C117 0.929 . S
H179 C121 0.929 . S
H180 C122 0.959 . S
H181 C122 0.961 . S
H182 C122 0.961 . S
H183 C123 0.960 . S
H184 C123 0.960 . S
H185 C123 0.961 . S
H186 C125 0.980 . S
H187 C124 0.961 . S
H188 C124 0.960 . S
H189 C124 0.959 . S
H190 C127 0.930 . S
H191 C131 0.931 . S
H192 C132 0.959 . S
H193 C132 0.961 . S
H194 C132 0.959 . S
H195 C133 0.960 . S
H196 C133 0.960 . S
H197 C133 0.960 . S
H198 C169 0.980 . S
H199 C135 0.930 . S
H200 C139 0.930 . S
H201 C140 0.961 . S
H202 C140 0.960 . S
H203 C140 0.958 . S
H204 C141 0.961 . S
H205 C141 0.960 . S
H206 C141 0.960 . S
H207 C143 0.980 . S
H208 C142 0.961 . S
H209 C142 0.961 . S
H210 C142 0.959 . S
H211 C145 0.932 . S
H212 C149 0.929 . S
H213 C150 0.965 . S
H214 C150 0.959 . S
H215 C150 0.959 1_565 S
H216 C151 0.960 . S
H217 C151 0.962 . S
H218 C151 0.961 . S
H219 C153 0.929 . S
H220 C156 0.930 . S
H221 C157 0.929 . S
H222 C160 0.930 . S
H223 C163 0.929 . S
H224 C164 0.930 . S
H225 C168 0.962 . S
H226 C168 0.959 . S
H227 C168 0.958 . S
C228 C229 1.560 . S
C228 H289 0.959 . S
C228 H290 0.959 . S
C228 H291 0.960 . S
C229 C228 1.560 . S
C229 O284 1.426 . S
C229 H288 0.980 . S
C230 C231 1.407 . S
C230 C235 1.418 . S
C230 O284 1.334 . S
C231 C230 1.407 . S
C231 C232 1.360 . S
C231 H292 0.929 . S
C232 C231 1.360 . S
C232 C233 1.401 . S
C232 C236 1.527 . S
C233 C232 1.401 . S
C233 C234 1.405 . S
C233 C266 1.587 . S
C234 C233 1.405 . S
C234 C235 1.332 . S
C234 C237 1.496 . S
C235 C230 1.418 . S
C235 C234 1.332 . S
C235 H293 0.929 . S
C236 C232 1.527 . S
C236 H294 0.959 . S
C236 H295 0.961 . S
C236 H296 0.961 . S
C237 C234 1.496 . S
C237 H297 0.960 . S
C237 H298 0.960 . S
C237 H299 0.961 . S
C238 C239 1.517 . S
C238 H301 0.961 . S
C238 H302 0.960 . S
C238 H303 0.959 . S
C239 C238 1.517 . S
C239 O287 1.468 . S
C239 H300 0.980 . S
C240 C241 1.349 . S
C240 C245 1.367 . S
C240 O287 1.408 . S
C241 C240 1.349 . S
C241 C242 1.407 . S
C241 H304 0.930 . S
C242 C241 1.407 . S
C242 C243 1.449 . S
C242 C246 1.535 . S
C243 C242 1.449 . S
C243 C244 1.384 . S
C243 C268 1.553 . S
C244 C243 1.384 . S
C244 C245 1.364 . S
C244 C247 1.450 . S
C245 C240 1.367 . S
C245 C244 1.364 . S
C245 H305 0.931 . S
C246 C242 1.535 . S
C246 H306 0.959 . S
C246 H307 0.961 . S
C246 H308 0.959 . S
C247 C244 1.450 . S
C247 H309 0.960 . S
C247 H310 0.960 . S
C247 H311 0.960 . S
C248 C249 1.309 . S
C248 C253 1.304 . S
C248 O286 1.435 . S
C249 C248 1.309 . S
C249 C250 1.476 . S
C249 H313 0.930 . S
C250 C249 1.476 . S
C250 C251 1.400 . S
C250 C254 1.567 . S
C251 C250 1.400 . S
C251 C252 1.373 . S
C251 C273 1.432 . S
C252 C251 1.373 . S
C252 C253 1.339 . S
C252 C255 1.530 . S
C253 C248 1.304 . S
C253 C252 1.339 . S
C253 H314 0.930 . S
C254 C250 1.567 . S
C254 H315 0.961 . S
C254 H316 0.960 . S
C254 H317 0.958 . S
C255 C252 1.530 . S
C255 H318 0.961 . S
C255 H319 0.960 . S
C255 H320 0.960 . S
C256 C257 1.530 . S
C256 H322 0.961 . S
C256 H323 0.961 . S
C256 H324 0.959 . S
C257 C256 1.530 . S
C257 O285 1.412 . S
C257 H321 0.980 . S
C258 C259 1.288 . S
C258 C263 1.377 . S
C258 O285 1.393 . S
C259 C258 1.288 . S
C259 C260 1.369 . S
C259 H325 0.932 . S
C260 C259 1.369 . S
C260 C261 1.398 . S
C260 C264 1.527 . S
C261 C260 1.398 . S
C261 C262 1.380 . S
C261 C275 1.497 . S
C262 C261 1.380 . S
C262 C263 1.383 . S
C262 C265 1.603 . S
C263 C258 1.377 . S
C263 C262 1.383 . S
C263 H326 0.929 . S
C264 C260 1.527 . S
C264 H327 0.961 . S
C264 H328 0.959 . S
C264 H329 0.959 . S
C265 C262 1.603 . S
C265 H330 0.960 . S
C265 H331 0.962 . S
C265 H332 0.961 . S
C266 C233 1.587 . S
C266 C267 1.360 . S
C266 C279 1.412 . S
C267 C266 1.360 . S
C267 C268 1.365 . S
C267 H333 0.929 . S
C268 C243 1.553 . S
C268 C267 1.365 . S
C268 C269 1.404 . S
C269 C268 1.404 . S
C269 C270 1.395 . S
C269 C280 1.451 . S
C270 C269 1.395 . S
C270 C271 1.322 . S
C270 H334 0.930 . S
C271 C270 1.322 . S
C271 C272 1.459 . S
C271 H335 0.929 . S
C272 C271 1.459 . S
C272 C273 1.445 . S
C272 C281 1.395 . S
C273 C251 1.432 . S
C273 C272 1.445 . S
C273 C274 1.370 . S
C274 C273 1.370 . S
C274 C275 1.438 . S
C274 H336 0.930 . S
C275 C261 1.497 . S
C275 C274 1.438 . S
C275 C276 1.360 . S
C276 C275 1.360 . S
C276 C277 1.401 . S
C276 C281 1.446 . S
C277 C276 1.401 . S
C277 C278 1.347 . S
C277 H337 0.929 . S
C278 C277 1.347 . S
C278 C279 1.455 . S
C278 H338 0.930 . S
C279 C266 1.412 . S
C279 C278 1.455 . S
C279 C280 1.331 . S
C280 C269 1.451 . S
C280 C279 1.331 . S
C280 C281 1.497 . S
C281 C272 1.395 . S
C281 C276 1.446 . S
C281 C280 1.497 . S
C282 C283 1.582 . S
C282 H339 0.962 . S
C282 H340 0.959 . S
C282 H341 0.958 . S
C283 C282 1.582 . S
C283 O286 1.458 . S
C283 H312 0.980 . S
O284 C229 1.426 . S
O284 C230 1.334 . S
O285 C257 1.412 . S
O285 C258 1.393 . S
O286 C248 1.435 . S
O286 C283 1.458 . S
O287 C239 1.468 . S
O287 C240 1.408 . S
H288 C229 0.980 . S
H289 C228 0.959 . S
H290 C228 0.959 . S
H291 C228 0.960 . S
H292 C231 0.929 . S
H293 C235 0.929 . S
H294 C236 0.959 . S
H295 C236 0.961 . S
H296 C236 0.961 . S
H297 C237 0.960 . S
H298 C237 0.960 . S
H299 C237 0.961 . S
H300 C239 0.980 . S
H301 C238 0.961 . S
H302 C238 0.960 . S
H303 C238 0.959 . S
H304 C241 0.930 . S
H305 C245 0.931 . S
H306 C246 0.959 . S
H307 C246 0.961 . S
H308 C246 0.959 . S
H309 C247 0.960 . S
H310 C247 0.960 . S
H311 C247 0.960 . S
H312 C283 0.980 . S
H313 C249 0.930 . S
H314 C253 0.930 . S
H315 C254 0.961 . S
H316 C254 0.960 . S
H317 C254 0.958 . S
H318 C255 0.961 . S
H319 C255 0.960 . S
H320 C255 0.960 . S
H321 C257 0.980 . S
H322 C256 0.961 . S
H323 C256 0.961 . S
H324 C256 0.959 . S
H325 C259 0.932 . S
H326 C263 0.929 . S
H327 C264 0.961 . S
H328 C264 0.959 . S
H329 C264 0.959 . S
H330 C265 0.960 . S
H331 C265 0.962 . S
H332 C265 0.961 . S
H333 C267 0.929 . S
H334 C270 0.930 . S
H335 C271 0.929 . S
H336 C274 0.930 . S
H337 C277 0.929 . S
H338 C278 0.930 . S
H339 C282 0.962 . S
H340 C282 0.959 . S
H341 C282 0.958 . S
C342 C343 1.560 . S
C342 H403 0.959 . S
C342 H404 0.959 . S
C342 H405 0.960 . S
C343 C342 1.560 . S
C343 O398 1.426 . S
C343 H402 0.980 . S
C344 C345 1.407 . S
C344 C349 1.418 . S
C344 O398 1.334 . S
C345 C344 1.407 . S
C345 C346 1.360 . S
C345 H406 0.929 . S
C346 C345 1.360 . S
C346 C347 1.401 . S
C346 C350 1.527 . S
C347 C346 1.401 . S
C347 C348 1.405 . S
C347 C380 1.587 . S
C348 C347 1.405 . S
C348 C349 1.332 . S
C348 C351 1.496 . S
C349 C344 1.418 . S
C349 C348 1.332 . S
C349 H407 0.929 . S
C350 C346 1.527 . S
C350 H408 0.959 . S
C350 H409 0.961 . S
C350 H410 0.961 . S
C351 C348 1.496 . S
C351 H411 0.960 . S
C351 H412 0.960 . S
C351 H413 0.961 . S
C352 C353 1.517 . S
C352 H415 0.961 1_556 S
C352 H416 0.960 . S
C352 H417 0.959 . S
C353 C352 1.517 . S
C353 O401 1.468 . S
C353 H414 0.980 . S
C354 C355 1.349 . S
C354 C359 1.367 . S
C354 O401 1.408 . S
C355 C354 1.349 . S
C355 C356 1.407 . S
C355 H418 0.930 . S
C356 C355 1.407 . S
C356 C357 1.449 . S
C356 C360 1.535 . S
C357 C356 1.449 . S
C357 C358 1.384 . S
C357 C382 1.553 1_655 S
C358 C357 1.384 . S
C358 C359 1.364 . S
C358 C361 1.450 . S
C359 C354 1.367 . S
C359 C358 1.364 . S
C359 H419 0.931 . S
C360 C356 1.535 . S
C360 H420 0.959 1_655 S
C360 H421 0.961 1_655 S
C360 H422 0.959 . S
C361 C358 1.450 . S
C361 H423 0.960 . S
C361 H424 0.960 1_655 S
C361 H425 0.960 . S
C362 C363 1.309 . S
C362 C367 1.304 . S
C362 O400 1.435 . S
C363 C362 1.309 . S
C363 C364 1.476 . S
C363 H427 0.930 . S
C364 C363 1.476 . S
C364 C365 1.400 . S
C364 C368 1.567 . S
C365 C364 1.400 . S
C365 C366 1.373 . S
C365 C387 1.432 . S
C366 C365 1.373 . S
C366 C367 1.339 . S
C366 C369 1.530 . S
C367 C362 1.304 . S
C367 C366 1.339 . S
C367 H428 0.930 . S
C368 C364 1.567 . S
C368 H429 0.961 . S
C368 H430 0.960 . S
C368 H431 0.958 . S
C369 C366 1.530 . S
C369 H432 0.961 . S
C369 H433 0.960 . S
C369 H434 0.960 . S
C370 C371 1.530 . S
C370 H436 0.961 . S
C370 H437 0.961 . S
C370 H438 0.959 . S
C371 C370 1.530 . S
C371 O399 1.412 . S
C371 H435 0.980 . S
C372 C373 1.288 . S
C372 C377 1.377 . S
C372 O399 1.393 . S
C373 C372 1.288 . S
C373 C374 1.369 . S
C373 H439 0.932 . S
C374 C373 1.369 . S
C374 C375 1.398 . S
C374 C378 1.527 . S
C375 C374 1.398 . S
C375 C376 1.380 . S
C375 C389 1.497 . S
C376 C375 1.380 . S
C376 C377 1.383 . S
C376 C379 1.603 . S
C377 C372 1.377 . S
C377 C376 1.383 . S
C377 H440 0.929 . S
C378 C374 1.527 . S
C378 H441 0.961 . S
C378 H442 0.959 1_455 S
C378 H443 0.959 . S
C379 C376 1.603 . S
C379 H444 0.960 . S
C379 H445 0.962 . S
C379 H446 0.961 . S
C380 C347 1.587 . S
C380 C381 1.360 . S
C380 C393 1.412 . S
C381 C380 1.360 . S
C381 C382 1.365 . S
C381 H447 0.929 . S
C382 C357 1.553 1_455 S
C382 C381 1.365 . S
C382 C383 1.418 . S
C383 C382 1.418 . S
C383 C384 1.363 1_455 S
C383 C394 1.476 . S
C384 C383 1.363 1_655 S
C384 C385 1.322 . S
C384 H448 0.930 . S
C385 C384 1.322 . S
C385 C386 1.459 . S
C385 H449 0.929 . S
C386 C385 1.459 . S
C386 C387 1.445 . S
C386 C395 1.395 1_655 S
C387 C365 1.432 . S
C387 C386 1.445 . S
C387 C388 1.370 . S
C388 C387 1.370 . S
C388 C389 1.438 1_655 S
C388 H450 0.930 . S
C389 C375 1.497 . S
C389 C388 1.438 1_455 S
C389 C390 1.360 . S
C390 C389 1.360 . S
C390 C391 1.401 . S
C390 C395 1.446 . S
C391 C390 1.401 . S
C391 C392 1.347 . S
C391 H451 0.929 . S
C392 C391 1.347 . S
C392 C393 1.455 . S
C392 H452 0.930 . S
C393 C380 1.412 . S
C393 C392 1.455 . S
C393 C394 1.331 . S
C394 C383 1.476 . S
C394 C393 1.331 . S
C394 C395 1.497 . S
C395 C386 1.395 1_455 S
C395 C390 1.446 . S
C395 C394 1.497 . S
C396 C397 1.582 . S
C396 H453 0.962 . S
C396 H454 0.959 . S
C396 H455 0.958 . S
C397 C396 1.582 . S
C397 O400 1.458 . S
C397 H426 0.980 . S
O398 C343 1.426 . S
O398 C344 1.334 . S
O399 C371 1.412 . S
O399 C372 1.393 . S
O400 C362 1.435 . S
O400 C397 1.458 . S
O401 C353 1.468 . S
O401 C354 1.408 . S
H402 C343 0.980 . S
H403 C342 0.959 . S
H404 C342 0.959 . S
H405 C342 0.960 . S
H406 C345 0.929 . S
H407 C349 0.929 . S
H408 C350 0.959 . S
H409 C350 0.961 . S
H410 C350 0.961 . S
H411 C351 0.960 . S
H412 C351 0.960 . S
H413 C351 0.961 . S
H414 C353 0.980 . S
H415 C352 0.961 1_554 S
H416 C352 0.960 . S
H417 C352 0.959 . S
H418 C355 0.930 . S
H419 C359 0.931 . S
H420 C360 0.959 1_455 S
H421 C360 0.961 1_455 S
H422 C360 0.959 . S
H423 C361 0.960 . S
H424 C361 0.960 1_455 S
H425 C361 0.960 . S
H426 C397 0.980 . S
H427 C363 0.930 . S
H428 C367 0.930 . S
H429 C368 0.961 . S
H430 C368 0.960 . S
H431 C368 0.958 . S
H432 C369 0.961 . S
H433 C369 0.960 . S
H434 C369 0.960 . S
H435 C371 0.980 . S
H436 C370 0.961 . S
H437 C370 0.961 . S
H438 C370 0.959 . S
H439 C373 0.932 . S
H440 C377 0.929 . S
H441 C378 0.961 . S
H442 C378 0.959 1_655 S
H443 C378 0.959 . S
H444 C379 0.960 . S
H445 C379 0.962 . S
H446 C379 0.961 . S
H447 C381 0.929 . S
H448 C384 0.930 . S
H449 C385 0.929 . S
H450 C388 0.930 . S
H451 C391 0.929 . S
H452 C392 0.930 . S
H453 C396 0.962 . S
H454 C396 0.959 . S
H455 C396 0.958 . S
C456 C457 1.560 . S
C456 H517 0.959 . S
C456 H518 0.959 . S
C456 H519 0.960 . S
C457 C456 1.560 . S
C457 O512 1.426 . S
C457 H516 0.980 . S
C458 C459 1.407 . S
C458 C463 1.418 . S
C458 O512 1.334 . S
C459 C458 1.407 . S
C459 C460 1.360 . S
C459 H520 0.929 . S
C460 C459 1.360 . S
C460 C461 1.401 . S
C460 C464 1.527 . S
C461 C460 1.401 . S
C461 C462 1.405 . S
C461 C494 1.587 . S
C462 C461 1.405 . S
C462 C463 1.332 . S
C462 C465 1.496 . S
C463 C458 1.418 . S
C463 C462 1.332 . S
C463 H521 0.929 . S
C464 C460 1.527 . S
C464 H522 0.959 . S
C464 H523 0.961 . S
C464 H524 0.961 . S
C465 C462 1.496 . S
C465 H525 0.960 . S
C465 H526 0.960 . S
C465 H527 0.961 . S
C466 C467 1.517 . S
C466 H529 0.961 . S
C466 H530 0.960 . S
C466 H531 0.959 . S
C467 C466 1.517 . S
C467 O515 1.468 . S
C467 H528 0.980 . S
C468 C469 1.349 . S
C468 C473 1.367 . S
C468 O515 1.408 . S
C469 C468 1.349 . S
C469 C470 1.407 . S
C469 H532 0.930 . S
C470 C469 1.407 . S
C470 C471 1.449 . S
C470 C474 1.535 . S
C471 C470 1.449 . S
C471 C472 1.384 . S
C471 C496 1.553 . S
C472 C471 1.384 . S
C472 C473 1.364 . S
C472 C475 1.450 . S
C473 C468 1.367 . S
C473 C472 1.364 . S
C473 H533 0.931 . S
C474 C470 1.535 . S
C474 H534 0.959 . S
C474 H535 0.961 . S
C474 H536 0.959 . S
C475 C472 1.450 . S
C475 H537 0.960 . S
C475 H538 0.960 . S
C475 H539 0.960 . S
C476 C477 1.309 . S
C476 C481 1.304 . S
C476 O514 1.435 . S
C477 C476 1.309 . S
C477 C478 1.476 . S
C477 H541 0.930 . S
C478 C477 1.476 . S
C478 C479 1.400 . S
C478 C482 1.567 . S
C479 C478 1.400 . S
C479 C480 1.373 . S
C479 C501 1.432 . S
C480 C479 1.373 . S
C480 C481 1.339 . S
C480 C483 1.530 . S
C481 C476 1.304 . S
C481 C480 1.339 . S
C481 H542 0.930 . S
C482 C478 1.567 . S
C482 H543 0.961 . S
C482 H544 0.960 . S
C482 H545 0.958 . S
C483 C480 1.530 . S
C483 H546 0.961 . S
C483 H547 0.960 . S
C483 H548 0.960 . S
C484 C485 1.530 . S
C484 H550 0.961 . S
C484 H551 0.961 . S
C484 H552 0.959 . S
C485 C484 1.530 . S
C485 O513 1.412 . S
C485 H549 0.980 . S
C486 C487 1.288 . S
C486 C491 1.377 . S
C486 O513 1.393 . S
C487 C486 1.288 . S
C487 C488 1.369 . S
C487 H553 0.932 . S
C488 C487 1.369 . S
C488 C489 1.398 . S
C488 C492 1.527 1_565 S
C489 C488 1.398 . S
C489 C490 1.380 . S
C489 C503 1.497 1_565 S
C490 C489 1.380 . S
C490 C491 1.383 . S
C490 C493 1.603 . S
C491 C486 1.377 . S
C491 C490 1.383 . S
C491 H554 0.929 . S
C492 C488 1.527 1_545 S
C492 H555 0.961 . S
C492 H556 0.959 . S
C492 H557 0.959 . S
C493 C490 1.603 . S
C493 H558 0.960 . S
C493 H559 0.962 . S
C493 H560 0.961 . S
C494 C461 1.587 . S
C494 C495 1.360 . S
C494 C507 1.412 . S
C495 C494 1.360 . S
C495 C496 1.365 1_565 S
C495 H561 0.929 . S
C496 C471 1.553 . S
C496 C495 1.365 1_545 S
C496 C497 1.404 . S
C497 C496 1.404 . S
C497 C498 1.395 . S
C497 C508 1.451 . S
C498 C497 1.395 . S
C498 C499 1.322 . S
C498 H562 0.930 . S
C499 C498 1.322 . S
C499 C500 1.459 1_556 S
C499 H563 0.929 . S
C500 C499 1.459 1_554 S
C500 C501 1.445 . S
C500 C509 1.399 . S
C501 C479 1.432 . S
C501 C500 1.445 . S
C501 C502 1.370 . S
C502 C501 1.370 . S
C502 C503 1.438 . S
C502 H564 0.930 . S
C503 C489 1.497 1_545 S
C503 C502 1.438 . S
C503 C504 1.360 . S
C504 C503 1.360 . S
C504 C505 1.401 1_545 S
C504 C509 1.470 . S
C505 C504 1.401 1_565 S
C505 C506 1.347 1_554 S
C505 H565 0.929 . S
C506 C505 1.347 1_556 S
C506 C507 1.455 . S
C506 H566 0.930 . S
C507 C494 1.412 . S
C507 C506 1.455 . S
C507 C508 1.331 1_565 S
C508 C497 1.451 . S
C508 C507 1.331 1_545 S
C508 C509 1.469 1_556 S
C509 C500 1.399 . S
C509 C504 1.470 . S
C509 C508 1.469 1_554 S
C510 C511 1.582 . S
C510 H567 0.962 . S
C510 H568 0.959 . S
C510 H569 0.958 . S
C511 C510 1.582 . S
C511 O514 1.458 . S
C511 H540 0.980 . S
O512 C457 1.426 . S
O512 C458 1.334 . S
O513 C485 1.412 . S
O513 C486 1.393 . S
O514 C476 1.435 . S
O514 C511 1.458 . S
O515 C467 1.468 . S
O515 C468 1.408 . S
H516 C457 0.980 . S
H517 C456 0.959 . S
H518 C456 0.959 . S
H519 C456 0.960 . S
H520 C459 0.929 . S
H521 C463 0.929 . S
H522 C464 0.959 . S
H523 C464 0.961 . S
H524 C464 0.961 . S
H525 C465 0.960 . S
H526 C465 0.960 . S
H527 C465 0.961 . S
H528 C467 0.980 . S
H529 C466 0.961 . S
H530 C466 0.960 . S
H531 C466 0.959 . S
H532 C469 0.930 . S
H533 C473 0.931 . S
H534 C474 0.959 . S
H535 C474 0.961 . S
H536 C474 0.959 . S
H537 C475 0.960 . S
H538 C475 0.960 . S
H539 C475 0.960 . S
H540 C511 0.980 . S
H541 C477 0.930 . S
H542 C481 0.930 . S
H543 C482 0.961 . S
H544 C482 0.960 . S
H545 C482 0.958 . S
H546 C483 0.961 . S
H547 C483 0.960 . S
H548 C483 0.960 . S
H549 C485 0.980 . S
H550 C484 0.961 . S
H551 C484 0.961 . S
H552 C484 0.959 . S
H553 C487 0.932 . S
H554 C491 0.929 . S
H555 C492 0.961 . S
H556 C492 0.959 . S
H557 C492 0.959 . S
H558 C493 0.960 . S
H559 C493 0.962 . S
H560 C493 0.961 . S
H561 C495 0.929 . S
H562 C498 0.930 . S
H563 C499 0.929 . S
H564 C502 0.930 . S
H565 C505 0.929 . S
H566 C506 0.930 . S
H567 C510 0.962 . S
H568 C510 0.959 . S
H569 C510 0.958 . S
C570 C571 1.560 . S
C570 H631 0.959 . S
C570 H632 0.959 . S
C570 H633 0.960 . S
C571 C570 1.560 . S
C571 O626 1.426 . S
C571 H630 0.980 . S
C572 C573 1.407 . S
C572 C577 1.418 . S
C572 O626 1.334 . S
C573 C572 1.407 . S
C573 C574 1.360 . S
C573 H634 0.929 . S
C574 C573 1.360 . S
C574 C575 1.401 . S
C574 C578 1.527 . S
C575 C574 1.401 . S
C575 C576 1.405 . S
C575 C608 1.587 . S
C576 C575 1.405 . S
C576 C577 1.332 . S
C576 C579 1.496 . S
C577 C572 1.418 . S
C577 C576 1.332 . S
C577 H635 0.929 . S
C578 C574 1.527 . S
C578 H636 0.959 . S
C578 H637 0.961 . S
C578 H638 0.961 . S
C579 C576 1.496 . S
C579 H639 0.960 . S
C579 H640 0.960 . S
C579 H641 0.961 . S
C580 C581 1.517 1_556 S
C580 H643 0.961 . S
C580 H644 0.960 . S
C580 H645 0.959 . S
C581 C580 1.517 1_554 S
C581 O629 1.468 . S
C581 H642 0.980 . S
C582 C583 1.349 . S
C582 C587 1.367 . S
C582 O629 1.408 . S
C583 C582 1.349 . S
C583 C584 1.407 . S
C583 H646 0.930 . S
C584 C583 1.407 . S
C584 C585 1.449 . S
C584 C588 1.535 . S
C585 C584 1.449 . S
C585 C586 1.384 . S
C585 C610 1.553 . S
C586 C585 1.384 . S
C586 C587 1.364 . S
C586 C589 1.450 . S
C587 C582 1.367 . S
C587 C586 1.364 . S
C587 H647 0.931 . S
C588 C584 1.535 . S
C588 H648 0.959 . S
C588 H649 0.961 . S
C588 H650 0.959 . S
C589 C586 1.450 . S
C589 H651 0.960 . S
C589 H652 0.960 . S
C589 H653 0.960 . S
C590 C591 1.309 . S
C590 C595 1.304 . S
C590 O628 1.435 . S
C591 C590 1.309 . S
C591 C592 1.476 . S
C591 H655 0.930 . S
C592 C591 1.476 . S
C592 C593 1.400 . S
C592 C596 1.567 . S
C593 C592 1.400 . S
C593 C594 1.373 . S
C593 C615 1.432 . S
C594 C593 1.373 . S
C594 C595 1.339 . S
C594 C597 1.530 . S
C595 C590 1.304 . S
C595 C594 1.339 . S
C595 H656 0.930 . S
C596 C592 1.567 . S
C596 H657 0.961 . S
C596 H658 0.960 . S
C596 H659 0.958 . S
C597 C594 1.530 . S
C597 H660 0.961 . S
C597 H661 0.960 . S
C597 H662 0.960 . S
C598 C599 1.530 . S
C598 H664 0.961 . S
C598 H665 0.961 . S
C598 H666 0.959 . S
C599 C598 1.530 . S
C599 O627 1.412 . S
C599 H663 0.980 . S
C600 C601 1.288 . S
C600 C605 1.377 . S
C600 O627 1.393 . S
C601 C600 1.288 . S
C601 C602 1.369 . S
C601 H667 0.932 . S
C602 C601 1.369 . S
C602 C603 1.398 . S
C602 C606 1.527 . S
C603 C602 1.398 . S
C603 C604 1.380 . S
C603 C617 1.497 . S
C604 C603 1.380 . S
C604 C605 1.383 . S
C604 C607 1.603 . S
C605 C600 1.377 . S
C605 C604 1.383 . S
C605 H668 0.929 . S
C606 C602 1.527 . S
C606 H669 0.961 . S
C606 H670 0.959 . S
C606 H671 0.959 . S
C607 C604 1.603 . S
C607 H672 0.960 . S
C607 H673 0.962 . S
C607 H674 0.961 . S
C608 C575 1.587 . S
C608 C609 1.360 . S
C608 C621 1.412 . S
C609 C608 1.360 . S
C609 C610 1.365 . S
C609 H675 0.929 . S
C610 C585 1.553 . S
C610 C609 1.365 . S
C610 C611 1.404 . S
C611 C610 1.404 . S
C611 C612 1.395 . S
C611 C622 1.451 . S
C612 C611 1.395 . S
C612 C613 1.322 . S
C612 H676 0.930 . S
C613 C612 1.322 . S
C613 C614 1.459 . S
C613 H677 0.929 . S
C614 C613 1.459 . S
C614 C615 1.445 . S
C614 C623 1.395 . S
C615 C593 1.432 . S
C615 C614 1.445 . S
C615 C616 1.370 . S
C616 C615 1.370 . S
C616 C617 1.438 . S
C616 H678 0.930 . S
C617 C603 1.497 . S
C617 C616 1.438 . S
C617 C618 1.360 . S
C618 C617 1.360 . S
C618 C619 1.401 . S
C618 C623 1.446 . S
C619 C618 1.401 . S
C619 C620 1.347 . S
C619 H679 0.929 . S
C620 C619 1.347 . S
C620 C621 1.455 . S
C620 H680 0.930 . S
C621 C608 1.412 . S
C621 C620 1.455 . S
C621 C622 1.331 . S
C622 C611 1.451 . S
C622 C621 1.331 . S
C622 C623 1.497 . S
C623 C614 1.395 . S
C623 C618 1.446 . S
C623 C622 1.497 . S
C624 C625 1.582 . S
C624 H681 0.962 . S
C624 H682 0.959 . S
C624 H683 0.958 . S
C625 C624 1.582 . S
C625 O628 1.458 . S
C625 H654 0.980 . S
O626 C571 1.426 . S
O626 C572 1.334 . S
O627 C599 1.412 . S
O627 C600 1.393 . S
O628 C590 1.435 . S
O628 C625 1.458 . S
O629 C581 1.468 . S
O629 C582 1.408 . S
H630 C571 0.980 . S
H631 C570 0.959 . S
H632 C570 0.959 . S
H633 C570 0.960 . S
H634 C573 0.929 . S
H635 C577 0.929 . S
H636 C578 0.959 . S
H637 C578 0.961 . S
H638 C578 0.961 . S
H639 C579 0.960 . S
H640 C579 0.960 . S
H641 C579 0.961 . S
H642 C581 0.980 . S
H643 C580 0.961 . S
H644 C580 0.960 . S
H645 C580 0.959 . S
H646 C583 0.930 . S
H647 C587 0.931 . S
H648 C588 0.959 . S
H649 C588 0.961 . S
H650 C588 0.959 . S
H651 C589 0.960 . S
H652 C589 0.960 . S
H653 C589 0.960 . S
H654 C625 0.980 . S
H655 C591 0.930 . S
H656 C595 0.930 . S
H657 C596 0.961 . S
H658 C596 0.960 . S
H659 C596 0.958 . S
H660 C597 0.961 . S
H661 C597 0.960 . S
H662 C597 0.960 . S
H663 C599 0.980 . S
H664 C598 0.961 . S
H665 C598 0.961 . S
H666 C598 0.959 . S
H667 C601 0.932 . S
H668 C605 0.929 . S
H669 C606 0.961 . S
H670 C606 0.959 . S
H671 C606 0.959 . S
H672 C607 0.960 . S
H673 C607 0.962 . S
H674 C607 0.961 . S
H675 C609 0.929 . S
H676 C612 0.930 . S
H677 C613 0.929 . S
H678 C616 0.930 . S
H679 C619 0.929 . S
H680 C620 0.930 . S
H681 C624 0.962 . S
H682 C624 0.959 . S
H683 C624 0.958 . S
Mn684 O689 2.095 . S
Mn684 O699 2.162 . S
Mn684 O700 2.297 . S
Mn684 O708 2.385 . S
Mn684 O709 2.209 . S
Mn684 O710 2.094 . S
Mn685 O690 2.121 . S
Mn685 N692 2.257 . S
Mn685 N701 2.282 . S
Mn685 O709 2.215 . S
Mn685 O711 2.117 . S
C686 O708 1.234 . S
C686 O709 1.283 . S
C687 O699 1.281 . S
C687 O700 1.236 . S
C688 O710 1.240 . S
C688 O711 1.264 . S
O689 Mn684 2.095 . S
O689 C698 1.250 . S
O690 Mn685 2.121 . S
O690 C698 1.258 . S
C691 N692 1.326 . S
C691 C695 1.460 . S
C691 H697 0.929 . S
N692 Mn685 2.257 . S
N692 C691 1.326 . S
N692 C696 1.362 . S
C693 C694 1.258 . S
C693 C696 1.431 . S
C693 C713 1.449 . S
C694 C693 1.258 . S
C694 C695 1.477 . S
C694 H714 0.931 . S
C695 C691 1.460 . S
C695 C694 1.477 . S
C695 H715 0.930 . S
C696 N692 1.362 . S
C696 C693 1.431 . S
C696 C706 1.476 . S
H697 C691 0.929 . S
C698 O689 1.250 . S
C698 O690 1.258 . S
O699 Mn684 2.162 . S
O699 C687 1.281 . S
O700 Mn684 2.297 . S
O700 C687 1.236 . S
N701 Mn685 2.282 . S
N701 C702 1.328 . S
N701 C706 1.318 . S
C702 N701 1.328 . S
C702 C703 1.457 . S
C702 H707 0.929 . S
C703 C702 1.457 . S
C703 C704 1.291 . S
C703 H716 0.931 . S
C704 C703 1.291 . S
C704 C705 1.373 . S
C704 H717 0.929 . S
C705 C704 1.373 . S
C705 C706 1.396 . S
C705 C712 1.403 . S
C706 C696 1.476 . S
C706 N701 1.318 . S
C706 C705 1.396 . S
H707 C702 0.929 . S
O708 Mn684 2.385 . S
O708 C686 1.234 . S
O709 Mn684 2.209 . S
O709 Mn685 2.215 . S
O709 C686 1.283 . S
O710 Mn684 2.094 . S
O710 C688 1.240 . S
O711 Mn685 2.117 . S
O711 C688 1.264 . S
C712 C705 1.403 . S
C712 C713 1.399 . S
C712 H718 0.929 . S
C713 C693 1.449 . S
C713 C712 1.399 . S
C713 H719 0.930 . S
H714 C694 0.931 . S
H715 C695 0.930 . S
H716 C703 0.931 . S
H717 C704 0.929 . S
H718 C712 0.929 . S
H719 C713 0.930 . S
Mn720 O725 2.095 . S
Mn720 O735 2.162 . S
Mn720 O736 2.297 . S
Mn720 O744 2.385 . S
Mn720 O745 2.209 . S
Mn720 O746 2.094 . S
Mn721 O726 2.121 . S
Mn721 N728 2.257 . S
Mn721 N737 2.282 . S
Mn721 O745 2.215 . S
Mn721 O747 2.117 . S
C722 O744 1.234 . S
C722 O745 1.283 . S
C723 O735 1.281 . S
C723 O736 1.236 . S
C724 O746 1.240 . S
C724 O747 1.264 . S
O725 Mn720 2.095 . S
O725 C734 1.250 . S
O726 Mn721 2.121 . S
O726 C734 1.258 . S
C727 N728 1.326 . S
C727 C731 1.460 . S
C727 H733 0.929 . S
N728 Mn721 2.257 . S
N728 C727 1.326 . S
N728 C732 1.362 . S
C729 C730 1.258 . S
C729 C732 1.431 . S
C729 C749 1.449 . S
C730 C729 1.258 . S
C730 C731 1.477 . S
C730 H750 0.931 . S
C731 C727 1.460 . S
C731 C730 1.477 . S
C731 H751 0.930 . S
C732 N728 1.362 . S
C732 C729 1.431 . S
C732 C742 1.476 . S
H733 C727 0.929 . S
C734 O725 1.250 . S
C734 O726 1.258 . S
O735 Mn720 2.162 . S
O735 C723 1.281 . S
O736 Mn720 2.297 . S
O736 C723 1.236 . S
N737 Mn721 2.282 . S
N737 C738 1.328 . S
N737 C742 1.318 . S
C738 N737 1.328 . S
C738 C739 1.457 . S
C738 H743 0.929 . S
C739 C738 1.457 . S
C739 C740 1.291 . S
C739 H752 0.931 . S
C740 C739 1.291 . S
C740 C741 1.373 . S
C740 H753 0.929 . S
C741 C740 1.373 . S
C741 C742 1.396 . S
C741 C748 1.403 . S
C742 C732 1.476 . S
C742 N737 1.318 . S
C742 C741 1.396 . S
H743 C738 0.929 . S
O744 Mn720 2.385 . S
O744 C722 1.234 . S
O745 Mn720 2.209 . S
O745 Mn721 2.215 . S
O745 C722 1.283 . S
O746 Mn720 2.094 . S
O746 C724 1.240 . S
O747 Mn721 2.117 . S
O747 C724 1.264 . S
C748 C741 1.403 . S
C748 C749 1.399 . S
C748 H754 0.929 . S
C749 C729 1.449 . S
C749 C748 1.399 . S
C749 H755 0.930 . S
H750 C730 0.931 . S
H751 C731 0.930 . S
H752 C739 0.931 . S
H753 C740 0.929 . S
H754 C748 0.929 . S
H755 C749 0.930 . S
Mn756 O761 2.095 . S
Mn756 O771 2.162 . S
Mn756 O772 2.297 . S
Mn756 O780 2.385 . S
Mn756 O781 2.209 . S
Mn756 O782 2.094 . S
Mn757 O762 2.121 . S
Mn757 N764 2.257 . S
Mn757 N773 2.282 . S
Mn757 O781 2.215 . S
Mn757 O783 2.117 . S
C758 O780 1.234 . S
C758 O781 1.283 . S
C759 O771 1.281 . S
C759 O772 1.236 . S
C760 O782 1.240 . S
C760 O783 1.264 . S
O761 Mn756 2.095 . S
O761 C770 1.250 . S
O762 Mn757 2.121 . S
O762 C770 1.258 . S
C763 N764 1.326 . S
C763 C767 1.460 . S
C763 H769 0.929 . S
N764 Mn757 2.257 . S
N764 C763 1.326 . S
N764 C768 1.362 . S
C765 C766 1.258 . S
C765 C768 1.431 . S
C765 C785 1.449 . S
C766 C765 1.258 . S
C766 C767 1.477 . S
C766 H786 0.931 . S
C767 C763 1.460 . S
C767 C766 1.477 . S
C767 H787 0.930 . S
C768 N764 1.362 . S
C768 C765 1.431 . S
C768 C778 1.476 . S
H769 C763 0.929 . S
C770 O761 1.250 . S
C770 O762 1.258 . S
O771 Mn756 2.162 . S
O771 C759 1.281 . S
O772 Mn756 2.297 . S
O772 C759 1.236 . S
N773 Mn757 2.282 . S
N773 C774 1.328 . S
N773 C778 1.318 . S
C774 N773 1.328 . S
C774 C775 1.457 . S
C774 H779 0.929 . S
C775 C774 1.457 . S
C775 C776 1.291 . S
C775 H788 0.931 . S
C776 C775 1.291 . S
C776 C777 1.373 . S
C776 H789 0.929 . S
C777 C776 1.373 . S
C777 C778 1.396 . S
C777 C784 1.403 . S
C778 C768 1.476 . S
C778 N773 1.318 . S
C778 C777 1.396 . S
H779 C774 0.929 . S
O780 Mn756 2.385 . S
O780 C758 1.234 . S
O781 Mn756 2.209 . S
O781 Mn757 2.215 . S
O781 C758 1.283 . S
O782 Mn756 2.094 . S
O782 C760 1.240 . S
O783 Mn757 2.117 . S
O783 C760 1.264 . S
C784 C777 1.403 . S
C784 C785 1.399 . S
C784 H790 0.929 . S
C785 C765 1.449 . S
C785 C784 1.399 . S
C785 H791 0.930 . S
H786 C766 0.931 . S
H787 C767 0.930 . S
H788 C775 0.931 . S
H789 C776 0.929 . S
H790 C784 0.929 . S
H791 C785 0.930 . S
Mn792 O797 2.095 . S
Mn792 O807 2.162 . S
Mn792 O808 2.297 . S
Mn792 O816 2.385 . S
Mn792 O817 2.209 . S
Mn792 O818 2.094 . S
Mn793 O798 2.121 . S
Mn793 N800 2.257 . S
Mn793 N809 2.282 . S
Mn793 O817 2.215 . S
Mn793 O819 2.117 . S
C794 O816 1.234 . S
C794 O817 1.283 . S
C795 O807 1.281 . S
C795 O808 1.236 . S
C796 O818 1.240 . S
C796 O819 1.264 . S
O797 Mn792 2.095 . S
O797 C806 1.250 . S
O798 Mn793 2.121 . S
O798 C806 1.258 . S
C799 N800 1.326 . S
C799 C803 1.460 . S
C799 H805 0.929 . S
N800 Mn793 2.257 . S
N800 C799 1.326 . S
N800 C804 1.362 . S
C801 C802 1.258 . S
C801 C804 1.431 . S
C801 C821 1.449 . S
C802 C801 1.258 . S
C802 C803 1.477 . S
C802 H822 0.931 . S
C803 C799 1.460 . S
C803 C802 1.477 . S
C803 H823 0.930 . S
C804 N800 1.362 . S
C804 C801 1.431 . S
C804 C814 1.476 . S
H805 C799 0.929 . S
C806 O797 1.250 . S
C806 O798 1.258 . S
O807 Mn792 2.162 . S
O807 C795 1.281 . S
O808 Mn792 2.297 . S
O808 C795 1.236 . S
N809 Mn793 2.282 . S
N809 C810 1.328 . S
N809 C814 1.318 . S
C810 N809 1.328 . S
C810 C811 1.457 . S
C810 H815 0.929 . S
C811 C810 1.457 . S
C811 C812 1.291 . S
C811 H824 0.931 . S
C812 C811 1.291 . S
C812 C813 1.373 . S
C812 H825 0.929 . S
C813 C812 1.373 . S
C813 C814 1.396 . S
C813 C820 1.403 . S
C814 C804 1.476 . S
C814 N809 1.318 . S
C814 C813 1.396 . S
H815 C810 0.929 . S
O816 Mn792 2.385 . S
O816 C794 1.234 . S
O817 Mn792 2.209 . S
O817 Mn793 2.215 . S
O817 C794 1.283 . S
O818 Mn792 2.094 . S
O818 C796 1.240 . S
O819 Mn793 2.117 . S
O819 C796 1.264 . S
C820 C813 1.403 . S
C820 C821 1.399 . S
C820 H826 0.929 . S
C821 C801 1.449 . S
C821 C820 1.399 . S
C821 H827 0.930 . S
H822 C802 0.931 . S
H823 C803 0.930 . S
H824 C811 0.931 . S
H825 C812 0.929 . S
H826 C820 0.929 . S
H827 C821 0.930 . S
Mn828 O833 2.095 . S
Mn828 O843 2.162 . S
Mn828 O844 2.297 . S
Mn828 O852 2.385 . S
Mn828 O853 2.209 . S
Mn828 O854 2.094 . S
Mn829 O834 2.121 . S
Mn829 N836 2.257 . S
Mn829 N845 2.282 . S
Mn829 O853 2.215 . S
Mn829 O855 2.117 . S
C830 O852 1.234 . S
C830 O853 1.283 . S
C831 O843 1.281 . S
C831 O844 1.236 . S
C832 O854 1.240 . S
C832 O855 1.264 . S
O833 Mn828 2.095 . S
O833 C842 1.250 . S
O834 Mn829 2.121 . S
O834 C842 1.258 . S
C835 N836 1.326 . S
C835 C839 1.460 . S
C835 H841 0.929 . S
N836 Mn829 2.257 . S
N836 C835 1.326 . S
N836 C840 1.362 . S
C837 C838 1.258 . S
C837 C840 1.431 . S
C837 C857 1.449 . S
C838 C837 1.258 . S
C838 C839 1.477 . S
C838 H858 0.931 . S
C839 C835 1.460 . S
C839 C838 1.477 . S
C839 H859 0.930 . S
C840 N836 1.362 . S
C840 C837 1.431 . S
C840 C850 1.476 . S
H841 C835 0.929 . S
C842 O833 1.250 . S
C842 O834 1.258 . S
O843 Mn828 2.162 . S
O843 C831 1.281 . S
O844 Mn828 2.297 . S
O844 C831 1.236 . S
N845 Mn829 2.282 . S
N845 C846 1.328 . S
N845 C850 1.318 . S
C846 N845 1.328 . S
C846 C847 1.457 . S
C846 H851 0.929 . S
C847 C846 1.457 . S
C847 C848 1.291 . S
C847 H860 0.931 . S
C848 C847 1.291 . S
C848 C849 1.373 . S
C848 H861 0.929 . S
C849 C848 1.373 . S
C849 C850 1.396 . S
C849 C856 1.403 . S
C850 C840 1.476 . S
C850 N845 1.318 . S
C850 C849 1.396 . S
H851 C846 0.929 . S
O852 Mn828 2.385 . S
O852 C830 1.234 . S
O853 Mn828 2.209 . S
O853 Mn829 2.215 . S
O853 C830 1.283 . S
O854 Mn828 2.094 . S
O854 C832 1.240 . S
O855 Mn829 2.117 . S
O855 C832 1.264 . S
C856 C849 1.403 . S
C856 C857 1.399 . S
C856 H862 0.929 . S
C857 C837 1.449 . S
C857 C856 1.399 . S
C857 H863 0.930 . S
H858 C838 0.931 . S
H859 C839 0.930 . S
H860 C847 0.931 . S
H861 C848 0.929 . S
H862 C856 0.929 . S
H863 C857 0.930 . S
Mn864 O869 2.095 . S
Mn864 O879 2.162 . S
Mn864 O880 2.297 . S
Mn864 O888 2.385 . S
Mn864 O889 2.209 . S
Mn864 O890 2.094 . S
Mn865 O870 2.121 . S
Mn865 N872 2.257 . S
Mn865 N881 2.282 . S
Mn865 O889 2.215 . S
Mn865 O891 2.117 . S
C866 O888 1.234 . S
C866 O889 1.283 . S
C867 O879 1.281 . S
C867 O880 1.236 . S
C868 O890 1.240 . S
C868 O891 1.264 . S
O869 Mn864 2.095 . S
O869 C878 1.250 . S
O870 Mn865 2.121 . S
O870 C878 1.258 . S
C871 N872 1.326 . S
C871 C875 1.460 . S
C871 H877 0.929 . S
N872 Mn865 2.257 . S
N872 C871 1.326 . S
N872 C876 1.362 . S
C873 C874 1.258 . S
C873 C876 1.431 . S
C873 C893 1.449 . S
C874 C873 1.258 . S
C874 C875 1.477 . S
C874 H894 0.931 . S
C875 C871 1.460 . S
C875 C874 1.477 . S
C875 H895 0.930 . S
C876 N872 1.362 . S
C876 C873 1.431 . S
C876 C886 1.476 . S
H877 C871 0.929 . S
C878 O869 1.250 . S
C878 O870 1.258 . S
O879 Mn864 2.162 . S
O879 C867 1.281 . S
O880 Mn864 2.297 . S
O880 C867 1.236 . S
N881 Mn865 2.282 . S
N881 C882 1.328 . S
N881 C886 1.318 . S
C882 N881 1.328 . S
C882 C883 1.457 . S
C882 H887 0.929 . S
C883 C882 1.457 . S
C883 C884 1.291 . S
C883 H896 0.931 . S
C884 C883 1.291 . S
C884 C885 1.373 . S
C884 H897 0.929 . S
C885 C884 1.373 . S
C885 C886 1.396 . S
C885 C892 1.403 . S
C886 C876 1.476 . S
C886 N881 1.318 . S
C886 C885 1.396 . S
H887 C882 0.929 . S
O888 Mn864 2.385 . S
O888 C866 1.234 . S
O889 Mn864 2.209 . S
O889 Mn865 2.215 . S
O889 C866 1.283 . S
O890 Mn864 2.094 . S
O890 C868 1.240 . S
O891 Mn865 2.117 . S
O891 C868 1.264 . S
C892 C885 1.403 . S
C892 C893 1.399 . S
C892 H898 0.929 . S
C893 C873 1.449 . S
C893 C892 1.399 . S
C893 H899 0.930 . S
H894 C874 0.931 . S
H895 C875 0.930 . S
H896 C883 0.931 . S
H897 C884 0.929 . S
H898 C892 0.929 . S
H899 C893 0.930 . S
C900 C901 1.387 . S
C900 H904 0.950 . S
C900 C909 1.390 . S
C901 C900 1.387 . S
C901 C903 1.387 . S
H902 C909 0.950 . S
C903 C901 1.387 . S
C903 C905 1.390 . S
C903 H907 0.950 . S
H904 C900 0.950 . S
C905 C903 1.390 . S
C905 C906 1.387 . S
C905 H908 0.950 . S
C906 C905 1.387 . S
C906 C909 1.387 . S
H907 C903 0.950 . S
H908 C905 0.950 . S
C909 C900 1.390 . S
C909 H902 0.950 . S
C909 C906 1.387 . S
C910 C911 1.387 . S
C910 H914 0.950 . S
C910 C919 1.390 . S
C911 C910 1.387 . S
C911 C913 1.387 . S
H912 C919 0.950 . S
C913 C911 1.387 . S
C913 C915 1.390 . S
C913 H917 0.950 . S
H914 C910 0.950 . S
C915 C913 1.390 . S
C915 C916 1.387 . S
C915 H918 0.950 . S
C916 C915 1.387 . S
C916 C919 1.387 . S
H917 C913 0.950 . S
H918 C915 0.950 . S
C919 C910 1.390 . S
C919 H912 0.950 . S
C919 C916 1.387 . S
C920 C921 1.387 . S
C920 H924 0.950 . S
C920 C929 1.390 . S
C921 C920 1.387 . S
C921 C923 1.387 . S
H922 C929 0.950 . S
C923 C921 1.387 . S
C923 C925 1.390 . S
C923 H927 0.950 . S
H924 C920 0.950 . S
C925 C923 1.390 . S
C925 C926 1.387 . S
C925 H928 0.950 . S
C926 C925 1.387 . S
C926 C929 1.387 . S
H927 C923 0.950 . S
H928 C925 0.950 . S
C929 C920 1.390 . S
C929 H922 0.950 . S
C929 C926 1.387 . S
C930 C931 1.387 . S
C930 H934 0.950 . S
C930 C939 1.390 . S
C931 C930 1.387 . S
C931 C933 1.387 . S
H932 C939 0.950 . S
C933 C931 1.387 . S
C933 C935 1.390 . S
C933 H937 0.950 . S
H934 C930 0.950 . S
C935 C933 1.390 . S
C935 C936 1.387 . S
C935 H938 0.950 . S
C936 C935 1.387 . S
C936 C939 1.387 . S
H937 C933 0.950 . S
H938 C935 0.950 . S
C939 C930 1.390 . S
C939 H932 0.950 . S
C939 C936 1.387 . S
C940 C941 1.387 . S
C940 H944 0.950 . S
C940 C949 1.390 . S
C941 C940 1.387 . S
C941 C943 1.387 . S
H942 C949 0.950 . S
C943 C941 1.387 . S
C943 C945 1.390 . S
C943 H947 0.950 . S
H944 C940 0.950 . S
C945 C943 1.390 . S
C945 C946 1.387 . S
C945 H948 0.950 . S
C946 C945 1.387 . S
C946 C949 1.387 . S
H947 C943 0.950 . S
H948 C945 0.950 . S
C949 C940 1.390 . S
C949 H942 0.950 . S
C949 C946 1.387 . S
C950 C951 1.387 . S
C950 H954 0.950 . S
C950 C959 1.390 . S
C951 C950 1.387 . S
C951 C953 1.387 . S
H952 C959 0.950 . S
C953 C951 1.387 . S
C953 C955 1.390 . S
C953 H957 0.950 . S
H954 C950 0.950 . S
C955 C953 1.390 . S
C955 C956 1.387 . S
C955 H958 0.950 . S
C956 C955 1.387 . S
C956 C959 1.387 . S
H957 C953 0.950 . S
H958 C955 0.950 . S
C959 C950 1.390 . S
C959 H952 0.950 . S
C959 C956 1.387 . S
C960 C961 1.387 . S
C960 H964 0.950 . S
C960 C969 1.390 . S
C961 C960 1.387 . S
C961 C963 1.387 . S
H962 C969 0.950 . S
C963 C961 1.387 . S
C963 C965 1.390 . S
C963 H967 0.950 . S
H964 C960 0.950 . S
C965 C963 1.390 . S
C965 C966 1.387 . S
C965 H968 0.950 . S
C966 C965 1.387 . S
C966 C969 1.387 . S
H967 C963 0.950 . S
H968 C965 0.950 . S
C969 C960 1.390 . S
C969 H962 0.950 . S
C969 C966 1.387 . S
C970 C971 1.387 . S
C970 H974 0.950 . S
C970 C979 1.390 . S
C971 C970 1.387 . S
C971 C973 1.387 . S
H972 C979 0.950 . S
C973 C971 1.387 . S
C973 C975 1.390 . S
C973 H977 0.950 . S
H974 C970 0.950 . S
C975 C973 1.390 . S
C975 C976 1.387 . S
C975 H978 0.950 . S
C976 C975 1.387 . S
C976 C979 1.387 . S
H977 C973 0.950 . S
H978 C975 0.950 . S
C979 C970 1.390 . S
C979 H972 0.950 . S
C979 C976 1.387 . S
C980 C981 1.387 . S
C980 H984 0.950 . S
C980 C989 1.390 . S
C981 C980 1.387 . S
C981 C983 1.387 . S
H982 C989 0.950 . S
C983 C981 1.387 . S
C983 C985 1.390 . S
C983 H987 0.950 . S
H984 C980 0.950 . S
C985 C983 1.390 . S
C985 C986 1.387 . S
C985 H988 0.950 . S
C986 C985 1.387 . S
C986 C989 1.387 . S
H987 C983 0.950 . S
H988 C985 0.950 . S
C989 C980 1.390 . S
C989 H982 0.950 . S
C989 C986 1.387 . S
C990 C991 1.387 . S
C990 H994 0.950 . S
C990 C999 1.390 . S
C991 C990 1.387 . S
C991 C993 1.387 . S
H992 C999 0.950 . S
C993 C991 1.387 . S
C993 C995 1.390 . S
C993 H997 0.950 . S
H994 C990 0.950 . S
C995 C993 1.390 . S
C995 C996 1.387 . S
C995 H998 0.950 . S
C996 C995 1.387 . S
C996 C999 1.387 . S
H997 C993 0.950 . S
H998 C995 0.950 . S
C999 C990 1.390 . S
C999 H992 0.950 . S
C999 C996 1.387 . S
C1000 C1001 1.387 . S
C1000 H1004 0.950 . S
C1000 C1009 1.390 . S
C1001 C1000 1.387 . S
C1001 C1003 1.387 . S
H1002 C1009 0.950 . S
C1003 C1001 1.387 . S
C1003 C1005 1.390 . S
C1003 H1007 0.950 . S
H1004 C1000 0.950 . S
C1005 C1003 1.390 . S
C1005 C1006 1.387 . S
C1005 H1008 0.950 . S
C1006 C1005 1.387 . S
C1006 C1009 1.387 . S
H1007 C1003 0.950 . S
H1008 C1005 0.950 . S
C1009 C1000 1.390 . S
C1009 H1002 0.950 . S
C1009 C1006 1.387 . S
C1010 C1011 1.387 . S
C1010 H1014 0.950 . S
C1010 C1019 1.390 . S
C1011 C1010 1.387 . S
C1011 C1013 1.387 . S
H1012 C1019 0.950 . S
C1013 C1011 1.387 . S
C1013 C1015 1.390 . S
C1013 H1017 0.950 . S
H1014 C1010 0.950 . S
C1015 C1013 1.390 . S
C1015 C1016 1.387 . S
C1015 H1018 0.950 . S
C1016 C1015 1.387 . S
C1016 C1019 1.387 . S
H1017 C1013 0.950 . S
H1018 C1015 0.950 . S
C1019 C1010 1.390 . S
C1019 H1012 0.950 . S
C1019 C1016 1.387 . S
C1020 C1021 1.387 . S
C1020 H1024 0.950 . S
C1020 C1029 1.390 . S
C1021 C1020 1.387 . S
C1021 C1023 1.387 . S
H1022 C1029 0.950 . S
C1023 C1021 1.387 . S
C1023 C1025 1.390 . S
C1023 H1027 0.950 . S
H1024 C1020 0.950 . S
C1025 C1023 1.390 . S
C1025 C1026 1.387 . S
C1025 H1028 0.950 . S
C1026 C1025 1.387 . S
C1026 C1029 1.387 . S
H1027 C1023 0.950 . S
H1028 C1025 0.950 . S
C1029 C1020 1.390 . S
C1029 H1022 0.950 . S
C1029 C1026 1.387 . S
C1030 C1031 1.387 . S
C1030 H1034 0.950 . S
C1030 C1039 1.390 . S
C1031 C1030 1.387 . S
C1031 C1033 1.387 . S
H1032 C1039 0.950 . S
C1033 C1031 1.387 . S
C1033 C1035 1.390 . S
C1033 H1037 0.950 . S
H1034 C1030 0.950 . S
C1035 C1033 1.390 . S
C1035 C1036 1.387 . S
C1035 H1038 0.950 . S
C1036 C1035 1.387 . S
C1036 C1039 1.387 . S
H1037 C1033 0.950 . S
H1038 C1035 0.950 . S
C1039 C1030 1.390 . S
C1039 H1032 0.950 . S
C1039 C1036 1.387 . S
C1040 C1041 1.387 . S
C1040 H1044 0.950 . S
C1040 C1049 1.390 . S
C1041 C1040 1.387 . S
C1041 C1043 1.387 . S
H1042 C1049 0.950 . S
C1043 C1041 1.387 . S
C1043 C1045 1.390 . S
C1043 H1047 0.950 . S
H1044 C1040 0.950 . S
C1045 C1043 1.390 . S
C1045 C1046 1.387 . S
C1045 H1048 0.950 . S
C1046 C1045 1.387 . S
C1046 C1049 1.387 . S
H1047 C1043 0.950 . S
H1048 C1045 0.950 . S
C1049 C1040 1.390 . S
C1049 H1042 0.950 . S
C1049 C1046 1.387 . S
C1050 C1051 1.387 . S
C1050 H1054 0.950 . S
C1050 C1059 1.390 1_556 S
C1051 C1050 1.387 . S
C1051 C1053 1.387 . S
H1052 C1059 0.950 . S
C1053 C1051 1.387 . S
C1053 C1055 1.431 . S
C1053 H1057 0.950 . S
H1054 C1050 0.950 . S
C1055 C1053 1.431 . S
C1055 C1056 1.358 1_556 S
C1055 H1058 0.940 1_556 S
C1056 C1055 1.358 1_554 S
C1056 C1059 1.387 . S
H1057 C1053 0.950 . S
H1058 C1055 0.940 1_554 S
C1059 C1050 1.390 1_554 S
C1059 H1052 0.950 . S
C1059 C1056 1.387 . S
C1060 C1061 1.387 . S
C1060 H1064 0.950 . S
C1060 C1069 1.390 . S
C1061 C1060 1.387 . S
C1061 C1063 1.387 . S
H1062 C1069 0.950 . S
C1063 C1061 1.387 . S
C1063 C1065 1.390 . S
C1063 H1067 0.950 . S
H1064 C1060 0.950 . S
C1065 C1063 1.390 . S
C1065 C1066 1.387 . S
C1065 H1068 0.950 . S
C1066 C1065 1.387 . S
C1066 C1069 1.387 . S
H1067 C1063 0.950 . S
H1068 C1065 0.950 . S
C1069 C1060 1.390 . S
C1069 H1062 0.950 . S
C1069 C1066 1.387 . S
C1070 C1071 1.387 . S
C1070 H1074 0.950 . S
C1070 C1079 1.390 . S
C1071 C1070 1.387 . S
C1071 C1073 1.387 . S
H1072 C1079 0.950 . S
C1073 C1071 1.387 . S
C1073 C1075 1.390 . S
C1073 H1077 0.950 . S
H1074 C1070 0.950 . S
C1075 C1073 1.390 . S
C1075 C1076 1.387 . S
C1075 H1078 0.950 . S
C1076 C1075 1.387 . S
C1076 C1079 1.387 . S
H1077 C1073 0.950 . S
H1078 C1075 0.950 . S
C1079 C1070 1.390 . S
C1079 H1072 0.950 . S
C1079 C1076 1.387 . S
C1080 C1081 1.387 . S
C1080 H1084 0.950 . S
C1080 C1089 1.390 . S
C1081 C1080 1.387 . S
C1081 C1083 1.387 . S
H1082 C1089 0.950 . S
C1083 C1081 1.387 . S
C1083 C1085 1.390 . S
C1083 H1087 0.950 . S
H1084 C1080 0.950 . S
C1085 C1083 1.390 . S
C1085 C1086 1.387 . S
C1085 H1088 0.950 . S
C1086 C1085 1.387 . S
C1086 C1089 1.387 . S
H1087 C1083 0.950 . S
H1088 C1085 0.950 . S
C1089 C1080 1.390 . S
C1089 H1082 0.950 . S
C1089 C1086 1.387 . S
C1090 C1091 1.387 . S
C1090 H1094 0.950 . S
C1090 C1099 1.390 . S
C1091 C1090 1.387 . S
C1091 C1093 1.387 . S
H1092 C1099 0.950 . S
C1093 C1091 1.387 . S
C1093 C1095 1.390 . S
C1093 H1097 0.950 . S
H1094 C1090 0.950 . S
C1095 C1093 1.390 . S
C1095 C1096 1.387 . S
C1095 H1098 0.950 . S
C1096 C1095 1.387 . S
C1096 C1099 1.387 . S
H1097 C1093 0.950 . S
H1098 C1095 0.950 . S
C1099 C1090 1.390 . S
C1099 H1092 0.950 . S
C1099 C1096 1.387 . S
C1100 C1101 1.387 . S
C1100 H1104 0.950 . S
C1100 C1109 1.390 . S
C1101 C1100 1.387 . S
C1101 C1103 1.387 . S
H1102 C1109 0.950 . S
C1103 C1101 1.387 . S
C1103 C1105 1.390 . S
C1103 H1107 0.950 . S
H1104 C1100 0.950 . S
C1105 C1103 1.390 . S
C1105 C1106 1.387 . S
C1105 H1108 0.950 . S
C1106 C1105 1.387 . S
C1106 C1109 1.387 . S
H1107 C1103 0.950 . S
H1108 C1105 0.950 . S
C1109 C1100 1.390 . S
C1109 H1102 0.950 . S
C1109 C1106 1.387 . S
C1110 C1111 1.387 . S
C1110 H1114 0.950 . S
C1110 C1119 1.390 . S
C1111 C1110 1.387 . S
C1111 C1113 1.387 . S
H1112 C1119 0.950 . S
C1113 C1111 1.387 . S
C1113 C1115 1.390 . S
C1113 H1117 0.950 . S
H1114 C1110 0.950 . S
C1115 C1113 1.390 . S
C1115 C1116 1.387 . S
C1115 H1118 0.950 . S
C1116 C1115 1.387 . S
C1116 C1119 1.387 . S
H1117 C1113 0.950 . S
H1118 C1115 0.950 . S
C1119 C1110 1.390 . S
C1119 H1112 0.950 . S
C1119 C1116 1.387 . S
C1120 C1121 1.387 1_556 S
C1120 H1124 0.950 1_556 S
C1120 C1129 1.390 . S
C1121 C1120 1.387 1_554 S
C1121 C1123 1.387 1_554 S
H1122 C1129 0.950 . S
C1123 C1121 1.387 1_556 S
C1123 C1125 1.390 . S
C1123 H1127 0.950 1_556 S
H1124 C1120 0.950 1_554 S
C1125 C1123 1.390 . S
C1125 C1126 1.387 . S
C1125 H1128 0.950 . S
C1126 C1125 1.387 . S
C1126 C1129 1.387 . S
H1127 C1123 0.950 1_554 S
H1128 C1125 0.950 . S
C1129 C1120 1.390 . S
C1129 H1122 0.950 . S
C1129 C1126 1.387 . S
C1130 C1131 1.387 . S
C1130 H1134 0.950 . S
C1130 C1139 1.390 . S
C1131 C1130 1.387 . S
C1131 C1133 1.387 . S
H1132 C1139 0.950 . S
C1133 C1131 1.387 . S
C1133 C1135 1.390 . S
C1133 H1137 0.950 . S
H1134 C1130 0.950 . S
C1135 C1133 1.390 . S
C1135 C1136 1.387 . S
C1135 H1138 0.950 . S
C1136 C1135 1.387 . S
C1136 C1139 1.387 . S
H1137 C1133 0.950 . S
H1138 C1135 0.950 . S
C1139 C1130 1.390 . S
C1139 H1132 0.950 . S
C1139 C1136 1.387 . S
C906 C867 1.763 . S
C901 C1 1.310 . S
C911 C169 1.698 . S
C916 C687 1.893 . S
C921 C283 1.656 . S
C926 C734 1.939 . S
C931 C397 1.429 . S
C936 C770 1.700 . S
C946 C795 1.617 . S
C941 C457 1.222 . S
C951 C571 1.224 . S
C956 C831 1.616 . S
C961 C115 1.351 . S
C966 C723 1.786 . S
C971 C229 1.211 . S
C976 C759 1.644 . S
C981 C343 1.204 . S
C986 C806 1.615 . S
C996 C842 1.804 . S
C991 C511 1.527 . S
C1006 C878 1.899 . S
C1001 C625 1.629 . S
C1016 C698 1.967 . S
C1011 C55 1.698 . S
C1021 C29 1.144 . S
C1026 C722 1.456 . S
C1031 C125 0.937 . S
C1036 C758 1.522 . S
C1046 C796 1.489 . S
C1041 C239 0.898 . S
C1051 C353 0.903 . S
C1056 C832 1.477 . S
C1066 C868 1.415 . S
C1061 C485 1.077 . S
C1076 C688 1.459 . S
C1071 C599 1.126 . S
C1086 C866 1.445 . S
C1081 C143 1.144 . S
C1091 C257 1.125 . S
C1096 C686 1.453 . S
C1106 C724 1.411 . S
C1101 C371 1.115 . S
C1111 C467 0.915 . S
C1116 C760 1.480 . S
C1121 C581 0.884 . S
C1126 C794 1.497 . S
C1131 C11 0.926 . S
C1136 C830 1.532 . S
