# Generated by pormake.
# Topology rtl, (3,6)-cn, num edge types: 1
# Building blocks:
#     Node 0, Type 0, BuildingBlock: CUQRIR_clean_linker_1, # of connection points: 3
#     Node 1, Type 0, BuildingBlock: CUQRIR_clean_linker_1, # of connection points: 3
#     Node 2, Type 0, BuildingBlock: CUQRIR_clean_linker_1, # of connection points: 3
#     Node 3, Type 0, BuildingBlock: CUQRIR_clean_linker_1, # of connection points: 3
#     Node 4, Type 1, BuildingBlock: KUMJIN_clean_sbu_1, # of connection points: 6
#     Node 5, Type 1, BuildingBlock: KUMJIN_clean_sbu_1, # of connection points: 6
#     Edge 6, Type (0, 1), BuildingBlock: KIFKEQ_clean_linker_1, # of connection points: 2
#     Edge 7, Type (0, 1), BuildingBlock: KIFKEQ_clean_linker_1, # of connection points: 2
#     Edge 8, Type (0, 1), BuildingBlock: KIFKEQ_clean_linker_1, # of connection points: 2
#     Edge 9, Type (0, 1), BuildingBlock: KIFKEQ_clean_linker_1, # of connection points: 2
#     Edge 10, Type (0, 1), BuildingBlock: KIFKEQ_clean_linker_1, # of connection points: 2
#     Edge 11, Type (0, 1), BuildingBlock: KIFKEQ_clean_linker_1, # of connection points: 2
#     Edge 12, Type (0, 1), BuildingBlock: KIFKEQ_clean_linker_1, # of connection points: 2
#     Edge 13, Type (0, 1), BuildingBlock: KIFKEQ_clean_linker_1, # of connection points: 2
#     Edge 14, Type (0, 1), BuildingBlock: KIFKEQ_clean_linker_1, # of connection points: 2
#     Edge 15, Type (0, 1), BuildingBlock: KIFKEQ_clean_linker_1, # of connection points: 2
#     Edge 16, Type (0, 1), BuildingBlock: KIFKEQ_clean_linker_1, # of connection points: 2
#     Edge 17, Type (0, 1), BuildingBlock: KIFKEQ_clean_linker_1, # of connection points: 2
# Relax obj value: 0.064
# Max RMSD: 0.225
# Mean RMSD: 0.175
data_MOF--net-rtl--node1-KUMJIN_clean_sbu_1--node2-CUQRIR_clean_linker_1--edge1-KIFKEQ_clean_linker_1
_symmetry_space_group_name_H-M    P1
_symmetry_Int_Tables_number       1
_symmetry_cell_setting            triclinic
loop_
_symmetry_equiv_pos_as_xyz
'x, y, z'
_cell_length_a     33.51083
_cell_length_b     33.793221
_cell_length_c     25.243583
_cell_angle_alpha  76.660704
_cell_angle_beta   98.630691
_cell_angle_gamma 91.451557
loop_
_atom_site_label
_atom_site_type_symbol
_atom_site_fract_x
_atom_site_fract_y
_atom_site_fract_z
_atom_type_partial_charge
C0 C 0.23868 0.80428 0.99455 0.0
N1 N 0.21298 0.83043 1.0056 0.0
N2 N 0.26085 0.78355 0.04155 0.0
C3 C 0.24245 0.79937 0.93773 0.0
C4 C 0.24787 0.79826 0.08165 0.0
N5 N 0.21869 0.82697 0.05974 0.0
C6 C 0.26141 0.78223 0.14226 0.0
H7 H 0.22096 0.77582 0.92736 0.0
H8 H 0.27344 0.78954 0.93582 0.0
H9 H 0.2349 0.82811 0.90643 0.0
H10 H 0.28679 0.80095 0.15607 0.0
H11 H 0.27208 0.75024 0.15102 0.0
H12 H 0.23655 0.784 0.16613 0.0
C13 C 0.73 0.73009 0.69422 0.0
N14 N 0.70502 0.69908 0.68629 0.0
N15 N 0.75103 0.74233 0.6514 0.0
C16 C 0.73613 0.74623 0.74558 0.0
C17 C 0.73786 0.71757 0.61726 0.0
N18 N 0.71037 0.691 0.63875 0.0
C19 C 0.74936 0.72149 0.56086 0.0
H20 H 0.71411 0.77125 0.74069 0.0
H21 H 0.76704 0.75834 0.75294 0.0
H22 H 0.73097 0.72215 0.78196 0.0
H23 H 0.77507 0.70063 0.56396 0.0
H24 H 0.75855 0.75302 0.54344 0.0
H25 H 0.72385 0.71298 0.53231 0.0
C26 C 0.78585 0.20869 0.13199 0.0
N27 N 0.81351 0.18494 0.11988 0.0
N28 N 0.76757 0.23421 0.08568 0.0
C29 C 0.77948 0.20973 0.18948 0.0
C30 C 0.7855 0.22548 0.04499 0.0
N31 N 0.81374 0.19574 0.06587 0.0
C32 C 0.77346 0.24402 0.98466 0.0
H33 H 0.75644 0.1869 0.20273 0.0
H34 H 0.76872 0.24012 0.19117 0.0
H35 H 0.80781 0.20207 0.21888 0.0
H36 H 0.79308 0.27043 0.97222 0.0
H37 H 0.74162 0.25478 0.97593 0.0
H38 H 0.77729 0.22174 0.95963 0.0
C39 C 0.30705 0.29136 0.43223 0.0
N40 N 0.33289 0.32146 0.44155 0.0
N41 N 0.28756 0.27707 0.47616 0.0
C42 C 0.29845 0.27821 0.37868 0.0
C43 C 0.30275 0.29938 0.51263 0.0
N44 N 0.33006 0.32636 0.49165 0.0
C45 C 0.29105 0.29479 0.56905 0.0
H46 H 0.30331 0.30355 0.34358 0.0
H47 H 0.267 0.26731 0.37185 0.0
H48 H 0.3193 0.25289 0.38005 0.0
H49 H 0.28033 0.26359 0.58493 0.0
H50 H 0.26643 0.31678 0.56656 0.0
H51 H 0.31683 0.30151 0.59859 0.0
Eu52 Eu 0.04619 0.97127 0.53156 0.0
C53 C 0.94699 0.12965 0.50103 0.0
N54 N 0.98219 0.11956 0.5358 0.0
C55 C 1.0076 0.18654 0.50518 0.0
C56 C 0.94123 0.16866 0.4657 0.0
C57 C 0.01208 0.14738 0.53904 0.0
C58 C 0.97211 0.19717 0.4681 0.0
C59 C 0.88074 0.10972 0.46289 0.0
C60 C 0.91722 0.1003 0.49943 0.0
C61 C 0.87509 0.14842 0.42729 0.0
C62 C 0.90522 0.1778 0.42871 0.0
Eu63 Eu 0.98826 0.05231 0.58941 0.0
N64 N 0.924 0.06259 0.53328 0.0
C65 C 0.85083 0.08008 0.46353 0.0
C66 C 0.89364 0.03485 0.5369 0.0
C67 C 0.85705 0.04276 0.5014 0.0
H68 H 0.03918 0.13947 0.56828 0.0
H69 H 0.83341 0.02027 0.50388 0.0
H70 H 0.99773 0.88309 0.56044 0.0
H71 H 0.20301 0.00784 0.60244 0.0
H72 H 0.89666 0.00705 0.56802 0.0
H73 H 0.82241 0.08613 0.43612 0.0
H74 H 0.13781 0.01822 0.54237 0.0
H75 H 0.03149 0.20848 0.5077 0.0
H76 H 0.84739 0.15601 0.39868 0.0
H77 H 0.90037 0.20752 0.40102 0.0
H78 H 1.00876 0.81503 0.623 0.0
H79 H 0.96883 0.22746 0.44164 0.0
H80 H 0.21695 0.94388 0.67336 0.0
N81 N 0.05516 0.90499 0.58772 0.0
C82 C 0.09144 0.89642 0.62039 0.0
C83 C 0.03218 0.83769 0.62287 0.0
C84 C 0.09911 0.85799 0.65672 0.0
C85 C 0.02583 0.87629 0.58786 0.0
C86 C 0.0689 0.82853 0.65766 0.0
N87 N 0.11206 0.96365 0.58349 0.0
C88 C 0.14201 0.99156 0.57539 0.0
C89 C 0.15818 0.91868 0.65274 0.0
C90 C 0.12045 0.9267 0.61875 0.0
C91 C 0.1876 0.94886 0.64805 0.0
C92 C 0.17974 0.98513 0.6084 0.0
H93 H 0.07364 0.79868 0.68503 0.0
H94 H 0.14259 0.82115 0.71992 0.0
H95 H 0.19439 0.87415 0.7162 0.0
O96 O 0.07842 0.98099 0.46034 0.0
O97 O 0.04077 0.95841 0.62237 0.0
O98 O 0.04472 0.02123 0.64227 0.0
O99 O 0.04776 0.92447 0.48514 0.0
O100 O 0.06776 0.03721 0.51582 0.0
O101 O 0.05544 0.06239 0.58983 0.0
O102 O 0.95129 0.0436 0.65563 0.0
O103 O 0.9927 0.06441 0.49784 0.0
O104 O 0.98913 1.001 0.47979 0.0
O105 O 0.98813 0.09684 0.64005 0.0
O106 O 0.96603 0.98659 0.6053 0.0
O107 O 0.97919 0.96026 0.53246 0.0
C108 C 0.05155 0.98188 0.65658 0.0
C109 C 0.05079 0.94787 0.39068 0.0
C110 C 0.0602 0.93836 0.30012 0.0
C111 C 0.01869 0.94647 0.28205 0.0
C112 C 1.00967 0.9559 0.37168 0.0
C113 C 0.99382 0.9555 0.3175 0.0
C114 C 0.07601 0.93971 0.35476 0.0
C115 C 0.07499 0.06321 0.54797 0.0
C116 C 0.0674 0.94648 0.44839 0.0
C117 C 0.13628 0.85037 0.69145 0.0
C118 C 0.1657 0.88063 0.6895 0.0
C119 C 0.9824 0.04027 0.46427 0.0
C120 C 0.97798 0.07025 0.73184 0.0
C121 C 0.96734 0.079 0.82235 0.0
C122 C 1.00439 0.05887 0.8452 0.0
C123 C 0.01468 0.05041 0.75572 0.0
C124 C 0.9543 0.08453 0.7652 0.0
C125 C 0.02777 0.04466 0.81205 0.0
C126 C 0.95931 0.96002 0.5739 0.0
C127 C 0.96444 0.07593 0.67224 0.0
H128 H 1.00502 0.94488 0.24095 0.0
H129 H 0.98979 0.96177 0.39904 0.0
H130 H 0.96196 0.96145 0.3032 0.0
H131 H 0.10786 0.9342 0.36976 0.0
H132 H 0.01577 0.05474 0.88861 0.0
H133 H 0.03324 0.03962 0.73061 0.0
H134 H 0.92571 0.09956 0.74672 0.0
H135 H 0.05629 0.0294 0.83002 0.0
Eu136 Eu 0.47694 0.49099 1.00547 0.0
C137 C 0.64366 0.5542 0.07949 0.0
N138 N 0.62489 0.52077 0.10553 0.0
C139 C 0.68496 0.48088 0.11564 0.0
C140 C 0.68342 0.55174 0.06833 0.0
C141 C 0.64584 0.48512 0.12674 0.0
C142 C 0.70357 0.51415 0.08536 0.0
C143 C 0.64376 0.62742 0.04442 0.0
C144 C 0.62414 0.59158 0.06746 0.0
C145 C 0.68259 0.62484 0.03085 0.0
C146 C 0.70232 0.58706 0.04259 0.0
Eu147 Eu 0.5575 0.53069 0.11854 0.0
N148 N 0.58625 0.59304 0.07986 0.0
C149 C 0.62399 0.66482 0.03669 0.0
C150 C 0.56752 0.62939 0.07495 0.0
C151 C 0.58592 0.66583 0.05274 0.0
H152 H 0.6328 0.45997 0.15308 0.0
H153 H 0.57073 0.69461 0.04785 0.0
H154 H 0.38891 0.52877 0.01759 0.0
H155 H 0.51662 0.33243 0.01765 0.0
H156 H 0.53809 0.63002 0.08741 0.0
H157 H 0.6381 0.69305 0.01925 0.0
H158 H 0.52162 0.40686 0.98747 0.0
H159 H 0.70097 0.45216 0.13131 0.0
H160 H 0.69796 0.65197 1.01239 0.0
H161 H 0.73269 0.58566 0.0332 0.0
H162 H 0.32563 0.50434 0.05385 0.0
H163 H 0.7341 0.51096 0.07749 0.0
H164 H 0.46121 0.30227 0.06807 0.0
N165 N 0.41539 0.46984 0.03693 0.0
C166 C 0.41039 0.42925 0.05493 0.0
C167 C 0.34935 0.48295 0.05475 0.0
C168 C 0.37516 0.41393 0.07633 0.0
C169 C 0.38501 0.49669 0.03428 0.0
C170 C 0.34467 0.44143 0.07674 0.0
N171 N 0.47222 0.41904 0.02563 0.0
C172 C 0.49837 0.39423 1.01157 0.0
C173 C 0.43512 0.36064 0.06625 0.0
C174 C 0.44002 0.40308 0.0499 0.0
C175 C 0.46384 0.33504 0.05611 0.0
C176 C 0.49519 0.35194 0.02772 0.0
H177 H 0.3171 0.43086 0.09277 0.0
H178 H 0.34448 0.35938 0.11249 0.0
H179 H 0.39702 0.31266 0.10368 0.0
O180 O 0.45272 0.47115 0.92912 0.0
O181 O 0.46208 0.48795 0.09179 0.0
O182 O 0.52301 0.47276 0.14675 0.0
O183 O 0.44968 0.53494 0.93283 0.0
O184 O 0.54129 0.46625 0.02277 0.0
O185 O 0.56201 0.46405 0.11477 0.0
O186 O 0.54081 0.5577 0.18287 0.0
O187 O 0.54847 0.56416 0.02731 0.0
O188 O 0.53822 0.51183 0.98395 0.0
O189 O 0.59883 0.52846 0.19523 0.0
O190 O 0.49489 0.55866 0.10276 0.0
O191 O 0.46818 0.55577 1.01336 0.0
C192 C 0.48351 0.46991 0.13876 0.0
C193 C 0.42136 0.51986 0.84558 0.0
C194 C 0.39715 0.50455 0.75613 0.0
C195 C 0.38118 0.54421 0.73717 0.0
C196 C 0.40519 0.55939 0.82529 0.0
C197 C 0.38535 0.5714 0.77149 0.0
C198 C 0.41758 0.49248 0.8105 0.0
C199 C 0.56293 0.44989 0.07049 0.0
C200 C 0.44175 0.5081 0.90326 0.0
C201 C 0.37111 0.37176 0.09525 0.0
C202 C 0.40106 0.34517 0.09031 0.0
C203 C 0.55236 0.54807 0.9856 0.0
C204 C 0.56909 0.52864 0.27438 0.0
C205 C 0.58042 0.53219 0.37122 0.0
C206 C 0.5582 0.49621 0.38396 0.0
C207 C 0.5473 0.49277 0.28804 0.0
C208 C 0.58562 0.54823 0.31594 0.0
C209 C 0.54183 0.47669 0.34258 0.0
C210 C 0.4696 0.57137 0.05691 0.0
C211 C 0.57388 0.54662 0.21682 0.0
H212 H 0.36559 0.55425 0.6955 0.0
H213 H 0.40764 0.58113 0.85113 0.0
H214 H 0.37299 0.60189 0.75638 0.0
H215 H 0.42979 0.46188 0.82554 0.0
H216 H 0.554 0.48278 0.42603 0.0
H217 H 0.53447 0.47743 0.25645 0.0
H218 H 0.60199 0.5763 0.30499 0.0
H219 H 0.52491 0.44895 0.35283 0.0
H220 H 0.28982 0.20053 0.46115 0.0
H221 H 0.21429 0.286 0.50407 0.0
H222 H 0.2378 0.14827 0.47664 0.0
H223 H 0.16287 0.23375 0.52129 0.0
H224 H 0.1085 0.11412 0.61264 0.0
H225 H 0.15911 0.16645 0.59217 0.0
H226 H 0.16457 0.1349 0.43722 0.0
H227 H 0.11317 0.08322 0.45678 0.0
C228 C 0.26193 0.20811 0.47347 0.0
C229 C 0.25613 0.24704 0.48197 0.0
C230 C 0.23227 0.17831 0.48247 0.0
C231 C 0.19646 0.18683 0.50076 0.0
C232 C 0.19042 0.22609 0.50813 0.0
C233 C 0.21978 0.25594 0.49836 0.0
C234 C 0.12015 0.11852 0.57395 0.0
C235 C 0.10639 0.09463 0.53618 0.0
C236 C 0.14917 0.14851 0.56227 0.0
C237 C 0.16571 0.15484 0.51301 0.0
C238 C 0.15254 0.13055 0.47564 0.0
C239 C 0.12301 0.10101 0.48689 0.0
H240 H 0.3382 0.78264 0.08986 0.0
H241 H 0.2502 0.71453 1.0057 0.0
H242 H 0.39006 0.73155 0.09431 0.0
H243 H 0.3015 0.66316 1.01013 0.0
H244 H 0.41193 0.60616 0.97101 0.0
H245 H 0.3618 0.65747 0.96916 0.0
H246 H 0.40942 0.66078 0.13685 0.0
H247 H 0.46013 0.60993 0.1386 0.0
C248 C 0.33006 0.75638 0.07293 0.0
C249 C 0.29059 0.75235 0.04718 0.0
C250 C 0.35956 0.72718 0.07542 0.0
C251 C 0.34997 0.69345 0.05215 0.0
C252 C 0.31008 0.68917 0.02746 0.0
C253 C 0.2807 0.71834 0.02505 0.0
C254 C 0.4119 0.61787 1.00749 0.0
C255 C 0.44007 0.60374 0.05502 0.0
C256 C 0.38293 0.64712 1.00652 0.0
C257 C 0.38143 0.66301 0.05299 0.0
C258 C 0.40997 0.6494 0.10022 0.0
C259 C 0.43894 0.62008 0.10125 0.0
H260 H 0.74525 0.82029 0.65991 0.0
H261 H 0.82534 0.73443 0.62621 0.0
H262 H 0.79577 0.87384 0.64257 0.0
H263 H 0.87533 0.78791 0.60719 0.0
H264 H 0.92875 0.90612 0.51214 0.0
H265 H 0.8788 0.8533 0.53345 0.0
H266 H 0.86747 0.89069 0.68286 0.0
H267 H 0.91812 0.94304 0.66244 0.0
C268 C 0.77382 0.8129 0.64927 0.0
C269 C 0.7814 0.77339 0.64407 0.0
C270 C 0.80264 0.84345 0.63918 0.0
C271 C 0.83935 0.83512 0.62302 0.0
C272 C 0.84707 0.7954 0.6187 0.0
C273 C 0.81854 0.76483 0.62953 0.0
C274 C 0.91591 0.90297 0.54978 0.0
C275 C 0.92792 0.92862 0.58585 0.0
C276 C 0.88728 0.87267 0.56195 0.0
C277 C 0.86937 0.86774 0.60996 0.0
C278 C 0.88061 0.8939 0.64543 0.0
C279 C 0.90973 0.92383 0.63371 0.0
H280 H 0.76997 0.31382 0.03666 0.0
H281 H 0.69711 0.22288 0.12591 0.0
H282 H 0.71953 0.36606 0.03268 0.0
H283 H 0.64663 0.27495 0.1227 0.0
H284 H 0.59156 0.38882 0.15861 0.0
H285 H 0.64106 0.33593 0.16163 0.0
H286 H 0.64886 0.3848 0.98962 0.0
H287 H 0.59997 0.43774 0.98687 0.0
C288 C 0.74286 0.3051 0.05484 0.0
C289 C 0.73716 0.26455 0.08144 0.0
C290 C 0.71407 0.33486 0.05273 0.0
C291 C 0.67917 0.32458 0.07752 0.0
C292 C 0.67346 0.28386 0.10389 0.0
C293 C 0.70214 0.25411 0.10561 0.0
C294 C 0.60395 0.38815 0.12158 0.0
C295 C 0.59202 0.4173 0.07257 0.0
C296 C 0.63203 0.35781 0.12316 0.0
C297 C 0.64886 0.35628 0.07585 0.0
C298 C 0.63674 0.38544 0.02686 0.0
C299 C 0.60851 0.41552 0.02519 0.0
H300 H 0.2505 0.87104 0.13193 0.0
H301 H 0.1379 0.82996 0.0569 0.0
H302 H 0.21388 0.90209 0.18974 0.0
H303 H 0.10113 0.8632 0.11152 0.0
H304 H 0.05506 0.96527 0.18745 0.0
H305 H 0.09413 0.94176 0.12625 0.0
H306 H 0.16527 0.86401 0.2662 0.0
H307 H 0.12483 0.88502 0.32758 0.0
C308 C 0.2179 0.8694 0.12712 0.0
C309 C 0.1969 0.84874 0.08935 0.0
C310 C 0.19704 0.88714 0.15993 0.0
C311 C 0.15477 0.88523 0.15456 0.0
C312 C 0.1337 0.86564 0.11566 0.0
C313 C 0.15465 0.84708 0.0839 0.0
C314 C 0.07867 0.94282 0.20545 0.0
C315 C 0.08635 0.92693 0.26282 0.0
C316 C 0.10124 0.92972 0.17027 0.0
C317 C 0.13265 0.90127 0.19171 0.0
C318 C 0.14144 0.88638 0.24885 0.0
C319 C 0.11832 0.89871 0.28399 0.0
H320 H 0.64286 0.72829 0.72235 0.0
H321 H 0.71179 0.61975 0.73664 0.0
H322 H 0.60355 0.69176 0.79228 0.0
H323 H 0.67437 0.58309 0.80868 0.0
H324 H 0.58042 0.51764 0.90678 0.0
H325 H 0.61409 0.55368 0.83118 0.0
H326 H 0.60652 0.66504 0.8861 0.0
H327 H 0.56962 0.62938 0.95862 0.0
C328 C 0.64937 0.69644 0.74071 0.0
C329 C 0.67999 0.6766 0.72433 0.0
C330 C 0.62728 0.67551 0.78121 0.0
C331 C 0.6358 0.63432 0.80695 0.0
C332 C 0.66627 0.61448 0.78952 0.0
C333 C 0.68788 0.63535 0.74838 0.0
C334 C 0.58568 0.54991 0.90249 0.0
C335 C 0.57303 0.57048 0.93964 0.0
C336 C 0.60548 0.57059 0.85931 0.0
C337 C 0.61362 0.61242 0.85231 0.0
C338 C 0.60058 0.633 0.88938 0.0
C339 C 0.5801 0.61238 0.93194 0.0
H340 H 0.89459 0.18869 0.13714 0.0
H341 H 0.79323 0.11922 0.19265 0.0
H342 H 0.93958 0.14929 0.21655 0.0
H343 H 0.83743 0.08029 0.27266 0.0
H344 H 0.9305 1.00217 0.39834 0.0
H345 H 0.89337 0.03204 0.30749 0.0
H346 H 0.94741 0.14846 0.31504 0.0
H347 H 0.98576 0.11814 0.40459 0.0
C348 C 0.88231 0.16418 0.16573 0.0
C349 C 0.84075 0.15674 0.15932 0.0
C350 C 0.90778 0.14201 0.21143 0.0
C351 C 0.89199 0.11198 0.25129 0.0
C352 C 0.85067 0.10293 0.24263 0.0
C353 C 0.82533 0.12515 0.19706 0.0
C354 C 0.93507 0.03392 0.37999 0.0
C355 C 0.96111 0.0578 0.40843 0.0
C356 C 0.91351 0.05113 0.32823 0.0
C357 C 0.91752 0.09261 0.3039 0.0
C358 C 0.94414 0.11627 0.33209 0.0
C359 C 0.96573 0.09903 0.38374 0.0
H360 H 0.39732 0.31692 0.56632 0.0
H361 H 0.30309 0.402 0.48038 0.0
H362 H 0.41737 0.36031 0.63122 0.0
H363 H 0.32414 0.44696 0.54218 0.0
H364 H 0.32634 0.48488 0.7017 0.0
H365 H 0.31558 0.44422 0.63313 0.0
H366 H 0.44407 0.42146 0.6544 0.0
H367 H 0.45437 0.46128 0.72522 0.0
C368 C 0.38232 0.34601 0.55991 0.0
C369 C 0.34932 0.35676 0.51796 0.0
C370 C 0.39353 0.3708 0.59713 0.0
C371 C 0.37189 0.4069 0.5928 0.0
C372 C 0.34087 0.41893 0.54789 0.0
C373 C 0.32934 0.3938 0.5115 0.0
C374 C 0.35223 0.47093 0.69194 0.0
C375 C 0.39116 0.4763 0.71856 0.0
C376 C 0.34621 0.448 0.65206 0.0
C377 C 0.37905 0.43024 0.63693 0.0
C378 C 0.41804 0.43462 0.66487 0.0
C379 C 0.424 0.45731 0.7055 0.0
H380 H 0.63029 0.68687 0.60634 0.0
H381 H 0.74404 0.62878 0.61162 0.0
H382 H 0.5971 0.64499 0.54522 0.0
H383 H 0.71139 0.58624 0.55163 0.0
H384 H 0.65507 0.56641 0.38359 0.0
H385 H 0.68459 0.60058 0.45486 0.0
H386 H 0.57698 0.57731 0.5319 0.0
H387 H 0.54674 0.54425 0.45915 0.0
C388 C 0.64779 0.66416 0.59561 0.0
C389 C 0.68954 0.66092 0.61311 0.0
C390 C 0.62898 0.64027 0.5606 0.0
C391 C 0.65174 0.61274 0.54265 0.0
C392 C 0.69312 0.60779 0.5635 0.0
C393 C 0.71179 0.63171 0.59822 0.0
C394 C 0.63752 0.56883 0.41542 0.0
C395 C 0.59847 0.55265 0.41545 0.0
C396 C 0.65468 0.58794 0.45683 0.0
C397 C 0.63332 0.59141 0.49952 0.0
C398 C 0.59422 0.5753 0.49959 0.0
C399 C 0.57704 0.55604 0.45813 0.0
H400 H 0.86399 0.23479 0.9979 0.0
H401 H 0.81811 0.11654 0.06446 0.0
H402 H 0.90113 0.20572 0.93936 0.0
H403 H 0.85442 0.08698 1.00526 0.0
H404 H 0.9546 0.04256 0.92731 0.0
H405 H 0.91962 0.07038 0.98859 0.0
H406 H 0.88859 0.17813 0.85937 0.0
H407 H 0.92542 0.15118 0.79902 0.0
C408 C 0.86203 0.20247 0.9998 0.0
C409 C 0.83825 0.1778 0.0352 0.0
C410 C 0.88296 0.1858 0.9661 0.0
C411 C 0.88043 0.14402 0.96695 0.0
C412 C 0.85739 0.11918 1.00375 0.0
C413 C 0.8366 0.13595 0.03766 0.0
C414 C 0.9406 0.07235 0.91205 0.0
C415 C 0.94316 0.09473 0.85824 0.0
C416 C 0.92009 0.08812 0.94708 0.0
C417 C 0.90142 0.12666 0.9292 0.0
C418 C 0.9032 0.14866 0.87496 0.0
C419 C 0.92383 0.13293 0.83998 0.0
H420 H 0.33069 0.40234 0.39668 0.0
H421 H 0.39092 0.2908 0.39942 0.0
H422 H 0.36927 0.43914 0.3261 0.0
H423 H 0.42844 0.32675 0.32696 0.0
H424 H 0.51374 0.40954 0.22707 0.0
H425 H 0.48003 0.37518 0.30419 0.0
H426 H 0.37178 0.44576 0.2304 0.0
H427 H 0.40633 0.48148 0.15519 0.0
C428 C 0.35286 0.38593 0.38291 0.0
C429 C 0.35843 0.34396 0.40406 0.0
C430 C 0.37446 0.40677 0.34167 0.0
C431 C 0.40193 0.38598 0.32033 0.0
C432 C 0.40803 0.34399 0.34265 0.0
C433 C 0.38649 0.32329 0.38397 0.0
C434 C 0.4828 0.41782 0.22756 0.0
C435 C 0.46266 0.44815 0.18485 0.0
C436 C 0.46332 0.3979 0.27159 0.0
C437 C 0.42308 0.40762 0.27385 0.0
C438 C 0.40293 0.43782 0.23074 0.0
C439 C 0.42253 0.45789 0.187 0.0
H440 H 0.13631 0.81522 0.96903 0.0
H441 H 0.2297 0.90458 0.94868 0.0
H442 H 0.09281 0.85622 0.8907 0.0
H443 H 0.18856 0.94417 0.86626 0.0
H444 H 0.10108 0.01785 0.72844 0.0
H445 H 0.13528 0.9854 0.81984 0.0
H446 H 0.08611 0.86947 0.79809 0.0
H447 H 0.04847 0.90287 0.71071 0.0
C448 C 0.14696 0.84432 0.94812 0.0
C449 C 0.18551 0.85765 0.96537 0.0
C450 C 0.1226 0.86744 0.90232 0.0
C451 C 0.13718 0.90344 0.8709 0.0
C452 C 0.1757 0.91716 0.88946 0.0
C453 C 0.19945 0.89459 0.93655 0.0
C454 C 0.09686 0.98562 0.74411 0.0
C455 C 0.07204 0.96293 0.71242 0.0
C456 C 0.11701 0.96677 0.79621 0.0
C457 C 0.11369 0.92456 0.8171 0.0
C458 C 0.08883 0.9021 0.78483 0.0
C459 C 0.06778 0.92115 0.73379 0.0
loop_
_geom_bond_atom_site_label_1
_geom_bond_atom_site_label_2
_geom_bond_distance
_geom_bond_site_symmetry_2
_ccdc_geom_bond_type
C0 N1 1.317 . S
C0 N2 1.348 1_556 S
C0 C3 1.485 . S
N1 C0 1.317 . S
N1 N5 1.370 1_556 S
N2 C0 1.348 1_554 S
N2 C4 1.346 . S
C3 C0 1.485 . S
C3 H7 0.960 . S
C3 H8 0.961 . S
C3 H9 0.960 . S
C4 N2 1.346 . S
C4 N5 1.307 . S
C4 C6 1.486 . S
N5 N1 1.370 1_554 S
N5 C4 1.307 . S
C6 C4 1.486 . S
C6 H10 0.960 . S
C6 H11 0.960 . S
C6 H12 0.959 . S
H7 C3 0.960 . S
H8 C3 0.961 . S
H9 C3 0.960 . S
H10 C6 0.960 . S
H11 C6 0.960 . S
H12 C6 0.959 . S
C13 N14 1.317 . S
C13 N15 1.348 . S
C13 C16 1.485 . S
N14 C13 1.317 . S
N14 N18 1.370 . S
N15 C13 1.348 . S
N15 C17 1.346 . S
C16 C13 1.485 . S
C16 H20 0.960 . S
C16 H21 0.961 . S
C16 H22 0.960 . S
C17 N15 1.346 . S
C17 N18 1.307 . S
C17 C19 1.486 . S
N18 N14 1.370 . S
N18 C17 1.307 . S
C19 C17 1.486 . S
C19 H23 0.960 . S
C19 H24 0.960 . S
C19 H25 0.959 . S
H20 C16 0.960 . S
H21 C16 0.961 . S
H22 C16 0.960 . S
H23 C19 0.960 . S
H24 C19 0.960 . S
H25 C19 0.959 . S
C26 N27 1.317 . S
C26 N28 1.348 . S
C26 C29 1.485 . S
N27 C26 1.317 . S
N27 N31 1.370 . S
N28 C26 1.348 . S
N28 C30 1.346 . S
C29 C26 1.485 . S
C29 H33 0.960 . S
C29 H34 0.961 . S
C29 H35 0.960 . S
C30 N28 1.346 . S
C30 N31 1.307 . S
C30 C32 1.486 1_554 S
N31 N27 1.370 . S
N31 C30 1.307 . S
C32 C30 1.486 1_556 S
C32 H36 0.960 . S
C32 H37 0.960 . S
C32 H38 0.959 . S
H33 C29 0.960 . S
H34 C29 0.961 . S
H35 C29 0.960 . S
H36 C32 0.960 . S
H37 C32 0.960 . S
H38 C32 0.959 . S
C39 N40 1.317 . S
C39 N41 1.348 . S
C39 C42 1.485 . S
N40 C39 1.317 . S
N40 N44 1.370 . S
N41 C39 1.348 . S
N41 C43 1.346 . S
C42 C39 1.485 . S
C42 H46 0.960 . S
C42 H47 0.961 . S
C42 H48 0.960 . S
C43 N41 1.346 . S
C43 N44 1.307 . S
C43 C45 1.486 . S
N44 N40 1.370 . S
N44 C43 1.307 . S
C45 C43 1.486 . S
C45 H49 0.960 . S
C45 H50 0.960 . S
C45 H51 0.959 . S
H46 C42 0.960 . S
H47 C42 0.961 . S
H48 C42 0.960 . S
H49 C45 0.960 . S
H50 C45 0.960 . S
H51 C45 0.959 . S
Eu52 N81 2.600 . S
Eu52 N87 2.562 . S
Eu52 O96 2.462 . S
Eu52 O97 2.373 . S
Eu52 O99 2.432 . S
Eu52 O100 2.291 1_565 S
Eu52 O104 2.335 1_465 S
Eu52 O107 2.372 1_455 S
Eu52 C116 2.787 . S
C53 N54 1.365 . S
C53 C56 1.405 . S
C53 C60 1.448 . S
N54 C53 1.365 . S
N54 C57 1.319 1_655 S
N54 Eu63 2.600 . S
C55 C57 1.397 . S
C55 C58 1.367 1_455 S
C55 H75 0.931 . S
C56 C53 1.405 . S
C56 C58 1.403 . S
C56 C62 1.439 . S
C57 N54 1.319 1_455 S
C57 C55 1.397 . S
C57 H68 0.930 . S
C58 C55 1.367 1_655 S
C58 C56 1.403 . S
C58 H79 0.929 . S
C59 C60 1.430 . S
C59 C61 1.387 . S
C59 C65 1.404 . S
C60 C53 1.448 . S
C60 C59 1.430 . S
C60 N64 1.351 . S
C61 C59 1.387 . S
C61 C62 1.374 . S
C61 H76 0.931 . S
C62 C56 1.439 . S
C62 C61 1.374 . S
C62 H77 0.931 . S
Eu63 N54 2.600 . S
Eu63 N64 2.562 . S
Eu63 O98 2.335 1_655 S
Eu63 O101 2.372 1_655 S
Eu63 O102 2.462 . S
Eu63 O103 2.373 . S
Eu63 O105 2.432 . S
Eu63 O106 2.291 1_545 S
Eu63 C127 2.787 . S
N64 C60 1.351 . S
N64 Eu63 2.562 . S
N64 C66 1.325 . S
C65 C59 1.404 . S
C65 C67 1.366 . S
C65 H73 0.930 . S
C66 N64 1.325 . S
C66 C67 1.416 . S
C66 H72 0.929 . S
C67 C65 1.366 . S
C67 C66 1.416 . S
C67 H69 0.930 . S
H68 C57 0.930 . S
H69 C67 0.930 . S
H70 C85 0.930 1_655 S
H71 C92 0.930 . S
H72 C66 0.929 . S
H73 C65 0.930 . S
H74 C88 0.929 . S
H75 C55 0.931 . S
H76 C61 0.931 . S
H77 C62 0.931 . S
H78 C83 0.931 1_655 S
H79 C58 0.929 . S
H80 C91 0.930 . S
N81 Eu52 2.600 . S
N81 C82 1.365 . S
N81 C85 1.319 . S
C82 N81 1.365 . S
C82 C84 1.405 . S
C82 C90 1.448 . S
C83 H78 0.931 1_455 S
C83 C85 1.397 . S
C83 C86 1.367 . S
C84 C82 1.405 . S
C84 C86 1.403 . S
C84 C117 1.439 . S
C85 H70 0.930 1_455 S
C85 N81 1.319 . S
C85 C83 1.397 . S
C86 C83 1.367 . S
C86 C84 1.403 . S
C86 H93 0.929 . S
N87 Eu52 2.562 . S
N87 C88 1.325 . S
N87 C90 1.351 . S
C88 H74 0.929 . S
C88 N87 1.325 . S
C88 C92 1.416 . S
C89 C90 1.430 . S
C89 C91 1.404 . S
C89 C118 1.387 . S
C90 C82 1.448 . S
C90 N87 1.351 . S
C90 C89 1.430 . S
C91 H80 0.930 . S
C91 C89 1.404 . S
C91 C92 1.366 . S
C92 H71 0.930 . S
C92 C88 1.416 . S
C92 C91 1.366 . S
H93 C86 0.929 . S
H94 C117 0.931 . S
H95 C118 0.931 . S
O96 Eu52 2.462 . S
O96 C116 1.252 . S
O97 Eu52 2.373 . S
O97 C108 1.249 . S
O98 Eu63 2.335 1_455 S
O98 C108 1.264 1_545 S
O99 Eu52 2.432 . S
O99 C116 1.268 . S
O100 Eu52 2.291 1_545 S
O100 C115 1.255 . S
O101 Eu63 2.372 1_455 S
O101 C115 1.257 . S
O102 Eu63 2.462 . S
O102 C127 1.252 . S
O103 Eu63 2.373 . S
O103 C119 1.249 . S
O104 Eu52 2.335 1_645 S
O104 C119 1.264 . S
O105 Eu63 2.432 . S
O105 C127 1.268 . S
O106 Eu63 2.291 1_565 S
O106 C126 1.255 . S
O107 Eu52 2.372 1_655 S
O107 C126 1.257 . S
C108 O97 1.249 . S
C108 O98 1.264 1_565 S
C109 C112 1.382 . S
C109 C114 1.390 . S
C109 C116 1.506 . S
C110 C111 1.398 . S
C110 C114 1.392 . S
C111 C110 1.398 . S
C111 C113 1.372 . S
C111 H128 0.931 . S
C112 C109 1.382 . S
C112 C113 1.390 . S
C112 H129 0.931 . S
C113 C111 1.372 . S
C113 C112 1.390 . S
C113 H130 0.929 . S
C114 C109 1.390 . S
C114 C110 1.392 . S
C114 H131 0.930 . S
C115 O100 1.255 . S
C115 O101 1.257 . S
C116 Eu52 2.787 . S
C116 O96 1.252 . S
C116 O99 1.268 . S
C116 C109 1.506 . S
C117 C84 1.439 . S
C117 H94 0.931 . S
C117 C118 1.374 . S
C118 C89 1.387 . S
C118 H95 0.931 . S
C118 C117 1.374 . S
C119 O103 1.249 . S
C119 O104 1.264 . S
C120 C123 1.382 . S
C120 C124 1.390 . S
C120 C127 1.506 . S
C121 C122 1.398 . S
C121 C124 1.392 . S
C122 C121 1.398 . S
C122 C125 1.372 . S
C122 H132 0.931 . S
C123 C120 1.382 . S
C123 C125 1.390 . S
C123 H133 0.931 . S
C124 C120 1.390 . S
C124 C121 1.392 . S
C124 H134 0.930 . S
C125 C122 1.372 . S
C125 C123 1.390 . S
C125 H135 0.929 . S
C126 O106 1.255 . S
C126 O107 1.257 . S
C127 Eu63 2.787 . S
C127 O102 1.252 . S
C127 O105 1.268 . S
C127 C120 1.506 . S
H128 C111 0.931 . S
H129 C112 0.931 . S
H130 C113 0.929 . S
H131 C114 0.930 . S
H132 C122 0.931 . S
H133 C123 0.931 . S
H134 C124 0.930 . S
H135 C125 0.929 . S
Eu136 N165 2.600 1_556 S
Eu136 N171 2.562 1_556 S
Eu136 O180 2.462 . S
Eu136 O181 2.373 1_556 S
Eu136 O183 2.432 . S
Eu136 O184 2.291 1_556 S
Eu136 O188 2.335 . S
Eu136 O191 2.372 1_556 S
Eu136 C200 2.787 . S
C137 N138 1.365 . S
C137 C140 1.405 . S
C137 C144 1.448 . S
N138 C137 1.365 . S
N138 C141 1.319 . S
N138 Eu147 2.600 . S
C139 C141 1.397 . S
C139 C142 1.367 . S
C139 H159 0.931 . S
C140 C137 1.405 . S
C140 C142 1.403 . S
C140 C146 1.439 . S
C141 N138 1.319 . S
C141 C139 1.397 . S
C141 H152 0.930 . S
C142 C139 1.367 . S
C142 C140 1.403 . S
C142 H163 0.929 . S
C143 C144 1.430 . S
C143 C145 1.387 . S
C143 C149 1.404 . S
C144 C137 1.448 . S
C144 C143 1.430 . S
C144 N148 1.351 . S
C145 C143 1.387 . S
C145 C146 1.374 . S
C145 H160 0.931 . S
C146 C140 1.439 . S
C146 C145 1.374 . S
C146 H161 0.931 . S
Eu147 N138 2.600 . S
Eu147 N148 2.562 . S
Eu147 O182 2.335 . S
Eu147 O185 2.372 . S
Eu147 O186 2.462 . S
Eu147 O187 2.373 . S
Eu147 O189 2.432 . S
Eu147 O190 2.291 . S
Eu147 C211 2.787 . S
N148 C144 1.351 . S
N148 Eu147 2.562 . S
N148 C150 1.325 . S
C149 C143 1.404 . S
C149 C151 1.366 . S
C149 H157 0.930 . S
C150 N148 1.325 . S
C150 C151 1.416 . S
C150 H156 0.929 . S
C151 C149 1.366 . S
C151 C150 1.416 . S
C151 H153 0.930 . S
H152 C141 0.930 . S
H153 C151 0.930 . S
H154 C169 0.930 . S
H155 C176 0.930 . S
H156 C150 0.929 . S
H157 C149 0.930 . S
H158 C172 0.929 . S
H159 C139 0.931 . S
H160 C145 0.931 . S
H161 C146 0.931 . S
H162 C167 0.931 . S
H163 C142 0.929 . S
H164 C175 0.930 . S
N165 Eu136 2.600 1_554 S
N165 C166 1.365 . S
N165 C169 1.319 1_554 S
C166 N165 1.365 . S
C166 C168 1.405 . S
C166 C174 1.448 . S
C167 H162 0.931 . S
C167 C169 1.397 . S
C167 C170 1.367 1_556 S
C168 C166 1.405 . S
C168 C170 1.403 . S
C168 C201 1.439 . S
C169 H154 0.930 . S
C169 N165 1.319 1_556 S
C169 C167 1.397 . S
C170 C167 1.367 1_554 S
C170 C168 1.403 . S
C170 H177 0.929 . S
N171 Eu136 2.562 1_554 S
N171 C172 1.325 . S
N171 C174 1.351 . S
C172 H158 0.929 . S
C172 N171 1.325 . S
C172 C176 1.416 . S
C173 C174 1.430 . S
C173 C175 1.404 . S
C173 C202 1.387 . S
C174 C166 1.448 . S
C174 N171 1.351 . S
C174 C173 1.430 . S
C175 H164 0.930 . S
C175 C173 1.404 . S
C175 C176 1.366 . S
C176 H155 0.930 . S
C176 C172 1.416 . S
C176 C175 1.366 . S
H177 C170 0.929 . S
H178 C201 0.931 . S
H179 C202 0.931 . S
O180 Eu136 2.462 . S
O180 C200 1.252 . S
O181 Eu136 2.373 1_554 S
O181 C192 1.249 . S
O182 Eu147 2.335 . S
O182 C192 1.264 . S
O183 Eu136 2.432 . S
O183 C200 1.268 . S
O184 Eu136 2.291 1_554 S
O184 C199 1.255 . S
O185 Eu147 2.372 . S
O185 C199 1.257 . S
O186 Eu147 2.462 . S
O186 C211 1.252 . S
O187 Eu147 2.373 . S
O187 C203 1.249 1_554 S
O188 Eu136 2.335 . S
O188 C203 1.264 . S
O189 Eu147 2.432 . S
O189 C211 1.268 . S
O190 Eu147 2.291 . S
O190 C210 1.255 . S
O191 Eu136 2.372 1_554 S
O191 C210 1.257 . S
C192 O181 1.249 . S
C192 O182 1.264 . S
C193 C196 1.382 . S
C193 C198 1.390 . S
C193 C200 1.506 . S
C194 C195 1.398 . S
C194 C198 1.392 . S
C195 C194 1.398 . S
C195 C197 1.372 . S
C195 H212 0.931 . S
C196 C193 1.382 . S
C196 C197 1.390 . S
C196 H213 0.931 . S
C197 C195 1.372 . S
C197 C196 1.390 . S
C197 H214 0.929 . S
C198 C193 1.390 . S
C198 C194 1.392 . S
C198 H215 0.930 . S
C199 O184 1.255 . S
C199 O185 1.257 . S
C200 Eu136 2.787 . S
C200 O180 1.252 . S
C200 O183 1.268 . S
C200 C193 1.506 . S
C201 C168 1.439 . S
C201 H178 0.931 . S
C201 C202 1.374 . S
C202 C173 1.387 . S
C202 H179 0.931 . S
C202 C201 1.374 . S
C203 O187 1.249 1_556 S
C203 O188 1.264 . S
C204 C207 1.382 . S
C204 C208 1.390 . S
C204 C211 1.506 . S
C205 C206 1.398 . S
C205 C208 1.392 . S
C206 C205 1.398 . S
C206 C209 1.372 . S
C206 H216 0.931 . S
C207 C204 1.382 . S
C207 C209 1.390 . S
C207 H217 0.931 . S
C208 C204 1.390 . S
C208 C205 1.392 . S
C208 H218 0.930 . S
C209 C206 1.372 . S
C209 C207 1.390 . S
C209 H219 0.929 . S
C210 O190 1.255 . S
C210 O191 1.257 . S
C211 Eu147 2.787 . S
C211 O186 1.252 . S
C211 O189 1.268 . S
C211 C204 1.506 . S
H212 C195 0.931 . S
H213 C196 0.931 . S
H214 C197 0.929 . S
H215 C198 0.930 . S
H216 C206 0.931 . S
H217 C207 0.931 . S
H218 C208 0.930 . S
H219 C209 0.929 . S
H220 C228 0.950 . S
H221 C233 0.950 . S
H222 C230 0.950 . S
H223 C232 0.950 . S
H224 C234 0.950 . S
H225 C236 0.950 . S
H226 C238 0.950 . S
H227 C239 0.950 . S
C228 H220 0.950 . S
C228 C229 1.386 . S
C228 C230 1.391 . S
C229 C228 1.386 . S
C229 C233 1.393 . S
C230 H222 0.950 . S
C230 C228 1.391 . S
C230 C231 1.400 . S
C231 C230 1.400 . S
C231 C232 1.398 . S
C231 C237 1.491 . S
C232 H223 0.950 . S
C232 C231 1.398 . S
C232 C233 1.391 . S
C233 H221 0.950 . S
C233 C229 1.393 . S
C233 C232 1.391 . S
C234 H224 0.950 . S
C234 C235 1.386 . S
C234 C236 1.391 . S
C235 C234 1.386 . S
C235 C239 1.393 . S
C236 H225 0.950 . S
C236 C234 1.391 . S
C236 C237 1.400 . S
C237 C231 1.491 . S
C237 C236 1.400 . S
C237 C238 1.398 . S
C238 H226 0.950 . S
C238 C237 1.398 . S
C238 C239 1.391 . S
C239 H227 0.950 . S
C239 C235 1.393 . S
C239 C238 1.391 . S
H240 C248 0.950 . S
H241 C253 0.950 1_556 S
H242 C250 0.950 . S
H243 C252 0.950 1_556 S
H244 C254 0.950 1_556 S
H245 C256 0.950 1_556 S
H246 C258 0.950 . S
H247 C259 0.950 . S
C248 H240 0.950 . S
C248 C249 1.386 . S
C248 C250 1.391 . S
C249 C248 1.386 . S
C249 C253 1.393 . S
C250 H242 0.950 . S
C250 C248 1.391 . S
C250 C251 1.400 . S
C251 C250 1.400 . S
C251 C252 1.398 . S
C251 C257 1.491 . S
C252 H243 0.950 1_554 S
C252 C251 1.398 . S
C252 C253 1.391 . S
C253 H241 0.950 1_554 S
C253 C249 1.393 . S
C253 C252 1.391 . S
C254 H244 0.950 1_554 S
C254 C255 1.386 . S
C254 C256 1.391 . S
C255 C254 1.386 . S
C255 C259 1.393 . S
C256 H245 0.950 1_554 S
C256 C254 1.391 . S
C256 C257 1.400 . S
C257 C251 1.491 . S
C257 C256 1.400 . S
C257 C258 1.398 . S
C258 H246 0.950 . S
C258 C257 1.398 . S
C258 C259 1.391 . S
C259 H247 0.950 . S
C259 C255 1.393 . S
C259 C258 1.391 . S
H260 C268 0.950 . S
H261 C273 0.950 . S
H262 C270 0.950 . S
H263 C272 0.950 . S
H264 C274 0.950 . S
H265 C276 0.950 . S
H266 C278 0.950 . S
H267 C279 0.950 . S
C268 H260 0.950 . S
C268 C269 1.386 . S
C268 C270 1.391 . S
C269 C268 1.386 . S
C269 C273 1.393 . S
C270 H262 0.950 . S
C270 C268 1.391 . S
C270 C271 1.400 . S
C271 C270 1.400 . S
C271 C272 1.398 . S
C271 C277 1.491 . S
C272 H263 0.950 . S
C272 C271 1.398 . S
C272 C273 1.391 . S
C273 H261 0.950 . S
C273 C269 1.393 . S
C273 C272 1.391 . S
C274 H264 0.950 . S
C274 C275 1.386 . S
C274 C276 1.391 . S
C275 C274 1.386 . S
C275 C279 1.393 . S
C276 H265 0.950 . S
C276 C274 1.391 . S
C276 C277 1.400 . S
C277 C271 1.491 . S
C277 C276 1.400 . S
C277 C278 1.398 . S
C278 H266 0.950 . S
C278 C277 1.398 . S
C278 C279 1.391 . S
C279 H267 0.950 . S
C279 C275 1.393 . S
C279 C278 1.391 . S
H280 C288 0.950 1_556 S
H281 C293 0.950 . S
H282 C290 0.950 1_556 S
H283 C292 0.950 . S
H284 C294 0.950 . S
H285 C296 0.950 . S
H286 C298 0.950 1_556 S
H287 C299 0.950 1_556 S
C288 H280 0.950 1_554 S
C288 C289 1.386 . S
C288 C290 1.391 . S
C289 C288 1.386 . S
C289 C293 1.393 . S
C290 H282 0.950 1_554 S
C290 C288 1.391 . S
C290 C291 1.400 . S
C291 C290 1.400 . S
C291 C292 1.398 . S
C291 C297 1.491 . S
C292 H283 0.950 . S
C292 C291 1.398 . S
C292 C293 1.391 . S
C293 H281 0.950 . S
C293 C289 1.393 . S
C293 C292 1.391 . S
C294 H284 0.950 . S
C294 C295 1.386 . S
C294 C296 1.391 . S
C295 C294 1.386 . S
C295 C299 1.393 . S
C296 H285 0.950 . S
C296 C294 1.391 . S
C296 C297 1.400 . S
C297 C291 1.491 . S
C297 C296 1.400 . S
C297 C298 1.398 . S
C298 H286 0.950 1_554 S
C298 C297 1.398 . S
C298 C299 1.391 . S
C299 H287 0.950 1_554 S
C299 C295 1.393 . S
C299 C298 1.391 . S
H300 C308 0.950 . S
H301 C313 0.950 . S
H302 C310 0.950 . S
H303 C312 0.950 . S
H304 C314 0.950 . S
H305 C316 0.950 . S
H306 C318 0.950 . S
H307 C319 0.950 . S
C308 H300 0.950 . S
C308 C309 1.386 . S
C308 C310 1.391 . S
C309 C308 1.386 . S
C309 C313 1.393 . S
C310 H302 0.950 . S
C310 C308 1.391 . S
C310 C311 1.400 . S
C311 C310 1.400 . S
C311 C312 1.398 . S
C311 C317 1.491 . S
C312 H303 0.950 . S
C312 C311 1.398 . S
C312 C313 1.391 . S
C313 H301 0.950 . S
C313 C309 1.393 . S
C313 C312 1.391 . S
C314 H304 0.950 . S
C314 C315 1.386 . S
C314 C316 1.391 . S
C315 C314 1.386 . S
C315 C319 1.393 . S
C316 H305 0.950 . S
C316 C314 1.391 . S
C316 C317 1.400 . S
C317 C311 1.491 . S
C317 C316 1.400 . S
C317 C318 1.398 . S
C318 H306 0.950 . S
C318 C317 1.398 . S
C318 C319 1.391 . S
C319 H307 0.950 . S
C319 C315 1.393 . S
C319 C318 1.391 . S
H320 C328 0.950 . S
H321 C333 0.950 . S
H322 C330 0.950 . S
H323 C332 0.950 . S
H324 C334 0.950 . S
H325 C336 0.950 . S
H326 C338 0.950 . S
H327 C339 0.950 . S
C328 H320 0.950 . S
C328 C329 1.386 . S
C328 C330 1.391 . S
C329 C328 1.386 . S
C329 C333 1.393 . S
C330 H322 0.950 . S
C330 C328 1.391 . S
C330 C331 1.400 . S
C331 C330 1.400 . S
C331 C332 1.398 . S
C331 C337 1.491 . S
C332 H323 0.950 . S
C332 C331 1.398 . S
C332 C333 1.391 . S
C333 H321 0.950 . S
C333 C329 1.393 . S
C333 C332 1.391 . S
C334 H324 0.950 . S
C334 C335 1.386 . S
C334 C336 1.391 . S
C335 C334 1.386 . S
C335 C339 1.393 . S
C336 H325 0.950 . S
C336 C334 1.391 . S
C336 C337 1.400 . S
C337 C331 1.491 . S
C337 C336 1.400 . S
C337 C338 1.398 . S
C338 H326 0.950 . S
C338 C337 1.398 . S
C338 C339 1.391 . S
C339 H327 0.950 . S
C339 C335 1.393 . S
C339 C338 1.391 . S
H340 C348 0.950 . S
H341 C353 0.950 . S
H342 C350 0.950 . S
H343 C352 0.950 . S
H344 C354 0.950 . S
H345 C356 0.950 . S
H346 C358 0.950 . S
H347 C359 0.950 . S
C348 H340 0.950 . S
C348 C349 1.386 . S
C348 C350 1.391 . S
C349 C348 1.386 . S
C349 C353 1.393 . S
C350 H342 0.950 . S
C350 C348 1.391 . S
C350 C351 1.400 . S
C351 C350 1.400 . S
C351 C352 1.398 . S
C351 C357 1.491 . S
C352 H343 0.950 . S
C352 C351 1.398 . S
C352 C353 1.391 . S
C353 H341 0.950 . S
C353 C349 1.393 . S
C353 C352 1.391 . S
C354 H344 0.950 . S
C354 C355 1.386 . S
C354 C356 1.391 . S
C355 C354 1.386 . S
C355 C359 1.393 . S
C356 H345 0.950 . S
C356 C354 1.391 . S
C356 C357 1.400 . S
C357 C351 1.491 . S
C357 C356 1.400 . S
C357 C358 1.398 . S
C358 H346 0.950 . S
C358 C357 1.398 . S
C358 C359 1.391 . S
C359 H347 0.950 . S
C359 C355 1.393 . S
C359 C358 1.391 . S
H360 C368 0.950 . S
H361 C373 0.950 . S
H362 C370 0.950 . S
H363 C372 0.950 . S
H364 C374 0.950 . S
H365 C376 0.950 . S
H366 C378 0.950 . S
H367 C379 0.950 . S
C368 H360 0.950 . S
C368 C369 1.386 . S
C368 C370 1.391 . S
C369 C368 1.386 . S
C369 C373 1.393 . S
C370 H362 0.950 . S
C370 C368 1.391 . S
C370 C371 1.400 . S
C371 C370 1.400 . S
C371 C372 1.398 . S
C371 C377 1.491 . S
C372 H363 0.950 . S
C372 C371 1.398 . S
C372 C373 1.391 . S
C373 H361 0.950 . S
C373 C369 1.393 . S
C373 C372 1.391 . S
C374 H364 0.950 . S
C374 C375 1.386 . S
C374 C376 1.391 . S
C375 C374 1.386 . S
C375 C379 1.393 . S
C376 H365 0.950 . S
C376 C374 1.391 . S
C376 C377 1.400 . S
C377 C371 1.491 . S
C377 C376 1.400 . S
C377 C378 1.398 . S
C378 H366 0.950 . S
C378 C377 1.398 . S
C378 C379 1.391 . S
C379 H367 0.950 . S
C379 C375 1.393 . S
C379 C378 1.391 . S
H380 C388 0.950 . S
H381 C393 0.950 . S
H382 C390 0.950 . S
H383 C392 0.950 . S
H384 C394 0.950 . S
H385 C396 0.950 . S
H386 C398 0.950 . S
H387 C399 0.950 . S
C388 H380 0.950 . S
C388 C389 1.386 . S
C388 C390 1.391 . S
C389 C388 1.386 . S
C389 C393 1.393 . S
C390 H382 0.950 . S
C390 C388 1.391 . S
C390 C391 1.400 . S
C391 C390 1.400 . S
C391 C392 1.398 . S
C391 C397 1.491 . S
C392 H383 0.950 . S
C392 C391 1.398 . S
C392 C393 1.391 . S
C393 H381 0.950 . S
C393 C389 1.393 . S
C393 C392 1.391 . S
C394 H384 0.950 . S
C394 C395 1.386 . S
C394 C396 1.391 . S
C395 C394 1.386 . S
C395 C399 1.393 . S
C396 H385 0.950 . S
C396 C394 1.391 . S
C396 C397 1.400 . S
C397 C391 1.491 . S
C397 C396 1.400 . S
C397 C398 1.398 . S
C398 H386 0.950 . S
C398 C397 1.398 . S
C398 C399 1.391 . S
C399 H387 0.950 . S
C399 C395 1.393 . S
C399 C398 1.391 . S
H400 C408 0.950 . S
H401 C413 0.950 . S
H402 C410 0.950 . S
H403 C412 0.950 1_554 S
H404 C414 0.950 . S
H405 C416 0.950 . S
H406 C418 0.950 . S
H407 C419 0.950 . S
C408 H400 0.950 . S
C408 C409 1.386 1_556 S
C408 C410 1.391 . S
C409 C408 1.386 1_554 S
C409 C413 1.393 . S
C410 H402 0.950 . S
C410 C408 1.391 . S
C410 C411 1.400 . S
C411 C410 1.400 . S
C411 C412 1.398 . S
C411 C417 1.491 . S
C412 H403 0.950 1_556 S
C412 C411 1.398 . S
C412 C413 1.391 1_556 S
C413 H401 0.950 . S
C413 C409 1.393 . S
C413 C412 1.391 1_554 S
C414 H404 0.950 . S
C414 C415 1.386 . S
C414 C416 1.391 . S
C415 C414 1.386 . S
C415 C419 1.393 . S
C416 H405 0.950 . S
C416 C414 1.391 . S
C416 C417 1.400 . S
C417 C411 1.491 . S
C417 C416 1.400 . S
C417 C418 1.398 . S
C418 H406 0.950 . S
C418 C417 1.398 . S
C418 C419 1.391 . S
C419 H407 0.950 . S
C419 C415 1.393 . S
C419 C418 1.391 . S
H420 C428 0.950 . S
H421 C433 0.950 . S
H422 C430 0.950 . S
H423 C432 0.950 . S
H424 C434 0.950 . S
H425 C436 0.950 . S
H426 C438 0.950 . S
H427 C439 0.950 . S
C428 H420 0.950 . S
C428 C429 1.386 . S
C428 C430 1.391 . S
C429 C428 1.386 . S
C429 C433 1.393 . S
C430 H422 0.950 . S
C430 C428 1.391 . S
C430 C431 1.400 . S
C431 C430 1.400 . S
C431 C432 1.398 . S
C431 C437 1.491 . S
C432 H423 0.950 . S
C432 C431 1.398 . S
C432 C433 1.391 . S
C433 H421 0.950 . S
C433 C429 1.393 . S
C433 C432 1.391 . S
C434 H424 0.950 . S
C434 C435 1.386 . S
C434 C436 1.391 . S
C435 C434 1.386 . S
C435 C439 1.393 . S
C436 H425 0.950 . S
C436 C434 1.391 . S
C436 C437 1.400 . S
C437 C431 1.491 . S
C437 C436 1.400 . S
C437 C438 1.398 . S
C438 H426 0.950 . S
C438 C437 1.398 . S
C438 C439 1.391 . S
C439 H427 0.950 . S
C439 C435 1.393 . S
C439 C438 1.391 . S
H440 C448 0.950 . S
H441 C453 0.950 . S
H442 C450 0.950 . S
H443 C452 0.950 . S
H444 C454 0.950 1_545 S
H445 C456 0.950 . S
H446 C458 0.950 . S
H447 C459 0.950 . S
C448 H440 0.950 . S
C448 C449 1.386 . S
C448 C450 1.391 . S
C449 C448 1.386 . S
C449 C453 1.393 . S
C450 H442 0.950 . S
C450 C448 1.391 . S
C450 C451 1.400 . S
C451 C450 1.400 . S
C451 C452 1.398 . S
C451 C457 1.491 . S
C452 H443 0.950 . S
C452 C451 1.398 . S
C452 C453 1.391 . S
C453 H441 0.950 . S
C453 C449 1.393 . S
C453 C452 1.391 . S
C454 H444 0.950 1_565 S
C454 C455 1.386 . S
C454 C456 1.391 . S
C455 C454 1.386 . S
C455 C459 1.393 . S
C456 H445 0.950 . S
C456 C454 1.391 . S
C456 C457 1.400 . S
C457 C451 1.491 . S
C457 C456 1.400 . S
C457 C458 1.398 . S
C458 H446 0.950 . S
C458 C457 1.398 . S
C458 C459 1.391 . S
C459 H447 0.950 . S
C459 C455 1.393 . S
C459 C458 1.391 . S
C235 C115 1.672 . S
C229 N41 1.694 . S
C249 N2 1.643 . S
C255 C210 1.627 . S
C269 N15 1.686 . S
C275 C126 1.665 . S
C289 N28 1.642 . S
C295 C199 1.624 . S
C315 C110 1.383 . S
C309 N5 1.599 . S
C335 C203 1.667 . S
C329 N14 1.666 . S
C349 N27 1.582 . S
C355 C119 1.611 . S
C369 N44 1.574 . S
C375 C194 1.440 . S
C395 C205 1.420 . S
C389 N18 1.568 . S
C415 C121 1.427 . S
C409 N31 1.594 . S
C435 C192 1.669 . S
C429 N40 1.674 . S
C449 N1 1.595 . S
C455 C108 1.612 . S
