# Generated by pormake.
# Topology anh, (6,3)-cn, num edge types: 1
# Building blocks:
#     Node 0, Type 0, BuildingBlock: BETGAK_clean_sbu_0, # of connection points: 6
#     Node 1, Type 0, BuildingBlock: BETGAK_clean_sbu_0, # of connection points: 6
#     Node 2, Type 0, BuildingBlock: BETGAK_clean_sbu_0, # of connection points: 6
#     Node 3, Type 1, BuildingBlock: VETTIZ_charged_linker_0, # of connection points: 3
#     Node 4, Type 1, BuildingBlock: VETTIZ_charged_linker_0, # of connection points: 3
#     Node 5, Type 1, BuildingBlock: VETTIZ_charged_linker_0, # of connection points: 3
#     Node 6, Type 1, BuildingBlock: VETTIZ_charged_linker_0, # of connection points: 3
#     Node 7, Type 1, BuildingBlock: VETTIZ_charged_linker_0, # of connection points: 3
#     Node 8, Type 1, BuildingBlock: VETTIZ_charged_linker_0, # of connection points: 3
#     Edge 9, Type (0, 1), BuildingBlock: CIFDUS_clean_linker_0, # of connection points: 2
#     Edge 10, Type (0, 1), BuildingBlock: CIFDUS_clean_linker_0, # of connection points: 2
#     Edge 11, Type (0, 1), BuildingBlock: CIFDUS_clean_linker_0, # of connection points: 2
#     Edge 12, Type (0, 1), BuildingBlock: CIFDUS_clean_linker_0, # of connection points: 2
#     Edge 13, Type (0, 1), BuildingBlock: CIFDUS_clean_linker_0, # of connection points: 2
#     Edge 14, Type (0, 1), BuildingBlock: CIFDUS_clean_linker_0, # of connection points: 2
#     Edge 15, Type (0, 1), BuildingBlock: CIFDUS_clean_linker_0, # of connection points: 2
#     Edge 16, Type (0, 1), BuildingBlock: CIFDUS_clean_linker_0, # of connection points: 2
#     Edge 17, Type (0, 1), BuildingBlock: CIFDUS_clean_linker_0, # of connection points: 2
#     Edge 18, Type (0, 1), BuildingBlock: CIFDUS_clean_linker_0, # of connection points: 2
#     Edge 19, Type (0, 1), BuildingBlock: CIFDUS_clean_linker_0, # of connection points: 2
#     Edge 20, Type (0, 1), BuildingBlock: CIFDUS_clean_linker_0, # of connection points: 2
#     Edge 21, Type (0, 1), BuildingBlock: CIFDUS_clean_linker_0, # of connection points: 2
#     Edge 22, Type (0, 1), BuildingBlock: CIFDUS_clean_linker_0, # of connection points: 2
#     Edge 23, Type (0, 1), BuildingBlock: CIFDUS_clean_linker_0, # of connection points: 2
#     Edge 24, Type (0, 1), BuildingBlock: CIFDUS_clean_linker_0, # of connection points: 2
#     Edge 25, Type (0, 1), BuildingBlock: CIFDUS_clean_linker_0, # of connection points: 2
#     Edge 26, Type (0, 1), BuildingBlock: CIFDUS_clean_linker_0, # of connection points: 2
# Relax obj value: 0.200
# Max RMSD: 0.215
# Mean RMSD: 0.162
data_MOF--net-anh--node1-BETGAK_clean_sbu_0--node2-VETTIZ_charged_linker_0--edge1-CIFDUS_clean_linker_0
_symmetry_space_group_name_H-M    P1
_symmetry_Int_Tables_number       1
_symmetry_cell_setting            triclinic
loop_
_symmetry_equiv_pos_as_xyz
'x, y, z'
_cell_length_a     31.995021
_cell_length_b     39.513013
_cell_length_c     60.225085
_cell_angle_alpha  92.368107
_cell_angle_beta   89.613247
_cell_angle_gamma 129.82841
loop_
_atom_site_label
_atom_site_type_symbol
_atom_site_fract_x
_atom_site_fract_y
_atom_site_fract_z
_atom_type_partial_charge
La0 La 0.15762 0.52081 0.14772 0.0
La1 La 1.07074 0.52617 0.1564 0.0
C2 C 0.22583 0.51323 0.1347 0.0
C3 C 0.28162 0.53553 0.14287 0.0
C4 C 0.29417 0.54375 0.16582 0.0
C5 C 0.34539 0.56066 0.17375 0.0
C6 C 0.38517 0.57016 0.15889 0.0
C7 C 0.37379 0.56466 0.13587 0.0
C8 C 0.32223 0.54729 0.12792 0.0
C9 C 0.15383 0.54023 0.1895 0.0
C10 C 0.18915 0.61413 0.15566 0.0
C11 C 0.98663 0.51151 0.17038 0.0
C12 C 0.92945 0.46985 0.16949 0.0
C13 C 0.89806 0.45652 0.14986 0.0
C14 C 0.84565 0.41615 0.14808 0.0
C15 C 0.82265 0.38788 0.16589 0.0
C16 C 0.85346 0.40123 0.18573 0.0
C17 C 0.90661 0.44183 0.18748 0.0
C18 C 0.10394 0.53908 0.11507 0.0
C19 C 1.03537 0.43122 0.14875 0.0
O20 O 0.18757 0.487 0.14868 0.0
O21 O 0.21787 0.53778 0.12488 0.0
O22 O 0.19795 0.55473 0.17956 0.0
O23 O 0.11363 0.51357 0.17656 0.0
O24 O 0.2 0.59134 0.14408 0.0
O25 O 0.14194 0.59382 0.16555 0.0
O26 O 1.00785 0.52822 0.15121 0.0
O27 O 1.02066 0.51319 0.18333 0.0
O28 O 1.09062 0.56023 0.12544 0.0
O29 O 1.09642 0.51079 0.12742 0.0
O30 O 1.0196 0.45494 0.15033 0.0
O31 O 1.08749 0.45 0.14761 0.0
H32 H 0.26375 0.53543 0.17775 0.0
H33 H 0.35321 0.56458 0.19154 0.0
H34 H 0.40363 0.57119 0.12407 0.0
H35 H 0.31347 0.54153 0.11018 0.0
H36 H 0.91391 0.47721 0.13571 0.0
H37 H 0.82247 0.40773 0.13281 0.0
H38 H 0.83644 0.38039 0.19983 0.0
H39 H 0.92983 0.45122 0.20284 0.0
La40 La 0.68754 0.04649 0.48142 0.0
La41 La 0.61391 0.06647 0.47142 0.0
C42 C 0.7355 0.02102 0.49752 0.0
C43 C 0.72682 0.98069 0.50215 0.0
C44 C 0.77244 0.98356 0.50491 0.0
C45 C 0.76621 0.94656 0.5103 0.0
C46 C 0.7141 0.90582 0.51296 0.0
C47 C 0.6682 0.90267 0.50957 0.0
C48 C 0.67455 0.93997 0.50433 0.0
C49 C 0.68005 0.05781 0.43931 0.0
C50 C 0.55951 0.96729 0.47343 0.0
C51 C 0.57149 0.09669 0.45567 0.0
C52 C 0.57594 0.13534 0.46202 0.0
C53 C 0.58717 0.15156 0.48425 0.0
C54 C 0.58734 0.186 0.49065 0.0
C55 C 0.5772 0.2054 0.47492 0.0
C56 C 0.56847 0.19057 0.45249 0.0
C57 C 0.5675 0.15553 0.44611 0.0
C58 C 0.62343 0.05835 0.51388 0.0
C59 C 0.74295 0.14612 0.47922 0.0
O60 O 0.73693 0.02915 0.4766 0.0
O61 O 0.70844 0.02951 0.50934 0.0
O62 O 0.72385 0.0695 0.44895 0.0
O63 O 0.64153 0.03783 0.45268 0.0
O64 O 0.60591 0.98108 0.48268 0.0
O65 O 0.55599 0.99528 0.46421 0.0
O66 O 0.54807 0.06585 0.47011 0.0
O67 O 0.61526 0.10497 0.44774 0.0
O68 O 0.58052 0.04895 0.50468 0.0
O69 O 0.66058 0.07603 0.49994 0.0
O70 O 0.69516 0.13279 0.472 0.0
O71 O 0.74844 0.1179 0.48638 0.0
H72 H 0.81309 1.01469 0.5032 0.0
H73 H 0.80228 0.94989 0.51258 0.0
H74 H 0.62759 0.8718 0.51171 0.0
H75 H 0.63891 0.93726 0.50239 0.0
H76 H 0.59462 0.13693 0.49677 0.0
H77 H 0.59482 0.19721 0.508 0.0
H78 H 0.56049 0.20501 0.44008 0.0
H79 H 0.55914 0.14364 0.42887 0.0
La80 La 0.66119 0.57672 0.82897 0.0
La81 La 0.58582 0.48047 0.83804 0.0
C82 C 0.70481 0.64991 0.81236 0.0
C83 C 0.68957 0.67706 0.80705 0.0
C84 C 0.67864 0.69624 0.82377 0.0
C85 C 0.666 0.72291 0.8182 0.0
C86 C 0.6637 0.73065 0.79584 0.0
C87 C 0.67448 0.7113 0.7792 0.0
C88 C 0.68745 0.68497 0.78476 0.0
C89 C 0.6569 0.55866 0.87067 0.0
C90 C 0.53369 0.52611 0.83848 0.0
C91 C 0.54247 0.40565 0.85243 0.0
C92 C 0.54547 0.37096 0.84577 0.0
C93 C 0.55212 0.3642 0.8234 0.0
C94 C 0.55384 0.33075 0.81705 0.0
C95 C 0.54968 0.30372 0.83295 0.0
C96 C 0.54465 0.31134 0.85544 0.0
C97 C 0.5423 0.34462 0.86178 0.0
C98 C 0.59398 0.49818 0.79573 0.0
C99 C 0.71532 0.53268 0.83296 0.0
O100 O 0.70977 0.64549 0.83338 0.0
O101 O 0.68018 0.61284 0.80056 0.0
O102 O 0.70031 0.59249 0.86167 0.0
O103 O 0.61733 0.53875 0.85704 0.0
O104 O 0.57901 0.55947 0.82879 0.0
O105 O 0.53143 0.49438 0.84681 0.0
O106 O 0.5188 0.41291 0.83805 0.0
O107 O 0.58728 0.4424 0.86097 0.0
O108 O 0.55052 0.46403 0.80435 0.0
O109 O 0.63168 0.51831 0.81017 0.0
O110 O 0.66658 0.49763 0.83941 0.0
O111 O 0.72244 0.56731 0.82551 0.0
H112 H 0.68 0.69085 0.84114 0.0
H113 H 0.65755 0.73714 0.83137 0.0
H114 H 0.67386 0.71716 0.76184 0.0
H115 H 0.69622 0.67098 0.77157 0.0
H116 H 0.55567 0.38463 0.81078 0.0
H117 H 0.55866 0.3261 0.79965 0.0
H118 H 0.54132 0.29096 0.86802 0.0
H119 H 0.53767 0.34963 0.87915 0.0
C120 C 0.73461 0.14736 0.16778 0.0
C121 C 0.77885 0.18818 0.17815 0.0
C122 C 0.78476 0.19178 0.20143 0.0
C123 C 0.70257 0.11587 0.20404 0.0
C124 C 0.69728 0.1113 0.1811 0.0
C125 C 0.649 0.06441 0.17344 0.0
H126 H 0.42857 0.85754 0.20366 0.0
C127 C 0.6568 0.07358 0.21334 0.0
C128 C 0.62497 0.04272 0.19557 0.0
H129 H 0.4831 0.89733 0.13681 0.0
H130 H 0.55753 0.9722 0.15107 0.0
H131 H 0.54219 0.90367 0.22465 0.0
H132 H 0.44448 0.94257 0.22004 0.0
H133 H 0.47577 0.96155 0.24655 0.0
H134 H 0.43062 0.90314 0.23923 0.0
H135 H 0.48381 0.88111 0.24141 0.0
H136 H 0.5508 0.93033 0.2503 0.0
C137 C 0.67078 0.04423 0.16046 0.0
C138 C 0.60931 0.06534 0.15965 0.0
C139 C 0.6372 0.06444 0.29737 0.0
C140 C 0.59848 0.03019 0.31112 0.0
C141 C 0.55383 0.98929 0.30115 0.0
C142 C 0.54825 0.98235 0.27801 0.0
C143 C 0.58775 1.0166 0.2645 0.0
C144 C 0.63097 0.05691 0.27422 0.0
C145 C 0.66874 0.08947 0.25721 0.0
C146 C 0.64124 0.06183 0.23568 0.0
C147 C 0.59406 0.01928 0.24011 0.0
C148 C 0.7256 0.10276 0.26106 0.0
C149 C 0.66797 0.12831 0.25929 0.0
C150 C 0.4559 0.88233 0.19194 0.0
C151 C 0.44933 0.87142 0.16906 0.0
C152 C 0.48719 0.90476 0.15456 0.0
C153 C 0.5304 0.94815 0.16287 0.0
C154 C 0.53637 0.95822 0.18595 0.0
C155 C 0.49912 0.92518 0.19991 0.0
C156 C 0.51129 0.9402 0.22393 0.0
C157 C 0.56238 0.98769 0.2224 0.0
C158 C 0.57738 0.99883 0.20016 0.0
C159 C 0.52228 0.9124 0.23589 0.0
C160 C 0.46312 0.93651 0.23312 0.0
H161 H 0.75383 0.16156 0.23201 0.0
H162 H 0.72954 0.14365 0.14985 0.0
H163 H 0.6017 0.08617 0.16847 0.0
H164 H 0.56922 0.03233 0.15689 0.0
H165 H 0.6264 0.0793 0.14321 0.0
H166 H 0.70788 0.05349 0.16891 0.0
H167 H 0.68175 0.05628 0.14334 0.0
H168 H 0.64152 1.00786 0.15949 0.0
H169 H 0.67174 0.09642 0.30446 0.0
H170 H 0.52381 0.96212 0.31129 0.0
H171 H 0.51366 0.95026 0.27158 0.0
H172 H 0.72229 0.07606 0.2688 0.0
H173 H 0.75191 0.13283 0.27223 0.0
H174 H 0.74689 0.10816 0.24537 0.0
H175 H 0.62614 0.11605 0.26255 0.0
H176 H 0.67971 0.14653 0.24395 0.0
H177 H 0.69498 0.15183 0.27325 0.0
H178 H 0.81833 0.22282 0.2097 0.0
C179 C 0.74699 0.15613 0.21437 0.0
C180 C 0.63922 0.64718 0.53206 0.0
C181 C 0.64388 0.68017 0.5449 0.0
C182 C 0.63966 0.6772 0.56816 0.0
C183 C 0.62756 0.61013 0.56566 0.0
C184 C 0.6314 0.61262 0.54281 0.0
C185 C 0.62692 0.57517 0.53204 0.0
H186 H 0.59805 0.39102 0.54531 0.0
C187 C 0.61964 0.57064 0.5718 0.0
C188 C 0.61924 0.54981 0.5522 0.0
H189 H 0.6149 0.44998 0.4834 0.0
H190 H 0.62042 0.50721 0.50358 0.0
H191 H 0.68611 0.48164 0.57436 0.0
H192 H 0.51262 0.39531 0.5643 0.0
H193 H 0.52452 0.41689 0.59171 0.0
H194 H 0.54368 0.38391 0.58387 0.0
H195 H 0.63997 0.42674 0.58414 0.0
H196 H 0.65695 0.47335 0.60055 0.0
C197 C 0.68098 0.59497 0.52038 0.0
C198 C 0.57625 0.54778 0.51626 0.0
C199 C 0.59766 0.53302 0.65312 0.0
C200 C 0.58576 0.4968 0.66366 0.0
C201 C 0.58022 0.46343 0.65093 0.0
C202 C 0.58677 0.46614 0.6279 0.0
C203 C 0.59823 0.50233 0.61743 0.0
C204 C 0.60303 0.53481 0.62998 0.0
C205 C 0.61238 0.56949 0.61583 0.0
C206 C 0.61278 0.55261 0.59275 0.0
C207 C 0.60512 0.51364 0.59387 0.0
C208 C 0.66856 0.61418 0.62267 0.0
C209 C 0.56356 0.56877 0.61863 0.0
C210 C 0.60228 0.41583 0.53593 0.0
C211 C 0.60554 0.41552 0.51265 0.0
C212 C 0.61254 0.44942 0.50135 0.0
C213 C 0.61548 0.48252 0.51309 0.0
C214 C 0.61142 0.48179 0.53639 0.0
C215 C 0.6048 0.44861 0.5473 0.0
C216 C 0.59976 0.45173 0.57192 0.0
C217 C 0.60535 0.49275 0.57421 0.0
C218 C 0.61234 0.51055 0.55342 0.0
C219 C 0.64786 0.45845 0.58353 0.0
C220 C 0.54247 0.40982 0.57847 0.0
H221 H 0.6288 0.64242 0.5963 0.0
H222 H 0.6426 0.64871 0.51416 0.0
H223 H 0.54182 0.54401 0.52393 0.0
H224 H 0.56082 0.51385 0.5127 0.0
H225 H 0.58503 0.56411 0.5003 0.0
H226 H 0.71634 0.62274 0.53077 0.0
H227 H 0.68249 0.60793 0.50411 0.0
H228 H 0.68795 0.57115 0.51777 0.0
H229 H 0.60138 0.55877 0.66261 0.0
H230 H 0.57107 0.43532 0.65889 0.0
H231 H 0.58243 0.43981 0.61916 0.0
H232 H 0.69831 0.60945 0.62683 0.0
H233 H 0.66544 0.62998 0.63753 0.0
H234 H 0.68743 0.63759 0.60919 0.0
H235 H 0.52546 0.53502 0.62187 0.0
H236 H 0.55391 0.57766 0.60348 0.0
H237 H 0.57086 0.59103 0.6328 0.0
H238 H 0.64222 0.70172 0.57839 0.0
C239 C 0.63157 0.64254 0.57856 0.0
C240 C 0.26329 0.55074 0.84504 0.0
C241 C 0.30039 0.54906 0.85711 0.0
C242 C 0.29887 0.55038 0.88045 0.0
C243 C 0.22559 0.5537 0.87981 0.0
C244 C 0.22554 0.55257 0.85684 0.0
C245 C 0.18108 0.55322 0.84788 0.0
H246 H 0.96851 0.55289 0.87702 0.0
C247 C 0.18288 0.55536 0.88778 0.0
C248 C 0.15527 0.55473 0.86926 0.0
H249 H 1.01558 0.55393 0.80972 0.0
H250 H 1.08907 0.55507 0.82358 0.0
H251 H 0.97714 0.48496 0.89472 0.0
H252 H 1.08394 0.62587 0.89455 0.0
H253 H 1.09887 0.61537 0.91997 0.0
H254 H 1.0309 0.59546 0.91425 0.0
H255 H 0.96929 0.5178 0.91268 0.0
H256 H 1.00972 0.50309 0.92095 0.0
C257 C 0.13958 0.51079 0.83353 0.0
C258 C 0.20794 0.59494 0.83475 0.0
C259 C 0.1637 0.56463 0.9717 0.0
C260 C 0.12924 0.56779 0.9845 0.0
C261 C 1.08953 0.5666 0.9736 0.0
C262 C 1.08449 0.56295 0.95044 0.0
C263 C 0.11975 0.5607 0.93772 0.0
C264 C 0.15841 0.56146 0.94837 0.0
C265 C 0.19242 0.55911 0.93205 0.0
C266 C 0.16807 0.55727 0.90986 0.0
C267 C 0.12554 0.55803 0.9134 0.0
C268 C 0.18273 0.51588 0.93571 0.0
C269 C 0.25231 0.60218 0.93554 0.0
C270 C 0.99363 0.55262 0.86498 0.0
C271 C 0.98468 0.5523 0.84223 0.0
C272 C 1.02073 0.55379 0.82745 0.0
C273 C 1.06327 0.55431 0.83547 0.0
C274 C 1.07081 0.55413 0.85857 0.0
C275 C 1.03596 0.55383 0.87259 0.0
C276 C 1.04917 0.55614 0.89651 0.0
C277 C 1.09671 0.55666 0.89515 0.0
C278 C 0.11068 0.5553 0.87295 0.0
C279 C 0.99888 0.51362 0.90696 0.0
C280 C 1.06627 0.60018 0.90706 0.0
H281 H 0.26465 0.55362 0.9094 0.0
H282 H 0.26308 0.54986 0.82705 0.0
H283 H 0.24014 0.62486 0.84512 0.0
H284 H 0.1781 0.59875 0.82963 0.0
H285 H 0.227 0.59373 0.81958 0.0
H286 H 0.12318 0.48126 0.8431 0.0
H287 H 0.15897 0.50971 0.81845 0.0
H288 H 0.10475 0.50837 0.82817 0.0
H289 H 0.19468 0.56548 0.97962 0.0
H290 H 1.06182 0.56814 0.98307 0.0
H291 H 1.05309 0.56204 0.94344 0.0
H292 H 0.14182 0.49015 0.94255 0.0
H293 H 0.21338 0.52168 0.94759 0.0
H294 H 0.18287 0.5003 0.92004 0.0
H295 H 0.25425 0.63068 0.94032 0.0
H296 H 0.27625 0.61208 0.92028 0.0
H297 H 0.27329 0.59921 0.94896 0.0
H298 H 0.32678 0.55002 0.89031 0.0
C299 C 0.26241 0.55269 0.89166 0.0
C300 C 1.00637 0.43983 0.46238 0.0
C301 C 0.96495 0.39769 0.45222 0.0
C302 C 0.96032 0.39265 0.42895 0.0
C303 C 1.03538 0.47058 0.42585 0.0
C304 C 1.04155 0.47602 0.44875 0.0
C305 C 1.08884 0.52368 0.45591 0.0
H306 H 0.28165 0.7364 0.42304 0.0
C307 C 1.07546 0.51392 0.41619 0.0
C308 C 0.10736 0.54582 0.43359 0.0
H309 H 0.26147 0.6934 0.48975 0.0
H310 H 0.18582 0.61739 0.47684 0.0
H311 H 0.27343 0.65897 0.4007 0.0
H312 H 0.15904 0.6807 0.41 0.0
H313 H 0.14251 0.65347 0.38376 0.0
H314 H 0.20898 0.70669 0.3888 0.0
H315 H 0.27459 0.69726 0.38511 0.0
H316 H 0.23504 0.6402 0.37583 0.0
C317 C 0.13303 0.52503 0.46723 0.0
C318 C 1.06751 0.54178 0.4711 0.0
C319 C 1.07656 0.52324 0.33216 0.0
C320 C 0.10731 0.55884 0.3181 0.0
C321 C 0.14329 0.60214 0.32767 0.0
C322 C 0.15058 0.60975 0.35074 0.0
C323 C 0.12148 0.57375 0.36456 0.0
C324 C 1.08422 0.53151 0.35525 0.0
C325 C 1.05566 0.49753 0.37258 0.0
C326 C 1.08334 0.52632 0.39379 0.0
C327 C 0.12211 0.57071 0.38893 0.0
C328 C 1.06839 0.46593 0.36863 0.0
C329 C 0.99422 0.47489 0.37117 0.0
C330 C 0.26091 0.71065 0.43491 0.0
C331 C 0.2771 0.72073 0.45735 0.0
C332 C 0.24959 0.68624 0.4723 0.0
C333 C 0.20585 0.64228 0.46477 0.0
C334 C 0.19024 0.63278 0.44203 0.0
C335 C 0.21843 0.66708 0.42766 0.0
C336 C 0.19946 0.65213 0.404 0.0
C337 C 0.15497 0.60311 0.40619 0.0
C338 C 0.1486 0.59121 0.42849 0.0
C339 C 0.24789 0.66279 0.39052 0.0
C340 C 0.17659 0.67446 0.39602 0.0
H341 H 0.98865 0.42215 0.39817 0.0
H342 H 1.01086 0.4444 0.48031 0.0
H343 H 1.03109 0.53472 0.46328 0.0
H344 H 1.09785 0.57786 0.47414 0.0
H345 H 1.05565 0.52618 0.48741 0.0
H346 H 0.13906 0.50388 0.45759 0.0
H347 H 0.12114 0.51272 0.48429 0.0
H348 H 0.17312 0.55838 0.46818 0.0
H349 H 1.04857 0.48955 0.32541 0.0
H350 H 0.16653 0.63027 0.31727 0.0
H351 H 0.17939 0.64344 0.35686 0.0
H352 H 0.11085 0.48424 0.363 0.0
H353 H 1.04067 0.43979 0.35565 0.0
H354 H 1.06618 0.45028 0.38388 0.0
H355 H 0.98766 0.49686 0.3642 0.0
H356 H 0.97543 0.46718 0.38767 0.0
H357 H 0.97102 0.4442 0.36036 0.0
H358 H 0.92889 0.36059 0.42088 0.0
C359 C 0.99504 0.4286 0.41578 0.0
C360 C 0.64787 0.94794 0.77901 0.0
C361 C 0.65293 0.91997 0.76631 0.0
C362 C 0.65615 0.92286 0.74302 0.0
C363 C 0.64635 0.97871 0.74519 0.0
C364 C 0.64451 0.97694 0.76809 0.0
C365 C 0.63772 1.0084 0.77871 0.0
H366 H 0.60162 0.15824 0.7647 0.0
C367 C 0.63979 1.01075 0.73881 0.0
C368 C 0.63475 0.02848 0.75837 0.0
H369 H 0.61218 0.1132 0.82697 0.0
H370 H 0.62601 0.06654 0.80699 0.0
H371 H 0.6992 0.16808 0.74088 0.0
H372 H 0.52536 0.06709 0.74069 0.0
H373 H 0.54451 0.06372 0.7139 0.0
H374 H 0.55792 0.11376 0.72371 0.0
H375 H 0.65304 0.1729 0.72785 0.0
H376 H 0.67755 0.14821 0.71317 0.0
C377 C 0.68881 0.04312 0.79349 0.0
C378 C 0.58381 0.98124 0.79143 0.0
C379 C 0.62901 0.03188 0.65685 0.0
C380 C 0.6172 0.05569 0.64593 0.0
C381 C 0.61011 0.08243 0.65849 0.0
C382 C 0.61426 0.08521 0.68172 0.0
C383 C 0.6248 0.06044 0.69255 0.0
C384 C 0.63199 0.03435 0.68015 0.0
C385 C 0.63987 1.00856 0.69459 0.0
C386 C 0.63641 0.02364 0.71767 0.0
C387 C 0.62802 0.05419 0.71631 0.0
C388 C 0.69724 0.02347 0.69036 0.0
C389 C 0.59223 0.95871 0.68943 0.0
C390 C 0.60632 0.13805 0.77414 0.0
C391 C 0.60508 0.13907 0.79745 0.0
C392 C 0.61297 0.11308 0.80898 0.0
C393 C 0.62076 0.08589 0.79735 0.0
C394 C 0.62078 0.08475 0.77394 0.0
C395 C 0.61389 0.11086 0.76285 0.0
C396 C 0.61445 0.10572 0.73808 0.0
C397 C 0.62336 0.07248 0.73595 0.0
C398 C 0.62695 0.06001 0.75694 0.0
C399 C 0.66327 0.151 0.72934 0.0
C400 C 0.55797 0.08691 0.72842 0.0
H401 H 0.65539 0.95222 0.71469 0.0
H402 H 0.64543 0.94661 0.79693 0.0
H403 H 0.55117 0.95056 0.7816 0.0
H404 H 0.56803 0.99891 0.79446 0.0
H405 H 0.58876 0.97149 0.80761 0.0
H406 H 0.7262 0.05282 0.78536 0.0
H407 H 0.68624 0.02985 0.80981 0.0
H408 H 0.69566 0.07412 0.79631 0.0
H409 H 0.63384 1.01061 0.6475 0.0
H410 H 0.60108 0.10105 0.65027 0.0
H411 H 0.60834 0.10611 0.69031 0.0
H412 H 0.72701 0.05944 0.68757 0.0
H413 H 0.69676 1.00579 0.67541 0.0
H414 H 0.71432 0.01894 0.70469 0.0
H415 H 0.55435 0.9527 0.68463 0.0
H416 H 0.58081 0.93843 0.70395 0.0
H417 H 0.60194 0.94567 0.67548 0.0
H418 H 0.66144 0.9026 0.73289 0.0
C419 C 0.65295 0.95196 0.73245 0.0
C420 C 0.5804 0.34058 0.1245 0.0
C421 C 0.57301 0.30591 0.11214 0.0
C422 C 0.55525 0.29813 0.08967 0.0
C423 C 0.56654 0.36505 0.09126 0.0
C424 C 0.57737 0.36961 0.11381 0.0
C425 C 0.59087 0.41083 0.12431 0.0
H426 H 0.62124 0.59383 0.11229 0.0
C427 C 0.57579 0.40501 0.08469 0.0
C428 C 0.58975 0.43173 0.10411 0.0
H429 H 0.6192 0.53956 0.17365 0.0
H430 H 0.61651 0.48467 0.15271 0.0
H431 H 0.70413 0.58414 0.08698 0.0
H432 H 0.53189 0.51045 0.08877 0.0
H433 H 0.54628 0.50787 0.06087 0.0
H434 H 0.57731 0.56077 0.07454 0.0
H435 H 0.67058 0.59722 0.07021 0.0
H436 H 0.68022 0.5589 0.06028 0.0
C437 C 0.64861 0.43945 0.1353 0.0
C438 C 0.54504 0.39689 0.14056 0.0
C439 C 0.57824 0.43531 0.00283 0.0
C440 C 0.59236 0.47265 0.99257 0.0
C441 C 0.60388 0.50809 0.00572 0.0
C442 C 0.60291 0.50721 0.02881 0.0
C443 C 0.59059 0.47058 0.039 0.0
C444 C 0.5781 0.43518 0.02617 0.0
C445 C 0.56795 0.40002 0.04033 0.0
C446 C 0.57718 0.42067 0.06361 0.0
C447 C 0.59035 0.46192 0.06253 0.0
C448 C 0.61081 0.39476 0.03461 0.0
C449 C 0.50832 0.35737 0.03625 0.0
C450 C 0.62248 0.57149 0.12146 0.0
C451 C 0.61919 0.57069 0.14476 0.0
C452 C 0.62037 0.54035 0.15569 0.0
C453 C 0.61811 0.50814 0.14348 0.0
C454 C 0.61498 0.50644 0.12012 0.0
C455 C 0.61958 0.53898 0.10956 0.0
C456 C 0.61428 0.53174 0.08474 0.0
C457 C 0.60251 0.48804 0.08216 0.0
C458 C 0.60295 0.47335 0.10284 0.0
C459 C 0.66982 0.56994 0.07488 0.0
C460 C 0.56523 0.52776 0.07661 0.0
H461 H 0.54122 0.32126 0.06178 0.0
H462 H 0.59391 0.34831 0.14174 0.0
H463 H 0.50491 0.36621 0.1342 0.0
H464 H 0.53919 0.4215 0.1426 0.0
H465 H 0.55293 0.39038 0.15712 0.0
H466 H 0.67598 0.43712 0.12518 0.0
H467 H 0.64726 0.42848 0.15217 0.0
H468 H 0.66905 0.47497 0.13653 0.0
H469 H 0.56942 0.40776 0.99297 0.0
H470 H 0.61417 0.53684 0.99804 0.0
H471 H 0.61234 0.53542 0.03779 0.0
H472 H 0.65182 0.42764 0.03336 0.0
H473 H 0.60059 0.3762 0.01842 0.0
H474 H 0.61534 0.37805 0.04736 0.0
H475 H 0.48107 0.36526 0.03355 0.0
H476 H 0.49161 0.33621 0.05067 0.0
H477 H 0.50447 0.33799 0.02132 0.0
H478 H 0.54708 0.27087 0.07978 0.0
C479 C 0.5522 0.32762 0.07916 0.0
H480 H 0.49062 0.63548 0.14801 0.0
H481 H 0.38907 0.52176 0.18788 0.0
H482 H 0.46316 0.52011 0.19292 0.0
H483 H 0.54538 0.53838 0.1775 0.0
H484 H 0.64839 0.65193 0.13752 0.0
H485 H 0.58582 0.66716 0.14167 0.0
C486 C 0.48554 0.61131 0.15837 0.0
C487 C 0.43434 0.57818 0.16711 0.0
C488 C 0.52814 0.6101 0.16092 0.0
C489 C 0.42814 0.54744 0.18086 0.0
C490 C 0.47039 0.54628 0.18364 0.0
C491 C 0.55597 0.5678 0.17055 0.0
C492 C 0.59999 0.59252 0.15616 0.0
C493 C 0.51922 0.5757 0.17255 0.0
C494 C 0.61331 0.6311 0.14784 0.0
C495 C 0.57737 0.6397 0.15009 0.0
H496 H 0.74668 0.21732 0.47863 0.0
H497 H 0.84947 0.1821 0.47856 0.0
H498 H 0.92947 0.25885 0.47352 0.0
H499 H 0.96898 0.33467 0.46479 0.0
H500 H 0.86691 0.37023 0.46531 0.0
H501 H 0.7884 0.29533 0.47495 0.0
C502 C 0.78667 0.22653 0.47777 0.0
C503 C 0.79181 0.19373 0.47872 0.0
C504 C 0.83285 0.27103 0.47507 0.0
C505 C 0.84413 0.20648 0.47785 0.0
C506 C 0.89003 0.25046 0.47491 0.0
C507 C 0.92998 0.32634 0.4679 0.0
C508 C 0.92387 0.35807 0.46481 0.0
C509 C 0.8848 0.28289 0.47302 0.0
C510 C 0.87278 0.34661 0.46817 0.0
C511 C 0.82775 0.30359 0.47335 0.0
H512 H 0.70379 0.8106 0.81488 0.0
H513 H 0.59447 0.71454 0.76284 0.0
H514 H 0.57868 0.76349 0.75022 0.0
H515 H 0.59972 0.83492 0.75255 0.0
H516 H 0.71062 0.93242 0.80375 0.0
H517 H 0.72076 0.88112 0.81855 0.0
C518 C 0.67591 0.80017 0.801 0.0
C519 C 0.65079 0.75915 0.78966 0.0
C520 C 0.66729 0.82871 0.79369 0.0
C521 C 0.61503 0.74623 0.7716 0.0
C522 C 0.60581 0.77412 0.76443 0.0
C523 C 0.62616 0.84499 0.76696 0.0
C524 C 0.65492 0.88763 0.77686 0.0
C525 C 0.63249 0.81571 0.77508 0.0
C526 C 0.68793 0.89976 0.79585 0.0
C527 C 0.69402 0.87054 0.80421 0.0
H528 H 0.77169 0.32775 0.13123 0.0
H529 H 0.74265 0.35845 0.19603 0.0
H530 H 0.64629 0.31469 0.18621 0.0
H531 H 0.58099 0.29057 0.15566 0.0
H532 H 0.62085 0.27733 0.08892 0.0
H533 H 0.69838 0.28696 0.10314 0.0
C534 C 0.74378 0.32337 0.1435 0.0
C535 C 0.76449 0.34763 0.16397 0.0
C536 C 0.6896 0.30127 0.13711 0.0
C537 C 0.7279 0.34075 0.17999 0.0
C538 C 0.67278 0.31609 0.17426 0.0
C539 C 0.60616 0.28912 0.14421 0.0
C540 C 0.59726 0.2869 0.12108 0.0
C541 C 0.6546 0.2998 0.15223 0.0
C542 C 0.62729 0.28088 0.10676 0.0
C543 C 0.67267 0.28716 0.11486 0.0
H544 H 0.45262 0.92825 0.46607 0.0
H545 H 0.5574 0.89793 0.4796 0.0
H546 H 0.47887 0.81926 0.47845 0.0
H547 H 0.38011 0.75806 0.47138 0.0
H548 H 0.27615 0.78865 0.45711 0.0
H549 H 0.35388 0.86767 0.4611 0.0
C550 C 0.45833 0.90447 0.46879 0.0
C551 C 0.51117 0.91927 0.47285 0.0
C552 C 0.41275 0.85904 0.46815 0.0
C553 C 0.51743 0.88777 0.47655 0.0
C554 C 0.47239 0.84259 0.47586 0.0
C555 C 0.37447 0.78214 0.46974 0.0
C556 C 0.32238 0.76762 0.46431 0.0
C557 C 0.4198 0.82772 0.47153 0.0
C558 C 0.31575 0.79912 0.46162 0.0
C559 C 0.36029 0.84429 0.46369 0.0
H560 H 0.60931 0.28316 0.85033 0.0
H561 H 0.48922 0.24238 0.79934 0.0
H562 H 0.49241 0.18533 0.78522 0.0
H563 H 0.53258 0.1498 0.78598 0.0
H564 H 0.65636 0.19217 0.83541 0.0
H565 H 0.64723 0.24478 0.85199 0.0
C566 C 0.58344 0.26137 0.83631 0.0
C567 C 0.54943 0.2672 0.82575 0.0
C568 C 0.58604 0.22889 0.82805 0.0
C569 C 0.51629 0.23894 0.80752 0.0
C570 C 0.51794 0.20622 0.7995 0.0
C571 C 0.55774 0.17061 0.80036 0.0
C572 C 0.59563 0.16744 0.80924 0.0
C573 C 0.55333 0.20145 0.80937 0.0
C574 C 0.62674 0.19379 0.82827 0.0
C575 C 0.62185 0.22414 0.83764 0.0
H576 H 0.6454 0.82019 0.49637 0.0
H577 H 0.77007 0.90626 0.54677 0.0
H578 H 0.76142 0.84468 0.56012 0.0
H579 H 0.71708 0.76631 0.5583 0.0
H580 H 0.59209 0.67893 0.50835 0.0
H581 H 0.60278 0.74107 0.49374 0.0
C582 C 0.6705 0.8253 0.51029 0.0
C583 C 0.70835 0.86775 0.52056 0.0
C584 C 0.66548 0.78961 0.51788 0.0
C585 C 0.74106 0.87405 0.53843 0.0
C586 C 0.73602 0.83883 0.54614 0.0
C587 C 0.69213 0.76085 0.54421 0.0
C588 C 0.6535 0.71806 0.53455 0.0
C589 C 0.69823 0.7965 0.53608 0.0
C590 C 0.62227 0.71162 0.51602 0.0
C591 C 0.6281 0.74708 0.50778 0.0
H592 H 0.81881 0.58388 0.81322 0.0
H593 H 0.71752 0.47851 0.85809 0.0
H594 H 0.78843 0.47365 0.86352 0.0
H595 H 0.88015 0.49951 0.85693 0.0
H596 H 0.9839 0.60324 0.81193 0.0
H597 H 0.91178 0.60766 0.80495 0.0
C598 C 0.81222 0.55986 0.82417 0.0
C599 C 0.76187 0.53171 0.83523 0.0
C600 C 0.85391 0.55656 0.82717 0.0
C601 C 0.7549 0.50067 0.84919 0.0
C602 C 0.7958 0.49776 0.8524 0.0
C603 C 0.88717 0.52302 0.84544 0.0
C604 C 0.93816 0.5511 0.83508 0.0
C605 C 0.84553 0.52552 0.84161 0.0
C606 C 0.94539 0.58084 0.82007 0.0
C607 C 0.90405 0.58365 0.81623 0.0
H608 H 0.28954 0.6694 0.13652 0.0
H609 H 0.18316 0.66967 0.18094 0.0
H610 H 0.25214 0.74916 0.18733 0.0
H611 H 0.34413 0.81828 0.18204 0.0
H612 H 0.45241 0.81953 0.1384 0.0
H613 H 0.38098 0.74034 0.12956 0.0
C614 C 0.28131 0.68686 0.1475 0.0
C615 C 0.23103 0.66316 0.15832 0.0
C616 C 0.32151 0.73305 0.15119 0.0
C617 C 0.22126 0.68665 0.17239 0.0
C618 C 0.2608 0.7323 0.17609 0.0
C619 C 0.35213 0.80131 0.17051 0.0
C620 C 0.40387 0.82489 0.16107 0.0
C621 C 0.31126 0.75574 0.16583 0.0
C622 C 0.41298 0.8024 0.14582 0.0
C623 C 0.37224 0.75697 0.14093 0.0
H624 H 0.63129 0.28794 0.45958 0.0
H625 H 0.51281 0.1981 0.50705 0.0
H626 H 0.50749 0.2539 0.52139 0.0
H627 H 0.53918 0.32871 0.52168 0.0
H628 H 0.66306 0.42166 0.47654 0.0
H629 H 0.6623 0.36388 0.45954 0.0
C630 C 0.60405 0.28066 0.47292 0.0
C631 C 0.5727 0.23915 0.48237 0.0
C632 C 0.60202 0.31335 0.48143 0.0
C633 C 0.53771 0.23001 0.49971 0.0
C634 C 0.53454 0.26183 0.50786 0.0
C635 C 0.56643 0.33661 0.50823 0.0
C636 C 0.60168 0.37977 0.50066 0.0
C637 C 0.5671 0.30376 0.49909 0.0
C638 C 0.63529 0.38876 0.48269 0.0
C639 C 0.63522 0.35579 0.47308 0.0
H640 H 0.51228 0.57996 0.82208 0.0
H641 H 0.44353 0.46776 0.86228 0.0
H642 H 0.36493 0.46248 0.86921 0.0
H643 H 0.31591 0.49061 0.86592 0.0
H644 H 0.38071 0.60242 0.82652 0.0
H645 H 0.45848 0.60602 0.81692 0.0
C646 C 0.48008 0.55426 0.8323 0.0
C647 C 0.48515 0.52447 0.84168 0.0
C648 C 0.43333 0.55094 0.8363 0.0
C649 C 0.44205 0.4914 0.85476 0.0
C650 C 0.39645 0.48818 0.85879 0.0
C651 C 0.34651 0.51544 0.85489 0.0
C652 C 0.34164 0.54605 0.84693 0.0
C653 C 0.39167 0.51781 0.84985 0.0
C654 C 0.38229 0.5779 0.83269 0.0
C655 C 0.42739 0.58029 0.82744 0.0
H656 H 0.92489 0.37926 0.14262 0.0
H657 H 1.05126 0.37319 0.15853 0.0
H658 H 0.98251 0.29547 0.16661 0.0
H659 H 0.8865 0.23144 0.1733 0.0
H660 H 0.76013 0.23665 0.15662 0.0
H661 H 0.82869 0.31211 0.14444 0.0
C662 C 0.93748 0.36079 0.14749 0.0
C663 C 0.99343 0.3824 0.15013 0.0
C664 C 0.89758 0.31583 0.15204 0.0
C665 C 1.00871 0.35765 0.15632 0.0
C666 C 0.96932 0.31313 0.16106 0.0
C667 C 0.87402 0.24872 0.16634 0.0
C668 C 0.81839 0.22846 0.16564 0.0
C669 C 0.91367 0.29216 0.15951 0.0
C670 C 0.80261 0.25131 0.15694 0.0
C671 C 0.84183 0.29461 0.15022 0.0
H672 H 0.11754 0.59692 0.08714 0.0
H673 H 0.11801 0.4883 0.08966 0.0
H674 H 0.13088 0.48993 0.04943 0.0
H675 H 0.13485 0.51884 0.01307 0.0
H676 H 0.13287 0.6268 0.01111 0.0
H677 H 0.12812 0.62907 0.05153 0.0
C678 C 0.12086 0.57383 0.07889 0.0
C679 C 0.11626 0.54225 0.09122 0.0
C680 C 0.1278 0.57477 0.05583 0.0
C681 C 0.1211 0.51275 0.08042 0.0
C682 C 0.12841 0.51365 0.05744 0.0
C683 C 0.13435 0.5433 0.02158 0.0
C684 C 0.13367 0.57232 0.00914 0.0
C685 C 0.13086 0.54404 0.04489 0.0
C686 C 0.13267 0.60372 0.02033 0.0
C687 C 0.12998 0.60507 0.04343 0.0
H688 H 0.58807 0.02608 0.41596 0.0
H689 H 0.75943 0.0948 0.40889 0.0
H690 H 0.74995 0.09463 0.36867 0.0
H691 H 0.69208 0.0709 0.33537 0.0
H692 H 0.5206 1.00216 0.34215 0.0
H693 H 0.53093 1.00614 0.38258 0.0
C694 C 0.62331 0.04123 0.40558 0.0
C695 C 0.67425 0.06008 0.41528 0.0
C696 C 0.6175 0.04074 0.38243 0.0
C697 C 0.71971 0.07984 0.40174 0.0
C698 C 0.71433 0.07973 0.37876 0.0
C699 C 0.65712 0.05748 0.34569 0.0
C700 C 0.60561 0.03606 0.33572 0.0
C701 C 0.66331 0.05975 0.36889 0.0
C702 C 0.56059 0.01826 0.34938 0.0
C703 C 0.56648 0.02066 0.3725 0.0
H704 H 0.5173 0.45003 0.76308 0.0
H705 H 0.68714 0.56214 0.77459 0.0
H706 H 0.69867 0.57386 0.7347 0.0
H707 H 0.66089 0.5503 0.69626 0.0
H708 H 0.49327 0.43426 0.68475 0.0
H709 H 0.48017 0.42567 0.72488 0.0
C710 C 0.55676 0.47712 0.75684 0.0
C711 C 0.60107 0.50566 0.77173 0.0
C712 C 0.56342 0.48272 0.73388 0.0
C713 C 0.65215 0.54032 0.76346 0.0
C714 C 0.65885 0.54683 0.74065 0.0
C715 C 0.62154 0.52342 0.70268 0.0
C716 C 0.57794 0.49303 0.68783 0.0
C717 C 0.61483 0.51809 0.72569 0.0
C718 C 0.52721 0.45792 0.69607 0.0
C719 C 0.51979 0.45305 0.71893 0.0
H720 H 0.54879 0.03159 0.54517 0.0
H721 H 0.71545 0.08701 0.53666 0.0
H722 H 0.72732 0.08817 0.57689 0.0
H723 H 0.69073 0.07576 0.61475 0.0
H724 H 0.52638 0.02608 0.62292 0.0
H725 H 0.51298 0.02043 0.58257 0.0
C726 C 0.58766 0.04379 0.55212 0.0
C727 C 0.63097 0.05864 0.53802 0.0
C728 C 0.59455 0.04555 0.57521 0.0
C729 C 0.68125 0.0747 0.5472 0.0
C730 C 0.68813 0.07562 0.57019 0.0
C731 C 0.65202 0.06347 0.60756 0.0
C732 C 0.60949 0.05124 0.62157 0.0
C733 C 0.64513 0.06136 0.58438 0.0
C734 C 0.55958 0.03577 0.6123 0.0
C735 C 0.55195 0.03252 0.58931 0.0
H736 H 0.57013 0.48627 0.89052 0.0
H737 H 0.73858 0.60183 0.90171 0.0
H738 H 0.73472 0.58255 0.94009 0.0
H739 H 0.68187 0.53572 0.97103 0.0
H740 H 0.51412 0.41945 0.96027 0.0
H741 H 0.51951 0.43514 0.92081 0.0
C742 C 0.60607 0.50689 0.90133 0.0
C743 C 0.65446 0.54557 0.89345 0.0
C744 C 0.60372 0.49527 0.9233 0.0
C745 C 0.70081 0.57207 0.90752 0.0
C746 C 0.69868 0.56102 0.92941 0.0
C747 C 0.64684 0.51352 0.95989 0.0
C748 C 0.59763 0.47673 0.96832 0.0
C749 C 0.65019 0.5231 0.93753 0.0
C750 C 0.55242 0.44785 0.95393 0.0
C751 C 0.55541 0.45707 0.93152 0.0
H752 H 1.06503 0.49927 0.21585 0.0
H753 H 0.23932 0.60312 0.21606 0.0
H754 H 0.23992 0.61869 0.25566 0.0
H755 H 0.19207 0.60103 0.29036 0.0
H756 H 1.0176 0.49843 0.29096 0.0
H757 H 1.01589 0.48387 0.25091 0.0
C758 C 0.10289 0.52562 0.22457 0.0
C759 C 0.15204 0.55006 0.21314 0.0
C760 C 0.10299 0.53438 0.24745 0.0
C761 C 0.20101 0.58376 0.22459 0.0
C762 C 0.20142 0.59272 0.24721 0.0
C763 C 0.15345 0.57603 0.28172 0.0
C764 C 0.10504 0.55104 0.29364 0.0
C765 C 0.15278 0.56802 0.25882 0.0
C766 C 1.05556 0.51793 0.28221 0.0
C767 C 1.05452 0.50971 0.2593 0.0
loop_
_geom_bond_atom_site_label_1
_geom_bond_atom_site_label_2
_geom_bond_distance
_geom_bond_site_symmetry_2
_ccdc_geom_bond_type
La0 C2 2.928 . S
La0 O20 2.521 . S
La0 O21 2.628 . S
La0 O22 2.554 . S
La0 O23 2.757 . S
La0 O24 2.470 . S
La0 O29 2.482 . S
La0 O31 2.503 1_455 S
La1 C11 2.928 . S
La1 O23 2.482 1_655 S
La1 O25 2.503 1_655 S
La1 O26 2.521 . S
La1 O27 2.628 . S
La1 O28 2.554 . S
La1 O29 2.757 1_655 S
La1 O30 2.470 . S
C2 La0 2.928 . S
C2 C3 1.503 . S
C2 O20 1.261 . S
C2 O21 1.243 . S
C3 C2 1.503 . S
C3 C4 1.394 . S
C3 C8 1.373 . S
C4 C3 1.394 . S
C4 C5 1.380 . S
C4 H32 0.930 . S
C5 C4 1.380 . S
C5 C6 1.376 . S
C5 H33 0.930 . S
C6 C5 1.376 . S
C6 C7 1.370 . S
C7 C6 1.370 . S
C7 C8 1.396 . S
C7 H34 0.929 . S
C8 C3 1.373 . S
C8 C7 1.396 . S
C8 H35 0.929 . S
C9 O22 1.240 . S
C9 O23 1.289 . S
C10 O24 1.258 . S
C10 O25 1.256 . S
C11 La1 2.928 . S
C11 C12 1.503 . S
C11 O26 1.261 . S
C11 O27 1.243 . S
C12 C11 1.503 . S
C12 C13 1.394 . S
C12 C17 1.373 . S
C13 C12 1.394 . S
C13 C14 1.380 . S
C13 H36 0.930 . S
C14 C13 1.380 . S
C14 C15 1.376 . S
C14 H37 0.930 . S
C15 C14 1.376 . S
C15 C16 1.370 . S
C16 C15 1.370 . S
C16 C17 1.396 . S
C16 H38 0.929 . S
C17 C12 1.373 . S
C17 C16 1.396 . S
C17 H39 0.929 . S
C18 O28 1.240 1_455 S
C18 O29 1.289 . S
C19 O30 1.258 . S
C19 O31 1.256 . S
O20 La0 2.521 . S
O20 C2 1.261 . S
O21 La0 2.628 . S
O21 C2 1.243 . S
O22 La0 2.554 . S
O22 C9 1.240 . S
O23 La0 2.757 . S
O23 La1 2.482 1_455 S
O23 C9 1.289 . S
O24 La0 2.470 . S
O24 C10 1.258 . S
O25 La1 2.503 1_455 S
O25 C10 1.256 . S
O26 La1 2.521 . S
O26 C11 1.261 . S
O27 La1 2.628 . S
O27 C11 1.243 . S
O28 La1 2.554 . S
O28 C18 1.240 1_655 S
O29 La0 2.482 . S
O29 La1 2.757 1_455 S
O29 C18 1.289 . S
O30 La1 2.470 . S
O30 C19 1.258 . S
O31 La0 2.503 1_655 S
O31 C19 1.256 . S
H32 C4 0.930 . S
H33 C5 0.930 . S
H34 C7 0.929 . S
H35 C8 0.929 . S
H36 C13 0.930 . S
H37 C14 0.930 . S
H38 C16 0.929 . S
H39 C17 0.929 . S
La40 C42 2.928 . S
La40 O60 2.521 . S
La40 O61 2.628 . S
La40 O62 2.554 . S
La40 O63 2.757 1_565 S
La40 O64 2.470 . S
La40 O69 2.482 . S
La40 O71 2.503 1_565 S
La41 C51 2.928 . S
La41 O63 2.482 . S
La41 O65 2.503 1_545 S
La41 O66 2.521 . S
La41 O67 2.628 . S
La41 O68 2.554 . S
La41 O69 2.757 1_545 S
La41 O70 2.470 . S
C42 La40 2.928 . S
C42 C43 1.503 . S
C42 O60 1.261 . S
C42 O61 1.243 . S
C43 C42 1.503 . S
C43 C44 1.394 . S
C43 C48 1.373 . S
C44 C43 1.394 . S
C44 C45 1.380 . S
C44 H72 0.930 . S
C45 C44 1.380 . S
C45 C46 1.376 . S
C45 H73 0.930 . S
C46 C45 1.376 . S
C46 C47 1.370 . S
C47 C46 1.370 . S
C47 C48 1.396 . S
C47 H74 0.929 . S
C48 C43 1.373 . S
C48 C47 1.396 . S
C48 H75 0.929 . S
C49 O62 1.240 1_545 S
C49 O63 1.289 . S
C50 O64 1.258 . S
C50 O65 1.256 . S
C51 La41 2.928 . S
C51 C52 1.503 . S
C51 O66 1.261 . S
C51 O67 1.243 . S
C52 C51 1.503 . S
C52 C53 1.394 . S
C52 C57 1.373 . S
C53 C52 1.394 . S
C53 C54 1.380 . S
C53 H76 0.930 . S
C54 C53 1.380 . S
C54 C55 1.376 . S
C54 H77 0.930 . S
C55 C54 1.376 . S
C55 C56 1.370 . S
C56 C55 1.370 . S
C56 C57 1.396 . S
C56 H78 0.929 . S
C57 C52 1.373 . S
C57 C56 1.396 . S
C57 H79 0.929 . S
C58 O68 1.240 . S
C58 O69 1.289 1_545 S
C59 O70 1.258 . S
C59 O71 1.256 . S
O60 La40 2.521 . S
O60 C42 1.261 . S
O61 La40 2.628 . S
O61 C42 1.243 . S
O62 La40 2.554 . S
O62 C49 1.240 1_565 S
O63 La40 2.757 1_545 S
O63 La41 2.482 . S
O63 C49 1.289 . S
O64 La40 2.470 . S
O64 C50 1.258 . S
O65 La41 2.503 1_565 S
O65 C50 1.256 . S
O66 La41 2.521 . S
O66 C51 1.261 . S
O67 La41 2.628 . S
O67 C51 1.243 . S
O68 La41 2.554 . S
O68 C58 1.240 . S
O69 La40 2.482 . S
O69 La41 2.757 1_565 S
O69 C58 1.289 1_565 S
O70 La41 2.470 . S
O70 C59 1.258 . S
O71 La40 2.503 1_545 S
O71 C59 1.256 . S
H72 C44 0.930 . S
H73 C45 0.930 . S
H74 C47 0.929 . S
H75 C48 0.929 . S
H76 C53 0.930 . S
H77 C54 0.930 . S
H78 C56 0.929 . S
H79 C57 0.929 . S
La80 C82 2.928 . S
La80 O100 2.521 . S
La80 O101 2.628 . S
La80 O102 2.554 . S
La80 O103 2.757 . S
La80 O104 2.470 . S
La80 O109 2.482 . S
La80 O111 2.503 . S
La81 C91 2.928 . S
La81 O103 2.482 . S
La81 O105 2.503 . S
La81 O106 2.521 . S
La81 O107 2.628 . S
La81 O108 2.554 . S
La81 O109 2.757 . S
La81 O110 2.470 . S
C82 La80 2.928 . S
C82 C83 1.503 . S
C82 O100 1.261 . S
C82 O101 1.243 . S
C83 C82 1.503 . S
C83 C84 1.394 . S
C83 C88 1.373 . S
C84 C83 1.394 . S
C84 C85 1.380 . S
C84 H112 0.930 . S
C85 C84 1.380 . S
C85 C86 1.376 . S
C85 H113 0.930 . S
C86 C85 1.376 . S
C86 C87 1.370 . S
C87 C86 1.370 . S
C87 C88 1.396 . S
C87 H114 0.929 . S
C88 C83 1.373 . S
C88 C87 1.396 . S
C88 H115 0.929 . S
C89 O102 1.240 . S
C89 O103 1.289 . S
C90 O104 1.258 . S
C90 O105 1.256 . S
C91 La81 2.928 . S
C91 C92 1.503 . S
C91 O106 1.261 . S
C91 O107 1.243 . S
C92 C91 1.503 . S
C92 C93 1.394 . S
C92 C97 1.373 . S
C93 C92 1.394 . S
C93 C94 1.380 . S
C93 H116 0.930 . S
C94 C93 1.380 . S
C94 C95 1.376 . S
C94 H117 0.930 . S
C95 C94 1.376 . S
C95 C96 1.370 . S
C96 C95 1.370 . S
C96 C97 1.396 . S
C96 H118 0.929 . S
C97 C92 1.373 . S
C97 C96 1.396 . S
C97 H119 0.929 . S
C98 O108 1.240 . S
C98 O109 1.289 . S
C99 O110 1.258 . S
C99 O111 1.256 . S
O100 La80 2.521 . S
O100 C82 1.261 . S
O101 La80 2.628 . S
O101 C82 1.243 . S
O102 La80 2.554 . S
O102 C89 1.240 . S
O103 La80 2.757 . S
O103 La81 2.482 . S
O103 C89 1.289 . S
O104 La80 2.470 . S
O104 C90 1.258 . S
O105 La81 2.503 . S
O105 C90 1.256 . S
O106 La81 2.521 . S
O106 C91 1.261 . S
O107 La81 2.628 . S
O107 C91 1.243 . S
O108 La81 2.554 . S
O108 C98 1.240 . S
O109 La80 2.482 . S
O109 La81 2.757 . S
O109 C98 1.289 . S
O110 La81 2.470 . S
O110 C99 1.258 . S
O111 La80 2.503 . S
O111 C99 1.256 . S
H112 C84 0.930 . S
H113 C85 0.930 . S
H114 C87 0.929 . S
H115 C88 0.929 . S
H116 C93 0.930 . S
H117 C94 0.930 . S
H118 C96 0.929 . S
H119 C97 0.929 . S
C120 C121 1.391 . S
C120 C124 1.391 . S
C120 H162 0.948 . S
C121 C120 1.391 . S
C121 C122 1.391 . S
C122 C121 1.391 . S
C122 H178 0.947 . S
C122 C179 1.392 . S
C123 C124 1.391 . S
C123 C127 1.397 . S
C123 C179 1.419 . S
C124 C120 1.391 . S
C124 C123 1.391 . S
C124 C125 1.399 . S
C125 C124 1.399 . S
C125 C128 1.396 . S
C125 C137 1.453 . S
C125 C138 1.684 . S
H126 C150 0.948 . S
C127 C123 1.397 . S
C127 C128 1.394 . S
C127 C146 1.723 . S
C128 C125 1.396 . S
C128 C127 1.394 . S
C128 C158 1.723 1_545 S
H129 C152 0.947 . S
H130 C153 0.948 . S
H131 C159 0.982 . S
H132 C160 0.979 . S
H133 C160 0.980 . S
H134 C160 0.983 . S
H135 C159 0.979 . S
H136 C159 0.977 . S
C137 C125 1.453 . S
C137 H166 0.982 . S
C137 H167 0.979 . S
C137 H168 0.977 1_545 S
C138 C125 1.684 . S
C138 H163 0.979 . S
C138 H164 0.980 . S
C138 H165 0.983 . S
C139 C140 1.391 . S
C139 C144 1.391 . S
C139 H169 0.948 . S
C140 C139 1.391 . S
C140 C141 1.391 1_545 S
C141 C140 1.391 1_565 S
C141 C142 1.392 . S
C141 H170 0.947 . S
C142 C141 1.392 . S
C142 C143 1.419 1_565 S
C142 H171 0.948 . S
C143 C142 1.419 1_545 S
C143 C144 1.391 . S
C143 C147 1.397 . S
C144 C139 1.391 . S
C144 C143 1.391 . S
C144 C145 1.399 . S
C145 C144 1.399 . S
C145 C146 1.396 . S
C145 C148 1.453 . S
C145 C149 1.684 . S
C146 C127 1.723 . S
C146 C145 1.396 . S
C146 C147 1.394 . S
C147 C143 1.397 . S
C147 C146 1.394 . S
C147 C157 1.723 1_545 S
C148 C145 1.453 . S
C148 H172 0.982 . S
C148 H173 0.979 . S
C148 H174 0.977 . S
C149 C145 1.684 . S
C149 H175 0.979 . S
C149 H176 0.980 . S
C149 H177 0.983 . S
C150 H126 0.948 . S
C150 C151 1.391 . S
C150 C155 1.391 . S
C151 C150 1.391 . S
C151 C152 1.391 . S
C152 H129 0.947 . S
C152 C151 1.391 . S
C152 C153 1.392 . S
C153 H130 0.948 . S
C153 C152 1.392 . S
C153 C154 1.419 . S
C154 C153 1.419 . S
C154 C155 1.391 . S
C154 C158 1.397 . S
C155 C150 1.391 . S
C155 C154 1.391 . S
C155 C156 1.399 . S
C156 C155 1.399 . S
C156 C157 1.396 . S
C156 C159 1.453 . S
C156 C160 1.684 . S
C157 C147 1.723 1_565 S
C157 C156 1.396 . S
C157 C158 1.394 . S
C158 C128 1.723 1_565 S
C158 C154 1.397 . S
C158 C157 1.394 . S
C159 H131 0.982 . S
C159 H135 0.979 . S
C159 H136 0.977 . S
C159 C156 1.453 . S
C160 H132 0.979 . S
C160 H133 0.980 . S
C160 H134 0.983 . S
C160 C156 1.684 . S
H161 C179 0.948 . S
H162 C120 0.948 . S
H163 C138 0.979 . S
H164 C138 0.980 . S
H165 C138 0.983 . S
H166 C137 0.982 . S
H167 C137 0.979 . S
H168 C137 0.977 1_565 S
H169 C139 0.948 . S
H170 C141 0.947 . S
H171 C142 0.948 . S
H172 C148 0.982 . S
H173 C148 0.979 . S
H174 C148 0.977 . S
H175 C149 0.979 . S
H176 C149 0.980 . S
H177 C149 0.983 . S
H178 C122 0.947 . S
C179 C122 1.392 . S
C179 C123 1.419 . S
C179 H161 0.948 . S
C180 C181 1.391 . S
C180 C184 1.391 . S
C180 H222 0.948 . S
C181 C180 1.391 . S
C181 C182 1.391 . S
C182 C181 1.391 . S
C182 H238 0.947 . S
C182 C239 1.392 . S
C183 C184 1.391 . S
C183 C187 1.397 . S
C183 C239 1.419 . S
C184 C180 1.391 . S
C184 C183 1.391 . S
C184 C185 1.399 . S
C185 C184 1.399 . S
C185 C188 1.396 . S
C185 C197 1.453 . S
C185 C198 1.684 . S
H186 C210 0.948 . S
C187 C183 1.397 . S
C187 C188 1.394 . S
C187 C206 1.723 . S
C188 C185 1.396 . S
C188 C187 1.394 . S
C188 C218 1.723 . S
H189 C212 0.947 . S
H190 C213 0.948 . S
H191 C219 0.982 . S
H192 C220 0.979 . S
H193 C220 0.980 . S
H194 C220 0.983 . S
H195 C219 0.979 . S
H196 C219 0.977 . S
C197 C185 1.453 . S
C197 H226 0.982 . S
C197 H227 0.979 . S
C197 H228 0.977 . S
C198 C185 1.684 . S
C198 H223 0.979 . S
C198 H224 0.980 . S
C198 H225 0.983 . S
C199 C200 1.391 . S
C199 C204 1.391 . S
C199 H229 0.948 . S
C200 C199 1.391 . S
C200 C201 1.391 . S
C201 C200 1.391 . S
C201 C202 1.392 . S
C201 H230 0.947 . S
C202 C201 1.392 . S
C202 C203 1.419 . S
C202 H231 0.948 . S
C203 C202 1.419 . S
C203 C204 1.391 . S
C203 C207 1.397 . S
C204 C199 1.391 . S
C204 C203 1.391 . S
C204 C205 1.399 . S
C205 C204 1.399 . S
C205 C206 1.396 . S
C205 C208 1.453 . S
C205 C209 1.684 . S
C206 C187 1.723 . S
C206 C205 1.396 . S
C206 C207 1.394 . S
C207 C203 1.397 . S
C207 C206 1.394 . S
C207 C217 1.723 . S
C208 C205 1.453 . S
C208 H232 0.982 . S
C208 H233 0.979 . S
C208 H234 0.977 . S
C209 C205 1.684 . S
C209 H235 0.979 . S
C209 H236 0.980 . S
C209 H237 0.983 . S
C210 H186 0.948 . S
C210 C211 1.391 . S
C210 C215 1.391 . S
C211 C210 1.391 . S
C211 C212 1.391 . S
C212 H189 0.947 . S
C212 C211 1.391 . S
C212 C213 1.392 . S
C213 H190 0.948 . S
C213 C212 1.392 . S
C213 C214 1.419 . S
C214 C213 1.419 . S
C214 C215 1.391 . S
C214 C218 1.397 . S
C215 C210 1.391 . S
C215 C214 1.391 . S
C215 C216 1.399 . S
C216 C215 1.399 . S
C216 C217 1.396 . S
C216 C219 1.453 . S
C216 C220 1.684 . S
C217 C207 1.723 . S
C217 C216 1.396 . S
C217 C218 1.394 . S
C218 C188 1.723 . S
C218 C214 1.397 . S
C218 C217 1.394 . S
C219 H191 0.982 . S
C219 H195 0.979 . S
C219 H196 0.977 . S
C219 C216 1.453 . S
C220 H192 0.979 . S
C220 H193 0.980 . S
C220 H194 0.983 . S
C220 C216 1.684 . S
H221 C239 0.948 . S
H222 C180 0.948 . S
H223 C198 0.979 . S
H224 C198 0.980 . S
H225 C198 0.983 . S
H226 C197 0.982 . S
H227 C197 0.979 . S
H228 C197 0.977 . S
H229 C199 0.948 . S
H230 C201 0.947 . S
H231 C202 0.948 . S
H232 C208 0.982 . S
H233 C208 0.979 . S
H234 C208 0.977 . S
H235 C209 0.979 . S
H236 C209 0.980 . S
H237 C209 0.983 . S
H238 C182 0.947 . S
C239 C182 1.392 . S
C239 C183 1.419 . S
C239 H221 0.948 . S
C240 C241 1.391 . S
C240 C244 1.391 . S
C240 H282 0.948 . S
C241 C240 1.391 . S
C241 C242 1.391 . S
C242 C241 1.391 . S
C242 H298 0.947 . S
C242 C299 1.392 . S
C243 C244 1.391 . S
C243 C247 1.397 . S
C243 C299 1.419 . S
C244 C240 1.391 . S
C244 C243 1.391 . S
C244 C245 1.399 . S
C245 C244 1.399 . S
C245 C248 1.396 . S
C245 C257 1.453 . S
C245 C258 1.684 . S
H246 C270 0.948 . S
C247 C243 1.397 . S
C247 C248 1.394 . S
C247 C266 1.723 . S
C248 C245 1.396 . S
C248 C247 1.394 . S
C248 C278 1.723 . S
H249 C272 0.947 . S
H250 C273 0.948 1_455 S
H251 C279 0.982 . S
H252 C280 0.979 . S
H253 C280 0.980 . S
H254 C280 0.983 . S
H255 C279 0.979 . S
H256 C279 0.977 . S
C257 C245 1.453 . S
C257 H286 0.982 . S
C257 H287 0.979 . S
C257 H288 0.977 . S
C258 C245 1.684 . S
C258 H283 0.979 . S
C258 H284 0.980 . S
C258 H285 0.983 . S
C259 C260 1.391 . S
C259 C264 1.391 . S
C259 H289 0.948 . S
C260 C259 1.391 . S
C260 C261 1.391 . S
C261 C260 1.391 . S
C261 C262 1.392 . S
C261 H290 0.947 1_455 S
C262 C261 1.392 . S
C262 C263 1.419 . S
C262 H291 0.948 1_455 S
C263 C262 1.419 . S
C263 C264 1.391 . S
C263 C267 1.397 . S
C264 C259 1.391 . S
C264 C263 1.391 . S
C264 C265 1.399 . S
C265 C264 1.399 . S
C265 C266 1.396 . S
C265 C268 1.453 . S
C265 C269 1.684 . S
C266 C247 1.723 . S
C266 C265 1.396 . S
C266 C267 1.394 . S
C267 C263 1.397 . S
C267 C266 1.394 . S
C267 C277 1.723 . S
C268 C265 1.453 . S
C268 H292 0.982 . S
C268 H293 0.979 . S
C268 H294 0.977 . S
C269 C265 1.684 . S
C269 H295 0.979 . S
C269 H296 0.980 . S
C269 H297 0.983 . S
C270 H246 0.948 . S
C270 C271 1.391 . S
C270 C275 1.391 . S
C271 C270 1.391 . S
C271 C272 1.391 . S
C272 H249 0.947 . S
C272 C271 1.391 . S
C272 C273 1.392 . S
C273 H250 0.948 1_655 S
C273 C272 1.392 . S
C273 C274 1.419 . S
C274 C273 1.419 . S
C274 C275 1.391 . S
C274 C278 1.397 1_655 S
C275 C270 1.391 . S
C275 C274 1.391 . S
C275 C276 1.399 . S
C276 C275 1.399 . S
C276 C277 1.396 1_655 S
C276 C279 1.453 . S
C276 C280 1.684 . S
C277 C267 1.723 . S
C277 C276 1.396 1_455 S
C277 C278 1.394 . S
C278 C248 1.723 . S
C278 C274 1.397 1_455 S
C278 C277 1.394 . S
C279 H251 0.982 . S
C279 H255 0.979 . S
C279 H256 0.977 . S
C279 C276 1.453 . S
C280 H252 0.979 . S
C280 H253 0.980 . S
C280 H254 0.983 . S
C280 C276 1.684 . S
H281 C299 0.948 . S
H282 C240 0.948 . S
H283 C258 0.979 . S
H284 C258 0.980 . S
H285 C258 0.983 . S
H286 C257 0.982 . S
H287 C257 0.979 . S
H288 C257 0.977 . S
H289 C259 0.948 . S
H290 C261 0.947 1_655 S
H291 C262 0.948 1_655 S
H292 C268 0.982 . S
H293 C268 0.979 . S
H294 C268 0.977 . S
H295 C269 0.979 . S
H296 C269 0.980 . S
H297 C269 0.983 . S
H298 C242 0.947 . S
C299 C242 1.392 . S
C299 C243 1.419 . S
C299 H281 0.948 . S
C300 C301 1.391 . S
C300 C304 1.391 . S
C300 H342 0.948 . S
C301 C300 1.391 . S
C301 C302 1.391 . S
C302 C301 1.391 . S
C302 H358 0.947 . S
C302 C359 1.392 . S
C303 C304 1.391 . S
C303 C307 1.397 . S
C303 C359 1.419 . S
C304 C300 1.391 . S
C304 C303 1.391 . S
C304 C305 1.399 . S
C305 C304 1.399 . S
C305 C308 1.396 . S
C305 C317 1.453 . S
C305 C318 1.684 . S
H306 C330 0.948 . S
C307 C303 1.397 . S
C307 C308 1.394 . S
C307 C326 1.723 . S
C308 C305 1.396 . S
C308 C307 1.394 . S
C308 C338 1.723 1_655 S
H309 C332 0.947 . S
H310 C333 0.948 . S
H311 C339 0.982 . S
H312 C340 0.979 . S
H313 C340 0.980 . S
H314 C340 0.983 . S
H315 C339 0.979 . S
H316 C339 0.977 . S
C317 C305 1.453 . S
C317 H346 0.982 1_655 S
C317 H347 0.979 . S
C317 H348 0.977 1_655 S
C318 C305 1.684 . S
C318 H343 0.979 . S
C318 H344 0.980 . S
C318 H345 0.983 . S
C319 C320 1.391 1_655 S
C319 C324 1.391 . S
C319 H349 0.948 . S
C320 C319 1.391 1_455 S
C320 C321 1.391 . S
C321 C320 1.391 . S
C321 C322 1.392 . S
C321 H350 0.947 . S
C322 C321 1.392 . S
C322 C323 1.419 . S
C322 H351 0.948 . S
C323 C322 1.419 . S
C323 C324 1.391 1_455 S
C323 C327 1.397 . S
C324 C319 1.391 . S
C324 C323 1.391 1_655 S
C324 C325 1.399 . S
C325 C324 1.399 . S
C325 C326 1.396 . S
C325 C328 1.453 . S
C325 C329 1.684 . S
C326 C307 1.723 . S
C326 C325 1.396 . S
C326 C327 1.394 1_655 S
C327 C323 1.397 . S
C327 C326 1.394 1_455 S
C327 C337 1.723 . S
C328 C325 1.453 . S
C328 H352 0.982 . S
C328 H353 0.979 . S
C328 H354 0.977 . S
C329 C325 1.684 . S
C329 H355 0.979 . S
C329 H356 0.980 . S
C329 H357 0.983 . S
C330 H306 0.948 . S
C330 C331 1.391 . S
C330 C335 1.391 . S
C331 C330 1.391 . S
C331 C332 1.391 . S
C332 H309 0.947 . S
C332 C331 1.391 . S
C332 C333 1.392 . S
C333 H310 0.948 . S
C333 C332 1.392 . S
C333 C334 1.419 . S
C334 C333 1.419 . S
C334 C335 1.391 . S
C334 C338 1.397 . S
C335 C330 1.391 . S
C335 C334 1.391 . S
C335 C336 1.399 . S
C336 C335 1.399 . S
C336 C337 1.396 . S
C336 C339 1.453 . S
C336 C340 1.684 . S
C337 C327 1.723 . S
C337 C336 1.396 . S
C337 C338 1.394 . S
C338 C308 1.723 1_455 S
C338 C334 1.397 . S
C338 C337 1.394 . S
C339 H311 0.982 . S
C339 H315 0.979 . S
C339 H316 0.977 . S
C339 C336 1.453 . S
C340 H312 0.979 . S
C340 H313 0.980 . S
C340 H314 0.983 . S
C340 C336 1.684 . S
H341 C359 0.948 . S
H342 C300 0.948 . S
H343 C318 0.979 . S
H344 C318 0.980 . S
H345 C318 0.983 . S
H346 C317 0.982 1_455 S
H347 C317 0.979 . S
H348 C317 0.977 1_455 S
H349 C319 0.948 . S
H350 C321 0.947 . S
H351 C322 0.948 . S
H352 C328 0.982 . S
H353 C328 0.979 . S
H354 C328 0.977 . S
H355 C329 0.979 . S
H356 C329 0.980 . S
H357 C329 0.983 . S
H358 C302 0.947 . S
C359 C302 1.392 . S
C359 C303 1.419 . S
C359 H341 0.948 . S
C360 C361 1.391 . S
C360 C364 1.391 . S
C360 H402 0.948 . S
C361 C360 1.391 . S
C361 C362 1.391 . S
C362 C361 1.391 . S
C362 H418 0.947 . S
C362 C419 1.392 . S
C363 C364 1.391 . S
C363 C367 1.397 . S
C363 C419 1.419 . S
C364 C360 1.391 . S
C364 C363 1.391 . S
C364 C365 1.399 . S
C365 C364 1.399 . S
C365 C368 1.396 . S
C365 C377 1.453 1_565 S
C365 C378 1.684 . S
H366 C390 0.948 . S
C367 C363 1.397 . S
C367 C368 1.394 . S
C367 C386 1.723 . S
C368 C365 1.396 . S
C368 C367 1.394 . S
C368 C398 1.723 1_565 S
H369 C392 0.947 . S
H370 C393 0.948 . S
H371 C399 0.982 . S
H372 C400 0.979 . S
H373 C400 0.980 . S
H374 C400 0.983 . S
H375 C399 0.979 . S
H376 C399 0.977 . S
C377 C365 1.453 1_545 S
C377 H406 0.982 . S
C377 H407 0.979 1_545 S
C377 H408 0.977 . S
C378 C365 1.684 . S
C378 H403 0.979 . S
C378 H404 0.980 . S
C378 H405 0.983 . S
C379 C380 1.391 . S
C379 C384 1.391 . S
C379 H409 0.948 . S
C380 C379 1.391 . S
C380 C381 1.391 1_565 S
C381 C380 1.391 1_545 S
C381 C382 1.392 . S
C381 H410 0.947 . S
C382 C381 1.392 . S
C382 C383 1.419 . S
C382 H411 0.948 . S
C383 C382 1.419 . S
C383 C384 1.391 1_545 S
C383 C387 1.397 . S
C384 C379 1.391 . S
C384 C383 1.391 1_565 S
C384 C385 1.399 . S
C385 C384 1.399 . S
C385 C386 1.396 . S
C385 C388 1.453 . S
C385 C389 1.684 . S
C386 C367 1.723 . S
C386 C385 1.396 . S
C386 C387 1.394 1_565 S
C387 C383 1.397 . S
C387 C386 1.394 1_545 S
C387 C397 1.723 . S
C388 C385 1.453 . S
C388 H412 0.982 . S
C388 H413 0.979 . S
C388 H414 0.977 . S
C389 C385 1.684 . S
C389 H415 0.979 . S
C389 H416 0.980 . S
C389 H417 0.983 . S
C390 H366 0.948 . S
C390 C391 1.391 . S
C390 C395 1.391 . S
C391 C390 1.391 . S
C391 C392 1.391 . S
C392 H369 0.947 . S
C392 C391 1.391 . S
C392 C393 1.392 . S
C393 H370 0.948 . S
C393 C392 1.392 . S
C393 C394 1.419 . S
C394 C393 1.419 . S
C394 C395 1.391 . S
C394 C398 1.397 . S
C395 C390 1.391 . S
C395 C394 1.391 . S
C395 C396 1.399 . S
C396 C395 1.399 . S
C396 C397 1.396 . S
C396 C399 1.453 . S
C396 C400 1.684 . S
C397 C387 1.723 . S
C397 C396 1.396 . S
C397 C398 1.394 . S
C398 C368 1.723 1_545 S
C398 C394 1.397 . S
C398 C397 1.394 . S
C399 H371 0.982 . S
C399 H375 0.979 . S
C399 H376 0.977 . S
C399 C396 1.453 . S
C400 H372 0.979 . S
C400 H373 0.980 . S
C400 H374 0.983 . S
C400 C396 1.684 . S
H401 C419 0.948 . S
H402 C360 0.948 . S
H403 C378 0.979 . S
H404 C378 0.980 . S
H405 C378 0.983 . S
H406 C377 0.982 . S
H407 C377 0.979 1_565 S
H408 C377 0.977 . S
H409 C379 0.948 . S
H410 C381 0.947 . S
H411 C382 0.948 . S
H412 C388 0.982 . S
H413 C388 0.979 . S
H414 C388 0.977 . S
H415 C389 0.979 . S
H416 C389 0.980 . S
H417 C389 0.983 . S
H418 C362 0.947 . S
C419 C362 1.392 . S
C419 C363 1.419 . S
C419 H401 0.948 . S
C420 C421 1.391 . S
C420 C424 1.391 . S
C420 H462 0.948 . S
C421 C420 1.391 . S
C421 C422 1.391 . S
C422 C421 1.391 . S
C422 H478 0.947 . S
C422 C479 1.392 . S
C423 C424 1.391 . S
C423 C427 1.397 . S
C423 C479 1.419 . S
C424 C420 1.391 . S
C424 C423 1.391 . S
C424 C425 1.399 . S
C425 C424 1.399 . S
C425 C428 1.396 . S
C425 C437 1.453 . S
C425 C438 1.684 . S
H426 C450 0.948 . S
C427 C423 1.397 . S
C427 C428 1.394 . S
C427 C446 1.723 . S
C428 C425 1.396 . S
C428 C427 1.394 . S
C428 C458 1.723 . S
H429 C452 0.947 . S
H430 C453 0.948 . S
H431 C459 0.982 . S
H432 C460 0.979 . S
H433 C460 0.980 . S
H434 C460 0.983 . S
H435 C459 0.979 . S
H436 C459 0.977 . S
C437 C425 1.453 . S
C437 H466 0.982 . S
C437 H467 0.979 . S
C437 H468 0.977 . S
C438 C425 1.684 . S
C438 H463 0.979 . S
C438 H464 0.980 . S
C438 H465 0.983 . S
C439 C440 1.391 1_554 S
C439 C444 1.391 . S
C439 H469 0.948 1_554 S
C440 C439 1.391 1_556 S
C440 C441 1.394 . S
C441 C440 1.394 . S
C441 C442 1.386 1_556 S
C441 H470 0.950 . S
C442 C441 1.386 1_554 S
C442 C443 1.419 . S
C442 H471 0.948 . S
C443 C442 1.419 . S
C443 C444 1.391 . S
C443 C447 1.397 . S
C444 C439 1.391 . S
C444 C443 1.391 . S
C444 C445 1.399 . S
C445 C444 1.399 . S
C445 C446 1.396 . S
C445 C448 1.453 . S
C445 C449 1.684 . S
C446 C427 1.723 . S
C446 C445 1.396 . S
C446 C447 1.394 . S
C447 C443 1.397 . S
C447 C446 1.394 . S
C447 C457 1.723 . S
C448 C445 1.453 . S
C448 H472 0.982 . S
C448 H473 0.979 . S
C448 H474 0.977 . S
C449 C445 1.684 . S
C449 H475 0.979 . S
C449 H476 0.980 . S
C449 H477 0.983 . S
C450 H426 0.948 . S
C450 C451 1.391 . S
C450 C455 1.391 . S
C451 C450 1.391 . S
C451 C452 1.391 . S
C452 H429 0.947 . S
C452 C451 1.391 . S
C452 C453 1.392 . S
C453 H430 0.948 . S
C453 C452 1.392 . S
C453 C454 1.419 . S
C454 C453 1.419 . S
C454 C455 1.391 . S
C454 C458 1.397 . S
C455 C450 1.391 . S
C455 C454 1.391 . S
C455 C456 1.399 . S
C456 C455 1.399 . S
C456 C457 1.396 . S
C456 C459 1.453 . S
C456 C460 1.684 . S
C457 C447 1.723 . S
C457 C456 1.396 . S
C457 C458 1.394 . S
C458 C428 1.723 . S
C458 C454 1.397 . S
C458 C457 1.394 . S
C459 H431 0.982 . S
C459 H435 0.979 . S
C459 H436 0.977 . S
C459 C456 1.453 . S
C460 H432 0.979 . S
C460 H433 0.980 . S
C460 H434 0.983 . S
C460 C456 1.684 . S
H461 C479 0.948 . S
H462 C420 0.948 . S
H463 C438 0.979 . S
H464 C438 0.980 . S
H465 C438 0.983 . S
H466 C437 0.982 . S
H467 C437 0.979 . S
H468 C437 0.977 . S
H469 C439 0.948 1_556 S
H470 C441 0.950 . S
H471 C442 0.948 . S
H472 C448 0.982 . S
H473 C448 0.979 . S
H474 C448 0.977 . S
H475 C449 0.979 . S
H476 C449 0.980 . S
H477 C449 0.983 . S
H478 C422 0.947 . S
C479 C422 1.392 . S
C479 C423 1.419 . S
C479 H461 0.948 . S
H480 C486 0.930 . S
H481 C489 0.930 . S
H482 C490 0.930 . S
H483 C491 0.930 . S
H484 C494 0.930 . S
H485 C495 0.930 . S
C486 H480 0.930 . S
C486 C487 1.355 . S
C486 C488 1.415 . S
C487 C486 1.355 . S
C487 C489 1.419 . S
C488 C486 1.415 . S
C488 C493 1.425 . S
C488 C495 1.409 . S
C489 H481 0.930 . S
C489 C487 1.419 . S
C489 C490 1.362 . S
C490 H482 0.930 . S
C490 C489 1.362 . S
C490 C493 1.409 . S
C491 H483 0.930 . S
C491 C492 1.355 . S
C491 C493 1.415 . S
C492 C491 1.355 . S
C492 C494 1.419 . S
C493 C488 1.425 . S
C493 C490 1.409 . S
C493 C491 1.415 . S
C494 H484 0.930 . S
C494 C492 1.419 . S
C494 C495 1.362 . S
C495 H485 0.930 . S
C495 C488 1.409 . S
C495 C494 1.362 . S
H496 C502 0.930 . S
H497 C505 0.930 . S
H498 C506 0.930 . S
H499 C507 0.930 . S
H500 C510 0.930 . S
H501 C511 0.930 . S
C502 H496 0.930 . S
C502 C503 1.355 . S
C502 C504 1.415 . S
C503 C502 1.355 . S
C503 C505 1.419 . S
C504 C502 1.415 . S
C504 C509 1.425 . S
C504 C511 1.409 . S
C505 H497 0.930 . S
C505 C503 1.419 . S
C505 C506 1.362 . S
C506 H498 0.930 . S
C506 C505 1.362 . S
C506 C509 1.409 . S
C507 H499 0.930 . S
C507 C508 1.355 . S
C507 C509 1.415 . S
C508 C507 1.355 . S
C508 C510 1.419 . S
C509 C504 1.425 . S
C509 C506 1.409 . S
C509 C507 1.415 . S
C510 H500 0.930 . S
C510 C508 1.419 . S
C510 C511 1.362 . S
C511 H501 0.930 . S
C511 C504 1.409 . S
C511 C510 1.362 . S
H512 C518 0.930 . S
H513 C521 0.930 . S
H514 C522 0.930 . S
H515 C523 0.930 . S
H516 C526 0.930 . S
H517 C527 0.930 . S
C518 H512 0.930 . S
C518 C519 1.355 . S
C518 C520 1.415 . S
C519 C518 1.355 . S
C519 C521 1.419 . S
C520 C518 1.415 . S
C520 C525 1.425 . S
C520 C527 1.409 . S
C521 H513 0.930 . S
C521 C519 1.419 . S
C521 C522 1.362 . S
C522 H514 0.930 . S
C522 C521 1.362 . S
C522 C525 1.409 . S
C523 H515 0.930 . S
C523 C524 1.355 . S
C523 C525 1.415 . S
C524 C523 1.355 . S
C524 C526 1.419 . S
C525 C520 1.425 . S
C525 C522 1.409 . S
C525 C523 1.415 . S
C526 H516 0.930 . S
C526 C524 1.419 . S
C526 C527 1.362 . S
C527 H517 0.930 . S
C527 C520 1.409 . S
C527 C526 1.362 . S
H528 C534 0.930 . S
H529 C537 0.930 . S
H530 C538 0.930 . S
H531 C539 0.930 . S
H532 C542 0.930 . S
H533 C543 0.930 . S
C534 H528 0.930 . S
C534 C535 1.355 . S
C534 C536 1.415 . S
C535 C534 1.355 . S
C535 C537 1.419 . S
C536 C534 1.415 . S
C536 C541 1.425 . S
C536 C543 1.409 . S
C537 H529 0.930 . S
C537 C535 1.419 . S
C537 C538 1.362 . S
C538 H530 0.930 . S
C538 C537 1.362 . S
C538 C541 1.409 . S
C539 H531 0.930 . S
C539 C540 1.355 . S
C539 C541 1.415 . S
C540 C539 1.355 . S
C540 C542 1.419 . S
C541 C536 1.425 . S
C541 C538 1.409 . S
C541 C539 1.415 . S
C542 H532 0.930 . S
C542 C540 1.419 . S
C542 C543 1.362 . S
C543 H533 0.930 . S
C543 C536 1.409 . S
C543 C542 1.362 . S
H544 C550 0.930 . S
H545 C553 0.930 . S
H546 C554 0.930 . S
H547 C555 0.930 . S
H548 C558 0.930 . S
H549 C559 0.930 . S
C550 H544 0.930 . S
C550 C551 1.355 . S
C550 C552 1.415 . S
C551 C550 1.355 . S
C551 C553 1.419 . S
C552 C550 1.415 . S
C552 C557 1.425 . S
C552 C559 1.409 . S
C553 H545 0.930 . S
C553 C551 1.419 . S
C553 C554 1.362 . S
C554 H546 0.930 . S
C554 C553 1.362 . S
C554 C557 1.409 . S
C555 H547 0.930 . S
C555 C556 1.355 . S
C555 C557 1.415 . S
C556 C555 1.355 . S
C556 C558 1.419 . S
C557 C552 1.425 . S
C557 C554 1.409 . S
C557 C555 1.415 . S
C558 H548 0.930 . S
C558 C556 1.419 . S
C558 C559 1.362 . S
C559 H549 0.930 . S
C559 C552 1.409 . S
C559 C558 1.362 . S
H560 C566 0.930 . S
H561 C569 0.930 . S
H562 C570 0.930 . S
H563 C571 0.930 . S
H564 C574 0.930 . S
H565 C575 0.930 . S
C566 H560 0.930 . S
C566 C567 1.355 . S
C566 C568 1.415 . S
C567 C566 1.355 . S
C567 C569 1.419 . S
C568 C566 1.415 . S
C568 C573 1.425 . S
C568 C575 1.409 . S
C569 H561 0.930 . S
C569 C567 1.419 . S
C569 C570 1.362 . S
C570 H562 0.930 . S
C570 C569 1.362 . S
C570 C573 1.409 . S
C571 H563 0.930 . S
C571 C572 1.355 . S
C571 C573 1.415 . S
C572 C571 1.355 . S
C572 C574 1.419 . S
C573 C568 1.425 . S
C573 C570 1.409 . S
C573 C571 1.415 . S
C574 H564 0.930 . S
C574 C572 1.419 . S
C574 C575 1.362 . S
C575 H565 0.930 . S
C575 C568 1.409 . S
C575 C574 1.362 . S
H576 C582 0.930 . S
H577 C585 0.930 . S
H578 C586 0.930 . S
H579 C587 0.930 . S
H580 C590 0.930 . S
H581 C591 0.930 . S
C582 H576 0.930 . S
C582 C583 1.355 . S
C582 C584 1.415 . S
C583 C582 1.355 . S
C583 C585 1.419 . S
C584 C582 1.415 . S
C584 C589 1.425 . S
C584 C591 1.409 . S
C585 H577 0.930 . S
C585 C583 1.419 . S
C585 C586 1.362 . S
C586 H578 0.930 . S
C586 C585 1.362 . S
C586 C589 1.409 . S
C587 H579 0.930 . S
C587 C588 1.355 . S
C587 C589 1.415 . S
C588 C587 1.355 . S
C588 C590 1.419 . S
C589 C584 1.425 . S
C589 C586 1.409 . S
C589 C587 1.415 . S
C590 H580 0.930 . S
C590 C588 1.419 . S
C590 C591 1.362 . S
C591 H581 0.930 . S
C591 C584 1.409 . S
C591 C590 1.362 . S
H592 C598 0.930 . S
H593 C601 0.930 . S
H594 C602 0.930 . S
H595 C603 0.930 . S
H596 C606 0.930 . S
H597 C607 0.930 . S
C598 H592 0.930 . S
C598 C599 1.355 . S
C598 C600 1.415 . S
C599 C598 1.355 . S
C599 C601 1.419 . S
C600 C598 1.415 . S
C600 C605 1.425 . S
C600 C607 1.409 . S
C601 H593 0.930 . S
C601 C599 1.419 . S
C601 C602 1.362 . S
C602 H594 0.930 . S
C602 C601 1.362 . S
C602 C605 1.409 . S
C603 H595 0.930 . S
C603 C604 1.355 . S
C603 C605 1.415 . S
C604 C603 1.355 . S
C604 C606 1.419 . S
C605 C600 1.425 . S
C605 C602 1.409 . S
C605 C603 1.415 . S
C606 H596 0.930 . S
C606 C604 1.419 . S
C606 C607 1.362 . S
C607 H597 0.930 . S
C607 C600 1.409 . S
C607 C606 1.362 . S
H608 C614 0.930 . S
H609 C617 0.930 . S
H610 C618 0.930 . S
H611 C619 0.930 . S
H612 C622 0.930 . S
H613 C623 0.930 . S
C614 H608 0.930 . S
C614 C615 1.355 . S
C614 C616 1.415 . S
C615 C614 1.355 . S
C615 C617 1.419 . S
C616 C614 1.415 . S
C616 C621 1.425 . S
C616 C623 1.409 . S
C617 H609 0.930 . S
C617 C615 1.419 . S
C617 C618 1.362 . S
C618 H610 0.930 . S
C618 C617 1.362 . S
C618 C621 1.409 . S
C619 H611 0.930 . S
C619 C620 1.355 . S
C619 C621 1.415 . S
C620 C619 1.355 . S
C620 C622 1.419 . S
C621 C616 1.425 . S
C621 C618 1.409 . S
C621 C619 1.415 . S
C622 H612 0.930 . S
C622 C620 1.419 . S
C622 C623 1.362 . S
C623 H613 0.930 . S
C623 C616 1.409 . S
C623 C622 1.362 . S
H624 C630 0.930 . S
H625 C633 0.930 . S
H626 C634 0.930 . S
H627 C635 0.930 . S
H628 C638 0.930 . S
H629 C639 0.930 . S
C630 H624 0.930 . S
C630 C631 1.355 . S
C630 C632 1.415 . S
C631 C630 1.355 . S
C631 C633 1.419 . S
C632 C630 1.415 . S
C632 C637 1.425 . S
C632 C639 1.409 . S
C633 H625 0.930 . S
C633 C631 1.419 . S
C633 C634 1.362 . S
C634 H626 0.930 . S
C634 C633 1.362 . S
C634 C637 1.409 . S
C635 H627 0.930 . S
C635 C636 1.355 . S
C635 C637 1.415 . S
C636 C635 1.355 . S
C636 C638 1.419 . S
C637 C632 1.425 . S
C637 C634 1.409 . S
C637 C635 1.415 . S
C638 H628 0.930 . S
C638 C636 1.419 . S
C638 C639 1.362 . S
C639 H629 0.930 . S
C639 C632 1.409 . S
C639 C638 1.362 . S
H640 C646 0.930 . S
H641 C649 0.930 . S
H642 C650 0.930 . S
H643 C651 0.930 . S
H644 C654 0.930 . S
H645 C655 0.930 . S
C646 H640 0.930 . S
C646 C647 1.355 . S
C646 C648 1.415 . S
C647 C646 1.355 . S
C647 C649 1.419 . S
C648 C646 1.415 . S
C648 C653 1.425 . S
C648 C655 1.409 . S
C649 H641 0.930 . S
C649 C647 1.419 . S
C649 C650 1.362 . S
C650 H642 0.930 . S
C650 C649 1.362 . S
C650 C653 1.409 . S
C651 H643 0.930 . S
C651 C652 1.355 . S
C651 C653 1.415 . S
C652 C651 1.355 . S
C652 C654 1.419 . S
C653 C648 1.425 . S
C653 C650 1.409 . S
C653 C651 1.415 . S
C654 H644 0.930 . S
C654 C652 1.419 . S
C654 C655 1.362 . S
C655 H645 0.930 . S
C655 C648 1.409 . S
C655 C654 1.362 . S
H656 C662 0.930 . S
H657 C665 0.930 . S
H658 C666 0.930 . S
H659 C667 0.930 . S
H660 C670 0.930 . S
H661 C671 0.930 . S
C662 H656 0.930 . S
C662 C663 1.355 . S
C662 C664 1.415 . S
C663 C662 1.355 . S
C663 C665 1.419 . S
C664 C662 1.415 . S
C664 C669 1.425 . S
C664 C671 1.409 . S
C665 H657 0.930 . S
C665 C663 1.419 . S
C665 C666 1.362 . S
C666 H658 0.930 . S
C666 C665 1.362 . S
C666 C669 1.409 . S
C667 H659 0.930 . S
C667 C668 1.355 . S
C667 C669 1.415 . S
C668 C667 1.355 . S
C668 C670 1.419 . S
C669 C664 1.425 . S
C669 C666 1.409 . S
C669 C667 1.415 . S
C670 H660 0.930 . S
C670 C668 1.419 . S
C670 C671 1.362 . S
C671 H661 0.930 . S
C671 C664 1.409 . S
C671 C670 1.362 . S
H672 C678 0.906 1_655 S
H673 C681 0.930 . S
H674 C682 0.930 . S
H675 C683 0.930 . S
H676 C686 0.930 . S
H677 C687 0.930 1_655 S
C678 H672 0.906 1_455 S
C678 C679 1.355 . S
C678 C680 1.415 . S
C679 C678 1.355 . S
C679 C681 1.419 . S
C680 C678 1.415 . S
C680 C685 1.425 . S
C680 C687 1.409 . S
C681 H673 0.930 . S
C681 C679 1.419 . S
C681 C682 1.362 . S
C682 H674 0.930 . S
C682 C681 1.362 . S
C682 C685 1.409 . S
C683 H675 0.930 . S
C683 C684 1.355 . S
C683 C685 1.415 . S
C684 C683 1.355 . S
C684 C686 1.419 . S
C685 C680 1.425 . S
C685 C682 1.409 . S
C685 C683 1.415 . S
C686 H676 0.930 . S
C686 C684 1.419 . S
C686 C687 1.362 . S
C687 H677 0.930 1_455 S
C687 C680 1.409 . S
C687 C686 1.362 . S
H688 C694 0.930 . S
H689 C697 0.930 . S
H690 C698 0.930 . S
H691 C699 0.930 . S
H692 C702 0.930 . S
H693 C703 0.930 . S
C694 H688 0.930 . S
C694 C695 1.355 1_565 S
C694 C696 1.415 1_565 S
C695 C694 1.355 1_545 S
C695 C697 1.419 . S
C696 C694 1.415 1_545 S
C696 C701 1.425 . S
C696 C703 1.409 1_545 S
C697 H689 0.930 . S
C697 C695 1.419 . S
C697 C698 1.362 . S
C698 H690 0.930 . S
C698 C697 1.362 . S
C698 C701 1.409 . S
C699 H691 0.930 . S
C699 C700 1.355 . S
C699 C701 1.415 . S
C700 C699 1.355 . S
C700 C702 1.419 1_545 S
C701 C696 1.425 . S
C701 C698 1.409 . S
C701 C699 1.415 . S
C702 H692 0.930 . S
C702 C700 1.419 1_565 S
C702 C703 1.362 . S
C703 H693 0.930 . S
C703 C696 1.409 1_565 S
C703 C702 1.362 . S
H704 C710 0.930 . S
H705 C713 0.930 . S
H706 C714 0.930 . S
H707 C715 0.930 . S
H708 C718 0.930 . S
H709 C719 0.930 . S
C710 H704 0.930 . S
C710 C711 1.355 . S
C710 C712 1.415 . S
C711 C710 1.355 . S
C711 C713 1.419 . S
C712 C710 1.415 . S
C712 C717 1.425 . S
C712 C719 1.409 . S
C713 H705 0.930 . S
C713 C711 1.419 . S
C713 C714 1.362 . S
C714 H706 0.930 . S
C714 C713 1.362 . S
C714 C717 1.409 . S
C715 H707 0.930 . S
C715 C716 1.355 . S
C715 C717 1.415 . S
C716 C715 1.355 . S
C716 C718 1.419 . S
C717 C712 1.425 . S
C717 C714 1.409 . S
C717 C715 1.415 . S
C718 H708 0.930 . S
C718 C716 1.419 . S
C718 C719 1.362 . S
C719 H709 0.930 . S
C719 C712 1.409 . S
C719 C718 1.362 . S
H720 C726 0.914 . S
H721 C729 0.930 . S
H722 C730 0.930 . S
H723 C731 0.930 . S
H724 C734 0.930 . S
H725 C735 0.930 . S
C726 H720 0.914 . S
C726 C727 1.355 . S
C726 C728 1.415 1_545 S
C727 C726 1.355 . S
C727 C729 1.419 . S
C728 C726 1.415 1_565 S
C728 C733 1.447 1_565 S
C728 C735 1.409 . S
C729 H721 0.930 . S
C729 C727 1.419 . S
C729 C730 1.362 . S
C730 H722 0.930 . S
C730 C729 1.362 . S
C730 C733 1.397 . S
C731 H723 0.930 . S
C731 C732 1.355 . S
C731 C733 1.408 1_565 S
C732 C731 1.355 . S
C732 C734 1.419 . S
C733 C728 1.447 1_545 S
C733 C730 1.397 . S
C733 C731 1.408 1_545 S
C734 H724 0.930 . S
C734 C732 1.419 . S
C734 C735 1.362 . S
C735 H725 0.930 . S
C735 C728 1.409 . S
C735 C734 1.362 . S
H736 C742 0.930 . S
H737 C745 0.930 . S
H738 C746 0.930 . S
H739 C747 0.930 . S
H740 C750 0.930 . S
H741 C751 0.930 . S
C742 H736 0.930 . S
C742 C743 1.355 . S
C742 C744 1.415 . S
C743 C742 1.355 . S
C743 C745 1.419 . S
C744 C742 1.415 . S
C744 C749 1.425 . S
C744 C751 1.409 . S
C745 H737 0.930 . S
C745 C743 1.419 . S
C745 C746 1.362 . S
C746 H738 0.930 . S
C746 C745 1.362 . S
C746 C749 1.409 . S
C747 H739 0.930 . S
C747 C748 1.355 . S
C747 C749 1.415 . S
C748 C747 1.355 . S
C748 C750 1.419 . S
C749 C744 1.425 . S
C749 C746 1.409 . S
C749 C747 1.415 . S
C750 H740 0.930 . S
C750 C748 1.419 . S
C750 C751 1.362 . S
C751 H741 0.930 . S
C751 C744 1.409 . S
C751 C750 1.362 . S
H752 C758 0.930 . S
H753 C761 0.930 . S
H754 C762 0.930 . S
H755 C763 0.930 . S
H756 C766 0.930 . S
H757 C767 0.930 . S
C758 H752 0.930 . S
C758 C759 1.355 1_655 S
C758 C760 1.415 . S
C759 C758 1.355 1_455 S
C759 C761 1.419 . S
C760 C758 1.415 . S
C760 C765 1.425 1_655 S
C760 C767 1.409 . S
C761 H753 0.930 . S
C761 C759 1.419 . S
C761 C762 1.362 . S
C762 H754 0.930 . S
C762 C761 1.362 . S
C762 C765 1.409 . S
C763 H755 0.930 . S
C763 C764 1.355 1_455 S
C763 C765 1.415 . S
C764 C763 1.355 1_655 S
C764 C766 1.419 . S
C765 C760 1.425 1_455 S
C765 C762 1.409 . S
C765 C763 1.415 . S
C766 H756 0.930 . S
C766 C764 1.419 . S
C766 C767 1.362 . S
C767 H757 0.930 . S
C767 C760 1.409 . S
C767 C766 1.362 . S
C487 C6 0.638 . S
C492 C451 0.646 . S
C503 C59 1.952 . S
C508 C301 1.825 . S
C519 C86 1.284 . S
C524 C361 1.256 . S
C535 C15 0.468 . S
C540 C421 0.386 . S
C556 C331 2.071 . S
C551 C50 2.063 . S
C572 C391 1.333 . S
C567 C95 1.297 . S
C583 C46 1.212 . S
C588 C181 1.192 . S
C599 C99 3.141 . S
C604 C271 3.134 . S
C615 C10 2.073 . S
C620 C151 2.113 . S
C636 C211 1.333 . S
C631 C55 1.282 . S
C652 C241 2.921 . S
C647 C90 3.054 . S
C663 C19 1.961 . S
C668 C121 1.851 . S
C684 C260 1.736 1_554 S
C679 C18 1.740 . S
C695 C49 1.289 . S
C700 C140 1.310 . S
C711 C98 1.427 . S
C716 C200 1.487 . S
C732 C380 1.440 . S
C727 C58 1.461 . S
C748 C440 1.068 . S
C743 C89 1.024 . S
C759 C9 1.279 . S
C764 C320 1.328 1_655 S
