# Generated by pormake.
# Topology ftw, (4,12)-cn, num edge types: 1
# Building blocks:
#     Node 0, Type 0, BuildingBlock: MIFKUJ_clean_linker_1, # of connection points: 4
#     Node 1, Type 0, BuildingBlock: MIFKUJ_clean_linker_1, # of connection points: 4
#     Node 2, Type 0, BuildingBlock: MIFKUJ_clean_linker_1, # of connection points: 4
#     Node 3, Type 1, BuildingBlock: QEWDON_clean_sbu_0, # of connection points: 12
#     Edge 4, Type (0, 1), BuildingBlock: UVAHIK_clean_linker_0, # of connection points: 2
#     Edge 5, Type (0, 1), BuildingBlock: UVAHIK_clean_linker_0, # of connection points: 2
#     Edge 6, Type (0, 1), BuildingBlock: UVAHIK_clean_linker_0, # of connection points: 2
#     Edge 7, Type (0, 1), BuildingBlock: UVAHIK_clean_linker_0, # of connection points: 2
#     Edge 8, Type (0, 1), BuildingBlock: UVAHIK_clean_linker_0, # of connection points: 2
#     Edge 9, Type (0, 1), BuildingBlock: UVAHIK_clean_linker_0, # of connection points: 2
#     Edge 10, Type (0, 1), BuildingBlock: UVAHIK_clean_linker_0, # of connection points: 2
#     Edge 11, Type (0, 1), BuildingBlock: UVAHIK_clean_linker_0, # of connection points: 2
#     Edge 12, Type (0, 1), BuildingBlock: UVAHIK_clean_linker_0, # of connection points: 2
#     Edge 13, Type (0, 1), BuildingBlock: UVAHIK_clean_linker_0, # of connection points: 2
#     Edge 14, Type (0, 1), BuildingBlock: UVAHIK_clean_linker_0, # of connection points: 2
#     Edge 15, Type (0, 1), BuildingBlock: UVAHIK_clean_linker_0, # of connection points: 2
# Relax obj value: 0.069
# Max RMSD: 0.197
# Mean RMSD: 0.143
data_MOF--net-ftw--node1-QEWDON_clean_sbu_0--node2-MIFKUJ_clean_linker_1--edge1-UVAHIK_clean_linker_0
_symmetry_space_group_name_H-M    P1
_symmetry_Int_Tables_number       1
_symmetry_cell_setting            triclinic
loop_
_symmetry_equiv_pos_as_xyz
'x, y, z'
_cell_length_a     32.809261
_cell_length_b     36.398976
_cell_length_c     35.648947
_cell_angle_alpha  90.043393
_cell_angle_beta   90.021652
_cell_angle_gamma 90.005511
loop_
_atom_site_label
_atom_site_type_symbol
_atom_site_fract_x
_atom_site_fract_y
_atom_site_fract_z
_atom_type_partial_charge
H0 H 0.05141 0.5491 0.5927 0.0
H1 H 0.05274 0.59951 0.63782 0.0
H2 H 0.93758 0.63877 0.59485 0.0
H3 H 0.93651 0.58819 0.54951 0.0
H4 H -0.00259 0.49633 0.59301 0.0
H5 H 0.04505 0.58083 0.49658 0.0
H6 H 0.04719 0.63333 0.45347 0.0
H7 H 0.92283 0.61153 0.42067 0.0
H8 H 0.92103 0.55881 0.46344 0.0
H9 H 0.92526 0.44918 0.44985 0.0
H10 H 0.92352 0.39831 0.40631 0.0
H11 H 0.0254 0.34826 0.46415 0.0
H12 H 0.02989 0.40171 0.50489 0.0
H13 H 0.97462 0.49879 0.45582 0.0
H14 H 0.93048 0.40923 0.54972 0.0
H15 H 0.92945 0.35826 0.59459 0.0
H16 H 0.04893 0.38998 0.63406 0.0
H17 H 0.04951 0.4409 0.58963 0.0
C18 C -0.00609 0.56476 0.56758 0.0
C19 C 0.02668 0.56884 0.59259 0.0
C20 C 0.02726 0.59756 0.61861 0.0
C21 C -0.00503 0.62292 0.62038 0.0
C22 C 0.96305 0.61986 0.59414 0.0
C23 C 0.96247 0.59099 0.56806 0.0
C24 C -0.00948 0.53081 0.54445 0.0
C25 C -0.007 0.49675 0.56284 0.0
C26 C 0.98332 0.53141 0.50539 0.0
C27 C 0.98283 0.566 0.48332 0.0
C28 C 0.01803 0.58776 0.4806 0.0
C29 C 0.01931 0.61755 0.45578 0.0
C30 C -0.01478 0.62642 0.4336 0.0
C31 C 0.94946 0.60551 0.43756 0.0
C32 C 0.94843 0.57537 0.4619 0.0
C33 C 0.97755 0.42961 0.48111 0.0
C34 C 0.94743 0.42737 0.45317 0.0
C35 C 0.9461 0.39763 0.42841 0.0
C36 C 0.97419 0.36847 0.43133 0.0
C37 C 0.00358 0.37019 0.4602 0.0
C38 C 0.00563 0.40059 0.48434 0.0
C39 C 0.98126 0.46372 0.50433 0.0
C40 C 0.9788 0.498 0.48599 0.0
C41 C -0.0115 0.46324 0.54358 0.0
C42 C -0.00996 0.42898 0.56629 0.0
C43 C 0.95678 0.40471 0.5675 0.0
C44 C 0.95624 0.37558 0.59324 0.0
C45 C -0.01111 0.37028 0.61836 0.0
C46 C 0.02289 0.39367 0.61577 0.0
C47 C 0.02339 0.42268 0.59015 0.0
H48 H 0.4133 0.04866 0.46869 0.0
H49 H 0.36975 0.04511 0.41293 0.0
H50 H 0.41725 0.93703 0.38864 0.0
H51 H 0.46108 0.94089 0.44433 0.0
H52 H 0.41077 -0.00075 0.52962 0.0
H53 H 0.5117 0.0503 0.44563 0.0
H54 H 0.55546 0.05489 0.38997 0.0
H55 H 0.60126 0.94567 0.41135 0.0
H56 H 0.55788 0.94142 0.46716 0.0
H57 H 0.56275 0.94143 0.58487 0.0
H58 H 0.60992 0.94338 0.63774 0.0
H59 H 0.55687 0.04617 0.67384 0.0
H60 H 0.50929 0.04379 0.6209 0.0
H61 H 0.56152 0.99047 0.52936 0.0
H62 H 0.46515 0.94627 0.62149 0.0
H63 H 0.41991 0.94451 0.67605 0.0
H64 H 0.36168 0.04432 0.63806 0.0
H65 H 0.40791 0.04667 0.58467 0.0
C66 C 0.44059 0.99519 0.46037 0.0
C67 C 0.41463 0.0244 0.4511 0.0
C68 C 0.3899 0.02236 0.41926 0.0
C69 C 0.39021 0.99079 0.39652 0.0
C70 C 0.41634 0.96159 0.4058 0.0
C71 C 0.44154 0.96389 0.43736 0.0
C72 C 0.46464 -0.00369 0.49547 0.0
C73 C 0.44382 -0.00209 0.52976 0.0
C74 C 0.50751 0.99383 0.4954 0.0
C75 C 0.53142 -0.00459 0.46026 0.0
C76 C 0.53087 0.02723 0.43804 0.0
C77 C 0.55602 0.02993 0.4065 0.0
C78 C 0.58165 0.00062 0.39642 0.0
C79 C 0.58152 0.96852 0.41834 0.0
C80 C 0.55688 0.96608 0.45019 0.0
C81 C 0.53245 0.99241 0.59892 0.0
C82 C 0.56093 0.96417 0.60442 0.0
C83 C 0.58808 0.96547 0.63453 0.0
C84 C 0.58758 0.9952 0.65975 0.0
C85 C 0.55792 0.02278 0.65508 0.0
C86 C 0.53065 0.02143 0.62486 0.0
C87 C 0.50772 0.99308 0.56406 0.0
C88 C 0.52848 0.99185 0.52959 0.0
C89 C 0.46472 -0.00361 0.56415 0.0
C90 C 0.44023 -0.00319 0.59916 0.0
C91 C 0.44327 0.96822 0.62543 0.0
C92 C 0.41699 0.96698 0.65634 0.0
C93 C 0.38705 0.99424 0.66145 0.0
C94 C 0.3847 0.02317 0.6354 0.0
C95 C 0.41098 0.02443 0.60467 0.0
H96 H 0.56327 0.54606 0.98054 0.0
H97 H 0.60176 0.60321 0.97581 0.0
H98 H 0.54486 0.64257 0.07757 0.0
H99 H 0.50726 0.58465 0.08274 0.0
H100 H 0.56284 0.49273 0.03344 0.0
H101 H 0.47056 0.57727 0.97787 0.0
H102 H 0.43741 0.63736 0.97469 0.0
H103 H 0.37433 0.61437 0.07835 0.0
H104 H 0.40858 0.55455 0.08208 0.0
H105 H 0.46381 0.40883 0.09214 0.0
H106 H 0.42457 0.35138 0.09265 0.0
H107 H 0.37596 0.37798 0.98326 0.0
H108 H 0.41528 0.43494 0.9829 0.0
H109 H 0.41141 0.49412 0.0368 0.0
H110 H 0.55511 0.42649 0.08803 0.0
H111 H 0.58395 0.36436 0.08483 0.0
H112 H 0.53801 0.35282 0.97177 0.0
H113 H 0.50974 0.41492 0.97512 0.0
C114 C 0.53271 0.56114 0.03207 0.0
C115 C 0.55929 0.56694 1.00192 0.0
C116 C 0.58066 0.59984 0.99891 0.0
C117 C 0.57595 0.62747 0.02613 0.0
C118 C 0.54909 0.6217 0.05625 0.0
C119 C 0.5277 0.5887 0.05925 0.0
C120 C 0.50894 0.52679 0.03406 0.0
C121 C 0.52979 0.49316 0.03453 0.0
C122 C 0.46581 0.52719 0.03434 0.0
C123 C 0.44263 0.56184 0.03063 0.0
C124 C 0.44977 0.58524 1.00003 0.0
C125 C 0.43092 0.61949 0.99824 0.0
C126 C 0.40386 0.63053 0.02654 0.0
C127 C 0.39521 0.60642 0.05625 0.0
C128 C 0.41459 0.57231 0.05834 0.0
C129 C 0.44192 0.42605 0.03762 0.0
C130 C 0.44481 0.40202 0.06826 0.0
C131 C 0.4226 0.36931 0.06848 0.0
C132 C 0.39757 0.36021 0.03788 0.0
C133 C 0.39558 0.38403 1.00692 0.0
C134 C 0.41746 0.41678 1.00689 0.0
C135 C 0.4654 0.46049 0.03699 0.0
C136 C 0.44448 0.49398 0.03651 0.0
C137 C 0.50829 0.46004 0.03531 0.0
C138 C 0.53048 0.42503 0.0318 0.0
C139 C 0.55202 0.41073 0.06239 0.0
C140 C 0.56798 0.37519 0.06065 0.0
C141 C 0.56282 0.35369 0.02817 0.0
C142 C 0.54262 0.36881 0.99706 0.0
C143 C 0.52651 0.4042 0.99891 0.0
Zn144 Zn 0.02451 0.055 0.99055 0.0
Zn145 Zn 0.02856 0.06685 0.08165 0.0
O146 O 0.01433 0.03049 0.04103 0.0
H147 H 0.01901 0.00441 0.04235 0.0
C148 C 0.934 0.10468 0.91519 0.0
O149 O 0.91369 0.07458 0.9071 0.0
Zn150 Zn 0.94143 0.92501 0.08202 0.0
Zn151 Zn 0.94884 0.93618 0.99098 0.0
O152 O 0.95712 0.96101 0.04163 0.0
H153 H 0.95327 0.98719 0.04306 0.0
Zn154 Zn 0.91768 0.07643 0.99068 0.0
O155 O 0.94623 0.06977 0.041 0.0
Zn156 Zn 0.90428 0.05678 0.07974 0.0
H157 H 0.93567 0.07346 0.016 0.0
Zn158 Zn 0.05424 0.91784 0.99185 0.0
O159 O 0.02501 0.922 0.04208 0.0
H160 H 0.03593 0.91941 0.01708 0.0
Zn161 Zn 0.06604 0.93503 0.08158 0.0
C162 C 0.02123 0.89032 0.91904 0.0
O163 O 0.01906 0.92565 0.91173 0.0
O164 O 0.04712 0.10736 0.99575 0.0
O165 O 0.05239 0.11174 0.05781 0.0
O166 O 0.92522 0.8842 0.99593 0.0
O167 O 0.91682 0.88057 0.05773 0.0
O168 O 0.85534 0.07694 0.99746 0.0
O169 O 0.84775 0.06688 0.05881 0.0
C170 C 0.08248 0.01138 0.11413 0.0
O171 O 0.11643 0.91858 0.99986 0.0
O172 O 0.12296 0.92452 0.06188 0.0
O173 O 0.91911 0.96502 0.94851 0.0
C174 C 0.05748 0.12499 0.02508 0.0
O175 O 0.05527 0.02577 0.94898 0.0
C176 C 0.88764 0.9812 0.11321 0.0
O177 O 0.94127 0.11198 0.94947 0.0
C178 C 0.91278 0.86715 0.0249 0.0
O179 O 0.03382 0.88009 0.95116 0.0
C180 C 0.95173 0.096 0.13447 0.0
O181 O 0.07294 0.04525 0.11382 0.0
O182 O 0.06133 0.98892 0.09486 0.0
C183 C 0.83278 0.07349 0.02637 0.0
O184 O 0.89694 0.94729 0.11362 0.0
O185 O 0.90889 0.00311 0.09346 0.0
C186 C 0.01746 0.89543 0.13567 0.0
O187 O 0.91546 0.0875 0.12538 0.0
O188 O 0.98129 0.08484 0.11423 0.0
C189 C 0.13849 0.91996 0.02931 0.0
O190 O 0.0537 0.9042 0.12677 0.0
O191 O -0.01217 0.9065 0.11543 0.0
C192 C 0.88507 0.98052 0.955 0.0
O193 O 0.87124 0.98127 0.98958 0.0
C194 C 0.09 0.01185 0.95607 0.0
O195 O 0.10392 0.01321 0.99062 0.0
C196 C 0.00919 0.31818 0.39382 0.0
C197 C 0.97337 0.33725 0.40369 0.0
C198 C 0.00844 0.28998 0.36701 0.0
C199 C 0.9354 0.23121 0.31101 0.0
H200 H 0.03245 0.21119 0.2528 0.0
C201 C 0.93326 0.11695 0.19899 0.0
C202 C 0.95866 0.11997 0.16749 0.0
C203 C 0.93753 0.14098 0.22938 0.0
C204 C 0.00469 0.21665 0.26818 0.0
H205 H 0.90819 0.33991 0.39297 0.0
H206 H 0.9076 0.29411 0.3444 0.0
H207 H 0.0341 0.25833 0.30049 0.0
H208 H 0.00843 0.15059 0.14294 0.0
H209 H 0.01422 0.19424 0.19449 0.0
H210 H 0.90487 0.19217 0.27663 0.0
C211 C 0.93629 0.2996 0.35826 0.0
C212 C 0.00591 0.24344 0.29646 0.0
C213 C 0.9368 0.32691 0.38586 0.0
C214 C -0.0113 0.14741 0.16709 0.0
C215 C -0.0079 0.17235 0.19698 0.0
C216 C 0.93381 0.20537 0.28199 0.0
C217 C 0.97205 0.28048 0.34832 0.0
C218 C 0.97124 0.25124 0.31844 0.0
C219 C 0.96632 0.16978 0.22863 0.0
C220 C 0.96845 0.19741 0.26005 0.0
H221 H 0.03824 0.32531 0.40621 0.0
H222 H 0.03664 0.27572 0.36111 0.0
H223 H 0.90814 0.23526 0.32754 0.0
H224 H 0.91004 0.09582 0.20021 0.0
H225 H 0.91793 0.13676 0.25337 0.0
C226 C 0.63481 0.0342 0.35927 0.0
C227 C 0.60916 0.00359 0.36362 0.0
C228 C 0.66274 0.03572 0.32963 0.0
C229 C 0.71548 0.97397 0.26229 0.0
H230 H 0.74623 0.0649 0.21313 0.0
C231 C 0.81611 0.97128 0.13262 0.0
C232 C 0.8513 0.99311 0.13424 0.0
C233 C 0.78411 0.97706 0.15763 0.0
C234 C 0.73796 0.03938 0.22676 0.0
H235 H 0.59109 0.95147 0.33957 0.0
H236 H 0.63854 0.95452 0.28718 0.0
H237 H 0.69439 0.06572 0.26259 0.0
H238 H 0.8804 0.03848 0.16276 0.0
H239 H 0.82377 0.04938 0.20632 0.0
H240 H 0.75847 0.94757 0.22627 0.0
C241 C 0.63837 0.97685 0.30725 0.0
C242 C 0.70841 0.03979 0.25518 0.0
C243 C 0.61096 0.97512 0.33714 0.0
C244 C 0.85304 0.02221 0.16006 0.0
C245 C 0.82082 0.02811 0.18522 0.0
C246 C 0.74447 0.97352 0.23374 0.0
C247 C 0.66525 0.00681 0.30347 0.0
C248 C 0.69663 0.00699 0.27319 0.0
C249 C 0.78671 0.00467 0.18506 0.0
C250 C 0.75587 0.00612 0.21548 0.0
H251 H 0.6342 0.05641 0.37951 0.0
H252 H 0.68317 0.05901 0.32797 0.0
H253 H 0.70829 0.94832 0.27616 0.0
H254 H 0.81409 0.94863 0.11295 0.0
H255 H 0.75794 0.95894 0.15649 0.0
C256 C 0.02055 0.65695 0.37965 0.0
C257 C -0.0123 0.65593 0.40484 0.0
C258 C 0.02235 0.68363 0.35148 0.0
C259 C 0.95851 0.75393 0.30149 0.0
H260 H 0.0644 0.7862 0.2667 0.0
C261 C 0.97652 0.84791 0.17059 0.0
C262 C 0.01061 0.87119 0.16855 0.0
C263 C 0.97245 0.82281 0.20024 0.0
C264 C 0.03441 0.77819 0.27632 0.0
H265 H 0.93121 0.68243 0.42065 0.0
H266 H 0.93511 0.73014 0.37273 0.0
H267 H 0.06016 0.74245 0.31736 0.0
H268 H 0.06603 0.88774 0.19695 0.0
H269 H 0.05792 0.84596 0.2494 0.0
H270 H 0.93282 0.79144 0.26184 0.0
C271 C 0.95898 0.70965 0.37372 0.0
C272 C 0.03198 0.75222 0.30513 0.0
C273 C 0.95682 0.68246 0.40148 0.0
C274 C 0.03964 0.86985 0.19747 0.0
C275 C 0.03513 0.84546 0.22746 0.0
C276 C 0.96094 0.78055 0.27314 0.0
C277 C -0.00828 0.7106 0.3481 0.0
C278 C -0.00597 0.73934 0.318 0.0
C279 C 0.00196 0.82091 0.22901 0.0
C280 C -0.00103 0.79299 0.2599 0.0
H281 H 0.04444 0.63645 0.38112 0.0
H282 H 0.04755 0.68252 0.33193 0.0
H283 H 0.92863 0.74454 0.31002 0.0
H284 H 0.95375 0.84814 0.14857 0.0
H285 H 0.94671 0.80423 0.19987 0.0
C286 C 0.35986 0.01745 0.33822 0.0
C287 C 0.36261 0.98822 0.3637 0.0
C288 C 0.33229 0.01605 0.30841 0.0
C289 C 0.26385 0.95332 0.25432 0.0
H290 H 0.21039 0.04513 0.22959 0.0
C291 C 0.11857 0.96998 0.15979 0.0
C292 C 0.11904 0.00019 0.13535 0.0
C293 C 0.15092 0.96425 0.18489 0.0
C294 C 0.22534 0.01931 0.23588 0.0
H295 H 0.33914 0.93436 0.37783 0.0
H296 H 0.28998 0.93226 0.32638 0.0
H297 H 0.26104 0.04387 0.27911 0.0
H298 H 0.15434 0.04688 0.11636 0.0
H299 H 0.21064 0.03688 0.15973 0.0
H300 H 0.22662 0.92881 0.21141 0.0
C301 C 0.30976 0.95596 0.3288 0.0
C302 C 0.25459 0.01859 0.26422 0.0
C303 C 0.33781 0.95717 0.35838 0.0
C304 C 0.15319 0.02341 0.13501 0.0
C305 C 0.18531 0.01778 0.15993 0.0
C306 C 0.23408 0.954 0.22608 0.0
C307 C 0.30625 0.98562 0.3037 0.0
C308 C 0.27464 0.98572 0.27362 0.0
C309 C 0.18393 0.98893 0.18601 0.0
C310 C 0.21492 0.98715 0.2163 0.0
H311 H 0.37907 0.04147 0.34138 0.0
H312 H 0.33132 0.03901 0.28914 0.0
H313 H 0.27882 0.92754 0.26058 0.0
H314 H 0.09207 0.95249 0.16148 0.0
H315 H 0.14891 0.94195 0.20491 0.0
C316 C 0.00546 0.6418 0.68753 0.0
C317 C -0.00617 0.65114 0.65075 0.0
C318 C 0.00467 0.66795 0.71625 0.0
C319 C 0.00669 0.76803 0.73316 0.0
H320 H 0.97131 0.74043 0.83302 0.0
C321 C -0.00154 0.87426 0.85373 0.0
C322 C 0.01227 0.86287 0.88922 0.0
C323 C -0.00735 0.84876 0.82477 0.0
C324 C 0.98167 0.74856 0.80541 0.0
H325 H 0.97193 0.69549 0.61556 0.0
H326 H 0.97022 0.74119 0.66589 0.0
H327 H 0.96788 0.69571 0.78218 0.0
H328 H 0.02989 0.81542 0.92223 0.0
H329 H 0.02036 0.77111 0.87171 0.0
H330 H 0.0211 0.82067 0.75642 0.0
C331 C 0.98033 0.71359 0.67235 0.0
C332 C 0.97966 0.72288 0.7762 0.0
C333 C 0.98097 0.68732 0.64356 0.0
C334 C 0.01917 0.8252 0.89529 0.0
C335 C 0.01348 0.79971 0.86629 0.0
C336 C 0.00882 0.79369 0.76238 0.0
C337 C -0.00776 0.70423 0.70907 0.0
C338 C -0.00753 0.73217 0.73975 0.0
C339 C 0.00058 0.81118 0.83048 0.0
C340 C -0.00337 0.78424 0.799 0.0
H341 H 0.0149 0.61407 0.69427 0.0
H342 H 0.01446 0.65981 0.74405 0.0
H343 H 0.01733 0.77601 0.70559 0.0
H344 H -0.00744 0.903 0.84809 0.0
H345 H 0.98198 0.85858 0.79784 0.0
C346 C 0.34008 0.95824 0.70352 0.0
C347 C 0.35736 0.99208 0.69295 0.0
C348 C 0.31036 0.95664 0.73164 0.0
C349 C 0.23376 0.01451 0.77915 0.0
H350 H 0.2343 0.93809 0.8549 0.0
C351 C 0.10462 0.00395 0.88746 0.0
C352 C 0.11708 7e-05 0.92499 0.0
C353 C 0.13219 -0.00177 0.85813 0.0
C354 C 0.23376 0.95961 0.83395 0.0
H355 H 0.35793 0.05054 0.7048 0.0
H356 H 0.30609 0.04775 0.75356 0.0
H357 H 0.28715 0.9388 0.80656 0.0
H358 H 0.16767 0.98482 0.96097 0.0
H359 H 0.21571 0.97486 0.90983 0.0
H360 H 0.18113 0.03594 0.8069 0.0
C361 C 0.315 0.02253 0.73966 0.0
C362 C 0.26384 0.95985 0.80608 0.0
C363 C 0.34476 0.02412 0.7117 0.0
C364 C 0.15708 0.9882 0.9324 0.0
C365 C 0.18463 0.98235 0.90303 0.0
C366 C 0.20366 0.0142 0.80686 0.0
C367 C 0.29713 0.98884 0.74973 0.0
C368 C 0.26443 0.98756 0.77861 0.0
C369 C 0.17284 0.98835 0.8656 0.0
C370 C 0.20345 0.98694 0.8348 0.0
H371 H 0.34862 0.93309 0.68933 0.0
H372 H 0.29695 0.9303 0.73849 0.0
H373 H 0.23299 0.03596 0.75812 0.0
H374 H 0.07396 0.01277 0.8807 0.0
H375 H 0.1219 0.00238 0.82957 0.0
C376 C 0.97011 0.30696 0.64161 0.0
C377 C -0.01325 0.34192 0.64852 0.0
C378 C 0.96751 0.28084 0.67039 0.0
C379 C 0.96581 0.27281 0.77404 0.0
H380 H -0.01199 0.16998 0.75446 0.0
C381 C 0.96456 0.16441 0.893 0.0
C382 C 0.94552 0.13071 0.88485 0.0
C383 C 0.97284 0.18973 0.86436 0.0
C384 C 0.98135 0.19854 0.76038 0.0
H385 H 0.01323 0.37684 0.69148 0.0
H386 H 0.00943 0.33124 0.74122 0.0
H387 H -0.00458 0.2148 0.70409 0.0
H388 H 0.92124 0.09694 0.83991 0.0
H389 H 0.93521 0.14099 0.79034 0.0
H390 H 0.95129 0.25659 0.83016 0.0
C391 C -0.00189 0.32401 0.71365 0.0
C392 C -0.01442 0.22426 0.73143 0.0
C393 C 0.00076 0.35004 0.68492 0.0
C394 C 0.93592 0.1226 0.84729 0.0
C395 C 0.94419 0.14784 0.81872 0.0
C396 C 0.96152 0.24711 0.80296 0.0
C397 C 0.98131 0.2891 0.70684 0.0
C398 C 0.97764 0.26171 0.73782 0.0
C399 C 0.96236 0.18194 0.82687 0.0
C400 C 0.96897 0.20957 0.79649 0.0
H401 H 0.95926 0.29968 0.61389 0.0
H402 H 0.95403 0.25436 0.6642 0.0
H403 H 0.95887 0.30133 0.77989 0.0
H404 H 0.97256 0.17151 0.92158 0.0
H405 H -0.01258 0.21546 0.87164 0.0
C406 C 0.60926 0.01011 0.72593 0.0
C407 C 0.61918 -0.00195 0.68958 0.0
C408 C 0.63924 0.01208 0.75387 0.0
C409 C 0.74067 0.97446 0.77815 0.0
H410 H 0.74337 0.05401 0.85052 0.0
C411 C 0.87012 0.98482 0.88614 0.0
C412 C 0.85833 0.99165 0.92341 0.0
C413 C 0.84259 0.98993 0.85666 0.0
C414 C 0.74288 0.03149 0.83066 0.0
H415 H 0.66881 0.98018 0.65374 0.0
H416 H 0.72081 0.98357 0.70222 0.0
H417 H 0.69152 0.05381 0.80127 0.0
H418 H 0.80912 0.01162 0.9586 0.0
H419 H 0.76106 0.02033 0.90721 0.0
H420 H 0.79159 0.95188 0.80756 0.0
C421 C 0.68976 0.99071 0.70948 0.0
C422 C 0.7131 0.03133 0.80247 0.0
C423 C 0.65988 0.98872 0.68166 0.0
C424 C 0.81915 0.00584 0.93026 0.0
C425 C 0.7916 0.011 0.90073 0.0
C426 C 0.77037 0.97463 0.80623 0.0
C427 C 0.67982 0.00211 0.74604 0.0
C428 C 0.7116 0.00275 0.77591 0.0
C429 C 0.8026 0.00207 0.86368 0.0
C430 C 0.77186 0.00309 0.83291 0.0
H431 H 0.57817 0.01728 0.73303 0.0
H432 H 0.63043 0.02061 0.78182 0.0
H433 H 0.73999 0.95165 0.75864 0.0
H434 H 0.90017 0.97417 0.87978 0.0
H435 H 0.85238 0.98357 0.82838 0.0
C436 C 0.36421 0.30616 0.00757 0.0
C437 C 0.37002 0.32823 0.03944 0.0
C438 C 0.33162 0.28163 1.00598 0.0
C439 C 0.25029 0.23726 0.06129 0.0
H440 H 0.18585 0.25196 0.97116 0.0
C441 C 0.08976 0.18036 0.05301 0.0
C442 C 0.08266 0.1582 0.02142 0.0
C443 C 0.12242 0.20478 0.05343 0.0
C444 C 0.20361 0.24747 0.99636 0.0
H445 H 0.34873 0.33988 0.09578 0.0
H446 H 0.29188 0.297 0.09306 0.0
H447 H 0.25264 0.28094 0.97665 0.0
H448 H 0.10094 0.14722 0.96399 0.0
H449 H 0.15821 0.18964 0.96488 0.0
H450 H 0.20136 0.20379 0.08102 0.0
C451 C 0.31244 0.29853 0.06935 0.0
C452 C 0.24194 0.26375 0.9994 0.0
C453 C 0.34503 0.32303 0.07094 0.0
C454 C 0.10581 0.16385 0.9888 0.0
C455 C 0.13869 0.18814 0.98932 0.0
C456 C 0.21202 0.22095 0.05823 0.0
C457 C 0.30443 0.27886 0.03624 0.0
C458 C 0.26553 0.25892 0.03196 0.0
C459 C 0.14852 0.20728 0.02234 0.0
C460 C 0.1882 0.22612 0.02585 0.0
H461 H 0.38361 0.30925 0.98319 0.0
H462 H 0.3266 0.26609 0.98047 0.0
H463 H 0.268 0.23288 0.08655 0.0
H464 H 0.07186 0.17702 0.07832 0.0
H465 H 0.12866 0.2201 0.07885 0.0
C466 C 0.34247 0.67087 0.02899 0.0
C467 C 0.38478 0.66719 0.02495 0.0
C468 C 0.32427 0.70536 0.02612 0.0
C469 C 0.34037 0.80286 0.03808 0.0
H470 H 0.24638 0.81086 0.97262 0.0
C471 C 0.20436 0.89967 0.05787 0.0
C472 C 0.18196 0.90987 0.02591 0.0
C473 C 0.24046 0.87968 0.05407 0.0
C474 C 0.27311 0.80947 0.99042 0.0
H475 H 0.44152 0.69641 0.01595 0.0
H476 H 0.40948 0.75717 0.01156 0.0
H477 H 0.28554 0.75419 0.97366 0.0
H478 H 0.1831 0.91238 0.96505 0.0
H479 H 0.24613 0.87779 0.95857 0.0
H480 H 0.3265 0.85773 0.0562 0.0
C481 C 0.39056 0.73327 0.01653 0.0
C482 C 0.29515 0.77684 0.99132 0.0
C483 C 0.40874 0.69864 0.01882 0.0
C484 C 0.19914 0.90418 0.99025 0.0
C485 C 0.23525 0.88435 0.98648 0.0
C486 C 0.3179 0.83554 0.03754 0.0
C487 C 0.34814 0.73678 0.01969 0.0
C488 C 0.32827 0.77292 0.01581 0.0
C489 C 0.25469 0.86982 0.01827 0.0
C490 C 0.28351 0.8388 0.01426 0.0
H491 H 0.32341 0.64699 0.0336 0.0
H492 H 0.29148 0.70752 0.02902 0.0
H493 H 0.36591 0.80035 0.05718 0.0
H494 H 0.19226 0.90411 0.08578 0.0
H495 H 0.25488 0.86894 0.0791 0.0
C496 C 0.57096 0.29175 0.05762 0.0
C497 C 0.57757 0.3153 0.02702 0.0
C498 C 0.58574 0.2558 0.05698 0.0
C499 C 0.62891 0.18366 0.99503 0.0
H500 H 0.69366 0.15977 0.08259 0.0
C501 C 0.77402 0.09858 0.99001 0.0
C502 C 0.78899 0.08243 0.02306 0.0
C503 C 0.73602 0.11573 0.98976 0.0
C504 C 0.67481 0.16515 0.05827 0.0
H505 H 0.60397 0.31955 0.97146 0.0
H506 H 0.63033 0.25691 0.97053 0.0
H507 H 0.64992 0.2132 0.08378 0.0
H508 H 0.77339 0.06662 0.07996 0.0
H509 H 0.70652 0.09572 0.07917 0.0
H510 H 0.65527 0.13625 0.969 0.0
C511 C 0.61306 0.26597 0.99472 0.0
C512 C 0.64979 0.19605 0.05894 0.0
C513 C 0.59822 0.30191 0.99533 0.0
C514 C 0.76313 0.0797 0.05434 0.0
C515 C 0.72486 0.09648 0.05393 0.0
C516 C 0.65382 0.15251 0.99442 0.0
C517 C 0.60746 0.24272 0.02575 0.0
C518 C 0.62777 0.2064 0.02689 0.0
C519 C 0.71202 0.11666 0.02242 0.0
C520 C 0.67831 0.14374 0.02556 0.0
H521 H 0.55438 0.30114 0.08208 0.0
H522 H 0.58063 0.23836 0.08114 0.0
H523 H 0.61167 0.1907 0.97013 0.0
H524 H 0.79287 0.10062 0.96516 0.0
H525 H 0.72726 0.13091 0.96493 0.0
C526 C 0.61054 0.67767 0.99026 0.0
C527 C 0.60209 0.66049 0.02469 0.0
C528 C 0.64144 0.70388 0.98777 0.0
C529 C 0.71168 0.76166 0.04356 0.0
H530 H 0.78974 0.73758 0.96547 0.0
C531 C 0.87339 0.81524 0.05205 0.0
C532 C 0.8864 0.83475 0.02026 0.0
C533 C 0.83977 0.79203 0.04985 0.0
C534 C 0.76806 0.74473 0.9872 0.0
H535 H 0.61702 0.65924 0.08395 0.0
H536 H 0.67067 0.70499 0.07966 0.0
H537 H 0.72349 0.70692 0.96656 0.0
H538 H 0.87764 0.84184 0.9603 0.0
H539 H 0.81882 0.80111 0.95657 0.0
H540 H 0.75649 0.79893 0.06462 0.0
C541 C 0.65346 0.69838 0.05461 0.0
C542 C 0.73008 0.7275 0.98767 0.0
C543 C 0.62267 0.67216 0.05709 0.0
C544 C 0.86811 0.82739 0.98537 0.0
C545 C 0.83438 0.80414 0.9832 0.0
C546 C 0.74963 0.77877 0.04315 0.0
C547 C 0.6642 0.71337 0.01969 0.0
C548 C 0.70183 0.73537 0.01625 0.0
C549 C 0.81871 0.78788 0.01584 0.0
C550 C 0.77843 0.76993 0.0154 0.0
H551 H 0.59446 0.66968 0.96499 0.0
H552 H 0.64862 0.71563 0.96065 0.0
H553 H 0.69027 0.76858 0.06559 0.0
H554 H 0.88737 0.81981 0.0792 0.0
H555 H 0.82888 0.77888 0.0752 0.0
loop_
_geom_bond_atom_site_label_1
_geom_bond_atom_site_label_2
_geom_bond_distance
_geom_bond_site_symmetry_2
_ccdc_geom_bond_type
H0 C19 0.949 . S
H1 C20 0.950 . S
H2 C22 0.950 . S
H3 C23 0.950 . S
H4 C25 0.950 . S
H5 C28 0.950 . S
H6 C29 0.950 . S
H7 C31 0.951 . S
H8 C32 0.949 . S
H9 C34 0.949 . S
H10 C35 0.950 . S
H11 C37 0.950 . S
H12 C38 0.950 . S
H13 C40 0.950 . S
H14 C43 0.950 . S
H15 C44 0.950 . S
H16 C46 0.951 . S
H17 C47 0.949 . S
C18 C19 1.376 . S
C18 C23 1.386 1_455 S
C18 C24 1.483 . S
C19 H0 0.949 . S
C19 C18 1.376 . S
C19 C20 1.397 . S
C20 H1 0.950 . S
C20 C19 1.397 . S
C20 C21 1.391 . S
C21 C20 1.391 . S
C21 C22 1.405 1_455 S
C22 H2 0.950 . S
C22 C21 1.405 1_655 S
C22 C23 1.367 . S
C23 H3 0.950 . S
C23 C18 1.386 1_655 S
C23 C22 1.367 . S
C24 C18 1.483 . S
C24 C25 1.382 . S
C24 C26 1.403 1_455 S
C25 H4 0.950 . S
C25 C24 1.382 . S
C25 C41 1.411 . S
C26 C24 1.403 1_655 S
C26 C27 1.489 . S
C26 C40 1.411 . S
C27 C26 1.489 . S
C27 C28 1.383 1_655 S
C27 C32 1.382 . S
C28 H5 0.950 . S
C28 C27 1.383 1_455 S
C28 C29 1.395 . S
C29 H6 0.950 . S
C29 C28 1.395 . S
C29 C30 1.288 1_455 S
C30 C29 1.288 1_655 S
C30 C31 1.392 . S
C31 H7 0.951 . S
C31 C30 1.392 . S
C31 C32 1.392 . S
C32 H8 0.949 . S
C32 C27 1.382 . S
C32 C31 1.392 . S
C33 C34 1.376 . S
C33 C38 1.386 1_655 S
C33 C39 1.483 . S
C34 H9 0.949 . S
C34 C33 1.376 . S
C34 C35 1.397 . S
C35 H10 0.950 . S
C35 C34 1.397 . S
C35 C36 1.391 . S
C36 C35 1.391 . S
C36 C37 1.405 1_655 S
C37 H11 0.950 . S
C37 C36 1.405 1_455 S
C37 C38 1.367 . S
C38 H12 0.950 . S
C38 C33 1.386 1_455 S
C38 C37 1.367 . S
C39 C33 1.483 . S
C39 C40 1.382 . S
C39 C41 1.403 1_655 S
C40 H13 0.950 . S
C40 C26 1.411 . S
C40 C39 1.382 . S
C41 C25 1.411 . S
C41 C39 1.403 1_455 S
C41 C42 1.489 . S
C42 C41 1.489 . S
C42 C43 1.383 1_455 S
C42 C47 1.382 . S
C43 H14 0.950 . S
C43 C42 1.383 1_655 S
C43 C44 1.395 . S
C44 H15 0.950 . S
C44 C43 1.395 . S
C44 C45 1.288 1_655 S
C45 C44 1.288 1_455 S
C45 C46 1.392 . S
C46 H16 0.951 . S
C46 C45 1.392 . S
C46 C47 1.392 . S
C47 H17 0.949 . S
C47 C42 1.382 . S
C47 C46 1.392 . S
H48 C67 0.949 . S
H49 C68 0.950 . S
H50 C70 0.950 . S
H51 C71 0.950 . S
H52 C73 0.950 . S
H53 C76 0.950 . S
H54 C77 0.950 . S
H55 C79 0.951 . S
H56 C80 0.949 . S
H57 C82 0.949 . S
H58 C83 0.950 . S
H59 C85 0.950 . S
H60 C86 0.950 . S
H61 C88 0.950 . S
H62 C91 0.950 . S
H63 C92 0.950 . S
H64 C94 0.951 . S
H65 C95 0.949 . S
C66 C67 1.376 . S
C66 C71 1.386 1_545 S
C66 C72 1.483 . S
C67 H48 0.949 . S
C67 C66 1.376 . S
C67 C68 1.397 . S
C68 H49 0.950 . S
C68 C67 1.397 . S
C68 C69 1.391 . S
C69 C68 1.391 . S
C69 C70 1.405 1_545 S
C70 H50 0.950 . S
C70 C69 1.405 1_565 S
C70 C71 1.367 . S
C71 H51 0.950 . S
C71 C66 1.386 1_565 S
C71 C70 1.367 . S
C72 C66 1.483 . S
C72 C73 1.382 . S
C72 C74 1.403 1_545 S
C73 H52 0.950 . S
C73 C72 1.382 . S
C73 C89 1.411 . S
C74 C72 1.403 1_565 S
C74 C75 1.489 . S
C74 C88 1.411 . S
C75 C74 1.489 . S
C75 C76 1.383 1_565 S
C75 C80 1.382 . S
C76 H53 0.950 . S
C76 C75 1.383 1_545 S
C76 C77 1.395 . S
C77 H54 0.950 . S
C77 C76 1.395 . S
C77 C78 1.288 1_545 S
C78 C77 1.288 1_565 S
C78 C79 1.392 . S
C79 H55 0.951 . S
C79 C78 1.392 . S
C79 C80 1.392 . S
C80 H56 0.949 . S
C80 C75 1.382 . S
C80 C79 1.392 . S
C81 C82 1.376 . S
C81 C86 1.386 1_565 S
C81 C87 1.483 . S
C82 H57 0.949 . S
C82 C81 1.376 . S
C82 C83 1.397 . S
C83 H58 0.950 . S
C83 C82 1.397 . S
C83 C84 1.391 . S
C84 C83 1.391 . S
C84 C85 1.405 1_565 S
C85 H59 0.950 . S
C85 C84 1.405 1_545 S
C85 C86 1.367 . S
C86 H60 0.950 . S
C86 C81 1.386 1_545 S
C86 C85 1.367 . S
C87 C81 1.483 . S
C87 C88 1.382 . S
C87 C89 1.403 1_565 S
C88 H61 0.950 . S
C88 C74 1.411 . S
C88 C87 1.382 . S
C89 C73 1.411 . S
C89 C87 1.403 1_545 S
C89 C90 1.489 . S
C90 C89 1.489 . S
C90 C91 1.383 1_545 S
C90 C95 1.382 . S
C91 H62 0.950 . S
C91 C90 1.383 1_565 S
C91 C92 1.395 . S
C92 H63 0.950 . S
C92 C91 1.395 . S
C92 C93 1.288 1_565 S
C93 C92 1.288 1_545 S
C93 C94 1.392 . S
C94 H64 0.951 . S
C94 C93 1.392 . S
C94 C95 1.392 . S
C95 H65 0.949 . S
C95 C90 1.382 . S
C95 C94 1.392 . S
H96 C115 0.949 . S
H97 C116 0.950 . S
H98 C118 0.950 . S
H99 C119 0.950 . S
H100 C121 0.950 . S
H101 C124 0.950 1_556 S
H102 C125 0.950 1_556 S
H103 C127 0.951 . S
H104 C128 0.949 . S
H105 C130 0.949 . S
H106 C131 0.950 . S
H107 C133 0.950 . S
H108 C134 0.950 . S
H109 C136 0.950 . S
H110 C139 0.950 . S
H111 C140 0.950 . S
H112 C142 0.951 . S
H113 C143 0.949 . S
C114 C115 1.376 1_554 S
C114 C119 1.386 . S
C114 C120 1.483 . S
C115 H96 0.949 . S
C115 C114 1.376 1_556 S
C115 C116 1.397 . S
C116 H97 0.950 . S
C116 C115 1.397 . S
C116 C117 1.391 1_556 S
C117 C116 1.391 1_554 S
C117 C118 1.405 . S
C118 H98 0.950 . S
C118 C117 1.405 . S
C118 C119 1.367 . S
C119 H99 0.950 . S
C119 C114 1.386 . S
C119 C118 1.367 . S
C120 C114 1.483 . S
C120 C121 1.382 . S
C120 C122 1.403 . S
C121 H100 0.950 . S
C121 C120 1.382 . S
C121 C137 1.411 . S
C122 C120 1.403 . S
C122 C123 1.489 . S
C122 C136 1.411 . S
C123 C122 1.489 . S
C123 C124 1.383 . S
C123 C128 1.382 . S
C124 H101 0.950 1_554 S
C124 C123 1.383 . S
C124 C125 1.395 . S
C125 H102 0.950 1_554 S
C125 C124 1.395 . S
C125 C126 1.288 . S
C126 C125 1.288 . S
C126 C127 1.392 . S
C127 H103 0.951 . S
C127 C126 1.392 . S
C127 C128 1.392 . S
C128 H104 0.949 . S
C128 C123 1.382 . S
C128 C127 1.392 . S
C129 C130 1.376 . S
C129 C134 1.386 1_554 S
C129 C135 1.483 . S
C130 H105 0.949 . S
C130 C129 1.376 . S
C130 C131 1.397 . S
C131 H106 0.950 . S
C131 C130 1.397 . S
C131 C132 1.391 . S
C132 C131 1.391 . S
C132 C133 1.405 1_554 S
C133 H107 0.950 . S
C133 C132 1.405 1_556 S
C133 C134 1.367 . S
C134 H108 0.950 . S
C134 C129 1.386 1_556 S
C134 C133 1.367 . S
C135 C129 1.483 . S
C135 C136 1.382 . S
C135 C137 1.403 . S
C136 H109 0.950 . S
C136 C122 1.411 . S
C136 C135 1.382 . S
C137 C121 1.411 . S
C137 C135 1.403 . S
C137 C138 1.489 . S
C138 C137 1.489 . S
C138 C139 1.383 . S
C138 C143 1.382 1_554 S
C139 H110 0.950 . S
C139 C138 1.383 . S
C139 C140 1.395 . S
C140 H111 0.950 . S
C140 C139 1.395 . S
C140 C141 1.288 . S
C141 C140 1.288 . S
C141 C142 1.392 1_554 S
C142 H112 0.951 . S
C142 C141 1.392 1_556 S
C142 C143 1.392 . S
C143 H113 0.949 . S
C143 C138 1.382 1_556 S
C143 C142 1.392 . S
Zn144 O146 1.933 1_556 S
Zn144 O164 1.985 . S
Zn144 O175 1.955 . S
Zn145 O146 1.911 . S
Zn145 O165 1.970 . S
Zn145 O181 1.945 . S
Zn145 O188 1.981 . S
O146 Zn144 1.933 1_554 S
O146 Zn145 1.911 . S
O146 H147 0.841 . S
H147 O146 0.841 . S
C148 O149 1.246 . S
C148 O177 1.276 1_455 S
O149 C148 1.246 . S
Zn150 O152 1.911 . S
Zn150 O167 1.970 . S
Zn150 O184 1.945 . S
Zn150 O191 1.981 . S
Zn151 O152 1.933 1_556 S
Zn151 O166 1.985 . S
Zn151 O173 1.955 . S
O152 Zn150 1.911 . S
O152 Zn151 1.933 1_554 S
O152 H153 0.841 . S
H153 O152 0.841 . S
Zn154 O155 1.933 1_556 S
Zn154 O168 1.985 . S
Zn154 O177 1.955 . S
O155 Zn154 1.933 1_554 S
O155 Zn156 1.911 . S
O155 H157 0.841 . S
Zn156 O155 1.911 . S
Zn156 O169 1.970 . S
Zn156 O185 1.981 . S
Zn156 O187 1.945 . S
H157 O155 0.841 . S
Zn158 O159 1.933 1_556 S
Zn158 O171 1.985 . S
Zn158 O179 1.955 . S
O159 Zn158 1.933 1_554 S
O159 H160 0.841 . S
O159 Zn161 1.911 . S
H160 O159 0.841 . S
Zn161 O159 1.911 . S
Zn161 O172 1.970 . S
Zn161 O182 1.981 . S
Zn161 O190 1.945 . S
C162 O163 1.246 . S
C162 O179 1.276 1_655 S
O163 C162 1.246 . S
O164 Zn144 1.985 . S
O164 C174 1.245 1_556 S
O165 Zn145 1.970 . S
O165 C174 1.263 . S
O166 Zn151 1.985 . S
O166 C178 1.245 1_556 S
O167 Zn150 1.970 . S
O167 C178 1.263 . S
O168 Zn154 1.985 . S
O168 C183 1.245 1_556 S
O169 Zn156 1.970 . S
O169 C183 1.263 . S
C170 O181 1.264 . S
C170 O182 1.244 1_545 S
O171 Zn158 1.985 . S
O171 C189 1.245 1_556 S
O172 Zn161 1.970 . S
O172 C189 1.263 . S
O173 Zn151 1.955 . S
O173 C192 1.276 1_565 S
C174 O164 1.245 1_554 S
C174 O165 1.263 . S
O175 Zn144 1.955 . S
O175 C194 1.276 1_545 S
C176 O184 1.260 1_545 S
C176 O185 1.246 . S
O177 C148 1.276 1_655 S
O177 Zn154 1.955 . S
C178 O166 1.245 1_554 S
C178 O167 1.263 . S
O179 Zn158 1.955 . S
O179 C162 1.276 1_455 S
C180 O187 1.261 1_455 S
C180 O188 1.245 . S
O181 Zn145 1.945 . S
O181 C170 1.264 . S
O182 Zn161 1.981 . S
O182 C170 1.244 1_565 S
C183 O168 1.245 1_554 S
C183 O169 1.263 . S
O184 Zn150 1.945 . S
O184 C176 1.260 1_565 S
O185 Zn156 1.981 . S
O185 C176 1.246 . S
C186 O190 1.262 . S
C186 O191 1.245 1_455 S
O187 Zn156 1.945 . S
O187 C180 1.261 1_655 S
O188 Zn145 1.981 . S
O188 C180 1.245 . S
C189 O171 1.245 1_554 S
C189 O172 1.263 . S
O190 Zn161 1.945 . S
O190 C186 1.262 . S
O191 Zn150 1.981 . S
O191 C186 1.245 1_655 S
C192 O173 1.276 1_545 S
C192 O193 1.246 . S
O193 C192 1.246 . S
C194 O175 1.276 1_565 S
C194 O195 1.246 . S
O195 C194 1.246 . S
C196 C197 1.349 . S
C196 C198 1.327 . S
C196 H221 0.950 . S
C197 C196 1.349 . S
C197 C213 1.349 1_455 S
C198 C196 1.327 . S
C198 C217 1.429 . S
C198 H222 0.950 . S
C199 C216 1.574 . S
C199 C218 1.368 1_655 S
C199 H223 0.949 . S
H200 C204 0.949 . S
C201 C202 1.349 1_655 S
C201 C203 1.327 . S
C201 H224 0.950 . S
C202 C201 1.349 1_455 S
C202 C214 1.349 . S
C203 C201 1.327 . S
C203 C219 1.429 1_655 S
C203 H225 0.950 . S
C204 H200 0.949 . S
C204 C212 1.574 . S
C204 C220 1.368 . S
H205 C213 0.950 . S
H206 C211 0.950 . S
H207 C212 0.949 . S
H208 C214 0.950 . S
H209 C215 0.950 . S
H210 C216 0.949 . S
C211 H206 0.950 . S
C211 C213 1.327 . S
C211 C217 1.429 1_655 S
C212 C204 1.574 . S
C212 H207 0.949 . S
C212 C218 1.368 . S
C213 C197 1.349 1_655 S
C213 H205 0.950 . S
C213 C211 1.327 . S
C214 C202 1.349 . S
C214 H208 0.950 . S
C214 C215 1.327 . S
C215 H209 0.950 . S
C215 C214 1.327 . S
C215 C219 1.429 . S
C216 C199 1.574 . S
C216 H210 0.949 . S
C216 C220 1.368 1_655 S
C217 C198 1.429 . S
C217 C211 1.429 1_455 S
C217 C218 1.523 . S
C218 C199 1.368 1_455 S
C218 C212 1.368 . S
C218 C217 1.523 . S
C219 C203 1.429 1_455 S
C219 C215 1.429 . S
C219 C220 1.523 . S
C220 C204 1.368 . S
C220 C216 1.368 1_455 S
C220 C219 1.523 . S
H221 C196 0.950 . S
H222 C198 0.950 . S
H223 C199 0.949 . S
H224 C201 0.950 . S
H225 C203 0.950 . S
C226 C227 1.361 . S
C226 C228 1.327 . S
C226 H251 0.950 . S
C227 C226 1.361 . S
C227 C243 1.338 1_545 S
C228 C226 1.327 . S
C228 C247 1.429 . S
C228 H252 0.950 . S
C229 C246 1.574 . S
C229 C248 1.368 1_565 S
C229 H253 0.949 . S
H230 C234 0.949 . S
C231 C232 1.349 1_565 S
C231 C233 1.327 . S
C231 H254 0.950 . S
C232 C231 1.349 1_545 S
C232 C244 1.349 . S
C233 C231 1.327 . S
C233 C249 1.429 1_565 S
C233 H255 0.950 . S
C234 H230 0.949 . S
C234 C242 1.574 . S
C234 C250 1.368 . S
H235 C243 0.950 . S
H236 C241 0.950 . S
H237 C242 0.949 . S
H238 C244 0.950 . S
H239 C245 0.950 . S
H240 C246 0.949 . S
C241 H236 0.950 . S
C241 C243 1.327 . S
C241 C247 1.429 1_565 S
C242 C234 1.574 . S
C242 H237 0.949 . S
C242 C248 1.368 . S
C243 C227 1.338 1_565 S
C243 H235 0.950 . S
C243 C241 1.327 . S
C244 C232 1.349 . S
C244 H238 0.950 . S
C244 C245 1.327 . S
C245 H239 0.950 . S
C245 C244 1.327 . S
C245 C249 1.429 . S
C246 C229 1.574 . S
C246 H240 0.949 . S
C246 C250 1.368 1_565 S
C247 C228 1.429 . S
C247 C241 1.429 1_545 S
C247 C248 1.523 . S
C248 C229 1.368 1_545 S
C248 C242 1.368 . S
C248 C247 1.523 . S
C249 C233 1.429 1_545 S
C249 C245 1.429 . S
C249 C250 1.523 . S
C250 C234 1.368 . S
C250 C246 1.368 1_545 S
C250 C249 1.523 . S
H251 C226 0.950 . S
H252 C228 0.950 . S
H253 C229 0.949 . S
H254 C231 0.950 . S
H255 C233 0.950 . S
C256 C257 1.331 1_455 S
C256 C258 1.327 . S
C256 H281 0.950 . S
C257 C256 1.331 1_655 S
C257 C273 1.368 . S
C258 C256 1.327 . S
C258 C277 1.429 1_455 S
C258 H282 0.950 . S
C259 C276 1.574 . S
C259 C278 1.368 . S
C259 H283 0.949 . S
H260 C264 0.949 . S
C261 C262 1.349 . S
C261 C263 1.327 . S
C261 H284 0.950 . S
C262 C261 1.349 . S
C262 C274 1.349 1_655 S
C263 C261 1.327 . S
C263 C279 1.429 . S
C263 H285 0.950 . S
C264 H260 0.949 . S
C264 C272 1.574 . S
C264 C280 1.368 1_455 S
H265 C273 0.950 . S
H266 C271 0.950 . S
H267 C272 0.949 . S
H268 C274 0.950 . S
H269 C275 0.950 . S
H270 C276 0.949 . S
C271 H266 0.950 . S
C271 C273 1.327 . S
C271 C277 1.429 . S
C272 C264 1.574 . S
C272 H267 0.949 . S
C272 C278 1.368 1_455 S
C273 C257 1.368 . S
C273 H265 0.950 . S
C273 C271 1.327 . S
C274 C262 1.349 1_455 S
C274 H268 0.950 . S
C274 C275 1.327 . S
C275 H269 0.950 . S
C275 C274 1.327 . S
C275 C279 1.429 1_455 S
C276 C259 1.574 . S
C276 H270 0.949 . S
C276 C280 1.368 . S
C277 C258 1.429 1_655 S
C277 C271 1.429 . S
C277 C278 1.523 . S
C278 C259 1.368 . S
C278 C272 1.368 1_655 S
C278 C277 1.523 . S
C279 C263 1.429 . S
C279 C275 1.429 1_655 S
C279 C280 1.523 . S
C280 C264 1.368 1_655 S
C280 C276 1.368 . S
C280 C279 1.523 . S
H281 C256 0.950 . S
H282 C258 0.950 . S
H283 C259 0.949 . S
H284 C261 0.950 . S
H285 C263 0.950 . S
C286 C287 1.344 1_545 S
C286 C288 1.327 . S
C286 H311 0.950 . S
C287 C286 1.344 1_565 S
C287 C303 1.354 . S
C288 C286 1.327 . S
C288 C307 1.429 1_545 S
C288 H312 0.950 . S
C289 C306 1.574 . S
C289 C308 1.368 . S
C289 H313 0.949 . S
H290 C294 0.949 . S
C291 C292 1.349 . S
C291 C293 1.327 . S
C291 H314 0.950 . S
C292 C291 1.349 . S
C292 C304 1.349 1_565 S
C293 C291 1.327 . S
C293 C309 1.429 . S
C293 H315 0.950 . S
C294 H290 0.949 . S
C294 C302 1.574 . S
C294 C310 1.368 1_545 S
H295 C303 0.950 . S
H296 C301 0.950 . S
H297 C302 0.949 . S
H298 C304 0.950 . S
H299 C305 0.950 . S
H300 C306 0.949 . S
C301 H296 0.950 . S
C301 C303 1.327 . S
C301 C307 1.429 . S
C302 C294 1.574 . S
C302 H297 0.949 . S
C302 C308 1.368 1_545 S
C303 C287 1.354 . S
C303 H295 0.950 . S
C303 C301 1.327 . S
C304 C292 1.349 1_545 S
C304 H298 0.950 . S
C304 C305 1.327 . S
C305 H299 0.950 . S
C305 C304 1.327 . S
C305 C309 1.429 1_545 S
C306 C289 1.574 . S
C306 H300 0.949 . S
C306 C310 1.368 . S
C307 C288 1.429 1_565 S
C307 C301 1.429 . S
C307 C308 1.523 . S
C308 C289 1.368 . S
C308 C302 1.368 1_565 S
C308 C307 1.523 . S
C309 C293 1.429 . S
C309 C305 1.429 1_565 S
C309 C310 1.523 . S
C310 C294 1.368 1_565 S
C310 C306 1.368 . S
C310 C309 1.523 . S
H311 C286 0.950 . S
H312 C288 0.950 . S
H313 C289 0.949 . S
H314 C291 0.950 . S
H315 C293 0.950 . S
C316 C317 1.349 . S
C316 C318 1.327 . S
C316 H341 0.950 . S
C317 C316 1.349 . S
C317 C333 1.349 . S
C318 C316 1.327 . S
C318 C337 1.429 . S
C318 H342 0.950 . S
C319 C336 1.574 . S
C319 C338 1.368 . S
C319 H343 0.949 . S
H320 C324 0.949 . S
C321 C322 1.349 . S
C321 C323 1.327 . S
C321 H344 0.950 . S
C322 C321 1.349 . S
C322 C334 1.349 . S
C323 C321 1.327 . S
C323 C339 1.429 . S
C323 H345 0.950 . S
C324 H320 0.949 . S
C324 C332 1.574 . S
C324 C340 1.368 . S
H325 C333 0.949 1_455 S
H326 C331 0.950 . S
H327 C332 0.949 . S
H328 C334 0.950 . S
H329 C335 0.950 . S
H330 C336 0.949 . S
C331 H326 0.950 . S
C331 C333 1.328 . S
C331 C337 1.429 . S
C332 C324 1.574 . S
C332 H327 0.949 . S
C332 C338 1.368 . S
C333 C317 1.349 . S
C333 H325 0.949 1_655 S
C333 C331 1.328 . S
C334 C322 1.349 . S
C334 H328 0.950 . S
C334 C335 1.327 . S
C335 H329 0.950 . S
C335 C334 1.327 . S
C335 C339 1.429 . S
C336 C319 1.574 . S
C336 H330 0.949 . S
C336 C340 1.368 . S
C337 C318 1.429 . S
C337 C331 1.429 . S
C337 C338 1.523 . S
C338 C319 1.368 . S
C338 C332 1.368 . S
C338 C337 1.523 . S
C339 C323 1.429 . S
C339 C335 1.429 . S
C339 C340 1.523 . S
C340 C324 1.368 . S
C340 C336 1.368 . S
C340 C339 1.523 . S
H341 C316 0.950 . S
H342 C318 0.950 . S
H343 C319 0.949 . S
H344 C321 0.950 . S
H345 C323 0.950 . S
C346 C347 1.363 . S
C346 C348 1.327 . S
C346 H371 0.950 . S
C347 C346 1.363 . S
C347 C363 1.335 1_565 S
C348 C346 1.327 . S
C348 C367 1.429 . S
C348 H372 0.950 . S
C349 C366 1.574 . S
C349 C368 1.368 1_545 S
C349 H373 0.949 . S
H350 C354 0.949 . S
C351 C352 1.349 1_545 S
C351 C353 1.327 . S
C351 H374 0.950 . S
C352 C351 1.349 1_565 S
C352 C364 1.349 . S
C353 C351 1.327 . S
C353 C369 1.429 1_545 S
C353 H375 0.950 . S
C354 H350 0.949 . S
C354 C362 1.574 . S
C354 C370 1.368 . S
H355 C363 0.950 . S
H356 C361 0.950 . S
H357 C362 0.949 . S
H358 C364 0.950 . S
H359 C365 0.950 . S
H360 C366 0.949 . S
C361 H356 0.950 . S
C361 C363 1.327 . S
C361 C367 1.429 1_545 S
C362 C354 1.574 . S
C362 H357 0.949 . S
C362 C368 1.368 . S
C363 C347 1.335 1_545 S
C363 H355 0.950 . S
C363 C361 1.327 . S
C364 C352 1.349 . S
C364 H358 0.950 . S
C364 C365 1.327 . S
C365 H359 0.950 . S
C365 C364 1.327 . S
C365 C369 1.429 . S
C366 C349 1.574 . S
C366 H360 0.949 . S
C366 C370 1.368 1_545 S
C367 C348 1.429 . S
C367 C361 1.429 1_565 S
C367 C368 1.523 . S
C368 C349 1.368 1_565 S
C368 C362 1.368 . S
C368 C367 1.523 . S
C369 C353 1.429 1_565 S
C369 C365 1.429 . S
C369 C370 1.523 . S
C370 C354 1.368 . S
C370 C366 1.368 1_565 S
C370 C369 1.523 . S
H371 C346 0.950 . S
H372 C348 0.950 . S
H373 C349 0.949 . S
H374 C351 0.950 . S
H375 C353 0.950 . S
C376 C377 1.349 . S
C376 C378 1.327 . S
C376 H401 0.950 . S
C377 C376 1.349 . S
C377 C393 1.349 1_455 S
C378 C376 1.327 . S
C378 C397 1.429 . S
C378 H402 0.950 . S
C379 C396 1.574 . S
C379 C398 1.368 . S
C379 H403 0.949 1_455 S
H380 C384 0.949 . S
C381 C382 1.349 . S
C381 C383 1.327 . S
C381 H404 0.950 . S
C382 C381 1.349 . S
C382 C394 1.349 . S
C383 C381 1.327 . S
C383 C399 1.429 . S
C383 H405 0.950 . S
C384 H380 0.949 . S
C384 C392 1.574 . S
C384 C400 1.368 . S
H385 C393 0.950 . S
H386 C391 0.950 . S
H387 C392 0.949 . S
H388 C394 0.950 . S
H389 C395 0.950 . S
H390 C396 0.950 . S
C391 H386 0.950 . S
C391 C393 1.327 . S
C391 C397 1.429 1_655 S
C392 C384 1.574 . S
C392 H387 0.949 . S
C392 C398 1.368 . S
C393 C377 1.349 1_655 S
C393 H385 0.950 . S
C393 C391 1.327 . S
C394 C382 1.349 . S
C394 H388 0.950 . S
C394 C395 1.327 . S
C395 H389 0.950 . S
C395 C394 1.327 . S
C395 C399 1.429 . S
C396 C379 1.574 . S
C396 H390 0.950 . S
C396 C400 1.368 . S
C397 C378 1.429 . S
C397 C391 1.429 1_455 S
C397 C398 1.523 . S
C398 C379 1.368 . S
C398 C392 1.368 . S
C398 C397 1.523 . S
C399 C383 1.429 . S
C399 C395 1.429 . S
C399 C400 1.523 . S
C400 C384 1.368 . S
C400 C396 1.368 . S
C400 C399 1.523 . S
H401 C376 0.950 . S
H402 C378 0.950 . S
H403 C379 0.949 1_655 S
H404 C381 0.950 . S
H405 C383 0.950 . S
C406 C407 1.371 . S
C406 C408 1.327 . S
C406 H431 0.950 . S
C407 C406 1.371 . S
C407 C423 1.328 1_545 S
C408 C406 1.327 . S
C408 C427 1.429 . S
C408 H432 0.950 . S
C409 C426 1.574 . S
C409 C428 1.368 1_565 S
C409 H433 0.949 . S
H410 C414 0.949 . S
C411 C412 1.349 1_565 S
C411 C413 1.327 . S
C411 H434 0.950 . S
C412 C411 1.349 1_545 S
C412 C424 1.349 . S
C413 C411 1.327 . S
C413 C429 1.429 1_565 S
C413 H435 0.950 . S
C414 H410 0.949 . S
C414 C422 1.574 . S
C414 C430 1.368 . S
H415 C423 0.950 . S
H416 C421 0.950 . S
H417 C422 0.949 . S
H418 C424 0.950 . S
H419 C425 0.950 . S
H420 C426 0.949 . S
C421 H416 0.950 . S
C421 C423 1.327 . S
C421 C427 1.429 1_565 S
C422 C414 1.574 . S
C422 H417 0.949 . S
C422 C428 1.368 . S
C423 C407 1.328 1_565 S
C423 H415 0.950 . S
C423 C421 1.327 . S
C424 C412 1.349 . S
C424 H418 0.950 . S
C424 C425 1.327 . S
C425 H419 0.950 . S
C425 C424 1.327 . S
C425 C429 1.429 . S
C426 C409 1.574 . S
C426 H420 0.949 . S
C426 C430 1.368 1_565 S
C427 C408 1.429 . S
C427 C421 1.429 1_545 S
C427 C428 1.523 . S
C428 C409 1.368 1_545 S
C428 C422 1.368 . S
C428 C427 1.523 . S
C429 C413 1.429 1_545 S
C429 C425 1.429 . S
C429 C430 1.523 . S
C430 C414 1.368 . S
C430 C426 1.368 1_545 S
C430 C429 1.523 . S
H431 C406 0.950 . S
H432 C408 0.950 . S
H433 C409 0.949 . S
H434 C411 0.950 . S
H435 C413 0.950 . S
C436 C437 1.349 1_556 S
C436 C438 1.327 . S
C436 H461 0.950 . S
C437 C436 1.349 1_554 S
C437 C453 1.349 . S
C438 C436 1.327 . S
C438 C457 1.429 1_556 S
C438 H462 0.950 . S
C439 C456 1.574 . S
C439 C458 1.368 . S
C439 H463 0.949 . S
H440 C444 0.949 . S
C441 C442 1.349 . S
C441 C443 1.327 . S
C441 H464 0.950 . S
C442 C441 1.349 . S
C442 C454 1.349 1_554 S
C443 C441 1.327 . S
C443 C459 1.429 . S
C443 H465 0.950 . S
C444 H440 0.949 . S
C444 C452 1.574 . S
C444 C460 1.368 1_556 S
H445 C453 0.950 . S
H446 C451 0.950 . S
H447 C452 0.949 . S
H448 C454 0.950 . S
H449 C455 0.950 . S
H450 C456 0.949 . S
C451 H446 0.950 . S
C451 C453 1.327 . S
C451 C457 1.429 . S
C452 C444 1.574 . S
C452 H447 0.949 . S
C452 C458 1.368 1_556 S
C453 C437 1.349 . S
C453 H445 0.950 . S
C453 C451 1.327 . S
C454 C442 1.349 1_556 S
C454 H448 0.950 . S
C454 C455 1.327 . S
C455 H449 0.950 . S
C455 C454 1.327 . S
C455 C459 1.429 1_556 S
C456 C439 1.574 . S
C456 H450 0.949 . S
C456 C460 1.368 . S
C457 C438 1.429 1_554 S
C457 C451 1.429 . S
C457 C458 1.523 . S
C458 C439 1.368 . S
C458 C452 1.368 1_554 S
C458 C457 1.523 . S
C459 C443 1.429 . S
C459 C455 1.429 1_554 S
C459 C460 1.523 . S
C460 C444 1.368 1_554 S
C460 C456 1.368 . S
C460 C459 1.523 . S
H461 C436 0.950 . S
H462 C438 0.950 . S
H463 C439 0.949 . S
H464 C441 0.950 . S
H465 C443 0.950 . S
C466 C467 1.349 1_556 S
C466 C468 1.327 . S
C466 H491 0.950 . S
C467 C466 1.349 1_554 S
C467 C483 1.349 . S
C468 C466 1.327 . S
C468 C487 1.429 1_556 S
C468 H492 0.950 . S
C469 C486 1.574 . S
C469 C488 1.368 . S
C469 H493 0.949 . S
H470 C474 0.949 . S
C471 C472 1.349 . S
C471 C473 1.327 . S
C471 H494 0.950 . S
C472 C471 1.349 . S
C472 C484 1.349 1_554 S
C473 C471 1.327 . S
C473 C489 1.429 . S
C473 H495 0.950 . S
C474 H470 0.949 . S
C474 C482 1.574 . S
C474 C490 1.368 1_556 S
H475 C483 0.950 . S
H476 C481 0.950 . S
H477 C482 0.949 . S
H478 C484 0.950 . S
H479 C485 0.950 . S
H480 C486 0.949 . S
C481 H476 0.950 . S
C481 C483 1.327 . S
C481 C487 1.429 . S
C482 C474 1.574 . S
C482 H477 0.949 . S
C482 C488 1.368 1_556 S
C483 C467 1.349 . S
C483 H475 0.950 . S
C483 C481 1.327 . S
C484 C472 1.349 1_556 S
C484 H478 0.950 . S
C484 C485 1.327 . S
C485 H479 0.950 . S
C485 C484 1.327 . S
C485 C489 1.429 1_556 S
C486 C469 1.574 . S
C486 H480 0.949 . S
C486 C490 1.368 . S
C487 C468 1.429 1_554 S
C487 C481 1.429 . S
C487 C488 1.523 . S
C488 C469 1.368 . S
C488 C482 1.368 1_554 S
C488 C487 1.523 . S
C489 C473 1.429 . S
C489 C485 1.429 1_554 S
C489 C490 1.523 . S
C490 C474 1.368 1_554 S
C490 C486 1.368 . S
C490 C489 1.523 . S
H491 C466 0.950 . S
H492 C468 0.950 . S
H493 C469 0.949 . S
H494 C471 0.950 . S
H495 C473 0.950 . S
C496 C497 1.349 . S
C496 C498 1.327 . S
C496 H521 0.950 . S
C497 C496 1.349 . S
C497 C513 1.349 1_554 S
C498 C496 1.327 . S
C498 C517 1.429 . S
C498 H522 0.950 . S
C499 C516 1.574 . S
C499 C518 1.368 1_556 S
C499 H523 0.949 . S
H500 C504 0.949 . S
C501 C502 1.349 1_556 S
C501 C503 1.327 . S
C501 H524 0.950 . S
C502 C501 1.349 1_554 S
C502 C514 1.349 . S
C503 C501 1.327 . S
C503 C519 1.429 1_556 S
C503 H525 0.950 . S
C504 H500 0.949 . S
C504 C512 1.574 . S
C504 C520 1.368 . S
H505 C513 0.950 . S
H506 C511 0.950 . S
H507 C512 0.949 . S
H508 C514 0.950 . S
H509 C515 0.950 . S
H510 C516 0.949 . S
C511 H506 0.950 . S
C511 C513 1.327 . S
C511 C517 1.429 1_556 S
C512 C504 1.574 . S
C512 H507 0.949 . S
C512 C518 1.368 . S
C513 C497 1.349 1_556 S
C513 H505 0.950 . S
C513 C511 1.327 . S
C514 C502 1.349 . S
C514 H508 0.950 . S
C514 C515 1.327 . S
C515 H509 0.950 . S
C515 C514 1.327 . S
C515 C519 1.429 . S
C516 C499 1.574 . S
C516 H510 0.949 . S
C516 C520 1.368 1_556 S
C517 C498 1.429 . S
C517 C511 1.429 1_554 S
C517 C518 1.523 . S
C518 C499 1.368 1_554 S
C518 C512 1.368 . S
C518 C517 1.523 . S
C519 C503 1.429 1_554 S
C519 C515 1.429 . S
C519 C520 1.523 . S
C520 C504 1.368 . S
C520 C516 1.368 1_554 S
C520 C519 1.523 . S
H521 C496 0.950 . S
H522 C498 0.950 . S
H523 C499 0.949 . S
H524 C501 0.950 . S
H525 C503 0.950 . S
C526 C527 1.349 1_556 S
C526 C528 1.327 . S
C526 H551 0.950 . S
C527 C526 1.349 1_554 S
C527 C543 1.349 . S
C528 C526 1.327 . S
C528 C547 1.429 1_556 S
C528 H552 0.950 . S
C529 C546 1.574 . S
C529 C548 1.368 . S
C529 H553 0.949 . S
H530 C534 0.949 . S
C531 C532 1.349 . S
C531 C533 1.327 . S
C531 H554 0.950 . S
C532 C531 1.349 . S
C532 C544 1.349 1_554 S
C533 C531 1.327 . S
C533 C549 1.429 . S
C533 H555 0.950 . S
C534 H530 0.949 . S
C534 C542 1.574 . S
C534 C550 1.368 1_556 S
H535 C543 0.950 . S
H536 C541 0.950 . S
H537 C542 0.949 . S
H538 C544 0.950 . S
H539 C545 0.950 . S
H540 C546 0.949 . S
C541 H536 0.950 . S
C541 C543 1.327 . S
C541 C547 1.429 . S
C542 C534 1.574 . S
C542 H537 0.949 . S
C542 C548 1.368 1_556 S
C543 C527 1.349 . S
C543 H535 0.950 . S
C543 C541 1.327 . S
C544 C532 1.349 1_556 S
C544 H538 0.950 . S
C544 C545 1.327 . S
C545 H539 0.950 . S
C545 C544 1.327 . S
C545 C549 1.429 1_556 S
C546 C529 1.574 . S
C546 H540 0.949 . S
C546 C550 1.368 . S
C547 C528 1.429 1_554 S
C547 C541 1.429 . S
C547 C548 1.523 . S
C548 C529 1.368 . S
C548 C542 1.368 1_554 S
C548 C547 1.523 . S
C549 C533 1.429 . S
C549 C545 1.429 1_554 S
C549 C550 1.523 . S
C550 C534 1.368 1_554 S
C550 C546 1.368 . S
C550 C549 1.523 . S
H551 C526 0.950 . S
H552 C528 0.950 . S
H553 C529 0.949 . S
H554 C531 0.950 . S
H555 C533 0.950 . S
C202 C180 2.050 . S
C197 C36 2.132 1_455 S
C232 C176 1.304 . S
C227 C78 1.366 1_545 S
C262 C186 2.048 1_655 S
C257 C30 2.112 . S
C292 C170 1.305 1_565 S
C287 C69 1.374 1_565 S
C317 C21 2.271 1_655 S
C322 C162 2.168 . S
C352 C194 1.419 . S
C347 C93 1.498 1_565 S
C377 C45 2.248 . S
C382 C148 2.166 . S
C407 C84 1.512 1_545 S
C412 C192 1.422 . S
C437 C132 0.947 . S
C442 C174 0.934 . S
C467 C126 0.957 . S
C472 C189 0.941 . S
C502 C183 0.944 . S
C497 C141 0.959 . S
C532 C178 0.936 . S
C527 C117 0.949 . S
