# Generated by pormake.
# Topology ssa, (4,4)-cn, num edge types: 1
# Building blocks:
#     Node 0, Type 0, BuildingBlock: NAWXER_clean_sbu_0, # of connection points: 4
#     Node 1, Type 0, BuildingBlock: NAWXER_clean_sbu_0, # of connection points: 4
#     Node 2, Type 0, BuildingBlock: NAWXER_clean_sbu_0, # of connection points: 4
#     Node 3, Type 0, BuildingBlock: NAWXER_clean_sbu_0, # of connection points: 4
#     Node 4, Type 0, BuildingBlock: NAWXER_clean_sbu_0, # of connection points: 4
#     Node 5, Type 0, BuildingBlock: NAWXER_clean_sbu_0, # of connection points: 4
#     Node 6, Type 1, BuildingBlock: NAWXER_clean_linker_0, # of connection points: 4
#     Node 7, Type 1, BuildingBlock: NAWXER_clean_linker_0, # of connection points: 4
#     Node 8, Type 1, BuildingBlock: NAWXER_clean_linker_0, # of connection points: 4
#     Node 9, Type 1, BuildingBlock: NAWXER_clean_linker_0, # of connection points: 4
#     Node 10, Type 1, BuildingBlock: NAWXER_clean_linker_0, # of connection points: 4
#     Node 11, Type 1, BuildingBlock: NAWXER_clean_linker_0, # of connection points: 4
#     Edge 12, Type (0, 1), BuildingBlock: MIFKUJ_clean_linker_0, # of connection points: 2
#     Edge 13, Type (0, 1), BuildingBlock: MIFKUJ_clean_linker_0, # of connection points: 2
#     Edge 14, Type (0, 1), BuildingBlock: MIFKUJ_clean_linker_0, # of connection points: 2
#     Edge 15, Type (0, 1), BuildingBlock: MIFKUJ_clean_linker_0, # of connection points: 2
#     Edge 16, Type (0, 1), BuildingBlock: MIFKUJ_clean_linker_0, # of connection points: 2
#     Edge 17, Type (0, 1), BuildingBlock: MIFKUJ_clean_linker_0, # of connection points: 2
#     Edge 18, Type (0, 1), BuildingBlock: MIFKUJ_clean_linker_0, # of connection points: 2
#     Edge 19, Type (0, 1), BuildingBlock: MIFKUJ_clean_linker_0, # of connection points: 2
#     Edge 20, Type (0, 1), BuildingBlock: MIFKUJ_clean_linker_0, # of connection points: 2
#     Edge 21, Type (0, 1), BuildingBlock: MIFKUJ_clean_linker_0, # of connection points: 2
#     Edge 22, Type (0, 1), BuildingBlock: MIFKUJ_clean_linker_0, # of connection points: 2
#     Edge 23, Type (0, 1), BuildingBlock: MIFKUJ_clean_linker_0, # of connection points: 2
#     Edge 24, Type (0, 1), BuildingBlock: MIFKUJ_clean_linker_0, # of connection points: 2
#     Edge 25, Type (0, 1), BuildingBlock: MIFKUJ_clean_linker_0, # of connection points: 2
#     Edge 26, Type (0, 1), BuildingBlock: MIFKUJ_clean_linker_0, # of connection points: 2
#     Edge 27, Type (0, 1), BuildingBlock: MIFKUJ_clean_linker_0, # of connection points: 2
#     Edge 28, Type (0, 1), BuildingBlock: MIFKUJ_clean_linker_0, # of connection points: 2
#     Edge 29, Type (0, 1), BuildingBlock: MIFKUJ_clean_linker_0, # of connection points: 2
#     Edge 30, Type (0, 1), BuildingBlock: MIFKUJ_clean_linker_0, # of connection points: 2
#     Edge 31, Type (0, 1), BuildingBlock: MIFKUJ_clean_linker_0, # of connection points: 2
#     Edge 32, Type (0, 1), BuildingBlock: MIFKUJ_clean_linker_0, # of connection points: 2
#     Edge 33, Type (0, 1), BuildingBlock: MIFKUJ_clean_linker_0, # of connection points: 2
#     Edge 34, Type (0, 1), BuildingBlock: MIFKUJ_clean_linker_0, # of connection points: 2
#     Edge 35, Type (0, 1), BuildingBlock: MIFKUJ_clean_linker_0, # of connection points: 2
# Relax obj value: 0.014
# Max RMSD: 0.030
# Mean RMSD: 0.028
data_MOF--net-ssa--node1-NAWXER_clean_sbu_0--node2-NAWXER_clean_linker_0--edge1-MIFKUJ_clean_linker_0
_symmetry_space_group_name_H-M    P1
_symmetry_Int_Tables_number       1
_symmetry_cell_setting            triclinic
loop_
_symmetry_equiv_pos_as_xyz
'x, y, z'
_cell_length_a     71.662724
_cell_length_b     71.650034
_cell_length_c     49.669673
_cell_angle_alpha  89.974606
_cell_angle_beta   90.053242
_cell_angle_gamma 120.01804
loop_
_atom_site_label
_atom_site_type_symbol
_atom_site_fract_x
_atom_site_fract_y
_atom_site_fract_z
_atom_type_partial_charge
C0 C 0.03695 0.54119 0.01098 0.0
C1 C 0.99497 0.47483 0.96018 0.0
O2 O 0.01978 0.52765 0.02338 0.0
Zn3 Zn 0.99275 0.49605 0.01631 0.0
O4 O 0.04113 0.53678 0.98779 0.0
Zn5 Zn 0.01603 0.50838 0.98511 0.0
O6 O 0.99028 0.51531 0.98104 0.0
O7 O 0.96835 0.50047 0.01555 0.0
O8 O 0.01253 0.4914 0.9533 0.0
O9 O 0.98635 0.47467 0.98287 0.0
O10 O 0.99527 0.48036 0.04608 0.0
O11 O 0.02166 0.49087 0.01647 0.0
C12 C 0.97313 0.51127 0.99385 0.0
C13 C 0.01263 0.48125 0.03853 0.0
C14 C 0.50082 0.03692 0.50647 0.0
C15 C 0.52485 0.9922 0.46169 0.0
O16 O 0.49469 0.01899 0.51863 0.0
Zn17 Zn 0.49838 0.99123 0.5145 0.0
O18 O 0.51255 0.04154 0.48559 0.0
Zn19 Zn 0.51365 0.01513 0.48433 0.0
O20 O 0.4805 0.99107 0.47647 0.0
O21 O 0.46889 0.96859 0.51095 0.0
O22 O 0.52881 0.01095 0.45502 0.0
O23 O 0.51393 0.9834 0.48308 0.0
O24 O 0.51394 0.99222 0.5468 0.0
O25 O 0.53346 0.01853 0.51842 0.0
C26 C 0.46537 0.97435 0.48818 0.0
C27 C 0.53168 0.0089 0.54084 0.0
C28 C 0.49603 0.46466 0.98745 0.0
C29 C 0.52536 0.53136 0.03861 0.0
O30 O 0.49133 0.47812 0.97684 0.0
Zn31 Zn 0.49793 0.51044 0.98455 0.0
O32 O 0.50723 0.46965 0.00884 0.0
Zn33 Zn 0.51058 0.49784 0.01327 0.0
O34 O 0.47826 0.49116 0.02103 0.0
O35 O 0.46966 0.50686 0.98892 0.0
O36 O 0.52625 0.51453 0.04424 0.0
O37 O 0.51553 0.53179 0.01721 0.0
O38 O 0.5144 0.52566 0.95316 0.0
O39 O 0.53165 0.51505 0.98042 0.0
C40 C 0.46468 0.49566 0.01031 0.0
C41 C 0.53115 0.52464 0.95886 0.0
C42 C 0.00521 0.5291 0.46166 0.0
C43 C 0.96733 0.4613 0.51061 0.0
O44 O 0.01546 0.5289 0.48274 0.0
Zn45 Zn 0.01155 0.50677 0.51441 0.0
O46 O 0.98735 0.51254 0.45571 0.0
Zn47 Zn 0.98617 0.49508 0.48595 0.0
O48 O 0.98282 0.51186 0.51986 0.0
O49 O 0.01095 0.52168 0.5464 0.0
O50 O 0.96123 0.46686 0.48958 0.0
O51 O 0.98551 0.47447 0.52144 0.0
O52 O 0.03596 0.50288 0.50903 0.0
O53 O 0.01144 0.48813 0.47698 0.0
C54 C 0.99325 0.52105 0.54143 0.0
C55 C 0.02949 0.49216 0.48731 0.0
C56 C 0.50442 0.96822 0.01446 0.0
C57 C 0.47212 0.00174 0.96068 0.0
O58 O 0.50706 0.98581 0.02473 0.0
Zn59 Zn 0.49892 0.01019 0.01559 0.0
O60 O 0.49433 0.96148 0.99231 0.0
Zn61 Zn 0.48802 0.98449 0.98717 0.0
O62 O 0.51918 0.01155 0.97931 0.0
O63 O 0.52694 0.03576 0.01123 0.0
O64 O 0.472 0.98429 0.95565 0.0
O65 O 0.48136 0.01238 0.98207 0.0
O66 O 0.48099 0.00817 0.04582 0.0
O67 O 0.4665 0.97918 0.02001 0.0
C68 C 0.53218 0.02995 0.98968 0.0
C69 C 0.46564 0.98924 0.0409 0.0
C70 C 0.5397 0.50746 0.51309 0.0
C71 C 0.47205 0.47704 0.46344 0.0
O72 O 0.52578 0.51111 0.52447 0.0
Zn73 Zn 0.49345 0.50436 0.5175 0.0
O74 O 0.53488 0.49689 0.49119 0.0
Zn75 Zn 0.50592 0.49205 0.48803 0.0
O76 O 0.51135 0.52382 0.48033 0.0
O77 O 0.49719 0.53292 0.51368 0.0
O78 O 0.48885 0.4762 0.45739 0.0
O79 O 0.47183 0.48681 0.48498 0.0
O80 O 0.4786 0.4875 0.54879 0.0
O81 O 0.48949 0.47076 0.52115 0.0
C82 C 0.50732 0.53756 0.49146 0.0
C83 C 0.47996 0.47096 0.54292 0.0
C84 C 0.2859 0.45412 0.19873 0.0
C85 C 0.28182 0.4392 0.17805 0.0
C86 C 0.27003 0.45024 0.2177 0.0
C87 C 0.24976 0.43147 0.21619 0.0
C88 C 0.26165 0.42026 0.17674 0.0
C89 C 0.2456 0.41657 0.1955 0.0
C90 C 0.23258 0.42832 0.2351 0.0
C91 C 0.27911 0.41603 0.28173 0.0
C92 C 0.28929 0.43035 0.30324 0.0
C93 C 0.26153 0.41541 0.2686 0.0
C94 C 0.25399 0.42931 0.27651 0.0
C95 C 0.28161 0.44414 0.31118 0.0
C96 C 0.26411 0.44354 0.29803 0.0
C97 C 0.23516 0.42871 0.26328 0.0
C98 C 0.15174 0.42257 0.3031 0.0
C99 C 0.16062 0.43694 0.32494 0.0
C100 C 0.16503 0.41933 0.2854 0.0
C101 C 0.18754 0.43099 0.28851 0.0
C102 C 0.18305 0.44743 0.32896 0.0
C103 C 0.19632 0.44461 0.31089 0.0
C104 C 0.20231 0.42919 0.26908 0.0
C105 C 0.16374 0.45057 0.21889 0.0
C106 C 0.15078 0.43543 0.19928 0.0
C107 C 0.17951 0.44828 0.23262 0.0
C108 C 0.18243 0.43067 0.22725 0.0
C109 C 0.15386 0.41788 0.19388 0.0
C110 C 0.16964 0.41562 0.20762 0.0
C111 C 0.19966 0.42857 0.24077 0.0
H112 H 0.30138 0.46879 0.20018 0.0
H113 H 0.27342 0.46213 0.23325 0.0
H114 H 0.25815 0.40861 0.16084 0.0
H115 H 0.22996 0.40211 0.19388 0.0
H116 H 0.28443 0.40498 0.27543 0.0
H117 H 0.25363 0.40383 0.25258 0.0
H118 H 0.28927 0.45556 0.32743 0.0
H119 H 0.25858 0.45439 0.30456 0.0
H120 H 0.13458 0.41415 0.29923 0.0
H121 H 0.15764 0.40791 0.2691 0.0
H122 H 0.19051 0.45801 0.34601 0.0
H123 H 0.21358 0.45346 0.31421 0.0
H124 H 0.16207 0.46448 0.22317 0.0
H125 H 0.18963 0.46043 0.24717 0.0
H126 H 0.14402 0.40583 0.17909 0.0
H127 H 0.17179 0.40204 0.203 0.0
N128 N 0.21486 0.42807 0.22493 0.0
N129 N 0.21999 0.42923 0.27911 0.0
C130 C 0.85532 0.28241 0.78092 0.0
C131 C 0.85085 0.29331 0.80118 0.0
C132 C 0.83858 0.26418 0.76851 0.0
C133 C 0.81703 0.25669 0.77584 0.0
C134 C 0.82928 0.28579 0.80844 0.0
C135 C 0.81258 0.26764 0.79597 0.0
C136 C 0.79912 0.23679 0.7639 0.0
C137 C 0.82389 0.28327 0.69488 0.0
C138 C 0.83579 0.27875 0.67621 0.0
C139 C 0.81169 0.26823 0.71462 0.0
C140 C 0.81104 0.24835 0.71589 0.0
C141 C 0.83528 0.25892 0.67757 0.0
C142 C 0.82271 0.24367 0.69708 0.0
C143 C 0.79731 0.2322 0.73608 0.0
C144 C 0.70817 0.15637 0.72494 0.0
C145 C 0.71187 0.14408 0.7059 0.0
C146 C 0.72544 0.17398 0.73754 0.0
C147 C 0.74676 0.17936 0.73183 0.0
C148 C 0.73321 0.14961 0.7 0.0
C149 C 0.75048 0.1671 0.71281 0.0
C150 C 0.76526 0.19861 0.74402 0.0
C151 C 0.72824 0.15415 0.81239 0.0
C152 C 0.71917 0.16293 0.82986 0.0
C153 C 0.74394 0.16723 0.79365 0.0
C154 C 0.75071 0.18928 0.79192 0.0
C155 C 0.7264 0.18512 0.82842 0.0
C156 C 0.7421 0.19815 0.80977 0.0
C157 C 0.76683 0.20341 0.77184 0.0
H158 H 0.87178 0.28759 0.77521 0.0
H159 H 0.84257 0.25565 0.75369 0.0
H160 H 0.8253 0.29397 0.82377 0.0
H161 H 0.79612 0.26215 0.80207 0.0
H162 H 0.82414 0.29851 0.69428 0.0
H163 H 0.80251 0.27201 0.72871 0.0
H164 H 0.84428 0.25509 0.66327 0.0
H165 H 0.82222 0.22831 0.69763 0.0
H166 H 0.69192 0.1528 0.72945 0.0
H167 H 0.72209 0.18367 0.75129 0.0
H168 H 0.73654 0.1404 0.68544 0.0
H169 H 0.76678 0.1711 0.70781 0.0
H170 H 0.7233 0.13719 0.8133 0.0
H171 H 0.75076 0.16013 0.78051 0.0
H172 H 0.71959 0.19238 0.84129 0.0
H173 H 0.74715 0.21515 0.80885 0.0
N174 N 0.78369 0.2223 0.78064 0.0
N175 N 0.7806 0.21322 0.72722 0.0
C176 C 0.58859 0.72456 0.22042 0.0
C177 C 0.57404 0.71363 0.19935 0.0
C178 C 0.58832 0.74165 0.23367 0.0
C179 C 0.57325 0.74786 0.22635 0.0
C180 C 0.55913 0.72003 0.19197 0.0
C181 C 0.55881 0.73701 0.20525 0.0
C182 C 0.57278 0.76611 0.23967 0.0
C183 C 0.55413 0.71557 0.30323 0.0
C184 C 0.56692 0.7219 0.32656 0.0
C185 C 0.55641 0.73083 0.2841 0.0
C186 C 0.57201 0.75267 0.28747 0.0
C187 C 0.58215 0.74379 0.33033 0.0
C188 C 0.58469 0.75904 0.31092 0.0
C189 C 0.57375 0.76911 0.26791 0.0
C190 C 0.55018 0.83637 0.28567 0.0
C191 C 0.56735 0.85189 0.30117 0.0
C192 C 0.55208 0.82023 0.27237 0.0
C193 C 0.57108 0.81924 0.27462 0.0
C194 C 0.58648 0.85105 0.30308 0.0
C195 C 0.58822 0.83465 0.29017 0.0
C196 C 0.57273 0.80162 0.26168 0.0
C197 C 0.57704 0.84751 0.19713 0.0
C198 C 0.56038 0.83803 0.17797 0.0
C199 C 0.58074 0.83468 0.21509 0.0
C200 C 0.56767 0.81213 0.21444 0.0
C201 C 0.54778 0.81544 0.17687 0.0
C202 C 0.55144 0.80265 0.19485 0.0
C203 C 0.57083 0.79813 0.23362 0.0
H204 H 0.60045 0.72016 0.2263 0.0
H205 H 0.60001 0.75014 0.24941 0.0
H206 H 0.54752 0.71175 0.17608 0.0
H207 H 0.54708 0.74152 0.19918 0.0
H208 H 0.54193 0.69886 0.30016 0.0
H209 H 0.54562 0.72554 0.26697 0.0
H210 H 0.59216 0.74906 0.34821 0.0
H211 H 0.59653 0.77583 0.31424 0.0
H212 H 0.53529 0.83673 0.28391 0.0
H213 H 0.53859 0.80831 0.26068 0.0
H214 H 0.59983 0.86272 0.31515 0.0
H215 H 0.60294 0.83401 0.29224 0.0
H216 H 0.58699 0.86487 0.19857 0.0
H217 H 0.5938 0.84239 0.22946 0.0
H218 H 0.53509 0.80762 0.16203 0.0
H219 H 0.54133 0.78528 0.19372 0.0
N220 N 0.57104 0.78058 0.22373 0.0
N221 N 0.57405 0.78697 0.27776 0.0
C222 C 0.86046 0.57741 0.72655 0.0
C223 C 0.857 0.56331 0.70501 0.0
C224 C 0.8431 0.57797 0.73856 0.0
C225 C 0.82194 0.56421 0.72948 0.0
C226 C 0.83581 0.5495 0.69612 0.0
C227 C 0.8185 0.55001 0.70816 0.0
C228 C 0.80339 0.56528 0.74076 0.0
C229 C 0.82646 0.54083 0.80902 0.0
C230 C 0.83737 0.55657 0.82886 0.0
C231 C 0.81444 0.54394 0.78923 0.0
C232 C 0.81298 0.56275 0.78913 0.0
C233 C 0.83594 0.57542 0.82871 0.0
C234 C 0.82356 0.57835 0.80918 0.0
C235 C 0.79979 0.56569 0.76862 0.0
C236 C 0.70875 0.54836 0.7725 0.0
C237 C 0.71015 0.56117 0.79473 0.0
C238 C 0.72732 0.55013 0.76095 0.0
C239 C 0.74782 0.56532 0.77068 0.0
C240 C 0.73071 0.57611 0.80472 0.0
C241 C 0.7493 0.57815 0.79281 0.0
C242 C 0.76764 0.56675 0.75937 0.0
C243 C 0.73498 0.58053 0.69123 0.0
C244 C 0.72755 0.56471 0.67092 0.0
C245 C 0.74953 0.58149 0.71073 0.0
C246 C 0.75674 0.56651 0.7104 0.0
C247 C 0.73539 0.55022 0.67022 0.0
C248 C 0.74992 0.55121 0.68966 0.0
C249 C 0.77136 0.56651 0.73142 0.0
H250 H 0.87664 0.58845 0.73357 0.0
H251 H 0.84629 0.58955 0.75443 0.0
H252 H 0.83259 0.53825 0.67981 0.0
H253 H 0.80236 0.53928 0.70075 0.0
H254 H 0.82743 0.52622 0.80866 0.0
H255 H 0.80614 0.53159 0.77412 0.0
H256 H 0.84414 0.58771 0.84393 0.0
H257 H 0.82244 0.59288 0.80949 0.0
H258 H 0.69329 0.5368 0.76403 0.0
H259 H 0.72556 0.53933 0.74466 0.0
H260 H 0.73249 0.5859 0.82219 0.0
H261 H 0.76489 0.58967 0.80105 0.0
H262 H 0.72955 0.59216 0.69205 0.0
H263 H 0.75502 0.5938 0.72616 0.0
H264 H 0.72982 0.53767 0.6551 0.0
H265 H 0.75536 0.53957 0.68894 0.0
N266 N 0.78899 0.56564 0.72329 0.0
N267 N 0.78213 0.5665 0.77687 0.0
C268 C 0.16716 0.71688 0.20945 0.0
C269 C 0.16115 0.72165 0.18453 0.0
C270 C 0.17887 0.73314 0.22814 0.0
C271 C 0.18421 0.75452 0.22289 0.0
C272 C 0.16687 0.74315 0.17908 0.0
C273 C 0.17829 0.75939 0.19805 0.0
C274 C 0.19754 0.77204 0.24215 0.0
C275 C 0.13719 0.72662 0.28712 0.0
C276 C 0.14065 0.7164 0.30919 0.0
C277 C 0.15458 0.74414 0.27449 0.0
C278 C 0.17574 0.75157 0.28349 0.0
C279 C 0.16184 0.72412 0.31834 0.0
C280 C 0.17917 0.74158 0.30572 0.0
C281 C 0.19445 0.76998 0.27038 0.0
C282 C 0.26699 0.855 0.31235 0.0
C283 C 0.27456 0.84702 0.33298 0.0
C284 C 0.25137 0.84089 0.29417 0.0
C285 C 0.24321 0.81857 0.29612 0.0
C286 C 0.26593 0.82462 0.33523 0.0
C287 C 0.25035 0.81056 0.31708 0.0
C288 C 0.22719 0.80328 0.27668 0.0
C289 C 0.28768 0.84264 0.22789 0.0
C290 C 0.2856 0.85644 0.20958 0.0
C291 C 0.26957 0.82641 0.24098 0.0
C292 C 0.24908 0.82364 0.23582 0.0
C293 C 0.2651 0.85382 0.20472 0.0
C294 C 0.24693 0.83736 0.21753 0.0
C295 C 0.22978 0.8058 0.24851 0.0
H296 H 0.16288 0.70053 0.21462 0.0
H297 H 0.18401 0.72896 0.24655 0.0
H298 H 0.16294 0.74757 0.15994 0.0
H299 H 0.18262 0.77583 0.19324 0.0
H300 H 0.12103 0.72126 0.27985 0.0
H301 H 0.15147 0.75193 0.25779 0.0
H302 H 0.16511 0.71645 0.33504 0.0
H303 H 0.19533 0.74705 0.31307 0.0
H304 H 0.27306 0.87214 0.31034 0.0
H305 H 0.24567 0.84743 0.27863 0.0
H306 H 0.27159 0.81793 0.35063 0.0
H307 H 0.24423 0.7934 0.31905 0.0
H308 H 0.30332 0.84436 0.23196 0.0
H309 H 0.2715 0.81577 0.25476 0.0
H310 H 0.26306 0.86409 0.19043 0.0
H311 H 0.2312 0.83532 0.21315 0.0
N312 N 0.21492 0.79008 0.23233 0.0
N313 N 0.20958 0.78552 0.28649 0.0
C314 C 0.42631 0.14162 0.77434 0.0
C315 C 0.43999 0.14529 0.79644 0.0
C316 C 0.42547 0.15878 0.76213 0.0
C317 C 0.43861 0.17999 0.77144 0.0
C318 C 0.45307 0.16648 0.80576 0.0
C319 C 0.45236 0.18362 0.79341 0.0
C320 C 0.43731 0.19835 0.75969 0.0
C321 C 0.46259 0.17648 0.69087 0.0
C322 C 0.44736 0.16604 0.67036 0.0
C323 C 0.45865 0.18745 0.71128 0.0
C324 C 0.43951 0.18831 0.71135 0.0
C325 C 0.42807 0.16665 0.67061 0.0
C326 C 0.42432 0.178 0.69078 0.0
C327 C 0.4362 0.20131 0.73176 0.0
C328 C 0.45145 0.29116 0.72263 0.0
C329 C 0.43632 0.28817 0.70263 0.0
C330 C 0.45099 0.27341 0.735 0.0
C331 C 0.43499 0.25235 0.72815 0.0
C332 C 0.42054 0.2671 0.6955 0.0
C333 C 0.41991 0.24937 0.70813 0.0
C334 C 0.43472 0.23333 0.74023 0.0
C335 C 0.42738 0.27146 0.8067 0.0
C336 C 0.44332 0.27808 0.8268 0.0
C337 C 0.42433 0.25546 0.78819 0.0
C338 C 0.43763 0.24624 0.78888 0.0
C339 C 0.45555 0.26771 0.82848 0.0
C340 C 0.4528 0.25207 0.8097 0.0
C341 C 0.4362 0.23061 0.76825 0.0
H342 H 0.4158 0.1254 0.76703 0.0
H343 H 0.41413 0.15534 0.74587 0.0
H344 H 0.4639 0.16982 0.82261 0.0
H345 H 0.46259 0.19978 0.8011 0.0
H346 H 0.47752 0.17612 0.69112 0.0
H347 H 0.47074 0.19563 0.72672 0.0
H348 H 0.41617 0.15878 0.65489 0.0
H349 H 0.40958 0.17872 0.69037 0.0
H350 H 0.46404 0.30723 0.72812 0.0
H351 H 0.46331 0.27615 0.74964 0.0
H352 H 0.40868 0.26435 0.68017 0.0
H353 H 0.40762 0.23328 0.70225 0.0
H354 H 0.41761 0.27902 0.80471 0.0
H355 H 0.4119 0.25065 0.77303 0.0
H356 H 0.46748 0.27181 0.84417 0.0
H357 H 0.46297 0.2449 0.81108 0.0
N358 N 0.43742 0.21322 0.77676 0.0
N359 N 0.43471 0.21851 0.72315 0.0
H360 H 0.00939 0.47569 0.09302 0.0
H361 H 0.03049 0.46533 0.12192 0.0
H362 H 0.06092 0.45685 0.05182 0.0
H363 H 0.04032 0.46772 0.02283 0.0
H364 H 0.04687 0.42315 0.09399 0.0
H365 H 0.088 0.49977 0.07962 0.0
H366 H 0.09391 0.53674 0.07911 0.0
H367 H 0.0824 0.53336 0.16426 0.0
H368 H 0.07587 0.49612 0.16516 0.0
H369 H 0.14173 0.42904 0.14545 0.0
H370 H 0.11539 0.43411 0.12015 0.0
H371 H 0.09697 0.45368 0.19283 0.0
H372 H 0.12321 0.44844 0.21842 0.0
H373 H 0.10284 0.48064 0.15139 0.0
H374 H 0.0642 0.40448 0.16615 0.0
H375 H 0.05846 0.36756 0.16608 0.0
H376 H 0.06554 0.36999 0.08011 0.0
H377 H 0.07164 0.40706 0.07969 0.0
C378 C 0.02034 0.4713 0.08377 0.0
C379 C 0.02331 0.47257 0.05572 0.0
C380 C 0.03239 0.46546 0.10027 0.0
C381 C 0.04725 0.46043 0.08892 0.0
C382 C 0.04947 0.46066 0.06087 0.0
C383 C 0.03778 0.46694 0.0444 0.0
C384 C 0.06152 0.45631 0.10634 0.0
C385 C 0.05922 0.4357 0.10642 0.0
C386 C 0.0773 0.47267 0.12285 0.0
C387 C 0.08115 0.49504 0.12239 0.0
C388 C 0.08643 0.50679 0.09818 0.0
C389 C 0.08993 0.52781 0.09782 0.0
C390 C 0.08846 0.53737 0.12161 0.0
C391 C 0.08346 0.52591 0.14582 0.0
C392 C 0.07984 0.50483 0.14627 0.0
C393 C 0.13187 0.43413 0.15616 0.0
C394 C 0.13451 0.43823 0.184 0.0
C395 C 0.11685 0.43706 0.14164 0.0
C396 C 0.10404 0.44404 0.15466 0.0
C397 C 0.10669 0.44827 0.1824 0.0
C398 C 0.12173 0.44534 0.19697 0.0
C399 C 0.08831 0.44741 0.13908 0.0
C400 C 0.09035 0.46795 0.13925 0.0
C401 C 0.0723 0.43097 0.12278 0.0
C402 C 0.06856 0.40863 0.12292 0.0
C403 C 0.06471 0.39721 0.14725 0.0
C404 C 0.06135 0.37624 0.14729 0.0
C405 C 0.06168 0.36645 0.12311 0.0
C406 C 0.06531 0.3776 0.09882 0.0
C407 C 0.06869 0.39859 0.09867 0.0
H408 H 0.05908 0.35021 0.12319 0.0
H409 H 0.09133 0.55369 0.12128 0.0
H410 H 0.57359 0.03803 0.52983 0.0
H411 H 0.6035 0.05547 0.56153 0.0
H412 H 0.56145 0.01831 0.6266 0.0
H413 H 0.53127 0.00057 0.59482 0.0
H414 H 0.5852 0.06274 0.63677 0.0
H415 H 0.59842 0.00697 0.60763 0.0
H416 H 0.60314 0.98406 0.57448 0.0
H417 H 0.6582 0.03974 0.54144 0.0
H418 H 0.65363 0.06305 0.57412 0.0
H419 H 0.67388 0.11228 0.72692 0.0
H420 H 0.64281 0.08428 0.70235 0.0
H421 H 0.67727 0.10803 0.62748 0.0
H422 H 0.70843 0.13572 0.65199 0.0
H423 H 0.65548 0.06561 0.62673 0.0
H424 H 0.63957 0.12157 0.64988 0.0
H425 H 0.6347 0.14583 0.68061 0.0
H426 H 0.58473 0.09121 0.72244 0.0
H427 H 0.58951 0.06662 0.69215 0.0
C428 C 0.57071 0.03337 0.55083 0.0
C429 C 0.55005 0.01795 0.55984 0.0
C430 C 0.58786 0.04328 0.5689 0.0
C431 C 0.58471 0.03808 0.59637 0.0
C432 C 0.5642 0.02247 0.60544 0.0
C433 C 0.54702 0.01232 0.58727 0.0
C434 C 0.60265 0.05006 0.61559 0.0
C435 C 0.60043 0.063 0.63503 0.0
C436 C 0.62263 0.05078 0.61279 0.0
C437 C 0.62559 0.03679 0.59324 0.0
C438 C 0.61145 0.01436 0.59317 0.0
C439 C 0.61411 0.00129 0.57448 0.0
C440 C 0.63093 0.01044 0.55584 0.0
C441 C 0.64517 0.03267 0.55589 0.0
C442 C 0.64257 0.04582 0.57453 0.0
C443 C 0.67481 0.11144 0.70523 0.0
C444 C 0.69353 0.12625 0.69135 0.0
C445 C 0.65707 0.09546 0.69121 0.0
C446 C 0.65757 0.09423 0.66301 0.0
C447 C 0.6765 0.10861 0.64923 0.0
C448 C 0.69431 0.12443 0.66325 0.0
C449 C 0.63818 0.07864 0.64762 0.0
C450 C 0.64014 0.06506 0.62884 0.0
C451 C 0.618 0.07752 0.65079 0.0
C452 C 0.61508 0.09227 0.66897 0.0
C453 C 0.62766 0.11475 0.66577 0.0
C454 C 0.6249 0.12855 0.68308 0.0
C455 C 0.60947 0.12007 0.70352 0.0
C456 C 0.59671 0.09776 0.70664 0.0
C457 C 0.59944 0.08388 0.6894 0.0
H458 H 0.60735 0.13079 0.7169 0.0
H459 H 0.63296 0.0003 0.54137 0.0
H460 H 0.54068 0.53404 0.08996 0.0
H461 H 0.55461 0.56505 0.12051 0.0
H462 H 0.54577 0.60224 0.05872 0.0
H463 H 0.5319 0.57151 0.02819 0.0
H464 H 0.58459 0.62555 0.08559 0.0
H465 H 0.50881 0.57882 0.1065 0.0
H466 H 0.4771 0.54447 0.1201 0.0
H467 H 0.50839 0.54561 0.19436 0.0
H468 H 0.54042 0.57986 0.18101 0.0
H469 H 0.57079 0.70625 0.14523 0.0
H470 H 0.56833 0.67532 0.12151 0.0
H471 H 0.57589 0.64955 0.19664 0.0
H472 H 0.57771 0.68031 0.22073 0.0
H473 H 0.54289 0.61933 0.16813 0.0
H474 H 0.61637 0.6696 0.15021 0.0
H475 H 0.64766 0.70424 0.1366 0.0
H476 H 0.62126 0.69683 0.0571 0.0
H477 H 0.58965 0.66229 0.07033 0.0
C478 C 0.54189 0.54889 0.08283 0.0
C479 C 0.53505 0.55028 0.05672 0.0
C480 C 0.5498 0.56655 0.10031 0.0
C481 C 0.55109 0.58587 0.09189 0.0
C482 C 0.54494 0.58749 0.06558 0.0
C483 C 0.5369 0.56985 0.04821 0.0
C484 C 0.55784 0.60421 0.11065 0.0
C485 C 0.57549 0.62426 0.10363 0.0
C486 C 0.54634 0.60229 0.13459 0.0
C487 C 0.5271 0.58173 0.14261 0.0
C488 C 0.509 0.57164 0.12562 0.0
C489 C 0.49096 0.55221 0.1333 0.0
C490 C 0.49077 0.54282 0.15804 0.0
C491 C 0.50859 0.55288 0.17518 0.0
C492 C 0.52669 0.57229 0.16757 0.0
C493 C 0.57195 0.69402 0.15674 0.0
C494 C 0.57431 0.69565 0.18487 0.0
C495 C 0.5708 0.67646 0.14311 0.0
C496 C 0.57219 0.66024 0.15726 0.0
C497 C 0.5749 0.66196 0.18532 0.0
C498 C 0.57607 0.67958 0.19902 0.0
C499 C 0.56934 0.64091 0.14271 0.0
C500 C 0.55238 0.62063 0.15047 0.0
C501 C 0.58151 0.64263 0.11946 0.0
C502 C 0.60056 0.66338 0.11133 0.0
C503 C 0.61715 0.67542 0.12988 0.0
C504 C 0.63496 0.69503 0.12222 0.0
C505 C 0.63643 0.70274 0.09601 0.0
C506 C 0.62011 0.69084 0.07739 0.0
C507 C 0.60225 0.67122 0.08495 0.0
H508 H 0.65023 0.71793 0.09013 0.0
H509 H 0.47678 0.52779 0.16396 0.0
H510 H 0.00513 0.53333 0.59388 0.0
H511 H 0.98786 0.54595 0.62606 0.0
H512 H 0.94367 0.54192 0.56426 0.0
H513 H 0.96068 0.52934 0.53216 0.0
H514 H 0.95936 0.57912 0.59505 0.0
H515 H 0.92835 0.50186 0.60775 0.0
H516 H 0.93001 0.46903 0.61792 0.0
H517 H 0.95802 0.49496 0.69512 0.0
H518 H 0.95678 0.52809 0.68522 0.0
H519 H 0.86291 0.5622 0.651 0.0
H520 H 0.89202 0.56049 0.62795 0.0
H521 H 0.9221 0.56338 0.70431 0.0
H522 H 0.89252 0.56452 0.7277 0.0
H523 H 0.92028 0.5319 0.67254 0.0
H524 H 0.94482 0.60649 0.66275 0.0
H525 H 0.94237 0.63887 0.65251 0.0
H526 H 0.9267 0.61849 0.57027 0.0
H527 H 0.92873 0.58581 0.58009 0.0
C528 C 0.99188 0.53536 0.58712 0.0
C529 C 0.98416 0.5302 0.56054 0.0
C530 C 0.98202 0.54251 0.60551 0.0
C531 C 0.96444 0.54474 0.59753 0.0
C532 C 0.95725 0.54035 0.57079 0.0
C533 C 0.96692 0.53304 0.55252 0.0
C534 C 0.9526 0.55054 0.61709 0.0
C535 C 0.9508 0.56883 0.61201 0.0
C536 C 0.94202 0.53745 0.63967 0.0
C537 C 0.94275 0.51755 0.64561 0.0
C538 C 0.93505 0.50064 0.62679 0.0
C539 C 0.93587 0.48196 0.63252 0.0
C540 C 0.94419 0.47994 0.65711 0.0
C541 C 0.95164 0.49657 0.67605 0.0
C542 C 0.95087 0.5153 0.6704 0.0
C543 C 0.87568 0.56241 0.66293 0.0
C544 C 0.87536 0.56336 0.69117 0.0
C545 C 0.89245 0.5617 0.64971 0.0
C546 C 0.90939 0.5621 0.66439 0.0
C547 C 0.90925 0.5632 0.69261 0.0
C548 C 0.89243 0.56396 0.7059 0.0
C549 C 0.92647 0.56016 0.65003 0.0
C550 C 0.92926 0.54256 0.65604 0.0
C551 C 0.93798 0.57392 0.62831 0.0
C552 C 0.93683 0.59362 0.62222 0.0
C553 C 0.94071 0.60883 0.64252 0.0
C554 C 0.93942 0.62725 0.63678 0.0
C555 C 0.93436 0.63072 0.61077 0.0
C556 C 0.93062 0.61578 0.59042 0.0
C557 C 0.93188 0.59732 0.59605 0.0
H558 H 0.93336 0.64499 0.60637 0.0
H559 H 0.9448 0.46546 0.66152 0.0
H560 H 0.45142 0.00716 0.07889 0.0
H561 H 0.42027 0.98808 0.10889 0.0
H562 H 0.40783 0.92732 0.07536 0.0
H563 H 0.4381 0.94622 0.04481 0.0
H564 H 0.37207 0.92633 0.0797 0.0
H565 H 0.43273 0.9477 0.1392 0.0
H566 H 0.46671 0.97333 0.1618 0.0
H567 H 0.43598 0.00588 0.19673 0.0
H568 H 0.40188 0.98057 0.17405 0.0
H569 H 0.31458 0.85021 0.1816 0.0
H570 H 0.34489 0.87656 0.15448 0.0
H571 H 0.32986 0.92579 0.17638 0.0
H572 H 0.29916 0.8993 0.20331 0.0
H573 H 0.37739 0.93626 0.17882 0.0
H574 H 0.31507 0.91045 0.12076 0.0
H575 H 0.28175 0.88206 0.0996 0.0
H576 H 0.31722 0.85504 0.06304 0.0
H577 H 0.3507 0.88308 0.08436 0.0
C578 C 0.44197 0.98973 0.07798 0.0
C579 C 0.44714 0.97819 0.05944 0.0
C580 C 0.42425 0.97883 0.0952 0.0
C581 C 0.41175 0.9562 0.09459 0.0
C582 C 0.41706 0.94476 0.07614 0.0
C583 C 0.43444 0.95561 0.05868 0.0
C584 C 0.39297 0.94414 0.11277 0.0
C585 C 0.37336 0.92851 0.10137 0.0
C586 C 0.39437 0.9472 0.14106 0.0
C587 C 0.41485 0.96242 0.15467 0.0
C588 C 0.43328 0.96043 0.15152 0.0
C589 C 0.45254 0.97488 0.16438 0.0
C590 C 0.45352 0.99127 0.18061 0.0
C591 C 0.43521 0.9932 0.18409 0.0
C592 C 0.41591 0.97881 0.17126 0.0
C593 C 0.31788 0.8667 0.18086 0.0
C594 C 0.30458 0.87277 0.19449 0.0
C595 C 0.33512 0.88168 0.16535 0.0
C596 C 0.33951 0.90303 0.16349 0.0
C597 C 0.32668 0.90935 0.17769 0.0
C598 C 0.30915 0.89425 0.19287 0.0
C599 C 0.35697 0.91831 0.14563 0.0
C600 C 0.37619 0.93446 0.1571 0.0
C601 C 0.35542 0.91549 0.11743 0.0
C602 C 0.33535 0.89876 0.10435 0.0
C603 C 0.31573 0.89834 0.1084 0.0
C604 C 0.29682 0.88234 0.09634 0.0
C605 C 0.29736 0.86673 0.08003 0.0
C606 C 0.31682 0.86713 0.07569 0.0
C607 C 0.33577 0.88309 0.08774 0.0
H608 H 0.28271 0.85434 0.07071 0.0
H609 H 0.46845 0.00243 0.19056 0.0
H610 H 0.47199 0.43054 0.53114 0.0
H611 H 0.46007 0.40002 0.56173 0.0
H612 H 0.45686 0.43819 0.62674 0.0
H613 H 0.4687 0.46896 0.59606 0.0
H614 H 0.48002 0.41687 0.63911 0.0
H615 H 0.41139 0.39974 0.60323 0.0
H616 H 0.3852 0.3941 0.56746 0.0
H617 H 0.39254 0.34275 0.53452 0.0
H618 H 0.41903 0.34828 0.56986 0.0
H619 H 0.44061 0.32508 0.7247 0.0
H620 H 0.44377 0.35651 0.70091 0.0
H621 H 0.43865 0.32516 0.62483 0.0
H622 H 0.43486 0.29357 0.64856 0.0
H623 H 0.41641 0.3447 0.62244 0.0
H624 H 0.4881 0.36465 0.65261 0.0
H625 H 0.5159 0.37047 0.68617 0.0
H626 H 0.50452 0.4165 0.72744 0.0
H627 H 0.47645 0.41073 0.69428 0.0
C628 C 0.46858 0.43244 0.55188 0.0
C629 C 0.47131 0.45218 0.56121 0.0
C630 C 0.46167 0.41494 0.5693 0.0
C631 C 0.45746 0.41683 0.59643 0.0
C632 C 0.45997 0.43643 0.60583 0.0
C633 C 0.46664 0.45393 0.58828 0.0
C634 C 0.45156 0.39855 0.61503 0.0
C635 C 0.46586 0.40118 0.6359 0.0
C636 C 0.43337 0.37802 0.61032 0.0
C637 C 0.41732 0.37453 0.58912 0.0
C638 C 0.40755 0.38735 0.58825 0.0
C639 C 0.39262 0.38415 0.56807 0.0
C640 C 0.38723 0.3681 0.54871 0.0
C641 C 0.39673 0.35518 0.54953 0.0
C642 C 0.41168 0.35832 0.56966 0.0
C643 C 0.44012 0.32495 0.7029 0.0
C644 C 0.43755 0.30695 0.68845 0.0
C645 C 0.44196 0.3429 0.68932 0.0
C646 C 0.44176 0.34335 0.66104 0.0
C647 C 0.43879 0.32519 0.64665 0.0
C648 C 0.43664 0.30715 0.66021 0.0
C649 C 0.44516 0.36283 0.64622 0.0
C650 C 0.43039 0.36044 0.62601 0.0
C651 C 0.4631 0.38354 0.65129 0.0
C652 C 0.48001 0.38707 0.67117 0.0
C653 C 0.49142 0.37589 0.66896 0.0
C654 C 0.50724 0.3792 0.68788 0.0
C655 C 0.51192 0.3938 0.70897 0.0
C656 C 0.50084 0.40517 0.71113 0.0
C657 C 0.48498 0.40189 0.69227 0.0
H658 H 0.52418 0.39634 0.7236 0.0
H659 H 0.37568 0.36566 0.5331 0.0
H660 H 0.51163 0.94945 0.46446 0.0
H661 H 0.52258 0.92893 0.43616 0.0
H662 H 0.56561 0.98671 0.39231 0.0
H663 H 0.55408 0.00737 0.42018 0.0
H664 H 0.5453 0.95487 0.35846 0.0
H665 H 0.5849 0.96394 0.43852 0.0
H666 H 0.59133 0.96401 0.48731 0.0
H667 H 0.54804 0.89565 0.49041 0.0
H668 H 0.54109 0.8952 0.4417 0.0
H669 H 0.59395 0.89558 0.30053 0.0
H670 H 0.58994 0.92259 0.32657 0.0
H671 H 0.53175 0.87193 0.3624 0.0
H672 H 0.53541 0.84501 0.33607 0.0
H673 H 0.56538 0.90413 0.39932 0.0
H674 H 0.52445 0.89756 0.31807 0.0
H675 H 0.52004 0.89913 0.26905 0.0
H676 H 0.56999 0.9656 0.26827 0.0
H677 H 0.57496 0.9643 0.31727 0.0
C678 C 0.52352 0.95788 0.44891 0.0
C679 C 0.5321 0.98009 0.44469 0.0
C680 C 0.52986 0.94612 0.4328 0.0
C681 C 0.54527 0.95634 0.41244 0.0
C682 C 0.55378 0.9785 0.40799 0.0
C683 C 0.54722 0.99029 0.42395 0.0
C684 C 0.55191 0.94356 0.39554 0.0
C685 C 0.55012 0.94411 0.36741 0.0
C686 C 0.55815 0.92943 0.40714 0.0
C687 C 0.56237 0.92957 0.43645 0.0
C688 C 0.57664 0.94894 0.44963 0.0
C689 C 0.58039 0.94905 0.47727 0.0
C690 C 0.57007 0.92986 0.49195 0.0
C691 C 0.55602 0.91051 0.47901 0.0
C692 C 0.55219 0.91031 0.45137 0.0
C693 C 0.5803 0.8903 0.31393 0.0
C694 C 0.56493 0.8683 0.31632 0.0
C695 C 0.57801 0.90568 0.32868 0.0
C696 C 0.56056 0.89916 0.34632 0.0
C697 C 0.54531 0.8772 0.34885 0.0
C698 C 0.54735 0.8619 0.33375 0.0
C699 C 0.55819 0.91512 0.36255 0.0
C700 C 0.56086 0.91516 0.3905 0.0
C701 C 0.55318 0.93004 0.35075 0.0
C702 C 0.55027 0.93075 0.32128 0.0
C703 C 0.53468 0.91243 0.30741 0.0
C704 C 0.53203 0.91329 0.27963 0.0
C705 C 0.54476 0.93244 0.26553 0.0
C706 C 0.56017 0.95077 0.2792 0.0
C707 C 0.5629 0.94998 0.30697 0.0
H708 H 0.54263 0.93312 0.24406 0.0
H709 H 0.57299 0.92998 0.51335 0.0
H710 H 0.53111 0.53061 0.90441 0.0
H711 H 0.56051 0.53846 0.87295 0.0
H712 H 0.60211 0.5457 0.93982 0.0
H713 H 0.57269 0.53716 0.97113 0.0
H714 H 0.60064 0.56963 0.86263 0.0
H715 H 0.63088 0.5208 0.92522 0.0
H716 H 0.61618 0.49077 0.95775 0.0
H717 H 0.55245 0.46796 0.92672 0.0
H718 H 0.56682 0.49749 0.89349 0.0
H719 H 0.70356 0.59216 0.8183 0.0
H720 H 0.67189 0.58695 0.84287 0.0
H721 H 0.63943 0.51898 0.82454 0.0
H722 H 0.67159 0.52372 0.80187 0.0
H723 H 0.63284 0.52276 0.87324 0.0
H724 H 0.62619 0.55561 0.79364 0.0
H725 H 0.63753 0.5826 0.75733 0.0
H726 H 0.64808 0.6315 0.81511 0.0
H727 H 0.6371 0.60487 0.85183 0.0
C728 C 0.54665 0.53424 0.91236 0.0
C729 C 0.54956 0.53296 0.94014 0.0
C730 C 0.56343 0.53874 0.89439 0.0
C731 C 0.58334 0.54218 0.90403 0.0
C732 C 0.58672 0.54258 0.93191 0.0
C733 C 0.56992 0.53775 0.94978 0.0
C734 C 0.60004 0.54365 0.88515 0.0
C735 C 0.60772 0.55941 0.86489 0.0
C736 C 0.60869 0.52976 0.88753 0.0
C737 C 0.59994 0.51151 0.90696 0.0
C738 C 0.61376 0.50928 0.92515 0.0
C739 C 0.60548 0.49233 0.94371 0.0
C740 C 0.5834 0.47747 0.94428 0.0
C741 C 0.56956 0.47946 0.9262 0.0
C742 C 0.57777 0.49629 0.90748 0.0
C743 C 0.68978 0.57605 0.81967 0.0
C744 C 0.69028 0.55837 0.80807 0.0
C745 C 0.6715 0.57315 0.83338 0.0
C746 C 0.65309 0.5526 0.83529 0.0
C747 C 0.65339 0.53501 0.82332 0.0
C748 C 0.67177 0.53782 0.81002 0.0
C749 C 0.63401 0.54921 0.85107 0.0
C750 C 0.62579 0.53299 0.8708 0.0
C751 C 0.62439 0.56218 0.84754 0.0
C752 C 0.63098 0.57826 0.82552 0.0
C753 C 0.63108 0.57215 0.79863 0.0
C754 C 0.63742 0.58738 0.77797 0.0
C755 C 0.64356 0.60876 0.78392 0.0
C756 C 0.64333 0.61494 0.81054 0.0
C757 C 0.63703 0.59977 0.83128 0.0
H758 H 0.64847 0.62053 0.76789 0.0
H759 H 0.57701 0.46442 0.95874 0.0
H760 H 0.99392 0.53271 0.40991 0.0
H761 H 0.01154 0.56446 0.38055 0.0
H762 H 0.05522 0.60075 0.44484 0.0
H763 H 0.03789 0.56925 0.47414 0.0
H764 H 0.03941 0.62395 0.41713 0.0
H765 H 0.07127 0.57931 0.39831 0.0
H766 H 0.07012 0.54566 0.38461 0.0
H767 H 0.04263 0.54749 0.30848 0.0
H768 H 0.04335 0.58102 0.32191 0.0
H769 H 0.13446 0.70829 0.36314 0.0
H770 H 0.10602 0.67635 0.38527 0.0
H771 H 0.07655 0.65042 0.30824 0.0
H772 H 0.10557 0.68212 0.28577 0.0
H773 H 0.07916 0.62071 0.33717 0.0
H774 H 0.05285 0.66872 0.35312 0.0
H775 H 0.0543 0.70252 0.36665 0.0
H776 H 0.07067 0.69463 0.4474 0.0
H777 H 0.06964 0.66093 0.43428 0.0
C778 C 0.00715 0.54752 0.41783 0.0
C779 C 0.01462 0.54845 0.44427 0.0
C780 C 0.0172 0.5656 0.40104 0.0
C781 C 0.03473 0.58488 0.41053 0.0
C782 C 0.04169 0.58603 0.43717 0.0
C783 C 0.03183 0.56796 0.45383 0.0
C784 C 0.04669 0.60368 0.39255 0.0
C785 C 0.04815 0.62331 0.39965 0.0
C786 C 0.0575 0.60261 0.36931 0.0
C787 C 0.0571 0.58249 0.36124 0.0
C788 C 0.0648 0.57242 0.37875 0.0
C789 C 0.06426 0.5534 0.37101 0.0
C790 C 0.05623 0.5444 0.34572 0.0
C791 C 0.04879 0.55445 0.32809 0.0
C792 C 0.04926 0.57346 0.33574 0.0
C793 C 0.12196 0.6958 0.35087 0.0
C794 C 0.12235 0.6977 0.32267 0.0
C795 C 0.10553 0.67765 0.36358 0.0
C796 C 0.08897 0.66109 0.34845 0.0
C797 C 0.0891 0.66306 0.32032 0.0
C798 C 0.1056 0.68124 0.30753 0.0
C799 C 0.0724 0.64125 0.3621 0.0
C800 C 0.07007 0.62137 0.35424 0.0
C801 C 0.06072 0.6421 0.38459 0.0
C802 C 0.06128 0.66233 0.39266 0.0
C803 C 0.0569 0.67426 0.37373 0.0
C804 C 0.05763 0.6934 0.38133 0.0
C805 C 0.06261 0.70073 0.40786 0.0
C806 C 0.06682 0.68892 0.42686 0.0
C807 C 0.06613 0.66978 0.41935 0.0
H808 H 0.06316 0.71556 0.41371 0.0
H809 H 0.05584 0.52968 0.33977 0.0
H810 H 0.46438 0.99327 0.90668 0.0
H811 H 0.45421 0.01255 0.87428 0.0
H812 H 0.44966 0.05021 0.93899 0.0
H813 H 0.45985 0.03122 0.97127 0.0
H814 H 0.41691 0.03789 0.90157 0.0
H815 H 0.49436 0.07001 0.90447 0.0
H816 H 0.52852 0.06972 0.90071 0.0
H817 H 0.51448 0.05009 0.81804 0.0
H818 H 0.47997 0.04981 0.82148 0.0
H819 H 0.43869 0.13823 0.85048 0.0
H820 H 0.43968 0.10871 0.87379 0.0
H821 H 0.44244 0.08148 0.79749 0.0
H822 H 0.44166 0.11124 0.77393 0.0
H823 H 0.4727 0.08361 0.83477 0.0
H824 H 0.39696 0.05718 0.83136 0.0
H825 H 0.36365 0.05889 0.83662 0.0
H826 H 0.37531 0.06941 0.92156 0.0
H827 H 0.40888 0.06809 0.91677 0.0
C828 C 0.46081 0.00538 0.914 0.0
C829 C 0.46307 0.01087 0.94146 0.0
C830 C 0.4551 0.01642 0.89549 0.0
C831 C 0.45138 0.03292 0.90425 0.0
C832 C 0.45246 0.03754 0.93182 0.0
C833 C 0.45838 0.02673 0.95022 0.0
C834 C 0.44791 0.04659 0.88483 0.0
C835 C 0.42908 0.04788 0.88694 0.0
C836 C 0.46367 0.05933 0.86546 0.0
C837 C 0.48444 0.05959 0.86333 0.0
C838 C 0.49845 0.06543 0.88556 0.0
C839 C 0.5179 0.06541 0.88348 0.0
C840 C 0.52365 0.05986 0.85917 0.0
C841 C 0.50997 0.05434 0.83688 0.0
C842 C 0.49046 0.05424 0.83888 0.0
C843 C 0.43959 0.126 0.83865 0.0
C844 C 0.44016 0.12706 0.81039 0.0
C845 C 0.43996 0.10905 0.85198 0.0
C846 C 0.44092 0.09281 0.83734 0.0
C847 C 0.4416 0.09382 0.80912 0.0
C848 C 0.44104 0.11073 0.79572 0.0
C849 C 0.44184 0.0752 0.85183 0.0
C850 C 0.46026 0.07324 0.8489 0.0
C851 C 0.42579 0.06198 0.87063 0.0
C852 C 0.40553 0.06267 0.87366 0.0
C853 C 0.39251 0.06001 0.85113 0.0
C854 C 0.37356 0.06089 0.85404 0.0
C855 C 0.36738 0.06429 0.8794 0.0
C856 C 0.38012 0.06678 0.90193 0.0
C857 C 0.3991 0.06594 0.89913 0.0
H858 H 0.35271 0.06496 0.88161 0.0
H859 H 0.53873 0.05989 0.85759 0.0
H860 H 0.46913 0.46264 0.41156 0.0
H861 H 0.43808 0.44954 0.38117 0.0
H862 H 0.40111 0.45704 0.44438 0.0
H863 H 0.4319 0.47008 0.47475 0.0
H864 H 0.37755 0.41903 0.41589 0.0
H865 H 0.42486 0.49527 0.39814 0.0
H866 H 0.45945 0.52712 0.38557 0.0
H867 H 0.45811 0.49789 0.30959 0.0
H868 H 0.42363 0.46572 0.3219 0.0
H869 H 0.29659 0.43326 0.35744 0.0
H870 H 0.32771 0.43611 0.38114 0.0
H871 H 0.35458 0.43086 0.30573 0.0
H872 H 0.32367 0.42871 0.28168 0.0
H873 H 0.38434 0.46312 0.33547 0.0
H874 H 0.33403 0.38912 0.35044 0.0
H875 H 0.29932 0.35743 0.36294 0.0
H876 H 0.30604 0.38167 0.44352 0.0
H877 H 0.34064 0.41368 0.43142 0.0
C878 C 0.45431 0.46128 0.41905 0.0
C879 C 0.45302 0.46755 0.4455 0.0
C880 C 0.43663 0.45385 0.40165 0.0
C881 C 0.41738 0.45248 0.41051 0.0
C882 C 0.41582 0.45796 0.43717 0.0
C883 C 0.43348 0.46552 0.45446 0.0
C884 C 0.39909 0.44642 0.39184 0.0
C885 C 0.37897 0.42866 0.39832 0.0
C886 C 0.40117 0.45864 0.36851 0.0
C887 C 0.42183 0.47799 0.36108 0.0
C888 C 0.43204 0.49556 0.37885 0.0
C889 C 0.4516 0.51368 0.37176 0.0
C890 C 0.46101 0.51449 0.34683 0.0
C891 C 0.45083 0.49721 0.32892 0.0
C892 C 0.43128 0.47904 0.33594 0.0
C893 C 0.30914 0.43277 0.34585 0.0
C894 C 0.3077 0.43086 0.31766 0.0
C895 C 0.32681 0.43414 0.35947 0.0
C896 C 0.34335 0.43341 0.34525 0.0
C897 C 0.34192 0.43132 0.31711 0.0
C898 C 0.3242 0.42996 0.30343 0.0
C899 C 0.36257 0.436 0.35986 0.0
C900 C 0.38291 0.45314 0.35267 0.0
C901 C 0.36069 0.42316 0.38251 0.0
C902 C 0.33989 0.40388 0.38995 0.0
C903 C 0.32804 0.38778 0.37078 0.0
C904 C 0.30839 0.36974 0.3778 0.0
C905 C 0.30046 0.36756 0.404 0.0
C906 C 0.3122 0.38339 0.42324 0.0
C907 C 0.33185 0.40147 0.41631 0.0
H908 H 0.28525 0.35358 0.40939 0.0
H909 H 0.47615 0.52854 0.34137 0.0
H910 H 0.00384 0.4717 0.90711 0.0
H911 H 0.98355 0.44101 0.87676 0.0
H912 H 0.9408 0.40499 0.94187 0.0
H913 H 0.96089 0.43535 0.97219 0.0
H914 H 0.95225 0.38027 0.91202 0.0
H915 H 0.9261 0.43001 0.89681 0.0
H916 H 0.92978 0.46512 0.88492 0.0
H917 H 0.95481 0.46256 0.80734 0.0
H918 H 0.95153 0.42753 0.81894 0.0
H919 H 0.85468 0.30174 0.85509 0.0
H920 H 0.88338 0.3328 0.8785 0.0
H921 H 0.91619 0.35816 0.80305 0.0
H922 H 0.88713 0.32723 0.7793 0.0
H923 H 0.91462 0.38905 0.83331 0.0
H924 H 0.93576 0.33643 0.84673 0.0
H925 H 0.93113 0.301 0.8589 0.0
H926 H 0.9152 0.30865 0.93992 0.0
H927 H 0.91942 0.344 0.92815 0.0
C928 C 0.99024 0.45716 0.91499 0.0
C929 C 0.9839 0.45601 0.94202 0.0
C930 C 0.97863 0.43969 0.89762 0.0
C931 C 0.96057 0.4208 0.90704 0.0
C932 C 0.95468 0.41941 0.93419 0.0
C933 C 0.96615 0.43684 0.95147 0.0
C934 C 0.94717 0.40266 0.88864 0.0
C935 C 0.94396 0.38215 0.89485 0.0
C936 C 0.93684 0.40526 0.86583 0.0
C937 C 0.93884 0.42631 0.85887 0.0
C938 C 0.93257 0.43703 0.87731 0.0
C939 C 0.93455 0.4569 0.87061 0.0
C940 C 0.94259 0.4661 0.84542 0.0
C941 C 0.94863 0.45543 0.82686 0.0
C942 C 0.94671 0.43558 0.83349 0.0
C943 C 0.86793 0.31398 0.84342 0.0
C944 C 0.8686 0.31206 0.81532 0.0
C945 C 0.88444 0.33161 0.85687 0.0
C946 C 0.90206 0.34766 0.84256 0.0
C947 C 0.90279 0.34588 0.81448 0.0
C948 C 0.88626 0.32816 0.80098 0.0
C949 C 0.91928 0.36654 0.85706 0.0
C950 C 0.92321 0.38719 0.85015 0.0
C951 C 0.93025 0.36406 0.87927 0.0
C952 C 0.92778 0.34283 0.88649 0.0
C953 C 0.93112 0.3305 0.8671 0.0
C954 C 0.92859 0.31043 0.87393 0.0
C955 C 0.92284 0.30256 0.90015 0.0
C956 C 0.91965 0.31476 0.91961 0.0
C957 C 0.92214 0.33483 0.91288 0.0
H958 H 0.92089 0.28702 0.90541 0.0
H959 H 0.9441 0.48147 0.84026 0.0
H960 H 0.98346 0.54428 0.95888 0.0
H961 H 0.95877 0.55335 0.93599 0.0
H962 H 0.90514 0.50232 0.97871 0.0
H963 H 0.92983 0.49343 0.00222 0.0
H964 H 0.9027 0.50232 0.919 0.0
H965 H 0.91615 0.54829 0.99599 0.0
H966 H 0.93921 0.57641 0.02857 0.0
H967 H 0.96744 0.62236 0.96437 0.0
H968 H 0.94476 0.59441 0.93133 0.0
H969 H 0.82429 0.52193 0.86185 0.0
H970 H 0.84601 0.51545 0.8945 0.0
H971 H 0.9014 0.57681 0.87417 0.0
H972 H 0.87936 0.58368 0.84235 0.0
H973 H 0.90193 0.57105 0.92525 0.0
H974 H 0.89299 0.52749 0.84816 0.0
H975 H 0.87332 0.50061 0.81269 0.0
H976 H 0.8409 0.45172 0.87279 0.0
H977 H 0.86017 0.4784 0.90865 0.0
C978 C 0.96644 0.5352 0.9637 0.0
C979 C 0.95853 0.51812 0.98229 0.0
C980 C 0.9524 0.54044 0.95067 0.0
C981 C 0.9302 0.5285 0.95573 0.0
C982 C 0.92227 0.51173 0.97466 0.0
C983 C 0.93637 0.50674 0.98812 0.0
C984 C 0.91523 0.53261 0.93973 0.0
C985 C 0.90215 0.51714 0.92068 0.0
C986 C 0.91531 0.55233 0.9413 0.0
C987 C 0.92888 0.56919 0.96116 0.0
C988 C 0.92741 0.56434 0.98878 0.0
C989 C 0.94038 0.58026 0.00734 0.0
C990 C 0.95482 0.60115 0.99854 0.0
C991 C 0.95626 0.60617 0.97116 0.0
C992 C 0.94333 0.59029 0.95251 0.0
C993 C 0.84108 0.53404 0.86453 0.0
C994 C 0.85025 0.55322 0.84954 0.0
C995 C 0.8535 0.53032 0.88307 0.0
C996 C 0.87549 0.54543 0.88641 0.0
C997 C 0.8845 0.56489 0.87195 0.0
C998 C 0.87194 0.5688 0.85376 0.0
C999 C 0.88921 0.5407 0.90437 0.0
C1000 C 0.9022 0.55609 0.92369 0.0
C1001 C 0.88948 0.52108 0.9026 0.0
C1002 C 0.87784 0.505 0.88109 0.0
C1003 C 0.88153 0.51105 0.85382 0.0
C1004 C 0.87048 0.49584 0.83364 0.0
C1005 C 0.85582 0.47449 0.84049 0.0
C1006 C 0.85223 0.46828 0.86752 0.0
C1007 C 0.86322 0.48343 0.88778 0.0
H1008 H 0.84729 0.46274 0.82484 0.0
H1009 H 0.96485 0.61345 0.01294 0.0
H1010 H 0.45371 0.98139 0.43858 0.0
H1011 H 0.41901 0.96068 0.41613 0.0
H1012 H 0.39394 0.91874 0.48515 0.0
H1013 H 0.4289 0.93921 0.50769 0.0
H1014 H 0.38369 0.89603 0.43987 0.0
H1015 H 0.37866 0.95619 0.47146 0.0
H1016 H 0.39067 0.99463 0.47864 0.0
H1017 H 0.39162 0.00428 0.39323 0.0
H1018 H 0.37993 0.96597 0.38549 0.0
H1019 H 0.27754 0.84244 0.38732 0.0
H1020 H 0.30775 0.86513 0.417 0.0
H1021 H 0.34085 0.90797 0.35074 0.0
H1022 H 0.31085 0.88521 0.3208 0.0
H1023 H 0.34485 0.92992 0.3984 0.0
H1024 H 0.35327 0.87065 0.36739 0.0
H1025 H 0.34158 0.83228 0.36024 0.0
H1026 H 0.33423 0.82123 0.44554 0.0
H1027 H 0.34559 0.8595 0.45317 0.0
C1028 C 0.44082 0.96783 0.4491 0.0
C1029 C 0.44408 0.96196 0.47496 0.0
C1030 C 0.42092 0.95608 0.43627 0.0
C1031 C 0.40377 0.93836 0.44911 0.0
C1032 C 0.40694 0.93243 0.47493 0.0
C1033 C 0.42691 0.94415 0.48778 0.0
C1034 C 0.38288 0.92551 0.43497 0.0
C1035 C 0.37497 0.90338 0.43129 0.0
C1036 C 0.37173 0.93518 0.42331 0.0
C1037 C 0.37856 0.95821 0.42789 0.0
C1038 C 0.38157 0.96653 0.45419 0.0
C1039 C 0.3883 0.9883 0.45837 0.0
C1040 C 0.39195 0.0019 0.43641 0.0
C1041 C 0.3888 0.99374 0.41022 0.0
C1042 C 0.38209 0.97199 0.40593 0.0
C1043 C 0.29124 0.8567 0.37905 0.0
C1044 C 0.29189 0.86189 0.35161 0.0
C1045 C 0.30844 0.86969 0.39607 0.0
C1046 C 0.32663 0.88808 0.38598 0.0
C1047 C 0.32693 0.89385 0.35892 0.0
C1048 C 0.30975 0.88085 0.34186 0.0
C1049 C 0.34586 0.90058 0.40318 0.0
C1050 C 0.35346 0.9226 0.40734 0.0
C1051 C 0.35673 0.89084 0.41538 0.0
C1052 C 0.35004 0.86787 0.41083 0.0
C1053 C 0.34899 0.86 0.38461 0.0
C1054 C 0.34246 0.83828 0.38047 0.0
C1055 C 0.33711 0.82431 0.40242 0.0
C1056 C 0.33834 0.83206 0.42856 0.0
C1057 C 0.34484 0.85376 0.4328 0.0
H1058 H 0.33205 0.8075 0.39917 0.0
H1059 H 0.39719 0.01875 0.43967 0.0
H1060 H 0.51692 0.44164 0.98639 0.0
H1061 H 0.50689 0.40882 0.96031 0.0
H1062 H 0.44953 0.40804 0.93237 0.0
H1063 H 0.45981 0.44124 0.95761 0.0
H1064 H 0.44727 0.36553 0.95465 0.0
H1065 H 0.48016 0.42404 0.88951 0.0
H1066 H 0.50882 0.45877 0.87168 0.0
H1067 H 0.55403 0.43614 0.87622 0.0
H1068 H 0.52569 0.40136 0.89451 0.0
H1069 H 0.41455 0.28867 0.84888 0.0
H1070 H 0.42257 0.31946 0.87754 0.0
H1071 H 0.49005 0.33864 0.87671 0.0
H1072 H 0.48244 0.30902 0.84646 0.0
H1073 H 0.48697 0.37211 0.87013 0.0
H1074 H 0.45542 0.31348 0.93272 0.0
H1075 H 0.42784 0.27824 0.95061 0.0
H1076 H 0.38195 0.3001 0.9532 0.0
H1077 H 0.40919 0.3354 0.93498 0.0
C1078 C 0.50206 0.43431 0.97492 0.0
C1079 C 0.48911 0.4439 0.97395 0.0
C1080 C 0.49642 0.41567 0.96002 0.0
C1081 C 0.47752 0.40616 0.9445 0.0
C1082 C 0.46416 0.41523 0.9443 0.0
C1083 C 0.47007 0.43415 0.95863 0.0
C1084 C 0.47215 0.38719 0.92761 0.0
C1085 C 0.45573 0.36688 0.93601 0.0
C1086 C 0.48366 0.38907 0.90377 0.0
C1087 C 0.50087 0.41021 0.89368 0.0
C1088 C 0.49629 0.42659 0.8871 0.0
C1089 C 0.51244 0.44623 0.87678 0.0
C1090 C 0.5332 0.44962 0.87274 0.0
C1091 C 0.53791 0.43345 0.87928 0.0
C1092 C 0.52182 0.41379 0.88964 0.0
C1093 C 0.43113 0.29955 0.85455 0.0
C1094 C 0.44781 0.2962 0.84535 0.0
C1095 C 0.43566 0.317 0.87131 0.0
C1096 C 0.45689 0.33122 0.87969 0.0
C1097 C 0.47352 0.32787 0.87064 0.0
C1098 C 0.46907 0.31068 0.85357 0.0
C1099 C 0.46202 0.35008 0.89707 0.0
C1100 C 0.47844 0.37052 0.8888 0.0
C1101 C 0.4507 0.34821 0.92125 0.0
C1102 C 0.43429 0.32701 0.93222 0.0
C1103 C 0.4394 0.31072 0.9369 0.0
C1104 C 0.42384 0.29074 0.94714 0.0
C1105 C 0.40314 0.28691 0.95297 0.0
C1106 C 0.39798 0.30308 0.94864 0.0
C1107 C 0.41348 0.32308 0.93838 0.0
H1108 H 0.39112 0.27143 0.9609 0.0
H1109 H 0.54563 0.46475 0.8645 0.0
H1110 H 0.01592 0.45845 0.45255 0.0
H1111 H 0.03822 0.44756 0.42717 0.0
H1112 H 0.09536 0.4988 0.46421 0.0
H1113 H 0.07313 0.50948 0.49028 0.0
H1114 H 0.09185 0.49454 0.40198 0.0
H1115 H 0.08572 0.45607 0.48532 0.0
H1116 H 0.06487 0.43095 0.52187 0.0
H1117 H 0.03158 0.38013 0.46427 0.0
H1118 H 0.05204 0.40506 0.42732 0.0
H1119 H 0.17085 0.47511 0.34982 0.0
H1120 H 0.14855 0.48269 0.37935 0.0
H1121 H 0.09587 0.4177 0.36888 0.0
H1122 H 0.11882 0.40927 0.34125 0.0
H1123 H 0.09572 0.42816 0.41772 0.0
H1124 H 0.09916 0.46288 0.33488 0.0
H1125 H 0.11583 0.48611 0.29528 0.0
H1126 H 0.14867 0.54143 0.34671 0.0
H1127 H 0.13244 0.51847 0.38667 0.0
C1128 C 0.03322 0.46727 0.45548 0.0
C1129 C 0.04283 0.48482 0.47335 0.0
C1130 C 0.04589 0.461 0.44104 0.0
C1131 C 0.06835 0.4724 0.44392 0.0
C1132 C 0.07801 0.48982 0.46186 0.0
C1133 C 0.06531 0.49583 0.47675 0.0
C1134 C 0.08178 0.46673 0.42719 0.0
C1135 C 0.09304 0.48024 0.40558 0.0
C1136 C 0.08235 0.44753 0.43131 0.0
C1137 C 0.07025 0.43249 0.45354 0.0
C1138 C 0.07382 0.43959 0.48043 0.0
C1139 C 0.0621 0.42537 0.50122 0.0
C1140 C 0.04686 0.40397 0.49539 0.0
C1141 C 0.04337 0.39672 0.46876 0.0
C1142 C 0.05504 0.41088 0.44789 0.0
C1143 C 0.1547 0.46218 0.35417 0.0
C1144 C 0.14675 0.4415 0.343 0.0
C1145 C 0.14178 0.46671 0.37075 0.0
C1146 C 0.12031 0.45095 0.37587 0.0
C1147 C 0.11233 0.43021 0.36509 0.0
C1148 C 0.12543 0.42549 0.34895 0.0
C1149 C 0.1063 0.45621 0.39247 0.0
C1150 C 0.09472 0.44256 0.414 0.0
C1151 C 0.10492 0.47501 0.38779 0.0
C1152 C 0.11474 0.4889 0.3638 0.0
C1153 C 0.11007 0.47997 0.33777 0.0
C1154 C 0.11942 0.49309 0.31525 0.0
C1155 C 0.13335 0.51522 0.31848 0.0
C1156 C 0.13791 0.52428 0.34424 0.0
C1157 C 0.12862 0.51122 0.36683 0.0
H1158 H 0.14057 0.52536 0.30102 0.0
H1159 H 0.0378 0.39299 0.51152 0.0
H1160 H 0.56499 0.06964 0.00589 0.0
H1161 H 0.59879 0.09295 0.98204 0.0
H1162 H 0.5795 0.04587 0.91841 0.0
H1163 H 0.54611 0.02248 0.94213 0.0
H1164 H 0.62041 0.06065 0.93118 0.0
H1165 H 0.57555 0.09133 0.91114 0.0
H1166 H 0.55272 0.10707 0.92192 0.0
H1167 H 0.60535 0.15887 0.96438 0.0
H1168 H 0.62845 0.14331 0.9541 0.0
H1169 H 0.6851 0.12235 0.82121 0.0
H1170 H 0.65562 0.10028 0.85202 0.0
H1171 H 0.684 0.15008 0.91239 0.0
H1172 H 0.71382 0.17212 0.8819 0.0
H1173 H 0.64071 0.13527 0.90497 0.0
H1174 H 0.68643 0.10518 0.92022 0.0
H1175 H 0.70854 0.08915 0.90709 0.0
H1176 H 0.65316 0.03554 0.87112 0.0
H1177 H 0.63077 0.05141 0.8837 0.0
C1178 C 0.568 0.06426 0.98686 0.0
C1179 C 0.55284 0.04421 0.97592 0.0
C1180 C 0.58728 0.07761 0.97322 0.0
C1181 C 0.59159 0.07119 0.94835 0.0
C1182 C 0.57656 0.05112 0.9376 0.0
C1183 C 0.55742 0.03778 0.9512 0.0
C1184 C 0.61161 0.08532 0.93318 0.0
C1185 C 0.62477 0.07692 0.92529 0.0
C1186 C 0.61752 0.10667 0.92593 0.0
C1187 C 0.60365 0.11603 0.93213 0.0
C1188 C 0.5822 0.10598 0.92297 0.0
C1189 C 0.56922 0.11488 0.92895 0.0
C1190 C 0.57755 0.1339 0.94391 0.0
C1191 C 0.5989 0.14411 0.95285 0.0
C1192 C 0.61195 0.13527 0.94694 0.0
C1193 C 0.68531 0.12846 0.8412 0.0
C1194 C 0.70183 0.14902 0.84907 0.0
C1195 C 0.6684 0.11586 0.85876 0.0
C1196 C 0.6677 0.12352 0.88453 0.0
C1197 C 0.68423 0.14392 0.89255 0.0
C1198 C 0.7012 0.15651 0.87506 0.0
C1199 C 0.64932 0.1105 0.90272 0.0
C1200 C 0.63647 0.11909 0.91113 0.0
C1201 C 0.64356 0.08923 0.91018 0.0
C1202 C 0.65696 0.07958 0.90273 0.0
C1203 C 0.679 0.09006 0.90934 0.0
C1204 C 0.69158 0.08098 0.90202 0.0
C1205 C 0.68227 0.06136 0.88823 0.0
C1206 C 0.66035 0.05074 0.88179 0.0
C1207 C 0.6477 0.05976 0.88904 0.0
H1208 H 0.69204 0.05436 0.88258 0.0
H1209 H 0.56748 0.14077 0.94851 0.0
H1210 H 0.52498 0.54977 0.44161 0.0
H1211 H 0.53737 0.58418 0.41929 0.0
H1212 H 0.51896 0.60769 0.48844 0.0
H1213 H 0.50598 0.57282 0.51093 0.0
H1214 H 0.507 0.61861 0.44282 0.0
H1215 H 0.57205 0.62519 0.47606 0.0
H1216 H 0.59908 0.61429 0.48513 0.0
H1217 H 0.6091 0.6121 0.40024 0.0
H1218 H 0.58189 0.62267 0.39063 0.0
H1219 H 0.56114 0.72341 0.3807 0.0
H1220 H 0.5534 0.6951 0.41402 0.0
H1221 H 0.55797 0.65556 0.35186 0.0
H1222 H 0.56554 0.68368 0.31853 0.0
H1223 H 0.57954 0.65693 0.40086 0.0
H1224 H 0.51051 0.64578 0.36905 0.0
H1225 H 0.48359 0.65698 0.3608 0.0
H1226 H 0.48211 0.66896 0.44526 0.0
H1227 H 0.50929 0.65811 0.45395 0.0
C1228 C 0.52358 0.56223 0.45221 0.0
C1229 C 0.5146 0.55858 0.47816 0.0
C1230 C 0.53081 0.58198 0.43943 0.0
C1231 C 0.52952 0.59868 0.4524 0.0
C1232 C 0.52025 0.59506 0.47816 0.0
C1233 C 0.51287 0.57515 0.49097 0.0
C1234 C 0.53742 0.61963 0.43847 0.0
C1235 C 0.52304 0.62726 0.43418 0.0
C1236 C 0.5583 0.63085 0.42699 0.0
C1237 C 0.57481 0.62461 0.43263 0.0
C1238 C 0.57991 0.62225 0.45931 0.0
C1239 C 0.59528 0.61614 0.46455 0.0
C1240 C 0.60578 0.61247 0.44328 0.0
C1241 C 0.60096 0.61495 0.41671 0.0
C1242 C 0.58558 0.62103 0.41135 0.0
C1243 C 0.56074 0.70877 0.37428 0.0
C1244 C 0.56385 0.70563 0.34708 0.0
C1245 C 0.55624 0.69263 0.39326 0.0
C1246 C 0.55503 0.67325 0.38531 0.0
C1247 C 0.55886 0.67042 0.35834 0.0
C1248 C 0.56306 0.6864 0.33934 0.0
C1249 C 0.54893 0.65546 0.40472 0.0
C1250 C 0.56367 0.64847 0.41 0.0
C1251 C 0.52849 0.64497 0.41731 0.0
C1252 C 0.51212 0.65141 0.4121 0.0
C1253 C 0.5046 0.651 0.38583 0.0
C1254 C 0.48926 0.65724 0.38108 0.0
C1255 C 0.4812 0.66375 0.40248 0.0
C1256 C 0.48841 0.66396 0.42869 0.0
C1257 C 0.50377 0.65777 0.43354 0.0
H1258 H 0.46932 0.66856 0.39877 0.0
H1259 H 0.61767 0.60774 0.44737 0.0
H1260 H 0.46675 0.0272 0.53901 0.0
H1261 H 0.45727 0.0521 0.56009 0.0
H1262 H 0.5108 0.10558 0.52035 0.0
H1263 H 0.5203 0.08059 0.49873 0.0
H1264 H 0.50855 0.10935 0.57793 0.0
H1265 H 0.46352 0.09333 0.49984 0.0
H1266 H 0.4365 0.06912 0.46684 0.0
H1267 H 0.38947 0.04037 0.52974 0.0
H1268 H 0.41629 0.06417 0.56321 0.0
H1269 H 0.48237 0.18239 0.63759 0.0
H1270 H 0.49088 0.1632 0.60339 0.0
H1271 H 0.43127 0.10479 0.62104 0.0
H1272 H 0.42232 0.12431 0.65438 0.0
H1273 H 0.43808 0.10635 0.56984 0.0
H1274 H 0.48134 0.11611 0.64799 0.0
H1275 H 0.50726 0.1364 0.68414 0.0
H1276 H 0.55608 0.17243 0.62525 0.0
H1277 H 0.53035 0.15255 0.58871 0.0
C1278 C 0.4764 0.04424 0.53451 0.0
C1279 C 0.49433 0.05199 0.51732 0.0
C1280 C 0.47088 0.05841 0.54646 0.0
C1281 C 0.48328 0.08061 0.54164 0.0
C1282 C 0.50101 0.08844 0.52417 0.0
C1283 C 0.50636 0.07419 0.51182 0.0
C1284 C 0.47845 0.09557 0.5565 0.0
C1285 C 0.49337 0.10913 0.57576 0.0
C1286 C 0.45828 0.09454 0.55426 0.0
C1287 C 0.44199 0.08047 0.53408 0.0
C1288 C 0.44746 0.08176 0.50668 0.0
C1289 C 0.43217 0.06811 0.48787 0.0
C1290 C 0.4113 0.05319 0.49619 0.0
C1291 C 0.40565 0.05193 0.52332 0.0
C1292 C 0.42088 0.06552 0.54221 0.0
C1293 C 0.47106 0.16549 0.63395 0.0
C1294 C 0.45181 0.15471 0.64868 0.0
C1295 C 0.47594 0.15452 0.6145 0.0
C1296 C 0.46195 0.13241 0.61002 0.0
C1297 C 0.44235 0.12182 0.62414 0.0
C1298 C 0.43726 0.13292 0.64322 0.0
C1299 C 0.46815 0.12011 0.59156 0.0
C1300 C 0.45344 0.10694 0.57173 0.0
C1301 C 0.48833 0.12106 0.5937 0.0
C1302 C 0.50385 0.13303 0.61562 0.0
C1303 C 0.49756 0.12848 0.64275 0.0
C1304 C 0.51222 0.13988 0.66331 0.0
C1305 C 0.53328 0.15574 0.657 0.0
C1306 C 0.53975 0.16018 0.63011 0.0
C1307 C 0.52513 0.14884 0.60946 0.0
H1308 H 0.54461 0.16455 0.67294 0.0
H1309 H 0.39949 0.04263 0.48162 0.0
H1310 H 0.44364 0.46184 0.0447 0.0
H1311 H 0.41007 0.45111 0.06902 0.0
H1312 H 0.40516 0.50256 0.0309 0.0
H1313 H 0.43854 0.51314 0.00596 0.0
H1314 H 0.4028 0.49991 0.09079 0.0
H1315 H 0.37155 0.45724 0.01091 0.0
H1316 H 0.36751 0.43102 0.97599 0.0
H1317 H 0.35111 0.38243 0.0365 0.0
H1318 H 0.35537 0.40847 0.07185 0.0
H1319 H 0.30319 0.47515 0.14727 0.0
H1320 H 0.33213 0.48366 0.11501 0.0
H1321 H 0.32763 0.42236 0.13146 0.0
H1322 H 0.29797 0.41347 0.16293 0.0
H1323 H 0.33452 0.43037 0.08056 0.0
H1324 H 0.36732 0.47086 0.16032 0.0
H1325 H 0.37321 0.4959 0.19767 0.0
H1326 H 0.38917 0.54709 0.14116 0.0
H1327 H 0.38307 0.52226 0.10344 0.0
C1328 C 0.4353 0.47074 0.04129 0.0
C1329 C 0.4437 0.48835 0.02349 0.0
C1330 C 0.41612 0.46454 0.05511 0.0
C1331 C 0.40521 0.47604 0.05165 0.0
C1332 C 0.41339 0.49349 0.0337 0.0
C1333 C 0.43238 0.49945 0.01945 0.0
C1334 C 0.38593 0.47053 0.06801 0.0
C1335 C 0.3877 0.4849 0.0883 0.0
C1336 C 0.36665 0.45057 0.06529 0.0
C1337 C 0.36399 0.43487 0.04405 0.0
C1338 C 0.36728 0.44102 0.0168 0.0
C1339 C 0.36491 0.42618 0.99692 0.0
C1340 C 0.35911 0.40509 0.00402 0.0
C1341 C 0.35562 0.39878 0.03103 0.0
C1342 C 0.35799 0.41357 0.05099 0.0
C1343 C 0.30837 0.46349 0.14385 0.0
C1344 C 0.29858 0.44376 0.15767 0.0
C1345 C 0.32493 0.46838 0.12552 0.0
C1346 C 0.33242 0.45386 0.12123 0.0
C1347 C 0.32219 0.43384 0.13448 0.0
C1348 C 0.30531 0.42878 0.15246 0.0
C1349 C 0.35125 0.45981 0.10347 0.0
C1350 C 0.3495 0.44549 0.08301 0.0
C1351 C 0.37079 0.47965 0.10641 0.0
C1352 C 0.37451 0.49464 0.12905 0.0
C1353 C 0.37192 0.48742 0.15585 0.0
C1354 C 0.37532 0.50158 0.17709 0.0
C1355 C 0.3815 0.52306 0.17179 0.0
C1356 C 0.38435 0.53044 0.14523 0.0
C1357 C 0.38093 0.51633 0.12392 0.0
H1358 H 0.38414 0.534 0.18826 0.0
H1359 H 0.35728 0.39363 0.9886 0.0
H1360 H 0.97921 0.44025 0.54632 0.0
H1361 H 0.95581 0.40652 0.56998 0.0
H1362 H 0.90056 0.40107 0.52809 0.0
H1363 H 0.92393 0.43471 0.50395 0.0
H1364 H 0.89732 0.39786 0.58617 0.0
H1365 H 0.91578 0.36784 0.51085 0.0
H1366 H 0.94102 0.36505 0.47966 0.0
H1367 H 0.9702 0.35043 0.5458 0.0
H1368 H 0.94532 0.35343 0.57746 0.0
H1369 H 0.82181 0.29791 0.64067 0.0
H1370 H 0.84335 0.32639 0.60829 0.0
H1371 H 0.90031 0.32491 0.63336 0.0
H1372 H 0.8785 0.2957 0.66498 0.0
H1373 H 0.9022 0.33123 0.58177 0.0
H1374 H 0.88786 0.3633 0.65732 0.0
H1375 H 0.86573 0.36832 0.69136 0.0
H1376 H 0.83273 0.38189 0.62893 0.0
H1377 H 0.85446 0.37663 0.59447 0.0
C1378 C 0.96211 0.43177 0.54193 0.0
C1379 C 0.95338 0.44014 0.52333 0.0
C1380 C 0.9488 0.41248 0.55538 0.0
C1381 C 0.92652 0.40134 0.55067 0.0
C1382 C 0.91776 0.40946 0.53188 0.0
C1383 C 0.93112 0.42861 0.51808 0.0
C1384 C 0.91229 0.38192 0.56663 0.0
C1385 C 0.89804 0.38311 0.58489 0.0
C1386 C 0.91399 0.3631 0.56561 0.0
C1387 C 0.92879 0.36104 0.54656 0.0
C1388 C 0.92768 0.36419 0.51878 0.0
C1389 C 0.94191 0.36254 0.501 0.0
C1390 C 0.95724 0.35762 0.51075 0.0
C1391 C 0.95833 0.35426 0.53828 0.0
C1392 C 0.94415 0.3559 0.55614 0.0
C1393 C 0.83891 0.30359 0.63905 0.0
C1394 C 0.8486 0.29483 0.65538 0.0
C1395 C 0.85122 0.3199 0.62066 0.0
C1396 C 0.87356 0.32817 0.61882 0.0
C1397 C 0.88312 0.31886 0.63447 0.0
C1398 C 0.8707 0.30222 0.65253 0.0
C1399 C 0.88702 0.34705 0.60135 0.0
C1400 C 0.90125 0.34585 0.58293 0.0
C1401 C 0.88571 0.36612 0.60264 0.0
C1402 C 0.87263 0.36934 0.62331 0.0
C1403 C 0.87577 0.36719 0.65084 0.0
C1404 C 0.86331 0.3701 0.67021 0.0
C1405 C 0.84779 0.37536 0.66231 0.0
C1406 C 0.84473 0.37778 0.63502 0.0
C1407 C 0.85712 0.37484 0.61556 0.0
H1408 H 0.83817 0.37762 0.67734 0.0
H1409 H 0.96825 0.35637 0.49696 0.0
H1410 H 0.52718 0.97918 0.06138 0.0
H1411 H 0.53888 0.95802 0.08729 0.0
H1412 H 0.51145 0.90762 0.02754 0.0
H1413 H 0.49981 0.9289 0.00115 0.0
H1414 H 0.51505 0.9201 0.11054 0.0
H1415 H 0.54149 0.88209 0.02646 0.0
H1416 H 0.55738 0.89108 0.98096 0.0
H1417 H 0.58646 0.95858 0.99883 0.0
H1418 H 0.57101 0.95 0.04453 0.0
H1419 H 0.52104 0.83206 0.16309 0.0
H1420 H 0.51342 0.85461 0.13343 0.0
H1421 H 0.58157 0.89759 0.12218 0.0
H1422 H 0.58936 0.87466 0.15117 0.0
H1423 H 0.55981 0.89061 0.07522 0.0
H1424 H 0.55404 0.91025 0.1655 0.0
H1425 H 0.54107 0.90379 0.21239 0.0
H1426 H 0.47607 0.87881 0.18474 0.0
H1427 H 0.48859 0.88463 0.13762 0.0
C1428 C 0.52374 0.96367 0.05356 0.0
C1429 C 0.5125 0.95571 0.02918 0.0
C1430 C 0.53041 0.95157 0.06848 0.0
C1431 C 0.52608 0.93128 0.05935 0.0
C1432 C 0.51516 0.92336 0.03482 0.0
C1433 C 0.50846 0.9355 0.0198 0.0
C1434 C 0.53232 0.91816 0.07616 0.0
C1435 C 0.52482 0.91364 0.10279 0.0
C1436 C 0.54537 0.91004 0.06619 0.0
C1437 C 0.55488 0.91538 0.03881 0.0
C1438 C 0.55133 0.89885 0.0207 0.0
C1439 C 0.56026 0.90387 0.99487 0.0
C1440 C 0.57286 0.92539 0.98698 0.0
C1441 C 0.57662 0.94192 0.00493 0.0
C1442 C 0.56775 0.93699 0.03078 0.0
C1443 C 0.53442 0.84614 0.15402 0.0
C1444 C 0.55582 0.8516 0.15955 0.0
C1445 C 0.53003 0.8591 0.13724 0.0
C1446 C 0.54693 0.87789 0.12585 0.0
C1447 C 0.5683 0.88317 0.13083 0.0
C1448 C 0.57272 0.87018 0.14761 0.0
C1449 C 0.54225 0.89232 0.1094 0.0
C1450 C 0.55 0.89705 0.08289 0.0
C1451 C 0.52981 0.90105 0.11965 0.0
C1452 C 0.52224 0.8977 0.148 0.0
C1453 C 0.53696 0.90322 0.1694 0.0
C1454 C 0.52969 0.8997 0.19603 0.0
C1455 C 0.50775 0.8909 0.20155 0.0
C1456 C 0.49305 0.88561 0.18044 0.0
C1457 C 0.50022 0.88901 0.15376 0.0
H1458 H 0.50215 0.8882 0.22217 0.0
H1459 H 0.57975 0.92924 0.96697 0.0
H1460 H 0.57477 0.50607 0.49328 0.0
H1461 H 0.60965 0.51884 0.51546 0.0
H1462 H 0.58735 0.53908 0.58413 0.0
H1463 H 0.55285 0.5269 0.56198 0.0
H1464 H 0.62725 0.56864 0.57249 0.0
H1465 H 0.58844 0.49129 0.58364 0.0
H1466 H 0.56876 0.45353 0.56817 0.0
H1467 H 0.624 0.46375 0.52259 0.0
H1468 H 0.64391 0.50168 0.53755 0.0
H1469 H 0.692 0.56853 0.68029 0.0
H1470 H 0.66336 0.5623 0.64866 0.0
H1471 H 0.69652 0.54923 0.58552 0.0
H1472 H 0.72549 0.55581 0.61695 0.0
H1473 H 0.65425 0.51802 0.58927 0.0
H1474 H 0.69437 0.59491 0.5837 0.0
H1475 H 0.71349 0.63209 0.60123 0.0
H1476 H 0.65517 0.62223 0.63841 0.0
H1477 H 0.63576 0.58488 0.62143 0.0
C1478 C 0.57735 0.5133 0.51307 0.0
C1479 C 0.561 0.51537 0.52591 0.0
C1480 C 0.59726 0.52054 0.52574 0.0
C1481 C 0.60104 0.52973 0.55158 0.0
C1482 C 0.58484 0.53211 0.56418 0.0
C1483 C 0.56506 0.52503 0.5515 0.0
C1484 C 0.62159 0.53648 0.566 0.0
C1485 C 0.63309 0.55754 0.5763 0.0
C1486 C 0.6295 0.52216 0.57042 0.0
C1487 C 0.61756 0.49938 0.56144 0.0
C1488 C 0.59632 0.48553 0.57015 0.0
C1489 C 0.58514 0.46409 0.5615 0.0
C1490 C 0.5951 0.45626 0.54434 0.0
C1491 C 0.61629 0.46985 0.53584 0.0
C1492 C 0.62753 0.49131 0.5444 0.0
C1493 C 0.69347 0.5648 0.65954 0.0
C1494 C 0.71104 0.56264 0.65117 0.0
C1495 C 0.67704 0.56118 0.64149 0.0
C1496 C 0.67788 0.55542 0.6147 0.0
C1497 C 0.69556 0.55363 0.60612 0.0
C1498 C 0.71204 0.55731 0.62414 0.0
C1499 C 0.65966 0.55004 0.59618 0.0
C1500 C 0.64859 0.52923 0.58513 0.0
C1501 C 0.65205 0.56452 0.59129 0.0
C1502 C 0.66365 0.58703 0.60143 0.0
C1503 C 0.68566 0.60062 0.59578 0.0
C1504 C 0.69654 0.62173 0.60559 0.0
C1505 C 0.68556 0.62951 0.62097 0.0
C1506 C 0.66366 0.61619 0.62651 0.0
C1507 C 0.6527 0.59505 0.61676 0.0
H1508 H 0.69402 0.64586 0.62855 0.0
H1509 H 0.58642 0.43966 0.53767 0.0
H1510 H 0.06533 0.54584 0.04968 0.0
H1511 H 0.08772 0.57806 0.07674 0.0
H1512 H 0.06366 0.61312 0.03147 0.0
H1513 H 0.04189 0.58098 0.0037 0.0
H1514 H 0.10434 0.63886 0.04213 0.0
H1515 H 0.04318 0.59039 0.09308 0.0
H1516 H 0.01686 0.55621 0.11454 0.0
H1517 H 0.06663 0.55857 0.16504 0.0
H1518 H 0.09344 0.59241 0.1433 0.0
H1519 H 0.12959 0.71717 0.14904 0.0
H1520 H 0.10985 0.68813 0.11655 0.0
H1521 H 0.14517 0.65721 0.1424 0.0
H1522 H 0.16582 0.68661 0.17382 0.0
H1523 H 0.09759 0.63052 0.14142 0.0
H1524 H 0.15869 0.67975 0.08664 0.0
H1525 H 0.18282 0.71499 0.06569 0.0
H1526 H 0.12908 0.71244 0.02398 0.0
H1527 H 0.10456 0.67731 0.04502 0.0
C1528 C 0.06523 0.56061 0.04527 0.0
C1529 C 0.05216 0.5612 0.02468 0.0
C1530 C 0.07783 0.57892 0.06083 0.0
C1531 C 0.07705 0.59792 0.05651 0.0
C1532 C 0.0645 0.59867 0.03521 0.0
C1533 C 0.05211 0.58039 0.01937 0.0
C1534 C 0.08867 0.61665 0.07488 0.0
C1535 C 0.10263 0.63704 0.06382 0.0
C1536 C 0.08647 0.61435 0.10325 0.0
C1537 C 0.07041 0.59385 0.11628 0.0
C1538 C 0.0486 0.5835 0.10852 0.0
C1539 C 0.03358 0.56416 0.12074 0.0
C1540 C 0.0401 0.55515 0.14103 0.0
C1541 C 0.06163 0.5655 0.14921 0.0
C1542 C 0.07676 0.58475 0.13691 0.0
C1543 C 0.13349 0.70444 0.14753 0.0
C1544 C 0.14927 0.70426 0.16429 0.0
C1545 C 0.12207 0.68779 0.12905 0.0
C1546 C 0.12606 0.67057 0.12721 0.0
C1547 C 0.1418 0.67033 0.14371 0.0
C1548 C 0.15345 0.6871 0.16183 0.0
C1549 C 0.11344 0.6524 0.10863 0.0
C1550 C 0.09921 0.63219 0.11971 0.0
C1551 C 0.11502 0.65497 0.08037 0.0
C1552 C 0.12976 0.67602 0.06765 0.0
C1553 C 0.15198 0.6868 0.07321 0.0
C1554 C 0.16574 0.70673 0.06128 0.0
C1555 C 0.15748 0.71598 0.04358 0.0
C1556 C 0.13545 0.70527 0.03773 0.0
C1557 C 0.12162 0.68535 0.04964 0.0
H1558 H 0.16815 0.73141 0.03435 0.0
H1559 H 0.02844 0.5402 0.1505 0.0
loop_
_geom_bond_atom_site_label_1
_geom_bond_atom_site_label_2
_geom_bond_distance
_geom_bond_site_symmetry_2
_ccdc_geom_bond_type
C0 O2 1.247 . S
C0 O4 1.258 . S
C1 O8 1.247 . S
C1 O9 1.258 . S
O2 C0 1.247 . S
O2 Zn3 2.028 1_455 S
Zn3 O2 2.028 1_655 S
Zn3 O7 2.035 1_554 S
Zn3 O9 2.035 1_554 S
Zn3 O10 2.028 1_655 S
O4 C0 1.258 . S
O4 Zn5 2.035 1_554 S
Zn5 O4 2.035 1_556 S
Zn5 O6 2.028 1_455 S
Zn5 O8 2.028 1_455 S
Zn5 O11 2.035 1_556 S
O6 Zn5 2.028 1_655 S
O6 C12 1.247 . S
O7 Zn3 2.035 1_556 S
O7 C12 1.258 . S
O8 C1 1.247 . S
O8 Zn5 2.028 1_655 S
O9 C1 1.258 . S
O9 Zn3 2.035 1_556 S
O10 Zn3 2.028 1_455 S
O10 C13 1.247 . S
O11 Zn5 2.035 1_554 S
O11 C13 1.258 . S
C12 O6 1.247 . S
C12 O7 1.258 . S
C13 O10 1.247 . S
C13 O11 1.258 . S
C14 O16 1.247 . S
C14 O18 1.258 . S
C15 O22 1.247 . S
C15 O23 1.258 . S
O16 C14 1.247 . S
O16 Zn17 2.028 1_545 S
Zn17 O16 2.028 1_565 S
Zn17 O21 2.035 . S
Zn17 O23 2.035 . S
Zn17 O24 2.028 1_565 S
O18 C14 1.258 . S
O18 Zn19 2.035 . S
Zn19 O18 2.035 . S
Zn19 O20 2.028 1_545 S
Zn19 O22 2.028 1_545 S
Zn19 O25 2.035 . S
O20 Zn19 2.028 1_565 S
O20 C26 1.247 . S
O21 Zn17 2.035 . S
O21 C26 1.258 . S
O22 C15 1.247 . S
O22 Zn19 2.028 1_565 S
O23 C15 1.258 . S
O23 Zn17 2.035 . S
O24 Zn17 2.028 1_545 S
O24 C27 1.247 . S
O25 Zn19 2.035 . S
O25 C27 1.258 . S
C26 O20 1.247 . S
C26 O21 1.258 . S
C27 O24 1.247 . S
C27 O25 1.258 . S
C28 O30 1.247 . S
C28 O32 1.258 . S
C29 O36 1.247 . S
C29 O37 1.258 . S
O30 C28 1.247 . S
O30 Zn31 2.028 . S
Zn31 O30 2.028 . S
Zn31 O35 2.035 1_556 S
Zn31 O37 2.035 1_556 S
Zn31 O38 2.028 . S
O32 C28 1.258 . S
O32 Zn33 2.035 1_556 S
Zn33 O32 2.035 1_554 S
Zn33 O34 2.028 . S
Zn33 O36 2.028 . S
Zn33 O39 2.035 1_554 S
O34 Zn33 2.028 . S
O34 C40 1.247 . S
O35 Zn31 2.035 1_554 S
O35 C40 1.258 . S
O36 C29 1.247 . S
O36 Zn33 2.028 . S
O37 C29 1.258 . S
O37 Zn31 2.035 1_554 S
O38 Zn31 2.028 . S
O38 C41 1.247 . S
O39 Zn33 2.035 1_556 S
O39 C41 1.258 . S
C40 O34 1.247 . S
C40 O35 1.258 . S
C41 O38 1.247 . S
C41 O39 1.258 . S
C42 O44 1.247 . S
C42 O46 1.258 . S
C43 O50 1.247 . S
C43 O51 1.258 . S
O44 C42 1.247 . S
O44 Zn45 2.028 . S
Zn45 O44 2.028 . S
Zn45 O49 2.035 1_455 S
Zn45 O51 2.035 1_455 S
Zn45 O52 2.028 . S
O46 C42 1.258 . S
O46 Zn47 2.035 1_455 S
Zn47 O46 2.035 1_655 S
Zn47 O48 2.028 . S
Zn47 O50 2.028 . S
Zn47 O53 2.035 1_655 S
O48 Zn47 2.028 . S
O48 C54 1.247 . S
O49 Zn45 2.035 1_655 S
O49 C54 1.258 . S
O50 C43 1.247 . S
O50 Zn47 2.028 . S
O51 C43 1.258 . S
O51 Zn45 2.035 1_655 S
O52 Zn45 2.028 . S
O52 C55 1.247 . S
O53 Zn47 2.035 1_455 S
O53 C55 1.258 . S
C54 O48 1.247 . S
C54 O49 1.258 . S
C55 O52 1.247 . S
C55 O53 1.258 . S
C56 O58 1.247 . S
C56 O60 1.258 . S
C57 O64 1.247 . S
C57 O65 1.258 . S
O58 C56 1.247 . S
O58 Zn59 2.028 1_565 S
Zn59 O58 2.028 1_545 S
Zn59 O63 2.035 1_554 S
Zn59 O65 2.035 1_554 S
Zn59 O66 2.028 1_545 S
O60 C56 1.258 . S
O60 Zn61 2.035 1_554 S
Zn61 O60 2.035 1_556 S
Zn61 O62 2.028 1_565 S
Zn61 O64 2.028 1_565 S
Zn61 O67 2.035 1_556 S
O62 Zn61 2.028 1_545 S
O62 C68 1.247 . S
O63 Zn59 2.035 1_556 S
O63 C68 1.258 . S
O64 C57 1.247 . S
O64 Zn61 2.028 1_545 S
O65 C57 1.258 . S
O65 Zn59 2.035 1_556 S
O66 Zn59 2.028 1_565 S
O66 C69 1.247 . S
O67 Zn61 2.035 1_554 S
O67 C69 1.258 . S
C68 O62 1.247 . S
C68 O63 1.258 . S
C69 O66 1.247 . S
C69 O67 1.258 . S
C70 O72 1.247 . S
C70 O74 1.258 . S
C71 O78 1.247 . S
C71 O79 1.258 . S
O72 C70 1.247 . S
O72 Zn73 2.028 . S
Zn73 O72 2.028 . S
Zn73 O77 2.035 . S
Zn73 O79 2.035 . S
Zn73 O80 2.028 . S
O74 C70 1.258 . S
O74 Zn75 2.035 . S
Zn75 O74 2.035 . S
Zn75 O76 2.028 . S
Zn75 O78 2.028 . S
Zn75 O81 2.035 . S
O76 Zn75 2.028 . S
O76 C82 1.247 . S
O77 Zn73 2.035 . S
O77 C82 1.258 . S
O78 C71 1.247 . S
O78 Zn75 2.028 . S
O79 C71 1.258 . S
O79 Zn73 2.035 . S
O80 Zn73 2.028 . S
O80 C83 1.247 . S
O81 Zn75 2.035 . S
O81 C83 1.258 . S
C82 O76 1.247 . S
C82 O77 1.258 . S
C83 O80 1.247 . S
C83 O81 1.258 . S
C84 C85 1.384 . S
C84 C86 1.384 . S
C84 H112 0.931 . S
C85 C84 1.384 . S
C85 C88 1.382 . S
C86 C84 1.384 . S
C86 C87 1.381 . S
C86 H113 0.930 . S
C87 C86 1.381 . S
C87 C89 1.381 . S
C87 C90 1.487 . S
C88 C85 1.382 . S
C88 C89 1.387 . S
C88 H114 0.930 . S
C89 C87 1.381 . S
C89 C88 1.387 . S
C89 H115 0.931 . S
C90 C87 1.487 . S
C90 C97 1.399 . S
C90 N128 1.343 . S
C91 C92 1.384 . S
C91 C93 1.384 . S
C91 H116 0.931 . S
C92 C91 1.384 . S
C92 C95 1.382 . S
C93 C91 1.384 . S
C93 C94 1.381 . S
C93 H117 0.930 . S
C94 C93 1.381 . S
C94 C96 1.381 . S
C94 C97 1.487 . S
C95 C92 1.382 . S
C95 C96 1.387 . S
C95 H118 0.930 . S
C96 C94 1.381 . S
C96 C95 1.387 . S
C96 H119 0.931 . S
C97 C90 1.399 . S
C97 C94 1.487 . S
C97 N129 1.343 . S
C98 C99 1.384 . S
C98 C100 1.384 . S
C98 H120 0.931 . S
C99 C98 1.384 . S
C99 C102 1.382 . S
C100 C98 1.384 . S
C100 C101 1.381 . S
C100 H121 0.930 . S
C101 C100 1.381 . S
C101 C103 1.381 . S
C101 C104 1.487 . S
C102 C99 1.382 . S
C102 C103 1.387 . S
C102 H122 0.930 . S
C103 C101 1.381 . S
C103 C102 1.387 . S
C103 H123 0.931 . S
C104 C101 1.487 . S
C104 C111 1.399 . S
C104 N129 1.343 . S
C105 C106 1.384 . S
C105 C107 1.384 . S
C105 H124 0.931 . S
C106 C105 1.384 . S
C106 C109 1.382 . S
C107 C105 1.384 . S
C107 C108 1.381 . S
C107 H125 0.930 . S
C108 C107 1.381 . S
C108 C110 1.381 . S
C108 C111 1.487 . S
C109 C106 1.382 . S
C109 C110 1.387 . S
C109 H126 0.930 . S
C110 C108 1.381 . S
C110 C109 1.387 . S
C110 H127 0.931 . S
C111 C104 1.399 . S
C111 C108 1.487 . S
C111 N128 1.343 . S
H112 C84 0.931 . S
H113 C86 0.930 . S
H114 C88 0.930 . S
H115 C89 0.931 . S
H116 C91 0.931 . S
H117 C93 0.930 . S
H118 C95 0.930 . S
H119 C96 0.931 . S
H120 C98 0.931 . S
H121 C100 0.930 . S
H122 C102 0.930 . S
H123 C103 0.931 . S
H124 C105 0.931 . S
H125 C107 0.930 . S
H126 C109 0.930 . S
H127 C110 0.931 . S
N128 C90 1.343 . S
N128 C111 1.343 . S
N129 C97 1.343 . S
N129 C104 1.343 . S
C130 C131 1.384 . S
C130 C132 1.384 . S
C130 H158 0.931 . S
C131 C130 1.384 . S
C131 C134 1.382 . S
C132 C130 1.384 . S
C132 C133 1.381 . S
C132 H159 0.930 . S
C133 C132 1.381 . S
C133 C135 1.381 . S
C133 C136 1.487 . S
C134 C131 1.382 . S
C134 C135 1.387 . S
C134 H160 0.930 . S
C135 C133 1.381 . S
C135 C134 1.387 . S
C135 H161 0.931 . S
C136 C133 1.487 . S
C136 C143 1.399 . S
C136 N174 1.343 . S
C137 C138 1.384 . S
C137 C139 1.384 . S
C137 H162 0.931 . S
C138 C137 1.384 . S
C138 C141 1.382 . S
C139 C137 1.384 . S
C139 C140 1.381 . S
C139 H163 0.930 . S
C140 C139 1.381 . S
C140 C142 1.381 . S
C140 C143 1.487 . S
C141 C138 1.382 . S
C141 C142 1.387 . S
C141 H164 0.930 . S
C142 C140 1.381 . S
C142 C141 1.387 . S
C142 H165 0.931 . S
C143 C136 1.399 . S
C143 C140 1.487 . S
C143 N175 1.343 . S
C144 C145 1.384 . S
C144 C146 1.384 . S
C144 H166 0.931 . S
C145 C144 1.384 . S
C145 C148 1.382 . S
C146 C144 1.384 . S
C146 C147 1.381 . S
C146 H167 0.930 . S
C147 C146 1.381 . S
C147 C149 1.381 . S
C147 C150 1.487 . S
C148 C145 1.382 . S
C148 C149 1.387 . S
C148 H168 0.930 . S
C149 C147 1.381 . S
C149 C148 1.387 . S
C149 H169 0.931 . S
C150 C147 1.487 . S
C150 C157 1.399 . S
C150 N175 1.343 . S
C151 C152 1.384 . S
C151 C153 1.384 . S
C151 H170 0.931 . S
C152 C151 1.384 . S
C152 C155 1.382 . S
C153 C151 1.384 . S
C153 C154 1.381 . S
C153 H171 0.930 . S
C154 C153 1.381 . S
C154 C156 1.381 . S
C154 C157 1.487 . S
C155 C152 1.382 . S
C155 C156 1.387 . S
C155 H172 0.930 . S
C156 C154 1.381 . S
C156 C155 1.387 . S
C156 H173 0.931 . S
C157 C150 1.399 . S
C157 C154 1.487 . S
C157 N174 1.343 . S
H158 C130 0.931 . S
H159 C132 0.930 . S
H160 C134 0.930 . S
H161 C135 0.931 . S
H162 C137 0.931 . S
H163 C139 0.930 . S
H164 C141 0.930 . S
H165 C142 0.931 . S
H166 C144 0.931 . S
H167 C146 0.930 . S
H168 C148 0.930 . S
H169 C149 0.931 . S
H170 C151 0.931 . S
H171 C153 0.930 . S
H172 C155 0.930 . S
H173 C156 0.931 . S
N174 C136 1.343 . S
N174 C157 1.343 . S
N175 C143 1.343 . S
N175 C150 1.343 . S
C176 C177 1.384 . S
C176 C178 1.384 . S
C176 H204 0.931 . S
C177 C176 1.384 . S
C177 C180 1.382 . S
C178 C176 1.384 . S
C178 C179 1.381 . S
C178 H205 0.930 . S
C179 C178 1.381 . S
C179 C181 1.381 . S
C179 C182 1.487 . S
C180 C177 1.382 . S
C180 C181 1.387 . S
C180 H206 0.930 . S
C181 C179 1.381 . S
C181 C180 1.387 . S
C181 H207 0.931 . S
C182 C179 1.487 . S
C182 C189 1.399 . S
C182 N220 1.343 . S
C183 C184 1.384 . S
C183 C185 1.384 . S
C183 H208 0.931 . S
C184 C183 1.384 . S
C184 C187 1.382 . S
C185 C183 1.384 . S
C185 C186 1.381 . S
C185 H209 0.930 . S
C186 C185 1.381 . S
C186 C188 1.381 . S
C186 C189 1.487 . S
C187 C184 1.382 . S
C187 C188 1.387 . S
C187 H210 0.930 . S
C188 C186 1.381 . S
C188 C187 1.387 . S
C188 H211 0.931 . S
C189 C182 1.399 . S
C189 C186 1.487 . S
C189 N221 1.343 . S
C190 C191 1.384 . S
C190 C192 1.384 . S
C190 H212 0.931 . S
C191 C190 1.384 . S
C191 C194 1.382 . S
C192 C190 1.384 . S
C192 C193 1.381 . S
C192 H213 0.930 . S
C193 C192 1.381 . S
C193 C195 1.381 . S
C193 C196 1.487 . S
C194 C191 1.382 . S
C194 C195 1.387 . S
C194 H214 0.930 . S
C195 C193 1.381 . S
C195 C194 1.387 . S
C195 H215 0.931 . S
C196 C193 1.487 . S
C196 C203 1.399 . S
C196 N221 1.343 . S
C197 C198 1.384 . S
C197 C199 1.384 . S
C197 H216 0.931 . S
C198 C197 1.384 . S
C198 C201 1.382 . S
C199 C197 1.384 . S
C199 C200 1.381 . S
C199 H217 0.930 . S
C200 C199 1.381 . S
C200 C202 1.381 . S
C200 C203 1.487 . S
C201 C198 1.382 . S
C201 C202 1.387 . S
C201 H218 0.930 . S
C202 C200 1.381 . S
C202 C201 1.387 . S
C202 H219 0.931 . S
C203 C196 1.399 . S
C203 C200 1.487 . S
C203 N220 1.343 . S
H204 C176 0.931 . S
H205 C178 0.930 . S
H206 C180 0.930 . S
H207 C181 0.931 . S
H208 C183 0.931 . S
H209 C185 0.930 . S
H210 C187 0.930 . S
H211 C188 0.931 . S
H212 C190 0.931 . S
H213 C192 0.930 . S
H214 C194 0.930 . S
H215 C195 0.931 . S
H216 C197 0.931 . S
H217 C199 0.930 . S
H218 C201 0.930 . S
H219 C202 0.931 . S
N220 C182 1.343 . S
N220 C203 1.343 . S
N221 C189 1.343 . S
N221 C196 1.343 . S
C222 C223 1.384 . S
C222 C224 1.384 . S
C222 H250 0.931 . S
C223 C222 1.384 . S
C223 C226 1.382 . S
C224 C222 1.384 . S
C224 C225 1.381 . S
C224 H251 0.930 . S
C225 C224 1.381 . S
C225 C227 1.381 . S
C225 C228 1.487 . S
C226 C223 1.382 . S
C226 C227 1.387 . S
C226 H252 0.930 . S
C227 C225 1.381 . S
C227 C226 1.387 . S
C227 H253 0.931 . S
C228 C225 1.487 . S
C228 C235 1.399 . S
C228 N266 1.343 . S
C229 C230 1.384 . S
C229 C231 1.384 . S
C229 H254 0.931 . S
C230 C229 1.384 . S
C230 C233 1.382 . S
C231 C229 1.384 . S
C231 C232 1.381 . S
C231 H255 0.930 . S
C232 C231 1.381 . S
C232 C234 1.381 . S
C232 C235 1.487 . S
C233 C230 1.382 . S
C233 C234 1.387 . S
C233 H256 0.930 . S
C234 C232 1.381 . S
C234 C233 1.387 . S
C234 H257 0.931 . S
C235 C228 1.399 . S
C235 C232 1.487 . S
C235 N267 1.343 . S
C236 C237 1.384 . S
C236 C238 1.384 . S
C236 H258 0.931 . S
C237 C236 1.384 . S
C237 C240 1.382 . S
C238 C236 1.384 . S
C238 C239 1.381 . S
C238 H259 0.930 . S
C239 C238 1.381 . S
C239 C241 1.381 . S
C239 C242 1.487 . S
C240 C237 1.382 . S
C240 C241 1.387 . S
C240 H260 0.930 . S
C241 C239 1.381 . S
C241 C240 1.387 . S
C241 H261 0.931 . S
C242 C239 1.487 . S
C242 C249 1.399 . S
C242 N267 1.343 . S
C243 C244 1.384 . S
C243 C245 1.384 . S
C243 H262 0.931 . S
C244 C243 1.384 . S
C244 C247 1.382 . S
C245 C243 1.384 . S
C245 C246 1.381 . S
C245 H263 0.930 . S
C246 C245 1.381 . S
C246 C248 1.381 . S
C246 C249 1.487 . S
C247 C244 1.382 . S
C247 C248 1.387 . S
C247 H264 0.930 . S
C248 C246 1.381 . S
C248 C247 1.387 . S
C248 H265 0.931 . S
C249 C242 1.399 . S
C249 C246 1.487 . S
C249 N266 1.343 . S
H250 C222 0.931 . S
H251 C224 0.930 . S
H252 C226 0.930 . S
H253 C227 0.931 . S
H254 C229 0.931 . S
H255 C231 0.930 . S
H256 C233 0.930 . S
H257 C234 0.931 . S
H258 C236 0.931 . S
H259 C238 0.930 . S
H260 C240 0.930 . S
H261 C241 0.931 . S
H262 C243 0.931 . S
H263 C245 0.930 . S
H264 C247 0.930 . S
H265 C248 0.931 . S
N266 C228 1.343 . S
N266 C249 1.343 . S
N267 C235 1.343 . S
N267 C242 1.343 . S
C268 C269 1.384 . S
C268 C270 1.384 . S
C268 H296 0.931 . S
C269 C268 1.384 . S
C269 C272 1.382 . S
C270 C268 1.384 . S
C270 C271 1.381 . S
C270 H297 0.930 . S
C271 C270 1.381 . S
C271 C273 1.381 . S
C271 C274 1.487 . S
C272 C269 1.382 . S
C272 C273 1.387 . S
C272 H298 0.930 . S
C273 C271 1.381 . S
C273 C272 1.387 . S
C273 H299 0.931 . S
C274 C271 1.487 . S
C274 C281 1.399 . S
C274 N312 1.343 . S
C275 C276 1.384 . S
C275 C277 1.384 . S
C275 H300 0.931 . S
C276 C275 1.384 . S
C276 C279 1.382 . S
C277 C275 1.384 . S
C277 C278 1.381 . S
C277 H301 0.930 . S
C278 C277 1.381 . S
C278 C280 1.381 . S
C278 C281 1.487 . S
C279 C276 1.382 . S
C279 C280 1.387 . S
C279 H302 0.930 . S
C280 C278 1.381 . S
C280 C279 1.387 . S
C280 H303 0.931 . S
C281 C274 1.399 . S
C281 C278 1.487 . S
C281 N313 1.343 . S
C282 C283 1.384 . S
C282 C284 1.384 . S
C282 H304 0.931 . S
C283 C282 1.384 . S
C283 C286 1.382 . S
C284 C282 1.384 . S
C284 C285 1.381 . S
C284 H305 0.930 . S
C285 C284 1.381 . S
C285 C287 1.381 . S
C285 C288 1.487 . S
C286 C283 1.382 . S
C286 C287 1.387 . S
C286 H306 0.930 . S
C287 C285 1.381 . S
C287 C286 1.387 . S
C287 H307 0.931 . S
C288 C285 1.487 . S
C288 C295 1.399 . S
C288 N313 1.343 . S
C289 C290 1.384 . S
C289 C291 1.384 . S
C289 H308 0.931 . S
C290 C289 1.384 . S
C290 C293 1.382 . S
C291 C289 1.384 . S
C291 C292 1.381 . S
C291 H309 0.930 . S
C292 C291 1.381 . S
C292 C294 1.381 . S
C292 C295 1.487 . S
C293 C290 1.382 . S
C293 C294 1.387 . S
C293 H310 0.930 . S
C294 C292 1.381 . S
C294 C293 1.387 . S
C294 H311 0.931 . S
C295 C288 1.399 . S
C295 C292 1.487 . S
C295 N312 1.343 . S
H296 C268 0.931 . S
H297 C270 0.930 . S
H298 C272 0.930 . S
H299 C273 0.931 . S
H300 C275 0.931 . S
H301 C277 0.930 . S
H302 C279 0.930 . S
H303 C280 0.931 . S
H304 C282 0.931 . S
H305 C284 0.930 . S
H306 C286 0.930 . S
H307 C287 0.931 . S
H308 C289 0.931 . S
H309 C291 0.930 . S
H310 C293 0.930 . S
H311 C294 0.931 . S
N312 C274 1.343 . S
N312 C295 1.343 . S
N313 C281 1.343 . S
N313 C288 1.343 . S
C314 C315 1.384 . S
C314 C316 1.384 . S
C314 H342 0.931 . S
C315 C314 1.384 . S
C315 C318 1.382 . S
C316 C314 1.384 . S
C316 C317 1.381 . S
C316 H343 0.930 . S
C317 C316 1.381 . S
C317 C319 1.381 . S
C317 C320 1.487 . S
C318 C315 1.382 . S
C318 C319 1.387 . S
C318 H344 0.930 . S
C319 C317 1.381 . S
C319 C318 1.387 . S
C319 H345 0.931 . S
C320 C317 1.487 . S
C320 C327 1.399 . S
C320 N358 1.343 . S
C321 C322 1.384 . S
C321 C323 1.384 . S
C321 H346 0.931 . S
C322 C321 1.384 . S
C322 C325 1.382 . S
C323 C321 1.384 . S
C323 C324 1.381 . S
C323 H347 0.930 . S
C324 C323 1.381 . S
C324 C326 1.381 . S
C324 C327 1.487 . S
C325 C322 1.382 . S
C325 C326 1.387 . S
C325 H348 0.930 . S
C326 C324 1.381 . S
C326 C325 1.387 . S
C326 H349 0.931 . S
C327 C320 1.399 . S
C327 C324 1.487 . S
C327 N359 1.343 . S
C328 C329 1.384 . S
C328 C330 1.384 . S
C328 H350 0.931 . S
C329 C328 1.384 . S
C329 C332 1.382 . S
C330 C328 1.384 . S
C330 C331 1.381 . S
C330 H351 0.930 . S
C331 C330 1.381 . S
C331 C333 1.381 . S
C331 C334 1.487 . S
C332 C329 1.382 . S
C332 C333 1.387 . S
C332 H352 0.930 . S
C333 C331 1.381 . S
C333 C332 1.387 . S
C333 H353 0.931 . S
C334 C331 1.487 . S
C334 C341 1.399 . S
C334 N359 1.343 . S
C335 C336 1.384 . S
C335 C337 1.384 . S
C335 H354 0.931 . S
C336 C335 1.384 . S
C336 C339 1.382 . S
C337 C335 1.384 . S
C337 C338 1.381 . S
C337 H355 0.930 . S
C338 C337 1.381 . S
C338 C340 1.381 . S
C338 C341 1.487 . S
C339 C336 1.382 . S
C339 C340 1.387 . S
C339 H356 0.930 . S
C340 C338 1.381 . S
C340 C339 1.387 . S
C340 H357 0.931 . S
C341 C334 1.399 . S
C341 C338 1.487 . S
C341 N358 1.343 . S
H342 C314 0.931 . S
H343 C316 0.930 . S
H344 C318 0.930 . S
H345 C319 0.931 . S
H346 C321 0.931 . S
H347 C323 0.930 . S
H348 C325 0.930 . S
H349 C326 0.931 . S
H350 C328 0.931 . S
H351 C330 0.930 . S
H352 C332 0.930 . S
H353 C333 0.931 . S
H354 C335 0.931 . S
H355 C337 0.930 . S
H356 C339 0.930 . S
H357 C340 0.931 . S
N358 C320 1.343 . S
N358 C341 1.343 . S
N359 C327 1.343 . S
N359 C334 1.343 . S
H360 C378 0.951 . S
H361 C380 0.951 . S
H362 C382 0.950 . S
H363 C383 0.950 . S
H364 C385 0.950 . S
H365 C388 0.950 . S
H366 C389 0.950 . S
H367 C391 0.950 . S
H368 C392 0.950 . S
H369 C393 0.951 . S
H370 C395 0.951 . S
H371 C397 0.950 . S
H372 C398 0.950 . S
H373 C400 0.950 . S
H374 C403 0.950 . S
H375 C404 0.950 . S
H376 C406 0.950 . S
H377 C407 0.950 . S
C378 H360 0.951 . S
C378 C379 1.366 . S
C378 C380 1.388 . S
C379 C378 1.366 . S
C379 C383 1.385 . S
C380 H361 0.951 . S
C380 C378 1.388 . S
C380 C381 1.366 . S
C381 C380 1.366 . S
C381 C382 1.414 . S
C381 C384 1.499 . S
C382 H362 0.950 . S
C382 C381 1.414 . S
C382 C383 1.374 . S
C383 H363 0.950 . S
C383 C379 1.385 . S
C383 C382 1.374 . S
C384 C381 1.499 . S
C384 C385 1.373 . S
C384 C386 1.389 . S
C385 H364 0.950 . S
C385 C384 1.373 . S
C385 C401 1.377 . S
C386 C384 1.389 . S
C386 C387 1.524 . S
C386 C400 1.377 . S
C387 C386 1.524 . S
C387 C388 1.397 . S
C387 C392 1.363 . S
C388 H365 0.950 . S
C388 C387 1.397 . S
C388 C389 1.334 . S
C389 H366 0.950 . S
C389 C388 1.334 . S
C389 C390 1.287 . S
C390 C389 1.287 . S
C390 C391 1.524 . S
C390 H409 0.913 . S
C391 H367 0.950 . S
C391 C390 1.524 . S
C391 C392 1.415 . S
C392 H368 0.950 . S
C392 C387 1.363 . S
C392 C391 1.415 . S
C393 H369 0.951 . S
C393 C394 1.366 . S
C393 C395 1.388 . S
C394 C393 1.366 . S
C394 C398 1.385 . S
C395 H370 0.951 . S
C395 C393 1.388 . S
C395 C396 1.366 . S
C396 C395 1.366 . S
C396 C397 1.414 . S
C396 C399 1.499 . S
C397 H371 0.950 . S
C397 C396 1.414 . S
C397 C398 1.374 . S
C398 H372 0.950 . S
C398 C394 1.385 . S
C398 C397 1.374 . S
C399 C396 1.499 . S
C399 C400 1.373 . S
C399 C401 1.389 . S
C400 H373 0.950 . S
C400 C386 1.377 . S
C400 C399 1.373 . S
C401 C385 1.377 . S
C401 C399 1.389 . S
C401 C402 1.524 . S
C402 C401 1.524 . S
C402 C403 1.397 . S
C402 C407 1.363 . S
C403 H374 0.950 . S
C403 C402 1.397 . S
C403 C404 1.334 . S
C404 H375 0.950 . S
C404 C403 1.334 . S
C404 C405 1.287 . S
C405 C404 1.287 . S
C405 C406 1.524 . S
C405 H408 0.999 . S
C406 H376 0.950 . S
C406 C405 1.524 . S
C406 C407 1.415 . S
C407 H377 0.950 . S
C407 C402 1.363 . S
C407 C406 1.415 . S
H408 C405 0.999 . S
H409 C390 0.913 . S
H410 C428 0.951 . S
H411 C430 0.951 . S
H412 C432 0.950 . S
H413 C433 0.950 . S
H414 C435 0.950 . S
H415 C438 0.950 . S
H416 C439 0.950 1_565 S
H417 C441 0.950 . S
H418 C442 0.950 . S
H419 C443 0.951 . S
H420 C445 0.951 . S
H421 C447 0.950 . S
H422 C448 0.950 . S
H423 C450 0.950 . S
H424 C453 0.950 . S
H425 C454 0.950 . S
H426 C456 0.950 . S
H427 C457 0.950 . S
C428 H410 0.951 . S
C428 C429 1.366 . S
C428 C430 1.388 . S
C429 C428 1.366 . S
C429 C433 1.385 . S
C430 H411 0.951 . S
C430 C428 1.388 . S
C430 C431 1.366 . S
C431 C430 1.366 . S
C431 C432 1.414 . S
C431 C434 1.499 . S
C432 H412 0.950 . S
C432 C431 1.414 . S
C432 C433 1.374 . S
C433 H413 0.950 . S
C433 C429 1.385 . S
C433 C432 1.374 . S
C434 C431 1.499 . S
C434 C435 1.373 . S
C434 C436 1.389 . S
C435 H414 0.950 . S
C435 C434 1.373 . S
C435 C451 1.377 . S
C436 C434 1.389 . S
C436 C437 1.524 . S
C436 C450 1.377 . S
C437 C436 1.524 . S
C437 C438 1.397 . S
C437 C442 1.363 . S
C438 H415 0.950 . S
C438 C437 1.397 . S
C438 C439 1.335 . S
C439 H416 0.950 1_545 S
C439 C438 1.335 . S
C439 C440 1.286 1_545 S
C440 C439 1.286 1_565 S
C440 C441 1.524 1_565 S
C440 H459 0.913 . S
C441 H417 0.950 . S
C441 C440 1.524 1_545 S
C441 C442 1.415 . S
C442 H418 0.950 . S
C442 C437 1.363 . S
C442 C441 1.415 . S
C443 H419 0.951 . S
C443 C444 1.366 . S
C443 C445 1.388 . S
C444 C443 1.366 . S
C444 C448 1.385 . S
C445 H420 0.951 . S
C445 C443 1.388 . S
C445 C446 1.366 . S
C446 C445 1.366 . S
C446 C447 1.414 . S
C446 C449 1.499 . S
C447 H421 0.950 . S
C447 C446 1.414 . S
C447 C448 1.374 . S
C448 H422 0.950 . S
C448 C444 1.385 . S
C448 C447 1.374 . S
C449 C446 1.499 . S
C449 C450 1.373 . S
C449 C451 1.389 . S
C450 H423 0.950 . S
C450 C436 1.377 . S
C450 C449 1.373 . S
C451 C435 1.377 . S
C451 C449 1.389 . S
C451 C452 1.524 . S
C452 C451 1.524 . S
C452 C453 1.397 . S
C452 C457 1.363 . S
C453 H424 0.950 . S
C453 C452 1.397 . S
C453 C454 1.334 . S
C454 H425 0.950 . S
C454 C453 1.334 . S
C454 C455 1.287 . S
C455 C454 1.287 . S
C455 C456 1.524 . S
C455 H458 0.999 . S
C456 H426 0.950 . S
C456 C455 1.524 . S
C456 C457 1.415 . S
C457 H427 0.950 . S
C457 C452 1.363 . S
C457 C456 1.415 . S
H458 C455 0.999 . S
H459 C440 0.913 . S
H460 C478 0.951 . S
H461 C480 0.951 . S
H462 C482 0.950 . S
H463 C483 0.950 . S
H464 C485 0.950 . S
H465 C488 0.950 . S
H466 C489 0.950 . S
H467 C491 0.950 . S
H468 C492 0.950 . S
H469 C493 0.951 . S
H470 C495 0.951 . S
H471 C497 0.950 . S
H472 C498 0.950 . S
H473 C500 0.950 . S
H474 C503 0.950 . S
H475 C504 0.950 . S
H476 C506 0.950 . S
H477 C507 0.950 . S
C478 H460 0.951 . S
C478 C479 1.366 . S
C478 C480 1.388 . S
C479 C478 1.366 . S
C479 C483 1.385 . S
C480 H461 0.951 . S
C480 C478 1.388 . S
C480 C481 1.366 . S
C481 C480 1.366 . S
C481 C482 1.414 . S
C481 C484 1.499 . S
C482 H462 0.950 . S
C482 C481 1.414 . S
C482 C483 1.374 . S
C483 H463 0.950 . S
C483 C479 1.385 . S
C483 C482 1.374 . S
C484 C481 1.499 . S
C484 C485 1.373 . S
C484 C486 1.389 . S
C485 H464 0.950 . S
C485 C484 1.373 . S
C485 C501 1.377 . S
C486 C484 1.389 . S
C486 C487 1.524 . S
C486 C500 1.377 . S
C487 C486 1.524 . S
C487 C488 1.397 . S
C487 C492 1.363 . S
C488 H465 0.950 . S
C488 C487 1.397 . S
C488 C489 1.334 . S
C489 H466 0.950 . S
C489 C488 1.334 . S
C489 C490 1.287 . S
C490 C489 1.287 . S
C490 C491 1.524 . S
C490 H509 0.913 . S
C491 H467 0.950 . S
C491 C490 1.524 . S
C491 C492 1.415 . S
C492 H468 0.950 . S
C492 C487 1.363 . S
C492 C491 1.415 . S
C493 H469 0.951 . S
C493 C494 1.366 . S
C493 C495 1.388 . S
C494 C493 1.366 . S
C494 C498 1.385 . S
C495 H470 0.951 . S
C495 C493 1.388 . S
C495 C496 1.366 . S
C496 C495 1.366 . S
C496 C497 1.414 . S
C496 C499 1.499 . S
C497 H471 0.950 . S
C497 C496 1.414 . S
C497 C498 1.374 . S
C498 H472 0.950 . S
C498 C494 1.385 . S
C498 C497 1.374 . S
C499 C496 1.499 . S
C499 C500 1.373 . S
C499 C501 1.389 . S
C500 H473 0.950 . S
C500 C486 1.377 . S
C500 C499 1.373 . S
C501 C485 1.377 . S
C501 C499 1.389 . S
C501 C502 1.524 . S
C502 C501 1.524 . S
C502 C503 1.397 . S
C502 C507 1.363 . S
C503 H474 0.950 . S
C503 C502 1.397 . S
C503 C504 1.334 . S
C504 H475 0.950 . S
C504 C503 1.334 . S
C504 C505 1.287 . S
C505 C504 1.287 . S
C505 C506 1.524 . S
C505 H508 0.999 . S
C506 H476 0.950 . S
C506 C505 1.524 . S
C506 C507 1.415 . S
C507 H477 0.950 . S
C507 C502 1.363 . S
C507 C506 1.415 . S
H508 C505 0.999 . S
H509 C490 0.913 . S
H510 C528 0.951 . S
H511 C530 0.951 . S
H512 C532 0.950 . S
H513 C533 0.950 . S
H514 C535 0.950 . S
H515 C538 0.950 . S
H516 C539 0.950 . S
H517 C541 0.950 . S
H518 C542 0.950 . S
H519 C543 0.951 . S
H520 C545 0.951 . S
H521 C547 0.950 . S
H522 C548 0.950 . S
H523 C550 0.950 . S
H524 C553 0.950 . S
H525 C554 0.950 . S
H526 C556 0.950 . S
H527 C557 0.950 . S
C528 H510 0.951 . S
C528 C529 1.366 . S
C528 C530 1.388 . S
C529 C528 1.366 . S
C529 C533 1.385 . S
C530 H511 0.951 . S
C530 C528 1.388 . S
C530 C531 1.366 . S
C531 C530 1.366 . S
C531 C532 1.414 . S
C531 C534 1.499 . S
C532 H512 0.950 . S
C532 C531 1.414 . S
C532 C533 1.374 . S
C533 H513 0.950 . S
C533 C529 1.385 . S
C533 C532 1.374 . S
C534 C531 1.499 . S
C534 C535 1.373 . S
C534 C536 1.389 . S
C535 H514 0.950 . S
C535 C534 1.373 . S
C535 C551 1.377 . S
C536 C534 1.389 . S
C536 C537 1.524 . S
C536 C550 1.377 . S
C537 C536 1.524 . S
C537 C538 1.397 . S
C537 C542 1.363 . S
C538 H515 0.950 . S
C538 C537 1.397 . S
C538 C539 1.334 . S
C539 H516 0.950 . S
C539 C538 1.334 . S
C539 C540 1.287 . S
C540 C539 1.287 . S
C540 C541 1.524 . S
C540 H559 0.913 . S
C541 H517 0.950 . S
C541 C540 1.524 . S
C541 C542 1.415 . S
C542 H518 0.950 . S
C542 C537 1.363 . S
C542 C541 1.415 . S
C543 H519 0.951 . S
C543 C544 1.366 . S
C543 C545 1.388 . S
C544 C543 1.366 . S
C544 C548 1.385 . S
C545 H520 0.951 . S
C545 C543 1.388 . S
C545 C546 1.366 . S
C546 C545 1.366 . S
C546 C547 1.414 . S
C546 C549 1.499 . S
C547 H521 0.950 . S
C547 C546 1.414 . S
C547 C548 1.374 . S
C548 H522 0.950 . S
C548 C544 1.385 . S
C548 C547 1.374 . S
C549 C546 1.499 . S
C549 C550 1.373 . S
C549 C551 1.389 . S
C550 H523 0.950 . S
C550 C536 1.377 . S
C550 C549 1.373 . S
C551 C535 1.377 . S
C551 C549 1.389 . S
C551 C552 1.524 . S
C552 C551 1.524 . S
C552 C553 1.397 . S
C552 C557 1.363 . S
C553 H524 0.950 . S
C553 C552 1.397 . S
C553 C554 1.334 . S
C554 H525 0.950 . S
C554 C553 1.334 . S
C554 C555 1.287 . S
C555 C554 1.287 . S
C555 C556 1.524 . S
C555 H558 0.999 . S
C556 H526 0.950 . S
C556 C555 1.524 . S
C556 C557 1.415 . S
C557 H527 0.950 . S
C557 C552 1.363 . S
C557 C556 1.415 . S
H558 C555 0.999 . S
H559 C540 0.913 . S
H560 C578 0.951 . S
H561 C580 0.951 . S
H562 C582 0.950 . S
H563 C583 0.950 . S
H564 C585 0.950 . S
H565 C588 0.950 . S
H566 C589 0.950 . S
H567 C591 0.950 . S
H568 C592 0.950 . S
H569 C593 0.951 . S
H570 C595 0.951 . S
H571 C597 0.950 . S
H572 C598 0.950 . S
H573 C600 0.950 . S
H574 C603 0.950 . S
H575 C604 0.950 . S
H576 C606 0.950 . S
H577 C607 0.950 . S
C578 H560 0.951 . S
C578 C579 1.366 . S
C578 C580 1.388 . S
C579 C578 1.366 . S
C579 C583 1.385 . S
C580 H561 0.951 . S
C580 C578 1.388 . S
C580 C581 1.366 . S
C581 C580 1.366 . S
C581 C582 1.414 . S
C581 C584 1.499 . S
C582 H562 0.950 . S
C582 C581 1.414 . S
C582 C583 1.374 . S
C583 H563 0.950 . S
C583 C579 1.385 . S
C583 C582 1.374 . S
C584 C581 1.499 . S
C584 C585 1.373 . S
C584 C586 1.389 . S
C585 H564 0.950 . S
C585 C584 1.373 . S
C585 C601 1.377 . S
C586 C584 1.389 . S
C586 C587 1.524 . S
C586 C600 1.377 . S
C587 C586 1.524 . S
C587 C588 1.397 . S
C587 C592 1.363 . S
C588 H565 0.950 . S
C588 C587 1.397 . S
C588 C589 1.334 . S
C589 H566 0.950 . S
C589 C588 1.334 . S
C589 C590 1.287 1_565 S
C590 C589 1.287 1_545 S
C590 C591 1.524 . S
C590 H609 0.913 . S
C591 H567 0.950 . S
C591 C590 1.524 . S
C591 C592 1.415 1_545 S
C592 H568 0.950 . S
C592 C587 1.363 . S
C592 C591 1.415 1_565 S
C593 H569 0.951 . S
C593 C594 1.366 . S
C593 C595 1.388 . S
C594 C593 1.366 . S
C594 C598 1.385 . S
C595 H570 0.951 . S
C595 C593 1.388 . S
C595 C596 1.366 . S
C596 C595 1.366 . S
C596 C597 1.414 . S
C596 C599 1.499 . S
C597 H571 0.950 . S
C597 C596 1.414 . S
C597 C598 1.374 . S
C598 H572 0.950 . S
C598 C594 1.385 . S
C598 C597 1.374 . S
C599 C596 1.499 . S
C599 C600 1.373 . S
C599 C601 1.389 . S
C600 H573 0.950 . S
C600 C586 1.377 . S
C600 C599 1.373 . S
C601 C585 1.377 . S
C601 C599 1.389 . S
C601 C602 1.524 . S
C602 C601 1.524 . S
C602 C603 1.397 . S
C602 C607 1.363 . S
C603 H574 0.950 . S
C603 C602 1.397 . S
C603 C604 1.334 . S
C604 H575 0.950 . S
C604 C603 1.334 . S
C604 C605 1.287 . S
C605 C604 1.287 . S
C605 C606 1.524 . S
C605 H608 0.999 . S
C606 H576 0.950 . S
C606 C605 1.524 . S
C606 C607 1.415 . S
C607 H577 0.950 . S
C607 C602 1.363 . S
C607 C606 1.415 . S
H608 C605 0.999 . S
H609 C590 0.913 . S
H610 C628 0.951 . S
H611 C630 0.951 . S
H612 C632 0.950 . S
H613 C633 0.950 . S
H614 C635 0.950 . S
H615 C638 0.950 . S
H616 C639 0.950 . S
H617 C641 0.950 . S
H618 C642 0.950 . S
H619 C643 0.951 . S
H620 C645 0.951 . S
H621 C647 0.950 . S
H622 C648 0.950 . S
H623 C650 0.950 . S
H624 C653 0.950 . S
H625 C654 0.950 . S
H626 C656 0.950 . S
H627 C657 0.950 . S
C628 H610 0.951 . S
C628 C629 1.366 . S
C628 C630 1.388 . S
C629 C628 1.366 . S
C629 C633 1.385 . S
C630 H611 0.951 . S
C630 C628 1.388 . S
C630 C631 1.366 . S
C631 C630 1.366 . S
C631 C632 1.414 . S
C631 C634 1.499 . S
C632 H612 0.950 . S
C632 C631 1.414 . S
C632 C633 1.374 . S
C633 H613 0.950 . S
C633 C629 1.385 . S
C633 C632 1.374 . S
C634 C631 1.499 . S
C634 C635 1.373 . S
C634 C636 1.389 . S
C635 H614 0.950 . S
C635 C634 1.373 . S
C635 C651 1.377 . S
C636 C634 1.389 . S
C636 C637 1.524 . S
C636 C650 1.377 . S
C637 C636 1.524 . S
C637 C638 1.397 . S
C637 C642 1.363 . S
C638 H615 0.950 . S
C638 C637 1.397 . S
C638 C639 1.334 . S
C639 H616 0.950 . S
C639 C638 1.334 . S
C639 C640 1.287 . S
C640 C639 1.287 . S
C640 C641 1.524 . S
C640 H659 0.913 . S
C641 H617 0.950 . S
C641 C640 1.524 . S
C641 C642 1.415 . S
C642 H618 0.950 . S
C642 C637 1.363 . S
C642 C641 1.415 . S
C643 H619 0.951 . S
C643 C644 1.366 . S
C643 C645 1.388 . S
C644 C643 1.366 . S
C644 C648 1.385 . S
C645 H620 0.951 . S
C645 C643 1.388 . S
C645 C646 1.366 . S
C646 C645 1.366 . S
C646 C647 1.414 . S
C646 C649 1.499 . S
C647 H621 0.950 . S
C647 C646 1.414 . S
C647 C648 1.374 . S
C648 H622 0.950 . S
C648 C644 1.385 . S
C648 C647 1.374 . S
C649 C646 1.499 . S
C649 C650 1.373 . S
C649 C651 1.389 . S
C650 H623 0.950 . S
C650 C636 1.377 . S
C650 C649 1.373 . S
C651 C635 1.377 . S
C651 C649 1.389 . S
C651 C652 1.524 . S
C652 C651 1.524 . S
C652 C653 1.397 . S
C652 C657 1.363 . S
C653 H624 0.950 . S
C653 C652 1.397 . S
C653 C654 1.334 . S
C654 H625 0.950 . S
C654 C653 1.334 . S
C654 C655 1.287 . S
C655 C654 1.287 . S
C655 C656 1.524 . S
C655 H658 0.999 . S
C656 H626 0.950 . S
C656 C655 1.524 . S
C656 C657 1.415 . S
C657 H627 0.950 . S
C657 C652 1.363 . S
C657 C656 1.415 . S
H658 C655 0.999 . S
H659 C640 0.913 . S
H660 C678 0.951 . S
H661 C680 0.951 . S
H662 C682 0.950 . S
H663 C683 0.950 . S
H664 C685 0.950 . S
H665 C688 0.950 . S
H666 C689 0.950 . S
H667 C691 0.950 . S
H668 C692 0.950 . S
H669 C693 0.951 . S
H670 C695 0.951 . S
H671 C697 0.950 . S
H672 C698 0.950 . S
H673 C700 0.950 . S
H674 C703 0.950 . S
H675 C704 0.950 . S
H676 C706 0.950 . S
H677 C707 0.950 . S
C678 H660 0.951 . S
C678 C679 1.366 . S
C678 C680 1.388 . S
C679 C678 1.366 . S
C679 C683 1.385 . S
C680 H661 0.951 . S
C680 C678 1.388 . S
C680 C681 1.366 . S
C681 C680 1.366 . S
C681 C682 1.414 . S
C681 C684 1.499 . S
C682 H662 0.950 . S
C682 C681 1.414 . S
C682 C683 1.374 . S
C683 H663 0.950 . S
C683 C679 1.385 . S
C683 C682 1.374 . S
C684 C681 1.499 . S
C684 C685 1.373 . S
C684 C686 1.389 . S
C685 H664 0.950 . S
C685 C684 1.373 . S
C685 C701 1.377 . S
C686 C684 1.389 . S
C686 C687 1.524 . S
C686 C700 1.377 . S
C687 C686 1.524 . S
C687 C688 1.397 . S
C687 C692 1.363 . S
C688 H665 0.950 . S
C688 C687 1.397 . S
C688 C689 1.334 . S
C689 H666 0.950 . S
C689 C688 1.334 . S
C689 C690 1.287 . S
C690 C689 1.287 . S
C690 C691 1.524 . S
C690 H709 0.913 . S
C691 H667 0.950 . S
C691 C690 1.524 . S
C691 C692 1.415 . S
C692 H668 0.950 . S
C692 C687 1.363 . S
C692 C691 1.415 . S
C693 H669 0.951 . S
C693 C694 1.366 . S
C693 C695 1.388 . S
C694 C693 1.366 . S
C694 C698 1.385 . S
C695 H670 0.951 . S
C695 C693 1.388 . S
C695 C696 1.366 . S
C696 C695 1.366 . S
C696 C697 1.414 . S
C696 C699 1.499 . S
C697 H671 0.950 . S
C697 C696 1.414 . S
C697 C698 1.374 . S
C698 H672 0.950 . S
C698 C694 1.385 . S
C698 C697 1.374 . S
C699 C696 1.499 . S
C699 C700 1.373 . S
C699 C701 1.389 . S
C700 H673 0.950 . S
C700 C686 1.377 . S
C700 C699 1.373 . S
C701 C685 1.377 . S
C701 C699 1.389 . S
C701 C702 1.524 . S
C702 C701 1.524 . S
C702 C703 1.397 . S
C702 C707 1.363 . S
C703 H674 0.950 . S
C703 C702 1.397 . S
C703 C704 1.334 . S
C704 H675 0.950 . S
C704 C703 1.334 . S
C704 C705 1.287 . S
C705 C704 1.287 . S
C705 C706 1.524 . S
C705 H708 0.999 . S
C706 H676 0.950 . S
C706 C705 1.524 . S
C706 C707 1.415 . S
C707 H677 0.950 . S
C707 C702 1.363 . S
C707 C706 1.415 . S
H708 C705 0.999 . S
H709 C690 0.913 . S
H710 C728 0.951 . S
H711 C730 0.951 . S
H712 C732 0.950 . S
H713 C733 0.950 . S
H714 C735 0.950 . S
H715 C738 0.950 . S
H716 C739 0.950 . S
H717 C741 0.950 . S
H718 C742 0.950 . S
H719 C743 0.951 . S
H720 C745 0.951 . S
H721 C747 0.950 . S
H722 C748 0.950 . S
H723 C750 0.950 . S
H724 C753 0.950 . S
H725 C754 0.950 . S
H726 C756 0.950 . S
H727 C757 0.950 . S
C728 H710 0.951 . S
C728 C729 1.366 . S
C728 C730 1.388 . S
C729 C728 1.366 . S
C729 C733 1.385 . S
C730 H711 0.951 . S
C730 C728 1.388 . S
C730 C731 1.366 . S
C731 C730 1.366 . S
C731 C732 1.414 . S
C731 C734 1.499 . S
C732 H712 0.950 . S
C732 C731 1.414 . S
C732 C733 1.374 . S
C733 H713 0.950 . S
C733 C729 1.385 . S
C733 C732 1.374 . S
C734 C731 1.499 . S
C734 C735 1.373 . S
C734 C736 1.389 . S
C735 H714 0.950 . S
C735 C734 1.373 . S
C735 C751 1.377 . S
C736 C734 1.389 . S
C736 C737 1.524 . S
C736 C750 1.377 . S
C737 C736 1.524 . S
C737 C738 1.397 . S
C737 C742 1.363 . S
C738 H715 0.950 . S
C738 C737 1.397 . S
C738 C739 1.334 . S
C739 H716 0.950 . S
C739 C738 1.334 . S
C739 C740 1.287 . S
C740 C739 1.287 . S
C740 C741 1.524 . S
C740 H759 0.913 . S
C741 H717 0.950 . S
C741 C740 1.524 . S
C741 C742 1.415 . S
C742 H718 0.950 . S
C742 C737 1.363 . S
C742 C741 1.415 . S
C743 H719 0.951 . S
C743 C744 1.366 . S
C743 C745 1.388 . S
C744 C743 1.366 . S
C744 C748 1.385 . S
C745 H720 0.951 . S
C745 C743 1.388 . S
C745 C746 1.366 . S
C746 C745 1.366 . S
C746 C747 1.414 . S
C746 C749 1.499 . S
C747 H721 0.950 . S
C747 C746 1.414 . S
C747 C748 1.374 . S
C748 H722 0.950 . S
C748 C744 1.385 . S
C748 C747 1.374 . S
C749 C746 1.499 . S
C749 C750 1.373 . S
C749 C751 1.389 . S
C750 H723 0.950 . S
C750 C736 1.377 . S
C750 C749 1.373 . S
C751 C735 1.377 . S
C751 C749 1.389 . S
C751 C752 1.524 . S
C752 C751 1.524 . S
C752 C753 1.397 . S
C752 C757 1.363 . S
C753 H724 0.950 . S
C753 C752 1.397 . S
C753 C754 1.334 . S
C754 H725 0.950 . S
C754 C753 1.334 . S
C754 C755 1.287 . S
C755 C754 1.287 . S
C755 C756 1.524 . S
C755 H758 0.999 . S
C756 H726 0.950 . S
C756 C755 1.524 . S
C756 C757 1.415 . S
C757 H727 0.950 . S
C757 C752 1.363 . S
C757 C756 1.415 . S
H758 C755 0.999 . S
H759 C740 0.913 . S
H760 C778 0.951 . S
H761 C780 0.951 . S
H762 C782 0.950 . S
H763 C783 0.950 . S
H764 C785 0.950 . S
H765 C788 0.950 . S
H766 C789 0.950 . S
H767 C791 0.950 . S
H768 C792 0.950 . S
H769 C793 0.951 . S
H770 C795 0.951 . S
H771 C797 0.950 . S
H772 C798 0.950 . S
H773 C800 0.950 . S
H774 C803 0.950 . S
H775 C804 0.950 . S
H776 C806 0.950 . S
H777 C807 0.950 . S
C778 H760 0.951 . S
C778 C779 1.366 . S
C778 C780 1.388 . S
C779 C778 1.366 . S
C779 C783 1.385 . S
C780 H761 0.951 . S
C780 C778 1.388 . S
C780 C781 1.366 . S
C781 C780 1.366 . S
C781 C782 1.414 . S
C781 C784 1.499 . S
C782 H762 0.950 . S
C782 C781 1.414 . S
C782 C783 1.374 . S
C783 H763 0.950 . S
C783 C779 1.385 . S
C783 C782 1.374 . S
C784 C781 1.499 . S
C784 C785 1.373 . S
C784 C786 1.389 . S
C785 H764 0.950 . S
C785 C784 1.373 . S
C785 C801 1.377 . S
C786 C784 1.389 . S
C786 C787 1.524 . S
C786 C800 1.377 . S
C787 C786 1.524 . S
C787 C788 1.397 . S
C787 C792 1.363 . S
C788 H765 0.950 . S
C788 C787 1.397 . S
C788 C789 1.334 . S
C789 H766 0.950 . S
C789 C788 1.334 . S
C789 C790 1.287 . S
C790 C789 1.287 . S
C790 C791 1.524 . S
C790 H809 0.913 . S
C791 H767 0.950 . S
C791 C790 1.524 . S
C791 C792 1.415 . S
C792 H768 0.950 . S
C792 C787 1.363 . S
C792 C791 1.415 . S
C793 H769 0.951 . S
C793 C794 1.366 . S
C793 C795 1.388 . S
C794 C793 1.366 . S
C794 C798 1.385 . S
C795 H770 0.951 . S
C795 C793 1.388 . S
C795 C796 1.366 . S
C796 C795 1.366 . S
C796 C797 1.414 . S
C796 C799 1.499 . S
C797 H771 0.950 . S
C797 C796 1.414 . S
C797 C798 1.374 . S
C798 H772 0.950 . S
C798 C794 1.385 . S
C798 C797 1.374 . S
C799 C796 1.499 . S
C799 C800 1.373 . S
C799 C801 1.389 . S
C800 H773 0.950 . S
C800 C786 1.377 . S
C800 C799 1.373 . S
C801 C785 1.377 . S
C801 C799 1.389 . S
C801 C802 1.524 . S
C802 C801 1.524 . S
C802 C803 1.397 . S
C802 C807 1.363 . S
C803 H774 0.950 . S
C803 C802 1.397 . S
C803 C804 1.334 . S
C804 H775 0.950 . S
C804 C803 1.334 . S
C804 C805 1.287 . S
C805 C804 1.287 . S
C805 C806 1.524 . S
C805 H808 0.999 . S
C806 H776 0.950 . S
C806 C805 1.524 . S
C806 C807 1.415 . S
C807 H777 0.950 . S
C807 C802 1.363 . S
C807 C806 1.415 . S
H808 C805 0.999 . S
H809 C790 0.913 . S
H810 C828 0.951 . S
H811 C830 0.951 . S
H812 C832 0.950 . S
H813 C833 0.950 . S
H814 C835 0.950 . S
H815 C838 0.950 . S
H816 C839 0.950 . S
H817 C841 0.950 . S
H818 C842 0.950 . S
H819 C843 0.951 . S
H820 C845 0.951 . S
H821 C847 0.950 . S
H822 C848 0.950 . S
H823 C850 0.950 . S
H824 C853 0.950 . S
H825 C854 0.950 . S
H826 C856 0.950 . S
H827 C857 0.950 . S
C828 H810 0.951 . S
C828 C829 1.366 . S
C828 C830 1.388 . S
C829 C828 1.366 . S
C829 C833 1.385 . S
C830 H811 0.951 . S
C830 C828 1.388 . S
C830 C831 1.366 . S
C831 C830 1.366 . S
C831 C832 1.414 . S
C831 C834 1.499 . S
C832 H812 0.950 . S
C832 C831 1.414 . S
C832 C833 1.374 . S
C833 H813 0.950 . S
C833 C829 1.385 . S
C833 C832 1.374 . S
C834 C831 1.499 . S
C834 C835 1.373 . S
C834 C836 1.389 . S
C835 H814 0.950 . S
C835 C834 1.373 . S
C835 C851 1.377 . S
C836 C834 1.389 . S
C836 C837 1.524 . S
C836 C850 1.377 . S
C837 C836 1.524 . S
C837 C838 1.397 . S
C837 C842 1.363 . S
C838 H815 0.950 . S
C838 C837 1.397 . S
C838 C839 1.334 . S
C839 H816 0.950 . S
C839 C838 1.334 . S
C839 C840 1.287 . S
C840 C839 1.287 . S
C840 C841 1.524 . S
C840 H859 0.913 . S
C841 H817 0.950 . S
C841 C840 1.524 . S
C841 C842 1.415 . S
C842 H818 0.950 . S
C842 C837 1.363 . S
C842 C841 1.415 . S
C843 H819 0.951 . S
C843 C844 1.366 . S
C843 C845 1.388 . S
C844 C843 1.366 . S
C844 C848 1.385 . S
C845 H820 0.951 . S
C845 C843 1.388 . S
C845 C846 1.366 . S
C846 C845 1.366 . S
C846 C847 1.414 . S
C846 C849 1.499 . S
C847 H821 0.950 . S
C847 C846 1.414 . S
C847 C848 1.374 . S
C848 H822 0.950 . S
C848 C844 1.385 . S
C848 C847 1.374 . S
C849 C846 1.499 . S
C849 C850 1.373 . S
C849 C851 1.389 . S
C850 H823 0.950 . S
C850 C836 1.377 . S
C850 C849 1.373 . S
C851 C835 1.377 . S
C851 C849 1.389 . S
C851 C852 1.524 . S
C852 C851 1.524 . S
C852 C853 1.397 . S
C852 C857 1.363 . S
C853 H824 0.950 . S
C853 C852 1.397 . S
C853 C854 1.334 . S
C854 H825 0.950 . S
C854 C853 1.334 . S
C854 C855 1.287 . S
C855 C854 1.287 . S
C855 C856 1.524 . S
C855 H858 0.999 . S
C856 H826 0.950 . S
C856 C855 1.524 . S
C856 C857 1.415 . S
C857 H827 0.950 . S
C857 C852 1.363 . S
C857 C856 1.415 . S
H858 C855 0.999 . S
H859 C840 0.913 . S
H860 C878 0.951 . S
H861 C880 0.951 . S
H862 C882 0.950 . S
H863 C883 0.950 . S
H864 C885 0.950 . S
H865 C888 0.950 . S
H866 C889 0.950 . S
H867 C891 0.950 . S
H868 C892 0.950 . S
H869 C893 0.951 . S
H870 C895 0.951 . S
H871 C897 0.950 . S
H872 C898 0.950 . S
H873 C900 0.950 . S
H874 C903 0.950 . S
H875 C904 0.950 . S
H876 C906 0.950 . S
H877 C907 0.950 . S
C878 H860 0.951 . S
C878 C879 1.366 . S
C878 C880 1.388 . S
C879 C878 1.366 . S
C879 C883 1.385 . S
C880 H861 0.951 . S
C880 C878 1.388 . S
C880 C881 1.366 . S
C881 C880 1.366 . S
C881 C882 1.414 . S
C881 C884 1.499 . S
C882 H862 0.950 . S
C882 C881 1.414 . S
C882 C883 1.374 . S
C883 H863 0.950 . S
C883 C879 1.385 . S
C883 C882 1.374 . S
C884 C881 1.499 . S
C884 C885 1.373 . S
C884 C886 1.389 . S
C885 H864 0.950 . S
C885 C884 1.373 . S
C885 C901 1.377 . S
C886 C884 1.389 . S
C886 C887 1.524 . S
C886 C900 1.377 . S
C887 C886 1.524 . S
C887 C888 1.397 . S
C887 C892 1.363 . S
C888 H865 0.950 . S
C888 C887 1.397 . S
C888 C889 1.334 . S
C889 H866 0.950 . S
C889 C888 1.334 . S
C889 C890 1.287 . S
C890 C889 1.287 . S
C890 C891 1.524 . S
C890 H909 0.913 . S
C891 H867 0.950 . S
C891 C890 1.524 . S
C891 C892 1.415 . S
C892 H868 0.950 . S
C892 C887 1.363 . S
C892 C891 1.415 . S
C893 H869 0.951 . S
C893 C894 1.366 . S
C893 C895 1.388 . S
C894 C893 1.366 . S
C894 C898 1.385 . S
C895 H870 0.951 . S
C895 C893 1.388 . S
C895 C896 1.366 . S
C896 C895 1.366 . S
C896 C897 1.414 . S
C896 C899 1.499 . S
C897 H871 0.950 . S
C897 C896 1.414 . S
C897 C898 1.374 . S
C898 H872 0.950 . S
C898 C894 1.385 . S
C898 C897 1.374 . S
C899 C896 1.499 . S
C899 C900 1.373 . S
C899 C901 1.389 . S
C900 H873 0.950 . S
C900 C886 1.377 . S
C900 C899 1.373 . S
C901 C885 1.377 . S
C901 C899 1.389 . S
C901 C902 1.524 . S
C902 C901 1.524 . S
C902 C903 1.397 . S
C902 C907 1.363 . S
C903 H874 0.950 . S
C903 C902 1.397 . S
C903 C904 1.334 . S
C904 H875 0.950 . S
C904 C903 1.334 . S
C904 C905 1.287 . S
C905 C904 1.287 . S
C905 C906 1.524 . S
C905 H908 0.999 . S
C906 H876 0.950 . S
C906 C905 1.524 . S
C906 C907 1.415 . S
C907 H877 0.950 . S
C907 C902 1.363 . S
C907 C906 1.415 . S
H908 C905 0.999 . S
H909 C890 0.913 . S
H910 C928 0.951 . S
H911 C930 0.951 . S
H912 C932 0.950 . S
H913 C933 0.950 . S
H914 C935 0.950 . S
H915 C938 0.950 . S
H916 C939 0.950 . S
H917 C941 0.950 . S
H918 C942 0.950 . S
H919 C943 0.951 . S
H920 C945 0.951 . S
H921 C947 0.950 . S
H922 C948 0.950 . S
H923 C950 0.950 . S
H924 C953 0.950 . S
H925 C954 0.950 . S
H926 C956 0.950 . S
H927 C957 0.950 . S
C928 H910 0.951 . S
C928 C929 1.366 . S
C928 C930 1.388 . S
C929 C928 1.366 . S
C929 C933 1.385 . S
C930 H911 0.951 . S
C930 C928 1.388 . S
C930 C931 1.366 . S
C931 C930 1.366 . S
C931 C932 1.414 . S
C931 C934 1.499 . S
C932 H912 0.950 . S
C932 C931 1.414 . S
C932 C933 1.374 . S
C933 H913 0.950 . S
C933 C929 1.385 . S
C933 C932 1.374 . S
C934 C931 1.499 . S
C934 C935 1.373 . S
C934 C936 1.389 . S
C935 H914 0.950 . S
C935 C934 1.373 . S
C935 C951 1.377 . S
C936 C934 1.389 . S
C936 C937 1.524 . S
C936 C950 1.377 . S
C937 C936 1.524 . S
C937 C938 1.397 . S
C937 C942 1.363 . S
C938 H915 0.950 . S
C938 C937 1.397 . S
C938 C939 1.334 . S
C939 H916 0.950 . S
C939 C938 1.334 . S
C939 C940 1.287 . S
C940 C939 1.287 . S
C940 C941 1.524 . S
C940 H959 0.913 . S
C941 H917 0.950 . S
C941 C940 1.524 . S
C941 C942 1.415 . S
C942 H918 0.950 . S
C942 C937 1.363 . S
C942 C941 1.415 . S
C943 H919 0.951 . S
C943 C944 1.366 . S
C943 C945 1.388 . S
C944 C943 1.366 . S
C944 C948 1.385 . S
C945 H920 0.951 . S
C945 C943 1.388 . S
C945 C946 1.366 . S
C946 C945 1.366 . S
C946 C947 1.414 . S
C946 C949 1.499 . S
C947 H921 0.950 . S
C947 C946 1.414 . S
C947 C948 1.374 . S
C948 H922 0.950 . S
C948 C944 1.385 . S
C948 C947 1.374 . S
C949 C946 1.499 . S
C949 C950 1.373 . S
C949 C951 1.389 . S
C950 H923 0.950 . S
C950 C936 1.377 . S
C950 C949 1.373 . S
C951 C935 1.377 . S
C951 C949 1.389 . S
C951 C952 1.524 . S
C952 C951 1.524 . S
C952 C953 1.397 . S
C952 C957 1.363 . S
C953 H924 0.950 . S
C953 C952 1.397 . S
C953 C954 1.334 . S
C954 H925 0.950 . S
C954 C953 1.334 . S
C954 C955 1.287 . S
C955 C954 1.287 . S
C955 C956 1.524 . S
C955 H958 0.999 . S
C956 H926 0.950 . S
C956 C955 1.524 . S
C956 C957 1.415 . S
C957 H927 0.950 . S
C957 C952 1.363 . S
C957 C956 1.415 . S
H958 C955 0.999 . S
H959 C940 0.913 . S
H960 C978 0.951 . S
H961 C980 0.951 . S
H962 C982 0.950 . S
H963 C983 0.950 . S
H964 C985 0.950 . S
H965 C988 0.950 . S
H966 C989 0.950 1_554 S
H967 C991 0.950 . S
H968 C992 0.950 . S
H969 C993 0.951 . S
H970 C995 0.951 . S
H971 C997 0.950 . S
H972 C998 0.950 . S
H973 C1000 0.950 . S
H974 C1003 0.950 . S
H975 C1004 0.950 . S
H976 C1006 0.950 . S
H977 C1007 0.950 . S
C978 H960 0.951 . S
C978 C979 1.366 . S
C978 C980 1.388 . S
C979 C978 1.366 . S
C979 C983 1.385 . S
C980 H961 0.951 . S
C980 C978 1.388 . S
C980 C981 1.366 . S
C981 C980 1.366 . S
C981 C982 1.414 . S
C981 C984 1.499 . S
C982 H962 0.950 . S
C982 C981 1.414 . S
C982 C983 1.374 . S
C983 H963 0.950 . S
C983 C979 1.385 . S
C983 C982 1.374 . S
C984 C981 1.499 . S
C984 C985 1.373 . S
C984 C986 1.389 . S
C985 H964 0.950 . S
C985 C984 1.373 . S
C985 C1001 1.377 . S
C986 C984 1.389 . S
C986 C987 1.524 . S
C986 C1000 1.377 . S
C987 C986 1.524 . S
C987 C988 1.397 . S
C987 C992 1.363 . S
C988 H965 0.950 . S
C988 C987 1.397 . S
C988 C989 1.334 . S
C989 H966 0.950 1_556 S
C989 C988 1.334 . S
C989 C990 1.287 . S
C990 C989 1.287 . S
C990 C991 1.524 . S
C990 H1009 0.913 . S
C991 H967 0.950 . S
C991 C990 1.524 . S
C991 C992 1.415 . S
C992 H968 0.950 . S
C992 C987 1.363 . S
C992 C991 1.415 . S
C993 H969 0.951 . S
C993 C994 1.366 . S
C993 C995 1.388 . S
C994 C993 1.366 . S
C994 C998 1.385 . S
C995 H970 0.951 . S
C995 C993 1.388 . S
C995 C996 1.366 . S
C996 C995 1.366 . S
C996 C997 1.414 . S
C996 C999 1.499 . S
C997 H971 0.950 . S
C997 C996 1.414 . S
C997 C998 1.374 . S
C998 H972 0.950 . S
C998 C994 1.385 . S
C998 C997 1.374 . S
C999 C996 1.499 . S
C999 C1000 1.373 . S
C999 C1001 1.389 . S
C1000 H973 0.950 . S
C1000 C986 1.377 . S
C1000 C999 1.373 . S
C1001 C985 1.377 . S
C1001 C999 1.389 . S
C1001 C1002 1.524 . S
C1002 C1001 1.524 . S
C1002 C1003 1.397 . S
C1002 C1007 1.363 . S
C1003 H974 0.950 . S
C1003 C1002 1.397 . S
C1003 C1004 1.334 . S
C1004 H975 0.950 . S
C1004 C1003 1.334 . S
C1004 C1005 1.287 . S
C1005 C1004 1.287 . S
C1005 C1006 1.524 . S
C1005 H1008 0.999 . S
C1006 H976 0.950 . S
C1006 C1005 1.524 . S
C1006 C1007 1.415 . S
C1007 H977 0.950 . S
C1007 C1002 1.363 . S
C1007 C1006 1.415 . S
H1008 C1005 0.999 . S
H1009 C990 0.913 . S
H1010 C1028 0.951 . S
H1011 C1030 0.951 . S
H1012 C1032 0.950 . S
H1013 C1033 0.950 . S
H1014 C1035 0.950 . S
H1015 C1038 0.950 . S
H1016 C1039 0.950 . S
H1017 C1041 0.950 . S
H1018 C1042 0.950 . S
H1019 C1043 0.951 . S
H1020 C1045 0.951 . S
H1021 C1047 0.950 . S
H1022 C1048 0.950 . S
H1023 C1050 0.950 . S
H1024 C1053 0.950 . S
H1025 C1054 0.950 . S
H1026 C1056 0.950 . S
H1027 C1057 0.950 . S
C1028 H1010 0.951 . S
C1028 C1029 1.366 . S
C1028 C1030 1.388 . S
C1029 C1028 1.366 . S
C1029 C1033 1.385 . S
C1030 H1011 0.951 . S
C1030 C1028 1.388 . S
C1030 C1031 1.366 . S
C1031 C1030 1.366 . S
C1031 C1032 1.414 . S
C1031 C1034 1.499 . S
C1032 H1012 0.950 . S
C1032 C1031 1.414 . S
C1032 C1033 1.374 . S
C1033 H1013 0.950 . S
C1033 C1029 1.385 . S
C1033 C1032 1.374 . S
C1034 C1031 1.499 . S
C1034 C1035 1.373 . S
C1034 C1036 1.389 . S
C1035 H1014 0.950 . S
C1035 C1034 1.373 . S
C1035 C1051 1.377 . S
C1036 C1034 1.389 . S
C1036 C1037 1.524 . S
C1036 C1050 1.377 . S
C1037 C1036 1.524 . S
C1037 C1038 1.397 . S
C1037 C1042 1.363 . S
C1038 H1015 0.950 . S
C1038 C1037 1.397 . S
C1038 C1039 1.334 1_565 S
C1039 H1016 0.950 . S
C1039 C1038 1.334 1_545 S
C1039 C1040 1.287 . S
C1040 C1039 1.287 . S
C1040 C1041 1.524 1_545 S
C1040 H1059 0.913 . S
C1041 H1017 0.950 . S
C1041 C1040 1.524 1_565 S
C1041 C1042 1.415 . S
C1042 H1018 0.950 . S
C1042 C1037 1.363 . S
C1042 C1041 1.415 . S
C1043 H1019 0.951 . S
C1043 C1044 1.366 . S
C1043 C1045 1.388 . S
C1044 C1043 1.366 . S
C1044 C1048 1.385 . S
C1045 H1020 0.951 . S
C1045 C1043 1.388 . S
C1045 C1046 1.366 . S
C1046 C1045 1.366 . S
C1046 C1047 1.414 . S
C1046 C1049 1.499 . S
C1047 H1021 0.950 . S
C1047 C1046 1.414 . S
C1047 C1048 1.374 . S
C1048 H1022 0.950 . S
C1048 C1044 1.385 . S
C1048 C1047 1.374 . S
C1049 C1046 1.499 . S
C1049 C1050 1.373 . S
C1049 C1051 1.389 . S
C1050 H1023 0.950 . S
C1050 C1036 1.377 . S
C1050 C1049 1.373 . S
C1051 C1035 1.377 . S
C1051 C1049 1.389 . S
C1051 C1052 1.524 . S
C1052 C1051 1.524 . S
C1052 C1053 1.397 . S
C1052 C1057 1.363 . S
C1053 H1024 0.950 . S
C1053 C1052 1.397 . S
C1053 C1054 1.334 . S
C1054 H1025 0.950 . S
C1054 C1053 1.334 . S
C1054 C1055 1.287 . S
C1055 C1054 1.287 . S
C1055 C1056 1.524 . S
C1055 H1058 0.999 . S
C1056 H1026 0.950 . S
C1056 C1055 1.524 . S
C1056 C1057 1.415 . S
C1057 H1027 0.950 . S
C1057 C1052 1.363 . S
C1057 C1056 1.415 . S
H1058 C1055 0.999 . S
H1059 C1040 0.913 . S
H1060 C1078 0.951 . S
H1061 C1080 0.951 . S
H1062 C1082 0.950 . S
H1063 C1083 0.950 . S
H1064 C1085 0.950 . S
H1065 C1088 0.950 . S
H1066 C1089 0.950 . S
H1067 C1091 0.950 . S
H1068 C1092 0.950 . S
H1069 C1093 0.951 . S
H1070 C1095 0.951 . S
H1071 C1097 0.950 . S
H1072 C1098 0.950 . S
H1073 C1100 0.950 . S
H1074 C1103 0.950 . S
H1075 C1104 0.950 . S
H1076 C1106 0.950 . S
H1077 C1107 0.950 . S
C1078 H1060 0.951 . S
C1078 C1079 1.366 . S
C1078 C1080 1.388 . S
C1079 C1078 1.366 . S
C1079 C1083 1.385 . S
C1080 H1061 0.951 . S
C1080 C1078 1.388 . S
C1080 C1081 1.366 . S
C1081 C1080 1.366 . S
C1081 C1082 1.414 . S
C1081 C1084 1.499 . S
C1082 H1062 0.950 . S
C1082 C1081 1.414 . S
C1082 C1083 1.374 . S
C1083 H1063 0.950 . S
C1083 C1079 1.385 . S
C1083 C1082 1.374 . S
C1084 C1081 1.499 . S
C1084 C1085 1.373 . S
C1084 C1086 1.389 . S
C1085 H1064 0.950 . S
C1085 C1084 1.373 . S
C1085 C1101 1.377 . S
C1086 C1084 1.389 . S
C1086 C1087 1.524 . S
C1086 C1100 1.377 . S
C1087 C1086 1.524 . S
C1087 C1088 1.397 . S
C1087 C1092 1.363 . S
C1088 H1065 0.950 . S
C1088 C1087 1.397 . S
C1088 C1089 1.334 . S
C1089 H1066 0.950 . S
C1089 C1088 1.334 . S
C1089 C1090 1.287 . S
C1090 C1089 1.287 . S
C1090 C1091 1.524 . S
C1090 H1109 0.913 . S
C1091 H1067 0.950 . S
C1091 C1090 1.524 . S
C1091 C1092 1.415 . S
C1092 H1068 0.950 . S
C1092 C1087 1.363 . S
C1092 C1091 1.415 . S
C1093 H1069 0.951 . S
C1093 C1094 1.366 . S
C1093 C1095 1.388 . S
C1094 C1093 1.366 . S
C1094 C1098 1.385 . S
C1095 H1070 0.951 . S
C1095 C1093 1.388 . S
C1095 C1096 1.366 . S
C1096 C1095 1.366 . S
C1096 C1097 1.414 . S
C1096 C1099 1.499 . S
C1097 H1071 0.950 . S
C1097 C1096 1.414 . S
C1097 C1098 1.374 . S
C1098 H1072 0.950 . S
C1098 C1094 1.385 . S
C1098 C1097 1.374 . S
C1099 C1096 1.499 . S
C1099 C1100 1.373 . S
C1099 C1101 1.389 . S
C1100 H1073 0.950 . S
C1100 C1086 1.377 . S
C1100 C1099 1.373 . S
C1101 C1085 1.377 . S
C1101 C1099 1.389 . S
C1101 C1102 1.524 . S
C1102 C1101 1.524 . S
C1102 C1103 1.397 . S
C1102 C1107 1.363 . S
C1103 H1074 0.950 . S
C1103 C1102 1.397 . S
C1103 C1104 1.334 . S
C1104 H1075 0.950 . S
C1104 C1103 1.334 . S
C1104 C1105 1.287 . S
C1105 C1104 1.287 . S
C1105 C1106 1.524 . S
C1105 H1108 0.999 . S
C1106 H1076 0.950 . S
C1106 C1105 1.524 . S
C1106 C1107 1.415 . S
C1107 H1077 0.950 . S
C1107 C1102 1.363 . S
C1107 C1106 1.415 . S
H1108 C1105 0.999 . S
H1109 C1090 0.913 . S
H1110 C1128 0.951 . S
H1111 C1130 0.951 . S
H1112 C1132 0.950 . S
H1113 C1133 0.950 . S
H1114 C1135 0.950 . S
H1115 C1138 0.950 . S
H1116 C1139 0.950 . S
H1117 C1141 0.950 . S
H1118 C1142 0.950 . S
H1119 C1143 0.951 . S
H1120 C1145 0.951 . S
H1121 C1147 0.950 . S
H1122 C1148 0.950 . S
H1123 C1150 0.950 . S
H1124 C1153 0.950 . S
H1125 C1154 0.950 . S
H1126 C1156 0.950 . S
H1127 C1157 0.950 . S
C1128 H1110 0.951 . S
C1128 C1129 1.366 . S
C1128 C1130 1.388 . S
C1129 C1128 1.366 . S
C1129 C1133 1.385 . S
C1130 H1111 0.951 . S
C1130 C1128 1.388 . S
C1130 C1131 1.366 . S
C1131 C1130 1.366 . S
C1131 C1132 1.414 . S
C1131 C1134 1.499 . S
C1132 H1112 0.950 . S
C1132 C1131 1.414 . S
C1132 C1133 1.374 . S
C1133 H1113 0.950 . S
C1133 C1129 1.385 . S
C1133 C1132 1.374 . S
C1134 C1131 1.499 . S
C1134 C1135 1.373 . S
C1134 C1136 1.389 . S
C1135 H1114 0.950 . S
C1135 C1134 1.373 . S
C1135 C1151 1.377 . S
C1136 C1134 1.389 . S
C1136 C1137 1.524 . S
C1136 C1150 1.377 . S
C1137 C1136 1.524 . S
C1137 C1138 1.397 . S
C1137 C1142 1.363 . S
C1138 H1115 0.950 . S
C1138 C1137 1.397 . S
C1138 C1139 1.334 . S
C1139 H1116 0.950 . S
C1139 C1138 1.334 . S
C1139 C1140 1.287 . S
C1140 C1139 1.287 . S
C1140 C1141 1.524 . S
C1140 H1159 0.913 . S
C1141 H1117 0.950 . S
C1141 C1140 1.524 . S
C1141 C1142 1.415 . S
C1142 H1118 0.950 . S
C1142 C1137 1.363 . S
C1142 C1141 1.415 . S
C1143 H1119 0.951 . S
C1143 C1144 1.366 . S
C1143 C1145 1.388 . S
C1144 C1143 1.366 . S
C1144 C1148 1.385 . S
C1145 H1120 0.951 . S
C1145 C1143 1.388 . S
C1145 C1146 1.366 . S
C1146 C1145 1.366 . S
C1146 C1147 1.414 . S
C1146 C1149 1.499 . S
C1147 H1121 0.950 . S
C1147 C1146 1.414 . S
C1147 C1148 1.374 . S
C1148 H1122 0.950 . S
C1148 C1144 1.385 . S
C1148 C1147 1.374 . S
C1149 C1146 1.499 . S
C1149 C1150 1.373 . S
C1149 C1151 1.389 . S
C1150 H1123 0.950 . S
C1150 C1136 1.377 . S
C1150 C1149 1.373 . S
C1151 C1135 1.377 . S
C1151 C1149 1.389 . S
C1151 C1152 1.524 . S
C1152 C1151 1.524 . S
C1152 C1153 1.397 . S
C1152 C1157 1.363 . S
C1153 H1124 0.950 . S
C1153 C1152 1.397 . S
C1153 C1154 1.334 . S
C1154 H1125 0.950 . S
C1154 C1153 1.334 . S
C1154 C1155 1.287 . S
C1155 C1154 1.287 . S
C1155 C1156 1.524 . S
C1155 H1158 0.999 . S
C1156 H1126 0.950 . S
C1156 C1155 1.524 . S
C1156 C1157 1.415 . S
C1157 H1127 0.950 . S
C1157 C1152 1.363 . S
C1157 C1156 1.415 . S
H1158 C1155 0.999 . S
H1159 C1140 0.913 . S
H1160 C1178 0.951 . S
H1161 C1180 0.951 . S
H1162 C1182 0.950 . S
H1163 C1183 0.950 . S
H1164 C1185 0.950 . S
H1165 C1188 0.950 . S
H1166 C1189 0.950 . S
H1167 C1191 0.950 1_554 S
H1168 C1192 0.950 . S
H1169 C1193 0.951 . S
H1170 C1195 0.951 . S
H1171 C1197 0.950 . S
H1172 C1198 0.950 . S
H1173 C1200 0.950 . S
H1174 C1203 0.950 . S
H1175 C1204 0.950 . S
H1176 C1206 0.950 . S
H1177 C1207 0.950 . S
C1178 H1160 0.951 . S
C1178 C1179 1.366 . S
C1178 C1180 1.388 . S
C1179 C1178 1.366 . S
C1179 C1183 1.385 . S
C1180 H1161 0.951 . S
C1180 C1178 1.388 . S
C1180 C1181 1.366 . S
C1181 C1180 1.366 . S
C1181 C1182 1.414 . S
C1181 C1184 1.499 . S
C1182 H1162 0.950 . S
C1182 C1181 1.414 . S
C1182 C1183 1.374 . S
C1183 H1163 0.950 . S
C1183 C1179 1.385 . S
C1183 C1182 1.374 . S
C1184 C1181 1.499 . S
C1184 C1185 1.373 . S
C1184 C1186 1.389 . S
C1185 H1164 0.950 . S
C1185 C1184 1.373 . S
C1185 C1201 1.377 . S
C1186 C1184 1.389 . S
C1186 C1187 1.524 . S
C1186 C1200 1.377 . S
C1187 C1186 1.524 . S
C1187 C1188 1.397 . S
C1187 C1192 1.363 . S
C1188 H1165 0.950 . S
C1188 C1187 1.397 . S
C1188 C1189 1.334 . S
C1189 H1166 0.950 . S
C1189 C1188 1.334 . S
C1189 C1190 1.287 . S
C1190 C1189 1.287 . S
C1190 C1191 1.524 . S
C1190 H1209 0.913 1_556 S
C1191 H1167 0.950 1_556 S
C1191 C1190 1.524 . S
C1191 C1192 1.415 . S
C1192 H1168 0.950 . S
C1192 C1187 1.363 . S
C1192 C1191 1.415 . S
C1193 H1169 0.951 . S
C1193 C1194 1.366 . S
C1193 C1195 1.388 . S
C1194 C1193 1.366 . S
C1194 C1198 1.385 . S
C1195 H1170 0.951 . S
C1195 C1193 1.388 . S
C1195 C1196 1.366 . S
C1196 C1195 1.366 . S
C1196 C1197 1.414 . S
C1196 C1199 1.499 . S
C1197 H1171 0.950 . S
C1197 C1196 1.414 . S
C1197 C1198 1.374 . S
C1198 H1172 0.950 . S
C1198 C1194 1.385 . S
C1198 C1197 1.374 . S
C1199 C1196 1.499 . S
C1199 C1200 1.373 . S
C1199 C1201 1.389 . S
C1200 H1173 0.950 . S
C1200 C1186 1.377 . S
C1200 C1199 1.373 . S
C1201 C1185 1.377 . S
C1201 C1199 1.389 . S
C1201 C1202 1.524 . S
C1202 C1201 1.524 . S
C1202 C1203 1.397 . S
C1202 C1207 1.363 . S
C1203 H1174 0.950 . S
C1203 C1202 1.397 . S
C1203 C1204 1.334 . S
C1204 H1175 0.950 . S
C1204 C1203 1.334 . S
C1204 C1205 1.287 . S
C1205 C1204 1.287 . S
C1205 C1206 1.524 . S
C1205 H1208 0.999 . S
C1206 H1176 0.950 . S
C1206 C1205 1.524 . S
C1206 C1207 1.415 . S
C1207 H1177 0.950 . S
C1207 C1202 1.363 . S
C1207 C1206 1.415 . S
H1208 C1205 0.999 . S
H1209 C1190 0.913 1_554 S
H1210 C1228 0.951 . S
H1211 C1230 0.951 . S
H1212 C1232 0.950 . S
H1213 C1233 0.950 . S
H1214 C1235 0.950 . S
H1215 C1238 0.950 . S
H1216 C1239 0.950 . S
H1217 C1241 0.950 . S
H1218 C1242 0.950 . S
H1219 C1243 0.951 . S
H1220 C1245 0.951 . S
H1221 C1247 0.950 . S
H1222 C1248 0.950 . S
H1223 C1250 0.950 . S
H1224 C1253 0.950 . S
H1225 C1254 0.950 . S
H1226 C1256 0.950 . S
H1227 C1257 0.950 . S
C1228 H1210 0.951 . S
C1228 C1229 1.366 . S
C1228 C1230 1.388 . S
C1229 C1228 1.366 . S
C1229 C1233 1.385 . S
C1230 H1211 0.951 . S
C1230 C1228 1.388 . S
C1230 C1231 1.366 . S
C1231 C1230 1.366 . S
C1231 C1232 1.414 . S
C1231 C1234 1.499 . S
C1232 H1212 0.950 . S
C1232 C1231 1.414 . S
C1232 C1233 1.374 . S
C1233 H1213 0.950 . S
C1233 C1229 1.385 . S
C1233 C1232 1.374 . S
C1234 C1231 1.499 . S
C1234 C1235 1.373 . S
C1234 C1236 1.389 . S
C1235 H1214 0.950 . S
C1235 C1234 1.373 . S
C1235 C1251 1.377 . S
C1236 C1234 1.389 . S
C1236 C1237 1.524 . S
C1236 C1250 1.377 . S
C1237 C1236 1.524 . S
C1237 C1238 1.397 . S
C1237 C1242 1.363 . S
C1238 H1215 0.950 . S
C1238 C1237 1.397 . S
C1238 C1239 1.334 . S
C1239 H1216 0.950 . S
C1239 C1238 1.334 . S
C1239 C1240 1.287 . S
C1240 C1239 1.287 . S
C1240 C1241 1.524 . S
C1240 H1259 0.913 . S
C1241 H1217 0.950 . S
C1241 C1240 1.524 . S
C1241 C1242 1.415 . S
C1242 H1218 0.950 . S
C1242 C1237 1.363 . S
C1242 C1241 1.415 . S
C1243 H1219 0.951 . S
C1243 C1244 1.366 . S
C1243 C1245 1.388 . S
C1244 C1243 1.366 . S
C1244 C1248 1.385 . S
C1245 H1220 0.951 . S
C1245 C1243 1.388 . S
C1245 C1246 1.366 . S
C1246 C1245 1.366 . S
C1246 C1247 1.414 . S
C1246 C1249 1.499 . S
C1247 H1221 0.950 . S
C1247 C1246 1.414 . S
C1247 C1248 1.374 . S
C1248 H1222 0.950 . S
C1248 C1244 1.385 . S
C1248 C1247 1.374 . S
C1249 C1246 1.499 . S
C1249 C1250 1.373 . S
C1249 C1251 1.389 . S
C1250 H1223 0.950 . S
C1250 C1236 1.377 . S
C1250 C1249 1.373 . S
C1251 C1235 1.377 . S
C1251 C1249 1.389 . S
C1251 C1252 1.524 . S
C1252 C1251 1.524 . S
C1252 C1253 1.397 . S
C1252 C1257 1.363 . S
C1253 H1224 0.950 . S
C1253 C1252 1.397 . S
C1253 C1254 1.334 . S
C1254 H1225 0.950 . S
C1254 C1253 1.334 . S
C1254 C1255 1.287 . S
C1255 C1254 1.287 . S
C1255 C1256 1.524 . S
C1255 H1258 0.999 . S
C1256 H1226 0.950 . S
C1256 C1255 1.524 . S
C1256 C1257 1.415 . S
C1257 H1227 0.950 . S
C1257 C1252 1.363 . S
C1257 C1256 1.415 . S
H1258 C1255 0.999 . S
H1259 C1240 0.913 . S
H1260 C1278 0.951 . S
H1261 C1280 0.951 . S
H1262 C1282 0.950 . S
H1263 C1283 0.950 . S
H1264 C1285 0.950 . S
H1265 C1288 0.950 . S
H1266 C1289 0.950 . S
H1267 C1291 0.950 . S
H1268 C1292 0.950 . S
H1269 C1293 0.951 . S
H1270 C1295 0.951 . S
H1271 C1297 0.950 . S
H1272 C1298 0.950 . S
H1273 C1300 0.950 . S
H1274 C1303 0.950 . S
H1275 C1304 0.950 . S
H1276 C1306 0.950 . S
H1277 C1307 0.950 . S
C1278 H1260 0.951 . S
C1278 C1279 1.366 . S
C1278 C1280 1.388 . S
C1279 C1278 1.366 . S
C1279 C1283 1.385 . S
C1280 H1261 0.951 . S
C1280 C1278 1.388 . S
C1280 C1281 1.366 . S
C1281 C1280 1.366 . S
C1281 C1282 1.414 . S
C1281 C1284 1.499 . S
C1282 H1262 0.950 . S
C1282 C1281 1.414 . S
C1282 C1283 1.374 . S
C1283 H1263 0.950 . S
C1283 C1279 1.385 . S
C1283 C1282 1.374 . S
C1284 C1281 1.499 . S
C1284 C1285 1.373 . S
C1284 C1286 1.389 . S
C1285 H1264 0.950 . S
C1285 C1284 1.373 . S
C1285 C1301 1.377 . S
C1286 C1284 1.389 . S
C1286 C1287 1.524 . S
C1286 C1300 1.377 . S
C1287 C1286 1.524 . S
C1287 C1288 1.397 . S
C1287 C1292 1.363 . S
C1288 H1265 0.950 . S
C1288 C1287 1.397 . S
C1288 C1289 1.334 . S
C1289 H1266 0.950 . S
C1289 C1288 1.334 . S
C1289 C1290 1.287 . S
C1290 C1289 1.287 . S
C1290 C1291 1.524 . S
C1290 H1309 0.913 . S
C1291 H1267 0.950 . S
C1291 C1290 1.524 . S
C1291 C1292 1.415 . S
C1292 H1268 0.950 . S
C1292 C1287 1.363 . S
C1292 C1291 1.415 . S
C1293 H1269 0.951 . S
C1293 C1294 1.366 . S
C1293 C1295 1.388 . S
C1294 C1293 1.366 . S
C1294 C1298 1.385 . S
C1295 H1270 0.951 . S
C1295 C1293 1.388 . S
C1295 C1296 1.366 . S
C1296 C1295 1.366 . S
C1296 C1297 1.414 . S
C1296 C1299 1.499 . S
C1297 H1271 0.950 . S
C1297 C1296 1.414 . S
C1297 C1298 1.374 . S
C1298 H1272 0.950 . S
C1298 C1294 1.385 . S
C1298 C1297 1.374 . S
C1299 C1296 1.499 . S
C1299 C1300 1.373 . S
C1299 C1301 1.389 . S
C1300 H1273 0.950 . S
C1300 C1286 1.377 . S
C1300 C1299 1.373 . S
C1301 C1285 1.377 . S
C1301 C1299 1.389 . S
C1301 C1302 1.524 . S
C1302 C1301 1.524 . S
C1302 C1303 1.397 . S
C1302 C1307 1.363 . S
C1303 H1274 0.950 . S
C1303 C1302 1.397 . S
C1303 C1304 1.334 . S
C1304 H1275 0.950 . S
C1304 C1303 1.334 . S
C1304 C1305 1.287 . S
C1305 C1304 1.287 . S
C1305 C1306 1.524 . S
C1305 H1308 0.999 . S
C1306 H1276 0.950 . S
C1306 C1305 1.524 . S
C1306 C1307 1.415 . S
C1307 H1277 0.950 . S
C1307 C1302 1.363 . S
C1307 C1306 1.415 . S
H1308 C1305 0.999 . S
H1309 C1290 0.913 . S
H1310 C1328 0.951 . S
H1311 C1330 0.951 . S
H1312 C1332 0.950 . S
H1313 C1333 0.950 . S
H1314 C1335 0.950 . S
H1315 C1338 0.950 . S
H1316 C1339 0.950 1_556 S
H1317 C1341 0.950 . S
H1318 C1342 0.950 . S
H1319 C1343 0.951 . S
H1320 C1345 0.951 . S
H1321 C1347 0.950 . S
H1322 C1348 0.950 . S
H1323 C1350 0.950 . S
H1324 C1353 0.950 . S
H1325 C1354 0.950 . S
H1326 C1356 0.950 . S
H1327 C1357 0.950 . S
C1328 H1310 0.951 . S
C1328 C1329 1.366 . S
C1328 C1330 1.388 . S
C1329 C1328 1.366 . S
C1329 C1333 1.385 . S
C1330 H1311 0.951 . S
C1330 C1328 1.388 . S
C1330 C1331 1.366 . S
C1331 C1330 1.366 . S
C1331 C1332 1.414 . S
C1331 C1334 1.499 . S
C1332 H1312 0.950 . S
C1332 C1331 1.414 . S
C1332 C1333 1.374 . S
C1333 H1313 0.950 . S
C1333 C1329 1.385 . S
C1333 C1332 1.374 . S
C1334 C1331 1.499 . S
C1334 C1335 1.373 . S
C1334 C1336 1.389 . S
C1335 H1314 0.950 . S
C1335 C1334 1.373 . S
C1335 C1351 1.377 . S
C1336 C1334 1.389 . S
C1336 C1337 1.524 . S
C1336 C1350 1.377 . S
C1337 C1336 1.524 . S
C1337 C1338 1.397 . S
C1337 C1342 1.363 . S
C1338 H1315 0.950 . S
C1338 C1337 1.397 . S
C1338 C1339 1.334 . S
C1339 H1316 0.950 1_554 S
C1339 C1338 1.334 . S
C1339 C1340 1.287 . S
C1340 C1339 1.287 . S
C1340 C1341 1.524 . S
C1340 H1359 0.913 1_554 S
C1341 H1317 0.950 . S
C1341 C1340 1.524 . S
C1341 C1342 1.415 . S
C1342 H1318 0.950 . S
C1342 C1337 1.363 . S
C1342 C1341 1.415 . S
C1343 H1319 0.951 . S
C1343 C1344 1.366 . S
C1343 C1345 1.388 . S
C1344 C1343 1.366 . S
C1344 C1348 1.385 . S
C1345 H1320 0.951 . S
C1345 C1343 1.388 . S
C1345 C1346 1.366 . S
C1346 C1345 1.366 . S
C1346 C1347 1.414 . S
C1346 C1349 1.499 . S
C1347 H1321 0.950 . S
C1347 C1346 1.414 . S
C1347 C1348 1.374 . S
C1348 H1322 0.950 . S
C1348 C1344 1.385 . S
C1348 C1347 1.374 . S
C1349 C1346 1.499 . S
C1349 C1350 1.373 . S
C1349 C1351 1.389 . S
C1350 H1323 0.950 . S
C1350 C1336 1.377 . S
C1350 C1349 1.373 . S
C1351 C1335 1.377 . S
C1351 C1349 1.389 . S
C1351 C1352 1.524 . S
C1352 C1351 1.524 . S
C1352 C1353 1.397 . S
C1352 C1357 1.363 . S
C1353 H1324 0.950 . S
C1353 C1352 1.397 . S
C1353 C1354 1.334 . S
C1354 H1325 0.950 . S
C1354 C1353 1.334 . S
C1354 C1355 1.287 . S
C1355 C1354 1.287 . S
C1355 C1356 1.524 . S
C1355 H1358 0.999 . S
C1356 H1326 0.950 . S
C1356 C1355 1.524 . S
C1356 C1357 1.415 . S
C1357 H1327 0.950 . S
C1357 C1352 1.363 . S
C1357 C1356 1.415 . S
H1358 C1355 0.999 . S
H1359 C1340 0.913 1_556 S
H1360 C1378 0.951 . S
H1361 C1380 0.951 . S
H1362 C1382 0.950 . S
H1363 C1383 0.950 . S
H1364 C1385 0.950 . S
H1365 C1388 0.950 . S
H1366 C1389 0.950 . S
H1367 C1391 0.950 . S
H1368 C1392 0.950 . S
H1369 C1393 0.951 . S
H1370 C1395 0.951 . S
H1371 C1397 0.950 . S
H1372 C1398 0.950 . S
H1373 C1400 0.950 . S
H1374 C1403 0.950 . S
H1375 C1404 0.950 . S
H1376 C1406 0.950 . S
H1377 C1407 0.950 . S
C1378 H1360 0.951 . S
C1378 C1379 1.366 . S
C1378 C1380 1.388 . S
C1379 C1378 1.366 . S
C1379 C1383 1.385 . S
C1380 H1361 0.951 . S
C1380 C1378 1.388 . S
C1380 C1381 1.366 . S
C1381 C1380 1.366 . S
C1381 C1382 1.414 . S
C1381 C1384 1.499 . S
C1382 H1362 0.950 . S
C1382 C1381 1.414 . S
C1382 C1383 1.374 . S
C1383 H1363 0.950 . S
C1383 C1379 1.385 . S
C1383 C1382 1.374 . S
C1384 C1381 1.499 . S
C1384 C1385 1.373 . S
C1384 C1386 1.389 . S
C1385 H1364 0.950 . S
C1385 C1384 1.373 . S
C1385 C1401 1.377 . S
C1386 C1384 1.389 . S
C1386 C1387 1.524 . S
C1386 C1400 1.377 . S
C1387 C1386 1.524 . S
C1387 C1388 1.397 . S
C1387 C1392 1.363 . S
C1388 H1365 0.950 . S
C1388 C1387 1.397 . S
C1388 C1389 1.334 . S
C1389 H1366 0.950 . S
C1389 C1388 1.334 . S
C1389 C1390 1.287 . S
C1390 C1389 1.287 . S
C1390 C1391 1.524 . S
C1390 H1409 0.913 . S
C1391 H1367 0.950 . S
C1391 C1390 1.524 . S
C1391 C1392 1.415 . S
C1392 H1368 0.950 . S
C1392 C1387 1.363 . S
C1392 C1391 1.415 . S
C1393 H1369 0.951 . S
C1393 C1394 1.366 . S
C1393 C1395 1.388 . S
C1394 C1393 1.366 . S
C1394 C1398 1.385 . S
C1395 H1370 0.951 . S
C1395 C1393 1.388 . S
C1395 C1396 1.366 . S
C1396 C1395 1.366 . S
C1396 C1397 1.414 . S
C1396 C1399 1.499 . S
C1397 H1371 0.950 . S
C1397 C1396 1.414 . S
C1397 C1398 1.374 . S
C1398 H1372 0.950 . S
C1398 C1394 1.385 . S
C1398 C1397 1.374 . S
C1399 C1396 1.499 . S
C1399 C1400 1.373 . S
C1399 C1401 1.389 . S
C1400 H1373 0.950 . S
C1400 C1386 1.377 . S
C1400 C1399 1.373 . S
C1401 C1385 1.377 . S
C1401 C1399 1.389 . S
C1401 C1402 1.524 . S
C1402 C1401 1.524 . S
C1402 C1403 1.397 . S
C1402 C1407 1.363 . S
C1403 H1374 0.950 . S
C1403 C1402 1.397 . S
C1403 C1404 1.334 . S
C1404 H1375 0.950 . S
C1404 C1403 1.334 . S
C1404 C1405 1.287 . S
C1405 C1404 1.287 . S
C1405 C1406 1.524 . S
C1405 H1408 0.999 . S
C1406 H1376 0.950 . S
C1406 C1405 1.524 . S
C1406 C1407 1.415 . S
C1407 H1377 0.950 . S
C1407 C1402 1.363 . S
C1407 C1406 1.415 . S
H1408 C1405 0.999 . S
H1409 C1390 0.913 . S
H1410 C1428 0.951 . S
H1411 C1430 0.951 . S
H1412 C1432 0.950 . S
H1413 C1433 0.950 . S
H1414 C1435 0.950 . S
H1415 C1438 0.950 . S
H1416 C1439 0.950 1_556 S
H1417 C1441 0.950 . S
H1418 C1442 0.950 . S
H1419 C1443 0.951 . S
H1420 C1445 0.951 . S
H1421 C1447 0.950 . S
H1422 C1448 0.950 . S
H1423 C1450 0.950 . S
H1424 C1453 0.950 . S
H1425 C1454 0.950 . S
H1426 C1456 0.950 . S
H1427 C1457 0.950 . S
C1428 H1410 0.951 . S
C1428 C1429 1.366 . S
C1428 C1430 1.388 . S
C1429 C1428 1.366 . S
C1429 C1433 1.385 . S
C1430 H1411 0.951 . S
C1430 C1428 1.388 . S
C1430 C1431 1.366 . S
C1431 C1430 1.366 . S
C1431 C1432 1.414 . S
C1431 C1434 1.499 . S
C1432 H1412 0.950 . S
C1432 C1431 1.414 . S
C1432 C1433 1.374 . S
C1433 H1413 0.950 . S
C1433 C1429 1.385 . S
C1433 C1432 1.374 . S
C1434 C1431 1.499 . S
C1434 C1435 1.373 . S
C1434 C1436 1.389 . S
C1435 H1414 0.950 . S
C1435 C1434 1.373 . S
C1435 C1451 1.377 . S
C1436 C1434 1.389 . S
C1436 C1437 1.524 . S
C1436 C1450 1.377 . S
C1437 C1436 1.524 . S
C1437 C1438 1.397 . S
C1437 C1442 1.363 . S
C1438 H1415 0.950 . S
C1438 C1437 1.397 . S
C1438 C1439 1.334 . S
C1439 H1416 0.950 1_554 S
C1439 C1438 1.334 . S
C1439 C1440 1.287 . S
C1440 C1439 1.287 . S
C1440 C1441 1.524 . S
C1440 H1459 0.913 1_554 S
C1441 H1417 0.950 . S
C1441 C1440 1.524 . S
C1441 C1442 1.415 . S
C1442 H1418 0.950 . S
C1442 C1437 1.363 . S
C1442 C1441 1.415 . S
C1443 H1419 0.951 . S
C1443 C1444 1.366 . S
C1443 C1445 1.388 . S
C1444 C1443 1.366 . S
C1444 C1448 1.385 . S
C1445 H1420 0.951 . S
C1445 C1443 1.388 . S
C1445 C1446 1.366 . S
C1446 C1445 1.366 . S
C1446 C1447 1.414 . S
C1446 C1449 1.499 . S
C1447 H1421 0.950 . S
C1447 C1446 1.414 . S
C1447 C1448 1.374 . S
C1448 H1422 0.950 . S
C1448 C1444 1.385 . S
C1448 C1447 1.374 . S
C1449 C1446 1.499 . S
C1449 C1450 1.373 . S
C1449 C1451 1.389 . S
C1450 H1423 0.950 . S
C1450 C1436 1.377 . S
C1450 C1449 1.373 . S
C1451 C1435 1.377 . S
C1451 C1449 1.389 . S
C1451 C1452 1.524 . S
C1452 C1451 1.524 . S
C1452 C1453 1.397 . S
C1452 C1457 1.363 . S
C1453 H1424 0.950 . S
C1453 C1452 1.397 . S
C1453 C1454 1.334 . S
C1454 H1425 0.950 . S
C1454 C1453 1.334 . S
C1454 C1455 1.287 . S
C1455 C1454 1.287 . S
C1455 C1456 1.524 . S
C1455 H1458 0.999 . S
C1456 H1426 0.950 . S
C1456 C1455 1.524 . S
C1456 C1457 1.415 . S
C1457 H1427 0.950 . S
C1457 C1452 1.363 . S
C1457 C1456 1.415 . S
H1458 C1455 0.999 . S
H1459 C1440 0.913 1_556 S
H1460 C1478 0.951 . S
H1461 C1480 0.951 . S
H1462 C1482 0.950 . S
H1463 C1483 0.950 . S
H1464 C1485 0.950 . S
H1465 C1488 0.950 . S
H1466 C1489 0.950 . S
H1467 C1491 0.950 . S
H1468 C1492 0.950 . S
H1469 C1493 0.951 . S
H1470 C1495 0.951 . S
H1471 C1497 0.950 . S
H1472 C1498 0.950 . S
H1473 C1500 0.950 . S
H1474 C1503 0.950 . S
H1475 C1504 0.950 . S
H1476 C1506 0.950 . S
H1477 C1507 0.950 . S
C1478 H1460 0.951 . S
C1478 C1479 1.366 . S
C1478 C1480 1.388 . S
C1479 C1478 1.366 . S
C1479 C1483 1.385 . S
C1480 H1461 0.951 . S
C1480 C1478 1.388 . S
C1480 C1481 1.366 . S
C1481 C1480 1.366 . S
C1481 C1482 1.414 . S
C1481 C1484 1.499 . S
C1482 H1462 0.950 . S
C1482 C1481 1.414 . S
C1482 C1483 1.374 . S
C1483 H1463 0.950 . S
C1483 C1479 1.385 . S
C1483 C1482 1.374 . S
C1484 C1481 1.499 . S
C1484 C1485 1.373 . S
C1484 C1486 1.389 . S
C1485 H1464 0.950 . S
C1485 C1484 1.373 . S
C1485 C1501 1.377 . S
C1486 C1484 1.389 . S
C1486 C1487 1.524 . S
C1486 C1500 1.377 . S
C1487 C1486 1.524 . S
C1487 C1488 1.397 . S
C1487 C1492 1.363 . S
C1488 H1465 0.950 . S
C1488 C1487 1.397 . S
C1488 C1489 1.334 . S
C1489 H1466 0.950 . S
C1489 C1488 1.334 . S
C1489 C1490 1.287 . S
C1490 C1489 1.287 . S
C1490 C1491 1.524 . S
C1490 H1509 0.913 . S
C1491 H1467 0.950 . S
C1491 C1490 1.524 . S
C1491 C1492 1.415 . S
C1492 H1468 0.950 . S
C1492 C1487 1.363 . S
C1492 C1491 1.415 . S
C1493 H1469 0.951 . S
C1493 C1494 1.366 . S
C1493 C1495 1.388 . S
C1494 C1493 1.366 . S
C1494 C1498 1.385 . S
C1495 H1470 0.951 . S
C1495 C1493 1.388 . S
C1495 C1496 1.366 . S
C1496 C1495 1.366 . S
C1496 C1497 1.414 . S
C1496 C1499 1.499 . S
C1497 H1471 0.950 . S
C1497 C1496 1.414 . S
C1497 C1498 1.374 . S
C1498 H1472 0.950 . S
C1498 C1494 1.385 . S
C1498 C1497 1.374 . S
C1499 C1496 1.499 . S
C1499 C1500 1.373 . S
C1499 C1501 1.389 . S
C1500 H1473 0.950 . S
C1500 C1486 1.377 . S
C1500 C1499 1.373 . S
C1501 C1485 1.377 . S
C1501 C1499 1.389 . S
C1501 C1502 1.524 . S
C1502 C1501 1.524 . S
C1502 C1503 1.397 . S
C1502 C1507 1.363 . S
C1503 H1474 0.950 . S
C1503 C1502 1.397 . S
C1503 C1504 1.334 . S
C1504 H1475 0.950 . S
C1504 C1503 1.334 . S
C1504 C1505 1.287 . S
C1505 C1504 1.287 . S
C1505 C1506 1.524 . S
C1505 H1508 0.999 . S
C1506 H1476 0.950 . S
C1506 C1505 1.524 . S
C1506 C1507 1.415 . S
C1507 H1477 0.950 . S
C1507 C1502 1.363 . S
C1507 C1506 1.415 . S
H1508 C1505 0.999 . S
H1509 C1490 0.913 . S
H1510 C1528 0.951 . S
H1511 C1530 0.951 . S
H1512 C1532 0.950 . S
H1513 C1533 0.950 . S
H1514 C1535 0.950 . S
H1515 C1538 0.950 . S
H1516 C1539 0.950 . S
H1517 C1541 0.950 . S
H1518 C1542 0.950 . S
H1519 C1543 0.951 . S
H1520 C1545 0.951 . S
H1521 C1547 0.950 . S
H1522 C1548 0.950 . S
H1523 C1550 0.950 . S
H1524 C1553 0.950 . S
H1525 C1554 0.950 . S
H1526 C1556 0.950 . S
H1527 C1557 0.950 . S
C1528 H1510 0.951 . S
C1528 C1529 1.366 . S
C1528 C1530 1.388 . S
C1529 C1528 1.366 . S
C1529 C1533 1.385 . S
C1530 H1511 0.951 . S
C1530 C1528 1.388 . S
C1530 C1531 1.366 . S
C1531 C1530 1.366 . S
C1531 C1532 1.414 . S
C1531 C1534 1.499 . S
C1532 H1512 0.950 . S
C1532 C1531 1.414 . S
C1532 C1533 1.374 . S
C1533 H1513 0.950 . S
C1533 C1529 1.385 . S
C1533 C1532 1.374 . S
C1534 C1531 1.499 . S
C1534 C1535 1.373 . S
C1534 C1536 1.389 . S
C1535 H1514 0.950 . S
C1535 C1534 1.373 . S
C1535 C1551 1.377 . S
C1536 C1534 1.389 . S
C1536 C1537 1.524 . S
C1536 C1550 1.377 . S
C1537 C1536 1.524 . S
C1537 C1538 1.397 . S
C1537 C1542 1.363 . S
C1538 H1515 0.950 . S
C1538 C1537 1.397 . S
C1538 C1539 1.334 . S
C1539 H1516 0.950 . S
C1539 C1538 1.334 . S
C1539 C1540 1.287 . S
C1540 C1539 1.287 . S
C1540 C1541 1.524 . S
C1540 H1559 0.913 . S
C1541 H1517 0.950 . S
C1541 C1540 1.524 . S
C1541 C1542 1.415 . S
C1542 H1518 0.950 . S
C1542 C1537 1.363 . S
C1542 C1541 1.415 . S
C1543 H1519 0.951 . S
C1543 C1544 1.366 . S
C1543 C1545 1.388 . S
C1544 C1543 1.366 . S
C1544 C1548 1.385 . S
C1545 H1520 0.951 . S
C1545 C1543 1.388 . S
C1545 C1546 1.366 . S
C1546 C1545 1.366 . S
C1546 C1547 1.414 . S
C1546 C1549 1.499 . S
C1547 H1521 0.950 . S
C1547 C1546 1.414 . S
C1547 C1548 1.374 . S
C1548 H1522 0.950 . S
C1548 C1544 1.385 . S
C1548 C1547 1.374 . S
C1549 C1546 1.499 . S
C1549 C1550 1.373 . S
C1549 C1551 1.389 . S
C1550 H1523 0.950 . S
C1550 C1536 1.377 . S
C1550 C1549 1.373 . S
C1551 C1535 1.377 . S
C1551 C1549 1.389 . S
C1551 C1552 1.524 . S
C1552 C1551 1.524 . S
C1552 C1553 1.397 . S
C1552 C1557 1.363 . S
C1553 H1524 0.950 . S
C1553 C1552 1.397 . S
C1553 C1554 1.334 . S
C1554 H1525 0.950 . S
C1554 C1553 1.334 . S
C1554 C1555 1.287 . S
C1555 C1554 1.287 . S
C1555 C1556 1.524 . S
C1555 H1558 0.999 . S
C1556 H1526 0.950 . S
C1556 C1555 1.524 . S
C1556 C1557 1.415 . S
C1557 H1527 0.950 . S
C1557 C1552 1.363 . S
C1557 C1556 1.415 . S
H1558 C1555 0.999 . S
H1559 C1540 0.913 . S
C379 C13 1.749 . S
C394 C106 1.727 . S
C429 C27 1.750 . S
C444 C145 1.728 . S
C494 C177 1.710 . S
C479 C29 1.749 . S
C544 C223 1.710 . S
C529 C54 1.750 . S
C594 C290 1.728 . S
C579 C69 1.750 . S
C644 C329 1.727 . S
C629 C83 1.750 . S
C679 C15 1.750 . S
C694 C191 1.727 . S
C729 C41 1.749 . S
C744 C237 1.727 . S
C794 C276 1.711 . S
C779 C42 1.750 . S
C844 C315 1.710 . S
C829 C57 1.750 . S
C879 C71 1.749 . S
C894 C92 1.710 . S
C944 C131 1.711 . S
C929 C1 1.750 . S
C994 C230 1.728 . S
C979 C12 1.750 . S
C1029 C26 1.750 . S
C1044 C283 1.711 . S
C1094 C336 1.711 . S
C1079 C28 1.750 . S
C1129 C55 1.750 . S
C1144 C99 1.711 . S
C1179 C68 1.749 . S
C1194 C152 1.710 . S
C1229 C82 1.750 . S
C1244 C184 1.728 . S
C1279 C14 1.750 . S
C1294 C322 1.728 . S
C1344 C85 1.728 . S
C1329 C40 1.750 . S
C1379 C43 1.750 . S
C1394 C138 1.727 . S
C1429 C56 1.750 . S
C1444 C198 1.711 . S
C1479 C70 1.750 . S
C1494 C244 1.711 . S
C1529 C0 1.749 . S
C1544 C269 1.727 . S
