# Generated by pormake.
# Topology apo, (3,6)-cn, num edge types: 1
# Building blocks:
#     Node 0, Type 0, BuildingBlock: CUQRIR_clean_linker_1, # of connection points: 3
#     Node 1, Type 0, BuildingBlock: CUQRIR_clean_linker_1, # of connection points: 3
#     Node 2, Type 0, BuildingBlock: CUQRIR_clean_linker_1, # of connection points: 3
#     Node 3, Type 0, BuildingBlock: CUQRIR_clean_linker_1, # of connection points: 3
#     Node 4, Type 0, BuildingBlock: CUQRIR_clean_linker_1, # of connection points: 3
#     Node 5, Type 0, BuildingBlock: CUQRIR_clean_linker_1, # of connection points: 3
#     Node 6, Type 0, BuildingBlock: CUQRIR_clean_linker_1, # of connection points: 3
#     Node 7, Type 0, BuildingBlock: CUQRIR_clean_linker_1, # of connection points: 3
#     Node 8, Type 1, BuildingBlock: KUMBUR_clean_sbu_1, # of connection points: 6
#     Node 9, Type 1, BuildingBlock: KUMBUR_clean_sbu_1, # of connection points: 6
#     Node 10, Type 1, BuildingBlock: KUMBUR_clean_sbu_1, # of connection points: 6
#     Node 11, Type 1, BuildingBlock: KUMBUR_clean_sbu_1, # of connection points: 6
#     Edge 12, Type (0, 1), BuildingBlock: OJICUG_clean_linker_0, # of connection points: 2
#     Edge 13, Type (0, 1), BuildingBlock: OJICUG_clean_linker_0, # of connection points: 2
#     Edge 14, Type (0, 1), BuildingBlock: OJICUG_clean_linker_0, # of connection points: 2
#     Edge 15, Type (0, 1), BuildingBlock: OJICUG_clean_linker_0, # of connection points: 2
#     Edge 16, Type (0, 1), BuildingBlock: OJICUG_clean_linker_0, # of connection points: 2
#     Edge 17, Type (0, 1), BuildingBlock: OJICUG_clean_linker_0, # of connection points: 2
#     Edge 18, Type (0, 1), BuildingBlock: OJICUG_clean_linker_0, # of connection points: 2
#     Edge 19, Type (0, 1), BuildingBlock: OJICUG_clean_linker_0, # of connection points: 2
#     Edge 20, Type (0, 1), BuildingBlock: OJICUG_clean_linker_0, # of connection points: 2
#     Edge 21, Type (0, 1), BuildingBlock: OJICUG_clean_linker_0, # of connection points: 2
#     Edge 22, Type (0, 1), BuildingBlock: OJICUG_clean_linker_0, # of connection points: 2
#     Edge 23, Type (0, 1), BuildingBlock: OJICUG_clean_linker_0, # of connection points: 2
#     Edge 24, Type (0, 1), BuildingBlock: OJICUG_clean_linker_0, # of connection points: 2
#     Edge 25, Type (0, 1), BuildingBlock: OJICUG_clean_linker_0, # of connection points: 2
#     Edge 26, Type (0, 1), BuildingBlock: OJICUG_clean_linker_0, # of connection points: 2
#     Edge 27, Type (0, 1), BuildingBlock: OJICUG_clean_linker_0, # of connection points: 2
#     Edge 28, Type (0, 1), BuildingBlock: OJICUG_clean_linker_0, # of connection points: 2
#     Edge 29, Type (0, 1), BuildingBlock: OJICUG_clean_linker_0, # of connection points: 2
#     Edge 30, Type (0, 1), BuildingBlock: OJICUG_clean_linker_0, # of connection points: 2
#     Edge 31, Type (0, 1), BuildingBlock: OJICUG_clean_linker_0, # of connection points: 2
#     Edge 32, Type (0, 1), BuildingBlock: OJICUG_clean_linker_0, # of connection points: 2
#     Edge 33, Type (0, 1), BuildingBlock: OJICUG_clean_linker_0, # of connection points: 2
#     Edge 34, Type (0, 1), BuildingBlock: OJICUG_clean_linker_0, # of connection points: 2
#     Edge 35, Type (0, 1), BuildingBlock: OJICUG_clean_linker_0, # of connection points: 2
# Relax obj value: 0.043
# Max RMSD: 0.251
# Mean RMSD: 0.193
data_MOF--net-apo--node1-KUMBUR_clean_sbu_1--node2-CUQRIR_clean_linker_1--edge1-OJICUG_clean_linker_0
_symmetry_space_group_name_H-M    P1
_symmetry_Int_Tables_number       1
_symmetry_cell_setting            triclinic
loop_
_symmetry_equiv_pos_as_xyz
'x, y, z'
_cell_length_a     18.830466
_cell_length_b     27.522766
_cell_length_c     34.8064
_cell_angle_alpha  89.71272
_cell_angle_beta   89.949685
_cell_angle_gamma 90.683207
loop_
_atom_site_label
_atom_site_type_symbol
_atom_site_fract_x
_atom_site_fract_y
_atom_site_fract_z
_atom_type_partial_charge
C0 C 0.23499 0.33261 0.43184 0.0
N1 N 0.27497 0.37393 0.43382 0.0
N2 N 0.22048 0.32117 0.39476 0.0
C3 C 0.20475 0.30591 0.46608 0.0
C4 C 0.25277 0.35723 0.37433 0.0
N5 N 0.28485 0.38951 0.39798 0.0
C6 C 0.25781 0.35893 0.33121 0.0
H7 H 0.24231 0.27731 0.47514 0.0
H8 H 0.15324 0.28826 0.45883 0.0
H9 H 0.19684 0.33099 0.49053 0.0
H10 H 0.21012 0.37708 0.31961 0.0
H11 H 0.25982 0.32164 0.31947 0.0
H12 H 0.30544 0.37961 0.32141 0.0
C13 C 0.23926 0.17781 0.93397 0.0
N14 N 0.20347 0.13467 0.93455 0.0
N15 N 0.26536 0.18711 0.89843 0.0
C16 C 0.25183 0.20993 0.96815 0.0
C17 C 0.24474 0.14831 0.87747 0.0
N18 N 0.20793 0.11618 0.89943 0.0
C19 C 0.25664 0.14293 0.83503 0.0
H20 H 0.20581 0.23432 0.97161 0.0
H21 H 0.30021 0.2328 0.96406 0.0
H22 H 0.25738 0.18788 0.99473 0.0
H23 H 0.29329 0.1123 0.83039 0.0
H24 H 0.27985 0.17624 0.82185 0.0
H25 H 0.2057 0.1339 0.82057 0.0
C26 C 0.70992 0.19536 0.64862 0.0
N27 N 0.75799 0.15915 0.6458 0.0
N28 N 0.6904 0.20186 0.6857 0.0
C29 C 0.68381 0.22539 0.61529 0.0
C30 C 0.72855 0.16878 0.70547 0.0
N31 N 0.77035 0.14331 0.68132 0.0
C32 C 0.7276 0.1627 0.74862 0.0
H33 H 0.7294 0.23783 0.59739 0.0
H34 H 0.65297 0.25724 0.62456 0.0
H35 H 0.64853 0.20267 0.59709 0.0
H36 H 0.73472 0.12405 0.75673 0.0
H37 H 0.67798 0.17547 0.76189 0.0
H38 H 0.77198 0.18429 0.76107 0.0
C39 C 0.76665 0.30932 0.14861 0.0
N40 N 0.7229 0.34778 0.14409 0.0
N41 N 0.78842 0.30565 0.18558 0.0
C42 C 0.78533 0.27405 0.11736 0.0
C43 C 0.75619 0.34277 0.20351 0.0
N44 N 0.71556 0.36798 0.17849 0.0
C45 C 0.76145 0.35264 0.246 0.0
H46 H 0.73714 0.26408 0.10069 0.0
H47 H 0.81006 0.24069 0.12886 0.0
H48 H 0.82377 0.29166 0.09739 0.0
H49 H 0.81536 0.34513 0.257 0.0
H50 H 0.72353 0.32836 0.26148 0.0
H51 H 0.74863 0.39087 0.25265 0.0
C52 C 0.72451 0.69101 0.64187 0.0
N53 N 0.68753 0.6486 0.63908 0.0
N54 N 0.74372 0.69935 0.67867 0.0
C55 C 0.74621 0.72248 0.60829 0.0
C56 C 0.71791 0.66049 0.69822 0.0
N57 N 0.68459 0.62927 0.67415 0.0
C58 C 0.72351 0.65342 0.7409 0.0
H59 H 0.76954 0.69979 0.58534 0.0
H60 H 0.78513 0.75105 0.61671 0.0
H61 H 0.6984 0.74013 0.59627 0.0
H62 H 0.66976 0.64672 0.75306 0.0
H63 H 0.74813 0.68534 0.75522 0.0
H64 H 0.75579 0.6208 0.74686 0.0
C65 C 0.76362 0.82337 0.14099 0.0
N66 N 0.80394 0.86477 0.14052 0.0
N67 N 0.73846 0.81412 0.17679 0.0
C68 C 0.74475 0.79341 0.1064 0.0
C69 C 0.76428 0.85113 0.19812 0.0
N70 N 0.80337 0.88212 0.17618 0.0
C71 C 0.75311 0.85633 0.24068 0.0
H72 H 0.73958 0.81675 0.08049 0.0
H73 H 0.69429 0.77299 0.11109 0.0
H74 H 0.78739 0.76674 0.10127 0.0
H75 H 0.80297 0.86865 0.25476 0.0
H76 H 0.7347 0.82176 0.25408 0.0
H77 H 0.71235 0.88439 0.24554 0.0
C78 C 0.2997 0.82524 0.42433 0.0
N79 N 0.26365 0.86731 0.42882 0.0
N80 N 0.32973 0.82331 0.38892 0.0
C81 C 0.30258 0.78547 0.45417 0.0
C82 C 0.31135 0.86596 0.37244 0.0
N83 N 0.27079 0.89259 0.39631 0.0
C84 C 0.3337 0.88238 0.33284 0.0
H85 H 0.32261 0.80057 0.48167 0.0
H86 H 0.33606 0.7547 0.44554 0.0
H87 H 0.24821 0.771 0.45936 0.0
H88 H 0.29304 0.87084 0.31162 0.0
H89 H 0.3853 0.86626 0.32474 0.0
H90 H 0.33822 0.92261 0.33162 0.0
C91 C 0.18769 0.68207 0.92282 0.0
N92 N 0.22646 0.64132 0.92808 0.0
N93 N 0.15967 0.68312 0.88697 0.0
C94 C 0.18008 0.72144 0.95242 0.0
C95 C 0.18208 0.64137 0.871 0.0
N96 N 0.22296 0.61598 0.89569 0.0
C97 C 0.16343 0.62467 0.83113 0.0
H98 H 0.15909 0.7055 0.97955 0.0
H99 H 0.14523 0.75121 0.94297 0.0
H100 H 0.23307 0.73748 0.95866 0.0
H101 H 0.20492 0.6373 0.81064 0.0
H102 H 0.11151 0.63938 0.82192 0.0
H103 H 0.16125 0.58445 0.83032 0.0
Tb104 Tb 0.08754 0.0996 0.25013 0.0
C105 C 0.82393 0.01013 0.32382 0.0
N106 N 0.83777 0.05814 0.31809 0.0
C107 C 0.72048 0.0692 0.29308 0.0
C108 C 0.75846 0.98921 0.31287 0.0
C109 C 0.7864 0.08825 0.30442 0.0
C110 C 0.70674 0.01935 0.29687 0.0
C111 C 0.86217 0.93286 0.34941 0.0
C112 C 0.87528 0.9825 0.34166 0.0
C113 C 0.79826 0.91113 0.33705 0.0
C114 C 0.74635 0.93933 0.31901 0.0
Tb115 Tb 0.94597 0.08601 0.33782 0.0
N116 N 0.93554 0.00521 0.35406 0.0
C117 C 0.91206 0.9072 0.37096 0.0
C118 C 0.98008 0.98153 0.37866 0.0
C119 C 0.97046 0.93195 0.38639 0.0
H120 H 0.79668 0.12683 0.3019 0.0
H121 H 0.00728 0.91313 0.40495 0.0
H122 H 0.20847 0.01386 0.26828 0.0
H123 H 0.13149 0.28925 0.21863 0.0
H124 H 0.0224 1.00077 0.39317 0.0
H125 H 0.90408 0.86899 0.37752 0.0
H126 H 0.06806 0.20974 0.21574 0.0
H127 H 0.68032 0.09295 0.2815 0.0
H128 H 0.78749 0.87292 0.34243 0.0
H129 H 0.69644 0.92246 0.31072 0.0
H130 H 0.32703 0.01005 0.29797 0.0
H131 H 0.65567 1.00469 0.28807 0.0
H132 H 0.24614 0.29589 0.25304 0.0
N133 N 0.20133 0.0909 0.27293 0.0
C134 C 0.23811 0.13277 0.27939 0.0
C135 C 0.30221 0.04487 0.29345 0.0
C136 C 0.30713 0.13254 0.29499 0.0
C137 C 0.23438 0.0472 0.27717 0.0
C138 C 0.33817 0.08774 0.30322 0.0
N139 N 0.14403 0.17345 0.25017 0.0
C140 C 0.1176 0.2129 0.23122 0.0
C141 C 0.24719 0.21977 0.26925 0.0
C142 C 0.2089 0.17565 0.26686 0.0
C143 C 0.21807 0.26133 0.25235 0.0
C144 C 0.15345 0.25769 0.23273 0.0
H145 H 0.39107 0.08587 0.31531 0.0
H146 H 0.39676 0.17747 0.31243 0.0
H147 H 0.34419 0.25402 0.28972 0.0
O148 O 0.05299 0.10912 0.19323 0.0
O149 O 0.06927 0.1589 0.29081 0.0
O150 O 0.04859 0.12206 0.34896 0.0
O151 O 0.15548 0.07964 0.20469 0.0
O152 O 0.98234 0.13107 0.24051 0.0
O153 O 0.93042 0.14931 0.30007 0.0
O154 O 0.90707 0.07553 0.39409 0.0
O155 O 0.92045 0.05932 0.27941 0.0
O156 O 0.02634 0.03199 0.25569 0.0
O157 O 0.89852 0.14471 0.36616 0.0
O158 O 0.05549 0.06249 0.34727 0.0
O159 O 0.08932 0.0347 0.28763 0.0
C160 C 0.0762 0.15753 0.32822 0.0
C161 C 0.10114 0.05958 0.14523 0.0
C162 C 0.10487 0.04875 0.07556 0.0
C163 C 0.08158 1.00038 0.08057 0.0
C164 C 0.07802 0.01135 0.14973 0.0
C165 C 0.06791 0.98197 0.11746 0.0
C166 C 0.11416 0.07811 0.10822 0.0
C167 C 0.93792 0.15524 0.26252 0.0
C168 C 0.11054 0.09209 0.17826 0.0
C169 C 0.34402 0.1768 0.30002 0.0
C170 C 0.31415 0.22039 0.28704 0.0
C171 C 0.95674 0.02964 0.25751 0.0
C172 C 0.91753 0.14426 0.43356 0.0
C173 C 0.90949 0.15564 0.50336 0.0
C174 C 0.96641 0.18931 0.50083 0.0
C175 C 0.97444 0.17759 0.43211 0.0
C176 C 0.886 0.1329 0.46924 0.0
C177 C -0.00121 0.19975 0.46559 0.0
C178 C 0.0939 0.03421 0.32542 0.0
C179 C 0.89076 0.1208 0.39827 0.0
H180 H 0.07359 0.97694 0.05601 0.0
H181 H 0.06805 0.99663 0.17809 0.0
H182 H 0.04966 0.94478 0.12105 0.0
H183 H 0.13283 0.11534 0.10496 0.0
H184 H 0.98507 0.20879 0.52586 0.0
H185 H -0.00025 0.18679 0.40509 0.0
H186 H 0.84315 0.10631 0.47014 0.0
H187 H 0.0423 0.22577 0.46414 0.0
Tb188 Tb 0.38711 0.41481 0.75203 0.0
C189 C 0.70262 0.44576 0.80884 0.0
N190 N 0.66197 0.40478 0.81185 0.0
C191 C 0.76184 0.35613 0.79471 0.0
C192 C 0.7748 0.44352 0.79839 0.0
C193 C 0.69053 0.36016 0.80539 0.0
C194 C 0.80418 0.39797 0.79116 0.0
C195 C 0.71133 0.53365 0.81276 0.0
C196 C 0.67111 0.4903 0.81552 0.0
C197 C 0.7835 0.53161 0.80267 0.0
C198 C 0.81507 0.4867 0.79534 0.0
Tb199 Tb 0.54692 0.41653 0.82949 0.0
N200 N 0.60041 0.49101 0.82372 0.0
C201 C 0.67775 0.57768 0.82029 0.0
C202 C 0.56796 0.53368 0.83215 0.0
C203 C 0.60581 0.57766 0.83009 0.0
H204 H 0.65882 0.3275 0.80904 0.0
H205 H 0.57971 0.61147 0.8366 0.0
H206 H 0.27919 0.50634 0.77184 0.0
H207 H 0.34352 0.221 0.74318 0.0
H208 H 0.51358 0.53401 0.84135 0.0
H209 H 0.70704 0.61176 0.81913 0.0
H210 H 0.4118 0.29768 0.7361 0.0
H211 H 0.78423 0.32073 0.78947 0.0
H212 H 0.8153 0.56457 0.80032 0.0
H213 H 0.87068 0.48573 0.78738 0.0
H214 H 0.15402 0.5159 0.79126 0.0
H215 H 0.85944 0.39469 0.78298 0.0
H216 H 0.21836 0.22295 0.76489 0.0
N217 N 0.27289 0.4291 0.77042 0.0
C218 C 0.23041 0.38902 0.77405 0.0
C219 C 0.17524 0.48002 0.78709 0.0
C220 C 0.15877 0.39284 0.7852 0.0
C221 C 0.24626 0.4744 0.77633 0.0
C222 C 0.13145 0.4391 0.79186 0.0
N223 N 0.32914 0.34175 0.75706 0.0
C224 C 0.35867 0.29863 0.74717 0.0
C225 C 0.21742 0.30129 0.7704 0.0
C226 C 0.25923 0.34385 0.76673 0.0
C227 C 0.24867 0.25654 0.76247 0.0
C228 C 0.31944 0.25528 0.75041 0.0
H229 H 0.07651 0.44367 0.80026 0.0
H230 H 0.06168 0.3527 0.79784 0.0
H231 H 0.11313 0.27254 0.78497 0.0
O232 O 0.39813 0.39249 0.69455 0.0
O233 O 0.36829 0.37971 0.80854 0.0
O234 O 0.47678 0.35283 0.83085 0.0
O235 O 0.32306 0.44731 0.70984 0.0
O236 O 0.48611 0.37679 0.73832 0.0
O237 O 0.53482 0.35027 0.79595 0.0
O238 O 0.53996 0.44152 0.88627 0.0
O239 O 0.56695 0.44827 0.77186 0.0
O240 O 0.45957 0.47755 0.75044 0.0
O241 O 0.60832 0.38233 0.87222 0.0
O242 O 0.44536 0.45023 0.84396 0.0
O243 O 0.40262 0.48007 0.78652 0.0
C244 C 0.40701 0.35057 0.82983 0.0
C245 C 0.37023 0.45047 0.64682 0.0
C246 C 0.36881 0.45688 0.57666 0.0
C247 C 0.40188 0.50282 0.57936 0.0
C248 C 0.40304 0.49633 0.64885 0.0
C249 C 0.41915 0.52222 0.61526 0.0
C250 C 0.35361 0.43077 0.61071 0.0
C251 C 0.52755 0.34808 0.75843 0.0
C252 C 0.35125 0.42303 0.68189 0.0
C253 C 0.11684 0.35051 0.78919 0.0
C254 C 0.14611 0.30484 0.78183 0.0
C255 C 0.5294 0.47674 0.74934 0.0
C256 C 0.5568 0.38227 0.93411 0.0
C257 C 0.56865 0.3627 1.00256 0.0
C258 C 0.50775 0.33264 0.99968 0.0
C259 C 0.49586 0.35272 0.93228 0.0
C260 C 0.59269 0.38756 0.96929 0.0
C261 C 0.47161 0.32798 0.96487 0.0
C262 C 0.40444 0.47948 0.82426 0.0
C263 C 0.58239 0.40856 0.89973 0.0
H264 H 0.4148 0.52356 0.55371 0.0
H265 H 0.41532 0.51217 0.67639 0.0
H266 H 0.44467 0.55759 0.61707 0.0
H267 H 0.32727 0.39558 0.6092 0.0
H268 H 0.48856 0.31186 1.02413 0.0
H269 H 0.46696 0.3489 0.90572 0.0
H270 H 0.63887 0.41134 0.97065 0.0
H271 H 0.42484 0.30483 0.96307 0.0
Tb272 Tb 0.05271 0.91901 0.7389 0.0
C273 C 0.73362 0.91703 0.80489 0.0
N274 N 0.7865 0.95049 0.80952 0.0
C275 C 0.70363 0.01493 0.79998 0.0
C276 C 0.66343 0.93123 0.79715 0.0
C277 C 0.77246 0.99903 0.80779 0.0
C278 C 0.64893 0.98091 0.79445 0.0
C279 C 0.69693 0.83223 0.80405 0.0
C280 C 0.75002 0.86829 0.80825 0.0
C281 C 0.62691 0.8461 0.79601 0.0
C282 C 0.6102 0.89548 0.79254 0.0
Tb283 Tb 0.89664 0.92001 0.82085 0.0
N284 N 0.81878 0.85629 0.81476 0.0
C285 C 0.71601 0.78342 0.80797 0.0
C286 C 0.83721 0.80892 0.82032 0.0
C287 C 0.78635 0.77177 0.81645 0.0
H288 H 0.81414 0.02556 0.81287 0.0
H289 H 0.80145 0.73418 0.81991 0.0
H290 H 0.18928 0.86565 0.7799 0.0
H291 H 0.02906 0.09825 0.67508 0.0
H292 H 0.89133 0.79964 0.82675 0.0
H293 H 0.67687 0.75455 0.80478 0.0
H294 H -0.00214 0.01217 0.68436 0.0
H295 H 0.69268 0.0534 0.79851 0.0
H296 H 0.5853 0.81895 0.7925 0.0
H297 H 0.55592 0.90565 0.78647 0.0
H298 H 0.30887 0.8888 0.8032 0.0
H299 H 0.59566 0.99336 0.78851 0.0
H300 H 0.13618 0.13267 0.70629 0.0
N301 N 0.16264 0.93723 0.76282 0.0
C302 C 0.18508 0.98406 0.75878 0.0
C303 C 0.27446 0.91599 0.79093 0.0
C304 C 0.25309 0.99891 0.77129 0.0
C305 C 0.20667 0.90295 0.7779 0.0
C306 C 0.29766 0.96426 0.78783 0.0
N307 N 0.07724 0.99972 0.72686 0.0
C308 C 0.04081 0.02749 0.701 0.0
C309 C 0.1633 0.0649 0.73418 0.0
C310 C 0.14032 0.01657 0.74082 0.0
C311 C 0.12055 0.09531 0.71202 0.0
C312 C 0.05993 0.0761 0.69451 0.0
H313 H 0.35031 0.97424 0.7978 0.0
H314 H 0.32701 0.05953 0.77549 0.0
H315 H 0.2483 0.11748 0.74308 0.0
O316 O 0.05708 0.92388 0.67828 0.0
O317 O 0.07614 0.9405 0.799 0.0
O318 O 0.97479 0.97863 0.8183 0.0
O319 O 0.12509 0.87565 0.70865 0.0
O320 O 0.94824 0.95101 0.72705 0.0
O321 O 0.91887 0.98395 0.78533 0.0
O322 O 0.92663 0.89616 0.87606 0.0
O323 O 0.87153 0.88322 0.76666 0.0
O324 O 0.97556 0.85891 0.73607 0.0
O325 O 0.84231 0.94731 0.86898 0.0
O326 O 0.98266 0.86801 0.82876 0.0
O327 O 0.05005 0.85263 0.77338 0.0
C328 C 0.04362 0.97273 0.82034 0.0
C329 C 0.16986 0.90994 0.65071 0.0
C330 C 0.22351 0.91805 0.58649 0.0
C331 C 0.28639 0.93518 0.60413 0.0
C332 C 0.23307 0.9276 0.66706 0.0
C333 C 0.29064 0.94032 0.64388 0.0
C334 C 0.16501 0.90571 0.61038 0.0
C335 C 0.91447 0.9833 0.74768 0.0
C336 C 0.10973 0.89422 0.6754 0.0
C337 C 0.27489 0.04743 0.76614 0.0
C338 C 0.22998 0.08043 0.74776 0.0
C339 C 0.90689 0.85521 0.74301 0.0
C340 C 0.90301 0.9477 0.9288 0.0
C341 C 0.90554 0.95086 0.99922 0.0
C342 C 0.94157 0.99582 0.99687 0.0
C343 C 0.93902 0.99249 0.92719 0.0
C344 C 0.88705 0.92679 0.96487 0.0
C345 C 0.9587 0.0162 0.96107 0.0
C346 C 0.02897 0.84272 0.80885 0.0
C347 C 0.87979 0.92265 0.89347 0.0
H348 H 0.33358 0.94345 0.58749 0.0
H349 H 0.23876 0.93073 0.69778 0.0
H350 H 0.33947 0.95331 0.65687 0.0
H351 H 0.11584 0.89253 0.59787 0.0
H352 H 0.95669 0.0151 1.02271 0.0
H353 H 0.95103 0.00921 0.89978 0.0
H354 H 0.85846 0.89239 0.96618 0.0
H355 H 0.98669 0.05075 0.95959 0.0
Tb356 Tb 0.43078 0.59242 0.23739 0.0
C357 C 0.75149 0.59751 0.29826 0.0
N358 N 0.70124 0.5618 0.30055 0.0
C359 C 0.7882 0.5024 0.28402 0.0
C360 C 0.82222 0.58715 0.2883 0.0
C361 C 0.71867 0.51451 0.29406 0.0
C362 C 0.84015 0.53888 0.28097 0.0
C363 C 0.78176 0.68306 0.30389 0.0
C364 C 0.73174 0.64468 0.30614 0.0
C365 C 0.85234 0.67305 0.29383 0.0
C366 C 0.87255 0.62519 0.28609 0.0
Tb367 Tb 0.58964 0.58591 0.3169 0.0
N368 N 0.6625 0.65299 0.31466 0.0
C369 C 0.75908 0.7303 0.31145 0.0
C370 C 0.64048 0.69882 0.32302 0.0
C371 C 0.68817 0.73816 0.32119 0.0
H372 H 0.67928 0.48591 0.29727 0.0
H373 H 0.67017 0.77454 0.32724 0.0
H374 H 0.29474 0.64482 0.27959 0.0
H375 H 0.45083 0.41533 0.17039 0.0
H376 H 0.58613 0.70541 0.33056 0.0
H377 H 0.79577 0.76088 0.30987 0.0
H378 H 0.48227 0.50109 0.18009 0.0
H379 H 0.80188 0.46493 0.27893 0.0
H380 H 0.89163 0.70205 0.29188 0.0
H381 H 0.92719 0.61799 0.27842 0.0
H382 H 0.17545 0.6211 0.3034 0.0
H383 H 0.89396 0.52935 0.27325 0.0
H384 H 0.34541 0.37981 0.2029 0.0
N385 N 0.32064 0.57378 0.26134 0.0
C386 C 0.29792 0.52708 0.25691 0.0
C387 C 0.20951 0.59425 0.29056 0.0
C388 C 0.23044 0.51181 0.27013 0.0
C389 C 0.27707 0.60763 0.27719 0.0
C390 C 0.18626 0.54605 0.28729 0.0
N391 N 0.40512 0.51221 0.22407 0.0
C392 C 0.44021 0.4853 0.19727 0.0
C393 C 0.31927 0.4468 0.23171 0.0
C394 C 0.34234 0.49501 0.23842 0.0
C395 C 0.36116 0.41705 0.20873 0.0
C396 C 0.42084 0.43687 0.19051 0.0
H397 H 0.13396 0.53576 0.29774 0.0
H398 H 0.15764 0.45059 0.27565 0.0
H399 H 0.23515 0.39371 0.24162 0.0
O400 O 0.42584 0.59162 0.1768 0.0
O401 O 0.40611 0.56754 0.29675 0.0
O402 O 0.50865 0.52954 0.31169 0.0
O403 O 0.35738 0.63733 0.20908 0.0
O404 O 0.53379 0.56022 0.22223 0.0
O405 O 0.56413 0.5251 0.27945 0.0
O406 O 0.57329 0.60349 0.37532 0.0
O407 O 0.61399 0.62514 0.26315 0.0
O408 O 0.50834 0.65274 0.2363 0.0
O409 O 0.63725 0.54276 0.35922 0.0
O410 O 0.50135 0.63505 0.32963 0.0
O411 O 0.43834 0.65655 0.27398 0.0
C412 C 0.44148 0.53696 0.31838 0.0
C413 C 0.31211 0.60506 0.15085 0.0
C414 C 0.26085 0.59473 0.08658 0.0
C415 C 0.19712 0.57848 0.10398 0.0
C416 C 0.24806 0.58849 0.16718 0.0
C417 C 0.19122 0.57505 0.14384 0.0
C418 C 0.3185 0.60764 0.11056 0.0
C419 C 0.56933 0.52776 0.24195 0.0
C420 C 0.37223 0.62064 0.17528 0.0
C421 C 0.20901 0.46319 0.26536 0.0
C422 C 0.25335 0.43074 0.24619 0.0
C423 C 0.57778 0.65513 0.24122 0.0
C424 C 0.66852 0.58243 0.41676 0.0
C425 C 0.70061 0.59347 0.48428 0.0
C426 C 0.77203 0.59949 0.47321 0.0
C427 C 0.7402 0.58893 0.40652 0.0
C428 C 0.64874 0.5854 0.45576 0.0
C429 C 0.79146 0.59751 0.4346 0.0
C430 C 0.45693 0.6629 0.3103 0.0
C431 C 0.6151 0.56931 0.38745 0.0
H432 H 0.1507 0.56965 0.08698 0.0
H433 H 0.24124 0.58653 0.19793 0.0
H434 H 0.14179 0.56278 0.15672 0.0
H435 H 0.36833 0.61994 0.0981 0.0
H436 H 0.81283 0.60655 0.49446 0.0
H437 H 0.75694 0.58654 0.37692 0.0
H438 H 0.59356 0.58037 0.46394 0.0
H439 H 0.84657 0.60238 0.42641 0.0
C440 C 0.17274 0.91425 0.35355 0.0
C441 C 0.22118 0.92796 0.38238 0.0
H442 H 0.09667 0.93762 0.31174 0.0
C443 C 0.22685 0.97702 0.39271 0.0
H444 H 0.16799 0.87656 0.34502 0.0
C445 C 0.18456 0.01172 0.37445 0.0
C446 C 0.13848 0.99796 0.34458 0.0
H447 H 0.26534 0.98884 0.41376 0.0
H448 H 0.18951 0.04951 0.38271 0.0
C449 C 0.1328 0.94902 0.33427 0.0
C450 C 0.32489 0.59765 0.85492 0.0
C451 C 0.27565 0.58227 0.88294 0.0
H452 H 0.40228 0.57664 0.8132 0.0
C453 C 0.27191 0.53297 0.89317 0.0
H454 H 0.32805 0.63555 0.84649 0.0
C455 C 0.3161 0.49948 0.87502 0.0
C456 C 0.36227 0.51483 0.84552 0.0
H457 H 0.233 0.52002 0.91374 0.0
H458 H 0.31176 0.46134 0.88265 0.0
C459 C 0.36673 0.56412 0.83577 0.0
C460 C 0.57094 0.59191 0.69268 0.0
C461 C 0.64386 0.58734 0.68592 0.0
H462 H 0.47811 0.56163 0.71948 0.0
C463 C 0.67842 0.54519 0.69814 0.0
H464 H 0.54415 0.62499 0.68451 0.0
C465 C 0.64071 0.50836 0.7175 0.0
C466 C 0.56799 0.51362 0.72573 0.0
H467 H 0.73514 0.54177 0.694 0.0
H468 H 0.669 0.47645 0.72698 0.0
C469 C 0.53344 0.55564 0.71272 0.0
C470 C 0.91671 0.91749 0.19783 0.0
C471 C 0.84402 0.9226 0.19063 0.0
H472 H 0.00895 0.94653 0.22592 0.0
C473 C 0.80914 0.964 0.20389 0.0
H474 H 0.94385 0.8851 0.18861 0.0
C475 C 0.84625 0.99959 0.22453 0.0
C476 C 0.91849 0.99368 0.23331 0.0
H477 H 0.75269 0.96796 0.19909 0.0
H478 H 0.81808 0.03131 0.23415 0.0
C479 C 0.95357 0.95253 0.21926 0.0
C480 C 0.80461 0.05729 0.67837 0.0
C481 C 0.81628 0.10434 0.69251 0.0
H482 H 0.82722 0.9813 0.68509 0.0
C483 C 0.8649 0.11149 0.72255 0.0
H484 H 0.76706 0.05114 0.65531 0.0
C485 C 0.89578 0.07191 0.74082 0.0
C486 C 0.88158 0.02464 0.72795 0.0
H487 H 0.87587 0.14768 0.7332 0.0
H488 H 0.93107 0.07823 0.76491 0.0
C489 C 0.83792 0.01758 0.69572 0.0
C490 C 0.68062 0.45392 0.17359 0.0
C491 C 0.66922 0.40702 0.18851 0.0
H492 H 0.65689 0.52991 0.17906 0.0
C493 C 0.61948 0.39982 0.21804 0.0
H494 H 0.71905 0.45996 0.15086 0.0
C495 C 0.58682 0.43929 0.23506 0.0
C496 C 0.60096 0.48656 0.22171 0.0
H497 H 0.60942 0.36372 0.22946 0.0
H498 H 0.55098 0.43294 0.25899 0.0
C499 C 0.6459 0.49363 0.1899 0.0
C500 C 0.2922 0.47275 0.37247 0.0
C501 C 0.32634 0.43092 0.38576 0.0
H502 H 0.30277 0.54069 0.34264 0.0
C503 C 0.39955 0.42639 0.38024 0.0
H504 H 0.23542 0.47641 0.37619 0.0
C505 C 0.43754 0.46196 0.35969 0.0
C506 C 0.4028 0.5028 0.34438 0.0
H507 H 0.42627 0.39388 0.38981 0.0
H508 H 0.4935 0.45627 0.3544 0.0
C509 C 0.33041 0.50888 0.35262 0.0
C510 C 0.19579 0.03313 0.87414 0.0
C511 C 0.16498 0.07724 0.88462 0.0
H512 H 0.18024 0.96406 0.84697 0.0
C513 C 0.09411 0.08606 0.87532 0.0
H514 H 0.251 0.02635 0.88068 0.0
C515 C 0.05489 0.05189 0.85458 0.0
C516 C 0.08545 0.00769 0.84352 0.0
H517 H 0.0704 0.12048 0.88256 0.0
H518 H 0.00101 0.0607 0.84648 0.0
C519 C 0.15582 0.99814 0.85433 0.0
C520 C 0.18851 0.06295 0.97677 0.0
C521 C 0.17097 0.11098 0.96733 0.0
H522 H 0.18129 0.00548 1.01846 0.0
C523 C 0.12542 0.13653 0.9917 0.0
H524 H 0.22386 0.04266 0.95849 0.0
C525 C 0.10163 0.11562 1.02616 0.0
C526 C 0.12232 0.06847 1.03674 0.0
H527 H 0.10975 0.17317 0.9845 0.0
H528 H 0.06816 0.13673 0.04493 0.0
C529 C 0.16423 0.04179 1.0111 0.0
C530 C 0.34007 0.3677 0.4951 0.0
C531 C 0.30356 0.39604 0.46808 0.0
H532 H 0.38935 0.36462 0.55051 0.0
C533 C 0.29196 0.44525 0.47599 0.0
H534 H 0.35064 0.32987 0.48929 0.0
C535 C 0.31469 0.46539 0.51084 0.0
C536 C 0.34889 0.43651 0.53856 0.0
H537 H 0.26314 0.46763 0.45583 0.0
H538 H 0.30329 0.50313 0.51666 0.0
C539 C 0.3621 0.38758 0.53006 0.0
C540 C 0.72024 0.36643 0.07478 0.0
C541 C 0.6841 0.35992 0.10972 0.0
H542 H 0.71294 0.37116 1.01365 0.0
C543 C 0.60966 0.35966 0.10979 0.0
H544 H 0.7777 0.36748 0.07419 0.0
C545 C 0.57207 0.36307 0.07521 0.0
C546 C 0.60821 0.36606 0.03973 0.0
H547 H 0.58062 0.35447 0.13638 0.0
H548 H 0.51461 0.36197 0.07628 0.0
C549 C 0.68289 0.36908 0.04014 0.0
C550 C 0.76207 0.13713 0.57723 0.0
C551 C 0.7977 0.1471 0.61173 0.0
H552 H 0.76792 0.13379 0.51616 0.0
C553 C 0.8718 0.15255 0.61113 0.0
H554 H 0.70509 0.13155 0.57716 0.0
C555 C 0.90883 0.15205 0.5762 0.0
C556 C 0.8723 0.14711 0.54099 0.0
H557 H 0.90053 0.16009 0.6374 0.0
H558 H 0.96583 0.15746 0.57684 0.0
C559 C 0.79859 0.1378 0.54223 0.0
C560 C 0.82532 0.93719 0.09924 0.0
C561 C 0.83657 0.8878 0.10728 0.0
H562 H 0.83857 0.9959 0.0589 0.0
C563 C 0.87538 0.86029 0.08076 0.0
H564 H 0.7949 0.95915 0.11885 0.0
C565 C 0.89864 0.88086 0.04598 0.0
C566 C 0.8852 0.92981 0.03731 0.0
H567 H 0.88636 0.82247 0.0866 0.0
H568 H 0.92679 0.85837 1.0257 0.0
C569 C 0.84988 0.95809 0.06478 0.0
C570 C 0.71606 0.58569 0.59233 0.0
C571 C 0.67254 0.62402 0.60358 0.0
H572 H 0.75901 0.5457 0.54519 0.0
C573 C 0.62819 0.64582 0.57621 0.0
H574 H 0.75136 0.56899 0.61295 0.0
C575 C 0.63234 0.63266 0.53744 0.0
C576 C 0.68167 0.59791 0.52555 0.0
H577 H 0.59488 0.67586 0.5844 0.0
H578 H 0.60163 0.6526 0.51646 0.0
C579 C 0.72095 0.57289 0.55358 0.0
C580 C 0.21554 0.58216 0.98069 0.0
C581 C 0.24975 0.62297 0.96474 0.0
H582 H 0.19517 0.53944 1.03089 0.0
C583 C 0.29602 0.65046 0.98782 0.0
H584 H 0.17823 0.56118 0.96372 0.0
C585 C 0.30286 0.63992 1.02706 0.0
C586 C 0.26451 0.60094 0.04384 0.0
H587 H 0.32335 0.68196 0.97598 0.0
H588 H 0.33469 0.66426 0.04448 0.0
C589 C 0.2238 0.57071 1.01956 0.0
C590 C 0.19141 0.86035 0.48822 0.0
C591 C 0.23992 0.88646 0.46513 0.0
H592 H 0.14927 0.84855 0.54464 0.0
C593 C 0.27504 0.92684 0.48082 0.0
H594 H 0.16314 0.82926 0.47664 0.0
C595 C 0.26497 0.93945 0.51928 0.0
C596 C 0.22187 0.91058 0.54374 0.0
H597 H 0.31423 0.94669 0.46407 0.0
H598 H 0.29399 0.97062 0.53017 0.0
C599 C 0.18301 0.87187 0.52719 0.0
C600 C 0.12985 0.28656 0.35124 0.0
C601 C 0.18104 0.27998 0.38004 0.0
H602 H 0.05735 0.25273 0.31199 0.0
C603 C 0.195 0.2326 0.39311 0.0
H604 H 0.11685 0.32266 0.34128 0.0
C605 C 0.15909 0.19258 0.37723 0.0
C606 C 0.11005 0.19935 0.34742 0.0
H607 H 0.23491 0.22648 0.41489 0.0
H608 H 0.17148 0.15632 0.38723 0.0
C609 C 0.0955 0.24663 0.33471 0.0
C610 C 0.37401 0.22698 0.87475 0.0
C611 C 0.30223 0.22969 0.88483 0.0
H612 H 0.46369 0.26337 0.84955 0.0
C613 C 0.26522 0.27279 0.8782 0.0
H614 H 0.40275 0.19362 0.87937 0.0
C615 C 0.2994 0.31258 0.86078 0.0
C616 C 0.37119 0.30973 0.84999 0.0
H617 H 0.20944 0.27498 0.88548 0.0
H618 H 0.26956 0.34533 0.85541 0.0
C619 C 0.40844 0.26678 0.8577 0.0
C620 C 0.66524 0.28815 0.69723 0.0
C621 C 0.64624 0.23894 0.70148 0.0
H622 H 0.64021 0.36188 0.71139 0.0
C623 C 0.58652 0.22608 0.72353 0.0
H624 H 0.71188 0.29857 0.68079 0.0
C625 C 0.54847 0.26167 0.74274 0.0
C626 C 0.5669 0.3108 0.73801 0.0
H627 H 0.57102 0.18828 0.72688 0.0
H628 H 0.50472 0.25081 0.76123 0.0
C629 C 0.62483 0.32403 0.71478 0.0
C630 C 0.79757 0.22022 0.20596 0.0
C631 C 0.8271 0.2672 0.20362 0.0
H632 H 0.81065 0.14715 0.22665 0.0
C633 C 0.89236 0.2772 0.22138 0.0
H634 H 0.74675 0.21223 0.19275 0.0
C635 C 0.92728 0.24087 0.24175 0.0
C636 C 0.89809 0.19388 0.2438 0.0
H637 H 0.91561 0.31333 0.2198 0.0
H638 H 0.97731 0.24935 0.25561 0.0
C639 C 0.83337 0.18349 0.22561 0.0
C640 C 0.85804 0.73329 0.70019 0.0
C641 C 0.78533 0.73901 0.6933 0.0
H642 H 0.95427 0.76621 0.72101 0.0
C643 C 0.75326 0.78347 0.70111 0.0
H644 H 0.88312 0.69894 0.6942 0.0
C645 C 0.79331 0.82175 0.71642 0.0
C646 C 0.86617 0.81609 0.7239 0.0
H647 H 0.69709 0.78815 0.69584 0.0
H648 H 0.76717 0.85566 0.72267 0.0
C649 C 0.89843 0.7717 0.71517 0.0
C650 C 0.62435 0.77831 0.19783 0.0
C651 C 0.69689 0.77319 0.18999 0.0
H652 H 0.52924 0.74461 0.2198 0.0
C653 C 0.72967 0.72878 0.19768 0.0
H654 H 0.59868 0.81265 0.19238 0.0
C655 C 0.69065 0.6901 0.2137 0.0
C656 C 0.61794 0.69512 0.22203 0.0
H657 H 0.78584 0.72457 0.19212 0.0
H658 H 0.71755 0.65637 0.21981 0.0
C659 C 0.58494 0.73945 0.21341 0.0
C660 C 0.33504 0.76687 0.33449 0.0
C661 C 0.36179 0.78263 0.36995 0.0
H662 H 0.34642 0.71942 0.28685 0.0
C663 C 0.42093 0.75926 0.38568 0.0
H664 H 0.28907 0.78399 0.32192 0.0
C665 C 0.45116 0.7197 0.36682 0.0
C666 C 0.42498 0.7044 0.33088 0.0
H667 H 0.4436 0.7716 0.41254 0.0
H668 H 0.49566 0.7017 0.38018 0.0
C669 C 0.36732 0.72918 0.31472 0.0
C670 C 0.06365 0.7432 0.8821 0.0
C671 C 0.12564 0.72263 0.8674 0.0
H672 H 0.98551 0.7983 0.87588 0.0
C673 C 0.15374 0.74021 0.83262 0.0
H674 H 0.04008 0.72923 0.90836 0.0
C675 C 0.1206 0.7777 0.81279 0.0
C676 C 0.06052 0.80017 0.82831 0.0
H677 H 0.20171 0.72494 0.82081 0.0
H678 H 0.14297 0.78938 0.78562 0.0
C679 C 0.03218 0.78231 0.86318 0.0
loop_
_geom_bond_atom_site_label_1
_geom_bond_atom_site_label_2
_geom_bond_distance
_geom_bond_site_symmetry_2
_ccdc_geom_bond_type
C0 N1 1.317 . S
C0 N2 1.348 . S
C0 C3 1.485 . S
N1 C0 1.317 . S
N1 N5 1.370 . S
N2 C0 1.348 . S
N2 C4 1.346 . S
C3 C0 1.485 . S
C3 H7 0.960 . S
C3 H8 0.961 . S
C3 H9 0.960 . S
C4 N2 1.346 . S
C4 N5 1.307 . S
C4 C6 1.486 . S
N5 N1 1.370 . S
N5 C4 1.307 . S
C6 C4 1.486 . S
C6 H10 0.960 . S
C6 H11 0.960 . S
C6 H12 0.959 . S
H7 C3 0.960 . S
H8 C3 0.961 . S
H9 C3 0.960 . S
H10 C6 0.960 . S
H11 C6 0.960 . S
H12 C6 0.959 . S
C13 N14 1.317 . S
C13 N15 1.348 . S
C13 C16 1.485 . S
N14 C13 1.317 . S
N14 N18 1.370 . S
N15 C13 1.348 . S
N15 C17 1.346 . S
C16 C13 1.485 . S
C16 H20 0.960 . S
C16 H21 0.961 . S
C16 H22 0.960 . S
C17 N15 1.346 . S
C17 N18 1.307 . S
C17 C19 1.486 . S
N18 N14 1.370 . S
N18 C17 1.307 . S
C19 C17 1.486 . S
C19 H23 0.960 . S
C19 H24 0.960 . S
C19 H25 0.959 . S
H20 C16 0.960 . S
H21 C16 0.961 . S
H22 C16 0.960 . S
H23 C19 0.960 . S
H24 C19 0.960 . S
H25 C19 0.959 . S
C26 N27 1.317 . S
C26 N28 1.348 . S
C26 C29 1.485 . S
N27 C26 1.317 . S
N27 N31 1.370 . S
N28 C26 1.348 . S
N28 C30 1.346 . S
C29 C26 1.485 . S
C29 H33 0.960 . S
C29 H34 0.961 . S
C29 H35 0.960 . S
C30 N28 1.346 . S
C30 N31 1.307 . S
C30 C32 1.486 . S
N31 N27 1.370 . S
N31 C30 1.307 . S
C32 C30 1.486 . S
C32 H36 0.960 . S
C32 H37 0.960 . S
C32 H38 0.959 . S
H33 C29 0.960 . S
H34 C29 0.961 . S
H35 C29 0.960 . S
H36 C32 0.960 . S
H37 C32 0.960 . S
H38 C32 0.959 . S
C39 N40 1.317 . S
C39 N41 1.348 . S
C39 C42 1.485 . S
N40 C39 1.317 . S
N40 N44 1.370 . S
N41 C39 1.348 . S
N41 C43 1.346 . S
C42 C39 1.485 . S
C42 H46 0.960 . S
C42 H47 0.961 . S
C42 H48 0.960 . S
C43 N41 1.346 . S
C43 N44 1.307 . S
C43 C45 1.486 . S
N44 N40 1.370 . S
N44 C43 1.307 . S
C45 C43 1.486 . S
C45 H49 0.960 . S
C45 H50 0.960 . S
C45 H51 0.959 . S
H46 C42 0.960 . S
H47 C42 0.961 . S
H48 C42 0.960 . S
H49 C45 0.960 . S
H50 C45 0.960 . S
H51 C45 0.959 . S
C52 N53 1.317 . S
C52 N54 1.348 . S
C52 C55 1.485 . S
N53 C52 1.317 . S
N53 N57 1.370 . S
N54 C52 1.348 . S
N54 C56 1.346 . S
C55 C52 1.485 . S
C55 H59 0.960 . S
C55 H60 0.961 . S
C55 H61 0.960 . S
C56 N54 1.346 . S
C56 N57 1.307 . S
C56 C58 1.486 . S
N57 N53 1.370 . S
N57 C56 1.307 . S
C58 C56 1.486 . S
C58 H62 0.960 . S
C58 H63 0.960 . S
C58 H64 0.959 . S
H59 C55 0.960 . S
H60 C55 0.961 . S
H61 C55 0.960 . S
H62 C58 0.960 . S
H63 C58 0.960 . S
H64 C58 0.959 . S
C65 N66 1.317 . S
C65 N67 1.348 . S
C65 C68 1.485 . S
N66 C65 1.317 . S
N66 N70 1.370 . S
N67 C65 1.348 . S
N67 C69 1.346 . S
C68 C65 1.485 . S
C68 H72 0.960 . S
C68 H73 0.961 . S
C68 H74 0.960 . S
C69 N67 1.346 . S
C69 N70 1.307 . S
C69 C71 1.486 . S
N70 N66 1.370 . S
N70 C69 1.307 . S
C71 C69 1.486 . S
C71 H75 0.960 . S
C71 H76 0.960 . S
C71 H77 0.959 . S
H72 C68 0.960 . S
H73 C68 0.961 . S
H74 C68 0.960 . S
H75 C71 0.960 . S
H76 C71 0.960 . S
H77 C71 0.959 . S
C78 N79 1.317 . S
C78 N80 1.348 . S
C78 C81 1.485 . S
N79 C78 1.317 . S
N79 N83 1.370 . S
N80 C78 1.348 . S
N80 C82 1.346 . S
C81 C78 1.485 . S
C81 H85 0.960 . S
C81 H86 0.961 . S
C81 H87 0.960 . S
C82 N80 1.346 . S
C82 N83 1.307 . S
C82 C84 1.486 . S
N83 N79 1.370 . S
N83 C82 1.307 . S
C84 C82 1.486 . S
C84 H88 0.960 . S
C84 H89 0.960 . S
C84 H90 0.959 . S
H85 C81 0.960 . S
H86 C81 0.961 . S
H87 C81 0.960 . S
H88 C84 0.960 . S
H89 C84 0.960 . S
H90 C84 0.959 . S
C91 N92 1.317 . S
C91 N93 1.348 . S
C91 C94 1.485 . S
N92 C91 1.317 . S
N92 N96 1.370 . S
N93 C91 1.348 . S
N93 C95 1.346 . S
C94 C91 1.485 . S
C94 H98 0.960 . S
C94 H99 0.961 . S
C94 H100 0.960 . S
C95 N93 1.346 . S
C95 N96 1.307 . S
C95 C97 1.486 . S
N96 N92 1.370 . S
N96 C95 1.307 . S
C97 C95 1.486 . S
C97 H101 0.960 . S
C97 H102 0.960 . S
C97 H103 0.959 . S
H98 C94 0.960 . S
H99 C94 0.961 . S
H100 C94 0.960 . S
H101 C97 0.960 . S
H102 C97 0.960 . S
H103 C97 0.959 . S
Tb104 N133 2.617 . S
Tb104 N139 2.572 . S
Tb104 O148 2.465 . S
Tb104 O149 2.387 . S
Tb104 O151 2.428 . S
Tb104 O152 2.308 1_455 S
Tb104 O156 2.349 1_455 S
Tb104 O159 2.393 . S
Tb104 C168 2.802 . S
C105 N106 1.379 . S
C105 C108 1.416 . S
C105 C112 1.424 . S
N106 C105 1.379 . S
N106 C109 1.334 . S
N106 Tb115 2.617 . S
C107 C109 1.390 . S
C107 C110 1.339 . S
C107 H127 0.930 . S
C108 C105 1.416 . S
C108 C110 1.416 . S
C108 C114 1.448 . S
C109 N106 1.334 . S
C109 C107 1.390 . S
C109 H120 0.930 . S
C110 C107 1.339 . S
C110 C108 1.416 . S
C110 H131 0.930 . S
C111 C112 1.413 1_565 S
C111 C113 1.427 . S
C111 C117 1.416 . S
C112 C105 1.424 . S
C112 C111 1.413 1_545 S
C112 N116 1.361 . S
C113 C111 1.427 . S
C113 C114 1.328 1_565 S
C113 H128 0.929 . S
C114 C108 1.448 . S
C114 C113 1.328 1_545 S
C114 H129 0.930 . S
Tb115 N106 2.617 . S
Tb115 N116 2.572 . S
Tb115 O150 2.349 1_655 S
Tb115 O153 2.393 . S
Tb115 O154 2.465 . S
Tb115 O155 2.387 . S
Tb115 O157 2.428 . S
Tb115 O158 2.308 1_655 S
Tb115 C179 2.802 . S
N116 C112 1.361 . S
N116 Tb115 2.572 . S
N116 C118 1.340 1_545 S
C117 C111 1.416 . S
C117 C119 1.332 . S
C117 H125 0.931 . S
C118 N116 1.340 1_565 S
C118 C119 1.407 . S
C118 H124 0.930 . S
C119 C117 1.332 . S
C119 C118 1.407 . S
C119 H121 0.929 . S
H120 C109 0.930 . S
H121 C119 0.929 . S
H122 C137 0.930 . S
H123 C144 0.929 . S
H124 C118 0.930 . S
H125 C117 0.931 . S
H126 C140 0.930 . S
H127 C107 0.930 . S
H128 C113 0.929 . S
H129 C114 0.930 . S
H130 C135 0.930 . S
H131 C110 0.930 . S
H132 C143 0.931 . S
N133 Tb104 2.617 . S
N133 C134 1.379 . S
N133 C137 1.334 . S
C134 N133 1.379 . S
C134 C136 1.416 . S
C134 C142 1.424 . S
C135 H130 0.930 . S
C135 C137 1.390 . S
C135 C138 1.339 . S
C136 C134 1.416 . S
C136 C138 1.416 . S
C136 C169 1.448 . S
C137 H122 0.930 . S
C137 N133 1.334 . S
C137 C135 1.390 . S
C138 C135 1.339 . S
C138 C136 1.416 . S
C138 H145 0.930 . S
N139 Tb104 2.572 . S
N139 C140 1.340 . S
N139 C142 1.361 . S
C140 H126 0.930 . S
C140 N139 1.340 . S
C140 C144 1.407 . S
C141 C142 1.413 . S
C141 C143 1.416 . S
C141 C170 1.427 . S
C142 C134 1.424 . S
C142 N139 1.361 . S
C142 C141 1.413 . S
C143 H132 0.931 . S
C143 C141 1.416 . S
C143 C144 1.332 . S
C144 H123 0.929 . S
C144 C140 1.407 . S
C144 C143 1.332 . S
H145 C138 0.930 . S
H146 C169 0.930 . S
H147 C170 0.929 . S
O148 Tb104 2.465 . S
O148 C168 1.264 . S
O149 Tb104 2.387 . S
O149 C160 1.264 . S
O150 Tb115 2.349 1_455 S
O150 C160 1.243 . S
O151 Tb104 2.428 . S
O151 C168 1.256 . S
O152 Tb104 2.308 1_655 S
O152 C167 1.266 . S
O153 Tb115 2.393 . S
O153 C167 1.248 . S
O154 Tb115 2.465 . S
O154 C179 1.264 . S
O155 Tb115 2.387 . S
O155 C171 1.264 . S
O156 Tb104 2.349 1_655 S
O156 C171 1.243 . S
O157 Tb115 2.428 . S
O157 C179 1.256 . S
O158 Tb115 2.308 1_455 S
O158 C178 1.266 . S
O159 Tb104 2.393 . S
O159 C178 1.248 . S
C160 O149 1.264 . S
C160 O150 1.243 . S
C161 C164 1.399 . S
C161 C166 1.383 . S
C161 C168 1.496 . S
C162 C163 1.399 . S
C162 C166 1.389 . S
C163 C162 1.399 . S
C163 C165 1.380 . S
C163 H180 0.929 . S
C164 C161 1.399 . S
C164 C165 1.392 . S
C164 H181 0.929 . S
C165 C163 1.380 . S
C165 C164 1.392 . S
C165 H182 0.929 1_545 S
C166 C161 1.383 . S
C166 C162 1.389 . S
C166 H183 0.931 . S
C167 O152 1.266 . S
C167 O153 1.248 . S
C168 Tb104 2.802 . S
C168 O148 1.264 . S
C168 O151 1.256 . S
C168 C161 1.496 . S
C169 C136 1.448 . S
C169 H146 0.930 . S
C169 C170 1.328 . S
C170 C141 1.427 . S
C170 H147 0.929 . S
C170 C169 1.328 . S
C171 O155 1.264 . S
C171 O156 1.243 . S
C172 C175 1.399 . S
C172 C176 1.383 . S
C172 C179 1.496 . S
C173 C174 1.399 . S
C173 C176 1.389 . S
C174 C173 1.399 . S
C174 C177 1.380 . S
C174 H184 0.929 . S
C175 C172 1.399 . S
C175 C177 1.392 . S
C175 H185 0.929 . S
C176 C172 1.383 . S
C176 C173 1.389 . S
C176 H186 0.931 . S
C177 C174 1.380 . S
C177 C175 1.392 . S
C177 H187 0.929 . S
C178 O158 1.266 . S
C178 O159 1.248 . S
C179 Tb115 2.802 . S
C179 O154 1.264 . S
C179 O157 1.256 . S
C179 C172 1.496 . S
H180 C163 0.929 . S
H181 C164 0.929 . S
H182 C165 0.929 1_565 S
H183 C166 0.931 . S
H184 C174 0.929 . S
H185 C175 0.929 . S
H186 C176 0.931 . S
H187 C177 0.929 . S
Tb188 N217 2.617 . S
Tb188 N223 2.572 . S
Tb188 O232 2.465 . S
Tb188 O233 2.387 . S
Tb188 O235 2.428 . S
Tb188 O236 2.308 . S
Tb188 O240 2.349 . S
Tb188 O243 2.393 . S
Tb188 C252 2.802 . S
C189 N190 1.379 . S
C189 C192 1.416 . S
C189 C196 1.424 . S
N190 C189 1.379 . S
N190 C193 1.334 . S
N190 Tb199 2.617 . S
C191 C193 1.390 . S
C191 C194 1.339 . S
C191 H211 0.930 . S
C192 C189 1.416 . S
C192 C194 1.416 . S
C192 C198 1.448 . S
C193 N190 1.334 . S
C193 C191 1.390 . S
C193 H204 0.930 . S
C194 C191 1.339 . S
C194 C192 1.416 . S
C194 H215 0.930 . S
C195 C196 1.413 . S
C195 C197 1.427 . S
C195 C201 1.416 . S
C196 C189 1.424 . S
C196 C195 1.413 . S
C196 N200 1.361 . S
C197 C195 1.427 . S
C197 C198 1.328 . S
C197 H212 0.929 . S
C198 C192 1.448 . S
C198 C197 1.328 . S
C198 H213 0.930 . S
Tb199 N190 2.617 . S
Tb199 N200 2.572 . S
Tb199 O234 2.349 . S
Tb199 O237 2.393 . S
Tb199 O238 2.465 . S
Tb199 O239 2.387 . S
Tb199 O241 2.428 . S
Tb199 O242 2.308 . S
Tb199 C263 2.802 . S
N200 C196 1.361 . S
N200 Tb199 2.572 . S
N200 C202 1.340 . S
C201 C195 1.416 . S
C201 C203 1.332 . S
C201 H209 0.931 . S
C202 N200 1.340 . S
C202 C203 1.407 . S
C202 H208 0.930 . S
C203 C201 1.332 . S
C203 C202 1.407 . S
C203 H205 0.929 . S
H204 C193 0.930 . S
H205 C203 0.929 . S
H206 C221 0.930 . S
H207 C228 0.929 . S
H208 C202 0.930 . S
H209 C201 0.931 . S
H210 C224 0.930 . S
H211 C191 0.930 . S
H212 C197 0.929 . S
H213 C198 0.930 . S
H214 C219 0.930 . S
H215 C194 0.930 . S
H216 C227 0.931 . S
N217 Tb188 2.617 . S
N217 C218 1.379 . S
N217 C221 1.334 . S
C218 N217 1.379 . S
C218 C220 1.416 . S
C218 C226 1.424 . S
C219 H214 0.930 . S
C219 C221 1.390 . S
C219 C222 1.339 . S
C220 C218 1.416 . S
C220 C222 1.416 . S
C220 C253 1.448 . S
C221 H206 0.930 . S
C221 N217 1.334 . S
C221 C219 1.390 . S
C222 C219 1.339 . S
C222 C220 1.416 . S
C222 H229 0.930 . S
N223 Tb188 2.572 . S
N223 C224 1.340 . S
N223 C226 1.361 . S
C224 H210 0.930 . S
C224 N223 1.340 . S
C224 C228 1.407 . S
C225 C226 1.413 . S
C225 C227 1.416 . S
C225 C254 1.427 . S
C226 C218 1.424 . S
C226 N223 1.361 . S
C226 C225 1.413 . S
C227 H216 0.931 . S
C227 C225 1.416 . S
C227 C228 1.332 . S
C228 H207 0.929 . S
C228 C224 1.407 . S
C228 C227 1.332 . S
H229 C222 0.930 . S
H230 C253 0.930 . S
H231 C254 0.929 . S
O232 Tb188 2.465 . S
O232 C252 1.264 . S
O233 Tb188 2.387 . S
O233 C244 1.264 . S
O234 Tb199 2.349 . S
O234 C244 1.243 . S
O235 Tb188 2.428 . S
O235 C252 1.256 . S
O236 Tb188 2.308 . S
O236 C251 1.266 . S
O237 Tb199 2.393 . S
O237 C251 1.248 . S
O238 Tb199 2.465 . S
O238 C263 1.264 . S
O239 Tb199 2.387 . S
O239 C255 1.264 . S
O240 Tb188 2.349 . S
O240 C255 1.243 . S
O241 Tb199 2.428 . S
O241 C263 1.256 . S
O242 Tb199 2.308 . S
O242 C262 1.266 . S
O243 Tb188 2.393 . S
O243 C262 1.248 . S
C244 O233 1.264 . S
C244 O234 1.243 . S
C245 C248 1.399 . S
C245 C250 1.383 . S
C245 C252 1.496 . S
C246 C247 1.399 . S
C246 C250 1.389 . S
C247 C246 1.399 . S
C247 C249 1.380 . S
C247 H264 0.929 . S
C248 C245 1.399 . S
C248 C249 1.392 . S
C248 H265 0.929 . S
C249 C247 1.380 . S
C249 C248 1.392 . S
C249 H266 0.929 . S
C250 C245 1.383 . S
C250 C246 1.389 . S
C250 H267 0.931 . S
C251 O236 1.266 . S
C251 O237 1.248 . S
C252 Tb188 2.802 . S
C252 O232 1.264 . S
C252 O235 1.256 . S
C252 C245 1.496 . S
C253 C220 1.448 . S
C253 H230 0.930 . S
C253 C254 1.328 . S
C254 C225 1.427 . S
C254 H231 0.929 . S
C254 C253 1.328 . S
C255 O239 1.264 . S
C255 O240 1.243 . S
C256 C259 1.399 . S
C256 C260 1.383 . S
C256 C263 1.496 . S
C257 C258 1.399 . S
C257 C260 1.389 . S
C258 C257 1.399 . S
C258 C261 1.380 . S
C258 H268 0.929 . S
C259 C256 1.399 . S
C259 C261 1.392 . S
C259 H269 0.929 . S
C260 C256 1.383 . S
C260 C257 1.389 . S
C260 H270 0.931 . S
C261 C258 1.380 . S
C261 C259 1.392 . S
C261 H271 0.929 . S
C262 O242 1.266 . S
C262 O243 1.248 . S
C263 Tb199 2.802 . S
C263 O238 1.264 . S
C263 O241 1.256 . S
C263 C256 1.496 . S
H264 C247 0.929 . S
H265 C248 0.929 . S
H266 C249 0.929 . S
H267 C250 0.931 . S
H268 C258 0.929 . S
H269 C259 0.929 . S
H270 C260 0.931 . S
H271 C261 0.929 . S
Tb272 N301 2.617 . S
Tb272 N307 2.572 . S
Tb272 O316 2.465 . S
Tb272 O317 2.387 . S
Tb272 O319 2.428 . S
Tb272 O320 2.308 1_455 S
Tb272 O324 2.344 1_455 S
Tb272 O327 2.393 . S
Tb272 C336 2.802 . S
C273 N274 1.379 . S
C273 C276 1.416 . S
C273 C280 1.424 . S
N274 C273 1.379 . S
N274 C277 1.334 . S
N274 Tb283 2.617 . S
C275 C277 1.390 . S
C275 C278 1.339 . S
C275 H295 0.930 . S
C276 C273 1.416 . S
C276 C278 1.416 . S
C276 C282 1.448 . S
C277 N274 1.334 . S
C277 C275 1.390 . S
C277 H288 0.930 . S
C278 C275 1.339 . S
C278 C276 1.416 . S
C278 H299 0.930 . S
C279 C280 1.413 . S
C279 C281 1.427 . S
C279 C285 1.416 . S
C280 C273 1.424 . S
C280 C279 1.413 . S
C280 N284 1.361 . S
C281 C279 1.427 . S
C281 C282 1.328 . S
C281 H296 0.929 . S
C282 C276 1.448 . S
C282 C281 1.328 . S
C282 H297 0.930 . S
Tb283 N274 2.617 . S
Tb283 N284 2.572 . S
Tb283 O318 2.349 1_655 S
Tb283 O321 2.393 . S
Tb283 O322 2.465 . S
Tb283 O323 2.387 . S
Tb283 O325 2.428 . S
Tb283 O326 2.308 1_655 S
Tb283 C347 2.802 . S
N284 C280 1.361 . S
N284 Tb283 2.572 . S
N284 C286 1.340 . S
C285 C279 1.416 . S
C285 C287 1.332 . S
C285 H293 0.931 . S
C286 N284 1.340 . S
C286 C287 1.407 . S
C286 H292 0.930 . S
C287 C285 1.332 . S
C287 C286 1.407 . S
C287 H289 0.929 . S
H288 C277 0.930 . S
H289 C287 0.929 . S
H290 C305 0.930 . S
H291 C312 0.929 . S
H292 C286 0.930 . S
H293 C285 0.931 . S
H294 C308 0.930 . S
H295 C275 0.930 . S
H296 C281 0.929 . S
H297 C282 0.930 . S
H298 C303 0.930 . S
H299 C278 0.930 . S
H300 C311 0.931 . S
N301 Tb272 2.617 . S
N301 C302 1.379 . S
N301 C305 1.334 . S
C302 N301 1.379 . S
C302 C304 1.416 . S
C302 C310 1.424 . S
C303 H298 0.930 . S
C303 C305 1.390 . S
C303 C306 1.339 . S
C304 C302 1.416 . S
C304 C306 1.416 . S
C304 C337 1.448 . S
C305 H290 0.930 . S
C305 N301 1.334 . S
C305 C303 1.390 . S
C306 C303 1.339 . S
C306 C304 1.416 . S
C306 H313 0.930 . S
N307 Tb272 2.572 . S
N307 C308 1.340 1_565 S
N307 C310 1.361 . S
C308 H294 0.930 . S
C308 N307 1.340 1_545 S
C308 C312 1.407 . S
C309 C310 1.413 1_545 S
C309 C311 1.416 . S
C309 C338 1.427 . S
C310 C302 1.424 . S
C310 N307 1.361 . S
C310 C309 1.413 1_565 S
C311 H300 0.931 . S
C311 C309 1.416 . S
C311 C312 1.332 . S
C312 H291 0.929 . S
C312 C308 1.407 . S
C312 C311 1.332 . S
H313 C306 0.930 . S
H314 C337 0.930 . S
H315 C338 0.929 . S
O316 Tb272 2.465 . S
O316 C336 1.264 . S
O317 Tb272 2.387 . S
O317 C328 1.264 . S
O318 Tb283 2.349 1_455 S
O318 C328 1.243 . S
O319 Tb272 2.428 . S
O319 C336 1.256 . S
O320 Tb272 2.308 1_655 S
O320 C335 1.266 . S
O321 Tb283 2.393 . S
O321 C335 1.248 . S
O322 Tb283 2.465 . S
O322 C347 1.264 . S
O323 Tb283 2.387 . S
O323 C339 1.264 . S
O324 Tb272 2.344 1_655 S
O324 C339 1.250 . S
O325 Tb283 2.428 . S
O325 C347 1.256 . S
O326 Tb283 2.308 1_455 S
O326 C346 1.266 . S
O327 Tb272 2.393 . S
O327 C346 1.248 . S
C328 O317 1.264 . S
C328 O318 1.243 . S
C329 C332 1.399 . S
C329 C334 1.383 . S
C329 C336 1.496 . S
C330 C331 1.399 . S
C330 C334 1.389 . S
C331 C330 1.399 . S
C331 C333 1.380 . S
C331 H348 0.929 . S
C332 C329 1.399 . S
C332 C333 1.392 . S
C332 H349 0.929 . S
C333 C331 1.380 . S
C333 C332 1.392 . S
C333 H350 0.929 . S
C334 C329 1.383 . S
C334 C330 1.389 . S
C334 H351 0.931 . S
C335 O320 1.266 . S
C335 O321 1.248 . S
C336 Tb272 2.802 . S
C336 O316 1.264 . S
C336 O319 1.256 . S
C336 C329 1.496 . S
C337 C304 1.448 . S
C337 H314 0.930 . S
C337 C338 1.328 1_565 S
C338 C309 1.427 . S
C338 H315 0.929 . S
C338 C337 1.328 1_545 S
C339 O323 1.264 . S
C339 O324 1.250 . S
C340 C343 1.399 . S
C340 C344 1.383 . S
C340 C347 1.496 . S
C341 C342 1.399 . S
C341 C344 1.389 . S
C342 C341 1.399 . S
C342 C345 1.380 . S
C342 H352 0.929 . S
C343 C340 1.399 . S
C343 C345 1.392 . S
C343 H353 0.929 . S
C344 C340 1.383 . S
C344 C341 1.389 . S
C344 H354 0.931 . S
C345 C342 1.380 . S
C345 C343 1.392 . S
C345 H355 0.929 1_565 S
C346 O326 1.266 . S
C346 O327 1.248 . S
C347 Tb283 2.802 . S
C347 O322 1.264 . S
C347 O325 1.256 . S
C347 C340 1.496 . S
H348 C331 0.929 . S
H349 C332 0.929 . S
H350 C333 0.929 . S
H351 C334 0.931 . S
H352 C342 0.929 . S
H353 C343 0.929 . S
H354 C344 0.931 . S
H355 C345 0.929 1_545 S
Tb356 N385 2.617 . S
Tb356 N391 2.572 . S
Tb356 O400 2.465 . S
Tb356 O401 2.387 . S
Tb356 O403 2.428 . S
Tb356 O404 2.308 . S
Tb356 O408 2.349 . S
Tb356 O411 2.393 . S
Tb356 C420 2.802 . S
C357 N358 1.379 . S
C357 C360 1.416 . S
C357 C364 1.424 . S
N358 C357 1.379 . S
N358 C361 1.334 . S
N358 Tb367 2.617 . S
C359 C361 1.390 . S
C359 C362 1.339 . S
C359 H379 0.930 . S
C360 C357 1.416 . S
C360 C362 1.416 . S
C360 C366 1.448 . S
C361 N358 1.334 . S
C361 C359 1.390 . S
C361 H372 0.930 . S
C362 C359 1.339 . S
C362 C360 1.416 . S
C362 H383 0.930 . S
C363 C364 1.413 . S
C363 C365 1.427 . S
C363 C369 1.416 . S
C364 C357 1.424 . S
C364 C363 1.413 . S
C364 N368 1.361 . S
C365 C363 1.427 . S
C365 C366 1.328 . S
C365 H380 0.929 . S
C366 C360 1.448 . S
C366 C365 1.328 . S
C366 H381 0.930 . S
Tb367 N358 2.617 . S
Tb367 N368 2.572 . S
Tb367 O402 2.349 . S
Tb367 O405 2.393 . S
Tb367 O406 2.465 . S
Tb367 O407 2.387 . S
Tb367 O409 2.428 . S
Tb367 O410 2.308 . S
Tb367 C431 2.802 . S
N368 C364 1.361 . S
N368 Tb367 2.572 . S
N368 C370 1.340 . S
C369 C363 1.416 . S
C369 C371 1.332 . S
C369 H377 0.931 . S
C370 N368 1.340 . S
C370 C371 1.407 . S
C370 H376 0.930 . S
C371 C369 1.332 . S
C371 C370 1.407 . S
C371 H373 0.929 . S
H372 C361 0.930 . S
H373 C371 0.929 . S
H374 C389 0.930 . S
H375 C396 0.929 . S
H376 C370 0.930 . S
H377 C369 0.931 . S
H378 C392 0.930 . S
H379 C359 0.930 . S
H380 C365 0.929 . S
H381 C366 0.930 . S
H382 C387 0.930 . S
H383 C362 0.930 . S
H384 C395 0.931 . S
N385 Tb356 2.617 . S
N385 C386 1.379 . S
N385 C389 1.334 . S
C386 N385 1.379 . S
C386 C388 1.416 . S
C386 C394 1.424 . S
C387 H382 0.930 . S
C387 C389 1.390 . S
C387 C390 1.339 . S
C388 C386 1.416 . S
C388 C390 1.416 . S
C388 C421 1.448 . S
C389 H374 0.930 . S
C389 N385 1.334 . S
C389 C387 1.390 . S
C390 C387 1.339 . S
C390 C388 1.416 . S
C390 H397 0.930 . S
N391 Tb356 2.572 . S
N391 C392 1.340 . S
N391 C394 1.361 . S
C392 H378 0.930 . S
C392 N391 1.340 . S
C392 C396 1.407 . S
C393 C394 1.413 . S
C393 C395 1.416 . S
C393 C422 1.427 . S
C394 C386 1.424 . S
C394 N391 1.361 . S
C394 C393 1.413 . S
C395 H384 0.931 . S
C395 C393 1.416 . S
C395 C396 1.332 . S
C396 H375 0.929 . S
C396 C392 1.407 . S
C396 C395 1.332 . S
H397 C390 0.930 . S
H398 C421 0.930 . S
H399 C422 0.929 . S
O400 Tb356 2.465 . S
O400 C420 1.264 . S
O401 Tb356 2.387 . S
O401 C412 1.264 . S
O402 Tb367 2.349 . S
O402 C412 1.243 . S
O403 Tb356 2.428 . S
O403 C420 1.256 . S
O404 Tb356 2.308 . S
O404 C419 1.266 . S
O405 Tb367 2.393 . S
O405 C419 1.248 . S
O406 Tb367 2.465 . S
O406 C431 1.264 . S
O407 Tb367 2.387 . S
O407 C423 1.264 . S
O408 Tb356 2.349 . S
O408 C423 1.243 . S
O409 Tb367 2.428 . S
O409 C431 1.256 . S
O410 Tb367 2.308 . S
O410 C430 1.266 . S
O411 Tb356 2.393 . S
O411 C430 1.248 . S
C412 O401 1.264 . S
C412 O402 1.243 . S
C413 C416 1.399 . S
C413 C418 1.383 . S
C413 C420 1.496 . S
C414 C415 1.399 . S
C414 C418 1.389 . S
C415 C414 1.399 . S
C415 C417 1.380 . S
C415 H432 0.929 . S
C416 C413 1.399 . S
C416 C417 1.392 . S
C416 H433 0.929 . S
C417 C415 1.380 . S
C417 C416 1.392 . S
C417 H434 0.929 . S
C418 C413 1.383 . S
C418 C414 1.389 . S
C418 H435 0.931 . S
C419 O404 1.266 . S
C419 O405 1.248 . S
C420 Tb356 2.802 . S
C420 O400 1.264 . S
C420 O403 1.256 . S
C420 C413 1.496 . S
C421 C388 1.448 . S
C421 H398 0.930 . S
C421 C422 1.328 . S
C422 C393 1.427 . S
C422 H399 0.929 . S
C422 C421 1.328 . S
C423 O407 1.264 . S
C423 O408 1.243 . S
C424 C427 1.399 . S
C424 C428 1.383 . S
C424 C431 1.496 . S
C425 C426 1.399 . S
C425 C428 1.389 . S
C426 C425 1.399 . S
C426 C429 1.380 . S
C426 H436 0.929 . S
C427 C424 1.399 . S
C427 C429 1.392 . S
C427 H437 0.929 . S
C428 C424 1.383 . S
C428 C425 1.389 . S
C428 H438 0.931 . S
C429 C426 1.380 . S
C429 C427 1.392 . S
C429 H439 0.929 . S
C430 O410 1.266 . S
C430 O411 1.248 . S
C431 Tb367 2.802 . S
C431 O406 1.264 . S
C431 O409 1.256 . S
C431 C424 1.496 . S
H432 C415 0.929 . S
H433 C416 0.929 . S
H434 C417 0.929 . S
H435 C418 0.931 . S
H436 C426 0.929 . S
H437 C427 0.929 . S
H438 C428 0.931 . S
H439 C429 0.929 . S
C440 C441 1.387 . S
C440 H444 0.950 . S
C440 C449 1.390 . S
C441 C440 1.387 . S
C441 C443 1.387 . S
H442 C449 0.950 . S
C443 C441 1.387 . S
C443 C445 1.391 1_565 S
C443 H447 0.950 . S
H444 C440 0.950 . S
C445 C443 1.391 1_545 S
C445 C446 1.388 1_545 S
C445 H448 0.948 . S
C446 C445 1.388 1_565 S
C446 C449 1.387 . S
H447 C443 0.950 . S
H448 C445 0.948 . S
C449 C440 1.390 . S
C449 H442 0.950 . S
C449 C446 1.387 . S
C450 C451 1.387 . S
C450 H454 0.950 . S
C450 C459 1.390 . S
C451 C450 1.387 . S
C451 C453 1.387 . S
H452 C459 0.950 . S
C453 C451 1.387 . S
C453 C455 1.390 . S
C453 H457 0.950 . S
H454 C450 0.950 . S
C455 C453 1.390 . S
C455 C456 1.387 . S
C455 H458 0.950 . S
C456 C455 1.387 . S
C456 C459 1.387 . S
H457 C453 0.950 . S
H458 C455 0.950 . S
C459 C450 1.390 . S
C459 H452 0.950 . S
C459 C456 1.387 . S
C460 C461 1.387 . S
C460 H464 0.950 . S
C460 C469 1.390 . S
C461 C460 1.387 . S
C461 C463 1.387 . S
H462 C469 0.950 . S
C463 C461 1.387 . S
C463 C465 1.390 . S
C463 H467 0.950 . S
H464 C460 0.950 . S
C465 C463 1.390 . S
C465 C466 1.387 . S
C465 H468 0.950 . S
C466 C465 1.387 . S
C466 C469 1.387 . S
H467 C463 0.950 . S
H468 C465 0.950 . S
C469 C460 1.390 . S
C469 H462 0.950 . S
C469 C466 1.387 . S
C470 C471 1.387 . S
C470 H474 0.950 . S
C470 C479 1.390 . S
C471 C470 1.387 . S
C471 C473 1.387 . S
H472 C479 0.950 . S
C473 C471 1.387 . S
C473 C475 1.390 1_565 S
C473 H477 0.950 . S
H474 C470 0.950 . S
C475 C473 1.390 1_545 S
C475 C476 1.387 1_545 S
C475 H478 0.950 . S
C476 C475 1.387 1_565 S
C476 C479 1.387 . S
H477 C473 0.950 . S
H478 C475 0.950 . S
C479 C470 1.390 . S
C479 H472 0.950 . S
C479 C476 1.387 . S
C480 C481 1.387 . S
C480 H484 0.950 . S
C480 C489 1.390 . S
C481 C480 1.387 . S
C481 C483 1.387 . S
H482 C489 0.950 1_565 S
C483 C481 1.387 . S
C483 C485 1.390 . S
C483 H487 0.950 . S
H484 C480 0.950 . S
C485 C483 1.390 . S
C485 C486 1.387 . S
C485 H488 0.950 . S
C486 C485 1.387 . S
C486 C489 1.387 . S
H487 C483 0.950 . S
H488 C485 0.950 . S
C489 C480 1.390 . S
C489 H482 0.950 1_545 S
C489 C486 1.387 . S
C490 C491 1.387 . S
C490 H494 0.950 . S
C490 C499 1.390 . S
C491 C490 1.387 . S
C491 C493 1.387 . S
H492 C499 0.950 . S
C493 C491 1.387 . S
C493 C495 1.390 . S
C493 H497 0.950 . S
H494 C490 0.950 . S
C495 C493 1.390 . S
C495 C496 1.387 . S
C495 H498 0.950 . S
C496 C495 1.387 . S
C496 C499 1.387 . S
H497 C493 0.950 . S
H498 C495 0.950 . S
C499 C490 1.390 . S
C499 H492 0.950 . S
C499 C496 1.387 . S
C500 C501 1.387 . S
C500 H504 0.950 . S
C500 C509 1.390 . S
C501 C500 1.387 . S
C501 C503 1.387 . S
H502 C509 0.950 . S
C503 C501 1.387 . S
C503 C505 1.390 . S
C503 H507 0.950 . S
H504 C500 0.950 . S
C505 C503 1.390 . S
C505 C506 1.387 . S
C505 H508 0.950 . S
C506 C505 1.387 . S
C506 C509 1.387 . S
H507 C503 0.950 . S
H508 C505 0.950 . S
C509 C500 1.390 . S
C509 H502 0.950 . S
C509 C506 1.387 . S
C510 C511 1.387 . S
C510 H514 0.950 . S
C510 C519 1.390 1_545 S
C511 C510 1.387 . S
C511 C513 1.387 . S
H512 C519 0.950 . S
C513 C511 1.387 . S
C513 C515 1.390 . S
C513 H517 0.950 . S
H514 C510 0.950 . S
C515 C513 1.390 . S
C515 C516 1.387 . S
C515 H518 0.950 . S
C516 C515 1.387 . S
C516 C519 1.387 1_545 S
H517 C513 0.950 . S
H518 C515 0.950 . S
C519 C510 1.390 1_565 S
C519 H512 0.950 . S
C519 C516 1.387 1_565 S
C520 C521 1.387 . S
C520 H524 0.950 . S
C520 C529 1.390 . S
C521 C520 1.387 . S
C521 C523 1.387 . S
H522 C529 0.950 . S
C523 C521 1.387 . S
C523 C525 1.390 1_556 S
C523 H527 0.950 . S
H524 C520 0.950 . S
C525 C523 1.390 1_554 S
C525 C526 1.387 . S
C525 H528 0.950 . S
C526 C525 1.387 . S
C526 C529 1.387 1_554 S
H527 C523 0.950 . S
H528 C525 0.950 . S
C529 C520 1.390 . S
C529 H522 0.950 . S
C529 C526 1.387 1_556 S
C530 C531 1.387 . S
C530 H534 0.950 . S
C530 C539 1.390 . S
C531 C530 1.387 . S
C531 C533 1.387 . S
H532 C539 0.950 . S
C533 C531 1.387 . S
C533 C535 1.390 . S
C533 H537 0.950 . S
H534 C530 0.950 . S
C535 C533 1.390 . S
C535 C536 1.387 . S
C535 H538 0.950 . S
C536 C535 1.387 . S
C536 C539 1.387 . S
H537 C533 0.950 . S
H538 C535 0.950 . S
C539 C530 1.390 . S
C539 H532 0.950 . S
C539 C536 1.387 . S
C540 C541 1.387 . S
C540 H544 0.950 . S
C540 C549 1.390 1_554 S
C541 C540 1.387 . S
C541 C543 1.387 . S
H542 C549 0.950 . S
C543 C541 1.387 . S
C543 C545 1.390 . S
C543 H547 0.950 . S
H544 C540 0.950 . S
C545 C543 1.390 . S
C545 C546 1.387 1_554 S
C545 H548 0.950 . S
C546 C545 1.387 1_556 S
C546 C549 1.387 . S
H547 C543 0.950 . S
H548 C545 0.950 . S
C549 C540 1.390 1_556 S
C549 H542 0.950 . S
C549 C546 1.387 . S
C550 C551 1.387 . S
C550 H554 0.950 . S
C550 C559 1.390 . S
C551 C550 1.387 . S
C551 C553 1.387 . S
H552 C559 0.950 . S
C553 C551 1.387 . S
C553 C555 1.390 . S
C553 H557 0.950 . S
H554 C550 0.950 . S
C555 C553 1.390 . S
C555 C556 1.387 . S
C555 H558 0.950 . S
C556 C555 1.387 . S
C556 C559 1.387 . S
H557 C553 0.950 . S
H558 C555 0.950 . S
C559 C550 1.390 . S
C559 H552 0.950 . S
C559 C556 1.387 . S
C560 C561 1.387 . S
C560 H564 0.950 . S
C560 C569 1.390 . S
C561 C560 1.387 . S
C561 C563 1.387 . S
H562 C569 0.950 . S
C563 C561 1.387 . S
C563 C565 1.390 1_554 S
C563 H567 0.950 . S
H564 C560 0.950 . S
C565 C563 1.390 1_556 S
C565 C566 1.387 . S
C565 H568 0.950 . S
C566 C565 1.387 . S
C566 C569 1.387 1_556 S
H567 C563 0.950 . S
H568 C565 0.950 . S
C569 C560 1.390 . S
C569 H562 0.950 . S
C569 C566 1.387 1_554 S
C570 C571 1.387 . S
C570 H574 0.950 . S
C570 C579 1.390 . S
C571 C570 1.387 . S
C571 C573 1.387 . S
H572 C579 0.950 . S
C573 C571 1.387 . S
C573 C575 1.390 . S
C573 H577 0.950 . S
H574 C570 0.950 . S
C575 C573 1.390 . S
C575 C576 1.387 . S
C575 H578 0.950 . S
C576 C575 1.387 . S
C576 C579 1.387 . S
H577 C573 0.950 . S
H578 C575 0.950 . S
C579 C570 1.390 . S
C579 H572 0.950 . S
C579 C576 1.387 . S
C580 C581 1.387 . S
C580 H584 0.950 . S
C580 C589 1.390 . S
C581 C580 1.387 . S
C581 C583 1.387 . S
H582 C589 0.950 . S
C583 C581 1.387 . S
C583 C585 1.390 . S
C583 H587 0.950 . S
H584 C580 0.950 . S
C585 C583 1.390 . S
C585 C586 1.387 1_556 S
C585 H588 0.950 1_556 S
C586 C585 1.387 1_554 S
C586 C589 1.387 1_554 S
H587 C583 0.950 . S
H588 C585 0.950 1_554 S
C589 C580 1.390 . S
C589 H582 0.950 . S
C589 C586 1.387 1_556 S
C590 C591 1.387 . S
C590 H594 0.950 . S
C590 C599 1.390 . S
C591 C590 1.387 . S
C591 C593 1.387 . S
H592 C599 0.950 . S
C593 C591 1.387 . S
C593 C595 1.390 . S
C593 H597 0.950 . S
H594 C590 0.950 . S
C595 C593 1.390 . S
C595 C596 1.387 . S
C595 H598 0.950 . S
C596 C595 1.387 . S
C596 C599 1.387 . S
H597 C593 0.950 . S
H598 C595 0.950 . S
C599 C590 1.390 . S
C599 H592 0.950 . S
C599 C596 1.387 . S
C600 C601 1.387 . S
C600 H604 0.950 . S
C600 C609 1.390 . S
C601 C600 1.387 . S
C601 C603 1.387 . S
H602 C609 0.950 . S
C603 C601 1.387 . S
C603 C605 1.390 . S
C603 H607 0.950 . S
H604 C600 0.950 . S
C605 C603 1.390 . S
C605 C606 1.387 . S
C605 H608 0.950 . S
C606 C605 1.387 . S
C606 C609 1.387 . S
H607 C603 0.950 . S
H608 C605 0.950 . S
C609 C600 1.390 . S
C609 H602 0.950 . S
C609 C606 1.387 . S
C610 C611 1.387 . S
C610 H614 0.950 . S
C610 C619 1.390 . S
C611 C610 1.387 . S
C611 C613 1.387 . S
H612 C619 0.950 . S
C613 C611 1.387 . S
C613 C615 1.390 . S
C613 H617 0.950 . S
H614 C610 0.950 . S
C615 C613 1.390 . S
C615 C616 1.387 . S
C615 H618 0.950 . S
C616 C615 1.387 . S
C616 C619 1.387 . S
H617 C613 0.950 . S
H618 C615 0.950 . S
C619 C610 1.390 . S
C619 H612 0.950 . S
C619 C616 1.387 . S
C620 C621 1.387 . S
C620 H624 0.950 . S
C620 C629 1.390 . S
C621 C620 1.387 . S
C621 C623 1.387 . S
H622 C629 0.950 . S
C623 C621 1.387 . S
C623 C625 1.390 . S
C623 H627 0.950 . S
H624 C620 0.950 . S
C625 C623 1.390 . S
C625 C626 1.387 . S
C625 H628 0.950 . S
C626 C625 1.387 . S
C626 C629 1.387 . S
H627 C623 0.950 . S
H628 C625 0.950 . S
C629 C620 1.390 . S
C629 H622 0.950 . S
C629 C626 1.387 . S
C630 C631 1.387 . S
C630 H634 0.950 . S
C630 C639 1.390 . S
C631 C630 1.387 . S
C631 C633 1.387 . S
H632 C639 0.950 . S
C633 C631 1.387 . S
C633 C635 1.390 . S
C633 H637 0.950 . S
H634 C630 0.950 . S
C635 C633 1.390 . S
C635 C636 1.387 . S
C635 H638 0.950 . S
C636 C635 1.387 . S
C636 C639 1.387 . S
H637 C633 0.950 . S
H638 C635 0.950 . S
C639 C630 1.390 . S
C639 H632 0.950 . S
C639 C636 1.387 . S
C640 C641 1.387 . S
C640 H644 0.950 . S
C640 C649 1.390 . S
C641 C640 1.387 . S
C641 C643 1.387 . S
H642 C649 0.950 . S
C643 C641 1.387 . S
C643 C645 1.390 . S
C643 H647 0.950 . S
H644 C640 0.950 . S
C645 C643 1.390 . S
C645 C646 1.387 . S
C645 H648 0.950 . S
C646 C645 1.387 . S
C646 C649 1.387 . S
H647 C643 0.950 . S
H648 C645 0.950 . S
C649 C640 1.390 . S
C649 H642 0.950 . S
C649 C646 1.387 . S
C650 C651 1.387 . S
C650 H654 0.950 . S
C650 C659 1.390 . S
C651 C650 1.387 . S
C651 C653 1.387 . S
H652 C659 0.950 . S
C653 C651 1.387 . S
C653 C655 1.390 . S
C653 H657 0.950 . S
H654 C650 0.950 . S
C655 C653 1.390 . S
C655 C656 1.387 . S
C655 H658 0.950 . S
C656 C655 1.387 . S
C656 C659 1.387 . S
H657 C653 0.950 . S
H658 C655 0.950 . S
C659 C650 1.390 . S
C659 H652 0.950 . S
C659 C656 1.387 . S
C660 C661 1.387 . S
C660 H664 0.950 . S
C660 C669 1.390 . S
C661 C660 1.387 . S
C661 C663 1.387 . S
H662 C669 0.950 . S
C663 C661 1.387 . S
C663 C665 1.390 . S
C663 H667 0.950 . S
H664 C660 0.950 . S
C665 C663 1.390 . S
C665 C666 1.387 . S
C665 H668 0.950 . S
C666 C665 1.387 . S
C666 C669 1.387 . S
H667 C663 0.950 . S
H668 C665 0.950 . S
C669 C660 1.390 . S
C669 H662 0.950 . S
C669 C666 1.387 . S
C670 C671 1.387 . S
C670 H674 0.950 . S
C670 C679 1.390 . S
C671 C670 1.387 . S
C671 C673 1.387 . S
H672 C679 0.950 . S
C673 C671 1.387 . S
C673 C675 1.390 . S
C673 H677 0.950 . S
H674 C670 0.950 . S
C675 C673 1.390 . S
C675 C676 1.387 . S
C675 H678 0.950 . S
C676 C675 1.387 . S
C676 C679 1.387 . S
H677 C673 0.950 . S
H678 C675 0.950 . S
C679 C670 1.390 . S
C679 H672 0.950 . S
C679 C676 1.387 . S
C441 N83 1.625 . S
C446 C178 1.629 1_565 S
C456 C262 1.629 . S
C451 N96 1.624 . S
C466 C255 1.639 . S
C461 N57 1.620 . S
C471 N70 1.619 . S
C476 C171 1.639 1_565 S
C486 C335 1.629 1_545 S
C481 N31 1.626 . S
C496 C419 1.629 . S
C491 N44 1.626 . S
C501 N5 1.621 . S
C506 C412 1.638 . S
C511 N18 1.621 . S
C516 C328 1.639 1_545 S
C526 C162 1.446 . S
C521 N14 1.625 . S
C536 C246 1.451 . S
C531 N1 1.625 . S
C546 C257 1.348 . S
C541 N40 1.615 . S
C556 C173 1.349 . S
C551 N27 1.614 . S
C566 C341 1.451 . S
C561 N66 1.616 . S
C571 N53 1.616 . S
C576 C425 1.451 . S
C586 C414 1.351 . S
C581 N92 1.607 . S
C591 N79 1.607 . S
C596 C330 1.346 . S
C606 C160 1.524 . S
C601 N2 1.523 . S
C616 C244 1.524 . S
C611 N15 1.523 . S
C621 N28 1.519 . S
C626 C251 1.494 . S
C636 C167 1.494 . S
C631 N41 1.519 . S
C646 C339 1.524 . S
C641 N54 1.517 . S
C651 N67 1.517 . S
C656 C423 1.524 . S
C661 N80 1.514 . S
C666 C430 1.494 . S
C671 N93 1.515 . S
C676 C346 1.494 . S
