# Generated by pormake.
# Topology ssb, (4,4)-cn, num edge types: 1
# Building blocks:
#     Node 0, Type 0, BuildingBlock: KUFVIS_clean_linker_0, # of connection points: 4
#     Node 1, Type 0, BuildingBlock: KUFVIS_clean_linker_0, # of connection points: 4
#     Node 2, Type 0, BuildingBlock: KUFVIS_clean_linker_0, # of connection points: 4
#     Node 3, Type 0, BuildingBlock: KUFVIS_clean_linker_0, # of connection points: 4
#     Node 4, Type 0, BuildingBlock: KUFVIS_clean_linker_0, # of connection points: 4
#     Node 5, Type 0, BuildingBlock: KUFVIS_clean_linker_0, # of connection points: 4
#     Node 6, Type 0, BuildingBlock: KUFVIS_clean_linker_0, # of connection points: 4
#     Node 7, Type 0, BuildingBlock: KUFVIS_clean_linker_0, # of connection points: 4
#     Node 8, Type 1, BuildingBlock: KOZSID_clean_sbu_0, # of connection points: 4
#     Node 9, Type 1, BuildingBlock: KOZSID_clean_sbu_0, # of connection points: 4
#     Node 10, Type 1, BuildingBlock: KOZSID_clean_sbu_0, # of connection points: 4
#     Node 11, Type 1, BuildingBlock: KOZSID_clean_sbu_0, # of connection points: 4
#     Node 12, Type 1, BuildingBlock: KOZSID_clean_sbu_0, # of connection points: 4
#     Node 13, Type 1, BuildingBlock: KOZSID_clean_sbu_0, # of connection points: 4
#     Node 14, Type 1, BuildingBlock: KOZSID_clean_sbu_0, # of connection points: 4
#     Node 15, Type 1, BuildingBlock: KOZSID_clean_sbu_0, # of connection points: 4
#     Edge 16, Type (0, 1), BuildingBlock: KIFKEQ_clean_linker_1, # of connection points: 2
#     Edge 17, Type (0, 1), BuildingBlock: KIFKEQ_clean_linker_1, # of connection points: 2
#     Edge 18, Type (0, 1), BuildingBlock: KIFKEQ_clean_linker_1, # of connection points: 2
#     Edge 19, Type (0, 1), BuildingBlock: KIFKEQ_clean_linker_1, # of connection points: 2
#     Edge 20, Type (0, 1), BuildingBlock: KIFKEQ_clean_linker_1, # of connection points: 2
#     Edge 21, Type (0, 1), BuildingBlock: KIFKEQ_clean_linker_1, # of connection points: 2
#     Edge 22, Type (0, 1), BuildingBlock: KIFKEQ_clean_linker_1, # of connection points: 2
#     Edge 23, Type (0, 1), BuildingBlock: KIFKEQ_clean_linker_1, # of connection points: 2
#     Edge 24, Type (0, 1), BuildingBlock: KIFKEQ_clean_linker_1, # of connection points: 2
#     Edge 25, Type (0, 1), BuildingBlock: KIFKEQ_clean_linker_1, # of connection points: 2
#     Edge 26, Type (0, 1), BuildingBlock: KIFKEQ_clean_linker_1, # of connection points: 2
#     Edge 27, Type (0, 1), BuildingBlock: KIFKEQ_clean_linker_1, # of connection points: 2
#     Edge 28, Type (0, 1), BuildingBlock: KIFKEQ_clean_linker_1, # of connection points: 2
#     Edge 29, Type (0, 1), BuildingBlock: KIFKEQ_clean_linker_1, # of connection points: 2
#     Edge 30, Type (0, 1), BuildingBlock: KIFKEQ_clean_linker_1, # of connection points: 2
#     Edge 31, Type (0, 1), BuildingBlock: KIFKEQ_clean_linker_1, # of connection points: 2
#     Edge 32, Type (0, 1), BuildingBlock: KIFKEQ_clean_linker_1, # of connection points: 2
#     Edge 33, Type (0, 1), BuildingBlock: KIFKEQ_clean_linker_1, # of connection points: 2
#     Edge 34, Type (0, 1), BuildingBlock: KIFKEQ_clean_linker_1, # of connection points: 2
#     Edge 35, Type (0, 1), BuildingBlock: KIFKEQ_clean_linker_1, # of connection points: 2
#     Edge 36, Type (0, 1), BuildingBlock: KIFKEQ_clean_linker_1, # of connection points: 2
#     Edge 37, Type (0, 1), BuildingBlock: KIFKEQ_clean_linker_1, # of connection points: 2
#     Edge 38, Type (0, 1), BuildingBlock: KIFKEQ_clean_linker_1, # of connection points: 2
#     Edge 39, Type (0, 1), BuildingBlock: KIFKEQ_clean_linker_1, # of connection points: 2
#     Edge 40, Type (0, 1), BuildingBlock: KIFKEQ_clean_linker_1, # of connection points: 2
#     Edge 41, Type (0, 1), BuildingBlock: KIFKEQ_clean_linker_1, # of connection points: 2
#     Edge 42, Type (0, 1), BuildingBlock: KIFKEQ_clean_linker_1, # of connection points: 2
#     Edge 43, Type (0, 1), BuildingBlock: KIFKEQ_clean_linker_1, # of connection points: 2
#     Edge 44, Type (0, 1), BuildingBlock: KIFKEQ_clean_linker_1, # of connection points: 2
#     Edge 45, Type (0, 1), BuildingBlock: KIFKEQ_clean_linker_1, # of connection points: 2
#     Edge 46, Type (0, 1), BuildingBlock: KIFKEQ_clean_linker_1, # of connection points: 2
#     Edge 47, Type (0, 1), BuildingBlock: KIFKEQ_clean_linker_1, # of connection points: 2
# Relax obj value: 0.003
# Max RMSD: 0.066
# Mean RMSD: 0.032
data_MOF--net-ssb--node1-KOZSID_clean_sbu_0--node2-KUFVIS_clean_linker_0--edge1-KIFKEQ_clean_linker_1
_symmetry_space_group_name_H-M    P1
_symmetry_Int_Tables_number       1
_symmetry_cell_setting            triclinic
loop_
_symmetry_equiv_pos_as_xyz
'x, y, z'
_cell_length_a     55.165565
_cell_length_b     55.158279
_cell_length_c     40.519419
_cell_angle_alpha  92.465778
_cell_angle_beta   94.88386
_cell_angle_gamma 90.013834
loop_
_atom_site_label
_atom_site_type_symbol
_atom_site_fract_x
_atom_site_fract_y
_atom_site_fract_z
_atom_type_partial_charge
H0 H 0.22095 0.21053 0.36495 0.0
H1 H 0.2753 0.21091 0.29619 0.0
H2 H 0.22289 0.26987 0.30123 0.0
H3 H 0.23637 0.28582 0.26043 0.0
H4 H 0.28996 0.28551 0.19063 0.0
H5 H 0.29241 0.22997 0.26074 0.0
C6 C 0.22944 0.21945 0.34549 0.0
C7 C 0.22008 0.24146 0.33439 0.0
C8 C 0.24929 0.20846 0.33187 0.0
C9 C 0.2602 0.22013 0.30628 0.0
C10 C 0.25113 0.24275 0.29382 0.0
C11 C 0.23074 0.25288 0.30872 0.0
C12 C 0.26233 0.25548 0.26543 0.0
C13 C 0.25217 0.27719 0.25139 0.0
C14 C 0.26205 0.288 0.22431 0.0
C15 C 0.28218 0.27722 0.21116 0.0
C16 C 0.2929 0.25638 0.2242 0.0
C17 C 0.28331 0.24586 0.2514 0.0
H18 H 0.71781 0.29558 0.1882 0.0
H19 H 0.77248 0.3005 0.26959 0.0
H20 H 0.72442 0.23789 0.25533 0.0
H21 H 0.73445 0.23279 0.30697 0.0
H22 H 0.79928 0.22533 0.37118 0.0
H23 H 0.79833 0.27652 0.29489 0.0
C24 C 0.72702 0.28761 0.20984 0.0
C25 C 0.71852 0.26574 0.22067 0.0
C26 C 0.74664 0.29985 0.22726 0.0
C27 C 0.75795 0.29016 0.25603 0.0
C28 C 0.75076 0.26742 0.26676 0.0
C29 C 0.73064 0.25544 0.24863 0.0
C30 C 0.76427 0.25636 0.29642 0.0
C31 C 0.7531 0.23825 0.31362 0.0
C32 C 0.76575 0.22691 0.3401 0.0
C33 C 0.78949 0.23421 0.35072 0.0
C34 C 0.80102 0.2524 0.33489 0.0
C35 C 0.78857 0.2633 0.30761 0.0
H36 H 0.80399 0.806 0.34871 0.0
H37 H 0.79772 0.74557 0.27939 0.0
H38 H 0.73703 0.79515 0.28869 0.0
H39 H 0.72149 0.77983 0.24288 0.0
H40 H 0.71694 0.72041 0.17178 0.0
H41 H 0.77504 0.72175 0.24854 0.0
C42 C 0.79318 0.79567 0.32935 0.0
C43 C 0.76958 0.80338 0.31956 0.0
C44 C 0.80296 0.77461 0.31538 0.0
C45 C 0.78901 0.76102 0.29043 0.0
C46 C 0.76494 0.76779 0.27932 0.0
C47 C 0.75532 0.78908 0.2952 0.0
C48 C 0.75079 0.75341 0.25049 0.0
C49 C 0.72905 0.76283 0.23461 0.0
C50 C 0.71686 0.75085 0.20663 0.0
C51 C 0.72637 0.72939 0.19355 0.0
C52 C 0.74739 0.71893 0.20844 0.0
C53 C 0.75921 0.73061 0.23728 0.0
H54 H 0.21946 0.79212 0.35136 0.0
H55 H 0.27961 0.78036 0.29294 0.0
H56 H 0.21263 0.73957 0.26995 0.0
H57 H 0.23923 0.71185 0.25246 0.0
H58 H 0.29189 0.70963 0.18064 0.0
H59 H 0.28325 0.77517 0.239 0.0
C60 C 0.22726 0.7825 0.33088 0.0
C61 C 0.2134 0.7649 0.31187 0.0
C62 C 0.25084 0.78826 0.32364 0.0
C63 C 0.26103 0.77609 0.29725 0.0
C64 C 0.24771 0.7583 0.27735 0.0
C65 C 0.22366 0.75275 0.28504 0.0
C66 C 0.25939 0.74535 0.24943 0.0
C67 C 0.2528 0.72123 0.23995 0.0
C68 C 0.26443 0.70848 0.21521 0.0
C69 C 0.28284 0.7197 0.19961 0.0
C70 C 0.28988 0.74365 0.20833 0.0
C71 C 0.27802 0.75648 0.23306 0.0
H72 H 0.29988 0.7231 0.84316 0.0
H73 H 0.23503 0.73502 0.78077 0.0
H74 H 0.29964 0.77934 0.77394 0.0
H75 H 0.27792 0.80445 0.74588 0.0
H76 H 0.21751 0.80975 0.6733 0.0
H77 H 0.2221 0.74816 0.73379 0.0
C78 C 0.29028 0.73305 0.82356 0.0
C79 C 0.30203 0.75216 0.80981 0.0
C80 C 0.26633 0.72665 0.81295 0.0
C81 C 0.25374 0.73998 0.78772 0.0
C82 C 0.26518 0.75961 0.77262 0.0
C83 C 0.28962 0.76522 0.7845 0.0
C84 C 0.25206 0.77396 0.74472 0.0
C85 C 0.26136 0.79644 0.73415 0.0
C86 C 0.24921 0.80907 0.70785 0.0
C87 C 0.22709 0.79997 0.69308 0.0
C88 C 0.2172 0.77837 0.70297 0.0
C89 C 0.22994 0.76518 0.72785 0.0
H90 H 0.29726 0.30456 0.88204 0.0
H91 H 0.27738 0.23642 0.83209 0.0
H92 H 0.23394 0.30056 0.81348 0.0
H93 H 0.20379 0.27458 0.80125 0.0
H94 H 0.19403 0.21779 0.72591 0.0
H95 H 0.26374 0.22722 0.77978 0.0
C96 C 0.28509 0.29388 0.86469 0.0
C97 C 0.26462 0.3049 0.84907 0.0
C98 C 0.29002 0.26928 0.85835 0.0
C99 C 0.27384 0.25557 0.83602 0.0
C100 C 0.25306 0.26647 0.81961 0.0
C101 C 0.24898 0.29131 0.82636 0.0
C102 C 0.23609 0.25247 0.79469 0.0
C103 C 0.21144 0.25957 0.7876 0.0
C104 C 0.19629 0.24713 0.76272 0.0
C105 C 0.20557 0.22733 0.74529 0.0
C106 C 0.22972 0.22008 0.75178 0.0
C107 C 0.24485 0.23256 0.77631 0.0
H108 H 0.72482 0.29179 0.86949 0.0
H109 H 0.77629 0.29156 0.79676 0.0
H110 H 0.72502 0.23164 0.79984 0.0
H111 H 0.73762 0.21557 0.75642 0.0
H112 H 0.79569 0.21031 0.69335 0.0
H113 H 0.79541 0.27 0.76367 0.0
C114 C 0.73264 0.28277 0.84858 0.0
C115 C 0.72279 0.26068 0.8356 0.0
C116 C 0.75196 0.29381 0.83487 0.0
C117 C 0.76168 0.28225 0.80699 0.0
C118 C 0.75276 0.25909 0.79342 0.0
C119 C 0.7328 0.24895 0.80834 0.0
C120 C 0.76437 0.24536 0.7648 0.0
C121 C 0.75421 0.22329 0.74918 0.0
C122 C 0.7658 0.21031 0.72398 0.0
C123 C 0.78692 0.21997 0.71296 0.0
C124 C 0.79718 0.24161 0.72686 0.0
C125 C 0.78634 0.25383 0.75306 0.0
H126 H 0.7177 0.70997 0.84647 0.0
H127 H 0.76952 0.71178 0.77357 0.0
H128 H 0.72925 0.77636 0.799 0.0
H129 H 0.73325 0.78248 0.74505 0.0
H130 H 0.79499 0.79335 0.69042 0.0
H131 H 0.79843 0.73958 0.76409 0.0
C132 C 0.72696 0.71995 0.82874 0.0
C133 C 0.72116 0.74434 0.82434 0.0
C134 C 0.74445 0.70824 0.81071 0.0
C135 C 0.75657 0.72124 0.78806 0.0
C136 C 0.75143 0.74593 0.78324 0.0
C137 C 0.73346 0.75734 0.80165 0.0
C138 C 0.76413 0.75929 0.75815 0.0
C139 C 0.75181 0.77781 0.74068 0.0
C140 C 0.76296 0.78998 0.71644 0.0
C141 C 0.78656 0.78379 0.70934 0.0
C142 C 0.79953 0.76569 0.72631 0.0
C143 C 0.78822 0.75333 0.75067 0.0
C144 C 0.05016 0.29562 0.58385 0.0
C145 C 0.06259 0.31747 0.58993 0.0
C146 C 0.04853 0.33497 0.57521 0.0
C147 C 0.02904 0.32276 0.55922 0.0
N148 N 0.03034 0.29845 0.56191 0.0
Co149 Co 0.00981 0.27346 0.5348 0.0
N150 N 0.98921 0.29893 0.51232 0.0
C151 C 0.99263 0.3232 0.5158 0.0
C152 C 0.97607 0.33625 0.49674 0.0
C153 C 0.96113 0.3193 0.48003 0.0
C154 C 0.96937 0.29677 0.49007 0.0
N155 N 0.98877 0.24835 0.50889 0.0
C156 C 0.96835 0.25084 0.48813 0.0
C157 C 0.95833 0.22842 0.47761 0.0
C158 C 0.97313 0.21122 0.49173 0.0
C159 C 0.99109 0.224 0.51036 0.0
N160 N 0.03093 0.24812 0.55631 0.0
C161 C 0.03089 0.22429 0.54723 0.0
C162 C 0.05154 0.21246 0.55862 0.0
C163 C 0.06526 0.22972 0.57675 0.0
C164 C 0.05145 0.25078 0.57717 0.0
N165 N 0.98741 0.27272 0.57055 0.0
C166 C 0.95021 0.27103 0.61419 0.0
C167 C 0.96223 0.2499 0.60434 0.0
C168 C 0.98073 0.25115 0.58278 0.0
C169 C 0.95832 0.29316 0.60339 0.0
C170 C 0.97697 0.29361 0.58204 0.0
N171 N 0.03248 0.27406 0.49849 0.0
C172 C 0.05619 0.25247 0.45882 0.0
C173 C 0.06973 0.27329 0.45422 0.0
C174 C 0.06307 0.29485 0.47035 0.0
C175 C 0.04442 0.29488 0.49174 0.0
C176 C 0.03771 0.25331 0.48052 0.0
H177 H 0.04026 0.31206 0.5025 0.0
H178 H 0.02821 0.23676 0.48252 0.0
H179 H 0.98903 0.23443 0.57555 0.0
H180 H 0.98237 0.31101 0.57451 0.0
C181 C 0.01117 0.33318 0.53783 0.0
C182 C 0.05739 0.2725 0.59892 0.0
C183 C 0.95791 0.27391 0.47742 0.0
C184 C 0.01138 0.21376 0.52745 0.0
H185 H 0.0805 0.32052 0.60242 0.0
H186 H 0.05272 0.35411 0.57462 0.0
H187 H 0.97495 0.35577 0.49525 0.0
H188 H 0.94592 0.32314 0.46239 0.0
H189 H 0.94209 0.2248 0.46123 0.0
H190 H 0.97118 0.19171 0.48846 0.0
H191 H 0.05625 0.19365 0.55387 0.0
H192 H 0.08324 0.22691 0.58879 0.0
H193 H 0.95679 0.23232 0.61214 0.0
H194 H 0.95015 0.3101 0.61109 0.0
H195 H 0.06029 0.23529 0.44658 0.0
H196 H 0.07227 0.31174 0.46663 0.0
C197 C 0.71602 0.04463 0.56504 0.0
C198 C 0.69342 0.05295 0.573 0.0
C199 C 0.6764 0.03893 0.5546 0.0
C200 C 0.68945 0.02278 0.53659 0.0
N201 N 0.71383 0.02548 0.54249 0.0
Co202 Co 0.73929 0.00564 0.52093 0.0
N203 N 0.71422 0.98585 0.49241 0.0
C204 C 0.68981 0.98861 0.49156 0.0
C205 C 0.67706 0.97243 0.47005 0.0
C206 C 0.6943 0.95835 0.45642 0.0
C207 C 0.71672 0.96667 0.47054 0.0
N208 N 0.7648 0.98563 0.49972 0.0
C209 C 0.76268 0.96636 0.4774 0.0
C210 C 0.78532 0.95721 0.4709 0.0
C211 C 0.80228 0.97108 0.48949 0.0
C212 C 0.78917 0.9878 0.50646 0.0
N213 N 0.76444 0.02559 0.54913 0.0
C214 C 0.78886 0.02341 0.54903 0.0
C215 C 0.80171 0.04015 0.56948 0.0
C216 C 0.78453 0.05406 0.58339 0.0
C217 C 0.76201 0.04488 0.57079 0.0
N218 N 0.73867 0.9817 0.5559 0.0
C219 C 0.73823 0.94275 0.59825 0.0
C220 C 0.76005 0.95404 0.59254 0.0
C221 C 0.75984 0.97344 0.57159 0.0
C222 C 0.71652 0.95241 0.58442 0.0
C223 C 0.71716 0.97185 0.5636 0.0
N224 N 0.73981 0.02964 0.48602 0.0
C225 C 0.76239 0.05775 0.4563 0.0
C226 C 0.74101 0.06976 0.44575 0.0
C227 C 0.71888 0.06005 0.4533 0.0
C228 C 0.71871 0.03998 0.47305 0.0
C229 C 0.76137 0.03782 0.47615 0.0
H230 H 0.70131 0.03373 0.47843 0.0
H231 H 0.77831 0.02981 0.48399 0.0
H232 H 0.77707 0.98099 0.5678 0.0
H233 H 0.70004 0.97803 0.55326 0.0
C234 C 0.67942 0.00571 0.51265 0.0
C235 C 0.73895 0.05564 0.57957 0.0
C236 C 0.7398 0.95563 0.46232 0.0
C237 C 0.79921 0.00561 0.52913 0.0
H238 H 0.68961 0.06777 0.59014 0.0
H239 H 0.65682 0.0406 0.55402 0.0
H240 H 0.65751 0.97079 0.46526 0.0
H241 H 0.69076 0.94348 0.43834 0.0
H242 H 0.78924 0.94185 0.45472 0.0
H243 H 0.82185 0.96904 0.49081 0.0
H244 H 0.82127 0.04222 0.57344 0.0
H245 H 0.78824 0.06946 0.60052 0.0
H246 H 0.7773 0.94758 0.60357 0.0
H247 H 0.69914 0.94434 0.58833 0.0
H248 H 0.77994 0.06408 0.45003 0.0
H249 H 0.70178 0.06855 0.44542 0.0
C250 C 0.04373 0.76893 0.56302 0.0
C251 C 0.05027 0.79137 0.57804 0.0
C252 C 0.03209 0.80718 0.56867 0.0
C253 C 0.01563 0.79366 0.54829 0.0
N254 N 0.02234 0.77035 0.54409 0.0
Co255 Co 1.00416 0.74492 0.51577 0.0
N256 N 0.98436 0.76956 0.49114 0.0
C257 C 0.98188 0.79299 0.50115 0.0
C258 C 0.96635 0.80569 0.48015 0.0
C259 C 0.95817 0.78921 0.45556 0.0
C260 C 0.96926 0.7672 0.46291 0.0
N261 N 0.98592 0.71939 0.48762 0.0
C262 C 0.97079 0.72119 0.4596 0.0
C263 C 0.96191 0.69852 0.44814 0.0
C264 C 0.97118 0.68215 0.47029 0.0
C265 C 0.98534 0.6956 0.49382 0.0
N266 N 0.02398 0.72046 0.5406 0.0
C267 C 0.01873 0.6967 0.54165 0.0
C268 C 0.03578 0.68426 0.56091 0.0
C269 C 0.0528 0.70129 0.57281 0.0
C270 C 0.04517 0.7232 0.55999 0.0
N271 N 0.97954 0.74381 0.54818 0.0
C272 C 0.94399 0.74447 0.59408 0.0
C273 C 0.96881 0.74359 0.60479 0.0
C274 C 0.98627 0.74347 0.5815 0.0
C275 C 0.9374 0.74438 0.55994 0.0
C276 C 0.95531 0.74383 0.53755 0.0
N277 N 0.02874 0.74603 0.48346 0.0
C278 C 0.0572 0.72563 0.44972 0.0
C279 C 0.06567 0.7479 0.43955 0.0
C280 C 0.05471 0.76916 0.45148 0.0
C281 C 0.03649 0.76784 0.47338 0.0
C282 C 0.03875 0.7251 0.47145 0.0
H283 H 0.02883 0.78456 0.48239 0.0
H284 H 0.03287 0.7077 0.47892 0.0
H285 H 0.00524 0.74345 0.59052 0.0
H286 H 0.9494 0.74373 0.51157 0.0
C287 C 0.9963 0.80299 0.52834 0.0
C288 C 0.05748 0.74647 0.56866 0.0
C289 C 0.96223 0.74405 0.44527 0.0
C290 C 1.00028 0.68623 0.51984 0.0
H291 H 0.06649 0.79596 0.594 0.0
H292 H 0.03154 0.82646 0.57475 0.0
H293 H 0.96166 0.82472 0.4823 0.0
H294 H 0.94489 0.79289 0.43522 0.0
H295 H 0.94953 0.69433 0.42647 0.0
H296 H 0.96822 0.66272 0.46908 0.0
H297 H 0.03631 0.66497 0.56478 0.0
H298 H 0.06894 0.69799 0.5891 0.0
H299 H 0.97471 0.74375 0.63099 0.0
H300 H 0.91843 0.74477 0.55053 0.0
H301 H 0.06511 0.70867 0.44164 0.0
H302 H 0.06009 0.78683 0.44397 0.0
C303 C 0.29483 0.97395 0.57477 0.0
C304 C 0.31717 0.96718 0.5899 0.0
C305 C 0.33422 0.98216 0.57897 0.0
C306 C 0.32148 0.99721 0.55779 0.0
N307 N 0.29725 0.99282 0.55453 0.0
Co308 Co 0.27235 0.01068 0.5256 0.0
N309 N 0.29772 0.03142 0.50741 0.0
C310 C 0.32205 0.02981 0.51451 0.0
C311 C 0.33515 0.04583 0.49807 0.0
C312 C 0.3182 0.05851 0.47932 0.0
C313 C 0.29557 0.04963 0.48557 0.0
N314 N 0.24729 0.02906 0.49758 0.0
C315 C 0.24965 0.04799 0.47746 0.0
C316 C 0.2271 0.05618 0.46472 0.0
C317 C 0.20999 0.04194 0.47682 0.0
C318 C 0.2229 0.02603 0.49647 0.0
N319 N 0.24699 0.98931 0.54276 0.0
C320 C 0.22275 0.99002 0.53431 0.0
C321 C 0.20976 0.97292 0.54897 0.0
C322 C 0.2267 0.96023 0.56763 0.0
C323 C 0.24921 0.97029 0.56323 0.0
N324 N 0.26925 0.03494 0.56246 0.0
C325 C 0.26408 0.07274 0.61011 0.0
C326 C 0.24407 0.0588 0.59725 0.0
C327 C 0.24703 0.04018 0.57364 0.0
C328 C 0.28696 0.06655 0.60014 0.0
C329 C 0.28913 0.0476 0.57666 0.0
N330 N 0.27547 0.98638 0.48894 0.0
C331 C 0.25622 0.95744 0.44881 0.0
C332 C 0.27831 0.94553 0.44594 0.0
C333 C 0.29933 0.95573 0.46242 0.0
C334 C 0.29752 0.97617 0.48355 0.0
C335 C 0.25525 0.9778 0.47014 0.0
H336 H 0.31406 0.98275 0.49623 0.0
H337 H 0.23779 0.9857 0.47195 0.0
H338 H 0.23096 0.03063 0.56447 0.0
H339 H 0.30701 0.04395 0.5699 0.0
C340 C 0.33189 0.0141 0.53834 0.0
C341 C 0.27205 0.96117 0.57936 0.0
C342 C 0.27266 0.05918 0.4701 0.0
C343 C 0.21267 0.00755 0.5134 0.0
H344 H 0.32087 0.95256 0.60654 0.0
H345 H 0.35371 0.98163 0.58498 0.0
H346 H 0.35469 0.04825 0.49987 0.0
H347 H 0.32208 0.07279 0.46304 0.0
H348 H 0.22331 0.07106 0.44854 0.0
H349 H 0.19044 0.0431 0.47193 0.0
H350 H 0.19026 0.97009 0.5465 0.0
H351 H 0.22287 0.94529 0.58285 0.0
H352 H 0.22605 0.06244 0.60496 0.0
H353 H 0.30305 0.07679 0.60942 0.0
H354 H 0.23957 0.95055 0.43556 0.0
H355 H 0.3169 0.94724 0.46053 0.0
C356 C 0.54203 0.79765 0.07066 0.0
C357 C 0.54992 0.82026 0.08372 0.0
C358 C 0.53579 0.83707 0.06759 0.0
C359 C 0.5202 0.82391 0.04555 0.0
N360 N 0.52328 0.79965 0.04692 0.0
Co361 Co 0.50523 0.77398 0.01792 0.0
N362 N 0.48761 0.79887 0.99025 0.0
C363 C 0.49052 0.82322 0.9936 0.0
C364 C 0.47635 0.83573 0.97075 0.0
C365 C 0.46345 0.81836 0.95174 0.0
C366 C 0.47038 0.79615 0.96436 0.0
N367 N 0.48667 0.74828 0.98959 0.0
C368 C 0.46884 0.7503 0.96457 0.0
C369 C 0.45956 0.72773 0.95335 0.0
C370 C 0.47195 0.7109 0.97176 0.0
C371 C 0.48788 0.72403 0.99331 0.0
N372 N 0.52356 0.74909 0.04478 0.0
C373 C 0.52114 0.72469 0.04111 0.0
C374 C 0.53687 0.71221 0.06211 0.0
C375 C 0.55061 0.72965 0.07978 0.0
C376 C 0.54247 0.75184 0.06836 0.0
N377 N 0.47858 0.77462 0.0486 0.0
C378 C 0.43876 0.77472 0.08855 0.0
C379 C 0.45189 0.75357 0.08258 0.0
C380 C 0.47141 0.75389 0.06267 0.0
C381 C 0.44626 0.79598 0.07475 0.0
C382 C 0.46617 0.79559 0.05538 0.0
N383 N 0.53175 0.7733 0.98743 0.0
C384 C 0.5599 0.75049 0.95554 0.0
C385 C 0.57235 0.77165 0.94905 0.0
C386 C 0.56344 0.79376 0.96115 0.0
C387 C 0.5433 0.79417 0.98007 0.0
C388 C 0.53984 0.75172 0.97447 0.0
H389 H 0.53768 0.81156 0.98905 0.0
H390 H 0.53136 0.7349 0.97876 0.0
H391 H 0.48013 0.73697 0.05874 0.0
H392 H 0.47101 0.81249 0.04594 0.0
C393 C 0.50527 0.8338 0.02005 0.0
C394 C 0.55392 0.77492 0.07983 0.0
C395 C 0.45945 0.77313 0.95155 0.0
C396 C 0.50423 0.7141 0.0172 0.0
H397 H 0.56492 0.82433 0.10206 0.0
H398 H 0.53763 0.85662 0.07027 0.0
H399 H 0.47511 0.8552 0.96866 0.0
H400 H 0.45013 0.82168 0.93128 0.0
H401 H 0.44505 0.72374 0.93422 0.0
H402 H 0.4694 0.69141 0.96995 0.0
H403 H 0.53849 0.69275 0.0639 0.0
H404 H 0.56528 0.7264 0.09853 0.0
H405 H 0.44672 0.73656 0.09248 0.0
H406 H 0.43689 0.81294 0.07903 0.0
H407 H 0.56563 0.73293 0.94613 0.0
H408 H 0.5724 0.81069 0.95696 0.0
C409 C 0.21751 0.54105 0.07495 0.0
C410 C 0.19477 0.54669 0.08539 0.0
C411 C 0.17807 0.5352 0.06336 0.0
C412 C 0.19152 0.52312 0.04103 0.0
N413 N 0.21583 0.52606 0.0475 0.0
Co414 Co 0.24204 0.51079 0.02233 0.0
N415 N 0.21739 0.49471 0.98932 0.0
C416 C 0.19295 0.49723 0.9878 0.0
C417 C 0.18081 0.4843 0.96184 0.0
C418 C 0.19856 0.47263 0.94596 0.0
C419 C 0.22053 0.47906 0.96341 0.0
N420 N 0.26822 0.49487 0.99766 0.0
C421 C 0.26645 0.47842 0.97174 0.0
C422 C 0.28922 0.47078 0.96337 0.0
C423 C 0.30595 0.48281 0.98475 0.0
C424 C 0.29253 0.49689 1.00501 0.0
N425 N 0.26668 0.52746 0.05486 0.0
C426 C 0.29117 0.52657 0.05459 0.0
C427 C 0.30339 0.54087 0.07899 0.0
C428 C 0.28567 0.55174 0.09577 0.0
C429 C 0.26353 0.54322 0.08072 0.0
N430 N 0.24179 0.48191 0.05108 0.0
C431 C 0.24161 0.4409 0.09205 0.0
C432 C 0.26317 0.45331 0.08732 0.0
C433 C 0.26286 0.47342 0.06702 0.0
C434 C 0.22013 0.44959 0.07557 0.0
C435 C 0.22061 0.46983 0.05552 0.0
N436 N 0.24234 0.5397 0.99348 0.0
C437 C 0.26434 0.56814 0.96244 0.0
C438 C 0.24293 0.58017 0.95161 0.0
C439 C 0.22121 0.57154 0.9626 0.0
C440 C 0.2213 0.55152 0.98313 0.0
C441 C 0.26367 0.54835 0.98316 0.0
H442 H 0.20406 0.54589 0.99023 0.0
H443 H 0.28076 0.5404 0.99056 0.0
H444 H 0.28001 0.48177 0.06446 0.0
H445 H 0.20357 0.47542 0.04381 0.0
C446 C 0.18185 0.5101 0.01271 0.0
C447 C 0.24003 0.55126 0.09111 0.0
C448 C 0.24369 0.46873 0.9555 0.0
C449 C 0.3022 0.51198 0.03132 0.0
H450 H 0.1907 0.55827 0.10644 0.0
H451 H 0.15846 0.53595 0.06328 0.0
H452 H 0.16135 0.48293 0.9558 0.0
H453 H 0.19568 0.46029 0.92447 0.0
H454 H 0.29342 0.45759 0.9442 0.0
H455 H 0.32555 0.48118 0.98576 0.0
H456 H 0.32286 0.54327 0.08382 0.0
H457 H 0.28884 0.5647 0.11648 0.0
H458 H 0.28046 0.44734 0.09877 0.0
H459 H 0.2028 0.44105 0.07839 0.0
H460 H 0.28178 0.57415 0.95539 0.0
H461 H 0.204 0.57992 0.95496 0.0
C462 C 0.46874 0.26051 0.98086 0.0
C463 C 0.46038 0.28301 0.97088 0.0
C464 C 0.47488 0.30002 0.98821 0.0
C465 C 0.4912 0.28704 0.00776 0.0
N466 N 0.48828 0.26271 1.00359 0.0
Co467 Co 0.50731 0.23717 0.0284 0.0
N468 N 0.52636 0.26228 0.05713 0.0
C469 C 0.52349 0.28663 0.05677 0.0
C470 C 0.5391 0.29926 0.07938 0.0
C471 C 0.55306 0.282 0.0948 0.0
C472 C 0.54527 0.25973 0.08042 0.0
N473 N 0.52666 0.21166 0.05283 0.0
C474 C 0.54613 0.21389 0.07574 0.0
C475 C 0.55533 0.19137 0.08431 0.0
C476 C 0.54132 0.17436 0.06619 0.0
C477 C 0.52452 0.18735 0.04745 0.0
N478 N 0.48784 0.21212 1.00009 0.0
C479 C 0.49022 0.18775 1.00098 0.0
C480 C 0.47338 0.17514 0.98008 0.0
C481 C 0.45903 0.19247 0.96541 0.0
C482 C 0.46798 0.21471 0.97833 0.0
N483 N 0.53248 0.23764 0.99575 0.0
C484 C 0.57205 0.23833 0.9555 0.0
C485 C 0.56063 0.21654 0.96169 0.0
C486 C 0.54104 0.21661 0.98166 0.0
C487 C 0.56248 0.25981 0.96854 0.0
C488 C 0.54288 0.25907 0.98821 0.0
N489 N 0.48222 0.23671 0.06104 0.0
C490 C 0.45457 0.2146 0.0924 0.0
C491 C 0.44316 0.2361 0.10198 0.0
C492 C 0.45239 0.25792 0.09189 0.0
C493 C 0.47179 0.25782 0.07186 0.0
C494 C 0.47388 0.2153 0.07205 0.0
H495 H 0.47772 0.27509 0.06494 0.0
H496 H 0.48143 0.19827 0.06494 0.0
H497 H 0.53349 0.19936 0.98591 0.0
H498 H 0.53677 0.2761 0.99754 0.0
C499 C 0.50737 0.29714 0.03306 0.0
C500 C 0.45644 0.23772 0.97001 0.0
C501 C 0.55726 0.23685 0.08862 0.0
C502 C 0.50741 0.1773 0.0233 0.0
H503 H 0.44483 0.28683 0.95382 0.0
H504 H 0.47298 0.31954 0.98783 0.0
H505 H 0.54065 0.31875 0.08345 0.0
H506 H 0.56775 0.28545 0.11389 0.0
H507 H 0.57096 0.18752 0.1012 0.0
H508 H 0.54361 0.15487 0.06591 0.0
H509 H 0.4713 0.15565 0.97671 0.0
H510 H 0.44339 0.18914 0.94778 0.0
H511 H 0.56727 0.19937 0.95216 0.0
H512 H 0.5702 0.27725 0.96382 0.0
H513 H 0.4481 0.19721 0.09958 0.0
H514 H 0.44454 0.27512 0.09924 0.0
C515 C 0.74726 0.54793 0.06285 0.0
C516 C 0.72455 0.55617 0.07058 0.0
C517 C 0.70773 0.541 0.05396 0.0
C518 C 0.72098 0.52426 0.03727 0.0
N519 N 0.74532 0.52769 0.04224 0.0
Co520 Co 0.77099 0.50666 0.02317 0.0
N521 N 0.74603 0.48458 0.9982 0.0
C522 C 0.72158 0.4869 0.99764 0.0
C523 C 0.7089 0.46953 0.97806 0.0
C524 C 0.72623 0.45513 0.96533 0.0
C525 C 0.74864 0.46446 0.97809 0.0
N526 N 0.79663 0.48547 1.00428 0.0
C527 C 0.79462 0.46511 0.98385 0.0
C528 C 0.81731 0.45593 0.97774 0.0
C529 C 0.83419 0.47096 0.9946 0.0
C530 C 0.82099 0.48838 0.01018 0.0
N531 N 0.79592 0.52892 0.04793 0.0
C532 C 0.82036 0.52698 0.04775 0.0
C533 C 0.83299 0.54505 0.06607 0.0
C534 C 0.81563 0.55949 0.07872 0.0
C535 C 0.79325 0.54932 0.06757 0.0
N536 N 0.77143 0.48588 0.06195 0.0
C537 C 0.77256 0.45239 0.11249 0.0
C538 C 0.79397 0.46277 0.10356 0.0
C539 C 0.79299 0.47942 0.07856 0.0
C540 C 0.75047 0.46003 0.09699 0.0
C541 C 0.75033 0.47672 0.07205 0.0
N542 N 0.77068 0.52734 0.98432 0.0
C543 C 0.79232 0.55 0.94627 0.0
C544 C 0.77049 0.55823 0.93085 0.0
C545 C 0.74872 0.55024 0.94199 0.0
C546 C 0.74923 0.53495 0.9686 0.0
C547 C 0.79199 0.53462 0.97263 0.0
H548 H 0.73207 0.52986 0.97631 0.0
H549 H 0.80924 0.52911 0.98333 0.0
H550 H 0.80997 0.48638 0.07269 0.0
H551 H 0.73296 0.48143 0.06075 0.0
C552 C 0.71107 0.50536 0.01629 0.0
C553 C 0.77002 0.56005 0.07586 0.0
C554 C 0.77178 0.45348 0.97014 0.0
C555 C 0.83089 0.50787 0.03018 0.0
H556 H 0.7205 0.57156 0.08662 0.0
H557 H 0.68814 0.54209 0.054 0.0
H558 H 0.68936 0.46753 0.97365 0.0
H559 H 0.72273 0.4395 0.94853 0.0
H560 H 0.82127 0.43993 0.96278 0.0
H561 H 0.85379 0.46935 0.99544 0.0
H562 H 0.85252 0.5475 0.06966 0.0
H563 H 0.81912 0.57579 0.09421 0.0
H564 H 0.8115 0.45775 0.11539 0.0
H565 H 0.73336 0.45241 0.10299 0.0
H566 H 0.80963 0.55555 0.93822 0.0
H567 H 0.73134 0.5564 0.931 0.0
H568 H 0.2157 0.25067 0.40005 0.0
H569 H 0.17597 0.25473 0.30409 0.0
H570 H 0.17901 0.26118 0.42692 0.0
H571 H 0.13897 0.26554 0.33101 0.0
H572 H 0.07454 0.24785 0.3951 0.0
H573 H 0.11079 0.24398 0.36458 0.0
H574 H 0.14953 0.29314 0.43636 0.0
H575 H 0.11362 0.29648 0.46734 0.0
C576 C 0.19915 0.25429 0.38471 0.0
C577 C 0.19869 0.25188 0.34999 0.0
C578 C 0.17811 0.2604 0.40009 0.0
C579 C 0.15595 0.26411 0.38117 0.0
C580 C 0.15567 0.26257 0.34633 0.0
C581 C 0.17688 0.25666 0.33089 0.0
C582 C 0.09078 0.25785 0.40437 0.0
C583 C 0.09112 0.27237 0.43386 0.0
C584 C 0.1115 0.25586 0.38663 0.0
C585 C 0.13314 0.2682 0.39803 0.0
C586 C 0.13326 0.2832 0.42701 0.0
C587 C 0.11255 0.2853 0.44463 0.0
H588 H 0.76239 0.22068 0.40579 0.0
H589 H 0.74597 0.18602 0.30894 0.0
H590 H 0.75254 0.18316 0.43158 0.0
H591 H 0.73673 0.1482 0.33458 0.0
H592 H 0.71066 0.08595 0.394 0.0
H593 H 0.71146 0.1256 0.36928 0.0
H594 H 0.77463 0.14561 0.43533 0.0
H595 H 0.77315 0.10676 0.46086 0.0
C596 C 0.75628 0.20508 0.39011 0.0
C597 C 0.75513 0.20605 0.35548 0.0
C598 C 0.75081 0.18358 0.40478 0.0
C599 C 0.74437 0.16258 0.38509 0.0
C600 C 0.74155 0.16408 0.35042 0.0
C601 C 0.74682 0.1857 0.33573 0.0
C602 C 0.72457 0.09894 0.40335 0.0
C603 C 0.74193 0.09317 0.42926 0.0
C604 C 0.7251 0.12156 0.38909 0.0
C605 C 0.74296 0.13882 0.40056 0.0
C606 C 0.76033 0.13293 0.42634 0.0
C607 C 0.75977 0.11044 0.44057 0.0
H608 H 0.81772 0.73007 0.33655 0.0
H609 H 0.84438 0.80212 0.32255 0.0
H610 H 0.85748 0.71933 0.36367 0.0
H611 H 0.88398 0.7915 0.34963 0.0
H612 H 0.91667 0.72838 0.45466 0.0
H613 H 0.87938 0.73271 0.41829 0.0
H614 H 0.92071 0.76514 0.34566 0.0
H615 H 0.95816 0.76043 0.38219 0.0
C616 C 0.83222 0.74343 0.33869 0.0
C617 C 0.82792 0.76696 0.3276 0.0
C618 C 0.85491 0.73736 0.35443 0.0
C619 C 0.87388 0.75459 0.35896 0.0
C620 C 0.86987 0.77773 0.34633 0.0
C621 C 0.84714 0.78388 0.33101 0.0
C622 C 0.91782 0.73581 0.43052 0.0
C623 C 0.94027 0.74381 0.42099 0.0
C624 C 0.89649 0.73831 0.40968 0.0
C625 C 0.89705 0.74926 0.37904 0.0
C626 C 0.91966 0.75673 0.36916 0.0
C627 C 0.94108 0.75392 0.38989 0.0
H628 H 0.25928 0.79372 0.39058 0.0
H629 H 0.2712 0.828 0.29954 0.0
H630 H 0.27194 0.83092 0.42216 0.0
H631 H 0.28341 0.86547 0.33102 0.0
H632 H 0.31052 0.92869 0.40224 0.0
H633 H 0.31089 0.88825 0.37443 0.0
H634 H 0.24765 0.86824 0.42334 0.0
H635 H 0.24763 0.90798 0.45132 0.0
C636 C 0.26517 0.80909 0.37748 0.0
C637 C 0.26395 0.80828 0.34274 0.0
C638 C 0.27232 0.83035 0.39545 0.0
C639 C 0.27812 0.8512 0.37893 0.0
C640 C 0.27908 0.84966 0.34437 0.0
C641 C 0.27207 0.82827 0.32637 0.0
C642 C 0.29687 0.91549 0.40709 0.0
C643 C 0.27887 0.92148 0.42856 0.0
C644 C 0.29706 0.89246 0.39122 0.0
C645 C 0.27947 0.87506 0.39703 0.0
C646 C 0.26174 0.88109 0.41885 0.0
C647 C 0.26145 0.904 0.43444 0.0
H648 H 0.20548 0.7354 0.66853 0.0
H649 H 0.17488 0.8034 0.70091 0.0
H650 H 0.16648 0.72452 0.63731 0.0
H651 H 0.1361 0.7926 0.67024 0.0
H652 H 0.06361 0.75766 0.63497 0.0
H653 H 0.10191 0.76239 0.66999 0.0
H654 H 0.1418 0.74087 0.5864 0.0
H655 H 0.10328 0.73641 0.55135 0.0
C656 C 0.19029 0.74778 0.66939 0.0
C657 C 0.19312 0.7702 0.68712 0.0
C658 C 0.16808 0.74168 0.65137 0.0
C659 C 0.1482 0.7577 0.65131 0.0
C660 C 0.15094 0.77974 0.67001 0.0
C661 C 0.17315 0.78598 0.68749 0.0
C662 C 0.08061 0.75386 0.62424 0.0
C663 C 0.08067 0.74717 0.59043 0.0
C664 C 0.10249 0.75656 0.6442 0.0
C665 C 0.12491 0.75222 0.63091 0.0
C666 C 0.12484 0.74426 0.59741 0.0
C667 C 0.10289 0.74182 0.57732 0.0
H668 H 0.22855 0.21605 0.6849 0.0
H669 H 0.2519 0.17889 0.77357 0.0
H670 H 0.23964 0.18092 0.65096 0.0
H671 H 0.26234 0.14317 0.73966 0.0
H672 H 0.2935 0.08907 0.66472 0.0
H673 H 0.28854 0.126 0.69902 0.0
H674 H 0.2218 0.14153 0.63999 0.0
H675 H 0.2274 0.10565 0.60491 0.0
C676 C 0.23618 0.2003 0.69702 0.0
C677 C 0.23914 0.19989 0.73168 0.0
C678 C 0.2424 0.18017 0.67768 0.0
C679 C 0.25141 0.15911 0.69266 0.0
C680 C 0.25552 0.15917 0.72741 0.0
C681 C 0.24952 0.17951 0.7468 0.0
C682 C 0.27791 0.10053 0.65896 0.0
C683 C 0.26081 0.0944 0.63214 0.0
C684 C 0.27496 0.12154 0.67876 0.0
C685 C 0.25489 0.13677 0.67204 0.0
C686 C 0.23772 0.13044 0.64546 0.0
C687 C 0.24071 0.10961 0.62567 0.0
H688 H 0.84197 0.25153 0.75971 0.0
H689 H 0.80277 0.25173 0.66301 0.0
H690 H 0.87983 0.26116 0.73497 0.0
H691 H 0.84025 0.26128 0.63833 0.0
H692 H 0.90768 0.29647 0.60594 0.0
H693 H 0.87138 0.29304 0.63584 0.0
H694 H 0.90702 0.23913 0.69687 0.0
H695 H 0.94363 0.24288 0.6673 0.0
C696 C 0.8414 0.25412 0.73331 0.0
C697 C 0.81946 0.25096 0.71327 0.0
C698 C 0.86306 0.25937 0.71908 0.0
C699 C 0.86311 0.26192 0.68462 0.0
C700 C 0.8409 0.25969 0.66494 0.0
C701 C 0.81941 0.25416 0.67905 0.0
C702 C 0.90799 0.28417 0.62611 0.0
C703 C 0.92864 0.26992 0.63411 0.0
C704 C 0.88706 0.28206 0.64307 0.0
C705 C 0.88621 0.26575 0.6687 0.0
C706 C 0.9071 0.25202 0.67745 0.0
C707 C 0.92801 0.25398 0.66026 0.0
H708 H 0.75405 0.79339 0.65004 0.0
H709 H 0.74528 0.8317 0.74332 0.0
H710 H 0.7432 0.83003 0.62057 0.0
H711 H 0.73493 0.86871 0.71396 0.0
H712 H 0.70799 0.92945 0.64493 0.0
H713 H 0.70774 0.89077 0.67259 0.0
H714 H 0.76856 0.8664 0.6195 0.0
H715 H 0.76836 0.90438 0.59146 0.0
C716 C 0.74922 0.80958 0.66408 0.0
C717 C 0.7507 0.80997 0.69881 0.0
C718 C 0.74318 0.83054 0.64733 0.0
C719 C 0.7388 0.85233 0.66506 0.0
C720 C 0.73821 0.85216 0.69967 0.0
C721 C 0.7441 0.83105 0.71647 0.0
C722 C 0.72117 0.9157 0.63913 0.0
C723 C 0.7383 0.91996 0.61622 0.0
C724 C 0.72107 0.89367 0.655 0.0
C725 C 0.73793 0.87549 0.64789 0.0
C726 C 0.75502 0.87986 0.62502 0.0
C727 C 0.75518 0.90179 0.60936 0.0
H728 H 0.8191 0.72164 0.70816 0.0
H729 H 0.83641 0.79783 0.72267 0.0
H730 H 0.85659 0.71531 0.68008 0.0
H731 H 0.87337 0.79163 0.69446 0.0
H732 H 0.90717 0.77715 0.59454 0.0
H733 H 0.87512 0.78063 0.63236 0.0
H734 H 0.90515 0.71989 0.6855 0.0
H735 H 0.93771 0.71658 0.64754 0.0
C736 C 0.83127 0.73684 0.7063 0.0
C737 C 0.82468 0.76027 0.71729 0.0
C738 C 0.85265 0.73326 0.6901 0.0
C739 C 0.86766 0.75308 0.68451 0.0
C740 C 0.86197 0.77609 0.69786 0.0
C741 C 0.84085 0.77961 0.71415 0.0
C742 C 0.90699 0.76454 0.6143 0.0
C743 C 0.92495 0.74658 0.61803 0.0
C744 C 0.88872 0.76663 0.63611 0.0
C745 C 0.88766 0.7506 0.66203 0.0
C746 C 0.9055 0.73247 0.66575 0.0
C747 C 0.92417 0.73067 0.64418 0.0
H748 H 0.24572 0.85646 0.73091 0.0
H749 H 0.27249 0.8125 0.65166 0.0
H750 H 0.253 0.89318 0.70105 0.0
H751 H 0.2804 0.84895 0.62198 0.0
H752 H 0.26138 0.91427 0.55802 0.0
H753 H 0.25883 0.87829 0.59077 0.0
H754 H 0.27995 0.92156 0.68 0.0
H755 H 0.28183 0.95764 0.64687 0.0
C756 C 0.25399 0.85473 0.70762 0.0
C757 C 0.25902 0.83156 0.69405 0.0
C758 C 0.25808 0.87581 0.69028 0.0
C759 C 0.26712 0.87435 0.65863 0.0
C760 C 0.27301 0.85108 0.64584 0.0
C761 C 0.26889 0.83009 0.66314 0.0
C762 C 0.26561 0.91602 0.58462 0.0
C763 C 0.27191 0.93883 0.59976 0.0
C764 C 0.26432 0.8953 0.60354 0.0
C765 C 0.26929 0.89664 0.63838 0.0
C766 C 0.27574 0.91958 0.65343 0.0
C767 C 0.27704 0.94032 0.63442 0.0
H768 H 0.18295 0.2891 0.7334 0.0
H769 H 0.15377 0.22265 0.766 0.0
H770 H 0.14438 0.29694 0.70161 0.0
H771 H 0.11467 0.23086 0.73582 0.0
H772 H 0.06693 0.23161 0.63813 0.0
H773 H 0.09826 0.22789 0.68215 0.0
H774 H 0.10222 0.30578 0.69481 0.0
H775 H 0.07131 0.30915 0.64978 0.0
C776 C 0.16786 0.27672 0.73489 0.0
C777 C 0.17128 0.25531 0.75216 0.0
C778 C 0.14567 0.28114 0.71661 0.0
C779 C 0.1263 0.26431 0.71538 0.0
C780 C 0.12923 0.24392 0.73515 0.0
C781 C 0.15153 0.23936 0.75297 0.0
C782 C 0.07587 0.2481 0.64777 0.0
C783 C 0.07067 0.27076 0.63373 0.0
C784 C 0.09321 0.24595 0.67479 0.0
C785 C 0.10459 0.2666 0.69071 0.0
C786 C 0.0957 0.28937 0.68129 0.0
C787 C 0.07844 0.29134 0.654 0.0
H788 H 0.72342 0.19893 0.68489 0.0
H789 H 0.78984 0.16741 0.72686 0.0
H790 H 0.71416 0.16112 0.65175 0.0
H791 H 0.78101 0.12999 0.69388 0.0
H792 H 0.75359 0.0585 0.64604 0.0
H793 H 0.75664 0.09443 0.68383 0.0
H794 H 0.72804 0.13855 0.60413 0.0
H795 H 0.72476 0.10233 0.56662 0.0
C796 C 0.73571 0.18371 0.68769 0.0
C797 C 0.7572 0.18611 0.70892 0.0
C798 C 0.73063 0.1621 0.66831 0.0
C799 C 0.74684 0.14224 0.66978 0.0
C800 C 0.76782 0.1445 0.69213 0.0
C801 C 0.77293 0.16605 0.71118 0.0
C802 C 0.74777 0.07587 0.63674 0.0
C803 C 0.73904 0.07756 0.60329 0.0
C804 C 0.74964 0.09658 0.65835 0.0
C805 C 0.74278 0.11972 0.64726 0.0
C806 C 0.7333 0.12118 0.61392 0.0
C807 C 0.7315 0.10042 0.59227 0.0
H808 H 0.81731 0.29593 0.36315 0.0
H809 H 0.841 0.22368 0.33719 0.0
H810 H 0.85664 0.30397 0.39495 0.0
H811 H 0.88014 0.23152 0.3687 0.0
H812 H 0.95456 0.25761 0.41261 0.0
H813 H 0.91825 0.25545 0.37322 0.0
H814 H 0.87587 0.28834 0.44793 0.0
H815 H 0.91226 0.29034 0.48717 0.0
C816 C 0.83122 0.28207 0.36346 0.0
C817 C 0.82626 0.25927 0.34756 0.0
C818 C 0.8536 0.28652 0.38196 0.0
C819 C 0.87151 0.26832 0.38459 0.0
C820 C 0.86692 0.24602 0.36701 0.0
C821 C 0.84451 0.2415 0.34892 0.0
C822 C 0.93746 0.26448 0.4204 0.0
C823 C 0.93609 0.274 0.45288 0.0
C824 C 0.91669 0.26323 0.39793 0.0
C825 C 0.89411 0.27171 0.40738 0.0
C826 C 0.89299 0.28193 0.43967 0.0
C827 C 0.91374 0.28297 0.46221 0.0
H828 H 0.79288 0.84711 0.32472 0.0
H829 H 0.72747 0.81272 0.35092 0.0
H830 H 0.78345 0.8835 0.35704 0.0
H831 H 0.71752 0.84968 0.38314 0.0
H832 H 0.72613 0.90851 0.47117 0.0
H833 H 0.73029 0.87262 0.43411 0.0
H834 H 0.75861 0.91807 0.36205 0.0
H835 H 0.75481 0.9536 0.39951 0.0
C836 C 0.77616 0.84749 0.33697 0.0
C837 C 0.76098 0.82684 0.33509 0.0
C838 C 0.77064 0.86854 0.35552 0.0
C839 C 0.74967 0.86986 0.37309 0.0
C840 C 0.73399 0.84944 0.37039 0.0
C841 C 0.7395 0.82828 0.35152 0.0
C842 C 0.733 0.91076 0.44723 0.0
C843 C 0.74026 0.93389 0.43836 0.0
C844 C 0.73531 0.89018 0.42582 0.0
C845 C 0.74501 0.89211 0.39488 0.0
C846 C 0.75151 0.91552 0.38576 0.0
C847 C 0.74919 0.93602 0.40714 0.0
H848 H 0.19342 0.72152 0.32728 0.0
H849 H 0.17724 0.79759 0.31889 0.0
H850 H 0.15611 0.71616 0.3554 0.0
H851 H 0.14021 0.79235 0.34663 0.0
H852 H 0.10189 0.7822 0.441 0.0
H853 H 0.13476 0.78476 0.40511 0.0
H854 H 0.10999 0.71847 0.35249 0.0
H855 H 0.07639 0.71613 0.38799 0.0
C856 C 0.18151 0.73689 0.33051 0.0
C857 C 0.18832 0.76 0.32109 0.0
C858 C 0.16021 0.73388 0.34676 0.0
C859 C 0.14542 0.75395 0.35394 0.0
C860 C 0.15144 0.77663 0.34225 0.0
C861 C 0.17255 0.7796 0.32607 0.0
C862 C 0.10302 0.76833 0.42147 0.0
C863 C 0.0861 0.7491 0.4174 0.0
C864 C 0.12202 0.76978 0.40086 0.0
C865 C 0.12493 0.75196 0.37561 0.0
C866 C 0.10835 0.73246 0.37175 0.0
C867 C 0.08911 0.73111 0.39225 0.0
H868 H 0.22454 0.16562 0.32561 0.0
H869 H 0.29108 0.19774 0.37071 0.0
H870 H 0.23223 0.12929 0.35711 0.0
H871 H 0.29916 0.16113 0.40235 0.0
H872 H 0.28673 0.10656 0.48492 0.0
H873 H 0.28416 0.1411 0.44864 0.0
H874 H 0.25572 0.0936 0.36697 0.0
H875 H 0.25817 0.0593 0.40353 0.0
C876 C 0.24129 0.16455 0.34152 0.0
C877 C 0.25742 0.18446 0.34506 0.0
C878 C 0.24572 0.14367 0.35979 0.0
C879 C 0.26633 0.142 0.38268 0.0
C880 C 0.28294 0.16166 0.38537 0.0
C881 C 0.27856 0.18256 0.36679 0.0
C882 C 0.28016 0.10352 0.45912 0.0
C883 C 0.27257 0.08016 0.4472 0.0
C884 C 0.27877 0.12333 0.43816 0.0
C885 C 0.26962 0.12044 0.40458 0.0
C886 C 0.26252 0.09685 0.39263 0.0
C887 C 0.26403 0.07707 0.41356 0.0
H888 H 0.67911 0.76647 0.80052 0.0
H889 H 0.71888 0.74581 0.89114 0.0
H890 H 0.64342 0.77564 0.83102 0.0
H891 H 0.68369 0.75539 0.92176 0.0
H892 H 0.60898 0.73828 0.95457 0.0
H893 H 0.64536 0.73559 0.92488 0.0
H894 H 0.62406 0.80015 0.87332 0.0
H895 H 0.58693 0.80236 0.90239 0.0
C896 C 0.68044 0.76464 0.82712 0.0
C897 C 0.7017 0.7553 0.84343 0.0
C898 C 0.65999 0.7698 0.84463 0.0
C899 C 0.66045 0.76577 0.87881 0.0
C900 C 0.68239 0.75808 0.89535 0.0
C901 C 0.70267 0.75283 0.87789 0.0
C902 C 0.61185 0.75182 0.93669 0.0
C903 C 0.59484 0.77046 0.93083 0.0
C904 C 0.63298 0.75048 0.91995 0.0
C905 C 0.63788 0.76779 0.89682 0.0
C906 C 0.62088 0.78646 0.89084 0.0
C907 C 0.59968 0.78784 0.90774 0.0
H908 H 0.25099 0.72615 0.87515 0.0
H909 H 0.25997 0.6796 0.7891 0.0
H910 H 0.24325 0.69074 0.90714 0.0
H911 H 0.25214 0.64394 0.82088 0.0
H912 H 0.2713 0.58666 0.89967 0.0
H913 H 0.27315 0.62146 0.86479 0.0
H914 H 0.21708 0.65691 0.91695 0.0
H915 H 0.21561 0.62227 0.9524 0.0
C916 C 0.25044 0.70834 0.86275 0.0
C917 C 0.2555 0.7058 0.82931 0.0
C918 C 0.24613 0.68792 0.88115 0.0
C919 C 0.24718 0.6642 0.8669 0.0
C920 C 0.25142 0.66177 0.83301 0.0
C921 C 0.25551 0.68226 0.81452 0.0
C922 C 0.25939 0.60188 0.90392 0.0
C923 C 0.24338 0.60144 0.92924 0.0
C924 C 0.26024 0.62184 0.88349 0.0
C925 C 0.24524 0.64225 0.88773 0.0
C926 C 0.22909 0.64175 0.9129 0.0
C927 C 0.22808 0.62167 0.93315 0.0
H928 H 0.30587 0.27317 0.92398 0.0
H929 H 0.32526 0.24211 0.83034 0.0
H930 H 0.34554 0.26233 0.95002 0.0
H931 H 0.36507 0.23065 0.85663 0.0
H932 H 0.44339 0.2486 0.90573 0.0
H933 H 0.4022 0.25198 0.87844 0.0
H934 H 0.37238 0.23021 0.96792 0.0
H935 H 0.41364 0.22742 0.99511 0.0
C936 C 0.31851 0.2636 0.90909 0.0
C937 C 0.31247 0.25865 0.87504 0.0
C938 C 0.34126 0.25723 0.92408 0.0
C939 C 0.35869 0.24574 0.90545 0.0
C940 C 0.35224 0.23978 0.87165 0.0
C941 C 0.32933 0.24606 0.85665 0.0
C942 C 0.42794 0.2444 0.91931 0.0
C943 C 0.43152 0.238 0.95251 0.0
C944 C 0.40436 0.24613 0.90368 0.0
C945 C 0.38385 0.24147 0.92096 0.0
C946 C 0.38766 0.23428 0.95396 0.0
C947 C 0.41124 0.23254 0.96952 0.0
H948 H 0.75166 0.33971 0.80997 0.0
H949 H 0.77206 0.30104 0.8981 0.0
H950 H 0.75825 0.37844 0.8418 0.0
H951 H 0.77922 0.33933 0.92974 0.0
H952 H 0.75744 0.40837 0.98633 0.0
H953 H 0.7557 0.37059 0.95243 0.0
H954 H 0.78476 0.40784 0.87276 0.0
H955 H 0.7859 0.44582 0.90688 0.0
C956 C 0.75834 0.33949 0.83588 0.0
C957 C 0.76151 0.31723 0.85138 0.0
C958 C 0.76201 0.36173 0.8543 0.0
C959 C 0.76889 0.3623 0.88876 0.0
C960 C 0.77334 0.3399 0.90361 0.0
C961 C 0.7696 0.31783 0.88531 0.0
C962 C 0.76356 0.40841 0.96163 0.0
C963 C 0.77188 0.43007 0.94939 0.0
C964 C 0.76274 0.38667 0.94212 0.0
C965 C 0.77025 0.3858 0.90961 0.0
C966 C 0.77863 0.4076 0.89742 0.0
C967 C 0.77948 0.42939 0.91706 0.0
H968 H 0.67488 0.2577 0.24521 0.0
H969 H 0.71178 0.25032 0.15582 0.0
H970 H 0.63612 0.24825 0.21351 0.0
H971 H 0.67344 0.23952 0.12411 0.0
H972 H 0.5995 0.25565 0.0708 0.0
H973 H 0.63869 0.25913 0.10324 0.0
H974 H 0.60906 0.22175 0.18258 0.0
H975 H 0.56942 0.21973 0.15044 0.0
C976 C 0.67474 0.25321 0.21891 0.0
C977 C 0.69626 0.2547 0.20294 0.0
C978 C 0.65251 0.24778 0.20061 0.0
C979 C 0.65135 0.24345 0.16593 0.0
C980 C 0.67332 0.24343 0.1505 0.0
C981 C 0.69541 0.24925 0.1687 0.0
C982 C 0.6015 0.24814 0.09516 0.0
C983 C 0.58154 0.23731 0.10807 0.0
C984 C 0.62405 0.24987 0.11374 0.0
C985 C 0.62737 0.24055 0.14568 0.0
C986 C 0.60731 0.2294 0.15834 0.0
C987 C 0.58463 0.22798 0.13984 0.0
H988 H 0.7523 0.67316 0.23341 0.0
H989 H 0.76159 0.7127 0.146 0.0
H990 H 0.75916 0.6349 0.20242 0.0
H991 H 0.76934 0.67496 0.11529 0.0
H992 H 0.7517 0.60389 0.05682 0.0
H993 H 0.74867 0.64156 0.09001 0.0
H994 H 0.78437 0.60728 0.17484 0.0
H995 H 0.7864 0.56925 0.14147 0.0
C996 C 0.75654 0.67373 0.20784 0.0
C997 C 0.7565 0.69604 0.19227 0.0
C998 C 0.76042 0.65173 0.18988 0.0
C999 C 0.76446 0.65144 0.15584 0.0
C1000 C 0.76563 0.67403 0.14101 0.0
C1001 C 0.76155 0.69585 0.1588 0.0
C1002 C 0.75894 0.60446 0.08255 0.0
C1003 C 0.76934 0.58356 0.0964 0.0
C1004 C 0.75742 0.6262 0.1017 0.0
C1005 C 0.76643 0.62792 0.13543 0.0
C1006 C 0.77697 0.60689 0.14921 0.0
C1007 C 0.77836 0.58506 0.13 0.0
H1008 H 0.3324 0.76334 0.23753 0.0
H1009 H 0.29381 0.74697 0.14211 0.0
H1010 H 0.36867 0.77421 0.21009 0.0
H1011 H 0.3298 0.75793 0.11468 0.0
H1012 H 0.39415 0.79551 0.07438 0.0
H1013 H 0.35777 0.79235 0.10459 0.0
H1014 H 0.39784 0.74955 0.17728 0.0
H1015 H 0.4342 0.75277 0.14717 0.0
C1016 C 0.33151 0.76265 0.21069 0.0
C1017 C 0.31029 0.75436 0.19194 0.0
C1018 C 0.35231 0.76863 0.19498 0.0
C1019 C 0.35219 0.76682 0.16018 0.0
C1020 C 0.33051 0.75972 0.14147 0.0
C1021 C 0.3099 0.75339 0.15716 0.0
C1022 C 0.39529 0.78572 0.09707 0.0
C1023 C 0.41708 0.77431 0.10827 0.0
C1024 C 0.3744 0.78378 0.11426 0.0
C1025 C 0.37487 0.77068 0.14336 0.0
C1026 C 0.39688 0.75995 0.15514 0.0
C1027 C 0.41767 0.76161 0.13771 0.0
H1028 H 0.24423 0.29241 0.16012 0.0
H1029 H 0.25956 0.33468 0.25133 0.0
H1030 H 0.23747 0.32941 0.12996 0.0
H1031 H 0.25239 0.37213 0.22126 0.0
H1032 H 0.27035 0.43229 0.14983 0.0
H1033 H 0.27168 0.39639 0.183 0.0
H1034 H 0.2136 0.36404 0.11755 0.0
H1035 H 0.21295 0.39949 0.08363 0.0
C1036 C 0.24539 0.30969 0.17393 0.0
C1037 C 0.25212 0.31046 0.20829 0.0
C1038 C 0.24155 0.33106 0.15657 0.0
C1039 C 0.24449 0.35412 0.17284 0.0
C1040 C 0.25025 0.35487 0.20757 0.0
C1041 C 0.25396 0.33336 0.22504 0.0
C1042 C 0.25793 0.4175 0.14224 0.0
C1043 C 0.24165 0.41906 0.11358 0.0
C1044 C 0.25846 0.3969 0.16171 0.0
C1045 C 0.24277 0.37697 0.15327 0.0
C1046 C 0.22622 0.3787 0.12491 0.0
C1047 C 0.22566 0.39933 0.1055 0.0
H1048 H 0.33873 0.24703 0.25302 0.0
H1049 H 0.29534 0.24355 0.15923 0.0
H1050 H 0.3755 0.23902 0.22407 0.0
H1051 H 0.33171 0.23544 0.13043 0.0
H1052 H 0.40156 0.26211 0.09054 0.0
H1053 H 0.36557 0.26276 0.12128 0.0
H1054 H 0.39829 0.21009 0.18701 0.0
H1055 H 0.4348 0.20968 0.15621 0.0
C1056 C 0.33698 0.24383 0.22636 0.0
C1057 C 0.31424 0.24612 0.20833 0.0
C1058 C 0.35801 0.23933 0.20975 0.0
C1059 C 0.35659 0.23709 0.17486 0.0
C1060 C 0.33354 0.23763 0.15723 0.0
C1061 C 0.31267 0.24209 0.17373 0.0
C1062 C 0.40121 0.25075 0.11165 0.0
C1063 C 0.42114 0.23594 0.12098 0.0
C1064 C 0.38043 0.2509 0.12908 0.0
C1065 C 0.37894 0.23633 0.15649 0.0
C1066 C 0.39889 0.22156 0.16605 0.0
C1067 C 0.4197 0.22121 0.14829 0.0
H1068 H 0.75273 0.34383 0.26075 0.0
H1069 H 0.75942 0.30741 0.16555 0.0
H1070 H 0.76305 0.38261 0.23766 0.0
H1071 H 0.76961 0.34584 0.14253 0.0
H1072 H 0.80362 0.41403 0.11447 0.0
H1073 H 0.80172 0.37814 0.14715 0.0
H1074 H 0.74072 0.40869 0.19439 0.0
H1075 H 0.74296 0.44499 0.16218 0.0
C1076 C 0.7568 0.34413 0.23509 0.0
C1077 C 0.75521 0.32281 0.21479 0.0
C1078 C 0.76254 0.36623 0.22187 0.0
C1079 C 0.76715 0.36717 0.18836 0.0
C1080 C 0.76645 0.34562 0.16854 0.0
C1081 C 0.76044 0.32368 0.18159 0.0
C1082 C 0.79022 0.41341 0.13246 0.0
C1083 C 0.77331 0.43225 0.13561 0.0
C1084 C 0.78902 0.39277 0.15095 0.0
C1085 C 0.77096 0.39058 0.17305 0.0
C1086 C 0.75492 0.40999 0.17765 0.0
C1087 C 0.75604 0.43062 0.15899 0.0
H1088 H 0.67287 0.75505 0.23226 0.0
H1089 H 0.70896 0.76666 0.14406 0.0
H1090 H 0.63358 0.76304 0.20217 0.0
H1091 H 0.67006 0.77602 0.11417 0.0
H1092 H 0.5965 0.75837 0.0587 0.0
H1093 H 0.63589 0.75547 0.09033 0.0
H1094 H 0.60562 0.78928 0.1759 0.0
H1095 H 0.56581 0.79066 0.14435 0.0
C1096 C 0.67238 0.76007 0.20665 0.0
C1097 C 0.69385 0.76028 0.19043 0.0
C1098 C 0.64987 0.7647 0.18931 0.0
C1099 C 0.64839 0.76991 0.1554 0.0
C1100 C 0.67022 0.77143 0.13989 0.0
C1101 C 0.69261 0.76641 0.15708 0.0
C1102 C 0.59841 0.76525 0.08425 0.0
C1103 C 0.57826 0.77494 0.09902 0.0
C1104 C 0.62106 0.76384 0.1024 0.0
C1105 C 0.62425 0.77234 0.13582 0.0
C1106 C 0.60397 0.7823 0.15043 0.0
C1107 C 0.5812 0.78339 0.13231 0.0
H1108 H 0.29391 0.66915 0.21421 0.0
H1109 H 0.21943 0.69148 0.19307 0.0
H1110 H 0.28384 0.62881 0.18953 0.0
H1111 H 0.20931 0.65106 0.16802 0.0
H1112 H 0.25466 0.554 0.15722 0.0
H1113 H 0.25707 0.59065 0.19407 0.0
H1114 H 0.22478 0.63237 0.11397 0.0
H1115 H 0.22292 0.59593 0.07724 0.0
C1116 C 0.27529 0.66518 0.20481 0.0
C1117 C 0.25744 0.68328 0.20519 0.0
C1118 C 0.26949 0.64213 0.19096 0.0
C1119 C 0.24583 0.63695 0.17685 0.0
C1120 C 0.22769 0.65471 0.1787 0.0
C1121 C 0.23343 0.6777 0.19306 0.0
C1122 C 0.24786 0.57103 0.14785 0.0
C1123 C 0.23893 0.57248 0.11455 0.0
C1124 C 0.24918 0.59186 0.16878 0.0
C1125 C 0.24109 0.61423 0.15677 0.0
C1126 C 0.23086 0.61528 0.12392 0.0
C1127 C 0.22991 0.59456 0.10291 0.0
H1128 H 0.34122 0.7222 0.81426 0.0
H1129 H 0.31941 0.79571 0.83684 0.0
H1130 H 0.38057 0.72979 0.84533 0.0
H1131 H 0.35895 0.80345 0.86812 0.0
H1132 H 0.41424 0.79051 0.96089 0.0
H1133 H 0.37773 0.78839 0.92194 0.0
H1134 H 0.4193 0.75323 0.84803 0.0
H1135 H 0.45581 0.7556 0.88714 0.0
C1136 C 0.34512 0.74016 0.8253 0.0
C1137 C 0.32731 0.75837 0.82316 0.0
C1138 C 0.36767 0.74455 0.84304 0.0
C1139 C 0.37286 0.76718 0.85942 0.0
C1140 C 0.35541 0.78576 0.85604 0.0
C1141 C 0.33291 0.78143 0.83788 0.0
C1142 C 0.41553 0.78261 0.93616 0.0
C1143 C 0.43767 0.77303 0.927 0.0
C1144 C 0.39472 0.7815 0.91379 0.0
C1145 C 0.39558 0.77061 0.88186 0.0
C1146 C 0.41797 0.76155 0.87251 0.0
C1147 C 0.43884 0.76289 0.8948 0.0
H1148 H 0.22144 0.32353 0.86556 0.0
H1149 H 0.29552 0.34373 0.85231 0.0
H1150 H 0.21354 0.36477 0.88639 0.0
H1151 H 0.2877 0.38491 0.87348 0.0
H1152 H 0.2596 0.46165 0.89385 0.0
H1153 H 0.26229 0.42285 0.86222 0.0
H1154 H 0.23019 0.38622 0.9401 0.0
H1155 H 0.22785 0.42485 0.97159 0.0
C1156 C 0.23586 0.33694 0.86653 0.0
C1157 C 0.25913 0.33049 0.85764 0.0
C1158 C 0.23139 0.36043 0.87861 0.0
C1159 C 0.25006 0.3779 0.88169 0.0
C1160 C 0.27296 0.3718 0.87113 0.0
C1161 C 0.27749 0.34825 0.85933 0.0
C1162 C 0.25305 0.44522 0.90388 0.0
C1163 C 0.24381 0.44588 0.93508 0.0
C1164 C 0.25456 0.42316 0.88593 0.0
C1165 C 0.24643 0.40163 0.89878 0.0
C1166 C 0.23631 0.40259 0.92947 0.0
C1167 C 0.23508 0.42456 0.94753 0.0
H1168 H 0.67769 0.24738 0.8064 0.0
H1169 H 0.72032 0.25198 0.90074 0.0
H1170 H 0.64108 0.23933 0.83473 0.0
H1171 H 0.68414 0.24361 0.92897 0.0
H1172 H 0.61277 0.2663 0.96965 0.0
H1173 H 0.64897 0.26785 0.93963 0.0
H1174 H 0.61881 0.21239 0.8695 0.0
H1175 H 0.58196 0.21131 0.89927 0.0
C1176 C 0.67934 0.24595 0.83308 0.0
C1177 C 0.7018 0.25049 0.85139 0.0
C1178 C 0.65838 0.24142 0.84936 0.0
C1179 C 0.65953 0.24132 0.88425 0.0
C1180 C 0.6824 0.24418 0.90219 0.0
C1181 C 0.7032 0.24876 0.886 0.0
C1182 C 0.61367 0.25455 0.94767 0.0
C1183 C 0.5943 0.23878 0.93685 0.0
C1184 C 0.63465 0.25519 0.93065 0.0
C1185 C 0.63699 0.24008 0.90222 0.0
C1186 C 0.61761 0.22433 0.89122 0.0
C1187 C 0.59657 0.22358 0.90845 0.0
H1188 H 0.71267 0.67103 0.81568 0.0
H1189 H 0.78942 0.68751 0.81974 0.0
H1190 H 0.72185 0.63148 0.83752 0.0
H1191 H 0.7988 0.64726 0.84017 0.0
H1192 H 0.79861 0.59877 0.93165 0.0
H1193 H 0.79484 0.63163 0.89362 0.0
H1194 H 0.73849 0.59173 0.83344 0.0
H1195 H 0.74198 0.55893 0.87221 0.0
C1196 C 0.73155 0.66592 0.82056 0.0
C1197 C 0.75031 0.68253 0.81679 0.0
C1198 C 0.73686 0.6431 0.83269 0.0
C1199 C 0.76109 0.6363 0.84107 0.0
C1200 C 0.77993 0.65215 0.83455 0.0
C1201 C 0.77459 0.67509 0.82255 0.0
C1202 C 0.78582 0.59676 0.90988 0.0
C1203 C 0.7704 0.57643 0.90505 0.0
C1204 C 0.78373 0.61557 0.88792 0.0
C1205 C 0.76626 0.61441 0.86052 0.0
C1206 C 0.75185 0.59337 0.85461 0.0
C1207 C 0.75381 0.57461 0.87677 0.0
loop_
_geom_bond_atom_site_label_1
_geom_bond_atom_site_label_2
_geom_bond_distance
_geom_bond_site_symmetry_2
_ccdc_geom_bond_type
H0 C6 0.930 . S
H1 C9 0.931 . S
H2 C11 0.931 . S
H3 C13 0.930 . S
H4 C15 0.930 . S
H5 C17 0.931 . S
C6 H0 0.930 . S
C6 C7 1.380 . S
C6 C8 1.394 . S
C7 C6 1.380 . S
C7 C11 1.382 . S
C8 C6 1.394 . S
C8 C9 1.400 . S
C9 H1 0.931 . S
C9 C8 1.400 . S
C9 C10 1.375 . S
C10 C9 1.375 . S
C10 C11 1.415 . S
C10 C12 1.501 . S
C11 H2 0.931 . S
C11 C7 1.382 . S
C11 C10 1.415 . S
C12 C10 1.501 . S
C12 C13 1.384 . S
C12 C17 1.408 . S
C13 H3 0.930 . S
C13 C12 1.384 . S
C13 C14 1.389 . S
C14 C13 1.389 . S
C14 C15 1.405 . S
C15 H4 0.930 . S
C15 C14 1.405 . S
C15 C16 1.364 . S
C16 C15 1.364 . S
C16 C17 1.400 . S
C17 H5 0.931 . S
C17 C12 1.408 . S
C17 C16 1.400 . S
H18 C24 0.930 . S
H19 C27 0.931 . S
H20 C29 0.931 . S
H21 C31 0.930 . S
H22 C33 0.930 . S
H23 C35 0.931 . S
C24 H18 0.930 . S
C24 C25 1.380 . S
C24 C26 1.394 . S
C25 C24 1.380 . S
C25 C29 1.382 . S
C26 C24 1.394 . S
C26 C27 1.400 . S
C27 H19 0.931 . S
C27 C26 1.400 . S
C27 C28 1.375 . S
C28 C27 1.375 . S
C28 C29 1.415 . S
C28 C30 1.501 . S
C29 H20 0.931 . S
C29 C25 1.382 . S
C29 C28 1.415 . S
C30 C28 1.501 . S
C30 C31 1.384 . S
C30 C35 1.408 . S
C31 H21 0.930 . S
C31 C30 1.384 . S
C31 C32 1.389 . S
C32 C31 1.389 . S
C32 C33 1.405 . S
C33 H22 0.930 . S
C33 C32 1.405 . S
C33 C34 1.364 . S
C34 C33 1.364 . S
C34 C35 1.400 . S
C35 H23 0.931 . S
C35 C30 1.408 . S
C35 C34 1.400 . S
H36 C42 0.930 . S
H37 C45 0.931 . S
H38 C47 0.931 . S
H39 C49 0.930 . S
H40 C51 0.930 . S
H41 C53 0.931 . S
C42 H36 0.930 . S
C42 C43 1.380 . S
C42 C44 1.394 . S
C43 C42 1.380 . S
C43 C47 1.382 . S
C44 C42 1.394 . S
C44 C45 1.400 . S
C45 H37 0.931 . S
C45 C44 1.400 . S
C45 C46 1.375 . S
C46 C45 1.375 . S
C46 C47 1.415 . S
C46 C48 1.501 . S
C47 H38 0.931 . S
C47 C43 1.382 . S
C47 C46 1.415 . S
C48 C46 1.501 . S
C48 C49 1.384 . S
C48 C53 1.408 . S
C49 H39 0.930 . S
C49 C48 1.384 . S
C49 C50 1.389 . S
C50 C49 1.389 . S
C50 C51 1.405 . S
C51 H40 0.930 . S
C51 C50 1.405 . S
C51 C52 1.364 . S
C52 C51 1.364 . S
C52 C53 1.400 . S
C53 H41 0.931 . S
C53 C48 1.408 . S
C53 C52 1.400 . S
H54 C60 0.930 . S
H55 C63 0.931 . S
H56 C65 0.931 . S
H57 C67 0.930 . S
H58 C69 0.930 . S
H59 C71 0.931 . S
C60 H54 0.930 . S
C60 C61 1.380 . S
C60 C62 1.394 . S
C61 C60 1.380 . S
C61 C65 1.382 . S
C62 C60 1.394 . S
C62 C63 1.400 . S
C63 H55 0.931 . S
C63 C62 1.400 . S
C63 C64 1.375 . S
C64 C63 1.375 . S
C64 C65 1.415 . S
C64 C66 1.501 . S
C65 H56 0.931 . S
C65 C61 1.382 . S
C65 C64 1.415 . S
C66 C64 1.501 . S
C66 C67 1.384 . S
C66 C71 1.408 . S
C67 H57 0.930 . S
C67 C66 1.384 . S
C67 C68 1.389 . S
C68 C67 1.389 . S
C68 C69 1.405 . S
C69 H58 0.930 . S
C69 C68 1.405 . S
C69 C70 1.364 . S
C70 C69 1.364 . S
C70 C71 1.400 . S
C71 H59 0.931 . S
C71 C66 1.408 . S
C71 C70 1.400 . S
H72 C78 0.930 . S
H73 C81 0.931 . S
H74 C83 0.931 . S
H75 C85 0.930 . S
H76 C87 0.930 . S
H77 C89 0.931 . S
C78 H72 0.930 . S
C78 C79 1.380 . S
C78 C80 1.394 . S
C79 C78 1.380 . S
C79 C83 1.382 . S
C80 C78 1.394 . S
C80 C81 1.400 . S
C81 H73 0.931 . S
C81 C80 1.400 . S
C81 C82 1.375 . S
C82 C81 1.375 . S
C82 C83 1.415 . S
C82 C84 1.501 . S
C83 H74 0.931 . S
C83 C79 1.382 . S
C83 C82 1.415 . S
C84 C82 1.501 . S
C84 C85 1.384 . S
C84 C89 1.408 . S
C85 H75 0.930 . S
C85 C84 1.384 . S
C85 C86 1.389 . S
C86 C85 1.389 . S
C86 C87 1.405 . S
C87 H76 0.930 . S
C87 C86 1.405 . S
C87 C88 1.364 . S
C88 C87 1.364 . S
C88 C89 1.400 . S
C89 H77 0.931 . S
C89 C84 1.408 . S
C89 C88 1.400 . S
H90 C96 0.930 . S
H91 C99 0.931 . S
H92 C101 0.931 . S
H93 C103 0.930 . S
H94 C105 0.930 . S
H95 C107 0.931 . S
C96 H90 0.930 . S
C96 C97 1.380 . S
C96 C98 1.394 . S
C97 C96 1.380 . S
C97 C101 1.382 . S
C98 C96 1.394 . S
C98 C99 1.400 . S
C99 H91 0.931 . S
C99 C98 1.400 . S
C99 C100 1.375 . S
C100 C99 1.375 . S
C100 C101 1.415 . S
C100 C102 1.501 . S
C101 H92 0.931 . S
C101 C97 1.382 . S
C101 C100 1.415 . S
C102 C100 1.501 . S
C102 C103 1.384 . S
C102 C107 1.408 . S
C103 H93 0.930 . S
C103 C102 1.384 . S
C103 C104 1.389 . S
C104 C103 1.389 . S
C104 C105 1.405 . S
C105 H94 0.930 . S
C105 C104 1.405 . S
C105 C106 1.364 . S
C106 C105 1.364 . S
C106 C107 1.400 . S
C107 H95 0.931 . S
C107 C102 1.408 . S
C107 C106 1.400 . S
H108 C114 0.930 . S
H109 C117 0.931 . S
H110 C119 0.931 . S
H111 C121 0.930 . S
H112 C123 0.930 . S
H113 C125 0.931 . S
C114 H108 0.930 . S
C114 C115 1.380 . S
C114 C116 1.394 . S
C115 C114 1.380 . S
C115 C119 1.382 . S
C116 C114 1.394 . S
C116 C117 1.400 . S
C117 H109 0.931 . S
C117 C116 1.400 . S
C117 C118 1.375 . S
C118 C117 1.375 . S
C118 C119 1.415 . S
C118 C120 1.501 . S
C119 H110 0.931 . S
C119 C115 1.382 . S
C119 C118 1.415 . S
C120 C118 1.501 . S
C120 C121 1.384 . S
C120 C125 1.408 . S
C121 H111 0.930 . S
C121 C120 1.384 . S
C121 C122 1.389 . S
C122 C121 1.389 . S
C122 C123 1.405 . S
C123 H112 0.930 . S
C123 C122 1.405 . S
C123 C124 1.364 . S
C124 C123 1.364 . S
C124 C125 1.400 . S
C125 H113 0.931 . S
C125 C120 1.408 . S
C125 C124 1.400 . S
H126 C132 0.930 . S
H127 C135 0.931 . S
H128 C137 0.931 . S
H129 C139 0.930 . S
H130 C141 0.930 . S
H131 C143 0.931 . S
C132 H126 0.930 . S
C132 C133 1.380 . S
C132 C134 1.394 . S
C133 C132 1.380 . S
C133 C137 1.382 . S
C134 C132 1.394 . S
C134 C135 1.400 . S
C135 H127 0.931 . S
C135 C134 1.400 . S
C135 C136 1.375 . S
C136 C135 1.375 . S
C136 C137 1.415 . S
C136 C138 1.501 . S
C137 H128 0.931 . S
C137 C133 1.382 . S
C137 C136 1.415 . S
C138 C136 1.501 . S
C138 C139 1.384 . S
C138 C143 1.408 . S
C139 H129 0.930 . S
C139 C138 1.384 . S
C139 C140 1.389 . S
C140 C139 1.389 . S
C140 C141 1.405 . S
C141 H130 0.930 . S
C141 C140 1.405 . S
C141 C142 1.364 . S
C142 C141 1.364 . S
C142 C143 1.400 . S
C143 H131 0.931 . S
C143 C138 1.408 . S
C143 C142 1.400 . S
C144 C145 1.443 . S
C144 N148 1.376 . S
C144 C182 1.389 . S
C145 C144 1.443 . S
C145 C146 1.340 . S
C145 H185 0.951 . S
C146 C145 1.340 . S
C146 C147 1.439 . S
C146 H186 0.950 . S
C147 C146 1.439 . S
C147 N148 1.374 . S
C147 C181 1.395 . S
N148 C144 1.376 . S
N148 C147 1.374 . S
N148 Co149 2.008 . S
Co149 N148 2.008 . S
Co149 N150 1.995 1_455 S
Co149 N155 2.008 1_455 S
Co149 N160 1.995 . S
Co149 N165 2.282 1_455 S
Co149 N171 2.282 . S
N150 Co149 1.995 1_655 S
N150 C151 1.376 . S
N150 C154 1.383 . S
C151 N150 1.376 . S
C151 C152 1.446 . S
C151 C181 1.391 1_655 S
C152 C151 1.446 . S
C152 C153 1.339 . S
C152 H187 0.949 . S
C153 C152 1.339 . S
C153 C154 1.439 . S
C153 H188 0.950 . S
C154 N150 1.383 . S
C154 C153 1.439 . S
C154 C183 1.392 . S
N155 Co149 2.008 1_655 S
N155 C156 1.376 . S
N155 C159 1.374 . S
C156 N155 1.376 . S
C156 C157 1.443 . S
C156 C183 1.389 . S
C157 C156 1.443 . S
C157 C158 1.340 . S
C157 H189 0.951 . S
C158 C157 1.340 . S
C158 C159 1.439 . S
C158 H190 0.950 . S
C159 N155 1.374 . S
C159 C158 1.439 . S
C159 C184 1.411 . S
N160 Co149 1.995 . S
N160 C161 1.376 . S
N160 C164 1.383 . S
C161 N160 1.376 . S
C161 C162 1.446 . S
C161 C184 1.374 1_455 S
C162 C161 1.446 . S
C162 C163 1.339 . S
C162 H191 0.949 . S
C163 C162 1.339 . S
C163 C164 1.439 . S
C163 H192 0.950 . S
C164 N160 1.383 . S
C164 C163 1.439 . S
C164 C182 1.392 . S
N165 Co149 2.282 1_655 S
N165 C168 1.332 . S
N165 C170 1.332 . S
C166 C167 1.386 . S
C166 C169 1.388 . S
C167 C166 1.386 . S
C167 C168 1.382 . S
C167 H193 0.950 . S
C168 N165 1.332 . S
C168 C167 1.382 . S
C168 H179 0.952 . S
C169 C166 1.388 . S
C169 C170 1.382 . S
C169 H194 0.950 . S
C170 N165 1.332 . S
C170 C169 1.382 . S
C170 H180 0.948 . S
N171 Co149 2.282 . S
N171 C175 1.332 . S
N171 C176 1.332 . S
C172 C173 1.388 . S
C172 C176 1.382 . S
C172 H195 0.950 . S
C173 C172 1.388 . S
C173 C174 1.386 . S
C174 C173 1.386 . S
C174 C175 1.382 . S
C174 H196 0.950 . S
C175 N171 1.332 . S
C175 C174 1.382 . S
C175 H177 0.952 . S
C176 N171 1.332 . S
C176 C172 1.382 . S
C176 H178 0.948 . S
H177 C175 0.952 . S
H178 C176 0.948 . S
H179 C168 0.952 . S
H180 C170 0.948 . S
C181 C147 1.395 . S
C181 C151 1.391 1_455 S
C182 C144 1.389 . S
C182 C164 1.392 . S
C183 C154 1.392 . S
C183 C156 1.389 . S
C184 C159 1.411 . S
C184 C161 1.374 1_655 S
H185 C145 0.951 . S
H186 C146 0.950 . S
H187 C152 0.949 . S
H188 C153 0.950 . S
H189 C157 0.951 . S
H190 C158 0.950 . S
H191 C162 0.949 . S
H192 C163 0.950 . S
H193 C167 0.950 . S
H194 C169 0.950 . S
H195 C172 0.950 . S
H196 C174 0.950 . S
C197 C198 1.443 . S
C197 N201 1.376 . S
C197 C235 1.389 . S
C198 C197 1.443 . S
C198 C199 1.340 . S
C198 H238 0.951 . S
C199 C198 1.340 . S
C199 C200 1.439 . S
C199 H239 0.950 . S
C200 C199 1.439 . S
C200 N201 1.374 . S
C200 C234 1.395 . S
N201 C197 1.376 . S
N201 C200 1.374 . S
N201 Co202 2.008 . S
Co202 N201 2.008 . S
Co202 N203 1.995 1_545 S
Co202 N208 2.008 1_545 S
Co202 N213 1.995 . S
Co202 N218 2.282 1_545 S
Co202 N224 2.282 . S
N203 Co202 1.995 1_565 S
N203 C204 1.376 . S
N203 C207 1.383 . S
C204 N203 1.376 . S
C204 C205 1.446 . S
C204 C234 1.391 1_565 S
C205 C204 1.446 . S
C205 C206 1.339 . S
C205 H240 0.949 . S
C206 C205 1.339 . S
C206 C207 1.439 . S
C206 H241 0.950 . S
C207 N203 1.383 . S
C207 C206 1.439 . S
C207 C236 1.392 . S
N208 Co202 2.008 1_565 S
N208 C209 1.376 . S
N208 C212 1.374 . S
C209 N208 1.376 . S
C209 C210 1.443 . S
C209 C236 1.389 . S
C210 C209 1.443 . S
C210 C211 1.340 . S
C210 H242 0.951 . S
C211 C210 1.340 . S
C211 C212 1.439 . S
C211 H243 0.950 . S
C212 N208 1.374 . S
C212 C211 1.439 . S
C212 C237 1.383 1_565 S
N213 Co202 1.995 . S
N213 C214 1.376 . S
N213 C217 1.383 . S
C214 N213 1.376 . S
C214 C215 1.446 . S
C214 C237 1.404 . S
C215 C214 1.446 . S
C215 C216 1.339 . S
C215 H244 0.949 . S
C216 C215 1.339 . S
C216 C217 1.439 . S
C216 H245 0.950 . S
C217 N213 1.383 . S
C217 C216 1.439 . S
C217 C235 1.392 . S
N218 Co202 2.282 1_565 S
N218 C221 1.332 . S
N218 C223 1.332 . S
C219 C220 1.386 . S
C219 C222 1.388 . S
C220 C219 1.386 . S
C220 C221 1.382 . S
C220 H246 0.950 . S
C221 N218 1.332 . S
C221 C220 1.382 . S
C221 H232 0.952 . S
C222 C219 1.388 . S
C222 C223 1.382 . S
C222 H247 0.950 . S
C223 N218 1.332 . S
C223 C222 1.382 . S
C223 H233 0.948 . S
N224 Co202 2.282 . S
N224 C228 1.332 . S
N224 C229 1.332 . S
C225 C226 1.388 . S
C225 C229 1.382 . S
C225 H248 0.950 . S
C226 C225 1.388 . S
C226 C227 1.386 . S
C227 C226 1.386 . S
C227 C228 1.382 . S
C227 H249 0.950 . S
C228 N224 1.332 . S
C228 C227 1.382 . S
C228 H230 0.952 . S
C229 N224 1.332 . S
C229 C225 1.382 . S
C229 H231 0.948 . S
H230 C228 0.952 . S
H231 C229 0.948 . S
H232 C221 0.952 . S
H233 C223 0.948 . S
C234 C200 1.395 . S
C234 C204 1.391 1_545 S
C235 C197 1.389 . S
C235 C217 1.392 . S
C236 C207 1.392 . S
C236 C209 1.389 . S
C237 C212 1.383 1_545 S
C237 C214 1.404 . S
H238 C198 0.951 . S
H239 C199 0.950 . S
H240 C205 0.949 . S
H241 C206 0.950 . S
H242 C210 0.951 . S
H243 C211 0.950 . S
H244 C215 0.949 . S
H245 C216 0.950 . S
H246 C220 0.950 . S
H247 C222 0.950 . S
H248 C225 0.950 . S
H249 C227 0.950 . S
C250 C251 1.443 . S
C250 N254 1.376 . S
C250 C288 1.389 . S
C251 C250 1.443 . S
C251 C252 1.340 . S
C251 H291 0.951 . S
C252 C251 1.340 . S
C252 C253 1.439 . S
C252 H292 0.950 . S
C253 C252 1.439 . S
C253 N254 1.374 . S
C253 C287 1.395 . S
N254 C250 1.376 . S
N254 C253 1.374 . S
N254 Co255 2.008 . S
Co255 N254 2.008 . S
Co255 N256 1.995 1_455 S
Co255 N261 2.008 1_455 S
Co255 N266 1.995 . S
Co255 N271 2.282 1_455 S
Co255 N277 2.282 . S
N256 Co255 1.995 1_655 S
N256 C257 1.376 . S
N256 C260 1.383 . S
C257 N256 1.376 . S
C257 C258 1.446 . S
C257 C287 1.391 1_655 S
C258 C257 1.446 . S
C258 C259 1.339 . S
C258 H293 0.949 . S
C259 C258 1.339 . S
C259 C260 1.439 . S
C259 H294 0.950 . S
C260 N256 1.383 . S
C260 C259 1.439 . S
C260 C289 1.392 . S
N261 Co255 2.008 1_655 S
N261 C262 1.376 . S
N261 C265 1.374 . S
C262 N261 1.376 . S
C262 C263 1.443 . S
C262 C289 1.389 . S
C263 C262 1.443 . S
C263 C264 1.340 . S
C263 H295 0.951 . S
C264 C263 1.340 . S
C264 C265 1.439 . S
C264 H296 0.950 . S
C265 N261 1.374 . S
C265 C264 1.439 . S
C265 C290 1.395 . S
N266 Co255 1.995 . S
N266 C267 1.376 . S
N266 C270 1.383 . S
C267 N266 1.376 . S
C267 C268 1.446 . S
C267 C290 1.391 1_455 S
C268 C267 1.446 . S
C268 C269 1.339 . S
C268 H297 0.949 . S
C269 C268 1.339 . S
C269 C270 1.439 . S
C269 H298 0.950 . S
C270 N266 1.383 . S
C270 C269 1.439 . S
C270 C288 1.392 . S
N271 Co255 2.282 1_655 S
N271 C274 1.332 . S
N271 C276 1.332 . S
C272 C273 1.386 . S
C272 C275 1.388 . S
C273 C272 1.386 . S
C273 C274 1.382 . S
C273 H299 0.950 . S
C274 N271 1.332 . S
C274 C273 1.382 . S
C274 H285 0.952 . S
C275 C272 1.388 . S
C275 C276 1.382 . S
C275 H300 0.950 . S
C276 N271 1.332 . S
C276 C275 1.382 . S
C276 H286 0.948 . S
N277 Co255 2.282 . S
N277 C281 1.332 . S
N277 C282 1.332 . S
C278 C279 1.388 . S
C278 C282 1.382 . S
C278 H301 0.950 . S
C279 C278 1.388 . S
C279 C280 1.386 . S
C280 C279 1.386 . S
C280 C281 1.382 . S
C280 H302 0.950 . S
C281 N277 1.332 . S
C281 C280 1.382 . S
C281 H283 0.952 . S
C282 N277 1.332 . S
C282 C278 1.382 . S
C282 H284 0.948 . S
H283 C281 0.952 . S
H284 C282 0.948 . S
H285 C274 0.952 . S
H286 C276 0.948 . S
C287 C253 1.395 . S
C287 C257 1.391 1_455 S
C288 C250 1.389 . S
C288 C270 1.392 . S
C289 C260 1.392 . S
C289 C262 1.389 . S
C290 C265 1.395 . S
C290 C267 1.391 1_655 S
H291 C251 0.951 . S
H292 C252 0.950 . S
H293 C258 0.949 . S
H294 C259 0.950 . S
H295 C263 0.951 . S
H296 C264 0.950 . S
H297 C268 0.949 . S
H298 C269 0.950 . S
H299 C273 0.950 . S
H300 C275 0.950 . S
H301 C278 0.950 . S
H302 C280 0.950 . S
C303 C304 1.443 . S
C303 N307 1.376 . S
C303 C341 1.389 . S
C304 C303 1.443 . S
C304 C305 1.340 . S
C304 H344 0.951 . S
C305 C304 1.340 . S
C305 C306 1.439 . S
C305 H345 0.950 . S
C306 C305 1.439 . S
C306 N307 1.374 . S
C306 C340 1.411 . S
N307 C303 1.376 . S
N307 C306 1.374 . S
N307 Co308 2.008 1_565 S
Co308 N307 2.008 1_545 S
Co308 N309 1.995 . S
Co308 N314 2.008 . S
Co308 N319 1.995 1_545 S
Co308 N324 2.282 . S
Co308 N330 2.282 1_545 S
N309 Co308 1.995 . S
N309 C310 1.376 . S
N309 C313 1.383 . S
C310 N309 1.376 . S
C310 C311 1.446 . S
C310 C340 1.374 1_545 S
C311 C310 1.446 . S
C311 C312 1.339 . S
C311 H346 0.949 . S
C312 C311 1.339 . S
C312 C313 1.439 . S
C312 H347 0.950 . S
C313 N309 1.383 . S
C313 C312 1.439 . S
C313 C342 1.392 . S
N314 Co308 2.008 . S
N314 C315 1.376 . S
N314 C318 1.374 . S
C315 N314 1.376 . S
C315 C316 1.443 . S
C315 C342 1.389 . S
C316 C315 1.443 . S
C316 C317 1.340 . S
C316 H348 0.951 . S
C317 C316 1.340 . S
C317 C318 1.439 . S
C317 H349 0.950 . S
C318 N314 1.374 . S
C318 C317 1.439 . S
C318 C343 1.395 . S
N319 Co308 1.995 1_565 S
N319 C320 1.376 . S
N319 C323 1.383 . S
C320 N319 1.376 . S
C320 C321 1.446 . S
C320 C343 1.391 1_565 S
C321 C320 1.446 . S
C321 C322 1.339 . S
C321 H350 0.949 . S
C322 C321 1.339 . S
C322 C323 1.439 . S
C322 H351 0.950 . S
C323 N319 1.383 . S
C323 C322 1.439 . S
C323 C341 1.392 . S
N324 Co308 2.282 . S
N324 C327 1.332 . S
N324 C329 1.332 . S
C325 C326 1.386 . S
C325 C328 1.388 . S
C326 C325 1.386 . S
C326 C327 1.382 . S
C326 H352 0.950 . S
C327 N324 1.332 . S
C327 C326 1.382 . S
C327 H338 0.952 . S
C328 C325 1.388 . S
C328 C329 1.382 . S
C328 H353 0.950 . S
C329 N324 1.332 . S
C329 C328 1.382 . S
C329 H339 0.948 . S
N330 Co308 2.282 1_565 S
N330 C334 1.332 . S
N330 C335 1.332 . S
C331 C332 1.388 . S
C331 C335 1.382 . S
C331 H354 0.950 . S
C332 C331 1.388 . S
C332 C333 1.386 . S
C333 C332 1.386 . S
C333 C334 1.382 . S
C333 H355 0.950 . S
C334 N330 1.332 . S
C334 C333 1.382 . S
C334 H336 0.952 . S
C335 N330 1.332 . S
C335 C331 1.382 . S
C335 H337 0.948 . S
H336 C334 0.952 . S
H337 C335 0.948 . S
H338 C327 0.952 . S
H339 C329 0.948 . S
C340 C306 1.411 . S
C340 C310 1.374 1_565 S
C341 C303 1.389 . S
C341 C323 1.392 . S
C342 C313 1.392 . S
C342 C315 1.389 . S
C343 C318 1.395 . S
C343 C320 1.391 1_545 S
H344 C304 0.951 . S
H345 C305 0.950 . S
H346 C311 0.949 . S
H347 C312 0.950 . S
H348 C316 0.951 . S
H349 C317 0.950 . S
H350 C321 0.949 . S
H351 C322 0.950 . S
H352 C326 0.950 . S
H353 C328 0.950 . S
H354 C331 0.950 . S
H355 C333 0.950 . S
C356 C357 1.443 . S
C356 N360 1.376 . S
C356 C394 1.389 . S
C357 C356 1.443 . S
C357 C358 1.340 . S
C357 H397 0.951 . S
C358 C357 1.340 . S
C358 C359 1.439 . S
C358 H398 0.950 . S
C359 C358 1.439 . S
C359 N360 1.374 . S
C359 C393 1.395 . S
N360 C356 1.376 . S
N360 C359 1.374 . S
N360 Co361 2.008 . S
Co361 N360 2.008 . S
Co361 N362 1.995 1_554 S
Co361 N367 2.008 1_554 S
Co361 N372 1.995 . S
Co361 N377 2.282 . S
Co361 N383 2.282 1_554 S
N362 Co361 1.995 1_556 S
N362 C363 1.376 . S
N362 C366 1.383 . S
C363 N362 1.376 . S
C363 C364 1.446 . S
C363 C393 1.391 1_556 S
C364 C363 1.446 . S
C364 C365 1.339 . S
C364 H399 0.949 . S
C365 C364 1.339 . S
C365 C366 1.439 . S
C365 H400 0.950 . S
C366 N362 1.383 . S
C366 C365 1.439 . S
C366 C395 1.392 . S
N367 Co361 2.008 1_556 S
N367 C368 1.376 . S
N367 C371 1.374 . S
C368 N367 1.376 . S
C368 C369 1.443 . S
C368 C395 1.389 . S
C369 C368 1.443 . S
C369 C370 1.340 . S
C369 H401 0.951 . S
C370 C369 1.340 . S
C370 C371 1.439 . S
C370 H402 0.950 . S
C371 N367 1.374 . S
C371 C370 1.439 . S
C371 C396 1.395 1_556 S
N372 Co361 1.995 . S
N372 C373 1.376 . S
N372 C376 1.383 . S
C373 N372 1.376 . S
C373 C374 1.446 . S
C373 C396 1.391 . S
C374 C373 1.446 . S
C374 C375 1.339 . S
C374 H403 0.949 . S
C375 C374 1.339 . S
C375 C376 1.439 . S
C375 H404 0.950 . S
C376 N372 1.383 . S
C376 C375 1.439 . S
C376 C394 1.392 . S
N377 Co361 2.282 . S
N377 C380 1.332 . S
N377 C382 1.332 . S
C378 C379 1.386 . S
C378 C381 1.388 . S
C379 C378 1.386 . S
C379 C380 1.382 . S
C379 H405 0.950 . S
C380 N377 1.332 . S
C380 C379 1.382 . S
C380 H391 0.952 . S
C381 C378 1.388 . S
C381 C382 1.382 . S
C381 H406 0.950 . S
C382 N377 1.332 . S
C382 C381 1.382 . S
C382 H392 0.948 . S
N383 Co361 2.282 1_556 S
N383 C387 1.332 . S
N383 C388 1.332 . S
C384 C385 1.388 . S
C384 C388 1.382 . S
C384 H407 0.950 . S
C385 C384 1.388 . S
C385 C386 1.386 . S
C386 C385 1.386 . S
C386 C387 1.382 . S
C386 H408 0.950 . S
C387 N383 1.332 . S
C387 C386 1.382 . S
C387 H389 0.952 . S
C388 N383 1.332 . S
C388 C384 1.382 . S
C388 H390 0.948 . S
H389 C387 0.952 . S
H390 C388 0.948 . S
H391 C380 0.952 . S
H392 C382 0.948 . S
C393 C359 1.395 . S
C393 C363 1.391 1_554 S
C394 C356 1.389 . S
C394 C376 1.392 . S
C395 C366 1.392 . S
C395 C368 1.389 . S
C396 C371 1.395 1_554 S
C396 C373 1.391 . S
H397 C357 0.951 . S
H398 C358 0.950 . S
H399 C364 0.949 . S
H400 C365 0.950 . S
H401 C369 0.951 . S
H402 C370 0.950 . S
H403 C374 0.949 . S
H404 C375 0.950 . S
H405 C379 0.950 . S
H406 C381 0.950 . S
H407 C384 0.950 . S
H408 C386 0.950 . S
C409 C410 1.443 . S
C409 N413 1.376 . S
C409 C447 1.389 . S
C410 C409 1.443 . S
C410 C411 1.340 . S
C410 H450 0.951 . S
C411 C410 1.340 . S
C411 C412 1.439 . S
C411 H451 0.950 . S
C412 C411 1.439 . S
C412 N413 1.374 . S
C412 C446 1.395 . S
N413 C409 1.376 . S
N413 C412 1.374 . S
N413 Co414 2.008 . S
Co414 N413 2.008 . S
Co414 N415 1.995 1_554 S
Co414 N420 2.008 . S
Co414 N425 1.995 . S
Co414 N430 2.282 . S
Co414 N436 2.282 1_554 S
N415 Co414 1.995 1_556 S
N415 C416 1.376 . S
N415 C419 1.383 . S
C416 N415 1.376 . S
C416 C417 1.446 . S
C416 C446 1.391 1_556 S
C417 C416 1.446 . S
C417 C418 1.339 . S
C417 H452 0.949 . S
C418 C417 1.339 . S
C418 C419 1.439 . S
C418 H453 0.950 . S
C419 N415 1.383 . S
C419 C418 1.439 . S
C419 C448 1.392 . S
N420 Co414 2.008 . S
N420 C421 1.376 1_554 S
N420 C424 1.374 . S
C421 N420 1.376 1_556 S
C421 C422 1.443 . S
C421 C448 1.389 . S
C422 C421 1.443 . S
C422 C423 1.340 1_556 S
C422 H454 0.951 . S
C423 C422 1.340 1_554 S
C423 C424 1.439 . S
C423 H455 0.950 . S
C424 N420 1.374 . S
C424 C423 1.439 . S
C424 C449 1.395 . S
N425 Co414 1.995 . S
N425 C426 1.376 . S
N425 C429 1.383 . S
C426 N425 1.376 . S
C426 C427 1.446 . S
C426 C449 1.391 . S
C427 C426 1.446 . S
C427 C428 1.339 . S
C427 H456 0.949 . S
C428 C427 1.339 . S
C428 C429 1.439 . S
C428 H457 0.950 . S
C429 N425 1.383 . S
C429 C428 1.439 . S
C429 C447 1.392 . S
N430 Co414 2.282 . S
N430 C433 1.332 . S
N430 C435 1.332 . S
C431 C432 1.386 . S
C431 C434 1.388 . S
C432 C431 1.386 . S
C432 C433 1.382 . S
C432 H458 0.950 . S
C433 N430 1.332 . S
C433 C432 1.382 . S
C433 H444 0.952 . S
C434 C431 1.388 . S
C434 C435 1.382 . S
C434 H459 0.950 . S
C435 N430 1.332 . S
C435 C434 1.382 . S
C435 H445 0.948 . S
N436 Co414 2.282 1_556 S
N436 C440 1.332 . S
N436 C441 1.332 . S
C437 C438 1.388 . S
C437 C441 1.382 . S
C437 H460 0.950 . S
C438 C437 1.388 . S
C438 C439 1.386 . S
C439 C438 1.386 . S
C439 C440 1.382 . S
C439 H461 0.950 . S
C440 N436 1.332 . S
C440 C439 1.382 . S
C440 H442 0.952 . S
C441 N436 1.332 . S
C441 C437 1.382 . S
C441 H443 0.948 . S
H442 C440 0.952 . S
H443 C441 0.948 . S
H444 C433 0.952 . S
H445 C435 0.948 . S
C446 C412 1.395 . S
C446 C416 1.391 1_554 S
C447 C409 1.389 . S
C447 C429 1.392 . S
C448 C419 1.392 . S
C448 C421 1.389 . S
C449 C424 1.395 . S
C449 C426 1.391 . S
H450 C410 0.951 . S
H451 C411 0.950 . S
H452 C417 0.949 . S
H453 C418 0.950 . S
H454 C422 0.951 . S
H455 C423 0.950 . S
H456 C427 0.949 . S
H457 C428 0.950 . S
H458 C432 0.950 . S
H459 C434 0.950 . S
H460 C437 0.950 . S
H461 C439 0.950 . S
C462 C463 1.443 . S
C462 N466 1.376 1_556 S
C462 C500 1.389 . S
C463 C462 1.443 . S
C463 C464 1.340 1_556 S
C463 H503 0.951 . S
C464 C463 1.340 1_554 S
C464 C465 1.439 . S
C464 H504 0.950 . S
C465 C464 1.439 . S
C465 N466 1.374 . S
C465 C499 1.395 . S
N466 C462 1.376 1_554 S
N466 C465 1.374 . S
N466 Co467 2.008 . S
Co467 N466 2.008 . S
Co467 N468 1.995 . S
Co467 N473 2.008 . S
Co467 N478 1.995 . S
Co467 N483 2.282 1_554 S
Co467 N489 2.282 . S
N468 Co467 1.995 . S
N468 C469 1.376 . S
N468 C472 1.383 . S
C469 N468 1.376 . S
C469 C470 1.446 . S
C469 C499 1.391 . S
C470 C469 1.446 . S
C470 C471 1.339 . S
C470 H505 0.949 . S
C471 C470 1.339 . S
C471 C472 1.439 . S
C471 H506 0.950 . S
C472 N468 1.383 . S
C472 C471 1.439 . S
C472 C501 1.392 . S
N473 Co467 2.008 . S
N473 C474 1.376 . S
N473 C477 1.374 . S
C474 N473 1.376 . S
C474 C475 1.443 . S
C474 C501 1.389 . S
C475 C474 1.443 . S
C475 C476 1.340 . S
C475 H507 0.951 . S
C476 C475 1.340 . S
C476 C477 1.439 . S
C476 H508 0.950 . S
C477 N473 1.374 . S
C477 C476 1.439 . S
C477 C502 1.395 . S
N478 Co467 1.995 . S
N478 C479 1.376 . S
N478 C482 1.383 1_554 S
C479 N478 1.376 . S
C479 C480 1.446 1_554 S
C479 C502 1.391 . S
C480 C479 1.446 1_556 S
C480 C481 1.339 . S
C480 H509 0.949 . S
C481 C480 1.339 . S
C481 C482 1.439 . S
C481 H510 0.950 . S
C482 N478 1.383 1_556 S
C482 C481 1.439 . S
C482 C500 1.392 . S
N483 Co467 2.282 1_556 S
N483 C486 1.332 . S
N483 C488 1.332 . S
C484 C485 1.386 . S
C484 C487 1.388 . S
C485 C484 1.386 . S
C485 C486 1.382 . S
C485 H511 0.950 . S
C486 N483 1.332 . S
C486 C485 1.382 . S
C486 H497 0.952 . S
C487 C484 1.388 . S
C487 C488 1.382 . S
C487 H512 0.950 . S
C488 N483 1.332 . S
C488 C487 1.382 . S
C488 H498 0.948 1_556 S
N489 Co467 2.282 . S
N489 C493 1.332 . S
N489 C494 1.332 . S
C490 C491 1.388 . S
C490 C494 1.382 . S
C490 H513 0.950 . S
C491 C490 1.388 . S
C491 C492 1.386 . S
C492 C491 1.386 . S
C492 C493 1.382 . S
C492 H514 0.950 . S
C493 N489 1.332 . S
C493 C492 1.382 . S
C493 H495 0.952 . S
C494 N489 1.332 . S
C494 C490 1.382 . S
C494 H496 0.948 . S
H495 C493 0.952 . S
H496 C494 0.948 . S
H497 C486 0.952 . S
H498 C488 0.948 1_554 S
C499 C465 1.395 . S
C499 C469 1.391 . S
C500 C462 1.389 . S
C500 C482 1.392 . S
C501 C472 1.392 . S
C501 C474 1.389 . S
C502 C477 1.395 . S
C502 C479 1.391 . S
H503 C463 0.951 . S
H504 C464 0.950 . S
H505 C470 0.949 . S
H506 C471 0.950 . S
H507 C475 0.951 . S
H508 C476 0.950 . S
H509 C480 0.949 . S
H510 C481 0.950 . S
H511 C485 0.950 . S
H512 C487 0.950 . S
H513 C490 0.950 . S
H514 C492 0.950 . S
C515 C516 1.443 . S
C515 N519 1.376 . S
C515 C553 1.389 . S
C516 C515 1.443 . S
C516 C517 1.340 . S
C516 H556 0.951 . S
C517 C516 1.340 . S
C517 C518 1.439 . S
C517 H557 0.950 . S
C518 C517 1.439 . S
C518 N519 1.374 . S
C518 C552 1.395 1_554 S
N519 C515 1.376 . S
N519 C518 1.374 . S
N519 Co520 2.008 . S
Co520 N519 2.008 . S
Co520 N521 1.995 1_554 S
Co520 N526 2.008 1_554 S
Co520 N531 1.995 . S
Co520 N536 2.282 . S
Co520 N542 2.282 1_554 S
N521 Co520 1.995 1_556 S
N521 C522 1.376 . S
N521 C525 1.383 . S
C522 N521 1.376 . S
C522 C523 1.446 . S
C522 C552 1.391 . S
C523 C522 1.446 . S
C523 C524 1.339 . S
C523 H558 0.949 . S
C524 C523 1.339 . S
C524 C525 1.439 . S
C524 H559 0.950 . S
C525 N521 1.383 . S
C525 C524 1.439 . S
C525 C554 1.392 . S
N526 Co520 2.008 1_556 S
N526 C527 1.376 . S
N526 C530 1.374 1_556 S
C527 N526 1.376 . S
C527 C528 1.443 . S
C527 C554 1.389 . S
C528 C527 1.443 . S
C528 C529 1.340 . S
C528 H560 0.951 . S
C529 C528 1.340 . S
C529 C530 1.439 1_556 S
C529 H561 0.950 . S
C530 N526 1.374 1_554 S
C530 C529 1.439 1_554 S
C530 C555 1.395 . S
N531 Co520 1.995 . S
N531 C532 1.376 . S
N531 C535 1.383 . S
C532 N531 1.376 . S
C532 C533 1.446 . S
C532 C555 1.391 . S
C533 C532 1.446 . S
C533 C534 1.339 . S
C533 H562 0.949 . S
C534 C533 1.339 . S
C534 C535 1.439 . S
C534 H563 0.950 . S
C535 N531 1.383 . S
C535 C534 1.439 . S
C535 C553 1.392 . S
N536 Co520 2.282 . S
N536 C539 1.332 . S
N536 C541 1.332 . S
C537 C538 1.386 . S
C537 C540 1.388 . S
C538 C537 1.386 . S
C538 C539 1.382 . S
C538 H564 0.950 . S
C539 N536 1.332 . S
C539 C538 1.382 . S
C539 H550 0.952 . S
C540 C537 1.388 . S
C540 C541 1.382 . S
C540 H565 0.950 . S
C541 N536 1.332 . S
C541 C540 1.382 . S
C541 H551 0.948 . S
N542 Co520 2.282 1_556 S
N542 C546 1.332 . S
N542 C547 1.332 . S
C543 C544 1.388 . S
C543 C547 1.382 . S
C543 H566 0.950 . S
C544 C543 1.388 . S
C544 C545 1.386 . S
C545 C544 1.386 . S
C545 C546 1.382 . S
C545 H567 0.950 . S
C546 N542 1.332 . S
C546 C545 1.382 . S
C546 H548 0.952 . S
C547 N542 1.332 . S
C547 C543 1.382 . S
C547 H549 0.948 . S
H548 C546 0.952 . S
H549 C547 0.948 . S
H550 C539 0.952 . S
H551 C541 0.948 . S
C552 C518 1.395 1_556 S
C552 C522 1.391 . S
C553 C515 1.389 . S
C553 C535 1.392 . S
C554 C525 1.392 . S
C554 C527 1.389 . S
C555 C530 1.395 . S
C555 C532 1.391 . S
H556 C516 0.951 . S
H557 C517 0.950 . S
H558 C523 0.949 . S
H559 C524 0.950 . S
H560 C528 0.951 . S
H561 C529 0.950 . S
H562 C533 0.949 . S
H563 C534 0.950 . S
H564 C538 0.950 . S
H565 C540 0.950 . S
H566 C543 0.950 . S
H567 C545 0.950 . S
H568 C576 0.950 . S
H569 C581 0.950 . S
H570 C578 0.950 . S
H571 C580 0.950 . S
H572 C582 0.950 . S
H573 C584 0.950 . S
H574 C586 0.950 . S
H575 C587 0.950 . S
C576 H568 0.950 . S
C576 C577 1.386 . S
C576 C578 1.391 . S
C577 C576 1.386 . S
C577 C581 1.393 . S
C578 H570 0.950 . S
C578 C576 1.391 . S
C578 C579 1.400 . S
C579 C578 1.400 . S
C579 C580 1.398 . S
C579 C585 1.491 . S
C580 H571 0.950 . S
C580 C579 1.398 . S
C580 C581 1.391 . S
C581 H569 0.950 . S
C581 C577 1.393 . S
C581 C580 1.391 . S
C582 H572 0.950 . S
C582 C583 1.386 . S
C582 C584 1.391 . S
C583 C582 1.386 . S
C583 C587 1.393 . S
C584 H573 0.950 . S
C584 C582 1.391 . S
C584 C585 1.400 . S
C585 C579 1.491 . S
C585 C584 1.400 . S
C585 C586 1.398 . S
C586 H574 0.950 . S
C586 C585 1.398 . S
C586 C587 1.391 . S
C587 H575 0.950 . S
C587 C583 1.393 . S
C587 C586 1.391 . S
H588 C596 0.950 . S
H589 C601 0.950 . S
H590 C598 0.950 . S
H591 C600 0.950 . S
H592 C602 0.950 . S
H593 C604 0.950 . S
H594 C606 0.950 . S
H595 C607 0.950 . S
C596 H588 0.950 . S
C596 C597 1.386 . S
C596 C598 1.391 . S
C597 C596 1.386 . S
C597 C601 1.393 . S
C598 H590 0.950 . S
C598 C596 1.391 . S
C598 C599 1.400 . S
C599 C598 1.400 . S
C599 C600 1.398 . S
C599 C605 1.491 . S
C600 H591 0.950 . S
C600 C599 1.398 . S
C600 C601 1.391 . S
C601 H589 0.950 . S
C601 C597 1.393 . S
C601 C600 1.391 . S
C602 H592 0.950 . S
C602 C603 1.386 . S
C602 C604 1.391 . S
C603 C602 1.386 . S
C603 C607 1.393 . S
C604 H593 0.950 . S
C604 C602 1.391 . S
C604 C605 1.400 . S
C605 C599 1.491 . S
C605 C604 1.400 . S
C605 C606 1.398 . S
C606 H594 0.950 . S
C606 C605 1.398 . S
C606 C607 1.391 . S
C607 H595 0.950 . S
C607 C603 1.393 . S
C607 C606 1.391 . S
H608 C616 0.950 . S
H609 C621 0.950 . S
H610 C618 0.950 . S
H611 C620 0.950 . S
H612 C622 0.950 . S
H613 C624 0.950 . S
H614 C626 0.950 . S
H615 C627 0.950 . S
C616 H608 0.950 . S
C616 C617 1.386 . S
C616 C618 1.391 . S
C617 C616 1.386 . S
C617 C621 1.393 . S
C618 H610 0.950 . S
C618 C616 1.391 . S
C618 C619 1.400 . S
C619 C618 1.400 . S
C619 C620 1.398 . S
C619 C625 1.491 . S
C620 H611 0.950 . S
C620 C619 1.398 . S
C620 C621 1.391 . S
C621 H609 0.950 . S
C621 C617 1.393 . S
C621 C620 1.391 . S
C622 H612 0.950 . S
C622 C623 1.386 . S
C622 C624 1.391 . S
C623 C622 1.386 . S
C623 C627 1.393 . S
C624 H613 0.950 . S
C624 C622 1.391 . S
C624 C625 1.400 . S
C625 C619 1.491 . S
C625 C624 1.400 . S
C625 C626 1.398 . S
C626 H614 0.950 . S
C626 C625 1.398 . S
C626 C627 1.391 . S
C627 H615 0.950 . S
C627 C623 1.393 . S
C627 C626 1.391 . S
H628 C636 0.950 . S
H629 C641 0.950 . S
H630 C638 0.950 . S
H631 C640 0.950 . S
H632 C642 0.950 . S
H633 C644 0.950 . S
H634 C646 0.950 . S
H635 C647 0.950 . S
C636 H628 0.950 . S
C636 C637 1.386 . S
C636 C638 1.391 . S
C637 C636 1.386 . S
C637 C641 1.393 . S
C638 H630 0.950 . S
C638 C636 1.391 . S
C638 C639 1.400 . S
C639 C638 1.400 . S
C639 C640 1.398 . S
C639 C645 1.491 . S
C640 H631 0.950 . S
C640 C639 1.398 . S
C640 C641 1.391 . S
C641 H629 0.950 . S
C641 C637 1.393 . S
C641 C640 1.391 . S
C642 H632 0.950 . S
C642 C643 1.386 . S
C642 C644 1.391 . S
C643 C642 1.386 . S
C643 C647 1.393 . S
C644 H633 0.950 . S
C644 C642 1.391 . S
C644 C645 1.400 . S
C645 C639 1.491 . S
C645 C644 1.400 . S
C645 C646 1.398 . S
C646 H634 0.950 . S
C646 C645 1.398 . S
C646 C647 1.391 . S
C647 H635 0.950 . S
C647 C643 1.393 . S
C647 C646 1.391 . S
H648 C656 0.950 . S
H649 C661 0.950 . S
H650 C658 0.950 . S
H651 C660 0.950 . S
H652 C662 0.950 . S
H653 C664 0.950 . S
H654 C666 0.950 . S
H655 C667 0.950 . S
C656 H648 0.950 . S
C656 C657 1.386 . S
C656 C658 1.391 . S
C657 C656 1.386 . S
C657 C661 1.393 . S
C658 H650 0.950 . S
C658 C656 1.391 . S
C658 C659 1.400 . S
C659 C658 1.400 . S
C659 C660 1.398 . S
C659 C665 1.491 . S
C660 H651 0.950 . S
C660 C659 1.398 . S
C660 C661 1.391 . S
C661 H649 0.950 . S
C661 C657 1.393 . S
C661 C660 1.391 . S
C662 H652 0.950 . S
C662 C663 1.386 . S
C662 C664 1.391 . S
C663 C662 1.386 . S
C663 C667 1.393 . S
C664 H653 0.950 . S
C664 C662 1.391 . S
C664 C665 1.400 . S
C665 C659 1.491 . S
C665 C664 1.400 . S
C665 C666 1.398 . S
C666 H654 0.950 . S
C666 C665 1.398 . S
C666 C667 1.391 . S
C667 H655 0.950 . S
C667 C663 1.393 . S
C667 C666 1.391 . S
H668 C676 0.950 . S
H669 C681 0.950 . S
H670 C678 0.950 . S
H671 C680 0.950 . S
H672 C682 0.950 . S
H673 C684 0.950 . S
H674 C686 0.950 . S
H675 C687 0.950 . S
C676 H668 0.950 . S
C676 C677 1.386 . S
C676 C678 1.391 . S
C677 C676 1.386 . S
C677 C681 1.393 . S
C678 H670 0.950 . S
C678 C676 1.391 . S
C678 C679 1.400 . S
C679 C678 1.400 . S
C679 C680 1.398 . S
C679 C685 1.491 . S
C680 H671 0.950 . S
C680 C679 1.398 . S
C680 C681 1.391 . S
C681 H669 0.950 . S
C681 C677 1.393 . S
C681 C680 1.391 . S
C682 H672 0.950 . S
C682 C683 1.386 . S
C682 C684 1.391 . S
C683 C682 1.386 . S
C683 C687 1.393 . S
C684 H673 0.950 . S
C684 C682 1.391 . S
C684 C685 1.400 . S
C685 C679 1.491 . S
C685 C684 1.400 . S
C685 C686 1.398 . S
C686 H674 0.950 . S
C686 C685 1.398 . S
C686 C687 1.391 . S
C687 H675 0.950 . S
C687 C683 1.393 . S
C687 C686 1.391 . S
H688 C696 0.950 . S
H689 C701 0.950 . S
H690 C698 0.950 . S
H691 C700 0.950 . S
H692 C702 0.950 . S
H693 C704 0.950 . S
H694 C706 0.950 . S
H695 C707 0.950 . S
C696 H688 0.950 . S
C696 C697 1.386 . S
C696 C698 1.391 . S
C697 C696 1.386 . S
C697 C701 1.393 . S
C698 H690 0.950 . S
C698 C696 1.391 . S
C698 C699 1.400 . S
C699 C698 1.400 . S
C699 C700 1.398 . S
C699 C705 1.491 . S
C700 H691 0.950 . S
C700 C699 1.398 . S
C700 C701 1.391 . S
C701 H689 0.950 . S
C701 C697 1.393 . S
C701 C700 1.391 . S
C702 H692 0.950 . S
C702 C703 1.386 . S
C702 C704 1.391 . S
C703 C702 1.386 . S
C703 C707 1.393 . S
C704 H693 0.950 . S
C704 C702 1.391 . S
C704 C705 1.400 . S
C705 C699 1.491 . S
C705 C704 1.400 . S
C705 C706 1.398 . S
C706 H694 0.950 . S
C706 C705 1.398 . S
C706 C707 1.391 . S
C707 H695 0.950 . S
C707 C703 1.393 . S
C707 C706 1.391 . S
H708 C716 0.950 . S
H709 C721 0.950 . S
H710 C718 0.950 . S
H711 C720 0.950 . S
H712 C722 0.950 . S
H713 C724 0.950 . S
H714 C726 0.950 . S
H715 C727 0.950 . S
C716 H708 0.950 . S
C716 C717 1.386 . S
C716 C718 1.391 . S
C717 C716 1.386 . S
C717 C721 1.393 . S
C718 H710 0.950 . S
C718 C716 1.391 . S
C718 C719 1.400 . S
C719 C718 1.400 . S
C719 C720 1.398 . S
C719 C725 1.491 . S
C720 H711 0.950 . S
C720 C719 1.398 . S
C720 C721 1.391 . S
C721 H709 0.950 . S
C721 C717 1.393 . S
C721 C720 1.391 . S
C722 H712 0.950 . S
C722 C723 1.386 . S
C722 C724 1.391 . S
C723 C722 1.386 . S
C723 C727 1.393 . S
C724 H713 0.950 . S
C724 C722 1.391 . S
C724 C725 1.400 . S
C725 C719 1.491 . S
C725 C724 1.400 . S
C725 C726 1.398 . S
C726 H714 0.950 . S
C726 C725 1.398 . S
C726 C727 1.391 . S
C727 H715 0.950 . S
C727 C723 1.393 . S
C727 C726 1.391 . S
H728 C736 0.950 . S
H729 C741 0.950 . S
H730 C738 0.950 . S
H731 C740 0.950 . S
H732 C742 0.950 . S
H733 C744 0.950 . S
H734 C746 0.950 . S
H735 C747 0.950 . S
C736 H728 0.950 . S
C736 C737 1.386 . S
C736 C738 1.391 . S
C737 C736 1.386 . S
C737 C741 1.393 . S
C738 H730 0.950 . S
C738 C736 1.391 . S
C738 C739 1.400 . S
C739 C738 1.400 . S
C739 C740 1.398 . S
C739 C745 1.491 . S
C740 H731 0.950 . S
C740 C739 1.398 . S
C740 C741 1.391 . S
C741 H729 0.950 . S
C741 C737 1.393 . S
C741 C740 1.391 . S
C742 H732 0.950 . S
C742 C743 1.386 . S
C742 C744 1.391 . S
C743 C742 1.386 . S
C743 C747 1.393 . S
C744 H733 0.950 . S
C744 C742 1.391 . S
C744 C745 1.400 . S
C745 C739 1.491 . S
C745 C744 1.400 . S
C745 C746 1.398 . S
C746 H734 0.950 . S
C746 C745 1.398 . S
C746 C747 1.391 . S
C747 H735 0.950 . S
C747 C743 1.393 . S
C747 C746 1.391 . S
H748 C756 0.950 . S
H749 C761 0.950 . S
H750 C758 0.950 . S
H751 C760 0.950 . S
H752 C762 0.950 . S
H753 C764 0.950 . S
H754 C766 0.950 . S
H755 C767 0.950 . S
C756 H748 0.950 . S
C756 C757 1.386 . S
C756 C758 1.391 . S
C757 C756 1.386 . S
C757 C761 1.393 . S
C758 H750 0.950 . S
C758 C756 1.391 . S
C758 C759 1.400 . S
C759 C758 1.400 . S
C759 C760 1.398 . S
C759 C765 1.491 . S
C760 H751 0.950 . S
C760 C759 1.398 . S
C760 C761 1.391 . S
C761 H749 0.950 . S
C761 C757 1.393 . S
C761 C760 1.391 . S
C762 H752 0.950 . S
C762 C763 1.386 . S
C762 C764 1.391 . S
C763 C762 1.386 . S
C763 C767 1.393 . S
C764 H753 0.950 . S
C764 C762 1.391 . S
C764 C765 1.400 . S
C765 C759 1.491 . S
C765 C764 1.400 . S
C765 C766 1.398 . S
C766 H754 0.950 . S
C766 C765 1.398 . S
C766 C767 1.391 . S
C767 H755 0.950 . S
C767 C763 1.393 . S
C767 C766 1.391 . S
H768 C776 0.950 . S
H769 C781 0.950 . S
H770 C778 0.950 . S
H771 C780 0.950 . S
H772 C782 0.950 . S
H773 C784 0.950 . S
H774 C786 0.950 . S
H775 C787 0.950 . S
C776 H768 0.950 . S
C776 C777 1.386 . S
C776 C778 1.391 . S
C777 C776 1.386 . S
C777 C781 1.393 . S
C778 H770 0.950 . S
C778 C776 1.391 . S
C778 C779 1.400 . S
C779 C778 1.400 . S
C779 C780 1.398 . S
C779 C785 1.491 . S
C780 H771 0.950 . S
C780 C779 1.398 . S
C780 C781 1.391 . S
C781 H769 0.950 . S
C781 C777 1.393 . S
C781 C780 1.391 . S
C782 H772 0.950 . S
C782 C783 1.386 . S
C782 C784 1.391 . S
C783 C782 1.386 . S
C783 C787 1.393 . S
C784 H773 0.950 . S
C784 C782 1.391 . S
C784 C785 1.400 . S
C785 C779 1.491 . S
C785 C784 1.400 . S
C785 C786 1.398 . S
C786 H774 0.950 . S
C786 C785 1.398 . S
C786 C787 1.391 . S
C787 H775 0.950 . S
C787 C783 1.393 . S
C787 C786 1.391 . S
H788 C796 0.950 . S
H789 C801 0.950 . S
H790 C798 0.950 . S
H791 C800 0.950 . S
H792 C802 0.950 . S
H793 C804 0.950 . S
H794 C806 0.950 . S
H795 C807 0.950 . S
C796 H788 0.950 . S
C796 C797 1.386 . S
C796 C798 1.391 . S
C797 C796 1.386 . S
C797 C801 1.393 . S
C798 H790 0.950 . S
C798 C796 1.391 . S
C798 C799 1.400 . S
C799 C798 1.400 . S
C799 C800 1.398 . S
C799 C805 1.491 . S
C800 H791 0.950 . S
C800 C799 1.398 . S
C800 C801 1.391 . S
C801 H789 0.950 . S
C801 C797 1.393 . S
C801 C800 1.391 . S
C802 H792 0.950 . S
C802 C803 1.386 . S
C802 C804 1.391 . S
C803 C802 1.386 . S
C803 C807 1.393 . S
C804 H793 0.950 . S
C804 C802 1.391 . S
C804 C805 1.400 . S
C805 C799 1.491 . S
C805 C804 1.400 . S
C805 C806 1.398 . S
C806 H794 0.950 . S
C806 C805 1.398 . S
C806 C807 1.391 . S
C807 H795 0.950 . S
C807 C803 1.393 . S
C807 C806 1.391 . S
H808 C816 0.950 . S
H809 C821 0.950 . S
H810 C818 0.950 . S
H811 C820 0.950 . S
H812 C822 0.950 . S
H813 C824 0.950 . S
H814 C826 0.950 . S
H815 C827 0.950 . S
C816 H808 0.950 . S
C816 C817 1.386 . S
C816 C818 1.391 . S
C817 C816 1.386 . S
C817 C821 1.393 . S
C818 H810 0.950 . S
C818 C816 1.391 . S
C818 C819 1.400 . S
C819 C818 1.400 . S
C819 C820 1.398 . S
C819 C825 1.491 . S
C820 H811 0.950 . S
C820 C819 1.398 . S
C820 C821 1.391 . S
C821 H809 0.950 . S
C821 C817 1.393 . S
C821 C820 1.391 . S
C822 H812 0.950 . S
C822 C823 1.386 . S
C822 C824 1.391 . S
C823 C822 1.386 . S
C823 C827 1.393 . S
C824 H813 0.950 . S
C824 C822 1.391 . S
C824 C825 1.400 . S
C825 C819 1.491 . S
C825 C824 1.400 . S
C825 C826 1.398 . S
C826 H814 0.950 . S
C826 C825 1.398 . S
C826 C827 1.391 . S
C827 H815 0.950 . S
C827 C823 1.393 . S
C827 C826 1.391 . S
H828 C836 0.950 . S
H829 C841 0.950 . S
H830 C838 0.950 . S
H831 C840 0.950 . S
H832 C842 0.950 . S
H833 C844 0.950 . S
H834 C846 0.950 . S
H835 C847 0.950 . S
C836 H828 0.950 . S
C836 C837 1.386 . S
C836 C838 1.391 . S
C837 C836 1.386 . S
C837 C841 1.393 . S
C838 H830 0.950 . S
C838 C836 1.391 . S
C838 C839 1.400 . S
C839 C838 1.400 . S
C839 C840 1.398 . S
C839 C845 1.491 . S
C840 H831 0.950 . S
C840 C839 1.398 . S
C840 C841 1.391 . S
C841 H829 0.950 . S
C841 C837 1.393 . S
C841 C840 1.391 . S
C842 H832 0.950 . S
C842 C843 1.386 . S
C842 C844 1.391 . S
C843 C842 1.386 . S
C843 C847 1.393 . S
C844 H833 0.950 . S
C844 C842 1.391 . S
C844 C845 1.400 . S
C845 C839 1.491 . S
C845 C844 1.400 . S
C845 C846 1.398 . S
C846 H834 0.950 . S
C846 C845 1.398 . S
C846 C847 1.391 . S
C847 H835 0.950 . S
C847 C843 1.393 . S
C847 C846 1.391 . S
H848 C856 0.950 . S
H849 C861 0.950 . S
H850 C858 0.950 . S
H851 C860 0.950 . S
H852 C862 0.950 . S
H853 C864 0.950 . S
H854 C866 0.950 . S
H855 C867 0.950 . S
C856 H848 0.950 . S
C856 C857 1.386 . S
C856 C858 1.391 . S
C857 C856 1.386 . S
C857 C861 1.393 . S
C858 H850 0.950 . S
C858 C856 1.391 . S
C858 C859 1.400 . S
C859 C858 1.400 . S
C859 C860 1.398 . S
C859 C865 1.491 . S
C860 H851 0.950 . S
C860 C859 1.398 . S
C860 C861 1.391 . S
C861 H849 0.950 . S
C861 C857 1.393 . S
C861 C860 1.391 . S
C862 H852 0.950 . S
C862 C863 1.386 . S
C862 C864 1.391 . S
C863 C862 1.386 . S
C863 C867 1.393 . S
C864 H853 0.950 . S
C864 C862 1.391 . S
C864 C865 1.400 . S
C865 C859 1.491 . S
C865 C864 1.400 . S
C865 C866 1.398 . S
C866 H854 0.950 . S
C866 C865 1.398 . S
C866 C867 1.391 . S
C867 H855 0.950 . S
C867 C863 1.393 . S
C867 C866 1.391 . S
H868 C876 0.950 . S
H869 C881 0.950 . S
H870 C878 0.950 . S
H871 C880 0.950 . S
H872 C882 0.950 . S
H873 C884 0.950 . S
H874 C886 0.950 . S
H875 C887 0.950 . S
C876 H868 0.950 . S
C876 C877 1.386 . S
C876 C878 1.391 . S
C877 C876 1.386 . S
C877 C881 1.393 . S
C878 H870 0.950 . S
C878 C876 1.391 . S
C878 C879 1.400 . S
C879 C878 1.400 . S
C879 C880 1.398 . S
C879 C885 1.491 . S
C880 H871 0.950 . S
C880 C879 1.398 . S
C880 C881 1.391 . S
C881 H869 0.950 . S
C881 C877 1.393 . S
C881 C880 1.391 . S
C882 H872 0.950 . S
C882 C883 1.386 . S
C882 C884 1.391 . S
C883 C882 1.386 . S
C883 C887 1.393 . S
C884 H873 0.950 . S
C884 C882 1.391 . S
C884 C885 1.400 . S
C885 C879 1.491 . S
C885 C884 1.400 . S
C885 C886 1.398 . S
C886 H874 0.950 . S
C886 C885 1.398 . S
C886 C887 1.391 . S
C887 H875 0.950 . S
C887 C883 1.393 . S
C887 C886 1.391 . S
H888 C896 0.950 . S
H889 C901 0.950 . S
H890 C898 0.950 . S
H891 C900 0.950 . S
H892 C902 0.950 . S
H893 C904 0.950 . S
H894 C906 0.950 . S
H895 C907 0.950 . S
C896 H888 0.950 . S
C896 C897 1.386 . S
C896 C898 1.391 . S
C897 C896 1.386 . S
C897 C901 1.393 . S
C898 H890 0.950 . S
C898 C896 1.391 . S
C898 C899 1.400 . S
C899 C898 1.400 . S
C899 C900 1.398 . S
C899 C905 1.491 . S
C900 H891 0.950 . S
C900 C899 1.398 . S
C900 C901 1.391 . S
C901 H889 0.950 . S
C901 C897 1.393 . S
C901 C900 1.391 . S
C902 H892 0.950 . S
C902 C903 1.386 . S
C902 C904 1.391 . S
C903 C902 1.386 . S
C903 C907 1.393 . S
C904 H893 0.950 . S
C904 C902 1.391 . S
C904 C905 1.400 . S
C905 C899 1.491 . S
C905 C904 1.400 . S
C905 C906 1.398 . S
C906 H894 0.950 . S
C906 C905 1.398 . S
C906 C907 1.391 . S
C907 H895 0.950 . S
C907 C903 1.393 . S
C907 C906 1.391 . S
H908 C916 0.950 . S
H909 C921 0.950 . S
H910 C918 0.950 . S
H911 C920 0.950 . S
H912 C922 0.950 . S
H913 C924 0.950 . S
H914 C926 0.950 . S
H915 C927 0.950 . S
C916 H908 0.950 . S
C916 C917 1.386 . S
C916 C918 1.391 . S
C917 C916 1.386 . S
C917 C921 1.393 . S
C918 H910 0.950 . S
C918 C916 1.391 . S
C918 C919 1.400 . S
C919 C918 1.400 . S
C919 C920 1.398 . S
C919 C925 1.491 . S
C920 H911 0.950 . S
C920 C919 1.398 . S
C920 C921 1.391 . S
C921 H909 0.950 . S
C921 C917 1.393 . S
C921 C920 1.391 . S
C922 H912 0.950 . S
C922 C923 1.386 . S
C922 C924 1.391 . S
C923 C922 1.386 . S
C923 C927 1.393 . S
C924 H913 0.950 . S
C924 C922 1.391 . S
C924 C925 1.400 . S
C925 C919 1.491 . S
C925 C924 1.400 . S
C925 C926 1.398 . S
C926 H914 0.950 . S
C926 C925 1.398 . S
C926 C927 1.391 . S
C927 H915 0.950 . S
C927 C923 1.393 . S
C927 C926 1.391 . S
H928 C936 0.950 . S
H929 C941 0.950 . S
H930 C938 0.950 . S
H931 C940 0.950 . S
H932 C942 0.950 . S
H933 C944 0.950 . S
H934 C946 0.950 . S
H935 C947 0.950 . S
C936 H928 0.950 . S
C936 C937 1.386 . S
C936 C938 1.391 . S
C937 C936 1.386 . S
C937 C941 1.393 . S
C938 H930 0.950 . S
C938 C936 1.391 . S
C938 C939 1.400 . S
C939 C938 1.400 . S
C939 C940 1.398 . S
C939 C945 1.491 . S
C940 H931 0.950 . S
C940 C939 1.398 . S
C940 C941 1.391 . S
C941 H929 0.950 . S
C941 C937 1.393 . S
C941 C940 1.391 . S
C942 H932 0.950 . S
C942 C943 1.386 . S
C942 C944 1.391 . S
C943 C942 1.386 . S
C943 C947 1.393 . S
C944 H933 0.950 . S
C944 C942 1.391 . S
C944 C945 1.400 . S
C945 C939 1.491 . S
C945 C944 1.400 . S
C945 C946 1.398 . S
C946 H934 0.950 . S
C946 C945 1.398 . S
C946 C947 1.391 . S
C947 H935 0.950 . S
C947 C943 1.393 . S
C947 C946 1.391 . S
H948 C956 0.950 . S
H949 C961 0.950 . S
H950 C958 0.950 . S
H951 C960 0.950 . S
H952 C962 0.950 . S
H953 C964 0.950 . S
H954 C966 0.950 . S
H955 C967 0.950 . S
C956 H948 0.950 . S
C956 C957 1.386 . S
C956 C958 1.391 . S
C957 C956 1.386 . S
C957 C961 1.393 . S
C958 H950 0.950 . S
C958 C956 1.391 . S
C958 C959 1.400 . S
C959 C958 1.400 . S
C959 C960 1.398 . S
C959 C965 1.491 . S
C960 H951 0.950 . S
C960 C959 1.398 . S
C960 C961 1.391 . S
C961 H949 0.950 . S
C961 C957 1.393 . S
C961 C960 1.391 . S
C962 H952 0.950 . S
C962 C963 1.386 . S
C962 C964 1.391 . S
C963 C962 1.386 . S
C963 C967 1.393 . S
C964 H953 0.950 . S
C964 C962 1.391 . S
C964 C965 1.400 . S
C965 C959 1.491 . S
C965 C964 1.400 . S
C965 C966 1.398 . S
C966 H954 0.950 . S
C966 C965 1.398 . S
C966 C967 1.391 . S
C967 H955 0.950 . S
C967 C963 1.393 . S
C967 C966 1.391 . S
H968 C976 0.950 . S
H969 C981 0.950 . S
H970 C978 0.950 . S
H971 C980 0.950 . S
H972 C982 0.950 . S
H973 C984 0.950 . S
H974 C986 0.950 . S
H975 C987 0.950 . S
C976 H968 0.950 . S
C976 C977 1.386 . S
C976 C978 1.391 . S
C977 C976 1.386 . S
C977 C981 1.393 . S
C978 H970 0.950 . S
C978 C976 1.391 . S
C978 C979 1.400 . S
C979 C978 1.400 . S
C979 C980 1.398 . S
C979 C985 1.491 . S
C980 H971 0.950 . S
C980 C979 1.398 . S
C980 C981 1.391 . S
C981 H969 0.950 . S
C981 C977 1.393 . S
C981 C980 1.391 . S
C982 H972 0.950 . S
C982 C983 1.386 . S
C982 C984 1.391 . S
C983 C982 1.386 . S
C983 C987 1.393 . S
C984 H973 0.950 . S
C984 C982 1.391 . S
C984 C985 1.400 . S
C985 C979 1.491 . S
C985 C984 1.400 . S
C985 C986 1.398 . S
C986 H974 0.950 . S
C986 C985 1.398 . S
C986 C987 1.391 . S
C987 H975 0.950 . S
C987 C983 1.393 . S
C987 C986 1.391 . S
H988 C996 0.950 . S
H989 C1001 0.950 . S
H990 C998 0.950 . S
H991 C1000 0.950 . S
H992 C1002 0.950 . S
H993 C1004 0.950 . S
H994 C1006 0.950 . S
H995 C1007 0.950 . S
C996 H988 0.950 . S
C996 C997 1.386 . S
C996 C998 1.391 . S
C997 C996 1.386 . S
C997 C1001 1.393 . S
C998 H990 0.950 . S
C998 C996 1.391 . S
C998 C999 1.400 . S
C999 C998 1.400 . S
C999 C1000 1.398 . S
C999 C1005 1.491 . S
C1000 H991 0.950 . S
C1000 C999 1.398 . S
C1000 C1001 1.391 . S
C1001 H989 0.950 . S
C1001 C997 1.393 . S
C1001 C1000 1.391 . S
C1002 H992 0.950 . S
C1002 C1003 1.386 . S
C1002 C1004 1.391 . S
C1003 C1002 1.386 . S
C1003 C1007 1.393 . S
C1004 H993 0.950 . S
C1004 C1002 1.391 . S
C1004 C1005 1.400 . S
C1005 C999 1.491 . S
C1005 C1004 1.400 . S
C1005 C1006 1.398 . S
C1006 H994 0.950 . S
C1006 C1005 1.398 . S
C1006 C1007 1.391 . S
C1007 H995 0.950 . S
C1007 C1003 1.393 . S
C1007 C1006 1.391 . S
H1008 C1016 0.950 . S
H1009 C1021 0.950 . S
H1010 C1018 0.950 . S
H1011 C1020 0.950 . S
H1012 C1022 0.950 . S
H1013 C1024 0.950 . S
H1014 C1026 0.950 . S
H1015 C1027 0.950 . S
C1016 H1008 0.950 . S
C1016 C1017 1.386 . S
C1016 C1018 1.391 . S
C1017 C1016 1.386 . S
C1017 C1021 1.393 . S
C1018 H1010 0.950 . S
C1018 C1016 1.391 . S
C1018 C1019 1.400 . S
C1019 C1018 1.400 . S
C1019 C1020 1.398 . S
C1019 C1025 1.491 . S
C1020 H1011 0.950 . S
C1020 C1019 1.398 . S
C1020 C1021 1.391 . S
C1021 H1009 0.950 . S
C1021 C1017 1.393 . S
C1021 C1020 1.391 . S
C1022 H1012 0.950 . S
C1022 C1023 1.386 . S
C1022 C1024 1.391 . S
C1023 C1022 1.386 . S
C1023 C1027 1.393 . S
C1024 H1013 0.950 . S
C1024 C1022 1.391 . S
C1024 C1025 1.400 . S
C1025 C1019 1.491 . S
C1025 C1024 1.400 . S
C1025 C1026 1.398 . S
C1026 H1014 0.950 . S
C1026 C1025 1.398 . S
C1026 C1027 1.391 . S
C1027 H1015 0.950 . S
C1027 C1023 1.393 . S
C1027 C1026 1.391 . S
H1028 C1036 0.950 . S
H1029 C1041 0.950 . S
H1030 C1038 0.950 . S
H1031 C1040 0.950 . S
H1032 C1042 0.950 . S
H1033 C1044 0.950 . S
H1034 C1046 0.950 . S
H1035 C1047 0.950 . S
C1036 H1028 0.950 . S
C1036 C1037 1.386 . S
C1036 C1038 1.391 . S
C1037 C1036 1.386 . S
C1037 C1041 1.393 . S
C1038 H1030 0.950 . S
C1038 C1036 1.391 . S
C1038 C1039 1.400 . S
C1039 C1038 1.400 . S
C1039 C1040 1.398 . S
C1039 C1045 1.491 . S
C1040 H1031 0.950 . S
C1040 C1039 1.398 . S
C1040 C1041 1.391 . S
C1041 H1029 0.950 . S
C1041 C1037 1.393 . S
C1041 C1040 1.391 . S
C1042 H1032 0.950 . S
C1042 C1043 1.386 . S
C1042 C1044 1.391 . S
C1043 C1042 1.386 . S
C1043 C1047 1.393 . S
C1044 H1033 0.950 . S
C1044 C1042 1.391 . S
C1044 C1045 1.400 . S
C1045 C1039 1.491 . S
C1045 C1044 1.400 . S
C1045 C1046 1.398 . S
C1046 H1034 0.950 . S
C1046 C1045 1.398 . S
C1046 C1047 1.391 . S
C1047 H1035 0.950 . S
C1047 C1043 1.393 . S
C1047 C1046 1.391 . S
H1048 C1056 0.950 . S
H1049 C1061 0.950 . S
H1050 C1058 0.950 . S
H1051 C1060 0.950 . S
H1052 C1062 0.950 . S
H1053 C1064 0.950 . S
H1054 C1066 0.950 . S
H1055 C1067 0.950 . S
C1056 H1048 0.950 . S
C1056 C1057 1.386 . S
C1056 C1058 1.391 . S
C1057 C1056 1.386 . S
C1057 C1061 1.393 . S
C1058 H1050 0.950 . S
C1058 C1056 1.391 . S
C1058 C1059 1.400 . S
C1059 C1058 1.400 . S
C1059 C1060 1.398 . S
C1059 C1065 1.491 . S
C1060 H1051 0.950 . S
C1060 C1059 1.398 . S
C1060 C1061 1.391 . S
C1061 H1049 0.950 . S
C1061 C1057 1.393 . S
C1061 C1060 1.391 . S
C1062 H1052 0.950 . S
C1062 C1063 1.386 . S
C1062 C1064 1.391 . S
C1063 C1062 1.386 . S
C1063 C1067 1.393 . S
C1064 H1053 0.950 . S
C1064 C1062 1.391 . S
C1064 C1065 1.400 . S
C1065 C1059 1.491 . S
C1065 C1064 1.400 . S
C1065 C1066 1.398 . S
C1066 H1054 0.950 . S
C1066 C1065 1.398 . S
C1066 C1067 1.391 . S
C1067 H1055 0.950 . S
C1067 C1063 1.393 . S
C1067 C1066 1.391 . S
H1068 C1076 0.950 . S
H1069 C1081 0.950 . S
H1070 C1078 0.950 . S
H1071 C1080 0.950 . S
H1072 C1082 0.950 . S
H1073 C1084 0.950 . S
H1074 C1086 0.950 . S
H1075 C1087 0.950 . S
C1076 H1068 0.950 . S
C1076 C1077 1.386 . S
C1076 C1078 1.391 . S
C1077 C1076 1.386 . S
C1077 C1081 1.393 . S
C1078 H1070 0.950 . S
C1078 C1076 1.391 . S
C1078 C1079 1.400 . S
C1079 C1078 1.400 . S
C1079 C1080 1.398 . S
C1079 C1085 1.491 . S
C1080 H1071 0.950 . S
C1080 C1079 1.398 . S
C1080 C1081 1.391 . S
C1081 H1069 0.950 . S
C1081 C1077 1.393 . S
C1081 C1080 1.391 . S
C1082 H1072 0.950 . S
C1082 C1083 1.386 . S
C1082 C1084 1.391 . S
C1083 C1082 1.386 . S
C1083 C1087 1.393 . S
C1084 H1073 0.950 . S
C1084 C1082 1.391 . S
C1084 C1085 1.400 . S
C1085 C1079 1.491 . S
C1085 C1084 1.400 . S
C1085 C1086 1.398 . S
C1086 H1074 0.950 . S
C1086 C1085 1.398 . S
C1086 C1087 1.391 . S
C1087 H1075 0.950 . S
C1087 C1083 1.393 . S
C1087 C1086 1.391 . S
H1088 C1096 0.950 . S
H1089 C1101 0.950 . S
H1090 C1098 0.950 . S
H1091 C1100 0.950 . S
H1092 C1102 0.950 . S
H1093 C1104 0.950 . S
H1094 C1106 0.950 . S
H1095 C1107 0.950 . S
C1096 H1088 0.950 . S
C1096 C1097 1.386 . S
C1096 C1098 1.391 . S
C1097 C1096 1.386 . S
C1097 C1101 1.393 . S
C1098 H1090 0.950 . S
C1098 C1096 1.391 . S
C1098 C1099 1.400 . S
C1099 C1098 1.400 . S
C1099 C1100 1.398 . S
C1099 C1105 1.491 . S
C1100 H1091 0.950 . S
C1100 C1099 1.398 . S
C1100 C1101 1.391 . S
C1101 H1089 0.950 . S
C1101 C1097 1.393 . S
C1101 C1100 1.391 . S
C1102 H1092 0.950 . S
C1102 C1103 1.386 . S
C1102 C1104 1.391 . S
C1103 C1102 1.386 . S
C1103 C1107 1.393 . S
C1104 H1093 0.950 . S
C1104 C1102 1.391 . S
C1104 C1105 1.400 . S
C1105 C1099 1.491 . S
C1105 C1104 1.400 . S
C1105 C1106 1.398 . S
C1106 H1094 0.950 . S
C1106 C1105 1.398 . S
C1106 C1107 1.391 . S
C1107 H1095 0.950 . S
C1107 C1103 1.393 . S
C1107 C1106 1.391 . S
H1108 C1116 0.950 . S
H1109 C1121 0.950 . S
H1110 C1118 0.950 . S
H1111 C1120 0.950 . S
H1112 C1122 0.950 . S
H1113 C1124 0.950 . S
H1114 C1126 0.950 . S
H1115 C1127 0.950 . S
C1116 H1108 0.950 . S
C1116 C1117 1.386 . S
C1116 C1118 1.391 . S
C1117 C1116 1.386 . S
C1117 C1121 1.393 . S
C1118 H1110 0.950 . S
C1118 C1116 1.391 . S
C1118 C1119 1.400 . S
C1119 C1118 1.400 . S
C1119 C1120 1.398 . S
C1119 C1125 1.491 . S
C1120 H1111 0.950 . S
C1120 C1119 1.398 . S
C1120 C1121 1.391 . S
C1121 H1109 0.950 . S
C1121 C1117 1.393 . S
C1121 C1120 1.391 . S
C1122 H1112 0.950 . S
C1122 C1123 1.386 . S
C1122 C1124 1.391 . S
C1123 C1122 1.386 . S
C1123 C1127 1.393 . S
C1124 H1113 0.950 . S
C1124 C1122 1.391 . S
C1124 C1125 1.400 . S
C1125 C1119 1.491 . S
C1125 C1124 1.400 . S
C1125 C1126 1.398 . S
C1126 H1114 0.950 . S
C1126 C1125 1.398 . S
C1126 C1127 1.391 . S
C1127 H1115 0.950 . S
C1127 C1123 1.393 . S
C1127 C1126 1.391 . S
H1128 C1136 0.950 . S
H1129 C1141 0.950 . S
H1130 C1138 0.950 . S
H1131 C1140 0.950 . S
H1132 C1142 0.950 . S
H1133 C1144 0.950 . S
H1134 C1146 0.950 . S
H1135 C1147 0.950 . S
C1136 H1128 0.950 . S
C1136 C1137 1.386 . S
C1136 C1138 1.391 . S
C1137 C1136 1.386 . S
C1137 C1141 1.393 . S
C1138 H1130 0.950 . S
C1138 C1136 1.391 . S
C1138 C1139 1.400 . S
C1139 C1138 1.400 . S
C1139 C1140 1.398 . S
C1139 C1145 1.491 . S
C1140 H1131 0.950 . S
C1140 C1139 1.398 . S
C1140 C1141 1.391 . S
C1141 H1129 0.950 . S
C1141 C1137 1.393 . S
C1141 C1140 1.391 . S
C1142 H1132 0.950 . S
C1142 C1143 1.386 . S
C1142 C1144 1.391 . S
C1143 C1142 1.386 . S
C1143 C1147 1.393 . S
C1144 H1133 0.950 . S
C1144 C1142 1.391 . S
C1144 C1145 1.400 . S
C1145 C1139 1.491 . S
C1145 C1144 1.400 . S
C1145 C1146 1.398 . S
C1146 H1134 0.950 . S
C1146 C1145 1.398 . S
C1146 C1147 1.391 . S
C1147 H1135 0.950 . S
C1147 C1143 1.393 . S
C1147 C1146 1.391 . S
H1148 C1156 0.950 . S
H1149 C1161 0.950 . S
H1150 C1158 0.950 . S
H1151 C1160 0.950 . S
H1152 C1162 0.950 . S
H1153 C1164 0.950 . S
H1154 C1166 0.950 . S
H1155 C1167 0.950 . S
C1156 H1148 0.950 . S
C1156 C1157 1.386 . S
C1156 C1158 1.391 . S
C1157 C1156 1.386 . S
C1157 C1161 1.393 . S
C1158 H1150 0.950 . S
C1158 C1156 1.391 . S
C1158 C1159 1.400 . S
C1159 C1158 1.400 . S
C1159 C1160 1.398 . S
C1159 C1165 1.491 . S
C1160 H1151 0.950 . S
C1160 C1159 1.398 . S
C1160 C1161 1.391 . S
C1161 H1149 0.950 . S
C1161 C1157 1.393 . S
C1161 C1160 1.391 . S
C1162 H1152 0.950 . S
C1162 C1163 1.386 . S
C1162 C1164 1.391 . S
C1163 C1162 1.386 . S
C1163 C1167 1.393 . S
C1164 H1153 0.950 . S
C1164 C1162 1.391 . S
C1164 C1165 1.400 . S
C1165 C1159 1.491 . S
C1165 C1164 1.400 . S
C1165 C1166 1.398 . S
C1166 H1154 0.950 . S
C1166 C1165 1.398 . S
C1166 C1167 1.391 . S
C1167 H1155 0.950 . S
C1167 C1163 1.393 . S
C1167 C1166 1.391 . S
H1168 C1176 0.950 . S
H1169 C1181 0.950 . S
H1170 C1178 0.950 . S
H1171 C1180 0.950 . S
H1172 C1182 0.950 . S
H1173 C1184 0.950 . S
H1174 C1186 0.950 . S
H1175 C1187 0.950 . S
C1176 H1168 0.950 . S
C1176 C1177 1.386 . S
C1176 C1178 1.391 . S
C1177 C1176 1.386 . S
C1177 C1181 1.393 . S
C1178 H1170 0.950 . S
C1178 C1176 1.391 . S
C1178 C1179 1.400 . S
C1179 C1178 1.400 . S
C1179 C1180 1.398 . S
C1179 C1185 1.491 . S
C1180 H1171 0.950 . S
C1180 C1179 1.398 . S
C1180 C1181 1.391 . S
C1181 H1169 0.950 . S
C1181 C1177 1.393 . S
C1181 C1180 1.391 . S
C1182 H1172 0.950 . S
C1182 C1183 1.386 . S
C1182 C1184 1.391 . S
C1183 C1182 1.386 . S
C1183 C1187 1.393 . S
C1184 H1173 0.950 . S
C1184 C1182 1.391 . S
C1184 C1185 1.400 . S
C1185 C1179 1.491 . S
C1185 C1184 1.400 . S
C1185 C1186 1.398 . S
C1186 H1174 0.950 . S
C1186 C1185 1.398 . S
C1186 C1187 1.391 . S
C1187 H1175 0.950 . S
C1187 C1183 1.393 . S
C1187 C1186 1.391 . S
H1188 C1196 0.950 . S
H1189 C1201 0.950 . S
H1190 C1198 0.950 . S
H1191 C1200 0.950 . S
H1192 C1202 0.950 . S
H1193 C1204 0.950 . S
H1194 C1206 0.950 . S
H1195 C1207 0.950 . S
C1196 H1188 0.950 . S
C1196 C1197 1.386 . S
C1196 C1198 1.391 . S
C1197 C1196 1.386 . S
C1197 C1201 1.393 . S
C1198 H1190 0.950 . S
C1198 C1196 1.391 . S
C1198 C1199 1.400 . S
C1199 C1198 1.400 . S
C1199 C1200 1.398 . S
C1199 C1205 1.491 . S
C1200 H1191 0.950 . S
C1200 C1199 1.398 . S
C1200 C1201 1.391 . S
C1201 H1189 0.950 . S
C1201 C1197 1.393 . S
C1201 C1200 1.391 . S
C1202 H1192 0.950 . S
C1202 C1203 1.386 . S
C1202 C1204 1.391 . S
C1203 C1202 1.386 . S
C1203 C1207 1.393 . S
C1204 H1193 0.950 . S
C1204 C1202 1.391 . S
C1204 C1205 1.400 . S
C1205 C1199 1.491 . S
C1205 C1204 1.400 . S
C1205 C1206 1.398 . S
C1206 H1194 0.950 . S
C1206 C1205 1.398 . S
C1206 C1207 1.391 . S
C1207 H1195 0.950 . S
C1207 C1203 1.393 . S
C1207 C1206 1.391 . S
C583 C173 1.496 . S
C577 C7 1.441 . S
C603 C226 1.305 . S
C597 C32 1.271 . S
C623 C289 1.542 . S
C617 C44 1.495 . S
C643 C332 1.277 . S
C637 C62 1.231 . S
C657 C88 1.500 . S
C663 C288 1.548 . S
C683 C325 1.323 . S
C677 C106 1.283 . S
C703 C166 1.491 . S
C697 C124 1.416 . S
C723 C219 1.258 . S
C717 C140 1.216 . S
C743 C272 1.532 . S
C737 C142 1.444 . S
C763 C341 1.814 . S
C757 C86 1.753 . S
C783 C182 1.581 . S
C777 C104 1.512 . S
C803 C235 1.751 . S
C797 C122 1.674 . S
C823 C183 1.575 . S
C817 C34 1.500 . S
C843 C236 1.811 . S
C837 C43 1.748 . S
C863 C279 1.534 . S
C857 C61 1.448 . S
C883 C342 1.767 . S
C877 C8 1.706 . S
C903 C385 1.471 . S
C897 C133 1.392 . S
C917 C80 1.635 . S
C923 C438 1.687 . S
C937 C98 1.524 . S
C943 C500 1.563 . S
C957 C116 1.617 . S
C963 C554 1.680 . S
C977 C25 1.444 . S
C983 C501 1.512 . S
C997 C52 1.665 . S
C1003 C553 1.736 . S
C1017 C70 1.442 . S
C1023 C378 1.511 . S
C1043 C431 1.645 . S
C1037 C14 1.587 . S
C1063 C491 1.509 . S
C1057 C16 1.432 . S
C1077 C26 1.332 . S
C1083 C537 1.379 . S
C1097 C50 1.547 . S
C1103 C394 1.603 . S
C1117 C68 1.310 . S
C1123 C447 1.358 . S
C1143 C395 1.552 . S
C1137 C79 1.484 . S
C1163 C448 1.405 . S
C1157 C97 1.346 . S
C1177 C115 1.486 . S
C1183 C484 1.556 . S
C1203 C544 1.331 . S
C1197 C134 1.283 . S
