# Generated by pormake.
# Topology anh, (6,3)-cn, num edge types: 1
# Building blocks:
#     Node 0, Type 0, BuildingBlock: BETFAJ_clean_sbu_0, # of connection points: 6
#     Node 1, Type 0, BuildingBlock: BETFAJ_clean_sbu_0, # of connection points: 6
#     Node 2, Type 0, BuildingBlock: BETFAJ_clean_sbu_0, # of connection points: 6
#     Node 3, Type 1, BuildingBlock: QEWDON_clean_linker_0, # of connection points: 3
#     Node 4, Type 1, BuildingBlock: QEWDON_clean_linker_0, # of connection points: 3
#     Node 5, Type 1, BuildingBlock: QEWDON_clean_linker_0, # of connection points: 3
#     Node 6, Type 1, BuildingBlock: QEWDON_clean_linker_0, # of connection points: 3
#     Node 7, Type 1, BuildingBlock: QEWDON_clean_linker_0, # of connection points: 3
#     Node 8, Type 1, BuildingBlock: QEWDON_clean_linker_0, # of connection points: 3
#     Edge 9, Type (0, 1), BuildingBlock: UVAHIK_clean_linker_0, # of connection points: 2
#     Edge 10, Type (0, 1), BuildingBlock: UVAHIK_clean_linker_0, # of connection points: 2
#     Edge 11, Type (0, 1), BuildingBlock: UVAHIK_clean_linker_0, # of connection points: 2
#     Edge 12, Type (0, 1), BuildingBlock: UVAHIK_clean_linker_0, # of connection points: 2
#     Edge 13, Type (0, 1), BuildingBlock: UVAHIK_clean_linker_0, # of connection points: 2
#     Edge 14, Type (0, 1), BuildingBlock: UVAHIK_clean_linker_0, # of connection points: 2
#     Edge 15, Type (0, 1), BuildingBlock: UVAHIK_clean_linker_0, # of connection points: 2
#     Edge 16, Type (0, 1), BuildingBlock: UVAHIK_clean_linker_0, # of connection points: 2
#     Edge 17, Type (0, 1), BuildingBlock: UVAHIK_clean_linker_0, # of connection points: 2
#     Edge 18, Type (0, 1), BuildingBlock: UVAHIK_clean_linker_0, # of connection points: 2
#     Edge 19, Type (0, 1), BuildingBlock: UVAHIK_clean_linker_0, # of connection points: 2
#     Edge 20, Type (0, 1), BuildingBlock: UVAHIK_clean_linker_0, # of connection points: 2
#     Edge 21, Type (0, 1), BuildingBlock: UVAHIK_clean_linker_0, # of connection points: 2
#     Edge 22, Type (0, 1), BuildingBlock: UVAHIK_clean_linker_0, # of connection points: 2
#     Edge 23, Type (0, 1), BuildingBlock: UVAHIK_clean_linker_0, # of connection points: 2
#     Edge 24, Type (0, 1), BuildingBlock: UVAHIK_clean_linker_0, # of connection points: 2
#     Edge 25, Type (0, 1), BuildingBlock: UVAHIK_clean_linker_0, # of connection points: 2
#     Edge 26, Type (0, 1), BuildingBlock: UVAHIK_clean_linker_0, # of connection points: 2
# Relax obj value: 0.110
# Max RMSD: 0.160
# Mean RMSD: 0.126
data_MOF--net-anh--node1-BETFAJ_clean_sbu_0--node2-QEWDON_clean_linker_0--edge1-UVAHIK_clean_linker_0
_symmetry_space_group_name_H-M    P1
_symmetry_Int_Tables_number       1
_symmetry_cell_setting            triclinic
loop_
_symmetry_equiv_pos_as_xyz
'x, y, z'
_cell_length_a     42.387223
_cell_length_b     48.725168
_cell_length_c     62.374445
_cell_angle_alpha  96.225449
_cell_angle_beta   92.836111
_cell_angle_gamma 127.86015
loop_
_atom_site_label
_atom_site_type_symbol
_atom_site_fract_x
_atom_site_fract_y
_atom_site_fract_z
_atom_type_partial_charge
Sm0 Sm 0.07033 0.50954 0.14501 0.0
Sm1 Sm 1.0294 0.53777 0.16475 0.0
C2 C 0.11318 0.49765 0.1225 0.0
C3 C 0.15648 0.51384 0.12464 0.0
C4 C 0.18164 0.53827 0.11142 0.0
C5 C 0.22318 0.55573 0.1146 0.0
C6 C 0.24026 0.54886 0.13095 0.0
C7 C 0.2149 0.52377 0.14377 0.0
C8 C 0.1735 0.50639 0.14062 0.0
C9 C 0.07603 0.51727 0.18972 0.0
C10 C 0.12152 0.59694 0.15832 0.0
C11 C 0.98689 0.5476 0.18911 0.0
C12 C 0.94513 0.52388 0.19364 0.0
C13 C 0.93669 0.52667 0.21483 0.0
C14 C 0.89695 0.50454 0.2192 0.0
C15 C 0.86491 0.47946 0.20236 0.0
C16 C 0.87396 0.47575 0.18134 0.0
C17 C 0.91368 0.49756 0.17707 0.0
C18 C 1.02653 0.53275 0.12027 0.0
C19 C 0.97813 0.45128 0.15129 0.0
O20 O 0.10375 0.51724 0.117 0.0
O21 O 0.09327 0.47975 0.13759 0.0
O22 O 0.07988 0.53865 0.17835 0.0
O23 O 0.07139 0.4913 0.17766 0.0
O24 O 0.11805 0.57057 0.14657 0.0
O25 O 0.09283 0.59092 0.16954 0.0
O26 O 1.01079 0.54145 0.19689 0.0
O27 O 0.99161 0.55453 0.16928 0.0
O28 O 1.02108 0.50995 0.13094 0.0
O29 O 1.0309 0.55825 0.1329 0.0
O30 O 0.98361 0.47747 0.16445 0.0
O31 O 1.00513 0.45753 0.13858 0.0
H32 H 0.16929 0.54433 0.09886 0.0
H33 H 0.24192 0.5746 0.10427 0.0
H34 H 0.22719 0.51818 0.15668 0.0
H35 H 0.15506 0.48766 0.15108 0.0
H36 H 0.96077 0.54628 0.22794 0.0
H37 H 0.89123 0.5077 0.23566 0.0
H38 H 0.85024 0.45716 0.16785 0.0
H39 H 0.91963 0.49434 0.16067 0.0
Sm40 Sm 0.62474 0.06321 0.48889 0.0
Sm41 Sm 0.57145 0.08246 0.47643 0.0
C42 C 0.65843 0.03838 0.50703 0.0
C43 C 0.64771 0.00388 0.509 0.0
C44 C 0.67211 1.00212 0.52381 0.0
C45 C 0.66286 0.96961 0.52559 0.0
C46 C 0.62902 0.93825 0.51253 0.0
C47 C 0.60433 0.94015 0.49786 0.0
C48 C 0.61355 0.97269 0.49615 0.0
C49 C 0.61278 0.06288 0.44509 0.0
C50 C 0.52522 1.00039 0.47718 0.0
C51 C 0.53788 0.1088 0.46057 0.0
C52 C 0.54567 0.14289 0.46497 0.0
C53 C 0.52967 0.15193 0.44965 0.0
C54 C 0.53614 0.18396 0.45399 0.0
C55 C 0.55865 0.20748 0.47381 0.0
C56 C 0.57509 0.19837 0.48898 0.0
C57 C 0.56879 0.16646 0.48456 0.0
C58 C 0.58313 0.08237 0.52014 0.0
C59 C 0.67145 0.14478 0.48562 0.0
O60 O 0.63876 0.0469 0.51746 0.0
O61 O 0.66312 0.04661 0.48754 0.0
O62 O 0.58601 0.05087 0.45737 0.0
O63 O 0.64696 0.07382 0.45545 0.0
O64 O 0.55945 0.01129 0.48848 0.0
O65 O 0.52365 0.02222 0.46723 0.0
O66 O 0.56516 0.10892 0.45155 0.0
O67 O 0.52511 0.09022 0.47623 0.0
O68 O 0.61021 0.09497 0.50803 0.0
O69 O 0.549 0.07101 0.50959 0.0
O70 O 0.63621 0.13389 0.47586 0.0
O71 O 0.67449 0.12343 0.49518 0.0
H72 H 0.69858 0.02597 0.53386 0.0
H73 H 0.68272 0.96914 0.53687 0.0
H74 H 0.57777 0.91645 0.48778 0.0
H75 H 0.59418 0.97355 0.48473 0.0
H76 H 0.51201 0.13415 0.43437 0.0
H77 H 0.52361 0.19032 0.44177 0.0
H78 H 0.59211 0.21551 0.50451 0.0
H79 H 0.58155 0.15996 0.49656 0.0
Sm80 Sm 0.63078 0.5887 0.84187 0.0
Sm81 Sm 0.576 0.51341 0.84592 0.0
C82 C 0.66633 0.6512 0.83017 0.0
C83 C 0.65935 0.677 0.8279 0.0
C84 C 0.62335 0.66692 0.81643 0.0
C85 C 0.61816 0.69222 0.81405 0.0
C86 C 0.64866 0.72795 0.82326 0.0
C87 C 0.68444 0.73782 0.83488 0.0
C88 C 0.68976 0.71261 0.83709 0.0
C89 C 0.62923 0.57715 0.88396 0.0
C90 C 0.5322 0.55043 0.84594 0.0
C91 C 0.54321 0.45065 0.85634 0.0
C92 C 0.55207 0.42584 0.85247 0.0
C93 C 0.53872 0.39998 0.86549 0.0
C94 C 0.54741 0.37654 0.86193 0.0
C95 C 0.56956 0.37852 0.8452 0.0
C96 C 0.58314 0.40482 0.83232 0.0
C97 C 0.57463 0.42832 0.83599 0.0
C98 C 0.57779 0.52493 0.80375 0.0
C99 C 0.67522 0.5521 0.84348 0.0
O100 O 0.64419 0.62134 0.81633 0.0
O101 O 0.67243 0.64739 0.85 0.0
O102 O 0.59868 0.56182 0.86965 0.0
O103 O 0.66228 0.60018 0.87652 0.0
O104 O 0.56639 0.57632 0.83932 0.0
O105 O 0.52982 0.52405 0.85223 0.0
O106 O 0.57068 0.48031 0.86965 0.0
O107 O 0.52923 0.45514 0.83904 0.0
O108 O 0.60826 0.54025 0.81812 0.0
O109 O 0.54484 0.50166 0.81113 0.0
O110 O 0.63979 0.52509 0.84828 0.0
O111 O 0.67891 0.57961 0.83829 0.0
H112 H 0.59927 0.63956 0.80929 0.0
H113 H 0.59008 0.68377 0.80524 0.0
H114 H 0.70862 0.76518 0.84198 0.0
H115 H 0.71781 0.72098 0.84591 0.0
H116 H 0.52165 0.39796 0.87845 0.0
H117 H 0.53707 0.35707 0.87241 0.0
H118 H 0.59978 0.40692 0.81912 0.0
H119 H 0.58547 0.44834 0.82585 0.0
H120 H 0.5678 0.06325 0.20333 0.0
C121 C 0.54334 0.0354 0.19779 0.0
C122 C 0.52284 0.0141 0.2134 0.0
C123 C 0.53103 0.02123 0.17529 0.0
H124 H 0.47393 0.96199 0.21859 0.0
C125 C 0.48957 0.97842 0.20651 0.0
C126 C 0.47652 0.96339 0.18435 0.0
C127 C 0.49805 0.98466 0.16886 0.0
C128 C 0.5506 0.04478 0.15854 0.0
H129 H 0.48827 0.97267 0.15179 0.0
C130 C 0.59147 0.07618 0.1626 0.0
C131 C 0.60865 0.0979 0.14659 0.0
C132 C 0.52758 0.03642 0.13831 0.0
H133 H 0.49586 0.01383 0.13468 0.0
C134 C 0.54467 0.05757 0.12246 0.0
H135 H 0.61025 0.08358 0.1779 0.0
C136 C 0.58482 0.08793 0.12648 0.0
H137 H 0.59706 0.10419 0.11398 0.0
H138 H 0.52645 0.05063 0.10703 0.0
H139 H 0.55414 0.57056 0.57002 0.0
C140 C 0.56067 0.5537 0.5626 0.0
C141 C 0.57603 0.54164 0.5759 0.0
C142 C 0.55198 0.54274 0.53986 0.0
H143 H 0.59356 0.50848 0.57648 0.0
C144 C 0.58336 0.51899 0.56621 0.0
C145 C 0.57446 0.50749 0.54354 0.0
C146 C 0.55913 0.51977 0.53049 0.0
C147 C 0.53244 0.55287 0.52594 0.0
H148 H 0.55236 0.51112 0.51297 0.0
C149 C 0.54734 0.5882 0.52793 0.0
C150 C 0.52887 0.5974 0.51424 0.0
C151 C 0.49842 0.52678 0.51044 0.0
H152 H 0.48597 0.49936 0.50878 0.0
C153 C 0.47968 0.53565 0.49714 0.0
H154 H 0.57392 0.60855 0.53962 0.0
C155 C 0.49473 0.57064 0.49896 0.0
H156 H 0.47933 0.57669 0.48851 0.0
H157 H 0.45332 0.5153 0.48536 0.0
H158 H 0.11645 0.55157 0.88874 0.0
C159 C 0.09175 0.54969 0.88078 0.0
C160 C 0.06396 0.54735 0.89355 0.0
C161 C 0.08953 0.55195 0.85849 0.0
H162 H 1.01114 0.54405 0.89437 0.0
C163 C 1.03218 0.54604 0.88412 0.0
C164 C 1.02694 0.5476 0.86206 0.0
C165 C 0.05622 0.55081 0.84924 0.0
C166 C 0.12391 0.55854 0.84595 0.0
H167 H 0.05235 0.55175 0.83216 0.0
C168 C 0.15117 0.55066 0.85198 0.0
C169 C 0.18362 0.55926 0.8397 0.0
C170 C 0.13134 0.57556 0.82788 0.0
H171 H 0.11374 0.58355 0.82282 0.0
C172 C 0.16261 0.58418 0.81624 0.0
H173 H 0.14686 0.53742 0.86567 0.0
C174 C 0.18808 0.57634 0.82198 0.0
H175 H 0.21213 0.58426 0.81238 0.0
H176 H 0.16749 0.59761 0.80255 0.0
H177 H 0.05549 0.54426 0.43154 0.0
C178 C 0.08432 0.57008 0.43701 0.0
C179 C 0.10633 0.59023 0.42124 0.0
C180 C 0.09846 0.58374 0.4595 0.0
H181 H 0.15961 0.64014 0.41585 0.0
C182 C 0.14249 0.62463 0.42799 0.0
C183 C 0.15739 0.63921 0.45013 0.0
C184 C 0.13594 0.61828 0.46578 0.0
C185 C 0.07326 0.56299 0.47632 0.0
H186 H 0.1483 0.62948 0.48281 0.0
C187 C 0.04498 0.52543 0.47226 0.0
C188 C 1.02131 0.50682 0.48826 0.0
C189 C 0.0764 0.58103 0.49662 0.0
H190 H 0.09586 0.60954 0.5003 0.0
C191 C 0.0536 0.56265 0.51249 0.0
H192 H 1.04159 0.51045 0.45697 0.0
C193 C 1.02643 0.52593 0.50843 0.0
H194 H 1.0085 0.51241 0.52093 0.0
H195 H 0.05655 0.57704 0.52797 0.0
H196 H 0.58896 0.02352 0.75236 0.0
C197 C 0.59527 0.04763 0.76034 0.0
C198 C 0.60835 0.07513 0.74859 0.0
C199 C 0.58868 0.05065 0.78206 0.0
H200 H 0.62316 0.12624 0.7494 0.0
C201 C 0.61503 0.10581 0.75876 0.0
C202 C 0.60798 0.10902 0.78029 0.0
C203 C 0.5956 0.08164 0.79191 0.0
C204 C 0.57188 0.0208 0.79417 0.0
H205 H 0.59078 0.08429 0.80866 0.0
C206 C 0.58679 1.00164 0.79388 0.0
C207 C 0.57195 0.97489 0.80656 0.0
C208 C 0.54094 0.01181 0.8066 0.0
H209 H 0.52818 0.02543 0.80677 0.0
C210 C 0.5259 0.98504 0.8189 0.0
H211 H 0.61075 0.00831 0.7845 0.0
C212 C 0.54146 0.96686 0.81904 0.0
H213 H 0.52938 0.94618 0.82876 0.0
H214 H 0.50216 0.97843 0.82842 0.0
H215 H 0.64297 0.61222 0.11887 0.0
C216 C 0.64231 0.59257 0.12597 0.0
C217 C 0.63714 0.5646 0.11248 0.0
C218 C 0.64723 0.59582 0.14871 0.0
H219 H 0.63356 0.5184 0.11213 0.0
C220 C 0.63577 0.5392 0.12224 0.0
C221 C 0.63919 0.54142 0.14505 0.0
C222 C 0.64495 0.56997 0.15811 0.0
C223 C 0.65473 0.62634 0.1627 0.0
H224 H 0.64722 0.57205 0.17568 0.0
C225 C 0.62847 0.63435 0.15938 0.0
C226 C 0.63452 0.66273 0.17288 0.0
C227 C 0.68769 0.64722 0.17957 0.0
H228 H 0.70842 0.64153 0.18237 0.0
C229 C 0.69432 0.67584 0.19281 0.0
H230 H 0.60228 0.61742 0.14683 0.0
C231 C 0.66783 0.68354 0.18958 0.0
H232 H 0.67327 0.70561 0.20018 0.0
H233 H 0.71988 0.69193 0.20573 0.0
C234 C 0.31187 0.60475 0.13537 0.0
C235 C 0.28444 0.56815 0.13509 0.0
C236 C 0.3534 0.62314 0.1408 0.0
C237 C 0.42484 0.61638 0.17041 0.0
H238 H 0.5024 0.68172 0.13554 0.0
C239 C 0.58923 0.67356 0.18879 0.0
C240 C 0.60398 0.66832 0.17041 0.0
C241 C 0.555 0.6717 0.18627 0.0
C242 C 0.48111 0.66374 0.14552 0.0
H243 H 0.27912 0.5219 0.13924 0.0
H244 H 0.35135 0.55392 0.14879 0.0
H245 H 0.43123 0.65569 0.12701 0.0
H246 H 0.59712 0.6607 0.1351 0.0
H247 H 0.53683 0.65645 0.13067 0.0
H248 H 0.47379 0.62275 0.18823 0.0
C249 C 0.34076 0.56853 0.14526 0.0
C250 C 0.44048 0.64903 0.14072 0.0
C251 C 0.29941 0.5502 0.13977 0.0
C252 C 0.58593 0.66418 0.14955 0.0
C253 C 0.55166 0.66219 0.14703 0.0
C254 C 0.46529 0.63106 0.17522 0.0
C255 C 0.36813 0.60524 0.14615 0.0
C256 C 0.41182 0.62439 0.15273 0.0
C257 C 0.53484 0.66444 0.16534 0.0
C258 C 0.49372 0.65417 0.16248 0.0
H259 H 0.30118 0.61935 0.13203 0.0
H260 H 0.37388 0.65145 0.1414 0.0
H261 H 0.40347 0.5979 0.18017 0.0
H262 H 0.60246 0.67679 0.20508 0.0
H263 H 0.54313 0.67415 0.2007 0.0
C264 C 0.70708 0.20179 0.47122 0.0
C265 C 0.70826 0.18154 0.48521 0.0
C266 C 0.74174 0.23594 0.47017 0.0
C267 C 0.85464 0.29729 0.4853 0.0
H268 H 0.84367 0.36808 0.47432 0.0
C269 C 0.98856 0.44784 0.49946 0.0
C270 C 0.98986 0.46763 0.48419 0.0
C271 C 0.95568 0.41198 0.49775 0.0
C272 C 0.84725 0.34852 0.47712 0.0
H273 H 0.74711 0.18186 0.50934 0.0
H274 H 0.80714 0.24177 0.50815 0.0
H275 H 0.78366 0.30859 0.47603 0.0
H276 H 0.95806 0.46501 0.45482 0.0
H277 H 0.9002 0.40223 0.45189 0.0
H278 H 0.91856 0.33794 0.48715 0.0
C279 C 0.77969 0.23097 0.49745 0.0
C280 C 0.81272 0.31421 0.47807 0.0
C281 C 0.74506 0.19657 0.49829 0.0
C282 C 0.95809 0.45037 0.4667 0.0
C283 C 0.92479 0.41455 0.46518 0.0
C284 C 0.88922 0.33176 0.48463 0.0
C285 C 0.77868 0.25121 0.4833 0.0
C286 C 0.81577 0.28797 0.4822 0.0
C287 C 0.92286 0.39505 0.48091 0.0
C288 C 0.886 0.35785 0.48055 0.0
H289 H 0.67943 0.19105 0.46072 0.0
H290 H 0.73957 0.2501 0.45874 0.0
H291 H 0.8585 0.27791 0.48807 0.0
H292 H 1.01255 0.46046 0.51315 0.0
H293 H 0.95514 0.39791 0.51022 0.0
C294 C 0.62781 0.7555 0.80062 0.0
C295 C 0.64324 0.75489 0.82089 0.0
C296 C 0.62305 0.78111 0.79845 0.0
C297 C 0.60864 0.83953 0.83018 0.0
H298 H 0.64362 0.89125 0.78208 0.0
C299 C 0.6012 0.95256 0.82744 0.0
C300 C 0.58798 0.95518 0.80725 0.0
C301 C 0.61157 0.9305 0.82859 0.0
C302 C 0.63325 0.87678 0.79548 0.0
H303 H 0.66543 0.78043 0.85479 0.0
H304 H 0.6569 0.82497 0.85102 0.0
H305 H 0.6534 0.84718 0.78489 0.0
H306 H 0.57647 0.93784 0.77236 0.0
H307 H 0.59356 0.89833 0.77428 0.0
H308 H 0.58751 0.8681 0.84057 0.0
C309 C 0.64856 0.8057 0.83681 0.0
C310 C 0.63894 0.85159 0.79709 0.0
C311 C 0.65372 0.78037 0.83893 0.0
C312 C 0.58684 0.93638 0.78811 0.0
C313 C 0.59669 0.91383 0.78925 0.0
C314 C 0.6026 0.86438 0.82847 0.0
C315 C 0.63315 0.80635 0.81656 0.0
C316 C 0.62687 0.83285 0.81454 0.0
C317 C 0.6083 0.90999 0.80958 0.0
C318 C 0.61505 0.88357 0.81119 0.0
H319 H 0.61981 0.73639 0.7864 0.0
H320 H 0.61083 0.78081 0.78268 0.0
H321 H 0.59838 0.82508 0.8436 0.0
H322 H 0.60279 0.96715 0.84242 0.0
H323 H 0.62151 0.9291 0.84447 0.0
C324 C 0.79088 0.42704 0.1937 0.0
C325 C 0.82215 0.46079 0.20574 0.0
C326 C 0.75069 0.414 0.19223 0.0
C327 C 0.69006 0.42171 0.17329 0.0
H328 H 0.65221 0.45659 0.21494 0.0
C329 C 0.66461 0.52612 0.17497 0.0
C330 C 0.63903 0.51515 0.15533 0.0
C331 C 0.66698 0.50241 0.18396 0.0
C332 C 0.66162 0.4459 0.20312 0.0
H333 H 0.83487 0.50518 0.22785 0.0
H334 H 0.76572 0.48258 0.22553 0.0
H335 H 0.69407 0.44139 0.22799 0.0
H336 H 0.5942 0.46981 0.1304 0.0
H337 H 0.60008 0.42867 0.14569 0.0
H338 H 0.66064 0.42914 0.14849 0.0
C339 C 0.77178 0.46594 0.21715 0.0
C340 C 0.68558 0.43722 0.21058 0.0
C341 C 0.81182 0.47908 0.21845 0.0
C342 C 0.61482 0.47938 0.14531 0.0
C343 C 0.61773 0.45568 0.15418 0.0
C344 C 0.66593 0.4302 0.16584 0.0
C345 C 0.74109 0.43435 0.20295 0.0
C346 C 0.70284 0.42795 0.19575 0.0
C347 C 0.64435 0.46717 0.17342 0.0
C348 C 0.65432 0.44508 0.18075 0.0
H349 H 0.79767 0.41172 0.18424 0.0
H350 H 0.72759 0.38926 0.18147 0.0
H351 H 0.70264 0.4145 0.16136 0.0
H352 H 0.6844 0.55349 0.18297 0.0
H353 H 0.68861 0.51235 0.19849 0.0
C354 C 0.48827 0.93965 0.48691 0.0
C355 C 0.48807 0.96309 0.47564 0.0
C356 C 0.45296 0.90486 0.48592 0.0
C357 C 0.34072 0.84829 0.4721 0.0
H358 H 0.34514 0.77082 0.469 0.0
C359 C 0.19864 0.70282 0.44598 0.0
C360 C 0.19461 0.67682 0.4564 0.0
C361 C 0.23425 0.73775 0.45038 0.0
C362 C 0.34339 0.79219 0.47017 0.0
H363 H 0.45034 0.9678 0.45421 0.0
H364 H 0.3893 0.90733 0.45218 0.0
H365 H 0.40757 0.83123 0.47212 0.0
H366 H 0.22483 0.6675 0.48001 0.0
H367 H 0.28745 0.72889 0.48777 0.0
H368 H 0.27656 0.80923 0.46977 0.0
C369 C 0.41649 0.91591 0.46217 0.0
C370 C 0.37927 0.82692 0.47195 0.0
C371 C 0.45171 0.95066 0.4632 0.0
C372 C 0.22693 0.68691 0.47177 0.0
C373 C 0.26291 0.722 0.47605 0.0
C374 C 0.30493 0.81362 0.47024 0.0
C375 C 0.41644 0.8925 0.47362 0.0
C376 C 0.37844 0.85548 0.47267 0.0
C377 C 0.2671 0.74785 0.46529 0.0
C378 C 0.30567 0.78501 0.46897 0.0
H379 H 0.51564 0.94824 0.49671 0.0
H380 H 0.45417 0.88786 0.49514 0.0
H381 H 0.33875 0.86951 0.47315 0.0
H382 H 0.17421 0.69603 0.43419 0.0
H383 H 0.23638 0.75671 0.4416 0.0
C384 C 0.54853 0.3173 0.84269 0.0
C385 C 0.57787 0.35295 0.84092 0.0
C386 C 0.55578 0.29305 0.83804 0.0
C387 C 0.61536 0.27707 0.80648 0.0
H388 H 0.58428 0.20713 0.84307 0.0
C389 C 0.64119 0.17392 0.78715 0.0
C390 C 0.60972 0.13931 0.78988 0.0
C391 C 0.64112 0.20189 0.79507 0.0
C392 C 0.5928 0.22626 0.83255 0.0
H393 H 0.63843 0.39107 0.8334 0.0
H394 H 0.65064 0.34852 0.82486 0.0
H395 H 0.57653 0.25215 0.85359 0.0
H396 H 0.55336 0.10692 0.80292 0.0
H397 H 0.55292 0.15534 0.81645 0.0
H398 H 0.63052 0.25068 0.78508 0.0
C399 C 0.62192 0.3394 0.82973 0.0
C400 C 0.58843 0.2521 0.83863 0.0
C401 C 0.61482 0.36373 0.83455 0.0
C402 C 0.57847 0.13337 0.80092 0.0
C403 C 0.57826 0.16122 0.80871 0.0
C404 C 0.61944 0.25105 0.8003 0.0
C405 C 0.59242 0.30376 0.83135 0.0
C406 C 0.59925 0.27757 0.82555 0.0
C407 C 0.60941 0.19583 0.80577 0.0
C408 C 0.60778 0.22503 0.81312 0.0
H409 H 0.51947 0.30784 0.84716 0.0
H410 H 0.53222 0.26567 0.83914 0.0
H411 H 0.62357 0.29612 0.79594 0.0
H412 H 0.66585 0.17935 0.77886 0.0
H413 H 0.66591 0.22826 0.79279 0.0
C414 C 0.62396 0.89528 0.53415 0.0
C415 C 0.62016 0.90387 0.51387 0.0
C416 C 0.61662 0.86332 0.53531 0.0
C417 C 0.61278 0.79329 0.50246 0.0
H418 H 0.54976 0.73667 0.54501 0.0
C419 C 0.54671 0.64795 0.49628 0.0
C420 C 0.54495 0.6347 0.51549 0.0
C421 C 0.55919 0.6821 0.49718 0.0
C422 C 0.56798 0.75241 0.53326 0.0
H423 H 0.60581 0.88561 0.4789 0.0
H424 H 0.59258 0.82975 0.48093 0.0
H425 H 0.56434 0.79344 0.54444 0.0
H426 H 0.55592 0.64739 0.5508 0.0
H427 H 0.57848 0.7075 0.55241 0.0
H428 H 0.61636 0.75235 0.49119 0.0
C429 C 0.60153 0.84784 0.49594 0.0
C430 C 0.57625 0.78492 0.5329 0.0
C431 C 0.60865 0.87967 0.49479 0.0
C432 C 0.55709 0.65686 0.5357 0.0
C433 C 0.56959 0.69115 0.53661 0.0
C434 C 0.60466 0.76089 0.50286 0.0
C435 C 0.60558 0.83932 0.51621 0.0
C436 C 0.5983 0.80552 0.51731 0.0
C437 C 0.57043 0.70406 0.51734 0.0
C438 C 0.58168 0.73978 0.51806 0.0
H439 H 0.63244 0.91321 0.54916 0.0
H440 H 0.62022 0.85765 0.55116 0.0
H441 H 0.63055 0.80884 0.49052 0.0
H442 H 0.53813 0.63178 0.48044 0.0
H443 H 0.55902 0.69095 0.48201 0.0
C444 C 0.7495 0.57963 0.8391 0.0
C445 C 0.7113 0.55136 0.84392 0.0
C446 C 0.78285 0.57906 0.83967 0.0
C447 C 0.81135 0.51752 0.84299 0.0
H448 H 0.92104 0.60497 0.85303 0.0
C449 C 0.95118 0.51797 0.85852 0.0
C450 C 0.99018 0.54557 0.85415 0.0
C451 C 0.91803 0.51851 0.85592 0.0
C452 C 0.89082 0.57999 0.84992 0.0
H453 H 0.68015 0.49995 0.85324 0.0
H454 H 0.73718 0.49902 0.85451 0.0
H455 H 0.86438 0.60627 0.85173 0.0
H456 H 1.02309 0.59605 0.84348 0.0
H457 H 0.96567 0.59686 0.83846 0.0
H458 H 0.8377 0.49123 0.84124 0.0
C459 C 0.74175 0.52186 0.84989 0.0
C460 C 0.85756 0.58073 0.84916 0.0
C461 C 0.70843 0.52245 0.84932 0.0
C462 C 0.99387 0.57367 0.84658 0.0
C463 C 0.96055 0.57437 0.84408 0.0
C464 C 0.84455 0.5168 0.84379 0.0
C465 C 0.78017 0.55016 0.8451 0.0
C466 C 0.81663 0.5495 0.84575 0.0
C467 C 0.92161 0.54695 0.84896 0.0
C468 C 0.88545 0.54799 0.84738 0.0
H469 H 0.75383 0.60255 0.83478 0.0
H470 H 0.81079 0.60149 0.83548 0.0
H471 H 0.78122 0.49248 0.83984 0.0
H472 H 0.94651 0.49605 0.86482 0.0
H473 H 0.88973 0.49684 0.86031 0.0
C474 C 0.16262 0.66228 0.17156 0.0
C475 C 0.15848 0.63411 0.15908 0.0
C476 C 0.19685 0.6973 0.17211 0.0
C477 C 0.30347 0.7529 0.16157 0.0
H478 H 0.28979 0.82479 0.16347 0.0
C479 C 0.43825 0.9016 0.16265 0.0
C480 C 0.43932 0.9258 0.17785 0.0
C481 C 0.40392 0.86575 0.15814 0.0
C482 C 0.29427 0.80513 0.16309 0.0
H483 H 0.18769 0.62107 0.13742 0.0
H484 H 0.24731 0.68223 0.13827 0.0
H485 H 0.23075 0.76307 0.16011 0.0
H486 H 0.40448 0.93151 0.19949 0.0
H487 H 0.34519 0.86957 0.19174 0.0
H488 H 0.36719 0.79526 0.16471 0.0
C489 C 0.22413 0.67715 0.14782 0.0
C490 C 0.26031 0.76962 0.16121 0.0
C491 C 0.18978 0.64201 0.14725 0.0
C492 C 0.40486 0.91354 0.18786 0.0
C493 C 0.37063 0.87798 0.18325 0.0
C494 C 0.33753 0.78852 0.16341 0.0
C495 C 0.22806 0.70534 0.16018 0.0
C496 C 0.26438 0.74299 0.16079 0.0
C497 C 0.36971 0.85344 0.1685 0.0
C498 C 0.33343 0.81519 0.16456 0.0
H499 H 0.13936 0.65737 0.18098 0.0
H500 H 0.19899 0.71811 0.18216 0.0
H501 H 0.30794 0.73327 0.16147 0.0
H502 H 0.46432 0.91017 0.15473 0.0
H503 H 0.40416 0.84768 0.14655 0.0
C504 C 0.60073 0.27197 0.49038 0.0
C505 C 0.56415 0.24091 0.4789 0.0
C506 C 0.60519 0.30289 0.49597 0.0
C507 C 0.5629 0.34721 0.48205 0.0
H508 H 0.60848 0.39808 0.54146 0.0
C509 C 0.54625 0.45097 0.51851 0.0
C510 C 0.57784 0.4803 0.53381 0.0
C511 C 0.54774 0.4239 0.51057 0.0
C512 C 0.59634 0.38463 0.52469 0.0
H513 H 0.50359 0.21833 0.46431 0.0
H514 H 0.51167 0.27236 0.47375 0.0
H515 H 0.60546 0.34705 0.52981 0.0
H516 H 0.63644 0.50478 0.55222 0.0
H517 H 0.63945 0.45779 0.5381 0.0
H518 H 0.55374 0.3847 0.47688 0.0
C519 C 0.537 0.27281 0.47827 0.0
C520 C 0.59453 0.35529 0.51804 0.0
C521 C 0.53243 0.24183 0.47282 0.0
C522 C 0.61145 0.48233 0.5406 0.0
C523 C 0.61306 0.45533 0.53256 0.0
C524 C 0.56497 0.3767 0.48865 0.0
C525 C 0.5733 0.3036 0.49006 0.0
C526 C 0.57735 0.33599 0.49672 0.0
C527 C 0.58097 0.42552 0.51765 0.0
C528 C 0.58125 0.39555 0.51015 0.0
H529 H 0.62607 0.27248 0.495 0.0
H530 H 0.63371 0.32633 0.50482 0.0
H531 H 0.55004 0.33319 0.46542 0.0
H532 H 0.51962 0.44831 0.51322 0.0
H533 H 0.52213 0.40113 0.49942 0.0
C534 C 0.46271 0.52784 0.85713 0.0
C535 C 0.49611 0.55108 0.8465 0.0
C536 C 0.42936 0.5283 0.85767 0.0
C537 C 0.3762 0.5591 0.82958 0.0
H538 H 0.3187 0.53772 0.87939 0.0
C539 C 0.22317 0.5387 0.82538 0.0
C540 C 0.21383 0.55147 0.84352 0.0
C541 C 0.2563 0.53809 0.82678 0.0
C542 C 0.33418 0.5439 0.86525 0.0
H543 H 0.51852 0.59323 0.82795 0.0
H544 H 0.46095 0.59361 0.82849 0.0
H545 H 0.37698 0.53817 0.87957 0.0
H546 H 0.23382 0.57255 0.87803 0.0
H547 H 0.29057 0.57029 0.88075 0.0
H548 H 0.33343 0.56455 0.81514 0.0
C549 C 0.46037 0.57477 0.83658 0.0
C550 C 0.36795 0.54388 0.86526 0.0
C551 C 0.49404 0.57471 0.83635 0.0
C552 C 0.23875 0.56197 0.86359 0.0
C553 C 0.27197 0.56094 0.86507 0.0
C554 C 0.34212 0.55852 0.82941 0.0
C555 C 0.42695 0.55162 0.84729 0.0
C556 C 0.39012 0.55157 0.84743 0.0
C557 C 0.28236 0.54984 0.84652 0.0
C558 C 0.31994 0.55089 0.84721 0.0
H559 H 0.46229 0.50908 0.86523 0.0
H560 H 0.40488 0.50962 0.86599 0.0
H561 H 0.39131 0.56495 0.8153 0.0
H562 H 0.20527 0.52998 0.80952 0.0
H563 H 0.26154 0.5284 0.81205 0.0
C564 C 0.91417 0.40743 0.16613 0.0
C565 C 0.94111 0.41441 0.1512 0.0
C566 C 0.87982 0.37281 0.16656 0.0
C567 C 0.81036 0.2837 0.1328 0.0
H568 H 0.78011 0.25232 0.18806 0.0
C569 C 0.67677 0.13863 0.13495 0.0
C570 C 0.65085 0.13168 0.15045 0.0
C571 C 0.71384 0.17227 0.13628 0.0
C572 C 0.78774 0.26065 0.17246 0.0
H573 H 0.95253 0.39005 0.12487 0.0
H574 H 0.89244 0.3297 0.12551 0.0
H575 H 0.84046 0.31249 0.18755 0.0
H576 H 0.64414 0.15437 0.17991 0.0
H577 H 0.7086 0.21345 0.18212 0.0
H578 H 0.7574 0.23246 0.11762 0.0
C579 C 0.89793 0.35113 0.13689 0.0
C580 C 0.82249 0.29524 0.17218 0.0
C581 C 0.93251 0.38577 0.13657 0.0
C582 C 0.66369 0.15884 0.16788 0.0
C583 C 0.70071 0.19275 0.16908 0.0
C584 C 0.77549 0.24928 0.13307 0.0
C585 C 0.8712 0.34415 0.15196 0.0
C586 C 0.83432 0.30722 0.15233 0.0
C587 C 0.72593 0.20022 0.15297 0.0
C588 C 0.76362 0.23708 0.15289 0.0
H589 H 0.91963 0.42874 0.17764 0.0
H590 H 0.8597 0.36856 0.17819 0.0
H591 H 0.81808 0.29214 0.11722 0.0
H592 H 0.66778 0.11815 0.1214 0.0
H593 H 0.73272 0.17645 0.12391 0.0
C594 C 1.03083 0.50614 0.08485 0.0
C595 C 1.03187 0.53277 0.09701 0.0
C596 C 1.03797 0.50743 0.06314 0.0
C597 C 0.08298 0.56988 0.02382 0.0
H598 H 1.01931 0.48473 0.98 0.0
C599 C 0.06869 0.57186 0.93194 0.0
C600 C 0.06842 0.54762 0.91735 0.0
C601 C 0.06892 0.57041 0.95417 0.0
C602 C 1.03778 0.50867 0.9921 0.0
H603 H 1.04041 0.5812 0.09594 0.0
H604 H 0.0518 0.58304 0.05807 0.0
H605 H 1.00926 0.48085 0.0181 0.0
H606 H 0.06917 0.50337 0.91459 0.0
H607 H 0.06929 0.50057 0.95371 0.0
H608 H 0.11064 0.59778 -0.00229 0.0
C609 C 0.04648 0.56157 0.06532 0.0
C610 C 1.03203 0.50647 0.01397 0.0
C611 C 1.03955 0.56036 0.08699 0.0
C612 C 0.06953 0.52243 0.92554 0.0
C613 C 0.06927 0.52068 0.94784 0.0
C614 C 0.08854 0.57208 0.00198 0.0
C615 C 0.04614 0.53531 0.05312 0.0
C616 C 0.05407 0.53714 0.03006 0.0
C617 C 0.06856 0.54447 0.96236 0.0
C618 C 0.06556 0.54159 0.98581 0.0
H619 H 1.02506 0.48458 0.09219 0.0
H620 H 1.03779 0.4869 0.05434 0.0
H621 H 0.10125 0.59397 0.0358 0.0
H622 H 0.068 0.59164 0.92605 0.0
H623 H 0.06798 0.5889 0.96485 0.0
C624 C 0.63637 0.07492 0.40878 0.0
C625 C 0.60541 0.06266 0.42167 0.0
C626 C 0.62895 0.07387 0.38647 0.0
C627 C 0.54515 0.02712 0.34078 0.0
H628 H 0.62345 0.102 0.31083 0.0
C629 C 0.50619 0.02111 0.25046 0.0
C630 C 0.53536 0.02852 0.2371 0.0
C631 C 0.51627 0.02974 0.27311 0.0
C632 C 0.60142 0.08078 0.31894 0.0
H633 H 0.54281 0.04068 0.42158 0.0
H634 H 0.52989 0.03907 0.38275 0.0
H635 H 0.63804 0.10813 0.35027 0.0
H636 H 0.59842 0.05246 0.23687 0.0
H637 H 0.61616 0.06731 0.27664 0.0
H638 H 0.50874 0.99949 0.30962 0.0
C639 C 0.55973 0.04895 0.38972 0.0
C640 C 0.60977 0.08427 0.34153 0.0
C641 C 0.56714 0.04999 0.41198 0.0
C642 C 0.57542 0.04659 0.24682 0.0
C643 C 0.58551 0.05507 0.26958 0.0
C644 C 0.53684 0.02363 0.31829 0.0
C645 C 0.5904 0.06053 0.37663 0.0
C646 C 0.58168 0.05745 0.3527 0.0
C647 C 0.55573 0.04577 0.28299 0.0
C648 C 0.56478 0.0504 0.30706 0.0
H649 H 0.6662 0.08493 0.41587 0.0
H650 H 0.65314 0.08268 0.37684 0.0
H651 H 0.52321 0.00562 0.34876 0.0
H652 H 0.47521 0.0077 0.24336 0.0
H653 H 0.49283 0.02304 0.28292 0.0
C654 C 0.54379 0.5183 0.76763 0.0
C655 C 0.57934 0.5313 0.7811 0.0
C656 C 0.54477 0.52365 0.74605 0.0
C657 C 0.61484 0.57571 0.707 0.0
H658 H 0.52378 0.49975 0.66416 0.0
C659 C 0.61478 0.55915 0.61317 0.0
C660 C 0.58023 0.54918 0.60001 0.0
C661 C 0.61632 0.56154 0.63581 0.0
C662 C 0.54922 0.52137 0.67597 0.0
H663 H 0.64393 0.56044 0.7828 0.0
H664 H 0.64557 0.56856 0.74481 0.0
H665 H 0.5233 0.49413 0.70239 0.0
H666 H 0.52071 0.53487 0.60023 0.0
H667 H 0.52328 0.53875 0.63977 0.0
H668 H 0.64129 0.60208 0.68008 0.0
C669 C 0.61697 0.55501 0.75097 0.0
C670 C 0.54894 0.51826 0.69796 0.0
C671 C 0.61605 0.55013 0.77271 0.0
C672 C 0.54787 0.54293 0.60998 0.0
C673 C 0.54919 0.54484 0.63256 0.0
C674 C 0.61535 0.57855 0.68489 0.0
C675 C 0.58126 0.54162 0.73728 0.0
C676 C 0.58169 0.5454 0.71383 0.0
C677 C 0.58309 0.55348 0.64565 0.0
C678 C 0.58247 0.55142 0.66919 0.0
H679 H 0.51515 0.50409 0.7738 0.0
H680 H 0.51679 0.51372 0.73627 0.0
H681 H 0.64034 0.59741 0.71872 0.0
H682 H 0.64016 0.56417 0.60588 0.0
H683 H 0.64274 0.5681 0.64551 0.0
C684 C 0.55426 0.05495 0.55247 0.0
C685 C 0.58835 0.07896 0.543 0.0
C686 C 0.55829 0.05173 0.5742 0.0
C687 C 0.63381 0.0763 0.62161 0.0
H688 H 0.5485 0.0575 0.65395 0.0
C689 C 0.64415 0.09775 0.71634 0.0
C690 C 0.61068 0.07065 0.72497 0.0
C691 C 0.64361 0.09588 0.69376 0.0
C692 C 0.57234 0.06236 0.64507 0.0
H693 H 0.65352 0.11809 0.54855 0.0
H694 H 0.66068 0.1139 0.58697 0.0
H695 H 0.54362 0.06126 0.61561 0.0
H696 H 0.55103 0.01987 0.71684 0.0
H697 H 0.54986 0.01685 0.67737 0.0
H698 H 0.66326 0.0791 0.65178 0.0
C699 C 0.63078 0.09675 0.57751 0.0
C700 C 0.56953 0.06438 0.623 0.0
C701 C 0.62675 0.09942 0.55555 0.0
C702 C 0.57738 0.04096 0.71063 0.0
C703 C 0.57658 0.03937 0.68808 0.0
C704 C 0.63694 0.07491 0.64388 0.0
C705 C 0.5965 0.07306 0.58721 0.0
C706 C 0.60006 0.07115 0.61086 0.0
C707 C 0.60931 0.06717 0.67945 0.0
C708 C 0.60607 0.06771 0.65575 0.0
H709 H 0.52433 0.03839 0.54303 0.0
H710 H 0.53126 0.0324 0.58074 0.0
H711 H 0.65769 0.08109 0.61283 0.0
H712 H 0.67019 0.1209 0.72707 0.0
H713 H 0.66914 0.11773 0.68752 0.0
C714 C 0.66211 0.58289 0.92027 0.0
C715 C 0.62728 0.57145 0.90671 0.0
C716 C 0.66041 0.57804 0.94199 0.0
C717 C 0.60982 0.57495 0.98709 0.0
H718 H 0.64791 0.52914 0.01267 0.0
C719 C 0.65625 0.59368 0.0793 0.0
C720 C 0.63431 0.5626 0.08834 0.0
C721 C 0.65289 0.59204 0.05675 0.0
C722 C 0.63703 0.54182 0.00564 0.0
H723 H 0.56334 0.54572 0.90496 0.0
H724 H 0.56076 0.53844 0.94326 0.0
H725 H 0.64675 0.53093 0.9734 0.0
H726 H 0.59188 0.50528 0.08035 0.0
H727 H 0.58781 0.50268 0.04084 0.0
H728 H 0.60172 0.58715 0.01943 0.0
C729 C 0.58914 0.5507 0.93696 0.0
C730 C 0.63652 0.54296 0.98332 0.0
C731 C 0.59064 0.55484 0.91512 0.0
C732 C 0.60969 0.52978 0.07409 0.0
C733 C 0.60707 0.52819 0.05147 0.0
C734 C 0.6112 0.57451 0.00946 0.0
C735 C 0.62403 0.56233 0.95056 0.0
C736 C 0.62301 0.55962 0.97391 0.0
C737 C 0.62832 0.55934 0.04269 0.0
C738 C 0.62495 0.55806 0.01889 0.0
H739 H 0.69065 0.59558 0.9141 0.0
H740 H 0.68773 0.58739 0.95225 0.0
H741 H 0.59952 0.58812 0.98018 0.0
H742 H 0.67643 0.61943 0.08959 0.0
H743 H 0.66993 0.61639 0.05025 0.0
C744 C 0.06589 0.49375 0.22465 0.0
C745 C 0.07506 0.52076 0.21344 0.0
C746 C 0.06366 0.49678 0.24701 0.0
C747 C 0.04997 0.54443 0.29104 0.0
H748 H 0.10202 0.52135 0.32962 0.0
C749 C 0.09364 0.59701 0.38326 0.0
C750 C 0.09202 0.5759 0.39755 0.0
C751 C 0.08505 0.5856 0.36074 0.0
C752 C 0.08664 0.52729 0.31906 0.0
H753 H 0.08984 0.57236 0.21678 0.0
H754 H 0.08606 0.57772 0.25571 0.0
H755 H 0.10054 0.51067 0.29032 0.0
H756 H 0.07836 0.52556 0.39945 0.0
H757 H 0.06279 0.50528 0.35993 0.0
H758 H 1.03664 0.56159 0.31975 0.0
C759 C 0.07994 0.55394 0.24725 0.0
C760 C 0.0859 0.52124 0.29652 0.0
C761 C 0.08236 0.55097 0.22498 0.0
C762 C 0.07977 0.54235 0.38883 0.0
C763 C 0.07127 0.53093 0.36621 0.0
C764 C 0.05063 0.55039 0.31354 0.0
C765 C 0.07042 0.52683 0.25853 0.0
C766 C 0.06826 0.53041 0.28229 0.0
C767 C 0.07457 0.55273 0.35189 0.0
C768 C 0.06969 0.54256 0.32787 0.0
H769 H 0.06003 0.47012 0.21611 0.0
H770 H 0.05605 0.47536 0.25521 0.0
H771 H 1.0354 0.5511 0.28048 0.0
H772 H 0.10255 0.62283 0.38952 0.0
H773 H 0.08826 0.60324 0.35024 0.0
loop_
_geom_bond_atom_site_label_1
_geom_bond_atom_site_label_2
_geom_bond_distance
_geom_bond_site_symmetry_2
_ccdc_geom_bond_type
Sm0 C2 2.846 . S
Sm0 O20 2.543 . S
Sm0 O21 2.450 . S
Sm0 O22 2.681 . S
Sm0 O23 2.464 . S
Sm0 O24 2.396 . S
Sm0 O28 2.386 . S
Sm0 O31 2.408 1_455 S
Sm1 C11 2.846 1_455 S
Sm1 O22 2.386 . S
Sm1 O25 2.408 . S
Sm1 O26 2.543 1_455 S
Sm1 O27 2.450 1_455 S
Sm1 O28 2.681 . S
Sm1 O29 2.464 . S
Sm1 O30 2.396 1_455 S
C2 Sm0 2.846 . S
C2 C3 1.506 . S
C2 O20 1.261 . S
C2 O21 1.242 . S
C3 C2 1.506 . S
C3 C4 1.358 . S
C3 C8 1.382 . S
C4 C3 1.358 . S
C4 C5 1.385 . S
C4 H32 0.930 . S
C5 C4 1.385 . S
C5 C6 1.395 . S
C5 H33 0.929 . S
C6 C5 1.395 . S
C6 C7 1.335 . S
C7 C6 1.335 . S
C7 C8 1.398 . S
C7 H34 0.930 . S
C8 C3 1.382 . S
C8 C7 1.398 . S
C8 H35 0.929 . S
C9 O22 1.271 . S
C9 O23 1.251 . S
C10 O24 1.252 . S
C10 O25 1.272 . S
C11 Sm1 2.846 1_655 S
C11 C12 1.506 . S
C11 O26 1.261 . S
C11 O27 1.242 . S
C12 C11 1.506 . S
C12 C13 1.358 . S
C12 C17 1.382 . S
C13 C12 1.358 . S
C13 C14 1.385 . S
C13 H36 0.930 . S
C14 C13 1.385 . S
C14 C15 1.395 . S
C14 H37 0.929 . S
C15 C14 1.395 . S
C15 C16 1.335 . S
C16 C15 1.335 . S
C16 C17 1.398 . S
C16 H38 0.930 . S
C17 C12 1.382 . S
C17 C16 1.398 . S
C17 H39 0.929 . S
C18 O28 1.271 . S
C18 O29 1.251 . S
C19 O30 1.252 . S
C19 O31 1.272 . S
O20 Sm0 2.543 . S
O20 C2 1.261 . S
O21 Sm0 2.450 . S
O21 C2 1.242 . S
O22 Sm0 2.681 . S
O22 Sm1 2.386 . S
O22 C9 1.271 . S
O23 Sm0 2.464 . S
O23 C9 1.251 . S
O24 Sm0 2.396 . S
O24 C10 1.252 . S
O25 Sm1 2.408 . S
O25 C10 1.272 . S
O26 Sm1 2.543 1_655 S
O26 C11 1.261 . S
O27 Sm1 2.450 1_655 S
O27 C11 1.242 . S
O28 Sm0 2.386 . S
O28 Sm1 2.681 . S
O28 C18 1.271 . S
O29 Sm1 2.464 . S
O29 C18 1.251 . S
O30 Sm1 2.396 1_655 S
O30 C19 1.252 . S
O31 Sm0 2.408 1_655 S
O31 C19 1.272 . S
H32 C4 0.930 . S
H33 C5 0.929 . S
H34 C7 0.930 . S
H35 C8 0.929 . S
H36 C13 0.930 . S
H37 C14 0.929 . S
H38 C16 0.930 . S
H39 C17 0.929 . S
Sm40 C42 2.846 1_545 S
Sm40 O60 2.543 1_545 S
Sm40 O61 2.450 1_545 S
Sm40 O62 2.681 . S
Sm40 O63 2.464 . S
Sm40 O64 2.396 1_545 S
Sm40 O68 2.386 . S
Sm40 O71 2.408 . S
Sm41 C51 2.846 . S
Sm41 O62 2.386 . S
Sm41 O65 2.408 . S
Sm41 O66 2.543 . S
Sm41 O67 2.450 . S
Sm41 O68 2.681 . S
Sm41 O69 2.464 . S
Sm41 O70 2.396 . S
C42 Sm40 2.846 1_565 S
C42 C43 1.506 . S
C42 O60 1.261 . S
C42 O61 1.242 . S
C43 C42 1.506 . S
C43 C44 1.358 . S
C43 C48 1.382 . S
C44 C43 1.358 . S
C44 C45 1.385 . S
C44 H72 0.930 . S
C45 C44 1.385 . S
C45 C46 1.395 . S
C45 H73 0.929 . S
C46 C45 1.395 . S
C46 C47 1.335 . S
C47 C46 1.335 . S
C47 C48 1.398 . S
C47 H74 0.930 . S
C48 C43 1.382 . S
C48 C47 1.398 . S
C48 H75 0.929 . S
C49 O62 1.271 . S
C49 O63 1.251 . S
C50 O64 1.252 . S
C50 O65 1.272 1_565 S
C51 Sm41 2.846 . S
C51 C52 1.506 . S
C51 O66 1.261 . S
C51 O67 1.242 . S
C52 C51 1.506 . S
C52 C53 1.358 . S
C52 C57 1.382 . S
C53 C52 1.358 . S
C53 C54 1.385 . S
C53 H76 0.930 . S
C54 C53 1.385 . S
C54 C55 1.395 . S
C54 H77 0.929 . S
C55 C54 1.395 . S
C55 C56 1.335 . S
C56 C55 1.335 . S
C56 C57 1.398 . S
C56 H78 0.930 . S
C57 C52 1.382 . S
C57 C56 1.398 . S
C57 H79 0.929 . S
C58 O68 1.271 . S
C58 O69 1.251 . S
C59 O70 1.252 . S
C59 O71 1.272 . S
O60 Sm40 2.543 1_565 S
O60 C42 1.261 . S
O61 Sm40 2.450 1_565 S
O61 C42 1.242 . S
O62 Sm40 2.681 . S
O62 Sm41 2.386 . S
O62 C49 1.271 . S
O63 Sm40 2.464 . S
O63 C49 1.251 . S
O64 Sm40 2.396 1_565 S
O64 C50 1.252 . S
O65 Sm41 2.408 . S
O65 C50 1.272 1_545 S
O66 Sm41 2.543 . S
O66 C51 1.261 . S
O67 Sm41 2.450 . S
O67 C51 1.242 . S
O68 Sm40 2.386 . S
O68 Sm41 2.681 . S
O68 C58 1.271 . S
O69 Sm41 2.464 . S
O69 C58 1.251 . S
O70 Sm41 2.396 . S
O70 C59 1.252 . S
O71 Sm40 2.408 . S
O71 C59 1.272 . S
H72 C44 0.930 . S
H73 C45 0.929 . S
H74 C47 0.930 . S
H75 C48 0.929 . S
H76 C53 0.930 . S
H77 C54 0.929 . S
H78 C56 0.930 . S
H79 C57 0.929 . S
Sm80 C82 2.846 . S
Sm80 O100 2.543 . S
Sm80 O101 2.450 . S
Sm80 O102 2.681 . S
Sm80 O103 2.464 . S
Sm80 O104 2.396 . S
Sm80 O108 2.386 . S
Sm80 O111 2.408 . S
Sm81 C91 2.846 . S
Sm81 O102 2.386 . S
Sm81 O105 2.408 . S
Sm81 O106 2.543 . S
Sm81 O107 2.450 . S
Sm81 O108 2.681 . S
Sm81 O109 2.464 . S
Sm81 O110 2.396 . S
C82 Sm80 2.846 . S
C82 C83 1.506 . S
C82 O100 1.261 . S
C82 O101 1.242 . S
C83 C82 1.506 . S
C83 C84 1.358 . S
C83 C88 1.382 . S
C84 C83 1.358 . S
C84 C85 1.385 . S
C84 H112 0.930 . S
C85 C84 1.385 . S
C85 C86 1.395 . S
C85 H113 0.929 . S
C86 C85 1.395 . S
C86 C87 1.335 . S
C87 C86 1.335 . S
C87 C88 1.398 . S
C87 H114 0.930 . S
C88 C83 1.382 . S
C88 C87 1.398 . S
C88 H115 0.929 . S
C89 O102 1.271 . S
C89 O103 1.251 . S
C90 O104 1.252 . S
C90 O105 1.272 . S
C91 Sm81 2.846 . S
C91 C92 1.506 . S
C91 O106 1.261 . S
C91 O107 1.242 . S
C92 C91 1.506 . S
C92 C93 1.358 . S
C92 C97 1.382 . S
C93 C92 1.358 . S
C93 C94 1.385 . S
C93 H116 0.930 . S
C94 C93 1.385 . S
C94 C95 1.395 . S
C94 H117 0.929 . S
C95 C94 1.395 . S
C95 C96 1.335 . S
C96 C95 1.335 . S
C96 C97 1.398 . S
C96 H118 0.930 . S
C97 C92 1.382 . S
C97 C96 1.398 . S
C97 H119 0.929 . S
C98 O108 1.271 . S
C98 O109 1.251 . S
C99 O110 1.252 . S
C99 O111 1.272 . S
O100 Sm80 2.543 . S
O100 C82 1.261 . S
O101 Sm80 2.450 . S
O101 C82 1.242 . S
O102 Sm80 2.681 . S
O102 Sm81 2.386 . S
O102 C89 1.271 . S
O103 Sm80 2.464 . S
O103 C89 1.251 . S
O104 Sm80 2.396 . S
O104 C90 1.252 . S
O105 Sm81 2.408 . S
O105 C90 1.272 . S
O106 Sm81 2.543 . S
O106 C91 1.261 . S
O107 Sm81 2.450 . S
O107 C91 1.242 . S
O108 Sm80 2.386 . S
O108 Sm81 2.681 . S
O108 C98 1.271 . S
O109 Sm81 2.464 . S
O109 C98 1.251 . S
O110 Sm81 2.396 . S
O110 C99 1.252 . S
O111 Sm80 2.408 . S
O111 C99 1.272 . S
H112 C84 0.930 . S
H113 C85 0.929 . S
H114 C87 0.930 . S
H115 C88 0.929 . S
H116 C93 0.930 . S
H117 C94 0.929 . S
H118 C96 0.930 . S
H119 C97 0.929 . S
H120 C121 0.949 . S
C121 H120 0.949 . S
C121 C122 1.395 . S
C121 C123 1.391 . S
C122 C121 1.395 . S
C122 C125 1.390 . S
C123 C121 1.391 . S
C123 C127 1.387 . S
C123 C128 1.491 . S
H124 C125 0.950 1_565 S
C125 C122 1.390 . S
C125 H124 0.950 1_545 S
C125 C126 1.378 . S
C126 C125 1.378 . S
C126 C127 1.409 . S
C127 C123 1.387 . S
C127 C126 1.409 . S
C127 H129 0.951 . S
C128 C123 1.491 . S
C128 C130 1.382 . S
C128 C132 1.404 . S
H129 C127 0.951 . S
C130 C128 1.382 . S
C130 C131 1.390 . S
C130 H135 0.949 . S
C131 C130 1.390 . S
C131 C136 1.399 . S
C132 C128 1.404 . S
C132 H133 0.950 . S
C132 C134 1.375 . S
H133 C132 0.950 . S
C134 C132 1.375 . S
C134 C136 1.382 . S
C134 H138 0.950 . S
H135 C130 0.949 . S
C136 C131 1.399 . S
C136 C134 1.382 . S
C136 H137 0.952 . S
H137 C136 0.952 . S
H138 C134 0.950 . S
H139 C140 0.949 . S
C140 H139 0.949 . S
C140 C141 1.395 . S
C140 C142 1.391 . S
C141 C140 1.395 . S
C141 C144 1.390 . S
C142 C140 1.391 . S
C142 C146 1.387 . S
C142 C147 1.491 . S
H143 C144 0.950 . S
C144 C141 1.390 . S
C144 H143 0.950 . S
C144 C145 1.378 . S
C145 C144 1.378 . S
C145 C146 1.409 . S
C146 C142 1.387 . S
C146 C145 1.409 . S
C146 H148 0.951 . S
C147 C142 1.491 . S
C147 C149 1.382 . S
C147 C151 1.404 . S
H148 C146 0.951 . S
C149 C147 1.382 . S
C149 C150 1.390 . S
C149 H154 0.949 . S
C150 C149 1.390 . S
C150 C155 1.399 . S
C151 C147 1.404 . S
C151 H152 0.950 . S
C151 C153 1.375 . S
H152 C151 0.950 . S
C153 C151 1.375 . S
C153 C155 1.382 . S
C153 H157 0.950 . S
H154 C149 0.949 . S
C155 C150 1.399 . S
C155 C153 1.382 . S
C155 H156 0.952 . S
H156 C155 0.952 . S
H157 C153 0.950 . S
H158 C159 0.949 . S
C159 H158 0.949 . S
C159 C160 1.395 . S
C159 C161 1.391 . S
C160 C159 1.395 . S
C160 C163 1.390 . S
C161 C159 1.391 . S
C161 C165 1.387 . S
C161 C166 1.491 . S
H162 C163 0.950 . S
C163 C160 1.390 . S
C163 H162 0.950 . S
C163 C164 1.378 . S
C164 C163 1.378 . S
C164 C165 1.409 . S
C165 C161 1.387 . S
C165 C164 1.409 . S
C165 H167 0.951 . S
C166 C161 1.491 . S
C166 C168 1.382 . S
C166 C170 1.404 . S
H167 C165 0.951 . S
C168 C166 1.382 . S
C168 C169 1.390 . S
C168 H173 0.949 . S
C169 C168 1.390 . S
C169 C174 1.399 . S
C170 C166 1.404 . S
C170 H171 0.950 . S
C170 C172 1.375 . S
H171 C170 0.950 . S
C172 C170 1.375 . S
C172 C174 1.382 . S
C172 H176 0.950 . S
H173 C168 0.949 . S
C174 C169 1.399 . S
C174 C172 1.382 . S
C174 H175 0.952 . S
H175 C174 0.952 . S
H176 C172 0.950 . S
H177 C178 0.949 . S
C178 H177 0.949 . S
C178 C179 1.395 1_655 S
C178 C180 1.391 1_655 S
C179 C178 1.395 1_455 S
C179 C182 1.390 . S
C180 C178 1.391 1_455 S
C180 C184 1.387 . S
C180 C185 1.491 1_455 S
H181 C182 0.950 . S
C182 C179 1.390 . S
C182 H181 0.950 . S
C182 C183 1.378 . S
C183 C182 1.378 . S
C183 C184 1.409 . S
C184 C180 1.387 . S
C184 C183 1.409 . S
C184 H186 0.951 . S
C185 C180 1.491 1_655 S
C185 C187 1.382 . S
C185 C189 1.404 . S
H186 C184 0.951 . S
C187 C185 1.382 . S
C187 C188 1.390 . S
C187 H192 0.949 . S
C188 C187 1.390 . S
C188 C193 1.399 . S
C189 C185 1.404 . S
C189 H190 0.950 . S
C189 C191 1.375 . S
H190 C189 0.950 . S
C191 C189 1.375 . S
C191 C193 1.382 . S
C191 H195 0.950 . S
H192 C187 0.949 . S
C193 C188 1.399 . S
C193 C191 1.382 . S
C193 H194 0.952 . S
H194 C193 0.952 . S
H195 C191 0.950 . S
H196 C197 0.949 . S
C197 H196 0.949 . S
C197 C198 1.395 . S
C197 C199 1.391 . S
C198 C197 1.395 . S
C198 C201 1.390 . S
C199 C197 1.391 . S
C199 C203 1.387 . S
C199 C204 1.491 . S
H200 C201 0.950 . S
C201 C198 1.390 . S
C201 H200 0.950 . S
C201 C202 1.378 . S
C202 C201 1.378 . S
C202 C203 1.409 . S
C203 C199 1.387 . S
C203 C202 1.409 . S
C203 H205 0.951 . S
C204 C199 1.491 . S
C204 C206 1.382 1_545 S
C204 C208 1.404 1_545 S
H205 C203 0.951 . S
C206 C204 1.382 1_565 S
C206 C207 1.390 . S
C206 H211 0.949 . S
C207 C206 1.390 . S
C207 C212 1.399 . S
C208 C204 1.404 1_565 S
C208 H209 0.950 1_565 S
C208 C210 1.375 . S
H209 C208 0.950 1_545 S
C210 C208 1.375 . S
C210 C212 1.382 . S
C210 H214 0.950 . S
H211 C206 0.949 . S
C212 C207 1.399 . S
C212 C210 1.382 . S
C212 H213 0.952 . S
H213 C212 0.952 . S
H214 C210 0.950 . S
H215 C216 0.949 . S
C216 H215 0.949 . S
C216 C217 1.395 . S
C216 C218 1.391 . S
C217 C216 1.395 . S
C217 C220 1.390 . S
C218 C216 1.391 . S
C218 C222 1.387 . S
C218 C223 1.491 . S
H219 C220 0.950 . S
C220 C217 1.390 . S
C220 H219 0.950 . S
C220 C221 1.378 . S
C221 C220 1.378 . S
C221 C222 1.409 . S
C222 C218 1.387 . S
C222 C221 1.409 . S
C222 H224 0.951 . S
C223 C218 1.491 . S
C223 C225 1.382 . S
C223 C227 1.404 . S
H224 C222 0.951 . S
C225 C223 1.382 . S
C225 C226 1.390 . S
C225 H230 0.949 . S
C226 C225 1.390 . S
C226 C231 1.399 . S
C227 C223 1.404 . S
C227 H228 0.950 . S
C227 C229 1.375 . S
H228 C227 0.950 . S
C229 C227 1.375 . S
C229 C231 1.382 . S
C229 H233 0.950 . S
H230 C225 0.949 . S
C231 C226 1.399 . S
C231 C229 1.382 . S
C231 H232 0.952 . S
H232 C231 0.952 . S
H233 C229 0.950 . S
C234 C235 1.349 . S
C234 C236 1.327 . S
C234 H259 0.950 . S
C235 C234 1.349 . S
C235 C251 1.349 . S
C236 C234 1.327 . S
C236 C255 1.429 . S
C236 H260 0.950 . S
C237 C254 1.574 . S
C237 C256 1.368 . S
C237 H261 0.949 . S
H238 C242 0.949 . S
C239 C240 1.349 . S
C239 C241 1.327 . S
C239 H262 0.950 . S
C240 C239 1.349 . S
C240 C252 1.349 . S
C241 C239 1.327 . S
C241 C257 1.429 . S
C241 H263 0.950 . S
C242 H238 0.949 . S
C242 C250 1.574 . S
C242 C258 1.368 . S
H243 C251 0.950 . S
H244 C249 0.950 . S
H245 C250 0.949 . S
H246 C252 0.950 . S
H247 C253 0.950 . S
H248 C254 0.949 . S
C249 H244 0.950 . S
C249 C251 1.327 . S
C249 C255 1.429 . S
C250 C242 1.574 . S
C250 H245 0.949 . S
C250 C256 1.368 . S
C251 C235 1.349 . S
C251 H243 0.950 . S
C251 C249 1.327 . S
C252 C240 1.349 . S
C252 H246 0.950 . S
C252 C253 1.327 . S
C253 H247 0.950 . S
C253 C252 1.327 . S
C253 C257 1.429 . S
C254 C237 1.574 . S
C254 H248 0.949 . S
C254 C258 1.368 . S
C255 C236 1.429 . S
C255 C249 1.429 . S
C255 C256 1.523 . S
C256 C237 1.368 . S
C256 C250 1.368 . S
C256 C255 1.523 . S
C257 C241 1.429 . S
C257 C253 1.429 . S
C257 C258 1.523 . S
C258 C242 1.368 . S
C258 C254 1.368 . S
C258 C257 1.523 . S
H259 C234 0.950 . S
H260 C236 0.950 . S
H261 C237 0.949 . S
H262 C239 0.950 . S
H263 C241 0.950 . S
C264 C265 1.349 . S
C264 C266 1.327 . S
C264 H289 0.950 . S
C265 C264 1.349 . S
C265 C281 1.349 . S
C266 C264 1.327 . S
C266 C285 1.429 . S
C266 H290 0.950 . S
C267 C284 1.574 . S
C267 C286 1.368 . S
C267 H291 0.949 . S
H268 C272 0.949 . S
C269 C270 1.349 . S
C269 C271 1.327 . S
C269 H292 0.950 . S
C270 C269 1.349 . S
C270 C282 1.349 . S
C271 C269 1.327 . S
C271 C287 1.429 . S
C271 H293 0.950 . S
C272 H268 0.949 . S
C272 C280 1.574 . S
C272 C288 1.368 . S
H273 C281 0.950 . S
H274 C279 0.950 . S
H275 C280 0.949 . S
H276 C282 0.950 . S
H277 C283 0.950 . S
H278 C284 0.949 . S
C279 H274 0.950 . S
C279 C281 1.327 . S
C279 C285 1.429 . S
C280 C272 1.574 . S
C280 H275 0.949 . S
C280 C286 1.368 . S
C281 C265 1.349 . S
C281 H273 0.950 . S
C281 C279 1.327 . S
C282 C270 1.349 . S
C282 H276 0.950 . S
C282 C283 1.327 . S
C283 H277 0.950 . S
C283 C282 1.327 . S
C283 C287 1.429 . S
C284 C267 1.574 . S
C284 H278 0.949 . S
C284 C288 1.368 . S
C285 C266 1.429 . S
C285 C279 1.429 . S
C285 C286 1.523 . S
C286 C267 1.368 . S
C286 C280 1.368 . S
C286 C285 1.523 . S
C287 C271 1.429 . S
C287 C283 1.429 . S
C287 C288 1.523 . S
C288 C272 1.368 . S
C288 C284 1.368 . S
C288 C287 1.523 . S
H289 C264 0.950 . S
H290 C266 0.950 . S
H291 C267 0.949 . S
H292 C269 0.950 . S
H293 C271 0.950 . S
C294 C295 1.349 . S
C294 C296 1.327 . S
C294 H319 0.950 . S
C295 C294 1.349 . S
C295 C311 1.349 . S
C296 C294 1.327 . S
C296 C315 1.429 . S
C296 H320 0.950 . S
C297 C314 1.574 . S
C297 C316 1.368 . S
C297 H321 0.949 . S
H298 C302 0.949 . S
C299 C300 1.349 . S
C299 C301 1.327 . S
C299 H322 0.950 . S
C300 C299 1.349 . S
C300 C312 1.349 . S
C301 C299 1.327 . S
C301 C317 1.429 . S
C301 H323 0.950 . S
C302 H298 0.949 . S
C302 C310 1.574 . S
C302 C318 1.368 . S
H303 C311 0.950 . S
H304 C309 0.950 . S
H305 C310 0.949 . S
H306 C312 0.950 . S
H307 C313 0.950 . S
H308 C314 0.949 . S
C309 H304 0.950 . S
C309 C311 1.327 . S
C309 C315 1.429 . S
C310 C302 1.574 . S
C310 H305 0.949 . S
C310 C316 1.368 . S
C311 C295 1.349 . S
C311 H303 0.950 . S
C311 C309 1.327 . S
C312 C300 1.349 . S
C312 H306 0.950 . S
C312 C313 1.327 . S
C313 H307 0.950 . S
C313 C312 1.327 . S
C313 C317 1.429 . S
C314 C297 1.574 . S
C314 H308 0.949 . S
C314 C318 1.368 . S
C315 C296 1.429 . S
C315 C309 1.429 . S
C315 C316 1.523 . S
C316 C297 1.368 . S
C316 C310 1.368 . S
C316 C315 1.523 . S
C317 C301 1.429 . S
C317 C313 1.429 . S
C317 C318 1.523 . S
C318 C302 1.368 . S
C318 C314 1.368 . S
C318 C317 1.523 . S
H319 C294 0.950 . S
H320 C296 0.950 . S
H321 C297 0.949 . S
H322 C299 0.950 . S
H323 C301 0.950 . S
C324 C325 1.349 . S
C324 C326 1.327 . S
C324 H349 0.950 . S
C325 C324 1.349 . S
C325 C341 1.349 . S
C326 C324 1.327 . S
C326 C345 1.429 . S
C326 H350 0.950 . S
C327 C344 1.574 . S
C327 C346 1.368 . S
C327 H351 0.949 . S
H328 C332 0.949 . S
C329 C330 1.349 . S
C329 C331 1.327 . S
C329 H352 0.950 . S
C330 C329 1.349 . S
C330 C342 1.349 . S
C331 C329 1.327 . S
C331 C347 1.429 . S
C331 H353 0.950 . S
C332 H328 0.949 . S
C332 C340 1.574 . S
C332 C348 1.368 . S
H333 C341 0.950 . S
H334 C339 0.950 . S
H335 C340 0.949 . S
H336 C342 0.950 . S
H337 C343 0.950 . S
H338 C344 0.949 . S
C339 H334 0.950 . S
C339 C341 1.327 . S
C339 C345 1.429 . S
C340 C332 1.574 . S
C340 H335 0.949 . S
C340 C346 1.368 . S
C341 C325 1.349 . S
C341 H333 0.950 . S
C341 C339 1.327 . S
C342 C330 1.349 . S
C342 H336 0.950 . S
C342 C343 1.327 . S
C343 H337 0.950 . S
C343 C342 1.327 . S
C343 C347 1.429 . S
C344 C327 1.574 . S
C344 H338 0.949 . S
C344 C348 1.368 . S
C345 C326 1.429 . S
C345 C339 1.429 . S
C345 C346 1.523 . S
C346 C327 1.368 . S
C346 C340 1.368 . S
C346 C345 1.523 . S
C347 C331 1.429 . S
C347 C343 1.429 . S
C347 C348 1.523 . S
C348 C332 1.368 . S
C348 C344 1.368 . S
C348 C347 1.523 . S
H349 C324 0.950 . S
H350 C326 0.950 . S
H351 C327 0.949 . S
H352 C329 0.950 . S
H353 C331 0.950 . S
C354 C355 1.349 . S
C354 C356 1.327 . S
C354 H379 0.950 . S
C355 C354 1.349 . S
C355 C371 1.349 . S
C356 C354 1.327 . S
C356 C375 1.429 . S
C356 H380 0.950 . S
C357 C374 1.574 . S
C357 C376 1.368 . S
C357 H381 0.949 . S
H358 C362 0.949 . S
C359 C360 1.349 . S
C359 C361 1.327 . S
C359 H382 0.950 . S
C360 C359 1.349 . S
C360 C372 1.349 . S
C361 C359 1.327 . S
C361 C377 1.429 . S
C361 H383 0.950 . S
C362 H358 0.949 . S
C362 C370 1.574 . S
C362 C378 1.368 . S
H363 C371 0.950 . S
H364 C369 0.950 . S
H365 C370 0.949 . S
H366 C372 0.950 . S
H367 C373 0.950 . S
H368 C374 0.949 . S
C369 H364 0.950 . S
C369 C371 1.327 . S
C369 C375 1.429 . S
C370 C362 1.574 . S
C370 H365 0.949 . S
C370 C376 1.368 . S
C371 C355 1.349 . S
C371 H363 0.950 . S
C371 C369 1.327 . S
C372 C360 1.349 . S
C372 H366 0.950 . S
C372 C373 1.327 . S
C373 H367 0.950 . S
C373 C372 1.327 . S
C373 C377 1.429 . S
C374 C357 1.574 . S
C374 H368 0.949 . S
C374 C378 1.368 . S
C375 C356 1.429 . S
C375 C369 1.429 . S
C375 C376 1.523 . S
C376 C357 1.368 . S
C376 C370 1.368 . S
C376 C375 1.523 . S
C377 C361 1.429 . S
C377 C373 1.429 . S
C377 C378 1.523 . S
C378 C362 1.368 . S
C378 C374 1.368 . S
C378 C377 1.523 . S
H379 C354 0.950 . S
H380 C356 0.950 . S
H381 C357 0.949 . S
H382 C359 0.950 . S
H383 C361 0.950 . S
C384 C385 1.349 . S
C384 C386 1.327 . S
C384 H409 0.950 . S
C385 C384 1.349 . S
C385 C401 1.349 . S
C386 C384 1.327 . S
C386 C405 1.429 . S
C386 H410 0.950 . S
C387 C404 1.574 . S
C387 C406 1.368 . S
C387 H411 0.949 . S
H388 C392 0.949 . S
C389 C390 1.349 . S
C389 C391 1.327 . S
C389 H412 0.950 . S
C390 C389 1.349 . S
C390 C402 1.349 . S
C391 C389 1.327 . S
C391 C407 1.429 . S
C391 H413 0.950 . S
C392 H388 0.949 . S
C392 C400 1.574 . S
C392 C408 1.368 . S
H393 C401 0.950 . S
H394 C399 0.950 . S
H395 C400 0.949 . S
H396 C402 0.950 . S
H397 C403 0.950 . S
H398 C404 0.949 . S
C399 H394 0.950 . S
C399 C401 1.327 . S
C399 C405 1.429 . S
C400 C392 1.574 . S
C400 H395 0.949 . S
C400 C406 1.368 . S
C401 C385 1.349 . S
C401 H393 0.950 . S
C401 C399 1.327 . S
C402 C390 1.349 . S
C402 H396 0.950 . S
C402 C403 1.327 . S
C403 H397 0.950 . S
C403 C402 1.327 . S
C403 C407 1.429 . S
C404 C387 1.574 . S
C404 H398 0.949 . S
C404 C408 1.368 . S
C405 C386 1.429 . S
C405 C399 1.429 . S
C405 C406 1.523 . S
C406 C387 1.368 . S
C406 C400 1.368 . S
C406 C405 1.523 . S
C407 C391 1.429 . S
C407 C403 1.429 . S
C407 C408 1.523 . S
C408 C392 1.368 . S
C408 C404 1.368 . S
C408 C407 1.523 . S
H409 C384 0.950 . S
H410 C386 0.950 . S
H411 C387 0.949 . S
H412 C389 0.950 . S
H413 C391 0.950 . S
C414 C415 1.349 . S
C414 C416 1.327 . S
C414 H439 0.950 . S
C415 C414 1.349 . S
C415 C431 1.349 . S
C416 C414 1.327 . S
C416 C435 1.429 . S
C416 H440 0.950 . S
C417 C434 1.574 . S
C417 C436 1.368 . S
C417 H441 0.949 . S
H418 C422 0.949 . S
C419 C420 1.349 . S
C419 C421 1.327 . S
C419 H442 0.950 . S
C420 C419 1.349 . S
C420 C432 1.349 . S
C421 C419 1.327 . S
C421 C437 1.429 . S
C421 H443 0.950 . S
C422 H418 0.949 . S
C422 C430 1.574 . S
C422 C438 1.368 . S
H423 C431 0.950 . S
H424 C429 0.950 . S
H425 C430 0.949 . S
H426 C432 0.950 . S
H427 C433 0.950 . S
H428 C434 0.949 . S
C429 H424 0.950 . S
C429 C431 1.327 . S
C429 C435 1.429 . S
C430 C422 1.574 . S
C430 H425 0.949 . S
C430 C436 1.368 . S
C431 C415 1.349 . S
C431 H423 0.950 . S
C431 C429 1.327 . S
C432 C420 1.349 . S
C432 H426 0.950 . S
C432 C433 1.327 . S
C433 H427 0.950 . S
C433 C432 1.327 . S
C433 C437 1.429 . S
C434 C417 1.574 . S
C434 H428 0.949 . S
C434 C438 1.368 . S
C435 C416 1.429 . S
C435 C429 1.429 . S
C435 C436 1.523 . S
C436 C417 1.368 . S
C436 C430 1.368 . S
C436 C435 1.523 . S
C437 C421 1.429 . S
C437 C433 1.429 . S
C437 C438 1.523 . S
C438 C422 1.368 . S
C438 C434 1.368 . S
C438 C437 1.523 . S
H439 C414 0.950 . S
H440 C416 0.950 . S
H441 C417 0.949 . S
H442 C419 0.950 . S
H443 C421 0.950 . S
C444 C445 1.349 . S
C444 C446 1.327 . S
C444 H469 0.950 . S
C445 C444 1.349 . S
C445 C461 1.349 . S
C446 C444 1.327 . S
C446 C465 1.429 . S
C446 H470 0.950 . S
C447 C464 1.574 . S
C447 C466 1.368 . S
C447 H471 0.949 . S
H448 C452 0.949 . S
C449 C450 1.349 . S
C449 C451 1.327 . S
C449 H472 0.950 . S
C450 C449 1.349 . S
C450 C462 1.349 . S
C451 C449 1.327 . S
C451 C467 1.429 . S
C451 H473 0.950 . S
C452 H448 0.949 . S
C452 C460 1.574 . S
C452 C468 1.368 . S
H453 C461 0.950 . S
H454 C459 0.950 . S
H455 C460 0.949 . S
H456 C462 0.950 . S
H457 C463 0.950 . S
H458 C464 0.949 . S
C459 H454 0.950 . S
C459 C461 1.327 . S
C459 C465 1.429 . S
C460 C452 1.574 . S
C460 H455 0.949 . S
C460 C466 1.368 . S
C461 C445 1.349 . S
C461 H453 0.950 . S
C461 C459 1.327 . S
C462 C450 1.349 . S
C462 H456 0.950 . S
C462 C463 1.327 . S
C463 H457 0.950 . S
C463 C462 1.327 . S
C463 C467 1.429 . S
C464 C447 1.574 . S
C464 H458 0.949 . S
C464 C468 1.368 . S
C465 C446 1.429 . S
C465 C459 1.429 . S
C465 C466 1.523 . S
C466 C447 1.368 . S
C466 C460 1.368 . S
C466 C465 1.523 . S
C467 C451 1.429 . S
C467 C463 1.429 . S
C467 C468 1.523 . S
C468 C452 1.368 . S
C468 C464 1.368 . S
C468 C467 1.523 . S
H469 C444 0.950 . S
H470 C446 0.950 . S
H471 C447 0.949 . S
H472 C449 0.950 . S
H473 C451 0.950 . S
C474 C475 1.349 . S
C474 C476 1.327 . S
C474 H499 0.950 . S
C475 C474 1.349 . S
C475 C491 1.349 . S
C476 C474 1.327 . S
C476 C495 1.429 . S
C476 H500 0.950 . S
C477 C494 1.574 . S
C477 C496 1.368 . S
C477 H501 0.949 . S
H478 C482 0.949 . S
C479 C480 1.349 . S
C479 C481 1.327 . S
C479 H502 0.950 . S
C480 C479 1.349 . S
C480 C492 1.349 . S
C481 C479 1.327 . S
C481 C497 1.429 . S
C481 H503 0.950 . S
C482 H478 0.949 . S
C482 C490 1.574 . S
C482 C498 1.368 . S
H483 C491 0.950 . S
H484 C489 0.950 . S
H485 C490 0.949 . S
H486 C492 0.950 . S
H487 C493 0.950 . S
H488 C494 0.949 . S
C489 H484 0.950 . S
C489 C491 1.327 . S
C489 C495 1.429 . S
C490 C482 1.574 . S
C490 H485 0.949 . S
C490 C496 1.368 . S
C491 C475 1.349 . S
C491 H483 0.950 . S
C491 C489 1.327 . S
C492 C480 1.349 . S
C492 H486 0.950 . S
C492 C493 1.327 . S
C493 H487 0.950 . S
C493 C492 1.327 . S
C493 C497 1.429 . S
C494 C477 1.574 . S
C494 H488 0.949 . S
C494 C498 1.368 . S
C495 C476 1.429 . S
C495 C489 1.429 . S
C495 C496 1.523 . S
C496 C477 1.368 . S
C496 C490 1.368 . S
C496 C495 1.523 . S
C497 C481 1.429 . S
C497 C493 1.429 . S
C497 C498 1.523 . S
C498 C482 1.368 . S
C498 C494 1.368 . S
C498 C497 1.523 . S
H499 C474 0.950 . S
H500 C476 0.950 . S
H501 C477 0.949 . S
H502 C479 0.950 . S
H503 C481 0.950 . S
C504 C505 1.349 . S
C504 C506 1.327 . S
C504 H529 0.950 . S
C505 C504 1.349 . S
C505 C521 1.349 . S
C506 C504 1.327 . S
C506 C525 1.429 . S
C506 H530 0.950 . S
C507 C524 1.574 . S
C507 C526 1.368 . S
C507 H531 0.949 . S
H508 C512 0.949 . S
C509 C510 1.349 . S
C509 C511 1.327 . S
C509 H532 0.950 . S
C510 C509 1.349 . S
C510 C522 1.349 . S
C511 C509 1.327 . S
C511 C527 1.429 . S
C511 H533 0.950 . S
C512 H508 0.949 . S
C512 C520 1.574 . S
C512 C528 1.368 . S
H513 C521 0.950 . S
H514 C519 0.950 . S
H515 C520 0.949 . S
H516 C522 0.950 . S
H517 C523 0.950 . S
H518 C524 0.949 . S
C519 H514 0.950 . S
C519 C521 1.327 . S
C519 C525 1.429 . S
C520 C512 1.574 . S
C520 H515 0.949 . S
C520 C526 1.368 . S
C521 C505 1.349 . S
C521 H513 0.950 . S
C521 C519 1.327 . S
C522 C510 1.349 . S
C522 H516 0.950 . S
C522 C523 1.327 . S
C523 H517 0.950 . S
C523 C522 1.327 . S
C523 C527 1.429 . S
C524 C507 1.574 . S
C524 H518 0.949 . S
C524 C528 1.368 . S
C525 C506 1.429 . S
C525 C519 1.429 . S
C525 C526 1.523 . S
C526 C507 1.368 . S
C526 C520 1.368 . S
C526 C525 1.523 . S
C527 C511 1.429 . S
C527 C523 1.429 . S
C527 C528 1.523 . S
C528 C512 1.368 . S
C528 C524 1.368 . S
C528 C527 1.523 . S
H529 C504 0.950 . S
H530 C506 0.950 . S
H531 C507 0.949 . S
H532 C509 0.950 . S
H533 C511 0.950 . S
C534 C535 1.349 . S
C534 C536 1.327 . S
C534 H559 0.950 . S
C535 C534 1.349 . S
C535 C551 1.349 . S
C536 C534 1.327 . S
C536 C555 1.429 . S
C536 H560 0.950 . S
C537 C554 1.574 . S
C537 C556 1.368 . S
C537 H561 0.949 . S
H538 C542 0.949 . S
C539 C540 1.349 . S
C539 C541 1.327 . S
C539 H562 0.950 . S
C540 C539 1.349 . S
C540 C552 1.349 . S
C541 C539 1.327 . S
C541 C557 1.429 . S
C541 H563 0.950 . S
C542 H538 0.949 . S
C542 C550 1.574 . S
C542 C558 1.368 . S
H543 C551 0.950 . S
H544 C549 0.950 . S
H545 C550 0.949 . S
H546 C552 0.950 . S
H547 C553 0.950 . S
H548 C554 0.949 . S
C549 H544 0.950 . S
C549 C551 1.327 . S
C549 C555 1.429 . S
C550 C542 1.574 . S
C550 H545 0.949 . S
C550 C556 1.368 . S
C551 C535 1.349 . S
C551 H543 0.950 . S
C551 C549 1.327 . S
C552 C540 1.349 . S
C552 H546 0.950 . S
C552 C553 1.327 . S
C553 H547 0.950 . S
C553 C552 1.327 . S
C553 C557 1.429 . S
C554 C537 1.574 . S
C554 H548 0.949 . S
C554 C558 1.368 . S
C555 C536 1.429 . S
C555 C549 1.429 . S
C555 C556 1.523 . S
C556 C537 1.368 . S
C556 C550 1.368 . S
C556 C555 1.523 . S
C557 C541 1.429 . S
C557 C553 1.429 . S
C557 C558 1.523 . S
C558 C542 1.368 . S
C558 C554 1.368 . S
C558 C557 1.523 . S
H559 C534 0.950 . S
H560 C536 0.950 . S
H561 C537 0.949 . S
H562 C539 0.950 . S
H563 C541 0.950 . S
C564 C565 1.349 . S
C564 C566 1.327 . S
C564 H589 0.950 . S
C565 C564 1.349 . S
C565 C581 1.349 . S
C566 C564 1.327 . S
C566 C585 1.429 . S
C566 H590 0.950 . S
C567 C584 1.574 . S
C567 C586 1.368 . S
C567 H591 0.949 . S
H568 C572 0.949 . S
C569 C570 1.349 . S
C569 C571 1.327 . S
C569 H592 0.950 . S
C570 C569 1.349 . S
C570 C582 1.349 . S
C571 C569 1.327 . S
C571 C587 1.429 . S
C571 H593 0.950 . S
C572 H568 0.949 . S
C572 C580 1.574 . S
C572 C588 1.368 . S
H573 C581 0.950 . S
H574 C579 0.950 . S
H575 C580 0.949 . S
H576 C582 0.950 . S
H577 C583 0.950 . S
H578 C584 0.949 . S
C579 H574 0.950 . S
C579 C581 1.327 . S
C579 C585 1.429 . S
C580 C572 1.574 . S
C580 H575 0.949 . S
C580 C586 1.368 . S
C581 C565 1.349 . S
C581 H573 0.950 . S
C581 C579 1.327 . S
C582 C570 1.349 . S
C582 H576 0.950 . S
C582 C583 1.327 . S
C583 H577 0.950 . S
C583 C582 1.327 . S
C583 C587 1.429 . S
C584 C567 1.574 . S
C584 H578 0.949 . S
C584 C588 1.368 . S
C585 C566 1.429 . S
C585 C579 1.429 . S
C585 C586 1.523 . S
C586 C567 1.368 . S
C586 C580 1.368 . S
C586 C585 1.523 . S
C587 C571 1.429 . S
C587 C583 1.429 . S
C587 C588 1.523 . S
C588 C572 1.368 . S
C588 C584 1.368 . S
C588 C587 1.523 . S
H589 C564 0.950 . S
H590 C566 0.950 . S
H591 C567 0.949 . S
H592 C569 0.950 . S
H593 C571 0.950 . S
C594 C595 1.349 . S
C594 C596 1.327 . S
C594 H619 0.950 1_455 S
C595 C594 1.349 . S
C595 C611 1.349 . S
C596 C594 1.327 . S
C596 C615 1.429 . S
C596 H620 0.950 1_455 S
C597 C614 1.574 . S
C597 C616 1.368 . S
C597 H621 0.949 . S
H598 C602 0.949 1_655 S
C599 C600 1.349 . S
C599 C601 1.327 . S
C599 H622 0.950 . S
C600 C599 1.349 . S
C600 C612 1.349 . S
C601 C599 1.327 . S
C601 C617 1.429 . S
C601 H623 0.950 . S
C602 H598 0.949 1_455 S
C602 C610 1.574 1_556 S
C602 C618 1.368 . S
H603 C611 0.950 . S
H604 C609 0.950 . S
H605 C610 0.949 1_655 S
H606 C612 0.950 . S
H607 C613 0.943 1_655 S
H608 C614 0.949 1_556 S
C609 H604 0.950 . S
C609 C611 1.327 . S
C609 C615 1.429 . S
C610 C602 1.574 1_554 S
C610 H605 0.949 1_455 S
C610 C616 1.368 . S
C611 C595 1.349 . S
C611 H603 0.950 . S
C611 C609 1.327 . S
C612 C600 1.349 . S
C612 H606 0.950 . S
C612 C613 1.327 . S
C613 H607 0.943 1_455 S
C613 C612 1.327 . S
C613 C617 1.429 . S
C614 C597 1.574 . S
C614 H608 0.949 1_554 S
C614 C618 1.368 1_554 S
C615 C596 1.429 . S
C615 C609 1.429 . S
C615 C616 1.523 . S
C616 C597 1.368 . S
C616 C610 1.368 . S
C616 C615 1.523 . S
C617 C601 1.429 . S
C617 C613 1.429 . S
C617 C618 1.523 . S
C618 C602 1.368 . S
C618 C614 1.368 1_556 S
C618 C617 1.523 . S
H619 C594 0.950 1_655 S
H620 C596 0.950 1_655 S
H621 C597 0.949 . S
H622 C599 0.950 . S
H623 C601 0.950 . S
C624 C625 1.349 . S
C624 C626 1.327 . S
C624 H649 0.950 . S
C625 C624 1.349 . S
C625 C641 1.349 . S
C626 C624 1.327 . S
C626 C645 1.429 . S
C626 H650 0.950 . S
C627 C644 1.574 . S
C627 C646 1.368 . S
C627 H651 0.954 . S
H628 C632 0.949 . S
C629 C630 1.349 . S
C629 C631 1.327 . S
C629 H652 0.950 . S
C630 C629 1.349 . S
C630 C642 1.349 . S
C631 C629 1.327 . S
C631 C647 1.429 . S
C631 H653 0.950 . S
C632 H628 0.949 . S
C632 C640 1.574 . S
C632 C648 1.368 . S
H633 C641 0.950 1_565 S
H634 C639 0.950 1_565 S
H635 C640 0.949 . S
H636 C642 0.950 . S
H637 C643 0.950 . S
H638 C644 0.949 . S
C639 H634 0.950 1_545 S
C639 C641 1.327 . S
C639 C645 1.429 . S
C640 C632 1.574 . S
C640 H635 0.949 . S
C640 C646 1.368 . S
C641 C625 1.349 . S
C641 H633 0.950 1_545 S
C641 C639 1.327 . S
C642 C630 1.349 . S
C642 H636 0.950 . S
C642 C643 1.327 . S
C643 H637 0.950 . S
C643 C642 1.327 . S
C643 C647 1.429 . S
C644 C627 1.574 . S
C644 H638 0.949 . S
C644 C648 1.368 . S
C645 C626 1.429 . S
C645 C639 1.429 . S
C645 C646 1.523 . S
C646 C627 1.368 . S
C646 C640 1.368 . S
C646 C645 1.523 . S
C647 C631 1.429 . S
C647 C643 1.429 . S
C647 C648 1.523 . S
C648 C632 1.368 . S
C648 C644 1.368 . S
C648 C647 1.523 . S
H649 C624 0.950 . S
H650 C626 0.950 . S
H651 C627 0.954 . S
H652 C629 0.950 . S
H653 C631 0.950 . S
C654 C655 1.349 . S
C654 C656 1.327 . S
C654 H679 0.950 . S
C655 C654 1.349 . S
C655 C671 1.349 . S
C656 C654 1.327 . S
C656 C675 1.429 . S
C656 H680 0.950 . S
C657 C674 1.574 . S
C657 C676 1.368 . S
C657 H681 0.949 . S
H658 C662 0.949 . S
C659 C660 1.349 . S
C659 C661 1.327 . S
C659 H682 0.950 . S
C660 C659 1.349 . S
C660 C672 1.349 . S
C661 C659 1.327 . S
C661 C677 1.429 . S
C661 H683 0.950 . S
C662 H658 0.949 . S
C662 C670 1.574 . S
C662 C678 1.368 . S
H663 C671 0.950 . S
H664 C669 0.950 . S
H665 C670 0.949 . S
H666 C672 0.950 . S
H667 C673 0.950 . S
H668 C674 0.949 . S
C669 H664 0.950 . S
C669 C671 1.327 . S
C669 C675 1.429 . S
C670 C662 1.574 . S
C670 H665 0.949 . S
C670 C676 1.368 . S
C671 C655 1.349 . S
C671 H663 0.950 . S
C671 C669 1.327 . S
C672 C660 1.349 . S
C672 H666 0.950 . S
C672 C673 1.327 . S
C673 H667 0.950 . S
C673 C672 1.327 . S
C673 C677 1.429 . S
C674 C657 1.574 . S
C674 H668 0.949 . S
C674 C678 1.368 . S
C675 C656 1.429 . S
C675 C669 1.429 . S
C675 C676 1.523 . S
C676 C657 1.368 . S
C676 C670 1.368 . S
C676 C675 1.523 . S
C677 C661 1.429 . S
C677 C673 1.429 . S
C677 C678 1.523 . S
C678 C662 1.368 . S
C678 C674 1.368 . S
C678 C677 1.523 . S
H679 C654 0.950 . S
H680 C656 0.950 . S
H681 C657 0.949 . S
H682 C659 0.950 . S
H683 C661 0.950 . S
C684 C685 1.349 . S
C684 C686 1.327 . S
C684 H709 0.950 . S
C685 C684 1.349 . S
C685 C701 1.349 . S
C686 C684 1.327 . S
C686 C705 1.429 . S
C686 H710 0.950 . S
C687 C704 1.574 . S
C687 C706 1.368 . S
C687 H711 0.949 . S
H688 C692 0.949 . S
C689 C690 1.349 . S
C689 C691 1.327 . S
C689 H712 0.950 . S
C690 C689 1.349 . S
C690 C702 1.349 . S
C691 C689 1.327 . S
C691 C707 1.429 . S
C691 H713 0.950 . S
C692 H688 0.949 . S
C692 C700 1.574 . S
C692 C708 1.368 . S
H693 C701 0.950 . S
H694 C699 0.950 . S
H695 C700 0.949 . S
H696 C702 0.950 . S
H697 C703 0.950 . S
H698 C704 0.949 . S
C699 H694 0.950 . S
C699 C701 1.327 . S
C699 C705 1.429 . S
C700 C692 1.574 . S
C700 H695 0.949 . S
C700 C706 1.368 . S
C701 C685 1.349 . S
C701 H693 0.950 . S
C701 C699 1.327 . S
C702 C690 1.349 . S
C702 H696 0.950 . S
C702 C703 1.327 . S
C703 H697 0.950 . S
C703 C702 1.327 . S
C703 C707 1.429 . S
C704 C687 1.574 . S
C704 H698 0.949 . S
C704 C708 1.368 . S
C705 C686 1.429 . S
C705 C699 1.429 . S
C705 C706 1.523 . S
C706 C687 1.368 . S
C706 C700 1.368 . S
C706 C705 1.523 . S
C707 C691 1.429 . S
C707 C703 1.429 . S
C707 C708 1.523 . S
C708 C692 1.368 . S
C708 C704 1.368 . S
C708 C707 1.523 . S
H709 C684 0.950 . S
H710 C686 0.950 . S
H711 C687 0.949 . S
H712 C689 0.950 . S
H713 C691 0.950 . S
C714 C715 1.349 . S
C714 C716 1.327 . S
C714 H739 0.950 . S
C715 C714 1.349 . S
C715 C731 1.349 . S
C716 C714 1.327 . S
C716 C735 1.429 . S
C716 H740 0.950 . S
C717 C734 1.574 1_556 S
C717 C736 1.368 . S
C717 H741 0.949 . S
H718 C722 0.953 . S
C719 C720 1.349 . S
C719 C721 1.327 . S
C719 H742 0.950 . S
C720 C719 1.349 . S
C720 C732 1.349 . S
C721 C719 1.327 . S
C721 C737 1.429 . S
C721 H743 0.950 . S
C722 H718 0.953 . S
C722 C730 1.567 1_554 S
C722 C738 1.370 . S
H723 C731 0.950 . S
H724 C729 0.950 . S
H725 C730 0.949 . S
H726 C732 0.950 . S
H727 C733 0.950 . S
H728 C734 0.949 . S
C729 H724 0.950 . S
C729 C731 1.327 . S
C729 C735 1.429 . S
C730 C722 1.567 1_556 S
C730 H725 0.949 . S
C730 C736 1.368 . S
C731 C715 1.349 . S
C731 H723 0.950 . S
C731 C729 1.327 . S
C732 C720 1.349 . S
C732 H726 0.950 . S
C732 C733 1.327 . S
C733 H727 0.950 . S
C733 C732 1.327 . S
C733 C737 1.429 . S
C734 C717 1.574 1_554 S
C734 H728 0.949 . S
C734 C738 1.368 . S
C735 C716 1.429 . S
C735 C729 1.429 . S
C735 C736 1.523 . S
C736 C717 1.368 . S
C736 C730 1.368 . S
C736 C735 1.523 . S
C737 C721 1.429 . S
C737 C733 1.429 . S
C737 C738 1.523 . S
C738 C722 1.370 . S
C738 C734 1.368 . S
C738 C737 1.523 . S
H739 C714 0.950 . S
H740 C716 0.950 . S
H741 C717 0.949 . S
H742 C719 0.950 . S
H743 C721 0.950 . S
C744 C745 1.349 . S
C744 C746 1.327 . S
C744 H769 0.950 . S
C745 C744 1.349 . S
C745 C761 1.349 . S
C746 C744 1.327 . S
C746 C765 1.429 . S
C746 H770 0.950 . S
C747 C764 1.574 . S
C747 C766 1.368 . S
C747 H771 0.949 . S
H748 C752 0.949 . S
C749 C750 1.349 . S
C749 C751 1.327 . S
C749 H772 0.950 . S
C750 C749 1.349 . S
C750 C762 1.349 . S
C751 C749 1.327 . S
C751 C767 1.429 . S
C751 H773 0.950 . S
C752 H748 0.949 . S
C752 C760 1.574 . S
C752 C768 1.368 . S
H753 C761 0.950 . S
H754 C759 0.950 . S
H755 C760 0.949 . S
H756 C762 0.950 . S
H757 C763 0.950 . S
H758 C764 0.949 . S
C759 H754 0.950 . S
C759 C761 1.327 . S
C759 C765 1.429 . S
C760 C752 1.574 . S
C760 H755 0.949 . S
C760 C766 1.368 . S
C761 C745 1.349 . S
C761 H753 0.950 . S
C761 C759 1.327 . S
C762 C750 1.349 . S
C762 H756 0.950 . S
C762 C763 1.327 . S
C763 H757 0.950 . S
C763 C762 1.327 . S
C763 C767 1.429 . S
C764 C747 1.574 . S
C764 H758 0.949 . S
C764 C768 1.368 . S
C765 C746 1.429 . S
C765 C759 1.429 . S
C765 C766 1.523 . S
C766 C747 1.368 . S
C766 C760 1.368 . S
C766 C765 1.523 . S
C767 C751 1.429 . S
C767 C763 1.429 . S
C767 C768 1.523 . S
C768 C752 1.368 . S
C768 C764 1.368 . S
C768 C767 1.523 . S
H769 C744 0.950 . S
H770 C746 0.950 . S
H771 C747 0.949 . S
H772 C749 0.950 . S
H773 C751 0.950 . S
C235 C6 0.630 . S
C240 C226 0.665 . S
C265 C59 1.993 . S
C270 C188 1.926 . S
C295 C86 1.276 . S
C300 C207 1.221 . S
C325 C15 0.187 . S
C330 C221 0.211 . S
C360 C183 1.841 . S
C355 C50 1.866 . S
C390 C202 1.084 . S
C385 C95 1.097 . S
C415 C46 1.335 . S
C420 C150 1.264 . S
C445 C99 3.018 . S
C450 C164 2.987 1_655 S
C475 C10 1.875 . S
C480 C126 1.858 1_565 S
C510 C145 1.072 . S
C505 C55 1.083 . S
C540 C169 3.027 . S
C535 C90 3.086 . S
C565 C19 1.999 . S
C570 C131 1.938 . S
C600 C160 1.709 . S
C595 C18 1.692 . S
C625 C49 1.478 . S
C630 C122 1.541 . S
C655 C98 1.561 . S
C660 C141 1.578 . S
C690 C198 1.572 . S
C685 C58 1.574 . S
C720 C217 1.401 . S
C715 C89 1.372 . S
C745 C9 1.450 . S
C750 C179 1.498 . S
