# Generated by pormake.
# Topology anh, (6,3)-cn, num edge types: 1
# Building blocks:
#     Node 0, Type 0, BuildingBlock: GEDQOX_clean_sbu_0, # of connection points: 6
#     Node 1, Type 0, BuildingBlock: GEDQOX_clean_sbu_0, # of connection points: 6
#     Node 2, Type 0, BuildingBlock: GEDQOX_clean_sbu_0, # of connection points: 6
#     Node 3, Type 1, BuildingBlock: VETTIZ_charged_linker_0, # of connection points: 3
#     Node 4, Type 1, BuildingBlock: VETTIZ_charged_linker_0, # of connection points: 3
#     Node 5, Type 1, BuildingBlock: VETTIZ_charged_linker_0, # of connection points: 3
#     Node 6, Type 1, BuildingBlock: VETTIZ_charged_linker_0, # of connection points: 3
#     Node 7, Type 1, BuildingBlock: VETTIZ_charged_linker_0, # of connection points: 3
#     Node 8, Type 1, BuildingBlock: VETTIZ_charged_linker_0, # of connection points: 3
#     Edge 9, Type (0, 1), BuildingBlock: XIVTED_clean_linker_0, # of connection points: 2
#     Edge 10, Type (0, 1), BuildingBlock: XIVTED_clean_linker_0, # of connection points: 2
#     Edge 11, Type (0, 1), BuildingBlock: XIVTED_clean_linker_0, # of connection points: 2
#     Edge 12, Type (0, 1), BuildingBlock: XIVTED_clean_linker_0, # of connection points: 2
#     Edge 13, Type (0, 1), BuildingBlock: XIVTED_clean_linker_0, # of connection points: 2
#     Edge 14, Type (0, 1), BuildingBlock: XIVTED_clean_linker_0, # of connection points: 2
#     Edge 15, Type (0, 1), BuildingBlock: XIVTED_clean_linker_0, # of connection points: 2
#     Edge 16, Type (0, 1), BuildingBlock: XIVTED_clean_linker_0, # of connection points: 2
#     Edge 17, Type (0, 1), BuildingBlock: XIVTED_clean_linker_0, # of connection points: 2
#     Edge 18, Type (0, 1), BuildingBlock: XIVTED_clean_linker_0, # of connection points: 2
#     Edge 19, Type (0, 1), BuildingBlock: XIVTED_clean_linker_0, # of connection points: 2
#     Edge 20, Type (0, 1), BuildingBlock: XIVTED_clean_linker_0, # of connection points: 2
#     Edge 21, Type (0, 1), BuildingBlock: XIVTED_clean_linker_0, # of connection points: 2
#     Edge 22, Type (0, 1), BuildingBlock: XIVTED_clean_linker_0, # of connection points: 2
#     Edge 23, Type (0, 1), BuildingBlock: XIVTED_clean_linker_0, # of connection points: 2
#     Edge 24, Type (0, 1), BuildingBlock: XIVTED_clean_linker_0, # of connection points: 2
#     Edge 25, Type (0, 1), BuildingBlock: XIVTED_clean_linker_0, # of connection points: 2
#     Edge 26, Type (0, 1), BuildingBlock: XIVTED_clean_linker_0, # of connection points: 2
# Relax obj value: 0.182
# Max RMSD: 0.212
# Mean RMSD: 0.160
data_MOF--net-anh--node1-GEDQOX_clean_sbu_0--node2-VETTIZ_charged_linker_0--edge1-XIVTED_clean_linker_0
_symmetry_space_group_name_H-M    P1
_symmetry_Int_Tables_number       1
_symmetry_cell_setting            triclinic
loop_
_symmetry_equiv_pos_as_xyz
'x, y, z'
_cell_length_a     37.126792
_cell_length_b     35.498827
_cell_length_c     67.271568
_cell_angle_alpha  92.969288
_cell_angle_beta   90.483932
_cell_angle_gamma 106.15553
loop_
_atom_site_label
_atom_site_type_symbol
_atom_site_fract_x
_atom_site_fract_y
_atom_site_fract_z
_atom_type_partial_charge
Nd0 Nd 0.07162 0.54889 0.14427 0.0
Nd1 Nd 1.04981 0.46337 0.15112 0.0
C2 C 0.10402 0.61986 0.13212 0.0
C3 C 0.14016 0.64936 0.13679 0.0
C4 C 0.15698 0.67622 0.12272 0.0
C5 C 0.19093 0.70485 0.12734 0.0
C6 C 0.20836 0.70721 0.14619 0.0
C7 C 0.19175 0.67966 0.16008 0.0
C8 C 0.15812 0.65089 0.15539 0.0
C9 C 0.06335 0.53255 0.18355 0.0
C10 C 0.14084 0.50383 0.14959 0.0
C11 C 1.01923 0.3926 0.16412 0.0
C12 C 0.98137 0.36571 0.16716 0.0
C13 C 0.96328 0.36724 0.18533 0.0
C14 C 0.9282 0.34109 0.18847 0.0
C15 C 0.9103 0.31257 0.17357 0.0
C16 C 0.92843 0.31098 0.15539 0.0
C17 C 0.96358 0.33717 0.15225 0.0
C18 C 0.06118 0.4805 0.1121 0.0
C19 C 0.98074 0.508 0.14548 0.0
O20 O 0.10569 0.58762 0.12231 0.0
O21 O 0.08012 0.61318 0.14657 0.0
O22 O 1.05265 0.56045 0.17582 0.0
O23 O 0.07933 0.51565 0.17095 0.0
O24 O 0.13058 0.53485 0.14384 0.0
O25 O 0.11461 0.47253 0.15515 0.0
O26 O 1.02994 0.4245 0.17587 0.0
O27 O 1.02972 0.39864 0.14576 0.0
O28 O 0.07176 0.45278 0.12019 0.0
O29 O 1.04363 0.49681 0.12419 0.0
O30 O 0.99102 0.47788 0.1524 0.0
O31 O 1.00697 0.53817 0.13886 0.0
H32 H 0.14367 0.6753 0.10824 0.0
H33 H 0.20301 0.72576 0.11638 0.0
H34 H 0.20481 0.68034 0.1746 0.0
H35 H 0.14594 0.63004 0.16637 0.0
H36 H 0.97637 0.3884 0.19727 0.0
H37 H 0.91549 0.34272 0.20281 0.0
H38 H 0.91539 0.28963 0.14353 0.0
H39 H 0.97688 0.33489 0.13814 0.0
Nd40 Nd 0.51397 0.98661 0.51765 0.0
Nd41 Nd 0.59553 0.011 0.50751 0.0
C42 C 0.44672 0.95411 0.53173 0.0
C43 C 0.41879 0.91587 0.52791 0.0
C44 C 0.42928 0.88454 0.5185 0.0
C45 C 0.40254 0.84886 0.51372 0.0
C46 C 0.36444 0.844 0.51782 0.0
C47 C 0.3541 0.87549 0.52749 0.0
C48 C 0.38111 0.91109 0.53252 0.0
C49 C 0.52659 0.99374 0.47775 0.0
C50 C 0.55911 0.9182 0.5102 0.0
C51 C 0.66207 0.04354 0.49268 0.0
C52 C 0.68759 0.08337 0.49053 0.0
C53 C 0.68851 0.10154 0.47241 0.0
C54 C 0.71316 0.13864 0.47002 0.0
C55 C 0.73769 0.15836 0.48565 0.0
C56 C 0.7368 0.14019 0.50379 0.0
C57 C 0.71205 0.10308 0.5062 0.0
C58 C 0.58217 1.0028 0.54732 0.0
C59 C 0.55105 0.07917 0.51557 0.0
O60 O 0.47798 0.95359 0.54072 0.0
O61 O 0.45236 0.97701 0.5168 0.0
O62 O 0.49987 1.00395 0.48682 0.0
O63 O 0.5444 0.97831 0.48939 0.0
O64 O 0.53048 0.92819 0.51832 0.0
O65 O 0.58683 0.94467 0.50234 0.0
O66 O 0.6309 0.03374 0.482 0.0
O67 O 0.65748 0.03079 0.51064 0.0
O68 O 0.6085 0.99175 0.53823 0.0
O69 O 0.56505 0.01907 0.53573 0.0
O70 O 0.57841 0.06912 0.50612 0.0
O71 O 0.5251 0.05272 0.5246 0.0
H72 H 0.4581 0.88794 0.5145 0.0
H73 H 0.41179 0.82521 0.50663 0.0
H74 H 0.32503 0.87312 0.53062 0.0
H75 H 0.37244 0.93518 0.53959 0.0
H76 H 0.67042 0.08692 0.45996 0.0
H77 H 0.7136 0.15147 0.45573 0.0
H78 H 0.75516 0.1547 0.51616 0.0
H79 H 0.71229 0.08983 0.52032 0.0
Nd80 Nd 0.52548 0.51661 0.8304 0.0
Nd81 Nd 0.61209 0.5374 0.84472 0.0
C82 C 0.46862 0.51861 0.80768 0.0
C83 C 0.44698 0.54747 0.80916 0.0
C84 C 0.43607 0.56247 0.79194 0.0
C85 C 0.42067 0.59428 0.79346 0.0
C86 C 0.41618 0.61165 0.81224 0.0
C87 C 0.42701 0.59621 0.8294 0.0
C88 C 0.44244 0.56468 0.82787 0.0
C89 C 0.53322 0.52991 0.87132 0.0
C90 C 0.57494 0.60924 0.84218 0.0
C91 C 0.67611 0.53472 0.86049 0.0
C92 C 0.69924 0.5097 0.85343 0.0
C93 C 0.72985 0.5065 0.86478 0.0
C94 C 0.75296 0.48449 0.85707 0.0
C95 C 0.74577 0.46572 0.8379 0.0
C96 C 0.71404 0.46763 0.82699 0.0
C97 C 0.69082 0.48928 0.83476 0.0
C98 C 0.59814 0.53583 0.80465 0.0
C99 C 0.5601 0.44294 0.83654 0.0
O100 O 0.50353 0.53359 0.80266 0.0
O101 O 0.46501 0.49467 0.8223 0.0
O102 O 0.50066 0.51977 0.86216 0.0
O103 O 0.55798 0.53195 0.85864 0.0
O104 O 0.54771 0.58438 0.83131 0.0
O105 O 0.60105 0.59749 0.85167 0.0
O106 O 0.64374 0.5159 0.86754 0.0
O107 O 0.67358 0.56157 0.84832 0.0
O108 O 0.62774 0.55943 0.81344 0.0
O109 O 0.5793 0.51264 0.81668 0.0
O110 O 0.59185 0.46894 0.84294 0.0
O111 O 0.53083 0.45362 0.82989 0.0
H112 H 0.44036 0.55026 0.77735 0.0
H113 H 0.4128 0.6056 0.77994 0.0
H114 H 0.42321 0.60817 0.84412 0.0
H115 H 0.45155 0.55431 0.84137 0.0
H116 H 0.73648 0.52187 0.87926 0.0
H117 H 0.77761 0.48396 0.86566 0.0
H118 H 0.70792 0.45342 0.81222 0.0
H119 H 0.66689 0.49113 0.82592 0.0
C120 C 0.65306 0.08523 0.20712 0.0
C121 C 0.68253 0.11264 0.21785 0.0
C122 C 0.68425 0.11186 0.23874 0.0
C123 C 0.62735 0.0581 0.23812 0.0
C124 C 0.62558 0.05845 0.21758 0.0
C125 C 0.59104 0.02847 0.20889 0.0
H126 H 0.42809 0.88919 0.22558 0.0
C127 C 0.59432 0.02778 0.24462 0.0
C128 C 0.57268 0.01021 0.22759 0.0
H129 H 0.4702 0.93063 0.16867 0.0
H130 H 0.52646 0.97338 0.18507 0.0
H131 H 0.50603 0.8823 0.24326 0.0
H132 H 0.44744 0.97089 0.24807 0.0
H133 H 0.46779 0.97066 0.27165 0.0
H134 H 0.43379 0.92694 0.26147 0.0
H135 H 0.46524 0.87749 0.25811 0.0
H136 H 0.51181 0.90095 0.26812 0.0
C137 C 0.60374 0.99846 0.19521 0.0
C138 C 0.56667 0.05054 0.19817 0.0
C139 C 0.57516 0.00797 0.31866 0.0
C140 C 0.54586 0.98392 0.32924 0.0
C141 C 0.51575 0.9573 0.31859 0.0
C142 C 0.51439 0.95512 0.29777 0.0
C143 C 0.54328 0.98008 0.28736 0.0
C144 C 0.57315 0.00573 0.29778 0.0
C145 C 0.60068 0.0307 0.28416 0.0
C146 C 0.58236 0.01572 0.26388 0.0
C147 C 0.54885 0.98613 0.2659 0.0
C148 C 0.6387 0.02127 0.28675 0.0
C149 C 0.6021 0.07432 0.28905 0.0
C150 C 0.44919 0.90767 0.21657 0.0
C151 C 0.44434 0.90694 0.19583 0.0
C152 C 0.47318 0.93069 0.1847 0.0
C153 C 0.50568 0.95565 0.19426 0.0
C154 C 0.50941 0.95682 0.21517 0.0
C155 C 0.48146 0.93261 0.22584 0.0
C156 C 0.48946 0.93723 0.24784 0.0
C157 C 0.52675 0.9685 0.24881 0.0
C158 C 0.53853 0.98015 0.22969 0.0
C159 C 0.49312 0.89751 0.25489 0.0
C160 C 0.45803 0.95191 0.25795 0.0
H161 H 0.66006 0.08589 0.26478 0.0
H162 H 0.65095 0.08533 0.19105 0.0
H163 H 0.56646 0.07792 0.20694 0.0
H164 H 0.53698 0.03344 0.19646 0.0
H165 H 0.57775 0.0589 0.18326 0.0
H166 H 0.62801 0.9909 0.20208 0.0
H167 H 0.61254 0.0106 0.18056 0.0
H168 H 0.58181 0.9703 0.19273 0.0
H169 H 0.59846 0.02901 0.32646 0.0
H170 H 0.49308 0.93818 0.32643 0.0
H171 H 0.49054 0.93441 0.29061 0.0
H172 H 0.63429 0.98938 0.28872 0.0
H173 H 0.65457 0.03763 0.30007 0.0
H174 H 0.65653 0.02757 0.2736 0.0
H175 H 0.57478 0.07704 0.29468 0.0
H176 H 0.60707 0.09215 0.27584 0.0
H177 H 0.6239 0.08805 0.30067 0.0
H178 H 0.70693 0.1323 0.24729 0.0
C179 C 0.65703 0.08474 0.24888 0.0
C180 C 0.56347 0.60964 0.52715 0.0
C181 C 0.56556 0.64703 0.53625 0.0
C182 C 0.56858 0.65241 0.55708 0.0
C183 C 0.56606 0.58404 0.55986 0.0
C184 C 0.56393 0.57841 0.53933 0.0
C185 C 0.56221 0.53629 0.53283 0.0
H186 H 0.54813 0.35024 0.56213 0.0
C187 C 0.56444 0.54626 0.56851 0.0
C188 C 0.56214 0.51767 0.55285 0.0
H189 H 0.55647 0.38617 0.50167 0.0
H190 H 0.56069 0.45358 0.5136 0.0
H191 H 0.61238 0.4203 0.57915 0.0
H192 H 0.49274 0.39807 0.57708 0.0
H193 H 0.50753 0.42099 0.60062 0.0
H194 H 0.51648 0.37466 0.59378 0.0
H195 H 0.58244 0.38826 0.59569 0.0
H196 H 0.60119 0.4402 0.60187 0.0
C197 C 0.59781 0.53664 0.52108 0.0
C198 C 0.52549 0.51796 0.52072 0.0
C199 C 0.56488 0.54001 0.64393 0.0
C200 C 0.56226 0.50905 0.65658 0.0
C201 C 0.55825 0.47094 0.64808 0.0
C202 C 0.55714 0.46378 0.62741 0.0
C203 C 0.56008 0.49503 0.61495 0.0
C204 C 0.56366 0.53229 0.62326 0.0
C205 C 0.56591 0.56171 0.60769 0.0
C206 C 0.56365 0.53598 0.58866 0.0
C207 C 0.56031 0.49713 0.59305 0.0
C208 C 0.60443 0.59313 0.61034 0.0
C209 C 0.53131 0.57796 0.60986 0.0
C210 C 0.55048 0.37242 0.55136 0.0
C211 C 0.55133 0.36271 0.53096 0.0
C212 C 0.55558 0.39289 0.51751 0.0
C213 C 0.55799 0.43192 0.52446 0.0
C214 C 0.55675 0.44092 0.54508 0.0
C215 C 0.55344 0.41109 0.55801 0.0
C216 C 0.55411 0.42497 0.57938 0.0
C217 C 0.5581 0.46813 0.57747 0.0
C218 C 0.55934 0.47794 0.55739 0.0
C219 C 0.58907 0.41796 0.58973 0.0
C220 C 0.51597 0.40354 0.58837 0.0
H221 H 0.57091 0.62766 0.58464 0.0
H222 H 0.56125 0.60488 0.51111 0.0
H223 H 0.50125 0.52358 0.52873 0.0
H224 H 0.51936 0.48581 0.51835 0.0
H225 H 0.52669 0.53081 0.50594 0.0
H226 H 0.62304 0.55692 0.52872 0.0
H227 H 0.59578 0.5467 0.50585 0.0
H228 H 0.60325 0.50763 0.51992 0.0
H229 H 0.56757 0.56958 0.64997 0.0
H230 H 0.55671 0.44665 0.65745 0.0
H231 H 0.55426 0.43413 0.62199 0.0
H232 H 0.62641 0.57999 0.61571 0.0
H233 H 0.60306 0.61705 0.62136 0.0
H234 H 0.61525 0.60602 0.59622 0.0
H235 H 0.50671 0.5554 0.61531 0.0
H236 H 0.52139 0.58591 0.59556 0.0
H237 H 0.53723 0.60384 0.62063 0.0
H238 H 0.57021 0.68089 0.56429 0.0
C239 C 0.56886 0.62133 0.56887 0.0
C240 C 0.18767 0.68846 0.85563 0.0
C241 C 0.22361 0.70243 0.86473 0.0
C242 C 0.22676 0.69703 0.88537 0.0
C243 C 0.1627 0.65571 0.88533 0.0
C244 C 0.15884 0.66299 0.86558 0.0
C245 C 0.12506 0.63458 0.85555 0.0
H246 H 0.97609 0.47586 0.86057 0.0
C247 C 0.13022 0.62295 0.89028 0.0
C248 C 0.10874 0.60983 0.87269 0.0
H249 H 1.01836 0.53934 0.8085 0.0
H250 H 0.06742 0.58407 0.82871 0.0
H251 H 0.05822 0.47627 0.87893 0.0
H252 H 0.98223 0.54675 0.88841 0.0
H253 H 1.0038 0.54683 0.91171 0.0
H254 H 0.9758 0.501 0.89995 0.0
H255 H 1.01394 0.45943 0.89079 0.0
H256 H 0.056 0.48501 0.90478 0.0
C257 C 0.13859 0.61031 0.83873 0.0
C258 C 0.09855 0.65804 0.84829 0.0
C259 C 0.11199 0.57751 0.9612 0.0
C260 C 0.08477 0.54671 0.96946 0.0
C261 C 0.05522 0.52322 0.95724 0.0
C262 C 1.05299 0.52962 0.93703 0.0
C263 C 0.08079 0.55968 0.92879 0.0
C264 C 0.10953 0.58335 0.94079 0.0
C265 C 0.13709 0.61296 0.92902 0.0
C266 C 0.11907 0.60404 0.90826 0.0
C267 C 0.08651 0.57239 0.90828 0.0
C268 C 0.17566 0.60402 0.92998 0.0
C269 C 0.13802 0.65462 0.93733 0.0
C270 C 0.99666 0.49833 0.85321 0.0
C271 C 0.99338 0.50354 0.83274 0.0
C272 C 1.02008 0.53452 0.8242 0.0
C273 C 1.04866 0.56046 0.83597 0.0
C274 C 1.05105 0.55502 0.85645 0.0
C275 C 1.02547 0.52415 0.86466 0.0
C276 C 1.03157 0.52321 0.8867 0.0
C277 C 0.06576 0.55816 0.89033 0.0
C278 C 0.07686 0.57677 0.87263 0.0
C279 C 1.04017 0.48393 0.89071 0.0
C280 C 0.99659 0.52948 0.89737 0.0
H281 H 0.20097 0.67014 0.91111 0.0
H282 H 0.1825 0.69312 0.84027 0.0
H283 H 0.09571 0.68019 0.86005 0.0
H284 H 0.0698 0.6393 0.84486 0.0
H285 H 0.10965 0.67392 0.83486 0.0
H286 H 0.16821 0.61015 0.84125 0.0
H287 H 0.13685 0.62242 0.82397 0.0
H288 H 0.12281 0.57884 0.83797 0.0
H289 H 0.13521 0.59573 0.97027 0.0
H290 H 1.03373 0.49969 0.96337 0.0
H291 H 1.02988 0.51051 0.92857 0.0
H292 H 0.17259 0.57286 0.93318 0.0
H293 H 0.19426 0.62274 0.94183 0.0
H294 H 0.19018 0.60785 0.91561 0.0
H295 H 0.10903 0.65744 0.93871 0.0
H296 H 0.15287 0.6778 0.92762 0.0
H297 H 0.1518 0.66082 0.95234 0.0
H298 H 0.25324 0.70743 0.89344 0.0
C299 C 0.19633 0.67444 0.89574 0.0
C300 C 0.96311 0.41906 0.45354 0.0
C301 C 0.9329 0.39235 0.44301 0.0
C302 C 0.93148 0.39212 0.42206 0.0
C303 C 0.98982 0.44388 0.42234 0.0
C304 C 0.99108 0.44471 0.44291 0.0
C305 C 1.0249 0.47564 0.45155 0.0
H306 H 0.18314 0.62082 0.4355 0.0
C307 C 1.02341 0.47326 0.41573 0.0
C308 C 1.04417 0.49214 0.43275 0.0
H309 H 0.13586 0.58363 0.49218 0.0
H310 H 0.0855 0.5336 0.4752 0.0
H311 H 0.17303 0.53584 0.41608 0.0
H312 H 0.10538 0.61607 0.41305 0.0
H313 H 0.10874 0.59659 0.38877 0.0
H314 H 0.15069 0.62435 0.40212 0.0
H315 H 0.18439 0.5761 0.40005 0.0
H316 H 0.15321 0.52884 0.39194 0.0
C317 C 1.04897 0.4551 0.46355 0.0
C318 C 1.01094 0.50655 0.46397 0.0
C319 C 1.04457 0.4888 0.34173 0.0
C320 C 0.07406 0.51198 0.33098 0.0
C321 C 0.10564 0.5367 0.34138 0.0
C322 C 0.10742 0.539 0.36224 0.0
C323 C 0.07742 0.51613 0.37283 0.0
C324 C 1.04701 0.49107 0.36255 0.0
C325 C 1.0186 0.46765 0.37624 0.0
C326 C 1.03663 0.48338 0.39644 0.0
C327 C 0.0708 0.51203 0.39435 0.0
C328 C 1.01615 0.42359 0.37211 0.0
C329 C 0.98119 0.4781 0.37298 0.0
C330 C 0.16231 0.60163 0.44435 0.0
C331 C 0.16367 0.60623 0.46525 0.0
C332 C 0.13534 0.58102 0.47606 0.0
C333 C 0.10617 0.55191 0.46618 0.0
C334 C 0.10516 0.54804 0.44524 0.0
C335 C 0.13311 0.57261 0.43474 0.0
C336 C 0.12776 0.56468 0.41262 0.0
C337 C 0.09154 0.53175 0.41148 0.0
C338 C 0.07835 0.52197 0.4306 0.0
C339 C 0.16132 0.55089 0.40459 0.0
C340 C 0.12309 0.6023 0.40349 0.0
H341 H 0.95698 0.41565 0.39579 0.0
H342 H 0.96476 0.42015 0.46965 0.0
H343 H 0.98505 0.51077 0.45711 0.0
H344 H 1.0312 0.53601 0.4647 0.0
H345 H 1.00425 0.49724 0.47934 0.0
H346 H 1.05042 0.42743 0.45547 0.0
H347 H 1.03678 0.44746 0.47833 0.0
H348 H 0.07836 0.47297 0.46575 0.0
H349 H 1.02023 0.4691 0.33408 0.0
H350 H 0.1286 0.55492 0.33336 0.0
H351 H 0.13196 0.55877 0.3693 0.0
H352 H 1.04368 0.41975 0.36749 0.0
H353 H 0.99535 0.41006 0.36 0.0
H354 H 1.00919 0.4063 0.38544 0.0
H355 H 0.98648 0.50965 0.3699 0.0
H356 H 0.96348 0.4742 0.38624 0.0
H357 H 0.9648 0.46046 0.36012 0.0
H358 H 0.90882 0.3715 0.4136 0.0
C359 C 0.95969 0.41761 0.41171 0.0
C360 C 0.57476 0.91928 0.82491 0.0
C361 C 0.5762 0.88288 0.8158 0.0
C362 C 0.57655 0.8786 0.79495 0.0
C363 C 0.57288 0.94522 0.7922 0.0
C364 C 0.57328 0.95029 0.81274 0.0
C365 C 0.57195 0.99156 0.81924 0.0
H366 H 0.55205 0.16779 0.7899 0.0
C367 C 0.56983 0.98168 0.78356 0.0
C368 C 0.56916 0.00942 0.79924 0.0
H369 H 0.56861 0.13972 0.8503 0.0
H370 H 0.57198 0.07443 0.83847 0.0
H371 H 0.61488 0.13556 0.77256 0.0
H372 H 0.49576 0.0867 0.77548 0.0
H373 H 0.50802 0.07175 0.75185 0.0
H374 H 0.51717 0.12348 0.7586 0.0
H375 H 0.58276 0.14876 0.75607 0.0
H376 H 0.60157 0.10796 0.75002 0.0
C377 C 0.60888 0.01268 0.83064 0.0
C378 C 0.53676 0.98868 0.83173 0.0
C379 C 0.56153 0.98586 0.70807 0.0
C380 C 0.55715 0.01483 0.69547 0.0
C381 C 0.55375 0.0507 0.70407 0.0
C382 C 0.55491 0.05775 0.72475 0.0
C383 C 0.55958 0.02871 0.73715 0.0
C384 C 0.56258 0.99343 0.72877 0.0
C385 C 0.5669 0.96591 0.74433 0.0
C386 C 0.56658 0.99081 0.76341 0.0
C387 C 0.56234 0.02743 0.75906 0.0
C388 C 0.6053 0.95724 0.74141 0.0
C389 C 0.53235 0.9292 0.74238 0.0
C390 C 0.55599 0.14757 0.80069 0.0
C391 C 0.5594 0.15876 0.82104 0.0
C392 C 0.5657 0.13175 0.83449 0.0
C393 C 0.56762 0.09392 0.8276 0.0
C394 C 0.56387 0.08323 0.80702 0.0
C395 C 0.55859 0.11046 0.79409 0.0
C396 C 0.55693 0.09617 0.77274 0.0
C397 C 0.56165 0.05559 0.77465 0.0
C398 C 0.5654 0.04729 0.79473 0.0
C399 C 0.59048 0.12347 0.76212 0.0
C400 C 0.51764 0.09459 0.76402 0.0
H401 H 0.57499 0.90365 0.76738 0.0
H402 H 0.57457 0.92332 0.84096 0.0
H403 H 0.51157 0.96877 0.8239 0.0
H404 H 0.53091 0.01732 0.83432 0.0
H405 H 0.53983 0.97681 0.84642 0.0
H406 H 0.6333 0.00751 0.82261 0.0
H407 H 0.60908 1.00163 0.84578 0.0
H408 H 0.61383 0.0448 0.832 0.0
H409 H 0.56384 0.95781 0.70197 0.0
H410 H 0.55092 0.07378 0.69477 0.0
H411 H 0.55235 0.08578 0.73022 0.0
H412 H 0.62653 0.98329 0.73609 0.0
H413 H 0.60297 0.93248 0.73023 0.0
H414 H 0.61765 0.95083 0.75541 0.0
H415 H 0.507 0.93696 0.73707 0.0
H416 H 0.52416 0.91593 0.75675 0.0
H417 H 0.53732 0.90652 0.73159 0.0
H418 H 0.57761 0.85094 0.7877 0.0
C419 C 0.5749 0.90932 0.78317 0.0
C420 C 0.66933 0.50718 0.14289 0.0
C421 C 0.70348 0.51047 0.13198 0.0
C422 C 0.70139 0.51448 0.11141 0.0
C423 C 0.63528 0.5132 0.11237 0.0
C424 C 0.63517 0.5087 0.13264 0.0
C425 C 0.59516 0.50637 0.1404 0.0
H426 H 0.41375 0.51692 0.11102 0.0
C427 C 0.59748 0.51472 0.10532 0.0
C428 C 0.57253 0.51075 0.1215 0.0
H429 H 0.44128 0.49669 0.17103 0.0
H430 H 0.5063 0.49866 0.1608 0.0
H431 H 0.4847 0.58086 0.10293 0.0
H432 H 0.44851 0.45615 0.09206 0.0
H433 H 0.47432 0.4726 0.07104 0.0
H434 H 0.43334 0.48883 0.07668 0.0
H435 H 0.45229 0.5573 0.08316 0.0
H436 H 0.50222 0.57325 0.07947 0.0
C437 C 0.59719 0.54018 0.15595 0.0
C438 C 0.57828 0.46629 0.14914 0.0
C439 C 0.58203 0.53455 0.03134 0.0
C440 C 0.5513 0.53727 0.01962 0.0
C441 C 0.51673 0.53398 0.02886 0.0
C442 C 0.5129 0.52887 0.04922 0.0
C443 C 0.54377 0.52641 0.06083 0.0
C444 C 0.57749 0.52902 0.05182 0.0
C445 C 0.60688 0.52506 0.06644 0.0
C446 C 0.58522 0.51983 0.08579 0.0
C447 C 0.54845 0.52082 0.08233 0.0
C448 C 0.63902 0.56407 0.06716 0.0
C449 C 0.61855 0.48763 0.05975 0.0
C450 C 0.43328 0.51331 0.12234 0.0
C451 C 0.42144 0.50744 0.14191 0.0
C452 C 0.44882 0.50156 0.15568 0.0
C453 C 0.48661 0.5028 0.14981 0.0
C454 C 0.49757 0.50926 0.12981 0.0
C455 C 0.46995 0.51379 0.11679 0.0
C456 C 0.48282 0.51845 0.09605 0.0
C457 C 0.52296 0.51712 0.09812 0.0
C458 C 0.53353 0.51183 0.11791 0.0
C459 C 0.48024 0.55933 0.08988 0.0
C460 C 0.45851 0.48249 0.08315 0.0
H461 H 0.67031 0.51908 0.08612 0.0
H462 H 0.6694 0.50411 0.15881 0.0
H463 H 0.57767 0.44212 0.13784 0.0
H464 H 0.54915 0.46322 0.15392 0.0
H465 H 0.59523 0.46275 0.16224 0.0
H466 H 0.61008 0.56894 0.14951 0.0
H467 H 0.61444 0.53767 0.16913 0.0
H468 H 0.56878 0.53992 0.16101 0.0
H469 H 0.6091 0.53698 0.02483 0.0
H470 H 0.49215 0.53475 0.02028 0.0
H471 H 0.48574 0.52701 0.05498 0.0
H472 H 0.6282 0.58949 0.06406 0.0
H473 H 0.66051 0.56295 0.05593 0.0
H474 H 0.65282 0.57191 0.08202 0.0
H475 H 0.59525 0.4655 0.05153 0.0
H476 H 0.6252 0.47187 0.07243 0.0
H477 H 0.64285 0.49471 0.04973 0.0
H478 H 0.72607 0.51692 0.10251 0.0
C479 C 0.66834 0.51575 0.10178 0.0
H480 H 0.2026 0.56132 0.13691 0.0
H481 H 0.36472 0.45544 0.16309 0.0
H482 H 0.17632 0.44862 0.16269 0.0
H483 H 0.38359 0.56037 0.13071 0.0
H484 H 0.29773 0.45395 0.16571 0.0
H485 H 0.26904 0.5626 0.13676 0.0
C486 C 0.21051 0.5367 0.14261 0.0
C487 C 0.18268 0.50475 0.14979 0.0
C488 C 0.31656 0.47749 0.15814 0.0
C489 C 0.26096 0.5062 0.14976 0.0
C490 C 0.35524 0.47859 0.15681 0.0
C491 C 0.38089 0.50814 0.14666 0.0
C492 C 0.30267 0.50636 0.14944 0.0
C493 C 0.36566 0.53674 0.13862 0.0
C494 C 0.24894 0.53748 0.14251 0.0
C495 C 0.19599 0.47402 0.15694 0.0
N496 N 0.32834 0.53509 0.14017 0.0
N497 N 0.2336 0.47555 0.15676 0.0
H498 H 0.72569 0.22039 0.46663 0.0
H499 H 0.94154 0.34578 0.47294 0.0
H500 H 0.81161 0.18475 0.49797 0.0
H501 H 0.85706 0.37323 0.43653 0.0
H502 H 0.8928 0.2923 0.48655 0.0
H503 H 0.77203 0.28159 0.45942 0.0
C504 C 0.75431 0.22546 0.47203 0.0
C505 C 0.76484 0.19714 0.48271 0.0
C506 C 0.88489 0.31029 0.47573 0.0
C507 C 0.8181 0.2674 0.47463 0.0
C508 C 0.91265 0.34097 0.46808 0.0
C509 C 0.90335 0.36363 0.45343 0.0
C510 C 0.84761 0.3024 0.46871 0.0
C511 C 0.86552 0.35599 0.44755 0.0
C512 C 0.78073 0.26052 0.46799 0.0
C513 C 0.80216 0.20577 0.48974 0.0
N514 N 0.83912 0.32588 0.45509 0.0
N515 N 0.82752 0.23997 0.48542 0.0
H516 H 0.63441 0.67501 0.85158 0.0
H517 H 0.51545 0.82539 0.82645 0.0
H518 H 0.51705 0.64034 0.83444 0.0
H519 H 0.63613 0.85902 0.82858 0.0
H520 H 0.5149 0.75975 0.83646 0.0
H521 H 0.63495 0.74429 0.84968 0.0
C522 C 0.60869 0.68189 0.84766 0.0
C523 C 0.57574 0.65162 0.84301 0.0
C524 C 0.54157 0.78167 0.83518 0.0
C525 C 0.57609 0.73089 0.84094 0.0
C526 C 0.54183 0.8193 0.82973 0.0
C527 C 0.57586 0.84788 0.82711 0.0
C528 C 0.57565 0.77228 0.8379 0.0
C529 C 0.60931 0.83803 0.83087 0.0
C530 C 0.60905 0.72145 0.84651 0.0
C531 C 0.54327 0.66248 0.83796 0.0
N532 N 0.60841 0.80103 0.83596 0.0
N533 N 0.54431 0.70098 0.83704 0.0
H534 H 0.91652 0.44823 0.15427 0.0
H535 H 0.76707 0.573 0.13486 0.0
H536 H 0.94802 0.56729 0.1361 0.0
H537 H 0.7316 0.44969 0.14493 0.0
H538 H 0.83277 0.57239 0.13871 0.0
H539 H 0.85019 0.44877 0.15368 0.0
C540 C 0.90982 0.47464 0.15016 0.0
C541 C 0.93902 0.50776 0.14517 0.0
C542 C 0.81083 0.54547 0.1405 0.0
C543 C 0.86126 0.50865 0.14466 0.0
C544 C 0.77287 0.54592 0.13861 0.0
C545 C 0.74268 0.51169 0.14025 0.0
C546 C 0.82002 0.51032 0.14393 0.0
C547 C 0.75314 0.47728 0.14422 0.0
C548 C 0.87151 0.47487 0.14983 0.0
C549 C 0.92732 0.54082 0.14003 0.0
N550 N 0.79038 0.47751 0.14586 0.0
N551 N 0.89004 0.54037 0.13997 0.0
H552 H 0.36299 0.79785 0.48367 0.0
H553 H 0.15899 0.65478 0.49784 0.0
H554 H 0.29966 0.80558 0.53657 0.0
H555 H 0.23792 0.63023 0.45583 0.0
H556 H 0.20862 0.71082 0.51211 0.0
H557 H 0.31582 0.73771 0.47275 0.0
C558 C 0.33944 0.78673 0.49317 0.0
C559 C 0.33564 0.80691 0.5112 0.0
C560 C 0.21506 0.69294 0.49986 0.0
C561 C 0.28067 0.73807 0.4984 0.0
C562 C 0.18681 0.6608 0.49178 0.0
C563 C 0.19411 0.63795 0.47544 0.0
C564 C 0.25074 0.70243 0.49145 0.0
C565 C 0.23067 0.64749 0.46809 0.0
C566 C 0.31231 0.75237 0.48682 0.0
C567 C 0.30368 0.79139 0.52247 0.0
N568 N 0.25743 0.67913 0.47602 0.0
N569 N 0.27734 0.75799 0.51584 0.0
H570 H 0.50236 0.37968 0.82259 0.0
H571 H 0.60802 0.21626 0.84526 0.0
H572 H 0.61309 0.40818 0.84978 0.0
H573 H 0.5051 0.19302 0.81075 0.0
H574 H 0.60724 0.28519 0.85083 0.0
H575 H 0.50021 0.31017 0.82146 0.0
C576 C 0.52622 0.37144 0.8284 0.0
C577 C 0.558 0.40019 0.83623 0.0
C578 C 0.58464 0.26488 0.84221 0.0
C579 C 0.55565 0.31996 0.83501 0.0
C580 C 0.58491 0.22545 0.8392 0.0
C581 C 0.55665 0.19882 0.82747 0.0
C582 C 0.55574 0.27771 0.83355 0.0
C583 C 0.52761 0.21255 0.81977 0.0
C584 C 0.52496 0.33158 0.82774 0.0
C585 C 0.58797 0.38729 0.84354 0.0
N586 N 0.528 0.25086 0.82286 0.0
N587 N 0.58608 0.34828 0.84273 0.0
H588 H 0.61669 0.88637 0.49978 0.0
H589 H 0.50296 0.66834 0.52715 0.0
H590 H 0.50331 0.85421 0.5208 0.0
H591 H 0.623 0.70484 0.52204 0.0
H592 H 0.50049 0.73332 0.51756 0.0
H593 H 0.61765 0.81771 0.50155 0.0
C594 C 0.59187 0.86494 0.50458 0.0
C595 C 0.55985 0.87637 0.51016 0.0
C596 C 0.52735 0.72695 0.5181 0.0
C597 C 0.56071 0.79752 0.51203 0.0
C598 C 0.52866 0.68968 0.52328 0.0
C599 C 0.56314 0.68107 0.52497 0.0
C600 C 0.56084 0.75604 0.51472 0.0
C601 C 0.59581 0.71016 0.52048 0.0
C602 C 0.59248 0.82572 0.5056 0.0
C603 C 0.52862 0.84709 0.51631 0.0
N604 N 0.59393 0.74645 0.51568 0.0
N605 N 0.52986 0.80923 0.51708 0.0
H606 H 0.78182 0.4155 0.85305 0.0
H607 H 0.95362 0.52887 0.8042 0.0
H608 H 0.77525 0.4801 0.80124 0.0
H609 H 0.95386 0.42579 0.83554 0.0
H610 H 0.88796 0.49988 0.79563 0.0
H611 H 0.84089 0.40594 0.84134 0.0
C612 C 0.79235 0.42667 0.83891 0.0
C613 C 0.77437 0.44954 0.82837 0.0
C614 C 0.90252 0.48293 0.80389 0.0
C615 C 0.8421 0.43961 0.81509 0.0
C616 C 0.94036 0.4995 0.80873 0.0
C617 C 0.95896 0.48062 0.8215 0.0
C618 C 0.883 0.44796 0.8124 0.0
C619 C 0.94004 0.44237 0.82659 0.0
C620 C 0.82596 0.42105 0.83213 0.0
C621 C 0.78863 0.46276 0.80996 0.0
N622 N 0.90266 0.42787 0.82269 0.0
N623 N 0.82232 0.45865 0.80418 0.0
H624 H 0.27226 0.73333 0.1245 0.0
H625 H 0.37311 0.89717 0.20884 0.0
H626 H 0.22323 0.75362 0.18053 0.0
H627 H 0.43435 0.8596 0.16113 0.0
H628 H 0.3156 0.85088 0.19557 0.0
H629 H 0.32959 0.78506 0.13482 0.0
C630 C 0.27349 0.74882 0.1389 0.0
C631 C 0.24305 0.73898 0.15175 0.0
C632 C 0.34154 0.85272 0.18793 0.0
C633 C 0.30822 0.79812 0.16355 0.0
C634 C 0.37448 0.87914 0.19553 0.0
C635 C 0.40881 0.88181 0.1863 0.0
C636 C 0.3426 0.82869 0.17084 0.0
C637 C 0.40854 0.85847 0.16874 0.0
C638 C 0.30621 0.77816 0.1448 0.0
C639 C 0.24619 0.75982 0.17028 0.0
N640 N 0.37596 0.83262 0.16164 0.0
N641 N 0.27808 0.78834 0.17558 0.0
H642 H 0.49871 0.11044 0.5332 0.0
H643 H 0.59686 0.33307 0.50602 0.0
H644 H 0.59977 0.1431 0.49927 0.0
H645 H 0.49878 0.29726 0.54185 0.0
H646 H 0.59592 0.2636 0.50057 0.0
H647 H 0.49644 0.17848 0.53428 0.0
C648 C 0.52049 0.13188 0.52595 0.0
C649 C 0.54958 0.1208 0.51621 0.0
C650 C 0.57439 0.27096 0.50945 0.0
C651 C 0.54707 0.19945 0.51734 0.0
C652 C 0.57473 0.31056 0.51239 0.0
C653 C 0.54797 0.32099 0.52448 0.0
C654 C 0.54698 0.24163 0.51859 0.0
C655 C 0.52016 0.29062 0.53257 0.0
C656 C 0.51913 0.17088 0.52654 0.0
C657 C 0.57685 0.15017 0.50703 0.0
N658 N 0.52054 0.25257 0.52958 0.0
N659 N 0.575 0.18809 0.50786 0.0
H660 H 0.43356 0.67629 0.83871 0.0
H661 H 0.22929 0.69031 0.8235 0.0
H662 H 0.35666 0.6204 0.79047 0.0
H663 H 0.29854 0.74097 0.87575 0.0
H664 H 0.28406 0.68765 0.80611 0.0
H665 H 0.39329 0.7186 0.84707 0.0
C666 C 0.40854 0.67333 0.82966 0.0
C667 C 0.39774 0.64373 0.8143 0.0
C668 C 0.28737 0.69973 0.82135 0.0
C669 C 0.35203 0.69245 0.8236 0.0
C670 C 0.25558 0.70171 0.8316 0.0
C671 C 0.25787 0.7135 0.85207 0.0
C672 C 0.32192 0.70853 0.83156 0.0
C673 C 0.29422 0.72865 0.86062 0.0
C674 C 0.38577 0.69773 0.83436 0.0
C675 C 0.36594 0.64234 0.8026 0.0
N676 N 0.32463 0.72437 0.85057 0.0
N677 N 0.34385 0.66578 0.80774 0.0
H678 H 0.85046 0.3266 0.19326 0.0
H679 H 0.72535 0.10196 0.18605 0.0
H680 H 0.88549 0.23368 0.16227 0.0
H681 H 0.70598 0.19139 0.22701 0.0
H682 H 0.77844 0.15146 0.17262 0.0
H683 H 0.79201 0.27888 0.20141 0.0
C684 C 0.84593 0.29616 0.18816 0.0
C685 C 0.87331 0.28418 0.17726 0.0
C686 C 0.76232 0.16025 0.18443 0.0
C687 C 0.80592 0.22925 0.18637 0.0
C688 C 0.73194 0.13211 0.19198 0.0
C689 C 0.71156 0.1426 0.20777 0.0
C690 C 0.772 0.19914 0.19261 0.0
C691 C 0.72132 0.182 0.21501 0.0
C692 C 0.8124 0.26893 0.19274 0.0
C693 C 0.86523 0.2444 0.17063 0.0
N694 N 0.75086 0.20874 0.20744 0.0
N695 N 0.8324 0.21833 0.17539 0.0
H696 H 0.09536 0.44521 0.0842 0.0
H697 H 0.08108 0.47587 0.98402 0.0
H698 H 1.04418 0.53986 0.0929 0.0
H699 H 0.09258 0.59674 0.00273 0.0
H700 H 0.07832 0.45923 0.01877 0.0
H701 H 0.10666 0.46182 0.04962 0.0
C702 C 0.08626 0.46935 0.07875 0.0
C703 C 0.06829 0.49082 0.09128 0.0
C704 C 0.08235 0.48958 0.0154 0.0
C705 C 0.08058 0.50966 0.05165 0.0
C706 C 0.08354 0.499 -0.00446 0.0
C707 C 0.0871 0.53771 0.99058 0.0
C708 C 0.08456 0.51908 0.03047 0.0
C709 C 0.09014 0.56661 0.00602 0.0
C710 C 0.09249 0.47866 0.05898 0.0
C711 C 0.05768 0.52227 0.0836 0.0
N712 N 0.0883 0.5566 0.02534 0.0
N713 N 0.064 0.53078 0.06422 0.0
H714 H 0.48318 0.01625 0.4507 0.0
H715 H 0.60278 0.98579 0.35598 0.0
H716 H 0.58082 0.97365 0.45547 0.0
H717 H 0.48808 0.99054 0.3525 0.0
H718 H 0.60012 0.99013 0.39253 0.0
H719 H 0.4896 0.01607 0.41464 0.0
C720 C 0.50606 0.00693 0.44413 0.0
C721 C 0.53137 0.99469 0.45603 0.0
C722 C 0.57559 0.9902 0.38372 0.0
C723 C 0.53902 0.9946 0.41475 0.0
C724 C 0.57716 0.98794 0.36293 0.0
C725 C 0.5455 0.98751 0.35127 0.0
C726 C 0.54234 0.99271 0.39281 0.0
C727 C 0.51294 0.99022 0.36095 0.0
C728 C 0.50967 0.00677 0.42354 0.0
C729 C 0.56063 0.98313 0.44677 0.0
N730 N 0.51224 0.9928 0.38113 0.0
N731 N 0.5637 0.98337 0.42661 0.0
H732 H 0.54263 0.48172 0.78337 0.0
H733 H 0.60968 0.57046 0.67848 0.0
H734 H 0.63502 0.58518 0.77709 0.0
H735 H 0.52047 0.46408 0.68466 0.0
H736 H 0.61595 0.57947 0.71474 0.0
H737 H 0.53094 0.47754 0.74737 0.0
C738 C 0.56031 0.50367 0.77439 0.0
C739 C 0.58988 0.53378 0.78313 0.0
C740 C 0.59488 0.55425 0.70817 0.0
C741 C 0.57688 0.52914 0.742 0.0
C742 C 0.59112 0.54923 0.68747 0.0
C743 C 0.56468 0.51632 0.67853 0.0
C744 C 0.57201 0.52618 0.72003 0.0
C745 C 0.54167 0.48952 0.69092 0.0
C746 C 0.55368 0.50127 0.75386 0.0
C747 C 0.61202 0.56142 0.77088 0.0
N748 N 0.54597 0.49495 0.71102 0.0
N749 N 0.60515 0.55837 0.75091 0.0
H750 H 0.61933 0.97201 0.57443 0.0
H751 H 0.51216 0.03484 0.66774 0.0
H752 H 0.53123 0.02879 0.56924 0.0
H753 H 0.60214 0.9806 0.67302 0.0
H754 H 0.51595 0.02903 0.63154 0.0
H755 H 0.61068 0.97101 0.61042 0.0
C756 C 0.59809 0.98418 0.58089 0.0
C757 C 0.57615 1.00078 0.56892 0.0
C758 C 0.53475 0.01821 0.6406 0.0
C759 C 0.56605 0.99974 0.61005 0.0
C760 C 0.53271 0.02166 0.66128 0.0
C761 C 0.55709 0.00849 0.67346 0.0
C762 C 0.56144 1.00153 0.63195 0.0
C763 C 0.58263 0.99093 0.66424 0.0
C764 C 0.59314 0.98358 0.60143 0.0
C765 C 0.54888 0.01593 0.57799 0.0
N766 N 0.5843 0.98821 0.64405 0.0
N767 N 0.5447 0.0152 0.59804 0.0
H768 H 0.59601 0.52933 0.89262 0.0
H769 H 0.51746 0.58054 -0.00296 0.0
H770 H 0.4846 0.5421 0.89927 0.0
H771 H 0.59188 0.50627 0.99228 0.0
H772 H 0.51541 0.58162 0.96085 0.0
H773 H 0.60457 0.53511 0.92901 0.0
C774 C 0.57351 0.5336 0.90175 0.0
C775 C 0.53951 0.535 0.89304 0.0
C776 C 0.53232 0.56528 0.96779 0.0
C777 C 0.54928 0.54237 0.93437 0.0
C778 C 0.53342 0.56444 0.98844 0.0
C779 C 0.55419 0.54247 -0.00219 0.0
C780 C 0.55272 0.54472 0.95632 0.0
C781 C 0.57547 0.52357 0.98579 0.0
C782 C 0.57837 0.53679 0.92244 0.0
C783 C 0.51116 0.54062 0.90547 0.0
N784 N 0.57406 0.52498 0.96562 0.0
N785 N 0.51674 0.5443 0.92554 0.0
H786 H 1.02158 0.5579 0.21144 0.0
H787 H 0.12657 0.50338 0.30414 0.0
H788 H 0.10339 0.49283 0.20428 0.0
H789 H 1.01582 0.51937 0.30802 0.0
H790 H 0.12241 0.5051 0.26778 0.0
H791 H 1.02251 0.54971 0.24734 0.0
C792 C 1.03966 0.54181 0.21746 0.0
C793 C 0.06256 0.52614 0.205 0.0
C794 C 0.09895 0.50794 0.2766 0.0
C795 C 0.06409 0.51707 0.24592 0.0
C796 C 0.1014 0.50719 0.29729 0.0
C797 C 0.0715 0.51129 0.309 0.0
C798 C 0.06669 0.51362 0.26767 0.0
C799 C 1.03937 0.51587 0.29947 0.0
C800 C 1.04008 0.53703 0.2379 0.0
C801 C 0.08535 0.50537 0.21346 0.0
N802 N 1.03795 0.51731 0.27935 0.0
N803 N 0.08586 0.50177 0.23348 0.0
loop_
_geom_bond_atom_site_label_1
_geom_bond_atom_site_label_2
_geom_bond_distance
_geom_bond_site_symmetry_2
_ccdc_geom_bond_type
Nd0 C2 2.836 . S
Nd0 O20 2.500 . S
Nd0 O21 2.492 . S
Nd0 O22 2.487 . S
Nd0 O23 2.682 . S
Nd0 O24 2.410 . S
Nd0 O29 2.414 . S
Nd0 O31 2.424 1_455 S
Nd1 C11 2.836 . S
Nd1 O23 2.414 1_655 S
Nd1 O25 2.424 1_655 S
Nd1 O26 2.500 . S
Nd1 O27 2.492 . S
Nd1 O28 2.487 1_655 S
Nd1 O29 2.682 1_655 S
Nd1 O30 2.410 . S
C2 Nd0 2.836 . S
C2 C3 1.498 . S
C2 O20 1.258 . S
C2 O21 1.239 . S
C3 C2 1.498 . S
C3 C4 1.366 . S
C3 C8 1.407 . S
C4 C3 1.366 . S
C4 C5 1.392 . S
C4 H32 0.930 . S
C5 C4 1.392 . S
C5 C6 1.398 . S
C5 H33 0.929 . S
C6 C5 1.398 . S
C6 C7 1.352 . S
C7 C6 1.352 . S
C7 C8 1.384 . S
C7 H34 0.930 . S
C8 C3 1.407 . S
C8 C7 1.384 . S
C8 H35 0.929 . S
C9 O22 1.241 . S
C9 O23 1.273 . S
C10 O24 1.251 . S
C10 O25 1.268 . S
C11 Nd1 2.836 . S
C11 C12 1.498 . S
C11 O26 1.258 . S
C11 O27 1.239 . S
C12 C11 1.498 . S
C12 C13 1.366 . S
C12 C17 1.407 . S
C13 C12 1.366 . S
C13 C14 1.392 . S
C13 H36 0.930 . S
C14 C13 1.392 . S
C14 C15 1.398 . S
C14 H37 0.929 . S
C15 C14 1.398 . S
C15 C16 1.352 . S
C16 C15 1.352 . S
C16 C17 1.384 . S
C16 H38 0.930 . S
C17 C12 1.407 . S
C17 C16 1.384 . S
C17 H39 0.929 . S
C18 O28 1.241 . S
C18 O29 1.273 . S
C19 O30 1.251 . S
C19 O31 1.268 . S
O20 Nd0 2.500 . S
O20 C2 1.258 . S
O21 Nd0 2.492 . S
O21 C2 1.239 . S
O22 Nd0 2.487 . S
O22 C9 1.241 . S
O23 Nd0 2.682 . S
O23 Nd1 2.414 1_455 S
O23 C9 1.273 . S
O24 Nd0 2.410 . S
O24 C10 1.251 . S
O25 Nd1 2.424 1_455 S
O25 C10 1.268 . S
O26 Nd1 2.500 . S
O26 C11 1.258 . S
O27 Nd1 2.492 . S
O27 C11 1.239 . S
O28 Nd1 2.487 1_455 S
O28 C18 1.241 . S
O29 Nd0 2.414 . S
O29 Nd1 2.682 1_455 S
O29 C18 1.273 . S
O30 Nd1 2.410 . S
O30 C19 1.251 . S
O31 Nd0 2.424 1_655 S
O31 C19 1.268 . S
H32 C4 0.930 . S
H33 C5 0.929 . S
H34 C7 0.930 . S
H35 C8 0.929 . S
H36 C13 0.930 . S
H37 C14 0.929 . S
H38 C16 0.930 . S
H39 C17 0.929 . S
Nd40 C42 2.823 1_545 S
Nd40 O60 2.488 1_545 S
Nd40 O61 2.482 1_545 S
Nd40 O62 2.487 1_545 S
Nd40 O63 2.683 . S
Nd40 O64 2.392 1_545 S
Nd40 O69 2.411 . S
Nd40 O71 2.442 . S
Nd41 C51 2.836 . S
Nd41 O63 2.414 . S
Nd41 O65 2.424 1_545 S
Nd41 O66 2.500 . S
Nd41 O67 2.492 . S
Nd41 O68 2.487 . S
Nd41 O69 2.682 . S
Nd41 O70 2.410 . S
C42 Nd40 2.823 1_565 S
C42 C43 1.498 . S
C42 O60 1.258 . S
C42 O61 1.239 . S
C43 C42 1.498 . S
C43 C44 1.366 . S
C43 C48 1.407 . S
C44 C43 1.366 . S
C44 C45 1.392 . S
C44 H72 0.930 . S
C45 C44 1.392 . S
C45 C46 1.398 . S
C45 H73 0.929 . S
C46 C45 1.398 . S
C46 C47 1.352 . S
C47 C46 1.352 . S
C47 C48 1.384 . S
C47 H74 0.930 . S
C48 C43 1.407 . S
C48 C47 1.384 . S
C48 H75 0.929 . S
C49 O62 1.241 1_545 S
C49 O63 1.273 . S
C50 O64 1.251 . S
C50 O65 1.268 . S
C51 Nd41 2.836 . S
C51 C52 1.498 . S
C51 O66 1.258 . S
C51 O67 1.239 . S
C52 C51 1.498 . S
C52 C53 1.366 . S
C52 C57 1.407 . S
C53 C52 1.366 . S
C53 C54 1.392 . S
C53 H76 0.930 . S
C54 C53 1.392 . S
C54 C55 1.398 . S
C54 H77 0.929 . S
C55 C54 1.398 . S
C55 C56 1.352 . S
C56 C55 1.352 . S
C56 C57 1.384 . S
C56 H78 0.930 . S
C57 C52 1.407 . S
C57 C56 1.384 . S
C57 H79 0.929 . S
C58 O68 1.241 . S
C58 O69 1.273 . S
C59 O70 1.251 . S
C59 O71 1.268 . S
O60 Nd40 2.488 1_565 S
O60 C42 1.258 . S
O61 Nd40 2.482 1_565 S
O61 C42 1.239 . S
O62 Nd40 2.487 1_565 S
O62 C49 1.241 1_565 S
O63 Nd40 2.683 . S
O63 Nd41 2.414 . S
O63 C49 1.273 . S
O64 Nd40 2.392 1_565 S
O64 C50 1.251 . S
O65 Nd41 2.424 1_565 S
O65 C50 1.268 . S
O66 Nd41 2.500 . S
O66 C51 1.258 . S
O67 Nd41 2.492 . S
O67 C51 1.239 . S
O68 Nd41 2.487 . S
O68 C58 1.241 . S
O69 Nd40 2.411 . S
O69 Nd41 2.682 . S
O69 C58 1.273 . S
O70 Nd41 2.410 . S
O70 C59 1.251 . S
O71 Nd40 2.442 . S
O71 C59 1.268 . S
H72 C44 0.930 . S
H73 C45 0.929 . S
H74 C47 0.930 . S
H75 C48 0.929 . S
H76 C53 0.930 . S
H77 C54 0.929 . S
H78 C56 0.930 . S
H79 C57 0.929 . S
Nd80 C82 2.836 . S
Nd80 O100 2.500 . S
Nd80 O101 2.492 . S
Nd80 O102 2.487 . S
Nd80 O103 2.682 . S
Nd80 O104 2.410 . S
Nd80 O109 2.414 . S
Nd80 O111 2.424 . S
Nd81 C91 2.836 . S
Nd81 O103 2.414 . S
Nd81 O105 2.424 . S
Nd81 O106 2.500 . S
Nd81 O107 2.492 . S
Nd81 O108 2.487 . S
Nd81 O109 2.682 . S
Nd81 O110 2.410 . S
C82 Nd80 2.836 . S
C82 C83 1.498 . S
C82 O100 1.258 . S
C82 O101 1.239 . S
C83 C82 1.498 . S
C83 C84 1.366 . S
C83 C88 1.407 . S
C84 C83 1.366 . S
C84 C85 1.392 . S
C84 H112 0.930 . S
C85 C84 1.392 . S
C85 C86 1.398 . S
C85 H113 0.929 . S
C86 C85 1.398 . S
C86 C87 1.352 . S
C87 C86 1.352 . S
C87 C88 1.384 . S
C87 H114 0.930 . S
C88 C83 1.407 . S
C88 C87 1.384 . S
C88 H115 0.929 . S
C89 O102 1.241 . S
C89 O103 1.273 . S
C90 O104 1.251 . S
C90 O105 1.268 . S
C91 Nd81 2.836 . S
C91 C92 1.498 . S
C91 O106 1.258 . S
C91 O107 1.239 . S
C92 C91 1.498 . S
C92 C93 1.366 . S
C92 C97 1.407 . S
C93 C92 1.366 . S
C93 C94 1.392 . S
C93 H116 0.930 . S
C94 C93 1.392 . S
C94 C95 1.398 . S
C94 H117 0.929 . S
C95 C94 1.398 . S
C95 C96 1.352 . S
C96 C95 1.352 . S
C96 C97 1.384 . S
C96 H118 0.930 . S
C97 C92 1.407 . S
C97 C96 1.384 . S
C97 H119 0.929 . S
C98 O108 1.241 . S
C98 O109 1.273 . S
C99 O110 1.251 . S
C99 O111 1.268 . S
O100 Nd80 2.500 . S
O100 C82 1.258 . S
O101 Nd80 2.492 . S
O101 C82 1.239 . S
O102 Nd80 2.487 . S
O102 C89 1.241 . S
O103 Nd80 2.682 . S
O103 Nd81 2.414 . S
O103 C89 1.273 . S
O104 Nd80 2.410 . S
O104 C90 1.251 . S
O105 Nd81 2.424 . S
O105 C90 1.268 . S
O106 Nd81 2.500 . S
O106 C91 1.258 . S
O107 Nd81 2.492 . S
O107 C91 1.239 . S
O108 Nd81 2.487 . S
O108 C98 1.241 . S
O109 Nd80 2.414 . S
O109 Nd81 2.682 . S
O109 C98 1.273 . S
O110 Nd81 2.410 . S
O110 C99 1.251 . S
O111 Nd80 2.424 . S
O111 C99 1.268 . S
H112 C84 0.930 . S
H113 C85 0.929 . S
H114 C87 0.930 . S
H115 C88 0.929 . S
H116 C93 0.930 . S
H117 C94 0.929 . S
H118 C96 0.930 . S
H119 C97 0.929 . S
C120 C121 1.391 . S
C120 C124 1.391 . S
C120 H162 0.948 . S
C121 C120 1.391 . S
C121 C122 1.391 . S
C122 C121 1.391 . S
C122 H178 0.947 . S
C122 C179 1.392 . S
C123 C124 1.391 . S
C123 C127 1.397 . S
C123 C179 1.419 . S
C124 C120 1.391 . S
C124 C123 1.391 . S
C124 C125 1.399 . S
C125 C124 1.399 . S
C125 C128 1.396 . S
C125 C137 1.453 . S
C125 C138 1.684 . S
H126 C150 0.948 . S
C127 C123 1.397 . S
C127 C128 1.394 . S
C127 C146 1.723 . S
C128 C125 1.396 . S
C128 C127 1.394 . S
C128 C158 1.723 1_545 S
H129 C152 0.947 . S
H130 C153 0.948 . S
H131 C159 0.982 . S
H132 C160 0.979 . S
H133 C160 0.980 . S
H134 C160 0.983 . S
H135 C159 0.979 . S
H136 C159 0.977 . S
C137 C125 1.453 . S
C137 H166 0.982 . S
C137 H167 0.979 . S
C137 H168 0.977 1_545 S
C138 C125 1.684 . S
C138 H163 0.979 . S
C138 H164 0.980 . S
C138 H165 0.983 . S
C139 C140 1.391 . S
C139 C144 1.391 . S
C139 H169 0.948 . S
C140 C139 1.391 . S
C140 C141 1.391 . S
C141 C140 1.391 . S
C141 C142 1.391 1_545 S
C141 H170 0.947 1_545 S
C142 C141 1.391 1_565 S
C142 C143 1.409 1_565 S
C142 H171 0.958 . S
C143 C142 1.409 1_545 S
C143 C144 1.391 . S
C143 C147 1.397 . S
C144 C139 1.391 . S
C144 C143 1.391 . S
C144 C145 1.399 . S
C145 C144 1.399 . S
C145 C146 1.396 . S
C145 C148 1.453 . S
C145 C149 1.684 . S
C146 C127 1.723 . S
C146 C145 1.396 . S
C146 C147 1.394 . S
C147 C143 1.397 . S
C147 C146 1.394 . S
C147 C157 1.723 1_545 S
C148 C145 1.453 . S
C148 H172 0.982 . S
C148 H173 0.979 . S
C148 H174 0.977 . S
C149 C145 1.684 . S
C149 H175 0.979 . S
C149 H176 0.980 . S
C149 H177 0.983 . S
C150 H126 0.948 . S
C150 C151 1.391 . S
C150 C155 1.391 . S
C151 C150 1.391 . S
C151 C152 1.391 . S
C152 H129 0.947 . S
C152 C151 1.391 . S
C152 C153 1.392 . S
C153 H130 0.948 . S
C153 C152 1.392 . S
C153 C154 1.419 . S
C154 C153 1.419 . S
C154 C155 1.391 . S
C154 C158 1.397 . S
C155 C150 1.391 . S
C155 C154 1.391 . S
C155 C156 1.399 . S
C156 C155 1.399 . S
C156 C157 1.396 . S
C156 C159 1.453 . S
C156 C160 1.684 . S
C157 C147 1.723 1_565 S
C157 C156 1.396 . S
C157 C158 1.394 . S
C158 C128 1.723 1_565 S
C158 C154 1.397 . S
C158 C157 1.394 . S
C159 H131 0.982 . S
C159 H135 0.979 . S
C159 H136 0.977 . S
C159 C156 1.453 . S
C160 H132 0.979 . S
C160 H133 0.980 . S
C160 H134 0.983 . S
C160 C156 1.684 . S
H161 C179 0.948 . S
H162 C120 0.948 . S
H163 C138 0.979 . S
H164 C138 0.980 . S
H165 C138 0.983 . S
H166 C137 0.982 . S
H167 C137 0.979 . S
H168 C137 0.977 1_565 S
H169 C139 0.948 . S
H170 C141 0.947 1_565 S
H171 C142 0.958 . S
H172 C148 0.982 . S
H173 C148 0.979 . S
H174 C148 0.977 . S
H175 C149 0.979 . S
H176 C149 0.980 . S
H177 C149 0.983 . S
H178 C122 0.947 . S
C179 C122 1.392 . S
C179 C123 1.419 . S
C179 H161 0.948 . S
C180 C181 1.391 . S
C180 C184 1.391 . S
C180 H222 0.948 . S
C181 C180 1.391 . S
C181 C182 1.391 . S
C182 C181 1.391 . S
C182 H238 0.947 . S
C182 C239 1.392 . S
C183 C184 1.391 . S
C183 C187 1.397 . S
C183 C239 1.419 . S
C184 C180 1.391 . S
C184 C183 1.391 . S
C184 C185 1.399 . S
C185 C184 1.399 . S
C185 C188 1.396 . S
C185 C197 1.453 . S
C185 C198 1.684 . S
H186 C210 0.948 . S
C187 C183 1.397 . S
C187 C188 1.394 . S
C187 C206 1.723 . S
C188 C185 1.396 . S
C188 C187 1.394 . S
C188 C218 1.723 . S
H189 C212 0.947 . S
H190 C213 0.948 . S
H191 C219 0.982 . S
H192 C220 0.979 . S
H193 C220 0.980 . S
H194 C220 0.983 . S
H195 C219 0.979 . S
H196 C219 0.977 . S
C197 C185 1.453 . S
C197 H226 0.982 . S
C197 H227 0.979 . S
C197 H228 0.977 . S
C198 C185 1.684 . S
C198 H223 0.979 . S
C198 H224 0.980 . S
C198 H225 0.983 . S
C199 C200 1.391 . S
C199 C204 1.391 . S
C199 H229 0.948 . S
C200 C199 1.391 . S
C200 C201 1.391 . S
C201 C200 1.391 . S
C201 C202 1.392 . S
C201 H230 0.947 . S
C202 C201 1.392 . S
C202 C203 1.419 . S
C202 H231 0.948 . S
C203 C202 1.419 . S
C203 C204 1.391 . S
C203 C207 1.397 . S
C204 C199 1.391 . S
C204 C203 1.391 . S
C204 C205 1.399 . S
C205 C204 1.399 . S
C205 C206 1.396 . S
C205 C208 1.453 . S
C205 C209 1.684 . S
C206 C187 1.723 . S
C206 C205 1.396 . S
C206 C207 1.394 . S
C207 C203 1.397 . S
C207 C206 1.394 . S
C207 C217 1.723 . S
C208 C205 1.453 . S
C208 H232 0.982 . S
C208 H233 0.979 . S
C208 H234 0.977 . S
C209 C205 1.684 . S
C209 H235 0.979 . S
C209 H236 0.980 . S
C209 H237 0.983 . S
C210 H186 0.948 . S
C210 C211 1.391 . S
C210 C215 1.391 . S
C211 C210 1.391 . S
C211 C212 1.391 . S
C212 H189 0.947 . S
C212 C211 1.391 . S
C212 C213 1.392 . S
C213 H190 0.948 . S
C213 C212 1.392 . S
C213 C214 1.419 . S
C214 C213 1.419 . S
C214 C215 1.391 . S
C214 C218 1.397 . S
C215 C210 1.391 . S
C215 C214 1.391 . S
C215 C216 1.399 . S
C216 C215 1.399 . S
C216 C217 1.396 . S
C216 C219 1.453 . S
C216 C220 1.684 . S
C217 C207 1.723 . S
C217 C216 1.396 . S
C217 C218 1.394 . S
C218 C188 1.723 . S
C218 C214 1.397 . S
C218 C217 1.394 . S
C219 H191 0.982 . S
C219 H195 0.979 . S
C219 H196 0.977 . S
C219 C216 1.453 . S
C220 H192 0.979 . S
C220 H193 0.980 . S
C220 H194 0.983 . S
C220 C216 1.684 . S
H221 C239 0.948 . S
H222 C180 0.948 . S
H223 C198 0.979 . S
H224 C198 0.980 . S
H225 C198 0.983 . S
H226 C197 0.982 . S
H227 C197 0.979 . S
H228 C197 0.977 . S
H229 C199 0.948 . S
H230 C201 0.947 . S
H231 C202 0.948 . S
H232 C208 0.982 . S
H233 C208 0.979 . S
H234 C208 0.977 . S
H235 C209 0.979 . S
H236 C209 0.980 . S
H237 C209 0.983 . S
H238 C182 0.947 . S
C239 C182 1.392 . S
C239 C183 1.419 . S
C239 H221 0.948 . S
C240 C241 1.391 . S
C240 C244 1.391 . S
C240 H282 0.948 . S
C241 C240 1.391 . S
C241 C242 1.391 . S
C242 C241 1.391 . S
C242 H298 0.947 . S
C242 C299 1.392 . S
C243 C244 1.391 . S
C243 C247 1.397 . S
C243 C299 1.419 . S
C244 C240 1.391 . S
C244 C243 1.391 . S
C244 C245 1.399 . S
C245 C244 1.399 . S
C245 C248 1.396 . S
C245 C257 1.453 . S
C245 C258 1.684 . S
H246 C270 0.948 . S
C247 C243 1.397 . S
C247 C248 1.394 . S
C247 C266 1.723 . S
C248 C245 1.396 . S
C248 C247 1.394 . S
C248 C278 1.723 . S
H249 C272 0.947 . S
H250 C273 0.948 . S
H251 C279 0.982 . S
H252 C280 0.979 . S
H253 C280 0.980 . S
H254 C280 0.983 . S
H255 C279 0.979 . S
H256 C279 0.977 . S
C257 C245 1.453 . S
C257 H286 0.982 . S
C257 H287 0.979 . S
C257 H288 0.977 . S
C258 C245 1.684 . S
C258 H283 0.979 . S
C258 H284 0.980 . S
C258 H285 0.983 . S
C259 C260 1.391 . S
C259 C264 1.391 . S
C259 H289 0.948 . S
C260 C259 1.391 . S
C260 C261 1.391 1_455 S
C261 C260 1.391 1_655 S
C261 C262 1.392 . S
C261 H290 0.947 . S
C262 C261 1.392 . S
C262 C263 1.419 1_655 S
C262 H291 0.948 . S
C263 C262 1.419 1_455 S
C263 C264 1.391 . S
C263 C267 1.397 . S
C264 C259 1.391 . S
C264 C263 1.391 . S
C264 C265 1.399 . S
C265 C264 1.399 . S
C265 C266 1.396 . S
C265 C268 1.453 . S
C265 C269 1.684 . S
C266 C247 1.723 . S
C266 C265 1.396 . S
C266 C267 1.394 . S
C267 C263 1.397 . S
C267 C266 1.394 . S
C267 C277 1.723 1_455 S
C268 C265 1.453 . S
C268 H292 0.982 . S
C268 H293 0.979 . S
C268 H294 0.977 . S
C269 C265 1.684 . S
C269 H295 0.979 . S
C269 H296 0.980 . S
C269 H297 0.983 . S
C270 H246 0.948 . S
C270 C271 1.391 . S
C270 C275 1.391 . S
C271 C270 1.391 . S
C271 C272 1.391 . S
C272 H249 0.947 . S
C272 C271 1.391 . S
C272 C273 1.392 . S
C273 H250 0.948 . S
C273 C272 1.392 . S
C273 C274 1.419 . S
C274 C273 1.419 . S
C274 C275 1.391 . S
C274 C278 1.397 1_655 S
C275 C270 1.391 . S
C275 C274 1.391 . S
C275 C276 1.399 . S
C276 C275 1.399 . S
C276 C277 1.396 . S
C276 C279 1.453 . S
C276 C280 1.684 . S
C277 C267 1.723 1_655 S
C277 C276 1.396 . S
C277 C278 1.394 1_655 S
C278 C248 1.723 . S
C278 C274 1.397 1_455 S
C278 C277 1.394 1_455 S
C279 H251 0.982 . S
C279 H255 0.979 . S
C279 H256 0.977 . S
C279 C276 1.453 . S
C280 H252 0.979 . S
C280 H253 0.980 . S
C280 H254 0.983 . S
C280 C276 1.684 . S
H281 C299 0.948 . S
H282 C240 0.948 . S
H283 C258 0.979 . S
H284 C258 0.980 . S
H285 C258 0.983 . S
H286 C257 0.982 . S
H287 C257 0.979 . S
H288 C257 0.977 . S
H289 C259 0.948 . S
H290 C261 0.947 . S
H291 C262 0.948 . S
H292 C268 0.982 . S
H293 C268 0.979 . S
H294 C268 0.977 . S
H295 C269 0.979 . S
H296 C269 0.980 . S
H297 C269 0.983 . S
H298 C242 0.947 . S
C299 C242 1.392 . S
C299 C243 1.419 . S
C299 H281 0.948 . S
C300 C301 1.391 . S
C300 C304 1.391 . S
C300 H342 0.948 . S
C301 C300 1.391 . S
C301 C302 1.391 . S
C302 C301 1.391 . S
C302 H358 0.947 . S
C302 C359 1.392 . S
C303 C304 1.391 . S
C303 C307 1.397 . S
C303 C359 1.419 . S
C304 C300 1.391 . S
C304 C303 1.391 . S
C304 C305 1.399 . S
C305 C304 1.399 . S
C305 C308 1.396 . S
C305 C317 1.453 . S
C305 C318 1.684 . S
H306 C330 0.948 . S
C307 C303 1.397 . S
C307 C308 1.394 . S
C307 C326 1.723 . S
C308 C305 1.396 . S
C308 C307 1.394 . S
C308 C338 1.723 1_655 S
H309 C332 0.947 . S
H310 C333 0.948 . S
H311 C339 0.982 . S
H312 C340 0.979 . S
H313 C340 0.980 . S
H314 C340 0.983 . S
H315 C339 0.979 . S
H316 C339 0.977 . S
C317 C305 1.453 . S
C317 H346 0.982 1_655 S
C317 H347 0.979 . S
C317 H348 0.977 1_655 S
C318 C305 1.684 . S
C318 H343 0.979 . S
C318 H344 0.980 . S
C318 H345 0.983 . S
C319 C320 1.391 1_655 S
C319 C324 1.391 . S
C319 H349 0.948 . S
C320 C319 1.391 1_455 S
C320 C321 1.391 . S
C321 C320 1.391 . S
C321 C322 1.392 . S
C321 H350 0.947 . S
C322 C321 1.392 . S
C322 C323 1.419 . S
C322 H351 0.948 . S
C323 C322 1.419 . S
C323 C324 1.391 1_455 S
C323 C327 1.397 . S
C324 C319 1.391 . S
C324 C323 1.391 1_655 S
C324 C325 1.399 . S
C325 C324 1.399 . S
C325 C326 1.396 . S
C325 C328 1.453 . S
C325 C329 1.684 . S
C326 C307 1.723 . S
C326 C325 1.396 . S
C326 C327 1.394 1_655 S
C327 C323 1.397 . S
C327 C326 1.394 1_455 S
C327 C337 1.723 . S
C328 C325 1.453 . S
C328 H352 0.982 . S
C328 H353 0.979 . S
C328 H354 0.977 . S
C329 C325 1.684 . S
C329 H355 0.979 . S
C329 H356 0.980 . S
C329 H357 0.983 . S
C330 H306 0.948 . S
C330 C331 1.391 . S
C330 C335 1.391 . S
C331 C330 1.391 . S
C331 C332 1.391 . S
C332 H309 0.947 . S
C332 C331 1.391 . S
C332 C333 1.392 . S
C333 H310 0.948 . S
C333 C332 1.392 . S
C333 C334 1.419 . S
C334 C333 1.419 . S
C334 C335 1.391 . S
C334 C338 1.397 . S
C335 C330 1.391 . S
C335 C334 1.391 . S
C335 C336 1.399 . S
C336 C335 1.399 . S
C336 C337 1.396 . S
C336 C339 1.453 . S
C336 C340 1.684 . S
C337 C327 1.723 . S
C337 C336 1.396 . S
C337 C338 1.394 . S
C338 C308 1.723 1_455 S
C338 C334 1.397 . S
C338 C337 1.394 . S
C339 H311 0.982 . S
C339 H315 0.979 . S
C339 H316 0.977 . S
C339 C336 1.453 . S
C340 H312 0.979 . S
C340 H313 0.980 . S
C340 H314 0.983 . S
C340 C336 1.684 . S
H341 C359 0.948 . S
H342 C300 0.948 . S
H343 C318 0.979 . S
H344 C318 0.980 . S
H345 C318 0.983 . S
H346 C317 0.982 1_455 S
H347 C317 0.979 . S
H348 C317 0.977 1_455 S
H349 C319 0.948 . S
H350 C321 0.947 . S
H351 C322 0.948 . S
H352 C328 0.982 . S
H353 C328 0.979 . S
H354 C328 0.977 . S
H355 C329 0.979 . S
H356 C329 0.980 . S
H357 C329 0.983 . S
H358 C302 0.947 . S
C359 C302 1.392 . S
C359 C303 1.419 . S
C359 H341 0.948 . S
C360 C361 1.391 . S
C360 C364 1.391 . S
C360 H402 0.948 . S
C361 C360 1.391 . S
C361 C362 1.391 . S
C362 C361 1.391 . S
C362 H418 0.947 . S
C362 C419 1.392 . S
C363 C364 1.391 . S
C363 C367 1.397 . S
C363 C419 1.419 . S
C364 C360 1.391 . S
C364 C363 1.391 . S
C364 C365 1.399 . S
C365 C364 1.399 . S
C365 C368 1.396 . S
C365 C377 1.445 1_565 S
C365 C378 1.684 . S
H366 C390 0.948 . S
C367 C363 1.397 . S
C367 C368 1.394 . S
C367 C386 1.723 . S
C368 C365 1.396 . S
C368 C367 1.394 . S
C368 C398 1.723 1_565 S
H369 C392 0.947 . S
H370 C393 0.948 . S
H371 C399 0.982 . S
H372 C400 0.979 . S
H373 C400 0.980 . S
H374 C400 0.983 . S
H375 C399 0.979 . S
H376 C399 0.977 . S
C377 C365 1.445 1_545 S
C377 H406 0.977 . S
C377 H407 0.965 1_545 S
C377 H408 1.005 . S
C378 C365 1.684 . S
C378 H403 0.979 . S
C378 H404 0.980 1_565 S
C378 H405 0.983 . S
C379 C380 1.391 1_565 S
C379 C384 1.391 . S
C379 H409 0.948 . S
C380 C379 1.391 1_545 S
C380 C381 1.391 . S
C381 C380 1.391 . S
C381 C382 1.392 . S
C381 H410 0.947 . S
C382 C381 1.392 . S
C382 C383 1.419 . S
C382 H411 0.948 . S
C383 C382 1.419 . S
C383 C384 1.391 1_545 S
C383 C387 1.397 . S
C384 C379 1.391 . S
C384 C383 1.391 1_565 S
C384 C385 1.399 . S
C385 C384 1.399 . S
C385 C386 1.396 . S
C385 C388 1.453 . S
C385 C389 1.684 . S
C386 C367 1.723 . S
C386 C385 1.396 . S
C386 C387 1.394 1_565 S
C387 C383 1.397 . S
C387 C386 1.394 1_545 S
C387 C397 1.723 . S
C388 C385 1.453 . S
C388 H412 0.982 . S
C388 H413 0.979 . S
C388 H414 0.977 . S
C389 C385 1.684 . S
C389 H415 0.979 . S
C389 H416 0.980 . S
C389 H417 0.983 . S
C390 H366 0.948 . S
C390 C391 1.391 . S
C390 C395 1.391 . S
C391 C390 1.391 . S
C391 C392 1.391 . S
C392 H369 0.947 . S
C392 C391 1.391 . S
C392 C393 1.392 . S
C393 H370 0.948 . S
C393 C392 1.392 . S
C393 C394 1.419 . S
C394 C393 1.419 . S
C394 C395 1.391 . S
C394 C398 1.397 . S
C395 C390 1.391 . S
C395 C394 1.391 . S
C395 C396 1.399 . S
C396 C395 1.399 . S
C396 C397 1.396 . S
C396 C399 1.453 . S
C396 C400 1.684 . S
C397 C387 1.723 . S
C397 C396 1.396 . S
C397 C398 1.394 . S
C398 C368 1.723 1_545 S
C398 C394 1.397 . S
C398 C397 1.394 . S
C399 H371 0.982 . S
C399 H375 0.979 . S
C399 H376 0.977 . S
C399 C396 1.453 . S
C400 H372 0.979 . S
C400 H373 0.980 . S
C400 H374 0.983 . S
C400 C396 1.684 . S
H401 C419 0.948 . S
H402 C360 0.948 . S
H403 C378 0.979 . S
H404 C378 0.980 1_545 S
H405 C378 0.983 . S
H406 C377 0.977 . S
H407 C377 0.965 1_565 S
H408 C377 1.005 . S
H409 C379 0.948 . S
H410 C381 0.947 . S
H411 C382 0.948 . S
H412 C388 0.982 . S
H413 C388 0.979 . S
H414 C388 0.977 . S
H415 C389 0.979 . S
H416 C389 0.980 . S
H417 C389 0.983 . S
H418 C362 0.947 . S
C419 C362 1.392 . S
C419 C363 1.419 . S
C419 H401 0.948 . S
C420 C421 1.391 . S
C420 C424 1.391 . S
C420 H462 0.948 . S
C421 C420 1.391 . S
C421 C422 1.391 . S
C422 C421 1.391 . S
C422 H478 0.947 . S
C422 C479 1.392 . S
C423 C424 1.391 . S
C423 C427 1.397 . S
C423 C479 1.419 . S
C424 C420 1.391 . S
C424 C423 1.391 . S
C424 C425 1.399 . S
C425 C424 1.399 . S
C425 C428 1.396 . S
C425 C437 1.453 . S
C425 C438 1.684 . S
H426 C450 0.948 . S
C427 C423 1.397 . S
C427 C428 1.394 . S
C427 C446 1.723 . S
C428 C425 1.396 . S
C428 C427 1.394 . S
C428 C458 1.723 . S
H429 C452 0.947 . S
H430 C453 0.948 . S
H431 C459 0.982 . S
H432 C460 0.979 . S
H433 C460 0.980 . S
H434 C460 0.983 . S
H435 C459 0.979 . S
H436 C459 0.977 . S
C437 C425 1.453 . S
C437 H466 0.982 . S
C437 H467 0.979 . S
C437 H468 0.977 . S
C438 C425 1.684 . S
C438 H463 0.979 . S
C438 H464 0.980 . S
C438 H465 0.983 . S
C439 C440 1.391 . S
C439 C444 1.391 . S
C439 H469 0.948 . S
C440 C439 1.391 . S
C440 C441 1.391 . S
C441 C440 1.391 . S
C441 C442 1.392 . S
C441 H470 0.947 . S
C442 C441 1.392 . S
C442 C443 1.419 . S
C442 H471 0.948 . S
C443 C442 1.419 . S
C443 C444 1.391 . S
C443 C447 1.397 . S
C444 C439 1.391 . S
C444 C443 1.391 . S
C444 C445 1.399 . S
C445 C444 1.399 . S
C445 C446 1.396 . S
C445 C448 1.453 . S
C445 C449 1.684 . S
C446 C427 1.723 . S
C446 C445 1.396 . S
C446 C447 1.394 . S
C447 C443 1.397 . S
C447 C446 1.394 . S
C447 C457 1.723 . S
C448 C445 1.453 . S
C448 H472 0.982 . S
C448 H473 0.979 . S
C448 H474 0.977 . S
C449 C445 1.684 . S
C449 H475 0.979 . S
C449 H476 0.980 . S
C449 H477 0.983 . S
C450 H426 0.948 . S
C450 C451 1.391 . S
C450 C455 1.391 . S
C451 C450 1.391 . S
C451 C452 1.391 . S
C452 H429 0.947 . S
C452 C451 1.391 . S
C452 C453 1.392 . S
C453 H430 0.948 . S
C453 C452 1.392 . S
C453 C454 1.419 . S
C454 C453 1.419 . S
C454 C455 1.391 . S
C454 C458 1.397 . S
C455 C450 1.391 . S
C455 C454 1.391 . S
C455 C456 1.399 . S
C456 C455 1.399 . S
C456 C457 1.396 . S
C456 C459 1.453 . S
C456 C460 1.684 . S
C457 C447 1.723 . S
C457 C456 1.396 . S
C457 C458 1.394 . S
C458 C428 1.723 . S
C458 C454 1.397 . S
C458 C457 1.394 . S
C459 H431 0.982 . S
C459 H435 0.979 . S
C459 H436 0.977 . S
C459 C456 1.453 . S
C460 H432 0.979 . S
C460 H433 0.980 . S
C460 H434 0.983 . S
C460 C456 1.684 . S
H461 C479 0.948 . S
H462 C420 0.948 . S
H463 C438 0.979 . S
H464 C438 0.980 . S
H465 C438 0.983 . S
H466 C437 0.982 . S
H467 C437 0.979 . S
H468 C437 0.977 . S
H469 C439 0.948 . S
H470 C441 0.947 . S
H471 C442 0.948 . S
H472 C448 0.982 . S
H473 C448 0.979 . S
H474 C448 0.977 . S
H475 C449 0.979 . S
H476 C449 0.980 . S
H477 C449 0.983 . S
H478 C422 0.947 . S
C479 C422 1.392 . S
C479 C423 1.419 . S
C479 H461 0.948 . S
H480 C486 0.930 . S
H481 C490 0.930 . S
H482 C495 0.929 . S
H483 C493 0.929 . S
H484 C488 0.929 . S
H485 C494 0.929 . S
C486 H480 0.930 . S
C486 C487 1.367 . S
C486 C494 1.378 . S
C487 C486 1.367 . S
C487 C495 1.433 . S
C488 H484 0.929 . S
C488 C490 1.378 . S
C488 C492 1.350 . S
C489 C492 1.463 . S
C489 C494 1.350 . S
C489 N497 1.427 . S
C490 H481 0.930 . S
C490 C488 1.378 . S
C490 C491 1.367 . S
C491 C490 1.367 . S
C491 C493 1.433 . S
C492 C488 1.350 . S
C492 C489 1.463 . S
C492 N496 1.427 . S
C493 H483 0.929 . S
C493 C491 1.433 . S
C493 N496 1.384 . S
C494 H485 0.929 . S
C494 C486 1.378 . S
C494 C489 1.350 . S
C495 H482 0.929 . S
C495 C487 1.433 . S
C495 N497 1.384 . S
N496 C492 1.427 . S
N496 C493 1.384 . S
N497 C489 1.427 . S
N497 C495 1.384 . S
H498 C504 0.930 . S
H499 C508 0.930 . S
H500 C513 0.929 . S
H501 C511 0.929 . S
H502 C506 0.929 . S
H503 C512 0.929 . S
C504 H498 0.930 . S
C504 C505 1.367 . S
C504 C512 1.378 . S
C505 C504 1.367 . S
C505 C513 1.433 . S
C506 H502 0.929 . S
C506 C508 1.378 . S
C506 C510 1.350 . S
C507 C510 1.463 . S
C507 C512 1.350 . S
C507 N515 1.427 . S
C508 H499 0.930 . S
C508 C506 1.378 . S
C508 C509 1.367 . S
C509 C508 1.367 . S
C509 C511 1.433 . S
C510 C506 1.350 . S
C510 C507 1.463 . S
C510 N514 1.427 . S
C511 H501 0.929 . S
C511 C509 1.433 . S
C511 N514 1.384 . S
C512 H503 0.929 . S
C512 C504 1.378 . S
C512 C507 1.350 . S
C513 H500 0.929 . S
C513 C505 1.433 . S
C513 N515 1.384 . S
N514 C510 1.427 . S
N514 C511 1.384 . S
N515 C507 1.427 . S
N515 C513 1.384 . S
H516 C522 0.930 . S
H517 C526 0.930 . S
H518 C531 0.929 . S
H519 C529 0.929 . S
H520 C524 0.929 . S
H521 C530 0.929 . S
C522 H516 0.930 . S
C522 C523 1.367 . S
C522 C530 1.378 . S
C523 C522 1.367 . S
C523 C531 1.433 . S
C524 H520 0.929 . S
C524 C526 1.378 . S
C524 C528 1.350 . S
C525 C528 1.463 . S
C525 C530 1.350 . S
C525 N533 1.427 . S
C526 H517 0.930 . S
C526 C524 1.378 . S
C526 C527 1.367 . S
C527 C526 1.367 . S
C527 C529 1.433 . S
C528 C524 1.350 . S
C528 C525 1.463 . S
C528 N532 1.427 . S
C529 H519 0.929 . S
C529 C527 1.433 . S
C529 N532 1.384 . S
C530 H521 0.929 . S
C530 C522 1.378 . S
C530 C525 1.350 . S
C531 H518 0.929 . S
C531 C523 1.433 . S
C531 N533 1.384 . S
N532 C528 1.427 . S
N532 C529 1.384 . S
N533 C525 1.427 . S
N533 C531 1.384 . S
H534 C540 0.930 . S
H535 C544 0.930 . S
H536 C549 0.929 . S
H537 C547 0.929 . S
H538 C542 0.929 . S
H539 C548 0.929 . S
C540 H534 0.930 . S
C540 C541 1.367 . S
C540 C548 1.378 . S
C541 C540 1.367 . S
C541 C549 1.433 . S
C542 H538 0.929 . S
C542 C544 1.378 . S
C542 C546 1.350 . S
C543 C546 1.463 . S
C543 C548 1.350 . S
C543 N551 1.427 . S
C544 H535 0.930 . S
C544 C542 1.378 . S
C544 C545 1.367 . S
C545 C544 1.367 . S
C545 C547 1.433 . S
C546 C542 1.350 . S
C546 C543 1.463 . S
C546 N550 1.427 . S
C547 H537 0.929 . S
C547 C545 1.433 . S
C547 N550 1.384 . S
C548 H539 0.929 . S
C548 C540 1.378 . S
C548 C543 1.350 . S
C549 H536 0.929 . S
C549 C541 1.433 . S
C549 N551 1.384 . S
N550 C546 1.427 . S
N550 C547 1.384 . S
N551 C543 1.427 . S
N551 C549 1.384 . S
H552 C558 0.930 . S
H553 C562 0.930 . S
H554 C567 0.929 . S
H555 C565 0.929 . S
H556 C560 0.929 . S
H557 C566 0.929 . S
C558 H552 0.930 . S
C558 C559 1.367 . S
C558 C566 1.378 . S
C559 C558 1.367 . S
C559 C567 1.433 . S
C560 H556 0.929 . S
C560 C562 1.378 . S
C560 C564 1.350 . S
C561 C564 1.463 . S
C561 C566 1.350 . S
C561 N569 1.427 . S
C562 H553 0.930 . S
C562 C560 1.378 . S
C562 C563 1.367 . S
C563 C562 1.367 . S
C563 C565 1.433 . S
C564 C560 1.350 . S
C564 C561 1.463 . S
C564 N568 1.427 . S
C565 H555 0.929 . S
C565 C563 1.433 . S
C565 N568 1.384 . S
C566 H557 0.929 . S
C566 C558 1.378 . S
C566 C561 1.350 . S
C567 H554 0.929 . S
C567 C559 1.433 . S
C567 N569 1.384 . S
N568 C564 1.427 . S
N568 C565 1.384 . S
N569 C561 1.427 . S
N569 C567 1.384 . S
H570 C576 0.930 . S
H571 C580 0.930 . S
H572 C585 0.929 . S
H573 C583 0.929 . S
H574 C578 0.929 . S
H575 C584 0.929 . S
C576 H570 0.930 . S
C576 C577 1.367 . S
C576 C584 1.378 . S
C577 C576 1.367 . S
C577 C585 1.433 . S
C578 H574 0.929 . S
C578 C580 1.378 . S
C578 C582 1.350 . S
C579 C582 1.463 . S
C579 C584 1.350 . S
C579 N587 1.427 . S
C580 H571 0.930 . S
C580 C578 1.378 . S
C580 C581 1.367 . S
C581 C580 1.367 . S
C581 C583 1.433 . S
C582 C578 1.350 . S
C582 C579 1.463 . S
C582 N586 1.427 . S
C583 H573 0.929 . S
C583 C581 1.433 . S
C583 N586 1.384 . S
C584 H575 0.929 . S
C584 C576 1.378 . S
C584 C579 1.350 . S
C585 H572 0.929 . S
C585 C577 1.433 . S
C585 N587 1.384 . S
N586 C582 1.427 . S
N586 C583 1.384 . S
N587 C579 1.427 . S
N587 C585 1.384 . S
H588 C594 0.930 . S
H589 C598 0.930 . S
H590 C603 0.929 . S
H591 C601 0.929 . S
H592 C596 0.929 . S
H593 C602 0.929 . S
C594 H588 0.930 . S
C594 C595 1.367 . S
C594 C602 1.378 . S
C595 C594 1.367 . S
C595 C603 1.433 . S
C596 H592 0.929 . S
C596 C598 1.378 . S
C596 C600 1.350 . S
C597 C600 1.463 . S
C597 C602 1.350 . S
C597 N605 1.427 . S
C598 H589 0.930 . S
C598 C596 1.378 . S
C598 C599 1.367 . S
C599 C598 1.367 . S
C599 C601 1.433 . S
C600 C596 1.350 . S
C600 C597 1.463 . S
C600 N604 1.427 . S
C601 H591 0.929 . S
C601 C599 1.433 . S
C601 N604 1.384 . S
C602 H593 0.929 . S
C602 C594 1.378 . S
C602 C597 1.350 . S
C603 H590 0.929 . S
C603 C595 1.433 . S
C603 N605 1.384 . S
N604 C600 1.427 . S
N604 C601 1.384 . S
N605 C597 1.427 . S
N605 C603 1.384 . S
H606 C612 0.930 . S
H607 C616 0.930 . S
H608 C621 0.929 . S
H609 C619 0.929 . S
H610 C614 0.929 . S
H611 C620 0.929 . S
C612 H606 0.930 . S
C612 C613 1.367 . S
C612 C620 1.378 . S
C613 C612 1.367 . S
C613 C621 1.433 . S
C614 H610 0.929 . S
C614 C616 1.378 . S
C614 C618 1.350 . S
C615 C618 1.463 . S
C615 C620 1.350 . S
C615 N623 1.427 . S
C616 H607 0.930 . S
C616 C614 1.378 . S
C616 C617 1.367 . S
C617 C616 1.367 . S
C617 C619 1.433 . S
C618 C614 1.350 . S
C618 C615 1.463 . S
C618 N622 1.427 . S
C619 H609 0.929 . S
C619 C617 1.433 . S
C619 N622 1.384 . S
C620 H611 0.929 . S
C620 C612 1.378 . S
C620 C615 1.350 . S
C621 H608 0.929 . S
C621 C613 1.433 . S
C621 N623 1.384 . S
N622 C618 1.427 . S
N622 C619 1.384 . S
N623 C615 1.427 . S
N623 C621 1.384 . S
H624 C630 0.930 . S
H625 C634 0.930 . S
H626 C639 0.929 . S
H627 C637 0.929 . S
H628 C632 0.929 . S
H629 C638 0.929 . S
C630 H624 0.930 . S
C630 C631 1.367 . S
C630 C638 1.378 . S
C631 C630 1.367 . S
C631 C639 1.433 . S
C632 H628 0.929 . S
C632 C634 1.378 . S
C632 C636 1.350 . S
C633 C636 1.463 . S
C633 C638 1.350 . S
C633 N641 1.427 . S
C634 H625 0.930 . S
C634 C632 1.378 . S
C634 C635 1.367 . S
C635 C634 1.367 . S
C635 C637 1.433 . S
C636 C632 1.350 . S
C636 C633 1.463 . S
C636 N640 1.427 . S
C637 H627 0.929 . S
C637 C635 1.433 . S
C637 N640 1.384 . S
C638 H629 0.929 . S
C638 C630 1.378 . S
C638 C633 1.350 . S
C639 H626 0.929 . S
C639 C631 1.433 . S
C639 N641 1.384 . S
N640 C636 1.427 . S
N640 C637 1.384 . S
N641 C633 1.427 . S
N641 C639 1.384 . S
H642 C648 0.930 . S
H643 C652 0.930 . S
H644 C657 0.929 . S
H645 C655 0.929 . S
H646 C650 0.929 . S
H647 C656 0.929 . S
C648 H642 0.930 . S
C648 C649 1.367 . S
C648 C656 1.378 . S
C649 C648 1.367 . S
C649 C657 1.433 . S
C650 H646 0.929 . S
C650 C652 1.378 . S
C650 C654 1.350 . S
C651 C654 1.463 . S
C651 C656 1.350 . S
C651 N659 1.427 . S
C652 H643 0.930 . S
C652 C650 1.378 . S
C652 C653 1.367 . S
C653 C652 1.367 . S
C653 C655 1.433 . S
C654 C650 1.350 . S
C654 C651 1.463 . S
C654 N658 1.427 . S
C655 H645 0.929 . S
C655 C653 1.433 . S
C655 N658 1.384 . S
C656 H647 0.929 . S
C656 C648 1.378 . S
C656 C651 1.350 . S
C657 H644 0.929 . S
C657 C649 1.433 . S
C657 N659 1.384 . S
N658 C654 1.427 . S
N658 C655 1.384 . S
N659 C651 1.427 . S
N659 C657 1.384 . S
H660 C666 0.930 . S
H661 C670 0.930 . S
H662 C675 0.929 . S
H663 C673 0.929 . S
H664 C668 0.929 . S
H665 C674 0.929 . S
C666 H660 0.930 . S
C666 C667 1.367 . S
C666 C674 1.378 . S
C667 C666 1.367 . S
C667 C675 1.433 . S
C668 H664 0.929 . S
C668 C670 1.378 . S
C668 C672 1.350 . S
C669 C672 1.463 . S
C669 C674 1.350 . S
C669 N677 1.427 . S
C670 H661 0.930 . S
C670 C668 1.378 . S
C670 C671 1.367 . S
C671 C670 1.367 . S
C671 C673 1.433 . S
C672 C668 1.350 . S
C672 C669 1.463 . S
C672 N676 1.427 . S
C673 H663 0.929 . S
C673 C671 1.433 . S
C673 N676 1.384 . S
C674 H665 0.929 . S
C674 C666 1.378 . S
C674 C669 1.350 . S
C675 H662 0.929 . S
C675 C667 1.433 . S
C675 N677 1.384 . S
N676 C672 1.427 . S
N676 C673 1.384 . S
N677 C669 1.427 . S
N677 C675 1.384 . S
H678 C684 0.930 . S
H679 C688 0.930 . S
H680 C693 0.929 . S
H681 C691 0.929 . S
H682 C686 0.929 . S
H683 C692 0.929 . S
C684 H678 0.930 . S
C684 C685 1.367 . S
C684 C692 1.378 . S
C685 C684 1.367 . S
C685 C693 1.433 . S
C686 H682 0.929 . S
C686 C688 1.378 . S
C686 C690 1.350 . S
C687 C690 1.463 . S
C687 C692 1.350 . S
C687 N695 1.427 . S
C688 H679 0.930 . S
C688 C686 1.378 . S
C688 C689 1.367 . S
C689 C688 1.367 . S
C689 C691 1.433 . S
C690 C686 1.350 . S
C690 C687 1.463 . S
C690 N694 1.427 . S
C691 H681 0.929 . S
C691 C689 1.433 . S
C691 N694 1.384 . S
C692 H683 0.929 . S
C692 C684 1.378 . S
C692 C687 1.350 . S
C693 H680 0.929 . S
C693 C685 1.433 . S
C693 N695 1.384 . S
N694 C690 1.427 . S
N694 C691 1.384 . S
N695 C687 1.427 . S
N695 C693 1.384 . S
H696 C702 0.930 . S
H697 C706 0.930 1_655 S
H698 C711 0.946 . S
H699 C709 0.929 . S
H700 C704 0.929 1_655 S
H701 C710 0.929 . S
C702 H696 0.930 . S
C702 C703 1.367 . S
C702 C710 1.378 . S
C703 C702 1.367 . S
C703 C711 1.416 1_455 S
C704 H700 0.929 1_455 S
C704 C706 1.378 . S
C704 C708 1.350 . S
C705 C708 1.463 . S
C705 C710 1.350 . S
C705 N713 1.442 . S
C706 H697 0.930 1_455 S
C706 C704 1.378 . S
C706 C707 1.367 . S
C707 C706 1.367 . S
C707 C709 1.433 . S
C708 C704 1.350 . S
C708 C705 1.463 . S
C708 N712 1.427 . S
C709 H699 0.929 . S
C709 C707 1.433 . S
C709 N712 1.384 . S
C710 H701 0.929 . S
C710 C702 1.378 . S
C710 C705 1.350 . S
C711 H698 0.946 . S
C711 C703 1.416 1_655 S
C711 N713 1.386 1_655 S
N712 C708 1.427 . S
N712 C709 1.384 . S
N713 C705 1.442 . S
N713 C711 1.386 1_455 S
H714 C720 0.930 . S
H715 C724 0.930 . S
H716 C729 0.929 . S
H717 C727 0.929 1_565 S
H718 C722 0.929 . S
H719 C728 0.921 1_565 S
C720 H714 0.930 . S
C720 C721 1.367 1_565 S
C720 C728 1.376 1_565 S
C721 C720 1.367 1_545 S
C721 C729 1.433 . S
C722 H718 0.929 . S
C722 C724 1.378 . S
C722 C726 1.350 . S
C723 C726 1.463 . S
C723 C728 1.360 . S
C723 N731 1.427 . S
C724 H715 0.930 . S
C724 C722 1.378 . S
C724 C725 1.367 . S
C725 C724 1.367 . S
C725 C727 1.433 . S
C726 C722 1.350 . S
C726 C723 1.463 . S
C726 N730 1.427 . S
C727 H717 0.929 1_545 S
C727 C725 1.433 . S
C727 N730 1.384 . S
C728 H719 0.921 1_545 S
C728 C720 1.376 1_545 S
C728 C723 1.360 . S
C729 H716 0.929 . S
C729 C721 1.433 . S
C729 N731 1.384 . S
N730 C726 1.427 . S
N730 C727 1.384 . S
N731 C723 1.427 . S
N731 C729 1.384 . S
H732 C738 0.930 . S
H733 C742 0.930 . S
H734 C747 0.929 . S
H735 C745 0.929 . S
H736 C740 0.929 . S
H737 C746 0.929 . S
C738 H732 0.930 . S
C738 C739 1.367 . S
C738 C746 1.378 . S
C739 C738 1.367 . S
C739 C747 1.433 . S
C740 H736 0.929 . S
C740 C742 1.378 . S
C740 C744 1.350 . S
C741 C744 1.463 . S
C741 C746 1.350 . S
C741 N749 1.427 . S
C742 H733 0.930 . S
C742 C740 1.378 . S
C742 C743 1.367 . S
C743 C742 1.367 . S
C743 C745 1.433 . S
C744 C740 1.350 . S
C744 C741 1.463 . S
C744 N748 1.427 . S
C745 H735 0.929 . S
C745 C743 1.433 . S
C745 N748 1.384 . S
C746 H737 0.929 . S
C746 C738 1.378 . S
C746 C741 1.350 . S
C747 H734 0.929 . S
C747 C739 1.433 . S
C747 N749 1.384 . S
N748 C744 1.427 . S
N748 C745 1.384 . S
N749 C741 1.427 . S
N749 C747 1.384 . S
H750 C756 0.930 . S
H751 C760 0.930 . S
H752 C765 0.929 . S
H753 C763 0.929 . S
H754 C758 0.929 . S
H755 C764 0.929 . S
C756 H750 0.930 . S
C756 C757 1.367 1_565 S
C756 C764 1.378 . S
C757 C756 1.367 1_545 S
C757 C765 1.433 . S
C758 H754 0.929 . S
C758 C760 1.378 . S
C758 C762 1.350 . S
C759 C762 1.463 . S
C759 C764 1.350 1_545 S
C759 N767 1.427 . S
C760 H751 0.930 . S
C760 C758 1.378 . S
C760 C761 1.367 . S
C761 C760 1.367 . S
C761 C763 1.433 1_545 S
C762 C758 1.350 . S
C762 C759 1.463 . S
C762 N766 1.427 1_545 S
C763 H753 0.929 . S
C763 C761 1.433 1_565 S
C763 N766 1.384 . S
C764 H755 0.929 . S
C764 C756 1.378 . S
C764 C759 1.350 1_565 S
C765 H752 0.929 . S
C765 C757 1.433 . S
C765 N767 1.384 . S
N766 C762 1.427 1_565 S
N766 C763 1.384 . S
N767 C759 1.427 . S
N767 C765 1.384 . S
H768 C774 0.930 . S
H769 C778 0.930 . S
H770 C783 0.929 . S
H771 C781 0.929 . S
H772 C776 0.929 . S
H773 C782 0.929 . S
C774 H768 0.930 . S
C774 C775 1.367 . S
C774 C782 1.378 . S
C775 C774 1.367 . S
C775 C783 1.433 . S
C776 H772 0.929 . S
C776 C778 1.378 . S
C776 C780 1.350 . S
C777 C780 1.463 . S
C777 C782 1.350 . S
C777 N785 1.427 . S
C778 H769 0.930 . S
C778 C776 1.378 . S
C778 C779 1.367 . S
C779 C778 1.367 . S
C779 C781 1.433 . S
C780 C776 1.350 . S
C780 C777 1.463 . S
C780 N784 1.427 . S
C781 H771 0.929 . S
C781 C779 1.433 . S
C781 N784 1.384 . S
C782 H773 0.929 . S
C782 C774 1.378 . S
C782 C777 1.350 . S
C783 H770 0.929 . S
C783 C775 1.433 . S
C783 N785 1.384 . S
N784 C780 1.427 . S
N784 C781 1.384 . S
N785 C777 1.427 . S
N785 C783 1.384 . S
H786 C792 0.930 . S
H787 C796 0.930 . S
H788 C801 0.929 . S
H789 C799 0.929 . S
H790 C794 0.929 . S
H791 C800 0.929 . S
C792 H786 0.930 . S
C792 C793 1.367 1_655 S
C792 C800 1.378 . S
C793 C792 1.367 1_455 S
C793 C801 1.433 . S
C794 H790 0.929 . S
C794 C796 1.378 . S
C794 C798 1.350 . S
C795 C798 1.463 . S
C795 C800 1.350 1_455 S
C795 N803 1.427 . S
C796 H787 0.930 . S
C796 C794 1.378 . S
C796 C797 1.367 . S
C797 C796 1.367 . S
C797 C799 1.433 1_455 S
C798 C794 1.350 . S
C798 C795 1.463 . S
C798 N802 1.427 1_455 S
C799 H789 0.929 . S
C799 C797 1.433 1_655 S
C799 N802 1.384 . S
C800 H791 0.929 . S
C800 C792 1.378 . S
C800 C795 1.350 1_655 S
C801 H788 0.929 . S
C801 C793 1.433 . S
C801 N803 1.384 . S
N802 C798 1.427 1_655 S
N802 C799 1.384 . S
N803 C795 1.427 . S
N803 C801 1.384 . S
C487 C10 3.121 . S
C491 C451 3.116 . S
C505 C55 1.211 . S
C509 C301 1.194 . S
C523 C90 1.908 . S
C527 C361 1.777 . S
C541 C19 3.002 . S
C545 C421 2.859 . S
C563 C331 1.324 . S
C559 C46 1.304 . S
C581 C391 2.099 . S
C577 C99 2.083 . S
C595 C50 1.917 . S
C599 C181 1.777 . S
C613 C95 0.641 . S
C617 C271 0.593 . S
C631 C6 1.337 . S
C635 C151 1.349 . S
C653 C211 2.054 . S
C649 C59 2.051 . S
C671 C241 0.435 . S
C667 C86 0.466 . S
C685 C15 1.265 . S
C689 C121 1.245 . S
C707 C260 1.097 1_554 S
C703 C18 1.099 . S
C721 C49 1.447 . S
C725 C140 1.475 . S
C739 C98 1.340 . S
C743 C200 1.349 . S
C761 C380 1.344 . S
C757 C58 1.335 . S
C779 C440 1.752 1_556 S
C775 C89 1.711 . S
C793 C9 1.450 . S
C797 C320 1.483 . S
