# Generated by pormake.
# Topology ctn, (3,4)-cn, num edge types: 1
# Building blocks:
#     Node 0, Type 0, BuildingBlock: BETDAH_clean_linker_0, # of connection points: 3
#     Node 1, Type 0, BuildingBlock: BETDAH_clean_linker_0, # of connection points: 3
#     Node 2, Type 0, BuildingBlock: BETDAH_clean_linker_0, # of connection points: 3
#     Node 3, Type 0, BuildingBlock: BETDAH_clean_linker_0, # of connection points: 3
#     Node 4, Type 0, BuildingBlock: BETDAH_clean_linker_0, # of connection points: 3
#     Node 5, Type 0, BuildingBlock: BETDAH_clean_linker_0, # of connection points: 3
#     Node 6, Type 0, BuildingBlock: BETDAH_clean_linker_0, # of connection points: 3
#     Node 7, Type 0, BuildingBlock: BETDAH_clean_linker_0, # of connection points: 3
#     Node 8, Type 0, BuildingBlock: BETDAH_clean_linker_0, # of connection points: 3
#     Node 9, Type 0, BuildingBlock: BETDAH_clean_linker_0, # of connection points: 3
#     Node 10, Type 0, BuildingBlock: BETDAH_clean_linker_0, # of connection points: 3
#     Node 11, Type 0, BuildingBlock: BETDAH_clean_linker_0, # of connection points: 3
#     Node 12, Type 0, BuildingBlock: BETDAH_clean_linker_0, # of connection points: 3
#     Node 13, Type 0, BuildingBlock: BETDAH_clean_linker_0, # of connection points: 3
#     Node 14, Type 0, BuildingBlock: BETDAH_clean_linker_0, # of connection points: 3
#     Node 15, Type 0, BuildingBlock: BETDAH_clean_linker_0, # of connection points: 3
#     Node 16, Type 1, BuildingBlock: TATPOV_clean_sbu_0, # of connection points: 4
#     Node 17, Type 1, BuildingBlock: TATPOV_clean_sbu_0, # of connection points: 4
#     Node 18, Type 1, BuildingBlock: TATPOV_clean_sbu_0, # of connection points: 4
#     Node 19, Type 1, BuildingBlock: TATPOV_clean_sbu_0, # of connection points: 4
#     Node 20, Type 1, BuildingBlock: TATPOV_clean_sbu_0, # of connection points: 4
#     Node 21, Type 1, BuildingBlock: TATPOV_clean_sbu_0, # of connection points: 4
#     Node 22, Type 1, BuildingBlock: TATPOV_clean_sbu_0, # of connection points: 4
#     Node 23, Type 1, BuildingBlock: TATPOV_clean_sbu_0, # of connection points: 4
#     Node 24, Type 1, BuildingBlock: TATPOV_clean_sbu_0, # of connection points: 4
#     Node 25, Type 1, BuildingBlock: TATPOV_clean_sbu_0, # of connection points: 4
#     Node 26, Type 1, BuildingBlock: TATPOV_clean_sbu_0, # of connection points: 4
#     Node 27, Type 1, BuildingBlock: TATPOV_clean_sbu_0, # of connection points: 4
#     Edge 28, Type (0, 1), BuildingBlock: KIFKEQ_clean_linker_1, # of connection points: 2
#     Edge 29, Type (0, 1), BuildingBlock: KIFKEQ_clean_linker_1, # of connection points: 2
#     Edge 30, Type (0, 1), BuildingBlock: KIFKEQ_clean_linker_1, # of connection points: 2
#     Edge 31, Type (0, 1), BuildingBlock: KIFKEQ_clean_linker_1, # of connection points: 2
#     Edge 32, Type (0, 1), BuildingBlock: KIFKEQ_clean_linker_1, # of connection points: 2
#     Edge 33, Type (0, 1), BuildingBlock: KIFKEQ_clean_linker_1, # of connection points: 2
#     Edge 34, Type (0, 1), BuildingBlock: KIFKEQ_clean_linker_1, # of connection points: 2
#     Edge 35, Type (0, 1), BuildingBlock: KIFKEQ_clean_linker_1, # of connection points: 2
#     Edge 36, Type (0, 1), BuildingBlock: KIFKEQ_clean_linker_1, # of connection points: 2
#     Edge 37, Type (0, 1), BuildingBlock: KIFKEQ_clean_linker_1, # of connection points: 2
#     Edge 38, Type (0, 1), BuildingBlock: KIFKEQ_clean_linker_1, # of connection points: 2
#     Edge 39, Type (0, 1), BuildingBlock: KIFKEQ_clean_linker_1, # of connection points: 2
#     Edge 40, Type (0, 1), BuildingBlock: KIFKEQ_clean_linker_1, # of connection points: 2
#     Edge 41, Type (0, 1), BuildingBlock: KIFKEQ_clean_linker_1, # of connection points: 2
#     Edge 42, Type (0, 1), BuildingBlock: KIFKEQ_clean_linker_1, # of connection points: 2
#     Edge 43, Type (0, 1), BuildingBlock: KIFKEQ_clean_linker_1, # of connection points: 2
#     Edge 44, Type (0, 1), BuildingBlock: KIFKEQ_clean_linker_1, # of connection points: 2
#     Edge 45, Type (0, 1), BuildingBlock: KIFKEQ_clean_linker_1, # of connection points: 2
#     Edge 46, Type (0, 1), BuildingBlock: KIFKEQ_clean_linker_1, # of connection points: 2
#     Edge 47, Type (0, 1), BuildingBlock: KIFKEQ_clean_linker_1, # of connection points: 2
#     Edge 48, Type (0, 1), BuildingBlock: KIFKEQ_clean_linker_1, # of connection points: 2
#     Edge 49, Type (0, 1), BuildingBlock: KIFKEQ_clean_linker_1, # of connection points: 2
#     Edge 50, Type (0, 1), BuildingBlock: KIFKEQ_clean_linker_1, # of connection points: 2
#     Edge 51, Type (0, 1), BuildingBlock: KIFKEQ_clean_linker_1, # of connection points: 2
#     Edge 52, Type (0, 1), BuildingBlock: KIFKEQ_clean_linker_1, # of connection points: 2
#     Edge 53, Type (0, 1), BuildingBlock: KIFKEQ_clean_linker_1, # of connection points: 2
#     Edge 54, Type (0, 1), BuildingBlock: KIFKEQ_clean_linker_1, # of connection points: 2
#     Edge 55, Type (0, 1), BuildingBlock: KIFKEQ_clean_linker_1, # of connection points: 2
#     Edge 56, Type (0, 1), BuildingBlock: KIFKEQ_clean_linker_1, # of connection points: 2
#     Edge 57, Type (0, 1), BuildingBlock: KIFKEQ_clean_linker_1, # of connection points: 2
#     Edge 58, Type (0, 1), BuildingBlock: KIFKEQ_clean_linker_1, # of connection points: 2
#     Edge 59, Type (0, 1), BuildingBlock: KIFKEQ_clean_linker_1, # of connection points: 2
#     Edge 60, Type (0, 1), BuildingBlock: KIFKEQ_clean_linker_1, # of connection points: 2
#     Edge 61, Type (0, 1), BuildingBlock: KIFKEQ_clean_linker_1, # of connection points: 2
#     Edge 62, Type (0, 1), BuildingBlock: KIFKEQ_clean_linker_1, # of connection points: 2
#     Edge 63, Type (0, 1), BuildingBlock: KIFKEQ_clean_linker_1, # of connection points: 2
#     Edge 64, Type (0, 1), BuildingBlock: KIFKEQ_clean_linker_1, # of connection points: 2
#     Edge 65, Type (0, 1), BuildingBlock: KIFKEQ_clean_linker_1, # of connection points: 2
#     Edge 66, Type (0, 1), BuildingBlock: KIFKEQ_clean_linker_1, # of connection points: 2
#     Edge 67, Type (0, 1), BuildingBlock: KIFKEQ_clean_linker_1, # of connection points: 2
#     Edge 68, Type (0, 1), BuildingBlock: KIFKEQ_clean_linker_1, # of connection points: 2
#     Edge 69, Type (0, 1), BuildingBlock: KIFKEQ_clean_linker_1, # of connection points: 2
#     Edge 70, Type (0, 1), BuildingBlock: KIFKEQ_clean_linker_1, # of connection points: 2
#     Edge 71, Type (0, 1), BuildingBlock: KIFKEQ_clean_linker_1, # of connection points: 2
#     Edge 72, Type (0, 1), BuildingBlock: KIFKEQ_clean_linker_1, # of connection points: 2
#     Edge 73, Type (0, 1), BuildingBlock: KIFKEQ_clean_linker_1, # of connection points: 2
#     Edge 74, Type (0, 1), BuildingBlock: KIFKEQ_clean_linker_1, # of connection points: 2
#     Edge 75, Type (0, 1), BuildingBlock: KIFKEQ_clean_linker_1, # of connection points: 2
# Relax obj value: 0.047
# Max RMSD: 0.164
# Mean RMSD: 0.097
data_MOF--net-ctn--node1-TATPOV_clean_sbu_0--node2-BETDAH_clean_linker_0--edge1-KIFKEQ_clean_linker_1
_symmetry_space_group_name_H-M    P1
_symmetry_Int_Tables_number       1
_symmetry_cell_setting            triclinic
loop_
_symmetry_equiv_pos_as_xyz
'x, y, z'
_cell_length_a     54.456715
_cell_length_b     54.573545
_cell_length_c     55.198591
_cell_angle_alpha  99.807536
_cell_angle_beta   91.463475
_cell_angle_gamma 95.977115
loop_
_atom_site_label
_atom_site_type_symbol
_atom_site_fract_x
_atom_site_fract_y
_atom_site_fract_z
_atom_type_partial_charge
H0 H 0.07643 0.99212 0.08893 0.0
H1 H 0.08263 0.021 0.02089 0.0
H2 H 0.02147 0.03577 0.06633 0.0
C3 C 0.06959 0.00293 0.07599 0.0
C4 C 0.0478 0.01441 0.0809 0.0
C5 C 0.0823 0.00489 0.05425 0.0
C6 C 0.07316 0.01917 0.03761 0.0
C7 C 0.05127 0.03043 0.04223 0.0
C8 C 0.03873 0.02765 0.06353 0.0
N9 N 0.04011 0.04332 0.02532 0.0
C10 C 0.05207 0.05599 0.00834 0.0
H11 H 0.29615 0.6805 0.26522 0.0
H12 H 0.30739 0.74086 0.22375 0.0
H13 H 0.2354 0.70086 0.22496 0.0
C14 C 0.28934 0.69187 0.2528 0.0
C15 C 0.26421 0.68788 0.2454 0.0
C16 C 0.30536 0.71086 0.2452 0.0
C17 C 0.29552 0.72621 0.22996 0.0
C18 C 0.27012 0.72273 0.22301 0.0
C19 C 0.2548 0.70365 0.2308 0.0
N20 N 0.25878 0.73816 0.20874 0.0
C21 C 0.27064 0.75476 0.19516 0.0
H22 H 0.04274 0.40796 0.04765 0.0
H23 H 0.0222 0.48335 0.05846 0.0
H24 H 0.02153 0.44063 0.98583 0.0
C25 C 0.03633 0.42353 0.04043 0.0
C26 C 0.03141 0.42108 0.01496 0.0
C27 C 0.03337 0.44602 0.05647 0.0
C28 C 0.02487 0.46598 0.04657 0.0
C29 C 0.02075 0.4639 0.02107 0.0
C30 C 0.02433 0.44171 0.00552 0.0
N31 N 0.01475 0.48433 0.01021 0.0
C32 C 0.99809 0.50082 0.0194 0.0
H33 H 0.79231 0.78602 0.19258 0.0
H34 H 0.757 0.72446 0.22336 0.0
H35 H 0.77761 0.79564 0.26952 0.0
C36 C 0.78466 0.77845 0.20805 0.0
C37 C 0.78574 0.79385 0.23121 0.0
C38 C 0.77478 0.75318 0.20497 0.0
C39 C 0.76442 0.74393 0.2252 0.0
C40 C 0.7652 0.75934 0.24839 0.0
C41 C 0.77638 0.78404 0.25143 0.0
N42 N 0.75713 0.74947 0.26929 0.0
C43 C 0.73226 0.74349 0.27311 0.0
H44 H 0.09206 0.01693 0.4309 0.0
H45 H 0.12233 0.96365 0.46914 0.0
H46 H 0.0502 0.94602 0.434 0.0
C47 C 0.09011 0.99915 0.43728 0.0
C48 C 0.06839 0.98261 0.43102 0.0
C49 C 0.10978 0.99247 0.45088 0.0
C50 C 0.10728 0.96928 0.45889 0.0
C51 C 0.08564 0.95288 0.45323 0.0
C52 C 0.06634 0.95945 0.43924 0.0
N53 N 0.08463 0.92854 0.45896 0.0
C54 C 0.07455 0.92273 0.48039 0.0
H55 H 0.27828 0.72818 0.81347 0.0
H56 H 0.22383 0.76761 0.78316 0.0
H57 H 0.2653 0.71856 0.73502 0.0
C58 C 0.26848 0.7324 0.79762 0.0
C59 C 0.27398 0.721 0.77384 0.0
C60 C 0.25059 0.7494 0.80121 0.0
C61 C 0.23766 0.7546 0.7806 0.0
C62 C 0.24284 0.74316 0.75672 0.0
C63 C 0.26114 0.7268 0.75354 0.0
N64 N 0.2305 0.74798 0.73534 0.0
C65 C 0.20765 0.75717 0.73488 0.0
H66 H 0.91226 0.56156 0.52926 0.0
H67 H 0.956 0.58522 0.47158 0.0
H68 H 0.90882 0.51598 0.45732 0.0
C69 C 0.91841 0.55825 0.51058 0.0
C70 C 0.90872 0.53643 0.49447 0.0
C71 C 0.93523 0.57625 0.5025 0.0
C72 C 0.94343 0.57144 0.47831 0.0
C73 C 0.93379 0.54968 0.4621 0.0
C74 C 0.91624 0.5326 0.47011 0.0
N75 N 0.93976 0.54553 0.43703 0.0
C76 C 0.9638 0.54742 0.42917 0.0
H77 H 0.88092 0.78536 0.84028 0.0
H78 H 0.86476 0.86004 0.83554 0.0
H79 H 0.83764 0.82534 0.89486 0.0
C80 C 0.87241 0.80195 0.8476 0.0
C81 C 0.85911 0.80253 0.86925 0.0
C82 C 0.87449 0.82248 0.83507 0.0
C83 C 0.86309 0.84386 0.84459 0.0
C84 C 0.85011 0.84484 0.86628 0.0
C85 C 0.84839 0.82439 0.87856 0.0
N86 N 0.83862 0.86624 0.87623 0.0
C87 C 0.82603 0.87965 0.86166 0.0
H88 H 0.37942 0.30036 0.3426 0.0
H89 H 0.34541 0.36554 0.33117 0.0
H90 H 0.32422 0.32822 0.39116 0.0
C91 C 0.36659 0.31399 0.34811 0.0
C92 C 0.35195 0.31177 0.36836 0.0
C93 C 0.36457 0.33347 0.33473 0.0
C94 C 0.34718 0.35051 0.34141 0.0
C95 C 0.33284 0.34872 0.36199 0.0
C96 C 0.33567 0.32969 0.37557 0.0
N97 N 0.31566 0.36594 0.36982 0.0
C98 C 0.30227 0.37731 0.35395 0.0
H99 H 0.53063 0.9124 0.56606 0.0
H100 H 0.48121 0.95763 0.6083 0.0
H101 H 0.45917 0.92084 0.53491 0.0
C102 C 0.51342 0.9208 0.56733 0.0
C103 C 0.49569 0.9148 0.54764 0.0
C104 C 0.50837 0.93618 0.58933 0.0
C105 C 0.48551 0.94591 0.59138 0.0
C106 C 0.46806 0.94076 0.57171 0.0
C107 C 0.47308 0.92521 0.54986 0.0
N108 N 0.44477 0.94982 0.57489 0.0
C109 C 0.43734 0.96776 0.56211 0.0
H110 H 0.31196 0.3001 0.68468 0.0
H111 H 0.28153 0.24299 0.72402 0.0
H112 H 0.30649 0.3163 0.7634 0.0
C113 C 0.3067 0.29424 0.70178 0.0
C114 C 0.30986 0.31164 0.72389 0.0
C115 C 0.29691 0.26925 0.70161 0.0
C116 C 0.28951 0.26199 0.72384 0.0
C117 C 0.29293 0.27906 0.74603 0.0
C118 C 0.30355 0.30351 0.74601 0.0
N119 N 0.28637 0.2719 0.76872 0.0
C120 C 0.26367 0.25885 0.77175 0.0
H121 H 0.8192 0.16602 0.76593 0.0
H122 H 0.84855 0.23673 0.74855 0.0
H123 H 0.77342 0.20729 0.72641 0.0
C124 C 0.81683 0.1822 0.75744 0.0
C125 C 0.79378 0.18452 0.74644 0.0
C126 C 0.83668 0.20085 0.75825 0.0
C127 C 0.83339 0.22203 0.74779 0.0
C128 C 0.81095 0.22422 0.73571 0.0
C129 C 0.7911 0.2053 0.73488 0.0
N130 N 0.8089 0.2464 0.7259 0.0
C131 C 0.79245 0.24907 0.70704 0.0
H132 H 0.56712 0.50508 0.58066 0.0
H133 H 0.5898 0.51358 0.50832 0.0
H134 H 0.53434 0.55679 0.54185 0.0
C135 C 0.56583 0.514 0.56467 0.0
C136 C 0.54871 0.53164 0.56386 0.0
C137 C 0.58109 0.5075 0.54494 0.0
C138 C 0.57882 0.51881 0.52409 0.0
C139 C 0.56233 0.53665 0.52288 0.0
C140 C 0.54724 0.54314 0.54281 0.0
N141 N 0.5612 0.54667 0.50075 0.0
C142 C 0.54999 0.5675 0.49664 0.0
H143 H 0.58636 0.53402 0.93094 0.0
H144 H 0.58899 0.50376 0.99822 0.0
H145 H 0.51923 0.50788 0.96219 0.0
C146 C 0.57715 0.52532 0.94499 0.0
C147 C 0.55125 0.52114 0.94382 0.0
C148 C 0.59106 0.51951 0.96476 0.0
C149 C 0.57861 0.50863 0.98306 0.0
C150 C 0.55268 0.50462 0.98215 0.0
C151 C 0.53923 0.51118 0.96276 0.0
N152 N 0.53936 0.49488 1.00079 0.0
C153 C 0.54834 0.4794 0.01571 0.0
H154 H 0.77281 0.20477 0.31513 0.0
H155 H 0.71436 0.23908 0.28453 0.0
H156 H 0.74828 0.18088 0.23938 0.0
C157 C 0.76107 0.20658 0.29954 0.0
C158 C 0.76312 0.19091 0.27685 0.0
C159 C 0.74383 0.22429 0.30254 0.0
C160 C 0.72762 0.22548 0.28256 0.0
C161 C 0.72912 0.20954 0.25981 0.0
C162 C 0.74693 0.19258 0.25713 0.0
N163 N 0.71347 0.21015 0.23897 0.0
C164 C 0.6943 0.22505 0.23834 0.0
H165 H 0.43394 0.08518 0.02175 0.0
H166 H 0.47384 0.12412 0.9709 0.0
H167 H 0.44277 0.0482 0.94732 0.0
C168 C 0.44121 0.08524 0.00366 0.0
C169 C 0.43649 0.0638 0.98525 0.0
C170 C 0.45459 0.10712 0.99867 0.0
C171 C 0.46369 0.10733 0.97515 0.0
C172 C 0.46004 0.08596 0.95699 0.0
C173 C 0.44648 0.06422 0.96197 0.0
N174 N 0.46827 0.08738 0.93313 0.0
C175 C 0.48656 0.07355 0.92281 0.0
Zn176 Zn 0.31348 0.85925 0.01192 0.0
Zn177 Zn 0.27388 0.883 0.01919 0.0
O178 O 0.27691 0.86485 0.04987 0.0
O179 O 0.31127 0.84714 0.04388 0.0
O180 O 0.24444 0.90343 0.02628 0.0
O181 O 0.33527 0.89055 0.00986 0.0
O182 O 0.30254 0.91087 0.01624 0.0
C183 C 0.29306 0.85183 0.05698 0.0
C184 C 0.27614 0.84199 0.97348 0.0
O185 O 0.26463 0.859 0.98563 0.0
O186 O 0.29717 0.83809 0.98133 0.0
C187 C 0.22252 0.89674 0.01723 0.0
O188 O 0.21774 0.87504 0.00253 0.0
C189 C 0.32561 0.91087 0.01247 0.0
Zn190 Zn 0.10409 0.44539 0.27987 0.0
Zn191 Zn 0.12983 0.48988 0.27677 0.0
O192 O 0.10663 0.49981 0.30497 0.0
O193 O 0.08729 0.46332 0.30905 0.0
O194 O 0.15032 0.5218 0.27243 0.0
O195 O 0.13634 0.43107 0.28535 0.0
O196 O 0.15651 0.46806 0.28493 0.0
C197 C 0.09112 0.48683 0.31591 0.0
C198 C 0.0963 0.46046 0.23314 0.0
O199 O 0.11197 0.47873 0.24277 0.0
O200 O 0.08927 0.44353 0.24535 0.0
C201 C 0.15175 0.54277 0.28685 0.0
O202 O 0.13886 0.54499 0.30674 0.0
C203 C 0.15651 0.44525 0.28736 0.0
Zn204 Zn 0.81815 0.59682 0.95067 0.0
Zn205 Zn 0.81428 0.62476 0.99523 0.0
O206 O 0.84347 0.60516 1.00175 0.0
O207 O 0.84892 0.58518 0.96442 0.0
O208 O 0.80961 0.64639 0.02799 0.0
O209 O 0.82102 0.62818 0.93545 0.0
O210 O 0.82234 0.6508 0.97265 0.0
C211 C 0.85553 0.59075 0.98704 0.0
C212 C 0.77163 0.58547 0.97104 0.0
O213 O 0.78049 0.60348 0.98782 0.0
O214 O 0.78455 0.57798 0.95307 0.0
C215 C 0.79807 0.63789 0.04508 0.0
O216 O 0.78947 0.6141 0.0417 0.0
C217 C 0.82358 0.64934 0.94941 0.0
Zn218 Zn 0.87912 0.01385 0.30488 0.0
Zn219 Zn 0.90741 0.01391 0.26617 0.0
O220 O 0.88774 0.04525 0.26694 0.0
O221 O 0.86779 0.04669 0.30132 0.0
O222 O 0.93041 0.01567 0.23754 0.0
O223 O 0.90849 0.01304 0.32729 0.0
O224 O 0.93215 0.01445 0.29571 0.0
C225 C 0.87349 0.05597 0.28247 0.0
C226 C 0.86715 0.97027 0.26762 0.0
O227 O 0.88562 0.97983 0.2573 0.0
O228 O 0.85995 0.98169 0.28765 0.0
C229 C 0.93564 0.99663 0.22257 0.0
O230 O 0.92546 0.97431 0.22494 0.0
C231 C 0.92974 0.01367 0.31853 0.0
Zn232 Zn 0.32547 0.10611 0.44782 0.0
Zn233 Zn 0.31678 0.13264 0.4919 0.0
O234 O 0.34295 0.1101 0.50019 0.0
O235 O 0.3509 0.08916 0.46401 0.0
O236 O 0.31199 0.1547 0.52435 0.0
O237 O 0.33566 0.13754 0.43436 0.0
O238 O 0.32717 0.15889 0.47011 0.0
C239 C 0.35463 0.09388 0.48716 0.0
C240 C 0.27512 0.09687 0.46323 0.0
O241 O 0.28283 0.11271 0.48232 0.0
O242 O 0.28955 0.09133 0.44597 0.0
C243 C 0.30274 0.14673 0.54284 0.0
O244 O 0.29574 0.12271 0.54123 0.0
C245 C 0.33425 0.15832 0.44819 0.0
Zn246 Zn 0.38247 0.5348 0.7868 0.0
Zn247 Zn 0.414 0.53955 0.7533 0.0
O248 O 0.39369 0.57068 0.75474 0.0
O249 O 0.37077 0.56798 0.78666 0.0
O250 O 0.43774 0.54333 0.72566 0.0
O251 O 0.40944 0.53197 0.81104 0.0
O252 O 0.43712 0.54034 0.78442 0.0
C253 C 0.37809 0.57964 0.76983 0.0
C254 C 0.37464 0.49334 0.74871 0.0
O255 O 0.39455 0.50408 0.74175 0.0
O256 O 0.36406 0.50388 0.76716 0.0
C257 C 0.43062 0.53607 0.70317 0.0
O258 O 0.40764 0.52622 0.69795 0.0
C259 C 0.43183 0.53602 0.80585 0.0
Zn260 Zn 0.78936 0.3362 0.51752 0.0
Zn261 Zn 0.74751 0.35586 0.52331 0.0
O262 O 0.74797 0.33497 0.55203 0.0
O263 O 0.78085 0.31535 0.54335 0.0
O264 O 0.71673 0.37431 0.52644 0.0
O265 O 0.81003 0.36929 0.52641 0.0
O266 O 0.77496 0.38588 0.52602 0.0
C267 C 0.76245 0.3191 0.55651 0.0
C268 C 0.75827 0.32429 0.47379 0.0
O269 O 0.74273 0.3348 0.48784 0.0
O270 O 0.78005 0.32339 0.48184 0.0
C271 C 0.70734 0.3834 0.54643 0.0
O272 O 0.71685 0.37965 0.56743 0.0
C273 C 0.79855 0.38842 0.52769 0.0
Zn274 Zn 0.63067 0.94931 0.78943 0.0
Zn275 Zn 0.65395 0.99272 0.78192 0.0
O276 O 0.63042 0.00381 0.80963 0.0
O277 O 0.61282 0.96784 0.81716 0.0
O278 O 0.67385 0.02482 0.77685 0.0
O279 O 0.66256 0.93578 0.79586 0.0
O280 O 0.68172 0.97207 0.79114 0.0
C281 C 0.61541 0.99153 0.82175 0.0
C282 C 0.62034 0.95955 0.74105 0.0
O283 O 0.63504 0.9793 0.74858 0.0
O284 O 0.61561 0.94373 0.75508 0.0
C285 C 0.66769 0.03958 0.76277 0.0
O286 O 0.64631 0.03463 0.7504 0.0
C287 C 0.68242 0.95001 0.79574 0.0
Zn288 Zn 0.04923 0.24742 0.83299 0.0
Zn289 Zn 0.05354 0.21642 0.86451 0.0
O290 O 0.08555 0.21473 0.84413 0.0
O291 O 0.08071 0.23975 0.81739 0.0
O292 O 0.05774 0.19201 0.88813 0.0
O293 O 0.04868 0.27579 0.86173 0.0
O294 O 0.05286 0.25014 0.88793 0.0
C295 C 0.09333 0.22487 0.82611 0.0
C296 C 0.00792 0.21081 0.82791 0.0
O297 O 0.01899 0.20424 0.8461 0.0
O298 O 0.01765 0.22852 0.81808 0.0
C299 C 0.05224 0.16844 0.8823 0.0
O300 O 0.04315 0.15902 0.85999 0.0
C301 C 0.05057 0.27207 0.88371 0.0
Zn302 Zn 0.52054 0.77548 0.34425 0.0
Zn303 Zn 0.51758 0.73586 0.36611 0.0
O304 O 0.55042 0.73392 0.34724 0.0
O305 O 0.5502 0.7648 0.32629 0.0
O306 O 0.51639 0.70656 0.38507 0.0
O307 O 0.52485 0.79923 0.37632 0.0
O308 O 0.51773 0.76645 0.39448 0.0
C309 C 0.56026 0.74645 0.33172 0.0
C310 C 0.47519 0.74404 0.33113 0.0
O311 O 0.48511 0.72966 0.34361 0.0
O312 O 0.48628 0.76517 0.32939 0.0
C313 C 0.53307 0.70699 0.40181 0.0
O314 O 0.55057 0.72589 0.40574 0.0
C315 C 0.52147 0.79014 0.39573 0.0
Zn316 Zn 0.95911 0.80006 0.6198 0.0
Zn317 Zn 1.00174 0.79106 0.63958 0.0
O318 O 0.01222 0.81941 0.61997 0.0
O319 O 0.97671 0.82861 0.60598 0.0
O320 O 0.03383 0.78432 0.65521 0.0
O321 O 0.94447 0.80583 0.65305 0.0
O322 O 0.98006 0.79989 0.66964 0.0
C323 C 1.00006 0.83253 0.60795 0.0
C324 C 0.97135 0.75024 0.60216 0.0
O325 O 0.99001 0.75732 0.61708 0.0
O326 O 0.95554 0.76521 0.59973 0.0
C327 C 0.04581 0.80007 0.67217 0.0
O328 O 0.03728 0.82161 0.67965 0.0
C329 C 0.95774 0.80479 0.67193 0.0
Zn330 Zn 0.46655 0.32092 0.13226 0.0
Zn331 Zn 0.50868 0.31243 0.15227 0.0
O332 O 0.51977 0.34064 0.13226 0.0
O333 O 0.4847 0.34463 0.11328 0.0
O334 O 0.54056 0.30538 0.16837 0.0
O335 O 0.4533 0.333 0.16521 0.0
O336 O 0.48657 0.32178 0.18193 0.0
C337 C 0.50776 0.35045 0.1169 0.0
C338 C 0.47644 0.27038 0.11761 0.0
O339 O 0.49656 0.27847 0.13011 0.0
O340 O 0.45983 0.28479 0.11651 0.0
C341 C 0.54007 0.28809 0.18124 0.0
O342 O 0.51876 0.27543 0.18404 0.0
C343 C 0.46552 0.3301 0.18411 0.0
H344 H 0.24834 0.79942 0.81737 0.0
H345 H 0.24381 0.7284 0.84236 0.0
H346 H 0.24882 0.82106 0.86005 0.0
H347 H 0.24391 0.74988 0.88489 0.0
H348 H 0.28912 0.79726 0.95138 0.0
H349 H 0.27727 0.77462 0.91046 0.0
H350 H 0.2284 0.82979 0.89999 0.0
H351 H 0.24066 0.85293 0.94148 0.0
C352 C 0.24678 0.78841 0.83195 0.0
C353 C 0.24645 0.76224 0.82656 0.0
C354 C 0.247 0.8008 0.85641 0.0
C355 C 0.24681 0.78723 0.87594 0.0
C356 C 0.24464 0.76094 0.87034 0.0
C357 C 0.24456 0.74862 0.84597 0.0
C358 C 0.27561 0.80451 0.94056 0.0
C359 C 0.26597 0.82703 0.94967 0.0
C360 C 0.26862 0.79135 0.91707 0.0
C361 C 0.25183 0.80031 0.90187 0.0
C362 C 0.2415 0.82247 0.9112 0.0
C363 C 0.24838 0.83562 0.93499 0.0
H364 H 0.97894 0.56642 0.38947 0.0
H365 H 1.00016 0.52197 0.44238 0.0
H366 H 0.01406 0.55489 0.36481 0.0
H367 H 0.03557 0.51061 0.41806 0.0
H368 H 0.08632 0.5369 0.32988 0.0
H369 H 0.05951 0.55588 0.36108 0.0
H370 H 0.03643 0.48293 0.37838 0.0
H371 H 0.06311 0.46413 0.34764 0.0
C372 C 0.99167 0.55482 0.39615 0.0
C373 C 0.98712 0.54508 0.41771 0.0
C374 C 0.01177 0.54824 0.38211 0.0
C375 C 0.02749 0.53163 0.38935 0.0
C376 C 0.02362 0.52317 0.41182 0.0
C377 C 0.00354 0.5298 0.42584 0.0
C378 C 0.07575 0.525 0.3406 0.0
C379 C 0.07672 0.49897 0.33613 0.0
C380 C 0.06034 0.53586 0.35839 0.0
C381 C 0.04585 0.52093 0.37225 0.0
C382 C 0.04758 0.49505 0.36833 0.0
C383 C 0.06275 0.48422 0.35049 0.0
H384 H 0.85399 0.75276 0.84783 0.0
H385 H 0.85569 0.80107 0.91876 0.0
H386 H 0.84708 0.71651 0.86757 0.0
H387 H 0.846 0.76489 0.9382 0.0
H388 H 0.84919 0.69398 0.97037 0.0
H389 H 0.8594 0.73064 0.95128 0.0
H390 H 0.81755 0.69325 0.88518 0.0
H391 H 0.80901 0.6562 0.9038 0.0
C392 C 0.85297 0.75578 0.86765 0.0
C393 C 0.85546 0.7801 0.88156 0.0
C394 C 0.84842 0.73484 0.87901 0.0
C395 C 0.84557 0.73752 0.90458 0.0
C396 C 0.84829 0.76184 0.91853 0.0
C397 C 0.85344 0.78277 0.90724 0.0
C398 C 0.84221 0.69372 0.95177 0.0
C399 C 0.82843 0.67222 0.93853 0.0
C400 C 0.84793 0.7148 0.94079 0.0
C401 C 0.83948 0.7151 0.91649 0.0
C402 C 0.82508 0.69368 0.9036 0.0
C403 C 0.81992 0.67243 0.91436 0.0
H404 H 0.01825 0.97343 0.43435 0.0
H405 H 0.07345 0.00573 0.39068 0.0
H406 H 0.98583 0.98208 0.4069 0.0
H407 H 0.04096 0.01566 0.36401 0.0
H408 H 0.97626 0.00264 0.30559 0.0
H409 H 0.01016 0.99617 0.33286 0.0
H410 H 0.966 0.01559 0.3958 0.0
H411 H 0.93205 0.02124 0.36862 0.0
C412 C 0.02349 0.98248 0.41896 0.0
C413 C 0.0485 0.9889 0.41482 0.0
C414 C 0.00486 0.98775 0.40336 0.0
C415 C 0.01072 0.99971 0.38325 0.0
C416 C 0.03574 0.00624 0.37916 0.0
C417 C 0.05439 1.00086 0.39471 0.0
C418 C 0.97392 0.00573 0.32527 0.0
C419 C 0.95138 0.01223 0.33489 0.0
C420 C 0.99337 0.0021 0.34093 0.0
C421 C 0.99075 0.00506 0.36657 0.0
C422 C 0.9685 0.01252 0.37615 0.0
C423 C 0.94906 0.01594 0.36054 0.0
H424 H 0.2818 0.27525 0.65536 0.0
H425 H 0.30852 0.22107 0.69526 0.0
H426 H 0.28161 0.24539 0.61701 0.0
H427 H 0.30828 0.19125 0.65698 0.0
H428 H 0.28485 0.13612 0.58629 0.0
H429 H 0.28132 0.16529 0.6245 0.0
H430 H 0.31173 0.22644 0.59008 0.0
H431 H 0.31487 0.19744 0.55184 0.0
C432 C 0.28767 0.25699 0.65595 0.0
C433 C 0.29525 0.2506 0.67839 0.0
C434 C 0.28756 0.23988 0.63397 0.0
C435 C 0.29503 0.21595 0.63389 0.0
C436 C 0.3021 0.20938 0.6564 0.0
C437 C 0.30222 0.22649 0.67837 0.0
C438 C 0.2907 0.1558 0.58685 0.0
C439 C 0.30019 0.16441 0.56599 0.0
C440 C 0.28878 0.1725 0.60879 0.0
C441 C 0.29624 0.19821 0.61037 0.0
C442 C 0.30549 0.20683 0.58942 0.0
C443 C 0.30745 0.19014 0.56752 0.0
H444 H 0.49941 0.53853 0.56169 0.0
H445 H 0.5597 0.53657 0.61345 0.0
H446 H 0.47119 0.54279 0.59533 0.0
H447 H 0.53132 0.53919 0.64679 0.0
H448 H 0.47766 0.56054 0.70609 0.0
H449 H 0.50593 0.56321 0.67278 0.0
H450 H 0.45123 0.51788 0.62138 0.0
H451 H 0.42282 0.51609 0.6544 0.0
C452 C 0.50674 0.53924 0.58024 0.0
C453 C 0.53187 0.53692 0.58469 0.0
C454 C 0.49044 0.5413 0.59957 0.0
C455 C 0.49876 0.54097 0.6239 0.0
C456 C 0.5241 0.53967 0.62844 0.0
C457 C 0.5404 0.53781 0.60917 0.0
C458 C 0.47165 0.55126 0.68764 0.0
C459 C 0.44794 0.53808 0.68298 0.0
C460 C 0.48793 0.55267 0.6685 0.0
C461 C 0.48101 0.54076 0.64421 0.0
C462 C 0.45719 0.52773 0.63964 0.0
C463 C 0.44088 0.52652 0.6587 0.0
H464 H 0.7764 0.21986 0.66366 0.0
H465 H 0.78085 0.29509 0.70423 0.0
H466 H 0.76202 0.23439 0.62667 0.0
H467 H 0.76721 0.30995 0.66733 0.0
H468 H 0.78227 0.27696 0.56298 0.0
H469 H 0.7832 0.2581 0.59955 0.0
H470 H 0.73648 0.31148 0.63515 0.0
H471 H 0.73598 0.33092 0.59818 0.0
C472 C 0.77372 0.23941 0.66472 0.0
C473 C 0.77957 0.2564 0.68663 0.0
C474 C 0.76572 0.24783 0.64354 0.0
C475 C 0.76369 0.27346 0.64386 0.0
C476 C 0.76824 0.2901 0.66636 0.0
C477 C 0.77615 0.28163 0.6875 0.0
C478 C 0.77186 0.28455 0.57844 0.0
C479 C 0.75926 0.30566 0.5777 0.0
C480 C 0.77221 0.27351 0.59944 0.0
C481 C 0.75998 0.28323 0.62046 0.0
C482 C 0.74633 0.30365 0.61938 0.0
C483 C 0.74587 0.31469 0.59816 0.0
H484 H 0.49856 0.93254 0.63668 0.0
H485 H 0.55835 0.94978 0.59027 0.0
H486 H 0.52765 0.93864 0.67199 0.0
H487 H 0.5877 0.95569 0.62585 0.0
H488 H 0.62253 0.99047 0.70639 0.0
H489 H 0.59673 0.98528 0.66839 0.0
H490 H 0.56247 0.91464 0.68299 0.0
H491 H 0.58794 0.9196 0.72059 0.0
C492 C 0.51791 0.93785 0.63409 0.0
C493 C 0.5262 0.9407 0.61075 0.0
C494 C 0.53459 0.94112 0.65424 0.0
C495 C 0.55992 0.94745 0.65157 0.0
C496 C 0.56824 0.95086 0.62837 0.0
C497 C 0.55152 0.94732 0.60806 0.0
C498 C 0.60972 0.9737 0.70129 0.0
C499 C 0.60713 0.95559 0.71667 0.0
C500 C 0.59502 0.97073 0.67955 0.0
C501 C 0.5774 0.94974 0.67301 0.0
C502 C 0.5756 0.93122 0.68784 0.0
C503 C 0.59031 0.93406 0.70935 0.0
H504 H 0.86464 0.16193 0.74869 0.0
H505 H 0.86286 0.23393 0.79482 0.0
H506 H 0.90533 0.15849 0.76722 0.0
H507 H 0.90324 0.23024 0.81373 0.0
H508 H 0.96753 0.20597 0.85554 0.0
H509 H 0.92419 0.20001 0.84011 0.0
H510 H 0.94804 0.18708 0.7655 0.0
H511 H 0.99116 0.19383 0.78088 0.0
C512 C 0.87285 0.17684 0.76301 0.0
C513 C 0.86075 0.19827 0.77025 0.0
C514 C 0.89605 0.17486 0.77358 0.0
C515 C 0.90728 0.19399 0.79202 0.0
C516 C 0.89483 0.21507 0.79977 0.0
C517 C 0.87189 0.21731 0.78882 0.0
C518 C 0.9634 0.20097 0.8359 0.0
C519 C 0.98257 0.20014 0.81936 0.0
C520 C 0.93869 0.19784 0.82709 0.0
C521 C 0.93284 0.19322 0.80163 0.0
C522 C 0.95202 0.19046 0.7852 0.0
C523 C 0.97666 0.19423 0.79398 0.0
H524 H 0.46417 0.87524 0.52397 0.0
H525 H 0.5378 0.91257 0.52178 0.0
H526 H 0.47218 0.8442 0.48844 0.0
H527 H 0.54596 0.88128 0.48652 0.0
H528 H 0.50365 0.77944 0.4393 0.0
H529 H 0.49842 0.80922 0.47686 0.0
H530 H 0.53133 0.86962 0.44285 0.0
H531 H 0.53667 0.84009 0.40559 0.0
C532 C 0.48201 0.87689 0.51579 0.0
C533 C 0.5003 0.89645 0.52554 0.0
C534 C 0.48671 0.85892 0.49568 0.0
C535 C 0.50974 0.86024 0.48476 0.0
C536 C 0.528 0.87984 0.49447 0.0
C537 C 0.52337 0.89769 0.5147 0.0
C538 C 0.51003 0.79903 0.43998 0.0
C539 C 0.52046 0.8074 0.41941 0.0
C540 C 0.50687 0.81609 0.4614 0.0
C541 C 0.51434 0.84178 0.46274 0.0
C542 C 0.52555 0.84995 0.44247 0.0
C543 C 0.52849 0.833 0.42106 0.0
H544 H 0.25156 0.22203 0.79803 0.0
H545 H 0.22107 0.27304 0.75696 0.0
H546 H 0.20986 0.20757 0.80933 0.0
H547 H 0.17967 0.25944 0.76861 0.0
H548 H 0.10594 0.2236 0.77886 0.0
H549 H 0.14732 0.22639 0.76329 0.0
H550 H 0.17786 0.22266 0.83546 0.0
H551 H 0.13605 0.21872 0.85073 0.0
C552 C 0.23581 0.22986 0.79122 0.0
C553 C 0.23921 0.2484 0.77651 0.0
C554 C 0.21201 0.22178 0.79782 0.0
C555 C 0.19129 0.23223 0.78985 0.0
C556 C 0.195 0.25051 0.77469 0.0
C557 C 0.21871 0.25846 0.76808 0.0
C558 C 0.12148 0.22278 0.79125 0.0
C559 C 0.11783 0.22119 0.81605 0.0
C560 C 0.14524 0.22461 0.78239 0.0
C561 C 0.16604 0.22543 0.79823 0.0
C562 C 0.16229 0.22204 0.82269 0.0
C563 C 0.13835 0.21978 0.83148 0.0
H564 H 0.55802 0.61703 0.51564 0.0
H565 H 0.52542 0.5642 0.45329 0.0
H566 H 0.55106 0.65163 0.49413 0.0
H567 H 0.51908 0.59842 0.43131 0.0
H568 H 0.49811 0.66663 0.4017 0.0
H569 H 0.49847 0.63391 0.42692 0.0
H570 H 0.56862 0.66886 0.46104 0.0
H571 H 0.56787 0.70172 0.43649 0.0
C572 C 0.54889 0.61293 0.49751 0.0
C573 C 0.54196 0.5881 0.48617 0.0
C574 C 0.54518 0.63267 0.485 0.0
C575 C 0.53472 0.62794 0.46076 0.0
C576 C 0.52689 0.60296 0.44997 0.0
C577 C 0.53051 0.58329 0.46254 0.0
C578 C 0.51355 0.66735 0.41465 0.0
C579 C 0.53297 0.68684 0.41697 0.0
C580 C 0.51381 0.64852 0.4291 0.0
C581 C 0.53354 0.64865 0.4462 0.0
C582 C 0.55285 0.66828 0.44853 0.0
C583 C 0.55253 0.68708 0.43419 0.0
H584 H 0.91719 0.80103 0.82337 0.0
H585 H 0.86257 0.84139 0.79387 0.0
H586 H 0.93776 0.79719 0.78448 0.0
H587 H 0.88414 0.8392 0.7558 0.0
H588 H 0.909 0.80514 0.68141 0.0
H589 H 0.89008 0.8099 0.7209 0.0
H590 H 0.96227 0.81826 0.75771 0.0
H591 H 0.98126 0.81238 0.71775 0.0
C592 C 0.90958 0.80918 0.80866 0.0
C593 C 0.88803 0.82135 0.81181 0.0
C594 C 0.92165 0.80731 0.78644 0.0
C595 C 0.91261 0.81776 0.76684 0.0
C596 C 0.89144 0.83049 0.77025 0.0
C597 C 0.87923 0.8321 0.79232 0.0
C598 C 0.92092 0.80808 0.69789 0.0
C599 C 0.94668 0.80845 0.69638 0.0
C600 C 0.91003 0.811 0.72065 0.0
C601 C 0.92458 0.81472 0.74265 0.0
C602 C 0.95042 0.81516 0.74118 0.0
C603 C 0.96135 0.81194 0.71828 0.0
H604 H 0.02735 0.90516 0.485 0.0
H605 H 0.09879 0.9206 0.52312 0.0
H606 H 0.01038 0.88667 0.51913 0.0
H607 H 0.08186 0.90263 0.55782 0.0
H608 H 0.04855 0.83655 0.59531 0.0
H609 H 0.06725 0.86182 0.56671 0.0
H610 H 0.99925 0.89525 0.5611 0.0
H611 H 0.98042 0.86953 0.58902 0.0
C612 C 0.03925 0.90496 0.501 0.0
C613 C 0.06422 0.91426 0.50169 0.0
C614 C 0.02957 0.89451 0.52062 0.0
C615 C 0.04474 0.89319 0.54133 0.0
C616 C 0.06973 0.90311 0.5421 0.0
C617 C 0.07939 0.91355 0.52239 0.0
C618 C 0.03776 0.84962 0.5883 0.0
C619 C 0.0129 0.85077 0.59418 0.0
C620 C 0.04849 0.86418 0.57193 0.0
C621 C 0.03462 0.8803 0.56125 0.0
C622 C 0.01028 0.88258 0.56846 0.0
C623 C 0.99952 0.86793 0.58461 0.0
H624 H 0.19743 0.80248 0.7268 0.0
H625 H 0.16412 0.72849 0.73198 0.0
H626 H 0.15736 0.8134 0.71333 0.0
H627 H 0.1239 0.7393 0.71889 0.0
H628 H 0.06732 0.75652 0.66246 0.0
H629 H 0.10577 0.74697 0.6804 0.0
H630 H 0.11532 0.82046 0.72553 0.0
H631 H 0.07695 0.83019 0.70732 0.0
C632 C 0.18133 0.78879 0.72554 0.0
C633 C 0.18358 0.76476 0.73048 0.0
C634 C 0.15841 0.79499 0.71787 0.0
C635 C 0.13743 0.77716 0.71486 0.0
C636 C 0.13974 0.75334 0.72067 0.0
C637 C 0.16264 0.7472 0.72838 0.0
C638 C 0.07757 0.77066 0.67624 0.0
C639 C 0.06905 0.79416 0.68339 0.0
C640 C 0.09954 0.7651 0.68668 0.0
C641 C 0.1136 0.78292 0.70449 0.0
C642 C 0.10505 0.8064 0.71171 0.0
C643 C 0.08299 0.81193 0.70133 0.0
H644 H 0.90521 0.60452 0.53137 0.0
H645 H 0.98084 0.60411 0.50961 0.0
H646 H 0.91543 0.64572 0.55618 0.0
H647 H 0.99094 0.64608 0.53407 0.0
H648 H 1.00135 0.71245 0.60127 0.0
H649 H 0.99398 0.66978 0.57781 0.0
H650 H 0.92594 0.68764 0.54661 0.0
H651 H 0.93299 0.72978 0.56998 0.0
C652 C 0.92413 0.61309 0.5321 0.0
C653 C 0.94223 0.60093 0.51856 0.0
C654 C 0.92991 0.63688 0.5461 0.0
C655 C 0.95393 0.64926 0.54691 0.0
C656 C 0.97228 0.63695 0.53388 0.0
C657 C 0.96645 0.61305 0.51973 0.0
C658 C 0.98484 0.70723 0.58938 0.0
C659 C 0.96768 0.72451 0.58767 0.0
C660 C 0.9807 0.68285 0.57587 0.0
C661 C 0.95926 0.67529 0.56056 0.0
C662 C 0.9424 0.69273 0.55859 0.0
C663 C 0.94654 0.71698 0.57194 0.0
H664 H 0.82674 0.81408 0.25963 0.0
H665 H 0.77177 0.83179 0.20962 0.0
H666 H 0.84702 0.85709 0.26453 0.0
H667 H 0.7916 0.87509 0.21513 0.0
H668 H 0.8187 0.95349 0.26995 0.0
H669 H 0.79906 0.91052 0.2582 0.0
H670 H 0.86828 0.88686 0.23212 0.0
H671 H 0.88787 0.93015 0.24314 0.0
C672 C 0.81902 0.82726 0.24979 0.0
C673 C 0.7977 0.81984 0.23438 0.0
C674 C 0.83067 0.8517 0.25242 0.0
C675 C 0.82088 0.86922 0.24008 0.0
C676 C 0.79949 0.86183 0.22474 0.0
C677 C 0.78817 0.8372 0.22165 0.0
C678 C 0.8296 0.9392 0.26126 0.0
C679 C 0.85479 0.9451 0.25743 0.0
C680 C 0.81835 0.91469 0.25453 0.0
C681 C 0.83223 0.8955 0.24441 0.0
C682 C 0.85726 0.90142 0.23996 0.0
C683 C 0.86839 0.92613 0.24611 0.0
H684 H 0.75902 0.14282 0.25067 0.0
H685 H 0.8107 0.1982 0.29635 0.0
H686 H 0.78935 0.11262 0.24874 0.0
H687 H 0.84059 0.16776 0.29493 0.0
H688 H 0.85765 0.06881 0.23907 0.0
H689 H 0.83302 0.10327 0.23462 0.0
H690 H 0.83944 0.12831 0.31327 0.0
H691 H 0.86349 0.09403 0.31768 0.0
C692 C 0.77693 0.14873 0.25998 0.0
C693 C 0.78219 0.17292 0.27398 0.0
C694 C 0.79433 0.1314 0.25883 0.0
C695 C 0.81729 0.13779 0.27179 0.0
C696 C 0.82292 0.16221 0.28499 0.0
C697 C 0.80568 0.17958 0.28595 0.0
C698 C 0.8542 0.08205 0.25526 0.0
C699 C 0.86244 0.07876 0.27871 0.0
C700 C 0.83995 0.10159 0.25276 0.0
C701 C 0.83426 0.11844 0.27361 0.0
C702 C 0.84367 0.1158 0.29684 0.0
C703 C 0.85738 0.0961 0.29937 0.0
H704 H 0.44132 0.01409 0.96959 0.0
H705 H 0.39423 0.06316 0.01127 0.0
H706 H 0.41388 0.97797 0.97634 0.0
H707 H 0.36758 0.02702 0.01922 0.0
H708 H 0.31119 0.95641 0.00649 0.0
H709 H 0.33771 0.99353 0.99999 0.0
H710 H 0.40221 0.95515 0.00793 0.0
H711 H 0.37585 0.9181 0.01359 0.0
C712 C 0.42517 0.0172 0.98026 0.0
C713 C 0.42013 0.04159 0.98996 0.0
C714 C 0.40955 0.99645 0.9844 0.0
C715 C 0.38853 0.99951 0.99848 0.0
C716 C 0.38344 0.02391 0.00813 0.0
C717 C 0.39899 0.04466 0.00387 0.0
C718 C 0.33104 0.95601 0.00696 0.0
C719 C 0.34136 0.93422 0.01037 0.0
C720 C 0.34627 0.9773 0.00331 0.0
C721 C 0.37216 0.9773 0.00317 0.0
C722 C 0.38239 0.9557 0.0073 0.0
C723 C 0.36722 0.93445 0.01074 0.0
H724 H 0.29065 0.42454 0.36378 0.0
H725 H 0.27494 0.35473 0.3134 0.0
H726 H 0.2569 0.44155 0.34436 0.0
H727 H 0.24136 0.3717 0.29346 0.0
H728 H 0.16306 0.39754 0.29306 0.0
H729 H 0.2007 0.38195 0.30574 0.0
H730 H 0.2409 0.45485 0.30766 0.0
H731 H 0.20301 0.47067 0.29535 0.0
C732 C 0.28029 0.41312 0.34809 0.0
C733 C 0.28524 0.38848 0.3399 0.0
C734 C 0.26102 0.42282 0.33691 0.0
C735 C 0.24629 0.40794 0.31743 0.0
C736 C 0.25211 0.38354 0.30863 0.0
C737 C 0.27141 0.37388 0.31984 0.0
C738 C 0.17993 0.41025 0.29599 0.0
C739 C 0.17992 0.43543 0.29336 0.0
C740 C 0.20161 0.40123 0.30308 0.0
C741 C 0.22386 0.41714 0.30773 0.0
C742 C 0.22402 0.44217 0.30448 0.0
C743 C 0.20231 0.4512 0.29734 0.0
H744 H 0.11756 0.04341 0.46574 0.0
H745 H 0.15595 0.97819 0.44455 0.0
H746 H 0.15704 0.07011 0.46929 0.0
H747 H 0.19517 0.00468 0.44854 0.0
H748 H 0.25445 0.06019 0.42645 0.0
H749 H 0.21416 0.03609 0.42477 0.0
H750 H 0.19786 0.07895 0.49456 0.0
H751 H 0.23843 0.1034 0.49633 0.0
C752 C 0.13442 0.0348 0.462 0.0
C753 C 0.13366 0.00872 0.45485 0.0
C754 C 0.15699 0.05004 0.4642 0.0
C755 C 0.17913 0.03947 0.459 0.0
C756 C 0.17837 0.01337 0.45236 0.0
C757 C 0.15592 0.99818 0.45034 0.0
C758 C 0.2423 0.06468 0.44142 0.0
C759 C 0.24977 0.08367 0.46161 0.0
C760 C 0.21924 0.05072 0.4405 0.0
C761 C 0.20299 0.05544 0.45967 0.0
C762 C 0.21002 0.07496 0.47951 0.0
C763 C 0.23326 0.08888 0.48053 0.0
H764 H 0.76087 0.15873 0.70997 0.0
H765 H 0.77881 0.16797 0.78782 0.0
H766 H 0.72901 0.12438 0.71353 0.0
H767 H 0.74696 0.13429 0.79154 0.0
H768 H 0.71383 0.05372 0.78425 0.0
H769 H 0.74242 0.08966 0.77962 0.0
H770 H 0.68926 0.11223 0.7307 0.0
H771 H 0.66064 0.0757 0.73492 0.0
C772 C 0.75771 0.15366 0.72786 0.0
C773 C 0.77256 0.16569 0.74854 0.0
C774 C 0.73948 0.13404 0.72994 0.0
C775 C 0.73572 0.12626 0.75276 0.0
C776 C 0.7498 0.13928 0.77357 0.0
C777 C 0.76799 0.15866 0.77147 0.0
C778 C 0.70813 0.06632 0.77253 0.0
C779 C 0.68486 0.06183 0.76004 0.0
C780 C 0.72451 0.08708 0.76998 0.0
C781 C 0.71808 0.10403 0.75495 0.0
C782 C 0.69487 0.09948 0.74229 0.0
C783 C 0.67842 0.07862 0.74483 0.0
H784 H 0.43954 0.01638 0.5822 0.0
H785 H 0.41534 0.96289 0.51704 0.0
H786 H 0.4226 0.04952 0.56428 0.0
H787 H 0.39791 0.99569 0.49913 0.0
H788 H 0.38621 0.06243 0.46468 0.0
H789 H 0.40904 0.03354 0.4828 0.0
H790 H 0.38225 0.06139 0.55415 0.0
H791 H 0.35975 0.09077 0.53608 0.0
C792 C 0.43068 0.01187 0.56394 0.0
C793 C 0.42868 0.98736 0.55082 0.0
C794 C 0.42087 0.03072 0.55376 0.0
C795 C 0.40889 0.02528 0.53027 0.0
C796 C 0.40734 1.00063 0.51709 0.0
C797 C 0.41716 0.98182 0.52731 0.0
C798 C 0.3854 0.06264 0.4843 0.0
C799 C 0.37096 0.07878 0.4989 0.0
C800 C 0.39839 0.04594 0.49465 0.0
C801 C 0.3972 0.04488 0.51985 0.0
C802 C 0.38369 0.06182 0.53469 0.0
C803 C 0.37074 0.07864 0.52433 0.0
H804 H 0.57597 0.46433 0.56505 0.0
H805 H 0.62768 0.50818 0.52696 0.0
H806 H 0.60563 0.43379 0.56579 0.0
H807 H 0.65679 0.47722 0.52702 0.0
H808 H 0.69031 0.40307 0.50761 0.0
H809 H 0.65945 0.43244 0.50766 0.0
H810 H 0.64813 0.43085 0.58451 0.0
H811 H 0.67915 0.40147 0.58456 0.0
C812 C 0.59367 0.46763 0.557 0.0
C813 C 0.59926 0.48881 0.54585 0.0
C814 C 0.61063 0.45002 0.55734 0.0
C815 C 0.63349 0.45297 0.54629 0.0
C816 C 0.63916 0.47416 0.53531 0.0
C817 C 0.62238 0.49189 0.53522 0.0
C818 C 0.68115 0.40881 0.52451 0.0
C819 C 0.6873 0.39992 0.54611 0.0
C820 C 0.66356 0.42578 0.52456 0.0
C821 C 0.65144 0.4341 0.54612 0.0
C822 C 0.65705 0.4247 0.56756 0.0
C823 C 0.6749 0.40794 0.5676 0.0
H824 H 0.70381 0.24117 0.32763 0.0
H825 H 0.7836 0.24733 0.33169 0.0
H826 H 0.70443 0.26864 0.36773 0.0
H827 H 0.7842 0.27298 0.37191 0.0
H828 H 0.78481 0.3331 0.43517 0.0
H829 H 0.77864 0.31245 0.39254 0.0
H830 H 0.71229 0.26994 0.41093 0.0
H831 H 0.71788 0.29217 0.45363 0.0
C832 C 0.72146 0.24842 0.33699 0.0
C833 C 0.74365 0.24182 0.32646 0.0
C834 C 0.72181 0.26394 0.36012 0.0
C835 C 0.74436 0.27321 0.37319 0.0
C836 C 0.76645 0.26676 0.36238 0.0
C837 C 0.7661 0.25156 0.33934 0.0
C838 C 0.76866 0.31967 0.42996 0.0
C839 C 0.75193 0.31403 0.44763 0.0
C840 C 0.76521 0.3076 0.40555 0.0
C841 C 0.74533 0.28891 0.39827 0.0
C842 C 0.72779 0.28423 0.41577 0.0
C843 C 0.73097 0.29687 0.44024 0.0
H844 H 0.48389 0.02663 0.89713 0.0
H845 H 0.5336 0.09358 0.92161 0.0
H846 H 0.51701 0.0072 0.87454 0.0
H847 H 0.56705 0.07418 0.89947 0.0
H848 H 0.60861 0.04139 0.83073 0.0
H849 H 0.5784 0.06131 0.85715 0.0
H850 H 0.55599 0.99094 0.88038 0.0
H851 H 0.58569 0.97099 0.85374 0.0
C852 C 0.50207 0.03698 0.89787 0.0
C853 C 0.50644 0.06141 0.91102 0.0
C854 C 0.52106 0.0259 0.88508 0.0
C855 C 0.54473 0.03913 0.88521 0.0
C856 C 0.54901 0.06357 0.89876 0.0
C857 C 0.52999 0.07461 0.91156 0.0
C858 C 0.59745 0.03027 0.84172 0.0
C859 C 0.59943 0.00455 0.83993 0.0
C860 C 0.58017 0.04169 0.85692 0.0
C861 C 0.56456 0.02764 0.87068 0.0
C862 C 0.56733 0.00218 0.86965 0.0
C863 C 0.58451 0.99079 0.85446 0.0
H864 H 0.34909 0.26271 0.34732 0.0
H865 H 0.35547 0.31163 0.4179 0.0
H866 H 0.34669 0.22645 0.36769 0.0
H867 H 0.35403 0.27533 0.43854 0.0
H868 H 0.32013 0.2045 0.46572 0.0
H869 H 0.32636 0.24202 0.44719 0.0
H870 H 0.36847 0.20283 0.39059 0.0
H871 H 0.36118 0.16511 0.40847 0.0
C872 C 0.3505 0.26567 0.36725 0.0
C873 C 0.3525 0.28996 0.38103 0.0
C874 C 0.34921 0.24488 0.37899 0.0
C875 C 0.35022 0.24785 0.40485 0.0
C876 C 0.35277 0.27225 0.41863 0.0
C877 C 0.35374 0.29307 0.40684 0.0
C878 C 0.33086 0.204 0.44941 0.0
C879 C 0.33995 0.18179 0.43842 0.0
C880 C 0.33457 0.22557 0.43883 0.0
C881 C 0.34776 0.2255 0.41721 0.0
C882 C 0.35769 0.20348 0.40686 0.0
C883 C 0.35366 0.18185 0.41721 0.0
H884 H 0.55876 0.50939 0.89447 0.0
H885 H 0.51055 0.54644 0.9461 0.0
H886 H 0.53166 0.51513 0.86024 0.0
H887 H 0.48383 0.55263 0.91212 0.0
H888 H 0.4249 0.52563 0.85171 0.0
H889 H 0.45544 0.5245 0.88384 0.0
H890 H 0.51372 0.54443 0.8368 0.0
H891 H 0.48269 0.54511 0.80387 0.0
C892 C 0.54262 0.51917 0.89846 0.0
C893 C 0.53654 0.52711 0.92296 0.0
C894 C 0.52714 0.52252 0.87887 0.0
C895 C 0.50535 0.53398 0.88343 0.0
C896 C 0.50012 0.54315 0.90794 0.0
C897 C 0.51544 0.53965 0.92744 0.0
C898 C 0.44418 0.52988 0.84804 0.0
C899 C 0.45127 0.53558 0.82512 0.0
C900 C 0.46176 0.52942 0.86666 0.0
C901 C 0.48705 0.53474 0.8631 0.0
C902 C 0.49435 0.54021 0.84012 0.0
C903 C 0.4766 0.54068 0.8213 0.0
H904 H 0.81486 0.75145 0.1764 0.0
H905 H 0.7406 0.71616 0.18009 0.0
H906 H 0.81968 0.72374 0.13786 0.0
H907 H 0.74542 0.68826 0.14121 0.0
H908 H 0.77465 0.62579 0.08546 0.0
H909 H 0.76821 0.65354 0.12382 0.0
H910 H 0.80502 0.71598 0.09533 0.0
H911 H 0.81192 0.68822 0.05726 0.0
C912 C 0.79939 0.73799 0.16878 0.0
C913 C 0.77722 0.73622 0.18122 0.0
C914 C 0.80218 0.72206 0.14665 0.0
C915 C 0.78289 0.70387 0.13632 0.0
C916 C 0.76073 0.70192 0.14879 0.0
C917 C 0.75794 0.71791 0.17103 0.0
C918 C 0.78139 0.64544 0.08739 0.0
C919 C 0.79394 0.65474 0.06833 0.0
C920 C 0.77752 0.66138 0.10932 0.0
C921 C 0.78614 0.68698 0.1127 0.0
C922 C 0.79847 0.69629 0.09351 0.0
C923 C 0.80234 0.68037 0.07162 0.0
H924 H 0.0395 0.97356 0.10414 0.0
H925 H 0.02426 0.05033 0.10926 0.0
H926 H 0.01445 0.96959 0.13954 0.0
H927 H 0.998 0.04592 0.14343 0.0
H928 H 0.9667 0.03809 0.21714 0.0
H929 H 0.99584 0.04233 0.18493 0.0
H930 H 0.9729 0.96585 0.15045 0.0
H931 H 0.9446 0.96139 0.18321 0.0
C932 C 0.03096 0.98965 0.11286 0.0
C933 C 0.03384 0.01221 0.10359 0.0
C934 C 0.01623 0.98727 0.13299 0.0
C935 C 0.00385 0.00734 0.14437 0.0
C936 C 0.00731 0.03007 0.13546 0.0
C937 C 0.02216 0.0325 0.11552 0.0
C938 C 0.96792 0.02218 0.2027 0.0
C939 C 0.95324 0.99942 0.20278 0.0
C940 C 0.98459 0.02462 0.18409 0.0
C941 C 0.98685 0.00446 0.16488 0.0
C942 C 0.97213 0.98169 0.16507 0.0
C943 C 0.95567 0.97918 0.18381 0.0
H944 H 0.2557 0.80028 0.19571 0.0
H945 H 0.2995 0.74659 0.15625 0.0
H946 H 0.26194 0.82653 0.16401 0.0
H947 H 0.3055 0.77237 0.12427 0.0
H948 H 0.32874 0.83214 0.08045 0.0
H949 H 0.32519 0.8113 0.11583 0.0
H950 H 0.24886 0.82578 0.1212 0.0
H951 H 0.25259 0.84733 0.08573 0.0
C952 C 0.26705 0.7944 0.1804 0.0
C953 C 0.27748 0.77174 0.17844 0.0
C954 C 0.27037 0.80922 0.16211 0.0
C955 C 0.28416 0.80158 0.1415 0.0
C956 C 0.29508 0.77907 0.14002 0.0
C957 C 0.2917 0.76427 0.1583 0.0
C958 C 0.31117 0.83108 0.08919 0.0
C959 C 0.29084 0.84123 0.08003 0.0
C960 C 0.30914 0.81896 0.10948 0.0
C961 C 0.28667 0.8165 0.12122 0.0
C962 C 0.26651 0.82745 0.11269 0.0
C963 C 0.26859 0.83974 0.09232 0.0
H964 H 0.0274 0.41083 0.08672 0.0
H965 H 0.05552 0.48796 0.08706 0.0
H966 H 0.04252 0.41458 0.12906 0.0
H967 H 0.0687 0.49233 0.13004 0.0
H968 H 0.11547 0.48459 0.19721 0.0
H969 H 0.09932 0.48141 0.15514 0.0
H970 H 0.03712 0.43093 0.17006 0.0
H971 H 0.05408 0.43315 0.21169 0.0
C972 C 0.03664 0.42867 0.09583 0.0
C973 C 0.04038 0.449 0.08322 0.0
C974 C 0.045 0.43096 0.12036 0.0
C975 C 0.057 0.45376 0.13314 0.0
C976 C 0.06001 0.47432 0.12076 0.0
C977 C 0.05199 0.47192 0.09613 0.0
C978 C 0.09836 0.47282 0.19146 0.0
C979 C 0.08614 0.45903 0.20774 0.0
C980 C 0.08893 0.47112 0.16735 0.0
C981 C 0.06681 0.45591 0.15902 0.0
C982 C 0.05443 0.44243 0.17553 0.0
C983 C 0.06408 0.44382 0.1995 0.0
H984 H 0.3358 0.75529 0.25678 0.0
H985 H 0.33558 0.67568 0.25443 0.0
H986 H 0.37724 0.76207 0.27543 0.0
H987 H 0.37568 0.68269 0.27569 0.0
H988 H 0.45685 0.7003 0.30099 0.0
H989 H 0.41743 0.69209 0.27726 0.0
H990 H 0.39779 0.76427 0.31207 0.0
H991 H 0.4378 0.77287 0.33391 0.0
C992 C 0.34451 0.73917 0.26015 0.0
C993 C 0.33186 0.71496 0.25439 0.0
C994 C 0.36825 0.74311 0.27145 0.0
C995 C 0.37989 0.72305 0.27791 0.0
C996 C 0.36765 0.69874 0.27115 0.0
C997 C 0.34422 0.69474 0.25927 0.0
C998 C 0.4439 0.7142 0.30355 0.0
C999 C 0.45027 0.73718 0.31921 0.0
C1000 C 0.42122 0.70957 0.28999 0.0
C1001 C 0.40419 0.72761 0.29231 0.0
C1002 C 0.41048 0.75018 0.3089 0.0
C1003 C 0.43332 0.75502 0.32182 0.0
H1004 H 0.06779 0.38954 0.01494 0.0
H1005 H 1.00018 0.39864 0.97638 0.0
H1006 H 0.0728 0.35228 0.98448 0.0
H1007 H 0.00544 0.3619 0.94596 0.0
H1008 H 0.0407 0.31929 0.8803 0.0
H1009 H 0.03621 0.35376 0.91344 0.0
H1010 H 0.05234 0.30782 0.96695 0.0
H1011 H 0.05693 0.2729 0.93354 0.0
C1012 C 0.05385 0.38343 1.00019 0.0
C1013 C 0.03377 0.39728 0.99789 0.0
C1014 C 0.05675 0.36214 0.98276 0.0
C1015 C 0.03969 0.35442 0.96267 0.0
C1016 C 0.01916 0.36771 0.96096 0.0
C1017 C 0.01619 0.38879 0.97837 0.0
C1018 C 0.0434 0.31642 0.89908 0.0
C1019 C 0.04906 0.29322 0.90423 0.0
C1020 C 0.04068 0.33619 0.91809 0.0
C1021 C 0.04366 0.3334 0.94278 0.0
C1022 C 0.04997 0.31048 0.94806 0.0
C1023 C 0.0525 0.2905 0.92895 0.0
H1024 H 0.69124 0.73695 0.24306 0.0
H1025 H 0.71659 0.74006 0.31822 0.0
H1026 H 0.64825 0.73265 0.25534 0.0
H1027 H 0.67381 0.73635 0.33082 0.0
H1028 H 0.59331 0.7155 0.34492 0.0
H1029 H 0.63437 0.7103 0.32891 0.0
H1030 H 0.62215 0.76036 0.27811 0.0
H1031 H 0.58138 0.76512 0.29359 0.0
C1032 C 0.68749 0.73646 0.26217 0.0
C1033 C 0.70695 0.73885 0.27977 0.0
C1034 C 0.66296 0.73414 0.26927 0.0
C1035 C 0.65752 0.73427 0.29413 0.0
C1036 C 0.67723 0.73583 0.31151 0.0
C1037 C 0.70172 0.73813 0.30437 0.0
C1038 C 0.59929 0.72505 0.33007 0.0
C1039 C 0.5841 0.74085 0.32069 0.0
C1040 C 0.62287 0.72222 0.321 0.0
C1041 C 0.63165 0.73499 0.30225 0.0
C1042 C 0.61598 0.74998 0.2923 0.0
C1043 C 0.59259 0.75287 0.30138 0.0
H1044 H 0.06383 0.04264 0.96078 0.0
H1045 H 0.05318 0.10584 0.01639 0.0
H1046 H 0.06749 0.06999 0.9298 0.0
H1047 H 0.05592 0.13313 0.98566 0.0
H1048 H 0.07529 0.18064 0.92822 0.0
H1049 H 0.07999 0.15344 0.9584 0.0
H1050 H 0.04089 0.09142 0.90816 0.0
H1051 H 0.03699 0.11841 0.87775 0.0
C1052 C 0.06278 0.06251 0.96638 0.0
C1053 C 0.05856 0.07231 0.99088 0.0
C1054 C 0.06453 0.07816 0.94865 0.0
C1055 C 0.0618 0.10386 0.95508 0.0
C1056 C 0.05849 0.11362 0.97995 0.0
C1057 C 0.05689 0.09799 0.99762 0.0
C1058 C 0.06781 0.16116 0.92356 0.0
C1059 C 0.05565 0.15178 0.90056 0.0
C1060 C 0.07042 0.14553 0.94094 0.0
C1061 C 0.06078 0.12013 0.93587 0.0
C1062 C 0.04895 0.11071 0.91268 0.0
C1063 C 0.04651 0.12629 0.89525 0.0
H1064 H 0.41452 0.33271 0.33395 0.0
H1065 H 0.35086 0.33922 0.28831 0.0
H1066 H 0.44098 0.33504 0.29924 0.0
H1067 H 0.37695 0.34051 0.25324 0.0
H1068 H 0.43009 0.36067 0.19788 0.0
H1069 H 0.40737 0.36424 0.23545 0.0
H1070 H 0.45115 0.31166 0.26182 0.0
H1071 H 0.47468 0.30915 0.22463 0.0
C1072 C 0.40621 0.33452 0.31639 0.0
C1073 C 0.38066 0.33577 0.31377 0.0
C1074 C 0.42134 0.33574 0.29645 0.0
C1075 C 0.41121 0.33792 0.2733 0.0
C1076 C 0.38559 0.33936 0.27084 0.0
C1077 C 0.37054 0.3385 0.29089 0.0
C1078 C 0.43509 0.35017 0.21189 0.0
C1079 C 0.45409 0.33454 0.20827 0.0
C1080 C 0.42189 0.35201 0.23337 0.0
C1081 C 0.42704 0.33792 0.25161 0.0
C1082 C 0.44675 0.32301 0.24836 0.0
C1083 C 0.46025 0.32149 0.227 0.0
H1084 H 0.55345 0.43096 1.00018 0.0
H1085 H 0.55109 0.48664 0.06536 0.0
H1086 H 0.55027 0.39797 0.02532 0.0
H1087 H 0.54779 0.45367 0.09068 0.0
H1088 H 0.54895 0.38479 0.12955 0.0
H1089 H 0.5662 0.41598 0.10529 0.0
H1090 H 0.51167 0.38583 0.04676 0.0
H1091 H 0.49448 0.35539 0.07077 0.0
C1092 C 0.55307 0.43612 0.02 0.0
C1093 C 0.55254 0.46113 0.03098 0.0
C1094 C 0.55114 0.4173 0.03437 0.0
C1095 C 0.54856 0.42324 0.05994 0.0
C1096 C 0.54997 0.44855 0.07108 0.0
C1097 C 0.5518 0.46739 0.05664 0.0
C1098 C 0.54097 0.38474 0.11136 0.0
C1099 C 0.52027 0.36784 0.10211 0.0
C1100 C 0.55076 0.40256 0.09755 0.0
C1101 C 0.54037 0.40322 0.07407 0.0
C1102 C 0.52033 0.3856 0.0646 0.0
C1103 C 0.51033 0.36829 0.07848 0.0
H1104 H 0.68821 0.24821 0.1999 0.0
H1105 H 0.65368 0.23072 0.26515 0.0
H1106 H 0.6512 0.26579 0.18797 0.0
H1107 H 0.61661 0.24889 0.25372 0.0
H1108 H 0.54527 0.25039 0.2072 0.0
H1109 H 0.58323 0.23801 0.22325 0.0
H1110 H 0.62535 0.29889 0.19677 0.0
H1111 H 0.5873 0.3109 0.18011 0.0
C1112 C 0.67278 0.24869 0.21194 0.0
C1113 C 0.67363 0.23832 0.23343 0.0
C1114 C 0.6516 0.25883 0.20519 0.0
C1115 C 0.6308 0.25873 0.21982 0.0
C1116 C 0.63212 0.24898 0.24183 0.0
C1117 C 0.65336 0.23879 0.24854 0.0
C1118 C 0.56259 0.26125 0.20489 0.0
C1119 C 0.56321 0.28156 0.1922 0.0
C1120 C 0.58441 0.25425 0.2143 0.0
C1121 C 0.60745 0.26741 0.21134 0.0
C1122 C 0.608 0.28809 0.19911 0.0
C1123 C 0.58616 0.29506 0.18964 0.0
H1124 H 0.44669 0.15408 0.99259 0.0
H1125 H 0.47008 0.11223 0.04711 0.0
H1126 H 0.45217 0.19235 0.0231 0.0
H1127 H 0.47536 0.15077 0.07794 0.0
H1128 H 0.50817 0.23387 0.1134 0.0
H1129 H 0.50283 0.19318 0.0859 0.0
H1130 H 0.43098 0.20852 0.06143 0.0
H1131 H 0.43615 0.24884 0.08856 0.0
C1132 C 0.45311 0.15311 0.0111 0.0
C1133 C 0.458 0.13021 0.01748 0.0
C1134 C 0.45605 0.17497 0.02862 0.0
C1135 C 0.46407 0.17449 0.05291 0.0
C1136 C 0.46924 0.15166 0.05931 0.0
C1137 C 0.46605 0.12964 0.04177 0.0
C1138 C 0.49115 0.22842 0.10233 0.0
C1139 C 0.47272 0.24475 0.103 0.0
C1140 C 0.48807 0.20512 0.08668 0.0
C1141 C 0.46662 0.19788 0.07134 0.0
C1142 C 0.44788 0.2138 0.07274 0.0
C1143 C 0.45085 0.23689 0.0884 0.0
H1144 H 0.29444 0.35312 0.75169 0.0
H1145 H 0.34622 0.33097 0.69624 0.0
H1146 H 0.31007 0.39654 0.75338 0.0
H1147 H 0.36086 0.37491 0.69673 0.0
H1148 H 0.40056 0.45441 0.73039 0.0
H1149 H 0.38456 0.4101 0.72126 0.0
H1150 H 0.31036 0.43009 0.73215 0.0
H1151 H 0.32659 0.47399 0.74249 0.0
C1152 C 0.30916 0.35749 0.73978 0.0
C1153 C 0.31916 0.33839 0.72399 0.0
C1154 C 0.31785 0.38256 0.74039 0.0
C1155 C 0.33662 0.38944 0.72498 0.0
C1156 C 0.34651 0.37038 0.70897 0.0
C1157 C 0.3379 0.34516 0.70849 0.0
C1158 C 0.3808 0.44926 0.73025 0.0
C1159 C 0.36483 0.46755 0.7374 0.0
C1160 C 0.37158 0.42386 0.72503 0.0
C1161 C 0.34617 0.41636 0.72655 0.0
C1162 C 0.3301 0.43501 0.73163 0.0
C1163 C 0.33935 0.46023 0.73728 0.0
H1164 H 0.27226 0.67717 0.74055 0.0
H1165 H 0.31855 0.7236 0.79908 0.0
H1166 H 0.30155 0.64594 0.73706 0.0
H1167 H 0.34749 0.69208 0.79587 0.0
H1168 H 0.36475 0.6129 0.80783 0.0
H1169 H 0.34289 0.64924 0.80642 0.0
H1170 H 0.34574 0.63673 0.7272 0.0
H1171 H 0.36808 0.59998 0.72869 0.0
C1172 C 0.28887 0.68097 0.75238 0.0
C1173 C 0.29283 0.70283 0.77033 0.0
C1174 C 0.30568 0.66304 0.75033 0.0
C1175 C 0.32676 0.66648 0.76627 0.0
C1176 C 0.33124 0.68876 0.78352 0.0
C1177 C 0.31455 0.70674 0.78547 0.0
C1178 C 0.36109 0.61809 0.7901 0.0
C1179 C 0.36803 0.60354 0.76835 0.0
C1180 C 0.34867 0.63903 0.78931 0.0
C1181 C 0.34254 0.64586 0.76671 0.0
C1182 C 0.35014 0.63181 0.74489 0.0
C1183 C 0.36305 0.61095 0.74573 0.0
H1184 H 0.9105 0.51762 0.53729 0.0
H1185 H 0.8658 0.51311 0.4706 0.0
H1186 H 0.88196 0.48486 0.54973 0.0
H1187 H 0.83759 0.48006 0.48275 0.0
H1188 H 0.78187 0.43162 0.51788 0.0
H1189 H 0.80694 0.47031 0.51327 0.0
H1190 H 0.87264 0.43958 0.53426 0.0
H1191 H 0.84774 0.40118 0.53903 0.0
C1192 C 0.89443 0.50983 0.52544 0.0
C1193 C 0.89051 0.51777 0.50286 0.0
C1194 C 0.87818 0.49098 0.53248 0.0
C1195 C 0.85755 0.47982 0.5172 0.0
C1196 C 0.85316 0.48844 0.49506 0.0
C1197 C 0.86949 0.50715 0.48795 0.0
C1198 C 0.8016 0.43334 0.52198 0.0
C1199 C 0.81283 0.41324 0.52862 0.0
C1200 C 0.81597 0.45542 0.51917 0.0
C1201 C 0.84179 0.45792 0.5232 0.0
C1202 C 0.85279 0.43835 0.53119 0.0
C1203 C 0.8385 0.41626 0.53378 0.0
H1204 H 0.80263 0.86109 0.81792 0.0
H1205 H 0.81298 0.92609 0.87523 0.0
H1206 H 0.77032 0.8797 0.79787 0.0
H1207 H 0.7805 0.94474 0.85552 0.0
H1208 H 0.72805 0.97703 0.80667 0.0
H1209 H 0.76633 0.96156 0.81897 0.0
H1210 H 0.7284 0.88683 0.81027 0.0
H1211 H 0.69054 0.90207 0.7979 0.0
C1212 C 0.79824 0.8796 0.82588 0.0
C1213 C 0.81007 0.89229 0.84796 0.0
C1214 C 0.77972 0.89019 0.81456 0.0
C1215 C 0.77271 0.91361 0.82523 0.0
C1216 C 0.78561 0.92681 0.84671 0.0
C1217 C 0.80411 0.91615 0.85804 0.0
C1218 C 0.72802 0.95727 0.80713 0.0
C1219 C 0.7062 0.94083 0.80148 0.0
C1220 C 0.74989 0.94844 0.81425 0.0
C1221 C 0.7504 0.92297 0.81556 0.0
C1222 C 0.72876 0.90648 0.80912 0.0
C1223 C 0.70696 0.9153 0.80224 0.0
H1224 H 0.62016 0.53849 0.00639 0.0
H1225 H 0.62388 0.51567 0.92778 0.0
H1226 H 0.66434 0.55179 0.00939 0.0
H1227 H 0.66766 0.53049 0.93054 0.0
H1228 H 0.75004 0.54172 0.94372 0.0
H1229 H 0.70739 0.52331 0.94373 0.0
H1230 H 0.69225 0.58475 0.99989 0.0
H1231 H 0.73521 0.60258 1.00056 0.0
C1232 C 0.63041 0.53609 0.98975 0.0
C1233 C 0.61837 0.52606 0.96681 0.0
C1234 C 0.65573 0.54409 0.99143 0.0
C1235 C 0.66964 0.54245 0.9702 0.0
C1236 C 0.65769 0.53184 0.94735 0.0
C1237 C 0.63244 0.52364 0.9457 0.0
C1238 C 0.73765 0.55121 0.95619 0.0
C1239 C 0.74599 0.5737 0.97203 0.0
C1240 C 0.71312 0.54072 0.95611 0.0
C1241 C 0.69622 0.55261 0.97165 0.0
C1242 C 0.70475 0.57485 0.98788 0.0
C1243 C 0.72938 0.5852 0.98817 0.0
H1244 H 0.2171 0.68859 0.26175 0.0
H1245 H 0.2744 0.63992 0.24538 0.0
H1246 H 0.18985 0.65372 0.27201 0.0
H1247 H 0.24745 0.60529 0.25633 0.0
H1248 H 0.1827 0.54354 0.24873 0.0
H1249 H 0.20975 0.57884 0.23947 0.0
H1250 H 0.18529 0.6262 0.30311 0.0
H1251 H 0.15789 0.59088 0.31227 0.0
C1252 C 0.22388 0.67046 0.26038 0.0
C1253 C 0.24789 0.667 0.25267 0.0
C1254 C 0.20836 0.65055 0.2665 0.0
C1255 C 0.21646 0.62672 0.26493 0.0
C1256 C 0.24055 0.62335 0.25746 0.0
C1257 C 0.25609 0.64325 0.25145 0.0
C1258 C 0.18304 0.56146 0.26077 0.0
C1259 C 0.16812 0.56436 0.28126 0.0
C1260 C 0.19868 0.58167 0.25554 0.0
C1261 C 0.19975 0.60531 0.27061 0.0
C1262 C 0.18473 0.60828 0.29102 0.0
C1263 C 0.16912 0.58801 0.29633 0.0
H1264 H 0.953 0.49375 0.03829 0.0
H1265 H 1.0017 0.54612 0.00675 0.0
H1266 H 0.91888 0.51931 0.0348 0.0
H1267 H 0.96778 0.57155 0.0031 0.0
H1268 H 0.89364 0.57519 0.96005 0.0
H1269 H 0.92952 0.55709 0.97339 0.0
H1270 H 0.90346 0.56467 0.0472 0.0
H1271 H 0.86734 0.58341 0.03386 0.0
C1272 C 0.95652 0.51117 0.03141 0.0
C1273 C 0.97979 0.5182 0.02288 0.0
C1274 C 0.93708 0.52575 0.0294 0.0
C1275 C 0.9407 0.54727 0.0185 0.0
C1276 C 0.96449 0.55498 0.01143 0.0
C1277 C 0.98388 0.54056 0.01364 0.0
C1278 C 0.89556 0.57318 0.97917 0.0
C1279 C 0.87763 0.58066 0.99589 0.0
C1280 C 0.91622 0.56298 0.98685 0.0
C1281 C 0.91933 0.55964 0.01136 0.0
C1282 C 0.90147 0.56712 0.02821 0.0
C1283 C 0.88091 0.57786 0.0206 0.0
H1284 H 0.12047 0.99898 0.08567 0.0
H1285 H 0.09388 0.97879 0.00977 0.0
H1286 H 0.15443 0.97343 0.07681 0.0
H1287 H 0.12833 0.95404 1.00072 0.0
H1288 H 0.17427 0.8883 0.99998 0.0
H1289 H 0.14153 0.91526 0.00876 0.0
H1290 H 0.19268 0.97017 0.05548 0.0
H1291 H 0.22545 0.94292 0.04701 0.0
C1292 C 0.12191 0.98921 0.06705 0.0
C1293 C 0.10428 0.99092 0.04848 0.0
C1294 C 0.14158 0.97473 0.06191 0.0
C1295 C 0.14414 0.96149 0.03805 0.0
C1296 C 0.1268 0.96364 0.01938 0.0
C1297 C 0.10718 0.97815 0.02451 0.0
C1298 C 0.17861 0.90611 0.01215 0.0
C1299 C 0.20258 0.91337 0.02278 0.0
C1300 C 0.15981 0.9217 0.01705 0.0
C1301 C 0.16439 0.94502 0.03276 0.0
C1302 C 0.18836 0.95226 0.04349 0.0
C1303 C 0.20721 0.93666 0.03853 0.0
loop_
_geom_bond_atom_site_label_1
_geom_bond_atom_site_label_2
_geom_bond_distance
_geom_bond_site_symmetry_2
_ccdc_geom_bond_type
H0 C3 0.929 . S
H1 C6 0.929 . S
H2 C8 0.930 . S
C3 H0 0.929 . S
C3 C4 1.398 . S
C3 C5 1.396 . S
C4 C3 1.398 . S
C4 C8 1.407 . S
C5 C3 1.396 . S
C5 C6 1.394 . S
C6 H1 0.929 . S
C6 C5 1.394 . S
C6 C7 1.382 . S
C7 C6 1.382 . S
C7 C8 1.392 . S
C7 N9 1.420 . S
C8 H2 0.930 . S
C8 C4 1.407 . S
C8 C7 1.392 . S
N9 C7 1.420 . S
N9 C10 1.244 . S
C10 N9 1.244 . S
H11 C14 0.929 . S
H12 C17 0.929 . S
H13 C19 0.930 . S
C14 H11 0.929 . S
C14 C15 1.398 . S
C14 C16 1.396 . S
C15 C14 1.398 . S
C15 C19 1.407 . S
C16 C14 1.396 . S
C16 C17 1.394 . S
C17 H12 0.929 . S
C17 C16 1.394 . S
C17 C18 1.382 . S
C18 C17 1.382 . S
C18 C19 1.392 . S
C18 N20 1.420 . S
C19 H13 0.930 . S
C19 C15 1.407 . S
C19 C18 1.392 . S
N20 C18 1.420 . S
N20 C21 1.244 . S
C21 N20 1.244 . S
H22 C25 0.931 . S
H23 C28 0.929 . S
H24 C30 0.930 . S
C25 H22 0.931 . S
C25 C26 1.398 . S
C25 C27 1.396 . S
C26 C25 1.398 . S
C26 C30 1.407 . S
C27 C25 1.396 . S
C27 C28 1.394 . S
C28 H23 0.929 . S
C28 C27 1.394 . S
C28 C29 1.382 . S
C29 C28 1.382 . S
C29 C30 1.392 . S
C29 N31 1.420 . S
C30 H24 0.930 . S
C30 C26 1.407 . S
C30 C29 1.392 . S
N31 C29 1.420 . S
N31 C32 1.244 . S
C32 N31 1.244 . S
H33 C36 0.929 . S
H34 C39 0.929 . S
H35 C41 0.930 . S
C36 H33 0.929 . S
C36 C37 1.398 . S
C36 C38 1.396 . S
C37 C36 1.398 . S
C37 C41 1.407 . S
C38 C36 1.396 . S
C38 C39 1.394 . S
C39 H34 0.929 . S
C39 C38 1.394 . S
C39 C40 1.382 . S
C40 C39 1.382 . S
C40 C41 1.392 . S
C40 N42 1.420 . S
C41 H35 0.930 . S
C41 C37 1.407 . S
C41 C40 1.392 . S
N42 C40 1.420 . S
N42 C43 1.244 . S
C43 N42 1.244 . S
H44 C47 0.929 . S
H45 C50 0.929 . S
H46 C52 0.930 . S
C47 H44 0.929 . S
C47 C48 1.398 . S
C47 C49 1.396 . S
C48 C47 1.398 . S
C48 C52 1.407 . S
C49 C47 1.396 . S
C49 C50 1.394 . S
C50 H45 0.929 . S
C50 C49 1.394 . S
C50 C51 1.382 . S
C51 C50 1.382 . S
C51 C52 1.392 . S
C51 N53 1.420 . S
C52 H46 0.930 . S
C52 C48 1.407 . S
C52 C51 1.392 . S
N53 C51 1.420 . S
N53 C54 1.244 . S
C54 N53 1.244 . S
H55 C58 0.929 . S
H56 C61 0.929 . S
H57 C63 0.930 . S
C58 H55 0.929 . S
C58 C59 1.398 . S
C58 C60 1.396 . S
C59 C58 1.398 . S
C59 C63 1.407 . S
C60 C58 1.396 . S
C60 C61 1.394 . S
C61 H56 0.929 . S
C61 C60 1.394 . S
C61 C62 1.382 . S
C62 C61 1.382 . S
C62 C63 1.392 . S
C62 N64 1.420 . S
C63 H57 0.930 . S
C63 C59 1.407 . S
C63 C62 1.392 . S
N64 C62 1.420 . S
N64 C65 1.244 . S
C65 N64 1.244 . S
H66 C69 0.929 . S
H67 C72 0.929 1_455 S
H68 C74 0.930 . S
C69 H66 0.929 . S
C69 C70 1.398 . S
C69 C71 1.396 . S
C70 C69 1.398 . S
C70 C74 1.407 . S
C71 C69 1.396 . S
C71 C72 1.394 . S
C72 H67 0.929 1_655 S
C72 C71 1.394 . S
C72 C73 1.382 . S
C73 C72 1.382 . S
C73 C74 1.392 . S
C73 N75 1.437 . S
C74 H68 0.930 . S
C74 C70 1.407 . S
C74 C73 1.392 . S
N75 C73 1.437 . S
N75 C76 1.234 1_655 S
C76 N75 1.234 1_455 S
H77 C80 0.929 . S
H78 C83 0.929 . S
H79 C85 0.930 . S
C80 H77 0.929 . S
C80 C81 1.398 . S
C80 C82 1.396 . S
C81 C80 1.398 . S
C81 C85 1.407 . S
C82 C80 1.396 . S
C82 C83 1.394 . S
C83 H78 0.929 . S
C83 C82 1.394 . S
C83 C84 1.382 . S
C84 C83 1.382 . S
C84 C85 1.392 . S
C84 N86 1.420 . S
C85 H79 0.930 . S
C85 C81 1.407 . S
C85 C84 1.392 . S
N86 C84 1.420 . S
N86 C87 1.244 . S
C87 N86 1.244 . S
H88 C91 0.929 . S
H89 C94 0.929 . S
H90 C96 0.930 . S
C91 H88 0.929 . S
C91 C92 1.398 . S
C91 C93 1.396 . S
C92 C91 1.398 . S
C92 C96 1.407 . S
C93 C91 1.396 . S
C93 C94 1.394 . S
C94 H89 0.929 . S
C94 C93 1.394 . S
C94 C95 1.382 . S
C95 C94 1.382 . S
C95 C96 1.392 . S
C95 N97 1.420 . S
C96 H90 0.930 . S
C96 C92 1.407 . S
C96 C95 1.392 . S
N97 C95 1.420 . S
N97 C98 1.244 . S
C98 N97 1.244 . S
H99 C102 0.929 . S
H100 C105 0.929 . S
H101 C107 0.930 . S
C102 H99 0.929 . S
C102 C103 1.398 . S
C102 C104 1.396 . S
C103 C102 1.398 . S
C103 C107 1.407 . S
C104 C102 1.396 . S
C104 C105 1.394 . S
C105 H100 0.929 . S
C105 C104 1.394 . S
C105 C106 1.382 . S
C106 C105 1.382 . S
C106 C107 1.392 . S
C106 N108 1.420 . S
C107 H101 0.930 . S
C107 C103 1.407 . S
C107 C106 1.392 . S
N108 C106 1.420 . S
N108 C109 1.244 1_565 S
C109 N108 1.244 1_545 S
H110 C113 0.929 . S
H111 C116 0.929 . S
H112 C118 0.930 . S
C113 H110 0.929 . S
C113 C114 1.398 . S
C113 C115 1.396 . S
C114 C113 1.398 . S
C114 C118 1.407 . S
C115 C113 1.396 . S
C115 C116 1.394 . S
C116 H111 0.929 . S
C116 C115 1.394 . S
C116 C117 1.382 . S
C117 C116 1.382 . S
C117 C118 1.392 . S
C117 N119 1.420 . S
C118 H112 0.930 . S
C118 C114 1.407 . S
C118 C117 1.392 . S
N119 C117 1.420 . S
N119 C120 1.244 . S
C120 N119 1.244 . S
H121 C124 0.929 . S
H122 C127 0.929 . S
H123 C129 0.930 . S
C124 H121 0.929 . S
C124 C125 1.398 . S
C124 C126 1.396 . S
C125 C124 1.398 . S
C125 C129 1.407 . S
C126 C124 1.396 . S
C126 C127 1.394 . S
C127 H122 0.929 . S
C127 C126 1.394 . S
C127 C128 1.382 . S
C128 C127 1.382 . S
C128 C129 1.392 . S
C128 N130 1.420 . S
C129 H123 0.930 . S
C129 C125 1.407 . S
C129 C128 1.392 . S
N130 C128 1.420 . S
N130 C131 1.244 . S
C131 N130 1.244 . S
H132 C135 0.929 . S
H133 C138 0.929 . S
H134 C140 0.930 . S
C135 H132 0.929 . S
C135 C136 1.398 . S
C135 C137 1.396 . S
C136 C135 1.398 . S
C136 C140 1.407 . S
C137 C135 1.396 . S
C137 C138 1.394 . S
C138 H133 0.929 . S
C138 C137 1.394 . S
C138 C139 1.382 . S
C139 C138 1.382 . S
C139 C140 1.392 . S
C139 N141 1.420 . S
C140 H134 0.930 . S
C140 C136 1.407 . S
C140 C139 1.392 . S
N141 C139 1.420 . S
N141 C142 1.244 . S
C142 N141 1.244 . S
H143 C146 0.929 . S
H144 C149 0.929 1_554 S
H145 C151 0.930 . S
C146 H143 0.929 . S
C146 C147 1.398 . S
C146 C148 1.396 . S
C147 C146 1.398 . S
C147 C151 1.407 . S
C148 C146 1.396 . S
C148 C149 1.394 . S
C149 H144 0.929 1_556 S
C149 C148 1.394 . S
C149 C150 1.382 . S
C150 C149 1.382 . S
C150 C151 1.392 . S
C150 N152 1.420 1_556 S
C151 H145 0.930 . S
C151 C147 1.407 . S
C151 C150 1.392 . S
N152 C150 1.420 1_554 S
N152 C153 1.244 . S
C153 N152 1.244 . S
H154 C157 0.929 . S
H155 C160 0.929 . S
H156 C162 0.930 . S
C157 H154 0.929 . S
C157 C158 1.398 . S
C157 C159 1.396 . S
C158 C157 1.398 . S
C158 C162 1.407 . S
C159 C157 1.396 . S
C159 C160 1.394 . S
C160 H155 0.929 . S
C160 C159 1.394 . S
C160 C161 1.382 . S
C161 C160 1.382 . S
C161 C162 1.392 . S
C161 N163 1.420 . S
C162 H156 0.930 . S
C162 C158 1.407 . S
C162 C161 1.392 . S
N163 C161 1.420 . S
N163 C164 1.244 . S
C164 N163 1.244 . S
H165 C168 0.929 . S
H166 C171 0.929 . S
H167 C173 0.930 . S
C168 H165 0.929 . S
C168 C169 1.398 . S
C168 C170 1.396 . S
C169 C168 1.398 . S
C169 C173 1.407 . S
C170 C168 1.396 . S
C170 C171 1.394 . S
C171 H166 0.929 . S
C171 C170 1.394 . S
C171 C172 1.382 . S
C172 C171 1.382 . S
C172 C173 1.392 . S
C172 N174 1.420 . S
C173 H167 0.930 . S
C173 C169 1.407 . S
C173 C172 1.392 . S
N174 C172 1.420 . S
N174 C175 1.244 . S
C175 N174 1.244 . S
Zn176 O179 2.031 . S
Zn176 O181 2.049 . S
Zn176 O186 2.067 1_554 S
Zn177 O178 1.962 . S
Zn177 O180 1.986 . S
Zn177 O182 1.996 . S
Zn177 O185 1.943 . S
O178 Zn177 1.962 . S
O178 C183 1.254 . S
O179 Zn176 2.031 . S
O179 C183 1.269 . S
O180 Zn177 1.986 . S
O180 C187 1.262 . S
O181 Zn176 2.049 . S
O181 C189 1.260 . S
O182 Zn177 1.996 . S
O182 C189 1.257 . S
C183 O178 1.254 . S
C183 O179 1.269 . S
C184 O185 1.249 1_556 S
C184 O186 1.270 . S
O185 Zn177 1.943 . S
O185 C184 1.249 1_554 S
O186 Zn176 2.067 1_556 S
O186 C184 1.270 . S
C187 O180 1.262 . S
C187 O188 1.232 . S
O188 C187 1.232 . S
C189 O181 1.260 . S
C189 O182 1.257 . S
Zn190 O193 2.031 . S
Zn190 O195 2.049 . S
Zn190 O200 2.067 . S
Zn191 O192 1.962 . S
Zn191 O194 1.986 . S
Zn191 O196 1.996 . S
Zn191 O199 1.943 . S
O192 Zn191 1.962 . S
O192 C197 1.254 . S
O193 Zn190 2.031 . S
O193 C197 1.269 . S
O194 Zn191 1.986 . S
O194 C201 1.262 . S
O195 Zn190 2.049 . S
O195 C203 1.260 . S
O196 Zn191 1.996 . S
O196 C203 1.257 . S
C197 O192 1.254 . S
C197 O193 1.269 . S
C198 O199 1.249 . S
C198 O200 1.270 . S
O199 Zn191 1.943 . S
O199 C198 1.249 . S
O200 Zn190 2.067 . S
O200 C198 1.270 . S
C201 O194 1.262 . S
C201 O202 1.232 . S
O202 C201 1.232 . S
C203 O195 1.260 . S
C203 O196 1.257 . S
Zn204 O207 2.031 . S
Zn204 O209 2.049 . S
Zn204 O214 2.067 . S
Zn205 O206 1.962 . S
Zn205 O208 1.986 . S
Zn205 O210 1.996 1_554 S
Zn205 O213 1.943 . S
O206 Zn205 1.962 . S
O206 C211 1.254 . S
O207 Zn204 2.031 . S
O207 C211 1.269 1_556 S
O208 Zn205 1.986 . S
O208 C215 1.262 . S
O209 Zn204 2.049 . S
O209 C217 1.260 . S
O210 Zn205 1.996 1_556 S
O210 C217 1.257 . S
C211 O206 1.254 . S
C211 O207 1.269 1_554 S
C212 O213 1.249 1_556 S
C212 O214 1.270 . S
O213 Zn205 1.943 . S
O213 C212 1.249 1_554 S
O214 Zn204 2.067 . S
O214 C212 1.270 . S
C215 O208 1.262 . S
C215 O216 1.232 . S
O216 C215 1.232 . S
C217 O209 1.260 . S
C217 O210 1.257 . S
Zn218 O221 2.031 . S
Zn218 O223 2.049 . S
Zn218 O228 2.067 1_545 S
Zn219 O220 1.962 . S
Zn219 O222 1.986 . S
Zn219 O224 1.996 . S
Zn219 O227 1.943 1_545 S
O220 Zn219 1.962 . S
O220 C225 1.254 . S
O221 Zn218 2.031 . S
O221 C225 1.269 . S
O222 Zn219 1.986 . S
O222 C229 1.262 . S
O223 Zn218 2.049 . S
O223 C231 1.260 . S
O224 Zn219 1.996 . S
O224 C231 1.257 . S
C225 O220 1.254 . S
C225 O221 1.269 . S
C226 O227 1.249 . S
C226 O228 1.270 . S
O227 Zn219 1.943 1_565 S
O227 C226 1.249 . S
O228 Zn218 2.067 1_565 S
O228 C226 1.270 . S
C229 O222 1.262 . S
C229 O230 1.232 . S
O230 C229 1.232 . S
C231 O223 1.260 . S
C231 O224 1.257 . S
Zn232 O235 2.031 . S
Zn232 O237 2.049 . S
Zn232 O242 2.067 . S
Zn233 O234 1.962 . S
Zn233 O236 1.986 . S
Zn233 O238 1.996 . S
Zn233 O241 1.943 . S
O234 Zn233 1.962 . S
O234 C239 1.254 . S
O235 Zn232 2.031 . S
O235 C239 1.269 . S
O236 Zn233 1.986 . S
O236 C243 1.262 . S
O237 Zn232 2.049 . S
O237 C245 1.260 . S
O238 Zn233 1.996 . S
O238 C245 1.257 . S
C239 O234 1.254 . S
C239 O235 1.269 . S
C240 O241 1.249 . S
C240 O242 1.270 . S
O241 Zn233 1.943 . S
O241 C240 1.249 . S
O242 Zn232 2.067 . S
O242 C240 1.270 . S
C243 O236 1.262 . S
C243 O244 1.232 . S
O244 C243 1.232 . S
C245 O237 1.260 . S
C245 O238 1.257 . S
Zn246 O249 2.031 . S
Zn246 O251 2.049 . S
Zn246 O256 2.067 . S
Zn247 O248 1.962 . S
Zn247 O250 1.986 . S
Zn247 O252 1.996 . S
Zn247 O255 1.943 . S
O248 Zn247 1.962 . S
O248 C253 1.254 . S
O249 Zn246 2.031 . S
O249 C253 1.269 . S
O250 Zn247 1.986 . S
O250 C257 1.262 . S
O251 Zn246 2.049 . S
O251 C259 1.260 . S
O252 Zn247 1.996 . S
O252 C259 1.257 . S
C253 O248 1.254 . S
C253 O249 1.269 . S
C254 O255 1.249 . S
C254 O256 1.270 . S
O255 Zn247 1.943 . S
O255 C254 1.249 . S
O256 Zn246 2.067 . S
O256 C254 1.270 . S
C257 O250 1.262 . S
C257 O258 1.232 . S
O258 C257 1.232 . S
C259 O251 1.260 . S
C259 O252 1.257 . S
Zn260 O263 2.031 . S
Zn260 O265 2.049 . S
Zn260 O270 2.067 . S
Zn261 O262 1.962 . S
Zn261 O264 1.986 . S
Zn261 O266 1.996 . S
Zn261 O269 1.943 . S
O262 Zn261 1.962 . S
O262 C267 1.254 . S
O263 Zn260 2.031 . S
O263 C267 1.269 . S
O264 Zn261 1.986 . S
O264 C271 1.262 . S
O265 Zn260 2.049 . S
O265 C273 1.260 . S
O266 Zn261 1.996 . S
O266 C273 1.257 . S
C267 O262 1.254 . S
C267 O263 1.269 . S
C268 O269 1.249 . S
C268 O270 1.270 . S
O269 Zn261 1.943 . S
O269 C268 1.249 . S
O270 Zn260 2.067 . S
O270 C268 1.270 . S
C271 O264 1.262 . S
C271 O272 1.232 . S
O272 C271 1.232 . S
C273 O265 1.260 . S
C273 O266 1.257 . S
Zn274 O277 2.031 . S
Zn274 O279 2.049 . S
Zn274 O284 2.067 . S
Zn275 O276 1.962 . S
Zn275 O278 1.986 . S
Zn275 O280 1.996 1_545 S
Zn275 O283 1.943 . S
O276 Zn275 1.962 . S
O276 C281 1.254 . S
O277 Zn274 2.031 . S
O277 C281 1.269 1_565 S
O278 Zn275 1.986 . S
O278 C285 1.262 . S
O279 Zn274 2.049 . S
O279 C287 1.260 . S
O280 Zn275 1.996 1_565 S
O280 C287 1.257 . S
C281 O276 1.254 . S
C281 O277 1.269 1_545 S
C282 O283 1.221 1_565 S
C282 O284 1.270 . S
O283 Zn275 1.943 . S
O283 C282 1.221 1_545 S
O284 Zn274 2.067 . S
O284 C282 1.270 . S
C285 O278 1.262 . S
C285 O286 1.232 . S
O286 C285 1.232 . S
C287 O279 1.260 . S
C287 O280 1.257 . S
Zn288 O291 2.031 . S
Zn288 O293 2.049 . S
Zn288 O298 2.067 1_455 S
Zn289 O290 1.962 . S
Zn289 O292 1.986 . S
Zn289 O294 1.996 . S
Zn289 O297 1.943 1_455 S
O290 Zn289 1.962 . S
O290 C295 1.254 . S
O291 Zn288 2.031 . S
O291 C295 1.269 . S
O292 Zn289 1.986 . S
O292 C299 1.262 . S
O293 Zn288 2.049 . S
O293 C301 1.260 . S
O294 Zn289 1.996 . S
O294 C301 1.257 . S
C295 O290 1.254 . S
C295 O291 1.269 . S
C296 O297 1.249 . S
C296 O298 1.270 . S
O297 Zn289 1.943 1_655 S
O297 C296 1.249 . S
O298 Zn288 2.067 1_655 S
O298 C296 1.270 . S
C299 O292 1.262 . S
C299 O300 1.232 . S
O300 C299 1.232 . S
C301 O293 1.260 . S
C301 O294 1.257 . S
Zn302 O305 2.031 . S
Zn302 O307 2.049 . S
Zn302 O312 2.067 . S
Zn303 O304 1.962 . S
Zn303 O306 1.986 . S
Zn303 O308 1.996 . S
Zn303 O311 1.943 . S
O304 Zn303 1.962 . S
O304 C309 1.254 . S
O305 Zn302 2.031 . S
O305 C309 1.269 . S
O306 Zn303 1.986 . S
O306 C313 1.262 . S
O307 Zn302 2.049 . S
O307 C315 1.260 . S
O308 Zn303 1.996 . S
O308 C315 1.257 . S
C309 O304 1.254 . S
C309 O305 1.269 . S
C310 O311 1.249 . S
C310 O312 1.270 . S
O311 Zn303 1.943 . S
O311 C310 1.249 . S
O312 Zn302 2.067 . S
O312 C310 1.270 . S
C313 O306 1.262 . S
C313 O314 1.232 . S
O314 C313 1.232 . S
C315 O307 1.260 . S
C315 O308 1.257 . S
Zn316 O319 2.031 1_655 S
Zn316 O321 2.049 . S
Zn316 O326 2.067 . S
Zn317 O318 1.962 . S
Zn317 O320 1.986 . S
Zn317 O322 1.996 1_455 S
Zn317 O325 1.943 . S
O318 Zn317 1.962 . S
O318 C323 1.254 . S
O319 Zn316 2.031 1_455 S
O319 C323 1.269 . S
O320 Zn317 1.986 . S
O320 C327 1.262 . S
O321 Zn316 2.049 . S
O321 C329 1.260 . S
O322 Zn317 1.996 1_655 S
O322 C329 1.257 . S
C323 O318 1.254 . S
C323 O319 1.269 . S
C324 O325 1.249 1_655 S
C324 O326 1.270 . S
O325 Zn317 1.943 . S
O325 C324 1.249 1_455 S
O326 Zn316 2.067 . S
O326 C324 1.270 . S
C327 O320 1.262 . S
C327 O328 1.232 . S
O328 C327 1.232 . S
C329 O321 1.260 . S
C329 O322 1.257 . S
Zn330 O333 2.031 . S
Zn330 O335 2.049 . S
Zn330 O340 2.067 . S
Zn331 O332 1.962 . S
Zn331 O334 1.986 . S
Zn331 O336 1.996 . S
Zn331 O339 1.943 . S
O332 Zn331 1.962 . S
O332 C337 1.254 . S
O333 Zn330 2.031 . S
O333 C337 1.269 . S
O334 Zn331 1.986 . S
O334 C341 1.262 . S
O335 Zn330 2.049 . S
O335 C343 1.260 . S
O336 Zn331 1.996 . S
O336 C343 1.257 . S
C337 O332 1.254 . S
C337 O333 1.269 . S
C338 O339 1.249 . S
C338 O340 1.270 . S
O339 Zn331 1.943 . S
O339 C338 1.249 . S
O340 Zn330 2.067 . S
O340 C338 1.270 . S
C341 O334 1.262 . S
C341 O342 1.232 . S
O342 C341 1.232 . S
C343 O335 1.260 . S
C343 O336 1.257 . S
H344 C352 0.950 . S
H345 C357 0.950 . S
H346 C354 0.950 . S
H347 C356 0.950 . S
H348 C358 0.950 . S
H349 C360 0.950 . S
H350 C362 0.950 . S
H351 C363 0.950 . S
C352 H344 0.950 . S
C352 C353 1.386 . S
C352 C354 1.391 . S
C353 C352 1.386 . S
C353 C357 1.393 . S
C354 H346 0.950 . S
C354 C352 1.391 . S
C354 C355 1.400 . S
C355 C354 1.400 . S
C355 C356 1.398 . S
C355 C361 1.491 . S
C356 H347 0.950 . S
C356 C355 1.398 . S
C356 C357 1.391 . S
C357 H345 0.950 . S
C357 C353 1.393 . S
C357 C356 1.391 . S
C358 H348 0.950 . S
C358 C359 1.386 . S
C358 C360 1.391 . S
C359 C358 1.386 . S
C359 C363 1.393 . S
C360 H349 0.950 . S
C360 C358 1.391 . S
C360 C361 1.400 . S
C361 C355 1.491 . S
C361 C360 1.400 . S
C361 C362 1.398 . S
C362 H350 0.950 . S
C362 C361 1.398 . S
C362 C363 1.391 . S
C363 H351 0.950 . S
C363 C359 1.393 . S
C363 C362 1.391 . S
H364 C372 0.950 . S
H365 C377 0.950 . S
H366 C374 0.950 . S
H367 C376 0.950 . S
H368 C378 0.950 . S
H369 C380 0.950 . S
H370 C382 0.950 . S
H371 C383 0.950 . S
C372 H364 0.950 . S
C372 C373 1.386 . S
C372 C374 1.391 . S
C373 C372 1.386 . S
C373 C377 1.393 . S
C374 H366 0.950 . S
C374 C372 1.391 . S
C374 C375 1.400 . S
C375 C374 1.400 . S
C375 C376 1.398 . S
C375 C381 1.491 . S
C376 H367 0.950 . S
C376 C375 1.398 . S
C376 C377 1.391 . S
C377 H365 0.950 . S
C377 C373 1.393 . S
C377 C376 1.391 . S
C378 H368 0.950 . S
C378 C379 1.386 . S
C378 C380 1.391 . S
C379 C378 1.386 . S
C379 C383 1.393 . S
C380 H369 0.950 . S
C380 C378 1.391 . S
C380 C381 1.400 . S
C381 C375 1.491 . S
C381 C380 1.400 . S
C381 C382 1.398 . S
C382 H370 0.950 . S
C382 C381 1.398 . S
C382 C383 1.391 . S
C383 H371 0.950 . S
C383 C379 1.393 . S
C383 C382 1.391 . S
H384 C392 0.950 . S
H385 C397 0.950 . S
H386 C394 0.950 . S
H387 C396 0.950 . S
H388 C398 0.950 . S
H389 C400 0.950 . S
H390 C402 0.950 . S
H391 C403 0.950 . S
C392 H384 0.950 . S
C392 C393 1.386 . S
C392 C394 1.391 . S
C393 C392 1.386 . S
C393 C397 1.393 . S
C394 H386 0.950 . S
C394 C392 1.391 . S
C394 C395 1.400 . S
C395 C394 1.400 . S
C395 C396 1.398 . S
C395 C401 1.491 . S
C396 H387 0.950 . S
C396 C395 1.398 . S
C396 C397 1.391 . S
C397 H385 0.950 . S
C397 C393 1.393 . S
C397 C396 1.391 . S
C398 H388 0.950 . S
C398 C399 1.386 . S
C398 C400 1.391 . S
C399 C398 1.386 . S
C399 C403 1.393 . S
C400 H389 0.950 . S
C400 C398 1.391 . S
C400 C401 1.400 . S
C401 C395 1.491 . S
C401 C400 1.400 . S
C401 C402 1.398 . S
C402 H390 0.950 . S
C402 C401 1.398 . S
C402 C403 1.391 . S
C403 H391 0.950 . S
C403 C399 1.393 . S
C403 C402 1.391 . S
H404 C412 0.950 . S
H405 C417 0.950 . S
H406 C414 0.933 1_545 S
H407 C416 0.950 . S
H408 C418 0.950 . S
H409 C420 0.950 . S
H410 C422 0.950 . S
H411 C423 0.950 . S
C412 H404 0.950 . S
C412 C413 1.386 . S
C412 C414 1.391 . S
C413 C412 1.386 . S
C413 C417 1.393 . S
C414 H406 0.933 1_565 S
C414 C412 1.391 . S
C414 C415 1.400 . S
C415 C414 1.400 . S
C415 C416 1.398 . S
C415 C421 1.491 . S
C416 H407 0.950 . S
C416 C415 1.398 . S
C416 C417 1.391 . S
C417 H405 0.950 . S
C417 C413 1.393 . S
C417 C416 1.391 . S
C418 H408 0.950 . S
C418 C419 1.386 1_565 S
C418 C420 1.391 1_655 S
C419 C418 1.386 1_545 S
C419 C423 1.393 . S
C420 H409 0.950 . S
C420 C418 1.391 1_455 S
C420 C421 1.400 . S
C421 C415 1.491 . S
C421 C420 1.400 . S
C421 C422 1.398 1_465 S
C422 H410 0.950 . S
C422 C421 1.398 1_645 S
C422 C423 1.391 . S
C423 H411 0.950 . S
C423 C419 1.393 . S
C423 C422 1.391 . S
H424 C432 0.950 . S
H425 C437 0.950 . S
H426 C434 0.950 . S
H427 C436 0.950 . S
H428 C438 0.950 . S
H429 C440 0.950 . S
H430 C442 0.950 . S
H431 C443 0.950 . S
C432 H424 0.950 . S
C432 C433 1.386 . S
C432 C434 1.391 . S
C433 C432 1.386 . S
C433 C437 1.393 . S
C434 H426 0.950 . S
C434 C432 1.391 . S
C434 C435 1.400 . S
C435 C434 1.400 . S
C435 C436 1.398 . S
C435 C441 1.491 . S
C436 H427 0.950 . S
C436 C435 1.398 . S
C436 C437 1.391 . S
C437 H425 0.950 . S
C437 C433 1.393 . S
C437 C436 1.391 . S
C438 H428 0.950 . S
C438 C439 1.386 . S
C438 C440 1.391 . S
C439 C438 1.386 . S
C439 C443 1.393 . S
C440 H429 0.950 . S
C440 C438 1.391 . S
C440 C441 1.400 . S
C441 C435 1.491 . S
C441 C440 1.400 . S
C441 C442 1.398 . S
C442 H430 0.950 . S
C442 C441 1.398 . S
C442 C443 1.391 . S
C443 H431 0.950 . S
C443 C439 1.393 . S
C443 C442 1.391 . S
H444 C452 0.950 . S
H445 C457 0.950 . S
H446 C454 0.950 . S
H447 C456 0.950 . S
H448 C458 0.950 . S
H449 C460 0.950 . S
H450 C462 0.950 . S
H451 C463 0.950 . S
C452 H444 0.950 . S
C452 C453 1.386 . S
C452 C454 1.391 . S
C453 C452 1.386 . S
C453 C457 1.393 . S
C454 H446 0.950 . S
C454 C452 1.391 . S
C454 C455 1.400 . S
C455 C454 1.400 . S
C455 C456 1.398 . S
C455 C461 1.491 . S
C456 H447 0.950 . S
C456 C455 1.398 . S
C456 C457 1.391 . S
C457 H445 0.950 . S
C457 C453 1.393 . S
C457 C456 1.391 . S
C458 H448 0.950 . S
C458 C459 1.386 . S
C458 C460 1.391 . S
C459 C458 1.386 . S
C459 C463 1.393 . S
C460 H449 0.950 . S
C460 C458 1.391 . S
C460 C461 1.400 . S
C461 C455 1.491 . S
C461 C460 1.400 . S
C461 C462 1.398 . S
C462 H450 0.950 . S
C462 C461 1.398 . S
C462 C463 1.391 . S
C463 H451 0.950 . S
C463 C459 1.393 . S
C463 C462 1.391 . S
H464 C472 0.950 . S
H465 C477 0.950 . S
H466 C474 0.950 . S
H467 C476 0.950 . S
H468 C478 0.950 . S
H469 C480 0.950 . S
H470 C482 0.950 . S
H471 C483 0.950 . S
C472 H464 0.950 . S
C472 C473 1.386 . S
C472 C474 1.391 . S
C473 C472 1.386 . S
C473 C477 1.393 . S
C474 H466 0.950 . S
C474 C472 1.391 . S
C474 C475 1.400 . S
C475 C474 1.400 . S
C475 C476 1.398 . S
C475 C481 1.491 . S
C476 H467 0.950 . S
C476 C475 1.398 . S
C476 C477 1.391 . S
C477 H465 0.950 . S
C477 C473 1.393 . S
C477 C476 1.391 . S
C478 H468 0.950 . S
C478 C479 1.386 . S
C478 C480 1.391 . S
C479 C478 1.386 . S
C479 C483 1.393 . S
C480 H469 0.950 . S
C480 C478 1.391 . S
C480 C481 1.400 . S
C481 C475 1.491 . S
C481 C480 1.400 . S
C481 C482 1.398 . S
C482 H470 0.950 . S
C482 C481 1.398 . S
C482 C483 1.391 . S
C483 H471 0.950 . S
C483 C479 1.393 . S
C483 C482 1.391 . S
H484 C492 0.950 . S
H485 C497 0.950 1_545 S
H486 C494 0.950 . S
H487 C496 0.950 1_545 S
H488 C498 0.950 . S
H489 C500 0.950 . S
H490 C502 0.950 . S
H491 C503 0.950 . S
C492 H484 0.950 . S
C492 C493 1.386 . S
C492 C494 1.391 . S
C493 C492 1.386 . S
C493 C497 1.393 . S
C494 H486 0.950 . S
C494 C492 1.391 . S
C494 C495 1.400 . S
C495 C494 1.400 . S
C495 C496 1.398 . S
C495 C501 1.491 . S
C496 H487 0.950 1_565 S
C496 C495 1.398 . S
C496 C497 1.391 . S
C497 H485 0.950 1_565 S
C497 C493 1.393 . S
C497 C496 1.391 . S
C498 H488 0.950 . S
C498 C499 1.386 1_545 S
C498 C500 1.391 . S
C499 C498 1.386 1_565 S
C499 C503 1.393 . S
C500 H489 0.950 . S
C500 C498 1.391 . S
C500 C501 1.400 1_545 S
C501 C495 1.491 . S
C501 C500 1.400 1_565 S
C501 C502 1.398 . S
C502 H490 0.950 . S
C502 C501 1.398 . S
C502 C503 1.391 . S
C503 H491 0.950 . S
C503 C499 1.393 . S
C503 C502 1.391 . S
H504 C512 0.950 . S
H505 C517 0.950 . S
H506 C514 0.950 . S
H507 C516 0.950 . S
H508 C518 0.950 . S
H509 C520 0.950 . S
H510 C522 0.950 . S
H511 C523 0.950 . S
C512 H504 0.950 . S
C512 C513 1.386 . S
C512 C514 1.391 . S
C513 C512 1.386 . S
C513 C517 1.393 . S
C514 H506 0.950 . S
C514 C512 1.391 . S
C514 C515 1.400 . S
C515 C514 1.400 . S
C515 C516 1.398 . S
C515 C521 1.491 . S
C516 H507 0.950 . S
C516 C515 1.398 . S
C516 C517 1.391 . S
C517 H505 0.950 . S
C517 C513 1.393 . S
C517 C516 1.391 . S
C518 H508 0.950 . S
C518 C519 1.386 . S
C518 C520 1.391 . S
C519 C518 1.386 . S
C519 C523 1.393 . S
C520 H509 0.950 . S
C520 C518 1.391 . S
C520 C521 1.400 . S
C521 C515 1.491 . S
C521 C520 1.400 . S
C521 C522 1.398 . S
C522 H510 0.950 . S
C522 C521 1.398 . S
C522 C523 1.391 . S
C523 H511 0.950 . S
C523 C519 1.393 . S
C523 C522 1.391 . S
H524 C532 0.950 . S
H525 C537 0.950 . S
H526 C534 0.950 . S
H527 C536 0.950 . S
H528 C538 0.950 . S
H529 C540 0.950 . S
H530 C542 0.950 . S
H531 C543 0.950 . S
C532 H524 0.950 . S
C532 C533 1.386 . S
C532 C534 1.391 . S
C533 C532 1.386 . S
C533 C537 1.393 . S
C534 H526 0.950 . S
C534 C532 1.391 . S
C534 C535 1.400 . S
C535 C534 1.400 . S
C535 C536 1.398 . S
C535 C541 1.491 . S
C536 H527 0.950 . S
C536 C535 1.398 . S
C536 C537 1.391 . S
C537 H525 0.950 . S
C537 C533 1.393 . S
C537 C536 1.391 . S
C538 H528 0.950 . S
C538 C539 1.386 . S
C538 C540 1.391 . S
C539 C538 1.386 . S
C539 C543 1.393 . S
C540 H529 0.950 . S
C540 C538 1.391 . S
C540 C541 1.400 . S
C541 C535 1.491 . S
C541 C540 1.400 . S
C541 C542 1.398 . S
C542 H530 0.950 . S
C542 C541 1.398 . S
C542 C543 1.391 . S
C543 H531 0.950 . S
C543 C539 1.393 . S
C543 C542 1.391 . S
H544 C552 0.950 . S
H545 C557 0.950 . S
H546 C554 0.950 . S
H547 C556 0.950 . S
H548 C558 0.950 . S
H549 C560 0.950 . S
H550 C562 0.950 . S
H551 C563 0.950 . S
C552 H544 0.950 . S
C552 C553 1.386 . S
C552 C554 1.391 . S
C553 C552 1.386 . S
C553 C557 1.393 . S
C554 H546 0.950 . S
C554 C552 1.391 . S
C554 C555 1.400 . S
C555 C554 1.400 . S
C555 C556 1.398 . S
C555 C561 1.491 . S
C556 H547 0.950 . S
C556 C555 1.398 . S
C556 C557 1.391 . S
C557 H545 0.950 . S
C557 C553 1.393 . S
C557 C556 1.391 . S
C558 H548 0.950 . S
C558 C559 1.386 . S
C558 C560 1.391 . S
C559 C558 1.386 . S
C559 C563 1.393 . S
C560 H549 0.950 . S
C560 C558 1.391 . S
C560 C561 1.400 . S
C561 C555 1.491 . S
C561 C560 1.400 . S
C561 C562 1.398 . S
C562 H550 0.950 . S
C562 C561 1.398 . S
C562 C563 1.391 . S
C563 H551 0.950 . S
C563 C559 1.393 . S
C563 C562 1.391 . S
H564 C572 0.950 . S
H565 C577 0.950 . S
H566 C574 0.950 . S
H567 C576 0.950 . S
H568 C578 0.950 . S
H569 C580 0.950 . S
H570 C582 0.950 . S
H571 C583 0.950 . S
C572 H564 0.950 . S
C572 C573 1.386 . S
C572 C574 1.391 . S
C573 C572 1.386 . S
C573 C577 1.393 . S
C574 H566 0.950 . S
C574 C572 1.391 . S
C574 C575 1.400 . S
C575 C574 1.400 . S
C575 C576 1.398 . S
C575 C581 1.491 . S
C576 H567 0.950 . S
C576 C575 1.398 . S
C576 C577 1.391 . S
C577 H565 0.950 . S
C577 C573 1.393 . S
C577 C576 1.391 . S
C578 H568 0.950 . S
C578 C579 1.386 . S
C578 C580 1.391 . S
C579 C578 1.386 . S
C579 C583 1.393 . S
C580 H569 0.950 . S
C580 C578 1.391 . S
C580 C581 1.400 . S
C581 C575 1.491 . S
C581 C580 1.400 . S
C581 C582 1.398 . S
C582 H570 0.950 . S
C582 C581 1.398 . S
C582 C583 1.391 . S
C583 H571 0.950 . S
C583 C579 1.393 . S
C583 C582 1.391 . S
H584 C592 0.950 . S
H585 C597 0.950 . S
H586 C594 0.950 . S
H587 C596 0.950 . S
H588 C598 0.950 . S
H589 C600 0.950 . S
H590 C602 0.950 . S
H591 C603 0.950 . S
C592 H584 0.950 . S
C592 C593 1.386 . S
C592 C594 1.391 . S
C593 C592 1.386 . S
C593 C597 1.393 . S
C594 H586 0.950 . S
C594 C592 1.391 . S
C594 C595 1.400 . S
C595 C594 1.400 . S
C595 C596 1.398 . S
C595 C601 1.491 . S
C596 H587 0.950 . S
C596 C595 1.398 . S
C596 C597 1.391 . S
C597 H585 0.950 . S
C597 C593 1.393 . S
C597 C596 1.391 . S
C598 H588 0.950 . S
C598 C599 1.386 . S
C598 C600 1.391 . S
C599 C598 1.386 . S
C599 C603 1.393 . S
C600 H589 0.950 . S
C600 C598 1.391 . S
C600 C601 1.400 . S
C601 C595 1.491 . S
C601 C600 1.400 . S
C601 C602 1.398 . S
C602 H590 0.950 . S
C602 C601 1.398 . S
C602 C603 1.391 . S
C603 H591 0.950 . S
C603 C599 1.393 . S
C603 C602 1.391 . S
H604 C612 0.950 . S
H605 C617 0.950 . S
H606 C614 0.950 . S
H607 C616 0.950 . S
H608 C618 0.950 . S
H609 C620 0.950 . S
H610 C622 0.950 . S
H611 C623 0.950 . S
C612 H604 0.950 . S
C612 C613 1.386 . S
C612 C614 1.391 . S
C613 C612 1.386 . S
C613 C617 1.393 . S
C614 H606 0.950 . S
C614 C612 1.391 . S
C614 C615 1.400 . S
C615 C614 1.400 . S
C615 C616 1.398 . S
C615 C621 1.491 . S
C616 H607 0.950 . S
C616 C615 1.398 . S
C616 C617 1.391 . S
C617 H605 0.950 . S
C617 C613 1.393 . S
C617 C616 1.391 . S
C618 H608 0.950 . S
C618 C619 1.386 . S
C618 C620 1.391 . S
C619 C618 1.386 . S
C619 C623 1.393 . S
C620 H609 0.950 . S
C620 C618 1.391 . S
C620 C621 1.400 . S
C621 C615 1.491 . S
C621 C620 1.400 . S
C621 C622 1.398 . S
C622 H610 0.950 . S
C622 C621 1.398 . S
C622 C623 1.391 . S
C623 H611 0.950 . S
C623 C619 1.393 . S
C623 C622 1.391 . S
H624 C632 0.950 . S
H625 C637 0.950 . S
H626 C634 0.950 . S
H627 C636 0.950 . S
H628 C638 0.950 . S
H629 C640 0.950 . S
H630 C642 0.950 . S
H631 C643 0.950 . S
C632 H624 0.950 . S
C632 C633 1.386 . S
C632 C634 1.391 . S
C633 C632 1.386 . S
C633 C637 1.393 . S
C634 H626 0.950 . S
C634 C632 1.391 . S
C634 C635 1.400 . S
C635 C634 1.400 . S
C635 C636 1.398 . S
C635 C641 1.491 . S
C636 H627 0.950 . S
C636 C635 1.398 . S
C636 C637 1.391 . S
C637 H625 0.950 . S
C637 C633 1.393 . S
C637 C636 1.391 . S
C638 H628 0.950 . S
C638 C639 1.386 . S
C638 C640 1.391 . S
C639 C638 1.386 . S
C639 C643 1.393 . S
C640 H629 0.950 . S
C640 C638 1.391 . S
C640 C641 1.400 . S
C641 C635 1.491 . S
C641 C640 1.400 . S
C641 C642 1.398 . S
C642 H630 0.950 . S
C642 C641 1.398 . S
C642 C643 1.391 . S
C643 H631 0.950 . S
C643 C639 1.393 . S
C643 C642 1.391 . S
H644 C652 0.962 . S
H645 C657 0.950 . S
H646 C654 0.950 1_455 S
H647 C656 0.950 . S
H648 C658 0.950 . S
H649 C660 0.950 . S
H650 C662 0.950 . S
H651 C663 0.950 . S
C652 H644 0.962 . S
C652 C653 1.386 . S
C652 C654 1.391 . S
C653 C652 1.386 . S
C653 C657 1.393 . S
C654 H646 0.950 1_655 S
C654 C652 1.391 . S
C654 C655 1.400 . S
C655 C654 1.400 . S
C655 C656 1.398 . S
C655 C661 1.491 . S
C656 H647 0.950 . S
C656 C655 1.398 . S
C656 C657 1.391 . S
C657 H645 0.950 . S
C657 C653 1.393 . S
C657 C656 1.391 . S
C658 H648 0.950 . S
C658 C659 1.370 1_655 S
C658 C660 1.391 . S
C659 C658 1.370 1_455 S
C659 C663 1.409 . S
C660 H649 0.950 . S
C660 C658 1.391 . S
C660 C661 1.400 . S
C661 C655 1.491 . S
C661 C660 1.400 . S
C661 C662 1.398 1_655 S
C662 H650 0.950 . S
C662 C661 1.398 1_455 S
C662 C663 1.391 . S
C663 H651 0.950 . S
C663 C659 1.409 . S
C663 C662 1.391 . S
H664 C672 0.950 . S
H665 C677 0.950 . S
H666 C674 0.950 . S
H667 C676 0.950 . S
H668 C678 0.950 . S
H669 C680 0.950 . S
H670 C682 0.950 . S
H671 C683 0.950 . S
C672 H664 0.950 . S
C672 C673 1.386 . S
C672 C674 1.391 . S
C673 C672 1.386 . S
C673 C677 1.393 . S
C674 H666 0.950 . S
C674 C672 1.391 . S
C674 C675 1.400 . S
C675 C674 1.400 . S
C675 C676 1.398 . S
C675 C681 1.491 . S
C676 H667 0.950 . S
C676 C675 1.398 . S
C676 C677 1.391 . S
C677 H665 0.950 . S
C677 C673 1.393 . S
C677 C676 1.391 . S
C678 H668 0.950 . S
C678 C679 1.386 . S
C678 C680 1.391 . S
C679 C678 1.386 . S
C679 C683 1.393 . S
C680 H669 0.950 . S
C680 C678 1.391 . S
C680 C681 1.400 . S
C681 C675 1.491 . S
C681 C680 1.400 . S
C681 C682 1.398 . S
C682 H670 0.950 . S
C682 C681 1.398 . S
C682 C683 1.391 . S
C683 H671 0.950 . S
C683 C679 1.393 . S
C683 C682 1.391 . S
H684 C692 0.950 . S
H685 C697 0.950 . S
H686 C694 0.950 . S
H687 C696 0.950 . S
H688 C698 0.950 . S
H689 C700 0.950 . S
H690 C702 0.950 . S
H691 C703 0.950 . S
C692 H684 0.950 . S
C692 C693 1.386 . S
C692 C694 1.391 . S
C693 C692 1.386 . S
C693 C697 1.393 . S
C694 H686 0.950 . S
C694 C692 1.391 . S
C694 C695 1.400 . S
C695 C694 1.400 . S
C695 C696 1.398 . S
C695 C701 1.491 . S
C696 H687 0.950 . S
C696 C695 1.398 . S
C696 C697 1.391 . S
C697 H685 0.950 . S
C697 C693 1.393 . S
C697 C696 1.391 . S
C698 H688 0.950 . S
C698 C699 1.386 . S
C698 C700 1.391 . S
C699 C698 1.386 . S
C699 C703 1.393 . S
C700 H689 0.950 . S
C700 C698 1.391 . S
C700 C701 1.400 . S
C701 C695 1.491 . S
C701 C700 1.400 . S
C701 C702 1.398 . S
C702 H690 0.950 . S
C702 C701 1.398 . S
C702 C703 1.391 . S
C703 H691 0.950 . S
C703 C699 1.393 . S
C703 C702 1.391 . S
H704 C712 0.940 1_565 S
H705 C717 0.950 . S
H706 C714 0.950 . S
H707 C716 0.950 . S
H708 C718 0.950 . S
H709 C720 0.950 . S
H710 C722 0.948 1_556 S
H711 C723 0.950 . S
C712 H704 0.940 1_545 S
C712 C713 1.416 . S
C712 C714 1.372 1_545 S
C713 C712 1.416 . S
C713 C717 1.393 . S
C714 H706 0.950 . S
C714 C712 1.372 1_565 S
C714 C715 1.400 . S
C715 C714 1.400 . S
C715 C716 1.398 1_565 S
C715 C721 1.491 . S
C716 H707 0.950 . S
C716 C715 1.398 1_545 S
C716 C717 1.391 . S
C717 H705 0.950 . S
C717 C713 1.393 . S
C717 C716 1.391 . S
C718 H708 0.950 . S
C718 C719 1.386 . S
C718 C720 1.391 1_554 S
C719 C718 1.386 . S
C719 C723 1.393 . S
C720 H709 0.950 . S
C720 C718 1.391 1_556 S
C720 C721 1.400 . S
C721 C715 1.491 . S
C721 C720 1.400 . S
C721 C722 1.398 1_556 S
C722 H710 0.948 1_554 S
C722 C721 1.398 1_554 S
C722 C723 1.391 . S
C723 H711 0.950 . S
C723 C719 1.393 . S
C723 C722 1.391 . S
H724 C732 0.950 . S
H725 C737 0.950 . S
H726 C734 0.950 . S
H727 C736 0.950 . S
H728 C738 0.950 . S
H729 C740 0.950 . S
H730 C742 0.950 . S
H731 C743 0.950 . S
C732 H724 0.950 . S
C732 C733 1.386 . S
C732 C734 1.391 . S
C733 C732 1.386 . S
C733 C737 1.393 . S
C734 H726 0.950 . S
C734 C732 1.391 . S
C734 C735 1.400 . S
C735 C734 1.400 . S
C735 C736 1.398 . S
C735 C741 1.491 . S
C736 H727 0.950 . S
C736 C735 1.398 . S
C736 C737 1.391 . S
C737 H725 0.950 . S
C737 C733 1.393 . S
C737 C736 1.391 . S
C738 H728 0.950 . S
C738 C739 1.386 . S
C738 C740 1.391 . S
C739 C738 1.386 . S
C739 C743 1.393 . S
C740 H729 0.950 . S
C740 C738 1.391 . S
C740 C741 1.400 . S
C741 C735 1.491 . S
C741 C740 1.400 . S
C741 C742 1.398 . S
C742 H730 0.950 . S
C742 C741 1.398 . S
C742 C743 1.391 . S
C743 H731 0.950 . S
C743 C739 1.393 . S
C743 C742 1.391 . S
H744 C752 0.950 . S
H745 C757 0.950 . S
H746 C754 0.950 . S
H747 C756 0.950 . S
H748 C758 0.950 . S
H749 C760 0.950 . S
H750 C762 0.950 . S
H751 C763 0.950 . S
C752 H744 0.950 . S
C752 C753 1.386 1_545 S
C752 C754 1.391 . S
C753 C752 1.386 1_565 S
C753 C757 1.393 . S
C754 H746 0.950 . S
C754 C752 1.391 . S
C754 C755 1.400 . S
C755 C754 1.400 . S
C755 C756 1.398 . S
C755 C761 1.491 . S
C756 H747 0.950 . S
C756 C755 1.398 . S
C756 C757 1.391 1_545 S
C757 H745 0.950 . S
C757 C753 1.393 . S
C757 C756 1.391 1_565 S
C758 H748 0.950 . S
C758 C759 1.386 . S
C758 C760 1.391 . S
C759 C758 1.386 . S
C759 C763 1.393 . S
C760 H749 0.950 . S
C760 C758 1.391 . S
C760 C761 1.400 . S
C761 C755 1.491 . S
C761 C760 1.400 . S
C761 C762 1.398 . S
C762 H750 0.950 . S
C762 C761 1.398 . S
C762 C763 1.391 . S
C763 H751 0.950 . S
C763 C759 1.393 . S
C763 C762 1.391 . S
H764 C772 0.950 . S
H765 C777 0.950 . S
H766 C774 0.950 . S
H767 C776 0.950 . S
H768 C778 0.950 . S
H769 C780 0.950 . S
H770 C782 0.950 . S
H771 C783 0.950 . S
C772 H764 0.950 . S
C772 C773 1.386 . S
C772 C774 1.391 . S
C773 C772 1.386 . S
C773 C777 1.393 . S
C774 H766 0.950 . S
C774 C772 1.391 . S
C774 C775 1.400 . S
C775 C774 1.400 . S
C775 C776 1.398 . S
C775 C781 1.491 . S
C776 H767 0.950 . S
C776 C775 1.398 . S
C776 C777 1.391 . S
C777 H765 0.950 . S
C777 C773 1.393 . S
C777 C776 1.391 . S
C778 H768 0.950 . S
C778 C779 1.386 . S
C778 C780 1.391 . S
C779 C778 1.386 . S
C779 C783 1.393 . S
C780 H769 0.950 . S
C780 C778 1.391 . S
C780 C781 1.400 . S
C781 C775 1.491 . S
C781 C780 1.400 . S
C781 C782 1.398 . S
C782 H770 0.950 . S
C782 C781 1.398 . S
C782 C783 1.391 . S
C783 H771 0.950 . S
C783 C779 1.393 . S
C783 C782 1.391 . S
H784 C792 0.950 . S
H785 C797 0.950 . S
H786 C794 0.950 . S
H787 C796 0.950 . S
H788 C798 0.950 . S
H789 C800 0.950 . S
H790 C802 0.950 . S
H791 C803 0.950 . S
C792 H784 0.950 . S
C792 C793 1.386 . S
C792 C794 1.391 . S
C793 C792 1.386 . S
C793 C797 1.393 . S
C794 H786 0.950 . S
C794 C792 1.391 . S
C794 C795 1.400 . S
C795 C794 1.400 . S
C795 C796 1.398 . S
C795 C801 1.491 . S
C796 H787 0.950 . S
C796 C795 1.398 . S
C796 C797 1.391 . S
C797 H785 0.950 . S
C797 C793 1.393 . S
C797 C796 1.391 . S
C798 H788 0.950 . S
C798 C799 1.386 . S
C798 C800 1.391 . S
C799 C798 1.386 . S
C799 C803 1.393 . S
C800 H789 0.950 . S
C800 C798 1.391 . S
C800 C801 1.400 . S
C801 C795 1.491 . S
C801 C800 1.400 . S
C801 C802 1.398 . S
C802 H790 0.950 . S
C802 C801 1.398 . S
C802 C803 1.391 . S
C803 H791 0.950 . S
C803 C799 1.393 . S
C803 C802 1.391 . S
H804 C812 0.950 . S
H805 C817 0.950 . S
H806 C814 0.950 . S
H807 C816 0.950 . S
H808 C818 0.950 . S
H809 C820 0.950 . S
H810 C822 0.950 . S
H811 C823 0.950 . S
C812 H804 0.950 . S
C812 C813 1.386 . S
C812 C814 1.391 . S
C813 C812 1.386 . S
C813 C817 1.393 . S
C814 H806 0.950 . S
C814 C812 1.391 . S
C814 C815 1.400 . S
C815 C814 1.400 . S
C815 C816 1.398 . S
C815 C821 1.491 . S
C816 H807 0.950 . S
C816 C815 1.398 . S
C816 C817 1.391 . S
C817 H805 0.950 . S
C817 C813 1.393 . S
C817 C816 1.391 . S
C818 H808 0.950 . S
C818 C819 1.386 . S
C818 C820 1.391 . S
C819 C818 1.386 . S
C819 C823 1.393 . S
C820 H809 0.950 . S
C820 C818 1.391 . S
C820 C821 1.400 . S
C821 C815 1.491 . S
C821 C820 1.400 . S
C821 C822 1.398 . S
C822 H810 0.950 . S
C822 C821 1.398 . S
C822 C823 1.391 . S
C823 H811 0.950 . S
C823 C819 1.393 . S
C823 C822 1.391 . S
H824 C832 0.950 . S
H825 C837 0.950 . S
H826 C834 0.950 . S
H827 C836 0.950 . S
H828 C838 0.950 . S
H829 C840 0.950 . S
H830 C842 0.950 . S
H831 C843 0.950 . S
C832 H824 0.950 . S
C832 C833 1.386 . S
C832 C834 1.391 . S
C833 C832 1.386 . S
C833 C837 1.393 . S
C834 H826 0.950 . S
C834 C832 1.391 . S
C834 C835 1.400 . S
C835 C834 1.400 . S
C835 C836 1.398 . S
C835 C841 1.491 . S
C836 H827 0.950 . S
C836 C835 1.398 . S
C836 C837 1.391 . S
C837 H825 0.950 . S
C837 C833 1.393 . S
C837 C836 1.391 . S
C838 H828 0.950 . S
C838 C839 1.386 . S
C838 C840 1.391 . S
C839 C838 1.386 . S
C839 C843 1.393 . S
C840 H829 0.950 . S
C840 C838 1.391 . S
C840 C841 1.400 . S
C841 C835 1.491 . S
C841 C840 1.400 . S
C841 C842 1.398 . S
C842 H830 0.950 . S
C842 C841 1.398 . S
C842 C843 1.391 . S
C843 H831 0.950 . S
C843 C839 1.393 . S
C843 C842 1.391 . S
H844 C852 0.950 . S
H845 C857 0.950 . S
H846 C854 0.950 . S
H847 C856 0.950 . S
H848 C858 0.950 . S
H849 C860 0.950 . S
H850 C862 0.950 . S
H851 C863 0.950 . S
C852 H844 0.950 . S
C852 C853 1.386 . S
C852 C854 1.391 . S
C853 C852 1.386 . S
C853 C857 1.393 . S
C854 H846 0.950 . S
C854 C852 1.391 . S
C854 C855 1.400 . S
C855 C854 1.400 . S
C855 C856 1.398 . S
C855 C861 1.491 . S
C856 H847 0.950 . S
C856 C855 1.398 . S
C856 C857 1.391 . S
C857 H845 0.950 . S
C857 C853 1.393 . S
C857 C856 1.391 . S
C858 H848 0.950 . S
C858 C859 1.386 . S
C858 C860 1.391 . S
C859 C858 1.386 . S
C859 C863 1.393 . S
C860 H849 0.950 . S
C860 C858 1.391 . S
C860 C861 1.400 . S
C861 C855 1.491 . S
C861 C860 1.400 . S
C861 C862 1.398 . S
C862 H850 0.950 . S
C862 C861 1.398 . S
C862 C863 1.391 . S
C863 H851 0.950 . S
C863 C859 1.393 . S
C863 C862 1.391 . S
H864 C872 0.950 . S
H865 C877 0.950 . S
H866 C874 0.950 . S
H867 C876 0.950 . S
H868 C878 0.950 . S
H869 C880 0.950 . S
H870 C882 0.950 . S
H871 C883 0.950 . S
C872 H864 0.950 . S
C872 C873 1.386 . S
C872 C874 1.391 . S
C873 C872 1.386 . S
C873 C877 1.393 . S
C874 H866 0.950 . S
C874 C872 1.391 . S
C874 C875 1.400 . S
C875 C874 1.400 . S
C875 C876 1.398 . S
C875 C881 1.491 . S
C876 H867 0.950 . S
C876 C875 1.398 . S
C876 C877 1.391 . S
C877 H865 0.950 . S
C877 C873 1.393 . S
C877 C876 1.391 . S
C878 H868 0.950 . S
C878 C879 1.386 . S
C878 C880 1.391 . S
C879 C878 1.386 . S
C879 C883 1.393 . S
C880 H869 0.950 . S
C880 C878 1.391 . S
C880 C881 1.400 . S
C881 C875 1.491 . S
C881 C880 1.400 . S
C881 C882 1.398 . S
C882 H870 0.950 . S
C882 C881 1.398 . S
C882 C883 1.391 . S
C883 H871 0.950 . S
C883 C879 1.393 . S
C883 C882 1.391 . S
H884 C892 0.950 . S
H885 C897 0.950 . S
H886 C894 0.950 . S
H887 C896 0.950 . S
H888 C898 0.950 . S
H889 C900 0.950 . S
H890 C902 0.950 . S
H891 C903 0.950 . S
C892 H884 0.950 . S
C892 C893 1.386 . S
C892 C894 1.391 . S
C893 C892 1.386 . S
C893 C897 1.393 . S
C894 H886 0.950 . S
C894 C892 1.391 . S
C894 C895 1.400 . S
C895 C894 1.400 . S
C895 C896 1.398 . S
C895 C901 1.491 . S
C896 H887 0.950 . S
C896 C895 1.398 . S
C896 C897 1.391 . S
C897 H885 0.950 . S
C897 C893 1.393 . S
C897 C896 1.391 . S
C898 H888 0.950 . S
C898 C899 1.386 . S
C898 C900 1.391 . S
C899 C898 1.386 . S
C899 C903 1.393 . S
C900 H889 0.950 . S
C900 C898 1.391 . S
C900 C901 1.400 . S
C901 C895 1.491 . S
C901 C900 1.400 . S
C901 C902 1.398 . S
C902 H890 0.950 . S
C902 C901 1.398 . S
C902 C903 1.391 . S
C903 H891 0.950 . S
C903 C899 1.393 . S
C903 C902 1.391 . S
H904 C912 0.950 . S
H905 C917 0.950 . S
H906 C914 0.950 . S
H907 C916 0.950 . S
H908 C918 0.950 . S
H909 C920 0.950 . S
H910 C922 0.950 . S
H911 C923 0.950 . S
C912 H904 0.950 . S
C912 C913 1.386 . S
C912 C914 1.391 . S
C913 C912 1.386 . S
C913 C917 1.393 . S
C914 H906 0.950 . S
C914 C912 1.391 . S
C914 C915 1.400 . S
C915 C914 1.400 . S
C915 C916 1.398 . S
C915 C921 1.491 . S
C916 H907 0.950 . S
C916 C915 1.398 . S
C916 C917 1.391 . S
C917 H905 0.950 . S
C917 C913 1.393 . S
C917 C916 1.391 . S
C918 H908 0.950 . S
C918 C919 1.386 . S
C918 C920 1.391 . S
C919 C918 1.386 . S
C919 C923 1.393 . S
C920 H909 0.950 . S
C920 C918 1.391 . S
C920 C921 1.400 . S
C921 C915 1.491 . S
C921 C920 1.400 . S
C921 C922 1.398 . S
C922 H910 0.950 . S
C922 C921 1.398 . S
C922 C923 1.391 . S
C923 H911 0.950 . S
C923 C919 1.393 . S
C923 C922 1.391 . S
H924 C932 0.950 . S
H925 C937 0.950 . S
H926 C934 0.950 1_655 S
H927 C936 0.950 . S
H928 C938 0.950 1_455 S
H929 C940 0.950 . S
H930 C942 0.950 . S
H931 C943 0.950 . S
C932 H924 0.950 . S
C932 C933 1.386 . S
C932 C934 1.391 . S
C933 C932 1.386 . S
C933 C937 1.393 . S
C934 H926 0.950 1_455 S
C934 C932 1.391 . S
C934 C935 1.400 . S
C935 C934 1.400 . S
C935 C936 1.398 . S
C935 C941 1.491 . S
C936 H927 0.950 . S
C936 C935 1.398 . S
C936 C937 1.391 . S
C937 H925 0.950 . S
C937 C933 1.393 . S
C937 C936 1.391 . S
C938 H928 0.950 1_655 S
C938 C939 1.386 . S
C938 C940 1.391 1_655 S
C939 C938 1.386 . S
C939 C943 1.393 . S
C940 H929 0.950 . S
C940 C938 1.391 1_455 S
C940 C941 1.400 . S
C941 C935 1.491 . S
C941 C940 1.400 . S
C941 C942 1.398 1_455 S
C942 H930 0.950 . S
C942 C941 1.398 1_655 S
C942 C943 1.391 . S
C943 H931 0.950 . S
C943 C939 1.393 . S
C943 C942 1.391 . S
H944 C952 0.950 . S
H945 C957 0.950 . S
H946 C954 0.950 . S
H947 C956 0.950 . S
H948 C958 0.950 . S
H949 C960 0.950 . S
H950 C962 0.950 . S
H951 C963 0.950 . S
C952 H944 0.950 . S
C952 C953 1.386 . S
C952 C954 1.391 . S
C953 C952 1.386 . S
C953 C957 1.393 . S
C954 H946 0.950 . S
C954 C952 1.391 . S
C954 C955 1.400 . S
C955 C954 1.400 . S
C955 C956 1.398 . S
C955 C961 1.491 . S
C956 H947 0.950 . S
C956 C955 1.398 . S
C956 C957 1.391 . S
C957 H945 0.950 . S
C957 C953 1.393 . S
C957 C956 1.391 . S
C958 H948 0.950 . S
C958 C959 1.386 . S
C958 C960 1.391 . S
C959 C958 1.386 . S
C959 C963 1.393 . S
C960 H949 0.950 . S
C960 C958 1.391 . S
C960 C961 1.400 . S
C961 C955 1.491 . S
C961 C960 1.400 . S
C961 C962 1.398 . S
C962 H950 0.950 . S
C962 C961 1.398 . S
C962 C963 1.391 . S
C963 H951 0.950 . S
C963 C959 1.393 . S
C963 C962 1.391 . S
H964 C972 0.950 1_655 S
H965 C977 0.950 . S
H966 C974 0.950 . S
H967 C976 0.950 . S
H968 C978 0.950 . S
H969 C980 0.950 . S
H970 C982 0.950 . S
H971 C983 0.950 . S
C972 H964 0.950 1_455 S
C972 C973 1.386 . S
C972 C974 1.391 . S
C973 C972 1.386 . S
C973 C977 1.393 . S
C974 H966 0.950 . S
C974 C972 1.391 . S
C974 C975 1.400 . S
C975 C974 1.400 . S
C975 C976 1.398 . S
C975 C981 1.491 . S
C976 H967 0.950 . S
C976 C975 1.398 . S
C976 C977 1.391 . S
C977 H965 0.950 . S
C977 C973 1.393 . S
C977 C976 1.391 . S
C978 H968 0.950 . S
C978 C979 1.386 . S
C978 C980 1.391 . S
C979 C978 1.386 . S
C979 C983 1.393 . S
C980 H969 0.950 . S
C980 C978 1.391 . S
C980 C981 1.400 . S
C981 C975 1.491 . S
C981 C980 1.400 . S
C981 C982 1.398 . S
C982 H970 0.950 . S
C982 C981 1.398 . S
C982 C983 1.391 . S
C983 H971 0.950 . S
C983 C979 1.393 . S
C983 C982 1.391 . S
H984 C992 0.950 . S
H985 C997 0.950 . S
H986 C994 0.950 . S
H987 C996 0.950 . S
H988 C998 0.950 . S
H989 C1000 0.950 . S
H990 C1002 0.950 . S
H991 C1003 0.950 . S
C992 H984 0.950 . S
C992 C993 1.386 . S
C992 C994 1.391 . S
C993 C992 1.386 . S
C993 C997 1.393 . S
C994 H986 0.950 . S
C994 C992 1.391 . S
C994 C995 1.400 . S
C995 C994 1.400 . S
C995 C996 1.398 . S
C995 C1001 1.491 . S
C996 H987 0.950 . S
C996 C995 1.398 . S
C996 C997 1.391 . S
C997 H985 0.950 . S
C997 C993 1.393 . S
C997 C996 1.391 . S
C998 H988 0.950 . S
C998 C999 1.386 . S
C998 C1000 1.391 . S
C999 C998 1.386 . S
C999 C1003 1.393 . S
C1000 H989 0.950 . S
C1000 C998 1.391 . S
C1000 C1001 1.400 . S
C1001 C995 1.491 . S
C1001 C1000 1.400 . S
C1001 C1002 1.398 . S
C1002 H990 0.950 . S
C1002 C1001 1.398 . S
C1002 C1003 1.391 . S
C1003 H991 0.950 . S
C1003 C999 1.393 . S
C1003 C1002 1.391 . S
H1004 C1012 0.950 . S
H1005 C1017 0.950 . S
H1006 C1014 0.950 . S
H1007 C1016 0.950 . S
H1008 C1018 0.950 . S
H1009 C1020 0.950 . S
H1010 C1022 0.950 . S
H1011 C1023 0.950 . S
C1012 H1004 0.950 . S
C1012 C1013 1.386 1_455 S
C1012 C1014 1.391 1_554 S
C1013 C1012 1.386 1_655 S
C1013 C1017 1.393 . S
C1014 H1006 0.950 . S
C1014 C1012 1.391 1_556 S
C1014 C1015 1.400 1_455 S
C1015 C1014 1.400 1_655 S
C1015 C1016 1.398 . S
C1015 C1021 1.491 . S
C1016 H1007 0.950 . S
C1016 C1015 1.398 . S
C1016 C1017 1.391 1_556 S
C1017 H1005 0.950 . S
C1017 C1013 1.393 . S
C1017 C1016 1.391 1_554 S
C1018 H1008 0.950 . S
C1018 C1019 1.386 1_655 S
C1018 C1020 1.391 . S
C1019 C1018 1.386 1_455 S
C1019 C1023 1.393 . S
C1020 H1009 0.950 . S
C1020 C1018 1.391 . S
C1020 C1021 1.400 . S
C1021 C1015 1.491 . S
C1021 C1020 1.400 . S
C1021 C1022 1.398 1_655 S
C1022 H1010 0.950 . S
C1022 C1021 1.398 1_455 S
C1022 C1023 1.391 . S
C1023 H1011 0.950 . S
C1023 C1019 1.393 . S
C1023 C1022 1.391 . S
H1024 C1032 0.950 . S
H1025 C1037 0.950 . S
H1026 C1034 0.950 . S
H1027 C1036 0.950 . S
H1028 C1038 0.950 . S
H1029 C1040 0.950 . S
H1030 C1042 0.950 . S
H1031 C1043 0.950 . S
C1032 H1024 0.950 . S
C1032 C1033 1.386 . S
C1032 C1034 1.391 . S
C1033 C1032 1.386 . S
C1033 C1037 1.393 . S
C1034 H1026 0.950 . S
C1034 C1032 1.391 . S
C1034 C1035 1.400 . S
C1035 C1034 1.400 . S
C1035 C1036 1.398 . S
C1035 C1041 1.491 . S
C1036 H1027 0.950 . S
C1036 C1035 1.398 . S
C1036 C1037 1.391 . S
C1037 H1025 0.950 . S
C1037 C1033 1.393 . S
C1037 C1036 1.391 . S
C1038 H1028 0.950 . S
C1038 C1039 1.386 . S
C1038 C1040 1.391 . S
C1039 C1038 1.386 . S
C1039 C1043 1.393 . S
C1040 H1029 0.950 . S
C1040 C1038 1.391 . S
C1040 C1041 1.400 . S
C1041 C1035 1.491 . S
C1041 C1040 1.400 . S
C1041 C1042 1.398 . S
C1042 H1030 0.950 . S
C1042 C1041 1.398 . S
C1042 C1043 1.391 . S
C1043 H1031 0.950 . S
C1043 C1039 1.393 . S
C1043 C1042 1.391 . S
H1044 C1052 0.950 . S
H1045 C1057 0.950 . S
H1046 C1054 0.950 . S
H1047 C1056 0.950 1_554 S
H1048 C1058 0.950 . S
H1049 C1060 0.950 . S
H1050 C1062 0.950 . S
H1051 C1063 0.950 . S
C1052 H1044 0.950 . S
C1052 C1053 1.386 1_556 S
C1052 C1054 1.391 . S
C1053 C1052 1.386 1_554 S
C1053 C1057 1.393 . S
C1054 H1046 0.950 . S
C1054 C1052 1.391 . S
C1054 C1055 1.400 . S
C1055 C1054 1.400 . S
C1055 C1056 1.398 . S
C1055 C1061 1.491 . S
C1056 H1047 0.950 1_556 S
C1056 C1055 1.398 . S
C1056 C1057 1.391 1_556 S
C1057 H1045 0.950 . S
C1057 C1053 1.393 . S
C1057 C1056 1.391 1_554 S
C1058 H1048 0.950 . S
C1058 C1059 1.386 . S
C1058 C1060 1.391 . S
C1059 C1058 1.386 . S
C1059 C1063 1.393 . S
C1060 H1049 0.950 . S
C1060 C1058 1.391 . S
C1060 C1061 1.400 . S
C1061 C1055 1.491 . S
C1061 C1060 1.400 . S
C1061 C1062 1.398 . S
C1062 H1050 0.950 . S
C1062 C1061 1.398 . S
C1062 C1063 1.391 . S
C1063 H1051 0.950 . S
C1063 C1059 1.393 . S
C1063 C1062 1.391 . S
H1064 C1072 0.950 . S
H1065 C1077 0.950 . S
H1066 C1074 0.950 . S
H1067 C1076 0.950 . S
H1068 C1078 0.950 . S
H1069 C1080 0.950 . S
H1070 C1082 0.950 . S
H1071 C1083 0.950 . S
C1072 H1064 0.950 . S
C1072 C1073 1.386 . S
C1072 C1074 1.391 . S
C1073 C1072 1.386 . S
C1073 C1077 1.393 . S
C1074 H1066 0.950 . S
C1074 C1072 1.391 . S
C1074 C1075 1.400 . S
C1075 C1074 1.400 . S
C1075 C1076 1.398 . S
C1075 C1081 1.491 . S
C1076 H1067 0.950 . S
C1076 C1075 1.398 . S
C1076 C1077 1.391 . S
C1077 H1065 0.950 . S
C1077 C1073 1.393 . S
C1077 C1076 1.391 . S
C1078 H1068 0.950 . S
C1078 C1079 1.386 . S
C1078 C1080 1.391 . S
C1079 C1078 1.386 . S
C1079 C1083 1.393 . S
C1080 H1069 0.950 . S
C1080 C1078 1.391 . S
C1080 C1081 1.400 . S
C1081 C1075 1.491 . S
C1081 C1080 1.400 . S
C1081 C1082 1.398 . S
C1082 H1070 0.950 . S
C1082 C1081 1.398 . S
C1082 C1083 1.391 . S
C1083 H1071 0.950 . S
C1083 C1079 1.393 . S
C1083 C1082 1.391 . S
H1084 C1092 0.950 . S
H1085 C1097 0.950 . S
H1086 C1094 0.950 . S
H1087 C1096 0.950 . S
H1088 C1098 0.950 . S
H1089 C1100 0.950 . S
H1090 C1102 0.950 . S
H1091 C1103 0.950 . S
C1092 H1084 0.950 . S
C1092 C1093 1.386 . S
C1092 C1094 1.391 . S
C1093 C1092 1.386 . S
C1093 C1097 1.393 . S
C1094 H1086 0.950 . S
C1094 C1092 1.391 . S
C1094 C1095 1.400 . S
C1095 C1094 1.400 . S
C1095 C1096 1.398 . S
C1095 C1101 1.491 . S
C1096 H1087 0.950 . S
C1096 C1095 1.398 . S
C1096 C1097 1.391 . S
C1097 H1085 0.950 . S
C1097 C1093 1.393 . S
C1097 C1096 1.391 . S
C1098 H1088 0.950 . S
C1098 C1099 1.386 . S
C1098 C1100 1.391 . S
C1099 C1098 1.386 . S
C1099 C1103 1.393 . S
C1100 H1089 0.950 . S
C1100 C1098 1.391 . S
C1100 C1101 1.400 . S
C1101 C1095 1.491 . S
C1101 C1100 1.400 . S
C1101 C1102 1.398 . S
C1102 H1090 0.950 . S
C1102 C1101 1.398 . S
C1102 C1103 1.391 . S
C1103 H1091 0.950 . S
C1103 C1099 1.393 . S
C1103 C1102 1.391 . S
H1104 C1112 0.950 . S
H1105 C1117 0.950 . S
H1106 C1114 0.950 . S
H1107 C1116 0.950 . S
H1108 C1118 0.950 . S
H1109 C1120 0.950 . S
H1110 C1122 0.950 . S
H1111 C1123 0.950 . S
C1112 H1104 0.950 . S
C1112 C1113 1.386 . S
C1112 C1114 1.391 . S
C1113 C1112 1.386 . S
C1113 C1117 1.393 . S
C1114 H1106 0.950 . S
C1114 C1112 1.391 . S
C1114 C1115 1.400 . S
C1115 C1114 1.400 . S
C1115 C1116 1.398 . S
C1115 C1121 1.491 . S
C1116 H1107 0.950 . S
C1116 C1115 1.398 . S
C1116 C1117 1.391 . S
C1117 H1105 0.950 . S
C1117 C1113 1.393 . S
C1117 C1116 1.391 . S
C1118 H1108 0.950 . S
C1118 C1119 1.386 . S
C1118 C1120 1.391 . S
C1119 C1118 1.386 . S
C1119 C1123 1.393 . S
C1120 H1109 0.950 . S
C1120 C1118 1.391 . S
C1120 C1121 1.400 . S
C1121 C1115 1.491 . S
C1121 C1120 1.400 . S
C1121 C1122 1.398 . S
C1122 H1110 0.950 . S
C1122 C1121 1.398 . S
C1122 C1123 1.391 . S
C1123 H1111 0.950 . S
C1123 C1119 1.393 . S
C1123 C1122 1.391 . S
H1124 C1132 0.950 . S
H1125 C1137 0.950 1_556 S
H1126 C1134 0.950 . S
H1127 C1136 0.950 . S
H1128 C1138 0.950 . S
H1129 C1140 0.950 . S
H1130 C1142 0.950 . S
H1131 C1143 0.950 . S
C1132 H1124 0.950 . S
C1132 C1133 1.386 . S
C1132 C1134 1.391 1_556 S
C1133 C1132 1.386 . S
C1133 C1137 1.393 1_556 S
C1134 H1126 0.950 . S
C1134 C1132 1.391 1_554 S
C1134 C1135 1.400 . S
C1135 C1134 1.400 . S
C1135 C1136 1.398 . S
C1135 C1141 1.491 . S
C1136 H1127 0.950 . S
C1136 C1135 1.398 . S
C1136 C1137 1.391 . S
C1137 H1125 0.950 1_554 S
C1137 C1133 1.393 1_554 S
C1137 C1136 1.391 . S
C1138 H1128 0.950 . S
C1138 C1139 1.386 . S
C1138 C1140 1.391 . S
C1139 C1138 1.386 . S
C1139 C1143 1.393 . S
C1140 H1129 0.950 . S
C1140 C1138 1.391 . S
C1140 C1141 1.400 . S
C1141 C1135 1.491 . S
C1141 C1140 1.400 . S
C1141 C1142 1.398 . S
C1142 H1130 0.950 . S
C1142 C1141 1.398 . S
C1142 C1143 1.391 . S
C1143 H1131 0.950 . S
C1143 C1139 1.393 . S
C1143 C1142 1.391 . S
H1144 C1152 0.950 . S
H1145 C1157 0.950 . S
H1146 C1154 0.950 . S
H1147 C1156 0.950 . S
H1148 C1158 0.950 . S
H1149 C1160 0.950 . S
H1150 C1162 0.950 . S
H1151 C1163 0.950 . S
C1152 H1144 0.950 . S
C1152 C1153 1.386 . S
C1152 C1154 1.391 . S
C1153 C1152 1.386 . S
C1153 C1157 1.393 . S
C1154 H1146 0.950 . S
C1154 C1152 1.391 . S
C1154 C1155 1.400 . S
C1155 C1154 1.400 . S
C1155 C1156 1.398 . S
C1155 C1161 1.491 . S
C1156 H1147 0.950 . S
C1156 C1155 1.398 . S
C1156 C1157 1.391 . S
C1157 H1145 0.950 . S
C1157 C1153 1.393 . S
C1157 C1156 1.391 . S
C1158 H1148 0.950 . S
C1158 C1159 1.386 . S
C1158 C1160 1.391 . S
C1159 C1158 1.386 . S
C1159 C1163 1.393 . S
C1160 H1149 0.950 . S
C1160 C1158 1.391 . S
C1160 C1161 1.400 . S
C1161 C1155 1.491 . S
C1161 C1160 1.400 . S
C1161 C1162 1.398 . S
C1162 H1150 0.950 . S
C1162 C1161 1.398 . S
C1162 C1163 1.391 . S
C1163 H1151 0.950 . S
C1163 C1159 1.393 . S
C1163 C1162 1.391 . S
H1164 C1172 0.950 . S
H1165 C1177 0.950 . S
H1166 C1174 0.950 . S
H1167 C1176 0.950 . S
H1168 C1178 0.950 . S
H1169 C1180 0.950 . S
H1170 C1182 0.950 . S
H1171 C1183 0.950 . S
C1172 H1164 0.950 . S
C1172 C1173 1.386 . S
C1172 C1174 1.391 . S
C1173 C1172 1.386 . S
C1173 C1177 1.393 . S
C1174 H1166 0.950 . S
C1174 C1172 1.391 . S
C1174 C1175 1.400 . S
C1175 C1174 1.400 . S
C1175 C1176 1.398 . S
C1175 C1181 1.491 . S
C1176 H1167 0.950 . S
C1176 C1175 1.398 . S
C1176 C1177 1.391 . S
C1177 H1165 0.950 . S
C1177 C1173 1.393 . S
C1177 C1176 1.391 . S
C1178 H1168 0.950 . S
C1178 C1179 1.386 . S
C1178 C1180 1.391 . S
C1179 C1178 1.386 . S
C1179 C1183 1.393 . S
C1180 H1169 0.950 . S
C1180 C1178 1.391 . S
C1180 C1181 1.400 . S
C1181 C1175 1.491 . S
C1181 C1180 1.400 . S
C1181 C1182 1.398 . S
C1182 H1170 0.950 . S
C1182 C1181 1.398 . S
C1182 C1183 1.391 . S
C1183 H1171 0.950 . S
C1183 C1179 1.393 . S
C1183 C1182 1.391 . S
H1184 C1192 0.950 . S
H1185 C1197 0.950 . S
H1186 C1194 0.950 . S
H1187 C1196 0.950 . S
H1188 C1198 0.950 . S
H1189 C1200 0.950 . S
H1190 C1202 0.950 . S
H1191 C1203 0.950 . S
C1192 H1184 0.950 . S
C1192 C1193 1.386 . S
C1192 C1194 1.391 . S
C1193 C1192 1.386 . S
C1193 C1197 1.393 . S
C1194 H1186 0.950 . S
C1194 C1192 1.391 . S
C1194 C1195 1.400 . S
C1195 C1194 1.400 . S
C1195 C1196 1.398 . S
C1195 C1201 1.491 . S
C1196 H1187 0.950 . S
C1196 C1195 1.398 . S
C1196 C1197 1.391 . S
C1197 H1185 0.950 . S
C1197 C1193 1.393 . S
C1197 C1196 1.391 . S
C1198 H1188 0.950 . S
C1198 C1199 1.386 . S
C1198 C1200 1.391 . S
C1199 C1198 1.386 . S
C1199 C1203 1.393 . S
C1200 H1189 0.950 . S
C1200 C1198 1.391 . S
C1200 C1201 1.400 . S
C1201 C1195 1.491 . S
C1201 C1200 1.400 . S
C1201 C1202 1.398 . S
C1202 H1190 0.950 . S
C1202 C1201 1.398 . S
C1202 C1203 1.391 . S
C1203 H1191 0.950 . S
C1203 C1199 1.393 . S
C1203 C1202 1.391 . S
H1204 C1212 0.950 . S
H1205 C1217 0.950 . S
H1206 C1214 0.950 . S
H1207 C1216 0.950 . S
H1208 C1218 0.950 . S
H1209 C1220 0.950 . S
H1210 C1222 0.950 . S
H1211 C1223 0.950 . S
C1212 H1204 0.950 . S
C1212 C1213 1.386 . S
C1212 C1214 1.391 . S
C1213 C1212 1.386 . S
C1213 C1217 1.393 . S
C1214 H1206 0.950 . S
C1214 C1212 1.391 . S
C1214 C1215 1.400 . S
C1215 C1214 1.400 . S
C1215 C1216 1.398 . S
C1215 C1221 1.491 . S
C1216 H1207 0.950 . S
C1216 C1215 1.398 . S
C1216 C1217 1.391 . S
C1217 H1205 0.950 . S
C1217 C1213 1.393 . S
C1217 C1216 1.391 . S
C1218 H1208 0.950 . S
C1218 C1219 1.386 . S
C1218 C1220 1.391 . S
C1219 C1218 1.386 . S
C1219 C1223 1.393 . S
C1220 H1209 0.950 . S
C1220 C1218 1.391 . S
C1220 C1221 1.400 . S
C1221 C1215 1.491 . S
C1221 C1220 1.400 . S
C1221 C1222 1.398 . S
C1222 H1210 0.950 . S
C1222 C1221 1.398 . S
C1222 C1223 1.391 . S
C1223 H1211 0.950 . S
C1223 C1219 1.393 . S
C1223 C1222 1.391 . S
H1224 C1232 0.957 . S
H1225 C1237 0.950 . S
H1226 C1234 0.950 1_554 S
H1227 C1236 0.950 . S
H1228 C1238 0.950 . S
H1229 C1240 0.950 . S
H1230 C1242 0.942 1_554 S
H1231 C1243 0.950 1_554 S
C1232 H1224 0.957 . S
C1232 C1233 1.386 . S
C1232 C1234 1.391 . S
C1233 C1232 1.386 . S
C1233 C1237 1.393 . S
C1234 H1226 0.950 1_556 S
C1234 C1232 1.391 . S
C1234 C1235 1.400 . S
C1235 C1234 1.400 . S
C1235 C1236 1.398 . S
C1235 C1241 1.491 . S
C1236 H1227 0.950 . S
C1236 C1235 1.398 . S
C1236 C1237 1.391 . S
C1237 H1225 0.950 . S
C1237 C1233 1.393 . S
C1237 C1236 1.391 . S
C1238 H1228 0.950 . S
C1238 C1239 1.386 . S
C1238 C1240 1.391 . S
C1239 C1238 1.386 . S
C1239 C1243 1.393 . S
C1240 H1229 0.950 . S
C1240 C1238 1.391 . S
C1240 C1241 1.400 . S
C1241 C1235 1.491 . S
C1241 C1240 1.400 . S
C1241 C1242 1.398 . S
C1242 H1230 0.942 1_556 S
C1242 C1241 1.398 . S
C1242 C1243 1.391 . S
C1243 H1231 0.950 1_556 S
C1243 C1239 1.393 . S
C1243 C1242 1.391 . S
H1244 C1252 0.950 . S
H1245 C1257 0.950 . S
H1246 C1254 0.950 . S
H1247 C1256 0.950 . S
H1248 C1258 0.950 . S
H1249 C1260 0.950 . S
H1250 C1262 0.950 . S
H1251 C1263 0.950 . S
C1252 H1244 0.950 . S
C1252 C1253 1.386 . S
C1252 C1254 1.391 . S
C1253 C1252 1.386 . S
C1253 C1257 1.393 . S
C1254 H1246 0.950 . S
C1254 C1252 1.391 . S
C1254 C1255 1.400 . S
C1255 C1254 1.400 . S
C1255 C1256 1.398 . S
C1255 C1261 1.491 . S
C1256 H1247 0.950 . S
C1256 C1255 1.398 . S
C1256 C1257 1.391 . S
C1257 H1245 0.950 . S
C1257 C1253 1.393 . S
C1257 C1256 1.391 . S
C1258 H1248 0.950 . S
C1258 C1259 1.386 . S
C1258 C1260 1.391 . S
C1259 C1258 1.386 . S
C1259 C1263 1.393 . S
C1260 H1249 0.950 . S
C1260 C1258 1.391 . S
C1260 C1261 1.400 . S
C1261 C1255 1.491 . S
C1261 C1260 1.400 . S
C1261 C1262 1.398 . S
C1262 H1250 0.950 . S
C1262 C1261 1.398 . S
C1262 C1263 1.391 . S
C1263 H1251 0.950 . S
C1263 C1259 1.393 . S
C1263 C1262 1.391 . S
H1264 C1272 0.950 . S
H1265 C1277 0.950 . S
H1266 C1274 0.950 . S
H1267 C1276 0.950 . S
H1268 C1278 0.950 1_556 S
H1269 C1280 0.950 . S
H1270 C1282 0.950 . S
H1271 C1283 0.950 . S
C1272 H1264 0.950 . S
C1272 C1273 1.386 . S
C1272 C1274 1.391 . S
C1273 C1272 1.386 . S
C1273 C1277 1.393 . S
C1274 H1266 0.950 . S
C1274 C1272 1.391 . S
C1274 C1275 1.400 . S
C1275 C1274 1.400 . S
C1275 C1276 1.398 . S
C1275 C1281 1.491 . S
C1276 H1267 0.950 . S
C1276 C1275 1.398 . S
C1276 C1277 1.391 . S
C1277 H1265 0.950 . S
C1277 C1273 1.393 . S
C1277 C1276 1.391 . S
C1278 H1268 0.950 1_554 S
C1278 C1279 1.386 . S
C1278 C1280 1.391 . S
C1279 C1278 1.386 . S
C1279 C1283 1.393 . S
C1280 H1269 0.950 . S
C1280 C1278 1.391 . S
C1280 C1281 1.400 . S
C1281 C1275 1.491 . S
C1281 C1280 1.400 . S
C1281 C1282 1.398 . S
C1282 H1270 0.950 . S
C1282 C1281 1.398 . S
C1282 C1283 1.391 . S
C1283 H1271 0.950 . S
C1283 C1279 1.393 . S
C1283 C1282 1.391 . S
H1284 C1292 0.950 . S
H1285 C1297 0.950 . S
H1286 C1294 0.950 . S
H1287 C1296 0.950 . S
H1288 C1298 0.950 . S
H1289 C1300 0.950 . S
H1290 C1302 0.950 . S
H1291 C1303 0.950 . S
C1292 H1284 0.950 . S
C1292 C1293 1.386 . S
C1292 C1294 1.391 . S
C1293 C1292 1.386 . S
C1293 C1297 1.393 1_545 S
C1294 H1286 0.950 . S
C1294 C1292 1.391 . S
C1294 C1295 1.400 1_545 S
C1295 C1294 1.400 1_565 S
C1295 C1296 1.398 . S
C1295 C1301 1.491 . S
C1296 H1287 0.950 . S
C1296 C1295 1.398 . S
C1296 C1297 1.391 . S
C1297 H1285 0.950 . S
C1297 C1293 1.393 1_565 S
C1297 C1296 1.391 . S
C1298 H1288 0.950 . S
C1298 C1299 1.386 . S
C1298 C1300 1.391 . S
C1299 C1298 1.386 . S
C1299 C1303 1.393 . S
C1300 H1289 0.950 . S
C1300 C1298 1.391 . S
C1300 C1301 1.400 . S
C1301 C1295 1.491 . S
C1301 C1300 1.400 . S
C1301 C1302 1.398 . S
C1302 H1290 0.950 . S
C1302 C1301 1.398 . S
C1302 C1303 1.391 . S
C1303 H1291 0.950 . S
C1303 C1299 1.393 . S
C1303 C1302 1.391 . S
C359 C184 1.586 . S
C353 C60 1.630 . S
C379 C197 1.306 . S
C373 C76 1.316 . S
C393 C81 1.807 . S
C399 C217 1.678 . S
C419 C231 1.404 . S
C413 C48 1.508 . S
C439 C243 1.528 . S
C433 C115 1.531 . S
C459 C257 1.528 . S
C453 C136 1.540 . S
C473 C131 1.315 . S
C479 C267 1.309 . S
C499 C282 1.547 . S
C493 C104 1.540 . S
C513 C126 1.501 . S
C519 C296 1.458 . S
C539 C315 1.258 . S
C533 C103 1.324 . S
C553 C120 1.409 . S
C559 C295 1.400 . S
C579 C313 1.362 . S
C573 C142 1.369 . S
C593 C82 1.654 . S
C599 C329 1.535 . S
C613 C54 1.786 . S
C619 C323 1.777 . S
C633 C65 1.444 . S
C639 C327 1.442 . S
C653 C71 1.295 . S
C659 C324 1.291 1_455 S
C673 C37 1.571 . S
C679 C226 1.537 . S
C693 C158 1.900 . S
C699 C225 1.889 . S
C719 C189 1.279 . S
C713 C169 1.339 . S
C739 C203 1.317 . S
C733 C98 1.428 . S
C753 C49 1.732 . S
C759 C240 1.727 . S
C779 C285 1.451 . S
C773 C125 1.462 . S
C799 C239 1.349 . S
C793 C109 1.354 . S
C819 C271 1.712 . S
C813 C137 1.708 . S
C839 C268 1.585 . S
C833 C159 1.630 . S
C853 C175 1.316 . S
C859 C281 1.312 . S
C873 C92 1.807 . S
C879 C245 1.667 . S
C899 C259 1.407 . S
C893 C147 1.515 . S
C913 C38 1.534 . S
C919 C215 1.537 . S
C939 C229 1.528 . S
C933 C4 1.540 . S
C959 C183 1.298 . S
C953 C21 1.312 . S
C979 C198 1.551 . S
C973 C27 1.540 1_455 S
C993 C16 1.491 . S
C999 C310 1.447 . S
C1013 C26 1.329 . S
C1019 C301 1.219 . S
C1033 C43 1.401 . S
C1039 C309 1.383 . S
C1053 C10 1.372 . S
C1059 C299 1.358 . S
C1079 C343 1.540 . S
C1073 C93 1.655 . S
C1099 C337 1.773 . S
C1093 C153 1.785 . S
C1119 C341 1.450 . S
C1113 C164 1.447 . S
C1133 C170 1.286 . S
C1139 C338 1.290 . S
C1153 C114 1.568 . S
C1159 C254 1.553 . S
C1179 C253 1.890 . S
C1173 C59 1.901 . S
C1199 C273 1.281 . S
C1193 C70 1.339 . S
C1219 C287 1.339 . S
C1213 C87 1.435 . S
C1233 C148 1.732 . S
C1239 C212 1.724 . S
C1259 C201 1.452 . S
C1253 C15 1.461 . S
C1273 C32 1.355 . S
C1279 C211 1.349 . S
C1299 C187 1.713 . S
C1293 C5 1.701 . S
