# Generated by pormake.
# Topology sqc, (4,8)-cn, num edge types: 1
# Building blocks:
#     Node 0, Type 0, BuildingBlock: NAWXER_clean_linker_0, # of connection points: 4
#     Node 1, Type 0, BuildingBlock: NAWXER_clean_linker_0, # of connection points: 4
#     Node 2, Type 0, BuildingBlock: NAWXER_clean_linker_0, # of connection points: 4
#     Node 3, Type 0, BuildingBlock: NAWXER_clean_linker_0, # of connection points: 4
#     Node 4, Type 0, BuildingBlock: NAWXER_clean_linker_0, # of connection points: 4
#     Node 5, Type 0, BuildingBlock: NAWXER_clean_linker_0, # of connection points: 4
#     Node 6, Type 0, BuildingBlock: NAWXER_clean_linker_0, # of connection points: 4
#     Node 7, Type 0, BuildingBlock: NAWXER_clean_linker_0, # of connection points: 4
#     Node 8, Type 1, BuildingBlock: TAGTUT_clean_sbu_3, # of connection points: 8
#     Node 9, Type 1, BuildingBlock: TAGTUT_clean_sbu_3, # of connection points: 8
#     Node 10, Type 1, BuildingBlock: TAGTUT_clean_sbu_3, # of connection points: 8
#     Node 11, Type 1, BuildingBlock: TAGTUT_clean_sbu_3, # of connection points: 8
#     Edge 12, Type (0, 1), BuildingBlock: TEMPAE_clean_linker_10, # of connection points: 2
#     Edge 13, Type (0, 1), BuildingBlock: TEMPAE_clean_linker_10, # of connection points: 2
#     Edge 14, Type (0, 1), BuildingBlock: TEMPAE_clean_linker_10, # of connection points: 2
#     Edge 15, Type (0, 1), BuildingBlock: TEMPAE_clean_linker_10, # of connection points: 2
#     Edge 16, Type (0, 1), BuildingBlock: TEMPAE_clean_linker_10, # of connection points: 2
#     Edge 17, Type (0, 1), BuildingBlock: TEMPAE_clean_linker_10, # of connection points: 2
#     Edge 18, Type (0, 1), BuildingBlock: TEMPAE_clean_linker_10, # of connection points: 2
#     Edge 19, Type (0, 1), BuildingBlock: TEMPAE_clean_linker_10, # of connection points: 2
#     Edge 20, Type (0, 1), BuildingBlock: TEMPAE_clean_linker_10, # of connection points: 2
#     Edge 21, Type (0, 1), BuildingBlock: TEMPAE_clean_linker_10, # of connection points: 2
#     Edge 22, Type (0, 1), BuildingBlock: TEMPAE_clean_linker_10, # of connection points: 2
#     Edge 23, Type (0, 1), BuildingBlock: TEMPAE_clean_linker_10, # of connection points: 2
#     Edge 24, Type (0, 1), BuildingBlock: TEMPAE_clean_linker_10, # of connection points: 2
#     Edge 25, Type (0, 1), BuildingBlock: TEMPAE_clean_linker_10, # of connection points: 2
#     Edge 26, Type (0, 1), BuildingBlock: TEMPAE_clean_linker_10, # of connection points: 2
#     Edge 27, Type (0, 1), BuildingBlock: TEMPAE_clean_linker_10, # of connection points: 2
#     Edge 28, Type (0, 1), BuildingBlock: TEMPAE_clean_linker_10, # of connection points: 2
#     Edge 29, Type (0, 1), BuildingBlock: TEMPAE_clean_linker_10, # of connection points: 2
#     Edge 30, Type (0, 1), BuildingBlock: TEMPAE_clean_linker_10, # of connection points: 2
#     Edge 31, Type (0, 1), BuildingBlock: TEMPAE_clean_linker_10, # of connection points: 2
#     Edge 32, Type (0, 1), BuildingBlock: TEMPAE_clean_linker_10, # of connection points: 2
#     Edge 33, Type (0, 1), BuildingBlock: TEMPAE_clean_linker_10, # of connection points: 2
#     Edge 34, Type (0, 1), BuildingBlock: TEMPAE_clean_linker_10, # of connection points: 2
#     Edge 35, Type (0, 1), BuildingBlock: TEMPAE_clean_linker_10, # of connection points: 2
#     Edge 36, Type (0, 1), BuildingBlock: TEMPAE_clean_linker_10, # of connection points: 2
#     Edge 37, Type (0, 1), BuildingBlock: TEMPAE_clean_linker_10, # of connection points: 2
#     Edge 38, Type (0, 1), BuildingBlock: TEMPAE_clean_linker_10, # of connection points: 2
#     Edge 39, Type (0, 1), BuildingBlock: TEMPAE_clean_linker_10, # of connection points: 2
#     Edge 40, Type (0, 1), BuildingBlock: TEMPAE_clean_linker_10, # of connection points: 2
#     Edge 41, Type (0, 1), BuildingBlock: TEMPAE_clean_linker_10, # of connection points: 2
#     Edge 42, Type (0, 1), BuildingBlock: TEMPAE_clean_linker_10, # of connection points: 2
#     Edge 43, Type (0, 1), BuildingBlock: TEMPAE_clean_linker_10, # of connection points: 2
# Relax obj value: 0.135
# Max RMSD: 0.256
# Mean RMSD: 0.159
data_MOF--net-sqc--node1-TAGTUT_clean_sbu_3--node2-NAWXER_clean_linker_0--edge1-TEMPAE_clean_linker_10
_symmetry_space_group_name_H-M    P1
_symmetry_Int_Tables_number       1
_symmetry_cell_setting            triclinic
loop_
_symmetry_equiv_pos_as_xyz
'x, y, z'
_cell_length_a     28.242961
_cell_length_b     28.239043
_cell_length_c     87.208673
_cell_angle_alpha  90.992255
_cell_angle_beta   90.050397
_cell_angle_gamma 90.13371
loop_
_atom_site_label
_atom_site_type_symbol
_atom_site_fract_x
_atom_site_fract_y
_atom_site_fract_z
_atom_type_partial_charge
C0 C 0.19293 0.00373 0.46226 0.0
C1 C 0.19763 0.95418 0.46124 0.0
C2 C 0.15238 0.0242 0.4687 0.0
C3 C 0.11583 0.99554 0.47433 0.0
C4 C 0.16063 0.92561 0.46667 0.0
C5 C 0.12 0.94613 0.47306 0.0
C6 C 0.07363 0.01663 0.48183 0.0
C7 C 0.19742 0.0459 0.51307 0.0
C8 C 0.2084 0.09433 0.51462 0.0
C9 C 0.15488 0.03131 0.50632 0.0
C10 C 0.12266 0.06486 0.50087 0.0
C11 C 0.17624 0.12786 0.50905 0.0
C12 C 0.13353 0.11321 0.50234 0.0
C13 C 0.07692 0.04965 0.49416 0.0
C14 C 0.88352 0.03804 0.52059 0.0
C15 C 0.86935 0.0854 0.52281 0.0
C16 C 0.9239 0.0271 0.51207 0.0
C17 C 0.95122 0.0632 0.50562 0.0
C18 C 0.89726 0.12158 0.51646 0.0
C19 C 0.93813 0.11055 0.50807 0.0
C20 C 0.99285 0.05083 0.49614 0.0
C21 C 0.8627 0.02259 0.46869 0.0
C22 C 0.85465 0.97469 0.46486 0.0
C23 C 0.90662 0.03743 0.47441 0.0
C24 C 0.94314 0.00455 0.47679 0.0
C25 C 0.89176 0.9421 0.46689 0.0
C26 C 0.93547 0.95689 0.47279 0.0
C27 C 0.98939 0.01973 0.48334 0.0
H28 H 0.22085 0.0267 0.45821 0.0
H29 H 0.14965 0.06244 0.46934 0.0
H30 H 0.16284 0.88737 0.46581 0.0
H31 H 0.09212 0.92335 0.47726 0.0
H32 H 0.22157 0.01928 0.51724 0.0
H33 H 0.14683 0.99381 0.50556 0.0
H34 H 0.18346 0.16542 0.5103 0.0
H35 H 0.10892 0.13963 0.49832 0.0
H36 H 0.86384 0.0093 0.52564 0.0
H37 H 0.93392 0.99031 0.51052 0.0
H38 H 0.88728 0.15841 0.51782 0.0
H39 H 0.95884 0.13886 0.50317 0.0
H40 H 0.83511 0.04871 0.46727 0.0
H41 H 0.91203 0.07473 0.47691 0.0
H42 H 0.88744 0.90516 0.46364 0.0
H43 H 0.9632 0.93095 0.47433 0.0
N44 N 0.02995 0.00306 0.47682 0.0
N45 N 0.0364 0.06531 0.50095 0.0
C46 C 0.39332 0.55842 0.73262 0.0
C47 C 0.38478 0.54874 0.71705 0.0
C48 C 0.37096 0.59673 0.7399 0.0
C49 C 0.33859 0.62474 0.73179 0.0
C50 C 0.35283 0.57678 0.70893 0.0
C51 C 0.32982 0.61435 0.71626 0.0
C52 C 0.31677 0.66739 0.73882 0.0
C53 C 0.26422 0.54673 0.76653 0.0
C54 C 0.28336 0.54578 0.78142 0.0
C55 C 0.26912 0.58686 0.75757 0.0
C56 C 0.29324 0.62689 0.76329 0.0
C57 C 0.3078 0.58596 0.78707 0.0
C58 C 0.31229 0.62633 0.77813 0.0
C59 C 0.29817 0.66934 0.7538 0.0
C60 C 0.21483 0.86743 0.75704 0.0
C61 C 0.22941 0.88021 0.77198 0.0
C62 C 0.23022 0.82499 0.75022 0.0
C63 C 0.26159 0.79523 0.75803 0.0
C64 C 0.25873 0.84894 0.78002 0.0
C65 C 0.27474 0.80712 0.77311 0.0
C66 C 0.28072 0.75141 0.75085 0.0
C67 C 0.32965 0.86869 0.71949 0.0
C68 C 0.31789 0.86164 0.70391 0.0
C69 C 0.32241 0.83274 0.73004 0.0
C70 C 0.30184 0.78961 0.72531 0.0
C71 C 0.29691 0.81852 0.69929 0.0
C72 C 0.28891 0.78301 0.70988 0.0
C73 C 0.29857 0.74903 0.73571 0.0
H74 H 0.41829 0.53729 0.73897 0.0
H75 H 0.37997 0.60508 0.7517 0.0
H76 H 0.34575 0.56958 0.6969 0.0
H77 H 0.30542 0.63563 0.70972 0.0
H78 H 0.24411 0.51702 0.76194 0.0
H79 H 0.25343 0.58692 0.74622 0.0
H80 H 0.32326 0.58632 0.79844 0.0
H81 H 0.33106 0.65693 0.78272 0.0
H82 H 0.19212 0.89044 0.75051 0.0
H83 H 0.21797 0.81577 0.73878 0.0
H84 H 0.26934 0.85663 0.79174 0.0
H85 H 0.2981 0.78433 0.77951 0.0
H86 H 0.34535 0.90167 0.7235 0.0
H87 H 0.33408 0.83824 0.74176 0.0
H88 H 0.28826 0.81135 0.68738 0.0
H89 H 0.27366 0.74973 0.70592 0.0
N90 N 0.3158 0.70716 0.73037 0.0
N91 N 0.28132 0.71134 0.75933 0.0
C92 C 0.48896 0.01026 0.96051 0.0
C93 C 0.48233 0.05884 0.95809 0.0
C94 C 0.52203 0.99504 0.97123 0.0
C95 C 0.54905 0.02822 0.97964 0.0
C96 C 0.50817 0.09199 0.96689 0.0
C97 C 0.54159 0.07676 0.97749 0.0
C98 C 0.58935 0.0127 0.98901 0.0
C99 C 0.4704 0.96713 0.01972 0.0
C100 C 0.4687 0.91864 0.02296 0.0
C101 C 0.50682 0.98518 0.01075 0.0
C102 C 0.54212 0.95494 0.00494 0.0
C103 C 0.50184 0.88788 0.01619 0.0
C104 C 0.53861 0.90601 0.00734 0.0
C105 C 0.58692 0.97495 -0.00069 0.0
C106 C 0.77918 0.97386 0.02867 0.0
C107 C 0.78319 0.92473 0.03034 0.0
C108 C 0.74289 0.9925 0.01976 0.0
C109 C 0.7111 0.9621 0.01201 0.0
C110 C 0.7514 0.89434 0.02271 0.0
C111 C 0.71575 0.9129 0.01356 0.0
C112 C 0.67019 0.98065 0.00349 0.0
C113 C 0.7952 0.04299 0.97834 0.0
C114 C 0.79392 0.09242 0.97685 0.0
C115 C 0.75644 0.01896 0.98438 0.0
C116 C 0.71635 0.04421 0.98933 0.0
C117 C 0.75457 0.11775 0.98229 0.0
C118 C 0.7161 0.09381 0.9885 0.0
C119 C 0.67234 0.01949 0.99353 0.0
H120 H 0.46911 0.98408 0.95392 0.0
H121 H 0.52797 0.9574 0.97243 0.0
H122 H 0.50379 0.12963 0.96516 0.0
H123 H 0.56248 0.10289 0.98375 0.0
H124 H 0.44497 0.99139 0.0248 0.0
H125 H 0.50932 0.02315 0.00939 0.0
H126 H 0.50126 0.85039 0.01862 0.0
H127 H 0.5658 0.88219 0.00309 0.0
H128 H 0.80304 -0.00219 0.03472 0.0
H129 H 0.73897 0.03057 0.01932 0.0
H130 H 0.754 0.85631 0.02391 0.0
H131 H 0.69132 0.88877 0.00784 0.0
H132 H 0.82488 0.0227 0.97393 0.0
H133 H 0.75693 0.98062 0.98446 0.0
H134 H 0.75288 0.15588 0.9812 0.0
H135 H 0.68538 0.11393 0.99216 0.0
N136 N 0.63186 0.03369 0.98663 0.0
N137 N 0.62746 0.9602 0.00603 0.0
C138 C 0.36814 0.10827 0.21219 0.0
C139 C 0.31902 0.10272 0.21029 0.0
C140 C 0.38699 0.15147 0.2174 0.0
C141 C 0.35709 0.19005 0.22062 0.0
C142 C 0.28915 0.14136 0.21353 0.0
C143 C 0.3081 0.18483 0.21849 0.0
C144 C 0.37665 0.23535 0.22667 0.0
C145 C 0.38132 0.14027 0.26774 0.0
C146 C 0.42713 0.13124 0.27319 0.0
C147 C 0.37432 0.17298 0.25618 0.0
C148 C 0.41307 0.19701 0.2499 0.0
C149 C 0.46604 0.15397 0.2665 0.0
C150 C 0.45897 0.18702 0.25502 0.0
C151 C 0.40516 0.23764 0.23993 0.0
C152 C 0.39947 0.44035 0.25851 0.0
C153 C 0.44415 0.44447 0.26544 0.0
C154 C 0.38872 0.40116 0.24916 0.0
C155 C 0.42299 0.36613 0.24618 0.0
C156 C 0.47858 0.40979 0.26239 0.0
C157 C 0.46808 0.37099 0.25282 0.0
C158 C 0.4102 0.32143 0.23803 0.0
C159 C 0.38896 0.4392 0.20585 0.0
C160 C 0.34078 0.44808 0.20321 0.0
C161 C 0.40307 0.39647 0.21228 0.0
C162 C 0.36916 0.36211 0.21612 0.0
C163 C 0.30725 0.41279 0.20649 0.0
C164 C 0.32136 0.37009 0.21281 0.0
C165 C 0.38264 0.31925 0.22451 0.0
H166 H 0.3919 0.07906 0.20972 0.0
H167 H 0.42495 0.15482 0.21888 0.0
H168 H 0.25122 0.13815 0.21196 0.0
H169 H 0.28443 0.21413 0.22093 0.0
H170 H 0.35085 0.12289 0.27269 0.0
H171 H 0.33848 0.18117 0.2527 0.0
H172 H 0.50165 0.14776 0.27062 0.0
H173 H 0.48916 0.20589 0.25048 0.0
H174 H 0.37208 0.4662 0.26094 0.0
H175 H 0.35294 0.39735 0.24484 0.0
H176 H 0.51329 0.41226 0.26764 0.0
H177 H 0.49483 0.34408 0.25091 0.0
H178 H 0.41549 0.46564 0.20327 0.0
H179 H 0.44029 0.39062 0.21455 0.0
H180 H 0.26998 0.41826 0.20418 0.0
H181 H 0.29471 0.34396 0.2156 0.0
N182 N 0.36633 0.27633 0.21941 0.0
N183 N 0.42079 0.28043 0.24508 0.0
C184 C 0.94828 0.05024 0.23996 0.0
C185 C 0.94568 0.04524 0.22396 0.0
C186 C 0.92126 0.08477 0.24755 0.0
C187 C 0.89034 0.11374 0.23924 0.0
C188 C 0.91488 0.07417 0.21569 0.0
C189 C 0.88746 0.10804 0.22325 0.0
C190 C 0.86461 0.15334 0.24668 0.0
C191 C 0.79949 0.02555 0.26776 0.0
C192 C 0.81208 0.01906 0.28315 0.0
C193 C 0.81031 0.06792 0.26052 0.0
C194 C 0.83348 0.10474 0.26859 0.0
C195 C 0.83616 0.05549 0.29113 0.0
C196 C 0.84626 0.09828 0.28395 0.0
C197 C 0.84221 0.15049 0.26108 0.0
C198 C 0.74155 0.33399 0.26945 0.0
C199 C 0.76681 0.35837 0.28109 0.0
C200 C 0.75993 0.29275 0.26268 0.0
C201 C 0.80327 0.2746 0.26769 0.0
C202 C 0.81053 0.33978 0.28594 0.0
C203 C 0.82808 0.29784 0.27949 0.0
C204 C 0.82418 0.23281 0.26011 0.0
C205 C 0.86719 0.35893 0.23131 0.0
C206 C 0.85509 0.35408 0.2157 0.0
C207 C 0.86211 0.32082 0.24119 0.0
C208 C 0.84378 0.27748 0.23572 0.0
C209 C 0.83579 0.31092 0.21037 0.0
C210 C 0.83023 0.2731 0.22028 0.0
C211 C 0.84366 0.23474 0.24527 0.0
H212 H 0.97192 0.02821 0.24652 0.0
H213 H 0.92557 0.08958 0.25981 0.0
H214 H 0.91172 0.07029 0.20334 0.0
H215 H 0.86416 0.1301 0.21657 0.0
H216 H 0.78057 -0.0019 0.26144 0.0
H217 H 0.79946 0.07243 0.24872 0.0
H218 H 0.84552 0.05151 0.30309 0.0
H219 H 0.86388 0.12637 0.29038 0.0
H220 H 0.70737 0.34638 0.26561 0.0
H221 H 0.74037 0.27499 0.25356 0.0
H222 H 0.83176 0.35788 0.29456 0.0
H223 H 0.86193 0.28444 0.28333 0.0
H224 H 0.88179 0.39182 0.23583 0.0
H225 H 0.87454 0.32476 0.25287 0.0
H226 H 0.82685 0.30556 0.19839 0.0
H227 H 0.81656 0.23979 0.21575 0.0
N228 N 0.8636 0.19507 0.23924 0.0
N229 N 0.82356 0.19066 0.26746 0.0
C230 C 0.78748 0.94417 0.729 0.0
C231 C 0.79584 0.9492 0.71323 0.0
C232 C 0.80068 0.90286 0.7364 0.0
C233 C 0.82374 0.86616 0.72831 0.0
C234 C 0.81936 0.91261 0.70517 0.0
C235 C 0.83303 0.87143 0.71264 0.0
C236 C 0.83433 0.82087 0.73584 0.0
C237 C 0.92081 0.93163 0.76145 0.0
C238 C 0.91288 0.93368 0.77733 0.0
C239 C 0.90188 0.89433 0.7526 0.0
C240 C 0.87349 0.85963 0.75948 0.0
C241 C 0.88528 0.89873 0.78421 0.0
C242 C 0.86561 0.86222 0.77538 0.0
C243 C 0.85418 0.81855 0.75071 0.0
C244 C 0.85761 0.61089 0.76494 0.0
C245 C 0.84236 0.61525 0.78026 0.0
C246 C 0.85574 0.64963 0.75523 0.0
C247 C 0.83724 0.69297 0.76055 0.0
C248 C 0.82337 0.6586 0.78544 0.0
C249 C 0.82072 0.69692 0.77567 0.0
C250 C 0.83811 0.73577 0.75109 0.0
C251 C 0.74401 0.63081 0.72738 0.0
C252 C 0.77028 0.60723 0.71586 0.0
C253 C 0.75956 0.6741 0.73355 0.0
C254 C 0.80123 0.69506 0.72815 0.0
C255 C 0.8116 0.62914 0.71029 0.0
C256 C 0.82656 0.67294 0.71625 0.0
C257 C 0.82081 0.7374 0.73597 0.0
H258 H 0.76963 0.97171 0.73556 0.0
H259 H 0.79162 0.89916 0.74839 0.0
H260 H 0.82547 0.91488 0.69295 0.0
H261 H 0.8501 0.8433 0.70611 0.0
H262 H 0.94234 0.95827 0.75599 0.0
H263 H 0.90998 0.89236 0.74047 0.0
H264 H 0.87851 0.89998 0.79644 0.0
H265 H 0.84412 0.83589 0.78102 0.0
H266 H 0.87211 0.57789 0.76055 0.0
H267 H 0.87024 0.64601 0.7438 0.0
H268 H 0.81226 0.66368 0.79723 0.0
H269 H 0.80669 0.73017 0.78006 0.0
H270 H 0.71141 0.61586 0.7317 0.0
H271 H 0.73956 0.69085 0.74274 0.0
H272 H 0.83322 0.61196 0.7016 0.0
H273 H 0.85913 0.68846 0.7121 0.0
N274 N 0.8192 0.77992 0.72888 0.0
N275 N 0.85455 0.77619 0.75775 0.0
C276 C 0.70467 0.51862 0.96585 0.0
C277 C 0.71131 0.4693 0.96536 0.0
C278 C 0.66225 0.53788 0.97136 0.0
C279 C 0.62567 0.50806 0.9763 0.0
C280 C 0.67451 0.43958 0.97022 0.0
C281 C 0.63185 0.45881 0.97549 0.0
C282 C 0.58165 0.5278 0.98293 0.0
C283 C 0.69801 0.55038 0.01743 0.0
C284 C 0.70723 0.59832 0.02093 0.0
C285 C 0.65733 0.53717 0.00932 0.0
C286 C 0.62546 0.57167 0.00429 0.0
C287 C 0.67516 0.63281 0.01591 0.0
C288 C 0.6345 0.61954 0.00773 0.0
C289 C 0.58165 0.55787 -0.00396 0.0
C290 C 0.38365 0.53958 0.01754 0.0
C291 C 0.36938 0.5863 0.02093 0.0
C292 C 0.42524 0.53077 0.00939 0.0
C293 C 0.45365 0.56841 0.00451 0.0
C294 C 0.39813 0.62398 0.01601 0.0
C295 C 0.4402 0.61505 0.00803 0.0
C296 C 0.49736 0.55853 0.99577 0.0
C297 C 0.37319 0.53466 0.96526 0.0
C298 C 0.36776 0.48826 0.9594 0.0
C299 C 0.41558 0.54891 0.97223 0.0
C300 C 0.45298 0.51664 0.97405 0.0
C301 C 0.40617 0.45672 0.96062 0.0
C302 C 0.44811 0.47069 0.96792 0.0
C303 C 0.49729 0.53059 0.98217 0.0
H304 H 0.73247 0.54224 0.96211 0.0
H305 H 0.65805 0.576 0.97183 0.0
H306 H 0.67852 0.40144 0.96973 0.0
H307 H 0.60403 0.43526 0.97927 0.0
H308 H 0.72209 0.52297 0.02107 0.0
H309 H 0.65048 0.49989 0.00719 0.0
H310 H 0.68084 0.66995 0.01865 0.0
H311 H 0.61003 0.64665 0.00412 0.0
H312 H 0.36327 0.50963 0.02147 0.0
H313 H 0.43551 0.49444 0.007 0.0
H314 H 0.38808 0.66042 0.01826 0.0
H315 H 0.46177 0.64451 0.00434 0.0
H316 H 0.34468 0.56008 0.96458 0.0
H317 H 0.41894 0.58527 0.97621 0.0
H318 H 0.40421 0.4212 0.95578 0.0
H319 H 0.47663 0.44532 0.96888 0.0
N320 N 0.53952 0.51547 0.97642 0.0
N321 N 0.53945 0.57188 0.00205 0.0
C322 C 0.9924 0.46763 0.54078 0.0
C323 C 0.97116 0.42332 0.53795 0.0
C324 C 0.02422 0.48621 0.53033 0.0
C325 C 0.03469 0.4613 0.51676 0.0
C326 C 0.98021 0.39923 0.524 0.0
C327 C 0.01203 0.41815 0.51344 0.0
C328 C 0.07478 0.47734 0.50763 0.0
C329 C 0.98647 0.49751 0.46034 0.0
C330 C 0.94417 0.51453 0.46681 0.0
C331 C 0.02673 0.49248 0.46934 0.0
C332 C 0.02578 0.50435 0.48501 0.0
C333 C 0.94292 0.52579 0.48259 0.0
C334 C 0.98354 0.521 0.49162 0.0
C335 C 0.07034 0.50143 0.49374 0.0
C336 C 0.26805 0.5332 0.47201 0.0
C337 C 0.2646 0.58162 0.46866 0.0
C338 C 0.23272 0.51106 0.48048 0.0
C339 C 0.19377 0.53719 0.48583 0.0
C340 C 0.22601 0.60779 0.4743 0.0
C341 C 0.19079 0.58566 0.48276 0.0
C342 C 0.15382 0.51414 0.4935 0.0
C343 C 0.27846 0.49079 0.52606 0.0
C344 C 0.28394 0.44285 0.52973 0.0
C345 C 0.23837 0.50556 0.51801 0.0
C346 C 0.20395 0.4723 0.51339 0.0
C347 C 0.25031 0.40963 0.52458 0.0
C348 C 0.21067 0.42425 0.51652 0.0
C349 C 0.15845 0.48652 0.50669 0.0
H350 H 0.98523 0.48748 0.55126 0.0
H351 H 0.04187 0.51944 0.53305 0.0
H352 H 0.96435 0.36497 0.52157 0.0
H353 H 0.02055 0.39825 0.50308 0.0
H354 H 0.98904 0.48953 0.44817 0.0
H355 H 0.05902 0.47984 0.46397 0.0
H356 H 0.9108 0.53896 0.48791 0.0
H357 H 0.98217 0.53169 0.50358 0.0
H358 H 0.29705 0.51204 0.46756 0.0
H359 H 0.23503 0.47334 0.48241 0.0
H360 H 0.22272 0.6452 0.47198 0.0
H361 H 0.1608 0.60631 0.48676 0.0
H362 H 0.30393 0.51699 0.53004 0.0
H363 H 0.23338 0.54294 0.51597 0.0
H364 H 0.25412 0.37242 0.52716 0.0
H365 H 0.18452 0.39805 0.51303 0.0
N366 N 0.11859 0.47009 0.51343 0.0
N367 N 0.11005 0.51971 0.48735 0.0
C368 C 0.13955 0.64995 0.14158 0.0
C369 C 0.96029 0.60201 0.14158 0.0
C370 C 0.95692 0.67789 0.0986 0.0
Mg371 Mg 0.19109 0.74083 0.12698 0.0
Mg372 Mg 0.13283 0.83639 0.11624 0.0
O373 O 0.13682 0.77066 0.11596 0.0
Mg374 Mg 0.08456 0.73101 0.12364 0.0
O375 O 0.03513 0.6875 0.13128 0.0
Mg376 Mg 0.05042 0.63147 0.11793 0.0
Mg377 Mg 0.97179 0.70666 0.13216 0.0
C378 C 0.03201 0.81297 0.10296 0.0
O379 O 0.06163 0.78364 0.14245 0.0
O380 O 0.23928 0.78674 0.11143 0.0
O381 O 0.98289 0.77233 0.14493 0.0
O382 O 0.1932 0.80097 0.14621 0.0
O383 O 0.19541 0.84761 0.10311 0.0
O384 O 0.14494 0.85916 0.13908 0.0
O385 O 0.10524 0.67713 0.10501 0.0
O386 O 0.18392 0.68417 0.1082 0.0
C387 C 0.14781 0.66461 0.10175 0.0
C388 C 0.23382 0.82357 0.10313 0.0
O389 O 0.03474 0.76997 0.10738 0.0
O390 O 0.99549 0.591 0.13286 0.0
O391 O 0.06347 0.84442 0.10615 0.0
O392 O 0.99113 0.6486 0.10019 0.0
O393 O 0.94559 0.64469 0.14321 0.0
O394 O 0.9455 0.70713 0.10926 0.0
O395 O 0.13636 0.69479 0.13959 0.0
O396 O 0.11 0.62083 0.1353 0.0
C397 C 0.17326 0.84123 0.14874 0.0
C398 C 0.02135 0.79458 0.14829 0.0
C399 C 0.65118 0.79653 0.39436 0.0
C400 C 0.70209 0.62009 0.3908 0.0
C401 C 0.64146 0.62396 0.34536 0.0
Mg402 Mg 0.56141 0.84858 0.37898 0.0
Mg403 Mg 0.47079 0.78975 0.36376 0.0
O404 O 0.53654 0.7976 0.36485 0.0
Mg405 Mg 0.5762 0.74478 0.37196 0.0
O406 O 0.61881 0.69469 0.37933 0.0
Mg407 Mg 0.6781 0.71457 0.36879 0.0
Mg408 Mg 0.60113 0.63101 0.37768 0.0
C409 C 0.50181 0.69603 0.34653 0.0
O410 O 0.5193 0.71498 0.3879 0.0
O411 O 0.516 0.8994 0.36436 0.0
O412 O 0.53167 0.63613 0.38799 0.0
O413 O 0.49819 0.84185 0.39626 0.0
O414 O 0.45722 0.8565 0.35351 0.0
O415 O 0.44374 0.79248 0.38647 0.0
O416 O 0.635 0.77246 0.3563 0.0
O417 O 0.62257 0.84938 0.36199 0.0
C418 C 0.64637 0.81648 0.35517 0.0
C419 C 0.47967 0.8956 0.35551 0.0
O420 O 0.54331 0.69893 0.35252 0.0
O421 O 0.71485 0.65715 0.38346 0.0
O422 O 0.46816 0.72458 0.35016 0.0
O423 O 0.6688 0.65874 0.34896 0.0
O424 O 0.65963 0.60407 0.39042 0.0
O425 O 0.60895 0.61004 0.35436 0.0
O426 O 0.60693 0.79263 0.39103 0.0
O427 O 0.68222 0.76934 0.38808 0.0
C428 C 0.4589 0.8192 0.39734 0.0
C429 C 0.50763 0.67297 0.39181 0.0
C430 C 0.6112 0.14839 0.64206 0.0
C431 C 0.43501 0.10478 0.63085 0.0
C432 C 0.45509 0.18723 0.5898 0.0
Mg433 Mg 0.6718 0.23934 0.63266 0.0
Mg434 Mg 0.62333 0.33997 0.6218 0.0
O435 O 0.62523 0.27436 0.61967 0.0
Mg436 Mg 0.56828 0.23487 0.62307 0.0
O437 O 0.51483 0.19077 0.62648 0.0
Mg438 Mg 0.53654 0.13648 0.61327 0.0
Mg439 Mg 0.45247 0.21053 0.62392 0.0
C440 C 0.53119 0.32397 0.60196 0.0
O441 O 0.53477 0.28443 0.64145 0.0
O442 O 0.72893 0.28611 0.62147 0.0
O443 O 0.45613 0.27347 0.63819 0.0
O444 O 0.66651 0.29486 0.65303 0.0
O445 O 0.69327 0.35222 0.61323 0.0
O446 O 0.62219 0.35573 0.64558 0.0
O447 O 0.59777 0.1841 0.60466 0.0
O448 O 0.67356 0.18743 0.61236 0.0
C449 C 0.64115 0.171 0.60342 0.0
C450 C 0.72989 0.32586 0.61453 0.0
O451 O 0.5297 0.27977 0.6052 0.0
O452 O 0.47429 0.09437 0.62413 0.0
O453 O 0.56135 0.35297 0.6079 0.0
O454 O 0.4873 0.1568 0.59279 0.0
O455 O 0.42 0.14742 0.63218 0.0
O456 O 0.43945 0.21572 0.60007 0.0
O457 O 0.6095 0.19357 0.64085 0.0
O458 O 0.58568 0.12099 0.63351 0.0
C459 C 0.64604 0.33466 0.6558 0.0
C460 C 0.49143 0.29475 0.64454 0.0
C461 C 0.15293 0.32446 0.88807 0.0
C462 C 0.2284 0.15504 0.8851 0.0
C463 C 0.1392 0.13744 0.8452 0.0
Mg464 Mg 0.04785 0.35785 0.87685 0.0
Mg465 Mg 0.96101 0.28122 0.87007 0.0
O466 O 0.024 0.29862 0.86668 0.0
Mg467 Mg 0.07535 0.25545 0.87274 0.0
O468 O 0.12936 0.21494 0.87856 0.0
Mg469 Mg 0.17681 0.23846 0.8634 0.0
Mg470 Mg 0.12024 0.14949 0.8794 0.0
C471 C 0.99715 0.18813 0.85393 0.0
O472 O 0.03435 0.22437 0.89284 0.0
O473 O 0.9863 0.39489 0.86405 0.0
O474 O 0.05873 0.1486 0.89424 0.0
O475 O -0.0021 0.34995 0.89813 0.0
O476 O 0.93047 0.34001 0.85861 0.0
O477 O 0.94779 0.28979 0.89391 0.0
O478 O 0.11815 0.28432 0.85296 0.0
O479 O 0.09589 0.36028 0.85575 0.0
C480 C 0.12034 0.32782 0.849 0.0
C481 C 0.94667 0.38231 0.85791 0.0
O482 O 0.04013 0.19918 0.85719 0.0
O483 O 0.23097 0.19159 0.87651 0.0
O484 O 0.96156 0.21206 0.85886 0.0
O485 O 0.16335 0.17593 0.84592 0.0
O486 O 0.18922 0.13386 0.88783 0.0
O487 O 0.11555 0.12275 0.85661 0.0
O488 O 0.10853 0.31393 0.88773 0.0
O489 O 0.18361 0.2997 0.88059 0.0
C490 C 0.96414 0.32288 0.90254 0.0
C491 C 0.032 0.18295 0.8986 0.0
C492 C 0.26244 0.8932 0.4607 0.0
C493 C 0.2403 0.93239 0.45409 0.0
C494 C 0.30174 0.87143 0.45367 0.0
C495 C 0.31886 0.88896 0.4396 0.0
C496 C 0.29712 0.92898 0.43303 0.0
C497 C 0.25827 0.95025 0.44037 0.0
C498 C 0.3242 0.82913 0.4611 0.0
C499 C 0.31381 0.94836 0.41792 0.0
C500 C 0.43886 0.86228 0.42195 0.0
C501 C 0.4264 0.82952 0.41035 0.0
C502 C 0.40484 0.87941 0.43241 0.0
C503 C 0.35725 0.86395 0.43105 0.0
C504 C 0.3453 0.82836 0.42011 0.0
C505 C 0.38011 0.81115 0.41004 0.0
C506 C 0.41918 0.91635 0.44424 0.0
C507 C 0.29503 0.81066 0.41834 0.0
H508 H 0.24902 0.87957 0.4714 0.0
H509 H 0.24099 0.9801 0.4351 0.0
H510 H 0.31506 0.79653 0.45445 0.0
H511 H 0.36336 0.83241 0.4611 0.0
H512 H 0.31191 0.82472 0.47309 0.0
H513 H 0.29408 0.98061 0.41461 0.0
H514 H 0.35206 0.95718 0.41855 0.0
H515 H 0.30926 0.92105 0.40873 0.0
H516 H 0.47463 0.87624 0.42244 0.0
H517 H 0.37017 0.78513 0.40133 0.0
H518 H 0.40385 0.90799 0.45559 0.0
H519 H 0.40521 0.95136 0.44088 0.0
H520 H 0.45827 0.91918 0.44539 0.0
H521 H 0.28293 0.79475 0.42919 0.0
H522 H 0.29136 0.78378 0.40896 0.0
H523 H 0.27103 0.84064 0.41586 0.0
C524 C 0.37283 0.92297 0.69356 0.0
C525 C 0.33013 0.8977 0.69234 0.0
C526 C 0.38594 0.95579 0.68249 0.0
C527 C 0.35616 0.96282 0.66968 0.0
C528 C 0.31318 0.93735 0.66827 0.0
C529 C 0.30039 0.90546 0.67971 0.0
C530 C 0.43183 0.98285 0.68449 0.0
C531 C 0.28089 0.94359 0.65464 0.0
C532 C 0.37558 0.07971 0.65023 0.0
C533 C 0.40891 0.06723 0.63893 0.0
C534 C 0.35629 0.04559 0.65987 0.0
C535 C 0.37 -0.00227 0.65799 0.0
C536 C 0.40087 0.98433 0.6459 0.0
C537 C 0.42034 0.01937 0.63658 0.0
C538 C 0.3239 0.06135 0.67275 0.0
C539 C 0.41534 0.93338 0.64334 0.0
H540 H 0.3966 0.91653 0.70306 0.0
H541 H 0.26704 0.8866 0.67876 0.0
H542 H 0.45591 0.97479 0.67475 0.0
H543 H 0.42486 0.02151 0.68447 0.0
H544 H 0.4503 0.97413 0.69533 0.0
H545 H 0.24944 0.91995 0.65502 0.0
H546 H 0.26858 0.98081 0.6542 0.0
H547 H 0.30056 0.93612 0.64386 0.0
H548 H 0.36643 0.11659 0.65214 0.0
H549 H 0.44565 0.00939 0.62777 0.0
H550 H 0.34235 0.05721 0.68389 0.0
H551 H 0.29163 0.03894 0.67301 0.0
H552 H 0.31304 0.09895 0.67172 0.0
H553 H 0.4391 0.92237 0.65276 0.0
H554 H 0.43423 0.92798 0.63228 0.0
H555 H 0.38385 0.90982 0.64349 0.0
C556 C 0.41603 0.1099 0.94935 0.0
C557 C 0.44963 0.07484 0.94605 0.0
C558 C 0.38364 0.1241 0.93818 0.0
C559 C 0.38542 0.103 0.92334 0.0
C560 C 0.42048 0.06887 0.91978 0.0
C561 C 0.45204 0.05493 0.93124 0.0
C562 C 0.34635 0.16025 0.94243 0.0
C563 C 0.42379 0.04616 0.90401 0.0
C564 C 0.26825 0.09867 0.90255 0.0
C565 C 0.27114 0.13865 0.89325 0.0
C566 C 0.30589 0.08588 0.91201 0.0
C567 C 0.34774 0.11342 0.91208 0.0
C568 C 0.35206 0.15227 0.90214 0.0
C569 C 0.31355 0.16458 0.89284 0.0
C570 C 0.29995 0.04416 0.92248 0.0
C571 C 0.39657 0.18194 0.90178 0.0
H572 H 0.4142 0.12518 0.96083 0.0
H573 H 0.47866 0.02838 0.92863 0.0
H574 H 0.34664 0.18966 0.93416 0.0
H575 H 0.31077 0.14353 0.94183 0.0
H576 H 0.3516 0.17526 0.95417 0.0
H577 H 0.45587 0.02377 0.9027 0.0
H578 H 0.39213 0.0237 0.90184 0.0
H579 H 0.42434 0.07372 0.8951 0.0
H580 H 0.23585 0.07805 0.90286 0.0
H581 H 0.3162 0.19539 0.88565 0.0
H582 H 0.30103 0.05659 0.93462 0.0
H583 H 0.32948 0.01878 0.92082 0.0
H584 H 0.26601 0.02506 0.92048 0.0
H585 H 0.40024 0.20205 0.91276 0.0
H586 H 0.39629 0.20752 0.89225 0.0
H587 H 0.4282 0.15896 0.90058 0.0
C588 C 0.26129 0.03519 0.21161 0.0
C589 C 0.2991 0.05753 0.2042 0.0
C590 C 0.24019 0.99414 0.20527 0.0
C591 C 0.25642 0.97602 0.19097 0.0
C592 C 0.29556 -0.00225 0.18371 0.0
C593 C 0.31673 0.0379 0.19051 0.0
C594 C 0.19939 0.97146 0.21359 0.0
C595 C 0.31321 0.98047 0.16826 0.0
C596 C 0.22326 0.85783 0.17224 0.0
C597 C 0.18819 0.872 0.16188 0.0
C598 C 0.24347 0.89059 0.18272 0.0
C599 C 0.22914 0.93866 0.18252 0.0
C600 C 0.19166 0.95229 0.1728 0.0
C601 C 0.17116 0.91871 0.16285 0.0
C602 C 0.28181 0.87433 0.19346 0.0
C603 C 0.17504 0.00308 0.1722 0.0
H604 H 0.24795 0.0501 0.2223 0.0
H605 H 0.34574 0.05535 0.18473 0.0
H606 H 0.1655 0.98352 0.20857 0.0
H607 H 0.20059 0.93228 0.21242 0.0
H608 H 0.19939 0.98137 0.22598 0.0
H609 H 0.34544 -0.00027 0.16454 0.0
H610 H 0.32137 0.94212 0.16858 0.0
H611 H 0.28512 0.9853 0.15952 0.0
H612 H 0.23623 0.82174 0.17176 0.0
H613 H 0.14334 0.93004 0.15518 0.0
H614 H 0.27597 0.88918 0.20517 0.0
H615 H 0.31665 0.8874 0.18945 0.0
H616 H 0.28334 0.83509 0.19405 0.0
H617 H 0.16084 0.01434 0.18353 0.0
H618 H 0.14703 0.00824 0.16344 0.0
H619 H 0.2052 0.0268 0.16952 0.0
C620 C 0.26243 0.08946 0.53713 0.0
C621 C 0.25156 0.1098 0.52303 0.0
C622 C 0.30104 0.10545 0.54587 0.0
C623 C 0.32991 0.14249 0.54032 0.0
C624 C 0.32018 0.16215 0.52584 0.0
C625 C 0.28075 0.14584 0.5174 0.0
C626 C 0.30967 0.08399 0.56139 0.0
C627 C 0.35059 0.20111 0.51943 0.0
C628 C 0.38692 0.2094 0.57324 0.0
C629 C 0.42939 0.18426 0.57498 0.0
C630 C 0.35567 0.19873 0.5612 0.0
C631 C 0.36753 0.16262 0.55045 0.0
C632 C 0.41253 0.14075 0.55116 0.0
C633 C 0.4429 0.15158 0.56351 0.0
C634 C 0.30826 0.22336 0.56074 0.0
C635 C 0.42701 0.10314 0.53961 0.0
H636 H 0.2396 0.06207 0.54162 0.0
H637 H 0.27263 0.16136 0.50643 0.0
H638 H 0.34641 0.07041 0.56209 0.0
H639 H 0.30554 0.11157 0.57051 0.0
H640 H 0.28485 0.05446 0.56379 0.0
H641 H 0.34372 0.20641 0.50703 0.0
H642 H 0.3431 0.23484 0.52565 0.0
H643 H 0.38872 0.19318 0.52104 0.0
H644 H 0.37645 0.2354 0.58186 0.0
H645 H 0.47595 0.1325 0.56461 0.0
H646 H 0.3046 0.25082 0.56992 0.0
H647 H 0.27934 0.19708 0.56207 0.0
H648 H 0.30329 0.24037 0.54949 0.0
H649 H 0.40827 0.06959 0.54212 0.0
H650 H 0.46573 0.09635 0.53994 0.0
H651 H 0.41697 0.11352 0.52783 0.0
C652 C 0.24508 0.95034 0.78919 0.0
C653 C 0.21402 0.92552 0.77937 0.0
C654 C 0.22974 0.98949 0.79788 0.0
C655 C 0.18251 0.00538 0.79635 0.0
C656 C 0.15201 0.98301 0.78554 0.0
C657 C 0.16793 0.94291 0.77731 0.0
C658 C 0.26327 0.01181 0.80944 0.0
C659 C 0.10191 -1e-05 0.7832 0.0
C660 C 0.13308 0.05727 0.83312 0.0
C661 C 0.14344 0.10559 0.83162 0.0
C662 C 0.14386 0.02457 0.82142 0.0
C663 C 0.16387 0.04072 0.8076 0.0
C664 C 0.171 0.08986 0.8055 0.0
C665 C 0.16167 0.12173 0.81769 0.0
C666 C 0.13683 0.9724 0.82433 0.0
C667 C 0.19014 0.10858 0.79064 0.0
H668 H 0.28124 0.93827 0.79046 0.0
H669 H 0.14357 0.92416 0.76975 0.0
H670 H 0.26589 0.0505 0.80768 0.0
H671 H 0.24944 0.00655 0.8212 0.0
H672 H 0.29941 0.99647 0.80875 0.0
H673 H 0.08523 0.98342 0.77289 0.0
H674 H 0.08007 0.9912 0.79333 0.0
H675 H 0.10135 0.03904 0.782 0.0
H676 H 0.11901 0.04436 0.84383 0.0
H677 H 0.16918 0.1591 0.81638 0.0
H678 H 0.17176 0.95449 0.82459 0.0
H679 H 0.1159 0.95561 0.81495 0.0
H680 H 0.11845 0.96594 0.83536 0.0
H681 H 0.22875 0.10179 0.78997 0.0
H682 H 0.18433 0.14732 0.78969 0.0
H683 H 0.17324 0.09027 0.78068 0.0
C684 C 0.40664 0.86238 0.03205 0.0
C685 C 0.43625 0.90139 0.03487 0.0
C686 C 0.3755 0.84656 0.04341 0.0
C687 C 0.37491 0.86995 0.05791 0.0
C688 C 0.40611 0.90822 0.06095 0.0
C689 C 0.43617 0.9237 0.04933 0.0
C690 C 0.34227 0.80594 0.03975 0.0
C691 C 0.40702 0.93348 0.07636 0.0
C692 C 0.26226 0.87129 0.0812 0.0
C693 C 0.27127 0.83648 0.09211 0.0
C694 C 0.29542 0.88175 0.06985 0.0
C695 C 0.33903 0.8573 0.06952 0.0
C696 C 0.34877 0.82248 0.08056 0.0
C697 C 0.31459 0.81226 0.0917 0.0
C698 C 0.28366 0.91888 0.05818 0.0
C699 C 0.39523 0.79616 0.08059 0.0
H700 H 0.40709 0.84506 0.02085 0.0
H701 H 0.45995 0.95323 0.05157 0.0
H702 H 0.3459 0.77793 0.04843 0.0
H703 H 0.30511 0.81858 0.04023 0.0
H704 H 0.3489 0.79005 0.02821 0.0
H705 H 0.43605 0.96001 0.07723 0.0
H706 H 0.37286 0.95192 0.07833 0.0
H707 H 0.41138 0.90757 0.08568 0.0
H708 H 0.22879 0.88999 0.0813 0.0
H709 H 0.32176 0.78517 0.10004 0.0
H710 H 0.28669 0.90359 0.04641 0.0
H711 H 0.30929 0.94862 0.0591 0.0
H712 H 0.24737 0.93331 0.05969 0.0
H713 H 0.39983 0.7765 0.06958 0.0
H714 H 0.39755 0.77063 0.09012 0.0
H715 H 0.42506 0.82165 0.08165 0.0
C716 C 0.46802 0.0642 0.2858 0.0
C717 C 0.43403 0.10013 0.2864 0.0
C718 C 0.47436 0.03409 0.29822 0.0
C719 C 0.44633 0.04065 0.31154 0.0
C720 C 0.41279 0.07768 0.31234 0.0
C721 C 0.40683 0.10689 0.29968 0.0
C722 C 0.51019 0.99458 0.29693 0.0
C723 C 0.38287 0.08603 0.32647 0.0
C724 C 0.43026 0.93072 0.33495 0.0
C725 C 0.46629 0.93613 0.34594 0.0
C726 C 0.42218 0.96547 0.32403 0.0
C727 C 0.4504 0.00687 0.32424 0.0
C728 C 0.48467 0.01409 0.33589 0.0
C729 C 0.49236 0.97847 0.34661 0.0
C730 C 0.38528 0.95658 0.31175 0.0
C731 C 0.51481 0.05831 0.33657 0.0
H732 H 0.48892 0.05905 0.27548 0.0
H733 H 0.3811 0.13531 0.3002 0.0
H734 H 0.53593 0.99719 0.30653 0.0
H735 H 0.492 0.95986 0.2978 0.0
H736 H 0.53002 0.9952 0.28594 0.0
H737 H 0.36049 0.11817 0.32558 0.0
H738 H 0.35945 0.05505 0.32831 0.0
H739 H 0.40581 0.08986 0.33675 0.0
H740 H 0.40963 0.89832 0.33439 0.0
H741 H 0.52002 0.98314 0.35513 0.0
H742 H 0.40289 0.95267 0.30042 0.0
H743 H 0.3608 0.98712 0.31106 0.0
H744 H 0.36414 0.9241 0.31384 0.0
H745 H 0.53568 0.06106 0.34736 0.0
H746 H 0.4924 0.09033 0.33561 0.0
H747 H 0.53976 0.05812 0.32675 0.0
C748 C 0.78661 0.06696 0.53162 0.0
C749 C 0.82662 0.09666 0.53219 0.0
C750 C 0.74822 0.07426 0.5416 0.0
C751 C 0.74953 0.11258 0.55224 0.0
C752 C 0.78849 0.14431 0.55226 0.0
C753 C 0.82669 0.13572 0.54234 0.0
C754 C 0.70736 0.0397 0.54124 0.0
C755 C 0.791 0.18614 0.56328 0.0
C756 C 0.64536 0.15975 0.57517 0.0
C757 C 0.65743 0.14427 0.58983 0.0
C758 C 0.67305 0.1468 0.56238 0.0
C759 C 0.71297 0.11725 0.56443 0.0
C760 C 0.72179 0.09741 0.57895 0.0
C761 C 0.69413 0.11156 0.59152 0.0
C762 C 0.66245 0.16874 0.54711 0.0
C763 C 0.76326 0.06485 0.58156 0.0
H764 H 0.78563 0.03734 0.52356 0.0
H765 H 0.85744 0.15867 0.54301 0.0
H766 H 0.70795 0.01829 0.55179 0.0
H767 H 0.67311 0.05881 0.54107 0.0
H768 H 0.70895 0.01524 0.53114 0.0
H769 H 0.82066 0.21046 0.56056 0.0
H770 H 0.75746 0.20649 0.56308 0.0
H771 H 0.79601 0.17336 0.57514 0.0
H772 H 0.6173 0.18555 0.57391 0.0
H773 H 0.70336 0.0997 0.6029 0.0
H774 H 0.66743 0.14274 0.53757 0.0
H775 H 0.68739 0.19852 0.54524 0.0
H776 H 0.62577 0.18276 0.54664 0.0
H777 H 0.76525 0.03731 0.57237 0.0
H778 H 0.76104 0.04715 0.59282 0.0
H779 H 0.79664 0.08563 0.58126 0.0
C780 C 0.82761 0.94902 0.2997 0.0
C781 C 0.79583 0.97657 0.29134 0.0
C782 C 0.81119 0.91222 0.30897 0.0
C783 C 0.76185 0.90422 0.31031 0.0
C784 C 0.72995 0.93035 0.3012 0.0
C785 C 0.74744 0.96585 0.29169 0.0
C786 C 0.84644 0.88392 0.31802 0.0
C787 C 0.677 0.92368 0.30243 0.0
C788 C 0.69784 0.80719 0.33178 0.0
C789 C 0.68567 0.83198 0.34526 0.0
C790 C 0.72662 0.8286 0.32065 0.0
C791 C 0.7427 0.87577 0.32311 0.0
C792 C 0.73409 0.89885 0.33736 0.0
C793 C 0.70618 0.87644 0.34828 0.0
C794 C 0.73679 0.80208 0.30587 0.0
C795 C 0.75039 0.9491 0.34056 0.0
H796 H 0.86515 0.957 0.29925 0.0
H797 H 0.7229 0.9873 0.28525 0.0
H798 H 0.84797 0.89785 0.32998 0.0
H799 H 0.83568 0.84614 0.31845 0.0
H800 H 0.88256 0.88619 0.31304 0.0
H801 H 0.65736 0.94401 0.29369 0.0
H802 H 0.66756 0.88571 0.30109 0.0
H803 H 0.66494 0.93564 0.31398 0.0
H804 H 0.68244 0.7726 0.32945 0.0
H805 H 0.69782 0.89525 0.35888 0.0
H806 H 0.77311 0.80977 0.30173 0.0
H807 H 0.71152 0.8135 0.29693 0.0
H808 H 0.73279 0.76323 0.30723 0.0
H809 H 0.78882 0.95269 0.33829 0.0
H810 H 0.74347 0.96066 0.35259 0.0
H811 H 0.7316 0.97354 0.3328 0.0
C812 C 0.80484 0.87779 0.05309 0.0
C813 C 0.819 0.90527 0.0407 0.0
C814 C 0.83819 0.86088 0.06352 0.0
C815 C 0.8867 0.87117 0.06127 0.0
C816 C 0.90123 0.89788 0.0485 0.0
C817 C 0.86698 0.91519 0.03844 0.0
C818 C 0.82129 0.83376 0.07725 0.0
C819 C 0.95284 0.90846 0.04556 0.0
C820 C 0.97169 0.87103 0.09479 0.0
C821 C 0.99249 0.82636 0.09306 0.0
C822 C 0.93605 0.88554 0.08476 0.0
C823 C 0.92226 0.85511 0.07248 0.0
C824 C 0.94306 0.80981 0.07075 0.0
C825 C 0.97757 0.79563 0.08124 0.0
C826 C 0.91365 0.9336 0.08717 0.0
C827 C 0.92961 0.77692 0.05762 0.0
H828 H 0.76749 0.8707 0.05484 0.0
H829 H 0.87761 0.93628 0.02875 0.0
H830 H 0.84385 0.80236 0.0792 0.0
H831 H 0.82395 0.85685 0.08764 0.0
H832 H 0.78393 0.82196 0.07597 0.0
H833 H 0.95831 0.92744 0.03465 0.0
H834 H 0.96744 0.93051 0.0551 0.0
H835 H 0.97342 0.87503 0.04512 0.0
H836 H 0.9833 0.89456 0.10401 0.0
H837 H 0.99428 0.7613 0.07984 0.0
H838 H 0.87459 0.92994 0.0879 0.0
H839 H 0.92145 0.95637 0.07724 0.0
H840 H 0.92662 0.9518 0.09776 0.0
H841 H 0.89123 0.76889 0.05814 0.0
H842 H 0.94962 0.74313 0.05777 0.0
H843 H 0.93626 0.79442 0.04654 0.0
C844 C 0.96162 0.96181 0.79939 0.0
C845 C 0.93245 0.97235 0.78693 0.0
C846 C 0.97547 0.9973 0.80988 0.0
C847 C 0.95875 0.04402 0.80798 0.0
C848 C 0.93071 0.05513 0.79506 0.0
C849 C 0.91814 0.01904 0.78458 0.0
C850 C 0.00624 0.98438 0.82333 0.0
C851 C 0.91244 0.10466 0.79266 0.0
C852 C 0.94763 0.12157 0.84371 0.0
C853 C 0.98851 0.14944 0.84276 0.0
C854 C 0.93766 0.0868 0.83248 0.0
C855 C 0.96886 0.08072 0.8199 0.0
C856 C 0.00978 0.10934 0.81878 0.0
C857 C 0.01952 0.14293 0.83037 0.0
C858 C 0.89358 0.0569 0.83401 0.0
C859 C 0.04321 0.10451 0.80537 0.0
H860 H 0.97269 0.92552 0.80109 0.0
H861 H 0.89529 0.02683 0.77495 0.0
H862 H 0.0357 0.01012 0.82473 0.0
H863 H 0.98493 0.9859 0.834 0.0
H864 H 0.02133 0.94824 0.82202 0.0
H865 H 0.89358 0.108 0.78155 0.0
H866 H 0.8877 0.1145 0.80206 0.0
H867 H 0.94208 0.1305 0.79304 0.0
H868 H 0.92353 0.12692 0.85325 0.0
H869 H 0.05058 0.16532 0.82944 0.0
H870 H 0.9033 0.01891 0.83445 0.0
H871 H 0.87055 0.06137 0.82382 0.0
H872 H 0.87293 0.06626 0.84446 0.0
H873 H 0.06274 0.07075 0.80629 0.0
H874 H 0.06906 0.13413 0.80497 0.0
H875 H 0.02352 0.10317 0.79436 0.0
C876 C 0.79049 0.91399 0.46117 0.0
C877 C 0.80902 0.95882 0.45788 0.0
C878 C 0.75352 0.89433 0.45239 0.0
C879 C 0.73417 0.92043 0.44018 0.0
C880 C 0.74842 0.96796 0.43814 0.0
C881 C 0.78614 0.98647 0.44688 0.0
C882 C 0.73899 0.84369 0.4551 0.0
C883 C 0.72728 -0.00238 0.42566 0.0
C884 C 0.71745 0.84502 0.40456 0.0
C885 C 0.66909 0.83373 0.40504 0.0
C886 C 0.73827 0.87456 0.41562 0.0
C887 C 0.70992 0.89442 0.42744 0.0
C888 C 0.66035 0.88611 0.42743 0.0
C889 C 0.64039 0.85545 0.41622 0.0
C890 C 0.79127 0.88247 0.41504 0.0
C891 C 0.62868 0.9077 0.43956 0.0
H892 H 0.80666 0.89308 0.47006 0.0
H893 H 0.79969 0.02135 0.44429 0.0
H894 H 0.69993 0.83994 0.45464 0.0
H895 H 0.75408 0.82057 0.44592 0.0
H896 H 0.75174 0.83088 0.46635 0.0
H897 H 0.73325 0.03603 0.42788 0.0
H898 H 0.74401 0.98802 0.41452 0.0
H899 H 0.68867 0.99096 0.42455 0.0
H900 H 0.73977 0.82944 0.39572 0.0
H901 H 0.6029 0.84721 0.41656 0.0
H902 H 0.80805 0.86866 0.42556 0.0
H903 H 0.79929 0.92086 0.41457 0.0
H904 H 0.80795 0.86472 0.40494 0.0
H905 H 0.62958 0.88544 0.44992 0.0
H906 H 0.59137 0.90954 0.43557 0.0
H907 H 0.64075 0.94381 0.44295 0.0
C908 C 0.96865 0.9612 0.21958 0.0
C909 C 0.97326 0.00882 0.21567 0.0
C910 C 0.98539 0.92537 0.2097 0.0
C911 C 0.00726 0.93792 0.19574 0.0
C912 C 0.01649 0.98602 0.1926 0.0
C913 C -0.001 0.02105 0.2026 0.0
C914 C 0.9754 0.87437 0.2135 0.0
C915 C 0.04044 0.00081 0.17797 0.0
C916 C 0.05787 0.84198 0.16964 0.0
C917 C 0.01925 0.83294 0.15988 0.0
C918 C 0.05468 0.87608 0.18149 0.0
C919 C 0.01224 0.90197 0.18332 0.0
C920 C 0.97362 0.89365 0.17325 0.0
C921 C 0.97751 0.85893 0.16172 0.0
C922 C 0.09613 0.88382 0.1922 0.0
C923 C 0.92791 0.92108 0.17476 0.0
H924 H 0.94878 0.95191 0.22973 0.0
H925 H 0.00312 0.05807 0.19975 0.0
H926 H 0.94508 0.86136 0.20649 0.0
H927 H 0.00629 0.85164 0.21071 0.0
H928 H 0.96632 0.8702 0.2258 0.0
H929 H 0.05557 0.03706 0.17906 0.0
H930 H 0.06906 0.97586 0.17467 0.0
H931 H 0.01401 0.00064 0.16855 0.0
H932 H 0.08994 0.82132 0.16836 0.0
H933 H 0.94778 0.85207 0.15411 0.0
H934 H 0.0851 0.8776 0.2042 0.0
H935 H 0.10834 0.92112 0.19168 0.0
H936 H 0.12631 0.86006 0.18943 0.0
H937 H 0.91202 0.91524 0.1862 0.0
H938 H 0.90158 0.91062 0.16585 0.0
H939 H 0.93504 0.95958 0.17382 0.0
C940 C 0.87855 0.10869 0.9706 0.0
C941 C 0.83044 0.11631 0.96772 0.0
C942 C 0.91308 0.12538 0.96049 0.0
C943 C 0.89875 0.14901 0.94708 0.0
C944 C 0.85032 0.15893 0.94458 0.0
C945 C 0.8167 0.14268 0.95502 0.0
C946 C 0.96458 0.11537 0.96371 0.0
C947 C 0.83358 0.18325 0.93029 0.0
C948 C 0.98786 0.21058 0.92176 0.0
C949 C -0.00226 0.17472 0.91092 0.0
C950 C 0.95627 0.20258 0.93384 0.0
C951 C 0.93348 0.15808 0.93478 0.0
C952 C 0.94296 0.12201 0.92373 0.0
C953 C 0.97555 0.13061 0.91203 0.0
C954 C 0.94766 0.24135 0.94565 0.0
C955 C 0.91834 0.07449 0.92416 0.0
H956 H 0.88899 0.08852 0.98051 0.0
H957 H 0.77937 0.14806 0.95273 0.0
H958 H 0.97749 0.0875 0.95564 0.0
H959 H 0.98638 0.14753 0.9619 0.0
H960 H 0.97024 0.10309 0.97561 0.0
H961 H 0.79626 0.19527 0.9313 0.0
H962 H 0.85623 0.2142 0.92773 0.0
H963 H 0.83614 0.1582 0.92038 0.0
H964 H 0.0057 0.24449 0.921 0.0
H965 H 0.9831 0.10306 0.90357 0.0
H966 H 0.95714 0.22862 0.95722 0.0
H967 H 0.90955 0.25073 0.94595 0.0
H968 H 0.96853 0.27382 0.94332 0.0
H969 H 0.92663 0.05663 0.93506 0.0
H970 H 0.92894 0.05077 0.91447 0.0
H971 H 0.8794 0.07946 0.92373 0.0
C972 C 0.72985 0.00566 0.70817 0.0
C973 C 0.77594 0.99005 0.7049 0.0
C974 C 0.70751 0.03907 0.69896 0.0
C975 C 0.73166 0.05701 0.68609 0.0
C976 C 0.77937 0.04413 0.68338 0.0
C977 C 0.80099 0.01073 0.69284 0.0
C978 C 0.65661 0.05197 0.70227 0.0
C979 C 0.8064 0.06281 0.66984 0.0
C980 C 0.65145 0.07722 0.65221 0.0
C981 C 0.6447 0.12641 0.65286 0.0
C982 C 0.68094 0.0547 0.66267 0.0
C983 C 0.70437 0.08194 0.67414 0.0
C984 C 0.69904 0.1318 0.67462 0.0
C985 C 0.66919 0.15356 0.66393 0.0
C986 C 0.68584 0.00141 0.66169 0.0
C987 C 0.72363 0.16191 0.68669 0.0
H988 H 0.70998 0.98964 0.71736 0.0
H989 H 0.83695 -0.00045 0.69044 0.0
H990 H 0.65126 0.09072 0.70138 0.0
H991 H 0.63325 0.03438 0.69365 0.0
H992 H 0.64533 0.04075 0.71386 0.0
H993 H 0.84502 0.05608 0.67083 0.0
H994 H 0.79335 0.04517 0.65918 0.0
H995 H 0.80062 0.10141 0.66865 0.0
H996 H 0.63318 0.05592 0.6436 0.0
H997 H 0.6643 0.19161 0.66446 0.0
H998 H 0.67135 0.98539 0.67223 0.0
H999 H 0.72373 0.99144 0.66091 0.0
H1000 H 0.66694 0.98576 0.65163 0.0
H1001 H 0.70822 0.15456 0.6981 0.0
H1002 H 0.72004 0.20037 0.68448 0.0
H1003 H 0.76181 0.15293 0.68723 0.0
C1004 C 0.77186 0.46213 0.94468 0.0
C1005 C 0.75561 0.44864 0.95912 0.0
C1006 C 0.8111 0.43991 0.93789 0.0
C1007 C 0.83533 0.40397 0.94588 0.0
C1008 C 0.82052 0.39191 0.96082 0.0
C1009 C 0.78034 0.41396 0.96719 0.0
C1010 C 0.82495 0.45308 0.92178 0.0
C1011 C 0.84606 0.35474 0.96989 0.0
C1012 C 0.89189 0.31545 0.9187 0.0
C1013 C 0.93678 0.33578 0.91651 0.0
C1014 C 0.8594 0.33557 0.92901 0.0
C1015 C 0.87263 0.37608 0.93778 0.0
C1016 C 0.91967 0.39336 0.93697 0.0
C1017 C 0.95113 0.37336 0.92618 0.0
C1018 C 0.80971 0.31567 0.92958 0.0
C1019 C 0.93573 0.4351 0.94669 0.0
H1020 H 0.75252 0.48868 0.9384 0.0
H1021 H 0.76801 0.40386 0.97844 0.0
H1022 H 0.86282 0.46345 0.92141 0.0
H1023 H 0.82035 0.42194 0.91397 0.0
H1024 H 0.80341 0.48274 0.91735 0.0
H1025 H 0.83743 0.35737 0.9823 0.0
H1026 H 0.83541 0.31903 0.96565 0.0
H1027 H 0.88498 0.35788 0.96846 0.0
H1028 H 0.8806 0.28584 0.91151 0.0
H1029 H 0.986 0.38882 0.92479 0.0
H1030 H 0.78349 0.34376 0.92712 0.0
H1031 H 0.80221 0.30251 0.94123 0.0
H1032 H 0.80422 0.28609 0.92121 0.0
H1033 H 0.92097 0.46816 0.94196 0.0
H1034 H 0.97494 0.43832 0.94694 0.0
H1035 H 0.92255 0.432 0.95861 0.0
C1036 C 0.83507 0.40175 0.19251 0.0
C1037 C 0.86584 0.39238 0.20474 0.0
C1038 C 0.8468 0.43532 0.18145 0.0
C1039 C 0.88998 0.46054 0.18278 0.0
C1040 C 0.92067 0.45206 0.19527 0.0
C1041 C 0.90839 0.41788 0.20602 0.0
C1042 C 0.81335 0.44333 0.16823 0.0
C1043 C 0.96686 0.47863 0.19715 0.0
C1044 C 0.94945 0.51699 0.14866 0.0
C1045 C 0.93814 0.5649 0.15102 0.0
C1046 C 0.93222 0.48224 0.15854 0.0
C1047 C 0.90349 0.49586 0.17115 0.0
C1048 C 0.89053 0.54385 0.17327 0.0
C1049 C 0.90777 0.57774 0.16313 0.0
C1050 C 0.94615 0.4312 0.15579 0.0
C1051 C 0.86029 0.55977 0.18667 0.0
H1052 H 0.80185 0.38265 0.19153 0.0
H1053 H 0.93286 0.41029 0.21523 0.0
H1054 H 0.80243 0.48102 0.16804 0.0
H1055 H 0.8316 0.43547 0.15722 0.0
H1056 H 0.78108 0.42088 0.16888 0.0
H1057 H 0.98594 0.46899 0.20779 0.0
H1058 H 0.99023 0.47101 0.1872 0.0
H1059 H 0.96025 0.51735 0.19745 0.0
H1060 H 0.97255 0.50668 0.13927 0.0
H1061 H 0.89878 0.61465 0.16508 0.0
H1062 H 0.91432 0.4081 0.15582 0.0
H1063 H 0.96958 0.41948 0.16521 0.0
H1064 H 0.96506 0.42589 0.14473 0.0
H1065 H 0.82736 0.53838 0.18715 0.0
H1066 H 0.85055 0.59778 0.18606 0.0
H1067 H 0.8798 0.55415 0.19754 0.0
C1068 C 0.89212 0.49237 0.44456 0.0
C1069 C 0.90298 0.52366 0.45675 0.0
C1070 C 0.85783 0.50385 0.43363 0.0
C1071 C 0.83336 0.54731 0.43509 0.0
C1072 C 0.84223 0.57784 0.44782 0.0
C1073 C 0.87718 0.56577 0.45846 0.0
C1074 C 0.84929 0.47049 0.42019 0.0
C1075 C 0.81624 0.62421 0.44985 0.0
C1076 C 0.78487 0.60792 0.40006 0.0
C1077 C 0.73647 0.59747 0.40112 0.0
C1078 C 0.81709 0.59034 0.41077 0.0
C1079 C 0.80032 0.56222 0.42291 0.0
C1080 C 0.75177 0.55036 0.42379 0.0
C1081 C 0.72044 0.56787 0.41281 0.0
C1082 C 0.86887 0.60301 0.40935 0.0
C1083 C 0.73262 0.52084 0.43668 0.0
H1084 H 0.91136 0.45935 0.44334 0.0
H1085 H 0.88568 0.59037 0.46774 0.0
H1086 H 0.81102 0.46226 0.41907 0.0
H1087 H 0.86043 0.48774 0.40943 0.0
H1088 H 0.86909 0.43675 0.42126 0.0
H1089 H 0.82446 0.64197 0.46101 0.0
H1090 H 0.82612 0.64845 0.4405 0.0
H1091 H 0.77744 0.61834 0.44911 0.0
H1092 H 0.79752 0.63048 0.39099 0.0
H1093 H 0.68303 0.55978 0.41376 0.0
H1094 H 0.89084 0.5705 0.40947 0.0
H1095 H 0.87984 0.62544 0.41931 0.0
H1096 H 0.87659 0.6225 0.39868 0.0
H1097 H 0.75274 0.48731 0.43753 0.0
H1098 H 0.69449 0.5122 0.43514 0.0
H1099 H 0.73708 0.54037 0.44774 0.0
C1100 C 0.73194 0.52725 0.71907 0.0
C1101 C 0.75439 0.5603 0.7096 0.0
C1102 C 0.71402 0.48435 0.71304 0.0
C1103 C 0.71953 0.47376 0.69724 0.0
C1104 C 0.7442 0.50577 0.68779 0.0
C1105 C 0.76073 0.54879 0.69402 0.0
C1106 C 0.6876 0.45129 0.72344 0.0
C1107 C 0.75121 0.49565 0.67087 0.0
C1108 C 0.70008 0.35406 0.67783 0.0
C1109 C 0.65787 0.36254 0.66984 0.0
C1110 C 0.71924 0.38866 0.68786 0.0
C1111 C 0.6952 0.43223 0.69003 0.0
C1112 C 0.65026 0.43877 0.68325 0.0
C1113 C 0.63225 0.40397 0.67321 0.0
C1114 C 0.76733 0.38039 0.69485 0.0
C1115 C 0.62311 0.48438 0.68556 0.0
H1116 H 0.72785 0.53505 0.7312 0.0
H1117 H 0.7773 0.57406 0.6865 0.0
H1118 H 0.64949 0.45106 0.72034 0.0
H1119 H 0.70072 0.41451 0.72195 0.0
H1120 H 0.69096 0.46197 0.73572 0.0
H1121 H 0.77529 0.52167 0.66547 0.0
H1122 H 0.76602 0.45963 0.66904 0.0
H1123 H 0.71654 0.49677 0.66489 0.0
H1124 H 0.72026 0.32229 0.67528 0.0
H1125 H 0.59936 0.41067 0.6672 0.0
H1126 H 0.7688 0.39401 0.70684 0.0
H1127 H 0.79442 0.39981 0.6882 0.0
H1128 H 0.77679 0.34222 0.69468 0.0
H1129 H 0.6183 0.49202 0.69798 0.0
H1130 H 0.58785 0.48315 0.67998 0.0
H1131 H 0.64331 0.51431 0.68069 0.0
C1132 C 0.77615 0.65194 0.02703 0.0
C1133 C 0.74881 0.61196 0.03048 0.0
C1134 C 0.8142 0.66607 0.03645 0.0
C1135 C 0.82475 0.63981 0.0497 0.0
C1136 C 0.79783 0.59892 0.05306 0.0
C1137 C 0.76025 0.58554 0.04343 0.0
C1138 C 0.84192 0.70989 0.03243 0.0
C1139 C 0.80761 0.57018 0.06717 0.0
C1140 C 0.93986 0.64669 0.07205 0.0
C1141 C 0.92636 0.67442 0.08481 0.0
C1142 C 0.90812 0.6378 0.05992 0.0
C1143 C 0.86162 0.65627 0.06075 0.0
C1144 C 0.84867 0.68629 0.07319 0.0
C1145 C 0.88139 0.69552 0.08496 0.0
C1146 C 0.92351 0.60672 0.0466 0.0
C1147 C 0.79942 0.70672 0.07446 0.0
H1148 H 0.76774 0.67227 0.01695 0.0
H1149 H 0.73883 0.55508 0.04632 0.0
H1150 H 0.82917 0.74017 0.03955 0.0
H1151 H 0.88024 0.70528 0.03477 0.0
H1152 H 0.8373 0.71912 0.02018 0.0
H1153 H 0.78463 0.53829 0.0678 0.0
H1154 H 0.84513 0.55866 0.0673 0.0
H1155 H 0.8017 0.59237 0.07762 0.0
H1156 H 0.97477 0.63084 0.07173 0.0
H1157 H 0.87072 0.71742 0.09468 0.0
H1158 H 0.91407 0.6234 0.03558 0.0
H1159 H 0.90465 0.57226 0.04702 0.0
H1160 H 0.96223 0.59987 0.04674 0.0
H1161 H 0.79201 0.72903 0.0644 0.0
H1162 H 0.79461 0.72853 0.08507 0.0
H1163 H 0.77277 0.67779 0.07445 0.0
C1164 C 0.7561 0.41229 0.30398 0.0
C1165 C 0.74747 0.40238 0.2884 0.0
C1166 C 0.73811 0.45312 0.31115 0.0
C1167 C 0.70927 0.48425 0.30272 0.0
C1168 C 0.70003 0.47467 0.28704 0.0
C1169 C 0.71985 0.43423 0.27999 0.0
C1170 C 0.74833 0.46183 0.32798 0.0
C1171 C 0.66812 0.50633 0.27787 0.0
C1172 C 0.62715 0.55161 0.32922 0.0
C1173 C 0.65265 0.59375 0.3318 0.0
C1174 C 0.64361 0.51675 0.31895 0.0
C1175 C 0.68619 0.52458 0.31085 0.0
C1176 C 0.70988 0.56865 0.31237 0.0
C1177 C 0.6928 0.60282 0.32285 0.0
C1178 C 0.6164 0.47075 0.31735 0.0
C1179 C 0.75548 0.57815 0.30394 0.0
H1180 H 0.77605 0.38756 0.31078 0.0
H1181 H 0.71347 0.42759 0.26789 0.0
H1182 H 0.76197 0.49834 0.3299 0.0
H1183 H 0.71508 0.45845 0.33465 0.0
H1184 H 0.77459 0.43646 0.33255 0.0
H1185 H 0.66721 0.49601 0.26552 0.0
H1186 H 0.63156 0.50449 0.28248 0.0
H1187 H 0.67988 0.54374 0.27896 0.0
H1188 H 0.59551 0.54461 0.33583 0.0
H1189 H 0.71256 0.63538 0.32466 0.0
H1190 H 0.59084 0.4661 0.32687 0.0
H1191 H 0.64031 0.43967 0.31715 0.0
H1192 H 0.59653 0.47057 0.30637 0.0
H1193 H 0.78433 0.55698 0.30907 0.0
H1194 H 0.7657 0.61614 0.30459 0.0
H1195 H 0.75241 0.56714 0.29171 0.0
C1196 C 0.89756 0.38114 0.54598 0.0
C1197 C 0.94098 0.40215 0.54986 0.0
C1198 C 0.86698 0.36498 0.55742 0.0
C1199 C 0.8803 0.37024 0.57302 0.0
C1200 C 0.92511 0.38918 0.57695 0.0
C1201 C 0.95502 0.40479 0.56529 0.0
C1202 C 0.81957 0.34427 0.55285 0.0
C1203 C 0.94055 0.39502 0.59346 0.0
C1204 C 0.77779 0.38489 0.6004 0.0
C1205 C 0.77286 0.33892 0.60599 0.0
C1206 C 0.81385 0.3959 0.59007 0.0
C1207 C 0.84554 0.35998 0.58519 0.0
C1208 C 0.84227 0.31408 0.59134 0.0
C1209 C 0.80606 0.30414 0.60178 0.0
C1210 C 0.8166 0.44542 0.58384 0.0
C1211 C 0.87588 0.27513 0.58646 0.0
H1212 H 0.88668 0.37904 0.53407 0.0
H1213 H 0.98917 0.41996 0.56829 0.0
H1214 H 0.81401 0.3097 0.55844 0.0
H1215 H 0.79085 0.36829 0.5568 0.0
H1216 H 0.8163 0.339 0.54024 0.0
H1217 H 0.97826 0.40594 0.59449 0.0
H1218 H 0.91837 0.42233 0.59924 0.0
H1219 H 0.93546 0.36149 0.59969 0.0
H1220 H 0.75245 0.41197 0.60371 0.0
H1221 H 0.80238 0.26848 0.60604 0.0
H1222 H 0.80901 0.44443 0.57135 0.0
H1223 H 0.85283 0.46002 0.58537 0.0
H1224 H 0.79107 0.46991 0.58952 0.0
H1225 H 0.8757 0.27076 0.57379 0.0
H1226 H 0.86672 0.24061 0.59163 0.0
H1227 H 0.91251 0.28479 0.5899 0.0
C1228 C 0.81737 0.56834 0.80305 0.0
C1229 C 0.85002 0.57649 0.79125 0.0
C1230 C 0.82732 0.53614 0.81466 0.0
C1231 C 0.87043 0.51085 0.81423 0.0
C1232 C 0.90241 0.51706 0.80194 0.0
C1233 C 0.89204 0.55017 0.79069 0.0
C1234 C 0.79264 0.53056 0.82768 0.0
C1235 C 0.94843 0.48996 0.80097 0.0
C1236 C 0.93114 0.46493 0.84956 0.0
C1237 C 0.92128 0.41639 0.8483 0.0
C1238 C 0.91218 0.49671 0.83905 0.0
C1239 C 0.8835 0.47922 0.82689 0.0
C1240 C 0.87144 0.43066 0.82602 0.0
C1241 C 0.89018 0.39983 0.83684 0.0
C1242 C 0.92486 0.54857 0.8405 0.0
C1243 C 0.84148 0.41068 0.81308 0.0
H1244 H 0.78442 0.5879 0.80341 0.0
H1245 H 0.91787 0.55668 0.78179 0.0
H1246 H 0.7835 0.49268 0.82912 0.0
H1247 H 0.80917 0.54317 0.83856 0.0
H1248 H 0.75948 0.55079 0.82585 0.0
H1249 H 0.96759 0.49624 0.79007 0.0
H1250 H 0.97181 0.5007 0.81066 0.0
H1251 H 0.94167 0.4514 0.80193 0.0
H1252 H 0.95472 0.47794 0.85851 0.0
H1253 H 0.88248 0.36229 0.83577 0.0
H1254 H 0.89266 0.57076 0.83953 0.0
H1255 H 0.94898 0.55832 0.83102 0.0
H1256 H 0.94269 0.55722 0.85156 0.0
H1257 H 0.80909 0.43221 0.81153 0.0
H1258 H 0.83086 0.37337 0.81504 0.0
H1259 H 0.86181 0.41198 0.80221 0.0
C1260 C 0.32557 0.63159 0.0414 0.0
C1261 C 0.326 0.59526 0.03023 0.0
C1262 C 0.28684 0.63774 0.05125 0.0
C1263 C 0.24773 0.60631 0.0501 0.0
C1264 C 0.24692 0.57084 0.03846 0.0
C1265 C 0.28595 0.56592 0.0286 0.0
C1266 C 0.28879 0.67669 0.06336 0.0
C1267 C 0.2059 0.53675 0.03687 0.0
C1268 C 0.19218 0.6002 0.0891 0.0
C1269 C 0.15787 0.63562 0.08805 0.0
C1270 C 0.21823 0.5859 0.07618 0.0
C1271 C 0.21029 0.60852 0.06205 0.0
C1272 C 0.17172 0.64012 0.06058 0.0
C1273 C 0.14555 0.6531 0.07367 0.0
C1274 C 0.25815 0.55107 0.07817 0.0
C1275 C 0.16183 0.66479 0.04571 0.0
H1276 H 0.35634 0.65418 0.04291 0.0
H1277 H 0.2854 0.53844 0.01977 0.0
H1278 H 0.25649 0.69888 0.0628 0.0
H1279 H 0.28998 0.66094 0.07493 0.0
H1280 H 0.32026 0.69997 0.06207 0.0
H1281 H 0.2074 0.51593 0.02596 0.0
H1282 H 0.20652 0.51171 0.04653 0.0
H1283 H 0.17168 0.5559 0.03743 0.0
H1284 H 0.20172 0.58698 0.10029 0.0
H1285 H 0.11935 0.68101 0.07294 0.0
H1286 H 0.29231 0.57057 0.07869 0.0
H1287 H 0.25984 0.52585 0.0683 0.0
H1288 H 0.2543 0.5307 0.08889 0.0
H1289 H 0.18697 0.69475 0.0445 0.0
H1290 H 0.12525 0.67915 0.04541 0.0
H1291 H 0.1669 0.6405 0.03572 0.0
C1292 C 0.26149 0.51191 0.80676 0.0
C1293 C 0.2741 0.50454 0.79136 0.0
C1294 C 0.24483 0.47455 0.81564 0.0
C1295 C 0.24009 0.42879 0.80891 0.0
C1296 C 0.25637 0.42025 0.79378 0.0
C1297 C 0.27333 0.45827 0.78518 0.0
C1298 C 0.22842 0.48506 0.83183 0.0
C1299 C 0.25247 0.37185 0.78628 0.0
C1300 C 0.2003 0.33686 0.83739 0.0
C1301 C 0.15119 0.34258 0.83647 0.0
C1302 C 0.23042 0.3621 0.82761 0.0
C1303 C 0.21048 0.39311 0.81675 0.0
C1304 C 0.1607 0.39527 0.81495 0.0
C1305 C 0.13169 0.37028 0.82496 0.0
C1306 C 0.28325 0.35869 0.82983 0.0
C1307 C 0.13786 0.42724 0.80337 0.0
H1308 H 0.26168 0.54745 0.81165 0.0
H1309 H 0.2842 0.45204 0.77341 0.0
H1310 H 0.18915 0.48407 0.83223 0.0
H1311 H 0.24174 0.45788 0.83977 0.0
H1312 H 0.2404 0.52048 0.83603 0.0
H1313 H 0.27486 0.36882 0.77584 0.0
H1314 H 0.26283 0.3438 0.79437 0.0
H1315 H 0.21512 0.3652 0.7829 0.0
H1316 H 0.21516 0.31568 0.84645 0.0
H1317 H 0.09355 0.37446 0.82434 0.0
H1318 H 0.29565 0.38962 0.83677 0.0
H1319 H 0.30209 0.35933 0.81868 0.0
H1320 H 0.29317 0.32597 0.83594 0.0
H1321 H 0.14312 0.46478 0.80697 0.0
H1322 H 0.09922 0.42056 0.80223 0.0
H1323 H 0.15453 0.42232 0.79195 0.0
C1324 C 0.36964 0.43855 0.53677 0.0
C1325 C 0.32236 0.42745 0.53992 0.0
C1326 C 0.40609 0.42241 0.54628 0.0
C1327 C 0.39452 0.39539 0.55929 0.0
C1328 C 0.3467 0.38473 0.5626 0.0
C1329 C 0.31119 0.40079 0.55283 0.0
C1330 C 0.45684 0.43383 0.54236 0.0
C1331 C 0.33299 0.35683 0.57655 0.0
C1332 C 0.48268 0.31444 0.57825 0.0
C1333 C 0.49709 0.34239 0.59084 0.0
C1334 C 0.4508 0.33213 0.56746 0.0
C1335 C 0.4321 0.37823 0.56962 0.0
C1336 C 0.44671 0.40659 0.5823 0.0
C1337 C 0.47957 0.38848 0.59268 0.0
C1338 C 0.43687 0.30156 0.55379 0.0
C1339 C 0.42669 0.45552 0.58513 0.0
H1340 H 0.37806 0.45901 0.52672 0.0
H1341 H 0.27445 0.39287 0.55535 0.0
H1342 H 0.4736 0.45407 0.55195 0.0
H1343 H 0.47726 0.40058 0.54079 0.0
H1344 H 0.45982 0.45484 0.53175 0.0
H1345 H 0.29449 0.34871 0.57685 0.0
H1346 H 0.35289 0.32306 0.57682 0.0
H1347 H 0.34244 0.3773 0.58709 0.0
H1348 H 0.49694 0.27906 0.57672 0.0
H1349 H 0.49071 0.40997 0.60246 0.0
H1350 H 0.44541 0.32012 0.54303 0.0
H1351 H 0.39807 0.29532 0.55382 0.0
H1352 H 0.45522 0.26681 0.55364 0.0
H1353 H 0.43192 0.4777 0.5749 0.0
H1354 H 0.44326 0.4737 0.59519 0.0
H1355 H 0.38798 0.45302 0.58715 0.0
C1356 C 0.46957 0.47153 0.29149 0.0
C1357 C 0.45342 0.48279 0.27681 0.0
C1358 C 0.47624 0.50691 0.30274 0.0
C1359 C 0.4673 0.55474 0.29913 0.0
C1360 C 0.45124 0.56636 0.28428 0.0
C1361 C 0.44409 0.53008 0.2733 0.0
C1362 C 0.49155 0.49288 0.31861 0.0
C1363 C 0.44134 0.61698 0.28003 0.0
C1364 C 0.44772 0.63995 0.33265 0.0
C1365 C 0.49294 0.65976 0.33448 0.0
C1366 C 0.43864 0.60603 0.32107 0.0
C1367 C 0.47547 0.59245 0.31092 0.0
C1368 C 0.52091 0.61323 0.31249 0.0
C1369 C 0.52927 0.64627 0.32439 0.0
C1370 C 0.38981 0.58442 0.31978 0.0
C1371 C 0.56051 0.6007 0.30153 0.0
H1372 H 0.47579 0.4348 0.29428 0.0
H1373 H 0.43147 0.53864 0.26194 0.0
H1374 H 0.52062 0.5161 0.32283 0.0
H1375 H 0.46143 0.49741 0.32665 0.0
H1376 H 0.50336 0.45542 0.31896 0.0
H1377 H 0.42951 0.62007 0.26794 0.0
H1378 H 0.41354 0.63203 0.28764 0.0
H1379 H 0.47363 0.6389 0.28172 0.0
H1380 H 0.41958 0.65047 0.34044 0.0
H1381 H 0.56397 0.66239 0.32557 0.0
H1382 H 0.39182 0.54573 0.32166 0.0
H1383 H 0.37544 0.58939 0.30808 0.0
H1384 H 0.36465 0.6001 0.32823 0.0
H1385 H 0.56672 0.56193 0.30144 0.0
H1386 H 0.59411 0.61922 0.30448 0.0
H1387 H 0.55032 0.6103 0.2897 0.0
C1388 C 0.30764 0.42584 0.95243 0.0
C1389 C 0.32315 0.47297 0.95154 0.0
C1390 C 0.27054 0.40874 0.94319 0.0
C1391 C 0.24718 0.43989 0.93314 0.0
C1392 C 0.259 0.48859 0.93344 0.0
C1393 C 0.29741 0.50445 0.94241 0.0
C1394 C 0.25921 0.35643 0.94323 0.0
C1395 C 0.23344 0.52335 0.92344 0.0
C1396 C 0.21788 0.37903 0.89559 0.0
C1397 C 0.1716 0.36287 0.89813 0.0
C1398 C 0.24178 0.40656 0.90657 0.0
C1399 C 0.21839 0.41961 0.92033 0.0
C1400 C 0.16994 0.40781 0.92228 0.0
C1401 C 0.14706 0.37903 0.91117 0.0
C1402 C 0.29342 0.41816 0.90392 0.0
C1403 C 0.14308 0.42292 0.93647 0.0
H1404 H 0.32579 0.4016 0.95991 0.0
H1405 H 0.30858 0.54103 0.9416 0.0
H1406 H 0.22057 0.35076 0.94447 0.0
H1407 H 0.27011 0.34003 0.93212 0.0
H1408 H 0.27767 0.33778 0.95261 0.0
H1409 H 0.23815 0.56035 0.92772 0.0
H1410 H 0.2477 0.521 0.91161 0.0
H1411 H 0.19502 0.51514 0.92287 0.0
H1412 H 0.23668 0.36776 0.88532 0.0
H1413 H 0.11106 0.36715 0.91312 0.0
H1414 H 0.31554 0.4002 0.91258 0.0
H1415 H 0.29962 0.45677 0.90525 0.0
H1416 H 0.30572 0.40681 0.89233 0.0
H1417 H 0.14998 0.39744 0.94574 0.0
H1418 H 0.10429 0.42346 0.93432 0.0
H1419 H 0.15454 0.45853 0.94061 0.0
C1420 C 0.40086 0.463 0.71284 0.0
C1421 C 0.40951 0.51006 0.70896 0.0
C1422 C 0.41819 0.42577 0.70361 0.0
C1423 C 0.4453 0.43633 0.69044 0.0
C1424 C 0.45658 0.48394 0.68711 0.0
C1425 C 0.43806 0.52032 0.69636 0.0
C1426 C 0.4042 0.3756 0.70728 0.0
C1427 C 0.48491 0.49716 0.67313 0.0
C1428 C 0.51187 0.34041 0.66849 0.0
C1429 C 0.48093 0.33161 0.65618 0.0
C1430 C 0.50004 0.37335 0.6801 0.0
C1431 C 0.45692 0.39853 0.6791 0.0
C1432 C 0.42565 0.38966 0.6667 0.0
C1433 C 0.43798 0.35619 0.65543 0.0
C1434 C 0.53338 0.38128 0.69344 0.0
C1435 C 0.37921 0.41572 0.66529 0.0
H1436 H 0.37832 0.45546 0.72256 0.0
H1437 H 0.44458 0.55695 0.69344 0.0
H1438 H 0.37619 0.36356 0.69916 0.0
H1439 H 0.43459 0.35114 0.70589 0.0
H1440 H 0.39024 0.37274 0.71914 0.0
H1441 H 0.50457 0.53082 0.67514 0.0
H1442 H 0.51045 0.46916 0.6697 0.0
H1443 H 0.46031 0.50253 0.66339 0.0
H1444 H 0.54472 0.3208 0.66923 0.0
H1445 H 0.414 0.34943 0.64592 0.0
H1446 H 0.51495 0.3741 0.70438 0.0
H1447 H 0.54472 0.41889 0.69393 0.0
H1448 H 0.56515 0.35826 0.6927 0.0
H1449 H 0.35831 0.41236 0.67598 0.0
H1450 H 0.3575 0.40227 0.65551 0.0
H1451 H 0.38609 0.45398 0.66363 0.0
C1452 C 0.28386 0.63193 0.44627 0.0
C1453 C 0.29941 0.60385 0.45838 0.0
C1454 C 0.31587 0.64924 0.43547 0.0
C1455 C 0.36439 0.63786 0.43682 0.0
C1456 C 0.38061 0.61155 0.44945 0.0
C1457 C 0.34781 0.59473 0.46009 0.0
C1458 C 0.29722 0.67709 0.42214 0.0
C1459 C 0.43231 0.59943 0.45136 0.0
C1460 C 0.44073 0.62491 0.4015 0.0
C1461 C 0.46717 0.66683 0.40216 0.0
C1462 C 0.40565 0.61601 0.41239 0.0
C1463 C 0.39765 0.64954 0.42436 0.0
C1464 C 0.42322 0.69265 0.42482 0.0
C1465 C 0.45761 0.70096 0.4136 0.0
C1466 C 0.37832 0.57001 0.41141 0.0
C1467 C 0.41547 0.72899 0.43748 0.0
H1468 H 0.24635 0.63866 0.44483 0.0
H1469 H 0.3599 0.57366 0.4696 0.0
H1470 H 0.32188 0.70601 0.41908 0.0
H1471 H 0.29375 0.65316 0.41198 0.0
H1472 H 0.26189 0.69257 0.42467 0.0
H1473 H 0.43961 0.58246 0.46252 0.0
H1474 H 0.44344 0.57479 0.442 0.0
H1475 H 0.45444 0.6318 0.45054 0.0
H1476 H 0.44804 0.5987 0.39258 0.0
H1477 H 0.47866 0.73307 0.41425 0.0
H1478 H 0.33971 0.57714 0.41158 0.0
H1479 H 0.38656 0.54816 0.42151 0.0
H1480 H 0.38683 0.54913 0.40086 0.0
H1481 H 0.3779 0.74038 0.43761 0.0
H1482 H 0.43835 0.76071 0.43621 0.0
H1483 H 0.42295 0.7131 0.44877 0.0
C1484 C 0.28501 0.51619 0.20279 0.0
C1485 C 0.3248 0.49326 0.19664 0.0
C1486 C 0.26268 0.55254 0.19485 0.0
C1487 C 0.28063 0.566 0.18042 0.0
C1488 C 0.32414 0.54708 0.17512 0.0
C1489 C 0.34576 0.51061 0.1833 0.0
C1490 C 0.21677 0.57231 0.20105 0.0
C1491 C 0.34502 0.56145 0.15998 0.0
C1492 C 0.18344 0.58068 0.15133 0.0
C1493 C 0.17849 0.63001 0.15077 0.0
C1494 C 0.21765 0.55988 0.16056 0.0
C1495 C 0.24821 0.58908 0.16947 0.0
C1496 C 0.24497 0.639 0.16854 0.0
C1497 C 0.20986 0.65901 0.1592 0.0
C1498 C 0.21985 0.50639 0.16113 0.0
C1499 C 0.27729 0.67124 0.17774 0.0
H1500 H 0.26961 0.50364 0.21337 0.0
H1501 H 0.37689 0.49328 0.17861 0.0
H1502 H 0.21499 0.61112 0.19943 0.0
H1503 H 0.1867 0.55594 0.19468 0.0
H1504 H 0.21224 0.56486 0.21343 0.0
H1505 H 0.38319 0.55231 0.15919 0.0
H1506 H 0.32608 0.54261 0.15052 0.0
H1507 H 0.3408 0.60003 0.15823 0.0
H1508 H 0.15987 0.55786 0.14472 0.0
H1509 H 0.20645 0.69719 0.15876 0.0
H1510 H 0.21189 0.49452 0.17292 0.0
H1511 H 0.25596 0.49392 0.15818 0.0
H1512 H 0.19434 0.48896 0.15312 0.0
H1513 H 0.26494 0.67297 0.1898 0.0
H1514 H 0.27755 0.7078 0.17322 0.0
H1515 H 0.31406 0.65748 0.17778 0.0
loop_
_geom_bond_atom_site_label_1
_geom_bond_atom_site_label_2
_geom_bond_distance
_geom_bond_site_symmetry_2
_ccdc_geom_bond_type
C0 C1 1.384 . S
C0 C2 1.384 . S
C0 H28 0.931 1_565 S
C1 C0 1.384 . S
C1 C4 1.382 . S
C2 C0 1.384 . S
C2 C3 1.381 . S
C2 H29 0.930 1_565 S
C3 C2 1.381 . S
C3 C5 1.381 . S
C3 C6 1.487 . S
C4 C1 1.382 . S
C4 C5 1.387 . S
C4 H30 0.930 . S
C5 C3 1.381 . S
C5 C4 1.387 . S
C5 H31 0.931 . S
C6 C3 1.487 . S
C6 C13 1.399 1_565 S
C6 N44 1.343 . S
C7 C8 1.384 . S
C7 C9 1.384 . S
C7 H32 0.931 1_545 S
C8 C7 1.384 . S
C8 C11 1.382 . S
C9 C7 1.384 . S
C9 C10 1.381 . S
C9 H33 0.930 1_545 S
C10 C9 1.381 . S
C10 C12 1.381 . S
C10 C13 1.487 . S
C11 C8 1.382 . S
C11 C12 1.387 . S
C11 H34 0.930 . S
C12 C10 1.381 . S
C12 C11 1.387 . S
C12 H35 0.931 . S
C13 C6 1.399 1_545 S
C13 C10 1.487 . S
C13 N45 1.343 . S
C14 C15 1.384 . S
C14 C16 1.384 . S
C14 H36 0.931 1_545 S
C15 C14 1.384 . S
C15 C18 1.382 . S
C16 C14 1.384 . S
C16 C17 1.381 . S
C16 H37 0.930 1_545 S
C17 C16 1.381 . S
C17 C19 1.381 . S
C17 C20 1.487 . S
C18 C15 1.382 . S
C18 C19 1.387 . S
C18 H38 0.930 . S
C19 C17 1.381 . S
C19 C18 1.387 . S
C19 H39 0.931 . S
C20 C17 1.487 . S
C20 C27 1.399 1_545 S
C20 N45 1.343 1_655 S
C21 C22 1.384 . S
C21 C23 1.384 . S
C21 H40 0.931 1_565 S
C22 C21 1.384 . S
C22 C25 1.382 . S
C23 C21 1.384 . S
C23 C24 1.381 . S
C23 H41 0.930 1_565 S
C24 C23 1.381 . S
C24 C26 1.381 . S
C24 C27 1.487 . S
C25 C22 1.382 . S
C25 C26 1.387 . S
C25 H42 0.930 . S
C26 C24 1.381 . S
C26 C25 1.387 . S
C26 H43 0.931 . S
C27 C20 1.399 1_565 S
C27 C24 1.487 . S
C27 N44 1.343 1_655 S
H28 C0 0.931 1_545 S
H29 C2 0.930 1_545 S
H30 C4 0.930 . S
H31 C5 0.931 . S
H32 C7 0.931 1_565 S
H33 C9 0.930 1_565 S
H34 C11 0.930 . S
H35 C12 0.931 . S
H36 C14 0.931 1_565 S
H37 C16 0.930 1_565 S
H38 C18 0.930 . S
H39 C19 0.931 . S
H40 C21 0.931 1_545 S
H41 C23 0.930 1_545 S
H42 C25 0.930 . S
H43 C26 0.931 . S
N44 C6 1.343 . S
N44 C27 1.343 1_455 S
N45 C13 1.343 . S
N45 C20 1.343 1_455 S
C46 C47 1.384 . S
C46 C48 1.384 . S
C46 H74 0.931 . S
C47 C46 1.384 . S
C47 C50 1.382 . S
C48 C46 1.384 . S
C48 C49 1.381 . S
C48 H75 0.930 . S
C49 C48 1.381 . S
C49 C51 1.381 . S
C49 C52 1.487 . S
C50 C47 1.382 . S
C50 C51 1.387 . S
C50 H76 0.930 . S
C51 C49 1.381 . S
C51 C50 1.387 . S
C51 H77 0.931 . S
C52 C49 1.487 . S
C52 C59 1.399 . S
C52 N90 1.343 . S
C53 C54 1.384 . S
C53 C55 1.384 . S
C53 H78 0.931 . S
C54 C53 1.384 . S
C54 C57 1.382 . S
C55 C53 1.384 . S
C55 C56 1.381 . S
C55 H79 0.930 . S
C56 C55 1.381 . S
C56 C58 1.381 . S
C56 C59 1.487 . S
C57 C54 1.382 . S
C57 C58 1.387 . S
C57 H80 0.930 . S
C58 C56 1.381 . S
C58 C57 1.387 . S
C58 H81 0.931 . S
C59 C52 1.399 . S
C59 C56 1.487 . S
C59 N91 1.343 . S
C60 C61 1.384 . S
C60 C62 1.384 . S
C60 H82 0.931 . S
C61 C60 1.384 . S
C61 C64 1.382 . S
C62 C60 1.384 . S
C62 C63 1.381 . S
C62 H83 0.930 . S
C63 C62 1.381 . S
C63 C65 1.381 . S
C63 C66 1.487 . S
C64 C61 1.382 . S
C64 C65 1.387 . S
C64 H84 0.930 . S
C65 C63 1.381 . S
C65 C64 1.387 . S
C65 H85 0.931 . S
C66 C63 1.487 . S
C66 C73 1.399 . S
C66 N91 1.343 . S
C67 C68 1.384 . S
C67 C69 1.384 . S
C67 H86 0.931 . S
C68 C67 1.384 . S
C68 C71 1.382 . S
C69 C67 1.384 . S
C69 C70 1.381 . S
C69 H87 0.930 . S
C70 C69 1.381 . S
C70 C72 1.381 . S
C70 C73 1.487 . S
C71 C68 1.382 . S
C71 C72 1.387 . S
C71 H88 0.930 . S
C72 C70 1.381 . S
C72 C71 1.387 . S
C72 H89 0.931 . S
C73 C66 1.399 . S
C73 C70 1.487 . S
C73 N90 1.343 . S
H74 C46 0.931 . S
H75 C48 0.930 . S
H76 C50 0.930 . S
H77 C51 0.931 . S
H78 C53 0.931 . S
H79 C55 0.930 . S
H80 C57 0.930 . S
H81 C58 0.931 . S
H82 C60 0.931 . S
H83 C62 0.930 . S
H84 C64 0.930 . S
H85 C65 0.931 . S
H86 C67 0.931 . S
H87 C69 0.930 . S
H88 C71 0.930 . S
H89 C72 0.931 . S
N90 C52 1.343 . S
N90 C73 1.343 . S
N91 C59 1.343 . S
N91 C66 1.343 . S
C92 C93 1.384 . S
C92 C94 1.384 . S
C92 H120 0.931 1_545 S
C93 C92 1.384 . S
C93 C96 1.382 . S
C94 C92 1.384 . S
C94 C95 1.381 . S
C94 H121 0.930 1_545 S
C95 C94 1.381 . S
C95 C97 1.381 . S
C95 C98 1.487 . S
C96 C93 1.382 . S
C96 C97 1.387 . S
C96 H122 0.930 . S
C97 C95 1.381 . S
C97 C96 1.387 . S
C97 H123 0.931 . S
C98 C95 1.487 . S
C98 C105 1.399 1_546 S
C98 N136 1.343 . S
C99 C100 1.384 . S
C99 C101 1.384 . S
C99 H124 0.931 1_565 S
C100 C99 1.384 . S
C100 C103 1.382 . S
C101 C99 1.384 . S
C101 C102 1.381 . S
C101 H125 0.930 1_565 S
C102 C101 1.381 . S
C102 C104 1.381 . S
C102 C105 1.487 . S
C103 C100 1.382 . S
C103 C104 1.387 . S
C103 H126 0.930 . S
C104 C102 1.381 . S
C104 C103 1.387 . S
C104 H127 0.931 . S
C105 C98 1.399 1_564 S
C105 C102 1.487 . S
C105 N137 1.343 . S
C106 C107 1.384 . S
C106 C108 1.384 . S
C106 H128 0.931 1_565 S
C107 C106 1.384 . S
C107 C110 1.382 . S
C108 C106 1.384 . S
C108 C109 1.381 . S
C108 H129 0.930 1_565 S
C109 C108 1.381 . S
C109 C111 1.381 . S
C109 C112 1.487 . S
C110 C107 1.382 . S
C110 C111 1.387 . S
C110 H130 0.930 . S
C111 C109 1.381 . S
C111 C110 1.387 . S
C111 H131 0.931 . S
C112 C109 1.487 . S
C112 C119 1.399 1_564 S
C112 N137 1.343 . S
C113 C114 1.384 . S
C113 C115 1.384 . S
C113 H132 0.931 1_545 S
C114 C113 1.384 . S
C114 C117 1.382 . S
C115 C113 1.384 . S
C115 C116 1.381 . S
C115 H133 0.930 1_545 S
C116 C115 1.381 . S
C116 C118 1.381 . S
C116 C119 1.487 . S
C117 C114 1.382 . S
C117 C118 1.387 . S
C117 H134 0.930 . S
C118 C116 1.381 . S
C118 C117 1.387 . S
C118 H135 0.931 . S
C119 C112 1.399 1_546 S
C119 C116 1.487 . S
C119 N136 1.343 . S
H120 C92 0.931 1_565 S
H121 C94 0.930 1_565 S
H122 C96 0.930 . S
H123 C97 0.931 . S
H124 C99 0.931 1_545 S
H125 C101 0.930 1_545 S
H126 C103 0.930 . S
H127 C104 0.931 . S
H128 C106 0.931 1_545 S
H129 C108 0.930 1_545 S
H130 C110 0.930 . S
H131 C111 0.931 . S
H132 C113 0.931 1_565 S
H133 C115 0.930 1_565 S
H134 C117 0.930 . S
H135 C118 0.931 . S
N136 C98 1.343 . S
N136 C119 1.343 . S
N137 C105 1.343 . S
N137 C112 1.343 . S
C138 C139 1.384 . S
C138 C140 1.384 . S
C138 H166 0.931 . S
C139 C138 1.384 . S
C139 C142 1.382 . S
C140 C138 1.384 . S
C140 C141 1.381 . S
C140 H167 0.930 . S
C141 C140 1.381 . S
C141 C143 1.381 . S
C141 C144 1.487 . S
C142 C139 1.382 . S
C142 C143 1.387 . S
C142 H168 0.930 . S
C143 C141 1.381 . S
C143 C142 1.387 . S
C143 H169 0.931 . S
C144 C141 1.487 . S
C144 C151 1.399 . S
C144 N182 1.343 . S
C145 C146 1.384 . S
C145 C147 1.384 . S
C145 H170 0.931 . S
C146 C145 1.384 . S
C146 C149 1.382 . S
C147 C145 1.384 . S
C147 C148 1.381 . S
C147 H171 0.930 . S
C148 C147 1.381 . S
C148 C150 1.381 . S
C148 C151 1.487 . S
C149 C146 1.382 . S
C149 C150 1.387 . S
C149 H172 0.930 . S
C150 C148 1.381 . S
C150 C149 1.387 . S
C150 H173 0.931 . S
C151 C144 1.399 . S
C151 C148 1.487 . S
C151 N183 1.343 . S
C152 C153 1.384 . S
C152 C154 1.384 . S
C152 H174 0.931 . S
C153 C152 1.384 . S
C153 C156 1.382 . S
C154 C152 1.384 . S
C154 C155 1.381 . S
C154 H175 0.930 . S
C155 C154 1.381 . S
C155 C157 1.381 . S
C155 C158 1.487 . S
C156 C153 1.382 . S
C156 C157 1.387 . S
C156 H176 0.930 . S
C157 C155 1.381 . S
C157 C156 1.387 . S
C157 H177 0.931 . S
C158 C155 1.487 . S
C158 C165 1.399 . S
C158 N183 1.343 . S
C159 C160 1.384 . S
C159 C161 1.384 . S
C159 H178 0.931 . S
C160 C159 1.384 . S
C160 C163 1.382 . S
C161 C159 1.384 . S
C161 C162 1.381 . S
C161 H179 0.930 . S
C162 C161 1.381 . S
C162 C164 1.381 . S
C162 C165 1.487 . S
C163 C160 1.382 . S
C163 C164 1.387 . S
C163 H180 0.930 . S
C164 C162 1.381 . S
C164 C163 1.387 . S
C164 H181 0.931 . S
C165 C158 1.399 . S
C165 C162 1.487 . S
C165 N182 1.343 . S
H166 C138 0.931 . S
H167 C140 0.930 . S
H168 C142 0.930 . S
H169 C143 0.931 . S
H170 C145 0.931 . S
H171 C147 0.930 . S
H172 C149 0.930 . S
H173 C150 0.931 . S
H174 C152 0.931 . S
H175 C154 0.930 . S
H176 C156 0.930 . S
H177 C157 0.931 . S
H178 C159 0.931 . S
H179 C161 0.930 . S
H180 C163 0.930 . S
H181 C164 0.931 . S
N182 C144 1.343 . S
N182 C165 1.343 . S
N183 C151 1.343 . S
N183 C158 1.343 . S
C184 C185 1.384 . S
C184 C186 1.384 . S
C184 H212 0.931 . S
C185 C184 1.384 . S
C185 C188 1.382 . S
C186 C184 1.384 . S
C186 C187 1.381 . S
C186 H213 0.930 . S
C187 C186 1.381 . S
C187 C189 1.381 . S
C187 C190 1.487 . S
C188 C185 1.382 . S
C188 C189 1.387 . S
C188 H214 0.930 . S
C189 C187 1.381 . S
C189 C188 1.387 . S
C189 H215 0.931 . S
C190 C187 1.487 . S
C190 C197 1.399 . S
C190 N228 1.343 . S
C191 C192 1.384 . S
C191 C193 1.384 . S
C191 H216 0.931 . S
C192 C191 1.384 . S
C192 C195 1.382 . S
C193 C191 1.384 . S
C193 C194 1.381 . S
C193 H217 0.930 . S
C194 C193 1.381 . S
C194 C196 1.381 . S
C194 C197 1.487 . S
C195 C192 1.382 . S
C195 C196 1.387 . S
C195 H218 0.930 . S
C196 C194 1.381 . S
C196 C195 1.387 . S
C196 H219 0.931 . S
C197 C190 1.399 . S
C197 C194 1.487 . S
C197 N229 1.343 . S
C198 C199 1.384 . S
C198 C200 1.384 . S
C198 H220 0.931 . S
C199 C198 1.384 . S
C199 C202 1.382 . S
C200 C198 1.384 . S
C200 C201 1.381 . S
C200 H221 0.930 . S
C201 C200 1.381 . S
C201 C203 1.381 . S
C201 C204 1.487 . S
C202 C199 1.382 . S
C202 C203 1.387 . S
C202 H222 0.930 . S
C203 C201 1.381 . S
C203 C202 1.387 . S
C203 H223 0.931 . S
C204 C201 1.487 . S
C204 C211 1.399 . S
C204 N229 1.343 . S
C205 C206 1.384 . S
C205 C207 1.384 . S
C205 H224 0.931 . S
C206 C205 1.384 . S
C206 C209 1.382 . S
C207 C205 1.384 . S
C207 C208 1.381 . S
C207 H225 0.930 . S
C208 C207 1.381 . S
C208 C210 1.381 . S
C208 C211 1.487 . S
C209 C206 1.382 . S
C209 C210 1.387 . S
C209 H226 0.930 . S
C210 C208 1.381 . S
C210 C209 1.387 . S
C210 H227 0.931 . S
C211 C204 1.399 . S
C211 C208 1.487 . S
C211 N228 1.343 . S
H212 C184 0.931 . S
H213 C186 0.930 . S
H214 C188 0.930 . S
H215 C189 0.931 . S
H216 C191 0.931 . S
H217 C193 0.930 . S
H218 C195 0.930 . S
H219 C196 0.931 . S
H220 C198 0.931 . S
H221 C200 0.930 . S
H222 C202 0.930 . S
H223 C203 0.931 . S
H224 C205 0.931 . S
H225 C207 0.930 . S
H226 C209 0.930 . S
H227 C210 0.931 . S
N228 C190 1.343 . S
N228 C211 1.343 . S
N229 C197 1.343 . S
N229 C204 1.343 . S
C230 C231 1.384 . S
C230 C232 1.384 . S
C230 H258 0.931 . S
C231 C230 1.384 . S
C231 C234 1.382 . S
C232 C230 1.384 . S
C232 C233 1.381 . S
C232 H259 0.930 . S
C233 C232 1.381 . S
C233 C235 1.381 . S
C233 C236 1.487 . S
C234 C231 1.382 . S
C234 C235 1.387 . S
C234 H260 0.930 . S
C235 C233 1.381 . S
C235 C234 1.387 . S
C235 H261 0.931 . S
C236 C233 1.487 . S
C236 C243 1.399 . S
C236 N274 1.343 . S
C237 C238 1.384 . S
C237 C239 1.384 . S
C237 H262 0.931 . S
C238 C237 1.384 . S
C238 C241 1.382 . S
C239 C237 1.384 . S
C239 C240 1.381 . S
C239 H263 0.930 . S
C240 C239 1.381 . S
C240 C242 1.381 . S
C240 C243 1.487 . S
C241 C238 1.382 . S
C241 C242 1.387 . S
C241 H264 0.930 . S
C242 C240 1.381 . S
C242 C241 1.387 . S
C242 H265 0.931 . S
C243 C236 1.399 . S
C243 C240 1.487 . S
C243 N275 1.343 . S
C244 C245 1.384 . S
C244 C246 1.384 . S
C244 H266 0.931 . S
C245 C244 1.384 . S
C245 C248 1.382 . S
C246 C244 1.384 . S
C246 C247 1.381 . S
C246 H267 0.930 . S
C247 C246 1.381 . S
C247 C249 1.381 . S
C247 C250 1.487 . S
C248 C245 1.382 . S
C248 C249 1.387 . S
C248 H268 0.930 . S
C249 C247 1.381 . S
C249 C248 1.387 . S
C249 H269 0.931 . S
C250 C247 1.487 . S
C250 C257 1.399 . S
C250 N275 1.343 . S
C251 C252 1.384 . S
C251 C253 1.384 . S
C251 H270 0.931 . S
C252 C251 1.384 . S
C252 C255 1.382 . S
C253 C251 1.384 . S
C253 C254 1.381 . S
C253 H271 0.930 . S
C254 C253 1.381 . S
C254 C256 1.381 . S
C254 C257 1.487 . S
C255 C252 1.382 . S
C255 C256 1.387 . S
C255 H272 0.930 . S
C256 C254 1.381 . S
C256 C255 1.387 . S
C256 H273 0.931 . S
C257 C250 1.399 . S
C257 C254 1.487 . S
C257 N274 1.343 . S
H258 C230 0.931 . S
H259 C232 0.930 . S
H260 C234 0.930 . S
H261 C235 0.931 . S
H262 C237 0.931 . S
H263 C239 0.930 . S
H264 C241 0.930 . S
H265 C242 0.931 . S
H266 C244 0.931 . S
H267 C246 0.930 . S
H268 C248 0.930 . S
H269 C249 0.931 . S
H270 C251 0.931 . S
H271 C253 0.930 . S
H272 C255 0.930 . S
H273 C256 0.931 . S
N274 C236 1.343 . S
N274 C257 1.343 . S
N275 C243 1.343 . S
N275 C250 1.343 . S
C276 C277 1.384 . S
C276 C278 1.384 . S
C276 H304 0.931 . S
C277 C276 1.384 . S
C277 C280 1.382 . S
C278 C276 1.384 . S
C278 C279 1.381 . S
C278 H305 0.930 . S
C279 C278 1.381 . S
C279 C281 1.381 . S
C279 C282 1.487 . S
C280 C277 1.382 . S
C280 C281 1.387 . S
C280 H306 0.930 . S
C281 C279 1.381 . S
C281 C280 1.387 . S
C281 H307 0.931 . S
C282 C279 1.487 . S
C282 C289 1.399 1_556 S
C282 N320 1.343 . S
C283 C284 1.384 . S
C283 C285 1.384 . S
C283 H308 0.931 . S
C284 C283 1.384 . S
C284 C287 1.382 . S
C285 C283 1.384 . S
C285 C286 1.381 . S
C285 H309 0.930 . S
C286 C285 1.381 . S
C286 C288 1.381 . S
C286 C289 1.487 . S
C287 C284 1.382 . S
C287 C288 1.387 . S
C287 H310 0.930 . S
C288 C286 1.381 . S
C288 C287 1.387 . S
C288 H311 0.931 . S
C289 C282 1.399 1_554 S
C289 C286 1.487 . S
C289 N321 1.343 . S
C290 C291 1.384 . S
C290 C292 1.384 . S
C290 H312 0.931 . S
C291 C290 1.384 . S
C291 C294 1.382 . S
C292 C290 1.384 . S
C292 C293 1.381 . S
C292 H313 0.930 . S
C293 C292 1.381 . S
C293 C295 1.381 . S
C293 C296 1.487 . S
C294 C291 1.382 . S
C294 C295 1.387 . S
C294 H314 0.930 . S
C295 C293 1.381 . S
C295 C294 1.387 . S
C295 H315 0.931 . S
C296 C293 1.487 . S
C296 C303 1.399 1_554 S
C296 N321 1.343 . S
C297 C298 1.384 . S
C297 C299 1.384 . S
C297 H316 0.931 . S
C298 C297 1.384 . S
C298 C301 1.382 . S
C299 C297 1.384 . S
C299 C300 1.381 . S
C299 H317 0.930 . S
C300 C299 1.381 . S
C300 C302 1.381 . S
C300 C303 1.487 . S
C301 C298 1.382 . S
C301 C302 1.387 . S
C301 H318 0.930 . S
C302 C300 1.381 . S
C302 C301 1.387 . S
C302 H319 0.931 . S
C303 C296 1.399 1_556 S
C303 C300 1.487 . S
C303 N320 1.343 . S
H304 C276 0.931 . S
H305 C278 0.930 . S
H306 C280 0.930 . S
H307 C281 0.931 . S
H308 C283 0.931 . S
H309 C285 0.930 . S
H310 C287 0.930 . S
H311 C288 0.931 . S
H312 C290 0.931 . S
H313 C292 0.930 . S
H314 C294 0.930 . S
H315 C295 0.931 . S
H316 C297 0.931 . S
H317 C299 0.930 . S
H318 C301 0.930 . S
H319 C302 0.931 . S
N320 C282 1.343 . S
N320 C303 1.343 . S
N321 C289 1.343 . S
N321 C296 1.343 . S
C322 C323 1.384 . S
C322 C324 1.384 1_655 S
C322 H350 0.931 . S
C323 C322 1.384 . S
C323 C326 1.382 1_655 S
C324 C322 1.384 1_455 S
C324 C325 1.381 . S
C324 H351 0.930 . S
C325 C324 1.381 . S
C325 C327 1.381 . S
C325 C328 1.487 . S
C326 C323 1.382 1_455 S
C326 C327 1.387 . S
C326 H352 0.930 . S
C327 C325 1.381 . S
C327 C326 1.387 . S
C327 H353 0.931 . S
C328 C325 1.487 . S
C328 C335 1.399 . S
C328 N366 1.343 . S
C329 C330 1.384 . S
C329 C331 1.384 1_655 S
C329 H354 0.931 . S
C330 C329 1.384 . S
C330 C333 1.382 1_655 S
C331 C329 1.384 1_455 S
C331 C332 1.381 . S
C331 H355 0.930 . S
C332 C331 1.381 . S
C332 C334 1.381 . S
C332 C335 1.487 . S
C333 C330 1.382 1_455 S
C333 C334 1.387 . S
C333 H356 0.930 . S
C334 C332 1.381 . S
C334 C333 1.387 . S
C334 H357 0.931 . S
C335 C328 1.399 . S
C335 C332 1.487 . S
C335 N367 1.343 . S
C336 C337 1.384 . S
C336 C338 1.384 . S
C336 H358 0.931 . S
C337 C336 1.384 . S
C337 C340 1.382 . S
C338 C336 1.384 . S
C338 C339 1.381 . S
C338 H359 0.930 . S
C339 C338 1.381 . S
C339 C341 1.381 . S
C339 C342 1.487 . S
C340 C337 1.382 . S
C340 C341 1.387 . S
C340 H360 0.930 . S
C341 C339 1.381 . S
C341 C340 1.387 . S
C341 H361 0.931 . S
C342 C339 1.487 . S
C342 C349 1.399 . S
C342 N367 1.343 . S
C343 C344 1.384 . S
C343 C345 1.384 . S
C343 H362 0.931 . S
C344 C343 1.384 . S
C344 C347 1.382 . S
C345 C343 1.384 . S
C345 C346 1.381 . S
C345 H363 0.930 . S
C346 C345 1.381 . S
C346 C348 1.381 . S
C346 C349 1.487 . S
C347 C344 1.382 . S
C347 C348 1.387 . S
C347 H364 0.930 . S
C348 C346 1.381 . S
C348 C347 1.387 . S
C348 H365 0.931 . S
C349 C342 1.399 . S
C349 C346 1.487 . S
C349 N366 1.343 . S
H350 C322 0.931 . S
H351 C324 0.930 . S
H352 C326 0.930 . S
H353 C327 0.931 . S
H354 C329 0.931 . S
H355 C331 0.930 . S
H356 C333 0.930 . S
H357 C334 0.931 . S
H358 C336 0.931 . S
H359 C338 0.930 . S
H360 C340 0.930 . S
H361 C341 0.931 . S
H362 C343 0.931 . S
H363 C345 0.930 . S
H364 C347 0.930 . S
H365 C348 0.931 . S
N366 C328 1.343 . S
N366 C349 1.343 . S
N367 C335 1.343 . S
N367 C342 1.343 . S
C368 O395 1.312 . S
C368 O396 1.208 . S
C369 O390 1.331 1_655 S
C369 O393 1.244 . S
C370 O392 1.264 1_655 S
C370 O394 1.273 . S
Mg371 O373 1.936 . S
Mg371 O380 2.081 . S
Mg371 O382 2.023 . S
Mg371 O386 2.031 . S
Mg371 O395 2.291 . S
Mg372 O373 1.963 . S
Mg372 O383 1.942 . S
Mg372 O384 1.955 . S
Mg372 O391 1.986 . S
O373 Mg371 1.936 . S
O373 Mg372 1.963 . S
O373 Mg374 1.915 . S
Mg374 O373 1.915 . S
Mg374 O375 1.915 . S
Mg374 O379 2.013 . S
Mg374 O385 2.114 . S
Mg374 O389 2.013 . S
Mg374 O395 2.114 . S
O375 Mg374 1.915 . S
O375 Mg376 1.936 . S
O375 Mg377 1.963 1_455 S
Mg376 O375 1.936 . S
Mg376 O385 2.291 . S
Mg376 O390 2.081 . S
Mg376 O392 2.023 . S
Mg376 O396 2.031 . S
Mg377 O375 1.963 1_655 S
Mg377 O381 1.986 . S
Mg377 O393 1.942 . S
Mg377 O394 1.955 . S
C378 O389 1.191 . S
C378 O391 1.307 . S
O379 Mg374 2.013 . S
O379 C398 1.191 . S
O380 Mg371 2.081 . S
O380 C388 1.331 . S
O381 Mg377 1.986 . S
O381 C398 1.307 1_655 S
O382 Mg371 2.023 . S
O382 C397 1.264 . S
O383 Mg372 1.942 . S
O383 C388 1.244 . S
O384 Mg372 1.955 . S
O384 C397 1.273 . S
O385 Mg374 2.114 . S
O385 Mg376 2.291 . S
O385 C387 1.312 . S
O386 Mg371 2.031 . S
O386 C387 1.208 . S
C387 O385 1.312 . S
C387 O386 1.208 . S
C388 O380 1.331 . S
C388 O383 1.244 . S
O389 Mg374 2.013 . S
O389 C378 1.191 . S
O390 C369 1.331 1_455 S
O390 Mg376 2.081 . S
O391 Mg372 1.986 . S
O391 C378 1.307 . S
O392 C370 1.264 1_455 S
O392 Mg376 2.023 . S
O393 C369 1.244 . S
O393 Mg377 1.942 . S
O394 C370 1.273 . S
O394 Mg377 1.955 . S
O395 C368 1.312 . S
O395 Mg371 2.291 . S
O395 Mg374 2.114 . S
O396 C368 1.208 . S
O396 Mg376 2.031 . S
C397 O382 1.264 . S
C397 O384 1.273 . S
C398 O379 1.191 . S
C398 O381 1.307 1_455 S
C399 O426 1.312 . S
C399 O427 1.208 . S
C400 O421 1.331 . S
C400 O424 1.244 . S
C401 O423 1.264 . S
C401 O425 1.273 . S
Mg402 O404 1.936 . S
Mg402 O411 2.081 . S
Mg402 O413 2.023 . S
Mg402 O417 2.031 . S
Mg402 O426 2.291 . S
Mg403 O404 1.963 . S
Mg403 O414 1.942 . S
Mg403 O415 1.955 . S
Mg403 O422 1.986 . S
O404 Mg402 1.936 . S
O404 Mg403 1.963 . S
O404 Mg405 1.915 . S
Mg405 O404 1.915 . S
Mg405 O406 1.915 . S
Mg405 O410 2.013 . S
Mg405 O416 2.114 . S
Mg405 O420 2.013 . S
Mg405 O426 2.114 . S
O406 Mg405 1.915 . S
O406 Mg407 1.936 . S
O406 Mg408 1.963 . S
Mg407 O406 1.936 . S
Mg407 O416 2.291 . S
Mg407 O421 2.081 . S
Mg407 O423 2.023 . S
Mg407 O427 2.031 . S
Mg408 O406 1.963 . S
Mg408 O412 1.986 . S
Mg408 O424 1.942 . S
Mg408 O425 1.955 . S
C409 O420 1.191 . S
C409 O422 1.307 . S
O410 Mg405 2.013 . S
O410 C429 1.191 . S
O411 Mg402 2.081 . S
O411 C419 1.331 . S
O412 Mg408 1.986 . S
O412 C429 1.307 . S
O413 Mg402 2.023 . S
O413 C428 1.264 . S
O414 Mg403 1.942 . S
O414 C419 1.244 . S
O415 Mg403 1.955 . S
O415 C428 1.273 . S
O416 Mg405 2.114 . S
O416 Mg407 2.291 . S
O416 C418 1.312 . S
O417 Mg402 2.031 . S
O417 C418 1.208 . S
C418 O416 1.312 . S
C418 O417 1.208 . S
C419 O411 1.331 . S
C419 O414 1.244 . S
O420 Mg405 2.013 . S
O420 C409 1.191 . S
O421 C400 1.331 . S
O421 Mg407 2.081 . S
O422 Mg403 1.986 . S
O422 C409 1.307 . S
O423 C401 1.264 . S
O423 Mg407 2.023 . S
O424 C400 1.244 . S
O424 Mg408 1.942 . S
O425 C401 1.273 . S
O425 Mg408 1.955 . S
O426 C399 1.312 . S
O426 Mg402 2.291 . S
O426 Mg405 2.114 . S
O427 C399 1.208 . S
O427 Mg407 2.031 . S
C428 O413 1.264 . S
C428 O415 1.273 . S
C429 O410 1.191 . S
C429 O412 1.307 . S
C430 O457 1.312 . S
C430 O458 1.208 . S
C431 O452 1.331 . S
C431 O455 1.244 . S
C432 O454 1.264 . S
C432 O456 1.273 . S
Mg433 O435 1.936 . S
Mg433 O442 2.081 . S
Mg433 O444 2.023 . S
Mg433 O448 2.031 . S
Mg433 O457 2.291 . S
Mg434 O435 1.963 . S
Mg434 O445 1.942 . S
Mg434 O446 1.955 . S
Mg434 O453 1.986 . S
O435 Mg433 1.936 . S
O435 Mg434 1.963 . S
O435 Mg436 1.915 . S
Mg436 O435 1.915 . S
Mg436 O437 1.915 . S
Mg436 O441 2.013 . S
Mg436 O447 2.114 . S
Mg436 O451 2.013 . S
Mg436 O457 2.114 . S
O437 Mg436 1.915 . S
O437 Mg438 1.936 . S
O437 Mg439 1.963 . S
Mg438 O437 1.936 . S
Mg438 O447 2.291 . S
Mg438 O452 2.081 . S
Mg438 O454 2.023 . S
Mg438 O458 2.031 . S
Mg439 O437 1.963 . S
Mg439 O443 1.986 . S
Mg439 O455 1.942 . S
Mg439 O456 1.955 . S
C440 O451 1.191 . S
C440 O453 1.307 . S
O441 Mg436 2.013 . S
O441 C460 1.191 . S
O442 Mg433 2.081 . S
O442 C450 1.331 . S
O443 Mg439 1.986 . S
O443 C460 1.307 . S
O444 Mg433 2.023 . S
O444 C459 1.264 . S
O445 Mg434 1.942 . S
O445 C450 1.244 . S
O446 Mg434 1.955 . S
O446 C459 1.273 . S
O447 Mg436 2.114 . S
O447 Mg438 2.291 . S
O447 C449 1.312 . S
O448 Mg433 2.031 . S
O448 C449 1.208 . S
C449 O447 1.312 . S
C449 O448 1.208 . S
C450 O442 1.331 . S
C450 O445 1.244 . S
O451 Mg436 2.013 . S
O451 C440 1.191 . S
O452 C431 1.331 . S
O452 Mg438 2.081 . S
O453 Mg434 1.986 . S
O453 C440 1.307 . S
O454 C432 1.264 . S
O454 Mg438 2.023 . S
O455 C431 1.244 . S
O455 Mg439 1.942 . S
O456 C432 1.273 . S
O456 Mg439 1.955 . S
O457 C430 1.312 . S
O457 Mg433 2.291 . S
O457 Mg436 2.114 . S
O458 C430 1.208 . S
O458 Mg438 2.031 . S
C459 O444 1.264 . S
C459 O446 1.273 . S
C460 O441 1.191 . S
C460 O443 1.307 . S
C461 O488 1.312 . S
C461 O489 1.208 . S
C462 O483 1.331 . S
C462 O486 1.244 . S
C463 O485 1.264 . S
C463 O487 1.273 . S
Mg464 O466 1.936 . S
Mg464 O473 2.081 . S
Mg464 O475 2.023 . S
Mg464 O479 2.031 . S
Mg464 O488 2.291 . S
Mg465 O466 1.963 1_655 S
Mg465 O476 1.942 . S
Mg465 O477 1.955 . S
Mg465 O484 1.986 . S
O466 Mg464 1.936 . S
O466 Mg465 1.963 1_455 S
O466 Mg467 1.915 . S
Mg467 O466 1.915 . S
Mg467 O468 1.915 . S
Mg467 O472 2.013 . S
Mg467 O478 2.114 . S
Mg467 O482 2.013 . S
Mg467 O488 2.114 . S
O468 Mg467 1.915 . S
O468 Mg469 1.936 . S
O468 Mg470 1.963 . S
Mg469 O468 1.936 . S
Mg469 O478 2.291 . S
Mg469 O483 2.081 . S
Mg469 O485 2.023 . S
Mg469 O489 2.031 . S
Mg470 O468 1.963 . S
Mg470 O474 1.986 . S
Mg470 O486 1.942 . S
Mg470 O487 1.955 . S
C471 O482 1.191 . S
C471 O484 1.307 1_455 S
O472 Mg467 2.013 . S
O472 C491 1.191 . S
O473 Mg464 2.081 . S
O473 C481 1.331 1_455 S
O474 Mg470 1.986 . S
O474 C491 1.307 . S
O475 Mg464 2.023 . S
O475 C490 1.264 1_455 S
O476 Mg465 1.942 . S
O476 C481 1.244 . S
O477 Mg465 1.955 . S
O477 C490 1.273 . S
O478 Mg467 2.114 . S
O478 Mg469 2.291 . S
O478 C480 1.312 . S
O479 Mg464 2.031 . S
O479 C480 1.208 . S
C480 O478 1.312 . S
C480 O479 1.208 . S
C481 O473 1.331 1_655 S
C481 O476 1.244 . S
O482 Mg467 2.013 . S
O482 C471 1.191 . S
O483 C462 1.331 . S
O483 Mg469 2.081 . S
O484 Mg465 1.986 . S
O484 C471 1.307 1_655 S
O485 C463 1.264 . S
O485 Mg469 2.023 . S
O486 C462 1.244 . S
O486 Mg470 1.942 . S
O487 C463 1.273 . S
O487 Mg470 1.955 . S
O488 C461 1.312 . S
O488 Mg464 2.291 . S
O488 Mg467 2.114 . S
O489 C461 1.208 . S
O489 Mg469 2.031 . S
C490 O475 1.264 1_655 S
C490 O477 1.273 . S
C491 O472 1.191 . S
C491 O474 1.307 . S
C492 C493 1.391 . S
C492 C494 1.394 . S
C492 H508 0.931 . S
C493 C492 1.391 . S
C493 C497 1.376 . S
C494 C492 1.394 . S
C494 C495 1.369 . S
C494 C498 1.531 . S
C495 C494 1.369 . S
C495 C496 1.410 . S
C495 C503 1.503 . S
C496 C495 1.410 . S
C496 C497 1.392 . S
C496 C499 1.511 . S
C497 C493 1.376 . S
C497 C496 1.392 . S
C497 H509 0.929 . S
C498 C494 1.531 . S
C498 H510 0.960 . S
C498 H511 0.962 . S
C498 H512 0.960 . S
C499 C496 1.511 . S
C499 H513 0.961 . S
C499 H514 0.961 . S
C499 H515 0.961 . S
C500 C501 1.370 . S
C500 C502 1.363 . S
C500 H516 0.931 . S
C501 C500 1.370 . S
C501 C505 1.408 . S
C502 C500 1.363 . S
C502 C503 1.370 . S
C502 C506 1.524 . S
C503 C495 1.503 . S
C503 C502 1.370 . S
C503 C504 1.403 . S
C504 C503 1.403 . S
C504 C505 1.404 . S
C504 C507 1.539 . S
C505 C501 1.408 . S
C505 C504 1.404 . S
C505 H517 0.930 . S
C506 C502 1.524 . S
C506 H518 0.956 . S
C506 H519 0.961 . S
C506 H520 0.961 . S
C507 C504 1.539 . S
C507 H521 0.958 . S
C507 H522 0.961 . S
C507 H523 0.960 . S
H508 C492 0.931 . S
H509 C497 0.929 . S
H510 C498 0.960 . S
H511 C498 0.962 . S
H512 C498 0.960 . S
H513 C499 0.961 . S
H514 C499 0.961 . S
H515 C499 0.961 . S
H516 C500 0.931 . S
H517 C505 0.930 . S
H518 C506 0.956 . S
H519 C506 0.961 . S
H520 C506 0.961 . S
H521 C507 0.958 . S
H522 C507 0.961 . S
H523 C507 0.960 . S
C524 C525 1.391 . S
C524 C526 1.394 . S
C524 H540 0.931 . S
C525 C524 1.391 . S
C525 C529 1.376 . S
C526 C524 1.394 . S
C526 C527 1.369 . S
C526 C530 1.531 . S
C527 C526 1.369 . S
C527 C528 1.410 . S
C527 C535 1.503 1_565 S
C528 C527 1.410 . S
C528 C529 1.392 . S
C528 C531 1.511 . S
C529 C525 1.376 . S
C529 C528 1.392 . S
C529 H541 0.929 . S
C530 C526 1.531 . S
C530 H542 0.960 . S
C530 H543 0.962 . S
C530 H544 0.960 . S
C531 C528 1.511 . S
C531 H545 0.961 . S
C531 H546 0.961 1_565 S
C531 H547 0.961 . S
C532 C533 1.370 . S
C532 C534 1.363 . S
C532 H548 0.931 . S
C533 C532 1.370 . S
C533 C537 1.408 . S
C534 C532 1.363 . S
C534 C535 1.370 . S
C534 C538 1.524 . S
C535 C527 1.503 1_545 S
C535 C534 1.370 . S
C535 C536 1.403 . S
C536 C535 1.403 . S
C536 C537 1.404 . S
C536 C539 1.539 1_545 S
C537 C533 1.408 . S
C537 C536 1.404 . S
C537 H549 0.930 . S
C538 C534 1.524 . S
C538 H550 0.956 . S
C538 H551 0.961 . S
C538 H552 0.961 . S
C539 C536 1.539 1_565 S
C539 H553 0.958 . S
C539 H554 0.961 . S
C539 H555 0.960 . S
H540 C524 0.931 . S
H541 C529 0.929 . S
H542 C530 0.960 . S
H543 C530 0.962 . S
H544 C530 0.960 . S
H545 C531 0.961 . S
H546 C531 0.961 1_545 S
H547 C531 0.961 . S
H548 C532 0.931 . S
H549 C537 0.930 . S
H550 C538 0.956 . S
H551 C538 0.961 . S
H552 C538 0.961 . S
H553 C539 0.958 . S
H554 C539 0.961 . S
H555 C539 0.960 . S
C556 C557 1.391 . S
C556 C558 1.394 . S
C556 H572 0.931 . S
C557 C556 1.391 . S
C557 C561 1.376 . S
C558 C556 1.394 . S
C558 C559 1.369 . S
C558 C562 1.531 . S
C559 C558 1.369 . S
C559 C560 1.410 . S
C559 C567 1.503 . S
C560 C559 1.410 . S
C560 C561 1.392 . S
C560 C563 1.511 . S
C561 C557 1.376 . S
C561 C560 1.392 . S
C561 H573 0.929 . S
C562 C558 1.531 . S
C562 H574 0.960 . S
C562 H575 0.962 . S
C562 H576 0.960 . S
C563 C560 1.511 . S
C563 H577 0.961 . S
C563 H578 0.961 . S
C563 H579 0.961 . S
C564 C565 1.370 . S
C564 C566 1.363 . S
C564 H580 0.931 . S
C565 C564 1.370 . S
C565 C569 1.408 . S
C566 C564 1.363 . S
C566 C567 1.370 . S
C566 C570 1.524 . S
C567 C559 1.503 . S
C567 C566 1.370 . S
C567 C568 1.403 . S
C568 C567 1.403 . S
C568 C569 1.404 . S
C568 C571 1.539 . S
C569 C565 1.408 . S
C569 C568 1.404 . S
C569 H581 0.930 . S
C570 C566 1.524 . S
C570 H582 0.956 . S
C570 H583 0.961 . S
C570 H584 0.961 . S
C571 C568 1.539 . S
C571 H585 0.958 . S
C571 H586 0.961 . S
C571 H587 0.960 . S
H572 C556 0.931 . S
H573 C561 0.929 . S
H574 C562 0.960 . S
H575 C562 0.962 . S
H576 C562 0.960 . S
H577 C563 0.961 . S
H578 C563 0.961 . S
H579 C563 0.961 . S
H580 C564 0.931 . S
H581 C569 0.930 . S
H582 C570 0.956 . S
H583 C570 0.961 . S
H584 C570 0.961 . S
H585 C571 0.958 . S
H586 C571 0.961 . S
H587 C571 0.960 . S
C588 C589 1.391 . S
C588 C590 1.394 . S
C588 H604 0.931 . S
C589 C588 1.391 . S
C589 C593 1.376 . S
C590 C588 1.394 . S
C590 C591 1.369 . S
C590 C594 1.531 1_545 S
C591 C590 1.369 . S
C591 C592 1.410 . S
C591 C599 1.503 1_545 S
C592 C591 1.410 . S
C592 C593 1.392 . S
C592 C595 1.511 . S
C593 C589 1.376 . S
C593 C592 1.392 . S
C593 H605 0.929 . S
C594 C590 1.531 1_565 S
C594 H606 0.960 . S
C594 H607 0.962 . S
C594 H608 0.960 . S
C595 C592 1.511 . S
C595 H609 0.961 . S
C595 H610 0.961 . S
C595 H611 0.961 . S
C596 C597 1.370 . S
C596 C598 1.363 . S
C596 H612 0.931 . S
C597 C596 1.370 . S
C597 C601 1.408 . S
C598 C596 1.363 . S
C598 C599 1.370 . S
C598 C602 1.524 1_565 S
C599 C591 1.503 1_565 S
C599 C598 1.370 . S
C599 C600 1.403 . S
C600 C599 1.403 . S
C600 C601 1.404 . S
C600 C603 1.539 . S
C601 C597 1.408 . S
C601 C600 1.404 . S
C601 H613 0.930 . S
C602 C598 1.524 1_545 S
C602 H614 0.956 . S
C602 H615 0.961 . S
C602 H616 0.961 . S
C603 C600 1.539 . S
C603 H617 0.958 . S
C603 H618 0.961 . S
C603 H619 0.960 . S
H604 C588 0.931 . S
H605 C593 0.929 . S
H606 C594 0.960 . S
H607 C594 0.962 . S
H608 C594 0.960 . S
H609 C595 0.961 . S
H610 C595 0.961 . S
H611 C595 0.961 . S
H612 C596 0.931 . S
H613 C601 0.930 . S
H614 C602 0.956 . S
H615 C602 0.961 . S
H616 C602 0.961 . S
H617 C603 0.958 . S
H618 C603 0.961 . S
H619 C603 0.960 . S
C620 C621 1.391 . S
C620 C622 1.394 . S
C620 H636 0.931 . S
C621 C620 1.391 . S
C621 C625 1.376 . S
C622 C620 1.394 . S
C622 C623 1.369 . S
C622 C626 1.531 . S
C623 C622 1.369 . S
C623 C624 1.410 . S
C623 C631 1.503 . S
C624 C623 1.410 . S
C624 C625 1.392 . S
C624 C627 1.511 . S
C625 C621 1.376 . S
C625 C624 1.392 . S
C625 H637 0.929 . S
C626 C622 1.531 . S
C626 H638 0.960 . S
C626 H639 0.962 . S
C626 H640 0.960 . S
C627 C624 1.511 . S
C627 H641 0.961 . S
C627 H642 0.961 . S
C627 H643 0.961 . S
C628 C629 1.370 . S
C628 C630 1.363 . S
C628 H644 0.931 . S
C629 C628 1.370 . S
C629 C633 1.408 . S
C630 C628 1.363 . S
C630 C631 1.370 . S
C630 C634 1.524 . S
C631 C623 1.503 . S
C631 C630 1.370 . S
C631 C632 1.403 . S
C632 C631 1.403 . S
C632 C633 1.404 . S
C632 C635 1.539 . S
C633 C629 1.408 . S
C633 C632 1.404 . S
C633 H645 0.930 . S
C634 C630 1.524 . S
C634 H646 0.956 . S
C634 H647 0.961 . S
C634 H648 0.961 . S
C635 C632 1.539 . S
C635 H649 0.958 . S
C635 H650 0.961 . S
C635 H651 0.960 . S
H636 C620 0.931 . S
H637 C625 0.929 . S
H638 C626 0.960 . S
H639 C626 0.962 . S
H640 C626 0.960 . S
H641 C627 0.961 . S
H642 C627 0.961 . S
H643 C627 0.961 . S
H644 C628 0.931 . S
H645 C633 0.930 . S
H646 C634 0.956 . S
H647 C634 0.961 . S
H648 C634 0.961 . S
H649 C635 0.958 . S
H650 C635 0.961 . S
H651 C635 0.960 . S
C652 C653 1.391 . S
C652 C654 1.394 . S
C652 H668 0.931 . S
C653 C652 1.391 . S
C653 C657 1.376 . S
C654 C652 1.394 . S
C654 C655 1.369 . S
C654 C658 1.531 1_565 S
C655 C654 1.369 . S
C655 C656 1.410 . S
C655 C663 1.503 1_565 S
C656 C655 1.410 . S
C656 C657 1.392 . S
C656 C659 1.511 . S
C657 C653 1.376 . S
C657 C656 1.392 . S
C657 H669 0.929 . S
C658 C654 1.531 1_545 S
C658 H670 0.960 . S
C658 H671 0.962 . S
C658 H672 0.960 . S
C659 C656 1.511 . S
C659 H673 0.961 . S
C659 H674 0.961 . S
C659 H675 0.961 . S
C660 C661 1.370 . S
C660 C662 1.363 . S
C660 H676 0.931 . S
C661 C660 1.370 . S
C661 C665 1.408 . S
C662 C660 1.363 . S
C662 C663 1.370 . S
C662 C666 1.524 1_545 S
C663 C655 1.503 1_545 S
C663 C662 1.370 . S
C663 C664 1.403 . S
C664 C663 1.403 . S
C664 C665 1.404 . S
C664 C667 1.539 . S
C665 C661 1.408 . S
C665 C664 1.404 . S
C665 H677 0.930 . S
C666 C662 1.524 1_565 S
C666 H678 0.956 . S
C666 H679 0.961 . S
C666 H680 0.961 . S
C667 C664 1.539 . S
C667 H681 0.958 . S
C667 H682 0.961 . S
C667 H683 0.960 . S
H668 C652 0.931 . S
H669 C657 0.929 . S
H670 C658 0.960 . S
H671 C658 0.962 . S
H672 C658 0.960 . S
H673 C659 0.961 . S
H674 C659 0.961 . S
H675 C659 0.961 . S
H676 C660 0.931 . S
H677 C665 0.930 . S
H678 C666 0.956 . S
H679 C666 0.961 . S
H680 C666 0.961 . S
H681 C667 0.958 . S
H682 C667 0.961 . S
H683 C667 0.960 . S
C684 C685 1.391 . S
C684 C686 1.394 . S
C684 H700 0.931 . S
C685 C684 1.391 . S
C685 C689 1.376 . S
C686 C684 1.394 . S
C686 C687 1.369 . S
C686 C690 1.531 . S
C687 C686 1.369 . S
C687 C688 1.410 . S
C687 C695 1.503 . S
C688 C687 1.410 . S
C688 C689 1.392 . S
C688 C691 1.511 . S
C689 C685 1.376 . S
C689 C688 1.392 . S
C689 H701 0.929 . S
C690 C686 1.531 . S
C690 H702 0.960 . S
C690 H703 0.962 . S
C690 H704 0.960 . S
C691 C688 1.511 . S
C691 H705 0.961 . S
C691 H706 0.961 . S
C691 H707 0.961 . S
C692 C693 1.370 . S
C692 C694 1.363 . S
C692 H708 0.931 . S
C693 C692 1.370 . S
C693 C697 1.408 . S
C694 C692 1.363 . S
C694 C695 1.370 . S
C694 C698 1.524 . S
C695 C687 1.503 . S
C695 C694 1.370 . S
C695 C696 1.403 . S
C696 C695 1.403 . S
C696 C697 1.404 . S
C696 C699 1.539 . S
C697 C693 1.408 . S
C697 C696 1.404 . S
C697 H709 0.930 . S
C698 C694 1.524 . S
C698 H710 0.956 . S
C698 H711 0.961 . S
C698 H712 0.961 . S
C699 C696 1.539 . S
C699 H713 0.958 . S
C699 H714 0.961 . S
C699 H715 0.960 . S
H700 C684 0.931 . S
H701 C689 0.929 . S
H702 C690 0.960 . S
H703 C690 0.962 . S
H704 C690 0.960 . S
H705 C691 0.961 . S
H706 C691 0.961 . S
H707 C691 0.961 . S
H708 C692 0.931 . S
H709 C697 0.930 . S
H710 C698 0.956 . S
H711 C698 0.961 . S
H712 C698 0.961 . S
H713 C699 0.958 . S
H714 C699 0.961 . S
H715 C699 0.960 . S
C716 C717 1.391 . S
C716 C718 1.394 . S
C716 H732 0.931 . S
C717 C716 1.391 . S
C717 C721 1.376 . S
C718 C716 1.394 . S
C718 C719 1.369 . S
C718 C722 1.531 1_545 S
C719 C718 1.369 . S
C719 C720 1.410 . S
C719 C727 1.503 1_545 S
C720 C719 1.410 . S
C720 C721 1.392 . S
C720 C723 1.511 . S
C721 C717 1.376 . S
C721 C720 1.392 . S
C721 H733 0.929 . S
C722 C718 1.531 1_565 S
C722 H734 0.960 . S
C722 H735 0.962 . S
C722 H736 0.960 . S
C723 C720 1.511 . S
C723 H737 0.961 . S
C723 H738 0.961 . S
C723 H739 0.961 . S
C724 C725 1.370 . S
C724 C726 1.363 . S
C724 H740 0.931 . S
C725 C724 1.370 . S
C725 C729 1.408 . S
C726 C724 1.363 . S
C726 C727 1.370 . S
C726 C730 1.524 . S
C727 C719 1.503 1_565 S
C727 C726 1.370 . S
C727 C728 1.403 . S
C728 C727 1.403 . S
C728 C729 1.404 . S
C728 C731 1.539 . S
C729 C725 1.408 . S
C729 C728 1.404 . S
C729 H741 0.930 . S
C730 C726 1.524 . S
C730 H742 0.956 . S
C730 H743 0.961 1_565 S
C730 H744 0.961 . S
C731 C728 1.539 . S
C731 H745 0.958 . S
C731 H746 0.961 . S
C731 H747 0.960 1_565 S
H732 C716 0.931 . S
H733 C721 0.929 . S
H734 C722 0.960 . S
H735 C722 0.962 . S
H736 C722 0.960 . S
H737 C723 0.961 . S
H738 C723 0.961 . S
H739 C723 0.961 . S
H740 C724 0.931 . S
H741 C729 0.930 . S
H742 C730 0.956 . S
H743 C730 0.961 1_545 S
H744 C730 0.961 . S
H745 C731 0.958 . S
H746 C731 0.961 . S
H747 C731 0.960 1_545 S
C748 C749 1.391 . S
C748 C750 1.394 . S
C748 H764 0.931 . S
C749 C748 1.391 . S
C749 C753 1.376 . S
C750 C748 1.394 . S
C750 C751 1.369 . S
C750 C754 1.531 . S
C751 C750 1.369 . S
C751 C752 1.410 . S
C751 C759 1.503 . S
C752 C751 1.410 . S
C752 C753 1.392 . S
C752 C755 1.511 . S
C753 C749 1.376 . S
C753 C752 1.392 . S
C753 H765 0.929 . S
C754 C750 1.531 . S
C754 H766 0.960 . S
C754 H767 0.962 . S
C754 H768 0.960 . S
C755 C752 1.511 . S
C755 H769 0.961 . S
C755 H770 0.961 . S
C755 H771 0.961 . S
C756 C757 1.370 . S
C756 C758 1.363 . S
C756 H772 0.931 . S
C757 C756 1.370 . S
C757 C761 1.408 . S
C758 C756 1.363 . S
C758 C759 1.370 . S
C758 C762 1.524 . S
C759 C751 1.503 . S
C759 C758 1.370 . S
C759 C760 1.403 . S
C760 C759 1.403 . S
C760 C761 1.404 . S
C760 C763 1.539 . S
C761 C757 1.408 . S
C761 C760 1.404 . S
C761 H773 0.930 . S
C762 C758 1.524 . S
C762 H774 0.956 . S
C762 H775 0.961 . S
C762 H776 0.961 . S
C763 C760 1.539 . S
C763 H777 0.958 . S
C763 H778 0.961 . S
C763 H779 0.960 . S
H764 C748 0.931 . S
H765 C753 0.929 . S
H766 C754 0.960 . S
H767 C754 0.962 . S
H768 C754 0.960 . S
H769 C755 0.961 . S
H770 C755 0.961 . S
H771 C755 0.961 . S
H772 C756 0.931 . S
H773 C761 0.930 . S
H774 C762 0.956 . S
H775 C762 0.961 . S
H776 C762 0.961 . S
H777 C763 0.958 . S
H778 C763 0.961 . S
H779 C763 0.960 . S
C780 C781 1.391 . S
C780 C782 1.394 . S
C780 H796 0.931 . S
C781 C780 1.391 . S
C781 C785 1.376 . S
C782 C780 1.394 . S
C782 C783 1.369 . S
C782 C786 1.531 . S
C783 C782 1.369 . S
C783 C784 1.410 . S
C783 C791 1.503 . S
C784 C783 1.410 . S
C784 C785 1.392 . S
C784 C787 1.511 . S
C785 C781 1.376 . S
C785 C784 1.392 . S
C785 H797 0.929 1_565 S
C786 C782 1.531 . S
C786 H798 0.960 . S
C786 H799 0.962 . S
C786 H800 0.960 . S
C787 C784 1.511 . S
C787 H801 0.961 . S
C787 H802 0.961 . S
C787 H803 0.961 . S
C788 C789 1.370 . S
C788 C790 1.363 . S
C788 H804 0.931 . S
C789 C788 1.370 . S
C789 C793 1.408 . S
C790 C788 1.363 . S
C790 C791 1.370 . S
C790 C794 1.524 . S
C791 C783 1.503 . S
C791 C790 1.370 . S
C791 C792 1.403 . S
C792 C791 1.403 . S
C792 C793 1.404 . S
C792 C795 1.539 . S
C793 C789 1.408 . S
C793 C792 1.404 . S
C793 H805 0.930 . S
C794 C790 1.524 . S
C794 H806 0.956 . S
C794 H807 0.961 . S
C794 H808 0.961 . S
C795 C792 1.539 . S
C795 H809 0.958 . S
C795 H810 0.961 . S
C795 H811 0.960 . S
H796 C780 0.931 . S
H797 C785 0.929 1_545 S
H798 C786 0.960 . S
H799 C786 0.962 . S
H800 C786 0.960 . S
H801 C787 0.961 . S
H802 C787 0.961 . S
H803 C787 0.961 . S
H804 C788 0.931 . S
H805 C793 0.930 . S
H806 C794 0.956 . S
H807 C794 0.961 . S
H808 C794 0.961 . S
H809 C795 0.958 . S
H810 C795 0.961 . S
H811 C795 0.960 . S
C812 C813 1.391 . S
C812 C814 1.394 . S
C812 H828 0.931 . S
C813 C812 1.391 . S
C813 C817 1.376 . S
C814 C812 1.394 . S
C814 C815 1.369 . S
C814 C818 1.531 . S
C815 C814 1.369 . S
C815 C816 1.410 . S
C815 C823 1.503 . S
C816 C815 1.410 . S
C816 C817 1.392 . S
C816 C819 1.511 . S
C817 C813 1.376 . S
C817 C816 1.392 . S
C817 H829 0.929 . S
C818 C814 1.531 . S
C818 H830 0.960 . S
C818 H831 0.962 . S
C818 H832 0.960 . S
C819 C816 1.511 . S
C819 H833 0.961 . S
C819 H834 0.961 . S
C819 H835 0.961 . S
C820 C821 1.370 . S
C820 C822 1.363 1_455 S
C820 H836 0.931 . S
C821 C820 1.370 . S
C821 C825 1.408 1_455 S
C822 C820 1.363 1_655 S
C822 C823 1.370 . S
C822 C826 1.524 . S
C823 C815 1.503 . S
C823 C822 1.370 . S
C823 C824 1.403 . S
C824 C823 1.403 . S
C824 C825 1.404 . S
C824 C827 1.539 . S
C825 C821 1.408 1_655 S
C825 C824 1.404 . S
C825 H837 0.930 . S
C826 C822 1.524 . S
C826 H838 0.956 . S
C826 H839 0.961 . S
C826 H840 0.974 . S
C827 C824 1.539 . S
C827 H841 0.958 . S
C827 H842 0.961 . S
C827 H843 0.960 . S
H828 C812 0.931 . S
H829 C817 0.929 . S
H830 C818 0.960 . S
H831 C818 0.962 . S
H832 C818 0.960 . S
H833 C819 0.961 . S
H834 C819 0.961 . S
H835 C819 0.961 . S
H836 C820 0.931 . S
H837 C825 0.930 . S
H838 C826 0.956 . S
H839 C826 0.961 . S
H840 C826 0.974 . S
H841 C827 0.958 . S
H842 C827 0.961 . S
H843 C827 0.960 . S
C844 C845 1.391 1_565 S
C844 C846 1.394 1_565 S
C844 H860 0.931 . S
C845 C844 1.391 1_545 S
C845 C849 1.376 . S
C846 C844 1.394 1_545 S
C846 C847 1.369 . S
C846 C850 1.531 . S
C847 C846 1.369 . S
C847 C848 1.410 . S
C847 C855 1.503 . S
C848 C847 1.410 . S
C848 C849 1.392 . S
C848 C851 1.511 . S
C849 C845 1.376 . S
C849 C848 1.392 . S
C849 H861 0.929 . S
C850 C846 1.531 . S
C850 H862 0.960 1_655 S
C850 H863 0.962 . S
C850 H864 0.960 1_645 S
C851 C848 1.511 . S
C851 H865 0.961 . S
C851 H866 0.961 . S
C851 H867 0.961 . S
C852 C853 1.370 1_655 S
C852 C854 1.363 . S
C852 H868 0.931 . S
C853 C852 1.370 1_455 S
C853 C857 1.408 . S
C854 C852 1.363 . S
C854 C855 1.370 . S
C854 C858 1.524 . S
C855 C847 1.503 . S
C855 C854 1.370 . S
C855 C856 1.403 1_655 S
C856 C855 1.403 1_455 S
C856 C857 1.404 . S
C856 C859 1.539 . S
C857 C853 1.408 . S
C857 C856 1.404 . S
C857 H869 0.930 . S
C858 C854 1.524 . S
C858 H870 0.956 . S
C858 H871 0.961 . S
C858 H872 0.961 . S
C859 C856 1.539 . S
C859 H873 0.958 . S
C859 H874 0.961 . S
C859 H875 0.960 . S
H860 C844 0.931 . S
H861 C849 0.929 . S
H862 C850 0.960 1_455 S
H863 C850 0.962 . S
H864 C850 0.960 1_465 S
H865 C851 0.961 . S
H866 C851 0.961 . S
H867 C851 0.961 . S
H868 C852 0.931 . S
H869 C857 0.930 . S
H870 C858 0.956 . S
H871 C858 0.961 . S
H872 C858 0.961 . S
H873 C859 0.958 . S
H874 C859 0.961 . S
H875 C859 0.960 . S
C876 C877 1.391 . S
C876 C878 1.394 . S
C876 H892 0.931 . S
C877 C876 1.391 . S
C877 C881 1.376 . S
C878 C876 1.394 . S
C878 C879 1.369 . S
C878 C882 1.531 . S
C879 C878 1.369 . S
C879 C880 1.410 . S
C879 C887 1.503 . S
C880 C879 1.410 . S
C880 C881 1.392 . S
C880 C883 1.511 . S
C881 C877 1.376 . S
C881 C880 1.392 . S
C881 H893 0.929 . S
C882 C878 1.531 . S
C882 H894 0.960 . S
C882 H895 0.962 . S
C882 H896 0.960 . S
C883 C880 1.511 . S
C883 H897 0.961 . S
C883 H898 0.961 . S
C883 H899 0.961 . S
C884 C885 1.370 . S
C884 C886 1.363 . S
C884 H900 0.931 . S
C885 C884 1.370 . S
C885 C889 1.408 . S
C886 C884 1.363 . S
C886 C887 1.370 . S
C886 C890 1.524 . S
C887 C879 1.503 . S
C887 C886 1.370 . S
C887 C888 1.403 . S
C888 C887 1.403 . S
C888 C889 1.404 . S
C888 C891 1.539 . S
C889 C885 1.408 . S
C889 C888 1.404 . S
C889 H901 0.930 . S
C890 C886 1.524 . S
C890 H902 0.956 . S
C890 H903 0.961 . S
C890 H904 0.961 . S
C891 C888 1.539 . S
C891 H905 0.958 . S
C891 H906 0.961 . S
C891 H907 0.960 . S
H892 C876 0.931 . S
H893 C881 0.929 . S
H894 C882 0.960 . S
H895 C882 0.962 . S
H896 C882 0.960 . S
H897 C883 0.961 . S
H898 C883 0.961 . S
H899 C883 0.961 . S
H900 C884 0.931 . S
H901 C889 0.930 . S
H902 C890 0.956 . S
H903 C890 0.961 . S
H904 C890 0.961 . S
H905 C891 0.958 . S
H906 C891 0.961 . S
H907 C891 0.960 . S
C908 C909 1.391 . S
C908 C910 1.394 . S
C908 H924 0.931 . S
C909 C908 1.391 . S
C909 C913 1.376 1_565 S
C910 C908 1.394 . S
C910 C911 1.369 . S
C910 C914 1.531 . S
C911 C910 1.369 . S
C911 C912 1.410 . S
C911 C919 1.503 . S
C912 C911 1.410 . S
C912 C913 1.392 1_565 S
C912 C915 1.511 1_655 S
C913 C909 1.376 1_545 S
C913 C912 1.392 1_545 S
C913 H925 0.929 . S
C914 C910 1.531 . S
C914 H926 0.960 . S
C914 H927 0.962 . S
C914 H928 0.960 . S
C915 C912 1.511 1_455 S
C915 H929 0.961 1_565 S
C915 H930 0.961 . S
C915 H931 0.961 1_565 S
C916 C917 1.370 . S
C916 C918 1.363 1_455 S
C916 H932 0.931 . S
C917 C916 1.370 . S
C917 C921 1.408 1_455 S
C918 C916 1.363 1_655 S
C918 C919 1.370 . S
C918 C922 1.524 1_655 S
C919 C911 1.503 . S
C919 C918 1.370 . S
C919 C920 1.403 . S
C920 C919 1.403 . S
C920 C921 1.404 . S
C920 C923 1.539 . S
C921 C917 1.408 1_655 S
C921 C920 1.404 . S
C921 H933 0.930 . S
C922 C918 1.524 1_455 S
C922 H934 0.956 1_455 S
C922 H935 0.961 . S
C922 H936 0.961 . S
C923 C920 1.539 . S
C923 H937 0.958 . S
C923 H938 0.961 . S
C923 H939 0.960 . S
H924 C908 0.931 . S
H925 C913 0.929 . S
H926 C914 0.960 . S
H927 C914 0.962 . S
H928 C914 0.960 . S
H929 C915 0.961 1_545 S
H930 C915 0.961 . S
H931 C915 0.961 1_545 S
H932 C916 0.931 . S
H933 C921 0.930 . S
H934 C922 0.956 1_655 S
H935 C922 0.961 . S
H936 C922 0.961 . S
H937 C923 0.958 . S
H938 C923 0.961 . S
H939 C923 0.960 . S
C940 C941 1.391 . S
C940 C942 1.394 . S
C940 H956 0.931 . S
C941 C940 1.391 . S
C941 C945 1.376 . S
C942 C940 1.394 . S
C942 C943 1.369 . S
C942 C946 1.531 . S
C943 C942 1.369 . S
C943 C944 1.410 . S
C943 C951 1.503 . S
C944 C943 1.410 . S
C944 C945 1.392 . S
C944 C947 1.511 . S
C945 C941 1.376 . S
C945 C944 1.392 . S
C945 H957 0.929 . S
C946 C942 1.531 . S
C946 H958 0.960 . S
C946 H959 0.962 . S
C946 H960 0.960 . S
C947 C944 1.511 . S
C947 H961 0.961 . S
C947 H962 0.961 . S
C947 H963 0.961 . S
C948 C949 1.370 1_655 S
C948 C950 1.363 . S
C948 H964 0.931 1_655 S
C949 C948 1.370 1_455 S
C949 C953 1.408 1_455 S
C950 C948 1.363 . S
C950 C951 1.370 . S
C950 C954 1.524 . S
C951 C943 1.503 . S
C951 C950 1.370 . S
C951 C952 1.403 . S
C952 C951 1.403 . S
C952 C953 1.404 . S
C952 C955 1.539 . S
C953 C949 1.408 1_655 S
C953 C952 1.404 . S
C953 H965 0.930 1_655 S
C954 C950 1.524 . S
C954 H966 0.956 . S
C954 H967 0.961 . S
C954 H968 0.961 . S
C955 C952 1.539 . S
C955 H969 0.958 . S
C955 H970 0.961 . S
C955 H971 0.960 . S
H956 C940 0.931 . S
H957 C945 0.929 . S
H958 C946 0.960 . S
H959 C946 0.962 . S
H960 C946 0.960 . S
H961 C947 0.961 . S
H962 C947 0.961 . S
H963 C947 0.961 . S
H964 C948 0.931 1_455 S
H965 C953 0.930 1_455 S
H966 C954 0.956 . S
H967 C954 0.961 . S
H968 C954 0.961 . S
H969 C955 0.958 . S
H970 C955 0.961 . S
H971 C955 0.960 . S
C972 C973 1.391 1_565 S
C972 C974 1.394 1_565 S
C972 H988 0.931 . S
C973 C972 1.391 1_545 S
C973 C977 1.376 . S
C974 C972 1.394 1_545 S
C974 C975 1.369 . S
C974 C978 1.531 . S
C975 C974 1.369 . S
C975 C976 1.410 . S
C975 C983 1.503 . S
C976 C975 1.410 . S
C976 C977 1.392 . S
C976 C979 1.511 . S
C977 C973 1.376 . S
C977 C976 1.392 . S
C977 H989 0.929 . S
C978 C974 1.531 . S
C978 H990 0.960 . S
C978 H991 0.962 . S
C978 H992 0.960 1_545 S
C979 C976 1.511 . S
C979 H993 0.961 . S
C979 H994 0.961 . S
C979 H995 0.961 . S
C980 C981 1.370 . S
C980 C982 1.363 . S
C980 H996 0.931 . S
C981 C980 1.370 . S
C981 C985 1.408 . S
C982 C980 1.363 . S
C982 C983 1.370 . S
C982 C986 1.524 . S
C983 C975 1.503 . S
C983 C982 1.370 . S
C983 C984 1.403 . S
C984 C983 1.403 . S
C984 C985 1.404 . S
C984 C987 1.539 . S
C985 C981 1.408 . S
C985 C984 1.404 . S
C985 H997 0.930 . S
C986 C982 1.524 . S
C986 H998 0.956 . S
C986 H999 0.961 . S
C986 H1000 0.961 . S
C987 C984 1.539 . S
C987 H1001 0.958 . S
C987 H1002 0.961 . S
C987 H1003 0.960 . S
H988 C972 0.931 . S
H989 C977 0.929 . S
H990 C978 0.960 . S
H991 C978 0.962 . S
H992 C978 0.960 1_565 S
H993 C979 0.961 . S
H994 C979 0.961 . S
H995 C979 0.961 . S
H996 C980 0.931 . S
H997 C985 0.930 . S
H998 C986 0.956 . S
H999 C986 0.961 . S
H1000 C986 0.961 . S
H1001 C987 0.958 . S
H1002 C987 0.961 . S
H1003 C987 0.960 . S
C1004 C1005 1.391 . S
C1004 C1006 1.394 . S
C1004 H1020 0.931 . S
C1005 C1004 1.391 . S
C1005 C1009 1.376 . S
C1006 C1004 1.394 . S
C1006 C1007 1.369 . S
C1006 C1010 1.531 . S
C1007 C1006 1.369 . S
C1007 C1008 1.410 . S
C1007 C1015 1.503 . S
C1008 C1007 1.410 . S
C1008 C1009 1.392 . S
C1008 C1011 1.511 . S
C1009 C1005 1.376 . S
C1009 C1008 1.392 . S
C1009 H1021 0.929 . S
C1010 C1006 1.531 . S
C1010 H1022 0.960 . S
C1010 H1023 0.962 . S
C1010 H1024 0.960 . S
C1011 C1008 1.511 . S
C1011 H1025 0.961 . S
C1011 H1026 0.961 . S
C1011 H1027 0.961 . S
C1012 C1013 1.370 . S
C1012 C1014 1.363 . S
C1012 H1028 0.931 . S
C1013 C1012 1.370 . S
C1013 C1017 1.408 . S
C1014 C1012 1.363 . S
C1014 C1015 1.370 . S
C1014 C1018 1.524 . S
C1015 C1007 1.503 . S
C1015 C1014 1.370 . S
C1015 C1016 1.403 . S
C1016 C1015 1.403 . S
C1016 C1017 1.404 . S
C1016 C1019 1.539 . S
C1017 C1013 1.408 . S
C1017 C1016 1.404 . S
C1017 H1029 0.930 . S
C1018 C1014 1.524 . S
C1018 H1030 0.956 . S
C1018 H1031 0.961 . S
C1018 H1032 0.961 . S
C1019 C1016 1.539 . S
C1019 H1033 0.958 . S
C1019 H1034 0.961 . S
C1019 H1035 0.960 . S
H1020 C1004 0.931 . S
H1021 C1009 0.929 . S
H1022 C1010 0.960 . S
H1023 C1010 0.962 . S
H1024 C1010 0.960 . S
H1025 C1011 0.961 . S
H1026 C1011 0.961 . S
H1027 C1011 0.961 . S
H1028 C1012 0.931 . S
H1029 C1017 0.930 . S
H1030 C1018 0.956 . S
H1031 C1018 0.961 . S
H1032 C1018 0.961 . S
H1033 C1019 0.958 . S
H1034 C1019 0.961 . S
H1035 C1019 0.960 . S
C1036 C1037 1.391 . S
C1036 C1038 1.394 . S
C1036 H1052 0.931 . S
C1037 C1036 1.391 . S
C1037 C1041 1.376 . S
C1038 C1036 1.394 . S
C1038 C1039 1.369 . S
C1038 C1042 1.531 . S
C1039 C1038 1.369 . S
C1039 C1040 1.410 . S
C1039 C1047 1.503 . S
C1040 C1039 1.410 . S
C1040 C1041 1.392 . S
C1040 C1043 1.511 . S
C1041 C1037 1.376 . S
C1041 C1040 1.392 . S
C1041 H1053 0.929 . S
C1042 C1038 1.531 . S
C1042 H1054 0.960 . S
C1042 H1055 0.962 . S
C1042 H1056 0.960 . S
C1043 C1040 1.511 . S
C1043 H1057 0.961 . S
C1043 H1058 0.961 . S
C1043 H1059 0.961 . S
C1044 C1045 1.370 . S
C1044 C1046 1.363 . S
C1044 H1060 0.931 1_655 S
C1045 C1044 1.370 . S
C1045 C1049 1.408 . S
C1046 C1044 1.363 . S
C1046 C1047 1.370 . S
C1046 C1050 1.524 1_655 S
C1047 C1039 1.503 . S
C1047 C1046 1.370 . S
C1047 C1048 1.403 . S
C1048 C1047 1.403 . S
C1048 C1049 1.404 . S
C1048 C1051 1.539 . S
C1049 C1045 1.408 . S
C1049 C1048 1.404 . S
C1049 H1061 0.930 . S
C1050 C1046 1.524 1_455 S
C1050 H1062 0.956 1_455 S
C1050 H1063 0.961 . S
C1050 H1064 0.961 . S
C1051 C1048 1.539 . S
C1051 H1065 0.958 . S
C1051 H1066 0.961 . S
C1051 H1067 0.960 . S
H1052 C1036 0.931 . S
H1053 C1041 0.929 . S
H1054 C1042 0.960 . S
H1055 C1042 0.962 . S
H1056 C1042 0.960 . S
H1057 C1043 0.961 . S
H1058 C1043 0.961 . S
H1059 C1043 0.961 . S
H1060 C1044 0.931 1_455 S
H1061 C1049 0.930 . S
H1062 C1050 0.956 1_655 S
H1063 C1050 0.961 . S
H1064 C1050 0.961 . S
H1065 C1051 0.958 . S
H1066 C1051 0.961 . S
H1067 C1051 0.960 . S
C1068 C1069 1.391 . S
C1068 C1070 1.394 . S
C1068 H1084 0.931 . S
C1069 C1068 1.391 . S
C1069 C1073 1.376 . S
C1070 C1068 1.394 . S
C1070 C1071 1.369 . S
C1070 C1074 1.531 . S
C1071 C1070 1.369 . S
C1071 C1072 1.410 . S
C1071 C1079 1.503 . S
C1072 C1071 1.410 . S
C1072 C1073 1.392 . S
C1072 C1075 1.511 . S
C1073 C1069 1.376 . S
C1073 C1072 1.392 . S
C1073 H1085 0.929 . S
C1074 C1070 1.531 . S
C1074 H1086 0.960 . S
C1074 H1087 0.962 . S
C1074 H1088 0.960 . S
C1075 C1072 1.511 . S
C1075 H1089 0.961 . S
C1075 H1090 0.961 . S
C1075 H1091 0.961 . S
C1076 C1077 1.370 . S
C1076 C1078 1.363 . S
C1076 H1092 0.931 . S
C1077 C1076 1.370 . S
C1077 C1081 1.408 . S
C1078 C1076 1.363 . S
C1078 C1079 1.370 . S
C1078 C1082 1.524 . S
C1079 C1071 1.503 . S
C1079 C1078 1.370 . S
C1079 C1080 1.403 . S
C1080 C1079 1.403 . S
C1080 C1081 1.404 . S
C1080 C1083 1.539 . S
C1081 C1077 1.408 . S
C1081 C1080 1.404 . S
C1081 H1093 0.930 . S
C1082 C1078 1.524 . S
C1082 H1094 0.956 . S
C1082 H1095 0.961 . S
C1082 H1096 0.961 . S
C1083 C1080 1.539 . S
C1083 H1097 0.958 . S
C1083 H1098 0.961 . S
C1083 H1099 0.960 . S
H1084 C1068 0.931 . S
H1085 C1073 0.929 . S
H1086 C1074 0.960 . S
H1087 C1074 0.962 . S
H1088 C1074 0.960 . S
H1089 C1075 0.961 . S
H1090 C1075 0.961 . S
H1091 C1075 0.961 . S
H1092 C1076 0.931 . S
H1093 C1081 0.930 . S
H1094 C1082 0.956 . S
H1095 C1082 0.961 . S
H1096 C1082 0.961 . S
H1097 C1083 0.958 . S
H1098 C1083 0.961 . S
H1099 C1083 0.960 . S
C1100 C1101 1.391 . S
C1100 C1102 1.394 . S
C1100 H1116 0.931 . S
C1101 C1100 1.391 . S
C1101 C1105 1.376 . S
C1102 C1100 1.394 . S
C1102 C1103 1.369 . S
C1102 C1106 1.531 . S
C1103 C1102 1.369 . S
C1103 C1104 1.410 . S
C1103 C1111 1.503 . S
C1104 C1103 1.410 . S
C1104 C1105 1.392 . S
C1104 C1107 1.511 . S
C1105 C1101 1.376 . S
C1105 C1104 1.392 . S
C1105 H1117 0.929 . S
C1106 C1102 1.531 . S
C1106 H1118 0.960 . S
C1106 H1119 0.962 . S
C1106 H1120 0.960 . S
C1107 C1104 1.511 . S
C1107 H1121 0.961 . S
C1107 H1122 0.961 . S
C1107 H1123 0.961 . S
C1108 C1109 1.370 . S
C1108 C1110 1.363 . S
C1108 H1124 0.931 . S
C1109 C1108 1.370 . S
C1109 C1113 1.408 . S
C1110 C1108 1.363 . S
C1110 C1111 1.370 . S
C1110 C1114 1.524 . S
C1111 C1103 1.503 . S
C1111 C1110 1.370 . S
C1111 C1112 1.403 . S
C1112 C1111 1.403 . S
C1112 C1113 1.404 . S
C1112 C1115 1.539 . S
C1113 C1109 1.408 . S
C1113 C1112 1.404 . S
C1113 H1125 0.930 . S
C1114 C1110 1.524 . S
C1114 H1126 0.956 . S
C1114 H1127 0.961 . S
C1114 H1128 0.961 . S
C1115 C1112 1.539 . S
C1115 H1129 0.958 . S
C1115 H1130 0.961 . S
C1115 H1131 0.960 . S
H1116 C1100 0.931 . S
H1117 C1105 0.929 . S
H1118 C1106 0.960 . S
H1119 C1106 0.962 . S
H1120 C1106 0.960 . S
H1121 C1107 0.961 . S
H1122 C1107 0.961 . S
H1123 C1107 0.961 . S
H1124 C1108 0.931 . S
H1125 C1113 0.930 . S
H1126 C1114 0.956 . S
H1127 C1114 0.961 . S
H1128 C1114 0.961 . S
H1129 C1115 0.958 . S
H1130 C1115 0.961 . S
H1131 C1115 0.960 . S
C1132 C1133 1.391 . S
C1132 C1134 1.394 . S
C1132 H1148 0.931 . S
C1133 C1132 1.391 . S
C1133 C1137 1.376 . S
C1134 C1132 1.394 . S
C1134 C1135 1.369 . S
C1134 C1138 1.531 . S
C1135 C1134 1.369 . S
C1135 C1136 1.410 . S
C1135 C1143 1.503 . S
C1136 C1135 1.410 . S
C1136 C1137 1.392 . S
C1136 C1139 1.511 . S
C1137 C1133 1.376 . S
C1137 C1136 1.392 . S
C1137 H1149 0.929 . S
C1138 C1134 1.531 . S
C1138 H1150 0.960 . S
C1138 H1151 0.962 . S
C1138 H1152 0.960 . S
C1139 C1136 1.511 . S
C1139 H1153 0.961 . S
C1139 H1154 0.961 . S
C1139 H1155 0.961 . S
C1140 C1141 1.370 . S
C1140 C1142 1.363 . S
C1140 H1156 0.931 . S
C1141 C1140 1.370 . S
C1141 C1145 1.408 . S
C1142 C1140 1.363 . S
C1142 C1143 1.370 . S
C1142 C1146 1.524 . S
C1143 C1135 1.503 . S
C1143 C1142 1.370 . S
C1143 C1144 1.403 . S
C1144 C1143 1.403 . S
C1144 C1145 1.404 . S
C1144 C1147 1.539 . S
C1145 C1141 1.408 . S
C1145 C1144 1.404 . S
C1145 H1157 0.930 . S
C1146 C1142 1.524 . S
C1146 H1158 0.956 . S
C1146 H1159 0.961 . S
C1146 H1160 0.961 . S
C1147 C1144 1.539 . S
C1147 H1161 0.958 . S
C1147 H1162 0.961 . S
C1147 H1163 0.960 . S
H1148 C1132 0.931 . S
H1149 C1137 0.929 . S
H1150 C1138 0.960 . S
H1151 C1138 0.962 . S
H1152 C1138 0.960 . S
H1153 C1139 0.961 . S
H1154 C1139 0.961 . S
H1155 C1139 0.961 . S
H1156 C1140 0.931 . S
H1157 C1145 0.930 . S
H1158 C1146 0.956 . S
H1159 C1146 0.961 . S
H1160 C1146 0.961 . S
H1161 C1147 0.958 . S
H1162 C1147 0.961 . S
H1163 C1147 0.960 . S
C1164 C1165 1.391 . S
C1164 C1166 1.394 . S
C1164 H1180 0.931 . S
C1165 C1164 1.391 . S
C1165 C1169 1.376 . S
C1166 C1164 1.394 . S
C1166 C1167 1.369 . S
C1166 C1170 1.531 . S
C1167 C1166 1.369 . S
C1167 C1168 1.410 . S
C1167 C1175 1.503 . S
C1168 C1167 1.410 . S
C1168 C1169 1.392 . S
C1168 C1171 1.511 . S
C1169 C1165 1.376 . S
C1169 C1168 1.392 . S
C1169 H1181 0.929 . S
C1170 C1166 1.531 . S
C1170 H1182 0.960 . S
C1170 H1183 0.962 . S
C1170 H1184 0.960 . S
C1171 C1168 1.511 . S
C1171 H1185 0.961 . S
C1171 H1186 0.961 . S
C1171 H1187 0.961 . S
C1172 C1173 1.370 . S
C1172 C1174 1.363 . S
C1172 H1188 0.931 . S
C1173 C1172 1.370 . S
C1173 C1177 1.408 . S
C1174 C1172 1.363 . S
C1174 C1175 1.370 . S
C1174 C1178 1.524 . S
C1175 C1167 1.503 . S
C1175 C1174 1.370 . S
C1175 C1176 1.403 . S
C1176 C1175 1.403 . S
C1176 C1177 1.404 . S
C1176 C1179 1.539 . S
C1177 C1173 1.408 . S
C1177 C1176 1.404 . S
C1177 H1189 0.930 . S
C1178 C1174 1.524 . S
C1178 H1190 0.956 . S
C1178 H1191 0.961 . S
C1178 H1192 0.961 . S
C1179 C1176 1.539 . S
C1179 H1193 0.958 . S
C1179 H1194 0.961 . S
C1179 H1195 0.960 . S
H1180 C1164 0.931 . S
H1181 C1169 0.929 . S
H1182 C1170 0.960 . S
H1183 C1170 0.962 . S
H1184 C1170 0.960 . S
H1185 C1171 0.961 . S
H1186 C1171 0.961 . S
H1187 C1171 0.961 . S
H1188 C1172 0.931 . S
H1189 C1177 0.930 . S
H1190 C1178 0.956 . S
H1191 C1178 0.961 . S
H1192 C1178 0.961 . S
H1193 C1179 0.958 . S
H1194 C1179 0.961 . S
H1195 C1179 0.960 . S
C1196 C1197 1.391 . S
C1196 C1198 1.394 . S
C1196 H1212 0.931 . S
C1197 C1196 1.391 . S
C1197 C1201 1.376 . S
C1198 C1196 1.394 . S
C1198 C1199 1.369 . S
C1198 C1202 1.531 . S
C1199 C1198 1.369 . S
C1199 C1200 1.410 . S
C1199 C1207 1.503 . S
C1200 C1199 1.410 . S
C1200 C1201 1.392 . S
C1200 C1203 1.511 . S
C1201 C1197 1.376 . S
C1201 C1200 1.392 . S
C1201 H1213 0.929 . S
C1202 C1198 1.531 . S
C1202 H1214 0.960 . S
C1202 H1215 0.962 . S
C1202 H1216 0.960 . S
C1203 C1200 1.511 . S
C1203 H1217 0.961 . S
C1203 H1218 0.961 . S
C1203 H1219 0.961 . S
C1204 C1205 1.370 . S
C1204 C1206 1.363 . S
C1204 H1220 0.931 . S
C1205 C1204 1.370 . S
C1205 C1209 1.408 . S
C1206 C1204 1.363 . S
C1206 C1207 1.370 . S
C1206 C1210 1.524 . S
C1207 C1199 1.503 . S
C1207 C1206 1.370 . S
C1207 C1208 1.403 . S
C1208 C1207 1.403 . S
C1208 C1209 1.404 . S
C1208 C1211 1.539 . S
C1209 C1205 1.408 . S
C1209 C1208 1.404 . S
C1209 H1221 0.930 . S
C1210 C1206 1.524 . S
C1210 H1222 0.956 . S
C1210 H1223 0.961 . S
C1210 H1224 0.961 . S
C1211 C1208 1.539 . S
C1211 H1225 0.958 . S
C1211 H1226 0.961 . S
C1211 H1227 0.960 . S
H1212 C1196 0.931 . S
H1213 C1201 0.929 . S
H1214 C1202 0.960 . S
H1215 C1202 0.962 . S
H1216 C1202 0.960 . S
H1217 C1203 0.961 . S
H1218 C1203 0.961 . S
H1219 C1203 0.961 . S
H1220 C1204 0.931 . S
H1221 C1209 0.930 . S
H1222 C1210 0.956 . S
H1223 C1210 0.961 . S
H1224 C1210 0.961 . S
H1225 C1211 0.958 . S
H1226 C1211 0.961 . S
H1227 C1211 0.960 . S
C1228 C1229 1.391 . S
C1228 C1230 1.394 . S
C1228 H1244 0.931 . S
C1229 C1228 1.391 . S
C1229 C1233 1.376 . S
C1230 C1228 1.394 . S
C1230 C1231 1.369 . S
C1230 C1234 1.531 . S
C1231 C1230 1.369 . S
C1231 C1232 1.410 . S
C1231 C1239 1.503 . S
C1232 C1231 1.410 . S
C1232 C1233 1.392 . S
C1232 C1235 1.511 1_655 S
C1233 C1229 1.376 . S
C1233 C1232 1.392 . S
C1233 H1245 0.929 . S
C1234 C1230 1.531 . S
C1234 H1246 0.960 . S
C1234 H1247 0.962 . S
C1234 H1248 0.960 . S
C1235 C1232 1.511 1_455 S
C1235 H1249 0.961 . S
C1235 H1250 0.961 . S
C1235 H1251 0.961 . S
C1236 C1237 1.370 . S
C1236 C1238 1.363 . S
C1236 H1252 0.931 . S
C1237 C1236 1.370 . S
C1237 C1241 1.408 . S
C1238 C1236 1.363 . S
C1238 C1239 1.370 . S
C1238 C1242 1.524 . S
C1239 C1231 1.503 . S
C1239 C1238 1.370 . S
C1239 C1240 1.403 . S
C1240 C1239 1.403 . S
C1240 C1241 1.404 . S
C1240 C1243 1.539 . S
C1241 C1237 1.408 . S
C1241 C1240 1.404 . S
C1241 H1253 0.930 . S
C1242 C1238 1.524 . S
C1242 H1254 0.956 . S
C1242 H1255 0.961 . S
C1242 H1256 0.961 . S
C1243 C1240 1.539 . S
C1243 H1257 0.958 . S
C1243 H1258 0.961 . S
C1243 H1259 0.960 . S
H1244 C1228 0.931 . S
H1245 C1233 0.929 . S
H1246 C1234 0.960 . S
H1247 C1234 0.962 . S
H1248 C1234 0.960 . S
H1249 C1235 0.961 . S
H1250 C1235 0.961 . S
H1251 C1235 0.961 . S
H1252 C1236 0.931 . S
H1253 C1241 0.930 . S
H1254 C1242 0.956 . S
H1255 C1242 0.961 . S
H1256 C1242 0.961 . S
H1257 C1243 0.958 . S
H1258 C1243 0.961 . S
H1259 C1243 0.960 . S
C1260 C1261 1.391 . S
C1260 C1262 1.394 . S
C1260 H1276 0.931 . S
C1261 C1260 1.391 . S
C1261 C1265 1.376 . S
C1262 C1260 1.394 . S
C1262 C1263 1.369 . S
C1262 C1266 1.531 . S
C1263 C1262 1.369 . S
C1263 C1264 1.410 . S
C1263 C1271 1.503 . S
C1264 C1263 1.410 . S
C1264 C1265 1.392 . S
C1264 C1267 1.511 . S
C1265 C1261 1.376 . S
C1265 C1264 1.392 . S
C1265 H1277 0.929 . S
C1266 C1262 1.531 . S
C1266 H1278 0.960 . S
C1266 H1279 0.962 . S
C1266 H1280 0.960 . S
C1267 C1264 1.511 . S
C1267 H1281 0.961 . S
C1267 H1282 0.961 . S
C1267 H1283 0.961 . S
C1268 C1269 1.370 . S
C1268 C1270 1.363 . S
C1268 H1284 0.931 . S
C1269 C1268 1.370 . S
C1269 C1273 1.408 . S
C1270 C1268 1.363 . S
C1270 C1271 1.370 . S
C1270 C1274 1.524 . S
C1271 C1263 1.503 . S
C1271 C1270 1.370 . S
C1271 C1272 1.403 . S
C1272 C1271 1.403 . S
C1272 C1273 1.404 . S
C1272 C1275 1.539 . S
C1273 C1269 1.408 . S
C1273 C1272 1.404 . S
C1273 H1285 0.930 . S
C1274 C1270 1.524 . S
C1274 H1286 0.956 . S
C1274 H1287 0.961 . S
C1274 H1288 0.961 . S
C1275 C1272 1.539 . S
C1275 H1289 0.958 . S
C1275 H1290 0.961 . S
C1275 H1291 0.960 . S
H1276 C1260 0.931 . S
H1277 C1265 0.929 . S
H1278 C1266 0.960 . S
H1279 C1266 0.962 . S
H1280 C1266 0.960 . S
H1281 C1267 0.961 . S
H1282 C1267 0.961 . S
H1283 C1267 0.961 . S
H1284 C1268 0.931 . S
H1285 C1273 0.930 . S
H1286 C1274 0.956 . S
H1287 C1274 0.961 . S
H1288 C1274 0.961 . S
H1289 C1275 0.958 . S
H1290 C1275 0.961 . S
H1291 C1275 0.960 . S
C1292 C1293 1.391 . S
C1292 C1294 1.394 . S
C1292 H1308 0.931 . S
C1293 C1292 1.391 . S
C1293 C1297 1.376 . S
C1294 C1292 1.394 . S
C1294 C1295 1.369 . S
C1294 C1298 1.531 . S
C1295 C1294 1.369 . S
C1295 C1296 1.410 . S
C1295 C1303 1.503 . S
C1296 C1295 1.410 . S
C1296 C1297 1.392 . S
C1296 C1299 1.511 . S
C1297 C1293 1.376 . S
C1297 C1296 1.392 . S
C1297 H1309 0.929 . S
C1298 C1294 1.531 . S
C1298 H1310 0.960 . S
C1298 H1311 0.962 . S
C1298 H1312 0.960 . S
C1299 C1296 1.511 . S
C1299 H1313 0.961 . S
C1299 H1314 0.961 . S
C1299 H1315 0.961 . S
C1300 C1301 1.370 . S
C1300 C1302 1.363 . S
C1300 H1316 0.931 . S
C1301 C1300 1.370 . S
C1301 C1305 1.408 . S
C1302 C1300 1.363 . S
C1302 C1303 1.370 . S
C1302 C1306 1.524 . S
C1303 C1295 1.503 . S
C1303 C1302 1.370 . S
C1303 C1304 1.403 . S
C1304 C1303 1.403 . S
C1304 C1305 1.404 . S
C1304 C1307 1.539 . S
C1305 C1301 1.408 . S
C1305 C1304 1.404 . S
C1305 H1317 0.930 . S
C1306 C1302 1.524 . S
C1306 H1318 0.956 . S
C1306 H1319 0.961 . S
C1306 H1320 0.961 . S
C1307 C1304 1.539 . S
C1307 H1321 0.958 . S
C1307 H1322 0.961 . S
C1307 H1323 0.960 . S
H1308 C1292 0.931 . S
H1309 C1297 0.929 . S
H1310 C1298 0.960 . S
H1311 C1298 0.962 . S
H1312 C1298 0.960 . S
H1313 C1299 0.961 . S
H1314 C1299 0.961 . S
H1315 C1299 0.961 . S
H1316 C1300 0.931 . S
H1317 C1305 0.930 . S
H1318 C1306 0.956 . S
H1319 C1306 0.961 . S
H1320 C1306 0.961 . S
H1321 C1307 0.958 . S
H1322 C1307 0.961 . S
H1323 C1307 0.960 . S
C1324 C1325 1.391 . S
C1324 C1326 1.394 . S
C1324 H1340 0.931 . S
C1325 C1324 1.391 . S
C1325 C1329 1.376 . S
C1326 C1324 1.394 . S
C1326 C1327 1.369 . S
C1326 C1330 1.531 . S
C1327 C1326 1.369 . S
C1327 C1328 1.410 . S
C1327 C1335 1.503 . S
C1328 C1327 1.410 . S
C1328 C1329 1.392 . S
C1328 C1331 1.511 . S
C1329 C1325 1.376 . S
C1329 C1328 1.392 . S
C1329 H1341 0.929 . S
C1330 C1326 1.531 . S
C1330 H1342 0.960 . S
C1330 H1343 0.962 . S
C1330 H1344 0.960 . S
C1331 C1328 1.511 . S
C1331 H1345 0.961 . S
C1331 H1346 0.961 . S
C1331 H1347 0.961 . S
C1332 C1333 1.370 . S
C1332 C1334 1.363 . S
C1332 H1348 0.931 . S
C1333 C1332 1.370 . S
C1333 C1337 1.408 . S
C1334 C1332 1.363 . S
C1334 C1335 1.370 . S
C1334 C1338 1.524 . S
C1335 C1327 1.503 . S
C1335 C1334 1.370 . S
C1335 C1336 1.403 . S
C1336 C1335 1.403 . S
C1336 C1337 1.404 . S
C1336 C1339 1.539 . S
C1337 C1333 1.408 . S
C1337 C1336 1.404 . S
C1337 H1349 0.930 . S
C1338 C1334 1.524 . S
C1338 H1350 0.956 . S
C1338 H1351 0.961 . S
C1338 H1352 0.961 . S
C1339 C1336 1.539 . S
C1339 H1353 0.958 . S
C1339 H1354 0.961 . S
C1339 H1355 0.960 . S
H1340 C1324 0.931 . S
H1341 C1329 0.929 . S
H1342 C1330 0.960 . S
H1343 C1330 0.962 . S
H1344 C1330 0.960 . S
H1345 C1331 0.961 . S
H1346 C1331 0.961 . S
H1347 C1331 0.961 . S
H1348 C1332 0.931 . S
H1349 C1337 0.930 . S
H1350 C1338 0.956 . S
H1351 C1338 0.961 . S
H1352 C1338 0.961 . S
H1353 C1339 0.958 . S
H1354 C1339 0.961 . S
H1355 C1339 0.960 . S
C1356 C1357 1.391 . S
C1356 C1358 1.394 . S
C1356 H1372 0.931 . S
C1357 C1356 1.391 . S
C1357 C1361 1.376 . S
C1358 C1356 1.394 . S
C1358 C1359 1.369 . S
C1358 C1362 1.531 . S
C1359 C1358 1.369 . S
C1359 C1360 1.410 . S
C1359 C1367 1.503 . S
C1360 C1359 1.410 . S
C1360 C1361 1.392 . S
C1360 C1363 1.511 . S
C1361 C1357 1.376 . S
C1361 C1360 1.392 . S
C1361 H1373 0.929 . S
C1362 C1358 1.531 . S
C1362 H1374 0.960 . S
C1362 H1375 0.962 . S
C1362 H1376 0.960 . S
C1363 C1360 1.511 . S
C1363 H1377 0.961 . S
C1363 H1378 0.961 . S
C1363 H1379 0.961 . S
C1364 C1365 1.370 . S
C1364 C1366 1.363 . S
C1364 H1380 0.931 . S
C1365 C1364 1.370 . S
C1365 C1369 1.408 . S
C1366 C1364 1.363 . S
C1366 C1367 1.370 . S
C1366 C1370 1.524 . S
C1367 C1359 1.503 . S
C1367 C1366 1.370 . S
C1367 C1368 1.403 . S
C1368 C1367 1.403 . S
C1368 C1369 1.404 . S
C1368 C1371 1.539 . S
C1369 C1365 1.408 . S
C1369 C1368 1.404 . S
C1369 H1381 0.930 . S
C1370 C1366 1.524 . S
C1370 H1382 0.956 . S
C1370 H1383 0.961 . S
C1370 H1384 0.961 . S
C1371 C1368 1.539 . S
C1371 H1385 0.958 . S
C1371 H1386 0.961 . S
C1371 H1387 0.960 . S
H1372 C1356 0.931 . S
H1373 C1361 0.929 . S
H1374 C1362 0.960 . S
H1375 C1362 0.962 . S
H1376 C1362 0.960 . S
H1377 C1363 0.961 . S
H1378 C1363 0.961 . S
H1379 C1363 0.961 . S
H1380 C1364 0.931 . S
H1381 C1369 0.930 . S
H1382 C1370 0.956 . S
H1383 C1370 0.961 . S
H1384 C1370 0.961 . S
H1385 C1371 0.958 . S
H1386 C1371 0.961 . S
H1387 C1371 0.960 . S
C1388 C1389 1.391 . S
C1388 C1390 1.394 . S
C1388 H1404 0.931 . S
C1389 C1388 1.391 . S
C1389 C1393 1.376 . S
C1390 C1388 1.394 . S
C1390 C1391 1.369 . S
C1390 C1394 1.531 . S
C1391 C1390 1.369 . S
C1391 C1392 1.410 . S
C1391 C1399 1.503 . S
C1392 C1391 1.410 . S
C1392 C1393 1.392 . S
C1392 C1395 1.511 . S
C1393 C1389 1.376 . S
C1393 C1392 1.392 . S
C1393 H1405 0.929 . S
C1394 C1390 1.531 . S
C1394 H1406 0.960 . S
C1394 H1407 0.962 . S
C1394 H1408 0.960 . S
C1395 C1392 1.511 . S
C1395 H1409 0.961 . S
C1395 H1410 0.961 . S
C1395 H1411 0.961 . S
C1396 C1397 1.370 . S
C1396 C1398 1.363 . S
C1396 H1412 0.931 . S
C1397 C1396 1.370 . S
C1397 C1401 1.408 . S
C1398 C1396 1.363 . S
C1398 C1399 1.370 . S
C1398 C1402 1.524 . S
C1399 C1391 1.503 . S
C1399 C1398 1.370 . S
C1399 C1400 1.403 . S
C1400 C1399 1.403 . S
C1400 C1401 1.404 . S
C1400 C1403 1.539 . S
C1401 C1397 1.408 . S
C1401 C1400 1.404 . S
C1401 H1413 0.930 . S
C1402 C1398 1.524 . S
C1402 H1414 0.956 . S
C1402 H1415 0.961 . S
C1402 H1416 0.961 . S
C1403 C1400 1.539 . S
C1403 H1417 0.958 . S
C1403 H1418 0.961 . S
C1403 H1419 0.960 . S
H1404 C1388 0.931 . S
H1405 C1393 0.929 . S
H1406 C1394 0.960 . S
H1407 C1394 0.962 . S
H1408 C1394 0.960 . S
H1409 C1395 0.961 . S
H1410 C1395 0.961 . S
H1411 C1395 0.961 . S
H1412 C1396 0.931 . S
H1413 C1401 0.930 . S
H1414 C1402 0.956 . S
H1415 C1402 0.961 . S
H1416 C1402 0.961 . S
H1417 C1403 0.958 . S
H1418 C1403 0.961 . S
H1419 C1403 0.960 . S
C1420 C1421 1.391 . S
C1420 C1422 1.394 . S
C1420 H1436 0.931 . S
C1421 C1420 1.391 . S
C1421 C1425 1.376 . S
C1422 C1420 1.394 . S
C1422 C1423 1.369 . S
C1422 C1426 1.531 . S
C1423 C1422 1.369 . S
C1423 C1424 1.410 . S
C1423 C1431 1.503 . S
C1424 C1423 1.410 . S
C1424 C1425 1.392 . S
C1424 C1427 1.511 . S
C1425 C1421 1.376 . S
C1425 C1424 1.392 . S
C1425 H1437 0.929 . S
C1426 C1422 1.531 . S
C1426 H1438 0.960 . S
C1426 H1439 0.962 . S
C1426 H1440 0.960 . S
C1427 C1424 1.511 . S
C1427 H1441 0.961 . S
C1427 H1442 0.961 . S
C1427 H1443 0.961 . S
C1428 C1429 1.370 . S
C1428 C1430 1.363 . S
C1428 H1444 0.931 . S
C1429 C1428 1.370 . S
C1429 C1433 1.408 . S
C1430 C1428 1.363 . S
C1430 C1431 1.370 . S
C1430 C1434 1.524 . S
C1431 C1423 1.503 . S
C1431 C1430 1.370 . S
C1431 C1432 1.403 . S
C1432 C1431 1.403 . S
C1432 C1433 1.404 . S
C1432 C1435 1.539 . S
C1433 C1429 1.408 . S
C1433 C1432 1.404 . S
C1433 H1445 0.930 . S
C1434 C1430 1.524 . S
C1434 H1446 0.956 . S
C1434 H1447 0.961 . S
C1434 H1448 0.961 . S
C1435 C1432 1.539 . S
C1435 H1449 0.958 . S
C1435 H1450 0.961 . S
C1435 H1451 0.960 . S
H1436 C1420 0.931 . S
H1437 C1425 0.929 . S
H1438 C1426 0.960 . S
H1439 C1426 0.962 . S
H1440 C1426 0.960 . S
H1441 C1427 0.961 . S
H1442 C1427 0.961 . S
H1443 C1427 0.961 . S
H1444 C1428 0.931 . S
H1445 C1433 0.930 . S
H1446 C1434 0.956 . S
H1447 C1434 0.961 . S
H1448 C1434 0.961 . S
H1449 C1435 0.958 . S
H1450 C1435 0.961 . S
H1451 C1435 0.960 . S
C1452 C1453 1.391 . S
C1452 C1454 1.394 . S
C1452 H1468 0.931 . S
C1453 C1452 1.391 . S
C1453 C1457 1.376 . S
C1454 C1452 1.394 . S
C1454 C1455 1.369 . S
C1454 C1458 1.531 . S
C1455 C1454 1.369 . S
C1455 C1456 1.410 . S
C1455 C1463 1.503 . S
C1456 C1455 1.410 . S
C1456 C1457 1.392 . S
C1456 C1459 1.511 . S
C1457 C1453 1.376 . S
C1457 C1456 1.392 . S
C1457 H1469 0.929 . S
C1458 C1454 1.531 . S
C1458 H1470 0.960 . S
C1458 H1471 0.962 . S
C1458 H1472 0.960 . S
C1459 C1456 1.511 . S
C1459 H1473 0.961 . S
C1459 H1474 0.961 . S
C1459 H1475 0.961 . S
C1460 C1461 1.370 . S
C1460 C1462 1.363 . S
C1460 H1476 0.931 . S
C1461 C1460 1.370 . S
C1461 C1465 1.408 . S
C1462 C1460 1.363 . S
C1462 C1463 1.370 . S
C1462 C1466 1.524 . S
C1463 C1455 1.503 . S
C1463 C1462 1.370 . S
C1463 C1464 1.403 . S
C1464 C1463 1.403 . S
C1464 C1465 1.404 . S
C1464 C1467 1.539 . S
C1465 C1461 1.408 . S
C1465 C1464 1.404 . S
C1465 H1477 0.930 . S
C1466 C1462 1.524 . S
C1466 H1478 0.956 . S
C1466 H1479 0.961 . S
C1466 H1480 0.961 . S
C1467 C1464 1.539 . S
C1467 H1481 0.958 . S
C1467 H1482 0.961 . S
C1467 H1483 0.960 . S
H1468 C1452 0.931 . S
H1469 C1457 0.929 . S
H1470 C1458 0.960 . S
H1471 C1458 0.962 . S
H1472 C1458 0.960 . S
H1473 C1459 0.961 . S
H1474 C1459 0.961 . S
H1475 C1459 0.961 . S
H1476 C1460 0.931 . S
H1477 C1465 0.930 . S
H1478 C1466 0.956 . S
H1479 C1466 0.961 . S
H1480 C1466 0.961 . S
H1481 C1467 0.958 . S
H1482 C1467 0.961 . S
H1483 C1467 0.960 . S
C1484 C1485 1.391 . S
C1484 C1486 1.394 . S
C1484 H1500 0.931 . S
C1485 C1484 1.391 . S
C1485 C1489 1.376 . S
C1486 C1484 1.394 . S
C1486 C1487 1.369 . S
C1486 C1490 1.531 . S
C1487 C1486 1.369 . S
C1487 C1488 1.410 . S
C1487 C1495 1.503 . S
C1488 C1487 1.410 . S
C1488 C1489 1.392 . S
C1488 C1491 1.511 . S
C1489 C1485 1.376 . S
C1489 C1488 1.392 . S
C1489 H1501 0.929 . S
C1490 C1486 1.531 . S
C1490 H1502 0.960 . S
C1490 H1503 0.962 . S
C1490 H1504 0.960 . S
C1491 C1488 1.511 . S
C1491 H1505 0.961 . S
C1491 H1506 0.961 . S
C1491 H1507 0.961 . S
C1492 C1493 1.370 . S
C1492 C1494 1.363 . S
C1492 H1508 0.931 . S
C1493 C1492 1.370 . S
C1493 C1497 1.408 . S
C1494 C1492 1.363 . S
C1494 C1495 1.370 . S
C1494 C1498 1.524 . S
C1495 C1487 1.503 . S
C1495 C1494 1.370 . S
C1495 C1496 1.403 . S
C1496 C1495 1.403 . S
C1496 C1497 1.404 . S
C1496 C1499 1.539 . S
C1497 C1493 1.408 . S
C1497 C1496 1.404 . S
C1497 H1509 0.930 . S
C1498 C1494 1.524 . S
C1498 H1510 0.956 . S
C1498 H1511 0.961 . S
C1498 H1512 0.961 . S
C1499 C1496 1.539 . S
C1499 H1513 0.958 . S
C1499 H1514 0.961 . S
C1499 H1515 0.960 . S
H1500 C1484 0.931 . S
H1501 C1489 0.929 . S
H1502 C1490 0.960 . S
H1503 C1490 0.962 . S
H1504 C1490 0.960 . S
H1505 C1491 0.961 . S
H1506 C1491 0.961 . S
H1507 C1491 0.961 . S
H1508 C1492 0.931 . S
H1509 C1497 0.930 . S
H1510 C1498 0.956 . S
H1511 C1498 0.961 . S
H1512 C1498 0.961 . S
H1513 C1499 0.958 . S
H1514 C1499 0.961 . S
H1515 C1499 0.960 . S
C501 C428 1.772 . S
C493 C1 1.838 . S
C525 C68 1.749 . S
C533 C431 1.712 . S
C557 C93 1.735 . S
C565 C462 1.692 . S
C597 C397 1.759 . S
C589 C139 1.810 . S
C629 C432 1.776 . S
C621 C8 1.831 . S
C661 C463 1.759 . S
C653 C61 1.809 . S
C693 C388 1.689 . S
C685 C100 1.735 . S
C725 C419 1.720 . S
C717 C146 1.759 . S
C749 C15 1.294 . S
C757 C449 1.208 . S
C781 C192 1.270 1_565 S
C789 C418 1.190 . S
C813 C107 1.202 . S
C821 C378 1.209 . S
C853 C471 1.226 . S
C845 C238 1.230 1_545 S
C885 C399 1.241 . S
C877 C22 1.304 . S
C909 C185 1.214 1_565 S
C917 C398 1.208 . S
C941 C114 1.211 . S
C949 C491 1.193 . S
C981 C430 1.217 . S
C973 C231 1.286 1_545 S
C1005 C277 1.830 . S
C1013 C490 1.792 . S
C1037 C206 1.743 . S
C1045 C369 1.728 . S
C1069 C330 1.730 . S
C1077 C400 1.703 . S
C1101 C252 1.809 . S
C1109 C459 1.759 . S
C1141 C370 1.772 . S
C1133 C284 1.836 . S
C1165 C199 1.795 . S
C1173 C401 1.755 . S
C1197 C323 1.733 . S
C1205 C450 1.685 . S
C1237 C481 1.729 . S
C1229 C245 1.750 . S
C1261 C291 1.294 . S
C1269 C387 1.225 . S
C1293 C54 1.278 . S
C1301 C480 1.201 . S
C1325 C344 1.202 . S
C1333 C440 1.196 . S
C1365 C409 1.224 . S
C1357 C153 1.216 . S
C1397 C461 1.237 . S
C1389 C298 1.305 . S
C1429 C460 1.209 . S
C1421 C47 1.213 . S
C1461 C429 1.210 . S
C1453 C337 1.201 . S
C1493 C368 1.229 . S
C1485 C160 1.289 . S
