# Generated by pormake.
# Topology ssb, (4,4)-cn, num edge types: 1
# Building blocks:
#     Node 0, Type 0, BuildingBlock: AZAVOO_clean_linker_0, # of connection points: 4
#     Node 1, Type 0, BuildingBlock: AZAVOO_clean_linker_0, # of connection points: 4
#     Node 2, Type 0, BuildingBlock: AZAVOO_clean_linker_0, # of connection points: 4
#     Node 3, Type 0, BuildingBlock: AZAVOO_clean_linker_0, # of connection points: 4
#     Node 4, Type 0, BuildingBlock: AZAVOO_clean_linker_0, # of connection points: 4
#     Node 5, Type 0, BuildingBlock: AZAVOO_clean_linker_0, # of connection points: 4
#     Node 6, Type 0, BuildingBlock: AZAVOO_clean_linker_0, # of connection points: 4
#     Node 7, Type 0, BuildingBlock: AZAVOO_clean_linker_0, # of connection points: 4
#     Node 8, Type 1, BuildingBlock: KOZSID_clean_sbu_0, # of connection points: 4
#     Node 9, Type 1, BuildingBlock: KOZSID_clean_sbu_0, # of connection points: 4
#     Node 10, Type 1, BuildingBlock: KOZSID_clean_sbu_0, # of connection points: 4
#     Node 11, Type 1, BuildingBlock: KOZSID_clean_sbu_0, # of connection points: 4
#     Node 12, Type 1, BuildingBlock: KOZSID_clean_sbu_0, # of connection points: 4
#     Node 13, Type 1, BuildingBlock: KOZSID_clean_sbu_0, # of connection points: 4
#     Node 14, Type 1, BuildingBlock: KOZSID_clean_sbu_0, # of connection points: 4
#     Node 15, Type 1, BuildingBlock: KOZSID_clean_sbu_0, # of connection points: 4
#     Edge 16, Type (0, 1), BuildingBlock: UVAHIK_clean_linker_0, # of connection points: 2
#     Edge 17, Type (0, 1), BuildingBlock: UVAHIK_clean_linker_0, # of connection points: 2
#     Edge 18, Type (0, 1), BuildingBlock: UVAHIK_clean_linker_0, # of connection points: 2
#     Edge 19, Type (0, 1), BuildingBlock: UVAHIK_clean_linker_0, # of connection points: 2
#     Edge 20, Type (0, 1), BuildingBlock: UVAHIK_clean_linker_0, # of connection points: 2
#     Edge 21, Type (0, 1), BuildingBlock: UVAHIK_clean_linker_0, # of connection points: 2
#     Edge 22, Type (0, 1), BuildingBlock: UVAHIK_clean_linker_0, # of connection points: 2
#     Edge 23, Type (0, 1), BuildingBlock: UVAHIK_clean_linker_0, # of connection points: 2
#     Edge 24, Type (0, 1), BuildingBlock: UVAHIK_clean_linker_0, # of connection points: 2
#     Edge 25, Type (0, 1), BuildingBlock: UVAHIK_clean_linker_0, # of connection points: 2
#     Edge 26, Type (0, 1), BuildingBlock: UVAHIK_clean_linker_0, # of connection points: 2
#     Edge 27, Type (0, 1), BuildingBlock: UVAHIK_clean_linker_0, # of connection points: 2
#     Edge 28, Type (0, 1), BuildingBlock: UVAHIK_clean_linker_0, # of connection points: 2
#     Edge 29, Type (0, 1), BuildingBlock: UVAHIK_clean_linker_0, # of connection points: 2
#     Edge 30, Type (0, 1), BuildingBlock: UVAHIK_clean_linker_0, # of connection points: 2
#     Edge 31, Type (0, 1), BuildingBlock: UVAHIK_clean_linker_0, # of connection points: 2
#     Edge 32, Type (0, 1), BuildingBlock: UVAHIK_clean_linker_0, # of connection points: 2
#     Edge 33, Type (0, 1), BuildingBlock: UVAHIK_clean_linker_0, # of connection points: 2
#     Edge 34, Type (0, 1), BuildingBlock: UVAHIK_clean_linker_0, # of connection points: 2
#     Edge 35, Type (0, 1), BuildingBlock: UVAHIK_clean_linker_0, # of connection points: 2
#     Edge 36, Type (0, 1), BuildingBlock: UVAHIK_clean_linker_0, # of connection points: 2
#     Edge 37, Type (0, 1), BuildingBlock: UVAHIK_clean_linker_0, # of connection points: 2
#     Edge 38, Type (0, 1), BuildingBlock: UVAHIK_clean_linker_0, # of connection points: 2
#     Edge 39, Type (0, 1), BuildingBlock: UVAHIK_clean_linker_0, # of connection points: 2
#     Edge 40, Type (0, 1), BuildingBlock: UVAHIK_clean_linker_0, # of connection points: 2
#     Edge 41, Type (0, 1), BuildingBlock: UVAHIK_clean_linker_0, # of connection points: 2
#     Edge 42, Type (0, 1), BuildingBlock: UVAHIK_clean_linker_0, # of connection points: 2
#     Edge 43, Type (0, 1), BuildingBlock: UVAHIK_clean_linker_0, # of connection points: 2
#     Edge 44, Type (0, 1), BuildingBlock: UVAHIK_clean_linker_0, # of connection points: 2
#     Edge 45, Type (0, 1), BuildingBlock: UVAHIK_clean_linker_0, # of connection points: 2
#     Edge 46, Type (0, 1), BuildingBlock: UVAHIK_clean_linker_0, # of connection points: 2
#     Edge 47, Type (0, 1), BuildingBlock: UVAHIK_clean_linker_0, # of connection points: 2
# Relax obj value: 0.042
# Max RMSD: 0.287
# Mean RMSD: 0.108
data_MOF--net-ssb--node1-KOZSID_clean_sbu_0--node2-AZAVOO_clean_linker_0--edge1-UVAHIK_clean_linker_0
_symmetry_space_group_name_H-M    P1
_symmetry_Int_Tables_number       1
_symmetry_cell_setting            triclinic
loop_
_symmetry_equiv_pos_as_xyz
'x, y, z'
_cell_length_a     73.820455
_cell_length_b     75.888481
_cell_length_c     54.325391
_cell_angle_alpha  94.19649
_cell_angle_beta   93.869502
_cell_angle_gamma 90.236561
loop_
_atom_site_label
_atom_site_type_symbol
_atom_site_fract_x
_atom_site_fract_y
_atom_site_fract_z
_atom_type_partial_charge
H0 H 0.17586 0.46922 0.29115 0.0
H1 H 0.30821 0.39329 0.10711 0.0
H2 H 0.24184 0.39829 0.31145 0.0
H3 H 0.21824 0.39758 0.34088 0.0
H4 H 0.18879 0.35814 0.29205 0.0
H5 H 0.21288 0.35847 0.26342 0.0
H6 H 0.24176 0.42917 0.27284 0.0
H7 H 0.21765 0.4499 0.28329 0.0
H8 H 0.1774 0.41144 0.25234 0.0
H9 H 0.20166 0.39094 0.24174 0.0
H10 H 0.2709 0.42752 0.23046 0.0
H11 H 0.26597 0.453 0.20579 0.0
H12 H 0.21524 0.42983 0.17426 0.0
H13 H 0.2206 0.40415 0.19853 0.0
H14 H 0.29859 0.39795 0.22872 0.0
H15 H 0.31761 0.40149 0.19418 0.0
H16 H 0.2725 0.38473 0.14272 0.0
H17 H 0.25372 0.38103 0.17747 0.0
H18 H 0.2997 0.3728 0.26623 0.0
H19 H 0.32665 0.35624 0.25444 0.0
H20 H 0.2947 0.32875 0.19385 0.0
H21 H 0.26786 0.34554 0.20558 0.0
H22 H 0.27179 0.37094 0.30747 0.0
H23 H 0.27888 0.34626 0.33295 0.0
H24 H 0.25387 0.31006 0.2752 0.0
H25 H 0.24744 0.33485 0.24963 0.0
O26 O 0.18518 0.46088 0.28665 0.0
O27 O 0.16503 0.44061 0.27062 0.0
O28 O 0.3238 0.40042 0.14835 0.0
O29 O 0.301 0.392 0.12112 0.0
C30 C 0.24119 0.38137 0.2656 0.0
C31 C 0.2381 0.39589 0.25098 0.0
C32 C 0.24921 0.39856 0.23141 0.0
C33 C 0.26342 0.38668 0.22653 0.0
C34 C 0.26662 0.37232 0.24142 0.0
C35 C 0.25553 0.36964 0.26098 0.0
C36 C 0.22898 0.37844 0.2854 0.0
C37 C 0.23052 0.38915 0.30756 0.0
C38 C 0.21691 0.38887 0.32415 0.0
C39 C 0.20144 0.37802 0.31866 0.0
C40 C 0.20055 0.36654 0.29704 0.0
C41 C 0.21428 0.3667 0.28061 0.0
C42 C 0.22342 0.40857 0.25662 0.0
C43 C 0.22772 0.4253 0.26823 0.0
C44 C 0.21393 0.43709 0.27423 0.0
C45 C 0.19559 0.43231 0.26871 0.0
C46 C 0.19137 0.41553 0.25689 0.0
C47 C 0.20519 0.40379 0.25085 0.0
C48 C 0.24613 0.41398 0.21627 0.0
C49 C 0.25878 0.42793 0.21812 0.0
C50 C 0.25585 0.44253 0.20416 0.0
C51 C 0.24016 0.44351 0.18808 0.0
C52 C 0.22754 0.42943 0.18624 0.0
C53 C 0.23051 0.41481 0.20021 0.0
C54 C 0.27484 0.38914 0.20556 0.0
C55 C 0.29289 0.39497 0.20998 0.0
C56 C 0.30369 0.39703 0.19022 0.0
C57 C 0.29657 0.39337 0.16567 0.0
C58 C 0.27841 0.38764 0.16137 0.0
C59 C 0.26765 0.38555 0.18117 0.0
C60 C 0.28195 0.36036 0.23667 0.0
C61 C 0.29848 0.36294 0.25074 0.0
C62 C 0.3138 0.35356 0.24396 0.0
C63 C 0.31269 0.3413 0.22322 0.0
C64 C 0.29584 0.33802 0.21003 0.0
C65 C 0.28057 0.34759 0.21663 0.0
C66 C 0.2591 0.35467 0.27675 0.0
C67 C 0.26782 0.35767 0.30042 0.0
C68 C 0.27176 0.34353 0.31499 0.0
C69 C 0.26696 0.32608 0.30621 0.0
C70 C 0.25806 0.32323 0.28247 0.0
C71 C 0.25422 0.33738 0.26787 0.0
C72 C 0.18097 0.4448 0.27533 0.0
C73 C 0.308 0.3955 0.14461 0.0
H74 H 0.65312 0.17235 0.29246 0.0
H75 H 0.78641 0.23948 0.50301 0.0
H76 H 0.72323 0.23821 0.28733 0.0
H77 H 0.70158 0.23995 0.25147 0.0
H78 H 0.67724 0.2857 0.28774 0.0
H79 H 0.69912 0.28393 0.32341 0.0
H80 H 0.72104 0.20931 0.32585 0.0
H81 H 0.69585 0.18962 0.31024 0.0
H82 H 0.65786 0.23126 0.32733 0.0
H83 H 0.68317 0.25073 0.34317 0.0
H84 H 0.74933 0.21076 0.37364 0.0
H85 H 0.74212 0.18618 0.39804 0.0
H86 H 0.69147 0.21117 0.41518 0.0
H87 H 0.69926 0.23608 0.39164 0.0
H88 H 0.77925 0.24043 0.37995 0.0
H89 H 0.79743 0.23522 0.41804 0.0
H90 H 0.75165 0.24975 0.46064 0.0
H91 H 0.73369 0.25511 0.42243 0.0
H92 H 0.78062 0.26928 0.34047 0.0
H93 H 0.80776 0.28588 0.35723 0.0
H94 H 0.77898 0.30535 0.42026 0.0
H95 H 0.75196 0.28862 0.40339 0.0
H96 H 0.75021 0.26971 0.29354 0.0
H97 H 0.75824 0.29557 0.27181 0.0
H98 H 0.74411 0.32983 0.33452 0.0
H99 H 0.73573 0.30399 0.35588 0.0
O100 O 0.66286 0.18032 0.29886 0.0
O101 O 0.64391 0.2022 0.30786 0.0
O102 O 0.80268 0.23414 0.46492 0.0
O103 O 0.77952 0.24143 0.48766 0.0
C104 C 0.72366 0.25791 0.33114 0.0
C105 C 0.71929 0.24343 0.34468 0.0
C106 C 0.72954 0.24033 0.36678 0.0
C107 C 0.74427 0.25158 0.37532 0.0
C108 C 0.74861 0.26612 0.36188 0.0
C109 C 0.73819 0.26939 0.33988 0.0
C110 C 0.71268 0.26091 0.30795 0.0
C111 C 0.71344 0.24881 0.28728 0.0
C112 C 0.70098 0.24973 0.26694 0.0
C113 C 0.68755 0.26283 0.2669 0.0
C114 C 0.68749 0.27553 0.28712 0.0
C115 C 0.69996 0.27457 0.3075 0.0
C116 C 0.70392 0.23143 0.3356 0.0
C117 C 0.70726 0.21411 0.32632 0.0
C118 C 0.69285 0.20292 0.31736 0.0
C119 C 0.67484 0.20888 0.3175 0.0
C120 C 0.67156 0.22626 0.32692 0.0
C121 C 0.68598 0.23741 0.33594 0.0
C122 C 0.72486 0.2252 0.38099 0.0
C123 C 0.73672 0.21092 0.38276 0.0
C124 C 0.73247 0.19682 0.39648 0.0
C125 C 0.71618 0.19668 0.40851 0.0
C126 C 0.70422 0.21096 0.40641 0.0
C127 C 0.70856 0.22513 0.39283 0.0
C128 C 0.75518 0.24816 0.39846 0.0
C129 C 0.7732 0.24251 0.39754 0.0
C130 C 0.78353 0.23953 0.41932 0.0
C131 C 0.77599 0.24208 0.4424 0.0
C132 C 0.75788 0.24766 0.44319 0.0
C133 C 0.74757 0.25069 0.4214 0.0
C134 C 0.76437 0.27767 0.37079 0.0
C135 C 0.78012 0.27735 0.35771 0.0
C136 C 0.79558 0.28686 0.36729 0.0
C137 C 0.79556 0.29683 0.39018 0.0
C138 C 0.77953 0.29758 0.40279 0.0
C139 C 0.76406 0.28812 0.39315 0.0
C140 C 0.7424 0.28499 0.32628 0.0
C141 C 0.74864 0.28281 0.30243 0.0
C142 C 0.75323 0.29755 0.29009 0.0
C143 C 0.75187 0.31465 0.30158 0.0
C144 C 0.74548 0.31677 0.32539 0.0
C145 C 0.74066 0.30206 0.33755 0.0
C146 C 0.65956 0.19699 0.30781 0.0
C147 C 0.78692 0.23896 0.4656 0.0
H148 H 0.67697 0.87691 0.31856 0.0
H149 H 0.70109 0.69366 0.19527 0.0
H150 H 0.7545 0.82084 0.33589 0.0
H151 H 0.75463 0.84422 0.36939 0.0
H152 H 0.73375 0.8071 0.4174 0.0
H153 H 0.73394 0.78375 0.38379 0.0
H154 H 0.72642 0.8196 0.29223 0.0
H155 H 0.7078 0.84603 0.29759 0.0
H156 H 0.68212 0.82311 0.35713 0.0
H157 H 0.70067 0.79666 0.35134 0.0
H158 H 0.73 0.78822 0.25238 0.0
H159 H 0.70835 0.79859 0.22078 0.0
H160 H 0.66425 0.78802 0.26629 0.0
H161 H 0.68619 0.77799 0.29809 0.0
H162 H 0.75472 0.75565 0.25623 0.0
H163 H 0.74878 0.73409 0.22083 0.0
H164 H 0.69805 0.71972 0.24981 0.0
H165 H 0.70428 0.74118 0.28527 0.0
H166 H 0.78259 0.75682 0.29821 0.0
H167 H 0.79873 0.72941 0.28748 0.0
H168 H 0.75353 0.6991 0.30922 0.0
H169 H 0.7377 0.7265 0.32015 0.0
H170 H 0.78163 0.79365 0.33589 0.0
H171 H 0.80948 0.79151 0.36228 0.0
H172 H 0.78761 0.74576 0.39334 0.0
H173 H 0.75958 0.74805 0.36669 0.0
O174 O 0.68411 0.86629 0.31664 0.0
O175 O 0.67142 0.85397 0.34724 0.0
O176 O 0.73006 0.71006 0.19506 0.0
O177 O 0.70379 0.70227 0.20909 0.0
C178 C 0.7408 0.78756 0.33594 0.0
C179 C 0.72633 0.79029 0.31829 0.0
C180 C 0.72314 0.77816 0.29751 0.0
C181 C 0.73373 0.76279 0.29502 0.0
C182 C 0.74806 0.75989 0.31287 0.0
C183 C 0.75195 0.77258 0.33293 0.0
C184 C 0.74412 0.80066 0.35743 0.0
C185 C 0.75033 0.81771 0.35382 0.0
C186 C 0.75023 0.83105 0.3729 0.0
C187 C 0.74393 0.82758 0.39594 0.0
C188 C 0.73877 0.81019 0.39992 0.0
C189 C 0.73888 0.79683 0.38079 0.0
C190 C 0.71481 0.80621 0.32132 0.0
C191 C 0.71666 0.82027 0.30628 0.0
C192 C 0.70606 0.83537 0.30945 0.0
C193 C 0.69347 0.83669 0.3278 0.0
C194 C 0.69167 0.82253 0.34283 0.0
C195 C 0.70225 0.80742 0.33958 0.0
C196 C 0.70962 0.78235 0.27743 0.0
C197 C 0.71563 0.78789 0.2553 0.0
C198 C 0.70323 0.79378 0.23728 0.0
C199 C 0.68456 0.79419 0.24104 0.0
C200 C 0.67855 0.78811 0.26299 0.0
C201 C 0.69101 0.78224 0.28106 0.0
C202 C 0.72998 0.74987 0.27337 0.0
C203 C 0.74238 0.74776 0.25495 0.0
C204 C 0.73893 0.73547 0.23472 0.0
C205 C 0.72294 0.72515 0.2325 0.0
C206 C 0.71049 0.72743 0.25095 0.0
C207 C 0.71399 0.73969 0.2712 0.0
C208 C 0.75901 0.74361 0.30998 0.0
C209 C 0.77641 0.74425 0.30118 0.0
C210 C 0.78551 0.7286 0.29487 0.0
C211 C 0.77736 0.71209 0.29739 0.0
C212 C 0.76028 0.71158 0.30733 0.0
C213 C 0.75118 0.72721 0.31352 0.0
C214 C 0.76857 0.77108 0.3495 0.0
C215 C 0.78277 0.78327 0.34857 0.0
C216 C 0.79864 0.78206 0.36372 0.0
C217 C 0.80067 0.76855 0.38004 0.0
C218 C 0.78644 0.75626 0.38087 0.0
C219 C 0.77046 0.75756 0.36574 0.0
C220 C 0.6823 0.85279 0.33122 0.0
C221 C 0.71922 0.71207 0.21106 0.0
H222 H 0.33695 0.95755 0.2696 0.0
H223 H 0.25078 0.826 0.07277 0.0
H224 H 0.26956 0.89655 0.28741 0.0
H225 H 0.26842 0.92136 0.3183 0.0
H226 H 0.21554 0.93519 0.28633 0.0
H227 H 0.21762 0.91121 0.25425 0.0
H228 H 0.29654 0.89125 0.24688 0.0
H229 H 0.31777 0.91584 0.25797 0.0
H230 H 0.27507 0.95279 0.241 0.0
H231 H 0.25404 0.92806 0.22966 0.0
H232 H 0.28985 0.85807 0.20341 0.0
H233 H 0.31641 0.86033 0.17925 0.0
H234 H 0.29907 0.91187 0.15886 0.0
H235 H 0.27207 0.90929 0.18256 0.0
H236 H 0.25911 0.83345 0.19623 0.0
H237 H 0.26057 0.81531 0.15729 0.0
H238 H 0.24544 0.86059 0.11676 0.0
H239 H 0.2438 0.87851 0.15586 0.0
H240 H 0.23482 0.83267 0.23542 0.0
H241 H 0.21673 0.80714 0.21807 0.0
H242 H 0.18851 0.84012 0.16651 0.0
H243 H 0.20739 0.8653 0.18327 0.0
H244 H 0.24009 0.86453 0.28612 0.0
H245 H 0.21765 0.85507 0.3136 0.0
H246 H 0.17458 0.86676 0.2594 0.0
H247 H 0.19715 0.87705 0.23265 0.0
O248 O 0.32835 0.94803 0.26498 0.0
O249 O 0.3059 0.96647 0.25618 0.0
O250 O 0.25793 0.80997 0.11015 0.0
O251 O 0.25031 0.83287 0.08844 0.0
C252 C 0.24647 0.88997 0.2463 0.0
C253 C 0.26084 0.89293 0.23097 0.0
C254 C 0.26285 0.88171 0.20942 0.0
C255 C 0.24993 0.86818 0.20248 0.0
C256 C 0.23566 0.8652 0.21779 0.0
C257 C 0.23415 0.87578 0.24003 0.0
C258 C 0.24389 0.90234 0.26824 0.0
C259 C 0.25767 0.90487 0.28725 0.0
C260 C 0.25687 0.91899 0.30509 0.0
C261 C 0.24201 0.93057 0.30462 0.0
C262 C 0.22745 0.92691 0.28685 0.0
C263 C 0.22847 0.91304 0.26868 0.0
C264 C 0.27377 0.90788 0.23744 0.0
C265 C 0.29184 0.90466 0.24544 0.0
C266 C 0.30392 0.91874 0.25182 0.0
C267 C 0.29812 0.93629 0.25039 0.0
C268 C 0.27998 0.93944 0.24232 0.0
C269 C 0.26794 0.92535 0.23585 0.0
C270 C 0.27896 0.88347 0.19467 0.0
C271 C 0.29166 0.86978 0.19354 0.0
C272 C 0.30681 0.87109 0.17976 0.0
C273 C 0.30973 0.88625 0.16714 0.0
C274 C 0.29715 0.90008 0.16853 0.0
C275 C 0.28177 0.89863 0.18201 0.0
C276 C 0.25121 0.85724 0.17884 0.0
C277 C 0.25601 0.83938 0.17892 0.0
C278 C 0.25689 0.82908 0.15665 0.0
C279 C 0.25308 0.83649 0.13389 0.0
C280 C 0.24843 0.85445 0.13394 0.0
C281 C 0.24751 0.86473 0.15623 0.0
C282 C 0.2225 0.8507 0.21039 0.0
C283 C 0.22448 0.83438 0.22069 0.0
C284 C 0.21402 0.81985 0.21082 0.0
C285 C 0.20127 0.8215 0.19065 0.0
C286 C 0.19847 0.83828 0.18164 0.0
C287 C 0.20912 0.85271 0.19129 0.0
C288 C 0.22028 0.87135 0.2573 0.0
C289 C 0.22579 0.86528 0.28037 0.0
C290 C 0.21293 0.85969 0.29592 0.0
C291 C 0.19427 0.85992 0.28863 0.0
C292 C 0.1888 0.8665 0.26575 0.0
C293 C 0.20168 0.87225 0.2503 0.0
C294 C 0.31096 0.95121 0.25733 0.0
C295 C 0.25394 0.82559 0.11018 0.0
H296 H 0.38152 0.95889 0.73955 0.0
H297 H 0.19079 0.93236 0.62512 0.0
H298 H 0.32508 0.88141 0.73889 0.0
H299 H 0.35132 0.87719 0.76736 0.0
H300 H 0.31814 0.8883 0.82926 0.0
H301 H 0.29214 0.89356 0.80035 0.0
H302 H 0.32076 0.91166 0.70517 0.0
H303 H 0.34808 0.93015 0.71278 0.0
H304 H 0.33099 0.94737 0.78519 0.0
H305 H 0.30361 0.92899 0.77722 0.0
H306 H 0.28591 0.91154 0.66873 0.0
H307 H 0.29019 0.93702 0.64449 0.0
H308 H 0.28384 0.97208 0.70963 0.0
H309 H 0.27962 0.9465 0.73371 0.0
H310 H 0.25677 0.88129 0.66973 0.0
H311 H 0.2338 0.88723 0.63683 0.0
H312 H 0.21842 0.93458 0.67932 0.0
H313 H 0.24129 0.92837 0.71221 0.0
H314 H 0.26199 0.85185 0.7089 0.0
H315 H 0.23555 0.83325 0.69545 0.0
H316 H 0.20023 0.87557 0.71928 0.0
H317 H 0.22682 0.89374 0.73376 0.0
H318 H 0.29425 0.85095 0.74611 0.0
H319 H 0.28885 0.82574 0.77042 0.0
H320 H 0.24591 0.85452 0.80543 0.0
H321 H 0.25119 0.87944 0.78065 0.0
O322 O 0.37057 0.95175 0.73687 0.0
O323 O 0.36119 0.96016 0.77394 0.0
O324 O 0.20826 0.90511 0.61686 0.0
O325 O 0.19993 0.92966 0.63787 0.0
C326 C 0.29171 0.89272 0.74992 0.0
C327 C 0.2937 0.90764 0.73605 0.0
C328 C 0.28011 0.91163 0.71778 0.0
C329 C 0.26455 0.90066 0.71333 0.0
C330 C 0.26235 0.886 0.72763 0.0
C331 C 0.27583 0.88214 0.74615 0.0
C332 C 0.30678 0.88792 0.76756 0.0
C333 C 0.32347 0.88282 0.75861 0.0
C334 C 0.33842 0.88026 0.77497 0.0
C335 C 0.33691 0.88244 0.80069 0.0
C336 C 0.31989 0.88681 0.80959 0.0
C337 C 0.30496 0.88962 0.79314 0.0
C338 C 0.31019 0.91904 0.74061 0.0
C339 C 0.32289 0.91953 0.72259 0.0
C340 C 0.33851 0.93006 0.72702 0.0
C341 C 0.34172 0.94024 0.7496 0.0
C342 C 0.32893 0.9397 0.76761 0.0
C343 C 0.3133 0.9292 0.76312 0.0
C344 C 0.28239 0.92716 0.70297 0.0
C345 C 0.28532 0.92474 0.6777 0.0
C346 C 0.28774 0.93931 0.66388 0.0
C347 C 0.28737 0.9566 0.67512 0.0
C348 C 0.28444 0.95895 0.70048 0.0
C349 C 0.28193 0.94437 0.71424 0.0
C350 C 0.25065 0.90438 0.69336 0.0
C351 C 0.24837 0.8929 0.67193 0.0
C352 C 0.23527 0.89634 0.65315 0.0
C353 C 0.22427 0.91139 0.65544 0.0
C354 C 0.22666 0.92289 0.67695 0.0
C355 C 0.23973 0.91939 0.69575 0.0
C356 C 0.24631 0.87416 0.72217 0.0
C357 C 0.24854 0.85692 0.71175 0.0
C358 C 0.23342 0.8464 0.70387 0.0
C359 C 0.21577 0.853 0.70603 0.0
C360 C 0.21361 0.87 0.71755 0.0
C361 C 0.22877 0.88047 0.72564 0.0
C362 C 0.27314 0.86705 0.76164 0.0
C363 C 0.28376 0.85182 0.75916 0.0
C364 C 0.28067 0.83745 0.77313 0.0
C365 C 0.26689 0.83803 0.78991 0.0
C366 C 0.25641 0.85344 0.79244 0.0
C367 C 0.25949 0.86776 0.77842 0.0
C368 C 0.35838 0.95134 0.75429 0.0
C369 C 0.21036 0.91513 0.63552 0.0
H370 H 0.24411 0.50119 0.7919 0.0
H371 H 0.21702 0.3093 0.66558 0.0
H372 H 0.30838 0.42644 0.78198 0.0
H373 H 0.31418 0.45373 0.80813 0.0
H374 H 0.28247 0.43329 0.86396 0.0
H375 H 0.27742 0.40581 0.83802 0.0
H376 H 0.27205 0.43405 0.75096 0.0
H377 H 0.26183 0.46414 0.76156 0.0
H378 H 0.23536 0.44561 0.82359 0.0
H379 H 0.24569 0.41561 0.81274 0.0
H380 H 0.25119 0.39895 0.70977 0.0
H381 H 0.22092 0.40205 0.6893 0.0
H382 H 0.19722 0.39818 0.75941 0.0
H383 H 0.22741 0.39416 0.7793 0.0
H384 H 0.28037 0.36946 0.70619 0.0
H385 H 0.2674 0.34844 0.67334 0.0
H386 H 0.2256 0.33461 0.72078 0.0
H387 H 0.23885 0.35555 0.75357 0.0
H388 H 0.31445 0.36994 0.73819 0.0
H389 H 0.3291 0.34299 0.72274 0.0
H390 H 0.29268 0.31206 0.76201 0.0
H391 H 0.27752 0.3392 0.7762 0.0
H392 H 0.32796 0.39555 0.78519 0.0
H393 H 0.35409 0.38394 0.80924 0.0
H394 H 0.31805 0.34919 0.8429 0.0
H395 H 0.29219 0.36083 0.81891 0.0
O396 O 0.24741 0.4891 0.78747 0.0
O397 O 0.23348 0.47882 0.81859 0.0
O398 O 0.24432 0.32514 0.6547 0.0
O399 O 0.22246 0.31764 0.67826 0.0
C400 C 0.28414 0.40094 0.78949 0.0
C401 C 0.2677 0.40505 0.7763 0.0
C402 C 0.25959 0.39273 0.75812 0.0
C403 C 0.26853 0.37672 0.75209 0.0
C404 C 0.28505 0.37277 0.76514 0.0
C405 C 0.29252 0.38459 0.78445 0.0
C406 C 0.29245 0.41425 0.80814 0.0
C407 C 0.30343 0.42757 0.80035 0.0
C408 C 0.30648 0.44323 0.81517 0.0
C409 C 0.2984 0.44585 0.83786 0.0
C410 C 0.28895 0.4317 0.84666 0.0
C411 C 0.28606 0.41596 0.83189 0.0
C412 C 0.25951 0.42269 0.781 0.0
C413 C 0.26378 0.4365 0.76657 0.0
C414 C 0.25803 0.45367 0.77277 0.0
C415 C 0.24786 0.4573 0.7935 0.0
C416 C 0.24319 0.44329 0.80753 0.0
C417 C 0.24898 0.42613 0.80131 0.0
C418 C 0.24149 0.39632 0.746 0.0
C419 C 0.23943 0.39885 0.72066 0.0
C420 C 0.22213 0.40074 0.70906 0.0
C421 C 0.20658 0.40029 0.72268 0.0
C422 C 0.20882 0.39829 0.74825 0.0
C423 C 0.22609 0.39622 0.75974 0.0
C424 C 0.26057 0.36397 0.73223 0.0
C425 C 0.26847 0.36181 0.70947 0.0
C426 C 0.261 0.34983 0.69073 0.0
C427 C 0.24545 0.33984 0.69443 0.0
C428 C 0.23757 0.34209 0.71731 0.0
C429 C 0.24509 0.35404 0.73606 0.0
C430 C 0.29487 0.35642 0.75805 0.0
C431 C 0.30978 0.35732 0.74357 0.0
C432 C 0.31824 0.34188 0.73498 0.0
C433 C 0.31206 0.32526 0.74103 0.0
C434 C 0.29758 0.32456 0.75657 0.0
C435 C 0.28896 0.34002 0.76483 0.0
C436 C 0.30822 0.37905 0.80041 0.0
C437 C 0.32575 0.38563 0.79805 0.0
C438 C 0.34061 0.37898 0.81175 0.0
C439 C 0.33812 0.36554 0.82777 0.0
C440 C 0.32045 0.35932 0.83041 0.0
C441 C 0.30565 0.36604 0.81689 0.0
C442 C 0.24242 0.47568 0.80066 0.0
C443 C 0.23744 0.32712 0.67456 0.0
H444 H 0.88523 0.35446 0.88097 0.0
H445 H 0.8111 0.22446 0.67162 0.0
H446 H 0.81674 0.28641 0.88923 0.0
H447 H 0.81593 0.30893 0.92373 0.0
H448 H 0.76929 0.33248 0.88696 0.0
H449 H 0.77046 0.31008 0.85229 0.0
H450 H 0.84698 0.28839 0.8479 0.0
H451 H 0.86739 0.3129 0.86303 0.0
H452 H 0.82397 0.34979 0.84951 0.0
H453 H 0.80381 0.32519 0.83408 0.0
H454 H 0.84559 0.26457 0.79479 0.0
H455 H 0.86695 0.27525 0.76644 0.0
H456 H 0.83423 0.32188 0.75821 0.0
H457 H 0.81265 0.31069 0.78545 0.0
H458 H 0.81643 0.23248 0.7951 0.0
H459 H 0.82085 0.2148 0.75648 0.0
H460 H 0.8008 0.25801 0.71492 0.0
H461 H 0.79628 0.27545 0.75369 0.0
H462 H 0.78743 0.22935 0.83382 0.0
H463 H 0.77161 0.20259 0.8158 0.0
H464 H 0.74675 0.23235 0.75774 0.0
H465 H 0.76317 0.25884 0.7755 0.0
H466 H 0.78 0.26066 0.88248 0.0
H467 H 0.7512 0.25882 0.9024 0.0
H468 H 0.72244 0.27522 0.83604 0.0
H469 H 0.75114 0.27763 0.81682 0.0
O470 O 0.87697 0.34498 0.87478 0.0
O471 O 0.85415 0.36337 0.86767 0.0
O472 O 0.81969 0.20934 0.70939 0.0
O473 O 0.80954 0.23118 0.68716 0.0
C474 C 0.79684 0.28566 0.84524 0.0
C475 C 0.81152 0.29001 0.83131 0.0
C476 C 0.8142 0.28042 0.80861 0.0
C477 C 0.803 0.26571 0.80064 0.0
C478 C 0.78835 0.26132 0.81457 0.0
C479 C 0.78487 0.27169 0.83639 0.0
C480 C 0.79368 0.29664 0.86828 0.0
C481 C 0.80605 0.29615 0.88898 0.0
C482 C 0.80555 0.30902 0.90866 0.0
C483 C 0.79267 0.3226 0.90792 0.0
C484 C 0.77954 0.32233 0.88787 0.0
C485 C 0.78004 0.30943 0.86821 0.0
C486 C 0.82389 0.30501 0.84013 0.0
C487 C 0.84194 0.30178 0.84817 0.0
C488 C 0.85354 0.3158 0.85684 0.0
C489 C 0.84729 0.33331 0.85757 0.0
C490 C 0.82921 0.33648 0.84928 0.0
C491 C 0.81765 0.32245 0.84054 0.0
C492 C 0.82762 0.28688 0.79216 0.0
C493 C 0.84307 0.27705 0.78674 0.0
C494 C 0.8553 0.28324 0.77071 0.0
C495 C 0.85227 0.29941 0.75998 0.0
C496 C 0.83683 0.30924 0.76576 0.0
C497 C 0.82458 0.30298 0.78155 0.0
C498 C 0.80612 0.25524 0.77715 0.0
C499 C 0.81303 0.23809 0.77762 0.0
C500 C 0.81554 0.22803 0.75555 0.0
C501 C 0.81119 0.235 0.7326 0.0
C502 C 0.80431 0.25225 0.73225 0.0
C503 C 0.80177 0.26226 0.75435 0.0
C504 C 0.77652 0.24595 0.80586 0.0
C505 C 0.77831 0.2301 0.81746 0.0
C506 C 0.7692 0.21485 0.80715 0.0
C507 C 0.75802 0.21524 0.78514 0.0
C508 C 0.75553 0.23146 0.77439 0.0
C509 C 0.76476 0.24665 0.7846 0.0
C510 C 0.76761 0.26923 0.84821 0.0
C511 C 0.76743 0.26377 0.87231 0.0
C512 C 0.751 0.26265 0.88356 0.0
C513 C 0.73456 0.267 0.87084 0.0
C514 C 0.73487 0.27207 0.8465 0.0
C515 C 0.75123 0.27326 0.83537 0.0
C516 C 0.85962 0.34816 0.86695 0.0
C517 C 0.81376 0.22435 0.70909 0.0
H518 H 0.91766 0.68949 0.81833 0.0
H519 H 0.74868 0.70934 0.95966 0.0
H520 H 0.85835 0.76537 0.82405 0.0
H521 H 0.87728 0.77027 0.78994 0.0
H522 H 0.83276 0.75344 0.73759 0.0
H523 H 0.81408 0.7481 0.77199 0.0
H524 H 0.86276 0.73585 0.86039 0.0
H525 H 0.88894 0.71815 0.84892 0.0
H526 H 0.85828 0.69709 0.78254 0.0
H527 H 0.83214 0.71472 0.79439 0.0
H528 H 0.83876 0.73337 0.90035 0.0
H529 H 0.84526 0.70801 0.92513 0.0
H530 H 0.81903 0.67321 0.86688 0.0
H531 H 0.81289 0.69854 0.84205 0.0
H532 H 0.80445 0.76207 0.90619 0.0
H533 H 0.78796 0.7555 0.94209 0.0
H534 H 0.76633 0.70778 0.90213 0.0
H535 H 0.78271 0.71464 0.86629 0.0
H536 H 0.79627 0.7913 0.86641 0.0
H537 H 0.76891 0.80675 0.87924 0.0
H538 H 0.73679 0.75999 0.85608 0.0
H539 H 0.7641 0.74474 0.84331 0.0
H540 H 0.82574 0.79278 0.82406 0.0
H541 H 0.81422 0.81819 0.80264 0.0
H542 H 0.76564 0.78852 0.77706 0.0
H543 H 0.77739 0.76305 0.79815 0.0
O544 O 0.90713 0.69633 0.82255 0.0
O545 O 0.89081 0.68596 0.78863 0.0
O546 O 0.7668 0.73696 0.96546 0.0
O547 O 0.75537 0.71225 0.94575 0.0
C548 C 0.8242 0.75167 0.82136 0.0
C549 C 0.82973 0.73732 0.83521 0.0
C550 C 0.82001 0.73305 0.85547 0.0
C551 C 0.80471 0.74299 0.86192 0.0
C552 C 0.79883 0.75702 0.84775 0.0
C553 C 0.80858 0.76136 0.82743 0.0
C554 C 0.83487 0.75635 0.8005 0.0
C555 C 0.85265 0.76289 0.8052 0.0
C556 C 0.86341 0.76577 0.78567 0.0
C557 C 0.85656 0.76221 0.761 0.0
C558 C 0.83852 0.7561 0.75636 0.0
C559 C 0.82777 0.7532 0.77596 0.0
C560 C 0.84557 0.72652 0.82824 0.0
C561 C 0.86171 0.72733 0.84346 0.0
C562 C 0.87665 0.71724 0.83682 0.0
C563 C 0.87571 0.7062 0.81481 0.0
C564 C 0.85947 0.70545 0.79961 0.0
C565 C 0.84453 0.71552 0.80631 0.0
C566 C 0.82538 0.7177 0.86949 0.0
C567 C 0.83471 0.72022 0.89285 0.0
C568 C 0.83843 0.70579 0.90688 0.0
C569 C 0.83258 0.68875 0.89785 0.0
C570 C 0.82358 0.68626 0.87422 0.0
C571 C 0.82014 0.70063 0.86005 0.0
C572 C 0.79485 0.73878 0.88374 0.0
C573 C 0.79614 0.75021 0.90526 0.0
C574 C 0.78672 0.74641 0.92572 0.0
C575 C 0.77584 0.73108 0.92499 0.0
C576 C 0.7746 0.71966 0.90334 0.0
C577 C 0.784 0.72351 0.88288 0.0
C578 C 0.78218 0.76687 0.8541 0.0
C579 C 0.78328 0.7845 0.86391 0.0
C580 C 0.76766 0.79329 0.87116 0.0
C581 C 0.75072 0.78453 0.86888 0.0
C582 C 0.74967 0.767 0.85848 0.0
C583 C 0.76523 0.75829 0.8511 0.0
C584 C 0.80237 0.77613 0.81269 0.0
C585 C 0.81276 0.79168 0.81346 0.0
C586 C 0.80617 0.80615 0.80127 0.0
C587 C 0.789 0.80531 0.78835 0.0
C588 C 0.77882 0.78955 0.78713 0.0
C589 C 0.78552 0.77503 0.79906 0.0
C590 C 0.89162 0.69553 0.80779 0.0
C591 C 0.76577 0.72701 0.94666 0.0
C592 C 0.02692 0.40674 0.56588 0.0
C593 C 0.0285 0.42435 0.57479 0.0
C594 C 0.01767 0.43383 0.55914 0.0
C595 C 0.00997 0.42154 0.5417 0.0
N596 N 0.01513 0.40492 0.54562 0.0
Co597 Co 0.00705 0.38327 0.52513 0.0
N598 N 0.98612 0.39562 0.50974 0.0
C599 C 0.98425 0.4132 0.509 0.0
C600 C 0.96802 0.41773 0.49735 0.0
C601 C 0.9592 0.402 0.49035 0.0
C602 C 0.97064 0.38873 0.49811 0.0
N603 N 0.99885 0.36166 0.50475 0.0
C604 C 0.98223 0.35762 0.49382 0.0
C605 C 0.9821 0.34104 0.48121 0.0
C606 C 0.99939 0.33456 0.48448 0.0
C607 C 0.00903 0.34753 0.49882 0.0
N608 N 0.02812 0.37085 0.54007 0.0
C609 C 0.03537 0.35579 0.53052 0.0
C610 C 0.05039 0.35063 0.54434 0.0
C611 C 0.05284 0.36332 0.56358 0.0
C612 C 0.03907 0.37558 0.56047 0.0
N613 N 0.99227 0.37653 0.55135 0.0
C614 C 0.97087 0.3664 0.58843 0.0
C615 C 0.98261 0.35438 0.57714 0.0
C616 C 0.99311 0.35967 0.55859 0.0
C617 C 0.97008 0.38364 0.58083 0.0
C618 C 0.98099 0.38847 0.56237 0.0
N619 N 0.02197 0.38988 0.49888 0.0
C620 C 0.02749 0.38898 0.45568 0.0
C621 C 0.04539 0.39471 0.46168 0.0
C622 C 0.05103 0.39888 0.48651 0.0
C623 C 0.03918 0.39628 0.50479 0.0
C624 C 0.01589 0.38691 0.47457 0.0
H625 H 0.04428 0.39875 0.52377 0.0
H626 H 0.00221 0.38225 0.46956 0.0
H627 H 0.00182 0.35005 0.54996 0.0
H628 H 0.98025 0.40184 0.55693 0.0
C629 C 0.99601 0.42472 0.52381 0.0
C630 C 0.03809 0.39244 0.57549 0.0
C631 C 0.96687 0.36976 0.49369 0.0
C632 C 0.02626 0.34569 0.51079 0.0
H633 H 0.03681 0.42984 0.59071 0.0
H634 H 0.0153 0.44792 0.56074 0.0
H635 H 0.96275 0.43088 0.4954 0.0
H636 H 0.94585 0.4005 0.4809 0.0
H637 H 0.97075 0.33438 0.47072 0.0
H638 H 0.0041 0.32165 0.47808 0.0
H639 H 0.05838 0.33886 0.54114 0.0
H640 H 0.06377 0.36367 0.57791 0.0
H641 H 0.98343 0.34086 0.58227 0.0
H642 H 0.96124 0.39335 0.58925 0.0
H643 H 0.02264 0.38577 0.4366 0.0
H644 H 0.06483 0.4032 0.49189 0.0
C645 C 0.70102 0.03379 0.65854 0.0
C646 C 0.68447 0.03804 0.66799 0.0
C647 C 0.67205 0.02621 0.65661 0.0
C648 C 0.68168 0.01548 0.64093 0.0
N649 N 0.69957 0.01959 0.64185 0.0
Co650 Co 0.71848 0.00782 0.62163 0.0
N651 N 0.69972 0.99253 0.60176 0.0
C652 C 0.68156 0.99273 0.6039 0.0
C653 C 0.67215 0.98075 0.58772 0.0
C654 C 0.68505 0.97234 0.57448 0.0
C655 C 0.70167 0.97971 0.58341 0.0
N656 N 0.73752 0.99567 0.60206 0.0
C657 C 0.73593 0.98219 0.58424 0.0
C658 C 0.7527 0.9773 0.57591 0.0
C659 C 0.76537 0.98785 0.58923 0.0
C660 C 0.75568 0.99856 0.60482 0.0
N661 N 0.73714 0.02362 0.64077 0.0
C662 C 0.75527 0.02378 0.63837 0.0
C663 C 0.76445 0.03675 0.65315 0.0
C664 C 0.75135 0.0457 0.66532 0.0
C665 C 0.7349 0.03762 0.65717 0.0
N666 N 0.72174 0.98971 0.64615 0.0
C667 C 0.72713 0.96185 0.67723 0.0
C668 C 0.74152 0.9728 0.67258 0.0
C669 C 0.73856 0.98649 0.65707 0.0
C670 C 0.70986 0.96544 0.6669 0.0
C671 C 0.70744 0.97946 0.65177 0.0
N672 N 0.71524 0.02584 0.5972 0.0
C673 C 0.72812 0.04616 0.57086 0.0
C674 C 0.71102 0.05319 0.56507 0.0
C675 C 0.69599 0.04591 0.57506 0.0
C676 C 0.69838 0.0323 0.5909 0.0
C677 C 0.7299 0.03262 0.58683 0.0
H678 H 0.68644 0.0274 0.59814 0.0
H679 H 0.74331 0.028 0.59074 0.0
H680 H 0.75023 0.99397 0.65384 0.0
H681 H 0.69394 0.98152 0.64455 0.0
C682 C 0.67397 0.00325 0.62268 0.0
C683 C 0.71747 0.04432 0.66456 0.0
C684 C 0.71897 0.97346 0.57481 0.0
C685 C 0.76319 0.0118 0.62167 0.0
H686 H 0.68157 0.04894 0.68108 0.0
H687 H 0.65755 0.02606 0.65857 0.0
H688 H 0.65768 0.97809 0.58622 0.0
H689 H 0.68254 0.96169 0.56027 0.0
H690 H 0.7555 0.9671 0.56172 0.0
H691 H 0.77992 0.98774 0.58772 0.0
H692 H 0.77887 0.0396 0.65448 0.0
H693 H 0.75358 0.05714 0.6783 0.0
H694 H 0.75519 0.97042 0.68011 0.0
H695 H 0.69827 0.95738 0.67034 0.0
H696 H 0.74014 0.05109 0.56314 0.0
H697 H 0.68247 0.05096 0.57123 0.0
C698 C 0.04949 0.80388 0.55129 0.0
C699 C 0.05525 0.82106 0.55865 0.0
C700 C 0.04689 0.83185 0.54227 0.0
C701 C 0.03654 0.82078 0.52584 0.0
N702 N 0.03771 0.80371 0.53109 0.0
Co703 Co 0.02568 0.78349 0.51135 0.0
N704 N 0.00803 0.79921 0.49515 0.0
C705 C 0.00991 0.81667 0.49335 0.0
C706 C 0.99501 0.82387 0.48138 0.0
C707 C 0.9831 0.80999 0.47536 0.0
C708 C 0.99149 0.79513 0.48406 0.0
N709 N 0.01366 0.76342 0.49133 0.0
C710 C 0.99668 0.76242 0.48043 0.0
C711 C 0.99318 0.74584 0.46852 0.0
C712 C 0.00869 0.73617 0.47228 0.0
C713 C 0.02071 0.74737 0.48622 0.0
N714 N 0.04327 0.76762 0.52747 0.0
C715 C 0.04703 0.75093 0.51924 0.0
C716 C 0.0597 0.74311 0.53446 0.0
C717 C 0.06437 0.75574 0.55319 0.0
C718 C 0.05435 0.77069 0.54824 0.0
N719 N 0.00913 0.78075 0.53742 0.0
C720 C 0.98436 0.77701 0.57359 0.0
C721 C 0.99296 0.76223 0.56278 0.0
C722 C 0.00531 0.76438 0.54479 0.0
C723 C 0.98856 0.79371 0.56595 0.0
C724 C 0.00096 0.79528 0.54794 0.0
N725 N 0.04224 0.7864 0.48524 0.0
C726 C 0.07225 0.79269 0.4733 0.0
C727 C 0.06563 0.79367 0.44869 0.0
C728 C 0.04711 0.7904 0.4426 0.0
C729 C 0.03568 0.78662 0.4611 0.0
C730 C 0.06038 0.7891 0.49124 0.0
H731 H 0.02146 0.78426 0.45595 0.0
H732 H 0.06587 0.78898 0.51009 0.0
H733 H 0.01168 0.75279 0.53672 0.0
H734 H 0.00376 0.80828 0.54231 0.0
C735 C 0.02382 0.82608 0.50751 0.0
C736 C 0.05728 0.78805 0.56189 0.0
C737 C 0.98401 0.77718 0.48071 0.0
C738 C 0.03659 0.74232 0.49936 0.0
H739 H 0.06485 0.82536 0.57385 0.0
H740 H 0.04799 0.8461 0.54262 0.0
H741 H 0.99264 0.83766 0.47855 0.0
H742 H 0.96979 0.81073 0.46586 0.0
H743 H 0.9807 0.74119 0.45851 0.0
H744 H 0.01055 0.72233 0.4668 0.0
H745 H 0.06462 0.7297 0.53255 0.0
H746 H 0.07429 0.75422 0.56846 0.0
H747 H 0.99031 0.74909 0.56829 0.0
H748 H 0.98209 0.80549 0.57349 0.0
H749 H 0.08644 0.79528 0.47888 0.0
H750 H 0.04148 0.79083 0.42373 0.0
C751 C 0.32224 0.11541 0.52548 0.0
C752 C 0.33832 0.10602 0.52718 0.0
C753 C 0.34974 0.11332 0.51193 0.0
C754 C 0.34 0.12662 0.50172 0.0
N755 N 0.32313 0.12848 0.50983 0.0
Co756 Co 0.3039 0.14525 0.49821 0.0
N757 N 0.32015 0.15504 0.47425 0.0
C758 C 0.33764 0.15066 0.47118 0.0
C759 C 0.3457 0.16027 0.45446 0.0
C760 C 0.33266 0.17162 0.44652 0.0
C761 C 0.31727 0.16819 0.45879 0.0
N762 N 0.2844 0.1615 0.48602 0.0
C763 C 0.28462 0.17346 0.46867 0.0
C764 C 0.26785 0.18149 0.46519 0.0
C765 C 0.25679 0.17471 0.48132 0.0
C766 C 0.2673 0.16284 0.49349 0.0
N767 N 0.2878 0.13587 0.52263 0.0
C768 C 0.27097 0.14149 0.52756 0.0
C769 C 0.26327 0.13254 0.54529 0.0
C770 C 0.27584 0.12032 0.55189 0.0
C771 C 0.29049 0.12248 0.53764 0.0
N772 N 0.31309 0.1638 0.52379 0.0
C773 C 0.32584 0.18955 0.56086 0.0
C774 C 0.30742 0.18814 0.55343 0.0
C775 C 0.30137 0.17519 0.53518 0.0
C776 C 0.33785 0.17803 0.54941 0.0
C777 C 0.33126 0.16549 0.53081 0.0
N778 N 0.29478 0.12662 0.47294 0.0
C779 C 0.27051 0.10716 0.45554 0.0
C780 C 0.28265 0.09689 0.4421 0.0
C781 C 0.30081 0.10242 0.44332 0.0
C782 C 0.30648 0.11733 0.4585 0.0
C783 C 0.27682 0.1218 0.47075 0.0
H784 H 0.3205 0.12078 0.45881 0.0
H785 H 0.26697 0.12876 0.48102 0.0
H786 H 0.28712 0.17465 0.53078 0.0
H787 H 0.34118 0.15736 0.52248 0.0
C788 C 0.3461 0.13737 0.48413 0.0
C789 C 0.30627 0.11099 0.53828 0.0
C790 C 0.30046 0.17816 0.45574 0.0
C791 C 0.26195 0.15369 0.51323 0.0
H792 H 0.34137 0.09485 0.53799 0.0
H793 H 0.36338 0.10918 0.50831 0.0
H794 H 0.35949 0.15926 0.44889 0.0
H795 H 0.33438 0.18146 0.43341 0.0
H796 H 0.26408 0.19148 0.4526 0.0
H797 H 0.24288 0.17829 0.4842 0.0
H798 H 0.24984 0.13422 0.5519 0.0
H799 H 0.27422 0.11059 0.56521 0.0
H800 H 0.29763 0.19676 0.56206 0.0
H801 H 0.35228 0.17882 0.55459 0.0
H802 H 0.25619 0.10382 0.45465 0.0
H803 H 0.31082 0.09499 0.43333 0.0
C804 C 0.55659 0.88019 0.05072 0.0
C805 C 0.56451 0.89527 0.06299 0.0
C806 C 0.55941 0.90906 0.04938 0.0
C807 C 0.54871 0.90164 0.02969 0.0
N808 N 0.54656 0.88395 0.02997 0.0
Co809 Co 0.53217 0.86788 0.00486 0.0
N810 N 0.52598 0.88792 0.98384 0.0
C811 C 0.53214 0.90477 0.98753 0.0
C812 C 0.52539 0.91555 0.96999 0.0
C813 C 0.51406 0.905 0.95432 0.0
C814 C 0.51449 0.88838 0.96338 0.0
N815 N 0.51713 0.85192 0.98028 0.0
C816 C 0.50598 0.85596 0.96068 0.0
C817 C 0.49668 0.84111 0.94976 0.0
C818 C 0.50208 0.82725 0.96298 0.0
C819 C 0.51416 0.83438 0.98126 0.0
N820 N 0.5389 0.84768 0.02538 0.0
C821 C 0.53412 0.83048 0.02047 0.0
C822 C 0.54125 0.81958 0.03759 0.0
C823 C 0.55148 0.8304 0.05424 0.0
C824 C 0.55 0.84733 0.04621 0.0
N825 N 0.51015 0.87257 0.02329 0.0
C826 C 0.47723 0.87876 0.04593 0.0
C827 C 0.48381 0.86165 0.0417 0.0
C828 C 0.50007 0.85888 0.03044 0.0
C829 C 0.4878 0.89281 0.03943 0.0
C830 C 0.50414 0.88945 0.02831 0.0
N831 N 0.55421 0.86315 0.98633 0.0
C832 C 0.57282 0.84273 0.96305 0.0
C833 C 0.58617 0.85567 0.96194 0.0
C834 C 0.58317 0.87252 0.97298 0.0
C835 C 0.56715 0.87598 0.9848 0.0
C836 C 0.55716 0.84669 0.97527 0.0
H837 H 0.56564 0.88911 0.99272 0.0
H838 H 0.54778 0.83609 0.97576 0.0
H839 H 0.50407 0.8455 0.02746 0.0
H840 H 0.51153 0.90069 0.02358 0.0
C841 C 0.54219 0.91055 0.00934 0.0
C842 C 0.55992 0.86249 0.05856 0.0
C843 C 0.50295 0.87375 0.95281 0.0
C844 C 0.52251 0.82504 1e-05 0.0
H845 H 0.57347 0.89614 0.07965 0.0
H846 H 0.56359 0.92275 0.0529 0.0
H847 H 0.52775 0.92959 0.96932 0.0
H848 H 0.50592 0.90918 0.9385 0.0
H849 H 0.48665 0.84032 0.93429 0.0
H850 H 0.49735 0.81369 0.96004 0.0
H851 H 0.53929 0.80546 0.03787 0.0
H852 H 0.5593 0.82627 0.07036 0.0
H853 H 0.47644 0.85031 0.04702 0.0
H854 H 0.48333 0.90633 0.04232 0.0
H855 H 0.57464 0.82941 0.95505 0.0
H856 H 0.59308 0.88302 0.97238 0.0
C857 C 0.19608 0.66216 0.01542 0.0
C858 C 0.17732 0.66343 0.01234 0.0
C859 C 0.17199 0.65298 0.99161 0.0
C860 C 0.18771 0.64595 0.9833 0.0
N861 N 0.20281 0.65125 0.99745 0.0
Co862 Co 0.2285 0.64418 0.99218 0.0
N863 N 0.2205 0.62807 0.96245 0.0
C864 C 0.20337 0.62548 0.95228 0.0
C865 C 0.20199 0.61293 0.9328 0.0
C866 C 0.21922 0.60691 0.93059 0.0
C867 C 0.23018 0.61627 0.94889 0.0
N868 N 0.25418 0.63712 0.98689 0.0
C869 C 0.26061 0.62451 0.97089 0.0
C870 C 0.2794 0.62348 0.97349 0.0
C871 C 0.28504 0.63564 0.99221 0.0
C872 C 0.26944 0.6434 -0.00015 0.0
N873 N 0.23652 0.66009 0.0221 0.0
C874 C 0.25376 0.66327 0.0316 0.0
C875 C 0.25498 0.67467 0.0524 0.0
C876 C 0.23749 0.67903 0.05651 0.0
C877 C 0.22656 0.66998 0.0379 0.0
N878 N 0.22613 0.62428 0.01356 0.0
C879 C 0.22372 0.5954 0.04313 0.0
C880 C 0.23873 0.60681 0.04592 0.0
C881 C 0.23965 0.62099 0.03109 0.0
C882 C 0.20984 0.59877 0.0253 0.0
C883 C 0.21126 0.61324 0.0109 0.0
N884 N 0.231 0.66417 0.97061 0.0
C885 C 0.24814 0.68914 0.95876 0.0
C886 C 0.23535 0.69198 0.93935 0.0
C887 C 0.22011 0.68082 0.93617 0.0
C888 C 0.21821 0.66717 0.95187 0.0
C889 C 0.24573 0.67535 0.97393 0.0
H890 H 0.20632 0.65919 0.94837 0.0
H891 H 0.25606 0.67409 0.9882 0.0
H892 H 0.25157 0.62902 0.03398 0.0
H893 H 0.20025 0.61521 0.99766 0.0
C894 C 0.18869 0.63401 0.96266 0.0
C895 C 0.20684 0.67154 0.03574 0.0
C896 C 0.24944 0.61275 0.95369 0.0
C897 C 0.26854 0.65533 0.02056 0.0
H898 H 0.16842 0.67107 0.02395 0.0
H899 H 0.15827 0.65067 0.98365 0.0
H900 H 0.1898 0.60823 0.92208 0.0
H901 H 0.22312 0.59645 0.91746 0.0
H902 H 0.28806 0.61454 0.96331 0.0
H903 H 0.2988 0.63807 -7e-05 0.0
H904 H 0.26714 0.67926 0.06326 0.0
H905 H 0.23328 0.68795 0.07148 0.0
H906 H 0.24997 0.60463 0.05918 0.0
H907 H 0.19785 0.59038 0.02259 0.0
H908 H 0.25998 0.69763 0.96249 0.0
H909 H 0.2098 0.68237 0.92135 0.0
C910 C 0.49213 0.30793 0.99721 0.0
C911 C 0.49049 0.3258 0.99364 0.0
C912 C 0.50204 0.33455 0.01105 0.0
C913 C 0.51 0.32159 0.02424 0.0
N914 N 0.5044 0.30504 0.01615 0.0
Co915 Co 0.51176 0.28242 0.03086 0.0
N916 N 0.52871 0.29538 0.05654 0.0
C917 C 0.5323 0.31295 0.05899 0.0
C918 C 0.54506 0.31791 0.0777 0.0
C919 C 0.55009 0.30258 0.08772 0.0
C920 C 0.53999 0.28911 0.07451 0.0
N921 N 0.51865 0.25988 0.04612 0.0
C922 C 0.53054 0.25705 0.06553 0.0
C923 C 0.5311 0.23935 0.07037 0.0
C924 C 0.51922 0.23065 0.05328 0.0
C925 C 0.51207 0.24349 0.0391 0.0
N926 N 0.49531 0.26943 0.00458 0.0
C927 C 0.49264 0.25175 0.0011 0.0
C928 C 0.48063 0.24674 0.98147 0.0
C929 C 0.47523 0.26214 0.97185 0.0
C930 C 0.48427 0.27569 0.98631 0.0
N931 N 0.53212 0.2796 0.00892 0.0
C932 C 0.56316 0.27507 0.98181 0.0
C933 C 0.55207 0.2607 0.98555 0.0
C934 C 0.5367 0.26325 0.99895 0.0
C935 C 0.55805 0.29185 0.99104 0.0
C936 C 0.54257 0.29381 0.00433 0.0
N937 N 0.49148 0.28515 0.053 0.0
C938 C 0.46438 0.27369 0.06903 0.0
C939 C 0.46327 0.2887 0.0852 0.0
C940 C 0.47632 0.30199 0.08493 0.0
C941 C 0.49008 0.30006 0.06858 0.0
C942 C 0.47861 0.27211 0.05338 0.0
H943 H 0.49938 0.31083 0.0689 0.0
H944 H 0.4789 0.26018 0.04185 0.0
H945 H 0.52892 0.25174 0.0013 0.0
H946 H 0.53955 0.3069 0.01113 0.0
C947 C 0.52306 0.32452 0.04389 0.0
C948 C 0.48143 0.2943 0.98248 0.0
C949 C 0.54182 0.27058 0.07956 0.0
C950 C 0.50035 0.24038 0.01792 0.0
H951 H 0.48174 0.3319 0.97996 0.0
H952 H 0.50434 0.34867 0.01382 0.0
H953 H 0.5501 0.3311 0.08338 0.0
H954 H 0.56014 0.30146 0.10297 0.0
H955 H 0.53943 0.23335 0.08459 0.0
H956 H 0.51644 0.21659 0.05109 0.0
H957 H 0.47596 0.2335 0.97531 0.0
H958 H 0.4655 0.26331 0.95626 0.0
H959 H 0.55524 0.24748 0.97826 0.0
H960 H 0.56623 0.30341 0.98869 0.0
H961 H 0.45447 0.26309 0.06876 0.0
H962 H 0.47573 0.31396 0.097 0.0
C963 C 0.79995 0.5425 0.15379 0.0
C964 C 0.78374 0.55156 0.1557 0.0
C965 C 0.77142 0.54327 0.13888 0.0
C966 C 0.78076 0.5297 0.12769 0.0
N967 N 0.79828 0.52865 0.13653 0.0
Co968 Co 0.81695 0.51152 0.12457 0.0
N969 N 0.79875 0.49932 0.09979 0.0
C970 C 0.78087 0.50304 0.09641 0.0
C971 C 0.77155 0.4918 0.07912 0.0
C972 C 0.78415 0.48006 0.07108 0.0
C973 C 0.80057 0.48494 0.08385 0.0
N974 N 0.83577 0.49479 0.11196 0.0
C975 C 0.83423 0.48121 0.09424 0.0
C976 C 0.85082 0.47319 0.09079 0.0
C977 C 0.86325 0.48187 0.1071 0.0
C978 C 0.85362 0.4947 0.11944 0.0
N979 N 0.83494 0.52326 0.15005 0.0
C980 C 0.85252 0.5188 0.15458 0.0
C981 C 0.86146 0.5292 0.17328 0.0
C982 C 0.84888 0.54108 0.18114 0.0
C983 C 0.83295 0.53723 0.16666 0.0
N984 N 0.8105 0.49467 0.14885 0.0
C985 C 0.80098 0.46765 0.17843 0.0
C986 C 0.81917 0.47154 0.17551 0.0
C987 C 0.82359 0.48502 0.16073 0.0
C988 C 0.78768 0.47811 0.16744 0.0
C989 C 0.79271 0.49156 0.15305 0.0
N990 N 0.82342 0.52829 0.10009 0.0
C991 C 0.84546 0.54668 0.08279 0.0
C992 C 0.83231 0.55203 0.06537 0.0
C993 C 0.81471 0.54543 0.06549 0.0
C994 C 0.81052 0.53384 0.08306 0.0
C995 C 0.84081 0.53468 0.09969 0.0
H996 H 0.79673 0.52965 0.08252 0.0
H997 H 0.85152 0.53081 0.11221 0.0
H998 H 0.83768 0.48707 0.15869 0.0
H999 H 0.78194 0.49901 0.14512 0.0
C1000 C 0.77332 0.51743 0.10939 0.0
C1001 C 0.81656 0.54771 0.16861 0.0
C1002 C 0.81739 0.4753 0.08049 0.0
C1003 C 0.8606 0.50583 0.13949 0.0
H1004 H 0.78112 0.56303 0.16795 0.0
H1005 H 0.75733 0.54672 0.13523 0.0
H1006 H 0.75726 0.49207 0.07317 0.0
H1007 H 0.78148 0.46906 0.05748 0.0
H1008 H 0.85359 0.46207 0.078 0.0
H1009 H 0.87753 0.4789 0.11003 0.0
H1010 H 0.87559 0.52856 0.17991 0.0
H1011 H 0.85125 0.55164 0.19552 0.0
H1012 H 0.82993 0.46379 0.18379 0.0
H1013 H 0.77342 0.4758 0.16971 0.0
H1014 H 0.8593 0.55157 0.08317 0.0
H1015 H 0.80411 0.54948 0.05234 0.0
C1016 C 0.17491 0.36494 0.33801 0.0
C1017 C 0.18563 0.37974 0.3342 0.0
C1018 C 0.15922 0.36692 0.35093 0.0
C1019 C 0.13745 0.39593 0.39647 0.0
H1020 H 0.09238 0.37491 0.36698 0.0
C1021 C 0.07055 0.40925 0.44193 0.0
C1022 C 0.05881 0.39475 0.44272 0.0
C1023 C 0.08507 0.4082 0.42673 0.0
C1024 C 0.10487 0.38071 0.37562 0.0
H1025 H 0.18815 0.40825 0.34107 0.0
H1026 H 0.16116 0.41152 0.3643 0.0
H1027 H 0.12028 0.37073 0.34565 0.0
H1028 H 0.05261 0.368 0.42783 0.0
H1029 H 0.07821 0.36592 0.40174 0.0
H1030 H 0.12237 0.40547 0.42677 0.0
C1031 C 0.16496 0.39842 0.35728 0.0
C1032 C 0.12082 0.37832 0.36338 0.0
C1033 C 0.1805 0.39649 0.34411 0.0
C1034 C 0.06136 0.37944 0.42729 0.0
C1035 C 0.07604 0.37828 0.41234 0.0
C1036 C 0.12157 0.39814 0.40887 0.0
C1037 C 0.15407 0.38369 0.36055 0.0
C1038 C 0.13724 0.38593 0.37369 0.0
C1039 C 0.08833 0.3925 0.41233 0.0
C1040 C 0.10506 0.39059 0.39859 0.0
H1041 H 0.17859 0.35183 0.33094 0.0
H1042 H 0.15114 0.35533 0.3535 0.0
H1043 H 0.14998 0.40179 0.40492 0.0
H1044 H 0.06874 0.42125 0.45357 0.0
H1045 H 0.09397 0.41957 0.42671 0.0
C1046 C 0.71623 0.16443 0.41595 0.0
C1047 C 0.71197 0.18191 0.42371 0.0
C1048 C 0.71338 0.15068 0.431 0.0
C1049 C 0.70909 0.14281 0.49641 0.0
H1050 H 0.69559 0.09553 0.46931 0.0
C1051 C 0.72192 0.08205 0.55172 0.0
C1052 C 0.70903 0.06825 0.54919 0.0
C1053 C 0.72028 0.09616 0.5367 0.0
C1054 C 0.69913 0.1087 0.47723 0.0
H1055 H 0.70091 0.19856 0.45315 0.0
H1056 H 0.69538 0.1745 0.47903 0.0
H1057 H 0.6953 0.1197 0.44211 0.0
H1058 H 0.68422 0.05851 0.52894 0.0
H1059 H 0.68111 0.08344 0.50307 0.0
H1060 H 0.7127 0.13191 0.53155 0.0
C1061 C 0.70126 0.17147 0.4615 0.0
C1062 C 0.69919 0.12251 0.46159 0.0
C1063 C 0.70422 0.18524 0.44651 0.0
C1064 C 0.69431 0.069 0.53147 0.0
C1065 C 0.69263 0.08318 0.51647 0.0
C1066 C 0.70894 0.12904 0.51204 0.0
C1067 C 0.70608 0.15407 0.4541 0.0
C1068 C 0.70446 0.13967 0.47093 0.0
C1069 C 0.70564 0.0969 0.51889 0.0
C1070 C 0.70429 0.11177 0.50257 0.0
H1071 H 0.72196 0.16138 0.39832 0.0
H1072 H 0.71742 0.13748 0.42482 0.0
H1073 H 0.7134 0.15582 0.50421 0.0
H1074 H 0.73327 0.08202 0.56543 0.0
H1075 H 0.73067 0.10637 0.53882 0.0
C1076 C 0.82631 0.78252 0.40722 0.0
C1077 C 0.81785 0.76721 0.39556 0.0
C1078 C 0.84337 0.78163 0.41975 0.0
C1079 C 0.88441 0.75469 0.41993 0.0
H1080 H 0.89881 0.7852 0.47845 0.0
C1081 C 0.95901 0.77294 0.44762 0.0
C1082 C 0.96468 0.77419 0.47281 0.0
C1083 C 0.94067 0.77032 0.44016 0.0
C1084 C 0.89498 0.77642 0.4623 0.0
H1085 H 0.82032 0.73885 0.38868 0.0
H1086 H 0.8501 0.73724 0.41094 0.0
H1087 H 0.86695 0.78336 0.46331 0.0
H1088 H 0.95621 0.77363 0.51005 0.0
H1089 H 0.92396 0.76889 0.49708 0.0
H1090 H 0.91243 0.74778 0.41887 0.0
C1091 C 0.8436 0.74997 0.4101 0.0
C1092 C 0.87675 0.7755 0.45348 0.0
C1093 C 0.82648 0.75086 0.39757 0.0
C1094 C 0.95194 0.77272 0.49051 0.0
C1095 C 0.93356 0.77009 0.48308 0.0
C1096 C 0.90263 0.7556 0.42874 0.0
C1097 C 0.85237 0.7654 0.42093 0.0
C1098 C 0.87132 0.76488 0.43194 0.0
C1099 C 0.92773 0.7689 0.4578 0.0
C1100 C 0.90817 0.76674 0.44975 0.0
H1101 H 0.81988 0.79528 0.40625 0.0
H1102 H 0.8498 0.79379 0.42767 0.0
H1103 H 0.88072 0.74649 0.40317 0.0
H1104 H 0.96876 0.77414 0.43379 0.0
H1105 H 0.9366 0.76976 0.42059 0.0
C1106 C 0.25141 0.94813 0.3447 0.0
C1107 C 0.24259 0.94728 0.32086 0.0
C1108 C 0.25395 0.96433 0.35852 0.0
C1109 C 0.25542 0.01231 0.34965 0.0
H1110 H 0.25761 0.01658 0.42129 0.0
C1111 C 0.28426 0.07473 0.40552 0.0
C1112 C 0.27657 0.08021 0.42776 0.0
C1113 C 0.27913 0.05865 0.39275 0.0
C1114 C 0.25681 0.01571 0.40127 0.0
H1115 H 0.22892 0.96295 0.29338 0.0
H1116 H 0.23229 0.99079 0.31799 0.0
H1117 H 0.24911 0.98843 0.39922 0.0
H1118 H 0.25737 0.07291 0.45395 0.0
H1119 H 0.24774 0.04546 0.43104 0.0
H1120 H 0.2624 0.03972 0.35159 0.0
C1121 C 0.23783 0.97905 0.32572 0.0
C1122 C 0.25219 0.99946 0.3886 0.0
C1123 C 0.23557 0.96293 0.31175 0.0
C1124 C 0.2634 0.06931 0.43668 0.0
C1125 C 0.25808 0.05336 0.42374 0.0
C1126 C 0.25977 0.0286 0.36228 0.0
C1127 C 0.24749 0.98005 0.34899 0.0
C1128 C 0.25157 0.99751 0.36261 0.0
C1129 C 0.26598 0.04774 0.40171 0.0
C1130 C 0.26071 0.0305 0.38826 0.0
H1131 H 0.25672 0.93634 0.35253 0.0
H1132 H 0.26154 0.96455 0.37629 0.0
H1133 H 0.25541 0.01131 0.32966 0.0
H1134 H 0.29427 0.08285 0.39789 0.0
H1135 H 0.28572 0.05468 0.37605 0.0
C1136 C 0.18317 0.84294 0.70553 0.0
C1137 C 0.19979 0.84289 0.69429 0.0
C1138 C 0.16773 0.83489 0.69309 0.0
C1139 C 0.14916 0.82331 0.62967 0.0
H1140 H 0.11346 0.79591 0.66009 0.0
C1141 C 0.09077 0.7889 0.57085 0.0
C1142 C 0.07339 0.79063 0.57962 0.0
C1143 C 0.1061 0.79346 0.58639 0.0
C1144 C 0.12327 0.80365 0.65143 0.0
H1145 H 0.21328 0.83392 0.66141 0.0
H1146 H 0.18659 0.81958 0.64013 0.0
H1147 H 0.14068 0.80715 0.68473 0.0
H1148 H 0.05818 0.79827 0.61127 0.0
H1149 H 0.08518 0.80657 0.63871 0.0
H1150 H 0.13186 0.82011 0.59656 0.0
C1151 C 0.18541 0.82602 0.6584 0.0
C1152 C 0.13882 0.81007 0.66551 0.0
C1153 C 0.20078 0.83406 0.67077 0.0
C1154 C 0.07154 0.79663 0.60435 0.0
C1155 C 0.08695 0.80132 0.61996 0.0
C1156 C 0.1337 0.81695 0.61568 0.0
C1157 C 0.16862 0.8267 0.66915 0.0
C1158 C 0.15199 0.81984 0.65467 0.0
C1159 C 0.10437 0.80014 0.61093 0.0
C1160 C 0.12064 0.80692 0.6263 0.0
H1161 H 0.18201 0.84946 0.72376 0.0
H1162 H 0.15496 0.83567 0.70182 0.0
H1163 H 0.15881 0.83119 0.62093 0.0
H1164 H 0.09243 0.78451 0.5517 0.0
H1165 H 0.11933 0.79213 0.57899 0.0
C1166 C 0.30816 0.29436 0.72157 0.0
C1167 C 0.31968 0.30879 0.72942 0.0
C1168 C 0.31465 0.27978 0.70782 0.0
C1169 C 0.34629 0.26997 0.66165 0.0
H1170 H 0.33116 0.22154 0.66757 0.0
C1171 C 0.34223 0.1976 0.60197 0.0
C1172 C 0.33223 0.20279 0.58084 0.0
C1173 C 0.34624 0.2098 0.62219 0.0
C1174 C 0.33583 0.23492 0.66589 0.0
H1175 H 0.34744 0.31854 0.7303 0.0
H1176 H 0.35854 0.29326 0.70532 0.0
H1177 H 0.32778 0.24371 0.70189 0.0
H1178 H 0.31949 0.22479 0.56348 0.0
H1179 H 0.3267 0.24619 0.5986 0.0
H1180 H 0.35324 0.26141 0.62504 0.0
C1181 C 0.3445 0.29335 0.70999 0.0
C1182 C 0.33379 0.2476 0.68544 0.0
C1183 C 0.33808 0.30786 0.72412 0.0
C1184 C 0.32715 0.22051 0.57965 0.0
C1185 C 0.33141 0.23274 0.59964 0.0
C1186 C 0.34811 0.25734 0.64199 0.0
C1187 C 0.33273 0.27936 0.70131 0.0
C1188 C 0.33843 0.26535 0.68315 0.0
C1189 C 0.34059 0.22741 0.62132 0.0
C1190 C 0.34233 0.23984 0.64363 0.0
H1191 H 0.29386 0.29466 0.72485 0.0
H1192 H 0.3052 0.26928 0.70102 0.0
H1193 H 0.34986 0.28359 0.65935 0.0
H1194 H 0.34621 0.18395 0.60327 0.0
H1195 H 0.35332 0.20539 0.63872 0.0
C1196 C 0.88392 0.30428 0.74718 0.0
C1197 C 0.86505 0.30607 0.74274 0.0
C1198 C 0.89586 0.31107 0.73127 0.0
C1199 C 0.89908 0.34451 0.68634 0.0
H1200 H 0.93855 0.31605 0.66217 0.0
C1201 C 0.94075 0.36477 0.60676 0.0
C1202 C 0.95932 0.3608 0.60774 0.0
C1203 C 0.92966 0.35862 0.6242 0.0
C1204 C 0.92779 0.3243 0.66905 0.0
H1205 H 0.84396 0.31589 0.71761 0.0
H1206 H 0.86482 0.32798 0.6902 0.0
H1207 H 0.91855 0.30411 0.69091 0.0
H1208 H 0.98105 0.34788 0.62815 0.0
H1209 H 0.96182 0.33747 0.65896 0.0
H1210 H 0.90834 0.36478 0.66476 0.0
C1211 C 0.87035 0.32152 0.70615 0.0
C1212 C 0.91631 0.31741 0.68545 0.0
C1213 C 0.85841 0.31461 0.72189 0.0
C1214 C 0.9667 0.35092 0.6268 0.0
C1215 C 0.95567 0.34491 0.64437 0.0
C1216 C 0.91065 0.35146 0.67012 0.0
C1217 C 0.88918 0.31989 0.71074 0.0
C1218 C 0.90176 0.3274 0.69407 0.0
C1219 C 0.93697 0.34851 0.64313 0.0
C1220 C 0.92506 0.34139 0.66111 0.0
H1221 H 0.88948 0.29797 0.76323 0.0
H1222 H 0.91034 0.30974 0.73532 0.0
H1223 H 0.88811 0.35258 0.693 0.0
H1224 H 0.93468 0.3722 0.59208 0.0
H1225 H 0.91528 0.36142 0.62244 0.0
C1226 C 0.79213 0.83105 0.76265 0.0
C1227 C 0.78145 0.82105 0.777 0.0
C1228 C 0.78516 0.84623 0.75263 0.0
C1229 C 0.74209 0.86932 0.73765 0.0
H1230 H 0.77435 0.90961 0.73622 0.0
C1231 C 0.7238 0.92955 0.68216 0.0
C1232 C 0.73048 0.94623 0.69156 0.0
C1233 C 0.72872 0.91445 0.69413 0.0
C1234 C 0.76506 0.89859 0.73678 0.0
H1235 H 0.75523 0.81907 0.79232 0.0
H1236 H 0.74314 0.84578 0.77522 0.0
H1237 H 0.78561 0.883 0.75397 0.0
H1238 H 0.74662 0.96039 0.72148 0.0
H1239 H 0.75484 0.93409 0.74283 0.0
H1240 H 0.72139 0.88515 0.72105 0.0
C1241 C 0.75673 0.84171 0.7712 0.0
C1242 C 0.77162 0.8832 0.7466 0.0
C1243 C 0.76365 0.82644 0.78103 0.0
C1244 C 0.74149 0.94764 0.71371 0.0
C1245 C 0.74626 0.93257 0.72583 0.0
C1246 C 0.73548 0.88479 0.72798 0.0
C1247 C 0.76744 0.85184 0.75697 0.0
C1248 C 0.76027 0.86832 0.74696 0.0
C1249 C 0.74029 0.91574 0.71586 0.0
C1250 C 0.74693 0.89957 0.72729 0.0
H1251 H 0.80583 0.82705 0.75906 0.0
H1252 H 0.79365 0.85352 0.74134 0.0
H1253 H 0.73301 0.85806 0.73744 0.0
H1254 H 0.71545 0.9281 0.66494 0.0
H1255 H 0.72406 0.9017 0.68576 0.0
C1256 C 0.86817 0.75154 0.72011 0.0
C1257 C 0.86845 0.76426 0.74031 0.0
C1258 C 0.88003 0.75297 0.70131 0.0
C1259 C 0.90976 0.78477 0.67397 0.0
H1260 H 0.93352 0.74244 0.64844 0.0
C1261 C 0.97062 0.78752 0.6131 0.0
C1262 C 0.97099 0.77513 0.59258 0.0
C1263 C 0.95778 0.78607 0.63061 0.0
C1264 C 0.92684 0.75435 0.65516 0.0
H1265 H 0.88111 0.78871 0.75619 0.0
H1266 H 0.90201 0.79101 0.72371 0.0
H1267 H 0.91147 0.74033 0.67959 0.0
H1268 H 0.95802 0.7515 0.5744 0.0
H1269 H 0.93565 0.74892 0.60509 0.0
H1270 H 0.92527 0.7988 0.6497 0.0
C1271 C 0.89251 0.78001 0.72225 0.0
C1272 C 0.91418 0.75315 0.67301 0.0
C1273 C 0.88066 0.77859 0.74104 0.0
C1274 C 0.95829 0.76113 0.59016 0.0
C1275 C 0.94545 0.75966 0.60772 0.0
C1276 C 0.92245 0.78597 0.65618 0.0
C1277 C 0.89245 0.76715 0.70224 0.0
C1278 C 0.90553 0.76836 0.68272 0.0
C1279 C 0.94498 0.77217 0.62809 0.0
C1280 C 0.93121 0.7708 0.64665 0.0
H1281 H 0.85908 0.74024 0.71908 0.0
H1282 H 0.87945 0.74294 0.68603 0.0
H1283 H 0.90314 0.7967 0.68072 0.0
H1284 H 0.9804 0.79828 0.61578 0.0
H1285 H 0.95801 0.79575 0.6463 0.0
C1286 C 0.28172 0.97264 0.63644 0.0
C1287 C 0.29002 0.97213 0.66045 0.0
C1288 C 0.28402 0.98731 0.62277 0.0
C1289 C 0.31388 0.02614 0.61838 0.0
H1290 H 0.27214 0.04415 0.58125 0.0
C1291 C 0.31508 0.09345 0.57453 0.0
C1292 C 0.3057 0.09451 0.55138 0.0
C1293 C 0.31373 0.07821 0.58736 0.0
C1294 C 0.284 0.03917 0.59122 0.0
H1295 H 0.30753 0.98656 0.68871 0.0
H1296 H 0.31135 0.01227 0.665 0.0
H1297 H 0.26873 0.01819 0.60442 0.0
H1298 H 0.28771 0.08076 0.52324 0.0
H1299 H 0.28549 0.05395 0.54537 0.0
H1300 H 0.32915 0.04714 0.60518 0.0
C1301 C 0.30315 0.00126 0.65667 0.0
C1302 C 0.28204 0.02427 0.60454 0.0
C1303 C 0.30079 0.98661 0.67038 0.0
C1304 C 0.29506 0.08013 0.5411 0.0
C1305 C 0.29371 0.06488 0.55388 0.0
C1306 C 0.31586 0.04103 0.605 0.0
C1307 C 0.29474 0.00183 0.63273 0.0
C1308 C 0.29694 0.01758 0.61833 0.0
C1309 C 0.30291 0.06377 0.57727 0.0
C1310 C 0.30093 0.04776 0.59127 0.0
H1311 H 0.27321 0.96179 0.62832 0.0
H1312 H 0.2775 0.98723 0.6043 0.0
H1313 H 0.32569 0.02119 0.62851 0.0
H1314 H 0.32322 0.10452 0.58281 0.0
H1315 H 0.3208 0.07792 0.60544 0.0
C1316 C 0.17385 0.39069 0.71718 0.0
C1317 C 0.18806 0.40124 0.71018 0.0
C1318 C 0.15656 0.39118 0.70512 0.0
C1319 C 0.12726 0.41765 0.66366 0.0
H1320 H 0.10134 0.37318 0.64881 0.0
C1321 C 0.06755 0.40737 0.58969 0.0
C1322 C 0.05293 0.39668 0.59486 0.0
C1323 C 0.08281 0.40946 0.60631 0.0
C1324 C 0.10827 0.38575 0.65316 0.0
H1325 H 0.19506 0.42084 0.68518 0.0
H1326 H 0.16507 0.42124 0.66356 0.0
H1327 H 0.13057 0.37369 0.67244 0.0
H1328 H 0.04258 0.3798 0.62114 0.0
H1329 H 0.06938 0.3834 0.65045 0.0
H1330 H 0.1051 0.42956 0.64362 0.0
C1331 C 0.16721 0.4128 0.67871 0.0
C1332 C 0.12504 0.38606 0.66672 0.0
C1333 C 0.1845 0.41239 0.69089 0.0
C1334 C 0.05364 0.38831 0.61706 0.0
C1335 C 0.06899 0.39027 0.63363 0.0
C1336 C 0.11052 0.41732 0.64995 0.0
C1337 C 0.15304 0.40212 0.68559 0.0
C1338 C 0.13483 0.40199 0.67199 0.0
C1339 C 0.08385 0.40065 0.62823 0.0
C1340 C 0.10091 0.40134 0.64439 0.0
H1341 H 0.17612 0.38176 0.73172 0.0
H1342 H 0.14594 0.38294 0.71114 0.0
H1343 H 0.13427 0.4302 0.66774 0.0
H1344 H 0.06744 0.41358 0.57235 0.0
H1345 H 0.09414 0.4173 0.60143 0.0
C1346 C 0.74988 0.1958 0.74657 0.0
C1347 C 0.75014 0.19861 0.77247 0.0
C1348 C 0.74381 0.17975 0.73463 0.0
C1349 C 0.7185 0.13838 0.74288 0.0
H1350 H 0.74711 0.11967 0.6898 0.0
C1351 C 0.71524 0.06539 0.70192 0.0
C1352 C 0.7166 0.0625 0.67633 0.0
C1353 C 0.717 0.0825 0.71335 0.0
C1354 C 0.7388 0.1248 0.70433 0.0
H1355 H 0.74355 0.18684 0.806 0.0
H1356 H 0.73347 0.15857 0.78518 0.0
H1357 H 0.75465 0.1485 0.7104 0.0
H1358 H 0.72028 0.07484 0.64237 0.0
H1359 H 0.72319 0.10482 0.66219 0.0
H1360 H 0.70293 0.11432 0.73701 0.0
C1361 C 0.73775 0.16892 0.77409 0.0
C1362 C 0.74311 0.14137 0.71616 0.0
C1363 C 0.74375 0.18506 0.78606 0.0
C1364 C 0.71913 0.0769 0.66216 0.0
C1365 C 0.72092 0.09397 0.67353 0.0
C1366 C 0.71423 0.12171 0.73108 0.0
C1367 C 0.73799 0.16598 0.74824 0.0
C1368 C 0.73302 0.1484 0.73555 0.0
C1369 C 0.7203 0.09692 0.69933 0.0
C1370 C 0.72433 0.11477 0.71163 0.0
H1371 H 0.75492 0.20581 0.73549 0.0
H1372 H 0.7439 0.17806 0.71467 0.0
H1373 H 0.71034 0.14347 0.75759 0.0
H1374 H 0.7135 0.05435 0.71313 0.0
H1375 H 0.71662 0.08434 0.73326 0.0
C1376 C 0.81741 0.30483 0.4267 0.0
C1377 C 0.81244 0.30572 0.40138 0.0
C1378 C 0.83366 0.31247 0.43714 0.0
C1379 C 0.86904 0.34532 0.42719 0.0
H1380 H 0.89867 0.31864 0.47273 0.0
C1381 C 0.94305 0.36514 0.45887 0.0
C1382 C 0.94872 0.36332 0.48369 0.0
C1383 C 0.9261 0.35863 0.44926 0.0
C1384 C 0.89046 0.32638 0.46031 0.0
H1385 H 0.82046 0.31567 0.36729 0.0
H1386 H 0.84898 0.32884 0.38547 0.0
H1387 H 0.86962 0.30652 0.45518 0.0
H1388 H 0.94161 0.35326 0.51799 0.0
H1389 H 0.91174 0.34199 0.50138 0.0
H1390 H 0.88993 0.36516 0.43229 0.0
C1391 C 0.84023 0.32233 0.39728 0.0
C1392 C 0.8738 0.31942 0.45023 0.0
C1393 C 0.82398 0.31464 0.38681 0.0
C1394 C 0.93734 0.35483 0.4988 0.0
C1395 C 0.92036 0.34831 0.48922 0.0
C1396 C 0.8857 0.3523 0.43731 0.0
C1397 C 0.84533 0.32121 0.42253 0.0
C1398 C 0.86291 0.32879 0.43351 0.0
C1399 C 0.91454 0.35011 0.46431 0.0
C1400 C 0.89664 0.34288 0.45393 0.0
H1401 H 0.80893 0.29787 0.43839 0.0
H1402 H 0.83709 0.31154 0.45671 0.0
H1403 H 0.86086 0.35298 0.41464 0.0
H1404 H 0.95183 0.37148 0.44689 0.0
H1405 H 0.92219 0.35997 0.42992 0.0
C1406 C 0.74593 0.84015 0.44024 0.0
C1407 C 0.74154 0.84226 0.41505 0.0
C1408 C 0.74297 0.85386 0.45814 0.0
C1409 C 0.71619 0.89456 0.46819 0.0
H1410 H 0.75228 0.90577 0.52232 0.0
C1411 C 0.71465 0.95879 0.53204 0.0
C1412 C 0.71955 0.95762 0.55723 0.0
C1413 C 0.71648 0.94416 0.51523 0.0
C1414 C 0.74195 0.90265 0.50751 0.0
H1415 H 0.73035 0.86034 0.38896 0.0
H1416 H 0.7256 0.88432 0.42004 0.0
H1417 H 0.75741 0.8813 0.49201 0.0
H1418 H 0.7299 0.94053 0.58496 0.0
H1419 H 0.73298 0.91478 0.55566 0.0
H1420 H 0.7008 0.916 0.48357 0.0
C1421 C 0.73118 0.87204 0.42603 0.0
C1422 C 0.7449 0.88863 0.49013 0.0
C1423 C 0.73416 0.85838 0.40817 0.0
C1424 C 0.72604 0.94161 0.56553 0.0
C1425 C 0.72791 0.92698 0.54876 0.0
C1426 C 0.71325 0.90858 0.48555 0.0
C1427 C 0.73547 0.86993 0.45123 0.0
C1428 C 0.73211 0.88449 0.47017 0.0
C1429 C 0.72332 0.92814 0.52337 0.0
C1430 C 0.72614 0.91286 0.50534 0.0
H1431 H 0.7517 0.82792 0.44611 0.0
H1432 H 0.74629 0.85176 0.47742 0.0
H1433 H 0.70591 0.89152 0.45328 0.0
H1434 H 0.70976 0.97113 0.52535 0.0
H1435 H 0.71303 0.94555 0.49578 0.0
C1436 C 0.16363 0.8609 0.30661 0.0
C1437 C 0.18066 0.85285 0.30452 0.0
C1438 C 0.15084 0.85405 0.32131 0.0
C1439 C 0.14689 0.82686 0.37401 0.0
H1440 H 0.09643 0.82142 0.34968 0.0
C1441 C 0.09538 0.79162 0.42894 0.0
C1442 C 0.07793 0.79886 0.42988 0.0
C1443 C 0.1075 0.79752 0.41258 0.0
C1444 C 0.11042 0.82304 0.3569 0.0
H1445 H 0.19732 0.83099 0.31594 0.0
H1446 H 0.17517 0.81933 0.3419 0.0
H1447 H 0.11838 0.83353 0.32362 0.0
H1448 H 0.05944 0.81781 0.41422 0.0
H1449 H 0.08067 0.82834 0.38595 0.0
H1450 H 0.13902 0.81674 0.40742 0.0
C1451 C 0.17181 0.83104 0.33234 0.0
C1452 C 0.12299 0.82996 0.34193 0.0
C1453 C 0.18453 0.83778 0.31751 0.0
C1454 C 0.07272 0.81183 0.4137 0.0
C1455 C 0.08491 0.81785 0.39747 0.0
C1456 C 0.13432 0.82008 0.38904 0.0
C1457 C 0.15482 0.83908 0.3344 0.0
C1458 C 0.14138 0.83189 0.35031 0.0
C1459 C 0.10255 0.81093 0.39692 0.0
C1460 C 0.11592 0.81802 0.38068 0.0
H1461 H 0.16026 0.87265 0.29716 0.0
H1462 H 0.13793 0.86065 0.32277 0.0
H1463 H 0.16092 0.82843 0.38113 0.0
H1464 H 0.09969 0.78143 0.44096 0.0
H1465 H 0.12081 0.79158 0.41229 0.0
C1466 C 0.27008 0.31278 0.3475 0.0
C1467 C 0.27128 0.31096 0.32169 0.0
C1468 C 0.27414 0.29863 0.36201 0.0
C1469 C 0.29736 0.25503 0.36108 0.0
H1470 H 0.26871 0.24827 0.41694 0.0
C1471 C 0.2996 0.19135 0.41454 0.0
C1472 C 0.29951 0.19366 0.44039 0.0
C1473 C 0.29723 0.20584 0.40011 0.0
C1474 C 0.27697 0.25008 0.40156 0.0
H1475 H 0.27799 0.2927 0.29109 0.0
H1476 H 0.28438 0.2679 0.3162 0.0
H1477 H 0.26218 0.27296 0.39164 0.0
H1478 H 0.29719 0.21273 0.47158 0.0
H1479 H 0.29295 0.2381 0.44643 0.0
H1480 H 0.31187 0.23184 0.37085 0.0
C1481 C 0.2806 0.28038 0.32533 0.0
C1482 C 0.27326 0.26428 0.38705 0.0
C1483 C 0.27666 0.29457 0.31083 0.0
C1484 C 0.29731 0.21069 0.45164 0.0
C1485 C 0.29478 0.22514 0.43724 0.0
C1486 C 0.30097 0.24073 0.3755 0.0
C1487 C 0.27939 0.2822 0.35114 0.0
C1488 C 0.28341 0.267 0.36661 0.0
C1489 C 0.29452 0.22286 0.41128 0.0
C1490 C 0.29084 0.23811 0.39595 0.0
H1491 H 0.26579 0.3251 0.35655 0.0
H1492 H 0.27328 0.30066 0.38183 0.0
H1493 H 0.30568 0.25682 0.34578 0.0
H1494 H 0.30112 0.17828 0.40552 0.0
H1495 H 0.29695 0.20362 0.38016 0.0
C1496 C 0.73031 0.81094 0.87318 0.0
C1497 C 0.73424 0.79335 0.87793 0.0
C1498 C 0.71449 0.81894 0.8813 0.0
C1499 C 0.66907 0.80766 0.90105 0.0
H1500 H 0.66897 0.8564 0.92799 0.0
C1501 C 0.6027 0.84099 0.92731 0.0
C1502 C 0.60323 0.8513 0.94991 0.0
C1503 C 0.61875 0.83546 0.91702 0.0
C1504 C 0.66879 0.84274 0.92061 0.0
H1505 H 0.72506 0.77062 0.8958 0.0
H1506 H 0.69767 0.78454 0.91009 0.0
H1507 H 0.69705 0.84348 0.91382 0.0
H1508 H 0.62102 0.86432 0.97911 0.0
H1509 H 0.6491 0.85446 0.96134 0.0
H1510 H 0.64107 0.80664 0.90852 0.0
C1511 C 0.7065 0.79205 0.89955 0.0
C1512 C 0.68484 0.8354 0.91224 0.0
C1513 C 0.72222 0.78407 0.89137 0.0
C1514 C 0.62019 0.8565 0.96156 0.0
C1515 C 0.63628 0.85086 0.95134 0.0
C1516 C 0.65308 0.81497 0.90943 0.0
C1517 C 0.70232 0.80953 0.89442 0.0
C1518 C 0.6852 0.8177 0.90255 0.0
C1519 C 0.63575 0.83998 0.92917 0.0
C1520 C 0.65273 0.83258 0.91943 0.0
H1521 H 0.73925 0.81839 0.86271 0.0
H1522 H 0.71161 0.83237 0.87685 0.0
H1523 H 0.66876 0.79407 0.89337 0.0
H1524 H 0.58984 0.83704 0.91768 0.0
H1525 H 0.61782 0.82745 0.89964 0.0
C1526 C 0.27785 0.81271 0.8144 0.0
C1527 C 0.2634 0.82266 0.80463 0.0
C1528 C 0.27456 0.7984 0.8284 0.0
C1529 C 0.23826 0.76716 0.8424 0.0
H1530 H 0.27092 0.75947 0.89946 0.0
C1531 C 0.22335 0.71657 0.91403 0.0
C1532 C 0.23805 0.70644 0.9227 0.0
C1533 C 0.22612 0.73051 0.89911 0.0
C1534 C 0.26176 0.76132 0.88344 0.0
H1535 H 0.23406 0.82502 0.80167 0.0
H1536 H 0.22837 0.80047 0.82663 0.0
H1537 H 0.27637 0.78418 0.87467 0.0
H1538 H 0.26712 0.70271 0.92154 0.0
H1539 H 0.27193 0.72704 0.89585 0.0
H1540 H 0.22356 0.74434 0.85145 0.0
C1541 C 0.24227 0.80357 0.82322 0.0
C1542 C 0.26491 0.77549 0.86917 0.0
C1543 C 0.24556 0.81784 0.80916 0.0
C1544 C 0.25552 0.71045 0.91571 0.0
C1545 C 0.2583 0.72441 0.90093 0.0
C1546 C 0.23507 0.75302 0.85678 0.0
C1547 C 0.25673 0.79367 0.8331 0.0
C1548 C 0.25325 0.77858 0.84838 0.0
C1549 C 0.24367 0.73471 0.89258 0.0
C1550 C 0.24683 0.74988 0.87742 0.0
H1551 H 0.29177 0.8161 0.81153 0.0
H1552 H 0.28604 0.79096 0.83539 0.0
H1553 H 0.22913 0.76895 0.82635 0.0
H1554 H 0.20973 0.71401 0.91924 0.0
H1555 H 0.21458 0.73829 0.89318 0.0
C1556 C 0.36769 0.36839 0.85361 0.0
C1557 C 0.35382 0.35767 0.8414 0.0
C1558 C 0.38196 0.36089 0.86743 0.0
C1559 C 0.39338 0.32061 0.89944 0.0
H1560 H 0.44261 0.33885 0.9011 0.0
C1561 C 0.44912 0.30195 0.97226 0.0
C1562 C 0.46675 0.2996 0.96466 0.0
C1563 C 0.4355 0.30824 0.95616 0.0
C1564 C 0.42897 0.33347 0.90065 0.0
H1565 H 0.34447 0.33063 0.83311 0.0
H1566 H 0.36939 0.31753 0.85695 0.0
H1567 H 0.4189 0.35136 0.87435 0.0
H1568 H 0.48422 0.3016 0.93462 0.0
H1569 H 0.46032 0.31235 0.90605 0.0
H1570 H 0.40346 0.30254 0.92541 0.0
C1571 C 0.36904 0.33177 0.85643 0.0
C1572 C 0.41533 0.3408 0.88554 0.0
C1573 C 0.35477 0.33926 0.84274 0.0
C1574 C 0.47061 0.30331 0.94067 0.0
C1575 C 0.45699 0.30959 0.92451 0.0
C1576 C 0.407 0.31327 0.91449 0.0
C1577 C 0.3827 0.34249 0.86921 0.0
C1578 C 0.39735 0.3345 0.88483 0.0
C1579 C 0.4393 0.31228 0.93214 0.0
C1580 C 0.42495 0.31967 0.9154 0.0
H1581 H 0.36724 0.38262 0.85306 0.0
H1582 H 0.39214 0.36955 0.87726 0.0
H1583 H 0.37964 0.31556 0.89958 0.0
H1584 H 0.44601 0.29927 0.99085 0.0
H1585 H 0.42211 0.31039 0.96277 0.0
C1586 C 0.79789 0.33535 0.95194 0.0
C1587 C 0.79402 0.33784 0.92675 0.0
C1588 C 0.80037 0.34988 0.96927 0.0
C1589 C 0.79175 0.39802 0.97795 0.0
H1590 H 0.83066 0.39718 0.02951 0.0
C1591 C 0.81475 0.46083 0.03755 0.0
C1592 C 0.81714 0.45928 0.06311 0.0
C1593 C 0.81258 0.44574 0.02127 0.0
C1594 C 0.81965 0.39755 0.01534 0.0
H1595 H 0.78997 0.35753 0.89997 0.0
H1596 H 0.79433 0.38278 0.93003 0.0
H1597 H 0.82483 0.37121 0.00072 0.0
H1598 H 0.81979 0.44106 0.0919 0.0
H1599 H 0.81611 0.41449 0.06339 0.0
H1600 H 0.78669 0.42439 0.99239 0.0
C1601 C 0.79506 0.36964 0.93657 0.0
C1602 C 0.81626 0.38266 0.99889 0.0
C1603 C 0.79253 0.35515 0.91931 0.0
C1604 C 0.81802 0.44245 0.07218 0.0
C1605 C 0.81594 0.42732 0.05589 0.0
C1606 C 0.7952 0.4129 0.99429 0.0
C1607 C 0.79911 0.36721 0.96175 0.0
C1608 C 0.80232 0.38275 0.9799 0.0
C1609 C 0.81285 0.42882 0.03029 0.0
C1610 C 0.80925 0.41288 0.01308 0.0
H1611 H 0.79901 0.32216 0.95825 0.0
H1612 H 0.80322 0.34753 0.98856 0.0
H1613 H 0.78069 0.39845 0.96386 0.0
H1614 H 0.81408 0.47375 0.03028 0.0
H1615 H 0.81051 0.44732 0.00163 0.0
C1616 C 0.66476 0.24646 0.23728 0.0
C1617 C 0.673 0.26255 0.24661 0.0
C1618 C 0.6505 0.24615 0.219 0.0
C1619 C 0.6149 0.27442 0.19246 0.0
H1620 H 0.61184 0.2381 0.13824 0.0
C1621 C 0.55214 0.26778 0.12376 0.0
C1622 C 0.5557 0.26567 0.09872 0.0
C1623 C 0.56605 0.26571 0.14204 0.0
C1624 C 0.61254 0.24835 0.15323 0.0
H1625 H 0.67296 0.29088 0.24367 0.0
H1626 H 0.64806 0.29035 0.21166 0.0
H1627 H 0.63752 0.23856 0.16907 0.0
H1628 H 0.57605 0.25937 0.07276 0.0
H1629 H 0.60053 0.25575 0.10469 0.0
H1630 H 0.59018 0.28448 0.17638 0.0
C1631 C 0.65248 0.27799 0.21877 0.0
C1632 C 0.62716 0.24853 0.17101 0.0
C1633 C 0.66676 0.2783 0.23706 0.0
C1634 C 0.5731 0.26084 0.09207 0.0
C1635 C 0.58703 0.25877 0.11033 0.0
C1636 C 0.60028 0.27422 0.17474 0.0
C1637 C 0.64411 0.26192 0.20964 0.0
C1638 C 0.62855 0.26163 0.19076 0.0
C1639 C 0.58375 0.26157 0.13554 0.0
C1640 C 0.59895 0.26122 0.15488 0.0
H1641 H 0.66901 0.23412 0.24458 0.0
H1642 H 0.64417 0.23358 0.21265 0.0
H1643 H 0.61544 0.28456 0.20761 0.0
H1644 H 0.53876 0.2716 0.12912 0.0
H1645 H 0.56302 0.26769 0.16128 0.0
C1646 C 0.78549 0.68022 0.30119 0.0
C1647 C 0.78588 0.69544 0.28797 0.0
C1648 C 0.79178 0.66411 0.29103 0.0
C1649 C 0.81844 0.64379 0.24069 0.0
H1650 H 0.78747 0.60311 0.24645 0.0
C1651 C 0.81934 0.58053 0.17495 0.0
C1652 C 0.81684 0.56425 0.1849 0.0
C1653 C 0.81801 0.59628 0.18971 0.0
C1654 C 0.79645 0.61425 0.24498 0.0
H1655 H 0.79351 0.70575 0.25391 0.0
H1656 H 0.80438 0.67769 0.23615 0.0
H1657 H 0.78092 0.63116 0.26853 0.0
H1658 H 0.8114 0.55131 0.21779 0.0
H1659 H 0.80917 0.57889 0.24389 0.0
H1660 H 0.83368 0.6269 0.21657 0.0
C1661 C 0.79951 0.67822 0.25455 0.0
C1662 C 0.7927 0.63036 0.25768 0.0
C1663 C 0.79327 0.69433 0.26473 0.0
C1664 C 0.81341 0.56381 0.2099 0.0
C1665 C 0.81203 0.57956 0.22468 0.0
C1666 C 0.82216 0.62767 0.22793 0.0
C1667 C 0.79854 0.66283 0.26737 0.0
C1668 C 0.8035 0.6454 0.25545 0.0
C1669 C 0.81407 0.59599 0.21466 0.0
C1670 C 0.81107 0.61277 0.22969 0.0
H1671 H 0.78009 0.68072 0.31928 0.0
H1672 H 0.79113 0.65259 0.30161 0.0
H1673 H 0.8272 0.65504 0.23886 0.0
H1674 H 0.82188 0.58103 0.15559 0.0
H1675 H 0.81942 0.60869 0.18132 0.0
C1676 C 0.33039 0.87321 0.13622 0.0
C1677 C 0.32594 0.88743 0.15263 0.0
C1678 C 0.34628 0.87363 0.12375 0.0
C1679 C 0.38318 0.90323 0.10696 0.0
H1680 H 0.40898 0.85895 0.09956 0.0
C1681 C 0.45676 0.89594 0.07422 0.0
C1682 C 0.45939 0.88168 0.05678 0.0
C1683 C 0.44022 0.8979 0.08531 0.0
C1684 C 0.40187 0.87139 0.10132 0.0
H1685 H 0.33437 0.9134 0.16854 0.0
H1686 H 0.36249 0.91402 0.1472 0.0
H1687 H 0.38073 0.86003 0.1201 0.0
H1688 H 0.44623 0.85896 0.0363 0.0
H1689 H 0.41769 0.86218 0.05599 0.0
H1690 H 0.40478 0.91456 0.08854 0.0
C1691 C 0.35353 0.90266 0.14358 0.0
C1692 C 0.3856 0.87201 0.113 0.0
C1693 C 0.33746 0.90231 0.15586 0.0
C1694 C 0.4449 0.86981 0.05015 0.0
C1695 C 0.4285 0.87168 0.06134 0.0
C1696 C 0.39962 0.90263 0.09545 0.0
C1697 C 0.35828 0.88818 0.12765 0.0
C1698 C 0.37589 0.88787 0.11572 0.0
C1699 C 0.42606 0.88557 0.0793 0.0
C1700 C 0.40899 0.88663 0.09227 0.0
H1701 H 0.32158 0.8617 0.1331 0.0
H1702 H 0.3492 0.86246 0.11112 0.0
H1703 H 0.37602 0.91564 0.10855 0.0
H1704 H 0.46765 0.90527 0.07988 0.0
H1705 H 0.43872 0.90869 0.09918 0.0
C1706 C 0.22998 0.45715 0.1486 0.0
C1707 C 0.23701 0.45917 0.17338 0.0
C1708 C 0.22743 0.47186 0.13468 0.0
C1709 C 0.24308 0.51802 0.13249 0.0
H1710 H 0.20064 0.52204 0.08721 0.0
C1711 C 0.22878 0.58176 0.08374 0.0
C1712 C 0.2229 0.58001 0.05851 0.0
C1713 C 0.22937 0.5671 0.09789 0.0
C1714 C 0.21265 0.52104 0.0996 0.0
H1715 H 0.24629 0.47837 0.20314 0.0
H1716 H 0.24188 0.50397 0.17891 0.0
H1717 H 0.20391 0.49628 0.11157 0.0
H1718 H 0.21264 0.56146 0.02852 0.0
H1719 H 0.21372 0.53578 0.05322 0.0
H1720 H 0.25192 0.54265 0.1205 0.0
C1721 C 0.23865 0.49098 0.17008 0.0
C1722 C 0.21453 0.50626 0.11356 0.0
C1723 C 0.24119 0.47628 0.18397 0.0
C1724 C 0.21708 0.56329 0.04796 0.0
C1725 C 0.21771 0.54858 0.06213 0.0
C1726 C 0.24121 0.53274 0.11856 0.0
C1727 C 0.23186 0.48895 0.1452 0.0
C1728 C 0.22975 0.5046 0.13024 0.0
C1729 C 0.22413 0.55026 0.08719 0.0
C1730 C 0.22596 0.53449 0.10198 0.0
H1731 H 0.22682 0.44414 0.13976 0.0
H1732 H 0.22238 0.4698 0.1155 0.0
H1733 H 0.25515 0.51702 0.14478 0.0
H1734 H 0.23301 0.59451 0.09257 0.0
H1735 H 0.23399 0.56897 0.11725 0.0
C1736 C 0.33028 0.31513 0.20746 0.0
C1737 C 0.32934 0.33334 0.21385 0.0
C1738 C 0.34563 0.308 0.19686 0.0
C1739 C 0.39338 0.3192 0.18428 0.0
H1740 H 0.38543 0.28249 0.13115 0.0
C1741 C 0.45235 0.29433 0.12752 0.0
C1742 C 0.44843 0.29068 0.10204 0.0
C1743 C 0.43831 0.29697 0.14334 0.0
C1744 C 0.38789 0.29285 0.1458 0.0
H1745 H 0.34348 0.35841 0.2141 0.0
H1746 H 0.36988 0.34622 0.1949 0.0
H1747 H 0.3602 0.29245 0.15485 0.0
H1748 H 0.427 0.28677 0.07296 0.0
H1749 H 0.40243 0.29224 0.10024 0.0
H1750 H 0.4207 0.32059 0.1741 0.0
C1751 C 0.35921 0.33722 0.19881 0.0
C1752 C 0.37344 0.29836 0.15973 0.0
C1753 C 0.34403 0.34427 0.20974 0.0
C1754 C 0.43029 0.28946 0.09262 0.0
C1755 C 0.41624 0.29246 0.10834 0.0
C1756 C 0.40773 0.31393 0.17007 0.0
C1757 C 0.36019 0.31901 0.19205 0.0
C1758 C 0.37592 0.31184 0.17888 0.0
C1759 C 0.42006 0.29641 0.13391 0.0
C1760 C 0.40513 0.30088 0.15037 0.0
H1761 H 0.3191 0.30645 0.21056 0.0
H1762 H 0.346 0.29388 0.19228 0.0
H1763 H 0.39594 0.32933 0.19922 0.0
H1764 H 0.46629 0.29512 0.13518 0.0
H1765 H 0.44182 0.29956 0.16295 0.0
C1766 C 0.76858 0.34338 0.30153 0.0
C1767 C 0.75726 0.33026 0.28893 0.0
C1768 C 0.77358 0.35821 0.28971 0.0
C1769 C 0.75873 0.3856 0.23983 0.0
H1770 H 0.80901 0.40115 0.24318 0.0
C1771 C 0.78231 0.44046 0.18133 0.0
C1772 C 0.79584 0.4523 0.19184 0.0
C1773 C 0.77771 0.42566 0.19345 0.0
C1774 C 0.79487 0.39716 0.24237 0.0
H1775 H 0.74223 0.32233 0.25422 0.0
H1776 H 0.75086 0.3484 0.23356 0.0
H1777 H 0.80082 0.37506 0.26385 0.0
H1778 H 0.81504 0.45811 0.22336 0.0
H1779 H 0.80669 0.43247 0.24496 0.0
H1780 H 0.75262 0.40781 0.21884 0.0
C1781 C 0.75587 0.34716 0.25256 0.0
C1782 C 0.79021 0.38217 0.25412 0.0
C1783 C 0.75105 0.33222 0.26429 0.0
C1784 C 0.80464 0.44911 0.21479 0.0
C1785 C 0.7999 0.43438 0.22707 0.0
C1786 C 0.76334 0.40069 0.22831 0.0
C1787 C 0.76717 0.36029 0.26517 0.0
C1788 C 0.77212 0.37621 0.25284 0.0
C1789 C 0.78641 0.42244 0.2165 0.0
C1790 C 0.78148 0.40661 0.22931 0.0
H1791 H 0.77367 0.34209 0.32049 0.0
H1792 H 0.78222 0.36819 0.29988 0.0
H1793 H 0.74464 0.38142 0.23887 0.0
H1794 H 0.77554 0.44245 0.16344 0.0
H1795 H 0.76755 0.41658 0.1845 0.0
C1796 C 0.65741 0.81258 0.23005 0.0
C1797 C 0.67157 0.80154 0.22249 0.0
C1798 C 0.64568 0.82012 0.21258 0.0
C1799 C 0.62965 0.81524 0.14639 0.0
H1800 H 0.61394 0.86366 0.15828 0.0
C1801 C 0.59048 0.85103 0.07068 0.0
C1802 C 0.57453 0.85936 0.07768 0.0
C1803 C 0.60315 0.84545 0.08863 0.0
C1804 C 0.61817 0.8501 0.1548 0.0
H1805 H 0.68429 0.78954 0.19061 0.0
H1806 H 0.6642 0.80307 0.1602 0.0
H1807 H 0.63417 0.85046 0.18919 0.0
H1808 H 0.55934 0.86904 0.10845 0.0
H1809 H 0.58166 0.85941 0.14015 0.0
H1810 H 0.61377 0.81492 0.11196 0.0
C1811 C 0.66197 0.80572 0.17961 0.0
C1812 C 0.62968 0.84251 0.17252 0.0
C1813 C 0.67364 0.79812 0.19706 0.0
C1814 C 0.57171 0.86277 0.10283 0.0
C1815 C 0.58444 0.85727 0.12084 0.0
C1816 C 0.61828 0.82286 0.12865 0.0
C1817 C 0.64788 0.81685 0.18715 0.0
C1818 C 0.63556 0.82497 0.1685 0.0
C1819 C 0.60005 0.84814 0.11387 0.0
C1820 C 0.61244 0.84037 0.13265 0.0
H1821 H 0.65559 0.81567 0.2495 0.0
H1822 H 0.63483 0.82845 0.21901 0.0
H1823 H 0.63361 0.8016 0.1429 0.0
H1824 H 0.59279 0.84826 0.05129 0.0
H1825 H 0.61518 0.83866 0.08275 0.0
C1826 C 0.18782 0.79086 0.19004 0.0
C1827 C 0.1926 0.8055 0.1773 0.0
C1828 C 0.18245 0.7749 0.17702 0.0
C1829 C 0.16857 0.75414 0.11454 0.0
H1830 H 0.1999 0.71599 0.13405 0.0
C1831 C 0.19399 0.70132 0.04526 0.0
C1832 C 0.19802 0.68444 0.05271 0.0
C1833 C 0.18763 0.71425 0.06204 0.0
C1834 C 0.19066 0.72626 0.12859 0.0
H1835 H 0.19465 0.81495 0.14076 0.0
H1836 H 0.18496 0.78743 0.11832 0.0
H1837 H 0.19812 0.74258 0.1615 0.0
H1838 H 0.19794 0.66726 0.08274 0.0
H1839 H 0.18652 0.68985 0.1123 0.0
H1840 H 0.16168 0.73809 0.08114 0.0
C1841 C 0.18522 0.78828 0.13834 0.0
C1842 C 0.18965 0.74154 0.14438 0.0
C1843 C 0.19076 0.80413 0.15128 0.0
C1844 C 0.19489 0.68031 0.07679 0.0
C1845 C 0.18846 0.69323 0.09362 0.0
C1846 C 0.16949 0.73881 0.0988 0.0
C1847 C 0.18154 0.77335 0.15104 0.0
C1848 C 0.17918 0.7559 0.13705 0.0
C1849 C 0.18516 0.71048 0.08659 0.0
C1850 C 0.18114 0.72501 0.10521 0.0
H1851 H 0.18877 0.79155 0.21006 0.0
H1852 H 0.17954 0.76361 0.18726 0.0
H1853 H 0.16019 0.76493 0.10861 0.0
H1854 H 0.19645 0.70468 0.02672 0.0
H1855 H 0.18555 0.72744 0.05608 0.0
C1856 C 0.36688 0.86871 0.81244 0.0
C1857 C 0.35328 0.881 0.81794 0.0
C1858 C 0.38299 0.86842 0.82739 0.0
C1859 C 0.41101 0.8963 0.87477 0.0
H1860 H 0.43634 0.85227 0.88328 0.0
C1861 C 0.47215 0.88657 0.94563 0.0
C1862 C 0.48684 0.87726 0.93619 0.0
C1863 C 0.45613 0.88829 0.93081 0.0
C1864 C 0.42945 0.86466 0.88087 0.0
H1865 H 0.34586 0.90237 0.84404 0.0
H1866 H 0.37347 0.90119 0.87086 0.0
H1867 H 0.40709 0.85192 0.85967 0.0
H1868 H 0.49702 0.86337 0.90384 0.0
H1869 H 0.46873 0.86596 0.87795 0.0
H1870 H 0.43328 0.90885 0.89689 0.0
C1871 C 0.37195 0.89212 0.8545 0.0
C1872 C 0.41271 0.86451 0.86728 0.0
C1873 C 0.35593 0.89258 0.83933 0.0
C1874 C 0.48569 0.87041 0.91145 0.0
C1875 C 0.46958 0.87186 0.89677 0.0
C1876 C 0.42762 0.8964 0.88875 0.0
C1877 C 0.38582 0.88022 0.84852 0.0
C1878 C 0.40332 0.88034 0.86386 0.0
C1879 C 0.45457 0.88053 0.90647 0.0
C1880 C 0.43703 0.8806 0.8917 0.0
H1881 H 0.36521 0.85938 0.79637 0.0
H1882 H 0.3934 0.85919 0.82196 0.0
H1883 H 0.40438 0.90879 0.8722 0.0
H1884 H 0.47287 0.89198 0.96469 0.0
H1885 H 0.44471 0.89501 0.93867 0.0
C1886 C 0.29849 0.46648 0.87636 0.0
C1887 C 0.29754 0.46384 0.85042 0.0
C1888 C 0.29538 0.48319 0.88786 0.0
C1889 C 0.27216 0.52482 0.87487 0.0
H1890 H 0.29786 0.54311 0.93609 0.0
C1891 C 0.26039 0.59515 0.917 0.0
C1892 C 0.25745 0.59656 0.94227 0.0
C1893 C 0.2669 0.57943 0.90602 0.0
C1894 C 0.29053 0.5381 0.91905 0.0
H1895 H 0.2928 0.47681 0.81625 0.0
H1896 H 0.28816 0.50591 0.83622 0.0
H1897 H 0.30662 0.5147 0.91637 0.0
H1898 H 0.25956 0.58332 0.97626 0.0
H1899 H 0.27107 0.5557 0.95709 0.0
H1900 H 0.2561 0.54817 0.8775 0.0
C1901 C 0.29101 0.49506 0.84773 0.0
C1902 C 0.29551 0.52183 0.90779 0.0
C1903 C 0.294 0.47839 0.83628 0.0
C1904 C 0.26173 0.58237 0.95667 0.0
C1905 C 0.26836 0.56667 0.94574 0.0
C1906 C 0.26729 0.54108 0.88601 0.0
C1907 C 0.29127 0.4976 0.87363 0.0
C1908 C 0.28636 0.51501 0.88556 0.0
C1909 C 0.27074 0.56496 0.92022 0.0
C1910 C 0.27639 0.54789 0.90822 0.0
H1911 H 0.30125 0.45555 0.88776 0.0
H1912 H 0.29555 0.48466 0.90785 0.0
H1913 H 0.26453 0.51978 0.85808 0.0
H1914 H 0.25731 0.60609 0.90573 0.0
H1915 H 0.26885 0.57856 0.88638 0.0
C1916 C 0.70449 0.28031 0.87946 0.0
C1917 C 0.71713 0.26676 0.8829 0.0
C1918 C 0.68776 0.27991 0.88986 0.0
C1919 C 0.66374 0.2615 0.93917 0.0
H1920 H 0.62085 0.27372 0.89893 0.0
C1921 C 0.59163 0.25823 0.97395 0.0
C1922 C 0.58022 0.27253 0.96906 0.0
C1923 C 0.60807 0.25625 0.96279 0.0
C1924 C 0.63271 0.27042 0.91047 0.0
H1925 H 0.72221 0.24227 0.90029 0.0
H1926 H 0.69288 0.24164 0.91872 0.0
H1927 H 0.65028 0.27268 0.88111 0.0
H1928 H 0.57693 0.29573 0.94819 0.0
H1929 H 0.60578 0.29249 0.92912 0.0
H1930 H 0.6462 0.25951 0.96867 0.0
C1931 C 0.69603 0.25259 0.90797 0.0
C1932 C 0.64956 0.26981 0.90026 0.0
C1933 C 0.71281 0.25297 0.89747 0.0
C1934 C 0.5855 0.28467 0.95252 0.0
C1935 C 0.60193 0.28269 0.94137 0.0
C1936 C 0.64687 0.26215 0.94943 0.0
C1937 C 0.68327 0.26598 0.90403 0.0
C1938 C 0.66528 0.26556 0.91458 0.0
C1939 C 0.61346 0.26852 0.9465 0.0
C1940 C 0.63121 0.26683 0.93526 0.0
H1941 H 0.70758 0.29134 0.86882 0.0
H1942 H 0.67838 0.29062 0.88696 0.0
H1943 H 0.67566 0.25834 0.95071 0.0
H1944 H 0.58804 0.24875 0.98682 0.0
H1945 H 0.61656 0.2451 0.96693 0.0
C1946 C 0.85187 0.66989 0.92488 0.0
C1947 C 0.83483 0.67377 0.91361 0.0
C1948 C 0.85377 0.65578 0.94 0.0
C1949 C 0.8294 0.61546 0.95621 0.0
H1950 H 0.86259 0.61991 0.01476 0.0
C1951 C 0.83488 0.55969 0.02198 0.0
C1952 C 0.83666 0.56471 0.04735 0.0
C1953 C 0.83735 0.57211 0.00475 0.0
C1954 C 0.85313 0.61849 0.99861 0.0
H1955 H 0.80637 0.66641 0.90966 0.0
H1956 H 0.80942 0.64231 0.93673 0.0
H1957 H 0.8609 0.64353 0.98682 0.0
H1958 H 0.84266 0.58631 0.07494 0.0
H1959 H 0.84613 0.60832 0.04498 0.0
H1960 H 0.82067 0.59108 0.96874 0.0
C1961 C 0.82152 0.64959 0.93327 0.0
C1962 C 0.85237 0.63195 0.98232 0.0
C1963 C 0.81971 0.66346 0.91785 0.0
C1964 C 0.84137 0.5822 0.05537 0.0
C1965 C 0.84347 0.59474 0.03816 0.0
C1966 C 0.82992 0.60219 0.97268 0.0
C1967 C 0.83858 0.64548 0.94447 0.0
C1968 C 0.84032 0.63071 0.96106 0.0
C1969 C 0.8412 0.58992 0.01258 0.0
C1970 C 0.84166 0.60357 0.99425 0.0
H1971 H 0.86373 0.67766 0.92174 0.0
H1972 H 0.86716 0.65288 0.948 0.0
H1973 H 0.82024 0.61381 0.93978 0.0
H1974 H 0.83135 0.54619 0.0155 0.0
H1975 H 0.83597 0.56776 0.98528 0.0
loop_
_geom_bond_atom_site_label_1
_geom_bond_atom_site_label_2
_geom_bond_distance
_geom_bond_site_symmetry_2
_ccdc_geom_bond_type
H0 O26 0.856 . S
H1 O29 0.854 . S
H2 C37 0.930 . S
H3 C38 0.930 . S
H4 C40 0.930 . S
H5 C41 0.930 . S
H6 C43 0.931 . S
H7 C44 0.930 . S
H8 C46 0.930 . S
H9 C47 0.929 . S
H10 C49 0.930 . S
H11 C50 0.931 . S
H12 C52 0.930 . S
H13 C53 0.929 . S
H14 C55 0.931 . S
H15 C56 0.930 . S
H16 C58 0.930 . S
H17 C59 0.932 . S
H18 C61 0.930 . S
H19 C62 0.929 . S
H20 C64 0.931 . S
H21 C65 0.930 . S
H22 C67 0.929 . S
H23 C68 0.931 . S
H24 C70 0.930 . S
H25 C71 0.929 . S
O26 H0 0.856 . S
O26 C72 1.300 . S
O27 C72 1.209 . S
O28 C73 1.199 . S
O29 H1 0.854 . S
O29 C73 1.297 . S
C30 C31 1.404 . S
C30 C35 1.397 . S
C30 C36 1.492 . S
C31 C30 1.404 . S
C31 C32 1.396 . S
C31 C42 1.492 . S
C32 C31 1.396 . S
C32 C33 1.397 . S
C32 C48 1.509 . S
C33 C32 1.397 . S
C33 C34 1.412 . S
C33 C54 1.485 . S
C34 C33 1.412 . S
C34 C35 1.388 . S
C34 C60 1.490 . S
C35 C30 1.397 . S
C35 C34 1.388 . S
C35 C66 1.519 . S
C36 C30 1.492 . S
C36 C37 1.363 . S
C36 C41 1.390 . S
C37 H2 0.930 . S
C37 C36 1.363 . S
C37 C38 1.372 . S
C38 H3 0.930 . S
C38 C37 1.372 . S
C38 C39 1.383 . S
C39 C38 1.383 . S
C39 C40 1.395 . S
C40 H4 0.930 . S
C40 C39 1.395 . S
C40 C41 1.362 . S
C41 H5 0.930 . S
C41 C36 1.390 . S
C41 C40 1.362 . S
C42 C31 1.492 . S
C42 C43 1.377 . S
C42 C47 1.397 . S
C43 H6 0.931 . S
C43 C42 1.377 . S
C43 C44 1.376 . S
C44 H7 0.930 . S
C44 C43 1.376 . S
C44 C45 1.376 . S
C45 C44 1.376 . S
C45 C46 1.378 . S
C45 C72 1.486 . S
C46 H8 0.930 . S
C46 C45 1.378 . S
C46 C47 1.376 . S
C47 H9 0.929 . S
C47 C42 1.397 . S
C47 C46 1.376 . S
C48 C32 1.509 . S
C48 C49 1.391 . S
C48 C53 1.386 . S
C49 H10 0.930 . S
C49 C48 1.391 . S
C49 C50 1.375 . S
C50 H11 0.931 . S
C50 C49 1.375 . S
C50 C51 1.375 . S
C51 C50 1.375 . S
C51 C52 1.361 . S
C52 H12 0.930 . S
C52 C51 1.361 . S
C52 C53 1.399 . S
C53 H13 0.929 . S
C53 C48 1.386 . S
C53 C52 1.399 . S
C54 C33 1.485 . S
C54 C55 1.394 . S
C54 C59 1.360 . S
C55 H14 0.931 . S
C55 C54 1.394 . S
C55 C56 1.372 . S
C56 H15 0.930 . S
C56 C55 1.372 . S
C56 C57 1.397 . S
C57 C56 1.397 . S
C57 C58 1.390 . S
C57 C73 1.476 . S
C58 H16 0.930 . S
C58 C57 1.390 . S
C58 C59 1.366 . S
C59 H17 0.932 . S
C59 C54 1.360 . S
C59 C58 1.366 . S
C60 C34 1.490 . S
C60 C61 1.380 . S
C60 C65 1.386 . S
C61 H18 0.930 . S
C61 C60 1.380 . S
C61 C62 1.381 . S
C62 H19 0.929 . S
C62 C61 1.381 . S
C62 C63 1.371 . S
C63 C62 1.371 . S
C63 C64 1.380 . S
C64 H20 0.931 . S
C64 C63 1.380 . S
C64 C65 1.387 . S
C65 H21 0.930 . S
C65 C60 1.386 . S
C65 C64 1.387 . S
C66 C35 1.519 . S
C66 C67 1.377 . S
C66 C71 1.361 . S
C67 H22 0.929 . S
C67 C66 1.377 . S
C67 C68 1.386 . S
C68 H23 0.931 . S
C68 C67 1.386 . S
C68 C69 1.363 . S
C69 C68 1.363 . S
C69 C70 1.385 . S
C70 H24 0.930 . S
C70 C69 1.385 . S
C70 C71 1.396 . S
C71 H25 0.929 . S
C71 C66 1.361 . S
C71 C70 1.396 . S
C72 O26 1.300 . S
C72 O27 1.209 . S
C72 C45 1.486 . S
C73 O28 1.199 . S
C73 O29 1.297 . S
C73 C57 1.476 . S
H74 O100 0.856 . S
H75 O103 0.854 . S
H76 C111 0.930 . S
H77 C112 0.930 . S
H78 C114 0.930 . S
H79 C115 0.930 . S
H80 C117 0.931 . S
H81 C118 0.930 . S
H82 C120 0.930 . S
H83 C121 0.929 . S
H84 C123 0.930 . S
H85 C124 0.931 . S
H86 C126 0.930 . S
H87 C127 0.929 . S
H88 C129 0.931 . S
H89 C130 0.930 . S
H90 C132 0.930 . S
H91 C133 0.932 . S
H92 C135 0.930 . S
H93 C136 0.929 . S
H94 C138 0.931 . S
H95 C139 0.930 . S
H96 C141 0.929 . S
H97 C142 0.931 . S
H98 C144 0.930 . S
H99 C145 0.929 . S
O100 H74 0.856 . S
O100 C146 1.300 . S
O101 C146 1.209 . S
O102 C147 1.199 . S
O103 H75 0.854 . S
O103 C147 1.297 . S
C104 C105 1.404 . S
C104 C109 1.397 . S
C104 C110 1.492 . S
C105 C104 1.404 . S
C105 C106 1.396 . S
C105 C116 1.492 . S
C106 C105 1.396 . S
C106 C107 1.397 . S
C106 C122 1.509 . S
C107 C106 1.397 . S
C107 C108 1.412 . S
C107 C128 1.485 . S
C108 C107 1.412 . S
C108 C109 1.388 . S
C108 C134 1.490 . S
C109 C104 1.397 . S
C109 C108 1.388 . S
C109 C140 1.519 . S
C110 C104 1.492 . S
C110 C111 1.363 . S
C110 C115 1.390 . S
C111 H76 0.930 . S
C111 C110 1.363 . S
C111 C112 1.372 . S
C112 H77 0.930 . S
C112 C111 1.372 . S
C112 C113 1.383 . S
C113 C112 1.383 . S
C113 C114 1.395 . S
C114 H78 0.930 . S
C114 C113 1.395 . S
C114 C115 1.362 . S
C115 H79 0.930 . S
C115 C110 1.390 . S
C115 C114 1.362 . S
C116 C105 1.492 . S
C116 C117 1.377 . S
C116 C121 1.397 . S
C117 H80 0.931 . S
C117 C116 1.377 . S
C117 C118 1.376 . S
C118 H81 0.930 . S
C118 C117 1.376 . S
C118 C119 1.376 . S
C119 C118 1.376 . S
C119 C120 1.378 . S
C119 C146 1.486 . S
C120 H82 0.930 . S
C120 C119 1.378 . S
C120 C121 1.376 . S
C121 H83 0.929 . S
C121 C116 1.397 . S
C121 C120 1.376 . S
C122 C106 1.509 . S
C122 C123 1.391 . S
C122 C127 1.386 . S
C123 H84 0.930 . S
C123 C122 1.391 . S
C123 C124 1.375 . S
C124 H85 0.931 . S
C124 C123 1.375 . S
C124 C125 1.375 . S
C125 C124 1.375 . S
C125 C126 1.361 . S
C126 H86 0.930 . S
C126 C125 1.361 . S
C126 C127 1.399 . S
C127 H87 0.929 . S
C127 C122 1.386 . S
C127 C126 1.399 . S
C128 C107 1.485 . S
C128 C129 1.394 . S
C128 C133 1.360 . S
C129 H88 0.931 . S
C129 C128 1.394 . S
C129 C130 1.372 . S
C130 H89 0.930 . S
C130 C129 1.372 . S
C130 C131 1.397 . S
C131 C130 1.397 . S
C131 C132 1.390 . S
C131 C147 1.476 . S
C132 H90 0.930 . S
C132 C131 1.390 . S
C132 C133 1.366 . S
C133 H91 0.932 . S
C133 C128 1.360 . S
C133 C132 1.366 . S
C134 C108 1.490 . S
C134 C135 1.380 . S
C134 C139 1.386 . S
C135 H92 0.930 . S
C135 C134 1.380 . S
C135 C136 1.381 . S
C136 H93 0.929 . S
C136 C135 1.381 . S
C136 C137 1.371 . S
C137 C136 1.371 . S
C137 C138 1.380 . S
C138 H94 0.931 . S
C138 C137 1.380 . S
C138 C139 1.387 . S
C139 H95 0.930 . S
C139 C134 1.386 . S
C139 C138 1.387 . S
C140 C109 1.519 . S
C140 C141 1.377 . S
C140 C145 1.361 . S
C141 H96 0.929 . S
C141 C140 1.377 . S
C141 C142 1.386 . S
C142 H97 0.931 . S
C142 C141 1.386 . S
C142 C143 1.363 . S
C143 C142 1.363 . S
C143 C144 1.385 . S
C144 H98 0.930 . S
C144 C143 1.385 . S
C144 C145 1.396 . S
C145 H99 0.929 . S
C145 C140 1.361 . S
C145 C144 1.396 . S
C146 O100 1.300 . S
C146 O101 1.209 . S
C146 C119 1.486 . S
C147 O102 1.199 . S
C147 O103 1.297 . S
C147 C131 1.476 . S
H148 O174 0.856 . S
H149 O177 0.854 . S
H150 C185 0.930 . S
H151 C186 0.930 . S
H152 C188 0.930 . S
H153 C189 0.930 . S
H154 C191 0.931 . S
H155 C192 0.930 . S
H156 C194 0.930 . S
H157 C195 0.929 . S
H158 C197 0.930 . S
H159 C198 0.931 . S
H160 C200 0.930 . S
H161 C201 0.929 . S
H162 C203 0.931 . S
H163 C204 0.930 . S
H164 C206 0.930 . S
H165 C207 0.932 . S
H166 C209 0.930 . S
H167 C210 0.929 . S
H168 C212 0.931 . S
H169 C213 0.930 . S
H170 C215 0.929 . S
H171 C216 0.931 . S
H172 C218 0.930 . S
H173 C219 0.929 . S
O174 H148 0.856 . S
O174 C220 1.300 . S
O175 C220 1.209 . S
O176 C221 1.199 . S
O177 H149 0.854 . S
O177 C221 1.297 . S
C178 C179 1.404 . S
C178 C183 1.397 . S
C178 C184 1.492 . S
C179 C178 1.404 . S
C179 C180 1.396 . S
C179 C190 1.492 . S
C180 C179 1.396 . S
C180 C181 1.397 . S
C180 C196 1.509 . S
C181 C180 1.397 . S
C181 C182 1.412 . S
C181 C202 1.485 . S
C182 C181 1.412 . S
C182 C183 1.388 . S
C182 C208 1.490 . S
C183 C178 1.397 . S
C183 C182 1.388 . S
C183 C214 1.519 . S
C184 C178 1.492 . S
C184 C185 1.363 . S
C184 C189 1.390 . S
C185 H150 0.930 . S
C185 C184 1.363 . S
C185 C186 1.372 . S
C186 H151 0.930 . S
C186 C185 1.372 . S
C186 C187 1.383 . S
C187 C186 1.383 . S
C187 C188 1.395 . S
C188 H152 0.930 . S
C188 C187 1.395 . S
C188 C189 1.362 . S
C189 H153 0.930 . S
C189 C184 1.390 . S
C189 C188 1.362 . S
C190 C179 1.492 . S
C190 C191 1.377 . S
C190 C195 1.397 . S
C191 H154 0.931 . S
C191 C190 1.377 . S
C191 C192 1.376 . S
C192 H155 0.930 . S
C192 C191 1.376 . S
C192 C193 1.376 . S
C193 C192 1.376 . S
C193 C194 1.378 . S
C193 C220 1.486 . S
C194 H156 0.930 . S
C194 C193 1.378 . S
C194 C195 1.376 . S
C195 H157 0.929 . S
C195 C190 1.397 . S
C195 C194 1.376 . S
C196 C180 1.509 . S
C196 C197 1.391 . S
C196 C201 1.386 . S
C197 H158 0.930 . S
C197 C196 1.391 . S
C197 C198 1.375 . S
C198 H159 0.931 . S
C198 C197 1.375 . S
C198 C199 1.375 . S
C199 C198 1.375 . S
C199 C200 1.361 . S
C200 H160 0.930 . S
C200 C199 1.361 . S
C200 C201 1.399 . S
C201 H161 0.929 . S
C201 C196 1.386 . S
C201 C200 1.399 . S
C202 C181 1.485 . S
C202 C203 1.394 . S
C202 C207 1.360 . S
C203 H162 0.931 . S
C203 C202 1.394 . S
C203 C204 1.372 . S
C204 H163 0.930 . S
C204 C203 1.372 . S
C204 C205 1.397 . S
C205 C204 1.397 . S
C205 C206 1.390 . S
C205 C221 1.476 . S
C206 H164 0.930 . S
C206 C205 1.390 . S
C206 C207 1.366 . S
C207 H165 0.932 . S
C207 C202 1.360 . S
C207 C206 1.366 . S
C208 C182 1.490 . S
C208 C209 1.380 . S
C208 C213 1.386 . S
C209 H166 0.930 . S
C209 C208 1.380 . S
C209 C210 1.381 . S
C210 H167 0.929 . S
C210 C209 1.381 . S
C210 C211 1.371 . S
C211 C210 1.371 . S
C211 C212 1.380 . S
C212 H168 0.931 . S
C212 C211 1.380 . S
C212 C213 1.387 . S
C213 H169 0.930 . S
C213 C208 1.386 . S
C213 C212 1.387 . S
C214 C183 1.519 . S
C214 C215 1.377 . S
C214 C219 1.361 . S
C215 H170 0.929 . S
C215 C214 1.377 . S
C215 C216 1.386 . S
C216 H171 0.931 . S
C216 C215 1.386 . S
C216 C217 1.363 . S
C217 C216 1.363 . S
C217 C218 1.385 . S
C218 H172 0.930 . S
C218 C217 1.385 . S
C218 C219 1.396 . S
C219 H173 0.929 . S
C219 C214 1.361 . S
C219 C218 1.396 . S
C220 O174 1.300 . S
C220 O175 1.209 . S
C220 C193 1.486 . S
C221 O176 1.199 . S
C221 O177 1.297 . S
C221 C205 1.476 . S
H222 O248 0.856 . S
H223 O251 0.854 . S
H224 C259 0.930 . S
H225 C260 0.930 . S
H226 C262 0.930 . S
H227 C263 0.930 . S
H228 C265 0.931 . S
H229 C266 0.930 . S
H230 C268 0.930 . S
H231 C269 0.929 . S
H232 C271 0.930 . S
H233 C272 0.931 . S
H234 C274 0.930 . S
H235 C275 0.929 . S
H236 C277 0.931 . S
H237 C278 0.930 . S
H238 C280 0.930 . S
H239 C281 0.932 . S
H240 C283 0.930 . S
H241 C284 0.929 . S
H242 C286 0.931 . S
H243 C287 0.930 . S
H244 C289 0.929 . S
H245 C290 0.931 . S
H246 C292 0.930 . S
H247 C293 0.929 . S
O248 H222 0.856 . S
O248 C294 1.300 . S
O249 C294 1.209 . S
O250 C295 1.199 . S
O251 H223 0.854 . S
O251 C295 1.297 . S
C252 C253 1.404 . S
C252 C257 1.397 . S
C252 C258 1.492 . S
C253 C252 1.404 . S
C253 C254 1.396 . S
C253 C264 1.492 . S
C254 C253 1.396 . S
C254 C255 1.397 . S
C254 C270 1.509 . S
C255 C254 1.397 . S
C255 C256 1.412 . S
C255 C276 1.485 . S
C256 C255 1.412 . S
C256 C257 1.388 . S
C256 C282 1.490 . S
C257 C252 1.397 . S
C257 C256 1.388 . S
C257 C288 1.519 . S
C258 C252 1.492 . S
C258 C259 1.363 . S
C258 C263 1.390 . S
C259 H224 0.930 . S
C259 C258 1.363 . S
C259 C260 1.372 . S
C260 H225 0.930 . S
C260 C259 1.372 . S
C260 C261 1.383 . S
C261 C260 1.383 . S
C261 C262 1.395 . S
C262 H226 0.930 . S
C262 C261 1.395 . S
C262 C263 1.362 . S
C263 H227 0.930 . S
C263 C258 1.390 . S
C263 C262 1.362 . S
C264 C253 1.492 . S
C264 C265 1.377 . S
C264 C269 1.397 . S
C265 H228 0.931 . S
C265 C264 1.377 . S
C265 C266 1.376 . S
C266 H229 0.930 . S
C266 C265 1.376 . S
C266 C267 1.376 . S
C267 C266 1.376 . S
C267 C268 1.378 . S
C267 C294 1.486 . S
C268 H230 0.930 . S
C268 C267 1.378 . S
C268 C269 1.376 . S
C269 H231 0.929 . S
C269 C264 1.397 . S
C269 C268 1.376 . S
C270 C254 1.509 . S
C270 C271 1.391 . S
C270 C275 1.386 . S
C271 H232 0.930 . S
C271 C270 1.391 . S
C271 C272 1.375 . S
C272 H233 0.931 . S
C272 C271 1.375 . S
C272 C273 1.375 . S
C273 C272 1.375 . S
C273 C274 1.361 . S
C274 H234 0.930 . S
C274 C273 1.361 . S
C274 C275 1.399 . S
C275 H235 0.929 . S
C275 C270 1.386 . S
C275 C274 1.399 . S
C276 C255 1.485 . S
C276 C277 1.394 . S
C276 C281 1.360 . S
C277 H236 0.931 . S
C277 C276 1.394 . S
C277 C278 1.372 . S
C278 H237 0.930 . S
C278 C277 1.372 . S
C278 C279 1.397 . S
C279 C278 1.397 . S
C279 C280 1.390 . S
C279 C295 1.476 . S
C280 H238 0.930 . S
C280 C279 1.390 . S
C280 C281 1.366 . S
C281 H239 0.932 . S
C281 C276 1.360 . S
C281 C280 1.366 . S
C282 C256 1.490 . S
C282 C283 1.380 . S
C282 C287 1.386 . S
C283 H240 0.930 . S
C283 C282 1.380 . S
C283 C284 1.381 . S
C284 H241 0.929 . S
C284 C283 1.381 . S
C284 C285 1.371 . S
C285 C284 1.371 . S
C285 C286 1.380 . S
C286 H242 0.931 . S
C286 C285 1.380 . S
C286 C287 1.387 . S
C287 H243 0.930 . S
C287 C282 1.386 . S
C287 C286 1.387 . S
C288 C257 1.519 . S
C288 C289 1.377 . S
C288 C293 1.361 . S
C289 H244 0.929 . S
C289 C288 1.377 . S
C289 C290 1.386 . S
C290 H245 0.931 . S
C290 C289 1.386 . S
C290 C291 1.363 . S
C291 C290 1.363 . S
C291 C292 1.385 . S
C292 H246 0.930 . S
C292 C291 1.385 . S
C292 C293 1.396 . S
C293 H247 0.929 . S
C293 C288 1.361 . S
C293 C292 1.396 . S
C294 O248 1.300 . S
C294 O249 1.209 . S
C294 C267 1.486 . S
C295 O250 1.199 . S
C295 O251 1.297 . S
C295 C279 1.476 . S
H296 O322 0.856 . S
H297 O325 0.854 . S
H298 C333 0.930 . S
H299 C334 0.930 . S
H300 C336 0.930 . S
H301 C337 0.930 . S
H302 C339 0.931 . S
H303 C340 0.930 . S
H304 C342 0.930 . S
H305 C343 0.929 . S
H306 C345 0.930 . S
H307 C346 0.931 . S
H308 C348 0.930 . S
H309 C349 0.929 . S
H310 C351 0.931 . S
H311 C352 0.930 . S
H312 C354 0.930 . S
H313 C355 0.932 . S
H314 C357 0.930 . S
H315 C358 0.929 . S
H316 C360 0.931 . S
H317 C361 0.930 . S
H318 C363 0.929 . S
H319 C364 0.931 . S
H320 C366 0.930 . S
H321 C367 0.929 . S
O322 H296 0.856 . S
O322 C368 1.300 . S
O323 C368 1.209 . S
O324 C369 1.199 . S
O325 H297 0.854 . S
O325 C369 1.297 . S
C326 C327 1.404 . S
C326 C331 1.397 . S
C326 C332 1.492 . S
C327 C326 1.404 . S
C327 C328 1.396 . S
C327 C338 1.492 . S
C328 C327 1.396 . S
C328 C329 1.397 . S
C328 C344 1.509 . S
C329 C328 1.397 . S
C329 C330 1.412 . S
C329 C350 1.485 . S
C330 C329 1.412 . S
C330 C331 1.388 . S
C330 C356 1.490 . S
C331 C326 1.397 . S
C331 C330 1.388 . S
C331 C362 1.519 . S
C332 C326 1.492 . S
C332 C333 1.363 . S
C332 C337 1.390 . S
C333 H298 0.930 . S
C333 C332 1.363 . S
C333 C334 1.372 . S
C334 H299 0.930 . S
C334 C333 1.372 . S
C334 C335 1.383 . S
C335 C334 1.383 . S
C335 C336 1.395 . S
C336 H300 0.930 . S
C336 C335 1.395 . S
C336 C337 1.362 . S
C337 H301 0.930 . S
C337 C332 1.390 . S
C337 C336 1.362 . S
C338 C327 1.492 . S
C338 C339 1.377 . S
C338 C343 1.397 . S
C339 H302 0.931 . S
C339 C338 1.377 . S
C339 C340 1.376 . S
C340 H303 0.930 . S
C340 C339 1.376 . S
C340 C341 1.376 . S
C341 C340 1.376 . S
C341 C342 1.378 . S
C341 C368 1.486 . S
C342 H304 0.930 . S
C342 C341 1.378 . S
C342 C343 1.376 . S
C343 H305 0.929 . S
C343 C338 1.397 . S
C343 C342 1.376 . S
C344 C328 1.509 . S
C344 C345 1.391 . S
C344 C349 1.386 . S
C345 H306 0.930 . S
C345 C344 1.391 . S
C345 C346 1.375 . S
C346 H307 0.931 . S
C346 C345 1.375 . S
C346 C347 1.375 . S
C347 C346 1.375 . S
C347 C348 1.361 . S
C348 H308 0.930 . S
C348 C347 1.361 . S
C348 C349 1.399 . S
C349 H309 0.929 . S
C349 C344 1.386 . S
C349 C348 1.399 . S
C350 C329 1.485 . S
C350 C351 1.394 . S
C350 C355 1.360 . S
C351 H310 0.931 . S
C351 C350 1.394 . S
C351 C352 1.372 . S
C352 H311 0.930 . S
C352 C351 1.372 . S
C352 C353 1.397 . S
C353 C352 1.397 . S
C353 C354 1.390 . S
C353 C369 1.476 . S
C354 H312 0.930 . S
C354 C353 1.390 . S
C354 C355 1.366 . S
C355 H313 0.932 . S
C355 C350 1.360 . S
C355 C354 1.366 . S
C356 C330 1.490 . S
C356 C357 1.380 . S
C356 C361 1.386 . S
C357 H314 0.930 . S
C357 C356 1.380 . S
C357 C358 1.381 . S
C358 H315 0.929 . S
C358 C357 1.381 . S
C358 C359 1.371 . S
C359 C358 1.371 . S
C359 C360 1.380 . S
C360 H316 0.931 . S
C360 C359 1.380 . S
C360 C361 1.387 . S
C361 H317 0.930 . S
C361 C356 1.386 . S
C361 C360 1.387 . S
C362 C331 1.519 . S
C362 C363 1.377 . S
C362 C367 1.361 . S
C363 H318 0.929 . S
C363 C362 1.377 . S
C363 C364 1.386 . S
C364 H319 0.931 . S
C364 C363 1.386 . S
C364 C365 1.363 . S
C365 C364 1.363 . S
C365 C366 1.385 . S
C366 H320 0.930 . S
C366 C365 1.385 . S
C366 C367 1.396 . S
C367 H321 0.929 . S
C367 C362 1.361 . S
C367 C366 1.396 . S
C368 O322 1.300 . S
C368 O323 1.209 . S
C368 C341 1.486 . S
C369 O324 1.199 . S
C369 O325 1.297 . S
C369 C353 1.476 . S
H370 O396 0.856 . S
H371 O399 0.854 . S
H372 C407 0.930 . S
H373 C408 0.930 . S
H374 C410 0.930 . S
H375 C411 0.930 . S
H376 C413 0.931 . S
H377 C414 0.930 . S
H378 C416 0.930 . S
H379 C417 0.929 . S
H380 C419 0.930 . S
H381 C420 0.931 . S
H382 C422 0.930 . S
H383 C423 0.929 . S
H384 C425 0.931 . S
H385 C426 0.930 . S
H386 C428 0.930 . S
H387 C429 0.932 . S
H388 C431 0.930 . S
H389 C432 0.929 . S
H390 C434 0.931 . S
H391 C435 0.930 . S
H392 C437 0.929 . S
H393 C438 0.931 . S
H394 C440 0.930 . S
H395 C441 0.929 . S
O396 H370 0.856 . S
O396 C442 1.300 . S
O397 C442 1.209 . S
O398 C443 1.199 . S
O399 H371 0.854 . S
O399 C443 1.297 . S
C400 C401 1.404 . S
C400 C405 1.397 . S
C400 C406 1.492 . S
C401 C400 1.404 . S
C401 C402 1.396 . S
C401 C412 1.492 . S
C402 C401 1.396 . S
C402 C403 1.397 . S
C402 C418 1.509 . S
C403 C402 1.397 . S
C403 C404 1.412 . S
C403 C424 1.485 . S
C404 C403 1.412 . S
C404 C405 1.388 . S
C404 C430 1.490 . S
C405 C400 1.397 . S
C405 C404 1.388 . S
C405 C436 1.519 . S
C406 C400 1.492 . S
C406 C407 1.363 . S
C406 C411 1.390 . S
C407 H372 0.930 . S
C407 C406 1.363 . S
C407 C408 1.372 . S
C408 H373 0.930 . S
C408 C407 1.372 . S
C408 C409 1.383 . S
C409 C408 1.383 . S
C409 C410 1.395 . S
C410 H374 0.930 . S
C410 C409 1.395 . S
C410 C411 1.362 . S
C411 H375 0.930 . S
C411 C406 1.390 . S
C411 C410 1.362 . S
C412 C401 1.492 . S
C412 C413 1.377 . S
C412 C417 1.397 . S
C413 H376 0.931 . S
C413 C412 1.377 . S
C413 C414 1.376 . S
C414 H377 0.930 . S
C414 C413 1.376 . S
C414 C415 1.376 . S
C415 C414 1.376 . S
C415 C416 1.378 . S
C415 C442 1.486 . S
C416 H378 0.930 . S
C416 C415 1.378 . S
C416 C417 1.376 . S
C417 H379 0.929 . S
C417 C412 1.397 . S
C417 C416 1.376 . S
C418 C402 1.509 . S
C418 C419 1.391 . S
C418 C423 1.386 . S
C419 H380 0.930 . S
C419 C418 1.391 . S
C419 C420 1.375 . S
C420 H381 0.931 . S
C420 C419 1.375 . S
C420 C421 1.375 . S
C421 C420 1.375 . S
C421 C422 1.361 . S
C422 H382 0.930 . S
C422 C421 1.361 . S
C422 C423 1.399 . S
C423 H383 0.929 . S
C423 C418 1.386 . S
C423 C422 1.399 . S
C424 C403 1.485 . S
C424 C425 1.394 . S
C424 C429 1.360 . S
C425 H384 0.931 . S
C425 C424 1.394 . S
C425 C426 1.372 . S
C426 H385 0.930 . S
C426 C425 1.372 . S
C426 C427 1.397 . S
C427 C426 1.397 . S
C427 C428 1.390 . S
C427 C443 1.476 . S
C428 H386 0.930 . S
C428 C427 1.390 . S
C428 C429 1.366 . S
C429 H387 0.932 . S
C429 C424 1.360 . S
C429 C428 1.366 . S
C430 C404 1.490 . S
C430 C431 1.380 . S
C430 C435 1.386 . S
C431 H388 0.930 . S
C431 C430 1.380 . S
C431 C432 1.381 . S
C432 H389 0.929 . S
C432 C431 1.381 . S
C432 C433 1.371 . S
C433 C432 1.371 . S
C433 C434 1.380 . S
C434 H390 0.931 . S
C434 C433 1.380 . S
C434 C435 1.387 . S
C435 H391 0.930 . S
C435 C430 1.386 . S
C435 C434 1.387 . S
C436 C405 1.519 . S
C436 C437 1.377 . S
C436 C441 1.361 . S
C437 H392 0.929 . S
C437 C436 1.377 . S
C437 C438 1.386 . S
C438 H393 0.931 . S
C438 C437 1.386 . S
C438 C439 1.363 . S
C439 C438 1.363 . S
C439 C440 1.385 . S
C440 H394 0.930 . S
C440 C439 1.385 . S
C440 C441 1.396 . S
C441 H395 0.929 . S
C441 C436 1.361 . S
C441 C440 1.396 . S
C442 O396 1.300 . S
C442 O397 1.209 . S
C442 C415 1.486 . S
C443 O398 1.199 . S
C443 O399 1.297 . S
C443 C427 1.476 . S
H444 O470 0.856 . S
H445 O473 0.854 . S
H446 C481 0.930 . S
H447 C482 0.930 . S
H448 C484 0.930 . S
H449 C485 0.930 . S
H450 C487 0.931 . S
H451 C488 0.930 . S
H452 C490 0.930 . S
H453 C491 0.929 . S
H454 C493 0.930 . S
H455 C494 0.931 . S
H456 C496 0.930 . S
H457 C497 0.929 . S
H458 C499 0.931 . S
H459 C500 0.930 . S
H460 C502 0.930 . S
H461 C503 0.932 . S
H462 C505 0.930 . S
H463 C506 0.929 . S
H464 C508 0.931 . S
H465 C509 0.930 . S
H466 C511 0.929 . S
H467 C512 0.931 . S
H468 C514 0.930 . S
H469 C515 0.929 . S
O470 H444 0.856 . S
O470 C516 1.300 . S
O471 C516 1.209 . S
O472 C517 1.199 . S
O473 H445 0.854 . S
O473 C517 1.297 . S
C474 C475 1.404 . S
C474 C479 1.397 . S
C474 C480 1.492 . S
C475 C474 1.404 . S
C475 C476 1.396 . S
C475 C486 1.492 . S
C476 C475 1.396 . S
C476 C477 1.397 . S
C476 C492 1.509 . S
C477 C476 1.397 . S
C477 C478 1.412 . S
C477 C498 1.485 . S
C478 C477 1.412 . S
C478 C479 1.388 . S
C478 C504 1.490 . S
C479 C474 1.397 . S
C479 C478 1.388 . S
C479 C510 1.519 . S
C480 C474 1.492 . S
C480 C481 1.363 . S
C480 C485 1.390 . S
C481 H446 0.930 . S
C481 C480 1.363 . S
C481 C482 1.372 . S
C482 H447 0.930 . S
C482 C481 1.372 . S
C482 C483 1.383 . S
C483 C482 1.383 . S
C483 C484 1.395 . S
C484 H448 0.930 . S
C484 C483 1.395 . S
C484 C485 1.362 . S
C485 H449 0.930 . S
C485 C480 1.390 . S
C485 C484 1.362 . S
C486 C475 1.492 . S
C486 C487 1.377 . S
C486 C491 1.397 . S
C487 H450 0.931 . S
C487 C486 1.377 . S
C487 C488 1.376 . S
C488 H451 0.930 . S
C488 C487 1.376 . S
C488 C489 1.376 . S
C489 C488 1.376 . S
C489 C490 1.378 . S
C489 C516 1.486 . S
C490 H452 0.930 . S
C490 C489 1.378 . S
C490 C491 1.376 . S
C491 H453 0.929 . S
C491 C486 1.397 . S
C491 C490 1.376 . S
C492 C476 1.509 . S
C492 C493 1.391 . S
C492 C497 1.386 . S
C493 H454 0.930 . S
C493 C492 1.391 . S
C493 C494 1.375 . S
C494 H455 0.931 . S
C494 C493 1.375 . S
C494 C495 1.375 . S
C495 C494 1.375 . S
C495 C496 1.361 . S
C496 H456 0.930 . S
C496 C495 1.361 . S
C496 C497 1.399 . S
C497 H457 0.929 . S
C497 C492 1.386 . S
C497 C496 1.399 . S
C498 C477 1.485 . S
C498 C499 1.394 . S
C498 C503 1.360 . S
C499 H458 0.931 . S
C499 C498 1.394 . S
C499 C500 1.372 . S
C500 H459 0.930 . S
C500 C499 1.372 . S
C500 C501 1.397 . S
C501 C500 1.397 . S
C501 C502 1.390 . S
C501 C517 1.476 . S
C502 H460 0.930 . S
C502 C501 1.390 . S
C502 C503 1.366 . S
C503 H461 0.932 . S
C503 C498 1.360 . S
C503 C502 1.366 . S
C504 C478 1.490 . S
C504 C505 1.380 . S
C504 C509 1.386 . S
C505 H462 0.930 . S
C505 C504 1.380 . S
C505 C506 1.381 . S
C506 H463 0.929 . S
C506 C505 1.381 . S
C506 C507 1.371 . S
C507 C506 1.371 . S
C507 C508 1.380 . S
C508 H464 0.931 . S
C508 C507 1.380 . S
C508 C509 1.387 . S
C509 H465 0.930 . S
C509 C504 1.386 . S
C509 C508 1.387 . S
C510 C479 1.519 . S
C510 C511 1.377 . S
C510 C515 1.361 . S
C511 H466 0.929 . S
C511 C510 1.377 . S
C511 C512 1.386 . S
C512 H467 0.931 . S
C512 C511 1.386 . S
C512 C513 1.363 . S
C513 C512 1.363 . S
C513 C514 1.385 . S
C514 H468 0.930 . S
C514 C513 1.385 . S
C514 C515 1.396 . S
C515 H469 0.929 . S
C515 C510 1.361 . S
C515 C514 1.396 . S
C516 O470 1.300 . S
C516 O471 1.209 . S
C516 C489 1.486 . S
C517 O472 1.199 . S
C517 O473 1.297 . S
C517 C501 1.476 . S
H518 O544 0.856 . S
H519 O547 0.854 . S
H520 C555 0.930 . S
H521 C556 0.930 . S
H522 C558 0.930 . S
H523 C559 0.930 . S
H524 C561 0.931 . S
H525 C562 0.930 . S
H526 C564 0.930 . S
H527 C565 0.929 . S
H528 C567 0.930 . S
H529 C568 0.931 . S
H530 C570 0.930 . S
H531 C571 0.929 . S
H532 C573 0.931 . S
H533 C574 0.930 . S
H534 C576 0.930 . S
H535 C577 0.932 . S
H536 C579 0.930 . S
H537 C580 0.929 . S
H538 C582 0.931 . S
H539 C583 0.930 . S
H540 C585 0.929 . S
H541 C586 0.931 . S
H542 C588 0.930 . S
H543 C589 0.929 . S
O544 H518 0.856 . S
O544 C590 1.300 . S
O545 C590 1.209 . S
O546 C591 1.199 . S
O547 H519 0.854 . S
O547 C591 1.297 . S
C548 C549 1.404 . S
C548 C553 1.397 . S
C548 C554 1.492 . S
C549 C548 1.404 . S
C549 C550 1.396 . S
C549 C560 1.492 . S
C550 C549 1.396 . S
C550 C551 1.397 . S
C550 C566 1.509 . S
C551 C550 1.397 . S
C551 C552 1.412 . S
C551 C572 1.485 . S
C552 C551 1.412 . S
C552 C553 1.388 . S
C552 C578 1.490 . S
C553 C548 1.397 . S
C553 C552 1.388 . S
C553 C584 1.519 . S
C554 C548 1.492 . S
C554 C555 1.363 . S
C554 C559 1.390 . S
C555 H520 0.930 . S
C555 C554 1.363 . S
C555 C556 1.372 . S
C556 H521 0.930 . S
C556 C555 1.372 . S
C556 C557 1.383 . S
C557 C556 1.383 . S
C557 C558 1.395 . S
C558 H522 0.930 . S
C558 C557 1.395 . S
C558 C559 1.362 . S
C559 H523 0.930 . S
C559 C554 1.390 . S
C559 C558 1.362 . S
C560 C549 1.492 . S
C560 C561 1.377 . S
C560 C565 1.397 . S
C561 H524 0.931 . S
C561 C560 1.377 . S
C561 C562 1.376 . S
C562 H525 0.930 . S
C562 C561 1.376 . S
C562 C563 1.376 . S
C563 C562 1.376 . S
C563 C564 1.378 . S
C563 C590 1.486 . S
C564 H526 0.930 . S
C564 C563 1.378 . S
C564 C565 1.376 . S
C565 H527 0.929 . S
C565 C560 1.397 . S
C565 C564 1.376 . S
C566 C550 1.509 . S
C566 C567 1.391 . S
C566 C571 1.386 . S
C567 H528 0.930 . S
C567 C566 1.391 . S
C567 C568 1.375 . S
C568 H529 0.931 . S
C568 C567 1.375 . S
C568 C569 1.375 . S
C569 C568 1.375 . S
C569 C570 1.361 . S
C570 H530 0.930 . S
C570 C569 1.361 . S
C570 C571 1.399 . S
C571 H531 0.929 . S
C571 C566 1.386 . S
C571 C570 1.399 . S
C572 C551 1.485 . S
C572 C573 1.394 . S
C572 C577 1.360 . S
C573 H532 0.931 . S
C573 C572 1.394 . S
C573 C574 1.372 . S
C574 H533 0.930 . S
C574 C573 1.372 . S
C574 C575 1.397 . S
C575 C574 1.397 . S
C575 C576 1.390 . S
C575 C591 1.476 . S
C576 H534 0.930 . S
C576 C575 1.390 . S
C576 C577 1.366 . S
C577 H535 0.932 . S
C577 C572 1.360 . S
C577 C576 1.366 . S
C578 C552 1.490 . S
C578 C579 1.380 . S
C578 C583 1.386 . S
C579 H536 0.930 . S
C579 C578 1.380 . S
C579 C580 1.381 . S
C580 H537 0.929 . S
C580 C579 1.381 . S
C580 C581 1.371 . S
C581 C580 1.371 . S
C581 C582 1.380 . S
C582 H538 0.931 . S
C582 C581 1.380 . S
C582 C583 1.387 . S
C583 H539 0.930 . S
C583 C578 1.386 . S
C583 C582 1.387 . S
C584 C553 1.519 . S
C584 C585 1.377 . S
C584 C589 1.361 . S
C585 H540 0.929 . S
C585 C584 1.377 . S
C585 C586 1.386 . S
C586 H541 0.931 . S
C586 C585 1.386 . S
C586 C587 1.363 . S
C587 C586 1.363 . S
C587 C588 1.385 . S
C588 H542 0.930 . S
C588 C587 1.385 . S
C588 C589 1.396 . S
C589 H543 0.929 . S
C589 C584 1.361 . S
C589 C588 1.396 . S
C590 O544 1.300 . S
C590 O545 1.209 . S
C590 C563 1.486 . S
C591 O546 1.199 . S
C591 O547 1.297 . S
C591 C575 1.476 . S
C592 C593 1.443 . S
C592 N596 1.376 . S
C592 C630 1.389 . S
C593 C592 1.443 . S
C593 C594 1.340 . S
C593 H633 0.951 . S
C594 C593 1.340 . S
C594 C595 1.439 . S
C594 H634 0.950 . S
C595 C594 1.439 . S
C595 N596 1.374 . S
C595 C629 1.395 1_455 S
N596 C592 1.376 . S
N596 C595 1.374 . S
N596 Co597 2.008 . S
Co597 N596 2.008 . S
Co597 N598 1.995 1_455 S
Co597 N603 2.008 1_455 S
Co597 N608 1.995 . S
Co597 N613 2.282 1_455 S
Co597 N619 2.282 . S
N598 Co597 1.995 1_655 S
N598 C599 1.376 . S
N598 C602 1.383 . S
C599 N598 1.376 . S
C599 C600 1.446 . S
C599 C629 1.391 . S
C600 C599 1.446 . S
C600 C601 1.339 . S
C600 H635 0.949 . S
C601 C600 1.339 . S
C601 C602 1.439 . S
C601 H636 0.950 . S
C602 N598 1.383 . S
C602 C601 1.439 . S
C602 C631 1.392 . S
N603 Co597 2.008 1_655 S
N603 C604 1.376 . S
N603 C607 1.374 . S
C604 N603 1.376 . S
C604 C605 1.443 . S
C604 C631 1.389 . S
C605 C604 1.443 . S
C605 C606 1.340 . S
C605 H637 0.951 . S
C606 C605 1.340 . S
C606 C607 1.439 . S
C606 H638 0.950 . S
C607 N603 1.374 . S
C607 C606 1.439 . S
C607 C632 1.395 1_655 S
N608 Co597 1.995 . S
N608 C609 1.376 . S
N608 C612 1.383 . S
C609 N608 1.376 . S
C609 C610 1.446 . S
C609 C632 1.391 . S
C610 C609 1.446 . S
C610 C611 1.339 . S
C610 H639 0.949 . S
C611 C610 1.339 . S
C611 C612 1.439 . S
C611 H640 0.950 . S
C612 N608 1.383 . S
C612 C611 1.439 . S
C612 C630 1.392 . S
N613 Co597 2.282 1_655 S
N613 C616 1.332 . S
N613 C618 1.332 . S
C614 C615 1.386 . S
C614 C617 1.388 . S
C615 C614 1.386 . S
C615 C616 1.382 . S
C615 H641 0.950 . S
C616 N613 1.332 . S
C616 C615 1.382 . S
C616 H627 0.952 . S
C617 C614 1.388 . S
C617 C618 1.382 . S
C617 H642 0.950 . S
C618 N613 1.332 . S
C618 C617 1.382 . S
C618 H628 0.948 . S
N619 Co597 2.282 . S
N619 C623 1.332 . S
N619 C624 1.332 . S
C620 C621 1.388 . S
C620 C624 1.382 . S
C620 H643 0.950 . S
C621 C620 1.388 . S
C621 C622 1.386 . S
C622 C621 1.386 . S
C622 C623 1.382 . S
C622 H644 0.950 . S
C623 N619 1.332 . S
C623 C622 1.382 . S
C623 H625 0.952 . S
C624 N619 1.332 . S
C624 C620 1.382 . S
C624 H626 0.948 . S
H625 C623 0.952 . S
H626 C624 0.948 . S
H627 C616 0.952 . S
H628 C618 0.948 . S
C629 C595 1.395 1_655 S
C629 C599 1.391 . S
C630 C592 1.389 . S
C630 C612 1.392 . S
C631 C602 1.392 . S
C631 C604 1.389 . S
C632 C607 1.395 1_455 S
C632 C609 1.391 . S
H633 C593 0.951 . S
H634 C594 0.950 . S
H635 C600 0.949 . S
H636 C601 0.950 . S
H637 C605 0.951 . S
H638 C606 0.950 . S
H639 C610 0.949 . S
H640 C611 0.950 . S
H641 C615 0.950 . S
H642 C617 0.950 . S
H643 C620 0.950 . S
H644 C622 0.950 . S
C645 C646 1.443 . S
C645 N649 1.376 . S
C645 C683 1.389 . S
C646 C645 1.443 . S
C646 C647 1.340 . S
C646 H686 0.951 . S
C647 C646 1.340 . S
C647 C648 1.439 . S
C647 H687 0.950 . S
C648 C647 1.439 . S
C648 N649 1.374 . S
C648 C682 1.395 . S
N649 C645 1.376 . S
N649 C648 1.374 . S
N649 Co650 2.008 . S
Co650 N649 2.008 . S
Co650 N651 1.995 1_545 S
Co650 N656 2.008 1_545 S
Co650 N661 1.995 . S
Co650 N666 2.282 1_545 S
Co650 N672 2.282 . S
N651 Co650 1.995 1_565 S
N651 C652 1.376 . S
N651 C655 1.383 . S
C652 N651 1.376 . S
C652 C653 1.446 . S
C652 C682 1.391 1_565 S
C653 C652 1.446 . S
C653 C654 1.339 . S
C653 H688 0.949 . S
C654 C653 1.339 . S
C654 C655 1.439 . S
C654 H689 0.950 . S
C655 N651 1.383 . S
C655 C654 1.439 . S
C655 C684 1.392 . S
N656 Co650 2.008 1_565 S
N656 C657 1.376 . S
N656 C660 1.374 . S
C657 N656 1.376 . S
C657 C658 1.443 . S
C657 C684 1.389 . S
C658 C657 1.443 . S
C658 C659 1.340 . S
C658 H690 0.951 . S
C659 C658 1.340 . S
C659 C660 1.439 . S
C659 H691 0.950 . S
C660 N656 1.374 . S
C660 C659 1.439 . S
C660 C685 1.395 1_565 S
N661 Co650 1.995 . S
N661 C662 1.376 . S
N661 C665 1.383 . S
C662 N661 1.376 . S
C662 C663 1.446 . S
C662 C685 1.391 . S
C663 C662 1.446 . S
C663 C664 1.339 . S
C663 H692 0.949 . S
C664 C663 1.339 . S
C664 C665 1.439 . S
C664 H693 0.950 . S
C665 N661 1.383 . S
C665 C664 1.439 . S
C665 C683 1.392 . S
N666 Co650 2.282 1_565 S
N666 C669 1.332 . S
N666 C671 1.332 . S
C667 C668 1.386 . S
C667 C670 1.388 . S
C668 C667 1.386 . S
C668 C669 1.382 . S
C668 H694 0.950 . S
C669 N666 1.332 . S
C669 C668 1.382 . S
C669 H680 0.952 . S
C670 C667 1.388 . S
C670 C671 1.382 . S
C670 H695 0.950 . S
C671 N666 1.332 . S
C671 C670 1.382 . S
C671 H681 0.948 . S
N672 Co650 2.282 . S
N672 C676 1.332 . S
N672 C677 1.332 . S
C673 C674 1.388 . S
C673 C677 1.382 . S
C673 H696 0.950 . S
C674 C673 1.388 . S
C674 C675 1.386 . S
C675 C674 1.386 . S
C675 C676 1.382 . S
C675 H697 0.950 . S
C676 N672 1.332 . S
C676 C675 1.382 . S
C676 H678 0.952 . S
C677 N672 1.332 . S
C677 C673 1.382 . S
C677 H679 0.948 . S
H678 C676 0.952 . S
H679 C677 0.948 . S
H680 C669 0.952 . S
H681 C671 0.948 . S
C682 C648 1.395 . S
C682 C652 1.391 1_545 S
C683 C645 1.389 . S
C683 C665 1.392 . S
C684 C655 1.392 . S
C684 C657 1.389 . S
C685 C660 1.395 1_545 S
C685 C662 1.391 . S
H686 C646 0.951 . S
H687 C647 0.950 . S
H688 C653 0.949 . S
H689 C654 0.950 . S
H690 C658 0.951 . S
H691 C659 0.950 . S
H692 C663 0.949 . S
H693 C664 0.950 . S
H694 C668 0.950 . S
H695 C670 0.950 . S
H696 C673 0.950 . S
H697 C675 0.950 . S
C698 C699 1.443 . S
C698 N702 1.376 . S
C698 C736 1.389 . S
C699 C698 1.443 . S
C699 C700 1.340 . S
C699 H739 0.951 . S
C700 C699 1.340 . S
C700 C701 1.439 . S
C700 H740 0.950 . S
C701 C700 1.439 . S
C701 N702 1.374 . S
C701 C735 1.395 . S
N702 C698 1.376 . S
N702 C701 1.374 . S
N702 Co703 2.008 . S
Co703 N702 2.008 . S
Co703 N704 1.995 . S
Co703 N709 2.008 . S
Co703 N714 1.995 . S
Co703 N719 2.282 . S
Co703 N725 2.282 . S
N704 Co703 1.995 . S
N704 C705 1.376 . S
N704 C708 1.383 1_455 S
C705 N704 1.376 . S
C705 C706 1.446 1_455 S
C705 C735 1.391 . S
C706 C705 1.446 1_655 S
C706 C707 1.339 . S
C706 H741 0.949 . S
C707 C706 1.339 . S
C707 C708 1.439 . S
C707 H742 0.950 . S
C708 N704 1.383 1_655 S
C708 C707 1.439 . S
C708 C737 1.392 . S
N709 Co703 2.008 . S
N709 C710 1.376 . S
N709 C713 1.374 . S
C710 N709 1.376 . S
C710 C711 1.443 1_455 S
C710 C737 1.389 1_455 S
C711 C710 1.443 1_655 S
C711 C712 1.340 1_655 S
C711 H743 0.951 . S
C712 C711 1.340 1_455 S
C712 C713 1.439 . S
C712 H744 0.950 . S
C713 N709 1.374 . S
C713 C712 1.439 . S
C713 C738 1.395 . S
N714 Co703 1.995 . S
N714 C715 1.376 . S
N714 C718 1.383 . S
C715 N714 1.376 . S
C715 C716 1.446 . S
C715 C738 1.391 . S
C716 C715 1.446 . S
C716 C717 1.339 . S
C716 H745 0.949 . S
C717 C716 1.339 . S
C717 C718 1.439 . S
C717 H746 0.950 . S
C718 N714 1.383 . S
C718 C717 1.439 . S
C718 C736 1.392 . S
N719 Co703 2.282 . S
N719 C722 1.332 . S
N719 C724 1.336 1_455 S
C720 C721 1.415 . S
C720 C723 1.388 . S
C721 C720 1.415 . S
C721 C722 1.353 1_655 S
C721 H747 0.950 . S
C722 N719 1.332 . S
C722 C721 1.353 1_455 S
C722 H733 0.952 . S
C723 C720 1.388 . S
C723 C724 1.378 . S
C723 H748 0.950 . S
C724 N719 1.336 1_655 S
C724 C723 1.378 . S
C724 H734 0.948 1_655 S
N725 Co703 2.282 . S
N725 C729 1.332 . S
N725 C730 1.332 . S
C726 C727 1.388 . S
C726 C730 1.382 . S
C726 H749 0.950 . S
C727 C726 1.388 . S
C727 C728 1.386 . S
C728 C727 1.386 . S
C728 C729 1.382 . S
C728 H750 0.950 . S
C729 N725 1.332 . S
C729 C728 1.382 . S
C729 H731 0.952 . S
C730 N725 1.332 . S
C730 C726 1.382 . S
C730 H732 0.948 . S
H731 C729 0.952 . S
H732 C730 0.948 . S
H733 C722 0.952 . S
H734 C724 0.948 1_455 S
C735 C701 1.395 . S
C735 C705 1.391 . S
C736 C698 1.389 . S
C736 C718 1.392 . S
C737 C708 1.392 . S
C737 C710 1.389 1_655 S
C738 C713 1.395 . S
C738 C715 1.391 . S
H739 C699 0.951 . S
H740 C700 0.950 . S
H741 C706 0.949 . S
H742 C707 0.950 . S
H743 C711 0.951 . S
H744 C712 0.950 . S
H745 C716 0.949 . S
H746 C717 0.950 . S
H747 C721 0.950 . S
H748 C723 0.950 . S
H749 C726 0.950 . S
H750 C728 0.950 . S
C751 C752 1.443 . S
C751 N755 1.376 . S
C751 C789 1.389 . S
C752 C751 1.443 . S
C752 C753 1.340 . S
C752 H792 0.951 . S
C753 C752 1.340 . S
C753 C754 1.439 . S
C753 H793 0.950 . S
C754 C753 1.439 . S
C754 N755 1.374 . S
C754 C788 1.395 . S
N755 C751 1.376 . S
N755 C754 1.374 . S
N755 Co756 2.008 . S
Co756 N755 2.008 . S
Co756 N757 1.995 . S
Co756 N762 2.008 . S
Co756 N767 1.995 . S
Co756 N772 2.282 . S
Co756 N778 2.282 . S
N757 Co756 1.995 . S
N757 C758 1.376 . S
N757 C761 1.383 . S
C758 N757 1.376 . S
C758 C759 1.446 . S
C758 C788 1.391 . S
C759 C758 1.446 . S
C759 C760 1.339 . S
C759 H794 0.949 . S
C760 C759 1.339 . S
C760 C761 1.439 . S
C760 H795 0.950 . S
C761 N757 1.383 . S
C761 C760 1.439 . S
C761 C790 1.392 . S
N762 Co756 2.008 . S
N762 C763 1.376 . S
N762 C766 1.374 . S
C763 N762 1.376 . S
C763 C764 1.443 . S
C763 C790 1.389 . S
C764 C763 1.443 . S
C764 C765 1.340 . S
C764 H796 0.951 . S
C765 C764 1.340 . S
C765 C766 1.439 . S
C765 H797 0.950 . S
C766 N762 1.374 . S
C766 C765 1.439 . S
C766 C791 1.395 . S
N767 Co756 1.995 . S
N767 C768 1.376 . S
N767 C771 1.383 . S
C768 N767 1.376 . S
C768 C769 1.446 . S
C768 C791 1.391 . S
C769 C768 1.446 . S
C769 C770 1.339 . S
C769 H798 0.949 . S
C770 C769 1.339 . S
C770 C771 1.439 . S
C770 H799 0.950 . S
C771 N767 1.383 . S
C771 C770 1.439 . S
C771 C789 1.392 . S
N772 Co756 2.282 . S
N772 C775 1.332 . S
N772 C777 1.332 . S
C773 C774 1.386 . S
C773 C776 1.388 . S
C774 C773 1.386 . S
C774 C775 1.382 . S
C774 H800 0.950 . S
C775 N772 1.332 . S
C775 C774 1.382 . S
C775 H786 0.952 . S
C776 C773 1.388 . S
C776 C777 1.382 . S
C776 H801 0.950 . S
C777 N772 1.332 . S
C777 C776 1.382 . S
C777 H787 0.948 . S
N778 Co756 2.282 . S
N778 C782 1.332 . S
N778 C783 1.332 . S
C779 C780 1.388 . S
C779 C783 1.382 . S
C779 H802 0.950 . S
C780 C779 1.388 . S
C780 C781 1.386 . S
C781 C780 1.386 . S
C781 C782 1.382 . S
C781 H803 0.950 . S
C782 N778 1.332 . S
C782 C781 1.382 . S
C782 H784 0.952 . S
C783 N778 1.332 . S
C783 C779 1.382 . S
C783 H785 0.948 . S
H784 C782 0.952 . S
H785 C783 0.948 . S
H786 C775 0.952 . S
H787 C777 0.948 . S
C788 C754 1.395 . S
C788 C758 1.391 . S
C789 C751 1.389 . S
C789 C771 1.392 . S
C790 C761 1.392 . S
C790 C763 1.389 . S
C791 C766 1.395 . S
C791 C768 1.391 . S
H792 C752 0.951 . S
H793 C753 0.950 . S
H794 C759 0.949 . S
H795 C760 0.950 . S
H796 C764 0.951 . S
H797 C765 0.950 . S
H798 C769 0.949 . S
H799 C770 0.950 . S
H800 C774 0.950 . S
H801 C776 0.950 . S
H802 C779 0.950 . S
H803 C781 0.950 . S
C804 C805 1.443 . S
C804 N808 1.376 . S
C804 C842 1.389 . S
C805 C804 1.443 . S
C805 C806 1.340 . S
C805 H845 0.951 . S
C806 C805 1.340 . S
C806 C807 1.439 . S
C806 H846 0.950 . S
C807 C806 1.439 . S
C807 N808 1.374 . S
C807 C841 1.395 . S
N808 C804 1.376 . S
N808 C807 1.374 . S
N808 Co809 2.008 . S
Co809 N808 2.008 . S
Co809 N810 1.995 1_554 S
Co809 N815 2.008 1_554 S
Co809 N820 1.995 . S
Co809 N825 2.282 . S
Co809 N831 2.282 1_554 S
N810 Co809 1.995 1_556 S
N810 C811 1.376 . S
N810 C814 1.383 . S
C811 N810 1.376 . S
C811 C812 1.446 . S
C811 C841 1.391 1_556 S
C812 C811 1.446 . S
C812 C813 1.339 . S
C812 H847 0.949 . S
C813 C812 1.339 . S
C813 C814 1.439 . S
C813 H848 0.950 . S
C814 N810 1.383 . S
C814 C813 1.439 . S
C814 C843 1.392 . S
N815 Co809 2.008 1_556 S
N815 C816 1.376 . S
N815 C819 1.374 . S
C816 N815 1.376 . S
C816 C817 1.443 . S
C816 C843 1.389 . S
C817 C816 1.443 . S
C817 C818 1.340 . S
C817 H849 0.951 . S
C818 C817 1.340 . S
C818 C819 1.439 . S
C818 H850 0.950 . S
C819 N815 1.374 . S
C819 C818 1.439 . S
C819 C844 1.395 1_556 S
N820 Co809 1.995 . S
N820 C821 1.376 . S
N820 C824 1.383 . S
C821 N820 1.376 . S
C821 C822 1.446 . S
C821 C844 1.391 . S
C822 C821 1.446 . S
C822 C823 1.339 . S
C822 H851 0.949 . S
C823 C822 1.339 . S
C823 C824 1.439 . S
C823 H852 0.950 . S
C824 N820 1.383 . S
C824 C823 1.439 . S
C824 C842 1.392 . S
N825 Co809 2.282 . S
N825 C828 1.332 . S
N825 C830 1.332 . S
C826 C827 1.386 . S
C826 C829 1.388 . S
C827 C826 1.386 . S
C827 C828 1.382 . S
C827 H853 0.950 . S
C828 N825 1.332 . S
C828 C827 1.382 . S
C828 H839 0.952 . S
C829 C826 1.388 . S
C829 C830 1.382 . S
C829 H854 0.950 . S
C830 N825 1.332 . S
C830 C829 1.382 . S
C830 H840 0.948 . S
N831 Co809 2.282 1_556 S
N831 C835 1.332 . S
N831 C836 1.332 . S
C832 C833 1.388 . S
C832 C836 1.382 . S
C832 H855 0.950 . S
C833 C832 1.388 . S
C833 C834 1.386 . S
C834 C833 1.386 . S
C834 C835 1.382 . S
C834 H856 0.950 . S
C835 N831 1.332 . S
C835 C834 1.382 . S
C835 H837 0.952 . S
C836 N831 1.332 . S
C836 C832 1.382 . S
C836 H838 0.948 . S
H837 C835 0.952 . S
H838 C836 0.948 . S
H839 C828 0.952 . S
H840 C830 0.948 . S
C841 C807 1.395 . S
C841 C811 1.391 1_554 S
C842 C804 1.389 . S
C842 C824 1.392 . S
C843 C814 1.392 . S
C843 C816 1.389 . S
C844 C819 1.395 1_554 S
C844 C821 1.391 . S
H845 C805 0.951 . S
H846 C806 0.950 . S
H847 C812 0.949 . S
H848 C813 0.950 . S
H849 C817 0.951 . S
H850 C818 0.950 . S
H851 C822 0.949 . S
H852 C823 0.950 . S
H853 C827 0.950 . S
H854 C829 0.950 . S
H855 C832 0.950 . S
H856 C834 0.950 . S
C857 C858 1.443 . S
C857 N861 1.376 . S
C857 C895 1.389 . S
C858 C857 1.443 . S
C858 C859 1.340 . S
C858 H898 0.951 . S
C859 C858 1.340 . S
C859 C860 1.439 . S
C859 H899 0.950 . S
C860 C859 1.439 . S
C860 N861 1.374 . S
C860 C894 1.395 1_554 S
N861 C857 1.376 . S
N861 C860 1.374 . S
N861 Co862 2.008 . S
Co862 N861 2.008 . S
Co862 N863 1.995 1_554 S
Co862 N868 2.008 1_554 S
Co862 N873 1.995 . S
Co862 N878 2.282 . S
Co862 N884 2.282 1_554 S
N863 Co862 1.995 1_556 S
N863 C864 1.376 . S
N863 C867 1.383 . S
C864 N863 1.376 . S
C864 C865 1.446 . S
C864 C894 1.391 . S
C865 C864 1.446 . S
C865 C866 1.339 . S
C865 H900 0.949 . S
C866 C865 1.339 . S
C866 C867 1.439 . S
C866 H901 0.950 . S
C867 N863 1.383 . S
C867 C866 1.439 . S
C867 C896 1.392 . S
N868 Co862 2.008 1_556 S
N868 C869 1.376 . S
N868 C872 1.374 1_556 S
C869 N868 1.376 . S
C869 C870 1.443 . S
C869 C896 1.389 . S
C870 C869 1.443 . S
C870 C871 1.340 . S
C870 H902 0.951 . S
C871 C870 1.340 . S
C871 C872 1.439 1_556 S
C871 H903 0.950 . S
C872 N868 1.374 1_554 S
C872 C871 1.439 1_554 S
C872 C897 1.395 . S
N873 Co862 1.995 . S
N873 C874 1.376 . S
N873 C877 1.383 . S
C874 N873 1.376 . S
C874 C875 1.446 . S
C874 C897 1.391 . S
C875 C874 1.446 . S
C875 C876 1.339 . S
C875 H904 0.949 . S
C876 C875 1.339 . S
C876 C877 1.439 . S
C876 H905 0.950 . S
C877 N873 1.383 . S
C877 C876 1.439 . S
C877 C895 1.392 . S
N878 Co862 2.282 . S
N878 C881 1.332 . S
N878 C883 1.332 . S
C879 C880 1.386 . S
C879 C882 1.388 . S
C880 C879 1.386 . S
C880 C881 1.382 . S
C880 H906 0.950 . S
C881 N878 1.332 . S
C881 C880 1.382 . S
C881 H892 0.952 . S
C882 C879 1.388 . S
C882 C883 1.382 . S
C882 H907 0.950 . S
C883 N878 1.332 . S
C883 C882 1.382 . S
C883 H893 0.948 . S
N884 Co862 2.282 1_556 S
N884 C888 1.332 . S
N884 C889 1.332 . S
C885 C886 1.388 . S
C885 C889 1.382 . S
C885 H908 0.950 . S
C886 C885 1.388 . S
C886 C887 1.386 . S
C887 C886 1.386 . S
C887 C888 1.382 . S
C887 H909 0.950 . S
C888 N884 1.332 . S
C888 C887 1.382 . S
C888 H890 0.952 . S
C889 N884 1.332 . S
C889 C885 1.382 . S
C889 H891 0.948 . S
H890 C888 0.952 . S
H891 C889 0.948 . S
H892 C881 0.952 . S
H893 C883 0.948 . S
C894 C860 1.395 1_556 S
C894 C864 1.391 . S
C895 C857 1.389 . S
C895 C877 1.392 . S
C896 C867 1.392 . S
C896 C869 1.389 . S
C897 C872 1.395 . S
C897 C874 1.391 . S
H898 C858 0.951 . S
H899 C859 0.950 . S
H900 C865 0.949 . S
H901 C866 0.950 . S
H902 C870 0.951 . S
H903 C871 0.950 . S
H904 C875 0.949 . S
H905 C876 0.950 . S
H906 C880 0.950 . S
H907 C882 0.950 . S
H908 C885 0.950 . S
H909 C887 0.950 . S
C910 C911 1.443 . S
C910 N914 1.376 . S
C910 C948 1.389 1_554 S
C911 C910 1.443 . S
C911 C912 1.340 . S
C911 H951 0.951 1_554 S
C912 C911 1.340 . S
C912 C913 1.439 . S
C912 H952 0.950 . S
C913 C912 1.439 . S
C913 N914 1.374 . S
C913 C947 1.395 . S
N914 C910 1.376 . S
N914 C913 1.374 . S
N914 Co915 2.008 . S
Co915 N914 2.008 . S
Co915 N916 1.995 . S
Co915 N921 2.008 . S
Co915 N926 1.995 . S
Co915 N931 2.282 . S
Co915 N937 2.282 . S
N916 Co915 1.995 . S
N916 C917 1.376 . S
N916 C920 1.383 . S
C917 N916 1.376 . S
C917 C918 1.446 . S
C917 C947 1.391 . S
C918 C917 1.446 . S
C918 C919 1.339 . S
C918 H953 0.949 . S
C919 C918 1.339 . S
C919 C920 1.439 . S
C919 H954 0.950 . S
C920 N916 1.383 . S
C920 C919 1.439 . S
C920 C949 1.392 . S
N921 Co915 2.008 . S
N921 C922 1.376 . S
N921 C925 1.374 . S
C922 N921 1.376 . S
C922 C923 1.443 . S
C922 C949 1.389 . S
C923 C922 1.443 . S
C923 C924 1.340 . S
C923 H955 0.951 . S
C924 C923 1.340 . S
C924 C925 1.439 . S
C924 H956 0.950 . S
C925 N921 1.374 . S
C925 C924 1.439 . S
C925 C950 1.395 . S
N926 Co915 1.995 . S
N926 C927 1.376 . S
N926 C930 1.383 . S
C927 N926 1.376 . S
C927 C928 1.446 1_554 S
C927 C950 1.391 . S
C928 C927 1.446 1_556 S
C928 C929 1.339 . S
C928 H957 0.949 . S
C929 C928 1.339 . S
C929 C930 1.439 1_556 S
C929 H958 0.950 . S
C930 N926 1.383 . S
C930 C929 1.439 1_554 S
C930 C948 1.392 1_554 S
N931 Co915 2.282 . S
N931 C934 1.332 . S
N931 C936 1.332 . S
C932 C933 1.386 . S
C932 C935 1.388 1_556 S
C933 C932 1.386 . S
C933 C934 1.382 1_556 S
C933 H959 0.950 . S
C934 N931 1.332 . S
C934 C933 1.382 1_554 S
C934 H945 0.952 . S
C935 C932 1.388 1_554 S
C935 C936 1.382 . S
C935 H960 0.950 . S
C936 N931 1.332 . S
C936 C935 1.382 . S
C936 H946 0.948 . S
N937 Co915 2.282 . S
N937 C941 1.332 . S
N937 C942 1.332 . S
C938 C939 1.388 . S
C938 C942 1.382 . S
C938 H961 0.950 . S
C939 C938 1.388 . S
C939 C940 1.386 . S
C940 C939 1.386 . S
C940 C941 1.382 . S
C940 H962 0.950 . S
C941 N937 1.332 . S
C941 C940 1.382 . S
C941 H943 0.952 . S
C942 N937 1.332 . S
C942 C938 1.382 . S
C942 H944 0.948 . S
H943 C941 0.952 . S
H944 C942 0.948 . S
H945 C934 0.952 . S
H946 C936 0.948 . S
C947 C913 1.395 . S
C947 C917 1.391 . S
C948 C910 1.389 1_556 S
C948 C930 1.392 1_556 S
C949 C920 1.392 . S
C949 C922 1.389 . S
C950 C925 1.395 . S
C950 C927 1.391 . S
H951 C911 0.951 1_556 S
H952 C912 0.950 . S
H953 C918 0.949 . S
H954 C919 0.950 . S
H955 C923 0.951 . S
H956 C924 0.950 . S
H957 C928 0.949 . S
H958 C929 0.950 . S
H959 C933 0.950 . S
H960 C935 0.950 . S
H961 C938 0.950 . S
H962 C940 0.950 . S
C963 C964 1.443 . S
C963 N967 1.376 . S
C963 C1001 1.389 . S
C964 C963 1.443 . S
C964 C965 1.340 . S
C964 H1004 0.951 . S
C965 C964 1.340 . S
C965 C966 1.439 . S
C965 H1005 0.950 . S
C966 C965 1.439 . S
C966 N967 1.374 . S
C966 C1000 1.395 . S
N967 C963 1.376 . S
N967 C966 1.374 . S
N967 Co968 2.008 . S
Co968 N967 2.008 . S
Co968 N969 1.995 . S
Co968 N974 2.008 . S
Co968 N979 1.995 . S
Co968 N984 2.282 . S
Co968 N990 2.282 . S
N969 Co968 1.995 . S
N969 C970 1.376 . S
N969 C973 1.383 . S
C970 N969 1.376 . S
C970 C971 1.446 . S
C970 C1000 1.391 . S
C971 C970 1.446 . S
C971 C972 1.339 . S
C971 H1006 0.949 . S
C972 C971 1.339 . S
C972 C973 1.439 . S
C972 H1007 0.950 . S
C973 N969 1.383 . S
C973 C972 1.439 . S
C973 C1002 1.392 . S
N974 Co968 2.008 . S
N974 C975 1.376 . S
N974 C978 1.374 . S
C975 N974 1.376 . S
C975 C976 1.443 . S
C975 C1002 1.389 . S
C976 C975 1.443 . S
C976 C977 1.340 . S
C976 H1008 0.951 . S
C977 C976 1.340 . S
C977 C978 1.439 . S
C977 H1009 0.950 . S
C978 N974 1.374 . S
C978 C977 1.439 . S
C978 C1003 1.395 . S
N979 Co968 1.995 . S
N979 C980 1.376 . S
N979 C983 1.383 . S
C980 N979 1.376 . S
C980 C981 1.446 . S
C980 C1003 1.391 . S
C981 C980 1.446 . S
C981 C982 1.339 . S
C981 H1010 0.949 . S
C982 C981 1.339 . S
C982 C983 1.439 . S
C982 H1011 0.950 . S
C983 N979 1.383 . S
C983 C982 1.439 . S
C983 C1001 1.392 . S
N984 Co968 2.282 . S
N984 C987 1.332 . S
N984 C989 1.332 . S
C985 C986 1.386 . S
C985 C988 1.388 . S
C986 C985 1.386 . S
C986 C987 1.382 . S
C986 H1012 0.950 . S
C987 N984 1.332 . S
C987 C986 1.382 . S
C987 H998 0.952 . S
C988 C985 1.388 . S
C988 C989 1.382 . S
C988 H1013 0.950 . S
C989 N984 1.332 . S
C989 C988 1.382 . S
C989 H999 0.948 . S
N990 Co968 2.282 . S
N990 C994 1.332 . S
N990 C995 1.332 . S
C991 C992 1.388 . S
C991 C995 1.382 . S
C991 H1014 0.950 . S
C992 C991 1.388 . S
C992 C993 1.386 . S
C993 C992 1.386 . S
C993 C994 1.382 . S
C993 H1015 0.950 . S
C994 N990 1.332 . S
C994 C993 1.382 . S
C994 H996 0.952 . S
C995 N990 1.332 . S
C995 C991 1.382 . S
C995 H997 0.948 . S
H996 C994 0.952 . S
H997 C995 0.948 . S
H998 C987 0.952 . S
H999 C989 0.948 . S
C1000 C966 1.395 . S
C1000 C970 1.391 . S
C1001 C963 1.389 . S
C1001 C983 1.392 . S
C1002 C973 1.392 . S
C1002 C975 1.389 . S
C1003 C978 1.395 . S
C1003 C980 1.391 . S
H1004 C964 0.951 . S
H1005 C965 0.950 . S
H1006 C971 0.949 . S
H1007 C972 0.950 . S
H1008 C976 0.951 . S
H1009 C977 0.950 . S
H1010 C981 0.949 . S
H1011 C982 0.950 . S
H1012 C986 0.950 . S
H1013 C988 0.950 . S
H1014 C991 0.950 . S
H1015 C993 0.950 . S
C1016 C1017 1.349 . S
C1016 C1018 1.327 . S
C1016 H1041 0.950 . S
C1017 C1016 1.349 . S
C1017 C1033 1.349 . S
C1018 C1016 1.327 . S
C1018 C1037 1.429 . S
C1018 H1042 0.950 . S
C1019 C1036 1.574 . S
C1019 C1038 1.368 . S
C1019 H1043 0.949 . S
H1020 C1024 0.949 . S
C1021 C1022 1.349 . S
C1021 C1023 1.327 . S
C1021 H1044 0.950 . S
C1022 C1021 1.349 . S
C1022 C1034 1.349 . S
C1023 C1021 1.327 . S
C1023 C1039 1.429 . S
C1023 H1045 0.950 . S
C1024 H1020 0.949 . S
C1024 C1032 1.574 . S
C1024 C1040 1.368 . S
H1025 C1033 0.950 . S
H1026 C1031 0.950 . S
H1027 C1032 0.949 . S
H1028 C1034 0.950 . S
H1029 C1035 0.950 . S
H1030 C1036 0.949 . S
C1031 H1026 0.950 . S
C1031 C1033 1.327 . S
C1031 C1037 1.429 . S
C1032 C1024 1.574 . S
C1032 H1027 0.949 . S
C1032 C1038 1.368 . S
C1033 C1017 1.349 . S
C1033 H1025 0.950 . S
C1033 C1031 1.327 . S
C1034 C1022 1.349 . S
C1034 H1028 0.950 . S
C1034 C1035 1.327 . S
C1035 H1029 0.950 . S
C1035 C1034 1.327 . S
C1035 C1039 1.429 . S
C1036 C1019 1.574 . S
C1036 H1030 0.949 . S
C1036 C1040 1.368 . S
C1037 C1018 1.429 . S
C1037 C1031 1.429 . S
C1037 C1038 1.523 . S
C1038 C1019 1.368 . S
C1038 C1032 1.368 . S
C1038 C1037 1.523 . S
C1039 C1023 1.429 . S
C1039 C1035 1.429 . S
C1039 C1040 1.523 . S
C1040 C1024 1.368 . S
C1040 C1036 1.368 . S
C1040 C1039 1.523 . S
H1041 C1016 0.950 . S
H1042 C1018 0.950 . S
H1043 C1019 0.949 . S
H1044 C1021 0.950 . S
H1045 C1023 0.950 . S
C1046 C1047 1.349 . S
C1046 C1048 1.327 . S
C1046 H1071 0.950 . S
C1047 C1046 1.349 . S
C1047 C1063 1.349 . S
C1048 C1046 1.327 . S
C1048 C1067 1.429 . S
C1048 H1072 0.950 . S
C1049 C1066 1.574 . S
C1049 C1068 1.368 . S
C1049 H1073 0.949 . S
H1050 C1054 0.949 . S
C1051 C1052 1.349 . S
C1051 C1053 1.327 . S
C1051 H1074 0.950 . S
C1052 C1051 1.349 . S
C1052 C1064 1.349 . S
C1053 C1051 1.327 . S
C1053 C1069 1.429 . S
C1053 H1075 0.950 . S
C1054 H1050 0.949 . S
C1054 C1062 1.574 . S
C1054 C1070 1.368 . S
H1055 C1063 0.950 . S
H1056 C1061 0.950 . S
H1057 C1062 0.949 . S
H1058 C1064 0.950 . S
H1059 C1065 0.950 . S
H1060 C1066 0.949 . S
C1061 H1056 0.950 . S
C1061 C1063 1.327 . S
C1061 C1067 1.429 . S
C1062 C1054 1.574 . S
C1062 H1057 0.949 . S
C1062 C1068 1.368 . S
C1063 C1047 1.349 . S
C1063 H1055 0.950 . S
C1063 C1061 1.327 . S
C1064 C1052 1.349 . S
C1064 H1058 0.950 . S
C1064 C1065 1.327 . S
C1065 H1059 0.950 . S
C1065 C1064 1.327 . S
C1065 C1069 1.429 . S
C1066 C1049 1.574 . S
C1066 H1060 0.949 . S
C1066 C1070 1.368 . S
C1067 C1048 1.429 . S
C1067 C1061 1.429 . S
C1067 C1068 1.523 . S
C1068 C1049 1.368 . S
C1068 C1062 1.368 . S
C1068 C1067 1.523 . S
C1069 C1053 1.429 . S
C1069 C1065 1.429 . S
C1069 C1070 1.523 . S
C1070 C1054 1.368 . S
C1070 C1066 1.368 . S
C1070 C1069 1.523 . S
H1071 C1046 0.950 . S
H1072 C1048 0.950 . S
H1073 C1049 0.949 . S
H1074 C1051 0.950 . S
H1075 C1053 0.950 . S
C1076 C1077 1.349 . S
C1076 C1078 1.327 . S
C1076 H1101 0.950 . S
C1077 C1076 1.349 . S
C1077 C1093 1.349 . S
C1078 C1076 1.327 . S
C1078 C1097 1.429 . S
C1078 H1102 0.950 . S
C1079 C1096 1.574 . S
C1079 C1098 1.368 . S
C1079 H1103 0.949 . S
H1080 C1084 0.949 . S
C1081 C1082 1.349 . S
C1081 C1083 1.327 . S
C1081 H1104 0.950 . S
C1082 C1081 1.349 . S
C1082 C1094 1.349 . S
C1083 C1081 1.327 . S
C1083 C1099 1.429 . S
C1083 H1105 0.950 . S
C1084 H1080 0.949 . S
C1084 C1092 1.574 . S
C1084 C1100 1.368 . S
H1085 C1093 0.950 . S
H1086 C1091 0.950 . S
H1087 C1092 0.949 . S
H1088 C1094 0.950 . S
H1089 C1095 0.950 . S
H1090 C1096 0.949 . S
C1091 H1086 0.950 . S
C1091 C1093 1.327 . S
C1091 C1097 1.429 . S
C1092 C1084 1.574 . S
C1092 H1087 0.949 . S
C1092 C1098 1.368 . S
C1093 C1077 1.349 . S
C1093 H1085 0.950 . S
C1093 C1091 1.327 . S
C1094 C1082 1.349 . S
C1094 H1088 0.950 . S
C1094 C1095 1.327 . S
C1095 H1089 0.950 . S
C1095 C1094 1.327 . S
C1095 C1099 1.429 . S
C1096 C1079 1.574 . S
C1096 H1090 0.949 . S
C1096 C1100 1.368 . S
C1097 C1078 1.429 . S
C1097 C1091 1.429 . S
C1097 C1098 1.523 . S
C1098 C1079 1.368 . S
C1098 C1092 1.368 . S
C1098 C1097 1.523 . S
C1099 C1083 1.429 . S
C1099 C1095 1.429 . S
C1099 C1100 1.523 . S
C1100 C1084 1.368 . S
C1100 C1096 1.368 . S
C1100 C1099 1.523 . S
H1101 C1076 0.950 . S
H1102 C1078 0.950 . S
H1103 C1079 0.949 . S
H1104 C1081 0.950 . S
H1105 C1083 0.950 . S
C1106 C1107 1.349 . S
C1106 C1108 1.327 . S
C1106 H1131 0.950 . S
C1107 C1106 1.349 . S
C1107 C1123 1.349 . S
C1108 C1106 1.327 . S
C1108 C1127 1.429 . S
C1108 H1132 0.950 . S
C1109 C1126 1.574 . S
C1109 C1128 1.368 1_545 S
C1109 H1133 0.949 . S
H1110 C1114 0.949 . S
C1111 C1112 1.349 . S
C1111 C1113 1.327 . S
C1111 H1134 0.950 . S
C1112 C1111 1.349 . S
C1112 C1124 1.349 . S
C1113 C1111 1.327 . S
C1113 C1129 1.429 . S
C1113 H1135 0.950 . S
C1114 H1110 0.949 . S
C1114 C1122 1.574 1_545 S
C1114 C1130 1.368 . S
H1115 C1123 0.950 . S
H1116 C1121 0.950 . S
H1117 C1122 0.949 . S
H1118 C1124 0.950 . S
H1119 C1125 0.950 . S
H1120 C1126 0.949 . S
C1121 H1116 0.950 . S
C1121 C1123 1.327 . S
C1121 C1127 1.429 . S
C1122 C1114 1.574 1_565 S
C1122 H1117 0.949 . S
C1122 C1128 1.368 . S
C1123 C1107 1.349 . S
C1123 H1115 0.950 . S
C1123 C1121 1.327 . S
C1124 C1112 1.349 . S
C1124 H1118 0.950 . S
C1124 C1125 1.327 . S
C1125 H1119 0.950 . S
C1125 C1124 1.327 . S
C1125 C1129 1.429 . S
C1126 C1109 1.574 . S
C1126 H1120 0.949 . S
C1126 C1130 1.368 . S
C1127 C1108 1.429 . S
C1127 C1121 1.429 . S
C1127 C1128 1.523 . S
C1128 C1109 1.368 1_565 S
C1128 C1122 1.368 . S
C1128 C1127 1.523 . S
C1129 C1113 1.429 . S
C1129 C1125 1.429 . S
C1129 C1130 1.523 . S
C1130 C1114 1.368 . S
C1130 C1126 1.368 . S
C1130 C1129 1.523 . S
H1131 C1106 0.950 . S
H1132 C1108 0.950 . S
H1133 C1109 0.949 . S
H1134 C1111 0.950 . S
H1135 C1113 0.950 . S
C1136 C1137 1.349 . S
C1136 C1138 1.327 . S
C1136 H1161 0.950 . S
C1137 C1136 1.349 . S
C1137 C1153 1.349 . S
C1138 C1136 1.327 . S
C1138 C1157 1.429 . S
C1138 H1162 0.950 . S
C1139 C1156 1.574 . S
C1139 C1158 1.368 . S
C1139 H1163 0.949 . S
H1140 C1144 0.949 . S
C1141 C1142 1.349 . S
C1141 C1143 1.327 . S
C1141 H1164 0.950 . S
C1142 C1141 1.349 . S
C1142 C1154 1.349 . S
C1143 C1141 1.327 . S
C1143 C1159 1.429 . S
C1143 H1165 0.950 . S
C1144 H1140 0.949 . S
C1144 C1152 1.574 . S
C1144 C1160 1.368 . S
H1145 C1153 0.950 . S
H1146 C1151 0.950 . S
H1147 C1152 0.949 . S
H1148 C1154 0.950 . S
H1149 C1155 0.950 . S
H1150 C1156 0.949 . S
C1151 H1146 0.950 . S
C1151 C1153 1.327 . S
C1151 C1157 1.429 . S
C1152 C1144 1.574 . S
C1152 H1147 0.949 . S
C1152 C1158 1.368 . S
C1153 C1137 1.349 . S
C1153 H1145 0.950 . S
C1153 C1151 1.327 . S
C1154 C1142 1.349 . S
C1154 H1148 0.950 . S
C1154 C1155 1.327 . S
C1155 H1149 0.950 . S
C1155 C1154 1.327 . S
C1155 C1159 1.429 . S
C1156 C1139 1.574 . S
C1156 H1150 0.949 . S
C1156 C1160 1.368 . S
C1157 C1138 1.429 . S
C1157 C1151 1.429 . S
C1157 C1158 1.523 . S
C1158 C1139 1.368 . S
C1158 C1152 1.368 . S
C1158 C1157 1.523 . S
C1159 C1143 1.429 . S
C1159 C1155 1.429 . S
C1159 C1160 1.523 . S
C1160 C1144 1.368 . S
C1160 C1156 1.368 . S
C1160 C1159 1.523 . S
H1161 C1136 0.950 . S
H1162 C1138 0.950 . S
H1163 C1139 0.949 . S
H1164 C1141 0.950 . S
H1165 C1143 0.950 . S
C1166 C1167 1.349 . S
C1166 C1168 1.327 . S
C1166 H1191 0.950 . S
C1167 C1166 1.349 . S
C1167 C1183 1.349 . S
C1168 C1166 1.327 . S
C1168 C1187 1.429 . S
C1168 H1192 0.950 . S
C1169 C1186 1.574 . S
C1169 C1188 1.368 . S
C1169 H1193 0.949 . S
H1170 C1174 0.949 . S
C1171 C1172 1.349 . S
C1171 C1173 1.327 . S
C1171 H1194 0.950 . S
C1172 C1171 1.349 . S
C1172 C1184 1.349 . S
C1173 C1171 1.327 . S
C1173 C1189 1.429 . S
C1173 H1195 0.950 . S
C1174 H1170 0.949 . S
C1174 C1182 1.574 . S
C1174 C1190 1.368 . S
H1175 C1183 0.950 . S
H1176 C1181 0.950 . S
H1177 C1182 0.949 . S
H1178 C1184 0.950 . S
H1179 C1185 0.950 . S
H1180 C1186 0.949 . S
C1181 H1176 0.950 . S
C1181 C1183 1.327 . S
C1181 C1187 1.429 . S
C1182 C1174 1.574 . S
C1182 H1177 0.949 . S
C1182 C1188 1.368 . S
C1183 C1167 1.349 . S
C1183 H1175 0.950 . S
C1183 C1181 1.327 . S
C1184 C1172 1.349 . S
C1184 H1178 0.950 . S
C1184 C1185 1.327 . S
C1185 H1179 0.950 . S
C1185 C1184 1.327 . S
C1185 C1189 1.429 . S
C1186 C1169 1.574 . S
C1186 H1180 0.949 . S
C1186 C1190 1.368 . S
C1187 C1168 1.429 . S
C1187 C1181 1.429 . S
C1187 C1188 1.523 . S
C1188 C1169 1.368 . S
C1188 C1182 1.368 . S
C1188 C1187 1.523 . S
C1189 C1173 1.429 . S
C1189 C1185 1.429 . S
C1189 C1190 1.523 . S
C1190 C1174 1.368 . S
C1190 C1186 1.368 . S
C1190 C1189 1.523 . S
H1191 C1166 0.950 . S
H1192 C1168 0.950 . S
H1193 C1169 0.949 . S
H1194 C1171 0.950 . S
H1195 C1173 0.950 . S
C1196 C1197 1.349 . S
C1196 C1198 1.327 . S
C1196 H1221 0.950 . S
C1197 C1196 1.349 . S
C1197 C1213 1.349 . S
C1198 C1196 1.327 . S
C1198 C1217 1.429 . S
C1198 H1222 0.950 . S
C1199 C1216 1.574 . S
C1199 C1218 1.368 . S
C1199 H1223 0.949 . S
H1200 C1204 0.949 . S
C1201 C1202 1.349 . S
C1201 C1203 1.327 . S
C1201 H1224 0.950 . S
C1202 C1201 1.349 . S
C1202 C1214 1.349 . S
C1203 C1201 1.327 . S
C1203 C1219 1.429 . S
C1203 H1225 0.950 . S
C1204 H1200 0.949 . S
C1204 C1212 1.574 . S
C1204 C1220 1.368 . S
H1205 C1213 0.950 . S
H1206 C1211 0.950 . S
H1207 C1212 0.949 . S
H1208 C1214 0.950 . S
H1209 C1215 0.950 . S
H1210 C1216 0.949 . S
C1211 H1206 0.950 . S
C1211 C1213 1.327 . S
C1211 C1217 1.429 . S
C1212 C1204 1.574 . S
C1212 H1207 0.949 . S
C1212 C1218 1.368 . S
C1213 C1197 1.349 . S
C1213 H1205 0.950 . S
C1213 C1211 1.327 . S
C1214 C1202 1.349 . S
C1214 H1208 0.950 . S
C1214 C1215 1.327 . S
C1215 H1209 0.950 . S
C1215 C1214 1.327 . S
C1215 C1219 1.429 . S
C1216 C1199 1.574 . S
C1216 H1210 0.949 . S
C1216 C1220 1.368 . S
C1217 C1198 1.429 . S
C1217 C1211 1.429 . S
C1217 C1218 1.523 . S
C1218 C1199 1.368 . S
C1218 C1212 1.368 . S
C1218 C1217 1.523 . S
C1219 C1203 1.429 . S
C1219 C1215 1.429 . S
C1219 C1220 1.523 . S
C1220 C1204 1.368 . S
C1220 C1216 1.368 . S
C1220 C1219 1.523 . S
H1221 C1196 0.950 . S
H1222 C1198 0.950 . S
H1223 C1199 0.949 . S
H1224 C1201 0.950 . S
H1225 C1203 0.950 . S
C1226 C1227 1.349 . S
C1226 C1228 1.327 . S
C1226 H1251 0.950 . S
C1227 C1226 1.349 . S
C1227 C1243 1.349 . S
C1228 C1226 1.327 . S
C1228 C1247 1.429 . S
C1228 H1252 0.950 . S
C1229 C1246 1.574 . S
C1229 C1248 1.368 . S
C1229 H1253 0.949 . S
H1230 C1234 0.949 . S
C1231 C1232 1.349 . S
C1231 C1233 1.327 . S
C1231 H1254 0.950 . S
C1232 C1231 1.349 . S
C1232 C1244 1.349 . S
C1233 C1231 1.327 . S
C1233 C1249 1.429 . S
C1233 H1255 0.950 . S
C1234 H1230 0.949 . S
C1234 C1242 1.574 . S
C1234 C1250 1.368 . S
H1235 C1243 0.950 . S
H1236 C1241 0.950 . S
H1237 C1242 0.949 . S
H1238 C1244 0.950 . S
H1239 C1245 0.950 . S
H1240 C1246 0.949 . S
C1241 H1236 0.950 . S
C1241 C1243 1.327 . S
C1241 C1247 1.429 . S
C1242 C1234 1.574 . S
C1242 H1237 0.949 . S
C1242 C1248 1.368 . S
C1243 C1227 1.349 . S
C1243 H1235 0.950 . S
C1243 C1241 1.327 . S
C1244 C1232 1.349 . S
C1244 H1238 0.950 . S
C1244 C1245 1.327 . S
C1245 H1239 0.950 . S
C1245 C1244 1.327 . S
C1245 C1249 1.429 . S
C1246 C1229 1.574 . S
C1246 H1240 0.949 . S
C1246 C1250 1.368 . S
C1247 C1228 1.429 . S
C1247 C1241 1.429 . S
C1247 C1248 1.523 . S
C1248 C1229 1.368 . S
C1248 C1242 1.368 . S
C1248 C1247 1.523 . S
C1249 C1233 1.429 . S
C1249 C1245 1.429 . S
C1249 C1250 1.523 . S
C1250 C1234 1.368 . S
C1250 C1246 1.368 . S
C1250 C1249 1.523 . S
H1251 C1226 0.950 . S
H1252 C1228 0.950 . S
H1253 C1229 0.949 . S
H1254 C1231 0.950 . S
H1255 C1233 0.950 . S
C1256 C1257 1.349 . S
C1256 C1258 1.327 . S
C1256 H1281 0.950 . S
C1257 C1256 1.349 . S
C1257 C1273 1.349 . S
C1258 C1256 1.327 . S
C1258 C1277 1.429 . S
C1258 H1282 0.950 . S
C1259 C1276 1.574 . S
C1259 C1278 1.368 . S
C1259 H1283 0.949 . S
H1260 C1264 0.949 . S
C1261 C1262 1.349 . S
C1261 C1263 1.327 . S
C1261 H1284 0.950 . S
C1262 C1261 1.349 . S
C1262 C1274 1.349 . S
C1263 C1261 1.327 . S
C1263 C1279 1.429 . S
C1263 H1285 0.950 . S
C1264 H1260 0.949 . S
C1264 C1272 1.574 . S
C1264 C1280 1.368 . S
H1265 C1273 0.950 . S
H1266 C1271 0.950 . S
H1267 C1272 0.949 . S
H1268 C1274 0.950 . S
H1269 C1275 0.950 . S
H1270 C1276 0.949 . S
C1271 H1266 0.950 . S
C1271 C1273 1.327 . S
C1271 C1277 1.429 . S
C1272 C1264 1.574 . S
C1272 H1267 0.949 . S
C1272 C1278 1.368 . S
C1273 C1257 1.349 . S
C1273 H1265 0.950 . S
C1273 C1271 1.327 . S
C1274 C1262 1.349 . S
C1274 H1268 0.950 . S
C1274 C1275 1.327 . S
C1275 H1269 0.950 . S
C1275 C1274 1.327 . S
C1275 C1279 1.429 . S
C1276 C1259 1.574 . S
C1276 H1270 0.949 . S
C1276 C1280 1.368 . S
C1277 C1258 1.429 . S
C1277 C1271 1.429 . S
C1277 C1278 1.523 . S
C1278 C1259 1.368 . S
C1278 C1272 1.368 . S
C1278 C1277 1.523 . S
C1279 C1263 1.429 . S
C1279 C1275 1.429 . S
C1279 C1280 1.523 . S
C1280 C1264 1.368 . S
C1280 C1276 1.368 . S
C1280 C1279 1.523 . S
H1281 C1256 0.950 . S
H1282 C1258 0.950 . S
H1283 C1259 0.949 . S
H1284 C1261 0.950 . S
H1285 C1263 0.950 . S
C1286 C1287 1.349 . S
C1286 C1288 1.327 . S
C1286 H1311 0.950 . S
C1287 C1286 1.349 . S
C1287 C1303 1.349 . S
C1288 C1286 1.327 . S
C1288 C1307 1.429 . S
C1288 H1312 0.950 . S
C1289 C1306 1.574 . S
C1289 C1308 1.368 . S
C1289 H1313 0.949 . S
H1290 C1294 0.949 . S
C1291 C1292 1.349 . S
C1291 C1293 1.327 . S
C1291 H1314 0.950 . S
C1292 C1291 1.349 . S
C1292 C1304 1.349 . S
C1293 C1291 1.327 . S
C1293 C1309 1.429 . S
C1293 H1315 0.950 . S
C1294 H1290 0.949 . S
C1294 C1302 1.574 . S
C1294 C1310 1.368 . S
H1295 C1303 0.950 . S
H1296 C1301 0.950 1_545 S
H1297 C1302 0.949 . S
H1298 C1304 0.950 . S
H1299 C1305 0.950 . S
H1300 C1306 0.949 . S
C1301 H1296 0.950 1_565 S
C1301 C1303 1.327 . S
C1301 C1307 1.429 . S
C1302 C1294 1.574 . S
C1302 H1297 0.949 . S
C1302 C1308 1.368 . S
C1303 C1287 1.349 . S
C1303 H1295 0.950 . S
C1303 C1301 1.327 . S
C1304 C1292 1.349 . S
C1304 H1298 0.950 . S
C1304 C1305 1.327 . S
C1305 H1299 0.950 . S
C1305 C1304 1.327 . S
C1305 C1309 1.429 . S
C1306 C1289 1.574 . S
C1306 H1300 0.949 . S
C1306 C1310 1.368 . S
C1307 C1288 1.429 . S
C1307 C1301 1.429 . S
C1307 C1308 1.523 1_565 S
C1308 C1289 1.368 . S
C1308 C1302 1.368 . S
C1308 C1307 1.523 1_545 S
C1309 C1293 1.429 . S
C1309 C1305 1.429 . S
C1309 C1310 1.523 . S
C1310 C1294 1.368 . S
C1310 C1306 1.368 . S
C1310 C1309 1.523 . S
H1311 C1286 0.950 . S
H1312 C1288 0.950 . S
H1313 C1289 0.949 . S
H1314 C1291 0.950 . S
H1315 C1293 0.950 . S
C1316 C1317 1.349 . S
C1316 C1318 1.327 . S
C1316 H1341 0.950 . S
C1317 C1316 1.349 . S
C1317 C1333 1.349 . S
C1318 C1316 1.327 . S
C1318 C1337 1.429 . S
C1318 H1342 0.950 . S
C1319 C1336 1.574 . S
C1319 C1338 1.368 . S
C1319 H1343 0.949 . S
H1320 C1324 0.949 . S
C1321 C1322 1.349 . S
C1321 C1323 1.327 . S
C1321 H1344 0.950 . S
C1322 C1321 1.349 . S
C1322 C1334 1.349 . S
C1323 C1321 1.327 . S
C1323 C1339 1.429 . S
C1323 H1345 0.950 . S
C1324 H1320 0.949 . S
C1324 C1332 1.574 . S
C1324 C1340 1.368 . S
H1325 C1333 0.950 . S
H1326 C1331 0.950 . S
H1327 C1332 0.949 . S
H1328 C1334 0.950 . S
H1329 C1335 0.950 . S
H1330 C1336 0.949 . S
C1331 H1326 0.950 . S
C1331 C1333 1.327 . S
C1331 C1337 1.429 . S
C1332 C1324 1.574 . S
C1332 H1327 0.949 . S
C1332 C1338 1.368 . S
C1333 C1317 1.349 . S
C1333 H1325 0.950 . S
C1333 C1331 1.327 . S
C1334 C1322 1.349 . S
C1334 H1328 0.950 . S
C1334 C1335 1.327 . S
C1335 H1329 0.950 . S
C1335 C1334 1.327 . S
C1335 C1339 1.429 . S
C1336 C1319 1.574 . S
C1336 H1330 0.949 . S
C1336 C1340 1.368 . S
C1337 C1318 1.429 . S
C1337 C1331 1.429 . S
C1337 C1338 1.523 . S
C1338 C1319 1.368 . S
C1338 C1332 1.368 . S
C1338 C1337 1.523 . S
C1339 C1323 1.429 . S
C1339 C1335 1.429 . S
C1339 C1340 1.523 . S
C1340 C1324 1.368 . S
C1340 C1336 1.368 . S
C1340 C1339 1.523 . S
H1341 C1316 0.950 . S
H1342 C1318 0.950 . S
H1343 C1319 0.949 . S
H1344 C1321 0.950 . S
H1345 C1323 0.950 . S
C1346 C1347 1.349 . S
C1346 C1348 1.327 . S
C1346 H1371 0.950 . S
C1347 C1346 1.349 . S
C1347 C1363 1.349 . S
C1348 C1346 1.327 . S
C1348 C1367 1.429 . S
C1348 H1372 0.950 . S
C1349 C1366 1.574 . S
C1349 C1368 1.368 . S
C1349 H1373 0.949 . S
H1350 C1354 0.949 . S
C1351 C1352 1.349 . S
C1351 C1353 1.327 . S
C1351 H1374 0.950 . S
C1352 C1351 1.349 . S
C1352 C1364 1.349 . S
C1353 C1351 1.327 . S
C1353 C1369 1.429 . S
C1353 H1375 0.950 . S
C1354 H1350 0.949 . S
C1354 C1362 1.574 . S
C1354 C1370 1.368 . S
H1355 C1363 0.950 . S
H1356 C1361 0.950 . S
H1357 C1362 0.949 . S
H1358 C1364 0.950 . S
H1359 C1365 0.950 . S
H1360 C1366 0.949 . S
C1361 H1356 0.950 . S
C1361 C1363 1.327 . S
C1361 C1367 1.429 . S
C1362 C1354 1.574 . S
C1362 H1357 0.949 . S
C1362 C1368 1.368 . S
C1363 C1347 1.349 . S
C1363 H1355 0.950 . S
C1363 C1361 1.327 . S
C1364 C1352 1.349 . S
C1364 H1358 0.950 . S
C1364 C1365 1.327 . S
C1365 H1359 0.950 . S
C1365 C1364 1.327 . S
C1365 C1369 1.429 . S
C1366 C1349 1.574 . S
C1366 H1360 0.949 . S
C1366 C1370 1.368 . S
C1367 C1348 1.429 . S
C1367 C1361 1.429 . S
C1367 C1368 1.523 . S
C1368 C1349 1.368 . S
C1368 C1362 1.368 . S
C1368 C1367 1.523 . S
C1369 C1353 1.429 . S
C1369 C1365 1.429 . S
C1369 C1370 1.523 . S
C1370 C1354 1.368 . S
C1370 C1366 1.368 . S
C1370 C1369 1.523 . S
H1371 C1346 0.950 . S
H1372 C1348 0.950 . S
H1373 C1349 0.949 . S
H1374 C1351 0.950 . S
H1375 C1353 0.950 . S
C1376 C1377 1.349 . S
C1376 C1378 1.327 . S
C1376 H1401 0.950 . S
C1377 C1376 1.349 . S
C1377 C1393 1.349 . S
C1378 C1376 1.327 . S
C1378 C1397 1.429 . S
C1378 H1402 0.950 . S
C1379 C1396 1.574 . S
C1379 C1398 1.368 . S
C1379 H1403 0.949 . S
H1380 C1384 0.949 . S
C1381 C1382 1.349 . S
C1381 C1383 1.327 . S
C1381 H1404 0.950 . S
C1382 C1381 1.349 . S
C1382 C1394 1.349 . S
C1383 C1381 1.327 . S
C1383 C1399 1.429 . S
C1383 H1405 0.950 . S
C1384 H1380 0.949 . S
C1384 C1392 1.574 . S
C1384 C1400 1.368 . S
H1385 C1393 0.950 . S
H1386 C1391 0.950 . S
H1387 C1392 0.949 . S
H1388 C1394 0.950 . S
H1389 C1395 0.950 . S
H1390 C1396 0.949 . S
C1391 H1386 0.950 . S
C1391 C1393 1.327 . S
C1391 C1397 1.429 . S
C1392 C1384 1.574 . S
C1392 H1387 0.949 . S
C1392 C1398 1.368 . S
C1393 C1377 1.349 . S
C1393 H1385 0.950 . S
C1393 C1391 1.327 . S
C1394 C1382 1.349 . S
C1394 H1388 0.950 . S
C1394 C1395 1.327 . S
C1395 H1389 0.950 . S
C1395 C1394 1.327 . S
C1395 C1399 1.429 . S
C1396 C1379 1.574 . S
C1396 H1390 0.949 . S
C1396 C1400 1.368 . S
C1397 C1378 1.429 . S
C1397 C1391 1.429 . S
C1397 C1398 1.523 . S
C1398 C1379 1.368 . S
C1398 C1392 1.368 . S
C1398 C1397 1.523 . S
C1399 C1383 1.429 . S
C1399 C1395 1.429 . S
C1399 C1400 1.523 . S
C1400 C1384 1.368 . S
C1400 C1396 1.368 . S
C1400 C1399 1.523 . S
H1401 C1376 0.950 . S
H1402 C1378 0.950 . S
H1403 C1379 0.949 . S
H1404 C1381 0.950 . S
H1405 C1383 0.950 . S
C1406 C1407 1.349 . S
C1406 C1408 1.327 . S
C1406 H1431 0.950 . S
C1407 C1406 1.349 . S
C1407 C1423 1.349 . S
C1408 C1406 1.327 . S
C1408 C1427 1.429 . S
C1408 H1432 0.950 . S
C1409 C1426 1.574 . S
C1409 C1428 1.368 . S
C1409 H1433 0.949 . S
H1410 C1414 0.949 . S
C1411 C1412 1.349 . S
C1411 C1413 1.327 . S
C1411 H1434 0.950 . S
C1412 C1411 1.349 . S
C1412 C1424 1.349 . S
C1413 C1411 1.327 . S
C1413 C1429 1.429 . S
C1413 H1435 0.950 . S
C1414 H1410 0.949 . S
C1414 C1422 1.574 . S
C1414 C1430 1.368 . S
H1415 C1423 0.950 . S
H1416 C1421 0.950 . S
H1417 C1422 0.949 . S
H1418 C1424 0.950 . S
H1419 C1425 0.950 . S
H1420 C1426 0.949 . S
C1421 H1416 0.950 . S
C1421 C1423 1.327 . S
C1421 C1427 1.429 . S
C1422 C1414 1.574 . S
C1422 H1417 0.949 . S
C1422 C1428 1.368 . S
C1423 C1407 1.349 . S
C1423 H1415 0.950 . S
C1423 C1421 1.327 . S
C1424 C1412 1.349 . S
C1424 H1418 0.950 . S
C1424 C1425 1.327 . S
C1425 H1419 0.950 . S
C1425 C1424 1.327 . S
C1425 C1429 1.429 . S
C1426 C1409 1.574 . S
C1426 H1420 0.949 . S
C1426 C1430 1.368 . S
C1427 C1408 1.429 . S
C1427 C1421 1.429 . S
C1427 C1428 1.523 . S
C1428 C1409 1.368 . S
C1428 C1422 1.368 . S
C1428 C1427 1.523 . S
C1429 C1413 1.429 . S
C1429 C1425 1.429 . S
C1429 C1430 1.523 . S
C1430 C1414 1.368 . S
C1430 C1426 1.368 . S
C1430 C1429 1.523 . S
H1431 C1406 0.950 . S
H1432 C1408 0.950 . S
H1433 C1409 0.949 . S
H1434 C1411 0.950 . S
H1435 C1413 0.950 . S
C1436 C1437 1.349 . S
C1436 C1438 1.327 . S
C1436 H1461 0.950 . S
C1437 C1436 1.349 . S
C1437 C1453 1.349 . S
C1438 C1436 1.327 . S
C1438 C1457 1.429 . S
C1438 H1462 0.950 . S
C1439 C1456 1.574 . S
C1439 C1458 1.368 . S
C1439 H1463 0.949 . S
H1440 C1444 0.949 . S
C1441 C1442 1.349 . S
C1441 C1443 1.327 . S
C1441 H1464 0.950 . S
C1442 C1441 1.349 . S
C1442 C1454 1.349 . S
C1443 C1441 1.327 . S
C1443 C1459 1.429 . S
C1443 H1465 0.950 . S
C1444 H1440 0.949 . S
C1444 C1452 1.574 . S
C1444 C1460 1.368 . S
H1445 C1453 0.950 . S
H1446 C1451 0.950 . S
H1447 C1452 0.949 . S
H1448 C1454 0.950 . S
H1449 C1455 0.950 . S
H1450 C1456 0.949 . S
C1451 H1446 0.950 . S
C1451 C1453 1.327 . S
C1451 C1457 1.429 . S
C1452 C1444 1.574 . S
C1452 H1447 0.949 . S
C1452 C1458 1.368 . S
C1453 C1437 1.349 . S
C1453 H1445 0.950 . S
C1453 C1451 1.327 . S
C1454 C1442 1.349 . S
C1454 H1448 0.950 . S
C1454 C1455 1.327 . S
C1455 H1449 0.950 . S
C1455 C1454 1.327 . S
C1455 C1459 1.429 . S
C1456 C1439 1.574 . S
C1456 H1450 0.949 . S
C1456 C1460 1.368 . S
C1457 C1438 1.429 . S
C1457 C1451 1.429 . S
C1457 C1458 1.523 . S
C1458 C1439 1.368 . S
C1458 C1452 1.368 . S
C1458 C1457 1.523 . S
C1459 C1443 1.429 . S
C1459 C1455 1.429 . S
C1459 C1460 1.523 . S
C1460 C1444 1.368 . S
C1460 C1456 1.368 . S
C1460 C1459 1.523 . S
H1461 C1436 0.950 . S
H1462 C1438 0.950 . S
H1463 C1439 0.949 . S
H1464 C1441 0.950 . S
H1465 C1443 0.950 . S
C1466 C1467 1.349 . S
C1466 C1468 1.327 . S
C1466 H1491 0.950 . S
C1467 C1466 1.349 . S
C1467 C1483 1.349 . S
C1468 C1466 1.327 . S
C1468 C1487 1.429 . S
C1468 H1492 0.950 . S
C1469 C1486 1.574 . S
C1469 C1488 1.368 . S
C1469 H1493 0.949 . S
H1470 C1474 0.949 . S
C1471 C1472 1.349 . S
C1471 C1473 1.327 . S
C1471 H1494 0.950 . S
C1472 C1471 1.349 . S
C1472 C1484 1.349 . S
C1473 C1471 1.327 . S
C1473 C1489 1.429 . S
C1473 H1495 0.950 . S
C1474 H1470 0.949 . S
C1474 C1482 1.574 . S
C1474 C1490 1.368 . S
H1475 C1483 0.950 . S
H1476 C1481 0.950 . S
H1477 C1482 0.949 . S
H1478 C1484 0.950 . S
H1479 C1485 0.950 . S
H1480 C1486 0.949 . S
C1481 H1476 0.950 . S
C1481 C1483 1.327 . S
C1481 C1487 1.429 . S
C1482 C1474 1.574 . S
C1482 H1477 0.949 . S
C1482 C1488 1.368 . S
C1483 C1467 1.349 . S
C1483 H1475 0.950 . S
C1483 C1481 1.327 . S
C1484 C1472 1.349 . S
C1484 H1478 0.950 . S
C1484 C1485 1.327 . S
C1485 H1479 0.950 . S
C1485 C1484 1.327 . S
C1485 C1489 1.429 . S
C1486 C1469 1.574 . S
C1486 H1480 0.949 . S
C1486 C1490 1.368 . S
C1487 C1468 1.429 . S
C1487 C1481 1.429 . S
C1487 C1488 1.523 . S
C1488 C1469 1.368 . S
C1488 C1482 1.368 . S
C1488 C1487 1.523 . S
C1489 C1473 1.429 . S
C1489 C1485 1.429 . S
C1489 C1490 1.523 . S
C1490 C1474 1.368 . S
C1490 C1486 1.368 . S
C1490 C1489 1.523 . S
H1491 C1466 0.950 . S
H1492 C1468 0.950 . S
H1493 C1469 0.949 . S
H1494 C1471 0.950 . S
H1495 C1473 0.950 . S
C1496 C1497 1.349 . S
C1496 C1498 1.327 . S
C1496 H1521 0.950 . S
C1497 C1496 1.349 . S
C1497 C1513 1.349 . S
C1498 C1496 1.327 . S
C1498 C1517 1.429 . S
C1498 H1522 0.950 . S
C1499 C1516 1.574 . S
C1499 C1518 1.368 . S
C1499 H1523 0.949 . S
H1500 C1504 0.949 . S
C1501 C1502 1.349 . S
C1501 C1503 1.327 . S
C1501 H1524 0.950 . S
C1502 C1501 1.349 . S
C1502 C1514 1.349 . S
C1503 C1501 1.327 . S
C1503 C1519 1.429 . S
C1503 H1525 0.950 . S
C1504 H1500 0.949 . S
C1504 C1512 1.574 . S
C1504 C1520 1.368 . S
H1505 C1513 0.950 . S
H1506 C1511 0.950 . S
H1507 C1512 0.949 . S
H1508 C1514 0.950 . S
H1509 C1515 0.950 . S
H1510 C1516 0.949 . S
C1511 H1506 0.950 . S
C1511 C1513 1.327 . S
C1511 C1517 1.429 . S
C1512 C1504 1.574 . S
C1512 H1507 0.949 . S
C1512 C1518 1.368 . S
C1513 C1497 1.349 . S
C1513 H1505 0.950 . S
C1513 C1511 1.327 . S
C1514 C1502 1.349 . S
C1514 H1508 0.950 . S
C1514 C1515 1.327 . S
C1515 H1509 0.950 . S
C1515 C1514 1.327 . S
C1515 C1519 1.429 . S
C1516 C1499 1.574 . S
C1516 H1510 0.949 . S
C1516 C1520 1.368 . S
C1517 C1498 1.429 . S
C1517 C1511 1.429 . S
C1517 C1518 1.523 . S
C1518 C1499 1.368 . S
C1518 C1512 1.368 . S
C1518 C1517 1.523 . S
C1519 C1503 1.429 . S
C1519 C1515 1.429 . S
C1519 C1520 1.523 . S
C1520 C1504 1.368 . S
C1520 C1516 1.368 . S
C1520 C1519 1.523 . S
H1521 C1496 0.950 . S
H1522 C1498 0.950 . S
H1523 C1499 0.949 . S
H1524 C1501 0.950 . S
H1525 C1503 0.950 . S
C1526 C1527 1.349 . S
C1526 C1528 1.327 . S
C1526 H1551 0.950 . S
C1527 C1526 1.349 . S
C1527 C1543 1.349 . S
C1528 C1526 1.327 . S
C1528 C1547 1.429 . S
C1528 H1552 0.950 . S
C1529 C1546 1.574 . S
C1529 C1548 1.368 . S
C1529 H1553 0.949 . S
H1530 C1534 0.949 . S
C1531 C1532 1.349 . S
C1531 C1533 1.327 . S
C1531 H1554 0.950 . S
C1532 C1531 1.349 . S
C1532 C1544 1.349 . S
C1533 C1531 1.327 . S
C1533 C1549 1.429 . S
C1533 H1555 0.950 . S
C1534 H1530 0.949 . S
C1534 C1542 1.574 . S
C1534 C1550 1.368 . S
H1535 C1543 0.950 . S
H1536 C1541 0.950 . S
H1537 C1542 0.949 . S
H1538 C1544 0.950 . S
H1539 C1545 0.950 . S
H1540 C1546 0.949 . S
C1541 H1536 0.950 . S
C1541 C1543 1.327 . S
C1541 C1547 1.429 . S
C1542 C1534 1.574 . S
C1542 H1537 0.949 . S
C1542 C1548 1.368 . S
C1543 C1527 1.349 . S
C1543 H1535 0.950 . S
C1543 C1541 1.327 . S
C1544 C1532 1.349 . S
C1544 H1538 0.950 . S
C1544 C1545 1.327 . S
C1545 H1539 0.950 . S
C1545 C1544 1.327 . S
C1545 C1549 1.429 . S
C1546 C1529 1.574 . S
C1546 H1540 0.949 . S
C1546 C1550 1.368 . S
C1547 C1528 1.429 . S
C1547 C1541 1.429 . S
C1547 C1548 1.523 . S
C1548 C1529 1.368 . S
C1548 C1542 1.368 . S
C1548 C1547 1.523 . S
C1549 C1533 1.429 . S
C1549 C1545 1.429 . S
C1549 C1550 1.523 . S
C1550 C1534 1.368 . S
C1550 C1546 1.368 . S
C1550 C1549 1.523 . S
H1551 C1526 0.950 . S
H1552 C1528 0.950 . S
H1553 C1529 0.949 . S
H1554 C1531 0.950 . S
H1555 C1533 0.950 . S
C1556 C1557 1.349 . S
C1556 C1558 1.327 . S
C1556 H1581 0.950 . S
C1557 C1556 1.349 . S
C1557 C1573 1.349 . S
C1558 C1556 1.327 . S
C1558 C1577 1.429 . S
C1558 H1582 0.950 . S
C1559 C1576 1.574 . S
C1559 C1578 1.368 . S
C1559 H1583 0.949 . S
H1560 C1564 0.949 . S
C1561 C1562 1.349 . S
C1561 C1563 1.327 . S
C1561 H1584 0.950 . S
C1562 C1561 1.349 . S
C1562 C1574 1.349 . S
C1563 C1561 1.327 . S
C1563 C1579 1.429 . S
C1563 H1585 0.950 . S
C1564 H1560 0.949 . S
C1564 C1572 1.574 . S
C1564 C1580 1.368 . S
H1565 C1573 0.950 . S
H1566 C1571 0.950 . S
H1567 C1572 0.949 . S
H1568 C1574 0.950 . S
H1569 C1575 0.950 . S
H1570 C1576 0.949 . S
C1571 H1566 0.950 . S
C1571 C1573 1.327 . S
C1571 C1577 1.429 . S
C1572 C1564 1.574 . S
C1572 H1567 0.949 . S
C1572 C1578 1.368 . S
C1573 C1557 1.349 . S
C1573 H1565 0.950 . S
C1573 C1571 1.327 . S
C1574 C1562 1.349 . S
C1574 H1568 0.950 . S
C1574 C1575 1.327 . S
C1575 H1569 0.950 . S
C1575 C1574 1.327 . S
C1575 C1579 1.429 . S
C1576 C1559 1.574 . S
C1576 H1570 0.949 . S
C1576 C1580 1.368 . S
C1577 C1558 1.429 . S
C1577 C1571 1.429 . S
C1577 C1578 1.523 . S
C1578 C1559 1.368 . S
C1578 C1572 1.368 . S
C1578 C1577 1.523 . S
C1579 C1563 1.429 . S
C1579 C1575 1.429 . S
C1579 C1580 1.523 . S
C1580 C1564 1.368 . S
C1580 C1576 1.368 . S
C1580 C1579 1.523 . S
H1581 C1556 0.950 . S
H1582 C1558 0.950 . S
H1583 C1559 0.949 . S
H1584 C1561 0.950 . S
H1585 C1563 0.950 . S
C1586 C1587 1.349 . S
C1586 C1588 1.327 . S
C1586 H1611 0.950 . S
C1587 C1586 1.349 . S
C1587 C1603 1.349 . S
C1588 C1586 1.327 . S
C1588 C1607 1.429 . S
C1588 H1612 0.950 . S
C1589 C1606 1.574 1_556 S
C1589 C1608 1.368 . S
C1589 H1613 0.949 . S
H1590 C1594 0.949 . S
C1591 C1592 1.349 . S
C1591 C1593 1.327 . S
C1591 H1614 0.950 . S
C1592 C1591 1.349 . S
C1592 C1604 1.349 . S
C1593 C1591 1.327 . S
C1593 C1609 1.429 . S
C1593 H1615 0.950 . S
C1594 H1590 0.949 . S
C1594 C1602 1.574 . S
C1594 C1610 1.368 . S
H1595 C1603 0.950 . S
H1596 C1601 0.950 . S
H1597 C1602 0.949 . S
H1598 C1604 0.950 . S
H1599 C1605 0.950 . S
H1600 C1606 0.949 . S
C1601 H1596 0.950 . S
C1601 C1603 1.327 . S
C1601 C1607 1.429 . S
C1602 C1594 1.574 . S
C1602 H1597 0.949 . S
C1602 C1608 1.368 1_554 S
C1603 C1587 1.349 . S
C1603 H1595 0.950 . S
C1603 C1601 1.327 . S
C1604 C1592 1.349 . S
C1604 H1598 0.950 . S
C1604 C1605 1.327 . S
C1605 H1599 0.950 . S
C1605 C1604 1.327 . S
C1605 C1609 1.429 . S
C1606 C1589 1.574 1_554 S
C1606 H1600 0.949 . S
C1606 C1610 1.368 . S
C1607 C1588 1.429 . S
C1607 C1601 1.429 . S
C1607 C1608 1.523 . S
C1608 C1589 1.368 . S
C1608 C1602 1.368 1_556 S
C1608 C1607 1.523 . S
C1609 C1593 1.429 . S
C1609 C1605 1.429 . S
C1609 C1610 1.523 . S
C1610 C1594 1.368 . S
C1610 C1606 1.368 . S
C1610 C1609 1.523 . S
H1611 C1586 0.950 . S
H1612 C1588 0.950 . S
H1613 C1589 0.949 . S
H1614 C1591 0.950 . S
H1615 C1593 0.950 . S
C1616 C1617 1.349 . S
C1616 C1618 1.327 . S
C1616 H1641 0.950 . S
C1617 C1616 1.349 . S
C1617 C1633 1.349 . S
C1618 C1616 1.327 . S
C1618 C1637 1.429 . S
C1618 H1642 0.950 . S
C1619 C1636 1.574 . S
C1619 C1638 1.368 . S
C1619 H1643 0.949 . S
H1620 C1624 0.949 . S
C1621 C1622 1.349 . S
C1621 C1623 1.327 . S
C1621 H1644 0.950 . S
C1622 C1621 1.349 . S
C1622 C1634 1.349 . S
C1623 C1621 1.327 . S
C1623 C1639 1.429 . S
C1623 H1645 0.950 . S
C1624 H1620 0.949 . S
C1624 C1632 1.574 . S
C1624 C1640 1.368 . S
H1625 C1633 0.950 . S
H1626 C1631 0.950 . S
H1627 C1632 0.949 . S
H1628 C1634 0.950 . S
H1629 C1635 0.950 . S
H1630 C1636 0.949 . S
C1631 H1626 0.950 . S
C1631 C1633 1.327 . S
C1631 C1637 1.429 . S
C1632 C1624 1.574 . S
C1632 H1627 0.949 . S
C1632 C1638 1.368 . S
C1633 C1617 1.349 . S
C1633 H1625 0.950 . S
C1633 C1631 1.327 . S
C1634 C1622 1.349 . S
C1634 H1628 0.950 . S
C1634 C1635 1.327 . S
C1635 H1629 0.950 . S
C1635 C1634 1.327 . S
C1635 C1639 1.429 . S
C1636 C1619 1.574 . S
C1636 H1630 0.949 . S
C1636 C1640 1.368 . S
C1637 C1618 1.429 . S
C1637 C1631 1.429 . S
C1637 C1638 1.523 . S
C1638 C1619 1.368 . S
C1638 C1632 1.368 . S
C1638 C1637 1.523 . S
C1639 C1623 1.429 . S
C1639 C1635 1.429 . S
C1639 C1640 1.523 . S
C1640 C1624 1.368 . S
C1640 C1636 1.368 . S
C1640 C1639 1.523 . S
H1641 C1616 0.950 . S
H1642 C1618 0.950 . S
H1643 C1619 0.949 . S
H1644 C1621 0.950 . S
H1645 C1623 0.950 . S
C1646 C1647 1.349 . S
C1646 C1648 1.327 . S
C1646 H1671 0.950 . S
C1647 C1646 1.349 . S
C1647 C1663 1.349 . S
C1648 C1646 1.327 . S
C1648 C1667 1.429 . S
C1648 H1672 0.950 . S
C1649 C1666 1.574 . S
C1649 C1668 1.368 . S
C1649 H1673 0.949 . S
H1650 C1654 0.949 . S
C1651 C1652 1.349 . S
C1651 C1653 1.327 . S
C1651 H1674 0.950 . S
C1652 C1651 1.349 . S
C1652 C1664 1.349 . S
C1653 C1651 1.327 . S
C1653 C1669 1.429 . S
C1653 H1675 0.950 . S
C1654 H1650 0.949 . S
C1654 C1662 1.574 . S
C1654 C1670 1.368 . S
H1655 C1663 0.950 . S
H1656 C1661 0.950 . S
H1657 C1662 0.949 . S
H1658 C1664 0.950 . S
H1659 C1665 0.950 . S
H1660 C1666 0.949 . S
C1661 H1656 0.950 . S
C1661 C1663 1.327 . S
C1661 C1667 1.429 . S
C1662 C1654 1.574 . S
C1662 H1657 0.949 . S
C1662 C1668 1.368 . S
C1663 C1647 1.349 . S
C1663 H1655 0.950 . S
C1663 C1661 1.327 . S
C1664 C1652 1.349 . S
C1664 H1658 0.950 . S
C1664 C1665 1.327 . S
C1665 H1659 0.950 . S
C1665 C1664 1.327 . S
C1665 C1669 1.429 . S
C1666 C1649 1.574 . S
C1666 H1660 0.949 . S
C1666 C1670 1.368 . S
C1667 C1648 1.429 . S
C1667 C1661 1.429 . S
C1667 C1668 1.523 . S
C1668 C1649 1.368 . S
C1668 C1662 1.368 . S
C1668 C1667 1.523 . S
C1669 C1653 1.429 . S
C1669 C1665 1.429 . S
C1669 C1670 1.523 . S
C1670 C1654 1.368 . S
C1670 C1666 1.368 . S
C1670 C1669 1.523 . S
H1671 C1646 0.950 . S
H1672 C1648 0.950 . S
H1673 C1649 0.949 . S
H1674 C1651 0.950 . S
H1675 C1653 0.950 . S
C1676 C1677 1.349 . S
C1676 C1678 1.327 . S
C1676 H1701 0.950 . S
C1677 C1676 1.349 . S
C1677 C1693 1.349 . S
C1678 C1676 1.327 . S
C1678 C1697 1.429 . S
C1678 H1702 0.950 . S
C1679 C1696 1.574 . S
C1679 C1698 1.368 . S
C1679 H1703 0.949 . S
H1680 C1684 0.949 . S
C1681 C1682 1.349 . S
C1681 C1683 1.327 . S
C1681 H1704 0.950 . S
C1682 C1681 1.349 . S
C1682 C1694 1.349 . S
C1683 C1681 1.327 . S
C1683 C1699 1.429 . S
C1683 H1705 0.950 . S
C1684 H1680 0.949 . S
C1684 C1692 1.574 . S
C1684 C1700 1.368 . S
H1685 C1693 0.950 . S
H1686 C1691 0.950 . S
H1687 C1692 0.949 . S
H1688 C1694 0.950 . S
H1689 C1695 0.950 . S
H1690 C1696 0.949 . S
C1691 H1686 0.950 . S
C1691 C1693 1.327 . S
C1691 C1697 1.429 . S
C1692 C1684 1.574 . S
C1692 H1687 0.949 . S
C1692 C1698 1.368 . S
C1693 C1677 1.349 . S
C1693 H1685 0.950 . S
C1693 C1691 1.327 . S
C1694 C1682 1.349 . S
C1694 H1688 0.950 . S
C1694 C1695 1.327 . S
C1695 H1689 0.950 . S
C1695 C1694 1.327 . S
C1695 C1699 1.429 . S
C1696 C1679 1.574 . S
C1696 H1690 0.949 . S
C1696 C1700 1.368 . S
C1697 C1678 1.429 . S
C1697 C1691 1.429 . S
C1697 C1698 1.523 . S
C1698 C1679 1.368 . S
C1698 C1692 1.368 . S
C1698 C1697 1.523 . S
C1699 C1683 1.429 . S
C1699 C1695 1.429 . S
C1699 C1700 1.523 . S
C1700 C1684 1.368 . S
C1700 C1696 1.368 . S
C1700 C1699 1.523 . S
H1701 C1676 0.950 . S
H1702 C1678 0.950 . S
H1703 C1679 0.949 . S
H1704 C1681 0.950 . S
H1705 C1683 0.950 . S
C1706 C1707 1.349 . S
C1706 C1708 1.327 . S
C1706 H1731 0.950 . S
C1707 C1706 1.349 . S
C1707 C1723 1.349 . S
C1708 C1706 1.327 . S
C1708 C1727 1.429 . S
C1708 H1732 0.950 . S
C1709 C1726 1.574 . S
C1709 C1728 1.368 . S
C1709 H1733 0.949 . S
H1710 C1714 0.949 . S
C1711 C1712 1.349 . S
C1711 C1713 1.327 . S
C1711 H1734 0.950 . S
C1712 C1711 1.349 . S
C1712 C1724 1.349 . S
C1713 C1711 1.327 . S
C1713 C1729 1.429 . S
C1713 H1735 0.950 . S
C1714 H1710 0.949 . S
C1714 C1722 1.574 . S
C1714 C1730 1.368 . S
H1715 C1723 0.950 . S
H1716 C1721 0.950 . S
H1717 C1722 0.949 . S
H1718 C1724 0.950 . S
H1719 C1725 0.950 . S
H1720 C1726 0.949 . S
C1721 H1716 0.950 . S
C1721 C1723 1.327 . S
C1721 C1727 1.429 . S
C1722 C1714 1.574 . S
C1722 H1717 0.949 . S
C1722 C1728 1.368 . S
C1723 C1707 1.349 . S
C1723 H1715 0.950 . S
C1723 C1721 1.327 . S
C1724 C1712 1.349 . S
C1724 H1718 0.950 . S
C1724 C1725 1.327 . S
C1725 H1719 0.950 . S
C1725 C1724 1.327 . S
C1725 C1729 1.429 . S
C1726 C1709 1.574 . S
C1726 H1720 0.949 . S
C1726 C1730 1.368 . S
C1727 C1708 1.429 . S
C1727 C1721 1.429 . S
C1727 C1728 1.523 . S
C1728 C1709 1.368 . S
C1728 C1722 1.368 . S
C1728 C1727 1.523 . S
C1729 C1713 1.429 . S
C1729 C1725 1.429 . S
C1729 C1730 1.523 . S
C1730 C1714 1.368 . S
C1730 C1726 1.368 . S
C1730 C1729 1.523 . S
H1731 C1706 0.950 . S
H1732 C1708 0.950 . S
H1733 C1709 0.949 . S
H1734 C1711 0.950 . S
H1735 C1713 0.950 . S
C1736 C1737 1.349 . S
C1736 C1738 1.327 . S
C1736 H1761 0.950 . S
C1737 C1736 1.349 . S
C1737 C1753 1.349 . S
C1738 C1736 1.327 . S
C1738 C1757 1.429 . S
C1738 H1762 0.950 . S
C1739 C1756 1.574 . S
C1739 C1758 1.368 . S
C1739 H1763 0.949 . S
H1740 C1744 0.949 . S
C1741 C1742 1.349 . S
C1741 C1743 1.327 . S
C1741 H1764 0.950 . S
C1742 C1741 1.349 . S
C1742 C1754 1.349 . S
C1743 C1741 1.327 . S
C1743 C1759 1.429 . S
C1743 H1765 0.950 . S
C1744 H1740 0.949 . S
C1744 C1752 1.574 . S
C1744 C1760 1.368 . S
H1745 C1753 0.950 . S
H1746 C1751 0.950 . S
H1747 C1752 0.949 . S
H1748 C1754 0.950 . S
H1749 C1755 0.950 . S
H1750 C1756 0.949 . S
C1751 H1746 0.950 . S
C1751 C1753 1.327 . S
C1751 C1757 1.429 . S
C1752 C1744 1.574 . S
C1752 H1747 0.949 . S
C1752 C1758 1.368 . S
C1753 C1737 1.349 . S
C1753 H1745 0.950 . S
C1753 C1751 1.327 . S
C1754 C1742 1.349 . S
C1754 H1748 0.950 . S
C1754 C1755 1.327 . S
C1755 H1749 0.950 . S
C1755 C1754 1.327 . S
C1755 C1759 1.429 . S
C1756 C1739 1.574 . S
C1756 H1750 0.949 . S
C1756 C1760 1.368 . S
C1757 C1738 1.429 . S
C1757 C1751 1.429 . S
C1757 C1758 1.523 . S
C1758 C1739 1.368 . S
C1758 C1752 1.368 . S
C1758 C1757 1.523 . S
C1759 C1743 1.429 . S
C1759 C1755 1.429 . S
C1759 C1760 1.523 . S
C1760 C1744 1.368 . S
C1760 C1756 1.368 . S
C1760 C1759 1.523 . S
H1761 C1736 0.950 . S
H1762 C1738 0.950 . S
H1763 C1739 0.949 . S
H1764 C1741 0.950 . S
H1765 C1743 0.950 . S
C1766 C1767 1.349 . S
C1766 C1768 1.327 . S
C1766 H1791 0.950 . S
C1767 C1766 1.349 . S
C1767 C1783 1.349 . S
C1768 C1766 1.327 . S
C1768 C1787 1.429 . S
C1768 H1792 0.950 . S
C1769 C1786 1.574 . S
C1769 C1788 1.368 . S
C1769 H1793 0.949 . S
H1770 C1774 0.949 . S
C1771 C1772 1.349 . S
C1771 C1773 1.327 . S
C1771 H1794 0.950 . S
C1772 C1771 1.349 . S
C1772 C1784 1.349 . S
C1773 C1771 1.327 . S
C1773 C1789 1.429 . S
C1773 H1795 0.950 . S
C1774 H1770 0.949 . S
C1774 C1782 1.574 . S
C1774 C1790 1.368 . S
H1775 C1783 0.950 . S
H1776 C1781 0.950 . S
H1777 C1782 0.949 . S
H1778 C1784 0.950 . S
H1779 C1785 0.950 . S
H1780 C1786 0.949 . S
C1781 H1776 0.950 . S
C1781 C1783 1.327 . S
C1781 C1787 1.429 . S
C1782 C1774 1.574 . S
C1782 H1777 0.949 . S
C1782 C1788 1.368 . S
C1783 C1767 1.349 . S
C1783 H1775 0.950 . S
C1783 C1781 1.327 . S
C1784 C1772 1.349 . S
C1784 H1778 0.950 . S
C1784 C1785 1.327 . S
C1785 H1779 0.950 . S
C1785 C1784 1.327 . S
C1785 C1789 1.429 . S
C1786 C1769 1.574 . S
C1786 H1780 0.949 . S
C1786 C1790 1.368 . S
C1787 C1768 1.429 . S
C1787 C1781 1.429 . S
C1787 C1788 1.523 . S
C1788 C1769 1.368 . S
C1788 C1782 1.368 . S
C1788 C1787 1.523 . S
C1789 C1773 1.429 . S
C1789 C1785 1.429 . S
C1789 C1790 1.523 . S
C1790 C1774 1.368 . S
C1790 C1786 1.368 . S
C1790 C1789 1.523 . S
H1791 C1766 0.950 . S
H1792 C1768 0.950 . S
H1793 C1769 0.949 . S
H1794 C1771 0.950 . S
H1795 C1773 0.950 . S
C1796 C1797 1.349 . S
C1796 C1798 1.327 . S
C1796 H1821 0.950 . S
C1797 C1796 1.349 . S
C1797 C1813 1.349 . S
C1798 C1796 1.327 . S
C1798 C1817 1.429 . S
C1798 H1822 0.950 . S
C1799 C1816 1.574 . S
C1799 C1818 1.368 . S
C1799 H1823 0.949 . S
H1800 C1804 0.949 . S
C1801 C1802 1.349 . S
C1801 C1803 1.327 . S
C1801 H1824 0.950 . S
C1802 C1801 1.349 . S
C1802 C1814 1.349 . S
C1803 C1801 1.327 . S
C1803 C1819 1.429 . S
C1803 H1825 0.950 . S
C1804 H1800 0.949 . S
C1804 C1812 1.574 . S
C1804 C1820 1.368 . S
H1805 C1813 0.950 . S
H1806 C1811 0.950 . S
H1807 C1812 0.949 . S
H1808 C1814 0.950 . S
H1809 C1815 0.950 . S
H1810 C1816 0.949 . S
C1811 H1806 0.950 . S
C1811 C1813 1.327 . S
C1811 C1817 1.429 . S
C1812 C1804 1.574 . S
C1812 H1807 0.949 . S
C1812 C1818 1.368 . S
C1813 C1797 1.349 . S
C1813 H1805 0.950 . S
C1813 C1811 1.327 . S
C1814 C1802 1.349 . S
C1814 H1808 0.950 . S
C1814 C1815 1.327 . S
C1815 H1809 0.950 . S
C1815 C1814 1.327 . S
C1815 C1819 1.429 . S
C1816 C1799 1.574 . S
C1816 H1810 0.949 . S
C1816 C1820 1.368 . S
C1817 C1798 1.429 . S
C1817 C1811 1.429 . S
C1817 C1818 1.523 . S
C1818 C1799 1.368 . S
C1818 C1812 1.368 . S
C1818 C1817 1.523 . S
C1819 C1803 1.429 . S
C1819 C1815 1.429 . S
C1819 C1820 1.523 . S
C1820 C1804 1.368 . S
C1820 C1816 1.368 . S
C1820 C1819 1.523 . S
H1821 C1796 0.950 . S
H1822 C1798 0.950 . S
H1823 C1799 0.949 . S
H1824 C1801 0.950 . S
H1825 C1803 0.950 . S
C1826 C1827 1.349 . S
C1826 C1828 1.327 . S
C1826 H1851 0.950 . S
C1827 C1826 1.349 . S
C1827 C1843 1.349 . S
C1828 C1826 1.327 . S
C1828 C1847 1.429 . S
C1828 H1852 0.950 . S
C1829 C1846 1.574 . S
C1829 C1848 1.368 . S
C1829 H1853 0.949 . S
H1830 C1834 0.949 . S
C1831 C1832 1.349 . S
C1831 C1833 1.327 . S
C1831 H1854 0.950 . S
C1832 C1831 1.349 . S
C1832 C1844 1.349 . S
C1833 C1831 1.327 . S
C1833 C1849 1.429 . S
C1833 H1855 0.950 . S
C1834 H1830 0.949 . S
C1834 C1842 1.574 . S
C1834 C1850 1.368 . S
H1835 C1843 0.950 . S
H1836 C1841 0.950 . S
H1837 C1842 0.949 . S
H1838 C1844 0.950 . S
H1839 C1845 0.950 . S
H1840 C1846 0.949 . S
C1841 H1836 0.950 . S
C1841 C1843 1.327 . S
C1841 C1847 1.429 . S
C1842 C1834 1.574 . S
C1842 H1837 0.949 . S
C1842 C1848 1.368 . S
C1843 C1827 1.349 . S
C1843 H1835 0.950 . S
C1843 C1841 1.327 . S
C1844 C1832 1.349 . S
C1844 H1838 0.950 . S
C1844 C1845 1.327 . S
C1845 H1839 0.950 . S
C1845 C1844 1.327 . S
C1845 C1849 1.429 . S
C1846 C1829 1.574 . S
C1846 H1840 0.949 . S
C1846 C1850 1.368 . S
C1847 C1828 1.429 . S
C1847 C1841 1.429 . S
C1847 C1848 1.523 . S
C1848 C1829 1.368 . S
C1848 C1842 1.368 . S
C1848 C1847 1.523 . S
C1849 C1833 1.429 . S
C1849 C1845 1.429 . S
C1849 C1850 1.523 . S
C1850 C1834 1.368 . S
C1850 C1846 1.368 . S
C1850 C1849 1.523 . S
H1851 C1826 0.950 . S
H1852 C1828 0.950 . S
H1853 C1829 0.949 . S
H1854 C1831 0.950 . S
H1855 C1833 0.950 . S
C1856 C1857 1.349 . S
C1856 C1858 1.327 . S
C1856 H1881 0.950 . S
C1857 C1856 1.349 . S
C1857 C1873 1.349 . S
C1858 C1856 1.327 . S
C1858 C1877 1.429 . S
C1858 H1882 0.950 . S
C1859 C1876 1.574 . S
C1859 C1878 1.368 . S
C1859 H1883 0.949 . S
H1860 C1864 0.949 . S
C1861 C1862 1.349 . S
C1861 C1863 1.327 . S
C1861 H1884 0.950 . S
C1862 C1861 1.349 . S
C1862 C1874 1.349 . S
C1863 C1861 1.327 . S
C1863 C1879 1.429 . S
C1863 H1885 0.950 . S
C1864 H1860 0.949 . S
C1864 C1872 1.574 . S
C1864 C1880 1.368 . S
H1865 C1873 0.950 . S
H1866 C1871 0.950 . S
H1867 C1872 0.949 . S
H1868 C1874 0.950 . S
H1869 C1875 0.950 . S
H1870 C1876 0.949 . S
C1871 H1866 0.950 . S
C1871 C1873 1.327 . S
C1871 C1877 1.429 . S
C1872 C1864 1.574 . S
C1872 H1867 0.949 . S
C1872 C1878 1.368 . S
C1873 C1857 1.349 . S
C1873 H1865 0.950 . S
C1873 C1871 1.327 . S
C1874 C1862 1.349 . S
C1874 H1868 0.950 . S
C1874 C1875 1.327 . S
C1875 H1869 0.950 . S
C1875 C1874 1.327 . S
C1875 C1879 1.429 . S
C1876 C1859 1.574 . S
C1876 H1870 0.949 . S
C1876 C1880 1.368 . S
C1877 C1858 1.429 . S
C1877 C1871 1.429 . S
C1877 C1878 1.523 . S
C1878 C1859 1.368 . S
C1878 C1872 1.368 . S
C1878 C1877 1.523 . S
C1879 C1863 1.429 . S
C1879 C1875 1.429 . S
C1879 C1880 1.523 . S
C1880 C1864 1.368 . S
C1880 C1876 1.368 . S
C1880 C1879 1.523 . S
H1881 C1856 0.950 . S
H1882 C1858 0.950 . S
H1883 C1859 0.949 . S
H1884 C1861 0.950 . S
H1885 C1863 0.950 . S
C1886 C1887 1.349 . S
C1886 C1888 1.327 . S
C1886 H1911 0.950 . S
C1887 C1886 1.349 . S
C1887 C1903 1.349 . S
C1888 C1886 1.327 . S
C1888 C1907 1.429 . S
C1888 H1912 0.950 . S
C1889 C1906 1.574 . S
C1889 C1908 1.368 . S
C1889 H1913 0.949 . S
H1890 C1894 0.949 . S
C1891 C1892 1.349 . S
C1891 C1893 1.327 . S
C1891 H1914 0.950 . S
C1892 C1891 1.349 . S
C1892 C1904 1.349 . S
C1893 C1891 1.327 . S
C1893 C1909 1.429 . S
C1893 H1915 0.950 . S
C1894 H1890 0.949 . S
C1894 C1902 1.574 . S
C1894 C1910 1.368 . S
H1895 C1903 0.950 . S
H1896 C1901 0.950 . S
H1897 C1902 0.949 . S
H1898 C1904 0.950 . S
H1899 C1905 0.950 . S
H1900 C1906 0.949 . S
C1901 H1896 0.950 . S
C1901 C1903 1.327 . S
C1901 C1907 1.429 . S
C1902 C1894 1.574 . S
C1902 H1897 0.949 . S
C1902 C1908 1.368 . S
C1903 C1887 1.349 . S
C1903 H1895 0.950 . S
C1903 C1901 1.327 . S
C1904 C1892 1.349 . S
C1904 H1898 0.950 . S
C1904 C1905 1.327 . S
C1905 H1899 0.950 . S
C1905 C1904 1.327 . S
C1905 C1909 1.429 . S
C1906 C1889 1.574 . S
C1906 H1900 0.949 . S
C1906 C1910 1.368 . S
C1907 C1888 1.429 . S
C1907 C1901 1.429 . S
C1907 C1908 1.523 . S
C1908 C1889 1.368 . S
C1908 C1902 1.368 . S
C1908 C1907 1.523 . S
C1909 C1893 1.429 . S
C1909 C1905 1.429 . S
C1909 C1910 1.523 . S
C1910 C1894 1.368 . S
C1910 C1906 1.368 . S
C1910 C1909 1.523 . S
H1911 C1886 0.950 . S
H1912 C1888 0.950 . S
H1913 C1889 0.949 . S
H1914 C1891 0.950 . S
H1915 C1893 0.950 . S
C1916 C1917 1.349 . S
C1916 C1918 1.327 . S
C1916 H1941 0.950 . S
C1917 C1916 1.349 . S
C1917 C1933 1.349 . S
C1918 C1916 1.327 . S
C1918 C1937 1.429 . S
C1918 H1942 0.950 . S
C1919 C1936 1.574 . S
C1919 C1938 1.368 . S
C1919 H1943 0.949 . S
H1920 C1924 0.949 . S
C1921 C1922 1.349 . S
C1921 C1923 1.327 . S
C1921 H1944 0.950 . S
C1922 C1921 1.349 . S
C1922 C1934 1.349 . S
C1923 C1921 1.327 . S
C1923 C1939 1.429 . S
C1923 H1945 0.950 . S
C1924 H1920 0.949 . S
C1924 C1932 1.574 . S
C1924 C1940 1.368 . S
H1925 C1933 0.950 . S
H1926 C1931 0.950 . S
H1927 C1932 0.949 . S
H1928 C1934 0.950 . S
H1929 C1935 0.950 . S
H1930 C1936 0.949 . S
C1931 H1926 0.950 . S
C1931 C1933 1.327 . S
C1931 C1937 1.429 . S
C1932 C1924 1.574 . S
C1932 H1927 0.949 . S
C1932 C1938 1.368 . S
C1933 C1917 1.349 . S
C1933 H1925 0.950 . S
C1933 C1931 1.327 . S
C1934 C1922 1.349 . S
C1934 H1928 0.950 . S
C1934 C1935 1.327 . S
C1935 H1929 0.950 . S
C1935 C1934 1.327 . S
C1935 C1939 1.429 . S
C1936 C1919 1.574 . S
C1936 H1930 0.949 . S
C1936 C1940 1.368 . S
C1937 C1918 1.429 . S
C1937 C1931 1.429 . S
C1937 C1938 1.523 . S
C1938 C1919 1.368 . S
C1938 C1932 1.368 . S
C1938 C1937 1.523 . S
C1939 C1923 1.429 . S
C1939 C1935 1.429 . S
C1939 C1940 1.523 . S
C1940 C1924 1.368 . S
C1940 C1936 1.368 . S
C1940 C1939 1.523 . S
H1941 C1916 0.950 . S
H1942 C1918 0.950 . S
H1943 C1919 0.949 . S
H1944 C1921 0.950 . S
H1945 C1923 0.950 . S
C1946 C1947 1.349 . S
C1946 C1948 1.327 . S
C1946 H1971 0.950 . S
C1947 C1946 1.349 . S
C1947 C1963 1.349 . S
C1948 C1946 1.327 . S
C1948 C1967 1.429 . S
C1948 H1972 0.950 . S
C1949 C1966 1.574 . S
C1949 C1968 1.368 . S
C1949 H1973 0.949 . S
H1950 C1954 0.949 . S
C1951 C1952 1.349 . S
C1951 C1953 1.327 . S
C1951 H1974 0.950 . S
C1952 C1951 1.349 . S
C1952 C1964 1.349 . S
C1953 C1951 1.327 . S
C1953 C1969 1.429 . S
C1953 H1975 0.950 . S
C1954 H1950 0.949 . S
C1954 C1962 1.574 1_554 S
C1954 C1970 1.368 1_554 S
H1955 C1963 0.950 . S
H1956 C1961 0.950 . S
H1957 C1962 0.949 . S
H1958 C1964 0.950 . S
H1959 C1965 0.950 . S
H1960 C1966 0.949 . S
C1961 H1956 0.950 . S
C1961 C1963 1.327 . S
C1961 C1967 1.429 . S
C1962 C1954 1.574 1_556 S
C1962 H1957 0.949 . S
C1962 C1968 1.368 . S
C1963 C1947 1.349 . S
C1963 H1955 0.950 . S
C1963 C1961 1.327 . S
C1964 C1952 1.349 . S
C1964 H1958 0.950 . S
C1964 C1965 1.327 . S
C1965 H1959 0.950 . S
C1965 C1964 1.327 . S
C1965 C1969 1.429 . S
C1966 C1949 1.574 . S
C1966 H1960 0.949 . S
C1966 C1970 1.372 . S
C1967 C1948 1.429 . S
C1967 C1961 1.429 . S
C1967 C1968 1.523 . S
C1968 C1949 1.368 . S
C1968 C1962 1.368 . S
C1968 C1967 1.523 . S
C1969 C1953 1.429 . S
C1969 C1965 1.429 . S
C1969 C1970 1.519 1_554 S
C1970 C1954 1.368 1_556 S
C1970 C1966 1.372 . S
C1970 C1969 1.519 1_556 S
H1971 C1946 0.950 . S
H1972 C1948 0.950 . S
H1973 C1949 0.949 . S
H1974 C1951 0.950 . S
H1975 C1953 0.950 . S
C1022 C621 1.615 . S
C1017 C39 1.581 . S
C1052 C674 1.443 . S
C1047 C125 1.444 . S
C1082 C737 2.298 . S
C1077 C217 2.229 . S
C1112 C780 1.723 . S
C1107 C261 1.651 . S
C1137 C359 1.434 . S
C1142 C736 1.448 . S
C1172 C773 1.138 . S
C1167 C433 1.086 . S
C1202 C614 1.447 . S
C1197 C495 1.461 . S
C1232 C667 1.447 . S
C1227 C587 1.449 . S
C1262 C720 1.776 . S
C1257 C557 1.763 . S
C1292 C789 1.325 . S
C1287 C347 1.330 . S
C1322 C630 1.037 . S
C1317 C421 1.036 . S
C1352 C683 1.827 . S
C1347 C507 1.789 . S
C1382 C631 1.451 . S
C1377 C137 1.450 . S
C1412 C684 1.886 . S
C1407 C187 1.841 . S
C1442 C727 2.642 . S
C1437 C291 2.593 . S
C1472 C790 2.318 . S
C1467 C69 2.321 . S
C1502 C833 1.342 . S
C1497 C581 1.344 . S
C1527 C365 2.268 . S
C1532 C886 2.251 . S
C1557 C439 2.690 . S
C1562 C948 2.685 . S
C1587 C483 1.625 . S
C1592 C1002 1.665 . S
C1617 C113 1.784 . S
C1622 C949 1.802 . S
C1647 C211 1.857 . S
C1652 C1001 1.892 . S
C1677 C273 1.210 . S
C1682 C826 1.237 . S
C1712 C879 1.176 . S
C1707 C51 1.176 . S
C1742 C939 1.389 . S
C1737 C63 1.353 . S
C1767 C143 1.552 . S
C1772 C985 1.554 . S
C1797 C199 1.824 . S
C1802 C842 1.848 . S
C1827 C285 1.035 . S
C1832 C895 1.078 . S
C1862 C843 1.594 . S
C1857 C335 1.576 . S
C1892 C896 1.977 . S
C1887 C409 1.862 . S
C1917 C513 2.055 . S
C1922 C932 2.053 . S
C1952 C992 1.405 . S
C1947 C569 1.402 . S
