# Generated by pormake.
# Topology pyr, (3,6)-cn, num edge types: 1
# Building blocks:
#     Node 0, Type 0, BuildingBlock: VETTIZ_charged_linker_0, # of connection points: 3
#     Node 1, Type 0, BuildingBlock: VETTIZ_charged_linker_0, # of connection points: 3
#     Node 2, Type 0, BuildingBlock: VETTIZ_charged_linker_0, # of connection points: 3
#     Node 3, Type 0, BuildingBlock: VETTIZ_charged_linker_0, # of connection points: 3
#     Node 4, Type 0, BuildingBlock: VETTIZ_charged_linker_0, # of connection points: 3
#     Node 5, Type 0, BuildingBlock: VETTIZ_charged_linker_0, # of connection points: 3
#     Node 6, Type 0, BuildingBlock: VETTIZ_charged_linker_0, # of connection points: 3
#     Node 7, Type 0, BuildingBlock: VETTIZ_charged_linker_0, # of connection points: 3
#     Node 8, Type 1, BuildingBlock: PAMTOO_clean_sbu_0, # of connection points: 6
#     Node 9, Type 1, BuildingBlock: PAMTOO_clean_sbu_0, # of connection points: 6
#     Node 10, Type 1, BuildingBlock: PAMTOO_clean_sbu_0, # of connection points: 6
#     Node 11, Type 1, BuildingBlock: PAMTOO_clean_sbu_0, # of connection points: 6
#     Edge 12, Type (0, 1), BuildingBlock: TEMPAE_clean_linker_10, # of connection points: 2
#     Edge 13, Type (0, 1), BuildingBlock: TEMPAE_clean_linker_10, # of connection points: 2
#     Edge 14, Type (0, 1), BuildingBlock: TEMPAE_clean_linker_10, # of connection points: 2
#     Edge 15, Type (0, 1), BuildingBlock: TEMPAE_clean_linker_10, # of connection points: 2
#     Edge 16, Type (0, 1), BuildingBlock: TEMPAE_clean_linker_10, # of connection points: 2
#     Edge 17, Type (0, 1), BuildingBlock: TEMPAE_clean_linker_10, # of connection points: 2
#     Edge 18, Type (0, 1), BuildingBlock: TEMPAE_clean_linker_10, # of connection points: 2
#     Edge 19, Type (0, 1), BuildingBlock: TEMPAE_clean_linker_10, # of connection points: 2
#     Edge 20, Type (0, 1), BuildingBlock: TEMPAE_clean_linker_10, # of connection points: 2
#     Edge 21, Type (0, 1), BuildingBlock: TEMPAE_clean_linker_10, # of connection points: 2
#     Edge 22, Type (0, 1), BuildingBlock: TEMPAE_clean_linker_10, # of connection points: 2
#     Edge 23, Type (0, 1), BuildingBlock: TEMPAE_clean_linker_10, # of connection points: 2
#     Edge 24, Type (0, 1), BuildingBlock: TEMPAE_clean_linker_10, # of connection points: 2
#     Edge 25, Type (0, 1), BuildingBlock: TEMPAE_clean_linker_10, # of connection points: 2
#     Edge 26, Type (0, 1), BuildingBlock: TEMPAE_clean_linker_10, # of connection points: 2
#     Edge 27, Type (0, 1), BuildingBlock: TEMPAE_clean_linker_10, # of connection points: 2
#     Edge 28, Type (0, 1), BuildingBlock: TEMPAE_clean_linker_10, # of connection points: 2
#     Edge 29, Type (0, 1), BuildingBlock: TEMPAE_clean_linker_10, # of connection points: 2
#     Edge 30, Type (0, 1), BuildingBlock: TEMPAE_clean_linker_10, # of connection points: 2
#     Edge 31, Type (0, 1), BuildingBlock: TEMPAE_clean_linker_10, # of connection points: 2
#     Edge 32, Type (0, 1), BuildingBlock: TEMPAE_clean_linker_10, # of connection points: 2
#     Edge 33, Type (0, 1), BuildingBlock: TEMPAE_clean_linker_10, # of connection points: 2
#     Edge 34, Type (0, 1), BuildingBlock: TEMPAE_clean_linker_10, # of connection points: 2
#     Edge 35, Type (0, 1), BuildingBlock: TEMPAE_clean_linker_10, # of connection points: 2
# Relax obj value: 0.091
# Max RMSD: 0.157
# Mean RMSD: 0.068
data_MOF--net-pyr--node1-PAMTOO_clean_sbu_0--node2-VETTIZ_charged_linker_0--edge1-TEMPAE_clean_linker_10
_symmetry_space_group_name_H-M    P1
_symmetry_Int_Tables_number       1
_symmetry_cell_setting            triclinic
loop_
_symmetry_equiv_pos_as_xyz
'x, y, z'
_cell_length_a     45.331684
_cell_length_b     47.383459
_cell_length_c     47.561678
_cell_angle_alpha  89.977424
_cell_angle_beta   89.866795
_cell_angle_gamma 102.19299
loop_
_atom_site_label
_atom_site_type_symbol
_atom_site_fract_x
_atom_site_fract_y
_atom_site_fract_z
_atom_type_partial_charge
C0 C 0.30365 0.23897 0.31364 0.0
C1 C 0.28169 0.25055 0.32796 0.0
C2 C 0.27257 0.27477 0.31648 0.0
C3 C 0.30232 0.27172 0.27473 0.0
C4 C 0.31375 0.25 0.28718 0.0
C5 C 0.3354 0.239 0.26817 0.0
H6 H 0.3946 0.2327 0.1385 0.0
C7 C 0.3137 0.27521 0.24558 0.0
C8 C 0.33376 0.25672 0.24178 0.0
H9 H 0.41083 0.18724 0.21407 0.0
H10 H 0.38059 0.21338 0.24074 0.0
H11 H 0.39701 0.29649 0.16726 0.0
H12 H 0.32402 0.22404 0.1501 0.0
H13 H 0.3119 0.25567 0.14127 0.0
H14 H 0.3433 0.24671 0.12263 0.0
H15 H 0.38469 0.28616 0.13217 0.0
H16 H 0.36664 0.30956 0.15294 0.0
C17 C 0.36714 0.24631 0.28179 0.0
C18 C 0.32288 0.20632 0.26317 0.0
C19 C 0.26011 0.32754 0.17623 0.0
C20 C 0.26157 0.33059 0.14693 0.0
C21 C 0.28513 0.32209 0.13206 0.0
C22 C 0.30584 0.30886 0.14622 0.0
C23 C 0.30268 0.30403 0.17542 0.0
C24 C 0.28067 0.31422 0.18998 0.0
C25 C 0.28019 0.30723 0.22075 0.0
C26 C 0.30495 0.29021 0.22228 0.0
C27 C 0.31789 0.28809 0.19566 0.0
C28 C 0.28832 0.33592 0.23749 0.0
C29 C 0.24868 0.28841 0.2278 0.0
C30 C 0.39167 0.2283 0.16079 0.0
C31 C 0.40545 0.20778 0.17402 0.0
C32 C 0.40119 0.20323 0.20323 0.0
C33 C 0.38325 0.21825 0.21875 0.0
C34 C 0.36873 0.2377 0.20501 0.0
C35 C 0.3733 0.24277 0.17658 0.0
C36 C 0.35494 0.26336 0.16543 0.0
C37 C 0.33922 0.27027 0.19203 0.0
C38 C 0.34721 0.25488 0.21505 0.0
C39 C 0.37678 0.29033 0.15359 0.0
C40 C 0.33241 0.24688 0.14356 0.0
H41 H 0.27422 0.30322 0.28191 0.0
H42 H 0.31134 0.22049 0.3219 0.0
H43 H 0.29798 0.20187 0.2602 0.0
H44 H 0.33183 0.19806 0.244 0.0
H45 H 0.32768 0.19334 0.28139 0.0
H46 H 0.36985 0.26574 0.29546 0.0
H47 H 0.37121 0.2282 0.29503 0.0
H48 H 0.38544 0.25191 0.26602 0.0
H49 H 0.24248 0.33447 0.18811 0.0
H50 H 0.28671 0.32457 0.10943 0.0
H51 H 0.3229 0.30208 0.13382 0.0
H52 H 0.30117 0.35384 0.22438 0.0
H53 H 0.26773 0.3427 0.2452 0.0
H54 H 0.30334 0.33442 0.25553 0.0
H55 H 0.24183 0.27137 0.21159 0.0
H56 H 0.24779 0.27683 0.24793 0.0
H57 H 0.23125 0.30173 0.22839 0.0
H58 H 0.25641 0.28469 0.32746 0.0
C59 C 0.28289 0.28549 0.29001 0.0
C60 C 0.12379 0.81038 0.65928 0.0
C61 C 0.11168 0.83241 0.67185 0.0
C62 C 0.11781 0.83889 0.70048 0.0
C63 C 0.149 0.80338 0.70291 0.0
C64 C 0.14245 0.7963 0.67513 0.0
C65 C 0.15891 0.77383 0.66466 0.0
H66 H 0.26575 0.69607 0.68835 0.0
C67 C 0.17062 0.78638 0.71297 0.0
C68 C 0.1764 0.76876 0.69077 0.0
H69 H 0.21598 0.70029 0.61157 0.0
H70 H 0.18621 0.73031 0.63483 0.0
H71 H 0.2762 0.7599 0.70214 0.0
H72 H 0.2076 0.68874 0.73097 0.0
H73 H 0.21815 0.71133 0.76014 0.0
H74 H 0.24588 0.69481 0.74308 0.0
H75 H 0.28365 0.73433 0.72757 0.0
H76 H 0.27065 0.76622 0.73784 0.0
C77 C 0.18006 0.78729 0.64033 0.0
C78 C 0.13525 0.74656 0.65633 0.0
C79 C 0.21902 0.80833 0.80874 0.0
C80 C 0.24254 0.79872 0.82244 0.0
C81 C 0.25324 0.77534 0.81098 0.0
C82 C 0.24198 0.76294 0.78539 0.0
C83 C 0.22001 0.77421 0.77095 0.0
C84 C 0.20827 0.79594 0.78306 0.0
C85 C 0.18553 0.80565 0.76449 0.0
C86 C 0.18608 0.7866 0.73891 0.0
C87 C 0.20648 0.76846 0.74274 0.0
C88 C 0.19744 0.83811 0.75764 0.0
C89 C 0.15453 0.79869 0.77965 0.0
C90 C 0.24793 0.70275 0.67664 0.0
C91 C 0.24319 0.69568 0.64809 0.0
C92 C 0.22026 0.70563 0.63353 0.0
C93 C 0.20305 0.72307 0.64707 0.0
C94 C 0.20908 0.73094 0.67534 0.0
C95 C 0.23082 0.72026 0.68971 0.0
C96 C 0.2351 0.73137 0.71927 0.0
C97 C 0.21243 0.75066 0.72039 0.0
C98 C 0.19732 0.75055 0.69459 0.0
C99 C 0.26808 0.74872 0.72217 0.0
C100 C 0.2265 0.70534 0.73961 0.0
H101 H 0.14018 0.83074 0.73756 0.0
H102 H 0.11934 0.80454 0.63746 0.0
H103 H 0.11598 0.7427 0.67137 0.0
H104 H 0.14431 0.72669 0.65699 0.0
H105 H 0.12609 0.74894 0.63502 0.0
H106 H 0.19024 0.81035 0.64476 0.0
H107 H 0.16748 0.78643 0.62022 0.0
H108 H 0.19944 0.77694 0.63731 0.0
H109 H 0.20999 0.82597 0.81723 0.0
H110 H 0.27144 0.76759 0.82102 0.0
H111 H 0.25174 0.74584 0.77731 0.0
H112 H 0.22246 0.84314 0.75546 0.0
H113 H 0.19151 0.85206 0.77459 0.0
H114 H 0.18921 0.84477 0.73741 0.0
H115 H 0.15218 0.77889 0.79279 0.0
H116 H 0.13534 0.79386 0.76486 0.0
H117 H 0.1517 0.81664 0.79372 0.0
H118 H 0.10943 0.85604 0.71074 0.0
C119 C 0.13608 0.82437 0.71606 0.0
C120 C 0.61939 0.27236 0.89846 0.0
C121 C 0.59441 0.25283 0.8874 0.0
C122 C 0.58193 0.26005 0.86183 0.0
C123 C 0.61871 0.30578 0.85957 0.0
C124 C 0.63103 0.29833 0.88438 0.0
C125 C 0.6576 0.32081 0.8938 0.0
H126 H 0.75588 0.4479 0.87479 0.0
C127 C 0.63649 0.33466 0.85066 0.0
C128 C 0.65931 0.34327 0.87081 0.0
H129 H 0.75217 0.386 0.94224 0.0
H130 H 0.70857 0.35572 0.92157 0.0
H131 H 0.68528 0.44548 0.87368 0.0
H132 H 0.73914 0.3999 0.82343 0.0
H133 H 0.71425 0.41321 0.80111 0.0
H134 H 0.74179 0.43819 0.82107 0.0
H135 H 0.70799 0.46259 0.84499 0.0
H136 H 0.66983 0.44256 0.83975 0.0
C137 C 0.64976 0.33243 0.92278 0.0
C138 C 0.68571 0.30693 0.89378 0.0
C139 C 0.60936 0.38537 0.76188 0.0
C140 C 0.62175 0.41238 0.74928 0.0
C141 C 0.6468 0.43025 0.76248 0.0
C142 C 0.65943 0.42155 0.78708 0.0
C143 C 0.64698 0.39462 0.79921 0.0
C144 C 0.62224 0.37701 0.78675 0.0
C145 C 0.61185 0.34928 0.80314 0.0
C146 C 0.63429 0.3533 0.82742 0.0
C147 C 0.65499 0.37997 0.82484 0.0
C148 C 0.57926 0.34806 0.81347 0.0
C149 C 0.61511 0.32371 0.78407 0.0
C150 C 0.74566 0.42773 0.88494 0.0
C151 C 0.75751 0.41946 0.91036 0.0
C152 C 0.74333 0.39316 0.92297 0.0
C153 C 0.718 0.37543 0.91078 0.0
C154 C 0.70631 0.38389 0.88554 0.0
C155 C 0.71993 0.40971 0.87306 0.0
C156 C 0.70354 0.41527 0.84665 0.0
C157 C 0.67829 0.38828 0.84521 0.0
C158 C 0.68025 0.37004 0.86804 0.0
C159 C 0.69111 0.44299 0.8512 0.0
C160 C 0.72572 0.41696 0.82162 0.0
H161 H 0.58325 0.29067 0.82871 0.0
H162 H 0.63006 0.26743 0.91767 0.0
H163 H 0.6843 0.29068 0.87668 0.0
H164 H 0.70699 0.32264 0.88956 0.0
H165 H 0.68777 0.29576 0.91399 0.0
H166 H 0.6252 0.33211 0.92448 0.0
H167 H 0.65568 0.31912 0.94027 0.0
H168 H 0.66084 0.35526 0.92627 0.0
H169 H 0.59027 0.37088 0.75248 0.0
H170 H 0.65654 0.4514 0.75404 0.0
H171 H 0.67842 0.43629 0.79582 0.0
H172 H 0.5769 0.3695 0.82157 0.0
H173 H 0.56283 0.34199 0.79607 0.0
H174 H 0.57266 0.33286 0.83105 0.0
H175 H 0.63657 0.32898 0.77192 0.0
H176 H 0.61613 0.30402 0.79607 0.0
H177 H 0.59623 0.31863 0.7688 0.0
H178 H 0.56264 0.24551 0.85277 0.0
C179 C 0.59386 0.28638 0.84794 0.0
C180 C 0.9211 0.77299 0.37798 0.0
C181 C 0.91238 0.78492 0.40317 0.0
C182 C 0.88707 0.76959 0.41794 0.0
C183 C 0.87968 0.73123 0.38336 0.0
C184 C 0.90452 0.74592 0.36861 0.0
C185 C 0.91075 0.72893 0.34304 0.0
H186 H 0.86889 0.60811 0.26125 0.0
C187 C 0.86703 0.70401 0.3684 0.0
C188 C 0.885 0.70227 0.34461 0.0
H189 H 0.94691 0.67756 0.25043 0.0
H190 H 0.93226 0.70186 0.29129 0.0
H191 H 0.87412 0.60375 0.32947 0.0
H192 H 0.8222 0.64866 0.27622 0.0
H193 H 0.79932 0.63432 0.30484 0.0
H194 H 0.81246 0.6102 0.28074 0.0
H195 H 0.84409 0.58534 0.30734 0.0
H196 H 0.83668 0.59748 0.34196 0.0
C197 C 0.94192 0.72109 0.34695 0.0
C198 C 0.90853 0.7472 0.31652 0.0
C199 C 0.77327 0.63846 0.40864 0.0
C200 C 0.75423 0.61292 0.39929 0.0
C201 C 0.76092 0.60075 0.3736 0.0
C202 C 0.78653 0.61363 0.35776 0.0
C203 C 0.8055 0.63921 0.36752 0.0
C204 C 0.79835 0.65129 0.39241 0.0
C205 C 0.8197 0.67926 0.39895 0.0
C206 C 0.84134 0.68186 0.37422 0.0
C207 C 0.83326 0.65825 0.35595 0.0
C208 C 0.83555 0.67548 0.42716 0.0
C209 C 0.80139 0.70354 0.3989 0.0
C210 C 0.88276 0.62864 0.26751 0.0
C211 C 0.9092 0.64077 0.25241 0.0
C212 C 0.92667 0.66743 0.26173 0.0
C213 C 0.91808 0.68161 0.28548 0.0
C214 C 0.89178 0.66903 0.30045 0.0
C215 C 0.87464 0.64292 0.29134 0.0
C216 C 0.84761 0.6324 0.30992 0.0
C217 C 0.85147 0.65616 0.3319 0.0
C218 C 0.87733 0.67786 0.32626 0.0
C219 C 0.85047 0.60311 0.32284 0.0
C220 C 0.81875 0.63105 0.29215 0.0
H221 H 0.85184 0.73279 0.42071 0.0
H222 H 0.94059 0.78416 0.36624 0.0
H223 H 0.88831 0.75698 0.31775 0.0
H224 H 0.90595 0.73432 0.29703 0.0
H225 H 0.92873 0.76502 0.31443 0.0
H226 H 0.94534 0.71552 0.36927 0.0
H227 H 0.96046 0.73949 0.34105 0.0
H228 H 0.94432 0.70187 0.33482 0.0
H229 H 0.76836 0.64867 0.42799 0.0
H230 H 0.74647 0.58108 0.36594 0.0
H231 H 0.79056 0.60323 0.3385 0.0
H232 H 0.83948 0.65316 0.42925 0.0
H233 H 0.82162 0.67944 0.44539 0.0
H234 H 0.85824 0.68956 0.42892 0.0
H235 H 0.78161 0.69824 0.38458 0.0
H236 H 0.81452 0.72433 0.39083 0.0
H237 H 0.79272 0.70687 0.42023 0.0
H238 H 0.8796 0.77835 0.43708 0.0
C239 C 0.87079 0.74305 0.40825 0.0
C240 C 0.73202 0.71954 0.90543 0.0
C241 C 0.75272 0.70406 0.89447 0.0
C242 C 0.7538 0.69969 0.86523 0.0
C243 C 0.71693 0.72914 0.85807 0.0
C244 C 0.71401 0.73151 0.88683 0.0
C245 C 0.6907 0.74863 0.89453 0.0
H246 H 0.60279 0.84012 0.85401 0.0
C247 C 0.69762 0.74652 0.84443 0.0
C248 C 0.68144 0.75734 0.86559 0.0
H249 H 0.614 0.80823 0.93767 0.0
H250 H 0.64458 0.77662 0.91908 0.0
H251 H 0.59516 0.77769 0.82149 0.0
H252 H 0.66985 0.84844 0.83728 0.0
H253 H 0.6752 0.83624 0.80333 0.0
H254 H 0.64208 0.85027 0.81094 0.0
H255 H 0.59956 0.81197 0.80412 0.0
H256 H 0.61673 0.78373 0.79042 0.0
C257 C 0.66433 0.72834 0.90999 0.0
C258 C 0.70643 0.77508 0.91203 0.0
C259 C 0.71839 0.77659 0.74293 0.0
C260 C 0.70894 0.79754 0.72631 0.0
C261 C 0.68397 0.80865 0.7352 0.0
C262 C 0.67048 0.80099 0.76144 0.0
C263 C 0.68235 0.78237 0.77911 0.0
C264 C 0.70508 0.76958 0.7693 0.0
C265 C 0.71548 0.75094 0.79117 0.0
C266 C 0.69617 0.75576 0.81616 0.0
C267 C 0.67705 0.77439 0.80904 0.0
C268 C 0.70787 0.71917 0.78089 0.0
C269 C 0.74957 0.76307 0.79641 0.0
C270 C 0.6117 0.82622 0.86831 0.0
C271 C 0.60605 0.82681 0.89737 0.0
C272 C 0.61776 0.80805 0.91518 0.0
C273 C 0.63576 0.78988 0.90439 0.0
C274 C 0.64237 0.79059 0.8755 0.0
C275 C 0.62982 0.80804 0.8579 0.0
C276 C 0.6397 0.80637 0.82787 0.0
C277 C 0.65991 0.78469 0.83027 0.0
C278 C 0.66177 0.77588 0.85831 0.0
C279 C 0.61142 0.79453 0.8098 0.0
C280 C 0.65747 0.83681 0.8191 0.0
H281 H 0.73831 0.70862 0.82492 0.0
H282 H 0.7303 0.72262 0.92789 0.0
H283 H 0.72828 0.78557 0.90216 0.0
H284 H 0.6932 0.79204 0.91352 0.0
H285 H 0.71122 0.76851 0.93369 0.0
H286 H 0.66256 0.70541 0.90375 0.0
H287 H 0.66741 0.72961 0.93315 0.0
H288 H 0.6421 0.73302 0.90462 0.0
H289 H 0.73718 0.76733 0.73635 0.0
H290 H 0.67623 0.82482 0.72279 0.0
H291 H 0.65243 0.81113 0.76759 0.0
H292 H 0.6896 0.71557 0.76487 0.0
H293 H 0.72785 0.71288 0.77121 0.0
H294 H 0.69912 0.70388 0.79809 0.0
H295 H 0.75414 0.78696 0.7987 0.0
H296 H 0.75812 0.75493 0.81575 0.0
H297 H 0.76338 0.7579 0.77857 0.0
H298 H 0.76952 0.68777 0.85635 0.0
C299 C 0.7359 0.71202 0.847 0.0
C300 C 0.89101 0.22458 0.40091 0.0
C301 C 0.90613 0.20538 0.3872 0.0
C302 C 0.90541 0.20381 0.35763 0.0
C303 C 0.87217 0.23757 0.35603 0.0
C304 C 0.87418 0.24045 0.38491 0.0
C305 C 0.85526 0.26067 0.39595 0.0
H306 H 0.74789 0.33744 0.37033 0.0
C307 C 0.85091 0.25487 0.34577 0.0
C308 C 0.84122 0.26891 0.36896 0.0
H309 H 0.78906 0.32564 0.45019 0.0
H310 H 0.82261 0.29934 0.42706 0.0
H311 H 0.74201 0.27532 0.35008 0.0
H312 H 0.81033 0.35141 0.33377 0.0
H313 H 0.80422 0.33227 0.30193 0.0
H314 H 0.77359 0.34541 0.31805 0.0
H315 H 0.73608 0.30319 0.32657 0.0
H316 H 0.75198 0.27352 0.31466 0.0
C317 C 0.83131 0.24346 0.41627 0.0
C318 C 0.87656 0.28692 0.40957 0.0
C319 C 0.81215 0.24065 0.2458 0.0
C320 C 0.78895 0.25023 0.23157 0.0
C321 C 0.77663 0.27237 0.24358 0.0
C322 C 0.78558 0.28309 0.27039 0.0
C323 C 0.8068 0.27134 0.28544 0.0
C324 C 0.82056 0.25131 0.27268 0.0
C325 C 0.84226 0.24087 0.29195 0.0
C326 C 0.83834 0.25712 0.31876 0.0
C327 C 0.81731 0.27463 0.31489 0.0
C328 C 0.83132 0.20775 0.29551 0.0
C329 C 0.8745 0.25039 0.27953 0.0
C330 C 0.76459 0.32985 0.38286 0.0
C331 C 0.76583 0.33373 0.41214 0.0
C332 C 0.78743 0.32272 0.42762 0.0
C333 C 0.8069 0.30749 0.41415 0.0
C334 C 0.80454 0.30294 0.38493 0.0
C335 C 0.78396 0.31454 0.3698 0.0
C336 C 0.7837 0.30702 0.33915 0.0
C337 C 0.80768 0.2891 0.33819 0.0
C338 C 0.8197 0.2865 0.36507 0.0
C339 C 0.75186 0.28899 0.33194 0.0
C340 C 0.79322 0.33539 0.32213 0.0
H341 H 0.88861 0.2173 0.31962 0.0
H342 H 0.89117 0.22626 0.42362 0.0
H343 H 0.89812 0.29287 0.39763 0.0
H344 H 0.8671 0.30657 0.40939 0.0
H345 H 0.88216 0.28206 0.43153 0.0
H346 H 0.82213 0.22143 0.40791 0.0
H347 H 0.84124 0.24104 0.43723 0.0
H348 H 0.8115 0.25325 0.41905 0.0
H349 H 0.82234 0.22396 0.23685 0.0
H350 H 0.7587 0.2801 0.23306 0.0
H351 H 0.77449 0.29908 0.27891 0.0
H352 H 0.80633 0.20193 0.2978 0.0
H353 H 0.83754 0.19604 0.27692 0.0
H354 H 0.84014 0.19909 0.31447 0.0
H355 H 0.87655 0.26996 0.26611 0.0
H356 H 0.89183 0.25672 0.29603 0.0
H357 H 0.88054 0.23312 0.26633 0.0
H358 H 0.91738 0.18964 0.34659 0.0
C359 C 0.88872 0.21992 0.342 0.0
C360 C 0.41103 0.65105 0.3031 0.0
C361 C 0.39647 0.62493 0.31609 0.0
C362 C 0.36923 0.60959 0.30427 0.0
C363 C 0.37143 0.6458 0.26763 0.0
C364 C 0.39805 0.66114 0.27912 0.0
C365 C 0.40997 0.68879 0.26305 0.0
H366 H 0.39018 0.77999 0.15661 0.0
C367 C 0.36388 0.66184 0.24272 0.0
C368 C 0.3864 0.68728 0.23995 0.0
H369 H 0.46381 0.79257 0.21575 0.0
H370 H 0.44262 0.74611 0.23744 0.0
H371 H 0.33645 0.75282 0.19969 0.0
H372 H 0.39265 0.71767 0.14268 0.0
H373 H 0.35856 0.69203 0.14346 0.0
H374 H 0.359 0.72814 0.13093 0.0
H375 H 0.33423 0.75491 0.16208 0.0
H376 H 0.31299 0.72456 0.18128 0.0
C377 C 0.41028 0.71449 0.28312 0.0
C378 C 0.44132 0.68751 0.25093 0.0
C379 C 0.27006 0.62086 0.1836 0.0
C380 C 0.25894 0.63037 0.15841 0.0
C381 C 0.27443 0.65629 0.14611 0.0
C382 C 0.30037 0.6727 0.15859 0.0
C383 C 0.31144 0.66305 0.18362 0.0
C384 C 0.29659 0.63737 0.19561 0.0
C385 C 0.3128 0.63009 0.22151 0.0
C386 C 0.33962 0.6557 0.22303 0.0
C387 C 0.33831 0.67501 0.20093 0.0
C388 C 0.29136 0.62926 0.24701 0.0
C389 C 0.32292 0.60135 0.21595 0.0
C390 C 0.40159 0.77294 0.17446 0.0
C391 C 0.42839 0.79021 0.18477 0.0
C392 C 0.44301 0.77973 0.20749 0.0
C393 C 0.4306 0.7528 0.22009 0.0
C394 C 0.40344 0.73592 0.20965 0.0
C395 C 0.3898 0.7461 0.1869 0.0
C396 C 0.36215 0.72511 0.17725 0.0
C397 C 0.36054 0.70097 0.19851 0.0
C398 C 0.38464 0.7072 0.2177 0.0
C399 C 0.33491 0.73997 0.17996 0.0
C400 C 0.3681 0.71526 0.14698 0.0
H401 H 0.33604 0.60691 0.27249 0.0
H402 H 0.4318 0.6636 0.31168 0.0
H403 H 0.44136 0.66557 0.24262 0.0
H404 H 0.44786 0.70232 0.23302 0.0
H405 H 0.45901 0.69249 0.26739 0.0
H406 H 0.38918 0.71094 0.29583 0.0
H407 H 0.42962 0.71716 0.2979 0.0
H408 H 0.41128 0.73505 0.27193 0.0
H409 H 0.25869 0.60084 0.19337 0.0
H410 H 0.26617 0.66406 0.12685 0.0
H411 H 0.31074 0.69236 0.14819 0.0
H412 H 0.27812 0.64646 0.24524 0.0
H413 H 0.27507 0.60819 0.24832 0.0
H414 H 0.30348 0.63349 0.26718 0.0
H415 H 0.33022 0.60012 0.19372 0.0
H416 H 0.34267 0.59903 0.22857 0.0
H417 H 0.30418 0.58251 0.21995 0.0
H418 H 0.35763 0.58932 0.31343 0.0
C419 C 0.35675 0.61978 0.28029 0.0
C420 C 0.09683 0.26862 0.69974 0.0
C421 C 0.10744 0.25425 0.67704 0.0
C422 C 0.1339 0.26801 0.66293 0.0
C423 C 0.139 0.30959 0.69363 0.0
C424 C 0.11322 0.29617 0.70788 0.0
C425 C 0.10659 0.31435 0.73235 0.0
H426 H 0.14463 0.43959 0.80759 0.0
C427 C 0.15095 0.3379 0.707 0.0
C428 C 0.13229 0.34093 0.72995 0.0
H429 H 0.07135 0.36662 0.82392 0.0
H430 H 0.08572 0.34201 0.78341 0.0
H431 H 0.13774 0.43946 0.73936 0.0
H432 H 0.19399 0.40111 0.79435 0.0
H433 H 0.21587 0.41607 0.76532 0.0
H434 H 0.20053 0.43939 0.78862 0.0
H435 H 0.16808 0.46067 0.75932 0.0
H436 H 0.1746 0.44605 0.72547 0.0
C437 C 0.07547 0.3219 0.72737 0.0
C438 C 0.10856 0.29735 0.75983 0.0
C439 C 0.24339 0.4033 0.66408 0.0
C440 C 0.26068 0.43063 0.67113 0.0
C441 C 0.25227 0.44483 0.69501 0.0
C442 C 0.22694 0.43213 0.71131 0.0
C443 C 0.20985 0.40475 0.70387 0.0
C444 C 0.2184 0.39086 0.68064 0.0
C445 C 0.19841 0.36166 0.67607 0.0
C446 C 0.17607 0.36032 0.70013 0.0
C447 C 0.1827 0.38559 0.7164 0.0
C448 C 0.18298 0.36204 0.64704 0.0
C449 C 0.21798 0.33859 0.67913 0.0
C450 C 0.13177 0.4182 0.80276 0.0
C451 C 0.10658 0.40535 0.8193 0.0
C452 C 0.09046 0.37753 0.81155 0.0
C453 C 0.09901 0.36303 0.78804 0.0
C454 C 0.1242 0.37618 0.7719 0.0
C455 C 0.14017 0.40331 0.77946 0.0
C456 C 0.16667 0.41387 0.7602 0.0
C457 C 0.16401 0.38872 0.73986 0.0
C458 C 0.13896 0.36657 0.74668 0.0
C459 C 0.16183 0.44159 0.74533 0.0
C460 C 0.19592 0.4181 0.77788 0.0
H461 H 0.1694 0.30458 0.65908 0.0
H462 H 0.07668 0.25843 0.71114 0.0
H463 H 0.12695 0.28514 0.75846 0.0
H464 H 0.1142 0.3115 0.77832 0.0
H465 H 0.08713 0.28156 0.76395 0.0
H466 H 0.07323 0.32823 0.70507 0.0
H467 H 0.05691 0.30307 0.73198 0.0
H468 H 0.07201 0.34044 0.74002 0.0
H469 H 0.2495 0.39149 0.64625 0.0
H470 H 0.26513 0.46593 0.70089 0.0
H471 H 0.22165 0.4441 0.7291 0.0
H472 H 0.17686 0.38325 0.64322 0.0
H473 H 0.19826 0.35838 0.62975 0.0
H474 H 0.16151 0.34604 0.64531 0.0
H475 H 0.23768 0.34622 0.69314 0.0
H476 H 0.20561 0.31847 0.68918 0.0
H477 H 0.22688 0.33331 0.65846 0.0
H478 H 0.14237 0.25753 0.64532 0.0
C479 C 0.14957 0.29546 0.67096 0.0
Dy480 Dy 0.03994 0.02901 0.52239 0.0
Dy481 Dy 0.97377 1.01527 0.55347 0.0
C482 C 0.02532 0.06992 0.57083 0.0
O483 O 0.0438 1.00443 0.56192 0.0
O484 O 0.9953 0.97867 0.56445 0.0
O485 O 0.08826 0.04319 0.52627 0.0
O486 O 0.06838 0.02778 0.48623 0.0
O487 O 0.96774 0.98699 0.51504 0.0
O488 O 0.01725 0.98511 0.50711 0.0
O489 O 0.97451 0.05467 0.52786 0.0
O490 O 0.01082 0.05046 0.4953 0.0
O491 O 0.92534 1.01025 0.55264 0.0
O492 O 0.94848 1.00764 0.59222 0.0
C493 C 0.02397 0.98169 0.57037 0.0
O494 O 0.03737 0.06927 0.54579 0.0
O495 O 1.0051 0.04776 0.58019 0.0
C496 C 0.11328 0.06437 0.48503 0.0
C497 C 0.1543 0.10856 0.457 0.0
C498 C 0.15737 0.10393 0.48592 0.0
C499 C 0.13715 0.08193 0.49977 0.0
C500 C 0.11006 0.06926 0.45617 0.0
C501 C 0.13031 0.09115 0.44234 0.0
C502 C 0.09292 0.04017 0.49945 0.0
C503 C 0.98827 0.9751 0.50288 0.0
C504 C 0.98812 0.06167 0.5037 0.0
C505 C 0.8985 0.98061 0.58878 0.0
C506 C 0.851 0.93632 0.60799 0.0
C507 C 0.86012 0.9373 0.57964 0.0
C508 C 0.88372 0.95929 0.57009 0.0
C509 C 0.88968 0.97938 0.61706 0.0
C510 C 0.86634 0.95743 0.62661 0.0
C511 C 0.92253 1.00485 0.57955 0.0
H512 H 0.17582 0.11685 0.49767 0.0
H513 H 0.14044 0.07844 0.52195 0.0
H514 H 0.09207 0.05602 0.44412 0.0
H515 H 0.12717 0.09447 0.4201 0.0
H516 H 0.84871 0.92139 0.56477 0.0
H517 H 0.89017 0.95972 0.54812 0.0
H518 H 0.90083 0.99554 0.63184 0.0
H519 H 0.86044 0.95694 0.64871 0.0
Dy520 Dy 0.47803 1.01358 1.02255 0.0
Dy521 Dy 0.54552 0.02879 0.05014 0.0
C522 C 0.49605 0.9735 0.07032 0.0
O523 O 0.47538 0.03776 0.06252 0.0
O524 O 0.52342 0.06466 0.06254 0.0
O525 O 0.43005 0.99906 1.02872 0.0
O526 O 0.44785 1.01304 0.98749 0.0
O527 O 0.54873 0.05554 1.01078 0.0
O528 O 0.49899 0.05782 1.00649 0.0
O529 O 0.54413 0.98882 1.02529 0.0
O530 O 0.50628 0.99221 0.99431 0.0
O531 O 0.59404 0.03613 0.04597 0.0
O532 O 0.5734 0.0375 0.08701 0.0
C533 C 0.49513 0.06082 0.07022 0.0
O534 O 0.48241 0.97379 0.04604 0.0
O535 O 0.51672 0.99585 0.07854 0.0
C536 C 0.40468 0.97575 0.98948 0.0
C537 C 0.36771 0.92801 0.96314 0.0
C538 C 0.39711 0.92678 0.97166 0.0
C539 C 0.41548 0.95051 0.98478 0.0
C540 C 0.37527 0.9769 0.98156 0.0
C541 C 0.35689 0.95323 0.96849 0.0
C542 C 0.42407 1.00118 1.0021 0.0
C543 C 0.52759 0.06764 1.00024 0.0
C544 C 0.52937 0.98121 1.00185 0.0
C545 C 0.62003 0.069 0.07911 0.0
C546 C 0.66033 0.11943 0.09661 0.0
C547 C 0.63089 0.12056 0.08819 0.0
C548 C 0.61089 0.09551 0.0794 0.0
C549 C 0.64967 0.06798 0.0864 0.0
C550 C 0.66973 0.09302 0.09504 0.0
C551 C 0.59848 0.04215 0.07258 0.0
H552 H 0.40597 0.90758 0.96801 0.0
H553 H 0.43819 0.94932 0.99093 0.0
H554 H 0.36669 0.9963 0.98505 0.0
H555 H 0.33455 0.95502 0.96176 0.0
H556 H 0.62314 0.14066 0.08903 0.0
H557 H 0.58807 0.09666 0.07359 0.0
H558 H 0.65703 0.04766 0.08623 0.0
H559 H 0.69213 0.09142 0.10175 0.0
Dy560 Dy 0.5039 0.48619 0.51706 0.0
Dy561 Dy 0.50971 0.54825 0.54956 0.0
C562 C 0.53559 0.49594 0.57739 0.0
O563 O 0.46591 0.48004 0.54821 0.0
O564 O 0.46081 0.52682 0.55007 0.0
O565 O 0.495 0.43957 0.51813 0.0
O566 O 0.50609 0.46217 0.47872 0.0
O567 O 0.49686 0.55646 0.50536 0.0
O568 O 0.47561 0.51036 0.49126 0.0
O569 O 0.55663 0.55083 0.53352 0.0
O570 O 0.54667 0.51395 0.50105 0.0
O571 O 0.51936 0.59492 0.55093 0.0
O572 O 0.50244 0.57012 0.58795 0.0
C573 C 0.45033 0.49937 0.55525 0.0
O574 O 0.53617 0.48438 0.55234 0.0
O575 O 0.52272 0.51802 0.58147 0.0
C576 C 0.52863 0.42276 0.48736 0.0
C577 C 0.58093 0.40111 0.47618 0.0
C578 C 0.57475 0.4095 0.50354 0.0
C579 C 0.54898 0.42034 0.50905 0.0
C580 C 0.5342 0.41356 0.46023 0.0
C581 C 0.56011 0.40286 0.45465 0.0
C582 C 0.5037 0.43781 0.49214 0.0
C583 C 0.4804 0.53855 0.48758 0.0
C584 C 0.56466 0.53665 0.51202 0.0
C585 C 0.48199 0.61021 0.57812 0.0
C586 C 0.4283 0.63036 0.58589 0.0
C587 C 0.43462 0.61881 0.55988 0.0
C588 C 0.46111 0.60866 0.5561 0.0
C589 C 0.47631 0.62258 0.60376 0.0
C590 C 0.44969 0.63255 0.60765 0.0
C591 C 0.50721 0.59531 0.57579 0.0
H592 H 0.59003 0.40802 0.5207 0.0
H593 H 0.54545 0.42752 0.53015 0.0
H594 H 0.51903 0.41558 0.44312 0.0
H595 H 0.56434 0.39695 0.43326 0.0
H596 H 0.41887 0.61716 0.54258 0.0
H597 H 0.46477 0.59873 0.53623 0.0
H598 H 0.49187 0.62344 0.62115 0.0
H599 H 0.44535 0.6409 0.62809 0.0
Dy600 Dy 0.01018 0.55672 1.01759 0.0
Dy601 Dy 1.00534 0.49476 0.05053 0.0
C602 C 0.98032 0.54624 0.07954 0.0
O603 O 0.05721 0.55956 0.03356 0.0
O604 O 0.04733 0.52345 0.06684 0.0
O605 O 0.01742 0.60336 1.0177 0.0
O606 O 1.0055 0.57966 0.9792 0.0
O607 O 0.03771 0.49362 1.01506 0.0
O608 O 0.0234 0.5266 0.9857 0.0
O609 O 0.96744 0.48752 1.01954 0.0
O610 O 0.9616 0.53403 1.01544 0.0
O611 O 0.99615 0.44817 0.04966 0.0
O612 O 0.00912 0.47085 0.08864 0.0
C613 C 0.06525 0.54602 0.05551 0.0
O614 O 0.99669 0.56429 0.06177 0.0
O615 O 0.97601 0.51808 0.07603 0.0
C616 C 0.98301 0.6189 0.98767 0.0
C617 C 0.93313 0.64394 0.97634 0.0
C618 C 0.92929 0.61755 0.99087 0.0
C619 C 0.95401 0.60532 0.99665 0.0
C620 C 0.98725 0.6455 0.97379 0.0
C621 C 0.96252 0.65804 0.96828 0.0
C622 C 0.00829 0.60444 0.99186 0.0
C623 C 0.03662 0.50478 0.98988 0.0
C624 C 0.95164 0.50626 1.01142 0.0
C625 C 0.03062 0.43108 0.07881 0.0
C626 C 0.08207 0.40774 0.08781 0.0
C627 C 0.07743 0.41988 0.0617 0.0
C628 C 0.05205 0.4316 0.0573 0.0
C629 C 0.03478 0.41831 0.10467 0.0
C630 C 0.06032 0.40675 0.10917 0.0
C631 C 1.0058 0.44639 0.07528 0.0
H632 H 0.90707 0.60578 0.99701 0.0
H633 H 0.95034 0.58486 1.0076 0.0
H634 H 0.00956 0.65635 0.96687 0.0
H635 H 0.96639 0.67861 0.95747 0.0
H636 H 0.09395 0.42123 0.04498 0.0
H637 H 0.04964 0.44178 0.03733 0.0
H638 H 0.01866 0.41794 0.1216 0.0
H639 H 0.06323 0.39726 0.12943 0.0
C640 C 0.28074 0.22196 0.37264 0.0
C641 C 0.26547 0.23507 0.35248 0.0
C642 C 0.26475 0.20341 0.39311 0.0
C643 C 0.23281 0.19787 0.3933 0.0
C644 C 0.21741 0.2124 0.3741 0.0
C645 C 0.23391 0.23074 0.3539 0.0
C646 C 0.28193 0.18847 0.41343 0.0
C647 C 0.18335 0.20708 0.37361 0.0
C648 C 0.1876 0.12484 0.41571 0.0
C649 C 0.17627 0.13109 0.44188 0.0
C650 C 0.20697 0.14619 0.40021 0.0
C651 C 0.21523 0.17454 0.41116 0.0
C652 C 0.20475 0.18079 0.43803 0.0
C653 C 0.18536 0.15893 0.45313 0.0
C654 C 0.21779 0.13862 0.37167 0.0
C655 C 0.21309 0.21076 0.45034 0.0
H656 H 0.30514 0.22552 0.37189 0.0
H657 H 0.22182 0.24036 0.33817 0.0
H658 H 0.2734 0.18976 0.43517 0.0
H659 H 0.27846 0.16526 0.40788 0.0
H660 H 0.30654 0.19792 0.41304 0.0
H661 H 0.17502 0.22233 0.35945 0.0
H662 H 0.17406 0.18475 0.36628 0.0
H663 H 0.17436 0.2091 0.39505 0.0
H664 H 0.18109 0.10319 0.40721 0.0
H665 H 0.17653 0.16386 0.47332 0.0
H666 H 0.24276 0.14484 0.37045 0.0
H667 H 0.20864 0.15089 0.35512 0.0
H668 H 0.21069 0.11522 0.36692 0.0
H669 H 0.23786 0.21901 0.44929 0.0
H670 H 0.20562 0.21139 0.47255 0.0
H671 H 0.20245 0.22568 0.43783 0.0
C672 C 0.26755 0.80069 0.86973 0.0
C673 C 0.25808 0.81502 0.84671 0.0
C674 C 0.28452 0.81625 0.89152 0.0
C675 C 0.29225 0.84676 0.89008 0.0
C676 C 0.28213 0.86132 0.86723 0.0
C677 C 0.26523 0.84528 0.84585 0.0
C678 C 0.29481 0.80007 0.91567 0.0
C679 C 0.28999 0.89386 0.86488 0.0
C680 C 0.31789 0.89543 0.95236 0.0
C681 C 0.34896 0.90397 0.94705 0.0
C682 C 0.29927 0.87541 0.9349 0.0
C683 C 0.31207 0.86376 0.9116 0.0
C684 C 0.34365 0.87105 0.9071 0.0
C685 C 0.36172 0.8911 0.92488 0.0
C686 C 0.26572 0.86799 0.94048 0.0
C687 C 0.35814 0.85908 0.88246 0.0
H688 H 0.26189 0.77731 0.87057 0.0
H689 H 0.25852 0.85649 0.82787 0.0
H690 H 0.3198 0.80358 0.91554 0.0
H691 H 0.28814 0.80841 0.93599 0.0
H692 H 0.28527 0.77649 0.9146 0.0
H693 H 0.27931 0.90187 0.84635 0.0
H694 H 0.28268 0.90378 0.88409 0.0
H695 H 0.31482 0.90139 0.86309 0.0
H696 H 0.30802 0.90498 0.96977 0.0
H697 H 0.38567 0.89779 0.92052 0.0
H698 H 0.25713 0.84428 0.93963 0.0
H699 H 0.25385 0.87776 0.92392 0.0
H700 H 0.25985 0.87603 0.96126 0.0
H701 H 0.35044 0.83528 0.88138 0.0
H702 H 0.38318 0.86441 0.88365 0.0
H703 H 0.35122 0.86814 0.86261 0.0
C704 C 0.62789 0.43912 0.70278 0.0
C705 C 0.60885 0.42242 0.72279 0.0
C706 C 0.61627 0.45049 0.67884 0.0
C707 C 0.58471 0.4448 0.67418 0.0
C708 C 0.56536 0.42724 0.69375 0.0
C709 C 0.57758 0.41641 0.71777 0.0
C710 C 0.63786 0.46908 0.65872 0.0
C711 C 0.53162 0.42029 0.68956 0.0
C712 C 0.55247 0.49733 0.62805 0.0
C713 C 0.54884 0.48314 0.60194 0.0
C714 C 0.56408 0.48515 0.65157 0.0
C715 C 0.57203 0.45785 0.64926 0.0
C716 C 0.56837 0.44338 0.62299 0.0
C717 C 0.55704 0.45622 0.59971 0.0
C718 C 0.56795 0.50163 0.67893 0.0
C719 C 0.57621 0.41416 0.61949 0.0
H720 H 0.6521 0.44344 0.70582 0.0
H721 H 0.56248 0.40382 0.73299 0.0
H722 H 0.63504 0.45976 0.63726 0.0
H723 H 0.63274 0.49094 0.65756 0.0
H724 H 0.6618 0.47129 0.66509 0.0
H725 H 0.51973 0.40509 0.70573 0.0
H726 H 0.52286 0.44043 0.69045 0.0
H727 H 0.52605 0.41065 0.66847 0.0
H728 H 0.54631 0.51812 0.63015 0.0
H729 H 0.5542 0.44487 0.57982 0.0
H730 H 0.59194 0.50572 0.68555 0.0
H731 H 0.55446 0.48859 0.69571 0.0
H732 H 0.56091 0.52265 0.67734 0.0
H733 H 0.60039 0.41559 0.6244 0.0
H734 H 0.57178 0.40554 0.59784 0.0
H735 H 0.56288 0.39857 0.63452 0.0
C736 C 0.89724 0.6125 0.20722 0.0
C737 C 0.91859 0.62566 0.2272 0.0
C738 C 0.90583 0.59853 0.1833 0.0
C739 C 0.93654 0.59733 0.17916 0.0
C740 C 0.95812 0.61023 0.19943 0.0
C741 C 0.94895 0.62428 0.22302 0.0
C742 C 0.88207 0.58547 0.16217 0.0
C743 C 0.99103 0.60931 0.19613 0.0
C744 C 0.9573 0.54159 0.12836 0.0
C745 C 0.96732 0.55852 0.10456 0.0
C746 C 0.94702 0.55379 0.15265 0.0
C747 C 0.94632 0.5836 0.15317 0.0
C748 C 0.95568 0.60057 0.12894 0.0
C749 C 0.96616 0.58794 0.10513 0.0
C750 C 0.9375 0.53488 0.17801 0.0
C751 C 0.95499 0.63229 0.12823 0.0
H752 H 0.87379 0.61364 0.20999 0.0
H753 H 0.96561 0.63395 0.23844 0.0
H754 H 0.88729 0.59625 0.1415 0.0
H755 H 0.88209 0.56226 0.15914 0.0
H756 H 0.85907 0.58751 0.16872 0.0
H757 H 1.00486 0.61939 0.21418 0.0
H758 H 0.99356 0.58662 0.19408 0.0
H759 H 1.00015 0.62078 0.17662 0.0
H760 H 0.95819 0.51891 0.12829 0.0
H761 H 0.9736 0.60128 0.08689 0.0
H762 H 0.91409 0.53574 0.18417 0.0
H763 H 0.95229 0.54303 0.19608 0.0
H764 H 0.93863 0.51202 0.17412 0.0
H765 H 0.93198 0.63535 0.13332 0.0
H766 H 0.96176 0.64225 0.10742 0.0
H767 H 0.97047 0.64399 0.14442 0.0
C768 C 0.41286 0.18014 0.13037 0.0
C769 C 0.42246 0.18972 0.15745 0.0
C770 C 0.42685 0.16091 0.1156 0.0
C771 C 0.45051 0.15037 0.12845 0.0
C772 C 0.46094 0.16053 0.15536 0.0
C773 C 0.44711 0.18039 0.16934 0.0
C774 C 0.41555 0.15107 0.08663 0.0
C775 C 0.48587 0.14951 0.16991 0.0
C776 C 0.45947 0.07649 0.10382 0.0
C777 C 0.48484 0.08355 0.08632 0.0
C778 C 0.44861 0.09802 0.11827 0.0
C779 C 0.46299 0.12736 0.11447 0.0
C780 C 0.4887 0.1346 0.09685 0.0
C781 C 0.49958 0.11254 0.08326 0.0
C782 C 0.42157 0.08938 0.13742 0.0
C783 C 0.50414 0.16566 0.0917 0.0
H784 H 0.39365 0.18678 0.12101 0.0
H785 H 0.45528 0.18815 0.1899 0.0
H786 H 0.43472 0.1532 0.07168 0.0
H787 H 0.40419 0.12792 0.08731 0.0
H788 H 0.3993 0.1636 0.0784 0.0
H789 H 0.49224 0.16047 0.19032 0.0
H790 H 0.47849 0.12597 0.1738 0.0
H791 H 0.5062 0.15263 0.1563 0.0
H792 H 0.44817 0.05406 0.10632 0.0
H793 H 0.51903 0.11806 0.06947 0.0
H794 H 0.40248 0.09822 0.12926 0.0
H795 H 0.42698 0.09858 0.1587 0.0
H796 H 0.4141 0.06557 0.13933 0.0
H797 H 0.48807 0.17733 0.08175 0.0
H798 H 0.52425 0.16762 0.07786 0.0
H799 H 0.51128 0.17662 0.11191 0.0
C800 C 0.07097 0.86083 0.66747 0.0
C801 C 0.09455 0.85011 0.65509 0.0
C802 C 0.05758 0.88092 0.65343 0.0
C803 C 0.06739 0.88995 0.62599 0.0
C804 C 0.08976 0.87786 0.61262 0.0
C805 C 0.10331 0.85834 0.62743 0.0
C806 C 0.03398 0.89352 0.66849 0.0
C807 C 0.10031 0.88646 0.5831 0.0
C808 C 0.0186 0.9297 0.58279 0.0
C809 C 0.03441 0.95839 0.58541 0.0
C810 C 0.0292 0.90709 0.59563 0.0
C811 C 0.05578 0.91349 0.61205 0.0
C812 C 0.07147 0.94252 0.6152 0.0
C813 C 0.0608 0.9646 0.6015 0.0
C814 C 0.01233 0.87637 0.59119 0.0
C815 C 0.09953 0.95027 0.63304 0.0
H816 H 0.06345 0.85408 0.68853 0.0
H817 H 0.12166 0.8505 0.61767 0.0
H818 H 0.04262 0.917 0.67181 0.0
H819 H 0.0133 0.89107 0.65552 0.0
H820 H 0.02778 0.88317 0.68925 0.0
H821 H 0.11523 0.87268 0.57456 0.0
H822 H 0.0807 0.88506 0.56886 0.0
H823 H 0.11296 0.90922 0.58296 0.0
H824 H 0.99838 0.92483 0.57001 0.0
H825 H 0.07297 0.98679 0.60361 0.0
H826 H 1.00496 0.86607 0.61169 0.0
H827 H 0.02749 0.86363 0.5813 0.0
H828 H 0.99217 0.87505 0.57762 0.0
H829 H 0.09463 0.94185 0.6547 0.0
H830 H 0.10841 0.97396 0.63416 0.0
H831 H 0.11743 0.94003 0.62433 0.0
C832 C 0.78522 0.44187 0.95316 0.0
C833 C 0.78477 0.43745 0.92396 0.0
C834 C 0.81174 0.45546 0.96708 0.0
C835 C 0.8387 0.46485 0.95151 0.0
C836 C 0.83808 0.46166 0.92183 0.0
C837 C 0.8111 0.4481 0.9084 0.0
C838 C 0.81118 0.45866 0.99865 0.0
C839 C 0.86627 0.47133 0.90441 0.0
C840 C 0.90493 0.51527 0.98736 0.0
C841 C 0.92241 0.49584 0.99656 0.0
C842 C 0.87782 0.50563 0.97249 0.0
C843 C 0.86786 0.47583 0.96656 0.0
C844 C 0.88541 0.45615 0.97576 0.0
C845 C 0.91234 0.46635 0.99062 0.0
C846 C 0.85979 0.52735 0.96319 0.0
C847 C 0.87572 0.4242 0.96993 0.0
H848 H 0.76484 0.43408 0.96529 0.0
H849 H 0.81099 0.44464 0.88587 0.0
H850 H 0.82523 0.44481 1.00845 0.0
H851 H 0.82097 0.48128 1.00476 0.0
H852 H 0.78796 0.45247 1.0074 0.0
H853 H 0.86154 0.46973 0.88149 0.0
H854 H 0.87714 0.49397 0.90951 0.0
H855 H 0.88271 0.45774 0.90947 0.0
H856 H 0.91245 0.53811 0.99169 0.0
H857 H 0.92561 0.45109 0.99745 0.0
H858 H 0.837 0.52213 0.97288 0.0
H859 H 0.85666 0.52625 0.94006 0.0
H860 H 0.87083 0.5498 0.969 0.0
H861 H 0.85347 0.41559 0.97987 0.0
H862 H 0.89217 0.41179 0.97798 0.0
H863 H 0.87303 0.42045 0.94697 0.0
C864 C 0.73011 0.59424 0.44499 0.0
C865 C 0.72725 0.5996 0.41623 0.0
C866 C 0.70467 0.58311 0.4617 0.0
C867 C 0.67554 0.57784 0.44951 0.0
C868 C 0.67256 0.5831 0.4204 0.0
C869 C 0.69848 0.59361 0.40405 0.0
C870 C 0.70897 0.57713 0.49243 0.0
C871 C 0.64192 0.57826 0.40665 0.0
C872 C 0.60882 0.52757 0.48451 0.0
C873 C 0.59443 0.54711 0.49835 0.0
C874 C 0.63572 0.53718 0.46933 0.0
C875 C 0.64814 0.56716 0.46722 0.0
C876 C 0.6339 0.58697 0.48149 0.0
C877 C 0.60744 0.57668 0.49719 0.0
C878 C 0.65055 0.51524 0.45517 0.0
C879 C 0.64605 0.61912 0.47939 0.0
H880 H 0.75237 0.59871 0.45441 0.0
H881 H 0.69619 0.59802 0.38189 0.0
H882 H 0.69765 0.59102 0.5056 0.0
H883 H 0.69834 0.55437 0.49743 0.0
H884 H 0.73318 0.58111 0.49839 0.0
H885 H 0.64342 0.58357 0.38387 0.0
H886 H 0.63005 0.55541 0.40918 0.0
H887 H 0.62791 0.59178 0.4171 0.0
H888 H 0.59895 0.50466 0.48547 0.0
H889 H 0.59623 0.59188 0.50759 0.0
H890 H 0.67464 0.51877 0.46135 0.0
H891 H 0.6499 0.51787 0.43202 0.0
H892 H 0.63932 0.4927 0.46056 0.0
H893 H 0.6698 0.6246 0.48667 0.0
H894 H 0.63262 0.63165 0.492 0.0
H895 H 0.64594 0.62604 0.4571 0.0
C896 C 0.24254 0.3652 0.11541 0.0
C897 C 0.23686 0.34048 0.13235 0.0
C898 C 0.21853 0.37661 0.10487 0.0
C899 C 0.18841 0.36269 0.11131 0.0
C900 C 0.18273 0.33678 0.12708 0.0
C901 C 0.20705 0.32607 0.13749 0.0
C902 C 0.22539 0.4043 0.08814 0.0
C903 C 0.15099 0.32107 0.13414 0.0
C904 C 0.12637 0.40473 0.11791 0.0
C905 C 0.11005 0.39711 0.09308 0.0
C906 C 0.15265 0.39461 0.1235 0.0
C907 C 0.16276 0.37625 0.10387 0.0
C908 C 0.1468 0.36904 0.07843 0.0
C909 C 0.12064 0.37963 0.0733 0.0
C910 C 0.16916 0.40296 0.1508 0.0
C911 C 0.15679 0.34937 0.05711 0.0
H912 H 0.26566 0.3763 0.11153 0.0
H913 H 0.20278 0.30674 0.15038 0.0
H914 H 0.21172 0.40208 0.06865 0.0
H915 H 0.21923 0.42193 0.1007 0.0
H916 H 0.24966 0.4107 0.08239 0.0
H917 H 0.15044 0.29995 0.14451 0.0
H918 H 0.14037 0.33453 0.14847 0.0
H919 H 0.13703 0.31731 0.11484 0.0
H920 H 0.11857 0.41872 0.13297 0.0
H921 H 0.10801 0.37366 0.05411 0.0
H922 H 0.19337 0.41218 0.14662 0.0
H923 H 0.16796 0.38348 0.16407 0.0
H924 H 0.15956 0.41897 0.16288 0.0
H925 H 0.18102 0.35712 0.05193 0.0
H926 H 0.14348 0.34787 0.03737 0.0
H927 H 0.15419 0.32737 0.06611 0.0
C928 C 0.57376 0.19885 0.88832 0.0
C929 C 0.58191 0.22521 0.90273 0.0
C930 C 0.56405 0.17258 0.90294 0.0
C931 C 0.56224 0.17255 0.93273 0.0
C932 C 0.56973 0.19917 0.94731 0.0
C933 C 0.57942 0.22503 0.9322 0.0
C934 C 0.55634 0.14475 0.88654 0.0
C935 C 0.56792 0.20033 0.97898 0.0
C936 C 0.51441 0.10837 0.97207 0.0
C937 C 0.53632 0.09377 0.98193 0.0
C938 C 0.52242 0.13365 0.9557 0.0
C939 C 0.55312 0.14477 0.94882 0.0
C940 C 0.57529 0.1299 0.95833 0.0
C941 C 0.56667 0.10471 0.97474 0.0
C942 C 0.49803 0.14878 0.94617 0.0
C943 C 0.60827 0.14088 0.95154 0.0
H944 H 0.57582 0.19864 0.86562 0.0
H945 H 0.58515 0.24526 0.94357 0.0
H946 H 0.57194 0.13059 0.89244 0.0
H947 H 0.53314 0.13297 0.89182 0.0
H948 H 0.55785 0.14843 0.86346 0.0
H949 H 0.57375 0.22278 0.98714 0.0
H950 H 0.54481 0.19019 0.98617 0.0
H951 H 0.58356 0.18786 0.98841 0.0
H952 H 0.4909 0.10027 0.97744 0.0
H953 H 0.58385 0.09372 0.98214 0.0
H954 H 0.49881 0.15139 0.92298 0.0
H955 H 0.50192 0.17074 0.95544 0.0
H956 H 0.47512 0.13687 0.95233 0.0
H957 H 0.61147 0.14327 0.92846 0.0
H958 H 0.6226 0.1263 0.9595 0.0
H959 H 0.61623 0.16256 0.96098 0.0
C960 C 0.93414 0.83835 0.39842 0.0
C961 C 0.92883 0.81315 0.4148 0.0
C962 C 0.9452 0.86567 0.41069 0.0
C963 C 0.95129 0.86781 0.43997 0.0
C964 C 0.94729 0.84223 0.45625 0.0
C965 C 0.93612 0.81535 0.44351 0.0
C966 C 0.9492 0.89233 0.39254 0.0
C967 C 0.95379 0.84329 0.48741 0.0
C968 C 1.00028 0.93522 0.47278 0.0
C969 C 0.97866 0.94868 0.4852 0.0
C970 C 0.99172 0.90946 0.4573 0.0
C971 C 0.96074 0.89665 0.45403 0.0
C972 C 0.93878 0.91047 0.46591 0.0
C973 C 0.94796 0.93623 0.48132 0.0
C974 C 0.01592 0.89552 0.44511 0.0
C975 C 0.9055 0.89762 0.46299 0.0
H976 H 0.92832 0.83684 0.3763 0.0
H977 H 0.93233 0.79593 0.45625 0.0
H978 H 0.93288 0.90553 0.39913 0.0
H979 H 0.97217 0.90585 0.3953 0.0
H980 H 0.94564 0.88699 0.36989 0.0
H981 H 0.95103 0.82141 0.49679 0.0
H982 H 0.97716 0.85538 0.49139 0.0
H983 H 0.9383 0.85493 0.49837 0.0
H984 H 0.02406 0.94455 0.4755 0.0
H985 H 0.931 0.94634 0.49071 0.0
H986 H 0.01187 0.89121 0.42237 0.0
H987 H 0.01515 0.87442 0.45552 0.0
H988 H 0.0389 0.90913 0.44782 0.0
H989 H 0.89959 0.8937 0.4405 0.0
H990 H 0.89124 0.91179 0.47199 0.0
H991 H 0.89997 0.87644 0.47388 0.0
C992 C 0.2748 0.6583 0.64725 0.0
C993 C 0.26423 0.6804 0.63345 0.0
C994 C 0.29941 0.64799 0.63669 0.0
C995 C 0.31345 0.65969 0.61143 0.0
C996 C 0.30121 0.68011 0.5961 0.0
C997 C 0.27682 0.69038 0.60738 0.0
C998 C 0.31174 0.62617 0.6537 0.0
C999 C 0.31516 0.6926 0.56876 0.0
C1000 C 0.39767 0.66336 0.6069 0.0
C1001 C 0.39895 0.63887 0.5908 0.0
C1002 C 0.36998 0.67058 0.6133 0.0
C1003 C 0.34288 0.65313 0.60303 0.0
C1004 C 0.34401 0.62889 0.58602 0.0
C1005 C 0.37202 0.62192 0.58029 0.0
C1006 C 0.36971 0.69653 0.63168 0.0
C1007 C 0.31563 0.60996 0.57446 0.0
H1008 H 0.26472 0.65004 0.6671 0.0
H1009 H 0.26889 0.70752 0.59661 0.0
H1010 H 0.31546 0.6082 0.64016 0.0
H1011 H 0.33394 0.63668 0.66266 0.0
H1012 H 0.29646 0.61706 0.67126 0.0
H1013 H 0.30035 0.70464 0.55735 0.0
H1014 H 0.33697 0.70764 0.57309 0.0
H1015 H 0.31994 0.67527 0.55489 0.0
H1016 H 0.41836 0.67685 0.61469 0.0
H1017 H 0.37271 0.6027 0.56817 0.0
H1018 H 0.35668 0.68963 0.65118 0.0
H1019 H 0.35836 0.71189 0.62061 0.0
H1020 H 0.39279 0.70807 0.63764 0.0
H1021 H 0.30175 0.59866 0.59197 0.0
H1022 H 0.32057 0.59349 0.55956 0.0
H1023 H 0.30183 0.6233 0.56351 0.0
C1024 C 0.75937 0.82012 0.70683 0.0
C1025 C 0.72814 0.81141 0.70273 0.0
C1026 C 0.77771 0.83761 0.68719 0.0
C1027 C 0.76457 0.84648 0.66264 0.0
C1028 C 0.73342 0.83617 0.65739 0.0
C1029 C 0.71544 0.81895 0.67769 0.0
C1030 C 0.81077 0.84836 0.6938 0.0
C1031 C 0.71878 0.84461 0.63113 0.0
C1032 C 0.80552 0.92031 0.63841 0.0
C1033 C 0.82584 0.91339 0.6186 0.0
C1034 C 0.78427 0.89871 0.65176 0.0
C1035 C 0.78286 0.86943 0.64476 0.0
C1036 C 0.80168 0.86239 0.62323 0.0
C1037 C 0.82316 0.88448 0.6105 0.0
C1038 C 0.76469 0.90719 0.67468 0.0
C1039 C 0.80036 0.83146 0.61478 0.0
H1040 H 0.76928 0.81477 0.72633 0.0
H1041 H 0.69135 0.81206 0.67436 0.0
H1042 H 0.82494 0.84472 0.67568 0.0
H1043 H 0.81528 0.87196 0.69777 0.0
H1044 H 0.81792 0.83758 0.71258 0.0
H1045 H 0.69596 0.8309 0.62779 0.0
H1046 H 0.71653 0.86741 0.63284 0.0
H1047 H 0.73295 0.84299 0.61239 0.0
H1048 H 0.80687 0.94267 0.64417 0.0
H1049 H 0.83874 0.87893 0.59519 0.0
H1050 H 0.771 0.8991 0.69524 0.0
H1051 H 0.74062 0.89722 0.67092 0.0
H1052 H 0.76707 0.93096 0.67619 0.0
H1053 H 0.81105 0.82051 0.63133 0.0
H1054 H 0.81235 0.82995 0.59462 0.0
H1055 H 0.77661 0.81956 0.6127 0.0
C1056 C 0.76586 0.24884 0.18342 0.0
C1057 C 0.77456 0.23429 0.20665 0.0
C1058 C 0.74906 0.23348 0.1614 0.0
C1059 C 0.74044 0.20301 0.16301 0.0
C1060 C 0.75004 0.18824 0.18599 0.0
C1061 C 0.76703 0.20405 0.20743 0.0
C1062 C 0.73962 0.24988 0.13699 0.0
C1063 C 0.74108 0.15576 0.18869 0.0
C1064 C 0.66875 0.15986 0.13117 0.0
C1065 C 0.68021 0.14478 0.10984 0.0
C1066 C 0.68802 0.18052 0.14745 0.0
C1067 C 0.71947 0.18633 0.14211 0.0
C1068 C 0.73088 0.17279 0.11922 0.0
C1069 C 0.7111 0.15198 0.10344 0.0
C1070 C 0.67494 0.19434 0.17179 0.0
C1071 C 0.76419 0.17882 0.11257 0.0
H1072 H 0.77177 0.27222 0.18272 0.0
H1073 H 0.7732 0.19271 0.22558 0.0
H1074 H 0.74459 0.24014 0.11677 0.0
H1075 H 0.71491 0.2485 0.13787 0.0
H1076 H 0.75116 0.27302 0.13715 0.0
H1077 H 0.75155 0.14754 0.20722 0.0
H1078 H 0.71618 0.14906 0.19072 0.0
H1079 H 0.74777 0.14529 0.16954 0.0
H1080 H 0.64493 0.1542 0.13636 0.0
H1081 H 0.71994 0.14061 0.08669 0.0
H1082 H 0.68378 0.21801 0.1719 0.0
H1083 H 0.68181 0.18567 0.19186 0.0
H1084 H 0.6499 0.1901 0.17111 0.0
H1085 H 0.7739 0.20236 0.11323 0.0
H1086 H 0.76878 0.17039 0.09158 0.0
H1087 H 0.77605 0.16841 0.12865 0.0
C1088 C 0.39016 0.60145 0.36407 0.0
C1089 C 0.40921 0.61338 0.34178 0.0
C1090 C 0.40134 0.58932 0.38782 0.0
C1091 C 0.43243 0.58874 0.38951 0.0
C1092 C 0.45186 0.60094 0.3672 0.0
C1093 C 0.4401 0.61323 0.34377 0.0
C1094 C 0.37979 0.57708 0.41117 0.0
C1095 C 0.48508 0.6007 0.36791 0.0
C1096 C 0.46693 0.58054 0.46174 0.0
C1097 C 0.46735 0.55095 0.46267 0.0
C1098 C 0.45557 0.59298 0.43828 0.0
C1099 C 0.44457 0.57564 0.41472 0.0
C1100 C 0.44489 0.54574 0.41549 0.0
C1101 C 0.45604 0.53376 0.43943 0.0
C1102 C 0.45533 0.62479 0.43875 0.0
C1103 C 0.43364 0.52642 0.39086 0.0
H1104 H 0.36635 0.60177 0.36303 0.0
H1105 H 0.45501 0.62209 0.32664 0.0
H1106 H 0.37965 0.55383 0.4141 0.0
H1107 H 0.38737 0.58812 0.43126 0.0
H1108 H 0.35635 0.57945 0.4069 0.0
H1109 H 0.49721 0.61091 0.34895 0.0
H1110 H 0.4956 0.61233 0.3868 0.0
H1111 H 0.48819 0.57815 0.36944 0.0
H1112 H 0.4754 0.59413 0.47952 0.0
H1113 H 0.45635 0.51095 0.43973 0.0
H1114 H 0.43198 0.62795 0.43571 0.0
H1115 H 0.46918 0.63593 0.42115 0.0
H1116 H 0.4642 0.63526 0.45879 0.0
H1117 H 0.40961 0.52661 0.38674 0.0
H1118 H 0.43573 0.50376 0.39447 0.0
H1119 H 0.44656 0.53466 0.37165 0.0
C1120 C 0.11878 0.43846 0.86155 0.0
C1121 C 0.09719 0.42072 0.84447 0.0
C1122 C 0.11025 0.45292 0.88518 0.0
C1123 C 0.07932 0.44944 0.89237 0.0
C1124 C 0.05741 0.43153 0.87534 0.0
C1125 C 0.06654 0.41763 0.85164 0.0
C1126 C 0.13441 0.4719 0.90253 0.0
C1127 C 0.02421 0.42698 0.8822 0.0
C1128 C 0.05726 0.46449 0.96781 0.0
C1129 C 0.0493 0.49149 0.9653 0.0
C1130 C 0.06727 0.45075 0.94444 0.0
C1131 C 0.06981 0.46435 0.91772 0.0
C1132 C 0.0625 0.49191 0.91515 0.0
C1133 C 0.0522 0.50501 0.93882 0.0
C1134 C 0.07447 0.4213 0.94825 0.0
C1135 C 0.06524 0.50746 0.88725 0.0
H1136 H 0.14254 0.4408 0.85674 0.0
H1137 H 0.04947 0.40454 0.83852 0.0
H1138 H 0.13014 0.49408 0.90367 0.0
H1139 H 0.13378 0.46354 0.92436 0.0
H1140 H 0.15738 0.47307 0.89378 0.0
H1141 H 0.00999 0.41202 0.86724 0.0
H1142 H 0.01993 0.41807 0.90376 0.0
H1143 H 0.01702 0.44794 0.88179 0.0
H1144 H 0.05498 0.45365 0.98798 0.0
H1145 H 0.04625 0.52587 0.9365 0.0
H1146 H 0.09784 0.42159 0.9411 0.0
H1147 H 0.0591 0.40529 0.93509 0.0
H1148 H 0.07216 0.41393 0.97048 0.0
H1149 H 0.08844 0.5097 0.87878 0.0
H1150 H 0.06001 0.52927 0.88892 0.0
H1151 H 0.04959 0.49465 0.87182 0.0
C1152 C 0.59716 0.87711 0.89984 0.0
C1153 C 0.5901 0.84842 0.90936 0.0
C1154 C 0.58476 0.89854 0.91279 0.0
C1155 C 0.56488 0.89114 0.93588 0.0
C1156 C 0.5566 0.86201 0.94479 0.0
C1157 C 0.56935 0.84099 0.93144 0.0
C1158 C 0.59424 0.92936 0.90272 0.0
C1159 C 0.53534 0.85327 0.96925 0.0
C1160 C 0.56488 0.94905 0.99076 0.0
C1161 C 0.53841 0.95859 0.98434 0.0
C1162 C 0.57361 0.92713 0.97514 0.0
C1163 C 0.55542 0.91428 0.95251 0.0
C1164 C 0.52868 0.92377 0.94581 0.0
C1165 C 0.5205 0.9459 0.96178 0.0
C1166 C 0.60237 0.91769 0.98292 0.0
C1167 C 0.50871 0.9105 0.92185 0.0
H1168 H 0.61346 0.88311 0.88303 0.0
H1169 H 0.56348 0.81879 0.93862 0.0
H1170 H 0.57418 0.93891 0.89943 0.0
H1171 H 0.60841 0.94249 0.91898 0.0
H1172 H 0.60735 0.93107 0.8828 0.0
H1173 H 0.52881 0.82945 0.97175 0.0
H1174 H 0.54631 0.86262 0.98896 0.0
H1175 H 0.51459 0.86189 0.9665 0.0
H1176 H 0.57894 0.95873 1.00809 0.0
H1177 H 0.49991 0.95301 0.95677 0.0
H1178 H 0.61813 0.92077 0.96476 0.0
H1179 H 0.59733 0.89436 0.9882 0.0
H1180 H 0.61396 0.92989 1.00113 0.0
H1181 H 0.52164 0.91348 0.90185 0.0
H1182 H 0.4885 0.92009 0.91953 0.0
H1183 H 0.50113 0.88691 0.92526 0.0
C1184 C 0.91525 0.1561 0.39645 0.0
C1185 C 0.92082 0.18549 0.4035 0.0
C1186 C 0.92782 0.13653 0.41209 0.0
C1187 C 0.94658 0.14659 0.43529 0.0
C1188 C 0.95281 0.17634 0.44221 0.0
C1189 C 0.93966 0.19545 0.42632 0.0
C1190 C 0.92026 0.10492 0.40428 0.0
C1191 C 0.97293 0.18787 0.46666 0.0
C1192 C 0.95079 0.09194 0.49255 0.0
C1193 C 0.97793 0.08357 0.48609 0.0
C1194 C 0.94059 0.11268 0.47639 0.0
C1195 C 0.95805 0.12559 0.45327 0.0
C1196 C 0.98565 0.11754 0.44676 0.0
C1197 C 0.99521 0.09648 0.46318 0.0
C1198 C 0.91087 0.12044 0.48383 0.0
C1199 C 1.00495 0.13103 0.42237 0.0
H1200 H 0.90032 0.14824 0.37908 0.0
H1201 H 0.94416 0.21819 0.43167 0.0
H1202 H 0.94125 0.09685 0.40094 0.0
H1203 H 0.9077 0.09219 0.42176 0.0
H1204 H 0.90633 0.10081 0.38493 0.0
H1205 H 0.97705 0.21178 0.46819 0.0
H1206 H 0.96243 0.17847 0.48658 0.0
H1207 H 0.99496 0.18137 0.46462 0.0
H1208 H 0.93721 0.08206 0.51016 0.0
H1209 H 0.0163 0.0903 0.45816 0.0
H1210 H 0.89494 0.1152 0.46598 0.0
H1211 H 0.91423 0.14398 0.4877 0.0
H1212 H 0.90028 0.10878 0.50279 0.0
H1213 H 0.99234 0.1259 0.40241 0.0
H1214 H 0.02641 0.12333 0.42082 0.0
H1215 H 0.01033 0.15488 0.42454 0.0
C1216 C 0.20317 0.61 0.1579 0.0
C1217 C 0.23129 0.61389 0.14449 0.0
C1218 C 0.17637 0.59808 0.14339 0.0
C1219 C 0.1778 0.58928 0.11498 0.0
C1220 C 0.20634 0.59208 0.10181 0.0
C1221 C 0.23267 0.60469 0.11659 0.0
C1222 C 0.14645 0.5959 0.15812 0.0
C1223 C 0.20906 0.58234 0.07188 0.0
C1224 C 0.10862 0.53812 0.08493 0.0
C1225 C 0.09505 0.5569 0.06904 0.0
C1226 C 0.13577 0.54821 0.09949 0.0
C1227 C 0.14946 0.57799 0.09877 0.0
C1228 C 0.13598 0.59702 0.08259 0.0
C1229 C 0.10915 0.58621 0.06767 0.0
C1230 C 0.1497 0.52701 0.1158 0.0
C1231 C 0.14952 0.62898 0.08156 0.0
H1232 H 0.20208 0.61746 0.17935 0.0
H1233 H 0.25444 0.60774 0.10621 0.0
H1234 H 0.13296 0.60942 0.14697 0.0
H1235 H 0.13333 0.57333 0.15758 0.0
H1236 H 0.14917 0.60305 0.18038 0.0
H1237 H 0.23293 0.58403 0.06539 0.0
H1238 H 0.19679 0.55961 0.06933 0.0
H1239 H 0.19854 0.59569 0.05741 0.0
H1240 H 0.09797 0.51539 0.08596 0.0
H1241 H 0.09868 0.60089 0.05568 0.0
H1242 H 0.15034 0.53245 0.1385 0.0
H1243 H 0.17336 0.52842 0.10885 0.0
H1244 H 0.13704 0.50438 0.11317 0.0
H1245 H 0.15084 0.63808 0.10313 0.0
H1246 H 0.1362 0.64095 0.06825 0.0
H1247 H 0.17289 0.63269 0.0732 0.0
C1248 C 0.28606 0.44267 0.62428 0.0
C1249 C 0.28758 0.44376 0.65376 0.0
C1250 C 0.31166 0.45312 0.60755 0.0
C1251 C 0.33968 0.46478 0.62053 0.0
C1252 C 0.34121 0.46658 0.65028 0.0
C1253 C 0.31515 0.45619 0.66651 0.0
C1254 C 0.30886 0.45112 0.57596 0.0
C1255 C 0.37063 0.47865 0.665 0.0
C1256 C 0.4116 0.4617 0.57997 0.0
C1257 C 0.42119 0.4903 0.57067 0.0
C1258 C 0.38518 0.45319 0.59612 0.0
C1259 C 0.36763 0.47367 0.60307 0.0
C1260 C 0.37689 0.50248 0.59338 0.0
C1261 C 0.40356 0.51046 0.57741 0.0
C1262 C 0.37627 0.42229 0.6061 0.0
C1263 C 0.35875 0.52496 0.60006 0.0
H1264 H 0.26475 0.43346 0.61425 0.0
H1265 H 0.31659 0.4569 0.68925 0.0
H1266 H 0.31752 0.4726 0.5663 0.0
H1267 H 0.3228 0.43631 0.56775 0.0
H1268 H 0.28517 0.44309 0.56908 0.0
H1269 H 0.36782 0.47982 0.68816 0.0
H1270 H 0.38706 0.46488 0.66047 0.0
H1271 H 0.38052 0.5006 0.65698 0.0
H1272 H 0.42504 0.44595 0.57505 0.0
H1273 H 0.4107 0.53263 0.5704 0.0
H1274 H 0.3534 0.41231 0.59829 0.0
H1275 H 0.37528 0.42168 0.62941 0.0
H1276 H 0.39229 0.40899 0.59891 0.0
H1277 H 0.33534 0.5178 0.59222 0.0
H1278 H 0.36871 0.54631 0.5906 0.0
H1279 H 0.35735 0.52762 0.62316 0.0
C1280 C 0.79388 0.71458 0.93005 0.0
C1281 C 0.7751 0.69454 0.91276 0.0
C1282 C 0.81877 0.70742 0.94362 0.0
C1283 C 0.82469 0.67947 0.94003 0.0
C1284 C 0.8046 0.6586 0.92408 0.0
C1285 C 0.78016 0.66648 0.91042 0.0
C1286 C 0.83981 0.73033 0.96024 0.0
C1287 C 0.80979 0.6284 0.92021 0.0
C1288 C 0.90499 0.6682 0.94172 0.0
C1289 C 0.90632 0.65564 0.96827 0.0
C1290 C 0.8789 0.67702 0.93276 0.0
C1291 C 0.85328 0.67277 0.95058 0.0
C1292 C 0.85466 0.66085 0.97769 0.0
C1293 C 0.88124 0.65264 0.9863 0.0
C1294 C 0.87843 0.68999 0.90378 0.0
C1295 C 0.82775 0.65588 0.99722 0.0
H1296 H 0.79013 0.73638 0.93162 0.0
H1297 H 0.76549 0.65096 0.89718 0.0
H1298 H 0.84493 0.72175 0.98095 0.0
H1299 H 0.8615 0.73691 0.94873 0.0
H1300 H 0.83025 0.7498 0.9637 0.0
H1301 H 0.79043 0.61396 0.90976 0.0
H1302 H 0.83028 0.62914 0.90717 0.0
H1303 H 0.81374 0.61888 0.94082 0.0
H1304 H 0.92398 0.67026 0.92743 0.0
H1305 H 0.88221 0.64347 1.00707 0.0
H1306 H 0.87103 0.71082 0.90505 0.0
H1307 H 0.86197 0.67532 0.89036 0.0
H1308 H 0.90089 0.69377 0.89336 0.0
H1309 H 0.81947 0.67612 1.0 0.0
H1310 H 0.83305 0.64798 1.01822 0.0
H1311 H 0.80904 0.63971 0.98786 0.0
C1312 C 0.42176 0.83827 0.16667 0.0
C1313 C 0.4407 0.81881 0.17135 0.0
C1314 C 0.43194 0.86423 0.15186 0.0
C1315 C 0.46169 0.87083 0.14086 0.0
C1316 C 0.48115 0.85154 0.14603 0.0
C1317 C 0.47052 0.82592 0.16143 0.0
C1318 C 0.41054 0.88429 0.1474 0.0
C1319 C 0.51284 0.85741 0.13435 0.0
C1320 C 0.47371 0.92068 0.07681 0.0
C1321 C 0.48811 0.94725 0.08846 0.0
C1322 C 0.46575 0.89564 0.09346 0.0
C1323 C 0.47174 0.8971 0.12273 0.0
C1324 C 0.48633 0.92385 0.13463 0.0
C1325 C 0.4946 0.94849 0.11734 0.0
C1326 C 0.45073 0.86758 0.07969 0.0
C1327 C 0.49265 0.92658 0.16576 0.0
H1328 H 0.39875 0.83299 0.17446 0.0
H1329 H 0.48517 0.81087 0.16474 0.0
H1330 H 0.42122 0.90647 0.15424 0.0
H1331 H 0.40534 0.88536 0.12469 0.0
H1332 H 0.38899 0.87717 0.15908 0.0
H1333 H 0.52563 0.84108 0.14131 0.0
H1334 H 0.51202 0.85735 0.11103 0.0
H1335 H 0.52532 0.8791 0.14094 0.0
H1336 H 0.46881 0.91935 0.05449 0.0
H1337 H 0.50561 0.96889 0.12659 0.0
H1338 H 0.42766 0.86012 0.08836 0.0
H1339 H 0.46355 0.85061 0.08437 0.0
H1340 H 0.44907 0.86966 0.05651 0.0
H1341 H 0.47111 0.92109 0.17767 0.0
H1342 H 0.5046 0.9487 0.17174 0.0
H1343 H 0.50654 0.91107 0.17231 0.0
C1344 C 0.06187 0.22019 0.65753 0.0
C1345 C 0.09165 0.22506 0.66735 0.0
C1346 C 0.04877 0.19424 0.64367 0.0
C1347 C 0.06571 0.17251 0.63992 0.0
C1348 C 0.09518 0.17678 0.6513 0.0
C1349 C 0.10783 0.20302 0.66462 0.0
C1350 C 0.01742 0.19078 0.63168 0.0
C1351 C 0.11397 0.15416 0.64827 0.0
C1352 C 0.02743 0.09598 0.61734 0.0
C1353 C 0.03472 0.09624 0.5886 0.0
C1354 C 0.03695 0.12067 0.63426 0.0
C1355 C 0.05385 0.14643 0.62215 0.0
C1356 C 0.06071 0.14695 0.59304 0.0
C1357 C 0.05126 0.12192 0.57673 0.0
C1358 C 0.02946 0.11901 0.66523 0.0
C1359 C 0.07838 0.17394 0.57909 0.0
H1360 H 0.04942 0.23729 0.65933 0.0
H1361 H 0.13085 0.2067 0.67225 0.0
H1362 H 0.0187 0.19099 0.60838 0.0
H1363 H 1.00322 0.1697 0.63802 0.0
H1364 H 1.00617 0.20829 0.63857 0.0
H1365 H 0.13516 0.15951 0.66065 0.0
H1366 H 0.10089 0.13278 0.65519 0.0
H1367 H 0.11993 0.15217 0.62583 0.0
H1368 H 0.0147 0.07631 0.62677 0.0
H1369 H 0.05684 0.12254 0.55453 0.0
H1370 H 0.01743 0.13627 0.67104 0.0
H1371 H 0.0506 0.12264 0.67767 0.0
H1372 H 0.01524 0.0978 0.67128 0.0
H1373 H 0.06726 0.19231 0.58303 0.0
H1374 H 0.08054 0.1713 0.55602 0.0
H1375 H 0.10135 0.17972 0.58825 0.0
C1376 C 0.72809 0.33494 0.45057 0.0
C1377 C 0.74302 0.34732 0.42625 0.0
C1378 C 0.70326 0.34478 0.4615 0.0
C1379 C 0.69301 0.36733 0.44761 0.0
C1380 C 0.70902 0.38097 0.424 0.0
C1381 C 0.73393 0.37092 0.41373 0.0
C1382 C 0.68705 0.33001 0.487 0.0
C1383 C 0.69887 0.40514 0.40863 0.0
C1384 C 0.6097 0.36883 0.45111 0.0
C1385 C 0.6095 0.39159 0.4699 0.0
C1386 C 0.63668 0.3605 0.44403 0.0
C1387 C 0.66416 0.3751 0.45622 0.0
C1388 C 0.66409 0.39768 0.47565 0.0
C1389 C 0.6368 0.40577 0.48213 0.0
C1390 C 0.63584 0.33638 0.4231 0.0
C1391 C 0.69291 0.41364 0.48919 0.0
H1392 H 0.73481 0.31658 0.46028 0.0
H1393 H 0.74574 0.38096 0.39526 0.0
H1394 H 0.68312 0.34623 0.50261 0.0
H1395 H 0.66463 0.31723 0.48068 0.0
H1396 H 0.69984 0.31528 0.49726 0.0
H1397 H 0.71508 0.41489 0.39199 0.0
H1398 H 0.67661 0.39672 0.39871 0.0
H1399 H 0.69597 0.42233 0.42355 0.0
H1400 H 0.58868 0.35748 0.44189 0.0
H1401 H 0.63698 0.42368 0.49634 0.0
H1402 H 0.64552 0.31897 0.43261 0.0
H1403 H 0.64989 0.34458 0.4045 0.0
H1404 H 0.61257 0.32693 0.41586 0.0
H1405 H 0.70481 0.39814 0.49931 0.0
H1406 H 0.68874 0.42938 0.50525 0.0
H1407 H 0.70826 0.42545 0.4729 0.0
loop_
_geom_bond_atom_site_label_1
_geom_bond_atom_site_label_2
_geom_bond_distance
_geom_bond_site_symmetry_2
_ccdc_geom_bond_type
C0 C1 1.391 . S
C0 C4 1.391 . S
C0 H42 0.948 . S
C1 C0 1.391 . S
C1 C2 1.391 . S
C2 C1 1.391 . S
C2 H58 0.947 . S
C2 C59 1.392 . S
C3 C4 1.391 . S
C3 C7 1.397 . S
C3 C59 1.419 . S
C4 C0 1.391 . S
C4 C3 1.391 . S
C4 C5 1.399 . S
C5 C4 1.399 . S
C5 C8 1.396 . S
C5 C17 1.453 . S
C5 C18 1.684 . S
H6 C30 0.948 . S
C7 C3 1.397 . S
C7 C8 1.394 . S
C7 C26 1.723 . S
C8 C5 1.396 . S
C8 C7 1.394 . S
C8 C38 1.723 . S
H9 C32 0.947 . S
H10 C33 0.948 . S
H11 C39 0.982 . S
H12 C40 0.979 . S
H13 C40 0.980 . S
H14 C40 0.983 . S
H15 C39 0.979 . S
H16 C39 0.977 . S
C17 C5 1.453 . S
C17 H46 0.982 . S
C17 H47 0.979 . S
C17 H48 0.977 . S
C18 C5 1.684 . S
C18 H43 0.979 . S
C18 H44 0.980 . S
C18 H45 0.983 . S
C19 C20 1.391 . S
C19 C24 1.391 . S
C19 H49 0.948 . S
C20 C19 1.391 . S
C20 C21 1.391 . S
C21 C20 1.391 . S
C21 C22 1.392 . S
C21 H50 0.947 . S
C22 C21 1.392 . S
C22 C23 1.419 . S
C22 H51 0.948 . S
C23 C22 1.419 . S
C23 C24 1.391 . S
C23 C27 1.397 . S
C24 C19 1.391 . S
C24 C23 1.391 . S
C24 C25 1.399 . S
C25 C24 1.399 . S
C25 C26 1.396 . S
C25 C28 1.453 . S
C25 C29 1.684 . S
C26 C7 1.723 . S
C26 C25 1.396 . S
C26 C27 1.394 . S
C27 C23 1.397 . S
C27 C26 1.394 . S
C27 C37 1.723 . S
C28 C25 1.453 . S
C28 H52 0.982 . S
C28 H53 0.979 . S
C28 H54 0.977 . S
C29 C25 1.684 . S
C29 H55 0.979 . S
C29 H56 0.980 . S
C29 H57 0.983 . S
C30 H6 0.948 . S
C30 C31 1.391 . S
C30 C35 1.391 . S
C31 C30 1.391 . S
C31 C32 1.391 . S
C32 H9 0.947 . S
C32 C31 1.391 . S
C32 C33 1.392 . S
C33 H10 0.948 . S
C33 C32 1.392 . S
C33 C34 1.419 . S
C34 C33 1.419 . S
C34 C35 1.391 . S
C34 C38 1.397 . S
C35 C30 1.391 . S
C35 C34 1.391 . S
C35 C36 1.399 . S
C36 C35 1.399 . S
C36 C37 1.396 . S
C36 C39 1.453 . S
C36 C40 1.684 . S
C37 C27 1.723 . S
C37 C36 1.396 . S
C37 C38 1.394 . S
C38 C8 1.723 . S
C38 C34 1.397 . S
C38 C37 1.394 . S
C39 H11 0.982 . S
C39 H15 0.979 . S
C39 H16 0.977 . S
C39 C36 1.453 . S
C40 H12 0.979 . S
C40 H13 0.980 . S
C40 H14 0.983 . S
C40 C36 1.684 . S
H41 C59 0.948 . S
H42 C0 0.948 . S
H43 C18 0.979 . S
H44 C18 0.980 . S
H45 C18 0.983 . S
H46 C17 0.982 . S
H47 C17 0.979 . S
H48 C17 0.977 . S
H49 C19 0.948 . S
H50 C21 0.947 . S
H51 C22 0.948 . S
H52 C28 0.982 . S
H53 C28 0.979 . S
H54 C28 0.977 . S
H55 C29 0.979 . S
H56 C29 0.980 . S
H57 C29 0.983 . S
H58 C2 0.947 . S
C59 C2 1.392 . S
C59 C3 1.419 . S
C59 H41 0.948 . S
C60 C61 1.391 . S
C60 C64 1.391 . S
C60 H102 0.948 . S
C61 C60 1.391 . S
C61 C62 1.391 . S
C62 C61 1.391 . S
C62 H118 0.947 . S
C62 C119 1.392 . S
C63 C64 1.391 . S
C63 C67 1.397 . S
C63 C119 1.419 . S
C64 C60 1.391 . S
C64 C63 1.391 . S
C64 C65 1.399 . S
C65 C64 1.399 . S
C65 C68 1.396 . S
C65 C77 1.453 . S
C65 C78 1.684 . S
H66 C90 0.948 . S
C67 C63 1.397 . S
C67 C68 1.394 . S
C67 C86 1.723 . S
C68 C65 1.396 . S
C68 C67 1.394 . S
C68 C98 1.723 . S
H69 C92 0.947 . S
H70 C93 0.948 . S
H71 C99 0.982 . S
H72 C100 0.979 . S
H73 C100 0.980 . S
H74 C100 0.983 . S
H75 C99 0.979 . S
H76 C99 0.977 . S
C77 C65 1.453 . S
C77 H106 0.982 . S
C77 H107 0.979 . S
C77 H108 0.977 . S
C78 C65 1.684 . S
C78 H103 0.979 . S
C78 H104 0.980 . S
C78 H105 0.983 . S
C79 C80 1.391 . S
C79 C84 1.391 . S
C79 H109 0.948 . S
C80 C79 1.391 . S
C80 C81 1.391 . S
C81 C80 1.391 . S
C81 C82 1.392 . S
C81 H110 0.947 . S
C82 C81 1.392 . S
C82 C83 1.419 . S
C82 H111 0.948 . S
C83 C82 1.419 . S
C83 C84 1.391 . S
C83 C87 1.397 . S
C84 C79 1.391 . S
C84 C83 1.391 . S
C84 C85 1.399 . S
C85 C84 1.399 . S
C85 C86 1.396 . S
C85 C88 1.453 . S
C85 C89 1.684 . S
C86 C67 1.723 . S
C86 C85 1.396 . S
C86 C87 1.394 . S
C87 C83 1.397 . S
C87 C86 1.394 . S
C87 C97 1.723 . S
C88 C85 1.453 . S
C88 H112 0.982 . S
C88 H113 0.979 . S
C88 H114 0.977 . S
C89 C85 1.684 . S
C89 H115 0.979 . S
C89 H116 0.980 . S
C89 H117 0.983 . S
C90 H66 0.948 . S
C90 C91 1.391 . S
C90 C95 1.391 . S
C91 C90 1.391 . S
C91 C92 1.391 . S
C92 H69 0.947 . S
C92 C91 1.391 . S
C92 C93 1.392 . S
C93 H70 0.948 . S
C93 C92 1.392 . S
C93 C94 1.419 . S
C94 C93 1.419 . S
C94 C95 1.391 . S
C94 C98 1.397 . S
C95 C90 1.391 . S
C95 C94 1.391 . S
C95 C96 1.399 . S
C96 C95 1.399 . S
C96 C97 1.396 . S
C96 C99 1.453 . S
C96 C100 1.684 . S
C97 C87 1.723 . S
C97 C96 1.396 . S
C97 C98 1.394 . S
C98 C68 1.723 . S
C98 C94 1.397 . S
C98 C97 1.394 . S
C99 H71 0.982 . S
C99 H75 0.979 . S
C99 H76 0.977 . S
C99 C96 1.453 . S
C100 H72 0.979 . S
C100 H73 0.980 . S
C100 H74 0.983 . S
C100 C96 1.684 . S
H101 C119 0.948 . S
H102 C60 0.948 . S
H103 C78 0.979 . S
H104 C78 0.980 . S
H105 C78 0.983 . S
H106 C77 0.982 . S
H107 C77 0.979 . S
H108 C77 0.977 . S
H109 C79 0.948 . S
H110 C81 0.947 . S
H111 C82 0.948 . S
H112 C88 0.982 . S
H113 C88 0.979 . S
H114 C88 0.977 . S
H115 C89 0.979 . S
H116 C89 0.980 . S
H117 C89 0.983 . S
H118 C62 0.947 . S
C119 C62 1.392 . S
C119 C63 1.419 . S
C119 H101 0.948 . S
C120 C121 1.391 . S
C120 C124 1.391 . S
C120 H162 0.948 . S
C121 C120 1.391 . S
C121 C122 1.391 . S
C122 C121 1.391 . S
C122 H178 0.947 . S
C122 C179 1.392 . S
C123 C124 1.391 . S
C123 C127 1.397 . S
C123 C179 1.419 . S
C124 C120 1.391 . S
C124 C123 1.391 . S
C124 C125 1.399 . S
C125 C124 1.399 . S
C125 C128 1.396 . S
C125 C137 1.453 . S
C125 C138 1.684 . S
H126 C150 0.948 . S
C127 C123 1.397 . S
C127 C128 1.394 . S
C127 C146 1.723 . S
C128 C125 1.396 . S
C128 C127 1.394 . S
C128 C158 1.723 . S
H129 C152 0.947 . S
H130 C153 0.948 . S
H131 C159 0.982 . S
H132 C160 0.979 . S
H133 C160 0.980 . S
H134 C160 0.983 . S
H135 C159 0.979 . S
H136 C159 0.977 . S
C137 C125 1.453 . S
C137 H166 0.982 . S
C137 H167 0.979 . S
C137 H168 0.977 . S
C138 C125 1.684 . S
C138 H163 0.979 . S
C138 H164 0.980 . S
C138 H165 0.983 . S
C139 C140 1.391 . S
C139 C144 1.391 . S
C139 H169 0.948 . S
C140 C139 1.391 . S
C140 C141 1.391 . S
C141 C140 1.391 . S
C141 C142 1.392 . S
C141 H170 0.947 . S
C142 C141 1.392 . S
C142 C143 1.419 . S
C142 H171 0.948 . S
C143 C142 1.419 . S
C143 C144 1.391 . S
C143 C147 1.397 . S
C144 C139 1.391 . S
C144 C143 1.391 . S
C144 C145 1.399 . S
C145 C144 1.399 . S
C145 C146 1.396 . S
C145 C148 1.453 . S
C145 C149 1.684 . S
C146 C127 1.723 . S
C146 C145 1.396 . S
C146 C147 1.394 . S
C147 C143 1.397 . S
C147 C146 1.394 . S
C147 C157 1.723 . S
C148 C145 1.453 . S
C148 H172 0.982 . S
C148 H173 0.979 . S
C148 H174 0.977 . S
C149 C145 1.684 . S
C149 H175 0.979 . S
C149 H176 0.980 . S
C149 H177 0.983 . S
C150 H126 0.948 . S
C150 C151 1.391 . S
C150 C155 1.391 . S
C151 C150 1.391 . S
C151 C152 1.391 . S
C152 H129 0.947 . S
C152 C151 1.391 . S
C152 C153 1.392 . S
C153 H130 0.948 . S
C153 C152 1.392 . S
C153 C154 1.419 . S
C154 C153 1.419 . S
C154 C155 1.391 . S
C154 C158 1.397 . S
C155 C150 1.391 . S
C155 C154 1.391 . S
C155 C156 1.399 . S
C156 C155 1.399 . S
C156 C157 1.396 . S
C156 C159 1.453 . S
C156 C160 1.684 . S
C157 C147 1.723 . S
C157 C156 1.396 . S
C157 C158 1.394 . S
C158 C128 1.723 . S
C158 C154 1.397 . S
C158 C157 1.394 . S
C159 H131 0.982 . S
C159 H135 0.979 . S
C159 H136 0.977 . S
C159 C156 1.453 . S
C160 H132 0.979 . S
C160 H133 0.980 . S
C160 H134 0.983 . S
C160 C156 1.684 . S
H161 C179 0.948 . S
H162 C120 0.948 . S
H163 C138 0.979 . S
H164 C138 0.980 . S
H165 C138 0.983 . S
H166 C137 0.982 . S
H167 C137 0.979 . S
H168 C137 0.977 . S
H169 C139 0.948 . S
H170 C141 0.947 . S
H171 C142 0.948 . S
H172 C148 0.982 . S
H173 C148 0.979 . S
H174 C148 0.977 . S
H175 C149 0.979 . S
H176 C149 0.980 . S
H177 C149 0.983 . S
H178 C122 0.947 . S
C179 C122 1.392 . S
C179 C123 1.419 . S
C179 H161 0.948 . S
C180 C181 1.391 . S
C180 C184 1.391 . S
C180 H222 0.948 . S
C181 C180 1.391 . S
C181 C182 1.391 . S
C182 C181 1.391 . S
C182 H238 0.947 . S
C182 C239 1.392 . S
C183 C184 1.391 . S
C183 C187 1.397 . S
C183 C239 1.419 . S
C184 C180 1.391 . S
C184 C183 1.391 . S
C184 C185 1.399 . S
C185 C184 1.399 . S
C185 C188 1.396 . S
C185 C197 1.453 . S
C185 C198 1.684 . S
H186 C210 0.948 . S
C187 C183 1.397 . S
C187 C188 1.394 . S
C187 C206 1.723 . S
C188 C185 1.396 . S
C188 C187 1.394 . S
C188 C218 1.723 . S
H189 C212 0.947 . S
H190 C213 0.948 . S
H191 C219 0.982 . S
H192 C220 0.979 . S
H193 C220 0.980 . S
H194 C220 0.983 . S
H195 C219 0.979 . S
H196 C219 0.977 . S
C197 C185 1.453 . S
C197 H226 0.982 . S
C197 H227 0.979 . S
C197 H228 0.977 . S
C198 C185 1.684 . S
C198 H223 0.979 . S
C198 H224 0.980 . S
C198 H225 0.983 . S
C199 C200 1.391 . S
C199 C204 1.391 . S
C199 H229 0.948 . S
C200 C199 1.391 . S
C200 C201 1.391 . S
C201 C200 1.391 . S
C201 C202 1.392 . S
C201 H230 0.947 . S
C202 C201 1.392 . S
C202 C203 1.419 . S
C202 H231 0.948 . S
C203 C202 1.419 . S
C203 C204 1.391 . S
C203 C207 1.397 . S
C204 C199 1.391 . S
C204 C203 1.391 . S
C204 C205 1.399 . S
C205 C204 1.399 . S
C205 C206 1.396 . S
C205 C208 1.453 . S
C205 C209 1.684 . S
C206 C187 1.723 . S
C206 C205 1.396 . S
C206 C207 1.394 . S
C207 C203 1.397 . S
C207 C206 1.394 . S
C207 C217 1.723 . S
C208 C205 1.453 . S
C208 H232 0.982 . S
C208 H233 0.979 . S
C208 H234 0.977 . S
C209 C205 1.684 . S
C209 H235 0.979 . S
C209 H236 0.980 . S
C209 H237 0.983 . S
C210 H186 0.948 . S
C210 C211 1.391 . S
C210 C215 1.391 . S
C211 C210 1.391 . S
C211 C212 1.391 . S
C212 H189 0.947 . S
C212 C211 1.391 . S
C212 C213 1.392 . S
C213 H190 0.948 . S
C213 C212 1.392 . S
C213 C214 1.419 . S
C214 C213 1.419 . S
C214 C215 1.391 . S
C214 C218 1.397 . S
C215 C210 1.391 . S
C215 C214 1.391 . S
C215 C216 1.399 . S
C216 C215 1.399 . S
C216 C217 1.396 . S
C216 C219 1.453 . S
C216 C220 1.684 . S
C217 C207 1.723 . S
C217 C216 1.396 . S
C217 C218 1.394 . S
C218 C188 1.723 . S
C218 C214 1.397 . S
C218 C217 1.394 . S
C219 H191 0.982 . S
C219 H195 0.979 . S
C219 H196 0.977 . S
C219 C216 1.453 . S
C220 H192 0.979 . S
C220 H193 0.980 . S
C220 H194 0.983 . S
C220 C216 1.684 . S
H221 C239 0.948 . S
H222 C180 0.948 . S
H223 C198 0.979 . S
H224 C198 0.980 . S
H225 C198 0.983 . S
H226 C197 0.982 . S
H227 C197 0.979 . S
H228 C197 0.977 . S
H229 C199 0.948 . S
H230 C201 0.947 . S
H231 C202 0.948 . S
H232 C208 0.982 . S
H233 C208 0.979 . S
H234 C208 0.977 . S
H235 C209 0.979 . S
H236 C209 0.980 . S
H237 C209 0.983 . S
H238 C182 0.947 . S
C239 C182 1.392 . S
C239 C183 1.419 . S
C239 H221 0.948 . S
C240 C241 1.391 . S
C240 C244 1.391 . S
C240 H282 0.948 . S
C241 C240 1.391 . S
C241 C242 1.391 . S
C242 C241 1.391 . S
C242 H298 0.947 . S
C242 C299 1.392 . S
C243 C244 1.391 . S
C243 C247 1.397 . S
C243 C299 1.419 . S
C244 C240 1.391 . S
C244 C243 1.391 . S
C244 C245 1.399 . S
C245 C244 1.399 . S
C245 C248 1.396 . S
C245 C257 1.453 . S
C245 C258 1.684 . S
H246 C270 0.948 . S
C247 C243 1.397 . S
C247 C248 1.394 . S
C247 C266 1.723 . S
C248 C245 1.396 . S
C248 C247 1.394 . S
C248 C278 1.723 . S
H249 C272 0.947 . S
H250 C273 0.948 . S
H251 C279 0.982 . S
H252 C280 0.979 . S
H253 C280 0.980 . S
H254 C280 0.983 . S
H255 C279 0.979 . S
H256 C279 0.977 . S
C257 C245 1.453 . S
C257 H286 0.982 . S
C257 H287 0.979 . S
C257 H288 0.977 . S
C258 C245 1.684 . S
C258 H283 0.979 . S
C258 H284 0.980 . S
C258 H285 0.983 . S
C259 C260 1.391 . S
C259 C264 1.391 . S
C259 H289 0.948 . S
C260 C259 1.391 . S
C260 C261 1.391 . S
C261 C260 1.391 . S
C261 C262 1.392 . S
C261 H290 0.947 . S
C262 C261 1.392 . S
C262 C263 1.419 . S
C262 H291 0.948 . S
C263 C262 1.419 . S
C263 C264 1.391 . S
C263 C267 1.397 . S
C264 C259 1.391 . S
C264 C263 1.391 . S
C264 C265 1.399 . S
C265 C264 1.399 . S
C265 C266 1.396 . S
C265 C268 1.453 . S
C265 C269 1.684 . S
C266 C247 1.723 . S
C266 C265 1.396 . S
C266 C267 1.394 . S
C267 C263 1.397 . S
C267 C266 1.394 . S
C267 C277 1.723 . S
C268 C265 1.453 . S
C268 H292 0.982 . S
C268 H293 0.979 . S
C268 H294 0.977 . S
C269 C265 1.684 . S
C269 H295 0.979 . S
C269 H296 0.980 . S
C269 H297 0.983 . S
C270 H246 0.948 . S
C270 C271 1.391 . S
C270 C275 1.391 . S
C271 C270 1.391 . S
C271 C272 1.391 . S
C272 H249 0.947 . S
C272 C271 1.391 . S
C272 C273 1.392 . S
C273 H250 0.948 . S
C273 C272 1.392 . S
C273 C274 1.419 . S
C274 C273 1.419 . S
C274 C275 1.391 . S
C274 C278 1.397 . S
C275 C270 1.391 . S
C275 C274 1.391 . S
C275 C276 1.399 . S
C276 C275 1.399 . S
C276 C277 1.396 . S
C276 C279 1.453 . S
C276 C280 1.684 . S
C277 C267 1.723 . S
C277 C276 1.396 . S
C277 C278 1.394 . S
C278 C248 1.723 . S
C278 C274 1.397 . S
C278 C277 1.394 . S
C279 H251 0.982 . S
C279 H255 0.979 . S
C279 H256 0.977 . S
C279 C276 1.453 . S
C280 H252 0.979 . S
C280 H253 0.980 . S
C280 H254 0.983 . S
C280 C276 1.684 . S
H281 C299 0.948 . S
H282 C240 0.948 . S
H283 C258 0.979 . S
H284 C258 0.980 . S
H285 C258 0.983 . S
H286 C257 0.982 . S
H287 C257 0.979 . S
H288 C257 0.977 . S
H289 C259 0.948 . S
H290 C261 0.947 . S
H291 C262 0.948 . S
H292 C268 0.982 . S
H293 C268 0.979 . S
H294 C268 0.977 . S
H295 C269 0.979 . S
H296 C269 0.980 . S
H297 C269 0.983 . S
H298 C242 0.947 . S
C299 C242 1.392 . S
C299 C243 1.419 . S
C299 H281 0.948 . S
C300 C301 1.391 . S
C300 C304 1.391 . S
C300 H342 0.948 . S
C301 C300 1.391 . S
C301 C302 1.391 . S
C302 C301 1.391 . S
C302 H358 0.947 . S
C302 C359 1.392 . S
C303 C304 1.391 . S
C303 C307 1.397 . S
C303 C359 1.419 . S
C304 C300 1.391 . S
C304 C303 1.391 . S
C304 C305 1.399 . S
C305 C304 1.399 . S
C305 C308 1.396 . S
C305 C317 1.453 . S
C305 C318 1.684 . S
H306 C330 0.948 . S
C307 C303 1.397 . S
C307 C308 1.394 . S
C307 C326 1.723 . S
C308 C305 1.396 . S
C308 C307 1.394 . S
C308 C338 1.723 . S
H309 C332 0.947 . S
H310 C333 0.948 . S
H311 C339 0.982 . S
H312 C340 0.979 . S
H313 C340 0.980 . S
H314 C340 0.983 . S
H315 C339 0.979 . S
H316 C339 0.977 . S
C317 C305 1.453 . S
C317 H346 0.982 . S
C317 H347 0.979 . S
C317 H348 0.977 . S
C318 C305 1.684 . S
C318 H343 0.979 . S
C318 H344 0.980 . S
C318 H345 0.983 . S
C319 C320 1.391 . S
C319 C324 1.391 . S
C319 H349 0.948 . S
C320 C319 1.391 . S
C320 C321 1.391 . S
C321 C320 1.391 . S
C321 C322 1.392 . S
C321 H350 0.947 . S
C322 C321 1.392 . S
C322 C323 1.419 . S
C322 H351 0.948 . S
C323 C322 1.419 . S
C323 C324 1.391 . S
C323 C327 1.397 . S
C324 C319 1.391 . S
C324 C323 1.391 . S
C324 C325 1.399 . S
C325 C324 1.399 . S
C325 C326 1.396 . S
C325 C328 1.453 . S
C325 C329 1.684 . S
C326 C307 1.723 . S
C326 C325 1.396 . S
C326 C327 1.394 . S
C327 C323 1.397 . S
C327 C326 1.394 . S
C327 C337 1.723 . S
C328 C325 1.453 . S
C328 H352 0.982 . S
C328 H353 0.979 . S
C328 H354 0.977 . S
C329 C325 1.684 . S
C329 H355 0.979 . S
C329 H356 0.980 . S
C329 H357 0.983 . S
C330 H306 0.948 . S
C330 C331 1.391 . S
C330 C335 1.391 . S
C331 C330 1.391 . S
C331 C332 1.391 . S
C332 H309 0.947 . S
C332 C331 1.391 . S
C332 C333 1.392 . S
C333 H310 0.948 . S
C333 C332 1.392 . S
C333 C334 1.419 . S
C334 C333 1.419 . S
C334 C335 1.391 . S
C334 C338 1.397 . S
C335 C330 1.391 . S
C335 C334 1.391 . S
C335 C336 1.399 . S
C336 C335 1.399 . S
C336 C337 1.396 . S
C336 C339 1.453 . S
C336 C340 1.684 . S
C337 C327 1.723 . S
C337 C336 1.396 . S
C337 C338 1.394 . S
C338 C308 1.723 . S
C338 C334 1.397 . S
C338 C337 1.394 . S
C339 H311 0.982 . S
C339 H315 0.979 . S
C339 H316 0.977 . S
C339 C336 1.453 . S
C340 H312 0.979 . S
C340 H313 0.980 . S
C340 H314 0.983 . S
C340 C336 1.684 . S
H341 C359 0.948 . S
H342 C300 0.948 . S
H343 C318 0.979 . S
H344 C318 0.980 . S
H345 C318 0.983 . S
H346 C317 0.982 . S
H347 C317 0.979 . S
H348 C317 0.977 . S
H349 C319 0.948 . S
H350 C321 0.947 . S
H351 C322 0.948 . S
H352 C328 0.982 . S
H353 C328 0.979 . S
H354 C328 0.977 . S
H355 C329 0.979 . S
H356 C329 0.980 . S
H357 C329 0.983 . S
H358 C302 0.947 . S
C359 C302 1.392 . S
C359 C303 1.419 . S
C359 H341 0.948 . S
C360 C361 1.391 . S
C360 C364 1.391 . S
C360 H402 0.948 . S
C361 C360 1.391 . S
C361 C362 1.391 . S
C362 C361 1.391 . S
C362 H418 0.947 . S
C362 C419 1.392 . S
C363 C364 1.391 . S
C363 C367 1.397 . S
C363 C419 1.419 . S
C364 C360 1.391 . S
C364 C363 1.391 . S
C364 C365 1.399 . S
C365 C364 1.399 . S
C365 C368 1.396 . S
C365 C377 1.453 . S
C365 C378 1.684 . S
H366 C390 0.948 . S
C367 C363 1.397 . S
C367 C368 1.394 . S
C367 C386 1.723 . S
C368 C365 1.396 . S
C368 C367 1.394 . S
C368 C398 1.723 . S
H369 C392 0.947 . S
H370 C393 0.948 . S
H371 C399 0.982 . S
H372 C400 0.979 . S
H373 C400 0.980 . S
H374 C400 0.983 . S
H375 C399 0.979 . S
H376 C399 0.977 . S
C377 C365 1.453 . S
C377 H406 0.982 . S
C377 H407 0.979 . S
C377 H408 0.977 . S
C378 C365 1.684 . S
C378 H403 0.979 . S
C378 H404 0.980 . S
C378 H405 0.983 . S
C379 C380 1.391 . S
C379 C384 1.391 . S
C379 H409 0.948 . S
C380 C379 1.391 . S
C380 C381 1.391 . S
C381 C380 1.391 . S
C381 C382 1.392 . S
C381 H410 0.947 . S
C382 C381 1.392 . S
C382 C383 1.419 . S
C382 H411 0.948 . S
C383 C382 1.419 . S
C383 C384 1.391 . S
C383 C387 1.397 . S
C384 C379 1.391 . S
C384 C383 1.391 . S
C384 C385 1.399 . S
C385 C384 1.399 . S
C385 C386 1.396 . S
C385 C388 1.453 . S
C385 C389 1.684 . S
C386 C367 1.723 . S
C386 C385 1.396 . S
C386 C387 1.394 . S
C387 C383 1.397 . S
C387 C386 1.394 . S
C387 C397 1.723 . S
C388 C385 1.453 . S
C388 H412 0.982 . S
C388 H413 0.979 . S
C388 H414 0.977 . S
C389 C385 1.684 . S
C389 H415 0.979 . S
C389 H416 0.980 . S
C389 H417 0.983 . S
C390 H366 0.948 . S
C390 C391 1.391 . S
C390 C395 1.391 . S
C391 C390 1.391 . S
C391 C392 1.391 . S
C392 H369 0.947 . S
C392 C391 1.391 . S
C392 C393 1.392 . S
C393 H370 0.948 . S
C393 C392 1.392 . S
C393 C394 1.419 . S
C394 C393 1.419 . S
C394 C395 1.391 . S
C394 C398 1.397 . S
C395 C390 1.391 . S
C395 C394 1.391 . S
C395 C396 1.399 . S
C396 C395 1.399 . S
C396 C397 1.396 . S
C396 C399 1.453 . S
C396 C400 1.684 . S
C397 C387 1.723 . S
C397 C396 1.396 . S
C397 C398 1.394 . S
C398 C368 1.723 . S
C398 C394 1.397 . S
C398 C397 1.394 . S
C399 H371 0.982 . S
C399 H375 0.979 . S
C399 H376 0.977 . S
C399 C396 1.453 . S
C400 H372 0.979 . S
C400 H373 0.980 . S
C400 H374 0.983 . S
C400 C396 1.684 . S
H401 C419 0.948 . S
H402 C360 0.948 . S
H403 C378 0.979 . S
H404 C378 0.980 . S
H405 C378 0.983 . S
H406 C377 0.982 . S
H407 C377 0.979 . S
H408 C377 0.977 . S
H409 C379 0.948 . S
H410 C381 0.947 . S
H411 C382 0.948 . S
H412 C388 0.982 . S
H413 C388 0.979 . S
H414 C388 0.977 . S
H415 C389 0.979 . S
H416 C389 0.980 . S
H417 C389 0.983 . S
H418 C362 0.947 . S
C419 C362 1.392 . S
C419 C363 1.419 . S
C419 H401 0.948 . S
C420 C421 1.391 . S
C420 C424 1.391 . S
C420 H462 0.948 . S
C421 C420 1.391 . S
C421 C422 1.391 . S
C422 C421 1.391 . S
C422 H478 0.947 . S
C422 C479 1.392 . S
C423 C424 1.391 . S
C423 C427 1.397 . S
C423 C479 1.419 . S
C424 C420 1.391 . S
C424 C423 1.391 . S
C424 C425 1.399 . S
C425 C424 1.399 . S
C425 C428 1.396 . S
C425 C437 1.453 . S
C425 C438 1.684 . S
H426 C450 0.948 . S
C427 C423 1.397 . S
C427 C428 1.394 . S
C427 C446 1.723 . S
C428 C425 1.396 . S
C428 C427 1.394 . S
C428 C458 1.723 . S
H429 C452 0.947 . S
H430 C453 0.948 . S
H431 C459 0.982 . S
H432 C460 0.979 . S
H433 C460 0.980 . S
H434 C460 0.983 . S
H435 C459 0.979 . S
H436 C459 0.977 . S
C437 C425 1.453 . S
C437 H466 0.982 . S
C437 H467 0.979 . S
C437 H468 0.977 . S
C438 C425 1.684 . S
C438 H463 0.979 . S
C438 H464 0.980 . S
C438 H465 0.983 . S
C439 C440 1.391 . S
C439 C444 1.391 . S
C439 H469 0.948 . S
C440 C439 1.391 . S
C440 C441 1.391 . S
C441 C440 1.391 . S
C441 C442 1.392 . S
C441 H470 0.947 . S
C442 C441 1.392 . S
C442 C443 1.419 . S
C442 H471 0.948 . S
C443 C442 1.419 . S
C443 C444 1.391 . S
C443 C447 1.397 . S
C444 C439 1.391 . S
C444 C443 1.391 . S
C444 C445 1.399 . S
C445 C444 1.399 . S
C445 C446 1.396 . S
C445 C448 1.453 . S
C445 C449 1.684 . S
C446 C427 1.723 . S
C446 C445 1.396 . S
C446 C447 1.394 . S
C447 C443 1.397 . S
C447 C446 1.394 . S
C447 C457 1.723 . S
C448 C445 1.453 . S
C448 H472 0.982 . S
C448 H473 0.979 . S
C448 H474 0.977 . S
C449 C445 1.684 . S
C449 H475 0.979 . S
C449 H476 0.980 . S
C449 H477 0.983 . S
C450 H426 0.948 . S
C450 C451 1.391 . S
C450 C455 1.391 . S
C451 C450 1.391 . S
C451 C452 1.391 . S
C452 H429 0.947 . S
C452 C451 1.391 . S
C452 C453 1.392 . S
C453 H430 0.948 . S
C453 C452 1.392 . S
C453 C454 1.419 . S
C454 C453 1.419 . S
C454 C455 1.391 . S
C454 C458 1.397 . S
C455 C450 1.391 . S
C455 C454 1.391 . S
C455 C456 1.399 . S
C456 C455 1.399 . S
C456 C457 1.396 . S
C456 C459 1.453 . S
C456 C460 1.684 . S
C457 C447 1.723 . S
C457 C456 1.396 . S
C457 C458 1.394 . S
C458 C428 1.723 . S
C458 C454 1.397 . S
C458 C457 1.394 . S
C459 H431 0.982 . S
C459 H435 0.979 . S
C459 H436 0.977 . S
C459 C456 1.453 . S
C460 H432 0.979 . S
C460 H433 0.980 . S
C460 H434 0.983 . S
C460 C456 1.684 . S
H461 C479 0.948 . S
H462 C420 0.948 . S
H463 C438 0.979 . S
H464 C438 0.980 . S
H465 C438 0.983 . S
H466 C437 0.982 . S
H467 C437 0.979 . S
H468 C437 0.977 . S
H469 C439 0.948 . S
H470 C441 0.947 . S
H471 C442 0.948 . S
H472 C448 0.982 . S
H473 C448 0.979 . S
H474 C448 0.977 . S
H475 C449 0.979 . S
H476 C449 0.980 . S
H477 C449 0.983 . S
H478 C422 0.947 . S
C479 C422 1.392 . S
C479 C423 1.419 . S
C479 H461 0.948 . S
Dy480 O483 2.307 1_545 S
Dy480 O485 2.395 . S
Dy480 O486 2.379 . S
Dy480 O488 2.339 1_545 S
Dy480 O490 2.298 1_455 S
Dy480 O494 2.275 . S
Dy480 C502 2.738 . S
Dy481 O484 2.298 1_655 S
Dy481 O487 2.275 . S
Dy481 O489 2.307 1_565 S
Dy481 O491 2.395 . S
Dy481 O492 2.379 . S
Dy481 O495 2.339 1_565 S
Dy481 C511 2.738 . S
C482 O494 1.254 . S
C482 O495 1.257 1_455 S
O483 Dy480 2.307 1_565 S
O483 C493 1.266 . S
O484 Dy481 2.298 1_455 S
O484 C493 1.236 . S
O485 Dy480 2.395 . S
O485 C502 1.255 . S
O486 Dy480 2.379 . S
O486 C502 1.249 . S
O487 Dy481 2.275 . S
O487 C503 1.254 . S
O488 Dy480 2.339 1_565 S
O488 C503 1.257 1_455 S
O489 Dy481 2.307 1_545 S
O489 C504 1.266 . S
O490 Dy480 2.298 1_655 S
O490 C504 1.236 . S
O491 Dy481 2.395 . S
O491 C511 1.255 . S
O492 Dy481 2.379 . S
O492 C511 1.249 . S
C493 O483 1.266 . S
C493 O484 1.236 . S
O494 Dy480 2.275 . S
O494 C482 1.254 . S
O495 Dy481 2.339 1_545 S
O495 C482 1.257 1_655 S
C496 C499 1.344 . S
C496 C500 1.328 . S
C496 C502 1.516 . S
C497 C498 1.304 . S
C497 C501 1.323 . S
C498 C497 1.304 . S
C498 C499 1.371 . S
C498 H512 0.930 . S
C499 C496 1.344 . S
C499 C498 1.371 . S
C499 H513 0.931 . S
C500 C496 1.328 . S
C500 C501 1.433 . S
C500 H514 0.931 . S
C501 C497 1.323 . S
C501 C500 1.433 . S
C501 H515 0.933 . S
C502 Dy480 2.738 . S
C502 O485 1.255 . S
C502 O486 1.249 . S
C502 C496 1.516 . S
C503 O487 1.254 . S
C503 O488 1.257 1_655 S
C504 O489 1.266 . S
C504 O490 1.236 . S
C505 C508 1.344 . S
C505 C509 1.328 . S
C505 C511 1.516 . S
C506 C507 1.304 . S
C506 C510 1.323 . S
C507 C506 1.304 . S
C507 C508 1.371 . S
C507 H516 0.930 . S
C508 C505 1.344 . S
C508 C507 1.371 . S
C508 H517 0.931 . S
C509 C505 1.328 . S
C509 C510 1.433 . S
C509 H518 0.931 . S
C510 C506 1.323 . S
C510 C509 1.433 . S
C510 H519 0.933 . S
C511 Dy481 2.738 . S
C511 O491 1.255 . S
C511 O492 1.249 . S
C511 C505 1.516 . S
H512 C498 0.930 . S
H513 C499 0.931 . S
H514 C500 0.931 . S
H515 C501 0.933 . S
H516 C507 0.930 . S
H517 C508 0.931 . S
H518 C509 0.931 . S
H519 C510 0.933 . S
Dy520 O523 2.307 1_566 S
Dy520 O525 2.395 . S
Dy520 O526 2.379 . S
Dy520 O528 2.339 1_565 S
Dy520 O530 2.298 . S
Dy520 O534 2.275 1_556 S
Dy520 C542 2.738 . S
Dy521 O524 2.298 . S
Dy521 O527 2.275 1_554 S
Dy521 O529 2.307 1_544 S
Dy521 O531 2.395 . S
Dy521 O532 2.379 . S
Dy521 O535 2.339 1_545 S
Dy521 C551 2.738 . S
C522 O534 1.254 . S
C522 O535 1.257 . S
O523 Dy520 2.307 1_544 S
O523 C533 1.266 . S
O524 Dy521 2.298 . S
O524 C533 1.236 . S
O525 Dy520 2.395 . S
O525 C542 1.255 . S
O526 Dy520 2.379 . S
O526 C542 1.249 . S
O527 Dy521 2.275 1_556 S
O527 C543 1.254 . S
O528 Dy520 2.339 1_545 S
O528 C543 1.257 . S
O529 Dy521 2.307 1_566 S
O529 C544 1.266 . S
O530 Dy520 2.298 . S
O530 C544 1.236 . S
O531 Dy521 2.395 . S
O531 C551 1.255 . S
O532 Dy521 2.379 . S
O532 C551 1.249 . S
C533 O523 1.266 . S
C533 O524 1.236 . S
O534 Dy520 2.275 1_554 S
O534 C522 1.254 . S
O535 Dy521 2.339 1_565 S
O535 C522 1.257 . S
C536 C539 1.344 . S
C536 C540 1.328 . S
C536 C542 1.516 . S
C537 C538 1.304 . S
C537 C541 1.323 . S
C538 C537 1.304 . S
C538 C539 1.371 . S
C538 H552 0.930 . S
C539 C536 1.344 . S
C539 C538 1.371 . S
C539 H553 0.931 . S
C540 C536 1.328 . S
C540 C541 1.433 . S
C540 H554 0.931 . S
C541 C537 1.323 . S
C541 C540 1.433 . S
C541 H555 0.933 . S
C542 Dy520 2.738 . S
C542 O525 1.255 . S
C542 O526 1.249 . S
C542 C536 1.516 . S
C543 O527 1.254 . S
C543 O528 1.257 . S
C544 O529 1.266 . S
C544 O530 1.236 . S
C545 C548 1.344 . S
C545 C549 1.328 . S
C545 C551 1.516 . S
C546 C547 1.304 . S
C546 C550 1.323 . S
C547 C546 1.304 . S
C547 C548 1.371 . S
C547 H556 0.930 . S
C548 C545 1.344 . S
C548 C547 1.371 . S
C548 H557 0.931 . S
C549 C545 1.328 . S
C549 C550 1.433 . S
C549 H558 0.931 . S
C550 C546 1.323 . S
C550 C549 1.433 . S
C550 H559 0.933 . S
C551 Dy521 2.738 . S
C551 O531 1.255 . S
C551 O532 1.249 . S
C551 C545 1.516 . S
H552 C538 0.930 . S
H553 C539 0.931 . S
H554 C540 0.931 . S
H555 C541 0.933 . S
H556 C547 0.930 . S
H557 C548 0.931 . S
H558 C549 0.931 . S
H559 C550 0.933 . S
Dy560 O563 2.307 . S
Dy560 O565 2.395 . S
Dy560 O566 2.379 . S
Dy560 O568 2.339 . S
Dy560 O570 2.298 . S
Dy560 O574 2.275 . S
Dy560 C582 2.738 . S
Dy561 O564 2.298 . S
Dy561 O567 2.275 . S
Dy561 O569 2.307 . S
Dy561 O571 2.395 . S
Dy561 O572 2.379 . S
Dy561 O575 2.339 . S
Dy561 C591 2.738 . S
C562 O574 1.254 . S
C562 O575 1.257 . S
O563 Dy560 2.307 . S
O563 C573 1.266 . S
O564 Dy561 2.298 . S
O564 C573 1.236 . S
O565 Dy560 2.395 . S
O565 C582 1.255 . S
O566 Dy560 2.379 . S
O566 C582 1.249 . S
O567 Dy561 2.275 . S
O567 C583 1.254 . S
O568 Dy560 2.339 . S
O568 C583 1.257 . S
O569 Dy561 2.307 . S
O569 C584 1.266 . S
O570 Dy560 2.298 . S
O570 C584 1.236 . S
O571 Dy561 2.395 . S
O571 C591 1.255 . S
O572 Dy561 2.379 . S
O572 C591 1.249 . S
C573 O563 1.266 . S
C573 O564 1.236 . S
O574 Dy560 2.275 . S
O574 C562 1.254 . S
O575 Dy561 2.339 . S
O575 C562 1.257 . S
C576 C579 1.344 . S
C576 C580 1.328 . S
C576 C582 1.516 . S
C577 C578 1.304 . S
C577 C581 1.323 . S
C578 C577 1.304 . S
C578 C579 1.371 . S
C578 H592 0.930 . S
C579 C576 1.344 . S
C579 C578 1.371 . S
C579 H593 0.931 . S
C580 C576 1.328 . S
C580 C581 1.433 . S
C580 H594 0.931 . S
C581 C577 1.323 . S
C581 C580 1.433 . S
C581 H595 0.933 . S
C582 Dy560 2.738 . S
C582 O565 1.255 . S
C582 O566 1.249 . S
C582 C576 1.516 . S
C583 O567 1.254 . S
C583 O568 1.257 . S
C584 O569 1.266 . S
C584 O570 1.236 . S
C585 C588 1.344 . S
C585 C589 1.328 . S
C585 C591 1.516 . S
C586 C587 1.304 . S
C586 C590 1.323 . S
C587 C586 1.304 . S
C587 C588 1.371 . S
C587 H596 0.930 . S
C588 C585 1.344 . S
C588 C587 1.371 . S
C588 H597 0.931 . S
C589 C585 1.328 . S
C589 C590 1.433 . S
C589 H598 0.931 . S
C590 C586 1.323 . S
C590 C589 1.433 . S
C590 H599 0.933 . S
C591 Dy561 2.738 . S
C591 O571 1.255 . S
C591 O572 1.249 . S
C591 C585 1.516 . S
H592 C578 0.930 . S
H593 C579 0.931 . S
H594 C580 0.931 . S
H595 C581 0.933 . S
H596 C587 0.930 . S
H597 C588 0.931 . S
H598 C589 0.931 . S
H599 C590 0.933 . S
Dy600 O603 2.307 1_656 S
Dy600 O605 2.395 . S
Dy600 O606 2.379 . S
Dy600 O608 2.339 1_655 S
Dy600 O610 2.298 . S
Dy600 O614 2.275 1_556 S
Dy600 C622 2.738 . S
Dy601 O604 2.298 . S
Dy601 O607 2.275 1_554 S
Dy601 O609 2.307 1_455 S
Dy601 O611 2.395 . S
Dy601 O612 2.379 . S
Dy601 O615 2.339 1_455 S
Dy601 C631 2.738 . S
C602 O614 1.254 . S
C602 O615 1.257 . S
O603 Dy600 2.307 1_454 S
O603 C613 1.266 . S
O604 Dy601 2.298 . S
O604 C613 1.236 . S
O605 Dy600 2.395 . S
O605 C622 1.255 . S
O606 Dy600 2.379 . S
O606 C622 1.249 . S
O607 Dy601 2.275 1_556 S
O607 C623 1.254 . S
O608 Dy600 2.339 1_455 S
O608 C623 1.257 . S
O609 Dy601 2.307 1_655 S
O609 C624 1.266 1_554 S
O610 Dy600 2.298 . S
O610 C624 1.236 . S
O611 Dy601 2.395 . S
O611 C631 1.255 . S
O612 Dy601 2.379 . S
O612 C631 1.249 . S
C613 O603 1.266 . S
C613 O604 1.236 . S
O614 Dy600 2.275 1_554 S
O614 C602 1.254 . S
O615 Dy601 2.339 1_655 S
O615 C602 1.257 . S
C616 C619 1.344 . S
C616 C620 1.328 . S
C616 C622 1.516 . S
C617 C618 1.304 . S
C617 C621 1.323 . S
C618 C617 1.304 . S
C618 C619 1.371 . S
C618 H632 0.930 . S
C619 C616 1.344 . S
C619 C618 1.371 . S
C619 H633 0.931 . S
C620 C616 1.328 . S
C620 C621 1.433 . S
C620 H634 0.931 . S
C621 C617 1.323 . S
C621 C620 1.433 . S
C621 H635 0.933 . S
C622 Dy600 2.738 . S
C622 O605 1.255 . S
C622 O606 1.249 . S
C622 C616 1.516 . S
C623 O607 1.254 . S
C623 O608 1.257 . S
C624 O609 1.266 1_556 S
C624 O610 1.236 . S
C625 C628 1.344 . S
C625 C629 1.328 . S
C625 C631 1.516 . S
C626 C627 1.304 . S
C626 C630 1.323 . S
C627 C626 1.304 . S
C627 C628 1.371 . S
C627 H636 0.930 . S
C628 C625 1.344 . S
C628 C627 1.371 . S
C628 H637 0.931 . S
C629 C625 1.328 . S
C629 C630 1.433 . S
C629 H638 0.931 . S
C630 C626 1.323 . S
C630 C629 1.433 . S
C630 H639 0.933 . S
C631 Dy601 2.738 . S
C631 O611 1.255 . S
C631 O612 1.249 . S
C631 C625 1.516 . S
H632 C618 0.930 . S
H633 C619 0.931 . S
H634 C620 0.931 . S
H635 C621 0.933 . S
H636 C627 0.930 . S
H637 C628 0.931 . S
H638 C629 0.931 . S
H639 C630 0.933 . S
C640 C641 1.391 . S
C640 C642 1.394 . S
C640 H656 0.931 . S
C641 C640 1.391 . S
C641 C645 1.376 . S
C642 C640 1.394 . S
C642 C643 1.369 . S
C642 C646 1.531 . S
C643 C642 1.369 . S
C643 C644 1.410 . S
C643 C651 1.503 . S
C644 C643 1.410 . S
C644 C645 1.392 . S
C644 C647 1.511 . S
C645 C641 1.376 . S
C645 C644 1.392 . S
C645 H657 0.929 . S
C646 C642 1.531 . S
C646 H658 0.960 . S
C646 H659 0.962 . S
C646 H660 0.960 . S
C647 C644 1.511 . S
C647 H661 0.961 . S
C647 H662 0.961 . S
C647 H663 0.961 . S
C648 C649 1.370 . S
C648 C650 1.363 . S
C648 H664 0.931 . S
C649 C648 1.370 . S
C649 C653 1.408 . S
C650 C648 1.363 . S
C650 C651 1.370 . S
C650 C654 1.524 . S
C651 C643 1.503 . S
C651 C650 1.370 . S
C651 C652 1.403 . S
C652 C651 1.403 . S
C652 C653 1.404 . S
C652 C655 1.539 . S
C653 C649 1.408 . S
C653 C652 1.404 . S
C653 H665 0.930 . S
C654 C650 1.524 . S
C654 H666 0.956 . S
C654 H667 0.961 . S
C654 H668 0.961 . S
C655 C652 1.539 . S
C655 H669 0.958 . S
C655 H670 0.961 . S
C655 H671 0.960 . S
H656 C640 0.931 . S
H657 C645 0.929 . S
H658 C646 0.960 . S
H659 C646 0.962 . S
H660 C646 0.960 . S
H661 C647 0.961 . S
H662 C647 0.961 . S
H663 C647 0.961 . S
H664 C648 0.931 . S
H665 C653 0.930 . S
H666 C654 0.956 . S
H667 C654 0.961 . S
H668 C654 0.961 . S
H669 C655 0.958 . S
H670 C655 0.961 . S
H671 C655 0.960 . S
C672 C673 1.391 . S
C672 C674 1.394 . S
C672 H688 0.931 . S
C673 C672 1.391 . S
C673 C677 1.376 . S
C674 C672 1.394 . S
C674 C675 1.369 . S
C674 C678 1.531 . S
C675 C674 1.369 . S
C675 C676 1.410 . S
C675 C683 1.503 . S
C676 C675 1.410 . S
C676 C677 1.392 . S
C676 C679 1.511 . S
C677 C673 1.376 . S
C677 C676 1.392 . S
C677 H689 0.929 . S
C678 C674 1.531 . S
C678 H690 0.960 . S
C678 H691 0.962 . S
C678 H692 0.960 . S
C679 C676 1.511 . S
C679 H693 0.961 . S
C679 H694 0.961 . S
C679 H695 0.961 . S
C680 C681 1.370 . S
C680 C682 1.363 . S
C680 H696 0.931 . S
C681 C680 1.370 . S
C681 C685 1.408 . S
C682 C680 1.363 . S
C682 C683 1.370 . S
C682 C686 1.524 . S
C683 C675 1.503 . S
C683 C682 1.370 . S
C683 C684 1.403 . S
C684 C683 1.403 . S
C684 C685 1.404 . S
C684 C687 1.539 . S
C685 C681 1.408 . S
C685 C684 1.404 . S
C685 H697 0.930 . S
C686 C682 1.524 . S
C686 H698 0.956 . S
C686 H699 0.961 . S
C686 H700 0.961 . S
C687 C684 1.539 . S
C687 H701 0.958 . S
C687 H702 0.961 . S
C687 H703 0.960 . S
H688 C672 0.931 . S
H689 C677 0.929 . S
H690 C678 0.960 . S
H691 C678 0.962 . S
H692 C678 0.960 . S
H693 C679 0.961 . S
H694 C679 0.961 . S
H695 C679 0.961 . S
H696 C680 0.931 . S
H697 C685 0.930 . S
H698 C686 0.956 . S
H699 C686 0.961 . S
H700 C686 0.961 . S
H701 C687 0.958 . S
H702 C687 0.961 . S
H703 C687 0.960 . S
C704 C705 1.391 . S
C704 C706 1.394 . S
C704 H720 0.931 . S
C705 C704 1.391 . S
C705 C709 1.376 . S
C706 C704 1.394 . S
C706 C707 1.369 . S
C706 C710 1.531 . S
C707 C706 1.369 . S
C707 C708 1.410 . S
C707 C715 1.503 . S
C708 C707 1.410 . S
C708 C709 1.392 . S
C708 C711 1.511 . S
C709 C705 1.376 . S
C709 C708 1.392 . S
C709 H721 0.929 . S
C710 C706 1.531 . S
C710 H722 0.960 . S
C710 H723 0.962 . S
C710 H724 0.960 . S
C711 C708 1.511 . S
C711 H725 0.961 . S
C711 H726 0.961 . S
C711 H727 0.961 . S
C712 C713 1.370 . S
C712 C714 1.363 . S
C712 H728 0.931 . S
C713 C712 1.370 . S
C713 C717 1.408 . S
C714 C712 1.363 . S
C714 C715 1.370 . S
C714 C718 1.524 . S
C715 C707 1.503 . S
C715 C714 1.370 . S
C715 C716 1.403 . S
C716 C715 1.403 . S
C716 C717 1.404 . S
C716 C719 1.539 . S
C717 C713 1.408 . S
C717 C716 1.404 . S
C717 H729 0.930 . S
C718 C714 1.524 . S
C718 H730 0.956 . S
C718 H731 0.961 . S
C718 H732 0.961 . S
C719 C716 1.539 . S
C719 H733 0.958 . S
C719 H734 0.961 . S
C719 H735 0.960 . S
H720 C704 0.931 . S
H721 C709 0.929 . S
H722 C710 0.960 . S
H723 C710 0.962 . S
H724 C710 0.960 . S
H725 C711 0.961 . S
H726 C711 0.961 . S
H727 C711 0.961 . S
H728 C712 0.931 . S
H729 C717 0.930 . S
H730 C718 0.956 . S
H731 C718 0.961 . S
H732 C718 0.961 . S
H733 C719 0.958 . S
H734 C719 0.961 . S
H735 C719 0.960 . S
C736 C737 1.391 . S
C736 C738 1.394 . S
C736 H752 0.931 . S
C737 C736 1.391 . S
C737 C741 1.376 . S
C738 C736 1.394 . S
C738 C739 1.369 . S
C738 C742 1.531 . S
C739 C738 1.369 . S
C739 C740 1.410 . S
C739 C747 1.503 . S
C740 C739 1.410 . S
C740 C741 1.392 . S
C740 C743 1.511 . S
C741 C737 1.376 . S
C741 C740 1.392 . S
C741 H753 0.929 . S
C742 C738 1.531 . S
C742 H754 0.960 . S
C742 H755 0.962 . S
C742 H756 0.960 . S
C743 C740 1.511 . S
C743 H757 0.961 . S
C743 H758 0.961 . S
C743 H759 0.961 . S
C744 C745 1.370 . S
C744 C746 1.363 . S
C744 H760 0.931 . S
C745 C744 1.370 . S
C745 C749 1.408 . S
C746 C744 1.363 . S
C746 C747 1.370 . S
C746 C750 1.524 . S
C747 C739 1.503 . S
C747 C746 1.370 . S
C747 C748 1.403 . S
C748 C747 1.403 . S
C748 C749 1.404 . S
C748 C751 1.539 . S
C749 C745 1.408 . S
C749 C748 1.404 . S
C749 H761 0.930 . S
C750 C746 1.524 . S
C750 H762 0.956 . S
C750 H763 0.961 . S
C750 H764 0.961 . S
C751 C748 1.539 . S
C751 H765 0.958 . S
C751 H766 0.961 . S
C751 H767 0.960 . S
H752 C736 0.931 . S
H753 C741 0.929 . S
H754 C742 0.960 . S
H755 C742 0.962 . S
H756 C742 0.960 . S
H757 C743 0.961 . S
H758 C743 0.961 . S
H759 C743 0.961 . S
H760 C744 0.931 . S
H761 C749 0.930 . S
H762 C750 0.956 . S
H763 C750 0.961 . S
H764 C750 0.961 . S
H765 C751 0.958 . S
H766 C751 0.961 . S
H767 C751 0.960 . S
C768 C769 1.391 . S
C768 C770 1.394 . S
C768 H784 0.931 . S
C769 C768 1.391 . S
C769 C773 1.376 . S
C770 C768 1.394 . S
C770 C771 1.369 . S
C770 C774 1.531 . S
C771 C770 1.369 . S
C771 C772 1.410 . S
C771 C779 1.503 . S
C772 C771 1.410 . S
C772 C773 1.392 . S
C772 C775 1.511 . S
C773 C769 1.376 . S
C773 C772 1.392 . S
C773 H785 0.929 . S
C774 C770 1.531 . S
C774 H786 0.960 . S
C774 H787 0.962 . S
C774 H788 0.960 . S
C775 C772 1.511 . S
C775 H789 0.961 . S
C775 H790 0.961 . S
C775 H791 0.961 . S
C776 C777 1.370 . S
C776 C778 1.363 . S
C776 H792 0.931 . S
C777 C776 1.370 . S
C777 C781 1.408 . S
C778 C776 1.363 . S
C778 C779 1.370 . S
C778 C782 1.524 . S
C779 C771 1.503 . S
C779 C778 1.370 . S
C779 C780 1.403 . S
C780 C779 1.403 . S
C780 C781 1.404 . S
C780 C783 1.539 . S
C781 C777 1.408 . S
C781 C780 1.404 . S
C781 H793 0.930 . S
C782 C778 1.524 . S
C782 H794 0.956 . S
C782 H795 0.961 . S
C782 H796 0.961 . S
C783 C780 1.539 . S
C783 H797 0.958 . S
C783 H798 0.961 . S
C783 H799 0.960 . S
H784 C768 0.931 . S
H785 C773 0.929 . S
H786 C774 0.960 . S
H787 C774 0.962 . S
H788 C774 0.960 . S
H789 C775 0.961 . S
H790 C775 0.961 . S
H791 C775 0.961 . S
H792 C776 0.931 . S
H793 C781 0.930 . S
H794 C782 0.956 . S
H795 C782 0.961 . S
H796 C782 0.961 . S
H797 C783 0.958 . S
H798 C783 0.961 . S
H799 C783 0.960 . S
C800 C801 1.391 . S
C800 C802 1.394 . S
C800 H816 0.931 . S
C801 C800 1.391 . S
C801 C805 1.376 . S
C802 C800 1.394 . S
C802 C803 1.369 . S
C802 C806 1.531 . S
C803 C802 1.369 . S
C803 C804 1.410 . S
C803 C811 1.503 . S
C804 C803 1.410 . S
C804 C805 1.392 . S
C804 C807 1.511 . S
C805 C801 1.376 . S
C805 C804 1.392 . S
C805 H817 0.929 . S
C806 C802 1.531 . S
C806 H818 0.960 . S
C806 H819 0.962 . S
C806 H820 0.960 . S
C807 C804 1.511 . S
C807 H821 0.961 . S
C807 H822 0.961 . S
C807 H823 0.961 . S
C808 C809 1.370 . S
C808 C810 1.363 . S
C808 H824 0.931 1_455 S
C809 C808 1.370 . S
C809 C813 1.408 . S
C810 C808 1.363 . S
C810 C811 1.370 . S
C810 C814 1.524 . S
C811 C803 1.503 . S
C811 C810 1.370 . S
C811 C812 1.403 . S
C812 C811 1.403 . S
C812 C813 1.404 . S
C812 C815 1.539 . S
C813 C809 1.408 . S
C813 C812 1.404 . S
C813 H825 0.930 . S
C814 C810 1.524 . S
C814 H826 0.956 1_455 S
C814 H827 0.961 . S
C814 H828 0.961 1_455 S
C815 C812 1.539 . S
C815 H829 0.958 . S
C815 H830 0.961 . S
C815 H831 0.960 . S
H816 C800 0.931 . S
H817 C805 0.929 . S
H818 C806 0.960 . S
H819 C806 0.962 . S
H820 C806 0.960 . S
H821 C807 0.961 . S
H822 C807 0.961 . S
H823 C807 0.961 . S
H824 C808 0.931 1_655 S
H825 C813 0.930 . S
H826 C814 0.956 1_655 S
H827 C814 0.961 . S
H828 C814 0.961 1_655 S
H829 C815 0.958 . S
H830 C815 0.961 . S
H831 C815 0.960 . S
C832 C833 1.391 . S
C832 C834 1.394 . S
C832 H848 0.931 . S
C833 C832 1.391 . S
C833 C837 1.376 . S
C834 C832 1.394 . S
C834 C835 1.369 . S
C834 C838 1.531 . S
C835 C834 1.369 . S
C835 C836 1.410 . S
C835 C843 1.503 . S
C836 C835 1.410 . S
C836 C837 1.392 . S
C836 C839 1.511 . S
C837 C833 1.376 . S
C837 C836 1.392 . S
C837 H849 0.929 . S
C838 C834 1.531 . S
C838 H850 0.960 . S
C838 H851 0.962 . S
C838 H852 0.960 . S
C839 C836 1.511 . S
C839 H853 0.961 . S
C839 H854 0.961 . S
C839 H855 0.961 . S
C840 C841 1.370 . S
C840 C842 1.363 . S
C840 H856 0.931 . S
C841 C840 1.370 . S
C841 C845 1.408 . S
C842 C840 1.363 . S
C842 C843 1.370 . S
C842 C846 1.524 . S
C843 C835 1.503 . S
C843 C842 1.370 . S
C843 C844 1.403 . S
C844 C843 1.403 . S
C844 C845 1.404 . S
C844 C847 1.539 . S
C845 C841 1.408 . S
C845 C844 1.404 . S
C845 H857 0.930 . S
C846 C842 1.524 . S
C846 H858 0.956 . S
C846 H859 0.961 . S
C846 H860 0.961 . S
C847 C844 1.539 . S
C847 H861 0.958 . S
C847 H862 0.961 . S
C847 H863 0.960 . S
H848 C832 0.931 . S
H849 C837 0.929 . S
H850 C838 0.960 . S
H851 C838 0.962 . S
H852 C838 0.960 . S
H853 C839 0.961 . S
H854 C839 0.961 . S
H855 C839 0.961 . S
H856 C840 0.931 . S
H857 C845 0.930 . S
H858 C846 0.956 . S
H859 C846 0.961 . S
H860 C846 0.961 . S
H861 C847 0.958 . S
H862 C847 0.961 . S
H863 C847 0.960 . S
C864 C865 1.391 . S
C864 C866 1.394 . S
C864 H880 0.931 . S
C865 C864 1.391 . S
C865 C869 1.376 . S
C866 C864 1.394 . S
C866 C867 1.369 . S
C866 C870 1.531 . S
C867 C866 1.369 . S
C867 C868 1.410 . S
C867 C875 1.503 . S
C868 C867 1.410 . S
C868 C869 1.392 . S
C868 C871 1.511 . S
C869 C865 1.376 . S
C869 C868 1.392 . S
C869 H881 0.929 . S
C870 C866 1.531 . S
C870 H882 0.960 . S
C870 H883 0.962 . S
C870 H884 0.960 . S
C871 C868 1.511 . S
C871 H885 0.961 . S
C871 H886 0.961 . S
C871 H887 0.961 . S
C872 C873 1.370 . S
C872 C874 1.363 . S
C872 H888 0.931 . S
C873 C872 1.370 . S
C873 C877 1.408 . S
C874 C872 1.363 . S
C874 C875 1.370 . S
C874 C878 1.524 . S
C875 C867 1.503 . S
C875 C874 1.370 . S
C875 C876 1.403 . S
C876 C875 1.403 . S
C876 C877 1.404 . S
C876 C879 1.539 . S
C877 C873 1.408 . S
C877 C876 1.404 . S
C877 H889 0.930 . S
C878 C874 1.524 . S
C878 H890 0.956 . S
C878 H891 0.961 . S
C878 H892 0.961 . S
C879 C876 1.539 . S
C879 H893 0.958 . S
C879 H894 0.961 . S
C879 H895 0.960 . S
H880 C864 0.931 . S
H881 C869 0.929 . S
H882 C870 0.960 . S
H883 C870 0.962 . S
H884 C870 0.960 . S
H885 C871 0.961 . S
H886 C871 0.961 . S
H887 C871 0.961 . S
H888 C872 0.931 . S
H889 C877 0.930 . S
H890 C878 0.956 . S
H891 C878 0.961 . S
H892 C878 0.961 . S
H893 C879 0.958 . S
H894 C879 0.961 . S
H895 C879 0.960 . S
C896 C897 1.391 . S
C896 C898 1.394 . S
C896 H912 0.931 . S
C897 C896 1.391 . S
C897 C901 1.376 . S
C898 C896 1.394 . S
C898 C899 1.369 . S
C898 C902 1.531 . S
C899 C898 1.369 . S
C899 C900 1.410 . S
C899 C907 1.503 . S
C900 C899 1.410 . S
C900 C901 1.392 . S
C900 C903 1.511 . S
C901 C897 1.376 . S
C901 C900 1.392 . S
C901 H913 0.929 . S
C902 C898 1.531 . S
C902 H914 0.960 . S
C902 H915 0.962 . S
C902 H916 0.960 . S
C903 C900 1.511 . S
C903 H917 0.961 . S
C903 H918 0.961 . S
C903 H919 0.961 . S
C904 C905 1.370 . S
C904 C906 1.363 . S
C904 H920 0.931 . S
C905 C904 1.370 . S
C905 C909 1.408 . S
C906 C904 1.363 . S
C906 C907 1.370 . S
C906 C910 1.524 . S
C907 C899 1.503 . S
C907 C906 1.370 . S
C907 C908 1.403 . S
C908 C907 1.403 . S
C908 C909 1.404 . S
C908 C911 1.539 . S
C909 C905 1.408 . S
C909 C908 1.404 . S
C909 H921 0.930 . S
C910 C906 1.524 . S
C910 H922 0.956 . S
C910 H923 0.961 . S
C910 H924 0.961 . S
C911 C908 1.539 . S
C911 H925 0.958 . S
C911 H926 0.961 . S
C911 H927 0.960 . S
H912 C896 0.931 . S
H913 C901 0.929 . S
H914 C902 0.960 . S
H915 C902 0.962 . S
H916 C902 0.960 . S
H917 C903 0.961 . S
H918 C903 0.961 . S
H919 C903 0.961 . S
H920 C904 0.931 . S
H921 C909 0.930 . S
H922 C910 0.956 . S
H923 C910 0.961 . S
H924 C910 0.961 . S
H925 C911 0.958 . S
H926 C911 0.961 . S
H927 C911 0.960 . S
C928 C929 1.391 . S
C928 C930 1.394 . S
C928 H944 0.931 . S
C929 C928 1.391 . S
C929 C933 1.376 . S
C930 C928 1.394 . S
C930 C931 1.369 . S
C930 C934 1.531 . S
C931 C930 1.369 . S
C931 C932 1.410 . S
C931 C939 1.503 . S
C932 C931 1.410 . S
C932 C933 1.392 . S
C932 C935 1.511 . S
C933 C929 1.376 . S
C933 C932 1.392 . S
C933 H945 0.929 . S
C934 C930 1.531 . S
C934 H946 0.960 . S
C934 H947 0.962 . S
C934 H948 0.960 . S
C935 C932 1.511 . S
C935 H949 0.961 . S
C935 H950 0.961 . S
C935 H951 0.961 . S
C936 C937 1.370 . S
C936 C938 1.363 . S
C936 H952 0.931 . S
C937 C936 1.370 . S
C937 C941 1.408 . S
C938 C936 1.363 . S
C938 C939 1.370 . S
C938 C942 1.524 . S
C939 C931 1.503 . S
C939 C938 1.370 . S
C939 C940 1.403 . S
C940 C939 1.403 . S
C940 C941 1.404 . S
C940 C943 1.539 . S
C941 C937 1.408 . S
C941 C940 1.404 . S
C941 H953 0.930 . S
C942 C938 1.524 . S
C942 H954 0.956 . S
C942 H955 0.961 . S
C942 H956 0.961 . S
C943 C940 1.539 . S
C943 H957 0.958 . S
C943 H958 0.961 . S
C943 H959 0.960 . S
H944 C928 0.931 . S
H945 C933 0.929 . S
H946 C934 0.960 . S
H947 C934 0.962 . S
H948 C934 0.960 . S
H949 C935 0.961 . S
H950 C935 0.961 . S
H951 C935 0.961 . S
H952 C936 0.931 . S
H953 C941 0.930 . S
H954 C942 0.956 . S
H955 C942 0.961 . S
H956 C942 0.961 . S
H957 C943 0.958 . S
H958 C943 0.961 . S
H959 C943 0.960 . S
C960 C961 1.391 . S
C960 C962 1.394 . S
C960 H976 0.931 . S
C961 C960 1.391 . S
C961 C965 1.376 . S
C962 C960 1.394 . S
C962 C963 1.369 . S
C962 C966 1.531 . S
C963 C962 1.369 . S
C963 C964 1.410 . S
C963 C971 1.503 . S
C964 C963 1.410 . S
C964 C965 1.392 . S
C964 C967 1.511 . S
C965 C961 1.376 . S
C965 C964 1.392 . S
C965 H977 0.929 . S
C966 C962 1.531 . S
C966 H978 0.960 . S
C966 H979 0.962 . S
C966 H980 0.960 . S
C967 C964 1.511 . S
C967 H981 0.961 . S
C967 H982 0.961 . S
C967 H983 0.961 . S
C968 C969 1.370 . S
C968 C970 1.363 . S
C968 H984 0.931 . S
C969 C968 1.370 . S
C969 C973 1.408 . S
C970 C968 1.363 . S
C970 C971 1.370 . S
C970 C974 1.524 . S
C971 C963 1.503 . S
C971 C970 1.370 . S
C971 C972 1.403 . S
C972 C971 1.403 . S
C972 C973 1.404 . S
C972 C975 1.539 . S
C973 C969 1.408 . S
C973 C972 1.404 . S
C973 H985 0.930 . S
C974 C970 1.524 . S
C974 H986 0.956 . S
C974 H987 0.961 . S
C974 H988 0.961 . S
C975 C972 1.539 . S
C975 H989 0.958 . S
C975 H990 0.961 . S
C975 H991 0.960 . S
H976 C960 0.931 . S
H977 C965 0.929 . S
H978 C966 0.960 . S
H979 C966 0.962 . S
H980 C966 0.960 . S
H981 C967 0.961 . S
H982 C967 0.961 . S
H983 C967 0.961 . S
H984 C968 0.931 . S
H985 C973 0.930 . S
H986 C974 0.956 . S
H987 C974 0.961 . S
H988 C974 0.961 . S
H989 C975 0.958 . S
H990 C975 0.961 . S
H991 C975 0.960 . S
C992 C993 1.391 . S
C992 C994 1.394 . S
C992 H1008 0.931 . S
C993 C992 1.391 . S
C993 C997 1.376 . S
C994 C992 1.394 . S
C994 C995 1.369 . S
C994 C998 1.531 . S
C995 C994 1.369 . S
C995 C996 1.410 . S
C995 C1003 1.503 . S
C996 C995 1.410 . S
C996 C997 1.392 . S
C996 C999 1.511 . S
C997 C993 1.376 . S
C997 C996 1.392 . S
C997 H1009 0.929 . S
C998 C994 1.531 . S
C998 H1010 0.960 . S
C998 H1011 0.962 . S
C998 H1012 0.960 . S
C999 C996 1.511 . S
C999 H1013 0.961 . S
C999 H1014 0.961 . S
C999 H1015 0.961 . S
C1000 C1001 1.370 . S
C1000 C1002 1.363 . S
C1000 H1016 0.931 . S
C1001 C1000 1.370 . S
C1001 C1005 1.408 . S
C1002 C1000 1.363 . S
C1002 C1003 1.370 . S
C1002 C1006 1.524 . S
C1003 C995 1.503 . S
C1003 C1002 1.370 . S
C1003 C1004 1.403 . S
C1004 C1003 1.403 . S
C1004 C1005 1.404 . S
C1004 C1007 1.539 . S
C1005 C1001 1.408 . S
C1005 C1004 1.404 . S
C1005 H1017 0.930 . S
C1006 C1002 1.524 . S
C1006 H1018 0.956 . S
C1006 H1019 0.961 . S
C1006 H1020 0.961 . S
C1007 C1004 1.539 . S
C1007 H1021 0.958 . S
C1007 H1022 0.961 . S
C1007 H1023 0.960 . S
H1008 C992 0.931 . S
H1009 C997 0.929 . S
H1010 C998 0.960 . S
H1011 C998 0.962 . S
H1012 C998 0.960 . S
H1013 C999 0.961 . S
H1014 C999 0.961 . S
H1015 C999 0.961 . S
H1016 C1000 0.931 . S
H1017 C1005 0.930 . S
H1018 C1006 0.956 . S
H1019 C1006 0.961 . S
H1020 C1006 0.961 . S
H1021 C1007 0.958 . S
H1022 C1007 0.961 . S
H1023 C1007 0.960 . S
C1024 C1025 1.391 . S
C1024 C1026 1.394 . S
C1024 H1040 0.931 . S
C1025 C1024 1.391 . S
C1025 C1029 1.376 . S
C1026 C1024 1.394 . S
C1026 C1027 1.369 . S
C1026 C1030 1.531 . S
C1027 C1026 1.369 . S
C1027 C1028 1.410 . S
C1027 C1035 1.503 . S
C1028 C1027 1.410 . S
C1028 C1029 1.392 . S
C1028 C1031 1.511 . S
C1029 C1025 1.376 . S
C1029 C1028 1.392 . S
C1029 H1041 0.929 . S
C1030 C1026 1.531 . S
C1030 H1042 0.960 . S
C1030 H1043 0.962 . S
C1030 H1044 0.960 . S
C1031 C1028 1.511 . S
C1031 H1045 0.961 . S
C1031 H1046 0.961 . S
C1031 H1047 0.961 . S
C1032 C1033 1.370 . S
C1032 C1034 1.363 . S
C1032 H1048 0.931 . S
C1033 C1032 1.370 . S
C1033 C1037 1.408 . S
C1034 C1032 1.363 . S
C1034 C1035 1.370 . S
C1034 C1038 1.524 . S
C1035 C1027 1.503 . S
C1035 C1034 1.370 . S
C1035 C1036 1.403 . S
C1036 C1035 1.403 . S
C1036 C1037 1.404 . S
C1036 C1039 1.539 . S
C1037 C1033 1.408 . S
C1037 C1036 1.404 . S
C1037 H1049 0.930 . S
C1038 C1034 1.524 . S
C1038 H1050 0.956 . S
C1038 H1051 0.961 . S
C1038 H1052 0.961 . S
C1039 C1036 1.539 . S
C1039 H1053 0.958 . S
C1039 H1054 0.961 . S
C1039 H1055 0.960 . S
H1040 C1024 0.931 . S
H1041 C1029 0.929 . S
H1042 C1030 0.960 . S
H1043 C1030 0.962 . S
H1044 C1030 0.960 . S
H1045 C1031 0.961 . S
H1046 C1031 0.961 . S
H1047 C1031 0.961 . S
H1048 C1032 0.931 . S
H1049 C1037 0.930 . S
H1050 C1038 0.956 . S
H1051 C1038 0.961 . S
H1052 C1038 0.961 . S
H1053 C1039 0.958 . S
H1054 C1039 0.961 . S
H1055 C1039 0.960 . S
C1056 C1057 1.391 . S
C1056 C1058 1.394 . S
C1056 H1072 0.931 . S
C1057 C1056 1.391 . S
C1057 C1061 1.376 . S
C1058 C1056 1.394 . S
C1058 C1059 1.369 . S
C1058 C1062 1.531 . S
C1059 C1058 1.369 . S
C1059 C1060 1.410 . S
C1059 C1067 1.503 . S
C1060 C1059 1.410 . S
C1060 C1061 1.392 . S
C1060 C1063 1.511 . S
C1061 C1057 1.376 . S
C1061 C1060 1.392 . S
C1061 H1073 0.929 . S
C1062 C1058 1.531 . S
C1062 H1074 0.960 . S
C1062 H1075 0.962 . S
C1062 H1076 0.960 . S
C1063 C1060 1.511 . S
C1063 H1077 0.961 . S
C1063 H1078 0.961 . S
C1063 H1079 0.961 . S
C1064 C1065 1.370 . S
C1064 C1066 1.363 . S
C1064 H1080 0.931 . S
C1065 C1064 1.370 . S
C1065 C1069 1.408 . S
C1066 C1064 1.363 . S
C1066 C1067 1.370 . S
C1066 C1070 1.524 . S
C1067 C1059 1.503 . S
C1067 C1066 1.370 . S
C1067 C1068 1.403 . S
C1068 C1067 1.403 . S
C1068 C1069 1.404 . S
C1068 C1071 1.539 . S
C1069 C1065 1.408 . S
C1069 C1068 1.404 . S
C1069 H1081 0.930 . S
C1070 C1066 1.524 . S
C1070 H1082 0.956 . S
C1070 H1083 0.961 . S
C1070 H1084 0.961 . S
C1071 C1068 1.539 . S
C1071 H1085 0.958 . S
C1071 H1086 0.961 . S
C1071 H1087 0.960 . S
H1072 C1056 0.931 . S
H1073 C1061 0.929 . S
H1074 C1062 0.960 . S
H1075 C1062 0.962 . S
H1076 C1062 0.960 . S
H1077 C1063 0.961 . S
H1078 C1063 0.961 . S
H1079 C1063 0.961 . S
H1080 C1064 0.931 . S
H1081 C1069 0.930 . S
H1082 C1070 0.956 . S
H1083 C1070 0.961 . S
H1084 C1070 0.961 . S
H1085 C1071 0.958 . S
H1086 C1071 0.961 . S
H1087 C1071 0.960 . S
C1088 C1089 1.391 . S
C1088 C1090 1.394 . S
C1088 H1104 0.931 . S
C1089 C1088 1.391 . S
C1089 C1093 1.376 . S
C1090 C1088 1.394 . S
C1090 C1091 1.369 . S
C1090 C1094 1.531 . S
C1091 C1090 1.369 . S
C1091 C1092 1.410 . S
C1091 C1099 1.503 . S
C1092 C1091 1.410 . S
C1092 C1093 1.392 . S
C1092 C1095 1.511 . S
C1093 C1089 1.376 . S
C1093 C1092 1.392 . S
C1093 H1105 0.929 . S
C1094 C1090 1.531 . S
C1094 H1106 0.960 . S
C1094 H1107 0.962 . S
C1094 H1108 0.960 . S
C1095 C1092 1.511 . S
C1095 H1109 0.961 . S
C1095 H1110 0.961 . S
C1095 H1111 0.961 . S
C1096 C1097 1.370 . S
C1096 C1098 1.363 . S
C1096 H1112 0.931 . S
C1097 C1096 1.370 . S
C1097 C1101 1.408 . S
C1098 C1096 1.363 . S
C1098 C1099 1.370 . S
C1098 C1102 1.524 . S
C1099 C1091 1.503 . S
C1099 C1098 1.370 . S
C1099 C1100 1.403 . S
C1100 C1099 1.403 . S
C1100 C1101 1.404 . S
C1100 C1103 1.539 . S
C1101 C1097 1.408 . S
C1101 C1100 1.404 . S
C1101 H1113 0.930 . S
C1102 C1098 1.524 . S
C1102 H1114 0.956 . S
C1102 H1115 0.961 . S
C1102 H1116 0.961 . S
C1103 C1100 1.539 . S
C1103 H1117 0.958 . S
C1103 H1118 0.961 . S
C1103 H1119 0.960 . S
H1104 C1088 0.931 . S
H1105 C1093 0.929 . S
H1106 C1094 0.960 . S
H1107 C1094 0.962 . S
H1108 C1094 0.960 . S
H1109 C1095 0.961 . S
H1110 C1095 0.961 . S
H1111 C1095 0.961 . S
H1112 C1096 0.931 . S
H1113 C1101 0.930 . S
H1114 C1102 0.956 . S
H1115 C1102 0.961 . S
H1116 C1102 0.961 . S
H1117 C1103 0.958 . S
H1118 C1103 0.961 . S
H1119 C1103 0.960 . S
C1120 C1121 1.391 . S
C1120 C1122 1.394 . S
C1120 H1136 0.931 . S
C1121 C1120 1.391 . S
C1121 C1125 1.376 . S
C1122 C1120 1.394 . S
C1122 C1123 1.369 . S
C1122 C1126 1.531 . S
C1123 C1122 1.369 . S
C1123 C1124 1.410 . S
C1123 C1131 1.503 . S
C1124 C1123 1.410 . S
C1124 C1125 1.392 . S
C1124 C1127 1.511 . S
C1125 C1121 1.376 . S
C1125 C1124 1.392 . S
C1125 H1137 0.929 . S
C1126 C1122 1.531 . S
C1126 H1138 0.960 . S
C1126 H1139 0.962 . S
C1126 H1140 0.960 . S
C1127 C1124 1.511 . S
C1127 H1141 0.961 . S
C1127 H1142 0.961 . S
C1127 H1143 0.961 . S
C1128 C1129 1.370 . S
C1128 C1130 1.363 . S
C1128 H1144 0.931 . S
C1129 C1128 1.370 . S
C1129 C1133 1.408 . S
C1130 C1128 1.363 . S
C1130 C1131 1.370 . S
C1130 C1134 1.524 . S
C1131 C1123 1.503 . S
C1131 C1130 1.370 . S
C1131 C1132 1.403 . S
C1132 C1131 1.403 . S
C1132 C1133 1.404 . S
C1132 C1135 1.539 . S
C1133 C1129 1.408 . S
C1133 C1132 1.404 . S
C1133 H1145 0.930 . S
C1134 C1130 1.524 . S
C1134 H1146 0.956 . S
C1134 H1147 0.961 . S
C1134 H1148 0.961 . S
C1135 C1132 1.539 . S
C1135 H1149 0.958 . S
C1135 H1150 0.961 . S
C1135 H1151 0.960 . S
H1136 C1120 0.931 . S
H1137 C1125 0.929 . S
H1138 C1126 0.960 . S
H1139 C1126 0.962 . S
H1140 C1126 0.960 . S
H1141 C1127 0.961 . S
H1142 C1127 0.961 . S
H1143 C1127 0.961 . S
H1144 C1128 0.931 . S
H1145 C1133 0.930 . S
H1146 C1134 0.956 . S
H1147 C1134 0.961 . S
H1148 C1134 0.961 . S
H1149 C1135 0.958 . S
H1150 C1135 0.961 . S
H1151 C1135 0.960 . S
C1152 C1153 1.391 . S
C1152 C1154 1.394 . S
C1152 H1168 0.931 . S
C1153 C1152 1.391 . S
C1153 C1157 1.376 . S
C1154 C1152 1.394 . S
C1154 C1155 1.369 . S
C1154 C1158 1.531 . S
C1155 C1154 1.369 . S
C1155 C1156 1.410 . S
C1155 C1163 1.503 . S
C1156 C1155 1.410 . S
C1156 C1157 1.392 . S
C1156 C1159 1.511 . S
C1157 C1153 1.376 . S
C1157 C1156 1.392 . S
C1157 H1169 0.929 . S
C1158 C1154 1.531 . S
C1158 H1170 0.960 . S
C1158 H1171 0.962 . S
C1158 H1172 0.960 . S
C1159 C1156 1.511 . S
C1159 H1173 0.961 . S
C1159 H1174 0.961 . S
C1159 H1175 0.961 . S
C1160 C1161 1.370 . S
C1160 C1162 1.363 . S
C1160 H1176 0.931 . S
C1161 C1160 1.370 . S
C1161 C1165 1.408 . S
C1162 C1160 1.363 . S
C1162 C1163 1.370 . S
C1162 C1166 1.524 . S
C1163 C1155 1.503 . S
C1163 C1162 1.370 . S
C1163 C1164 1.403 . S
C1164 C1163 1.403 . S
C1164 C1165 1.404 . S
C1164 C1167 1.539 . S
C1165 C1161 1.408 . S
C1165 C1164 1.404 . S
C1165 H1177 0.930 . S
C1166 C1162 1.524 . S
C1166 H1178 0.956 . S
C1166 H1179 0.961 . S
C1166 H1180 0.961 . S
C1167 C1164 1.539 . S
C1167 H1181 0.958 . S
C1167 H1182 0.961 . S
C1167 H1183 0.960 . S
H1168 C1152 0.931 . S
H1169 C1157 0.929 . S
H1170 C1158 0.960 . S
H1171 C1158 0.962 . S
H1172 C1158 0.960 . S
H1173 C1159 0.961 . S
H1174 C1159 0.961 . S
H1175 C1159 0.961 . S
H1176 C1160 0.931 . S
H1177 C1165 0.930 . S
H1178 C1166 0.956 . S
H1179 C1166 0.961 . S
H1180 C1166 0.961 . S
H1181 C1167 0.958 . S
H1182 C1167 0.961 . S
H1183 C1167 0.960 . S
C1184 C1185 1.391 . S
C1184 C1186 1.394 . S
C1184 H1200 0.931 . S
C1185 C1184 1.391 . S
C1185 C1189 1.376 . S
C1186 C1184 1.394 . S
C1186 C1187 1.369 . S
C1186 C1190 1.531 . S
C1187 C1186 1.369 . S
C1187 C1188 1.410 . S
C1187 C1195 1.503 . S
C1188 C1187 1.410 . S
C1188 C1189 1.392 . S
C1188 C1191 1.511 . S
C1189 C1185 1.376 . S
C1189 C1188 1.392 . S
C1189 H1201 0.929 . S
C1190 C1186 1.531 . S
C1190 H1202 0.960 . S
C1190 H1203 0.962 . S
C1190 H1204 0.960 . S
C1191 C1188 1.511 . S
C1191 H1205 0.961 1_655 S
C1191 H1206 0.961 . S
C1191 H1207 0.961 1_655 S
C1192 C1193 1.370 . S
C1192 C1194 1.363 . S
C1192 H1208 0.931 . S
C1193 C1192 1.370 . S
C1193 C1197 1.408 . S
C1194 C1192 1.363 . S
C1194 C1195 1.370 . S
C1194 C1198 1.524 . S
C1195 C1187 1.503 . S
C1195 C1194 1.370 . S
C1195 C1196 1.403 . S
C1196 C1195 1.403 . S
C1196 C1197 1.404 . S
C1196 C1199 1.539 . S
C1197 C1193 1.408 . S
C1197 C1196 1.404 . S
C1197 H1209 0.930 . S
C1198 C1194 1.524 . S
C1198 H1210 0.956 . S
C1198 H1211 0.961 . S
C1198 H1212 0.961 . S
C1199 C1196 1.539 . S
C1199 H1213 0.958 . S
C1199 H1214 0.961 . S
C1199 H1215 0.960 . S
H1200 C1184 0.931 . S
H1201 C1189 0.929 . S
H1202 C1190 0.960 . S
H1203 C1190 0.962 . S
H1204 C1190 0.960 . S
H1205 C1191 0.961 1_455 S
H1206 C1191 0.961 . S
H1207 C1191 0.961 1_455 S
H1208 C1192 0.931 . S
H1209 C1197 0.930 . S
H1210 C1198 0.956 . S
H1211 C1198 0.961 . S
H1212 C1198 0.961 . S
H1213 C1199 0.958 . S
H1214 C1199 0.961 . S
H1215 C1199 0.960 . S
C1216 C1217 1.391 . S
C1216 C1218 1.394 . S
C1216 H1232 0.931 . S
C1217 C1216 1.391 . S
C1217 C1221 1.376 . S
C1218 C1216 1.394 . S
C1218 C1219 1.369 . S
C1218 C1222 1.531 . S
C1219 C1218 1.369 . S
C1219 C1220 1.410 . S
C1219 C1227 1.503 . S
C1220 C1219 1.410 . S
C1220 C1221 1.392 . S
C1220 C1223 1.511 . S
C1221 C1217 1.376 . S
C1221 C1220 1.392 . S
C1221 H1233 0.929 . S
C1222 C1218 1.531 . S
C1222 H1234 0.960 . S
C1222 H1235 0.962 . S
C1222 H1236 0.960 . S
C1223 C1220 1.511 . S
C1223 H1237 0.961 . S
C1223 H1238 0.961 . S
C1223 H1239 0.961 . S
C1224 C1225 1.370 . S
C1224 C1226 1.363 . S
C1224 H1240 0.931 . S
C1225 C1224 1.370 . S
C1225 C1229 1.408 . S
C1226 C1224 1.363 . S
C1226 C1227 1.370 . S
C1226 C1230 1.524 . S
C1227 C1219 1.503 . S
C1227 C1226 1.370 . S
C1227 C1228 1.403 . S
C1228 C1227 1.403 . S
C1228 C1229 1.404 . S
C1228 C1231 1.539 . S
C1229 C1225 1.408 . S
C1229 C1228 1.404 . S
C1229 H1241 0.930 . S
C1230 C1226 1.524 . S
C1230 H1242 0.956 . S
C1230 H1243 0.961 . S
C1230 H1244 0.961 . S
C1231 C1228 1.539 . S
C1231 H1245 0.958 . S
C1231 H1246 0.961 . S
C1231 H1247 0.960 . S
H1232 C1216 0.931 . S
H1233 C1221 0.929 . S
H1234 C1222 0.960 . S
H1235 C1222 0.962 . S
H1236 C1222 0.960 . S
H1237 C1223 0.961 . S
H1238 C1223 0.961 . S
H1239 C1223 0.961 . S
H1240 C1224 0.931 . S
H1241 C1229 0.930 . S
H1242 C1230 0.956 . S
H1243 C1230 0.961 . S
H1244 C1230 0.961 . S
H1245 C1231 0.958 . S
H1246 C1231 0.961 . S
H1247 C1231 0.960 . S
C1248 C1249 1.391 . S
C1248 C1250 1.394 . S
C1248 H1264 0.931 . S
C1249 C1248 1.391 . S
C1249 C1253 1.376 . S
C1250 C1248 1.394 . S
C1250 C1251 1.369 . S
C1250 C1254 1.531 . S
C1251 C1250 1.369 . S
C1251 C1252 1.410 . S
C1251 C1259 1.503 . S
C1252 C1251 1.410 . S
C1252 C1253 1.392 . S
C1252 C1255 1.511 . S
C1253 C1249 1.376 . S
C1253 C1252 1.392 . S
C1253 H1265 0.929 . S
C1254 C1250 1.531 . S
C1254 H1266 0.960 . S
C1254 H1267 0.962 . S
C1254 H1268 0.960 . S
C1255 C1252 1.511 . S
C1255 H1269 0.961 . S
C1255 H1270 0.961 . S
C1255 H1271 0.961 . S
C1256 C1257 1.370 . S
C1256 C1258 1.363 . S
C1256 H1272 0.931 . S
C1257 C1256 1.370 . S
C1257 C1261 1.408 . S
C1258 C1256 1.363 . S
C1258 C1259 1.370 . S
C1258 C1262 1.524 . S
C1259 C1251 1.503 . S
C1259 C1258 1.370 . S
C1259 C1260 1.403 . S
C1260 C1259 1.403 . S
C1260 C1261 1.404 . S
C1260 C1263 1.539 . S
C1261 C1257 1.408 . S
C1261 C1260 1.404 . S
C1261 H1273 0.930 . S
C1262 C1258 1.524 . S
C1262 H1274 0.956 . S
C1262 H1275 0.961 . S
C1262 H1276 0.961 . S
C1263 C1260 1.539 . S
C1263 H1277 0.958 . S
C1263 H1278 0.961 . S
C1263 H1279 0.960 . S
H1264 C1248 0.931 . S
H1265 C1253 0.929 . S
H1266 C1254 0.960 . S
H1267 C1254 0.962 . S
H1268 C1254 0.960 . S
H1269 C1255 0.961 . S
H1270 C1255 0.961 . S
H1271 C1255 0.961 . S
H1272 C1256 0.931 . S
H1273 C1261 0.930 . S
H1274 C1262 0.956 . S
H1275 C1262 0.961 . S
H1276 C1262 0.961 . S
H1277 C1263 0.958 . S
H1278 C1263 0.961 . S
H1279 C1263 0.960 . S
C1280 C1281 1.391 . S
C1280 C1282 1.394 . S
C1280 H1296 0.931 . S
C1281 C1280 1.391 . S
C1281 C1285 1.376 . S
C1282 C1280 1.394 . S
C1282 C1283 1.369 . S
C1282 C1286 1.531 . S
C1283 C1282 1.369 . S
C1283 C1284 1.410 . S
C1283 C1291 1.503 . S
C1284 C1283 1.410 . S
C1284 C1285 1.392 . S
C1284 C1287 1.511 . S
C1285 C1281 1.376 . S
C1285 C1284 1.392 . S
C1285 H1297 0.929 . S
C1286 C1282 1.531 . S
C1286 H1298 0.960 . S
C1286 H1299 0.962 . S
C1286 H1300 0.960 . S
C1287 C1284 1.511 . S
C1287 H1301 0.961 . S
C1287 H1302 0.961 . S
C1287 H1303 0.961 . S
C1288 C1289 1.370 . S
C1288 C1290 1.363 . S
C1288 H1304 0.931 . S
C1289 C1288 1.370 . S
C1289 C1293 1.408 . S
C1290 C1288 1.363 . S
C1290 C1291 1.370 . S
C1290 C1294 1.524 . S
C1291 C1283 1.503 . S
C1291 C1290 1.370 . S
C1291 C1292 1.403 . S
C1292 C1291 1.403 . S
C1292 C1293 1.404 . S
C1292 C1295 1.539 . S
C1293 C1289 1.408 . S
C1293 C1292 1.404 . S
C1293 H1305 0.930 . S
C1294 C1290 1.524 . S
C1294 H1306 0.956 . S
C1294 H1307 0.961 . S
C1294 H1308 0.961 . S
C1295 C1292 1.539 . S
C1295 H1309 0.958 . S
C1295 H1310 0.961 . S
C1295 H1311 0.960 . S
H1296 C1280 0.931 . S
H1297 C1285 0.929 . S
H1298 C1286 0.960 . S
H1299 C1286 0.962 . S
H1300 C1286 0.960 . S
H1301 C1287 0.961 . S
H1302 C1287 0.961 . S
H1303 C1287 0.961 . S
H1304 C1288 0.931 . S
H1305 C1293 0.930 . S
H1306 C1294 0.956 . S
H1307 C1294 0.961 . S
H1308 C1294 0.961 . S
H1309 C1295 0.958 . S
H1310 C1295 0.961 . S
H1311 C1295 0.960 . S
C1312 C1313 1.391 . S
C1312 C1314 1.394 . S
C1312 H1328 0.931 . S
C1313 C1312 1.391 . S
C1313 C1317 1.376 . S
C1314 C1312 1.394 . S
C1314 C1315 1.369 . S
C1314 C1318 1.531 . S
C1315 C1314 1.369 . S
C1315 C1316 1.410 . S
C1315 C1323 1.503 . S
C1316 C1315 1.410 . S
C1316 C1317 1.392 . S
C1316 C1319 1.511 . S
C1317 C1313 1.376 . S
C1317 C1316 1.392 . S
C1317 H1329 0.929 . S
C1318 C1314 1.531 . S
C1318 H1330 0.960 . S
C1318 H1331 0.962 . S
C1318 H1332 0.960 . S
C1319 C1316 1.511 . S
C1319 H1333 0.961 . S
C1319 H1334 0.961 . S
C1319 H1335 0.961 . S
C1320 C1321 1.370 . S
C1320 C1322 1.363 . S
C1320 H1336 0.931 . S
C1321 C1320 1.370 . S
C1321 C1325 1.408 . S
C1322 C1320 1.363 . S
C1322 C1323 1.370 . S
C1322 C1326 1.524 . S
C1323 C1315 1.503 . S
C1323 C1322 1.370 . S
C1323 C1324 1.403 . S
C1324 C1323 1.403 . S
C1324 C1325 1.404 . S
C1324 C1327 1.539 . S
C1325 C1321 1.408 . S
C1325 C1324 1.404 . S
C1325 H1337 0.930 . S
C1326 C1322 1.524 . S
C1326 H1338 0.956 . S
C1326 H1339 0.961 . S
C1326 H1340 0.961 . S
C1327 C1324 1.539 . S
C1327 H1341 0.958 . S
C1327 H1342 0.961 . S
C1327 H1343 0.960 . S
H1328 C1312 0.931 . S
H1329 C1317 0.929 . S
H1330 C1318 0.960 . S
H1331 C1318 0.962 . S
H1332 C1318 0.960 . S
H1333 C1319 0.961 . S
H1334 C1319 0.961 . S
H1335 C1319 0.961 . S
H1336 C1320 0.931 . S
H1337 C1325 0.930 . S
H1338 C1326 0.956 . S
H1339 C1326 0.961 . S
H1340 C1326 0.961 . S
H1341 C1327 0.958 . S
H1342 C1327 0.961 . S
H1343 C1327 0.960 . S
C1344 C1345 1.391 . S
C1344 C1346 1.394 . S
C1344 H1360 0.931 . S
C1345 C1344 1.391 . S
C1345 C1349 1.376 . S
C1346 C1344 1.394 . S
C1346 C1347 1.369 . S
C1346 C1350 1.531 . S
C1347 C1346 1.369 . S
C1347 C1348 1.410 . S
C1347 C1355 1.503 . S
C1348 C1347 1.410 . S
C1348 C1349 1.392 . S
C1348 C1351 1.511 . S
C1349 C1345 1.376 . S
C1349 C1348 1.392 . S
C1349 H1361 0.929 . S
C1350 C1346 1.531 . S
C1350 H1362 0.960 . S
C1350 H1363 0.962 . S
C1350 H1364 0.960 . S
C1351 C1348 1.511 . S
C1351 H1365 0.961 . S
C1351 H1366 0.961 . S
C1351 H1367 0.961 . S
C1352 C1353 1.370 . S
C1352 C1354 1.363 . S
C1352 H1368 0.931 . S
C1353 C1352 1.370 . S
C1353 C1357 1.408 . S
C1354 C1352 1.363 . S
C1354 C1355 1.370 . S
C1354 C1358 1.524 . S
C1355 C1347 1.503 . S
C1355 C1354 1.370 . S
C1355 C1356 1.403 . S
C1356 C1355 1.403 . S
C1356 C1357 1.404 . S
C1356 C1359 1.539 . S
C1357 C1353 1.408 . S
C1357 C1356 1.404 . S
C1357 H1369 0.930 . S
C1358 C1354 1.524 . S
C1358 H1370 0.956 . S
C1358 H1371 0.961 . S
C1358 H1372 0.961 . S
C1359 C1356 1.539 . S
C1359 H1373 0.958 . S
C1359 H1374 0.961 . S
C1359 H1375 0.960 . S
H1360 C1344 0.931 . S
H1361 C1349 0.929 . S
H1362 C1350 0.960 . S
H1363 C1350 0.962 . S
H1364 C1350 0.960 . S
H1365 C1351 0.961 . S
H1366 C1351 0.961 . S
H1367 C1351 0.961 . S
H1368 C1352 0.931 . S
H1369 C1357 0.930 . S
H1370 C1358 0.956 . S
H1371 C1358 0.961 . S
H1372 C1358 0.961 . S
H1373 C1359 0.958 . S
H1374 C1359 0.961 . S
H1375 C1359 0.960 . S
C1376 C1377 1.391 . S
C1376 C1378 1.394 . S
C1376 H1392 0.931 . S
C1377 C1376 1.391 . S
C1377 C1381 1.376 . S
C1378 C1376 1.394 . S
C1378 C1379 1.369 . S
C1378 C1382 1.531 . S
C1379 C1378 1.369 . S
C1379 C1380 1.410 . S
C1379 C1387 1.503 . S
C1380 C1379 1.410 . S
C1380 C1381 1.392 . S
C1380 C1383 1.511 . S
C1381 C1377 1.376 . S
C1381 C1380 1.392 . S
C1381 H1393 0.929 . S
C1382 C1378 1.531 . S
C1382 H1394 0.960 . S
C1382 H1395 0.962 . S
C1382 H1396 0.960 . S
C1383 C1380 1.511 . S
C1383 H1397 0.961 . S
C1383 H1398 0.961 . S
C1383 H1399 0.961 . S
C1384 C1385 1.370 . S
C1384 C1386 1.363 . S
C1384 H1400 0.931 . S
C1385 C1384 1.370 . S
C1385 C1389 1.408 . S
C1386 C1384 1.363 . S
C1386 C1387 1.370 . S
C1386 C1390 1.524 . S
C1387 C1379 1.503 . S
C1387 C1386 1.370 . S
C1387 C1388 1.403 . S
C1388 C1387 1.403 . S
C1388 C1389 1.404 . S
C1388 C1391 1.539 . S
C1389 C1385 1.408 . S
C1389 C1388 1.404 . S
C1389 H1401 0.930 . S
C1390 C1386 1.524 . S
C1390 H1402 0.956 . S
C1390 H1403 0.961 . S
C1390 H1404 0.961 . S
C1391 C1388 1.539 . S
C1391 H1405 0.958 . S
C1391 H1406 0.961 . S
C1391 H1407 0.960 . S
H1392 C1376 0.931 . S
H1393 C1381 0.929 . S
H1394 C1382 0.960 . S
H1395 C1382 0.962 . S
H1396 C1382 0.960 . S
H1397 C1383 0.961 . S
H1398 C1383 0.961 . S
H1399 C1383 0.961 . S
H1400 C1384 0.931 . S
H1401 C1389 0.930 . S
H1402 C1390 0.956 . S
H1403 C1390 0.961 . S
H1404 C1390 0.961 . S
H1405 C1391 0.958 . S
H1406 C1391 0.961 . S
H1407 C1391 0.960 . S
C641 C1 1.133 . S
C649 C497 1.228 . S
C673 C80 1.145 . S
C681 C537 1.242 . S
C713 C562 2.388 . S
C705 C140 2.370 . S
C737 C211 2.399 . S
C745 C602 2.388 . S
C777 C533 1.808 . S
C769 C31 1.678 . S
C809 C493 1.813 . S
C801 C61 1.702 . S
C841 C624 1.678 . S
C833 C151 1.609 . S
C873 C584 1.674 . S
C865 C200 1.694 . S
C897 C20 1.313 . S
C905 C626 1.395 . S
C937 C543 2.148 . S
C929 C121 2.164 . S
C961 C181 2.103 . S
C969 C503 2.150 . S
C993 C91 1.432 . S
C1001 C586 1.383 . S
C1033 C506 1.226 . S
C1025 C260 1.208 . S
C1057 C320 1.230 . S
C1065 C546 1.230 . S
C1089 C361 2.395 . S
C1097 C583 2.373 . S
C1121 C451 2.419 . S
C1129 C623 2.373 . S
C1153 C271 1.709 . S
C1161 C544 1.809 . S
C1193 C504 1.810 . S
C1185 C301 1.718 . S
C1225 C613 1.684 . S
C1217 C380 1.606 . S
C1257 C573 1.682 . S
C1249 C440 1.708 . S
C1281 C241 1.306 . S
C1289 C617 1.385 . S
C1321 C522 2.147 . S
C1313 C391 2.191 . S
C1353 C482 2.155 . S
C1345 C421 2.100 . S
C1377 C331 1.432 . S
C1385 C577 1.387 . S
