# Generated by pormake.
# Topology zzz, (3,6)-cn, num edge types: 1
# Building blocks:
#     Node 0, Type 0, BuildingBlock: ESEHIV_clean_linker_0, # of connection points: 3
#     Node 1, Type 0, BuildingBlock: ESEHIV_clean_linker_0, # of connection points: 3
#     Node 2, Type 0, BuildingBlock: ESEHIV_clean_linker_0, # of connection points: 3
#     Node 3, Type 0, BuildingBlock: ESEHIV_clean_linker_0, # of connection points: 3
#     Node 4, Type 0, BuildingBlock: ESEHIV_clean_linker_0, # of connection points: 3
#     Node 5, Type 0, BuildingBlock: ESEHIV_clean_linker_0, # of connection points: 3
#     Node 6, Type 0, BuildingBlock: ESEHIV_clean_linker_0, # of connection points: 3
#     Node 7, Type 0, BuildingBlock: ESEHIV_clean_linker_0, # of connection points: 3
#     Node 8, Type 1, BuildingBlock: BETFAJ_clean_sbu_0, # of connection points: 6
#     Node 9, Type 1, BuildingBlock: BETFAJ_clean_sbu_0, # of connection points: 6
#     Node 10, Type 1, BuildingBlock: BETFAJ_clean_sbu_0, # of connection points: 6
#     Node 11, Type 1, BuildingBlock: BETFAJ_clean_sbu_0, # of connection points: 6
#     Edge 12, Type (0, 1), BuildingBlock: TEMPAE_clean_linker_10, # of connection points: 2
#     Edge 13, Type (0, 1), BuildingBlock: TEMPAE_clean_linker_10, # of connection points: 2
#     Edge 14, Type (0, 1), BuildingBlock: TEMPAE_clean_linker_10, # of connection points: 2
#     Edge 15, Type (0, 1), BuildingBlock: TEMPAE_clean_linker_10, # of connection points: 2
#     Edge 16, Type (0, 1), BuildingBlock: TEMPAE_clean_linker_10, # of connection points: 2
#     Edge 17, Type (0, 1), BuildingBlock: TEMPAE_clean_linker_10, # of connection points: 2
#     Edge 18, Type (0, 1), BuildingBlock: TEMPAE_clean_linker_10, # of connection points: 2
#     Edge 19, Type (0, 1), BuildingBlock: TEMPAE_clean_linker_10, # of connection points: 2
#     Edge 20, Type (0, 1), BuildingBlock: TEMPAE_clean_linker_10, # of connection points: 2
#     Edge 21, Type (0, 1), BuildingBlock: TEMPAE_clean_linker_10, # of connection points: 2
#     Edge 22, Type (0, 1), BuildingBlock: TEMPAE_clean_linker_10, # of connection points: 2
#     Edge 23, Type (0, 1), BuildingBlock: TEMPAE_clean_linker_10, # of connection points: 2
#     Edge 24, Type (0, 1), BuildingBlock: TEMPAE_clean_linker_10, # of connection points: 2
#     Edge 25, Type (0, 1), BuildingBlock: TEMPAE_clean_linker_10, # of connection points: 2
#     Edge 26, Type (0, 1), BuildingBlock: TEMPAE_clean_linker_10, # of connection points: 2
#     Edge 27, Type (0, 1), BuildingBlock: TEMPAE_clean_linker_10, # of connection points: 2
#     Edge 28, Type (0, 1), BuildingBlock: TEMPAE_clean_linker_10, # of connection points: 2
#     Edge 29, Type (0, 1), BuildingBlock: TEMPAE_clean_linker_10, # of connection points: 2
#     Edge 30, Type (0, 1), BuildingBlock: TEMPAE_clean_linker_10, # of connection points: 2
#     Edge 31, Type (0, 1), BuildingBlock: TEMPAE_clean_linker_10, # of connection points: 2
#     Edge 32, Type (0, 1), BuildingBlock: TEMPAE_clean_linker_10, # of connection points: 2
#     Edge 33, Type (0, 1), BuildingBlock: TEMPAE_clean_linker_10, # of connection points: 2
#     Edge 34, Type (0, 1), BuildingBlock: TEMPAE_clean_linker_10, # of connection points: 2
#     Edge 35, Type (0, 1), BuildingBlock: TEMPAE_clean_linker_10, # of connection points: 2
# Relax obj value: 0.506
# Max RMSD: 0.264
# Mean RMSD: 0.254
data_MOF--net-zzz--node1-BETFAJ_clean_sbu_0--node2-ESEHIV_clean_linker_0--edge1-TEMPAE_clean_linker_10
_symmetry_space_group_name_H-M    P1
_symmetry_Int_Tables_number       1
_symmetry_cell_setting            triclinic
loop_
_symmetry_equiv_pos_as_xyz
'x, y, z'
_cell_length_a     46.070302
_cell_length_b     46.070427
_cell_length_c     14.511382
_cell_angle_alpha  89.569653
_cell_angle_beta   90.025906
_cell_angle_gamma 89.869948
loop_
_atom_site_label
_atom_site_type_symbol
_atom_site_fract_x
_atom_site_fract_y
_atom_site_fract_z
_atom_type_partial_charge
H0 H 0.78533 0.51637 0.40768 0.0
H1 H 0.70966 0.52935 0.24283 0.0
H2 H 0.7016 0.51446 0.5369 0.0
C3 C 0.76205 0.51958 0.40248 0.0
C4 C 0.74595 0.51977 0.48362 0.0
C5 C 0.74913 0.52237 0.3162 0.0
C6 C 0.71931 0.52612 0.31042 0.0
C7 C 0.70142 0.51984 0.38607 0.0
C8 C 0.71477 0.51785 0.47606 0.0
H9 H 1.00468 0.78243 0.38827 0.0
H10 H 1.00733 0.70324 0.24114 0.0
H11 H 0.99884 0.70132 0.53908 0.0
C12 C 1.00359 0.75888 0.39026 0.0
C13 C 1.00361 0.74469 0.4755 0.0
C14 C 1.00593 0.74395 0.30787 0.0
C15 C 1.0053 0.7141 0.30708 0.0
C16 C 1.0002 0.69803 0.38742 0.0
C17 C 1.00061 0.71329 0.4749 0.0
H18 H 0.75081 0.97261 0.44713 0.0
H19 H 0.82553 0.97229 0.27601 0.0
H20 H 0.81888 0.03421 0.49706 0.0
C21 C 0.77232 0.98065 0.4315 0.0
C22 C 0.78293 1.00338 0.48495 0.0
C23 C 0.78481 0.97486 0.34576 0.0
C24 C 0.8144 0.98045 0.33645 0.0
C25 C 0.82742 1.00245 0.38845 0.0
C26 C 0.81068 0.01546 0.46097 0.0
H27 H 0.51684 0.74744 0.38945 0.0
H28 H 0.52045 0.82813 0.53892 0.0
H29 H 0.5098 0.82706 0.24182 0.0
C30 C 0.51695 0.77102 0.39094 0.0
C31 C 0.51319 0.78609 0.30865 0.0
C32 C 0.51675 0.78498 0.47589 0.0
C33 C 0.51866 0.81633 0.47499 0.0
C34 C 0.51792 0.83178 0.38759 0.0
C35 C 0.51265 0.81596 0.30758 0.0
H36 H 0.24836 0.53015 0.12345 0.0
H37 H 0.33215 0.53105 0.24301 0.0
H38 H 0.31844 0.48586 0.98475 0.0
C39 C 0.27119 0.52469 0.11633 0.0
C40 C 0.28112 0.51059 0.03715 0.0
C41 C 0.2896 0.53203 0.18796 0.0
C42 C 0.31861 0.52518 0.18468 0.0
C43 C 0.32923 0.50669 0.11645 0.0
C44 C 0.31051 0.49953 0.03964 0.0
H45 H 0.04476 0.24723 0.10981 0.0
H46 H 0.03694 0.3257 0.25829 0.0
H47 H 0.02106 0.32593 0.9647 0.0
C48 C 0.04289 0.27075 0.1075 0.0
C49 C 0.03546 0.28428 0.02413 0.0
C50 C 0.03889 0.28517 0.19059 0.0
C51 C 0.03827 0.31509 0.19171 0.0
C52 C 0.0314 0.3307 0.11174 0.0
C53 C 0.02864 0.31493 0.02634 0.0
H54 H 0.28604 0.04054 0.09844 0.0
H55 H 0.20923 0.03765 0.26079 0.0
H56 H 0.20321 0.02842 0.96505 0.0
C57 C 0.26245 0.04053 0.10119 0.0
C58 C 0.24691 0.03627 0.01993 0.0
C59 C 0.24903 0.03837 0.18661 0.0
C60 C 0.21902 0.03887 0.19272 0.0
C61 C 0.2017 0.03548 0.11452 0.0
C62 C 0.21582 0.033 0.02614 0.0
H63 H 0.51337 0.28023 0.13618 0.0
H64 H 0.49844 0.20568 0.96426 0.0
H65 H 0.53128 0.19627 0.24324 0.0
C66 C 0.51379 0.25696 0.12454 0.0
C67 C 0.52323 0.23917 0.1959 0.0
C68 C 0.50993 0.24613 0.03542 0.0
C69 C 0.50559 0.21516 0.02837 0.0
C70 C 0.51123 0.19694 0.10836 0.0
C71 C 0.52417 0.20957 0.18528 0.0
Sm72 Sm 0.03879 1.01325 0.79872 0.0
Sm73 Sm 0.99022 0.01839 0.69567 0.0
C74 C 0.07854 0.99934 0.92243 0.0
C75 C 0.0786 0.97315 0.97921 0.0
C76 C 0.05172 0.96128 1.00496 0.0
C77 C 0.04982 0.9323 0.02959 0.0
C78 C 0.07471 0.91489 0.02913 0.0
C79 C 0.10201 0.92721 0.01254 0.0
C80 C 0.10395 0.95642 0.98709 0.0
C81 C 0.05527 0.0258 0.61686 0.0
C82 C 1.01055 0.95146 0.7201 0.0
C83 C 0.95056 0.03417 0.57399 0.0
C84 C 0.95168 0.06067 0.51889 0.0
C85 C 0.97892 0.07335 0.50423 0.0
C86 C 0.98093 0.10132 0.47012 0.0
C87 C 0.95574 0.11706 0.44828 0.0
C88 C 0.92837 0.10419 0.46015 0.0
C89 C 0.92635 0.07596 0.49571 0.0
C90 C 0.9733 1.00698 0.87697 0.0
C91 C 0.01864 0.07952 0.77778 0.0
O92 O 0.05752 0.01753 0.93898 0.0
O93 O 0.08179 0.99443 0.83472 0.0
O94 O 0.03552 1.00814 0.641 0.0
O95 O 0.06583 0.03813 0.68952 0.0
O96 O 0.02715 0.96328 0.78445 0.0
O97 O 0.99431 0.96888 0.66929 0.0
O98 O 0.97087 0.01528 0.55589 0.0
O99 O 0.94771 0.03871 0.66201 0.0
O100 O 0.9933 0.02434 0.85236 0.0
O101 O 0.96342 0.99364 0.80519 0.0
O102 O 1.00372 0.06811 0.70875 0.0
O103 O 0.03305 0.06176 0.83209 0.0
H104 H 0.03176 0.97363 0.99839 0.0
H105 H 0.02865 0.92304 0.04376 0.0
H106 H 0.1214 0.91385 0.01295 0.0
H107 H 0.12475 0.96526 0.9665 0.0
H108 H 0.99876 0.06216 0.52358 0.0
H109 H 1.00226 0.11101 0.46374 0.0
H110 H 0.90874 0.11608 0.44338 0.0
H111 H 0.90518 0.06654 0.50831 0.0
Sm112 Sm 0.5187 0.04662 0.81775 0.0
Sm113 Sm 0.51008 0.99159 0.69383 0.0
C114 C 0.5369 0.07914 0.95299 0.0
C115 C 0.56589 0.07663 0.99517 0.0
C116 C 0.57389 0.05078 0.04049 0.0
C117 C 0.60292 0.0446 0.05709 0.0
C118 C 0.62447 0.06427 0.02988 0.0
C119 C 0.61661 0.09123 0.99214 0.0
C120 C 0.58738 0.09736 0.97459 0.0
C121 C 0.50853 0.06564 0.63747 0.0
C122 C 0.57706 0.01551 0.71903 0.0
C123 C 0.49513 0.95693 0.55947 0.0
C124 C 0.46611 0.95243 0.52155 0.0
C125 C 0.44927 0.97638 0.49384 0.0
C126 C 0.42049 0.97255 0.46907 0.0
C127 C 0.40814 0.94482 0.47174 0.0
C128 C 0.42464 0.92079 0.49927 0.0
C129 C 0.45359 0.92464 0.52484 0.0
C130 C 0.51848 0.97201 0.87426 0.0
C131 C 0.45163 0.02335 0.7907 0.0
O132 O 0.519 0.05742 0.96679 0.0
O133 O 0.53727 0.08796 0.86728 0.0
O134 O 0.5093 0.03958 0.66634 0.0
O135 O 0.51198 0.08267 0.70716 0.0
O136 O 0.56661 0.03327 0.78278 0.0
O137 O 0.55959 0.99825 0.67183 0.0
O138 O 0.50712 0.9823 0.5442 0.0
O139 O 0.49797 0.948 0.64444 0.0
O140 O 0.51849 0.99836 0.84692 0.0
O141 O 0.51492 0.95549 0.80366 0.0
O142 O 0.46198 1.00558 0.72638 0.0
O143 O 0.46914 0.0401 0.83986 0.0
H144 H 0.55788 0.03464 0.059 0.0
H145 H 0.60866 0.02396 0.08865 0.0
H146 H 0.63308 0.10678 0.97205 0.0
H147 H 0.58173 0.11749 0.93985 0.0
H148 H 0.45805 0.99816 0.49319 0.0
H149 H 0.40774 0.99128 0.44797 0.0
H150 H 0.41515 0.8993 0.50123 0.0
H151 H 0.46609 0.90609 0.54844 0.0
Sm152 Sm 0.48697 0.51623 0.79839 0.0
Sm153 Sm 0.5432 0.51192 0.69384 0.0
C154 C 0.44949 0.5279 0.92776 0.0
C155 C 0.44944 0.55485 0.97913 0.0
C156 C 0.47618 0.56769 1.00071 0.0
C157 C 0.47734 0.59681 0.023 0.0
C158 C 0.45183 0.61331 0.02446 0.0
C159 C 0.42487 0.60019 0.00955 0.0
C160 C 0.4237 0.57098 0.98586 0.0
C161 C 0.47033 0.50548 0.6189 0.0
C162 C 0.51606 0.57789 0.71539 0.0
C163 C 0.58026 0.49981 0.5617 0.0
C164 C 0.58148 0.47259 0.51135 0.0
C165 C 0.55627 0.45557 0.5078 0.0
C166 C 0.55803 0.42655 0.48376 0.0
C167 C 0.58495 0.41424 0.46247 0.0
C168 C 0.61005 0.43134 0.46174 0.0
C169 C 0.60834 0.46054 0.48675 0.0
C170 C 0.55997 0.51957 0.87612 0.0
C171 C 0.51232 0.4506 0.77501 0.0
O172 O 0.4716 0.51046 0.94228 0.0
O173 O 0.44376 0.53199 0.84062 0.0
O174 O 0.49654 0.5078 0.64607 0.0
O175 O 0.45277 0.50788 0.68747 0.0
O176 O 0.49657 0.56568 0.77073 0.0
O177 O 0.53595 0.56167 0.67445 0.0
O178 O 0.5572 0.51592 0.54754 0.0
O179 O 0.58642 0.49658 0.6489 0.0
O180 O 0.53371 0.51837 0.84804 0.0
O181 O 0.5774 0.51959 0.80646 0.0
O182 O 0.53247 0.46254 0.72122 0.0
O183 O 0.49288 0.46694 0.81666 0.0
H184 H 0.49642 0.55586 0.99387 0.0
H185 H 0.49827 0.60676 0.03543 0.0
H186 H 0.40506 0.61288 0.01092 0.0
H187 H 0.40305 0.5615 0.96714 0.0
H188 H 0.53541 0.46428 0.52853 0.0
H189 H 0.53846 0.41352 0.48357 0.0
H190 H 0.63087 0.42195 0.44401 0.0
H191 H 0.62803 0.47326 0.4912 0.0
Sm192 Sm 1.00863 0.4816 0.81866 0.0
Sm193 Sm 0.01623 0.53663 0.70189 0.0
C194 C 0.99695 0.44603 0.95682 0.0
C195 C 0.96945 0.44306 1.00648 0.0
C196 C 0.95484 0.46818 0.03514 0.0
C197 C 0.92493 0.4678 0.046 0.0
C198 C 0.9093 0.44231 0.02885 0.0
C199 C 0.92411 0.41637 0.01134 0.0
C200 C 0.9542 0.41674 1.0003 0.0
C201 C 0.01668 0.46266 0.63758 0.0
C202 C 0.94948 0.51271 0.72671 0.0
C203 C 0.0302 0.57332 0.56983 0.0
C204 C 0.05866 0.5778 0.52751 0.0
C205 C 0.07502 0.55391 0.49755 0.0
C206 C 0.10368 0.55767 0.47054 0.0
C207 C 0.11638 0.58522 0.474 0.0
C208 C 0.10018 0.6092 0.5027 0.0
C209 C 0.07134 0.60549 0.52941 0.0
C210 C 1.00645 0.55569 0.88177 0.0
C211 C 0.07572 0.5046 0.78937 0.0
O212 O 1.01128 0.47029 0.96794 0.0
O213 O 0.99511 0.43851 0.87052 0.0
O214 O 0.01644 0.48905 0.66374 0.0
O215 O 0.01444 0.44602 0.70929 0.0
O216 O 0.95996 0.49434 0.78965 0.0
O217 O 0.96683 0.53006 0.67905 0.0
O218 O 0.01717 0.54866 0.55326 0.0
O219 O 0.02921 0.5806 0.65633 0.0
O220 O 1.00732 0.52925 0.85616 0.0
O221 O 1.01001 0.57228 0.81071 0.0
O222 O 0.06492 0.52367 0.72927 0.0
O223 O 0.05833 0.48714 0.83635 0.0
H224 H 0.966 0.48876 0.04096 0.0
H225 H 0.9138 0.48783 0.06285 0.0
H226 H 0.91228 0.39643 0.99989 0.0
H227 H 0.96513 0.39716 0.97803 0.0
H228 H 0.06606 0.53219 0.49784 0.0
H229 H 0.11624 0.53895 0.44923 0.0
H230 H 0.10993 0.63055 0.50546 0.0
H231 H 0.05916 0.62402 0.55399 0.0
C232 C 0.15969 1.00396 0.16296 0.0
C233 C 0.16995 0.0317 0.13753 0.0
C234 C 0.13728 1.00021 0.2295 0.0
C235 C 0.12504 0.02472 0.27456 0.0
C236 C 0.13352 0.0527 0.24298 0.0
C237 C 0.15531 0.05578 0.17471 0.0
C238 C 0.12869 0.9698 0.2569 0.0
C239 C 0.12179 0.07965 0.28833 0.0
C240 C 0.0591 0.02213 0.44138 0.0
C241 C 0.07251 0.02341 0.52842 0.0
C242 C 0.07565 0.02162 0.35846 0.0
C243 C 0.10656 0.02167 0.36165 0.0
C244 C 0.12003 0.02133 0.44985 0.0
C245 C 0.10304 0.02265 0.53113 0.0
C246 C 0.06002 0.02168 0.26714 0.0
C247 C 0.15266 0.01978 0.45857 0.0
H248 H 0.17113 0.98504 0.13762 0.0
H249 H 0.16343 0.0773 0.15856 0.0
H250 H 0.14097 0.9632 0.31944 0.0
H251 H 0.10521 0.96852 0.27331 0.0
H252 H 0.13369 0.95405 0.20145 0.0
H253 H 0.12793 0.09973 0.25032 0.0
H254 H 0.09779 0.07866 0.29343 0.0
H255 H 0.13051 0.08102 0.35951 0.0
H256 H 0.03559 0.02245 0.43793 0.0
H257 H 0.11379 0.02291 0.59759 0.0
H258 H 0.06795 1.00354 0.22389 0.0
H259 H 0.06476 0.04214 0.22932 0.0
H260 H 0.03613 0.0197 0.2754 0.0
H261 H 0.16073 0.99955 0.4263 0.0
H262 H 0.15998 0.02006 0.53151 0.0
H263 H 0.1628 0.03828 0.42137 0.0
C264 C 0.4778 0.1672 0.1997 0.0
C265 C 0.49964 0.16722 0.13157 0.0
C266 C 0.47876 0.148 0.27619 0.0
C267 C 0.49911 0.12484 0.27863 0.0
C268 C 0.51798 0.12164 0.20173 0.0
C269 C 0.51859 0.14315 0.13076 0.0
C270 C 0.46113 0.15548 0.36046 0.0
C271 C 0.53882 0.09645 0.19613 0.0
C272 C 0.52741 0.09903 0.515 0.0
C273 C 0.50799 0.07685 0.53995 0.0
C274 C 0.52543 0.11381 0.4296 0.0
C275 C 0.50302 0.1068 0.36627 0.0
C276 C 0.48398 0.08352 0.38953 0.0
C277 C 0.48664 0.06889 0.47586 0.0
C278 C 0.54723 0.13734 0.40802 0.0
C279 C 0.46039 0.07437 0.32392 0.0
H280 H 0.46355 0.18595 0.20312 0.0
H281 H 0.53571 0.14254 0.07956 0.0
H282 H 0.44885 0.13641 0.38578 0.0
H283 H 0.47608 0.1621 0.41657 0.0
H284 H 0.44566 0.17358 0.34736 0.0
H285 H 0.55961 0.10337 0.16434 0.0
H286 H 0.5437 0.08624 0.26373 0.0
H287 H 0.52883 0.07952 0.15259 0.0
H288 H 0.54411 0.10524 0.56368 0.0
H289 H 0.47127 0.0521 0.49466 0.0
H290 H 0.53595 0.15768 0.3874 0.0
H291 H 0.56102 0.13056 0.34928 0.0
H292 H 0.56169 0.14196 0.46741 0.0
H293 H 0.44265 0.09067 0.32403 0.0
H294 H 0.451 0.053 0.34346 0.0
H295 H 0.46895 0.07316 0.25253 0.0
C296 C 0.35556 0.47501 0.22552 0.0
C297 C 0.35736 0.49253 0.14559 0.0
C298 C 0.3768 0.47613 0.2958 0.0
C299 C 0.40277 0.49207 0.28203 0.0
C300 C 0.40682 0.50602 0.19542 0.0
C301 C 0.38388 0.50692 0.1297 0.0
C302 C 0.36937 0.46378 0.38947 0.0
C303 C 0.43457 0.52182 0.17368 0.0
C304 C 0.43958 0.52604 0.49312 0.0
C305 C 0.459 0.50429 0.52236 0.0
C306 C 0.42218 0.52283 0.41374 0.0
C307 C 0.42367 0.49689 0.36164 0.0
C308 C 0.44455 0.47553 0.38784 0.0
C309 C 0.46174 0.47933 0.46815 0.0
C310 C 0.40162 0.54707 0.38718 0.0
C311 C 0.4483 0.44833 0.332 0.0
H312 H 0.335 0.46456 0.24059 0.0
H313 H 0.38586 0.52091 0.06971 0.0
H314 H 0.38741 0.45037 0.417 0.0
H315 H 0.36594 0.48196 0.43817 0.0
H316 H 0.34933 0.45043 0.38813 0.0
H317 H 0.42976 0.54507 0.1605 0.0
H318 H 0.45123 0.52033 0.2286 0.0
H319 H 0.44409 0.5123 0.11082 0.0
H320 H 0.43718 0.54532 0.53492 0.0
H321 H 0.47623 0.46215 0.49093 0.0
H322 H 0.37937 0.5385 0.37679 0.0
H323 H 0.40878 0.55696 0.32107 0.0
H324 H 0.40081 0.56444 0.43982 0.0
H325 H 0.42911 0.43412 0.34111 0.0
H326 H 0.46796 0.4359 0.35286 0.0
H327 H 0.44987 0.45388 0.25757 0.0
C328 C 0.04558 0.38153 0.15081 0.0
C329 C 0.02311 0.36177 0.13191 0.0
C330 C 0.04281 0.40317 0.21953 0.0
C331 C 0.01695 0.40539 0.27252 0.0
C332 C 0.99299 0.38791 0.24587 0.0
C333 C 0.99627 0.36669 0.17603 0.0
C334 C 0.06887 0.42147 0.24235 0.0
C335 C 0.9647 0.38931 0.29786 0.0
C336 C 0.02617 0.4208 0.53166 0.0
C337 C 0.01833 0.4502 0.54109 0.0
C338 C 0.02578 0.40646 0.44587 0.0
C339 C 0.01697 0.42143 0.36463 0.0
C340 C 1.00881 0.45121 0.37309 0.0
C341 C 1.00985 0.46528 0.46059 0.0
C342 C 0.03461 0.37487 0.44269 0.0
C343 C 0.99867 0.46815 0.28977 0.0
H344 H 0.06664 0.37785 0.11961 0.0
H345 H 0.97885 0.35134 0.16464 0.0
H346 H 0.06233 0.44429 0.25486 0.0
H347 H 0.07911 0.41305 0.30647 0.0
H348 H 0.08531 0.4211 0.18637 0.0
H349 H 0.94682 0.37858 0.2597 0.0
H350 H 0.96727 0.37818 0.36548 0.0
H351 H 0.95847 0.41215 0.31143 0.0
H352 H 0.03258 0.40863 0.5926 0.0
H353 H 1.00323 0.48778 0.46626 0.0
H354 H 0.05292 0.37199 0.39392 0.0
H355 H 0.01627 0.36158 0.41724 0.0
H356 H 0.04132 0.36631 0.51126 0.0
H357 H 0.01718 0.47159 0.2421 0.0
H358 H 0.98956 0.48965 0.30858 0.0
H359 H 0.98193 0.45579 0.25163 0.0
C360 C 0.85667 0.03717 0.29044 0.0
C361 C 0.85602 1.01299 0.35021 0.0
C362 C 0.87849 0.0403 0.22183 0.0
C363 C 0.90005 0.01843 0.21043 0.0
C364 C 0.90086 0.99536 0.27585 0.0
C365 C 0.87917 0.99308 0.34461 0.0
C366 C 0.87682 0.06588 0.1567 0.0
C367 C 0.92307 0.97139 0.26793 0.0
C368 C 0.92682 0.99895 0.96684 0.0
C369 C 0.95516 1.01032 0.96347 0.0
C370 C 0.9087 1.00234 0.04483 0.0
C371 C 0.91892 0.0171 0.12408 0.0
C372 C 0.94748 0.02885 0.12123 0.0
C373 C 0.96506 0.02556 0.04119 0.0
C374 C 0.87843 0.98984 0.04243 0.0
C375 C 0.95942 0.04515 0.20263 0.0
H376 H 0.83865 0.05234 0.29174 0.0
H377 H 0.87865 0.97392 0.38846 0.0
H378 H 0.89882 0.07379 0.1384 0.0
H379 H 0.86588 0.05916 0.09218 0.0
H380 H 0.86421 0.08406 0.1869 0.0
H381 H 0.92285 0.9566 0.32874 0.0
H382 H 0.9185 0.95844 0.20539 0.0
H383 H 0.94517 0.9806 0.26021 0.0
H384 H 0.91851 0.9875 0.90748 0.0
H385 H 0.98668 0.03478 0.03974 0.0
H386 H 0.86221 1.00722 0.05488 0.0
H387 H 0.8759 0.97343 0.0982 0.0
H388 H 0.87337 0.97947 0.97549 0.0
H389 H 0.94677 0.06543 0.2124 0.0
H390 H 0.98265 0.0509 0.19343 0.0
H391 H 0.95713 0.03206 0.26669 0.0
C392 C 0.54826 0.86791 0.30655 0.0
C393 C 0.52448 0.86324 0.36607 0.0
C394 C 0.54708 0.88826 0.23319 0.0
C395 C 0.52354 0.90815 0.22631 0.0
C396 C 0.50179 0.90686 0.29608 0.0
C397 C 0.5019 0.88388 0.36244 0.0
C398 C 0.56993 0.88581 0.15889 0.0
C399 C 0.47774 0.92913 0.29933 0.0
C400 C 0.5365 0.96803 0.04094 0.0
C401 C 0.51735 0.95977 0.97071 0.0
C402 C 0.53792 0.95244 0.12593 0.0
C403 C 0.52008 0.92758 0.1413 0.0
C404 C 0.50028 0.91971 0.07062 0.0
C405 C 0.49912 0.93587 0.98762 0.0
C406 C 0.55962 0.96187 0.19732 0.0
C407 C 0.48127 0.89314 0.08006 0.0
H408 H 0.56565 0.85197 0.30678 0.0
H409 H 0.48318 0.88073 0.40646 0.0
H410 H 0.56346 0.89602 0.09258 0.0
H411 H 0.59026 0.89609 0.18319 0.0
H412 H 0.57497 0.86262 0.1454 0.0
H413 H 0.48521 0.94759 0.34167 0.0
H414 H 0.47207 0.9382 0.23077 0.0
H415 H 0.45778 0.91996 0.33059 0.0
H416 H 0.55144 0.98565 0.02773 0.0
H417 H 0.48435 0.92907 0.93374 0.0
H418 H 0.57943 0.94829 0.19154 0.0
H419 H 0.55077 0.95907 0.26798 0.0
H420 H 0.56608 0.98489 0.18706 0.0
H421 H 0.49494 0.87368 0.09343 0.0
H422 H 0.46796 0.88928 0.01748 0.0
H423 H 0.46629 0.8955 0.13926 0.0
C424 C 0.64686 0.52921 0.36712 0.0
C425 C 0.67107 0.51082 0.35734 0.0
C426 C 0.62296 0.52789 0.3047 0.0
C427 C 0.62433 0.50991 0.22516 0.0
C428 C 0.64771 0.48987 0.21963 0.0
C429 C 0.66937 0.48935 0.28853 0.0
C430 C 0.59697 0.54703 0.32112 0.0
C431 C 0.65274 0.47167 0.13494 0.0
C432 C 0.5644 0.49888 0.03972 0.0
C433 C 0.57139 0.52031 0.97371 0.0
C434 C 0.58047 0.49586 0.12336 0.0
C435 C 0.60419 0.51473 0.14255 0.0
C436 C 0.61051 0.53694 0.07706 0.0
C437 C 0.59429 0.53929 0.99442 0.0
C438 C 0.57304 0.47142 0.18893 0.0
C439 C 0.63546 0.55759 0.09191 0.0
H440 H 0.64731 0.54579 0.41964 0.0
H441 H 0.68784 0.47498 0.27949 0.0
H442 H 0.59897 0.56722 0.27961 0.0
H443 H 0.57668 0.53591 0.30004 0.0
H444 H 0.5952 0.5531 0.39486 0.0
H445 H 0.66488 0.45148 0.15225 0.0
H446 H 0.63235 0.46573 0.09949 0.0
H447 H 0.66617 0.48436 0.08556 0.0
H448 H 0.54749 0.48339 0.02371 0.0
H449 H 0.60028 0.5556 0.94367 0.0
H450 H 0.57284 0.47924 0.26111 0.0
H451 H 0.58983 0.45417 0.18448 0.0
H452 H 0.55167 0.46157 0.17276 0.0
H453 H 0.63064 0.57179 0.15135 0.0
H454 H 0.63953 0.57164 0.03075 0.0
H455 H 0.65563 0.54537 0.10825 0.0
C456 C 0.01495 0.64506 0.36725 0.0
C457 C 0.99316 0.66657 0.36567 0.0
C458 C 0.01523 0.62181 0.3026 0.0
C459 C 0.99472 0.62101 0.22887 0.0
C460 C 0.97179 0.64174 0.23082 0.0
C461 C 0.97016 0.66234 0.30266 0.0
C462 C 0.03805 0.5985 0.3129 0.0
C463 C 0.95024 0.64493 0.15286 0.0
C464 C 0.02409 0.59146 0.9983 0.0
C465 C 1.00553 0.56816 0.97789 0.0
C466 C 0.0213 0.60797 0.07969 0.0
C467 C 0.99922 0.60137 0.14506 0.0
C468 C 0.98082 0.57719 0.12612 0.0
C469 C 0.98412 0.56102 0.0432 0.0
C470 C 0.04178 0.63314 0.09388 0.0
C471 C 0.95676 0.56899 0.19152 0.0
H472 H 0.03292 0.64746 0.4147 0.0
H473 H 0.95327 0.67877 0.29899 0.0
H474 H 0.0426 0.58662 0.24846 0.0
H475 H 0.05869 0.60771 0.33887 0.0
H476 H 0.03001 0.58227 0.36342 0.0
H477 H 0.94799 0.6682 0.13319 0.0
H478 H 0.95622 0.63273 0.09015 0.0
H479 H 0.9286 0.63755 0.17684 0.0
H480 H 0.04063 0.5974 0.94851 0.0
H481 H 0.96904 0.54371 0.02765 0.0
H482 H 0.05772 0.62745 0.14841 0.0
H483 H 0.02976 0.65274 0.11655 0.0
H484 H 0.0541 0.63864 0.03033 0.0
H485 H 0.96386 0.57122 0.26424 0.0
H486 H 0.94921 0.54641 0.18014 0.0
H487 H 0.93802 0.58375 0.18018 0.0
C488 C 0.02659 0.26325 0.34326 0.0
C489 C 0.01869 0.27124 0.2541 0.0
C490 C 1.00826 0.24508 0.39438 0.0
C491 C 0.98272 0.23424 0.35229 0.0
C492 C 0.97265 0.24641 0.26872 0.0
C493 C 0.99077 0.26523 0.22097 0.0
C494 C 0.01834 0.23413 0.48692 0.0
C495 C 0.94562 0.23561 0.22115 0.0
C496 C 0.9803 0.15304 0.34982 0.0
C497 C 0.95895 0.14707 0.41554 0.0
C498 C 0.98822 0.18143 0.32957 0.0
C499 C 0.97364 0.20448 0.37432 0.0
C500 C 0.95061 0.19877 0.43609 0.0
C501 C 0.94368 0.16984 0.45703 0.0
C502 C 1.01271 0.18651 0.2617 0.0
C503 C 0.93409 0.223 0.48204 0.0
H504 H 0.04764 0.26943 0.37006 0.0
H505 H 0.98426 0.27303 0.15324 0.0
H506 H 0.99961 0.23015 0.53316 0.0
H507 H 0.03017 0.21334 0.47776 0.0
H508 H 0.03326 0.24982 0.52017 0.0
H509 H 0.93747 0.25158 0.16949 0.0
H510 H 0.9508 0.21519 0.18435 0.0
H511 H 0.92814 0.23083 0.27142 0.0
H512 H 0.99164 0.13528 0.31672 0.0
H513 H 0.92723 0.16507 0.50828 0.0
H514 H 0.03057 0.1986 0.29526 0.0
H515 H 1.00494 0.19971 0.20237 0.0
H516 H 0.02183 0.16593 0.23458 0.0
H517 H 0.94796 0.23308 0.53537 0.0
H518 H 0.91392 0.21505 0.51562 0.0
H519 H 0.92829 0.24026 0.43156 0.0
C520 C 0.25684 0.99416 0.27687 0.0
C521 C 0.26529 0.02285 0.258 0.0
C522 C 0.27643 0.97426 0.31403 0.0
C523 C 0.3046 0.98375 0.33607 0.0
C524 C 0.31263 1.01324 0.32345 0.0
C525 C 0.29274 0.03254 0.28388 0.0
C526 C 0.26757 0.94282 0.32389 0.0
C527 C 0.34276 0.024 0.34614 0.0
C528 C 0.35605 0.95001 0.50232 0.0
C529 C 0.37818 0.94199 0.44166 0.0
C530 C 0.3296 0.96025 0.46789 0.0
C531 C 0.32615 0.96306 0.37166 0.0
C532 C 0.34687 0.95115 0.31075 0.0
C533 C 0.37291 0.94057 0.34703 0.0
C534 C 0.30708 0.97177 0.53378 0.0
C535 C 0.34324 0.95302 0.2074 0.0
H536 H 0.23578 0.98651 0.25418 0.0
H537 H 0.29925 0.05455 0.26691 0.0
H538 H 0.28351 0.92856 0.28897 0.0
H539 H 0.26731 0.93644 0.39764 0.0
H540 H 0.24572 0.93863 0.29446 0.0
H541 H 0.34487 0.04784 0.33614 0.0
H542 H 0.3483 0.01853 0.41865 0.0
H543 H 0.35892 1.01313 0.30134 0.0
H544 H 0.36051 0.9512 0.57561 0.0
H545 H 0.39037 0.93441 0.30092 0.0
H546 H 0.28479 0.9671 0.50959 0.0
H547 H 0.30908 0.99573 0.53764 0.0
H548 H 0.30973 0.96223 0.60373 0.0
H549 H 0.32074 0.94743 0.18706 0.0
H550 H 0.35857 0.93837 0.1711 0.0
H551 H 0.34743 0.97559 0.18373 0.0
C552 C 0.51765 0.27123 0.32812 0.0
C553 C 0.53529 0.25269 0.27723 0.0
C554 C 0.52997 0.29396 0.37716 0.0
C555 C 0.56045 0.29776 0.37367 0.0
C556 C 0.57843 0.27656 0.33283 0.0
C557 C 0.56546 0.2539 0.28499 0.0
C558 C 0.51015 0.31603 0.42113 0.0
C559 C 0.61095 0.28012 0.32769 0.0
C560 C 0.57842 0.37666 0.34658 0.0
C561 C 0.58577 0.38376 0.43666 0.0
C562 C 0.5718 0.34811 0.32391 0.0
C563 C 0.57244 0.32649 0.39378 0.0
C564 C 0.58194 0.33315 0.48346 0.0
C565 C 0.58844 0.36208 0.50431 0.0
C566 C 0.56229 0.34157 0.2267 0.0
C567 C 0.58346 0.31001 0.55764 0.0
H568 H 0.49424 0.26993 0.32082 0.0
H569 H 0.5788 0.23938 0.2443 0.0
H570 H 0.5187 0.32268 0.48922 0.0
H571 H 0.50897 0.33569 0.37658 0.0
H572 H 0.48777 0.30751 0.43022 0.0
H573 H 0.62192 0.25973 0.30645 0.0
H574 H 0.61625 0.29732 0.2765 0.0
H575 H 0.61991 0.287 0.39493 0.0
H576 H 0.57622 0.39378 0.29525 0.0
H577 H 0.5943 0.36803 0.57381 0.0
H578 H 0.53873 0.33661 0.22583 0.0
H579 H 0.57394 0.3223 0.2 0.0
H580 H 0.56631 0.36019 0.17938 0.0
H581 H 0.56114 0.30335 0.57717 0.0
H582 H 0.59514 0.31762 0.61982 0.0
H583 H 0.59446 0.29025 0.53196 0.0
C584 C 0.25845 0.52492 0.32149 0.0
C585 C 0.27677 0.54333 0.27174 0.0
C586 C 0.23643 0.53646 0.37563 0.0
C587 C 0.23354 0.56701 0.38059 0.0
C588 C 0.25506 0.58536 0.34246 0.0
C589 C 0.27654 0.57316 0.2868 0.0
C590 C 0.21374 0.51608 0.41424 0.0
C591 C 0.253 0.61792 0.34911 0.0
C592 C 0.15472 0.58514 0.35682 0.0
C593 C 0.14687 0.58813 0.44902 0.0
C594 C 0.18366 0.5807 0.33271 0.0
C595 C 0.20489 0.57901 0.40338 0.0
C596 C 0.19729 0.58422 0.49604 0.0
C597 C 0.16806 0.58876 0.51804 0.0
C598 C 0.19097 0.57508 0.23274 0.0
C599 C 0.2196 0.58251 0.57214 0.0
H600 H 0.25911 0.50173 0.30885 0.0
H601 H 0.29108 0.58707 0.24779 0.0
H602 H 0.20667 0.52294 0.48373 0.0
H603 H 0.1944 0.51641 0.36855 0.0
H604 H 0.22184 0.49337 0.41855 0.0
H605 H 0.27428 0.62838 0.33509 0.0
H606 H 0.23714 0.62609 0.29747 0.0
H607 H 0.24528 0.62454 0.41822 0.0
H608 H 0.13795 0.58449 0.30435 0.0
H609 H 0.16152 0.59086 0.58944 0.0
H610 H 0.1966 0.55183 0.22382 0.0
H611 H 0.21006 0.58806 0.21105 0.0
H612 H 0.17257 0.58038 0.18598 0.0
H613 H 0.22569 0.5595 0.58451 0.0
H614 H 0.21128 0.59168 0.6376 0.0
H615 H 0.23967 0.5942 0.55211 0.0
C616 C 0.03725 0.75337 0.17284 0.0
C617 C 1.01244 0.76029 0.22402 0.0
C618 C 0.04971 0.77416 0.11483 0.0
C619 C 0.03779 0.80239 0.11367 0.0
C620 C 1.01101 0.80832 0.15786 0.0
C621 C 0.99787 0.78644 0.2088 0.0
C622 C 0.07679 0.76663 0.06156 0.0
C623 C 0.99734 0.83825 0.15863 0.0
C624 C 0.08331 0.86918 0.11454 0.0
C625 C 0.07122 0.88359 0.03905 0.0
C626 C 0.07443 0.84099 0.13631 0.0
C627 C 0.05446 0.82684 0.07725 0.0
C628 C 0.04484 0.84029 0.99528 0.0
C629 C 0.05249 0.86911 0.97907 0.0
C630 C 0.08316 0.82824 0.22855 0.0
C631 C 0.02463 0.825 0.92928 0.0
H632 H 0.04826 0.7328 0.1838 0.0
H633 H 0.97803 0.79097 0.24636 0.0
H634 H 0.077 0.77791 0.99369 0.0
H635 H 0.09624 0.77361 0.10045 0.0
H636 H 0.07856 0.74285 0.0505 0.0
H637 H 0.98007 0.84014 0.2117 0.0
H638 H 1.01379 0.85525 0.17215 0.0
H639 H 0.98738 0.84294 0.09057 0.0
H640 H 0.09737 0.88091 0.16115 0.0
H641 H 0.04276 0.88085 0.92201 0.0
H642 H 0.09153 0.80586 0.22062 0.0
H643 H 0.06382 0.82709 0.27406 0.0
H644 H 0.10002 0.84141 0.26346 0.0
H645 H 0.03633 0.80653 0.8975 0.0
H646 H 0.01649 0.83969 0.87414 0.0
H647 H 1.00555 0.81574 0.96533 0.0
C648 C 0.77594 0.99564 0.18747 0.0
C649 C 0.7657 0.97913 0.26323 0.0
C650 C 0.75683 1.01115 0.13054 0.0
C651 C 0.72695 1.01079 0.15113 0.0
C652 C 0.7162 0.9922 0.2212 0.0
C653 C 0.73561 0.97513 0.27201 0.0
C654 C 0.76895 0.02966 0.0534 0.0
C655 C 0.68436 0.99171 0.24675 0.0
C656 C 0.67289 0.07001 0.10216 0.0
C657 C 0.65494 0.05561 0.03989 0.0
C658 C 0.69869 0.05697 0.13274 0.0
C659 C 0.70628 0.02914 0.09921 0.0
C660 C 0.68988 0.01631 0.02818 0.0
C661 C 0.66425 0.02976 0.99923 0.0
C662 C 0.71568 0.07131 0.20875 0.0
C663 C 0.69785 0.98694 0.99 0.0
H664 H 0.79894 0.99873 0.17628 0.0
H665 H 0.72709 0.96092 0.32513 0.0
H666 H 0.7552 0.02819 0.99082 0.0
H667 H 0.76926 0.05271 0.07494 0.0
H668 H 0.7915 0.02324 0.03541 0.0
H669 H 0.67989 0.9774 0.30701 0.0
H670 H 0.67688 1.01398 0.26362 0.0
H671 H 0.67123 0.98409 0.18766 0.0
H672 H 0.66549 0.09009 0.13295 0.0
H673 H 0.65035 0.01904 0.94973 0.0
H674 H 0.73936 0.06907 0.19725 0.0
H675 H 0.71051 0.0605 0.27535 0.0
H676 H 0.71025 0.09474 0.2146 0.0
H677 H 0.72013 0.98771 0.96101 0.0
H678 H 0.68245 0.97973 0.93605 0.0
H679 H 0.69791 0.97033 0.04573 0.0
C680 C 0.48061 0.77535 0.17818 0.0
C681 C 0.50647 0.76969 0.22589 0.0
C682 C 0.46862 0.75413 0.12166 0.0
C683 C 0.48223 0.72668 0.11831 0.0
C684 C 0.5097 0.72202 0.15992 0.0
C685 C 0.52219 0.74438 0.20934 0.0
C686 C 0.44042 0.76027 0.07219 0.0
C687 C 0.52497 0.69287 0.15907 0.0
C688 C 0.44124 0.65708 0.11468 0.0
C689 C 0.45397 0.6445 0.03766 0.0
C690 C 0.44835 0.68544 0.13882 0.0
C691 C 0.46705 0.70167 0.08038 0.0
C692 C 0.47725 0.68994 0.99698 0.0
C693 C 0.47163 0.66086 0.97876 0.0
C694 C 0.43946 0.69607 0.23298 0.0
C695 C 0.49597 0.70742 0.93131 0.0
H696 H 0.46862 0.79522 0.19071 0.0
H697 H 0.54267 0.74078 0.24466 0.0
H698 H 0.44025 0.7499 1.00338 0.0
H699 H 0.42203 0.75124 0.1124 0.0
H700 H 0.43667 0.78397 0.06358 0.0
H701 H 0.54304 0.69175 0.20972 0.0
H702 H 0.50963 0.67499 0.17505 0.0
H703 H 0.53417 0.68891 0.08971 0.0
H704 H 0.42811 0.64385 0.16057 0.0
H705 H 0.48205 0.65045 0.92086 0.0
H706 H 0.43179 0.71883 0.23014 0.0
H707 H 0.45864 0.69531 0.27927 0.0
H708 H 0.42211 0.68244 0.26406 0.0
H709 H 0.48271 0.72521 0.90089 0.0
H710 H 0.50498 0.69396 0.87502 0.0
H711 H 0.51441 0.71777 0.96733 0.0
C712 C 0.79596 0.51937 0.23308 0.0
C713 C 0.76606 0.51422 0.23413 0.0
C714 C 0.81431 0.50172 0.18196 0.0
C715 C 0.80208 0.48089 0.122 0.0
C716 C 0.77174 0.47889 0.11147 0.0
C717 C 0.75395 0.49508 0.1697 0.0
C718 C 0.84672 0.50411 0.19739 0.0
C719 C 0.7581 0.45849 0.04312 0.0
C720 C 0.86409 0.46518 0.97268 0.0
C721 C 0.87756 0.44378 0.02695 0.0
C722 C 0.83597 0.47431 0.9931 0.0
C723 C 0.82179 0.46204 0.06993 0.0
C724 C 0.83321 0.4369 0.11342 0.0
C725 C 0.86139 0.42799 0.09133 0.0
C726 C 0.82391 0.50053 0.94371 0.0
C727 C 0.81801 0.42242 0.19337 0.0
H728 H 0.80524 0.53515 0.27961 0.0
H729 H 0.73081 0.49098 0.16897 0.0
H730 H 0.85777 0.51017 0.13221 0.0
H731 H 0.85232 0.52048 0.25034 0.0
H732 H 0.8556 0.48285 0.22047 0.0
H733 H 0.73446 0.46262 0.03482 0.0
H734 H 0.76872 0.46065 0.97482 0.0
H735 H 0.76114 0.43575 0.06674 0.0
H736 H 0.87655 0.47684 0.92089 0.0
H737 H 0.87179 0.41098 0.13159 0.0
H738 H 0.79993 0.50195 0.94849 0.0
H739 H 0.83008 0.49995 0.87017 0.0
H740 H 0.8332 0.52036 0.97495 0.0
H741 H 0.82445 0.43334 0.25816 0.0
H742 H 0.82431 0.39918 0.19908 0.0
H743 H 0.79409 0.42397 0.18673 0.0
C744 C 1.00301 0.2503 0.9343 0.0
C745 C 0.03058 0.26301 0.94589 0.0
C746 C 0.99941 0.2223 0.8946 0.0
C747 C 0.02394 0.20575 0.86607 0.0
C748 C 0.05157 0.21938 0.87144 0.0
C749 C 0.05451 0.24739 0.91105 0.0
C750 C 0.96937 0.20954 0.89018 0.0
C751 C 0.07852 0.20344 0.84137 0.0
C752 C 0.02356 0.12176 0.88868 0.0
C753 C 0.01892 0.11199 0.79798 0.0
C754 C 0.02434 0.15171 0.91122 0.0
C755 C 0.02135 0.17338 0.84147 0.0
C756 C 0.01672 0.16368 0.74942 0.0
C757 C 0.01506 0.13342 0.72923 0.0
C758 C 0.02832 0.16018 0.01073 0.0
C759 C 1.01335 0.18523 0.67161 0.0
H760 H 0.98433 0.26119 0.96369 0.0
H761 H 0.07607 0.25611 0.922 0.0
H762 H 0.96597 0.19813 0.82401 0.0
H763 H 0.96677 0.19337 0.94662 0.0
H764 H 0.9523 0.22643 0.89781 0.0
H765 H 0.09795 0.21767 0.8408 0.0
H766 H 0.08268 0.18493 0.889 0.0
H767 H 0.07542 0.19439 0.77138 0.0
H768 H 0.02622 0.10578 0.94325 0.0
H769 H 1.01139 0.12655 0.65891 0.0
H770 H 1.00983 0.17392 0.03311 0.0
H771 H 0.04835 0.17327 0.01842 0.0
H772 H 0.02977 0.14103 0.05748 0.0
H773 H 0.99142 0.19516 0.67498 0.0
H774 H 0.0158 0.1748 0.60324 0.0
H775 H 0.02949 0.20297 0.67743 0.0
C776 C 0.28094 1.00434 0.93199 0.0
C777 C 0.2665 0.0313 0.93784 0.0
C778 C 0.30963 1.00185 0.89676 0.0
C779 C 0.3248 0.02688 0.86514 0.0
C780 C 0.3092 0.05355 0.86173 0.0
C781 C 0.2806 0.05544 0.89809 0.0
C782 C 0.32458 0.97272 0.90198 0.0
C783 C 0.32363 0.08081 0.82668 0.0
C784 C 0.40826 0.03086 0.89715 0.0
C785 C 0.41919 0.02433 0.80902 0.0
C786 C 0.378 0.03123 0.91618 0.0
C787 C 0.35746 0.02586 0.84509 0.0
C788 C 0.36843 0.01966 0.75572 0.0
C789 C 0.39884 0.01849 0.73919 0.0
C790 C 0.36796 0.03714 0.01325 0.0
C791 C 0.34795 1.0141 0.67727 0.0
H792 H 0.27107 0.9856 0.96492 0.0
H793 H 0.2704 0.07656 0.90411 0.0
H794 H 0.33787 0.96881 0.83957 0.0
H795 H 0.33938 0.97233 0.96234 0.0
H796 H 0.30877 0.9547 0.90996 0.0
H797 H 0.30814 0.09925 0.82079 0.0
H798 H 0.34137 0.08702 0.87434 0.0
H799 H 0.33354 0.07696 0.75819 0.0
H800 H 0.42349 0.03512 0.95233 0.0
H801 H 0.40669 1.01347 0.6707 0.0
H802 H 0.35516 0.01843 0.03945 0.0
H803 H 0.35348 0.05641 0.01391 0.0
H804 H 0.38635 0.04096 0.06113 0.0
H805 H 0.33357 0.99577 0.69599 0.0
H806 H 0.35951 1.00897 0.61218 0.0
H807 H 0.33389 0.03335 0.66543 0.0
C808 C 0.53582 0.29028 0.97637 0.0
C809 C 0.51417 0.26919 0.95989 0.0
C810 C 0.53434 0.31854 0.93953 0.0
C811 C 0.5141 0.32525 0.86911 0.0
C812 C 0.49588 0.30222 0.83766 0.0
C813 C 0.49487 0.27505 0.88662 0.0
C814 C 0.55245 0.34171 0.98501 0.0
C815 C 0.47747 0.30628 0.75271 0.0
C816 C 0.48935 0.40523 0.84482 0.0
C817 C 0.51155 0.41804 0.79153 0.0
C818 C 0.48922 0.37518 0.86706 0.0
C819 C 0.51155 0.35659 0.83404 0.0
C820 C 0.53362 0.3694 0.77824 0.0
C821 C 0.53326 0.39957 0.75739 0.0
C822 C 0.46567 0.36373 0.92971 0.0
C823 C 0.55795 0.35143 0.73975 0.0
H824 H 0.55208 0.28591 0.02883 0.0
H825 H 0.47866 0.25902 0.86902 0.0
H826 H 0.56058 0.35825 0.93597 0.0
H827 H 0.53858 0.35309 0.03586 0.0
H828 H 0.5714 0.33229 0.022 0.0
H829 H 0.47032 0.28513 0.72438 0.0
H830 H 0.4579 0.31921 0.7693 0.0
H831 H 0.48978 0.31825 0.6987 0.0
H832 H 0.47217 0.4189 0.87143 0.0
H833 H 0.55047 0.40876 0.71553 0.0
H834 H 0.47502 0.34975 0.98489 0.0
H835 H 0.45034 0.35036 0.88943 0.0
H836 H 0.45307 0.38149 0.96232 0.0
H837 H 0.56509 0.33385 0.78704 0.0
H838 H 0.57714 0.36498 0.72294 0.0
H839 H 0.54979 0.3413 0.67606 0.0
C840 C 0.24935 0.48276 0.91903 0.0
C841 C 0.25833 0.50877 0.96059 0.0
C842 C 0.22199 0.48085 0.87259 0.0
C843 C 0.20177 0.50447 0.8751 0.0
C844 C 0.21165 0.53099 0.91263 0.0
C845 C 0.24016 0.53324 0.94717 0.0
C846 C 0.21467 0.45326 0.82277 0.0
C847 C 0.19165 0.55679 0.92346 0.0
C848 C 0.12846 0.51654 0.74778 0.0
C849 C 0.10827 0.50295 0.80666 0.0
C850 C 0.15883 0.51552 0.76527 0.0
C851 C 0.16992 0.50145 0.8459 0.0
C852 C 0.14952 0.48749 0.90507 0.0
C853 C 0.11943 0.48794 0.88392 0.0
C854 C 0.17863 0.53027 0.69699 0.0
C855 C 0.15914 0.47269 0.99315 0.0
H856 H 0.26298 0.46366 0.92558 0.0
H857 H 0.24701 0.55393 0.97492 0.0
H858 H 0.20434 0.43773 0.87125 0.0
H859 H 0.19953 0.4574 0.76452 0.0
H860 H 0.23464 0.44278 0.79565 0.0
H861 H 0.19971 0.57207 0.97652 0.0
H862 H 0.19025 0.56884 0.85728 0.0
H863 H 0.16944 0.54992 0.94351 0.0
H864 H 0.12059 0.52807 0.68729 0.0
H865 H 0.10443 0.47715 0.93031 0.0
H866 H 0.1709 0.52661 0.62548 0.0
H867 H 0.20144 0.52272 0.70258 0.0
H868 H 0.17789 0.554 0.70868 0.0
H869 H 0.16862 0.45123 0.97665 0.0
H870 H 0.14071 0.46903 0.04119 0.0
H871 H 0.17593 0.48559 0.02921 0.0
C872 C 0.98835 0.77616 0.61406 0.0
C873 C 1.01009 0.76564 0.5546 0.0
C874 C 0.9902 0.8043 0.65536 0.0
C875 C 1.01257 0.82441 0.62898 0.0
C876 C 0.03471 0.81327 0.57035 0.0
C877 C 0.03451 0.78382 0.5426 0.0
C878 C 0.96715 0.81229 0.72443 0.0
C879 C 0.05743 0.83243 0.52625 0.0
C880 C 0.98899 0.90585 0.64673 0.0
C881 C 1.0106 0.91869 0.70177 0.0
C882 C 0.98942 0.87589 0.62296 0.0
C883 C 1.01179 0.85695 0.65615 0.0
C884 C 0.03417 0.87009 0.71036 0.0
C885 C 0.03308 0.90024 0.73286 0.0
C886 C 0.96611 0.86522 0.55844 0.0
C887 C 0.0606 0.85304 0.74068 0.0
H888 H 0.96914 0.76306 0.62524 0.0
H889 H 0.05152 0.77655 0.49643 0.0
H890 H 0.97164 0.83297 0.76028 0.0
H891 H 0.9458 0.81378 0.68927 0.0
H892 H 0.96529 0.79476 0.77708 0.0
H893 H 0.05846 0.82811 0.45111 0.0
H894 H 0.05333 0.85595 0.53492 0.0
H895 H 0.07908 0.82671 0.5547 0.0
H896 H 0.97162 0.91947 0.6203 0.0
H897 H 0.05055 0.90957 0.77288 0.0
H898 H 0.94704 0.85817 0.59939 0.0
H899 H 0.9736 0.84677 0.5158 0.0
H900 H 0.95865 0.88286 0.5114 0.0
H901 H 0.05589 0.82963 0.75054 0.0
H902 H 0.07017 0.86179 0.80454 0.0
H903 H 0.07779 0.85542 0.68794 0.0
C904 C 0.75208 0.99962 0.62736 0.0
C905 C 0.76048 0.01591 0.54932 0.0
C906 C 0.72362 1.00127 0.66445 0.0
C907 C 0.70231 0.01949 0.62267 0.0
C908 C 0.71126 0.0375 0.54793 0.0
C909 C 0.73994 0.03554 0.51264 0.0
C910 C 0.71585 0.98143 0.74352 0.0
C911 C 0.68977 0.05707 0.49948 0.0
C912 C 0.62135 0.99713 0.63092 0.0
C913 C 0.60942 0.01562 0.69799 0.0
C914 C 0.65124 0.99794 0.60716 0.0
C915 C 0.67035 0.01779 0.6508 0.0
C916 C 0.65859 0.03607 0.72008 0.0
C917 C 0.62859 0.03477 0.74268 0.0
C918 C 0.66244 0.97718 0.53543 0.0
C919 C 0.67779 0.05713 0.7705 0.0
H920 H 0.76703 0.98346 0.65442 0.0
H921 H 0.74541 0.04729 0.45001 0.0
H922 H 0.6995 0.99161 0.78888 0.0
H923 H 0.70637 0.96115 0.71592 0.0
H924 H 0.73527 0.97556 0.78514 0.0
H925 H 0.70059 0.07247 0.45135 0.0
H926 H 0.67434 0.04364 0.45948 0.0
H927 H 0.67696 0.06963 0.55028 0.0
H928 H 0.60724 0.98195 0.59609 0.0
H929 H 0.62012 0.0491 0.79517 0.0
H930 H 0.67704 0.96106 0.56887 0.0
H931 H 0.67535 0.98892 0.48256 0.0
H932 H 0.64463 0.96533 0.50047 0.0
H933 H 0.69515 0.04507 0.80766 0.0
H934 H 0.66552 0.07036 0.82103 0.0
H935 H 0.68856 0.07192 0.72048 0.0
C936 C 0.48697 0.74518 0.54342 0.0
C937 C 0.51089 0.76392 0.5554 0.0
C938 C 0.48796 0.71556 0.56951 0.0
C939 C 0.51048 0.70489 0.62793 0.0
C940 C 0.53206 0.72551 0.65555 0.0
C941 C 0.53299 0.75389 0.61476 0.0
C942 C 0.46629 0.69585 0.52338 0.0
C943 C 0.5551 0.71795 0.72558 0.0
C944 C 0.49226 0.62814 0.72902 0.0
C945 C 0.51514 0.61058 0.69667 0.0
C946 C 0.49039 0.65837 0.70808 0.0
C947 C 0.51231 0.67239 0.65405 0.0
C948 C 0.53507 0.65443 0.61934 0.0
C949 C 0.53639 0.62434 0.64199 0.0
C950 C 0.46356 0.67449 0.73909 0.0
C951 C 0.55764 0.66641 0.55399 0.0
H952 H 0.4697 0.75221 0.49744 0.0
H953 H 0.55172 0.76759 0.6262 0.0
H954 H 0.47105 0.67243 0.53238 0.0
H955 H 0.4442 0.70074 0.54954 0.0
H956 H 0.46587 0.70053 0.44821 0.0
H957 H 0.55533 0.7347 0.78022 0.0
H958 H 0.55179 0.69646 0.75882 0.0
H959 H 0.57678 0.7185 0.69227 0.0
H960 H 0.47515 0.61811 0.76935 0.0
H961 H 0.55402 0.61139 0.61471 0.0
H962 H 0.44664 0.67276 0.68529 0.0
H963 H 0.46786 0.6978 0.75162 0.0
H964 H 0.45377 0.66457 0.80128 0.0
H965 H 0.54827 0.6831 0.50701 0.0
H966 H 0.56747 0.64902 0.51144 0.0
H967 H 0.57535 0.67651 0.59414 0.0
C968 C 0.77635 0.49687 0.61064 0.0
C969 C 0.76514 0.5221 0.56811 0.0
C970 C 0.80479 0.49605 0.64952 0.0
C971 C 0.8238 0.5204 0.64031 0.0
C972 C 0.81186 0.54631 0.60191 0.0
C973 C 0.78258 0.54719 0.57225 0.0
C974 C 0.81469 0.46807 0.69432 0.0
C975 C 0.83018 0.57267 0.58076 0.0
C976 C 0.89821 0.52928 0.76423 0.0
C977 C 0.91727 0.51375 0.70732 0.0
C978 C 0.8682 0.53218 0.743 0.0
C979 C 0.85619 0.5182 0.66425 0.0
C980 C 0.87579 0.50333 0.60491 0.0
C981 C 0.90577 0.50125 0.62721 0.0
C982 C 0.8503 0.55242 0.80138 0.0
C983 C 0.8655 0.49125 0.5142 0.0
H984 H 0.76383 0.47701 0.60716 0.0
H985 H 0.77485 0.56669 0.53762 0.0
H986 H 0.81959 0.45191 0.6402 0.0
H987 H 0.83429 0.47078 0.73776 0.0
H988 H 0.79701 0.45887 0.73752 0.0
H989 H 0.82038 0.59204 0.61361 0.0
H990 H 0.85311 0.57072 0.60271 0.0
H991 H 0.82996 0.57671 0.50518 0.0
H992 H 0.90698 0.54014 0.82409 0.0
H993 H 0.92043 0.49011 0.58086 0.0
H994 H 0.82691 0.54681 0.80123 0.0
H995 H 0.85248 0.5748 0.77358 0.0
H996 H 0.85842 0.55278 0.8734 0.0
H997 H 0.84989 0.47339 0.52639 0.0
H998 H 0.88366 0.48275 0.4718 0.0
H999 H 0.85401 0.50842 0.47415 0.0
loop_
_geom_bond_atom_site_label_1
_geom_bond_atom_site_label_2
_geom_bond_distance
_geom_bond_site_symmetry_2
_ccdc_geom_bond_type
H0 C3 0.931 . S
H1 C6 0.928 . S
H2 C8 0.930 . S
C3 H0 0.931 . S
C3 C4 1.413 . S
C3 C5 1.360 . S
C4 C3 1.413 . S
C4 C8 1.429 . S
C5 C3 1.360 . S
C5 C6 1.372 . S
C6 H1 0.928 . S
C6 C5 1.372 . S
C6 C7 1.404 . S
C7 C6 1.404 . S
C7 C8 1.391 . S
C8 H2 0.930 . S
C8 C4 1.429 . S
C8 C7 1.391 . S
H9 C12 0.931 . S
H10 C15 0.928 . S
H11 C17 0.930 . S
C12 H9 0.931 . S
C12 C13 1.413 . S
C12 C14 1.360 . S
C13 C12 1.413 . S
C13 C17 1.429 1_655 S
C14 C12 1.360 . S
C14 C15 1.372 . S
C15 H10 0.928 . S
C15 C14 1.372 . S
C15 C16 1.404 . S
C16 C15 1.404 . S
C16 C17 1.390 1_655 S
C17 H11 0.930 . S
C17 C13 1.429 1_455 S
C17 C16 1.390 1_455 S
H18 C21 0.931 . S
H19 C24 0.928 . S
H20 C26 0.930 . S
C21 H18 0.931 . S
C21 C22 1.413 . S
C21 C23 1.360 . S
C22 C21 1.413 . S
C22 C26 1.429 1_565 S
C23 C21 1.360 . S
C23 C24 1.372 . S
C24 H19 0.928 . S
C24 C23 1.372 . S
C24 C25 1.404 . S
C25 C24 1.404 . S
C25 C26 1.390 1_565 S
C26 H20 0.930 . S
C26 C22 1.429 1_545 S
C26 C25 1.390 1_545 S
H27 C30 0.931 . S
H28 C33 0.928 . S
H29 C35 0.930 . S
C30 H27 0.931 . S
C30 C31 1.413 . S
C30 C32 1.360 . S
C31 C30 1.413 . S
C31 C35 1.429 . S
C32 C30 1.360 . S
C32 C33 1.372 . S
C33 H28 0.928 . S
C33 C32 1.372 . S
C33 C34 1.404 . S
C34 C33 1.404 . S
C34 C35 1.391 . S
C35 H29 0.930 . S
C35 C31 1.429 . S
C35 C34 1.391 . S
H36 C39 0.931 . S
H37 C42 0.928 . S
H38 C44 0.930 . S
C39 H36 0.931 . S
C39 C40 1.413 1_554 S
C39 C41 1.360 . S
C40 C39 1.413 1_556 S
C40 C44 1.429 . S
C41 C39 1.360 . S
C41 C42 1.372 . S
C42 H37 0.928 . S
C42 C41 1.372 . S
C42 C43 1.404 . S
C43 C42 1.404 . S
C43 C44 1.391 1_554 S
C44 H38 0.930 . S
C44 C40 1.429 . S
C44 C43 1.391 1_556 S
H45 C48 0.931 . S
H46 C51 0.928 . S
H47 C53 0.930 . S
C48 H45 0.931 . S
C48 C49 1.413 1_554 S
C48 C50 1.360 . S
C49 C48 1.413 1_556 S
C49 C53 1.429 1_655 S
C50 C48 1.360 . S
C50 C51 1.372 . S
C51 H46 0.928 . S
C51 C50 1.372 . S
C51 C52 1.404 . S
C52 C51 1.404 . S
C52 C53 1.391 1_654 S
C53 H47 0.930 . S
C53 C49 1.429 1_455 S
C53 C52 1.391 1_456 S
H54 C57 0.931 . S
H55 C60 0.928 . S
H56 C62 0.930 . S
C57 H54 0.931 . S
C57 C58 1.413 1_554 S
C57 C59 1.360 . S
C58 C57 1.413 1_556 S
C58 C62 1.429 1_565 S
C59 C57 1.360 . S
C59 C60 1.372 . S
C60 H55 0.928 . S
C60 C59 1.372 . S
C60 C61 1.404 . S
C61 C60 1.404 . S
C61 C62 1.391 1_564 S
C62 H56 0.930 . S
C62 C58 1.429 1_545 S
C62 C61 1.391 1_546 S
H63 C66 0.931 . S
H64 C69 0.928 . S
H65 C71 0.930 . S
C66 H63 0.931 . S
C66 C67 1.413 . S
C66 C68 1.360 1_554 S
C67 C66 1.413 . S
C67 C71 1.429 . S
C68 C66 1.360 1_556 S
C68 C69 1.372 . S
C69 H64 0.928 . S
C69 C68 1.372 . S
C69 C70 1.404 1_556 S
C70 C69 1.404 1_554 S
C70 C71 1.391 . S
C71 H65 0.930 . S
C71 C67 1.429 . S
C71 C70 1.391 . S
Sm72 C74 2.846 . S
Sm72 O92 2.543 . S
Sm72 O93 2.450 . S
Sm72 O94 2.681 1_565 S
Sm72 O95 2.464 . S
Sm72 O96 2.396 . S
Sm72 O100 2.386 1_455 S
Sm72 O103 2.408 1_565 S
Sm73 C83 2.846 . S
Sm73 O94 2.386 1_655 S
Sm73 O97 2.408 1_545 S
Sm73 O98 2.543 . S
Sm73 O99 2.450 . S
Sm73 O100 2.681 1_545 S
Sm73 O101 2.464 . S
Sm73 O102 2.396 . S
C74 Sm72 2.846 . S
C74 C75 1.506 . S
C74 O92 1.261 . S
C74 O93 1.242 . S
C75 C74 1.506 . S
C75 C76 1.358 1_556 S
C75 C80 1.382 . S
C76 C75 1.358 1_554 S
C76 C77 1.385 . S
C76 H104 0.930 1_455 S
C77 C76 1.385 . S
C77 C78 1.395 . S
C77 H105 0.929 . S
C78 C77 1.395 . S
C78 C79 1.335 . S
C79 C78 1.335 . S
C79 C80 1.398 1_554 S
C79 H106 0.930 . S
C80 C75 1.382 . S
C80 C79 1.398 1_556 S
C80 H107 0.929 . S
C81 O94 1.271 1_565 S
C81 O95 1.251 . S
C82 O96 1.252 1_655 S
C82 O97 1.272 . S
C83 Sm73 2.846 . S
C83 C84 1.506 . S
C83 O98 1.261 . S
C83 O99 1.242 . S
C84 C83 1.506 . S
C84 C85 1.358 . S
C84 C89 1.382 . S
C85 C84 1.358 . S
C85 C86 1.385 . S
C85 H108 0.930 1_655 S
C86 C85 1.385 . S
C86 C87 1.395 . S
C86 H109 0.929 . S
C87 C86 1.395 . S
C87 C88 1.335 . S
C88 C87 1.335 . S
C88 C89 1.398 . S
C88 H110 0.930 . S
C89 C84 1.382 . S
C89 C88 1.398 . S
C89 H111 0.929 . S
C90 O100 1.271 1_545 S
C90 O101 1.251 . S
C91 O102 1.252 1_455 S
C91 O103 1.272 . S
O92 Sm72 2.543 . S
O92 C74 1.261 . S
O93 Sm72 2.450 . S
O93 C74 1.242 . S
O94 Sm72 2.681 1_545 S
O94 Sm73 2.386 1_455 S
O94 C81 1.271 1_545 S
O95 Sm72 2.464 . S
O95 C81 1.251 . S
O96 Sm72 2.396 . S
O96 C82 1.252 1_455 S
O97 Sm73 2.408 1_565 S
O97 C82 1.272 . S
O98 Sm73 2.543 . S
O98 C83 1.261 . S
O99 Sm73 2.450 . S
O99 C83 1.242 . S
O100 Sm72 2.386 1_655 S
O100 Sm73 2.681 1_565 S
O100 C90 1.271 1_565 S
O101 Sm73 2.464 . S
O101 C90 1.251 . S
O102 Sm73 2.396 . S
O102 C91 1.252 1_655 S
O103 Sm72 2.408 1_545 S
O103 C91 1.272 . S
H104 C76 0.930 1_655 S
H105 C77 0.929 . S
H106 C79 0.930 . S
H107 C80 0.929 . S
H108 C85 0.930 1_455 S
H109 C86 0.929 . S
H110 C88 0.930 . S
H111 C89 0.929 . S
Sm112 C114 2.846 . S
Sm112 O132 2.543 . S
Sm112 O133 2.450 . S
Sm112 O134 2.681 . S
Sm112 O135 2.464 . S
Sm112 O136 2.396 . S
Sm112 O140 2.386 1_545 S
Sm112 O143 2.408 . S
Sm113 C123 2.846 . S
Sm113 O134 2.386 1_565 S
Sm113 O137 2.408 . S
Sm113 O138 2.543 . S
Sm113 O139 2.450 . S
Sm113 O140 2.681 . S
Sm113 O141 2.464 . S
Sm113 O142 2.396 . S
C114 Sm112 2.846 . S
C114 C115 1.506 . S
C114 O132 1.261 . S
C114 O133 1.242 . S
C115 C114 1.506 . S
C115 C116 1.358 1_556 S
C115 C120 1.382 . S
C116 C115 1.358 1_554 S
C116 C117 1.385 . S
C116 H144 0.930 1_545 S
C117 C116 1.385 . S
C117 C118 1.395 . S
C117 H145 0.929 . S
C118 C117 1.395 . S
C118 C119 1.335 . S
C119 C118 1.335 . S
C119 C120 1.398 1_554 S
C119 H146 0.930 . S
C120 C115 1.382 . S
C120 C119 1.398 1_556 S
C120 H147 0.929 . S
C121 O134 1.271 . S
C121 O135 1.251 . S
C122 O136 1.252 1_565 S
C122 O137 1.272 . S
C123 Sm113 2.846 . S
C123 C124 1.506 . S
C123 O138 1.261 . S
C123 O139 1.242 . S
C124 C123 1.506 . S
C124 C125 1.358 . S
C124 C129 1.382 . S
C125 C124 1.358 . S
C125 C126 1.385 . S
C125 H148 0.930 1_565 S
C126 C125 1.385 . S
C126 C127 1.395 . S
C126 H149 0.929 . S
C127 C126 1.395 . S
C127 C128 1.335 . S
C128 C127 1.335 . S
C128 C129 1.398 . S
C128 H150 0.930 . S
C129 C124 1.382 . S
C129 C128 1.398 . S
C129 H151 0.929 . S
C130 O140 1.271 . S
C130 O141 1.251 . S
C131 O142 1.252 1_545 S
C131 O143 1.272 . S
O132 Sm112 2.543 . S
O132 C114 1.261 . S
O133 Sm112 2.450 . S
O133 C114 1.242 . S
O134 Sm112 2.681 . S
O134 Sm113 2.386 1_545 S
O134 C121 1.271 . S
O135 Sm112 2.464 . S
O135 C121 1.251 . S
O136 Sm112 2.396 . S
O136 C122 1.252 1_545 S
O137 Sm113 2.408 . S
O137 C122 1.272 . S
O138 Sm113 2.543 . S
O138 C123 1.261 . S
O139 Sm113 2.450 . S
O139 C123 1.242 . S
O140 Sm112 2.386 1_565 S
O140 Sm113 2.681 . S
O140 C130 1.271 . S
O141 Sm113 2.464 . S
O141 C130 1.251 . S
O142 Sm113 2.396 . S
O142 C131 1.252 1_565 S
O143 Sm112 2.408 . S
O143 C131 1.272 . S
H144 C116 0.930 1_565 S
H145 C117 0.929 . S
H146 C119 0.930 . S
H147 C120 0.929 . S
H148 C125 0.930 1_545 S
H149 C126 0.929 . S
H150 C128 0.930 . S
H151 C129 0.929 . S
Sm152 C154 2.846 . S
Sm152 O172 2.543 . S
Sm152 O173 2.450 . S
Sm152 O174 2.681 . S
Sm152 O175 2.464 . S
Sm152 O176 2.396 . S
Sm152 O180 2.386 . S
Sm152 O183 2.408 . S
Sm153 C163 2.846 . S
Sm153 O174 2.386 . S
Sm153 O177 2.408 . S
Sm153 O178 2.543 . S
Sm153 O179 2.450 . S
Sm153 O180 2.681 . S
Sm153 O181 2.464 . S
Sm153 O182 2.396 . S
C154 Sm152 2.846 . S
C154 C155 1.506 . S
C154 O172 1.261 . S
C154 O173 1.242 . S
C155 C154 1.506 . S
C155 C156 1.358 1_556 S
C155 C160 1.382 . S
C156 C155 1.358 1_554 S
C156 C157 1.385 . S
C156 H184 0.930 . S
C157 C156 1.385 . S
C157 C158 1.395 . S
C157 H185 0.929 . S
C158 C157 1.395 . S
C158 C159 1.335 . S
C159 C158 1.335 . S
C159 C160 1.398 1_554 S
C159 H186 0.930 . S
C160 C155 1.382 . S
C160 C159 1.398 1_556 S
C160 H187 0.929 . S
C161 O174 1.271 . S
C161 O175 1.251 . S
C162 O176 1.252 . S
C162 O177 1.272 . S
C163 Sm153 2.846 . S
C163 C164 1.506 . S
C163 O178 1.261 . S
C163 O179 1.242 . S
C164 C163 1.506 . S
C164 C165 1.358 . S
C164 C169 1.382 . S
C165 C164 1.358 . S
C165 C166 1.385 . S
C165 H188 0.930 . S
C166 C165 1.385 . S
C166 C167 1.395 . S
C166 H189 0.929 . S
C167 C166 1.395 . S
C167 C168 1.335 . S
C168 C167 1.335 . S
C168 C169 1.398 . S
C168 H190 0.930 . S
C169 C164 1.382 . S
C169 C168 1.398 . S
C169 H191 0.929 . S
C170 O180 1.271 . S
C170 O181 1.251 . S
C171 O182 1.252 . S
C171 O183 1.272 . S
O172 Sm152 2.543 . S
O172 C154 1.261 . S
O173 Sm152 2.450 . S
O173 C154 1.242 . S
O174 Sm152 2.681 . S
O174 Sm153 2.386 . S
O174 C161 1.271 . S
O175 Sm152 2.464 . S
O175 C161 1.251 . S
O176 Sm152 2.396 . S
O176 C162 1.252 . S
O177 Sm153 2.408 . S
O177 C162 1.272 . S
O178 Sm153 2.543 . S
O178 C163 1.261 . S
O179 Sm153 2.450 . S
O179 C163 1.242 . S
O180 Sm152 2.386 . S
O180 Sm153 2.681 . S
O180 C170 1.271 . S
O181 Sm153 2.464 . S
O181 C170 1.251 . S
O182 Sm153 2.396 . S
O182 C171 1.252 . S
O183 Sm152 2.408 . S
O183 C171 1.272 . S
H184 C156 0.930 . S
H185 C157 0.929 . S
H186 C159 0.930 . S
H187 C160 0.929 . S
H188 C165 0.930 . S
H189 C166 0.929 . S
H190 C168 0.930 . S
H191 C169 0.929 . S
Sm192 C194 2.846 . S
Sm192 O212 2.543 . S
Sm192 O213 2.450 . S
Sm192 O214 2.681 1_655 S
Sm192 O215 2.464 . S
Sm192 O216 2.396 . S
Sm192 O220 2.386 . S
Sm192 O223 2.408 1_655 S
Sm193 C203 2.846 . S
Sm193 O214 2.386 . S
Sm193 O217 2.408 1_455 S
Sm193 O218 2.543 . S
Sm193 O219 2.450 . S
Sm193 O220 2.681 1_455 S
Sm193 O221 2.464 . S
Sm193 O222 2.396 . S
C194 Sm192 2.846 . S
C194 C195 1.506 . S
C194 O212 1.261 . S
C194 O213 1.242 . S
C195 C194 1.506 . S
C195 C196 1.358 1_556 S
C195 C200 1.382 . S
C196 C195 1.358 1_554 S
C196 C197 1.385 . S
C196 H224 0.930 . S
C197 C196 1.385 . S
C197 C198 1.395 . S
C197 H225 0.929 . S
C198 C197 1.395 . S
C198 C199 1.335 . S
C199 C198 1.335 . S
C199 C200 1.398 1_554 S
C199 H226 0.930 . S
C200 C195 1.382 . S
C200 C199 1.398 1_556 S
C200 H227 0.929 . S
C201 O214 1.267 1_655 S
C201 O215 1.259 . S
C202 O216 1.252 . S
C202 O217 1.272 . S
C203 Sm193 2.846 . S
C203 C204 1.506 . S
C203 O218 1.261 . S
C203 O219 1.242 . S
C204 C203 1.506 . S
C204 C205 1.358 . S
C204 C209 1.382 . S
C205 C204 1.358 . S
C205 C206 1.385 . S
C205 H228 0.930 . S
C206 C205 1.385 . S
C206 C207 1.395 . S
C206 H229 0.929 . S
C207 C206 1.395 . S
C207 C208 1.335 . S
C208 C207 1.335 . S
C208 C209 1.398 . S
C208 H230 0.930 . S
C209 C204 1.382 . S
C209 C208 1.398 . S
C209 H231 0.929 . S
C210 O220 1.264 1_455 S
C210 O221 1.263 . S
C211 O222 1.252 . S
C211 O223 1.272 . S
O212 Sm192 2.543 . S
O212 C194 1.261 . S
O213 Sm192 2.450 . S
O213 C194 1.242 . S
O214 Sm192 2.681 1_455 S
O214 Sm193 2.386 . S
O214 C201 1.267 1_455 S
O215 Sm192 2.464 . S
O215 C201 1.259 . S
O216 Sm192 2.396 . S
O216 C202 1.252 . S
O217 Sm193 2.408 1_655 S
O217 C202 1.272 . S
O218 Sm193 2.543 . S
O218 C203 1.261 . S
O219 Sm193 2.450 . S
O219 C203 1.242 . S
O220 Sm192 2.386 . S
O220 Sm193 2.681 1_655 S
O220 C210 1.264 1_655 S
O221 Sm193 2.464 . S
O221 C210 1.263 . S
O222 Sm193 2.396 . S
O222 C211 1.252 . S
O223 Sm192 2.408 1_455 S
O223 C211 1.272 . S
H224 C196 0.930 . S
H225 C197 0.929 . S
H226 C199 0.930 . S
H227 C200 0.929 . S
H228 C205 0.930 . S
H229 C206 0.929 . S
H230 C208 0.930 . S
H231 C209 0.929 . S
C232 C233 1.412 . S
C232 C234 1.394 . S
C232 H248 0.931 . S
C233 C232 1.412 . S
C233 C237 1.356 1_565 S
C234 C232 1.394 . S
C234 C235 1.369 . S
C234 C238 1.531 . S
C235 C234 1.369 . S
C235 C236 1.410 1_565 S
C235 C243 1.503 . S
C236 C235 1.410 1_545 S
C236 C237 1.392 . S
C236 C239 1.511 . S
C237 C233 1.356 1_545 S
C237 C236 1.392 . S
C237 H249 0.929 . S
C238 C234 1.531 . S
C238 H250 0.960 . S
C238 H251 0.962 . S
C238 H252 0.960 . S
C239 C236 1.511 . S
C239 H253 0.961 . S
C239 H254 0.961 . S
C239 H255 0.961 . S
C240 C241 1.379 . S
C240 C242 1.363 . S
C240 H256 0.931 . S
C241 C240 1.379 . S
C241 C245 1.398 1_545 S
C242 C240 1.363 . S
C242 C243 1.370 1_545 S
C242 C246 1.524 . S
C243 C235 1.503 . S
C243 C242 1.370 1_565 S
C243 C244 1.403 . S
C244 C243 1.403 . S
C244 C245 1.404 . S
C244 C247 1.539 . S
C245 C241 1.398 1_565 S
C245 C244 1.404 . S
C245 H257 0.930 . S
C246 C242 1.524 . S
C246 H258 0.956 . S
C246 H259 0.961 . S
C246 H260 0.961 . S
C247 C244 1.539 . S
C247 H261 0.958 . S
C247 H262 0.961 . S
C247 H263 0.960 . S
H248 C232 0.931 . S
H249 C237 0.929 . S
H250 C238 0.960 . S
H251 C238 0.962 . S
H252 C238 0.960 . S
H253 C239 0.961 . S
H254 C239 0.961 . S
H255 C239 0.961 . S
H256 C240 0.931 . S
H257 C245 0.930 . S
H258 C246 0.956 . S
H259 C246 0.961 . S
H260 C246 0.961 . S
H261 C247 0.958 . S
H262 C247 0.961 . S
H263 C247 0.960 . S
C264 C265 1.391 . S
C264 C266 1.394 . S
C264 H280 0.931 . S
C265 C264 1.391 . S
C265 C269 1.376 . S
C266 C264 1.394 . S
C266 C267 1.369 . S
C266 C270 1.531 . S
C267 C266 1.369 . S
C267 C268 1.410 . S
C267 C275 1.503 . S
C268 C267 1.410 . S
C268 C269 1.392 . S
C268 C271 1.511 . S
C269 C265 1.376 . S
C269 C268 1.392 . S
C269 H281 0.929 . S
C270 C266 1.531 . S
C270 H282 0.960 . S
C270 H283 0.962 . S
C270 H284 0.960 . S
C271 C268 1.511 . S
C271 H285 0.961 . S
C271 H286 0.961 . S
C271 H287 0.961 . S
C272 C273 1.370 . S
C272 C274 1.363 . S
C272 H288 0.931 . S
C273 C272 1.370 . S
C273 C277 1.408 . S
C274 C272 1.363 . S
C274 C275 1.370 . S
C274 C278 1.524 . S
C275 C267 1.503 . S
C275 C274 1.370 . S
C275 C276 1.403 . S
C276 C275 1.403 . S
C276 C277 1.404 . S
C276 C279 1.539 . S
C277 C273 1.408 . S
C277 C276 1.404 . S
C277 H289 0.930 . S
C278 C274 1.524 . S
C278 H290 0.956 . S
C278 H291 0.961 . S
C278 H292 0.961 . S
C279 C276 1.539 . S
C279 H293 0.958 . S
C279 H294 0.961 . S
C279 H295 0.960 . S
H280 C264 0.931 . S
H281 C269 0.929 . S
H282 C270 0.960 . S
H283 C270 0.962 . S
H284 C270 0.960 . S
H285 C271 0.961 . S
H286 C271 0.961 . S
H287 C271 0.961 . S
H288 C272 0.931 . S
H289 C277 0.930 . S
H290 C278 0.956 . S
H291 C278 0.961 . S
H292 C278 0.961 . S
H293 C279 0.958 . S
H294 C279 0.961 . S
H295 C279 0.960 . S
C296 C297 1.391 . S
C296 C298 1.394 . S
C296 H312 0.931 . S
C297 C296 1.391 . S
C297 C301 1.376 . S
C298 C296 1.394 . S
C298 C299 1.369 . S
C298 C302 1.531 . S
C299 C298 1.369 . S
C299 C300 1.410 . S
C299 C307 1.503 . S
C300 C299 1.410 . S
C300 C301 1.392 . S
C300 C303 1.511 . S
C301 C297 1.376 . S
C301 C300 1.392 . S
C301 H313 0.929 . S
C302 C298 1.531 . S
C302 H314 0.960 . S
C302 H315 0.962 . S
C302 H316 0.960 . S
C303 C300 1.511 . S
C303 H317 0.961 . S
C303 H318 0.961 . S
C303 H319 0.961 . S
C304 C305 1.370 . S
C304 C306 1.363 . S
C304 H320 0.931 . S
C305 C304 1.370 . S
C305 C309 1.408 . S
C306 C304 1.363 . S
C306 C307 1.370 . S
C306 C310 1.524 . S
C307 C299 1.503 . S
C307 C306 1.370 . S
C307 C308 1.403 . S
C308 C307 1.403 . S
C308 C309 1.404 . S
C308 C311 1.539 . S
C309 C305 1.408 . S
C309 C308 1.404 . S
C309 H321 0.930 . S
C310 C306 1.524 . S
C310 H322 0.956 . S
C310 H323 0.961 . S
C310 H324 0.961 . S
C311 C308 1.539 . S
C311 H325 0.958 . S
C311 H326 0.961 . S
C311 H327 0.960 . S
H312 C296 0.931 . S
H313 C301 0.929 . S
H314 C302 0.960 . S
H315 C302 0.962 . S
H316 C302 0.960 . S
H317 C303 0.961 . S
H318 C303 0.961 . S
H319 C303 0.961 . S
H320 C304 0.931 . S
H321 C309 0.930 . S
H322 C310 0.956 . S
H323 C310 0.961 . S
H324 C310 0.961 . S
H325 C311 0.958 . S
H326 C311 0.961 . S
H327 C311 0.960 . S
C328 C329 1.377 1_455 S
C328 C330 1.394 . S
C328 H344 0.931 . S
C329 C328 1.377 1_655 S
C329 C333 1.390 . S
C330 C328 1.394 . S
C330 C331 1.344 1_455 S
C330 C334 1.531 . S
C331 C330 1.344 1_655 S
C331 C332 1.435 . S
C331 C339 1.503 1_655 S
C332 C331 1.435 . S
C332 C333 1.392 . S
C332 C335 1.511 . S
C333 C329 1.390 . S
C333 C332 1.392 . S
C333 H345 0.929 . S
C334 C330 1.531 . S
C334 H346 0.960 . S
C334 H347 0.962 . S
C334 H348 0.960 . S
C335 C332 1.511 . S
C335 H349 0.961 . S
C335 H350 0.961 . S
C335 H351 0.961 . S
C336 C337 1.370 . S
C336 C338 1.363 . S
C336 H352 0.931 . S
C337 C336 1.370 . S
C337 C341 1.408 1_455 S
C338 C336 1.363 . S
C338 C339 1.370 . S
C338 C342 1.524 . S
C339 C331 1.503 1_455 S
C339 C338 1.370 . S
C339 C340 1.403 1_455 S
C340 C339 1.403 1_655 S
C340 C341 1.404 . S
C340 C343 1.539 . S
C341 C337 1.408 1_655 S
C341 C340 1.404 . S
C341 H353 0.930 . S
C342 C338 1.524 . S
C342 H354 0.956 . S
C342 H355 0.961 . S
C342 H356 0.961 . S
C343 C340 1.539 . S
C343 H357 0.958 . S
C343 H358 0.961 . S
C343 H359 0.960 . S
H344 C328 0.931 . S
H345 C333 0.929 . S
H346 C334 0.960 . S
H347 C334 0.962 . S
H348 C334 0.960 . S
H349 C335 0.961 . S
H350 C335 0.961 . S
H351 C335 0.961 . S
H352 C336 0.931 . S
H353 C341 0.930 . S
H354 C342 0.956 . S
H355 C342 0.961 . S
H356 C342 0.961 . S
H357 C343 0.958 . S
H358 C343 0.961 . S
H359 C343 0.960 . S
C360 C361 1.391 . S
C360 C362 1.394 . S
C360 H376 0.931 . S
C361 C360 1.391 . S
C361 C365 1.376 1_545 S
C362 C360 1.394 . S
C362 C363 1.369 . S
C362 C366 1.531 . S
C363 C362 1.369 . S
C363 C364 1.410 1_545 S
C363 C371 1.503 . S
C364 C363 1.410 1_565 S
C364 C365 1.392 . S
C364 C367 1.511 . S
C365 C361 1.376 1_565 S
C365 C364 1.392 . S
C365 H377 0.929 . S
C366 C362 1.531 . S
C366 H378 0.960 . S
C366 H379 0.962 . S
C366 H380 0.960 . S
C367 C364 1.511 . S
C367 H381 0.961 . S
C367 H382 0.961 . S
C367 H383 0.961 . S
C368 C369 1.376 . S
C368 C370 1.363 1_556 S
C368 H384 0.931 . S
C369 C368 1.376 . S
C369 C373 1.401 1_566 S
C370 C368 1.363 1_554 S
C370 C371 1.370 1_565 S
C370 C374 1.524 . S
C371 C363 1.503 . S
C371 C370 1.370 1_545 S
C371 C372 1.403 . S
C372 C371 1.403 . S
C372 C373 1.404 . S
C372 C375 1.539 . S
C373 C369 1.401 1_544 S
C373 C372 1.404 . S
C373 H385 0.930 . S
C374 C370 1.524 . S
C374 H386 0.956 . S
C374 H387 0.961 . S
C374 H388 0.961 1_554 S
C375 C372 1.539 . S
C375 H389 0.958 . S
C375 H390 0.961 . S
C375 H391 0.960 . S
H376 C360 0.931 . S
H377 C365 0.929 . S
H378 C366 0.960 . S
H379 C366 0.962 . S
H380 C366 0.960 . S
H381 C367 0.961 . S
H382 C367 0.961 . S
H383 C367 0.961 . S
H384 C368 0.931 . S
H385 C373 0.930 . S
H386 C374 0.956 . S
H387 C374 0.961 . S
H388 C374 0.961 1_556 S
H389 C375 0.958 . S
H390 C375 0.961 . S
H391 C375 0.960 . S
C392 C393 1.391 . S
C392 C394 1.394 . S
C392 H408 0.931 . S
C393 C392 1.391 . S
C393 C397 1.376 . S
C394 C392 1.394 . S
C394 C395 1.369 . S
C394 C398 1.531 . S
C395 C394 1.369 . S
C395 C396 1.410 . S
C395 C403 1.503 . S
C396 C395 1.410 . S
C396 C397 1.392 . S
C396 C399 1.511 . S
C397 C393 1.376 . S
C397 C396 1.392 . S
C397 H409 0.929 . S
C398 C394 1.531 . S
C398 H410 0.960 . S
C398 H411 0.962 . S
C398 H412 0.960 . S
C399 C396 1.511 . S
C399 H413 0.961 . S
C399 H414 0.961 . S
C399 H415 0.961 . S
C400 C401 1.370 . S
C400 C402 1.363 1_556 S
C400 H416 0.931 . S
C401 C400 1.370 . S
C401 C405 1.408 . S
C402 C400 1.363 1_554 S
C402 C403 1.370 . S
C402 C406 1.524 . S
C403 C395 1.503 . S
C403 C402 1.370 . S
C403 C404 1.403 . S
C404 C403 1.403 . S
C404 C405 1.404 1_554 S
C404 C407 1.539 . S
C405 C401 1.408 . S
C405 C404 1.404 1_556 S
C405 H417 0.930 . S
C406 C402 1.524 . S
C406 H418 0.956 . S
C406 H419 0.961 . S
C406 H420 0.961 . S
C407 C404 1.539 . S
C407 H421 0.958 . S
C407 H422 0.961 . S
C407 H423 0.960 . S
H408 C392 0.931 . S
H409 C397 0.929 . S
H410 C398 0.960 . S
H411 C398 0.962 . S
H412 C398 0.960 . S
H413 C399 0.961 . S
H414 C399 0.961 . S
H415 C399 0.961 . S
H416 C400 0.931 . S
H417 C405 0.930 . S
H418 C406 0.956 . S
H419 C406 0.961 . S
H420 C406 0.961 . S
H421 C407 0.958 . S
H422 C407 0.961 . S
H423 C407 0.960 . S
C424 C425 1.391 . S
C424 C426 1.394 . S
C424 H440 0.931 . S
C425 C424 1.391 . S
C425 C429 1.376 . S
C426 C424 1.394 . S
C426 C427 1.369 . S
C426 C430 1.531 . S
C427 C426 1.369 . S
C427 C428 1.410 . S
C427 C435 1.503 . S
C428 C427 1.410 . S
C428 C429 1.392 . S
C428 C431 1.511 . S
C429 C425 1.376 . S
C429 C428 1.392 . S
C429 H441 0.929 . S
C430 C426 1.531 . S
C430 H442 0.960 . S
C430 H443 0.962 . S
C430 H444 0.960 . S
C431 C428 1.511 . S
C431 H445 0.961 . S
C431 H446 0.961 . S
C431 H447 0.961 . S
C432 C433 1.370 . S
C432 C434 1.363 1_556 S
C432 H448 0.931 . S
C433 C432 1.370 . S
C433 C437 1.408 . S
C434 C432 1.363 1_554 S
C434 C435 1.370 . S
C434 C438 1.524 . S
C435 C427 1.503 . S
C435 C434 1.370 . S
C435 C436 1.403 . S
C436 C435 1.403 . S
C436 C437 1.404 1_554 S
C436 C439 1.539 . S
C437 C433 1.408 . S
C437 C436 1.404 1_556 S
C437 H449 0.930 . S
C438 C434 1.524 . S
C438 H450 0.956 . S
C438 H451 0.961 . S
C438 H452 0.961 . S
C439 C436 1.539 . S
C439 H453 0.958 . S
C439 H454 0.961 . S
C439 H455 0.960 . S
H440 C424 0.931 . S
H441 C429 0.929 . S
H442 C430 0.960 . S
H443 C430 0.962 . S
H444 C430 0.960 . S
H445 C431 0.961 . S
H446 C431 0.961 . S
H447 C431 0.961 . S
H448 C432 0.931 . S
H449 C437 0.930 . S
H450 C438 0.956 . S
H451 C438 0.961 . S
H452 C438 0.961 . S
H453 C439 0.958 . S
H454 C439 0.961 . S
H455 C439 0.960 . S
C456 C457 1.391 1_455 S
C456 C458 1.394 1_455 S
C456 H472 0.931 . S
C457 C456 1.391 1_655 S
C457 C461 1.376 . S
C458 C456 1.394 1_655 S
C458 C459 1.369 . S
C458 C462 1.531 1_655 S
C459 C458 1.369 . S
C459 C460 1.410 . S
C459 C467 1.503 . S
C460 C459 1.410 . S
C460 C461 1.392 . S
C460 C463 1.511 . S
C461 C457 1.376 . S
C461 C460 1.392 . S
C461 H473 0.929 . S
C462 C458 1.531 1_455 S
C462 H474 0.960 1_455 S
C462 H475 0.962 . S
C462 H476 0.960 1_455 S
C463 C460 1.511 . S
C463 H477 0.961 . S
C463 H478 0.961 . S
C463 H479 0.961 . S
C464 C465 1.370 1_455 S
C464 C466 1.363 1_556 S
C464 H480 0.931 . S
C465 C464 1.370 1_655 S
C465 C469 1.408 . S
C466 C464 1.363 1_554 S
C466 C467 1.370 1_455 S
C466 C470 1.524 . S
C467 C459 1.503 . S
C467 C466 1.370 1_655 S
C467 C468 1.403 . S
C468 C467 1.403 . S
C468 C469 1.404 1_554 S
C468 C471 1.539 . S
C469 C465 1.408 . S
C469 C468 1.404 1_556 S
C469 H481 0.930 . S
C470 C466 1.524 . S
C470 H482 0.956 . S
C470 H483 0.961 . S
C470 H484 0.961 . S
C471 C468 1.539 . S
C471 H485 0.958 . S
C471 H486 0.961 . S
C471 H487 0.960 . S
H472 C456 0.931 . S
H473 C461 0.929 . S
H474 C462 0.960 1_655 S
H475 C462 0.962 . S
H476 C462 0.960 1_655 S
H477 C463 0.961 . S
H478 C463 0.961 . S
H479 C463 0.961 . S
H480 C464 0.931 . S
H481 C469 0.930 . S
H482 C470 0.956 . S
H483 C470 0.961 . S
H484 C470 0.961 . S
H485 C471 0.958 . S
H486 C471 0.961 . S
H487 C471 0.960 . S
C488 C489 1.397 . S
C488 C490 1.394 1_455 S
C488 H504 0.931 . S
C489 C488 1.397 . S
C489 C493 1.359 1_455 S
C490 C488 1.394 1_655 S
C490 C491 1.369 . S
C490 C494 1.531 1_655 S
C491 C490 1.369 . S
C491 C492 1.410 . S
C491 C499 1.503 . S
C492 C491 1.410 . S
C492 C493 1.392 . S
C492 C495 1.511 . S
C493 C489 1.359 1_655 S
C493 C492 1.392 . S
C493 H505 0.929 . S
C494 C490 1.531 1_455 S
C494 H506 0.960 1_455 S
C494 H507 0.962 . S
C494 H508 0.960 . S
C495 C492 1.511 . S
C495 H509 0.961 . S
C495 H510 0.961 . S
C495 H511 0.961 . S
C496 C497 1.370 . S
C496 C498 1.363 . S
C496 H512 0.931 . S
C497 C496 1.370 . S
C497 C501 1.408 . S
C498 C496 1.363 . S
C498 C499 1.370 . S
C498 C502 1.524 1_655 S
C499 C491 1.503 . S
C499 C498 1.370 . S
C499 C500 1.403 . S
C500 C499 1.403 . S
C500 C501 1.404 . S
C500 C503 1.539 . S
C501 C497 1.408 . S
C501 C500 1.404 . S
C501 H513 0.930 . S
C502 C498 1.524 1_455 S
C502 H514 0.956 . S
C502 H515 0.961 . S
C502 H516 0.961 . S
C503 C500 1.539 . S
C503 H517 0.958 . S
C503 H518 0.961 . S
C503 H519 0.960 . S
H504 C488 0.931 . S
H505 C493 0.929 . S
H506 C494 0.960 1_655 S
H507 C494 0.962 . S
H508 C494 0.960 . S
H509 C495 0.961 . S
H510 C495 0.961 . S
H511 C495 0.961 . S
H512 C496 0.931 . S
H513 C501 0.930 . S
H514 C502 0.956 . S
H515 C502 0.961 . S
H516 C502 0.961 . S
H517 C503 0.958 . S
H518 C503 0.961 . S
H519 C503 0.960 . S
C520 C521 1.391 1_565 S
C520 C522 1.394 . S
C520 H536 0.931 . S
C521 C520 1.391 1_545 S
C521 C525 1.376 . S
C522 C520 1.394 . S
C522 C523 1.369 . S
C522 C526 1.531 . S
C523 C522 1.369 . S
C523 C524 1.410 1_565 S
C523 C531 1.503 . S
C524 C523 1.410 1_545 S
C524 C525 1.392 . S
C524 C527 1.511 . S
C525 C521 1.376 . S
C525 C524 1.392 . S
C525 H537 0.929 . S
C526 C522 1.531 . S
C526 H538 0.960 . S
C526 H539 0.962 . S
C526 H540 0.960 . S
C527 C524 1.511 . S
C527 H541 0.961 . S
C527 H542 0.961 . S
C527 H543 0.961 . S
C528 C529 1.370 . S
C528 C530 1.363 . S
C528 H544 0.931 . S
C529 C528 1.370 . S
C529 C533 1.408 . S
C530 C528 1.363 . S
C530 C531 1.370 . S
C530 C534 1.524 . S
C531 C523 1.503 . S
C531 C530 1.370 . S
C531 C532 1.403 . S
C532 C531 1.403 . S
C532 C533 1.404 . S
C532 C535 1.539 . S
C533 C529 1.408 . S
C533 C532 1.404 . S
C533 H545 0.930 . S
C534 C530 1.524 . S
C534 H546 0.956 . S
C534 H547 0.961 1_565 S
C534 H548 0.952 1_565 S
C535 C532 1.539 . S
C535 H549 0.958 . S
C535 H550 0.961 . S
C535 H551 0.960 . S
H536 C520 0.931 . S
H537 C525 0.929 . S
H538 C526 0.960 . S
H539 C526 0.962 . S
H540 C526 0.960 . S
H541 C527 0.961 . S
H542 C527 0.961 . S
H543 C527 0.961 . S
H544 C528 0.931 . S
H545 C533 0.930 . S
H546 C534 0.956 . S
H547 C534 0.961 1_545 S
H548 C534 0.952 1_545 S
H549 C535 0.958 . S
H550 C535 0.961 . S
H551 C535 0.960 . S
C552 C553 1.391 . S
C552 C554 1.394 . S
C552 H568 0.931 . S
C553 C552 1.391 . S
C553 C557 1.376 . S
C554 C552 1.394 . S
C554 C555 1.369 . S
C554 C558 1.531 . S
C555 C554 1.369 . S
C555 C556 1.410 . S
C555 C563 1.503 . S
C556 C555 1.410 . S
C556 C557 1.392 . S
C556 C559 1.511 . S
C557 C553 1.376 . S
C557 C556 1.392 . S
C557 H569 0.929 . S
C558 C554 1.531 . S
C558 H570 0.960 . S
C558 H571 0.962 . S
C558 H572 0.960 . S
C559 C556 1.511 . S
C559 H573 0.961 . S
C559 H574 0.961 . S
C559 H575 0.961 . S
C560 C561 1.370 . S
C560 C562 1.363 . S
C560 H576 0.931 . S
C561 C560 1.370 . S
C561 C565 1.408 . S
C562 C560 1.363 . S
C562 C563 1.370 . S
C562 C566 1.524 . S
C563 C555 1.503 . S
C563 C562 1.370 . S
C563 C564 1.403 . S
C564 C563 1.403 . S
C564 C565 1.404 . S
C564 C567 1.539 . S
C565 C561 1.408 . S
C565 C564 1.404 . S
C565 H577 0.930 . S
C566 C562 1.524 . S
C566 H578 0.956 . S
C566 H579 0.961 . S
C566 H580 0.961 . S
C567 C564 1.539 . S
C567 H581 0.958 . S
C567 H582 0.961 . S
C567 H583 0.960 . S
H568 C552 0.931 . S
H569 C557 0.929 . S
H570 C558 0.960 . S
H571 C558 0.962 . S
H572 C558 0.960 . S
H573 C559 0.961 . S
H574 C559 0.961 . S
H575 C559 0.961 . S
H576 C560 0.931 . S
H577 C565 0.930 . S
H578 C566 0.956 . S
H579 C566 0.961 . S
H580 C566 0.961 . S
H581 C567 0.958 . S
H582 C567 0.961 . S
H583 C567 0.960 . S
C584 C585 1.391 . S
C584 C586 1.394 . S
C584 H600 0.931 . S
C585 C584 1.391 . S
C585 C589 1.376 . S
C586 C584 1.394 . S
C586 C587 1.369 . S
C586 C590 1.531 . S
C587 C586 1.369 . S
C587 C588 1.410 . S
C587 C595 1.503 . S
C588 C587 1.410 . S
C588 C589 1.392 . S
C588 C591 1.511 . S
C589 C585 1.376 . S
C589 C588 1.392 . S
C589 H601 0.929 . S
C590 C586 1.531 . S
C590 H602 0.960 . S
C590 H603 0.962 . S
C590 H604 0.960 . S
C591 C588 1.511 . S
C591 H605 0.961 . S
C591 H606 0.961 . S
C591 H607 0.961 . S
C592 C593 1.370 . S
C592 C594 1.363 . S
C592 H608 0.931 . S
C593 C592 1.370 . S
C593 C597 1.408 . S
C594 C592 1.363 . S
C594 C595 1.370 . S
C594 C598 1.524 . S
C595 C587 1.503 . S
C595 C594 1.370 . S
C595 C596 1.403 . S
C596 C595 1.403 . S
C596 C597 1.404 . S
C596 C599 1.539 . S
C597 C593 1.408 . S
C597 C596 1.404 . S
C597 H609 0.930 . S
C598 C594 1.524 . S
C598 H610 0.956 . S
C598 H611 0.961 . S
C598 H612 0.961 . S
C599 C596 1.539 . S
C599 H613 0.958 . S
C599 H614 0.961 . S
C599 H615 0.960 . S
H600 C584 0.931 . S
H601 C589 0.929 . S
H602 C590 0.960 . S
H603 C590 0.962 . S
H604 C590 0.960 . S
H605 C591 0.961 . S
H606 C591 0.961 . S
H607 C591 0.961 . S
H608 C592 0.931 . S
H609 C597 0.930 . S
H610 C598 0.956 . S
H611 C598 0.961 . S
H612 C598 0.961 . S
H613 C599 0.958 . S
H614 C599 0.961 . S
H615 C599 0.960 . S
C616 C617 1.391 1_455 S
C616 C618 1.394 . S
C616 H632 0.931 . S
C617 C616 1.391 1_655 S
C617 C621 1.376 . S
C618 C616 1.394 . S
C618 C619 1.369 . S
C618 C622 1.531 . S
C619 C618 1.369 . S
C619 C620 1.410 1_455 S
C619 C627 1.503 . S
C620 C619 1.410 1_655 S
C620 C621 1.392 . S
C620 C623 1.511 . S
C621 C617 1.376 . S
C621 C620 1.392 . S
C621 H633 0.929 . S
C622 C618 1.531 . S
C622 H634 0.960 . S
C622 H635 0.962 . S
C622 H636 0.960 . S
C623 C620 1.511 . S
C623 H637 0.961 . S
C623 H638 0.961 . S
C623 H639 0.961 . S
C624 C625 1.370 . S
C624 C626 1.363 . S
C624 H640 0.931 . S
C625 C624 1.370 . S
C625 C629 1.408 . S
C626 C624 1.363 . S
C626 C627 1.370 . S
C626 C630 1.524 . S
C627 C619 1.503 . S
C627 C626 1.370 . S
C627 C628 1.403 . S
C628 C627 1.403 . S
C628 C629 1.404 . S
C628 C631 1.539 1_455 S
C629 C625 1.408 . S
C629 C628 1.404 . S
C629 H641 0.930 1_554 S
C630 C626 1.524 . S
C630 H642 0.956 . S
C630 H643 0.961 . S
C630 H644 0.961 . S
C631 C628 1.539 1_655 S
C631 H645 0.958 1_654 S
C631 H646 0.961 1_554 S
C631 H647 0.960 . S
H632 C616 0.931 . S
H633 C621 0.929 . S
H634 C622 0.960 . S
H635 C622 0.962 . S
H636 C622 0.960 . S
H637 C623 0.961 . S
H638 C623 0.961 . S
H639 C623 0.961 . S
H640 C624 0.931 . S
H641 C629 0.930 1_556 S
H642 C630 0.956 . S
H643 C630 0.961 . S
H644 C630 0.961 . S
H645 C631 0.958 1_456 S
H646 C631 0.961 1_556 S
H647 C631 0.960 . S
C648 C649 1.391 1_545 S
C648 C650 1.394 . S
C648 H664 0.933 . S
C649 C648 1.391 1_565 S
C649 C653 1.376 . S
C650 C648 1.394 . S
C650 C651 1.369 . S
C650 C654 1.531 . S
C651 C650 1.369 . S
C651 C652 1.410 . S
C651 C659 1.503 . S
C652 C651 1.410 . S
C652 C653 1.392 1_545 S
C652 C655 1.511 . S
C653 C649 1.376 . S
C653 C652 1.392 1_565 S
C653 H665 0.929 . S
C654 C650 1.531 . S
C654 H666 0.960 . S
C654 H667 0.962 . S
C654 H668 0.960 . S
C655 C652 1.511 . S
C655 H669 0.961 . S
C655 H670 0.961 . S
C655 H671 0.961 1_545 S
C656 C657 1.370 . S
C656 C658 1.363 . S
C656 H672 0.931 . S
C657 C656 1.370 . S
C657 C661 1.408 . S
C658 C656 1.363 . S
C658 C659 1.370 . S
C658 C662 1.524 . S
C659 C651 1.503 . S
C659 C658 1.370 . S
C659 C660 1.403 . S
C660 C659 1.403 . S
C660 C661 1.404 . S
C660 C663 1.539 1_545 S
C661 C657 1.408 . S
C661 C660 1.404 . S
C661 H673 0.930 . S
C662 C658 1.524 . S
C662 H674 0.956 . S
C662 H675 0.961 . S
C662 H676 0.961 . S
C663 C660 1.539 1_565 S
C663 H677 0.958 . S
C663 H678 0.961 . S
C663 H679 0.960 . S
H664 C648 0.933 . S
H665 C653 0.929 . S
H666 C654 0.960 . S
H667 C654 0.962 . S
H668 C654 0.960 . S
H669 C655 0.961 . S
H670 C655 0.961 . S
H671 C655 0.961 1_565 S
H672 C656 0.931 . S
H673 C661 0.930 . S
H674 C662 0.956 . S
H675 C662 0.961 . S
H676 C662 0.961 . S
H677 C663 0.958 . S
H678 C663 0.961 . S
H679 C663 0.960 . S
C680 C681 1.391 . S
C680 C682 1.394 . S
C680 H696 0.931 . S
C681 C680 1.391 . S
C681 C685 1.376 . S
C682 C680 1.394 . S
C682 C683 1.369 . S
C682 C686 1.531 . S
C683 C682 1.369 . S
C683 C684 1.410 . S
C683 C691 1.503 . S
C684 C683 1.410 . S
C684 C685 1.392 . S
C684 C687 1.511 . S
C685 C681 1.376 . S
C685 C684 1.392 . S
C685 H697 0.929 . S
C686 C682 1.531 . S
C686 H698 0.960 . S
C686 H699 0.962 . S
C686 H700 0.960 . S
C687 C684 1.511 . S
C687 H701 0.961 . S
C687 H702 0.961 . S
C687 H703 0.961 . S
C688 C689 1.370 . S
C688 C690 1.363 . S
C688 H704 0.931 . S
C689 C688 1.370 . S
C689 C693 1.408 . S
C690 C688 1.363 . S
C690 C691 1.370 . S
C690 C694 1.524 . S
C691 C683 1.503 . S
C691 C690 1.370 . S
C691 C692 1.403 . S
C692 C691 1.403 . S
C692 C693 1.404 . S
C692 C695 1.539 . S
C693 C689 1.408 . S
C693 C692 1.404 . S
C693 H705 0.930 1_554 S
C694 C690 1.524 . S
C694 H706 0.956 . S
C694 H707 0.961 . S
C694 H708 0.961 . S
C695 C692 1.539 . S
C695 H709 0.958 1_554 S
C695 H710 0.961 1_554 S
C695 H711 0.960 . S
H696 C680 0.931 . S
H697 C685 0.929 . S
H698 C686 0.960 . S
H699 C686 0.962 . S
H700 C686 0.960 . S
H701 C687 0.961 . S
H702 C687 0.961 . S
H703 C687 0.961 . S
H704 C688 0.931 . S
H705 C693 0.930 1_556 S
H706 C694 0.956 . S
H707 C694 0.961 . S
H708 C694 0.961 . S
H709 C695 0.958 1_556 S
H710 C695 0.961 1_556 S
H711 C695 0.960 . S
C712 C713 1.391 . S
C712 C714 1.394 . S
C712 H728 0.931 . S
C713 C712 1.391 . S
C713 C717 1.376 . S
C714 C712 1.394 . S
C714 C715 1.369 . S
C714 C718 1.531 . S
C715 C714 1.369 . S
C715 C716 1.410 . S
C715 C723 1.503 . S
C716 C715 1.410 . S
C716 C717 1.392 . S
C716 C719 1.511 . S
C717 C713 1.376 . S
C717 C716 1.392 . S
C717 H729 0.929 . S
C718 C714 1.531 . S
C718 H730 0.960 . S
C718 H731 0.962 . S
C718 H732 0.960 . S
C719 C716 1.511 . S
C719 H733 0.961 . S
C719 H734 0.961 . S
C719 H735 0.961 . S
C720 C721 1.370 . S
C720 C722 1.363 . S
C720 H736 0.931 . S
C721 C720 1.370 . S
C721 C725 1.408 . S
C722 C720 1.363 . S
C722 C723 1.370 . S
C722 C726 1.524 . S
C723 C715 1.503 . S
C723 C722 1.370 . S
C723 C724 1.403 . S
C724 C723 1.403 . S
C724 C725 1.404 . S
C724 C727 1.539 . S
C725 C721 1.408 . S
C725 C724 1.404 . S
C725 H737 0.930 . S
C726 C722 1.524 . S
C726 H738 0.956 . S
C726 H739 0.961 . S
C726 H740 0.961 . S
C727 C724 1.539 . S
C727 H741 0.958 . S
C727 H742 0.961 . S
C727 H743 0.960 . S
H728 C712 0.931 . S
H729 C717 0.929 . S
H730 C718 0.960 . S
H731 C718 0.962 . S
H732 C718 0.960 . S
H733 C719 0.961 . S
H734 C719 0.961 . S
H735 C719 0.961 . S
H736 C720 0.931 . S
H737 C725 0.930 . S
H738 C726 0.956 . S
H739 C726 0.961 . S
H740 C726 0.961 . S
H741 C727 0.958 . S
H742 C727 0.961 . S
H743 C727 0.960 . S
C744 C745 1.391 1_655 S
C744 C746 1.394 . S
C744 H760 0.931 . S
C745 C744 1.391 1_455 S
C745 C749 1.376 . S
C746 C744 1.394 . S
C746 C747 1.369 1_655 S
C746 C750 1.531 . S
C747 C746 1.369 1_455 S
C747 C748 1.410 . S
C747 C755 1.503 . S
C748 C747 1.410 . S
C748 C749 1.392 . S
C748 C751 1.511 . S
C749 C745 1.376 . S
C749 C748 1.392 . S
C749 H761 0.929 . S
C750 C746 1.531 . S
C750 H762 0.960 . S
C750 H763 0.962 . S
C750 H764 0.960 . S
C751 C748 1.511 . S
C751 H765 0.961 . S
C751 H766 0.961 . S
C751 H767 0.961 . S
C752 C753 1.370 . S
C752 C754 1.363 . S
C752 H768 0.931 . S
C753 C752 1.370 . S
C753 C757 1.408 . S
C754 C752 1.363 . S
C754 C755 1.370 . S
C754 C758 1.524 1_556 S
C755 C747 1.503 . S
C755 C754 1.370 . S
C755 C756 1.403 . S
C756 C755 1.403 . S
C756 C757 1.404 . S
C756 C759 1.539 . S
C757 C753 1.408 . S
C757 C756 1.404 . S
C757 H769 0.930 . S
C758 C754 1.524 1_554 S
C758 H770 0.956 1_455 S
C758 H771 0.961 . S
C758 H772 0.961 . S
C759 C756 1.539 . S
C759 H773 0.941 1_455 S
C759 H774 0.961 . S
C759 H775 0.960 . S
H760 C744 0.931 . S
H761 C749 0.929 . S
H762 C750 0.960 . S
H763 C750 0.962 . S
H764 C750 0.960 . S
H765 C751 0.961 . S
H766 C751 0.961 . S
H767 C751 0.961 . S
H768 C752 0.931 . S
H769 C757 0.930 . S
H770 C758 0.956 1_655 S
H771 C758 0.961 . S
H772 C758 0.961 . S
H773 C759 0.941 1_655 S
H774 C759 0.961 . S
H775 C759 0.960 . S
C776 C777 1.391 1_565 S
C776 C778 1.394 . S
C776 H792 0.931 . S
C777 C776 1.391 1_545 S
C777 C781 1.376 . S
C778 C776 1.394 . S
C778 C779 1.369 1_565 S
C778 C782 1.531 . S
C779 C778 1.369 1_545 S
C779 C780 1.410 . S
C779 C787 1.503 . S
C780 C779 1.410 . S
C780 C781 1.392 . S
C780 C783 1.511 . S
C781 C777 1.376 . S
C781 C780 1.392 . S
C781 H793 0.929 . S
C782 C778 1.531 . S
C782 H794 0.960 . S
C782 H795 0.962 . S
C782 H796 0.960 . S
C783 C780 1.511 . S
C783 H797 0.961 . S
C783 H798 0.961 . S
C783 H799 0.961 . S
C784 C785 1.370 . S
C784 C786 1.363 . S
C784 H800 0.931 . S
C785 C784 1.370 . S
C785 C789 1.408 . S
C786 C784 1.363 . S
C786 C787 1.370 . S
C786 C790 1.530 . S
C787 C779 1.503 . S
C787 C786 1.370 . S
C787 C788 1.403 . S
C788 C787 1.403 . S
C788 C789 1.404 . S
C788 C791 1.539 . S
C789 C785 1.408 . S
C789 C788 1.404 . S
C789 H801 0.930 . S
C790 C786 1.530 . S
C790 H802 0.955 1_546 S
C790 H803 0.961 . S
C790 H804 0.957 1_556 S
C791 C788 1.539 . S
C791 H805 0.958 1_545 S
C791 H806 0.961 . S
C791 H807 0.960 . S
H792 C776 0.931 . S
H793 C781 0.929 . S
H794 C782 0.960 . S
H795 C782 0.962 . S
H796 C782 0.960 . S
H797 C783 0.961 . S
H798 C783 0.961 . S
H799 C783 0.961 . S
H800 C784 0.931 . S
H801 C789 0.930 . S
H802 C790 0.955 1_564 S
H803 C790 0.961 . S
H804 C790 0.957 1_554 S
H805 C791 0.958 1_565 S
H806 C791 0.961 . S
H807 C791 0.960 . S
C808 C809 1.391 . S
C808 C810 1.394 . S
C808 H824 0.931 1_556 S
C809 C808 1.391 . S
C809 C813 1.376 . S
C810 C808 1.394 . S
C810 C811 1.369 . S
C810 C814 1.531 1_556 S
C811 C810 1.369 . S
C811 C812 1.410 . S
C811 C819 1.503 . S
C812 C811 1.410 . S
C812 C813 1.392 . S
C812 C815 1.511 . S
C813 C809 1.376 . S
C813 C812 1.392 . S
C813 H825 0.929 . S
C814 C810 1.531 1_554 S
C814 H826 0.960 1_554 S
C814 H827 0.962 . S
C814 H828 0.960 . S
C815 C812 1.511 . S
C815 H829 0.961 . S
C815 H830 0.961 . S
C815 H831 0.961 . S
C816 C817 1.370 . S
C816 C818 1.363 . S
C816 H832 0.931 . S
C817 C816 1.370 . S
C817 C821 1.408 . S
C818 C816 1.363 . S
C818 C819 1.370 . S
C818 C822 1.524 . S
C819 C811 1.503 . S
C819 C818 1.370 . S
C819 C820 1.403 . S
C820 C819 1.403 . S
C820 C821 1.404 . S
C820 C823 1.539 . S
C821 C817 1.408 . S
C821 C820 1.404 . S
C821 H833 0.930 . S
C822 C818 1.524 . S
C822 H834 0.956 . S
C822 H835 0.961 . S
C822 H836 0.961 . S
C823 C820 1.539 . S
C823 H837 0.958 . S
C823 H838 0.961 . S
C823 H839 0.960 . S
H824 C808 0.931 1_554 S
H825 C813 0.929 . S
H826 C814 0.960 1_556 S
H827 C814 0.962 . S
H828 C814 0.960 . S
H829 C815 0.961 . S
H830 C815 0.961 . S
H831 C815 0.961 . S
H832 C816 0.931 . S
H833 C821 0.930 . S
H834 C822 0.956 . S
H835 C822 0.961 . S
H836 C822 0.961 . S
H837 C823 0.958 . S
H838 C823 0.961 . S
H839 C823 0.960 . S
C840 C841 1.391 . S
C840 C842 1.394 . S
C840 H856 0.931 . S
C841 C840 1.391 . S
C841 C845 1.376 . S
C842 C840 1.394 . S
C842 C843 1.369 . S
C842 C846 1.531 . S
C843 C842 1.369 . S
C843 C844 1.410 . S
C843 C851 1.503 . S
C844 C843 1.410 . S
C844 C845 1.392 . S
C844 C847 1.511 1_556 S
C845 C841 1.376 . S
C845 C844 1.392 . S
C845 H857 0.929 . S
C846 C842 1.531 . S
C846 H858 0.960 . S
C846 H859 0.962 . S
C846 H860 0.960 . S
C847 C844 1.511 1_554 S
C847 H861 0.961 . S
C847 H862 0.961 1_554 S
C847 H863 0.961 . S
C848 C849 1.370 . S
C848 C850 1.363 . S
C848 H864 0.931 . S
C849 C848 1.370 . S
C849 C853 1.408 . S
C850 C848 1.363 . S
C850 C851 1.370 . S
C850 C854 1.524 . S
C851 C843 1.503 . S
C851 C850 1.370 . S
C851 C852 1.403 . S
C852 C851 1.403 . S
C852 C853 1.404 . S
C852 C855 1.539 . S
C853 C849 1.408 . S
C853 C852 1.404 . S
C853 H865 0.930 . S
C854 C850 1.524 . S
C854 H866 0.956 . S
C854 H867 0.961 . S
C854 H868 0.961 . S
C855 C852 1.539 . S
C855 H869 0.958 . S
C855 H870 0.961 1_556 S
C855 H871 0.960 1_556 S
H856 C840 0.931 . S
H857 C845 0.929 . S
H858 C846 0.960 . S
H859 C846 0.962 . S
H860 C846 0.960 . S
H861 C847 0.961 . S
H862 C847 0.961 1_556 S
H863 C847 0.961 . S
H864 C848 0.931 . S
H865 C853 0.930 . S
H866 C854 0.956 . S
H867 C854 0.961 . S
H868 C854 0.961 . S
H869 C855 0.958 . S
H870 C855 0.961 1_554 S
H871 C855 0.960 1_554 S
C872 C873 1.404 . S
C872 C874 1.394 . S
C872 H888 0.931 . S
C873 C872 1.404 . S
C873 C877 1.363 1_655 S
C874 C872 1.394 . S
C874 C875 1.369 . S
C874 C878 1.531 . S
C875 C874 1.369 . S
C875 C876 1.410 1_655 S
C875 C883 1.503 . S
C876 C875 1.410 1_455 S
C876 C877 1.392 . S
C876 C879 1.511 . S
C877 C873 1.363 1_455 S
C877 C876 1.392 . S
C877 H889 0.929 . S
C878 C874 1.531 . S
C878 H890 0.960 . S
C878 H891 0.962 . S
C878 H892 0.960 . S
C879 C876 1.511 . S
C879 H893 0.961 . S
C879 H894 0.961 . S
C879 H895 0.961 . S
C880 C881 1.370 . S
C880 C882 1.363 . S
C880 H896 0.931 . S
C881 C880 1.370 . S
C881 C885 1.408 1_655 S
C882 C880 1.363 . S
C882 C883 1.370 . S
C882 C886 1.524 . S
C883 C875 1.503 . S
C883 C882 1.370 . S
C883 C884 1.403 1_655 S
C884 C883 1.403 1_455 S
C884 C885 1.404 . S
C884 C887 1.539 . S
C885 C881 1.408 1_455 S
C885 C884 1.404 . S
C885 H897 0.930 . S
C886 C882 1.524 . S
C886 H898 0.956 . S
C886 H899 0.961 . S
C886 H900 0.961 . S
C887 C884 1.539 . S
C887 H901 0.958 . S
C887 H902 0.961 . S
C887 H903 0.960 . S
H888 C872 0.931 . S
H889 C877 0.929 . S
H890 C878 0.960 . S
H891 C878 0.962 . S
H892 C878 0.960 . S
H893 C879 0.961 . S
H894 C879 0.961 . S
H895 C879 0.961 . S
H896 C880 0.931 . S
H897 C885 0.930 . S
H898 C886 0.956 . S
H899 C886 0.961 . S
H900 C886 0.961 . S
H901 C887 0.958 . S
H902 C887 0.961 . S
H903 C887 0.960 . S
C904 C905 1.404 . S
C904 C906 1.394 . S
C904 H920 0.931 . S
C905 C904 1.404 . S
C905 C909 1.364 1_565 S
C906 C904 1.394 . S
C906 C907 1.369 . S
C906 C910 1.531 . S
C907 C906 1.369 . S
C907 C908 1.410 1_565 S
C907 C915 1.503 . S
C908 C907 1.410 1_545 S
C908 C909 1.392 . S
C908 C911 1.511 . S
C909 C905 1.364 1_545 S
C909 C908 1.392 . S
C909 H921 0.929 . S
C910 C906 1.531 . S
C910 H922 0.960 . S
C910 H923 0.962 . S
C910 H924 0.960 . S
C911 C908 1.511 . S
C911 H925 0.961 . S
C911 H926 0.961 . S
C911 H927 0.961 . S
C912 C913 1.370 . S
C912 C914 1.363 . S
C912 H928 0.931 . S
C913 C912 1.370 . S
C913 C917 1.408 1_565 S
C914 C912 1.363 . S
C914 C915 1.370 . S
C914 C918 1.524 . S
C915 C907 1.503 . S
C915 C914 1.370 . S
C915 C916 1.403 1_565 S
C916 C915 1.403 1_545 S
C916 C917 1.404 . S
C916 C919 1.539 . S
C917 C913 1.408 1_545 S
C917 C916 1.404 . S
C917 H929 0.930 . S
C918 C914 1.524 . S
C918 H930 0.956 . S
C918 H931 0.961 . S
C918 H932 0.961 . S
C919 C916 1.539 . S
C919 H933 0.958 . S
C919 H934 0.961 . S
C919 H935 0.960 . S
H920 C904 0.931 . S
H921 C909 0.929 . S
H922 C910 0.960 . S
H923 C910 0.962 . S
H924 C910 0.960 . S
H925 C911 0.961 . S
H926 C911 0.961 . S
H927 C911 0.961 . S
H928 C912 0.931 . S
H929 C917 0.930 . S
H930 C918 0.956 . S
H931 C918 0.961 . S
H932 C918 0.961 . S
H933 C919 0.958 . S
H934 C919 0.961 . S
H935 C919 0.960 . S
C936 C937 1.391 . S
C936 C938 1.394 . S
C936 H952 0.931 . S
C937 C936 1.391 . S
C937 C941 1.376 . S
C938 C936 1.394 . S
C938 C939 1.369 . S
C938 C942 1.531 . S
C939 C938 1.369 . S
C939 C940 1.410 . S
C939 C947 1.503 . S
C940 C939 1.410 . S
C940 C941 1.392 . S
C940 C943 1.511 . S
C941 C937 1.376 . S
C941 C940 1.392 . S
C941 H953 0.929 . S
C942 C938 1.531 . S
C942 H954 0.960 . S
C942 H955 0.962 . S
C942 H956 0.960 . S
C943 C940 1.511 . S
C943 H957 0.961 . S
C943 H958 0.961 . S
C943 H959 0.961 . S
C944 C945 1.370 . S
C944 C946 1.363 . S
C944 H960 0.931 . S
C945 C944 1.370 . S
C945 C949 1.408 . S
C946 C944 1.363 . S
C946 C947 1.370 . S
C946 C950 1.524 . S
C947 C939 1.503 . S
C947 C946 1.370 . S
C947 C948 1.403 . S
C948 C947 1.403 . S
C948 C949 1.404 . S
C948 C951 1.539 . S
C949 C945 1.408 . S
C949 C948 1.404 . S
C949 H961 0.930 . S
C950 C946 1.524 . S
C950 H962 0.956 . S
C950 H963 0.961 . S
C950 H964 0.961 . S
C951 C948 1.539 . S
C951 H965 0.958 . S
C951 H966 0.961 . S
C951 H967 0.960 . S
H952 C936 0.931 . S
H953 C941 0.929 . S
H954 C942 0.960 . S
H955 C942 0.962 . S
H956 C942 0.960 . S
H957 C943 0.961 . S
H958 C943 0.961 . S
H959 C943 0.961 . S
H960 C944 0.931 . S
H961 C949 0.930 . S
H962 C950 0.956 . S
H963 C950 0.961 . S
H964 C950 0.961 . S
H965 C951 0.958 . S
H966 C951 0.961 . S
H967 C951 0.960 . S
C968 C969 1.391 . S
C968 C970 1.394 . S
C968 H984 0.931 . S
C969 C968 1.391 . S
C969 C973 1.376 . S
C970 C968 1.394 . S
C970 C971 1.369 . S
C970 C974 1.531 . S
C971 C970 1.369 . S
C971 C972 1.410 . S
C971 C979 1.503 . S
C972 C971 1.410 . S
C972 C973 1.392 . S
C972 C975 1.511 . S
C973 C969 1.376 . S
C973 C972 1.392 . S
C973 H985 0.929 . S
C974 C970 1.531 . S
C974 H986 0.960 . S
C974 H987 0.962 . S
C974 H988 0.960 . S
C975 C972 1.511 . S
C975 H989 0.961 . S
C975 H990 0.961 . S
C975 H991 0.961 . S
C976 C977 1.370 . S
C976 C978 1.363 . S
C976 H992 0.931 . S
C977 C976 1.370 . S
C977 C981 1.408 . S
C978 C976 1.363 . S
C978 C979 1.370 . S
C978 C982 1.524 . S
C979 C971 1.503 . S
C979 C978 1.370 . S
C979 C980 1.403 . S
C980 C979 1.403 . S
C980 C981 1.404 . S
C980 C983 1.539 . S
C981 C977 1.408 . S
C981 C980 1.404 . S
C981 H993 0.930 . S
C982 C978 1.524 . S
C982 H994 0.956 . S
C982 H995 0.961 . S
C982 H996 0.961 . S
C983 C980 1.539 . S
C983 H997 0.958 . S
C983 H998 0.961 . S
C983 H999 0.960 . S
H984 C968 0.931 . S
H985 C973 0.929 . S
H986 C974 0.960 . S
H987 C974 0.962 . S
H988 C974 0.960 . S
H989 C975 0.961 . S
H990 C975 0.961 . S
H991 C975 0.961 . S
H992 C976 0.931 . S
H993 C981 0.930 . S
H994 C982 0.956 . S
H995 C982 0.961 . S
H996 C982 0.961 . S
H997 C983 0.958 . S
H998 C983 0.961 . S
H999 C983 0.960 . S
C233 C61 1.747 . S
C241 C81 1.919 1_545 S
C273 C121 1.946 . S
C265 C70 1.811 . S
C305 C161 1.955 . S
C297 C43 1.811 . S
C337 C201 1.935 1_455 S
C329 C52 1.828 . S
C369 C90 1.924 1_565 S
C361 C25 1.817 1_545 S
C393 C34 1.802 . S
C401 C130 1.941 . S
C425 C7 1.798 . S
C433 C170 1.954 . S
C457 C16 1.802 . S
C465 C210 1.939 1_655 S
C497 C87 0.555 . S
C489 C50 0.444 1_455 S
C529 C127 0.525 . S
C521 C59 0.433 1_545 S
C561 C167 0.529 . S
C553 C67 0.516 . S
C585 C41 0.535 . S
C593 C207 0.512 . S
C617 C14 0.547 . S
C625 C78 0.494 . S
C657 C118 0.481 . S
C649 C23 0.550 . S
C689 C158 0.496 . S
C681 C31 0.544 . S
C713 C5 0.416 . S
C721 C198 0.555 . S
C745 C49 2.065 1_455 S
C753 C91 2.259 . S
C777 C58 2.023 1_545 S
C785 C131 2.216 . S
C817 C171 2.191 . S
C809 C68 1.982 . S
C849 C211 2.242 . S
C841 C40 1.976 . S
C873 C13 2.051 . S
C881 C82 2.260 . S
C913 C122 2.208 . S
C905 C22 2.010 . S
C945 C162 2.202 . S
C937 C32 1.943 . S
C969 C4 1.975 . S
C977 C202 2.239 . S
