# Generated by pormake.
# Topology pto, (3,4)-cn, num edge types: 1
# Building blocks:
#     Node 0, Type 0, BuildingBlock: OLANEW_clean_sbu_2, # of connection points: 3
#     Node 1, Type 0, BuildingBlock: OLANEW_clean_sbu_2, # of connection points: 3
#     Node 2, Type 0, BuildingBlock: OLANEW_clean_sbu_2, # of connection points: 3
#     Node 3, Type 0, BuildingBlock: OLANEW_clean_sbu_2, # of connection points: 3
#     Node 4, Type 0, BuildingBlock: OLANEW_clean_sbu_2, # of connection points: 3
#     Node 5, Type 0, BuildingBlock: OLANEW_clean_sbu_2, # of connection points: 3
#     Node 6, Type 0, BuildingBlock: OLANEW_clean_sbu_2, # of connection points: 3
#     Node 7, Type 0, BuildingBlock: OLANEW_clean_sbu_2, # of connection points: 3
#     Node 8, Type 1, BuildingBlock: NAHDIM_clean_linker_0, # of connection points: 4
#     Node 9, Type 1, BuildingBlock: NAHDIM_clean_linker_0, # of connection points: 4
#     Node 10, Type 1, BuildingBlock: NAHDIM_clean_linker_0, # of connection points: 4
#     Node 11, Type 1, BuildingBlock: NAHDIM_clean_linker_0, # of connection points: 4
#     Node 12, Type 1, BuildingBlock: NAHDIM_clean_linker_0, # of connection points: 4
#     Node 13, Type 1, BuildingBlock: NAHDIM_clean_linker_0, # of connection points: 4
#     Edge 14, Type (0, 1), BuildingBlock: TEMPAE_clean_linker_10, # of connection points: 2
#     Edge 15, Type (0, 1), BuildingBlock: TEMPAE_clean_linker_10, # of connection points: 2
#     Edge 16, Type (0, 1), BuildingBlock: TEMPAE_clean_linker_10, # of connection points: 2
#     Edge 17, Type (0, 1), BuildingBlock: TEMPAE_clean_linker_10, # of connection points: 2
#     Edge 18, Type (0, 1), BuildingBlock: TEMPAE_clean_linker_10, # of connection points: 2
#     Edge 19, Type (0, 1), BuildingBlock: TEMPAE_clean_linker_10, # of connection points: 2
#     Edge 20, Type (0, 1), BuildingBlock: TEMPAE_clean_linker_10, # of connection points: 2
#     Edge 21, Type (0, 1), BuildingBlock: TEMPAE_clean_linker_10, # of connection points: 2
#     Edge 22, Type (0, 1), BuildingBlock: TEMPAE_clean_linker_10, # of connection points: 2
#     Edge 23, Type (0, 1), BuildingBlock: TEMPAE_clean_linker_10, # of connection points: 2
#     Edge 24, Type (0, 1), BuildingBlock: TEMPAE_clean_linker_10, # of connection points: 2
#     Edge 25, Type (0, 1), BuildingBlock: TEMPAE_clean_linker_10, # of connection points: 2
#     Edge 26, Type (0, 1), BuildingBlock: TEMPAE_clean_linker_10, # of connection points: 2
#     Edge 27, Type (0, 1), BuildingBlock: TEMPAE_clean_linker_10, # of connection points: 2
#     Edge 28, Type (0, 1), BuildingBlock: TEMPAE_clean_linker_10, # of connection points: 2
#     Edge 29, Type (0, 1), BuildingBlock: TEMPAE_clean_linker_10, # of connection points: 2
#     Edge 30, Type (0, 1), BuildingBlock: TEMPAE_clean_linker_10, # of connection points: 2
#     Edge 31, Type (0, 1), BuildingBlock: TEMPAE_clean_linker_10, # of connection points: 2
#     Edge 32, Type (0, 1), BuildingBlock: TEMPAE_clean_linker_10, # of connection points: 2
#     Edge 33, Type (0, 1), BuildingBlock: TEMPAE_clean_linker_10, # of connection points: 2
#     Edge 34, Type (0, 1), BuildingBlock: TEMPAE_clean_linker_10, # of connection points: 2
#     Edge 35, Type (0, 1), BuildingBlock: TEMPAE_clean_linker_10, # of connection points: 2
#     Edge 36, Type (0, 1), BuildingBlock: TEMPAE_clean_linker_10, # of connection points: 2
#     Edge 37, Type (0, 1), BuildingBlock: TEMPAE_clean_linker_10, # of connection points: 2
# Relax obj value: 0.012
# Max RMSD: 0.133
# Mean RMSD: 0.069
data_MOF--net-pto--node1-OLANEW_clean_sbu_2--node2-NAHDIM_clean_linker_0--edge1-TEMPAE_clean_linker_10
_symmetry_space_group_name_H-M    P1
_symmetry_Int_Tables_number       1
_symmetry_cell_setting            triclinic
loop_
_symmetry_equiv_pos_as_xyz
'x, y, z'
_cell_length_a     61.57278
_cell_length_b     61.048446
_cell_length_c     56.843708
_cell_angle_alpha  92.570059
_cell_angle_beta   90.979509
_cell_angle_gamma 102.88315
loop_
_atom_site_label
_atom_site_type_symbol
_atom_site_fract_x
_atom_site_fract_y
_atom_site_fract_z
_atom_type_partial_charge
O0 O 0.30626 0.37652 0.25311 0.0
Cd1 Cd 0.27334 0.36487 0.2769 0.0
O2 O 0.32417 0.40052 0.28069 0.0
Cd3 Cd 0.29273 0.40154 0.29706 0.0
O4 O 0.26244 0.41277 0.28886 0.0
C5 C 0.2656 0.42933 0.27558 0.0
O6 O 0.28605 0.43818 0.26945 0.0
C7 C 0.32409 0.38988 0.26092 0.0
C8 C 0.28452 0.33876 0.31231 0.0
O9 O 0.27645 0.32972 0.29233 0.0
O10 O 0.28665 0.36002 0.31575 0.0
O11 O 0.30163 0.91965 0.82999 0.0
Cd12 Cd 0.27891 0.93813 0.80551 0.0
O13 O 0.27711 0.88894 0.81912 0.0
Cd14 Cd 0.26249 0.85279 0.81657 0.0
O15 O 0.24382 0.81795 0.81686 0.0
C16 C 0.22386 0.81288 0.8088 0.0
O17 O 0.21522 0.82873 0.80011 0.0
C18 C 0.29472 0.8985 0.83085 0.0
C19 C 0.30221 0.95682 0.76709 0.0
O20 O 0.30075 0.96895 0.78574 0.0
O21 O 0.29261 0.93589 0.76661 0.0
O22 O 0.78934 0.76756 0.27456 0.0
Cd23 Cd 0.78135 0.74623 0.23664 0.0
O24 O 0.75533 0.77307 0.27733 0.0
Cd25 Cd 0.74234 0.75556 0.24404 0.0
O26 O 0.72188 0.75367 0.21202 0.0
C27 C 0.7303 0.76448 0.19456 0.0
O28 O 0.75145 0.77484 0.19583 0.0
C29 C 0.77511 0.77595 0.28567 0.0
C30 C 0.80633 0.71351 0.23011 0.0
O31 O 0.81434 0.73403 0.22539 0.0
O32 O 0.78657 0.7085 0.23808 0.0
O33 O 0.78056 0.3217 0.67513 0.0
Cd34 Cd 0.75446 0.29897 0.64592 0.0
O35 O 0.75356 0.31693 0.70032 0.0
Cd36 Cd 0.73891 0.32156 0.7345 0.0
O37 O 0.72352 0.3323 0.76599 0.0
C38 C 0.71699 0.3506 0.76537 0.0
O39 O 0.71991 0.3619 0.7461 0.0
C40 C 0.77355 0.32589 0.69536 0.0
C41 C 0.75481 0.25335 0.6432 0.0
O42 O 0.76729 0.2672 0.63013 0.0
O43 O 0.74251 0.26119 0.65786 0.0
O44 O 0.74469 0.7369 0.66914 0.0
Cd45 Cd 0.73441 0.69946 0.68477 0.0
O46 O 0.73064 0.74731 0.7017 0.0
Cd47 Cd 0.71846 0.76971 0.72684 0.0
O48 O 0.70354 0.78548 0.75574 0.0
C49 C 0.68263 0.77955 0.75846 0.0
O50 O 0.67058 0.76456 0.7434 0.0
C51 C 0.74 0.75248 0.68231 0.0
C52 C 0.7704 0.68541 0.70466 0.0
O53 O 0.76323 0.67875 0.68366 0.0
O54 O 0.7607 0.69886 0.71617 0.0
O55 O 0.80731 0.28177 0.2488 0.0
Cd56 Cd 0.77071 0.26465 0.26405 0.0
O57 O 0.80769 0.31461 0.26658 0.0
Cd58 Cd 0.77249 0.30531 0.27454 0.0
O59 O 0.74051 0.30787 0.25925 0.0
C60 C 0.73838 0.30418 0.23705 0.0
O61 O 0.75455 0.29785 0.22569 0.0
C62 C 0.81736 0.30201 0.25412 0.0
C63 C 0.76923 0.22501 0.28742 0.0
O64 O 0.76444 0.22448 0.26533 0.0
O65 O 0.77506 0.24431 0.29839 0.0
O66 O 0.29989 0.41976 0.79749 0.0
Cd67 Cd 0.2715 0.40689 0.76628 0.0
O68 O 0.32627 0.4085 0.77788 0.0
Cd69 Cd 0.30503 0.39119 0.74854 0.0
O70 O 0.29499 0.36108 0.72519 0.0
C71 C 0.30909 0.35631 0.71088 0.0
O72 O 0.32847 0.37048 0.70952 0.0
C73 C 0.32006 0.41811 0.79606 0.0
C74 C 0.23065 0.41584 0.77921 0.0
O75 O 0.23589 0.39737 0.78417 0.0
O76 O 0.2447 0.43007 0.768 0.0
O77 O 0.31613 0.89211 0.24876 0.0
Cd78 Cd 0.2903 0.90577 0.27471 0.0
O79 O 0.28825 0.86694 0.23265 0.0
Cd80 Cd 0.27252 0.83645 0.21179 0.0
O81 O 0.24945 0.80429 0.20316 0.0
C82 C 0.25323 0.7866 0.21175 0.0
O83 O 0.27156 0.78809 0.2245 0.0
C84 C 0.30903 0.87561 0.23413 0.0
C85 C 0.31364 0.93411 0.3109 0.0
O86 O 0.30915 0.91269 0.31235 0.0
O87 O 0.30689 0.94219 0.29242 0.0
C88 C 0.9477 0.36388 0.13758 0.0
C89 C 0.9472 0.37881 0.1598 0.0
C90 C 0.95487 0.41964 0.16336 0.0
C91 C 0.95919 0.42277 0.18772 0.0
C92 C 0.97229 0.44308 0.19742 0.0
C93 C 0.98176 0.46033 0.18233 0.0
C94 C 0.97646 0.45753 0.15784 0.0
C95 C 0.96259 0.43735 0.1488 0.0
C96 C 0.97685 0.44563 0.22368 0.0
C97 C 0.98654 0.47517 0.14095 0.0
C98 C 0.15249 0.45063 0.22326 0.0
C99 C 0.13216 0.45432 0.21106 0.0
C100 C 0.09892 0.46851 0.21997 0.0
C101 C 0.0933 0.47129 0.19636 0.0
C102 C 0.07413 0.47898 0.1906 0.0
C103 C 0.06022 0.48377 0.20876 0.0
C104 C 0.06584 0.48102 0.23252 0.0
C105 C 0.08524 0.47356 0.23779 0.0
C106 C 0.06867 0.4819 0.16511 0.0
C107 C 0.05122 0.48573 0.25229 0.0
C108 C 0.09447 0.63176 0.21418 0.0
C109 C 0.08689 0.6223 0.19177 0.0
C110 C 0.06635 0.60681 0.18877 0.0
C111 C 0.05321 0.60062 0.20861 0.0
C112 C 0.06029 0.61103 0.23102 0.0
C113 C 0.08079 0.62671 0.23346 0.0
C114 C 0.05895 0.59661 0.16447 0.0
C115 C 0.04657 0.60497 0.25249 0.0
C116 C 0.87607 0.57002 0.19497 0.0
C117 C 0.89187 0.59069 0.20679 0.0
C118 C 0.9302 0.59042 0.19543 0.0
C119 C 0.9423 0.58866 0.17511 0.0
C120 C 0.96267 0.58195 0.17607 0.0
C121 C 0.97122 0.5771 0.19801 0.0
C122 C 0.95937 0.57937 0.21874 0.0
C123 C 0.93907 0.58616 0.21728 0.0
C124 C 0.97508 0.58003 0.15369 0.0
C125 C 0.96831 0.57485 0.2425 0.0
C126 C 2e-05 0.47922 0.1914 0.0
C127 C 0.0206 0.47408 0.19624 0.0
C128 C 0.03931 0.49084 0.20291 0.0
C129 C 0.03785 0.5136 0.204 0.0
C130 C 0.05674 0.53098 0.20912 0.0
C131 C 0.05522 0.55337 0.2098 0.0
C132 C 0.03467 0.55922 0.20576 0.0
C133 C 0.03305 0.58197 0.20611 0.0
C134 C 0.01224 0.58722 0.20324 0.0
C135 C 0.99287 0.57027 0.1995 0.0
C136 C 0.99431 0.54742 0.19785 0.0
C137 C 0.97537 0.52994 0.19302 0.0
C138 C 0.97713 0.50755 0.19094 0.0
C139 C 0.99783 0.5018 0.19398 0.0
C140 C 0.01697 0.51909 0.19977 0.0
C141 C 0.0153 0.54192 0.20116 0.0
C142 C 0.14343 0.62586 0.22431 0.0
C143 C 0.13457 0.642 0.20881 0.0
O144 O 0.94396 0.39951 0.15335 0.0
O145 O 0.91056 0.59697 0.19322 0.0
O146 O 0.11482 0.64582 0.21773 0.0
O147 O 0.11727 0.46102 0.2263 0.0
H148 H 0.96381 0.381 0.16888 0.0
H149 H 0.96154 0.37193 0.12637 0.0
H150 H 0.93179 0.36135 0.12721 0.0
H151 H 0.95046 0.34723 0.14232 0.0
H152 H 0.95263 0.40924 0.19912 0.0
H153 H 0.95886 0.43478 0.13004 0.0
H154 H 0.99347 0.44221 0.22761 0.0
H155 H 0.96423 0.43366 0.23329 0.0
H156 H 0.97704 0.46305 0.23038 0.0
H157 H 0.98265 0.4693 0.12226 0.0
H158 H 0.00493 0.47998 0.14361 0.0
H159 H 0.97999 0.4905 0.14435 0.0
H160 H 0.12395 0.44064 0.19804 0.0
H161 H 0.17816 0.47557 0.21061 0.0
H162 H 0.15174 0.43212 0.22018 0.0
H163 H 0.14866 0.4494 0.24254 0.0
H164 H 0.10376 0.46748 0.18235 0.0
H165 H 0.08973 0.4714 0.25592 0.0
H166 H 0.05305 0.46964 0.15956 0.0
H167 H 0.08214 0.47932 0.15326 0.0
H168 H 0.06579 0.49903 0.16296 0.0
H169 H 0.05739 0.48175 0.26972 0.0
H170 H 0.03395 0.47567 0.24906 0.0
H171 H 0.05052 0.50375 0.25288 0.0
H172 H 0.13173 0.6341 0.1907 0.0
H173 H 0.0969 0.62702 0.17657 0.0
H174 H 0.08664 0.63445 0.25061 0.0
H175 H 0.05957 0.57856 0.16367 0.0
H176 H 0.06967 0.60511 0.15053 0.0
H177 H 0.04144 0.59757 0.16068 0.0
H178 H 0.05439 0.6146 0.26868 0.0
H179 H 0.04437 0.58671 0.25522 0.0
H180 H 0.02974 0.60831 0.24969 0.0
H181 H 0.8963 0.58568 0.22443 0.0
H182 H 0.86063 0.5653 0.20519 0.0
H183 H 0.88432 0.55558 0.19431 0.0
H184 H 0.87152 0.57325 0.17666 0.0
H185 H 0.93558 0.59236 0.15838 0.0
H186 H 0.93067 0.58862 0.23339 0.0
H187 H 0.97754 0.56262 0.15099 0.0
H188 H 0.99184 0.59151 0.15524 0.0
H189 H 0.96612 0.58423 0.13798 0.0
H190 H 0.95691 0.57693 0.25695 0.0
H191 H 0.98471 0.58652 0.24634 0.0
H192 H 0.97099 0.55744 0.24226 0.0
H193 H 0.02215 0.45671 0.19458 0.0
H194 H 0.07298 0.52747 0.21237 0.0
H195 H 0.07037 0.56602 0.21366 0.0
H196 H 0.01108 0.60471 0.20394 0.0
H197 H 0.95902 0.53342 0.19048 0.0
H198 H 0.96208 0.49476 0.18699 0.0
H199 H 0.15939 0.62287 0.2175 0.0
H200 H 0.13122 0.60943 0.22417 0.0
H201 H 0.1462 0.63284 0.24278 0.0
C202 C 0.07462 0.42259 0.85001 0.0
C203 C 0.08112 0.4399 0.83126 0.0
C204 C 0.06727 0.47422 0.83363 0.0
C205 C 0.06353 0.4769 0.80964 0.0
C206 C 0.04828 0.48941 0.80237 0.0
C207 C 0.03642 0.49922 0.81949 0.0
C208 C 0.04081 0.49718 0.84374 0.0
C209 C 0.05655 0.48503 0.85048 0.0
C210 C 0.04446 0.4917 0.7764 0.0
C211 C 0.02832 0.50713 0.86252 0.0
C212 C 0.87091 0.40744 0.76922 0.0
C213 C 0.88877 0.42343 0.78312 0.0
C214 C 0.92067 0.45444 0.77685 0.0
C215 C 0.92492 0.461 0.80082 0.0
C216 C 0.94373 0.47774 0.80801 0.0
C217 C 0.95863 0.48796 0.79095 0.0
C218 C 0.95418 0.48166 0.76679 0.0
C219 C 0.93511 0.46509 0.76008 0.0
C220 C 0.94788 0.48431 0.83389 0.0
C221 C 0.96978 0.49211 0.74814 0.0
C222 C 0.93013 0.624 0.78299 0.0
C223 C 0.93247 0.6161 0.80553 0.0
C224 C 0.9517 0.60884 0.81207 0.0
C225 C 0.96868 0.60897 0.79555 0.0
C226 C 0.96674 0.61777 0.77319 0.0
C227 C 0.94759 0.62548 0.76736 0.0
C228 C 0.95362 0.60054 0.83647 0.0
C229 C 0.98459 0.6184 0.7552 0.0
C230 C 0.1453 0.64616 0.84866 0.0
C231 C 0.13128 0.65673 0.83195 0.0
C232 C 0.09057 0.64604 0.83464 0.0
C233 C 0.07443 0.63929 0.8514 0.0
C234 C 0.05322 0.62636 0.84476 0.0
C235 C 0.04804 0.62029 0.82068 0.0
C236 C 0.06384 0.62822 0.80347 0.0
C237 C 0.08493 0.64117 0.81062 0.0
C238 C 0.0366 0.61856 0.86351 0.0
C239 C 0.05858 0.62254 0.7776 0.0
C240 C 0.01816 0.50992 0.81202 0.0
C241 C 0.99774 0.49571 0.80518 0.0
C242 C 0.97952 0.50432 0.79843 0.0
C243 C 0.98148 0.52785 0.79876 0.0
C244 C 0.96338 0.53708 0.79242 0.0
C245 C 0.96546 0.56027 0.79293 0.0
C246 C 0.98567 0.57513 0.80005 0.0
C247 C 0.9878 0.59875 0.80118 0.0
C248 C 0.00826 0.61302 0.80795 0.0
C249 C 0.02676 0.60434 0.81365 0.0
C250 C 0.02488 0.58079 0.81288 0.0
C251 C 0.04315 0.5715 0.81865 0.0
C252 C 0.04106 0.54832 0.8182 0.0
C253 C 0.02062 0.53351 0.81202 0.0
C254 C 0.00211 0.54249 0.80563 0.0
C255 C 0.00423 0.56616 0.80617 0.0
C256 C 0.88299 0.59573 0.77511 0.0
C257 C 0.8897 0.62092 0.78246 0.0
O258 O 0.0809 0.46109 0.841 0.0
O259 O 0.11119 0.65736 0.84235 0.0
O260 O 0.91124 0.62993 0.77552 0.0
O261 O 0.90303 0.43791 0.76917 0.0
H262 H 0.06836 0.43499 0.81669 0.0
H263 H 0.05757 0.42265 0.85606 0.0
H264 H 0.08636 0.42658 0.86547 0.0
H265 H 0.07467 0.40544 0.8426 0.0
H266 H 0.07244 0.46911 0.79662 0.0
H267 H 0.05982 0.48305 0.86897 0.0
H268 H 0.02782 0.48135 0.7708 0.0
H269 H 0.05724 0.48606 0.76558 0.0
H270 H 0.04461 0.50947 0.77279 0.0
H271 H 0.03249 0.50259 0.88049 0.0
H272 H 0.01007 0.50124 0.8592 0.0
H273 H 0.03241 0.52574 0.86194 0.0
H274 H 0.89769 0.41566 0.79656 0.0
H275 H 0.84165 0.41664 0.77985 0.0
H276 H 0.87423 0.39036 0.77219 0.0
H277 H 0.87625 0.4077 0.75035 0.0
H278 H 0.91368 0.4531 0.81397 0.0
H279 H 0.93161 0.46 0.74163 0.0
H280 H 0.9507 0.50286 0.83672 0.0
H281 H 0.96318 0.4793 0.84009 0.0
H282 H 0.93377 0.47622 0.84476 0.0
H283 H 0.96423 0.48494 0.73016 0.0
H284 H 0.98677 0.48952 0.75184 0.0
H285 H 0.97093 0.51053 0.74855 0.0
H286 H 0.88879 0.62316 0.80191 0.0
H287 H 0.91936 0.61547 0.81806 0.0
H288 H 0.94575 0.63189 0.75013 0.0
H289 H 0.95103 0.58194 0.83538 0.0
H290 H 0.94107 0.60513 0.84842 0.0
H291 H 0.97053 0.60756 0.84429 0.0
H292 H 0.9799 0.62442 0.73809 0.0
H293 H 0.98791 0.60136 0.75218 0.0
H294 H 0.00032 0.62977 0.76199 0.0
H295 H 0.12869 0.64583 0.81548 0.0
H296 H 0.16157 0.64558 0.84075 0.0
H297 H 0.13639 0.62867 0.85188 0.0
H298 H 0.14838 0.65589 0.86584 0.0
H299 H 0.07878 0.64359 0.86985 0.0
H300 H 0.09689 0.64743 0.79741 0.0
H301 H 0.03321 0.59994 0.86394 0.0
H302 H 0.02058 0.62318 0.85925 0.0
H303 H 0.04265 0.62593 0.88129 0.0
H304 H 0.07235 0.63067 0.76633 0.0
H305 H 0.04319 0.62797 0.77242 0.0
H306 H 0.05537 0.60403 0.77419 0.0
H307 H 0.996 0.47761 0.80513 0.0
H308 H 0.94737 0.52647 0.78702 0.0
H309 H 0.95096 0.56637 0.78776 0.0
H310 H 0.00979 0.63109 0.80883 0.0
H311 H 0.05929 0.58205 0.82368 0.0
H312 H 0.05566 0.54213 0.82284 0.0
H313 H 0.86568 0.58841 0.78036 0.0
H314 H 0.89413 0.5864 0.78388 0.0
H315 H 0.88408 0.59318 0.75572 0.0
C316 C 0.2642 0.1842 0.6591 0.0
C317 C 0.28646 0.19531 0.64868 0.0
C318 C 0.29884 0.18052 0.6119 0.0
C319 C 0.32182 0.18454 0.61699 0.0
C320 C 0.33543 0.1731 0.60396 0.0
C321 C 0.32578 0.15723 0.58566 0.0
C322 C 0.30264 0.15345 0.58033 0.0
C323 C 0.28958 0.16554 0.59326 0.0
C324 C 0.36008 0.17788 0.6098 0.0
C325 C 0.29156 0.13635 0.56131 0.0
C326 C 0.39793 0.0115 0.61477 0.0
C327 C 0.38384 0.02653 0.62619 0.0
C328 C 0.36602 0.05057 0.60179 0.0
C329 C 0.34555 0.05093 0.59106 0.0
C330 C 0.34158 0.07058 0.58175 0.0
C331 C 0.35864 0.09043 0.58319 0.0
C332 C 0.37938 0.09034 0.59426 0.0
C333 C 0.38299 0.07032 0.6032 0.0
C334 C 0.31934 0.07 0.56985 0.0
C335 C 0.39794 0.11123 0.59593 0.0
C336 C 0.40368 0.07241 0.44176 0.0
C337 C 0.3806 0.06905 0.4447 0.0
C338 C 0.37131 0.08635 0.45422 0.0
C339 C 0.38547 0.10728 0.46145 0.0
C340 C 0.40855 0.11114 0.45717 0.0
C341 C 0.41732 0.09368 0.44703 0.0
C342 C 0.34646 0.08191 0.45749 0.0
C343 C 0.42408 0.13334 0.46433 0.0
C344 C 0.35575 0.26745 0.4545 0.0
C345 C 0.35268 0.25345 0.43109 0.0
C346 C 0.34621 0.2144 0.4436 0.0
C347 C 0.33008 0.19446 0.44522 0.0
C348 C 0.33516 0.17572 0.45559 0.0
C349 C 0.35695 0.17711 0.46477 0.0
C350 C 0.37353 0.19704 0.46275 0.0
C351 C 0.36805 0.21547 0.4521 0.0
C352 C 0.31715 0.1546 0.45714 0.0
C353 C 0.39695 0.19898 0.47229 0.0
C354 C 0.3396 0.14391 0.57265 0.0
C355 C 0.34443 0.12533 0.58344 0.0
C356 C 0.35535 0.11068 0.57138 0.0
C357 C 0.36158 0.11446 0.54783 0.0
C358 C 0.37209 0.09971 0.53503 0.0
C359 C 0.37738 0.10305 0.51161 0.0
C360 C 0.37219 0.12116 0.49997 0.0
C361 C 0.37648 0.12401 0.47579 0.0
C362 C 0.37146 0.1424 0.46484 0.0
C363 C 0.36212 0.15808 0.47744 0.0
C364 C 0.35738 0.15531 0.50154 0.0
C365 C 0.34776 0.17062 0.51468 0.0
C366 C 0.34225 0.16715 0.53808 0.0
C367 C 0.34623 0.14829 0.54929 0.0
C368 C 0.35687 0.13325 0.53671 0.0
C369 C 0.36227 0.13666 0.51276 0.0
C370 C 0.42657 0.02349 0.4455 0.0
C371 C 0.40622 0.03317 0.44027 0.0
O372 O 0.28516 0.19089 0.6245 0.0
O373 O 0.3398 0.23209 0.43405 0.0
O374 O 0.41329 0.05541 0.43446 0.0
O375 O 0.36875 0.03057 0.60945 0.0
H376 H 0.29938 0.18766 0.65692 0.0
H377 H 0.26059 0.16575 0.65503 0.0
H378 H 0.25043 0.19099 0.65155 0.0
H379 H 0.26485 0.18717 0.67855 0.0
H380 H 0.32913 0.19673 0.63097 0.0
H381 H 0.27185 0.16278 0.58936 0.0
H382 H 0.36425 0.16286 0.61744 0.0
H383 H 0.36541 0.19246 0.62262 0.0
H384 H 0.36973 0.18128 0.59352 0.0
H385 H 0.27309 0.13328 0.56157 0.0
H386 H 0.29653 0.12012 0.56337 0.0
H387 H 0.29702 0.14244 0.5438 0.0
H388 H 0.39522 0.04234 0.63306 0.0
H389 H 0.41061 0.00837 0.62757 0.0
H390 H 0.40677 0.0199 0.5996 0.0
H391 H 0.3872 0.99511 0.60832 0.0
H392 H 0.33266 0.03556 0.58983 0.0
H393 H 0.39928 0.07022 0.61052 0.0
H394 H 0.32183 0.07457 0.55124 0.0
H395 H 0.31135 0.08261 0.57875 0.0
H396 H 0.30783 0.05318 0.57015 0.0
H397 H 0.41225 0.10909 0.60707 0.0
H398 H 0.39166 0.12571 0.60333 0.0
H399 H 0.40394 0.11539 0.57801 0.0
H400 H 0.39683 0.0323 0.45694 0.0
H401 H 0.36984 0.05285 0.43986 0.0
H402 H 0.43506 0.0962 0.44429 0.0
H403 H 0.34289 0.07923 0.47635 0.0
H404 H 0.33744 0.06674 0.44695 0.0
H405 H 0.33986 0.0966 0.45242 0.0
H406 H 0.44166 0.13358 0.46002 0.0
H407 H 0.42316 0.13686 0.48358 0.0
H408 H 0.41881 0.14709 0.45523 0.0
H409 H 0.36932 0.25218 0.42458 0.0
H410 H 0.36558 0.28474 0.45188 0.0
H411 H 0.36486 0.25979 0.46771 0.0
H412 H 0.33936 0.26851 0.46176 0.0
H413 H 0.31333 0.19371 0.43851 0.0
H414 H 0.38086 0.23065 0.45082 0.0
H415 H 0.31312 0.15181 0.47589 0.0
H416 H 0.32313 0.13981 0.45006 0.0
H417 H 0.30165 0.15552 0.44732 0.0
H418 H 0.4079 0.21576 0.46968 0.0
H419 H 0.40434 0.1859 0.46342 0.0
H420 H 0.39657 0.19596 0.49141 0.0
H421 H 0.33904 0.12186 0.60124 0.0
H422 H 0.3762 0.08527 0.54287 0.0
H423 H 0.38542 0.09108 0.50272 0.0
H424 H 0.37466 0.14442 0.44627 0.0
H425 H 0.34411 0.18532 0.50694 0.0
H426 H 0.33465 0.17933 0.54725 0.0
H427 H 0.43766 0.02471 0.43017 0.0
H428 H 0.42124 0.00557 0.44991 0.0
H429 H 0.43627 0.03303 0.4608 0.0
C430 C 0.44683 0.82124 0.16433 0.0
C431 C 0.43391 0.83099 0.14569 0.0
C432 C 0.44308 0.81607 0.10773 0.0
C433 C 0.45332 0.83597 0.09718 0.0
C434 C 0.46891 0.83574 0.07952 0.0
C435 C 0.47405 0.81512 0.07197 0.0
C436 C 0.46283 0.79487 0.08166 0.0
C437 C 0.44732 0.7956 0.09936 0.0
C438 C 0.48024 0.85762 0.06926 0.0
C439 C 0.46763 0.77258 0.07366 0.0
C440 C 0.65249 0.83262 0.05789 0.0
C441 C 0.63568 0.81561 0.07119 0.0
C442 C 0.59875 0.8239 0.07518 0.0
C443 C 0.58536 0.80292 0.06768 0.0
C444 C 0.5632 0.80102 0.06001 0.0
C445 C 0.5543 0.82049 0.05996 0.0
C446 C 0.5674 0.84142 0.06871 0.0
C447 C 0.58946 0.84278 0.07643 0.0
C448 C 0.54942 0.77832 0.05149 0.0
C449 C 0.55832 0.86243 0.06923 0.0
C450 C 0.57702 0.83962 0.90976 0.0
C451 C 0.56741 0.81719 0.91434 0.0
C452 C 0.54757 0.81175 0.92677 0.0
C453 C 0.53729 0.82914 0.93486 0.0
C454 C 0.54633 0.8516 0.92911 0.0
C455 C 0.56599 0.8565 0.91635 0.0
C456 C 0.53796 0.78753 0.93194 0.0
C457 C 0.5357 0.87052 0.93724 0.0
C458 C 0.35315 0.78517 0.93639 0.0
C459 C 0.37212 0.80515 0.93144 0.0
C460 C 0.41102 0.80285 0.92815 0.0
C461 C 0.42348 0.78638 0.92659 0.0
C462 C 0.44557 0.7908 0.93526 0.0
C463 C 0.45556 0.8125 0.9451 0.0
C464 C 0.44346 0.8297 0.94528 0.0
C465 C 0.4212 0.82464 0.93697 0.0
C466 C 0.45803 0.77212 0.9345 0.0
C467 C 0.45389 0.85327 0.9547 0.0
C468 C 0.49207 0.8151 0.05495 0.0
C469 C 0.51365 0.81674 0.06408 0.0
C470 C 0.53184 0.81918 0.0493 0.0
C471 C 0.52861 0.82052 0.02477 0.0
C472 C 0.54672 0.82435 0.00959 0.0
C473 C 0.54341 0.82579 0.98552 0.0
C474 C 0.52183 0.82301 0.97557 0.0
C475 C 0.51831 0.82419 0.95105 0.0
C476 C 0.49662 0.82099 0.94168 0.0
C477 C 0.4782 0.81677 0.95624 0.0
C478 C 0.48143 0.81602 0.9809 0.0
C479 C 0.46334 0.81223 0.99616 0.0
C480 C 0.46676 0.81206 0.02043 0.0
C481 C 0.48835 0.81503 0.03032 0.0
C482 C 0.50675 0.81812 0.01522 0.0
C483 C 0.50333 0.81904 0.99054 0.0
C484 C 0.63381 0.85567 0.9151 0.0
C485 C 0.61548 0.83697 0.90359 0.0
O486 O 0.42924 0.81619 0.12607 0.0
O487 O 0.38924 0.79714 0.92108 0.0
O488 O 0.59685 0.84553 0.89902 0.0
O489 O 0.62053 0.82652 0.08165 0.0
H490 H 0.44493 0.84721 0.14116 0.0
H491 H 0.46327 0.81982 0.15745 0.0
H492 H 0.43767 0.80421 0.16886 0.0
H493 H 0.44978 0.83245 0.18056 0.0
H494 H 0.44921 0.85171 0.10275 0.0
H495 H 0.439 0.78028 0.10731 0.0
H496 H 0.49856 0.8605 0.07214 0.0
H497 H 0.47452 0.87226 0.07718 0.0
H498 H 0.47687 0.85669 0.04995 0.0
H499 H 0.45637 0.75819 0.08166 0.0
H500 H 0.48512 0.77241 0.07855 0.0
H501 H 0.46582 0.7703 0.05418 0.0
H502 H 0.62729 0.8023 0.05796 0.0
H503 H 0.66481 0.82428 0.04931 0.0
H504 H 0.66147 0.84659 0.07006 0.0
H505 H 0.64366 0.8398 0.044 0.0
H506 H 0.5921 0.78799 0.06788 0.0
H507 H 0.59981 0.8588 0.08277 0.0
H508 H 0.53319 0.77483 0.06042 0.0
H509 H 0.55801 0.76451 0.0547 0.0
H510 H 0.54583 0.7784 0.03229 0.0
H511 H 0.57069 0.87744 0.07648 0.0
H512 H 0.54326 0.85999 0.08014 0.0
H513 H 0.5532 0.86569 0.05112 0.0
H514 H 0.61172 0.82345 0.91641 0.0
H515 H 0.57545 0.80396 0.90831 0.0
H516 H 0.57336 0.8737 0.91229 0.0
H517 H 0.5399 0.7853 0.95107 0.0
H518 H 0.54633 0.77577 0.92208 0.0
H519 H 0.51986 0.783 0.92735 0.0
H520 H 0.54468 0.88705 0.93112 0.0
H521 H 0.53544 0.87155 0.95679 0.0
H522 H 0.51815 0.86709 0.93058 0.0
H523 H 0.37782 0.8139 0.94883 0.0
H524 H 0.33926 0.79111 0.94493 0.0
H525 H 0.35926 0.77392 0.94847 0.0
H526 H 0.34676 0.77534 0.91981 0.0
H527 H 0.41553 0.76974 0.91936 0.0
H528 H 0.41178 0.83767 0.93736 0.0
H529 H 0.46413 0.76971 0.95249 0.0
H530 H 0.47282 0.77678 0.92335 0.0
H531 H 0.44753 0.75591 0.92731 0.0
H532 H 0.44345 0.86536 0.95059 0.0
H533 H 0.47061 0.85912 0.94721 0.0
H534 H 0.45615 0.85334 0.97411 0.0
H535 H 0.51637 0.81648 0.08297 0.0
H536 H 0.56371 0.82651 0.01616 0.0
H537 H 0.55804 0.82899 0.97481 0.0
H538 H 0.49405 0.82171 0.92283 0.0
H539 H 0.44631 0.80961 0.98957 0.0
H540 H 0.45225 0.80936 0.03134 0.0
H541 H 0.64893 0.84919 0.91894 0.0
H542 H 0.62793 0.86187 0.93196 0.0
H543 H 0.63829 0.87002 0.90342 0.0
C544 C 0.71424 0.07574 0.64024 0.0
C545 C 0.73234 0.08447 0.62272 0.0
C546 C 0.73435 0.06321 0.58562 0.0
C547 C 0.75757 0.06599 0.58469 0.0
C548 C 0.76695 0.05119 0.57064 0.0
C549 C 0.7528 0.03334 0.55727 0.0
C550 C 0.72944 0.03128 0.55724 0.0
C551 C 0.72055 0.04649 0.57122 0.0
C552 C 0.79194 0.05421 0.57059 0.0
C553 C 0.71385 0.01244 0.54324 0.0
C554 C 0.78308 0.9283 0.65904 0.0
C555 C 0.77208 0.91467 0.63704 0.0
C556 C 0.78327 0.93293 0.60062 0.0
C557 C 0.76252 0.9309 0.58914 0.0
C558 C 0.75964 0.94583 0.5719 0.0
C559 C 0.77792 0.96312 0.56608 0.0
C560 C 0.79908 0.9646 0.57696 0.0
C561 C 0.80154 0.94922 0.5939 0.0
C562 C 0.73698 0.94344 0.56024 0.0
C563 C 0.8189 0.98284 0.57121 0.0
C564 C 0.8221 0.92416 0.42504 0.0
C565 C 0.79899 0.91985 0.42806 0.0
C566 C 0.78875 0.93712 0.43599 0.0
C567 C 0.80201 0.95895 0.44147 0.0
C568 C 0.82521 0.96341 0.43763 0.0
C569 C 0.83486 0.94599 0.42904 0.0
C570 C 0.76385 0.93195 0.43891 0.0
C571 C 0.83993 0.98646 0.44294 0.0
C572 C 0.74353 0.06036 0.35095 0.0
C573 C 0.74921 0.0788 0.37079 0.0
C574 C 0.76974 0.06138 0.39967 0.0
C575 C 0.75149 0.04474 0.40641 0.0
C576 C 0.75443 0.02849 0.42219 0.0
C577 C 0.77592 0.02919 0.4319 0.0
C578 C 0.79414 0.04638 0.42577 0.0
C579 C 0.79081 0.06211 0.40961 0.0
C580 C 0.73461 0.0104 0.42831 0.0
C581 C 0.81724 0.04797 0.43601 0.0
C582 C 0.7622 0.01545 0.54552 0.0
C583 C 0.76616 0.99841 0.55947 0.0
C584 C 0.77447 0.98057 0.54991 0.0
C585 C 0.77898 0.97956 0.52564 0.0
C586 C 0.78739 0.96187 0.51546 0.0
C587 C 0.79187 0.96107 0.49158 0.0
C588 C 0.7877 0.97768 0.47683 0.0
C589 C 0.79197 0.97682 0.45246 0.0
C590 C 0.78768 0.99366 0.43836 0.0
C591 C 0.77949 0.01165 0.44796 0.0
C592 C 0.77529 0.01287 0.47235 0.0
C593 C 0.76743 0.03089 0.48272 0.0
C594 C 0.76319 0.03184 0.5067 0.0
C595 C 0.7667 0.01484 0.52122 0.0
C596 C 0.77499 0.99671 0.51122 0.0
C597 C 0.77926 0.99572 0.48676 0.0
C598 C 0.84888 0.88007 0.43446 0.0
C599 C 0.82757 0.88568 0.42471 0.0
O600 O 0.7247 0.07623 0.60022 0.0
O601 O 0.76802 0.07682 0.38357 0.0
O602 O 0.83262 0.90777 0.41802 0.0
O603 O 0.78612 0.91944 0.61821 0.0
H604 H 0.74718 0.07807 0.62805 0.0
H605 H 0.71047 0.05706 0.6396 0.0
H606 H 0.69868 0.08126 0.6359 0.0
H607 H 0.71999 0.08201 0.65845 0.0
H608 H 0.76836 0.07959 0.59502 0.0
H609 H 0.70267 0.04478 0.57176 0.0
H610 H 0.7967 0.04029 0.57988 0.0
H611 H 0.80071 0.07044 0.57946 0.0
H612 H 0.7977 0.05342 0.55223 0.0
H613 H 0.69609 0.0132 0.54509 0.0
H614 H 0.71605 0.99597 0.54918 0.0
H615 H 0.71793 0.01323 0.52431 0.0
H616 H 0.75613 0.91989 0.63376 0.0
H617 H 0.77214 0.92463 0.67438 0.0
H618 H 0.78588 0.94657 0.65604 0.0
H619 H 0.79943 0.92431 0.66319 0.0
H620 H 0.74857 0.91767 0.59369 0.0
H621 H 0.81757 0.95038 0.60263 0.0
H622 H 0.73847 0.94347 0.5408 0.0
H623 H 0.72997 0.95804 0.56584 0.0
H624 H 0.72513 0.92777 0.56484 0.0
H625 H 0.83414 0.98191 0.58151 0.0
H626 H 0.81514 0.9996 0.57491 0.0
H627 H 0.82235 0.98146 0.55217 0.0
H628 H 0.81541 0.88361 0.43919 0.0
H629 H 0.78896 0.90307 0.4241 0.0
H630 H 0.85263 0.94917 0.42619 0.0
H631 H 0.76016 0.93171 0.45795 0.0
H632 H 0.75556 0.91538 0.4304 0.0
H633 H 0.75656 0.94523 0.43127 0.0
H634 H 0.85792 0.98648 0.44166 0.0
H635 H 0.83689 0.99288 0.4609 0.0
H636 H 0.83582 0.99826 0.43019 0.0
H637 H 0.73486 0.07727 0.38273 0.0
H638 H 0.72882 0.06243 0.34041 0.0
H639 H 0.73943 0.04341 0.3582 0.0
H640 H 0.75784 0.06113 0.33912 0.0
H641 H 0.73496 0.0441 0.39929 0.0
H642 H 0.80477 0.07506 0.40448 0.0
H643 H 0.73129 0.01219 0.44735 0.0
H644 H 0.73826 0.99354 0.42496 0.0
H645 H 0.71931 0.01121 0.41805 0.0
H646 H 0.82885 0.06406 0.43219 0.0
H647 H 0.82398 0.03391 0.42837 0.0
H648 H 0.81668 0.0464 0.45539 0.0
H649 H 0.7626 0.99898 0.5781 0.0
H650 H 0.7907 0.94849 0.52587 0.0
H651 H 0.79855 0.94714 0.48483 0.0
H652 H 0.79106 0.99292 0.41971 0.0
H653 H 0.76443 0.04445 0.4724 0.0
H654 H 0.7571 0.04605 0.51374 0.0
H655 H 0.86167 0.88159 0.42069 0.0
H656 H 0.84538 0.86269 0.44074 0.0
H657 H 0.85571 0.8919 0.44958 0.0
C658 C 0.48164 0.43107 0.17785 0.0
C659 C 0.46104 0.42381 0.16133 0.0
C660 C 0.47563 0.40383 0.12866 0.0
C661 C 0.48976 0.42284 0.11973 0.0
C662 C 0.50442 0.4205 0.10163 0.0
C663 C 0.50456 0.39879 0.0919 0.0
C664 C 0.48957 0.37976 0.10003 0.0
C665 C 0.47537 0.38256 0.11839 0.0
C666 C 0.52024 0.44114 0.09337 0.0
C667 C 0.48901 0.35639 0.08984 0.0
C668 C 0.60305 0.36292 0.16355 0.0
C669 C 0.61351 0.34858 0.14617 0.0
C670 C 0.60775 0.36626 0.10996 0.0
C671 C 0.59037 0.35 0.09902 0.0
C672 C 0.57483 0.35629 0.08391 0.0
C673 C 0.57674 0.37931 0.07977 0.0
C674 C 0.59522 0.39553 0.0894 0.0
C675 C 0.61069 0.38872 0.10423 0.0
C676 C 0.55572 0.33846 0.07334 0.0
C677 C 0.59787 0.42018 0.08511 0.0
C678 C 0.59893 0.39442 0.91969 0.0
C679 C 0.58112 0.37624 0.92292 0.0
C680 C 0.56527 0.37742 0.94009 0.0
C681 C 0.56724 0.39744 0.95428 0.0
C682 C 0.58554 0.41574 0.95156 0.0
C683 C 0.60138 0.41395 0.93451 0.0
C684 C 0.54619 0.35743 0.94275 0.0
C685 C 0.58813 0.43737 0.96637 0.0
C686 C 0.41852 0.45382 0.95818 0.0
C687 C 0.42846 0.44707 0.93519 0.0
C688 C 0.45398 0.42317 0.94691 0.0
C689 C 0.45652 0.40099 0.94674 0.0
C690 C 0.4757 0.39571 0.95645 0.0
C691 C 0.49289 0.41316 0.96643 0.0
C692 C 0.49058 0.43571 0.96652 0.0
C693 C 0.47107 0.4405 0.95692 0.0
C694 C 0.47754 0.37146 0.95615 0.0
C695 C 0.50867 0.45471 0.97695 0.0
C696 C 0.52167 0.39577 0.07475 0.0
C697 C 0.54077 0.3899 0.08354 0.0
C698 C 0.55771 0.38659 0.0687 0.0
C699 C 0.55585 0.38962 0.04431 0.0
C700 C 0.57266 0.38666 0.02888 0.0
C701 C 0.57066 0.38985 0.00489 0.0
C702 C 0.55176 0.39608 0.99547 0.0
C703 C 0.54963 0.39959 0.97118 0.0
C704 C 0.53041 0.40534 0.96237 0.0
C705 C 0.51308 0.4077 0.97715 0.0
C706 C 0.51499 0.40452 0.00151 0.0
C707 C 0.49787 0.40678 0.01689 0.0
C708 C 0.49999 0.40389 0.04088 0.0
C709 C 0.51925 0.39852 0.05038 0.0
C710 C 0.53654 0.39568 0.03515 0.0
C711 C 0.53444 0.39879 0.01069 0.0
C712 C 0.62064 0.42638 0.88064 0.0
C713 C 0.63007 0.4089 0.89373 0.0
O714 O 0.46237 0.405 0.14734 0.0
O715 O 0.43477 0.42681 0.93736 0.0
O716 O 0.61298 0.3924 0.9019 0.0
O717 O 0.62123 0.36086 0.12684 0.0
H718 H 0.45984 0.4379 0.14997 0.0
H719 H 0.49696 0.43646 0.16769 0.0
H720 H 0.48381 0.41699 0.18872 0.0
H721 H 0.47992 0.44551 0.18973 0.0
H722 H 0.48985 0.43951 0.12707 0.0
H723 H 0.46426 0.36802 0.1252 0.0
H724 H 0.5377 0.43936 0.09564 0.0
H725 H 0.51845 0.45679 0.10313 0.0
H726 H 0.51715 0.44285 0.07432 0.0
H727 H 0.47426 0.34388 0.09551 0.0
H728 H 0.50428 0.35114 0.09572 0.0
H729 H 0.48884 0.35622 0.07029 0.0
H730 H 0.60051 0.33344 0.1404 0.0
H731 H 0.59731 0.35336 0.17932 0.0
H732 H 0.58837 0.36748 0.1551 0.0
H733 H 0.61528 0.37866 0.16922 0.0
H734 H 0.58864 0.33244 0.10262 0.0
H735 H 0.62441 0.40108 0.1125 0.0
H736 H 0.55356 0.3409 0.05427 0.0
H737 H 0.54007 0.33999 0.08202 0.0
H738 H 0.55823 0.3212 0.07557 0.0
H739 H 0.61407 0.43044 0.09219 0.0
H740 H 0.5842 0.42647 0.09366 0.0
H741 H 0.59658 0.42259 0.06594 0.0
H742 H 0.64088 0.4174 0.90886 0.0
H743 H 0.57947 0.36116 0.9116 0.0
H744 H 0.61535 0.428 0.9327 0.0
H745 H 0.54438 0.35342 0.96158 0.0
H746 H 0.54847 0.34227 0.93241 0.0
H747 H 0.53045 0.3616 0.93661 0.0
H748 H 0.60265 0.45047 0.96128 0.0
H749 H 0.59028 0.43405 0.9852 0.0
H750 H 0.57283 0.44403 0.96463 0.0
H751 H 0.44316 0.46044 0.931 0.0
H752 H 0.41333 0.47 0.95646 0.0
H753 H 0.43107 0.45606 0.97285 0.0
H754 H 0.40381 0.44065 0.96271 0.0
H755 H 0.44326 0.38774 0.93903 0.0
H756 H 0.46936 0.45776 0.95744 0.0
H757 H 0.48085 0.36676 0.97429 0.0
H758 H 0.49181 0.36931 0.94531 0.0
H759 H 0.4622 0.35975 0.94884 0.0
H760 H 0.50505 0.47147 0.97424 0.0
H761 H 0.52486 0.4541 0.96894 0.0
H762 H 0.5105 0.45276 0.99616 0.0
H763 H 0.54239 0.38765 0.10228 0.0
H764 H 0.58757 0.38193 0.03522 0.0
H765 H 0.58413 0.38739 0.99381 0.0
H766 H 0.52885 0.40791 0.9437 0.0
H767 H 0.48266 0.41093 0.01057 0.0
H768 H 0.48634 0.40592 0.0519 0.0
H769 H 0.60918 0.41812 0.86593 0.0
H770 H 0.63442 0.43904 0.8734 0.0
H771 H 0.61126 0.43546 0.89264 0.0
C772 C 0.2246 0.4264 0.26952 0.0
C773 C 0.24667 0.43754 0.26567 0.0
C774 C 0.20665 0.43323 0.25877 0.0
C775 C 0.21094 0.4516 0.24395 0.0
C776 C 0.23308 0.46326 0.24049 0.0
C777 C 0.25071 0.45608 0.25136 0.0
C778 C 0.18317 0.42053 0.26285 0.0
C779 C 0.23818 0.48311 0.22498 0.0
C780 C 0.16382 0.4554 0.18482 0.0
C781 C 0.14739 0.47239 0.20198 0.0
C782 C 0.18527 0.44683 0.20166 0.0
C783 C 0.19251 0.45821 0.23138 0.0
C784 C 0.18001 0.47962 0.24483 0.0
C785 C 0.15839 0.48929 0.22944 0.0
C786 C 0.19695 0.43004 0.19106 0.0
C787 C 0.1877 0.48944 0.26881 0.0
H788 H 0.22133 0.41207 0.28056 0.0
H789 H 0.26769 0.46487 0.24836 0.0
H790 H 0.17315 0.43233 0.26969 0.0
H791 H 0.17529 0.41274 0.24588 0.0
H792 H 0.18258 0.40709 0.27553 0.0
H793 H 0.25628 0.49096 0.22485 0.0
H794 H 0.23227 0.47762 0.20665 0.0
H795 H 0.22912 0.49602 0.23111 0.0
H796 H 0.15794 0.44725 0.16788 0.0
H797 H 0.14959 0.50085 0.23789 0.0
H798 H 0.19544 0.41573 0.20275 0.0
H799 H 0.21494 0.43788 0.18984 0.0
H800 H 0.18979 0.42395 0.17329 0.0
H801 H 0.18551 0.47578 0.28137 0.0
H802 H 0.1782 0.50209 0.27455 0.0
H803 H 0.20575 0.49738 0.2686 0.0
C804 C 0.18782 0.78444 0.80234 0.0
C805 C 0.21021 0.7897 0.81014 0.0
C806 C 0.1744 0.76283 0.80454 0.0
C807 C 0.1836 0.74609 0.81476 0.0
C808 C 0.2063 0.75114 0.82219 0.0
C809 C 0.21934 0.77288 0.8198 0.0
C810 C 0.15026 0.75804 0.79636 0.0
C811 C 0.21673 0.7337 0.8331 0.0
C812 C 0.14537 0.69796 0.84387 0.0
C813 C 0.1436 0.6803 0.82679 0.0
C814 C 0.15802 0.71954 0.83998 0.0
C815 C 0.16929 0.72353 0.81855 0.0
C816 C 0.16738 0.70584 0.80113 0.0
C817 C 0.15462 0.68439 0.80551 0.0
C818 C 0.15968 0.73797 0.859 0.0
C819 C 0.17916 0.70946 0.77808 0.0
H820 H 0.18064 0.7973 0.79479 0.0
H821 H 0.23664 0.77677 0.8258 0.0
H822 H 0.14655 0.74327 0.78366 0.0
H823 H 0.13934 0.7538 0.81159 0.0
H824 H 0.14592 0.77259 0.78785 0.0
H825 H 0.23482 0.74005 0.83711 0.0
H826 H 0.2083 0.72842 0.84968 0.0
H827 H 0.21447 0.7185 0.82107 0.0
H828 H 0.13709 0.69475 0.86045 0.0
H829 H 0.15349 0.6707 0.7924 0.0
H830 H 0.1543 0.75258 0.85183 0.0
H831 H 0.17727 0.74393 0.86524 0.0
H832 H 0.14933 0.73228 0.87434 0.0
H833 H 0.17439 0.72353 0.76911 0.0
H834 H 0.17525 0.6942 0.766 0.0
H835 H 0.19745 0.71423 0.78143 0.0
C836 C 0.80887 0.67321 0.22575 0.0
C837 C 0.81943 0.6961 0.22634 0.0
C838 C 0.82101 0.6565 0.22197 0.0
C839 C 0.84435 0.66282 0.21913 0.0
C840 C 0.85513 0.6859 0.21981 0.0
C841 C 0.8425 0.70227 0.2232 0.0
C842 C 0.80886 0.63207 0.221 0.0
C843 C 0.88002 0.6933 0.21722 0.0
C844 C 0.87697 0.61864 0.23249 0.0
C845 C 0.88045 0.61019 0.20985 0.0
C846 C 0.86571 0.63611 0.23573 0.0
C847 C 0.85747 0.6452 0.21585 0.0
C848 C 0.86122 0.63701 0.19292 0.0
C849 C 0.87286 0.61975 0.19019 0.0
C850 C 0.86237 0.64464 0.26046 0.0
C851 C 0.85255 0.64614 0.1713 0.0
H852 H 0.79102 0.66832 0.22799 0.0
H853 H 0.85078 0.71994 0.22372 0.0
H854 H 0.81196 0.62371 0.20404 0.0
H855 H 0.81526 0.62322 0.23529 0.0
H856 H 0.79058 0.62998 0.22283 0.0
H857 H 0.88586 0.7119 0.2182 0.0
H858 H 0.88877 0.6863 0.2313 0.0
H859 H 0.88492 0.68666 0.20012 0.0
H860 H 0.88294 0.61144 0.24774 0.0
H861 H 0.87573 0.61344 0.17266 0.0
H862 H 0.84431 0.64129 0.26408 0.0
H863 H 0.86888 0.66312 0.26231 0.0
H864 H 0.8708 0.63659 0.27396 0.0
H865 H 0.83411 0.64317 0.17165 0.0
H866 H 0.85721 0.63823 0.15472 0.0
H867 H 0.85913 0.66459 0.17115 0.0
C868 C 0.81137 0.34267 0.71286 0.0
C869 C 0.78839 0.34155 0.71241 0.0
C870 C 0.82588 0.35835 0.72799 0.0
C871 C 0.81716 0.37328 0.74287 0.0
C872 C 0.79398 0.3721 0.74265 0.0
C873 C 0.77987 0.35637 0.72726 0.0
C874 C 0.85053 0.35917 0.72777 0.0
C875 C 0.78415 0.38785 0.75826 0.0
C876 C 0.85628 0.40678 0.80652 0.0
C877 C 0.87076 0.43203 0.79116 0.0
C878 C 0.83846 0.38538 0.78769 0.0
C879 C 0.83225 0.3909 0.75762 0.0
C880 C 0.84201 0.4182 0.74569 0.0
C881 C 0.8599 0.4407 0.76309 0.0
C882 C 0.82897 0.36289 0.79693 0.0
C883 C 0.83535 0.42213 0.72119 0.0
H884 H 0.81803 0.33134 0.70126 0.0
H885 H 0.7623 0.35633 0.72622 0.0
H886 H 0.85955 0.37579 0.72197 0.0
H887 H 0.85671 0.3572 0.74583 0.0
H888 H 0.85456 0.34582 0.71581 0.0
H889 H 0.76566 0.38407 0.75686 0.0
H890 H 0.78925 0.38672 0.77691 0.0
H891 H 0.79069 0.40546 0.75339 0.0
H892 H 0.86174 0.40308 0.82379 0.0
H893 H 0.86725 0.45655 0.75561 0.0
H894 H 0.83431 0.34975 0.78581 0.0
H895 H 0.81051 0.35949 0.79568 0.0
H896 H 0.83456 0.36222 0.81549 0.0
H897 H 0.84044 0.40971 0.70884 0.0
H898 H 0.84319 0.43948 0.71643 0.0
H899 H 0.81695 0.41937 0.71975 0.0
C900 C 0.29115 0.30229 0.32592 0.0
C901 C 0.29219 0.32529 0.33043 0.0
C902 C 0.29991 0.28974 0.34226 0.0
C903 C 0.30992 0.30045 0.3636 0.0
C904 C 0.31049 0.32351 0.36854 0.0
C905 C 0.30163 0.33565 0.35189 0.0
C906 C 0.29897 0.26516 0.33642 0.0
C907 C 0.32095 0.3355 0.39117 0.0
C908 C 0.31863 0.26503 0.41471 0.0
C909 C 0.34131 0.26487 0.41299 0.0
C910 C 0.30811 0.27636 0.39863 0.0
C911 C 0.32058 0.2878 0.38041 0.0
C912 C 0.34344 0.28759 0.37849 0.0
C913 C 0.35355 0.27623 0.39489 0.0
C914 C 0.28376 0.27634 0.40132 0.0
C915 C 0.35727 0.29955 0.35926 0.0
H916 H 0.28387 0.29415 0.3094 0.0
H917 H 0.30248 0.35341 0.35554 0.0
H918 H 0.31613 0.26243 0.33506 0.0
H919 H 0.29086 0.25479 0.35072 0.0
H920 H 0.2897 0.2591 0.31958 0.0
H921 H 0.31911 0.35319 0.39282 0.0
H922 H 0.31326 0.32651 0.40654 0.0
H923 H 0.33897 0.3355 0.39197 0.0
H924 H 0.30918 0.25643 0.42882 0.0
H925 H 0.37112 0.27633 0.39365 0.0
H926 H 0.27426 0.26949 0.38485 0.0
H927 H 0.28173 0.29384 0.40444 0.0
H928 H 0.27632 0.26623 0.41614 0.0
H929 H 0.34961 0.29323 0.34175 0.0
H930 H 0.37467 0.29725 0.35983 0.0
H931 H 0.35771 0.31782 0.36093 0.0
C932 C 0.29585 0.86647 0.85638 0.0
C933 C 0.30716 0.88541 0.84503 0.0
C934 C 0.30748 0.85391 0.86986 0.0
C935 C 0.33099 0.86064 0.87227 0.0
C936 C 0.3425 0.87991 0.86105 0.0
C937 C 0.33041 0.89214 0.84763 0.0
C938 C 0.29457 0.83357 0.88172 0.0
C939 C 0.36754 0.88759 0.86324 0.0
C940 C 0.35694 0.83964 0.92538 0.0
C941 C 0.36375 0.8209 0.91552 0.0
C942 C 0.34686 0.85314 0.91137 0.0
C943 C 0.34339 0.84766 0.88693 0.0
C944 C 0.35069 0.82904 0.87677 0.0
C945 C 0.36066 0.81579 0.89122 0.0
C946 C 0.33925 0.87282 0.92287 0.0
C947 C 0.3473 0.82269 0.85077 0.0
H948 H 0.27783 0.86178 0.85525 0.0
H949 H 0.33919 0.90687 0.83896 0.0
H950 H 0.30074 0.81845 0.87615 0.0
H951 H 0.29719 0.83605 0.9011 0.0
H952 H 0.2764 0.83024 0.87755 0.0
H953 H 0.37399 0.90279 0.85321 0.0
H954 H 0.37275 0.89143 0.88203 0.0
H955 H 0.37546 0.87393 0.8567 0.0
H956 H 0.35902 0.84342 0.94421 0.0
H957 H 0.36558 0.80109 0.88362 0.0
H958 H 0.32083 0.86983 0.92138 0.0
H959 H 0.34619 0.88841 0.91372 0.0
H960 H 0.34435 0.87559 0.94181 0.0
H961 H 0.32921 0.81749 0.84633 0.0
H962 H 0.35526 0.80868 0.84536 0.0
H963 H 0.35425 0.83741 0.84029 0.0
C964 C 0.76747 0.80332 0.31678 0.0
C965 C 0.78178 0.79036 0.30745 0.0
C966 C 0.77412 0.81849 0.33621 0.0
C967 C 0.79549 0.82056 0.34679 0.0
C968 C 0.80975 0.80703 0.33797 0.0
C969 C 0.80278 0.79219 0.3183 0.0
C970 C 0.75851 0.83276 0.34497 0.0
C971 C 0.83254 0.80854 0.34903 0.0
C972 C 0.8227 0.87507 0.38076 0.0
C973 C 0.81813 0.86949 0.40413 0.0
C974 C 0.81507 0.85942 0.36193 0.0
C975 C 0.80318 0.83745 0.36659 0.0
C976 C 0.7987 0.83164 0.39012 0.0
C977 C 0.80612 0.84777 0.40858 0.0
C978 C 0.81988 0.86634 0.33703 0.0
C979 C 0.78642 0.80828 0.39583 0.0
H980 H 0.75123 0.8021 0.30851 0.0
H981 H 0.8139 0.78218 0.31128 0.0
H982 H 0.75551 0.83045 0.36398 0.0
H983 H 0.76625 0.85081 0.34304 0.0
H984 H 0.7422 0.82864 0.33523 0.0
H985 H 0.84106 0.79593 0.34097 0.0
H986 H 0.84313 0.82557 0.34702 0.0
H987 H 0.83114 0.80596 0.3682 0.0
H988 H 0.83235 0.89164 0.37713 0.0
H989 H 0.80292 0.84331 0.42664 0.0
H990 H 0.8041 0.86353 0.32646 0.0
H991 H 0.83038 0.85582 0.32856 0.0
H992 H 0.82859 0.8843 0.33635 0.0
H993 H 0.76971 0.80416 0.38698 0.0
H994 H 0.78432 0.80646 0.41507 0.0
H995 H 0.79563 0.79573 0.38904 0.0
C996 C 0.70247 0.34686 0.80631 0.0
C997 C 0.70564 0.35877 0.78563 0.0
C998 C 0.69106 0.35414 0.82527 0.0
C999 C 0.68258 0.37374 0.82344 0.0
C1000 C 0.68603 0.38601 0.80277 0.0
C1001 C 0.69753 0.37841 0.78415 0.0
C1002 C 0.6878 0.3407 0.84709 0.0
C1003 C 0.67721 0.407 0.80013 0.0
C1004 C 0.6335 0.38203 0.85949 0.0
C1005 C 0.64392 0.39806 0.87699 0.0
C1006 C 0.64598 0.37343 0.84243 0.0
C1007 C 0.66944 0.38114 0.84275 0.0
C1008 C 0.68012 0.39694 0.86066 0.0
C1009 C 0.66721 0.40532 0.87748 0.0
C1010 C 0.63396 0.35667 0.82356 0.0
C1011 C 0.7051 0.40552 0.8616 0.0
H1012 H 0.70875 0.33171 0.80765 0.0
H1013 H 0.69994 0.38776 0.76828 0.0
H1014 H 0.69437 0.35169 0.86287 0.0
H1015 H 0.66975 0.33401 0.84961 0.0
H1016 H 0.69621 0.32638 0.84613 0.0
H1017 H 0.68179 0.41492 0.78317 0.0
H1018 H 0.65877 0.40283 0.80115 0.0
H1019 H 0.68377 0.41949 0.81476 0.0
H1020 H 0.61549 0.37663 0.85884 0.0
H1021 H 0.67528 0.41792 0.89078 0.0
H1022 H 0.64106 0.34148 0.8228 0.0
H1023 H 0.6363 0.36417 0.80611 0.0
H1024 H 0.6158 0.35141 0.8266 0.0
H1025 H 0.71351 0.39122 0.86124 0.0
H1026 H 0.71095 0.4165 0.87761 0.0
H1027 H 0.71037 0.41527 0.84586 0.0
C1028 C 0.32281 0.953 0.73023 0.0
C1029 C 0.31456 0.9667 0.74665 0.0
C1030 C 0.33463 0.96217 0.71076 0.0
C1031 C 0.33773 0.98549 0.70737 0.0
C1032 C 0.32927 0.99936 0.72382 0.0
C1033 C 0.31802 0.98983 0.74344 0.0
C1034 C 0.34384 0.94695 0.69388 0.0
C1035 C 0.33183 0.0242 0.72049 0.0
C1036 C 0.38344 0.01481 0.66819 0.0
C1037 C 0.37161 0.01536 0.647 0.0
C1038 C 0.37272 0.00475 0.68786 0.0
C1039 C 0.34952 0.99535 0.68642 0.0
C1040 C 0.33749 0.99565 0.66505 0.0
C1041 C 0.34872 0.00531 0.64549 0.0
C1042 C 0.38621 0.00424 0.71019 0.0
C1043 C 0.31266 0.98607 0.66295 0.0
H1044 H 0.3203 0.93513 0.73278 0.0
H1045 H 0.31152 0.00043 0.75604 0.0
H1046 H 0.3362 0.94688 0.67606 0.0
H1047 H 0.36207 0.95335 0.69237 0.0
H1048 H 0.3407 0.92935 0.69952 0.0
H1049 H 0.32402 0.03259 0.73473 0.0
H1050 H 0.34974 0.03259 0.72005 0.0
H1051 H 0.32408 0.02674 0.70335 0.0
H1052 H 0.40115 0.02231 0.66933 0.0
H1053 H 0.33941 0.00522 0.62913 0.0
H1054 H 0.38397 0.98669 0.71569 0.0
H1055 H 0.38021 0.01399 0.72465 0.0
H1056 H 0.40427 0.01136 0.70806 0.0
H1057 H 0.30888 0.96795 0.66666 0.0
H1058 H 0.30569 0.98793 0.64518 0.0
H1059 H 0.304 0.99467 0.67622 0.0
C1060 C 0.69268 0.75994 0.17498 0.0
C1061 C 0.71588 0.76796 0.17458 0.0
C1062 C 0.67862 0.76556 0.15765 0.0
C1063 C 0.688 0.77945 0.13946 0.0
C1064 C 0.71144 0.78667 0.1383 0.0
C1065 C 0.7251 0.78086 0.15589 0.0
C1066 C 0.6537 0.75747 0.15941 0.0
C1067 C 0.72209 0.80137 0.11906 0.0
C1068 C 0.6536 0.78475 0.08471 0.0
C1069 C 0.64765 0.80531 0.08974 0.0
C1070 C 0.66632 0.77581 0.10094 0.0
C1071 C 0.67335 0.78783 0.12262 0.0
C1072 C 0.66716 0.80846 0.12791 0.0
C1073 C 0.65454 0.81703 0.11133 0.0
C1074 C 0.67269 0.75383 0.09464 0.0
C1075 C 0.67432 0.82176 0.15086 0.0
H1076 H 0.6854 0.7499 0.18931 0.0
H1077 H 0.743 0.787 0.15533 0.0
H1078 H 0.64613 0.77204 0.16345 0.0
H1079 H 0.64628 0.74948 0.14235 0.0
H1080 H 0.64914 0.74521 0.17335 0.0
H1081 H 0.74054 0.80407 0.11959 0.0
H1082 H 0.71568 0.79373 0.10151 0.0
H1083 H 0.71765 0.818 0.12091 0.0
H1084 H 0.64861 0.77585 0.06787 0.0
H1085 H 0.65035 0.83313 0.1151 0.0
H1086 H 0.66763 0.7418 0.10866 0.0
H1087 H 0.69106 0.75669 0.09339 0.0
H1088 H 0.66492 0.74601 0.07762 0.0
H1089 H 0.66899 0.81108 0.16594 0.0
H1090 H 0.66727 0.83697 0.1527 0.0
H1091 H 0.69276 0.8271 0.15202 0.0
C1092 C 0.74104 0.21412 0.65604 0.0
C1093 C 0.7539 0.2289 0.64078 0.0
C1094 C 0.73888 0.19079 0.65308 0.0
C1095 C 0.74975 0.182 0.63433 0.0
C1096 C 0.76316 0.19683 0.61919 0.0
C1097 C 0.76513 0.22012 0.62264 0.0
C1098 C 0.72457 0.17551 0.66971 0.0
C1099 C 0.77497 0.18806 0.599 0.0
C1100 C 0.75619 0.12177 0.63793 0.0
C1101 C 0.738 0.10993 0.62394 0.0
C1102 C 0.76055 0.1453 0.64106 0.0
C1103 C 0.74628 0.15723 0.63004 0.0
C1104 C 0.72806 0.1454 0.61563 0.0
C1105 C 0.72405 0.12188 0.61288 0.0
C1106 C 0.78007 0.15732 0.65665 0.0
C1107 C 0.71245 0.15752 0.60358 0.0
H1108 H 0.73239 0.22077 0.67017 0.0
H1109 H 0.77511 0.23141 0.61077 0.0
H1110 H 0.71019 0.16458 0.65981 0.0
H1111 H 0.73426 0.16433 0.67773 0.0
H1112 H 0.71811 0.18506 0.68405 0.0
H1113 H 0.78557 0.20183 0.58947 0.0
H1114 H 0.78559 0.17703 0.60556 0.0
H1115 H 0.76253 0.17769 0.58631 0.0
H1116 H 0.76678 0.11253 0.6468 0.0
H1117 H 0.70974 0.11274 0.60242 0.0
H1118 H 0.77395 0.16558 0.67217 0.0
H1119 H 0.79097 0.17073 0.64699 0.0
H1120 H 0.79022 0.14571 0.66296 0.0
H1121 H 0.70375 0.1659 0.61699 0.0
H1122 H 0.69974 0.14597 0.59206 0.0
H1123 H 0.72203 0.17084 0.59275 0.0
C1124 C 0.36461 0.40669 0.25602 0.0
C1125 C 0.34434 0.39371 0.24663 0.0
C1126 C 0.38369 0.41121 0.24233 0.0
C1127 C 0.38242 0.40271 0.21865 0.0
C1128 C 0.36209 0.38941 0.20913 0.0
C1129 C 0.34332 0.38499 0.22327 0.0
C1130 C 0.40517 0.42527 0.25313 0.0
C1131 C 0.36009 0.38014 0.18391 0.0
C1132 C 0.42549 0.43252 0.17696 0.0
C1133 C 0.44029 0.4181 0.17576 0.0
C1134 C 0.40646 0.4276 0.1907 0.0
C1135 C 0.40231 0.40794 0.20374 0.0
C1136 C 0.41723 0.39336 0.20267 0.0
C1137 C 0.43603 0.3986 0.18866 0.0
C1138 C 0.39082 0.44346 0.19131 0.0
C1139 C 0.41344 0.37232 0.21647 0.0
H1140 H 0.36557 0.41342 0.27407 0.0
H1141 H 0.32771 0.375 0.21586 0.0
H1142 H 0.4186 0.41585 0.2517 0.0
H1143 H 0.4105 0.44081 0.24338 0.0
H1144 H 0.40353 0.4301 0.27199 0.0
H1145 H 0.34315 0.36986 0.17929 0.0
H1146 H 0.36396 0.39417 0.17181 0.0
H1147 H 0.37237 0.36958 0.1808 0.0
H1148 H 0.42883 0.44768 0.16715 0.0
H1149 H 0.44753 0.3875 0.18786 0.0
H1150 H 0.3898 0.45023 0.2096 0.0
H1151 H 0.37378 0.43427 0.18559 0.0
H1152 H 0.39622 0.45781 0.1798 0.0
H1153 H 0.41298 0.3768 0.23556 0.0
H1154 H 0.42663 0.36275 0.21366 0.0
H1155 H 0.39708 0.36119 0.21129 0.0
C1156 C 0.8022 0.69019 0.73375 0.0
C1157 C 0.78894 0.67735 0.71555 0.0
C1158 C 0.81957 0.68246 0.74457 0.0
C1159 C 0.82328 0.6611 0.73746 0.0
C1160 C 0.80989 0.64805 0.71911 0.0
C1161 C 0.79308 0.65649 0.70813 0.0
C1162 C 0.83389 0.69711 0.76362 0.0
C1163 C 0.81294 0.62495 0.71144 0.0
C1164 C 0.87824 0.6451 0.75102 0.0
C1165 C 0.8733 0.63298 0.77143 0.0
C1166 C 0.86237 0.65503 0.74027 0.0
C1167 C 0.84079 0.65208 0.74959 0.0
C1168 C 0.83567 0.6398 0.77008 0.0
C1169 C 0.85204 0.63062 0.78086 0.0
C1170 C 0.8686 0.66844 0.71874 0.0
C1171 C 0.81269 0.63578 0.78024 0.0
H1172 H 0.79913 0.7064 0.73939 0.0
H1173 H 0.78273 0.64646 0.69418 0.0
H1174 H 0.83184 0.68863 0.78056 0.0
H1175 H 0.85173 0.69972 0.75917 0.0
H1176 H 0.82963 0.71379 0.76618 0.0
H1177 H 0.80102 0.61689 0.69703 0.0
H1178 H 0.83014 0.62604 0.70531 0.0
H1179 H 0.81062 0.61392 0.72662 0.0
H1180 H 0.89445 0.64676 0.7433 0.0
H1181 H 0.84808 0.62103 0.79643 0.0
H1182 H 0.86476 0.68529 0.72126 0.0
H1183 H 0.85859 0.65983 0.70321 0.0
H1184 H 0.88654 0.67064 0.71479 0.0
H1185 H 0.80822 0.65206 0.78471 0.0
H1186 H 0.81145 0.62594 0.79632 0.0
H1187 H 0.80019 0.62655 0.76692 0.0
C1188 C 0.84781 0.29973 0.22602 0.0
C1189 C 0.83908 0.3118 0.2437 0.0
C1190 C 0.86651 0.31005 0.21352 0.0
C1191 C 0.87677 0.33293 0.21891 0.0
C1192 C 0.86878 0.34483 0.23756 0.0
C1193 C 0.85003 0.33414 0.24971 0.0
C1194 C 0.87462 0.29678 0.1938 0.0
C1195 C 0.8794 0.36919 0.24396 0.0
C1196 C 0.9342 0.35679 0.19548 0.0
C1197 C 0.92893 0.36766 0.17566 0.0
C1198 C 0.91742 0.34547 0.20982 0.0
C1199 C 0.89485 0.34487 0.20403 0.0
C1200 C 0.88943 0.35576 0.18398 0.0
C1201 C 0.90654 0.367 0.17001 0.0
C1202 C 0.92384 0.33408 0.23106 0.0
C1203 C 0.86553 0.35543 0.17718 0.0
H1204 H 0.83949 0.28248 0.22125 0.0
H1205 H 0.84352 0.34358 0.26343 0.0
H1206 H 0.87165 0.30384 0.17669 0.0
H1207 H 0.89283 0.29816 0.19585 0.0
H1208 H 0.86605 0.2787 0.19311 0.0
H1209 H 0.87239 0.37549 0.26012 0.0
H1210 H 0.89766 0.37145 0.24674 0.0
H1211 H 0.87675 0.37973 0.22923 0.0
H1212 H 0.9515 0.35706 0.1997 0.0
H1213 H 0.90245 0.37515 0.15451 0.0
H1214 H 0.91616 0.31581 0.22943 0.0
H1215 H 0.91737 0.34092 0.24724 0.0
H1216 H 0.94218 0.33634 0.23328 0.0
H1217 H 0.85602 0.3378 0.17404 0.0
H1218 H 0.86416 0.36473 0.16107 0.0
H1219 H 0.85753 0.36303 0.1918 0.0
C1220 C 0.20292 0.44034 0.7798 0.0
C1221 C 0.20904 0.4206 0.78633 0.0
C1222 C 0.18248 0.44498 0.78645 0.0
C1223 C 0.16785 0.42956 0.80002 0.0
C1224 C 0.17396 0.40965 0.80673 0.0
C1225 C 0.19445 0.40539 0.79977 0.0
C1226 C 0.17648 0.46634 0.7789 0.0
C1227 C 0.15883 0.39281 0.82126 0.0
C1228 C 0.12319 0.44814 0.83613 0.0
C1229 C 0.10396 0.43934 0.82215 0.0
C1230 C 0.14421 0.44565 0.82883 0.0
C1231 C 0.14601 0.43403 0.80708 0.0
C1232 C 0.12673 0.42562 0.79264 0.0
C1233 C 0.10592 0.42828 0.80041 0.0
C1234 C 0.16437 0.45481 0.84475 0.0
C1235 C 0.12797 0.41318 0.7693 0.0
H1236 H 0.21409 0.45218 0.7694 0.0
H1237 H 0.19904 0.39012 0.80494 0.0
H1238 H 0.16076 0.46219 0.76815 0.0
H1239 H 0.17354 0.47664 0.7946 0.0
H1240 H 0.18972 0.47664 0.76845 0.0
H1241 H 0.16614 0.37826 0.82522 0.0
H1242 H 0.15538 0.40106 0.83813 0.0
H1243 H 0.14261 0.38642 0.81175 0.0
H1244 H 0.12166 0.45648 0.85306 0.0
H1245 H 0.09107 0.42128 0.78967 0.0
H1246 H 0.17759 0.46581 0.83493 0.0
H1247 H 0.17132 0.44072 0.8509 0.0
H1248 H 0.16036 0.46458 0.8604 0.0
H1249 H 0.14055 0.42345 0.75815 0.0
H1250 H 0.11169 0.40898 0.7595 0.0
H1251 H 0.13336 0.39733 0.77227 0.0
C1252 C 0.21559 0.7641 0.19816 0.0
C1253 C 0.23638 0.76505 0.20916 0.0
C1254 C 0.19891 0.74419 0.19713 0.0
C1255 C 0.20316 0.72475 0.20725 0.0
C1256 C 0.22429 0.72542 0.21783 0.0
C1257 C 0.24064 0.74557 0.21869 0.0
C1258 C 0.17657 0.74411 0.18569 0.0
C1259 C 0.22949 0.70496 0.22866 0.0
C1260 C 0.15419 0.68023 0.2267 0.0
C1261 C 0.15167 0.664 0.20799 0.0
C1262 C 0.17073 0.70019 0.22654 0.0
C1263 C 0.18528 0.70386 0.20737 0.0
C1264 C 0.18294 0.68747 0.18853 0.0
C1265 C 0.16621 0.6677 0.18911 0.0
C1266 C 0.17274 0.71726 0.24698 0.0
C1267 C 0.19825 0.69071 0.16789 0.0
H1268 H 0.21215 0.77906 0.19074 0.0
H1269 H 0.25667 0.74612 0.22715 0.0
H1270 H 0.1724 0.73053 0.17163 0.0
H1271 H 0.16337 0.74059 0.19894 0.0
H1272 H 0.1762 0.76039 0.1779 0.0
H1273 H 0.24704 0.70799 0.23529 0.0
H1274 H 0.21832 0.70002 0.24355 0.0
H1275 H 0.22639 0.69054 0.21553 0.0
H1276 H 0.14329 0.6772 0.24155 0.0
H1277 H 0.16457 0.65499 0.17486 0.0
H1278 H 0.1712 0.73374 0.24053 0.0
H1279 H 0.18942 0.71977 0.25572 0.0
H1280 H 0.15985 0.71205 0.26029 0.0
H1281 H 0.19736 0.70647 0.15931 0.0
H1282 H 0.19402 0.67648 0.15451 0.0
H1283 H 0.21575 0.69243 0.17413 0.0
C1284 C 0.74435 0.78027 0.65084 0.0
C1285 C 0.74489 0.77592 0.67483 0.0
C1286 C 0.74877 0.80243 0.64343 0.0
C1287 C 0.7541 0.82062 0.66042 0.0
C1288 C 0.75503 0.81629 0.68464 0.0
C1289 C 0.75045 0.79398 0.69154 0.0
C1290 C 0.74753 0.80638 0.61745 0.0
C1291 C 0.76092 0.83523 0.70328 0.0
C1292 C 0.78461 0.87833 0.64228 0.0
C1293 C 0.76725 0.88976 0.64124 0.0
C1294 C 0.78052 0.85568 0.64806 0.0
C1295 C 0.75854 0.84422 0.65295 0.0
C1296 C 0.7409 0.85557 0.65153 0.0
C1297 C 0.74549 0.87823 0.64582 0.0
C1298 C 0.79978 0.84417 0.64948 0.0
C1299 C 0.71724 0.84391 0.65657 0.0
H1300 H 0.74014 0.76631 0.63786 0.0
H1301 H 0.75171 0.79069 0.71001 0.0
H1302 H 0.73475 0.81618 0.614 0.0
H1303 H 0.76371 0.81646 0.6118 0.0
H1304 H 0.7433 0.7904 0.60649 0.0
H1305 H 0.76097 0.82901 0.72134 0.0
H1306 H 0.77764 0.84582 0.70006 0.0
H1307 H 0.74882 0.8462 0.70236 0.0
H1308 H 0.80148 0.88728 0.639 0.0
H1309 H 0.73207 0.88708 0.64526 0.0
H1310 H 0.79633 0.8286 0.63791 0.0
H1311 H 0.80186 0.83914 0.66775 0.0
H1312 H 0.81571 0.85517 0.64426 0.0
H1313 H 0.71204 0.8283 0.64518 0.0
H1314 H 0.70528 0.85478 0.65364 0.0
H1315 H 0.71621 0.83892 0.67512 0.0
C1316 C 0.70365 0.31908 0.2353 0.0
C1317 C 0.71911 0.30888 0.22384 0.0
C1318 C 0.68629 0.32511 0.2226 0.0
C1319 C 0.68431 0.32072 0.19789 0.0
C1320 C 0.69955 0.30997 0.18631 0.0
C1321 C 0.71679 0.30422 0.19941 0.0
C1322 C 0.67034 0.33656 0.23555 0.0
C1323 C 0.69787 0.3049 0.16 0.0
C1324 C 0.6286 0.31964 0.16766 0.0
C1325 C 0.63241 0.34101 0.15835 0.0
C1326 C 0.6454 0.31274 0.1804 0.0
C1327 C 0.66646 0.32766 0.18409 0.0
C1328 C 0.67042 0.34929 0.17478 0.0
C1329 C 0.6533 0.35576 0.16213 0.0
C1330 C 0.64052 0.28958 0.19012 0.0
C1331 C 0.69266 0.36568 0.17842 0.0
H1332 H 0.70535 0.32279 0.25415 0.0
H1333 H 0.72862 0.29629 0.19042 0.0
H1334 H 0.67151 0.3536 0.22893 0.0
H1335 H 0.65295 0.32696 0.2322 0.0
H1336 H 0.6738 0.33823 0.25487 0.0
H1337 H 0.71062 0.29583 0.15378 0.0
H1338 H 0.68111 0.29453 0.15492 0.0
H1339 H 0.69997 0.3208 0.15071 0.0
H1340 H 0.61234 0.30838 0.16516 0.0
H1341 H 0.65613 0.37246 0.15539 0.0
H1342 H 0.6425 0.29101 0.2096 0.0
H1343 H 0.65261 0.27995 0.18339 0.0
H1344 H 0.62339 0.27989 0.18534 0.0
H1345 H 0.69634 0.36949 0.19753 0.0
H1346 H 0.69314 0.38172 0.16974 0.0
H1347 H 0.70612 0.35808 0.17132 0.0
C1348 C 0.28588 0.31739 0.70262 0.0
C1349 C 0.30489 0.33399 0.69811 0.0
C1350 C 0.28293 0.29543 0.69268 0.0
C1351 C 0.29932 0.28996 0.67774 0.0
C1352 C 0.31806 0.30687 0.67228 0.0
C1353 C 0.32066 0.32867 0.68258 0.0
C1354 C 0.26272 0.27785 0.69895 0.0
C1355 C 0.33576 0.30173 0.65623 0.0
C1356 C 0.30376 0.22891 0.67541 0.0
C1357 C 0.29167 0.22039 0.65462 0.0
C1358 C 0.30681 0.25164 0.68282 0.0
C1359 C 0.2975 0.26623 0.6691 0.0
C1360 C 0.28565 0.25787 0.64783 0.0
C1361 C 0.28266 0.23498 0.64096 0.0
C1362 C 0.31941 0.25986 0.70572 0.0
C1363 C 0.27561 0.27295 0.63267 0.0
H1364 H 0.27359 0.32134 0.71455 0.0
H1365 H 0.33534 0.34141 0.67888 0.0
H1366 H 0.25381 0.26941 0.68274 0.0
H1367 H 0.26805 0.26473 0.70906 0.0
H1368 H 0.25089 0.28511 0.70969 0.0
H1369 H 0.34831 0.31712 0.65217 0.0
H1370 H 0.34449 0.28996 0.66467 0.0
H1371 H 0.32805 0.29332 0.63945 0.0
H1372 H 0.31038 0.21759 0.6862 0.0
H1373 H 0.2729 0.22838 0.62513 0.0
H1374 H 0.30817 0.26574 0.71839 0.0
H1375 H 0.33334 0.2744 0.70276 0.0
H1376 H 0.3263 0.24656 0.71386 0.0
H1377 H 0.26227 0.27878 0.64234 0.0
H1378 H 0.26837 0.26426 0.6158 0.0
H1379 H 0.28843 0.28812 0.6287 0.0
C1380 C 0.32 0.85869 0.19647 0.0
C1381 C 0.32504 0.86631 0.21997 0.0
C1382 C 0.33593 0.85143 0.18251 0.0
C1383 C 0.35718 0.85146 0.1925 0.0
C1384 C 0.362 0.85842 0.21649 0.0
C1385 C 0.34597 0.86604 0.22983 0.0
C1386 C 0.33035 0.84459 0.15689 0.0
C1387 C 0.38428 0.85829 0.22796 0.0
C1388 C 0.39625 0.81835 0.16437 0.0
C1389 C 0.4125 0.83563 0.15539 0.0
C1390 C 0.37764 0.82308 0.17581 0.0
C1391 C 0.37498 0.84553 0.17776 0.0
C1392 C 0.39055 0.86278 0.16734 0.0
C1393 C 0.40918 0.85764 0.15642 0.0
C1394 C 0.36149 0.80426 0.18683 0.0
C1395 C 0.38807 0.88686 0.1686 0.0
H1396 H 0.30394 0.85926 0.18873 0.0
H1397 H 0.34982 0.87182 0.24806 0.0
H1398 H 0.341 0.8568 0.14568 0.0
H1399 H 0.33391 0.82786 0.15256 0.0
H1400 H 0.31261 0.84393 0.15227 0.0
H1401 H 0.38476 0.86261 0.24718 0.0
H1402 H 0.38814 0.84147 0.22521 0.0
H1403 H 0.39763 0.87061 0.21969 0.0
H1404 H 0.39851 0.80124 0.16319 0.0
H1405 H 0.42149 0.87102 0.14919 0.0
H1406 H 0.34411 0.80428 0.1814 0.0
H1407 H 0.36278 0.80687 0.20629 0.0
H1408 H 0.36479 0.78749 0.18198 0.0
H1409 H 0.37097 0.88772 0.16287 0.0
H1410 H 0.40022 0.89777 0.15749 0.0
H1411 H 0.39066 0.89374 0.18709 0.0
C1412 C 0.77498 0.20466 0.32356 0.0
C1413 C 0.76753 0.20394 0.30001 0.0
C1414 C 0.77285 0.18487 0.33587 0.0
C1415 C 0.76288 0.16387 0.32442 0.0
C1416 C 0.75545 0.16303 0.30061 0.0
C1417 C 0.75795 0.18305 0.28867 0.0
C1418 C 0.78112 0.18644 0.36118 0.0
C1419 C 0.74463 0.14098 0.2878 0.0
C1420 C 0.77319 0.10976 0.34826 0.0
C1421 C 0.75346 0.10169 0.3602 0.0
C1422 C 0.77664 0.13014 0.33687 0.0
C1423 C 0.75994 0.14276 0.33737 0.0
C1424 C 0.7401 0.13486 0.34963 0.0
C1425 C 0.73705 0.11436 0.36077 0.0
C1426 C 0.79797 0.13794 0.32391 0.0
C1427 C 0.72191 0.14784 0.35058 0.0
H1428 H 0.78246 0.22072 0.33244 0.0
H1429 H 0.75208 0.18233 0.27051 0.0
H1430 H 0.76706 0.17985 0.37274 0.0
H1431 H 0.79349 0.17588 0.36325 0.0
H1432 H 0.78897 0.20398 0.36737 0.0
H1433 H 0.74001 0.14316 0.26922 0.0
H1434 H 0.75608 0.1293 0.28799 0.0
H1435 H 0.72936 0.13286 0.29695 0.0
H1436 H 0.78579 0.09987 0.34751 0.0
H1437 H 0.72168 0.10806 0.36972 0.0
H1438 H 0.80647 0.15517 0.33043 0.0
H1439 H 0.79412 0.1387 0.30486 0.0
H1440 H 0.80965 0.12662 0.32595 0.0
H1441 H 0.72874 0.16525 0.35781 0.0
H1442 H 0.70788 0.13984 0.36159 0.0
H1443 H 0.71531 0.14907 0.33252 0.0
C1444 C 0.32918 0.43482 0.83718 0.0
C1445 C 0.33605 0.42588 0.81612 0.0
C1446 C 0.3437 0.44019 0.85698 0.0
C1447 C 0.36554 0.43645 0.85569 0.0
C1448 C 0.37281 0.42821 0.83425 0.0
C1449 C 0.35802 0.42307 0.81475 0.0
C1450 C 0.33542 0.44913 0.87949 0.0
C1451 C 0.39598 0.424 0.83217 0.0
C1452 C 0.41114 0.46273 0.9009 0.0
C1453 C 0.41142 0.44462 0.91513 0.0
C1454 C 0.39582 0.46059 0.88188 0.0
C1455 C 0.38045 0.43982 0.87703 0.0
C1456 C 0.38011 0.42174 0.89188 0.0
C1457 C 0.39541 0.42444 0.91091 0.0
C1458 C 0.39641 0.48036 0.86669 0.0
C1459 C 0.36398 0.39932 0.88727 0.0
H1460 H 0.31228 0.43711 0.83841 0.0
H1461 H 0.36355 0.41628 0.79855 0.0
H1462 H 0.33428 0.43651 0.89314 0.0
H1463 H 0.34733 0.46461 0.88634 0.0
H1464 H 0.31875 0.45299 0.87702 0.0
H1465 H 0.39943 0.41862 0.81394 0.0
H1466 H 0.40863 0.43944 0.83764 0.0
H1467 H 0.39807 0.4107 0.84414 0.0
H1468 H 0.42313 0.47852 0.90449 0.0
H1469 H 0.39515 0.41059 0.92226 0.0
H1470 H 0.37958 0.48396 0.86514 0.0
H1471 H 0.4014 0.47625 0.84865 0.0
H1472 H 0.40828 0.49579 0.87381 0.0
H1473 H 0.34661 0.40162 0.88661 0.0
H1474 H 0.36535 0.38723 0.90096 0.0
H1475 H 0.36719 0.39183 0.86988 0.0
C1476 C 0.32571 0.97178 0.33212 0.0
C1477 C 0.32658 0.94903 0.32986 0.0
C1478 C 0.33803 0.9861 0.35001 0.0
C1479 C 0.35193 0.97756 0.36561 0.0
C1480 C 0.35297 0.95463 0.36329 0.0
C1481 C 0.34008 0.94058 0.3456 0.0
C1482 C 0.3361 0.01032 0.3523 0.0
C1483 C 0.3679 0.94499 0.37932 0.0
C1484 C 0.39992 0.01854 0.39769 0.0
C1485 C 0.39181 0.01952 0.42053 0.0
C1486 C 0.38709 0.00498 0.37961 0.0
C1487 C 0.36544 0.99256 0.38437 0.0
C1488 C 0.35692 0.994 0.40722 0.0
C1489 C 0.37032 0.00726 0.42509 0.0
C1490 C 0.39688 0.00358 0.35557 0.0
C1491 C 0.33374 0.98138 0.41285 0.0
H1492 H 0.31518 0.97833 0.32008 0.0
H1493 H 0.34092 0.92303 0.34381 0.0
H1494 H 0.33067 0.01418 0.37024 0.0
H1495 H 0.3526 0.02168 0.34994 0.0
H1496 H 0.32406 0.01417 0.33919 0.0
H1497 H 0.36714 0.92693 0.37487 0.0
H1498 H 0.38542 0.95449 0.37812 0.0
H1499 H 0.36305 0.94678 0.39789 0.0
H1500 H 0.41648 0.0281 0.39412 0.0
H1501 H 0.36397 0.00804 0.4427 0.0
H1502 H 0.38609 0.00877 0.34205 0.0
H1503 H 0.39761 0.98592 0.35087 0.0
H1504 H 0.41394 0.01436 0.35474 0.0
H1505 H 0.32135 0.98552 0.40038 0.0
H1506 H 0.32915 0.98537 0.43111 0.0
H1507 H 0.33257 0.963 0.4107 0.0
C1508 C 0.64903 0.78201 0.78177 0.0
C1509 C 0.67212 0.78863 0.77887 0.0
C1510 C 0.63894 0.78981 0.80144 0.0
C1511 C 0.65225 0.80456 0.81864 0.0
C1512 C 0.67553 0.81152 0.81569 0.0
C1513 C 0.68518 0.80349 0.79583 0.0
C1514 C 0.61407 0.78207 0.80396 0.0
C1515 C 0.69028 0.82721 0.83368 0.0
C1516 C 0.6252 0.8401 0.86054 0.0
C1517 C 0.62358 0.82785 0.88099 0.0
C1518 C 0.63419 0.83255 0.84 0.0
C1519 C 0.64193 0.81238 0.83998 0.0
C1520 C 0.64023 0.79989 0.86053 0.0
C1521 C 0.63115 0.80783 0.88081 0.0
C1522 C 0.63577 0.84635 0.81845 0.0
C1523 C 0.64834 0.77833 0.86121 0.0
H1524 H 0.6388 0.77056 0.76875 0.0
H1525 H 0.70302 0.8087 0.79374 0.0
H1526 H 0.61051 0.7727 0.82025 0.0
H1527 H 0.60634 0.79682 0.80567 0.0
H1528 H 0.60599 0.77103 0.78873 0.0
H1529 H 0.708 0.8314 0.82853 0.0
H1530 H 0.68442 0.84306 0.8361 0.0
H1531 H 0.6893 0.81937 0.85098 0.0
H1532 H 0.6197 0.85578 0.86076 0.0
H1533 H 0.63022 0.79851 0.89669 0.0
H1534 H 0.62712 0.83586 0.80317 0.0
H1535 H 0.6535 0.85221 0.81386 0.0
H1536 H 0.62837 0.86126 0.82112 0.0
H1537 H 0.63991 0.76619 0.84701 0.0
H1538 H 0.64529 0.77031 0.87837 0.0
H1539 H 0.66649 0.78178 0.85801 0.0
loop_
_geom_bond_atom_site_label_1
_geom_bond_atom_site_label_2
_geom_bond_distance
_geom_bond_site_symmetry_2
_ccdc_geom_bond_type
O0 Cd1 2.300 . S
O0 C7 1.275 . S
Cd1 O0 2.300 . S
Cd1 O9 2.381 . S
Cd1 O10 2.378 . S
O2 Cd3 2.385 . S
O2 C7 1.255 . S
Cd3 O2 2.385 . S
Cd3 O4 2.317 . S
O4 Cd3 2.317 . S
O4 C5 1.232 . S
C5 O4 1.232 . S
C5 O6 1.218 . S
O6 C5 1.218 . S
C7 O0 1.275 . S
C7 O2 1.255 . S
C8 O9 1.258 . S
C8 O10 1.256 . S
O9 Cd1 2.381 . S
O9 C8 1.258 . S
O10 Cd1 2.378 . S
O10 C8 1.256 . S
O11 Cd12 2.300 . S
O11 C18 1.275 . S
Cd12 O11 2.300 . S
Cd12 O20 2.381 . S
Cd12 O21 2.378 . S
O13 Cd14 2.385 . S
O13 C18 1.255 . S
Cd14 O13 2.385 . S
Cd14 O15 2.317 . S
O15 Cd14 2.317 . S
O15 C16 1.232 . S
C16 O15 1.232 . S
C16 O17 1.218 . S
O17 C16 1.218 . S
C18 O11 1.275 . S
C18 O13 1.255 . S
C19 O20 1.258 . S
C19 O21 1.256 . S
O20 Cd12 2.381 . S
O20 C19 1.258 . S
O21 Cd12 2.378 . S
O21 C19 1.256 . S
O22 Cd23 2.300 . S
O22 C29 1.275 . S
Cd23 O22 2.300 . S
Cd23 O31 2.381 . S
Cd23 O32 2.378 . S
O24 Cd25 2.385 . S
O24 C29 1.255 . S
Cd25 O24 2.385 . S
Cd25 O26 2.317 . S
O26 Cd25 2.317 . S
O26 C27 1.232 . S
C27 O26 1.232 . S
C27 O28 1.218 . S
O28 C27 1.218 . S
C29 O22 1.275 . S
C29 O24 1.255 . S
C30 O31 1.258 . S
C30 O32 1.256 . S
O31 Cd23 2.381 . S
O31 C30 1.258 . S
O32 Cd23 2.378 . S
O32 C30 1.256 . S
O33 Cd34 2.300 . S
O33 C40 1.275 . S
Cd34 O33 2.300 . S
Cd34 O42 2.381 . S
Cd34 O43 2.378 . S
O35 Cd36 2.385 . S
O35 C40 1.255 . S
Cd36 O35 2.385 . S
Cd36 O37 2.317 . S
O37 Cd36 2.317 . S
O37 C38 1.232 . S
C38 O37 1.232 . S
C38 O39 1.218 . S
O39 C38 1.218 . S
C40 O33 1.275 . S
C40 O35 1.255 . S
C41 O42 1.258 . S
C41 O43 1.256 . S
O42 Cd34 2.381 . S
O42 C41 1.258 . S
O43 Cd34 2.378 . S
O43 C41 1.256 . S
O44 Cd45 2.300 . S
O44 C51 1.275 . S
Cd45 O44 2.300 . S
Cd45 O53 2.381 . S
Cd45 O54 2.378 . S
O46 Cd47 2.385 . S
O46 C51 1.255 . S
Cd47 O46 2.385 . S
Cd47 O48 2.317 . S
O48 Cd47 2.317 . S
O48 C49 1.232 . S
C49 O48 1.232 . S
C49 O50 1.218 . S
O50 C49 1.218 . S
C51 O44 1.275 . S
C51 O46 1.255 . S
C52 O53 1.258 . S
C52 O54 1.256 . S
O53 Cd45 2.381 . S
O53 C52 1.258 . S
O54 Cd45 2.378 . S
O54 C52 1.256 . S
O55 Cd56 2.300 . S
O55 C62 1.275 . S
Cd56 O55 2.300 . S
Cd56 O64 2.381 . S
Cd56 O65 2.378 . S
O57 Cd58 2.385 . S
O57 C62 1.255 . S
Cd58 O57 2.385 . S
Cd58 O59 2.317 . S
O59 Cd58 2.317 . S
O59 C60 1.232 . S
C60 O59 1.232 . S
C60 O61 1.218 . S
O61 C60 1.218 . S
C62 O55 1.275 . S
C62 O57 1.255 . S
C63 O64 1.258 . S
C63 O65 1.256 . S
O64 Cd56 2.381 . S
O64 C63 1.258 . S
O65 Cd56 2.378 . S
O65 C63 1.256 . S
O66 Cd67 2.300 . S
O66 C73 1.275 . S
Cd67 O66 2.300 . S
Cd67 O75 2.381 . S
Cd67 O76 2.378 . S
O68 Cd69 2.385 . S
O68 C73 1.255 . S
Cd69 O68 2.385 . S
Cd69 O70 2.317 . S
O70 Cd69 2.317 . S
O70 C71 1.232 . S
C71 O70 1.232 . S
C71 O72 1.218 . S
O72 C71 1.218 . S
C73 O66 1.275 . S
C73 O68 1.255 . S
C74 O75 1.258 . S
C74 O76 1.256 . S
O75 Cd67 2.381 . S
O75 C74 1.258 . S
O76 Cd67 2.378 . S
O76 C74 1.256 . S
O77 Cd78 2.300 . S
O77 C84 1.275 . S
Cd78 O77 2.300 . S
Cd78 O86 2.381 . S
Cd78 O87 2.378 . S
O79 Cd80 2.385 . S
O79 C84 1.255 . S
Cd80 O79 2.385 . S
Cd80 O81 2.317 . S
O81 Cd80 2.317 . S
O81 C82 1.232 . S
C82 O81 1.232 . S
C82 O83 1.218 . S
O83 C82 1.218 . S
C84 O77 1.275 . S
C84 O79 1.255 . S
C85 O86 1.258 . S
C85 O87 1.256 . S
O86 Cd78 2.381 . S
O86 C85 1.258 . S
O87 Cd78 2.378 . S
O87 C85 1.256 . S
C88 C89 1.560 . S
C88 H149 0.959 . S
C88 H150 0.959 . S
C88 H151 0.960 . S
C89 C88 1.560 . S
C89 O144 1.426 . S
C89 H148 0.980 . S
C90 C91 1.407 . S
C90 C95 1.418 . S
C90 O144 1.334 . S
C91 C90 1.407 . S
C91 C92 1.360 . S
C91 H152 0.929 . S
C92 C91 1.360 . S
C92 C93 1.401 . S
C92 C96 1.527 . S
C93 C92 1.401 . S
C93 C94 1.405 . S
C93 C126 1.587 1_655 S
C94 C93 1.405 . S
C94 C95 1.332 . S
C94 C97 1.496 1_655 S
C95 C90 1.418 . S
C95 C94 1.332 . S
C95 H153 0.929 . S
C96 C92 1.527 . S
C96 H154 0.959 . S
C96 H155 0.961 . S
C96 H156 0.961 . S
C97 C94 1.496 1_455 S
C97 H157 0.960 . S
C97 H158 0.960 . S
C97 H159 0.961 . S
C98 C99 1.517 . S
C98 H161 0.961 . S
C98 H162 0.960 . S
C98 H163 0.959 . S
C99 C98 1.517 . S
C99 O147 1.468 . S
C99 H160 0.980 . S
C100 C101 1.349 . S
C100 C105 1.367 . S
C100 O147 1.408 . S
C101 C100 1.349 . S
C101 C102 1.407 . S
C101 H164 0.930 . S
C102 C101 1.407 . S
C102 C103 1.449 . S
C102 C106 1.535 . S
C103 C102 1.449 . S
C103 C104 1.384 . S
C103 C128 1.553 . S
C104 C103 1.384 . S
C104 C105 1.364 . S
C104 C107 1.450 . S
C105 C100 1.367 . S
C105 C104 1.364 . S
C105 H165 0.931 . S
C106 C102 1.535 . S
C106 H166 0.959 . S
C106 H167 0.961 . S
C106 H168 0.959 . S
C107 C104 1.450 . S
C107 H169 0.960 . S
C107 H170 0.960 . S
C107 H171 0.960 . S
C108 C109 1.309 . S
C108 C113 1.304 . S
C108 O146 1.435 . S
C109 C108 1.309 . S
C109 C110 1.476 . S
C109 H173 0.930 . S
C110 C109 1.476 . S
C110 C111 1.400 . S
C110 C114 1.567 . S
C111 C110 1.400 . S
C111 C112 1.373 . S
C111 C133 1.432 . S
C112 C111 1.373 . S
C112 C113 1.339 . S
C112 C115 1.530 . S
C113 C108 1.304 . S
C113 C112 1.339 . S
C113 H174 0.930 . S
C114 C110 1.567 . S
C114 H175 0.961 . S
C114 H176 0.960 . S
C114 H177 0.958 . S
C115 C112 1.530 . S
C115 H178 0.961 . S
C115 H179 0.960 . S
C115 H180 0.960 . S
C116 C117 1.530 . S
C116 H182 0.961 . S
C116 H183 0.961 . S
C116 H184 0.959 . S
C117 C116 1.530 . S
C117 O145 1.412 . S
C117 H181 0.980 . S
C118 C119 1.288 . S
C118 C123 1.377 . S
C118 O145 1.393 . S
C119 C118 1.288 . S
C119 C120 1.369 . S
C119 H185 0.932 . S
C120 C119 1.369 . S
C120 C121 1.398 . S
C120 C124 1.527 1_655 S
C121 C120 1.398 . S
C121 C122 1.380 . S
C121 C135 1.497 1_655 S
C122 C121 1.380 . S
C122 C123 1.383 . S
C122 C125 1.603 . S
C123 C118 1.377 . S
C123 C122 1.383 . S
C123 H186 0.929 . S
C124 C120 1.527 1_455 S
C124 H187 0.961 . S
C124 H188 0.959 . S
C124 H189 0.959 . S
C125 C122 1.603 . S
C125 H190 0.960 . S
C125 H191 0.962 . S
C125 H192 0.961 . S
C126 C93 1.587 1_455 S
C126 C127 1.360 . S
C126 C139 1.412 . S
C127 C126 1.360 . S
C127 C128 1.365 . S
C127 H193 0.929 . S
C128 C103 1.553 . S
C128 C127 1.365 . S
C128 C129 1.404 . S
C129 C128 1.404 . S
C129 C130 1.395 . S
C129 C140 1.451 . S
C130 C129 1.395 . S
C130 C131 1.322 . S
C130 H194 0.930 . S
C131 C130 1.322 . S
C131 C132 1.459 . S
C131 H195 0.929 . S
C132 C131 1.459 . S
C132 C133 1.445 . S
C132 C141 1.395 . S
C133 C111 1.432 . S
C133 C132 1.445 . S
C133 C134 1.370 . S
C134 C133 1.370 . S
C134 C135 1.438 . S
C134 H196 0.930 . S
C135 C121 1.497 1_455 S
C135 C134 1.438 . S
C135 C136 1.360 . S
C136 C135 1.360 . S
C136 C137 1.401 1_455 S
C136 C141 1.446 . S
C137 C136 1.401 1_655 S
C137 C138 1.347 . S
C137 H197 0.929 . S
C138 C137 1.347 . S
C138 C139 1.455 1_655 S
C138 H198 0.930 . S
C139 C126 1.412 . S
C139 C138 1.455 1_455 S
C139 C140 1.331 . S
C140 C129 1.451 . S
C140 C139 1.331 . S
C140 C141 1.497 . S
C141 C132 1.395 . S
C141 C136 1.446 . S
C141 C140 1.497 . S
C142 C143 1.582 . S
C142 H199 0.962 . S
C142 H200 0.959 . S
C142 H201 0.958 . S
C143 C142 1.582 . S
C143 O146 1.458 . S
C143 H172 0.980 . S
O144 C89 1.426 . S
O144 C90 1.334 . S
O145 C117 1.412 . S
O145 C118 1.393 . S
O146 C108 1.435 . S
O146 C143 1.458 . S
O147 C99 1.468 . S
O147 C100 1.408 . S
H148 C89 0.980 . S
H149 C88 0.959 . S
H150 C88 0.959 . S
H151 C88 0.960 . S
H152 C91 0.929 . S
H153 C95 0.929 . S
H154 C96 0.959 . S
H155 C96 0.961 . S
H156 C96 0.961 . S
H157 C97 0.960 . S
H158 C97 0.960 . S
H159 C97 0.961 . S
H160 C99 0.980 . S
H161 C98 0.961 . S
H162 C98 0.960 . S
H163 C98 0.959 . S
H164 C101 0.930 . S
H165 C105 0.931 . S
H166 C106 0.959 . S
H167 C106 0.961 . S
H168 C106 0.959 . S
H169 C107 0.960 . S
H170 C107 0.960 . S
H171 C107 0.960 . S
H172 C143 0.980 . S
H173 C109 0.930 . S
H174 C113 0.930 . S
H175 C114 0.961 . S
H176 C114 0.960 . S
H177 C114 0.958 . S
H178 C115 0.961 . S
H179 C115 0.960 . S
H180 C115 0.960 . S
H181 C117 0.980 . S
H182 C116 0.961 . S
H183 C116 0.961 . S
H184 C116 0.959 . S
H185 C119 0.932 . S
H186 C123 0.929 . S
H187 C124 0.961 . S
H188 C124 0.959 . S
H189 C124 0.959 . S
H190 C125 0.960 . S
H191 C125 0.962 . S
H192 C125 0.961 . S
H193 C127 0.929 . S
H194 C130 0.930 . S
H195 C131 0.929 . S
H196 C134 0.930 . S
H197 C137 0.929 . S
H198 C138 0.930 . S
H199 C142 0.962 . S
H200 C142 0.959 . S
H201 C142 0.958 . S
C202 C203 1.560 . S
C202 H263 0.959 . S
C202 H264 0.959 . S
C202 H265 0.960 . S
C203 C202 1.560 . S
C203 O258 1.426 . S
C203 H262 0.980 . S
C204 C205 1.407 . S
C204 C209 1.418 . S
C204 O258 1.334 . S
C205 C204 1.407 . S
C205 C206 1.360 . S
C205 H266 0.929 . S
C206 C205 1.360 . S
C206 C207 1.401 . S
C206 C210 1.527 . S
C207 C206 1.401 . S
C207 C208 1.405 . S
C207 C240 1.587 . S
C208 C207 1.405 . S
C208 C209 1.332 . S
C208 C211 1.496 . S
C209 C204 1.418 . S
C209 C208 1.332 . S
C209 H267 0.929 . S
C210 C206 1.527 . S
C210 H268 0.959 . S
C210 H269 0.961 . S
C210 H270 0.961 . S
C211 C208 1.496 . S
C211 H271 0.960 . S
C211 H272 0.960 . S
C211 H273 0.961 . S
C212 C213 1.517 . S
C212 H275 0.961 . S
C212 H276 0.960 . S
C212 H277 0.959 . S
C213 C212 1.517 . S
C213 O261 1.468 . S
C213 H274 0.980 . S
C214 C215 1.349 . S
C214 C219 1.367 . S
C214 O261 1.408 . S
C215 C214 1.349 . S
C215 C216 1.407 . S
C215 H278 0.930 . S
C216 C215 1.407 . S
C216 C217 1.449 . S
C216 C220 1.535 . S
C217 C216 1.449 . S
C217 C218 1.384 . S
C217 C242 1.553 . S
C218 C217 1.384 . S
C218 C219 1.364 . S
C218 C221 1.450 . S
C219 C214 1.367 . S
C219 C218 1.364 . S
C219 H279 0.931 . S
C220 C216 1.535 . S
C220 H280 0.959 . S
C220 H281 0.961 . S
C220 H282 0.959 . S
C221 C218 1.450 . S
C221 H283 0.960 . S
C221 H284 0.960 . S
C221 H285 0.960 . S
C222 C223 1.309 . S
C222 C227 1.304 . S
C222 O260 1.435 . S
C223 C222 1.309 . S
C223 C224 1.476 . S
C223 H287 0.930 . S
C224 C223 1.476 . S
C224 C225 1.400 . S
C224 C228 1.567 . S
C225 C224 1.400 . S
C225 C226 1.373 . S
C225 C247 1.432 . S
C226 C225 1.373 . S
C226 C227 1.339 . S
C226 C229 1.530 . S
C227 C222 1.304 . S
C227 C226 1.339 . S
C227 H288 0.930 . S
C228 C224 1.567 . S
C228 H289 0.961 . S
C228 H290 0.960 . S
C228 H291 0.958 . S
C229 C226 1.530 . S
C229 H292 0.961 . S
C229 H293 0.960 . S
C229 H294 0.960 . S
C230 C231 1.530 . S
C230 H296 0.961 . S
C230 H297 0.961 . S
C230 H298 0.959 . S
C231 C230 1.530 . S
C231 O259 1.412 . S
C231 H295 0.980 . S
C232 C233 1.288 . S
C232 C237 1.377 . S
C232 O259 1.393 . S
C233 C232 1.288 . S
C233 C234 1.369 . S
C233 H299 0.932 . S
C234 C233 1.369 . S
C234 C235 1.398 . S
C234 C238 1.527 . S
C235 C234 1.398 . S
C235 C236 1.380 . S
C235 C249 1.497 . S
C236 C235 1.380 . S
C236 C237 1.383 . S
C236 C239 1.603 . S
C237 C232 1.377 . S
C237 C236 1.383 . S
C237 H300 0.929 . S
C238 C234 1.527 . S
C238 H301 0.961 . S
C238 H302 0.959 . S
C238 H303 0.959 . S
C239 C236 1.603 . S
C239 H304 0.960 . S
C239 H305 0.962 . S
C239 H306 0.961 . S
C240 C207 1.587 . S
C240 C241 1.360 . S
C240 C253 1.412 . S
C241 C240 1.360 . S
C241 C242 1.365 1_455 S
C241 H307 0.929 . S
C242 C217 1.553 . S
C242 C241 1.365 1_655 S
C242 C243 1.404 . S
C243 C242 1.404 . S
C243 C244 1.395 . S
C243 C254 1.451 1_655 S
C244 C243 1.395 . S
C244 C245 1.322 . S
C244 H308 0.930 . S
C245 C244 1.322 . S
C245 C246 1.459 . S
C245 H309 0.929 . S
C246 C245 1.459 . S
C246 C247 1.445 . S
C246 C255 1.395 1_655 S
C247 C225 1.432 . S
C247 C246 1.445 . S
C247 C248 1.370 1_655 S
C248 C247 1.370 1_455 S
C248 C249 1.438 . S
C248 H310 0.930 . S
C249 C235 1.497 . S
C249 C248 1.438 . S
C249 C250 1.360 . S
C250 C249 1.360 . S
C250 C251 1.401 . S
C250 C255 1.446 . S
C251 C250 1.401 . S
C251 C252 1.347 . S
C251 H311 0.929 . S
C252 C251 1.347 . S
C252 C253 1.455 . S
C252 H312 0.930 . S
C253 C240 1.412 . S
C253 C252 1.455 . S
C253 C254 1.331 . S
C254 C243 1.451 1_455 S
C254 C253 1.331 . S
C254 C255 1.497 . S
C255 C246 1.395 1_455 S
C255 C250 1.446 . S
C255 C254 1.497 . S
C256 C257 1.582 . S
C256 H313 0.962 . S
C256 H314 0.959 . S
C256 H315 0.958 . S
C257 C256 1.582 . S
C257 O260 1.458 . S
C257 H286 0.980 . S
O258 C203 1.426 . S
O258 C204 1.334 . S
O259 C231 1.412 . S
O259 C232 1.393 . S
O260 C222 1.435 . S
O260 C257 1.458 . S
O261 C213 1.468 . S
O261 C214 1.408 . S
H262 C203 0.980 . S
H263 C202 0.959 . S
H264 C202 0.959 . S
H265 C202 0.960 . S
H266 C205 0.929 . S
H267 C209 0.929 . S
H268 C210 0.959 . S
H269 C210 0.961 . S
H270 C210 0.961 . S
H271 C211 0.960 . S
H272 C211 0.960 . S
H273 C211 0.961 . S
H274 C213 0.980 . S
H275 C212 0.961 . S
H276 C212 0.960 . S
H277 C212 0.959 . S
H278 C215 0.930 . S
H279 C219 0.931 . S
H280 C220 0.959 . S
H281 C220 0.961 . S
H282 C220 0.959 . S
H283 C221 0.960 . S
H284 C221 0.960 . S
H285 C221 0.960 . S
H286 C257 0.980 . S
H287 C223 0.930 . S
H288 C227 0.930 . S
H289 C228 0.961 . S
H290 C228 0.960 . S
H291 C228 0.958 . S
H292 C229 0.961 . S
H293 C229 0.960 . S
H294 C229 0.960 . S
H295 C231 0.980 . S
H296 C230 0.961 . S
H297 C230 0.961 . S
H298 C230 0.959 . S
H299 C233 0.932 . S
H300 C237 0.929 . S
H301 C238 0.961 . S
H302 C238 0.959 . S
H303 C238 0.959 . S
H304 C239 0.960 . S
H305 C239 0.962 . S
H306 C239 0.961 . S
H307 C241 0.929 . S
H308 C244 0.930 . S
H309 C245 0.929 . S
H310 C248 0.930 . S
H311 C251 0.929 . S
H312 C252 0.930 . S
H313 C256 0.962 . S
H314 C256 0.959 . S
H315 C256 0.958 . S
C316 C317 1.560 . S
C316 H377 0.959 . S
C316 H378 0.959 . S
C316 H379 0.960 . S
C317 C316 1.560 . S
C317 O372 1.426 . S
C317 H376 0.980 . S
C318 C319 1.407 . S
C318 C323 1.418 . S
C318 O372 1.334 . S
C319 C318 1.407 . S
C319 C320 1.360 . S
C319 H380 0.929 . S
C320 C319 1.360 . S
C320 C321 1.401 . S
C320 C324 1.527 . S
C321 C320 1.401 . S
C321 C322 1.405 . S
C321 C354 1.587 . S
C322 C321 1.405 . S
C322 C323 1.332 . S
C322 C325 1.496 . S
C323 C318 1.418 . S
C323 C322 1.332 . S
C323 H381 0.929 . S
C324 C320 1.527 . S
C324 H382 0.959 . S
C324 H383 0.961 . S
C324 H384 0.961 . S
C325 C322 1.496 . S
C325 H385 0.960 . S
C325 H386 0.960 . S
C325 H387 0.961 . S
C326 C327 1.517 . S
C326 H389 0.961 1_545 S
C326 H390 0.960 . S
C326 H391 0.959 1_545 S
C327 C326 1.517 . S
C327 O375 1.468 . S
C327 H388 0.980 . S
C328 C329 1.349 . S
C328 C333 1.367 . S
C328 O375 1.408 . S
C329 C328 1.349 . S
C329 C330 1.407 . S
C329 H392 0.930 . S
C330 C329 1.407 . S
C330 C331 1.449 . S
C330 C334 1.535 . S
C331 C330 1.449 . S
C331 C332 1.384 . S
C331 C356 1.553 . S
C332 C331 1.384 . S
C332 C333 1.364 . S
C332 C335 1.450 . S
C333 C328 1.367 . S
C333 C332 1.364 . S
C333 H393 0.931 . S
C334 C330 1.535 . S
C334 H394 0.959 . S
C334 H395 0.961 . S
C334 H396 0.959 . S
C335 C332 1.450 . S
C335 H397 0.960 . S
C335 H398 0.960 . S
C335 H399 0.960 . S
C336 C337 1.309 . S
C336 C341 1.304 . S
C336 O374 1.435 . S
C337 C336 1.309 . S
C337 C338 1.476 . S
C337 H401 0.930 . S
C338 C337 1.476 . S
C338 C339 1.400 . S
C338 C342 1.567 . S
C339 C338 1.400 . S
C339 C340 1.373 . S
C339 C361 1.432 . S
C340 C339 1.373 . S
C340 C341 1.339 . S
C340 C343 1.530 . S
C341 C336 1.304 . S
C341 C340 1.339 . S
C341 H402 0.930 . S
C342 C338 1.567 . S
C342 H403 0.961 . S
C342 H404 0.960 . S
C342 H405 0.958 . S
C343 C340 1.530 . S
C343 H406 0.961 . S
C343 H407 0.960 . S
C343 H408 0.960 . S
C344 C345 1.530 . S
C344 H410 0.961 . S
C344 H411 0.961 . S
C344 H412 0.959 . S
C345 C344 1.530 . S
C345 O373 1.412 . S
C345 H409 0.980 . S
C346 C347 1.288 . S
C346 C351 1.377 . S
C346 O373 1.393 . S
C347 C346 1.288 . S
C347 C348 1.369 . S
C347 H413 0.932 . S
C348 C347 1.369 . S
C348 C349 1.398 . S
C348 C352 1.527 . S
C349 C348 1.398 . S
C349 C350 1.380 . S
C349 C363 1.497 . S
C350 C349 1.380 . S
C350 C351 1.383 . S
C350 C353 1.603 . S
C351 C346 1.377 . S
C351 C350 1.383 . S
C351 H414 0.929 . S
C352 C348 1.527 . S
C352 H415 0.961 . S
C352 H416 0.959 . S
C352 H417 0.959 . S
C353 C350 1.603 . S
C353 H418 0.960 . S
C353 H419 0.962 . S
C353 H420 0.961 . S
C354 C321 1.587 . S
C354 C355 1.360 . S
C354 C367 1.412 . S
C355 C354 1.360 . S
C355 C356 1.365 . S
C355 H421 0.929 . S
C356 C331 1.553 . S
C356 C355 1.365 . S
C356 C357 1.404 . S
C357 C356 1.404 . S
C357 C358 1.395 . S
C357 C368 1.451 . S
C358 C357 1.395 . S
C358 C359 1.322 . S
C358 H422 0.930 . S
C359 C358 1.322 . S
C359 C360 1.459 . S
C359 H423 0.929 . S
C360 C359 1.459 . S
C360 C361 1.445 . S
C360 C369 1.395 . S
C361 C339 1.432 . S
C361 C360 1.445 . S
C361 C362 1.370 . S
C362 C361 1.370 . S
C362 C363 1.438 . S
C362 H424 0.930 . S
C363 C349 1.497 . S
C363 C362 1.438 . S
C363 C364 1.360 . S
C364 C363 1.360 . S
C364 C365 1.401 . S
C364 C369 1.446 . S
C365 C364 1.401 . S
C365 C366 1.347 . S
C365 H425 0.929 . S
C366 C365 1.347 . S
C366 C367 1.455 . S
C366 H426 0.930 . S
C367 C354 1.412 . S
C367 C366 1.455 . S
C367 C368 1.331 . S
C368 C357 1.451 . S
C368 C367 1.331 . S
C368 C369 1.497 . S
C369 C360 1.395 . S
C369 C364 1.446 . S
C369 C368 1.497 . S
C370 C371 1.582 1_565 S
C370 H427 0.962 . S
C370 H428 0.959 . S
C370 H429 0.958 1_565 S
C371 C370 1.582 1_545 S
C371 O374 1.458 . S
C371 H400 0.980 . S
O372 C317 1.426 . S
O372 C318 1.334 . S
O373 C345 1.412 . S
O373 C346 1.393 . S
O374 C336 1.435 . S
O374 C371 1.458 . S
O375 C327 1.468 . S
O375 C328 1.408 . S
H376 C317 0.980 . S
H377 C316 0.959 . S
H378 C316 0.959 . S
H379 C316 0.960 . S
H380 C319 0.929 . S
H381 C323 0.929 . S
H382 C324 0.959 . S
H383 C324 0.961 . S
H384 C324 0.961 . S
H385 C325 0.960 . S
H386 C325 0.960 . S
H387 C325 0.961 . S
H388 C327 0.980 . S
H389 C326 0.961 1_565 S
H390 C326 0.960 . S
H391 C326 0.959 1_565 S
H392 C329 0.930 . S
H393 C333 0.931 . S
H394 C334 0.959 . S
H395 C334 0.961 . S
H396 C334 0.959 . S
H397 C335 0.960 . S
H398 C335 0.960 . S
H399 C335 0.960 . S
H400 C371 0.980 . S
H401 C337 0.930 . S
H402 C341 0.930 . S
H403 C342 0.961 . S
H404 C342 0.960 . S
H405 C342 0.958 . S
H406 C343 0.961 . S
H407 C343 0.960 . S
H408 C343 0.960 . S
H409 C345 0.980 . S
H410 C344 0.961 . S
H411 C344 0.961 . S
H412 C344 0.959 . S
H413 C347 0.932 . S
H414 C351 0.929 . S
H415 C352 0.961 . S
H416 C352 0.959 . S
H417 C352 0.959 . S
H418 C353 0.960 . S
H419 C353 0.962 . S
H420 C353 0.961 . S
H421 C355 0.929 . S
H422 C358 0.930 . S
H423 C359 0.929 . S
H424 C362 0.930 . S
H425 C365 0.929 . S
H426 C366 0.930 . S
H427 C370 0.962 . S
H428 C370 0.959 . S
H429 C370 0.958 1_545 S
C430 C431 1.560 . S
C430 H491 0.959 . S
C430 H492 0.959 . S
C430 H493 0.960 . S
C431 C430 1.560 . S
C431 O486 1.426 . S
C431 H490 0.980 . S
C432 C433 1.407 . S
C432 C437 1.418 . S
C432 O486 1.334 . S
C433 C432 1.407 . S
C433 C434 1.360 . S
C433 H494 0.929 . S
C434 C433 1.360 . S
C434 C435 1.401 . S
C434 C438 1.527 . S
C435 C434 1.401 . S
C435 C436 1.405 . S
C435 C468 1.587 . S
C436 C435 1.405 . S
C436 C437 1.332 . S
C436 C439 1.496 . S
C437 C432 1.418 . S
C437 C436 1.332 . S
C437 H495 0.929 . S
C438 C434 1.527 . S
C438 H496 0.959 . S
C438 H497 0.961 . S
C438 H498 0.961 . S
C439 C436 1.496 . S
C439 H499 0.960 . S
C439 H500 0.960 . S
C439 H501 0.961 . S
C440 C441 1.517 . S
C440 H503 0.961 . S
C440 H504 0.960 . S
C440 H505 0.959 . S
C441 C440 1.517 . S
C441 O489 1.468 . S
C441 H502 0.980 . S
C442 C443 1.349 . S
C442 C447 1.367 . S
C442 O489 1.408 . S
C443 C442 1.349 . S
C443 C444 1.407 . S
C443 H506 0.930 . S
C444 C443 1.407 . S
C444 C445 1.449 . S
C444 C448 1.535 . S
C445 C444 1.449 . S
C445 C446 1.384 . S
C445 C470 1.553 . S
C446 C445 1.384 . S
C446 C447 1.364 . S
C446 C449 1.450 . S
C447 C442 1.367 . S
C447 C446 1.364 . S
C447 H507 0.931 . S
C448 C444 1.535 . S
C448 H508 0.959 . S
C448 H509 0.961 . S
C448 H510 0.959 . S
C449 C446 1.450 . S
C449 H511 0.960 . S
C449 H512 0.960 . S
C449 H513 0.960 . S
C450 C451 1.309 . S
C450 C455 1.304 . S
C450 O488 1.435 . S
C451 C450 1.309 . S
C451 C452 1.476 . S
C451 H515 0.930 . S
C452 C451 1.476 . S
C452 C453 1.400 . S
C452 C456 1.567 . S
C453 C452 1.400 . S
C453 C454 1.373 . S
C453 C475 1.432 . S
C454 C453 1.373 . S
C454 C455 1.339 . S
C454 C457 1.530 . S
C455 C450 1.304 . S
C455 C454 1.339 . S
C455 H516 0.930 . S
C456 C452 1.567 . S
C456 H517 0.961 . S
C456 H518 0.960 . S
C456 H519 0.958 . S
C457 C454 1.530 . S
C457 H520 0.961 . S
C457 H521 0.960 . S
C457 H522 0.960 . S
C458 C459 1.530 . S
C458 H524 0.961 . S
C458 H525 0.961 . S
C458 H526 0.959 . S
C459 C458 1.530 . S
C459 O487 1.412 . S
C459 H523 0.980 . S
C460 C461 1.288 . S
C460 C465 1.377 . S
C460 O487 1.393 . S
C461 C460 1.288 . S
C461 C462 1.369 . S
C461 H527 0.932 . S
C462 C461 1.369 . S
C462 C463 1.398 . S
C462 C466 1.527 . S
C463 C462 1.398 . S
C463 C464 1.380 . S
C463 C477 1.497 . S
C464 C463 1.380 . S
C464 C465 1.383 . S
C464 C467 1.603 . S
C465 C460 1.377 . S
C465 C464 1.383 . S
C465 H528 0.929 . S
C466 C462 1.527 . S
C466 H529 0.961 . S
C466 H530 0.959 . S
C466 H531 0.959 . S
C467 C464 1.603 . S
C467 H532 0.960 . S
C467 H533 0.962 . S
C467 H534 0.961 . S
C468 C435 1.587 . S
C468 C469 1.360 . S
C468 C481 1.412 . S
C469 C468 1.360 . S
C469 C470 1.365 . S
C469 H535 0.929 . S
C470 C445 1.553 . S
C470 C469 1.365 . S
C470 C471 1.404 . S
C471 C470 1.404 . S
C471 C472 1.395 . S
C471 C482 1.451 . S
C472 C471 1.395 . S
C472 C473 1.322 1_554 S
C472 H536 0.930 . S
C473 C472 1.322 1_556 S
C473 C474 1.459 . S
C473 H537 0.929 . S
C474 C473 1.459 . S
C474 C475 1.445 . S
C474 C483 1.395 . S
C475 C453 1.432 . S
C475 C474 1.445 . S
C475 C476 1.370 . S
C476 C475 1.370 . S
C476 C477 1.438 . S
C476 H538 0.930 . S
C477 C463 1.497 . S
C477 C476 1.438 . S
C477 C478 1.360 . S
C478 C477 1.360 . S
C478 C479 1.389 1_556 S
C478 C483 1.446 . S
C479 C478 1.389 1_554 S
C479 C480 1.367 . S
C479 H539 0.920 1_554 S
C480 C479 1.367 . S
C480 C481 1.455 . S
C480 H540 0.930 . S
C481 C468 1.412 . S
C481 C480 1.455 . S
C481 C482 1.331 . S
C482 C471 1.451 . S
C482 C481 1.331 . S
C482 C483 1.497 1_554 S
C483 C474 1.395 . S
C483 C478 1.446 . S
C483 C482 1.497 1_556 S
C484 C485 1.582 . S
C484 H541 0.962 . S
C484 H542 0.959 . S
C484 H543 0.958 . S
C485 C484 1.582 . S
C485 O488 1.458 . S
C485 H514 0.980 . S
O486 C431 1.426 . S
O486 C432 1.334 . S
O487 C459 1.412 . S
O487 C460 1.393 . S
O488 C450 1.435 . S
O488 C485 1.458 . S
O489 C441 1.468 . S
O489 C442 1.408 . S
H490 C431 0.980 . S
H491 C430 0.959 . S
H492 C430 0.959 . S
H493 C430 0.960 . S
H494 C433 0.929 . S
H495 C437 0.929 . S
H496 C438 0.959 . S
H497 C438 0.961 . S
H498 C438 0.961 . S
H499 C439 0.960 . S
H500 C439 0.960 . S
H501 C439 0.961 . S
H502 C441 0.980 . S
H503 C440 0.961 . S
H504 C440 0.960 . S
H505 C440 0.959 . S
H506 C443 0.930 . S
H507 C447 0.931 . S
H508 C448 0.959 . S
H509 C448 0.961 . S
H510 C448 0.959 . S
H511 C449 0.960 . S
H512 C449 0.960 . S
H513 C449 0.960 . S
H514 C485 0.980 . S
H515 C451 0.930 . S
H516 C455 0.930 . S
H517 C456 0.961 . S
H518 C456 0.960 . S
H519 C456 0.958 . S
H520 C457 0.961 . S
H521 C457 0.960 . S
H522 C457 0.960 . S
H523 C459 0.980 . S
H524 C458 0.961 . S
H525 C458 0.961 . S
H526 C458 0.959 . S
H527 C461 0.932 . S
H528 C465 0.929 . S
H529 C466 0.961 . S
H530 C466 0.959 . S
H531 C466 0.959 . S
H532 C467 0.960 . S
H533 C467 0.962 . S
H534 C467 0.961 . S
H535 C469 0.929 . S
H536 C472 0.930 . S
H537 C473 0.929 . S
H538 C476 0.930 . S
H539 C479 0.920 1_556 S
H540 C480 0.930 . S
H541 C484 0.962 . S
H542 C484 0.959 . S
H543 C484 0.958 . S
C544 C545 1.560 . S
C544 H605 0.959 . S
C544 H606 0.959 . S
C544 H607 0.960 . S
C545 C544 1.560 . S
C545 O600 1.426 . S
C545 H604 0.980 . S
C546 C547 1.407 . S
C546 C551 1.418 . S
C546 O600 1.334 . S
C547 C546 1.407 . S
C547 C548 1.360 . S
C547 H608 0.929 . S
C548 C547 1.360 . S
C548 C549 1.401 . S
C548 C552 1.527 . S
C549 C548 1.401 . S
C549 C550 1.405 . S
C549 C582 1.587 . S
C550 C549 1.405 . S
C550 C551 1.332 . S
C550 C553 1.496 . S
C551 C546 1.418 . S
C551 C550 1.332 . S
C551 H609 0.929 . S
C552 C548 1.527 . S
C552 H610 0.959 . S
C552 H611 0.961 . S
C552 H612 0.961 . S
C553 C550 1.496 . S
C553 H613 0.960 . S
C553 H614 0.960 . S
C553 H615 0.961 . S
C554 C555 1.517 . S
C554 H617 0.961 . S
C554 H618 0.960 . S
C554 H619 0.959 . S
C555 C554 1.517 . S
C555 O603 1.468 . S
C555 H616 0.980 . S
C556 C557 1.349 . S
C556 C561 1.367 . S
C556 O603 1.408 . S
C557 C556 1.349 . S
C557 C558 1.407 . S
C557 H620 0.930 . S
C558 C557 1.407 . S
C558 C559 1.449 . S
C558 C562 1.535 . S
C559 C558 1.449 . S
C559 C560 1.384 . S
C559 C584 1.553 . S
C560 C559 1.384 . S
C560 C561 1.364 . S
C560 C563 1.450 . S
C561 C556 1.367 . S
C561 C560 1.364 . S
C561 H621 0.931 . S
C562 C558 1.535 . S
C562 H622 0.959 . S
C562 H623 0.961 . S
C562 H624 0.959 . S
C563 C560 1.450 . S
C563 H625 0.960 . S
C563 H626 0.960 . S
C563 H627 0.960 . S
C564 C565 1.309 . S
C564 C569 1.304 . S
C564 O602 1.435 . S
C565 C564 1.309 . S
C565 C566 1.476 . S
C565 H629 0.930 . S
C566 C565 1.476 . S
C566 C567 1.400 . S
C566 C570 1.567 . S
C567 C566 1.400 . S
C567 C568 1.373 . S
C567 C589 1.432 . S
C568 C567 1.373 . S
C568 C569 1.339 . S
C568 C571 1.530 . S
C569 C564 1.304 . S
C569 C568 1.339 . S
C569 H630 0.930 . S
C570 C566 1.567 . S
C570 H631 0.961 . S
C570 H632 0.960 . S
C570 H633 0.958 . S
C571 C568 1.530 . S
C571 H634 0.961 . S
C571 H635 0.960 . S
C571 H636 0.960 . S
C572 C573 1.530 . S
C572 H638 0.961 . S
C572 H639 0.961 . S
C572 H640 0.959 . S
C573 C572 1.530 . S
C573 O601 1.412 . S
C573 H637 0.980 . S
C574 C575 1.288 . S
C574 C579 1.377 . S
C574 O601 1.393 . S
C575 C574 1.288 . S
C575 C576 1.369 . S
C575 H641 0.932 . S
C576 C575 1.369 . S
C576 C577 1.398 . S
C576 C580 1.527 . S
C577 C576 1.398 . S
C577 C578 1.380 . S
C577 C591 1.497 . S
C578 C577 1.380 . S
C578 C579 1.383 . S
C578 C581 1.603 . S
C579 C574 1.377 . S
C579 C578 1.383 . S
C579 H642 0.929 . S
C580 C576 1.527 . S
C580 H643 0.961 . S
C580 H644 0.959 . S
C580 H645 0.959 . S
C581 C578 1.603 . S
C581 H646 0.960 . S
C581 H647 0.962 . S
C581 H648 0.961 . S
C582 C549 1.587 . S
C582 C583 1.360 . S
C582 C595 1.412 . S
C583 C582 1.360 . S
C583 C584 1.365 1_545 S
C583 H649 0.929 . S
C584 C559 1.553 . S
C584 C583 1.365 1_565 S
C584 C585 1.404 . S
C585 C584 1.404 . S
C585 C586 1.395 . S
C585 C596 1.451 1_565 S
C586 C585 1.395 . S
C586 C587 1.322 . S
C586 H650 0.930 . S
C587 C586 1.322 . S
C587 C588 1.459 . S
C587 H651 0.929 . S
C588 C587 1.459 . S
C588 C589 1.445 . S
C588 C597 1.395 1_565 S
C589 C567 1.432 . S
C589 C588 1.445 . S
C589 C590 1.387 . S
C590 C589 1.387 . S
C590 C591 1.420 1_565 S
C590 H652 0.931 . S
C591 C577 1.497 . S
C591 C590 1.420 1_545 S
C591 C592 1.360 . S
C592 C591 1.360 . S
C592 C593 1.401 . S
C592 C597 1.446 . S
C593 C592 1.401 . S
C593 C594 1.347 . S
C593 H653 0.929 . S
C594 C593 1.347 . S
C594 C595 1.455 . S
C594 H654 0.930 . S
C595 C582 1.412 . S
C595 C594 1.455 . S
C595 C596 1.331 . S
C596 C585 1.451 1_545 S
C596 C595 1.331 . S
C596 C597 1.497 . S
C597 C588 1.395 1_545 S
C597 C592 1.446 . S
C597 C596 1.497 . S
C598 C599 1.582 . S
C598 H655 0.962 . S
C598 H656 0.959 . S
C598 H657 0.958 . S
C599 C598 1.582 . S
C599 O602 1.458 . S
C599 H628 0.980 . S
O600 C545 1.426 . S
O600 C546 1.334 . S
O601 C573 1.412 . S
O601 C574 1.393 . S
O602 C564 1.435 . S
O602 C599 1.458 . S
O603 C555 1.468 . S
O603 C556 1.408 . S
H604 C545 0.980 . S
H605 C544 0.959 . S
H606 C544 0.959 . S
H607 C544 0.960 . S
H608 C547 0.929 . S
H609 C551 0.929 . S
H610 C552 0.959 . S
H611 C552 0.961 . S
H612 C552 0.961 . S
H613 C553 0.960 . S
H614 C553 0.960 . S
H615 C553 0.961 . S
H616 C555 0.980 . S
H617 C554 0.961 . S
H618 C554 0.960 . S
H619 C554 0.959 . S
H620 C557 0.930 . S
H621 C561 0.931 . S
H622 C562 0.959 . S
H623 C562 0.961 . S
H624 C562 0.959 . S
H625 C563 0.960 . S
H626 C563 0.960 . S
H627 C563 0.960 . S
H628 C599 0.980 . S
H629 C565 0.930 . S
H630 C569 0.930 . S
H631 C570 0.961 . S
H632 C570 0.960 . S
H633 C570 0.958 . S
H634 C571 0.961 . S
H635 C571 0.960 . S
H636 C571 0.960 . S
H637 C573 0.980 . S
H638 C572 0.961 . S
H639 C572 0.961 . S
H640 C572 0.959 . S
H641 C575 0.932 . S
H642 C579 0.929 . S
H643 C580 0.961 . S
H644 C580 0.959 . S
H645 C580 0.959 . S
H646 C581 0.960 . S
H647 C581 0.962 . S
H648 C581 0.961 . S
H649 C583 0.929 . S
H650 C586 0.930 . S
H651 C587 0.929 . S
H652 C590 0.931 . S
H653 C593 0.929 . S
H654 C594 0.930 . S
H655 C598 0.962 . S
H656 C598 0.959 . S
H657 C598 0.958 . S
C658 C659 1.560 . S
C658 H719 0.959 . S
C658 H720 0.959 . S
C658 H721 0.960 . S
C659 C658 1.560 . S
C659 O714 1.426 . S
C659 H718 0.980 . S
C660 C661 1.407 . S
C660 C665 1.418 . S
C660 O714 1.334 . S
C661 C660 1.407 . S
C661 C662 1.360 . S
C661 H722 0.929 . S
C662 C661 1.360 . S
C662 C663 1.401 . S
C662 C666 1.527 . S
C663 C662 1.401 . S
C663 C664 1.405 . S
C663 C696 1.587 . S
C664 C663 1.405 . S
C664 C665 1.332 . S
C664 C667 1.496 . S
C665 C660 1.418 . S
C665 C664 1.332 . S
C665 H723 0.929 . S
C666 C662 1.527 . S
C666 H724 0.959 . S
C666 H725 0.961 . S
C666 H726 0.961 . S
C667 C664 1.496 . S
C667 H727 0.960 . S
C667 H728 0.960 . S
C667 H729 0.961 . S
C668 C669 1.517 . S
C668 H731 0.961 . S
C668 H732 0.960 . S
C668 H733 0.959 . S
C669 C668 1.517 . S
C669 O717 1.468 . S
C669 H730 0.980 . S
C670 C671 1.349 . S
C670 C675 1.367 . S
C670 O717 1.408 . S
C671 C670 1.349 . S
C671 C672 1.407 . S
C671 H734 0.930 . S
C672 C671 1.407 . S
C672 C673 1.449 . S
C672 C676 1.535 . S
C673 C672 1.449 . S
C673 C674 1.384 . S
C673 C698 1.553 . S
C674 C673 1.384 . S
C674 C675 1.364 . S
C674 C677 1.450 . S
C675 C670 1.367 . S
C675 C674 1.364 . S
C675 H735 0.931 . S
C676 C672 1.535 . S
C676 H736 0.959 . S
C676 H737 0.961 . S
C676 H738 0.959 . S
C677 C674 1.450 . S
C677 H739 0.960 . S
C677 H740 0.960 . S
C677 H741 0.960 . S
C678 C679 1.309 . S
C678 C683 1.304 . S
C678 O716 1.435 . S
C679 C678 1.309 . S
C679 C680 1.476 . S
C679 H743 0.930 . S
C680 C679 1.476 . S
C680 C681 1.400 . S
C680 C684 1.567 . S
C681 C680 1.400 . S
C681 C682 1.373 . S
C681 C703 1.432 . S
C682 C681 1.373 . S
C682 C683 1.339 . S
C682 C685 1.530 . S
C683 C678 1.304 . S
C683 C682 1.339 . S
C683 H744 0.930 . S
C684 C680 1.567 . S
C684 H745 0.961 . S
C684 H746 0.960 . S
C684 H747 0.958 . S
C685 C682 1.530 . S
C685 H748 0.961 . S
C685 H749 0.960 . S
C685 H750 0.960 . S
C686 C687 1.530 . S
C686 H752 0.961 . S
C686 H753 0.961 . S
C686 H754 0.959 . S
C687 C686 1.530 . S
C687 O715 1.412 . S
C687 H751 0.980 . S
C688 C689 1.288 . S
C688 C693 1.377 . S
C688 O715 1.393 . S
C689 C688 1.288 . S
C689 C690 1.369 . S
C689 H755 0.932 . S
C690 C689 1.369 . S
C690 C691 1.398 . S
C690 C694 1.527 . S
C691 C690 1.398 . S
C691 C692 1.380 . S
C691 C705 1.497 . S
C692 C691 1.380 . S
C692 C693 1.383 . S
C692 C695 1.603 . S
C693 C688 1.377 . S
C693 C692 1.383 . S
C693 H756 0.929 . S
C694 C690 1.527 . S
C694 H757 0.961 . S
C694 H758 0.959 . S
C694 H759 0.959 . S
C695 C692 1.603 . S
C695 H760 0.960 . S
C695 H761 0.962 . S
C695 H762 0.961 . S
C696 C663 1.587 . S
C696 C697 1.360 . S
C696 C709 1.412 . S
C697 C696 1.360 . S
C697 C698 1.365 . S
C697 H763 0.929 . S
C698 C673 1.553 . S
C698 C697 1.365 . S
C698 C699 1.404 . S
C699 C698 1.404 . S
C699 C700 1.395 . S
C699 C710 1.451 . S
C700 C699 1.395 . S
C700 C701 1.322 . S
C700 H764 0.930 . S
C701 C700 1.322 . S
C701 C702 1.459 1_554 S
C701 H765 0.929 1_554 S
C702 C701 1.459 1_556 S
C702 C703 1.445 . S
C702 C711 1.395 1_556 S
C703 C681 1.432 . S
C703 C702 1.445 . S
C703 C704 1.370 . S
C704 C703 1.370 . S
C704 C705 1.438 . S
C704 H766 0.930 . S
C705 C691 1.497 . S
C705 C704 1.438 . S
C705 C706 1.360 . S
C706 C705 1.360 . S
C706 C707 1.401 1_556 S
C706 C711 1.446 1_556 S
C707 C706 1.401 1_554 S
C707 C708 1.347 . S
C707 H767 0.929 . S
C708 C707 1.347 . S
C708 C709 1.455 . S
C708 H768 0.930 . S
C709 C696 1.412 . S
C709 C708 1.455 . S
C709 C710 1.331 . S
C710 C699 1.451 . S
C710 C709 1.331 . S
C710 C711 1.497 . S
C711 C702 1.395 1_554 S
C711 C706 1.446 1_554 S
C711 C710 1.497 . S
C712 C713 1.582 . S
C712 H769 0.962 . S
C712 H770 0.959 . S
C712 H771 0.958 . S
C713 C712 1.582 . S
C713 O716 1.458 . S
C713 H742 0.980 . S
O714 C659 1.426 . S
O714 C660 1.334 . S
O715 C687 1.412 . S
O715 C688 1.393 . S
O716 C678 1.435 . S
O716 C713 1.458 . S
O717 C669 1.468 . S
O717 C670 1.408 . S
H718 C659 0.980 . S
H719 C658 0.959 . S
H720 C658 0.959 . S
H721 C658 0.960 . S
H722 C661 0.929 . S
H723 C665 0.929 . S
H724 C666 0.959 . S
H725 C666 0.961 . S
H726 C666 0.961 . S
H727 C667 0.960 . S
H728 C667 0.960 . S
H729 C667 0.961 . S
H730 C669 0.980 . S
H731 C668 0.961 . S
H732 C668 0.960 . S
H733 C668 0.959 . S
H734 C671 0.930 . S
H735 C675 0.931 . S
H736 C676 0.959 . S
H737 C676 0.961 . S
H738 C676 0.959 . S
H739 C677 0.960 . S
H740 C677 0.960 . S
H741 C677 0.960 . S
H742 C713 0.980 . S
H743 C679 0.930 . S
H744 C683 0.930 . S
H745 C684 0.961 . S
H746 C684 0.960 . S
H747 C684 0.958 . S
H748 C685 0.961 . S
H749 C685 0.960 . S
H750 C685 0.960 . S
H751 C687 0.980 . S
H752 C686 0.961 . S
H753 C686 0.961 . S
H754 C686 0.959 . S
H755 C689 0.932 . S
H756 C693 0.929 . S
H757 C694 0.961 . S
H758 C694 0.959 . S
H759 C694 0.959 . S
H760 C695 0.960 . S
H761 C695 0.962 . S
H762 C695 0.961 . S
H763 C697 0.929 . S
H764 C700 0.930 . S
H765 C701 0.929 1_556 S
H766 C704 0.930 . S
H767 C707 0.929 . S
H768 C708 0.930 . S
H769 C712 0.962 . S
H770 C712 0.959 . S
H771 C712 0.958 . S
C772 C773 1.391 . S
C772 C774 1.394 . S
C772 H788 0.931 . S
C773 C772 1.391 . S
C773 C777 1.376 . S
C774 C772 1.394 . S
C774 C775 1.369 . S
C774 C778 1.531 . S
C775 C774 1.369 . S
C775 C776 1.410 . S
C775 C783 1.503 . S
C776 C775 1.410 . S
C776 C777 1.392 . S
C776 C779 1.511 . S
C777 C773 1.376 . S
C777 C776 1.392 . S
C777 H789 0.929 . S
C778 C774 1.531 . S
C778 H790 0.960 . S
C778 H791 0.962 . S
C778 H792 0.960 . S
C779 C776 1.511 . S
C779 H793 0.961 . S
C779 H794 0.961 . S
C779 H795 0.961 . S
C780 C781 1.370 . S
C780 C782 1.363 . S
C780 H796 0.931 . S
C781 C780 1.370 . S
C781 C785 1.408 . S
C782 C780 1.363 . S
C782 C783 1.370 . S
C782 C786 1.524 . S
C783 C775 1.503 . S
C783 C782 1.370 . S
C783 C784 1.403 . S
C784 C783 1.403 . S
C784 C785 1.404 . S
C784 C787 1.539 . S
C785 C781 1.408 . S
C785 C784 1.404 . S
C785 H797 0.930 . S
C786 C782 1.524 . S
C786 H798 0.956 . S
C786 H799 0.961 . S
C786 H800 0.961 . S
C787 C784 1.539 . S
C787 H801 0.958 . S
C787 H802 0.961 . S
C787 H803 0.960 . S
H788 C772 0.931 . S
H789 C777 0.929 . S
H790 C778 0.960 . S
H791 C778 0.962 . S
H792 C778 0.960 . S
H793 C779 0.961 . S
H794 C779 0.961 . S
H795 C779 0.961 . S
H796 C780 0.931 . S
H797 C785 0.930 . S
H798 C786 0.956 . S
H799 C786 0.961 . S
H800 C786 0.961 . S
H801 C787 0.958 . S
H802 C787 0.961 . S
H803 C787 0.960 . S
C804 C805 1.391 . S
C804 C806 1.394 . S
C804 H820 0.931 . S
C805 C804 1.391 . S
C805 C809 1.376 . S
C806 C804 1.394 . S
C806 C807 1.369 . S
C806 C810 1.531 . S
C807 C806 1.369 . S
C807 C808 1.410 . S
C807 C815 1.503 . S
C808 C807 1.410 . S
C808 C809 1.392 . S
C808 C811 1.511 . S
C809 C805 1.376 . S
C809 C808 1.392 . S
C809 H821 0.929 . S
C810 C806 1.531 . S
C810 H822 0.960 . S
C810 H823 0.962 . S
C810 H824 0.960 . S
C811 C808 1.511 . S
C811 H825 0.961 . S
C811 H826 0.961 . S
C811 H827 0.961 . S
C812 C813 1.370 . S
C812 C814 1.363 . S
C812 H828 0.931 . S
C813 C812 1.370 . S
C813 C817 1.408 . S
C814 C812 1.363 . S
C814 C815 1.370 . S
C814 C818 1.524 . S
C815 C807 1.503 . S
C815 C814 1.370 . S
C815 C816 1.403 . S
C816 C815 1.403 . S
C816 C817 1.404 . S
C816 C819 1.539 . S
C817 C813 1.408 . S
C817 C816 1.404 . S
C817 H829 0.930 . S
C818 C814 1.524 . S
C818 H830 0.956 . S
C818 H831 0.961 . S
C818 H832 0.961 . S
C819 C816 1.539 . S
C819 H833 0.958 . S
C819 H834 0.961 . S
C819 H835 0.960 . S
H820 C804 0.931 . S
H821 C809 0.929 . S
H822 C810 0.960 . S
H823 C810 0.962 . S
H824 C810 0.960 . S
H825 C811 0.961 . S
H826 C811 0.961 . S
H827 C811 0.961 . S
H828 C812 0.931 . S
H829 C817 0.930 . S
H830 C818 0.956 . S
H831 C818 0.961 . S
H832 C818 0.961 . S
H833 C819 0.958 . S
H834 C819 0.961 . S
H835 C819 0.960 . S
C836 C837 1.391 . S
C836 C838 1.394 . S
C836 H852 0.931 . S
C837 C836 1.391 . S
C837 C841 1.376 . S
C838 C836 1.394 . S
C838 C839 1.369 . S
C838 C842 1.531 . S
C839 C838 1.369 . S
C839 C840 1.410 . S
C839 C847 1.503 . S
C840 C839 1.410 . S
C840 C841 1.392 . S
C840 C843 1.511 . S
C841 C837 1.376 . S
C841 C840 1.392 . S
C841 H853 0.929 . S
C842 C838 1.531 . S
C842 H854 0.960 . S
C842 H855 0.962 . S
C842 H856 0.960 . S
C843 C840 1.511 . S
C843 H857 0.961 . S
C843 H858 0.961 . S
C843 H859 0.961 . S
C844 C845 1.370 . S
C844 C846 1.363 . S
C844 H860 0.931 . S
C845 C844 1.370 . S
C845 C849 1.408 . S
C846 C844 1.363 . S
C846 C847 1.370 . S
C846 C850 1.524 . S
C847 C839 1.503 . S
C847 C846 1.370 . S
C847 C848 1.403 . S
C848 C847 1.403 . S
C848 C849 1.404 . S
C848 C851 1.539 . S
C849 C845 1.408 . S
C849 C848 1.404 . S
C849 H861 0.930 . S
C850 C846 1.524 . S
C850 H862 0.956 . S
C850 H863 0.961 . S
C850 H864 0.961 . S
C851 C848 1.539 . S
C851 H865 0.958 . S
C851 H866 0.961 . S
C851 H867 0.960 . S
H852 C836 0.931 . S
H853 C841 0.929 . S
H854 C842 0.960 . S
H855 C842 0.962 . S
H856 C842 0.960 . S
H857 C843 0.961 . S
H858 C843 0.961 . S
H859 C843 0.961 . S
H860 C844 0.931 . S
H861 C849 0.930 . S
H862 C850 0.956 . S
H863 C850 0.961 . S
H864 C850 0.961 . S
H865 C851 0.958 . S
H866 C851 0.961 . S
H867 C851 0.960 . S
C868 C869 1.391 . S
C868 C870 1.394 . S
C868 H884 0.931 . S
C869 C868 1.391 . S
C869 C873 1.376 . S
C870 C868 1.394 . S
C870 C871 1.369 . S
C870 C874 1.531 . S
C871 C870 1.369 . S
C871 C872 1.410 . S
C871 C879 1.503 . S
C872 C871 1.410 . S
C872 C873 1.392 . S
C872 C875 1.511 . S
C873 C869 1.376 . S
C873 C872 1.392 . S
C873 H885 0.929 . S
C874 C870 1.531 . S
C874 H886 0.960 . S
C874 H887 0.962 . S
C874 H888 0.960 . S
C875 C872 1.511 . S
C875 H889 0.961 . S
C875 H890 0.961 . S
C875 H891 0.961 . S
C876 C877 1.370 . S
C876 C878 1.363 . S
C876 H892 0.931 . S
C877 C876 1.370 . S
C877 C881 1.408 . S
C878 C876 1.363 . S
C878 C879 1.370 . S
C878 C882 1.524 . S
C879 C871 1.503 . S
C879 C878 1.370 . S
C879 C880 1.403 . S
C880 C879 1.403 . S
C880 C881 1.404 . S
C880 C883 1.539 . S
C881 C877 1.408 . S
C881 C880 1.404 . S
C881 H893 0.930 . S
C882 C878 1.524 . S
C882 H894 0.956 . S
C882 H895 0.961 . S
C882 H896 0.961 . S
C883 C880 1.539 . S
C883 H897 0.958 . S
C883 H898 0.961 . S
C883 H899 0.960 . S
H884 C868 0.931 . S
H885 C873 0.929 . S
H886 C874 0.960 . S
H887 C874 0.962 . S
H888 C874 0.960 . S
H889 C875 0.961 . S
H890 C875 0.961 . S
H891 C875 0.961 . S
H892 C876 0.931 . S
H893 C881 0.930 . S
H894 C882 0.956 . S
H895 C882 0.961 . S
H896 C882 0.961 . S
H897 C883 0.958 . S
H898 C883 0.961 . S
H899 C883 0.960 . S
C900 C901 1.391 . S
C900 C902 1.394 . S
C900 H916 0.931 . S
C901 C900 1.391 . S
C901 C905 1.376 . S
C902 C900 1.394 . S
C902 C903 1.369 . S
C902 C906 1.531 . S
C903 C902 1.369 . S
C903 C904 1.410 . S
C903 C911 1.503 . S
C904 C903 1.410 . S
C904 C905 1.392 . S
C904 C907 1.511 . S
C905 C901 1.376 . S
C905 C904 1.392 . S
C905 H917 0.929 . S
C906 C902 1.531 . S
C906 H918 0.960 . S
C906 H919 0.962 . S
C906 H920 0.960 . S
C907 C904 1.511 . S
C907 H921 0.961 . S
C907 H922 0.961 . S
C907 H923 0.961 . S
C908 C909 1.370 . S
C908 C910 1.363 . S
C908 H924 0.931 . S
C909 C908 1.370 . S
C909 C913 1.408 . S
C910 C908 1.363 . S
C910 C911 1.370 . S
C910 C914 1.524 . S
C911 C903 1.503 . S
C911 C910 1.370 . S
C911 C912 1.403 . S
C912 C911 1.403 . S
C912 C913 1.404 . S
C912 C915 1.539 . S
C913 C909 1.408 . S
C913 C912 1.404 . S
C913 H925 0.930 . S
C914 C910 1.524 . S
C914 H926 0.956 . S
C914 H927 0.961 . S
C914 H928 0.961 . S
C915 C912 1.539 . S
C915 H929 0.958 . S
C915 H930 0.961 . S
C915 H931 0.960 . S
H916 C900 0.931 . S
H917 C905 0.929 . S
H918 C906 0.960 . S
H919 C906 0.962 . S
H920 C906 0.960 . S
H921 C907 0.961 . S
H922 C907 0.961 . S
H923 C907 0.961 . S
H924 C908 0.931 . S
H925 C913 0.930 . S
H926 C914 0.956 . S
H927 C914 0.961 . S
H928 C914 0.961 . S
H929 C915 0.958 . S
H930 C915 0.961 . S
H931 C915 0.960 . S
C932 C933 1.391 . S
C932 C934 1.394 . S
C932 H948 0.931 . S
C933 C932 1.391 . S
C933 C937 1.376 . S
C934 C932 1.394 . S
C934 C935 1.369 . S
C934 C938 1.531 . S
C935 C934 1.369 . S
C935 C936 1.410 . S
C935 C943 1.503 . S
C936 C935 1.410 . S
C936 C937 1.392 . S
C936 C939 1.511 . S
C937 C933 1.376 . S
C937 C936 1.392 . S
C937 H949 0.929 . S
C938 C934 1.531 . S
C938 H950 0.960 . S
C938 H951 0.962 . S
C938 H952 0.960 . S
C939 C936 1.511 . S
C939 H953 0.961 . S
C939 H954 0.961 . S
C939 H955 0.961 . S
C940 C941 1.370 . S
C940 C942 1.363 . S
C940 H956 0.931 . S
C941 C940 1.370 . S
C941 C945 1.408 . S
C942 C940 1.363 . S
C942 C943 1.370 . S
C942 C946 1.524 . S
C943 C935 1.503 . S
C943 C942 1.370 . S
C943 C944 1.403 . S
C944 C943 1.403 . S
C944 C945 1.404 . S
C944 C947 1.539 . S
C945 C941 1.408 . S
C945 C944 1.404 . S
C945 H957 0.930 . S
C946 C942 1.524 . S
C946 H958 0.956 . S
C946 H959 0.961 . S
C946 H960 0.961 . S
C947 C944 1.539 . S
C947 H961 0.958 . S
C947 H962 0.961 . S
C947 H963 0.960 . S
H948 C932 0.931 . S
H949 C937 0.929 . S
H950 C938 0.960 . S
H951 C938 0.962 . S
H952 C938 0.960 . S
H953 C939 0.961 . S
H954 C939 0.961 . S
H955 C939 0.961 . S
H956 C940 0.931 . S
H957 C945 0.930 . S
H958 C946 0.956 . S
H959 C946 0.961 . S
H960 C946 0.961 . S
H961 C947 0.958 . S
H962 C947 0.961 . S
H963 C947 0.960 . S
C964 C965 1.391 . S
C964 C966 1.394 . S
C964 H980 0.931 . S
C965 C964 1.391 . S
C965 C969 1.376 . S
C966 C964 1.394 . S
C966 C967 1.369 . S
C966 C970 1.531 . S
C967 C966 1.369 . S
C967 C968 1.410 . S
C967 C975 1.503 . S
C968 C967 1.410 . S
C968 C969 1.392 . S
C968 C971 1.511 . S
C969 C965 1.376 . S
C969 C968 1.392 . S
C969 H981 0.929 . S
C970 C966 1.531 . S
C970 H982 0.960 . S
C970 H983 0.962 . S
C970 H984 0.960 . S
C971 C968 1.511 . S
C971 H985 0.961 . S
C971 H986 0.961 . S
C971 H987 0.961 . S
C972 C973 1.370 . S
C972 C974 1.363 . S
C972 H988 0.931 . S
C973 C972 1.370 . S
C973 C977 1.408 . S
C974 C972 1.363 . S
C974 C975 1.370 . S
C974 C978 1.524 . S
C975 C967 1.503 . S
C975 C974 1.370 . S
C975 C976 1.403 . S
C976 C975 1.403 . S
C976 C977 1.404 . S
C976 C979 1.539 . S
C977 C973 1.408 . S
C977 C976 1.404 . S
C977 H989 0.930 . S
C978 C974 1.524 . S
C978 H990 0.956 . S
C978 H991 0.961 . S
C978 H992 0.961 . S
C979 C976 1.539 . S
C979 H993 0.958 . S
C979 H994 0.961 . S
C979 H995 0.960 . S
H980 C964 0.931 . S
H981 C969 0.929 . S
H982 C970 0.960 . S
H983 C970 0.962 . S
H984 C970 0.960 . S
H985 C971 0.961 . S
H986 C971 0.961 . S
H987 C971 0.961 . S
H988 C972 0.931 . S
H989 C977 0.930 . S
H990 C978 0.956 . S
H991 C978 0.961 . S
H992 C978 0.961 . S
H993 C979 0.958 . S
H994 C979 0.961 . S
H995 C979 0.960 . S
C996 C997 1.391 . S
C996 C998 1.394 . S
C996 H1012 0.931 . S
C997 C996 1.391 . S
C997 C1001 1.376 . S
C998 C996 1.394 . S
C998 C999 1.369 . S
C998 C1002 1.531 . S
C999 C998 1.369 . S
C999 C1000 1.410 . S
C999 C1007 1.503 . S
C1000 C999 1.410 . S
C1000 C1001 1.392 . S
C1000 C1003 1.511 . S
C1001 C997 1.376 . S
C1001 C1000 1.392 . S
C1001 H1013 0.929 . S
C1002 C998 1.531 . S
C1002 H1014 0.960 . S
C1002 H1015 0.962 . S
C1002 H1016 0.960 . S
C1003 C1000 1.511 . S
C1003 H1017 0.961 . S
C1003 H1018 0.961 . S
C1003 H1019 0.961 . S
C1004 C1005 1.370 . S
C1004 C1006 1.363 . S
C1004 H1020 0.931 . S
C1005 C1004 1.370 . S
C1005 C1009 1.408 . S
C1006 C1004 1.363 . S
C1006 C1007 1.370 . S
C1006 C1010 1.524 . S
C1007 C999 1.503 . S
C1007 C1006 1.370 . S
C1007 C1008 1.403 . S
C1008 C1007 1.403 . S
C1008 C1009 1.404 . S
C1008 C1011 1.539 . S
C1009 C1005 1.408 . S
C1009 C1008 1.404 . S
C1009 H1021 0.930 . S
C1010 C1006 1.524 . S
C1010 H1022 0.956 . S
C1010 H1023 0.961 . S
C1010 H1024 0.961 . S
C1011 C1008 1.539 . S
C1011 H1025 0.958 . S
C1011 H1026 0.961 . S
C1011 H1027 0.960 . S
H1012 C996 0.931 . S
H1013 C1001 0.929 . S
H1014 C1002 0.960 . S
H1015 C1002 0.962 . S
H1016 C1002 0.960 . S
H1017 C1003 0.961 . S
H1018 C1003 0.961 . S
H1019 C1003 0.961 . S
H1020 C1004 0.931 . S
H1021 C1009 0.930 . S
H1022 C1010 0.956 . S
H1023 C1010 0.961 . S
H1024 C1010 0.961 . S
H1025 C1011 0.958 . S
H1026 C1011 0.961 . S
H1027 C1011 0.960 . S
C1028 C1029 1.391 . S
C1028 C1030 1.394 . S
C1028 H1044 0.931 . S
C1029 C1028 1.391 . S
C1029 C1033 1.376 . S
C1030 C1028 1.394 . S
C1030 C1031 1.369 . S
C1030 C1034 1.531 . S
C1031 C1030 1.369 . S
C1031 C1032 1.410 . S
C1031 C1039 1.503 . S
C1032 C1031 1.410 . S
C1032 C1033 1.392 . S
C1032 C1035 1.511 . S
C1033 C1029 1.376 . S
C1033 C1032 1.392 . S
C1033 H1045 0.929 . S
C1034 C1030 1.531 . S
C1034 H1046 0.960 . S
C1034 H1047 0.962 . S
C1034 H1048 0.960 . S
C1035 C1032 1.511 . S
C1035 H1049 0.961 . S
C1035 H1050 0.961 . S
C1035 H1051 0.961 . S
C1036 C1037 1.370 . S
C1036 C1038 1.363 1_545 S
C1036 H1052 0.931 . S
C1037 C1036 1.370 . S
C1037 C1041 1.408 1_545 S
C1038 C1036 1.363 1_565 S
C1038 C1039 1.370 . S
C1038 C1042 1.524 . S
C1039 C1031 1.503 . S
C1039 C1038 1.370 . S
C1039 C1040 1.403 . S
C1040 C1039 1.403 . S
C1040 C1041 1.404 . S
C1040 C1043 1.539 . S
C1041 C1037 1.408 1_565 S
C1041 C1040 1.404 . S
C1041 H1053 0.930 . S
C1042 C1038 1.524 . S
C1042 H1054 0.956 . S
C1042 H1055 0.961 . S
C1042 H1056 0.961 . S
C1043 C1040 1.539 . S
C1043 H1057 0.958 . S
C1043 H1058 0.961 . S
C1043 H1059 0.960 . S
H1044 C1028 0.931 . S
H1045 C1033 0.929 . S
H1046 C1034 0.960 . S
H1047 C1034 0.962 . S
H1048 C1034 0.960 . S
H1049 C1035 0.961 . S
H1050 C1035 0.961 . S
H1051 C1035 0.961 . S
H1052 C1036 0.931 . S
H1053 C1041 0.930 . S
H1054 C1042 0.956 . S
H1055 C1042 0.961 . S
H1056 C1042 0.961 . S
H1057 C1043 0.958 . S
H1058 C1043 0.961 . S
H1059 C1043 0.960 . S
C1060 C1061 1.391 . S
C1060 C1062 1.394 . S
C1060 H1076 0.931 . S
C1061 C1060 1.391 . S
C1061 C1065 1.376 . S
C1062 C1060 1.394 . S
C1062 C1063 1.369 . S
C1062 C1066 1.531 . S
C1063 C1062 1.369 . S
C1063 C1064 1.410 . S
C1063 C1071 1.503 . S
C1064 C1063 1.410 . S
C1064 C1065 1.392 . S
C1064 C1067 1.511 . S
C1065 C1061 1.376 . S
C1065 C1064 1.392 . S
C1065 H1077 0.929 . S
C1066 C1062 1.531 . S
C1066 H1078 0.960 . S
C1066 H1079 0.962 . S
C1066 H1080 0.960 . S
C1067 C1064 1.511 . S
C1067 H1081 0.961 . S
C1067 H1082 0.961 . S
C1067 H1083 0.961 . S
C1068 C1069 1.370 . S
C1068 C1070 1.363 . S
C1068 H1084 0.931 . S
C1069 C1068 1.370 . S
C1069 C1073 1.408 . S
C1070 C1068 1.363 . S
C1070 C1071 1.370 . S
C1070 C1074 1.524 . S
C1071 C1063 1.503 . S
C1071 C1070 1.370 . S
C1071 C1072 1.403 . S
C1072 C1071 1.403 . S
C1072 C1073 1.404 . S
C1072 C1075 1.539 . S
C1073 C1069 1.408 . S
C1073 C1072 1.404 . S
C1073 H1085 0.930 . S
C1074 C1070 1.524 . S
C1074 H1086 0.956 . S
C1074 H1087 0.961 . S
C1074 H1088 0.961 . S
C1075 C1072 1.539 . S
C1075 H1089 0.958 . S
C1075 H1090 0.961 . S
C1075 H1091 0.960 . S
H1076 C1060 0.931 . S
H1077 C1065 0.929 . S
H1078 C1066 0.960 . S
H1079 C1066 0.962 . S
H1080 C1066 0.960 . S
H1081 C1067 0.961 . S
H1082 C1067 0.961 . S
H1083 C1067 0.961 . S
H1084 C1068 0.931 . S
H1085 C1073 0.930 . S
H1086 C1074 0.956 . S
H1087 C1074 0.961 . S
H1088 C1074 0.961 . S
H1089 C1075 0.958 . S
H1090 C1075 0.961 . S
H1091 C1075 0.960 . S
C1092 C1093 1.391 . S
C1092 C1094 1.394 . S
C1092 H1108 0.931 . S
C1093 C1092 1.391 . S
C1093 C1097 1.376 . S
C1094 C1092 1.394 . S
C1094 C1095 1.369 . S
C1094 C1098 1.531 . S
C1095 C1094 1.369 . S
C1095 C1096 1.410 . S
C1095 C1103 1.503 . S
C1096 C1095 1.410 . S
C1096 C1097 1.392 . S
C1096 C1099 1.511 . S
C1097 C1093 1.376 . S
C1097 C1096 1.392 . S
C1097 H1109 0.929 . S
C1098 C1094 1.531 . S
C1098 H1110 0.960 . S
C1098 H1111 0.962 . S
C1098 H1112 0.960 . S
C1099 C1096 1.511 . S
C1099 H1113 0.961 . S
C1099 H1114 0.961 . S
C1099 H1115 0.961 . S
C1100 C1101 1.370 . S
C1100 C1102 1.363 . S
C1100 H1116 0.931 . S
C1101 C1100 1.370 . S
C1101 C1105 1.408 . S
C1102 C1100 1.363 . S
C1102 C1103 1.370 . S
C1102 C1106 1.524 . S
C1103 C1095 1.503 . S
C1103 C1102 1.370 . S
C1103 C1104 1.403 . S
C1104 C1103 1.403 . S
C1104 C1105 1.404 . S
C1104 C1107 1.539 . S
C1105 C1101 1.408 . S
C1105 C1104 1.404 . S
C1105 H1117 0.930 . S
C1106 C1102 1.524 . S
C1106 H1118 0.956 . S
C1106 H1119 0.961 . S
C1106 H1120 0.961 . S
C1107 C1104 1.539 . S
C1107 H1121 0.958 . S
C1107 H1122 0.961 . S
C1107 H1123 0.960 . S
H1108 C1092 0.931 . S
H1109 C1097 0.929 . S
H1110 C1098 0.960 . S
H1111 C1098 0.962 . S
H1112 C1098 0.960 . S
H1113 C1099 0.961 . S
H1114 C1099 0.961 . S
H1115 C1099 0.961 . S
H1116 C1100 0.931 . S
H1117 C1105 0.930 . S
H1118 C1106 0.956 . S
H1119 C1106 0.961 . S
H1120 C1106 0.961 . S
H1121 C1107 0.958 . S
H1122 C1107 0.961 . S
H1123 C1107 0.960 . S
C1124 C1125 1.391 . S
C1124 C1126 1.394 . S
C1124 H1140 0.931 . S
C1125 C1124 1.391 . S
C1125 C1129 1.376 . S
C1126 C1124 1.394 . S
C1126 C1127 1.369 . S
C1126 C1130 1.531 . S
C1127 C1126 1.369 . S
C1127 C1128 1.410 . S
C1127 C1135 1.503 . S
C1128 C1127 1.410 . S
C1128 C1129 1.392 . S
C1128 C1131 1.511 . S
C1129 C1125 1.376 . S
C1129 C1128 1.392 . S
C1129 H1141 0.929 . S
C1130 C1126 1.531 . S
C1130 H1142 0.960 . S
C1130 H1143 0.962 . S
C1130 H1144 0.960 . S
C1131 C1128 1.511 . S
C1131 H1145 0.961 . S
C1131 H1146 0.961 . S
C1131 H1147 0.961 . S
C1132 C1133 1.370 . S
C1132 C1134 1.363 . S
C1132 H1148 0.931 . S
C1133 C1132 1.370 . S
C1133 C1137 1.408 . S
C1134 C1132 1.363 . S
C1134 C1135 1.370 . S
C1134 C1138 1.524 . S
C1135 C1127 1.503 . S
C1135 C1134 1.370 . S
C1135 C1136 1.403 . S
C1136 C1135 1.403 . S
C1136 C1137 1.404 . S
C1136 C1139 1.539 . S
C1137 C1133 1.408 . S
C1137 C1136 1.404 . S
C1137 H1149 0.930 . S
C1138 C1134 1.524 . S
C1138 H1150 0.956 . S
C1138 H1151 0.961 . S
C1138 H1152 0.961 . S
C1139 C1136 1.539 . S
C1139 H1153 0.958 . S
C1139 H1154 0.961 . S
C1139 H1155 0.960 . S
H1140 C1124 0.931 . S
H1141 C1129 0.929 . S
H1142 C1130 0.960 . S
H1143 C1130 0.962 . S
H1144 C1130 0.960 . S
H1145 C1131 0.961 . S
H1146 C1131 0.961 . S
H1147 C1131 0.961 . S
H1148 C1132 0.931 . S
H1149 C1137 0.930 . S
H1150 C1138 0.956 . S
H1151 C1138 0.961 . S
H1152 C1138 0.961 . S
H1153 C1139 0.958 . S
H1154 C1139 0.961 . S
H1155 C1139 0.960 . S
C1156 C1157 1.391 . S
C1156 C1158 1.394 . S
C1156 H1172 0.931 . S
C1157 C1156 1.391 . S
C1157 C1161 1.376 . S
C1158 C1156 1.394 . S
C1158 C1159 1.369 . S
C1158 C1162 1.531 . S
C1159 C1158 1.369 . S
C1159 C1160 1.410 . S
C1159 C1167 1.503 . S
C1160 C1159 1.410 . S
C1160 C1161 1.392 . S
C1160 C1163 1.511 . S
C1161 C1157 1.376 . S
C1161 C1160 1.392 . S
C1161 H1173 0.929 . S
C1162 C1158 1.531 . S
C1162 H1174 0.960 . S
C1162 H1175 0.962 . S
C1162 H1176 0.960 . S
C1163 C1160 1.511 . S
C1163 H1177 0.961 . S
C1163 H1178 0.961 . S
C1163 H1179 0.961 . S
C1164 C1165 1.370 . S
C1164 C1166 1.363 . S
C1164 H1180 0.931 . S
C1165 C1164 1.370 . S
C1165 C1169 1.408 . S
C1166 C1164 1.363 . S
C1166 C1167 1.370 . S
C1166 C1170 1.524 . S
C1167 C1159 1.503 . S
C1167 C1166 1.370 . S
C1167 C1168 1.403 . S
C1168 C1167 1.403 . S
C1168 C1169 1.404 . S
C1168 C1171 1.539 . S
C1169 C1165 1.408 . S
C1169 C1168 1.404 . S
C1169 H1181 0.930 . S
C1170 C1166 1.524 . S
C1170 H1182 0.956 . S
C1170 H1183 0.961 . S
C1170 H1184 0.961 . S
C1171 C1168 1.539 . S
C1171 H1185 0.958 . S
C1171 H1186 0.961 . S
C1171 H1187 0.960 . S
H1172 C1156 0.931 . S
H1173 C1161 0.929 . S
H1174 C1162 0.960 . S
H1175 C1162 0.962 . S
H1176 C1162 0.960 . S
H1177 C1163 0.961 . S
H1178 C1163 0.961 . S
H1179 C1163 0.961 . S
H1180 C1164 0.931 . S
H1181 C1169 0.930 . S
H1182 C1170 0.956 . S
H1183 C1170 0.961 . S
H1184 C1170 0.961 . S
H1185 C1171 0.958 . S
H1186 C1171 0.961 . S
H1187 C1171 0.960 . S
C1188 C1189 1.391 . S
C1188 C1190 1.394 . S
C1188 H1204 0.931 . S
C1189 C1188 1.391 . S
C1189 C1193 1.376 . S
C1190 C1188 1.394 . S
C1190 C1191 1.369 . S
C1190 C1194 1.531 . S
C1191 C1190 1.369 . S
C1191 C1192 1.410 . S
C1191 C1199 1.503 . S
C1192 C1191 1.410 . S
C1192 C1193 1.392 . S
C1192 C1195 1.511 . S
C1193 C1189 1.376 . S
C1193 C1192 1.392 . S
C1193 H1205 0.929 . S
C1194 C1190 1.531 . S
C1194 H1206 0.960 . S
C1194 H1207 0.962 . S
C1194 H1208 0.960 . S
C1195 C1192 1.511 . S
C1195 H1209 0.961 . S
C1195 H1210 0.961 . S
C1195 H1211 0.961 . S
C1196 C1197 1.370 . S
C1196 C1198 1.363 . S
C1196 H1212 0.931 . S
C1197 C1196 1.370 . S
C1197 C1201 1.408 . S
C1198 C1196 1.363 . S
C1198 C1199 1.370 . S
C1198 C1202 1.524 . S
C1199 C1191 1.503 . S
C1199 C1198 1.370 . S
C1199 C1200 1.403 . S
C1200 C1199 1.403 . S
C1200 C1201 1.404 . S
C1200 C1203 1.539 . S
C1201 C1197 1.408 . S
C1201 C1200 1.404 . S
C1201 H1213 0.930 . S
C1202 C1198 1.524 . S
C1202 H1214 0.956 . S
C1202 H1215 0.961 . S
C1202 H1216 0.961 . S
C1203 C1200 1.539 . S
C1203 H1217 0.958 . S
C1203 H1218 0.961 . S
C1203 H1219 0.960 . S
H1204 C1188 0.931 . S
H1205 C1193 0.929 . S
H1206 C1194 0.960 . S
H1207 C1194 0.962 . S
H1208 C1194 0.960 . S
H1209 C1195 0.961 . S
H1210 C1195 0.961 . S
H1211 C1195 0.961 . S
H1212 C1196 0.931 . S
H1213 C1201 0.930 . S
H1214 C1202 0.956 . S
H1215 C1202 0.961 . S
H1216 C1202 0.961 . S
H1217 C1203 0.958 . S
H1218 C1203 0.961 . S
H1219 C1203 0.960 . S
C1220 C1221 1.391 . S
C1220 C1222 1.394 . S
C1220 H1236 0.931 . S
C1221 C1220 1.391 . S
C1221 C1225 1.376 . S
C1222 C1220 1.394 . S
C1222 C1223 1.369 . S
C1222 C1226 1.531 . S
C1223 C1222 1.369 . S
C1223 C1224 1.410 . S
C1223 C1231 1.503 . S
C1224 C1223 1.410 . S
C1224 C1225 1.392 . S
C1224 C1227 1.511 . S
C1225 C1221 1.376 . S
C1225 C1224 1.392 . S
C1225 H1237 0.929 . S
C1226 C1222 1.531 . S
C1226 H1238 0.960 . S
C1226 H1239 0.962 . S
C1226 H1240 0.960 . S
C1227 C1224 1.511 . S
C1227 H1241 0.961 . S
C1227 H1242 0.961 . S
C1227 H1243 0.961 . S
C1228 C1229 1.370 . S
C1228 C1230 1.363 . S
C1228 H1244 0.931 . S
C1229 C1228 1.370 . S
C1229 C1233 1.408 . S
C1230 C1228 1.363 . S
C1230 C1231 1.370 . S
C1230 C1234 1.524 . S
C1231 C1223 1.503 . S
C1231 C1230 1.370 . S
C1231 C1232 1.403 . S
C1232 C1231 1.403 . S
C1232 C1233 1.404 . S
C1232 C1235 1.539 . S
C1233 C1229 1.408 . S
C1233 C1232 1.404 . S
C1233 H1245 0.930 . S
C1234 C1230 1.524 . S
C1234 H1246 0.956 . S
C1234 H1247 0.961 . S
C1234 H1248 0.961 . S
C1235 C1232 1.539 . S
C1235 H1249 0.958 . S
C1235 H1250 0.961 . S
C1235 H1251 0.960 . S
H1236 C1220 0.931 . S
H1237 C1225 0.929 . S
H1238 C1226 0.960 . S
H1239 C1226 0.962 . S
H1240 C1226 0.960 . S
H1241 C1227 0.961 . S
H1242 C1227 0.961 . S
H1243 C1227 0.961 . S
H1244 C1228 0.931 . S
H1245 C1233 0.930 . S
H1246 C1234 0.956 . S
H1247 C1234 0.961 . S
H1248 C1234 0.961 . S
H1249 C1235 0.958 . S
H1250 C1235 0.961 . S
H1251 C1235 0.960 . S
C1252 C1253 1.391 . S
C1252 C1254 1.394 . S
C1252 H1268 0.931 . S
C1253 C1252 1.391 . S
C1253 C1257 1.376 . S
C1254 C1252 1.394 . S
C1254 C1255 1.369 . S
C1254 C1258 1.531 . S
C1255 C1254 1.369 . S
C1255 C1256 1.410 . S
C1255 C1263 1.503 . S
C1256 C1255 1.410 . S
C1256 C1257 1.392 . S
C1256 C1259 1.511 . S
C1257 C1253 1.376 . S
C1257 C1256 1.392 . S
C1257 H1269 0.929 . S
C1258 C1254 1.531 . S
C1258 H1270 0.960 . S
C1258 H1271 0.962 . S
C1258 H1272 0.960 . S
C1259 C1256 1.511 . S
C1259 H1273 0.961 . S
C1259 H1274 0.961 . S
C1259 H1275 0.961 . S
C1260 C1261 1.370 . S
C1260 C1262 1.363 . S
C1260 H1276 0.931 . S
C1261 C1260 1.370 . S
C1261 C1265 1.408 . S
C1262 C1260 1.363 . S
C1262 C1263 1.370 . S
C1262 C1266 1.524 . S
C1263 C1255 1.503 . S
C1263 C1262 1.370 . S
C1263 C1264 1.403 . S
C1264 C1263 1.403 . S
C1264 C1265 1.404 . S
C1264 C1267 1.539 . S
C1265 C1261 1.408 . S
C1265 C1264 1.404 . S
C1265 H1277 0.930 . S
C1266 C1262 1.524 . S
C1266 H1278 0.956 . S
C1266 H1279 0.961 . S
C1266 H1280 0.961 . S
C1267 C1264 1.539 . S
C1267 H1281 0.958 . S
C1267 H1282 0.961 . S
C1267 H1283 0.960 . S
H1268 C1252 0.931 . S
H1269 C1257 0.929 . S
H1270 C1258 0.960 . S
H1271 C1258 0.962 . S
H1272 C1258 0.960 . S
H1273 C1259 0.961 . S
H1274 C1259 0.961 . S
H1275 C1259 0.961 . S
H1276 C1260 0.931 . S
H1277 C1265 0.930 . S
H1278 C1266 0.956 . S
H1279 C1266 0.961 . S
H1280 C1266 0.961 . S
H1281 C1267 0.958 . S
H1282 C1267 0.961 . S
H1283 C1267 0.960 . S
C1284 C1285 1.391 . S
C1284 C1286 1.394 . S
C1284 H1300 0.931 . S
C1285 C1284 1.391 . S
C1285 C1289 1.376 . S
C1286 C1284 1.394 . S
C1286 C1287 1.369 . S
C1286 C1290 1.531 . S
C1287 C1286 1.369 . S
C1287 C1288 1.410 . S
C1287 C1295 1.503 . S
C1288 C1287 1.410 . S
C1288 C1289 1.392 . S
C1288 C1291 1.511 . S
C1289 C1285 1.376 . S
C1289 C1288 1.392 . S
C1289 H1301 0.929 . S
C1290 C1286 1.531 . S
C1290 H1302 0.960 . S
C1290 H1303 0.962 . S
C1290 H1304 0.960 . S
C1291 C1288 1.511 . S
C1291 H1305 0.961 . S
C1291 H1306 0.961 . S
C1291 H1307 0.961 . S
C1292 C1293 1.370 . S
C1292 C1294 1.363 . S
C1292 H1308 0.931 . S
C1293 C1292 1.370 . S
C1293 C1297 1.408 . S
C1294 C1292 1.363 . S
C1294 C1295 1.370 . S
C1294 C1298 1.524 . S
C1295 C1287 1.503 . S
C1295 C1294 1.370 . S
C1295 C1296 1.403 . S
C1296 C1295 1.403 . S
C1296 C1297 1.404 . S
C1296 C1299 1.539 . S
C1297 C1293 1.408 . S
C1297 C1296 1.404 . S
C1297 H1309 0.930 . S
C1298 C1294 1.524 . S
C1298 H1310 0.956 . S
C1298 H1311 0.961 . S
C1298 H1312 0.961 . S
C1299 C1296 1.539 . S
C1299 H1313 0.958 . S
C1299 H1314 0.961 . S
C1299 H1315 0.960 . S
H1300 C1284 0.931 . S
H1301 C1289 0.929 . S
H1302 C1290 0.960 . S
H1303 C1290 0.962 . S
H1304 C1290 0.960 . S
H1305 C1291 0.961 . S
H1306 C1291 0.961 . S
H1307 C1291 0.961 . S
H1308 C1292 0.931 . S
H1309 C1297 0.930 . S
H1310 C1298 0.956 . S
H1311 C1298 0.961 . S
H1312 C1298 0.961 . S
H1313 C1299 0.958 . S
H1314 C1299 0.961 . S
H1315 C1299 0.960 . S
C1316 C1317 1.391 . S
C1316 C1318 1.394 . S
C1316 H1332 0.931 . S
C1317 C1316 1.391 . S
C1317 C1321 1.376 . S
C1318 C1316 1.394 . S
C1318 C1319 1.369 . S
C1318 C1322 1.531 . S
C1319 C1318 1.369 . S
C1319 C1320 1.410 . S
C1319 C1327 1.503 . S
C1320 C1319 1.410 . S
C1320 C1321 1.392 . S
C1320 C1323 1.511 . S
C1321 C1317 1.376 . S
C1321 C1320 1.392 . S
C1321 H1333 0.929 . S
C1322 C1318 1.531 . S
C1322 H1334 0.960 . S
C1322 H1335 0.962 . S
C1322 H1336 0.960 . S
C1323 C1320 1.511 . S
C1323 H1337 0.961 . S
C1323 H1338 0.961 . S
C1323 H1339 0.961 . S
C1324 C1325 1.370 . S
C1324 C1326 1.363 . S
C1324 H1340 0.931 . S
C1325 C1324 1.370 . S
C1325 C1329 1.408 . S
C1326 C1324 1.363 . S
C1326 C1327 1.370 . S
C1326 C1330 1.524 . S
C1327 C1319 1.503 . S
C1327 C1326 1.370 . S
C1327 C1328 1.403 . S
C1328 C1327 1.403 . S
C1328 C1329 1.404 . S
C1328 C1331 1.539 . S
C1329 C1325 1.408 . S
C1329 C1328 1.404 . S
C1329 H1341 0.930 . S
C1330 C1326 1.524 . S
C1330 H1342 0.956 . S
C1330 H1343 0.961 . S
C1330 H1344 0.961 . S
C1331 C1328 1.539 . S
C1331 H1345 0.958 . S
C1331 H1346 0.961 . S
C1331 H1347 0.960 . S
H1332 C1316 0.931 . S
H1333 C1321 0.929 . S
H1334 C1322 0.960 . S
H1335 C1322 0.962 . S
H1336 C1322 0.960 . S
H1337 C1323 0.961 . S
H1338 C1323 0.961 . S
H1339 C1323 0.961 . S
H1340 C1324 0.931 . S
H1341 C1329 0.930 . S
H1342 C1330 0.956 . S
H1343 C1330 0.961 . S
H1344 C1330 0.961 . S
H1345 C1331 0.958 . S
H1346 C1331 0.961 . S
H1347 C1331 0.960 . S
C1348 C1349 1.391 . S
C1348 C1350 1.394 . S
C1348 H1364 0.931 . S
C1349 C1348 1.391 . S
C1349 C1353 1.376 . S
C1350 C1348 1.394 . S
C1350 C1351 1.369 . S
C1350 C1354 1.531 . S
C1351 C1350 1.369 . S
C1351 C1352 1.410 . S
C1351 C1359 1.503 . S
C1352 C1351 1.410 . S
C1352 C1353 1.392 . S
C1352 C1355 1.511 . S
C1353 C1349 1.376 . S
C1353 C1352 1.392 . S
C1353 H1365 0.929 . S
C1354 C1350 1.531 . S
C1354 H1366 0.960 . S
C1354 H1367 0.962 . S
C1354 H1368 0.960 . S
C1355 C1352 1.511 . S
C1355 H1369 0.961 . S
C1355 H1370 0.961 . S
C1355 H1371 0.961 . S
C1356 C1357 1.370 . S
C1356 C1358 1.363 . S
C1356 H1372 0.931 . S
C1357 C1356 1.370 . S
C1357 C1361 1.408 . S
C1358 C1356 1.363 . S
C1358 C1359 1.370 . S
C1358 C1362 1.524 . S
C1359 C1351 1.503 . S
C1359 C1358 1.370 . S
C1359 C1360 1.403 . S
C1360 C1359 1.403 . S
C1360 C1361 1.404 . S
C1360 C1363 1.539 . S
C1361 C1357 1.408 . S
C1361 C1360 1.404 . S
C1361 H1373 0.930 . S
C1362 C1358 1.524 . S
C1362 H1374 0.956 . S
C1362 H1375 0.961 . S
C1362 H1376 0.961 . S
C1363 C1360 1.539 . S
C1363 H1377 0.958 . S
C1363 H1378 0.961 . S
C1363 H1379 0.960 . S
H1364 C1348 0.931 . S
H1365 C1353 0.929 . S
H1366 C1354 0.960 . S
H1367 C1354 0.962 . S
H1368 C1354 0.960 . S
H1369 C1355 0.961 . S
H1370 C1355 0.961 . S
H1371 C1355 0.961 . S
H1372 C1356 0.931 . S
H1373 C1361 0.930 . S
H1374 C1362 0.956 . S
H1375 C1362 0.961 . S
H1376 C1362 0.961 . S
H1377 C1363 0.958 . S
H1378 C1363 0.961 . S
H1379 C1363 0.960 . S
C1380 C1381 1.391 . S
C1380 C1382 1.394 . S
C1380 H1396 0.931 . S
C1381 C1380 1.391 . S
C1381 C1385 1.376 . S
C1382 C1380 1.394 . S
C1382 C1383 1.369 . S
C1382 C1386 1.531 . S
C1383 C1382 1.369 . S
C1383 C1384 1.410 . S
C1383 C1391 1.503 . S
C1384 C1383 1.410 . S
C1384 C1385 1.392 . S
C1384 C1387 1.511 . S
C1385 C1381 1.376 . S
C1385 C1384 1.392 . S
C1385 H1397 0.929 . S
C1386 C1382 1.531 . S
C1386 H1398 0.960 . S
C1386 H1399 0.962 . S
C1386 H1400 0.960 . S
C1387 C1384 1.511 . S
C1387 H1401 0.961 . S
C1387 H1402 0.961 . S
C1387 H1403 0.961 . S
C1388 C1389 1.370 . S
C1388 C1390 1.363 . S
C1388 H1404 0.931 . S
C1389 C1388 1.370 . S
C1389 C1393 1.408 . S
C1390 C1388 1.363 . S
C1390 C1391 1.370 . S
C1390 C1394 1.524 . S
C1391 C1383 1.503 . S
C1391 C1390 1.370 . S
C1391 C1392 1.403 . S
C1392 C1391 1.403 . S
C1392 C1393 1.404 . S
C1392 C1395 1.539 . S
C1393 C1389 1.408 . S
C1393 C1392 1.404 . S
C1393 H1405 0.930 . S
C1394 C1390 1.524 . S
C1394 H1406 0.956 . S
C1394 H1407 0.961 . S
C1394 H1408 0.961 . S
C1395 C1392 1.539 . S
C1395 H1409 0.958 . S
C1395 H1410 0.961 . S
C1395 H1411 0.960 . S
H1396 C1380 0.931 . S
H1397 C1385 0.929 . S
H1398 C1386 0.960 . S
H1399 C1386 0.962 . S
H1400 C1386 0.960 . S
H1401 C1387 0.961 . S
H1402 C1387 0.961 . S
H1403 C1387 0.961 . S
H1404 C1388 0.931 . S
H1405 C1393 0.930 . S
H1406 C1394 0.956 . S
H1407 C1394 0.961 . S
H1408 C1394 0.961 . S
H1409 C1395 0.958 . S
H1410 C1395 0.961 . S
H1411 C1395 0.960 . S
C1412 C1413 1.391 . S
C1412 C1414 1.394 . S
C1412 H1428 0.931 . S
C1413 C1412 1.391 . S
C1413 C1417 1.376 . S
C1414 C1412 1.394 . S
C1414 C1415 1.369 . S
C1414 C1418 1.531 . S
C1415 C1414 1.369 . S
C1415 C1416 1.410 . S
C1415 C1423 1.503 . S
C1416 C1415 1.410 . S
C1416 C1417 1.392 . S
C1416 C1419 1.511 . S
C1417 C1413 1.376 . S
C1417 C1416 1.392 . S
C1417 H1429 0.929 . S
C1418 C1414 1.531 . S
C1418 H1430 0.960 . S
C1418 H1431 0.962 . S
C1418 H1432 0.960 . S
C1419 C1416 1.511 . S
C1419 H1433 0.961 . S
C1419 H1434 0.961 . S
C1419 H1435 0.961 . S
C1420 C1421 1.370 . S
C1420 C1422 1.363 . S
C1420 H1436 0.931 . S
C1421 C1420 1.370 . S
C1421 C1425 1.408 . S
C1422 C1420 1.363 . S
C1422 C1423 1.370 . S
C1422 C1426 1.524 . S
C1423 C1415 1.503 . S
C1423 C1422 1.370 . S
C1423 C1424 1.403 . S
C1424 C1423 1.403 . S
C1424 C1425 1.404 . S
C1424 C1427 1.539 . S
C1425 C1421 1.408 . S
C1425 C1424 1.404 . S
C1425 H1437 0.930 . S
C1426 C1422 1.524 . S
C1426 H1438 0.956 . S
C1426 H1439 0.961 . S
C1426 H1440 0.961 . S
C1427 C1424 1.539 . S
C1427 H1441 0.958 . S
C1427 H1442 0.961 . S
C1427 H1443 0.960 . S
H1428 C1412 0.931 . S
H1429 C1417 0.929 . S
H1430 C1418 0.960 . S
H1431 C1418 0.962 . S
H1432 C1418 0.960 . S
H1433 C1419 0.961 . S
H1434 C1419 0.961 . S
H1435 C1419 0.961 . S
H1436 C1420 0.931 . S
H1437 C1425 0.930 . S
H1438 C1426 0.956 . S
H1439 C1426 0.961 . S
H1440 C1426 0.961 . S
H1441 C1427 0.958 . S
H1442 C1427 0.961 . S
H1443 C1427 0.960 . S
C1444 C1445 1.391 . S
C1444 C1446 1.394 . S
C1444 H1460 0.931 . S
C1445 C1444 1.391 . S
C1445 C1449 1.376 . S
C1446 C1444 1.394 . S
C1446 C1447 1.369 . S
C1446 C1450 1.531 . S
C1447 C1446 1.369 . S
C1447 C1448 1.410 . S
C1447 C1455 1.503 . S
C1448 C1447 1.410 . S
C1448 C1449 1.392 . S
C1448 C1451 1.511 . S
C1449 C1445 1.376 . S
C1449 C1448 1.392 . S
C1449 H1461 0.929 . S
C1450 C1446 1.531 . S
C1450 H1462 0.960 . S
C1450 H1463 0.962 . S
C1450 H1464 0.960 . S
C1451 C1448 1.511 . S
C1451 H1465 0.961 . S
C1451 H1466 0.961 . S
C1451 H1467 0.961 . S
C1452 C1453 1.370 . S
C1452 C1454 1.363 . S
C1452 H1468 0.931 . S
C1453 C1452 1.370 . S
C1453 C1457 1.408 . S
C1454 C1452 1.363 . S
C1454 C1455 1.370 . S
C1454 C1458 1.524 . S
C1455 C1447 1.503 . S
C1455 C1454 1.370 . S
C1455 C1456 1.403 . S
C1456 C1455 1.403 . S
C1456 C1457 1.404 . S
C1456 C1459 1.539 . S
C1457 C1453 1.408 . S
C1457 C1456 1.404 . S
C1457 H1469 0.930 . S
C1458 C1454 1.524 . S
C1458 H1470 0.956 . S
C1458 H1471 0.961 . S
C1458 H1472 0.961 . S
C1459 C1456 1.539 . S
C1459 H1473 0.958 . S
C1459 H1474 0.961 . S
C1459 H1475 0.960 . S
H1460 C1444 0.931 . S
H1461 C1449 0.929 . S
H1462 C1450 0.960 . S
H1463 C1450 0.962 . S
H1464 C1450 0.960 . S
H1465 C1451 0.961 . S
H1466 C1451 0.961 . S
H1467 C1451 0.961 . S
H1468 C1452 0.931 . S
H1469 C1457 0.930 . S
H1470 C1458 0.956 . S
H1471 C1458 0.961 . S
H1472 C1458 0.961 . S
H1473 C1459 0.958 . S
H1474 C1459 0.961 . S
H1475 C1459 0.960 . S
C1476 C1477 1.391 . S
C1476 C1478 1.394 . S
C1476 H1492 0.931 . S
C1477 C1476 1.391 . S
C1477 C1481 1.376 . S
C1478 C1476 1.394 . S
C1478 C1479 1.369 . S
C1478 C1482 1.531 . S
C1479 C1478 1.369 . S
C1479 C1480 1.410 . S
C1479 C1487 1.503 . S
C1480 C1479 1.410 . S
C1480 C1481 1.392 . S
C1480 C1483 1.511 . S
C1481 C1477 1.376 . S
C1481 C1480 1.392 . S
C1481 H1493 0.929 . S
C1482 C1478 1.531 . S
C1482 H1494 0.960 . S
C1482 H1495 0.962 . S
C1482 H1496 0.960 . S
C1483 C1480 1.511 . S
C1483 H1497 0.961 . S
C1483 H1498 0.961 . S
C1483 H1499 0.961 . S
C1484 C1485 1.370 . S
C1484 C1486 1.363 1_545 S
C1484 H1500 0.931 . S
C1485 C1484 1.370 . S
C1485 C1489 1.408 1_545 S
C1486 C1484 1.363 1_565 S
C1486 C1487 1.370 . S
C1486 C1490 1.524 . S
C1487 C1479 1.503 . S
C1487 C1486 1.370 . S
C1487 C1488 1.403 . S
C1488 C1487 1.403 . S
C1488 C1489 1.404 . S
C1488 C1491 1.539 . S
C1489 C1485 1.408 1_565 S
C1489 C1488 1.404 . S
C1489 H1501 0.930 . S
C1490 C1486 1.524 . S
C1490 H1502 0.956 . S
C1490 H1503 0.961 . S
C1490 H1504 0.987 . S
C1491 C1488 1.539 . S
C1491 H1505 0.958 . S
C1491 H1506 0.961 . S
C1491 H1507 0.960 . S
H1492 C1476 0.931 . S
H1493 C1481 0.929 . S
H1494 C1482 0.960 . S
H1495 C1482 0.962 . S
H1496 C1482 0.960 . S
H1497 C1483 0.961 . S
H1498 C1483 0.961 . S
H1499 C1483 0.961 . S
H1500 C1484 0.931 . S
H1501 C1489 0.930 . S
H1502 C1490 0.956 . S
H1503 C1490 0.961 . S
H1504 C1490 0.987 . S
H1505 C1491 0.958 . S
H1506 C1491 0.961 . S
H1507 C1491 0.960 . S
C1508 C1509 1.391 . S
C1508 C1510 1.394 . S
C1508 H1524 0.931 . S
C1509 C1508 1.391 . S
C1509 C1513 1.376 . S
C1510 C1508 1.394 . S
C1510 C1511 1.369 . S
C1510 C1514 1.531 . S
C1511 C1510 1.369 . S
C1511 C1512 1.410 . S
C1511 C1519 1.503 . S
C1512 C1511 1.410 . S
C1512 C1513 1.392 . S
C1512 C1515 1.511 . S
C1513 C1509 1.376 . S
C1513 C1512 1.392 . S
C1513 H1525 0.929 . S
C1514 C1510 1.531 . S
C1514 H1526 0.960 . S
C1514 H1527 0.962 . S
C1514 H1528 0.960 . S
C1515 C1512 1.511 . S
C1515 H1529 0.961 . S
C1515 H1530 0.961 . S
C1515 H1531 0.961 . S
C1516 C1517 1.370 . S
C1516 C1518 1.363 . S
C1516 H1532 0.931 . S
C1517 C1516 1.370 . S
C1517 C1521 1.408 . S
C1518 C1516 1.363 . S
C1518 C1519 1.370 . S
C1518 C1522 1.524 . S
C1519 C1511 1.503 . S
C1519 C1518 1.370 . S
C1519 C1520 1.403 . S
C1520 C1519 1.403 . S
C1520 C1521 1.404 . S
C1520 C1523 1.539 . S
C1521 C1517 1.408 . S
C1521 C1520 1.404 . S
C1521 H1533 0.930 . S
C1522 C1518 1.524 . S
C1522 H1534 0.956 . S
C1522 H1535 0.961 . S
C1522 H1536 0.961 . S
C1523 C1520 1.539 . S
C1523 H1537 0.958 . S
C1523 H1538 0.961 . S
C1523 H1539 0.960 . S
H1524 C1508 0.931 . S
H1525 C1513 0.929 . S
H1526 C1514 0.960 . S
H1527 C1514 0.962 . S
H1528 C1514 0.960 . S
H1529 C1515 0.961 . S
H1530 C1515 0.961 . S
H1531 C1515 0.961 . S
H1532 C1516 0.931 . S
H1533 C1521 0.930 . S
H1534 C1522 0.956 . S
H1535 C1522 0.961 . S
H1536 C1522 0.961 . S
H1537 C1523 0.958 . S
H1538 C1523 0.961 . S
H1539 C1523 0.960 . S
C781 C99 1.098 . S
C773 C5 1.628 . S
C813 C231 1.262 . S
C805 C16 1.273 . S
C845 C117 1.699 . S
C837 C30 1.900 . S
C877 C213 0.982 . S
C869 C40 1.651 . S
C909 C345 1.135 . S
C901 C8 1.541 . S
C941 C459 1.130 . S
C933 C18 1.338 . S
C965 C29 1.796 . S
C973 C599 1.422 . S
C1005 C713 1.283 . S
C997 C38 1.357 . S
C1037 C327 1.075 . S
C1029 C19 1.457 . S
C1061 C27 1.577 . S
C1069 C441 1.086 . S
C1101 C545 1.261 . S
C1093 C41 1.578 . S
C1133 C659 1.107 . S
C1125 C7 1.523 . S
C1157 C52 1.662 . S
C1165 C257 1.117 . S
C1197 C89 1.476 . S
C1189 C62 1.771 . S
C1221 C74 1.309 . S
C1229 C203 1.060 . S
C1253 C82 1.322 . S
C1261 C143 1.091 . S
C1293 C555 1.312 . S
C1285 C51 1.866 . S
C1325 C669 1.504 . S
C1317 C60 1.537 . S
C1357 C317 1.023 . S
C1349 C71 1.095 . S
C1381 C84 1.334 . S
C1389 C431 1.048 . S
C1421 C573 1.373 . S
C1413 C63 1.679 . S
C1453 C687 1.146 . S
C1445 C73 1.568 . S
C1485 C371 1.317 . S
C1477 C85 1.627 . S
C1509 C49 1.409 . S
C1517 C485 1.322 . S
