# Generated by pormake.
# Topology zzz, (3,6)-cn, num edge types: 1
# Building blocks:
#     Node 0, Type 0, BuildingBlock: CUQRIR_clean_linker_1, # of connection points: 3
#     Node 1, Type 0, BuildingBlock: CUQRIR_clean_linker_1, # of connection points: 3
#     Node 2, Type 0, BuildingBlock: CUQRIR_clean_linker_1, # of connection points: 3
#     Node 3, Type 0, BuildingBlock: CUQRIR_clean_linker_1, # of connection points: 3
#     Node 4, Type 0, BuildingBlock: CUQRIR_clean_linker_1, # of connection points: 3
#     Node 5, Type 0, BuildingBlock: CUQRIR_clean_linker_1, # of connection points: 3
#     Node 6, Type 0, BuildingBlock: CUQRIR_clean_linker_1, # of connection points: 3
#     Node 7, Type 0, BuildingBlock: CUQRIR_clean_linker_1, # of connection points: 3
#     Node 8, Type 1, BuildingBlock: FUNLAD_clean_sbu_0, # of connection points: 6
#     Node 9, Type 1, BuildingBlock: FUNLAD_clean_sbu_0, # of connection points: 6
#     Node 10, Type 1, BuildingBlock: FUNLAD_clean_sbu_0, # of connection points: 6
#     Node 11, Type 1, BuildingBlock: FUNLAD_clean_sbu_0, # of connection points: 6
#     Edge 12, Type (0, 1), BuildingBlock: TEMPAE_clean_linker_10, # of connection points: 2
#     Edge 13, Type (0, 1), BuildingBlock: TEMPAE_clean_linker_10, # of connection points: 2
#     Edge 14, Type (0, 1), BuildingBlock: TEMPAE_clean_linker_10, # of connection points: 2
#     Edge 15, Type (0, 1), BuildingBlock: TEMPAE_clean_linker_10, # of connection points: 2
#     Edge 16, Type (0, 1), BuildingBlock: TEMPAE_clean_linker_10, # of connection points: 2
#     Edge 17, Type (0, 1), BuildingBlock: TEMPAE_clean_linker_10, # of connection points: 2
#     Edge 18, Type (0, 1), BuildingBlock: TEMPAE_clean_linker_10, # of connection points: 2
#     Edge 19, Type (0, 1), BuildingBlock: TEMPAE_clean_linker_10, # of connection points: 2
#     Edge 20, Type (0, 1), BuildingBlock: TEMPAE_clean_linker_10, # of connection points: 2
#     Edge 21, Type (0, 1), BuildingBlock: TEMPAE_clean_linker_10, # of connection points: 2
#     Edge 22, Type (0, 1), BuildingBlock: TEMPAE_clean_linker_10, # of connection points: 2
#     Edge 23, Type (0, 1), BuildingBlock: TEMPAE_clean_linker_10, # of connection points: 2
#     Edge 24, Type (0, 1), BuildingBlock: TEMPAE_clean_linker_10, # of connection points: 2
#     Edge 25, Type (0, 1), BuildingBlock: TEMPAE_clean_linker_10, # of connection points: 2
#     Edge 26, Type (0, 1), BuildingBlock: TEMPAE_clean_linker_10, # of connection points: 2
#     Edge 27, Type (0, 1), BuildingBlock: TEMPAE_clean_linker_10, # of connection points: 2
#     Edge 28, Type (0, 1), BuildingBlock: TEMPAE_clean_linker_10, # of connection points: 2
#     Edge 29, Type (0, 1), BuildingBlock: TEMPAE_clean_linker_10, # of connection points: 2
#     Edge 30, Type (0, 1), BuildingBlock: TEMPAE_clean_linker_10, # of connection points: 2
#     Edge 31, Type (0, 1), BuildingBlock: TEMPAE_clean_linker_10, # of connection points: 2
#     Edge 32, Type (0, 1), BuildingBlock: TEMPAE_clean_linker_10, # of connection points: 2
#     Edge 33, Type (0, 1), BuildingBlock: TEMPAE_clean_linker_10, # of connection points: 2
#     Edge 34, Type (0, 1), BuildingBlock: TEMPAE_clean_linker_10, # of connection points: 2
#     Edge 35, Type (0, 1), BuildingBlock: TEMPAE_clean_linker_10, # of connection points: 2
# Relax obj value: 0.131
# Max RMSD: 0.180
# Mean RMSD: 0.101
data_MOF--net-zzz--node1-FUNLAD_clean_sbu_0--node2-CUQRIR_clean_linker_1--edge1-TEMPAE_clean_linker_10
_symmetry_space_group_name_H-M    P1
_symmetry_Int_Tables_number       1
_symmetry_cell_setting            triclinic
loop_
_symmetry_equiv_pos_as_xyz
'x, y, z'
_cell_length_a     48.919707
_cell_length_b     54.771789
_cell_length_c     15.825958
_cell_angle_alpha  84.955049
_cell_angle_beta   84.237944
_cell_angle_gamma 89.658845
loop_
_atom_site_label
_atom_site_type_symbol
_atom_site_fract_x
_atom_site_fract_y
_atom_site_fract_z
_atom_type_partial_charge
C0 C 0.78597 0.46322 0.31718 0.0
N1 N 0.81372 0.46207 0.30485 0.0
N2 N 0.77452 0.45416 0.25171 0.0
C3 C 0.77026 0.47509 0.38908 0.0
C4 C 0.79641 0.44743 0.19948 0.0
N5 N 0.82019 0.45239 0.23144 0.0
C6 C 0.7945 0.43801 0.11347 0.0
H7 H 0.74807 0.4705 0.39397 0.0
H8 H 0.77288 0.49527 0.37793 0.0
H9 H 0.77852 0.46913 0.45029 0.0
H10 H 0.78467 0.45207 0.07167 0.0
H11 H 0.78151 0.42132 0.12067 0.0
H12 H 0.81483 0.4331 0.08217 0.0
C13 C 0.93844 0.76594 0.16164 0.0
N14 N 0.94532 0.78997 0.15738 0.0
N15 N 0.9446 0.75705 0.0848 0.0
C16 C 0.9256 0.75118 0.23977 0.0
C17 C 0.95588 0.77631 0.03422 0.0
N18 N 0.95626 0.79627 0.07825 0.0
C19 C 0.96846 0.77491 0.944 0.0
H20 H 0.94213 0.74298 0.27616 0.0
H21 H 0.91292 0.73607 0.22187 0.0
H22 H 0.91275 0.76297 0.28133 0.0
H23 H 0.95175 0.77481 0.90154 0.0
H24 H 0.98013 0.75758 0.93846 0.0
H25 H 0.98227 0.79067 0.92203 0.0
C26 C 0.75991 -0.00034 0.19315 0.0
N27 N 0.73226 0.00214 0.19174 0.0
N28 N 0.77293 0.00274 0.11278 0.0
C29 C 0.77429 0.99565 0.27262 0.0
C30 C 0.75222 0.00689 0.06272 0.0
N31 N 0.7277 0.00674 0.11043 0.0
C32 C 0.75579 0.00903 0.96667 0.0
H33 H 0.76235 0.00369 0.32674 0.0
H34 H 0.79522 0.00376 0.26243 0.0
H35 H 0.77624 0.97565 0.28922 0.0
H36 H 0.77434 -0.00098 0.94249 0.0
H37 H 0.75822 0.02865 0.94299 0.0
H38 H 0.73759 0.00168 0.94068 0.0
C39 C 0.51849 0.70789 0.21739 0.0
N40 N 0.51385 0.68349 0.22098 0.0
N41 N 0.51048 0.71924 0.14414 0.0
C42 C 0.52963 0.72062 0.28702 0.0
C43 C 0.50095 0.70071 0.10354 0.0
N44 N 0.50265 0.6791 0.15088 0.0
C45 C 0.49291 0.70326 0.01373 0.0
H46 H 0.5239 0.71048 0.35011 0.0
H47 H 0.52189 0.73969 0.28766 0.0
H48 H 0.55238 0.72114 0.27579 0.0
H49 H 0.50348 0.71908 0.97575 0.0
H50 H 0.47039 0.70615 0.01578 0.0
H51 H 0.49799 0.68643 0.98125 0.0
C52 C 0.24995 0.52515 0.12268 0.0
N53 N 0.22318 0.53172 0.12872 0.0
N54 N 0.26284 0.53428 0.18493 0.0
C55 C 0.26252 0.50722 0.06367 0.0
C56 C 0.24286 0.54653 0.22892 0.0
N57 N 0.21861 0.54475 0.19565 0.0
C58 C 0.24663 0.55805 0.30992 0.0
H59 H 0.25484 0.48855 0.08677 0.0
H60 H 0.28527 0.5074 0.06123 0.0
H61 H 0.25623 0.51159 0.99864 0.0
H62 H 0.22983 0.57111 0.32554 0.0
H63 H 0.26664 0.5678 0.30356 0.0
H64 H 0.24694 0.54346 0.36311 0.0
C65 C 0.08566 0.23198 0.28965 0.0
N66 N 0.08217 0.20735 0.29418 0.0
N67 N 0.07873 0.24039 0.3672 0.0
C68 C 0.09362 0.24791 0.20868 0.0
C69 C 0.07103 0.21996 0.4185 0.0
N70 N 0.07302 0.20002 0.37413 0.0
C71 C 0.06046 0.21949 0.51126 0.0
H72 H 0.10618 0.26376 0.22038 0.0
H73 H 0.07467 0.25511 0.18247 0.0
H74 H 0.1053 0.23733 0.16047 0.0
H75 H 0.03767 0.21989 0.51707 0.0
H76 H 0.0681 0.23549 0.54048 0.0
H77 H 0.06683 0.20239 0.54682 0.0
C78 C 0.2747 0.99758 0.26156 0.0
N79 N 0.30233 0.99526 0.26385 0.0
N80 N 0.2612 0.99119 0.33976 0.0
C81 C 0.26087 0.00725 0.18498 0.0
C82 C 0.28159 0.98505 0.38951 0.0
N83 N 0.30643 0.98756 0.34361 0.0
C84 C 0.27695 0.97659 0.48312 0.0
H85 H 0.25814 0.02733 0.18661 0.0
H86 H 0.24026 -0.00121 0.18636 0.0
H87 H 0.27332 0.00391 0.12474 0.0
H88 H 0.26884 0.95758 0.49046 0.0
H89 H 0.26137 0.98835 0.51549 0.0
H90 H 0.29597 0.97654 0.51547 0.0
C91 C 0.49749 0.28739 0.26393 0.0
N92 N 0.49941 0.31187 0.26948 0.0
N93 N 0.50389 0.27487 0.33724 0.0
C94 C 0.49073 0.2759 0.18564 0.0
C95 C 0.50957 0.29261 0.38739 0.0
N96 N 0.5069 0.31502 0.34615 0.0
C97 C 0.51867 0.28798 0.47558 0.0
H98 H 0.48342 0.25678 0.20032 0.0
H99 H 0.50955 0.27567 0.14037 0.0
H100 H 0.47497 0.2869 0.1537 0.0
H101 H 0.54143 0.28701 0.47041 0.0
H102 H 0.51022 0.2704 0.50753 0.0
H103 H 0.51222 0.30289 0.51601 0.0
C104 C 0.02879 0.95643 0.83333 0.0
N105 N 0.9968 0.96284 0.59923 0.0
C106 C 0.01421 0.94404 0.58205 0.0
C107 C 0.00613 0.92509 0.53696 0.0
C108 C 0.97978 0.92527 0.50935 0.0
C109 C 0.96223 0.94501 0.5268 0.0
C110 C 0.97126 0.96379 0.57197 0.0
Zn111 Zn 0.00947 0.98692 0.6791 0.0
C112 C 0.96481 0.99735 0.81564 0.0
N113 N 0.03813 0.03149 0.85922 0.0
C114 C 0.06394 0.03131 0.88447 0.0
C115 C 0.02012 0.04973 0.8782 0.0
C116 C 0.02775 0.06877 0.92357 0.0
C117 C 0.05434 0.06938 0.94894 0.0
C118 C 0.07259 0.05032 0.92936 0.0
Zn119 Zn 0.02562 0.00726 0.7794 0.0
O120 O 0.01907 0.95652 0.76192 0.0
C121 C 0.07021 0.99679 0.6426 0.0
O122 O 0.03446 0.97656 0.86194 0.0
H123 H 1.00001 0.05008 0.85553 0.0
H124 H 0.03417 0.94324 0.60587 0.0
H125 H 0.07805 0.01681 0.86789 0.0
O126 O 0.04988 0.98702 0.61428 0.0
O127 O 0.06642 0.00659 0.71293 0.0
H128 H 0.95764 0.97876 0.58706 0.0
O129 O 0.01615 0.03764 0.69668 0.0
O130 O 1.00059 0.01771 0.5967 0.0
O131 O 0.98511 0.00719 0.84391 0.0
O132 O 0.96871 0.98746 0.74555 0.0
C133 C 0.00641 0.03781 0.62529 0.0
H134 H 0.02013 0.91002 0.52614 0.0
H135 H 0.94179 0.94585 0.50607 0.0
H136 H 0.01324 0.08334 0.93622 0.0
H137 H 0.09327 0.0502 0.94821 0.0
C138 C 0.48048 0.98302 0.6142 0.0
N139 N 0.51309 0.05141 0.65451 0.0
C140 C 0.51087 0.05548 0.56941 0.0
C141 C 0.50885 0.07923 0.53119 0.0
C142 C 0.51031 0.0994 0.57979 0.0
C143 C 0.51311 0.09464 0.66752 0.0
C144 C 0.51407 0.07045 0.70384 0.0
Zn145 Zn 0.51561 0.0157 0.70511 0.0
C146 C 0.47234 0.00174 0.84559 0.0
N147 N 0.52109 0.94019 0.79495 0.0
C148 C 0.51813 0.92096 0.74775 0.0
C149 C 0.52477 0.93646 0.8792 0.0
C150 C 0.52579 0.9128 0.91899 0.0
C151 C 0.52198 0.8925 0.8729 0.0
C152 C 0.51821 0.8969 0.78575 0.0
Zn153 Zn 0.51829 0.97581 0.74413 0.0
O154 O 0.48929 0.00471 0.61609 0.0
C155 C 0.56183 0.99012 0.60533 0.0
O156 O 0.48871 0.96598 0.66508 0.0
H157 H 0.52659 0.95187 0.91644 0.0
H158 H 0.51069 0.04027 0.53038 0.0
H159 H 0.51513 0.92425 0.68094 0.0
O160 O 0.55117 0.01084 0.61859 0.0
O161 O 0.55122 0.97077 0.64591 0.0
H162 H 0.5159 0.06693 0.77134 0.0
O163 O 0.54814 0.98618 0.82063 0.0
O164 O 0.54224 0.0258 0.79481 0.0
O165 O 0.4855 0.98166 0.84176 0.0
O166 O 0.48014 0.02001 0.79354 0.0
C167 C 0.55427 0.008 0.83234 0.0
H168 H 0.50604 0.08156 0.46404 0.0
H169 H 0.51495 0.10934 0.70799 0.0
H170 H 0.52943 0.9106 0.98555 0.0
H171 H 0.51471 0.88203 0.7474 0.0
C172 C 0.53364 0.46463 0.62556 0.0
N173 N 0.45765 0.49759 0.65312 0.0
C174 C 0.46243 0.5006 0.56658 0.0
C175 C 0.44086 0.50108 0.51578 0.0
C176 C 0.41379 0.4982 0.55359 0.0
C177 C 0.40923 0.49506 0.64321 0.0
C178 C 0.43163 0.49479 0.69214 0.0
Zn179 Zn 0.49232 0.49745 0.7161 0.0
C180 C 0.49586 0.45956 0.85452 0.0
N181 N 0.56974 0.49713 0.8203 0.0
C182 C 0.59435 0.48946 0.78399 0.0
C183 C 0.56648 0.50148 0.90415 0.0
C184 C 0.58812 0.49815 0.9546 0.0
C185 C 0.61334 0.48901 0.92056 0.0
C186 C 0.6164 0.48501 0.83331 0.0
Zn187 Zn 0.53469 0.49811 0.75745 0.0
O188 O 0.50945 0.47305 0.63202 0.0
C189 C 0.53181 0.53631 0.62183 0.0
O190 O 0.55073 0.47122 0.67471 0.0
H191 H 0.54677 0.50667 0.93394 0.0
H192 H 0.48315 0.50275 0.53615 0.0
H193 H 0.59666 0.48582 0.71764 0.0
O194 O 0.5076 0.52757 0.63075 0.0
O195 O 0.54981 0.52711 0.66781 0.0
H196 H 0.42827 0.49234 0.76097 0.0
O197 O 0.51739 0.52484 0.83584 0.0
O198 O 0.47517 0.52248 0.80076 0.0
O199 O 0.51927 0.46982 0.84692 0.0
O200 O 0.47819 0.467 0.80422 0.0
C201 C 0.49245 0.53151 0.84408 0.0
H202 H 0.44543 0.50412 0.44727 0.0
H203 H 0.38865 0.49267 0.67503 0.0
H204 H 0.5847 0.50228 0.02044 0.0
H205 H 0.63523 0.47769 0.80371 0.0
C206 C 0.0482 0.52727 0.56636 0.0
N207 N 0.037 0.4522 0.64346 0.0
C208 C 0.04191 0.45119 0.55765 0.0
C209 C 0.04957 0.42927 0.52357 0.0
C210 C 0.05097 0.40757 0.57754 0.0
C211 C 0.04558 0.40915 0.6661 0.0
C212 C 0.03908 0.43174 0.69776 0.0
Zn213 Zn 0.02482 0.4851 0.68861 0.0
C214 C 0.06376 0.50472 0.7975 0.0
N215 N 0.99958 0.55484 0.76982 0.0
C216 C 0.99132 0.57385 0.71717 0.0
C217 C 0.9994 0.55661 0.85516 0.0
C218 C 0.99023 0.5779 0.89091 0.0
C219 C 0.9816 0.59777 0.83827 0.0
C220 C 0.9824 0.59573 0.75022 0.0
Zn221 Zn 0.01205 0.52234 0.72436 0.0
O222 O 0.04762 0.50418 0.58341 0.0
C223 C 0.97314 0.50231 0.61559 0.0
O224 O 0.03476 0.54088 0.61656 0.0
H225 H 0.00634 0.54143 0.89593 0.0
H226 H 0.03964 0.46734 0.5147 0.0
H227 H 0.99157 0.57203 0.6496 0.0
O228 O 0.99046 0.48495 0.61866 0.0
O229 O 0.97664 0.52109 0.65542 0.0
H230 H 0.03517 0.43276 0.76579 0.0
O231 O 0.98996 0.50367 0.83138 0.0
O232 O 1.0012 0.4669 0.79544 0.0
O233 O 0.04719 0.52264 0.79232 0.0
O234 O 0.05952 0.48575 0.75955 0.0
C235 C 0.98862 0.48058 0.84717 0.0
H236 H 0.05419 0.42954 0.45521 0.0
H237 H 0.04572 0.3931 0.71104 0.0
H238 H 0.99028 0.57896 0.95894 0.0
H239 H 0.97586 0.61074 0.70777 0.0
C240 C 0.21893 0.97102 0.40961 0.0
C241 C 0.23217 0.99196 0.36778 0.0
C242 C 0.1922 0.97218 0.45089 0.0
C243 C 0.17796 0.9948 0.44876 0.0
C244 C 0.19071 0.01578 0.40243 0.0
C245 C 0.21776 0.01415 0.36307 0.0
C246 C 0.17962 0.94936 0.49965 0.0
C247 C 0.17613 0.04013 0.39686 0.0
C248 C 0.10038 0.99122 0.50758 0.0
C249 C 0.09778 0.99698 0.59284 0.0
C250 C 0.12616 0.99112 0.45934 0.0
C251 C 0.15017 0.99652 0.49735 0.0
C252 C 0.14769 0.00251 0.58321 0.0
C253 C 0.12156 0.00287 0.62962 0.0
C254 C 0.12772 0.98504 0.36777 0.0
C255 C 0.17275 0.00808 0.62667 0.0
H256 H 0.22997 0.95381 0.41221 0.0
H257 H 0.22808 0.0304 0.33145 0.0
H258 H 0.1756 0.95236 0.56823 0.0
H259 H 0.15959 0.94532 0.47664 0.0
H260 H 0.19311 0.9331 0.49347 0.0
H261 H 0.18779 0.05408 0.35242 0.0
H262 H 0.15545 0.03796 0.37532 0.0
H263 H 0.17316 0.04706 0.46093 0.0
H264 H 0.08215 0.98687 0.47812 0.0
H265 H 0.11982 0.00734 0.69531 0.0
H266 H 0.1396 0.96792 0.36011 0.0
H267 H 0.13871 -0.00018 0.32544 0.0
H268 H 0.10708 0.98257 0.34617 0.0
H269 H 0.18665 0.99199 0.62764 0.0
H270 H 0.16738 0.01273 0.69323 0.0
H271 H 0.18435 0.02363 0.59049 0.0
C272 C 0.48221 0.23402 0.35939 0.0
C273 C 0.50549 0.24882 0.35802 0.0
C274 C 0.48278 0.20909 0.38889 0.0
C275 C 0.50682 0.19916 0.4214 0.0
C276 C 0.53048 0.21405 0.41914 0.0
C277 C 0.52966 0.23858 0.38572 0.0
C278 C 0.45747 0.19358 0.38724 0.0
C279 C 0.55622 0.20445 0.45562 0.0
C280 C 0.49816 0.14414 0.5856 0.0
C281 C 0.50911 0.12505 0.5389 0.0
C282 C 0.49753 0.16834 0.54835 0.0
C283 C 0.50695 0.17353 0.46114 0.0
C284 C 0.51728 0.15439 0.4128 0.0
C285 C 0.51887 0.13058 0.45261 0.0
C286 C 0.48711 0.18842 0.60275 0.0
C287 C 0.52675 0.15907 0.31895 0.0
H288 H 0.46339 0.24213 0.33947 0.0
H289 H 0.54762 0.25014 0.38425 0.0
H290 H 0.46302 0.17626 0.35828 0.0
H291 H 0.44818 0.18858 0.45328 0.0
H292 H 0.44176 0.20327 0.35084 0.0
H293 H 0.57283 0.21845 0.44872 0.0
H294 H 0.55148 0.19848 0.52437 0.0
H295 H 0.56397 0.1882 0.42362 0.0
H296 H 0.48992 0.14029 0.65147 0.0
H297 H 0.52808 0.11639 0.41569 0.0
H298 H 0.46863 0.19704 0.57785 0.0
H299 H 0.50295 0.20297 0.6 0.0
H300 H 0.48173 0.18152 0.67049 0.0
H301 H 0.5105 0.1688 0.28512 0.0
H302 H 0.53189 0.14185 0.28871 0.0
H303 H 0.54519 0.17104 0.30993 0.0
C304 C 0.31024 0.54006 0.21652 0.0
C305 C 0.28714 0.52503 0.21997 0.0
C306 C 0.33173 0.53355 0.26644 0.0
C307 C 0.32962 0.51171 0.32192 0.0
C308 C 0.30681 0.49591 0.32221 0.0
C309 C 0.28583 0.50278 0.27084 0.0
C310 C 0.35593 0.55069 0.26334 0.0
C311 C 0.30366 0.4726 0.38078 0.0
C312 C 0.39367 0.4889 0.4203 0.0
C313 C 0.3908 0.49941 0.49859 0.0
C314 C 0.37376 0.49242 0.36259 0.0
C315 C 0.35015 0.50645 0.3842 0.0
C316 C 0.34647 0.51615 0.46467 0.0
C317 C 0.3669 0.5126 0.52079 0.0
C318 C 0.37841 0.48179 0.27745 0.0
C319 C 0.32132 0.53094 0.49042 0.0
H320 H 0.31076 0.55742 0.17782 0.0
H321 H 0.26751 0.49155 0.2741 0.0
H322 H 0.35556 0.55912 0.32468 0.0
H323 H 0.37549 0.54042 0.25466 0.0
H324 H 0.35577 0.56558 0.21097 0.0
H325 H 0.28622 0.46118 0.36696 0.0
H326 H 0.32274 0.46156 0.37522 0.0
H327 H 0.30005 0.47722 0.44785 0.0
H328 H 0.41182 0.47824 0.40336 0.0
H329 H 0.3646 0.52095 0.58068 0.0
H330 H 0.38034 0.49685 0.2255 0.0
H331 H 0.36054 0.47042 0.26722 0.0
H332 H 0.39723 0.47036 0.27204 0.0
H333 H 0.3209 0.548 0.44722 0.0
H334 H 0.3208 0.536 0.55702 0.0
H335 H 0.30241 0.52044 0.48419 0.0
C336 C 0.09804 0.28142 0.37735 0.0
C337 C 0.07559 0.26535 0.3883 0.0
C338 C 0.09534 0.30536 0.40244 0.0
C339 C 0.06994 0.31283 0.44326 0.0
C340 C 0.04726 0.29653 0.45482 0.0
C341 C 0.05022 0.27321 0.42525 0.0
C342 C 0.11965 0.32256 0.38588 0.0
C343 C 0.02009 0.30342 0.50055 0.0
C344 C 0.06962 0.36439 0.58892 0.0
C345 C 0.0572 0.38353 0.54146 0.0
C346 C 0.07395 0.34131 0.55772 0.0
C347 C 0.06697 0.33753 0.47523 0.0
C348 C 0.05566 0.35695 0.42524 0.0
C349 C 0.05023 0.37941 0.45968 0.0
C350 C 0.08521 0.32077 0.61416 0.0
C351 C 0.04881 0.35389 0.33578 0.0
H352 H 0.11779 0.2751 0.35052 0.0
H353 H 0.03286 0.26076 0.4329 0.0
H354 H 0.11353 0.34021 0.35314 0.0
H355 H 0.12698 0.32667 0.44717 0.0
H356 H 0.13699 0.31473 0.34617 0.0
H357 H 0.00492 0.28818 0.50754 0.0
H358 H 0.02323 0.30876 0.56495 0.0
H359 H 0.01125 0.31948 0.46532 0.0
H360 H 0.07587 0.36723 0.651 0.0
H361 H 0.04 0.39353 0.42242 0.0
H362 H 0.10472 0.31392 0.58299 0.0
H363 H 0.0705 0.30519 0.62405 0.0
H364 H 0.08908 0.32657 0.67744 0.0
H365 H 0.06643 0.34569 0.29857 0.0
H366 H 0.0435 0.37159 0.30149 0.0
H367 H 0.0311 0.34123 0.33795 0.0
C368 C 0.81792 0.98168 0.10091 0.0
C369 C 0.80195 0.00254 0.0843 0.0
C370 C 0.84511 0.98011 0.06244 0.0
C371 C 0.85647 -0.00017 0.00578 0.0
C372 C 0.84063 0.02127 0.99163 0.0
C373 C 0.81369 0.02237 0.0313 0.0
C374 C 0.86132 0.95702 0.08008 0.0
C375 C 0.85177 0.04277 0.93213 0.0
C376 C 0.93383 0.00622 0.94592 0.0
C377 C 0.93714 0.9973 0.86489 0.0
C378 C 0.90791 0.00655 0.99331 0.0
C379 C 0.88451 -0.00207 0.95895 0.0
C380 C 0.88773 0.98864 0.87764 0.0
C381 C 0.91396 0.98836 0.83181 0.0
C382 C 0.90551 0.01647 0.07978 0.0
C383 C 0.86336 0.97938 0.83829 0.0
H384 H 0.80874 0.96628 0.14127 0.0
H385 H 0.80131 0.03852 0.01894 0.0
H386 H 0.86525 0.94759 0.02082 0.0
H387 H 0.8816 0.96157 0.10043 0.0
H388 H 0.85039 0.94413 0.13019 0.0
H389 H 0.83722 0.05842 0.93038 0.0
H390 H 0.87145 0.04914 0.95193 0.0
H391 H 0.85609 0.03704 0.86659 0.0
H392 H 0.95156 0.01305 0.97256 0.0
H393 H 0.91623 0.98137 0.7695 0.0
H394 H 0.89543 0.00275 0.12861 0.0
H395 H 0.8924 0.03307 0.07882 0.0
H396 H 0.92581 0.02133 0.09946 0.0
H397 H 0.85263 0.96472 0.88186 0.0
H398 H 0.86935 0.97205 0.77585 0.0
H399 H 0.84844 0.99448 0.82884 0.0
C400 C 0.53676 0.75788 0.11306 0.0
C401 C 0.51219 0.74484 0.11394 0.0
C402 C 0.53909 0.78234 0.07801 0.0
C403 C 0.51656 0.79365 0.04059 0.0
C404 C 0.49162 0.78057 0.04217 0.0
C405 C 0.4896 0.75649 0.08035 0.0
C406 C 0.56573 0.79594 0.07993 0.0
C407 C 0.4673 0.79175 0.00145 0.0
C408 C 0.51099 0.86278 0.00253 0.0
C409 C 0.52127 0.8671 0.91626 0.0
C410 C 0.5103 0.83912 0.0445 0.0
C411 C 0.51907 0.81902 0.99854 0.0
C412 C 0.52923 0.82306 0.91149 0.0
C413 C 0.53063 0.84705 0.87184 0.0
C414 C 0.49991 0.83561 0.13795 0.0
C415 C 0.53818 0.80199 0.8598 0.0
H416 H 0.55432 0.74876 0.13808 0.0
H417 H 0.4705 0.74647 0.08233 0.0
H418 H 0.57549 0.80026 0.01402 0.0
H419 H 0.56172 0.81362 0.10816 0.0
H420 H 0.58048 0.78518 0.11719 0.0
H421 H 0.44958 0.77892 0.00689 0.0
H422 H 0.46059 0.80858 0.03169 0.0
H423 H 0.47329 0.79719 0.9329 0.0
H424 H 0.50302 0.87783 0.03753 0.0
H425 H 0.53913 0.85002 0.80588 0.0
H426 H 0.51499 0.82496 0.17403 0.0
H427 H 0.48046 0.82498 0.14637 0.0
H428 H 0.49611 0.85333 0.16627 0.0
H429 H 0.55519 0.79186 0.88829 0.0
H430 H 0.54515 0.80818 0.79239 0.0
H431 H 0.52089 0.78889 0.86085 0.0
C432 C 0.73658 0.48166 0.21716 0.0
C433 C 0.74714 0.45789 0.22734 0.0
C434 C 0.71274 0.48636 0.17611 0.0
C435 C 0.6999 0.46693 0.14155 0.0
C436 C 0.70969 0.44268 0.15567 0.0
C437 C 0.73285 0.43842 0.20032 0.0
C438 C 0.70223 0.51231 0.16564 0.0
C439 C 0.69705 0.42153 0.11816 0.0
C440 C 0.62924 0.47524 0.06378 0.0
C441 C 0.6357 0.48301 0.97687 0.0
C442 C 0.64985 0.47044 0.11848 0.0
C443 C 0.6777 0.47227 0.08502 0.0
C444 C 0.6845 0.47929 0.99716 0.0
C445 C 0.66347 0.48502 0.94457 0.0
C446 C 0.64178 0.46367 0.21225 0.0
C447 C 0.71404 0.48079 0.95861 0.0
H448 H 0.7478 0.49676 0.23731 0.0
H449 H 0.74085 0.42001 0.20985 0.0
H450 H 0.70675 0.51984 0.09833 0.0
H451 H 0.67961 0.51272 0.18121 0.0
H452 H 0.7119 0.52447 0.20685 0.0
H453 H 0.70585 0.40361 0.14013 0.0
H454 H 0.67451 0.42095 0.13502 0.0
H455 H 0.70069 0.42409 0.04757 0.0
H456 H 0.60801 0.47275 0.08967 0.0
H457 H 0.66893 0.4913 0.87827 0.0
H458 H 0.65158 0.47651 0.2507 0.0
H459 H 0.64924 0.44502 0.23102 0.0
H460 H 0.61918 0.46413 0.22885 0.0
H461 H 0.72496 0.49538 0.98627 0.0
H462 H 0.7158 0.4848 0.88823 0.0
H463 H 0.7247 0.46325 0.97396 0.0
C464 C 0.92799 0.72569 1.00122 0.0
C465 C 0.94418 0.73217 0.06368 0.0
C466 C 0.93102 0.70278 0.96822 0.0
C467 C 0.95123 0.68635 0.99726 0.0
C468 C 0.96683 0.69252 0.06315 0.0
C469 C 0.96295 0.71539 0.09603 0.0
C470 C 0.91361 0.6967 0.89934 0.0
C471 C 0.98883 0.67568 0.09504 0.0
C472 C 0.95284 0.61982 0.94676 0.0
C473 C 0.97245 0.62064 0.87558 0.0
C474 C 0.94512 0.64118 0.98583 0.0
C475 C 0.95775 0.66375 0.95382 0.0
C476 C 0.97734 0.66469 0.88127 0.0
C477 C 0.98427 0.64312 0.84252 0.0
C478 C 0.92373 0.63958 0.06183 0.0
C479 C 0.99155 0.68836 0.84599 0.0
H480 H 0.91369 0.73899 0.97627 0.0
H481 H 0.97568 0.72083 0.14344 0.0
H482 H 0.92661 0.69682 0.83768 0.0
H483 H 0.9047 0.67804 0.91396 0.0
H484 H 0.89665 0.71003 0.8916 0.0
H485 H 0.99769 0.68239 0.15069 0.0
H486 H 0.98041 0.657 0.11345 0.0
H487 H 0.00562 0.67414 0.04318 0.0
H488 H 0.94355 0.6024 0.97185 0.0
H489 H 0.99962 0.64368 0.78796 0.0
H490 H 0.9069 0.65276 0.05044 0.0
H491 H 0.93301 0.64468 0.11897 0.0
H492 H 0.91478 0.62089 0.07588 0.0
H493 H 0.97615 0.70235 0.82841 0.0
H494 H 0.00617 0.68599 0.78891 0.0
H495 H 1.00299 0.69564 0.8955 0.0
C496 C 0.03598 0.1701 0.37351 0.0
C497 C 0.06094 0.17649 0.40175 0.0
C498 C 0.02377 0.14723 0.40003 0.0
C499 C 0.03711 0.13048 0.45537 0.0
C500 C 0.06287 0.13669 0.48164 0.0
C501 C 0.07438 0.1598 0.45496 0.0
C502 C 0.99641 0.14122 0.37058 0.0
C503 C 0.0782 0.11894 0.53809 0.0
C504 C 1.0001 0.08269 0.6111 0.0
C505 C 0.00679 0.06117 0.57224 0.0
C506 C 0.00801 0.10563 0.57025 0.0
C507 C 0.02376 0.10692 0.48988 0.0
C508 C 0.02911 0.08525 0.44816 0.0
C509 C 0.01995 0.0626 0.48934 0.0
C510 C 1.00146 0.12829 0.61631 0.0
C511 C 0.04558 0.08543 0.36219 0.0
H512 H 0.02596 0.1832 0.33149 0.0
H513 H 0.09394 0.1649 0.47499 0.0
H514 H 0.99679 0.12262 0.34785 0.0
H515 H 0.98025 0.14123 0.42505 0.0
H516 H 0.99067 0.15466 0.31862 0.0
H517 H 0.09853 0.1262 0.54963 0.0
H518 H 0.06588 0.11483 0.60046 0.0
H519 H 0.08138 0.1014 0.5083 0.0
H520 H 0.99003 0.08146 0.67562 0.0
H521 H 0.02534 0.04586 0.45978 0.0
H522 H 0.9933 0.14293 0.57281 0.0
H523 H 0.02054 0.13538 0.63797 0.0
H524 H 0.98623 0.12451 0.67286 0.0
H525 H 0.03117 0.08645 0.31224 0.0
H526 H 0.05755 0.06824 0.35662 0.0
H527 H 0.06 0.10114 0.34917 0.0
C528 C 0.35144 0.96718 0.34348 0.0
C529 C 0.33281 0.98439 0.37554 0.0
C530 C 0.37749 0.96445 0.37321 0.0
C531 C 0.38464 0.97911 0.43709 0.0
C532 C 0.36583 0.99668 0.46882 0.0
C533 C 0.34029 -0.00068 0.43661 0.0
C534 C 0.39716 0.94581 0.33702 0.0
C535 C 0.37259 0.01262 0.5372 0.0
C536 C 0.43814 0.96118 0.58765 0.0
C537 C 0.4587 0.97855 0.55957 0.0
C538 C 0.41441 0.9601 0.54518 0.0
C539 C 0.41167 0.97634 0.47183 0.0
C540 C 0.4335 0.9924 0.43903 0.0
C541 C 0.45662 0.9936 0.48417 0.0
C542 C 0.39138 0.94304 0.58295 0.0
C543 C 0.43169 0.00935 0.35922 0.0
H544 H 0.34553 0.95594 0.29525 0.0
H545 H 0.3259 0.01299 0.45931 0.0
H546 H 0.41768 0.9542 0.31788 0.0
H547 H 0.39982 0.9306 0.38654 0.0
H548 H 0.38972 0.93802 0.28098 0.0
H549 H 0.35526 0.02476 0.5568 0.0
H550 H 0.37788 0.00098 0.59423 0.0
H551 H 0.39076 0.02422 0.51386 0.0
H552 H 0.4397 0.94962 0.64621 0.0
H553 H 0.4727 0.00686 0.46194 0.0
H554 H 0.38354 0.9328 0.53295 0.0
H555 H 0.37406 0.95395 0.61063 0.0
H556 H 0.39792 0.92968 0.63396 0.0
H557 H 0.42458 -0.00085 0.30792 0.0
H558 H 0.45174 0.01818 0.33579 0.0
H559 H 0.41642 0.02395 0.3723 0.0
C560 C 0.53714 0.35107 0.33503 0.0
C561 C 0.51423 0.338 0.37505 0.0
C562 C 0.54531 0.37294 0.36551 0.0
C563 C 0.53006 0.38172 0.43745 0.0
C564 C 0.5065 0.36869 0.47664 0.0
C565 C 0.49881 0.34702 0.44448 0.0
C566 C 0.57022 0.38653 0.32126 0.0
C567 C 0.48938 0.3776 0.55266 0.0
C568 C 0.55507 0.42509 0.58674 0.0
C569 C 0.53999 0.44606 0.5647 0.0
C570 C 0.55408 0.40435 0.5406 0.0
C571 C 0.53778 0.40491 0.47119 0.0
C572 C 0.52498 0.42699 0.44361 0.0
C573 C 0.52622 0.44729 0.49085 0.0
C574 C 0.56826 0.38118 0.57122 0.0
C575 C 0.50764 0.42849 0.36952 0.0
H576 H 0.54879 0.34391 0.28076 0.0
H577 H 0.48085 0.33688 0.47381 0.0
H578 H 0.56431 0.40522 0.29681 0.0
H579 H 0.58554 0.38866 0.36728 0.0
H580 H 0.58008 0.37698 0.26709 0.0
H581 H 0.47193 0.3651 0.57618 0.0
H582 H 0.50235 0.37929 0.60548 0.0
H583 H 0.48104 0.39606 0.53549 0.0
H584 H 0.56565 0.42413 0.64395 0.0
H585 H 0.5148 0.46368 0.47326 0.0
H586 H 0.57866 0.37221 0.5166 0.0
H587 H 0.55272 0.36811 0.60487 0.0
H588 H 0.58362 0.38476 0.6158 0.0
H589 H 0.51845 0.42004 0.31452 0.0
H590 H 0.50242 0.44772 0.34877 0.0
H591 H 0.48822 0.41816 0.38834 0.0
C592 C 0.18578 0.53584 0.32117 0.0
C593 C 0.192 0.54814 0.24046 0.0
C594 C 0.1597 0.53733 0.36494 0.0
C595 C 0.13902 0.55112 0.32607 0.0
C596 C 0.14516 0.56371 0.24427 0.0
C597 C 0.17177 0.56209 0.20222 0.0
C598 C 0.15407 0.52332 0.45161 0.0
C599 C 0.12363 0.57856 0.20105 0.0
C600 C 0.07202 0.52362 0.42243 0.0
C601 C 0.06624 0.53762 0.49195 0.0
C602 C 0.09393 0.52977 0.3606 0.0
C603 C 0.11069 0.55016 0.36963 0.0
C604 C 0.10302 0.56591 0.43432 0.0
C605 C 0.08066 0.55948 0.49491 0.0
C606 C 0.10101 0.51278 0.29157 0.0
C607 C 0.12021 0.58795 0.44544 0.0
H608 H 0.20128 0.52442 0.34902 0.0
H609 H 0.17674 0.57132 0.13919 0.0
H610 H 0.1453 0.5357 0.49913 0.0
H611 H 0.13877 0.50863 0.44859 0.0
H612 H 0.1729 0.51476 0.47467 0.0
H613 H 0.13109 0.58557 0.13479 0.0
H614 H 0.10488 0.56737 0.19956 0.0
H615 H 0.11758 0.59438 0.2379 0.0
H616 H 0.06046 0.50695 0.41918 0.0
H617 H 0.07605 0.57042 0.5484 0.0
H618 H 0.11838 0.50087 0.3089 0.0
H619 H 0.10758 0.52333 0.22993 0.0
H620 H 0.08339 0.50085 0.283 0.0
H621 H 0.13867 0.5818 0.47682 0.0
H622 H 0.10867 0.60095 0.48567 0.0
H623 H 0.12738 0.59772 0.38284 0.0
C624 C 0.9588 0.83563 0.9915 0.0
C625 C 0.97009 0.819 0.05014 0.0
C626 C 0.97164 0.85821 0.96529 0.0
C627 C 0.99669 0.86386 0.99734 0.0
C628 C 0.00821 0.84692 0.05656 0.0
C629 C 0.99455 0.82468 0.08291 0.0
C630 C 0.95845 0.87596 0.90312 0.0
C631 C 0.03516 0.85201 0.09043 0.0
C632 C 0.03634 0.91172 0.84883 0.0
C633 C 0.02841 0.93315 0.88666 0.0
C634 C 0.0282 0.88867 0.88841 0.0
C635 C 0.01101 0.88724 0.96615 0.0
C636 C 0.00471 0.90878 0.00761 0.0
C637 C 0.01386 0.93156 0.96767 0.0
C638 C 0.0359 0.8661 0.84314 0.0
C639 C 0.986 0.90815 0.08951 0.0
H640 H 0.93971 0.83098 0.96735 0.0
H641 H 1.00302 0.81154 0.12843 0.0
H642 H 0.95518 0.8939 0.93009 0.0
H643 H 0.97227 0.87916 0.84319 0.0
H644 H 0.93838 0.86916 0.88737 0.0
H645 H 0.05212 0.85076 0.03893 0.0
H646 H 0.03552 0.87085 0.11094 0.0
H647 H 0.03922 0.83876 0.14501 0.0
H648 H 0.04743 0.91309 0.78569 0.0
H649 H 0.00728 0.94823 0.99593 0.0
H650 H 0.01772 0.85941 0.81528 0.0
H651 H 0.04251 0.85117 0.88859 0.0
H652 H 0.05267 0.86988 0.79091 0.0
H653 H 0.96445 0.90588 0.07533 0.0
H654 H 0.98741 0.92527 0.12166 0.0
H655 H 0.99093 0.89239 0.13397 0.0
C656 C 0.69571 0.03053 0.02551 0.0
C657 C 0.70119 0.00972 0.07891 0.0
C658 C 0.67058 0.03307 0.99028 0.0
C659 C 0.65041 0.01448 0.01028 0.0
C660 C 0.65539 0.99401 0.06779 0.0
C661 C 0.68091 0.99174 0.10068 0.0
C662 C 0.66621 0.05497 0.92829 0.0
C663 C 0.63426 0.97395 0.09149 0.0
C664 C 0.57774 0.02483 0.94833 0.0
C665 C 0.57875 0.01192 0.87569 0.0
C666 C 0.60106 0.02607 0.99318 0.0
C667 C 0.6258 0.01471 0.9626 0.0
C668 C 0.62697 0.00258 0.887 0.0
C669 C 0.60329 0.00101 0.84535 0.0
C670 C 0.59905 0.03874 0.07447 0.0
C671 C 0.65307 0.99072 0.85101 0.0
H672 H 0.71141 0.04453 0.01013 0.0
H673 H 0.68534 0.97567 0.14199 0.0
H674 H 0.66564 0.04887 0.86344 0.0
H675 H 0.64619 0.06375 0.94574 0.0
H676 H 0.68277 0.06888 0.92591 0.0
H677 H 0.64021 0.96066 0.14358 0.0
H678 H 0.61402 0.98193 0.11188 0.0
H679 H 0.6317 0.96385 0.03502 0.0
H680 H 0.55855 0.03306 0.97168 0.0
H681 H 0.60387 0.99108 0.78884 0.0
H682 H 0.57873 0.04754 0.08767 0.0
H683 H 0.61532 0.05291 0.07097 0.0
H684 H 0.60242 0.02525 0.12896 0.0
H685 H 0.6703 0.00406 0.84322 0.0
H686 H 0.65097 0.98367 0.78823 0.0
H687 H 0.65866 0.97522 0.8959 0.0
C688 C 0.47038 0.65008 0.10424 0.0
C689 C 0.49664 0.65531 0.12566 0.0
C690 C 0.46523 0.62833 0.06788 0.0
C691 C 0.48701 0.61167 0.0523 0.0
C692 C 0.51315 0.61624 0.07911 0.0
C693 C 0.51765 0.63812 0.11531 0.0
C694 C 0.437 0.62388 0.04167 0.0
C695 C 0.5369 0.59889 0.06419 0.0
C696 C 0.47794 0.54782 0.98309 0.0
C697 C 0.48522 0.55196 0.89527 0.0
C698 C 0.47681 0.56737 0.03517 0.0
C699 C 0.48373 0.59131 0.99807 0.0
C700 C 0.48998 0.59555 0.90858 0.0
C701 C 0.4906 0.57575 0.85824 0.0
C702 C 0.46975 0.56223 0.1301 0.0
C703 C 0.49776 0.62072 0.86649 0.0
H704 H 0.45421 0.66349 0.11321 0.0
H705 H 0.53798 0.64245 0.13129 0.0
H706 H 0.43762 0.62641 0.97117 0.0
H707 H 0.43026 0.60476 0.0619 0.0
H708 H 0.4215 0.63664 0.06919 0.0
H709 H 0.55494 0.60387 0.0966 0.0
H710 H 0.53067 0.57984 0.08734 0.0
H711 H 0.54323 0.59918 0.99477 0.0
H712 H 0.47432 0.52921 0.01133 0.0
H713 H 0.49675 0.57865 0.79028 0.0
H714 H 0.45491 0.57594 0.15467 0.0
H715 H 0.48857 0.56367 0.16307 0.0
H716 H 0.46088 0.5436 0.14703 0.0
H717 H 0.48177 0.63426 0.88479 0.0
H718 H 0.50051 0.62111 0.79582 0.0
H719 H 0.51727 0.6267 0.88863 0.0
C720 C 0.85172 0.46744 0.10857 0.0
C721 C 0.84711 0.45295 0.18579 0.0
C722 C 0.87761 0.46853 0.06245 0.0
C723 C 0.89964 0.45523 0.0957 0.0
C724 C 0.89528 0.441 0.17509 0.0
C725 C 0.86886 0.43997 0.21933 0.0
C726 C 0.88135 0.48411 0.97836 0.0
C727 C 0.91838 0.4269 0.21287 0.0
C728 C 0.95612 0.44854 0.91903 0.0
C729 C 0.97065 0.47034 0.92188 0.0
C730 C 0.93421 0.44189 0.98089 0.0
C731 C 0.9272 0.45727 0.04718 0.0
C732 C 0.94388 0.47776 0.05539 0.0
C733 C 0.96528 0.4842 0.99201 0.0
C734 C 0.91687 0.41991 0.97003 0.0
C735 C 0.93749 0.49426 0.12637 0.0
H736 H 0.83487 0.47796 0.08456 0.0
H737 H 0.86509 0.42911 0.27997 0.0
H738 H 0.89625 0.49907 0.98214 0.0
H739 H 0.88984 0.47287 0.9269 0.0
H740 H 0.86178 0.49243 0.9602 0.0
H741 H 0.91218 0.41867 0.27864 0.0
H742 H 0.9251 0.41199 0.17247 0.0
H743 H 0.93639 0.43903 0.21417 0.0
H744 H 0.96037 0.43777 0.86494 0.0
H745 H 0.9769 0.50086 0.99501 0.0
H746 H 0.89755 0.42624 0.94397 0.0
H747 H 0.91117 0.40933 0.03225 0.0
H748 H 0.92763 0.40756 0.92558 0.0
H749 H 0.9193 0.50567 0.11341 0.0
H750 H 0.95493 0.50668 0.13241 0.0
H751 H 0.9324 0.48328 0.18815 0.0
C752 C 0.07201 0.19518 0.15408 0.0
C753 C 0.08596 0.19117 0.22701 0.0
C754 C 0.07101 0.17688 0.0976 0.0
C755 C 0.08321 0.15379 0.11704 0.0
C756 C 0.09866 0.15027 0.18807 0.0
C757 C 0.10035 0.16927 0.24097 0.0
C758 C 0.05519 0.18168 0.02078 0.0
C759 C 0.11146 0.12582 0.21238 0.0
C760 C 0.04536 0.0982 0.06178 0.0
C761 C 0.06273 0.0903 0.9938 0.0
C762 C 0.05176 0.11898 0.1015 0.0
C763 C 0.07613 0.13228 0.0724 0.0
C764 C 0.09378 0.12446 0.00356 0.0
C765 C 0.08696 0.10338 0.96538 0.0
C766 C 0.03231 0.12679 0.17439 0.0
C767 C 0.11936 0.13873 0.96887 0.0
H768 H 0.06061 0.212 0.14383 0.0
H769 H 0.11139 0.16647 0.29705 0.0
H770 H 0.06562 0.17331 0.96488 0.0
H771 H 0.03444 0.17337 0.03474 0.0
H772 H 0.0527 0.20164 0.00379 0.0
H773 H 0.12272 0.12614 0.26986 0.0
H774 H 0.09525 0.11151 0.22529 0.0
H775 H 0.12591 0.12032 0.15892 0.0
H776 H 0.02664 0.08807 0.08387 0.0
H777 H 0.10013 0.09753 0.91168 0.0
H778 H 0.0232 0.14482 0.15603 0.0
H779 H 0.04362 0.12902 0.23053 0.0
H780 H 0.01528 0.11347 0.19315 0.0
H781 H 0.11373 0.15774 0.94704 0.0
H782 H 0.13083 0.13028 0.91468 0.0
H783 H 0.1332 0.13999 0.01969 0.0
C784 C 0.32644 0.98619 0.12521 0.0
C785 C 0.32411 0.0002 0.19548 0.0
C786 C 0.34985 0.988 0.06529 0.0
C787 C 0.37186 0.00372 0.07713 0.0
C788 C 0.3693 0.01824 0.14737 0.0
C789 C 0.34533 0.01655 0.20479 0.0
C790 C 0.35147 0.97237 0.99105 0.0
C791 C 0.39231 0.03489 0.1638 0.0
C792 C 0.44321 0.98641 0.97948 0.0
C793 C 0.44732 0.00322 0.9071 0.0
C794 C 0.41909 0.98676 0.03601 0.0
C795 C 0.39809 0.00392 0.01896 0.0
C796 C 0.40215 0.02099 0.9461 0.0
C797 C 0.4268 0.02062 0.89168 0.0
C798 C 0.41604 0.96869 0.11411 0.0
C799 C 0.3802 0.03931 0.92456 0.0
H800 H 0.31037 0.97313 0.11907 0.0
H801 H 0.34356 0.0273 0.25937 0.0
H802 H 0.35725 0.98378 0.93047 0.0
H803 H 0.36767 0.9583 0.99829 0.0
H804 H 0.33172 0.96294 0.98623 0.0
H805 H 0.38763 0.04409 0.22339 0.0
H806 H 0.41155 0.02424 0.16853 0.0
H807 H 0.39624 0.04912 0.10968 0.0
H808 H 0.45896 0.97296 0.99221 0.0
H809 H 0.42964 0.03354 0.83554 0.0
H810 H 0.39844 0.95625 0.11086 0.0
H811 H 0.41154 0.9786 0.17209 0.0
H812 H 0.43478 0.95744 0.12101 0.0
H813 H 0.36105 0.02952 0.91555 0.0
H814 H 0.38646 0.05138 0.86575 0.0
H815 H 0.3753 0.05093 0.97803 0.0
C816 C 0.47532 0.34995 0.22869 0.0
C817 C 0.49385 0.33144 0.20661 0.0
C818 C 0.47167 0.37053 0.17159 0.0
C819 C 0.48687 0.37251 0.09027 0.0
C820 C 0.5048 0.3533 0.06652 0.0
C821 C 0.50819 0.33303 0.12531 0.0
C822 C 0.45276 0.39075 0.20018 0.0
C823 C 0.52151 0.35474 0.98068 0.0
C824 C 0.47049 0.42092 0.9141 0.0
C825 C 0.49069 0.43858 0.91989 0.0
C826 C 0.46839 0.3995 0.9707 0.0
C827 C 0.48679 0.39586 0.03443 0.0
C828 C 0.50632 0.41421 0.04278 0.0
C829 C 0.50804 0.43523 0.98548 0.0
C830 C 0.4472 0.38036 0.96042 0.0
C831 C 0.52629 0.4112 0.10994 0.0
H832 H 0.46421 0.34854 0.29172 0.0
H833 H 0.52288 0.3189 0.10909 0.0
H834 H 0.46517 0.40687 0.21101 0.0
H835 H 0.43921 0.3967 0.15013 0.0
H836 H 0.43979 0.38502 0.26027 0.0
H837 H 0.53215 0.33722 0.96857 0.0
H838 H 0.50817 0.35954 0.92902 0.0
H839 H 0.53721 0.36942 0.97745 0.0
H840 H 0.45709 0.42337 0.8635 0.0
H841 H 0.52356 0.4489 0.99103 0.0
H842 H 0.43483 0.37544 0.02217 0.0
H843 H 0.45766 0.36344 0.9407 0.0
H844 H 0.43315 0.38668 0.91206 0.0
H845 H 0.5154 0.40531 0.17321 0.0
H846 H 0.53773 0.42839 0.11503 0.0
H847 H 0.54138 0.3967 0.09385 0.0
C848 C 0.18168 0.5078 0.11464 0.0
C849 C 0.20246 0.52403 0.07837 0.0
C850 C 0.15968 0.50236 0.06877 0.0
C851 C 0.15865 0.51341 0.98475 0.0
C852 C 0.1803 0.52907 0.94695 0.0
C853 C 0.20196 0.53421 0.99448 0.0
C854 C 0.13721 0.48534 0.11086 0.0
C855 C 0.18 0.54122 0.85765 0.0
C856 C 0.10931 0.48928 0.83994 0.0
C857 C 0.08774 0.50621 0.84719 0.0
C858 C 0.13247 0.49119 0.88492 0.0
C859 C 0.13393 0.51032 0.93896 0.0
C860 C 0.11194 0.52712 0.94786 0.0
C861 C 0.08923 0.52495 0.90158 0.0
C862 C 0.15559 0.47303 0.87345 0.0
C863 C 0.11252 0.54755 0.00592 0.0
H864 H 0.18239 0.49989 0.17959 0.0
H865 H 0.21814 0.54683 0.96736 0.0
H866 H 0.11705 0.49474 0.11152 0.0
H867 H 0.1359 0.4692 0.07375 0.0
H868 H 0.14072 0.47879 0.17734 0.0
H869 H 0.19944 0.55121 0.83515 0.0
H870 H 0.17661 0.52738 0.81262 0.0
H871 H 0.16275 0.55444 0.85576 0.0
H872 H 0.10832 0.47477 0.79797 0.0
H873 H 0.07256 0.538 0.90818 0.0
H874 H 0.15984 0.46392 0.93616 0.0
H875 H 0.17465 0.48277 0.84552 0.0
H876 H 0.15092 0.45875 0.83128 0.0
H877 H 0.11565 0.53986 0.07143 0.0
H878 H 0.09329 0.55846 0.00861 0.0
H879 H 0.13005 0.56003 0.9836 0.0
C880 C 0.95425 0.80094 0.29997 0.0
C881 C 0.94235 0.80642 0.22381 0.0
C882 C 0.95639 0.81895 0.35695 0.0
C883 C 0.94723 0.84308 0.33537 0.0
C884 C 0.93374 0.84821 0.26077 0.0
C885 C 0.93092 0.8296 0.20702 0.0
C886 C 0.97023 0.81256 0.43693 0.0
C887 C 0.9244 0.8738 0.23384 0.0
C888 C 0.94511 0.89344 0.48693 0.0
C889 C 0.97084 0.9046 0.46396 0.0
C890 C 0.9373 0.87294 0.44728 0.0
C891 C 0.95551 0.86371 0.38244 0.0
C892 C 0.98152 0.87493 0.35928 0.0
C893 C 0.98884 0.89517 0.40036 0.0
C894 C 0.90993 0.86081 0.47607 0.0
C895 C 1.00209 0.86535 0.29251 0.0
H896 H 0.96328 0.78305 0.31253 0.0
H897 H 0.92134 0.83356 0.14853 0.0
H898 H 0.99191 0.81885 0.42645 0.0
H899 H 0.96003 0.82182 0.49119 0.0
H900 H 0.97013 0.79246 0.45448 0.0
H901 H 0.91481 0.87477 0.17289 0.0
H902 H 0.90936 0.88038 0.2839 0.0
H903 H 0.94219 0.88655 0.226 0.0
H904 H 0.93138 0.90036 0.5374 0.0
H905 H 0.00876 0.90371 0.38242 0.0
H906 H 0.91308 0.84121 0.49701 0.0
H907 H 0.89701 0.86139 0.42223 0.0
H908 H 0.89854 0.86971 0.52938 0.0
H909 H 0.01342 0.84979 0.32215 0.0
H910 H 0.01737 0.87961 0.26564 0.0
H911 H 0.99193 0.85855 0.23959 0.0
C912 C 0.7079 0.98006 0.32079 0.0
C913 C 0.71101 0.00094 0.26275 0.0
C914 C 0.68472 0.97713 0.38153 0.0
C915 C 0.66385 0.99525 0.38284 0.0
C916 C 0.66736 0.01665 0.32559 0.0
C917 C 0.69109 0.01941 0.2677 0.0
C918 C 0.68219 0.95435 0.4427 0.0
C919 C 0.64553 0.03624 0.32304 0.0
C920 C 0.5903 0.9783 0.47414 0.0
C921 C 0.58822 0.98931 0.55106 0.0
C922 C 0.61492 0.97978 0.41916 0.0
C923 C 0.63819 0.9919 0.4431 0.0
C924 C 0.63633 0.00213 0.52266 0.0
C925 C 0.61125 0.00112 0.57475 0.0
C926 C 0.61569 0.96931 0.33389 0.0
C927 C 0.66063 0.01468 0.55203 0.0
H928 H 0.72309 0.96563 0.3165 0.0
H929 H 0.69362 0.03566 0.22334 0.0
H930 H 0.67794 0.95937 0.50916 0.0
H931 H 0.66463 0.94311 0.4291 0.0
H932 H 0.70107 0.94297 0.43814 0.0
H933 H 0.65143 0.05178 0.27483 0.0
H934 H 0.62602 0.02825 0.3077 0.0
H935 H 0.64148 0.04344 0.38642 0.0
H936 H 0.57238 0.96941 0.45551 0.0
H937 H 0.60958 0.00968 0.63429 0.0
H938 H 0.63321 0.95651 0.3256 0.0
H939 H 0.61888 0.98436 0.28212 0.0
H940 H 0.59643 0.95946 0.32632 0.0
H941 H 0.65674 0.01926 0.6192 0.0
H942 H 0.66544 0.03187 0.51084 0.0
H943 H 0.67907 0.00281 0.54621 0.0
C944 C 0.49798 0.65219 0.33501 0.0
C945 C 0.51961 0.66512 0.28718 0.0
C946 C 0.5031 0.63226 0.39306 0.0
C947 C 0.53056 0.62473 0.40126 0.0
C948 C 0.55253 0.63814 0.35391 0.0
C949 C 0.54676 0.65844 0.29797 0.0
C950 C 0.47907 0.6188 0.44351 0.0
C951 C 0.58198 0.6303 0.35904 0.0
C952 C 0.54091 0.58089 0.59513 0.0
C953 C 0.53756 0.55826 0.56279 0.0
C954 C 0.53979 0.60283 0.54244 0.0
C955 C 0.53588 0.60189 0.45524 0.0
C956 C 0.5343 0.57889 0.42139 0.0
C957 C 0.53461 0.55732 0.47614 0.0
C958 C 0.54073 0.62694 0.58151 0.0
C959 C 0.53073 0.57707 0.32839 0.0
H960 H 0.47706 0.65751 0.3255 0.0
H961 H 0.56331 0.66842 0.25938 0.0
H962 H 0.47745 0.60019 0.42193 0.0
H963 H 0.48224 0.61659 0.51222 0.0
H964 H 0.45932 0.62848 0.43609 0.0
H965 H 0.59673 0.64368 0.32293 0.0
H966 H 0.58667 0.62798 0.42639 0.0
H967 H 0.58518 0.61226 0.3327 0.0
H968 H 0.54249 0.58149 0.6628 0.0
H969 H 0.53162 0.53971 0.45186 0.0
H970 H 0.52022 0.63575 0.58215 0.0
H971 H 0.55561 0.63964 0.54287 0.0
H972 H 0.54643 0.6246 0.64795 0.0
H973 H 0.50983 0.58326 0.31518 0.0
H974 H 0.5335 0.55802 0.31005 0.0
H975 H 0.54565 0.58919 0.28724 0.0
C976 C 0.85053 0.4914 0.31889 0.0
C977 C 0.83316 0.4722 0.35477 0.0
C978 C 0.87239 0.49895 0.36153 0.0
C979 C 0.87654 0.48729 0.44272 0.0
C980 C 0.85802 0.46876 0.48106 0.0
C981 C 0.83664 0.46131 0.43616 0.0
C982 C 0.89179 0.51856 0.31803 0.0
C983 C 0.86166 0.45591 0.56755 0.0
C984 C 0.9488 0.4821 0.5093 0.0
C985 C 0.94893 0.49997 0.5676 0.0
C986 C 0.92561 0.47832 0.46674 0.0
C987 C 0.90175 0.49253 0.48354 0.0
C988 C 0.90187 0.51097 0.54093 0.0
C989 C 0.92556 0.51458 0.58199 0.0
C990 C 0.9265 0.45873 0.40496 0.0
C991 C 0.87675 0.52637 0.56069 0.0
H992 H 0.84754 0.49983 0.25596 0.0
H993 H 0.82326 0.4463 0.46298 0.0
H994 H 0.89264 0.53392 0.35892 0.0
H995 H 0.91287 0.51104 0.3085 0.0
H996 H 0.88559 0.52588 0.25506 0.0
H997 H 0.84392 0.44386 0.59223 0.0
H998 H 0.8805 0.44453 0.56326 0.0
H999 H 0.86431 0.4695 0.61412 0.0
H1000 H 0.96685 0.47086 0.4972 0.0
H1001 H 0.92551 0.52837 0.62712 0.0
H1002 H 0.94729 0.45064 0.39379 0.0
H1003 H 0.92007 0.46644 0.34288 0.0
H1004 H 0.91183 0.44384 0.43003 0.0
H1005 H 0.86989 0.53538 0.50094 0.0
H1006 H 0.88056 0.54069 0.6037 0.0
H1007 H 0.85965 0.51447 0.59147 0.0
loop_
_geom_bond_atom_site_label_1
_geom_bond_atom_site_label_2
_geom_bond_distance
_geom_bond_site_symmetry_2
_ccdc_geom_bond_type
C0 N1 1.317 . S
C0 N2 1.348 . S
C0 C3 1.485 . S
N1 C0 1.317 . S
N1 N5 1.370 . S
N2 C0 1.348 . S
N2 C4 1.346 . S
C3 C0 1.485 . S
C3 H7 0.960 . S
C3 H8 0.961 . S
C3 H9 0.960 . S
C4 N2 1.346 . S
C4 N5 1.307 . S
C4 C6 1.486 1_554 S
N5 N1 1.370 . S
N5 C4 1.307 . S
C6 C4 1.486 1_556 S
C6 H10 0.960 . S
C6 H11 0.960 . S
C6 H12 0.959 . S
H7 C3 0.960 . S
H8 C3 0.961 . S
H9 C3 0.960 . S
H10 C6 0.960 . S
H11 C6 0.960 . S
H12 C6 0.959 . S
C13 N14 1.317 . S
C13 N15 1.348 1_554 S
C13 C16 1.485 . S
N14 C13 1.317 . S
N14 N18 1.370 1_554 S
N15 C13 1.348 1_556 S
N15 C17 1.346 . S
C16 C13 1.485 . S
C16 H20 0.960 . S
C16 H21 0.961 . S
C16 H22 0.960 . S
C17 N15 1.346 . S
C17 N18 1.307 . S
C17 C19 1.486 . S
N18 N14 1.370 1_556 S
N18 C17 1.307 . S
C19 C17 1.486 . S
C19 H23 0.960 . S
C19 H24 0.960 . S
C19 H25 0.959 . S
H20 C16 0.960 . S
H21 C16 0.961 . S
H22 C16 0.960 . S
H23 C19 0.960 . S
H24 C19 0.960 . S
H25 C19 0.959 . S
C26 N27 1.317 . S
C26 N28 1.347 . S
C26 C29 1.485 . S
N27 C26 1.317 . S
N27 N31 1.370 . S
N28 C26 1.347 . S
N28 C30 1.348 1_565 S
C29 C26 1.485 . S
C29 H33 0.960 1_565 S
C29 H34 0.961 . S
C29 H35 0.960 . S
C30 N28 1.348 1_545 S
C30 N31 1.307 1_545 S
C30 C32 1.489 1_554 S
N31 N27 1.370 . S
N31 C30 1.307 1_565 S
C32 C30 1.489 1_556 S
C32 H36 0.922 1_545 S
C32 H37 0.990 . S
C32 H38 0.966 . S
H33 C29 0.960 1_545 S
H34 C29 0.961 . S
H35 C29 0.960 . S
H36 C32 0.922 1_565 S
H37 C32 0.990 . S
H38 C32 0.966 . S
C39 N40 1.317 . S
C39 N41 1.348 . S
C39 C42 1.485 . S
N40 C39 1.317 . S
N40 N44 1.370 . S
N41 C39 1.348 . S
N41 C43 1.346 . S
C42 C39 1.485 . S
C42 H46 0.960 . S
C42 H47 0.961 . S
C42 H48 0.960 . S
C43 N41 1.346 . S
C43 N44 1.307 . S
C43 C45 1.486 1_554 S
N44 N40 1.370 . S
N44 C43 1.307 . S
C45 C43 1.486 1_556 S
C45 H49 0.960 . S
C45 H50 0.960 . S
C45 H51 0.959 . S
H46 C42 0.960 . S
H47 C42 0.961 . S
H48 C42 0.960 . S
H49 C45 0.960 . S
H50 C45 0.960 . S
H51 C45 0.959 . S
C52 N53 1.317 . S
C52 N54 1.348 . S
C52 C55 1.485 . S
N53 C52 1.317 . S
N53 N57 1.370 . S
N54 C52 1.348 . S
N54 C56 1.346 . S
C55 C52 1.485 . S
C55 H59 0.960 . S
C55 H60 0.961 . S
C55 H61 0.960 . S
C56 N54 1.346 . S
C56 N57 1.307 . S
C56 C58 1.486 . S
N57 N53 1.370 . S
N57 C56 1.307 . S
C58 C56 1.486 . S
C58 H62 0.960 . S
C58 H63 0.960 . S
C58 H64 0.959 . S
H59 C55 0.960 . S
H60 C55 0.961 . S
H61 C55 0.960 . S
H62 C58 0.960 . S
H63 C58 0.960 . S
H64 C58 0.959 . S
C65 N66 1.317 . S
C65 N67 1.348 . S
C65 C68 1.485 . S
N66 C65 1.317 . S
N66 N70 1.370 . S
N67 C65 1.348 . S
N67 C69 1.346 . S
C68 C65 1.485 . S
C68 H72 0.960 . S
C68 H73 0.961 . S
C68 H74 0.960 . S
C69 N67 1.346 . S
C69 N70 1.307 . S
C69 C71 1.486 . S
N70 N66 1.370 . S
N70 C69 1.307 . S
C71 C69 1.486 . S
C71 H75 0.960 . S
C71 H76 0.960 . S
C71 H77 0.959 . S
H72 C68 0.960 . S
H73 C68 0.961 . S
H74 C68 0.960 . S
H75 C71 0.960 . S
H76 C71 0.960 . S
H77 C71 0.959 . S
C78 N79 1.317 . S
C78 N80 1.352 . S
C78 C81 1.485 . S
N79 C78 1.317 . S
N79 N83 1.371 . S
N80 C78 1.352 . S
N80 C82 1.343 1_565 S
C81 C78 1.485 . S
C81 H85 0.960 1_565 S
C81 H86 0.961 . S
C81 H87 0.960 . S
C82 N80 1.343 1_545 S
C82 N83 1.306 1_545 S
C82 C84 1.487 . S
N83 N79 1.371 . S
N83 C82 1.306 1_565 S
C84 C82 1.487 . S
C84 H88 0.960 1_545 S
C84 H89 0.960 . S
C84 H90 0.959 . S
H85 C81 0.960 1_545 S
H86 C81 0.961 . S
H87 C81 0.960 . S
H88 C84 0.960 1_565 S
H89 C84 0.960 . S
H90 C84 0.959 . S
C91 N92 1.317 . S
C91 N93 1.348 . S
C91 C94 1.485 . S
N92 C91 1.317 . S
N92 N96 1.370 . S
N93 C91 1.348 . S
N93 C95 1.346 . S
C94 C91 1.485 . S
C94 H98 0.960 . S
C94 H99 0.961 . S
C94 H100 0.960 . S
C95 N93 1.346 . S
C95 N96 1.307 . S
C95 C97 1.486 . S
N96 N92 1.370 . S
N96 C95 1.307 . S
C97 C95 1.486 . S
C97 H101 0.960 . S
C97 H102 0.960 . S
C97 H103 0.959 . S
H98 C94 0.960 . S
H99 C94 0.961 . S
H100 C94 0.960 . S
H101 C97 0.960 . S
H102 C97 0.960 . S
H103 C97 0.959 . S
C104 O120 1.251 . S
C104 O122 1.254 . S
N105 C106 1.333 1_655 S
N105 C110 1.307 . S
N105 Zn111 2.020 1_655 S
C106 N105 1.333 1_455 S
C106 C107 1.377 1_455 S
C106 H124 0.952 . S
C107 C106 1.377 1_655 S
C107 C108 1.395 . S
C107 H134 0.946 1_655 S
C108 C107 1.395 . S
C108 C109 1.357 . S
C109 C108 1.357 . S
C109 C110 1.370 . S
C109 H135 0.950 . S
C110 N105 1.307 . S
C110 C109 1.370 . S
C110 H128 0.948 . S
Zn111 N105 2.020 1_455 S
Zn111 O120 2.039 . S
Zn111 O126 2.034 . S
Zn111 O130 2.025 1_565 S
Zn111 O132 2.024 1_455 S
C112 O131 1.246 . S
C112 O132 1.249 1_545 S
N113 C114 1.307 . S
N113 C115 1.333 . S
N113 Zn119 2.020 . S
C114 N113 1.307 . S
C114 C118 1.370 1_556 S
C114 H125 0.948 . S
C115 N113 1.333 . S
C115 C116 1.379 . S
C115 H123 0.952 . S
C116 C115 1.379 . S
C116 C117 1.390 1_556 S
C116 H136 0.949 . S
C117 C116 1.390 1_554 S
C117 C118 1.357 . S
C118 C114 1.370 1_554 S
C118 C117 1.357 . S
C118 H137 0.950 . S
Zn119 N113 2.020 . S
Zn119 O122 2.025 1_545 S
Zn119 O127 2.024 . S
Zn119 O129 2.039 . S
Zn119 O131 2.034 1_455 S
O120 C104 1.251 . S
O120 Zn111 2.039 . S
C121 O126 1.246 . S
C121 O127 1.249 1_565 S
O122 C104 1.254 . S
O122 Zn119 2.025 1_565 S
H123 C115 0.952 . S
H124 C106 0.952 . S
H125 C114 0.948 . S
O126 Zn111 2.034 . S
O126 C121 1.246 . S
O127 Zn119 2.024 . S
O127 C121 1.249 1_545 S
H128 C110 0.948 . S
O129 Zn119 2.039 . S
O129 C133 1.251 . S
O130 Zn111 2.025 1_545 S
O130 C133 1.254 . S
O131 C112 1.246 . S
O131 Zn119 2.034 1_655 S
O132 Zn111 2.024 1_655 S
O132 C112 1.249 1_565 S
C133 O129 1.251 . S
C133 O130 1.254 . S
H134 C107 0.946 1_455 S
H135 C109 0.950 . S
H136 C116 0.949 . S
H137 C118 0.950 . S
C138 O154 1.251 1_565 S
C138 O156 1.254 . S
N139 C140 1.333 . S
N139 C144 1.307 . S
N139 Zn145 2.020 . S
C140 N139 1.333 . S
C140 C141 1.379 . S
C140 H158 0.952 . S
C141 C140 1.379 . S
C141 C142 1.390 . S
C141 H168 0.949 . S
C142 C141 1.390 . S
C142 C143 1.357 . S
C143 C142 1.357 . S
C143 C144 1.370 . S
C143 H169 0.950 . S
C144 N139 1.307 . S
C144 C143 1.370 . S
C144 H162 0.948 . S
Zn145 N139 2.020 . S
Zn145 O154 2.039 . S
Zn145 O160 2.034 . S
Zn145 O164 2.025 . S
Zn145 O166 2.024 . S
C146 O165 1.246 1_545 S
C146 O166 1.249 . S
N147 C148 1.307 . S
N147 C149 1.333 . S
N147 Zn153 2.020 . S
C148 N147 1.307 . S
C148 C152 1.370 . S
C148 H159 0.948 . S
C149 N147 1.333 . S
C149 C150 1.379 . S
C149 H157 0.952 . S
C150 C149 1.379 . S
C150 C151 1.390 . S
C150 H170 0.949 . S
C151 C150 1.390 . S
C151 C152 1.357 . S
C152 C148 1.370 . S
C152 C151 1.357 . S
C152 H171 0.950 . S
Zn153 N147 2.020 . S
Zn153 O156 2.025 . S
Zn153 O161 2.024 . S
Zn153 O163 2.039 . S
Zn153 O165 2.034 . S
O154 C138 1.251 1_545 S
O154 Zn145 2.039 . S
C155 O160 1.246 1_565 S
C155 O161 1.249 . S
O156 C138 1.254 . S
O156 Zn153 2.025 . S
H157 C149 0.952 . S
H158 C140 0.952 . S
H159 C148 0.948 . S
O160 Zn145 2.034 . S
O160 C155 1.246 1_545 S
O161 Zn153 2.024 . S
O161 C155 1.249 . S
H162 C144 0.948 . S
O163 Zn153 2.039 . S
O163 C167 1.251 1_565 S
O164 Zn145 2.025 . S
O164 C167 1.254 . S
O165 C146 1.246 1_565 S
O165 Zn153 2.034 . S
O166 Zn145 2.024 . S
O166 C146 1.249 . S
C167 O163 1.251 1_545 S
C167 O164 1.254 . S
H168 C141 0.949 . S
H169 C143 0.950 . S
H170 C150 0.949 . S
H171 C152 0.950 . S
C172 O188 1.251 . S
C172 O190 1.254 . S
N173 C174 1.333 . S
N173 C178 1.307 . S
N173 Zn179 2.020 . S
C174 N173 1.333 . S
C174 C175 1.379 . S
C174 H192 0.952 . S
C175 C174 1.379 . S
C175 C176 1.390 . S
C175 H202 0.949 . S
C176 C175 1.390 . S
C176 C177 1.357 . S
C177 C176 1.357 . S
C177 C178 1.370 . S
C177 H203 0.950 . S
C178 N173 1.307 . S
C178 C177 1.370 . S
C178 H196 0.948 . S
Zn179 N173 2.020 . S
Zn179 O188 2.039 . S
Zn179 O194 2.034 . S
Zn179 O198 2.025 . S
Zn179 O200 2.024 . S
C180 O199 1.246 . S
C180 O200 1.249 . S
N181 C182 1.307 . S
N181 C183 1.333 . S
N181 Zn187 2.020 . S
C182 N181 1.307 . S
C182 C186 1.370 . S
C182 H193 0.948 . S
C183 N181 1.333 . S
C183 C184 1.379 . S
C183 H191 0.952 . S
C184 C183 1.379 . S
C184 C185 1.390 . S
C184 H204 0.949 . S
C185 C184 1.390 . S
C185 C186 1.357 . S
C186 C182 1.370 . S
C186 C185 1.357 . S
C186 H205 0.950 . S
Zn187 N181 2.020 . S
Zn187 O190 2.025 . S
Zn187 O195 2.024 . S
Zn187 O197 2.039 . S
Zn187 O199 2.034 . S
O188 C172 1.251 . S
O188 Zn179 2.039 . S
C189 O194 1.246 . S
C189 O195 1.249 . S
O190 C172 1.254 . S
O190 Zn187 2.025 . S
H191 C183 0.952 . S
H192 C174 0.952 . S
H193 C182 0.948 . S
O194 Zn179 2.034 . S
O194 C189 1.246 . S
O195 Zn187 2.024 . S
O195 C189 1.249 . S
H196 C178 0.948 . S
O197 Zn187 2.039 . S
O197 C201 1.251 . S
O198 Zn179 2.025 . S
O198 C201 1.254 . S
O199 C180 1.246 . S
O199 Zn187 2.034 . S
O200 Zn179 2.024 . S
O200 C180 1.249 . S
C201 O197 1.251 . S
C201 O198 1.254 . S
H202 C175 0.949 . S
H203 C177 0.950 . S
H204 C184 0.949 . S
H205 C186 0.950 . S
C206 O222 1.251 . S
C206 O224 1.254 . S
N207 C208 1.333 . S
N207 C212 1.307 . S
N207 Zn213 2.020 . S
C208 N207 1.333 . S
C208 C209 1.379 . S
C208 H226 0.952 . S
C209 C208 1.379 . S
C209 C210 1.390 . S
C209 H236 0.949 . S
C210 C209 1.390 . S
C210 C211 1.357 . S
C211 C210 1.357 . S
C211 C212 1.370 . S
C211 H237 0.950 . S
C212 N207 1.307 . S
C212 C211 1.370 . S
C212 H230 0.948 . S
Zn213 N207 2.020 . S
Zn213 O222 2.039 . S
Zn213 O228 2.034 1_455 S
Zn213 O232 2.025 1_455 S
Zn213 O234 2.024 . S
C214 O233 1.246 . S
C214 O234 1.249 . S
N215 C216 1.307 . S
N215 C217 1.333 1_455 S
N215 Zn221 2.020 . S
C216 N215 1.307 . S
C216 C220 1.370 . S
C216 H227 0.948 . S
C217 N215 1.333 1_655 S
C217 C218 1.379 . S
C217 H225 0.952 . S
C218 C217 1.379 . S
C218 C219 1.383 1_655 S
C218 H238 0.949 . S
C219 C218 1.383 1_455 S
C219 C220 1.364 . S
C220 C216 1.370 . S
C220 C219 1.364 . S
C220 H239 0.950 . S
Zn221 N215 2.020 . S
Zn221 O224 2.025 . S
Zn221 O229 2.024 1_455 S
Zn221 O231 2.039 1_455 S
Zn221 O233 2.034 . S
O222 C206 1.251 . S
O222 Zn213 2.039 . S
C223 O228 1.246 . S
C223 O229 1.249 . S
O224 C206 1.254 . S
O224 Zn221 2.025 . S
H225 C217 0.952 . S
H226 C208 0.952 . S
H227 C216 0.948 . S
O228 Zn213 2.034 1_655 S
O228 C223 1.246 . S
O229 Zn221 2.024 1_655 S
O229 C223 1.249 . S
H230 C212 0.948 . S
O231 Zn221 2.039 1_655 S
O231 C235 1.251 . S
O232 Zn213 2.025 1_655 S
O232 C235 1.254 . S
O233 C214 1.246 . S
O233 Zn221 2.034 . S
O234 Zn213 2.024 . S
O234 C214 1.249 . S
C235 O231 1.251 . S
C235 O232 1.254 . S
H236 C209 0.949 . S
H237 C211 0.950 . S
H238 C218 0.949 . S
H239 C220 0.950 . S
C240 C241 1.425 . S
C240 C242 1.394 . S
C240 H256 0.931 . S
C241 C240 1.425 . S
C241 C245 1.342 1_565 S
C242 C240 1.394 . S
C242 C243 1.369 . S
C242 C246 1.531 . S
C243 C242 1.369 . S
C243 C244 1.410 1_565 S
C243 C251 1.503 . S
C244 C243 1.410 1_545 S
C244 C245 1.392 . S
C244 C247 1.511 . S
C245 C241 1.342 1_545 S
C245 C244 1.392 . S
C245 H257 0.929 . S
C246 C242 1.531 . S
C246 H258 0.960 . S
C246 H259 0.962 . S
C246 H260 0.960 . S
C247 C244 1.511 . S
C247 H261 0.961 . S
C247 H262 0.961 . S
C247 H263 0.961 . S
C248 C249 1.370 1_545 S
C248 C250 1.363 . S
C248 H264 0.931 . S
C249 C248 1.370 1_565 S
C249 C253 1.408 . S
C250 C248 1.363 . S
C250 C251 1.370 1_545 S
C250 C254 1.524 . S
C251 C243 1.503 . S
C251 C250 1.370 1_565 S
C251 C252 1.403 . S
C252 C251 1.403 . S
C252 C253 1.404 . S
C252 C255 1.539 . S
C253 C249 1.408 . S
C253 C252 1.404 . S
C253 H265 0.930 . S
C254 C250 1.524 . S
C254 H266 0.956 1_545 S
C254 H267 0.961 . S
C254 H268 0.961 . S
C255 C252 1.539 . S
C255 H269 0.958 . S
C255 H270 0.961 . S
C255 H271 0.960 . S
H256 C240 0.931 . S
H257 C245 0.929 . S
H258 C246 0.960 . S
H259 C246 0.962 . S
H260 C246 0.960 . S
H261 C247 0.961 . S
H262 C247 0.961 . S
H263 C247 0.961 . S
H264 C248 0.931 . S
H265 C253 0.930 . S
H266 C254 0.956 1_565 S
H267 C254 0.961 . S
H268 C254 0.961 . S
H269 C255 0.958 . S
H270 C255 0.961 . S
H271 C255 0.960 . S
C272 C273 1.391 . S
C272 C274 1.394 . S
C272 H288 0.931 . S
C273 C272 1.391 . S
C273 C277 1.376 . S
C274 C272 1.394 . S
C274 C275 1.369 . S
C274 C278 1.531 . S
C275 C274 1.369 . S
C275 C276 1.410 . S
C275 C283 1.503 . S
C276 C275 1.410 . S
C276 C277 1.392 . S
C276 C279 1.511 . S
C277 C273 1.376 . S
C277 C276 1.392 . S
C277 H289 0.929 . S
C278 C274 1.531 . S
C278 H290 0.960 . S
C278 H291 0.962 . S
C278 H292 0.960 . S
C279 C276 1.511 . S
C279 H293 0.961 . S
C279 H294 0.961 . S
C279 H295 0.961 . S
C280 C281 1.370 . S
C280 C282 1.363 . S
C280 H296 0.931 . S
C281 C280 1.370 . S
C281 C285 1.408 . S
C282 C280 1.363 . S
C282 C283 1.370 . S
C282 C286 1.524 . S
C283 C275 1.503 . S
C283 C282 1.370 . S
C283 C284 1.403 . S
C284 C283 1.403 . S
C284 C285 1.404 . S
C284 C287 1.539 . S
C285 C281 1.408 . S
C285 C284 1.404 . S
C285 H297 0.930 . S
C286 C282 1.524 . S
C286 H298 0.956 . S
C286 H299 0.961 . S
C286 H300 0.961 . S
C287 C284 1.539 . S
C287 H301 0.958 . S
C287 H302 0.961 . S
C287 H303 0.960 . S
H288 C272 0.931 . S
H289 C277 0.929 . S
H290 C278 0.960 . S
H291 C278 0.962 . S
H292 C278 0.960 . S
H293 C279 0.961 . S
H294 C279 0.961 . S
H295 C279 0.961 . S
H296 C280 0.931 . S
H297 C285 0.930 . S
H298 C286 0.956 . S
H299 C286 0.961 . S
H300 C286 0.961 . S
H301 C287 0.958 . S
H302 C287 0.961 . S
H303 C287 0.960 . S
C304 C305 1.391 . S
C304 C306 1.394 . S
C304 H320 0.931 . S
C305 C304 1.391 . S
C305 C309 1.376 . S
C306 C304 1.394 . S
C306 C307 1.369 . S
C306 C310 1.531 . S
C307 C306 1.369 . S
C307 C308 1.410 . S
C307 C315 1.503 . S
C308 C307 1.410 . S
C308 C309 1.392 . S
C308 C311 1.511 . S
C309 C305 1.376 . S
C309 C308 1.392 . S
C309 H321 0.929 . S
C310 C306 1.531 . S
C310 H322 0.960 . S
C310 H323 0.962 . S
C310 H324 0.960 . S
C311 C308 1.511 . S
C311 H325 0.961 . S
C311 H326 0.961 . S
C311 H327 0.961 . S
C312 C313 1.370 . S
C312 C314 1.363 . S
C312 H328 0.931 . S
C313 C312 1.370 . S
C313 C317 1.408 . S
C314 C312 1.363 . S
C314 C315 1.370 . S
C314 C318 1.524 . S
C315 C307 1.503 . S
C315 C314 1.370 . S
C315 C316 1.403 . S
C316 C315 1.403 . S
C316 C317 1.404 . S
C316 C319 1.539 . S
C317 C313 1.408 . S
C317 C316 1.404 . S
C317 H329 0.930 . S
C318 C314 1.524 . S
C318 H330 0.956 . S
C318 H331 0.961 . S
C318 H332 0.961 . S
C319 C316 1.539 . S
C319 H333 0.958 . S
C319 H334 0.961 . S
C319 H335 0.960 . S
H320 C304 0.931 . S
H321 C309 0.929 . S
H322 C310 0.960 . S
H323 C310 0.962 . S
H324 C310 0.960 . S
H325 C311 0.961 . S
H326 C311 0.961 . S
H327 C311 0.961 . S
H328 C312 0.931 . S
H329 C317 0.930 . S
H330 C318 0.956 . S
H331 C318 0.961 . S
H332 C318 0.961 . S
H333 C319 0.958 . S
H334 C319 0.961 . S
H335 C319 0.960 . S
C336 C337 1.391 . S
C336 C338 1.394 . S
C336 H352 0.931 . S
C337 C336 1.391 . S
C337 C341 1.376 . S
C338 C336 1.394 . S
C338 C339 1.369 . S
C338 C342 1.531 . S
C339 C338 1.369 . S
C339 C340 1.410 . S
C339 C347 1.503 . S
C340 C339 1.410 . S
C340 C341 1.392 . S
C340 C343 1.511 1_455 S
C341 C337 1.376 . S
C341 C340 1.392 . S
C341 H353 0.929 . S
C342 C338 1.531 . S
C342 H354 0.960 . S
C342 H355 0.962 . S
C342 H356 0.960 . S
C343 C340 1.511 1_655 S
C343 H357 0.961 . S
C343 H358 0.961 . S
C343 H359 0.961 . S
C344 C345 1.370 . S
C344 C346 1.363 . S
C344 H360 0.931 . S
C345 C344 1.370 . S
C345 C349 1.408 . S
C346 C344 1.363 . S
C346 C347 1.370 . S
C346 C350 1.524 . S
C347 C339 1.503 . S
C347 C346 1.370 . S
C347 C348 1.403 . S
C348 C347 1.403 . S
C348 C349 1.404 . S
C348 C351 1.539 . S
C349 C345 1.408 . S
C349 C348 1.404 . S
C349 H361 0.930 . S
C350 C346 1.524 . S
C350 H362 0.956 . S
C350 H363 0.961 . S
C350 H364 0.961 . S
C351 C348 1.539 . S
C351 H365 0.958 . S
C351 H366 0.961 . S
C351 H367 0.960 . S
H352 C336 0.931 . S
H353 C341 0.929 . S
H354 C342 0.960 . S
H355 C342 0.962 . S
H356 C342 0.960 . S
H357 C343 0.961 . S
H358 C343 0.961 . S
H359 C343 0.961 . S
H360 C344 0.931 . S
H361 C349 0.930 . S
H362 C350 0.956 . S
H363 C350 0.961 . S
H364 C350 0.961 . S
H365 C351 0.958 . S
H366 C351 0.961 . S
H367 C351 0.960 . S
C368 C369 1.365 1_566 S
C368 C370 1.394 . S
C368 H384 0.931 1_556 S
C369 C368 1.365 1_544 S
C369 C373 1.401 1_554 S
C370 C368 1.394 . S
C370 C371 1.369 1_565 S
C370 C374 1.531 . S
C371 C370 1.369 1_545 S
C371 C372 1.410 . S
C371 C379 1.503 . S
C372 C371 1.410 . S
C372 C373 1.392 . S
C372 C375 1.511 . S
C373 C369 1.401 1_556 S
C373 C372 1.392 . S
C373 H385 0.929 1_556 S
C374 C370 1.531 . S
C374 H386 0.960 . S
C374 H387 0.962 . S
C374 H388 0.960 . S
C375 C372 1.511 . S
C375 H389 0.961 . S
C375 H390 0.961 . S
C375 H391 0.961 . S
C376 C377 1.370 . S
C376 C378 1.363 . S
C376 H392 0.932 . S
C377 C376 1.370 . S
C377 C381 1.408 . S
C378 C376 1.363 . S
C378 C379 1.370 . S
C378 C382 1.523 1_556 S
C379 C371 1.503 . S
C379 C378 1.370 . S
C379 C380 1.403 . S
C380 C379 1.403 . S
C380 C381 1.404 . S
C380 C383 1.539 . S
C381 C377 1.408 . S
C381 C380 1.404 . S
C381 H393 0.930 . S
C382 C378 1.523 1_554 S
C382 H394 0.927 1_545 S
C382 H395 0.987 . S
C382 H396 0.966 . S
C383 C380 1.539 . S
C383 H397 0.958 1_545 S
C383 H398 0.961 . S
C383 H399 0.960 . S
H384 C368 0.931 1_554 S
H385 C373 0.929 1_554 S
H386 C374 0.960 . S
H387 C374 0.962 . S
H388 C374 0.960 . S
H389 C375 0.961 . S
H390 C375 0.961 . S
H391 C375 0.961 . S
H392 C376 0.932 . S
H393 C381 0.930 . S
H394 C382 0.927 1_565 S
H395 C382 0.987 . S
H396 C382 0.966 . S
H397 C383 0.958 1_565 S
H398 C383 0.961 . S
H399 C383 0.960 . S
C400 C401 1.391 . S
C400 C402 1.394 1_554 S
C400 H416 0.931 . S
C401 C400 1.391 . S
C401 C405 1.376 . S
C402 C400 1.394 1_556 S
C402 C403 1.369 . S
C402 C406 1.531 . S
C403 C402 1.369 . S
C403 C404 1.410 . S
C403 C411 1.503 . S
C404 C403 1.410 . S
C404 C405 1.392 1_556 S
C404 C407 1.511 . S
C405 C401 1.376 . S
C405 C404 1.392 1_554 S
C405 H417 0.929 . S
C406 C402 1.531 . S
C406 H418 0.960 . S
C406 H419 0.962 1_556 S
C406 H420 0.960 . S
C407 C404 1.511 . S
C407 H421 0.961 . S
C407 H422 0.961 . S
C407 H423 0.961 . S
C408 C409 1.370 . S
C408 C410 1.363 . S
C408 H424 0.931 . S
C409 C408 1.370 . S
C409 C413 1.408 . S
C410 C408 1.363 . S
C410 C411 1.370 . S
C410 C414 1.524 1_556 S
C411 C403 1.503 . S
C411 C410 1.370 . S
C411 C412 1.403 . S
C412 C411 1.403 . S
C412 C413 1.404 . S
C412 C415 1.539 . S
C413 C409 1.408 . S
C413 C412 1.404 . S
C413 H425 0.930 . S
C414 C410 1.524 1_554 S
C414 H426 0.956 . S
C414 H427 0.961 . S
C414 H428 0.961 . S
C415 C412 1.539 . S
C415 H429 0.958 . S
C415 H430 0.961 . S
C415 H431 0.960 . S
H416 C400 0.931 . S
H417 C405 0.929 . S
H418 C406 0.960 . S
H419 C406 0.962 1_554 S
H420 C406 0.960 . S
H421 C407 0.961 . S
H422 C407 0.961 . S
H423 C407 0.961 . S
H424 C408 0.931 . S
H425 C413 0.930 . S
H426 C414 0.956 . S
H427 C414 0.961 . S
H428 C414 0.961 . S
H429 C415 0.958 . S
H430 C415 0.961 . S
H431 C415 0.960 . S
C432 C433 1.391 . S
C432 C434 1.394 . S
C432 H448 0.931 . S
C433 C432 1.391 . S
C433 C437 1.376 . S
C434 C432 1.394 . S
C434 C435 1.369 . S
C434 C438 1.531 . S
C435 C434 1.369 . S
C435 C436 1.410 1_554 S
C435 C443 1.503 1_554 S
C436 C435 1.410 1_556 S
C436 C437 1.392 1_556 S
C436 C439 1.511 . S
C437 C433 1.376 . S
C437 C436 1.392 1_554 S
C437 H449 0.929 . S
C438 C434 1.531 . S
C438 H450 0.960 . S
C438 H451 0.962 . S
C438 H452 0.960 . S
C439 C436 1.511 . S
C439 H453 0.961 . S
C439 H454 0.961 . S
C439 H455 0.961 . S
C440 C441 1.370 . S
C440 C442 1.363 . S
C440 H456 0.931 . S
C441 C440 1.370 . S
C441 C445 1.408 . S
C442 C440 1.363 . S
C442 C443 1.370 . S
C442 C446 1.524 1_556 S
C443 C435 1.503 1_556 S
C443 C442 1.370 . S
C443 C444 1.403 . S
C444 C443 1.403 . S
C444 C445 1.404 . S
C444 C447 1.539 . S
C445 C441 1.408 . S
C445 C444 1.404 . S
C445 H457 0.930 . S
C446 C442 1.524 1_554 S
C446 H458 0.956 . S
C446 H459 0.961 . S
C446 H460 0.961 . S
C447 C444 1.539 . S
C447 H461 0.958 . S
C447 H462 0.961 . S
C447 H463 0.960 . S
H448 C432 0.931 . S
H449 C437 0.929 . S
H450 C438 0.960 . S
H451 C438 0.962 . S
H452 C438 0.960 . S
H453 C439 0.961 . S
H454 C439 0.961 . S
H455 C439 0.961 . S
H456 C440 0.931 . S
H457 C445 0.930 . S
H458 C446 0.956 . S
H459 C446 0.961 . S
H460 C446 0.961 . S
H461 C447 0.958 . S
H462 C447 0.961 . S
H463 C447 0.960 . S
C464 C465 1.391 . S
C464 C466 1.394 . S
C464 H480 0.931 . S
C465 C464 1.391 . S
C465 C469 1.376 . S
C466 C464 1.394 . S
C466 C467 1.369 . S
C466 C470 1.531 . S
C467 C466 1.369 . S
C467 C468 1.410 1_655 S
C467 C475 1.503 . S
C468 C467 1.410 1_455 S
C468 C469 1.392 1_455 S
C468 C471 1.511 . S
C469 C465 1.376 . S
C469 C468 1.392 1_655 S
C469 H481 0.929 1_656 S
C470 C466 1.531 . S
C470 H482 0.960 . S
C470 H483 0.962 . S
C470 H484 0.960 . S
C471 C468 1.511 . S
C471 H485 0.961 1_556 S
C471 H486 0.961 . S
C471 H487 0.961 . S
C472 C473 1.370 . S
C472 C474 1.363 . S
C472 H488 0.931 . S
C473 C472 1.370 . S
C473 C477 1.408 1_655 S
C474 C472 1.363 . S
C474 C475 1.370 . S
C474 C478 1.524 . S
C475 C467 1.503 . S
C475 C474 1.370 . S
C475 C476 1.403 1_655 S
C476 C475 1.403 1_455 S
C476 C477 1.404 . S
C476 C479 1.539 . S
C477 C473 1.408 1_455 S
C477 C476 1.404 . S
C477 H489 0.930 . S
C478 C474 1.524 . S
C478 H490 0.956 . S
C478 H491 0.961 1_556 S
C478 H492 0.961 1_556 S
C479 C476 1.539 . S
C479 H493 0.958 . S
C479 H494 0.961 . S
C479 H495 0.960 . S
H480 C464 0.931 . S
H481 C469 0.929 1_454 S
H482 C470 0.960 . S
H483 C470 0.962 . S
H484 C470 0.960 . S
H485 C471 0.961 1_554 S
H486 C471 0.961 . S
H487 C471 0.961 . S
H488 C472 0.931 . S
H489 C477 0.930 . S
H490 C478 0.956 . S
H491 C478 0.961 1_554 S
H492 C478 0.961 1_554 S
H493 C479 0.958 . S
H494 C479 0.961 . S
H495 C479 0.960 . S
C496 C497 1.391 . S
C496 C498 1.394 . S
C496 H512 0.931 . S
C497 C496 1.391 . S
C497 C501 1.376 . S
C498 C496 1.394 . S
C498 C499 1.369 . S
C498 C502 1.531 . S
C499 C498 1.369 . S
C499 C500 1.410 . S
C499 C507 1.503 . S
C500 C499 1.410 . S
C500 C501 1.392 . S
C500 C503 1.511 . S
C501 C497 1.376 . S
C501 C500 1.392 . S
C501 H513 0.929 . S
C502 C498 1.531 . S
C502 H514 0.960 . S
C502 H515 0.922 1_455 S
C502 H516 0.960 . S
C503 C500 1.511 . S
C503 H517 0.961 . S
C503 H518 0.961 . S
C503 H519 0.961 . S
C504 C505 1.383 . S
C504 C506 1.372 . S
C504 H520 0.909 1_455 S
C505 C504 1.383 . S
C505 C509 1.408 . S
C506 C504 1.372 . S
C506 C507 1.370 . S
C506 C510 1.524 1_455 S
C507 C499 1.503 . S
C507 C506 1.370 . S
C507 C508 1.403 . S
C508 C507 1.403 . S
C508 C509 1.404 . S
C508 C511 1.539 . S
C509 C505 1.408 . S
C509 C508 1.404 . S
C509 H521 0.930 . S
C510 C506 1.524 1_655 S
C510 H522 0.956 . S
C510 H523 0.961 1_655 S
C510 H524 0.961 . S
C511 C508 1.539 . S
C511 H525 0.958 . S
C511 H526 0.961 . S
C511 H527 0.960 . S
H512 C496 0.931 . S
H513 C501 0.929 . S
H514 C502 0.960 . S
H515 C502 0.922 1_655 S
H516 C502 0.960 . S
H517 C503 0.961 . S
H518 C503 0.961 . S
H519 C503 0.961 . S
H520 C504 0.909 1_655 S
H521 C509 0.930 . S
H522 C510 0.956 . S
H523 C510 0.961 1_455 S
H524 C510 0.961 . S
H525 C511 0.958 . S
H526 C511 0.961 . S
H527 C511 0.960 . S
C528 C529 1.391 . S
C528 C530 1.394 . S
C528 H544 0.931 . S
C529 C528 1.391 . S
C529 C533 1.376 1_565 S
C530 C528 1.394 . S
C530 C531 1.369 . S
C530 C534 1.531 . S
C531 C530 1.369 . S
C531 C532 1.410 1_565 S
C531 C539 1.503 . S
C532 C531 1.410 1_545 S
C532 C533 1.392 . S
C532 C535 1.511 . S
C533 C529 1.376 1_545 S
C533 C532 1.392 . S
C533 H545 0.929 . S
C534 C530 1.531 . S
C534 H546 0.960 . S
C534 H547 0.962 . S
C534 H548 0.960 . S
C535 C532 1.511 . S
C535 H549 0.961 . S
C535 H550 0.961 . S
C535 H551 0.961 . S
C536 C537 1.370 1_545 S
C536 C538 1.363 . S
C536 H552 0.931 . S
C537 C536 1.370 1_565 S
C537 C541 1.408 . S
C538 C536 1.363 . S
C538 C539 1.370 1_545 S
C538 C542 1.524 . S
C539 C531 1.503 . S
C539 C538 1.370 1_565 S
C539 C540 1.403 . S
C540 C539 1.403 . S
C540 C541 1.404 . S
C540 C543 1.539 . S
C541 C537 1.408 . S
C541 C540 1.404 . S
C541 H553 0.930 . S
C542 C538 1.524 . S
C542 H554 0.956 . S
C542 H555 0.961 . S
C542 H556 0.961 . S
C543 C540 1.539 . S
C543 H557 0.958 . S
C543 H558 0.961 . S
C543 H559 0.960 . S
H544 C528 0.931 . S
H545 C533 0.929 . S
H546 C534 0.960 . S
H547 C534 0.962 . S
H548 C534 0.960 . S
H549 C535 0.961 . S
H550 C535 0.961 . S
H551 C535 0.961 . S
H552 C536 0.931 . S
H553 C541 0.930 . S
H554 C542 0.956 . S
H555 C542 0.961 . S
H556 C542 0.961 . S
H557 C543 0.958 . S
H558 C543 0.961 . S
H559 C543 0.960 . S
C560 C561 1.391 . S
C560 C562 1.394 . S
C560 H576 0.931 . S
C561 C560 1.391 . S
C561 C565 1.376 . S
C562 C560 1.394 . S
C562 C563 1.369 . S
C562 C566 1.531 . S
C563 C562 1.369 . S
C563 C564 1.410 . S
C563 C571 1.503 . S
C564 C563 1.410 . S
C564 C565 1.392 . S
C564 C567 1.511 . S
C565 C561 1.376 . S
C565 C564 1.392 . S
C565 H577 0.929 . S
C566 C562 1.531 . S
C566 H578 0.960 . S
C566 H579 0.962 . S
C566 H580 0.960 . S
C567 C564 1.511 . S
C567 H581 0.961 . S
C567 H582 0.961 . S
C567 H583 0.961 . S
C568 C569 1.370 . S
C568 C570 1.363 . S
C568 H584 0.931 . S
C569 C568 1.370 . S
C569 C573 1.408 . S
C570 C568 1.363 . S
C570 C571 1.370 . S
C570 C574 1.524 . S
C571 C563 1.503 . S
C571 C570 1.370 . S
C571 C572 1.403 . S
C572 C571 1.403 . S
C572 C573 1.404 . S
C572 C575 1.539 . S
C573 C569 1.408 . S
C573 C572 1.404 . S
C573 H585 0.930 . S
C574 C570 1.524 . S
C574 H586 0.956 . S
C574 H587 0.961 . S
C574 H588 0.961 . S
C575 C572 1.539 . S
C575 H589 0.958 . S
C575 H590 0.961 . S
C575 H591 0.960 . S
H576 C560 0.931 . S
H577 C565 0.929 . S
H578 C566 0.960 . S
H579 C566 0.962 . S
H580 C566 0.960 . S
H581 C567 0.961 . S
H582 C567 0.961 . S
H583 C567 0.961 . S
H584 C568 0.931 . S
H585 C573 0.930 . S
H586 C574 0.956 . S
H587 C574 0.961 . S
H588 C574 0.961 . S
H589 C575 0.958 . S
H590 C575 0.961 . S
H591 C575 0.960 . S
C592 C593 1.391 . S
C592 C594 1.394 . S
C592 H608 0.931 . S
C593 C592 1.391 . S
C593 C597 1.376 . S
C594 C592 1.394 . S
C594 C595 1.369 . S
C594 C598 1.531 . S
C595 C594 1.369 . S
C595 C596 1.410 . S
C595 C603 1.503 . S
C596 C595 1.410 . S
C596 C597 1.392 . S
C596 C599 1.511 . S
C597 C593 1.376 . S
C597 C596 1.392 . S
C597 H609 0.929 . S
C598 C594 1.531 . S
C598 H610 0.960 . S
C598 H611 0.962 . S
C598 H612 0.960 . S
C599 C596 1.511 . S
C599 H613 0.961 . S
C599 H614 0.961 . S
C599 H615 0.961 . S
C600 C601 1.370 . S
C600 C602 1.363 . S
C600 H616 0.931 . S
C601 C600 1.370 . S
C601 C605 1.408 . S
C602 C600 1.363 . S
C602 C603 1.370 . S
C602 C606 1.524 . S
C603 C595 1.503 . S
C603 C602 1.370 . S
C603 C604 1.403 . S
C604 C603 1.403 . S
C604 C605 1.404 . S
C604 C607 1.539 . S
C605 C601 1.408 . S
C605 C604 1.404 . S
C605 H617 0.930 . S
C606 C602 1.524 . S
C606 H618 0.956 . S
C606 H619 0.961 . S
C606 H620 0.961 . S
C607 C604 1.539 . S
C607 H621 0.958 . S
C607 H622 0.961 . S
C607 H623 0.960 . S
H608 C592 0.931 . S
H609 C597 0.929 . S
H610 C598 0.960 . S
H611 C598 0.962 . S
H612 C598 0.960 . S
H613 C599 0.961 . S
H614 C599 0.961 . S
H615 C599 0.961 . S
H616 C600 0.931 . S
H617 C605 0.930 . S
H618 C606 0.956 . S
H619 C606 0.961 . S
H620 C606 0.961 . S
H621 C607 0.958 . S
H622 C607 0.961 . S
H623 C607 0.960 . S
C624 C625 1.391 . S
C624 C626 1.394 . S
C624 H640 0.931 . S
C625 C624 1.391 . S
C625 C629 1.376 . S
C626 C624 1.394 . S
C626 C627 1.369 . S
C626 C630 1.531 . S
C627 C626 1.369 . S
C627 C628 1.410 . S
C627 C635 1.503 . S
C628 C627 1.410 . S
C628 C629 1.392 . S
C628 C631 1.511 1_656 S
C629 C625 1.376 . S
C629 C628 1.392 . S
C629 H641 0.929 1_556 S
C630 C626 1.531 . S
C630 H642 0.960 . S
C630 H643 0.962 . S
C630 H644 0.960 . S
C631 C628 1.511 1_454 S
C631 H645 0.961 . S
C631 H646 0.961 1_554 S
C631 H647 0.961 . S
C632 C633 1.370 . S
C632 C634 1.363 . S
C632 H648 0.931 . S
C633 C632 1.370 . S
C633 C637 1.408 1_455 S
C634 C632 1.363 . S
C634 C635 1.370 1_455 S
C634 C638 1.524 . S
C635 C627 1.503 . S
C635 C634 1.370 1_655 S
C635 C636 1.403 . S
C636 C635 1.403 . S
C636 C637 1.404 . S
C636 C639 1.539 1_556 S
C637 C633 1.408 1_655 S
C637 C636 1.404 . S
C637 H649 0.930 . S
C638 C634 1.524 . S
C638 H650 0.956 . S
C638 H651 0.961 . S
C638 H652 0.961 . S
C639 C636 1.539 1_554 S
C639 H653 0.958 1_554 S
C639 H654 0.961 . S
C639 H655 0.960 . S
H640 C624 0.931 . S
H641 C629 0.929 1_554 S
H642 C630 0.960 . S
H643 C630 0.962 . S
H644 C630 0.960 . S
H645 C631 0.961 . S
H646 C631 0.961 1_556 S
H647 C631 0.961 . S
H648 C632 0.931 . S
H649 C637 0.930 . S
H650 C638 0.956 . S
H651 C638 0.961 . S
H652 C638 0.961 . S
H653 C639 0.958 1_556 S
H654 C639 0.961 . S
H655 C639 0.960 . S
C656 C657 1.391 1_546 S
C656 C658 1.394 . S
C656 H672 0.931 . S
C657 C656 1.391 1_564 S
C657 C661 1.376 . S
C658 C656 1.394 . S
C658 C659 1.369 1_545 S
C658 C662 1.531 . S
C659 C658 1.369 1_565 S
C659 C660 1.410 1_556 S
C659 C667 1.504 . S
C660 C659 1.410 1_554 S
C660 C661 1.392 . S
C660 C663 1.511 . S
C661 C657 1.376 . S
C661 C660 1.392 . S
C661 H673 0.929 . S
C662 C658 1.531 . S
C662 H674 0.960 . S
C662 H675 0.962 . S
C662 H676 0.960 . S
C663 C660 1.511 . S
C663 H677 0.961 . S
C663 H678 0.961 . S
C663 H679 0.961 . S
C664 C665 1.370 . S
C664 C666 1.363 . S
C664 H680 0.931 . S
C665 C664 1.370 . S
C665 C669 1.408 1_545 S
C666 C664 1.363 . S
C666 C667 1.356 1_545 S
C666 C670 1.524 . S
C667 C659 1.504 . S
C667 C666 1.356 1_565 S
C667 C668 1.416 . S
C668 C667 1.416 . S
C668 C669 1.404 . S
C668 C671 1.539 . S
C669 C665 1.408 1_565 S
C669 C668 1.404 . S
C669 H681 0.930 . S
C670 C666 1.524 . S
C670 H682 0.956 . S
C670 H683 0.961 1_556 S
C670 H684 0.961 1_556 S
C671 C668 1.539 . S
C671 H685 0.958 . S
C671 H686 0.961 . S
C671 H687 0.960 . S
H672 C656 0.931 . S
H673 C661 0.929 . S
H674 C662 0.960 . S
H675 C662 0.962 . S
H676 C662 0.960 . S
H677 C663 0.961 . S
H678 C663 0.961 . S
H679 C663 0.961 . S
H680 C664 0.931 . S
H681 C669 0.930 . S
H682 C670 0.956 . S
H683 C670 0.961 1_554 S
H684 C670 0.961 1_554 S
H685 C671 0.958 . S
H686 C671 0.961 . S
H687 C671 0.960 . S
C688 C689 1.391 1_556 S
C688 C690 1.394 . S
C688 H704 0.931 . S
C689 C688 1.391 1_554 S
C689 C693 1.376 . S
C690 C688 1.394 . S
C690 C691 1.369 . S
C690 C694 1.531 . S
C691 C690 1.369 . S
C691 C692 1.410 1_556 S
C691 C699 1.503 . S
C692 C691 1.410 1_554 S
C692 C693 1.392 . S
C692 C695 1.511 . S
C693 C689 1.376 . S
C693 C692 1.392 . S
C693 H705 0.929 . S
C694 C690 1.531 . S
C694 H706 0.960 . S
C694 H707 0.962 . S
C694 H708 0.960 . S
C695 C692 1.511 . S
C695 H709 0.961 . S
C695 H710 0.961 . S
C695 H711 0.961 . S
C696 C697 1.370 . S
C696 C698 1.363 . S
C696 H712 0.931 . S
C697 C696 1.370 . S
C697 C701 1.408 . S
C698 C696 1.363 . S
C698 C699 1.370 . S
C698 C702 1.524 1_556 S
C699 C691 1.503 . S
C699 C698 1.370 . S
C699 C700 1.403 . S
C700 C699 1.403 . S
C700 C701 1.404 . S
C700 C703 1.539 . S
C701 C697 1.408 . S
C701 C700 1.404 . S
C701 H713 0.930 . S
C702 C698 1.524 1_554 S
C702 H714 0.956 . S
C702 H715 0.961 . S
C702 H716 0.961 . S
C703 C700 1.539 . S
C703 H717 0.958 . S
C703 H718 0.961 . S
C703 H719 0.960 . S
H704 C688 0.931 . S
H705 C693 0.929 . S
H706 C694 0.960 . S
H707 C694 0.962 . S
H708 C694 0.960 . S
H709 C695 0.961 . S
H710 C695 0.961 . S
H711 C695 0.961 . S
H712 C696 0.931 . S
H713 C701 0.930 . S
H714 C702 0.956 . S
H715 C702 0.961 . S
H716 C702 0.961 . S
H717 C703 0.958 . S
H718 C703 0.961 . S
H719 C703 0.960 . S
C720 C721 1.391 . S
C720 C722 1.394 . S
C720 H736 0.931 . S
C721 C720 1.391 . S
C721 C725 1.376 . S
C722 C720 1.394 . S
C722 C723 1.369 . S
C722 C726 1.531 . S
C723 C722 1.369 . S
C723 C724 1.410 1_554 S
C723 C731 1.503 1_554 S
C724 C723 1.410 1_556 S
C724 C725 1.392 1_556 S
C724 C727 1.511 . S
C725 C721 1.376 . S
C725 C724 1.392 1_554 S
C725 H737 0.929 . S
C726 C722 1.531 . S
C726 H738 0.960 . S
C726 H739 0.962 . S
C726 H740 0.960 . S
C727 C724 1.511 . S
C727 H741 0.961 . S
C727 H742 0.961 . S
C727 H743 0.961 . S
C728 C729 1.370 . S
C728 C730 1.363 . S
C728 H744 0.931 . S
C729 C728 1.370 . S
C729 C733 1.408 . S
C730 C728 1.363 . S
C730 C731 1.370 . S
C730 C734 1.524 . S
C731 C723 1.503 1_556 S
C731 C730 1.370 . S
C731 C732 1.403 . S
C732 C731 1.403 . S
C732 C733 1.404 . S
C732 C735 1.539 1_556 S
C733 C729 1.408 . S
C733 C732 1.404 . S
C733 H745 0.930 . S
C734 C730 1.524 . S
C734 H746 0.956 . S
C734 H747 0.961 . S
C734 H748 0.961 . S
C735 C732 1.539 1_554 S
C735 H749 0.958 . S
C735 H750 0.961 1_554 S
C735 H751 0.960 . S
H736 C720 0.931 . S
H737 C725 0.929 . S
H738 C726 0.960 . S
H739 C726 0.962 . S
H740 C726 0.960 . S
H741 C727 0.961 . S
H742 C727 0.961 . S
H743 C727 0.961 . S
H744 C728 0.931 . S
H745 C733 0.930 . S
H746 C734 0.956 . S
H747 C734 0.961 . S
H748 C734 0.961 . S
H749 C735 0.958 . S
H750 C735 0.961 1_556 S
H751 C735 0.960 . S
C752 C753 1.391 . S
C752 C754 1.394 . S
C752 H768 0.931 . S
C753 C752 1.391 . S
C753 C757 1.376 . S
C754 C752 1.394 . S
C754 C755 1.369 . S
C754 C758 1.528 1_455 S
C755 C754 1.369 . S
C755 C756 1.410 . S
C755 C763 1.503 . S
C756 C755 1.410 . S
C756 C757 1.392 . S
C756 C759 1.511 . S
C757 C753 1.376 . S
C757 C756 1.392 . S
C757 H769 0.929 . S
C758 C754 1.528 1_655 S
C758 H770 0.960 1_655 S
C758 H771 0.963 . S
C758 H772 0.962 . S
C759 C756 1.511 . S
C759 H773 0.961 . S
C759 H774 0.961 . S
C759 H775 0.961 . S
C760 C761 1.370 . S
C760 C762 1.363 . S
C760 H776 0.931 . S
C761 C760 1.370 . S
C761 C765 1.408 . S
C762 C760 1.363 . S
C762 C763 1.370 . S
C762 C766 1.524 . S
C763 C755 1.503 . S
C763 C762 1.370 . S
C763 C764 1.403 . S
C764 C763 1.403 . S
C764 C765 1.404 . S
C764 C767 1.539 . S
C765 C761 1.408 . S
C765 C764 1.404 . S
C765 H777 0.930 1_554 S
C766 C762 1.524 . S
C766 H778 0.956 . S
C766 H779 0.961 . S
C766 H780 0.961 . S
C767 C764 1.539 . S
C767 H781 0.958 . S
C767 H782 0.956 1_554 S
C767 H783 0.960 . S
H768 C752 0.931 . S
H769 C757 0.929 . S
H770 C758 0.960 1_455 S
H771 C758 0.963 . S
H772 C758 0.962 . S
H773 C759 0.961 . S
H774 C759 0.961 . S
H775 C759 0.961 . S
H776 C760 0.931 . S
H777 C765 0.930 1_556 S
H778 C766 0.956 . S
H779 C766 0.961 . S
H780 C766 0.961 . S
H781 C767 0.958 . S
H782 C767 0.956 1_556 S
H783 C767 0.960 . S
C784 C785 1.391 1_565 S
C784 C786 1.394 . S
C784 H800 0.931 . S
C785 C784 1.391 1_545 S
C785 C789 1.376 . S
C786 C784 1.394 . S
C786 C787 1.369 1_565 S
C786 C790 1.531 . S
C787 C786 1.369 1_545 S
C787 C788 1.410 . S
C787 C795 1.503 . S
C788 C787 1.410 . S
C788 C789 1.392 . S
C788 C791 1.511 . S
C789 C785 1.376 . S
C789 C788 1.392 . S
C789 H801 0.929 . S
C790 C786 1.531 . S
C790 H802 0.960 1_554 S
C790 H803 0.962 . S
C790 H804 0.960 . S
C791 C788 1.511 . S
C791 H805 0.961 . S
C791 H806 0.961 . S
C791 H807 0.961 . S
C792 C793 1.370 1_564 S
C792 C794 1.363 . S
C792 H808 0.931 . S
C793 C792 1.370 1_546 S
C793 C797 1.408 . S
C794 C792 1.363 . S
C794 C795 1.370 1_565 S
C794 C798 1.524 . S
C795 C787 1.503 . S
C795 C794 1.370 1_545 S
C795 C796 1.403 1_554 S
C796 C795 1.403 1_556 S
C796 C797 1.404 . S
C796 C799 1.539 . S
C797 C793 1.408 . S
C797 C796 1.404 . S
C797 H809 0.930 . S
C798 C794 1.524 . S
C798 H810 0.956 . S
C798 H811 0.961 . S
C798 H812 0.961 . S
C799 C796 1.539 . S
C799 H813 0.958 . S
C799 H814 0.961 . S
C799 H815 0.960 . S
H800 C784 0.931 . S
H801 C789 0.929 . S
H802 C790 0.960 1_556 S
H803 C790 0.962 . S
H804 C790 0.960 . S
H805 C791 0.961 . S
H806 C791 0.961 . S
H807 C791 0.961 . S
H808 C792 0.931 . S
H809 C797 0.930 . S
H810 C798 0.956 . S
H811 C798 0.961 . S
H812 C798 0.961 . S
H813 C799 0.958 . S
H814 C799 0.961 . S
H815 C799 0.960 . S
C816 C817 1.391 . S
C816 C818 1.394 . S
C816 H832 0.931 . S
C817 C816 1.391 . S
C817 C821 1.376 . S
C818 C816 1.394 . S
C818 C819 1.369 . S
C818 C822 1.531 . S
C819 C818 1.369 . S
C819 C820 1.410 . S
C819 C827 1.503 . S
C820 C819 1.410 . S
C820 C821 1.392 . S
C820 C823 1.511 . S
C821 C817 1.376 . S
C821 C820 1.392 . S
C821 H833 0.929 . S
C822 C818 1.531 . S
C822 H834 0.960 . S
C822 H835 0.962 . S
C822 H836 0.960 . S
C823 C820 1.511 . S
C823 H837 0.965 . S
C823 H838 0.961 1_554 S
C823 H839 0.961 . S
C824 C825 1.370 . S
C824 C826 1.371 . S
C824 H840 0.931 . S
C825 C824 1.370 . S
C825 C829 1.408 . S
C826 C824 1.371 . S
C826 C827 1.362 1_556 S
C826 C830 1.525 1_556 S
C827 C819 1.503 . S
C827 C826 1.362 1_554 S
C827 C828 1.403 . S
C828 C827 1.403 . S
C828 C829 1.404 1_554 S
C828 C831 1.539 . S
C829 C825 1.408 . S
C829 C828 1.404 1_556 S
C829 H841 0.930 . S
C830 C826 1.525 1_554 S
C830 H842 0.956 . S
C830 H843 0.961 . S
C830 H844 0.961 1_554 S
C831 C828 1.539 . S
C831 H845 0.958 . S
C831 H846 0.961 . S
C831 H847 0.960 . S
H832 C816 0.931 . S
H833 C821 0.929 . S
H834 C822 0.960 . S
H835 C822 0.962 . S
H836 C822 0.960 . S
H837 C823 0.965 . S
H838 C823 0.961 1_556 S
H839 C823 0.961 . S
H840 C824 0.931 . S
H841 C829 0.930 . S
H842 C830 0.956 . S
H843 C830 0.961 . S
H844 C830 0.961 1_556 S
H845 C831 0.958 . S
H846 C831 0.961 . S
H847 C831 0.960 . S
C848 C849 1.391 . S
C848 C850 1.394 . S
C848 H864 0.931 . S
C849 C848 1.391 . S
C849 C853 1.376 . S
C850 C848 1.394 . S
C850 C851 1.369 . S
C850 C854 1.531 1_554 S
C851 C850 1.369 . S
C851 C852 1.410 . S
C851 C859 1.503 . S
C852 C851 1.410 . S
C852 C853 1.392 . S
C852 C855 1.511 . S
C853 C849 1.376 . S
C853 C852 1.392 . S
C853 H865 0.929 . S
C854 C850 1.531 1_556 S
C854 H866 0.960 . S
C854 H867 0.962 . S
C854 H868 0.960 . S
C855 C852 1.511 . S
C855 H869 0.961 . S
C855 H870 0.961 . S
C855 H871 0.961 . S
C856 C857 1.370 . S
C856 C858 1.363 . S
C856 H872 0.931 . S
C857 C856 1.370 . S
C857 C861 1.408 . S
C858 C856 1.363 . S
C858 C859 1.370 1_556 S
C858 C862 1.524 . S
C859 C851 1.503 . S
C859 C858 1.370 1_554 S
C859 C860 1.403 . S
C860 C859 1.403 . S
C860 C861 1.404 1_554 S
C860 C863 1.539 . S
C861 C857 1.408 . S
C861 C860 1.404 1_556 S
C861 H873 0.930 . S
C862 C858 1.524 . S
C862 H874 0.956 . S
C862 H875 0.952 1_556 S
C862 H876 0.961 . S
C863 C860 1.539 . S
C863 H877 0.958 . S
C863 H878 0.961 . S
C863 H879 0.960 . S
H864 C848 0.931 . S
H865 C853 0.929 . S
H866 C854 0.960 . S
H867 C854 0.962 . S
H868 C854 0.960 . S
H869 C855 0.961 . S
H870 C855 0.961 . S
H871 C855 0.961 . S
H872 C856 0.931 . S
H873 C861 0.930 . S
H874 C862 0.956 . S
H875 C862 0.952 1_554 S
H876 C862 0.961 . S
H877 C863 0.958 . S
H878 C863 0.961 . S
H879 C863 0.960 . S
C880 C881 1.391 . S
C880 C882 1.394 . S
C880 H896 0.931 1_655 S
C881 C880 1.391 . S
C881 C885 1.376 . S
C882 C880 1.394 . S
C882 C883 1.369 . S
C882 C886 1.531 1_655 S
C883 C882 1.369 . S
C883 C884 1.410 . S
C883 C891 1.503 . S
C884 C883 1.410 . S
C884 C885 1.392 . S
C884 C887 1.511 . S
C885 C881 1.376 . S
C885 C884 1.392 . S
C885 H897 0.929 . S
C886 C882 1.531 1_455 S
C886 H898 0.960 . S
C886 H899 0.962 . S
C886 H900 0.960 . S
C887 C884 1.511 . S
C887 H901 0.961 . S
C887 H902 0.961 . S
C887 H903 0.961 . S
C888 C889 1.370 . S
C888 C890 1.363 . S
C888 H904 0.931 . S
C889 C888 1.370 . S
C889 C893 1.407 . S
C890 C888 1.363 . S
C890 C891 1.370 . S
C890 C894 1.524 . S
C891 C883 1.503 . S
C891 C890 1.370 . S
C891 C892 1.403 . S
C892 C891 1.403 . S
C892 C893 1.403 . S
C892 C895 1.539 1_655 S
C893 C889 1.407 . S
C893 C892 1.403 . S
C893 H905 0.931 1_655 S
C894 C890 1.524 . S
C894 H906 0.956 . S
C894 H907 0.961 . S
C894 H908 0.961 . S
C895 C892 1.539 1_455 S
C895 H909 0.958 . S
C895 H910 0.961 . S
C895 H911 0.960 . S
H896 C880 0.931 1_455 S
H897 C885 0.929 . S
H898 C886 0.960 . S
H899 C886 0.962 . S
H900 C886 0.960 . S
H901 C887 0.961 . S
H902 C887 0.961 . S
H903 C887 0.961 . S
H904 C888 0.931 . S
H905 C893 0.931 1_455 S
H906 C894 0.956 . S
H907 C894 0.961 . S
H908 C894 0.961 . S
H909 C895 0.958 . S
H910 C895 0.961 . S
H911 C895 0.960 . S
C912 C913 1.391 . S
C912 C914 1.394 . S
C912 H928 0.931 . S
C913 C912 1.391 . S
C913 C917 1.372 1_545 S
C914 C912 1.394 . S
C914 C915 1.369 . S
C914 C918 1.531 . S
C915 C914 1.369 . S
C915 C916 1.416 . S
C915 C923 1.503 . S
C916 C915 1.416 . S
C916 C917 1.388 1_545 S
C916 C919 1.508 1_545 S
C917 C913 1.372 1_565 S
C917 C916 1.388 1_565 S
C917 H929 0.936 . S
C918 C914 1.531 . S
C918 H930 0.960 . S
C918 H931 0.962 1_545 S
C918 H932 0.960 . S
C919 C916 1.508 1_565 S
C919 H933 0.961 . S
C919 H934 0.961 . S
C919 H935 0.961 1_565 S
C920 C921 1.370 . S
C920 C922 1.363 . S
C920 H936 0.931 . S
C921 C920 1.370 . S
C921 C925 1.408 1_565 S
C922 C920 1.363 . S
C922 C923 1.370 1_565 S
C922 C926 1.524 . S
C923 C915 1.503 . S
C923 C922 1.370 1_545 S
C923 C924 1.403 . S
C924 C923 1.403 . S
C924 C925 1.404 . S
C924 C927 1.539 . S
C925 C921 1.408 1_545 S
C925 C924 1.404 . S
C925 H937 0.930 . S
C926 C922 1.524 . S
C926 H938 0.956 . S
C926 H939 0.961 . S
C926 H940 0.961 . S
C927 C924 1.539 . S
C927 H941 0.958 . S
C927 H942 0.961 . S
C927 H943 0.960 . S
H928 C912 0.931 . S
H929 C917 0.936 . S
H930 C918 0.960 . S
H931 C918 0.962 1_565 S
H932 C918 0.960 . S
H933 C919 0.961 . S
H934 C919 0.961 . S
H935 C919 0.961 1_545 S
H936 C920 0.931 . S
H937 C925 0.930 . S
H938 C926 0.956 . S
H939 C926 0.961 . S
H940 C926 0.961 . S
H941 C927 0.958 . S
H942 C927 0.961 . S
H943 C927 0.960 . S
C944 C945 1.391 . S
C944 C946 1.394 . S
C944 H960 0.931 . S
C945 C944 1.391 . S
C945 C949 1.376 . S
C946 C944 1.394 . S
C946 C947 1.369 . S
C946 C950 1.531 . S
C947 C946 1.369 . S
C947 C948 1.410 . S
C947 C955 1.503 . S
C948 C947 1.410 . S
C948 C949 1.392 . S
C948 C951 1.511 . S
C949 C945 1.376 . S
C949 C948 1.392 . S
C949 H961 0.929 . S
C950 C946 1.531 . S
C950 H962 0.960 . S
C950 H963 0.962 . S
C950 H964 0.960 . S
C951 C948 1.511 . S
C951 H965 0.961 . S
C951 H966 0.961 . S
C951 H967 0.961 . S
C952 C953 1.370 . S
C952 C954 1.363 . S
C952 H968 0.931 . S
C953 C952 1.370 . S
C953 C957 1.408 . S
C954 C952 1.363 . S
C954 C955 1.370 . S
C954 C958 1.524 . S
C955 C947 1.503 . S
C955 C954 1.370 . S
C955 C956 1.403 . S
C956 C955 1.403 . S
C956 C957 1.404 . S
C956 C959 1.539 . S
C957 C953 1.408 . S
C957 C956 1.404 . S
C957 H969 0.930 . S
C958 C954 1.524 . S
C958 H970 0.956 . S
C958 H971 0.961 . S
C958 H972 0.961 . S
C959 C956 1.539 . S
C959 H973 0.958 . S
C959 H974 0.961 . S
C959 H975 0.960 . S
H960 C944 0.931 . S
H961 C949 0.929 . S
H962 C950 0.960 . S
H963 C950 0.962 . S
H964 C950 0.960 . S
H965 C951 0.961 . S
H966 C951 0.961 . S
H967 C951 0.961 . S
H968 C952 0.931 . S
H969 C957 0.930 . S
H970 C958 0.956 . S
H971 C958 0.961 . S
H972 C958 0.961 . S
H973 C959 0.958 . S
H974 C959 0.961 . S
H975 C959 0.960 . S
C976 C977 1.391 . S
C976 C978 1.394 . S
C976 H992 0.931 . S
C977 C976 1.391 . S
C977 C981 1.376 . S
C978 C976 1.394 . S
C978 C979 1.369 . S
C978 C982 1.531 . S
C979 C978 1.369 . S
C979 C980 1.410 . S
C979 C987 1.503 . S
C980 C979 1.410 . S
C980 C981 1.392 . S
C980 C983 1.511 . S
C981 C977 1.376 . S
C981 C980 1.392 . S
C981 H993 0.929 . S
C982 C978 1.531 . S
C982 H994 0.960 . S
C982 H995 0.962 . S
C982 H996 0.960 . S
C983 C980 1.511 . S
C983 H997 0.961 . S
C983 H998 0.961 . S
C983 H999 0.961 . S
C984 C985 1.370 . S
C984 C986 1.363 . S
C984 H1000 0.931 . S
C985 C984 1.370 . S
C985 C989 1.408 . S
C986 C984 1.363 . S
C986 C987 1.370 . S
C986 C990 1.524 . S
C987 C979 1.503 . S
C987 C986 1.370 . S
C987 C988 1.403 . S
C988 C987 1.403 . S
C988 C989 1.404 . S
C988 C991 1.539 . S
C989 C985 1.408 . S
C989 C988 1.404 . S
C989 H1001 0.930 . S
C990 C986 1.524 . S
C990 H1002 0.956 . S
C990 H1003 0.961 . S
C990 H1004 0.961 . S
C991 C988 1.539 . S
C991 H1005 0.958 . S
C991 H1006 0.961 . S
C991 H1007 0.960 . S
H992 C976 0.931 . S
H993 C981 0.929 . S
H994 C982 0.960 . S
H995 C982 0.962 . S
H996 C982 0.960 . S
H997 C983 0.961 . S
H998 C983 0.961 . S
H999 C983 0.961 . S
H1000 C984 0.931 . S
H1001 C989 0.930 . S
H1002 C990 0.956 . S
H1003 C990 0.961 . S
H1004 C990 0.961 . S
H1005 C991 0.958 . S
H1006 C991 0.961 . S
H1007 C991 0.960 . S
C241 N80 1.875 . S
C249 C121 1.899 . S
C281 C142 1.543 . S
C273 N93 1.534 . S
C313 C176 1.385 . S
C305 N54 1.347 . S
C345 C210 1.532 . S
C337 N67 1.534 . S
C377 C112 1.899 . S
C369 N28 1.877 1_545 S
C401 N41 1.529 . S
C409 C151 1.554 . S
C433 N2 1.352 . S
C441 C185 1.384 . S
C465 N15 1.522 . S
C473 C219 1.537 1_655 S
C505 C133 0.482 . S
C497 N70 0.518 . S
C537 C138 0.990 . S
C529 N83 0.983 . S
C569 C172 0.897 . S
C561 N96 0.917 . S
C593 N57 0.412 . S
C601 C206 0.394 . S
C625 N18 0.500 . S
C633 C104 0.501 . S
C665 C167 0.979 . S
C657 N31 0.984 . S
C697 C201 0.890 . S
C689 N44 0.911 . S
C721 N5 0.434 . S
C729 C235 0.419 . S
C753 N66 1.347 . S
C761 C117 1.326 . S
C785 N79 1.752 1_545 S
C793 C146 1.753 . S
C825 C180 1.551 . S
C817 N92 1.537 . S
C857 C214 1.614 . S
C849 N53 1.600 . S
C881 N14 1.327 . S
C889 C108 1.342 . S
C921 C155 1.753 . S
C913 N27 1.749 1_545 S
C953 C189 1.556 . S
C945 N40 1.543 . S
C977 N1 1.600 . S
C985 C223 1.613 . S
