# Generated by pormake.
# Topology nom, (4,4)-cn, num edge types: 1
# Building blocks:
#     Node 0, Type 0, BuildingBlock: MIFKUJ_clean_linker_1, # of connection points: 4
#     Node 1, Type 0, BuildingBlock: MIFKUJ_clean_linker_1, # of connection points: 4
#     Node 2, Type 0, BuildingBlock: MIFKUJ_clean_linker_1, # of connection points: 4
#     Node 3, Type 0, BuildingBlock: MIFKUJ_clean_linker_1, # of connection points: 4
#     Node 4, Type 0, BuildingBlock: MIFKUJ_clean_linker_1, # of connection points: 4
#     Node 5, Type 0, BuildingBlock: MIFKUJ_clean_linker_1, # of connection points: 4
#     Node 6, Type 1, BuildingBlock: QUQFOY_clean_sbu_3, # of connection points: 4
#     Node 7, Type 1, BuildingBlock: QUQFOY_clean_sbu_3, # of connection points: 4
#     Node 8, Type 1, BuildingBlock: QUQFOY_clean_sbu_3, # of connection points: 4
#     Node 9, Type 1, BuildingBlock: QUQFOY_clean_sbu_3, # of connection points: 4
#     Node 10, Type 1, BuildingBlock: QUQFOY_clean_sbu_3, # of connection points: 4
#     Node 11, Type 1, BuildingBlock: QUQFOY_clean_sbu_3, # of connection points: 4
#     Edge 12, Type (0, 1), None
#     Edge 13, Type (0, 1), None
#     Edge 14, Type (0, 1), None
#     Edge 15, Type (0, 1), None
#     Edge 16, Type (0, 1), None
#     Edge 17, Type (0, 1), None
#     Edge 18, Type (0, 1), None
#     Edge 19, Type (0, 1), None
#     Edge 20, Type (0, 1), None
#     Edge 21, Type (0, 1), None
#     Edge 22, Type (0, 1), None
#     Edge 23, Type (0, 1), None
#     Edge 24, Type (0, 1), None
#     Edge 25, Type (0, 1), None
#     Edge 26, Type (0, 1), None
#     Edge 27, Type (0, 1), None
#     Edge 28, Type (0, 1), None
#     Edge 29, Type (0, 1), None
#     Edge 30, Type (0, 1), None
#     Edge 31, Type (0, 1), None
#     Edge 32, Type (0, 1), None
#     Edge 33, Type (0, 1), None
#     Edge 34, Type (0, 1), None
#     Edge 35, Type (0, 1), None
# Relax obj value: 0.002
# Max RMSD: 0.103
# Mean RMSD: 0.065
data_MOF--net-nom--node1-QUQFOY_clean_sbu_3--node2-MIFKUJ_clean_linker_1--edge1-none
_symmetry_space_group_name_H-M    P1
_symmetry_Int_Tables_number       1
_symmetry_cell_setting            triclinic
loop_
_symmetry_equiv_pos_as_xyz
'x, y, z'
_cell_length_a     29.682932
_cell_length_b     30.39153
_cell_length_c     30.987842
_cell_angle_alpha  90.000364
_cell_angle_beta   90.001114
_cell_angle_gamma 120.22303
loop_
_atom_site_label
_atom_site_type_symbol
_atom_site_fract_x
_atom_site_fract_y
_atom_site_fract_z
_atom_type_partial_charge
H0 H 0.86583 0.38689 0.25987 0.0
H1 H 0.80944 0.36955 0.19651 0.0
H2 H 0.90064 0.52822 0.16008 0.0
H3 H 0.95578 0.54493 0.22284 0.0
H4 H 0.01862 0.51233 0.239 0.0
H5 H 0.85434 0.38169 0.35768 0.0
H6 H 0.7718 0.37102 0.38579 0.0
H7 H 0.82236 0.52702 0.35164 0.0
H8 H 0.90338 0.53673 0.32277 0.0
H9 H 0.02963 0.56911 0.41644 0.0
H10 H 0.09375 0.60431 0.47466 0.0
H11 H 0.17647 0.53494 0.41879 0.0
H12 H 0.112 0.49974 0.36059 0.0
H13 H 0.96129 0.47738 0.39162 0.0
H14 H 0.07203 0.62096 0.31188 0.0
H15 H 0.15215 0.6945 0.28555 0.0
H16 H 0.20937 0.59494 0.24633 0.0
H17 H 0.12777 0.52095 0.27171 0.0
C18 C 0.91531 0.46709 0.24581 0.0
C19 C 0.87312 0.41786 0.23833 0.0
C20 C 0.84112 0.408 0.20205 0.0
C21 C 0.85085 0.44732 0.17285 0.0
C22 C 0.89218 0.49679 0.18145 0.0
C23 C 0.92392 0.50649 0.21742 0.0
C24 C 0.95245 0.47774 0.28176 0.0
C25 C 0.00588 0.50293 0.27226 0.0
C26 C 0.93642 0.46949 0.32534 0.0
C27 C 0.88433 0.45976 0.33785 0.0
C28 C 0.84693 0.41308 0.35564 0.0
C29 C 0.80009 0.40718 0.37174 0.0
C30 C 0.79105 0.44842 0.37126 0.0
C31 C 0.82849 0.49479 0.35284 0.0
C32 C 0.87452 0.50025 0.33601 0.0
C33 C 0.0659 0.53163 0.38425 0.0
C34 C 0.06139 0.56123 0.41687 0.0
C35 C 0.09829 0.5816 0.44998 0.0
C36 C 0.14021 0.57241 0.45132 0.0
C37 C 0.14464 0.54271 0.41865 0.0
C38 C 0.10789 0.52264 0.38535 0.0
C39 C 0.02729 0.51093 0.34861 0.0
C40 C 0.9738 0.48352 0.35818 0.0
C41 C 0.04312 0.5225 0.30519 0.0
C42 C 0.09458 0.56591 0.29403 0.0
C43 C 0.10215 0.61512 0.29802 0.0
C44 C 0.14762 0.65695 0.28265 0.0
C45 C 0.18668 0.65029 0.26365 0.0
C46 C 0.17976 0.60102 0.2609 0.0
C47 C 0.13351 0.55888 0.27545 0.0
H48 H 0.37445 0.90803 0.54145 0.0
H49 H 0.31604 0.81949 0.56269 0.0
H50 H 0.4169 0.77579 0.49855 0.0
H51 H 0.47597 0.8647 0.47869 0.0
H52 H 0.47993 0.97392 0.55935 0.0
H53 H 0.37647 0.93162 0.41195 0.0
H54 H 0.34011 0.87829 0.34784 0.0
H55 H 0.47102 0.85316 0.3445 0.0
H56 H 0.5081 0.90825 0.40808 0.0
H57 H 0.61089 0.13378 0.48068 0.0
H58 H 0.63857 0.22244 0.46384 0.0
H59 H 0.48597 0.17508 0.41126 0.0
H60 H 0.45805 0.08666 0.42962 0.0
H61 H 0.49638 0.02307 0.40498 0.0
H62 H 0.60588 0.08553 0.55111 0.0
H63 H 0.63592 0.14911 0.60908 0.0
H64 H 0.48311 0.13373 0.61432 0.0
H65 H 0.454 0.07138 0.55548 0.0
C66 C 0.42903 0.89281 0.50771 0.0
C67 C 0.38417 0.87939 0.53228 0.0
C68 C 0.35081 0.82879 0.54439 0.0
C69 C 0.36163 0.79058 0.53202 0.0
C70 C 0.40722 0.80429 0.50824 0.0
C71 C 0.44081 0.85503 0.49648 0.0
C72 C 0.4628 0.94641 0.49385 0.0
C73 C 0.48458 0.98455 0.52551 0.0
C74 C 0.46894 0.96067 0.44989 0.0
C75 C 0.44441 0.92308 0.41492 0.0
C76 C 0.39689 0.91402 0.39772 0.0
C77 C 0.3764 0.8838 0.36103 0.0
C78 C 0.40289 0.86173 0.34117 0.0
C79 C 0.44967 0.86942 0.35937 0.0
C80 C 0.47073 0.90062 0.39567 0.0
C81 C 0.53209 0.10377 0.45731 0.0
C82 C 0.58326 0.14256 0.466 0.0
C83 C 0.59911 0.19317 0.45602 0.0
C84 C 0.5643 0.20578 0.43648 0.0
C85 C 0.51367 0.16661 0.42633 0.0
C86 C 0.4977 0.11609 0.43675 0.0
C87 C 0.51346 0.05038 0.4704 0.0
C88 C 0.49396 0.01238 0.43869 0.0
C89 C 0.50994 0.03623 0.51421 0.0
C90 C 0.528 0.07437 0.54904 0.0
C91 C 0.57914 0.0963 0.56463 0.0
C92 C 0.5962 0.13259 0.59756 0.0
C93 C 0.56183 0.14636 0.61607 0.0
C94 C 0.51038 0.12377 0.60065 0.0
C95 C 0.4937 0.08825 0.56715 0.0
H96 H 0.48398 0.61007 0.71521 0.0
H97 H 0.44683 0.62903 0.77858 0.0
H98 H 0.3746 0.47113 0.81744 0.0
H99 H 0.41119 0.45283 0.75464 0.0
H100 H 0.50934 0.48716 0.7383 0.0
H101 H 0.47707 0.61519 0.62175 0.0
H102 H 0.40616 0.62653 0.59306 0.0
H103 H 0.29611 0.46823 0.61999 0.0
H104 H 0.36645 0.45783 0.64937 0.0
H105 H 0.45795 0.40066 0.58411 0.0
H106 H 0.48346 0.36376 0.52526 0.0
H107 H 0.64239 0.48797 0.5357 0.0
H108 H 0.61609 0.52534 0.59365 0.0
H109 H 0.48489 0.51672 0.58491 0.0
H110 H 0.46594 0.38507 0.70969 0.0
H111 H 0.49077 0.32161 0.7268 0.0
H112 H 0.64613 0.42347 0.67883 0.0
H113 H 0.6215 0.48758 0.66342 0.0
C114 C 0.45053 0.53009 0.73037 0.0
C115 C 0.45955 0.57959 0.73723 0.0
C116 C 0.4386 0.59041 0.77356 0.0
C117 C 0.40824 0.55179 0.80343 0.0
C118 C 0.39818 0.50205 0.7955 0.0
C119 C 0.41908 0.4914 0.75949 0.0
C120 C 0.47631 0.51866 0.69469 0.0
C121 C 0.50506 0.4949 0.70482 0.0
C122 C 0.46859 0.52615 0.65096 0.0
C123 C 0.42662 0.53586 0.63795 0.0
C124 C 0.43744 0.58338 0.62203 0.0
C125 C 0.39704 0.58968 0.60559 0.0
C126 C 0.34573 0.5481 0.60388 0.0
C127 C 0.33527 0.50084 0.62044 0.0
C128 C 0.37528 0.49491 0.63755 0.0
C129 C 0.5353 0.46538 0.59328 0.0
C130 C 0.49822 0.41989 0.57354 0.0
C131 C 0.51287 0.39887 0.54007 0.0
C132 C 0.56498 0.42281 0.52612 0.0
C133 C 0.60206 0.46841 0.54606 0.0
C134 C 0.58715 0.48983 0.57906 0.0
C135 C 0.51943 0.48714 0.62875 0.0
C136 C 0.49205 0.51224 0.61853 0.0
C137 C 0.52458 0.47699 0.67237 0.0
C138 C 0.54165 0.4406 0.68454 0.0
C139 C 0.50553 0.39389 0.70332 0.0
C140 C 0.51971 0.35766 0.71302 0.0
C141 C 0.57019 0.36739 0.70374 0.0
C142 C 0.60672 0.4147 0.68586 0.0
C143 C 0.59267 0.45123 0.67673 0.0
H144 H 0.11369 0.61222 0.75988 0.0
H145 H 0.17008 0.62956 0.69652 0.0
H146 H 0.07888 0.47089 0.66008 0.0
H147 H 0.02375 0.45418 0.72283 0.0
H148 H 0.96089 0.48677 0.739 0.0
H149 H 0.12518 0.61741 0.85767 0.0
H150 H 0.20772 0.62809 0.88579 0.0
H151 H 0.15716 0.47209 0.85165 0.0
H152 H 0.07614 0.46237 0.82278 0.0
H153 H 0.94988 0.42999 0.91644 0.0
H154 H 0.88575 0.39479 0.97465 0.0
H155 H 0.80306 0.46418 0.91879 0.0
H156 H 0.86752 0.49938 0.86059 0.0
H157 H 0.01823 0.52172 0.89163 0.0
H158 H 0.90749 0.37815 0.81187 0.0
H159 H 0.82735 0.30461 0.78555 0.0
H160 H 0.77014 0.40417 0.74634 0.0
H161 H 0.85174 0.47815 0.77171 0.0
C162 C 0.0642 0.53202 0.74581 0.0
C163 C 0.10639 0.58125 0.73834 0.0
C164 C 0.13839 0.59112 0.70205 0.0
C165 C 0.12867 0.55179 0.67286 0.0
C166 C 0.08734 0.50232 0.68146 0.0
C167 C 0.0556 0.49261 0.71742 0.0
C168 C 0.02707 0.52136 0.78176 0.0
C169 C 0.97363 0.49617 0.77226 0.0
C170 C 0.0431 0.52961 0.82535 0.0
C171 C 0.09519 0.53934 0.83786 0.0
C172 C 0.13259 0.58603 0.85564 0.0
C173 C 0.17943 0.59193 0.87173 0.0
C174 C 0.18847 0.5507 0.87126 0.0
C175 C 0.15103 0.50432 0.85284 0.0
C176 C 0.105 0.49885 0.83602 0.0
C177 C 0.91362 0.46748 0.88425 0.0
C178 C 0.91812 0.43787 0.91686 0.0
C179 C 0.88122 0.41751 0.94997 0.0
C180 C 0.8393 0.4267 0.95132 0.0
C181 C 0.83488 0.4564 0.91864 0.0
C182 C 0.87163 0.47647 0.88535 0.0
C183 C 0.95223 0.48817 0.84861 0.0
C184 C 0.00571 0.51559 0.85818 0.0
C185 C 0.9364 0.4766 0.80519 0.0
C186 C 0.88493 0.4332 0.79403 0.0
C187 C 0.87736 0.38398 0.79801 0.0
C188 C 0.83188 0.34215 0.78265 0.0
C189 C 0.79283 0.34881 0.76366 0.0
C190 C 0.79975 0.39809 0.76091 0.0
C191 C 0.84601 0.44023 0.77546 0.0
H192 H 0.60503 0.09109 0.04145 0.0
H193 H 0.66345 0.17963 0.06269 0.0
H194 H 0.5626 0.22334 -0.00145 0.0
H195 H 0.50352 0.13443 0.97869 0.0
H196 H 0.49955 0.0252 0.05935 0.0
H197 H 0.603 0.0675 0.91195 0.0
H198 H 0.63937 0.12083 0.84785 0.0
H199 H 0.50847 0.14597 0.8445 0.0
H200 H 0.47138 0.09088 0.90808 0.0
H201 H 0.36859 0.86534 0.98067 0.0
H202 H 0.34092 0.77667 0.96383 0.0
H203 H 0.49353 0.82406 0.91127 0.0
H204 H 0.52144 0.91247 0.92963 0.0
H205 H 0.4831 0.97605 0.90498 0.0
H206 H 0.3736 0.91358 0.0511 0.0
H207 H 0.34356 0.84999 0.10907 0.0
H208 H 0.49639 0.86542 0.11433 0.0
H209 H 0.52549 0.92777 0.05549 0.0
C210 C 0.55046 0.10631 0.00771 0.0
C211 C 0.59532 0.11973 0.03228 0.0
C212 C 0.62868 0.17033 0.04439 0.0
C213 C 0.61787 0.20855 0.03202 0.0
C214 C 0.57227 0.19484 0.00824 0.0
C215 C 0.53867 0.1441 -0.00352 0.0
C216 C 0.51668 0.05271 -0.00615 0.0
C217 C 0.4949 0.01458 0.02551 0.0
C218 C 0.51054 0.03846 0.94989 0.0
C219 C 0.53507 0.07604 0.91492 0.0
C220 C 0.58258 0.0851 0.89772 0.0
C221 C 0.60308 0.11532 0.86104 0.0
C222 C 0.5766 0.13739 0.84117 0.0
C223 C 0.52982 0.1297 0.85937 0.0
C224 C 0.50875 0.0985 0.89567 0.0
C225 C 0.44739 0.89536 0.95731 0.0
C226 C 0.39623 0.85657 0.96599 0.0
C227 C 0.38039 0.80595 0.95602 0.0
C228 C 0.41521 0.79335 0.93648 0.0
C229 C 0.46583 0.83252 0.92633 0.0
C230 C 0.48179 0.88305 0.93676 0.0
C231 C 0.46601 0.94874 0.97039 0.0
C232 C 0.48551 0.98674 0.93868 0.0
C233 C 0.46954 0.96289 0.01421 0.0
C234 C 0.45148 0.92475 0.04904 0.0
C235 C 0.40033 0.90282 0.06462 0.0
C236 C 0.38328 0.86653 0.09755 0.0
C237 C 0.41765 0.85277 0.11606 0.0
C238 C 0.46911 0.87537 0.10065 0.0
C239 C 0.48579 0.91089 0.06715 0.0
H240 H 0.49557 0.38909 0.21521 0.0
H241 H 0.53272 0.37012 0.27857 0.0
H242 H 0.60495 0.52802 0.31745 0.0
H243 H 0.56836 0.54632 0.25465 0.0
H244 H 0.47022 0.51201 0.2383 0.0
H245 H 0.50247 0.38397 0.12173 0.0
H246 H 0.57336 0.37262 0.09304 0.0
H247 H 0.68344 0.5309 0.12 0.0
H248 H 0.61311 0.54131 0.14939 0.0
H249 H 0.52159 0.59851 0.08413 0.0
H250 H 0.49607 0.63541 0.02528 0.0
H251 H 0.33716 0.51117 0.03568 0.0
H252 H 0.36346 0.4738 0.09363 0.0
H253 H 0.49465 0.48244 0.08491 0.0
H254 H 0.5136 0.6141 0.2097 0.0
H255 H 0.48875 0.67755 0.2268 0.0
H256 H 0.33341 0.57567 0.17882 0.0
H257 H 0.35805 0.51157 0.16341 0.0
C258 C 0.52902 0.46907 0.23038 0.0
C259 C 0.52 0.41957 0.23723 0.0
C260 C 0.54095 0.40874 0.27356 0.0
C261 C 0.5713 0.44736 0.30344 0.0
C262 C 0.58136 0.49711 0.29551 0.0
C263 C 0.56048 0.50776 0.2595 0.0
C264 C 0.50324 0.4805 0.19469 0.0
C265 C 0.47449 0.50427 0.20482 0.0
C266 C 0.51096 0.47301 0.15096 0.0
C267 C 0.55293 0.4633 0.13795 0.0
C268 C 0.54209 0.41577 0.12202 0.0
C269 C 0.58249 0.40947 0.10558 0.0
C270 C 0.63381 0.45104 0.10388 0.0
C271 C 0.64428 0.4983 0.12045 0.0
C272 C 0.60427 0.50423 0.13757 0.0
C273 C 0.44425 0.53378 0.09328 0.0
C274 C 0.48132 0.57928 0.07355 0.0
C275 C 0.46667 0.60029 0.04007 0.0
C276 C 0.41456 0.57633 0.02611 0.0
C277 C 0.37749 0.53073 0.04605 0.0
C278 C 0.3924 0.50932 0.07906 0.0
C279 C 0.46012 0.51202 0.12875 0.0
C280 C 0.4875 0.48692 0.11853 0.0
C281 C 0.45497 0.52217 0.17237 0.0
C282 C 0.43789 0.55856 0.18453 0.0
C283 C 0.47401 0.60526 0.20332 0.0
C284 C 0.45982 0.64149 0.21302 0.0
C285 C 0.40934 0.63175 0.20374 0.0
C286 C 0.37282 0.58445 0.18585 0.0
C287 C 0.38688 0.54792 0.17672 0.0
C288 C 0.74343 0.44395 0.39038 0.0
O289 O 0.74425 0.48375 0.404 0.0
Cd290 Cd 0.67077 0.48601 0.43282 0.0
O291 O 0.70188 0.40068 0.39232 0.0
Cd292 Cd 0.61042 0.36432 0.41683 0.0
C293 C 0.59251 0.43694 0.343 0.0
O294 O 0.62756 0.41639 0.48152 0.0
O295 O 0.5467 0.36961 0.46388 0.0
O296 O 0.62212 0.29562 0.44402 0.0
C297 C 0.58019 0.40113 0.49009 0.0
O298 O 0.61886 0.47363 0.36889 0.0
C299 C 0.58025 0.25966 0.42827 0.0
O300 O 0.58489 0.39245 0.35084 0.0
O301 O 0.55221 0.27226 0.40643 0.0
C302 C 0.30297 0.55307 0.58459 0.0
O303 O 0.26269 0.51346 0.57083 0.0
Cd304 Cd 0.18668 0.51156 0.54309 0.0
O305 O 0.3061 0.5964 0.58278 0.0
Cd306 Cd 0.2506 0.63137 0.55765 0.0
C307 C 0.16024 0.5613 0.63317 0.0
O308 O 0.21208 0.57946 0.49273 0.0
O309 O 0.17593 0.62121 0.51596 0.0
O310 O 0.32969 0.70098 0.526 0.0
C311 C 0.17841 0.59296 0.48709 0.0
O312 O 0.14798 0.52431 0.60741 0.0
C313 C 0.32467 0.73653 0.54242 0.0
O314 O 0.19872 0.60547 0.6249 0.0
O315 O 0.28549 0.72328 0.56688 0.0
C316 C 0.74536 0.30441 0.74668 0.0
O317 O 0.74695 0.26531 0.73448 0.0
Cd318 Cd 0.67237 0.18854 0.70958 0.0
O319 O 0.70311 0.30547 0.74504 0.0
Cd320 Cd 0.61145 0.25136 0.72325 0.0
C321 C 0.59672 0.16574 0.80041 0.0
O322 O 0.62692 0.21295 0.66014 0.0
O323 O 0.54635 0.18443 0.67754 0.0
O324 O 0.62527 0.33164 0.69516 0.0
C325 C 0.579 0.18305 0.65204 0.0
O326 O 0.62414 0.15457 0.77616 0.0
C327 C 0.58428 0.32792 0.71144 0.0
O328 O 0.58669 0.20048 0.7899 0.0
O329 O 0.55554 0.28824 0.73361 0.0
C330 C 0.2361 0.55517 0.89037 0.0
O331 O 0.23529 0.51537 0.904 0.0
Cd332 Cd 0.30877 0.51313 0.93281 0.0
O333 O 0.27764 0.59845 0.89232 0.0
Cd334 Cd 0.36911 0.63481 0.91683 0.0
C335 C 0.38703 0.56221 0.843 0.0
O336 O 0.35198 0.58275 0.98151 0.0
O337 O 0.43283 0.62954 0.96388 0.0
O338 O 0.35739 0.70351 0.94401 0.0
C339 C 0.39935 0.59801 0.99009 0.0
O340 O 0.36068 0.52551 0.86888 0.0
C341 C 0.39926 0.73947 0.92827 0.0
O342 O 0.39465 0.60669 0.85084 0.0
O343 O 0.4273 0.72688 0.90643 0.0
C344 C 0.67656 0.44607 0.08458 0.0
O345 O 0.71684 0.48567 0.07083 0.0
Cd346 Cd 0.79285 0.48756 0.04309 0.0
O347 O 0.67343 0.40273 0.08277 0.0
Cd348 Cd 0.72891 0.36776 0.05764 0.0
C349 C 0.81928 0.43781 0.13316 0.0
O350 O 0.76744 0.41966 0.99273 0.0
O351 O 0.80358 0.3779 0.01596 0.0
O352 O 0.64982 0.29814 0.02599 0.0
C353 C 0.8011 0.40616 0.98709 0.0
O354 O 0.83154 0.47481 0.1074 0.0
C355 C 0.65484 0.2626 0.04241 0.0
O356 O 0.7808 0.39365 0.12489 0.0
O357 O 0.69401 0.27584 0.06687 0.0
C358 C 0.23414 0.6947 0.24668 0.0
O359 O 0.23255 0.73379 0.23447 0.0
Cd360 Cd 0.30711 0.81057 0.20958 0.0
O361 O 0.27639 0.69364 0.24504 0.0
Cd362 Cd 0.36805 0.74777 0.22324 0.0
C363 C 0.38277 0.83338 0.3004 0.0
O364 O 0.35257 0.78617 0.16013 0.0
O365 O 0.43314 0.8147 0.17754 0.0
O366 O 0.35425 0.66749 0.19515 0.0
C367 C 0.4005 0.81608 0.15204 0.0
O368 O 0.35535 0.84455 0.27615 0.0
C369 C 0.39524 0.67122 0.21143 0.0
O370 O 0.39281 0.79864 0.28989 0.0
O371 O 0.42397 0.7109 0.23361 0.0
loop_
_geom_bond_atom_site_label_1
_geom_bond_atom_site_label_2
_geom_bond_distance
_geom_bond_site_symmetry_2
_ccdc_geom_bond_type
H0 C19 0.949 . S
H1 C20 0.950 . S
H2 C22 0.950 . S
H3 C23 0.950 . S
H4 C25 0.950 . S
H5 C28 0.950 . S
H6 C29 0.950 . S
H7 C31 0.951 . S
H8 C32 0.949 . S
H9 C34 0.949 . S
H10 C35 0.950 . S
H11 C37 0.950 . S
H12 C38 0.950 . S
H13 C40 0.950 . S
H14 C43 0.950 . S
H15 C44 0.950 . S
H16 C46 0.951 . S
H17 C47 0.949 . S
C18 C19 1.376 . S
C18 C23 1.386 . S
C18 C24 1.483 . S
C19 H0 0.949 . S
C19 C18 1.376 . S
C19 C20 1.397 . S
C20 H1 0.950 . S
C20 C19 1.397 . S
C20 C21 1.391 . S
C21 C20 1.391 . S
C21 C22 1.405 . S
C22 H2 0.950 . S
C22 C21 1.405 . S
C22 C23 1.367 . S
C23 H3 0.950 . S
C23 C18 1.386 . S
C23 C22 1.367 . S
C24 C18 1.483 . S
C24 C25 1.382 1_655 S
C24 C26 1.403 . S
C25 H4 0.950 . S
C25 C24 1.382 1_455 S
C25 C41 1.411 . S
C26 C24 1.403 . S
C26 C27 1.489 . S
C26 C40 1.411 . S
C27 C26 1.489 . S
C27 C28 1.383 . S
C27 C32 1.382 . S
C28 H5 0.950 . S
C28 C27 1.383 . S
C28 C29 1.395 . S
C29 H6 0.950 . S
C29 C28 1.395 . S
C29 C30 1.288 . S
C30 C29 1.288 . S
C30 C31 1.392 . S
C31 H7 0.951 . S
C31 C30 1.392 . S
C31 C32 1.392 . S
C32 H8 0.949 . S
C32 C27 1.382 . S
C32 C31 1.392 . S
C33 C34 1.376 . S
C33 C38 1.386 . S
C33 C39 1.483 . S
C34 H9 0.949 . S
C34 C33 1.376 . S
C34 C35 1.397 . S
C35 H10 0.950 . S
C35 C34 1.397 . S
C35 C36 1.391 . S
C36 C35 1.391 . S
C36 C37 1.405 . S
C37 H11 0.950 . S
C37 C36 1.405 . S
C37 C38 1.367 . S
C38 H12 0.950 . S
C38 C33 1.386 . S
C38 C37 1.367 . S
C39 C33 1.483 . S
C39 C40 1.382 1_455 S
C39 C41 1.403 . S
C40 H13 0.950 . S
C40 C26 1.411 . S
C40 C39 1.382 1_655 S
C41 C25 1.411 . S
C41 C39 1.403 . S
C41 C42 1.489 . S
C42 C41 1.489 . S
C42 C43 1.383 . S
C42 C47 1.382 . S
C43 H14 0.950 . S
C43 C42 1.383 . S
C43 C44 1.395 . S
C44 H15 0.950 . S
C44 C43 1.395 . S
C44 C45 1.288 . S
C45 C44 1.288 . S
C45 C46 1.392 . S
C46 H16 0.951 . S
C46 C45 1.392 . S
C46 C47 1.392 . S
C47 H17 0.949 . S
C47 C42 1.382 . S
C47 C46 1.392 . S
H48 C67 0.949 . S
H49 C68 0.950 . S
H50 C70 0.950 . S
H51 C71 0.950 . S
H52 C73 0.950 . S
H53 C76 0.950 . S
H54 C77 0.950 . S
H55 C79 0.951 . S
H56 C80 0.949 . S
H57 C82 0.949 . S
H58 C83 0.950 . S
H59 C85 0.950 . S
H60 C86 0.950 . S
H61 C88 0.950 . S
H62 C91 0.950 . S
H63 C92 0.950 . S
H64 C94 0.951 . S
H65 C95 0.949 . S
C66 C67 1.376 . S
C66 C71 1.386 . S
C66 C72 1.483 . S
C67 H48 0.949 . S
C67 C66 1.376 . S
C67 C68 1.397 . S
C68 H49 0.950 . S
C68 C67 1.397 . S
C68 C69 1.391 . S
C69 C68 1.391 . S
C69 C70 1.405 . S
C70 H50 0.950 . S
C70 C69 1.405 . S
C70 C71 1.367 . S
C71 H51 0.950 . S
C71 C66 1.386 . S
C71 C70 1.367 . S
C72 C66 1.483 . S
C72 C73 1.382 . S
C72 C74 1.403 . S
C73 H52 0.950 . S
C73 C72 1.382 . S
C73 C89 1.411 1_565 S
C74 C72 1.403 . S
C74 C75 1.489 . S
C74 C88 1.411 1_565 S
C75 C74 1.489 . S
C75 C76 1.383 . S
C75 C80 1.382 . S
C76 H53 0.950 . S
C76 C75 1.383 . S
C76 C77 1.395 . S
C77 H54 0.950 . S
C77 C76 1.395 . S
C77 C78 1.288 . S
C78 C77 1.288 . S
C78 C79 1.392 . S
C79 H55 0.951 . S
C79 C78 1.392 . S
C79 C80 1.392 . S
C80 H56 0.949 . S
C80 C75 1.382 . S
C80 C79 1.392 . S
C81 C82 1.376 . S
C81 C86 1.386 . S
C81 C87 1.483 . S
C82 H57 0.949 . S
C82 C81 1.376 . S
C82 C83 1.397 . S
C83 H58 0.950 . S
C83 C82 1.397 . S
C83 C84 1.391 . S
C84 C83 1.391 . S
C84 C85 1.405 . S
C85 H59 0.950 . S
C85 C84 1.405 . S
C85 C86 1.367 . S
C86 H60 0.950 . S
C86 C81 1.386 . S
C86 C85 1.367 . S
C87 C81 1.483 . S
C87 C88 1.382 . S
C87 C89 1.403 . S
C88 H61 0.950 . S
C88 C74 1.411 1_545 S
C88 C87 1.382 . S
C89 C73 1.411 1_545 S
C89 C87 1.403 . S
C89 C90 1.489 . S
C90 C89 1.489 . S
C90 C91 1.383 . S
C90 C95 1.382 . S
C91 H62 0.950 . S
C91 C90 1.383 . S
C91 C92 1.395 . S
C92 H63 0.950 . S
C92 C91 1.395 . S
C92 C93 1.288 . S
C93 C92 1.288 . S
C93 C94 1.392 . S
C94 H64 0.951 . S
C94 C93 1.392 . S
C94 C95 1.392 . S
C95 H65 0.949 . S
C95 C90 1.382 . S
C95 C94 1.392 . S
H96 C115 0.949 . S
H97 C116 0.950 . S
H98 C118 0.950 . S
H99 C119 0.950 . S
H100 C121 0.950 . S
H101 C124 0.950 . S
H102 C125 0.950 . S
H103 C127 0.951 . S
H104 C128 0.949 . S
H105 C130 0.949 . S
H106 C131 0.950 . S
H107 C133 0.950 . S
H108 C134 0.950 . S
H109 C136 0.950 . S
H110 C139 0.950 . S
H111 C140 0.950 . S
H112 C142 0.951 . S
H113 C143 0.949 . S
C114 C115 1.376 . S
C114 C119 1.386 . S
C114 C120 1.483 . S
C115 H96 0.949 . S
C115 C114 1.376 . S
C115 C116 1.397 . S
C116 H97 0.950 . S
C116 C115 1.397 . S
C116 C117 1.391 . S
C117 C116 1.391 . S
C117 C118 1.405 . S
C118 H98 0.950 . S
C118 C117 1.405 . S
C118 C119 1.367 . S
C119 H99 0.950 . S
C119 C114 1.386 . S
C119 C118 1.367 . S
C120 C114 1.483 . S
C120 C121 1.382 . S
C120 C122 1.403 . S
C121 H100 0.950 . S
C121 C120 1.382 . S
C121 C137 1.411 . S
C122 C120 1.403 . S
C122 C123 1.489 . S
C122 C136 1.411 . S
C123 C122 1.489 . S
C123 C124 1.383 . S
C123 C128 1.382 . S
C124 H101 0.950 . S
C124 C123 1.383 . S
C124 C125 1.395 . S
C125 H102 0.950 . S
C125 C124 1.395 . S
C125 C126 1.288 . S
C126 C125 1.288 . S
C126 C127 1.392 . S
C127 H103 0.951 . S
C127 C126 1.392 . S
C127 C128 1.392 . S
C128 H104 0.949 . S
C128 C123 1.382 . S
C128 C127 1.392 . S
C129 C130 1.376 . S
C129 C134 1.386 . S
C129 C135 1.483 . S
C130 H105 0.949 . S
C130 C129 1.376 . S
C130 C131 1.397 . S
C131 H106 0.950 . S
C131 C130 1.397 . S
C131 C132 1.391 . S
C132 C131 1.391 . S
C132 C133 1.405 . S
C133 H107 0.950 . S
C133 C132 1.405 . S
C133 C134 1.367 . S
C134 H108 0.950 . S
C134 C129 1.386 . S
C134 C133 1.367 . S
C135 C129 1.483 . S
C135 C136 1.382 . S
C135 C137 1.403 . S
C136 H109 0.950 . S
C136 C122 1.411 . S
C136 C135 1.382 . S
C137 C121 1.411 . S
C137 C135 1.403 . S
C137 C138 1.489 . S
C138 C137 1.489 . S
C138 C139 1.383 . S
C138 C143 1.382 . S
C139 H110 0.950 . S
C139 C138 1.383 . S
C139 C140 1.395 . S
C140 H111 0.950 . S
C140 C139 1.395 . S
C140 C141 1.288 . S
C141 C140 1.288 . S
C141 C142 1.392 . S
C142 H112 0.951 . S
C142 C141 1.392 . S
C142 C143 1.392 . S
C143 H113 0.949 . S
C143 C138 1.382 . S
C143 C142 1.392 . S
H144 C163 0.949 . S
H145 C164 0.950 . S
H146 C166 0.950 . S
H147 C167 0.950 . S
H148 C169 0.950 . S
H149 C172 0.950 . S
H150 C173 0.950 . S
H151 C175 0.951 . S
H152 C176 0.949 . S
H153 C178 0.949 . S
H154 C179 0.950 . S
H155 C181 0.950 . S
H156 C182 0.950 . S
H157 C184 0.950 . S
H158 C187 0.950 . S
H159 C188 0.950 . S
H160 C190 0.951 . S
H161 C191 0.949 . S
C162 C163 1.376 . S
C162 C167 1.386 . S
C162 C168 1.483 . S
C163 H144 0.949 . S
C163 C162 1.376 . S
C163 C164 1.397 . S
C164 H145 0.950 . S
C164 C163 1.397 . S
C164 C165 1.391 . S
C165 C164 1.391 . S
C165 C166 1.405 . S
C166 H146 0.950 . S
C166 C165 1.405 . S
C166 C167 1.367 . S
C167 H147 0.950 . S
C167 C162 1.386 . S
C167 C166 1.367 . S
C168 C162 1.483 . S
C168 C169 1.382 1_455 S
C168 C170 1.403 . S
C169 H148 0.950 . S
C169 C168 1.382 1_655 S
C169 C185 1.411 . S
C170 C168 1.403 . S
C170 C171 1.489 . S
C170 C184 1.411 . S
C171 C170 1.489 . S
C171 C172 1.383 . S
C171 C176 1.382 . S
C172 H149 0.950 . S
C172 C171 1.383 . S
C172 C173 1.395 . S
C173 H150 0.950 . S
C173 C172 1.395 . S
C173 C174 1.288 . S
C174 C173 1.288 . S
C174 C175 1.392 . S
C175 H151 0.951 . S
C175 C174 1.392 . S
C175 C176 1.392 . S
C176 H152 0.949 . S
C176 C171 1.382 . S
C176 C175 1.392 . S
C177 C178 1.376 . S
C177 C182 1.386 . S
C177 C183 1.483 . S
C178 H153 0.949 . S
C178 C177 1.376 . S
C178 C179 1.397 . S
C179 H154 0.950 . S
C179 C178 1.397 . S
C179 C180 1.391 . S
C180 C179 1.391 . S
C180 C181 1.405 . S
C181 H155 0.950 . S
C181 C180 1.405 . S
C181 C182 1.367 . S
C182 H156 0.950 . S
C182 C177 1.386 . S
C182 C181 1.367 . S
C183 C177 1.483 . S
C183 C184 1.382 1_655 S
C183 C185 1.403 . S
C184 H157 0.950 . S
C184 C170 1.411 . S
C184 C183 1.382 1_455 S
C185 C169 1.411 . S
C185 C183 1.403 . S
C185 C186 1.489 . S
C186 C185 1.489 . S
C186 C187 1.383 . S
C186 C191 1.382 . S
C187 H158 0.950 . S
C187 C186 1.383 . S
C187 C188 1.395 . S
C188 H159 0.950 . S
C188 C187 1.395 . S
C188 C189 1.288 . S
C189 C188 1.288 . S
C189 C190 1.392 . S
C190 H160 0.951 . S
C190 C189 1.392 . S
C190 C191 1.392 . S
C191 H161 0.949 . S
C191 C186 1.382 . S
C191 C190 1.392 . S
H192 C211 0.949 . S
H193 C212 0.950 . S
H194 C214 0.950 . S
H195 C215 0.950 1_556 S
H196 C217 0.950 . S
H197 C220 0.950 . S
H198 C221 0.950 . S
H199 C223 0.951 . S
H200 C224 0.949 . S
H201 C226 0.949 . S
H202 C227 0.950 . S
H203 C229 0.950 . S
H204 C230 0.950 1_554 S
H205 C232 0.950 . S
H206 C235 0.950 . S
H207 C236 0.950 . S
H208 C238 0.951 . S
H209 C239 0.949 . S
C210 C211 1.376 . S
C210 C215 1.386 . S
C210 C216 1.483 . S
C211 H192 0.949 . S
C211 C210 1.376 . S
C211 C212 1.397 . S
C212 H193 0.950 . S
C212 C211 1.397 . S
C212 C213 1.391 . S
C213 C212 1.391 . S
C213 C214 1.405 . S
C214 H194 0.950 . S
C214 C213 1.405 . S
C214 C215 1.367 . S
C215 H195 0.950 1_554 S
C215 C210 1.386 . S
C215 C214 1.367 . S
C216 C210 1.483 . S
C216 C217 1.382 . S
C216 C218 1.403 1_554 S
C217 H196 0.950 . S
C217 C216 1.382 . S
C217 C233 1.411 1_545 S
C218 C216 1.403 1_556 S
C218 C219 1.489 . S
C218 C232 1.411 1_545 S
C219 C218 1.489 . S
C219 C220 1.383 . S
C219 C224 1.382 . S
C220 H197 0.950 . S
C220 C219 1.383 . S
C220 C221 1.395 . S
C221 H198 0.950 . S
C221 C220 1.395 . S
C221 C222 1.288 . S
C222 C221 1.288 . S
C222 C223 1.392 . S
C223 H199 0.951 . S
C223 C222 1.392 . S
C223 C224 1.392 . S
C224 H200 0.949 . S
C224 C219 1.382 . S
C224 C223 1.392 . S
C225 C226 1.376 . S
C225 C230 1.386 . S
C225 C231 1.483 . S
C226 H201 0.949 . S
C226 C225 1.376 . S
C226 C227 1.397 . S
C227 H202 0.950 . S
C227 C226 1.397 . S
C227 C228 1.391 . S
C228 C227 1.391 . S
C228 C229 1.405 . S
C229 H203 0.950 . S
C229 C228 1.405 . S
C229 C230 1.367 . S
C230 H204 0.950 1_556 S
C230 C225 1.386 . S
C230 C229 1.367 . S
C231 C225 1.483 . S
C231 C232 1.382 . S
C231 C233 1.403 1_556 S
C232 H205 0.950 . S
C232 C218 1.411 1_565 S
C232 C231 1.382 . S
C233 C217 1.411 1_565 S
C233 C231 1.403 1_554 S
C233 C234 1.489 . S
C234 C233 1.489 . S
C234 C235 1.383 . S
C234 C239 1.382 . S
C235 H206 0.950 . S
C235 C234 1.383 . S
C235 C236 1.395 . S
C236 H207 0.950 . S
C236 C235 1.395 . S
C236 C237 1.288 . S
C237 C236 1.288 . S
C237 C238 1.392 . S
C238 H208 0.951 . S
C238 C237 1.392 . S
C238 C239 1.392 . S
C239 H209 0.949 . S
C239 C234 1.382 . S
C239 C238 1.392 . S
H240 C259 0.949 . S
H241 C260 0.950 . S
H242 C262 0.950 . S
H243 C263 0.950 . S
H244 C265 0.950 . S
H245 C268 0.950 . S
H246 C269 0.950 . S
H247 C271 0.951 . S
H248 C272 0.949 . S
H249 C274 0.949 . S
H250 C275 0.950 1_556 S
H251 C277 0.950 . S
H252 C278 0.950 . S
H253 C280 0.950 . S
H254 C283 0.950 . S
H255 C284 0.950 . S
H256 C286 0.951 . S
H257 C287 0.949 . S
C258 C259 1.376 . S
C258 C263 1.386 . S
C258 C264 1.483 . S
C259 H240 0.949 . S
C259 C258 1.376 . S
C259 C260 1.397 . S
C260 H241 0.950 . S
C260 C259 1.397 . S
C260 C261 1.391 . S
C261 C260 1.391 . S
C261 C262 1.405 . S
C262 H242 0.950 . S
C262 C261 1.405 . S
C262 C263 1.367 . S
C263 H243 0.950 . S
C263 C258 1.386 . S
C263 C262 1.367 . S
C264 C258 1.483 . S
C264 C265 1.382 . S
C264 C266 1.403 . S
C265 H244 0.950 . S
C265 C264 1.382 . S
C265 C281 1.411 . S
C266 C264 1.403 . S
C266 C267 1.489 . S
C266 C280 1.411 . S
C267 C266 1.489 . S
C267 C268 1.383 . S
C267 C272 1.382 . S
C268 H245 0.950 . S
C268 C267 1.383 . S
C268 C269 1.395 . S
C269 H246 0.950 . S
C269 C268 1.395 . S
C269 C270 1.288 . S
C270 C269 1.288 . S
C270 C271 1.392 . S
C271 H247 0.951 . S
C271 C270 1.392 . S
C271 C272 1.392 . S
C272 H248 0.949 . S
C272 C267 1.382 . S
C272 C271 1.392 . S
C273 C274 1.376 . S
C273 C278 1.386 . S
C273 C279 1.483 . S
C274 H249 0.949 . S
C274 C273 1.376 . S
C274 C275 1.397 . S
C275 H250 0.950 1_554 S
C275 C274 1.397 . S
C275 C276 1.391 . S
C276 C275 1.391 . S
C276 C277 1.405 . S
C277 H251 0.950 . S
C277 C276 1.405 . S
C277 C278 1.367 . S
C278 H252 0.950 . S
C278 C273 1.386 . S
C278 C277 1.367 . S
C279 C273 1.483 . S
C279 C280 1.382 . S
C279 C281 1.403 . S
C280 H253 0.950 . S
C280 C266 1.411 . S
C280 C279 1.382 . S
C281 C265 1.411 . S
C281 C279 1.403 . S
C281 C282 1.489 . S
C282 C281 1.489 . S
C282 C283 1.383 . S
C282 C287 1.382 . S
C283 H254 0.950 . S
C283 C282 1.383 . S
C283 C284 1.395 . S
C284 H255 0.950 . S
C284 C283 1.395 . S
C284 C285 1.288 . S
C285 C284 1.288 . S
C285 C286 1.392 . S
C286 H256 0.951 . S
C286 C285 1.392 . S
C286 C287 1.392 . S
C287 H257 0.949 . S
C287 C282 1.382 . S
C287 C286 1.392 . S
C288 O289 1.306 . S
C288 O291 1.160 . S
O289 C288 1.306 . S
O289 Cd290 2.228 . S
Cd290 O289 2.228 . S
Cd290 O294 2.273 . S
Cd290 O298 2.277 . S
O291 C288 1.160 . S
O291 Cd292 2.203 . S
Cd292 O291 2.203 . S
Cd292 O294 2.411 . S
Cd292 O295 2.333 . S
Cd292 O296 2.352 . S
Cd292 O300 2.277 . S
Cd292 O301 2.356 . S
C293 O298 1.209 . S
C293 O300 1.226 . S
O294 Cd290 2.273 . S
O294 Cd292 2.411 . S
O294 C297 1.320 . S
O295 Cd292 2.333 . S
O295 C297 1.214 . S
O296 Cd292 2.352 . S
O296 C299 1.258 . S
C297 O294 1.320 . S
C297 O295 1.214 . S
O298 Cd290 2.277 . S
O298 C293 1.209 . S
C299 O296 1.258 . S
C299 O301 1.282 . S
O300 Cd292 2.277 . S
O300 C293 1.226 . S
O301 Cd292 2.356 . S
O301 C299 1.282 . S
C302 O303 1.306 . S
C302 O305 1.160 . S
O303 C302 1.306 . S
O303 Cd304 2.228 . S
Cd304 O303 2.228 . S
Cd304 O308 2.273 . S
Cd304 O312 2.277 . S
O305 C302 1.160 . S
O305 Cd306 2.203 . S
Cd306 O305 2.203 . S
Cd306 O308 2.411 . S
Cd306 O309 2.333 . S
Cd306 O310 2.352 . S
Cd306 O314 2.277 . S
Cd306 O315 2.356 . S
C307 O312 1.209 . S
C307 O314 1.226 . S
O308 Cd304 2.273 . S
O308 Cd306 2.411 . S
O308 C311 1.320 . S
O309 Cd306 2.333 . S
O309 C311 1.214 . S
O310 Cd306 2.352 . S
O310 C313 1.258 . S
C311 O308 1.320 . S
C311 O309 1.214 . S
O312 Cd304 2.277 . S
O312 C307 1.209 . S
C313 O310 1.258 . S
C313 O315 1.282 . S
O314 Cd306 2.277 . S
O314 C307 1.226 . S
O315 Cd306 2.356 . S
O315 C313 1.282 . S
C316 O317 1.306 . S
C316 O319 1.160 . S
O317 C316 1.306 . S
O317 Cd318 2.228 . S
Cd318 O317 2.228 . S
Cd318 O322 2.273 . S
Cd318 O326 2.277 . S
O319 C316 1.160 . S
O319 Cd320 2.203 . S
Cd320 O319 2.203 . S
Cd320 O322 2.411 . S
Cd320 O323 2.333 . S
Cd320 O324 2.352 . S
Cd320 O328 2.277 . S
Cd320 O329 2.356 . S
C321 O326 1.209 . S
C321 O328 1.226 . S
O322 Cd318 2.273 . S
O322 Cd320 2.411 . S
O322 C325 1.320 . S
O323 Cd320 2.333 . S
O323 C325 1.214 . S
O324 Cd320 2.352 . S
O324 C327 1.258 . S
C325 O322 1.320 . S
C325 O323 1.214 . S
O326 Cd318 2.277 . S
O326 C321 1.209 . S
C327 O324 1.258 . S
C327 O329 1.282 . S
O328 Cd320 2.277 . S
O328 C321 1.226 . S
O329 Cd320 2.356 . S
O329 C327 1.282 . S
C330 O331 1.306 . S
C330 O333 1.160 . S
O331 C330 1.306 . S
O331 Cd332 2.228 . S
Cd332 O331 2.228 . S
Cd332 O336 2.273 . S
Cd332 O340 2.277 . S
O333 C330 1.160 . S
O333 Cd334 2.203 . S
Cd334 O333 2.203 . S
Cd334 O336 2.411 . S
Cd334 O337 2.333 . S
Cd334 O338 2.352 . S
Cd334 O342 2.277 . S
Cd334 O343 2.356 . S
C335 O340 1.209 . S
C335 O342 1.226 . S
O336 Cd332 2.273 . S
O336 Cd334 2.411 . S
O336 C339 1.320 . S
O337 Cd334 2.333 . S
O337 C339 1.214 . S
O338 Cd334 2.352 . S
O338 C341 1.258 . S
C339 O336 1.320 . S
C339 O337 1.214 . S
O340 Cd332 2.277 . S
O340 C335 1.209 . S
C341 O338 1.258 . S
C341 O343 1.282 . S
O342 Cd334 2.277 . S
O342 C335 1.226 . S
O343 Cd334 2.356 . S
O343 C341 1.282 . S
C344 O345 1.306 . S
C344 O347 1.160 . S
O345 C344 1.306 . S
O345 Cd346 2.228 . S
Cd346 O345 2.228 . S
Cd346 O350 2.273 . S
Cd346 O354 2.277 . S
O347 C344 1.160 . S
O347 Cd348 2.203 . S
Cd348 O347 2.203 . S
Cd348 O350 2.411 . S
Cd348 O351 2.333 . S
Cd348 O352 2.352 . S
Cd348 O356 2.277 . S
Cd348 O357 2.356 . S
C349 O354 1.209 . S
C349 O356 1.226 . S
O350 Cd346 2.273 . S
O350 Cd348 2.411 . S
O350 C353 1.320 . S
O351 Cd348 2.333 . S
O351 C353 1.214 . S
O352 Cd348 2.352 . S
O352 C355 1.258 . S
C353 O350 1.320 . S
C353 O351 1.214 . S
O354 Cd346 2.277 . S
O354 C349 1.209 . S
C355 O352 1.258 . S
C355 O357 1.282 . S
O356 Cd348 2.277 . S
O356 C349 1.226 . S
O357 Cd348 2.356 . S
O357 C355 1.282 . S
C358 O359 1.306 . S
C358 O361 1.160 . S
O359 C358 1.306 . S
O359 Cd360 2.228 . S
Cd360 O359 2.228 . S
Cd360 O364 2.273 . S
Cd360 O368 2.277 . S
O361 C358 1.160 . S
O361 Cd362 2.203 . S
Cd362 O361 2.203 . S
Cd362 O364 2.411 . S
Cd362 O365 2.333 . S
Cd362 O366 2.352 . S
Cd362 O370 2.277 . S
Cd362 O371 2.356 . S
C363 O368 1.209 . S
C363 O370 1.226 . S
O364 Cd360 2.273 . S
O364 Cd362 2.411 . S
O364 C367 1.320 . S
O365 Cd362 2.333 . S
O365 C367 1.214 . S
O366 Cd362 2.352 . S
O366 C369 1.258 . S
C367 O364 1.320 . S
C367 O365 1.214 . S
O368 Cd360 2.277 . S
O368 C363 1.209 . S
C369 O366 1.258 . S
C369 O371 1.282 . S
O370 Cd362 2.277 . S
O370 C363 1.226 . S
O371 Cd362 2.356 . S
O371 C369 1.282 . S
C358 C45 1.954 . S
C84 C299 1.942 . S
C126 C302 1.819 . S
C189 C316 1.953 . S
C341 C228 1.943 . S
C270 C344 1.818 . S
C69 C313 1.829 . S
C141 C327 1.918 . S
C174 C330 1.749 . S
C355 C213 1.830 . S
C369 C285 1.917 . S
C288 C30 1.750 . S
C36 C311 1.514 . S
C93 C325 1.479 . S
C335 C117 1.505 . S
C180 C353 1.515 1_556 S
C367 C237 1.479 . S
C293 C261 1.505 . S
C363 C78 1.515 . S
C132 C297 1.509 . S
C307 C165 1.533 . S
C222 C321 1.515 . S
C276 C339 1.509 1_554 S
C21 C349 1.533 . S
