# Generated by pormake.
# Topology nom, (4,4)-cn, num edge types: 1
# Building blocks:
#     Node 0, Type 0, BuildingBlock: NAWXER_clean_linker_0, # of connection points: 4
#     Node 1, Type 0, BuildingBlock: NAWXER_clean_linker_0, # of connection points: 4
#     Node 2, Type 0, BuildingBlock: NAWXER_clean_linker_0, # of connection points: 4
#     Node 3, Type 0, BuildingBlock: NAWXER_clean_linker_0, # of connection points: 4
#     Node 4, Type 0, BuildingBlock: NAWXER_clean_linker_0, # of connection points: 4
#     Node 5, Type 0, BuildingBlock: NAWXER_clean_linker_0, # of connection points: 4
#     Node 6, Type 1, BuildingBlock: CEKHIL_clean_sbu_0, # of connection points: 4
#     Node 7, Type 1, BuildingBlock: CEKHIL_clean_sbu_0, # of connection points: 4
#     Node 8, Type 1, BuildingBlock: CEKHIL_clean_sbu_0, # of connection points: 4
#     Node 9, Type 1, BuildingBlock: CEKHIL_clean_sbu_0, # of connection points: 4
#     Node 10, Type 1, BuildingBlock: CEKHIL_clean_sbu_0, # of connection points: 4
#     Node 11, Type 1, BuildingBlock: CEKHIL_clean_sbu_0, # of connection points: 4
#     Edge 12, Type (0, 1), BuildingBlock: ZUJKAS_clean_linker_0, # of connection points: 2
#     Edge 13, Type (0, 1), BuildingBlock: ZUJKAS_clean_linker_0, # of connection points: 2
#     Edge 14, Type (0, 1), BuildingBlock: ZUJKAS_clean_linker_0, # of connection points: 2
#     Edge 15, Type (0, 1), BuildingBlock: ZUJKAS_clean_linker_0, # of connection points: 2
#     Edge 16, Type (0, 1), BuildingBlock: ZUJKAS_clean_linker_0, # of connection points: 2
#     Edge 17, Type (0, 1), BuildingBlock: ZUJKAS_clean_linker_0, # of connection points: 2
#     Edge 18, Type (0, 1), BuildingBlock: ZUJKAS_clean_linker_0, # of connection points: 2
#     Edge 19, Type (0, 1), BuildingBlock: ZUJKAS_clean_linker_0, # of connection points: 2
#     Edge 20, Type (0, 1), BuildingBlock: ZUJKAS_clean_linker_0, # of connection points: 2
#     Edge 21, Type (0, 1), BuildingBlock: ZUJKAS_clean_linker_0, # of connection points: 2
#     Edge 22, Type (0, 1), BuildingBlock: ZUJKAS_clean_linker_0, # of connection points: 2
#     Edge 23, Type (0, 1), BuildingBlock: ZUJKAS_clean_linker_0, # of connection points: 2
#     Edge 24, Type (0, 1), BuildingBlock: ZUJKAS_clean_linker_0, # of connection points: 2
#     Edge 25, Type (0, 1), BuildingBlock: ZUJKAS_clean_linker_0, # of connection points: 2
#     Edge 26, Type (0, 1), BuildingBlock: ZUJKAS_clean_linker_0, # of connection points: 2
#     Edge 27, Type (0, 1), BuildingBlock: ZUJKAS_clean_linker_0, # of connection points: 2
#     Edge 28, Type (0, 1), BuildingBlock: ZUJKAS_clean_linker_0, # of connection points: 2
#     Edge 29, Type (0, 1), BuildingBlock: ZUJKAS_clean_linker_0, # of connection points: 2
#     Edge 30, Type (0, 1), BuildingBlock: ZUJKAS_clean_linker_0, # of connection points: 2
#     Edge 31, Type (0, 1), BuildingBlock: ZUJKAS_clean_linker_0, # of connection points: 2
#     Edge 32, Type (0, 1), BuildingBlock: ZUJKAS_clean_linker_0, # of connection points: 2
#     Edge 33, Type (0, 1), BuildingBlock: ZUJKAS_clean_linker_0, # of connection points: 2
#     Edge 34, Type (0, 1), BuildingBlock: ZUJKAS_clean_linker_0, # of connection points: 2
#     Edge 35, Type (0, 1), BuildingBlock: ZUJKAS_clean_linker_0, # of connection points: 2
# Relax obj value: 0.006
# Max RMSD: 0.109
# Mean RMSD: 0.075
data_MOF--net-nom--node1-CEKHIL_clean_sbu_0--node2-NAWXER_clean_linker_0--edge1-ZUJKAS_clean_linker_0
_symmetry_space_group_name_H-M    P1
_symmetry_Int_Tables_number       1
_symmetry_cell_setting            triclinic
loop_
_symmetry_equiv_pos_as_xyz
'x, y, z'
_cell_length_a     65.843277
_cell_length_b     65.141106
_cell_length_c     72.127807
_cell_angle_alpha  89.995832
_cell_angle_beta   90.004491
_cell_angle_gamma 121.09439
loop_
_atom_site_label
_atom_site_type_symbol
_atom_site_fract_x
_atom_site_fract_y
_atom_site_fract_z
_atom_type_partial_charge
C0 C 0.92582 0.52253 0.3444 0.0
C1 C 0.91194 0.50052 0.35365 0.0
C2 C 0.94944 0.53082 0.33997 0.0
C3 C 0.95988 0.51753 0.34493 0.0
C4 C 0.92266 0.48738 0.35878 0.0
C5 C 0.9465 0.49598 0.35466 0.0
C6 C 0.98476 0.52633 0.33983 0.0
C7 C 0.94219 0.49139 0.28884 0.0
C8 C 0.9457 0.5071 0.27415 0.0
C9 C 0.95718 0.49934 0.30423 0.0
C10 C 0.976 0.52322 0.30537 0.0
C11 C 0.96461 0.53104 0.27531 0.0
C12 C 0.97971 0.53896 0.29072 0.0
C13 C 0.99259 0.53126 0.32128 0.0
C14 C 0.09671 0.56562 0.32607 0.0
C15 C 0.10599 0.58672 0.31544 0.0
C16 C 0.07281 0.55307 0.33131 0.0
C17 C 0.05786 0.56152 0.32613 0.0
C18 C 0.0908 0.59488 0.31014 0.0
C19 C 0.06697 0.58231 0.31531 0.0
C20 C 0.03259 0.54878 0.33152 0.0
C21 C 0.07591 0.57693 0.38364 0.0
C22 C 0.07115 0.55919 0.39692 0.0
C23 C 0.06076 0.57182 0.36851 0.0
C24 C 0.04089 0.5487 0.36608 0.0
C25 C 0.05093 0.53625 0.39474 0.0
C26 C 0.03595 0.53108 0.37948 0.0
C27 C 0.02465 0.54285 0.35008 0.0
H28 H 0.91856 0.53355 0.34066 0.0
H29 H 0.95965 0.54774 0.33271 0.0
H30 H 0.91256 0.47021 0.36566 0.0
H31 H 0.95431 0.48551 0.3586 0.0
H32 H 0.92824 0.4727 0.28824 0.0
H33 H 0.95441 0.48661 0.31504 0.0
H34 H 0.96774 0.54369 0.26434 0.0
H35 H 0.99424 0.55741 0.29124 0.0
H36 H 0.10782 0.55863 0.33013 0.0
H37 H 0.066 0.53676 0.33933 0.0
H38 H 0.09739 0.61124 0.30222 0.0
H39 H 0.05571 0.58909 0.31114 0.0
H40 H 0.09109 0.5949 0.38517 0.0
H41 H 0.0645 0.58604 0.3588 0.0
H42 H 0.04684 0.52222 0.40474 0.0
H43 H 0.02059 0.51319 0.37803 0.0
N44 N 0.00098 0.53193 0.35353 0.0
N45 N 0.01624 0.54265 0.31785 0.0
C46 C 0.42229 0.91224 0.49783 0.0
C47 C 0.43049 0.90265 0.51132 0.0
C48 C 0.43596 0.93632 0.49275 0.0
C49 C 0.45825 0.9513 0.50089 0.0
C50 C 0.45277 0.91774 0.51955 0.0
C51 C 0.46645 0.94187 0.51445 0.0
C52 C 0.47231 0.97708 0.4961 0.0
C53 C 0.4718 0.93755 0.44522 0.0
C54 C 0.45915 0.93928 0.43019 0.0
C55 C 0.47735 0.95253 0.46062 0.0
C56 C 0.47024 0.96947 0.46139 0.0
C57 C 0.45239 0.95654 0.43089 0.0
C58 C 0.45803 0.97159 0.44628 0.0
C59 C 0.47616 0.98549 0.47763 0.0
C60 C 0.53691 0.09302 0.48656 0.0
C61 C 0.52513 0.10001 0.47413 0.0
C62 C 0.52717 0.06885 0.49113 0.0
C63 C 0.50522 0.05134 0.4837 0.0
C64 C 0.50353 0.08235 0.4663 0.0
C65 C 0.49371 0.05827 0.47102 0.0
C66 C 0.49418 0.0257 0.48865 0.0
C67 C 0.50062 0.06608 0.54103 0.0
C68 C 0.51576 0.0648 0.55413 0.0
C69 C 0.49221 0.05042 0.52588 0.0
C70 C 0.49901 0.03339 0.52346 0.0
C71 C 0.52177 0.0471 0.552 0.0
C72 C 0.51338 0.03151 0.53686 0.0
C73 C 0.49122 0.01734 0.50713 0.0
H74 H 0.405 0.90128 0.49153 0.0
H75 H 0.42886 0.94334 0.48271 0.0
H76 H 0.45968 0.91088 0.52989 0.0
H77 H 0.4835 0.95317 0.52104 0.0
H78 H 0.47774 0.92484 0.44499 0.0
H79 H 0.4874 0.95102 0.47187 0.0
H80 H 0.4424 0.95821 0.41968 0.0
H81 H 0.45251 0.98464 0.44653 0.0
H82 H 0.55379 0.1062 0.49254 0.0
H83 H 0.53681 0.06388 0.50047 0.0
H84 H 0.49398 0.08722 0.45678 0.0
H85 H 0.47687 0.04505 0.46498 0.0
H86 H 0.49569 0.07951 0.54226 0.0
H87 H 0.48064 0.05181 0.51596 0.0
H88 H 0.53298 0.0453 0.56204 0.0
H89 H 0.51855 0.01826 0.53541 0.0
N90 N 0.48035 0.99334 0.51013 0.0
N91 N 0.48658 0.00943 0.47462 0.0
C92 C 0.52318 0.45202 0.60887 0.0
C93 C 0.50919 0.44223 0.59292 0.0
C94 C 0.51393 0.45688 0.62458 0.0
C95 C 0.49027 0.45139 0.62485 0.0
C96 C 0.48574 0.43729 0.59301 0.0
C97 C 0.47638 0.44181 0.60882 0.0
C98 C 0.4804 0.45705 0.64126 0.0
C99 C 0.49744 0.40284 0.662 0.0
C100 C 0.51506 0.41102 0.67576 0.0
C101 C 0.48789 0.41674 0.65666 0.0
C102 C 0.49598 0.43927 0.66479 0.0
C103 C 0.52295 0.43348 0.68402 0.0
C104 C 0.51341 0.44739 0.67865 0.0
C105 C 0.48518 0.45361 0.65977 0.0
C106 C 0.42915 0.4844 0.70587 0.0
C107 C 0.44693 0.50044 0.71813 0.0
C108 C 0.43494 0.47535 0.69048 0.0
C109 C 0.45865 0.48235 0.68697 0.0
C110 C 0.47059 0.50706 0.71468 0.0
C111 C 0.47633 0.49798 0.69934 0.0
C112 C 0.46531 0.47322 0.67074 0.0
C113 C 0.43566 0.51729 0.64874 0.0
C114 C 0.41457 0.50331 0.63862 0.0
C115 C 0.45029 0.5083 0.65316 0.0
C116 C 0.44408 0.48512 0.64759 0.0
C117 C 0.40867 0.48023 0.63286 0.0
C118 C 0.42338 0.47133 0.63718 0.0
C119 C 0.45901 0.47503 0.65236 0.0
H120 H 0.54145 0.4564 0.60906 0.0
H121 H 0.52546 0.46528 0.63638 0.0
H122 H 0.47455 0.42966 0.58091 0.0
H123 H 0.4582 0.43771 0.60854 0.0
H124 H 0.4906 0.38542 0.65564 0.0
H125 H 0.47388 0.40966 0.64639 0.0
H126 H 0.53664 0.44039 0.69455 0.0
H127 H 0.51974 0.4646 0.68525 0.0
H128 H 0.41071 0.47861 0.70828 0.0
H129 H 0.4209 0.4628 0.68138 0.0
H130 H 0.48478 0.51962 0.72367 0.0
H131 H 0.49472 0.50353 0.69695 0.0
H132 H 0.44102 0.53531 0.65309 0.0
H133 H 0.46648 0.51945 0.66087 0.0
H134 H 0.39246 0.46881 0.62527 0.0
H135 H 0.41831 0.45342 0.63271 0.0
N136 N 0.46699 0.4671 0.63833 0.0
N137 N 0.47796 0.46238 0.67374 0.0
C138 C 0.92119 0.41165 0.83252 0.0
C139 C 0.91237 0.41996 0.8185 0.0
C140 C 0.94505 0.42491 0.83763 0.0
C141 C 0.96055 0.44698 0.82907 0.0
C142 C 0.92794 0.44202 0.80989 0.0
C143 C 0.95181 0.45533 0.81507 0.0
C144 C 0.98614 0.46049 0.83371 0.0
C145 C 0.94816 0.46144 0.88474 0.0
C146 C 0.95037 0.44946 0.90012 0.0
C147 C 0.96264 0.46643 0.86919 0.0
C148 C 0.97942 0.45924 0.86856 0.0
C149 C 0.9676 0.44284 0.89964 0.0
C150 C 0.98203 0.44777 0.88405 0.0
C151 C 0.9948 0.46434 0.85209 0.0
C152 C 0.10112 0.52193 0.84268 0.0
C153 C 0.10755 0.50817 0.85348 0.0
C154 C 0.07727 0.5134 0.83864 0.0
C155 C 0.05949 0.49089 0.84521 0.0
C156 C 0.0896 0.48598 0.86046 0.0
C157 C 0.06581 0.4775 0.85645 0.0
C158 C 0.03424 0.48099 0.84057 0.0
C159 C 0.07319 0.48779 0.78732 0.0
C160 C 0.06994 0.50107 0.77353 0.0
C161 C 0.05866 0.47995 0.80305 0.0
C162 C 0.04115 0.48595 0.80554 0.0
C163 C 0.05187 0.50628 0.77572 0.0
C164 C 0.03765 0.49881 0.79156 0.0
C165 C 0.02572 0.47834 0.82219 0.0
H166 H 0.90967 0.39482 0.83951 0.0
H167 H 0.95146 0.41767 0.84808 0.0
H168 H 0.92181 0.44875 0.79884 0.0
H169 H 0.96351 0.47212 0.80807 0.0
H170 H 0.93503 0.46671 0.88459 0.0
H171 H 0.96074 0.47596 0.85767 0.0
H172 H 0.97011 0.43402 0.91138 0.0
H173 H 0.99509 0.44238 0.88402 0.0
H174 H 0.11454 0.53908 0.83707 0.0
H175 H 0.07274 0.52424 0.83023 0.0
H176 H 0.09393 0.47517 0.86911 0.0
H177 H 0.05233 0.46022 0.86185 0.0
H178 H 0.08677 0.48324 0.78581 0.0
H179 H 0.06111 0.46918 0.81321 0.0
H180 H 0.04906 0.51659 0.76534 0.0
H181 H 0.02409 0.5034 0.79302 0.0
N182 N 0.00197 0.46807 0.81953 0.0
N183 N 0.01845 0.47399 0.85479 0.0
C184 C 0.51366 0.919 0.98519 0.0
C185 C 0.49469 0.90784 0.97258 0.0
C186 C 0.52331 0.94304 0.98996 0.0
C187 C 0.51405 0.95638 0.9824 0.0
C188 C 0.48579 0.9214 0.9647 0.0
C189 C 0.49549 0.9455 0.9695 0.0
C190 C 0.52416 0.98183 0.98756 0.0
C191 C 0.48799 0.93836 0.038 0.0
C192 C 0.50267 0.94278 0.05346 0.0
C193 C 0.49626 0.95368 0.0227 0.0
C194 C 0.51962 0.97342 0.02231 0.0
C195 C 0.52582 0.96287 0.0533 0.0
C196 C 0.53421 0.97804 0.03786 0.0
C197 C 0.52852 0.98989 0.00614 0.0
C198 C 0.56911 0.0966 0.99923 0.0
C199 C 0.5894 0.10494 0.01042 0.0
C200 C 0.55535 0.07231 0.99453 0.0
C201 C 0.56178 0.05602 1.0008 0.0
C202 C 0.59529 0.0884 0.01711 0.0
C203 C 0.58157 0.0642 0.01241 0.0
C204 C 0.54812 0.03041 0.99557 0.0
C205 C 0.57932 0.07325 0.9434 0.0
C206 C 0.56235 0.06931 0.92983 0.0
C207 C 0.57318 0.05787 0.95862 0.0
C208 C 0.54978 0.03862 0.96082 0.0
C209 C 0.53916 0.04959 0.93174 0.0
C210 C 0.53295 0.0344 0.94708 0.0
C211 C 0.54273 0.02231 0.97701 0.0
H212 H 0.5213 0.90925 0.99117 0.0
H213 H 0.53813 0.95126 0.99951 0.0
H214 H 0.47111 0.91331 0.95503 0.0
H215 H 0.48822 0.95553 0.96337 0.0
H216 H 0.46989 0.92333 0.03792 0.0
H217 H 0.48424 0.95021 0.01126 0.0
H218 H 0.53751 0.96671 0.06504 0.0
H219 H 0.55218 0.9933 0.03801 0.0
H220 H 0.56411 0.10889 0.99386 0.0
H221 H 0.53983 0.06629 0.98589 0.0
H222 H 0.61049 0.09414 0.02608 0.0
H223 H 0.58667 0.05188 0.0176 0.0
H224 H 0.59745 0.08803 0.94208 0.0
H225 H 0.58675 0.061 0.96863 0.0
H226 H 0.52571 0.04613 0.9215 0.0
H227 H 0.51487 0.0195 0.94835 0.0
N228 N 0.53102 0.99831 0.97374 0.0
N229 N 0.54071 0.01388 0.00938 0.0
C230 C 0.5197 0.60395 0.16266 0.0
C231 C 0.50203 0.59589 0.17637 0.0
C232 C 0.52906 0.58989 0.15736 0.0
C233 C 0.52075 0.5673 0.16546 0.0
C234 C 0.49388 0.57337 0.1846 0.0
C235 C 0.50325 0.55927 0.17926 0.0
C236 C 0.53149 0.55289 0.1605 0.0
C237 C 0.49368 0.55432 0.10945 0.0
C238 C 0.50818 0.56579 0.09399 0.0
C239 C 0.50279 0.54911 0.12506 0.0
C240 C 0.52672 0.55556 0.12567 0.0
C241 C 0.53203 0.57185 0.09452 0.0
C242 C 0.54115 0.5667 0.11016 0.0
C243 C 0.53642 0.54962 0.14202 0.0
C244 C 0.5824 0.49031 0.15013 0.0
C245 C 0.60304 0.50424 0.13954 0.0
C246 C 0.5674 0.49892 0.1544 0.0
C247 C 0.57289 0.5217 0.14828 0.0
C248 C 0.60809 0.52675 0.13304 0.0
C249 C 0.5931 0.53532 0.13729 0.0
C250 C 0.55778 0.5316 0.15307 0.0
C251 C 0.58799 0.5226 0.20651 0.0
C252 C 0.57031 0.50627 0.2187 0.0
C253 C 0.58203 0.53166 0.19122 0.0
C254 C 0.55824 0.52437 0.18773 0.0
C255 C 0.54658 0.49943 0.21532 0.0
C256 C 0.54065 0.50851 0.20007 0.0
C257 C 0.55141 0.53333 0.17147 0.0
H258 H 0.52674 0.62142 0.15634 0.0
H259 H 0.54317 0.59694 0.14718 0.0
H260 H 0.48017 0.56656 0.19511 0.0
H261 H 0.49675 0.54203 0.18585 0.0
H262 H 0.47528 0.54949 0.10957 0.0
H263 H 0.49103 0.53982 0.13658 0.0
H264 H 0.54359 0.58029 0.08273 0.0
H265 H 0.55955 0.57152 0.11017 0.0
H266 H 0.57804 0.47293 0.15538 0.0
H267 H 0.5516 0.48786 0.16255 0.0
H268 H 0.62359 0.53772 0.12456 0.0
H269 H 0.59751 0.55282 0.13224 0.0
H270 H 0.60647 0.52858 0.20888 0.0
H271 H 0.59599 0.54438 0.18214 0.0
H272 H 0.53246 0.48668 0.22427 0.0
H273 H 0.52221 0.50275 0.19769 0.0
N274 N 0.53869 0.5441 0.17448 0.0
N275 N 0.54985 0.53961 0.13906 0.0
Co276 Co 0.62599 0.37879 0.40427 0.0
O277 O 0.64937 0.3785 0.38855 0.0
O278 O 0.65575 0.40899 0.40635 0.0
C279 C 0.61272 0.3422 0.41652 0.0
O280 O 0.60666 0.38501 0.42315 0.0
Co281 Co 0.57255 0.342 0.39895 0.0
O282 O 0.57011 0.35225 0.42432 0.0
C283 C 0.59688 0.38278 0.37308 0.0
C284 C 0.66411 0.39984 0.39477 0.0
C285 C 0.58621 0.37229 0.4309 0.0
O286 O 0.61559 0.3918 0.38329 0.0
O287 O 0.57835 0.3623 0.37631 0.0
O288 O 0.63165 0.36084 0.42306 0.0
O289 O 0.60361 0.34593 0.40196 0.0
Co290 Co 0.25316 0.62368 0.58554 0.0
O291 O 0.27592 0.62314 0.60189 0.0
O292 O 0.25223 0.59362 0.58292 0.0
C293 C 0.27771 0.66075 0.57424 0.0
O294 O 0.22838 0.61832 0.56607 0.0
Co295 Co 0.23732 0.66049 0.59149 0.0
O296 O 0.22141 0.64866 0.56718 0.0
C297 C 0.22071 0.61965 0.61705 0.0
C298 C 0.26912 0.60206 0.59521 0.0
C299 C 0.21865 0.62968 0.55965 0.0
O300 O 0.22853 0.60988 0.60587 0.0
O301 O 0.22445 0.64081 0.61465 0.0
O302 O 0.27802 0.64243 0.56749 0.0
O303 O 0.26425 0.6564 0.58853 0.0
Co304 Co 0.63637 0.25305 0.74029 0.0
O305 O 0.63692 0.27642 0.72368 0.0
O306 O 0.6072 0.25327 0.74252 0.0
C307 C 0.67318 0.27685 0.75172 0.0
O308 O 0.62991 0.22795 0.76005 0.0
Co309 Co 0.67115 0.23481 0.73522 0.0
O310 O 0.65923 0.21986 0.75984 0.0
C311 C 0.63078 0.21839 0.70961 0.0
C312 C 0.61611 0.2702 0.73012 0.0
C313 C 0.64058 0.21781 0.76701 0.0
O314 O 0.6221 0.22797 0.72012 0.0
O315 O 0.65111 0.22083 0.71245 0.0
O316 O 0.65546 0.27811 0.75825 0.0
O317 O 0.66847 0.26295 0.73755 0.0
Co318 Co 0.39172 0.62758 0.90436 0.0
O319 O 0.36816 0.62659 0.88802 0.0
O320 O 0.36219 0.59736 0.90712 0.0
C321 C 0.4047 0.66468 0.91542 0.0
O322 O 0.4112 0.62255 0.9239 0.0
Co323 Co 0.44511 0.66459 0.89871 0.0
O324 O 0.44842 0.65429 0.92381 0.0
C325 C 0.42096 0.62277 0.8738 0.0
C326 C 0.35366 0.60548 0.89479 0.0
C327 C 0.43212 0.63481 0.931 0.0
O328 O 0.40238 0.61379 0.88415 0.0
O329 O 0.43923 0.6436 0.87653 0.0
O330 O 0.38581 0.64629 0.92228 0.0
O331 O 0.41387 0.66036 0.90121 0.0
Co332 Co 0.76382 0.38382 0.08554 0.0
O333 O 0.74087 0.38445 0.10159 0.0
O334 O 0.76525 0.41412 0.08302 0.0
C335 C 0.73918 0.34696 0.07389 0.0
O336 O 0.78895 0.38915 0.06642 0.0
Co337 Co 0.77897 0.34647 0.09148 0.0
O338 O 0.79392 0.35751 0.06677 0.0
C339 C 0.79659 0.38767 0.1169 0.0
C340 C 0.7481 0.4057 0.09509 0.0
C341 C 0.79769 0.37707 0.0596 0.0
O342 O 0.78809 0.39717 0.10612 0.0
O343 O 0.79314 0.36665 0.11428 0.0
O344 O 0.73926 0.36549 0.06716 0.0
O345 O 0.75232 0.35098 0.08835 0.0
Co346 Co 0.38276 0.75554 0.24049 0.0
O347 O 0.38236 0.73258 0.2235 0.0
O348 O 0.41222 0.75585 0.2422 0.0
C349 C 0.34624 0.73101 0.25217 0.0
O350 O 0.38923 0.78027 0.26058 0.0
Co351 Co 0.34724 0.77302 0.23691 0.0
O352 O 0.35881 0.78661 0.26193 0.0
C353 C 0.38784 0.79167 0.21119 0.0
C354 C 0.4033 0.73898 0.22975 0.0
C355 C 0.37806 0.78934 0.26842 0.0
O356 O 0.39635 0.78095 0.22053 0.0
O357 O 0.36777 0.78947 0.21479 0.0
O358 O 0.36431 0.73014 0.25836 0.0
O359 O 0.35044 0.7451 0.23821 0.0
H360 H 0.14479 0.59565 0.33608 0.0
H361 H 0.18669 0.61971 0.32716 0.0
H362 H 0.16659 0.63317 0.27373 0.0
H363 H 0.12476 0.60863 0.2822 0.0
H364 H 0.20944 0.61371 0.29109 0.0
H365 H 0.21417 0.70093 0.30013 0.0
H366 H 0.19249 0.67394 0.31197 0.0
H367 H 0.18892 0.67776 0.2878 0.0
C368 C 0.14925 0.60342 0.32233 0.0
C369 C 0.13139 0.60035 0.30991 0.0
C370 C 0.17318 0.61725 0.31732 0.0
C371 C 0.1796 0.62835 0.29991 0.0
C372 C 0.1619 0.62494 0.28734 0.0
H373 H 0.30512 0.72665 0.2397 0.0
H374 H 0.26526 0.70139 0.25241 0.0
C375 C 0.13803 0.61102 0.29226 0.0
C376 C 0.20481 0.6438 0.29477 0.0
H377 H 0.24724 0.70204 0.28623 0.0
C378 C 0.21787 0.63305 0.29017 0.0
C379 C 0.21552 0.66893 0.29355 0.0
C380 C 0.20219 0.68123 0.29872 0.0
C381 C 0.24132 0.64681 0.28373 0.0
C382 C 0.25203 0.67202 0.28233 0.0
C383 C 0.23901 0.68274 0.28731 0.0
C384 C 0.27637 0.68753 0.27499 0.0
C385 C 0.25403 0.63415 0.2778 0.0
C386 C 0.29591 0.68844 0.28366 0.0
C387 C 0.3187 0.70274 0.27634 0.0
C388 C 0.32235 0.71659 0.26036 0.0
C389 C 0.30286 0.71613 0.252 0.0
C390 C 0.28008 0.70172 0.25925 0.0
H391 H 0.24147 0.61475 0.27526 0.0
H392 H 0.26451 0.64228 0.26499 0.0
H393 H 0.2664 0.63578 0.28894 0.0
H394 H 0.29354 0.6781 0.29609 0.0
H395 H 0.33344 0.70289 0.28316 0.0
H396 H 0.54405 0.13847 0.49765 0.0
H397 H 0.55949 0.18063 0.48967 0.0
H398 H 0.54416 0.16139 0.432 0.0
H399 H 0.52891 0.11931 0.4398 0.0
H400 H 0.59186 0.20283 0.44112 0.0
H401 H 0.51657 0.20763 0.47133 0.0
H402 H 0.52997 0.19519 0.48567 0.0
H403 H 0.5141 0.17954 0.46518 0.0
C404 C 0.54415 0.14328 0.48326 0.0
C405 C 0.53519 0.12561 0.46935 0.0
C406 C 0.55279 0.16729 0.47876 0.0
C407 C 0.5527 0.17397 0.46029 0.0
C408 C 0.54422 0.15649 0.44634 0.0
H409 H 0.5719 0.30102 0.40692 0.0
H410 H 0.55747 0.26052 0.41879 0.0
C411 C 0.53543 0.13249 0.45083 0.0
C412 C 0.56149 0.19923 0.4554 0.0
H413 H 0.54797 0.24317 0.45831 0.0
C414 C 0.58238 0.21173 0.44494 0.0
C415 C 0.54889 0.2106 0.46032 0.0
C416 C 0.52603 0.19761 0.47115 0.0
C417 C 0.59104 0.23544 0.43926 0.0
C418 C 0.57848 0.24684 0.44422 0.0
C419 C 0.55758 0.23434 0.45466 0.0
C420 C 0.58644 0.2715 0.43808 0.0
C421 C 0.61327 0.24799 0.42764 0.0
C422 C 0.60721 0.29103 0.44533 0.0
C423 C 0.61543 0.31416 0.43866 0.0
C424 C 0.60304 0.31807 0.42458 0.0
C425 C 0.58187 0.29853 0.41772 0.0
C426 C 0.57359 0.27542 0.42448 0.0
H427 H 0.6187 0.23545 0.42251 0.0
H428 H 0.61064 0.25696 0.41557 0.0
H429 H 0.62797 0.26202 0.43611 0.0
H430 H 0.61722 0.28831 0.45595 0.0
H431 H 0.63177 0.32889 0.44424 0.0
H432 H 0.4035 0.53064 0.66051 0.0
H433 H 0.37743 0.54589 0.65298 0.0
H434 H 0.36304 0.51184 0.59943 0.0
H435 H 0.38969 0.49717 0.60649 0.0
H436 H 0.38222 0.57492 0.61739 0.0
H437 H 0.29621 0.48918 0.62667 0.0
H438 H 0.32302 0.49505 0.63831 0.0
H439 H 0.31946 0.48856 0.61397 0.0
C440 C 0.39503 0.5266 0.64704 0.0
C441 C 0.39872 0.51263 0.63412 0.0
C442 C 0.38 0.53517 0.64284 0.0
C443 C 0.36819 0.52974 0.62575 0.0
C444 C 0.3718 0.51591 0.6128 0.0
H445 H 0.26676 0.56316 0.57837 0.0
H446 H 0.29053 0.54506 0.5857 0.0
C447 C 0.38696 0.50748 0.61691 0.0
C448 C 0.35258 0.53912 0.62126 0.0
H449 H 0.29451 0.52268 0.61653 0.0
C450 C 0.36304 0.56356 0.61723 0.0
C451 C 0.32764 0.52412 0.62086 0.0
C452 C 0.31574 0.49775 0.62525 0.0
C453 C 0.34916 0.57347 0.61268 0.0
C454 C 0.32411 0.55861 0.61274 0.0
C455 C 0.31368 0.53406 0.61659 0.0
C456 C 0.30853 0.56837 0.60904 0.0
C457 C 0.36152 0.59966 0.60748 0.0
C458 C 0.31018 0.58688 0.62011 0.0
C459 C 0.29683 0.59733 0.61587 0.0
C460 C 0.28124 0.58919 0.60067 0.0
C461 C 0.27866 0.56981 0.59016 0.0
C462 C 0.29224 0.5595 0.59431 0.0
H463 H 0.37997 0.60646 0.6027 0.0
H464 H 0.35179 0.6028 0.59635 0.0
H465 H 0.36243 0.61028 0.61982 0.0
H466 H 0.3221 0.59353 0.63188 0.0
H467 H 0.299 0.61204 0.62437 0.0
H468 H 0.88596 0.37135 0.81363 0.0
H469 H 0.84481 0.34726 0.80325 0.0
H470 H 0.84073 0.41106 0.79907 0.0
H471 H 0.88185 0.43534 0.80972 0.0
H472 H 0.80311 0.34312 0.81906 0.0
H473 H 0.82013 0.37938 0.74727 0.0
H474 H 0.8436 0.38324 0.76252 0.0
H475 H 0.83063 0.40144 0.76541 0.0
C476 C 0.87626 0.38026 0.81071 0.0
C477 C 0.88722 0.4053 0.81248 0.0
C478 C 0.85279 0.36647 0.8047 0.0
C479 C 0.83987 0.37743 0.8002 0.0
C480 C 0.85057 0.40234 0.80217 0.0
H481 H 0.68759 0.30698 0.78156 0.0
H482 H 0.72787 0.33109 0.79398 0.0
C483 C 0.87406 0.41617 0.80822 0.0
C484 C 0.8152 0.3627 0.79341 0.0
H485 H 0.78011 0.35271 0.75559 0.0
C486 C 0.79803 0.3452 0.8052 0.0
C487 C 0.80877 0.36533 0.77525 0.0
C488 C 0.82674 0.38321 0.76178 0.0
C489 C 0.77447 0.33034 0.79934 0.0
C490 C 0.76796 0.33326 0.78129 0.0
C491 C 0.78517 0.35065 0.76946 0.0
C492 C 0.74346 0.31816 0.77424 0.0
C493 C 0.75685 0.31132 0.81235 0.0
C494 C 0.73897 0.30314 0.75892 0.0
C495 C 0.71604 0.28941 0.75178 0.0
C496 C 0.69722 0.29063 0.75976 0.0
C497 C 0.70173 0.30561 0.77517 0.0
C498 C 0.72469 0.31931 0.78232 0.0
H499 H 0.76577 0.30782 0.82394 0.0
H500 H 0.7453 0.31737 0.81836 0.0
H501 H 0.74536 0.29426 0.80482 0.0
H502 H 0.75327 0.30208 0.75246 0.0
H503 H 0.71311 0.27806 0.73989 0.0
H504 H 0.48085 0.8871 0.93828 0.0
H505 H 0.46468 0.84501 0.93012 0.0
H506 H 0.46957 0.8286 0.98727 0.0
H507 H 0.48547 0.8706 0.99562 0.0
H508 H 0.48867 0.8101 0.96171 0.0
H509 H 0.39795 0.78761 0.94187 0.0
H510 H 0.42139 0.8137 0.93055 0.0
H511 H 0.41777 0.81394 0.95523 0.0
C512 C 0.47816 0.87448 0.94917 0.0
C513 C 0.48441 0.88221 0.96761 0.0
C514 C 0.46895 0.85045 0.94447 0.0
C515 C 0.46571 0.83369 0.95813 0.0
C516 C 0.47193 0.84129 0.97654 0.0
H517 H 0.38723 0.67873 0.94383 0.0
H518 H 0.40264 0.71952 0.95536 0.0
C519 C 0.48111 0.8653 0.98126 0.0
C520 C 0.45647 0.80834 0.95312 0.0
H521 H 0.40861 0.75882 0.93446 0.0
C522 C 0.47113 0.79883 0.95583 0.0
C523 C 0.43348 0.79364 0.94569 0.0
C524 C 0.41661 0.80261 0.9433 0.0
C525 C 0.46359 0.77511 0.95086 0.0
C526 C 0.44093 0.76069 0.9428 0.0
C527 C 0.42606 0.77002 0.94051 0.0
C528 C 0.43238 0.73594 0.93642 0.0
C529 C 0.47984 0.76562 0.95441 0.0
C530 C 0.44401 0.73172 0.92195 0.0
C531 C 0.43525 0.70847 0.91533 0.0
C532 C 0.41465 0.68907 0.92304 0.0
C533 C 0.40317 0.69332 0.93765 0.0
C534 C 0.41191 0.71659 0.94423 0.0
H535 H 0.49369 0.7766 0.96483 0.0
H536 H 0.46968 0.74676 0.95932 0.0
H537 H 0.48889 0.76608 0.94129 0.0
H538 H 0.4596 0.74648 0.91553 0.0
H539 H 0.44443 0.70576 0.90401 0.0
H540 H 0.59142 0.45905 0.12902 0.0
H541 H 0.61844 0.44475 0.12202 0.0
H542 H 0.67841 0.51531 0.13292 0.0
H543 H 0.65156 0.52961 0.14039 0.0
H544 H 0.65451 0.46236 0.09444 0.0
H545 H 0.69075 0.47066 0.16548 0.0
H546 H 0.66388 0.47086 0.16096 0.0
H547 H 0.69227 0.49718 0.15656 0.0
C548 C 0.61035 0.47145 0.13014 0.0
C549 C 0.61934 0.49545 0.13531 0.0
C550 C 0.62575 0.4633 0.12601 0.0
C551 C 0.65039 0.47893 0.12714 0.0
C552 C 0.65944 0.5029 0.13221 0.0
H553 H 0.75521 0.44809 0.08105 0.0
H554 H 0.73307 0.46783 0.0888 0.0
C555 C 0.64407 0.51108 0.13629 0.0
C556 C 0.66659 0.47017 0.12271 0.0
H557 H 0.70808 0.45986 0.14158 0.0
C558 C 0.6663 0.46187 0.10471 0.0
C559 C 0.68178 0.46943 0.13621 0.0
C560 C 0.68215 0.47731 0.15594 0.0
C561 C 0.68078 0.45276 0.09982 0.0
C562 C 0.69615 0.45223 0.11327 0.0
C563 C 0.69647 0.46057 0.13127 0.0
C564 C 0.71074 0.44147 0.10928 0.0
C565 C 0.67903 0.44311 0.08049 0.0
C566 C 0.70599 0.42059 0.11863 0.0
C567 C 0.71859 0.40936 0.11429 0.0
C568 C 0.73631 0.41889 0.10058 0.0
C569 C 0.74162 0.44029 0.09164 0.0
C570 C 0.72891 0.4515 0.09597 0.0
H571 H 0.66312 0.44053 0.07301 0.0
H572 H 0.69498 0.45596 0.07245 0.0
H573 H 0.67834 0.42572 0.08092 0.0
H574 H 0.6921 0.41262 0.12899 0.0
H575 H 0.71413 0.39296 0.12149 0.0
H576 H 0.40361 0.86342 0.48934 0.0
H577 H 0.37734 0.82186 0.49919 0.0
H578 H 0.39728 0.84264 0.55613 0.0
H579 H 0.42333 0.88431 0.54648 0.0
H580 H 0.39742 0.80061 0.5448 0.0
H581 H 0.31345 0.79684 0.52678 0.0
H582 H 0.33509 0.8068 0.50851 0.0
H583 H 0.3414 0.82474 0.52902 0.0
C584 C 0.40228 0.85919 0.50398 0.0
C585 C 0.41547 0.87721 0.51714 0.0
C586 C 0.38729 0.83544 0.50956 0.0
C587 C 0.38516 0.8293 0.52839 0.0
C588 C 0.39867 0.84708 0.54152 0.0
H589 H 0.27925 0.70161 0.58528 0.0
H590 H 0.30536 0.74235 0.57359 0.0
C591 C 0.41364 0.87084 0.53597 0.0
C592 C 0.36882 0.80432 0.53445 0.0
H593 H 0.31026 0.7606 0.53659 0.0
C594 C 0.37837 0.79182 0.543 0.0
C595 C 0.34397 0.79307 0.53223 0.0
C596 C 0.33276 0.80605 0.52378 0.0
C597 C 0.3637 0.76821 0.54928 0.0
C598 C 0.33889 0.75681 0.54675 0.0
C599 C 0.32932 0.76937 0.53835 0.0
C600 C 0.32253 0.73202 0.5532 0.0
C601 C 0.37479 0.7558 0.55889 0.0
C602 C 0.32326 0.71272 0.54532 0.0
C603 C 0.30835 0.68944 0.55194 0.0
C604 C 0.29246 0.68511 0.56652 0.0
C605 C 0.29137 0.70441 0.57407 0.0
C606 C 0.30624 0.72767 0.56741 0.0
H607 H 0.39331 0.76867 0.56329 0.0
H608 H 0.36428 0.74583 0.57127 0.0
H609 H 0.3751 0.74271 0.54923 0.0
H610 H 0.33546 0.7157 0.53414 0.0
H611 H 0.30951 0.67491 0.54579 0.0
H612 H 0.52511 0.40326 0.71103 0.0
H613 H 0.54114 0.37837 0.72062 0.0
H614 H 0.54284 0.35954 0.66357 0.0
H615 H 0.52702 0.38455 0.65382 0.0
H616 H 0.52303 0.32004 0.68824 0.0
H617 H 0.60995 0.39477 0.7131 0.0
H618 H 0.58447 0.39395 0.72294 0.0
H619 H 0.59045 0.39958 0.69858 0.0
C620 C 0.52916 0.39406 0.70049 0.0
C621 C 0.5249 0.396 0.68164 0.0
C622 C 0.53826 0.3798 0.70601 0.0
C623 C 0.5434 0.36734 0.69278 0.0
C624 C 0.53897 0.36903 0.67399 0.0
H625 H 0.63106 0.30559 0.70429 0.0
H626 H 0.61208 0.32785 0.69526 0.0
C627 C 0.52987 0.38327 0.66846 0.0
C628 C 0.55334 0.35245 0.69851 0.0
H629 H 0.60168 0.35538 0.71865 0.0
C630 C 0.54022 0.32772 0.69491 0.0
C631 C 0.57585 0.3626 0.70703 0.0
C632 C 0.59115 0.38921 0.71052 0.0
C633 C 0.54899 0.31282 0.69969 0.0
C634 C 0.57133 0.32293 0.70849 0.0
C635 C 0.58447 0.34767 0.71203 0.0
C636 C 0.58193 0.3084 0.7135 0.0
C637 C 0.53455 0.28652 0.69492 0.0
C638 C 0.5712 0.28999 0.72673 0.0
C639 C 0.58201 0.27715 0.73192 0.0
C640 C 0.60377 0.28263 0.72402 0.0
C641 C 0.61429 0.30091 0.71064 0.0
C642 C 0.6035 0.31369 0.70547 0.0
H643 H 0.5205 0.28265 0.68458 0.0
H644 H 0.54608 0.28016 0.68933 0.0
H645 H 0.52585 0.2761 0.70766 0.0
H646 H 0.55474 0.28589 0.73331 0.0
H647 H 0.57354 0.26325 0.74233 0.0
H648 H 0.1296 0.48233 0.85251 0.0
H649 H 0.17106 0.4962 0.85971 0.0
H650 H 0.18434 0.56732 0.86997 0.0
H651 H 0.14275 0.55348 0.86319 0.0
H652 H 0.21252 0.53332 0.84239 0.0
H653 H 0.20888 0.55112 0.91723 0.0
H654 H 0.18257 0.53312 0.90348 0.0
H655 H 0.19811 0.56526 0.90203 0.0
C656 C 0.14129 0.50087 0.85649 0.0
C657 C 0.13285 0.51678 0.85742 0.0
C658 C 0.16498 0.50878 0.86048 0.0
C659 C 0.18064 0.53268 0.86561 0.0
C660 C 0.17241 0.5487 0.86631 0.0
H661 H 0.33262 0.61725 0.86773 0.0
H662 H 0.29045 0.5973 0.86029 0.0
C663 C 0.14872 0.54083 0.86226 0.0
C664 C 0.2057 0.54093 0.86997 0.0
H665 H 0.24714 0.56524 0.90439 0.0
C666 C 0.22009 0.54017 0.85596 0.0
C667 C 0.21538 0.5495 0.88778 0.0
C668 C 0.20043 0.54964 0.90357 0.0
C669 C 0.24416 0.54849 0.85914 0.0
C670 C 0.25407 0.55799 0.87672 0.0
C671 C 0.2395 0.55805 0.89089 0.0
C672 C 0.27975 0.56897 0.88047 0.0
C673 C 0.25878 0.54704 0.84367 0.0
C674 C 0.2877 0.55973 0.89441 0.0
C675 C 0.31187 0.57113 0.89873 0.0
C676 C 0.32839 0.59211 0.88931 0.0
C677 C 0.32035 0.60109 0.8752 0.0
C678 C 0.29627 0.58964 0.87085 0.0
H679 H 0.24745 0.5336 0.83305 0.0
H680 H 0.26893 0.56476 0.83675 0.0
H681 H 0.27164 0.54231 0.8491 0.0
H682 H 0.27517 0.54386 0.90206 0.0
H683 H 0.31751 0.56385 0.90972 0.0
H684 H 0.63778 0.13211 0.01103 0.0
H685 H 0.66267 0.17392 0.02064 0.0
H686 H 0.60025 0.1783 0.0295 0.0
H687 H 0.57512 0.13618 0.02043 0.0
H688 H 0.6664 0.21582 0.00628 0.0
H689 H 0.63539 0.19955 0.07943 0.0
H690 H 0.6297 0.17554 0.06377 0.0
H691 H 0.61232 0.18954 0.06235 0.0
C692 C 0.62932 0.14191 0.01516 0.0
C693 C 0.60446 0.13074 0.01519 0.0
C694 C 0.64358 0.16584 0.0205 0.0
C695 C 0.63328 0.17906 0.02603 0.0
C696 C 0.60851 0.16825 0.02556 0.0
H697 H 0.70887 0.33359 0.04445 0.0
H698 H 0.68334 0.29311 0.0321 0.0
C699 C 0.59421 0.14427 0.02021 0.0
C700 C 0.64857 0.20404 0.03257 0.0
H701 H 0.66179 0.2398 0.0707 0.0
C702 C 0.66539 0.22112 0.02034 0.0
C703 C 0.64738 0.21076 0.05101 0.0
C704 C 0.63039 0.19289 0.06499 0.0
C705 C 0.68103 0.24483 0.02604 0.0
C706 C 0.67955 0.25163 0.04438 0.0
C707 C 0.66277 0.23453 0.05662 0.0
C708 C 0.69555 0.27628 0.05134 0.0
C709 C 0.69937 0.26223 0.01254 0.0
C710 C 0.71064 0.28017 0.06639 0.0
C711 C 0.72512 0.30322 0.07353 0.0
C712 C 0.72467 0.32278 0.0658 0.0
C713 C 0.70967 0.31888 0.05064 0.0
C714 C 0.69517 0.2958 0.04351 0.0
H715 H 0.70196 0.25284 1.00074 0.0
H716 H 0.69342 0.27408 0.00684 0.0
H717 H 0.71669 0.27368 0.01954 0.0
H718 H 0.71113 0.26531 0.07266 0.0
H719 H 0.73647 0.30566 0.08523 0.0
H720 H 0.49044 0.62265 0.15445 0.0
H721 H 0.47576 0.64861 0.16426 0.0
H722 H 0.47727 0.62966 0.22131 0.0
H723 H 0.49213 0.60377 0.21165 0.0
H724 H 0.43528 0.62725 0.2114 0.0
H725 H 0.51344 0.71401 0.18996 0.0
H726 H 0.50151 0.69194 0.17185 0.0
H727 H 0.51432 0.68685 0.19205 0.0
C728 C 0.48789 0.6242 0.16911 0.0
C729 C 0.49256 0.61122 0.18228 0.0
C730 C 0.47954 0.63907 0.17469 0.0
C731 C 0.47584 0.64138 0.19353 0.0
C732 C 0.48014 0.62821 0.2067 0.0
H733 H 0.446 0.74618 0.2418 0.0
H734 H 0.46436 0.72291 0.23341 0.0
C735 C 0.48848 0.61331 0.20114 0.0
C736 C 0.46674 0.65693 0.19945 0.0
H737 H 0.47865 0.71456 0.19821 0.0
C738 C 0.44482 0.64636 0.20862 0.0
C739 C 0.47938 0.68191 0.19602 0.0
C740 C 0.50358 0.69444 0.18709 0.0
C741 C 0.43487 0.65999 0.21399 0.0
C742 C 0.44703 0.68477 0.20985 0.0
C743 C 0.46927 0.6955 0.20117 0.0
C744 C 0.43668 0.6997 0.2142 0.0
C745 C 0.41147 0.64776 0.22416 0.0
C746 C 0.41541 0.69475 0.20579 0.0
C747 C 0.40493 0.70797 0.21052 0.0
C748 C 0.41559 0.72649 0.2237 0.0
C749 C 0.43734 0.73199 0.23164 0.0
C750 C 0.44784 0.71872 0.22687 0.0
H751 H 0.40762 0.63055 0.23047 0.0
H752 H 0.41128 0.65948 0.23526 0.0
H753 H 0.39701 0.64381 0.21424 0.0
H754 H 0.40677 0.68045 0.1957 0.0
H755 H 0.38826 0.70338 0.20406 0.0
H756 H 0.88575 0.47434 0.38385 0.0
H757 H 0.84376 0.45837 0.38985 0.0
H758 H 0.83871 0.49173 0.33981 0.0
H759 H 0.88 0.50589 0.33279 0.0
H760 H 0.81942 0.4788 0.39643 0.0
H761 H 0.78437 0.42588 0.33194 0.0
H762 H 0.81502 0.43947 0.33865 0.0
H763 H 0.80468 0.45697 0.32719 0.0
C764 C 0.87565 0.47785 0.37386 0.0
C765 C 0.88642 0.4913 0.35773 0.0
C766 C 0.85164 0.46894 0.37745 0.0
C767 C 0.83789 0.47344 0.36512 0.0
C768 C 0.84871 0.48741 0.34929 0.0
H769 H 0.69777 0.44766 0.39799 0.0
H770 H 0.74006 0.46716 0.39027 0.0
C771 C 0.87257 0.49591 0.34549 0.0
C772 C 0.81233 0.46373 0.36894 0.0
H773 H 0.75703 0.4308 0.35004 0.0
C774 C 0.80575 0.46819 0.38632 0.0
C775 C 0.79445 0.44965 0.35583 0.0
C776 C 0.79995 0.44249 0.33746 0.0
C777 C 0.78185 0.45889 0.391 0.0
C778 C 0.76404 0.44554 0.37764 0.0
C779 C 0.77066 0.44126 0.36022 0.0
C780 C 0.73833 0.43437 0.38176 0.0
C781 C 0.77598 0.46276 0.41044 0.0
C782 C 0.72306 0.40971 0.37878 0.0
C783 C 0.69891 0.39876 0.38262 0.0
C784 C 0.68948 0.41215 0.38979 0.0
C785 C 0.70462 0.43689 0.39262 0.0
C786 C 0.72882 0.44798 0.38838 0.0
H787 H 0.79069 0.46709 0.42024 0.0
H788 H 0.77307 0.47808 0.41046 0.0
H789 H 0.75965 0.44665 0.41564 0.0
H790 H 0.72989 0.39879 0.37367 0.0
H791 H 0.68771 0.37963 0.38038 0.0
H792 H 0.05847 0.54815 0.43325 0.0
H793 H 0.08465 0.55874 0.46018 0.0
H794 H 0.1457 0.59275 0.42418 0.0
H795 H 0.11958 0.58266 0.39723 0.0
H796 H 0.11737 0.5477 0.47018 0.0
H797 H 0.16074 0.64598 0.46019 0.0
H798 H 0.13473 0.62481 0.44737 0.0
H799 H 0.16357 0.63074 0.44056 0.0
C800 C 0.07748 0.55779 0.43108 0.0
C801 C 0.087 0.56477 0.41317 0.0
C802 C 0.09242 0.56385 0.44647 0.0
C803 C 0.11716 0.57693 0.44424 0.0
C804 C 0.1267 0.58324 0.4263 0.0
H805 H 0.21578 0.59676 0.53431 0.0
H806 H 0.19175 0.58312 0.50602 0.0
C807 C 0.11177 0.57742 0.41091 0.0
C808 C 0.13286 0.58415 0.46076 0.0
H809 H 0.17647 0.63289 0.48373 0.0
C810 C 0.13031 0.56633 0.47316 0.0
C811 C 0.14954 0.60849 0.46475 0.0
C812 C 0.1522 0.62864 0.45263 0.0
C813 C 0.14388 0.57217 0.48946 0.0
C814 C 0.1609 0.59647 0.49324 0.0
C815 C 0.16355 0.61425 0.48076 0.0
C816 C 0.17529 0.60415 0.51051 0.0
C817 C 0.13929 0.55233 0.50276 0.0
C818 C 0.17446 0.62088 0.52223 0.0
C819 C 0.18842 0.62898 0.53819 0.0
C820 C 0.20349 0.62045 0.54288 0.0
C821 C 0.2042 0.60353 0.5312 0.0
C822 C 0.19037 0.59561 0.51507 0.0
H823 H 0.1217 0.53594 0.50031 0.0
H824 H 0.15304 0.54753 0.5008 0.0
H825 H 0.14008 0.55808 0.51736 0.0
H826 H 0.16297 0.62774 0.51901 0.0
H827 H 0.18732 0.64194 0.54687 0.0
H828 H 0.49307 0.08124 0.57611 0.0
H829 H 0.5099 0.10983 0.60187 0.0
H830 H 0.57742 0.11538 0.59356 0.0
H831 H 0.56104 0.08752 0.56756 0.0
H832 H 0.53034 0.10568 0.63461 0.0
H833 H 0.59517 0.18541 0.59452 0.0
H834 H 0.57102 0.15912 0.58367 0.0
H835 H 0.59769 0.15968 0.59017 0.0
C836 C 0.51159 0.08881 0.57962 0.0
C837 C 0.52572 0.08212 0.56977 0.0
C838 C 0.52112 0.10502 0.59439 0.0
C839 C 0.54499 0.115 0.59943 0.0
C840 C 0.55908 0.10826 0.58968 0.0
H841 H 0.64394 0.19713 0.68343 0.0
H842 H 0.62102 0.17291 0.65703 0.0
C843 C 0.54959 0.09208 0.57497 0.0
C844 C 0.55515 0.13179 0.61529 0.0
H845 H 0.60138 0.187 0.62739 0.0
C846 C 0.54564 0.12361 0.63304 0.0
C847 C 0.57503 0.15521 0.61315 0.0
C848 C 0.58519 0.16549 0.59432 0.0
C849 C 0.55629 0.13778 0.64884 0.0
C850 C 0.57678 0.16077 0.64675 0.0
C851 C 0.58573 0.16929 0.62894 0.0
C852 C 0.59026 0.17557 0.66291 0.0
C853 C 0.54625 0.12766 0.66773 0.0
C854 C 0.58058 0.18527 0.67491 0.0
C855 C 0.59368 0.19923 0.6901 0.0
C856 C 0.61669 0.20372 0.69352 0.0
C857 C 0.62628 0.19404 0.68133 0.0
C858 C 0.61323 0.1802 0.66617 0.0
H859 H 0.5327 0.10822 0.66715 0.0
H860 H 0.5606 0.1304 0.67736 0.0
H861 H 0.53778 0.13721 0.67354 0.0
H862 H 0.56298 0.18215 0.67245 0.0
H863 H 0.58576 0.20646 0.69914 0.0
H864 H 0.41495 0.51547 0.71992 0.0
H865 H 0.40664 0.53352 0.74637 0.0
H866 H 0.45775 0.52704 0.77925 0.0
H867 H 0.46541 0.50803 0.7532 0.0
H868 H 0.41705 0.5145 0.79868 0.0
H869 H 0.45127 0.60213 0.76337 0.0
H870 H 0.42779 0.57699 0.75122 0.0
H871 H 0.45588 0.57905 0.7543 0.0
C872 C 0.42418 0.51756 0.73286 0.0
C873 C 0.44102 0.51048 0.73437 0.0
C874 C 0.4196 0.52814 0.74789 0.0
C875 C 0.43191 0.53205 0.76466 0.0
C876 C 0.44818 0.52437 0.76639 0.0
H877 H 0.45868 0.63269 0.85166 0.0
H878 H 0.45956 0.60946 0.82552 0.0
C879 C 0.45269 0.5137 0.75142 0.0
C880 C 0.4283 0.54456 0.78034 0.0
H881 H 0.4347 0.59805 0.79314 0.0
C882 C 0.42081 0.53273 0.79748 0.0
C883 C 0.4335 0.56845 0.77877 0.0
C884 C 0.44277 0.58253 0.76099 0.0
C885 C 0.41855 0.54422 0.81314 0.0
C886 C 0.42348 0.56802 0.8115 0.0
C887 C 0.43076 0.57974 0.79432 0.0
C888 C 0.42257 0.58164 0.82764 0.0
C889 C 0.41169 0.53107 0.83142 0.0
C890 C 0.40141 0.57378 0.83749 0.0
C891 C 0.40085 0.58698 0.85259 0.0
C892 C 0.42141 0.60844 0.85798 0.0
C893 C 0.4425 0.6163 0.84794 0.0
C894 C 0.44305 0.60304 0.83295 0.0
H895 H 0.41414 0.51542 0.83132 0.0
H896 H 0.42232 0.54317 0.84296 0.0
H897 H 0.39271 0.52437 0.83424 0.0
H898 H 0.38527 0.55757 0.83339 0.0
H899 H 0.38426 0.58049 0.8599 0.0
H900 H 0.92944 0.40841 0.92093 0.0
H901 H 0.90392 0.3992 0.94808 0.0
H902 H 0.90992 0.46812 0.94363 0.0
H903 H 0.93582 0.47771 0.91662 0.0
H904 H 0.91536 0.42615 0.98194 0.0
H905 H 0.83735 0.41958 0.94611 0.0
H906 H 0.86043 0.41809 0.93378 0.0
H907 H 0.8655 0.4464 0.94192 0.0
C908 C 0.92551 0.42172 0.92579 0.0
C909 C 0.9347 0.44381 0.91657 0.0
C910 C 0.9108 0.41635 0.94123 0.0
C911 C 0.90482 0.43286 0.9477 0.0
C912 C 0.91397 0.45496 0.93863 0.0
H913 H 0.813 0.41947 0.04093 0.0
H914 H 0.83973 0.43482 0.01414 0.0
C915 C 0.92875 0.46038 0.92319 0.0
C916 C 0.8895 0.42706 0.96427 0.0
H917 H 0.83485 0.41467 0.97861 0.0
C918 C 0.89778 0.4237 0.98124 0.0
C919 C 0.86668 0.42411 0.96331 0.0
C920 C 0.85678 0.42704 0.9453 0.0
C921 C 0.88375 0.41721 0.99728 0.0
C922 C 0.86063 0.41349 0.99622 0.0
C923 C 0.85256 0.41748 0.97936 0.0
C924 C 0.84415 0.40421 0.01223 0.0
C925 C 0.89388 0.41449 0.01525 0.0
C926 C 0.83741 0.38173 0.01975 0.0
C927 C 0.82224 0.37293 0.035 0.0
C928 C 0.81328 0.38636 0.04303 0.0
C929 C 0.81963 0.40869 0.03518 0.0
C930 C 0.83489 0.4175 0.01987 0.0
H931 H 0.91358 0.4247 0.01503 0.0
H932 H 0.88783 0.4207 0.02722 0.0
H933 H 0.88781 0.3953 0.0174 0.0
H934 H 0.8439 0.37092 0.01378 0.0
H935 H 0.8176 0.35557 0.04051 0.0
H936 H 0.47849 0.89386 0.05398 0.0
H937 H 0.46138 0.86742 0.08088 0.0
H938 H 0.48865 0.92911 0.11674 0.0
H939 H 0.50625 0.95561 0.08991 0.0
H940 H 0.49412 0.89421 0.13197 0.0
H941 H 0.40188 0.85546 0.1066 0.0
H942 H 0.42059 0.85156 0.09073 0.0
H943 H 0.4267 0.88125 0.09593 0.0
C944 C 0.48083 0.90175 0.06761 0.0
C945 C 0.49351 0.92678 0.06985 0.0
C946 C 0.471 0.88664 0.08295 0.0
C947 C 0.47328 0.89629 0.10077 0.0
C948 C 0.48658 0.92128 0.10311 0.0
H949 H 0.38189 0.8255 0.19397 0.0
H950 H 0.40402 0.85086 0.16778 0.0
C951 C 0.49665 0.93639 0.08779 0.0
C952 C 0.46136 0.88043 0.11692 0.0
H953 H 0.40709 0.83787 0.13349 0.0
C954 C 0.47508 0.88188 0.13234 0.0
C955 C 0.43648 0.8646 0.11747 0.0
C956 C 0.4205 0.86324 0.10189 0.0
C957 C 0.46461 0.86793 0.14828 0.0
C958 C 0.4398 0.85167 0.14861 0.0
C959 C 0.42613 0.8502 0.13317 0.0
C960 C 0.42734 0.83681 0.16511 0.0
C961 C 0.48013 0.87131 0.16478 0.0
C962 C 0.43309 0.82043 0.17239 0.0
C963 C 0.42057 0.806 0.18758 0.0
C964 C 0.40181 0.80741 0.19553 0.0
C965 C 0.39613 0.82382 0.18815 0.0
C966 C 0.40879 0.83837 0.17316 0.0
H967 H 0.49723 0.88869 0.16416 0.0
H968 H 0.47105 0.87055 0.17796 0.0
H969 H 0.48419 0.85676 0.16497 0.0
H970 H 0.44695 0.81848 0.16615 0.0
H971 H 0.42527 0.79341 0.19283 0.0
H972 H 0.55184 0.49786 0.25383 0.0
H973 H 0.56018 0.47906 0.27963 0.0
H974 H 0.6114 0.47354 0.24612 0.0
H975 H 0.60243 0.49145 0.21993 0.0
H976 H 0.58155 0.43188 0.26373 0.0
H977 H 0.61682 0.50673 0.31403 0.0
H978 H 0.58818 0.49891 0.30532 0.0
H979 H 0.61308 0.51066 0.28974 0.0
C980 C 0.56485 0.49261 0.2519 0.0
C981 C 0.57644 0.49616 0.23478 0.0
C982 C 0.56984 0.48216 0.26677 0.0
C983 C 0.58672 0.47527 0.26492 0.0
C984 C 0.59846 0.47892 0.2479 0.0
H985 H 0.63336 0.42547 0.35957 0.0
H986 H 0.63259 0.4481 0.33276 0.0
C987 C 0.59343 0.48931 0.23299 0.0
C988 C 0.59106 0.46301 0.28041 0.0
H989 H 0.60525 0.46801 0.3264 0.0
C990 C 0.58697 0.43988 0.27738 0.0
C991 C 0.59849 0.47359 0.29815 0.0
C992 C 0.60464 0.49894 0.30198 0.0
C993 C 0.58925 0.42671 0.29178 0.0
C994 C 0.59532 0.43674 0.30978 0.0
C995 C 0.6003 0.46021 0.31265 0.0
C996 C 0.5959 0.42291 0.3259 0.0
C997 C 0.5852 0.40218 0.28753 0.0
C998 C 0.57543 0.40141 0.3311 0.0
C999 C 0.5758 0.38839 0.34634 0.0
C1000 C 0.59661 0.39672 0.35688 0.0
C1001 C 0.61703 0.41847 0.35178 0.0
C1002 C 0.61664 0.43146 0.33646 0.0
H1003 H 0.58794 0.40024 0.27258 0.0
H1004 H 0.59724 0.39853 0.29578 0.0
H1005 H 0.56663 0.3884 0.29105 0.0
H1006 H 0.55906 0.39477 0.32343 0.0
H1007 H 0.55967 0.37186 0.34991 0.0
H1008 H 0.44455 0.89151 0.42997 0.0
H1009 H 0.43407 0.86493 0.40319 0.0
H1010 H 0.44793 0.92336 0.36685 0.0
H1011 H 0.45953 0.95033 0.39343 0.0
H1012 H 0.39858 0.85201 0.37899 0.0
H1013 H 0.48386 0.89678 0.34104 0.0
H1014 H 0.48137 0.90388 0.36481 0.0
H1015 H 0.47364 0.91691 0.34613 0.0
C1016 C 0.44584 0.89885 0.41625 0.0
C1017 C 0.45299 0.92312 0.41388 0.0
C1018 C 0.43968 0.88357 0.40096 0.0
C1019 C 0.44059 0.89223 0.38298 0.0
C1020 C 0.44763 0.91639 0.38055 0.0
H1021 H 0.36182 0.81468 0.28696 0.0
H1022 H 0.37769 0.83829 0.31513 0.0
C1023 C 0.4539 0.93172 0.39581 0.0
C1024 C 0.43285 0.87569 0.36687 0.0
H1025 H 0.44958 0.86842 0.32371 0.0
C1026 C 0.40983 0.85547 0.36699 0.0
C1027 C 0.44766 0.87996 0.35133 0.0
C1028 C 0.47309 0.90042 0.35086 0.0
C1029 C 0.4009 0.83992 0.35173 0.0
C1030 C 0.41518 0.84505 0.33574 0.0
C1031 C 0.43853 0.8647 0.33588 0.0
C1032 C 0.40586 0.83076 0.31849 0.0
C1033 C 0.37624 0.81814 0.35291 0.0
C1034 C 0.41691 0.81927 0.31064 0.0
C1035 C 0.408 0.80586 0.29434 0.0
C1036 C 0.38792 0.80378 0.28556 0.0
C1037 C 0.37716 0.81564 0.29338 0.0
C1038 C 0.38613 0.82907 0.30959 0.0
H1039 H 0.37078 0.81276 0.36753 0.0
H1040 H 0.36346 0.82238 0.3466 0.0
H1041 H 0.37502 0.8027 0.34535 0.0
H1042 H 0.43229 0.82051 0.31723 0.0
H1043 H 0.41676 0.79702 0.2887 0.0
H1044 H 0.50718 0.45456 0.5571 0.0
H1045 H 0.52274 0.44555 0.52943 0.0
H1046 H 0.54856 0.40928 0.56338 0.0
H1047 H 0.53366 0.4189 0.59114 0.0
H1048 H 0.58044 0.43609 0.53742 0.0
H1049 H 0.4921 0.38132 0.50458 0.0
H1050 H 0.49952 0.41141 0.50942 0.0
H1051 H 0.49565 0.39155 0.52824 0.0
C1052 C 0.51613 0.44461 0.55861 0.0
C1053 C 0.51904 0.43723 0.57621 0.0
C1054 C 0.52494 0.43941 0.54281 0.0
C1055 C 0.53636 0.42627 0.54427 0.0
C1056 C 0.53974 0.41935 0.5619 0.0
H1057 H 0.55186 0.34615 0.45636 0.0
H1058 H 0.54166 0.36047 0.48397 0.0
C1059 C 0.53122 0.42485 0.57774 0.0
C1060 C 0.54452 0.41943 0.52745 0.0
H1061 H 0.52535 0.38965 0.48627 0.0
C1062 C 0.5684 0.4259 0.52624 0.0
C1063 C 0.52873 0.40586 0.51296 0.0
C1064 C 0.50254 0.39691 0.5139 0.0
C1065 C 0.57693 0.41915 0.51097 0.0
C1066 C 0.56126 0.40613 0.49627 0.0
C1067 C 0.53742 0.39979 0.49746 0.0
C1068 C 0.5687 0.39774 0.4799 0.0
C1069 C 0.60241 0.42537 0.51105 0.0
C1070 C 0.58743 0.41391 0.4684 0.0
C1071 C 0.59356 0.40568 0.45265 0.0
C1072 C 0.58071 0.38121 0.44793 0.0
C1073 C 0.56201 0.36514 0.4595 0.0
C1074 C 0.55615 0.3733 0.47532 0.0
H1075 H 0.60996 0.42924 0.52529 0.0
H1076 H 0.6041 0.41058 0.50514 0.0
H1077 H 0.6132 0.44165 0.50251 0.0
H1078 H 0.59702 0.43293 0.47138 0.0
H1079 H 0.60793 0.41853 0.44394 0.0
H1080 H 0.11831 0.52504 0.77265 0.0
H1081 H 0.14413 0.54298 0.7456 0.0
H1082 H 0.08259 0.51447 0.71018 0.0
H1083 H 0.05676 0.49717 0.73725 0.0
H1084 H 0.15112 0.52582 0.71386 0.0
H1085 H 0.11554 0.58454 0.69775 0.0
H1086 H 0.10848 0.56753 0.71895 0.0
H1087 H 0.09307 0.55333 0.6978 0.0
C1088 C 0.11035 0.52247 0.75905 0.0
C1089 C 0.08557 0.50998 0.75703 0.0
C1090 C 0.12508 0.53273 0.74362 0.0
C1091 C 0.11529 0.53054 0.72591 0.0
C1092 C 0.09054 0.51702 0.72377 0.0
H1093 H 0.1971 0.57096 0.62253 0.0
H1094 H 0.17181 0.54845 0.64882 0.0
C1095 C 0.07581 0.50706 0.73921 0.0
C1096 C 0.13094 0.54299 0.70981 0.0
H1097 H 0.14159 0.58357 0.67561 0.0
C1098 C 0.1491 0.5385 0.7055 0.0
C1099 C 0.12852 0.55982 0.69909 0.0
C1100 C 0.11052 0.5668 0.70372 0.0
C1101 C 0.16483 0.55028 0.69073 0.0
C1102 C 0.16189 0.56651 0.67965 0.0
C1103 C 0.14373 0.57098 0.68399 0.0
C1104 C 0.17791 0.57988 0.66393 0.0
C1105 C 0.18482 0.54573 0.68751 0.0
C1106 C 0.18936 0.60498 0.66344 0.0
C1107 C 0.20337 0.61781 0.64829 0.0
C1108 C 0.20642 0.60585 0.63331 0.0
C1109 C 0.19526 0.58072 0.63392 0.0
C1110 C 0.18092 0.56784 0.649 0.0
H1111 H 0.18866 0.53853 0.70013 0.0
H1112 H 0.17972 0.53228 0.6763 0.0
H1113 H 0.2013 0.56239 0.68325 0.0
H1114 H 0.18731 0.61469 0.67477 0.0
H1115 H 0.21182 0.63716 0.64835 0.0
H1116 H 0.58731 0.11828 0.92983 0.0
H1117 H 0.59835 0.14514 0.90307 0.0
H1118 H 0.56386 0.08394 0.8666 0.0
H1119 H 0.5523 0.05708 0.89333 0.0
H1120 H 0.62595 0.15078 0.87479 0.0
H1121 H 0.5368 0.12256 0.84752 0.0
H1122 H 0.54122 0.11357 0.8701 0.0
H1123 H 0.54114 0.09767 0.84963 0.0
C1124 C 0.58202 0.11059 0.91609 0.0
C1125 C 0.56886 0.0856 0.91365 0.0
C1126 C 0.58825 0.12593 0.90083 0.0
C1127 C 0.58154 0.11659 0.88283 0.0
C1128 C 0.5686 0.09161 0.88037 0.0
H1129 H 0.65195 0.18625 0.78144 0.0
H1130 H 0.63715 0.16282 0.80981 0.0
C1131 C 0.56212 0.07626 0.89564 0.0
C1132 C 0.58925 0.13293 0.86656 0.0
H1133 H 0.56943 0.14513 0.82669 0.0
C1134 C 0.61354 0.14969 0.86439 0.0
C1135 C 0.57305 0.13188 0.85312 0.0
C1136 C 0.54659 0.11563 0.8553 0.0
C1137 C 0.62216 0.16482 0.84887 0.0
C1138 C 0.60614 0.16265 0.83482 0.0
C1139 C 0.58176 0.14653 0.83731 0.0
C1140 C 0.61445 0.17646 0.81726 0.0
C1141 C 0.64836 0.18311 0.84778 0.0
C1142 C 0.60584 0.19119 0.81153 0.0
C1143 C 0.61402 0.20441 0.79507 0.0
C1144 C 0.63099 0.20314 0.78407 0.0
C1145 C 0.63914 0.18795 0.78968 0.0
C1146 C 0.6308 0.17462 0.80599 0.0
H1147 H 0.65655 0.18782 0.86179 0.0
H1148 H 0.65732 0.17549 0.83977 0.0
H1149 H 0.65173 0.19977 0.8408 0.0
H1150 H 0.59305 0.19272 0.81994 0.0
H1151 H 0.60734 0.2159 0.79115 0.0
H1152 H 0.52977 0.60626 0.0725 0.0
H1153 H 0.51406 0.61499 0.04485 0.0
H1154 H 0.44897 0.54679 0.05012 0.0
H1155 H 0.46465 0.53769 0.07765 0.0
H1156 H 0.49798 0.58716 0.01156 0.0
H1157 H 0.42687 0.59575 0.04558 0.0
H1158 H 0.45113 0.59719 0.05841 0.0
H1159 H 0.42709 0.56882 0.05053 0.0
C1160 C 0.51216 0.59303 0.06774 0.0
C1161 C 0.49847 0.57128 0.07733 0.0
C1162 C 0.50317 0.59811 0.052 0.0
C1163 C 0.48026 0.58166 0.04559 0.0
C1164 C 0.46652 0.55992 0.05506 0.0
H1165 H 0.40367 0.59292 0.95016 0.0
H1166 H 0.41421 0.57817 0.97763 0.0
C1167 C 0.47552 0.55478 0.0708 0.0
C1168 C 0.47115 0.58709 0.02865 0.0
H1169 H 0.42963 0.59944 0.01298 0.0
C1170 C 0.48301 0.5898 0.01185 0.0
C1171 C 0.45147 0.59027 0.02907 0.0
C1172 C 0.43843 0.58805 0.04686 0.0
C1173 C 0.47586 0.59584 0.99544 0.0
C1174 C 0.45665 0.59979 0.99595 0.0
C1175 C 0.44437 0.59645 0.01265 0.0
C1176 C 0.44997 0.60868 0.97951 0.0
C1177 C 0.4889 0.59787 0.97769 0.0
C1178 C 0.46642 0.63091 0.97172 0.0
C1179 C 0.46052 0.63936 0.95609 0.0
C1180 C 0.43792 0.62584 0.94792 0.0
C1181 C 0.42125 0.60376 0.95601 0.0
C1182 C 0.42722 0.5953 0.97171 0.0
H1183 H 0.49805 0.58756 0.97844 0.0
H1184 H 0.47662 0.59134 0.96565 0.0
H1185 H 0.50256 0.61696 0.97524 0.0
H1186 H 0.48388 0.64179 0.97778 0.0
H1187 H 0.47377 0.65654 0.9504 0.0
H1188 H 0.89772 0.47531 0.27275 0.0
H1189 H 0.87303 0.45775 0.24526 0.0
H1190 H 0.93327 0.50189 0.21026 0.0
H1191 H 0.95843 0.51863 0.23765 0.0
H1192 H 0.86125 0.47648 0.21645 0.0
H1193 H 0.91186 0.43542 0.19104 0.0
H1194 H 0.91621 0.44836 0.21386 0.0
H1195 H 0.92955 0.46733 0.19397 0.0
C1196 C 0.90581 0.48116 0.25922 0.0
C1197 C 0.93018 0.49815 0.25745 0.0
C1198 C 0.8916 0.47126 0.24351 0.0
C1199 C 0.9014 0.47816 0.2257 0.0
C1200 C 0.92545 0.4959 0.22387 0.0
H1201 H 0.81524 0.4355 0.12432 0.0
H1202 H 0.84072 0.45859 0.15032 0.0
C1203 C 0.93974 0.5057 0.23957 0.0
C1204 C 0.88651 0.46623 0.20915 0.0
H1205 H 0.88139 0.43199 0.17158 0.0
C1206 C 0.86565 0.46678 0.2066 0.0
C1207 C 0.89213 0.45331 0.19647 0.0
C1208 C 0.91352 0.45082 0.19901 0.0
C1209 C 0.8502 0.45469 0.19175 0.0
C1210 C 0.85607 0.44216 0.17888 0.0
C1211 C 0.877 0.44175 0.18138 0.0
C1212 C 0.84028 0.42834 0.16319 0.0
C1213 C 0.82739 0.45481 0.19035 0.0
C1214 C 0.83197 0.40378 0.16155 0.0
C1215 C 0.81771 0.39062 0.1466 0.0
C1216 C 0.81136 0.40172 0.13293 0.0
C1217 C 0.81962 0.42633 0.13465 0.0
C1218 C 0.83409 0.43955 0.14957 0.0
H1219 H 0.82267 0.45972 0.20374 0.0
H1220 H 0.82951 0.46821 0.17984 0.0
H1221 H 0.81247 0.43699 0.18599 0.0
H1222 H 0.83654 0.39476 0.17188 0.0
H1223 H 0.81165 0.37171 0.14579 0.0
loop_
_geom_bond_atom_site_label_1
_geom_bond_atom_site_label_2
_geom_bond_distance
_geom_bond_site_symmetry_2
_ccdc_geom_bond_type
C0 C1 1.384 . S
C0 C2 1.384 . S
C0 H28 0.931 . S
C1 C0 1.384 . S
C1 C4 1.382 . S
C2 C0 1.384 . S
C2 C3 1.381 . S
C2 H29 0.930 . S
C3 C2 1.381 . S
C3 C5 1.381 . S
C3 C6 1.487 . S
C4 C1 1.382 . S
C4 C5 1.387 . S
C4 H30 0.930 . S
C5 C3 1.381 . S
C5 C4 1.387 . S
C5 H31 0.931 . S
C6 C3 1.487 . S
C6 C13 1.399 . S
C6 N44 1.343 1_655 S
C7 C8 1.384 . S
C7 C9 1.384 . S
C7 H32 0.931 . S
C8 C7 1.384 . S
C8 C11 1.382 . S
C9 C7 1.384 . S
C9 C10 1.381 . S
C9 H33 0.930 . S
C10 C9 1.381 . S
C10 C12 1.381 . S
C10 C13 1.487 . S
C11 C8 1.382 . S
C11 C12 1.387 . S
C11 H34 0.930 . S
C12 C10 1.381 . S
C12 C11 1.387 . S
C12 H35 0.931 . S
C13 C6 1.399 . S
C13 C10 1.487 . S
C13 N45 1.343 1_655 S
C14 C15 1.384 . S
C14 C16 1.384 . S
C14 H36 0.931 . S
C15 C14 1.384 . S
C15 C18 1.382 . S
C16 C14 1.384 . S
C16 C17 1.381 . S
C16 H37 0.930 . S
C17 C16 1.381 . S
C17 C19 1.381 . S
C17 C20 1.487 . S
C18 C15 1.382 . S
C18 C19 1.387 . S
C18 H38 0.930 . S
C19 C17 1.381 . S
C19 C18 1.387 . S
C19 H39 0.931 . S
C20 C17 1.487 . S
C20 C27 1.399 . S
C20 N45 1.343 . S
C21 C22 1.384 . S
C21 C23 1.384 . S
C21 H40 0.931 . S
C22 C21 1.384 . S
C22 C25 1.382 . S
C23 C21 1.384 . S
C23 C24 1.381 . S
C23 H41 0.930 . S
C24 C23 1.381 . S
C24 C26 1.381 . S
C24 C27 1.487 . S
C25 C22 1.382 . S
C25 C26 1.387 . S
C25 H42 0.930 . S
C26 C24 1.381 . S
C26 C25 1.387 . S
C26 H43 0.931 . S
C27 C20 1.399 . S
C27 C24 1.487 . S
C27 N44 1.343 . S
H28 C0 0.931 . S
H29 C2 0.930 . S
H30 C4 0.930 . S
H31 C5 0.931 . S
H32 C7 0.931 . S
H33 C9 0.930 . S
H34 C11 0.930 . S
H35 C12 0.931 . S
H36 C14 0.931 . S
H37 C16 0.930 . S
H38 C18 0.930 . S
H39 C19 0.931 . S
H40 C21 0.931 . S
H41 C23 0.930 . S
H42 C25 0.930 . S
H43 C26 0.931 . S
N44 C6 1.343 1_455 S
N44 C27 1.343 . S
N45 C13 1.343 1_455 S
N45 C20 1.343 . S
C46 C47 1.384 . S
C46 C48 1.384 . S
C46 H74 0.931 . S
C47 C46 1.384 . S
C47 C50 1.382 . S
C48 C46 1.384 . S
C48 C49 1.381 . S
C48 H75 0.930 . S
C49 C48 1.381 . S
C49 C51 1.381 . S
C49 C52 1.487 . S
C50 C47 1.382 . S
C50 C51 1.387 . S
C50 H76 0.930 . S
C51 C49 1.381 . S
C51 C50 1.387 . S
C51 H77 0.931 . S
C52 C49 1.487 . S
C52 C59 1.399 . S
C52 N90 1.343 . S
C53 C54 1.384 . S
C53 C55 1.384 . S
C53 H78 0.931 . S
C54 C53 1.384 . S
C54 C57 1.382 . S
C55 C53 1.384 . S
C55 C56 1.381 . S
C55 H79 0.930 . S
C56 C55 1.381 . S
C56 C58 1.381 . S
C56 C59 1.487 . S
C57 C54 1.382 . S
C57 C58 1.387 . S
C57 H80 0.930 . S
C58 C56 1.381 . S
C58 C57 1.387 . S
C58 H81 0.931 . S
C59 C52 1.399 . S
C59 C56 1.487 . S
C59 N91 1.343 1_565 S
C60 C61 1.384 . S
C60 C62 1.384 . S
C60 H82 0.931 . S
C61 C60 1.384 . S
C61 C64 1.382 . S
C62 C60 1.384 . S
C62 C63 1.381 . S
C62 H83 0.930 . S
C63 C62 1.381 . S
C63 C65 1.381 . S
C63 C66 1.487 . S
C64 C61 1.382 . S
C64 C65 1.387 . S
C64 H84 0.930 . S
C65 C63 1.381 . S
C65 C64 1.387 . S
C65 H85 0.931 . S
C66 C63 1.487 . S
C66 C73 1.399 . S
C66 N91 1.343 . S
C67 C68 1.384 . S
C67 C69 1.384 . S
C67 H86 0.931 . S
C68 C67 1.384 . S
C68 C71 1.382 . S
C69 C67 1.384 . S
C69 C70 1.381 . S
C69 H87 0.930 . S
C70 C69 1.381 . S
C70 C72 1.381 . S
C70 C73 1.487 . S
C71 C68 1.382 . S
C71 C72 1.387 . S
C71 H88 0.930 . S
C72 C70 1.381 . S
C72 C71 1.387 . S
C72 H89 0.931 . S
C73 C66 1.399 . S
C73 C70 1.487 . S
C73 N90 1.343 1_545 S
H74 C46 0.931 . S
H75 C48 0.930 . S
H76 C50 0.930 . S
H77 C51 0.931 . S
H78 C53 0.931 . S
H79 C55 0.930 . S
H80 C57 0.930 . S
H81 C58 0.931 . S
H82 C60 0.931 . S
H83 C62 0.930 . S
H84 C64 0.930 . S
H85 C65 0.931 . S
H86 C67 0.931 . S
H87 C69 0.930 . S
H88 C71 0.930 . S
H89 C72 0.931 . S
N90 C52 1.343 . S
N90 C73 1.343 1_565 S
N91 C59 1.343 1_545 S
N91 C66 1.343 . S
C92 C93 1.384 . S
C92 C94 1.384 . S
C92 H120 0.931 . S
C93 C92 1.384 . S
C93 C96 1.382 . S
C94 C92 1.384 . S
C94 C95 1.381 . S
C94 H121 0.930 . S
C95 C94 1.381 . S
C95 C97 1.381 . S
C95 C98 1.487 . S
C96 C93 1.382 . S
C96 C97 1.387 . S
C96 H122 0.930 . S
C97 C95 1.381 . S
C97 C96 1.387 . S
C97 H123 0.931 . S
C98 C95 1.487 . S
C98 C105 1.399 . S
C98 N136 1.343 . S
C99 C100 1.384 . S
C99 C101 1.384 . S
C99 H124 0.931 . S
C100 C99 1.384 . S
C100 C103 1.382 . S
C101 C99 1.384 . S
C101 C102 1.381 . S
C101 H125 0.930 . S
C102 C101 1.381 . S
C102 C104 1.381 . S
C102 C105 1.487 . S
C103 C100 1.382 . S
C103 C104 1.387 . S
C103 H126 0.930 . S
C104 C102 1.381 . S
C104 C103 1.387 . S
C104 H127 0.931 . S
C105 C98 1.399 . S
C105 C102 1.487 . S
C105 N137 1.343 . S
C106 C107 1.384 . S
C106 C108 1.384 . S
C106 H128 0.931 . S
C107 C106 1.384 . S
C107 C110 1.382 . S
C108 C106 1.384 . S
C108 C109 1.381 . S
C108 H129 0.930 . S
C109 C108 1.381 . S
C109 C111 1.381 . S
C109 C112 1.487 . S
C110 C107 1.382 . S
C110 C111 1.387 . S
C110 H130 0.930 . S
C111 C109 1.381 . S
C111 C110 1.387 . S
C111 H131 0.931 . S
C112 C109 1.487 . S
C112 C119 1.399 . S
C112 N137 1.343 . S
C113 C114 1.384 . S
C113 C115 1.384 . S
C113 H132 0.931 . S
C114 C113 1.384 . S
C114 C117 1.382 . S
C115 C113 1.384 . S
C115 C116 1.381 . S
C115 H133 0.930 . S
C116 C115 1.381 . S
C116 C118 1.381 . S
C116 C119 1.487 . S
C117 C114 1.382 . S
C117 C118 1.387 . S
C117 H134 0.930 . S
C118 C116 1.381 . S
C118 C117 1.387 . S
C118 H135 0.931 . S
C119 C112 1.399 . S
C119 C116 1.487 . S
C119 N136 1.343 . S
H120 C92 0.931 . S
H121 C94 0.930 . S
H122 C96 0.930 . S
H123 C97 0.931 . S
H124 C99 0.931 . S
H125 C101 0.930 . S
H126 C103 0.930 . S
H127 C104 0.931 . S
H128 C106 0.931 . S
H129 C108 0.930 . S
H130 C110 0.930 . S
H131 C111 0.931 . S
H132 C113 0.931 . S
H133 C115 0.930 . S
H134 C117 0.930 . S
H135 C118 0.931 . S
N136 C98 1.343 . S
N136 C119 1.343 . S
N137 C105 1.343 . S
N137 C112 1.343 . S
C138 C139 1.384 . S
C138 C140 1.384 . S
C138 H166 0.931 . S
C139 C138 1.384 . S
C139 C142 1.382 . S
C140 C138 1.384 . S
C140 C141 1.381 . S
C140 H167 0.930 . S
C141 C140 1.381 . S
C141 C143 1.381 . S
C141 C144 1.487 . S
C142 C139 1.382 . S
C142 C143 1.387 . S
C142 H168 0.930 . S
C143 C141 1.381 . S
C143 C142 1.387 . S
C143 H169 0.931 . S
C144 C141 1.487 . S
C144 C151 1.399 . S
C144 N182 1.342 . S
C145 C146 1.384 . S
C145 C147 1.384 . S
C145 H170 0.931 . S
C146 C145 1.384 . S
C146 C149 1.382 . S
C147 C145 1.384 . S
C147 C148 1.381 . S
C147 H171 0.930 . S
C148 C147 1.381 . S
C148 C150 1.381 . S
C148 C151 1.487 . S
C149 C146 1.382 . S
C149 C150 1.387 . S
C149 H172 0.930 . S
C150 C148 1.381 . S
C150 C149 1.387 . S
C150 H173 0.931 . S
C151 C144 1.399 . S
C151 C148 1.487 . S
C151 N183 1.343 1_655 S
C152 C153 1.384 . S
C152 C154 1.384 . S
C152 H174 0.931 . S
C153 C152 1.384 . S
C153 C156 1.382 . S
C154 C152 1.384 . S
C154 C155 1.381 . S
C154 H175 0.930 . S
C155 C154 1.381 . S
C155 C157 1.381 . S
C155 C158 1.487 . S
C156 C153 1.382 . S
C156 C157 1.387 . S
C156 H176 0.930 . S
C157 C155 1.381 . S
C157 C156 1.387 . S
C157 H177 0.931 . S
C158 C155 1.487 . S
C158 C165 1.399 . S
C158 N183 1.343 . S
C159 C160 1.384 . S
C159 C161 1.384 . S
C159 H178 0.931 . S
C160 C159 1.384 . S
C160 C163 1.382 . S
C161 C159 1.384 . S
C161 C162 1.381 . S
C161 H179 0.930 . S
C162 C161 1.381 . S
C162 C164 1.381 . S
C162 C165 1.487 . S
C163 C160 1.382 . S
C163 C164 1.387 . S
C163 H180 0.930 . S
C164 C162 1.381 . S
C164 C163 1.387 . S
C164 H181 0.931 . S
C165 C158 1.399 . S
C165 C162 1.487 . S
C165 N182 1.345 1_455 S
H166 C138 0.931 . S
H167 C140 0.930 . S
H168 C142 0.930 . S
H169 C143 0.931 . S
H170 C145 0.931 . S
H171 C147 0.930 . S
H172 C149 0.930 . S
H173 C150 0.931 . S
H174 C152 0.931 . S
H175 C154 0.930 . S
H176 C156 0.930 . S
H177 C157 0.931 . S
H178 C159 0.931 . S
H179 C161 0.930 . S
H180 C163 0.930 . S
H181 C164 0.931 . S
N182 C144 1.342 . S
N182 C165 1.345 1_655 S
N183 C151 1.343 1_455 S
N183 C158 1.343 . S
C184 C185 1.384 . S
C184 C186 1.384 . S
C184 H212 0.931 . S
C185 C184 1.384 . S
C185 C188 1.382 . S
C186 C184 1.384 . S
C186 C187 1.381 . S
C186 H213 0.930 1_556 S
C187 C186 1.381 . S
C187 C189 1.381 . S
C187 C190 1.487 . S
C188 C185 1.382 . S
C188 C189 1.387 . S
C188 H214 0.930 . S
C189 C187 1.381 . S
C189 C188 1.387 . S
C189 H215 0.931 . S
C190 C187 1.487 . S
C190 C197 1.399 1_556 S
C190 N228 1.343 . S
C191 C192 1.384 . S
C191 C193 1.384 . S
C191 H216 0.931 . S
C192 C191 1.384 . S
C192 C195 1.382 . S
C193 C191 1.384 . S
C193 C194 1.381 . S
C193 H217 0.930 . S
C194 C193 1.381 . S
C194 C196 1.381 . S
C194 C197 1.487 . S
C195 C192 1.382 . S
C195 C196 1.387 . S
C195 H218 0.930 . S
C196 C194 1.381 . S
C196 C195 1.387 . S
C196 H219 0.931 . S
C197 C190 1.399 1_554 S
C197 C194 1.487 . S
C197 N229 1.343 1_565 S
C198 C199 1.384 . S
C198 C200 1.384 1_554 S
C198 H220 0.929 1_554 S
C199 C198 1.384 . S
C199 C202 1.382 . S
C200 C198 1.384 1_556 S
C200 C201 1.381 1_556 S
C200 H221 0.930 . S
C201 C200 1.381 1_554 S
C201 C203 1.381 . S
C201 C204 1.470 1_554 S
C202 C199 1.382 . S
C202 C203 1.387 . S
C202 H222 0.930 . S
C203 C201 1.381 . S
C203 C202 1.387 . S
C203 H223 0.931 . S
C204 C201 1.470 1_556 S
C204 C211 1.460 . S
C204 N229 1.295 1_556 S
C205 C206 1.384 . S
C205 C207 1.384 . S
C205 H224 0.931 . S
C206 C205 1.384 . S
C206 C209 1.382 . S
C207 C205 1.384 . S
C207 C208 1.381 . S
C207 H225 0.930 . S
C208 C207 1.381 . S
C208 C210 1.381 . S
C208 C211 1.487 . S
C209 C206 1.382 . S
C209 C210 1.387 . S
C209 H226 0.930 . S
C210 C208 1.381 . S
C210 C209 1.387 . S
C210 H227 0.931 . S
C211 C204 1.460 . S
C211 C208 1.487 . S
C211 N228 1.343 1_545 S
H212 C184 0.931 . S
H213 C186 0.930 1_554 S
H214 C188 0.930 . S
H215 C189 0.931 . S
H216 C191 0.931 . S
H217 C193 0.930 . S
H218 C195 0.930 . S
H219 C196 0.931 . S
H220 C198 0.929 1_556 S
H221 C200 0.930 . S
H222 C202 0.930 . S
H223 C203 0.931 . S
H224 C205 0.931 . S
H225 C207 0.930 . S
H226 C209 0.930 . S
H227 C210 0.931 . S
N228 C190 1.343 . S
N228 C211 1.343 1_565 S
N229 C197 1.343 1_545 S
N229 C204 1.295 1_554 S
C230 C231 1.384 . S
C230 C232 1.384 . S
C230 H258 0.931 . S
C231 C230 1.384 . S
C231 C234 1.382 . S
C232 C230 1.384 . S
C232 C233 1.381 . S
C232 H259 0.930 . S
C233 C232 1.381 . S
C233 C235 1.381 . S
C233 C236 1.487 . S
C234 C231 1.382 . S
C234 C235 1.387 . S
C234 H260 0.930 . S
C235 C233 1.381 . S
C235 C234 1.387 . S
C235 H261 0.931 . S
C236 C233 1.487 . S
C236 C243 1.399 . S
C236 N274 1.343 . S
C237 C238 1.384 . S
C237 C239 1.384 . S
C237 H262 0.931 . S
C238 C237 1.384 . S
C238 C241 1.382 . S
C239 C237 1.384 . S
C239 C240 1.381 . S
C239 H263 0.930 . S
C240 C239 1.381 . S
C240 C242 1.381 . S
C240 C243 1.487 . S
C241 C238 1.382 . S
C241 C242 1.387 . S
C241 H264 0.930 . S
C242 C240 1.381 . S
C242 C241 1.387 . S
C242 H265 0.931 . S
C243 C236 1.399 . S
C243 C240 1.487 . S
C243 N275 1.343 . S
C244 C245 1.384 . S
C244 C246 1.384 . S
C244 H266 0.931 . S
C245 C244 1.384 . S
C245 C248 1.382 . S
C246 C244 1.384 . S
C246 C247 1.381 . S
C246 H267 0.930 . S
C247 C246 1.381 . S
C247 C249 1.381 . S
C247 C250 1.487 . S
C248 C245 1.382 . S
C248 C249 1.387 . S
C248 H268 0.930 . S
C249 C247 1.381 . S
C249 C248 1.387 . S
C249 H269 0.931 . S
C250 C247 1.487 . S
C250 C257 1.399 . S
C250 N275 1.343 . S
C251 C252 1.384 . S
C251 C253 1.384 . S
C251 H270 0.931 . S
C252 C251 1.384 . S
C252 C255 1.382 . S
C253 C251 1.384 . S
C253 C254 1.381 . S
C253 H271 0.930 . S
C254 C253 1.381 . S
C254 C256 1.381 . S
C254 C257 1.487 . S
C255 C252 1.382 . S
C255 C256 1.387 . S
C255 H272 0.930 . S
C256 C254 1.381 . S
C256 C255 1.387 . S
C256 H273 0.931 . S
C257 C250 1.399 . S
C257 C254 1.487 . S
C257 N274 1.343 . S
H258 C230 0.931 . S
H259 C232 0.930 . S
H260 C234 0.930 . S
H261 C235 0.931 . S
H262 C237 0.931 . S
H263 C239 0.930 . S
H264 C241 0.930 . S
H265 C242 0.931 . S
H266 C244 0.931 . S
H267 C246 0.930 . S
H268 C248 0.930 . S
H269 C249 0.931 . S
H270 C251 0.931 . S
H271 C253 0.930 . S
H272 C255 0.930 . S
H273 C256 0.931 . S
N274 C236 1.343 . S
N274 C257 1.343 . S
N275 C243 1.343 . S
N275 C250 1.343 . S
Co276 O277 2.216 . S
Co276 O278 2.091 . S
Co276 O280 2.004 . S
Co276 O286 2.021 . S
Co276 O288 2.137 . S
Co276 O289 2.244 . S
O277 Co276 2.216 . S
O277 C284 1.247 . S
O278 Co276 2.091 . S
O278 C284 1.261 . S
C279 O288 1.247 . S
C279 O289 1.272 . S
O280 Co276 2.004 . S
O280 C285 1.259 . S
Co281 O282 2.061 . S
Co281 O287 2.052 . S
Co281 O289 2.135 . S
O282 Co281 2.061 . S
O282 C285 1.235 . S
C283 O286 1.238 . S
C283 O287 1.241 . S
C284 O277 1.247 . S
C284 O278 1.261 . S
C285 O280 1.259 . S
C285 O282 1.235 . S
O286 Co276 2.021 . S
O286 C283 1.238 . S
O287 Co281 2.052 . S
O287 C283 1.241 . S
O288 Co276 2.137 . S
O288 C279 1.247 . S
O289 Co276 2.244 . S
O289 C279 1.272 . S
O289 Co281 2.135 . S
Co290 O291 2.216 . S
Co290 O292 2.091 . S
Co290 O294 2.004 . S
Co290 O300 2.021 . S
Co290 O302 2.137 . S
Co290 O303 2.244 . S
O291 Co290 2.216 . S
O291 C298 1.247 . S
O292 Co290 2.091 . S
O292 C298 1.261 . S
C293 O302 1.247 . S
C293 O303 1.272 . S
O294 Co290 2.004 . S
O294 C299 1.259 . S
Co295 O296 2.061 . S
Co295 O301 2.052 . S
Co295 O303 2.135 . S
O296 Co295 2.061 . S
O296 C299 1.235 . S
C297 O300 1.238 . S
C297 O301 1.241 . S
C298 O291 1.247 . S
C298 O292 1.261 . S
C299 O294 1.259 . S
C299 O296 1.235 . S
O300 Co290 2.021 . S
O300 C297 1.238 . S
O301 Co295 2.052 . S
O301 C297 1.241 . S
O302 Co290 2.137 . S
O302 C293 1.247 . S
O303 Co290 2.244 . S
O303 C293 1.272 . S
O303 Co295 2.135 . S
Co304 O305 2.216 . S
Co304 O306 2.091 . S
Co304 O308 2.004 . S
Co304 O314 2.021 . S
Co304 O316 2.137 . S
Co304 O317 2.244 . S
O305 Co304 2.216 . S
O305 C312 1.247 . S
O306 Co304 2.091 . S
O306 C312 1.261 . S
C307 O316 1.247 . S
C307 O317 1.272 . S
O308 Co304 2.004 . S
O308 C313 1.259 . S
Co309 O310 2.061 . S
Co309 O315 2.052 . S
Co309 O317 2.135 . S
O310 Co309 2.061 . S
O310 C313 1.235 . S
C311 O314 1.238 . S
C311 O315 1.241 . S
C312 O305 1.247 . S
C312 O306 1.261 . S
C313 O308 1.259 . S
C313 O310 1.235 . S
O314 Co304 2.021 . S
O314 C311 1.238 . S
O315 Co309 2.052 . S
O315 C311 1.241 . S
O316 Co304 2.137 . S
O316 C307 1.247 . S
O317 Co304 2.244 . S
O317 C307 1.272 . S
O317 Co309 2.135 . S
Co318 O319 2.216 . S
Co318 O320 2.091 . S
Co318 O322 2.004 . S
Co318 O328 2.021 . S
Co318 O330 2.137 . S
Co318 O331 2.244 . S
O319 Co318 2.216 . S
O319 C326 1.247 . S
O320 Co318 2.091 . S
O320 C326 1.261 . S
C321 O330 1.247 . S
C321 O331 1.272 . S
O322 Co318 2.004 . S
O322 C327 1.259 . S
Co323 O324 2.061 . S
Co323 O329 2.052 . S
Co323 O331 2.135 . S
O324 Co323 2.061 . S
O324 C327 1.235 . S
C325 O328 1.238 . S
C325 O329 1.241 . S
C326 O319 1.247 . S
C326 O320 1.261 . S
C327 O322 1.259 . S
C327 O324 1.235 . S
O328 Co318 2.021 . S
O328 C325 1.238 . S
O329 Co323 2.052 . S
O329 C325 1.241 . S
O330 Co318 2.137 . S
O330 C321 1.247 . S
O331 Co318 2.244 . S
O331 C321 1.272 . S
O331 Co323 2.135 . S
Co332 O333 2.216 . S
Co332 O334 2.091 . S
Co332 O336 2.004 . S
Co332 O342 2.021 . S
Co332 O344 2.137 . S
Co332 O345 2.244 . S
O333 Co332 2.216 . S
O333 C340 1.247 . S
O334 Co332 2.091 . S
O334 C340 1.261 . S
C335 O344 1.247 . S
C335 O345 1.272 . S
O336 Co332 2.004 . S
O336 C341 1.259 . S
Co337 O338 2.061 . S
Co337 O343 2.052 . S
Co337 O345 2.135 . S
O338 Co337 2.061 . S
O338 C341 1.235 . S
C339 O342 1.238 . S
C339 O343 1.241 . S
C340 O333 1.247 . S
C340 O334 1.261 . S
C341 O336 1.259 . S
C341 O338 1.235 . S
O342 Co332 2.021 . S
O342 C339 1.238 . S
O343 Co337 2.052 . S
O343 C339 1.241 . S
O344 Co332 2.137 . S
O344 C335 1.247 . S
O345 Co332 2.244 . S
O345 C335 1.272 . S
O345 Co337 2.135 . S
Co346 O347 2.216 . S
Co346 O348 2.091 . S
Co346 O350 2.004 . S
Co346 O356 2.021 . S
Co346 O358 2.137 . S
Co346 O359 2.244 . S
O347 Co346 2.216 . S
O347 C354 1.247 . S
O348 Co346 2.091 . S
O348 C354 1.261 . S
C349 O358 1.247 . S
C349 O359 1.272 . S
O350 Co346 2.004 . S
O350 C355 1.259 . S
Co351 O352 2.061 . S
Co351 O357 2.052 . S
Co351 O359 2.135 . S
O352 Co351 2.061 . S
O352 C355 1.235 . S
C353 O356 1.238 . S
C353 O357 1.241 . S
C354 O347 1.247 . S
C354 O348 1.261 . S
C355 O350 1.259 . S
C355 O352 1.235 . S
O356 Co346 2.021 . S
O356 C353 1.238 . S
O357 Co351 2.052 . S
O357 C353 1.241 . S
O358 Co346 2.137 . S
O358 C349 1.247 . S
O359 Co346 2.244 . S
O359 C349 1.272 . S
O359 Co351 2.135 . S
H360 C368 0.929 . S
H361 C370 0.930 . S
H362 C372 0.930 . S
H363 C375 0.929 . S
H364 C378 0.930 . S
H365 C380 0.960 . S
H366 C380 0.960 . S
H367 C380 0.960 . S
C368 H360 0.929 . S
C368 C369 1.377 . S
C368 C370 1.384 . S
C369 C368 1.377 . S
C369 C375 1.390 . S
C370 H361 0.930 . S
C370 C368 1.384 . S
C370 C371 1.372 . S
C371 C370 1.372 . S
C371 C372 1.400 . S
C371 C376 1.490 . S
C372 H362 0.930 . S
C372 C371 1.400 . S
C372 C375 1.386 . S
H373 C389 0.930 . S
H374 C390 0.931 . S
C375 H363 0.929 . S
C375 C369 1.390 . S
C375 C372 1.386 . S
C376 C371 1.490 . S
C376 C378 1.395 . S
C376 C379 1.403 . S
H377 C383 0.930 . S
C378 H364 0.930 . S
C378 C376 1.395 . S
C378 C381 1.403 . S
C379 C376 1.403 . S
C379 C380 1.524 . S
C379 C383 1.400 . S
C380 H365 0.960 . S
C380 H366 0.960 . S
C380 H367 0.960 . S
C380 C379 1.524 . S
C381 C378 1.403 . S
C381 C382 1.392 . S
C381 C385 1.495 . S
C382 C381 1.392 . S
C382 C383 1.385 . S
C382 C384 1.478 . S
C383 H377 0.930 . S
C383 C379 1.400 . S
C383 C382 1.385 . S
C384 C382 1.478 . S
C384 C386 1.381 . S
C384 C390 1.383 . S
C385 C381 1.495 . S
C385 H391 0.959 . S
C385 H392 0.961 . S
C385 H393 0.960 . S
C386 C384 1.381 . S
C386 C387 1.394 . S
C386 H394 0.930 . S
C387 C386 1.394 . S
C387 C388 1.383 . S
C387 H395 0.929 . S
C388 C387 1.383 . S
C388 C389 1.377 . S
C389 H373 0.930 . S
C389 C388 1.377 . S
C389 C390 1.379 . S
C390 H374 0.931 . S
C390 C384 1.383 . S
C390 C389 1.379 . S
H391 C385 0.959 . S
H392 C385 0.961 . S
H393 C385 0.960 . S
H394 C386 0.930 . S
H395 C387 0.929 . S
H396 C404 0.929 . S
H397 C406 0.930 . S
H398 C408 0.930 . S
H399 C411 0.929 . S
H400 C414 0.930 . S
H401 C416 0.960 . S
H402 C416 0.960 . S
H403 C416 0.960 . S
C404 H396 0.929 . S
C404 C405 1.377 . S
C404 C406 1.384 . S
C405 C404 1.377 . S
C405 C411 1.390 . S
C406 H397 0.930 . S
C406 C404 1.384 . S
C406 C407 1.372 . S
C407 C406 1.372 . S
C407 C408 1.400 . S
C407 C412 1.490 . S
C408 H398 0.930 . S
C408 C407 1.400 . S
C408 C411 1.386 . S
H409 C425 0.930 . S
H410 C426 0.931 . S
C411 H399 0.929 . S
C411 C405 1.390 . S
C411 C408 1.386 . S
C412 C407 1.490 . S
C412 C414 1.395 . S
C412 C415 1.403 . S
H413 C419 0.930 . S
C414 H400 0.930 . S
C414 C412 1.395 . S
C414 C417 1.403 . S
C415 C412 1.403 . S
C415 C416 1.524 . S
C415 C419 1.400 . S
C416 H401 0.960 . S
C416 H402 0.960 . S
C416 H403 0.960 . S
C416 C415 1.524 . S
C417 C414 1.403 . S
C417 C418 1.392 . S
C417 C421 1.495 . S
C418 C417 1.392 . S
C418 C419 1.385 . S
C418 C420 1.478 . S
C419 H413 0.930 . S
C419 C415 1.400 . S
C419 C418 1.385 . S
C420 C418 1.478 . S
C420 C422 1.381 . S
C420 C426 1.383 . S
C421 C417 1.495 . S
C421 H427 0.959 . S
C421 H428 0.961 . S
C421 H429 0.960 . S
C422 C420 1.381 . S
C422 C423 1.394 . S
C422 H430 0.930 . S
C423 C422 1.394 . S
C423 C424 1.383 . S
C423 H431 0.929 . S
C424 C423 1.383 . S
C424 C425 1.377 . S
C425 H409 0.930 . S
C425 C424 1.377 . S
C425 C426 1.379 . S
C426 H410 0.931 . S
C426 C420 1.383 . S
C426 C425 1.379 . S
H427 C421 0.959 . S
H428 C421 0.961 . S
H429 C421 0.960 . S
H430 C422 0.930 . S
H431 C423 0.929 . S
H432 C440 0.929 . S
H433 C442 0.930 . S
H434 C444 0.930 . S
H435 C447 0.929 . S
H436 C450 0.930 . S
H437 C452 0.960 . S
H438 C452 0.960 . S
H439 C452 0.960 . S
C440 H432 0.929 . S
C440 C441 1.377 . S
C440 C442 1.384 . S
C441 C440 1.377 . S
C441 C447 1.390 . S
C442 H433 0.930 . S
C442 C440 1.384 . S
C442 C443 1.372 . S
C443 C442 1.372 . S
C443 C444 1.400 . S
C443 C448 1.490 . S
C444 H434 0.930 . S
C444 C443 1.400 . S
C444 C447 1.386 . S
H445 C461 0.930 . S
H446 C462 0.931 . S
C447 H435 0.929 . S
C447 C441 1.390 . S
C447 C444 1.386 . S
C448 C443 1.490 . S
C448 C450 1.395 . S
C448 C451 1.403 . S
H449 C455 0.930 . S
C450 H436 0.930 . S
C450 C448 1.395 . S
C450 C453 1.403 . S
C451 C448 1.403 . S
C451 C452 1.524 . S
C451 C455 1.400 . S
C452 H437 0.960 . S
C452 H438 0.960 . S
C452 H439 0.960 . S
C452 C451 1.524 . S
C453 C450 1.403 . S
C453 C454 1.392 . S
C453 C457 1.495 . S
C454 C453 1.392 . S
C454 C455 1.385 . S
C454 C456 1.478 . S
C455 H449 0.930 . S
C455 C451 1.400 . S
C455 C454 1.385 . S
C456 C454 1.478 . S
C456 C458 1.381 . S
C456 C462 1.383 . S
C457 C453 1.495 . S
C457 H463 0.959 . S
C457 H464 0.961 . S
C457 H465 0.960 . S
C458 C456 1.381 . S
C458 C459 1.394 . S
C458 H466 0.930 . S
C459 C458 1.394 . S
C459 C460 1.383 . S
C459 H467 0.929 . S
C460 C459 1.383 . S
C460 C461 1.377 . S
C461 H445 0.930 . S
C461 C460 1.377 . S
C461 C462 1.379 . S
C462 H446 0.931 . S
C462 C456 1.383 . S
C462 C461 1.379 . S
H463 C457 0.959 . S
H464 C457 0.961 . S
H465 C457 0.960 . S
H466 C458 0.930 . S
H467 C459 0.929 . S
H468 C476 0.929 . S
H469 C478 0.930 . S
H470 C480 0.930 . S
H471 C483 0.929 . S
H472 C486 0.930 . S
H473 C488 0.960 . S
H474 C488 0.960 . S
H475 C488 0.960 . S
C476 H468 0.929 . S
C476 C477 1.377 . S
C476 C478 1.384 . S
C477 C476 1.377 . S
C477 C483 1.390 . S
C478 H469 0.930 . S
C478 C476 1.384 . S
C478 C479 1.372 . S
C479 C478 1.372 . S
C479 C480 1.400 . S
C479 C484 1.490 . S
C480 H470 0.930 . S
C480 C479 1.400 . S
C480 C483 1.386 . S
H481 C497 0.930 . S
H482 C498 0.931 . S
C483 H471 0.929 . S
C483 C477 1.390 . S
C483 C480 1.386 . S
C484 C479 1.490 . S
C484 C486 1.395 . S
C484 C487 1.403 . S
H485 C491 0.930 . S
C486 H472 0.930 . S
C486 C484 1.395 . S
C486 C489 1.403 . S
C487 C484 1.403 . S
C487 C488 1.524 . S
C487 C491 1.400 . S
C488 H473 0.960 . S
C488 H474 0.960 . S
C488 H475 0.960 . S
C488 C487 1.524 . S
C489 C486 1.403 . S
C489 C490 1.392 . S
C489 C493 1.495 . S
C490 C489 1.392 . S
C490 C491 1.385 . S
C490 C492 1.478 . S
C491 H485 0.930 . S
C491 C487 1.400 . S
C491 C490 1.385 . S
C492 C490 1.478 . S
C492 C494 1.381 . S
C492 C498 1.383 . S
C493 C489 1.495 . S
C493 H499 0.959 . S
C493 H500 0.961 . S
C493 H501 0.960 . S
C494 C492 1.381 . S
C494 C495 1.394 . S
C494 H502 0.930 . S
C495 C494 1.394 . S
C495 C496 1.383 . S
C495 H503 0.929 . S
C496 C495 1.383 . S
C496 C497 1.377 . S
C497 H481 0.930 . S
C497 C496 1.377 . S
C497 C498 1.379 . S
C498 H482 0.931 . S
C498 C492 1.383 . S
C498 C497 1.379 . S
H499 C493 0.959 . S
H500 C493 0.961 . S
H501 C493 0.960 . S
H502 C494 0.930 . S
H503 C495 0.929 . S
H504 C512 0.929 . S
H505 C514 0.930 . S
H506 C516 0.930 . S
H507 C519 0.929 . S
H508 C522 0.930 . S
H509 C524 0.960 . S
H510 C524 0.960 . S
H511 C524 0.960 . S
C512 H504 0.929 . S
C512 C513 1.377 . S
C512 C514 1.384 . S
C513 C512 1.377 . S
C513 C519 1.390 . S
C514 H505 0.930 . S
C514 C512 1.384 . S
C514 C515 1.372 . S
C515 C514 1.372 . S
C515 C516 1.400 . S
C515 C520 1.490 . S
C516 H506 0.930 . S
C516 C515 1.400 . S
C516 C519 1.386 . S
H517 C533 0.930 . S
H518 C534 0.931 . S
C519 H507 0.929 . S
C519 C513 1.390 . S
C519 C516 1.386 . S
C520 C515 1.490 . S
C520 C522 1.395 . S
C520 C523 1.403 . S
H521 C527 0.930 . S
C522 H508 0.930 . S
C522 C520 1.395 . S
C522 C525 1.403 . S
C523 C520 1.403 . S
C523 C524 1.524 . S
C523 C527 1.400 . S
C524 H509 0.960 . S
C524 H510 0.960 . S
C524 H511 0.960 . S
C524 C523 1.524 . S
C525 C522 1.403 . S
C525 C526 1.392 . S
C525 C529 1.495 . S
C526 C525 1.392 . S
C526 C527 1.385 . S
C526 C528 1.478 . S
C527 H521 0.930 . S
C527 C523 1.400 . S
C527 C526 1.385 . S
C528 C526 1.478 . S
C528 C530 1.381 . S
C528 C534 1.383 . S
C529 C525 1.495 . S
C529 H535 0.959 . S
C529 H536 0.961 . S
C529 H537 0.960 . S
C530 C528 1.381 . S
C530 C531 1.394 . S
C530 H538 0.930 . S
C531 C530 1.394 . S
C531 C532 1.383 . S
C531 H539 0.929 . S
C532 C531 1.383 . S
C532 C533 1.377 . S
C533 H517 0.930 . S
C533 C532 1.377 . S
C533 C534 1.379 . S
C534 H518 0.931 . S
C534 C528 1.383 . S
C534 C533 1.379 . S
H535 C529 0.959 . S
H536 C529 0.961 . S
H537 C529 0.960 . S
H538 C530 0.930 . S
H539 C531 0.929 . S
H540 C548 0.929 . S
H541 C550 0.930 . S
H542 C552 0.930 . S
H543 C555 0.929 . S
H544 C558 0.930 . S
H545 C560 0.960 . S
H546 C560 0.960 . S
H547 C560 0.960 . S
C548 H540 0.929 . S
C548 C549 1.377 . S
C548 C550 1.384 . S
C549 C548 1.377 . S
C549 C555 1.390 . S
C550 H541 0.930 . S
C550 C548 1.384 . S
C550 C551 1.372 . S
C551 C550 1.372 . S
C551 C552 1.400 . S
C551 C556 1.490 . S
C552 H542 0.930 . S
C552 C551 1.400 . S
C552 C555 1.386 . S
H553 C569 0.930 . S
H554 C570 0.931 . S
C555 H543 0.929 . S
C555 C549 1.390 . S
C555 C552 1.386 . S
C556 C551 1.490 . S
C556 C558 1.395 . S
C556 C559 1.403 . S
H557 C563 0.930 . S
C558 H544 0.930 . S
C558 C556 1.395 . S
C558 C561 1.403 . S
C559 C556 1.403 . S
C559 C560 1.524 . S
C559 C563 1.400 . S
C560 H545 0.960 . S
C560 H546 0.960 . S
C560 H547 0.960 . S
C560 C559 1.524 . S
C561 C558 1.403 . S
C561 C562 1.392 . S
C561 C565 1.495 . S
C562 C561 1.392 . S
C562 C563 1.385 . S
C562 C564 1.478 . S
C563 H557 0.930 . S
C563 C559 1.400 . S
C563 C562 1.385 . S
C564 C562 1.478 . S
C564 C566 1.381 . S
C564 C570 1.383 . S
C565 C561 1.495 . S
C565 H571 0.959 . S
C565 H572 0.961 . S
C565 H573 0.960 . S
C566 C564 1.381 . S
C566 C567 1.394 . S
C566 H574 0.930 . S
C567 C566 1.394 . S
C567 C568 1.383 . S
C567 H575 0.929 . S
C568 C567 1.383 . S
C568 C569 1.377 . S
C569 H553 0.930 . S
C569 C568 1.377 . S
C569 C570 1.379 . S
C570 H554 0.931 . S
C570 C564 1.383 . S
C570 C569 1.379 . S
H571 C565 0.959 . S
H572 C565 0.961 . S
H573 C565 0.960 . S
H574 C566 0.930 . S
H575 C567 0.929 . S
H576 C584 0.929 . S
H577 C586 0.930 . S
H578 C588 0.930 . S
H579 C591 0.929 . S
H580 C594 0.930 . S
H581 C596 0.960 . S
H582 C596 0.960 . S
H583 C596 0.960 . S
C584 H576 0.929 . S
C584 C585 1.377 . S
C584 C586 1.384 . S
C585 C584 1.377 . S
C585 C591 1.390 . S
C586 H577 0.930 . S
C586 C584 1.384 . S
C586 C587 1.372 . S
C587 C586 1.372 . S
C587 C588 1.400 . S
C587 C592 1.490 . S
C588 H578 0.930 . S
C588 C587 1.400 . S
C588 C591 1.386 . S
H589 C605 0.930 . S
H590 C606 0.931 . S
C591 H579 0.929 . S
C591 C585 1.390 . S
C591 C588 1.386 . S
C592 C587 1.490 . S
C592 C594 1.395 . S
C592 C595 1.403 . S
H593 C599 0.930 . S
C594 H580 0.930 . S
C594 C592 1.395 . S
C594 C597 1.403 . S
C595 C592 1.403 . S
C595 C596 1.524 . S
C595 C599 1.400 . S
C596 H581 0.960 . S
C596 H582 0.960 . S
C596 H583 0.960 . S
C596 C595 1.524 . S
C597 C594 1.403 . S
C597 C598 1.392 . S
C597 C601 1.495 . S
C598 C597 1.392 . S
C598 C599 1.385 . S
C598 C600 1.478 . S
C599 H593 0.930 . S
C599 C595 1.400 . S
C599 C598 1.385 . S
C600 C598 1.478 . S
C600 C602 1.381 . S
C600 C606 1.383 . S
C601 C597 1.495 . S
C601 H607 0.959 . S
C601 H608 0.961 . S
C601 H609 0.960 . S
C602 C600 1.381 . S
C602 C603 1.394 . S
C602 H610 0.930 . S
C603 C602 1.394 . S
C603 C604 1.383 . S
C603 H611 0.929 . S
C604 C603 1.383 . S
C604 C605 1.377 . S
C605 H589 0.930 . S
C605 C604 1.377 . S
C605 C606 1.379 . S
C606 H590 0.931 . S
C606 C600 1.383 . S
C606 C605 1.379 . S
H607 C601 0.959 . S
H608 C601 0.961 . S
H609 C601 0.960 . S
H610 C602 0.930 . S
H611 C603 0.929 . S
H612 C620 0.929 . S
H613 C622 0.930 . S
H614 C624 0.930 . S
H615 C627 0.929 . S
H616 C630 0.930 . S
H617 C632 0.960 . S
H618 C632 0.960 . S
H619 C632 0.960 . S
C620 H612 0.929 . S
C620 C621 1.377 . S
C620 C622 1.384 . S
C621 C620 1.377 . S
C621 C627 1.390 . S
C622 H613 0.930 . S
C622 C620 1.384 . S
C622 C623 1.372 . S
C623 C622 1.372 . S
C623 C624 1.400 . S
C623 C628 1.490 . S
C624 H614 0.930 . S
C624 C623 1.400 . S
C624 C627 1.386 . S
H625 C641 0.930 . S
H626 C642 0.931 . S
C627 H615 0.929 . S
C627 C621 1.390 . S
C627 C624 1.386 . S
C628 C623 1.490 . S
C628 C630 1.395 . S
C628 C631 1.403 . S
H629 C635 0.930 . S
C630 H616 0.930 . S
C630 C628 1.395 . S
C630 C633 1.403 . S
C631 C628 1.403 . S
C631 C632 1.524 . S
C631 C635 1.400 . S
C632 H617 0.960 . S
C632 H618 0.960 . S
C632 H619 0.960 . S
C632 C631 1.524 . S
C633 C630 1.403 . S
C633 C634 1.392 . S
C633 C637 1.495 . S
C634 C633 1.392 . S
C634 C635 1.385 . S
C634 C636 1.478 . S
C635 H629 0.930 . S
C635 C631 1.400 . S
C635 C634 1.385 . S
C636 C634 1.478 . S
C636 C638 1.381 . S
C636 C642 1.383 . S
C637 C633 1.495 . S
C637 H643 0.959 . S
C637 H644 0.961 . S
C637 H645 0.960 . S
C638 C636 1.381 . S
C638 C639 1.394 . S
C638 H646 0.930 . S
C639 C638 1.394 . S
C639 C640 1.383 . S
C639 H647 0.929 . S
C640 C639 1.383 . S
C640 C641 1.377 . S
C641 H625 0.930 . S
C641 C640 1.377 . S
C641 C642 1.379 . S
C642 H626 0.931 . S
C642 C636 1.383 . S
C642 C641 1.379 . S
H643 C637 0.959 . S
H644 C637 0.961 . S
H645 C637 0.960 . S
H646 C638 0.930 . S
H647 C639 0.929 . S
H648 C656 0.929 . S
H649 C658 0.930 . S
H650 C660 0.930 . S
H651 C663 0.929 . S
H652 C666 0.930 . S
H653 C668 0.960 . S
H654 C668 0.960 . S
H655 C668 0.960 . S
C656 H648 0.929 . S
C656 C657 1.377 . S
C656 C658 1.384 . S
C657 C656 1.377 . S
C657 C663 1.390 . S
C658 H649 0.930 . S
C658 C656 1.384 . S
C658 C659 1.372 . S
C659 C658 1.372 . S
C659 C660 1.400 . S
C659 C664 1.490 . S
C660 H650 0.930 . S
C660 C659 1.400 . S
C660 C663 1.386 . S
H661 C677 0.930 . S
H662 C678 0.931 . S
C663 H651 0.929 . S
C663 C657 1.390 . S
C663 C660 1.386 . S
C664 C659 1.490 . S
C664 C666 1.395 . S
C664 C667 1.403 . S
H665 C671 0.930 . S
C666 H652 0.930 . S
C666 C664 1.395 . S
C666 C669 1.403 . S
C667 C664 1.403 . S
C667 C668 1.524 . S
C667 C671 1.400 . S
C668 H653 0.960 . S
C668 H654 0.960 . S
C668 H655 0.960 . S
C668 C667 1.524 . S
C669 C666 1.403 . S
C669 C670 1.392 . S
C669 C673 1.495 . S
C670 C669 1.392 . S
C670 C671 1.385 . S
C670 C672 1.478 . S
C671 H665 0.930 . S
C671 C667 1.400 . S
C671 C670 1.385 . S
C672 C670 1.478 . S
C672 C674 1.381 . S
C672 C678 1.383 . S
C673 C669 1.495 . S
C673 H679 0.959 . S
C673 H680 0.961 . S
C673 H681 0.960 . S
C674 C672 1.381 . S
C674 C675 1.394 . S
C674 H682 0.930 . S
C675 C674 1.394 . S
C675 C676 1.383 . S
C675 H683 0.929 . S
C676 C675 1.383 . S
C676 C677 1.377 . S
C677 H661 0.930 . S
C677 C676 1.377 . S
C677 C678 1.379 . S
C678 H662 0.931 . S
C678 C672 1.383 . S
C678 C677 1.379 . S
H679 C673 0.959 . S
H680 C673 0.961 . S
H681 C673 0.960 . S
H682 C674 0.930 . S
H683 C675 0.929 . S
H684 C692 0.929 . S
H685 C694 0.930 . S
H686 C696 0.930 . S
H687 C699 0.929 . S
H688 C702 0.930 . S
H689 C704 0.960 . S
H690 C704 0.960 . S
H691 C704 0.960 . S
C692 H684 0.929 . S
C692 C693 1.377 . S
C692 C694 1.384 . S
C693 C692 1.377 . S
C693 C699 1.390 . S
C694 H685 0.930 . S
C694 C692 1.384 . S
C694 C695 1.372 . S
C695 C694 1.372 . S
C695 C696 1.400 . S
C695 C700 1.490 . S
C696 H686 0.930 . S
C696 C695 1.400 . S
C696 C699 1.386 . S
H697 C713 0.930 . S
H698 C714 0.931 . S
C699 H687 0.929 . S
C699 C693 1.390 . S
C699 C696 1.386 . S
C700 C695 1.490 . S
C700 C702 1.395 . S
C700 C703 1.403 . S
H701 C707 0.930 . S
C702 H688 0.930 . S
C702 C700 1.395 . S
C702 C705 1.403 . S
C703 C700 1.403 . S
C703 C704 1.524 . S
C703 C707 1.400 . S
C704 H689 0.960 . S
C704 H690 0.960 . S
C704 H691 0.960 . S
C704 C703 1.524 . S
C705 C702 1.403 . S
C705 C706 1.392 . S
C705 C709 1.495 . S
C706 C705 1.392 . S
C706 C707 1.385 . S
C706 C708 1.478 . S
C707 H701 0.930 . S
C707 C703 1.400 . S
C707 C706 1.385 . S
C708 C706 1.478 . S
C708 C710 1.381 . S
C708 C714 1.383 . S
C709 C705 1.495 . S
C709 H715 1.009 . S
C709 H716 0.961 . S
C709 H717 0.960 . S
C710 C708 1.381 . S
C710 C711 1.394 . S
C710 H718 0.930 . S
C711 C710 1.394 . S
C711 C712 1.383 . S
C711 H719 0.929 . S
C712 C711 1.383 . S
C712 C713 1.377 . S
C713 H697 0.930 . S
C713 C712 1.377 . S
C713 C714 1.379 . S
C714 H698 0.931 . S
C714 C708 1.383 . S
C714 C713 1.379 . S
H715 C709 1.009 . S
H716 C709 0.961 . S
H717 C709 0.960 . S
H718 C710 0.930 . S
H719 C711 0.929 . S
H720 C728 0.929 . S
H721 C730 0.930 . S
H722 C732 0.930 . S
H723 C735 0.929 . S
H724 C738 0.930 . S
H725 C740 0.960 . S
H726 C740 0.960 . S
H727 C740 0.960 . S
C728 H720 0.929 . S
C728 C729 1.377 . S
C728 C730 1.384 . S
C729 C728 1.377 . S
C729 C735 1.390 . S
C730 H721 0.930 . S
C730 C728 1.384 . S
C730 C731 1.372 . S
C731 C730 1.372 . S
C731 C732 1.400 . S
C731 C736 1.490 . S
C732 H722 0.930 . S
C732 C731 1.400 . S
C732 C735 1.386 . S
H733 C749 0.930 . S
H734 C750 0.931 . S
C735 H723 0.929 . S
C735 C729 1.390 . S
C735 C732 1.386 . S
C736 C731 1.490 . S
C736 C738 1.395 . S
C736 C739 1.403 . S
H737 C743 0.930 . S
C738 H724 0.930 . S
C738 C736 1.395 . S
C738 C741 1.403 . S
C739 C736 1.403 . S
C739 C740 1.524 . S
C739 C743 1.400 . S
C740 H725 0.960 . S
C740 H726 0.960 . S
C740 H727 0.960 . S
C740 C739 1.524 . S
C741 C738 1.403 . S
C741 C742 1.392 . S
C741 C745 1.495 . S
C742 C741 1.392 . S
C742 C743 1.385 . S
C742 C744 1.478 . S
C743 H737 0.930 . S
C743 C739 1.400 . S
C743 C742 1.385 . S
C744 C742 1.478 . S
C744 C746 1.381 . S
C744 C750 1.383 . S
C745 C741 1.495 . S
C745 H751 0.959 . S
C745 H752 0.961 . S
C745 H753 0.960 . S
C746 C744 1.381 . S
C746 C747 1.394 . S
C746 H754 0.930 . S
C747 C746 1.394 . S
C747 C748 1.383 . S
C747 H755 0.929 . S
C748 C747 1.383 . S
C748 C749 1.377 . S
C749 H733 0.930 . S
C749 C748 1.377 . S
C749 C750 1.379 . S
C750 H734 0.931 . S
C750 C744 1.383 . S
C750 C749 1.379 . S
H751 C745 0.959 . S
H752 C745 0.961 . S
H753 C745 0.960 . S
H754 C746 0.930 . S
H755 C747 0.929 . S
H756 C764 0.929 . S
H757 C766 0.930 . S
H758 C768 0.930 . S
H759 C771 0.929 . S
H760 C774 0.930 . S
H761 C776 0.960 . S
H762 C776 0.960 . S
H763 C776 0.960 . S
C764 H756 0.929 . S
C764 C765 1.377 . S
C764 C766 1.384 . S
C765 C764 1.377 . S
C765 C771 1.390 . S
C766 H757 0.930 . S
C766 C764 1.384 . S
C766 C767 1.372 . S
C767 C766 1.372 . S
C767 C768 1.400 . S
C767 C772 1.490 . S
C768 H758 0.930 . S
C768 C767 1.400 . S
C768 C771 1.386 . S
H769 C785 0.930 . S
H770 C786 0.931 . S
C771 H759 0.929 . S
C771 C765 1.390 . S
C771 C768 1.386 . S
C772 C767 1.490 . S
C772 C774 1.395 . S
C772 C775 1.403 . S
H773 C779 0.930 . S
C774 H760 0.930 . S
C774 C772 1.395 . S
C774 C777 1.403 . S
C775 C772 1.403 . S
C775 C776 1.524 . S
C775 C779 1.400 . S
C776 H761 0.960 . S
C776 H762 0.960 . S
C776 H763 0.960 . S
C776 C775 1.524 . S
C777 C774 1.403 . S
C777 C778 1.392 . S
C777 C781 1.495 . S
C778 C777 1.392 . S
C778 C779 1.385 . S
C778 C780 1.478 . S
C779 H773 0.930 . S
C779 C775 1.400 . S
C779 C778 1.385 . S
C780 C778 1.478 . S
C780 C782 1.381 . S
C780 C786 1.383 . S
C781 C777 1.495 . S
C781 H787 0.959 . S
C781 H788 0.961 . S
C781 H789 0.960 . S
C782 C780 1.381 . S
C782 C783 1.394 . S
C782 H790 0.930 . S
C783 C782 1.394 . S
C783 C784 1.383 . S
C783 H791 0.929 . S
C784 C783 1.383 . S
C784 C785 1.377 . S
C785 H769 0.930 . S
C785 C784 1.377 . S
C785 C786 1.379 . S
C786 H770 0.931 . S
C786 C780 1.383 . S
C786 C785 1.379 . S
H787 C781 0.959 . S
H788 C781 0.961 . S
H789 C781 0.960 . S
H790 C782 0.930 . S
H791 C783 0.929 . S
H792 C800 0.929 . S
H793 C802 0.930 . S
H794 C804 0.930 . S
H795 C807 0.929 . S
H796 C810 0.930 . S
H797 C812 0.960 . S
H798 C812 0.960 . S
H799 C812 0.960 . S
C800 H792 0.929 . S
C800 C801 1.377 . S
C800 C802 1.384 . S
C801 C800 1.377 . S
C801 C807 1.390 . S
C802 H793 0.930 . S
C802 C800 1.384 . S
C802 C803 1.372 . S
C803 C802 1.372 . S
C803 C804 1.400 . S
C803 C808 1.490 . S
C804 H794 0.930 . S
C804 C803 1.400 . S
C804 C807 1.386 . S
H805 C821 0.930 . S
H806 C822 0.931 . S
C807 H795 0.929 . S
C807 C801 1.390 . S
C807 C804 1.386 . S
C808 C803 1.490 . S
C808 C810 1.395 . S
C808 C811 1.403 . S
H809 C815 0.930 . S
C810 H796 0.930 . S
C810 C808 1.395 . S
C810 C813 1.403 . S
C811 C808 1.403 . S
C811 C812 1.524 . S
C811 C815 1.400 . S
C812 H797 0.960 . S
C812 H798 0.960 . S
C812 H799 0.960 . S
C812 C811 1.524 . S
C813 C810 1.403 . S
C813 C814 1.392 . S
C813 C817 1.495 . S
C814 C813 1.392 . S
C814 C815 1.385 . S
C814 C816 1.478 . S
C815 H809 0.930 . S
C815 C811 1.400 . S
C815 C814 1.385 . S
C816 C814 1.478 . S
C816 C818 1.381 . S
C816 C822 1.383 . S
C817 C813 1.495 . S
C817 H823 0.959 . S
C817 H824 0.961 . S
C817 H825 0.960 . S
C818 C816 1.381 . S
C818 C819 1.394 . S
C818 H826 0.930 . S
C819 C818 1.394 . S
C819 C820 1.383 . S
C819 H827 0.929 . S
C820 C819 1.383 . S
C820 C821 1.377 . S
C821 H805 0.930 . S
C821 C820 1.377 . S
C821 C822 1.379 . S
C822 H806 0.931 . S
C822 C816 1.383 . S
C822 C821 1.379 . S
H823 C817 0.959 . S
H824 C817 0.961 . S
H825 C817 0.960 . S
H826 C818 0.930 . S
H827 C819 0.929 . S
H828 C836 0.929 . S
H829 C838 0.930 . S
H830 C840 0.930 . S
H831 C843 0.929 . S
H832 C846 0.930 . S
H833 C848 0.960 . S
H834 C848 0.960 . S
H835 C848 0.960 . S
C836 H828 0.929 . S
C836 C837 1.377 . S
C836 C838 1.384 . S
C837 C836 1.377 . S
C837 C843 1.390 . S
C838 H829 0.930 . S
C838 C836 1.384 . S
C838 C839 1.372 . S
C839 C838 1.372 . S
C839 C840 1.400 . S
C839 C844 1.490 . S
C840 H830 0.930 . S
C840 C839 1.400 . S
C840 C843 1.386 . S
H841 C857 0.930 . S
H842 C858 0.931 . S
C843 H831 0.929 . S
C843 C837 1.390 . S
C843 C840 1.386 . S
C844 C839 1.490 . S
C844 C846 1.395 . S
C844 C847 1.403 . S
H845 C851 0.930 . S
C846 H832 0.930 . S
C846 C844 1.395 . S
C846 C849 1.403 . S
C847 C844 1.403 . S
C847 C848 1.524 . S
C847 C851 1.400 . S
C848 H833 0.960 . S
C848 H834 0.960 . S
C848 H835 0.960 . S
C848 C847 1.524 . S
C849 C846 1.403 . S
C849 C850 1.392 . S
C849 C853 1.495 . S
C850 C849 1.392 . S
C850 C851 1.385 . S
C850 C852 1.478 . S
C851 H845 0.930 . S
C851 C847 1.400 . S
C851 C850 1.385 . S
C852 C850 1.478 . S
C852 C854 1.381 . S
C852 C858 1.383 . S
C853 C849 1.495 . S
C853 H859 0.959 . S
C853 H860 0.961 . S
C853 H861 0.960 . S
C854 C852 1.381 . S
C854 C855 1.394 . S
C854 H862 0.930 . S
C855 C854 1.394 . S
C855 C856 1.383 . S
C855 H863 0.929 . S
C856 C855 1.383 . S
C856 C857 1.377 . S
C857 H841 0.930 . S
C857 C856 1.377 . S
C857 C858 1.379 . S
C858 H842 0.931 . S
C858 C852 1.383 . S
C858 C857 1.379 . S
H859 C853 0.959 . S
H860 C853 0.961 . S
H861 C853 0.960 . S
H862 C854 0.930 . S
H863 C855 0.929 . S
H864 C872 0.929 . S
H865 C874 0.930 . S
H866 C876 0.930 . S
H867 C879 0.929 . S
H868 C882 0.930 . S
H869 C884 0.960 . S
H870 C884 0.960 . S
H871 C884 0.960 . S
C872 H864 0.929 . S
C872 C873 1.377 . S
C872 C874 1.384 . S
C873 C872 1.377 . S
C873 C879 1.390 . S
C874 H865 0.930 . S
C874 C872 1.384 . S
C874 C875 1.372 . S
C875 C874 1.372 . S
C875 C876 1.400 . S
C875 C880 1.490 . S
C876 H866 0.930 . S
C876 C875 1.400 . S
C876 C879 1.386 . S
H877 C893 0.930 . S
H878 C894 0.931 . S
C879 H867 0.929 . S
C879 C873 1.390 . S
C879 C876 1.386 . S
C880 C875 1.490 . S
C880 C882 1.395 . S
C880 C883 1.403 . S
H881 C887 0.930 . S
C882 H868 0.930 . S
C882 C880 1.395 . S
C882 C885 1.403 . S
C883 C880 1.403 . S
C883 C884 1.524 . S
C883 C887 1.400 . S
C884 H869 0.960 . S
C884 H870 0.960 . S
C884 H871 0.960 . S
C884 C883 1.524 . S
C885 C882 1.403 . S
C885 C886 1.392 . S
C885 C889 1.495 . S
C886 C885 1.392 . S
C886 C887 1.385 . S
C886 C888 1.478 . S
C887 H881 0.930 . S
C887 C883 1.400 . S
C887 C886 1.385 . S
C888 C886 1.478 . S
C888 C890 1.381 . S
C888 C894 1.383 . S
C889 C885 1.495 . S
C889 H895 0.959 . S
C889 H896 0.961 . S
C889 H897 0.960 . S
C890 C888 1.381 . S
C890 C891 1.394 . S
C890 H898 0.930 . S
C891 C890 1.394 . S
C891 C892 1.383 . S
C891 H899 0.929 . S
C892 C891 1.383 . S
C892 C893 1.377 . S
C893 H877 0.930 . S
C893 C892 1.377 . S
C893 C894 1.379 . S
C894 H878 0.931 . S
C894 C888 1.383 . S
C894 C893 1.379 . S
H895 C889 0.959 . S
H896 C889 0.961 . S
H897 C889 0.960 . S
H898 C890 0.930 . S
H899 C891 0.929 . S
H900 C908 0.929 . S
H901 C910 0.930 . S
H902 C912 0.930 . S
H903 C915 0.929 . S
H904 C918 0.930 . S
H905 C920 0.960 . S
H906 C920 0.960 . S
H907 C920 0.960 . S
C908 H900 0.929 . S
C908 C909 1.377 . S
C908 C910 1.384 . S
C909 C908 1.377 . S
C909 C915 1.390 . S
C910 H901 0.930 . S
C910 C908 1.384 . S
C910 C911 1.372 . S
C911 C910 1.372 . S
C911 C912 1.400 . S
C911 C916 1.490 . S
C912 H902 0.930 . S
C912 C911 1.400 . S
C912 C915 1.386 . S
H913 C929 0.930 . S
H914 C930 0.931 . S
C915 H903 0.929 . S
C915 C909 1.390 . S
C915 C912 1.386 . S
C916 C911 1.490 . S
C916 C918 1.395 . S
C916 C919 1.403 . S
H917 C923 0.930 . S
C918 H904 0.930 . S
C918 C916 1.395 . S
C918 C921 1.403 . S
C919 C916 1.403 . S
C919 C920 1.524 . S
C919 C923 1.400 . S
C920 H905 0.960 . S
C920 H906 0.960 . S
C920 H907 0.960 . S
C920 C919 1.524 . S
C921 C918 1.403 . S
C921 C922 1.392 . S
C921 C925 1.495 . S
C922 C921 1.392 . S
C922 C923 1.385 . S
C922 C924 1.446 1_556 S
C923 H917 0.930 . S
C923 C919 1.400 . S
C923 C922 1.385 . S
C924 C922 1.446 1_554 S
C924 C926 1.388 . S
C924 C930 1.408 . S
C925 C921 1.495 . S
C925 H931 0.959 . S
C925 H932 0.961 1_556 S
C925 H933 0.960 . S
C926 C924 1.388 . S
C926 C927 1.394 . S
C926 H934 0.930 1_554 S
C927 C926 1.394 . S
C927 C928 1.383 . S
C927 H935 0.929 . S
C928 C927 1.383 . S
C928 C929 1.377 . S
C929 H913 0.930 . S
C929 C928 1.377 . S
C929 C930 1.379 . S
C930 H914 0.931 . S
C930 C924 1.408 . S
C930 C929 1.379 . S
H931 C925 0.959 . S
H932 C925 0.961 1_554 S
H933 C925 0.960 . S
H934 C926 0.930 1_556 S
H935 C927 0.929 . S
H936 C944 0.929 . S
H937 C946 0.930 . S
H938 C948 0.930 . S
H939 C951 0.929 . S
H940 C954 0.930 . S
H941 C956 0.960 . S
H942 C956 0.960 . S
H943 C956 0.960 . S
C944 H936 0.929 . S
C944 C945 1.377 . S
C944 C946 1.384 . S
C945 C944 1.377 . S
C945 C951 1.390 . S
C946 H937 0.930 . S
C946 C944 1.384 . S
C946 C947 1.372 . S
C947 C946 1.372 . S
C947 C948 1.400 . S
C947 C952 1.490 . S
C948 H938 0.930 . S
C948 C947 1.400 . S
C948 C951 1.386 . S
H949 C965 0.930 . S
H950 C966 0.931 . S
C951 H939 0.929 . S
C951 C945 1.390 . S
C951 C948 1.386 . S
C952 C947 1.490 . S
C952 C954 1.395 . S
C952 C955 1.403 . S
H953 C959 0.930 . S
C954 H940 0.930 . S
C954 C952 1.395 . S
C954 C957 1.403 . S
C955 C952 1.403 . S
C955 C956 1.524 . S
C955 C959 1.400 . S
C956 H941 0.960 . S
C956 H942 0.960 . S
C956 H943 0.960 . S
C956 C955 1.524 . S
C957 C954 1.403 . S
C957 C958 1.392 . S
C957 C961 1.495 . S
C958 C957 1.392 . S
C958 C959 1.385 . S
C958 C960 1.478 . S
C959 H953 0.930 . S
C959 C955 1.400 . S
C959 C958 1.385 . S
C960 C958 1.478 . S
C960 C962 1.381 . S
C960 C966 1.383 . S
C961 C957 1.495 . S
C961 H967 0.959 . S
C961 H968 0.961 . S
C961 H969 0.960 . S
C962 C960 1.381 . S
C962 C963 1.394 . S
C962 H970 0.930 . S
C963 C962 1.394 . S
C963 C964 1.383 . S
C963 H971 0.929 . S
C964 C963 1.383 . S
C964 C965 1.377 . S
C965 H949 0.930 . S
C965 C964 1.377 . S
C965 C966 1.379 . S
C966 H950 0.931 . S
C966 C960 1.383 . S
C966 C965 1.379 . S
H967 C961 0.959 . S
H968 C961 0.961 . S
H969 C961 0.960 . S
H970 C962 0.930 . S
H971 C963 0.929 . S
H972 C980 0.929 . S
H973 C982 0.930 . S
H974 C984 0.930 . S
H975 C987 0.929 . S
H976 C990 0.930 . S
H977 C992 0.960 . S
H978 C992 0.960 . S
H979 C992 0.960 . S
C980 H972 0.929 . S
C980 C981 1.377 . S
C980 C982 1.384 . S
C981 C980 1.377 . S
C981 C987 1.390 . S
C982 H973 0.930 . S
C982 C980 1.384 . S
C982 C983 1.372 . S
C983 C982 1.372 . S
C983 C984 1.400 . S
C983 C988 1.490 . S
C984 H974 0.930 . S
C984 C983 1.400 . S
C984 C987 1.386 . S
H985 C1001 0.930 . S
H986 C1002 0.931 . S
C987 H975 0.929 . S
C987 C981 1.390 . S
C987 C984 1.386 . S
C988 C983 1.490 . S
C988 C990 1.395 . S
C988 C991 1.403 . S
H989 C995 0.930 . S
C990 H976 0.930 . S
C990 C988 1.395 . S
C990 C993 1.403 . S
C991 C988 1.403 . S
C991 C992 1.524 . S
C991 C995 1.400 . S
C992 H977 0.960 . S
C992 H978 0.960 . S
C992 H979 0.960 . S
C992 C991 1.524 . S
C993 C990 1.403 . S
C993 C994 1.392 . S
C993 C997 1.495 . S
C994 C993 1.392 . S
C994 C995 1.385 . S
C994 C996 1.478 . S
C995 H989 0.930 . S
C995 C991 1.400 . S
C995 C994 1.385 . S
C996 C994 1.478 . S
C996 C998 1.381 . S
C996 C1002 1.383 . S
C997 C993 1.495 . S
C997 H1003 0.959 . S
C997 H1004 0.961 . S
C997 H1005 0.960 . S
C998 C996 1.381 . S
C998 C999 1.394 . S
C998 H1006 0.930 . S
C999 C998 1.394 . S
C999 C1000 1.383 . S
C999 H1007 0.929 . S
C1000 C999 1.383 . S
C1000 C1001 1.377 . S
C1001 H985 0.930 . S
C1001 C1000 1.377 . S
C1001 C1002 1.379 . S
C1002 H986 0.931 . S
C1002 C996 1.383 . S
C1002 C1001 1.379 . S
H1003 C997 0.959 . S
H1004 C997 0.961 . S
H1005 C997 0.960 . S
H1006 C998 0.930 . S
H1007 C999 0.929 . S
H1008 C1016 0.929 . S
H1009 C1018 0.930 . S
H1010 C1020 0.930 . S
H1011 C1023 0.929 . S
H1012 C1026 0.930 . S
H1013 C1028 0.960 . S
H1014 C1028 0.960 . S
H1015 C1028 0.960 . S
C1016 H1008 0.929 . S
C1016 C1017 1.377 . S
C1016 C1018 1.384 . S
C1017 C1016 1.377 . S
C1017 C1023 1.390 . S
C1018 H1009 0.930 . S
C1018 C1016 1.384 . S
C1018 C1019 1.372 . S
C1019 C1018 1.372 . S
C1019 C1020 1.400 . S
C1019 C1024 1.490 . S
C1020 H1010 0.930 . S
C1020 C1019 1.400 . S
C1020 C1023 1.386 . S
H1021 C1037 0.930 . S
H1022 C1038 0.931 . S
C1023 H1011 0.929 . S
C1023 C1017 1.390 . S
C1023 C1020 1.386 . S
C1024 C1019 1.490 . S
C1024 C1026 1.395 . S
C1024 C1027 1.403 . S
H1025 C1031 0.930 . S
C1026 H1012 0.930 . S
C1026 C1024 1.395 . S
C1026 C1029 1.403 . S
C1027 C1024 1.403 . S
C1027 C1028 1.524 . S
C1027 C1031 1.400 . S
C1028 H1013 0.960 . S
C1028 H1014 0.960 . S
C1028 H1015 0.960 . S
C1028 C1027 1.524 . S
C1029 C1026 1.403 . S
C1029 C1030 1.392 . S
C1029 C1033 1.495 . S
C1030 C1029 1.392 . S
C1030 C1031 1.385 . S
C1030 C1032 1.478 . S
C1031 H1025 0.930 . S
C1031 C1027 1.400 . S
C1031 C1030 1.385 . S
C1032 C1030 1.478 . S
C1032 C1034 1.381 . S
C1032 C1038 1.383 . S
C1033 C1029 1.495 . S
C1033 H1039 0.959 . S
C1033 H1040 0.961 . S
C1033 H1041 0.960 . S
C1034 C1032 1.381 . S
C1034 C1035 1.394 . S
C1034 H1042 0.930 . S
C1035 C1034 1.394 . S
C1035 C1036 1.383 . S
C1035 H1043 0.929 . S
C1036 C1035 1.383 . S
C1036 C1037 1.377 . S
C1037 H1021 0.930 . S
C1037 C1036 1.377 . S
C1037 C1038 1.379 . S
C1038 H1022 0.931 . S
C1038 C1032 1.383 . S
C1038 C1037 1.379 . S
H1039 C1033 0.959 . S
H1040 C1033 0.961 . S
H1041 C1033 0.960 . S
H1042 C1034 0.930 . S
H1043 C1035 0.929 . S
H1044 C1052 0.929 . S
H1045 C1054 0.930 . S
H1046 C1056 0.930 . S
H1047 C1059 0.929 . S
H1048 C1062 0.930 . S
H1049 C1064 0.960 . S
H1050 C1064 0.960 . S
H1051 C1064 0.960 . S
C1052 H1044 0.929 . S
C1052 C1053 1.377 . S
C1052 C1054 1.384 . S
C1053 C1052 1.377 . S
C1053 C1059 1.390 . S
C1054 H1045 0.930 . S
C1054 C1052 1.384 . S
C1054 C1055 1.372 . S
C1055 C1054 1.372 . S
C1055 C1056 1.400 . S
C1055 C1060 1.490 . S
C1056 H1046 0.930 . S
C1056 C1055 1.400 . S
C1056 C1059 1.386 . S
H1057 C1073 0.930 . S
H1058 C1074 0.931 . S
C1059 H1047 0.929 . S
C1059 C1053 1.390 . S
C1059 C1056 1.386 . S
C1060 C1055 1.490 . S
C1060 C1062 1.395 . S
C1060 C1063 1.403 . S
H1061 C1067 0.930 . S
C1062 H1048 0.930 . S
C1062 C1060 1.395 . S
C1062 C1065 1.403 . S
C1063 C1060 1.403 . S
C1063 C1064 1.524 . S
C1063 C1067 1.400 . S
C1064 H1049 0.960 . S
C1064 H1050 0.960 . S
C1064 H1051 0.960 . S
C1064 C1063 1.524 . S
C1065 C1062 1.403 . S
C1065 C1066 1.392 . S
C1065 C1069 1.495 . S
C1066 C1065 1.392 . S
C1066 C1067 1.385 . S
C1066 C1068 1.478 . S
C1067 H1061 0.930 . S
C1067 C1063 1.400 . S
C1067 C1066 1.385 . S
C1068 C1066 1.478 . S
C1068 C1070 1.381 . S
C1068 C1074 1.383 . S
C1069 C1065 1.495 . S
C1069 H1075 0.959 . S
C1069 H1076 0.961 . S
C1069 H1077 0.960 . S
C1070 C1068 1.381 . S
C1070 C1071 1.394 . S
C1070 H1078 0.930 . S
C1071 C1070 1.394 . S
C1071 C1072 1.383 . S
C1071 H1079 0.929 . S
C1072 C1071 1.383 . S
C1072 C1073 1.377 . S
C1073 H1057 0.930 . S
C1073 C1072 1.377 . S
C1073 C1074 1.379 . S
C1074 H1058 0.931 . S
C1074 C1068 1.383 . S
C1074 C1073 1.379 . S
H1075 C1069 0.959 . S
H1076 C1069 0.961 . S
H1077 C1069 0.960 . S
H1078 C1070 0.930 . S
H1079 C1071 0.929 . S
H1080 C1088 0.929 . S
H1081 C1090 0.930 . S
H1082 C1092 0.930 . S
H1083 C1095 0.929 . S
H1084 C1098 0.930 . S
H1085 C1100 0.960 . S
H1086 C1100 0.960 . S
H1087 C1100 0.960 . S
C1088 H1080 0.929 . S
C1088 C1089 1.377 . S
C1088 C1090 1.384 . S
C1089 C1088 1.377 . S
C1089 C1095 1.390 . S
C1090 H1081 0.930 . S
C1090 C1088 1.384 . S
C1090 C1091 1.372 . S
C1091 C1090 1.372 . S
C1091 C1092 1.400 . S
C1091 C1096 1.490 . S
C1092 H1082 0.930 . S
C1092 C1091 1.400 . S
C1092 C1095 1.386 . S
H1093 C1109 0.930 . S
H1094 C1110 0.931 . S
C1095 H1083 0.929 . S
C1095 C1089 1.390 . S
C1095 C1092 1.386 . S
C1096 C1091 1.490 . S
C1096 C1098 1.395 . S
C1096 C1099 1.403 . S
H1097 C1103 0.930 . S
C1098 H1084 0.930 . S
C1098 C1096 1.395 . S
C1098 C1101 1.403 . S
C1099 C1096 1.403 . S
C1099 C1100 1.524 . S
C1099 C1103 1.400 . S
C1100 H1085 0.960 . S
C1100 H1086 0.960 . S
C1100 H1087 0.960 . S
C1100 C1099 1.524 . S
C1101 C1098 1.403 . S
C1101 C1102 1.392 . S
C1101 C1105 1.495 . S
C1102 C1101 1.392 . S
C1102 C1103 1.385 . S
C1102 C1104 1.478 . S
C1103 H1097 0.930 . S
C1103 C1099 1.400 . S
C1103 C1102 1.385 . S
C1104 C1102 1.478 . S
C1104 C1106 1.381 . S
C1104 C1110 1.383 . S
C1105 C1101 1.495 . S
C1105 H1111 0.959 . S
C1105 H1112 0.961 . S
C1105 H1113 0.960 . S
C1106 C1104 1.381 . S
C1106 C1107 1.394 . S
C1106 H1114 0.930 . S
C1107 C1106 1.394 . S
C1107 C1108 1.383 . S
C1107 H1115 0.929 . S
C1108 C1107 1.383 . S
C1108 C1109 1.377 . S
C1109 H1093 0.930 . S
C1109 C1108 1.377 . S
C1109 C1110 1.379 . S
C1110 H1094 0.931 . S
C1110 C1104 1.383 . S
C1110 C1109 1.379 . S
H1111 C1105 0.959 . S
H1112 C1105 0.961 . S
H1113 C1105 0.960 . S
H1114 C1106 0.930 . S
H1115 C1107 0.929 . S
H1116 C1124 0.929 . S
H1117 C1126 0.930 . S
H1118 C1128 0.930 . S
H1119 C1131 0.929 . S
H1120 C1134 0.930 . S
H1121 C1136 0.960 . S
H1122 C1136 0.960 . S
H1123 C1136 0.960 . S
C1124 H1116 0.929 . S
C1124 C1125 1.377 . S
C1124 C1126 1.384 . S
C1125 C1124 1.377 . S
C1125 C1131 1.390 . S
C1126 H1117 0.930 . S
C1126 C1124 1.384 . S
C1126 C1127 1.372 . S
C1127 C1126 1.372 . S
C1127 C1128 1.400 . S
C1127 C1132 1.490 . S
C1128 H1118 0.930 . S
C1128 C1127 1.400 . S
C1128 C1131 1.386 . S
H1129 C1145 0.930 . S
H1130 C1146 0.931 . S
C1131 H1119 0.929 . S
C1131 C1125 1.390 . S
C1131 C1128 1.386 . S
C1132 C1127 1.490 . S
C1132 C1134 1.395 . S
C1132 C1135 1.403 . S
H1133 C1139 0.930 . S
C1134 H1120 0.930 . S
C1134 C1132 1.395 . S
C1134 C1137 1.403 . S
C1135 C1132 1.403 . S
C1135 C1136 1.524 . S
C1135 C1139 1.400 . S
C1136 H1121 0.960 . S
C1136 H1122 0.960 . S
C1136 H1123 0.960 . S
C1136 C1135 1.524 . S
C1137 C1134 1.403 . S
C1137 C1138 1.392 . S
C1137 C1141 1.495 . S
C1138 C1137 1.392 . S
C1138 C1139 1.385 . S
C1138 C1140 1.478 . S
C1139 H1133 0.930 . S
C1139 C1135 1.400 . S
C1139 C1138 1.385 . S
C1140 C1138 1.478 . S
C1140 C1142 1.381 . S
C1140 C1146 1.383 . S
C1141 C1137 1.495 . S
C1141 H1147 0.959 . S
C1141 H1148 0.961 . S
C1141 H1149 0.960 . S
C1142 C1140 1.381 . S
C1142 C1143 1.394 . S
C1142 H1150 0.930 . S
C1143 C1142 1.394 . S
C1143 C1144 1.383 . S
C1143 H1151 0.929 . S
C1144 C1143 1.383 . S
C1144 C1145 1.377 . S
C1145 H1129 0.930 . S
C1145 C1144 1.377 . S
C1145 C1146 1.379 . S
C1146 H1130 0.931 . S
C1146 C1140 1.383 . S
C1146 C1145 1.379 . S
H1147 C1141 0.959 . S
H1148 C1141 0.961 . S
H1149 C1141 0.960 . S
H1150 C1142 0.930 . S
H1151 C1143 0.929 . S
H1152 C1160 0.929 . S
H1153 C1162 0.930 . S
H1154 C1164 0.930 . S
H1155 C1167 0.929 . S
H1156 C1170 0.930 . S
H1157 C1172 0.960 . S
H1158 C1172 0.960 . S
H1159 C1172 0.960 . S
C1160 H1152 0.929 . S
C1160 C1161 1.377 . S
C1160 C1162 1.384 . S
C1161 C1160 1.377 . S
C1161 C1167 1.390 . S
C1162 H1153 0.930 . S
C1162 C1160 1.384 . S
C1162 C1163 1.372 . S
C1163 C1162 1.372 . S
C1163 C1164 1.400 . S
C1163 C1168 1.490 . S
C1164 H1154 0.930 . S
C1164 C1163 1.400 . S
C1164 C1167 1.386 . S
H1165 C1181 0.930 . S
H1166 C1182 0.931 . S
C1167 H1155 0.929 . S
C1167 C1161 1.390 . S
C1167 C1164 1.386 . S
C1168 C1163 1.490 . S
C1168 C1170 1.395 . S
C1168 C1171 1.403 . S
H1169 C1175 0.930 . S
C1170 H1156 0.930 . S
C1170 C1168 1.395 . S
C1170 C1173 1.403 . S
C1171 C1168 1.403 . S
C1171 C1172 1.524 . S
C1171 C1175 1.400 . S
C1172 H1157 0.960 . S
C1172 H1158 0.960 . S
C1172 H1159 0.960 . S
C1172 C1171 1.524 . S
C1173 C1170 1.403 . S
C1173 C1174 1.392 . S
C1173 C1177 1.495 1_554 S
C1174 C1173 1.392 . S
C1174 C1175 1.385 . S
C1174 C1176 1.478 1_554 S
C1175 H1169 0.930 . S
C1175 C1171 1.400 . S
C1175 C1174 1.385 . S
C1176 C1174 1.478 1_556 S
C1176 C1178 1.381 . S
C1176 C1182 1.383 . S
C1177 C1173 1.495 1_556 S
C1177 H1183 0.959 . S
C1177 H1184 0.961 . S
C1177 H1185 0.960 . S
C1178 C1176 1.381 . S
C1178 C1179 1.394 . S
C1178 H1186 0.930 . S
C1179 C1178 1.394 . S
C1179 C1180 1.383 . S
C1179 H1187 0.929 . S
C1180 C1179 1.383 . S
C1180 C1181 1.377 . S
C1181 H1165 0.930 . S
C1181 C1180 1.377 . S
C1181 C1182 1.379 . S
C1182 H1166 0.931 . S
C1182 C1176 1.383 . S
C1182 C1181 1.379 . S
H1183 C1177 0.959 . S
H1184 C1177 0.961 . S
H1185 C1177 0.960 . S
H1186 C1178 0.930 . S
H1187 C1179 0.929 . S
H1188 C1196 0.929 . S
H1189 C1198 0.930 . S
H1190 C1200 0.930 . S
H1191 C1203 0.929 . S
H1192 C1206 0.930 . S
H1193 C1208 0.960 . S
H1194 C1208 0.960 . S
H1195 C1208 0.960 . S
C1196 H1188 0.929 . S
C1196 C1197 1.377 . S
C1196 C1198 1.384 . S
C1197 C1196 1.377 . S
C1197 C1203 1.390 . S
C1198 H1189 0.930 . S
C1198 C1196 1.384 . S
C1198 C1199 1.372 . S
C1199 C1198 1.372 . S
C1199 C1200 1.400 . S
C1199 C1204 1.490 . S
C1200 H1190 0.930 . S
C1200 C1199 1.400 . S
C1200 C1203 1.386 . S
H1201 C1217 0.930 . S
H1202 C1218 0.931 . S
C1203 H1191 0.929 . S
C1203 C1197 1.390 . S
C1203 C1200 1.386 . S
C1204 C1199 1.490 . S
C1204 C1206 1.395 . S
C1204 C1207 1.403 . S
H1205 C1211 0.930 . S
C1206 H1192 0.930 . S
C1206 C1204 1.395 . S
C1206 C1209 1.403 . S
C1207 C1204 1.403 . S
C1207 C1208 1.524 . S
C1207 C1211 1.400 . S
C1208 H1193 0.960 . S
C1208 H1194 0.960 . S
C1208 H1195 0.960 . S
C1208 C1207 1.524 . S
C1209 C1206 1.403 . S
C1209 C1210 1.392 . S
C1209 C1213 1.495 . S
C1210 C1209 1.392 . S
C1210 C1211 1.385 . S
C1210 C1212 1.478 . S
C1211 H1205 0.930 . S
C1211 C1207 1.400 . S
C1211 C1210 1.385 . S
C1212 C1210 1.478 . S
C1212 C1214 1.381 . S
C1212 C1218 1.383 . S
C1213 C1209 1.495 . S
C1213 H1219 0.959 . S
C1213 H1220 0.961 . S
C1213 H1221 0.960 . S
C1214 C1212 1.381 . S
C1214 C1215 1.394 . S
C1214 H1222 0.930 . S
C1215 C1214 1.394 . S
C1215 C1216 1.383 . S
C1215 H1223 0.929 . S
C1216 C1215 1.383 . S
C1216 C1217 1.377 . S
C1217 H1201 0.930 . S
C1217 C1216 1.377 . S
C1217 C1218 1.379 . S
C1218 H1202 0.931 . S
C1218 C1212 1.383 . S
C1218 C1217 1.379 . S
H1219 C1213 0.959 . S
H1220 C1213 0.961 . S
H1221 C1213 0.960 . S
H1222 C1214 0.930 . S
H1223 C1215 0.929 . S
C388 C349 1.593 . S
C369 C15 1.584 . S
C405 C61 1.587 . S
C424 C279 1.592 . S
C441 C114 1.604 . S
C460 C298 1.624 . S
C477 C139 1.595 . S
C496 C307 1.596 . S
C532 C321 1.608 . S
C513 C185 1.601 . S
C549 C245 1.610 . S
C568 C340 1.617 . S
C585 C47 1.570 . S
C604 C293 1.566 . S
C621 C100 1.593 . S
C640 C312 1.602 . S
C657 C153 1.583 . S
C676 C326 1.603 . S
C712 C335 1.568 . S
C693 C199 1.560 . S
C748 C354 1.591 . S
C729 C231 1.590 . S
C784 C284 1.592 . S
C765 C1 1.596 . S
C801 C22 1.486 . S
C820 C299 1.484 . S
C837 C68 1.475 . S
C856 C311 1.450 . S
C892 C325 1.481 . S
C873 C107 1.488 . S
C909 C146 1.485 . S
C928 C341 1.461 . S
C964 C353 1.469 . S
C945 C192 1.476 . S
C1000 C283 1.445 . S
C981 C252 1.490 . S
C1036 C355 1.476 . S
C1017 C54 1.494 . S
C1053 C93 1.508 . S
C1072 C285 1.506 . S
C1108 C297 1.485 . S
C1089 C160 1.492 . S
C1125 C206 1.491 . S
C1144 C313 1.470 . S
C1161 C238 1.506 . S
C1180 C327 1.487 . S
C1197 C8 1.494 . S
C1216 C339 1.483 . S
