# Generated by pormake.
# Topology apo, (3,6)-cn, num edge types: 1
# Building blocks:
#     Node 0, Type 0, BuildingBlock: KAKCAD_clean_linker_0, # of connection points: 3
#     Node 1, Type 0, BuildingBlock: KAKCAD_clean_linker_0, # of connection points: 3
#     Node 2, Type 0, BuildingBlock: KAKCAD_clean_linker_0, # of connection points: 3
#     Node 3, Type 0, BuildingBlock: KAKCAD_clean_linker_0, # of connection points: 3
#     Node 4, Type 0, BuildingBlock: KAKCAD_clean_linker_0, # of connection points: 3
#     Node 5, Type 0, BuildingBlock: KAKCAD_clean_linker_0, # of connection points: 3
#     Node 6, Type 0, BuildingBlock: KAKCAD_clean_linker_0, # of connection points: 3
#     Node 7, Type 0, BuildingBlock: KAKCAD_clean_linker_0, # of connection points: 3
#     Node 8, Type 1, BuildingBlock: KUMJIN_clean_sbu_1, # of connection points: 6
#     Node 9, Type 1, BuildingBlock: KUMJIN_clean_sbu_1, # of connection points: 6
#     Node 10, Type 1, BuildingBlock: KUMJIN_clean_sbu_1, # of connection points: 6
#     Node 11, Type 1, BuildingBlock: KUMJIN_clean_sbu_1, # of connection points: 6
#     Edge 12, Type (0, 1), BuildingBlock: KIFKEQ_clean_linker_1, # of connection points: 2
#     Edge 13, Type (0, 1), BuildingBlock: KIFKEQ_clean_linker_1, # of connection points: 2
#     Edge 14, Type (0, 1), BuildingBlock: KIFKEQ_clean_linker_1, # of connection points: 2
#     Edge 15, Type (0, 1), BuildingBlock: KIFKEQ_clean_linker_1, # of connection points: 2
#     Edge 16, Type (0, 1), BuildingBlock: KIFKEQ_clean_linker_1, # of connection points: 2
#     Edge 17, Type (0, 1), BuildingBlock: KIFKEQ_clean_linker_1, # of connection points: 2
#     Edge 18, Type (0, 1), BuildingBlock: KIFKEQ_clean_linker_1, # of connection points: 2
#     Edge 19, Type (0, 1), BuildingBlock: KIFKEQ_clean_linker_1, # of connection points: 2
#     Edge 20, Type (0, 1), BuildingBlock: KIFKEQ_clean_linker_1, # of connection points: 2
#     Edge 21, Type (0, 1), BuildingBlock: KIFKEQ_clean_linker_1, # of connection points: 2
#     Edge 22, Type (0, 1), BuildingBlock: KIFKEQ_clean_linker_1, # of connection points: 2
#     Edge 23, Type (0, 1), BuildingBlock: KIFKEQ_clean_linker_1, # of connection points: 2
#     Edge 24, Type (0, 1), BuildingBlock: KIFKEQ_clean_linker_1, # of connection points: 2
#     Edge 25, Type (0, 1), BuildingBlock: KIFKEQ_clean_linker_1, # of connection points: 2
#     Edge 26, Type (0, 1), BuildingBlock: KIFKEQ_clean_linker_1, # of connection points: 2
#     Edge 27, Type (0, 1), BuildingBlock: KIFKEQ_clean_linker_1, # of connection points: 2
#     Edge 28, Type (0, 1), BuildingBlock: KIFKEQ_clean_linker_1, # of connection points: 2
#     Edge 29, Type (0, 1), BuildingBlock: KIFKEQ_clean_linker_1, # of connection points: 2
#     Edge 30, Type (0, 1), BuildingBlock: KIFKEQ_clean_linker_1, # of connection points: 2
#     Edge 31, Type (0, 1), BuildingBlock: KIFKEQ_clean_linker_1, # of connection points: 2
#     Edge 32, Type (0, 1), BuildingBlock: KIFKEQ_clean_linker_1, # of connection points: 2
#     Edge 33, Type (0, 1), BuildingBlock: KIFKEQ_clean_linker_1, # of connection points: 2
#     Edge 34, Type (0, 1), BuildingBlock: KIFKEQ_clean_linker_1, # of connection points: 2
#     Edge 35, Type (0, 1), BuildingBlock: KIFKEQ_clean_linker_1, # of connection points: 2
# Relax obj value: 0.009
# Max RMSD: 0.097
# Mean RMSD: 0.075
data_MOF--net-apo--node1-KUMJIN_clean_sbu_1--node2-KAKCAD_clean_linker_0--edge1-KIFKEQ_clean_linker_1
_symmetry_space_group_name_H-M    P1
_symmetry_Int_Tables_number       1
_symmetry_cell_setting            triclinic
loop_
_symmetry_equiv_pos_as_xyz
'x, y, z'
_cell_length_a     29.728033
_cell_length_b     53.291951
_cell_length_c     65.257283
_cell_angle_alpha  89.9752
_cell_angle_beta   89.996478
_cell_angle_gamma 90.269931
loop_
_atom_site_label
_atom_site_type_symbol
_atom_site_fract_x
_atom_site_fract_y
_atom_site_fract_z
_atom_type_partial_charge
C0 C 0.28608 0.46051 0.36088 0.0
C1 C 0.33059 0.46872 0.36399 0.0
C2 C 0.26823 0.44067 0.37246 0.0
C3 C 0.29434 0.4288 0.38758 0.0
C4 C 0.33868 0.43727 0.39082 0.0
C5 C 0.35659 0.45692 0.37914 0.0
C6 C 0.27594 0.40741 0.3998 0.0
C7 C 0.2509 0.38821 0.39033 0.0
C8 C 0.2355 0.36724 0.40155 0.0
C9 C 0.2458 0.36575 0.42263 0.0
C10 C 0.27136 0.38463 0.43234 0.0
C11 C 0.2854 0.40556 0.42083 0.0
C12 C 0.28585 0.38198 0.45416 0.0
C13 C 0.25684 0.37203 0.46919 0.0
C14 C 0.32965 0.38911 0.46001 0.0
C15 C 0.34405 0.38649 0.48026 0.0
C16 C 0.31527 0.37643 0.49525 0.0
C17 C 0.21081 0.34642 0.39094 0.0
C18 C 0.18066 0.35156 0.37485 0.0
C19 C 0.21845 0.32117 0.3962 0.0
C20 C 0.19737 0.30167 0.38541 0.0
C21 C 0.16835 0.3068 0.36889 0.0
C22 C 0.15995 0.33207 0.36394 0.0
C23 C 0.27145 0.36922 0.48951 0.0
H24 H 0.26534 0.46913 0.34921 0.0
H25 H 0.23389 0.43472 0.36967 0.0
H26 H 0.35994 0.4284 0.40216 0.0
H27 H 0.39086 0.46295 0.38202 0.0
H28 H 0.24511 0.38911 0.37396 0.0
H29 H 0.30395 0.42054 0.42828 0.0
H30 H 0.23477 0.34961 0.43141 0.0
H31 H 0.22272 0.36664 0.46532 0.0
H32 H 0.35332 0.39633 0.44882 0.0
H33 H 0.3782 0.39189 0.48411 0.0
H34 H 0.17324 0.37071 0.37053 0.0
H35 H 0.24171 0.31633 0.40832 0.0
H36 H 0.2483 0.36169 0.50079 0.0
H37 H 0.13823 0.3369 0.35124 0.0
H38 H 0.20415 0.28253 0.38998 0.0
C39 C 0.22014 0.0416 0.8593 0.0
C40 C 0.17773 0.0312 0.86363 0.0
C41 C 0.23736 0.06121 0.87126 0.0
C42 C 0.21218 0.07112 0.88763 0.0
C43 C 0.16972 0.0605 0.89194 0.0
C44 C 0.15288 0.04063 0.88018 0.0
C45 C 0.22939 0.09286 0.8998 0.0
C46 C 0.25252 0.11267 0.89015 0.0
C47 C 0.26763 0.13372 0.90129 0.0
C48 C 0.25766 0.13507 0.92239 0.0
C49 C 0.23369 0.11568 0.93236 0.0
C50 C 0.22108 0.09436 0.92095 0.0
C51 C 0.21979 0.11811 0.95434 0.0
C52 C 0.24661 0.13115 0.96862 0.0
C53 C 0.17849 0.10799 0.96111 0.0
C54 C 0.16435 0.11095 0.98139 0.0
C55 C 0.19055 0.12459 0.9955 0.0
C56 C 0.29236 0.15452 0.89059 0.0
C57 C 0.32111 0.14931 0.874 0.0
C58 C 0.28668 0.17977 0.89639 0.0
C59 C 0.30838 0.19915 0.88568 0.0
C60 C 0.33577 0.19396 0.86859 0.0
C61 C 0.342 0.16867 0.86305 0.0
C62 C 0.23205 0.13451 0.98884 0.0
H63 H 0.24003 0.03446 0.84669 0.0
H64 H 0.27046 0.06858 0.86769 0.0
H65 H 0.14893 0.06791 0.90412 0.0
H66 H 0.11986 0.03305 0.88365 0.0
H67 H 0.25735 0.11205 0.87371 0.0
H68 H 0.20463 0.07877 0.92856 0.0
H69 H 0.26802 0.15144 0.931 0.0
H70 H 0.27896 0.13886 0.96424 0.0
H71 H 0.15631 0.09815 0.95067 0.0
H72 H 0.13271 0.10251 0.98595 0.0
H73 H 0.32737 0.13017 0.86927 0.0
H74 H 0.26461 0.18476 0.90891 0.0
H75 H 0.25313 0.14531 0.99912 0.0
H76 H 0.36221 0.16368 0.84989 0.0
H77 H 0.30333 0.21824 0.89081 0.0
C78 C 0.78746 0.04189 0.64731 0.0
C79 C 0.83185 0.03376 0.64455 0.0
C80 C 0.77083 0.06198 0.63579 0.0
C81 C 0.79823 0.074 0.62116 0.0
C82 C 0.84254 0.0655 0.61832 0.0
C83 C 0.85926 0.04565 0.62999 0.0
C84 C 0.78125 0.09562 0.60907 0.0
C85 C 0.75763 0.11508 0.61864 0.0
C86 C 0.74311 0.13619 0.60748 0.0
C87 C 0.75422 0.13785 0.58647 0.0
C88 C 0.77854 0.11862 0.57659 0.0
C89 C 0.79046 0.09728 0.58806 0.0
C90 C 0.79267 0.12073 0.55456 0.0
C91 C 0.7671 0.13424 0.54017 0.0
C92 C 0.8323 0.10902 0.54767 0.0
C93 C 0.84488 0.10982 0.52707 0.0
C94 C 0.81937 0.12323 0.51262 0.0
C95 C 0.71771 0.15665 0.61811 0.0
C96 C 0.68857 0.15103 0.63454 0.0
C97 C 0.72324 0.18199 0.61245 0.0
C98 C 0.70124 0.20108 0.62321 0.0
C99 C 0.6736 0.19545 0.64013 0.0
C100 C 0.66722 0.17012 0.64548 0.0
C101 C 0.7806 0.13579 0.51963 0.0
H102 H 0.76595 0.03293 0.65857 0.0
H103 H 0.73651 0.06802 0.63823 0.0
H104 H 0.86463 0.07454 0.60733 0.0
H105 H 0.89365 0.03961 0.62772 0.0
H106 H 0.75199 0.11409 0.63502 0.0
H107 H 0.80699 0.08164 0.58069 0.0
H108 H 0.74424 0.15424 0.57787 0.0
H109 H 0.73621 0.14342 0.54459 0.0
H110 H 0.85409 0.0991 0.55816 0.0
H111 H 0.87451 0.09949 0.52258 0.0
H112 H 0.68237 0.13181 0.63915 0.0
H113 H 0.74553 0.1873 0.60007 0.0
H114 H 0.76039 0.14694 0.50932 0.0
H115 H 0.6466 0.16496 0.65851 0.0
H116 H 0.70633 0.22031 0.61834 0.0
C117 C 0.71622 0.45505 0.14819 0.0
C118 C 0.67516 0.46651 0.14299 0.0
C119 C 0.73324 0.43523 0.13651 0.0
C120 C 0.70931 0.42596 0.11951 0.0
C121 C 0.66823 0.43738 0.11434 0.0
C122 C 0.65174 0.45752 0.12572 0.0
C123 C 0.72666 0.4044 0.10725 0.0
C124 C 0.74992 0.38459 0.11668 0.0
C125 C 0.76541 0.36391 0.10527 0.0
C126 C 0.75552 0.36278 0.08412 0.0
C127 C 0.73134 0.38219 0.07449 0.0
C128 C 0.71865 0.40319 0.08609 0.0
C129 C 0.71726 0.38053 0.05257 0.0
C130 C 0.74612 0.37098 0.03742 0.0
C131 C 0.67428 0.38889 0.04665 0.0
C132 C 0.66065 0.38799 0.02619 0.0
C133 C 0.68936 0.37845 0.01105 0.0
C134 C 0.79048 0.34335 0.11585 0.0
C135 C 0.82075 0.34898 0.13183 0.0
C136 C 0.78306 0.31797 0.11084 0.0
C137 C 0.80408 0.29881 0.12197 0.0
C138 C 0.83306 0.30451 0.13841 0.0
C139 C 0.8416 0.32987 0.14297 0.0
C140 C 0.73229 0.36993 0.01688 0.0
H141 H 0.73509 0.46104 0.16151 0.0
H142 H 0.76527 0.42723 0.14085 0.0
H143 H 0.64823 0.43059 0.10162 0.0
H144 H 0.62051 0.46601 0.12086 0.0
H145 H 0.75475 0.38486 0.13312 0.0
H146 H 0.70229 0.41874 0.07849 0.0
H147 H 0.7661 0.3467 0.07523 0.0
H148 H 0.77957 0.36464 0.04136 0.0
H149 H 0.65069 0.39583 0.05793 0.0
H150 H 0.62706 0.39421 0.02232 0.0
H151 H 0.82805 0.36826 0.13593 0.0
H152 H 0.75991 0.31282 0.09873 0.0
H153 H 0.75536 0.36262 0.00554 0.0
H154 H 0.86343 0.33501 0.15559 0.0
H155 H 0.79727 0.27949 0.11783 0.0
C156 C 0.67463 0.55594 0.64973 0.0
C157 C 0.67668 0.53162 0.64165 0.0
C158 C 0.69166 0.57629 0.63862 0.0
C159 C 0.71107 0.5727 0.61919 0.0
C160 C 0.71311 0.54822 0.61114 0.0
C161 C 0.69607 0.52783 0.62231 0.0
C162 C 0.72811 0.59458 0.60727 0.0
C163 C 0.75311 0.61354 0.61699 0.0
C164 C 0.76659 0.6353 0.60635 0.0
C165 C 0.75601 0.63742 0.58539 0.0
C166 C 0.73122 0.61848 0.57526 0.0
C167 C 0.71744 0.59718 0.58644 0.0
C168 C 0.71803 0.62121 0.55329 0.0
C169 C 0.70594 0.64471 0.54516 0.0
C170 C 0.71612 0.6001 0.54037 0.0
C171 C 0.70212 0.60236 0.52002 0.0
C172 C 0.69033 0.62586 0.51185 0.0
C173 C 0.78979 0.6561 0.61756 0.0
C174 C 0.77691 0.66197 0.63774 0.0
C175 C 0.82464 0.67023 0.60845 0.0
C176 C 0.8465 0.68938 0.61943 0.0
C177 C 0.83424 0.69462 0.6398 0.0
C178 C 0.79895 0.68082 0.64871 0.0
C179 C 0.69242 0.64702 0.5247 0.0
H180 H 0.65954 0.55919 0.66461 0.0
H181 H 0.68892 0.59494 0.6451 0.0
H182 H 0.72818 0.54484 0.59629 0.0
H183 H 0.69803 0.50912 0.61589 0.0
H184 H 0.7621 0.61128 0.63297 0.0
H185 H 0.69667 0.583 0.57917 0.0
H186 H 0.76638 0.65403 0.57704 0.0
H187 H 0.70626 0.66135 0.55466 0.0
H188 H 0.72566 0.58172 0.54592 0.0
H189 H 0.70031 0.58555 0.51074 0.0
H190 H 0.74939 0.6521 0.6451 0.0
H191 H 0.83568 0.66619 0.59299 0.0
H192 H 0.68411 0.66546 0.51891 0.0
H193 H 0.78802 0.68477 0.66421 0.0
H194 H 0.87367 0.69968 0.61217 0.0
C195 C 0.77073 0.86967 0.01652 0.0
C196 C 0.81607 0.87374 0.01131 0.0
C197 C 0.75646 0.87202 0.03693 0.0
C198 C 0.78713 0.87907 0.05233 0.0
C199 C 0.83241 0.88315 0.04697 0.0
C200 C 0.84676 0.88034 0.02671 0.0
C201 C 0.77239 0.88264 0.07393 0.0
C202 C 0.74728 0.86401 0.08418 0.0
C203 C 0.73655 0.86658 0.10513 0.0
C204 C 0.75012 0.8886 0.11548 0.0
C205 C 0.77528 0.90737 0.10549 0.0
C206 C 0.78598 0.90423 0.08469 0.0
C207 C 0.79261 0.92955 0.11708 0.0
C208 C 0.76545 0.94202 0.13145 0.0
C209 C 0.83716 0.9379 0.11431 0.0
C210 C 0.85439 0.95787 0.12586 0.0
C211 C 0.82753 0.9701 0.1405 0.0
C212 C 0.71363 0.84584 0.11663 0.0
C213 C 0.67888 0.83149 0.10768 0.0
C214 C 0.72673 0.84015 0.13683 0.0
C215 C 0.70504 0.82123 0.14795 0.0
C216 C 0.66988 0.80719 0.13917 0.0
C217 C 0.65736 0.81232 0.11881 0.0
C218 C 0.78265 0.96206 0.14297 0.0
H219 H 0.74646 0.86472 0.0048 0.0
H220 H 0.72134 0.86889 0.04061 0.0
H221 H 0.85686 0.88846 0.05851 0.0
H222 H 0.88176 0.88379 0.02298 0.0
H223 H 0.73816 0.84698 0.07609 0.0
H224 H 0.805 0.91868 0.07678 0.0
H225 H 0.74207 0.89087 0.13156 0.0
H226 H 0.7308 0.93632 0.13375 0.0
H227 H 0.85926 0.92851 0.10361 0.0
H228 H 0.88925 0.96323 0.12371 0.0
H229 H 0.66769 0.83537 0.09222 0.0
H230 H 0.75419 0.85018 0.14409 0.0
H231 H 0.76066 0.9713 0.1538 0.0
H232 H 0.63025 0.80189 0.11164 0.0
H233 H 0.71617 0.81741 0.16344 0.0
C234 C 0.17522 0.94191 0.35348 0.0
C235 C 0.17255 0.96592 0.3622 0.0
C236 C 0.19153 0.92172 0.36488 0.0
C237 C 0.20623 0.92515 0.3852 0.0
C238 C 0.20379 0.94933 0.39384 0.0
C239 C 0.18678 0.96946 0.3825 0.0
C240 C 0.22356 0.90354 0.39735 0.0
C241 C 0.24962 0.88491 0.38799 0.0
C242 C 0.26415 0.86374 0.39895 0.0
C243 C 0.25485 0.86221 0.42012 0.0
C244 C 0.22916 0.88092 0.43003 0.0
C245 C 0.21293 0.90111 0.4182 0.0
C246 C 0.21744 0.87935 0.4524 0.0
C247 C 0.21196 0.85613 0.46241 0.0
C248 C 0.20969 0.90133 0.46383 0.0
C249 C 0.19422 0.90019 0.48403 0.0
C250 C 0.18779 0.87701 0.49402 0.0
C251 C 0.28673 0.84286 0.38772 0.0
C252 C 0.27108 0.83586 0.36817 0.0
C253 C 0.32364 0.82988 0.39606 0.0
C254 C 0.34468 0.81066 0.38491 0.0
C255 C 0.32871 0.80384 0.36539 0.0
C256 C 0.29175 0.81665 0.35719 0.0
C257 C 0.19814 0.855 0.48294 0.0
H258 H 0.16388 0.93868 0.33792 0.0
H259 H 0.19195 0.90332 0.35784 0.0
H260 H 0.21542 0.95277 0.40932 0.0
H261 H 0.18536 0.98787 0.38949 0.0
H262 H 0.25862 0.88686 0.37197 0.0
H263 H 0.19058 0.91471 0.42502 0.0
H264 H 0.26695 0.84622 0.42869 0.0
H265 H 0.21726 0.83866 0.45436 0.0
H266 H 0.21497 0.91971 0.45717 0.0
H267 H 0.18647 0.91775 0.49148 0.0
H268 H 0.24238 0.84509 0.36134 0.0
H269 H 0.33666 0.83482 0.41102 0.0
H270 H 0.19545 0.83667 0.48995 0.0
H271 H 0.27897 0.81192 0.34212 0.0
H272 H 0.37304 0.80096 0.3916 0.0
C273 C 0.27553 0.63192 0.98843 0.0
C274 C 0.31897 0.62398 0.99415 0.0
C275 C 0.26138 0.63064 0.96795 0.0
C276 C 0.2903 0.62136 0.95274 0.0
C277 C 0.33398 0.61405 0.95837 0.0
C278 C 0.34803 0.61523 0.97875 0.0
C279 C 0.27508 0.61831 0.93113 0.0
C280 C 0.25153 0.63746 0.92088 0.0
C281 C 0.23999 0.63491 0.90001 0.0
C282 C 0.2519 0.61268 0.88968 0.0
C283 C 0.27602 0.59358 0.89956 0.0
C284 C 0.28641 0.59639 0.9204 0.0
C285 C 0.29316 0.57161 0.88775 0.0
C286 C 0.26813 0.56117 0.87151 0.0
C287 C 0.33599 0.56168 0.89201 0.0
C288 C 0.35343 0.54209 0.88028 0.0
C289 C 0.32883 0.53215 0.86379 0.0
C290 C 0.21816 0.65584 0.88845 0.0
C291 C 0.18627 0.67167 0.89773 0.0
C292 C 0.22932 0.66013 0.86777 0.0
C293 C 0.20886 0.67924 0.85662 0.0
C294 C 0.1774 0.69524 0.86586 0.0
C295 C 0.16624 0.6912 0.88658 0.0
C296 C 0.28592 0.54181 0.85958 0.0
H297 H 0.25241 0.63918 0.99977 0.0
H298 H 0.22751 0.63638 0.9641 0.0
H299 H 0.35739 0.60721 0.94697 0.0
H300 H 0.3815 0.60872 0.98245 0.0
H301 H 0.24415 0.65473 0.92892 0.0
H302 H 0.30368 0.58142 0.92837 0.0
H303 H 0.24346 0.61051 0.87366 0.0
H304 H 0.23475 0.56793 0.86796 0.0
H305 H 0.35681 0.56951 0.90405 0.0
H306 H 0.38681 0.53521 0.88375 0.0
H307 H 0.17645 0.6689 0.91354 0.0
H308 H 0.25441 0.64891 0.86007 0.0
H309 H 0.26596 0.53427 0.84711 0.0
H310 H 0.14241 0.70326 0.89429 0.0
H311 H 0.21774 0.68132 0.84062 0.0
Eu312 Eu 0.05506 0.13635 0.23413 0.0
C313 C 0.84954 0.12225 0.26286 0.0
N314 N 0.87502 0.14341 0.26124 0.0
C315 C 0.8124 0.16588 0.24738 0.0
C316 C 0.8041 0.12216 0.25664 0.0
C317 C 0.85722 0.16514 0.25382 0.0
C318 C 0.78571 0.14431 0.24879 0.0
C319 C 0.84354 0.07818 0.27209 0.0
C320 C 0.86921 0.10043 0.27039 0.0
C321 C 0.79817 0.07813 0.26608 0.0
C322 C 0.77856 0.10002 0.25834 0.0
Eu323 Eu 0.9494 0.14035 0.27329 0.0
N324 N 0.91362 0.10078 0.27552 0.0
C325 C 0.86426 0.0566 0.27972 0.0
C326 C 0.93345 0.08005 0.28368 0.0
C327 C 0.90933 0.05759 0.28567 0.0
H328 H 0.87723 0.18207 0.25322 0.0
H329 H 0.92536 0.04115 0.29204 0.0
H330 H 0.12781 0.09488 0.2541 0.0
H331 H 0.07835 0.23553 0.21548 0.0
H332 H 0.96739 0.08079 0.28921 0.0
H333 H 0.84566 0.03917 0.28131 0.0
H334 H 0.03763 0.19521 0.2171 0.0
H335 H 0.79836 0.18314 0.24149 0.0
H336 H 0.77799 0.06121 0.26728 0.0
H337 H 0.74358 0.09962 0.25368 0.0
H338 H 0.20545 0.0944 0.26745 0.0
H339 H 0.75095 0.14497 0.24383 0.0
H340 H 0.15623 0.23857 0.22864 0.0
N341 N 0.12875 0.13384 0.2473 0.0
C342 C 0.15352 0.15532 0.24653 0.0
C343 C 0.19115 0.1117 0.26177 0.0
C344 C 0.19827 0.15584 0.25371 0.0
C345 C 0.14695 0.11209 0.25448 0.0
C346 C 0.21689 0.13369 0.26146 0.0
N347 N 0.09012 0.17614 0.23249 0.0
C348 C 0.07066 0.19655 0.22367 0.0
C349 C 0.15871 0.19958 0.23789 0.0
C350 C 0.13379 0.17702 0.23882 0.0
C351 C 0.13815 0.22092 0.2297 0.0
C352 C 0.09409 0.21931 0.22237 0.0
H353 H 0.25117 0.13331 0.2671 0.0
H354 H 0.25736 0.17909 0.25842 0.0
H355 H 0.22286 0.21732 0.2445 0.0
O356 O 0.05642 0.14067 0.20023 0.0
O357 O 0.06642 0.15723 0.2645 0.0
O358 O 0.99668 0.17334 0.27056 0.0
O359 O 0.09943 0.11346 0.21579 0.0
O360 O 0.99109 0.15553 0.22283 0.0
O361 O 0.95943 0.17335 0.2517 0.0
O362 O 0.95178 0.13598 0.30708 0.0
O363 O 0.93697 0.11882 0.24344 0.0
O364 O 0.00683 0.10345 0.23544 0.0
O365 O 0.90645 0.16304 0.29265 0.0
O366 O 0.01328 0.12079 0.28403 0.0
O367 O 0.04461 0.10302 0.25515 0.0
C368 C 0.03976 0.17254 0.27456 0.0
C369 C 0.10614 0.11428 0.17891 0.0
C370 C 0.11758 0.11712 0.1419 0.0
C371 C 0.14282 0.09496 0.1426 0.0
C372 C 0.13175 0.09214 0.17909 0.0
C373 C 0.14989 0.08261 0.16107 0.0
C374 C 0.09914 0.12693 0.16012 0.0
C375 C 0.96416 0.1718 0.23168 0.0
C376 C 0.08685 0.12323 0.19848 0.0
C377 C 0.22296 0.17835 0.25296 0.0
C378 C 0.20328 0.20013 0.24505 0.0
C379 C 0.96317 0.10405 0.23258 0.0
C380 C 0.90446 0.16188 0.32967 0.0
C381 C 0.88939 0.15583 0.36613 0.0
C382 C 0.87178 0.18018 0.36709 0.0
C383 C 0.88651 0.18617 0.33108 0.0
C384 C 0.90599 0.14661 0.34736 0.0
C385 C 0.87039 0.19522 0.34968 0.0
C386 C 0.03898 0.10394 0.27514 0.0
C387 C 0.9211 0.15313 0.30959 0.0
H388 H 0.15736 0.08726 0.12874 0.0
H389 H 0.13763 0.08197 0.19321 0.0
H390 H 0.16948 0.06555 0.16142 0.0
H391 H 0.07967 0.14406 0.15965 0.0
H392 H 0.85881 0.18751 0.38141 0.0
H393 H 0.88514 0.1983 0.31777 0.0
H394 H 0.91953 0.12779 0.34653 0.0
H395 H 0.85667 0.21396 0.35059 0.0
Eu396 Eu 0.45134 0.36467 0.73444 0.0
C397 C 0.65547 0.38023 0.76125 0.0
N398 N 0.63087 0.35869 0.76023 0.0
C399 C 0.69404 0.33661 0.74649 0.0
C400 C 0.70073 0.38071 0.75479 0.0
C401 C 0.64934 0.33699 0.7531 0.0
C402 C 0.71989 0.35854 0.74736 0.0
C403 C 0.65982 0.42463 0.7695 0.0
C404 C 0.63504 0.40203 0.76842 0.0
C405 C 0.70502 0.42507 0.76324 0.0
C406 C 0.72539 0.4032 0.75589 0.0
Eu407 Eu 0.5572 0.36096 0.77325 0.0
N408 N 0.59095 0.40118 0.77414 0.0
C409 C 0.63854 0.44611 0.777 0.0
C410 C 0.57072 0.42181 0.78226 0.0
C411 C 0.5939 0.44464 0.78353 0.0
H412 H 0.62999 0.3198 0.75297 0.0
H413 H 0.57754 0.46099 0.78987 0.0
H414 H 0.37988 0.40662 0.75472 0.0
H415 H 0.42703 0.26523 0.71702 0.0
H416 H 0.53729 0.4207 0.78837 0.0
H417 H 0.65648 0.4638 0.77813 0.0
H418 H 0.46864 0.30521 0.71856 0.0
H419 H 0.70867 0.31936 0.74091 0.0
H420 H 0.72456 0.44226 0.76402 0.0
H421 H 0.76026 0.40389 0.75109 0.0
H422 H 0.30196 0.40764 0.76772 0.0
H423 H 0.75459 0.35815 0.74229 0.0
H424 H 0.34857 0.26295 0.72953 0.0
N425 N 0.3779 0.36768 0.7477 0.0
C426 C 0.35267 0.34636 0.74688 0.0
C427 C 0.3159 0.39026 0.76203 0.0
C428 C 0.30777 0.3462 0.75386 0.0
C429 C 0.36022 0.38954 0.75491 0.0
C430 C 0.28956 0.36849 0.76153 0.0
N431 N 0.41588 0.32499 0.73319 0.0
C432 C 0.43527 0.30428 0.72481 0.0
C433 C 0.34667 0.30207 0.73843 0.0
C434 C 0.37206 0.32447 0.73933 0.0
C435 C 0.36701 0.2805 0.73056 0.0
C436 C 0.41139 0.28166 0.72359 0.0
H437 H 0.25518 0.36913 0.76701 0.0
H438 H 0.24794 0.32344 0.75824 0.0
H439 H 0.28188 0.28488 0.74467 0.0
O440 O 0.45038 0.36051 0.7005 0.0
O441 O 0.44038 0.34337 0.76464 0.0
O442 O 0.51039 0.32765 0.77149 0.0
O443 O 0.40668 0.38733 0.71604 0.0
O444 O 0.51495 0.34532 0.72315 0.0
O445 O 0.54694 0.32765 0.75205 0.0
O446 O 0.55889 0.36604 0.80707 0.0
O447 O 0.56873 0.38113 0.74275 0.0
O448 O 0.49928 0.3976 0.73631 0.0
O449 O 0.60263 0.33897 0.79185 0.0
O450 O 0.49294 0.37979 0.78456 0.0
O451 O 0.46281 0.39772 0.75552 0.0
C452 C 0.46695 0.32805 0.77478 0.0
C453 C 0.39969 0.3864 0.67914 0.0
C454 C 0.38802 0.38358 0.64211 0.0
C455 C 0.35989 0.4046 0.64309 0.0
C456 C 0.37111 0.40737 0.67957 0.0
C457 C 0.35149 0.41637 0.66168 0.0
C458 C 0.40823 0.3744 0.66019 0.0
C459 C 0.54166 0.32896 0.73204 0.0
C460 C 0.41938 0.37763 0.69873 0.0
C461 C 0.28252 0.3239 0.75299 0.0
C462 C 0.30188 0.30192 0.74528 0.0
C463 C 0.54259 0.39669 0.7327 0.0
C464 C 0.61196 0.34199 0.8286 0.0
C465 C 0.62097 0.34473 0.86581 0.0
C466 C 0.65589 0.32713 0.86466 0.0
C467 C 0.64715 0.32444 0.82804 0.0
C468 C 0.59907 0.3524 0.84766 0.0
C469 C 0.66891 0.31715 0.84593 0.0
C470 C 0.46654 0.39622 0.77555 0.0
C471 C 0.59084 0.3495 0.80897 0.0
H472 H 0.34399 0.41179 0.62935 0.0
H473 H 0.36376 0.41697 0.6938 0.0
H474 H 0.32951 0.43248 0.66224 0.0
H475 H 0.42982 0.35809 0.65952 0.0
H476 H 0.67356 0.32127 0.87837 0.0
H477 H 0.65829 0.31637 0.81369 0.0
H478 H 0.57235 0.36613 0.84842 0.0
H479 H 0.69611 0.30375 0.84525 0.0
Eu480 Eu 0.05783 0.86137 0.73358 0.0
C481 C 0.85046 0.84836 0.76092 0.0
N482 N 0.87671 0.86929 0.7601 0.0
C483 C 0.81601 0.89258 0.74535 0.0
C484 C 0.80572 0.84873 0.75372 0.0
C485 C 0.86001 0.89135 0.75284 0.0
C486 C 0.78877 0.87116 0.74572 0.0
C487 C 0.84197 0.80443 0.77008 0.0
C488 C 0.86852 0.82641 0.76884 0.0
C489 C 0.79738 0.80476 0.76297 0.0
C490 C 0.77937 0.82682 0.75475 0.0
Eu491 Eu 0.95079 0.86528 0.77264 0.0
N492 N 0.91233 0.8264 0.77492 0.0
C493 C 0.86126 0.78267 0.77819 0.0
C494 C 0.93097 0.8054 0.78321 0.0
C495 C 0.90591 0.78319 0.78482 0.0
H496 H 0.88033 0.90815 0.75313 0.0
H497 H 0.92101 0.76652 0.79127 0.0
H498 H 0.13395 0.82094 0.75166 0.0
H499 H 0.07281 0.96228 0.71872 0.0
H500 H 0.96484 0.80571 0.78889 0.0
H501 H 0.84203 0.7654 0.77937 0.0
H502 H 0.03541 0.92116 0.71883 0.0
H503 H 0.80301 0.91009 0.73946 0.0
H504 H 0.77661 0.78802 0.76369 0.0
H505 H 0.74494 0.82676 0.74928 0.0
H506 H 0.21275 0.82136 0.76366 0.0
H507 H 0.75463 0.87219 0.73998 0.0
H508 H 0.15096 0.96633 0.73126 0.0
N509 N 0.13207 0.86011 0.74606 0.0
C510 C 0.15514 0.88219 0.74589 0.0
C511 C 0.19687 0.83862 0.75885 0.0
C512 C 0.20038 0.88327 0.75237 0.0
C513 C 0.15212 0.83846 0.7523 0.0
C514 C 0.22113 0.86112 0.7589 0.0
N515 N 0.08954 0.90224 0.73322 0.0
C516 C 0.06835 0.92272 0.72535 0.0
C517 C 0.15665 0.92695 0.73895 0.0
C518 C 0.13334 0.90382 0.73931 0.0
C519 C 0.13419 0.94825 0.73183 0.0
C520 C 0.08999 0.94607 0.72485 0.0
H521 H 0.25589 0.86117 0.7639 0.0
H522 H 0.25829 0.90747 0.75692 0.0
H523 H 0.22009 0.94566 0.74515 0.0
O524 O 0.06067 0.86736 0.69998 0.0
O525 O 0.06924 0.8796 0.7648 0.0
O526 O 1.00049 0.89733 0.76916 0.0
O527 O 0.10209 0.83877 0.71471 0.0
O528 O 0.99308 0.87971 0.72209 0.0
O529 O 0.96239 0.89759 0.75093 0.0
O530 O 0.95121 0.8611 0.80644 0.0
O531 O 0.94003 0.84223 0.74327 0.0
O532 O 0.0107 0.82821 0.73416 0.0
O533 O 0.91379 0.89099 0.79187 0.0
O534 O 0.01343 0.84487 0.78333 0.0
O535 O 0.04915 0.82785 0.75494 0.0
C536 C 0.04301 0.89571 0.77405 0.0
C537 C 0.11067 0.84235 0.67787 0.0
C538 C 0.1196 0.84654 0.64076 0.0
C539 C 0.14976 0.82638 0.64096 0.0
C540 C 0.14132 0.82232 0.67755 0.0
C541 C 0.16063 0.81444 0.65924 0.0
C542 C 0.09996 0.85465 0.65928 0.0
C543 C 0.96575 0.89581 0.73093 0.0
C544 C 0.09075 0.84984 0.69774 0.0
C545 C 0.22349 0.9063 0.75207 0.0
C546 C 0.2017 0.92806 0.74539 0.0
C547 C 0.96691 0.8283 0.73193 0.0
C548 C 0.89368 0.88214 0.82659 0.0
C549 C 0.88083 0.88247 0.86368 0.0
C550 C 0.83993 0.89487 0.86043 0.0
C551 C 0.85185 0.89398 0.82386 0.0
C552 C 0.9078 0.87599 0.8467 0.0
C553 C 0.82541 0.90036 0.84068 0.0
C554 C 0.03966 0.82802 0.77474 0.0
C555 C 0.92553 0.88062 0.80911 0.0
H556 H 0.16546 0.82009 0.62689 0.0
H557 H 0.15051 0.81263 0.69152 0.0
H558 H 0.18425 0.79905 0.65922 0.0
H559 H 0.07683 0.87031 0.6592 0.0
H560 H 0.81911 0.90032 0.87331 0.0
H561 H 0.84018 0.89927 0.80875 0.0
H562 H 0.94021 0.86727 0.84918 0.0
H563 H 0.79388 0.91005 0.83843 0.0
Eu564 Eu 0.4486 0.63873 0.23187 0.0
C565 C 0.65272 0.65683 0.25879 0.0
N566 N 0.62776 0.63534 0.25965 0.0
C567 C 0.69153 0.61145 0.24846 0.0
C568 C 0.69784 0.65641 0.25201 0.0
C569 C 0.64733 0.61267 0.25567 0.0
C570 C 0.71668 0.63345 0.24631 0.0
C571 C 0.66099 0.70104 0.26739 0.0
C572 C 0.63451 0.67903 0.26632 0.0
C573 C 0.70513 0.70086 0.25977 0.0
C574 C 0.72345 0.67863 0.25205 0.0
Eu575 Eu 0.55384 0.64008 0.27281 0.0
N576 N 0.5916 0.67887 0.27356 0.0
C577 C 0.64272 0.72242 0.27665 0.0
C578 C 0.57465 0.69907 0.28377 0.0
C579 C 0.59958 0.72131 0.28512 0.0
H580 H 0.62957 0.59529 0.25848 0.0
H581 H 0.58574 0.73747 0.29288 0.0
H582 H 0.37882 0.68296 0.25112 0.0
H583 H 0.41156 0.54125 0.21151 0.0
H584 H 0.54189 0.69787 0.29085 0.0
H585 H 0.66209 0.73963 0.27783 0.0
H586 H 0.45626 0.58025 0.2123 0.0
H587 H 0.70652 0.59347 0.24502 0.0
H588 H 0.72581 0.71765 0.26029 0.0
H589 H 0.75803 0.67863 0.24678 0.0
H590 H 0.30375 0.68518 0.26674 0.0
H591 H 0.75122 0.63236 0.24108 0.0
H592 H 0.33648 0.53986 0.2278 0.0
N593 N 0.37639 0.64339 0.24657 0.0
C594 C 0.35002 0.62245 0.24675 0.0
C595 C 0.31657 0.66735 0.26144 0.0
C596 C 0.3062 0.62306 0.25508 0.0
C597 C 0.35962 0.6659 0.25291 0.0
C598 C 0.28993 0.64579 0.26276 0.0
N599 N 0.40883 0.60026 0.23023 0.0
C600 C 0.42456 0.57961 0.22024 0.0
C601 C 0.33952 0.57852 0.23794 0.0
C602 C 0.3666 0.60035 0.23831 0.0
C603 C 0.35638 0.55693 0.22853 0.0
C604 C 0.39884 0.55759 0.21942 0.0
H605 H 0.25648 0.64702 0.26927 0.0
H606 H 0.24614 0.60129 0.26164 0.0
H607 H 0.27521 0.56235 0.24658 0.0
O608 O 0.42622 0.63061 0.2005 0.0
O609 O 0.4401 0.61931 0.26296 0.0
O610 O 0.51101 0.60491 0.27123 0.0
O611 O 0.42105 0.66877 0.21271 0.0
O612 O 0.50687 0.61364 0.22287 0.0
O613 O 0.55499 0.60672 0.25087 0.0
O614 O 0.53891 0.64183 0.30584 0.0
O615 O 0.54698 0.67212 0.24992 0.0
O616 O 0.5189 0.6507 0.22261 0.0
O617 O 0.6044 0.63023 0.29542 0.0
O618 O 0.48611 0.65631 0.28121 0.0
O619 O 0.45787 0.6738 0.25159 0.0
C620 C 0.46693 0.60394 0.27303 0.0
C621 C 0.39495 0.6622 0.17755 0.0
C622 C 0.38222 0.6572 0.14072 0.0
C623 C 0.3586 0.67994 0.14063 0.0
C624 C 0.37119 0.68489 0.17696 0.0
C625 C 0.35297 0.69359 0.15863 0.0
C626 C 0.40003 0.64811 0.15931 0.0
C627 C 0.54029 0.60198 0.23213 0.0
C628 C 0.41436 0.65371 0.19721 0.0
C629 C 0.27975 0.60117 0.25521 0.0
C630 C 0.29632 0.57898 0.24664 0.0
C631 C 0.53953 0.67036 0.23015 0.0
C632 C 0.58431 0.61803 0.32883 0.0
C633 C 0.60315 0.61323 0.36493 0.0
C634 C 0.60699 0.58724 0.36202 0.0
C635 C 0.58816 0.592 0.32615 0.0
C636 C 0.59143 0.62859 0.34832 0.0
C637 C 0.59921 0.57669 0.34276 0.0
C638 C 0.46425 0.67408 0.27159 0.0
C639 C 0.5791 0.63479 0.31117 0.0
H640 H 0.3444 0.68714 0.12652 0.0
H641 H 0.36651 0.69592 0.19073 0.0
H642 H 0.33458 0.71106 0.15834 0.0
H643 H 0.41844 0.6306 0.15945 0.0
H644 H 0.6167 0.57519 0.37463 0.0
H645 H 0.58404 0.58367 0.31113 0.0
H646 H 0.58976 0.64877 0.35037 0.0
H647 H 0.60281 0.55667 0.34059 0.0
H648 H 0.2003 0.98179 0.32464 0.0
H649 H 0.10443 0.99761 0.37244 0.0
H650 H 0.16971 0.01587 0.30405 0.0
H651 H 0.07191 0.03092 0.35154 0.0
H652 H 0.04837 0.10362 0.31683 0.0
H653 H 0.08194 0.07126 0.33814 0.0
H654 H 0.10752 0.02657 0.28412 0.0
H655 H 0.07517 0.05926 0.26284 0.0
C656 C 0.17238 0.99253 0.33063 0.0
C657 C 0.15463 0.98712 0.35006 0.0
C658 C 0.15456 0.01195 0.3188 0.0
C659 C 0.11794 0.02615 0.32597 0.0
C660 C 0.10049 0.02075 0.34557 0.0
C661 C 0.11891 0.00159 0.35755 0.0
C662 C 0.0614 0.08693 0.3095 0.0
C663 C 0.05961 0.08421 0.28809 0.0
C664 C 0.0804 0.06824 0.32175 0.0
C665 C 0.09779 0.04621 0.31293 0.0
C666 C 0.0955 0.04345 0.2915 0.0
C667 C 0.07673 0.0622 0.27925 0.0
H668 H 0.37164 0.48961 0.87632 0.0
H669 H 0.33026 0.5295 0.82204 0.0
H670 H 0.40585 0.45746 0.85526 0.0
H671 H 0.36098 0.49651 0.80074 0.0
H672 H 0.45122 0.44489 0.76527 0.0
H673 H 0.41999 0.47774 0.78655 0.0
H674 H 0.39922 0.4237 0.83534 0.0
H675 H 0.43452 0.39163 0.81445 0.0
C676 C 0.3697 0.49137 0.85981 0.0
C677 C 0.34826 0.51205 0.85084 0.0
C678 C 0.38873 0.47267 0.8476 0.0
C679 C 0.38635 0.47392 0.82603 0.0
C680 C 0.36452 0.49473 0.81716 0.0
C681 C 0.34604 0.51358 0.8294 0.0
C682 C 0.43996 0.44017 0.78059 0.0
C683 C 0.44528 0.41577 0.78826 0.0
C684 C 0.42154 0.459 0.79285 0.0
C685 C 0.40653 0.45375 0.81292 0.0
C686 C 0.41122 0.429 0.82031 0.0
C687 C 0.43104 0.41038 0.80825 0.0
H688 H 0.59325 0.5111 0.63887 0.0
H689 H 0.71888 0.50489 0.67122 0.0
H690 H 0.56155 0.47717 0.65943 0.0
H691 H 0.68713 0.4721 0.6929 0.0
H692 H 0.63114 0.40178 0.72136 0.0
H693 H 0.66378 0.43244 0.69822 0.0
H694 H 0.5324 0.46566 0.6897 0.0
H695 H 0.49983 0.43405 0.71181 0.0
C696 C 0.61397 0.5023 0.65047 0.0
C697 C 0.65837 0.51034 0.65351 0.0
C698 C 0.59575 0.48305 0.66253 0.0
C699 C 0.62134 0.47167 0.6782 0.0
C700 C 0.66621 0.47982 0.68092 0.0
C701 C 0.68451 0.49883 0.66864 0.0
C702 C 0.60926 0.41562 0.71451 0.0
C703 C 0.5629 0.41551 0.71865 0.0
C704 C 0.62807 0.43347 0.70125 0.0
C705 C 0.60112 0.45197 0.6919 0.0
C706 C 0.55459 0.45166 0.6961 0.0
C707 C 0.53577 0.4336 0.7091 0.0
H708 H 0.88652 0.00769 0.12935 0.0
H709 H 0.81243 0.97893 0.18133 0.0
H710 H 0.91919 0.04037 0.15101 0.0
H711 H 0.84469 0.01172 0.20284 0.0
H712 H 0.87461 0.08923 0.22982 0.0
H713 H 0.84212 0.0573 0.20767 0.0
H714 H 0.97205 0.0455 0.17979 0.0
H715 H 0.0049 0.07709 0.20246 0.0
C716 C 0.87731 0.00822 0.1454 0.0
C717 C 0.84666 0.99061 0.15353 0.0
C718 C 0.89607 0.027 0.15782 0.0
C719 C 0.88453 0.02874 0.17868 0.0
C720 C 0.85378 0.01121 0.18678 0.0
C721 C 0.83516 0.99241 0.17439 0.0
C722 C 0.89647 0.07967 0.21923 0.0
C723 C 0.94264 0.08536 0.2184 0.0
C724 C 0.87776 0.06132 0.20643 0.0
C725 C 0.90449 0.04862 0.19203 0.0
C726 C 0.95043 0.0549 0.19069 0.0
C727 C 0.96932 0.0729 0.20381 0.0
H728 H 0.8905 0.03826 0.67602 0.0
H729 H 0.81476 0.98375 0.64138 0.0
H730 H 0.92296 0.00474 0.69676 0.0
H731 H 0.84622 0.94995 0.66232 0.0
H732 H 0.94586 0.89416 0.69005 0.0
H733 H 0.91346 0.92744 0.66905 0.0
H734 H 0.90554 0.97521 0.72246 0.0
H735 H 0.93936 0.9424 0.7431 0.0
C736 C 0.88078 0.01899 0.67299 0.0
C737 C 0.85025 0.0134 0.65728 0.0
C738 C 0.89902 0.99978 0.68491 0.0
C739 C 0.88718 0.97454 0.68129 0.0
C740 C 0.85651 0.96909 0.66542 0.0
C741 C 0.83815 0.98837 0.65356 0.0
C742 C 0.93723 0.91182 0.69722 0.0
C743 C 0.94485 0.91559 0.71822 0.0
C744 C 0.91831 0.93084 0.68525 0.0
C745 C 0.90676 0.95409 0.69402 0.0
C746 C 0.91445 0.95774 0.71507 0.0
C747 C 0.93337 0.93877 0.727 0.0
H748 H 0.58619 0.47708 0.15073 0.0
H749 H 0.72082 0.50329 0.1644 0.0
H750 H 0.55541 0.51037 0.17154 0.0
H751 H 0.68993 0.53509 0.1869 0.0
H752 H 0.61838 0.60515 0.21095 0.0
H753 H 0.65173 0.57316 0.18889 0.0
H754 H 0.54478 0.52168 0.20559 0.0
H755 H 0.51178 0.55391 0.22733 0.0
C756 C 0.60943 0.48989 0.15811 0.0
C757 C 0.65625 0.48723 0.15577 0.0
C758 C 0.59163 0.5088 0.17047 0.0
C759 C 0.62003 0.52533 0.18126 0.0
C760 C 0.66683 0.52289 0.17877 0.0
C761 C 0.68466 0.50426 0.16608 0.0
C762 C 0.60245 0.58686 0.20992 0.0
C763 C 0.56245 0.58192 0.22055 0.0
C764 C 0.6215 0.56848 0.19734 0.0
C765 C 0.60079 0.54478 0.19518 0.0
C766 C 0.56119 0.53983 0.20639 0.0
C767 C 0.54228 0.55821 0.21894 0.0
H768 H 0.41227 0.4693 0.34497 0.0
H769 H 0.29361 0.51416 0.35415 0.0
H770 H 0.44456 0.50194 0.32353 0.0
H771 H 0.32668 0.5477 0.33365 0.0
H772 H 0.37748 0.59436 0.28052 0.0
H773 H 0.34487 0.56195 0.30186 0.0
H774 H 0.47829 0.54014 0.3213 0.0
H775 H 0.51064 0.57091 0.29818 0.0
C776 C 0.39336 0.48638 0.34261 0.0
C777 C 0.35037 0.48912 0.35122 0.0
C778 C 0.41202 0.50531 0.33039 0.0
C779 C 0.3886 0.52781 0.32671 0.0
C780 C 0.34565 0.53059 0.33562 0.0
C781 C 0.32663 0.51139 0.34753 0.0
C782 C 0.39993 0.58231 0.28894 0.0
C783 C 0.44681 0.58494 0.28708 0.0
C784 C 0.38112 0.56387 0.30163 0.0
C785 C 0.40865 0.54797 0.31343 0.0
C786 C 0.45565 0.55131 0.31211 0.0
C787 C 0.47439 0.56928 0.29896 0.0
H788 H 0.15084 0.98427 0.87519 0.0
H789 H 0.16173 0.03305 0.82268 0.0
H790 H 0.11854 0.95127 0.8535 0.0
H791 H 0.12969 1.00021 0.80089 0.0
H792 H 0.02667 0.94582 0.77291 0.0
H793 H 0.05948 0.97849 0.79463 0.0
H794 H 0.13828 0.9224 0.82603 0.0
H795 H 0.10537 0.88981 0.8041 0.0
C796 C 0.14627 0.98785 0.85897 0.0
C797 C 0.15881 0.01107 0.85053 0.0
C798 C 0.12809 0.96895 0.84652 0.0
C799 C 0.12149 0.97305 0.82541 0.0
C800 C 0.13392 0.99645 0.81708 0.0
C801 C 0.15261 0.01518 0.82948 0.0
C802 C 0.05093 0.94056 0.78451 0.0
C803 C 0.06351 0.91539 0.78694 0.0
C804 C 0.07002 0.95925 0.79685 0.0
C805 C 0.10155 0.95311 0.81213 0.0
C806 C 0.11388 0.92779 0.81455 0.0
C807 C 0.09538 0.90916 0.80192 0.0
H808 H 0.10369 0.1316 0.0091 0.0
H809 H 0.24072 0.12648 0.03086 0.0
H810 H 0.07761 0.13694 0.04424 0.0
H811 H 0.21469 0.13247 0.06575 0.0
H812 H 0.16817 0.15497 0.12622 0.0
H813 H 0.18104 0.16222 0.08965 0.0
H814 H 0.07205 0.11129 0.07525 0.0
H815 H 0.05907 0.10453 0.11178 0.0
C816 C 0.12835 0.13159 0.0213 0.0
C817 C 0.17448 0.12856 0.01698 0.0
C818 C 0.11332 0.13488 0.04147 0.0
C819 C 0.14404 0.1355 0.05783 0.0
C820 C 0.19013 0.13278 0.0535 0.0
C821 C 0.20511 0.12927 0.0334 0.0
C822 C 0.14561 0.14639 0.1152 0.0
C823 C 0.11257 0.12929 0.12171 0.0
C824 C 0.15342 0.15015 0.09427 0.0
C825 C 0.12843 0.13677 0.07952 0.0
C826 C 0.09202 0.12187 0.08614 0.0
C827 C 0.08431 0.1181 0.10708 0.0
H828 H 0.3617 0.41042 0.51838 0.0
H829 H 0.30552 0.33569 0.52058 0.0
H830 H 0.38876 0.40587 0.55325 0.0
H831 H 0.33428 0.33048 0.55534 0.0
H832 H 0.33524 0.34765 0.62537 0.0
H833 H 0.32246 0.34224 0.58885 0.0
H834 H 0.43909 0.38855 0.57607 0.0
H835 H 0.4498 0.39491 0.6128 0.0
C836 C 0.35574 0.39282 0.52627 0.0
C837 C 0.33141 0.37344 0.51671 0.0
C838 C 0.37174 0.39004 0.54628 0.0
C839 C 0.36443 0.36763 0.5573 0.0
C840 C 0.34033 0.34812 0.54759 0.0
C841 C 0.32374 0.35108 0.52762 0.0
C842 C 0.35917 0.35574 0.6147 0.0
C843 C 0.39344 0.37166 0.62183 0.0
C844 C 0.35178 0.3528 0.59365 0.0
C845 C 0.37874 0.36567 0.57928 0.0
C846 C 0.41647 0.37911 0.58659 0.0
C847 C 0.42341 0.38231 0.60765 0.0
H848 H 0.64234 0.41302 0.98828 0.0
H849 H 0.7001 0.33892 0.98503 0.0
H850 H 0.6128 0.40806 0.95339 0.0
H851 H 0.67137 0.33418 0.95034 0.0
H852 H 0.58648 0.31883 0.89777 0.0
H853 H 0.59577 0.3296 0.93384 0.0
H854 H 0.64352 0.40329 0.91667 0.0
H855 H 0.63381 0.39238 0.88037 0.0
C856 C 0.64869 0.39569 0.98014 0.0
C857 C 0.6735 0.37631 0.98946 0.0
C858 C 0.6319 0.39292 0.96016 0.0
C859 C 0.63905 0.37057 0.94925 0.0
C860 C 0.6644 0.35143 0.9585 0.0
C861 C 0.68147 0.35427 0.9783 0.0
C862 C 0.59708 0.33769 0.90175 0.0
C863 C 0.60978 0.35471 0.88635 0.0
C864 C 0.60297 0.34376 0.92237 0.0
C865 C 0.62178 0.36698 0.92804 0.0
C866 C 0.62935 0.38516 0.91274 0.0
C867 C 0.6235 0.37901 0.89198 0.0
H868 H 0.76514 0.12851 0.47849 0.0
H869 H 0.90468 0.1192 0.49575 0.0
H870 H 0.78705 0.13086 0.44296 0.0
H871 H 0.92571 0.11853 0.45997 0.0
H872 H 0.95046 0.15678 0.3969 0.0
H873 H 0.93621 0.14487 0.43233 0.0
H874 H 0.81083 0.10999 0.4139 0.0
H875 H 0.82478 0.12314 0.37861 0.0
C876 C 0.80049 0.12679 0.47488 0.0
C877 C 0.83288 0.12379 0.49043 0.0
C878 C 0.81303 0.12749 0.45424 0.0
C879 C 0.85825 0.12457 0.44831 0.0
C880 C 0.89059 0.12108 0.46378 0.0
C881 C 0.87822 0.12103 0.48448 0.0
C882 C 0.92071 0.14578 0.40042 0.0
C883 C 0.88877 0.14079 0.38514 0.0
C884 C 0.9123 0.13896 0.42078 0.0
C885 C 0.87161 0.12703 0.42627 0.0
C886 C 0.84183 0.11988 0.41047 0.0
C887 C 0.85015 0.1269 0.39014 0.0
H888 H 0.79558 0.9057 0.98044 0.0
H889 H 0.87179 0.83912 0.994 0.0
H890 H 0.82524 0.90576 0.94545 0.0
H891 H 0.90095 0.83873 0.95866 0.0
H892 H 0.87499 0.8381 0.88426 0.0
H893 H 0.86652 0.83397 0.92153 0.0
H894 H 0.90343 0.91186 0.92882 0.0
H895 H 0.91178 0.91588 0.89167 0.0
C896 C 0.81842 0.89097 0.9758 0.0
C897 C 0.8314 0.87239 0.98977 0.0
C898 C 0.83579 0.89111 0.95589 0.0
C899 C 0.866 0.87246 0.94942 0.0
C900 C 0.87803 0.85342 0.96327 0.0
C901 C 0.86131 0.85359 0.98339 0.0
C902 C 0.88338 0.85394 0.89396 0.0
C903 C 0.89385 0.87731 0.88517 0.0
C904 C 0.87821 0.85165 0.91526 0.0
C905 C 0.88307 0.8728 0.92798 0.0
C906 C 0.89852 0.8954 0.91931 0.0
C907 C 0.90386 0.89763 0.89811 0.0
H908 H 0.72528 0.6009 0.47898 0.0
H909 H 0.62525 0.65621 0.49484 0.0
H910 H 0.7032 0.60366 0.44335 0.0
H911 H 0.60448 0.65982 0.45865 0.0
H912 H 0.54629 0.62586 0.39598 0.0
H913 H 0.56734 0.63382 0.43177 0.0
H914 H 0.70771 0.63248 0.41459 0.0
H915 H 0.68637 0.62392 0.3791 0.0
C916 C 0.69859 0.61372 0.4749 0.0
C917 C 0.67703 0.62826 0.4899 0.0
C918 C 0.68643 0.61563 0.45434 0.0
C919 C 0.65257 0.63227 0.44807 0.0
C920 C 0.63079 0.64687 0.46298 0.0
C921 C 0.64298 0.64493 0.48369 0.0
C922 C 0.58151 0.62791 0.39991 0.0
C923 C 0.61484 0.624 0.38505 0.0
C924 C 0.59362 0.63251 0.42033 0.0
C925 C 0.63925 0.63311 0.4261 0.0
C926 C 0.67231 0.63144 0.41073 0.0
C927 C 0.66021 0.62675 0.39042 0.0
H928 H 0.40313 0.63492 0.0093 0.0
H929 H 0.26916 0.61401 0.02874 0.0
H930 H 0.42795 0.63509 0.04468 0.0
H931 H 0.29291 0.61633 0.06426 0.0
H932 H 0.34122 0.61395 0.12784 0.0
H933 H 0.33235 0.60061 0.09215 0.0
H934 H 0.42361 0.65975 0.07325 0.0
H935 H 0.43355 0.67193 0.10877 0.0
C936 C 0.37888 0.63026 0.0211 0.0
C937 C 0.33398 0.62452 0.01601 0.0
C938 C 0.39306 0.63067 0.04154 0.0
C939 C 0.36258 0.62586 0.05761 0.0
C940 C 0.3178 0.61976 0.05247 0.0
C941 C 0.30379 0.61897 0.032 0.0
C942 C 0.36069 0.62329 0.11603 0.0
C943 C 0.38788 0.64401 0.12093 0.0
C944 C 0.35504 0.61601 0.09552 0.0
C945 C 0.37607 0.62955 0.07955 0.0
C946 C 0.40668 0.64873 0.08488 0.0
C947 C 0.41249 0.65582 0.10531 0.0
H948 H 0.19214 0.91324 0.52469 0.0
H949 H 0.1415 0.83824 0.51319 0.0
H950 H 0.16098 0.91184 0.55862 0.0
H951 H 0.11686 0.83542 0.54811 0.0
H952 H 0.06362 0.83159 0.61015 0.0
H953 H 0.07043 0.84305 0.57415 0.0
H954 H 0.17136 0.89851 0.59043 0.0
H955 H 0.16113 0.88815 0.62628 0.0
C956 C 0.1745 0.89633 0.52917 0.0
C957 C 0.16986 0.87585 0.51562 0.0
C958 C 0.15726 0.89533 0.54913 0.0
C959 C 0.13639 0.87342 0.55669 0.0
C960 C 0.13167 0.85296 0.54314 0.0
C961 C 0.14731 0.85432 0.52294 0.0
C962 C 0.08556 0.84705 0.60594 0.0
C963 C 0.11175 0.85909 0.62089 0.0
C964 C 0.09051 0.85327 0.5852 0.0
C965 C 0.12304 0.87105 0.57887 0.0
C966 C 0.14603 0.88467 0.59425 0.0
C967 C 0.14019 0.87883 0.61499 0.0
H968 H 0.0845 0.30453 0.351 0.0
H969 H 0.2065 0.26171 0.35829 0.0
H970 H 0.05438 0.27228 0.32858 0.0
H971 H 0.17494 0.22844 0.33735 0.0
H972 H 0.12862 0.18448 0.28173 0.0
H973 H 0.15853 0.2165 0.30443 0.0
H974 H 0.02367 0.23298 0.32524 0.0
H975 H 0.99382 0.2023 0.30132 0.0
C976 C 0.10491 0.28818 0.34794 0.0
C977 C 0.14824 0.286 0.35642 0.0
C978 C 0.08724 0.26934 0.33527 0.0
C979 C 0.11207 0.24751 0.3309 0.0
C980 C 0.15493 0.24507 0.33987 0.0
C981 C 0.17284 0.26407 0.35229 0.0
C982 C 0.10532 0.19515 0.29091 0.0
C983 C 0.05874 0.19111 0.28927 0.0
C984 C 0.12254 0.21339 0.30427 0.0
C985 C 0.09372 0.22769 0.31682 0.0
C986 C 0.04712 0.22301 0.31555 0.0
C987 C 0.02991 0.20517 0.30188 0.0
H988 H 0.41654 0.194 0.84777 0.0
H989 H 0.30239 0.24131 0.861 0.0
H990 H 0.44647 0.22587 0.82513 0.0
H991 H 0.33481 0.27427 0.84003 0.0
H992 H 0.37785 0.31916 0.78405 0.0
H993 H 0.34707 0.28728 0.80681 0.0
H994 H 0.48204 0.26373 0.82213 0.0
H995 H 0.51232 0.29435 0.79842 0.0
C996 C 0.39777 0.21122 0.846 0.0
C997 C 0.35649 0.21468 0.85617 0.0
C998 C 0.41553 0.22986 0.8332 0.0
C999 C 0.39321 0.25289 0.83051 0.0
C1000 C 0.3527 0.25669 0.84123 0.0
C1001 C 0.33444 0.23782 0.8537 0.0
C1002 C 0.40089 0.30696 0.79207 0.0
C1003 C 0.44754 0.30915 0.78907 0.0
C1004 C 0.38326 0.2888 0.80542 0.0
C1005 C 0.41186 0.27261 0.81644 0.0
C1006 C 0.45861 0.27526 0.81367 0.0
C1007 C 0.47613 0.29309 0.80011 0.0
H1008 H 0.59052 0.19603 0.65882 0.0
H1009 H 0.71017 0.24123 0.65016 0.0
H1010 H 0.5595 0.22829 0.68114 0.0
H1011 H 0.67866 0.27358 0.67212 0.0
H1012 H 0.58641 0.33637 0.69634 0.0
H1013 H 0.61782 0.3045 0.67351 0.0
H1014 H 0.57411 0.24643 0.71536 0.0
H1015 H 0.54331 0.27849 0.73824 0.0
C1016 C 0.61034 0.21276 0.66169 0.0
C1017 C 0.65307 0.21586 0.65269 0.0
C1018 C 0.59248 0.23128 0.67449 0.0
C1019 C 0.61672 0.25345 0.67852 0.0
C1020 C 0.65891 0.25683 0.66918 0.0
C1021 C 0.67691 0.23826 0.65649 0.0
C1022 C 0.58381 0.31677 0.70061 0.0
C1023 C 0.5627 0.30977 0.71898 0.0
C1024 C 0.60189 0.29854 0.68763 0.0
C1025 C 0.5983 0.27289 0.69256 0.0
C1026 C 0.57711 0.26598 0.71103 0.0
C1027 C 0.55994 0.28428 0.72423 0.0
H1028 H 0.79213 0.26149 0.15212 0.0
H1029 H 0.91852 0.3017 0.15428 0.0
H1030 H 0.82267 0.22954 0.17486 0.0
H1031 H 0.94914 0.26968 0.17702 0.0
H1032 H 0.97213 0.22249 0.23496 0.0
H1033 H 0.94097 0.25435 0.21199 0.0
H1034 H 0.87713 0.19592 0.17625 0.0
H1035 H 0.90912 0.16422 0.19913 0.0
C1036 C 0.82666 0.26335 0.1572 0.0
C1037 C 0.85279 0.28424 0.15135 0.0
C1038 C 0.84417 0.24502 0.1703 0.0
C1039 C 0.88832 0.24705 0.1779 0.0
C1040 C 0.91471 0.26774 0.1718 0.0
C1041 C 0.89718 0.28608 0.1587 0.0
C1042 C 0.95111 0.21661 0.22225 0.0
C1043 C 0.94301 0.19103 0.21866 0.0
C1044 C 0.93363 0.23477 0.20899 0.0
C1045 C 0.90669 0.22773 0.19216 0.0
C1046 C 0.89761 0.20205 0.18904 0.0
C1047 C 0.91602 0.18388 0.20203 0.0
H1048 H 0.86503 0.69059 0.67893 0.0
H1049 H 0.85734 0.74266 0.6284 0.0
H1050 H 0.89845 0.72312 0.70032 0.0
H1051 H 0.89049 0.77556 0.64997 0.0
H1052 H 0.98857 0.82114 0.69187 0.0
H1053 H 0.9591 0.78896 0.66848 0.0
H1054 H 0.87305 0.76106 0.71685 0.0
H1055 H 0.90309 0.79289 0.73988 0.0
C1056 C 0.87039 0.70907 0.67242 0.0
C1057 C 0.85803 0.71414 0.65206 0.0
C1058 C 0.88944 0.72775 0.6847 0.0
C1059 C 0.8965 0.75211 0.677 0.0
C1060 C 0.88568 0.75698 0.65637 0.0
C1061 C 0.8667 0.73817 0.64401 0.0
C1062 C 0.9631 0.80816 0.69735 0.0
C1063 C 0.94734 0.80973 0.71762 0.0
C1064 C 0.94612 0.78982 0.68397 0.0
C1065 C 0.91375 0.77234 0.69077 0.0
C1066 C 0.89818 0.77405 0.71109 0.0
C1067 C 0.91473 0.79256 0.72429 0.0
H1068 H 0.64665 0.75917 0.12779 0.0
H1069 H 0.63954 0.81095 0.17845 0.0
H1070 H 0.61318 0.72634 0.14911 0.0
H1071 H 0.60436 0.77885 0.19948 0.0
H1072 H 0.58969 0.71167 0.23999 0.0
H1073 H 0.62008 0.74346 0.21764 0.0
H1074 H 0.55135 0.70925 0.16625 0.0
H1075 H 0.52427 0.67581 0.18876 0.0
C1076 C 0.6373 0.76363 0.14341 0.0
C1077 C 0.64632 0.78757 0.15151 0.0
C1078 C 0.61788 0.74482 0.15567 0.0
C1079 C 0.60641 0.74961 0.17627 0.0
C1080 C 0.61389 0.77397 0.18399 0.0
C1081 C 0.63388 0.79255 0.17186 0.0
C1082 C 0.58178 0.71051 0.22392 0.0
C1083 C 0.55558 0.69067 0.21623 0.0
C1084 C 0.59853 0.72921 0.21099 0.0
C1085 C 0.58826 0.72928 0.18993 0.0
C1086 C 0.56092 0.70972 0.18225 0.0
C1087 C 0.54505 0.69057 0.19521 0.0
H1088 H 0.2872 0.76353 0.34815 0.0
H1089 H 0.41752 0.79844 0.35506 0.0
H1090 H 0.31949 0.73223 0.32523 0.0
H1091 H 0.45022 0.76694 0.33206 0.0
H1092 H 0.47675 0.72479 0.27071 0.0
H1093 H 0.44574 0.75572 0.29473 0.0
H1094 H 0.37166 0.69663 0.32529 0.0
H1095 H 0.40333 0.66595 0.30153 0.0
C1096 C 0.3229 0.76434 0.34486 0.0
C1097 C 0.34984 0.78343 0.35331 0.0
C1098 C 0.34145 0.74637 0.3318 0.0
C1099 C 0.38736 0.7472 0.32666 0.0
C1100 C 0.4146 0.766 0.33549 0.0
C1101 C 0.39606 0.78384 0.34882 0.0
C1102 C 0.45332 0.71864 0.28242 0.0
C1103 C 0.44197 0.69318 0.28428 0.0
C1104 C 0.43605 0.73621 0.29632 0.0
C1105 C 0.40634 0.72863 0.31199 0.0
C1106 C 0.39426 0.70313 0.31338 0.0
C1107 C 0.41231 0.68557 0.29982 0.0
H1108 H 0.2178 0.72477 0.83675 0.0
H1109 H 0.09046 0.71304 0.86742 0.0
H1110 H 0.18341 0.75619 0.81484 0.0
H1111 H 0.05653 0.74534 0.8458 0.0
H1112 H 0.03119 0.82392 0.81637 0.0
H1113 H 0.06316 0.79225 0.83888 0.0
H1114 H 0.12423 0.75604 0.78676 0.0
H1115 H 0.09102 0.78722 0.764 0.0
C1116 C 0.1824 0.72874 0.83879 0.0
C1117 C 0.15681 0.71596 0.8537 0.0
C1118 C 0.16277 0.74685 0.82623 0.0
C1119 C 0.1172 0.75299 0.82843 0.0
C1120 C 0.09182 0.74098 0.84379 0.0
C1121 C 0.11135 0.72256 0.85624 0.0
C1122 C 0.05138 0.80923 0.8096 0.0
C1123 C 0.05921 0.80849 0.7883 0.0
C1124 C 0.0695 0.79101 0.82256 0.0
C1125 C 0.09646 0.77181 0.81461 0.0
C1126 C 0.10409 0.77088 0.79335 0.0
C1127 C 0.08526 0.78885 0.78032 0.0
loop_
_geom_bond_atom_site_label_1
_geom_bond_atom_site_label_2
_geom_bond_distance
_geom_bond_site_symmetry_2
_ccdc_geom_bond_type
C0 C1 1.386 . S
C0 C2 1.397 . S
C0 H24 0.931 . S
C1 C0 1.386 . S
C1 C5 1.397 . S
C2 C0 1.397 . S
C2 C3 1.384 . S
C2 H25 0.930 . S
C3 C2 1.384 . S
C3 C4 1.377 . S
C3 C6 1.481 . S
C4 C3 1.377 . S
C4 C5 1.389 . S
C4 H26 0.929 . S
C5 C1 1.397 . S
C5 C4 1.389 . S
C5 H27 0.931 . S
C6 C3 1.481 . S
C6 C7 1.387 . S
C6 C11 1.390 . S
C7 C6 1.387 . S
C7 C8 1.401 . S
C7 H28 0.930 . S
C8 C7 1.401 . S
C8 C9 1.376 . S
C8 C17 1.511 . S
C9 C8 1.376 . S
C9 C10 1.392 . S
C9 H30 0.931 . S
C10 C9 1.392 . S
C10 C11 1.361 . S
C10 C12 1.500 . S
C11 C6 1.390 . S
C11 C10 1.361 . S
C11 H29 0.931 . S
C12 C10 1.500 . S
C12 C13 1.371 . S
C12 C14 1.365 . S
C13 C12 1.371 . S
C13 C23 1.386 . S
C13 H31 0.931 . S
C14 C12 1.365 . S
C14 C15 1.409 . S
C14 H32 0.929 . S
C15 C14 1.409 . S
C15 C16 1.380 . S
C15 H33 0.930 . S
C16 C15 1.380 . S
C16 C23 1.357 . S
C17 C8 1.511 . S
C17 C18 1.341 . S
C17 C19 1.371 . S
C18 C17 1.341 . S
C18 C22 1.394 . S
C18 H34 0.930 . S
C19 C17 1.371 . S
C19 C20 1.392 . S
C19 H35 0.931 . S
C20 C19 1.392 . S
C20 C21 1.331 . S
C20 H38 0.932 . S
C21 C20 1.331 . S
C21 C22 1.336 . S
C22 C18 1.394 . S
C22 C21 1.336 . S
C22 H37 0.929 . S
C23 C13 1.386 . S
C23 C16 1.357 . S
C23 H36 0.928 . S
H24 C0 0.931 . S
H25 C2 0.930 . S
H26 C4 0.929 . S
H27 C5 0.931 . S
H28 C7 0.930 . S
H29 C11 0.931 . S
H30 C9 0.931 . S
H31 C13 0.931 . S
H32 C14 0.929 . S
H33 C15 0.930 . S
H34 C18 0.930 . S
H35 C19 0.931 . S
H36 C23 0.928 . S
H37 C22 0.929 . S
H38 C20 0.932 . S
C39 C40 1.386 . S
C39 C41 1.397 . S
C39 H63 0.931 . S
C40 C39 1.386 . S
C40 C44 1.397 . S
C41 C39 1.397 . S
C41 C42 1.384 . S
C41 H64 0.930 . S
C42 C41 1.384 . S
C42 C43 1.377 . S
C42 C45 1.481 . S
C43 C42 1.377 . S
C43 C44 1.389 . S
C43 H65 0.929 . S
C44 C40 1.397 . S
C44 C43 1.389 . S
C44 H66 0.931 . S
C45 C42 1.481 . S
C45 C46 1.387 . S
C45 C50 1.390 . S
C46 C45 1.387 . S
C46 C47 1.401 . S
C46 H67 0.930 . S
C47 C46 1.401 . S
C47 C48 1.376 . S
C47 C56 1.511 . S
C48 C47 1.376 . S
C48 C49 1.392 . S
C48 H69 0.931 . S
C49 C48 1.392 . S
C49 C50 1.361 . S
C49 C51 1.500 . S
C50 C45 1.390 . S
C50 C49 1.361 . S
C50 H68 0.931 . S
C51 C49 1.500 . S
C51 C52 1.371 . S
C51 C53 1.365 . S
C52 C51 1.371 . S
C52 C62 1.386 . S
C52 H70 0.931 . S
C53 C51 1.365 . S
C53 C54 1.409 . S
C53 H71 0.929 . S
C54 C53 1.409 . S
C54 C55 1.380 . S
C54 H72 0.930 . S
C55 C54 1.380 . S
C55 C62 1.357 . S
C56 C47 1.511 . S
C56 C57 1.341 . S
C56 C58 1.371 . S
C57 C56 1.341 . S
C57 C61 1.394 . S
C57 H73 0.930 . S
C58 C56 1.371 . S
C58 C59 1.392 . S
C58 H74 0.931 . S
C59 C58 1.392 . S
C59 C60 1.331 . S
C59 H77 0.932 . S
C60 C59 1.331 . S
C60 C61 1.336 . S
C61 C57 1.394 . S
C61 C60 1.336 . S
C61 H76 0.929 . S
C62 C52 1.386 . S
C62 C55 1.357 . S
C62 H75 0.928 . S
H63 C39 0.931 . S
H64 C41 0.930 . S
H65 C43 0.929 . S
H66 C44 0.931 . S
H67 C46 0.930 . S
H68 C50 0.931 . S
H69 C48 0.931 . S
H70 C52 0.931 . S
H71 C53 0.929 . S
H72 C54 0.930 . S
H73 C57 0.930 . S
H74 C58 0.931 . S
H75 C62 0.928 . S
H76 C61 0.929 . S
H77 C59 0.932 . S
C78 C79 1.386 . S
C78 C80 1.397 . S
C78 H102 0.931 . S
C79 C78 1.386 . S
C79 C83 1.397 . S
C80 C78 1.397 . S
C80 C81 1.384 . S
C80 H103 0.930 . S
C81 C80 1.384 . S
C81 C82 1.377 . S
C81 C84 1.481 . S
C82 C81 1.377 . S
C82 C83 1.389 . S
C82 H104 0.929 . S
C83 C79 1.397 . S
C83 C82 1.389 . S
C83 H105 0.931 . S
C84 C81 1.481 . S
C84 C85 1.387 . S
C84 C89 1.390 . S
C85 C84 1.387 . S
C85 C86 1.401 . S
C85 H106 0.930 . S
C86 C85 1.401 . S
C86 C87 1.376 . S
C86 C95 1.511 . S
C87 C86 1.376 . S
C87 C88 1.392 . S
C87 H108 0.931 . S
C88 C87 1.392 . S
C88 C89 1.361 . S
C88 C90 1.500 . S
C89 C84 1.390 . S
C89 C88 1.361 . S
C89 H107 0.931 . S
C90 C88 1.500 . S
C90 C91 1.371 . S
C90 C92 1.365 . S
C91 C90 1.371 . S
C91 C101 1.386 . S
C91 H109 0.931 . S
C92 C90 1.365 . S
C92 C93 1.409 . S
C92 H110 0.929 . S
C93 C92 1.409 . S
C93 C94 1.380 . S
C93 H111 0.930 . S
C94 C93 1.380 . S
C94 C101 1.357 . S
C95 C86 1.511 . S
C95 C96 1.341 . S
C95 C97 1.371 . S
C96 C95 1.341 . S
C96 C100 1.394 . S
C96 H112 0.930 . S
C97 C95 1.371 . S
C97 C98 1.392 . S
C97 H113 0.931 . S
C98 C97 1.392 . S
C98 C99 1.331 . S
C98 H116 0.932 . S
C99 C98 1.331 . S
C99 C100 1.336 . S
C100 C96 1.394 . S
C100 C99 1.336 . S
C100 H115 0.929 . S
C101 C91 1.386 . S
C101 C94 1.357 . S
C101 H114 0.928 . S
H102 C78 0.931 . S
H103 C80 0.930 . S
H104 C82 0.929 . S
H105 C83 0.931 . S
H106 C85 0.930 . S
H107 C89 0.931 . S
H108 C87 0.931 . S
H109 C91 0.931 . S
H110 C92 0.929 . S
H111 C93 0.930 . S
H112 C96 0.930 . S
H113 C97 0.931 . S
H114 C101 0.928 . S
H115 C100 0.929 . S
H116 C98 0.932 . S
C117 C118 1.386 . S
C117 C119 1.397 . S
C117 H141 0.931 . S
C118 C117 1.386 . S
C118 C122 1.397 . S
C119 C117 1.397 . S
C119 C120 1.384 . S
C119 H142 0.930 . S
C120 C119 1.384 . S
C120 C121 1.377 . S
C120 C123 1.481 . S
C121 C120 1.377 . S
C121 C122 1.389 . S
C121 H143 0.929 . S
C122 C118 1.397 . S
C122 C121 1.389 . S
C122 H144 0.931 . S
C123 C120 1.481 . S
C123 C124 1.387 . S
C123 C128 1.390 . S
C124 C123 1.387 . S
C124 C125 1.401 . S
C124 H145 0.930 . S
C125 C124 1.401 . S
C125 C126 1.376 . S
C125 C134 1.511 . S
C126 C125 1.376 . S
C126 C127 1.392 . S
C126 H147 0.931 . S
C127 C126 1.392 . S
C127 C128 1.361 . S
C127 C129 1.500 . S
C128 C123 1.390 . S
C128 C127 1.361 . S
C128 H146 0.931 . S
C129 C127 1.500 . S
C129 C130 1.371 . S
C129 C131 1.365 . S
C130 C129 1.371 . S
C130 C140 1.386 . S
C130 H148 0.931 . S
C131 C129 1.365 . S
C131 C132 1.409 . S
C131 H149 0.929 . S
C132 C131 1.409 . S
C132 C133 1.380 . S
C132 H150 0.930 . S
C133 C132 1.380 . S
C133 C140 1.357 . S
C134 C125 1.511 . S
C134 C135 1.341 . S
C134 C136 1.371 . S
C135 C134 1.341 . S
C135 C139 1.394 . S
C135 H151 0.930 . S
C136 C134 1.371 . S
C136 C137 1.392 . S
C136 H152 0.931 . S
C137 C136 1.392 . S
C137 C138 1.331 . S
C137 H155 0.932 . S
C138 C137 1.331 . S
C138 C139 1.336 . S
C139 C135 1.394 . S
C139 C138 1.336 . S
C139 H154 0.929 . S
C140 C130 1.386 . S
C140 C133 1.357 . S
C140 H153 0.928 . S
H141 C117 0.931 . S
H142 C119 0.930 . S
H143 C121 0.929 . S
H144 C122 0.931 . S
H145 C124 0.930 . S
H146 C128 0.931 . S
H147 C126 0.931 . S
H148 C130 0.931 . S
H149 C131 0.929 . S
H150 C132 0.930 . S
H151 C135 0.930 . S
H152 C136 0.931 . S
H153 C140 0.928 . S
H154 C139 0.929 . S
H155 C137 0.932 . S
C156 C157 1.386 . S
C156 C158 1.397 . S
C156 H180 0.931 . S
C157 C156 1.386 . S
C157 C161 1.397 . S
C158 C156 1.397 . S
C158 C159 1.384 . S
C158 H181 0.930 . S
C159 C158 1.384 . S
C159 C160 1.377 . S
C159 C162 1.481 . S
C160 C159 1.377 . S
C160 C161 1.389 . S
C160 H182 0.929 . S
C161 C157 1.397 . S
C161 C160 1.389 . S
C161 H183 0.931 . S
C162 C159 1.481 . S
C162 C163 1.387 . S
C162 C167 1.390 . S
C163 C162 1.387 . S
C163 C164 1.401 . S
C163 H184 0.930 . S
C164 C163 1.401 . S
C164 C165 1.376 . S
C164 C173 1.511 . S
C165 C164 1.376 . S
C165 C166 1.392 . S
C165 H186 0.931 . S
C166 C165 1.392 . S
C166 C167 1.361 . S
C166 C168 1.500 . S
C167 C162 1.390 . S
C167 C166 1.361 . S
C167 H185 0.931 . S
C168 C166 1.500 . S
C168 C169 1.371 . S
C168 C170 1.365 . S
C169 C168 1.371 . S
C169 C179 1.386 . S
C169 H187 0.931 . S
C170 C168 1.365 . S
C170 C171 1.409 . S
C170 H188 0.929 . S
C171 C170 1.409 . S
C171 C172 1.380 . S
C171 H189 0.930 . S
C172 C171 1.380 . S
C172 C179 1.357 . S
C173 C164 1.511 . S
C173 C174 1.341 . S
C173 C175 1.371 . S
C174 C173 1.341 . S
C174 C178 1.394 . S
C174 H190 0.930 . S
C175 C173 1.371 . S
C175 C176 1.392 . S
C175 H191 0.931 . S
C176 C175 1.392 . S
C176 C177 1.331 . S
C176 H194 0.932 . S
C177 C176 1.331 . S
C177 C178 1.336 . S
C178 C174 1.394 . S
C178 C177 1.336 . S
C178 H193 0.929 . S
C179 C169 1.386 . S
C179 C172 1.357 . S
C179 H192 0.928 . S
H180 C156 0.931 . S
H181 C158 0.930 . S
H182 C160 0.929 . S
H183 C161 0.931 . S
H184 C163 0.930 . S
H185 C167 0.931 . S
H186 C165 0.931 . S
H187 C169 0.931 . S
H188 C170 0.929 . S
H189 C171 0.930 . S
H190 C174 0.930 . S
H191 C175 0.931 . S
H192 C179 0.928 . S
H193 C178 0.929 . S
H194 C176 0.932 . S
C195 C196 1.386 . S
C195 C197 1.397 . S
C195 H219 0.931 . S
C196 C195 1.386 . S
C196 C200 1.397 . S
C197 C195 1.397 . S
C197 C198 1.384 . S
C197 H220 0.930 . S
C198 C197 1.384 . S
C198 C199 1.377 . S
C198 C201 1.481 . S
C199 C198 1.377 . S
C199 C200 1.389 . S
C199 H221 0.929 . S
C200 C196 1.397 . S
C200 C199 1.389 . S
C200 H222 0.931 . S
C201 C198 1.481 . S
C201 C202 1.387 . S
C201 C206 1.390 . S
C202 C201 1.387 . S
C202 C203 1.401 . S
C202 H223 0.930 . S
C203 C202 1.401 . S
C203 C204 1.376 . S
C203 C212 1.511 . S
C204 C203 1.376 . S
C204 C205 1.392 . S
C204 H225 0.931 . S
C205 C204 1.392 . S
C205 C206 1.361 . S
C205 C207 1.500 . S
C206 C201 1.390 . S
C206 C205 1.361 . S
C206 H224 0.931 . S
C207 C205 1.500 . S
C207 C208 1.371 . S
C207 C209 1.365 . S
C208 C207 1.371 . S
C208 C218 1.386 . S
C208 H226 0.931 . S
C209 C207 1.365 . S
C209 C210 1.409 . S
C209 H227 0.929 . S
C210 C209 1.409 . S
C210 C211 1.380 . S
C210 H228 0.930 . S
C211 C210 1.380 . S
C211 C218 1.357 . S
C212 C203 1.511 . S
C212 C213 1.341 . S
C212 C214 1.371 . S
C213 C212 1.341 . S
C213 C217 1.394 . S
C213 H229 0.930 . S
C214 C212 1.371 . S
C214 C215 1.392 . S
C214 H230 0.931 . S
C215 C214 1.392 . S
C215 C216 1.331 . S
C215 H233 0.932 . S
C216 C215 1.331 . S
C216 C217 1.336 . S
C217 C213 1.394 . S
C217 C216 1.336 . S
C217 H232 0.929 . S
C218 C208 1.386 . S
C218 C211 1.357 . S
C218 H231 0.928 . S
H219 C195 0.931 . S
H220 C197 0.930 . S
H221 C199 0.929 . S
H222 C200 0.931 . S
H223 C202 0.930 . S
H224 C206 0.931 . S
H225 C204 0.931 . S
H226 C208 0.931 . S
H227 C209 0.929 . S
H228 C210 0.930 . S
H229 C213 0.930 . S
H230 C214 0.931 . S
H231 C218 0.928 . S
H232 C217 0.929 . S
H233 C215 0.932 . S
C234 C235 1.386 . S
C234 C236 1.397 . S
C234 H258 0.931 . S
C235 C234 1.386 . S
C235 C239 1.397 . S
C236 C234 1.397 . S
C236 C237 1.384 . S
C236 H259 0.930 . S
C237 C236 1.384 . S
C237 C238 1.377 . S
C237 C240 1.481 . S
C238 C237 1.377 . S
C238 C239 1.389 . S
C238 H260 0.929 . S
C239 C235 1.397 . S
C239 C238 1.389 . S
C239 H261 0.931 . S
C240 C237 1.481 . S
C240 C241 1.387 . S
C240 C245 1.390 . S
C241 C240 1.387 . S
C241 C242 1.401 . S
C241 H262 0.930 . S
C242 C241 1.401 . S
C242 C243 1.376 . S
C242 C251 1.511 . S
C243 C242 1.376 . S
C243 C244 1.392 . S
C243 H264 0.931 . S
C244 C243 1.392 . S
C244 C245 1.361 . S
C244 C246 1.500 . S
C245 C240 1.390 . S
C245 C244 1.361 . S
C245 H263 0.931 . S
C246 C244 1.500 . S
C246 C247 1.371 . S
C246 C248 1.365 . S
C247 C246 1.371 . S
C247 C257 1.386 . S
C247 H265 0.931 . S
C248 C246 1.365 . S
C248 C249 1.409 . S
C248 H266 0.929 . S
C249 C248 1.409 . S
C249 C250 1.380 . S
C249 H267 0.930 . S
C250 C249 1.380 . S
C250 C257 1.357 . S
C251 C242 1.511 . S
C251 C252 1.341 . S
C251 C253 1.371 . S
C252 C251 1.341 . S
C252 C256 1.394 . S
C252 H268 0.930 . S
C253 C251 1.371 . S
C253 C254 1.392 . S
C253 H269 0.931 . S
C254 C253 1.392 . S
C254 C255 1.331 . S
C254 H272 0.932 . S
C255 C254 1.331 . S
C255 C256 1.336 . S
C256 C252 1.394 . S
C256 C255 1.336 . S
C256 H271 0.929 . S
C257 C247 1.386 . S
C257 C250 1.357 . S
C257 H270 0.928 . S
H258 C234 0.931 . S
H259 C236 0.930 . S
H260 C238 0.929 . S
H261 C239 0.931 . S
H262 C241 0.930 . S
H263 C245 0.931 . S
H264 C243 0.931 . S
H265 C247 0.931 . S
H266 C248 0.929 . S
H267 C249 0.930 . S
H268 C252 0.930 . S
H269 C253 0.931 . S
H270 C257 0.928 . S
H271 C256 0.929 . S
H272 C254 0.932 . S
C273 C274 1.386 . S
C273 C275 1.397 . S
C273 H297 0.931 . S
C274 C273 1.386 . S
C274 C278 1.397 . S
C275 C273 1.397 . S
C275 C276 1.384 . S
C275 H298 0.930 . S
C276 C275 1.384 . S
C276 C277 1.377 . S
C276 C279 1.481 . S
C277 C276 1.377 . S
C277 C278 1.389 . S
C277 H299 0.929 . S
C278 C274 1.397 . S
C278 C277 1.389 . S
C278 H300 0.931 . S
C279 C276 1.481 . S
C279 C280 1.387 . S
C279 C284 1.390 . S
C280 C279 1.387 . S
C280 C281 1.401 . S
C280 H301 0.930 . S
C281 C280 1.401 . S
C281 C282 1.376 . S
C281 C290 1.511 . S
C282 C281 1.376 . S
C282 C283 1.392 . S
C282 H303 0.931 . S
C283 C282 1.392 . S
C283 C284 1.361 . S
C283 C285 1.500 . S
C284 C279 1.390 . S
C284 C283 1.361 . S
C284 H302 0.931 . S
C285 C283 1.500 . S
C285 C286 1.371 . S
C285 C287 1.365 . S
C286 C285 1.371 . S
C286 C296 1.386 . S
C286 H304 0.931 . S
C287 C285 1.365 . S
C287 C288 1.409 . S
C287 H305 0.929 . S
C288 C287 1.409 . S
C288 C289 1.380 . S
C288 H306 0.930 . S
C289 C288 1.380 . S
C289 C296 1.357 . S
C290 C281 1.511 . S
C290 C291 1.341 . S
C290 C292 1.371 . S
C291 C290 1.341 . S
C291 C295 1.394 . S
C291 H307 0.930 . S
C292 C290 1.371 . S
C292 C293 1.392 . S
C292 H308 0.931 . S
C293 C292 1.392 . S
C293 C294 1.331 . S
C293 H311 0.932 . S
C294 C293 1.331 . S
C294 C295 1.336 . S
C295 C291 1.394 . S
C295 C294 1.336 . S
C295 H310 0.929 . S
C296 C286 1.386 . S
C296 C289 1.357 . S
C296 H309 0.928 . S
H297 C273 0.931 . S
H298 C275 0.930 . S
H299 C277 0.929 . S
H300 C278 0.931 . S
H301 C280 0.930 . S
H302 C284 0.931 . S
H303 C282 0.931 . S
H304 C286 0.931 . S
H305 C287 0.929 . S
H306 C288 0.930 . S
H307 C291 0.930 . S
H308 C292 0.931 . S
H309 C296 0.928 . S
H310 C295 0.929 . S
H311 C293 0.932 . S
Eu312 N341 2.600 . S
Eu312 N347 2.562 . S
Eu312 O356 2.462 . S
Eu312 O357 2.373 . S
Eu312 O359 2.432 . S
Eu312 O360 2.291 . S
Eu312 O364 2.335 . S
Eu312 O367 2.372 . S
Eu312 C376 2.787 . S
C313 N314 1.365 . S
C313 C316 1.405 . S
C313 C320 1.448 . S
N314 C313 1.365 . S
N314 C317 1.319 . S
N314 Eu323 2.600 . S
C315 C317 1.397 . S
C315 C318 1.367 . S
C315 H335 0.931 . S
C316 C313 1.405 . S
C316 C318 1.403 . S
C316 C322 1.439 . S
C317 N314 1.319 . S
C317 C315 1.397 . S
C317 H328 0.930 . S
C318 C315 1.367 . S
C318 C316 1.403 . S
C318 H339 0.929 . S
C319 C320 1.430 . S
C319 C321 1.387 . S
C319 C325 1.404 . S
C320 C313 1.448 . S
C320 C319 1.430 . S
C320 N324 1.351 . S
C321 C319 1.387 . S
C321 C322 1.374 . S
C321 H336 0.931 . S
C322 C316 1.439 . S
C322 C321 1.374 . S
C322 H337 0.931 . S
Eu323 N314 2.600 . S
Eu323 N324 2.562 . S
Eu323 O358 2.331 1_655 S
Eu323 O361 2.372 . S
Eu323 O362 2.462 . S
Eu323 O363 2.373 . S
Eu323 O365 2.432 . S
Eu323 O366 2.291 1_655 S
Eu323 C387 2.787 . S
N324 C320 1.351 . S
N324 Eu323 2.562 . S
N324 C326 1.325 . S
C325 C319 1.404 . S
C325 C327 1.366 . S
C325 H333 0.930 . S
C326 N324 1.325 . S
C326 C327 1.416 . S
C326 H332 0.929 . S
C327 C325 1.366 . S
C327 C326 1.416 . S
C327 H329 0.930 . S
H328 C317 0.930 . S
H329 C327 0.930 . S
H330 C345 0.930 . S
H331 C352 0.930 . S
H332 C326 0.929 . S
H333 C325 0.930 . S
H334 C348 0.929 . S
H335 C315 0.931 . S
H336 C321 0.931 . S
H337 C322 0.931 . S
H338 C343 0.931 . S
H339 C318 0.929 . S
H340 C351 0.930 . S
N341 Eu312 2.600 . S
N341 C342 1.365 . S
N341 C345 1.319 . S
C342 N341 1.365 . S
C342 C344 1.405 . S
C342 C350 1.448 . S
C343 H338 0.931 . S
C343 C345 1.397 . S
C343 C346 1.367 . S
C344 C342 1.405 . S
C344 C346 1.403 . S
C344 C377 1.439 . S
C345 H330 0.930 . S
C345 N341 1.319 . S
C345 C343 1.397 . S
C346 C343 1.367 . S
C346 C344 1.403 . S
C346 H353 0.929 . S
N347 Eu312 2.562 . S
N347 C348 1.325 . S
N347 C350 1.351 . S
C348 H334 0.929 . S
C348 N347 1.325 . S
C348 C352 1.416 . S
C349 C350 1.430 . S
C349 C351 1.404 . S
C349 C378 1.387 . S
C350 C342 1.448 . S
C350 N347 1.351 . S
C350 C349 1.430 . S
C351 H340 0.930 . S
C351 C349 1.404 . S
C351 C352 1.366 . S
C352 H331 0.930 . S
C352 C348 1.416 . S
C352 C351 1.366 . S
H353 C346 0.929 . S
H354 C377 0.931 . S
H355 C378 0.931 . S
O356 Eu312 2.462 . S
O356 C376 1.252 . S
O357 Eu312 2.373 . S
O357 C368 1.249 . S
O358 Eu323 2.331 1_455 S
O358 C368 1.268 . S
O359 Eu312 2.432 . S
O359 C376 1.268 . S
O360 Eu312 2.291 . S
O360 C375 1.255 1_455 S
O361 Eu323 2.372 . S
O361 C375 1.257 . S
O362 Eu323 2.462 . S
O362 C387 1.252 . S
O363 Eu323 2.373 . S
O363 C379 1.249 . S
O364 Eu312 2.335 . S
O364 C379 1.264 1_455 S
O365 Eu323 2.432 . S
O365 C387 1.268 . S
O366 Eu323 2.291 1_455 S
O366 C386 1.255 . S
O367 Eu312 2.372 . S
O367 C386 1.257 . S
C368 O357 1.249 . S
C368 O358 1.268 . S
C369 C372 1.382 . S
C369 C374 1.390 . S
C369 C376 1.506 . S
C370 C371 1.398 . S
C370 C374 1.392 . S
C371 C370 1.398 . S
C371 C373 1.372 . S
C371 H388 0.931 . S
C372 C369 1.382 . S
C372 C373 1.390 . S
C372 H389 0.931 . S
C373 C371 1.372 . S
C373 C372 1.390 . S
C373 H390 0.929 . S
C374 C369 1.390 . S
C374 C370 1.392 . S
C374 H391 0.930 . S
C375 O360 1.255 1_655 S
C375 O361 1.257 . S
C376 Eu312 2.787 . S
C376 O356 1.252 . S
C376 O359 1.268 . S
C376 C369 1.506 . S
C377 C344 1.439 . S
C377 H354 0.931 . S
C377 C378 1.374 . S
C378 C349 1.387 . S
C378 H355 0.931 . S
C378 C377 1.374 . S
C379 O363 1.249 . S
C379 O364 1.264 1_655 S
C380 C383 1.382 . S
C380 C384 1.390 . S
C380 C387 1.506 . S
C381 C382 1.398 . S
C381 C384 1.392 . S
C382 C381 1.398 . S
C382 C385 1.372 . S
C382 H392 0.931 . S
C383 C380 1.382 . S
C383 C385 1.390 . S
C383 H393 0.931 . S
C384 C380 1.390 . S
C384 C381 1.392 . S
C384 H394 0.930 . S
C385 C382 1.372 . S
C385 C383 1.390 . S
C385 H395 0.929 . S
C386 O366 1.255 . S
C386 O367 1.257 . S
C387 Eu323 2.787 . S
C387 O362 1.252 . S
C387 O365 1.268 . S
C387 C380 1.506 . S
H388 C371 0.931 . S
H389 C372 0.931 . S
H390 C373 0.929 . S
H391 C374 0.930 . S
H392 C382 0.931 . S
H393 C383 0.931 . S
H394 C384 0.930 . S
H395 C385 0.929 . S
Eu396 N425 2.600 . S
Eu396 N431 2.562 . S
Eu396 O440 2.462 . S
Eu396 O441 2.373 . S
Eu396 O443 2.432 . S
Eu396 O444 2.291 . S
Eu396 O448 2.335 . S
Eu396 O451 2.372 . S
Eu396 C460 2.787 . S
C397 N398 1.365 . S
C397 C400 1.405 . S
C397 C404 1.448 . S
N398 C397 1.365 . S
N398 C401 1.319 . S
N398 Eu407 2.600 . S
C399 C401 1.397 . S
C399 C402 1.367 . S
C399 H419 0.931 . S
C400 C397 1.405 . S
C400 C402 1.403 . S
C400 C406 1.439 . S
C401 N398 1.319 . S
C401 C399 1.397 . S
C401 H412 0.930 . S
C402 C399 1.367 . S
C402 C400 1.403 . S
C402 H423 0.929 . S
C403 C404 1.430 . S
C403 C405 1.387 . S
C403 C409 1.404 . S
C404 C397 1.448 . S
C404 C403 1.430 . S
C404 N408 1.351 . S
C405 C403 1.387 . S
C405 C406 1.374 . S
C405 H420 0.931 . S
C406 C400 1.439 . S
C406 C405 1.374 . S
C406 H421 0.931 . S
Eu407 N398 2.600 . S
Eu407 N408 2.562 . S
Eu407 O442 2.335 . S
Eu407 O445 2.372 . S
Eu407 O446 2.462 . S
Eu407 O447 2.373 . S
Eu407 O449 2.432 . S
Eu407 O450 2.291 . S
Eu407 C471 2.787 . S
N408 C404 1.351 . S
N408 Eu407 2.562 . S
N408 C410 1.325 . S
C409 C403 1.404 . S
C409 C411 1.366 . S
C409 H417 0.930 . S
C410 N408 1.325 . S
C410 C411 1.416 . S
C410 H416 0.929 . S
C411 C409 1.366 . S
C411 C410 1.416 . S
C411 H413 0.930 . S
H412 C401 0.930 . S
H413 C411 0.930 . S
H414 C429 0.930 . S
H415 C436 0.930 . S
H416 C410 0.929 . S
H417 C409 0.930 . S
H418 C432 0.929 . S
H419 C399 0.931 . S
H420 C405 0.931 . S
H421 C406 0.931 . S
H422 C427 0.931 . S
H423 C402 0.929 . S
H424 C435 0.930 . S
N425 Eu396 2.600 . S
N425 C426 1.365 . S
N425 C429 1.319 . S
C426 N425 1.365 . S
C426 C428 1.405 . S
C426 C434 1.448 . S
C427 H422 0.931 . S
C427 C429 1.397 . S
C427 C430 1.367 . S
C428 C426 1.405 . S
C428 C430 1.403 . S
C428 C461 1.439 . S
C429 H414 0.930 . S
C429 N425 1.319 . S
C429 C427 1.397 . S
C430 C427 1.367 . S
C430 C428 1.403 . S
C430 H437 0.929 . S
N431 Eu396 2.562 . S
N431 C432 1.325 . S
N431 C434 1.351 . S
C432 H418 0.929 . S
C432 N431 1.325 . S
C432 C436 1.416 . S
C433 C434 1.430 . S
C433 C435 1.404 . S
C433 C462 1.387 . S
C434 C426 1.448 . S
C434 N431 1.351 . S
C434 C433 1.430 . S
C435 H424 0.930 . S
C435 C433 1.404 . S
C435 C436 1.366 . S
C436 H415 0.930 . S
C436 C432 1.416 . S
C436 C435 1.366 . S
H437 C430 0.929 . S
H438 C461 0.931 . S
H439 C462 0.931 . S
O440 Eu396 2.462 . S
O440 C460 1.252 . S
O441 Eu396 2.373 . S
O441 C452 1.249 . S
O442 Eu407 2.335 . S
O442 C452 1.264 . S
O443 Eu396 2.432 . S
O443 C460 1.268 . S
O444 Eu396 2.291 . S
O444 C459 1.255 . S
O445 Eu407 2.372 . S
O445 C459 1.257 . S
O446 Eu407 2.462 . S
O446 C471 1.252 . S
O447 Eu407 2.373 . S
O447 C463 1.249 . S
O448 Eu396 2.335 . S
O448 C463 1.264 . S
O449 Eu407 2.432 . S
O449 C471 1.268 . S
O450 Eu407 2.291 . S
O450 C470 1.255 . S
O451 Eu396 2.372 . S
O451 C470 1.257 . S
C452 O441 1.249 . S
C452 O442 1.264 . S
C453 C456 1.382 . S
C453 C458 1.390 . S
C453 C460 1.506 . S
C454 C455 1.398 . S
C454 C458 1.392 . S
C455 C454 1.398 . S
C455 C457 1.372 . S
C455 H472 0.931 . S
C456 C453 1.382 . S
C456 C457 1.390 . S
C456 H473 0.931 . S
C457 C455 1.372 . S
C457 C456 1.390 . S
C457 H474 0.929 . S
C458 C453 1.390 . S
C458 C454 1.392 . S
C458 H475 0.930 . S
C459 O444 1.255 . S
C459 O445 1.257 . S
C460 Eu396 2.787 . S
C460 O440 1.252 . S
C460 O443 1.268 . S
C460 C453 1.506 . S
C461 C428 1.439 . S
C461 H438 0.931 . S
C461 C462 1.374 . S
C462 C433 1.387 . S
C462 H439 0.931 . S
C462 C461 1.374 . S
C463 O447 1.249 . S
C463 O448 1.264 . S
C464 C467 1.382 . S
C464 C468 1.390 . S
C464 C471 1.506 . S
C465 C466 1.398 . S
C465 C468 1.392 . S
C466 C465 1.398 . S
C466 C469 1.372 . S
C466 H476 0.931 . S
C467 C464 1.382 . S
C467 C469 1.390 . S
C467 H477 0.931 . S
C468 C464 1.390 . S
C468 C465 1.392 . S
C468 H478 0.930 . S
C469 C466 1.372 . S
C469 C467 1.390 . S
C469 H479 0.929 . S
C470 O450 1.255 . S
C470 O451 1.257 . S
C471 Eu407 2.787 . S
C471 O446 1.252 . S
C471 O449 1.268 . S
C471 C464 1.506 . S
H472 C455 0.931 . S
H473 C456 0.931 . S
H474 C457 0.929 . S
H475 C458 0.930 . S
H476 C466 0.931 . S
H477 C467 0.931 . S
H478 C468 0.930 . S
H479 C469 0.929 . S
Eu480 N509 2.600 . S
Eu480 N515 2.562 . S
Eu480 O524 2.462 . S
Eu480 O525 2.373 . S
Eu480 O527 2.432 . S
Eu480 O528 2.291 . S
Eu480 O532 2.335 . S
Eu480 O535 2.372 . S
Eu480 C544 2.787 . S
C481 N482 1.365 . S
C481 C484 1.405 . S
C481 C488 1.448 . S
N482 C481 1.365 . S
N482 C485 1.319 . S
N482 Eu491 2.600 . S
C483 C485 1.397 . S
C483 C486 1.367 . S
C483 H503 0.931 . S
C484 C481 1.405 . S
C484 C486 1.403 . S
C484 C490 1.439 . S
C485 N482 1.319 . S
C485 C483 1.397 . S
C485 H496 0.930 . S
C486 C483 1.367 . S
C486 C484 1.403 . S
C486 H507 0.929 . S
C487 C488 1.430 . S
C487 C489 1.387 . S
C487 C493 1.404 . S
C488 C481 1.448 . S
C488 C487 1.430 . S
C488 N492 1.351 . S
C489 C487 1.387 . S
C489 C490 1.374 . S
C489 H504 0.931 . S
C490 C484 1.439 . S
C490 C489 1.374 . S
C490 H505 0.931 . S
Eu491 N482 2.600 . S
Eu491 N492 2.562 . S
Eu491 O526 2.335 1_655 S
Eu491 O529 2.372 . S
Eu491 O530 2.462 . S
Eu491 O531 2.373 . S
Eu491 O533 2.432 . S
Eu491 O534 2.291 1_655 S
Eu491 C555 2.787 . S
N492 C488 1.351 . S
N492 Eu491 2.562 . S
N492 C494 1.325 . S
C493 C487 1.404 . S
C493 C495 1.366 . S
C493 H501 0.930 . S
C494 N492 1.325 . S
C494 C495 1.416 . S
C494 H500 0.929 . S
C495 C493 1.366 . S
C495 C494 1.416 . S
C495 H497 0.930 . S
H496 C485 0.930 . S
H497 C495 0.930 . S
H498 C513 0.930 . S
H499 C520 0.930 . S
H500 C494 0.929 . S
H501 C493 0.930 . S
H502 C516 0.929 . S
H503 C483 0.931 . S
H504 C489 0.931 . S
H505 C490 0.931 . S
H506 C511 0.931 . S
H507 C486 0.929 . S
H508 C519 0.930 . S
N509 Eu480 2.600 . S
N509 C510 1.365 . S
N509 C513 1.319 . S
C510 N509 1.365 . S
C510 C512 1.405 . S
C510 C518 1.448 . S
C511 H506 0.931 . S
C511 C513 1.397 . S
C511 C514 1.367 . S
C512 C510 1.405 . S
C512 C514 1.403 . S
C512 C545 1.439 . S
C513 H498 0.930 . S
C513 N509 1.319 . S
C513 C511 1.397 . S
C514 C511 1.367 . S
C514 C512 1.403 . S
C514 H521 0.929 . S
N515 Eu480 2.562 . S
N515 C516 1.325 . S
N515 C518 1.351 . S
C516 H502 0.929 . S
C516 N515 1.325 . S
C516 C520 1.416 . S
C517 C518 1.430 . S
C517 C519 1.404 . S
C517 C546 1.387 . S
C518 C510 1.448 . S
C518 N515 1.351 . S
C518 C517 1.430 . S
C519 H508 0.930 . S
C519 C517 1.404 . S
C519 C520 1.366 . S
C520 H499 0.930 . S
C520 C516 1.416 . S
C520 C519 1.366 . S
H521 C514 0.929 . S
H522 C545 0.931 . S
H523 C546 0.931 . S
O524 Eu480 2.462 . S
O524 C544 1.252 . S
O525 Eu480 2.373 . S
O525 C536 1.249 . S
O526 Eu491 2.335 1_455 S
O526 C536 1.264 . S
O527 Eu480 2.432 . S
O527 C544 1.268 . S
O528 Eu480 2.291 . S
O528 C543 1.255 1_455 S
O529 Eu491 2.372 . S
O529 C543 1.257 . S
O530 Eu491 2.462 . S
O530 C555 1.252 . S
O531 Eu491 2.373 . S
O531 C547 1.249 . S
O532 Eu480 2.335 . S
O532 C547 1.264 1_455 S
O533 Eu491 2.432 . S
O533 C555 1.268 . S
O534 Eu491 2.291 1_455 S
O534 C554 1.255 . S
O535 Eu480 2.372 . S
O535 C554 1.257 . S
C536 O525 1.249 . S
C536 O526 1.264 . S
C537 C540 1.382 . S
C537 C542 1.390 . S
C537 C544 1.506 . S
C538 C539 1.398 . S
C538 C542 1.392 . S
C539 C538 1.398 . S
C539 C541 1.372 . S
C539 H556 0.931 . S
C540 C537 1.382 . S
C540 C541 1.390 . S
C540 H557 0.931 . S
C541 C539 1.372 . S
C541 C540 1.390 . S
C541 H558 0.929 . S
C542 C537 1.390 . S
C542 C538 1.392 . S
C542 H559 0.930 . S
C543 O528 1.255 1_655 S
C543 O529 1.257 . S
C544 Eu480 2.787 . S
C544 O524 1.252 . S
C544 O527 1.268 . S
C544 C537 1.506 . S
C545 C512 1.439 . S
C545 H522 0.931 . S
C545 C546 1.374 . S
C546 C517 1.387 . S
C546 H523 0.931 . S
C546 C545 1.374 . S
C547 O531 1.249 . S
C547 O532 1.264 1_655 S
C548 C551 1.382 . S
C548 C552 1.390 . S
C548 C555 1.506 . S
C549 C550 1.398 . S
C549 C552 1.392 . S
C550 C549 1.398 . S
C550 C553 1.372 . S
C550 H560 0.931 . S
C551 C548 1.382 . S
C551 C553 1.390 . S
C551 H561 0.931 . S
C552 C548 1.390 . S
C552 C549 1.392 . S
C552 H562 0.930 . S
C553 C550 1.372 . S
C553 C551 1.390 . S
C553 H563 0.929 . S
C554 O534 1.255 . S
C554 O535 1.257 . S
C555 Eu491 2.787 . S
C555 O530 1.252 . S
C555 O533 1.268 . S
C555 C548 1.506 . S
H556 C539 0.931 . S
H557 C540 0.931 . S
H558 C541 0.929 . S
H559 C542 0.930 . S
H560 C550 0.931 . S
H561 C551 0.931 . S
H562 C552 0.930 . S
H563 C553 0.929 . S
Eu564 N593 2.600 . S
Eu564 N599 2.562 . S
Eu564 O608 2.462 . S
Eu564 O609 2.373 . S
Eu564 O611 2.432 . S
Eu564 O612 2.291 . S
Eu564 O616 2.335 . S
Eu564 O619 2.372 . S
Eu564 C628 2.787 . S
C565 N566 1.365 . S
C565 C568 1.405 . S
C565 C572 1.448 . S
N566 C565 1.365 . S
N566 C569 1.319 . S
N566 Eu575 2.600 . S
C567 C569 1.397 . S
C567 C570 1.367 . S
C567 H587 0.931 . S
C568 C565 1.405 . S
C568 C570 1.403 . S
C568 C574 1.439 . S
C569 N566 1.319 . S
C569 C567 1.397 . S
C569 H580 0.930 . S
C570 C567 1.367 . S
C570 C568 1.403 . S
C570 H591 0.929 . S
C571 C572 1.430 . S
C571 C573 1.387 . S
C571 C577 1.404 . S
C572 C565 1.448 . S
C572 C571 1.430 . S
C572 N576 1.351 . S
C573 C571 1.387 . S
C573 C574 1.374 . S
C573 H588 0.931 . S
C574 C568 1.439 . S
C574 C573 1.374 . S
C574 H589 0.931 . S
Eu575 N566 2.600 . S
Eu575 N576 2.562 . S
Eu575 O610 2.335 . S
Eu575 O613 2.372 . S
Eu575 O614 2.462 . S
Eu575 O615 2.373 . S
Eu575 O617 2.432 . S
Eu575 O618 2.291 . S
Eu575 C639 2.787 . S
N576 C572 1.351 . S
N576 Eu575 2.562 . S
N576 C578 1.325 . S
C577 C571 1.404 . S
C577 C579 1.366 . S
C577 H585 0.930 . S
C578 N576 1.325 . S
C578 C579 1.416 . S
C578 H584 0.929 . S
C579 C577 1.366 . S
C579 C578 1.416 . S
C579 H581 0.930 . S
H580 C569 0.930 . S
H581 C579 0.930 . S
H582 C597 0.930 . S
H583 C604 0.930 . S
H584 C578 0.929 . S
H585 C577 0.930 . S
H586 C600 0.929 . S
H587 C567 0.931 . S
H588 C573 0.931 . S
H589 C574 0.931 . S
H590 C595 0.931 . S
H591 C570 0.929 . S
H592 C603 0.930 . S
N593 Eu564 2.600 . S
N593 C594 1.365 . S
N593 C597 1.319 . S
C594 N593 1.365 . S
C594 C596 1.405 . S
C594 C602 1.448 . S
C595 H590 0.931 . S
C595 C597 1.397 . S
C595 C598 1.367 . S
C596 C594 1.405 . S
C596 C598 1.403 . S
C596 C629 1.439 . S
C597 H582 0.930 . S
C597 N593 1.319 . S
C597 C595 1.397 . S
C598 C595 1.367 . S
C598 C596 1.403 . S
C598 H605 0.929 . S
N599 Eu564 2.562 . S
N599 C600 1.325 . S
N599 C602 1.351 . S
C600 H586 0.929 . S
C600 N599 1.325 . S
C600 C604 1.416 . S
C601 C602 1.430 . S
C601 C603 1.404 . S
C601 C630 1.387 . S
C602 C594 1.448 . S
C602 N599 1.351 . S
C602 C601 1.430 . S
C603 H592 0.930 . S
C603 C601 1.404 . S
C603 C604 1.366 . S
C604 H583 0.930 . S
C604 C600 1.416 . S
C604 C603 1.366 . S
H605 C598 0.929 . S
H606 C629 0.931 . S
H607 C630 0.931 . S
O608 Eu564 2.462 . S
O608 C628 1.252 . S
O609 Eu564 2.373 . S
O609 C620 1.249 . S
O610 Eu575 2.335 . S
O610 C620 1.264 . S
O611 Eu564 2.432 . S
O611 C628 1.268 . S
O612 Eu564 2.291 . S
O612 C627 1.255 . S
O613 Eu575 2.372 . S
O613 C627 1.257 . S
O614 Eu575 2.462 . S
O614 C639 1.252 . S
O615 Eu575 2.373 . S
O615 C631 1.249 . S
O616 Eu564 2.335 . S
O616 C631 1.264 . S
O617 Eu575 2.432 . S
O617 C639 1.268 . S
O618 Eu575 2.291 . S
O618 C638 1.255 . S
O619 Eu564 2.372 . S
O619 C638 1.257 . S
C620 O609 1.249 . S
C620 O610 1.264 . S
C621 C624 1.382 . S
C621 C626 1.390 . S
C621 C628 1.506 . S
C622 C623 1.398 . S
C622 C626 1.392 . S
C623 C622 1.398 . S
C623 C625 1.372 . S
C623 H640 0.931 . S
C624 C621 1.382 . S
C624 C625 1.390 . S
C624 H641 0.931 . S
C625 C623 1.372 . S
C625 C624 1.390 . S
C625 H642 0.929 . S
C626 C621 1.390 . S
C626 C622 1.392 . S
C626 H643 0.930 . S
C627 O612 1.255 . S
C627 O613 1.257 . S
C628 Eu564 2.787 . S
C628 O608 1.252 . S
C628 O611 1.268 . S
C628 C621 1.506 . S
C629 C596 1.439 . S
C629 H606 0.931 . S
C629 C630 1.374 . S
C630 C601 1.387 . S
C630 H607 0.931 . S
C630 C629 1.374 . S
C631 O615 1.249 . S
C631 O616 1.264 . S
C632 C635 1.382 . S
C632 C636 1.390 . S
C632 C639 1.506 . S
C633 C634 1.398 . S
C633 C636 1.392 . S
C634 C633 1.398 . S
C634 C637 1.372 . S
C634 H644 0.931 . S
C635 C632 1.382 . S
C635 C637 1.390 . S
C635 H645 0.931 . S
C636 C632 1.390 . S
C636 C633 1.392 . S
C636 H646 0.930 . S
C637 C634 1.372 . S
C637 C635 1.390 . S
C637 H647 0.929 . S
C638 O618 1.255 . S
C638 O619 1.257 . S
C639 Eu575 2.787 . S
C639 O614 1.252 . S
C639 O617 1.268 . S
C639 C632 1.506 . S
H640 C623 0.931 . S
H641 C624 0.931 . S
H642 C625 0.929 . S
H643 C626 0.930 . S
H644 C634 0.931 . S
H645 C635 0.931 . S
H646 C636 0.930 . S
H647 C637 0.929 . S
H648 C656 0.950 . S
H649 C661 0.950 . S
H650 C658 0.950 . S
H651 C660 0.950 . S
H652 C662 0.950 . S
H653 C664 0.950 . S
H654 C666 0.950 . S
H655 C667 0.950 . S
C656 H648 0.950 . S
C656 C657 1.386 . S
C656 C658 1.391 1_565 S
C657 C656 1.386 . S
C657 C661 1.393 1_565 S
C658 H650 0.950 . S
C658 C656 1.391 1_545 S
C658 C659 1.400 . S
C659 C658 1.400 . S
C659 C660 1.398 . S
C659 C665 1.491 . S
C660 H651 0.950 . S
C660 C659 1.398 . S
C660 C661 1.391 . S
C661 H649 0.950 . S
C661 C657 1.393 1_545 S
C661 C660 1.391 . S
C662 H652 0.950 . S
C662 C663 1.386 . S
C662 C664 1.391 . S
C663 C662 1.386 . S
C663 C667 1.393 . S
C664 H653 0.950 . S
C664 C662 1.391 . S
C664 C665 1.400 . S
C665 C659 1.491 . S
C665 C664 1.400 . S
C665 C666 1.398 . S
C666 H654 0.950 . S
C666 C665 1.398 . S
C666 C667 1.391 . S
C667 H655 0.950 . S
C667 C663 1.393 . S
C667 C666 1.391 . S
H668 C676 0.950 . S
H669 C681 0.950 . S
H670 C678 0.950 . S
H671 C680 0.950 . S
H672 C682 0.950 . S
H673 C684 0.950 . S
H674 C686 0.950 . S
H675 C687 0.950 . S
C676 H668 0.950 . S
C676 C677 1.386 . S
C676 C678 1.391 . S
C677 C676 1.386 . S
C677 C681 1.393 . S
C678 H670 0.950 . S
C678 C676 1.391 . S
C678 C679 1.400 . S
C679 C678 1.400 . S
C679 C680 1.398 . S
C679 C685 1.491 . S
C680 H671 0.950 . S
C680 C679 1.398 . S
C680 C681 1.391 . S
C681 H669 0.950 . S
C681 C677 1.393 . S
C681 C680 1.391 . S
C682 H672 0.950 . S
C682 C683 1.386 . S
C682 C684 1.391 . S
C683 C682 1.386 . S
C683 C687 1.393 . S
C684 H673 0.950 . S
C684 C682 1.391 . S
C684 C685 1.400 . S
C685 C679 1.491 . S
C685 C684 1.400 . S
C685 C686 1.398 . S
C686 H674 0.950 . S
C686 C685 1.398 . S
C686 C687 1.391 . S
C687 H675 0.950 . S
C687 C683 1.393 . S
C687 C686 1.391 . S
H688 C696 0.950 . S
H689 C701 0.950 . S
H690 C698 0.950 . S
H691 C700 0.950 . S
H692 C702 0.950 . S
H693 C704 0.950 . S
H694 C706 0.950 . S
H695 C707 0.950 . S
C696 H688 0.950 . S
C696 C697 1.386 . S
C696 C698 1.391 . S
C697 C696 1.386 . S
C697 C701 1.393 . S
C698 H690 0.950 . S
C698 C696 1.391 . S
C698 C699 1.400 . S
C699 C698 1.400 . S
C699 C700 1.398 . S
C699 C705 1.491 . S
C700 H691 0.950 . S
C700 C699 1.398 . S
C700 C701 1.391 . S
C701 H689 0.950 . S
C701 C697 1.393 . S
C701 C700 1.391 . S
C702 H692 0.950 . S
C702 C703 1.386 . S
C702 C704 1.391 . S
C703 C702 1.386 . S
C703 C707 1.393 . S
C704 H693 0.950 . S
C704 C702 1.391 . S
C704 C705 1.400 . S
C705 C699 1.491 . S
C705 C704 1.400 . S
C705 C706 1.398 . S
C706 H694 0.950 . S
C706 C705 1.398 . S
C706 C707 1.391 . S
C707 H695 0.950 . S
C707 C703 1.393 . S
C707 C706 1.391 . S
H708 C716 0.952 . S
H709 C721 0.950 . S
H710 C718 0.950 . S
H711 C720 0.950 . S
H712 C722 0.950 . S
H713 C724 0.950 . S
H714 C726 0.950 . S
H715 C727 0.950 . S
C716 H708 0.952 . S
C716 C717 1.386 1_545 S
C716 C718 1.391 . S
C717 C716 1.386 1_565 S
C717 C721 1.393 . S
C718 H710 0.950 . S
C718 C716 1.391 . S
C718 C719 1.400 . S
C719 C718 1.400 . S
C719 C720 1.398 . S
C719 C725 1.491 . S
C720 H711 0.950 . S
C720 C719 1.398 . S
C720 C721 1.391 1_545 S
C721 H709 0.950 . S
C721 C717 1.393 . S
C721 C720 1.391 1_565 S
C722 H712 0.950 . S
C722 C723 1.386 . S
C722 C724 1.391 . S
C723 C722 1.386 . S
C723 C727 1.393 . S
C724 H713 0.950 . S
C724 C722 1.391 . S
C724 C725 1.400 . S
C725 C719 1.491 . S
C725 C724 1.400 . S
C725 C726 1.398 . S
C726 H714 0.950 . S
C726 C725 1.398 . S
C726 C727 1.391 . S
C727 H715 0.950 . S
C727 C723 1.393 . S
C727 C726 1.391 . S
H728 C736 0.950 . S
H729 C741 0.950 . S
H730 C738 0.940 1_545 S
H731 C740 0.950 . S
H732 C742 0.950 . S
H733 C744 0.950 . S
H734 C746 0.950 . S
H735 C747 0.950 . S
C736 H728 0.950 . S
C736 C737 1.386 . S
C736 C738 1.363 1_545 S
C737 C736 1.386 . S
C737 C741 1.393 1_545 S
C738 H730 0.940 1_565 S
C738 C736 1.363 1_565 S
C738 C739 1.439 . S
C739 C738 1.439 . S
C739 C740 1.398 . S
C739 C745 1.491 . S
C740 H731 0.950 . S
C740 C739 1.398 . S
C740 C741 1.391 . S
C741 H729 0.950 . S
C741 C737 1.393 1_565 S
C741 C740 1.391 . S
C742 H732 0.950 . S
C742 C743 1.386 . S
C742 C744 1.391 . S
C743 C742 1.386 . S
C743 C747 1.393 . S
C744 H733 0.950 . S
C744 C742 1.391 . S
C744 C745 1.400 . S
C745 C739 1.491 . S
C745 C744 1.400 . S
C745 C746 1.398 . S
C746 H734 0.950 . S
C746 C745 1.398 . S
C746 C747 1.391 . S
C747 H735 0.950 . S
C747 C743 1.393 . S
C747 C746 1.391 . S
H748 C756 0.950 . S
H749 C761 0.950 . S
H750 C758 0.950 . S
H751 C760 0.950 . S
H752 C762 0.950 . S
H753 C764 0.950 . S
H754 C766 0.950 . S
H755 C767 0.950 . S
C756 H748 0.950 . S
C756 C757 1.386 . S
C756 C758 1.391 . S
C757 C756 1.386 . S
C757 C761 1.393 . S
C758 H750 0.950 . S
C758 C756 1.391 . S
C758 C759 1.400 . S
C759 C758 1.400 . S
C759 C760 1.398 . S
C759 C765 1.491 . S
C760 H751 0.950 . S
C760 C759 1.398 . S
C760 C761 1.391 . S
C761 H749 0.950 . S
C761 C757 1.393 . S
C761 C760 1.391 . S
C762 H752 0.950 . S
C762 C763 1.386 . S
C762 C764 1.391 . S
C763 C762 1.386 . S
C763 C767 1.393 . S
C764 H753 0.950 . S
C764 C762 1.391 . S
C764 C765 1.400 . S
C765 C759 1.491 . S
C765 C764 1.400 . S
C765 C766 1.398 . S
C766 H754 0.950 . S
C766 C765 1.398 . S
C766 C767 1.391 . S
C767 H755 0.950 . S
C767 C763 1.393 . S
C767 C766 1.391 . S
H768 C776 0.950 . S
H769 C781 0.950 . S
H770 C778 0.950 . S
H771 C780 0.950 . S
H772 C782 0.950 . S
H773 C784 0.950 . S
H774 C786 0.950 . S
H775 C787 0.950 . S
C776 H768 0.950 . S
C776 C777 1.386 . S
C776 C778 1.391 . S
C777 C776 1.386 . S
C777 C781 1.393 . S
C778 H770 0.950 . S
C778 C776 1.391 . S
C778 C779 1.400 . S
C779 C778 1.400 . S
C779 C780 1.398 . S
C779 C785 1.491 . S
C780 H771 0.950 . S
C780 C779 1.398 . S
C780 C781 1.391 . S
C781 H769 0.950 . S
C781 C777 1.393 . S
C781 C780 1.391 . S
C782 H772 0.950 . S
C782 C783 1.386 . S
C782 C784 1.391 . S
C783 C782 1.386 . S
C783 C787 1.393 . S
C784 H773 0.950 . S
C784 C782 1.391 . S
C784 C785 1.400 . S
C785 C779 1.491 . S
C785 C784 1.400 . S
C785 C786 1.398 . S
C786 H774 0.950 . S
C786 C785 1.398 . S
C786 C787 1.391 . S
C787 H775 0.950 . S
C787 C783 1.393 . S
C787 C786 1.391 . S
H788 C796 0.950 . S
H789 C801 0.950 . S
H790 C798 0.950 . S
H791 C800 0.950 1_545 S
H792 C802 0.950 . S
H793 C804 0.950 . S
H794 C806 0.950 . S
H795 C807 0.950 . S
C796 H788 0.950 . S
C796 C797 1.386 1_565 S
C796 C798 1.391 . S
C797 C796 1.386 1_545 S
C797 C801 1.393 . S
C798 H790 0.950 . S
C798 C796 1.391 . S
C798 C799 1.400 . S
C799 C798 1.400 . S
C799 C800 1.398 . S
C799 C805 1.491 . S
C800 H791 0.950 1_565 S
C800 C799 1.398 . S
C800 C801 1.391 1_565 S
C801 H789 0.950 . S
C801 C797 1.393 . S
C801 C800 1.391 1_545 S
C802 H792 0.950 . S
C802 C803 1.386 . S
C802 C804 1.391 . S
C803 C802 1.386 . S
C803 C807 1.393 . S
C804 H793 0.950 . S
C804 C802 1.391 . S
C804 C805 1.400 . S
C805 C799 1.491 . S
C805 C804 1.400 . S
C805 C806 1.398 . S
C806 H794 0.950 . S
C806 C805 1.398 . S
C806 C807 1.391 . S
C807 H795 0.950 . S
C807 C803 1.393 . S
C807 C806 1.391 . S
H808 C816 0.950 . S
H809 C821 0.950 . S
H810 C818 0.950 . S
H811 C820 0.950 . S
H812 C822 0.950 . S
H813 C824 0.950 . S
H814 C826 0.950 . S
H815 C827 0.950 . S
C816 H808 0.950 . S
C816 C817 1.386 . S
C816 C818 1.391 . S
C817 C816 1.386 . S
C817 C821 1.393 . S
C818 H810 0.950 . S
C818 C816 1.391 . S
C818 C819 1.400 . S
C819 C818 1.400 . S
C819 C820 1.398 . S
C819 C825 1.491 . S
C820 H811 0.950 . S
C820 C819 1.398 . S
C820 C821 1.391 . S
C821 H809 0.950 . S
C821 C817 1.393 . S
C821 C820 1.391 . S
C822 H812 0.950 . S
C822 C823 1.386 . S
C822 C824 1.391 . S
C823 C822 1.386 . S
C823 C827 1.393 . S
C824 H813 0.950 . S
C824 C822 1.391 . S
C824 C825 1.400 . S
C825 C819 1.491 . S
C825 C824 1.400 . S
C825 C826 1.398 . S
C826 H814 0.950 . S
C826 C825 1.398 . S
C826 C827 1.391 . S
C827 H815 0.950 . S
C827 C823 1.393 . S
C827 C826 1.391 . S
H828 C836 0.950 . S
H829 C841 0.950 . S
H830 C838 0.950 . S
H831 C840 0.950 . S
H832 C842 0.950 . S
H833 C844 0.950 . S
H834 C846 0.950 . S
H835 C847 0.950 . S
C836 H828 0.950 . S
C836 C837 1.386 . S
C836 C838 1.391 . S
C837 C836 1.386 . S
C837 C841 1.393 . S
C838 H830 0.950 . S
C838 C836 1.391 . S
C838 C839 1.400 . S
C839 C838 1.400 . S
C839 C840 1.398 . S
C839 C845 1.491 . S
C840 H831 0.950 . S
C840 C839 1.398 . S
C840 C841 1.391 . S
C841 H829 0.950 . S
C841 C837 1.393 . S
C841 C840 1.391 . S
C842 H832 0.950 . S
C842 C843 1.386 . S
C842 C844 1.391 . S
C843 C842 1.386 . S
C843 C847 1.393 . S
C844 H833 0.950 . S
C844 C842 1.391 . S
C844 C845 1.400 . S
C845 C839 1.491 . S
C845 C844 1.400 . S
C845 C846 1.398 . S
C846 H834 0.950 . S
C846 C845 1.398 . S
C846 C847 1.391 . S
C847 H835 0.950 . S
C847 C843 1.393 . S
C847 C846 1.391 . S
H848 C856 0.950 . S
H849 C861 0.950 . S
H850 C858 0.950 . S
H851 C860 0.950 . S
H852 C862 0.950 . S
H853 C864 0.950 . S
H854 C866 0.950 . S
H855 C867 0.950 . S
C856 H848 0.950 . S
C856 C857 1.386 . S
C856 C858 1.391 . S
C857 C856 1.386 . S
C857 C861 1.393 . S
C858 H850 0.950 . S
C858 C856 1.391 . S
C858 C859 1.400 . S
C859 C858 1.400 . S
C859 C860 1.398 . S
C859 C865 1.491 . S
C860 H851 0.950 . S
C860 C859 1.398 . S
C860 C861 1.391 . S
C861 H849 0.950 . S
C861 C857 1.393 . S
C861 C860 1.391 . S
C862 H852 0.950 . S
C862 C863 1.386 . S
C862 C864 1.391 . S
C863 C862 1.386 . S
C863 C867 1.393 . S
C864 H853 0.950 . S
C864 C862 1.391 . S
C864 C865 1.400 . S
C865 C859 1.491 . S
C865 C864 1.400 . S
C865 C866 1.398 . S
C866 H854 0.950 . S
C866 C865 1.398 . S
C866 C867 1.391 . S
C867 H855 0.950 . S
C867 C863 1.393 . S
C867 C866 1.391 . S
H868 C876 0.950 . S
H869 C881 0.950 . S
H870 C878 0.950 . S
H871 C880 0.950 . S
H872 C882 0.950 . S
H873 C884 0.950 . S
H874 C886 0.950 . S
H875 C887 0.950 . S
C876 H868 0.950 . S
C876 C877 1.386 . S
C876 C878 1.391 . S
C877 C876 1.386 . S
C877 C881 1.393 . S
C878 H870 0.950 . S
C878 C876 1.391 . S
C878 C879 1.400 . S
C879 C878 1.400 . S
C879 C880 1.398 . S
C879 C885 1.491 . S
C880 H871 0.950 . S
C880 C879 1.398 . S
C880 C881 1.391 . S
C881 H869 0.950 . S
C881 C877 1.393 . S
C881 C880 1.391 . S
C882 H872 0.950 . S
C882 C883 1.386 . S
C882 C884 1.391 . S
C883 C882 1.386 . S
C883 C887 1.393 . S
C884 H873 0.950 . S
C884 C882 1.391 . S
C884 C885 1.400 . S
C885 C879 1.491 . S
C885 C884 1.400 . S
C885 C886 1.398 . S
C886 H874 0.950 . S
C886 C885 1.398 . S
C886 C887 1.391 . S
C887 H875 0.950 . S
C887 C883 1.393 . S
C887 C886 1.391 . S
H888 C896 0.950 . S
H889 C901 0.950 . S
H890 C898 0.950 . S
H891 C900 0.950 . S
H892 C902 0.950 . S
H893 C904 0.950 . S
H894 C906 0.950 . S
H895 C907 0.950 . S
C896 H888 0.950 . S
C896 C897 1.386 . S
C896 C898 1.391 . S
C897 C896 1.386 . S
C897 C901 1.393 . S
C898 H890 0.950 . S
C898 C896 1.391 . S
C898 C899 1.400 . S
C899 C898 1.400 . S
C899 C900 1.398 . S
C899 C905 1.491 . S
C900 H891 0.950 . S
C900 C899 1.398 . S
C900 C901 1.391 . S
C901 H889 0.950 . S
C901 C897 1.393 . S
C901 C900 1.391 . S
C902 H892 0.950 . S
C902 C903 1.386 . S
C902 C904 1.391 . S
C903 C902 1.386 . S
C903 C907 1.393 . S
C904 H893 0.950 . S
C904 C902 1.391 . S
C904 C905 1.400 . S
C905 C899 1.491 . S
C905 C904 1.400 . S
C905 C906 1.398 . S
C906 H894 0.950 . S
C906 C905 1.398 . S
C906 C907 1.391 . S
C907 H895 0.950 . S
C907 C903 1.393 . S
C907 C906 1.391 . S
H908 C916 0.950 . S
H909 C921 0.950 . S
H910 C918 0.950 . S
H911 C920 0.950 . S
H912 C922 0.950 . S
H913 C924 0.950 . S
H914 C926 0.950 . S
H915 C927 0.950 . S
C916 H908 0.950 . S
C916 C917 1.386 . S
C916 C918 1.391 . S
C917 C916 1.386 . S
C917 C921 1.393 . S
C918 H910 0.950 . S
C918 C916 1.391 . S
C918 C919 1.400 . S
C919 C918 1.400 . S
C919 C920 1.398 . S
C919 C925 1.491 . S
C920 H911 0.950 . S
C920 C919 1.398 . S
C920 C921 1.391 . S
C921 H909 0.950 . S
C921 C917 1.393 . S
C921 C920 1.391 . S
C922 H912 0.950 . S
C922 C923 1.386 . S
C922 C924 1.391 . S
C923 C922 1.386 . S
C923 C927 1.393 . S
C924 H913 0.950 . S
C924 C922 1.391 . S
C924 C925 1.400 . S
C925 C919 1.491 . S
C925 C924 1.400 . S
C925 C926 1.398 . S
C926 H914 0.950 . S
C926 C925 1.398 . S
C926 C927 1.391 . S
C927 H915 0.950 . S
C927 C923 1.393 . S
C927 C926 1.391 . S
H928 C936 0.950 . S
H929 C941 0.950 . S
H930 C938 0.950 . S
H931 C940 0.950 . S
H932 C942 0.950 . S
H933 C944 0.950 . S
H934 C946 0.950 . S
H935 C947 0.950 . S
C936 H928 0.950 . S
C936 C937 1.386 . S
C936 C938 1.391 . S
C937 C936 1.386 . S
C937 C941 1.393 . S
C938 H930 0.950 . S
C938 C936 1.391 . S
C938 C939 1.400 . S
C939 C938 1.400 . S
C939 C940 1.398 . S
C939 C945 1.491 . S
C940 H931 0.950 . S
C940 C939 1.398 . S
C940 C941 1.391 . S
C941 H929 0.950 . S
C941 C937 1.393 . S
C941 C940 1.391 . S
C942 H932 0.950 . S
C942 C943 1.386 . S
C942 C944 1.391 . S
C943 C942 1.386 . S
C943 C947 1.393 . S
C944 H933 0.950 . S
C944 C942 1.391 . S
C944 C945 1.400 . S
C945 C939 1.491 . S
C945 C944 1.400 . S
C945 C946 1.398 . S
C946 H934 0.950 . S
C946 C945 1.398 . S
C946 C947 1.391 . S
C947 H935 0.950 . S
C947 C943 1.393 . S
C947 C946 1.391 . S
H948 C956 0.950 . S
H949 C961 0.950 . S
H950 C958 0.950 . S
H951 C960 0.950 . S
H952 C962 0.950 . S
H953 C964 0.950 . S
H954 C966 0.950 . S
H955 C967 0.950 . S
C956 H948 0.950 . S
C956 C957 1.386 . S
C956 C958 1.391 . S
C957 C956 1.386 . S
C957 C961 1.393 . S
C958 H950 0.950 . S
C958 C956 1.391 . S
C958 C959 1.400 . S
C959 C958 1.400 . S
C959 C960 1.398 . S
C959 C965 1.491 . S
C960 H951 0.950 . S
C960 C959 1.398 . S
C960 C961 1.391 . S
C961 H949 0.950 . S
C961 C957 1.393 . S
C961 C960 1.391 . S
C962 H952 0.950 . S
C962 C963 1.386 . S
C962 C964 1.391 . S
C963 C962 1.386 . S
C963 C967 1.393 . S
C964 H953 0.950 . S
C964 C962 1.391 . S
C964 C965 1.400 . S
C965 C959 1.491 . S
C965 C964 1.400 . S
C965 C966 1.398 . S
C966 H954 0.950 . S
C966 C965 1.398 . S
C966 C967 1.391 . S
C967 H955 0.950 . S
C967 C963 1.393 . S
C967 C966 1.391 . S
H968 C976 0.950 . S
H969 C981 0.950 . S
H970 C978 0.950 . S
H971 C980 0.950 . S
H972 C982 0.950 . S
H973 C984 0.950 . S
H974 C986 0.950 . S
H975 C987 0.950 1_655 S
C976 H968 0.950 . S
C976 C977 1.386 . S
C976 C978 1.391 . S
C977 C976 1.386 . S
C977 C981 1.393 . S
C978 H970 0.950 . S
C978 C976 1.391 . S
C978 C979 1.400 . S
C979 C978 1.400 . S
C979 C980 1.398 . S
C979 C985 1.491 . S
C980 H971 0.950 . S
C980 C979 1.398 . S
C980 C981 1.391 . S
C981 H969 0.950 . S
C981 C977 1.393 . S
C981 C980 1.391 . S
C982 H972 0.950 . S
C982 C983 1.386 . S
C982 C984 1.391 . S
C983 C982 1.386 . S
C983 C987 1.393 . S
C984 H973 0.950 . S
C984 C982 1.391 . S
C984 C985 1.400 . S
C985 C979 1.491 . S
C985 C984 1.400 . S
C985 C986 1.398 . S
C986 H974 0.950 . S
C986 C985 1.398 . S
C986 C987 1.391 . S
C987 H975 0.950 1_455 S
C987 C983 1.393 . S
C987 C986 1.391 . S
H988 C996 0.950 . S
H989 C1001 0.950 . S
H990 C998 0.950 . S
H991 C1000 0.950 . S
H992 C1002 0.950 . S
H993 C1004 0.950 . S
H994 C1006 0.950 . S
H995 C1007 0.950 . S
C996 H988 0.950 . S
C996 C997 1.386 . S
C996 C998 1.391 . S
C997 C996 1.386 . S
C997 C1001 1.393 . S
C998 H990 0.950 . S
C998 C996 1.391 . S
C998 C999 1.400 . S
C999 C998 1.400 . S
C999 C1000 1.398 . S
C999 C1005 1.491 . S
C1000 H991 0.950 . S
C1000 C999 1.398 . S
C1000 C1001 1.391 . S
C1001 H989 0.950 . S
C1001 C997 1.393 . S
C1001 C1000 1.391 . S
C1002 H992 0.950 . S
C1002 C1003 1.386 . S
C1002 C1004 1.391 . S
C1003 C1002 1.386 . S
C1003 C1007 1.393 . S
C1004 H993 0.950 . S
C1004 C1002 1.391 . S
C1004 C1005 1.400 . S
C1005 C999 1.491 . S
C1005 C1004 1.400 . S
C1005 C1006 1.398 . S
C1006 H994 0.950 . S
C1006 C1005 1.398 . S
C1006 C1007 1.391 . S
C1007 H995 0.950 . S
C1007 C1003 1.393 . S
C1007 C1006 1.391 . S
H1008 C1016 0.950 . S
H1009 C1021 0.950 . S
H1010 C1018 0.950 . S
H1011 C1020 0.950 . S
H1012 C1022 0.950 . S
H1013 C1024 0.950 . S
H1014 C1026 0.950 . S
H1015 C1027 0.950 . S
C1016 H1008 0.950 . S
C1016 C1017 1.386 . S
C1016 C1018 1.391 . S
C1017 C1016 1.386 . S
C1017 C1021 1.393 . S
C1018 H1010 0.950 . S
C1018 C1016 1.391 . S
C1018 C1019 1.400 . S
C1019 C1018 1.400 . S
C1019 C1020 1.398 . S
C1019 C1025 1.491 . S
C1020 H1011 0.950 . S
C1020 C1019 1.398 . S
C1020 C1021 1.391 . S
C1021 H1009 0.950 . S
C1021 C1017 1.393 . S
C1021 C1020 1.391 . S
C1022 H1012 0.950 . S
C1022 C1023 1.386 . S
C1022 C1024 1.391 . S
C1023 C1022 1.386 . S
C1023 C1027 1.393 . S
C1024 H1013 0.950 . S
C1024 C1022 1.391 . S
C1024 C1025 1.400 . S
C1025 C1019 1.491 . S
C1025 C1024 1.400 . S
C1025 C1026 1.398 . S
C1026 H1014 0.950 . S
C1026 C1025 1.398 . S
C1026 C1027 1.391 . S
C1027 H1015 0.950 . S
C1027 C1023 1.393 . S
C1027 C1026 1.391 . S
H1028 C1036 0.950 . S
H1029 C1041 0.950 . S
H1030 C1038 0.950 . S
H1031 C1040 0.950 . S
H1032 C1042 0.950 . S
H1033 C1044 0.950 . S
H1034 C1046 0.950 . S
H1035 C1047 0.950 . S
C1036 H1028 0.950 . S
C1036 C1037 1.386 . S
C1036 C1038 1.391 . S
C1037 C1036 1.386 . S
C1037 C1041 1.393 . S
C1038 H1030 0.950 . S
C1038 C1036 1.391 . S
C1038 C1039 1.400 . S
C1039 C1038 1.400 . S
C1039 C1040 1.398 . S
C1039 C1045 1.491 . S
C1040 H1031 0.950 . S
C1040 C1039 1.398 . S
C1040 C1041 1.391 . S
C1041 H1029 0.950 . S
C1041 C1037 1.393 . S
C1041 C1040 1.391 . S
C1042 H1032 0.950 . S
C1042 C1043 1.386 . S
C1042 C1044 1.391 . S
C1043 C1042 1.386 . S
C1043 C1047 1.393 . S
C1044 H1033 0.950 . S
C1044 C1042 1.391 . S
C1044 C1045 1.400 . S
C1045 C1039 1.491 . S
C1045 C1044 1.400 . S
C1045 C1046 1.398 . S
C1046 H1034 0.950 . S
C1046 C1045 1.398 . S
C1046 C1047 1.391 . S
C1047 H1035 0.950 . S
C1047 C1043 1.393 . S
C1047 C1046 1.391 . S
H1048 C1056 0.950 . S
H1049 C1061 0.950 . S
H1050 C1058 0.950 . S
H1051 C1060 0.950 . S
H1052 C1062 0.950 . S
H1053 C1064 0.950 . S
H1054 C1066 0.950 . S
H1055 C1067 0.950 . S
C1056 H1048 0.950 . S
C1056 C1057 1.386 . S
C1056 C1058 1.391 . S
C1057 C1056 1.386 . S
C1057 C1061 1.393 . S
C1058 H1050 0.950 . S
C1058 C1056 1.391 . S
C1058 C1059 1.400 . S
C1059 C1058 1.400 . S
C1059 C1060 1.398 . S
C1059 C1065 1.491 . S
C1060 H1051 0.950 . S
C1060 C1059 1.398 . S
C1060 C1061 1.391 . S
C1061 H1049 0.950 . S
C1061 C1057 1.393 . S
C1061 C1060 1.391 . S
C1062 H1052 0.950 . S
C1062 C1063 1.386 . S
C1062 C1064 1.391 . S
C1063 C1062 1.386 . S
C1063 C1067 1.393 . S
C1064 H1053 0.950 . S
C1064 C1062 1.391 . S
C1064 C1065 1.400 . S
C1065 C1059 1.491 . S
C1065 C1064 1.400 . S
C1065 C1066 1.398 . S
C1066 H1054 0.950 . S
C1066 C1065 1.398 . S
C1066 C1067 1.391 . S
C1067 H1055 0.950 . S
C1067 C1063 1.393 . S
C1067 C1066 1.391 . S
H1068 C1076 0.950 . S
H1069 C1081 0.950 . S
H1070 C1078 0.950 . S
H1071 C1080 0.950 . S
H1072 C1082 0.950 . S
H1073 C1084 0.950 . S
H1074 C1086 0.950 . S
H1075 C1087 0.950 . S
C1076 H1068 0.950 . S
C1076 C1077 1.386 . S
C1076 C1078 1.391 . S
C1077 C1076 1.386 . S
C1077 C1081 1.393 . S
C1078 H1070 0.950 . S
C1078 C1076 1.391 . S
C1078 C1079 1.400 . S
C1079 C1078 1.400 . S
C1079 C1080 1.398 . S
C1079 C1085 1.491 . S
C1080 H1071 0.950 . S
C1080 C1079 1.398 . S
C1080 C1081 1.391 . S
C1081 H1069 0.950 . S
C1081 C1077 1.393 . S
C1081 C1080 1.391 . S
C1082 H1072 0.950 . S
C1082 C1083 1.386 . S
C1082 C1084 1.391 . S
C1083 C1082 1.386 . S
C1083 C1087 1.393 . S
C1084 H1073 0.950 . S
C1084 C1082 1.391 . S
C1084 C1085 1.400 . S
C1085 C1079 1.491 . S
C1085 C1084 1.400 . S
C1085 C1086 1.398 . S
C1086 H1074 0.950 . S
C1086 C1085 1.398 . S
C1086 C1087 1.391 . S
C1087 H1075 0.950 . S
C1087 C1083 1.393 . S
C1087 C1086 1.391 . S
H1088 C1096 0.950 . S
H1089 C1101 0.950 . S
H1090 C1098 0.950 . S
H1091 C1100 0.950 . S
H1092 C1102 0.950 . S
H1093 C1104 0.950 . S
H1094 C1106 0.950 . S
H1095 C1107 0.950 . S
C1096 H1088 0.950 . S
C1096 C1097 1.386 . S
C1096 C1098 1.391 . S
C1097 C1096 1.386 . S
C1097 C1101 1.393 . S
C1098 H1090 0.950 . S
C1098 C1096 1.391 . S
C1098 C1099 1.400 . S
C1099 C1098 1.400 . S
C1099 C1100 1.398 . S
C1099 C1105 1.491 . S
C1100 H1091 0.950 . S
C1100 C1099 1.398 . S
C1100 C1101 1.391 . S
C1101 H1089 0.950 . S
C1101 C1097 1.393 . S
C1101 C1100 1.391 . S
C1102 H1092 0.950 . S
C1102 C1103 1.386 . S
C1102 C1104 1.391 . S
C1103 C1102 1.386 . S
C1103 C1107 1.393 . S
C1104 H1093 0.950 . S
C1104 C1102 1.391 . S
C1104 C1105 1.400 . S
C1105 C1099 1.491 . S
C1105 C1104 1.400 . S
C1105 C1106 1.398 . S
C1106 H1094 0.950 . S
C1106 C1105 1.398 . S
C1106 C1107 1.391 . S
C1107 H1095 0.950 . S
C1107 C1103 1.393 . S
C1107 C1106 1.391 . S
H1108 C1116 0.950 . S
H1109 C1121 0.950 . S
H1110 C1118 0.950 . S
H1111 C1120 0.950 . S
H1112 C1122 0.950 . S
H1113 C1124 0.950 . S
H1114 C1126 0.950 . S
H1115 C1127 0.950 . S
C1116 H1108 0.950 . S
C1116 C1117 1.386 . S
C1116 C1118 1.391 . S
C1117 C1116 1.386 . S
C1117 C1121 1.393 . S
C1118 H1110 0.950 . S
C1118 C1116 1.391 . S
C1118 C1119 1.400 . S
C1119 C1118 1.400 . S
C1119 C1120 1.398 . S
C1119 C1125 1.491 . S
C1120 H1111 0.950 . S
C1120 C1119 1.398 . S
C1120 C1121 1.391 . S
C1121 H1109 0.950 . S
C1121 C1117 1.393 . S
C1121 C1120 1.391 . S
C1122 H1112 0.950 . S
C1122 C1123 1.386 . S
C1122 C1124 1.391 . S
C1123 C1122 1.386 . S
C1123 C1127 1.393 . S
C1124 H1113 0.950 . S
C1124 C1122 1.391 . S
C1124 C1125 1.400 . S
C1125 C1119 1.491 . S
C1125 C1124 1.400 . S
C1125 C1126 1.398 . S
C1126 H1114 0.950 . S
C1126 C1125 1.398 . S
C1126 C1127 1.391 . S
C1127 H1115 0.950 . S
C1127 C1123 1.393 . S
C1127 C1126 1.391 . S
C657 C235 1.475 . S
C663 C386 1.468 . S
C683 C470 1.466 . S
C677 C289 1.479 . S
C703 C463 1.476 . S
C697 C157 1.475 . S
C717 C211 1.474 . S
C723 C379 1.474 . S
C743 C543 1.468 . S
C737 C79 1.481 . S
C763 C627 1.475 . S
C757 C118 1.481 . S
C777 C1 1.470 . S
C783 C620 1.468 . S
C797 C40 1.474 . S
C803 C536 1.473 . S
C823 C370 1.360 . S
C817 C55 1.519 1_554 S
C843 C454 1.361 . S
C837 C16 1.520 . S
C863 C465 1.413 . S
C857 C133 1.538 1_556 S
C883 C381 1.403 . S
C877 C94 1.531 . S
C903 C549 1.331 . S
C897 C196 1.519 1_556 S
C917 C172 1.519 . S
C923 C633 1.338 . S
C943 C622 1.421 . S
C937 C274 1.541 1_554 S
C957 C250 1.536 . S
C963 C538 1.385 . S
C983 C368 1.574 . S
C977 C21 1.572 . S
C1003 C452 1.578 . S
C997 C60 1.576 . S
C1017 C99 1.563 . S
C1023 C459 1.562 . S
C1043 C375 1.556 . S
C1037 C138 1.575 . S
C1063 C547 1.584 . S
C1057 C177 1.583 . S
C1077 C216 1.575 . S
C1083 C631 1.584 . S
C1097 C255 1.566 . S
C1103 C638 1.572 . S
C1117 C294 1.568 . S
C1123 C554 1.568 . S
