# Generated by pormake.
# Topology zzz, (3,6)-cn, num edge types: 1
# Building blocks:
#     Node 0, Type 0, BuildingBlock: PAMTOO_clean_linker_0, # of connection points: 3
#     Node 1, Type 0, BuildingBlock: PAMTOO_clean_linker_0, # of connection points: 3
#     Node 2, Type 0, BuildingBlock: PAMTOO_clean_linker_0, # of connection points: 3
#     Node 3, Type 0, BuildingBlock: PAMTOO_clean_linker_0, # of connection points: 3
#     Node 4, Type 0, BuildingBlock: PAMTOO_clean_linker_0, # of connection points: 3
#     Node 5, Type 0, BuildingBlock: PAMTOO_clean_linker_0, # of connection points: 3
#     Node 6, Type 0, BuildingBlock: PAMTOO_clean_linker_0, # of connection points: 3
#     Node 7, Type 0, BuildingBlock: PAMTOO_clean_linker_0, # of connection points: 3
#     Node 8, Type 1, BuildingBlock: PAMTUU_clean_sbu_0, # of connection points: 6
#     Node 9, Type 1, BuildingBlock: PAMTUU_clean_sbu_0, # of connection points: 6
#     Node 10, Type 1, BuildingBlock: PAMTUU_clean_sbu_0, # of connection points: 6
#     Node 11, Type 1, BuildingBlock: PAMTUU_clean_sbu_0, # of connection points: 6
#     Edge 12, Type (0, 1), BuildingBlock: CIFDUS_clean_linker_0, # of connection points: 2
#     Edge 13, Type (0, 1), BuildingBlock: CIFDUS_clean_linker_0, # of connection points: 2
#     Edge 14, Type (0, 1), BuildingBlock: CIFDUS_clean_linker_0, # of connection points: 2
#     Edge 15, Type (0, 1), BuildingBlock: CIFDUS_clean_linker_0, # of connection points: 2
#     Edge 16, Type (0, 1), BuildingBlock: CIFDUS_clean_linker_0, # of connection points: 2
#     Edge 17, Type (0, 1), BuildingBlock: CIFDUS_clean_linker_0, # of connection points: 2
#     Edge 18, Type (0, 1), BuildingBlock: CIFDUS_clean_linker_0, # of connection points: 2
#     Edge 19, Type (0, 1), BuildingBlock: CIFDUS_clean_linker_0, # of connection points: 2
#     Edge 20, Type (0, 1), BuildingBlock: CIFDUS_clean_linker_0, # of connection points: 2
#     Edge 21, Type (0, 1), BuildingBlock: CIFDUS_clean_linker_0, # of connection points: 2
#     Edge 22, Type (0, 1), BuildingBlock: CIFDUS_clean_linker_0, # of connection points: 2
#     Edge 23, Type (0, 1), BuildingBlock: CIFDUS_clean_linker_0, # of connection points: 2
#     Edge 24, Type (0, 1), BuildingBlock: CIFDUS_clean_linker_0, # of connection points: 2
#     Edge 25, Type (0, 1), BuildingBlock: CIFDUS_clean_linker_0, # of connection points: 2
#     Edge 26, Type (0, 1), BuildingBlock: CIFDUS_clean_linker_0, # of connection points: 2
#     Edge 27, Type (0, 1), BuildingBlock: CIFDUS_clean_linker_0, # of connection points: 2
#     Edge 28, Type (0, 1), BuildingBlock: CIFDUS_clean_linker_0, # of connection points: 2
#     Edge 29, Type (0, 1), BuildingBlock: CIFDUS_clean_linker_0, # of connection points: 2
#     Edge 30, Type (0, 1), BuildingBlock: CIFDUS_clean_linker_0, # of connection points: 2
#     Edge 31, Type (0, 1), BuildingBlock: CIFDUS_clean_linker_0, # of connection points: 2
#     Edge 32, Type (0, 1), BuildingBlock: CIFDUS_clean_linker_0, # of connection points: 2
#     Edge 33, Type (0, 1), BuildingBlock: CIFDUS_clean_linker_0, # of connection points: 2
#     Edge 34, Type (0, 1), BuildingBlock: CIFDUS_clean_linker_0, # of connection points: 2
#     Edge 35, Type (0, 1), BuildingBlock: CIFDUS_clean_linker_0, # of connection points: 2
# Relax obj value: 0.236
# Max RMSD: 0.236
# Mean RMSD: 0.117
data_MOF--net-zzz--node1-PAMTUU_clean_sbu_0--node2-PAMTOO_clean_linker_0--edge1-CIFDUS_clean_linker_0
_symmetry_space_group_name_H-M    P1
_symmetry_Int_Tables_number       1
_symmetry_cell_setting            triclinic
loop_
_symmetry_equiv_pos_as_xyz
'x, y, z'
_cell_length_a     43.470004
_cell_length_b     47.852143
_cell_length_c     13.902964
_cell_angle_alpha  102.3178
_cell_angle_beta   90.781526
_cell_angle_gamma 90.097273
loop_
_atom_site_label
_atom_site_type_symbol
_atom_site_fract_x
_atom_site_fract_y
_atom_site_fract_z
_atom_type_partial_charge
H0 H 0.8456 0.56235 0.52312 0.0
H1 H 0.75674 0.55308 0.37957 0.0
H2 H 0.78977 0.48846 0.52794 0.0
H3 H 0.73225 0.46568 0.3388 0.0
C4 C 0.73824 0.48741 0.32846 0.0
O5 O 0.7428 0.50511 0.42146 0.0
H6 H 0.76017 0.48477 0.28697 0.0
C7 C 0.82422 0.55069 0.50503 0.0
C8 C 0.82098 0.52458 0.53479 0.0
C9 C 0.80207 0.56059 0.44502 0.0
C10 C 0.77416 0.5457 0.42471 0.0
C11 C 0.7696 0.5196 0.452 0.0
C12 C 0.79303 0.5089 0.50789 0.0
H13 H 0.06707 0.82187 0.47441 0.0
H14 H 0.05406 0.741 0.27276 0.0
H15 H 1.0007 0.76187 0.53688 0.0
H16 H 1.01114 0.69385 0.46774 0.0
C17 C 1.02374 0.69753 0.40246 0.0
O18 O 1.01249 0.72218 0.37825 0.0
H19 H 0.04867 0.69975 0.4224 0.0
C20 C 0.05686 0.80063 0.45661 0.0
C21 C 1.03383 0.79385 0.51709 0.0
C22 C 0.06412 0.78201 0.36784 0.0
C23 C 0.04921 0.75538 0.34225 0.0
C24 C 1.02712 0.74769 0.40485 0.0
C25 C 1.01901 0.76715 0.49166 0.0
H26 H 0.71503 0.05687 0.47766 0.0
H27 H 0.79646 0.0478 0.30217 0.0
H28 H 0.775 0.98508 0.47212 0.0
H29 H 0.85432 0.99468 0.41758 0.0
C30 C 0.84537 0.00841 0.36848 0.0
O31 O 0.81482 1.00054 0.34402 0.0
H32 H 0.84669 0.03096 0.41062 0.0
C33 C 0.73654 0.04602 0.45622 0.0
C34 C 0.74281 0.02059 0.48761 0.0
C35 C 0.75539 0.05589 0.38891 0.0
C36 C 0.78207 0.0407 0.35546 0.0
C37 C 0.78987 0.0156 0.38618 0.0
C38 C 0.7699 1.00519 0.45166 0.0
H39 H 0.51948 0.69105 0.22725 0.0
H40 H 0.4982 0.7473 0.03274 0.0
H41 H 0.55246 0.77782 0.29747 0.0
H42 H 0.54855 0.78693 0.01448 0.0
C43 C 0.5475 0.80212 0.08712 0.0
O44 O 0.52512 0.79301 0.14393 0.0
H45 H 0.57036 0.80173 0.12375 0.0
C46 C 0.52034 0.71223 0.21068 0.0
C47 C 0.53721 0.7337 0.27297 0.0
C48 C 0.50644 0.71659 0.12408 0.0
C49 C 0.50872 0.74369 0.10008 0.0
C50 C 0.52474 0.76624 0.16373 0.0
C51 C 0.53951 0.76092 0.24958 0.0
H52 H 0.2409 0.47062 0.3181 0.0
H53 H 0.3362 0.48377 0.3959 0.0
H54 H 0.30372 0.4962 0.1145 0.0
H55 H 0.39266 0.48348 0.1691 0.0
C56 C 0.37956 0.48162 0.2355 0.0
O57 O 0.35321 0.49854 0.23929 0.0
H58 H 0.37315 0.45861 0.22473 0.0
C59 C 0.26408 0.47438 0.29576 0.0
C60 C 0.2686 0.48198 0.20467 0.0
C61 C 0.28829 0.47524 0.36435 0.0
C62 C 0.31791 0.48215 0.34111 0.0
C63 C 0.3241 0.48907 0.25138 0.0
C64 C 0.29932 0.48937 0.18241 0.0
H65 H 1.02488 0.191 0.27166 0.0
H66 H 1.02944 0.27744 0.43898 0.0
H67 H 0.09386 0.24834 0.20582 0.0
H68 H 0.11995 0.30611 0.37021 0.0
C69 C 0.09915 0.30135 0.40955 0.0
O70 O 0.07575 0.29261 0.34131 0.0
H71 H 0.10565 0.28408 0.44847 0.0
C72 C 1.03525 0.21218 0.28529 0.0
C73 C 0.06037 0.2171 0.22949 0.0
C74 C 1.02409 0.23362 0.36103 0.0
C75 C 0.03797 0.26071 0.38044 0.0
C76 C 0.06304 0.26614 0.32408 0.0
C77 C 0.07444 0.24421 0.24884 0.0
H78 H 0.33239 0.94987 0.17219 0.0
H79 H 0.25106 0.95977 0.34852 0.0
H80 H 0.27679 0.02508 0.19443 0.0
H81 H 0.20137 0.98304 0.24716 0.0
C82 C 0.20488 1.00471 0.29463 0.0
O83 O 0.236 0.00946 0.3191 0.0
H84 H 0.19759 0.02048 0.25073 0.0
C85 C 0.31133 0.96126 0.19576 0.0
C86 C 0.3065 0.98769 0.17 0.0
C87 C 0.29207 0.9513 0.2619 0.0
C88 C 0.26587 0.9671 0.29688 0.0
C89 C 0.25961 0.99338 0.27203 0.0
C90 C 0.28037 1.00402 0.2094 0.0
H91 H 0.53221 0.31491 0.48397 0.0
H92 H 0.55393 0.25271 0.65627 0.0
H93 H 0.5084 0.22672 0.37254 0.0
H94 H 0.48704 0.19325 0.51915 0.0
C95 C 0.50711 0.19674 0.57077 0.0
O96 O 0.53111 0.20854 0.52752 0.0
H97 H 0.49996 0.21216 0.63851 0.0
C98 C 0.53221 0.29288 0.49269 0.0
C99 C 0.51869 0.27197 0.41901 0.0
C100 C 0.54537 0.2864 0.57743 0.0
C101 C 0.54426 0.25799 0.59018 0.0
C102 C 0.53099 0.2362 0.51627 0.0
C103 C 0.51843 0.24329 0.42981 0.0
Tb104 Tb 0.99797 0.01875 0.76758 0.0
Tb105 Tb 0.05324 1.00003 0.90217 0.0
C106 C 0.98396 0.00656 0.97703 0.0
C107 C 0.95226 0.06807 0.65894 0.0
C108 C 0.95641 0.12454 0.63023 0.0
C109 C 0.95322 0.10131 0.54921 0.0
C110 C 0.95118 0.07331 0.56352 0.0
C111 C 0.9532 0.09143 0.74 0.0
C112 C 0.95525 0.11936 0.72572 0.0
C113 C 0.9564 0.03859 0.67324 0.0
O114 O 1.01303 0.05721 0.8699 0.0
O115 O 0.06185 0.04546 0.91217 0.0
O116 O 0.07368 0.99767 0.75742 0.0
O117 O 0.04083 0.02691 0.69493 0.0
O118 O 0.07411 0.99972 0.0396 0.0
O119 O 0.09361 0.97631 0.90503 0.0
O120 O 1.02573 0.96175 0.84778 0.0
O121 O 1.00332 0.9732 0.71094 0.0
O122 O 0.97434 1.00331 0.88513 0.0
O123 O 1.01348 0.01059 0.99958 0.0
C124 C 0.04079 0.06457 0.90453 0.0
O125 O 0.98044 0.02513 0.63177 0.0
O126 O 0.95333 0.03503 0.76284 0.0
C127 C 0.0672 0.01314 0.69228 0.0
C128 C 0.09316 0.95334 0.03569 0.0
C129 C 0.09115 0.89763 0.0718 0.0
C130 C 0.11957 0.91098 0.06333 0.0
C131 C 0.12054 0.93863 0.04496 0.0
C132 C 0.06485 0.94032 0.04619 0.0
C133 C 0.06385 0.91284 0.06446 0.0
C134 C 0.09372 0.98011 1.00037 0.0
C135 C 1.01161 0.95426 0.76206 0.0
H136 H 0.95437 0.10455 0.47459 0.0
H137 H 0.95049 0.05567 0.49997 0.0
H138 H 0.95399 0.08816 0.81472 0.0
H139 H 0.95739 0.13682 0.78948 0.0
H140 H 0.14097 0.89981 0.06852 0.0
H141 H 0.14258 0.94817 0.03509 0.0
H142 H 0.04341 0.95114 0.03778 0.0
H143 H 0.0416 0.90351 0.07298 0.0
Tb144 Tb 0.51828 0.98393 0.72409 0.0
Tb145 Tb 0.53505 0.01717 0.94742 0.0
C146 C 0.52771 0.94943 0.89319 0.0
C147 C 0.48404 0.93291 0.51192 0.0
C148 C 0.43403 0.89746 0.43446 0.0
C149 C 0.44204 0.90163 0.53503 0.0
C150 C 0.46672 0.91947 0.57367 0.0
C151 C 0.47819 0.92653 0.41054 0.0
C152 C 0.45343 0.90892 0.37195 0.0
C153 C 0.50622 0.95549 0.55312 0.0
O154 O 0.47298 0.99239 0.7957 0.0
O155 O 0.48733 1.00414 0.95958 0.0
O156 O 0.51834 0.04996 0.87229 0.0
O157 O 0.52596 0.02835 0.71108 0.0
O158 O 0.56442 0.02332 0.07102 0.0
O159 O 0.52374 0.04905 0.07054 0.0
O160 O 0.57556 0.02292 0.85973 0.0
O161 O 0.56885 0.98451 0.7319 0.0
O162 O 0.51307 0.95173 0.81207 0.0
O163 O 0.54179 0.97162 0.94892 0.0
C164 C 0.46597 0.9979 0.89036 0.0
O165 O 0.49439 0.98048 0.58983 0.0
O166 O 0.5275 0.94858 0.61053 0.0
C167 C 0.52114 0.05147 0.77951 0.0
C168 C 0.56739 0.07107 0.15547 0.0
C169 C 0.61401 0.11113 0.22672 0.0
C170 C 0.60513 0.10566 0.12663 0.0
C171 C 0.58212 0.08551 0.09102 0.0
C172 C 0.57327 0.07917 0.25661 0.0
C173 C 0.5963 0.09916 0.29222 0.0
C174 C 0.549 0.04536 0.11738 0.0
C175 C 0.58638 1.00515 0.78177 0.0
H176 H 0.42789 0.89283 0.58497 0.0
H177 H 0.47121 0.92401 0.65234 0.0
H178 H 0.49154 0.93661 0.36194 0.0
H179 H 0.44797 0.90656 0.29441 0.0
H180 H 0.61785 0.1149 0.07454 0.0
H181 H 0.57741 0.07971 0.01252 0.0
H182 H 0.56178 0.06841 0.30731 0.0
H183 H 0.60231 0.10265 0.36971 0.0
Tb184 Tb 0.51768 0.49231 0.91975 0.0
Tb185 Tb 0.56714 0.51424 0.77329 0.0
C186 C 0.49924 0.49585 0.70224 0.0
C187 C 0.48155 0.44582 0.07165 0.0
C188 C 0.47959 0.39597 0.15265 0.0
C189 C 0.47338 0.42332 0.21095 0.0
C190 C 0.47423 0.44784 0.17084 0.0
C191 C 0.48811 0.41867 0.01336 0.0
C192 C 0.4871 0.3941 0.05324 0.0
C193 C 0.48156 0.47194 0.02956 0.0
O194 O 0.54716 0.45584 0.86837 0.0
O195 O 0.57038 0.46762 0.73348 0.0
O196 O 0.5972 0.50255 0.88749 0.0
O197 O 0.56042 0.50401 0.00667 0.0
O198 O 0.58169 0.51701 0.63164 0.0
O199 O 0.60218 0.54369 0.76084 0.0
O200 O 0.55251 0.54908 0.88809 0.0
O201 O 0.50372 0.53618 0.91365 0.0
O202 O 0.49875 0.48025 0.76953 0.0
O203 O 0.52082 0.51545 0.70611 0.0
C204 C 0.56307 0.4489 0.78704 0.0
O205 O 0.50231 0.49142 0.06293 0.0
O206 O 0.4785 0.46796 0.9344 0.0
C207 C 0.58958 0.50285 0.97958 0.0
C208 C 0.59148 0.56581 0.62809 0.0
C209 C 0.57663 0.6183 0.57378 0.0
C210 C 0.60683 0.61286 0.60287 0.0
C211 C 0.61412 0.58693 0.62994 0.0
C212 C 0.56146 0.57101 0.59771 0.0
C213 C 0.55419 0.59678 0.57057 0.0
C214 C 0.59853 0.53967 0.66581 0.0
C215 C 0.52386 0.55603 0.90546 0.0
H216 H 0.46812 0.42595 0.28826 0.0
H217 H 0.46909 0.46844 0.21752 0.0
H218 H 0.49373 0.41632 0.93642 0.0
H219 H 0.49168 0.37358 1.00539 0.0
H220 H 0.62469 0.62888 0.60703 0.0
H221 H 0.63735 0.58361 0.65424 0.0
H222 H 0.54337 0.55534 0.59637 0.0
H223 H 0.53084 0.59976 0.54671 0.0
Tb224 Tb 0.05842 0.52049 0.83715 0.0
Tb225 Tb 1.02355 0.47875 0.95077 0.0
C226 C 1.02473 0.54525 0.02621 0.0
C227 C 0.12653 0.55007 0.76935 0.0
C228 C 0.19024 0.54106 0.77508 0.0
C229 C 0.17828 0.56443 0.73933 0.0
C230 C 0.14645 0.56919 0.738 0.0
C231 C 0.13866 0.52763 0.80784 0.0
C232 C 0.17005 0.52407 0.81553 0.0
C233 C 0.09304 0.5526 0.76591 0.0
O234 O 0.08905 0.51343 0.95812 0.0
O235 O 0.07262 0.46928 0.97062 0.0
O236 O 0.03599 0.45002 0.81492 0.0
O237 O 0.07349 0.47762 0.76573 0.0
O238 O 1.01783 0.46422 0.08218 0.0
O239 O 0.98722 0.45021 0.95803 0.0
O240 O 0.98654 0.49797 0.87482 0.0
O241 O 1.01454 0.51239 0.75565 0.0
O242 O 1.02698 0.54756 0.9347 0.0
O243 O 1.02963 0.52049 0.04918 0.0
C244 C 0.0946 0.48884 0.98283 0.0
O245 O 0.07886 0.53049 0.71229 0.0
O246 O 0.08085 0.56012 0.85255 0.0
C247 C 0.0589 0.45309 0.75761 0.0
C248 C 0.96457 0.47064 0.1068 0.0
C249 C 0.91575 0.51029 0.14272 0.0
C250 C 0.91003 0.48099 0.10256 0.0
C251 C 0.93427 0.46149 0.08314 0.0
C252 C 0.96982 0.49902 0.15677 0.0
C253 C 0.94604 0.51876 0.17165 0.0
C254 C 0.99032 0.45471 0.05347 0.0
C255 C 0.98779 0.50602 0.78981 0.0
H256 H 0.19316 0.5778 0.70619 0.0
H257 H 0.13745 0.58677 0.7085 0.0
H258 H 0.12386 0.51189 0.82816 0.0
H259 H 0.17836 0.5062 0.84477 0.0
H260 H 0.88697 0.473 0.08359 0.0
H261 H 0.92955 0.43976 0.04404 0.0
H262 H 0.99284 0.50668 0.17734 0.0
H263 H 0.95204 0.54082 0.20219 0.0
H264 H 0.14695 0.02798 0.32294 0.0
H265 H 0.21475 0.98482 0.46642 0.0
H266 H 0.17888 0.98356 0.59994 0.0
H267 H 0.12726 0.99347 0.67468 0.0
H268 H 0.05973 0.03706 0.53055 0.0
H269 H 0.0962 0.03944 0.40033 0.0
C270 C 0.15414 0.01875 0.38434 0.0
C271 C 0.18407 0.00709 0.38486 0.0
C272 C 0.13314 0.01796 0.46108 0.0
C273 C 0.19235 0.99449 0.46417 0.0
C274 C 0.17164 0.99362 0.54061 0.0
C275 C 0.12043 1.00358 0.61502 0.0
C276 C 0.09034 0.01499 0.61346 0.0
C277 C 0.14182 1.00508 0.53969 0.0
C278 C 0.08242 0.02806 0.53489 0.0
C279 C 0.10339 0.02944 0.45986 0.0
H280 H 0.50217 0.18089 0.74796 0.0
H281 H 0.52918 0.14775 0.44861 0.0
H282 H 0.53615 0.10003 0.48475 0.0
H283 H 0.53225 0.06703 0.60138 0.0
H284 H 0.50483 0.1017 0.90048 0.0
H285 H 0.50031 0.14899 0.86437 0.0
C286 C 0.51006 0.16334 0.69088 0.0
C287 C 0.51555 0.1681 0.59591 0.0
C288 C 0.51357 0.13593 0.712 0.0
C289 C 0.52524 0.14487 0.52265 0.0
C290 C 0.52899 0.11749 0.54325 0.0
C291 C 0.52527 0.08491 0.65865 0.0
C292 C 0.51871 0.08036 0.75368 0.0
C293 C 0.52281 0.1126 0.63754 0.0
C294 C 0.50996 0.10411 0.82668 0.0
C295 C 0.50738 0.13139 0.80619 0.0
H296 H 0.39344 0.45189 0.38087 0.0
H297 H 0.41501 0.53052 0.29279 0.0
H298 H 0.45379 0.54205 0.42579 0.0
H299 H 0.48321 0.52894 0.56593 0.0
H300 H 0.46013 0.4502 0.65288 0.0
H301 H 0.42107 0.43974 0.5229 0.0
C302 C 0.4063 0.47178 0.39152 0.0
C303 C 0.4009 0.49042 0.32663 0.0
C304 C 0.42882 0.47818 0.46817 0.0
C305 C 0.41825 0.5159 0.34174 0.0
C306 C 0.44067 0.5224 0.41767 0.0
C307 C 0.46964 0.5095 0.55666 0.0
C308 C 0.47508 0.49044 0.62054 0.0
C309 C 0.44648 0.50358 0.48114 0.0
C310 C 0.45682 0.46546 0.6063 0.0
C311 C 0.43427 0.45936 0.53139 0.0
H312 H 0.11291 0.35756 0.4149 0.0
H313 H 0.06301 0.30332 0.56969 0.0
H314 H 0.04548 0.3453 0.68904 0.0
H315 H 0.04477 0.39727 0.75012 0.0
H316 H 0.09661 0.45178 0.60047 0.0
H317 H 0.11325 0.40991 0.47908 0.0
C318 C 0.09829 0.35504 0.47509 0.0
C319 C 0.08922 0.32745 0.48379 0.0
C320 C 0.08878 0.37928 0.54441 0.0
C321 C 0.07015 0.32437 0.56155 0.0
C322 C 0.06023 0.34834 0.62985 0.0
C323 C 0.05964 0.40007 0.69085 0.0
C324 C 0.06929 0.4277 0.68431 0.0
C325 C 0.06941 0.37589 0.62205 0.0
C326 C 0.08885 0.43079 0.60748 0.0
C327 C 0.09834 0.40684 0.53786 0.0
H328 H 0.90805 0.00674 0.36766 0.0
H329 H 0.83097 0.00609 0.1692 0.0
H330 H 0.86636 1.00487 0.03225 0.0
H331 H 0.91988 1.00484 0.96824 0.0
H332 H 0.99642 0.00685 0.1708 0.0
H333 H 0.96091 0.00666 0.3048 0.0
C334 C 0.89894 0.00595 0.2941 0.0
C335 C 0.86665 0.00573 0.27919 0.0
C336 C 0.91954 0.00565 0.21567 0.0
C337 C 0.85549 0.00558 0.18344 0.0
C338 C 0.87586 1.00504 0.10483 0.0
C339 C 0.92887 1.00511 0.04152 0.0
C340 C 0.96121 0.00584 0.05805 0.0
C341 C 0.90803 1.00514 0.11983 0.0
C342 C 0.97197 0.00634 0.15451 0.0
C343 C 0.95155 0.0062 0.23181 0.0
H344 H 0.52388 0.8186 0.92337 0.0
H345 H 0.55838 0.85362 0.216 0.0
H346 H 0.55532 0.90216 0.18449 0.0
H347 H 0.54549 0.93471 0.06896 0.0
H348 H 0.5105 0.89841 0.77668 0.0
H349 H 0.51134 0.85091 0.81253 0.0
C350 C 0.53038 0.83689 0.98067 0.0
C351 C 0.54153 0.83237 0.07185 0.0
C352 C 0.52888 0.86473 0.9615 0.0
C353 C 0.54976 0.85643 0.14522 0.0
C354 C 0.54819 0.88421 0.12687 0.0
C355 C 0.53802 0.91643 0.01315 0.0
C356 C 0.52814 0.92053 0.91973 0.0
C357 C 0.5383 0.88867 0.03449 0.0
C358 C 0.51829 0.89633 0.84915 0.0
C359 C 0.51873 0.86893 0.86951 0.0
H360 H 0.6749 0.48034 0.3343 0.0
H361 H 0.74427 0.5159 0.17688 0.0
H362 H 0.70559 0.52365 0.05536 0.0
H363 H 0.65198 0.5174 0.9861 0.0
H364 H 0.58254 0.48347 0.14888 0.0
H365 H 0.62076 0.47802 0.27345 0.0
C366 C 0.68144 0.49035 0.27458 0.0
C367 C 0.71273 0.49745 0.26545 0.0
C368 C 0.65889 0.49464 0.20397 0.0
C369 C 0.72055 0.51025 0.18662 0.0
C370 C 0.69835 0.51448 0.11626 0.0
C371 C 0.64516 0.50888 0.04888 0.0
C372 C 0.61404 0.50071 0.05647 0.0
C373 C 0.66747 0.5062 0.12265 0.0
C374 C 0.606 0.49003 0.13986 0.0
C375 C 0.62799 0.48685 0.21177 0.0
H376 H 1.01883 0.64201 0.41348 0.0
H377 H 1.02237 0.6958 0.20155 0.0
H378 H 1.02068 0.6536 0.06676 0.0
H379 H 1.02078 0.60111 0.0092 0.0
H380 H 1.02121 0.54783 0.22375 0.0
H381 H 1.01809 0.58987 0.35637 0.0
C382 C 1.01871 0.64445 0.33766 0.0
C383 C 1.01992 0.672 0.31775 0.0
C384 C 1.01839 0.62009 0.26063 0.0
C385 C 1.02073 0.67488 0.21916 0.0
C386 C 1.01991 0.65072 0.14193 0.0
C387 C 1.01985 0.59867 0.08487 0.0
C388 C 1.02074 0.57113 0.10578 0.0
C389 C 1.01905 0.62317 0.16177 0.0
C390 C 1.01991 0.56853 0.20464 0.0
C391 C 1.01841 0.59267 0.28105 0.0
H392 H 1.0311 0.22794 0.54801 0.0
H393 H 0.96502 0.21854 0.30978 0.0
H394 H 0.93396 0.18644 0.3847 0.0
H395 H 0.93234 0.15317 0.49703 0.0
H396 H 1.00121 0.15987 0.72739 0.0
H397 H 1.02401 0.20111 0.67839 0.0
C398 C 1.00912 0.21993 0.51544 0.0
C399 C 1.00019 0.22545 0.42402 0.0
C400 C 0.99232 0.20033 0.5563 0.0
C401 C 0.97203 0.21463 0.38082 0.0
C402 C 0.95458 0.19596 0.42285 0.0
C403 C 0.95195 0.16406 0.53763 0.0
C404 C 0.96532 0.15317 0.61455 0.0
C405 C 0.96554 0.18732 0.50722 0.0
C406 C 0.99038 0.1678 0.66791 0.0
C407 C 1.00364 0.1913 0.63945 0.0
H408 H 0.32112 0.90137 0.17915 0.0
H409 H 0.29046 0.95081 0.45797 0.0
H410 H 0.3289 0.92848 0.54401 0.0
H411 H 0.38082 0.90967 0.53374 0.0
H412 H 0.41577 0.86464 0.25455 0.0
H413 H 0.36631 0.87025 0.17565 0.0
C414 C 0.32221 0.90648 0.25899 0.0
C415 C 0.30393 0.92873 0.31139 0.0
C416 C 0.34596 0.89507 0.30797 0.0
C417 C 0.30457 0.93422 0.41499 0.0
C418 C 0.32697 0.92172 0.46461 0.0
C419 C 0.37735 0.89974 0.45665 0.0
C420 C 0.40247 0.88803 0.3991 0.0
C421 C 0.34943 0.90427 0.41108 0.0
C422 C 0.39712 0.87482 0.29971 0.0
C423 C 0.36886 0.87815 0.25443 0.0
H424 H 0.58798 0.32452 0.54755 0.0
H425 H 0.52931 0.30415 0.7704 0.0
H426 H 0.53399 0.35346 0.86534 0.0
H427 H 0.54571 0.40378 0.86584 0.0
H428 H 0.59873 0.42475 0.63008 0.0
H429 H 0.60514 0.37391 0.55877 0.0
C430 C 0.57715 0.3307 0.61877 0.0
C431 C 0.55809 0.31086 0.65163 0.0
C432 C 0.57806 0.35946 0.66866 0.0
C433 C 0.54422 0.31895 0.74388 0.0
C434 C 0.54643 0.34731 0.79708 0.0
C435 C 0.55905 0.39734 0.79959 0.0
C436 C 0.57117 0.41824 0.75232 0.0
C437 C 0.56178 0.36804 0.75713 0.0
C438 C 0.58875 0.40928 0.66731 0.0
C439 C 0.59246 0.38016 0.62653 0.0
H440 H 0.30235 0.51811 0.5157 0.0
H441 H 0.25699 0.43595 0.44205 0.0
H442 H 0.22853 0.4474 0.59575 0.0
H443 H 0.20559 0.48555 0.71257 0.0
H444 H 0.24439 0.57082 0.76971 0.0
H445 H 0.28724 0.55322 0.66167 0.0
C446 C 0.28728 0.50223 0.53577 0.0
C447 C 0.28102 0.47653 0.46784 0.0
C448 C 0.26938 0.50992 0.61965 0.0
C449 C 0.2616 0.456 0.49346 0.0
C450 C 0.24526 0.46268 0.58068 0.0
C451 C 0.22402 0.50027 0.70597 0.0
C452 C 0.22121 0.52977 0.74634 0.0
C453 C 0.24715 0.49043 0.63931 0.0
C454 C 0.24555 0.54822 0.73659 0.0
C455 C 0.26995 0.53816 0.67471 0.0
H456 H 0.04652 0.78521 0.18418 0.0
H457 H 0.12099 0.80683 0.39472 0.0
H458 H 0.13968 0.84279 0.30812 0.0
H459 H 0.1272 0.87507 0.19767 0.0
H460 H 0.05126 0.85451 0.99126 0.0
H461 H 0.04079 0.81113 0.05083 0.0
C462 C 0.06767 0.79685 0.20822 0.0
C463 C 0.08218 0.79374 0.29611 0.0
C464 C 0.07736 0.81836 0.16078 0.0
C465 C 0.10943 0.80907 0.32725 0.0
C466 C 0.11984 0.82987 0.27854 0.0
C467 C 0.10899 0.86065 0.16351 0.0
C468 C 0.08947 0.86845 0.09225 0.0
C469 C 0.10282 0.83589 0.19905 0.0
C470 C 0.06602 0.84944 0.04852 0.0
C471 C 0.06009 0.82455 0.08218 0.0
H472 H 0.72735 0.10607 0.4728 0.0
H473 H 0.75553 0.05572 0.1925 0.0
H474 H 0.71744 0.07916 0.10834 0.0
H475 H 0.66625 0.09949 0.12174 0.0
H476 H 0.63362 0.14531 0.40304 0.0
H477 H 0.68335 0.13874 0.47873 0.0
C478 C 0.72582 0.10102 0.39301 0.0
C479 C 0.74327 0.07831 0.33951 0.0
C480 C 0.70237 0.11321 0.34533 0.0
C481 C 0.74204 0.07272 0.23601 0.0
C482 C 0.7199 0.08591 0.18762 0.0
C483 C 0.6703 0.10942 0.19855 0.0
C484 C 0.64566 0.12146 0.25788 0.0
C485 C 0.69825 0.10411 0.24241 0.0
C486 C 0.65186 0.13484 0.35661 0.0
C487 C 0.68024 0.13087 0.40012 0.0
H488 H 0.52982 0.68869 0.95221 0.0
H489 H 0.45667 0.6851 0.15442 0.0
H490 H 0.45225 0.63329 0.0946 0.0
H491 H 0.4774 0.58805 0.0108 0.0
H492 H 0.5525 0.59294 0.81514 0.0
H493 H 0.54773 0.64453 0.84481 0.0
C494 C 0.5118 0.67676 0.97917 0.0
C495 C 0.49359 0.69068 0.0573 0.0
C496 C 0.51053 0.64679 0.94798 0.0
C497 C 0.47072 0.67485 0.09323 0.0
C498 C 0.46864 0.64509 0.06044 0.0
C499 C 0.49219 0.60041 0.97325 0.0
C500 C 0.51584 0.58663 0.91317 0.0
C501 C 0.48973 0.63059 0.9921 0.0
C502 C 0.53462 0.60299 0.86405 0.0
C503 C 0.53189 0.63262 0.88059 0.0
H504 H 0.78806 0.5578 0.2491 0.0
H505 H 0.83984 0.60961 0.48649 0.0
H506 H 0.88671 0.6008 0.39075 0.0
H507 H 0.91253 0.56139 0.27954 0.0
H508 H 0.86084 0.5088 0.03889 0.0
H509 H 0.81401 0.53374 0.09945 0.0
C510 C 0.8093 0.56833 0.27869 0.0
C511 C 0.81224 0.58001 0.38036 0.0
C512 C 0.83628 0.56108 0.22542 0.0
C513 C 0.83813 0.59748 0.41131 0.0
C514 C 0.8652 0.59181 0.35757 0.0
C515 C 0.89163 0.55587 0.2366 0.0
C516 C 0.89006 0.53142 0.15903 0.0
C517 C 0.86481 0.57066 0.27029 0.0
C518 C 0.86242 0.52584 0.10393 0.0
C519 C 0.83561 0.54052 0.13716 0.0
H520 H 1.03436 0.19754 0.05231 0.0
H521 H 0.10742 0.18084 0.2437 0.0
H522 H 0.11069 0.13128 0.15051 0.0
H523 H 0.08582 0.0908 0.03382 0.0
H524 H 1.01069 0.10823 0.84944 0.0
H525 H 1.01512 0.15912 0.91974 0.0
C526 C 0.05193 0.18334 0.07041 0.0
C527 C 0.07092 0.19274 0.15341 0.0
C528 C 0.05256 0.15468 0.01957 0.0
C529 C 0.09307 0.1741 0.17852 0.0
C530 C 0.0945 0.14565 0.12634 0.0
C531 C 0.07085 0.10581 0.00789 0.0
C532 C 0.04737 0.09558 0.93843 0.0
C533 C 0.07329 0.13532 0.04977 0.0
C534 C 1.02834 0.11538 0.90489 0.0
C535 C 1.03098 0.14459 0.94459 0.0
H536 H 0.32966 0.96373 0.98797 0.0
H537 H 0.34353 0.03444 0.23433 0.0
H538 H 0.39378 0.04421 0.17001 0.0
H539 H 0.43638 0.02964 0.05158 0.0
H540 H 0.42108 0.96073 0.79973 0.0
H541 H 0.3693 0.95335 0.85764 0.0
C542 C 0.34322 0.9819 0.0259 0.0
C543 C 0.3323 0.99859 0.11569 0.0
C544 C 0.37235 0.98735 0.98822 0.0
C545 C 0.35071 0.02165 0.16437 0.0
C546 C 0.3798 0.02696 0.12812 0.0
C547 C 0.42161 0.01318 0.0087 0.0
C548 C 0.43305 0.99557 0.92136 0.0
C549 C 0.39129 0.00949 0.04148 0.0
C550 C 0.41319 0.97463 0.86675 0.0
C551 C 0.38346 0.97035 0.90018 0.0
H552 H 0.46763 0.30335 0.41364 0.0
H553 H 0.54426 0.2669 0.23843 0.0
H554 H 0.53747 0.30155 0.133 0.0
H555 H 0.51583 0.3476 0.11112 0.0
H556 H 0.43985 0.38458 0.29134 0.0
H557 H 0.4408 0.34489 0.37539 0.0
C558 C 0.48181 0.3021 0.34924 0.0
C559 C 0.50609 0.28224 0.33288 0.0
C560 C 0.47879 0.32311 0.29256 0.0
C561 C 0.52494 0.28144 0.25109 0.0
C562 C 0.52148 0.30174 0.19223 0.0
C563 C 0.49897 0.34676 0.16714 0.0
C564 C 0.47827 0.36974 0.19592 0.0
C565 C 0.49945 0.32357 0.21536 0.0
C566 C 0.45678 0.36796 0.26936 0.0
C567 C 0.45704 0.34499 0.31698 0.0
H568 H 0.21844 0.4457 0.15985 0.0
H569 H 0.25265 0.52653 0.11555 0.0
H570 H 0.20241 0.53623 0.04696 0.0
H571 H 0.147 0.52343 0.01107 0.0
H572 H 0.11412 0.44133 0.04803 0.0
H573 H 0.16472 0.43121 0.11113 0.0
C574 C 0.21517 0.46535 0.13411 0.0
C575 C 0.23992 0.48531 0.14356 0.0
C576 C 0.18588 0.47096 0.09545 0.0
C577 C 0.23469 0.51049 0.10868 0.0
C578 C 0.20561 0.51624 0.07052 0.0
C579 C 0.15089 0.50309 0.0314 0.0
C580 C 0.12614 0.48317 0.02354 0.0
C581 C 0.18075 0.49691 0.0653 0.0
C582 C 0.13215 0.45723 0.05265 0.0
C583 C 0.16135 0.45132 0.08859 0.0
H584 H 0.9907 0.83182 0.49704 0.0
H585 H 0.05536 0.80994 0.7058 0.0
H586 H 0.05106 0.85813 0.80941 0.0
H587 H 0.03572 0.90839 0.82431 0.0
H588 H 0.97485 0.93082 0.60476 0.0
H589 H 0.97069 0.88064 0.52186 0.0
C590 C 1.00269 0.83732 0.56757 0.0
C591 C 1.02278 0.81739 0.59524 0.0
C592 C 1.00145 0.86544 0.62319 0.0
C593 C 0.03918 0.82483 0.68472 0.0
C594 C 0.03709 0.8525 0.7429 0.0
C595 C 1.02111 0.90227 0.75932 0.0
C596 C 1.00599 0.92347 0.72002 0.0
C597 C 1.01939 0.87334 0.71042 0.0
C598 C 0.98711 0.91507 0.63586 0.0
C599 C 0.98464 0.88633 0.58845 0.0
H600 H 0.7149 0.04994 0.65475 0.0
H601 H 0.71351 0.96808 0.4526 0.0
H602 H 0.66574 0.95549 0.52613 0.0
H603 H 0.62131 0.96964 0.63891 0.0
H604 H 0.62411 0.05166 0.84171 0.0
H605 H 0.67368 0.0621 0.777 0.0
C606 C 0.70456 0.02903 0.62802 0.0
C607 C 0.71826 0.00997 0.54792 0.0
C608 C 0.67672 0.02211 0.66997 0.0
C609 C 0.70413 0.98307 0.51472 0.0
C610 C 0.67642 0.97602 0.55614 0.0
C611 C 0.63284 0.98972 0.66973 0.0
C612 C 0.61833 0.00986 0.74545 0.0
C613 C 0.66199 0.99565 0.63232 0.0
C614 C 0.63418 0.03563 0.78392 0.0
C615 C 0.66274 0.0417 0.74665 0.0
H616 H 0.51211 0.72114 0.43509 0.0
H617 H 0.59828 0.72303 0.28807 0.0
H618 H 0.61989 0.68843 0.37712 0.0
H619 H 0.61058 0.65089 0.4717 0.0
H620 H 0.52355 0.64889 0.61618 0.0
H621 H 0.50595 0.68982 0.5526 0.0
C622 C 0.53612 0.71505 0.42652 0.0
C623 C 0.5537 0.72492 0.35603 0.0
C624 C 0.54783 0.69413 0.47447 0.0
C625 C 0.58451 0.71628 0.34349 0.0
C626 C 0.59663 0.69597 0.39289 0.0
C627 C 0.58804 0.65977 0.49133 0.0
C628 C 0.56815 0.64604 0.54647 0.0
C629 C 0.57796 0.68363 0.45467 0.0
C630 C 0.53903 0.65816 0.57101 0.0
C631 C 0.52899 0.68184 0.53545 0.0
H632 H 0.88195 0.52462 0.4865 0.0
H633 H 0.82275 0.50259 0.70523 0.0
H634 H 0.86829 0.49454 0.8032 0.0
H635 H 0.92585 0.49676 0.83195 0.0
H636 H 0.98315 0.52081 0.61107 0.0
H637 H 0.93786 0.52553 0.51158 0.0
C638 C 0.87877 0.51795 0.55553 0.0
C639 C 0.84842 0.51448 0.5879 0.0
C640 C 0.9051 0.5141 0.61265 0.0
C641 C 0.84543 0.50528 0.67712 0.0
C642 C 0.87166 0.50098 0.73393 0.0
C643 C 0.9285 0.50302 0.76204 0.0
C644 C 0.95857 0.50855 0.73055 0.0
C645 C 0.90176 0.50584 0.70352 0.0
C646 C 0.96089 0.5165 0.63891 0.0
C647 C 0.93477 0.51916 0.58114 0.0
loop_
_geom_bond_atom_site_label_1
_geom_bond_atom_site_label_2
_geom_bond_distance
_geom_bond_site_symmetry_2
_ccdc_geom_bond_type
H0 C7 0.929 . S
H1 C10 0.930 . S
H2 C12 0.929 . S
H3 C4 0.969 . S
C4 H3 0.969 . S
C4 O5 1.550 . S
C4 H6 0.973 . S
O5 C4 1.550 . S
O5 C11 1.412 . S
H6 C4 0.973 . S
C7 H0 0.929 . S
C7 C8 1.400 . S
C7 C9 1.364 . S
C8 C7 1.400 . S
C8 C12 1.377 . S
C9 C7 1.364 . S
C9 C10 1.374 . S
C10 H1 0.930 . S
C10 C9 1.374 . S
C10 C11 1.383 . S
C11 O5 1.412 . S
C11 C10 1.383 . S
C11 C12 1.394 . S
C12 H2 0.929 . S
C12 C8 1.377 . S
C12 C11 1.394 . S
H13 C20 0.928 1_655 S
H14 C23 0.931 . S
H15 C25 0.928 1_655 S
H16 C17 0.969 . S
C17 H16 0.969 . S
C17 O18 1.550 1_455 S
C17 H19 0.973 1_455 S
O18 C17 1.550 1_655 S
O18 C24 1.405 1_655 S
H19 C17 0.973 1_655 S
C20 H13 0.928 1_455 S
C20 C21 1.400 . S
C20 C22 1.364 . S
C21 C20 1.400 . S
C21 C25 1.377 . S
C22 C20 1.364 . S
C22 C23 1.374 1_455 S
C23 H14 0.931 . S
C23 C22 1.374 1_655 S
C23 C24 1.382 1_655 S
C24 O18 1.405 1_455 S
C24 C23 1.382 1_455 S
C24 C25 1.394 . S
C25 H15 0.928 1_455 S
C25 C21 1.377 . S
C25 C24 1.394 . S
H26 C33 0.928 1_565 S
H27 C36 0.929 . S
H28 C38 0.924 1_565 S
H29 C30 0.969 . S
C30 H29 0.969 . S
C30 O31 1.550 1_545 S
C30 H32 0.973 1_545 S
O31 C30 1.550 1_565 S
O31 C37 1.404 1_565 S
H32 C30 0.973 1_565 S
C33 H26 0.928 1_545 S
C33 C34 1.403 . S
C33 C35 1.363 . S
C34 C33 1.403 . S
C34 C38 1.377 . S
C35 C33 1.363 . S
C35 C36 1.374 1_545 S
C36 H27 0.929 . S
C36 C35 1.374 1_565 S
C36 C37 1.389 1_565 S
C37 O31 1.404 1_545 S
C37 C36 1.389 1_545 S
C37 C38 1.388 . S
C38 H28 0.924 1_545 S
C38 C34 1.377 . S
C38 C37 1.388 . S
H39 C46 0.929 . S
H40 C49 0.930 . S
H41 C51 0.929 . S
H42 C43 0.969 . S
C43 H42 0.969 . S
C43 O44 1.550 1_556 S
C43 H45 0.973 . S
O44 C43 1.550 1_554 S
O44 C50 1.412 . S
H45 C43 0.973 . S
C46 H39 0.929 . S
C46 C47 1.400 . S
C46 C48 1.364 1_554 S
C47 C46 1.400 . S
C47 C51 1.377 . S
C48 C46 1.364 1_556 S
C48 C49 1.374 . S
C49 H40 0.930 . S
C49 C48 1.374 . S
C49 C50 1.383 1_556 S
C50 O44 1.412 . S
C50 C49 1.383 1_554 S
C50 C51 1.394 . S
C51 H41 0.929 . S
C51 C47 1.377 . S
C51 C50 1.394 . S
H52 C59 0.929 . S
H53 C62 0.930 . S
H54 C64 0.929 . S
H55 C56 0.969 . S
C56 H55 0.969 . S
C56 O57 1.550 . S
C56 H58 0.973 . S
O57 C56 1.550 . S
O57 C63 1.412 . S
H58 C56 0.973 . S
C59 H52 0.929 . S
C59 C60 1.400 . S
C59 C61 1.364 . S
C60 C59 1.400 . S
C60 C64 1.377 . S
C61 C59 1.364 . S
C61 C62 1.374 . S
C62 H53 0.930 . S
C62 C61 1.374 . S
C62 C63 1.383 . S
C63 O57 1.412 . S
C63 C62 1.383 . S
C63 C64 1.394 . S
C64 H54 0.929 . S
C64 C60 1.377 . S
C64 C63 1.394 . S
H65 C72 0.929 1_655 S
H66 C75 0.929 . S
H67 C77 0.928 1_655 S
H68 C69 0.969 . S
C69 H68 0.969 . S
C69 O70 1.550 1_455 S
C69 H71 0.973 1_455 S
O70 C69 1.550 1_655 S
O70 C76 1.402 1_655 S
H71 C69 0.973 1_655 S
C72 H65 0.929 1_455 S
C72 C73 1.400 . S
C72 C74 1.364 . S
C73 C72 1.400 . S
C73 C77 1.377 . S
C74 C72 1.364 . S
C74 C75 1.374 1_455 S
C75 H66 0.929 . S
C75 C74 1.374 1_655 S
C75 C76 1.382 1_655 S
C76 O70 1.402 1_455 S
C76 C75 1.382 1_455 S
C76 C77 1.394 . S
C77 H67 0.928 1_455 S
C77 C73 1.377 . S
C77 C76 1.394 . S
H78 C85 0.929 1_565 S
H79 C88 0.921 . S
H80 C90 0.932 1_565 S
H81 C82 0.969 . S
C82 H81 0.969 . S
C82 O83 1.550 1_545 S
C82 H84 0.973 1_545 S
O83 C82 1.550 1_565 S
O83 C89 1.402 1_565 S
H84 C82 0.973 1_565 S
C85 H78 0.929 1_545 S
C85 C86 1.396 . S
C85 C87 1.365 . S
C86 C85 1.396 . S
C86 C90 1.377 . S
C87 C85 1.365 . S
C87 C88 1.374 1_545 S
C88 H79 0.921 . S
C88 C87 1.374 1_565 S
C88 C89 1.375 1_565 S
C89 O83 1.402 1_545 S
C89 C88 1.375 1_545 S
C89 C90 1.400 . S
C90 H80 0.932 1_545 S
C90 C86 1.377 . S
C90 C89 1.400 . S
H91 C98 0.929 . S
H92 C101 0.930 . S
H93 C103 0.929 . S
H94 C95 0.969 . S
C95 H94 0.969 . S
C95 O96 1.550 . S
C95 H97 0.973 . S
O96 C95 1.550 . S
O96 C102 1.412 . S
H97 C95 0.973 . S
C98 H91 0.929 . S
C98 C99 1.400 . S
C98 C100 1.364 . S
C99 C98 1.400 . S
C99 C103 1.377 . S
C100 C98 1.364 . S
C100 C101 1.374 . S
C101 H92 0.930 . S
C101 C100 1.374 . S
C101 C102 1.383 . S
C102 O96 1.412 . S
C102 C101 1.383 . S
C102 C103 1.394 . S
C103 H93 0.929 . S
C103 C99 1.377 . S
C103 C102 1.394 . S
Tb104 C113 2.764 . S
Tb104 O114 2.325 . S
Tb104 O117 2.303 1_655 S
Tb104 O121 2.322 1_545 S
Tb104 O122 2.349 . S
Tb104 O125 2.415 . S
Tb104 O126 2.399 . S
Tb105 O115 2.322 1_565 S
Tb105 O116 2.349 . S
Tb105 O118 2.415 1_556 S
Tb105 O119 2.399 . S
Tb105 O120 2.325 . S
Tb105 O123 2.303 1_455 S
Tb105 C134 2.764 1_556 S
C106 O122 1.277 . S
C106 O123 1.253 1_545 S
C107 C110 1.358 . S
C107 C111 1.332 . S
C107 C113 1.504 . S
C108 C109 1.373 . S
C108 C112 1.308 . S
C109 C108 1.373 . S
C109 C110 1.429 . S
C109 H136 0.932 . S
C110 C107 1.358 . S
C110 C109 1.429 . S
C110 H137 0.930 . S
C111 C107 1.332 . S
C111 C112 1.394 . S
C111 H138 0.932 1_655 S
C112 C108 1.308 . S
C112 C111 1.394 . S
C112 H139 0.929 . S
C113 Tb104 2.764 . S
C113 C107 1.504 . S
C113 O125 1.239 . S
C113 O126 1.263 . S
O114 Tb104 2.325 . S
O114 C124 1.236 1_655 S
O115 Tb105 2.322 1_545 S
O115 C124 1.257 . S
O116 Tb105 2.349 . S
O116 C127 1.271 . S
O117 Tb104 2.303 1_455 S
O117 C127 1.254 1_545 S
O118 Tb105 2.415 1_554 S
O118 C134 1.239 . S
O119 Tb105 2.399 . S
O119 C134 1.263 1_556 S
O120 Tb105 2.325 . S
O120 C135 1.236 1_455 S
O121 Tb104 2.322 1_565 S
O121 C135 1.257 . S
O122 Tb104 2.349 . S
O122 C106 1.277 . S
O123 Tb105 2.303 1_655 S
O123 C106 1.253 1_565 S
C124 O114 1.236 1_455 S
C124 O115 1.257 . S
O125 Tb104 2.415 . S
O125 C113 1.239 . S
O126 Tb104 2.399 . S
O126 C113 1.263 . S
C127 O116 1.271 . S
C127 O117 1.254 1_565 S
C128 C131 1.358 . S
C128 C132 1.332 . S
C128 C134 1.504 . S
C129 C130 1.373 . S
C129 C133 1.308 . S
C130 C129 1.373 . S
C130 C131 1.429 . S
C130 H140 0.932 . S
C131 C128 1.358 . S
C131 C130 1.429 . S
C131 H141 0.930 . S
C132 C128 1.332 . S
C132 C133 1.394 . S
C132 H142 0.932 1_455 S
C133 C129 1.308 . S
C133 C132 1.394 . S
C133 H143 0.929 . S
C134 Tb105 2.764 1_554 S
C134 O118 1.239 . S
C134 O119 1.263 1_554 S
C134 C128 1.504 . S
C135 O120 1.236 1_655 S
C135 O121 1.257 . S
H136 C109 0.932 . S
H137 C110 0.930 . S
H138 C111 0.932 1_455 S
H139 C112 0.929 . S
H140 C130 0.932 . S
H141 C131 0.930 . S
H142 C132 0.932 1_655 S
H143 C133 0.929 . S
Tb144 C153 2.764 . S
Tb144 O154 2.325 . S
Tb144 O157 2.303 1_565 S
Tb144 O161 2.322 . S
Tb144 O162 2.349 . S
Tb144 O165 2.415 1_565 S
Tb144 O166 2.399 . S
Tb145 O155 2.322 . S
Tb145 O156 2.349 . S
Tb145 O158 2.415 1_546 S
Tb145 O159 2.399 1_556 S
Tb145 O160 2.325 . S
Tb145 O163 2.303 1_545 S
Tb145 C174 2.764 1_556 S
C146 O162 1.261 . S
C146 O163 1.257 . S
C147 C150 1.358 . S
C147 C151 1.332 1_565 S
C147 C153 1.504 . S
C148 C149 1.373 . S
C148 C152 1.308 1_565 S
C149 C148 1.373 . S
C149 C150 1.429 . S
C149 H176 0.932 . S
C150 C147 1.358 . S
C150 C149 1.429 . S
C150 H177 0.930 . S
C151 C147 1.332 1_545 S
C151 C152 1.394 . S
C151 H178 0.932 . S
C152 C148 1.308 1_545 S
C152 C151 1.394 . S
C152 H179 0.929 . S
C153 Tb144 2.764 . S
C153 C147 1.504 . S
C153 O165 1.239 1_565 S
C153 O166 1.263 . S
O154 Tb144 2.325 . S
O154 C164 1.236 1_565 S
O155 Tb145 2.322 . S
O155 C164 1.257 . S
O156 Tb145 2.349 . S
O156 C167 1.261 . S
O157 Tb144 2.303 1_545 S
O157 C167 1.257 . S
O158 Tb145 2.415 1_564 S
O158 C174 1.239 1_565 S
O159 Tb145 2.399 1_554 S
O159 C174 1.263 . S
O160 Tb145 2.325 . S
O160 C175 1.236 1_545 S
O161 Tb144 2.322 . S
O161 C175 1.257 . S
O162 Tb144 2.349 . S
O162 C146 1.261 . S
O163 Tb145 2.303 1_565 S
O163 C146 1.257 . S
C164 O154 1.236 1_545 S
C164 O155 1.257 . S
O165 Tb144 2.415 1_545 S
O165 C153 1.239 1_545 S
O166 Tb144 2.399 . S
O166 C153 1.263 . S
C167 O156 1.261 . S
C167 O157 1.257 . S
C168 C171 1.358 . S
C168 C172 1.332 1_545 S
C168 C174 1.504 . S
C169 C170 1.373 . S
C169 C173 1.308 1_545 S
C170 C169 1.373 . S
C170 C171 1.429 . S
C170 H180 0.932 . S
C171 C168 1.358 . S
C171 C170 1.429 . S
C171 H181 0.930 . S
C172 C168 1.332 1_565 S
C172 C173 1.394 . S
C172 H182 0.932 . S
C173 C169 1.308 1_565 S
C173 C172 1.394 . S
C173 H183 0.929 . S
C174 Tb145 2.764 1_554 S
C174 O158 1.239 1_545 S
C174 O159 1.263 . S
C174 C168 1.504 . S
C175 O160 1.236 1_565 S
C175 O161 1.257 . S
H176 C149 0.932 . S
H177 C150 0.930 . S
H178 C151 0.932 . S
H179 C152 0.929 . S
H180 C170 0.932 . S
H181 C171 0.930 . S
H182 C172 0.932 . S
H183 C173 0.929 . S
Tb184 C193 2.764 1_556 S
Tb184 O194 2.325 . S
Tb184 O197 2.303 . S
Tb184 O201 2.322 . S
Tb184 O202 2.349 . S
Tb184 O205 2.415 1_556 S
Tb184 O206 2.399 1_556 S
Tb185 O195 2.322 . S
Tb185 O196 2.349 . S
Tb185 O198 2.415 . S
Tb185 O199 2.399 . S
Tb185 O200 2.325 . S
Tb185 O203 2.303 . S
Tb185 C214 2.764 . S
C186 O202 1.261 . S
C186 O203 1.257 . S
C187 C190 1.358 . S
C187 C191 1.332 . S
C187 C193 1.504 . S
C188 C189 1.373 . S
C188 C192 1.308 . S
C189 C188 1.373 . S
C189 C190 1.429 . S
C189 H216 0.932 . S
C190 C187 1.358 . S
C190 C189 1.429 . S
C190 H217 0.930 . S
C191 C187 1.332 . S
C191 C192 1.394 . S
C191 H218 0.932 . S
C192 C188 1.308 . S
C192 C191 1.394 . S
C192 H219 0.929 . S
C193 Tb184 2.764 1_554 S
C193 C187 1.504 . S
C193 O205 1.239 . S
C193 O206 1.263 . S
O194 Tb184 2.325 . S
O194 C204 1.236 . S
O195 Tb185 2.322 . S
O195 C204 1.257 . S
O196 Tb185 2.349 . S
O196 C207 1.261 . S
O197 Tb184 2.303 . S
O197 C207 1.257 . S
O198 Tb185 2.415 . S
O198 C214 1.239 . S
O199 Tb185 2.399 . S
O199 C214 1.263 . S
O200 Tb185 2.325 . S
O200 C215 1.236 . S
O201 Tb184 2.322 . S
O201 C215 1.257 . S
O202 Tb184 2.349 . S
O202 C186 1.261 . S
O203 Tb185 2.303 . S
O203 C186 1.257 . S
C204 O194 1.236 . S
C204 O195 1.257 . S
O205 Tb184 2.415 1_554 S
O205 C193 1.239 . S
O206 Tb184 2.399 1_554 S
O206 C193 1.263 . S
C207 O196 1.261 . S
C207 O197 1.257 . S
C208 C211 1.358 . S
C208 C212 1.332 . S
C208 C214 1.504 . S
C209 C210 1.373 . S
C209 C213 1.308 . S
C210 C209 1.373 . S
C210 C211 1.429 . S
C210 H220 0.932 . S
C211 C208 1.358 . S
C211 C210 1.429 . S
C211 H221 0.930 . S
C212 C208 1.332 . S
C212 C213 1.394 . S
C212 H222 0.932 . S
C213 C209 1.308 . S
C213 C212 1.394 . S
C213 H223 0.929 . S
C214 Tb185 2.764 . S
C214 O198 1.239 . S
C214 O199 1.263 . S
C214 C208 1.504 . S
C215 O200 1.236 . S
C215 O201 1.257 . S
H216 C189 0.932 . S
H217 C190 0.930 . S
H218 C191 0.932 . S
H219 C192 0.929 . S
H220 C210 0.932 . S
H221 C211 0.930 . S
H222 C212 0.932 . S
H223 C213 0.929 . S
Tb224 C233 2.764 . S
Tb224 O234 2.325 . S
Tb224 O237 2.303 . S
Tb224 O241 2.322 1_455 S
Tb224 O242 2.349 . S
Tb224 O245 2.415 . S
Tb224 O246 2.399 . S
Tb225 O235 2.322 1_655 S
Tb225 O236 2.349 . S
Tb225 O238 2.415 1_556 S
Tb225 O239 2.399 . S
Tb225 O240 2.325 . S
Tb225 O243 2.303 . S
Tb225 C254 2.764 1_556 S
C226 O242 1.261 . S
C226 O243 1.257 1_455 S
C227 C230 1.358 . S
C227 C231 1.332 . S
C227 C233 1.504 . S
C228 C229 1.373 . S
C228 C232 1.308 . S
C229 C228 1.373 . S
C229 C230 1.429 . S
C229 H256 0.932 . S
C230 C227 1.358 . S
C230 C229 1.429 . S
C230 H257 0.930 . S
C231 C227 1.332 . S
C231 C232 1.394 . S
C231 H258 0.932 . S
C232 C228 1.308 . S
C232 C231 1.394 . S
C232 H259 0.929 . S
C233 Tb224 2.764 . S
C233 C227 1.504 . S
C233 O245 1.239 . S
C233 O246 1.263 . S
O234 Tb224 2.325 . S
O234 C244 1.236 . S
O235 Tb225 2.322 1_455 S
O235 C244 1.257 . S
O236 Tb225 2.349 . S
O236 C247 1.261 . S
O237 Tb224 2.303 . S
O237 C247 1.257 1_455 S
O238 Tb225 2.415 1_554 S
O238 C254 1.239 . S
O239 Tb225 2.399 . S
O239 C254 1.263 1_556 S
O240 Tb225 2.325 . S
O240 C255 1.236 . S
O241 Tb224 2.322 1_655 S
O241 C255 1.257 . S
O242 Tb224 2.349 . S
O242 C226 1.261 . S
O243 Tb225 2.303 . S
O243 C226 1.257 1_655 S
C244 O234 1.236 . S
C244 O235 1.257 . S
O245 Tb224 2.415 . S
O245 C233 1.239 . S
O246 Tb224 2.399 . S
O246 C233 1.263 . S
C247 O236 1.261 . S
C247 O237 1.257 1_655 S
C248 C251 1.358 . S
C248 C252 1.332 . S
C248 C254 1.504 . S
C249 C250 1.373 . S
C249 C253 1.308 . S
C250 C249 1.373 . S
C250 C251 1.429 . S
C250 H260 0.932 . S
C251 C248 1.358 . S
C251 C250 1.429 . S
C251 H261 0.930 . S
C252 C248 1.332 . S
C252 C253 1.394 . S
C252 H262 0.932 . S
C253 C249 1.308 . S
C253 C252 1.394 . S
C253 H263 0.929 . S
C254 Tb225 2.764 1_554 S
C254 O238 1.239 . S
C254 O239 1.263 1_554 S
C254 C248 1.504 . S
C255 O240 1.236 . S
C255 O241 1.257 . S
H256 C229 0.932 . S
H257 C230 0.930 . S
H258 C231 0.932 . S
H259 C232 0.929 . S
H260 C250 0.932 . S
H261 C251 0.930 . S
H262 C252 0.932 . S
H263 C253 0.929 . S
H264 C270 0.930 . S
H265 C273 0.930 . S
H266 C274 0.930 . S
H267 C275 0.930 . S
H268 C278 0.930 . S
H269 C279 0.930 . S
C270 H264 0.930 . S
C270 C271 1.355 1_565 S
C270 C272 1.415 . S
C271 C270 1.355 1_545 S
C271 C273 1.419 . S
C272 C270 1.415 . S
C272 C277 1.425 1_565 S
C272 C279 1.409 . S
C273 H265 0.930 . S
C273 C271 1.419 . S
C273 C274 1.362 . S
C274 H266 0.930 . S
C274 C273 1.362 . S
C274 C277 1.409 . S
C275 H267 0.930 . S
C275 C276 1.368 . S
C275 C277 1.415 . S
C276 C275 1.368 . S
C276 C278 1.411 1_545 S
C277 C272 1.425 1_545 S
C277 C274 1.409 . S
C277 C275 1.415 . S
C278 H268 0.930 . S
C278 C276 1.411 1_565 S
C278 C279 1.362 . S
C279 H269 0.930 . S
C279 C272 1.409 . S
C279 C278 1.362 . S
H280 C286 0.930 . S
H281 C289 0.930 . S
H282 C290 0.930 . S
H283 C291 0.930 . S
H284 C294 0.930 . S
H285 C295 0.930 . S
C286 H280 0.930 . S
C286 C287 1.355 . S
C286 C288 1.415 . S
C287 C286 1.355 . S
C287 C289 1.419 . S
C288 C286 1.415 . S
C288 C293 1.425 . S
C288 C295 1.409 . S
C289 H281 0.930 . S
C289 C287 1.419 . S
C289 C290 1.362 . S
C290 H282 0.930 . S
C290 C289 1.362 . S
C290 C293 1.409 . S
C291 H283 0.930 . S
C291 C292 1.355 . S
C291 C293 1.415 . S
C292 C291 1.355 . S
C292 C294 1.419 . S
C293 C288 1.425 . S
C293 C290 1.409 . S
C293 C291 1.415 . S
C294 H284 0.930 . S
C294 C292 1.419 . S
C294 C295 1.362 . S
C295 H285 0.930 . S
C295 C288 1.409 . S
C295 C294 1.362 . S
H296 C302 0.930 . S
H297 C305 0.930 . S
H298 C306 0.930 . S
H299 C307 0.930 . S
H300 C310 0.930 . S
H301 C311 0.930 . S
C302 H296 0.930 . S
C302 C303 1.355 . S
C302 C304 1.415 . S
C303 C302 1.355 . S
C303 C305 1.419 . S
C304 C302 1.415 . S
C304 C309 1.425 . S
C304 C311 1.409 . S
C305 H297 0.930 . S
C305 C303 1.419 . S
C305 C306 1.362 . S
C306 H298 0.930 . S
C306 C305 1.362 . S
C306 C309 1.409 . S
C307 H299 0.930 . S
C307 C308 1.355 . S
C307 C309 1.415 . S
C308 C307 1.355 . S
C308 C310 1.419 . S
C309 C304 1.425 . S
C309 C306 1.409 . S
C309 C307 1.415 . S
C310 H300 0.930 . S
C310 C308 1.419 . S
C310 C311 1.362 . S
C311 H301 0.930 . S
C311 C304 1.409 . S
C311 C310 1.362 . S
H312 C318 0.930 . S
H313 C321 0.930 . S
H314 C322 0.930 . S
H315 C323 0.930 . S
H316 C326 0.930 . S
H317 C327 0.930 . S
C318 H312 0.930 . S
C318 C319 1.358 . S
C318 C320 1.415 . S
C319 C318 1.358 . S
C319 C321 1.415 1_455 S
C320 C318 1.415 . S
C320 C325 1.425 1_455 S
C320 C327 1.409 . S
C321 H313 0.930 . S
C321 C319 1.415 1_655 S
C321 C322 1.362 . S
C322 H314 0.930 . S
C322 C321 1.362 . S
C322 C325 1.409 . S
C323 H315 0.930 . S
C323 C324 1.348 1_655 S
C323 C325 1.415 . S
C324 C323 1.348 1_455 S
C324 C326 1.429 . S
C325 C320 1.425 1_655 S
C325 C322 1.409 . S
C325 C323 1.415 . S
C326 H316 0.930 . S
C326 C324 1.429 . S
C326 C327 1.362 . S
C327 H317 0.930 . S
C327 C320 1.409 . S
C327 C326 1.362 . S
H328 C334 0.930 . S
H329 C337 0.930 . S
H330 C338 0.930 . S
H331 C339 0.930 . S
H332 C342 0.930 . S
H333 C343 0.930 . S
C334 H328 0.930 . S
C334 C335 1.355 1_565 S
C334 C336 1.415 . S
C335 C334 1.355 1_545 S
C335 C337 1.419 . S
C336 C334 1.415 . S
C336 C341 1.425 1_565 S
C336 C343 1.409 . S
C337 H329 0.930 . S
C337 C335 1.419 . S
C337 C338 1.362 . S
C338 H330 0.930 . S
C338 C337 1.362 . S
C338 C341 1.409 . S
C339 H331 0.930 . S
C339 C340 1.355 1_545 S
C339 C341 1.415 . S
C340 C339 1.355 1_565 S
C340 C342 1.419 . S
C341 C336 1.425 1_545 S
C341 C338 1.409 . S
C341 C339 1.415 . S
C342 H332 0.930 . S
C342 C340 1.419 . S
C342 C343 1.362 . S
C343 H333 0.930 . S
C343 C336 1.409 . S
C343 C342 1.362 . S
H344 C350 0.930 . S
H345 C353 0.930 . S
H346 C354 0.930 . S
H347 C355 0.930 1_554 S
H348 C358 0.930 . S
H349 C359 0.930 . S
C350 H344 0.930 . S
C350 C351 1.355 . S
C350 C352 1.415 . S
C351 C350 1.355 . S
C351 C353 1.419 1_556 S
C352 C350 1.415 . S
C352 C357 1.425 . S
C352 C359 1.409 . S
C353 H345 0.930 . S
C353 C351 1.419 1_554 S
C353 C354 1.362 . S
C354 H346 0.930 . S
C354 C353 1.362 . S
C354 C357 1.409 1_554 S
C355 H347 0.930 1_556 S
C355 C356 1.355 . S
C355 C357 1.415 . S
C356 C355 1.355 . S
C356 C358 1.419 . S
C357 C352 1.425 . S
C357 C354 1.409 1_556 S
C357 C355 1.415 . S
C358 H348 0.930 . S
C358 C356 1.419 . S
C358 C359 1.362 . S
C359 H349 0.930 . S
C359 C352 1.409 . S
C359 C358 1.362 . S
H360 C366 0.930 . S
H361 C369 0.930 . S
H362 C370 0.930 . S
H363 C371 0.930 . S
H364 C374 0.930 . S
H365 C375 0.930 . S
C366 H360 0.930 . S
C366 C367 1.355 . S
C366 C368 1.415 . S
C367 C366 1.355 . S
C367 C369 1.419 . S
C368 C366 1.415 . S
C368 C373 1.425 . S
C368 C375 1.409 . S
C369 H361 0.930 . S
C369 C367 1.419 . S
C369 C370 1.362 . S
C370 H362 0.930 . S
C370 C369 1.362 . S
C370 C373 1.409 . S
C371 H363 0.930 . S
C371 C372 1.355 . S
C371 C373 1.415 . S
C372 C371 1.355 . S
C372 C374 1.419 . S
C373 C368 1.425 . S
C373 C370 1.409 . S
C373 C371 1.415 . S
C374 H364 0.930 . S
C374 C372 1.419 . S
C374 C375 1.362 . S
C375 H365 0.930 . S
C375 C368 1.409 . S
C375 C374 1.362 . S
H376 C382 0.930 . S
H377 C385 0.930 . S
H378 C386 0.930 . S
H379 C387 0.930 . S
H380 C390 0.930 . S
H381 C391 0.930 . S
C382 H376 0.930 . S
C382 C383 1.355 1_455 S
C382 C384 1.415 . S
C383 C382 1.355 1_655 S
C383 C385 1.419 . S
C384 C382 1.415 . S
C384 C389 1.425 1_455 S
C384 C391 1.409 . S
C385 H377 0.930 . S
C385 C383 1.419 . S
C385 C386 1.362 . S
C386 H378 0.930 . S
C386 C385 1.362 . S
C386 C389 1.409 . S
C387 H379 0.930 . S
C387 C388 1.328 1_655 S
C387 C389 1.415 . S
C388 C387 1.328 1_455 S
C388 C390 1.453 . S
C389 C384 1.425 1_655 S
C389 C386 1.409 . S
C389 C387 1.415 . S
C390 H380 0.930 . S
C390 C388 1.453 . S
C390 C391 1.362 . S
C391 H381 0.930 . S
C391 C384 1.409 . S
C391 C390 1.362 . S
H392 C398 0.930 1_455 S
H393 C401 0.930 . S
H394 C402 0.930 . S
H395 C403 0.930 . S
H396 C406 0.930 . S
H397 C407 0.930 . S
C398 H392 0.930 1_655 S
C398 C399 1.355 . S
C398 C400 1.415 . S
C399 C398 1.355 . S
C399 C401 1.419 . S
C400 C398 1.415 . S
C400 C405 1.425 . S
C400 C407 1.409 . S
C401 H393 0.930 . S
C401 C399 1.419 . S
C401 C402 1.362 . S
C402 H394 0.930 . S
C402 C401 1.362 . S
C402 C405 1.409 . S
C403 H395 0.930 . S
C403 C404 1.355 . S
C403 C405 1.415 . S
C404 C403 1.355 . S
C404 C406 1.419 . S
C405 C400 1.425 . S
C405 C402 1.409 . S
C405 C403 1.415 . S
C406 H396 0.930 . S
C406 C404 1.419 . S
C406 C407 1.362 . S
C407 H397 0.930 . S
C407 C400 1.409 . S
C407 C406 1.362 . S
H408 C414 0.930 . S
H409 C417 0.930 . S
H410 C418 0.930 . S
H411 C419 0.930 1_545 S
H412 C422 0.930 . S
H413 C423 0.930 . S
C414 H408 0.930 . S
C414 C415 1.355 1_565 S
C414 C416 1.415 . S
C415 C414 1.355 1_545 S
C415 C417 1.419 . S
C416 C414 1.415 . S
C416 C421 1.425 . S
C416 C423 1.409 . S
C417 H409 0.930 . S
C417 C415 1.419 . S
C417 C418 1.362 . S
C418 H410 0.930 . S
C418 C417 1.362 . S
C418 C421 1.409 1_545 S
C419 H411 0.930 1_565 S
C419 C420 1.355 . S
C419 C421 1.415 . S
C420 C419 1.355 . S
C420 C422 1.419 . S
C421 C416 1.425 . S
C421 C418 1.409 1_565 S
C421 C419 1.415 . S
C422 H412 0.930 . S
C422 C420 1.419 . S
C422 C423 1.362 . S
C423 H413 0.930 . S
C423 C416 1.409 . S
C423 C422 1.362 . S
H424 C430 0.930 . S
H425 C433 0.930 . S
H426 C434 0.930 . S
H427 C435 0.930 . S
H428 C438 0.930 . S
H429 C439 0.930 . S
C430 H424 0.930 . S
C430 C431 1.355 . S
C430 C432 1.415 . S
C431 C430 1.355 . S
C431 C433 1.419 . S
C432 C430 1.415 . S
C432 C437 1.425 . S
C432 C439 1.409 . S
C433 H425 0.930 . S
C433 C431 1.419 . S
C433 C434 1.362 . S
C434 H426 0.930 . S
C434 C433 1.362 . S
C434 C437 1.409 . S
C435 H427 0.930 . S
C435 C436 1.355 . S
C435 C437 1.415 . S
C436 C435 1.355 . S
C436 C438 1.419 . S
C437 C432 1.425 . S
C437 C434 1.409 . S
C437 C435 1.415 . S
C438 H428 0.930 . S
C438 C436 1.419 . S
C438 C439 1.362 . S
C439 H429 0.930 . S
C439 C432 1.409 . S
C439 C438 1.362 . S
H440 C446 0.930 . S
H441 C449 0.930 . S
H442 C450 0.930 . S
H443 C451 0.930 . S
H444 C454 0.930 . S
H445 C455 0.930 . S
C446 H440 0.930 . S
C446 C447 1.355 . S
C446 C448 1.415 . S
C447 C446 1.355 . S
C447 C449 1.419 . S
C448 C446 1.415 . S
C448 C453 1.425 . S
C448 C455 1.409 . S
C449 H441 0.930 . S
C449 C447 1.419 . S
C449 C450 1.362 . S
C450 H442 0.930 . S
C450 C449 1.362 . S
C450 C453 1.409 . S
C451 H443 0.930 . S
C451 C452 1.355 . S
C451 C453 1.415 . S
C452 C451 1.355 . S
C452 C454 1.419 . S
C453 C448 1.425 . S
C453 C450 1.409 . S
C453 C451 1.415 . S
C454 H444 0.930 . S
C454 C452 1.419 . S
C454 C455 1.362 . S
C455 H445 0.930 . S
C455 C448 1.409 . S
C455 C454 1.362 . S
H456 C462 0.930 . S
H457 C465 0.930 . S
H458 C466 0.930 . S
H459 C467 0.930 . S
H460 C470 0.930 . S
H461 C471 0.930 . S
C462 H456 0.930 . S
C462 C463 1.355 1_655 S
C462 C464 1.415 1_655 S
C463 C462 1.355 1_455 S
C463 C465 1.419 . S
C464 C462 1.415 1_455 S
C464 C469 1.425 . S
C464 C471 1.409 1_455 S
C465 H457 0.930 . S
C465 C463 1.419 . S
C465 C466 1.362 . S
C466 H458 0.930 . S
C466 C465 1.362 . S
C466 C469 1.409 . S
C467 H459 0.930 . S
C467 C468 1.355 . S
C467 C469 1.415 . S
C468 C467 1.355 . S
C468 C470 1.419 . S
C469 C464 1.425 . S
C469 C466 1.409 . S
C469 C467 1.415 . S
C470 H460 0.930 . S
C470 C468 1.419 . S
C470 C471 1.362 1_455 S
C471 H461 0.930 . S
C471 C464 1.409 1_655 S
C471 C470 1.362 1_655 S
H472 C478 0.930 . S
H473 C481 0.930 . S
H474 C482 0.930 . S
H475 C483 0.930 . S
H476 C486 0.930 . S
H477 C487 0.930 . S
C478 H472 0.930 . S
C478 C479 1.355 1_545 S
C478 C480 1.415 . S
C479 C478 1.355 1_565 S
C479 C481 1.419 . S
C480 C478 1.415 . S
C480 C485 1.425 . S
C480 C487 1.409 . S
C481 H473 0.930 . S
C481 C479 1.419 . S
C481 C482 1.362 1_565 S
C482 H474 0.930 . S
C482 C481 1.362 1_545 S
C482 C485 1.409 . S
C483 H475 0.930 . S
C483 C484 1.355 . S
C483 C485 1.415 . S
C484 C483 1.355 . S
C484 C486 1.419 . S
C485 C480 1.425 . S
C485 C482 1.409 . S
C485 C483 1.415 . S
C486 H476 0.930 . S
C486 C484 1.419 . S
C486 C487 1.362 . S
C487 H477 0.930 . S
C487 C480 1.409 . S
C487 C486 1.362 . S
H488 C494 0.930 . S
H489 C497 0.930 1_554 S
H490 C498 0.930 1_554 S
H491 C499 0.930 . S
H492 C502 0.930 . S
H493 C503 0.930 . S
C494 H488 0.930 . S
C494 C495 1.355 . S
C494 C496 1.415 . S
C495 C494 1.355 . S
C495 C497 1.419 . S
C496 C494 1.415 . S
C496 C501 1.425 . S
C496 C503 1.409 . S
C497 H489 0.930 1_556 S
C497 C495 1.419 . S
C497 C498 1.362 . S
C498 H490 0.930 1_556 S
C498 C497 1.362 . S
C498 C501 1.409 . S
C499 H491 0.930 . S
C499 C500 1.355 . S
C499 C501 1.415 . S
C500 C499 1.355 . S
C500 C502 1.419 . S
C501 C496 1.425 . S
C501 C498 1.409 . S
C501 C499 1.415 . S
C502 H492 0.930 . S
C502 C500 1.419 . S
C502 C503 1.362 . S
C503 H493 0.930 . S
C503 C496 1.409 . S
C503 C502 1.362 . S
H504 C510 0.930 . S
H505 C513 0.930 . S
H506 C514 0.930 . S
H507 C515 0.930 . S
H508 C518 0.930 . S
H509 C519 0.930 . S
C510 H504 0.930 . S
C510 C511 1.355 . S
C510 C512 1.415 . S
C511 C510 1.355 . S
C511 C513 1.419 . S
C512 C510 1.415 . S
C512 C517 1.425 . S
C512 C519 1.409 . S
C513 H505 0.930 . S
C513 C511 1.419 . S
C513 C514 1.362 . S
C514 H506 0.930 . S
C514 C513 1.362 . S
C514 C517 1.409 . S
C515 H507 0.930 . S
C515 C516 1.355 . S
C515 C517 1.415 . S
C516 C515 1.355 . S
C516 C518 1.419 . S
C517 C512 1.425 . S
C517 C514 1.409 . S
C517 C515 1.415 . S
C518 H508 0.930 . S
C518 C516 1.419 . S
C518 C519 1.362 . S
C519 H509 0.930 . S
C519 C512 1.409 . S
C519 C518 1.362 . S
H520 C526 0.930 1_655 S
H521 C529 0.930 . S
H522 C530 0.930 . S
H523 C531 0.930 . S
H524 C534 0.930 . S
H525 C535 0.930 . S
C526 H520 0.930 1_455 S
C526 C527 1.355 1_556 S
C526 C528 1.415 . S
C527 C526 1.355 1_554 S
C527 C529 1.419 . S
C528 C526 1.415 . S
C528 C533 1.425 1_556 S
C528 C535 1.409 . S
C529 H521 0.930 . S
C529 C527 1.419 . S
C529 C530 1.362 . S
C530 H522 0.930 . S
C530 C529 1.362 . S
C530 C533 1.409 . S
C531 H523 0.930 . S
C531 C532 1.355 1_554 S
C531 C533 1.415 . S
C532 C531 1.355 1_556 S
C532 C534 1.419 . S
C533 C528 1.425 1_554 S
C533 C530 1.409 . S
C533 C531 1.415 . S
C534 H524 0.930 . S
C534 C532 1.419 . S
C534 C535 1.362 . S
C535 H525 0.930 . S
C535 C528 1.409 . S
C535 C534 1.362 . S
H536 C542 0.930 . S
H537 C545 0.930 . S
H538 C546 0.930 . S
H539 C547 0.930 . S
H540 C550 0.930 . S
H541 C551 0.930 . S
C542 H536 0.930 . S
C542 C543 1.355 1_566 S
C542 C544 1.415 . S
C543 C542 1.355 1_544 S
C543 C545 1.419 . S
C544 C542 1.415 . S
C544 C549 1.425 1_566 S
C544 C551 1.409 . S
C545 H537 0.930 . S
C545 C543 1.419 . S
C545 C546 1.362 . S
C546 H538 0.930 . S
C546 C545 1.362 . S
C546 C549 1.409 . S
C547 H539 0.930 . S
C547 C548 1.355 1_554 S
C547 C549 1.415 . S
C548 C547 1.355 1_556 S
C548 C550 1.419 1_545 S
C549 C544 1.425 1_544 S
C549 C546 1.409 . S
C549 C547 1.415 . S
C550 H540 0.930 . S
C550 C548 1.419 1_565 S
C550 C551 1.362 . S
C551 H541 0.930 . S
C551 C544 1.409 . S
C551 C550 1.362 . S
H552 C558 0.930 . S
H553 C561 0.930 . S
H554 C562 0.930 . S
H555 C563 0.930 . S
H556 C566 0.930 . S
H557 C567 0.930 . S
C558 H552 0.930 . S
C558 C559 1.355 . S
C558 C560 1.415 . S
C559 C558 1.355 . S
C559 C561 1.419 . S
C560 C558 1.415 . S
C560 C565 1.425 . S
C560 C567 1.409 . S
C561 H553 0.930 . S
C561 C559 1.419 . S
C561 C562 1.362 . S
C562 H554 0.930 . S
C562 C561 1.362 . S
C562 C565 1.409 . S
C563 H555 0.930 . S
C563 C564 1.355 . S
C563 C565 1.415 . S
C564 C563 1.355 . S
C564 C566 1.419 . S
C565 C560 1.425 . S
C565 C562 1.409 . S
C565 C563 1.415 . S
C566 H556 0.930 . S
C566 C564 1.419 . S
C566 C567 1.362 . S
C567 H557 0.930 . S
C567 C560 1.409 . S
C567 C566 1.362 . S
H568 C574 0.930 . S
H569 C577 0.930 . S
H570 C578 0.930 . S
H571 C579 0.930 . S
H572 C582 0.930 . S
H573 C583 0.930 . S
C574 H568 0.930 . S
C574 C575 1.355 1_556 S
C574 C576 1.415 . S
C575 C574 1.355 1_554 S
C575 C577 1.419 . S
C576 C574 1.415 . S
C576 C581 1.425 1_556 S
C576 C583 1.409 . S
C577 H569 0.930 . S
C577 C575 1.419 . S
C577 C578 1.362 . S
C578 H570 0.930 . S
C578 C577 1.362 . S
C578 C581 1.409 . S
C579 H571 0.930 . S
C579 C580 1.355 1_554 S
C579 C581 1.415 . S
C580 C579 1.355 1_556 S
C580 C582 1.419 . S
C581 C576 1.425 1_554 S
C581 C578 1.409 . S
C581 C579 1.415 . S
C582 H572 0.930 . S
C582 C580 1.419 . S
C582 C583 1.362 . S
C583 H573 0.930 . S
C583 C576 1.409 . S
C583 C582 1.362 . S
H584 C590 0.930 . S
H585 C593 0.930 . S
H586 C594 0.930 . S
H587 C595 0.930 . S
H588 C598 0.930 . S
H589 C599 0.930 . S
C590 H584 0.930 . S
C590 C591 1.345 1_655 S
C590 C592 1.415 . S
C591 C590 1.345 1_455 S
C591 C593 1.430 . S
C592 C590 1.415 . S
C592 C597 1.425 1_655 S
C592 C599 1.409 . S
C593 H585 0.930 . S
C593 C591 1.430 . S
C593 C594 1.362 . S
C594 H586 0.930 . S
C594 C593 1.362 . S
C594 C597 1.409 . S
C595 H587 0.930 . S
C595 C596 1.355 1_455 S
C595 C597 1.415 . S
C596 C595 1.355 1_655 S
C596 C598 1.419 . S
C597 C592 1.425 1_455 S
C597 C594 1.409 . S
C597 C595 1.415 . S
C598 H588 0.930 . S
C598 C596 1.419 . S
C598 C599 1.362 . S
C599 H589 0.930 . S
C599 C592 1.409 . S
C599 C598 1.362 . S
H600 C606 0.930 . S
H601 C609 0.930 . S
H602 C610 0.930 . S
H603 C611 0.930 1_545 S
H604 C614 0.930 . S
H605 C615 0.930 . S
C606 H600 0.930 . S
C606 C607 1.355 . S
C606 C608 1.415 . S
C607 C606 1.355 . S
C607 C609 1.419 1_565 S
C608 C606 1.415 . S
C608 C613 1.425 . S
C608 C615 1.409 . S
C609 H601 0.930 . S
C609 C607 1.419 1_545 S
C609 C610 1.362 . S
C610 H602 0.930 . S
C610 C609 1.362 . S
C610 C613 1.409 1_545 S
C611 H603 0.930 1_565 S
C611 C612 1.355 . S
C611 C613 1.415 . S
C612 C611 1.355 . S
C612 C614 1.419 . S
C613 C608 1.425 . S
C613 C610 1.409 1_565 S
C613 C611 1.415 . S
C614 H604 0.930 . S
C614 C612 1.419 . S
C614 C615 1.362 . S
C615 H605 0.930 . S
C615 C608 1.409 . S
C615 C614 1.362 . S
H616 C622 0.930 . S
H617 C625 0.930 . S
H618 C626 0.930 . S
H619 C627 0.930 . S
H620 C630 0.930 . S
H621 C631 0.930 . S
C622 H616 0.930 . S
C622 C623 1.355 . S
C622 C624 1.415 . S
C623 C622 1.355 . S
C623 C625 1.419 . S
C624 C622 1.415 . S
C624 C629 1.425 . S
C624 C631 1.409 . S
C625 H617 0.930 . S
C625 C623 1.419 . S
C625 C626 1.362 . S
C626 H618 0.930 . S
C626 C625 1.362 . S
C626 C629 1.409 . S
C627 H619 0.930 . S
C627 C628 1.355 . S
C627 C629 1.415 . S
C628 C627 1.355 . S
C628 C630 1.419 . S
C629 C624 1.425 . S
C629 C626 1.409 . S
C629 C627 1.415 . S
C630 H620 0.930 . S
C630 C628 1.419 . S
C630 C631 1.362 . S
C631 H621 0.930 . S
C631 C624 1.409 . S
C631 C630 1.362 . S
H632 C638 0.930 . S
H633 C641 0.930 . S
H634 C642 0.930 . S
H635 C643 0.930 . S
H636 C646 0.930 . S
H637 C647 0.930 . S
C638 H632 0.930 . S
C638 C639 1.355 . S
C638 C640 1.415 . S
C639 C638 1.355 . S
C639 C641 1.419 . S
C640 C638 1.415 . S
C640 C645 1.425 . S
C640 C647 1.409 . S
C641 H633 0.930 . S
C641 C639 1.419 . S
C641 C642 1.362 . S
C642 H634 0.930 . S
C642 C641 1.362 . S
C642 C645 1.409 . S
C643 H635 0.930 . S
C643 C644 1.355 . S
C643 C645 1.415 . S
C644 C643 1.355 . S
C644 C646 1.419 . S
C645 C640 1.425 . S
C645 C642 1.409 . S
C645 C643 1.415 . S
C646 H636 0.930 . S
C646 C644 1.419 . S
C646 C647 1.362 . S
C647 H637 0.930 . S
C647 C640 1.409 . S
C647 C646 1.362 . S
C271 C82 1.703 . S
C276 C127 2.071 1_545 S
C292 C167 1.774 . S
C287 C95 1.725 . S
C308 C186 2.109 . S
C303 C56 1.857 . S
C324 C247 1.452 1_455 S
C319 C69 1.171 . S
C340 C106 2.096 1_564 S
C335 C30 1.717 . S
C351 C43 1.720 . S
C356 C146 1.749 . S
C367 C4 1.729 . S
C372 C207 2.120 1_554 S
C383 C17 1.209 1_655 S
C388 C226 1.450 1_554 S
C404 C108 0.939 . S
C399 C74 0.996 1_655 S
C420 C148 0.531 . S
C415 C87 0.555 . S
C436 C204 1.161 . S
C431 C100 1.078 . S
C447 C61 0.641 . S
C452 C228 0.639 . S
C463 C22 0.964 . S
C468 C129 0.918 . S
C484 C169 0.408 . S
C479 C35 0.365 1_565 S
C500 C215 1.069 . S
C495 C48 0.951 . S
C511 C9 0.473 . S
C516 C249 0.519 . S
C527 C73 1.484 . S
C532 C124 1.698 . S
C543 C86 2.189 . S
C548 C164 2.430 . S
C564 C188 1.575 . S
C559 C99 1.553 . S
C580 C244 2.439 . S
C575 C60 2.191 . S
C591 C21 1.517 . S
C596 C135 1.726 . S
C612 C175 2.434 . S
C607 C34 2.178 1_565 S
C628 C209 1.517 . S
C623 C47 1.554 . S
C639 C8 2.249 . S
C644 C255 2.439 . S
