# Generated by pormake.
# Topology pto, (3,4)-cn, num edge types: 1
# Building blocks:
#     Node 0, Type 0, BuildingBlock: VETTIZ_charged_linker_0, # of connection points: 3
#     Node 1, Type 0, BuildingBlock: VETTIZ_charged_linker_0, # of connection points: 3
#     Node 2, Type 0, BuildingBlock: VETTIZ_charged_linker_0, # of connection points: 3
#     Node 3, Type 0, BuildingBlock: VETTIZ_charged_linker_0, # of connection points: 3
#     Node 4, Type 0, BuildingBlock: VETTIZ_charged_linker_0, # of connection points: 3
#     Node 5, Type 0, BuildingBlock: VETTIZ_charged_linker_0, # of connection points: 3
#     Node 6, Type 0, BuildingBlock: VETTIZ_charged_linker_0, # of connection points: 3
#     Node 7, Type 0, BuildingBlock: VETTIZ_charged_linker_0, # of connection points: 3
#     Node 8, Type 1, BuildingBlock: KOZSID_clean_sbu_0, # of connection points: 4
#     Node 9, Type 1, BuildingBlock: KOZSID_clean_sbu_0, # of connection points: 4
#     Node 10, Type 1, BuildingBlock: KOZSID_clean_sbu_0, # of connection points: 4
#     Node 11, Type 1, BuildingBlock: KOZSID_clean_sbu_0, # of connection points: 4
#     Node 12, Type 1, BuildingBlock: KOZSID_clean_sbu_0, # of connection points: 4
#     Node 13, Type 1, BuildingBlock: KOZSID_clean_sbu_0, # of connection points: 4
#     Edge 14, Type (0, 1), BuildingBlock: OJICUG_clean_linker_0, # of connection points: 2
#     Edge 15, Type (0, 1), BuildingBlock: OJICUG_clean_linker_0, # of connection points: 2
#     Edge 16, Type (0, 1), BuildingBlock: OJICUG_clean_linker_0, # of connection points: 2
#     Edge 17, Type (0, 1), BuildingBlock: OJICUG_clean_linker_0, # of connection points: 2
#     Edge 18, Type (0, 1), BuildingBlock: OJICUG_clean_linker_0, # of connection points: 2
#     Edge 19, Type (0, 1), BuildingBlock: OJICUG_clean_linker_0, # of connection points: 2
#     Edge 20, Type (0, 1), BuildingBlock: OJICUG_clean_linker_0, # of connection points: 2
#     Edge 21, Type (0, 1), BuildingBlock: OJICUG_clean_linker_0, # of connection points: 2
#     Edge 22, Type (0, 1), BuildingBlock: OJICUG_clean_linker_0, # of connection points: 2
#     Edge 23, Type (0, 1), BuildingBlock: OJICUG_clean_linker_0, # of connection points: 2
#     Edge 24, Type (0, 1), BuildingBlock: OJICUG_clean_linker_0, # of connection points: 2
#     Edge 25, Type (0, 1), BuildingBlock: OJICUG_clean_linker_0, # of connection points: 2
#     Edge 26, Type (0, 1), BuildingBlock: OJICUG_clean_linker_0, # of connection points: 2
#     Edge 27, Type (0, 1), BuildingBlock: OJICUG_clean_linker_0, # of connection points: 2
#     Edge 28, Type (0, 1), BuildingBlock: OJICUG_clean_linker_0, # of connection points: 2
#     Edge 29, Type (0, 1), BuildingBlock: OJICUG_clean_linker_0, # of connection points: 2
#     Edge 30, Type (0, 1), BuildingBlock: OJICUG_clean_linker_0, # of connection points: 2
#     Edge 31, Type (0, 1), BuildingBlock: OJICUG_clean_linker_0, # of connection points: 2
#     Edge 32, Type (0, 1), BuildingBlock: OJICUG_clean_linker_0, # of connection points: 2
#     Edge 33, Type (0, 1), BuildingBlock: OJICUG_clean_linker_0, # of connection points: 2
#     Edge 34, Type (0, 1), BuildingBlock: OJICUG_clean_linker_0, # of connection points: 2
#     Edge 35, Type (0, 1), BuildingBlock: OJICUG_clean_linker_0, # of connection points: 2
#     Edge 36, Type (0, 1), BuildingBlock: OJICUG_clean_linker_0, # of connection points: 2
#     Edge 37, Type (0, 1), BuildingBlock: OJICUG_clean_linker_0, # of connection points: 2
# Relax obj value: 0.000
# Max RMSD: 0.027
# Mean RMSD: 0.012
data_MOF--net-pto--node1-KOZSID_clean_sbu_0--node2-VETTIZ_charged_linker_0--edge1-OJICUG_clean_linker_0
_symmetry_space_group_name_H-M    P1
_symmetry_Int_Tables_number       1
_symmetry_cell_setting            triclinic
loop_
_symmetry_equiv_pos_as_xyz
'x, y, z'
_cell_length_a     36.926282
_cell_length_b     49.66992
_cell_length_c     43.405244
_cell_angle_alpha  87.132266
_cell_angle_beta   86.648143
_cell_angle_gamma 93.229143
loop_
_atom_site_label
_atom_site_type_symbol
_atom_site_fract_x
_atom_site_fract_y
_atom_site_fract_z
_atom_type_partial_charge
C0 C 0.24599 0.18652 0.38976 0.0
C1 C 0.26184 0.16209 0.38349 0.0
C2 C 0.28424 0.16084 0.35621 0.0
C3 C 0.27485 0.20766 0.34215 0.0
C4 C 0.25274 0.20893 0.36879 0.0
C5 C 0.2377 0.23633 0.37163 0.0
H6 H 0.21921 0.36178 0.30805 0.0
C7 C 0.27649 0.23438 0.32535 0.0
C8 C 0.25473 0.25131 0.34247 0.0
H9 H 0.17187 0.32712 0.3958 0.0
H10 H 0.20257 0.28626 0.38778 0.0
H11 H 0.21173 0.30839 0.26874 0.0
H12 H 0.29748 0.34377 0.31923 0.0
H13 H 0.31908 0.32816 0.28839 0.0
H14 H 0.29015 0.35553 0.2805 0.0
H15 H 0.23578 0.34018 0.25769 0.0
H16 H 0.25274 0.30889 0.24571 0.0
C17 C 0.1958 0.23285 0.37119 0.0
C18 C 0.25151 0.24856 0.40123 0.0
C19 C 0.35301 0.24996 0.224 0.0
C20 C 0.36114 0.27291 0.20409 0.0
C21 C 0.34586 0.29738 0.2109 0.0
C22 C 0.32229 0.29894 0.2372 0.0
C23 C 0.31427 0.27582 0.25704 0.0
C24 C 0.32987 0.25194 0.25046 0.0
C25 C 0.31958 0.22983 0.27488 0.0
C26 C 0.29511 0.24433 0.29713 0.0
C27 C 0.29179 0.27114 0.28637 0.0
C28 C 0.29849 0.2067 0.25961 0.0
C29 C 0.35473 0.22148 0.28973 0.0
C30 C 0.21567 0.34566 0.32587 0.0
C31 C 0.19255 0.34789 0.35251 0.0
C32 C 0.18873 0.32595 0.37471 0.0
C33 C 0.2068 0.30221 0.37011 0.0
C34 C 0.22922 0.30025 0.3431 0.0
C35 C 0.23382 0.32197 0.32182 0.0
C36 C 0.25986 0.31686 0.2951 0.0
C37 C 0.26921 0.28813 0.3033 0.0
C38 C 0.25101 0.27838 0.33133 0.0
C39 C 0.23925 0.31879 0.26507 0.0
C40 C 0.29335 0.33715 0.2955 0.0
H41 H 0.30823 0.18111 0.31536 0.0
H42 H 0.22839 0.18811 0.41035 0.0
H43 H 0.27958 0.24272 0.40518 0.0
H44 H 0.25344 0.27086 0.39974 0.0
H45 H 0.23387 0.24135 0.42195 0.0
H46 H 0.18775 0.21791 0.35421 0.0
H47 H 0.18342 0.22547 0.39423 0.0
H48 H 0.1832 0.25155 0.3639 0.0
H49 H 0.36487 0.23102 0.21929 0.0
H50 H 0.35203 0.31524 0.19572 0.0
H51 H 0.31123 0.31807 0.24106 0.0
H52 H 0.28111 0.21491 0.24171 0.0
H53 H 0.31742 0.19316 0.24816 0.0
H54 H 0.27949 0.19452 0.27607 0.0
H55 H 0.37437 0.23919 0.29082 0.0
H56 H 0.34987 0.2136 0.31395 0.0
H57 H 0.36845 0.2062 0.27615 0.0
H58 H 0.29722 0.14244 0.35101 0.0
C59 C 0.29082 0.18342 0.33559 0.0
C60 C 0.1917 0.68541 0.73349 0.0
C61 C 0.16748 0.68194 0.70995 0.0
C62 C 0.16256 0.70412 0.68928 0.0
C63 C 0.20488 0.7324 0.71609 0.0
C64 C 0.20995 0.7106 0.73611 0.0
C65 C 0.23618 0.71752 0.76014 0.0
H66 H 0.34385 0.81072 0.82542 0.0
C67 C 0.22726 0.75585 0.72576 0.0
C68 C 0.2456 0.74718 0.7516 0.0
H69 H 0.32718 0.72545 0.85055 0.0
H70 H 0.28649 0.72002 0.80949 0.0
H71 H 0.26033 0.8213 0.812 0.0
H72 H 0.35282 0.80328 0.7534 0.0
H73 H 0.32909 0.82686 0.73238 0.0
H74 H 0.34787 0.83607 0.76811 0.0
H75 H 0.2977 0.84541 0.8019 0.0
H76 H 0.25967 0.84176 0.77786 0.0
C77 C 0.21569 0.71324 0.79236 0.0
C78 C 0.26955 0.70019 0.75559 0.0
C79 C 0.22724 0.84737 0.667 0.0
C80 C 0.24458 0.87277 0.67138 0.0
C81 C 0.26666 0.8755 0.6966 0.0
C82 C 0.27162 0.85343 0.71695 0.0
C83 C 0.25434 0.82819 0.71219 0.0
C84 C 0.2324 0.82546 0.68768 0.0
C85 C 0.21577 0.79712 0.68669 0.0
C86 C 0.23194 0.78325 0.71428 0.0
C87 C 0.25455 0.8016 0.72906 0.0
C88 C 0.17397 0.79816 0.69134 0.0
C89 C 0.22899 0.78549 0.65585 0.0
C90 C 0.33111 0.79096 0.82218 0.0
C91 C 0.33853 0.76849 0.84127 0.0
C92 C 0.322 0.743 0.836 0.0
C93 C 0.29831 0.73992 0.81218 0.0
C94 C 0.29121 0.76252 0.79318 0.0
C95 C 0.30773 0.78746 0.79818 0.0
C96 C 0.29821 0.80894 0.77484 0.0
C97 C 0.27297 0.79283 0.75525 0.0
C98 C 0.26875 0.76573 0.76626 0.0
C99 C 0.27813 0.8307 0.79234 0.0
C100 C 0.33368 0.81963 0.75623 0.0
H101 H 0.17616 0.74528 0.67577 0.0
H102 H 0.19585 0.66901 0.75006 0.0
H103 H 0.27441 0.69552 0.73093 0.0
H104 H 0.29516 0.71075 0.76152 0.0
H105 H 0.26557 0.68067 0.76934 0.0
H106 H 0.18767 0.72031 0.79164 0.0
H107 H 0.2134 0.69153 0.80015 0.0
H108 H 0.22845 0.72487 0.81026 0.0
H109 H 0.20979 0.84464 0.64805 0.0
H110 H 0.28074 0.89469 0.7003 0.0
H111 H 0.28893 0.85689 0.73552 0.0
H112 H 0.16659 0.81379 0.70771 0.0
H113 H 0.16175 0.80321 0.66915 0.0
H114 H 0.16063 0.77915 0.70178 0.0
H115 H 0.25808 0.79174 0.64997 0.0
H116 H 0.22764 0.76322 0.65677 0.0
H117 H 0.21309 0.79288 0.63652 0.0
H118 H 0.14446 0.702 0.67068 0.0
C119 C 0.18111 0.72925 0.6922 0.0
C120 C 0.8575 0.70163 0.33795 0.0
C121 C 0.85358 0.67779 0.32165 0.0
C122 C 0.8261 0.67601 0.30037 0.0
C123 C 0.80926 0.72129 0.31019 0.0
C124 C 0.83471 0.72284 0.3322 0.0
C125 C 0.83373 0.74902 0.34838 0.0
H126 H 0.75362 0.86723 0.36855 0.0
C127 C 0.79011 0.74657 0.30942 0.0
C128 C 0.80365 0.76278 0.33222 0.0
H129 H 0.84455 0.8368 0.41544 0.0
H130 H 0.84222 0.79727 0.38558 0.0
H131 H 0.70651 0.81239 0.36569 0.0
H132 H 0.78718 0.85247 0.30074 0.0
H133 H 0.75081 0.84061 0.27984 0.0
H134 H 0.74317 0.86519 0.30829 0.0
H135 H 0.69782 0.84244 0.34326 0.0
H136 H 0.69078 0.80935 0.32849 0.0
C137 C 0.82325 0.74218 0.38305 0.0
C138 C 0.87102 0.76474 0.34193 0.0
C139 C 0.70267 0.7639 0.22564 0.0
C140 C 0.67892 0.78451 0.21952 0.0
C141 C 0.67682 0.80552 0.24026 0.0
C142 C 0.69846 0.80634 0.26578 0.0
C143 C 0.72232 0.78577 0.27109 0.0
C144 C 0.72339 0.76469 0.2516 0.0
C145 C 0.74779 0.74331 0.26226 0.0
C146 C 0.76319 0.756 0.2902 0.0
C147 C 0.74839 0.78094 0.29515 0.0
C148 C 0.72391 0.71703 0.27135 0.0
C149 C 0.77759 0.74025 0.23628 0.0
C150 C 0.77337 0.85231 0.37235 0.0
C151 C 0.79903 0.85535 0.39491 0.0
C152 C 0.82379 0.83493 0.39895 0.0
C153 C 0.82263 0.81197 0.38136 0.0
C154 C 0.7967 0.8093 0.35912 0.0
C155 C 0.77303 0.8295 0.35461 0.0
C156 C 0.74876 0.82414 0.32868 0.0
C157 C 0.76104 0.79702 0.31894 0.0
C158 C 0.78894 0.78823 0.33704 0.0
C159 C 0.70878 0.82212 0.34195 0.0
C160 C 0.75753 0.84676 0.30299 0.0
H161 H 0.78469 0.69494 0.27748 0.0
H162 H 0.87802 0.70401 0.35456 0.0
H163 H 0.88227 0.7618 0.31807 0.0
H164 H 0.86932 0.78679 0.3431 0.0
H165 H 0.89104 0.75772 0.35824 0.0
H166 H 0.80172 0.72549 0.38594 0.0
H167 H 0.84705 0.73559 0.39535 0.0
H168 H 0.81173 0.75914 0.39495 0.0
H169 H 0.70553 0.74739 0.21053 0.0
H170 H 0.65811 0.82129 0.23713 0.0
H171 H 0.6956 0.8229 0.28052 0.0
H172 H 0.69468 0.72099 0.27528 0.0
H173 H 0.72583 0.70227 0.25301 0.0
H174 H 0.73126 0.70731 0.2935 0.0
H175 H 0.78936 0.76042 0.22724 0.0
H176 H 0.80062 0.72907 0.24415 0.0
H177 H 0.76621 0.72973 0.21669 0.0
H178 H 0.82092 0.65777 0.2883 0.0
C179 C 0.80442 0.69759 0.29434 0.0
C180 C 0.70359 0.27963 0.8532 0.0
C181 C 0.68368 0.25582 0.86406 0.0
C182 C 0.68603 0.23243 0.84727 0.0
C183 C 0.72806 0.25669 0.80913 0.0
C184 C 0.72582 0.27953 0.82593 0.0
C185 C 0.75022 0.30276 0.81194 0.0
H186 H 0.87671 0.35245 0.70145 0.0
C187 C 0.75425 0.26323 0.78231 0.0
C188 C 0.7676 0.29009 0.78402 0.0
H189 H 0.82973 0.3928 0.77894 0.0
H190 H 0.79202 0.35294 0.79455 0.0
H191 H 0.79946 0.32175 0.6834 0.0
H192 H 0.8864 0.29662 0.73831 0.0
H193 H 0.87197 0.26895 0.71754 0.0
H194 H 0.89121 0.29936 0.69687 0.0
H195 H 0.84428 0.31684 0.66709 0.0
H196 H 0.81059 0.28918 0.6734 0.0
C197 C 0.72602 0.32591 0.80241 0.0
C198 C 0.77844 0.31031 0.83566 0.0
C199 C 0.77713 0.19288 0.70344 0.0
C200 C 0.80128 0.19217 0.67713 0.0
C201 C 0.82517 0.21505 0.6692 0.0
C202 C 0.82451 0.23812 0.68656 0.0
C203 C 0.80002 0.23846 0.71253 0.0
C204 C 0.77729 0.2159 0.72084 0.0
C205 C 0.75463 0.21917 0.75022 0.0
C206 C 0.76663 0.24776 0.75757 0.0
C207 C 0.79302 0.25909 0.73528 0.0
C208 C 0.71408 0.21678 0.74291 0.0
C209 C 0.76541 0.19799 0.77503 0.0
C210 C 0.85836 0.35263 0.72182 0.0
C211 C 0.85614 0.37599 0.73883 0.0
C212 C 0.83161 0.37536 0.76506 0.0
C213 C 0.80987 0.35204 0.77428 0.0
C214 C 0.81252 0.32886 0.75723 0.0
C215 C 0.83627 0.32941 0.73136 0.0
C216 C 0.83505 0.3028 0.71606 0.0
C217 C 0.80686 0.28625 0.73718 0.0
C218 C 0.79393 0.30167 0.76129 0.0
C219 C 0.82189 0.3077 0.68315 0.0
C220 C 0.8731 0.29124 0.71692 0.0
H221 H 0.70853 0.21437 0.80782 0.0
H222 H 0.70236 0.29778 0.86598 0.0
H223 H 0.78587 0.29207 0.84927 0.0
H224 H 0.80448 0.31907 0.8247 0.0
H225 H 0.76748 0.32457 0.85225 0.0
H226 H 0.69986 0.31772 0.79414 0.0
H227 H 0.7195 0.33847 0.82223 0.0
H228 H 0.73837 0.33907 0.78288 0.0
H229 H 0.75815 0.17598 0.71041 0.0
H230 H 0.84488 0.21511 0.64973 0.0
H231 H 0.84332 0.25477 0.67921 0.0
H232 H 0.70976 0.22831 0.72092 0.0
H233 H 0.70484 0.19538 0.74032 0.0
H234 H 0.69602 0.22523 0.76063 0.0
H235 H 0.79379 0.19214 0.77045 0.0
H236 H 0.7651 0.20586 0.79844 0.0
H237 H 0.74737 0.17929 0.77557 0.0
H238 H 0.67075 0.21394 0.85547 0.0
C239 C 0.70797 0.23276 0.81973 0.0
C240 C 0.79945 0.85383 0.67472 0.0
C241 C 0.78303 0.87822 0.68015 0.0
C242 C 0.7595 0.87954 0.70675 0.0
C243 C 0.769 0.83294 0.72185 0.0
C244 C 0.79217 0.83157 0.69585 0.0
C245 C 0.80777 0.80426 0.69393 0.0
H246 H 0.826 0.6796 0.76054 0.0
C247 C 0.76709 0.80638 0.73906 0.0
C248 C 0.78978 0.78944 0.72283 0.0
H249 H 0.87792 0.71387 0.67461 0.0
H250 H 0.84472 0.75432 0.6798 0.0
H251 H 0.83062 0.73381 0.7991 0.0
H252 H 0.74823 0.69659 0.74659 0.0
H253 H 0.72472 0.71266 0.77607 0.0
H254 H 0.75366 0.68577 0.78599 0.0
H255 H 0.80673 0.70194 0.81006 0.0
H256 H 0.78875 0.73324 0.82087 0.0
C257 C 0.8495 0.80812 0.69561 0.0
C258 C 0.7955 0.79158 0.6641 0.0
C259 C 0.68807 0.79141 0.83931 0.0
C260 C 0.67979 0.76859 0.85942 0.0
C261 C 0.69521 0.74409 0.85302 0.0
C262 C 0.71918 0.74238 0.82703 0.0
C263 C 0.72756 0.76539 0.80711 0.0
C264 C 0.71167 0.78927 0.81314 0.0
C265 C 0.7224 0.8112 0.78856 0.0
C266 C 0.7476 0.79661 0.76698 0.0
C267 C 0.75085 0.76993 0.77822 0.0
C268 C 0.74281 0.8346 0.80391 0.0
C269 C 0.68762 0.81924 0.7729 0.0
C270 C 0.83029 0.6959 0.74294 0.0
C271 C 0.8549 0.69382 0.71739 0.0
C272 C 0.85911 0.71512 0.69453 0.0
C273 C 0.84 0.73861 0.69771 0.0
C274 C 0.81623 0.74072 0.72393 0.0
C275 C 0.81119 0.7193 0.74564 0.0
C276 C 0.78389 0.72447 0.77137 0.0
C277 C 0.77434 0.75296 0.76224 0.0
C278 C 0.79348 0.76252 0.73455 0.0
C279 C 0.80319 0.72319 0.80212 0.0
C280 C 0.75093 0.70379 0.77026 0.0
H281 H 0.73414 0.85948 0.74722 0.0
H282 H 0.81791 0.85218 0.65467 0.0
H283 H 0.76734 0.7968 0.65945 0.0
H284 H 0.79444 0.76929 0.66574 0.0
H285 H 0.81355 0.79904 0.64373 0.0
H286 H 0.85656 0.82333 0.71259 0.0
H287 H 0.86271 0.81532 0.6728 0.0
H288 H 0.86206 0.78961 0.70362 0.0
H289 H 0.6761 0.81038 0.84369 0.0
H290 H 0.68892 0.72634 0.86835 0.0
H291 H 0.73035 0.72323 0.82354 0.0
H292 H 0.76022 0.82663 0.82194 0.0
H293 H 0.72345 0.8479 0.81523 0.0
H294 H 0.76168 0.84699 0.78755 0.0
H295 H 0.66806 0.80147 0.77191 0.0
H296 H 0.69304 0.82668 0.74857 0.0
H297 H 0.67358 0.83476 0.78585 0.0
H298 H 0.74605 0.89789 0.71129 0.0
C299 C 0.75239 0.85711 0.72753 0.0
C300 C 0.82039 0.1921 0.39405 0.0
C301 C 0.80244 0.16674 0.39053 0.0
C302 C 0.77954 0.16384 0.36587 0.0
C303 C 0.79228 0.21088 0.34914 0.0
C304 C 0.81502 0.21378 0.3731 0.0
C305 C 0.83221 0.24204 0.37319 0.0
H306 H 0.85176 0.36937 0.30727 0.0
C307 C 0.79208 0.23725 0.33178 0.0
C308 C 0.81549 0.25566 0.34571 0.0
H309 H 0.90527 0.33738 0.38599 0.0
H310 H 0.87322 0.29399 0.38222 0.0
H311 H 0.77392 0.34368 0.32827 0.0
H312 H 0.85868 0.31756 0.2666 0.0
H313 H 0.81741 0.31245 0.24889 0.0
H314 H 0.8326 0.34609 0.25786 0.0
H315 H 0.78155 0.35767 0.28939 0.0
H316 H 0.75188 0.32785 0.29873 0.0
C317 C 0.82013 0.25428 0.40397 0.0
C318 C 0.87386 0.24058 0.36776 0.0
C319 C 0.71306 0.24741 0.24002 0.0
C320 C 0.70567 0.26978 0.22073 0.0
C321 C 0.72288 0.29518 0.2253 0.0
C322 C 0.7472 0.2983 0.24861 0.0
C323 C 0.7543 0.27582 0.26781 0.0
C324 C 0.73713 0.25096 0.26354 0.0
C325 C 0.74688 0.22966 0.28704 0.0
C326 C 0.77303 0.24581 0.30584 0.0
C327 C 0.77744 0.27275 0.29428 0.0
C328 C 0.71171 0.21957 0.30646 0.0
C329 C 0.766 0.20742 0.26961 0.0
C330 C 0.85635 0.35317 0.32397 0.0
C331 C 0.88118 0.35695 0.34696 0.0
C332 C 0.88667 0.33501 0.3678 0.0
C333 C 0.8679 0.30982 0.36566 0.0
C334 C 0.84336 0.30639 0.34238 0.0
C335 C 0.8379 0.32795 0.32213 0.0
C336 C 0.81091 0.32083 0.29882 0.0
C337 C 0.80136 0.29132 0.30808 0.0
C338 C 0.82036 0.28288 0.33363 0.0
C339 C 0.77786 0.33844 0.30371 0.0
C340 C 0.83058 0.32452 0.26622 0.0
H341 H 0.75644 0.1821 0.32714 0.0
H342 H 0.83846 0.19496 0.41254 0.0
H343 H 0.88048 0.22473 0.35144 0.0
H344 H 0.88727 0.2594 0.35691 0.0
H345 H 0.8866 0.23557 0.38972 0.0
H346 H 0.79102 0.24851 0.41042 0.0
H347 H 0.83632 0.24691 0.42311 0.0
H348 H 0.82209 0.27656 0.40263 0.0
H349 H 0.69983 0.22772 0.23728 0.0
H350 H 0.71776 0.31264 0.21057 0.0
H351 H 0.75952 0.31813 0.25075 0.0
H352 H 0.69307 0.23621 0.30946 0.0
H353 H 0.69676 0.20317 0.29509 0.0
H354 H 0.71685 0.21249 0.33024 0.0
H355 H 0.78358 0.2164 0.24958 0.0
H356 H 0.7845 0.19627 0.28395 0.0
H357 H 0.74585 0.19284 0.26058 0.0
H358 H 0.76497 0.1447 0.36283 0.0
C359 C 0.77438 0.18568 0.34525 0.0
C360 C 0.27488 0.18957 0.68877 0.0
C361 C 0.25077 0.18684 0.66496 0.0
C362 C 0.22673 0.20754 0.65968 0.0
C363 C 0.2506 0.23238 0.7015 0.0
C364 C 0.27391 0.2121 0.70691 0.0
C365 C 0.29596 0.21696 0.73439 0.0
H366 H 0.32721 0.28966 0.85865 0.0
C367 C 0.25554 0.2525 0.72513 0.0
C368 C 0.28169 0.24332 0.74478 0.0
H369 H 0.38309 0.22036 0.82817 0.0
H370 H 0.34673 0.21855 0.78414 0.0
H371 H 0.24643 0.27196 0.84033 0.0
H372 H 0.33592 0.31914 0.79325 0.0
H373 H 0.29671 0.33366 0.78103 0.0
H374 H 0.30608 0.33324 0.82141 0.0
H375 H 0.2618 0.30487 0.85128 0.0
H376 H 0.22888 0.30067 0.82257 0.0
C377 C 0.28649 0.19336 0.75875 0.0
C378 C 0.33666 0.22025 0.72312 0.0
C379 C 0.18783 0.33919 0.72123 0.0
C380 C 0.18658 0.36109 0.74066 0.0
C381 C 0.20559 0.35992 0.76794 0.0
C382 C 0.22625 0.33799 0.77526 0.0
C383 C 0.22796 0.31669 0.75528 0.0
C384 C 0.20853 0.31725 0.72902 0.0
C385 C 0.21252 0.29211 0.71132 0.0
C386 C 0.23908 0.27719 0.73047 0.0
C387 C 0.2479 0.29174 0.75618 0.0
C388 C 0.17483 0.27656 0.71192 0.0
C389 C 0.22913 0.30052 0.67847 0.0
C390 C 0.33209 0.27414 0.84255 0.0
C391 C 0.35801 0.25486 0.84768 0.0
C392 C 0.36273 0.23503 0.82574 0.0
C393 C 0.34177 0.23413 0.79984 0.0
C394 C 0.31595 0.25343 0.79534 0.0
C395 C 0.31205 0.27333 0.81617 0.0
C396 C 0.28568 0.29359 0.80628 0.0
C397 C 0.27345 0.28201 0.77662 0.0
C398 C 0.29081 0.25825 0.77059 0.0
C399 C 0.25403 0.29303 0.83139 0.0
C400 C 0.30685 0.32145 0.80033 0.0
H401 H 0.2078 0.24522 0.67241 0.0
H402 H 0.29418 0.1745 0.69342 0.0
H403 H 0.34014 0.22923 0.69905 0.0
H404 H 0.35251 0.2343 0.73687 0.0
H405 H 0.34926 0.20046 0.72342 0.0
H406 H 0.25674 0.18802 0.76042 0.0
H407 H 0.30054 0.17505 0.7524 0.0
H408 H 0.29323 0.19827 0.7823 0.0
H409 H 0.17351 0.33923 0.70017 0.0
H410 H 0.20431 0.37592 0.78395 0.0
H411 H 0.24008 0.33848 0.79629 0.0
H412 H 0.15712 0.2813 0.73233 0.0
H413 H 0.16032 0.28182 0.69094 0.0
H414 H 0.17677 0.25441 0.71417 0.0
H415 H 0.25251 0.3155 0.67962 0.0
H416 H 0.23985 0.28348 0.66617 0.0
H417 H 0.20874 0.30994 0.6642 0.0
H418 H 0.20724 0.20599 0.64208 0.0
C419 C 0.22671 0.23027 0.67761 0.0
C420 C 0.18818 0.68601 0.34578 0.0
C421 C 0.19101 0.66233 0.32947 0.0
C422 C 0.21599 0.66254 0.30361 0.0
C423 C 0.23403 0.70944 0.31012 0.0
C424 C 0.21006 0.70922 0.33582 0.0
C425 C 0.21086 0.73611 0.35049 0.0
H426 H 0.2853 0.8641 0.35328 0.0
C427 C 0.25207 0.73677 0.30536 0.0
C428 C 0.23883 0.75251 0.32904 0.0
H429 H 0.20123 0.82477 0.41586 0.0
H430 H 0.20216 0.78453 0.38655 0.0
H431 H 0.24973 0.84658 0.29417 0.0
H432 H 0.33529 0.81163 0.34284 0.0
H433 H 0.34831 0.81489 0.30296 0.0
H434 H 0.33898 0.84456 0.32341 0.0
H435 H 0.29606 0.85934 0.2876 0.0
H436 H 0.27746 0.83219 0.26601 0.0
C437 C 0.17263 0.74731 0.34932 0.0
C438 C 0.22407 0.73191 0.3835 0.0
C439 C 0.3404 0.75845 0.21207 0.0
C440 C 0.35921 0.78242 0.20029 0.0
C441 C 0.35646 0.8061 0.21651 0.0
C442 C 0.33519 0.80589 0.24439 0.0
C443 C 0.31613 0.78181 0.25588 0.0
C444 C 0.31876 0.75867 0.23964 0.0
C445 C 0.29522 0.73533 0.25445 0.0
C446 C 0.2779 0.74826 0.28219 0.0
C447 C 0.29056 0.77537 0.28312 0.0
C448 C 0.26681 0.72683 0.23129 0.0
C449 C 0.32027 0.71279 0.26423 0.0
C450 C 0.2674 0.84666 0.36071 0.0
C451 C 0.24354 0.84726 0.38702 0.0
C452 C 0.21989 0.82456 0.39567 0.0
C453 C 0.2206 0.80126 0.3787 0.0
C454 C 0.24492 0.80078 0.35257 0.0
C455 C 0.26734 0.82343 0.34368 0.0
C456 C 0.28961 0.81999 0.31417 0.0
C457 C 0.27808 0.79113 0.30754 0.0
C458 C 0.2521 0.77988 0.33022 0.0
C459 C 0.27798 0.84062 0.28912 0.0
C460 C 0.33028 0.82303 0.32094 0.0
H461 H 0.25561 0.68468 0.27389 0.0
H462 H 0.16947 0.68646 0.3659 0.0
H463 H 0.24631 0.7177 0.38371 0.0
H464 H 0.23569 0.75061 0.39262 0.0
H465 H 0.20163 0.72326 0.39983 0.0
H466 H 0.15968 0.74175 0.32782 0.0
H467 H 0.15443 0.73907 0.36926 0.0
H468 H 0.17336 0.76959 0.34867 0.0
H469 H 0.34192 0.74008 0.19971 0.0
H470 H 0.37088 0.82473 0.2076 0.0
H471 H 0.33428 0.8245 0.25584 0.0
H472 H 0.25811 0.74475 0.21783 0.0
H473 H 0.27821 0.71287 0.21453 0.0
H474 H 0.24142 0.71733 0.24266 0.0
H475 H 0.34669 0.72154 0.27139 0.0
H476 H 0.30888 0.70019 0.28459 0.0
H477 H 0.32623 0.69959 0.24487 0.0
H478 H 0.21837 0.64475 0.29035 0.0
C479 C 0.23744 0.68587 0.29389 0.0
C480 C 0.07818 0.55502 0.37752 0.0
C481 C 0.08642 0.56463 0.40591 0.0
C482 C 0.06378 0.55043 0.42764 0.0
C483 C 0.04313 0.53301 0.41137 0.0
N484 N 0.05153 0.53494 0.38055 0.0
Co485 Co 0.027 0.51438 0.34821 0.0
N486 N 0.99294 0.49406 0.38016 0.0
C487 C 0.9913 0.49686 0.41105 0.0
C488 C 0.96653 0.47911 0.42721 0.0
C489 C 0.95193 0.46364 0.40543 0.0
C490 C 0.96875 0.47292 0.37716 0.0
N491 N 0.0021 0.49409 0.31583 0.0
C492 C 0.97651 0.4733 0.31897 0.0
C493 C 0.96723 0.46438 0.29052 0.0
C494 C 0.98809 0.47983 0.26861 0.0
C495 C 0.00883 0.49722 0.28485 0.0
N496 N 0.06158 0.53421 0.31623 0.0
C497 C 0.06297 0.53141 0.2853 0.0
C498 C 0.089 0.54811 0.26919 0.0
C499 C 0.10506 0.56265 0.29103 0.0
C500 C 0.08785 0.5539 0.31938 0.0
N501 N 0.06154 0.48532 0.35226 0.0
C502 C 0.10751 0.44219 0.35722 0.0
C503 C 0.10089 0.45397 0.32845 0.0
C504 C 0.07771 0.47512 0.32649 0.0
C505 C 0.09124 0.45249 0.3836 0.0
C506 C 0.06892 0.47425 0.38064 0.0
N507 N 0.9924 0.5436 0.34407 0.0
C508 C 0.96677 0.57839 0.31251 0.0
C509 C 0.94667 0.58735 0.33795 0.0
C510 C 0.94985 0.57368 0.36661 0.0
C511 C 0.97291 0.5523 0.36917 0.0
C512 C 0.98848 0.5565 0.31593 0.0
H513 H 0.97454 0.54325 0.39175 0.0
H514 H 0.00209 0.55066 0.29535 0.0
H515 H 0.07288 0.48257 0.30381 0.0
H516 H 0.05765 0.48161 0.40156 0.0
C517 C 0.01509 0.51519 0.42426 0.0
C518 C 0.09595 0.566 0.34834 0.0
C519 C 0.96195 0.46033 0.34832 0.0
C520 C 0.03757 0.51441 0.27192 0.0
H521 H 0.10643 0.5805 0.41036 0.0
H522 H 0.06215 0.55283 0.45233 0.0
H523 H 0.96065 0.47709 0.45197 0.0
H524 H 0.93181 0.44698 0.40986 0.0
H525 H 0.94821 0.44784 0.2861 0.0
H526 H 0.98918 0.47781 0.24386 0.0
H527 H 0.0948 0.5501 0.24442 0.0
H528 H 0.12635 0.57845 0.28642 0.0
H529 H 0.1128 0.44638 0.30742 0.0
H530 H 0.09593 0.44393 0.40637 0.0
H531 H 0.9664 0.58833 0.28978 0.0
H532 H 0.93454 0.5792 0.38713 0.0
C533 C 0.07014 0.56815 0.73976 0.0
C534 C 0.07958 0.57877 0.76738 0.0
C535 C 0.05984 0.56389 0.79044 0.0
C536 C 0.03941 0.54524 0.77565 0.0
N537 N 0.04541 0.54688 0.74456 0.0
Co538 Co 0.01875 0.52542 0.71407 0.0
N539 N 0.9887 0.50423 0.74797 0.0
C540 C 0.99177 0.50589 0.77874 0.0
C541 C 0.96933 0.48756 0.79644 0.0
C542 C 0.9512 0.47298 0.77576 0.0
C543 C 0.96355 0.48343 0.74651 0.0
N544 N 0.99063 0.50514 0.68354 0.0
C545 C 0.96413 0.48506 0.68815 0.0
C546 C 0.95151 0.4768 0.66044 0.0
C547 C 0.97113 0.49194 0.63747 0.0
C548 C 0.99435 0.50861 0.6524 0.0
N549 N 0.05027 0.54548 0.68027 0.0
C550 C 0.05023 0.54154 0.64969 0.0
C551 C 0.07488 0.55836 0.63207 0.0
C552 C 0.09144 0.57415 0.65261 0.0
C553 C 0.07571 0.5661 0.68165 0.0
N554 N 0.05449 0.49691 0.71558 0.0
C555 C 0.10074 0.45375 0.7196 0.0
C556 C 0.0844 0.46011 0.69219 0.0
C557 C 0.06195 0.48186 0.69055 0.0
C558 C 0.09432 0.46971 0.74467 0.0
C559 C 0.07119 0.49088 0.74226 0.0
N560 N 0.9831 0.55391 0.71268 0.0
C561 C 0.95681 0.59098 0.68527 0.0
C562 C 0.93867 0.59843 0.71247 0.0
C563 C 0.94181 0.58224 0.73939 0.0
C564 C 0.96408 0.56045 0.73904 0.0
C565 C 0.97831 0.56865 0.68581 0.0
H566 H 0.96589 0.5495 0.76058 0.0
H567 H 0.99141 0.56407 0.6643 0.0
H568 H 0.05069 0.4859 0.66884 0.0
H569 H 0.06687 0.50176 0.76252 0.0
C570 C 0.01497 0.52556 0.79027 0.0
C571 C 0.08441 0.57956 0.70958 0.0
C572 C 0.95124 0.47244 0.71811 0.0
C573 C 0.02307 0.52496 0.63801 0.0
H574 H 0.09842 0.59576 0.77052 0.0
H575 H 0.06004 0.56655 0.81503 0.0
H576 H 0.96658 0.48504 0.8214 0.0
H577 H 0.93137 0.45635 0.78158 0.0
H578 H 0.93095 0.46096 0.6572 0.0
H579 H 0.96969 0.49021 0.6128 0.0
H580 H 0.07904 0.55987 0.60713 0.0
H581 H 0.11192 0.59036 0.64683 0.0
H582 H 0.0891 0.44847 0.67204 0.0
H583 H 0.10633 0.46542 0.76644 0.0
H584 H 0.9554 0.60269 0.6637 0.0
H585 H 0.9274 0.58638 0.76092 0.0
C586 C 0.27497 0.97694 0.57304 0.0
C587 C 0.30777 0.96758 0.58182 0.0
C588 C 0.33448 0.98205 0.56405 0.0
C589 C 0.31654 0.99929 0.54551 0.0
N590 N 0.28 0.99711 0.55072 0.0
Co591 Co 0.24355 0.01661 0.52695 0.0
N592 N 0.28284 0.03766 0.50056 0.0
C593 C 0.31909 0.03683 0.50311 0.0
C594 C 0.33938 0.05487 0.48327 0.0
C595 C 0.31458 0.06845 0.46747 0.0
C596 C 0.28049 0.05779 0.47862 0.0
N597 N 0.20708 0.03474 0.50183 0.0
C598 C 0.21196 0.05404 0.4785 0.0
C599 C 0.17914 0.06085 0.46713 0.0
C600 C 0.15256 0.0455 0.48413 0.0
C601 C 0.17057 0.0302 0.50475 0.0
N602 N 0.2043 0.99697 0.55473 0.0
C603 C 0.16817 0.99993 0.55422 0.0
C604 C 0.14787 0.98392 0.57622 0.0
C605 C 0.1725 0.96976 0.59161 0.0
C606 C 0.20652 0.97794 0.57795 0.0
N607 N 0.24419 0.04655 0.5557 0.0
C608 C 0.24649 0.09156 0.59266 0.0
C609 C 0.21486 0.08374 0.57862 0.0
C610 C 0.21411 0.0611 0.56078 0.0
C611 C 0.27669 0.07615 0.58868 0.0
C612 C 0.2751 0.05403 0.57 0.0
N613 N 0.24292 0.98669 0.49814 0.0
C614 C 0.21137 0.94845 0.47695 0.0
C615 C 0.24287 0.94209 0.45999 0.0
C616 C 0.2742 0.95899 0.46206 0.0
C617 C 0.27373 0.98076 0.48127 0.0
C618 C 0.21185 0.97079 0.49528 0.0
H619 H 0.29878 0.99236 0.4822 0.0
H620 H 0.18674 0.97452 0.50721 0.0
H621 H 0.18892 0.05595 0.55112 0.0
H622 H 0.29939 0.04355 0.56715 0.0
C623 C 0.33318 0.01833 0.52373 0.0
C624 C 0.23981 0.96577 0.58635 0.0
C625 C 0.24675 0.0677 0.46791 0.0
C626 C 0.15401 0.01472 0.52998 0.0
H627 H 0.31193 0.95179 0.59914 0.0
H628 H 0.36351 0.98016 0.56451 0.0
H629 H 0.36868 0.05788 0.48071 0.0
H630 H 0.32085 0.08451 0.44986 0.0
H631 H 0.17481 0.07602 0.44916 0.0
H632 H 0.12348 0.04638 0.48265 0.0
H633 H 0.11856 0.98181 0.57968 0.0
H634 H 0.16607 0.95446 0.61005 0.0
H635 H 0.19068 0.09496 0.58157 0.0
H636 H 0.30175 0.0816 0.59926 0.0
H637 H 0.18636 0.93604 0.47672 0.0
H638 H 0.2992 0.95562 0.44892 0.0
C639 C 0.46089 0.80707 0.06925 0.0
C640 C 0.45299 0.8326 0.07844 0.0
C641 C 0.47485 0.85069 0.06022 0.0
C642 C 0.49504 0.8353 0.04125 0.0
N643 N 0.487 0.80846 0.04575 0.0
Co644 Co 0.51357 0.77897 0.02613 0.0
N645 N 0.54649 0.80568 0.99993 0.0
C646 C 0.54528 0.83287 0.99891 0.0
C647 C 0.56867 0.84596 0.97673 0.0
C648 C 0.58557 0.82593 0.96233 0.0
C649 C 0.5718 0.80164 0.97695 0.0
N650 N 0.5413 0.74951 0.00782 0.0
C651 C 0.56887 0.7508 0.98564 0.0
C652 C 0.58155 0.72547 0.98079 0.0
C653 C 0.56066 0.70749 1.00004 0.0
C654 C 0.53676 0.72281 0.01573 0.0
N655 N 0.47921 0.75219 0.0507 0.0
C656 C 0.47848 0.72498 0.04986 0.0
C657 C 0.45132 0.71189 0.06875 0.0
C658 C 0.43396 0.73193 0.08283 0.0
C659 C 0.45194 0.75616 0.07194 0.0
N660 N 0.48008 0.77812 0.99203 0.0
C661 C 0.43427 0.77648 0.94221 0.0
C662 C 0.44647 0.75282 0.95582 0.0
C663 C 0.4693 0.7541 0.98025 0.0
C664 C 0.4451 0.80103 0.9544 0.0
C665 C 0.46764 0.80137 0.97924 0.0
N666 N 0.54713 0.77973 0.06047 0.0
C667 C 0.56827 0.75899 0.10724 0.0
C668 C 0.59151 0.78155 0.11156 0.0
C669 C 0.59237 0.80307 0.08933 0.0
C670 C 0.56988 0.80191 0.06449 0.0
C671 C 0.54727 0.75827 0.08159 0.0
H672 H 0.57142 0.81932 0.04898 0.0
H673 H 0.5311 0.74007 0.07974 0.0
H674 H 0.478 0.73533 0.98915 0.0
H675 H 0.47494 0.82067 0.98756 0.0
C676 C 0.52182 0.84545 0.01914 0.0
C677 C 0.44426 0.78209 0.08445 0.0
C678 C 0.58295 0.77527 0.9678 0.0
C679 C 0.50673 0.71244 0.03455 0.0
H680 H 0.43407 0.83776 0.09685 0.0
H681 H 0.47641 0.87246 0.06116 0.0
H682 H 0.57252 0.86748 0.97131 0.0
H683 H 0.60537 0.829 0.94294 0.0
H684 H 0.60308 0.72041 0.96446 0.0
H685 H 0.56179 0.68574 0.00149 0.0
H686 H 0.4459 0.69033 0.07293 0.0
H687 H 0.41159 0.72901 0.10015 0.0
H688 H 0.43831 0.73319 0.9479 0.0
H689 H 0.43677 0.82001 0.94461 0.0
H690 H 0.56557 0.74183 0.12374 0.0
H691 H 0.61036 0.82086 0.09078 0.0
C692 C 0.83468 0.98593 0.5847 0.0
C693 C 0.86737 0.97913 0.59631 0.0
C694 C 0.89408 0.99467 0.57969 0.0
C695 C 0.87625 0.01007 0.55903 0.0
N696 N 0.83975 0.00542 0.56158 0.0
Co697 Co 0.80353 0.02365 0.53625 0.0
N698 N 0.84301 0.04362 0.50899 0.0
C699 C 0.87915 0.04082 0.50989 0.0
C700 C 0.89963 0.05702 0.48817 0.0
C701 C 0.87512 0.07111 0.47255 0.0
C702 C 0.84098 0.06272 0.4858 0.0
N703 N 0.7673 0.04318 0.51225 0.0
C704 C 0.77248 0.06338 0.48996 0.0
C705 C 0.73974 0.07267 0.48094 0.0
C706 C 0.71291 0.05809 0.49846 0.0
C707 C 0.73072 0.04087 0.51713 0.0
N708 N 0.76405 0.00233 0.56215 0.0
C709 C 0.72784 0.00312 0.55932 0.0
C710 C 0.7074 0.98494 0.57886 0.0
C711 C 0.73204 0.9713 0.59478 0.0
C712 C 0.76621 0.98208 0.58399 0.0
N713 N 0.80357 0.05339 0.56537 0.0
C714 C 0.80281 0.09776 0.60336 0.0
C715 C 0.7716 0.08097 0.60121 0.0
C716 C 0.77244 0.0592 0.58197 0.0
C717 C 0.83458 0.0917 0.5869 0.0
C718 C 0.83453 0.06936 0.56859 0.0
N719 N 0.80353 0.99394 0.50717 0.0
C720 C 0.77184 0.96453 0.47346 0.0
C721 C 0.80243 0.94956 0.46916 0.0
C722 C 0.8338 0.95749 0.48353 0.0
C723 C 0.83394 0.97979 0.50191 0.0
C724 C 0.77284 0.98634 0.49265 0.0
H725 H 0.85895 0.98502 0.51181 0.0
H726 H 0.74829 0.99649 0.49569 0.0
H727 H 0.74744 0.04762 0.58065 0.0
H728 H 0.85989 0.06561 0.5571 0.0
C729 C 0.89306 0.02587 0.53413 0.0
C730 C 0.79983 0.97218 0.59498 0.0
C731 C 0.80771 0.07465 0.47691 0.0
C732 C 0.71393 0.0217 0.53868 0.0
H733 H 0.87154 0.96387 0.61423 0.0
H734 H 0.92312 0.99387 0.58145 0.0
H735 H 0.92896 0.05924 0.485 0.0
H736 H 0.88167 0.08646 0.45418 0.0
H737 H 0.73569 0.08848 0.46361 0.0
H738 H 0.68389 0.05989 0.49775 0.0
H739 H 0.67809 0.98187 0.58115 0.0
H740 H 0.72562 0.95512 0.61222 0.0
H741 H 0.74638 0.08505 0.61369 0.0
H742 H 0.85949 0.10408 0.58833 0.0
H743 H 0.74692 0.95899 0.46272 0.0
H744 H 0.85828 0.94663 0.4804 0.0
C745 C 0.47371 0.28981 0.07871 0.0
C746 C 0.46178 0.31535 0.08368 0.0
C747 C 0.48301 0.33308 0.06442 0.0
C748 C 0.50635 0.31743 0.0486 0.0
N749 N 0.50117 0.29074 0.05644 0.0
Co750 Co 0.52778 0.26087 0.03775 0.0
N751 N 0.56182 0.28723 0.01223 0.0
C752 C 0.56317 0.31446 0.01293 0.0
C753 C 0.59002 0.32721 0.99344 0.0
C754 C 0.60655 0.30693 0.97913 0.0
C755 C 0.58842 0.2829 0.99051 0.0
N756 N 0.55328 0.23098 0.01785 0.0
C757 C 0.57891 0.232 0.99399 0.0
C758 C 0.58633 0.20632 0.98503 0.0
C759 C 0.56471 0.1885 0.00382 0.0
C760 C 0.54512 0.20419 0.02289 0.0
N761 N 0.49503 0.23456 0.06466 0.0
C762 C 0.49596 0.20734 0.06602 0.0
C763 C 0.47263 0.19459 0.08849 0.0
C764 C 0.45603 0.21486 0.10268 0.0
C765 C 0.46991 0.23896 0.08767 0.0
N766 N 0.49317 0.26022 0.00427 0.0
C767 C 0.44698 0.25851 0.95447 0.0
C768 C 0.44782 0.23655 0.97591 0.0
C769 C 0.47116 0.23769 1.00011 0.0
C770 C 0.46936 0.2815 0.95896 0.0
C771 C 0.49141 0.28209 0.98398 0.0
N772 N 0.56232 0.26154 0.07112 0.0
C773 C 0.5973 0.2383 0.10851 0.0
C774 C 0.6089 0.26275 0.12047 0.0
C775 C 0.59721 0.28657 0.10676 0.0
C776 C 0.57402 0.2855 0.08256 0.0
C777 C 0.57443 0.23817 0.08391 0.0
H778 H 0.56576 0.30438 0.07358 0.0
H779 H 0.5666 0.21891 0.07584 0.0
H780 H 0.47095 0.21997 0.01502 0.0
H781 H 0.5071 0.30048 0.98607 0.0
C782 C 0.53596 0.32741 0.02907 0.0
C783 C 0.45895 0.26548 0.09646 0.0
C784 C 0.59569 0.25674 0.97836 0.0
C785 C 0.51883 0.19439 0.04563 0.0
H786 H 0.44043 0.32069 0.10001 0.0
H787 H 0.48232 0.35486 0.06289 0.0
H788 H 0.59586 0.34872 0.98916 0.0
H789 H 0.62859 0.30957 0.96149 0.0
H790 H 0.60485 0.20089 0.96645 0.0
H791 H 0.56296 0.1667 0.00324 0.0
H792 H 0.46854 0.17312 0.09415 0.0
H793 H 0.4363 0.21208 0.12214 0.0
H794 H 0.43054 0.21841 0.97427 0.0
H795 H 0.47059 0.29903 0.94302 0.0
H796 H 0.60523 0.21921 0.11834 0.0
H797 H 0.60601 0.30614 0.11449 0.0
C798 C 0.18668 0.39812 0.34468 0.0
C799 C 0.1719 0.37265 0.35652 0.0
H800 H 0.17771 0.43998 0.3355 0.0
C801 C 0.13652 0.37093 0.37084 0.0
H802 H 0.2141 0.40055 0.33426 0.0
C803 C 0.11618 0.39383 0.37238 0.0
C804 C 0.13051 0.41881 0.35917 0.0
H805 H 0.12387 0.35174 0.37986 0.0
H806 H 0.08865 0.39179 0.38266 0.0
C807 C 0.16605 0.42083 0.34564 0.0
C808 C 0.16339 0.63107 0.71337 0.0
C809 C 0.14682 0.65554 0.70764 0.0
H810 H 0.15644 0.58778 0.71832 0.0
C811 C 0.10991 0.65455 0.70096 0.0
H812 H 0.19185 0.63102 0.71812 0.0
C813 C 0.08991 0.62978 0.70083 0.0
C814 C 0.1064 0.60559 0.70737 0.0
H815 H 0.09615 0.67295 0.69681 0.0
H816 H 0.06133 0.62951 0.69635 0.0
C817 C 0.14333 0.60633 0.71329 0.0
C818 C 0.89295 0.64927 0.35474 0.0
C819 C 0.87781 0.65488 0.32623 0.0
H820 H 0.92713 0.62451 0.38065 0.0
C821 C 0.88573 0.63806 0.30186 0.0
H822 H 0.88734 0.66139 0.37429 0.0
C823 C 0.90706 0.61602 0.30599 0.0
C824 C 0.92265 0.61052 0.33428 0.0
H825 H 0.87568 0.64183 0.27923 0.0
H826 H 0.91097 0.60325 0.28676 0.0
C827 C 0.91535 0.6276 0.3586 0.0
C828 C 0.86612 0.42652 0.73268 0.0
C829 C 0.87985 0.40078 0.73019 0.0
H830 H 0.87817 0.46941 0.73059 0.0
C831 C 0.91688 0.39902 0.72128 0.0
H832 H 0.83765 0.42863 0.739 0.0
C833 C 0.93987 0.42242 0.71626 0.0
C834 C 0.9262 0.4479 0.71999 0.0
H835 H 0.92841 0.37955 0.71941 0.0
H836 H 0.96853 0.42062 0.71044 0.0
C837 C 0.88911 0.44985 0.72768 0.0
C838 C 0.25699 0.14064 0.43741 0.0
C839 C 0.25569 0.13802 0.40536 0.0
H840 H 0.25525 0.12015 0.48233 0.0
C841 C 0.24977 0.11208 0.39425 0.0
H842 H 0.26189 0.16027 0.44668 0.0
C843 C 0.24601 0.08927 0.41466 0.0
C844 C 0.2481 0.09199 0.44648 0.0
H845 H 0.24818 0.10941 0.36975 0.0
H846 H 0.24203 0.06946 0.40561 0.0
C847 C 0.25336 0.11778 0.45779 0.0
C848 C 0.35985 0.79156 0.88765 0.0
C849 C 0.36377 0.77137 0.86639 0.0
H850 H 0.37821 0.80862 0.9287 0.0
C851 C 0.39164 0.75355 0.86951 0.0
H852 H 0.3384 0.80546 0.88584 0.0
C853 C 0.41491 0.75564 0.89362 0.0
C854 C 0.4105 0.77533 0.91558 0.0
H855 H 0.39562 0.73808 0.85312 0.0
H856 H 0.43646 0.7418 0.89492 0.0
C857 C 0.38281 0.79342 0.91212 0.0
C858 C 0.7905 0.90494 0.40168 0.0
C859 C 0.80008 0.87967 0.41395 0.0
H860 H 0.78335 0.94668 0.40963 0.0
C861 C 0.81047 0.87785 0.44468 0.0
H862 H 0.78314 0.90749 0.37799 0.0
C863 C 0.81157 0.9006 0.46243 0.0
C864 C 0.80157 0.92559 0.45015 0.0
H865 H 0.81728 0.85878 0.45534 0.0
H866 H 0.8196 0.89856 0.486 0.0
C867 C 0.79084 0.92754 0.41969 0.0
C868 C 0.67269 0.2433 0.92032 0.0
C869 C 0.66084 0.25537 0.89308 0.0
H870 H 0.66145 0.23478 0.96906 0.0
C871 C 0.62752 0.2676 0.89381 0.0
H872 H 0.69851 0.23396 0.92015 0.0
C873 C 0.60612 0.2676 0.92146 0.0
C874 C 0.61803 0.25571 0.94883 0.0
H875 H 0.61808 0.27709 0.87298 0.0
H876 H 0.58038 0.27706 0.9216 0.0
C877 C 0.65158 0.24371 0.94811 0.0
C878 C 0.2363 0.92218 0.66062 0.0
C879 C 0.24058 0.89632 0.64954 0.0
H880 H 0.23244 0.96446 0.64907 0.0
C881 C 0.24273 0.89338 0.61742 0.0
H882 H 0.23413 0.92507 0.68522 0.0
C883 C 0.24167 0.91592 0.59689 0.0
C884 C 0.23817 0.94168 0.60813 0.0
H885 H 0.24642 0.87381 0.60815 0.0
H886 H 0.24428 0.91336 0.57223 0.0
C887 C 0.2351 0.94467 0.64007 0.0
C888 C 0.6455 0.75921 0.17965 0.0
C889 C 0.65641 0.7839 0.19189 0.0
H890 H 0.61903 0.73906 0.14437 0.0
C891 C 0.64587 0.8079 0.17722 0.0
H892 H 0.65208 0.74012 0.19037 0.0
C893 C 0.62475 0.8072 0.15149 0.0
C894 C 0.61432 0.78249 0.139 0.0
H895 H 0.65409 0.82743 0.18533 0.0
H896 H 0.61638 0.82615 0.1417 0.0
C897 C 0.62548 0.75856 0.15337 0.0
C898 C 0.79304 0.14168 0.6719 0.0
C899 C 0.80166 0.16779 0.65818 0.0
H900 H 0.78615 0.09918 0.66519 0.0
C901 C 0.8105 0.17035 0.62609 0.0
H902 H 0.78687 0.13859 0.69654 0.0
C903 C 0.81118 0.14757 0.60842 0.0
C904 C 0.8022 0.12175 0.62223 0.0
H905 H 0.81646 0.18998 0.61436 0.0
H906 H 0.81816 0.15016 0.58382 0.0
C907 C 0.79288 0.11898 0.65404 0.0
C908 C 0.42141 0.28308 0.17568 0.0
C909 C 0.38585 0.27144 0.17639 0.0
H910 H 0.4727 0.28983 0.14971 0.0
C911 C 0.37404 0.25824 0.15064 0.0
H912 H 0.43091 0.29334 0.19539 0.0
C913 C 0.39755 0.25674 0.12441 0.0
C914 C 0.43344 0.26783 0.12391 0.0
H915 H 0.3466 0.24926 0.1508 0.0
H916 H 0.38791 0.24666 0.10462 0.0
C917 C 0.44514 0.28111 0.14968 0.0
C918 C 0.87858 0.65508 0.68866 0.0
C919 C 0.8769 0.66983 0.71541 0.0
H920 H 0.89822 0.62051 0.66698 0.0
C921 C 0.896 0.66134 0.7408 0.0
H922 H 0.86387 0.66116 0.66883 0.0
C923 C 0.91625 0.63849 0.73962 0.0
C924 C 0.91743 0.62316 0.71317 0.0
H925 H 0.89558 0.67261 0.76155 0.0
H926 H 0.9313 0.63305 0.75944 0.0
C927 C 0.8984 0.63186 0.68762 0.0
C928 C 0.93862 0.38494 0.35489 0.0
C929 C 0.90158 0.38355 0.34869 0.0
H930 H 0.9867 0.41056 0.35949 0.0
C931 C 0.88443 0.40781 0.34313 0.0
H932 H 0.95281 0.36672 0.3589 0.0
C933 C 0.90397 0.43275 0.34322 0.0
C934 C 0.94095 0.43392 0.34891 0.0
H935 H 0.85584 0.40754 0.33877 0.0
H936 H 0.8903 0.45115 0.33869 0.0
C937 C 0.95811 0.40993 0.35502 0.0
C938 C 0.13206 0.38228 0.71919 0.0
C939 C 0.16554 0.38508 0.73301 0.0
H940 H 0.0854 0.40188 0.70399 0.0
C941 C 0.17838 0.41105 0.74044 0.0
H942 H 0.12107 0.36263 0.71342 0.0
C943 C 0.15766 0.43336 0.73551 0.0
C944 C 0.12385 0.43039 0.72252 0.0
H945 H 0.20446 0.41422 0.75028 0.0
H946 H 0.16803 0.45298 0.74199 0.0
C947 C 0.11153 0.40474 0.71385 0.0
C948 C 0.18138 0.61195 0.33749 0.0
C949 C 0.16725 0.63766 0.33828 0.0
H950 H 0.16964 0.56903 0.34044 0.0
C951 C 0.12981 0.63947 0.34528 0.0
H952 H 0.21016 0.60989 0.33261 0.0
C953 C 0.10678 0.61607 0.34982 0.0
C954 C 0.12086 0.59056 0.34759 0.0
H955 H 0.11806 0.65895 0.34583 0.0
H956 H 0.07782 0.61788 0.35393 0.0
C957 C 0.15837 0.58861 0.34214 0.0
C958 C 0.79478 0.92825 0.66911 0.0
C959 C 0.78979 0.90218 0.65813 0.0
H960 H 0.80218 0.97086 0.6575 0.0
C961 C 0.78993 0.89933 0.62602 0.0
H962 H 0.79526 0.93112 0.69366 0.0
C963 C 0.79399 0.92208 0.60547 0.0
C964 C 0.79827 0.948 0.61665 0.0
H965 H 0.78579 0.8796 0.61683 0.0
H966 H 0.79315 0.91952 0.58088 0.0
C967 C 0.79899 0.95095 0.64853 0.0
C968 C 0.68314 0.24664 0.17481 0.0
C969 C 0.6799 0.26695 0.196 0.0
H970 H 0.66412 0.22978 0.13389 0.0
C971 C 0.65248 0.28517 0.19293 0.0
H972 H 0.70425 0.23245 0.17657 0.0
C973 C 0.62906 0.2834 0.16889 0.0
C974 C 0.63284 0.26362 0.14698 0.0
H975 H 0.64905 0.30078 0.20925 0.0
H976 H 0.60791 0.29758 0.1676 0.0
C977 C 0.66002 0.24509 0.15043 0.0
C978 C 0.24125 0.16401 0.61506 0.0
C979 C 0.25015 0.16236 0.64621 0.0
H980 H 0.23279 0.14284 0.57393 0.0
C981 C 0.25812 0.13699 0.65935 0.0
H982 H 0.23573 0.18313 0.60376 0.0
C983 C 0.25748 0.11409 0.64184 0.0
C984 C 0.24802 0.11587 0.61102 0.0
H985 H 0.26427 0.13457 0.68337 0.0
H986 H 0.26362 0.09485 0.65257 0.0
C987 C 0.23981 0.14097 0.59781 0.0
C988 C 0.41434 0.77039 0.16929 0.0
C989 C 0.38115 0.78279 0.17081 0.0
H990 H 0.46073 0.76103 0.14053 0.0
C991 C 0.3686 0.79503 0.14395 0.0
H992 H 0.42431 0.76076 0.18983 0.0
C993 C 0.38892 0.79468 0.11577 0.0
C994 C 0.42244 0.78266 0.11429 0.0
H995 H 0.34284 0.80448 0.14473 0.0
H996 H 0.37854 0.8038 0.09513 0.0
C997 C 0.435 0.77051 0.14126 0.0
C998 C 0.81 0.1173 0.402 0.0
C999 C 0.80669 0.14342 0.41267 0.0
H1000 H 0.8132 0.07506 0.41419 0.0
C1001 C 0.80573 0.14681 0.44469 0.0
H1002 H 0.81127 0.11403 0.37749 0.0
C1003 C 0.80693 0.1245 0.46555 0.0
C1004 C 0.8094 0.09849 0.45474 0.0
H1005 H 0.80281 0.16658 0.45367 0.0
H1006 H 0.80518 0.12744 0.49015 0.0
C1007 C 0.81135 0.09504 0.42287 0.0
C1008 C 0.38935 0.28032 0.88856 0.0
C1009 C 0.38036 0.25569 0.87534 0.0
H1010 H 0.41526 0.30047 0.92423 0.0
C1011 C 0.39308 0.23191 0.88882 0.0
H1012 H 0.38088 0.29924 0.87878 0.0
C1013 C 0.41468 0.23281 0.91421 0.0
C1014 C 0.42345 0.25743 0.92754 0.0
H1015 H 0.38633 0.21241 0.87993 0.0
H1016 H 0.42481 0.2141 0.923 0.0
C1017 C 0.41001 0.28112 0.91449 0.0
C1018 C 0.27504 0.88094 0.41869 0.0
C1019 C 0.24335 0.87152 0.4054 0.0
H1020 H 0.29953 0.90967 0.44724 0.0
C1021 C 0.21159 0.8854 0.40971 0.0
H1022 H 0.29981 0.87038 0.41581 0.0
C1023 C 0.21157 0.90851 0.42685 0.0
C1024 C 0.24314 0.9179 0.44076 0.0
H1025 H 0.18691 0.8786 0.39936 0.0
H1026 H 0.18679 0.9191 0.42886 0.0
C1027 C 0.27486 0.90365 0.43647 0.0
C1028 C 0.66713 0.78336 0.91283 0.0
C1029 C 0.65513 0.77022 0.88711 0.0
H1030 H 0.65374 0.79458 0.95907 0.0
C1031 C 0.61969 0.75832 0.8881 0.0
H1032 H 0.69453 0.79245 0.91249 0.0
C1033 C 0.59625 0.75999 0.91435 0.0
C1034 C 0.60815 0.77323 0.94009 0.0
H1035 H 0.61008 0.74801 0.86846 0.0
H1036 H 0.56878 0.75105 0.91457 0.0
C1037 C 0.64393 0.78457 0.9393 0.0
loop_
_geom_bond_atom_site_label_1
_geom_bond_atom_site_label_2
_geom_bond_distance
_geom_bond_site_symmetry_2
_ccdc_geom_bond_type
C0 C1 1.391 . S
C0 C4 1.391 . S
C0 H42 0.948 . S
C1 C0 1.391 . S
C1 C2 1.391 . S
C2 C1 1.391 . S
C2 H58 0.947 . S
C2 C59 1.392 . S
C3 C4 1.391 . S
C3 C7 1.397 . S
C3 C59 1.419 . S
C4 C0 1.391 . S
C4 C3 1.391 . S
C4 C5 1.399 . S
C5 C4 1.399 . S
C5 C8 1.396 . S
C5 C17 1.453 . S
C5 C18 1.684 . S
H6 C30 0.948 . S
C7 C3 1.397 . S
C7 C8 1.394 . S
C7 C26 1.723 . S
C8 C5 1.396 . S
C8 C7 1.394 . S
C8 C38 1.723 . S
H9 C32 0.947 . S
H10 C33 0.948 . S
H11 C39 0.982 . S
H12 C40 0.979 . S
H13 C40 0.980 . S
H14 C40 0.983 . S
H15 C39 0.979 . S
H16 C39 0.977 . S
C17 C5 1.453 . S
C17 H46 0.982 . S
C17 H47 0.979 . S
C17 H48 0.977 . S
C18 C5 1.684 . S
C18 H43 0.979 . S
C18 H44 0.980 . S
C18 H45 0.983 . S
C19 C20 1.391 . S
C19 C24 1.391 . S
C19 H49 0.948 . S
C20 C19 1.391 . S
C20 C21 1.391 . S
C21 C20 1.391 . S
C21 C22 1.392 . S
C21 H50 0.947 . S
C22 C21 1.392 . S
C22 C23 1.419 . S
C22 H51 0.948 . S
C23 C22 1.419 . S
C23 C24 1.391 . S
C23 C27 1.397 . S
C24 C19 1.391 . S
C24 C23 1.391 . S
C24 C25 1.399 . S
C25 C24 1.399 . S
C25 C26 1.396 . S
C25 C28 1.453 . S
C25 C29 1.684 . S
C26 C7 1.723 . S
C26 C25 1.396 . S
C26 C27 1.394 . S
C27 C23 1.397 . S
C27 C26 1.394 . S
C27 C37 1.723 . S
C28 C25 1.453 . S
C28 H52 0.982 . S
C28 H53 0.979 . S
C28 H54 0.977 . S
C29 C25 1.684 . S
C29 H55 0.979 . S
C29 H56 0.980 . S
C29 H57 0.983 . S
C30 H6 0.948 . S
C30 C31 1.391 . S
C30 C35 1.391 . S
C31 C30 1.391 . S
C31 C32 1.391 . S
C32 H9 0.947 . S
C32 C31 1.391 . S
C32 C33 1.392 . S
C33 H10 0.948 . S
C33 C32 1.392 . S
C33 C34 1.419 . S
C34 C33 1.419 . S
C34 C35 1.391 . S
C34 C38 1.397 . S
C35 C30 1.391 . S
C35 C34 1.391 . S
C35 C36 1.399 . S
C36 C35 1.399 . S
C36 C37 1.396 . S
C36 C39 1.453 . S
C36 C40 1.684 . S
C37 C27 1.723 . S
C37 C36 1.396 . S
C37 C38 1.394 . S
C38 C8 1.723 . S
C38 C34 1.397 . S
C38 C37 1.394 . S
C39 H11 0.982 . S
C39 H15 0.979 . S
C39 H16 0.977 . S
C39 C36 1.453 . S
C40 H12 0.979 . S
C40 H13 0.980 . S
C40 H14 0.983 . S
C40 C36 1.684 . S
H41 C59 0.948 . S
H42 C0 0.948 . S
H43 C18 0.979 . S
H44 C18 0.980 . S
H45 C18 0.983 . S
H46 C17 0.982 . S
H47 C17 0.979 . S
H48 C17 0.977 . S
H49 C19 0.948 . S
H50 C21 0.947 . S
H51 C22 0.948 . S
H52 C28 0.982 . S
H53 C28 0.979 . S
H54 C28 0.977 . S
H55 C29 0.979 . S
H56 C29 0.980 . S
H57 C29 0.983 . S
H58 C2 0.947 . S
C59 C2 1.392 . S
C59 C3 1.419 . S
C59 H41 0.948 . S
C60 C61 1.391 . S
C60 C64 1.391 . S
C60 H102 0.948 . S
C61 C60 1.391 . S
C61 C62 1.391 . S
C62 C61 1.391 . S
C62 H118 0.947 . S
C62 C119 1.392 . S
C63 C64 1.391 . S
C63 C67 1.397 . S
C63 C119 1.419 . S
C64 C60 1.391 . S
C64 C63 1.391 . S
C64 C65 1.399 . S
C65 C64 1.399 . S
C65 C68 1.396 . S
C65 C77 1.453 . S
C65 C78 1.684 . S
H66 C90 0.948 . S
C67 C63 1.397 . S
C67 C68 1.394 . S
C67 C86 1.723 . S
C68 C65 1.396 . S
C68 C67 1.394 . S
C68 C98 1.723 . S
H69 C92 0.947 . S
H70 C93 0.948 . S
H71 C99 0.982 . S
H72 C100 0.979 . S
H73 C100 0.980 . S
H74 C100 0.983 . S
H75 C99 0.979 . S
H76 C99 0.977 . S
C77 C65 1.453 . S
C77 H106 0.982 . S
C77 H107 0.979 . S
C77 H108 0.977 . S
C78 C65 1.684 . S
C78 H103 0.979 . S
C78 H104 0.980 . S
C78 H105 0.983 . S
C79 C80 1.391 . S
C79 C84 1.391 . S
C79 H109 0.948 . S
C80 C79 1.391 . S
C80 C81 1.391 . S
C81 C80 1.391 . S
C81 C82 1.392 . S
C81 H110 0.947 . S
C82 C81 1.392 . S
C82 C83 1.419 . S
C82 H111 0.948 . S
C83 C82 1.419 . S
C83 C84 1.391 . S
C83 C87 1.397 . S
C84 C79 1.391 . S
C84 C83 1.391 . S
C84 C85 1.399 . S
C85 C84 1.399 . S
C85 C86 1.396 . S
C85 C88 1.453 . S
C85 C89 1.684 . S
C86 C67 1.723 . S
C86 C85 1.396 . S
C86 C87 1.394 . S
C87 C83 1.397 . S
C87 C86 1.394 . S
C87 C97 1.723 . S
C88 C85 1.453 . S
C88 H112 0.982 . S
C88 H113 0.979 . S
C88 H114 0.977 . S
C89 C85 1.684 . S
C89 H115 0.979 . S
C89 H116 0.980 . S
C89 H117 0.983 . S
C90 H66 0.948 . S
C90 C91 1.391 . S
C90 C95 1.391 . S
C91 C90 1.391 . S
C91 C92 1.391 . S
C92 H69 0.947 . S
C92 C91 1.391 . S
C92 C93 1.392 . S
C93 H70 0.948 . S
C93 C92 1.392 . S
C93 C94 1.419 . S
C94 C93 1.419 . S
C94 C95 1.391 . S
C94 C98 1.397 . S
C95 C90 1.391 . S
C95 C94 1.391 . S
C95 C96 1.399 . S
C96 C95 1.399 . S
C96 C97 1.396 . S
C96 C99 1.453 . S
C96 C100 1.684 . S
C97 C87 1.723 . S
C97 C96 1.396 . S
C97 C98 1.394 . S
C98 C68 1.723 . S
C98 C94 1.397 . S
C98 C97 1.394 . S
C99 H71 0.982 . S
C99 H75 0.979 . S
C99 H76 0.977 . S
C99 C96 1.453 . S
C100 H72 0.979 . S
C100 H73 0.980 . S
C100 H74 0.983 . S
C100 C96 1.684 . S
H101 C119 0.948 . S
H102 C60 0.948 . S
H103 C78 0.979 . S
H104 C78 0.980 . S
H105 C78 0.983 . S
H106 C77 0.982 . S
H107 C77 0.979 . S
H108 C77 0.977 . S
H109 C79 0.948 . S
H110 C81 0.947 . S
H111 C82 0.948 . S
H112 C88 0.982 . S
H113 C88 0.979 . S
H114 C88 0.977 . S
H115 C89 0.979 . S
H116 C89 0.980 . S
H117 C89 0.983 . S
H118 C62 0.947 . S
C119 C62 1.392 . S
C119 C63 1.419 . S
C119 H101 0.948 . S
C120 C121 1.391 . S
C120 C124 1.391 . S
C120 H162 0.948 . S
C121 C120 1.391 . S
C121 C122 1.391 . S
C122 C121 1.391 . S
C122 H178 0.947 . S
C122 C179 1.392 . S
C123 C124 1.391 . S
C123 C127 1.397 . S
C123 C179 1.419 . S
C124 C120 1.391 . S
C124 C123 1.391 . S
C124 C125 1.399 . S
C125 C124 1.399 . S
C125 C128 1.396 . S
C125 C137 1.453 . S
C125 C138 1.684 . S
H126 C150 0.948 . S
C127 C123 1.397 . S
C127 C128 1.394 . S
C127 C146 1.723 . S
C128 C125 1.396 . S
C128 C127 1.394 . S
C128 C158 1.723 . S
H129 C152 0.947 . S
H130 C153 0.948 . S
H131 C159 0.982 . S
H132 C160 0.979 . S
H133 C160 0.980 . S
H134 C160 0.983 . S
H135 C159 0.979 . S
H136 C159 0.977 . S
C137 C125 1.453 . S
C137 H166 0.982 . S
C137 H167 0.979 . S
C137 H168 0.977 . S
C138 C125 1.684 . S
C138 H163 0.979 . S
C138 H164 0.980 . S
C138 H165 0.983 . S
C139 C140 1.391 . S
C139 C144 1.391 . S
C139 H169 0.948 . S
C140 C139 1.391 . S
C140 C141 1.391 . S
C141 C140 1.391 . S
C141 C142 1.392 . S
C141 H170 0.947 . S
C142 C141 1.392 . S
C142 C143 1.419 . S
C142 H171 0.948 . S
C143 C142 1.419 . S
C143 C144 1.391 . S
C143 C147 1.397 . S
C144 C139 1.391 . S
C144 C143 1.391 . S
C144 C145 1.399 . S
C145 C144 1.399 . S
C145 C146 1.396 . S
C145 C148 1.453 . S
C145 C149 1.684 . S
C146 C127 1.723 . S
C146 C145 1.396 . S
C146 C147 1.394 . S
C147 C143 1.397 . S
C147 C146 1.394 . S
C147 C157 1.723 . S
C148 C145 1.453 . S
C148 H172 0.982 . S
C148 H173 0.979 . S
C148 H174 0.977 . S
C149 C145 1.684 . S
C149 H175 0.979 . S
C149 H176 0.980 . S
C149 H177 0.983 . S
C150 H126 0.948 . S
C150 C151 1.391 . S
C150 C155 1.391 . S
C151 C150 1.391 . S
C151 C152 1.391 . S
C152 H129 0.947 . S
C152 C151 1.391 . S
C152 C153 1.392 . S
C153 H130 0.948 . S
C153 C152 1.392 . S
C153 C154 1.419 . S
C154 C153 1.419 . S
C154 C155 1.391 . S
C154 C158 1.397 . S
C155 C150 1.391 . S
C155 C154 1.391 . S
C155 C156 1.399 . S
C156 C155 1.399 . S
C156 C157 1.396 . S
C156 C159 1.453 . S
C156 C160 1.684 . S
C157 C147 1.723 . S
C157 C156 1.396 . S
C157 C158 1.394 . S
C158 C128 1.723 . S
C158 C154 1.397 . S
C158 C157 1.394 . S
C159 H131 0.982 . S
C159 H135 0.979 . S
C159 H136 0.977 . S
C159 C156 1.453 . S
C160 H132 0.979 . S
C160 H133 0.980 . S
C160 H134 0.983 . S
C160 C156 1.684 . S
H161 C179 0.948 . S
H162 C120 0.948 . S
H163 C138 0.979 . S
H164 C138 0.980 . S
H165 C138 0.983 . S
H166 C137 0.982 . S
H167 C137 0.979 . S
H168 C137 0.977 . S
H169 C139 0.948 . S
H170 C141 0.947 . S
H171 C142 0.948 . S
H172 C148 0.982 . S
H173 C148 0.979 . S
H174 C148 0.977 . S
H175 C149 0.979 . S
H176 C149 0.980 . S
H177 C149 0.983 . S
H178 C122 0.947 . S
C179 C122 1.392 . S
C179 C123 1.419 . S
C179 H161 0.948 . S
C180 C181 1.391 . S
C180 C184 1.391 . S
C180 H222 0.948 . S
C181 C180 1.391 . S
C181 C182 1.391 . S
C182 C181 1.391 . S
C182 H238 0.947 . S
C182 C239 1.392 . S
C183 C184 1.391 . S
C183 C187 1.397 . S
C183 C239 1.419 . S
C184 C180 1.391 . S
C184 C183 1.391 . S
C184 C185 1.399 . S
C185 C184 1.399 . S
C185 C188 1.396 . S
C185 C197 1.453 . S
C185 C198 1.684 . S
H186 C210 0.948 . S
C187 C183 1.397 . S
C187 C188 1.394 . S
C187 C206 1.723 . S
C188 C185 1.396 . S
C188 C187 1.394 . S
C188 C218 1.723 . S
H189 C212 0.947 . S
H190 C213 0.948 . S
H191 C219 0.982 . S
H192 C220 0.979 . S
H193 C220 0.980 . S
H194 C220 0.983 . S
H195 C219 0.979 . S
H196 C219 0.977 . S
C197 C185 1.453 . S
C197 H226 0.982 . S
C197 H227 0.979 . S
C197 H228 0.977 . S
C198 C185 1.684 . S
C198 H223 0.979 . S
C198 H224 0.980 . S
C198 H225 0.983 . S
C199 C200 1.391 . S
C199 C204 1.391 . S
C199 H229 0.948 . S
C200 C199 1.391 . S
C200 C201 1.391 . S
C201 C200 1.391 . S
C201 C202 1.392 . S
C201 H230 0.947 . S
C202 C201 1.392 . S
C202 C203 1.419 . S
C202 H231 0.948 . S
C203 C202 1.419 . S
C203 C204 1.391 . S
C203 C207 1.397 . S
C204 C199 1.391 . S
C204 C203 1.391 . S
C204 C205 1.399 . S
C205 C204 1.399 . S
C205 C206 1.396 . S
C205 C208 1.453 . S
C205 C209 1.684 . S
C206 C187 1.723 . S
C206 C205 1.396 . S
C206 C207 1.394 . S
C207 C203 1.397 . S
C207 C206 1.394 . S
C207 C217 1.723 . S
C208 C205 1.453 . S
C208 H232 0.982 . S
C208 H233 0.979 . S
C208 H234 0.977 . S
C209 C205 1.684 . S
C209 H235 0.979 . S
C209 H236 0.980 . S
C209 H237 0.983 . S
C210 H186 0.948 . S
C210 C211 1.391 . S
C210 C215 1.391 . S
C211 C210 1.391 . S
C211 C212 1.391 . S
C212 H189 0.947 . S
C212 C211 1.391 . S
C212 C213 1.392 . S
C213 H190 0.948 . S
C213 C212 1.392 . S
C213 C214 1.419 . S
C214 C213 1.419 . S
C214 C215 1.391 . S
C214 C218 1.397 . S
C215 C210 1.391 . S
C215 C214 1.391 . S
C215 C216 1.399 . S
C216 C215 1.399 . S
C216 C217 1.396 . S
C216 C219 1.453 . S
C216 C220 1.684 . S
C217 C207 1.723 . S
C217 C216 1.396 . S
C217 C218 1.394 . S
C218 C188 1.723 . S
C218 C214 1.397 . S
C218 C217 1.394 . S
C219 H191 0.982 . S
C219 H195 0.979 . S
C219 H196 0.977 . S
C219 C216 1.453 . S
C220 H192 0.979 . S
C220 H193 0.980 . S
C220 H194 0.983 . S
C220 C216 1.684 . S
H221 C239 0.948 . S
H222 C180 0.948 . S
H223 C198 0.979 . S
H224 C198 0.980 . S
H225 C198 0.983 . S
H226 C197 0.982 . S
H227 C197 0.979 . S
H228 C197 0.977 . S
H229 C199 0.948 . S
H230 C201 0.947 . S
H231 C202 0.948 . S
H232 C208 0.982 . S
H233 C208 0.979 . S
H234 C208 0.977 . S
H235 C209 0.979 . S
H236 C209 0.980 . S
H237 C209 0.983 . S
H238 C182 0.947 . S
C239 C182 1.392 . S
C239 C183 1.419 . S
C239 H221 0.948 . S
C240 C241 1.391 . S
C240 C244 1.391 . S
C240 H282 0.948 . S
C241 C240 1.391 . S
C241 C242 1.391 . S
C242 C241 1.391 . S
C242 H298 0.947 . S
C242 C299 1.392 . S
C243 C244 1.391 . S
C243 C247 1.397 . S
C243 C299 1.419 . S
C244 C240 1.391 . S
C244 C243 1.391 . S
C244 C245 1.399 . S
C245 C244 1.399 . S
C245 C248 1.396 . S
C245 C257 1.453 . S
C245 C258 1.684 . S
H246 C270 0.948 . S
C247 C243 1.397 . S
C247 C248 1.394 . S
C247 C266 1.723 . S
C248 C245 1.396 . S
C248 C247 1.394 . S
C248 C278 1.723 . S
H249 C272 0.947 . S
H250 C273 0.948 . S
H251 C279 0.982 . S
H252 C280 0.979 . S
H253 C280 0.980 . S
H254 C280 0.983 . S
H255 C279 0.979 . S
H256 C279 0.977 . S
C257 C245 1.453 . S
C257 H286 0.982 . S
C257 H287 0.979 . S
C257 H288 0.977 . S
C258 C245 1.684 . S
C258 H283 0.979 . S
C258 H284 0.980 . S
C258 H285 0.983 . S
C259 C260 1.391 . S
C259 C264 1.391 . S
C259 H289 0.948 . S
C260 C259 1.391 . S
C260 C261 1.391 . S
C261 C260 1.391 . S
C261 C262 1.392 . S
C261 H290 0.947 . S
C262 C261 1.392 . S
C262 C263 1.419 . S
C262 H291 0.948 . S
C263 C262 1.419 . S
C263 C264 1.391 . S
C263 C267 1.397 . S
C264 C259 1.391 . S
C264 C263 1.391 . S
C264 C265 1.399 . S
C265 C264 1.399 . S
C265 C266 1.396 . S
C265 C268 1.453 . S
C265 C269 1.684 . S
C266 C247 1.723 . S
C266 C265 1.396 . S
C266 C267 1.394 . S
C267 C263 1.397 . S
C267 C266 1.394 . S
C267 C277 1.723 . S
C268 C265 1.453 . S
C268 H292 0.982 . S
C268 H293 0.979 . S
C268 H294 0.977 . S
C269 C265 1.684 . S
C269 H295 0.979 . S
C269 H296 0.980 . S
C269 H297 0.983 . S
C270 H246 0.948 . S
C270 C271 1.391 . S
C270 C275 1.391 . S
C271 C270 1.391 . S
C271 C272 1.391 . S
C272 H249 0.947 . S
C272 C271 1.391 . S
C272 C273 1.392 . S
C273 H250 0.948 . S
C273 C272 1.392 . S
C273 C274 1.419 . S
C274 C273 1.419 . S
C274 C275 1.391 . S
C274 C278 1.397 . S
C275 C270 1.391 . S
C275 C274 1.391 . S
C275 C276 1.399 . S
C276 C275 1.399 . S
C276 C277 1.396 . S
C276 C279 1.453 . S
C276 C280 1.684 . S
C277 C267 1.723 . S
C277 C276 1.396 . S
C277 C278 1.394 . S
C278 C248 1.723 . S
C278 C274 1.397 . S
C278 C277 1.394 . S
C279 H251 0.982 . S
C279 H255 0.979 . S
C279 H256 0.977 . S
C279 C276 1.453 . S
C280 H252 0.979 . S
C280 H253 0.980 . S
C280 H254 0.983 . S
C280 C276 1.684 . S
H281 C299 0.948 . S
H282 C240 0.948 . S
H283 C258 0.979 . S
H284 C258 0.980 . S
H285 C258 0.983 . S
H286 C257 0.982 . S
H287 C257 0.979 . S
H288 C257 0.977 . S
H289 C259 0.948 . S
H290 C261 0.947 . S
H291 C262 0.948 . S
H292 C268 0.982 . S
H293 C268 0.979 . S
H294 C268 0.977 . S
H295 C269 0.979 . S
H296 C269 0.980 . S
H297 C269 0.983 . S
H298 C242 0.947 . S
C299 C242 1.392 . S
C299 C243 1.419 . S
C299 H281 0.948 . S
C300 C301 1.391 . S
C300 C304 1.391 . S
C300 H342 0.948 . S
C301 C300 1.391 . S
C301 C302 1.391 . S
C302 C301 1.391 . S
C302 H358 0.947 . S
C302 C359 1.392 . S
C303 C304 1.391 . S
C303 C307 1.397 . S
C303 C359 1.419 . S
C304 C300 1.391 . S
C304 C303 1.391 . S
C304 C305 1.399 . S
C305 C304 1.399 . S
C305 C308 1.396 . S
C305 C317 1.453 . S
C305 C318 1.684 . S
H306 C330 0.948 . S
C307 C303 1.397 . S
C307 C308 1.394 . S
C307 C326 1.723 . S
C308 C305 1.396 . S
C308 C307 1.394 . S
C308 C338 1.723 . S
H309 C332 0.947 . S
H310 C333 0.948 . S
H311 C339 0.982 . S
H312 C340 0.979 . S
H313 C340 0.980 . S
H314 C340 0.983 . S
H315 C339 0.979 . S
H316 C339 0.977 . S
C317 C305 1.453 . S
C317 H346 0.982 . S
C317 H347 0.979 . S
C317 H348 0.977 . S
C318 C305 1.684 . S
C318 H343 0.979 . S
C318 H344 0.980 . S
C318 H345 0.983 . S
C319 C320 1.391 . S
C319 C324 1.391 . S
C319 H349 0.948 . S
C320 C319 1.391 . S
C320 C321 1.391 . S
C321 C320 1.391 . S
C321 C322 1.392 . S
C321 H350 0.947 . S
C322 C321 1.392 . S
C322 C323 1.419 . S
C322 H351 0.948 . S
C323 C322 1.419 . S
C323 C324 1.391 . S
C323 C327 1.397 . S
C324 C319 1.391 . S
C324 C323 1.391 . S
C324 C325 1.399 . S
C325 C324 1.399 . S
C325 C326 1.396 . S
C325 C328 1.453 . S
C325 C329 1.684 . S
C326 C307 1.723 . S
C326 C325 1.396 . S
C326 C327 1.394 . S
C327 C323 1.397 . S
C327 C326 1.394 . S
C327 C337 1.723 . S
C328 C325 1.453 . S
C328 H352 0.982 . S
C328 H353 0.979 . S
C328 H354 0.977 . S
C329 C325 1.684 . S
C329 H355 0.979 . S
C329 H356 0.980 . S
C329 H357 0.983 . S
C330 H306 0.948 . S
C330 C331 1.391 . S
C330 C335 1.391 . S
C331 C330 1.391 . S
C331 C332 1.391 . S
C332 H309 0.947 . S
C332 C331 1.391 . S
C332 C333 1.392 . S
C333 H310 0.948 . S
C333 C332 1.392 . S
C333 C334 1.419 . S
C334 C333 1.419 . S
C334 C335 1.391 . S
C334 C338 1.397 . S
C335 C330 1.391 . S
C335 C334 1.391 . S
C335 C336 1.399 . S
C336 C335 1.399 . S
C336 C337 1.396 . S
C336 C339 1.453 . S
C336 C340 1.684 . S
C337 C327 1.723 . S
C337 C336 1.396 . S
C337 C338 1.394 . S
C338 C308 1.723 . S
C338 C334 1.397 . S
C338 C337 1.394 . S
C339 H311 0.982 . S
C339 H315 0.979 . S
C339 H316 0.977 . S
C339 C336 1.453 . S
C340 H312 0.979 . S
C340 H313 0.980 . S
C340 H314 0.983 . S
C340 C336 1.684 . S
H341 C359 0.948 . S
H342 C300 0.948 . S
H343 C318 0.979 . S
H344 C318 0.980 . S
H345 C318 0.983 . S
H346 C317 0.982 . S
H347 C317 0.979 . S
H348 C317 0.977 . S
H349 C319 0.948 . S
H350 C321 0.947 . S
H351 C322 0.948 . S
H352 C328 0.982 . S
H353 C328 0.979 . S
H354 C328 0.977 . S
H355 C329 0.979 . S
H356 C329 0.980 . S
H357 C329 0.983 . S
H358 C302 0.947 . S
C359 C302 1.392 . S
C359 C303 1.419 . S
C359 H341 0.948 . S
C360 C361 1.391 . S
C360 C364 1.391 . S
C360 H402 0.948 . S
C361 C360 1.391 . S
C361 C362 1.391 . S
C362 C361 1.391 . S
C362 H418 0.947 . S
C362 C419 1.392 . S
C363 C364 1.391 . S
C363 C367 1.397 . S
C363 C419 1.419 . S
C364 C360 1.391 . S
C364 C363 1.391 . S
C364 C365 1.399 . S
C365 C364 1.399 . S
C365 C368 1.396 . S
C365 C377 1.453 . S
C365 C378 1.684 . S
H366 C390 0.948 . S
C367 C363 1.397 . S
C367 C368 1.394 . S
C367 C386 1.723 . S
C368 C365 1.396 . S
C368 C367 1.394 . S
C368 C398 1.723 . S
H369 C392 0.947 . S
H370 C393 0.948 . S
H371 C399 0.982 . S
H372 C400 0.979 . S
H373 C400 0.980 . S
H374 C400 0.983 . S
H375 C399 0.979 . S
H376 C399 0.977 . S
C377 C365 1.453 . S
C377 H406 0.982 . S
C377 H407 0.979 . S
C377 H408 0.977 . S
C378 C365 1.684 . S
C378 H403 0.979 . S
C378 H404 0.980 . S
C378 H405 0.983 . S
C379 C380 1.391 . S
C379 C384 1.391 . S
C379 H409 0.948 . S
C380 C379 1.391 . S
C380 C381 1.391 . S
C381 C380 1.391 . S
C381 C382 1.392 . S
C381 H410 0.947 . S
C382 C381 1.392 . S
C382 C383 1.419 . S
C382 H411 0.948 . S
C383 C382 1.419 . S
C383 C384 1.391 . S
C383 C387 1.397 . S
C384 C379 1.391 . S
C384 C383 1.391 . S
C384 C385 1.399 . S
C385 C384 1.399 . S
C385 C386 1.396 . S
C385 C388 1.453 . S
C385 C389 1.684 . S
C386 C367 1.723 . S
C386 C385 1.396 . S
C386 C387 1.394 . S
C387 C383 1.397 . S
C387 C386 1.394 . S
C387 C397 1.723 . S
C388 C385 1.453 . S
C388 H412 0.982 . S
C388 H413 0.979 . S
C388 H414 0.977 . S
C389 C385 1.684 . S
C389 H415 0.979 . S
C389 H416 0.980 . S
C389 H417 0.983 . S
C390 H366 0.948 . S
C390 C391 1.391 . S
C390 C395 1.391 . S
C391 C390 1.391 . S
C391 C392 1.391 . S
C392 H369 0.947 . S
C392 C391 1.391 . S
C392 C393 1.392 . S
C393 H370 0.948 . S
C393 C392 1.392 . S
C393 C394 1.419 . S
C394 C393 1.419 . S
C394 C395 1.391 . S
C394 C398 1.397 . S
C395 C390 1.391 . S
C395 C394 1.391 . S
C395 C396 1.399 . S
C396 C395 1.399 . S
C396 C397 1.396 . S
C396 C399 1.453 . S
C396 C400 1.684 . S
C397 C387 1.723 . S
C397 C396 1.396 . S
C397 C398 1.394 . S
C398 C368 1.723 . S
C398 C394 1.397 . S
C398 C397 1.394 . S
C399 H371 0.982 . S
C399 H375 0.979 . S
C399 H376 0.977 . S
C399 C396 1.453 . S
C400 H372 0.979 . S
C400 H373 0.980 . S
C400 H374 0.983 . S
C400 C396 1.684 . S
H401 C419 0.948 . S
H402 C360 0.948 . S
H403 C378 0.979 . S
H404 C378 0.980 . S
H405 C378 0.983 . S
H406 C377 0.982 . S
H407 C377 0.979 . S
H408 C377 0.977 . S
H409 C379 0.948 . S
H410 C381 0.947 . S
H411 C382 0.948 . S
H412 C388 0.982 . S
H413 C388 0.979 . S
H414 C388 0.977 . S
H415 C389 0.979 . S
H416 C389 0.980 . S
H417 C389 0.983 . S
H418 C362 0.947 . S
C419 C362 1.392 . S
C419 C363 1.419 . S
C419 H401 0.948 . S
C420 C421 1.391 . S
C420 C424 1.391 . S
C420 H462 0.948 . S
C421 C420 1.391 . S
C421 C422 1.391 . S
C422 C421 1.391 . S
C422 H478 0.947 . S
C422 C479 1.392 . S
C423 C424 1.391 . S
C423 C427 1.397 . S
C423 C479 1.419 . S
C424 C420 1.391 . S
C424 C423 1.391 . S
C424 C425 1.399 . S
C425 C424 1.399 . S
C425 C428 1.396 . S
C425 C437 1.453 . S
C425 C438 1.684 . S
H426 C450 0.948 . S
C427 C423 1.397 . S
C427 C428 1.394 . S
C427 C446 1.723 . S
C428 C425 1.396 . S
C428 C427 1.394 . S
C428 C458 1.723 . S
H429 C452 0.947 . S
H430 C453 0.948 . S
H431 C459 0.982 . S
H432 C460 0.979 . S
H433 C460 0.980 . S
H434 C460 0.983 . S
H435 C459 0.979 . S
H436 C459 0.977 . S
C437 C425 1.453 . S
C437 H466 0.982 . S
C437 H467 0.979 . S
C437 H468 0.977 . S
C438 C425 1.684 . S
C438 H463 0.979 . S
C438 H464 0.980 . S
C438 H465 0.983 . S
C439 C440 1.391 . S
C439 C444 1.391 . S
C439 H469 0.948 . S
C440 C439 1.391 . S
C440 C441 1.391 . S
C441 C440 1.391 . S
C441 C442 1.392 . S
C441 H470 0.947 . S
C442 C441 1.392 . S
C442 C443 1.419 . S
C442 H471 0.948 . S
C443 C442 1.419 . S
C443 C444 1.391 . S
C443 C447 1.397 . S
C444 C439 1.391 . S
C444 C443 1.391 . S
C444 C445 1.399 . S
C445 C444 1.399 . S
C445 C446 1.396 . S
C445 C448 1.453 . S
C445 C449 1.684 . S
C446 C427 1.723 . S
C446 C445 1.396 . S
C446 C447 1.394 . S
C447 C443 1.397 . S
C447 C446 1.394 . S
C447 C457 1.723 . S
C448 C445 1.453 . S
C448 H472 0.982 . S
C448 H473 0.979 . S
C448 H474 0.977 . S
C449 C445 1.684 . S
C449 H475 0.979 . S
C449 H476 0.980 . S
C449 H477 0.983 . S
C450 H426 0.948 . S
C450 C451 1.391 . S
C450 C455 1.391 . S
C451 C450 1.391 . S
C451 C452 1.391 . S
C452 H429 0.947 . S
C452 C451 1.391 . S
C452 C453 1.392 . S
C453 H430 0.948 . S
C453 C452 1.392 . S
C453 C454 1.419 . S
C454 C453 1.419 . S
C454 C455 1.391 . S
C454 C458 1.397 . S
C455 C450 1.391 . S
C455 C454 1.391 . S
C455 C456 1.399 . S
C456 C455 1.399 . S
C456 C457 1.396 . S
C456 C459 1.453 . S
C456 C460 1.684 . S
C457 C447 1.723 . S
C457 C456 1.396 . S
C457 C458 1.394 . S
C458 C428 1.723 . S
C458 C454 1.397 . S
C458 C457 1.394 . S
C459 H431 0.982 . S
C459 H435 0.979 . S
C459 H436 0.977 . S
C459 C456 1.453 . S
C460 H432 0.979 . S
C460 H433 0.980 . S
C460 H434 0.983 . S
C460 C456 1.684 . S
H461 C479 0.948 . S
H462 C420 0.948 . S
H463 C438 0.979 . S
H464 C438 0.980 . S
H465 C438 0.983 . S
H466 C437 0.982 . S
H467 C437 0.979 . S
H468 C437 0.977 . S
H469 C439 0.948 . S
H470 C441 0.947 . S
H471 C442 0.948 . S
H472 C448 0.982 . S
H473 C448 0.979 . S
H474 C448 0.977 . S
H475 C449 0.979 . S
H476 C449 0.980 . S
H477 C449 0.983 . S
H478 C422 0.947 . S
C479 C422 1.392 . S
C479 C423 1.419 . S
C479 H461 0.948 . S
C480 C481 1.443 . S
C480 N484 1.376 . S
C480 C518 1.389 . S
C481 C480 1.443 . S
C481 C482 1.340 . S
C481 H521 0.951 . S
C482 C481 1.340 . S
C482 C483 1.439 . S
C482 H522 0.950 . S
C483 C482 1.439 . S
C483 N484 1.374 . S
C483 C517 1.395 . S
N484 C480 1.376 . S
N484 C483 1.374 . S
N484 Co485 2.008 . S
Co485 N484 2.008 . S
Co485 N486 1.995 1_455 S
Co485 N491 2.008 . S
Co485 N496 1.995 . S
Co485 N501 2.282 . S
Co485 N507 2.282 1_455 S
N486 Co485 1.995 1_655 S
N486 C487 1.376 . S
N486 C490 1.383 . S
C487 N486 1.376 . S
C487 C488 1.446 . S
C487 C517 1.391 1_655 S
C488 C487 1.446 . S
C488 C489 1.339 . S
C488 H523 0.949 . S
C489 C488 1.339 . S
C489 C490 1.439 . S
C489 H524 0.950 . S
C490 N486 1.383 . S
C490 C489 1.439 . S
C490 C519 1.392 . S
N491 Co485 2.008 . S
N491 C492 1.376 1_455 S
N491 C495 1.374 . S
C492 N491 1.376 1_655 S
C492 C493 1.443 . S
C492 C519 1.389 . S
C493 C492 1.443 . S
C493 C494 1.340 . S
C493 H525 0.951 . S
C494 C493 1.340 . S
C494 C495 1.439 1_655 S
C494 H526 0.950 . S
C495 N491 1.374 . S
C495 C494 1.439 1_455 S
C495 C520 1.395 . S
N496 Co485 1.995 . S
N496 C497 1.376 . S
N496 C500 1.383 . S
C497 N496 1.376 . S
C497 C498 1.446 . S
C497 C520 1.391 . S
C498 C497 1.446 . S
C498 C499 1.339 . S
C498 H527 0.949 . S
C499 C498 1.339 . S
C499 C500 1.439 . S
C499 H528 0.950 . S
C500 N496 1.383 . S
C500 C499 1.439 . S
C500 C518 1.392 . S
N501 Co485 2.282 . S
N501 C504 1.332 . S
N501 C506 1.332 . S
C502 C503 1.386 . S
C502 C505 1.388 . S
C503 C502 1.386 . S
C503 C504 1.382 . S
C503 H529 0.950 . S
C504 N501 1.332 . S
C504 C503 1.382 . S
C504 H515 0.952 . S
C505 C502 1.388 . S
C505 C506 1.382 . S
C505 H530 0.950 . S
C506 N501 1.332 . S
C506 C505 1.382 . S
C506 H516 0.948 . S
N507 Co485 2.282 1_655 S
N507 C511 1.332 . S
N507 C512 1.332 . S
C508 C509 1.388 . S
C508 C512 1.382 . S
C508 H531 0.950 . S
C509 C508 1.388 . S
C509 C510 1.386 . S
C510 C509 1.386 . S
C510 C511 1.382 . S
C510 H532 0.950 . S
C511 N507 1.332 . S
C511 C510 1.382 . S
C511 H513 0.952 . S
C512 N507 1.332 . S
C512 C508 1.382 . S
C512 H514 0.948 . S
H513 C511 0.952 . S
H514 C512 0.948 . S
H515 C504 0.952 . S
H516 C506 0.948 . S
C517 C483 1.395 . S
C517 C487 1.391 1_455 S
C518 C480 1.389 . S
C518 C500 1.392 . S
C519 C490 1.392 . S
C519 C492 1.389 . S
C520 C495 1.395 . S
C520 C497 1.391 . S
H521 C481 0.951 . S
H522 C482 0.950 . S
H523 C488 0.949 . S
H524 C489 0.950 . S
H525 C493 0.951 . S
H526 C494 0.950 . S
H527 C498 0.949 . S
H528 C499 0.950 . S
H529 C503 0.950 . S
H530 C505 0.950 . S
H531 C508 0.950 . S
H532 C510 0.950 . S
C533 C534 1.443 . S
C533 N537 1.376 . S
C533 C571 1.389 . S
C534 C533 1.443 . S
C534 C535 1.340 . S
C534 H574 0.951 . S
C535 C534 1.340 . S
C535 C536 1.439 . S
C535 H575 0.950 . S
C536 C535 1.439 . S
C536 N537 1.374 . S
C536 C570 1.395 . S
N537 C533 1.376 . S
N537 C536 1.374 . S
N537 Co538 2.008 . S
Co538 N537 2.008 . S
Co538 N539 1.995 1_455 S
Co538 N544 2.008 1_455 S
Co538 N549 1.995 . S
Co538 N554 2.282 . S
Co538 N560 2.282 1_455 S
N539 Co538 1.995 1_655 S
N539 C540 1.376 . S
N539 C543 1.383 . S
C540 N539 1.376 . S
C540 C541 1.446 . S
C540 C570 1.391 1_655 S
C541 C540 1.446 . S
C541 C542 1.339 . S
C541 H576 0.949 . S
C542 C541 1.339 . S
C542 C543 1.439 . S
C542 H577 0.950 . S
C543 N539 1.383 . S
C543 C542 1.439 . S
C543 C572 1.392 . S
N544 Co538 2.008 1_655 S
N544 C545 1.376 . S
N544 C548 1.374 1_655 S
C545 N544 1.376 . S
C545 C546 1.443 . S
C545 C572 1.389 . S
C546 C545 1.443 . S
C546 C547 1.340 . S
C546 H578 0.951 . S
C547 C546 1.340 . S
C547 C548 1.439 1_655 S
C547 H579 0.950 . S
C548 N544 1.374 1_455 S
C548 C547 1.439 1_455 S
C548 C573 1.395 . S
N549 Co538 1.995 . S
N549 C550 1.376 . S
N549 C553 1.383 . S
C550 N549 1.376 . S
C550 C551 1.446 . S
C550 C573 1.391 . S
C551 C550 1.446 . S
C551 C552 1.339 . S
C551 H580 0.949 . S
C552 C551 1.339 . S
C552 C553 1.439 . S
C552 H581 0.950 . S
C553 N549 1.383 . S
C553 C552 1.439 . S
C553 C571 1.392 . S
N554 Co538 2.282 . S
N554 C557 1.332 . S
N554 C559 1.332 . S
C555 C556 1.386 . S
C555 C558 1.388 . S
C556 C555 1.386 . S
C556 C557 1.382 . S
C556 H582 0.950 . S
C557 N554 1.332 . S
C557 C556 1.382 . S
C557 H568 0.952 . S
C558 C555 1.388 . S
C558 C559 1.382 . S
C558 H583 0.950 . S
C559 N554 1.332 . S
C559 C558 1.382 . S
C559 H569 0.948 . S
N560 Co538 2.282 1_655 S
N560 C564 1.332 . S
N560 C565 1.332 . S
C561 C562 1.388 . S
C561 C565 1.382 . S
C561 H584 0.950 . S
C562 C561 1.388 . S
C562 C563 1.386 . S
C563 C562 1.386 . S
C563 C564 1.382 . S
C563 H585 0.950 . S
C564 N560 1.332 . S
C564 C563 1.382 . S
C564 H566 0.952 . S
C565 N560 1.332 . S
C565 C561 1.382 . S
C565 H567 0.948 . S
H566 C564 0.952 . S
H567 C565 0.948 . S
H568 C557 0.952 . S
H569 C559 0.948 . S
C570 C536 1.395 . S
C570 C540 1.391 1_455 S
C571 C533 1.389 . S
C571 C553 1.392 . S
C572 C543 1.392 . S
C572 C545 1.389 . S
C573 C548 1.395 . S
C573 C550 1.391 . S
H574 C534 0.951 . S
H575 C535 0.950 . S
H576 C541 0.949 . S
H577 C542 0.950 . S
H578 C546 0.951 . S
H579 C547 0.950 . S
H580 C551 0.949 . S
H581 C552 0.950 . S
H582 C556 0.950 . S
H583 C558 0.950 . S
H584 C561 0.950 . S
H585 C563 0.950 . S
C586 C587 1.443 . S
C586 N590 1.376 . S
C586 C624 1.389 . S
C587 C586 1.443 . S
C587 C588 1.340 . S
C587 H627 0.951 . S
C588 C587 1.340 . S
C588 C589 1.439 . S
C588 H628 0.950 . S
C589 C588 1.439 . S
C589 N590 1.374 . S
C589 C623 1.395 1_565 S
N590 C586 1.376 . S
N590 C589 1.374 . S
N590 Co591 2.008 1_565 S
Co591 N590 2.008 1_545 S
Co591 N592 1.995 . S
Co591 N597 2.008 . S
Co591 N602 1.995 1_545 S
Co591 N607 2.282 . S
Co591 N613 2.282 1_545 S
N592 Co591 1.995 . S
N592 C593 1.376 . S
N592 C596 1.383 . S
C593 N592 1.376 . S
C593 C594 1.446 . S
C593 C623 1.391 . S
C594 C593 1.446 . S
C594 C595 1.339 . S
C594 H629 0.949 . S
C595 C594 1.339 . S
C595 C596 1.439 . S
C595 H630 0.950 . S
C596 N592 1.383 . S
C596 C595 1.439 . S
C596 C625 1.392 . S
N597 Co591 2.008 . S
N597 C598 1.376 . S
N597 C601 1.374 . S
C598 N597 1.376 . S
C598 C599 1.443 . S
C598 C625 1.389 . S
C599 C598 1.443 . S
C599 C600 1.340 . S
C599 H631 0.951 . S
C600 C599 1.340 . S
C600 C601 1.439 . S
C600 H632 0.950 . S
C601 N597 1.374 . S
C601 C600 1.439 . S
C601 C626 1.395 . S
N602 Co591 1.995 1_565 S
N602 C603 1.376 . S
N602 C606 1.383 . S
C603 N602 1.376 . S
C603 C604 1.446 . S
C603 C626 1.391 1_565 S
C604 C603 1.446 . S
C604 C605 1.339 . S
C604 H633 0.949 . S
C605 C604 1.339 . S
C605 C606 1.439 . S
C605 H634 0.950 . S
C606 N602 1.383 . S
C606 C605 1.439 . S
C606 C624 1.392 . S
N607 Co591 2.282 . S
N607 C610 1.332 . S
N607 C612 1.332 . S
C608 C609 1.386 . S
C608 C611 1.388 . S
C609 C608 1.386 . S
C609 C610 1.382 . S
C609 H635 0.950 . S
C610 N607 1.332 . S
C610 C609 1.382 . S
C610 H621 0.952 . S
C611 C608 1.388 . S
C611 C612 1.382 . S
C611 H636 0.950 . S
C612 N607 1.332 . S
C612 C611 1.382 . S
C612 H622 0.948 . S
N613 Co591 2.282 1_565 S
N613 C617 1.332 . S
N613 C618 1.332 . S
C614 C615 1.388 . S
C614 C618 1.382 . S
C614 H637 0.950 . S
C615 C614 1.388 . S
C615 C616 1.386 . S
C616 C615 1.386 . S
C616 C617 1.382 . S
C616 H638 0.950 . S
C617 N613 1.332 . S
C617 C616 1.382 . S
C617 H619 0.952 . S
C618 N613 1.332 . S
C618 C614 1.382 . S
C618 H620 0.948 . S
H619 C617 0.952 . S
H620 C618 0.948 . S
H621 C610 0.952 . S
H622 C612 0.948 . S
C623 C589 1.395 1_545 S
C623 C593 1.391 . S
C624 C586 1.389 . S
C624 C606 1.392 . S
C625 C596 1.392 . S
C625 C598 1.389 . S
C626 C601 1.395 . S
C626 C603 1.391 1_545 S
H627 C587 0.951 . S
H628 C588 0.950 . S
H629 C594 0.949 . S
H630 C595 0.950 . S
H631 C599 0.951 . S
H632 C600 0.950 . S
H633 C604 0.949 . S
H634 C605 0.950 . S
H635 C609 0.950 . S
H636 C611 0.950 . S
H637 C614 0.950 . S
H638 C616 0.950 . S
C639 C640 1.443 . S
C639 N643 1.376 . S
C639 C677 1.389 . S
C640 C639 1.443 . S
C640 C641 1.340 . S
C640 H680 0.951 . S
C641 C640 1.340 . S
C641 C642 1.439 . S
C641 H681 0.950 . S
C642 C641 1.439 . S
C642 N643 1.374 . S
C642 C676 1.395 . S
N643 C639 1.376 . S
N643 C642 1.374 . S
N643 Co644 2.008 . S
Co644 N643 2.008 . S
Co644 N645 1.988 1_554 S
Co644 N650 2.008 1_554 S
Co644 N655 1.995 . S
Co644 N660 2.282 1_554 S
Co644 N666 2.282 . S
N645 Co644 1.988 1_556 S
N645 C646 1.374 1_556 S
N645 C649 1.396 . S
C646 N645 1.374 1_554 S
C646 C647 1.446 1_554 S
C646 C676 1.391 . S
C647 C646 1.446 1_556 S
C647 C648 1.339 . S
C647 H682 0.949 . S
C648 C647 1.339 . S
C648 C649 1.439 . S
C648 H683 0.950 . S
C649 N645 1.396 . S
C649 C648 1.439 . S
C649 C678 1.392 . S
N650 Co644 2.008 1_556 S
N650 C651 1.376 . S
N650 C654 1.374 . S
C651 N650 1.376 . S
C651 C652 1.443 . S
C651 C678 1.389 . S
C652 C651 1.443 . S
C652 C653 1.340 . S
C652 H684 0.951 . S
C653 C652 1.340 . S
C653 C654 1.450 . S
C653 H685 0.950 . S
C654 N650 1.374 . S
C654 C653 1.450 . S
C654 C679 1.386 1_556 S
N655 Co644 1.995 . S
N655 C656 1.376 . S
N655 C659 1.383 . S
C656 N655 1.376 . S
C656 C657 1.446 . S
C656 C679 1.391 . S
C657 C656 1.446 . S
C657 C658 1.339 . S
C657 H686 0.949 . S
C658 C657 1.339 . S
C658 C659 1.439 . S
C658 H687 0.950 . S
C659 N655 1.383 . S
C659 C658 1.439 . S
C659 C677 1.392 . S
N660 Co644 2.282 1_556 S
N660 C663 1.332 . S
N660 C665 1.332 . S
C661 C662 1.386 . S
C661 C664 1.388 . S
C662 C661 1.386 . S
C662 C663 1.382 . S
C662 H688 0.950 . S
C663 N660 1.332 . S
C663 C662 1.382 . S
C663 H674 0.952 . S
C664 C661 1.388 . S
C664 C665 1.382 . S
C664 H689 0.950 . S
C665 N660 1.332 . S
C665 C664 1.382 . S
C665 H675 0.948 . S
N666 Co644 2.282 . S
N666 C670 1.332 . S
N666 C671 1.332 . S
C667 C668 1.388 . S
C667 C671 1.382 . S
C667 H690 0.950 . S
C668 C667 1.388 . S
C668 C669 1.386 . S
C669 C668 1.386 . S
C669 C670 1.382 . S
C669 H691 0.950 . S
C670 N666 1.332 . S
C670 C669 1.382 . S
C670 H672 0.952 . S
C671 N666 1.332 . S
C671 C667 1.382 . S
C671 H673 0.948 . S
H672 C670 0.952 . S
H673 C671 0.948 . S
H674 C663 0.952 . S
H675 C665 0.948 . S
C676 C642 1.395 . S
C676 C646 1.391 . S
C677 C639 1.389 . S
C677 C659 1.392 . S
C678 C649 1.392 . S
C678 C651 1.389 . S
C679 C654 1.386 1_554 S
C679 C656 1.391 . S
H680 C640 0.951 . S
H681 C641 0.950 . S
H682 C647 0.949 . S
H683 C648 0.950 . S
H684 C652 0.951 . S
H685 C653 0.950 . S
H686 C657 0.949 . S
H687 C658 0.950 . S
H688 C662 0.950 . S
H689 C664 0.950 . S
H690 C667 0.950 . S
H691 C669 0.950 . S
C692 C693 1.443 . S
C692 N696 1.376 1_565 S
C692 C730 1.389 . S
C693 C692 1.443 . S
C693 C694 1.340 . S
C693 H733 0.951 . S
C694 C693 1.340 . S
C694 C695 1.439 1_565 S
C694 H734 0.950 . S
C695 C694 1.439 1_545 S
C695 N696 1.374 . S
C695 C729 1.395 . S
N696 C692 1.376 1_545 S
N696 C695 1.374 . S
N696 Co697 2.008 . S
Co697 N696 2.008 . S
Co697 N698 1.995 . S
Co697 N703 2.008 . S
Co697 N708 1.995 . S
Co697 N713 2.282 . S
Co697 N719 2.282 1_545 S
N698 Co697 1.995 . S
N698 C699 1.376 . S
N698 C702 1.383 . S
C699 N698 1.376 . S
C699 C700 1.446 . S
C699 C729 1.391 . S
C700 C699 1.446 . S
C700 C701 1.339 . S
C700 H735 0.949 . S
C701 C700 1.339 . S
C701 C702 1.439 . S
C701 H736 0.950 . S
C702 N698 1.383 . S
C702 C701 1.439 . S
C702 C731 1.392 . S
N703 Co697 2.008 . S
N703 C704 1.376 . S
N703 C707 1.374 . S
C704 N703 1.376 . S
C704 C705 1.443 . S
C704 C731 1.389 . S
C705 C704 1.443 . S
C705 C706 1.340 . S
C705 H737 0.951 . S
C706 C705 1.340 . S
C706 C707 1.439 . S
C706 H738 0.950 . S
C707 N703 1.374 . S
C707 C706 1.439 . S
C707 C732 1.395 . S
N708 Co697 1.995 . S
N708 C709 1.376 . S
N708 C712 1.383 1_545 S
C709 N708 1.376 . S
C709 C710 1.446 1_545 S
C709 C732 1.391 . S
C710 C709 1.446 1_565 S
C710 C711 1.339 . S
C710 H739 0.949 . S
C711 C710 1.339 . S
C711 C712 1.439 . S
C711 H740 0.950 . S
C712 N708 1.383 1_565 S
C712 C711 1.439 . S
C712 C730 1.392 . S
N713 Co697 2.282 . S
N713 C716 1.332 . S
N713 C718 1.332 . S
C714 C715 1.386 . S
C714 C717 1.388 . S
C715 C714 1.386 . S
C715 C716 1.382 . S
C715 H741 0.950 . S
C716 N713 1.332 . S
C716 C715 1.382 . S
C716 H727 0.952 . S
C717 C714 1.388 . S
C717 C718 1.382 . S
C717 H742 0.950 . S
C718 N713 1.332 . S
C718 C717 1.382 . S
C718 H728 0.948 . S
N719 Co697 2.282 1_565 S
N719 C723 1.332 . S
N719 C724 1.332 . S
C720 C721 1.388 . S
C720 C724 1.382 . S
C720 H743 0.950 . S
C721 C720 1.388 . S
C721 C722 1.386 . S
C722 C721 1.386 . S
C722 C723 1.382 . S
C722 H744 0.950 . S
C723 N719 1.332 . S
C723 C722 1.382 . S
C723 H725 0.952 . S
C724 N719 1.332 . S
C724 C720 1.382 . S
C724 H726 0.948 . S
H725 C723 0.952 . S
H726 C724 0.948 . S
H727 C716 0.952 . S
H728 C718 0.948 . S
C729 C695 1.395 . S
C729 C699 1.391 . S
C730 C692 1.389 . S
C730 C712 1.392 . S
C731 C702 1.392 . S
C731 C704 1.389 . S
C732 C707 1.395 . S
C732 C709 1.391 . S
H733 C693 0.951 . S
H734 C694 0.950 . S
H735 C700 0.949 . S
H736 C701 0.950 . S
H737 C705 0.951 . S
H738 C706 0.950 . S
H739 C710 0.949 . S
H740 C711 0.950 . S
H741 C715 0.950 . S
H742 C717 0.950 . S
H743 C720 0.950 . S
H744 C722 0.950 . S
C745 C746 1.443 . S
C745 N749 1.376 . S
C745 C783 1.389 . S
C746 C745 1.443 . S
C746 C747 1.340 . S
C746 H786 0.951 . S
C747 C746 1.340 . S
C747 C748 1.439 . S
C747 H787 0.950 . S
C748 C747 1.439 . S
C748 N749 1.374 . S
C748 C782 1.395 . S
N749 C745 1.376 . S
N749 C748 1.374 . S
N749 Co750 2.008 . S
Co750 N749 2.008 . S
Co750 N751 1.995 . S
Co750 N756 2.008 . S
Co750 N761 1.995 . S
Co750 N766 2.289 . S
Co750 N772 2.282 . S
N751 Co750 1.995 . S
N751 C752 1.376 . S
N751 C755 1.383 1_554 S
C752 N751 1.376 . S
C752 C753 1.446 1_554 S
C752 C782 1.391 . S
C753 C752 1.446 1_556 S
C753 C754 1.339 . S
C753 H788 0.949 . S
C754 C753 1.339 . S
C754 C755 1.439 . S
C754 H789 0.950 . S
C755 N751 1.383 1_556 S
C755 C754 1.439 . S
C755 C784 1.392 . S
N756 Co750 2.008 . S
N756 C757 1.376 1_554 S
N756 C760 1.374 . S
C757 N756 1.376 1_556 S
C757 C758 1.443 . S
C757 C784 1.389 . S
C758 C757 1.443 . S
C758 C759 1.340 . S
C758 H790 0.951 . S
C759 C758 1.340 . S
C759 C760 1.439 1_556 S
C759 H791 0.950 . S
C760 N756 1.374 . S
C760 C759 1.439 1_554 S
C760 C785 1.395 . S
N761 Co750 1.995 . S
N761 C762 1.376 . S
N761 C765 1.383 . S
C762 N761 1.376 . S
C762 C763 1.446 . S
C762 C785 1.391 . S
C763 C762 1.446 . S
C763 C764 1.339 . S
C763 H792 0.949 . S
C764 C763 1.339 . S
C764 C765 1.439 . S
C764 H793 0.950 . S
C765 N761 1.383 . S
C765 C764 1.439 . S
C765 C783 1.392 . S
N766 Co750 2.289 . S
N766 C769 1.329 1_554 S
N766 C771 1.327 1_554 S
C767 C768 1.386 . S
C767 C770 1.388 . S
C768 C767 1.386 . S
C768 C769 1.382 . S
C768 H794 0.950 . S
C769 N766 1.329 1_556 S
C769 C768 1.382 . S
C769 H780 0.952 1_556 S
C770 C767 1.388 . S
C770 C771 1.382 . S
C770 H795 0.950 . S
C771 N766 1.327 1_556 S
C771 C770 1.382 . S
C771 H781 0.948 . S
N772 Co750 2.282 . S
N772 C776 1.332 . S
N772 C777 1.332 . S
C773 C774 1.388 . S
C773 C777 1.382 . S
C773 H796 0.950 . S
C774 C773 1.388 . S
C774 C775 1.386 . S
C775 C774 1.386 . S
C775 C776 1.382 . S
C775 H797 0.950 . S
C776 N772 1.332 . S
C776 C775 1.382 . S
C776 H778 0.952 . S
C777 N772 1.332 . S
C777 C773 1.382 . S
C777 H779 0.948 . S
H778 C776 0.952 . S
H779 C777 0.948 . S
H780 C769 0.952 1_554 S
H781 C771 0.948 . S
C782 C748 1.395 . S
C782 C752 1.391 . S
C783 C745 1.389 . S
C783 C765 1.392 . S
C784 C755 1.392 . S
C784 C757 1.389 . S
C785 C760 1.395 . S
C785 C762 1.391 . S
H786 C746 0.951 . S
H787 C747 0.950 . S
H788 C753 0.949 . S
H789 C754 0.950 . S
H790 C758 0.951 . S
H791 C759 0.950 . S
H792 C763 0.949 . S
H793 C764 0.950 . S
H794 C768 0.950 . S
H795 C770 0.950 . S
H796 C773 0.950 . S
H797 C775 0.950 . S
C798 C799 1.387 . S
C798 H802 0.950 . S
C798 C807 1.390 . S
C799 C798 1.387 . S
C799 C801 1.387 . S
H800 C807 0.950 . S
C801 C799 1.387 . S
C801 C803 1.390 . S
C801 H805 0.950 . S
H802 C798 0.950 . S
C803 C801 1.390 . S
C803 C804 1.387 . S
C803 H806 0.950 . S
C804 C803 1.387 . S
C804 C807 1.387 . S
H805 C801 0.950 . S
H806 C803 0.950 . S
C807 C798 1.390 . S
C807 H800 0.950 . S
C807 C804 1.387 . S
C808 C809 1.387 . S
C808 H812 0.950 . S
C808 C817 1.390 . S
C809 C808 1.387 . S
C809 C811 1.387 . S
H810 C817 0.950 . S
C811 C809 1.387 . S
C811 C813 1.390 . S
C811 H815 0.950 . S
H812 C808 0.950 . S
C813 C811 1.390 . S
C813 C814 1.387 . S
C813 H816 0.950 . S
C814 C813 1.387 . S
C814 C817 1.387 . S
H815 C811 0.950 . S
H816 C813 0.950 . S
C817 C808 1.390 . S
C817 H810 0.950 . S
C817 C814 1.387 . S
C818 C819 1.387 . S
C818 H822 0.950 . S
C818 C827 1.390 . S
C819 C818 1.387 . S
C819 C821 1.387 . S
H820 C827 0.950 . S
C821 C819 1.387 . S
C821 C823 1.390 . S
C821 H825 0.950 . S
H822 C818 0.950 . S
C823 C821 1.390 . S
C823 C824 1.387 . S
C823 H826 0.950 . S
C824 C823 1.387 . S
C824 C827 1.387 . S
H825 C821 0.950 . S
H826 C823 0.950 . S
C827 C818 1.390 . S
C827 H820 0.950 . S
C827 C824 1.387 . S
C828 C829 1.387 . S
C828 H832 0.950 . S
C828 C837 1.390 . S
C829 C828 1.387 . S
C829 C831 1.387 . S
H830 C837 0.950 . S
C831 C829 1.387 . S
C831 C833 1.390 . S
C831 H835 0.950 . S
H832 C828 0.950 . S
C833 C831 1.390 . S
C833 C834 1.387 . S
C833 H836 0.950 . S
C834 C833 1.387 . S
C834 C837 1.387 . S
H835 C831 0.950 . S
H836 C833 0.950 . S
C837 C828 1.390 . S
C837 H830 0.950 . S
C837 C834 1.387 . S
C838 C839 1.387 . S
C838 H842 0.950 . S
C838 C847 1.390 . S
C839 C838 1.387 . S
C839 C841 1.387 . S
H840 C847 0.950 . S
C841 C839 1.387 . S
C841 C843 1.390 . S
C841 H845 0.950 . S
H842 C838 0.950 . S
C843 C841 1.390 . S
C843 C844 1.387 . S
C843 H846 0.950 . S
C844 C843 1.387 . S
C844 C847 1.387 . S
H845 C841 0.950 . S
H846 C843 0.950 . S
C847 C838 1.390 . S
C847 H840 0.950 . S
C847 C844 1.387 . S
C848 C849 1.387 . S
C848 H852 0.950 . S
C848 C857 1.390 . S
C849 C848 1.387 . S
C849 C851 1.387 . S
H850 C857 0.950 . S
C851 C849 1.387 . S
C851 C853 1.390 . S
C851 H855 0.950 . S
H852 C848 0.950 . S
C853 C851 1.390 . S
C853 C854 1.387 . S
C853 H856 0.950 . S
C854 C853 1.387 . S
C854 C857 1.387 . S
H855 C851 0.950 . S
H856 C853 0.950 . S
C857 C848 1.390 . S
C857 H850 0.950 . S
C857 C854 1.387 . S
C858 C859 1.387 . S
C858 H862 0.950 . S
C858 C867 1.390 . S
C859 C858 1.387 . S
C859 C861 1.387 . S
H860 C867 0.950 . S
C861 C859 1.387 . S
C861 C863 1.390 . S
C861 H865 0.950 . S
H862 C858 0.950 . S
C863 C861 1.390 . S
C863 C864 1.387 . S
C863 H866 0.950 . S
C864 C863 1.387 . S
C864 C867 1.387 . S
H865 C861 0.950 . S
H866 C863 0.950 . S
C867 C858 1.390 . S
C867 H860 0.950 . S
C867 C864 1.387 . S
C868 C869 1.387 . S
C868 H872 0.950 . S
C868 C877 1.390 . S
C869 C868 1.387 . S
C869 C871 1.387 . S
H870 C877 0.950 . S
C871 C869 1.387 . S
C871 C873 1.390 . S
C871 H875 0.950 . S
H872 C868 0.950 . S
C873 C871 1.390 . S
C873 C874 1.387 . S
C873 H876 0.950 . S
C874 C873 1.387 . S
C874 C877 1.387 . S
H875 C871 0.950 . S
H876 C873 0.950 . S
C877 C868 1.390 . S
C877 H870 0.950 . S
C877 C874 1.387 . S
C878 C879 1.387 . S
C878 H882 0.950 . S
C878 C887 1.390 . S
C879 C878 1.387 . S
C879 C881 1.387 . S
H880 C887 0.950 . S
C881 C879 1.387 . S
C881 C883 1.390 . S
C881 H885 0.950 . S
H882 C878 0.950 . S
C883 C881 1.390 . S
C883 C884 1.387 . S
C883 H886 0.950 . S
C884 C883 1.387 . S
C884 C887 1.387 . S
H885 C881 0.950 . S
H886 C883 0.950 . S
C887 C878 1.390 . S
C887 H880 0.950 . S
C887 C884 1.387 . S
C888 C889 1.387 . S
C888 H892 0.950 . S
C888 C897 1.390 . S
C889 C888 1.387 . S
C889 C891 1.387 . S
H890 C897 0.950 . S
C891 C889 1.387 . S
C891 C893 1.390 . S
C891 H895 0.950 . S
H892 C888 0.950 . S
C893 C891 1.390 . S
C893 C894 1.387 . S
C893 H896 0.950 . S
C894 C893 1.387 . S
C894 C897 1.387 . S
H895 C891 0.950 . S
H896 C893 0.950 . S
C897 C888 1.390 . S
C897 H890 0.950 . S
C897 C894 1.387 . S
C898 C899 1.387 . S
C898 H902 0.950 . S
C898 C907 1.390 . S
C899 C898 1.387 . S
C899 C901 1.387 . S
H900 C907 0.950 . S
C901 C899 1.387 . S
C901 C903 1.390 . S
C901 H905 0.950 . S
H902 C898 0.950 . S
C903 C901 1.390 . S
C903 C904 1.387 . S
C903 H906 0.950 . S
C904 C903 1.387 . S
C904 C907 1.387 . S
H905 C901 0.950 . S
H906 C903 0.950 . S
C907 C898 1.390 . S
C907 H900 0.950 . S
C907 C904 1.387 . S
C908 C909 1.387 . S
C908 H912 0.950 . S
C908 C917 1.390 . S
C909 C908 1.387 . S
C909 C911 1.387 . S
H910 C917 0.950 . S
C911 C909 1.387 . S
C911 C913 1.390 . S
C911 H915 0.950 . S
H912 C908 0.950 . S
C913 C911 1.390 . S
C913 C914 1.387 . S
C913 H916 0.950 . S
C914 C913 1.387 . S
C914 C917 1.387 . S
H915 C911 0.950 . S
H916 C913 0.950 . S
C917 C908 1.390 . S
C917 H910 0.950 . S
C917 C914 1.387 . S
C918 C919 1.387 . S
C918 H922 0.950 . S
C918 C927 1.390 . S
C919 C918 1.387 . S
C919 C921 1.387 . S
H920 C927 0.950 . S
C921 C919 1.387 . S
C921 C923 1.390 . S
C921 H925 0.950 . S
H922 C918 0.950 . S
C923 C921 1.390 . S
C923 C924 1.387 . S
C923 H926 0.950 . S
C924 C923 1.387 . S
C924 C927 1.387 . S
H925 C921 0.950 . S
H926 C923 0.950 . S
C927 C918 1.390 . S
C927 H920 0.950 . S
C927 C924 1.387 . S
C928 C929 1.387 . S
C928 H932 0.950 . S
C928 C937 1.390 . S
C929 C928 1.387 . S
C929 C931 1.387 . S
H930 C937 0.950 . S
C931 C929 1.387 . S
C931 C933 1.390 . S
C931 H935 0.950 . S
H932 C928 0.950 . S
C933 C931 1.390 . S
C933 C934 1.387 . S
C933 H936 0.950 . S
C934 C933 1.387 . S
C934 C937 1.387 . S
H935 C931 0.950 . S
H936 C933 0.950 . S
C937 C928 1.390 . S
C937 H930 0.950 . S
C937 C934 1.387 . S
C938 C939 1.387 . S
C938 H942 0.950 . S
C938 C947 1.390 . S
C939 C938 1.387 . S
C939 C941 1.387 . S
H940 C947 0.950 . S
C941 C939 1.387 . S
C941 C943 1.390 . S
C941 H945 0.950 . S
H942 C938 0.950 . S
C943 C941 1.390 . S
C943 C944 1.387 . S
C943 H946 0.950 . S
C944 C943 1.387 . S
C944 C947 1.387 . S
H945 C941 0.950 . S
H946 C943 0.950 . S
C947 C938 1.390 . S
C947 H940 0.950 . S
C947 C944 1.387 . S
C948 C949 1.387 . S
C948 H952 0.950 . S
C948 C957 1.390 . S
C949 C948 1.387 . S
C949 C951 1.387 . S
H950 C957 0.950 . S
C951 C949 1.387 . S
C951 C953 1.390 . S
C951 H955 0.950 . S
H952 C948 0.950 . S
C953 C951 1.390 . S
C953 C954 1.387 . S
C953 H956 0.950 . S
C954 C953 1.387 . S
C954 C957 1.387 . S
H955 C951 0.950 . S
H956 C953 0.950 . S
C957 C948 1.390 . S
C957 H950 0.950 . S
C957 C954 1.387 . S
C958 C959 1.387 . S
C958 H962 0.950 . S
C958 C967 1.390 . S
C959 C958 1.387 . S
C959 C961 1.387 . S
H960 C967 0.950 . S
C961 C959 1.387 . S
C961 C963 1.390 . S
C961 H965 0.950 . S
H962 C958 0.950 . S
C963 C961 1.390 . S
C963 C964 1.387 . S
C963 H966 0.950 . S
C964 C963 1.387 . S
C964 C967 1.387 . S
H965 C961 0.950 . S
H966 C963 0.950 . S
C967 C958 1.390 . S
C967 H960 0.950 . S
C967 C964 1.387 . S
C968 C969 1.387 . S
C968 H972 0.950 . S
C968 C977 1.390 . S
C969 C968 1.387 . S
C969 C971 1.387 . S
H970 C977 0.950 . S
C971 C969 1.387 . S
C971 C973 1.390 . S
C971 H975 0.950 . S
H972 C968 0.950 . S
C973 C971 1.390 . S
C973 C974 1.387 . S
C973 H976 0.950 . S
C974 C973 1.387 . S
C974 C977 1.387 . S
H975 C971 0.950 . S
H976 C973 0.950 . S
C977 C968 1.390 . S
C977 H970 0.950 . S
C977 C974 1.387 . S
C978 C979 1.387 . S
C978 H982 0.950 . S
C978 C987 1.390 . S
C979 C978 1.387 . S
C979 C981 1.387 . S
H980 C987 0.950 . S
C981 C979 1.387 . S
C981 C983 1.390 . S
C981 H985 0.950 . S
H982 C978 0.950 . S
C983 C981 1.390 . S
C983 C984 1.387 . S
C983 H986 0.950 . S
C984 C983 1.387 . S
C984 C987 1.387 . S
H985 C981 0.950 . S
H986 C983 0.950 . S
C987 C978 1.390 . S
C987 H980 0.950 . S
C987 C984 1.387 . S
C988 C989 1.387 . S
C988 H992 0.950 . S
C988 C997 1.390 . S
C989 C988 1.387 . S
C989 C991 1.387 . S
H990 C997 0.950 . S
C991 C989 1.387 . S
C991 C993 1.390 . S
C991 H995 0.950 . S
H992 C988 0.950 . S
C993 C991 1.390 . S
C993 C994 1.387 . S
C993 H996 0.950 . S
C994 C993 1.387 . S
C994 C997 1.387 . S
H995 C991 0.950 . S
H996 C993 0.950 . S
C997 C988 1.390 . S
C997 H990 0.950 . S
C997 C994 1.387 . S
C998 C999 1.387 . S
C998 H1002 0.950 . S
C998 C1007 1.390 . S
C999 C998 1.387 . S
C999 C1001 1.387 . S
H1000 C1007 0.950 . S
C1001 C999 1.387 . S
C1001 C1003 1.390 . S
C1001 H1005 0.950 . S
H1002 C998 0.950 . S
C1003 C1001 1.390 . S
C1003 C1004 1.387 . S
C1003 H1006 0.950 . S
C1004 C1003 1.387 . S
C1004 C1007 1.387 . S
H1005 C1001 0.950 . S
H1006 C1003 0.950 . S
C1007 C998 1.390 . S
C1007 H1000 0.950 . S
C1007 C1004 1.387 . S
C1008 C1009 1.387 . S
C1008 H1012 0.950 . S
C1008 C1017 1.390 . S
C1009 C1008 1.387 . S
C1009 C1011 1.387 . S
H1010 C1017 0.950 . S
C1011 C1009 1.387 . S
C1011 C1013 1.390 . S
C1011 H1015 0.950 . S
H1012 C1008 0.950 . S
C1013 C1011 1.390 . S
C1013 C1014 1.387 . S
C1013 H1016 0.950 . S
C1014 C1013 1.387 . S
C1014 C1017 1.387 . S
H1015 C1011 0.950 . S
H1016 C1013 0.950 . S
C1017 C1008 1.390 . S
C1017 H1010 0.950 . S
C1017 C1014 1.387 . S
C1018 C1019 1.387 . S
C1018 H1022 0.950 . S
C1018 C1027 1.390 . S
C1019 C1018 1.387 . S
C1019 C1021 1.387 . S
H1020 C1027 0.950 . S
C1021 C1019 1.387 . S
C1021 C1023 1.390 . S
C1021 H1025 0.950 . S
H1022 C1018 0.950 . S
C1023 C1021 1.390 . S
C1023 C1024 1.387 . S
C1023 H1026 0.950 . S
C1024 C1023 1.387 . S
C1024 C1027 1.387 . S
H1025 C1021 0.950 . S
H1026 C1023 0.950 . S
C1027 C1018 1.390 . S
C1027 H1020 0.950 . S
C1027 C1024 1.387 . S
C1028 C1029 1.387 . S
C1028 H1032 0.950 . S
C1028 C1037 1.390 . S
C1029 C1028 1.387 . S
C1029 C1031 1.387 . S
H1030 C1037 0.950 . S
C1031 C1029 1.387 . S
C1031 C1033 1.390 . S
C1031 H1035 0.950 . S
H1032 C1028 0.950 . S
C1033 C1031 1.390 . S
C1033 C1034 1.387 . S
C1033 H1036 0.950 . S
C1034 C1033 1.387 . S
C1034 C1037 1.387 . S
H1035 C1031 0.950 . S
H1036 C1033 0.950 . S
C1037 C1028 1.390 . S
C1037 H1030 0.950 . S
C1037 C1034 1.387 . S
C804 C502 1.551 . S
C799 C31 1.523 . S
C814 C571 1.542 . S
C809 C61 1.521 . S
C824 C509 1.547 . S
C819 C121 1.543 . S
C834 C572 1.544 . S
C829 C211 1.533 . S
C844 C625 1.564 . S
C839 C1 1.564 . S
C854 C661 1.526 . S
C849 C91 1.518 . S
C859 C151 1.515 . S
C864 C721 1.559 . S
C874 C784 1.527 . S
C869 C181 1.486 . S
C884 C624 1.550 . S
C879 C80 1.556 . S
C889 C140 1.485 . S
C894 C668 1.527 . S
C904 C714 1.559 . S
C899 C200 1.512 . S
C914 C783 1.533 . S
C909 C20 1.526 . S
C919 C271 1.524 . S
C924 C562 1.552 . S
C934 C519 1.542 . S
C929 C331 1.514 . S
C939 C380 1.548 . S
C944 C555 1.547 . S
C949 C421 1.539 . S
C954 C518 1.544 . S
C964 C730 1.564 . S
C959 C241 1.565 . S
C974 C774 1.526 . S
C969 C320 1.498 . S
C984 C608 1.558 . S
C979 C361 1.547 . S
C989 C440 1.504 . S
C994 C677 1.527 . S
C1004 C731 1.551 . S
C999 C301 1.527 . S
C1014 C767 1.527 . S
C1009 C391 1.506 . S
C1024 C615 1.559 . S
C1019 C451 1.543 . S
C1029 C260 1.526 . S
C1034 C678 1.533 . S
