# Generated by pormake.
# Topology ctn, (3,4)-cn, num edge types: 1
# Building blocks:
#     Node 0, Type 0, BuildingBlock: BETDIP_clean_linker_0, # of connection points: 3
#     Node 1, Type 0, BuildingBlock: BETDIP_clean_linker_0, # of connection points: 3
#     Node 2, Type 0, BuildingBlock: BETDIP_clean_linker_0, # of connection points: 3
#     Node 3, Type 0, BuildingBlock: BETDIP_clean_linker_0, # of connection points: 3
#     Node 4, Type 0, BuildingBlock: BETDIP_clean_linker_0, # of connection points: 3
#     Node 5, Type 0, BuildingBlock: BETDIP_clean_linker_0, # of connection points: 3
#     Node 6, Type 0, BuildingBlock: BETDIP_clean_linker_0, # of connection points: 3
#     Node 7, Type 0, BuildingBlock: BETDIP_clean_linker_0, # of connection points: 3
#     Node 8, Type 0, BuildingBlock: BETDIP_clean_linker_0, # of connection points: 3
#     Node 9, Type 0, BuildingBlock: BETDIP_clean_linker_0, # of connection points: 3
#     Node 10, Type 0, BuildingBlock: BETDIP_clean_linker_0, # of connection points: 3
#     Node 11, Type 0, BuildingBlock: BETDIP_clean_linker_0, # of connection points: 3
#     Node 12, Type 0, BuildingBlock: BETDIP_clean_linker_0, # of connection points: 3
#     Node 13, Type 0, BuildingBlock: BETDIP_clean_linker_0, # of connection points: 3
#     Node 14, Type 0, BuildingBlock: BETDIP_clean_linker_0, # of connection points: 3
#     Node 15, Type 0, BuildingBlock: BETDIP_clean_linker_0, # of connection points: 3
#     Node 16, Type 1, BuildingBlock: QUQFOY_clean_sbu_1, # of connection points: 4
#     Node 17, Type 1, BuildingBlock: QUQFOY_clean_sbu_1, # of connection points: 4
#     Node 18, Type 1, BuildingBlock: QUQFOY_clean_sbu_1, # of connection points: 4
#     Node 19, Type 1, BuildingBlock: QUQFOY_clean_sbu_1, # of connection points: 4
#     Node 20, Type 1, BuildingBlock: QUQFOY_clean_sbu_1, # of connection points: 4
#     Node 21, Type 1, BuildingBlock: QUQFOY_clean_sbu_1, # of connection points: 4
#     Node 22, Type 1, BuildingBlock: QUQFOY_clean_sbu_1, # of connection points: 4
#     Node 23, Type 1, BuildingBlock: QUQFOY_clean_sbu_1, # of connection points: 4
#     Node 24, Type 1, BuildingBlock: QUQFOY_clean_sbu_1, # of connection points: 4
#     Node 25, Type 1, BuildingBlock: QUQFOY_clean_sbu_1, # of connection points: 4
#     Node 26, Type 1, BuildingBlock: QUQFOY_clean_sbu_1, # of connection points: 4
#     Node 27, Type 1, BuildingBlock: QUQFOY_clean_sbu_1, # of connection points: 4
#     Edge 28, Type (0, 1), BuildingBlock: CIFDUS_clean_linker_0, # of connection points: 2
#     Edge 29, Type (0, 1), BuildingBlock: CIFDUS_clean_linker_0, # of connection points: 2
#     Edge 30, Type (0, 1), BuildingBlock: CIFDUS_clean_linker_0, # of connection points: 2
#     Edge 31, Type (0, 1), BuildingBlock: CIFDUS_clean_linker_0, # of connection points: 2
#     Edge 32, Type (0, 1), BuildingBlock: CIFDUS_clean_linker_0, # of connection points: 2
#     Edge 33, Type (0, 1), BuildingBlock: CIFDUS_clean_linker_0, # of connection points: 2
#     Edge 34, Type (0, 1), BuildingBlock: CIFDUS_clean_linker_0, # of connection points: 2
#     Edge 35, Type (0, 1), BuildingBlock: CIFDUS_clean_linker_0, # of connection points: 2
#     Edge 36, Type (0, 1), BuildingBlock: CIFDUS_clean_linker_0, # of connection points: 2
#     Edge 37, Type (0, 1), BuildingBlock: CIFDUS_clean_linker_0, # of connection points: 2
#     Edge 38, Type (0, 1), BuildingBlock: CIFDUS_clean_linker_0, # of connection points: 2
#     Edge 39, Type (0, 1), BuildingBlock: CIFDUS_clean_linker_0, # of connection points: 2
#     Edge 40, Type (0, 1), BuildingBlock: CIFDUS_clean_linker_0, # of connection points: 2
#     Edge 41, Type (0, 1), BuildingBlock: CIFDUS_clean_linker_0, # of connection points: 2
#     Edge 42, Type (0, 1), BuildingBlock: CIFDUS_clean_linker_0, # of connection points: 2
#     Edge 43, Type (0, 1), BuildingBlock: CIFDUS_clean_linker_0, # of connection points: 2
#     Edge 44, Type (0, 1), BuildingBlock: CIFDUS_clean_linker_0, # of connection points: 2
#     Edge 45, Type (0, 1), BuildingBlock: CIFDUS_clean_linker_0, # of connection points: 2
#     Edge 46, Type (0, 1), BuildingBlock: CIFDUS_clean_linker_0, # of connection points: 2
#     Edge 47, Type (0, 1), BuildingBlock: CIFDUS_clean_linker_0, # of connection points: 2
#     Edge 48, Type (0, 1), BuildingBlock: CIFDUS_clean_linker_0, # of connection points: 2
#     Edge 49, Type (0, 1), BuildingBlock: CIFDUS_clean_linker_0, # of connection points: 2
#     Edge 50, Type (0, 1), BuildingBlock: CIFDUS_clean_linker_0, # of connection points: 2
#     Edge 51, Type (0, 1), BuildingBlock: CIFDUS_clean_linker_0, # of connection points: 2
#     Edge 52, Type (0, 1), BuildingBlock: CIFDUS_clean_linker_0, # of connection points: 2
#     Edge 53, Type (0, 1), BuildingBlock: CIFDUS_clean_linker_0, # of connection points: 2
#     Edge 54, Type (0, 1), BuildingBlock: CIFDUS_clean_linker_0, # of connection points: 2
#     Edge 55, Type (0, 1), BuildingBlock: CIFDUS_clean_linker_0, # of connection points: 2
#     Edge 56, Type (0, 1), BuildingBlock: CIFDUS_clean_linker_0, # of connection points: 2
#     Edge 57, Type (0, 1), BuildingBlock: CIFDUS_clean_linker_0, # of connection points: 2
#     Edge 58, Type (0, 1), BuildingBlock: CIFDUS_clean_linker_0, # of connection points: 2
#     Edge 59, Type (0, 1), BuildingBlock: CIFDUS_clean_linker_0, # of connection points: 2
#     Edge 60, Type (0, 1), BuildingBlock: CIFDUS_clean_linker_0, # of connection points: 2
#     Edge 61, Type (0, 1), BuildingBlock: CIFDUS_clean_linker_0, # of connection points: 2
#     Edge 62, Type (0, 1), BuildingBlock: CIFDUS_clean_linker_0, # of connection points: 2
#     Edge 63, Type (0, 1), BuildingBlock: CIFDUS_clean_linker_0, # of connection points: 2
#     Edge 64, Type (0, 1), BuildingBlock: CIFDUS_clean_linker_0, # of connection points: 2
#     Edge 65, Type (0, 1), BuildingBlock: CIFDUS_clean_linker_0, # of connection points: 2
#     Edge 66, Type (0, 1), BuildingBlock: CIFDUS_clean_linker_0, # of connection points: 2
#     Edge 67, Type (0, 1), BuildingBlock: CIFDUS_clean_linker_0, # of connection points: 2
#     Edge 68, Type (0, 1), BuildingBlock: CIFDUS_clean_linker_0, # of connection points: 2
#     Edge 69, Type (0, 1), BuildingBlock: CIFDUS_clean_linker_0, # of connection points: 2
#     Edge 70, Type (0, 1), BuildingBlock: CIFDUS_clean_linker_0, # of connection points: 2
#     Edge 71, Type (0, 1), BuildingBlock: CIFDUS_clean_linker_0, # of connection points: 2
#     Edge 72, Type (0, 1), BuildingBlock: CIFDUS_clean_linker_0, # of connection points: 2
#     Edge 73, Type (0, 1), BuildingBlock: CIFDUS_clean_linker_0, # of connection points: 2
#     Edge 74, Type (0, 1), BuildingBlock: CIFDUS_clean_linker_0, # of connection points: 2
#     Edge 75, Type (0, 1), BuildingBlock: CIFDUS_clean_linker_0, # of connection points: 2
# Relax obj value: 0.096
# Max RMSD: 0.195
# Mean RMSD: 0.139
data_MOF--net-ctn--node1-QUQFOY_clean_sbu_1--node2-BETDIP_clean_linker_0--edge1-CIFDUS_clean_linker_0
_symmetry_space_group_name_H-M    P1
_symmetry_Int_Tables_number       1
_symmetry_cell_setting            triclinic
loop_
_symmetry_equiv_pos_as_xyz
'x, y, z'
_cell_length_a     45.754934
_cell_length_b     45.932868
_cell_length_c     51.087857
_cell_angle_alpha  97.074798
_cell_angle_beta   93.958548
_cell_angle_gamma 98.101235
loop_
_atom_site_label
_atom_site_type_symbol
_atom_site_fract_x
_atom_site_fract_y
_atom_site_fract_z
_atom_type_partial_charge
H0 H 0.00804 0.08123 0.08984 0.0
H1 H 0.05577 0.04019 0.02996 0.0
H2 H 0.03825 -0.00212 0.09888 0.0
H3 H 0.0601 0.08345 0.01492 0.0
C4 C 0.0414 0.09403 0.02085 0.0
C5 C 0.01921 0.06294 0.08259 0.0
C6 C 0.02146 0.0395 0.09759 0.0
C7 C 0.03146 0.06347 0.05832 0.0
C8 C 0.04632 0.04016 0.04876 0.0
C9 C 0.04914 0.01649 0.06337 0.0
C10 C 0.03674 0.01639 0.08786 0.0
N11 N 0.02726 0.08728 0.04378 0.0
H12 H 0.26347 0.73895 0.21765 0.0
H13 H 0.34957 0.78976 0.24211 0.0
H14 H 0.32671 0.70406 0.26644 0.0
H15 H 0.33687 0.82183 0.21833 0.0
C16 C 0.3157 0.81435 0.20698 0.0
C17 C 0.2851 0.74135 0.22846 0.0
C18 C 0.29261 0.71861 0.24242 0.0
C19 C 0.30557 0.76688 0.22763 0.0
C20 C 0.33372 0.76995 0.24171 0.0
C21 C 0.34152 0.74745 0.25596 0.0
C22 C 0.32089 0.72174 0.25583 0.0
N23 N 0.29727 0.7882 0.21164 0.0
H24 H 0.97382 0.54174 0.00876 0.0
H25 H 0.03381 0.50982 0.0624 0.0
H26 H 0.99085 0.58369 0.08992 0.0
H27 H 0.0141 0.46633 0.03889 0.0
C28 C 0.01293 0.47136 0.01865 0.0
C29 C 0.98476 0.54341 0.02849 0.0
C30 C 0.97954 0.56535 0.04874 0.0
C31 C 0.0034 0.52278 0.03352 0.0
C32 C 0.01876 0.52527 0.05858 0.0
C33 C 0.01466 0.54732 0.07899 0.0
C34 C 0.99468 0.56712 0.07405 0.0
N35 N 0.00581 0.4993 0.01326 0.0
H36 H 0.75575 0.74953 0.21359 0.0
H37 H 0.78058 0.81655 0.28107 0.0
H38 H 0.83469 0.8131 0.21566 0.0
H39 H 0.75414 0.7751 0.30168 0.0
C40 C 0.73516 0.77364 0.2873 0.0
C41 C 0.77148 0.76781 0.22405 0.0
C42 C 0.79634 0.77938 0.21186 0.0
C43 C 0.76598 0.78065 0.24925 0.0
C44 C 0.78539 0.80557 0.2622 0.0
C45 C 0.81027 0.81729 0.25015 0.0
C46 C 0.81584 0.80372 0.22528 0.0
N47 N 0.73916 0.77026 0.25983 0.0
H48 H 0.03889 0.98975 0.4679 0.0
H49 H 0.11853 0.01177 0.52094 0.0
H50 H 0.11128 0.05212 0.44975 0.0
H51 H 0.10292 0.96927 0.5358 0.0
C52 C 0.07907 0.96387 0.53155 0.0
C53 C 0.06106 0.00192 0.4729 0.0
C54 C 0.07334 0.02128 0.45602 0.0
C55 C 0.07741 0.99749 0.49591 0.0
C56 C 0.10597 0.01379 0.50271 0.0
C57 C 0.11835 0.03332 0.48593 0.0
C58 C 0.10207 0.03657 0.46247 0.0
N59 N 0.06409 0.9767 0.5116 0.0
H60 H 0.2306 0.77127 0.8164 0.0
H61 H 0.27421 0.70258 0.78004 0.0
H62 H 0.29557 0.73526 0.86288 0.0
H63 H 0.23304 0.78483 0.77201 0.0
C64 C 0.22352 0.76254 0.76296 0.0
C65 C 0.24729 0.75691 0.81789 0.0
C66 C 0.26279 0.75622 0.84255 0.0
C67 C 0.25203 0.73812 0.79532 0.0
C68 C 0.27169 0.71779 0.79743 0.0
C69 C 0.28753 0.7165 0.8217 0.0
C70 C 0.28303 0.73585 0.84423 0.0
N71 N 0.23562 0.73775 0.77065 0.0
H72 H 0.02671 0.57183 0.49737 0.0
H73 H 0.97145 0.48697 0.47836 0.0
H74 H 0.95191 0.54998 0.54171 0.0
H75 H 0.9817 0.49537 0.43676 0.0
C76 C 0.00474 0.5057 0.43877 0.0
C77 C 0.0081 0.55611 0.50139 0.0
C78 C 0.99033 0.56397 0.52162 0.0
C79 C 0.00082 0.52888 0.48511 0.0
C80 C 0.9768 0.50845 0.49037 0.0
C81 C 0.95911 0.5159 0.5108 0.0
C82 C 0.96568 0.54393 0.52609 0.0
N83 N 0.01707 0.52338 0.46283 0.0
H84 H 0.78452 0.85838 0.77415 0.0
H85 H 0.83055 0.80667 0.8229 0.0
H86 H 0.75432 0.84212 0.84979 0.0
H87 H 0.86736 0.81804 0.79917 0.0
C88 C 0.85796 0.82035 0.77959 0.0
C89 C 0.78644 0.84827 0.79215 0.0
C90 C 0.76646 0.85234 0.81149 0.0
C91 C 0.8098 0.83223 0.79616 0.0
C92 C 0.81285 0.81943 0.81963 0.0
C93 C 0.79317 0.82317 0.83927 0.0
C94 C 0.76996 0.83961 0.83498 0.0
N95 N 0.82964 0.82935 0.77608 0.0
H96 H 0.30288 0.37233 0.27827 0.0
H97 H 0.33383 0.3038 0.31772 0.0
H98 H 0.25797 0.34125 0.34323 0.0
H99 H 0.37297 0.31117 0.29657 0.0
C100 C 0.36742 0.32105 0.27903 0.0
C101 C 0.30093 0.358 0.29362 0.0
C102 C 0.27811 0.35931 0.31053 0.0
C103 C 0.32115 0.33817 0.29598 0.0
C104 C 0.31844 0.31929 0.31559 0.0
C105 C 0.29581 0.32023 0.33282 0.0
C106 C 0.27556 0.34031 0.33013 0.0
N107 N 0.34319 0.33725 0.2777 0.0
H108 H 0.48006 0.04975 0.49864 0.0
H109 H 0.51898 0.00821 0.55983 0.0
H110 H 0.4955 0.09535 0.57843 0.0
H111 H 0.49766 0.96739 0.53331 0.0
C112 C 0.50319 0.97289 0.51399 0.0
C113 C 0.48848 0.05094 0.51915 0.0
C114 C 0.48598 0.07568 0.53762 0.0
C115 C 0.50027 0.02666 0.52704 0.0
C116 C 0.51015 0.02714 0.55373 0.0
C117 C 0.50839 0.05165 0.57264 0.0
C118 C 0.4965 0.07603 0.56427 0.0
N119 N 0.50196 0.002 0.50773 0.0
H120 H 0.22102 0.27163 0.70939 0.0
H121 H 0.2558 0.33804 0.77498 0.0
H122 H 0.29467 0.33787 0.70061 0.0
H123 H 0.23655 0.29672 0.79786 0.0
C124 C 0.21503 0.29302 0.78658 0.0
C125 C 0.23712 0.29075 0.71765 0.0
C126 C 0.25865 0.30276 0.70208 0.0
C127 C 0.23632 0.30298 0.74401 0.0
C128 C 0.25684 0.32804 0.7548 0.0
C129 C 0.27808 0.34082 0.73927 0.0
C130 C 0.27898 0.32776 0.71302 0.0
N131 N 0.21325 0.29099 0.75855 0.0
H132 H 0.7257 0.22931 0.7283 0.0
H133 H 0.81047 0.28326 0.74812 0.0
H134 H 0.79156 0.20006 0.77887 0.0
H135 H 0.78305 0.32006 0.73331 0.0
C136 C 0.77197 0.30587 0.71584 0.0
C137 C 0.74754 0.23276 0.73885 0.0
C138 C 0.75595 0.21178 0.7545 0.0
C139 C 0.76702 0.2583 0.73631 0.0
C140 C 0.79532 0.26348 0.75009 0.0
C141 C 0.80432 0.24271 0.76592 0.0
C142 C 0.78446 0.21685 0.7678 0.0
N143 N 0.75825 0.27663 0.71772 0.0
H144 H 0.54678 0.59365 0.58932 0.0
H145 H 0.59801 0.55372 0.53182 0.0
H146 H 0.56838 0.50596 0.59469 0.0
H147 H 0.61302 0.60181 0.5264 0.0
C148 C 0.59201 0.61021 0.52695 0.0
C149 C 0.55723 0.57491 0.5819 0.0
C150 C 0.55577 0.5497 0.59516 0.0
C151 C 0.57252 0.5766 0.55925 0.0
C152 C 0.58639 0.55266 0.54948 0.0
C153 C 0.58513 0.52707 0.56215 0.0
C154 C 0.56993 0.52584 0.58513 0.0
N155 N 0.57212 0.60194 0.54589 0.0
H156 H 0.51958 0.51598 0.98698 0.0
H157 H 0.6027 0.54021 0.03475 0.0
H158 H 0.58671 0.58207 0.9656 0.0
H159 H 0.5914 0.49498 0.04667 0.0
C160 C 0.56743 0.48975 0.04549 0.0
C161 C 0.54119 0.52956 0.991 0.0
C162 C 0.55085 0.54963 0.97368 0.0
C163 C 0.55986 0.52548 0.0127 0.0
C164 C 0.58822 0.54249 0.01771 0.0
C165 C 0.59784 0.56314 0.00087 0.0
C166 C 0.57907 0.56656 0.97894 0.0
N167 N 0.5494 0.50368 0.02863 0.0
H168 H 0.72623 0.28085 0.30228 0.0
H169 H 0.7703 0.21584 0.2598 0.0
H170 H 0.79188 0.24041 0.34353 0.0
H171 H 0.72809 0.20759 0.23364 0.0
C172 C 0.71978 0.22859 0.23372 0.0
C173 C 0.74262 0.26596 0.30224 0.0
C174 C 0.75868 0.26299 0.32598 0.0
C175 C 0.74624 0.24877 0.27848 0.0
C176 C 0.76703 0.22897 0.27814 0.0
C177 C 0.78338 0.2256 0.30159 0.0
C178 C 0.77903 0.24265 0.32546 0.0
N179 N 0.72781 0.2513 0.25557 0.0
H180 H 0.43993 0.1259 0.94158 0.0
H181 H 0.37871 0.04491 0.92149 0.0
H182 H 0.37165 0.10336 0.99261 0.0
H183 H 0.42585 0.03083 0.90993 0.0
C184 C 0.43224 0.04849 0.89817 0.0
C185 C 0.42066 0.11119 0.94582 0.0
C186 C 0.40662 0.11795 0.96885 0.0
C187 C 0.41088 0.08481 0.92884 0.0
C188 C 0.38627 0.06543 0.93454 0.0
C189 C 0.37195 0.07207 0.95749 0.0
C190 C 0.38216 0.09845 0.97453 0.0
N191 N 0.42693 0.07771 0.90678 0.0
O192 O 0.2519 0.85197 -0.00057 0.0
Cd193 Cd 0.25469 0.8849 0.0315 0.0
Cd194 Cd 0.21081 0.90165 0.00255 0.0
O195 O 0.21285 0.86348 0.97732 0.0
O196 O 0.28197 0.87292 0.05884 0.0
O197 O 0.2349 0.87589 0.06431 0.0
C198 C 0.26021 0.87026 0.07349 0.0
C199 C 0.16885 0.91413 0.02193 0.0
C200 C 0.23287 0.84709 0.97945 0.0
C201 C 0.26681 0.94381 0.01111 0.0
O202 O 0.24172 0.93706 0.99793 0.0
O203 O 0.27531 0.92691 0.02707 0.0
O204 O 0.17136 0.91456 0.99695 0.0
O205 O 0.18952 0.9047 0.03566 0.0
O206 O 0.17719 0.56811 0.27339 0.0
Cd207 Cd 0.15995 0.53127 0.28981 0.0
Cd208 Cd 0.10731 0.5539 0.26822 0.0
O209 O 0.13836 0.59158 0.27185 0.0
O210 O 0.19717 0.52049 0.30598 0.0
O211 O 0.16702 0.48978 0.27591 0.0
C212 C 0.19092 0.49495 0.29178 0.0
C213 C 0.07726 0.54701 0.22868 0.0
C214 C 0.16588 0.59128 0.27022 0.0
C215 C 0.10708 0.53433 0.32186 0.0
O216 O 0.09156 0.53791 0.30124 0.0
O217 O 0.13491 0.5349 0.32183 0.0
O218 O 0.07206 0.56483 0.24874 0.0
O219 O 0.09876 0.53185 0.23146 0.0
O220 O 0.8085 0.74573 0.98165 0.0
Cd221 Cd 0.79405 0.7271 0.01378 0.0
Cd222 Cd 0.81127 0.67832 0.99043 0.0
O223 O 0.81524 0.70338 0.95929 0.0
O224 O 0.79191 0.76033 0.04186 0.0
O225 O 0.81819 0.72407 0.04732 0.0
C226 C 0.80829 0.7477 0.05715 0.0
C227 C 0.84864 0.65065 0.00073 0.0
C228 C 0.81402 0.73101 0.96032 0.0
C229 C 0.74803 0.67458 0.00387 0.0
O230 O 0.76915 0.66043 0.99801 0.0
O231 O 0.7526 0.70266 0.00877 0.0
O232 O 0.83 0.64255 0.98017 0.0
O233 O 0.84668 0.67522 0.01533 0.0
O234 O 0.96819 0.03813 0.31722 0.0
Cd235 Cd 0.94355 0.02502 0.28143 0.0
Cd236 Cd 0.89912 0.0491 0.31115 0.0
O237 O 0.93252 0.05151 0.3409 0.0
O238 O 0.97362 0.011 0.25823 0.0
O239 O 0.94794 0.04628 0.24915 0.0
C240 C 0.9675 0.02964 0.2426 0.0
C241 C 0.87238 0.0892 0.3131 0.0
C242 C 0.95906 0.04667 0.3394 0.0
C243 C 0.88594 0.98525 0.28678 0.0
O244 O 0.87582 0.0075 0.29804 0.0
O245 O 0.91214 0.98787 0.27963 0.0
O246 O 0.86944 0.07007 0.32951 0.0
O247 O 0.89058 0.08555 0.29517 0.0
O248 O 0.28762 0.24117 0.48179 0.0
Cd249 Cd 0.28554 0.21484 0.512 0.0
Cd250 Cd 0.3207 0.18474 0.48206 0.0
O251 O 0.31784 0.21743 0.45828 0.0
O252 O 0.26458 0.23615 0.5394 0.0
O253 O 0.31055 0.22745 0.54665 0.0
C254 C 0.2879 0.23804 0.55551 0.0
C255 C 0.36488 0.17474 0.50156 0.0
C256 C 0.30218 0.23814 0.46156 0.0
C257 C 0.26354 0.15034 0.49023 0.0
O258 O 0.28623 0.15026 0.4773 0.0
O259 O 0.25998 0.17338 0.50543 0.0
O260 O 0.35761 0.16748 0.47648 0.0
O261 O 0.34764 0.18921 0.51539 0.0
O262 O 0.48267 0.5378 0.80703 0.0
Cd263 Cd 0.46001 0.52511 0.77011 0.0
Cd264 Cd 0.41368 0.54791 0.79903 0.0
O265 O 0.44585 0.55037 0.8296 0.0
O266 O 0.49152 0.51153 0.74851 0.0
O267 O 0.46743 0.54785 0.7391 0.0
C268 C 0.48715 0.53112 0.7333 0.0
C269 C 0.38877 0.58906 0.79945 0.0
C270 C 0.47265 0.54621 0.82884 0.0
C271 C 0.4011 0.48509 0.77153 0.0
O272 O 0.39096 0.50656 0.78414 0.0
O273 O 0.42759 0.48825 0.76506 0.0
O274 O 0.38371 0.57001 0.81572 0.0
O275 O 0.40772 0.58444 0.78235 0.0
O276 O 0.75661 0.33277 0.49261 0.0
Cd277 Cd 0.76994 0.36043 0.52754 0.0
Cd278 Cd 0.7379 0.39675 0.50566 0.0
O279 O 0.73329 0.36422 0.47313 0.0
O280 O 0.78408 0.33395 0.55204 0.0
O281 O 0.74799 0.36042 0.5603 0.0
C282 C 0.76481 0.34201 0.56757 0.0
C283 C 0.69718 0.41538 0.52254 0.0
C284 C 0.74279 0.33943 0.47229 0.0
C285 C 0.80224 0.41953 0.5197 0.0
O286 O 0.77725 0.42549 0.51136 0.0
O287 O 0.80445 0.39424 0.52665 0.0
O288 O 0.70619 0.4215 0.5002 0.0
O289 O 0.71071 0.39765 0.53502 0.0
O290 O 0.65371 0.05161 0.80248 0.0
Cd291 Cd 0.62882 0.01097 0.80493 0.0
Cd292 Cd 0.59178 0.03085 0.76069 0.0
O293 O 0.62769 0.06361 0.76841 0.0
O294 O 0.65376 0.99348 0.83047 0.0
O295 O 0.64308 0.9738 0.78863 0.0
C296 C 0.65662 0.97308 0.81154 0.0
C297 C 0.57234 0.02677 0.71658 0.0
C298 C 0.64988 0.06904 0.78552 0.0
C299 C 0.56411 0.01596 0.81116 0.0
O300 O 0.56188 0.02485 0.78861 0.0
O301 O 0.58828 0.00904 0.82051 0.0
O302 O 0.56779 0.04791 0.73405 0.0
O303 O 0.5871 0.00693 0.72429 0.0
O304 O 0.00675 0.29499 0.92994 0.0
Cd305 Cd 0.99734 0.25455 0.90637 0.0
Cd306 Cd 0.01664 0.29013 0.86926 0.0
O307 O 0.01894 0.32419 0.89996 0.0
O308 O 0.98857 0.22693 0.93289 0.0
O309 O 0.02581 0.22475 0.90782 0.0
C310 C 0.01114 0.21472 0.92637 0.0
C311 C 0.05794 0.28774 0.84545 0.0
C312 C 0.01445 0.32073 0.92372 0.0
C313 C 0.95494 0.25645 0.85889 0.0
O314 O 0.97548 0.27339 0.85036 0.0
O315 O 0.95919 0.24661 0.88082 0.0
O316 O 0.03978 0.30607 0.8413 0.0
O317 O 0.05267 0.27048 0.86328 0.0
O318 O 0.52258 0.79892 0.43322 0.0
Cd319 Cd 0.51905 0.75808 0.41073 0.0
Cd320 Cd 0.54335 0.7933 0.37641 0.0
O321 O 0.54136 0.8282 0.4055 0.0
O322 O 0.50535 0.73128 0.43664 0.0
O323 O 0.54803 0.73039 0.41913 0.0
C324 C 0.52971 0.72042 0.43522 0.0
C325 C 0.58843 0.78496 0.36106 0.0
C326 C 0.53171 0.82473 0.42782 0.0
C327 C 0.48374 0.75821 0.35867 0.0
O328 O 0.50485 0.7767 0.35286 0.0
O329 O 0.48549 0.74767 0.38049 0.0
O330 O 0.57422 0.80477 0.3525 0.0
O331 O 0.57708 0.76993 0.37868 0.0
O332 O 0.99667 0.77117 0.67886 0.0
Cd333 Cd 0.02811 0.76215 0.65311 0.0
Cd334 Cd 0.99209 0.7869 0.62118 0.0
O335 O 0.9681 0.79299 0.65342 0.0
O336 O 0.05733 0.74603 0.67564 0.0
O337 O 0.06829 0.7878 0.65869 0.0
C338 C 0.07649 0.76856 0.67293 0.0
C339 C 0.01719 0.82748 0.60512 0.0
C340 C 0.97421 0.78416 0.67547 0.0
C341 C -0.00092 0.72518 0.60221 0.0
O342 O 0.98467 0.74612 0.59813 0.0
O343 O 0.01788 0.72803 0.62219 0.0
O344 O 0.98917 0.819 0.59884 0.0
O345 O 0.03094 0.81275 0.62072 0.0
O346 O 0.49418 0.26259 0.16824 0.0
Cd347 Cd 0.52367 0.25602 0.13986 0.0
Cd348 Cd 0.49633 0.2958 0.11724 0.0
O349 O 0.47448 0.29772 0.1509 0.0
O350 O 0.55311 0.23406 0.1559 0.0
O351 O 0.56452 0.27984 0.14643 0.0
C352 C 0.5727 0.25715 0.15589 0.0
C353 C 0.51929 0.34007 0.10546 0.0
C354 C 0.47643 0.28157 0.1692 0.0
C355 C 0.49139 0.23625 0.08582 0.0
O356 O 0.48223 0.26118 0.08763 0.0
O357 O 0.5091 0.23034 0.104 0.0
O358 O 0.49094 0.33239 0.10184 0.0
O359 O 0.53484 0.32237 0.11593 0.0
H360 H 0.26202 0.74566 0.89445 0.0
H361 H 0.2513 0.81329 0.84423 0.0
H362 H 0.23783 0.84536 0.88141 0.0
H363 H 0.22978 0.85503 0.92827 0.0
H364 H 0.24674 0.79115 0.98027 0.0
H365 H 0.25726 0.75688 0.94243 0.0
C366 C 0.25718 0.76755 0.89164 0.0
C367 C 0.25715 0.77658 0.86622 0.0
C368 C 0.25034 0.78654 0.91345 0.0
C369 C 0.25063 0.80513 0.86321 0.0
C370 C 0.24309 0.8237 0.88455 0.0
C371 C 0.23537 0.83341 0.93121 0.0
C372 C 0.23687 0.82524 0.9568 0.0
C373 C 0.24267 0.81458 0.90968 0.0
C374 C 0.24508 0.79764 0.9606 0.0
C375 C 0.25123 0.77818 0.93902 0.0
H376 H 0.06341 0.52403 0.43518 0.0
H377 H 0.98087 0.49037 0.38822 0.0
H378 H 0.00518 0.49628 0.34761 0.0
H379 H 0.04948 0.51278 0.32569 0.0
H380 H 0.13249 0.54456 0.37263 0.0
H381 H 0.1084 0.53769 0.41311 0.0
C382 C 0.0508 0.51791 0.41604 0.0
C383 C 0.02037 0.50709 0.41456 0.0
C384 C 0.06495 0.52119 0.39286 0.0
C385 C 0.00434 0.49882 0.38971 0.0
C386 C 0.01818 0.50229 0.36655 0.0
C387 C 0.06227 0.51824 0.34479 0.0
C388 C 0.09262 0.52945 0.34622 0.0
C389 C 0.04839 0.5138 0.36792 0.0
C390 C 0.10906 0.53594 0.37104 0.0
C391 C 0.09531 0.53205 0.39418 0.0
H392 H 0.80811 0.76883 0.84576 0.0
H393 H 0.78791 0.84904 0.88952 0.0
H394 H 0.7946 0.82836 0.93091 0.0
H395 H 0.80483 0.78716 0.95451 0.0
H396 H 0.82527 0.70693 0.91093 0.0
H397 H 0.82085 0.72848 0.8697 0.0
C398 C 0.80553 0.78197 0.86436 0.0
C399 C 0.79733 0.81042 0.86445 0.0
C400 C 0.80972 0.77007 0.88815 0.0
C401 C 0.79365 0.82689 0.88877 0.0
C402 C 0.79775 0.81519 0.91249 0.0
C403 C 0.80871 0.77445 0.93607 0.0
C404 C 0.81532 0.74539 0.93589 0.0
C405 C 0.80562 0.78675 0.9124 0.0
C406 C 0.82016 0.72932 0.91172 0.0
C407 C 0.81748 0.74157 0.88809 0.0
H408 H 0.01871 0.03739 0.4524 0.0
H409 H 0.08998 0.01678 0.40584 0.0
H410 H 0.06181 0.0252 0.36568 0.0
H411 H 0.01621 0.03644 0.34376 0.0
H412 H 0.94503 0.05778 0.39049 0.0
H413 H 0.97412 0.05161 0.43071 0.0
C414 C 0.0279 0.03464 0.43339 0.0
C415 C 0.0561 0.02616 0.43186 0.0
C416 C 0.01177 0.0399 0.41053 0.0
C417 C 0.0682 0.02321 0.40733 0.0
C418 C 0.05215 0.02805 0.38444 0.0
C419 C 0.00714 0.0401 0.36275 0.0
C420 C 0.97836 0.04735 0.36401 0.0
C421 C 0.02384 0.03623 0.3858 0.0
C422 C 0.96709 0.05214 0.38887 0.0
C423 C 0.98363 0.04844 0.4119 0.0
H424 H 0.3067 0.29036 0.67679 0.0
H425 H 0.21195 0.28685 0.66454 0.0
H426 H 0.2129 0.26708 0.61803 0.0
H427 H 0.24054 0.25112 0.58095 0.0
H428 H 0.33517 0.2534 0.59296 0.0
H429 H 0.33446 0.2737 0.63949 0.0
C430 C 0.28631 0.28535 0.66387 0.0
C431 C 0.25929 0.29002 0.67405 0.0
C432 C 0.28703 0.27394 0.63716 0.0
C433 C 0.23297 0.28312 0.65722 0.0
C434 C 0.23352 0.272 0.63061 0.0
C435 C 0.26107 0.25618 0.59368 0.0
C436 C 0.2879 0.25093 0.58348 0.0
C437 C 0.26041 0.26739 0.62038 0.0
C438 C 0.31424 0.2573 0.60033 0.0
C439 C 0.31383 0.26887 0.62692 0.0
H440 H 0.57093 0.5268 0.6402 0.0
H441 H 0.5033 0.56984 0.60452 0.0
H442 H 0.47719 0.56962 0.64451 0.0
H443 H 0.47292 0.55646 0.68954 0.0
H444 H 0.53892 0.51067 0.724 0.0
H445 H 0.56601 0.51248 0.68458 0.0
C446 C 0.5503 0.53582 0.641 0.0
C447 C 0.53931 0.54847 0.61932 0.0
C448 C 0.53504 0.53518 0.66393 0.0
C449 C 0.51269 0.56043 0.621 0.0
C450 C 0.49758 0.56018 0.64385 0.0
C451 C 0.49334 0.54707 0.68846 0.0
C452 C 0.50393 0.53356 0.70971 0.0
C453 C 0.50856 0.54766 0.66547 0.0
C454 C 0.53025 0.52117 0.7079 0.0
C455 C 0.54577 0.52217 0.68535 0.0
H456 H 0.76509 0.27427 0.66704 0.0
H457 H 0.77334 0.36346 0.70753 0.0
H458 H 0.76891 0.38262 0.66485 0.0
H459 H 0.76436 0.37376 0.61581 0.0
H460 H 0.76184 0.28492 0.57614 0.0
H461 H 0.76195 0.26559 0.61868 0.0
C462 C 0.76565 0.29788 0.66652 0.0
C463 C 0.76916 0.31749 0.69026 0.0
C464 C 0.76404 0.30866 0.64205 0.0
C465 C 0.77055 0.34805 0.68938 0.0
C466 C 0.76798 0.35894 0.66504 0.0
C467 C 0.76346 0.35017 0.61663 0.0
C468 C 0.7627 0.33062 0.59309 0.0
C469 C 0.76486 0.33944 0.64123 0.0
C470 C 0.76226 0.30021 0.59415 0.0
C471 C 0.7624 0.28921 0.6184 0.0
H472 H 0.55352 0.02549 0.59334 0.0
H473 H 0.48423 0.07575 0.61665 0.0
H474 H 0.49804 0.07253 0.66295 0.0
H475 H 0.52892 0.05448 0.69689 0.0
H476 H 0.59433 -0.00027 0.67323 0.0
H477 H 0.5817 0.00438 0.62677 0.0
C478 C 0.5409 0.03531 0.60835 0.0
C479 C 0.51775 0.05087 0.60115 0.0
C480 C 0.54794 0.03214 0.63492 0.0
C481 C 0.50255 0.06418 0.62132 0.0
C482 C 0.51015 0.06201 0.6479 0.0
C483 C 0.54026 0.04338 0.68153 0.0
C484 C 0.56256 0.02683 0.68844 0.0
C485 C 0.53266 0.04589 0.6549 0.0
C486 C 0.57694 0.01242 0.66838 0.0
C487 C 0.56988 0.01527 0.64185 0.0
H488 H 0.8205 0.22898 0.81475 0.0
H489 H 0.85664 0.2665 0.74825 0.0
H490 H 0.90628 0.27366 0.77097 0.0
H491 H 0.93947 0.26924 0.80965 0.0
H492 H 0.90352 0.22927 0.87504 0.0
H493 H 0.85388 0.22214 0.85228 0.0
C494 C 0.83923 0.23836 0.80499 0.0
C495 C 0.83465 0.24731 0.77982 0.0
C496 C 0.86783 0.24171 0.81785 0.0
C497 C 0.85927 0.25995 0.76782 0.0
C498 C 0.88777 0.26378 0.78068 0.0
C499 C 0.92082 0.25881 0.81888 0.0
C500 C 0.92527 0.2499 0.84408 0.0
C501 C 0.8923 0.25476 0.8057 0.0
C502 C 0.90082 0.23629 0.85565 0.0
C503 C 0.87237 0.23233 0.84271 0.0
H504 H 0.50782 0.91736 0.52227 0.0
H505 H 0.51562 0.9756 0.46224 0.0
H506 H 0.52719 0.93519 0.43058 0.0
H507 H 0.53316 0.88257 0.41962 0.0
H508 H 0.52435 0.82474 0.4801 0.0
H509 H 0.51545 0.86578 0.51195 0.0
C510 C 0.51212 0.92117 0.50224 0.0
C511 C 0.51071 0.94921 0.49451 0.0
C512 C 0.51867 0.89794 0.48425 0.0
C513 C 0.51645 0.95408 0.46861 0.0
C514 C 0.52311 0.931 0.45052 0.0
C515 C 0.52964 0.87907 0.43985 0.0
C516 C 0.52931 0.8506 0.44741 0.0
C517 C 0.52407 0.90275 0.45808 0.0
C518 C 0.52454 0.84637 0.47368 0.0
C519 C 0.51941 0.86982 0.49194 0.0
H520 H 0.15927 0.29878 0.76838 0.0
H521 H 0.21009 0.27811 0.83604 0.0
H522 H 0.16531 0.27218 0.85982 0.0
H523 H 0.11192 0.27487 0.86182 0.0
H524 H 0.06269 0.29997 0.79528 0.0
H525 H 0.10651 0.30195 0.77047 0.0
C526 C 0.16048 0.29269 0.78823 0.0
C527 C 0.18778 0.28858 0.80043 0.0
C528 C 0.13492 0.29018 0.80195 0.0
C529 C 0.18919 0.28127 0.82631 0.0
C530 C 0.16364 0.27789 0.83987 0.0
C531 C 0.11082 0.28046 0.84179 0.0
C532 C 0.08418 0.28713 0.83029 0.0
C533 C 0.1364 0.28252 0.82795 0.0
C534 C 0.08303 0.29481 0.80451 0.0
C535 C 0.10805 0.29595 0.79033 0.0
H536 H 0.54012 0.63193 0.51916 0.0
H537 H 0.62767 0.63415 0.49244 0.0
H538 H 0.61613 0.66781 0.46082 0.0
H539 H 0.58116 0.69716 0.44129 0.0
H540 H 0.49358 0.69415 0.46838 0.0
H541 H 0.50509 0.6601 0.49916 0.0
C542 C 0.55673 0.63983 0.5065 0.0
C543 C 0.58479 0.6308 0.50822 0.0
C544 C 0.54987 0.65894 0.48833 0.0
C545 C 0.60594 0.641 0.49149 0.0
C546 C 0.59934 0.66016 0.47341 0.0
C547 C 0.56456 0.68889 0.4538 0.0
C548 C 0.53658 0.69826 0.45252 0.0
C549 C 0.57136 0.66933 0.47168 0.0
C550 C 0.51532 0.68737 0.46894 0.0
C551 C 0.52188 0.66791 0.48663 0.0
H552 H 0.90995 0.79972 0.78057 0.0
H553 H 0.84592 0.82944 0.72801 0.0
H554 H 0.87639 0.8209 0.69116 0.0
H555 H 0.92135 0.80511 0.67397 0.0
H556 H 0.98485 0.77451 0.72664 0.0
H557 H 0.95443 0.78322 0.76329 0.0
C558 C 0.90273 0.80431 0.76102 0.0
C559 C 0.87587 0.81521 0.75699 0.0
C560 C 0.92023 0.79918 0.73995 0.0
C561 C 0.86656 0.82101 0.73161 0.0
C562 C 0.88398 0.81615 0.71053 0.0
C563 C 0.92856 0.80036 0.69346 0.0
C564 C 0.95539 0.78922 0.69751 0.0
C565 C 0.91087 0.80527 0.71449 0.0
C566 C 0.96429 0.78305 0.7229 0.0
C567 C 0.94693 0.78806 0.74392 0.0
H568 H 0.10217 0.93096 0.56574 0.0
H569 H 0.01943 0.94349 0.52599 0.0
H570 H 0.99321 0.90283 0.54569 0.0
H571 H 0.99379 0.86293 0.57322 0.0
H572 H 0.07629 0.84977 0.61303 0.0
H573 H 0.10253 0.89144 0.59435 0.0
C574 C 0.07838 0.9248 0.56153 0.0
C575 C 0.06284 0.9401 0.54438 0.0
C576 C 0.06339 0.90125 0.57286 0.0
C577 C 0.03201 0.93201 0.53905 0.0
C578 C 0.01695 0.90874 0.5503 0.0
C579 C 0.01751 0.86918 0.57789 0.0
C580 C 0.03305 0.85318 0.59443 0.0
C581 C 0.03244 0.89307 0.56706 0.0
C582 C 0.06377 0.86167 0.60031 0.0
C583 C 0.07881 0.8855 0.58963 0.0
H584 H 0.20028 0.80484 0.73972 0.0
H585 H 0.18775 0.71055 0.74328 0.0
H586 H 0.14191 0.70422 0.71456 0.0
H587 H 0.10392 0.7257 0.69071 0.0
H588 H 0.11623 0.81963 0.68574 0.0
H589 H 0.16384 0.8259 0.71248 0.0
C590 C 0.18757 0.78292 0.73394 0.0
C591 C 0.19723 0.75827 0.74369 0.0
C592 C 0.16123 0.7794 0.71727 0.0
C593 C 0.1808 0.72991 0.73604 0.0
C594 C 0.15452 0.72626 0.71967 0.0
C595 C 0.11711 0.74753 0.69534 0.0
C596 C 0.10651 0.77223 0.68657 0.0
C597 C 0.14432 0.75088 0.71054 0.0
C598 C 0.12398 0.8003 0.69233 0.0
C599 C 0.1511 0.8039 0.70769 0.0
H600 H 0.95426 0.60571 0.52636 0.0
H601 H 0.04116 0.58828 0.55168 0.0
H602 H 0.0518 0.6371 0.57867 0.0
H603 H 0.03583 0.68407 0.59565 0.0
H604 H 0.9498 0.70271 0.56864 0.0
H605 H 0.93936 0.65413 0.54142 0.0
C606 C 0.97546 0.61273 0.53787 0.0
C607 C 0.99685 0.59359 0.53741 0.0
C608 C 0.98155 0.64094 0.55286 0.0
C609 C 0.02445 0.60282 0.55192 0.0
C610 C 0.03048 0.63062 0.5673 0.0
C611 C 0.01482 0.67753 0.58376 0.0
C612 C 0.99351 0.69682 0.5843 0.0
C613 C 0.00913 0.64978 0.56801 0.0
C614 C 0.96656 0.68825 0.56851 0.0
C615 C 0.96054 0.66044 0.55305 0.0
H616 H 0.79139 0.86892 0.26787 0.0
H617 H 0.87047 0.82933 0.2568 0.0
H618 H 0.90097 0.87806 0.2677 0.0
H619 H 0.90476 0.93201 0.27702 0.0
H620 H 0.82587 0.97205 0.28814 0.0
H621 H 0.79561 0.92296 0.2806 0.0
C622 C 0.81535 0.87094 0.26851 0.0
C623 C 0.82874 0.84568 0.26154 0.0
C624 C 0.83267 0.89907 0.27433 0.0
C625 C 0.85975 0.84857 0.26202 0.0
C626 C 0.87714 0.87638 0.26811 0.0
C627 C 0.88093 0.93004 0.27777 0.0
C628 C 0.86753 0.95565 0.28275 0.0
C629 C 0.86377 0.90184 0.27362 0.0
C630 C 0.8367 0.95267 0.28416 0.0
C631 C 0.8194 0.92462 0.2799 0.0
H632 H 0.78827 0.18543 0.33578 0.0
H633 H 0.82421 0.21524 0.26618 0.0
H634 H 0.85538 0.17604 0.2637 0.0
H635 H 0.87131 0.13222 0.28064 0.0
H636 H 0.83465 0.10257 0.35014 0.0
H637 H 0.80518 0.14285 0.35342 0.0
C638 C 0.80325 0.18362 0.32031 0.0
C639 C 0.8039 0.2032 0.3012 0.0
C640 C 0.82091 0.16093 0.31889 0.0
C641 C 0.82309 0.20025 0.281 0.0
C642 C 0.84096 0.17789 0.2796 0.0
C643 C 0.85695 0.13464 0.29654 0.0
C644 C 0.85516 0.11429 0.31503 0.0
C645 C 0.83984 0.15788 0.29829 0.0
C646 C 0.83643 0.1178 0.33554 0.0
C647 C 0.81953 0.14088 0.33748 0.0
H648 H 0.36893 0.04911 0.00358 0.0
H649 H 0.32168 0.04596 0.92707 0.0
H650 H 0.28343 0.00744 0.9379 0.0
H651 H 0.26513 0.97292 0.96816 0.0
H652 H 0.31428 0.97375 0.04353 0.0
H653 H 0.35002 0.01521 0.03428 0.0
C654 C 0.35 0.04023 0.98948 0.0
C655 C 0.34789 0.05031 0.96465 0.0
C656 C 0.3286 0.01768 0.99562 0.0
C657 C 0.32365 0.03838 0.94628 0.0
C658 C 0.30185 0.01643 0.95248 0.0
C659 C 0.28346 0.98241 0.9827 0.0
C660 C 0.28705 0.97033 0.00651 0.0
C661 C 0.30432 0.00566 0.97695 0.0
C662 C 0.3111 0.98262 0.02502 0.0
C663 C 0.33154 0.00629 0.01975 0.0
H664 H 0.29228 0.41823 0.31011 0.0
H665 H 0.21758 0.3485 0.30397 0.0
H666 H 0.18368 0.38399 0.29582 0.0
H667 H 0.17557 0.43522 0.29024 0.0
H668 H 0.25063 0.50501 0.29961 0.0
H669 H 0.28421 0.46918 0.30627 0.0
C670 C 0.26855 0.41088 0.30701 0.0
C671 C 0.25735 0.3809 0.30752 0.0
C672 C 0.24935 0.43138 0.30266 0.0
C673 C 0.2266 0.37158 0.30381 0.0
C674 C 0.20729 0.3918 0.29898 0.0
C675 C 0.19931 0.44239 0.29349 0.0
C676 C 0.21074 0.47256 0.29416 0.0
C677 C 0.21844 0.42177 0.29822 0.0
C678 C 0.24142 0.48184 0.29894 0.0
C679 C 0.2606 0.4614 0.3028 0.0
H680 H 0.1646 0.03989 0.45586 0.0
H681 H 0.13646 0.06941 0.53218 0.0
H682 H 0.1804 0.10746 0.54107 0.0
H683 H 0.22377 0.13547 0.52501 0.0
H684 H 0.25215 0.10572 0.44874 0.0
H685 H 0.2111 0.06451 0.44188 0.0
C686 C 0.16843 0.05441 0.47458 0.0
C687 C 0.14738 0.05215 0.49328 0.0
C688 C 0.19347 0.07635 0.47937 0.0
C689 C 0.15253 0.07074 0.5176 0.0
C690 C 0.17746 0.09262 0.52255 0.0
C691 C 0.22106 0.11984 0.50697 0.0
C692 C 0.2406 0.12386 0.48721 0.0
C693 C 0.19757 0.09617 0.50324 0.0
C694 C 0.23726 0.10315 0.46416 0.0
C695 C 0.21379 0.07964 0.46021 0.0
H696 H 0.74717 0.18305 0.79779 0.0
H697 H 0.71838 0.17808 0.71477 0.0
H698 H 0.68273 0.13426 0.71757 0.0
H699 H 0.6596 0.09754 0.74325 0.0
H700 H 0.68997 0.09956 0.82539 0.0
H701 H 0.72569 0.14412 0.8231 0.0
C702 C 0.73337 0.17218 0.78022 0.0
C703 C 0.73523 0.18421 0.7562 0.0
C704 C 0.71328 0.14648 0.78178 0.0
C705 C 0.71695 0.16988 0.7337 0.0
C706 C 0.69669 0.14463 0.7352 0.0
C707 C 0.67395 0.10776 0.76073 0.0
C708 C 0.67196 0.09552 0.78454 0.0
C709 C 0.69455 0.1329 0.75914 0.0
C710 C 0.69108 0.10867 0.80685 0.0
C711 C 0.71143 0.13412 0.80554 0.0
H712 H 0.44843 0.10654 0.56527 0.0
H713 H 0.48807 0.09931 0.49086 0.0
H714 H 0.45564 0.13173 0.47385 0.0
H715 H 0.41229 0.15741 0.47835 0.0
H716 H 0.37416 0.16657 0.55328 0.0
H717 H 0.4105 0.13895 0.57211 0.0
C718 C 0.45066 0.11265 0.5456 0.0
C719 C 0.47027 0.09979 0.5292 0.0
C720 C 0.43213 0.13161 0.53596 0.0
C721 C 0.47257 0.10804 0.50369 0.0
C722 C 0.45414 0.12675 0.49395 0.0
C723 C 0.4123 0.15382 0.49895 0.0
C724 C 0.39034 0.16364 0.51429 0.0
C725 C 0.43318 0.13786 0.50961 0.0
C726 C 0.39082 0.1592 0.54103 0.0
C727 C 0.41147 0.14321 0.55176 0.0
H728 H 0.61837 0.49322 0.58894 0.0
H729 H 0.58499 0.50432 0.51022 0.0
H730 H 0.61525 0.46905 0.49109 0.0
H731 H 0.65465 0.43881 0.49649 0.0
H732 H 0.68712 0.42574 0.57478 0.0
H733 H 0.65326 0.45741 0.59429 0.0
C734 C 0.61724 0.48745 0.56763 0.0
C735 C 0.59998 0.50203 0.55107 0.0
C736 C 0.63463 0.46687 0.55665 0.0
C737 C 0.59876 0.49416 0.52346 0.0
C738 C 0.61594 0.47385 0.51246 0.0
C739 C 0.65402 0.44258 0.51782 0.0
C740 C 0.67357 0.43029 0.53418 0.0
C741 C 0.63458 0.46075 0.52884 0.0
C742 C 0.67227 0.43499 0.56176 0.0
C743 C 0.65304 0.45324 0.57292 0.0
H744 H 0.75528 0.2449 0.37481 0.0
H745 H 0.75057 0.3212 0.33395 0.0
H746 H 0.74165 0.3504 0.37499 0.0
H747 H 0.73784 0.3552 0.42292 0.0
H748 H 0.74604 0.28012 0.46453 0.0
H749 H 0.75085 0.24955 0.4228 0.0
C750 C 0.75258 0.26799 0.37491 0.0
C751 C 0.75365 0.28077 0.35125 0.0
C752 C 0.74791 0.28487 0.39872 0.0
C753 C 0.74952 0.31062 0.35173 0.0
C754 C 0.74452 0.32741 0.37525 0.0
C755 C 0.74014 0.332 0.42281 0.0
C756 C 0.74141 0.31991 0.44678 0.0
C757 C 0.74385 0.31483 0.39888 0.0
C758 C 0.74493 0.28994 0.44633 0.0
C759 C 0.74783 0.27249 0.4225 0.0
H760 H 0.46894 0.00746 0.89463 0.0
H761 H 0.44192 0.07917 0.85645 0.0
H762 H 0.47883 0.07342 0.82451 0.0
H763 H 0.52076 0.05017 0.80933 0.0
H764 H 0.5511 0.98163 0.85004 0.0
H765 H 0.5109 0.98382 0.87912 0.0
C766 C 0.47104 0.02156 0.87911 0.0
C767 C 0.45293 0.04368 0.87778 0.0
C768 C 0.49296 0.01878 0.86143 0.0
C769 C 0.45583 0.0621 0.85785 0.0
C770 C 0.47689 0.05881 0.83962 0.0
C771 C 0.51835 0.03546 0.82436 0.0
C772 C 0.53875 0.01569 0.82752 0.0
C773 C 0.49586 0.03755 0.8415 0.0
C774 C 0.53566 0.99707 0.84732 0.0
C775 C 0.51271 -0.00168 0.86392 0.0
H776 H 0.28669 0.33414 0.38494 0.0
H777 H 0.30155 0.26162 0.32765 0.0
H778 H 0.30586 0.23044 0.36257 0.0
H779 H 0.3073 0.22418 0.4094 0.0
H780 H 0.28959 0.29502 0.4669 0.0
H781 H 0.28439 0.32644 0.43189 0.0
C782 C 0.29034 0.31136 0.38007 0.0
C783 C 0.29424 0.3004 0.35376 0.0
C784 C 0.29263 0.29337 0.4003 0.0
C785 C 0.29908 0.27083 0.3478 0.0
C786 C 0.30151 0.25294 0.36774 0.0
C787 C 0.30247 0.24657 0.41431 0.0
C788 C 0.2993 0.25746 0.44072 0.0
C789 C 0.29886 0.26414 0.39409 0.0
C790 C 0.29233 0.28624 0.4467 0.0
C791 C 0.28931 0.30416 0.4267 0.0
H792 H 0.56849 0.5493 0.92419 0.0
H793 H 0.49175 0.55362 0.96822 0.0
H794 H 0.46102 0.55461 0.92727 0.0
H795 H 0.45584 0.55249 0.87895 0.0
H796 H 0.53256 0.54684 0.8349 0.0
H797 H 0.56361 0.54867 0.87606 0.0
C798 C 0.54512 0.55089 0.92486 0.0
C799 C 0.53237 0.55149 0.94915 0.0
C800 C 0.52765 0.55122 0.9013 0.0
C801 C 0.50196 0.55294 0.94969 0.0
C802 C 0.48446 0.55361 0.92633 0.0
C803 C 0.4794 0.55194 0.87833 0.0
C804 C 0.49184 0.54949 0.85385 0.0
C805 C 0.49703 0.5525 0.90201 0.0
C806 C 0.52239 0.54862 0.85345 0.0
C807 C 0.54017 0.54964 0.87697 0.0
H808 H 0.80694 0.81215 0.17229 0.0
H809 H 0.79488 0.72182 0.18932 0.0
H810 H 0.80144 0.7041 0.14309 0.0
H811 H 0.80793 0.71448 0.09734 0.0
H812 H 0.8162 0.8048 0.08042 0.0
H813 H 0.81478 0.82259 0.12736 0.0
C814 C 0.80616 0.7886 0.16596 0.0
C815 C 0.80063 0.76829 0.18412 0.0
C816 C 0.80955 0.7787 0.13947 0.0
C817 C 0.79899 0.73781 0.17558 0.0
C818 C 0.80289 0.72774 0.14924 0.0
C819 C 0.81011 0.73807 0.10413 0.0
C820 C 0.81252 0.75842 0.08568 0.0
C821 C 0.80794 0.74799 0.13096 0.0
C822 C 0.81454 0.78886 0.09442 0.0
C823 C 0.81353 0.79898 0.12117 0.0
H824 H 0.04277 0.02182 0.14356 0.0
H825 H 0.96832 0.05668 0.10922 0.0
H826 H 0.94624 0.05873 0.15129 0.0
H827 H 0.94742 0.0499 0.19786 0.0
H828 H 0.01992 0.01168 0.23128 0.0
H829 H 0.04315 0.01146 0.18963 0.0
C830 C 0.02155 0.02954 0.14513 0.0
C831 C 0.00749 0.03934 0.12316 0.0
C832 C 0.00857 0.03014 0.16934 0.0
C833 C 0.98009 0.04958 0.12584 0.0
C834 C 0.96728 0.05061 0.14991 0.0
C835 C 0.96841 0.04175 0.19606 0.0
C836 C 0.982 0.031 0.21766 0.0
C837 C 0.98133 0.04103 0.17182 0.0
C838 C 0.009 0.0201 0.21493 0.0
C839 C 0.0223 0.01992 0.1911 0.0
H840 H 0.26208 0.8112 0.17862 0.0
H841 H 0.35385 0.85098 0.18362 0.0
H842 H 0.34459 0.87269 0.14307 0.0
H843 H 0.31115 0.878 0.105 0.0
H844 H 0.21878 0.84068 0.10072 0.0
H845 H 0.22739 0.82049 0.14235 0.0
C846 C 0.27997 0.82474 0.17086 0.0
C847 C 0.30872 0.82921 0.18379 0.0
C848 C 0.27438 0.83748 0.14772 0.0
C849 C 0.33159 0.84719 0.17386 0.0
C850 C 0.32633 0.85952 0.15068 0.0
C851 C 0.29288 0.86557 0.11328 0.0
C852 C 0.26447 0.86047 0.09974 0.0
C853 C 0.29794 0.85443 0.13725 0.0
C854 C 0.24086 0.84482 0.11083 0.0
C855 C 0.24581 0.83319 0.13455 0.0
H856 H 0.99308 0.55539 0.12754 0.0
H857 H 0.07258 0.54159 0.08994 0.0
H858 H 0.09796 0.53763 0.13257 0.0
H859 H 0.09774 0.53784 0.18054 0.0
H860 H 0.02002 0.5557 0.21903 0.0
H861 H 0.99374 0.55822 0.17613 0.0
C862 C 0.01609 0.55199 0.12874 0.0
C863 C 0.03075 0.54846 0.1055 0.0
C864 C 0.03076 0.55009 0.15345 0.0
C865 C 0.06055 0.54383 0.10743 0.0
C866 C 0.07513 0.54161 0.13182 0.0
C867 C 0.07492 0.54191 0.17945 0.0
C868 C 0.06063 0.54611 0.20275 0.0
C869 C 0.06038 0.54437 0.1549 0.0
C870 C 0.03134 0.55214 0.20124 0.0
C871 C 0.01638 0.55373 0.17676 0.0
H872 H 0.35371 0.72979 0.304 0.0
H873 H 0.39574 0.77262 0.2427 0.0
H874 H 0.44358 0.77891 0.26864 0.0
H875 H 0.4733 0.77302 0.30914 0.0
H876 H 0.43119 0.72761 0.36899 0.0
H877 H 0.38374 0.72052 0.34255 0.0
C878 C 0.37335 0.73999 0.29596 0.0
C879 C 0.37093 0.75078 0.27138 0.0
C880 C 0.40088 0.74287 0.31062 0.0
C881 C 0.3967 0.76458 0.26175 0.0
C882 C 0.42417 0.76795 0.27646 0.0
C883 C 0.45381 0.76133 0.3163 0.0
C884 C 0.45584 0.75103 0.34111 0.0
C885 C 0.42648 0.75731 0.301 0.0
C886 C 0.43035 0.73578 0.34999 0.0
C887 C 0.40312 0.73183 0.33494 0.0
H888 H 0.01861 0.4154 0.0246 0.0
H889 H 0.01143 0.47332 0.96491 0.0
H890 H 0.01303 0.43192 0.93015 0.0
H891 H 0.01457 0.37869 0.91683 0.0
H892 H 0.01994 0.32094 0.97706 0.0
H893 H 0.02112 0.36288 0.01151 0.0
C894 C 0.01752 0.41893 0.00396 0.0
C895 C 0.01479 0.44718 0.99726 0.0
C896 C 0.01811 0.39507 0.98421 0.0
C897 C 0.0134 0.45165 0.97052 0.0
C898 C 0.01434 0.42801 0.95067 0.0
C899 C 0.01628 0.37537 0.9375 0.0
C900 C 0.01711 0.34673 0.94436 0.0
C901 C 0.01644 0.39955 0.95728 0.0
C902 C 0.0191 0.34272 0.97123 0.0
C903 C 0.01978 0.36668 0.99096 0.0
H904 H 0.71705 0.76263 0.33484 0.0
H905 H 0.68697 0.78855 0.26048 0.0
H906 H 0.63899 0.79444 0.27692 0.0
H907 H 0.60606 0.79363 0.31285 0.0
H908 H 0.6344 0.76441 0.38622 0.0
H909 H 0.68252 0.75822 0.3698 0.0
C910 C 0.69985 0.76937 0.32225 0.0
C911 C 0.70547 0.7752 0.29657 0.0
C912 C 0.67209 0.77219 0.33168 0.0
C913 C 0.68308 0.78376 0.28029 0.0
C914 C 0.65568 0.78726 0.28971 0.0
C915 C 0.62279 0.78588 0.32522 0.0
C916 C 0.61691 0.77979 0.35079 0.0
C917 C 0.65004 0.78177 0.31543 0.0
C918 C 0.63851 0.76927 0.36647 0.0
C919 C 0.66601 0.7658 0.35711 0.0
H920 H 0.06585 0.11407 0.97844 0.0
H921 H 0.99511 0.12501 0.02878 0.0
H922 H 0.97939 0.16255 0.00347 0.0
H923 H 0.98589 0.19269 0.96757 0.0
H924 H 0.05675 0.18293 0.91714 0.0
H925 H 0.07218 0.14443 0.94186 0.0
C926 C 0.047 0.12473 0.9838 0.0
C927 C 0.03177 0.11684 0.00548 0.0
C928 C 0.03807 0.14644 0.96915 0.0
C929 C 0.00734 0.13071 0.01226 0.0
C930 C -0.00172 0.15218 0.99776 0.0
C931 C 0.00467 0.1821 0.96186 0.0
C932 C 0.02013 0.19068 0.9405 0.0
C933 C 0.0135 0.16026 0.97624 0.0
C934 C 0.04444 0.17674 0.93348 0.0
C935 C 0.05329 0.15476 0.94764 0.0
H936 H 0.4102 0.28659 0.27383 0.0
H937 H 0.365 0.34685 0.23347 0.0
H938 H 0.39478 0.33968 0.19604 0.0
H939 H 0.43343 0.31635 0.17479 0.0
H940 H 0.47839 0.25534 0.21451 0.0
H941 H 0.4488 0.26265 0.25215 0.0
C942 C 0.40698 0.29816 0.25682 0.0
C943 C 0.38554 0.31721 0.2564 0.0
C944 C 0.42402 0.29375 0.23526 0.0
C945 C 0.38137 0.33203 0.23427 0.0
C946 C 0.39838 0.32794 0.21285 0.0
C947 C 0.43682 0.30461 0.19165 0.0
C948 C 0.45816 0.28536 0.19181 0.0
C949 C 0.41972 0.30884 0.21314 0.0
C950 C 0.4621 0.27026 0.21382 0.0
C951 C 0.44522 0.27446 0.23538 0.0
H952 H 0.59598 0.45168 0.07011 0.0
H953 H 0.50851 0.4708 0.04848 0.0
H954 H 0.48627 0.42674 0.06604 0.0
H955 H 0.49145 0.38176 0.08564 0.0
H956 H 0.57852 0.36149 0.10705 0.0
H957 H 0.60115 0.40708 0.09157 0.0
C958 C 0.57207 0.44622 0.06946 0.0
C959 C 0.55395 0.46428 0.05786 0.0
C960 C 0.55936 0.42063 0.07942 0.0
C961 C 0.52299 0.45714 0.05711 0.0
C962 C 0.51022 0.43193 0.06716 0.0
C963 C 0.5154 0.3873 0.08703 0.0
C964 C 0.53327 0.36817 0.09732 0.0
C965 C 0.52818 0.41334 0.07801 0.0
C966 C 0.56426 0.37582 0.09912 0.0
C967 C 0.57721 0.40185 0.09026 0.0
H968 H 0.6968 0.27767 0.22205 0.0
H969 H 0.6858 0.18241 0.20304 0.0
H970 H 0.63992 0.18295 0.1757 0.0
H971 H 0.601 0.21006 0.16037 0.0
H972 H 0.61247 0.30546 0.17782 0.0
H973 H 0.66035 0.30543 0.20245 0.0
C974 C 0.68445 0.25709 0.21172 0.0
C975 C 0.69427 0.22995 0.21482 0.0
C976 C 0.65821 0.25762 0.19591 0.0
C977 C 0.67846 0.20351 0.20101 0.0
C978 C 0.65223 0.2038 0.18547 0.0
C979 C 0.61414 0.23086 0.16936 0.0
C980 C 0.60315 0.25768 0.16764 0.0
C981 C 0.64158 0.23065 0.18327 0.0
C982 C 0.62053 0.28453 0.17895 0.0
C983 C 0.64779 0.2845 0.19313 0.0
H984 H 0.46102 0.12814 0.9947 0.0
H985 H 0.37969 0.16473 0.98697 0.0
H986 H 0.3997 0.2061 0.02149 0.0
H987 H 0.43955 0.23033 0.05519 0.0
H988 H 0.51922 0.19112 0.06533 0.0
H989 H 0.50078 0.15225 0.02846 0.0
C990 C 0.44793 0.14544 0.00044 0.0
C991 C 0.41917 0.14381 0.98834 0.0
C992 C 0.45922 0.16847 0.02076 0.0
C993 C 0.40198 0.16583 0.9961 0.0
C994 C 0.41339 0.18935 0.01578 0.0
C995 C 0.45296 0.21342 0.04915 0.0
C996 C 0.48071 0.21358 0.06285 0.0
C997 C 0.44186 0.19071 0.02844 0.0
C998 C 0.49772 0.19135 0.0551 0.0
C999 C 0.48723 0.16917 0.03403 0.0
H1000 H 0.33653 0.35478 0.73223 0.0
H1001 H 0.2646 0.38996 0.76927 0.0
H1002 H 0.29652 0.43736 0.78319 0.0
H1003 H 0.34409 0.4696 0.78294 0.0
H1004 H 0.41539 0.43471 0.74443 0.0
H1005 H 0.38422 0.38665 0.73256 0.0
C1006 C 0.32779 0.37284 0.74328 0.0
C1007 C 0.29819 0.36879 0.74962 0.0
C1008 C 0.34604 0.40023 0.75072 0.0
C1009 C 0.2874 0.39228 0.7644 0.0
C1010 C 0.30556 0.41952 0.77215 0.0
C1011 C 0.35286 0.45151 0.77196 0.0
C1012 C 0.38203 0.4559 0.7645 0.0
C1013 C 0.3348 0.42386 0.76513 0.0
C1014 C 0.393 0.43208 0.75037 0.0
C1015 C 0.37521 0.40453 0.74359 0.0
H1016 H 0.32727 0.70191 0.78693 0.0
H1017 H 0.29289 0.68023 0.85983 0.0
H1018 H 0.32196 0.63945 0.85975 0.0
H1019 H 0.35462 0.60812 0.83752 0.0
H1020 H 0.38851 0.62938 0.76428 0.0
H1021 H 0.36177 0.67196 0.76575 0.0
C1022 C 0.32616 0.68827 0.80282 0.0
C1023 C 0.30775 0.69398 0.82326 0.0
C1024 C 0.34257 0.66461 0.80242 0.0
C1025 C 0.30703 0.67648 0.84398 0.0
C1026 C 0.32344 0.65299 0.84381 0.0
C1027 C 0.3562 0.62207 0.82187 0.0
C1028 C 0.37332 0.61539 0.80066 0.0
C1029 C 0.34086 0.64655 0.82289 0.0
C1030 C 0.3754 0.63392 0.78074 0.0
C1031 C 0.36012 0.65829 0.78158 0.0
H1032 H 0.90285 0.52691 0.51394 0.0
H1033 H 0.95707 0.45769 0.51711 0.0
H1034 H 0.91334 0.42197 0.5218 0.0
H1035 H 0.85953 0.41009 0.52293 0.0
H1036 H 0.80498 0.4789 0.5175 0.0
H1037 H 0.84905 0.51523 0.51599 0.0
C1038 C 0.90505 0.50407 0.516 0.0
C1039 C 0.93299 0.49484 0.51525 0.0
C1040 C 0.8798 0.48363 0.51817 0.0
C1041 C 0.93565 0.46515 0.51751 0.0
C1042 C 0.91072 0.44479 0.52022 0.0
C1043 C 0.8573 0.43309 0.52166 0.0
C1044 C 0.82903 0.44177 0.5203 0.0
C1045 C 0.88265 0.45372 0.52026 0.0
C1046 C 0.82649 0.47161 0.51844 0.0
C1047 C 0.85166 0.49241 0.51759 0.0
H1048 H 0.74882 0.89312 0.84787 0.0
H1049 H 0.73115 0.85369 0.76616 0.0
H1050 H 0.69489 0.88686 0.75903 0.0
H1051 H 0.66951 0.92846 0.77568 0.0
H1052 H 0.68723 0.96711 0.85767 0.0
H1053 H 0.72164 0.93246 0.86505 0.0
C1054 C 0.73668 0.89137 0.82861 0.0
C1055 C 0.74283 0.87099 0.80758 0.0
C1056 C 0.71584 0.91044 0.82465 0.0
C1057 C 0.72719 0.86947 0.78262 0.0
C1058 C 0.70634 0.88834 0.77854 0.0
C1059 C 0.68074 0.92914 0.7952 0.0
C1060 C 0.67587 0.95048 0.81602 0.0
C1061 C 0.70072 0.90917 0.79935 0.0
C1062 C 0.69059 0.95102 0.84122 0.0
C1063 C 0.71034 0.93121 0.84549 0.0
H1064 H 0.61288 0.62231 0.0016 0.0
H1065 H 0.65005 0.5423 0.00942 0.0
H1066 H 0.70016 0.56996 0.01163 0.0
H1067 H 0.7331 0.61633 0.00873 0.0
H1068 H 0.69573 0.69651 0.00159 0.0
H1069 H 0.64589 0.66929 0.00156 0.0
C1070 C 0.63202 0.61104 0.00393 0.0
C1071 C 0.62795 0.58038 0.00518 0.0
C1072 C 0.6606 0.62702 0.00506 0.0
C1073 C 0.65277 0.56597 0.00857 0.0
C1074 C 0.68135 0.58171 0.00963 0.0
C1075 C 0.71404 0.62783 0.00718 0.0
C1076 C 0.71804 0.65829 0.00486 0.0
C1077 C 0.68549 0.61213 0.00744 0.0
C1078 C 0.6932 0.67303 0.00331 0.0
C1079 C 0.66471 0.6575 0.00328 0.0
H1080 H 0.23468 0.71554 0.25243 0.0
H1081 H 0.30242 0.6612 0.23531 0.0
H1082 H 0.26897 0.61705 0.24214 0.0
H1083 H 0.22157 0.5943 0.25495 0.0
H1084 H 0.15312 0.64797 0.27159 0.0
H1085 H 0.18571 0.69198 0.26275 0.0
C1086 C 0.24189 0.69395 0.24978 0.0
C1087 C 0.27104 0.69164 0.24362 0.0
C1088 C 0.22256 0.66863 0.25385 0.0
C1089 C 0.28022 0.66357 0.24044 0.0
C1090 C 0.26111 0.63833 0.2443 0.0
C1091 C 0.21372 0.61561 0.25666 0.0
C1092 C 0.18507 0.61789 0.2642 0.0
C1093 C 0.23245 0.64069 0.25145 0.0
C1094 C 0.17513 0.64562 0.26593 0.0
C1095 C 0.19375 0.67079 0.26088 0.0
H1096 H 0.92736 0.55163 0.01777 0.0
H1097 H 0.9818 0.62454 0.06794 0.0
H1098 H 0.9457 0.65719 0.05847 0.0
H1099 H 0.89904 0.66535 0.03474 0.0
H1100 H 0.84748 0.59264 0.98209 0.0
H1101 H 0.88257 0.55993 0.99318 0.0
C1102 C 0.93177 0.57477 0.02634 0.0
C1103 C 0.95753 0.5855 0.04342 0.0
C1104 C 0.91144 0.5936 0.02021 0.0
C1105 C 0.96209 0.61544 0.05494 0.0
C1106 C 0.94154 0.63424 0.04936 0.0
C1107 C 0.89555 0.64235 0.02572 0.0
C1108 C 0.87068 0.63149 0.00759 0.0
C1109 C 0.91618 0.6236 0.03189 0.0
C1110 C 0.86651 0.60166 0.99598 0.0
C1111 C 0.88653 0.58286 0.00237 0.0
H1112 H 0.08976 0.98998 0.09004 0.0
H1113 H 0.0447 0.98835 0.0127 0.0
H1114 H 0.07601 0.95411 0.99347 0.0
H1115 H 0.11931 0.92871 0.99776 0.0
H1116 H 0.16456 0.92967 0.07486 0.0
H1117 H 0.1296 0.95938 0.09509 0.0
C1118 C 0.0864 0.98165 0.06909 0.0
C1119 C 0.0653 0.99224 0.05277 0.0
C1120 C 0.10459 0.96189 0.05807 0.0
C1121 C 0.06127 0.98118 0.02562 0.0
C1122 C 0.07908 0.96148 0.0146 0.0
C1123 C 0.12128 0.93501 0.01905 0.0
C1124 C 0.14472 0.92725 0.03471 0.0
C1125 C 0.10135 0.95237 0.03049 0.0
C1126 C 0.14674 0.93537 0.06231 0.0
C1127 C 0.12686 0.95254 0.07389 0.0
loop_
_geom_bond_atom_site_label_1
_geom_bond_atom_site_label_2
_geom_bond_distance
_geom_bond_site_symmetry_2
_ccdc_geom_bond_type
H0 C5 0.930 . S
H1 C8 0.930 . S
H2 C10 0.930 . S
H3 C4 1.016 . S
C4 H3 1.016 . S
C4 N11 1.286 . S
C5 H0 0.930 . S
C5 C6 1.397 . S
C5 C7 1.361 . S
C6 C5 1.397 . S
C6 C10 1.390 . S
C7 C5 1.361 . S
C7 C8 1.393 . S
C7 N11 1.413 . S
C8 H1 0.930 . S
C8 C7 1.393 . S
C8 C9 1.399 . S
C9 C8 1.399 . S
C9 C10 1.381 . S
C10 H2 0.930 . S
C10 C6 1.390 . S
C10 C9 1.381 . S
N11 C4 1.286 . S
N11 C7 1.413 . S
H12 C17 0.930 . S
H13 C20 0.930 . S
H14 C22 0.930 . S
H15 C16 1.016 . S
C16 H15 1.016 . S
C16 N23 1.286 . S
C17 H12 0.930 . S
C17 C18 1.397 . S
C17 C19 1.361 . S
C18 C17 1.397 . S
C18 C22 1.390 . S
C19 C17 1.361 . S
C19 C20 1.393 . S
C19 N23 1.413 . S
C20 H13 0.930 . S
C20 C19 1.393 . S
C20 C21 1.399 . S
C21 C20 1.399 . S
C21 C22 1.381 . S
C22 H14 0.930 . S
C22 C18 1.390 . S
C22 C21 1.381 . S
N23 C16 1.286 . S
N23 C19 1.413 . S
H24 C29 0.930 . S
H25 C32 0.930 . S
H26 C34 0.930 . S
H27 C28 1.016 . S
C28 H27 1.016 . S
C28 N35 1.286 . S
C29 H24 0.930 . S
C29 C30 1.397 . S
C29 C31 1.361 . S
C30 C29 1.397 . S
C30 C34 1.390 . S
C31 C29 1.361 . S
C31 C32 1.393 . S
C31 N35 1.413 . S
C32 H25 0.930 . S
C32 C31 1.393 . S
C32 C33 1.399 . S
C33 C32 1.399 . S
C33 C34 1.381 . S
C34 H26 0.930 . S
C34 C30 1.390 . S
C34 C33 1.381 . S
N35 C28 1.286 . S
N35 C31 1.413 . S
H36 C41 0.930 . S
H37 C44 0.930 . S
H38 C46 0.930 . S
H39 C40 1.016 . S
C40 H39 1.016 . S
C40 N47 1.286 . S
C41 H36 0.930 . S
C41 C42 1.397 . S
C41 C43 1.361 . S
C42 C41 1.397 . S
C42 C46 1.390 . S
C43 C41 1.361 . S
C43 C44 1.393 . S
C43 N47 1.413 . S
C44 H37 0.930 . S
C44 C43 1.393 . S
C44 C45 1.399 . S
C45 C44 1.399 . S
C45 C46 1.381 . S
C46 H38 0.930 . S
C46 C42 1.390 . S
C46 C45 1.381 . S
N47 C40 1.286 . S
N47 C43 1.413 . S
H48 C53 0.930 . S
H49 C56 0.930 . S
H50 C58 0.930 1_545 S
H51 C52 1.016 . S
C52 H51 1.016 . S
C52 N59 1.286 . S
C53 H48 0.930 . S
C53 C54 1.397 . S
C53 C55 1.361 . S
C54 C53 1.397 . S
C54 C58 1.390 . S
C55 C53 1.361 . S
C55 C56 1.393 . S
C55 N59 1.413 . S
C56 H49 0.930 . S
C56 C55 1.393 . S
C56 C57 1.399 . S
C57 C56 1.399 . S
C57 C58 1.381 . S
C58 H50 0.930 1_565 S
C58 C54 1.390 . S
C58 C57 1.381 . S
N59 C52 1.286 . S
N59 C55 1.413 . S
H60 C65 0.930 . S
H61 C68 0.930 . S
H62 C70 0.930 . S
H63 C64 1.016 . S
C64 H63 1.016 . S
C64 N71 1.286 . S
C65 H60 0.930 . S
C65 C66 1.397 . S
C65 C67 1.361 . S
C66 C65 1.397 . S
C66 C70 1.390 . S
C67 C65 1.361 . S
C67 C68 1.393 . S
C67 N71 1.413 . S
C68 H61 0.930 . S
C68 C67 1.393 . S
C68 C69 1.399 . S
C69 C68 1.399 . S
C69 C70 1.381 . S
C70 H62 0.930 . S
C70 C66 1.390 . S
C70 C69 1.381 . S
N71 C64 1.286 . S
N71 C67 1.413 . S
H72 C77 0.930 . S
H73 C80 0.930 . S
H74 C82 0.930 . S
H75 C76 1.016 . S
C76 H75 1.016 . S
C76 N83 1.286 . S
C77 H72 0.930 . S
C77 C78 1.397 . S
C77 C79 1.361 . S
C78 C77 1.397 . S
C78 C82 1.390 . S
C79 C77 1.361 . S
C79 C80 1.393 . S
C79 N83 1.413 . S
C80 H73 0.930 . S
C80 C79 1.393 . S
C80 C81 1.399 . S
C81 C80 1.399 . S
C81 C82 1.381 . S
C82 H74 0.930 . S
C82 C78 1.390 . S
C82 C81 1.381 . S
N83 C76 1.286 . S
N83 C79 1.413 . S
H84 C89 0.930 . S
H85 C92 0.930 . S
H86 C94 0.930 . S
H87 C88 1.016 . S
C88 H87 1.016 . S
C88 N95 1.286 . S
C89 H84 0.930 . S
C89 C90 1.397 . S
C89 C91 1.361 . S
C90 C89 1.397 . S
C90 C94 1.390 . S
C91 C89 1.361 . S
C91 C92 1.393 . S
C91 N95 1.413 . S
C92 H85 0.930 . S
C92 C91 1.393 . S
C92 C93 1.399 . S
C93 C92 1.399 . S
C93 C94 1.381 . S
C94 H86 0.930 . S
C94 C90 1.390 . S
C94 C93 1.381 . S
N95 C88 1.286 . S
N95 C91 1.413 . S
H96 C101 0.930 . S
H97 C104 0.930 . S
H98 C106 0.930 . S
H99 C100 1.016 . S
C100 H99 1.016 . S
C100 N107 1.286 . S
C101 H96 0.930 . S
C101 C102 1.397 . S
C101 C103 1.361 . S
C102 C101 1.397 . S
C102 C106 1.390 . S
C103 C101 1.361 . S
C103 C104 1.393 . S
C103 N107 1.413 . S
C104 H97 0.930 . S
C104 C103 1.393 . S
C104 C105 1.399 . S
C105 C104 1.399 . S
C105 C106 1.381 . S
C106 H98 0.930 . S
C106 C102 1.390 . S
C106 C105 1.381 . S
N107 C100 1.286 . S
N107 C103 1.413 . S
H108 C113 0.930 . S
H109 C116 0.930 . S
H110 C118 0.930 . S
H111 C112 1.016 . S
C112 H111 1.016 . S
C112 N119 1.286 . S
C113 H108 0.930 . S
C113 C114 1.397 . S
C113 C115 1.361 . S
C114 C113 1.397 . S
C114 C118 1.390 . S
C115 C113 1.361 . S
C115 C116 1.393 . S
C115 N119 1.413 . S
C116 H109 0.930 . S
C116 C115 1.393 . S
C116 C117 1.399 . S
C117 C116 1.399 . S
C117 C118 1.381 . S
C118 H110 0.930 . S
C118 C114 1.390 . S
C118 C117 1.381 . S
N119 C112 1.286 . S
N119 C115 1.413 . S
H120 C125 0.930 . S
H121 C128 0.930 . S
H122 C130 0.930 . S
H123 C124 1.016 . S
C124 H123 1.016 . S
C124 N131 1.286 . S
C125 H120 0.930 . S
C125 C126 1.397 . S
C125 C127 1.361 . S
C126 C125 1.397 . S
C126 C130 1.390 . S
C127 C125 1.361 . S
C127 C128 1.393 . S
C127 N131 1.413 . S
C128 H121 0.930 . S
C128 C127 1.393 . S
C128 C129 1.399 . S
C129 C128 1.399 . S
C129 C130 1.381 . S
C130 H122 0.930 . S
C130 C126 1.390 . S
C130 C129 1.381 . S
N131 C124 1.286 . S
N131 C127 1.413 . S
H132 C137 0.930 . S
H133 C140 0.930 . S
H134 C142 0.930 . S
H135 C136 1.016 . S
C136 H135 1.016 . S
C136 N143 1.286 . S
C137 H132 0.930 . S
C137 C138 1.397 . S
C137 C139 1.361 . S
C138 C137 1.397 . S
C138 C142 1.390 . S
C139 C137 1.361 . S
C139 C140 1.393 . S
C139 N143 1.413 . S
C140 H133 0.930 . S
C140 C139 1.393 . S
C140 C141 1.399 . S
C141 C140 1.399 . S
C141 C142 1.381 . S
C142 H134 0.930 . S
C142 C138 1.390 . S
C142 C141 1.381 . S
N143 C136 1.286 . S
N143 C139 1.413 . S
H144 C149 0.930 . S
H145 C152 0.930 . S
H146 C154 0.930 . S
H147 C148 1.016 . S
C148 H147 1.016 . S
C148 N155 1.286 . S
C149 H144 0.930 . S
C149 C150 1.397 . S
C149 C151 1.361 . S
C150 C149 1.397 . S
C150 C154 1.390 . S
C151 C149 1.361 . S
C151 C152 1.393 . S
C151 N155 1.413 . S
C152 H145 0.930 . S
C152 C151 1.393 . S
C152 C153 1.399 . S
C153 C152 1.399 . S
C153 C154 1.381 . S
C154 H146 0.930 . S
C154 C150 1.390 . S
C154 C153 1.381 . S
N155 C148 1.286 . S
N155 C151 1.413 . S
H156 C161 0.930 . S
H157 C164 0.930 . S
H158 C166 0.930 . S
H159 C160 1.016 . S
C160 H159 1.016 . S
C160 N167 1.286 . S
C161 H156 0.930 . S
C161 C162 1.397 . S
C161 C163 1.361 . S
C162 C161 1.397 . S
C162 C166 1.390 . S
C163 C161 1.361 . S
C163 C164 1.393 . S
C163 N167 1.413 . S
C164 H157 0.930 . S
C164 C163 1.393 . S
C164 C165 1.399 . S
C165 C164 1.399 . S
C165 C166 1.381 . S
C166 H158 0.930 . S
C166 C162 1.390 . S
C166 C165 1.381 . S
N167 C160 1.286 . S
N167 C163 1.413 . S
H168 C173 0.930 . S
H169 C176 0.930 . S
H170 C178 0.930 . S
H171 C172 1.016 . S
C172 H171 1.016 . S
C172 N179 1.286 . S
C173 H168 0.930 . S
C173 C174 1.397 . S
C173 C175 1.361 . S
C174 C173 1.397 . S
C174 C178 1.390 . S
C175 C173 1.361 . S
C175 C176 1.393 . S
C175 N179 1.413 . S
C176 H169 0.930 . S
C176 C175 1.393 . S
C176 C177 1.399 . S
C177 C176 1.399 . S
C177 C178 1.381 . S
C178 H170 0.930 . S
C178 C174 1.390 . S
C178 C177 1.381 . S
N179 C172 1.286 . S
N179 C175 1.413 . S
H180 C185 0.930 . S
H181 C188 0.930 . S
H182 C190 0.930 . S
H183 C184 1.016 . S
C184 H183 1.016 . S
C184 N191 1.286 . S
C185 H180 0.930 . S
C185 C186 1.397 . S
C185 C187 1.361 . S
C186 C185 1.397 . S
C186 C190 1.390 . S
C187 C185 1.361 . S
C187 C188 1.393 . S
C187 N191 1.413 . S
C188 H181 0.930 . S
C188 C187 1.393 . S
C188 C189 1.399 . S
C189 C188 1.399 . S
C189 C190 1.381 . S
C190 H182 0.930 . S
C190 C186 1.390 . S
C190 C189 1.381 . S
N191 C184 1.286 . S
N191 C187 1.413 . S
O192 Cd193 2.223 . S
O192 C200 1.315 . S
Cd193 O192 2.223 . S
Cd193 O196 2.297 . S
Cd193 O197 2.439 . S
Cd193 O203 2.240 . S
Cd194 O195 2.240 . S
Cd194 O202 2.223 . S
Cd194 O204 2.297 . S
Cd194 O205 2.439 . S
O195 Cd194 2.240 . S
O195 C200 1.279 . S
O196 Cd193 2.297 . S
O196 C198 1.247 . S
O197 Cd193 2.439 . S
O197 C198 1.208 . S
C198 O196 1.247 . S
C198 O197 1.208 . S
C199 O204 1.247 . S
C199 O205 1.208 . S
C200 O192 1.315 . S
C200 O195 1.279 . S
C201 O202 1.315 . S
C201 O203 1.279 . S
O202 Cd194 2.223 . S
O202 C201 1.315 . S
O203 Cd193 2.240 . S
O203 C201 1.279 . S
O204 Cd194 2.297 . S
O204 C199 1.247 . S
O205 Cd194 2.439 . S
O205 C199 1.208 . S
O206 Cd207 2.223 . S
O206 C214 1.315 . S
Cd207 O206 2.223 . S
Cd207 O210 2.297 . S
Cd207 O211 2.439 . S
Cd207 O217 2.240 . S
Cd208 O209 2.240 . S
Cd208 O216 2.223 . S
Cd208 O218 2.297 . S
Cd208 O219 2.439 . S
O209 Cd208 2.240 . S
O209 C214 1.279 . S
O210 Cd207 2.297 . S
O210 C212 1.247 . S
O211 Cd207 2.439 . S
O211 C212 1.208 . S
C212 O210 1.247 . S
C212 O211 1.208 . S
C213 O218 1.247 . S
C213 O219 1.208 . S
C214 O206 1.315 . S
C214 O209 1.279 . S
C215 O216 1.315 . S
C215 O217 1.279 . S
O216 Cd208 2.223 . S
O216 C215 1.315 . S
O217 Cd207 2.240 . S
O217 C215 1.279 . S
O218 Cd208 2.297 . S
O218 C213 1.247 . S
O219 Cd208 2.439 . S
O219 C213 1.208 . S
O220 Cd221 2.223 1_556 S
O220 C228 1.315 . S
Cd221 O220 2.223 1_554 S
Cd221 O224 2.297 . S
Cd221 O225 2.439 . S
Cd221 O231 2.240 . S
Cd222 O223 2.240 . S
Cd222 O230 2.223 . S
Cd222 O232 2.297 1_556 S
Cd222 O233 2.439 1_556 S
O223 Cd222 2.240 . S
O223 C228 1.279 . S
O224 Cd221 2.297 . S
O224 C226 1.247 . S
O225 Cd221 2.439 . S
O225 C226 1.208 . S
C226 O224 1.247 . S
C226 O225 1.208 . S
C227 O232 1.247 . S
C227 O233 1.208 . S
C228 O220 1.315 . S
C228 O223 1.279 . S
C229 O230 1.315 . S
C229 O231 1.279 1_556 S
O230 Cd222 2.223 . S
O230 C229 1.315 . S
O231 Cd221 2.240 . S
O231 C229 1.279 1_554 S
O232 Cd222 2.297 1_554 S
O232 C227 1.247 . S
O233 Cd222 2.439 1_554 S
O233 C227 1.208 . S
O234 Cd235 2.223 . S
O234 C242 1.315 . S
Cd235 O234 2.223 . S
Cd235 O238 2.297 1_655 S
Cd235 O239 2.439 . S
Cd235 O245 2.240 . S
Cd236 O237 2.240 . S
Cd236 O244 2.223 . S
Cd236 O246 2.297 . S
Cd236 O247 2.439 . S
O237 Cd236 2.240 . S
O237 C242 1.279 . S
O238 Cd235 2.297 1_455 S
O238 C240 1.247 . S
O239 Cd235 2.439 . S
O239 C240 1.208 1_655 S
C240 O238 1.247 . S
C240 O239 1.208 1_455 S
C241 O246 1.247 . S
C241 O247 1.208 . S
C242 O234 1.315 . S
C242 O237 1.279 . S
C243 O244 1.315 . S
C243 O245 1.279 . S
O244 Cd236 2.223 . S
O244 C243 1.315 . S
O245 Cd235 2.240 . S
O245 C243 1.279 . S
O246 Cd236 2.297 . S
O246 C241 1.247 . S
O247 Cd236 2.439 . S
O247 C241 1.208 . S
O248 Cd249 2.223 . S
O248 C256 1.315 . S
Cd249 O248 2.223 . S
Cd249 O252 2.297 . S
Cd249 O253 2.439 . S
Cd249 O259 2.240 . S
Cd250 O251 2.240 . S
Cd250 O258 2.223 . S
Cd250 O260 2.297 . S
Cd250 O261 2.439 . S
O251 Cd250 2.240 . S
O251 C256 1.279 . S
O252 Cd249 2.297 . S
O252 C254 1.247 . S
O253 Cd249 2.439 . S
O253 C254 1.208 . S
C254 O252 1.247 . S
C254 O253 1.208 . S
C255 O260 1.247 . S
C255 O261 1.208 . S
C256 O248 1.315 . S
C256 O251 1.279 . S
C257 O258 1.315 . S
C257 O259 1.279 . S
O258 Cd250 2.223 . S
O258 C257 1.315 . S
O259 Cd249 2.240 . S
O259 C257 1.279 . S
O260 Cd250 2.297 . S
O260 C255 1.247 . S
O261 Cd250 2.439 . S
O261 C255 1.208 . S
O262 Cd263 2.223 . S
O262 C270 1.315 . S
Cd263 O262 2.223 . S
Cd263 O266 2.297 . S
Cd263 O267 2.439 . S
Cd263 O273 2.240 . S
Cd264 O265 2.240 . S
Cd264 O272 2.223 . S
Cd264 O274 2.297 . S
Cd264 O275 2.439 . S
O265 Cd264 2.240 . S
O265 C270 1.279 . S
O266 Cd263 2.297 . S
O266 C268 1.247 . S
O267 Cd263 2.439 . S
O267 C268 1.208 . S
C268 O266 1.247 . S
C268 O267 1.208 . S
C269 O274 1.247 . S
C269 O275 1.208 . S
C270 O262 1.315 . S
C270 O265 1.279 . S
C271 O272 1.315 . S
C271 O273 1.279 . S
O272 Cd264 2.223 . S
O272 C271 1.315 . S
O273 Cd263 2.240 . S
O273 C271 1.279 . S
O274 Cd264 2.297 . S
O274 C269 1.247 . S
O275 Cd264 2.439 . S
O275 C269 1.208 . S
O276 Cd277 2.223 . S
O276 C284 1.315 . S
Cd277 O276 2.223 . S
Cd277 O280 2.297 . S
Cd277 O281 2.439 . S
Cd277 O287 2.240 . S
Cd278 O279 2.240 . S
Cd278 O286 2.223 . S
Cd278 O288 2.297 . S
Cd278 O289 2.439 . S
O279 Cd278 2.240 . S
O279 C284 1.279 . S
O280 Cd277 2.297 . S
O280 C282 1.247 . S
O281 Cd277 2.439 . S
O281 C282 1.208 . S
C282 O280 1.247 . S
C282 O281 1.208 . S
C283 O288 1.247 . S
C283 O289 1.208 . S
C284 O276 1.315 . S
C284 O279 1.279 . S
C285 O286 1.315 . S
C285 O287 1.279 . S
O286 Cd278 2.223 . S
O286 C285 1.315 . S
O287 Cd277 2.240 . S
O287 C285 1.279 . S
O288 Cd278 2.297 . S
O288 C283 1.247 . S
O289 Cd278 2.439 . S
O289 C283 1.208 . S
O290 Cd291 2.223 1_545 S
O290 C298 1.315 . S
Cd291 O290 2.223 1_565 S
Cd291 O294 2.297 . S
Cd291 O295 2.439 . S
Cd291 O301 2.240 1_565 S
Cd292 O293 2.240 . S
Cd292 O300 2.223 . S
Cd292 O302 2.297 . S
Cd292 O303 2.439 1_545 S
O293 Cd292 2.240 . S
O293 C298 1.279 . S
O294 Cd291 2.297 . S
O294 C296 1.247 . S
O295 Cd291 2.439 . S
O295 C296 1.208 . S
C296 O294 1.247 . S
C296 O295 1.208 . S
C297 O302 1.247 1_565 S
C297 O303 1.208 . S
C298 O290 1.315 . S
C298 O293 1.279 . S
C299 O300 1.315 . S
C299 O301 1.279 . S
O300 Cd292 2.223 . S
O300 C299 1.315 . S
O301 Cd291 2.240 1_545 S
O301 C299 1.279 . S
O302 Cd292 2.297 . S
O302 C297 1.247 1_545 S
O303 Cd292 2.439 1_565 S
O303 C297 1.208 . S
O304 Cd305 2.223 . S
O304 C312 1.315 . S
Cd305 O304 2.223 . S
Cd305 O308 2.297 1_655 S
Cd305 O309 2.439 1_655 S
Cd305 O315 2.240 . S
Cd306 O307 2.240 . S
Cd306 O314 2.223 1_455 S
Cd306 O316 2.297 . S
Cd306 O317 2.439 . S
O307 Cd306 2.240 . S
O307 C312 1.279 1_455 S
O308 Cd305 2.297 1_455 S
O308 C310 1.247 . S
O309 Cd305 2.439 1_455 S
O309 C310 1.208 . S
C310 O308 1.247 . S
C310 O309 1.208 . S
C311 O316 1.247 . S
C311 O317 1.208 . S
C312 O304 1.315 . S
C312 O307 1.279 1_655 S
C313 O314 1.315 . S
C313 O315 1.279 . S
O314 Cd306 2.223 1_655 S
O314 C313 1.315 . S
O315 Cd305 2.240 . S
O315 C313 1.279 . S
O316 Cd306 2.297 . S
O316 C311 1.247 . S
O317 Cd306 2.439 . S
O317 C311 1.208 . S
O318 Cd319 2.223 . S
O318 C326 1.315 . S
Cd319 O318 2.223 . S
Cd319 O322 2.297 . S
Cd319 O323 2.439 . S
Cd319 O329 2.240 . S
Cd320 O321 2.240 . S
Cd320 O328 2.223 . S
Cd320 O330 2.297 . S
Cd320 O331 2.439 . S
O321 Cd320 2.240 . S
O321 C326 1.279 . S
O322 Cd319 2.297 . S
O322 C324 1.247 . S
O323 Cd319 2.439 . S
O323 C324 1.208 . S
C324 O322 1.247 . S
C324 O323 1.208 . S
C325 O330 1.247 . S
C325 O331 1.208 . S
C326 O318 1.315 . S
C326 O321 1.279 . S
C327 O328 1.315 . S
C327 O329 1.279 . S
O328 Cd320 2.223 . S
O328 C327 1.315 . S
O329 Cd319 2.240 . S
O329 C327 1.279 . S
O330 Cd320 2.297 . S
O330 C325 1.247 . S
O331 Cd320 2.439 . S
O331 C325 1.208 . S
O332 Cd333 2.223 1_655 S
O332 C340 1.315 . S
Cd333 O332 2.223 1_455 S
Cd333 O336 2.297 . S
Cd333 O337 2.439 . S
Cd333 O343 2.240 . S
Cd334 O335 2.240 . S
Cd334 O342 2.223 1_455 S
Cd334 O344 2.297 . S
Cd334 O345 2.439 . S
O335 Cd334 2.240 . S
O335 C340 1.279 1_455 S
O336 Cd333 2.297 . S
O336 C338 1.247 . S
O337 Cd333 2.439 . S
O337 C338 1.208 . S
C338 O336 1.247 . S
C338 O337 1.208 . S
C339 O344 1.247 . S
C339 O345 1.208 . S
C340 O332 1.315 . S
C340 O335 1.279 1_655 S
C341 O342 1.315 . S
C341 O343 1.279 1_655 S
O342 Cd334 2.223 1_655 S
O342 C341 1.315 . S
O343 Cd333 2.240 . S
O343 C341 1.279 1_455 S
O344 Cd334 2.297 . S
O344 C339 1.247 . S
O345 Cd334 2.439 . S
O345 C339 1.208 . S
O346 Cd347 2.223 . S
O346 C354 1.315 . S
Cd347 O346 2.223 . S
Cd347 O350 2.297 . S
Cd347 O351 2.439 . S
Cd347 O357 2.240 . S
Cd348 O349 2.240 . S
Cd348 O356 2.223 . S
Cd348 O358 2.297 . S
Cd348 O359 2.439 . S
O349 Cd348 2.240 . S
O349 C354 1.279 . S
O350 Cd347 2.297 . S
O350 C352 1.247 . S
O351 Cd347 2.439 . S
O351 C352 1.208 . S
C352 O350 1.247 . S
C352 O351 1.208 . S
C353 O358 1.247 . S
C353 O359 1.208 . S
C354 O346 1.315 . S
C354 O349 1.279 . S
C355 O356 1.315 . S
C355 O357 1.279 . S
O356 Cd348 2.223 . S
O356 C355 1.315 . S
O357 Cd347 2.240 . S
O357 C355 1.279 . S
O358 Cd348 2.297 . S
O358 C353 1.247 . S
O359 Cd348 2.439 . S
O359 C353 1.208 . S
H360 C366 0.930 . S
H361 C369 0.930 . S
H362 C370 0.930 . S
H363 C371 0.930 . S
H364 C374 0.930 1_554 S
H365 C375 0.930 . S
C366 H360 0.930 . S
C366 C367 1.355 . S
C366 C368 1.415 . S
C367 C366 1.355 . S
C367 C369 1.419 . S
C368 C366 1.415 . S
C368 C373 1.425 . S
C368 C375 1.409 . S
C369 H361 0.930 . S
C369 C367 1.419 . S
C369 C370 1.362 . S
C370 H362 0.930 . S
C370 C369 1.362 . S
C370 C373 1.409 . S
C371 H363 0.930 . S
C371 C372 1.355 . S
C371 C373 1.415 . S
C372 C371 1.355 . S
C372 C374 1.419 . S
C373 C368 1.425 . S
C373 C370 1.409 . S
C373 C371 1.415 . S
C374 H364 0.930 1_556 S
C374 C372 1.419 . S
C374 C375 1.362 . S
C375 H365 0.930 . S
C375 C368 1.409 . S
C375 C374 1.362 . S
H376 C382 0.930 . S
H377 C385 0.930 . S
H378 C386 0.930 . S
H379 C387 0.930 . S
H380 C390 0.930 . S
H381 C391 0.930 . S
C382 H376 0.930 . S
C382 C383 1.355 1_455 S
C382 C384 1.415 . S
C383 C382 1.355 1_655 S
C383 C385 1.419 . S
C384 C382 1.415 . S
C384 C389 1.425 . S
C384 C391 1.409 . S
C385 H377 0.930 . S
C385 C383 1.419 . S
C385 C386 1.362 . S
C386 H378 0.930 . S
C386 C385 1.362 . S
C386 C389 1.409 1_655 S
C387 H379 0.930 . S
C387 C388 1.355 . S
C387 C389 1.415 . S
C388 C387 1.355 . S
C388 C390 1.419 . S
C389 C384 1.425 . S
C389 C386 1.409 1_455 S
C389 C387 1.415 . S
C390 H380 0.930 . S
C390 C388 1.419 . S
C390 C391 1.362 . S
C391 H381 0.930 . S
C391 C384 1.409 . S
C391 C390 1.362 . S
H392 C398 0.930 . S
H393 C401 0.930 . S
H394 C402 0.930 . S
H395 C403 0.930 . S
H396 C406 0.930 . S
H397 C407 0.930 . S
C398 H392 0.930 . S
C398 C399 1.355 . S
C398 C400 1.415 . S
C399 C398 1.355 . S
C399 C401 1.419 . S
C400 C398 1.415 . S
C400 C405 1.425 . S
C400 C407 1.409 . S
C401 H393 0.930 . S
C401 C399 1.419 . S
C401 C402 1.362 . S
C402 H394 0.930 . S
C402 C401 1.362 . S
C402 C405 1.409 . S
C403 H395 0.930 . S
C403 C404 1.355 . S
C403 C405 1.415 . S
C404 C403 1.355 . S
C404 C406 1.419 . S
C405 C400 1.425 . S
C405 C402 1.409 . S
C405 C403 1.415 . S
C406 H396 0.930 . S
C406 C404 1.419 . S
C406 C407 1.362 . S
C407 H397 0.930 . S
C407 C400 1.409 . S
C407 C406 1.362 . S
H408 C414 0.930 . S
H409 C417 0.930 . S
H410 C418 0.930 . S
H411 C419 0.930 . S
H412 C422 0.930 1_565 S
H413 C423 0.933 . S
C414 H408 0.930 . S
C414 C415 1.355 . S
C414 C416 1.436 . S
C415 C414 1.355 . S
C415 C417 1.419 1_565 S
C416 C414 1.436 . S
C416 C421 1.397 1_565 S
C416 C423 1.415 . S
C417 H409 0.930 . S
C417 C415 1.419 1_545 S
C417 C418 1.362 . S
C418 H410 0.930 . S
C418 C417 1.362 . S
C418 C421 1.409 . S
C419 H411 0.930 . S
C419 C420 1.356 . S
C419 C421 1.415 . S
C420 C419 1.356 . S
C420 C422 1.419 1_455 S
C421 C416 1.397 1_545 S
C421 C418 1.409 . S
C421 C419 1.415 . S
C422 H412 0.930 1_545 S
C422 C420 1.419 1_655 S
C422 C423 1.362 1_645 S
C423 H413 0.933 . S
C423 C416 1.415 . S
C423 C422 1.362 1_465 S
H424 C430 0.930 . S
H425 C433 0.930 . S
H426 C434 0.930 . S
H427 C435 0.930 . S
H428 C438 0.930 . S
H429 C439 0.930 . S
C430 H424 0.930 . S
C430 C431 1.355 . S
C430 C432 1.415 . S
C431 C430 1.355 . S
C431 C433 1.419 . S
C432 C430 1.415 . S
C432 C437 1.425 . S
C432 C439 1.409 . S
C433 H425 0.930 . S
C433 C431 1.419 . S
C433 C434 1.362 . S
C434 H426 0.930 . S
C434 C433 1.362 . S
C434 C437 1.409 . S
C435 H427 0.930 . S
C435 C436 1.355 . S
C435 C437 1.415 . S
C436 C435 1.355 . S
C436 C438 1.419 . S
C437 C432 1.425 . S
C437 C434 1.409 . S
C437 C435 1.415 . S
C438 H428 0.930 . S
C438 C436 1.419 . S
C438 C439 1.362 . S
C439 H429 0.930 . S
C439 C432 1.409 . S
C439 C438 1.362 . S
H440 C446 0.930 . S
H441 C449 0.930 . S
H442 C450 0.930 . S
H443 C451 0.930 . S
H444 C454 0.930 . S
H445 C455 0.930 . S
C446 H440 0.930 . S
C446 C447 1.355 . S
C446 C448 1.415 . S
C447 C446 1.355 . S
C447 C449 1.419 . S
C448 C446 1.415 . S
C448 C453 1.425 . S
C448 C455 1.409 . S
C449 H441 0.930 . S
C449 C447 1.419 . S
C449 C450 1.362 . S
C450 H442 0.930 . S
C450 C449 1.362 . S
C450 C453 1.409 . S
C451 H443 0.930 . S
C451 C452 1.355 . S
C451 C453 1.415 . S
C452 C451 1.355 . S
C452 C454 1.419 . S
C453 C448 1.425 . S
C453 C450 1.409 . S
C453 C451 1.415 . S
C454 H444 0.930 . S
C454 C452 1.419 . S
C454 C455 1.362 . S
C455 H445 0.930 . S
C455 C448 1.409 . S
C455 C454 1.362 . S
H456 C462 0.930 . S
H457 C465 0.930 . S
H458 C466 0.930 . S
H459 C467 0.930 . S
H460 C470 0.930 . S
H461 C471 0.930 . S
C462 H456 0.930 . S
C462 C463 1.355 . S
C462 C464 1.415 . S
C463 C462 1.355 . S
C463 C465 1.419 . S
C464 C462 1.415 . S
C464 C469 1.425 . S
C464 C471 1.409 . S
C465 H457 0.930 . S
C465 C463 1.419 . S
C465 C466 1.362 . S
C466 H458 0.930 . S
C466 C465 1.362 . S
C466 C469 1.409 . S
C467 H459 0.930 . S
C467 C468 1.355 . S
C467 C469 1.415 . S
C468 C467 1.355 . S
C468 C470 1.419 . S
C469 C464 1.425 . S
C469 C466 1.409 . S
C469 C467 1.415 . S
C470 H460 0.930 . S
C470 C468 1.419 . S
C470 C471 1.362 . S
C471 H461 0.930 . S
C471 C464 1.409 . S
C471 C470 1.362 . S
H472 C478 0.930 . S
H473 C481 0.930 . S
H474 C482 0.930 . S
H475 C483 0.930 . S
H476 C486 0.930 . S
H477 C487 0.930 . S
C478 H472 0.930 . S
C478 C479 1.355 . S
C478 C480 1.415 . S
C479 C478 1.355 . S
C479 C481 1.419 . S
C480 C478 1.415 . S
C480 C485 1.425 . S
C480 C487 1.409 . S
C481 H473 0.930 . S
C481 C479 1.419 . S
C481 C482 1.362 . S
C482 H474 0.930 . S
C482 C481 1.362 . S
C482 C485 1.409 . S
C483 H475 0.930 . S
C483 C484 1.355 . S
C483 C485 1.415 . S
C484 C483 1.355 . S
C484 C486 1.419 . S
C485 C480 1.425 . S
C485 C482 1.409 . S
C485 C483 1.415 . S
C486 H476 0.930 . S
C486 C484 1.419 . S
C486 C487 1.362 . S
C487 H477 0.930 . S
C487 C480 1.409 . S
C487 C486 1.362 . S
H488 C494 0.930 . S
H489 C497 0.930 . S
H490 C498 0.930 . S
H491 C499 0.930 . S
H492 C502 0.930 . S
H493 C503 0.930 . S
C494 H488 0.930 . S
C494 C495 1.355 . S
C494 C496 1.415 . S
C495 C494 1.355 . S
C495 C497 1.419 . S
C496 C494 1.415 . S
C496 C501 1.425 . S
C496 C503 1.409 . S
C497 H489 0.930 . S
C497 C495 1.419 . S
C497 C498 1.362 . S
C498 H490 0.930 . S
C498 C497 1.362 . S
C498 C501 1.409 . S
C499 H491 0.930 . S
C499 C500 1.355 . S
C499 C501 1.415 . S
C500 C499 1.355 . S
C500 C502 1.419 . S
C501 C496 1.425 . S
C501 C498 1.409 . S
C501 C499 1.415 . S
C502 H492 0.930 . S
C502 C500 1.419 . S
C502 C503 1.362 . S
C503 H493 0.930 . S
C503 C496 1.409 . S
C503 C502 1.362 . S
H504 C510 0.930 . S
H505 C513 0.930 . S
H506 C514 0.930 . S
H507 C515 0.930 . S
H508 C518 0.930 . S
H509 C519 0.930 . S
C510 H504 0.930 . S
C510 C511 1.355 . S
C510 C512 1.415 . S
C511 C510 1.355 . S
C511 C513 1.419 . S
C512 C510 1.415 . S
C512 C517 1.425 . S
C512 C519 1.409 . S
C513 H505 0.930 . S
C513 C511 1.419 . S
C513 C514 1.362 . S
C514 H506 0.930 . S
C514 C513 1.362 . S
C514 C517 1.409 . S
C515 H507 0.930 . S
C515 C516 1.355 . S
C515 C517 1.415 . S
C516 C515 1.355 . S
C516 C518 1.419 . S
C517 C512 1.425 . S
C517 C514 1.409 . S
C517 C515 1.415 . S
C518 H508 0.930 . S
C518 C516 1.419 . S
C518 C519 1.362 . S
C519 H509 0.930 . S
C519 C512 1.409 . S
C519 C518 1.362 . S
H520 C526 0.930 . S
H521 C529 0.930 . S
H522 C530 0.930 . S
H523 C531 0.930 . S
H524 C534 0.930 . S
H525 C535 0.930 . S
C526 H520 0.930 . S
C526 C527 1.355 . S
C526 C528 1.415 . S
C527 C526 1.355 . S
C527 C529 1.419 . S
C528 C526 1.415 . S
C528 C533 1.425 . S
C528 C535 1.409 . S
C529 H521 0.930 . S
C529 C527 1.419 . S
C529 C530 1.362 . S
C530 H522 0.930 . S
C530 C529 1.362 . S
C530 C533 1.409 . S
C531 H523 0.930 . S
C531 C532 1.355 . S
C531 C533 1.415 . S
C532 C531 1.355 . S
C532 C534 1.419 . S
C533 C528 1.425 . S
C533 C530 1.409 . S
C533 C531 1.415 . S
C534 H524 0.930 . S
C534 C532 1.419 . S
C534 C535 1.362 . S
C535 H525 0.930 . S
C535 C528 1.409 . S
C535 C534 1.362 . S
H536 C542 0.930 . S
H537 C545 0.930 . S
H538 C546 0.930 . S
H539 C547 0.930 . S
H540 C550 0.930 . S
H541 C551 0.930 . S
C542 H536 0.930 . S
C542 C543 1.355 . S
C542 C544 1.415 . S
C543 C542 1.355 . S
C543 C545 1.419 . S
C544 C542 1.415 . S
C544 C549 1.425 . S
C544 C551 1.409 . S
C545 H537 0.930 . S
C545 C543 1.419 . S
C545 C546 1.362 . S
C546 H538 0.930 . S
C546 C545 1.362 . S
C546 C549 1.409 . S
C547 H539 0.930 . S
C547 C548 1.355 . S
C547 C549 1.415 . S
C548 C547 1.355 . S
C548 C550 1.419 . S
C549 C544 1.425 . S
C549 C546 1.409 . S
C549 C547 1.415 . S
C550 H540 0.930 . S
C550 C548 1.419 . S
C550 C551 1.362 . S
C551 H541 0.930 . S
C551 C544 1.409 . S
C551 C550 1.362 . S
H552 C558 0.930 . S
H553 C561 0.930 . S
H554 C562 0.930 . S
H555 C563 0.930 . S
H556 C566 0.930 . S
H557 C567 0.930 . S
C558 H552 0.930 . S
C558 C559 1.355 . S
C558 C560 1.415 . S
C559 C558 1.355 . S
C559 C561 1.419 . S
C560 C558 1.415 . S
C560 C565 1.425 . S
C560 C567 1.409 . S
C561 H553 0.930 . S
C561 C559 1.419 . S
C561 C562 1.362 . S
C562 H554 0.930 . S
C562 C561 1.362 . S
C562 C565 1.409 . S
C563 H555 0.930 . S
C563 C564 1.355 . S
C563 C565 1.415 . S
C564 C563 1.355 . S
C564 C566 1.419 . S
C565 C560 1.425 . S
C565 C562 1.409 . S
C565 C563 1.415 . S
C566 H556 0.930 . S
C566 C564 1.419 . S
C566 C567 1.362 . S
C567 H557 0.930 . S
C567 C560 1.409 . S
C567 C566 1.362 . S
H568 C574 0.930 . S
H569 C577 0.930 . S
H570 C578 0.930 . S
H571 C579 0.930 . S
H572 C582 0.930 . S
H573 C583 0.930 . S
C574 H568 0.930 . S
C574 C575 1.355 . S
C574 C576 1.415 . S
C575 C574 1.355 . S
C575 C577 1.419 . S
C576 C574 1.415 . S
C576 C581 1.425 . S
C576 C583 1.409 . S
C577 H569 0.930 . S
C577 C575 1.419 . S
C577 C578 1.362 . S
C578 H570 0.930 . S
C578 C577 1.362 . S
C578 C581 1.409 . S
C579 H571 0.930 . S
C579 C580 1.355 . S
C579 C581 1.415 . S
C580 C579 1.355 . S
C580 C582 1.419 . S
C581 C576 1.425 . S
C581 C578 1.409 . S
C581 C579 1.415 . S
C582 H572 0.930 . S
C582 C580 1.419 . S
C582 C583 1.362 . S
C583 H573 0.930 . S
C583 C576 1.409 . S
C583 C582 1.362 . S
H584 C590 0.930 . S
H585 C593 0.930 . S
H586 C594 0.930 . S
H587 C595 0.930 . S
H588 C598 0.930 . S
H589 C599 0.930 . S
C590 H584 0.930 . S
C590 C591 1.355 . S
C590 C592 1.415 . S
C591 C590 1.355 . S
C591 C593 1.419 . S
C592 C590 1.415 . S
C592 C597 1.425 . S
C592 C599 1.409 . S
C593 H585 0.930 . S
C593 C591 1.419 . S
C593 C594 1.362 . S
C594 H586 0.930 . S
C594 C593 1.362 . S
C594 C597 1.409 . S
C595 H587 0.930 . S
C595 C596 1.355 . S
C595 C597 1.415 . S
C596 C595 1.355 . S
C596 C598 1.419 . S
C597 C592 1.425 . S
C597 C594 1.409 . S
C597 C595 1.415 . S
C598 H588 0.930 . S
C598 C596 1.419 . S
C598 C599 1.362 . S
C599 H589 0.930 . S
C599 C592 1.409 . S
C599 C598 1.362 . S
H600 C606 0.930 . S
H601 C609 0.930 . S
H602 C610 0.930 1_455 S
H603 C611 0.930 1_455 S
H604 C614 0.930 . S
H605 C615 0.930 . S
C606 H600 0.930 . S
C606 C607 1.355 . S
C606 C608 1.415 . S
C607 C606 1.355 . S
C607 C609 1.419 . S
C608 C606 1.415 . S
C608 C613 1.425 . S
C608 C615 1.409 . S
C609 H601 0.930 . S
C609 C607 1.419 . S
C609 C610 1.362 . S
C610 H602 0.930 1_655 S
C610 C609 1.362 . S
C610 C613 1.409 . S
C611 H603 0.930 1_655 S
C611 C612 1.355 . S
C611 C613 1.415 . S
C612 C611 1.355 . S
C612 C614 1.419 . S
C613 C608 1.425 . S
C613 C610 1.409 . S
C613 C611 1.415 . S
C614 H604 0.930 . S
C614 C612 1.419 . S
C614 C615 1.362 . S
C615 H605 0.930 . S
C615 C608 1.409 . S
C615 C614 1.362 . S
H616 C622 0.930 . S
H617 C625 0.930 . S
H618 C626 0.930 . S
H619 C627 0.930 . S
H620 C630 0.930 . S
H621 C631 0.930 . S
C622 H616 0.930 . S
C622 C623 1.355 . S
C622 C624 1.415 . S
C623 C622 1.355 . S
C623 C625 1.419 . S
C624 C622 1.415 . S
C624 C629 1.425 . S
C624 C631 1.409 . S
C625 H617 0.930 . S
C625 C623 1.419 . S
C625 C626 1.362 . S
C626 H618 0.930 . S
C626 C625 1.362 . S
C626 C629 1.409 . S
C627 H619 0.930 . S
C627 C628 1.355 1_565 S
C627 C629 1.415 . S
C628 C627 1.355 1_545 S
C628 C630 1.419 . S
C629 C624 1.425 . S
C629 C626 1.409 . S
C629 C627 1.415 . S
C630 H620 0.930 . S
C630 C628 1.419 . S
C630 C631 1.362 1_545 S
C631 H621 0.930 . S
C631 C624 1.409 . S
C631 C630 1.362 1_565 S
H632 C638 0.930 . S
H633 C641 0.930 . S
H634 C642 0.930 . S
H635 C643 0.930 . S
H636 C646 0.930 . S
H637 C647 0.930 . S
C638 H632 0.930 . S
C638 C639 1.355 . S
C638 C640 1.415 . S
C639 C638 1.355 . S
C639 C641 1.419 . S
C640 C638 1.415 . S
C640 C645 1.425 . S
C640 C647 1.409 . S
C641 H633 0.930 . S
C641 C639 1.419 . S
C641 C642 1.362 . S
C642 H634 0.930 . S
C642 C641 1.362 . S
C642 C645 1.409 . S
C643 H635 0.930 . S
C643 C644 1.355 . S
C643 C645 1.415 . S
C644 C643 1.355 . S
C644 C646 1.419 . S
C645 C640 1.425 . S
C645 C642 1.409 . S
C645 C643 1.415 . S
C646 H636 0.930 . S
C646 C644 1.419 . S
C646 C647 1.362 . S
C647 H637 0.930 . S
C647 C640 1.409 . S
C647 C646 1.362 . S
H648 C654 0.930 . S
H649 C657 0.930 . S
H650 C658 0.930 . S
H651 C659 0.930 . S
H652 C662 0.930 . S
H653 C663 0.930 . S
C654 H648 0.930 . S
C654 C655 1.355 . S
C654 C656 1.415 . S
C655 C654 1.355 . S
C655 C657 1.419 . S
C656 C654 1.415 . S
C656 C661 1.425 1_556 S
C656 C663 1.409 1_545 S
C657 H649 0.930 . S
C657 C655 1.419 . S
C657 C658 1.362 1_556 S
C658 H650 0.930 . S
C658 C657 1.362 1_554 S
C658 C661 1.409 . S
C659 H651 0.930 . S
C659 C660 1.355 1_545 S
C659 C661 1.415 . S
C660 C659 1.355 1_565 S
C660 C662 1.419 . S
C661 C656 1.425 1_554 S
C661 C658 1.409 . S
C661 C659 1.415 . S
C662 H652 0.930 . S
C662 C660 1.419 . S
C662 C663 1.362 1_554 S
C663 H653 0.930 . S
C663 C656 1.409 1_565 S
C663 C662 1.362 1_556 S
H664 C670 0.930 . S
H665 C673 0.930 . S
H666 C674 0.930 . S
H667 C675 0.930 . S
H668 C678 0.930 . S
H669 C679 0.930 . S
C670 H664 0.930 . S
C670 C671 1.355 . S
C670 C672 1.415 . S
C671 C670 1.355 . S
C671 C673 1.419 . S
C672 C670 1.415 . S
C672 C677 1.425 . S
C672 C679 1.409 . S
C673 H665 0.930 . S
C673 C671 1.419 . S
C673 C674 1.362 . S
C674 H666 0.930 . S
C674 C673 1.362 . S
C674 C677 1.409 . S
C675 H667 0.930 . S
C675 C676 1.355 . S
C675 C677 1.415 . S
C676 C675 1.355 . S
C676 C678 1.419 . S
C677 C672 1.425 . S
C677 C674 1.409 . S
C677 C675 1.415 . S
C678 H668 0.930 . S
C678 C676 1.419 . S
C678 C679 1.362 . S
C679 H669 0.930 . S
C679 C672 1.409 . S
C679 C678 1.362 . S
H680 C686 0.930 . S
H681 C689 0.930 . S
H682 C690 0.930 . S
H683 C691 0.930 . S
H684 C694 0.930 . S
H685 C695 0.930 . S
C686 H680 0.930 . S
C686 C687 1.355 . S
C686 C688 1.415 . S
C687 C686 1.355 . S
C687 C689 1.419 . S
C688 C686 1.415 . S
C688 C693 1.425 . S
C688 C695 1.409 . S
C689 H681 0.930 . S
C689 C687 1.419 . S
C689 C690 1.362 . S
C690 H682 0.930 . S
C690 C689 1.362 . S
C690 C693 1.409 . S
C691 H683 0.930 . S
C691 C692 1.355 . S
C691 C693 1.415 . S
C692 C691 1.355 . S
C692 C694 1.419 . S
C693 C688 1.425 . S
C693 C690 1.409 . S
C693 C691 1.415 . S
C694 H684 0.930 . S
C694 C692 1.419 . S
C694 C695 1.362 . S
C695 H685 0.930 . S
C695 C688 1.409 . S
C695 C694 1.362 . S
H696 C702 0.930 . S
H697 C705 0.930 . S
H698 C706 0.930 . S
H699 C707 0.930 . S
H700 C710 0.930 . S
H701 C711 0.930 . S
C702 H696 0.930 . S
C702 C703 1.355 . S
C702 C704 1.415 . S
C703 C702 1.355 . S
C703 C705 1.419 . S
C704 C702 1.415 . S
C704 C709 1.425 . S
C704 C711 1.409 . S
C705 H697 0.930 . S
C705 C703 1.419 . S
C705 C706 1.362 . S
C706 H698 0.930 . S
C706 C705 1.362 . S
C706 C709 1.409 . S
C707 H699 0.930 . S
C707 C708 1.355 . S
C707 C709 1.415 . S
C708 C707 1.355 . S
C708 C710 1.419 . S
C709 C704 1.425 . S
C709 C706 1.409 . S
C709 C707 1.415 . S
C710 H700 0.930 . S
C710 C708 1.419 . S
C710 C711 1.362 . S
C711 H701 0.930 . S
C711 C704 1.409 . S
C711 C710 1.362 . S
H712 C718 0.930 . S
H713 C721 0.930 . S
H714 C722 0.930 . S
H715 C723 0.930 . S
H716 C726 0.930 . S
H717 C727 0.930 . S
C718 H712 0.930 . S
C718 C719 1.355 1_545 S
C718 C720 1.415 . S
C719 C718 1.355 1_565 S
C719 C721 1.419 . S
C720 C718 1.415 . S
C720 C725 1.425 . S
C720 C727 1.409 . S
C721 H713 0.930 . S
C721 C719 1.419 . S
C721 C722 1.362 1_565 S
C722 H714 0.930 . S
C722 C721 1.362 1_545 S
C722 C725 1.409 . S
C723 H715 0.930 . S
C723 C724 1.355 . S
C723 C725 1.415 . S
C724 C723 1.355 . S
C724 C726 1.419 . S
C725 C720 1.425 . S
C725 C722 1.409 . S
C725 C723 1.415 . S
C726 H716 0.930 . S
C726 C724 1.419 . S
C726 C727 1.362 . S
C727 H717 0.930 . S
C727 C720 1.409 . S
C727 C726 1.362 . S
H728 C734 0.930 . S
H729 C737 0.930 . S
H730 C738 0.930 . S
H731 C739 0.930 . S
H732 C742 0.930 . S
H733 C743 0.930 . S
C734 H728 0.930 . S
C734 C735 1.355 . S
C734 C736 1.415 . S
C735 C734 1.355 . S
C735 C737 1.419 . S
C736 C734 1.415 . S
C736 C741 1.425 . S
C736 C743 1.409 . S
C737 H729 0.930 . S
C737 C735 1.419 . S
C737 C738 1.362 . S
C738 H730 0.930 . S
C738 C737 1.362 . S
C738 C741 1.409 . S
C739 H731 0.930 . S
C739 C740 1.355 . S
C739 C741 1.415 . S
C740 C739 1.355 . S
C740 C742 1.419 . S
C741 C736 1.425 . S
C741 C738 1.409 . S
C741 C739 1.415 . S
C742 H732 0.930 . S
C742 C740 1.419 . S
C742 C743 1.362 . S
C743 H733 0.930 . S
C743 C736 1.409 . S
C743 C742 1.362 . S
H744 C750 0.930 . S
H745 C753 0.930 . S
H746 C754 0.930 . S
H747 C755 0.930 . S
H748 C758 0.930 . S
H749 C759 0.930 . S
C750 H744 0.930 . S
C750 C751 1.355 . S
C750 C752 1.415 . S
C751 C750 1.355 . S
C751 C753 1.419 . S
C752 C750 1.415 . S
C752 C757 1.425 . S
C752 C759 1.409 . S
C753 H745 0.930 . S
C753 C751 1.419 . S
C753 C754 1.362 . S
C754 H746 0.930 . S
C754 C753 1.362 . S
C754 C757 1.409 . S
C755 H747 0.930 . S
C755 C756 1.355 . S
C755 C757 1.415 . S
C756 C755 1.355 . S
C756 C758 1.419 . S
C757 C752 1.425 . S
C757 C754 1.409 . S
C757 C755 1.415 . S
C758 H748 0.930 . S
C758 C756 1.419 . S
C758 C759 1.362 . S
C759 H749 0.930 . S
C759 C752 1.409 . S
C759 C758 1.362 . S
H760 C766 0.930 . S
H761 C769 0.930 . S
H762 C770 0.930 . S
H763 C771 0.930 . S
H764 C774 0.930 . S
H765 C775 0.930 . S
C766 H760 0.930 . S
C766 C767 1.355 . S
C766 C768 1.415 . S
C767 C766 1.355 . S
C767 C769 1.419 . S
C768 C766 1.415 . S
C768 C773 1.425 . S
C768 C775 1.409 . S
C769 H761 0.930 . S
C769 C767 1.419 . S
C769 C770 1.362 . S
C770 H762 0.930 . S
C770 C769 1.362 . S
C770 C773 1.409 . S
C771 H763 0.930 . S
C771 C772 1.355 . S
C771 C773 1.415 . S
C772 C771 1.355 . S
C772 C774 1.419 . S
C773 C768 1.425 . S
C773 C770 1.409 . S
C773 C771 1.415 . S
C774 H764 0.930 . S
C774 C772 1.419 . S
C774 C775 1.362 . S
C775 H765 0.930 . S
C775 C768 1.409 . S
C775 C774 1.362 . S
H776 C782 0.930 . S
H777 C785 0.930 . S
H778 C786 0.930 . S
H779 C787 0.930 . S
H780 C790 0.930 . S
H781 C791 0.930 . S
C782 H776 0.930 . S
C782 C783 1.355 . S
C782 C784 1.415 . S
C783 C782 1.355 . S
C783 C785 1.419 . S
C784 C782 1.415 . S
C784 C789 1.425 . S
C784 C791 1.409 . S
C785 H777 0.930 . S
C785 C783 1.419 . S
C785 C786 1.362 . S
C786 H778 0.930 . S
C786 C785 1.362 . S
C786 C789 1.409 . S
C787 H779 0.930 . S
C787 C788 1.355 . S
C787 C789 1.415 . S
C788 C787 1.355 . S
C788 C790 1.419 . S
C789 C784 1.425 . S
C789 C786 1.409 . S
C789 C787 1.415 . S
C790 H780 0.930 . S
C790 C788 1.419 . S
C790 C791 1.362 . S
C791 H781 0.930 . S
C791 C784 1.409 . S
C791 C790 1.362 . S
H792 C798 0.930 . S
H793 C801 0.930 . S
H794 C802 0.930 . S
H795 C803 0.930 . S
H796 C806 0.930 . S
H797 C807 0.930 . S
C798 H792 0.930 . S
C798 C799 1.355 . S
C798 C800 1.415 . S
C799 C798 1.355 . S
C799 C801 1.419 . S
C800 C798 1.415 . S
C800 C805 1.425 . S
C800 C807 1.409 . S
C801 H793 0.930 . S
C801 C799 1.419 . S
C801 C802 1.362 . S
C802 H794 0.930 . S
C802 C801 1.362 . S
C802 C805 1.409 . S
C803 H795 0.930 . S
C803 C804 1.355 . S
C803 C805 1.415 . S
C804 C803 1.355 . S
C804 C806 1.419 . S
C805 C800 1.425 . S
C805 C802 1.409 . S
C805 C803 1.415 . S
C806 H796 0.930 . S
C806 C804 1.419 . S
C806 C807 1.362 . S
C807 H797 0.930 . S
C807 C800 1.409 . S
C807 C806 1.362 . S
H808 C814 0.930 . S
H809 C817 0.930 . S
H810 C818 0.930 . S
H811 C819 0.930 . S
H812 C822 0.930 . S
H813 C823 0.930 . S
C814 H808 0.930 . S
C814 C815 1.355 . S
C814 C816 1.415 . S
C815 C814 1.355 . S
C815 C817 1.419 . S
C816 C814 1.415 . S
C816 C821 1.425 . S
C816 C823 1.409 . S
C817 H809 0.930 . S
C817 C815 1.419 . S
C817 C818 1.362 . S
C818 H810 0.930 . S
C818 C817 1.362 . S
C818 C821 1.409 . S
C819 H811 0.930 . S
C819 C820 1.355 . S
C819 C821 1.415 . S
C820 C819 1.355 . S
C820 C822 1.419 . S
C821 C816 1.425 . S
C821 C818 1.409 . S
C821 C819 1.415 . S
C822 H812 0.930 . S
C822 C820 1.419 . S
C822 C823 1.362 . S
C823 H813 0.930 . S
C823 C816 1.409 . S
C823 C822 1.362 . S
H824 C830 0.930 . S
H825 C833 0.930 . S
H826 C834 0.930 . S
H827 C835 0.930 . S
H828 C838 0.930 . S
H829 C839 0.930 . S
C830 H824 0.930 . S
C830 C831 1.355 . S
C830 C832 1.415 . S
C831 C830 1.355 . S
C831 C833 1.419 . S
C832 C830 1.415 . S
C832 C837 1.425 . S
C832 C839 1.409 . S
C833 H825 0.930 . S
C833 C831 1.419 . S
C833 C834 1.362 . S
C834 H826 0.930 . S
C834 C833 1.362 . S
C834 C837 1.409 . S
C835 H827 0.930 . S
C835 C836 1.355 . S
C835 C837 1.415 . S
C836 C835 1.355 . S
C836 C838 1.419 . S
C837 C832 1.425 . S
C837 C834 1.409 . S
C837 C835 1.415 . S
C838 H828 0.930 . S
C838 C836 1.419 . S
C838 C839 1.362 . S
C839 H829 0.930 . S
C839 C832 1.409 . S
C839 C838 1.362 . S
H840 C846 0.930 . S
H841 C849 0.930 . S
H842 C850 0.930 . S
H843 C851 0.930 . S
H844 C854 0.930 . S
H845 C855 0.930 . S
C846 H840 0.930 . S
C846 C847 1.355 . S
C846 C848 1.415 . S
C847 C846 1.355 . S
C847 C849 1.419 . S
C848 C846 1.415 . S
C848 C853 1.425 . S
C848 C855 1.409 . S
C849 H841 0.930 . S
C849 C847 1.419 . S
C849 C850 1.362 . S
C850 H842 0.930 . S
C850 C849 1.362 . S
C850 C853 1.409 . S
C851 H843 0.930 . S
C851 C852 1.355 . S
C851 C853 1.415 . S
C852 C851 1.355 . S
C852 C854 1.419 . S
C853 C848 1.425 . S
C853 C850 1.409 . S
C853 C851 1.415 . S
C854 H844 0.930 . S
C854 C852 1.419 . S
C854 C855 1.362 . S
C855 H845 0.930 . S
C855 C848 1.409 . S
C855 C854 1.362 . S
H856 C862 0.930 . S
H857 C865 0.930 . S
H858 C866 0.926 1_455 S
H859 C867 0.930 . S
H860 C870 0.930 . S
H861 C871 0.930 . S
C862 H856 0.930 . S
C862 C863 1.355 . S
C862 C864 1.415 . S
C863 C862 1.355 . S
C863 C865 1.419 . S
C864 C862 1.415 . S
C864 C869 1.425 . S
C864 C871 1.409 . S
C865 H857 0.930 . S
C865 C863 1.419 . S
C865 C866 1.366 . S
C866 H858 0.926 1_655 S
C866 C865 1.366 . S
C866 C869 1.410 . S
C867 H859 0.930 . S
C867 C868 1.355 . S
C867 C869 1.415 1_455 S
C868 C867 1.355 . S
C868 C870 1.419 1_455 S
C869 C864 1.425 . S
C869 C866 1.410 . S
C869 C867 1.415 1_655 S
C870 H860 0.930 . S
C870 C868 1.419 1_655 S
C870 C871 1.362 . S
C871 H861 0.930 . S
C871 C864 1.409 . S
C871 C870 1.362 . S
H872 C878 0.930 . S
H873 C881 0.930 . S
H874 C882 0.930 . S
H875 C883 0.930 . S
H876 C886 0.930 . S
H877 C887 0.930 . S
C878 H872 0.930 . S
C878 C879 1.355 . S
C878 C880 1.415 . S
C879 C878 1.355 . S
C879 C881 1.419 . S
C880 C878 1.415 . S
C880 C885 1.425 . S
C880 C887 1.409 . S
C881 H873 0.930 . S
C881 C879 1.419 . S
C881 C882 1.362 . S
C882 H874 0.930 . S
C882 C881 1.362 . S
C882 C885 1.409 . S
C883 H875 0.930 . S
C883 C884 1.355 . S
C883 C885 1.415 . S
C884 C883 1.355 . S
C884 C886 1.419 . S
C885 C880 1.425 . S
C885 C882 1.409 . S
C885 C883 1.415 . S
C886 H876 0.930 . S
C886 C884 1.419 . S
C886 C887 1.362 . S
C887 H877 0.930 . S
C887 C880 1.409 . S
C887 C886 1.362 . S
H888 C894 0.930 . S
H889 C897 0.930 . S
H890 C898 0.930 . S
H891 C899 0.930 . S
H892 C902 0.930 . S
H893 C903 0.930 1_554 S
C894 H888 0.930 . S
C894 C895 1.355 . S
C894 C896 1.415 1_554 S
C895 C894 1.355 . S
C895 C897 1.419 1_554 S
C896 C894 1.415 1_556 S
C896 C901 1.425 . S
C896 C903 1.409 . S
C897 H889 0.930 . S
C897 C895 1.419 1_556 S
C897 C898 1.362 . S
C898 H890 0.930 . S
C898 C897 1.362 . S
C898 C901 1.409 . S
C899 H891 0.930 . S
C899 C900 1.355 . S
C899 C901 1.415 . S
C900 C899 1.355 . S
C900 C902 1.419 . S
C901 C896 1.425 . S
C901 C898 1.409 . S
C901 C899 1.415 . S
C902 H892 0.930 . S
C902 C900 1.419 . S
C902 C903 1.362 . S
C903 H893 0.930 1_556 S
C903 C896 1.409 . S
C903 C902 1.362 . S
H904 C910 0.930 . S
H905 C913 0.930 . S
H906 C914 0.930 . S
H907 C915 0.930 . S
H908 C918 0.930 . S
H909 C919 0.930 . S
C910 H904 0.930 . S
C910 C911 1.355 . S
C910 C912 1.415 . S
C911 C910 1.355 . S
C911 C913 1.419 . S
C912 C910 1.415 . S
C912 C917 1.425 . S
C912 C919 1.409 . S
C913 H905 0.930 . S
C913 C911 1.419 . S
C913 C914 1.362 . S
C914 H906 0.930 . S
C914 C913 1.362 . S
C914 C917 1.409 . S
C915 H907 0.930 . S
C915 C916 1.355 . S
C915 C917 1.415 . S
C916 C915 1.355 . S
C916 C918 1.419 . S
C917 C912 1.425 . S
C917 C914 1.409 . S
C917 C915 1.415 . S
C918 H908 0.930 . S
C918 C916 1.419 . S
C918 C919 1.362 . S
C919 H909 0.930 . S
C919 C912 1.409 . S
C919 C918 1.362 . S
H920 C926 0.930 . S
H921 C929 0.930 . S
H922 C930 0.930 . S
H923 C931 0.930 . S
H924 C934 0.930 . S
H925 C935 0.930 . S
C926 H920 0.930 . S
C926 C927 1.355 . S
C926 C928 1.415 . S
C927 C926 1.355 . S
C927 C929 1.419 . S
C928 C926 1.415 . S
C928 C933 1.425 . S
C928 C935 1.409 1_554 S
C929 H921 0.930 . S
C929 C927 1.419 . S
C929 C930 1.362 . S
C930 H922 0.930 . S
C930 C929 1.362 . S
C930 C933 1.409 . S
C931 H923 0.930 . S
C931 C932 1.355 . S
C931 C933 1.415 1_556 S
C932 C931 1.355 . S
C932 C934 1.419 . S
C933 C928 1.425 . S
C933 C930 1.409 . S
C933 C931 1.415 1_554 S
C934 H924 0.930 . S
C934 C932 1.419 . S
C934 C935 1.362 . S
C935 H925 0.930 . S
C935 C928 1.409 1_556 S
C935 C934 1.362 . S
H936 C942 0.930 . S
H937 C945 0.930 . S
H938 C946 0.930 . S
H939 C947 0.930 . S
H940 C950 0.930 . S
H941 C951 0.930 . S
C942 H936 0.930 . S
C942 C943 1.355 . S
C942 C944 1.415 . S
C943 C942 1.355 . S
C943 C945 1.419 . S
C944 C942 1.415 . S
C944 C949 1.425 . S
C944 C951 1.409 . S
C945 H937 0.930 . S
C945 C943 1.419 . S
C945 C946 1.362 . S
C946 H938 0.930 . S
C946 C945 1.362 . S
C946 C949 1.409 . S
C947 H939 0.930 . S
C947 C948 1.355 . S
C947 C949 1.415 . S
C948 C947 1.355 . S
C948 C950 1.419 . S
C949 C944 1.425 . S
C949 C946 1.409 . S
C949 C947 1.415 . S
C950 H940 0.930 . S
C950 C948 1.419 . S
C950 C951 1.362 . S
C951 H941 0.930 . S
C951 C944 1.409 . S
C951 C950 1.362 . S
H952 C958 0.932 . S
H953 C961 0.930 . S
H954 C962 0.930 . S
H955 C963 0.930 . S
H956 C966 0.930 . S
H957 C967 0.930 . S
C958 H952 0.932 . S
C958 C959 1.365 . S
C958 C960 1.402 1_556 S
C959 C958 1.365 . S
C959 C961 1.419 . S
C960 C958 1.402 1_554 S
C960 C965 1.425 . S
C960 C967 1.409 . S
C961 H953 0.930 . S
C961 C959 1.419 . S
C961 C962 1.362 1_556 S
C962 H954 0.930 . S
C962 C961 1.362 1_554 S
C962 C965 1.409 . S
C963 H955 0.930 . S
C963 C964 1.355 . S
C963 C965 1.415 . S
C964 C963 1.355 . S
C964 C966 1.419 . S
C965 C960 1.425 . S
C965 C962 1.409 . S
C965 C963 1.415 . S
C966 H956 0.930 . S
C966 C964 1.419 . S
C966 C967 1.362 . S
C967 H957 0.930 . S
C967 C960 1.409 . S
C967 C966 1.362 . S
H968 C974 0.930 . S
H969 C977 0.930 . S
H970 C978 0.930 . S
H971 C979 0.930 . S
H972 C982 0.930 . S
H973 C983 0.930 . S
C974 H968 0.930 . S
C974 C975 1.355 . S
C974 C976 1.415 . S
C975 C974 1.355 . S
C975 C977 1.419 . S
C976 C974 1.415 . S
C976 C981 1.425 . S
C976 C983 1.409 . S
C977 H969 0.930 . S
C977 C975 1.419 . S
C977 C978 1.362 . S
C978 H970 0.930 . S
C978 C977 1.362 . S
C978 C981 1.409 . S
C979 H971 0.930 . S
C979 C980 1.355 . S
C979 C981 1.415 . S
C980 C979 1.355 . S
C980 C982 1.419 . S
C981 C976 1.425 . S
C981 C978 1.409 . S
C981 C979 1.415 . S
C982 H972 0.930 . S
C982 C980 1.419 . S
C982 C983 1.362 . S
C983 H973 0.930 . S
C983 C976 1.409 . S
C983 C982 1.362 . S
H984 C990 0.930 . S
H985 C993 0.930 . S
H986 C994 0.930 . S
H987 C995 0.930 . S
H988 C998 0.930 . S
H989 C999 0.930 . S
C990 H984 0.930 . S
C990 C991 1.355 1_554 S
C990 C992 1.415 . S
C991 C990 1.355 1_556 S
C991 C993 1.419 . S
C992 C990 1.415 . S
C992 C997 1.425 . S
C992 C999 1.409 . S
C993 H985 0.930 . S
C993 C991 1.419 . S
C993 C994 1.362 1_556 S
C994 H986 0.930 . S
C994 C993 1.362 1_554 S
C994 C997 1.409 . S
C995 H987 0.930 . S
C995 C996 1.355 . S
C995 C997 1.415 . S
C996 C995 1.355 . S
C996 C998 1.419 . S
C997 C992 1.425 . S
C997 C994 1.409 . S
C997 C995 1.415 . S
C998 H988 0.930 . S
C998 C996 1.419 . S
C998 C999 1.362 . S
C999 H989 0.930 . S
C999 C992 1.409 . S
C999 C998 1.362 . S
H1000 C1006 0.930 . S
H1001 C1009 0.930 . S
H1002 C1010 0.930 . S
H1003 C1011 0.930 . S
H1004 C1014 0.930 . S
H1005 C1015 0.930 . S
C1006 H1000 0.930 . S
C1006 C1007 1.355 . S
C1006 C1008 1.415 . S
C1007 C1006 1.355 . S
C1007 C1009 1.419 . S
C1008 C1006 1.415 . S
C1008 C1013 1.425 . S
C1008 C1015 1.409 . S
C1009 H1001 0.930 . S
C1009 C1007 1.419 . S
C1009 C1010 1.362 . S
C1010 H1002 0.930 . S
C1010 C1009 1.362 . S
C1010 C1013 1.409 . S
C1011 H1003 0.930 . S
C1011 C1012 1.355 . S
C1011 C1013 1.415 . S
C1012 C1011 1.355 . S
C1012 C1014 1.419 . S
C1013 C1008 1.425 . S
C1013 C1010 1.409 . S
C1013 C1011 1.415 . S
C1014 H1004 0.930 . S
C1014 C1012 1.419 . S
C1014 C1015 1.362 . S
C1015 H1005 0.930 . S
C1015 C1008 1.409 . S
C1015 C1014 1.362 . S
H1016 C1022 0.930 . S
H1017 C1025 0.930 . S
H1018 C1026 0.930 . S
H1019 C1027 0.930 . S
H1020 C1030 0.930 . S
H1021 C1031 0.930 . S
C1022 H1016 0.930 . S
C1022 C1023 1.355 . S
C1022 C1024 1.415 . S
C1023 C1022 1.355 . S
C1023 C1025 1.419 . S
C1024 C1022 1.415 . S
C1024 C1029 1.425 . S
C1024 C1031 1.409 . S
C1025 H1017 0.930 . S
C1025 C1023 1.419 . S
C1025 C1026 1.362 . S
C1026 H1018 0.930 . S
C1026 C1025 1.362 . S
C1026 C1029 1.409 . S
C1027 H1019 0.930 . S
C1027 C1028 1.355 . S
C1027 C1029 1.415 . S
C1028 C1027 1.355 . S
C1028 C1030 1.419 . S
C1029 C1024 1.425 . S
C1029 C1026 1.409 . S
C1029 C1027 1.415 . S
C1030 H1020 0.930 . S
C1030 C1028 1.419 . S
C1030 C1031 1.362 . S
C1031 H1021 0.930 . S
C1031 C1024 1.409 . S
C1031 C1030 1.362 . S
H1032 C1038 0.930 . S
H1033 C1041 0.930 . S
H1034 C1042 0.930 . S
H1035 C1043 0.930 . S
H1036 C1046 0.930 . S
H1037 C1047 0.930 . S
C1038 H1032 0.930 . S
C1038 C1039 1.355 . S
C1038 C1040 1.415 . S
C1039 C1038 1.355 . S
C1039 C1041 1.419 . S
C1040 C1038 1.415 . S
C1040 C1045 1.425 . S
C1040 C1047 1.409 . S
C1041 H1033 0.930 . S
C1041 C1039 1.419 . S
C1041 C1042 1.362 . S
C1042 H1034 0.930 . S
C1042 C1041 1.362 . S
C1042 C1045 1.409 . S
C1043 H1035 0.930 . S
C1043 C1044 1.355 . S
C1043 C1045 1.415 . S
C1044 C1043 1.355 . S
C1044 C1046 1.419 . S
C1045 C1040 1.425 . S
C1045 C1042 1.409 . S
C1045 C1043 1.415 . S
C1046 H1036 0.930 . S
C1046 C1044 1.419 . S
C1046 C1047 1.362 . S
C1047 H1037 0.930 . S
C1047 C1040 1.409 . S
C1047 C1046 1.362 . S
H1048 C1054 0.930 . S
H1049 C1057 0.930 . S
H1050 C1058 0.930 . S
H1051 C1059 0.930 . S
H1052 C1062 0.930 . S
H1053 C1063 0.930 . S
C1054 H1048 0.930 . S
C1054 C1055 1.355 . S
C1054 C1056 1.415 . S
C1055 C1054 1.355 . S
C1055 C1057 1.419 . S
C1056 C1054 1.415 . S
C1056 C1061 1.425 . S
C1056 C1063 1.409 . S
C1057 H1049 0.930 . S
C1057 C1055 1.419 . S
C1057 C1058 1.362 . S
C1058 H1050 0.930 . S
C1058 C1057 1.362 . S
C1058 C1061 1.409 . S
C1059 H1051 0.930 . S
C1059 C1060 1.355 . S
C1059 C1061 1.415 . S
C1060 C1059 1.355 . S
C1060 C1062 1.419 . S
C1061 C1056 1.425 . S
C1061 C1058 1.409 . S
C1061 C1059 1.415 . S
C1062 H1052 0.930 . S
C1062 C1060 1.419 . S
C1062 C1063 1.362 . S
C1063 H1053 0.930 . S
C1063 C1056 1.409 . S
C1063 C1062 1.362 . S
H1064 C1070 0.930 . S
H1065 C1073 0.930 . S
H1066 C1074 0.930 . S
H1067 C1075 0.930 . S
H1068 C1078 0.930 . S
H1069 C1079 0.930 . S
C1070 H1064 0.930 . S
C1070 C1071 1.355 . S
C1070 C1072 1.415 . S
C1071 C1070 1.355 . S
C1071 C1073 1.419 . S
C1072 C1070 1.415 . S
C1072 C1077 1.425 . S
C1072 C1079 1.409 . S
C1073 H1065 0.930 . S
C1073 C1071 1.419 . S
C1073 C1074 1.362 . S
C1074 H1066 0.930 . S
C1074 C1073 1.362 . S
C1074 C1077 1.409 . S
C1075 H1067 0.930 . S
C1075 C1076 1.355 . S
C1075 C1077 1.415 . S
C1076 C1075 1.355 . S
C1076 C1078 1.419 . S
C1077 C1072 1.425 . S
C1077 C1074 1.409 . S
C1077 C1075 1.415 . S
C1078 H1068 0.930 . S
C1078 C1076 1.419 . S
C1078 C1079 1.362 . S
C1079 H1069 0.930 . S
C1079 C1072 1.409 . S
C1079 C1078 1.362 . S
H1080 C1086 0.930 . S
H1081 C1089 0.930 . S
H1082 C1090 0.930 . S
H1083 C1091 0.930 . S
H1084 C1094 0.930 . S
H1085 C1095 0.930 . S
C1086 H1080 0.930 . S
C1086 C1087 1.355 . S
C1086 C1088 1.415 . S
C1087 C1086 1.355 . S
C1087 C1089 1.419 . S
C1088 C1086 1.415 . S
C1088 C1093 1.425 . S
C1088 C1095 1.409 . S
C1089 H1081 0.930 . S
C1089 C1087 1.419 . S
C1089 C1090 1.362 . S
C1090 H1082 0.930 . S
C1090 C1089 1.362 . S
C1090 C1093 1.409 . S
C1091 H1083 0.930 . S
C1091 C1092 1.355 . S
C1091 C1093 1.415 . S
C1092 C1091 1.355 . S
C1092 C1094 1.419 . S
C1093 C1088 1.425 . S
C1093 C1090 1.409 . S
C1093 C1091 1.415 . S
C1094 H1084 0.930 . S
C1094 C1092 1.419 . S
C1094 C1095 1.362 . S
C1095 H1085 0.930 . S
C1095 C1088 1.409 . S
C1095 C1094 1.362 . S
H1096 C1102 0.930 . S
H1097 C1105 0.930 . S
H1098 C1106 0.930 . S
H1099 C1107 0.930 . S
H1100 C1110 0.930 . S
H1101 C1111 0.930 . S
C1102 H1096 0.930 . S
C1102 C1103 1.355 . S
C1102 C1104 1.415 . S
C1103 C1102 1.355 . S
C1103 C1105 1.419 . S
C1104 C1102 1.415 . S
C1104 C1109 1.425 . S
C1104 C1111 1.409 . S
C1105 H1097 0.930 . S
C1105 C1103 1.419 . S
C1105 C1106 1.362 . S
C1106 H1098 0.930 . S
C1106 C1105 1.362 . S
C1106 C1109 1.409 . S
C1107 H1099 0.930 . S
C1107 C1108 1.355 . S
C1107 C1109 1.415 . S
C1108 C1107 1.355 . S
C1108 C1110 1.419 . S
C1109 C1104 1.425 . S
C1109 C1106 1.409 . S
C1109 C1107 1.415 . S
C1110 H1100 0.930 . S
C1110 C1108 1.419 . S
C1110 C1111 1.362 . S
C1111 H1101 0.930 . S
C1111 C1104 1.409 . S
C1111 C1110 1.362 . S
H1112 C1118 0.930 . S
H1113 C1121 0.930 . S
H1114 C1122 0.930 . S
H1115 C1123 0.930 . S
H1116 C1126 0.930 . S
H1117 C1127 0.930 . S
C1118 H1112 0.930 . S
C1118 C1119 1.355 . S
C1118 C1120 1.415 . S
C1119 C1118 1.355 . S
C1119 C1121 1.419 . S
C1120 C1118 1.415 . S
C1120 C1125 1.425 . S
C1120 C1127 1.409 . S
C1121 H1113 0.930 . S
C1121 C1119 1.419 . S
C1121 C1122 1.362 . S
C1122 H1114 0.930 . S
C1122 C1121 1.362 . S
C1122 C1125 1.409 . S
C1123 H1115 0.930 . S
C1123 C1124 1.355 . S
C1123 C1125 1.415 . S
C1124 C1123 1.355 . S
C1124 C1126 1.419 . S
C1125 C1120 1.425 . S
C1125 C1122 1.409 . S
C1125 C1123 1.415 . S
C1126 H1116 0.930 . S
C1126 C1124 1.419 . S
C1126 C1127 1.362 . S
C1127 H1117 0.930 . S
C1127 C1120 1.409 . S
C1127 C1126 1.362 . S
C372 C200 1.776 1_556 S
C367 C66 1.798 . S
C388 C215 1.483 . S
C383 C76 1.486 . S
C399 C93 2.004 . S
C404 C228 2.007 . S
C420 C242 1.454 1_455 S
C415 C54 1.444 . S
C436 C254 1.670 . S
C431 C126 1.738 . S
C452 C268 1.585 . S
C447 C150 1.564 . S
C463 C136 1.390 . S
C468 C282 1.386 . S
C484 C297 1.612 . S
C479 C117 1.724 . S
C495 C141 1.384 . S
C500 C313 1.375 . S
C516 C326 1.356 . S
C511 C112 1.349 . S
C527 C124 1.629 . S
C532 C311 1.576 . S
C548 C324 1.377 . S
C543 C148 1.346 . S
C559 C88 1.629 . S
C564 C340 1.586 . S
C575 C52 1.558 . S
C580 C339 1.578 . S
C591 C64 1.468 . S
C596 C338 1.391 . S
C607 C78 1.368 . S
C612 C341 1.356 . S
C623 C45 1.903 . S
C628 C243 1.882 . S
C639 C177 1.735 . S
C644 C241 1.704 . S
C660 C201 1.395 . S
C655 C189 1.403 . S
C676 C212 1.802 . S
C671 C102 1.825 . S
C687 C57 1.618 1_545 S
C692 C257 1.598 . S
C708 C298 1.847 . S
C703 C138 1.842 . S
C724 C255 1.830 . S
C719 C114 1.830 . S
C740 C283 1.603 . S
C735 C153 1.569 . S
C756 C284 1.777 . S
C751 C174 1.799 . S
C767 C184 1.489 . S
C772 C299 1.470 . S
C783 C105 2.018 . S
C788 C256 1.982 . S
C804 C270 1.410 . S
C799 C162 1.415 . S
C815 C42 1.739 . S
C820 C226 1.665 . S
C836 C240 1.577 . S
C831 C6 1.566 . S
C852 C198 1.408 . S
C847 C16 1.368 . S
C868 C213 1.660 . S
C863 C33 1.697 . S
C879 C21 1.396 . S
C884 C327 1.394 . S
C895 C28 1.376 . S
C900 C312 1.356 . S
C911 C40 1.645 . S
C916 C325 1.567 . S
C927 C4 1.389 . S
C932 C310 1.428 . S
C948 C354 1.584 . S
C943 C100 1.629 . S
C964 C353 1.601 . S
C959 C160 1.592 . S
C980 C352 1.452 . S
C975 C172 1.462 . S
C991 C186 1.384 . S
C996 C355 1.357 . S
C1007 C129 1.919 . S
C1012 C271 1.910 . S
C1028 C269 1.721 . S
C1023 C69 1.739 . S
C1044 C285 1.313 . S
C1039 C81 1.365 . S
C1060 C296 1.770 . S
C1055 C90 1.821 . S
C1071 C165 1.664 . S
C1076 C229 1.658 . S
C1092 C214 1.851 . S
C1087 C18 1.838 . S
C1103 C30 1.815 . S
C1108 C227 1.790 . S
C1124 C199 1.601 1_545 S
C1119 C9 1.597 . S
