# Generated by pormake.
# Topology zzz, (3,6)-cn, num edge types: 1
# Building blocks:
#     Node 0, Type 0, BuildingBlock: KAKCAD_clean_linker_0, # of connection points: 3
#     Node 1, Type 0, BuildingBlock: KAKCAD_clean_linker_0, # of connection points: 3
#     Node 2, Type 0, BuildingBlock: KAKCAD_clean_linker_0, # of connection points: 3
#     Node 3, Type 0, BuildingBlock: KAKCAD_clean_linker_0, # of connection points: 3
#     Node 4, Type 0, BuildingBlock: KAKCAD_clean_linker_0, # of connection points: 3
#     Node 5, Type 0, BuildingBlock: KAKCAD_clean_linker_0, # of connection points: 3
#     Node 6, Type 0, BuildingBlock: KAKCAD_clean_linker_0, # of connection points: 3
#     Node 7, Type 0, BuildingBlock: KAKCAD_clean_linker_0, # of connection points: 3
#     Node 8, Type 1, BuildingBlock: HISSIN_clean_sbu_0, # of connection points: 6
#     Node 9, Type 1, BuildingBlock: HISSIN_clean_sbu_0, # of connection points: 6
#     Node 10, Type 1, BuildingBlock: HISSIN_clean_sbu_0, # of connection points: 6
#     Node 11, Type 1, BuildingBlock: HISSIN_clean_sbu_0, # of connection points: 6
#     Edge 12, Type (0, 1), BuildingBlock: TEMPAE_clean_linker_10, # of connection points: 2
#     Edge 13, Type (0, 1), BuildingBlock: TEMPAE_clean_linker_10, # of connection points: 2
#     Edge 14, Type (0, 1), BuildingBlock: TEMPAE_clean_linker_10, # of connection points: 2
#     Edge 15, Type (0, 1), BuildingBlock: TEMPAE_clean_linker_10, # of connection points: 2
#     Edge 16, Type (0, 1), BuildingBlock: TEMPAE_clean_linker_10, # of connection points: 2
#     Edge 17, Type (0, 1), BuildingBlock: TEMPAE_clean_linker_10, # of connection points: 2
#     Edge 18, Type (0, 1), BuildingBlock: TEMPAE_clean_linker_10, # of connection points: 2
#     Edge 19, Type (0, 1), BuildingBlock: TEMPAE_clean_linker_10, # of connection points: 2
#     Edge 20, Type (0, 1), BuildingBlock: TEMPAE_clean_linker_10, # of connection points: 2
#     Edge 21, Type (0, 1), BuildingBlock: TEMPAE_clean_linker_10, # of connection points: 2
#     Edge 22, Type (0, 1), BuildingBlock: TEMPAE_clean_linker_10, # of connection points: 2
#     Edge 23, Type (0, 1), BuildingBlock: TEMPAE_clean_linker_10, # of connection points: 2
#     Edge 24, Type (0, 1), BuildingBlock: TEMPAE_clean_linker_10, # of connection points: 2
#     Edge 25, Type (0, 1), BuildingBlock: TEMPAE_clean_linker_10, # of connection points: 2
#     Edge 26, Type (0, 1), BuildingBlock: TEMPAE_clean_linker_10, # of connection points: 2
#     Edge 27, Type (0, 1), BuildingBlock: TEMPAE_clean_linker_10, # of connection points: 2
#     Edge 28, Type (0, 1), BuildingBlock: TEMPAE_clean_linker_10, # of connection points: 2
#     Edge 29, Type (0, 1), BuildingBlock: TEMPAE_clean_linker_10, # of connection points: 2
#     Edge 30, Type (0, 1), BuildingBlock: TEMPAE_clean_linker_10, # of connection points: 2
#     Edge 31, Type (0, 1), BuildingBlock: TEMPAE_clean_linker_10, # of connection points: 2
#     Edge 32, Type (0, 1), BuildingBlock: TEMPAE_clean_linker_10, # of connection points: 2
#     Edge 33, Type (0, 1), BuildingBlock: TEMPAE_clean_linker_10, # of connection points: 2
#     Edge 34, Type (0, 1), BuildingBlock: TEMPAE_clean_linker_10, # of connection points: 2
#     Edge 35, Type (0, 1), BuildingBlock: TEMPAE_clean_linker_10, # of connection points: 2
# Relax obj value: 0.389
# Max RMSD: 0.221
# Mean RMSD: 0.190
data_MOF--net-zzz--node1-HISSIN_clean_sbu_0--node2-KAKCAD_clean_linker_0--edge1-TEMPAE_clean_linker_10
_symmetry_space_group_name_H-M    P1
_symmetry_Int_Tables_number       1
_symmetry_cell_setting            triclinic
loop_
_symmetry_equiv_pos_as_xyz
'x, y, z'
_cell_length_a     57.052981
_cell_length_b     57.35766
_cell_length_c     21.929142
_cell_angle_alpha  89.677255
_cell_angle_beta   92.017646
_cell_angle_gamma 91.672816
loop_
_atom_site_label
_atom_site_type_symbol
_atom_site_fract_x
_atom_site_fract_y
_atom_site_fract_z
_atom_type_partial_charge
C0 C 0.79723 0.57287 0.03206 0.0
C1 C 0.81828 0.56094 0.03887 0.0
C2 C 0.7828 0.57522 0.08188 0.0
C3 C 0.78893 0.5651 0.13878 0.0
C4 C 0.81053 0.55398 0.14546 0.0
C5 C 0.82508 0.55215 0.09638 0.0
C6 C 0.77208 0.56357 0.18913 0.0
C7 C 0.74802 0.56007 0.17629 0.0
C8 C 0.73246 0.55434 0.22261 0.0
C9 C 0.74136 0.55117 0.28305 0.0
C10 C 0.76548 0.55557 0.29684 0.0
C11 C 0.78031 0.56248 0.25 0.0
C12 C 0.77697 0.55104 0.35746 0.0
C13 C 0.78952 0.56933 0.38745 0.0
C14 C 0.78147 0.528 0.37521 0.0
C15 C 0.79955 0.5233 0.41826 0.0
C16 C 0.81351 0.54157 0.4445 0.0
C17 C 0.7073 0.55102 0.20402 0.0
C18 C 0.69559 0.56973 0.17631 0.0
C19 C 0.69694 0.52856 0.19971 0.0
C20 C 0.67604 0.52472 0.16485 0.0
C21 C 0.66514 0.54327 0.13346 0.0
C22 C 0.6748 0.56594 0.14163 0.0
C23 C 0.80749 0.56467 0.4306 0.0
H24 H 0.79167 0.57976 0.98797 0.0
H25 H 0.76652 0.58428 0.0752 0.0
H26 H 0.81575 0.54533 0.18756 0.0
H27 H 0.84099 0.5424 0.10254 0.0
H28 H 0.74129 0.5606 0.12947 0.0
H29 H 0.79879 0.56575 0.26094 0.0
H30 H 0.72973 0.54565 0.31869 0.0
H31 H 0.78677 0.58724 0.37361 0.0
H32 H 0.77243 0.51356 0.35192 0.0
H33 H 0.80341 0.5053 0.42856 0.0
H34 H 0.70346 0.58716 0.17797 0.0
H35 H 0.70584 0.51377 0.21966 0.0
H36 H 0.81787 0.57922 0.44933 0.0
H37 H 0.66725 0.58067 0.11784 0.0
H38 H 0.66895 0.50706 0.16048 0.0
C39 C 0.92199 0.8057 0.11092 0.0
C40 C 0.93345 0.81063 0.05639 0.0
C41 C 0.92852 0.78664 0.14695 0.0
C42 C 0.94645 0.77219 0.12861 0.0
C43 C 0.95497 0.77493 0.06967 0.0
C44 C 0.94854 0.79398 0.03387 0.0
C45 C 0.9601 0.75847 0.17419 0.0
C46 C 0.96956 0.7372 0.15846 0.0
C47 C 0.98706 0.72699 0.19538 0.0
C48 C 0.99506 0.73827 0.25 0.0
C49 C 0.98475 0.75928 0.26777 0.0
C50 C 0.96736 0.76897 0.22942 0.0
C51 C 0.99229 0.77304 0.32316 0.0
C52 C 0.97506 0.78064 0.36222 0.0
C53 C 0.01496 0.78322 0.32915 0.0
C54 C 0.01975 0.80168 0.37033 0.0
C55 C 1.00195 0.81051 0.40628 0.0
C56 C 0.99713 0.70532 0.17185 0.0
C57 C 0.98422 0.68417 0.17576 0.0
C58 C 0.01545 0.70697 0.13073 0.0
C59 C 0.01993 0.68831 0.09198 0.0
C60 C 1.00605 0.66757 0.09307 0.0
C61 C 0.98872 0.66548 0.13722 0.0
C62 C 0.97974 0.79908 0.40281 0.0
H63 H 0.90974 0.81783 0.12863 0.0
H64 H 0.92119 0.78452 0.19162 0.0
H65 H 0.96876 0.76409 0.05396 0.0
H66 H 0.95775 0.79703 0.99209 0.0
H67 H 0.96405 0.72903 0.1156 0.0
H68 H 0.96068 0.78586 0.24076 0.0
H69 H 1.00895 0.73082 0.27811 0.0
H70 H 0.95733 0.77336 0.35819 0.0
H71 H 0.02852 0.77802 0.29911 0.0
H72 H 0.03724 0.80955 0.37231 0.0
H73 H 0.9696 0.68263 0.20588 0.0
H74 H 0.02515 0.72333 0.12533 0.0
H75 H 0.96535 0.80527 0.42857 0.0
H76 H 0.97793 0.64971 0.14039 0.0
H77 H 0.03327 0.69077 0.05843 0.0
C78 C 0.73633 0.91829 0.98929 0.0
C79 C 0.71289 0.92487 0.9817 0.0
C80 C 0.74939 0.92448 0.04232 0.0
C81 C 0.73934 0.9378 0.08797 0.0
C82 C 0.71519 0.94193 0.08296 0.0
C83 C 0.70213 0.93539 0.03084 0.0
C84 C 0.75422 0.95077 0.13449 0.0
C85 C 0.77614 0.96024 0.11882 0.0
C86 C 0.78852 0.97632 0.15657 0.0
C87 C 0.7783 0.98371 0.21102 0.0
C88 C 0.75646 0.97369 0.22849 0.0
C89 C 0.74516 0.95685 0.19071 0.0
C90 C 0.74352 0.98113 0.28288 0.0
C91 C 0.73767 0.96455 0.32781 0.0
C92 C 0.73188 1.00241 0.28202 0.0
C93 C 0.71394 0.00644 0.32288 0.0
C94 C 0.70719 0.98931 0.36583 0.0
C95 C 0.81176 0.9849 0.1349 0.0
C96 C 0.83004 0.96905 0.13247 0.0
C97 C 0.81363 1.00572 0.10095 0.0
C98 C 0.83272 0.00993 0.06287 0.0
C99 C 0.85018 0.99323 0.05719 0.0
C100 C 0.84897 0.97316 0.09433 0.0
C101 C 0.71991 0.96862 0.36889 0.0
H102 H 0.74502 0.90991 0.95251 0.0
H103 H 0.76776 0.92023 0.0455 0.0
H104 H 0.70664 0.95227 0.11629 0.0
H105 H 0.68419 0.94104 0.02664 0.0
H106 H 0.78332 0.95606 0.07523 0.0
H107 H 0.72844 0.94932 0.20401 0.0
H108 H 0.78724 0.99678 0.2395 0.0
H109 H 0.74588 0.94775 0.32865 0.0
H110 H 0.73555 0.01529 0.24705 0.0
H111 H 0.70482 0.02272 0.31947 0.0
H112 H 0.82883 0.95261 0.15691 0.0
H113 H 0.79947 0.01791 0.10035 0.0
H114 H 0.71521 0.95488 0.40063 0.0
H115 H 0.86221 0.96007 0.09202 0.0
H116 H 0.83295 0.02553 0.03483 0.0
C117 C 0.4993 0.72979 0.40643 0.0
C118 C 0.5198 0.71674 0.4094 0.0
C119 C 0.49639 0.74737 0.36255 0.0
C120 C 0.51388 0.7524 0.32043 0.0
C121 C 0.53515 0.74071 0.32631 0.0
C122 C 0.53814 0.7231 0.37062 0.0
C123 C 0.50721 0.76455 0.26255 0.0
C124 C 0.51745 0.78605 0.24361 0.0
C125 C 0.50949 0.79655 0.18832 0.0
C126 C 0.4922 0.78493 0.15166 0.0
C127 C 0.48269 0.76326 0.16903 0.0
C128 C 0.48995 0.7535 0.22491 0.0
C129 C 0.46653 0.74987 0.12698 0.0
C130 C 0.44803 0.7606 0.09449 0.0
C131 C 0.47027 0.72613 0.11756 0.0
C132 C 0.45601 0.71337 0.07645 0.0
C133 C 0.43747 0.72393 0.04376 0.0
C134 C 0.51865 0.81946 0.1659 0.0
C135 C 0.50275 0.83722 0.15306 0.0
C136 C 0.54159 0.82204 0.14512 0.0
C137 C 0.54801 0.84136 0.10889 0.0
C138 C 0.53159 0.85849 0.09281 0.0
C139 C 0.50911 0.85645 0.11716 0.0
C140 C 0.43359 0.74772 0.05318 0.0
H141 H 0.48499 0.72562 0.43615 0.0
H142 H 0.47971 0.75591 0.35857 0.0
H143 H 0.5487 0.74387 0.29363 0.0
H144 H 0.55412 0.71334 0.37155 0.0
H145 H 0.53091 0.79472 0.27203 0.0
H146 H 0.48235 0.73684 0.23893 0.0
H147 H 0.48677 0.79247 0.10812 0.0
H148 H 0.44474 0.7789 0.10108 0.0
H149 H 0.48473 0.7175 0.14069 0.0
H150 H 0.46005 0.6953 0.06892 0.0
H151 H 0.48484 0.83549 0.16774 0.0
H152 H 0.55407 0.80841 0.15354 0.0
H153 H 0.41948 0.75634 0.02863 0.0
H154 H 0.4958 0.86894 0.10538 0.0
H155 H 0.56557 0.84245 0.09173 0.0
C156 C 0.24068 0.44332 0.26845 0.0
C157 C 0.21951 0.43408 0.24309 0.0
C158 C 0.26094 0.44354 0.23461 0.0
C159 C 0.26025 0.43432 0.17525 0.0
C160 C 0.24007 0.42155 0.15476 0.0
C161 C 0.21969 0.42174 0.18811 0.0
C162 C 0.27743 0.44323 0.13079 0.0
C163 C 0.30105 0.44735 0.14795 0.0
C164 C 0.31588 0.46113 0.11149 0.0
C165 C 0.30673 0.47077 0.05625 0.0
C166 C 0.28324 0.46559 0.03718 0.0
C167 C 0.26902 0.45182 0.07457 0.0
C168 C 0.27146 0.47553 0.98184 0.0
C169 C 0.26185 0.49774 0.98485 0.0
C170 C 0.26303 0.46023 0.93571 0.0
C171 C 0.24411 0.4662 0.89677 0.0
C172 C 0.23302 0.48762 0.90322 0.0
C173 C 0.34014 0.46632 0.13595 0.0
C174 C 0.34741 0.48921 0.15149 0.0
C175 C 0.35425 0.44782 0.15541 0.0
C176 C 0.37422 0.45189 0.1931 0.0
C177 C 0.38059 0.47457 0.21277 0.0
C178 C 0.36745 0.49331 0.18954 0.0
C179 C 0.24288 0.50375 0.9459 0.0
H180 H 0.24092 0.45296 0.31084 0.0
H181 H 0.27615 0.45345 0.25207 0.0
H182 H 0.23924 0.41368 0.10993 0.0
H183 H 0.20354 0.41431 0.1681 0.0
H184 H 0.30762 0.44086 0.19164 0.0
H185 H 0.2506 0.44939 0.06147 0.0
H186 H 0.3177 0.48202 0.02862 0.0
H187 H 0.26759 0.50965 0.02092 0.0
H188 H 0.26966 0.44275 0.93351 0.0
H189 H 0.23702 0.45321 0.865 0.0
H190 H 0.33668 0.50376 0.13794 0.0
H191 H 0.34904 0.43 0.14418 0.0
H192 H 0.23512 0.52058 0.95152 0.0
H193 H 0.37176 0.511 0.20384 0.0
H194 H 0.38417 0.43709 0.20887 0.0
C195 C 0.08417 0.2249 0.28491 0.0
C196 C 0.09806 0.20789 0.25909 0.0
C197 C 0.07963 0.24555 0.2537 0.0
C198 C 0.08872 0.24956 0.19582 0.0
C199 C 0.10563 0.23447 0.17479 0.0
C200 C 0.11038 0.21381 0.20644 0.0
C201 C 0.07589 0.2651 0.15287 0.0
C202 C 0.06706 0.2861 0.17304 0.0
C203 C 0.04897 0.2972 0.14019 0.0
C204 C 0.03988 0.28718 0.08494 0.0
C205 C 0.04959 0.26653 0.06268 0.0
C206 C 0.06772 0.25605 0.09664 0.0
C207 C 0.03986 0.25312 1.00902 0.0
C208 C 0.0193 0.23928 0.01456 0.0
C209 C 0.05458 0.24854 0.96064 0.0
C210 C 0.04972 0.22969 0.92122 0.0
C211 C 0.03009 0.21468 0.92941 0.0
C212 C 0.03869 0.31764 0.16984 0.0
C213 C 0.02585 0.31397 0.22275 0.0
C214 C 0.04657 0.34044 0.15596 0.0
C215 C 0.04265 0.35897 0.19583 0.0
C216 C 0.03109 0.355 0.2509 0.0
C217 C 0.02206 0.33238 0.26266 0.0
C218 C 0.01447 0.2203 0.97527 0.0
H219 H 0.07435 0.22128 0.32539 0.0
H220 H 0.06658 0.25679 0.27149 0.0
H221 H 0.11338 0.23748 0.13094 0.0
H222 H 0.12193 0.20153 0.18649 0.0
H223 H 0.07323 0.29309 0.2168 0.0
H224 H 0.07385 0.23935 0.08178 0.0
H225 H 0.02521 0.29496 0.06057 0.0
H226 H 1.00795 0.24196 0.05231 0.0
H227 H 0.07088 0.25849 0.95627 0.0
H228 H 0.06231 0.22595 0.88704 0.0
H229 H 0.02002 0.2965 0.23525 0.0
H230 H 0.05708 0.34364 0.11643 0.0
H231 H 0.99898 0.20941 0.98252 0.0
H232 H 0.01279 0.32869 0.30404 0.0
H233 H 0.04996 0.3761 0.1854 0.0
C234 C 0.29231 0.10285 0.28827 0.0
C235 C 0.31533 0.10707 0.2692 0.0
C236 C 0.27518 0.09377 0.24736 0.0
C237 C 0.28036 0.09031 0.1857 0.0
C238 C 0.30125 0.10072 0.16459 0.0
C239 C 0.31887 0.10846 0.20609 0.0
C240 C 0.26715 0.07201 0.14853 0.0
C241 C 0.2443 0.06464 0.16286 0.0
C242 C 0.23418 0.0436 0.14023 0.0
C243 C 0.24666 0.03055 0.09782 0.0
C244 C 0.26897 0.03876 0.07912 0.0
C245 C 0.27896 0.05904 0.10554 0.0
C246 C 0.2835 0.02671 0.03425 0.0
C247 C 0.30346 0.01483 0.05533 0.0
C248 C 0.28194 0.03317 0.97235 0.0
C249 C 0.30042 0.029 0.93333 0.0
C250 C 0.32111 0.01839 0.95524 0.0
C251 C 0.21166 0.03532 0.16738 0.0
C252 C 0.21061 0.01469 0.20243 0.0
C253 C 0.19299 0.05074 0.17045 0.0
C254 C 0.17479 0.04666 0.21081 0.0
C255 C 0.17457 0.02696 0.24935 0.0
C256 C 0.19222 0.01052 0.24283 0.0
C257 C 0.32193 0.01061 0.01639 0.0
H258 H 0.28839 0.10334 0.3362 0.0
H259 H 0.25908 0.08717 0.2664 0.0
H260 H 0.30522 0.10051 0.11672 0.0
H261 H 0.33599 0.11267 0.18858 0.0
H262 H 0.23465 0.07456 0.19485 0.0
H263 H 0.29676 0.06386 0.09405 0.0
H264 H 0.23919 0.0143 0.07995 0.0
H265 H 0.30557 0.01036 0.10324 0.0
H266 H 0.26714 0.04297 0.95515 0.0
H267 H 0.29885 0.03494 0.88646 0.0
H268 H 0.22488 1.00266 0.20202 0.0
H269 H 0.19327 0.06682 0.14427 0.0
H270 H 0.33752 1.00263 0.03551 0.0
H271 H 0.19267 0.99515 0.27172 0.0
H272 H 0.16129 0.05947 0.21351 0.0
C273 C 0.49455 0.31592 0.01286 0.0
C274 C 0.5063 0.317 0.95742 0.0
C275 C 0.49722 0.29688 0.0527 0.0
C276 C 0.51164 0.27846 0.038 0.0
C277 C 0.52243 0.27889 0.9814 0.0
C278 C 0.51964 0.29785 0.94129 0.0
C279 C 0.5201 0.26245 0.08686 0.0
C280 C 0.50782 0.24171 0.1032 0.0
C281 C 0.51662 0.22783 0.15176 0.0
C282 C 0.5374 0.23484 0.18334 0.0
C283 C 0.54897 0.25603 0.16992 0.0
C284 C 0.54041 0.26944 0.12066 0.0
C285 C 0.56764 0.26579 0.21243 0.0
C286 C 0.5657 0.26271 0.27581 0.0
C287 C 0.58571 0.28063 0.1912 0.0
C288 C 0.59976 0.29394 0.23222 0.0
C289 C 0.59614 0.29244 0.29518 0.0
C290 C 0.50389 0.20708 0.17598 0.0
C291 C 0.4901 0.20971 0.22716 0.0
C292 C 0.51091 0.18467 0.16074 0.0
C293 C 0.50549 0.16548 0.19815 0.0
C294 C 0.4933 0.16835 0.25234 0.0
C295 C 0.48483 0.19059 0.26488 0.0
C296 C 0.57995 0.27571 0.31663 0.0
H297 H 0.48393 0.33022 0.02649 0.0
H298 H 0.48918 0.29723 0.0967 0.0
H299 H 0.53417 0.26521 0.9698 0.0
H300 H 0.52912 0.29814 0.89936 0.0
H301 H 0.49156 0.23666 0.0792 0.0
H302 H 0.54876 0.28615 0.1103 0.0
H303 H 0.54392 0.2241 0.22072 0.0
H304 H 0.552 0.25162 0.29435 0.0
H305 H 0.58813 0.28298 0.14277 0.0
H306 H 0.61216 0.30667 0.21432 0.0
H307 H 0.48508 0.22693 0.24088 0.0
H308 H 0.52202 0.18229 0.12233 0.0
H309 H 0.57707 0.27391 0.36503 0.0
H310 H 0.47563 0.19368 0.30627 0.0
H311 H 0.5119 0.14859 0.18614 0.0
Eu312 Eu 0.99544 0.02297 0.60978 0.0
Eu313 Eu 0.03412 0.00603 0.71242 0.0
C314 C 0.02032 0.05885 0.70559 0.0
C315 C 0.97376 0.05011 0.4651 0.0
C316 C 0.96867 0.07341 0.45209 0.0
C317 C 1.00197 0.05096 0.38481 0.0
C318 C 0.98148 0.08591 0.40912 0.0
C319 C 0.98948 0.03857 0.42862 0.0
C320 C 0.99936 0.07513 0.37795 0.0
C321 C 0.96788 0.04059 0.52519 0.0
O322 O 0.99964 0.00706 0.76151 0.0
O323 O 0.97223 0.00767 0.6823 0.0
C324 C 0.97766 1.00572 0.74091 0.0
O325 O 1.00222 0.98592 0.5828 0.0
O326 O 0.05156 0.01237 0.80115 0.0
O327 O 0.06029 0.98221 0.74909 0.0
O328 O 0.01879 0.97225 0.67245 0.0
C329 C 0.00976 0.96865 0.6171 0.0
O330 O 0.03052 0.02898 0.56432 0.0
O331 O 0.05584 0.00914 0.62858 0.0
O332 O 0.03845 0.04531 0.7066 0.0
O333 O 0.96982 0.01818 0.53372 0.0
O334 O 0.97727 0.05256 0.57051 0.0
O335 O 1.00019 0.05108 0.68186 0.0
C336 C 0.0537 0.97633 0.85347 0.0
C337 C 0.05761 0.95231 0.85008 0.0
C338 C 0.0255 0.9686 0.9321 0.0
C339 C 0.04443 0.93651 0.88445 0.0
C340 C 0.03863 0.98439 0.89773 0.0
C341 C 0.02729 0.94453 0.92308 0.0
C342 C 0.06082 0.99184 0.80291 0.0
C343 C 0.05116 0.01984 0.57655 0.0
H344 H 0.95666 0.08265 0.47984 0.0
H345 H 0.01505 0.04203 0.35997 0.0
H346 H 0.97894 0.10449 0.40509 0.0
H347 H 0.99375 0.02056 0.43754 0.0
H348 H 0.06929 0.94561 0.81687 0.0
H349 H 0.01285 0.9752 0.96289 0.0
H350 H 0.04626 0.91802 0.87682 0.0
H351 H 0.03546 1.00281 0.90241 0.0
Eu352 Eu 0.52741 0.02912 0.70549 0.0
Eu353 Eu 0.50327 0.98953 0.61768 0.0
C354 C 0.52745 0.9748 0.74601 0.0
C355 C 0.57832 0.05681 0.78124 0.0
C356 C 0.58671 0.04953 0.83891 0.0
C357 C 0.61435 0.04411 0.73726 0.0
C358 C 0.6079 0.03807 0.84482 0.0
C359 C 0.59317 0.0556 0.73139 0.0
C360 C 0.62112 0.03393 0.79316 0.0
C361 C 0.55277 0.05868 0.77016 0.0
O362 O 0.47283 0.00635 0.6634 0.0
O363 O 0.4921 0.02238 0.74722 0.0
C364 C 0.47256 0.01505 0.71887 0.0
O365 O 0.50431 0.04951 0.64017 0.0
O366 O 0.47698 0.96195 0.59701 0.0
O367 O 0.50105 0.97305 0.5281 0.0
O368 O 0.50405 0.02302 0.56304 0.0
C369 C 0.50096 0.04427 0.58232 0.0
O370 O 0.5533 0.02203 0.63206 0.0
O371 O 0.54232 0.98456 0.60853 0.0
O372 O 0.51037 0.97033 0.70572 0.0
O373 O 0.54583 0.06293 0.71399 0.0
O374 O 0.54015 0.04196 0.79452 0.0
O375 O 0.53965 0.99461 0.74472 0.0
C376 C 0.4611 0.9726 0.50005 0.0
C377 C 0.46533 0.97949 0.43963 0.0
C378 C 0.4278 0.99802 0.49988 0.0
C379 C 0.45175 0.99657 0.41107 0.0
C380 C 0.44117 0.98087 0.52813 0.0
C381 C 0.4338 0.00691 0.44264 0.0
C382 C 0.48056 0.96347 0.53859 0.0
C383 C 0.55788 1.00191 0.60744 0.0
H384 H 0.57569 0.05031 0.87807 0.0
H385 H 0.62453 0.04168 0.69712 0.0
H386 H 0.61266 0.03046 0.88868 0.0
H387 H 0.58745 0.06142 0.68637 0.0
H388 H 0.48052 0.9734 0.41681 0.0
H389 H 0.41352 1.00525 0.52425 0.0
H390 H 0.45642 1.00293 0.36638 0.0
H391 H 0.43712 0.97581 0.57433 0.0
Eu392 Eu 0.49706 0.52192 0.71141 0.0
Eu393 Eu 0.54426 0.5088 0.6412 0.0
C394 C 0.54705 0.52513 0.77862 0.0
C395 C 0.44455 0.55488 0.75745 0.0
C396 C 0.45088 0.5728 0.71688 0.0
C397 C 0.41608 0.57988 0.80094 0.0
C398 C 0.44065 0.59454 0.72037 0.0
C399 C 0.42645 0.55818 0.79767 0.0
C400 C 0.42394 0.59857 0.76443 0.0
C401 C 0.45895 0.53423 0.7636 0.0
O402 O 0.53592 0.47658 0.69777 0.0
O403 O 0.49726 0.4826 0.7175 0.0
C404 C 0.51556 0.46915 0.71816 0.0
O405 O 0.48771 0.52083 0.61079 0.0
O406 O 0.5812 0.50032 0.64842 0.0
O407 O 0.56446 0.50495 0.55921 0.0
O408 O 0.51388 0.49395 0.58262 0.0
C409 C 0.49423 0.50502 0.57238 0.0
O410 O 0.51245 0.5569 0.68137 0.0
O411 O 0.53503 0.5443 0.60439 0.0
O412 O 0.55482 0.53023 0.72444 0.0
O413 O 0.45887 0.52049 0.71642 0.0
O414 O 0.48006 0.53829 0.78667 0.0
O415 O 0.5257 0.51643 0.78353 0.0
C416 C 0.59501 0.47832 0.56754 0.0
C417 C 0.58995 0.45614 0.59178 0.0
C418 C 0.6208 0.4611 0.49579 0.0
C419 C 0.60009 0.4365 0.56769 0.0
C420 C 0.61077 0.48075 0.5202 0.0
C421 C 0.61526 0.43876 0.51868 0.0
C422 C 0.58341 0.49895 0.58961 0.0
C423 C 0.52435 0.56106 0.63193 0.0
H424 H 0.46483 0.57047 0.68539 0.0
H425 H 0.40347 0.58261 0.83584 0.0
H426 H 0.44701 0.60867 0.6918 0.0
H427 H 0.42142 0.54449 0.8293 0.0
H428 H 0.57771 0.45393 0.6282 0.0
H429 H 0.63242 0.46329 0.45804 0.0
H430 H 0.59517 0.41946 0.58545 0.0
H431 H 0.61487 0.4978 0.50113 0.0
Eu432 Eu 0.03212 0.53178 0.62324 0.0
Eu433 Eu 0.01454 0.49155 0.71706 0.0
C434 C 0.06954 0.50479 0.71003 0.0
C435 C 0.06757 0.55482 0.49725 0.0
C436 C 0.09052 0.55087 0.51967 0.0
C437 C 0.0777 0.53908 0.39924 0.0
C438 C 0.10658 0.54033 0.48291 0.0
C439 C 0.0617 0.54986 0.43581 0.0
C440 C 0.09996 0.53342 0.42328 0.0
C441 C 0.04869 0.55939 0.53961 0.0
O442 O 0.02164 0.52413 0.77381 0.0
O443 O 0.01811 0.55257 0.70056 0.0
C444 C 0.01885 0.5461 0.75824 0.0
O445 O 0.99311 0.52792 0.6026 0.0
O446 O 1.0065 0.4799 0.8089 0.0
O447 O 1.00406 0.45521 0.73494 0.0
O448 O 0.98045 0.50824 0.68736 0.0
C449 C 0.97609 0.51989 0.63654 0.0
O450 O 0.04073 0.49675 0.58345 0.0
O451 O 0.0095 0.47712 0.62161 0.0
O452 O 0.05393 0.48766 0.71585 0.0
O453 O 0.02985 0.54622 0.53126 0.0
O454 O 0.05473 0.56138 0.59739 0.0
O455 O 0.06369 0.52473 0.68493 0.0
C456 C 0.97368 0.45492 0.80566 0.0
C457 C 0.9673 0.45689 0.86655 0.0
C458 C 0.93308 0.45972 0.77256 0.0
C459 C 0.94428 0.462 0.87995 0.0
C460 C 0.9561 0.45484 0.75907 0.0
C461 C 0.92741 0.46505 0.83251 0.0
C462 C 0.99828 0.45961 0.79062 0.0
C463 C 0.02551 0.47919 0.58044 0.0
H464 H 0.09566 0.55444 0.5668 0.0
H465 H 0.07233 0.53422 0.35306 0.0
H466 H 0.12363 0.53612 0.5026 0.0
H467 H 0.04415 0.55279 0.41734 0.0
H468 H 0.98058 0.45707 0.90312 0.0
H469 H 0.92021 0.46135 0.73552 0.0
H470 H 0.94038 0.46599 0.92668 0.0
H471 H 0.96046 0.45331 0.71159 0.0
C472 C 0.15236 0.04425 0.33464 0.0
C473 C 0.15707 0.02477 0.29895 0.0
C474 C 0.13604 0.043 0.38134 0.0
C475 C 0.12356 0.02174 0.39275 0.0
C476 C 0.12878 1.00176 0.35824 0.0
C477 C 0.14542 1.0035 0.31196 0.0
C478 C 0.13328 0.06455 0.41936 0.0
C479 C 0.11702 0.9784 0.37085 0.0
C480 C 0.09324 0.01657 0.54597 0.0
C481 C 0.06969 0.02088 0.52951 0.0
C482 C 0.1108 0.0165 0.50218 0.0
C483 C 0.10486 0.02055 0.43979 0.0
C484 C 0.08109 0.02459 0.42266 0.0
C485 C 0.0639 0.02495 0.46755 0.0
C486 C 0.13583 0.01229 0.52286 0.0
C487 C 0.07386 0.02843 0.35659 0.0
H488 H 0.16185 0.0606 0.32684 0.0
H489 H 0.1491 0.98825 0.28537 0.0
H490 H 0.11748 0.06387 0.44732 0.0
H491 H 0.1489 0.06671 0.45068 0.0
H492 H 0.13279 0.0803 0.3897 0.0
H493 H 0.1235 0.96438 0.34162 0.0
H494 H 0.1202 0.97349 0.4194 0.0
H495 H 0.09777 0.97943 0.3631 0.0
H496 H 0.09805 0.01337 0.59347 0.0
H497 H 0.04581 0.02799 0.45385 0.0
H498 H 0.14667 0.0284 0.51578 0.0
H499 H 0.14323 0.99832 0.4952 0.0
H500 H 0.13736 0.0073 0.57182 0.0
H501 H 0.08337 0.04397 0.3385 0.0
H502 H 0.05472 0.03078 0.35002 0.0
H503 H 0.07873 0.01334 0.32884 0.0
C504 C 0.51066 0.1344 0.30969 0.0
C505 C 0.49161 0.14903 0.2986 0.0
C506 C 0.51033 0.11736 0.35606 0.0
C507 C 0.49054 0.11482 0.39303 0.0
C508 C 0.47112 0.12927 0.38175 0.0
C509 C 0.47184 0.14611 0.33472 0.0
C510 C 0.53144 0.10236 0.36632 0.0
C511 C 0.4498 0.12731 0.42035 0.0
C512 C 0.48572 0.05696 0.47899 0.0
C513 C 0.49564 0.06283 0.5366 0.0
C514 C 0.48293 0.07389 0.43277 0.0
C515 C 0.49056 0.09727 0.44396 0.0
C516 C 0.49973 0.10346 0.5028 0.0
C517 C 0.50199 0.08622 0.54849 0.0
C518 C 0.47232 0.06666 0.37147 0.0
C519 C 0.50814 0.12811 0.51677 0.0
H520 H 0.52627 0.13671 0.28334 0.0
H521 H 0.45691 0.1571 0.32653 0.0
H522 H 0.53905 0.10518 0.41306 0.0
H523 H 0.52609 0.08365 0.36267 0.0
H524 H 0.54529 0.10619 0.33303 0.0
H525 H 0.435 0.13753 0.40125 0.0
H526 H 0.44399 0.1088 0.42467 0.0
H527 H 0.45434 0.13375 0.467 0.0
H528 H 0.48043 0.03899 0.46967 0.0
H529 H 0.50971 0.09092 0.59277 0.0
H530 H 0.48466 0.07109 0.33487 0.0
H531 H 0.45607 0.07638 0.3617 0.0
H532 H 0.46795 0.04769 0.3694 0.0
H533 H 0.52348 0.13269 0.48888 0.0
H534 H 0.51334 0.13046 0.5657 0.0
H535 H 0.49422 0.14056 0.50444 0.0
C536 C 0.4007 0.46311 0.3119 0.0
C537 C 0.39942 0.47828 0.2614 0.0
C538 C 0.41729 0.46684 0.36006 0.0
C539 C 0.4332 0.48623 0.35809 0.0
C540 C 0.4324 0.50135 0.30668 0.0
C541 C 0.41547 0.49728 0.25919 0.0
C542 C 0.41724 0.45042 0.41414 0.0
C543 C 0.44912 0.52212 0.30245 0.0
C544 C 0.45679 0.50998 0.51093 0.0
C545 C 0.47906 0.50018 0.51676 0.0
C546 C 0.44193 0.50577 0.45945 0.0
C547 C 0.44945 0.49151 0.41182 0.0
C548 C 0.472 0.48174 0.41693 0.0
C549 C 0.48649 0.48609 0.4694 0.0
C550 C 0.41799 0.51638 0.45648 0.0
C551 C 0.48077 0.46658 0.36707 0.0
H552 H 0.38816 0.44862 0.31483 0.0
H553 H 0.41479 0.509 0.22028 0.0
H554 H 0.43503 0.44356 0.423 0.0
H555 H 0.41249 0.45999 0.45556 0.0
H556 H 0.40465 0.43545 0.40727 0.0
H557 H 0.44738 0.53126 0.25778 0.0
H558 H 0.44574 0.53469 0.33917 0.0
H559 H 0.46749 0.51654 0.3093 0.0
H560 H 0.45074 0.52085 0.54711 0.0
H561 H 0.50366 0.47851 0.47318 0.0
H562 H 0.40418 0.50236 0.45362 0.0
H563 H 0.41599 0.52728 0.4148 0.0
H564 H 0.41489 0.52734 0.49685 0.0
H565 H 0.4692 0.45079 0.36163 0.0
H566 H 0.49902 0.46102 0.3767 0.0
H567 H 0.48012 0.47612 0.32292 0.0
C568 C 0.02431 0.3967 0.28193 0.0
C569 C 0.02995 0.37376 0.29809 0.0
C570 C 0.0234 0.41433 0.32642 0.0
C571 C 0.02858 0.40908 0.3887 0.0
C572 C 0.03457 0.38602 0.40509 0.0
C573 C 0.03506 0.36871 0.35988 0.0
C574 C 0.01688 0.43862 0.30681 0.0
C575 C 0.04066 0.37963 0.47051 0.0
C576 C 0.04674 0.45881 0.4981 0.0
C577 C 0.02626 0.46163 0.53059 0.0
C578 C 0.04775 0.44185 0.45201 0.0
C579 C 0.02766 0.4276 0.43681 0.0
C580 C 1.00681 0.43071 0.46876 0.0
C581 C 1.00644 0.44744 0.51553 0.0
C582 C 0.07058 0.43873 0.42088 0.0
C583 C 0.98485 0.41626 0.45368 0.0
H584 H 0.02028 0.40082 0.23449 0.0
H585 H 0.0399 0.35119 0.37288 0.0
H586 H 1.00135 0.4441 0.33161 0.0
H587 H 0.0315 0.45114 0.31873 0.0
H588 H 0.01285 0.43984 0.25698 0.0
H589 H 0.04526 0.36103 0.47579 0.0
H590 H 0.05572 0.39068 0.48779 0.0
H591 H 0.02564 0.38302 0.49965 0.0
H592 H 0.06221 0.46954 0.50959 0.0
H593 H 0.99046 0.44957 0.53999 0.0
H594 H 0.06755 0.43758 0.37078 0.0
H595 H 0.07834 0.4221 0.43633 0.0
H596 H 0.08348 0.45316 0.43129 0.0
H597 H 0.97993 0.41811 0.40451 0.0
H598 H 0.9698 0.42139 0.48094 0.0
H599 H 0.98813 0.39755 0.46238 0.0
C600 C 0.88045 0.01691 0.99881 0.0
C601 C 0.86848 0.99561 1.00957 0.0
C602 C 0.89766 0.01896 0.95403 0.0
C603 C 0.90311 0.99929 0.91863 0.0
C604 C 0.89047 0.97796 0.92805 0.0
C605 C 0.87356 0.9764 0.97333 0.0
C606 C 0.90984 0.04231 0.94408 0.0
C607 C 0.89378 0.95665 0.88959 0.0
C608 C 0.93489 0.00677 0.76786 0.0
C609 C 0.95844 1.00329 0.78587 0.0
C610 C 0.91684 1.00577 0.81039 0.0
C611 C 0.92222 1.00096 0.87276 0.0
C612 C 0.94589 0.99706 0.89107 0.0
C613 C 0.96363 0.99838 0.84776 0.0
C614 C 0.89192 0.00978 0.78849 0.0
C615 C 0.95243 0.99131 0.95661 0.0
H616 H 0.87658 0.03195 0.02599 0.0
H617 H 0.86392 0.96003 0.97947 0.0
H618 H 0.92895 0.04097 0.95409 0.0
H619 H 0.90757 0.04765 0.89556 0.0
H620 H 0.90299 0.05615 0.97328 0.0
H621 H 0.87824 0.9542 0.85812 0.0
H622 H 0.90962 0.95777 0.86184 0.0
H623 H 0.8946 0.94085 0.91902 0.0
H624 H 0.93053 0.01062 0.72045 0.0
H625 H 0.98165 0.99552 0.86257 0.0
H626 H 0.88419 0.02358 0.81608 0.0
H627 H 0.88116 0.99356 0.79469 0.0
H628 H 0.89071 0.01494 0.7396 0.0
H629 H 0.94734 1.00561 0.98684 0.0
H630 H 0.97152 0.98862 0.96382 0.0
H631 H 0.94267 0.97531 0.97089 0.0
C632 C 0.54928 0.87228 0.99435 0.0
C633 C 0.5368 0.87721 0.0467 0.0
C634 C 0.55121 0.88859 0.94633 0.0
C635 C 0.5402 0.91034 0.95014 0.0
C636 C 0.52873 0.91594 1.00421 0.0
C637 C 0.52732 0.89944 0.05178 0.0
C638 C 0.56394 0.882 0.89005 0.0
C639 C 0.51677 0.93889 1.01051 0.0
C640 C 0.55145 0.96013 0.83674 0.0
C641 C 0.53208 0.95746 0.79573 0.0
C642 C 0.55482 0.94457 0.88617 0.0
C643 C 0.53826 0.92607 0.89542 0.0
C644 C 0.51897 0.92306 0.85342 0.0
C645 C 0.51622 0.93863 0.80417 0.0
C646 C 0.57584 0.9482 0.92912 0.0
C647 C 0.50079 0.9037 0.86143 0.0
H648 H 0.55657 0.85519 0.98933 0.0
H649 H 0.5181 0.90374 0.09241 0.0
H650 H 0.55103 0.87885 0.85175 0.0
H651 H 0.57599 0.89643 0.87607 0.0
H652 H 0.57421 0.86599 0.89729 0.0
H653 H 0.51041 0.94147 0.05723 0.0
H654 H 0.52893 0.95362 0.99934 0.0
H655 H 0.50154 0.93955 0.97768 0.0
H656 H 0.5639 0.97453 0.83064 0.0
H657 H 0.50115 0.93634 0.77308 0.0
H658 H 0.58569 0.93185 0.93378 0.0
H659 H 0.56994 0.95268 0.97516 0.0
H660 H 0.58792 0.96235 0.9134 0.0
H661 H 0.50931 0.88656 0.86314 0.0
H662 H 0.48714 0.90335 0.82402 0.0
H663 H 0.49206 0.9059 0.90538 0.0
C664 C 0.62735 0.55518 0.07982 0.0
C665 C 0.64525 0.53899 0.08789 0.0
C666 C 0.61026 0.55288 0.03216 0.0
C667 C 0.61081 0.53379 0.99155 0.0
C668 C 0.6282 0.51686 1.00091 0.0
C669 C 0.6452 0.5197 0.04862 0.0
C670 C 0.59205 0.57133 0.02404 0.0
C671 C 0.62937 0.49614 0.9591 0.0
C672 C 0.55669 0.51847 0.89021 0.0
C673 C 0.56285 0.52819 0.83383 0.0
C674 C 0.57202 0.52021 0.94191 0.0
C675 C 0.594 0.53215 0.93751 0.0
C676 C 0.60013 0.54231 0.88097 0.0
C677 C 0.58459 0.54011 0.82991 0.0
C678 C 0.56485 0.50892 1.001 0.0
C679 C 0.62326 0.55539 0.87423 0.0
H680 H 0.62691 0.56996 0.11029 0.0
H681 H 0.65905 0.50722 0.0535 0.0
H682 H 0.59434 0.58047 0.97983 0.0
H683 H 0.57418 0.56316 0.02269 0.0
H684 H 0.59324 0.58445 0.06116 0.0
H685 H 0.64276 0.48361 0.97515 0.0
H686 H 0.61205 0.48683 0.95544 0.0
H687 H 0.63372 0.50218 0.91259 0.0
H688 H 0.54002 0.5091 0.89378 0.0
H689 H 0.58954 0.54773 0.78672 0.0
H690 H 0.56518 0.52208 0.03791 0.0
H691 H 0.57756 0.49542 0.01482 0.0
H692 H 0.54702 0.50062 0.99733 0.0
H693 H 0.62494 0.5698 0.9078 0.0
H694 H 0.62516 0.56283 0.82772 0.0
H695 H 0.63796 0.54354 0.88402 0.0
C696 C 0.0304 0.64327 0.02421 0.0
C697 C 1.00836 0.64905 0.04551 0.0
C698 C 0.03254 0.62663 0.97769 0.0
C699 C 0.01218 0.61538 0.9514 0.0
C700 C 0.98991 0.62101 0.97288 0.0
C701 C 0.98828 0.63771 0.01932 0.0
C702 C 0.05665 0.62113 0.95653 0.0
C703 C 0.9677 0.60955 0.94632 0.0
C704 C 0.0149 0.58772 0.7932 0.0
C705 C 0.01709 0.56394 0.8074 0.0
C706 C 0.01341 0.60459 0.83939 0.0
C707 C 0.01411 0.59766 0.90163 0.0
C708 C 0.01631 0.57371 0.91624 0.0
C709 C 0.01777 0.55722 0.86921 0.0
C710 C 0.01105 0.62989 0.82155 0.0
C711 C 0.01707 0.56544 0.98175 0.0
H712 H 0.04608 0.65167 0.0442 0.0
H713 H 0.9711 0.64227 0.03417 0.0
H714 H 0.05986 0.60229 0.96312 0.0
H715 H 0.05776 0.6249 0.90702 0.0
H716 H 0.07076 0.63134 0.98142 0.0
H717 H 0.95175 0.6156 0.96839 0.0
H718 H 0.96605 0.61333 0.89671 0.0
H719 H 0.96843 0.59033 0.95165 0.0
H720 H 0.01437 0.59322 0.74582 0.0
H721 H 0.01944 0.53897 0.8811 0.0
H722 H 0.02575 0.64048 0.84256 0.0
H723 H 0.99455 0.63662 0.83907 0.0
H724 H 0.01096 0.63253 0.77132 0.0
H725 H 0.01908 0.54628 0.98571 0.0
H726 H 1.00071 0.57013 1.00406 0.0
H727 H 0.03188 0.57429 1.00733 0.0
C728 C 0.09184 0.1656 0.23375 0.0
C729 C 0.09472 0.1831 0.27833 0.0
C730 C 0.08054 0.14423 0.24697 0.0
C731 C 0.07125 0.1407 0.30522 0.0
C732 C 0.0767 0.15694 0.35232 0.0
C733 C 0.08897 0.17771 0.3386 0.0
C734 C 0.07669 0.12636 0.19711 0.0
C735 C 0.06765 0.15345 0.41573 0.0
C736 C 0.01188 0.11012 0.31677 0.0
C737 C 0.01772 0.08971 0.34848 0.0
C738 C 0.02931 0.12648 0.30039 0.0
C739 C 0.05319 0.12204 0.31482 0.0
C740 C 0.05929 0.1008 0.34318 0.0
C741 C 0.04148 0.08498 0.36004 0.0
C742 C 0.02203 0.14917 0.27108 0.0
C743 C 0.0845 0.09491 0.35742 0.0
H744 H 0.09641 0.16918 0.18705 0.0
H745 H 0.09213 0.19064 0.37402 0.0
H746 H 0.07943 0.10852 0.21542 0.0
H747 H 0.05835 0.12699 0.17876 0.0
H748 H 0.08866 0.12959 0.1589 0.0
H749 H 0.07464 0.16702 0.44803 0.0
H750 H 0.0482 0.15403 0.4139 0.0
H751 H 0.07246 0.13608 0.43387 0.0
H752 H 0.99358 0.11378 0.30715 0.0
H753 H 0.0462 0.06955 0.38575 0.0
H754 H 0.03078 0.15176 0.2271 0.0
H755 H 0.02764 0.16397 0.30115 0.0
H756 H 1.00275 0.14981 0.26245 0.0
H757 H 0.09208 0.08764 0.31593 0.0
H758 H 0.08575 0.08168 0.39439 0.0
H759 H 0.0954 0.11043 0.37128 0.0
C760 C 0.3332 0.08518 0.35685 0.0
C761 C 0.33565 0.10267 0.31209 0.0
C762 C 0.35271 0.07439 0.38324 0.0
C763 C 0.37539 0.08124 0.36478 0.0
C764 C 0.37828 0.10078 0.32577 0.0
C765 C 0.35832 0.11141 0.30015 0.0
C766 C 0.34875 0.05376 0.4253 0.0
C767 C 0.40211 0.10932 0.30614 0.0
C768 C 0.42024 0.04741 0.45573 0.0
C769 C 0.42219 0.02783 0.41835 0.0
C770 C 0.4069 0.06635 0.4364 0.0
C771 C 0.39495 0.0654 0.37887 0.0
C772 C 0.39857 0.04657 0.33895 0.0
C773 C 0.41228 0.02799 0.35917 0.0
C774 C 0.40428 0.08646 0.47946 0.0
C775 C 0.38646 0.04517 0.27668 0.0
H776 H 0.31602 0.078 0.36708 0.0
H777 H 0.36059 0.12544 0.2674 0.0
H778 H 0.35347 0.0375 0.402 0.0
H779 H 0.36007 0.05546 0.46722 0.0
H780 H 0.33021 0.05188 0.43894 0.0
H781 H 0.40326 0.12868 0.3073 0.0
H782 H 0.41665 0.10234 0.33496 0.0
H783 H 0.4045 0.104 0.25823 0.0
H784 H 0.42863 0.0476 0.5009 0.0
H785 H 0.41413 0.01299 0.33004 0.0
H786 H 0.38891 0.08293 0.50807 0.0
H787 H 0.40144 0.10305 0.45431 0.0
H788 H 0.42 0.08865 0.5105 0.0
H789 H 0.36721 0.04321 0.28175 0.0
H790 H 0.39238 0.03024 0.2497 0.0
H791 H 0.38985 0.06151 0.25074 0.0
C792 C 0.59034 0.32184 0.37535 0.0
C793 C 0.60568 0.31096 0.33669 0.0
C794 C 0.59736 0.34179 0.4081 0.0
C795 C 0.62044 0.3511 0.40251 0.0
C796 C 0.63656 0.3394 0.36668 0.0
C797 C 0.62888 0.31954 0.33345 0.0
C798 C 0.57949 0.35379 0.44539 0.0
C799 C 0.66147 0.34846 0.36095 0.0
C800 C 0.61884 0.41592 0.42362 0.0
C801 C 0.62266 0.41765 0.4869 0.0
C802 C 0.62046 0.3945 0.39405 0.0
C803 C 0.62624 0.37443 0.42868 0.0
C804 C 0.63264 0.37663 0.49136 0.0
C805 C 0.63051 0.39824 0.52002 0.0
C806 C 0.61341 0.39294 0.32713 0.0
C807 C 0.63967 0.35578 0.52928 0.0
H808 H 0.57226 0.31558 0.37724 0.0
H809 H 0.64083 0.31108 0.30386 0.0
H810 H 0.58641 0.35658 0.49273 0.0
H811 H 0.57585 0.37117 0.42533 0.0
H812 H 0.56265 0.34362 0.44725 0.0
H813 H 0.67299 0.33481 0.34396 0.0
H814 H 0.66179 0.36327 0.32823 0.0
H815 H 0.6688 0.35496 0.40543 0.0
H816 H 0.6127 0.43089 0.3979 0.0
H817 H 0.63387 0.39967 0.56885 0.0
H818 H 0.59587 0.38412 0.32202 0.0
H819 H 0.62596 0.3824 0.30237 0.0
H820 H 0.61249 0.41041 0.30521 0.0
H821 H 0.62373 0.34543 0.54114 0.0
H822 H 0.6491 0.36111 0.57238 0.0
H823 H 0.65101 0.34427 0.50338 0.0
C824 C 0.19164 0.44114 0.32601 0.0
C825 C 0.19734 0.44304 0.26464 0.0
C826 C 0.17344 0.45413 0.34887 0.0
C827 C 0.16146 0.46992 0.30975 0.0
C828 C 0.16646 0.471 0.2471 0.0
C829 C 0.18418 0.4573 0.22516 0.0
C830 C 0.16787 0.45192 0.41545 0.0
C831 C 0.15429 0.48782 0.20416 0.0
C832 C 0.10622 0.49751 0.36301 0.0
C833 C 0.11534 0.51829 0.38906 0.0
C834 C 0.12095 0.4817 0.33597 0.0
C835 C 0.14533 0.48682 0.33535 0.0
C836 C 0.15451 0.50815 0.35967 0.0
C837 C 0.13939 0.52359 0.38661 0.0
C838 C 0.11049 0.45919 0.31032 0.0
C839 C 0.18035 0.51456 0.35789 0.0
H840 H 0.20197 0.43019 0.35642 0.0
H841 H 0.18894 0.45908 0.17786 0.0
H842 H 0.1735 0.46816 0.43971 0.0
H843 H 0.14865 0.44955 0.42049 0.0
H844 H 0.17681 0.43703 0.43788 0.0
H845 H 0.15893 0.48522 0.15594 0.0
H846 H 0.13498 0.4859 0.20734 0.0
H847 H 0.15933 0.50598 0.21739 0.0
H848 H 0.08765 0.49319 0.36572 0.0
H849 H 0.1464 0.53974 0.40631 0.0
H850 H 0.11379 0.44489 0.34353 0.0
H851 H 0.11867 0.45444 0.26716 0.0
H852 H 0.09127 0.46028 0.30147 0.0
H853 H 0.1906 0.50193 0.38559 0.0
H854 H 0.18442 0.53238 0.37567 0.0
H855 H 0.18633 0.51362 0.31039 0.0
C856 C 0.93876 0.8534 0.07322 0.0
C857 C 0.93503 0.83484 0.03208 0.0
C858 C 0.94929 0.87448 0.0546 0.0
C859 C 0.95645 0.87686 0.99384 0.0
C860 C 0.94966 0.85961 0.95033 0.0
C861 C 0.93875 0.83881 0.96993 0.0
C862 C 0.9552 0.89308 0.10155 0.0
C863 C 0.95621 0.862 0.88446 0.0
C864 C 0.98547 0.93313 0.93902 0.0
C865 C 0.00932 0.92808 0.94672 0.0
C866 C 0.96794 0.91677 0.95452 0.0
C867 C 0.97445 0.89492 0.97869 0.0
C868 C 0.99853 0.8899 0.98772 0.0
C869 C 0.01568 0.90656 0.97152 0.0
C870 C 0.94259 0.92298 0.94456 0.0
C871 C 1.0062 0.86672 0.01331 0.0
H872 H 0.93582 0.85075 0.12134 0.0
H873 H 0.93518 0.82484 0.93754 0.0
H874 H 0.97417 0.89264 0.11448 0.0
H875 H 0.95167 0.91064 0.08254 0.0
H876 H 0.94503 0.89045 0.14345 0.0
H877 H 0.94672 0.84889 0.85494 0.0
H878 H 0.95237 0.87971 0.86687 0.0
H879 H 0.97534 0.85954 0.881 0.0
H880 H 0.98048 0.94958 0.91857 0.0
H881 H 0.0341 0.90267 0.97755 0.0
H882 H 0.93583 0.92939 0.98803 0.0
H883 H 0.93146 0.90773 0.92976 0.0
H884 H 0.94075 0.937 0.90982 0.0
H885 H 0.99888 0.86381 0.05904 0.0
H886 H 0.02559 0.86562 0.01756 0.0
H887 H 0.9993 0.85237 0.98336 0.0
C888 C 0.67683 0.9244 0.91438 0.0
C889 C 0.70134 0.92667 0.92021 0.0
C890 C 0.66437 0.93826 0.87241 0.0
C891 C 0.677 0.95379 0.83429 0.0
C892 C 0.7015 0.95164 0.83007 0.0
C893 C 0.71356 0.93817 0.87381 0.0
C894 C 0.63811 0.93938 0.87741 0.0
C895 C 0.71538 0.96661 0.7867 0.0
C896 C 0.63911 0.99821 0.75234 0.0
C897 C 0.63932 0.01602 0.79619 0.0
C898 C 0.65243 0.97822 0.7619 0.0
C899 C 0.66618 0.97614 0.81643 0.0
C900 C 0.66779 0.99491 0.85847 0.0
C901 C 0.65445 0.01466 0.84751 0.0
C902 C 0.65104 0.95901 0.71503 0.0
C903 C 0.68237 0.99359 0.91729 0.0
H904 H 0.66734 0.91467 0.94867 0.0
H905 H 0.73256 0.93948 0.87653 0.0
H906 H 0.63407 0.95416 0.9074 0.0
H907 H 0.6293 0.94237 0.83232 0.0
H908 H 0.6306 0.92312 0.89764 0.0
H909 H 0.73222 0.95847 0.77633 0.0
H910 H 0.70524 0.96961 0.74344 0.0
H911 H 0.71951 0.98382 0.80798 0.0
H912 H 0.62743 0.99917 0.71239 0.0
H913 H 0.65494 0.0286 0.88076 0.0
H914 H 0.64676 0.94196 0.73659 0.0
H915 H 0.66839 0.95747 0.69441 0.0
H916 H 0.63771 0.96235 0.6781 0.0
H917 H 0.67587 0.97886 0.94571 0.0
H918 H 0.68185 0.00984 0.94448 0.0
H919 H 0.70093 0.99037 0.90741 0.0
C920 C 0.4184 0.6865 1.00877 0.0
C921 C 0.42371 0.71009 0.99723 0.0
C922 C 0.41213 0.67123 0.96108 0.0
C923 C 0.41021 0.68001 0.90068 0.0
C924 C 0.41175 0.70437 0.8903 0.0
C925 C 0.41895 0.71919 0.93868 0.0
C926 C 0.41027 0.64539 0.9747 0.0
C927 C 0.40792 0.71457 0.82735 0.0
C928 C 0.43801 0.63785 0.79707 0.0
C929 C 0.41899 0.62268 0.78248 0.0
C930 C 0.43499 0.658 0.83108 0.0
C931 C 0.41222 0.66345 0.84944 0.0
C932 C 0.39258 0.64981 0.82799 0.0
C933 C 0.39624 0.62919 0.79578 0.0
C934 C 0.45657 0.67185 0.85318 0.0
C935 C 0.36787 0.65582 0.84284 0.0
H936 H 0.42103 0.67959 0.05455 0.0
H937 H 0.42251 0.73751 0.92944 0.0
H938 H 0.39353 0.63789 0.95537 0.0
H939 H 0.42478 0.63637 0.9531 0.0
H940 H 0.41119 0.6416 0.02445 0.0
H941 H 0.40219 0.73288 0.82976 0.0
H942 H 0.4246 0.71462 0.80286 0.0
H943 H 0.3946 0.70414 0.80031 0.0
H944 H 0.45564 0.6328 0.7871 0.0
H945 H 0.38145 0.61762 0.78373 0.0
H946 H 0.45873 0.67015 0.90351 0.0
H947 H 0.4547 0.6906 0.84236 0.0
H948 H 0.47281 0.66587 0.83237 0.0
H949 H 0.36255 0.64597 0.88401 0.0
H950 H 0.35542 0.65067 0.80485 0.0
H951 H 0.36628 0.67473 0.85173 0.0
C952 C 0.85639 0.55668 0.98957 0.0
C953 C 0.83189 0.55446 0.98588 0.0
C954 C 0.87011 0.54379 0.95116 0.0
C955 C 0.85893 0.52848 0.90806 0.0
C956 C 0.83426 0.52848 0.89902 0.0
C957 C 0.82093 0.5415 0.9384 0.0
C958 C 0.89646 0.54474 0.96122 0.0
C959 C 0.82183 0.51297 0.8521 0.0
C960 C 0.90177 0.4985 0.80941 0.0
C961 C 0.90624 0.47837 0.84409 0.0
C962 C 0.88514 0.51439 0.82713 0.0
C963 C 0.8728 0.50998 0.8809 0.0
C964 C 0.87614 0.48892 0.91386 0.0
C965 C 0.89289 0.47335 0.89502 0.0
C966 C 0.88179 0.53644 0.79027 0.0
C967 C 0.86332 0.48363 0.97167 0.0
H968 H 0.8648 0.567 0.02589 0.0
H969 H 0.80194 0.53981 0.93551 0.0
H970 H 0.90217 0.52826 0.98312 0.0
H971 H 0.90529 0.54644 0.9171 0.0
H972 H 0.90246 0.55952 0.99097 0.0
H973 H 0.80354 0.51842 0.84229 0.0
H974 H 0.83139 0.5131 0.80892 0.0
H975 H 0.82121 0.49476 0.86941 0.0
H976 H 0.91245 0.5027 0.77078 0.0
H977 H 0.89637 0.45779 0.92177 0.0
H978 H 0.88354 0.55203 0.81998 0.0
H979 H 0.86383 0.53622 0.76914 0.0
H980 H 0.89463 0.53835 0.75353 0.0
H981 H 0.86921 0.49627 1.00758 0.0
H982 H 0.8665 0.46572 0.98903 0.0
H983 H 0.84417 0.48555 0.96373 0.0
C984 C 0.03267 0.19141 0.83195 0.0
C985 C 0.02715 0.19234 0.89388 0.0
C986 C 0.03154 0.1702 0.79947 0.0
C987 C 0.02478 0.14919 0.82934 0.0
C988 C 0.0189 0.15003 0.89158 0.0
C989 C 0.02014 0.17147 0.9229 0.0
C990 C 0.0378 0.17025 0.73317 0.0
C991 C 0.01165 0.12816 0.92551 0.0
C992 C 1.00223 0.09658 0.73518 0.0
C993 C 0.02191 0.08238 0.73512 0.0
C994 C 1.00299 0.11834 0.76496 0.0
C995 C 0.02395 0.12632 0.79575 0.0
C996 C 0.04397 0.11221 0.79528 0.0
C997 C 0.04272 0.0905 0.76509 0.0
C998 C 0.98121 0.13268 0.76407 0.0
C999 C 0.06668 0.11993 0.8274 0.0
H1000 H 0.03789 0.20734 0.80867 0.0
H1001 H 0.01624 0.17174 0.97089 0.0
H1002 H 0.05293 0.15889 0.72678 0.0
H1003 H 0.02288 0.16299 0.70478 0.0
H1004 H 0.04238 0.18803 0.71618 0.0
H1005 H 1.00718 0.13174 0.97339 0.0
H1006 H 0.99621 0.1196 0.90189 0.0
H1007 H 0.02608 0.1156 0.92593 0.0
H1008 H 0.98602 0.09062 0.71232 0.0
H1009 H 0.05804 0.07976 0.76559 0.0
H1010 H 0.98507 0.15024 0.74477 0.0
H1011 H 0.97548 0.13519 0.81136 0.0
H1012 H 0.96648 0.12438 0.73685 0.0
H1013 H 0.07268 0.13713 0.8094 0.0
H1014 H 0.08082 0.10727 0.82185 0.0
H1015 H 0.06389 0.12211 0.87683 0.0
C1016 C 0.34861 0.03574 0.87754 0.0
C1017 C 0.34234 0.0171 0.91631 0.0
C1018 C 0.36919 0.03554 0.8436 0.0
C1019 C 0.38415 0.01624 0.84803 0.0
C1020 C 0.37778 0.99721 0.88625 0.0
C1021 C 0.3571 0.99787 0.9198 0.0
C1022 C 0.37519 0.0563 0.8039 0.0
C1023 C 0.393 0.97618 0.89233 0.0
C1024 C 0.42869 0.00729 0.72332 0.0
C1025 C 0.44974 0.01612 0.75084 0.0
C1026 C 0.40733 0.00725 0.75413 0.0
C1027 C 0.40676 0.01629 0.81416 0.0
C1028 C 0.42789 0.02544 0.84191 0.0
C1029 C 0.44899 0.02521 0.81016 0.0
C1030 C 0.38538 0.9973 0.72252 0.0
C1031 C 0.42826 0.03536 0.90555 0.0
H1032 H 0.33775 0.05092 0.87497 0.0
H1033 H 0.35248 0.98323 0.94886 0.0
H1034 H 0.39199 0.06463 0.82058 0.0
H1035 H 0.37766 0.05059 0.75637 0.0
H1036 H 0.36138 0.06957 0.80347 0.0
H1037 H 0.38535 0.96249 0.9223 0.0
H1038 H 0.39556 0.96856 0.84673 0.0
H1039 H 0.4106 0.9815 0.91146 0.0
H1040 H 0.42889 1.00016 0.6777 0.0
H1041 H 0.46501 0.03207 0.83224 0.0
H1042 H 0.37172 0.01068 0.7197 0.0
H1043 H 0.37823 0.98244 0.74942 0.0
H1044 H 0.3886 0.99115 0.67568 0.0
H1045 H 0.41575 0.04977 0.90762 0.0
H1046 H 0.44597 0.04211 0.92056 0.0
H1047 H 0.42249 0.02174 0.93833 0.0
C1048 C 0.5042 0.33765 0.85518 0.0
C1049 C 0.50623 0.33873 0.91914 0.0
C1050 C 0.50515 0.35804 0.819 0.0
C1051 C 0.50849 0.38014 0.84722 0.0
C1052 C 0.5105 0.38132 0.91175 0.0
C1053 C 0.50926 0.36071 0.94676 0.0
C1054 C 0.50266 0.35595 0.75049 0.0
C1055 C 0.51431 0.40441 0.94391 0.0
C1056 C 0.5335 0.43221 0.75847 0.0
C1057 C 0.5135 0.44543 0.74645 0.0
C1058 C 0.53206 0.41074 0.78994 0.0
C1059 C 0.51005 0.40205 0.80964 0.0
C1060 C 0.4897 0.41494 0.79591 0.0
C1061 C 0.49167 0.43643 0.76483 0.0
C1062 C 0.55425 0.39771 0.80376 0.0
C1063 C 0.46585 0.40629 0.81541 0.0
H1064 H 0.50172 0.3208 0.83336 0.0
H1065 H 0.51128 0.36177 0.996 0.0
H1066 H 0.48777 0.3664 0.73307 0.0
H1067 H 0.51871 0.3631 0.72921 0.0
H1068 H 0.49969 0.3376 0.73555 0.0
H1069 H 0.51544 0.40241 0.99434 0.0
H1070 H 0.53075 0.41309 0.92878 0.0
H1071 H 0.49974 0.41614 0.93173 0.0
H1072 H 0.55049 0.4389 0.74472 0.0
H1073 H 0.47604 0.44635 0.75571 0.0
H1074 H 0.55228 0.37954 0.78688 0.0
H1075 H 0.55755 0.39676 0.85387 0.0
H1076 H 0.5698 0.40616 0.78283 0.0
H1077 H 0.46228 0.38822 0.79902 0.0
H1078 H 0.45155 0.41751 0.79785 0.0
H1079 H 0.46548 0.40581 0.86595 0.0
C1080 C 0.20547 0.48432 0.81029 0.0
C1081 C 0.20996 0.49191 0.87055 0.0
C1082 C 0.18315 0.48642 0.78137 0.0
C1083 C 0.16472 0.49634 0.81326 0.0
C1084 C 0.16924 0.50444 0.87358 0.0
C1085 C 0.19168 0.50212 0.90138 0.0
C1086 C 0.1792 0.47766 0.71695 0.0
C1087 C 0.15018 0.51514 0.9094 0.0
C1088 C 0.11117 0.51996 0.72623 0.0
C1089 C 0.09418 0.50202 0.73395 0.0
C1090 C 0.1342 0.51818 0.75078 0.0
C1091 C 0.1406 0.49797 0.78411 0.0
C1092 C 0.12369 0.47962 0.79119 0.0
C1093 C 0.10076 0.48185 0.76607 0.0
C1094 C 0.15159 0.53815 0.74191 0.0
C1095 C 0.1297 0.45775 0.82624 0.0
H1096 H 0.21943 0.47661 0.7857 0.0
H1097 H 0.19466 0.50763 0.94825 0.0
H1098 H 0.16557 0.46346 0.71595 0.0
H1099 H 0.17263 0.49188 0.687 0.0
H1100 H 0.19544 0.47096 0.69775 0.0
H1101 H 0.15666 0.52126 0.95509 0.0
H1102 H 0.14277 0.53014 0.8839 0.0
H1103 H 0.13565 0.50215 0.91555 0.0
H1104 H 0.10644 0.53561 0.70136 0.0
H1105 H 0.08789 0.46786 0.77242 0.0
H1106 H 0.16755 0.53179 0.72068 0.0
H1107 H 0.15714 0.54564 0.78685 0.0
H1108 H 0.14421 0.55224 0.71278 0.0
H1109 H 0.14509 0.44959 0.80645 0.0
H1110 H 0.11488 0.44475 0.82601 0.0
H1111 H 0.13461 0.4622 0.87427 0.0
C1112 C 0.99344 0.83575 0.49729 0.0
C1113 C 1.00567 0.83248 0.44344 0.0
C1114 C 0.99451 0.85723 0.52846 0.0
C1115 C 1.0086 0.876 0.50651 0.0
C1116 C 0.02186 0.87255 0.45398 0.0
C1117 C 0.02008 0.85105 0.42292 0.0
C1118 C 0.97989 0.86005 0.58385 0.0
C1119 C 0.03746 0.89186 0.42939 0.0
C1120 C 0.99308 0.93884 0.54237 0.0
C1121 C 1.00872 0.94454 0.59129 0.0
C1122 C 0.9926 0.91658 0.51536 0.0
C1123 C 1.00852 0.89955 0.53656 0.0
C1124 C 0.02436 0.90518 0.58599 0.0
C1125 C 0.02409 0.92745 0.61314 0.0
C1126 C 0.97503 0.91131 0.46381 0.0
C1127 C 0.042 0.88786 0.60931 0.0
H1128 H 0.98266 0.82158 0.5149 0.0
H1129 H 0.02943 0.84915 0.38118 0.0
H1130 H 0.99115 0.86585 0.62347 0.0
H1131 H 0.96685 0.87375 0.57487 0.0
H1132 H 0.97038 0.84363 0.59636 0.0
H1133 H 0.04829 0.88584 0.39176 0.0
H1134 H 0.02655 0.90632 0.41199 0.0
H1135 H 0.04929 0.89906 0.46633 0.0
H1136 H 0.98107 0.95183 0.52519 0.0
H1137 H 0.03643 0.93169 0.65043 0.0
H1138 H 0.9642 0.89558 0.47499 0.0
H1139 H 0.98435 0.90746 0.42164 0.0
H1140 H 0.96319 0.92603 0.45429 0.0
H1141 H 0.03288 0.87154 0.62395 0.0
H1142 H 0.05299 0.89477 0.64833 0.0
H1143 H 0.05366 0.88322 0.57207 0.0
C1144 C 0.66539 1.00169 0.3791 0.0
C1145 C 0.68604 0.99215 0.40423 0.0
C1146 C 0.64493 1.00314 0.41315 0.0
C1147 C 0.64487 0.99495 0.47434 0.0
C1148 C 0.66575 0.98568 0.50035 0.0
C1149 C 0.68593 0.9843 0.46511 0.0
C1150 C 0.6232 0.01317 0.38324 0.0
C1151 C 0.66672 0.97691 0.56532 0.0
C1152 C 0.59753 0.01776 0.57672 0.0
C1153 C 0.58058 0.99943 0.57565 0.0
C1154 C 0.61857 0.01635 0.54518 0.0
C1155 C 0.62299 0.99616 0.51087 0.0
C1156 C 0.60615 0.97743 0.5103 0.0
C1157 C 0.58527 0.97925 0.54267 0.0
C1158 C 0.636 0.03666 0.54808 0.0
C1159 C 0.61 0.95555 0.47458 0.0
H1160 H 0.66498 0.0075 0.33198 0.0
H1161 H 0.70173 0.97709 0.48548 0.0
H1162 H 0.60865 0.99991 0.38278 0.0
H1163 H 0.6175 0.02825 0.40986 0.0
H1164 H 0.62607 0.019 0.33561 0.0
H1165 H 0.68464 0.97177 0.58043 0.0
H1166 H 0.66079 0.9905 0.59663 0.0
H1167 H 0.65462 0.96154 0.5696 0.0
H1168 H 0.59429 0.03346 0.60185 0.0
H1169 H 0.57243 0.96494 0.54128 0.0
H1170 H 0.63884 0.04358 0.50149 0.0
H1171 H 0.65318 0.03077 0.56669 0.0
H1172 H 0.6301 0.05106 0.57699 0.0
H1173 H 0.61141 0.95991 0.42545 0.0
H1174 H 0.59557 0.94234 0.47965 0.0
H1175 H 0.62677 0.94772 0.4899 0.0
C1176 C 0.5409 0.69006 0.48399 0.0
C1177 C 0.52084 0.69518 0.44803 0.0
C1178 C 0.54204 0.66925 0.51851 0.0
C1179 C 0.52288 0.65289 0.51611 0.0
C1180 C 0.50257 0.65808 0.48012 0.0
C1181 C 0.50176 0.67912 0.44699 0.0
C1182 C 0.56388 0.66461 0.55695 0.0
C1183 C 0.48191 0.64104 0.47501 0.0
C1184 C 0.53406 0.58852 0.5462 0.0
C1185 C 0.52498 0.58494 0.60438 0.0
C1186 C 0.53378 0.61053 0.51762 0.0
C1187 C 0.52448 0.62974 0.54801 0.0
C1188 C 0.51573 0.62642 0.60731 0.0
C1189 C 0.51593 0.60407 0.63457 0.0
C1190 C 0.54289 0.61305 0.45399 0.0
C1191 C 0.50587 0.64642 0.64167 0.0
H1192 H 0.55567 0.70239 0.4853 0.0
H1193 H 0.48634 0.6827 0.41856 0.0
H1194 H 0.55917 0.66053 0.60459 0.0
H1195 H 0.57267 0.64918 0.53917 0.0
H1196 H 0.57655 0.67969 0.55734 0.0
H1197 H 0.46713 0.64798 0.44674 0.0
H1198 H 0.48744 0.62456 0.45431 0.0
H1199 H 0.4755 0.63667 0.52097 0.0
H1200 H 0.54099 0.57394 0.52209 0.0
H1201 H 0.50887 0.60159 0.67947 0.0
H1202 H 0.55694 0.62681 0.45308 0.0
H1203 H 0.52855 0.61855 0.42204 0.0
H1204 H 0.54998 0.59656 0.43701 0.0
H1205 H 0.51896 0.6611 0.64482 0.0
H1206 H 0.50086 0.64131 0.68849 0.0
H1207 H 0.49014 0.65295 0.61662 0.0
C1208 C 0.8508 0.51955 0.46076 0.0
C1209 C 0.83572 0.53673 0.48035 0.0
C1210 C 0.87294 0.51639 0.48953 0.0
C1211 C 0.88038 0.53072 0.5394 0.0
C1212 C 0.86498 0.54759 0.56071 0.0
C1213 C 0.84292 0.55042 0.53096 0.0
C1214 C 0.88869 0.49816 0.46523 0.0
C1215 C 0.87204 0.56307 0.61404 0.0
C1216 C 0.93246 0.51069 0.63944 0.0
C1217 C 0.9513 0.5235 0.61482 0.0
C1218 C 0.90928 0.51301 0.61585 0.0
C1219 C 0.90469 0.52875 0.56709 0.0
C1220 C 0.92354 0.54206 0.54303 0.0
C1221 C 0.94651 0.53923 0.56692 0.0
C1222 C 0.88966 0.49841 0.64242 0.0
C1223 C 0.91954 0.55902 0.49104 0.0
H1224 H 0.8457 0.50911 0.42118 0.0
H1225 H 0.83139 0.56358 0.54695 0.0
H1226 H 0.90467 0.50674 0.44697 0.0
H1227 H 0.89448 0.48629 0.50257 0.0
H1228 H 0.87988 0.48757 0.42837 0.0
H1229 H 0.8577 0.57454 0.62705 0.0
H1230 H 0.87723 0.55227 0.65406 0.0
H1231 H 0.88753 0.57417 0.60251 0.0
H1232 H 0.93589 0.49841 0.67613 0.0
H1233 H 0.9608 0.54932 0.54754 0.0
H1234 H 0.87908 0.48943 0.6057 0.0
H1235 H 0.87774 0.50985 0.66661 0.0
H1236 H 0.89624 0.48505 0.67486 0.0
H1237 H 0.91243 0.54952 0.45019 0.0
H1238 H 0.9359 0.56864 0.47872 0.0
H1239 H 0.90634 0.57186 0.50338 0.0
loop_
_geom_bond_atom_site_label_1
_geom_bond_atom_site_label_2
_geom_bond_distance
_geom_bond_site_symmetry_2
_ccdc_geom_bond_type
C0 C1 1.386 . S
C0 C2 1.397 . S
C0 H24 0.931 1_554 S
C1 C0 1.386 . S
C1 C5 1.397 . S
C2 C0 1.397 . S
C2 C3 1.384 . S
C2 H25 0.930 . S
C3 C2 1.384 . S
C3 C4 1.377 . S
C3 C6 1.481 . S
C4 C3 1.377 . S
C4 C5 1.389 . S
C4 H26 0.929 . S
C5 C1 1.397 . S
C5 C4 1.389 . S
C5 H27 0.931 . S
C6 C3 1.481 . S
C6 C7 1.387 . S
C6 C11 1.390 . S
C7 C6 1.387 . S
C7 C8 1.401 . S
C7 H28 0.930 . S
C8 C7 1.401 . S
C8 C9 1.376 . S
C8 C17 1.511 . S
C9 C8 1.376 . S
C9 C10 1.392 . S
C9 H30 0.931 . S
C10 C9 1.392 . S
C10 C11 1.361 . S
C10 C12 1.500 . S
C11 C6 1.390 . S
C11 C10 1.361 . S
C11 H29 0.931 . S
C12 C10 1.500 . S
C12 C13 1.371 . S
C12 C14 1.365 . S
C13 C12 1.371 . S
C13 C23 1.386 . S
C13 H31 0.931 . S
C14 C12 1.365 . S
C14 C15 1.409 . S
C14 H32 0.929 . S
C15 C14 1.409 . S
C15 C16 1.380 . S
C15 H33 0.930 . S
C16 C15 1.380 . S
C16 C23 1.357 . S
C17 C8 1.511 . S
C17 C18 1.341 . S
C17 C19 1.371 . S
C18 C17 1.341 . S
C18 C22 1.394 . S
C18 H34 0.930 . S
C19 C17 1.371 . S
C19 C20 1.392 . S
C19 H35 0.931 . S
C20 C19 1.392 . S
C20 C21 1.331 . S
C20 H38 0.932 . S
C21 C20 1.331 . S
C21 C22 1.336 . S
C22 C18 1.394 . S
C22 C21 1.336 . S
C22 H37 0.929 . S
C23 C13 1.386 . S
C23 C16 1.357 . S
C23 H36 0.928 . S
H24 C0 0.931 1_556 S
H25 C2 0.930 . S
H26 C4 0.929 . S
H27 C5 0.931 . S
H28 C7 0.930 . S
H29 C11 0.931 . S
H30 C9 0.931 . S
H31 C13 0.931 . S
H32 C14 0.929 . S
H33 C15 0.930 . S
H34 C18 0.930 . S
H35 C19 0.931 . S
H36 C23 0.928 . S
H37 C22 0.929 . S
H38 C20 0.932 . S
C39 C40 1.386 . S
C39 C41 1.397 . S
C39 H63 0.931 . S
C40 C39 1.386 . S
C40 C44 1.397 . S
C41 C39 1.397 . S
C41 C42 1.384 . S
C41 H64 0.930 . S
C42 C41 1.384 . S
C42 C43 1.377 . S
C42 C45 1.481 . S
C43 C42 1.377 . S
C43 C44 1.389 . S
C43 H65 0.929 . S
C44 C40 1.397 . S
C44 C43 1.389 . S
C44 H66 0.931 . S
C45 C42 1.481 . S
C45 C46 1.387 . S
C45 C50 1.390 . S
C46 C45 1.387 . S
C46 C47 1.401 . S
C46 H67 0.930 . S
C47 C46 1.401 . S
C47 C48 1.376 . S
C47 C56 1.511 . S
C48 C47 1.376 . S
C48 C49 1.392 . S
C48 H69 0.931 . S
C49 C48 1.392 . S
C49 C50 1.361 . S
C49 C51 1.500 . S
C50 C45 1.390 . S
C50 C49 1.361 . S
C50 H68 0.931 . S
C51 C49 1.500 . S
C51 C52 1.371 . S
C51 C53 1.365 . S
C52 C51 1.371 . S
C52 C62 1.386 . S
C52 H70 0.931 . S
C53 C51 1.365 . S
C53 C54 1.409 . S
C53 H71 0.929 . S
C54 C53 1.409 . S
C54 C55 1.380 . S
C54 H72 0.930 . S
C55 C54 1.380 . S
C55 C62 1.357 . S
C56 C47 1.511 . S
C56 C57 1.341 . S
C56 C58 1.371 . S
C57 C56 1.341 . S
C57 C61 1.394 . S
C57 H73 0.930 . S
C58 C56 1.371 . S
C58 C59 1.392 . S
C58 H74 0.931 . S
C59 C58 1.392 . S
C59 C60 1.331 . S
C59 H77 0.932 . S
C60 C59 1.331 . S
C60 C61 1.336 . S
C61 C57 1.394 . S
C61 C60 1.336 . S
C61 H76 0.929 . S
C62 C52 1.386 . S
C62 C55 1.357 . S
C62 H75 0.928 . S
H63 C39 0.931 . S
H64 C41 0.930 . S
H65 C43 0.929 . S
H66 C44 0.931 . S
H67 C46 0.930 . S
H68 C50 0.931 . S
H69 C48 0.931 . S
H70 C52 0.931 . S
H71 C53 0.929 . S
H72 C54 0.930 . S
H73 C57 0.930 . S
H74 C58 0.931 . S
H75 C62 0.928 . S
H76 C61 0.929 . S
H77 C59 0.932 . S
C78 C79 1.386 . S
C78 C80 1.397 . S
C78 H102 0.931 . S
C79 C78 1.386 . S
C79 C83 1.397 . S
C80 C78 1.397 . S
C80 C81 1.384 . S
C80 H103 0.930 . S
C81 C80 1.384 . S
C81 C82 1.377 . S
C81 C84 1.481 . S
C82 C81 1.377 . S
C82 C83 1.389 . S
C82 H104 0.929 . S
C83 C79 1.397 . S
C83 C82 1.389 . S
C83 H105 0.931 . S
C84 C81 1.481 . S
C84 C85 1.387 . S
C84 C89 1.390 . S
C85 C84 1.387 . S
C85 C86 1.401 . S
C85 H106 0.930 . S
C86 C85 1.401 . S
C86 C87 1.376 . S
C86 C95 1.511 . S
C87 C86 1.376 . S
C87 C88 1.392 . S
C87 H108 0.931 . S
C88 C87 1.392 . S
C88 C89 1.361 . S
C88 C90 1.500 . S
C89 C84 1.390 . S
C89 C88 1.361 . S
C89 H107 0.931 . S
C90 C88 1.500 . S
C90 C91 1.371 . S
C90 C92 1.365 . S
C91 C90 1.371 . S
C91 C101 1.386 . S
C91 H109 0.931 . S
C92 C90 1.365 . S
C92 C93 1.409 . S
C92 H110 0.929 . S
C93 C92 1.409 . S
C93 C94 1.380 . S
C93 H111 0.930 . S
C94 C93 1.380 . S
C94 C101 1.357 . S
C95 C86 1.511 . S
C95 C96 1.341 . S
C95 C97 1.371 . S
C96 C95 1.341 . S
C96 C100 1.394 . S
C96 H112 0.930 . S
C97 C95 1.371 . S
C97 C98 1.392 . S
C97 H113 0.931 . S
C98 C97 1.392 . S
C98 C99 1.331 . S
C98 H116 0.932 . S
C99 C98 1.331 . S
C99 C100 1.336 . S
C100 C96 1.394 . S
C100 C99 1.336 . S
C100 H115 0.929 . S
C101 C91 1.386 . S
C101 C94 1.357 . S
C101 H114 0.928 . S
H102 C78 0.931 . S
H103 C80 0.930 . S
H104 C82 0.929 . S
H105 C83 0.931 . S
H106 C85 0.930 . S
H107 C89 0.931 . S
H108 C87 0.931 . S
H109 C91 0.931 . S
H110 C92 0.929 . S
H111 C93 0.930 . S
H112 C96 0.930 . S
H113 C97 0.931 . S
H114 C101 0.928 . S
H115 C100 0.929 . S
H116 C98 0.932 . S
C117 C118 1.386 . S
C117 C119 1.397 . S
C117 H141 0.931 . S
C118 C117 1.386 . S
C118 C122 1.397 . S
C119 C117 1.397 . S
C119 C120 1.384 . S
C119 H142 0.930 . S
C120 C119 1.384 . S
C120 C121 1.377 . S
C120 C123 1.481 . S
C121 C120 1.377 . S
C121 C122 1.389 . S
C121 H143 0.929 . S
C122 C118 1.397 . S
C122 C121 1.389 . S
C122 H144 0.931 . S
C123 C120 1.481 . S
C123 C124 1.387 . S
C123 C128 1.390 . S
C124 C123 1.387 . S
C124 C125 1.401 . S
C124 H145 0.930 . S
C125 C124 1.401 . S
C125 C126 1.376 . S
C125 C134 1.511 . S
C126 C125 1.376 . S
C126 C127 1.392 . S
C126 H147 0.931 . S
C127 C126 1.392 . S
C127 C128 1.361 . S
C127 C129 1.500 . S
C128 C123 1.390 . S
C128 C127 1.361 . S
C128 H146 0.931 . S
C129 C127 1.500 . S
C129 C130 1.371 . S
C129 C131 1.365 . S
C130 C129 1.371 . S
C130 C140 1.386 . S
C130 H148 0.931 . S
C131 C129 1.365 . S
C131 C132 1.409 . S
C131 H149 0.929 . S
C132 C131 1.409 . S
C132 C133 1.380 . S
C132 H150 0.930 . S
C133 C132 1.380 . S
C133 C140 1.357 . S
C134 C125 1.511 . S
C134 C135 1.341 . S
C134 C136 1.371 . S
C135 C134 1.341 . S
C135 C139 1.394 . S
C135 H151 0.930 . S
C136 C134 1.371 . S
C136 C137 1.392 . S
C136 H152 0.931 . S
C137 C136 1.392 . S
C137 C138 1.331 . S
C137 H155 0.932 . S
C138 C137 1.331 . S
C138 C139 1.336 . S
C139 C135 1.394 . S
C139 C138 1.336 . S
C139 H154 0.929 . S
C140 C130 1.386 . S
C140 C133 1.357 . S
C140 H153 0.928 1_554 S
H141 C117 0.931 . S
H142 C119 0.930 . S
H143 C121 0.929 . S
H144 C122 0.931 . S
H145 C124 0.930 . S
H146 C128 0.931 . S
H147 C126 0.931 . S
H148 C130 0.931 . S
H149 C131 0.929 . S
H150 C132 0.930 . S
H151 C135 0.930 . S
H152 C136 0.931 . S
H153 C140 0.928 1_556 S
H154 C139 0.929 . S
H155 C137 0.932 . S
C156 C157 1.386 . S
C156 C158 1.397 . S
C156 H180 0.931 . S
C157 C156 1.386 . S
C157 C161 1.397 . S
C158 C156 1.397 . S
C158 C159 1.384 . S
C158 H181 0.930 . S
C159 C158 1.384 . S
C159 C160 1.377 . S
C159 C162 1.481 . S
C160 C159 1.377 . S
C160 C161 1.389 . S
C160 H182 0.929 . S
C161 C157 1.397 . S
C161 C160 1.389 . S
C161 H183 0.931 . S
C162 C159 1.481 . S
C162 C163 1.387 . S
C162 C167 1.390 . S
C163 C162 1.387 . S
C163 C164 1.401 . S
C163 H184 0.930 . S
C164 C163 1.401 . S
C164 C165 1.376 . S
C164 C173 1.511 . S
C165 C164 1.376 . S
C165 C166 1.392 . S
C165 H186 0.931 . S
C166 C165 1.392 . S
C166 C167 1.361 . S
C166 C168 1.500 1_554 S
C167 C162 1.390 . S
C167 C166 1.361 . S
C167 H185 0.931 . S
C168 C166 1.500 1_556 S
C168 C169 1.371 . S
C168 C170 1.365 . S
C169 C168 1.371 . S
C169 C179 1.386 . S
C169 H187 0.931 . S
C170 C168 1.365 . S
C170 C171 1.409 . S
C170 H188 0.929 . S
C171 C170 1.409 . S
C171 C172 1.380 . S
C171 H189 0.930 . S
C172 C171 1.380 . S
C172 C179 1.357 . S
C173 C164 1.511 . S
C173 C174 1.341 . S
C173 C175 1.371 . S
C174 C173 1.341 . S
C174 C178 1.394 . S
C174 H190 0.930 . S
C175 C173 1.371 . S
C175 C176 1.392 . S
C175 H191 0.931 . S
C176 C175 1.392 . S
C176 C177 1.331 . S
C176 H194 0.932 . S
C177 C176 1.331 . S
C177 C178 1.336 . S
C178 C174 1.394 . S
C178 C177 1.336 . S
C178 H193 0.929 . S
C179 C169 1.386 . S
C179 C172 1.357 . S
C179 H192 0.928 . S
H180 C156 0.931 . S
H181 C158 0.930 . S
H182 C160 0.929 . S
H183 C161 0.931 . S
H184 C163 0.930 . S
H185 C167 0.931 . S
H186 C165 0.931 . S
H187 C169 0.931 . S
H188 C170 0.929 . S
H189 C171 0.930 . S
H190 C174 0.930 . S
H191 C175 0.931 . S
H192 C179 0.928 . S
H193 C178 0.929 . S
H194 C176 0.932 . S
C195 C196 1.386 . S
C195 C197 1.397 . S
C195 H219 0.931 . S
C196 C195 1.386 . S
C196 C200 1.397 . S
C197 C195 1.397 . S
C197 C198 1.384 . S
C197 H220 0.930 . S
C198 C197 1.384 . S
C198 C199 1.377 . S
C198 C201 1.481 . S
C199 C198 1.377 . S
C199 C200 1.389 . S
C199 H221 0.929 . S
C200 C196 1.397 . S
C200 C199 1.389 . S
C200 H222 0.931 . S
C201 C198 1.481 . S
C201 C202 1.387 . S
C201 C206 1.390 . S
C202 C201 1.387 . S
C202 C203 1.401 . S
C202 H223 0.930 . S
C203 C202 1.401 . S
C203 C204 1.376 1_554 S
C203 C212 1.511 . S
C204 C203 1.376 1_556 S
C204 C205 1.392 . S
C204 H225 0.931 . S
C205 C204 1.392 . S
C205 C206 1.361 1_556 S
C205 C207 1.500 . S
C206 C201 1.390 . S
C206 C205 1.361 1_554 S
C206 H224 0.931 . S
C207 C205 1.500 . S
C207 C208 1.371 . S
C207 C209 1.365 . S
C208 C207 1.371 . S
C208 C218 1.386 . S
C208 H226 0.931 . S
C209 C207 1.365 . S
C209 C210 1.409 . S
C209 H227 0.929 . S
C210 C209 1.409 . S
C210 C211 1.380 . S
C210 H228 0.930 . S
C211 C210 1.380 . S
C211 C218 1.357 . S
C212 C203 1.511 . S
C212 C213 1.341 . S
C212 C214 1.371 . S
C213 C212 1.341 . S
C213 C217 1.394 . S
C213 H229 0.930 . S
C214 C212 1.371 . S
C214 C215 1.392 . S
C214 H230 0.931 1_554 S
C215 C214 1.392 . S
C215 C216 1.331 . S
C215 H233 0.932 . S
C216 C215 1.331 . S
C216 C217 1.336 . S
C217 C213 1.394 . S
C217 C216 1.336 . S
C217 H232 0.929 . S
C218 C208 1.386 . S
C218 C211 1.357 . S
C218 H231 0.928 . S
H219 C195 0.931 . S
H220 C197 0.930 . S
H221 C199 0.929 . S
H222 C200 0.931 . S
H223 C202 0.930 . S
H224 C206 0.931 . S
H225 C204 0.931 . S
H226 C208 0.931 . S
H227 C209 0.929 . S
H228 C210 0.930 . S
H229 C213 0.930 . S
H230 C214 0.931 1_556 S
H231 C218 0.928 . S
H232 C217 0.929 . S
H233 C215 0.932 . S
C234 C235 1.386 . S
C234 C236 1.397 . S
C234 H258 0.931 . S
C235 C234 1.386 . S
C235 C239 1.397 . S
C236 C234 1.397 . S
C236 C237 1.384 . S
C236 H259 0.930 . S
C237 C236 1.384 . S
C237 C238 1.377 . S
C237 C240 1.481 . S
C238 C237 1.377 . S
C238 C239 1.389 . S
C238 H260 0.929 . S
C239 C235 1.397 . S
C239 C238 1.389 . S
C239 H261 0.931 . S
C240 C237 1.481 . S
C240 C241 1.387 . S
C240 C245 1.401 . S
C241 C240 1.387 . S
C241 C242 1.401 . S
C241 H262 0.930 . S
C242 C241 1.401 . S
C242 C243 1.376 1_554 S
C242 C251 1.511 . S
C243 C242 1.376 1_556 S
C243 C244 1.392 . S
C243 H264 0.931 . S
C244 C243 1.392 . S
C244 C245 1.354 1_556 S
C244 C246 1.500 . S
C245 C240 1.401 . S
C245 C244 1.354 1_554 S
C245 H263 0.928 1_554 S
C246 C244 1.500 . S
C246 C247 1.371 . S
C246 C248 1.365 . S
C247 C246 1.371 . S
C247 C257 1.386 . S
C247 H265 0.931 . S
C248 C246 1.365 . S
C248 C249 1.409 . S
C248 H266 0.929 . S
C249 C248 1.409 . S
C249 C250 1.380 . S
C249 H267 0.930 . S
C250 C249 1.380 . S
C250 C257 1.357 . S
C251 C242 1.511 . S
C251 C252 1.341 . S
C251 C253 1.360 1_554 S
C252 C251 1.341 . S
C252 C256 1.394 . S
C252 H268 0.930 . S
C253 C251 1.360 1_556 S
C253 C254 1.387 1_556 S
C253 H269 0.948 . S
C254 C253 1.387 1_554 S
C254 C255 1.331 . S
C254 H272 0.932 1_554 S
C255 C254 1.331 . S
C255 C256 1.336 . S
C256 C252 1.394 . S
C256 C255 1.336 . S
C256 H271 0.929 . S
C257 C247 1.386 . S
C257 C250 1.357 . S
C257 H270 0.928 . S
H258 C234 0.931 . S
H259 C236 0.930 . S
H260 C238 0.929 . S
H261 C239 0.931 . S
H262 C241 0.930 . S
H263 C245 0.928 1_556 S
H264 C243 0.931 . S
H265 C247 0.931 . S
H266 C248 0.929 . S
H267 C249 0.930 . S
H268 C252 0.930 . S
H269 C253 0.948 . S
H270 C257 0.928 . S
H271 C256 0.929 . S
H272 C254 0.932 1_556 S
C273 C274 1.386 . S
C273 C275 1.397 . S
C273 H297 0.931 . S
C274 C273 1.386 . S
C274 C278 1.397 . S
C275 C273 1.397 . S
C275 C276 1.384 . S
C275 H298 0.930 . S
C276 C275 1.384 . S
C276 C277 1.377 . S
C276 C279 1.481 1_556 S
C277 C276 1.377 . S
C277 C278 1.389 . S
C277 H299 0.929 . S
C278 C274 1.397 . S
C278 C277 1.389 . S
C278 H300 0.931 . S
C279 C276 1.481 1_554 S
C279 C280 1.387 . S
C279 C284 1.390 . S
C280 C279 1.387 . S
C280 C281 1.401 . S
C280 H301 0.930 1_554 S
C281 C280 1.401 . S
C281 C282 1.376 . S
C281 C290 1.511 . S
C282 C281 1.376 . S
C282 C283 1.392 . S
C282 H303 0.931 . S
C283 C282 1.392 . S
C283 C284 1.361 . S
C283 C285 1.500 . S
C284 C279 1.390 . S
C284 C283 1.361 . S
C284 H302 0.931 . S
C285 C283 1.500 . S
C285 C286 1.371 . S
C285 C287 1.365 . S
C286 C285 1.371 . S
C286 C296 1.386 . S
C286 H304 0.931 . S
C287 C285 1.365 . S
C287 C288 1.409 . S
C287 H305 0.929 . S
C288 C287 1.409 . S
C288 C289 1.380 . S
C288 H306 0.930 . S
C289 C288 1.380 . S
C289 C296 1.357 . S
C290 C281 1.511 . S
C290 C291 1.341 . S
C290 C292 1.371 . S
C291 C290 1.341 . S
C291 C295 1.394 . S
C291 H307 0.930 . S
C292 C290 1.371 . S
C292 C293 1.392 . S
C292 H308 0.931 . S
C293 C292 1.392 . S
C293 C294 1.331 . S
C293 H311 0.932 . S
C294 C293 1.331 . S
C294 C295 1.336 . S
C295 C291 1.394 . S
C295 C294 1.336 . S
C295 H310 0.929 . S
C296 C286 1.386 . S
C296 C289 1.357 . S
C296 H309 0.928 . S
H297 C273 0.931 . S
H298 C275 0.930 . S
H299 C277 0.929 . S
H300 C278 0.931 . S
H301 C280 0.930 1_556 S
H302 C284 0.931 . S
H303 C282 0.931 . S
H304 C286 0.931 . S
H305 C287 0.929 . S
H306 C288 0.930 . S
H307 C291 0.930 . S
H308 C292 0.931 . S
H309 C296 0.928 . S
H310 C295 0.929 . S
H311 C293 0.932 . S
Eu312 C321 2.828 . S
Eu312 O323 2.392 . S
Eu312 O325 2.418 1_545 S
Eu312 O330 2.373 1_655 S
Eu312 O333 2.488 . S
Eu312 O334 2.471 . S
Eu312 O335 2.349 1_655 S
Eu313 O322 2.373 1_455 S
Eu313 O326 2.488 . S
Eu313 O327 2.471 . S
Eu313 O328 2.349 . S
Eu313 O331 2.392 1_565 S
Eu313 O332 2.418 1_565 S
Eu313 C342 2.828 . S
C314 O332 1.244 . S
C314 O335 1.265 . S
C315 C316 1.379 1_655 S
C315 C319 1.373 . S
C315 C321 1.505 . S
C316 C315 1.379 1_455 S
C316 C318 1.369 . S
C316 H344 0.930 . S
C317 C319 1.383 . S
C317 C320 1.382 1_655 S
C317 H345 0.930 . S
C318 C316 1.369 . S
C318 C320 1.392 . S
C318 H346 0.930 . S
C319 C315 1.373 . S
C319 C317 1.383 . S
C319 H347 0.931 . S
C320 C317 1.382 1_455 S
C320 C318 1.392 . S
C321 Eu312 2.828 . S
C321 C315 1.505 . S
C321 O333 1.249 . S
C321 O334 1.244 . S
O322 Eu313 2.373 1_655 S
O322 C324 1.258 . S
O323 Eu312 2.392 . S
O323 C324 1.242 1_545 S
C324 O322 1.258 . S
C324 O323 1.242 1_565 S
O325 Eu312 2.418 1_565 S
O325 C329 1.244 . S
O326 Eu313 2.488 . S
O326 C342 1.249 . S
O327 Eu313 2.471 . S
O327 C342 1.244 . S
O328 Eu313 2.349 . S
O328 C329 1.265 1_455 S
C329 O325 1.244 . S
C329 O328 1.265 1_655 S
O330 Eu312 2.373 1_455 S
O330 C343 1.258 . S
O331 Eu313 2.392 1_545 S
O331 C343 1.242 . S
O332 Eu313 2.418 1_545 S
O332 C314 1.244 . S
O333 Eu312 2.488 . S
O333 C321 1.249 . S
O334 Eu312 2.471 . S
O334 C321 1.244 . S
O335 Eu312 2.349 1_455 S
O335 C314 1.265 . S
C336 C337 1.379 . S
C336 C340 1.373 . S
C336 C342 1.505 . S
C337 C336 1.379 . S
C337 C339 1.369 . S
C337 H348 0.930 1_455 S
C338 C340 1.383 . S
C338 C341 1.382 . S
C338 H349 0.930 . S
C339 C337 1.369 . S
C339 C341 1.392 . S
C339 H350 0.930 1_455 S
C340 C336 1.373 . S
C340 C338 1.383 . S
C340 H351 0.931 . S
C341 C338 1.382 . S
C341 C339 1.392 . S
C342 Eu313 2.828 . S
C342 O326 1.249 . S
C342 O327 1.244 . S
C342 C336 1.505 . S
C343 O330 1.258 . S
C343 O331 1.242 . S
H344 C316 0.930 . S
H345 C317 0.930 . S
H346 C318 0.930 . S
H347 C319 0.931 . S
H348 C337 0.930 1_655 S
H349 C338 0.930 . S
H350 C339 0.930 1_655 S
H351 C340 0.931 . S
Eu352 C361 2.828 . S
Eu352 O363 2.392 . S
Eu352 O365 2.418 . S
Eu352 O370 2.373 . S
Eu352 O373 2.488 . S
Eu352 O374 2.471 . S
Eu352 O375 2.349 1_545 S
Eu353 O362 2.373 1_565 S
Eu353 O366 2.488 . S
Eu353 O367 2.471 1_565 S
Eu353 O368 2.349 1_565 S
Eu353 O371 2.392 . S
Eu353 O372 2.418 . S
Eu353 C382 2.828 . S
C354 O372 1.244 . S
C354 O375 1.265 . S
C355 C356 1.379 1_545 S
C355 C359 1.373 . S
C355 C361 1.505 . S
C356 C355 1.379 1_565 S
C356 C358 1.369 . S
C356 H384 0.930 . S
C357 C359 1.383 . S
C357 C360 1.382 . S
C357 H385 0.930 . S
C358 C356 1.369 . S
C358 C360 1.392 1_565 S
C358 H386 0.930 . S
C359 C355 1.373 . S
C359 C357 1.383 . S
C359 H387 0.931 . S
C360 C357 1.382 . S
C360 C358 1.392 1_545 S
C361 Eu352 2.828 . S
C361 C355 1.505 . S
C361 O373 1.249 . S
C361 O374 1.244 . S
O362 Eu353 2.373 1_545 S
O362 C364 1.258 . S
O363 Eu352 2.392 . S
O363 C364 1.242 . S
C364 O362 1.258 . S
C364 O363 1.242 . S
O365 Eu352 2.418 . S
O365 C369 1.244 . S
O366 Eu353 2.488 . S
O366 C382 1.249 . S
O367 Eu353 2.471 1_545 S
O367 C382 1.244 1_545 S
O368 Eu353 2.349 1_545 S
O368 C369 1.265 . S
C369 O365 1.244 . S
C369 O368 1.265 . S
O370 Eu352 2.373 . S
O370 C383 1.258 1_545 S
O371 Eu353 2.392 . S
O371 C383 1.242 . S
O372 Eu353 2.418 . S
O372 C354 1.244 . S
O373 Eu352 2.488 . S
O373 C361 1.249 . S
O374 Eu352 2.471 . S
O374 C361 1.244 . S
O375 Eu352 2.349 1_565 S
O375 C354 1.265 . S
C376 C377 1.379 1_565 S
C376 C380 1.373 . S
C376 C382 1.505 . S
C377 C376 1.379 1_545 S
C377 C379 1.369 . S
C377 H388 0.930 . S
C378 C380 1.383 . S
C378 C381 1.382 . S
C378 H389 0.930 . S
C379 C377 1.369 . S
C379 C381 1.392 1_545 S
C379 H390 0.930 . S
C380 C376 1.373 . S
C380 C378 1.383 . S
C380 H391 0.931 . S
C381 C378 1.382 . S
C381 C379 1.392 1_565 S
C382 Eu353 2.828 . S
C382 O366 1.249 . S
C382 O367 1.244 1_565 S
C382 C376 1.505 . S
C383 O370 1.258 1_565 S
C383 O371 1.242 . S
H384 C356 0.930 . S
H385 C357 0.930 . S
H386 C358 0.930 . S
H387 C359 0.931 . S
H388 C377 0.930 . S
H389 C378 0.930 . S
H390 C379 0.930 . S
H391 C380 0.931 . S
Eu392 C401 2.828 . S
Eu392 O403 2.392 . S
Eu392 O405 2.418 . S
Eu392 O410 2.373 . S
Eu392 O413 2.488 . S
Eu392 O414 2.471 . S
Eu392 O415 2.349 . S
Eu393 O402 2.373 . S
Eu393 O406 2.488 . S
Eu393 O407 2.471 . S
Eu393 O408 2.349 . S
Eu393 O411 2.392 . S
Eu393 O412 2.418 . S
Eu393 C422 2.828 . S
C394 O412 1.244 . S
C394 O415 1.265 . S
C395 C396 1.379 . S
C395 C399 1.373 . S
C395 C401 1.505 . S
C396 C395 1.379 . S
C396 C398 1.369 . S
C396 H424 0.930 . S
C397 C399 1.383 . S
C397 C400 1.382 . S
C397 H425 0.930 . S
C398 C396 1.369 . S
C398 C400 1.392 . S
C398 H426 0.930 . S
C399 C395 1.373 . S
C399 C397 1.383 . S
C399 H427 0.931 . S
C400 C397 1.382 . S
C400 C398 1.392 . S
C401 Eu392 2.828 . S
C401 C395 1.505 . S
C401 O413 1.249 . S
C401 O414 1.244 . S
O402 Eu393 2.373 . S
O402 C404 1.258 . S
O403 Eu392 2.392 . S
O403 C404 1.242 . S
C404 O402 1.258 . S
C404 O403 1.242 . S
O405 Eu392 2.418 . S
O405 C409 1.244 . S
O406 Eu393 2.488 . S
O406 C422 1.249 . S
O407 Eu393 2.471 . S
O407 C422 1.244 . S
O408 Eu393 2.349 . S
O408 C409 1.265 . S
C409 O405 1.244 . S
C409 O408 1.265 . S
O410 Eu392 2.373 . S
O410 C423 1.258 . S
O411 Eu393 2.392 . S
O411 C423 1.242 . S
O412 Eu393 2.418 . S
O412 C394 1.244 . S
O413 Eu392 2.488 . S
O413 C401 1.249 . S
O414 Eu392 2.471 . S
O414 C401 1.244 . S
O415 Eu392 2.349 . S
O415 C394 1.265 . S
C416 C417 1.379 . S
C416 C420 1.373 . S
C416 C422 1.505 . S
C417 C416 1.379 . S
C417 C419 1.369 . S
C417 H428 0.930 . S
C418 C420 1.383 . S
C418 C421 1.382 . S
C418 H429 0.930 . S
C419 C417 1.369 . S
C419 C421 1.392 . S
C419 H430 0.930 . S
C420 C416 1.373 . S
C420 C418 1.383 . S
C420 H431 0.931 . S
C421 C418 1.382 . S
C421 C419 1.392 . S
C422 Eu393 2.828 . S
C422 O406 1.249 . S
C422 O407 1.244 . S
C422 C416 1.505 . S
C423 O410 1.258 . S
C423 O411 1.242 . S
H424 C396 0.930 . S
H425 C397 0.930 . S
H426 C398 0.930 . S
H427 C399 0.931 . S
H428 C417 0.930 . S
H429 C418 0.930 . S
H430 C419 0.930 . S
H431 C420 0.931 . S
Eu432 C441 2.828 . S
Eu432 O443 2.392 . S
Eu432 O445 2.418 1_455 S
Eu432 O450 2.373 . S
Eu432 O453 2.488 . S
Eu432 O454 2.471 . S
Eu432 O455 2.349 . S
Eu433 O442 2.373 . S
Eu433 O446 2.488 . S
Eu433 O447 2.471 . S
Eu433 O448 2.349 . S
Eu433 O451 2.392 1_655 S
Eu433 O452 2.418 1_655 S
Eu433 C462 2.828 . S
C434 O452 1.244 . S
C434 O455 1.265 . S
C435 C436 1.379 . S
C435 C439 1.373 . S
C435 C441 1.505 . S
C436 C435 1.379 . S
C436 C438 1.369 . S
C436 H464 0.930 . S
C437 C439 1.383 . S
C437 C440 1.382 . S
C437 H465 0.930 . S
C438 C436 1.369 . S
C438 C440 1.392 . S
C438 H466 0.930 . S
C439 C435 1.373 . S
C439 C437 1.383 . S
C439 H467 0.931 . S
C440 C437 1.382 . S
C440 C438 1.392 . S
C441 Eu432 2.828 . S
C441 C435 1.505 . S
C441 O453 1.249 . S
C441 O454 1.244 . S
O442 Eu433 2.373 . S
O442 C444 1.258 1_655 S
O443 Eu432 2.392 . S
O443 C444 1.242 . S
C444 O442 1.258 1_455 S
C444 O443 1.242 . S
O445 Eu432 2.418 1_655 S
O445 C449 1.244 . S
O446 Eu433 2.488 . S
O446 C462 1.249 . S
O447 Eu433 2.471 . S
O447 C462 1.244 . S
O448 Eu433 2.349 . S
O448 C449 1.265 . S
C449 O445 1.244 . S
C449 O448 1.265 . S
O450 Eu432 2.373 . S
O450 C463 1.258 . S
O451 Eu433 2.392 1_455 S
O451 C463 1.242 . S
O452 Eu433 2.418 1_455 S
O452 C434 1.244 . S
O453 Eu432 2.488 . S
O453 C441 1.249 . S
O454 Eu432 2.471 . S
O454 C441 1.244 . S
O455 Eu432 2.349 . S
O455 C434 1.265 . S
C456 C457 1.379 . S
C456 C460 1.373 . S
C456 C462 1.505 . S
C457 C456 1.379 . S
C457 C459 1.369 . S
C457 H468 0.930 . S
C458 C460 1.383 . S
C458 C461 1.382 . S
C458 H469 0.930 . S
C459 C457 1.369 . S
C459 C461 1.392 . S
C459 H470 0.930 . S
C460 C456 1.373 . S
C460 C458 1.383 . S
C460 H471 0.931 . S
C461 C458 1.382 . S
C461 C459 1.392 . S
C462 Eu433 2.828 . S
C462 O446 1.249 . S
C462 O447 1.244 . S
C462 C456 1.505 . S
C463 O450 1.258 . S
C463 O451 1.242 . S
H464 C436 0.930 . S
H465 C437 0.930 . S
H466 C438 0.930 . S
H467 C439 0.931 . S
H468 C457 0.930 . S
H469 C458 0.930 . S
H470 C459 0.930 . S
H471 C460 0.931 . S
C472 C473 1.391 . S
C472 C474 1.394 . S
C472 H488 0.931 . S
C473 C472 1.391 . S
C473 C477 1.376 . S
C474 C472 1.394 . S
C474 C475 1.369 . S
C474 C478 1.531 . S
C475 C474 1.369 . S
C475 C476 1.410 . S
C475 C483 1.503 . S
C476 C475 1.410 . S
C476 C477 1.392 . S
C476 C479 1.511 . S
C477 C473 1.376 . S
C477 C476 1.392 . S
C477 H489 0.929 . S
C478 C474 1.531 . S
C478 H490 0.960 . S
C478 H491 0.962 . S
C478 H492 0.960 . S
C479 C476 1.511 . S
C479 H493 0.961 1_545 S
C479 H494 0.961 . S
C479 H495 0.961 . S
C480 C481 1.370 . S
C480 C482 1.363 . S
C480 H496 0.931 . S
C481 C480 1.370 . S
C481 C485 1.408 . S
C482 C480 1.363 . S
C482 C483 1.370 . S
C482 C486 1.524 . S
C483 C475 1.503 . S
C483 C482 1.370 . S
C483 C484 1.403 . S
C484 C483 1.403 . S
C484 C485 1.404 . S
C484 C487 1.539 . S
C485 C481 1.408 . S
C485 C484 1.404 . S
C485 H497 0.930 . S
C486 C482 1.524 . S
C486 H498 0.956 . S
C486 H499 0.961 . S
C486 H500 0.961 . S
C487 C484 1.539 . S
C487 H501 0.958 . S
C487 H502 0.961 . S
C487 H503 0.960 . S
H488 C472 0.931 . S
H489 C477 0.929 . S
H490 C478 0.960 . S
H491 C478 0.962 . S
H492 C478 0.960 . S
H493 C479 0.961 1_565 S
H494 C479 0.961 . S
H495 C479 0.961 . S
H496 C480 0.931 . S
H497 C485 0.930 . S
H498 C486 0.956 . S
H499 C486 0.961 . S
H500 C486 0.961 . S
H501 C487 0.958 . S
H502 C487 0.961 . S
H503 C487 0.960 . S
C504 C505 1.391 . S
C504 C506 1.394 . S
C504 H520 0.931 . S
C505 C504 1.391 . S
C505 C509 1.376 . S
C506 C504 1.394 . S
C506 C507 1.369 . S
C506 C510 1.531 . S
C507 C506 1.369 . S
C507 C508 1.410 . S
C507 C515 1.503 . S
C508 C507 1.410 . S
C508 C509 1.392 . S
C508 C511 1.511 . S
C509 C505 1.376 . S
C509 C508 1.392 . S
C509 H521 0.929 . S
C510 C506 1.531 . S
C510 H522 0.960 . S
C510 H523 0.962 . S
C510 H524 0.960 . S
C511 C508 1.511 . S
C511 H525 0.961 . S
C511 H526 0.961 . S
C511 H527 0.961 . S
C512 C513 1.370 . S
C512 C514 1.363 . S
C512 H528 0.931 . S
C513 C512 1.370 . S
C513 C517 1.408 . S
C514 C512 1.363 . S
C514 C515 1.370 . S
C514 C518 1.524 . S
C515 C507 1.503 . S
C515 C514 1.370 . S
C515 C516 1.403 . S
C516 C515 1.403 . S
C516 C517 1.404 . S
C516 C519 1.539 . S
C517 C513 1.408 . S
C517 C516 1.404 . S
C517 H529 0.930 . S
C518 C514 1.524 . S
C518 H530 0.956 . S
C518 H531 0.961 . S
C518 H532 0.961 . S
C519 C516 1.539 . S
C519 H533 0.958 . S
C519 H534 0.961 . S
C519 H535 0.960 . S
H520 C504 0.931 . S
H521 C509 0.929 . S
H522 C510 0.960 . S
H523 C510 0.962 . S
H524 C510 0.960 . S
H525 C511 0.961 . S
H526 C511 0.961 . S
H527 C511 0.961 . S
H528 C512 0.931 . S
H529 C517 0.930 . S
H530 C518 0.956 . S
H531 C518 0.961 . S
H532 C518 0.961 . S
H533 C519 0.958 . S
H534 C519 0.961 . S
H535 C519 0.960 . S
C536 C537 1.391 . S
C536 C538 1.394 . S
C536 H552 0.931 . S
C537 C536 1.391 . S
C537 C541 1.376 . S
C538 C536 1.394 . S
C538 C539 1.369 . S
C538 C542 1.531 . S
C539 C538 1.369 . S
C539 C540 1.410 . S
C539 C547 1.503 . S
C540 C539 1.410 . S
C540 C541 1.392 . S
C540 C543 1.511 . S
C541 C537 1.376 . S
C541 C540 1.392 . S
C541 H553 0.929 . S
C542 C538 1.531 . S
C542 H554 0.960 . S
C542 H555 0.962 . S
C542 H556 0.960 . S
C543 C540 1.511 . S
C543 H557 0.961 . S
C543 H558 0.961 . S
C543 H559 0.961 . S
C544 C545 1.370 . S
C544 C546 1.363 . S
C544 H560 0.931 . S
C545 C544 1.370 . S
C545 C549 1.408 . S
C546 C544 1.363 . S
C546 C547 1.370 . S
C546 C550 1.524 . S
C547 C539 1.503 . S
C547 C546 1.370 . S
C547 C548 1.403 . S
C548 C547 1.403 . S
C548 C549 1.404 . S
C548 C551 1.539 . S
C549 C545 1.408 . S
C549 C548 1.404 . S
C549 H561 0.930 . S
C550 C546 1.524 . S
C550 H562 0.956 . S
C550 H563 0.961 . S
C550 H564 0.961 . S
C551 C548 1.539 . S
C551 H565 0.958 . S
C551 H566 0.961 . S
C551 H567 0.960 . S
H552 C536 0.931 . S
H553 C541 0.929 . S
H554 C542 0.960 . S
H555 C542 0.962 . S
H556 C542 0.960 . S
H557 C543 0.961 . S
H558 C543 0.961 . S
H559 C543 0.961 . S
H560 C544 0.931 . S
H561 C549 0.930 . S
H562 C550 0.956 . S
H563 C550 0.961 . S
H564 C550 0.961 . S
H565 C551 0.958 . S
H566 C551 0.961 . S
H567 C551 0.960 . S
C568 C569 1.391 . S
C568 C570 1.394 . S
C568 H584 0.931 . S
C569 C568 1.391 . S
C569 C573 1.376 . S
C570 C568 1.394 . S
C570 C571 1.369 . S
C570 C574 1.531 . S
C571 C570 1.369 . S
C571 C572 1.410 . S
C571 C579 1.503 . S
C572 C571 1.410 . S
C572 C573 1.392 . S
C572 C575 1.511 . S
C573 C569 1.376 . S
C573 C572 1.392 . S
C573 H585 0.929 . S
C574 C570 1.531 . S
C574 H586 0.960 . S
C574 H587 0.962 . S
C574 H588 0.960 . S
C575 C572 1.511 . S
C575 H589 0.961 . S
C575 H590 0.961 . S
C575 H591 0.961 . S
C576 C577 1.370 . S
C576 C578 1.363 . S
C576 H592 0.931 . S
C577 C576 1.370 . S
C577 C581 1.408 . S
C578 C576 1.363 . S
C578 C579 1.370 . S
C578 C582 1.524 . S
C579 C571 1.503 . S
C579 C578 1.370 . S
C579 C580 1.403 . S
C580 C579 1.403 . S
C580 C581 1.404 . S
C580 C583 1.539 1_455 S
C581 C577 1.408 . S
C581 C580 1.404 . S
C581 H593 0.930 1_455 S
C582 C578 1.524 . S
C582 H594 0.956 . S
C582 H595 0.961 . S
C582 H596 0.961 . S
C583 C580 1.539 1_655 S
C583 H597 0.958 . S
C583 H598 0.961 . S
C583 H599 0.960 . S
H584 C568 0.931 . S
H585 C573 0.929 . S
H586 C574 0.960 . S
H587 C574 0.962 . S
H588 C574 0.960 . S
H589 C575 0.961 . S
H590 C575 0.961 . S
H591 C575 0.961 . S
H592 C576 0.931 . S
H593 C581 0.930 1_655 S
H594 C582 0.956 . S
H595 C582 0.961 . S
H596 C582 0.961 . S
H597 C583 0.958 . S
H598 C583 0.961 . S
H599 C583 0.960 . S
C600 C601 1.391 . S
C600 C602 1.394 . S
C600 H616 0.931 . S
C601 C600 1.391 . S
C601 C605 1.376 . S
C602 C600 1.394 . S
C602 C603 1.369 . S
C602 C606 1.531 1_565 S
C603 C602 1.369 . S
C603 C604 1.410 . S
C603 C611 1.503 1_554 S
C604 C603 1.410 . S
C604 C605 1.392 . S
C604 C607 1.511 . S
C605 C601 1.376 . S
C605 C604 1.392 . S
C605 H617 0.929 . S
C606 C602 1.531 1_545 S
C606 H618 0.960 . S
C606 H619 0.962 . S
C606 H620 0.960 . S
C607 C604 1.511 . S
C607 H621 0.961 . S
C607 H622 0.961 1_554 S
C607 H623 0.960 . S
C608 C609 1.370 . S
C608 C610 1.363 . S
C608 H624 0.931 . S
C609 C608 1.370 . S
C609 C613 1.408 . S
C610 C608 1.363 . S
C610 C611 1.370 . S
C610 C614 1.524 . S
C611 C603 1.503 1_556 S
C611 C610 1.370 . S
C611 C612 1.403 . S
C612 C611 1.403 . S
C612 C613 1.404 . S
C612 C615 1.539 . S
C613 C609 1.408 . S
C613 C612 1.404 . S
C613 H625 0.930 . S
C614 C610 1.524 . S
C614 H626 0.956 . S
C614 H627 0.961 . S
C614 H628 0.961 . S
C615 C612 1.539 . S
C615 H629 0.958 1_556 S
C615 H630 0.996 . S
C615 H631 0.960 1_556 S
H616 C600 0.931 . S
H617 C605 0.929 . S
H618 C606 0.960 . S
H619 C606 0.962 . S
H620 C606 0.960 . S
H621 C607 0.961 . S
H622 C607 0.961 1_556 S
H623 C607 0.960 . S
H624 C608 0.931 . S
H625 C613 0.930 . S
H626 C614 0.956 . S
H627 C614 0.961 . S
H628 C614 0.961 . S
H629 C615 0.958 1_554 S
H630 C615 0.996 . S
H631 C615 0.960 1_554 S
C632 C633 1.391 . S
C632 C634 1.394 1_554 S
C632 H648 0.931 . S
C633 C632 1.391 . S
C633 C637 1.376 . S
C634 C632 1.394 1_556 S
C634 C635 1.369 . S
C634 C638 1.531 . S
C635 C634 1.369 . S
C635 C636 1.410 . S
C635 C643 1.503 . S
C636 C635 1.410 . S
C636 C637 1.392 1_556 S
C636 C639 1.511 . S
C637 C633 1.376 . S
C637 C636 1.392 1_554 S
C637 H649 0.929 . S
C638 C634 1.531 . S
C638 H650 0.960 . S
C638 H651 0.962 . S
C638 H652 0.960 . S
C639 C636 1.511 . S
C639 H653 0.961 . S
C639 H654 0.961 . S
C639 H655 0.961 . S
C640 C641 1.370 . S
C640 C642 1.363 . S
C640 H656 0.931 . S
C641 C640 1.370 . S
C641 C645 1.408 . S
C642 C640 1.363 . S
C642 C643 1.370 . S
C642 C646 1.524 . S
C643 C635 1.503 . S
C643 C642 1.370 . S
C643 C644 1.403 . S
C644 C643 1.403 . S
C644 C645 1.404 . S
C644 C647 1.539 . S
C645 C641 1.408 . S
C645 C644 1.404 . S
C645 H657 0.930 . S
C646 C642 1.524 . S
C646 H658 0.956 . S
C646 H659 0.961 . S
C646 H660 0.961 . S
C647 C644 1.539 . S
C647 H661 0.958 . S
C647 H662 0.961 . S
C647 H663 0.960 . S
H648 C632 0.931 . S
H649 C637 0.929 . S
H650 C638 0.960 . S
H651 C638 0.962 . S
H652 C638 0.960 . S
H653 C639 0.961 . S
H654 C639 0.961 . S
H655 C639 0.961 . S
H656 C640 0.931 . S
H657 C645 0.930 . S
H658 C646 0.956 . S
H659 C646 0.961 . S
H660 C646 0.961 . S
H661 C647 0.958 . S
H662 C647 0.961 . S
H663 C647 0.960 . S
C664 C665 1.391 . S
C664 C666 1.394 1_554 S
C664 H680 0.931 . S
C665 C664 1.391 . S
C665 C669 1.376 . S
C666 C664 1.394 1_556 S
C666 C667 1.369 . S
C666 C670 1.531 . S
C667 C666 1.369 . S
C667 C668 1.410 . S
C667 C675 1.503 . S
C668 C667 1.410 . S
C668 C669 1.392 1_556 S
C668 C671 1.511 . S
C669 C665 1.376 . S
C669 C668 1.392 1_554 S
C669 H681 0.929 . S
C670 C666 1.531 . S
C670 H682 0.960 . S
C670 H683 0.962 . S
C670 H684 0.960 1_556 S
C671 C668 1.511 . S
C671 H685 0.961 . S
C671 H686 0.961 . S
C671 H687 0.961 . S
C672 C673 1.370 . S
C672 C674 1.363 . S
C672 H688 0.931 . S
C673 C672 1.370 . S
C673 C677 1.408 . S
C674 C672 1.363 . S
C674 C675 1.370 . S
C674 C678 1.524 . S
C675 C667 1.503 . S
C675 C674 1.370 . S
C675 C676 1.403 . S
C676 C675 1.403 . S
C676 C677 1.404 . S
C676 C679 1.539 . S
C677 C673 1.408 . S
C677 C676 1.404 . S
C677 H689 0.930 . S
C678 C674 1.524 . S
C678 H690 0.956 . S
C678 H691 0.961 . S
C678 H692 0.961 . S
C679 C676 1.539 . S
C679 H693 0.958 . S
C679 H694 0.961 . S
C679 H695 0.960 . S
H680 C664 0.931 . S
H681 C669 0.929 . S
H682 C670 0.960 . S
H683 C670 0.962 . S
H684 C670 0.960 1_554 S
H685 C671 0.961 . S
H686 C671 0.961 . S
H687 C671 0.961 . S
H688 C672 0.931 . S
H689 C677 0.930 . S
H690 C678 0.956 . S
H691 C678 0.961 . S
H692 C678 0.961 . S
H693 C679 0.958 . S
H694 C679 0.961 . S
H695 C679 0.960 . S
C696 C697 1.391 . S
C696 C698 1.394 . S
C696 H712 0.931 . S
C697 C696 1.391 . S
C697 C701 1.376 . S
C698 C696 1.394 . S
C698 C699 1.369 1_554 S
C698 C702 1.531 1_655 S
C699 C698 1.369 1_556 S
C699 C700 1.410 . S
C699 C707 1.503 . S
C700 C699 1.410 . S
C700 C701 1.392 1_556 S
C700 C703 1.511 . S
C701 C697 1.376 . S
C701 C700 1.392 1_554 S
C701 H713 0.929 . S
C702 C698 1.531 1_455 S
C702 H714 0.960 1_455 S
C702 H715 0.962 . S
C702 H716 0.960 . S
C703 C700 1.511 . S
C703 H717 0.961 . S
C703 H718 0.961 . S
C703 H719 0.961 . S
C704 C705 1.370 1_455 S
C704 C706 1.363 1_455 S
C704 H720 0.931 . S
C705 C704 1.370 1_655 S
C705 C709 1.408 . S
C706 C704 1.363 1_655 S
C706 C707 1.370 . S
C706 C710 1.524 1_655 S
C707 C699 1.503 . S
C707 C706 1.370 . S
C707 C708 1.403 . S
C708 C707 1.403 . S
C708 C709 1.404 . S
C708 C711 1.539 . S
C709 C705 1.408 . S
C709 C708 1.404 . S
C709 H721 0.930 . S
C710 C706 1.524 1_455 S
C710 H722 0.956 . S
C710 H723 0.960 1_455 S
C710 H724 0.961 . S
C711 C708 1.539 . S
C711 H725 0.958 . S
C711 H726 0.961 . S
C711 H727 0.960 . S
H712 C696 0.931 . S
H713 C701 0.929 . S
H714 C702 0.960 1_655 S
H715 C702 0.962 . S
H716 C702 0.960 . S
H717 C703 0.961 . S
H718 C703 0.961 . S
H719 C703 0.961 . S
H720 C704 0.931 . S
H721 C709 0.930 . S
H722 C710 0.956 . S
H723 C710 0.960 1_655 S
H724 C710 0.961 . S
H725 C711 0.958 . S
H726 C711 0.961 . S
H727 C711 0.960 . S
C728 C729 1.391 . S
C728 C730 1.394 . S
C728 H744 0.931 . S
C729 C728 1.391 . S
C729 C733 1.376 . S
C730 C728 1.394 . S
C730 C731 1.369 . S
C730 C734 1.531 . S
C731 C730 1.369 . S
C731 C732 1.410 . S
C731 C739 1.503 . S
C732 C731 1.410 . S
C732 C733 1.392 . S
C732 C735 1.511 . S
C733 C729 1.376 . S
C733 C732 1.392 . S
C733 H745 0.929 . S
C734 C730 1.531 . S
C734 H746 0.960 . S
C734 H747 0.962 . S
C734 H748 0.960 . S
C735 C732 1.511 . S
C735 H749 0.961 . S
C735 H750 0.961 . S
C735 H751 0.961 . S
C736 C737 1.371 . S
C736 C738 1.363 1_655 S
C736 H752 0.931 . S
C737 C736 1.371 . S
C737 C741 1.406 1_655 S
C738 C736 1.363 1_455 S
C738 C739 1.370 . S
C738 C742 1.524 1_455 S
C739 C731 1.503 . S
C739 C738 1.370 . S
C739 C740 1.403 . S
C740 C739 1.403 . S
C740 C741 1.404 . S
C740 C743 1.539 . S
C741 C737 1.406 1_455 S
C741 C740 1.404 . S
C741 H753 0.930 . S
C742 C738 1.524 1_655 S
C742 H754 0.956 . S
C742 H755 0.961 . S
C742 H756 0.961 . S
C743 C740 1.539 . S
C743 H757 0.958 . S
C743 H758 0.961 . S
C743 H759 0.960 . S
H744 C728 0.931 . S
H745 C733 0.929 . S
H746 C734 0.960 . S
H747 C734 0.962 . S
H748 C734 0.960 . S
H749 C735 0.961 . S
H750 C735 0.961 . S
H751 C735 0.961 . S
H752 C736 0.931 . S
H753 C741 0.930 . S
H754 C742 0.956 . S
H755 C742 0.961 . S
H756 C742 0.961 . S
H757 C743 0.958 . S
H758 C743 0.961 . S
H759 C743 0.960 . S
C760 C761 1.391 . S
C760 C762 1.394 . S
C760 H776 0.931 . S
C761 C760 1.391 . S
C761 C765 1.376 . S
C762 C760 1.394 . S
C762 C763 1.369 . S
C762 C766 1.485 1_545 S
C763 C762 1.369 . S
C763 C764 1.410 . S
C763 C771 1.503 . S
C764 C763 1.410 . S
C764 C765 1.392 . S
C764 C767 1.511 . S
C765 C761 1.376 . S
C765 C764 1.392 . S
C765 H777 0.929 . S
C766 C762 1.485 1_565 S
C766 H778 0.989 . S
C766 H779 0.959 . S
C766 H780 0.982 . S
C767 C764 1.511 . S
C767 H781 0.961 . S
C767 H782 0.961 . S
C767 H783 0.961 . S
C768 C769 1.370 1_545 S
C768 C770 1.363 . S
C768 H784 0.931 . S
C769 C768 1.370 1_565 S
C769 C773 1.408 . S
C770 C768 1.363 . S
C770 C771 1.370 . S
C770 C774 1.524 . S
C771 C763 1.503 . S
C771 C770 1.370 . S
C771 C772 1.403 . S
C772 C771 1.403 . S
C772 C773 1.404 1_545 S
C772 C775 1.539 . S
C773 C769 1.408 . S
C773 C772 1.404 1_565 S
C773 H785 0.930 . S
C774 C770 1.524 . S
C774 H786 0.956 . S
C774 H787 0.961 . S
C774 H788 0.961 . S
C775 C772 1.539 . S
C775 H789 0.958 1_545 S
C775 H790 0.961 1_545 S
C775 H791 0.960 . S
H776 C760 0.931 . S
H777 C765 0.929 . S
H778 C766 0.989 . S
H779 C766 0.959 . S
H780 C766 0.982 . S
H781 C767 0.961 . S
H782 C767 0.961 . S
H783 C767 0.961 . S
H784 C768 0.931 . S
H785 C773 0.930 . S
H786 C774 0.956 . S
H787 C774 0.961 . S
H788 C774 0.961 . S
H789 C775 0.958 1_565 S
H790 C775 0.961 1_565 S
H791 C775 0.960 . S
C792 C793 1.391 . S
C792 C794 1.394 . S
C792 H808 0.931 . S
C793 C792 1.391 . S
C793 C797 1.376 . S
C794 C792 1.394 . S
C794 C795 1.369 . S
C794 C798 1.531 . S
C795 C794 1.369 . S
C795 C796 1.410 . S
C795 C803 1.503 . S
C796 C795 1.410 . S
C796 C797 1.392 . S
C796 C799 1.511 . S
C797 C793 1.376 . S
C797 C796 1.392 . S
C797 H809 0.929 . S
C798 C794 1.531 . S
C798 H810 0.960 . S
C798 H811 0.962 . S
C798 H812 0.960 . S
C799 C796 1.511 . S
C799 H813 0.961 . S
C799 H814 0.961 . S
C799 H815 0.961 . S
C800 C801 1.370 . S
C800 C802 1.363 . S
C800 H816 0.931 . S
C801 C800 1.370 . S
C801 C805 1.408 . S
C802 C800 1.363 . S
C802 C803 1.370 . S
C802 C806 1.524 . S
C803 C795 1.503 . S
C803 C802 1.370 . S
C803 C804 1.403 . S
C804 C803 1.403 . S
C804 C805 1.404 . S
C804 C807 1.539 . S
C805 C801 1.408 . S
C805 C804 1.404 . S
C805 H817 0.930 . S
C806 C802 1.524 . S
C806 H818 0.956 . S
C806 H819 0.961 . S
C806 H820 0.961 . S
C807 C804 1.539 . S
C807 H821 0.958 . S
C807 H822 0.961 . S
C807 H823 0.960 . S
H808 C792 0.931 . S
H809 C797 0.929 . S
H810 C798 0.960 . S
H811 C798 0.962 . S
H812 C798 0.960 . S
H813 C799 0.961 . S
H814 C799 0.961 . S
H815 C799 0.961 . S
H816 C800 0.931 . S
H817 C805 0.930 . S
H818 C806 0.956 . S
H819 C806 0.961 . S
H820 C806 0.961 . S
H821 C807 0.958 . S
H822 C807 0.961 . S
H823 C807 0.960 . S
C824 C825 1.391 . S
C824 C826 1.394 . S
C824 H840 0.931 . S
C825 C824 1.391 . S
C825 C829 1.376 . S
C826 C824 1.394 . S
C826 C827 1.369 . S
C826 C830 1.531 . S
C827 C826 1.369 . S
C827 C828 1.410 . S
C827 C835 1.503 . S
C828 C827 1.410 . S
C828 C829 1.392 . S
C828 C831 1.511 . S
C829 C825 1.376 . S
C829 C828 1.392 . S
C829 H841 0.929 . S
C830 C826 1.531 . S
C830 H842 0.960 . S
C830 H843 0.962 . S
C830 H844 0.960 . S
C831 C828 1.511 . S
C831 H845 0.961 . S
C831 H846 0.961 . S
C831 H847 0.961 . S
C832 C833 1.370 . S
C832 C834 1.363 . S
C832 H848 0.931 . S
C833 C832 1.370 . S
C833 C837 1.408 . S
C834 C832 1.363 . S
C834 C835 1.370 . S
C834 C838 1.524 . S
C835 C827 1.503 . S
C835 C834 1.370 . S
C835 C836 1.403 . S
C836 C835 1.403 . S
C836 C837 1.404 . S
C836 C839 1.539 . S
C837 C833 1.408 . S
C837 C836 1.404 . S
C837 H849 0.930 . S
C838 C834 1.524 . S
C838 H850 0.956 . S
C838 H851 0.961 . S
C838 H852 0.961 . S
C839 C836 1.539 . S
C839 H853 0.958 . S
C839 H854 0.961 . S
C839 H855 0.960 . S
H840 C824 0.931 . S
H841 C829 0.929 . S
H842 C830 0.960 . S
H843 C830 0.962 . S
H844 C830 0.960 . S
H845 C831 0.961 . S
H846 C831 0.961 . S
H847 C831 0.961 . S
H848 C832 0.931 . S
H849 C837 0.930 . S
H850 C838 0.956 . S
H851 C838 0.961 . S
H852 C838 0.961 . S
H853 C839 0.958 . S
H854 C839 0.961 . S
H855 C839 0.960 . S
C856 C857 1.391 . S
C856 C858 1.394 . S
C856 H872 0.931 . S
C857 C856 1.391 . S
C857 C861 1.376 1_554 S
C858 C856 1.394 . S
C858 C859 1.369 . S
C858 C862 1.531 . S
C859 C858 1.369 . S
C859 C860 1.410 1_554 S
C859 C867 1.503 1_554 S
C860 C859 1.410 1_556 S
C860 C861 1.392 . S
C860 C863 1.511 . S
C861 C857 1.376 1_556 S
C861 C860 1.392 . S
C861 H873 0.929 . S
C862 C858 1.531 . S
C862 H874 0.960 1_655 S
C862 H875 0.962 . S
C862 H876 0.960 1_655 S
C863 C860 1.511 . S
C863 H877 0.961 . S
C863 H878 0.961 . S
C863 H879 0.961 . S
C864 C865 1.370 1_655 S
C864 C866 1.363 . S
C864 H880 0.931 . S
C865 C864 1.370 1_455 S
C865 C869 1.408 . S
C866 C864 1.363 . S
C866 C867 1.370 . S
C866 C870 1.524 . S
C867 C859 1.503 1_556 S
C867 C866 1.370 . S
C867 C868 1.403 1_655 S
C868 C867 1.403 1_455 S
C868 C869 1.404 . S
C868 C871 1.539 . S
C869 C865 1.408 . S
C869 C868 1.404 . S
C869 H881 0.930 . S
C870 C866 1.524 . S
C870 H882 0.956 1_556 S
C870 H883 0.961 . S
C870 H884 0.961 . S
C871 C868 1.539 . S
C871 H885 0.958 1_556 S
C871 H886 0.961 . S
C871 H887 0.960 . S
H872 C856 0.931 . S
H873 C861 0.929 . S
H874 C862 0.960 1_455 S
H875 C862 0.962 . S
H876 C862 0.960 1_455 S
H877 C863 0.961 . S
H878 C863 0.961 . S
H879 C863 0.961 . S
H880 C864 0.931 . S
H881 C869 0.930 . S
H882 C870 0.956 1_554 S
H883 C870 0.961 . S
H884 C870 0.961 . S
H885 C871 0.958 1_554 S
H886 C871 0.961 . S
H887 C871 0.960 . S
C888 C889 1.391 . S
C888 C890 1.394 . S
C888 H904 0.931 . S
C889 C888 1.391 . S
C889 C893 1.376 . S
C890 C888 1.394 . S
C890 C891 1.370 . S
C890 C894 1.531 . S
C891 C890 1.370 . S
C891 C892 1.409 1_554 S
C891 C899 1.502 1_554 S
C892 C891 1.409 1_556 S
C892 C893 1.392 1_556 S
C892 C895 1.511 . S
C893 C889 1.376 . S
C893 C892 1.392 1_554 S
C893 H905 0.929 . S
C894 C890 1.531 . S
C894 H906 0.960 . S
C894 H907 0.962 . S
C894 H908 0.960 . S
C895 C892 1.511 . S
C895 H909 0.961 . S
C895 H910 0.961 . S
C895 H911 0.961 1_565 S
C896 C897 1.370 1_565 S
C896 C898 1.363 . S
C896 H912 0.931 . S
C897 C896 1.370 1_545 S
C897 C901 1.408 . S
C898 C896 1.363 . S
C898 C899 1.370 . S
C898 C902 1.524 . S
C899 C891 1.502 1_556 S
C899 C898 1.370 . S
C899 C900 1.403 1_565 S
C900 C899 1.403 1_545 S
C900 C901 1.404 . S
C900 C903 1.539 1_556 S
C901 C897 1.408 . S
C901 C900 1.404 . S
C901 H913 0.930 . S
C902 C898 1.524 . S
C902 H914 0.956 . S
C902 H915 0.961 . S
C902 H916 0.961 . S
C903 C900 1.539 1_554 S
C903 H917 0.958 . S
C903 H918 0.961 1_554 S
C903 H919 0.960 . S
H904 C888 0.931 . S
H905 C893 0.929 . S
H906 C894 0.960 . S
H907 C894 0.962 . S
H908 C894 0.960 . S
H909 C895 0.961 . S
H910 C895 0.961 . S
H911 C895 0.961 1_545 S
H912 C896 0.931 . S
H913 C901 0.930 . S
H914 C902 0.956 . S
H915 C902 0.961 . S
H916 C902 0.961 . S
H917 C903 0.958 . S
H918 C903 0.961 1_556 S
H919 C903 0.960 . S
C920 C921 1.391 . S
C920 C922 1.394 . S
C920 H936 0.931 . S
C921 C920 1.391 . S
C921 C925 1.376 1_554 S
C922 C920 1.394 . S
C922 C923 1.369 1_554 S
C922 C926 1.531 . S
C923 C922 1.369 1_556 S
C923 C924 1.410 . S
C923 C931 1.503 . S
C924 C923 1.410 . S
C924 C925 1.392 . S
C924 C927 1.511 . S
C925 C921 1.376 1_556 S
C925 C924 1.392 . S
C925 H937 0.929 . S
C926 C922 1.531 . S
C926 H938 0.960 . S
C926 H939 0.962 . S
C926 H940 0.960 . S
C927 C924 1.511 . S
C927 H941 0.961 . S
C927 H942 0.961 . S
C927 H943 0.961 . S
C928 C929 1.370 . S
C928 C930 1.363 . S
C928 H944 0.931 . S
C929 C928 1.370 . S
C929 C933 1.408 . S
C930 C928 1.363 . S
C930 C931 1.370 . S
C930 C934 1.524 . S
C931 C923 1.503 . S
C931 C930 1.370 . S
C931 C932 1.403 . S
C932 C931 1.403 . S
C932 C933 1.404 . S
C932 C935 1.539 . S
C933 C929 1.408 . S
C933 C932 1.404 . S
C933 H945 0.930 . S
C934 C930 1.524 . S
C934 H946 0.956 . S
C934 H947 0.961 . S
C934 H948 0.961 . S
C935 C932 1.539 . S
C935 H949 0.958 . S
C935 H950 0.961 . S
C935 H951 0.960 . S
H936 C920 0.931 . S
H937 C925 0.929 . S
H938 C926 0.960 . S
H939 C926 0.962 . S
H940 C926 0.960 . S
H941 C927 0.961 . S
H942 C927 0.961 . S
H943 C927 0.961 . S
H944 C928 0.931 . S
H945 C933 0.930 . S
H946 C934 0.956 . S
H947 C934 0.961 . S
H948 C934 0.961 . S
H949 C935 0.958 . S
H950 C935 0.961 . S
H951 C935 0.960 . S
C952 C953 1.391 . S
C952 C954 1.394 . S
C952 H968 0.931 . S
C953 C952 1.391 . S
C953 C957 1.376 . S
C954 C952 1.394 . S
C954 C955 1.369 1_554 S
C954 C958 1.531 . S
C955 C954 1.369 1_556 S
C955 C956 1.410 . S
C955 C963 1.503 . S
C956 C955 1.410 . S
C956 C957 1.392 1_556 S
C956 C959 1.511 . S
C957 C953 1.376 . S
C957 C956 1.392 1_554 S
C957 H969 0.929 1_554 S
C958 C954 1.531 . S
C958 H970 0.960 . S
C958 H971 0.962 1_554 S
C958 H972 0.960 . S
C959 C956 1.511 . S
C959 H973 0.961 . S
C959 H974 0.961 . S
C959 H975 0.975 . S
C960 C961 1.370 . S
C960 C962 1.363 . S
C960 H976 0.931 . S
C961 C960 1.370 . S
C961 C965 1.408 . S
C962 C960 1.363 . S
C962 C963 1.370 . S
C962 C966 1.524 . S
C963 C955 1.503 . S
C963 C962 1.370 . S
C963 C964 1.403 1_556 S
C964 C963 1.403 1_554 S
C964 C965 1.404 1_554 S
C964 C967 1.539 . S
C965 C961 1.408 . S
C965 C964 1.404 1_556 S
C965 H977 0.930 1_556 S
C966 C962 1.524 . S
C966 H978 0.956 . S
C966 H979 0.961 . S
C966 H980 0.961 . S
C967 C964 1.539 . S
C967 H981 0.958 . S
C967 H982 0.961 . S
C967 H983 0.960 . S
H968 C952 0.931 . S
H969 C957 0.929 1_556 S
H970 C958 0.960 . S
H971 C958 0.962 1_556 S
H972 C958 0.960 . S
H973 C959 0.961 . S
H974 C959 0.961 . S
H975 C959 0.975 . S
H976 C960 0.931 . S
H977 C965 0.930 1_554 S
H978 C966 0.956 . S
H979 C966 0.961 . S
H980 C966 0.961 . S
H981 C967 0.958 . S
H982 C967 0.961 . S
H983 C967 0.960 . S
C984 C985 1.391 . S
C984 C986 1.394 . S
C984 H1000 0.931 . S
C985 C984 1.391 . S
C985 C989 1.376 . S
C986 C984 1.394 . S
C986 C987 1.369 . S
C986 C990 1.531 . S
C987 C986 1.369 . S
C987 C988 1.410 . S
C987 C995 1.503 . S
C988 C987 1.410 . S
C988 C989 1.392 . S
C988 C991 1.511 . S
C989 C985 1.376 . S
C989 C988 1.392 . S
C989 H1001 0.929 . S
C990 C986 1.531 . S
C990 H1002 0.960 . S
C990 H1003 0.962 1_455 S
C990 H1004 0.960 . S
C991 C988 1.511 . S
C991 H1005 0.961 . S
C991 H1006 0.961 . S
C991 H1007 0.961 . S
C992 C993 1.370 . S
C992 C994 1.363 . S
C992 H1008 0.931 . S
C993 C992 1.370 . S
C993 C997 1.408 . S
C994 C992 1.363 . S
C994 C995 1.370 . S
C994 C998 1.524 . S
C995 C987 1.503 . S
C995 C994 1.370 . S
C995 C996 1.403 . S
C996 C995 1.403 . S
C996 C997 1.404 . S
C996 C999 1.539 . S
C997 C993 1.408 . S
C997 C996 1.404 . S
C997 H1009 0.930 . S
C998 C994 1.524 . S
C998 H1010 0.956 . S
C998 H1011 0.961 . S
C998 H1012 0.961 . S
C999 C996 1.539 . S
C999 H1013 0.958 . S
C999 H1014 0.961 . S
C999 H1015 0.960 . S
H1000 C984 0.931 . S
H1001 C989 0.929 . S
H1002 C990 0.960 . S
H1003 C990 0.962 1_655 S
H1004 C990 0.960 . S
H1005 C991 0.961 . S
H1006 C991 0.961 . S
H1007 C991 0.961 . S
H1008 C992 0.931 . S
H1009 C997 0.930 . S
H1010 C998 0.956 . S
H1011 C998 0.961 . S
H1012 C998 0.961 . S
H1013 C999 0.958 . S
H1014 C999 0.961 . S
H1015 C999 0.960 . S
C1016 C1017 1.391 . S
C1016 C1018 1.394 . S
C1016 H1032 0.931 . S
C1017 C1016 1.391 . S
C1017 C1021 1.376 . S
C1018 C1016 1.394 . S
C1018 C1019 1.369 . S
C1018 C1022 1.531 . S
C1019 C1018 1.369 . S
C1019 C1020 1.410 . S
C1019 C1027 1.503 . S
C1020 C1019 1.410 . S
C1020 C1021 1.392 . S
C1020 C1023 1.511 . S
C1021 C1017 1.376 . S
C1021 C1020 1.392 . S
C1021 H1033 0.929 . S
C1022 C1018 1.531 . S
C1022 H1034 0.960 . S
C1022 H1035 0.962 . S
C1022 H1036 0.960 . S
C1023 C1020 1.511 . S
C1023 H1037 0.961 1_545 S
C1023 H1038 0.961 . S
C1023 H1039 0.961 1_545 S
C1024 C1025 1.370 . S
C1024 C1026 1.363 . S
C1024 H1040 0.931 . S
C1025 C1024 1.370 . S
C1025 C1029 1.408 . S
C1026 C1024 1.363 . S
C1026 C1027 1.370 . S
C1026 C1030 1.524 . S
C1027 C1019 1.503 . S
C1027 C1026 1.370 . S
C1027 C1028 1.403 . S
C1028 C1027 1.403 . S
C1028 C1029 1.404 . S
C1028 C1031 1.539 . S
C1029 C1025 1.408 . S
C1029 C1028 1.404 . S
C1029 H1041 0.930 . S
C1030 C1026 1.524 . S
C1030 H1042 0.956 . S
C1030 H1043 0.961 . S
C1030 H1044 0.961 . S
C1031 C1028 1.539 . S
C1031 H1045 0.958 . S
C1031 H1046 0.961 . S
C1031 H1047 0.960 . S
H1032 C1016 0.931 . S
H1033 C1021 0.929 . S
H1034 C1022 0.960 . S
H1035 C1022 0.962 . S
H1036 C1022 0.960 . S
H1037 C1023 0.961 1_565 S
H1038 C1023 0.961 . S
H1039 C1023 0.961 1_565 S
H1040 C1024 0.931 . S
H1041 C1029 0.930 . S
H1042 C1030 0.956 . S
H1043 C1030 0.961 . S
H1044 C1030 0.961 . S
H1045 C1031 0.958 . S
H1046 C1031 0.961 . S
H1047 C1031 0.960 . S
C1048 C1049 1.391 . S
C1048 C1050 1.394 . S
C1048 H1064 0.931 . S
C1049 C1048 1.391 . S
C1049 C1053 1.376 . S
C1050 C1048 1.394 . S
C1050 C1051 1.369 . S
C1050 C1054 1.531 . S
C1051 C1050 1.369 . S
C1051 C1052 1.410 . S
C1051 C1059 1.503 . S
C1052 C1051 1.410 . S
C1052 C1053 1.392 . S
C1052 C1055 1.511 . S
C1053 C1049 1.376 . S
C1053 C1052 1.392 . S
C1053 H1065 0.929 . S
C1054 C1050 1.531 . S
C1054 H1066 0.960 . S
C1054 H1067 0.962 . S
C1054 H1068 0.960 . S
C1055 C1052 1.511 . S
C1055 H1069 0.961 . S
C1055 H1070 0.961 . S
C1055 H1071 0.961 . S
C1056 C1057 1.370 . S
C1056 C1058 1.363 . S
C1056 H1072 0.931 . S
C1057 C1056 1.370 . S
C1057 C1061 1.408 . S
C1058 C1056 1.363 . S
C1058 C1059 1.370 . S
C1058 C1062 1.524 . S
C1059 C1051 1.503 . S
C1059 C1058 1.370 . S
C1059 C1060 1.403 . S
C1060 C1059 1.403 . S
C1060 C1061 1.404 . S
C1060 C1063 1.539 . S
C1061 C1057 1.408 . S
C1061 C1060 1.404 . S
C1061 H1073 0.930 . S
C1062 C1058 1.524 . S
C1062 H1074 0.956 . S
C1062 H1075 0.961 . S
C1062 H1076 0.961 . S
C1063 C1060 1.539 . S
C1063 H1077 0.958 . S
C1063 H1078 0.961 . S
C1063 H1079 0.960 . S
H1064 C1048 0.931 . S
H1065 C1053 0.929 . S
H1066 C1054 0.960 . S
H1067 C1054 0.962 . S
H1068 C1054 0.960 . S
H1069 C1055 0.961 . S
H1070 C1055 0.961 . S
H1071 C1055 0.961 . S
H1072 C1056 0.931 . S
H1073 C1061 0.930 . S
H1074 C1062 0.956 . S
H1075 C1062 0.961 . S
H1076 C1062 0.961 . S
H1077 C1063 0.958 . S
H1078 C1063 0.961 . S
H1079 C1063 0.960 . S
C1080 C1081 1.391 . S
C1080 C1082 1.394 . S
C1080 H1096 0.931 . S
C1081 C1080 1.391 . S
C1081 C1085 1.376 . S
C1082 C1080 1.394 . S
C1082 C1083 1.369 . S
C1082 C1086 1.531 . S
C1083 C1082 1.369 . S
C1083 C1084 1.410 . S
C1083 C1091 1.503 . S
C1084 C1083 1.410 . S
C1084 C1085 1.392 . S
C1084 C1087 1.511 . S
C1085 C1081 1.376 . S
C1085 C1084 1.392 . S
C1085 H1097 0.929 . S
C1086 C1082 1.531 . S
C1086 H1098 0.960 . S
C1086 H1099 0.962 . S
C1086 H1100 0.960 . S
C1087 C1084 1.511 . S
C1087 H1101 0.961 . S
C1087 H1102 0.961 . S
C1087 H1103 0.961 . S
C1088 C1089 1.370 . S
C1088 C1090 1.363 . S
C1088 H1104 0.931 . S
C1089 C1088 1.370 . S
C1089 C1093 1.408 . S
C1090 C1088 1.363 . S
C1090 C1091 1.370 . S
C1090 C1094 1.524 . S
C1091 C1083 1.503 . S
C1091 C1090 1.370 . S
C1091 C1092 1.403 . S
C1092 C1091 1.403 . S
C1092 C1093 1.404 . S
C1092 C1095 1.539 . S
C1093 C1089 1.408 . S
C1093 C1092 1.404 . S
C1093 H1105 0.930 . S
C1094 C1090 1.524 . S
C1094 H1106 0.956 . S
C1094 H1107 0.961 . S
C1094 H1108 0.961 . S
C1095 C1092 1.539 . S
C1095 H1109 0.958 . S
C1095 H1110 0.961 . S
C1095 H1111 0.960 . S
H1096 C1080 0.931 . S
H1097 C1085 0.929 . S
H1098 C1086 0.960 . S
H1099 C1086 0.962 . S
H1100 C1086 0.960 . S
H1101 C1087 0.961 . S
H1102 C1087 0.961 . S
H1103 C1087 0.961 . S
H1104 C1088 0.931 . S
H1105 C1093 0.930 . S
H1106 C1094 0.956 . S
H1107 C1094 0.961 . S
H1108 C1094 0.961 . S
H1109 C1095 0.958 . S
H1110 C1095 0.961 . S
H1111 C1095 0.960 . S
C1112 C1113 1.391 . S
C1112 C1114 1.394 . S
C1112 H1128 0.931 . S
C1113 C1112 1.391 . S
C1113 C1117 1.376 . S
C1114 C1112 1.394 . S
C1114 C1115 1.369 . S
C1114 C1118 1.531 . S
C1115 C1114 1.369 . S
C1115 C1116 1.410 . S
C1115 C1123 1.503 . S
C1116 C1115 1.410 . S
C1116 C1117 1.392 . S
C1116 C1119 1.511 1_655 S
C1117 C1113 1.376 . S
C1117 C1116 1.392 . S
C1117 H1129 0.929 . S
C1118 C1114 1.531 . S
C1118 H1130 0.960 . S
C1118 H1131 0.962 . S
C1118 H1132 0.960 . S
C1119 C1116 1.511 1_455 S
C1119 H1133 0.960 1_455 S
C1119 H1134 0.961 1_455 S
C1119 H1135 0.961 . S
C1120 C1121 1.370 . S
C1120 C1122 1.363 . S
C1120 H1136 0.931 . S
C1121 C1120 1.370 . S
C1121 C1125 1.408 1_655 S
C1122 C1120 1.363 . S
C1122 C1123 1.370 . S
C1122 C1126 1.524 . S
C1123 C1115 1.503 . S
C1123 C1122 1.370 . S
C1123 C1124 1.403 1_655 S
C1124 C1123 1.403 1_455 S
C1124 C1125 1.404 . S
C1124 C1127 1.539 . S
C1125 C1121 1.408 1_455 S
C1125 C1124 1.404 . S
C1125 H1137 0.930 . S
C1126 C1122 1.524 . S
C1126 H1138 0.956 . S
C1126 H1139 0.961 . S
C1126 H1140 0.961 . S
C1127 C1124 1.539 . S
C1127 H1141 0.958 . S
C1127 H1142 0.961 . S
C1127 H1143 0.960 . S
H1128 C1112 0.931 . S
H1129 C1117 0.929 . S
H1130 C1118 0.960 . S
H1131 C1118 0.962 . S
H1132 C1118 0.960 . S
H1133 C1119 0.960 1_655 S
H1134 C1119 0.961 1_655 S
H1135 C1119 0.961 . S
H1136 C1120 0.931 . S
H1137 C1125 0.930 . S
H1138 C1126 0.956 . S
H1139 C1126 0.961 . S
H1140 C1126 0.961 . S
H1141 C1127 0.958 . S
H1142 C1127 0.961 . S
H1143 C1127 0.960 . S
C1144 C1145 1.391 . S
C1144 C1146 1.394 . S
C1144 H1160 0.931 . S
C1145 C1144 1.391 . S
C1145 C1149 1.376 . S
C1146 C1144 1.394 . S
C1146 C1147 1.369 . S
C1146 C1150 1.531 . S
C1147 C1146 1.369 . S
C1147 C1148 1.410 . S
C1147 C1155 1.503 . S
C1148 C1147 1.410 . S
C1148 C1149 1.392 . S
C1148 C1151 1.511 . S
C1149 C1145 1.376 . S
C1149 C1148 1.392 . S
C1149 H1161 0.929 . S
C1150 C1146 1.531 . S
C1150 H1162 0.960 . S
C1150 H1163 0.962 . S
C1150 H1164 0.960 . S
C1151 C1148 1.511 . S
C1151 H1165 0.961 . S
C1151 H1166 0.961 . S
C1151 H1167 0.961 . S
C1152 C1153 1.370 . S
C1152 C1154 1.363 . S
C1152 H1168 0.931 1_565 S
C1153 C1152 1.370 . S
C1153 C1157 1.408 . S
C1154 C1152 1.363 . S
C1154 C1155 1.370 . S
C1154 C1158 1.524 1_565 S
C1155 C1147 1.503 . S
C1155 C1154 1.370 . S
C1155 C1156 1.403 . S
C1156 C1155 1.403 . S
C1156 C1157 1.404 . S
C1156 C1159 1.539 . S
C1157 C1153 1.408 . S
C1157 C1156 1.404 . S
C1157 H1169 0.930 . S
C1158 C1154 1.524 1_545 S
C1158 H1170 0.956 1_545 S
C1158 H1171 0.961 . S
C1158 H1172 0.961 . S
C1159 C1156 1.539 . S
C1159 H1173 0.958 . S
C1159 H1174 0.961 . S
C1159 H1175 0.960 . S
H1160 C1144 0.931 . S
H1161 C1149 0.929 . S
H1162 C1150 0.960 . S
H1163 C1150 0.962 . S
H1164 C1150 0.960 . S
H1165 C1151 0.961 . S
H1166 C1151 0.961 . S
H1167 C1151 0.961 . S
H1168 C1152 0.931 1_545 S
H1169 C1157 0.930 . S
H1170 C1158 0.956 1_565 S
H1171 C1158 0.961 . S
H1172 C1158 0.961 . S
H1173 C1159 0.958 . S
H1174 C1159 0.961 . S
H1175 C1159 0.960 . S
C1176 C1177 1.391 . S
C1176 C1178 1.394 . S
C1176 H1192 0.931 . S
C1177 C1176 1.391 . S
C1177 C1181 1.376 . S
C1178 C1176 1.394 . S
C1178 C1179 1.369 . S
C1178 C1182 1.531 . S
C1179 C1178 1.369 . S
C1179 C1180 1.410 . S
C1179 C1187 1.503 . S
C1180 C1179 1.410 . S
C1180 C1181 1.392 . S
C1180 C1183 1.511 . S
C1181 C1177 1.376 . S
C1181 C1180 1.392 . S
C1181 H1193 0.929 . S
C1182 C1178 1.531 . S
C1182 H1194 0.960 . S
C1182 H1195 0.962 . S
C1182 H1196 0.960 . S
C1183 C1180 1.511 . S
C1183 H1197 0.961 . S
C1183 H1198 0.961 . S
C1183 H1199 0.961 . S
C1184 C1185 1.370 . S
C1184 C1186 1.363 . S
C1184 H1200 0.931 . S
C1185 C1184 1.370 . S
C1185 C1189 1.408 . S
C1186 C1184 1.363 . S
C1186 C1187 1.370 . S
C1186 C1190 1.524 . S
C1187 C1179 1.503 . S
C1187 C1186 1.370 . S
C1187 C1188 1.403 . S
C1188 C1187 1.403 . S
C1188 C1189 1.404 . S
C1188 C1191 1.539 . S
C1189 C1185 1.408 . S
C1189 C1188 1.404 . S
C1189 H1201 0.930 . S
C1190 C1186 1.524 . S
C1190 H1202 0.956 . S
C1190 H1203 0.961 . S
C1190 H1204 0.961 . S
C1191 C1188 1.539 . S
C1191 H1205 0.958 . S
C1191 H1206 0.961 . S
C1191 H1207 0.960 . S
H1192 C1176 0.931 . S
H1193 C1181 0.929 . S
H1194 C1182 0.960 . S
H1195 C1182 0.962 . S
H1196 C1182 0.960 . S
H1197 C1183 0.961 . S
H1198 C1183 0.961 . S
H1199 C1183 0.961 . S
H1200 C1184 0.931 . S
H1201 C1189 0.930 . S
H1202 C1190 0.956 . S
H1203 C1190 0.961 . S
H1204 C1190 0.961 . S
H1205 C1191 0.958 . S
H1206 C1191 0.961 . S
H1207 C1191 0.960 . S
C1208 C1209 1.391 . S
C1208 C1210 1.394 . S
C1208 H1224 0.931 . S
C1209 C1208 1.391 . S
C1209 C1213 1.376 . S
C1210 C1208 1.394 . S
C1210 C1211 1.369 . S
C1210 C1214 1.531 . S
C1211 C1210 1.369 . S
C1211 C1212 1.410 . S
C1211 C1219 1.503 . S
C1212 C1211 1.410 . S
C1212 C1213 1.392 . S
C1212 C1215 1.511 . S
C1213 C1209 1.376 . S
C1213 C1212 1.392 . S
C1213 H1225 0.929 . S
C1214 C1210 1.531 . S
C1214 H1226 0.960 . S
C1214 H1227 0.962 . S
C1214 H1228 0.960 . S
C1215 C1212 1.511 . S
C1215 H1229 0.961 . S
C1215 H1230 0.961 . S
C1215 H1231 0.961 . S
C1216 C1217 1.370 . S
C1216 C1218 1.363 . S
C1216 H1232 0.931 . S
C1217 C1216 1.370 . S
C1217 C1221 1.408 . S
C1218 C1216 1.363 . S
C1218 C1219 1.370 . S
C1218 C1222 1.524 . S
C1219 C1211 1.503 . S
C1219 C1218 1.370 . S
C1219 C1220 1.403 . S
C1220 C1219 1.403 . S
C1220 C1221 1.404 . S
C1220 C1223 1.539 . S
C1221 C1217 1.408 . S
C1221 C1220 1.404 . S
C1221 H1233 0.930 . S
C1222 C1218 1.524 . S
C1222 H1234 0.956 . S
C1222 H1235 0.961 . S
C1222 H1236 0.961 . S
C1223 C1220 1.539 . S
C1223 H1237 0.958 . S
C1223 H1238 0.961 . S
C1223 H1239 0.960 . S
H1224 C1208 0.931 . S
H1225 C1213 0.929 . S
H1226 C1214 0.960 . S
H1227 C1214 0.962 . S
H1228 C1214 0.960 . S
H1229 C1215 0.961 . S
H1230 C1215 0.961 . S
H1231 C1215 0.961 . S
H1232 C1216 0.931 . S
H1233 C1221 0.930 . S
H1234 C1222 0.956 . S
H1235 C1222 0.961 . S
H1236 C1222 0.961 . S
H1237 C1223 0.958 . S
H1238 C1223 0.961 . S
H1239 C1223 0.960 . S
C473 C255 2.754 . S
C481 C343 2.926 . S
C513 C369 2.371 . S
C505 C294 2.088 . S
C545 C409 2.351 . S
C537 C177 2.174 . S
C577 C463 2.866 . S
C569 C216 2.684 . S
C609 C324 2.925 . S
C601 C99 2.764 . S
C633 C138 2.103 . S
C641 C354 2.364 . S
C665 C21 2.153 . S
C673 C394 2.354 . S
C697 C60 2.721 . S
C705 C444 2.862 1_655 S
C737 C320 0.360 1_655 S
C729 C196 0.550 . S
C769 C381 0.630 . S
C761 C235 0.613 . S
C801 C421 0.399 . S
C793 C289 0.362 . S
C825 C157 0.436 . S
C833 C440 0.365 . S
C857 C40 0.379 . S
C865 C341 0.405 . S
C897 C360 0.663 . S
C889 C79 0.573 . S
C929 C400 0.394 . S
C921 C133 0.329 . S
C953 C1 0.327 . S
C961 C461 0.402 . S
C985 C211 2.542 . S
C993 C314 2.879 . S
C1017 C250 3.124 . S
C1025 C364 3.501 . S
C1057 C404 3.220 . S
C1049 C274 2.913 . S
C1089 C434 2.581 . S
C1081 C172 2.275 . S
C1113 C55 2.526 . S
C1121 C329 2.883 . S
C1153 C383 3.501 . S
C1145 C94 3.160 . S
C1185 C423 3.216 . S
C1177 C118 2.928 . S
C1209 C16 2.272 . S
C1217 C449 2.581 . S
