# Generated by pormake.
# Topology pyr, (3,6)-cn, num edge types: 1
# Building blocks:
#     Node 0, Type 0, BuildingBlock: CUQRIR_clean_linker_1, # of connection points: 3
#     Node 1, Type 0, BuildingBlock: CUQRIR_clean_linker_1, # of connection points: 3
#     Node 2, Type 0, BuildingBlock: CUQRIR_clean_linker_1, # of connection points: 3
#     Node 3, Type 0, BuildingBlock: CUQRIR_clean_linker_1, # of connection points: 3
#     Node 4, Type 0, BuildingBlock: CUQRIR_clean_linker_1, # of connection points: 3
#     Node 5, Type 0, BuildingBlock: CUQRIR_clean_linker_1, # of connection points: 3
#     Node 6, Type 0, BuildingBlock: CUQRIR_clean_linker_1, # of connection points: 3
#     Node 7, Type 0, BuildingBlock: CUQRIR_clean_linker_1, # of connection points: 3
#     Node 8, Type 1, BuildingBlock: PAMTOO_clean_sbu_0, # of connection points: 6
#     Node 9, Type 1, BuildingBlock: PAMTOO_clean_sbu_0, # of connection points: 6
#     Node 10, Type 1, BuildingBlock: PAMTOO_clean_sbu_0, # of connection points: 6
#     Node 11, Type 1, BuildingBlock: PAMTOO_clean_sbu_0, # of connection points: 6
#     Edge 12, Type (0, 1), None
#     Edge 13, Type (0, 1), None
#     Edge 14, Type (0, 1), None
#     Edge 15, Type (0, 1), None
#     Edge 16, Type (0, 1), None
#     Edge 17, Type (0, 1), None
#     Edge 18, Type (0, 1), None
#     Edge 19, Type (0, 1), None
#     Edge 20, Type (0, 1), None
#     Edge 21, Type (0, 1), None
#     Edge 22, Type (0, 1), None
#     Edge 23, Type (0, 1), None
#     Edge 24, Type (0, 1), None
#     Edge 25, Type (0, 1), None
#     Edge 26, Type (0, 1), None
#     Edge 27, Type (0, 1), None
#     Edge 28, Type (0, 1), None
#     Edge 29, Type (0, 1), None
#     Edge 30, Type (0, 1), None
#     Edge 31, Type (0, 1), None
#     Edge 32, Type (0, 1), None
#     Edge 33, Type (0, 1), None
#     Edge 34, Type (0, 1), None
#     Edge 35, Type (0, 1), None
# Relax obj value: 0.621
# Max RMSD: 0.327
# Mean RMSD: 0.195
data_MOF--net-pyr--node1-PAMTOO_clean_sbu_0--node2-CUQRIR_clean_linker_1--edge1-none
_symmetry_space_group_name_H-M    P1
_symmetry_Int_Tables_number       1
_symmetry_cell_setting            triclinic
loop_
_symmetry_equiv_pos_as_xyz
'x, y, z'
_cell_length_a     15.226956
_cell_length_b     14.144142
_cell_length_c     13.532032
_cell_angle_alpha  89.113459
_cell_angle_beta   91.001156
_cell_angle_gamma 108.33116
loop_
_atom_site_label
_atom_site_type_symbol
_atom_site_fract_x
_atom_site_fract_y
_atom_site_fract_z
_atom_type_partial_charge
C0 C 0.44456 0.46196 0.52822 0.0
N1 N 0.5101 0.41521 0.5297 0.0
N2 N 0.45403 0.52476 0.45062 0.0
C3 C 0.36426 0.44045 0.59738 0.0
C4 C 0.53164 0.51952 0.40776 0.0
N5 N 0.56229 0.44693 0.45067 0.0
C6 C 0.56233 0.56613 0.30755 0.0
H7 H 0.3839 0.42383 0.67311 0.0
H8 H 0.30725 0.37635 0.57086 0.0
H9 H 0.33714 0.50443 0.59763 0.0
H10 H 0.56699 0.64597 0.30745 0.0
H11 H 0.51058 0.5292 0.24998 0.0
H12 H 0.63061 0.55936 0.28847 0.0
C13 C 0.04102 0.90108 0.8772 0.0
N14 N 0.03706 0.98545 0.92037 0.0
N15 N 0.11704 0.87848 0.90583 0.0
C16 C 0.98563 0.85661 0.78649 0.0
C17 C 0.14366 0.93361 0.98837 0.0
N18 N 0.09935 1.00222 0.99362 0.0
C19 C 0.23304 0.94297 1.04353 0.0
H20 H 0.96953 0.77455 0.79023 0.0
H21 H 0.02692 0.88378 0.7191 0.0
H22 H 0.92073 0.87646 0.78136 0.0
H23 H 0.28207 0.91922 0.99893 0.0
H24 H 0.21829 0.89631 1.11139 0.0
H25 H 0.26764 1.02111 1.06471 0.0
C26 C 0.57671 0.48649 1.03445 0.0
N27 N 0.6409 0.46385 1.09905 0.0
N28 N 0.60488 0.58324 0.99913 0.0
C29 C 0.48305 0.41333 1.00734 0.0
C30 C 0.69255 0.61591 1.03823 0.0
N31 N 0.71527 0.54893 1.10242 0.0
C32 C 0.76358 0.70655 0.99836 0.0
H33 H 0.49107 0.34211 0.98323 0.0
H34 H 0.44427 0.43578 0.9475 0.0
H35 H 0.43806 0.40155 1.07258 0.0
H36 H 0.7667 0.76417 1.05221 0.0
H37 H 0.74636 0.72969 0.92408 0.0
H38 H 0.83226 0.69517 0.99386 0.0
C39 C 0.79409 0.79372 0.49558 0.0
N40 N 0.88688 0.84837 0.48297 0.0
N41 N 0.75129 0.83342 0.56569 0.0
C42 C 0.74415 0.70324 0.43672 0.0
C43 C 0.8188 0.91895 0.58966 0.0
N44 N 0.90154 0.93029 0.54348 0.0
C45 C 0.7969 0.99774 0.64839 0.0
H46 H 0.75076 0.72196 0.35672 0.0
H47 H 0.67061 0.67614 0.45417 0.0
H48 H 0.77364 0.64226 0.45178 0.0
H49 H 0.81789 0.99433 0.72699 0.0
H50 H 0.72271 0.98958 0.64174 0.0
H51 H 0.83003 1.07158 0.61767 0.0
C52 C 0.51228 0.92282 1.10896 0.0
N53 N 0.58736 0.94738 1.05065 0.0
N54 N 0.45946 0.98282 1.09101 0.0
C55 C 0.49655 0.85264 0.19627 0.0
C56 C 0.49232 1.02626 1.00415 0.0
N57 N 0.57336 1.01176 0.98525 0.0
C58 C 0.46741 1.11517 0.96279 0.0
H59 H 0.42174 0.81198 0.20078 0.0
H60 H 0.51621 0.89525 0.26578 0.0
H61 H 0.53585 0.79895 0.18999 0.0
H62 H 0.49663 0.18045 1.01036 0.0
H63 H 0.39162 1.09993 0.96159 0.0
H64 H 0.4981 1.1381 0.88932 0.0
C65 C 0.0313 0.53499 0.58139 0.0
N66 N 0.0574 0.46078 0.54024 0.0
N67 N 0.96072 0.55186 0.53105 0.0
C68 C 0.05859 0.57469 0.68392 0.0
C69 C 0.95182 0.49375 0.45073 0.0
N70 N 1.00877 0.43609 0.4562 0.0
C71 C 0.86739 0.46996 0.38345 0.0
H72 H 1.00593 0.53287 0.73764 0.0
H73 H 0.06046 0.65348 0.68573 0.0
H74 H 0.12713 0.56887 0.70567 0.0
H75 H 0.84778 0.53784 0.3686 0.0
H76 H 0.80722 0.41388 0.41677 0.0
H77 H 0.87945 0.43478 0.315 0.0
C78 C 0.28482 0.78168 0.47694 0.0
N79 N 0.37574 0.84056 0.49351 0.0
N80 N 0.23782 0.82566 0.41239 0.0
C81 C 0.24122 0.68102 0.5237 0.0
C82 C 0.301 0.91635 0.3957 0.0
N83 N 0.38547 0.9269 0.43988 0.0
C84 C 0.26959 0.99928 0.35644 0.0
H85 H 0.28886 0.63657 0.52932 0.0
H86 H 0.18133 0.63557 0.48117 0.0
H87 H 0.2189 0.69191 0.59852 0.0
H88 H 0.20201 0.99184 0.39044 0.0
H89 H 0.25933 0.99168 0.27583 0.0
H90 H 0.31548 1.07297 0.37502 0.0
C91 C 0.09286 0.49263 0.93487 0.0
N92 N 0.16501 0.48664 0.87649 0.0
N93 N 0.10953 0.58254 0.98222 0.0
C94 C 1.00211 0.41205 0.94235 0.0
C95 C 0.20105 0.62774 0.95648 0.0
N96 N 0.23335 0.57355 0.88777 0.0
C97 C 0.26455 0.71332 1.01296 0.0
H98 H 0.96745 0.40887 0.86962 0.0
H99 H 0.95609 0.42626 0.99883 0.0
H100 H 1.01357 0.34039 0.96168 0.0
H101 H 0.32043 0.68934 1.04847 0.0
H102 H 0.22879 0.73981 1.07116 0.0
H103 H 0.29783 0.77536 0.96217 0.0
Dy104 Dy 0.11487 0.21008 0.68601 0.0
Dy105 Dy 0.9858 0.21479 0.74129 0.0
C106 C 0.16755 0.41112 0.81146 0.0
O107 O 0.09074 1.0783 0.78258 0.0
O108 O 0.98016 1.11173 0.86741 0.0
O109 O 0.25422 0.25216 0.73497 0.0
O110 O 0.2117 0.17227 0.59317 0.0
O111 O 0.98757 1.08652 0.62646 0.0
O112 O 0.98733 1.08493 0.62516 0.0
O113 O 0.02897 0.36799 0.68019 0.0
O114 O 0.10644 0.3207 0.56755 0.0
O115 O 0.85827 0.23303 0.69276 0.0
O116 O 0.89222 0.23613 0.84737 0.0
C117 C 0.03576 1.05992 0.85783 0.0
O118 O 0.11497 0.31641 0.81808 0.0
O119 O 0.11517 0.31591 0.82494 0.0
C120 C 0.35829 0.17765 0.66721 0.0
C121 C 0.49531 0.32001 0.5781 0.0
C122 C 0.4974 0.31301 0.68218 0.0
C123 C 0.42778 0.23897 0.72787 0.0
C124 C 0.38595 1.15431 0.5766 0.0
C125 C 0.44587 0.23387 0.52616 0.0
C126 C 0.2776 0.2104 0.65863 0.0
C127 C 0.98358 1.01143 0.56213 0.0
C128 C 0.0749 0.38989 0.59962 0.0
C129 C 0.7427 0.22724 0.80504 0.0
C130 C 0.64272 1.08228 0.93079 0.0
C131 C 0.65345 1.06071 0.83316 0.0
C132 C 0.68995 1.13662 0.76693 0.0
C133 C 0.72631 0.25452 0.90014 0.0
C134 C 0.678 0.1804 0.96465 0.0
C135 C 0.83821 0.25628 0.77976 0.0
H136 H 0.53948 0.37022 0.72933 0.0
H137 H 0.41527 0.24728 0.8054 0.0
H138 H 0.33926 1.09421 0.53537 0.0
H139 H 0.43961 0.23471 0.44744 0.0
H140 H 0.63554 0.98514 0.80963 0.0
H141 H 0.69438 1.12051 0.68998 0.0
H142 H 0.76368 0.32751 0.92884 0.0
H143 H 0.66815 0.19891 1.03993 0.0
Dy144 Dy 0.43763 0.21268 0.26655 0.0
Dy145 Dy 0.61161 0.19638 0.30724 0.0
C146 C 0.46764 1.00789 0.42666 0.0
O147 O 0.52424 0.35827 0.31485 0.0
O148 O 0.61754 0.31259 0.42071 0.0
O149 O 0.31439 0.23362 0.3317 0.0
O150 O 0.3465 0.26243 1.17615 0.0
O151 O 0.67161 0.34959 0.22303 0.0
O152 O 0.5338 0.30698 1.14615 0.0
O153 O 0.54938 1.11806 1.17223 0.0
O154 O 0.39667 1.07387 0.18716 0.0
O155 O 0.72922 0.16561 0.24893 0.0
O156 O 0.67277 1.10209 0.39016 0.0
C157 C 0.57881 0.37904 0.39087 0.0
O158 O 0.4768 1.09186 0.37069 0.0
O159 O 0.47502 1.08958 0.37181 0.0
C160 C 0.1927 0.22129 0.21128 0.0
C161 C 0.11796 1.07925 1.06729 0.0
C162 C 0.12813 1.05334 1.16618 0.0
C163 C 0.14965 1.12388 0.23946 0.0
C164 C 0.17226 0.2521 1.11629 0.0
C165 C 0.13525 0.18035 1.04362 0.0
C166 C 0.2886 0.26257 0.24601 0.0
C167 C 0.61858 0.37271 1.15427 0.0
C168 C 0.46766 1.05073 1.16106 0.0
C169 C 0.83369 0.16013 0.37216 0.0
C170 C 0.96844 0.3332 0.42946 0.0
C171 C 0.97449 0.29351 0.33627 0.0
C172 C 0.90859 0.20386 0.30913 0.0
C173 C 0.8369 0.19283 0.4686 0.0
C174 C 0.90261 0.27899 0.49429 0.0
C175 C 0.74209 1.1191 0.3292 0.0
H176 H 0.12236 0.97798 0.18624 0.0
H177 H 0.15361 1.10161 0.31528 0.0
H178 H 0.20121 0.32933 1.09342 0.0
H179 H 0.13243 0.20485 0.96853 0.0
H180 H 1.02088 0.33404 0.28027 0.0
H181 H 0.90691 0.17925 0.23346 0.0
H182 H 0.7787 0.1659 0.51765 0.0
H183 H 0.8927 0.31744 0.55715 0.0
Dy184 Dy 0.49963 0.64024 0.711 0.0
Dy185 Dy 0.50881 0.77713 0.77207 0.0
C186 C 0.55967 0.63252 0.93181 0.0
O187 O 0.34893 0.55883 0.76866 0.0
O188 O 0.3817 0.69156 0.863 0.0
O189 O 0.63922 0.6581 0.76208 0.0
O190 O 0.55816 0.52884 0.67601 0.0
O191 O 0.42915 0.73985 0.61876 0.0
O192 O 0.42312 0.73584 0.6159 0.0
O193 O 0.65261 0.83048 0.70205 0.0
O194 O 0.59563 0.72007 0.58514 0.0
O195 O 0.5072 0.92095 0.7143 0.0
O196 O 0.46748 0.87393 0.86525 0.0
C197 C 0.32074 0.6058 0.84022 0.0
O198 O 0.49484 0.58285 0.87063 0.0
O199 O 0.5895 0.72875 0.90598 0.0
C200 C 0.72294 0.57188 0.67626 0.0
C201 C 0.88182 0.56104 0.58231 0.0
C202 C 0.88164 0.65107 0.62345 0.0
C203 C 0.80299 0.65585 0.67286 0.0
C204 C 0.72765 0.48123 0.64347 0.0
C205 C 0.80632 0.47552 0.59966 0.0
C206 C 0.63712 0.57386 0.72164 0.0
C207 C 0.44427 0.8173 0.55506 0.0
C208 C 0.66545 0.79689 0.61417 0.0
C209 C 0.36119 0.91744 0.76582 0.0
C210 C 0.18565 0.89065 0.83199 0.0
C211 C 0.20559 0.80928 0.79401 0.0
C212 C 0.29353 0.82381 0.75664 0.0
C213 C 0.33454 0.99828 0.7854 0.0
C214 C 0.24593 0.98707 0.81343 0.0
C215 C 0.45656 0.92629 0.78864 0.0
H216 H 0.94125 0.71692 0.61625 0.0
H217 H 0.80416 0.72532 0.70589 0.0
H218 H 0.67164 0.41342 0.65226 0.0
H219 H 0.80599 0.40306 0.57819 0.0
H220 H 0.1587 0.73512 0.8048 0.0
H221 H 0.31116 0.76006 0.73461 0.0
H222 H 0.38615 1.0673 0.795 0.0
H223 H 0.23264 1.05225 0.84148 0.0
Dy224 Dy 0.98359 0.76788 0.20516 0.0
Dy225 Dy 1.00007 0.64099 0.25412 0.0
C226 C 0.95074 0.82346 0.41823 0.0
O227 O 0.1288 0.83013 0.2827 0.0
O228 O 0.08813 0.70528 0.3885 0.0
O229 O 0.96736 0.91185 0.22775 0.0
O230 O 0.96019 0.85197 1.08041 0.0
O231 O 0.0513 0.68839 1.09367 0.0
O232 O 0.05726 0.69537 1.08683 0.0
O233 O 0.85846 0.53584 1.18346 0.0
O234 O 0.83126 0.67813 1.18068 0.0
O235 O 0.13901 0.64971 0.22162 0.0
O236 O 0.04545 0.51075 0.27969 0.0
C237 C 0.1504 0.78941 0.36527 0.0
O238 O 0.93046 0.74182 0.36404 0.0
O239 O 0.92751 0.73659 0.36297 0.0
C240 C 0.85952 0.94295 1.11544 0.0
C241 C 0.67748 0.93942 1.0741 0.0
C242 C 0.71096 0.94604 1.172 0.0
C243 C 0.8007 0.94627 0.19282 0.0
C244 C 0.82886 0.94482 1.01755 0.0
C245 C 0.73744 0.9372 0.99765 0.0
C246 C 0.94514 0.92012 1.13536 0.0
C247 C 0.04314 0.60538 1.044 0.0
C248 C 0.79743 0.58257 1.16226 0.0
C249 C 0.2135 0.55094 0.30303 0.0
C250 C 0.37526 0.53524 0.39644 0.0
C251 C 0.37519 0.62633 0.35553 0.0
C252 C 0.29529 0.63373 0.30795 0.0
C253 C 0.21687 0.45929 0.33842 0.0
C254 C 0.29664 0.45159 0.38348 0.0
C255 C 0.13008 0.55933 0.25091 0.0
H256 H 0.66859 0.95116 0.23305 0.0
H257 H 0.82272 0.94622 0.26942 0.0
H258 H 0.8705 0.93761 0.95646 0.0
H259 H 0.7131 0.92548 0.92235 0.0
H260 H 0.43531 0.69174 0.36292 0.0
H261 H 0.29698 0.70538 0.27769 0.0
H262 H 0.15933 0.39275 0.33096 0.0
H263 H 0.29634 0.37944 0.40972 0.0
loop_
_geom_bond_atom_site_label_1
_geom_bond_atom_site_label_2
_geom_bond_distance
_geom_bond_site_symmetry_2
_ccdc_geom_bond_type
C0 N1 1.317 . S
C0 N2 1.348 . S
C0 C3 1.485 . S
N1 C0 1.317 . S
N1 N5 1.370 . S
N2 C0 1.348 . S
N2 C4 1.346 . S
C3 C0 1.485 . S
C3 H7 0.960 . S
C3 H8 0.961 . S
C3 H9 0.960 . S
C4 N2 1.346 . S
C4 N5 1.307 . S
C4 C6 1.486 . S
N5 N1 1.370 . S
N5 C4 1.307 . S
C6 C4 1.486 . S
C6 H10 0.960 . S
C6 H11 0.960 . S
C6 H12 0.959 . S
H7 C3 0.960 . S
H8 C3 0.961 . S
H9 C3 0.960 . S
H10 C6 0.960 . S
H11 C6 0.960 . S
H12 C6 0.959 . S
C13 N14 1.317 . S
C13 N15 1.348 1_655 S
C13 C16 1.485 . S
N14 C13 1.317 . S
N14 N18 1.370 1_655 S
N15 C13 1.348 1_455 S
N15 C17 1.346 . S
C16 C13 1.485 . S
C16 H20 0.960 . S
C16 H21 0.961 . S
C16 H22 0.960 . S
C17 N15 1.346 . S
C17 N18 1.307 . S
C17 C19 1.486 . S
N18 N14 1.370 1_455 S
N18 C17 1.307 . S
C19 C17 1.486 . S
C19 H23 0.960 . S
C19 H24 0.960 . S
C19 H25 0.959 . S
H20 C16 0.960 . S
H21 C16 0.961 . S
H22 C16 0.960 . S
H23 C19 0.960 . S
H24 C19 0.960 . S
H25 C19 0.959 . S
C26 N27 1.317 . S
C26 N28 1.348 . S
C26 C29 1.485 . S
N27 C26 1.317 . S
N27 N31 1.370 . S
N28 C26 1.348 . S
N28 C30 1.346 . S
C29 C26 1.485 . S
C29 H33 0.960 . S
C29 H34 0.961 . S
C29 H35 0.960 . S
C30 N28 1.346 . S
C30 N31 1.307 . S
C30 C32 1.486 . S
N31 N27 1.370 . S
N31 C30 1.307 . S
C32 C30 1.486 . S
C32 H36 0.960 . S
C32 H37 0.960 . S
C32 H38 0.959 . S
H33 C29 0.960 . S
H34 C29 0.961 . S
H35 C29 0.960 . S
H36 C32 0.960 . S
H37 C32 0.960 . S
H38 C32 0.959 . S
C39 N40 1.317 . S
C39 N41 1.348 . S
C39 C42 1.485 . S
N40 C39 1.317 . S
N40 N44 1.370 . S
N41 C39 1.348 . S
N41 C43 1.346 . S
C42 C39 1.485 . S
C42 H46 0.960 . S
C42 H47 0.961 . S
C42 H48 0.960 . S
C43 N41 1.346 . S
C43 N44 1.307 . S
C43 C45 1.486 . S
N44 N40 1.370 . S
N44 C43 1.307 . S
C45 C43 1.486 . S
C45 H49 0.960 . S
C45 H50 0.960 . S
C45 H51 0.959 . S
H46 C42 0.960 . S
H47 C42 0.961 . S
H48 C42 0.960 . S
H49 C45 0.960 . S
H50 C45 0.960 . S
H51 C45 0.959 . S
C52 N53 1.317 . S
C52 N54 1.348 . S
C52 C55 1.485 1_556 S
N53 C52 1.317 . S
N53 N57 1.370 . S
N54 C52 1.348 . S
N54 C56 1.346 . S
C55 C52 1.485 1_554 S
C55 H59 0.960 . S
C55 H60 0.961 . S
C55 H61 0.960 . S
C56 N54 1.346 . S
C56 N57 1.307 . S
C56 C58 1.486 . S
N57 N53 1.370 . S
N57 C56 1.307 . S
C58 C56 1.486 . S
C58 H62 0.960 . S
C58 H63 0.960 . S
C58 H64 0.959 . S
H59 C55 0.960 . S
H60 C55 0.961 . S
H61 C55 0.960 . S
H62 C58 0.960 . S
H63 C58 0.960 . S
H64 C58 0.959 . S
C65 N66 1.317 . S
C65 N67 1.348 1_455 S
C65 C68 1.485 . S
N66 C65 1.317 . S
N66 N70 1.370 1_455 S
N67 C65 1.348 1_655 S
N67 C69 1.346 . S
C68 C65 1.485 . S
C68 H72 0.960 . S
C68 H73 0.961 . S
C68 H74 0.960 . S
C69 N67 1.346 . S
C69 N70 1.307 . S
C69 C71 1.486 . S
N70 N66 1.370 1_655 S
N70 C69 1.307 . S
C71 C69 1.486 . S
C71 H75 0.960 . S
C71 H76 0.960 . S
C71 H77 0.959 . S
H72 C68 0.960 . S
H73 C68 0.961 . S
H74 C68 0.960 . S
H75 C71 0.960 . S
H76 C71 0.960 . S
H77 C71 0.959 . S
C78 N79 1.317 . S
C78 N80 1.348 . S
C78 C81 1.485 . S
N79 C78 1.317 . S
N79 N83 1.370 . S
N80 C78 1.348 . S
N80 C82 1.346 . S
C81 C78 1.485 . S
C81 H85 0.960 . S
C81 H86 0.961 . S
C81 H87 0.960 . S
C82 N80 1.346 . S
C82 N83 1.307 . S
C82 C84 1.486 . S
N83 N79 1.370 . S
N83 C82 1.307 . S
C84 C82 1.486 . S
C84 H88 0.960 . S
C84 H89 0.960 . S
C84 H90 0.959 . S
H85 C81 0.960 . S
H86 C81 0.961 . S
H87 C81 0.960 . S
H88 C84 0.960 . S
H89 C84 0.960 . S
H90 C84 0.959 . S
C91 N92 1.317 . S
C91 N93 1.348 . S
C91 C94 1.485 1_455 S
N92 C91 1.317 . S
N92 N96 1.370 . S
N93 C91 1.348 . S
N93 C95 1.346 . S
C94 C91 1.485 1_655 S
C94 H98 0.960 . S
C94 H99 0.961 . S
C94 H100 0.960 . S
C95 N93 1.346 . S
C95 N96 1.307 . S
C95 C97 1.486 . S
N96 N92 1.370 . S
N96 C95 1.307 . S
C97 C95 1.486 . S
C97 H101 0.960 . S
C97 H102 0.960 . S
C97 H103 0.959 . S
H98 C94 0.960 . S
H99 C94 0.961 . S
H100 C94 0.960 . S
H101 C97 0.960 . S
H102 C97 0.960 . S
H103 C97 0.959 . S
Dy104 O107 2.307 1_545 S
Dy104 O109 2.395 . S
Dy104 O110 2.379 . S
Dy104 O112 2.339 1_545 S
Dy104 O114 2.298 . S
Dy104 O118 2.275 . S
Dy104 C126 2.738 . S
Dy105 O108 2.298 1_645 S
Dy105 O111 2.275 1_545 S
Dy105 O113 2.307 . S
Dy105 O115 2.395 1_545 S
Dy105 O116 2.379 1_545 S
Dy105 O119 2.339 1_655 S
Dy105 C135 2.738 1_545 S
C106 O118 1.254 . S
C106 O119 1.257 . S
O107 Dy104 2.307 1_565 S
O107 C117 1.266 . S
O108 Dy105 2.298 1_465 S
O108 C117 1.236 . S
O109 Dy104 2.395 . S
O109 C126 1.255 . S
O110 Dy104 2.379 . S
O110 C126 1.249 . S
O111 Dy105 2.275 1_565 S
O111 C127 1.254 . S
O112 Dy104 2.339 1_565 S
O112 C127 1.257 1_455 S
O113 Dy105 2.307 . S
O113 C128 1.266 1_655 S
O114 Dy104 2.298 . S
O114 C128 1.236 . S
O115 Dy105 2.395 1_565 S
O115 C135 1.255 . S
O116 Dy105 2.379 1_565 S
O116 C135 1.249 . S
C117 O107 1.266 . S
C117 O108 1.236 . S
O118 Dy104 2.275 . S
O118 C106 1.254 . S
O119 Dy105 2.339 1_455 S
O119 C106 1.257 . S
C120 C123 1.344 . S
C120 C124 1.328 . S
C120 C126 1.516 . S
C121 C122 1.304 . S
C121 C125 1.323 . S
C122 C121 1.304 . S
C122 C123 1.371 . S
C122 H136 0.930 . S
C123 C120 1.344 . S
C123 C122 1.371 . S
C123 H137 0.931 . S
C124 C120 1.328 . S
C124 C125 1.433 . S
C124 H138 0.931 . S
C125 C121 1.323 . S
C125 C124 1.433 . S
C125 H139 0.933 . S
C126 Dy104 2.738 . S
C126 O109 1.255 . S
C126 O110 1.249 . S
C126 C120 1.516 . S
C127 O111 1.254 . S
C127 O112 1.257 1_655 S
C128 O113 1.266 1_455 S
C128 O114 1.236 . S
C129 C132 1.344 . S
C129 C133 1.328 . S
C129 C135 1.516 . S
C130 C131 1.304 . S
C130 C134 1.323 . S
C131 C130 1.304 . S
C131 C132 1.371 . S
C131 H140 0.930 . S
C132 C129 1.344 . S
C132 C131 1.371 . S
C132 H141 0.931 . S
C133 C129 1.328 . S
C133 C134 1.433 . S
C133 H142 0.931 . S
C134 C130 1.323 . S
C134 C133 1.433 . S
C134 H143 0.933 . S
C135 Dy105 2.738 1_565 S
C135 O115 1.255 . S
C135 O116 1.249 . S
C135 C129 1.516 . S
H136 C122 0.930 . S
H137 C123 0.931 . S
H138 C124 0.931 . S
H139 C125 0.933 . S
H140 C131 0.930 . S
H141 C132 0.931 . S
H142 C133 0.931 . S
H143 C134 0.933 . S
Dy144 O147 2.307 . S
Dy144 O149 2.395 1_545 S
Dy144 O150 2.379 1_554 S
Dy144 O152 2.339 1_554 S
Dy144 O154 2.298 1_544 S
Dy144 O158 2.275 1_545 S
Dy144 C166 2.738 1_544 S
Dy145 O148 2.298 . S
Dy145 O151 2.275 . S
Dy145 O153 2.307 1_545 S
Dy145 O155 2.395 . S
Dy145 O156 2.379 . S
Dy145 O159 2.339 1_545 S
Dy145 C175 2.738 . S
C146 O158 1.254 . S
C146 O159 1.257 . S
O147 Dy144 2.307 . S
O147 C157 1.266 . S
O148 Dy145 2.298 . S
O148 C157 1.236 . S
O149 Dy144 2.395 1_565 S
O149 C166 1.255 1_554 S
O150 Dy144 2.379 1_556 S
O150 C166 1.249 1_545 S
O151 Dy145 2.275 . S
O151 C167 1.254 . S
O152 Dy144 2.339 1_556 S
O152 C167 1.257 1_556 S
O153 Dy145 2.307 1_565 S
O153 C168 1.266 1_554 S
O154 Dy144 2.298 1_566 S
O154 C168 1.236 . S
O155 Dy145 2.395 . S
O155 C175 1.255 . S
O156 Dy145 2.379 . S
O156 C175 1.249 . S
C157 O147 1.266 . S
C157 O148 1.236 . S
O158 Dy144 2.275 1_565 S
O158 C146 1.254 . S
O159 Dy145 2.339 1_565 S
O159 C146 1.257 . S
C160 C163 1.344 . S
C160 C164 1.328 . S
C160 C166 1.516 . S
C161 C162 1.304 1_655 S
C161 C165 1.323 1_655 S
C162 C161 1.304 1_455 S
C162 C163 1.371 . S
C162 H176 0.930 1_455 S
C163 C160 1.344 . S
C163 C162 1.371 . S
C163 H177 0.931 . S
C164 C160 1.328 . S
C164 C165 1.437 . S
C164 H178 0.931 . S
C165 C161 1.323 1_455 S
C165 C164 1.437 . S
C165 H179 0.928 1_455 S
C166 Dy144 2.738 1_566 S
C166 O149 1.255 1_556 S
C166 O150 1.249 1_565 S
C166 C160 1.516 . S
C167 O151 1.254 . S
C167 O152 1.257 1_554 S
C168 O153 1.266 1_556 S
C168 O154 1.236 . S
C169 C172 1.344 . S
C169 C173 1.328 . S
C169 C175 1.516 . S
C170 C171 1.304 . S
C170 C174 1.323 . S
C171 C170 1.304 . S
C171 C172 1.371 . S
C171 H180 0.930 . S
C172 C169 1.344 . S
C172 C171 1.371 . S
C172 H181 0.931 . S
C173 C169 1.328 . S
C173 C174 1.433 . S
C173 H182 0.931 . S
C174 C170 1.323 . S
C174 C173 1.433 . S
C174 H183 0.933 . S
C175 Dy145 2.738 . S
C175 O155 1.255 . S
C175 O156 1.249 . S
C175 C169 1.516 . S
H176 C162 0.930 1_655 S
H177 C163 0.931 . S
H178 C164 0.931 . S
H179 C165 0.928 1_655 S
H180 C171 0.930 . S
H181 C172 0.931 . S
H182 C173 0.931 . S
H183 C174 0.933 . S
Dy184 O187 2.307 . S
Dy184 O189 2.395 . S
Dy184 O190 2.379 . S
Dy184 O192 2.339 . S
Dy184 O194 2.298 . S
Dy184 O198 2.275 . S
Dy184 C206 2.738 . S
Dy185 O188 2.298 . S
Dy185 O191 2.275 . S
Dy185 O193 2.307 . S
Dy185 O195 2.395 . S
Dy185 O196 2.379 . S
Dy185 O199 2.339 . S
Dy185 C215 2.738 . S
C186 O198 1.254 . S
C186 O199 1.257 . S
O187 Dy184 2.307 . S
O187 C197 1.266 . S
O188 Dy185 2.298 . S
O188 C197 1.236 . S
O189 Dy184 2.395 . S
O189 C206 1.255 . S
O190 Dy184 2.379 . S
O190 C206 1.249 . S
O191 Dy185 2.275 . S
O191 C207 1.254 . S
O192 Dy184 2.339 . S
O192 C207 1.257 . S
O193 Dy185 2.307 . S
O193 C208 1.266 . S
O194 Dy184 2.298 . S
O194 C208 1.236 . S
O195 Dy185 2.395 . S
O195 C215 1.255 . S
O196 Dy185 2.379 . S
O196 C215 1.249 . S
C197 O187 1.266 . S
C197 O188 1.236 . S
O198 Dy184 2.275 . S
O198 C186 1.254 . S
O199 Dy185 2.339 . S
O199 C186 1.257 . S
C200 C203 1.344 . S
C200 C204 1.328 . S
C200 C206 1.516 . S
C201 C202 1.304 . S
C201 C205 1.323 . S
C202 C201 1.304 . S
C202 C203 1.371 . S
C202 H216 0.930 . S
C203 C200 1.344 . S
C203 C202 1.371 . S
C203 H217 0.931 . S
C204 C200 1.328 . S
C204 C205 1.433 . S
C204 H218 0.931 . S
C205 C201 1.323 . S
C205 C204 1.433 . S
C205 H219 0.933 . S
C206 Dy184 2.738 . S
C206 O189 1.255 . S
C206 O190 1.249 . S
C206 C200 1.516 . S
C207 O191 1.254 . S
C207 O192 1.257 . S
C208 O193 1.266 . S
C208 O194 1.236 . S
C209 C212 1.344 . S
C209 C213 1.328 . S
C209 C215 1.516 . S
C210 C211 1.304 . S
C210 C214 1.323 . S
C211 C210 1.304 . S
C211 C212 1.371 . S
C211 H220 0.930 . S
C212 C209 1.344 . S
C212 C211 1.371 . S
C212 H221 0.931 . S
C213 C209 1.328 . S
C213 C214 1.433 . S
C213 H222 0.931 . S
C214 C210 1.323 . S
C214 C213 1.433 . S
C214 H223 0.933 . S
C215 Dy185 2.738 . S
C215 O195 1.255 . S
C215 O196 1.249 . S
C215 C209 1.516 . S
H216 C202 0.930 . S
H217 C203 0.931 . S
H218 C204 0.931 . S
H219 C205 0.933 . S
H220 C211 0.930 . S
H221 C212 0.931 . S
H222 C213 0.931 . S
H223 C214 0.933 . S
Dy224 O227 2.307 1_656 S
Dy224 O229 2.395 . S
Dy224 O230 2.379 . S
Dy224 O232 2.339 1_655 S
Dy224 O234 2.298 . S
Dy224 O238 2.275 1_556 S
Dy224 C246 2.738 . S
Dy225 O228 2.298 . S
Dy225 O231 2.275 1_554 S
Dy225 O233 2.307 1_455 S
Dy225 O235 2.395 . S
Dy225 O236 2.379 . S
Dy225 O239 2.339 1_455 S
Dy225 C255 2.738 . S
C226 O238 1.254 . S
C226 O239 1.257 . S
O227 Dy224 2.307 1_454 S
O227 C237 1.266 . S
O228 Dy225 2.298 . S
O228 C237 1.236 . S
O229 Dy224 2.395 . S
O229 C246 1.255 . S
O230 Dy224 2.379 . S
O230 C246 1.249 . S
O231 Dy225 2.275 1_556 S
O231 C247 1.254 . S
O232 Dy224 2.339 1_455 S
O232 C247 1.257 . S
O233 Dy225 2.307 1_655 S
O233 C248 1.266 1_554 S
O234 Dy224 2.298 . S
O234 C248 1.236 . S
O235 Dy225 2.395 . S
O235 C255 1.255 . S
O236 Dy225 2.379 . S
O236 C255 1.249 . S
C237 O227 1.266 . S
C237 O228 1.236 . S
O238 Dy224 2.275 1_554 S
O238 C226 1.254 . S
O239 Dy225 2.339 1_655 S
O239 C226 1.257 . S
C240 C243 1.344 . S
C240 C244 1.328 . S
C240 C246 1.516 . S
C241 C242 1.304 . S
C241 C245 1.323 . S
C242 C241 1.304 . S
C242 C243 1.371 . S
C242 H256 0.930 . S
C243 C240 1.344 . S
C243 C242 1.371 . S
C243 H257 0.931 . S
C244 C240 1.328 . S
C244 C245 1.433 . S
C244 H258 0.931 . S
C245 C241 1.323 . S
C245 C244 1.433 . S
C245 H259 0.933 . S
C246 Dy224 2.738 . S
C246 O229 1.255 . S
C246 O230 1.249 . S
C246 C240 1.516 . S
C247 O231 1.254 . S
C247 O232 1.257 . S
C248 O233 1.266 1_556 S
C248 O234 1.236 . S
C249 C252 1.344 . S
C249 C253 1.328 . S
C249 C255 1.516 . S
C250 C251 1.304 . S
C250 C254 1.323 . S
C251 C250 1.304 . S
C251 C252 1.371 . S
C251 H260 0.930 . S
C252 C249 1.344 . S
C252 C251 1.371 . S
C252 H261 0.931 . S
C253 C249 1.328 . S
C253 C254 1.433 . S
C253 H262 0.931 . S
C254 C250 1.323 . S
C254 C253 1.433 . S
C254 H263 0.933 . S
C255 Dy225 2.738 . S
C255 O235 1.255 . S
C255 O236 1.249 . S
C255 C249 1.516 . S
H256 C242 0.930 . S
H257 C243 0.931 . S
H258 C244 0.931 . S
H259 C245 0.933 . S
H260 C251 0.930 . S
H261 C252 0.931 . S
H262 C253 0.931 . S
H263 C254 0.933 . S
N1 C121 1.418 . S
N18 C161 1.670 1_455 S
C186 N28 3.355 . S
N40 C226 4.271 . S
C157 N5 2.615 . S
C117 N14 1.854 1_455 S
C248 N31 2.646 . S
C208 N41 2.282 . S
N2 C250 1.711 . S
C167 N27 3.638 1_554 S
N44 C127 3.709 . S
N15 C210 1.700 . S
C130 N57 2.035 . S
N70 C170 0.811 . S
N79 C207 3.765 . S
N93 C247 3.980 . S
N54 C168 2.272 . S
C128 N66 2.394 . S
C237 N80 2.439 . S
C197 N96 2.602 . S
N53 C241 2.841 . S
C146 N83 3.214 . S
C106 N92 4.012 . S
N67 C201 2.438 . S
