# Generated by pormake.
# Topology pto, (3,4)-cn, num edge types: 1
# Building blocks:
#     Node 0, Type 0, BuildingBlock: BETDAH_clean_linker_0, # of connection points: 3
#     Node 1, Type 0, BuildingBlock: BETDAH_clean_linker_0, # of connection points: 3
#     Node 2, Type 0, BuildingBlock: BETDAH_clean_linker_0, # of connection points: 3
#     Node 3, Type 0, BuildingBlock: BETDAH_clean_linker_0, # of connection points: 3
#     Node 4, Type 0, BuildingBlock: BETDAH_clean_linker_0, # of connection points: 3
#     Node 5, Type 0, BuildingBlock: BETDAH_clean_linker_0, # of connection points: 3
#     Node 6, Type 0, BuildingBlock: BETDAH_clean_linker_0, # of connection points: 3
#     Node 7, Type 0, BuildingBlock: BETDAH_clean_linker_0, # of connection points: 3
#     Node 8, Type 1, BuildingBlock: KOZSID_clean_sbu_0, # of connection points: 4
#     Node 9, Type 1, BuildingBlock: KOZSID_clean_sbu_0, # of connection points: 4
#     Node 10, Type 1, BuildingBlock: KOZSID_clean_sbu_0, # of connection points: 4
#     Node 11, Type 1, BuildingBlock: KOZSID_clean_sbu_0, # of connection points: 4
#     Node 12, Type 1, BuildingBlock: KOZSID_clean_sbu_0, # of connection points: 4
#     Node 13, Type 1, BuildingBlock: KOZSID_clean_sbu_0, # of connection points: 4
#     Edge 14, Type (0, 1), BuildingBlock: XIVTED_clean_linker_0, # of connection points: 2
#     Edge 15, Type (0, 1), BuildingBlock: XIVTED_clean_linker_0, # of connection points: 2
#     Edge 16, Type (0, 1), BuildingBlock: XIVTED_clean_linker_0, # of connection points: 2
#     Edge 17, Type (0, 1), BuildingBlock: XIVTED_clean_linker_0, # of connection points: 2
#     Edge 18, Type (0, 1), BuildingBlock: XIVTED_clean_linker_0, # of connection points: 2
#     Edge 19, Type (0, 1), BuildingBlock: XIVTED_clean_linker_0, # of connection points: 2
#     Edge 20, Type (0, 1), BuildingBlock: XIVTED_clean_linker_0, # of connection points: 2
#     Edge 21, Type (0, 1), BuildingBlock: XIVTED_clean_linker_0, # of connection points: 2
#     Edge 22, Type (0, 1), BuildingBlock: XIVTED_clean_linker_0, # of connection points: 2
#     Edge 23, Type (0, 1), BuildingBlock: XIVTED_clean_linker_0, # of connection points: 2
#     Edge 24, Type (0, 1), BuildingBlock: XIVTED_clean_linker_0, # of connection points: 2
#     Edge 25, Type (0, 1), BuildingBlock: XIVTED_clean_linker_0, # of connection points: 2
#     Edge 26, Type (0, 1), BuildingBlock: XIVTED_clean_linker_0, # of connection points: 2
#     Edge 27, Type (0, 1), BuildingBlock: XIVTED_clean_linker_0, # of connection points: 2
#     Edge 28, Type (0, 1), BuildingBlock: XIVTED_clean_linker_0, # of connection points: 2
#     Edge 29, Type (0, 1), BuildingBlock: XIVTED_clean_linker_0, # of connection points: 2
#     Edge 30, Type (0, 1), BuildingBlock: XIVTED_clean_linker_0, # of connection points: 2
#     Edge 31, Type (0, 1), BuildingBlock: XIVTED_clean_linker_0, # of connection points: 2
#     Edge 32, Type (0, 1), BuildingBlock: XIVTED_clean_linker_0, # of connection points: 2
#     Edge 33, Type (0, 1), BuildingBlock: XIVTED_clean_linker_0, # of connection points: 2
#     Edge 34, Type (0, 1), BuildingBlock: XIVTED_clean_linker_0, # of connection points: 2
#     Edge 35, Type (0, 1), BuildingBlock: XIVTED_clean_linker_0, # of connection points: 2
#     Edge 36, Type (0, 1), BuildingBlock: XIVTED_clean_linker_0, # of connection points: 2
#     Edge 37, Type (0, 1), BuildingBlock: XIVTED_clean_linker_0, # of connection points: 2
# Relax obj value: 0.010
# Max RMSD: 0.120
# Mean RMSD: 0.061
data_MOF--net-pto--node1-KOZSID_clean_sbu_0--node2-BETDAH_clean_linker_0--edge1-XIVTED_clean_linker_0
_symmetry_space_group_name_H-M    P1
_symmetry_Int_Tables_number       1
_symmetry_cell_setting            triclinic
loop_
_symmetry_equiv_pos_as_xyz
'x, y, z'
_cell_length_a     38.617963
_cell_length_b     50.245822
_cell_length_c     45.082338
_cell_angle_alpha  102.52315
_cell_angle_beta   93.708037
_cell_angle_gamma 103.68859
loop_
_atom_site_label
_atom_site_type_symbol
_atom_site_fract_x
_atom_site_fract_y
_atom_site_fract_z
_atom_type_partial_charge
H0 H 0.34419 0.23135 0.4099 0.0
H1 H 0.32629 0.31434 0.42877 0.0
H2 H 0.3096 0.26507 0.49586 0.0
C3 C 0.33588 0.24801 0.42499 0.0
C4 C 0.32666 0.24489 0.45392 0.0
C5 C 0.33617 0.2731 0.41593 0.0
C6 C 0.32614 0.29497 0.4357 0.0
C7 C 0.31642 0.29193 0.46454 0.0
C8 C 0.31731 0.26718 0.47362 0.0
N9 N 0.30594 0.31344 0.48508 0.0
C10 C 0.28965 0.33249 0.4755 0.0
H11 H 0.25255 0.73473 0.79649 0.0
H12 H 0.30573 0.79025 0.74339 0.0
H13 H 0.21246 0.72301 0.70216 0.0
C14 C 0.25386 0.74169 0.77535 0.0
C15 C 0.2288 0.72655 0.74983 0.0
C16 C 0.2821 0.76438 0.77311 0.0
C17 C 0.28402 0.77279 0.74531 0.0
C18 C 0.25851 0.75803 0.71979 0.0
C19 C 0.23163 0.73463 0.72205 0.0
N20 N 0.2597 0.76545 0.6912 0.0
C21 C 0.27493 0.79241 0.6878 0.0
H22 H 0.86005 0.74211 0.39674 0.0
H23 H 0.78995 0.76076 0.33002 0.0
H24 H 0.82856 0.68643 0.30727 0.0
C25 C 0.84476 0.73659 0.3743 0.0
C26 C 0.84644 0.71195 0.35329 0.0
C27 C 0.82437 0.75445 0.36637 0.0
C28 C 0.8061 0.74753 0.33647 0.0
C29 C 0.80808 0.7231 0.31508 0.0
C30 C 0.82799 0.70552 0.32374 0.0
N31 N 0.79023 0.71504 0.28472 0.0
C32 C 0.76996 0.72999 0.27167 0.0
H33 H 0.79915 0.26825 0.83915 0.0
H34 H 0.76067 0.21056 0.89467 0.0
H35 H 0.77014 0.29895 0.92858 0.0
C36 C 0.78878 0.26431 0.85999 0.0
C37 C 0.78584 0.28711 0.88333 0.0
C38 C 0.7794 0.23654 0.8636 0.0
C39 C 0.76707 0.23172 0.89103 0.0
C40 C 0.76314 0.25391 0.91421 0.0
C41 C 0.77244 0.28166 0.91037 0.0
N42 N 0.75142 0.24743 0.94158 0.0
C43 C 0.73429 0.2634 0.96185 0.0
H44 H 0.79173 0.71003 0.84279 0.0
H45 H 0.84034 0.71971 0.76154 0.0
H46 H 0.77472 0.77407 0.79761 0.0
C47 C 0.79612 0.72072 0.82444 0.0
C48 C 0.78034 0.74312 0.8232 0.0
C49 C 0.81732 0.71168 0.80215 0.0
C50 C 0.82348 0.72591 0.77867 0.0
C51 C 0.80865 0.74851 0.77709 0.0
C52 C 0.78689 0.75705 0.79928 0.0
N53 N 0.81628 0.76172 0.75255 0.0
C54 C 0.80542 0.78507 0.74762 0.0
H55 H 0.78532 0.31264 0.43348 0.0
H56 H 0.83582 0.25736 0.47082 0.0
H57 H 0.73737 0.22323 0.40972 0.0
C58 C 0.78514 0.29159 0.43587 0.0
C59 C 0.75763 0.26853 0.41944 0.0
C60 C 0.81352 0.28778 0.4542 0.0
C61 C 0.81364 0.26048 0.45718 0.0
C62 C 0.78543 0.23724 0.44159 0.0
C63 C 0.75801 0.24144 0.42264 0.0
N64 N 0.78439 0.20905 0.44266 0.0
C65 C 0.80284 0.20067 0.46499 0.0
H66 H 0.32805 0.24677 0.84496 0.0
H67 H 0.35235 0.33701 0.87823 0.0
H68 H 0.3172 0.29948 0.78302 0.0
C69 C 0.32928 0.26745 0.84093 0.0
C70 C 0.3213 0.27004 0.81096 0.0
C71 C 0.34028 0.2914 0.86554 0.0
C72 C 0.34276 0.31816 0.85986 0.0
C73 C 0.33385 0.32095 0.83033 0.0
C74 C 0.32309 0.29698 0.80594 0.0
N75 N 0.33886 0.34823 0.82502 0.0
C76 C 0.31004 0.35839 0.8171 0.0
H77 H 0.27586 0.74357 0.36072 0.0
H78 H 0.35641 0.77261 0.30517 0.0
H79 H 0.31277 0.68368 0.29561 0.0
C80 C 0.29233 0.73908 0.34265 0.0
C81 C 0.29082 0.71093 0.32886 0.0
C82 C 0.31573 0.76151 0.33427 0.0
C83 C 0.33826 0.75549 0.31177 0.0
C84 C 0.33718 0.72727 0.29791 0.0
C85 C 0.31365 0.70529 0.30668 0.0
N86 N 0.35938 0.71993 0.27526 0.0
C87 C 0.37944 0.73837 0.26008 0.0
C88 C 0.1141 0.56441 0.43125 0.0
C89 C 0.13564 0.5868 0.45357 0.0
C90 C 0.12356 0.58418 0.48082 0.0
C91 C 0.09555 0.56041 0.47365 0.0
N92 N 0.08905 0.54757 0.44345 0.0
Co93 Co 0.0509 0.51237 0.42309 0.0
N94 N 0.03297 0.50864 0.46322 0.0
C95 C 0.04499 0.52665 0.49094 0.0
C96 C 0.02856 0.51789 0.51446 0.0
C97 C 0.00495 0.49257 0.50109 0.0
C98 C 0.00828 0.48738 0.47002 0.0
N99 N 0.01311 0.47692 0.40283 0.0
C100 C 0.99047 0.45866 0.4154 0.0
C101 C 0.96906 0.4361 0.39317 0.0
C102 C 0.97916 0.43985 0.36563 0.0
C103 C 0.00592 0.46441 0.37255 0.0
N104 N 0.06863 0.5161 0.38289 0.0
C105 C 0.05511 0.49901 0.35492 0.0
C106 C 0.07241 0.5072 0.33154 0.0
C107 C 0.09844 0.53105 0.3453 0.0
C108 C 0.09553 0.53601 0.37645 0.0
N109 N 0.08477 0.48933 0.42913 0.0
C110 C 0.133 0.45655 0.4374 0.0
C111 C 0.1128 0.45208 0.40909 0.0
C112 C 0.08903 0.46851 0.40551 0.0
C113 C 0.12861 0.47778 0.46151 0.0
C114 C 0.10456 0.49378 0.45692 0.0
N115 N 0.01717 0.53575 0.41685 0.0
C116 C 0.97661 0.54895 0.38288 0.0
C117 C 0.9767 0.5732 0.40501 0.0
C118 C 0.9958 0.57753 0.43378 0.0
C119 C 0.01553 0.55865 0.4392 0.0
C120 C 0.99664 0.53065 0.38927 0.0
H121 H 0.02989 0.56344 0.46143 0.0
H122 H 0.99554 0.51283 0.37124 0.0
H123 H 0.07439 0.46398 0.3834 0.0
H124 H 0.10229 0.50954 0.4762 0.0
C125 C 0.07423 0.55006 0.49458 0.0
C126 C 0.11818 0.56039 0.39879 0.0
C127 C 0.98901 0.46128 0.44815 0.0
C128 C 0.02615 0.4754 0.35134 0.0
H129 H 0.15765 0.60343 0.45041 0.0
H130 H 0.13376 0.5981 0.50317 0.0
H131 H 0.03418 0.52811 0.53862 0.0
H132 H 0.98805 0.47908 0.51304 0.0
H133 H 0.9487 0.41846 0.39655 0.0
H134 H 0.9689 0.42593 0.3433 0.0
H135 H 0.06663 0.49712 0.30734 0.0
H136 H 0.11721 0.54355 0.33367 0.0
H137 H 0.11552 0.43616 0.38955 0.0
H138 H 0.14321 0.4818 0.48404 0.0
H139 H 0.96135 0.54414 0.3605 0.0
H140 H 0.99662 0.59593 0.45181 0.0
C141 C 0.0634 0.5568 0.82025 0.0
C142 C 0.0845 0.57923 0.84288 0.0
C143 C 0.08068 0.57184 0.87008 0.0
C144 C 0.05778 0.54539 0.86265 0.0
N145 N 0.04693 0.5353 0.83224 0.0
Co146 Co 0.0136 0.4977 0.81159 0.0
N147 N 0.00629 0.4877 0.85178 0.0
C148 C 0.02502 0.50179 0.87928 0.0
C149 C 0.02052 0.4865 0.90109 0.0
C150 C 0.99644 0.46161 0.88682 0.0
C151 C 0.98584 0.46392 0.85767 0.0
N152 N 0.97996 0.46022 0.79126 0.0
C153 C 0.96163 0.43983 0.8039 0.0
C154 C 0.94732 0.41485 0.78184 0.0
C155 C 0.95331 0.42069 0.75412 0.0
C156 C 0.9724 0.44841 0.7609 0.0
N157 N 0.02082 0.50752 0.77125 0.0
C158 C 0.00629 0.49112 0.74318 0.0
C159 C 0.01482 0.50398 0.7198 0.0
C160 C 0.036 0.53018 0.73373 0.0
C161 C 0.03946 0.53174 0.76497 0.0
N162 N 0.05524 0.48022 0.80841 0.0
C163 C 0.11298 0.45437 0.80482 0.0
C164 C 0.08611 0.44784 0.78026 0.0
C165 C 0.05806 0.46112 0.78239 0.0
C166 C 0.11095 0.47445 0.83091 0.0
C167 C 0.08232 0.48701 0.83215 0.0
N168 N 0.97291 0.51527 0.81453 0.0
C169 C 0.92495 0.52819 0.78877 0.0
C170 C 0.92606 0.55037 0.81404 0.0
C171 C 0.94848 0.55259 0.84065 0.0
C172 C 0.97109 0.5346 0.84053 0.0
C173 C 0.94836 0.51091 0.78954 0.0
H174 H 0.98814 0.53745 0.86125 0.0
H175 H 0.94721 0.49483 0.76934 0.0
H176 H 0.03939 0.45567 0.76244 0.0
H177 H 0.08314 0.50222 0.85263 0.0
C178 C 0.04732 0.52896 0.88351 0.0
C179 C 0.0604 0.55674 0.78772 0.0
C180 C 0.95557 0.44429 0.83627 0.0
C181 C 0.98432 0.46385 0.73952 0.0
H182 H 0.10132 0.59885 0.84012 0.0
H183 H 0.09348 0.58414 0.89255 0.0
H184 H 0.03381 0.49243 0.92432 0.0
H185 H 0.98832 0.44371 0.89676 0.0
H186 H 0.93301 0.39469 0.78533 0.0
H187 H 0.94481 0.40643 0.73173 0.0
H188 H 0.00634 0.49543 0.69554 0.0
H189 H 0.04738 0.54636 0.72216 0.0
H190 H 0.08698 0.43286 0.75921 0.0
H191 H 0.13115 0.48027 0.85063 0.0
H192 H 0.9069 0.52463 0.76808 0.0
H193 H 0.95016 0.56902 0.86108 0.0
C194 C 0.3466 0.98666 0.61108 0.0
C195 C 0.37889 0.98562 0.62561 0.0
C196 C 0.40533 0.00437 0.61657 0.0
C197 C 0.38773 0.01589 0.59732 0.0
N198 N 0.3516 0.0058 0.59367 0.0
Co199 Co 0.31571 0.01727 0.56825 0.0
N200 N 0.35476 0.04303 0.55303 0.0
C201 C 0.39051 0.04611 0.55841 0.0
C202 C 0.41067 0.06522 0.54465 0.0
C203 C 0.38635 0.07517 0.52987 0.0
C204 C 0.35268 0.06161 0.53568 0.0
N205 N 0.27981 0.02984 0.54398 0.0
C206 C 0.28491 0.05058 0.52862 0.0
C207 C 0.2525 0.05413 0.5171 0.0
C208 C 0.22599 0.03507 0.52562 0.0
C209 C 0.24361 0.0212 0.54199 0.0
N210 N 0.27667 0.99053 0.58246 0.0
C211 C 0.24091 0.98507 0.57421 0.0
C212 C 0.22077 0.96439 0.58597 0.0
C213 C 0.24509 0.95578 0.60239 0.0
C214 C 0.27884 0.97194 0.59986 0.0
N215 N 0.31489 0.04841 0.60359 0.0
C216 C 0.31293 0.09612 0.64911 0.0
C217 C 0.28156 0.07515 0.6364 0.0
C218 C 0.28314 0.05164 0.61387 0.0
C219 C 0.34546 0.09219 0.6396 0.0
C220 C 0.34586 0.06829 0.61716 0.0
N221 N 0.31649 0.9862 0.53263 0.0
C222 C 0.28586 0.95041 0.48761 0.0
C223 C 0.31683 0.94102 0.48289 0.0
C224 C 0.34786 0.9551 0.50327 0.0
C225 C 0.34717 0.97752 0.5276 0.0
C226 C 0.28619 0.97258 0.51246 0.0
H227 H 0.37177 0.98727 0.54217 0.0
H228 H 0.26144 0.97815 0.51488 0.0
H229 H 0.25821 0.03668 0.60464 0.0
H230 H 0.37149 0.0666 0.61078 0.0
C231 C 0.40442 0.03375 0.57974 0.0
C232 C 0.31216 0.96805 0.61333 0.0
C233 C 0.31977 0.06825 0.52568 0.0
C234 C 0.22703 1.00009 0.55588 0.0
H235 H 0.38294 0.97215 0.64056 0.0
H236 H 0.43402 0.00838 0.62247 0.0
H237 H 0.43964 0.07204 0.54632 0.0
H238 H 0.39269 0.09122 0.51704 0.0
H239 H 0.24835 0.06926 0.50435 0.0
H240 H 0.1973 0.03206 0.52095 0.0
H241 H 0.19184 0.95635 0.58276 0.0
H242 H 0.23864 0.93919 0.61447 0.0
H243 H 0.2557 0.07723 0.64306 0.0
H244 H 0.37059 0.10754 0.64934 0.0
H245 H 0.26122 0.94074 0.47223 0.0
H246 H 0.37253 0.94855 0.50102 0.0
C247 C 0.52089 0.82 0.08301 0.0
C248 C 0.51874 0.84608 0.09973 0.0
C249 C 0.53724 0.8658 0.08569 0.0
C250 C 0.54961 0.85068 0.06132 0.0
N251 N 0.53996 0.82276 0.05923 0.0
Co252 Co 0.55279 0.79317 0.02845 0.0
N253 N 0.59321 0.82101 0.01831 0.0
C254 C 0.59822 0.84924 0.02552 0.0
C255 C 0.62902 0.86321 0.01618 0.0
C256 C 0.64398 0.84249 0.00178 0.0
C257 C 0.62114 0.81685 0.00277 0.0
N258 N 0.56489 0.76336 0.9974 0.0
C259 C 0.59438 0.7641 0.98258 0.0
C260 C 0.59014 0.73901 0.96059 0.0
C261 C 0.55692 0.72225 0.96172 0.0
C262 C 0.54256 0.73789 0.98408 0.0
N263 N 0.51249 0.76549 0.03874 0.0
C264 C 0.49559 0.73984 0.02122 0.0
C265 C 0.46888 0.72547 0.03491 0.0
C266 C 0.46912 0.74332 0.06275 0.0
C267 C 0.49608 0.76757 0.06439 0.0
N268 N 0.52039 0.79919 0.99672 0.0
C269 C 0.47215 0.80217 0.94892 0.0
C270 C 0.46141 0.80108 0.97791 0.0
C271 C 0.48599 0.79995 0.00152 0.0
C272 C 0.50814 0.80315 0.94507 0.0
C273 C 0.53155 0.80134 0.96897 0.0
N274 N 0.58498 0.78703 0.06013 0.0
C275 C 0.60412 0.75545 0.08691 0.0
C276 C 0.6268 0.77831 0.10857 0.0
C277 C 0.62874 0.80561 0.10492 0.0
C278 C 0.60763 0.8095 0.08063 0.0
C279 C 0.58364 0.76025 0.06285 0.0
H280 H 0.60909 0.83076 0.07885 0.0
H281 H 0.56618 0.74227 0.04673 0.0
H282 H 0.47684 0.79882 0.02344 0.0
H283 H 0.55853 0.80104 0.96462 0.0
C284 C 0.57635 0.86187 0.0446 0.0
C285 C 0.50414 0.79288 0.08953 0.0
C286 C 0.62463 0.78916 0.986 0.0
C287 C 0.51012 0.72827 0.99537 0.0
H288 H 0.5057 0.85042 0.12011 0.0
H289 H 0.54279 0.88851 0.09346 0.0
H290 H 0.63986 0.88578 0.02008 0.0
H291 H 0.66857 0.84592 0.99132 0.0
H292 H 0.60851 0.73356 0.94461 0.0
H293 H 0.54486 0.70109 0.94804 0.0
H294 H 0.45238 0.70411 0.02637 0.0
H295 H 0.45155 0.73902 0.07985 0.0
H296 H 0.43395 0.80012 0.98222 0.0
H297 H 0.5183 0.80489 0.92356 0.0
H298 H 0.6022 0.73396 0.08848 0.0
H299 H 0.64569 0.82392 0.12117 0.0
C300 C 0.83934 0.96688 0.65723 0.0
C301 C 0.87016 0.96397 0.67248 0.0
C302 C 0.89841 0.98286 0.66581 0.0
C303 C 0.88341 0.99613 0.64688 0.0
N304 N 0.84721 0.98695 0.64106 0.0
Co305 Co 0.81484 0.00047 0.6143 0.0
N306 N 0.85673 0.0273 0.6034 0.0
C307 C 0.89193 0.03026 0.6119 0.0
C308 C 0.91452 0.05079 0.60157 0.0
C309 C 0.89247 0.06183 0.58572 0.0
C310 C 0.85752 0.04725 0.58722 0.0
N311 N 0.78241 0.01469 0.58845 0.0
C312 C 0.79017 0.03619 0.57421 0.0
C313 C 0.75941 0.0397 0.5595 0.0
C314 C 0.73114 0.0202 0.56524 0.0
C315 C 0.74615 0.00589 0.58294 0.0
N316 N 0.77301 0.97311 0.62453 0.0
C317 C 0.73795 0.96862 0.61412 0.0
C318 C 0.71538 0.94814 0.62451 0.0
C319 C 0.7373 0.93867 0.64236 0.0
C320 C 0.77217 0.95393 0.64172 0.0
N321 N 0.8113 0.03019 0.65014 0.0
C322 C 0.80625 0.07456 0.69878 0.0
C323 C 0.77548 0.05602 0.68096 0.0
C324 C 0.77858 0.03415 0.65706 0.0
C325 C 0.83959 0.07009 0.69218 0.0
C326 C 0.84149 0.04795 0.668 0.0
N327 N 0.81833 0.97061 0.57827 0.0
C328 C 0.79042 0.93468 0.53237 0.0
C329 C 0.82191 0.92584 0.52942 0.0
C330 C 0.85188 0.94024 0.55077 0.0
C331 C 0.84965 0.96258 0.57458 0.0
C332 C 0.78915 0.95677 0.55685 0.0
H333 H 0.87357 0.97277 0.58985 0.0
H334 H 0.76403 0.96187 0.55813 0.0
H335 H 0.75413 0.02096 0.64423 0.0
H336 H 0.86768 0.04577 0.66403 0.0
C337 C 0.90276 0.01573 0.63238 0.0
C338 C 0.8035 0.94913 0.65758 0.0
C339 C 0.826 0.05412 0.57438 0.0
C340 C 0.72696 0.98439 0.59512 0.0
H341 H 0.87222 0.94929 0.68644 0.0
H342 H 0.92662 0.98598 0.67318 0.0
H343 H 0.94351 0.05772 0.60612 0.0
H344 H 0.90118 0.0792 0.57506 0.0
H345 H 0.75755 0.05499 0.54626 0.0
H346 H 0.70296 0.01709 0.55776 0.0
H347 H 0.68642 0.94094 0.61969 0.0
H348 H 0.72861 0.92229 0.65441 0.0
H349 H 0.749 0.0587 0.68489 0.0
H350 H 0.86422 0.08354 0.70565 0.0
H351 H 0.76644 0.924 0.51642 0.0
H352 H 0.87703 0.93433 0.5491 0.0
C353 C 0.45646 0.30959 0.2133 0.0
C354 C 0.44961 0.33478 0.22796 0.0
C355 C 0.47293 0.35577 0.21912 0.0
C356 C 0.49239 0.34224 0.19949 0.0
N357 N 0.48245 0.31381 0.19476 0.0
Co358 Co 0.50367 0.2859 0.16818 0.0
N359 N 0.54131 0.31691 0.15849 0.0
C360 C 0.54586 0.34503 0.16894 0.0
C361 C 0.57364 0.36112 0.15801 0.0
C362 C 0.58755 0.34219 0.13926 0.0
C363 C 0.56737 0.31553 0.13987 0.0
N364 N 0.52467 0.25795 0.14129 0.0
C365 C 0.55194 0.26219 0.12394 0.0
C366 C 0.55747 0.23688 0.1081 0.0
C367 C 0.53245 0.21587 0.11528 0.0
C368 C 0.51321 0.22947 0.13507 0.0
N369 N 0.46635 0.25493 0.17835 0.0
C370 C 0.4616 0.2268 0.16777 0.0
C371 C 0.43583 0.21075 0.18061 0.0
C372 C 0.42377 0.2297 0.20107 0.0
C373 C 0.44277 0.25639 0.19934 0.0
N374 N 0.47113 0.28564 0.132 0.0
C375 C 0.43209 0.28502 0.07667 0.0
C376 C 0.43305 0.25994 0.08486 0.0
C377 C 0.45237 0.26073 0.11243 0.0
C378 C 0.44937 0.31045 0.09741 0.0
C379 C 0.46847 0.31027 0.12474 0.0
N380 N 0.53624 0.28609 0.20413 0.0
C381 C 0.56375 0.26084 0.23467 0.0
C382 C 0.58187 0.286 0.25544 0.0
C383 C 0.57674 0.31126 0.25012 0.0
C384 C 0.55387 0.31082 0.22458 0.0
C385 C 0.54138 0.26137 0.20938 0.0
H386 H 0.55075 0.33071 0.22187 0.0
H387 H 0.52858 0.24148 0.19437 0.0
H388 H 0.45229 0.24086 0.11699 0.0
H389 H 0.48158 0.33034 0.13918 0.0
C390 C 0.52228 0.35567 0.18751 0.0
C391 C 0.43936 0.28249 0.21938 0.0
C392 C 0.57283 0.28964 0.1212 0.0
C393 C 0.48397 0.21612 0.14784 0.0
H394 H 0.43053 0.3377 0.24416 0.0
H395 H 0.47626 0.37827 0.22702 0.0
H396 H 0.58216 0.3839 0.16254 0.0
H397 H 0.60956 0.34744 0.1261 0.0
H398 H 0.57734 0.23391 0.09269 0.0
H399 H 0.52849 0.19336 0.10683 0.0
H400 H 0.42788 0.18799 0.17659 0.0
H401 H 0.4041 0.22424 0.2162 0.0
H402 H 0.4193 0.23968 0.06989 0.0
H403 H 0.44942 0.33048 0.09213 0.0
H404 H 0.56729 0.24076 0.23756 0.0
H405 H 0.58999 0.33129 0.26575 0.0
H406 H 0.23142 0.31787 0.43364 0.0
H407 H 0.19976 0.47315 0.47094 0.0
H408 H 0.30225 0.38869 0.49852 0.0
H409 H 0.12353 0.39982 0.41382 0.0
H410 H 0.23993 0.44356 0.47845 0.0
H411 H 0.1942 0.3487 0.42247 0.0
C412 C 0.23921 0.34006 0.44524 0.0
C413 C 0.26969 0.35101 0.46688 0.0
C414 C 0.21445 0.43397 0.4642 0.0
C415 C 0.22743 0.38623 0.45468 0.0
C416 C 0.19137 0.45083 0.46006 0.0
C417 C 0.1581 0.43899 0.44177 0.0
C418 C 0.20425 0.40504 0.44996 0.0
C419 C 0.14905 0.40999 0.42779 0.0
C420 C 0.21799 0.35761 0.43901 0.0
C421 C 0.27884 0.37968 0.48157 0.0
N422 N 0.17193 0.39404 0.43223 0.0
N423 N 0.25768 0.39638 0.47528 0.0
H424 H 0.21317 0.67338 0.71291 0.0
H425 H 0.05113 0.61005 0.79987 0.0
H426 H 0.181 0.72301 0.79175 0.0
H427 H 0.11653 0.55959 0.7537 0.0
H428 H 0.08962 0.65199 0.78799 0.0
H429 H 0.16874 0.6315 0.71874 0.0
C430 C 0.19643 0.67545 0.73122 0.0
C431 C 0.2007 0.70154 0.75197 0.0
C432 C 0.09531 0.63168 0.78025 0.0
C433 C 0.14995 0.65406 0.75859 0.0
C434 C 0.07338 0.60787 0.7869 0.0
C435 C 0.08099 0.58158 0.77783 0.0
C436 C 0.12459 0.62898 0.76398 0.0
C437 C 0.10993 0.57959 0.76101 0.0
C438 C 0.17131 0.65161 0.73461 0.0
C439 C 0.17862 0.70317 0.77545 0.0
N440 N 0.13077 0.60303 0.75461 0.0
N441 N 0.15408 0.67973 0.7781 0.0
H442 H 0.85032 0.69563 0.40755 0.0
H443 H 0.9738 0.59124 0.35201 0.0
H444 H 0.88944 0.68422 0.31932 0.0
H445 H 0.93738 0.60328 0.44131 0.0
H446 H 0.94313 0.62547 0.33997 0.0
H447 H 0.88279 0.66272 0.42094 0.0
C448 C 0.86596 0.6864 0.39107 0.0
C449 C 0.86702 0.69269 0.3622 0.0
C450 C 0.94179 0.62065 0.36222 0.0
C451 C 0.90393 0.65467 0.37727 0.0
C452 C 0.95911 0.60091 0.36904 0.0
C453 C 0.958 0.59414 0.39766 0.0
C454 C 0.92308 0.63385 0.38412 0.0
C455 C 0.93919 0.60794 0.41904 0.0
C456 C 0.88432 0.66746 0.39867 0.0
C457 C 0.88735 0.67972 0.34165 0.0
N458 N 0.9224 0.62706 0.4118 0.0
N459 N 0.9049 0.66135 0.34956 0.0
H460 H 0.82662 0.33304 0.92649 0.0
H461 H 0.88828 0.41742 0.80128 0.0
H462 H 0.77758 0.30807 0.83258 0.0
H463 H 0.93317 0.44423 0.89585 0.0
H464 H 0.84015 0.38303 0.81432 0.0
H465 H 0.85867 0.37826 0.91785 0.0
C466 C 0.8219 0.33729 0.90424 0.0
C467 C 0.79984 0.31647 0.88007 0.0
C468 C 0.86148 0.39578 0.83208 0.0
C469 C 0.83708 0.36809 0.86983 0.0
C470 C 0.89004 0.41494 0.82446 0.0
C471 C 0.92028 0.42974 0.84612 0.0
C472 C 0.86189 0.39246 0.86214 0.0
C473 C 0.9155 0.42968 0.87692 0.0
C474 C 0.84043 0.3631 0.89925 0.0
C475 C 0.79503 0.3232 0.85167 0.0
N476 N 0.88782 0.41059 0.88385 0.0
N477 N 0.81393 0.34821 0.8472 0.0
H478 H 0.30323 0.19027 0.41971 0.0
H479 H 0.34198 0.12226 0.55957 0.0
H480 H 0.35053 0.2393 0.51034 0.0
H481 H 0.30296 0.07314 0.46761 0.0
H482 H 0.34506 0.16553 0.54192 0.0
H483 H 0.30287 0.14715 0.43657 0.0
C484 C 0.31378 0.19199 0.4431 0.0
C485 C 0.32685 0.21849 0.46365 0.0
C486 C 0.33585 0.14534 0.52553 0.0
C487 C 0.32611 0.16915 0.48321 0.0
C488 C 0.33411 0.12075 0.53562 0.0
C489 C 0.32198 0.09439 0.51494 0.0
C490 C 0.32534 0.14343 0.49453 0.0
C491 C 0.31219 0.09324 0.48415 0.0
C492 C 0.31339 0.16735 0.45275 0.0
C493 C 0.33968 0.21936 0.49381 0.0
N494 N 0.31395 0.11747 0.47485 0.0
N495 N 0.33893 0.19508 0.50267 0.0
H496 H 0.27606 0.78359 0.83379 0.0
H497 H 0.47144 0.77736 0.88806 0.0
H498 H 0.35421 0.77265 0.77117 0.0
H499 H 0.41211 0.82336 0.94893 0.0
H500 H 0.42761 0.77389 0.84536 0.0
H501 H 0.32402 0.79702 0.87681 0.0
C502 C 0.30343 0.78446 0.82914 0.0
C503 C 0.31125 0.77699 0.79894 0.0
C504 C 0.42439 0.785 0.86803 0.0
C505 C 0.36592 0.79172 0.84787 0.0
C506 C 0.44961 0.78718 0.89257 0.0
C507 C 0.44586 0.80085 0.92246 0.0
C508 C 0.39459 0.79599 0.87325 0.0
C509 C 0.41602 0.81223 0.92654 0.0
C510 C 0.33073 0.79213 0.85363 0.0
C511 C 0.3471 0.77846 0.79409 0.0
N512 N 0.39137 0.80931 0.90228 0.0
N513 N 0.37303 0.78523 0.81832 0.0
H514 H 0.82122 0.80668 0.35758 0.0
H515 H 0.84735 0.88081 0.53538 0.0
H516 H 0.82267 0.76099 0.42838 0.0
H517 H 0.7987 0.91448 0.46805 0.0
H518 H 0.84724 0.83922 0.49526 0.0
H519 H 0.82005 0.84865 0.3967 0.0
C520 C 0.82104 0.8053 0.3812 0.0
C521 C 0.82236 0.78011 0.38955 0.0
C522 C 0.83661 0.85571 0.48926 0.0
C523 C 0.82196 0.82839 0.43445 0.0
C524 C 0.83691 0.87951 0.51207 0.0
C525 C 0.82302 0.90107 0.50498 0.0
C526 C 0.82283 0.85361 0.459 0.0
C527 C 0.80944 0.8982 0.47446 0.0
C528 C 0.82058 0.82935 0.40352 0.0
C529 C 0.82262 0.77996 0.42074 0.0
N530 N 0.80986 0.87495 0.45251 0.0
N531 N 0.82272 0.80372 0.44199 0.0
H532 H 0.66657 0.26774 0.95172 0.0
H533 H 0.64596 0.30202 0.13087 0.0
H534 H 0.75415 0.28325 0.02263 0.0
H535 H 0.55733 0.28012 0.0595 0.0
H536 H 0.68756 0.30133 0.09187 0.0
H537 H 0.62768 0.27891 0.99102 0.0
C538 C 0.6777 0.27415 0.97563 0.0
C539 C 0.7134 0.27485 0.98422 0.0
C540 C 0.65906 0.29689 0.0847 0.0
C541 C 0.66927 0.28693 0.02918 0.0
C542 C 0.63546 0.29731 0.10691 0.0
C543 C 0.59845 0.29105 0.09812 0.0
C544 C 0.64539 0.29008 0.05354 0.0
C545 C 0.58582 0.285 0.06696 0.0
C546 C 0.65553 0.28031 0.99805 0.0
C547 C 0.72669 0.28276 0.01532 0.0
N548 N 0.60925 0.28453 0.04573 0.0
N549 N 0.70452 0.28831 0.03677 0.0
H550 H 0.26549 0.84192 0.71916 0.0
H551 H 0.33348 0.92102 0.58903 0.0
H552 H 0.30977 0.80398 0.64045 0.0
H553 H 0.28916 0.95944 0.66744 0.0
H554 H 0.32965 0.87928 0.60975 0.0
H555 H 0.27882 0.88668 0.70327 0.0
C556 C 0.27857 0.84328 0.69879 0.0
C557 C 0.28679 0.8196 0.68105 0.0
C558 C 0.3209 0.89685 0.62257 0.0
C559 C 0.30151 0.87016 0.66243 0.0
C560 C 0.3231 0.92057 0.61074 0.0
C561 C 0.31131 0.94334 0.62654 0.0
C562 C 0.30672 0.89593 0.6504 0.0
C563 C 0.29821 0.94206 0.65459 0.0
C564 C 0.28603 0.86869 0.68963 0.0
C565 C 0.30329 0.82202 0.65472 0.0
N566 N 0.29604 0.91863 0.66558 0.0
N567 N 0.30995 0.84685 0.64606 0.0
H568 H 0.69801 0.71336 0.25833 0.0
H569 H 0.69659 0.80507 0.13327 0.0
H570 H 0.7925 0.77102 0.24185 0.0
H571 H 0.60494 0.74119 0.14431 0.0
H572 H 0.73073 0.79659 0.17638 0.0
H573 H 0.66191 0.72734 0.22051 0.0
C574 C 0.71093 0.72939 0.24708 0.0
C575 C 0.748 0.74131 0.25316 0.0
C576 C 0.70312 0.78448 0.16942 0.0
C577 C 0.70734 0.75697 0.20955 0.0
C578 C 0.68356 0.78939 0.14487 0.0
C579 C 0.64787 0.7737 0.13498 0.0
C580 C 0.68689 0.76382 0.18436 0.0
C581 C 0.63254 0.75346 0.15076 0.0
C582 C 0.69045 0.73722 0.22537 0.0
C583 C 0.76381 0.76161 0.23782 0.0
N584 N 0.65211 0.7491 0.17459 0.0
N585 N 0.74341 0.76874 0.21655 0.0
H586 H 0.73335 0.18382 0.84393 0.0
H587 H 0.84995 0.12854 0.71498 0.0
H588 H 0.83395 0.23451 0.82749 0.0
H589 H 0.75616 0.07548 0.73932 0.0
H590 H 0.84399 0.16793 0.75518 0.0
H591 H 0.74045 0.14433 0.80456 0.0
C592 C 0.75703 0.18663 0.83214 0.0
C593 C 0.78312 0.21257 0.83912 0.0
C594 C 0.82475 0.14765 0.75176 0.0
C595 C 0.79123 0.16741 0.79366 0.0
C596 C 0.82827 0.12506 0.72892 0.0
C597 C 0.8035 0.09857 0.72367 0.0
C598 C 0.79621 0.1438 0.7695 0.0
C599 C 0.77559 0.09556 0.74217 0.0
C600 C 0.76099 0.16408 0.80955 0.0
C601 C 0.81292 0.21506 0.82264 0.0
N602 N 0.77269 0.11788 0.76418 0.0
N603 N 0.81616 0.19278 0.80071 0.0
H604 H 0.38938 0.31562 0.40621 0.0
H605 H 0.36856 0.26025 0.22481 0.0
H606 H 0.31185 0.23865 0.35892 0.0
H607 H 0.4706 0.3045 0.27817 0.0
H608 H 0.34127 0.25911 0.27252 0.0
H609 H 0.41334 0.31931 0.3577 0.0
C610 C 0.37714 0.29974 0.38549 0.0
C611 C 0.34871 0.27678 0.38641 0.0
C612 C 0.36963 0.26903 0.2737 0.0
C613 C 0.37569 0.28092 0.33115 0.0
C614 C 0.38515 0.26958 0.24662 0.0
C615 C 0.42193 0.28194 0.24778 0.0
C616 C 0.39091 0.28167 0.30199 0.0
C617 C 0.44219 0.29452 0.27647 0.0
C618 C 0.39092 0.30174 0.35796 0.0
C619 C 0.33393 0.25658 0.35906 0.0
N620 N 0.4264 0.29413 0.3025 0.0
N621 N 0.34753 0.25915 0.33244 0.0
H622 H 0.82488 0.66997 0.75406 0.0
H623 H 0.89484 0.57977 0.85923 0.0
H624 H 0.8443 0.6971 0.85274 0.0
H625 H 0.91209 0.5712 0.76424 0.0
H626 H 0.86773 0.61854 0.85624 0.0
H627 H 0.84914 0.62967 0.75648 0.0
C628 C 0.83443 0.66765 0.77624 0.0
C629 C 0.8325 0.68716 0.80324 0.0
C630 C 0.87734 0.60803 0.83605 0.0
C631 C 0.85947 0.6405 0.80612 0.0
C632 C 0.89295 0.58591 0.83773 0.0
C633 C 0.90609 0.57211 0.812 0.0
C634 C 0.87444 0.61631 0.80838 0.0
C635 C 0.90197 0.58077 0.7846 0.0
C636 C 0.84804 0.64448 0.77758 0.0
C637 C 0.84461 0.68249 0.83131 0.0
N638 N 0.88659 0.60229 0.78354 0.0
N639 N 0.85745 0.65964 0.83201 0.0
H640 H 0.81349 0.33745 0.49328 0.0
H641 H 0.92523 0.45865 0.47139 0.0
H642 H 0.88278 0.29458 0.44183 0.0
H643 H 0.00168 0.41005 0.44755 0.0
H644 H 0.88526 0.41766 0.48269 0.0
H645 H 0.8594 0.3819 0.50148 0.0
C646 C 0.83882 0.33744 0.48425 0.0
C647 C 0.84438 0.31247 0.46671 0.0
C648 C 0.91113 0.41589 0.47599 0.0
C649 C 0.89622 0.36354 0.47403 0.0
C650 C 0.93383 0.43938 0.46933 0.0
C651 C 0.96666 0.43758 0.45878 0.0
C652 C 0.92136 0.39032 0.47189 0.0
C653 C 0.97652 0.41212 0.45582 0.0
C654 C 0.86482 0.36294 0.48835 0.0
C655 C 0.87756 0.31344 0.45554 0.0
N656 N 0.95379 0.38938 0.46203 0.0
N657 N 0.90201 0.33866 0.45892 0.0
H658 H 0.24088 0.33253 0.79337 0.0
H659 H 0.18435 0.47871 0.82424 0.0
H660 H 0.31522 0.41393 0.82902 0.0
H661 H 0.10989 0.39841 0.78231 0.0
H662 H 0.23282 0.45521 0.82466 0.0
H663 H 0.19253 0.35596 0.78739 0.0
C664 C 0.24691 0.35536 0.79967 0.0
C665 C 0.28171 0.37151 0.81161 0.0
C666 C 0.20594 0.44269 0.81523 0.0
C667 C 0.22711 0.39834 0.8052 0.0
C668 C 0.17821 0.4561 0.81513 0.0
C669 C 0.14296 0.44047 0.80344 0.0
C670 C 0.19846 0.41334 0.80372 0.0
C671 C 0.1367 0.41129 0.7914 0.0
C672 C 0.21946 0.36871 0.79631 0.0
C673 C 0.28853 0.4009 0.81966 0.0
N674 N 0.16413 0.39863 0.79205 0.0
N675 N 0.26142 0.41341 0.81643 0.0
H676 H 0.30225 0.66115 0.33805 0.0
H677 H 0.10869 0.61065 0.39197 0.0
H678 H 0.22126 0.7076 0.34012 0.0
H679 H 0.18449 0.55974 0.38157 0.0
H680 H 0.15046 0.64702 0.374 0.0
H681 H 0.26017 0.62393 0.35434 0.0
C682 C 0.27556 0.66344 0.3417 0.0
C683 C 0.26537 0.68764 0.33783 0.0
C684 C 0.15805 0.62792 0.37558 0.0
C685 C 0.21723 0.64528 0.35685 0.0
C686 C 0.13427 0.60729 0.38586 0.0
C687 C 0.14347 0.58245 0.38813 0.0
C688 C 0.19128 0.62361 0.36764 0.0
C689 C 0.17672 0.57878 0.38003 0.0
C690 C 0.25162 0.64226 0.35117 0.0
C691 C 0.23055 0.68959 0.3433 0.0
N692 N 0.19954 0.59919 0.37014 0.0
N693 N 0.20783 0.66876 0.35259 0.0
H694 H 0.81914 0.83956 0.77989 0.0
H695 H 0.78422 0.89339 0.62861 0.0
H696 H 0.77725 0.78409 0.69129 0.0
H697 H 0.8131 0.94933 0.71843 0.0
H698 H 0.7795 0.85297 0.65168 0.0
H699 H 0.81475 0.88009 0.75883 0.0
C700 C 0.8084 0.83598 0.75614 0.0
C701 C 0.79826 0.80868 0.73722 0.0
C702 C 0.78668 0.87403 0.66646 0.0
C703 C 0.79388 0.85459 0.71284 0.0
C704 C 0.78937 0.89703 0.65326 0.0
C705 C 0.79924 0.92455 0.67172 0.0
C706 C 0.79417 0.87861 0.69839 0.0
C707 C 0.80564 0.92833 0.70352 0.0
C708 C 0.80605 0.85904 0.74408 0.0
C709 C 0.78504 0.80494 0.70656 0.0
N710 N 0.80325 0.90561 0.71587 0.0
N711 N 0.78346 0.82765 0.69524 0.0
H712 H 0.68538 0.24207 0.40785 0.0
H713 H 0.64845 0.32141 0.27752 0.0
H714 H 0.76697 0.30399 0.38052 0.0
H715 H 0.57149 0.24994 0.29369 0.0
H716 H 0.69004 0.31892 0.31944 0.0
H717 H 0.64134 0.24775 0.36974 0.0
C718 C 0.69406 0.25686 0.39388 0.0
C719 C 0.72999 0.27257 0.39747 0.0
C720 C 0.66401 0.30383 0.31389 0.0
C721 C 0.67963 0.27938 0.35403 0.0
C722 C 0.64016 0.30537 0.2901 0.0
C723 C 0.60652 0.28576 0.28199 0.0
C724 C 0.65413 0.28259 0.32982 0.0
C725 C 0.59737 0.26522 0.29888 0.0
C726 C 0.66886 0.26018 0.37223 0.0
C727 C 0.73951 0.29174 0.379 0.0
N728 N 0.62106 0.26413 0.32195 0.0
N729 N 0.71454 0.29454 0.35809 0.0
H730 H 0.27883 0.21673 0.80649 0.0
H731 H 0.34956 0.15043 0.65161 0.0
H732 H 0.34904 0.26593 0.75634 0.0
H733 H 0.27328 0.10131 0.69754 0.0
H734 H 0.34812 0.19314 0.68906 0.0
H735 H 0.27417 0.17447 0.76583 0.0
C736 C 0.29305 0.21867 0.78681 0.0
C737 C 0.31448 0.24489 0.78488 0.0
C738 C 0.33158 0.17306 0.69094 0.0
C739 C 0.3094 0.19662 0.73833 0.0
C740 C 0.33262 0.14862 0.66969 0.0
C741 C 0.31173 0.12222 0.67159 0.0
C742 C 0.30964 0.17115 0.71445 0.0
C743 C 0.28969 0.12123 0.69513 0.0
C744 C 0.29033 0.19456 0.76359 0.0
C745 C 0.33195 0.24623 0.75868 0.0
N746 N 0.28939 0.14533 0.71575 0.0
N747 N 0.32927 0.22241 0.73659 0.0
H748 H 0.45014 0.74502 0.25655 0.0
H749 H 0.44264 0.80607 0.10671 0.0
H750 H 0.35614 0.76423 0.21902 0.0
H751 H 0.53017 0.77505 0.13697 0.0
H752 H 0.4142 0.7982 0.15235 0.0
H753 H 0.48377 0.76361 0.2179 0.0
C754 C 0.43688 0.75371 0.24045 0.0
C755 C 0.4006 0.75333 0.24078 0.0
C756 C 0.43984 0.79345 0.14926 0.0
C757 C 0.43834 0.77403 0.19633 0.0
C758 C 0.45606 0.79806 0.12337 0.0
C759 C 0.48876 0.79138 0.11852 0.0
C760 C 0.45648 0.78195 0.17027 0.0
C761 C 0.505 0.7806 0.14024 0.0
C762 C 0.45593 0.76414 0.21832 0.0
C763 C 0.38426 0.76441 0.21941 0.0
N764 N 0.48863 0.77612 0.16518 0.0
N765 N 0.40321 0.77417 0.19783 0.0
H766 H 0.79069 0.20257 0.52373 0.0
H767 H 0.8533 0.0614 0.52145 0.0
H768 H 0.84246 0.16329 0.45105 0.0
H769 H 0.80697 0.10291 0.59668 0.0
H770 H 0.85514 0.10115 0.49764 0.0
H771 H 0.80248 0.1695 0.55362 0.0
C772 C 0.80537 0.18739 0.51449 0.0
C773 C 0.81598 0.18562 0.48519 0.0
C774 C 0.84491 0.10179 0.51951 0.0
C775 C 0.82863 0.14732 0.51855 0.0
C776 C 0.84394 0.07914 0.53305 0.0
C777 C 0.83004 0.0791 0.56097 0.0
C778 C 0.8315 0.12439 0.53389 0.0
C779 C 0.81789 0.10233 0.57509 0.0
C780 C 0.81188 0.1684 0.53138 0.0
C781 C 0.83424 0.16537 0.47378 0.0
N782 N 0.81866 0.12398 0.56131 0.0
N783 N 0.83971 0.1468 0.49036 0.0
H784 H 0.37913 0.25641 0.88155 0.0
H785 H 0.39067 0.31903 0.06193 0.0
H786 H 0.32668 0.32039 0.92078 0.0
H787 H 0.43503 0.25035 0.02156 0.0
H788 H 0.366 0.31953 0.0107 0.0
H789 H 0.39837 0.25323 0.9329 0.0
C790 C 0.37127 0.26958 0.90094 0.0
C791 C 0.35115 0.28867 0.89676 0.0
C792 C 0.38094 0.30424 0.0131 0.0
C793 C 0.37378 0.28549 0.95588 0.0
C794 C 0.39516 0.30403 0.04231 0.0
C795 C 0.41497 0.28463 0.04607 0.0
C796 C 0.38679 0.28504 0.98742 0.0
C797 C 0.41957 0.26545 0.01985 0.0
C798 C 0.3825 0.26788 0.93033 0.0
C799 C 0.34251 0.30562 0.9229 0.0
N800 N 0.40577 0.26625 0.99168 0.0
N801 N 0.35396 0.30369 0.95133 0.0
H802 H 0.3748 0.8063 0.35698 0.0
H803 H 0.26152 0.89364 0.45998 0.0
H804 H 0.25899 0.78364 0.34809 0.0
H805 H 0.37099 0.93122 0.44811 0.0
H806 H 0.26115 0.85281 0.41956 0.0
H807 H 0.3753 0.85219 0.3901 0.0
C808 C 0.3495 0.81116 0.36153 0.0
C809 C 0.31681 0.79093 0.35016 0.0
C810 C 0.28519 0.87008 0.42559 0.0
C811 C 0.31722 0.84299 0.38838 0.0
C812 C 0.2854 0.89359 0.44866 0.0
C813 C 0.3163 0.91618 0.45759 0.0
C814 C 0.31627 0.86872 0.41147 0.0
C815 C 0.34669 0.91422 0.44244 0.0
C816 C 0.34981 0.83726 0.38056 0.0
C817 C 0.28484 0.79831 0.35694 0.0
N818 N 0.346 0.89082 0.42028 0.0
N819 N 0.28587 0.82354 0.37588 0.0
H820 H 0.73511 0.70904 0.85251 0.0
H821 H 0.63603 0.81418 0.93794 0.0
H822 H 0.77157 0.79628 0.8483 0.0
H823 H 0.67425 0.75839 0.98461 0.0
H824 H 0.67639 0.80552 0.899 0.0
H825 H 0.70195 0.72335 0.89459 0.0
C826 C 0.73659 0.73125 0.86048 0.0
C827 C 0.75719 0.75152 0.84705 0.0
C828 C 0.67634 0.79564 0.9181 0.0
C829 C 0.71756 0.76768 0.89457 0.0
C830 C 0.65364 0.8007 0.94039 0.0
C831 C 0.65249 0.7874 0.96482 0.0
C832 C 0.69685 0.77631 0.91969 0.0
C833 C 0.67479 0.76929 0.96633 0.0
C834 C 0.71738 0.73929 0.88444 0.0
C835 C 0.75615 0.7798 0.85769 0.0
N836 N 0.69563 0.76386 0.94374 0.0
N837 N 0.73649 0.78704 0.88073 0.0
loop_
_geom_bond_atom_site_label_1
_geom_bond_atom_site_label_2
_geom_bond_distance
_geom_bond_site_symmetry_2
_ccdc_geom_bond_type
H0 C3 0.929 . S
H1 C6 0.929 . S
H2 C8 0.930 . S
C3 H0 0.929 . S
C3 C4 1.398 . S
C3 C5 1.396 . S
C4 C3 1.398 . S
C4 C8 1.407 . S
C5 C3 1.396 . S
C5 C6 1.394 . S
C6 H1 0.929 . S
C6 C5 1.394 . S
C6 C7 1.382 . S
C7 C6 1.382 . S
C7 C8 1.392 . S
C7 N9 1.420 . S
C8 H2 0.930 . S
C8 C4 1.407 . S
C8 C7 1.392 . S
N9 C7 1.420 . S
N9 C10 1.244 . S
C10 N9 1.244 . S
H11 C14 0.929 . S
H12 C17 0.929 . S
H13 C19 0.930 . S
C14 H11 0.929 . S
C14 C15 1.398 . S
C14 C16 1.396 . S
C15 C14 1.398 . S
C15 C19 1.407 . S
C16 C14 1.396 . S
C16 C17 1.394 . S
C17 H12 0.929 . S
C17 C16 1.394 . S
C17 C18 1.382 . S
C18 C17 1.382 . S
C18 C19 1.392 . S
C18 N20 1.420 . S
C19 H13 0.930 . S
C19 C15 1.407 . S
C19 C18 1.392 . S
N20 C18 1.420 . S
N20 C21 1.244 . S
C21 N20 1.244 . S
H22 C25 0.929 . S
H23 C28 0.929 . S
H24 C30 0.930 . S
C25 H22 0.929 . S
C25 C26 1.398 . S
C25 C27 1.396 . S
C26 C25 1.398 . S
C26 C30 1.407 . S
C27 C25 1.396 . S
C27 C28 1.394 . S
C28 H23 0.929 . S
C28 C27 1.394 . S
C28 C29 1.382 . S
C29 C28 1.382 . S
C29 C30 1.392 . S
C29 N31 1.420 . S
C30 H24 0.930 . S
C30 C26 1.407 . S
C30 C29 1.392 . S
N31 C29 1.420 . S
N31 C32 1.244 . S
C32 N31 1.244 . S
H33 C36 0.929 . S
H34 C39 0.929 . S
H35 C41 0.930 . S
C36 H33 0.929 . S
C36 C37 1.398 . S
C36 C38 1.396 . S
C37 C36 1.398 . S
C37 C41 1.407 . S
C38 C36 1.396 . S
C38 C39 1.394 . S
C39 H34 0.929 . S
C39 C38 1.394 . S
C39 C40 1.382 . S
C40 C39 1.382 . S
C40 C41 1.392 . S
C40 N42 1.420 . S
C41 H35 0.930 . S
C41 C37 1.407 . S
C41 C40 1.392 . S
N42 C40 1.420 . S
N42 C43 1.244 . S
C43 N42 1.244 . S
H44 C47 0.929 . S
H45 C50 0.929 . S
H46 C52 0.930 . S
C47 H44 0.929 . S
C47 C48 1.398 . S
C47 C49 1.396 . S
C48 C47 1.398 . S
C48 C52 1.407 . S
C49 C47 1.396 . S
C49 C50 1.394 . S
C50 H45 0.929 . S
C50 C49 1.394 . S
C50 C51 1.382 . S
C51 C50 1.382 . S
C51 C52 1.392 . S
C51 N53 1.420 . S
C52 H46 0.930 . S
C52 C48 1.407 . S
C52 C51 1.392 . S
N53 C51 1.420 . S
N53 C54 1.244 . S
C54 N53 1.244 . S
H55 C58 0.929 . S
H56 C61 0.929 . S
H57 C63 0.930 . S
C58 H55 0.929 . S
C58 C59 1.398 . S
C58 C60 1.396 . S
C59 C58 1.398 . S
C59 C63 1.407 . S
C60 C58 1.396 . S
C60 C61 1.394 . S
C61 H56 0.929 . S
C61 C60 1.394 . S
C61 C62 1.382 . S
C62 C61 1.382 . S
C62 C63 1.392 . S
C62 N64 1.420 . S
C63 H57 0.930 . S
C63 C59 1.407 . S
C63 C62 1.392 . S
N64 C62 1.420 . S
N64 C65 1.244 . S
C65 N64 1.244 . S
H66 C69 0.929 . S
H67 C72 0.929 . S
H68 C74 0.930 . S
C69 H66 0.929 . S
C69 C70 1.398 . S
C69 C71 1.396 . S
C70 C69 1.398 . S
C70 C74 1.407 . S
C71 C69 1.396 . S
C71 C72 1.394 . S
C72 H67 0.929 . S
C72 C71 1.394 . S
C72 C73 1.382 . S
C73 C72 1.382 . S
C73 C74 1.392 . S
C73 N75 1.420 . S
C74 H68 0.930 . S
C74 C70 1.407 . S
C74 C73 1.392 . S
N75 C73 1.420 . S
N75 C76 1.244 . S
C76 N75 1.244 . S
H77 C80 0.929 . S
H78 C83 0.929 . S
H79 C85 0.930 . S
C80 H77 0.929 . S
C80 C81 1.398 . S
C80 C82 1.396 . S
C81 C80 1.398 . S
C81 C85 1.407 . S
C82 C80 1.396 . S
C82 C83 1.394 . S
C83 H78 0.929 . S
C83 C82 1.394 . S
C83 C84 1.382 . S
C84 C83 1.382 . S
C84 C85 1.392 . S
C84 N86 1.420 . S
C85 H79 0.930 . S
C85 C81 1.407 . S
C85 C84 1.392 . S
N86 C84 1.420 . S
N86 C87 1.244 . S
C87 N86 1.244 . S
C88 C89 1.443 . S
C88 N92 1.376 . S
C88 C126 1.389 . S
C89 C88 1.443 . S
C89 C90 1.340 . S
C89 H129 0.951 . S
C90 C89 1.340 . S
C90 C91 1.439 . S
C90 H130 0.950 . S
C91 C90 1.439 . S
C91 N92 1.374 . S
C91 C125 1.395 . S
N92 C88 1.376 . S
N92 C91 1.374 . S
N92 Co93 2.008 . S
Co93 N92 2.008 . S
Co93 N94 1.995 . S
Co93 N99 2.008 . S
Co93 N104 1.995 . S
Co93 N109 2.282 . S
Co93 N115 2.282 . S
N94 Co93 1.995 . S
N94 C95 1.376 . S
N94 C98 1.383 . S
C95 N94 1.376 . S
C95 C96 1.446 . S
C95 C125 1.391 . S
C96 C95 1.446 . S
C96 C97 1.339 . S
C96 H131 0.949 . S
C97 C96 1.339 . S
C97 C98 1.439 . S
C97 H132 0.947 1_455 S
C98 N94 1.383 . S
C98 C97 1.439 . S
C98 C127 1.392 . S
N99 Co93 2.008 . S
N99 C100 1.376 . S
N99 C103 1.374 . S
C100 N99 1.376 . S
C100 C101 1.443 1_455 S
C100 C127 1.389 . S
C101 C100 1.443 1_655 S
C101 C102 1.340 . S
C101 H133 0.951 . S
C102 C101 1.340 . S
C102 C103 1.439 1_655 S
C102 H134 0.950 . S
C103 N99 1.374 . S
C103 C102 1.439 1_455 S
C103 C128 1.395 . S
N104 Co93 1.995 . S
N104 C105 1.376 . S
N104 C108 1.383 . S
C105 N104 1.376 . S
C105 C106 1.446 . S
C105 C128 1.391 . S
C106 C105 1.446 . S
C106 C107 1.339 . S
C106 H135 0.949 . S
C107 C106 1.339 . S
C107 C108 1.439 . S
C107 H136 0.950 . S
C108 N104 1.383 . S
C108 C107 1.439 . S
C108 C126 1.392 . S
N109 Co93 2.282 . S
N109 C112 1.332 . S
N109 C114 1.332 . S
C110 C111 1.386 . S
C110 C113 1.388 . S
C111 C110 1.386 . S
C111 C112 1.382 . S
C111 H137 0.950 . S
C112 N109 1.332 . S
C112 C111 1.382 . S
C112 H123 0.952 . S
C113 C110 1.388 . S
C113 C114 1.382 . S
C113 H138 0.950 . S
C114 N109 1.332 . S
C114 C113 1.382 . S
C114 H124 0.948 . S
N115 Co93 2.282 . S
N115 C119 1.332 . S
N115 C120 1.332 . S
C116 C117 1.388 . S
C116 C120 1.382 1_655 S
C116 H139 0.950 . S
C117 C116 1.388 . S
C117 C118 1.386 . S
C118 C117 1.386 . S
C118 C119 1.382 1_655 S
C118 H140 0.950 . S
C119 N115 1.332 . S
C119 C118 1.382 1_455 S
C119 H121 0.952 . S
C120 N115 1.332 . S
C120 C116 1.382 1_455 S
C120 H122 0.948 . S
H121 C119 0.952 . S
H122 C120 0.948 . S
H123 C112 0.952 . S
H124 C114 0.948 . S
C125 C91 1.395 . S
C125 C95 1.391 . S
C126 C88 1.389 . S
C126 C108 1.392 . S
C127 C98 1.392 . S
C127 C100 1.389 . S
C128 C103 1.395 . S
C128 C105 1.391 . S
H129 C89 0.951 . S
H130 C90 0.950 . S
H131 C96 0.949 . S
H132 C97 0.947 1_655 S
H133 C101 0.951 . S
H134 C102 0.950 . S
H135 C106 0.949 . S
H136 C107 0.950 . S
H137 C111 0.950 . S
H138 C113 0.950 . S
H139 C116 0.950 . S
H140 C118 0.950 . S
C141 C142 1.443 . S
C141 N145 1.376 . S
C141 C179 1.389 . S
C142 C141 1.443 . S
C142 C143 1.340 . S
C142 H182 0.951 . S
C143 C142 1.340 . S
C143 C144 1.439 . S
C143 H183 0.950 . S
C144 C143 1.439 . S
C144 N145 1.374 . S
C144 C178 1.395 . S
N145 C141 1.376 . S
N145 C144 1.374 . S
N145 Co146 2.008 . S
Co146 N145 2.008 . S
Co146 N147 1.995 1_455 S
Co146 N152 2.008 1_455 S
Co146 N157 1.995 . S
Co146 N162 2.282 . S
Co146 N168 2.282 1_455 S
N147 Co146 1.995 1_655 S
N147 C148 1.376 . S
N147 C151 1.383 . S
C148 N147 1.376 . S
C148 C149 1.446 . S
C148 C178 1.391 1_655 S
C149 C148 1.446 . S
C149 C150 1.339 . S
C149 H184 0.949 . S
C150 C149 1.339 . S
C150 C151 1.439 . S
C150 H185 0.950 . S
C151 N147 1.383 . S
C151 C150 1.439 . S
C151 C180 1.392 . S
N152 Co146 2.008 1_655 S
N152 C153 1.376 . S
N152 C156 1.374 . S
C153 N152 1.376 . S
C153 C154 1.443 . S
C153 C180 1.389 . S
C154 C153 1.443 . S
C154 C155 1.340 . S
C154 H186 0.951 . S
C155 C154 1.340 . S
C155 C156 1.439 . S
C155 H187 0.950 . S
C156 N152 1.374 . S
C156 C155 1.439 . S
C156 C181 1.395 . S
N157 Co146 1.995 . S
N157 C158 1.376 . S
N157 C161 1.383 . S
C158 N157 1.376 . S
C158 C159 1.446 . S
C158 C181 1.391 1_455 S
C159 C158 1.446 . S
C159 C160 1.339 . S
C159 H188 0.949 . S
C160 C159 1.339 . S
C160 C161 1.439 . S
C160 H189 0.950 . S
C161 N157 1.383 . S
C161 C160 1.439 . S
C161 C179 1.392 . S
N162 Co146 2.282 . S
N162 C165 1.332 . S
N162 C167 1.332 . S
C163 C164 1.386 . S
C163 C166 1.388 . S
C164 C163 1.386 . S
C164 C165 1.382 . S
C164 H190 0.950 . S
C165 N162 1.332 . S
C165 C164 1.382 . S
C165 H176 0.952 . S
C166 C163 1.388 . S
C166 C167 1.382 . S
C166 H191 0.950 . S
C167 N162 1.332 . S
C167 C166 1.382 . S
C167 H177 0.948 . S
N168 Co146 2.282 1_655 S
N168 C172 1.332 . S
N168 C173 1.332 . S
C169 C170 1.388 . S
C169 C173 1.382 . S
C169 H192 0.950 . S
C170 C169 1.388 . S
C170 C171 1.386 . S
C171 C170 1.386 . S
C171 C172 1.382 . S
C171 H193 0.950 . S
C172 N168 1.332 . S
C172 C171 1.382 . S
C172 H174 0.952 . S
C173 N168 1.332 . S
C173 C169 1.382 . S
C173 H175 0.948 . S
H174 C172 0.952 . S
H175 C173 0.948 . S
H176 C165 0.952 . S
H177 C167 0.948 . S
C178 C144 1.395 . S
C178 C148 1.391 1_455 S
C179 C141 1.389 . S
C179 C161 1.392 . S
C180 C151 1.392 . S
C180 C153 1.389 . S
C181 C156 1.395 . S
C181 C158 1.391 1_655 S
H182 C142 0.951 . S
H183 C143 0.950 . S
H184 C149 0.949 . S
H185 C150 0.950 . S
H186 C154 0.951 . S
H187 C155 0.950 . S
H188 C159 0.949 . S
H189 C160 0.950 . S
H190 C164 0.950 . S
H191 C166 0.950 . S
H192 C169 0.950 . S
H193 C171 0.950 . S
C194 C195 1.443 . S
C194 N198 1.376 1_565 S
C194 C232 1.389 . S
C195 C194 1.443 . S
C195 C196 1.340 1_565 S
C195 H235 0.951 . S
C196 C195 1.340 1_545 S
C196 C197 1.439 . S
C196 H236 0.950 . S
C197 C196 1.439 . S
C197 N198 1.374 . S
C197 C231 1.395 . S
N198 C194 1.376 1_545 S
N198 C197 1.374 . S
N198 Co199 2.008 . S
Co199 N198 2.008 . S
Co199 N200 1.995 . S
Co199 N205 2.008 . S
Co199 N210 1.995 . S
Co199 N215 2.282 . S
Co199 N221 2.282 1_545 S
N200 Co199 1.995 . S
N200 C201 1.376 . S
N200 C204 1.383 . S
C201 N200 1.376 . S
C201 C202 1.446 . S
C201 C231 1.391 . S
C202 C201 1.446 . S
C202 C203 1.339 . S
C202 H237 0.949 . S
C203 C202 1.339 . S
C203 C204 1.439 . S
C203 H238 0.950 . S
C204 N200 1.383 . S
C204 C203 1.439 . S
C204 C233 1.392 . S
N205 Co199 2.008 . S
N205 C206 1.376 . S
N205 C209 1.374 . S
C206 N205 1.376 . S
C206 C207 1.443 . S
C206 C233 1.389 . S
C207 C206 1.443 . S
C207 C208 1.340 . S
C207 H239 0.951 . S
C208 C207 1.340 . S
C208 C209 1.439 . S
C208 H240 0.950 . S
C209 N205 1.374 . S
C209 C208 1.439 . S
C209 C234 1.395 . S
N210 Co199 1.995 . S
N210 C211 1.376 . S
N210 C214 1.383 1_545 S
C211 N210 1.376 . S
C211 C212 1.444 1_545 S
C211 C234 1.393 . S
C212 C211 1.444 1_565 S
C212 C213 1.339 . S
C212 H241 0.949 . S
C213 C212 1.339 . S
C213 C214 1.439 . S
C213 H242 0.950 . S
C214 N210 1.383 1_565 S
C214 C213 1.439 . S
C214 C232 1.392 . S
N215 Co199 2.282 . S
N215 C218 1.332 . S
N215 C220 1.332 . S
C216 C217 1.386 . S
C216 C219 1.388 . S
C217 C216 1.386 . S
C217 C218 1.382 . S
C217 H243 0.950 . S
C218 N215 1.332 . S
C218 C217 1.382 . S
C218 H229 0.952 . S
C219 C216 1.388 . S
C219 C220 1.382 . S
C219 H244 0.950 . S
C220 N215 1.332 . S
C220 C219 1.382 . S
C220 H230 0.948 . S
N221 Co199 2.282 1_565 S
N221 C225 1.332 . S
N221 C226 1.332 . S
C222 C223 1.388 . S
C222 C226 1.382 . S
C222 H245 0.950 . S
C223 C222 1.388 . S
C223 C224 1.386 . S
C224 C223 1.386 . S
C224 C225 1.382 . S
C224 H246 0.950 . S
C225 N221 1.332 . S
C225 C224 1.382 . S
C225 H227 0.952 1_565 S
C226 N221 1.332 . S
C226 C222 1.382 . S
C226 H228 0.948 . S
H227 C225 0.952 1_545 S
H228 C226 0.948 . S
H229 C218 0.952 . S
H230 C220 0.948 . S
C231 C197 1.395 . S
C231 C201 1.391 . S
C232 C194 1.389 . S
C232 C214 1.392 . S
C233 C204 1.392 . S
C233 C206 1.389 . S
C234 C209 1.395 . S
C234 C211 1.393 . S
H235 C195 0.951 . S
H236 C196 0.950 . S
H237 C202 0.949 . S
H238 C203 0.950 . S
H239 C207 0.951 . S
H240 C208 0.950 . S
H241 C212 0.949 . S
H242 C213 0.950 . S
H243 C217 0.950 . S
H244 C219 0.950 . S
H245 C222 0.950 . S
H246 C224 0.950 . S
C247 C248 1.443 . S
C247 N251 1.376 . S
C247 C285 1.389 . S
C248 C247 1.443 . S
C248 C249 1.340 . S
C248 H288 0.951 . S
C249 C248 1.340 . S
C249 C250 1.439 . S
C249 H289 0.950 . S
C250 C249 1.439 . S
C250 N251 1.374 . S
C250 C284 1.395 . S
N251 C247 1.376 . S
N251 C250 1.374 . S
N251 Co252 2.008 . S
Co252 N251 2.008 . S
Co252 N253 1.995 1_554 S
Co252 N258 2.008 1_554 S
Co252 N263 1.995 . S
Co252 N268 2.282 1_554 S
Co252 N274 2.282 . S
N253 Co252 1.995 1_556 S
N253 C254 1.376 1_556 S
N253 C257 1.383 . S
C254 N253 1.376 1_554 S
C254 C255 1.446 1_554 S
C254 C284 1.391 . S
C255 C254 1.446 1_556 S
C255 C256 1.339 . S
C255 H290 0.949 . S
C256 C255 1.339 . S
C256 C257 1.439 . S
C256 H291 0.950 . S
C257 N253 1.383 . S
C257 C256 1.439 . S
C257 C286 1.392 . S
N258 Co252 2.008 1_556 S
N258 C259 1.376 . S
N258 C262 1.374 . S
C259 N258 1.376 . S
C259 C260 1.443 . S
C259 C286 1.389 . S
C260 C259 1.443 . S
C260 C261 1.340 . S
C260 H292 0.951 . S
C261 C260 1.340 . S
C261 C262 1.439 . S
C261 H293 0.950 . S
C262 N258 1.374 . S
C262 C261 1.439 . S
C262 C287 1.395 . S
N263 Co252 1.995 . S
N263 C264 1.376 . S
N263 C267 1.383 . S
C264 N263 1.376 . S
C264 C265 1.446 . S
C264 C287 1.391 1_554 S
C265 C264 1.446 . S
C265 C266 1.339 . S
C265 H294 0.949 . S
C266 C265 1.339 . S
C266 C267 1.439 . S
C266 H295 0.950 . S
C267 N263 1.383 . S
C267 C266 1.439 . S
C267 C285 1.392 . S
N268 Co252 2.282 1_556 S
N268 C271 1.332 . S
N268 C273 1.332 . S
C269 C270 1.386 . S
C269 C272 1.388 . S
C270 C269 1.386 . S
C270 C271 1.382 . S
C270 H296 0.950 . S
C271 N268 1.332 . S
C271 C270 1.382 . S
C271 H282 0.952 . S
C272 C269 1.388 . S
C272 C273 1.382 . S
C272 H297 0.950 . S
C273 N268 1.332 . S
C273 C272 1.382 . S
C273 H283 0.948 . S
N274 Co252 2.282 . S
N274 C278 1.332 . S
N274 C279 1.332 . S
C275 C276 1.388 . S
C275 C279 1.382 . S
C275 H298 0.950 . S
C276 C275 1.388 . S
C276 C277 1.386 . S
C277 C276 1.386 . S
C277 C278 1.382 . S
C277 H299 0.950 . S
C278 N274 1.332 . S
C278 C277 1.382 . S
C278 H280 0.952 . S
C279 N274 1.332 . S
C279 C275 1.382 . S
C279 H281 0.948 . S
H280 C278 0.952 . S
H281 C279 0.948 . S
H282 C271 0.952 . S
H283 C273 0.948 . S
C284 C250 1.395 . S
C284 C254 1.391 . S
C285 C247 1.389 . S
C285 C267 1.392 . S
C286 C257 1.392 . S
C286 C259 1.389 . S
C287 C262 1.395 . S
C287 C264 1.391 1_556 S
H288 C248 0.951 . S
H289 C249 0.950 . S
H290 C255 0.949 . S
H291 C256 0.950 . S
H292 C260 0.951 . S
H293 C261 0.950 . S
H294 C265 0.949 . S
H295 C266 0.950 . S
H296 C270 0.950 . S
H297 C272 0.950 . S
H298 C275 0.950 . S
H299 C277 0.950 . S
C300 C301 1.443 . S
C300 N304 1.376 1_565 S
C300 C338 1.389 . S
C301 C300 1.443 . S
C301 C302 1.340 1_565 S
C301 H341 0.951 . S
C302 C301 1.340 1_545 S
C302 C303 1.439 . S
C302 H342 0.950 1_655 S
C303 C302 1.439 . S
C303 N304 1.374 . S
C303 C337 1.395 . S
N304 C300 1.376 1_545 S
N304 C303 1.374 . S
N304 Co305 2.008 . S
Co305 N304 2.008 . S
Co305 N306 1.995 . S
Co305 N311 2.008 . S
Co305 N316 1.995 . S
Co305 N321 2.282 . S
Co305 N327 2.282 . S
N306 Co305 1.995 . S
N306 C307 1.376 . S
N306 C310 1.383 . S
C307 N306 1.376 . S
C307 C308 1.446 . S
C307 C337 1.391 . S
C308 C307 1.446 . S
C308 C309 1.339 . S
C308 H343 0.949 1_655 S
C309 C308 1.339 . S
C309 C310 1.439 . S
C309 H344 0.950 . S
C310 N306 1.383 . S
C310 C309 1.439 . S
C310 C339 1.392 . S
N311 Co305 2.008 . S
N311 C312 1.376 . S
N311 C315 1.374 . S
C312 N311 1.376 . S
C312 C313 1.443 . S
C312 C339 1.389 . S
C313 C312 1.443 . S
C313 C314 1.340 . S
C313 H345 0.951 . S
C314 C313 1.340 . S
C314 C315 1.439 . S
C314 H346 0.950 . S
C315 N311 1.374 . S
C315 C314 1.439 . S
C315 C340 1.395 . S
N316 Co305 1.995 . S
N316 C317 1.376 . S
N316 C320 1.383 1_545 S
C317 N316 1.376 . S
C317 C318 1.446 1_545 S
C317 C340 1.391 . S
C318 C317 1.446 1_565 S
C318 C319 1.339 . S
C318 H347 0.949 . S
C319 C318 1.339 . S
C319 C320 1.439 . S
C319 H348 0.950 . S
C320 N316 1.383 1_565 S
C320 C319 1.439 . S
C320 C338 1.392 . S
N321 Co305 2.282 . S
N321 C324 1.332 . S
N321 C326 1.332 . S
C322 C323 1.386 . S
C322 C325 1.388 . S
C323 C322 1.386 . S
C323 C324 1.382 . S
C323 H349 0.950 . S
C324 N321 1.332 . S
C324 C323 1.382 . S
C324 H335 0.952 . S
C325 C322 1.388 . S
C325 C326 1.382 . S
C325 H350 0.950 . S
C326 N321 1.332 . S
C326 C325 1.382 . S
C326 H336 0.948 . S
N327 Co305 2.282 . S
N327 C331 1.332 . S
N327 C332 1.332 1_545 S
C328 C329 1.388 . S
C328 C332 1.382 . S
C328 H351 0.950 . S
C329 C328 1.388 . S
C329 C330 1.386 . S
C330 C329 1.386 . S
C330 C331 1.382 1_565 S
C330 H352 0.950 . S
C331 N327 1.332 . S
C331 C330 1.382 1_545 S
C331 H333 0.952 . S
C332 N327 1.332 1_565 S
C332 C328 1.382 . S
C332 H334 0.948 . S
H333 C331 0.952 . S
H334 C332 0.948 . S
H335 C324 0.952 . S
H336 C326 0.948 . S
C337 C303 1.395 . S
C337 C307 1.391 . S
C338 C300 1.389 . S
C338 C320 1.392 . S
C339 C310 1.392 . S
C339 C312 1.389 . S
C340 C315 1.395 . S
C340 C317 1.391 . S
H341 C301 0.951 . S
H342 C302 0.950 1_455 S
H343 C308 0.949 1_455 S
H344 C309 0.950 . S
H345 C313 0.951 . S
H346 C314 0.950 . S
H347 C318 0.949 . S
H348 C319 0.950 . S
H349 C323 0.950 . S
H350 C325 0.950 . S
H351 C328 0.950 . S
H352 C330 0.950 . S
C353 C354 1.443 . S
C353 N357 1.376 . S
C353 C391 1.389 . S
C354 C353 1.443 . S
C354 C355 1.340 . S
C354 H394 0.951 . S
C355 C354 1.340 . S
C355 C356 1.439 . S
C355 H395 0.950 . S
C356 C355 1.439 . S
C356 N357 1.374 . S
C356 C390 1.395 . S
N357 C353 1.376 . S
N357 C356 1.374 . S
N357 Co358 2.008 . S
Co358 N357 2.008 . S
Co358 N359 1.995 . S
Co358 N364 2.008 . S
Co358 N369 1.995 . S
Co358 N374 2.282 . S
Co358 N380 2.282 . S
N359 Co358 1.995 . S
N359 C360 1.376 . S
N359 C363 1.383 . S
C360 N359 1.376 . S
C360 C361 1.446 . S
C360 C390 1.391 . S
C361 C360 1.446 . S
C361 C362 1.339 . S
C361 H396 0.949 . S
C362 C361 1.339 . S
C362 C363 1.439 . S
C362 H397 0.950 . S
C363 N359 1.383 . S
C363 C362 1.439 . S
C363 C392 1.392 . S
N364 Co358 2.008 . S
N364 C365 1.376 . S
N364 C368 1.374 . S
C365 N364 1.376 . S
C365 C366 1.443 . S
C365 C392 1.389 . S
C366 C365 1.443 . S
C366 C367 1.340 . S
C366 H398 0.951 . S
C367 C366 1.340 . S
C367 C368 1.439 . S
C367 H399 0.950 . S
C368 N364 1.374 . S
C368 C367 1.439 . S
C368 C393 1.395 . S
N369 Co358 1.995 . S
N369 C370 1.376 . S
N369 C373 1.383 . S
C370 N369 1.376 . S
C370 C371 1.446 . S
C370 C393 1.391 . S
C371 C370 1.446 . S
C371 C372 1.339 . S
C371 H400 0.949 . S
C372 C371 1.339 . S
C372 C373 1.439 . S
C372 H401 0.950 . S
C373 N369 1.383 . S
C373 C372 1.439 . S
C373 C391 1.392 . S
N374 Co358 2.282 . S
N374 C377 1.332 . S
N374 C379 1.332 . S
C375 C376 1.386 . S
C375 C378 1.388 . S
C376 C375 1.386 . S
C376 C377 1.382 . S
C376 H402 0.950 . S
C377 N374 1.332 . S
C377 C376 1.382 . S
C377 H388 0.952 . S
C378 C375 1.388 . S
C378 C379 1.382 . S
C378 H403 0.950 . S
C379 N374 1.332 . S
C379 C378 1.382 . S
C379 H389 0.948 . S
N380 Co358 2.282 . S
N380 C384 1.332 . S
N380 C385 1.332 . S
C381 C382 1.388 . S
C381 C385 1.382 . S
C381 H404 0.950 . S
C382 C381 1.388 . S
C382 C383 1.386 . S
C383 C382 1.386 . S
C383 C384 1.382 . S
C383 H405 0.950 . S
C384 N380 1.332 . S
C384 C383 1.382 . S
C384 H386 0.952 . S
C385 N380 1.332 . S
C385 C381 1.382 . S
C385 H387 0.948 . S
H386 C384 0.952 . S
H387 C385 0.948 . S
H388 C377 0.952 . S
H389 C379 0.948 . S
C390 C356 1.395 . S
C390 C360 1.391 . S
C391 C353 1.389 . S
C391 C373 1.392 . S
C392 C363 1.392 . S
C392 C365 1.389 . S
C393 C368 1.395 . S
C393 C370 1.391 . S
H394 C354 0.951 . S
H395 C355 0.950 . S
H396 C361 0.949 . S
H397 C362 0.950 . S
H398 C366 0.951 . S
H399 C367 0.950 . S
H400 C371 0.949 . S
H401 C372 0.950 . S
H402 C376 0.950 . S
H403 C378 0.950 . S
H404 C381 0.950 . S
H405 C383 0.950 . S
H406 C412 0.930 . S
H407 C416 0.930 . S
H408 C421 0.929 . S
H409 C419 0.929 . S
H410 C414 0.929 . S
H411 C420 0.929 . S
C412 H406 0.930 . S
C412 C413 1.367 . S
C412 C420 1.378 . S
C413 C412 1.367 . S
C413 C421 1.433 . S
C414 H410 0.929 . S
C414 C416 1.378 . S
C414 C418 1.350 . S
C415 C418 1.463 . S
C415 C420 1.350 . S
C415 N423 1.427 . S
C416 H407 0.930 . S
C416 C414 1.378 . S
C416 C417 1.367 . S
C417 C416 1.367 . S
C417 C419 1.433 . S
C418 C414 1.350 . S
C418 C415 1.463 . S
C418 N422 1.427 . S
C419 H409 0.929 . S
C419 C417 1.433 . S
C419 N422 1.384 . S
C420 H411 0.929 . S
C420 C412 1.378 . S
C420 C415 1.350 . S
C421 H408 0.929 . S
C421 C413 1.433 . S
C421 N423 1.384 . S
N422 C418 1.427 . S
N422 C419 1.384 . S
N423 C415 1.427 . S
N423 C421 1.384 . S
H424 C430 0.930 . S
H425 C434 0.930 . S
H426 C439 0.929 . S
H427 C437 0.929 . S
H428 C432 0.929 . S
H429 C438 0.929 . S
C430 H424 0.930 . S
C430 C431 1.367 . S
C430 C438 1.378 . S
C431 C430 1.367 . S
C431 C439 1.433 . S
C432 H428 0.929 . S
C432 C434 1.378 . S
C432 C436 1.350 . S
C433 C436 1.463 . S
C433 C438 1.350 . S
C433 N441 1.427 . S
C434 H425 0.930 . S
C434 C432 1.378 . S
C434 C435 1.367 . S
C435 C434 1.367 . S
C435 C437 1.433 . S
C436 C432 1.350 . S
C436 C433 1.463 . S
C436 N440 1.427 . S
C437 H427 0.929 . S
C437 C435 1.433 . S
C437 N440 1.384 . S
C438 H429 0.929 . S
C438 C430 1.378 . S
C438 C433 1.350 . S
C439 H426 0.929 . S
C439 C431 1.433 . S
C439 N441 1.384 . S
N440 C436 1.427 . S
N440 C437 1.384 . S
N441 C433 1.427 . S
N441 C439 1.384 . S
H442 C448 0.930 . S
H443 C452 0.930 . S
H444 C457 0.929 . S
H445 C455 0.929 . S
H446 C450 0.929 . S
H447 C456 0.929 . S
C448 H442 0.930 . S
C448 C449 1.367 . S
C448 C456 1.378 . S
C449 C448 1.367 . S
C449 C457 1.433 . S
C450 H446 0.929 . S
C450 C452 1.378 . S
C450 C454 1.350 . S
C451 C454 1.463 . S
C451 C456 1.350 . S
C451 N459 1.427 . S
C452 H443 0.930 . S
C452 C450 1.378 . S
C452 C453 1.367 . S
C453 C452 1.367 . S
C453 C455 1.433 . S
C454 C450 1.350 . S
C454 C451 1.463 . S
C454 N458 1.427 . S
C455 H445 0.929 . S
C455 C453 1.433 . S
C455 N458 1.384 . S
C456 H447 0.929 . S
C456 C448 1.378 . S
C456 C451 1.350 . S
C457 H444 0.929 . S
C457 C449 1.433 . S
C457 N459 1.384 . S
N458 C454 1.427 . S
N458 C455 1.384 . S
N459 C451 1.427 . S
N459 C457 1.384 . S
H460 C466 0.930 . S
H461 C470 0.930 . S
H462 C475 0.929 . S
H463 C473 0.929 . S
H464 C468 0.929 . S
H465 C474 0.929 . S
C466 H460 0.930 . S
C466 C467 1.367 . S
C466 C474 1.378 . S
C467 C466 1.367 . S
C467 C475 1.433 . S
C468 H464 0.929 . S
C468 C470 1.378 . S
C468 C472 1.350 . S
C469 C472 1.463 . S
C469 C474 1.350 . S
C469 N477 1.427 . S
C470 H461 0.930 . S
C470 C468 1.378 . S
C470 C471 1.367 . S
C471 C470 1.367 . S
C471 C473 1.433 . S
C472 C468 1.350 . S
C472 C469 1.463 . S
C472 N476 1.427 . S
C473 H463 0.929 . S
C473 C471 1.433 . S
C473 N476 1.384 . S
C474 H465 0.929 . S
C474 C466 1.378 . S
C474 C469 1.350 . S
C475 H462 0.929 . S
C475 C467 1.433 . S
C475 N477 1.384 . S
N476 C472 1.427 . S
N476 C473 1.384 . S
N477 C469 1.427 . S
N477 C475 1.384 . S
H478 C484 0.930 . S
H479 C488 0.930 . S
H480 C493 0.929 . S
H481 C491 0.929 . S
H482 C486 0.929 . S
H483 C492 0.929 . S
C484 H478 0.930 . S
C484 C485 1.367 . S
C484 C492 1.378 . S
C485 C484 1.367 . S
C485 C493 1.433 . S
C486 H482 0.929 . S
C486 C488 1.378 . S
C486 C490 1.350 . S
C487 C490 1.463 . S
C487 C492 1.350 . S
C487 N495 1.427 . S
C488 H479 0.930 . S
C488 C486 1.378 . S
C488 C489 1.367 . S
C489 C488 1.367 . S
C489 C491 1.433 . S
C490 C486 1.350 . S
C490 C487 1.463 . S
C490 N494 1.427 . S
C491 H481 0.929 . S
C491 C489 1.433 . S
C491 N494 1.384 . S
C492 H483 0.929 . S
C492 C484 1.378 . S
C492 C487 1.350 . S
C493 H480 0.929 . S
C493 C485 1.433 . S
C493 N495 1.384 . S
N494 C490 1.427 . S
N494 C491 1.384 . S
N495 C487 1.427 . S
N495 C493 1.384 . S
H496 C502 0.930 . S
H497 C506 0.930 . S
H498 C511 0.929 . S
H499 C509 0.929 . S
H500 C504 0.929 . S
H501 C510 0.929 . S
C502 H496 0.930 . S
C502 C503 1.367 . S
C502 C510 1.378 . S
C503 C502 1.367 . S
C503 C511 1.433 . S
C504 H500 0.929 . S
C504 C506 1.378 . S
C504 C508 1.350 . S
C505 C508 1.463 . S
C505 C510 1.350 . S
C505 N513 1.427 . S
C506 H497 0.930 . S
C506 C504 1.378 . S
C506 C507 1.367 . S
C507 C506 1.367 . S
C507 C509 1.433 . S
C508 C504 1.350 . S
C508 C505 1.463 . S
C508 N512 1.427 . S
C509 H499 0.929 . S
C509 C507 1.433 . S
C509 N512 1.384 . S
C510 H501 0.929 . S
C510 C502 1.378 . S
C510 C505 1.350 . S
C511 H498 0.929 . S
C511 C503 1.433 . S
C511 N513 1.384 . S
N512 C508 1.427 . S
N512 C509 1.384 . S
N513 C505 1.427 . S
N513 C511 1.384 . S
H514 C520 0.930 . S
H515 C524 0.930 . S
H516 C529 0.929 . S
H517 C527 0.929 . S
H518 C522 0.929 . S
H519 C528 0.929 . S
C520 H514 0.930 . S
C520 C521 1.367 . S
C520 C528 1.378 . S
C521 C520 1.367 . S
C521 C529 1.433 . S
C522 H518 0.929 . S
C522 C524 1.378 . S
C522 C526 1.350 . S
C523 C526 1.463 . S
C523 C528 1.350 . S
C523 N531 1.427 . S
C524 H515 0.930 . S
C524 C522 1.378 . S
C524 C525 1.367 . S
C525 C524 1.367 . S
C525 C527 1.433 . S
C526 C522 1.350 . S
C526 C523 1.463 . S
C526 N530 1.427 . S
C527 H517 0.929 . S
C527 C525 1.433 . S
C527 N530 1.384 . S
C528 H519 0.929 . S
C528 C520 1.378 . S
C528 C523 1.350 . S
C529 H516 0.929 . S
C529 C521 1.433 . S
C529 N531 1.384 . S
N530 C526 1.427 . S
N530 C527 1.384 . S
N531 C523 1.427 . S
N531 C529 1.384 . S
H532 C538 0.930 . S
H533 C542 0.930 . S
H534 C547 0.929 . S
H535 C545 0.929 . S
H536 C540 0.929 . S
H537 C546 0.929 . S
C538 H532 0.930 . S
C538 C539 1.367 . S
C538 C546 1.378 . S
C539 C538 1.367 . S
C539 C547 1.433 . S
C540 H536 0.929 . S
C540 C542 1.378 . S
C540 C544 1.350 . S
C541 C544 1.456 1_556 S
C541 C546 1.356 . S
C541 N549 1.426 1_556 S
C542 H533 0.930 . S
C542 C540 1.378 . S
C542 C543 1.367 . S
C543 C542 1.367 . S
C543 C545 1.433 . S
C544 C540 1.350 . S
C544 C541 1.456 1_554 S
C544 N548 1.427 . S
C545 H535 0.929 . S
C545 C543 1.433 . S
C545 N548 1.384 . S
C546 H537 0.929 . S
C546 C538 1.378 . S
C546 C541 1.356 . S
C547 H534 0.929 . S
C547 C539 1.433 . S
C547 N549 1.384 1_556 S
N548 C544 1.427 . S
N548 C545 1.384 . S
N549 C541 1.426 1_554 S
N549 C547 1.384 1_554 S
H550 C556 0.930 . S
H551 C560 0.930 . S
H552 C565 0.929 . S
H553 C563 0.929 . S
H554 C558 0.929 . S
H555 C564 0.929 . S
C556 H550 0.930 . S
C556 C557 1.367 . S
C556 C564 1.378 . S
C557 C556 1.367 . S
C557 C565 1.433 . S
C558 H554 0.929 . S
C558 C560 1.378 . S
C558 C562 1.350 . S
C559 C562 1.463 . S
C559 C564 1.350 . S
C559 N567 1.427 . S
C560 H551 0.930 . S
C560 C558 1.378 . S
C560 C561 1.367 . S
C561 C560 1.367 . S
C561 C563 1.433 . S
C562 C558 1.350 . S
C562 C559 1.463 . S
C562 N566 1.427 . S
C563 H553 0.929 . S
C563 C561 1.433 . S
C563 N566 1.384 . S
C564 H555 0.929 . S
C564 C556 1.378 . S
C564 C559 1.350 . S
C565 H552 0.929 . S
C565 C557 1.433 . S
C565 N567 1.384 . S
N566 C562 1.427 . S
N566 C563 1.384 . S
N567 C559 1.427 . S
N567 C565 1.384 . S
H568 C574 0.930 . S
H569 C578 0.930 . S
H570 C583 0.929 . S
H571 C581 0.929 . S
H572 C576 0.929 . S
H573 C582 0.929 . S
C574 H568 0.930 . S
C574 C575 1.367 . S
C574 C582 1.378 . S
C575 C574 1.367 . S
C575 C583 1.433 . S
C576 H572 0.929 . S
C576 C578 1.378 . S
C576 C580 1.350 . S
C577 C580 1.463 . S
C577 C582 1.350 . S
C577 N585 1.427 . S
C578 H569 0.930 . S
C578 C576 1.378 . S
C578 C579 1.367 . S
C579 C578 1.367 . S
C579 C581 1.433 . S
C580 C576 1.350 . S
C580 C577 1.463 . S
C580 N584 1.427 . S
C581 H571 0.929 . S
C581 C579 1.433 . S
C581 N584 1.384 . S
C582 H573 0.929 . S
C582 C574 1.378 . S
C582 C577 1.350 . S
C583 H570 0.929 . S
C583 C575 1.433 . S
C583 N585 1.384 . S
N584 C580 1.427 . S
N584 C581 1.384 . S
N585 C577 1.427 . S
N585 C583 1.384 . S
H586 C592 0.930 . S
H587 C596 0.930 . S
H588 C601 0.929 . S
H589 C599 0.929 . S
H590 C594 0.929 . S
H591 C600 0.929 . S
C592 H586 0.930 . S
C592 C593 1.367 . S
C592 C600 1.378 . S
C593 C592 1.367 . S
C593 C601 1.433 . S
C594 H590 0.929 . S
C594 C596 1.378 . S
C594 C598 1.350 . S
C595 C598 1.463 . S
C595 C600 1.350 . S
C595 N603 1.427 . S
C596 H587 0.930 . S
C596 C594 1.378 . S
C596 C597 1.367 . S
C597 C596 1.367 . S
C597 C599 1.433 . S
C598 C594 1.350 . S
C598 C595 1.463 . S
C598 N602 1.427 . S
C599 H589 0.929 . S
C599 C597 1.433 . S
C599 N602 1.384 . S
C600 H591 0.929 . S
C600 C592 1.378 . S
C600 C595 1.350 . S
C601 H588 0.929 . S
C601 C593 1.433 . S
C601 N603 1.384 . S
N602 C598 1.427 . S
N602 C599 1.384 . S
N603 C595 1.427 . S
N603 C601 1.384 . S
H604 C610 0.930 . S
H605 C614 0.930 . S
H606 C619 0.929 . S
H607 C617 0.929 . S
H608 C612 0.929 . S
H609 C618 0.929 . S
C610 H604 0.930 . S
C610 C611 1.367 . S
C610 C618 1.378 . S
C611 C610 1.367 . S
C611 C619 1.433 . S
C612 H608 0.929 . S
C612 C614 1.378 . S
C612 C616 1.350 . S
C613 C616 1.463 . S
C613 C618 1.350 . S
C613 N621 1.427 . S
C614 H605 0.930 . S
C614 C612 1.378 . S
C614 C615 1.367 . S
C615 C614 1.367 . S
C615 C617 1.433 . S
C616 C612 1.350 . S
C616 C613 1.463 . S
C616 N620 1.427 . S
C617 H607 0.929 . S
C617 C615 1.433 . S
C617 N620 1.384 . S
C618 H609 0.929 . S
C618 C610 1.378 . S
C618 C613 1.350 . S
C619 H606 0.929 . S
C619 C611 1.433 . S
C619 N621 1.384 . S
N620 C616 1.427 . S
N620 C617 1.384 . S
N621 C613 1.427 . S
N621 C619 1.384 . S
H622 C628 0.930 . S
H623 C632 0.930 . S
H624 C637 0.929 . S
H625 C635 0.929 . S
H626 C630 0.929 . S
H627 C636 0.929 . S
C628 H622 0.930 . S
C628 C629 1.367 . S
C628 C636 1.378 . S
C629 C628 1.367 . S
C629 C637 1.433 . S
C630 H626 0.929 . S
C630 C632 1.378 . S
C630 C634 1.350 . S
C631 C634 1.463 . S
C631 C636 1.350 . S
C631 N639 1.427 . S
C632 H623 0.930 . S
C632 C630 1.378 . S
C632 C633 1.367 . S
C633 C632 1.367 . S
C633 C635 1.433 . S
C634 C630 1.350 . S
C634 C631 1.463 . S
C634 N638 1.427 . S
C635 H625 0.929 . S
C635 C633 1.433 . S
C635 N638 1.384 . S
C636 H627 0.929 . S
C636 C628 1.378 . S
C636 C631 1.350 . S
C637 H624 0.929 . S
C637 C629 1.433 . S
C637 N639 1.384 . S
N638 C634 1.427 . S
N638 C635 1.384 . S
N639 C631 1.427 . S
N639 C637 1.384 . S
H640 C646 0.930 . S
H641 C650 0.930 . S
H642 C655 0.929 . S
H643 C653 0.929 . S
H644 C648 0.929 . S
H645 C654 0.929 . S
C646 H640 0.930 . S
C646 C647 1.367 . S
C646 C654 1.378 . S
C647 C646 1.367 . S
C647 C655 1.433 . S
C648 H644 0.929 . S
C648 C650 1.378 . S
C648 C652 1.350 . S
C649 C652 1.463 . S
C649 C654 1.350 . S
C649 N657 1.427 . S
C650 H641 0.930 . S
C650 C648 1.378 . S
C650 C651 1.367 . S
C651 C650 1.367 . S
C651 C653 1.433 . S
C652 C648 1.350 . S
C652 C649 1.463 . S
C652 N656 1.427 . S
C653 H643 0.929 . S
C653 C651 1.433 . S
C653 N656 1.384 . S
C654 H645 0.929 . S
C654 C646 1.378 . S
C654 C649 1.350 . S
C655 H642 0.929 . S
C655 C647 1.433 . S
C655 N657 1.384 . S
N656 C652 1.427 . S
N656 C653 1.384 . S
N657 C649 1.427 . S
N657 C655 1.384 . S
H658 C664 0.930 . S
H659 C668 0.930 . S
H660 C673 0.929 . S
H661 C671 0.929 . S
H662 C666 0.929 . S
H663 C672 0.929 . S
C664 H658 0.930 . S
C664 C665 1.367 . S
C664 C672 1.378 . S
C665 C664 1.367 . S
C665 C673 1.433 . S
C666 H662 0.929 . S
C666 C668 1.378 . S
C666 C670 1.350 . S
C667 C670 1.463 . S
C667 C672 1.350 . S
C667 N675 1.427 . S
C668 H659 0.930 . S
C668 C666 1.378 . S
C668 C669 1.367 . S
C669 C668 1.367 . S
C669 C671 1.433 . S
C670 C666 1.350 . S
C670 C667 1.463 . S
C670 N674 1.427 . S
C671 H661 0.929 . S
C671 C669 1.433 . S
C671 N674 1.384 . S
C672 H663 0.929 . S
C672 C664 1.378 . S
C672 C667 1.350 . S
C673 H660 0.929 . S
C673 C665 1.433 . S
C673 N675 1.384 . S
N674 C670 1.427 . S
N674 C671 1.384 . S
N675 C667 1.427 . S
N675 C673 1.384 . S
H676 C682 0.930 . S
H677 C686 0.930 . S
H678 C691 0.929 . S
H679 C689 0.929 . S
H680 C684 0.929 . S
H681 C690 0.929 . S
C682 H676 0.930 . S
C682 C683 1.367 . S
C682 C690 1.378 . S
C683 C682 1.367 . S
C683 C691 1.433 . S
C684 H680 0.929 . S
C684 C686 1.378 . S
C684 C688 1.350 . S
C685 C688 1.463 . S
C685 C690 1.350 . S
C685 N693 1.427 . S
C686 H677 0.930 . S
C686 C684 1.378 . S
C686 C687 1.367 . S
C687 C686 1.367 . S
C687 C689 1.433 . S
C688 C684 1.350 . S
C688 C685 1.463 . S
C688 N692 1.427 . S
C689 H679 0.929 . S
C689 C687 1.433 . S
C689 N692 1.384 . S
C690 H681 0.929 . S
C690 C682 1.378 . S
C690 C685 1.350 . S
C691 H678 0.929 . S
C691 C683 1.433 . S
C691 N693 1.384 . S
N692 C688 1.427 . S
N692 C689 1.384 . S
N693 C685 1.427 . S
N693 C691 1.384 . S
H694 C700 0.930 . S
H695 C704 0.930 . S
H696 C709 0.929 . S
H697 C707 0.929 . S
H698 C702 0.929 . S
H699 C708 0.929 . S
C700 H694 0.930 . S
C700 C701 1.367 . S
C700 C708 1.378 . S
C701 C700 1.367 . S
C701 C709 1.433 . S
C702 H698 0.929 . S
C702 C704 1.378 . S
C702 C706 1.350 . S
C703 C706 1.463 . S
C703 C708 1.350 . S
C703 N711 1.427 . S
C704 H695 0.930 . S
C704 C702 1.378 . S
C704 C705 1.367 . S
C705 C704 1.367 . S
C705 C707 1.433 . S
C706 C702 1.350 . S
C706 C703 1.463 . S
C706 N710 1.427 . S
C707 H697 0.929 . S
C707 C705 1.433 . S
C707 N710 1.384 . S
C708 H699 0.929 . S
C708 C700 1.378 . S
C708 C703 1.350 . S
C709 H696 0.929 . S
C709 C701 1.433 . S
C709 N711 1.384 . S
N710 C706 1.427 . S
N710 C707 1.384 . S
N711 C703 1.427 . S
N711 C709 1.384 . S
H712 C718 0.930 . S
H713 C722 0.930 . S
H714 C727 0.929 . S
H715 C725 0.929 . S
H716 C720 0.929 . S
H717 C726 0.929 . S
C718 H712 0.930 . S
C718 C719 1.367 . S
C718 C726 1.378 . S
C719 C718 1.367 . S
C719 C727 1.433 . S
C720 H716 0.929 . S
C720 C722 1.378 . S
C720 C724 1.350 . S
C721 C724 1.463 . S
C721 C726 1.350 . S
C721 N729 1.427 . S
C722 H713 0.930 . S
C722 C720 1.378 . S
C722 C723 1.367 . S
C723 C722 1.367 . S
C723 C725 1.433 . S
C724 C720 1.350 . S
C724 C721 1.463 . S
C724 N728 1.427 . S
C725 H715 0.929 . S
C725 C723 1.433 . S
C725 N728 1.384 . S
C726 H717 0.929 . S
C726 C718 1.378 . S
C726 C721 1.350 . S
C727 H714 0.929 . S
C727 C719 1.433 . S
C727 N729 1.384 . S
N728 C724 1.427 . S
N728 C725 1.384 . S
N729 C721 1.427 . S
N729 C727 1.384 . S
H730 C736 0.930 . S
H731 C740 0.930 . S
H732 C745 0.929 . S
H733 C743 0.929 . S
H734 C738 0.929 . S
H735 C744 0.929 . S
C736 H730 0.930 . S
C736 C737 1.367 . S
C736 C744 1.378 . S
C737 C736 1.367 . S
C737 C745 1.433 . S
C738 H734 0.929 . S
C738 C740 1.378 . S
C738 C742 1.350 . S
C739 C742 1.463 . S
C739 C744 1.350 . S
C739 N747 1.427 . S
C740 H731 0.930 . S
C740 C738 1.378 . S
C740 C741 1.367 . S
C741 C740 1.367 . S
C741 C743 1.433 . S
C742 C738 1.350 . S
C742 C739 1.463 . S
C742 N746 1.427 . S
C743 H733 0.929 . S
C743 C741 1.433 . S
C743 N746 1.384 . S
C744 H735 0.929 . S
C744 C736 1.378 . S
C744 C739 1.350 . S
C745 H732 0.929 . S
C745 C737 1.433 . S
C745 N747 1.384 . S
N746 C742 1.427 . S
N746 C743 1.384 . S
N747 C739 1.427 . S
N747 C745 1.384 . S
H748 C754 0.930 . S
H749 C758 0.930 . S
H750 C763 0.929 . S
H751 C761 0.929 . S
H752 C756 0.929 . S
H753 C762 0.929 . S
C754 H748 0.930 . S
C754 C755 1.367 . S
C754 C762 1.378 . S
C755 C754 1.367 . S
C755 C763 1.433 . S
C756 H752 0.929 . S
C756 C758 1.378 . S
C756 C760 1.350 . S
C757 C760 1.463 . S
C757 C762 1.350 . S
C757 N765 1.427 . S
C758 H749 0.930 . S
C758 C756 1.378 . S
C758 C759 1.367 . S
C759 C758 1.367 . S
C759 C761 1.433 . S
C760 C756 1.350 . S
C760 C757 1.463 . S
C760 N764 1.427 . S
C761 H751 0.929 . S
C761 C759 1.433 . S
C761 N764 1.384 . S
C762 H753 0.929 . S
C762 C754 1.378 . S
C762 C757 1.350 . S
C763 H750 0.929 . S
C763 C755 1.433 . S
C763 N765 1.384 . S
N764 C760 1.427 . S
N764 C761 1.384 . S
N765 C757 1.427 . S
N765 C763 1.384 . S
H766 C772 0.930 . S
H767 C776 0.930 . S
H768 C781 0.929 . S
H769 C779 0.929 . S
H770 C774 0.929 . S
H771 C780 0.929 . S
C772 H766 0.930 . S
C772 C773 1.367 . S
C772 C780 1.378 . S
C773 C772 1.367 . S
C773 C781 1.433 . S
C774 H770 0.929 . S
C774 C776 1.378 . S
C774 C778 1.350 . S
C775 C778 1.463 . S
C775 C780 1.350 . S
C775 N783 1.427 . S
C776 H767 0.930 . S
C776 C774 1.378 . S
C776 C777 1.367 . S
C777 C776 1.367 . S
C777 C779 1.433 . S
C778 C774 1.350 . S
C778 C775 1.463 . S
C778 N782 1.427 . S
C779 H769 0.929 . S
C779 C777 1.433 . S
C779 N782 1.384 . S
C780 H771 0.929 . S
C780 C772 1.378 . S
C780 C775 1.350 . S
C781 H768 0.929 . S
C781 C773 1.433 . S
C781 N783 1.384 . S
N782 C778 1.427 . S
N782 C779 1.384 . S
N783 C775 1.427 . S
N783 C781 1.384 . S
H784 C790 0.930 . S
H785 C794 0.930 . S
H786 C799 0.929 . S
H787 C797 0.931 . S
H788 C792 0.929 . S
H789 C798 0.929 . S
C790 H784 0.930 . S
C790 C791 1.367 . S
C790 C798 1.378 . S
C791 C790 1.367 . S
C791 C799 1.433 . S
C792 H788 0.929 . S
C792 C794 1.378 . S
C792 C796 1.350 1_554 S
C793 C796 1.463 . S
C793 C798 1.350 . S
C793 N801 1.427 . S
C794 H785 0.930 . S
C794 C792 1.378 . S
C794 C795 1.367 . S
C795 C794 1.367 . S
C795 C797 1.421 1_554 S
C796 C792 1.350 1_556 S
C796 C793 1.463 . S
C796 N800 1.427 . S
C797 H787 0.931 . S
C797 C795 1.421 1_556 S
C797 N800 1.394 . S
C798 H789 0.929 . S
C798 C790 1.378 . S
C798 C793 1.350 . S
C799 H786 0.929 . S
C799 C791 1.433 . S
C799 N801 1.384 . S
N800 C796 1.427 . S
N800 C797 1.394 . S
N801 C793 1.427 . S
N801 C799 1.384 . S
H802 C808 0.930 . S
H803 C812 0.930 . S
H804 C817 0.929 . S
H805 C815 0.929 . S
H806 C810 0.929 . S
H807 C816 0.929 . S
C808 H802 0.930 . S
C808 C809 1.367 . S
C808 C816 1.378 . S
C809 C808 1.367 . S
C809 C817 1.433 . S
C810 H806 0.929 . S
C810 C812 1.378 . S
C810 C814 1.350 . S
C811 C814 1.463 . S
C811 C816 1.350 . S
C811 N819 1.427 . S
C812 H803 0.930 . S
C812 C810 1.378 . S
C812 C813 1.367 . S
C813 C812 1.367 . S
C813 C815 1.433 . S
C814 C810 1.350 . S
C814 C811 1.463 . S
C814 N818 1.427 . S
C815 H805 0.929 . S
C815 C813 1.433 . S
C815 N818 1.384 . S
C816 H807 0.929 . S
C816 C808 1.378 . S
C816 C811 1.350 . S
C817 H804 0.929 . S
C817 C809 1.433 . S
C817 N819 1.384 . S
N818 C814 1.427 . S
N818 C815 1.384 . S
N819 C811 1.427 . S
N819 C817 1.384 . S
H820 C826 0.930 . S
H821 C830 0.930 . S
H822 C835 0.929 . S
H823 C833 0.929 . S
H824 C828 0.929 . S
H825 C834 0.929 . S
C826 H820 0.930 . S
C826 C827 1.367 . S
C826 C834 1.378 . S
C827 C826 1.367 . S
C827 C835 1.433 . S
C828 H824 0.929 . S
C828 C830 1.378 . S
C828 C832 1.350 . S
C829 C832 1.463 . S
C829 C834 1.350 . S
C829 N837 1.427 . S
C830 H821 0.930 . S
C830 C828 1.378 . S
C830 C831 1.367 . S
C831 C830 1.367 . S
C831 C833 1.433 . S
C832 C828 1.350 . S
C832 C829 1.463 . S
C832 N836 1.427 . S
C833 H823 0.929 . S
C833 C831 1.433 . S
C833 N836 1.384 . S
C834 H825 0.929 . S
C834 C826 1.378 . S
C834 C829 1.350 . S
C835 H822 0.929 . S
C835 C827 1.433 . S
C835 N837 1.384 . S
N836 C832 1.427 . S
N836 C833 1.384 . S
N837 C829 1.427 . S
N837 C835 1.384 . S
C417 C110 1.660 . S
C413 C10 1.669 . S
C435 C179 1.461 . S
C431 C15 1.435 . S
C453 C117 1.647 . S
C449 C26 1.663 . S
C471 C180 1.464 . S
C467 C37 1.462 . S
C489 C233 1.775 . S
C485 C4 1.774 . S
C507 C269 1.479 . S
C503 C16 1.444 . S
C521 C27 1.763 . S
C525 C329 1.753 . S
C543 C392 1.490 . S
C539 C43 1.490 . S
C561 C232 1.584 . S
C557 C21 1.562 . S
C575 C32 1.440 . S
C579 C276 1.432 . S
C597 C322 1.762 . S
C593 C38 1.756 . S
C615 C391 1.703 . S
C611 C5 1.700 . S
C629 C49 1.497 . S
C633 C170 1.511 . S
C651 C127 1.736 1_655 S
C647 C60 1.762 . S
C665 C76 1.495 . S
C669 C163 1.494 . S
C683 C81 1.717 . S
C687 C126 1.722 . S
C705 C338 1.527 . S
C701 C54 1.528 . S
C723 C382 1.702 . S
C719 C59 1.713 . S
C741 C216 1.595 . S
C737 C70 1.597 . S
C755 C87 1.637 . S
C759 C285 1.624 . S
C777 C339 1.665 . S
C773 C65 1.671 . S
C795 C375 1.737 . S
C791 C71 1.714 . S
C813 C223 1.581 . S
C809 C82 1.584 . S
C827 C48 1.555 . S
C831 C286 1.555 . S
