# Generated by pormake.
# Topology eea, (3,6)-cn, num edge types: 1
# Building blocks:
#     Node 0, Type 0, BuildingBlock: ESEHIV_clean_linker_0, # of connection points: 3
#     Node 1, Type 0, BuildingBlock: ESEHIV_clean_linker_0, # of connection points: 3
#     Node 2, Type 0, BuildingBlock: ESEHIV_clean_linker_0, # of connection points: 3
#     Node 3, Type 0, BuildingBlock: ESEHIV_clean_linker_0, # of connection points: 3
#     Node 4, Type 0, BuildingBlock: ESEHIV_clean_linker_0, # of connection points: 3
#     Node 5, Type 0, BuildingBlock: ESEHIV_clean_linker_0, # of connection points: 3
#     Node 6, Type 0, BuildingBlock: ESEHIV_clean_linker_0, # of connection points: 3
#     Node 7, Type 0, BuildingBlock: ESEHIV_clean_linker_0, # of connection points: 3
#     Node 8, Type 0, BuildingBlock: ESEHIV_clean_linker_0, # of connection points: 3
#     Node 9, Type 0, BuildingBlock: ESEHIV_clean_linker_0, # of connection points: 3
#     Node 10, Type 0, BuildingBlock: ESEHIV_clean_linker_0, # of connection points: 3
#     Node 11, Type 0, BuildingBlock: ESEHIV_clean_linker_0, # of connection points: 3
#     Node 12, Type 0, BuildingBlock: ESEHIV_clean_linker_0, # of connection points: 3
#     Node 13, Type 0, BuildingBlock: ESEHIV_clean_linker_0, # of connection points: 3
#     Node 14, Type 0, BuildingBlock: ESEHIV_clean_linker_0, # of connection points: 3
#     Node 15, Type 0, BuildingBlock: ESEHIV_clean_linker_0, # of connection points: 3
#     Node 16, Type 0, BuildingBlock: ESEHIV_clean_linker_0, # of connection points: 3
#     Node 17, Type 0, BuildingBlock: ESEHIV_clean_linker_0, # of connection points: 3
#     Node 18, Type 1, BuildingBlock: HISSIN_clean_sbu_0, # of connection points: 6
#     Node 19, Type 1, BuildingBlock: HISSIN_clean_sbu_0, # of connection points: 6
#     Node 20, Type 1, BuildingBlock: HISSIN_clean_sbu_0, # of connection points: 6
#     Node 21, Type 1, BuildingBlock: HISSIN_clean_sbu_0, # of connection points: 6
#     Node 22, Type 1, BuildingBlock: HISSIN_clean_sbu_0, # of connection points: 6
#     Node 23, Type 1, BuildingBlock: HISSIN_clean_sbu_0, # of connection points: 6
#     Node 24, Type 1, BuildingBlock: HISSIN_clean_sbu_0, # of connection points: 6
#     Node 25, Type 1, BuildingBlock: HISSIN_clean_sbu_0, # of connection points: 6
#     Node 26, Type 1, BuildingBlock: HISSIN_clean_sbu_0, # of connection points: 6
#     Edge 27, Type (0, 1), BuildingBlock: AJUNOK_clean_linker_0, # of connection points: 2
#     Edge 28, Type (0, 1), BuildingBlock: AJUNOK_clean_linker_0, # of connection points: 2
#     Edge 29, Type (0, 1), BuildingBlock: AJUNOK_clean_linker_0, # of connection points: 2
#     Edge 30, Type (0, 1), BuildingBlock: AJUNOK_clean_linker_0, # of connection points: 2
#     Edge 31, Type (0, 1), BuildingBlock: AJUNOK_clean_linker_0, # of connection points: 2
#     Edge 32, Type (0, 1), BuildingBlock: AJUNOK_clean_linker_0, # of connection points: 2
#     Edge 33, Type (0, 1), BuildingBlock: AJUNOK_clean_linker_0, # of connection points: 2
#     Edge 34, Type (0, 1), BuildingBlock: AJUNOK_clean_linker_0, # of connection points: 2
#     Edge 35, Type (0, 1), BuildingBlock: AJUNOK_clean_linker_0, # of connection points: 2
#     Edge 36, Type (0, 1), BuildingBlock: AJUNOK_clean_linker_0, # of connection points: 2
#     Edge 37, Type (0, 1), BuildingBlock: AJUNOK_clean_linker_0, # of connection points: 2
#     Edge 38, Type (0, 1), BuildingBlock: AJUNOK_clean_linker_0, # of connection points: 2
#     Edge 39, Type (0, 1), BuildingBlock: AJUNOK_clean_linker_0, # of connection points: 2
#     Edge 40, Type (0, 1), BuildingBlock: AJUNOK_clean_linker_0, # of connection points: 2
#     Edge 41, Type (0, 1), BuildingBlock: AJUNOK_clean_linker_0, # of connection points: 2
#     Edge 42, Type (0, 1), BuildingBlock: AJUNOK_clean_linker_0, # of connection points: 2
#     Edge 43, Type (0, 1), BuildingBlock: AJUNOK_clean_linker_0, # of connection points: 2
#     Edge 44, Type (0, 1), BuildingBlock: AJUNOK_clean_linker_0, # of connection points: 2
#     Edge 45, Type (0, 1), BuildingBlock: AJUNOK_clean_linker_0, # of connection points: 2
#     Edge 46, Type (0, 1), BuildingBlock: AJUNOK_clean_linker_0, # of connection points: 2
#     Edge 47, Type (0, 1), BuildingBlock: AJUNOK_clean_linker_0, # of connection points: 2
#     Edge 48, Type (0, 1), BuildingBlock: AJUNOK_clean_linker_0, # of connection points: 2
#     Edge 49, Type (0, 1), BuildingBlock: AJUNOK_clean_linker_0, # of connection points: 2
#     Edge 50, Type (0, 1), BuildingBlock: AJUNOK_clean_linker_0, # of connection points: 2
#     Edge 51, Type (0, 1), BuildingBlock: AJUNOK_clean_linker_0, # of connection points: 2
#     Edge 52, Type (0, 1), BuildingBlock: AJUNOK_clean_linker_0, # of connection points: 2
#     Edge 53, Type (0, 1), BuildingBlock: AJUNOK_clean_linker_0, # of connection points: 2
#     Edge 54, Type (0, 1), BuildingBlock: AJUNOK_clean_linker_0, # of connection points: 2
#     Edge 55, Type (0, 1), BuildingBlock: AJUNOK_clean_linker_0, # of connection points: 2
#     Edge 56, Type (0, 1), BuildingBlock: AJUNOK_clean_linker_0, # of connection points: 2
#     Edge 57, Type (0, 1), BuildingBlock: AJUNOK_clean_linker_0, # of connection points: 2
#     Edge 58, Type (0, 1), BuildingBlock: AJUNOK_clean_linker_0, # of connection points: 2
#     Edge 59, Type (0, 1), BuildingBlock: AJUNOK_clean_linker_0, # of connection points: 2
#     Edge 60, Type (0, 1), BuildingBlock: AJUNOK_clean_linker_0, # of connection points: 2
#     Edge 61, Type (0, 1), BuildingBlock: AJUNOK_clean_linker_0, # of connection points: 2
#     Edge 62, Type (0, 1), BuildingBlock: AJUNOK_clean_linker_0, # of connection points: 2
#     Edge 63, Type (0, 1), BuildingBlock: AJUNOK_clean_linker_0, # of connection points: 2
#     Edge 64, Type (0, 1), BuildingBlock: AJUNOK_clean_linker_0, # of connection points: 2
#     Edge 65, Type (0, 1), BuildingBlock: AJUNOK_clean_linker_0, # of connection points: 2
#     Edge 66, Type (0, 1), BuildingBlock: AJUNOK_clean_linker_0, # of connection points: 2
#     Edge 67, Type (0, 1), BuildingBlock: AJUNOK_clean_linker_0, # of connection points: 2
#     Edge 68, Type (0, 1), BuildingBlock: AJUNOK_clean_linker_0, # of connection points: 2
#     Edge 69, Type (0, 1), BuildingBlock: AJUNOK_clean_linker_0, # of connection points: 2
#     Edge 70, Type (0, 1), BuildingBlock: AJUNOK_clean_linker_0, # of connection points: 2
#     Edge 71, Type (0, 1), BuildingBlock: AJUNOK_clean_linker_0, # of connection points: 2
#     Edge 72, Type (0, 1), BuildingBlock: AJUNOK_clean_linker_0, # of connection points: 2
#     Edge 73, Type (0, 1), BuildingBlock: AJUNOK_clean_linker_0, # of connection points: 2
#     Edge 74, Type (0, 1), BuildingBlock: AJUNOK_clean_linker_0, # of connection points: 2
#     Edge 75, Type (0, 1), BuildingBlock: AJUNOK_clean_linker_0, # of connection points: 2
#     Edge 76, Type (0, 1), BuildingBlock: AJUNOK_clean_linker_0, # of connection points: 2
#     Edge 77, Type (0, 1), BuildingBlock: AJUNOK_clean_linker_0, # of connection points: 2
#     Edge 78, Type (0, 1), BuildingBlock: AJUNOK_clean_linker_0, # of connection points: 2
#     Edge 79, Type (0, 1), BuildingBlock: AJUNOK_clean_linker_0, # of connection points: 2
#     Edge 80, Type (0, 1), BuildingBlock: AJUNOK_clean_linker_0, # of connection points: 2
# Relax obj value: 0.034
# Max RMSD: 0.130
# Mean RMSD: 0.111
data_MOF--net-eea--node1-HISSIN_clean_sbu_0--node2-ESEHIV_clean_linker_0--edge1-AJUNOK_clean_linker_0
_symmetry_space_group_name_H-M    P1
_symmetry_Int_Tables_number       1
_symmetry_cell_setting            triclinic
loop_
_symmetry_equiv_pos_as_xyz
'x, y, z'
_cell_length_a     34.42861
_cell_length_b     34.627913
_cell_length_c     55.422851
_cell_angle_alpha  92.819723
_cell_angle_beta   92.676358
_cell_angle_gamma 119.7609
loop_
_atom_site_label
_atom_site_type_symbol
_atom_site_fract_x
_atom_site_fract_y
_atom_site_fract_z
_atom_type_partial_charge
H0 H 0.28677 0.20576 0.45094 0.0
H1 H 0.28854 0.08243 0.45076 0.0
H2 H 0.22171 0.10632 0.3908 0.0
C3 C 0.27842 0.17373 0.44198 0.0
C4 C 0.25363 0.15958 0.41931 0.0
C5 C 0.29181 0.14633 0.45325 0.0
C6 C 0.27969 0.10446 0.44178 0.0
C7 C 0.25423 0.08975 0.41937 0.0
C8 C 0.24219 0.11789 0.40791 0.0
H9 H 0.83732 0.07235 0.46452 0.0
H10 H 0.95549 0.19961 0.45999 0.0
H11 H 0.89638 0.10745 0.39657 0.0
C12 C 0.86322 0.09562 0.45389 0.0
C13 C 0.86357 0.08368 0.42935 0.0
C14 C 0.89543 0.13776 0.46484 0.0
C15 C 0.92967 0.16773 0.45129 0.0
C16 C 0.93098 0.15609 0.42675 0.0
C17 C 0.89695 0.11482 0.41583 0.0
H18 H 0.81608 0.74112 0.45923 0.0
H19 H 0.94105 0.74128 0.45817 0.0
H20 H 0.89306 0.78267 0.39725 0.0
C21 C 0.84547 0.7471 0.45007 0.0
C22 C 0.85181 0.76486 0.4274 0.0
C23 C 0.87687 0.73724 0.46105 0.0
C24 C 0.91544 0.74627 0.4492 0.0
C25 C 0.92152 0.76252 0.42607 0.0
C26 C 0.88922 0.77119 0.41529 0.0
H27 H 0.05066 0.24304 0.59204 0.0
H28 H 0.17229 0.23764 0.58876 0.0
H29 H 0.10038 0.20314 0.65291 0.0
C30 C 0.0755 0.23632 0.6004 0.0
C31 C 0.07018 0.22069 0.62372 0.0
C32 C 0.1131 0.24386 0.58794 0.0
C33 C 0.14468 0.23415 0.59884 0.0
C34 C 0.14076 0.21976 0.62235 0.0
C35 C 0.10336 0.21326 0.63458 0.0
H36 H 0.71176 0.90878 0.60276 0.0
H37 H 0.70524 0.78142 0.60026 0.0
H38 H 0.7627 0.87218 0.66445 0.0
C39 C 0.71732 0.88447 0.61159 0.0
C40 C 0.73825 0.89503 0.63513 0.0
C41 C 0.70565 0.84373 0.59888 0.0
C42 C 0.71344 0.81263 0.61022 0.0
C43 C 0.73378 0.82263 0.63396 0.0
C44 C 0.74583 0.86376 0.64637 0.0
H45 H 0.04816 0.78377 0.59509 0.0
H46 H 0.17038 0.90836 0.59066 0.0
H47 H 0.09671 0.88711 0.65363 0.0
C48 C 0.07269 0.81699 0.60283 0.0
C49 C 0.06686 0.83285 0.62556 0.0
C50 C 0.11039 0.84389 0.59022 0.0
C51 C 0.1419 0.88691 0.60048 0.0
C52 C 0.13668 0.90295 0.62306 0.0
C53 C 0.09962 0.87547 0.63566 0.0
H54 H 0.95153 0.53935 0.7839 0.0
H55 H 0.94299 0.41171 0.78719 0.0
H56 H 0.88013 0.43691 0.72583 0.0
C57 C 0.93973 0.50578 0.77594 0.0
C58 C 0.91325 0.49093 0.75384 0.0
C59 C 0.94978 0.47712 0.78832 0.0
C60 C 0.93601 0.43436 0.77753 0.0
C61 C 0.91116 0.41981 0.75491 0.0
C62 C 0.89999 0.4483 0.74311 0.0
H63 H 0.49166 0.40727 0.7938 0.0
H64 H 0.61472 0.53054 0.7904 0.0
H65 H 0.55599 0.4371 0.72722 0.0
C66 C 0.51856 0.4297 0.78339 0.0
C67 C 0.51979 0.41701 0.75915 0.0
C68 C 0.55169 0.47125 0.79445 0.0
C69 C 0.58808 0.49932 0.78149 0.0
C70 C 0.59073 0.48651 0.75737 0.0
C71 C 0.55559 0.44605 0.74617 0.0
H72 H 0.47839 0.06677 0.79116 0.0
H73 H 0.59833 0.05734 0.78913 0.0
H74 H 0.56229 0.11692 0.73233 0.0
C75 C 0.50765 0.07194 0.78212 0.0
C76 C 0.51655 0.093 0.7604 0.0
C77 C 0.53662 0.05848 0.79257 0.0
C78 C 0.57574 0.06751 0.78124 0.0
C79 C 0.58519 0.08843 0.75938 0.0
C80 C 0.55528 0.10088 0.74914 0.0
H81 H 0.7195 0.5846 0.92913 0.0
H82 H 0.84407 0.58406 0.92508 0.0
H83 H 0.76419 0.53055 0.98504 0.0
C84 C 0.74394 0.57634 0.93645 0.0
C85 C 0.73629 0.55449 0.958 0.0
C86 C 0.78296 0.58742 0.92439 0.0
C87 C 0.81447 0.57671 0.93441 0.0
C88 C 0.80762 0.55552 0.95605 0.0
C89 C 0.76884 0.5453 0.96785 0.0
H90 H 0.36591 0.22653 0.93343 0.0
H91 H 0.37376 0.10642 0.93336 0.0
H92 H 0.43993 0.2082 0.99212 0.0
C93 C 0.37706 0.20605 0.9422 0.0
C94 C 0.40377 0.22225 0.96429 0.0
C95 C 0.36642 0.16449 0.93078 0.0
C96 C 0.38154 0.13845 0.94208 0.0
C97 C 0.40755 0.15398 0.96434 0.0
C98 C 0.41829 0.19562 0.97541 0.0
H99 H 0.73029 0.11566 0.93265 0.0
H100 H 0.85055 0.24239 0.93045 0.0
H101 H 0.76695 0.2208 0.98908 0.0
C102 C 0.75277 0.14938 0.94051 0.0
C103 C 0.74417 0.16423 0.96271 0.0
C104 C 0.7907 0.17768 0.92857 0.0
C105 C 0.82088 0.2206 0.93936 0.0
C106 C 0.81311 0.23578 0.9615 0.0
C107 C 0.77415 0.20795 0.97271 0.0
H108 H 0.60671 0.86188 0.11842 0.0
H109 H 0.61385 0.74148 0.11926 0.0
H110 H 0.55547 0.76637 0.05601 0.0
C111 C 0.60149 0.83112 0.10921 0.0
C112 C 0.58043 0.81784 0.08556 0.0
C113 C 0.61364 0.80369 0.12146 0.0
C114 C 0.60472 0.76293 0.10987 0.0
C115 C 0.58352 0.7492 0.08639 0.0
C116 C 0.57201 0.77702 0.07417 0.0
H117 H 0.15115 0.75172 0.12292 0.0
H118 H 0.27083 0.87883 0.1206 0.0
H119 H 0.22531 0.78048 0.05961 0.0
C120 C 0.17885 0.77465 0.11309 0.0
C121 C 0.18424 0.76112 0.08984 0.0
C122 C 0.20972 0.81708 0.12415 0.0
C123 C 0.24645 0.84641 0.1118 0.0
C124 C 0.2524 0.83333 0.08841 0.0
C125 C 0.22073 0.79091 0.07749 0.0
H126 H 0.14612 0.40429 0.12485 0.0
H127 H 0.26421 0.39234 0.12182 0.0
H128 H 0.22539 0.44646 0.06344 0.0
C129 C 0.17468 0.40867 0.11536 0.0
C130 C 0.18223 0.42761 0.09295 0.0
C131 C 0.20346 0.39493 0.12564 0.0
C132 C 0.24137 0.402 0.11372 0.0
C133 C 0.25025 0.42193 0.09157 0.0
C134 C 0.21959 0.43299 0.08096 0.0
H135 H 0.39068 0.92142 0.26079 0.0
H136 H 0.51751 0.92472 0.26209 0.0
H137 H 0.43291 0.87272 0.32058 0.0
C138 C 0.41516 0.9145 0.26949 0.0
C139 C 0.40723 0.89589 0.29201 0.0
C140 C 0.45491 0.92498 0.25847 0.0
C141 C 0.48685 0.91693 0.27042 0.0
C142 C 0.47953 0.89874 0.29299 0.0
C143 C 0.43956 0.88821 0.30358 0.0
H144 H 0.05001 0.57415 0.26337 0.0
H145 H 0.04527 0.44803 0.26533 0.0
H146 H 0.11707 0.55081 0.32337 0.0
C147 C 0.0582 0.55192 0.27263 0.0
C148 C 0.08391 0.56683 0.29495 0.0
C149 C 0.04508 0.5095 0.2616 0.0
C150 C 0.05675 0.48141 0.27346 0.0
C151 C 0.08375 0.49646 0.29546 0.0
C152 C 0.09658 0.539 0.30628 0.0
H153 H 0.3977 0.44976 0.26558 0.0
H154 H 0.52602 0.57037 0.26933 0.0
H155 H 0.43636 0.54954 0.32492 0.0
C156 C 0.42258 0.48131 0.27499 0.0
C157 C 0.41398 0.49496 0.29756 0.0
C158 C 0.46269 0.5089 0.26438 0.0
C159 C 0.49435 0.54973 0.27691 0.0
C160 C 0.48532 0.56497 0.29867 0.0
C161 C 0.44482 0.53743 0.30875 0.0
Eu162 Eu 0.48193 0.9611 0.99794 0.0
Eu163 Eu 0.51656 0.01952 0.05184 0.0
C164 C 0.47861 0.05024 1.00728 0.0
C165 C 0.47166 0.94059 0.93013 0.0
C166 C 0.49734 0.98689 0.92863 0.0
C167 C 0.4701 0.92951 0.88634 0.0
C168 C 0.50871 0.00444 0.90614 0.0
C169 C 0.4585 0.912 0.90887 0.0
C170 C 0.49473 0.97601 0.88465 0.0
C171 C 0.4586 0.92248 0.95385 0.0
O172 O 0.45572 0.9537 0.05635 0.0
O173 O 0.42018 0.94101 1.01866 0.0
C174 C 0.41873 0.93567 0.04201 0.0
O175 O 0.49296 0.91788 1.02313 0.0
O176 O 0.5007 0.05065 0.08209 0.0
O177 O 0.56243 0.04855 0.08465 0.0
O178 O 0.54616 0.97449 0.04968 0.0
C179 C 0.52571 0.93288 0.04039 0.0
O180 O 0.55632 0.00817 0.99758 0.0
O181 O 0.57052 0.06257 0.0281 0.0
O182 O 0.47717 0.04471 0.03056 0.0
O183 O 0.49036 0.92311 0.96798 0.0
O184 O 0.43497 0.93605 0.9656 0.0
O185 O 0.49095 0.02835 0.99266 0.0
C186 C 0.52338 0.0376 0.11995 0.0
C187 C 0.50261 0.99127 0.12147 0.0
C188 C 0.51879 0.04742 0.16326 0.0
C189 C 0.48995 0.97313 0.14372 0.0
C190 C 0.53141 0.06554 0.14097 0.0
C191 C 0.49761 0.00097 0.16487 0.0
C192 C 0.53472 0.05647 0.09631 0.0
C193 C 0.58185 0.04822 1.0087 0.0
H194 H 0.50823 0.00948 0.94487 0.0
H195 H 0.45986 0.90661 0.87025 0.0
H196 H 0.52771 0.04033 0.90553 0.0
H197 H 0.43911 0.87616 0.90968 0.0
H198 H 0.49608 0.96911 0.10542 0.0
H199 H 0.52513 0.06971 0.17922 0.0
H200 H 0.47466 0.93735 0.14442 0.0
H201 H 0.54713 0.10134 0.14012 0.0
Eu202 Eu 0.02775 0.50996 1.00155 0.0
Eu203 Eu 0.96984 0.4863 0.04952 0.0
C204 C 0.94318 0.41339 1.00489 0.0
C205 C 0.05538 0.5229 0.93683 0.0
C206 C 0.00933 0.49816 0.9297 0.0
C207 C 0.07106 0.53818 0.89511 0.0
C208 C 0.9942 0.49337 0.90543 0.0
C209 C 0.08625 0.54281 0.91949 0.0
C210 C 0.02486 0.51377 0.88796 0.0
C211 C 0.07066 0.52816 0.96242 0.0
O212 O 0.0327 0.48582 0.06207 0.0
O213 O 0.05507 0.47589 0.02483 0.0
C214 C 0.05712 0.4756 0.04854 0.0
O215 O 0.07227 0.56279 0.03071 0.0
O216 O 0.93233 0.43966 0.07583 0.0
O217 O 0.93686 0.5043 0.077 0.0
O218 O 0.01722 0.56099 0.0529 0.0
C219 C 0.05884 0.5814 0.0469 0.0
O220 O 0.98034 0.5372 0.99717 0.0
O221 O 0.9251 0.48832 1.01937 0.0
O222 O 0.94981 0.42115 0.02851 0.0
O223 O 0.06603 0.55755 0.97572 0.0
O224 O 0.0572 0.49094 0.97268 0.0
O225 O 0.96342 0.44571 0.99071 0.0
C226 C 0.93948 0.47486 0.11391 0.0
C227 C 0.9852 0.50125 0.12156 0.0
C228 C 0.92322 0.45515 0.15508 0.0
C229 C -8e-05 0.50424 0.14577 0.0
C230 C 0.90845 0.45214 0.13076 0.0
C231 C 0.96919 0.48054 0.16264 0.0
C232 C 0.92506 0.46817 0.08809 0.0
C233 C 0.93838 0.51668 1.00263 0.0
H234 H 0.98509 0.48252 0.94293 0.0
H235 H 0.09525 0.55405 0.8819 0.0
H236 H 0.95851 0.47345 0.90028 0.0
H237 H 0.12192 0.56204 0.92483 0.0
H238 H 0.00959 0.51883 0.1087 0.0
H239 H 0.89897 0.43679 0.16784 0.0
H240 H 0.03541 0.52486 0.1513 0.0
H241 H 0.87307 0.43137 0.12501 0.0
Eu242 Eu 0.5139 0.47495 0.05308 0.0
Eu243 Eu 0.47811 0.49653 1.00085 0.0
C244 C 0.52575 0.56979 0.04552 0.0
C245 C 0.52814 0.46584 0.11998 0.0
C246 C 0.50618 0.49001 0.12456 0.0
C247 C 0.52651 0.45092 0.16246 0.0
C248 C 0.49427 0.49445 0.14782 0.0
C249 C 0.53824 0.44626 0.13903 0.0
C250 C 0.50402 0.47483 0.1671 0.0
C251 C 0.53939 0.46043 0.09522 0.0
O252 O 0.5377 0.48913 0.99325 0.0
O253 O 0.57463 0.50904 0.03126 0.0
C254 C 0.57447 0.5044 1.00756 0.0
O255 O 0.49635 0.41617 0.0267 0.0
O256 O 0.48861 0.54561 0.97492 0.0
O257 O 0.43546 0.47744 0.96692 0.0
O258 O 0.44748 0.42239 0.99946 0.0
C259 C 0.46491 0.39976 1.00871 0.0
O260 O 0.441 0.45345 0.05635 0.0
O261 O 0.42499 0.48827 0.02596 0.0
O262 O 0.52592 0.56129 1.02228 0.0
O263 O 0.5064 0.4295 0.08076 0.0
O264 O 0.56231 0.49725 0.0847 0.0
O265 O 0.51125 0.5378 0.06014 0.0
C266 C 0.47724 0.51476 0.93483 0.0
C267 C 0.51303 0.50637 0.93352 0.0
C268 C 0.47444 0.51841 0.89118 0.0
C269 C 0.52922 0.50368 0.91127 0.0
C270 C 0.45819 0.52107 0.91356 0.0
C271 C 0.50999 0.50946 0.88985 0.0
C272 C 0.45962 0.51601 0.95836 0.0
C273 C 0.41498 0.46645 0.04565 0.0
H274 H 0.49832 0.50555 0.11008 0.0
H275 H 0.53587 0.43656 0.17697 0.0
H276 H 0.47738 0.51336 0.15075 0.0
H277 H 0.55537 0.42761 0.13583 0.0
H278 H 0.52828 0.50148 0.94968 0.0
H279 H 0.4584 0.52211 0.87488 0.0
H280 H 0.55662 0.49676 0.91078 0.0
H281 H 0.43043 0.5274 0.91421 0.0
Eu282 Eu 0.14961 0.29531 0.33088 0.0
Eu283 Eu 0.18022 0.35425 0.38449 0.0
C284 C 0.14229 0.38448 0.34018 0.0
C285 C 0.1398 0.27396 0.26257 0.0
C286 C 0.11456 0.29141 0.25184 0.0
C287 C 0.1854 0.29375 0.22797 0.0
C288 C 0.12475 0.30989 0.22947 0.0
C289 C 0.17504 0.275 0.25022 0.0
C290 C 0.16034 0.31137 0.21727 0.0
C291 C 0.13121 0.25654 0.28694 0.0
O292 O 0.10506 0.31274 0.38038 0.0
O293 O 0.09646 0.25363 0.35575 0.0
C294 C 0.08169 0.27055 0.37236 0.0
O295 O 0.19148 0.27381 0.35263 0.0
O296 O 0.16795 0.38916 0.4145 0.0
O297 O 0.22367 0.37697 0.41818 0.0
O298 O 0.17182 0.28681 0.38947 0.0
C299 C 0.18776 0.26715 0.37569 0.0
O300 O 0.21062 0.36074 0.32579 0.0
O301 O 0.24365 0.38031 0.36464 0.0
O302 O 0.17051 0.39861 0.35966 0.0
O303 O 0.16658 0.2648 0.30084 0.0
O304 O 0.10206 0.2615 0.29904 0.0
O305 O 0.12444 0.34387 0.32962 0.0
C306 C 0.18221 0.36789 0.45218 0.0
C307 C 0.15473 0.32137 0.45193 0.0
C308 C 0.18053 0.37378 0.49596 0.0
C309 C 0.14085 0.30111 0.47356 0.0
C310 C 0.1947 0.39397 0.47431 0.0
C311 C 0.15364 0.32704 0.49591 0.0
C312 C 0.19821 0.38879 0.42939 0.0
C313 C 0.24616 0.38346 0.34109 0.0
H314 H 0.08722 0.2913 0.26079 0.0
H315 H 0.21368 0.29525 0.21939 0.0
H316 H 0.10467 0.32301 0.2217 0.0
H317 H 0.19523 0.262 0.25801 0.0
H318 H 0.14452 0.30064 0.43498 0.0
H319 H 0.1908 0.39477 0.51282 0.0
H320 H 0.12111 0.26506 0.47281 0.0
H321 H 0.21571 0.42992 0.47488 0.0
Eu322 Eu 0.69232 0.84314 0.33625 0.0
Eu323 Eu 0.63532 0.81781 0.385 0.0
C324 C 0.60669 0.74611 0.33983 0.0
C325 C 0.71754 0.85656 0.27103 0.0
C326 C 0.67162 0.83873 0.26457 0.0
C327 C 0.73185 0.86113 0.22857 0.0
C328 C 0.6559 0.83236 0.24027 0.0
C329 C 0.74762 0.86775 0.25298 0.0
C330 C 0.68584 0.84352 0.22204 0.0
C331 C 0.73377 0.86421 0.29663 0.0
O332 O 0.68377 0.79186 0.38931 0.0
O333 O 0.73709 0.83619 0.36439 0.0
C334 C 0.72444 0.80939 0.38194 0.0
O335 O 0.71916 0.90712 0.35988 0.0
O336 O 0.59438 0.76831 0.40929 0.0
O337 O 0.6071 0.83608 0.41492 0.0
O338 O 0.70035 0.88007 0.39717 0.0
C339 C 0.7241 0.9124 0.38362 0.0
O340 O 0.62671 0.83969 0.32574 0.0
O341 O 0.61241 0.85727 0.36329 0.0
O342 O 0.5922 0.7633 0.35623 0.0
O343 O 0.72465 0.89078 0.30952 0.0
O344 O 0.72568 0.82869 0.3075 0.0
O345 O 0.647 0.76853 0.33228 0.0
C346 C 0.60594 0.7992 0.44922 0.0
C347 C 0.6493 0.80691 0.45546 0.0
C348 C 0.59309 0.80053 0.49177 0.0
C349 C 0.66465 0.81188 0.47972 0.0
C350 C 0.57767 0.79547 0.46741 0.0
C351 C 0.63701 0.80965 0.49807 0.0
C352 C 0.59145 0.79739 0.42381 0.0
C353 C 0.60619 0.85442 0.33959 0.0
H354 H 0.64797 0.82993 0.27835 0.0
H355 H 0.75546 0.86909 0.21483 0.0
H356 H 0.62031 0.81882 0.23572 0.0
H357 H 0.78317 0.88145 0.25776 0.0
H358 H 0.67152 0.80987 0.44155 0.0
H359 H 0.57129 0.79872 0.50568 0.0
H360 H 0.69836 0.8181 0.48417 0.0
H361 H 0.54414 0.78961 0.46279 0.0
Eu362 Eu 0.18031 0.81548 0.38314 0.0
Eu363 Eu 0.14368 0.8374 0.33233 0.0
C364 C 0.1892 0.90945 0.37721 0.0
C365 C 0.18545 0.80086 0.44949 0.0
C366 C 0.15854 0.82037 0.45272 0.0
C367 C 0.17967 0.78385 0.49162 0.0
C368 C 0.14278 0.82214 0.47531 0.0
C369 C 0.19562 0.7823 0.469 0.0
C370 C 0.15317 0.80392 0.49506 0.0
C371 C 0.20202 0.79927 0.42565 0.0
O372 O 0.20499 0.8341 0.32369 0.0
O373 O 0.24161 0.85041 0.3617 0.0
C374 C 0.2416 0.84704 0.33788 0.0
O375 O 0.17155 0.76247 0.35517 0.0
O376 O 0.14939 0.88556 0.30679 0.0
O377 O 0.09936 0.81608 0.29886 0.0
O378 O 0.11541 0.76294 0.3316 0.0
C379 C 0.13797 0.7434 0.33844 0.0
O380 O 0.10508 0.78398 0.38279 0.0
O381 O 0.09353 0.83032 0.35909 0.0
O382 O 0.19055 0.90258 0.3539 0.0
O383 O 0.17277 0.76821 0.40969 0.0
O384 O 0.22466 0.83761 0.41644 0.0
O385 O 0.17451 0.87626 0.39098 0.0
C386 C 0.13761 0.85568 0.26629 0.0
C387 C 0.18095 0.86218 0.26425 0.0
C388 C 0.12471 0.8456 0.22236 0.0
C389 C 0.19586 0.85993 0.24148 0.0
C390 C 0.10977 0.84784 0.24519 0.0
C391 C 0.16761 0.85084 0.22033 0.0
C392 C 0.12094 0.8551 0.29036 0.0
C393 C 0.08069 0.8015 0.37571 0.0
H394 H 0.1501 0.83467 0.43779 0.0
H395 H 0.18823 0.76953 0.50648 0.0
H396 H 0.12348 0.83884 0.47746 0.0
H397 H 0.21604 0.76679 0.46678 0.0
H398 H 0.20313 0.86848 0.28028 0.0
H399 H 0.10226 0.83843 0.20631 0.0
H400 H 0.22934 0.86489 0.2404 0.0
H401 H 0.07621 0.84266 0.2464 0.0
Eu402 Eu 0.81635 0.63332 0.66632 0.0
Eu403 Eu 0.84553 0.69194 0.72068 0.0
C404 C 0.80066 0.71513 0.67653 0.0
C405 C 0.8111 0.61737 0.59772 0.0
C406 C 0.78142 0.62539 0.58342 0.0
C407 C 0.86532 0.64796 0.56731 0.0
C408 C 0.79373 0.64496 0.56153 0.0
C409 C 0.85311 0.62856 0.5893 0.0
C410 C 0.8358 0.65649 0.55325 0.0
C411 C 0.79848 0.59856 0.62152 0.0
O412 O 0.78344 0.62762 0.72558 0.0
O413 O 0.75306 0.60229 0.68611 0.0
C414 C 0.74983 0.60192 0.70968 0.0
O415 O 0.82687 0.58944 0.69088 0.0
O416 O 0.83003 0.72501 0.75016 0.0
O417 O 0.89127 0.72222 0.75351 0.0
O418 O 0.87097 0.64351 0.72167 0.0
C419 C 0.85427 0.60339 0.71063 0.0
O420 O 0.89128 0.67792 0.67048 0.0
O421 O 0.89692 0.73548 0.69545 0.0
O422 O 0.79946 0.70903 0.69967 0.0
O423 O 0.83031 0.60031 0.63612 0.0
O424 O 0.77183 0.60834 0.63304 0.0
O425 O 0.81878 0.69847 0.6622 0.0
C426 C 0.85079 0.7108 0.78829 0.0
C427 C 0.82478 0.66433 0.78892 0.0
C428 C 0.85083 0.71897 0.83218 0.0
C429 C 0.81211 0.64527 0.81094 0.0
C430 C 0.86371 0.73802 0.81007 0.0
C431 C 0.82467 0.67231 0.83288 0.0
C432 C 0.86336 0.73037 0.76482 0.0
C433 C 0.91265 0.72018 0.67853 0.0
H434 H 0.74872 0.6169 0.58927 0.0
H435 H 0.89816 0.65699 0.5615 0.0
H436 H 0.7702 0.65087 0.55095 0.0
H437 H 0.87684 0.62284 0.5998 0.0
H438 H 0.81431 0.64271 0.77232 0.0
H439 H 0.86107 0.74077 0.84873 0.0
H440 H 0.79306 0.60925 0.81077 0.0
H441 H 0.8836 0.77398 0.80999 0.0
Eu442 Eu 0.36005 0.17123 0.66754 0.0
Eu443 Eu 0.30033 0.14469 0.71596 0.0
C444 C 0.2688 0.07771 0.66848 0.0
C445 C 0.39065 0.1826 0.60269 0.0
C446 C 0.34538 0.15534 0.59431 0.0
C447 C 0.40904 0.20244 0.56174 0.0
C448 C 0.33198 0.15167 0.56976 0.0
C449 C 0.42244 0.20603 0.58633 0.0
C450 C 0.36365 0.17531 0.55326 0.0
C451 C 0.40409 0.18949 0.62869 0.0
O452 O 0.34815 0.11767 0.71913 0.0
O453 O 0.40394 0.16665 0.69718 0.0
C454 C 0.39016 0.13795 0.71373 0.0
O455 O 0.38864 0.23548 0.69087 0.0
O456 O 0.26273 0.09413 0.74064 0.0
O457 O 0.26969 0.1598 0.74575 0.0
O458 O 0.36123 0.21109 0.72772 0.0
C459 C 0.3879 0.24223 0.71427 0.0
O460 O 0.29965 0.17717 0.65636 0.0
O461 O 0.27016 0.17675 0.69308 0.0
O462 O 0.25594 0.09546 0.68543 0.0
O463 O 0.39559 0.2174 0.64067 0.0
O464 O 0.39317 0.15366 0.63994 0.0
O465 O 0.31075 0.09699 0.66306 0.0
C466 C 0.27001 0.12415 0.78057 0.0
C467 C 0.31533 0.15004 0.78917 0.0
C468 C 0.25053 0.10371 0.82135 0.0
C469 C 0.32814 0.15313 0.81375 0.0
C470 C 0.2377 0.1008 0.7967 0.0
C471 C 0.29586 0.13024 0.83012 0.0
C472 C 0.2566 0.12154 0.7548 0.0
C473 C 0.27199 0.18257 0.6698 0.0
H474 H 0.32034 0.13746 0.60681 0.0
H475 H 0.43395 0.2216 0.54946 0.0
H476 H 0.29683 0.1304 0.56366 0.0
H477 H 0.45742 0.22775 0.59265 0.0
H478 H 0.34074 0.1681 0.77688 0.0
H479 H 0.22511 0.08502 0.83349 0.0
H480 H 0.36326 0.17395 0.82003 0.0
H481 H 0.20261 0.08037 0.79025 0.0
Eu482 Eu 0.85135 0.14915 0.72011 0.0
Eu483 Eu 0.81387 0.16839 0.66879 0.0
C484 C 0.85473 0.24172 0.7128 0.0
C485 C 0.86422 0.13916 0.78676 0.0
C486 C 0.83953 0.16076 0.79095 0.0
C487 C 0.86001 0.12162 0.82877 0.0
C488 C 0.82525 0.16288 0.8139 0.0
C489 C 0.87434 0.11954 0.80576 0.0
C490 C 0.83506 0.14306 0.83302 0.0
C491 C 0.8772 0.13517 0.7623 0.0
O492 O 0.88911 0.2008 0.6697 0.0
O493 O 0.89992 0.15358 0.69271 0.0
C494 C 0.91301 0.18253 0.67617 0.0
O495 O 0.80554 0.08264 0.70004 0.0
O496 O 0.82085 0.21511 0.64205 0.0
O497 O 0.77131 0.1451 0.63474 0.0
O498 O 0.81704 0.10578 0.6618 0.0
C499 C 0.80397 0.07432 0.67668 0.0
O500 O 0.78794 0.14946 0.72828 0.0
O501 O 0.75242 0.13345 0.68992 0.0
O502 O 0.82087 0.22149 0.69627 0.0
O503 O 0.84542 0.10385 0.74754 0.0
O504 O 0.89936 0.17234 0.75202 0.0
O505 O 0.87789 0.22303 0.71997 0.0
C506 C 0.81364 0.18233 0.6028 0.0
C507 C 0.85284 0.17922 0.60326 0.0
C508 C 0.8111 0.17944 0.55885 0.0
C509 C 0.87085 0.17591 0.5817 0.0
C510 C 0.7931 0.18284 0.58049 0.0
C511 C 0.84976 0.17525 0.55924 0.0
C512 C 0.79389 0.1835 0.62563 0.0
C513 C 0.75138 0.1354 0.7137 0.0
H514 H 0.83127 0.17598 0.77644 0.0
H515 H 0.86812 0.10617 0.84321 0.0
H516 H 0.8071 0.18061 0.81676 0.0
H517 H 0.89305 0.10241 0.80276 0.0
H518 H 0.86924 0.17879 0.62032 0.0
H519 H 0.79409 0.17883 0.54177 0.0
H520 H 0.90107 0.1735 0.58259 0.0
H521 H 0.76282 0.18514 0.57979 0.0
C522 C 0.33599 0.87848 0.08913 0.0
C523 C 0.29387 0.86169 0.0763 0.0
C524 C 0.37579 0.90191 0.07775 0.0
C525 C 0.37533 0.90969 0.05301 0.0
H526 H 0.33827 0.87249 0.10801 0.0
H527 H 0.4072 0.91369 0.08857 0.0
S528 S 0.27344 0.875 1.0117 0.0
N529 N 0.25379 0.85611 0.03782 0.0
N530 N 0.32865 0.89999 1.01631 0.0
C531 C 0.33334 0.89367 0.04003 0.0
C532 C 0.29267 0.86975 0.05169 0.0
C533 C 0.10411 0.41469 0.08353 0.0
C534 C 0.15087 0.44138 0.08206 0.0
C535 C 0.07389 0.42646 0.07311 0.0
C536 C 0.08921 0.46468 0.06031 0.0
H537 H 0.09056 0.38398 0.09243 0.0
H538 H 0.03825 0.40495 0.07453 0.0
S539 S 0.20739 0.54776 0.05245 0.0
N540 N 0.21062 0.51032 0.06843 0.0
N541 N 0.1533 0.53001 0.04726 0.0
C542 C 0.13544 0.49178 0.05873 0.0
C543 C 0.1664 0.48073 0.06997 0.0
C544 C 0.5465 0.66709 0.08891 0.0
C545 C 0.5703 0.70416 0.07553 0.0
C546 C 0.53254 0.62386 0.07907 0.0
C547 C 0.54177 0.61606 0.05544 0.0
H548 H 0.53797 0.67147 0.10702 0.0
H549 H 0.51386 0.59636 0.09002 0.0
S550 S 0.60556 0.70248 1.01352 0.0
N551 N 0.6043 0.73089 0.038 0.0
N552 N 0.57783 0.64946 1.01921 0.0
C553 C 0.56606 0.65301 0.04194 0.0
C554 C 0.58034 0.6971 0.05205 0.0
C555 C 0.86241 0.31813 0.9593 0.0
C556 C 0.84609 0.28076 0.97296 0.0
C557 C 0.89416 0.36079 0.9697 0.0
C558 C 0.91077 0.36768 0.99416 0.0
H559 H 0.85019 0.31444 0.94048 0.0
H560 H 0.90527 0.38861 0.95851 0.0
S561 S 0.88074 0.27995 0.03721 0.0
N562 N 0.85031 0.2528 1.01177 0.0
N563 N 0.9096 0.33287 0.03149 0.0
C564 C 0.89502 0.33037 1.00793 0.0
C565 C 0.86276 0.28697 0.9973 0.0
C566 C 0.6801 0.57196 0.97572 0.0
C567 C 0.6945 0.54105 0.9705 0.0
C568 C 0.64176 0.56017 0.98836 0.0
C569 C 0.61661 0.51717 0.99622 0.0
H570 H 0.69888 0.60561 0.97024 0.0
H571 H 0.63148 0.58473 0.99185 0.0
S572 S 0.63755 0.42297 0.98567 0.0
N573 N 0.67868 0.46468 0.97319 0.0
N574 N 0.60698 0.44304 0.99699 0.0
C575 C 0.63001 0.4858 0.99085 0.0
C576 C 0.66892 0.49764 0.97801 0.0
C577 C 0.41928 0.11684 0.99922 0.0
C578 C 0.42664 0.12841 0.97523 0.0
C579 C 0.43725 0.09256 1.00978 0.0
C580 C 0.46342 0.07937 0.99672 0.0
H581 H 0.39886 0.12599 1.00971 0.0
H582 H 0.42972 0.08325 0.02808 0.0
S583 S 0.4967 0.10657 0.93418 0.0
N584 N 0.46438 0.12827 0.93936 0.0
N585 N 0.49879 0.08322 0.95909 0.0
C586 C 0.47234 0.09237 0.97297 0.0
C587 C 0.45375 0.11672 0.96223 0.0
C588 C 0.66197 0.108 0.96139 0.0
C589 C 0.70336 0.1346 0.9751 0.0
C590 C 0.62296 0.08019 0.97251 0.0
C591 C 0.62355 0.07851 0.9978 0.0
H592 H 0.65946 0.10899 0.9419 0.0
H593 H 0.5919 0.06031 0.96121 0.0
S594 S 0.72308 0.13882 0.04197 0.0
N595 N 0.74271 0.15492 1.01544 0.0
N596 N 0.66862 0.10427 0.03628 0.0
C597 C 0.66436 0.10477 1.01181 0.0
C598 C 0.70443 0.1324 1.00048 0.0
C599 C 0.88707 0.57601 0.96897 0.0
C600 C 0.84094 0.54412 0.96656 0.0
C601 C 0.9186 0.56666 0.98021 0.0
C602 C 0.9051 0.52523 0.98962 0.0
H603 H 0.89878 0.60884 0.96268 0.0
H604 H 0.95362 0.59251 0.9821 0.0
S605 S 0.78915 0.4283 0.98499 0.0
N606 N 0.78409 0.46787 0.97229 0.0
N607 N 0.84297 0.45069 0.99382 0.0
C608 C 0.8593 0.49255 0.98656 0.0
C609 C 0.82735 0.50189 0.97494 0.0
C610 C 0.41857 0.2754 1.00042 0.0
C611 C 0.41892 0.26793 0.97522 0.0
C612 C 0.43435 0.31845 1.01135 0.0
C613 C 0.45006 0.35513 0.99734 0.0
H614 H 0.40583 0.24775 1.01178 0.0
H615 H 0.43346 0.32296 0.03076 0.0
S616 S 0.46174 0.3548 0.93128 0.0
N617 N 0.43996 0.30196 0.93699 0.0
N618 N 0.46721 0.38243 0.95752 0.0
C619 C 0.45089 0.34846 0.97228 0.0
C620 C 0.43583 0.30491 0.96119 0.0
C621 C 0.10612 0.69694 0.0794 0.0
C622 C 0.15281 0.71509 0.07897 0.0
C623 C 0.07593 0.65348 0.06929 0.0
C624 C 0.09131 0.62668 0.05821 0.0
H625 H 0.09277 0.71667 0.08737 0.0
H626 H 0.04029 0.64115 0.06982 0.0
S627 S 0.21057 0.65737 0.05425 0.0
N628 N 0.21305 0.70181 0.0682 0.0
N629 N 0.15661 0.62091 0.04853 0.0
C630 C 0.138 0.64429 0.05801 0.0
C631 C 0.16865 0.68827 0.06853 0.0
C632 C 0.29174 0.42375 0.0548 0.0
C633 C 0.2925 0.43328 0.07993 0.0
C634 C 0.33157 0.43558 0.04355 0.0
C635 C 0.37345 0.45691 0.05709 0.0
H636 H 0.2601 0.40663 0.04377 0.0
H637 H 0.32947 0.42705 0.02428 0.0
S638 S 0.39451 0.49433 0.12256 0.0
N639 N 0.33945 0.4693 0.11736 0.0
N640 N 0.41375 0.49012 0.09641 0.0
C641 C 0.37478 0.46744 0.08202 0.0
C642 C 0.33448 0.45596 0.0934 0.0
C643 C 0.59593 0.89205 0.07287 0.0
C644 C 0.56597 0.84605 0.07313 0.0
C645 C 0.58277 0.91969 0.06183 0.0
C646 C 0.53926 0.9023 0.05051 0.0
H647 H 0.62984 0.90682 0.08126 0.0
H648 H 0.60695 0.95501 0.06221 0.0
S649 S 0.44734 0.78443 0.04736 0.0
N650 N 0.49025 0.78454 0.06203 0.0
N651 N 0.46581 0.8364 0.0408 0.0
C652 C 0.509 0.8563 0.05051 0.0
C653 C 0.52229 0.8282 0.06195 0.0
C654 C 0.98949 0.16826 0.39806 0.0
C655 C 0.96819 0.18595 0.4123 0.0
C656 C 0.02495 0.19543 0.38438 0.0
C657 C 0.04063 0.24145 0.38444 0.0
H658 H 0.97927 0.13317 0.39789 0.0
H659 H 0.04106 0.18046 0.37432 0.0
S660 S 0.99357 0.30348 0.41693 0.0
N661 N 0.96328 0.25168 0.42427 0.0
N662 N 0.03015 0.30304 0.39886 0.0
C663 C 0.0188 0.25935 0.39811 0.0
C664 C 0.98263 0.2316 0.41199 0.0
C665 C 0.773 0.74784 0.41572 0.0
C666 C 0.81963 0.77718 0.41634 0.0
C667 C 0.74236 0.75867 0.40482 0.0
C668 C 0.75723 0.79903 0.39392 0.0
H669 H 0.76007 0.71594 0.42336 0.0
H670 H 0.70681 0.73484 0.40453 0.0
S671 S 0.87566 0.88934 0.39299 0.0
N672 N 0.87894 0.84995 0.40697 0.0
N673 N 0.82166 0.86968 0.3859 0.0
C674 C 0.80373 0.82901 0.39488 0.0
C675 C 0.83481 0.81825 0.40621 0.0
C676 C 0.24385 0.03562 0.38475 0.0
C677 C 0.2372 0.04365 0.40886 0.0
C678 C 0.22794 0.99205 0.37457 0.0
C679 C 0.20471 0.95505 0.38817 0.0
H680 H 0.26193 0.06325 0.37378 0.0
H681 H 0.23434 0.98748 0.356 0.0
S682 S 0.17547 0.95863 0.45166 0.0
N683 N 0.20366 0.01143 0.44567 0.0
N684 N 0.17395 0.92955 0.42678 0.0
C685 C 0.19713 0.96277 0.41224 0.0
C686 C 0.21334 0.00709 0.42253 0.0
C687 C 0.53762 0.64644 0.29484 0.0
C688 C 0.51711 0.61087 0.30979 0.0
C689 C 0.56735 0.6901 0.30466 0.0
C690 C 0.57666 0.69996 0.32979 0.0
H691 H 0.53019 0.64071 0.27536 0.0
H692 H 0.58229 0.71648 0.29256 0.0
S693 S 0.53484 0.6197 0.37692 0.0
N694 N 0.51131 0.58876 0.35113 0.0
N695 N 0.56511 0.67149 0.36952 0.0
C696 C 0.55676 0.66518 0.34501 0.0
C697 C 0.52742 0.62047 0.33503 0.0
C698 C 0.36568 0.89857 0.32755 0.0
C699 C 0.36473 0.88329 0.30339 0.0
C700 C 0.32583 0.88618 0.33879 0.0
C701 C 0.28356 0.8579 0.3263 0.0
H702 H 0.39752 0.92066 0.33777 0.0
H703 H 0.3282 0.89945 0.35725 0.0
S704 S 0.26334 0.80448 0.26363 0.0
N705 N 0.31845 0.83585 0.26797 0.0
N706 N 0.24363 0.81204 0.28892 0.0
C707 C 0.28235 0.84139 0.3023 0.0
C708 C 0.32288 0.85424 0.29089 0.0
C709 C 0.09956 0.46485 0.33196 0.0
C710 C 0.10005 0.46862 0.30675 0.0
C711 C 0.11482 0.43871 0.34297 0.0
C712 C 0.13029 0.41499 0.32902 0.0
H713 H 0.08657 0.48159 0.34322 0.0
H714 H 0.11318 0.4359 0.36232 0.0
S715 S 0.14305 0.41695 0.26302 0.0
N716 N 0.12161 0.44951 0.26867 0.0
N717 N 0.14802 0.39862 0.28928 0.0
C718 C 0.13186 0.41903 0.30399 0.0
C719 C 0.11725 0.44626 0.29285 0.0
C720 C 0.33018 0.44646 0.29542 0.0
C721 C 0.37184 0.46611 0.30907 0.0
C722 C 0.29001 0.42045 0.30608 0.0
C723 C 0.28967 0.41283 0.33089 0.0
H724 H 0.3285 0.45177 0.27639 0.0
H725 H 0.25892 0.4063 0.29464 0.0
S726 S 0.39032 0.45532 0.37436 0.0
N727 N 0.41071 0.4751 0.34852 0.0
N728 N 0.33523 0.42651 0.36864 0.0
C729 C 0.33123 0.43219 0.34475 0.0
C730 C 0.37222 0.45868 0.33383 0.0
C731 C 0.53023 0.86613 0.29204 0.0
C732 C 0.51296 0.88926 0.30514 0.0
C733 C 0.56054 0.85537 0.30329 0.0
C734 C 0.57476 0.86721 0.32814 0.0
H735 H 0.51958 0.8555 0.27301 0.0
H736 H 0.57238 0.83705 0.29243 0.0
S737 S 0.54202 0.9313 0.37004 0.0
N738 N 0.51423 0.92608 0.34388 0.0
N739 N 0.5707 0.90547 0.36519 0.0
C740 C 0.5583 0.8911 0.34135 0.0
C741 C 0.52754 0.90218 0.32983 0.0
C742 C 0.06711 0.62637 0.30848 0.0
C743 C 0.09862 0.61215 0.30597 0.0
C744 C 0.08018 0.66914 0.31885 0.0
C745 C 0.12513 0.69891 0.3272 0.0
H746 H 0.03201 0.60408 0.30261 0.0
H747 H 0.0548 0.67866 0.32069 0.0
S748 S 0.22124 0.67939 0.32249 0.0
N749 N 0.17714 0.63224 0.31094 0.0
N750 N 0.20167 0.71248 0.33086 0.0
C751 C 0.15711 0.68541 0.32441 0.0
C752 C 0.14385 0.64202 0.31369 0.0
C753 C 0.78371 0.02013 0.424 0.0
C754 C 0.82849 0.03919 0.41776 0.0
C755 C 0.75006 0.97858 0.41322 0.0
C756 C 0.75966 0.95539 0.39524 0.0
H757 H 0.77425 0.03764 0.43706 0.0
H758 H 0.71611 0.96505 0.41853 0.0
S759 S 0.87086 0.98819 0.37312 0.0
N760 N 0.88063 0.02878 0.39367 0.0
N761 N 0.81634 0.95291 0.37191 0.0
C762 C 0.80384 0.97368 0.38871 0.0
C763 C 0.8385 0.01505 0.40031 0.0
C764 C 0.98481 0.81071 0.40126 0.0
C765 C 0.9618 0.77129 0.41313 0.0
C766 C 0.02251 0.8197 0.38873 0.0
C767 C 0.03904 0.78985 0.38773 0.0
H768 H 0.97399 0.83524 0.40193 0.0
H769 H 0.0394 0.85081 0.38023 0.0
S770 S 0.98941 0.68049 0.41437 0.0
N771 N 0.95693 0.70094 0.42183 0.0
N772 N 0.02842 0.71833 0.39892 0.0
C773 C 0.01616 0.75009 0.39932 0.0
C774 C 0.97748 0.74073 0.41187 0.0
C775 C 0.24736 0.20105 0.38513 0.0
C776 C 0.23637 0.18662 0.40836 0.0
C777 C 0.23087 0.22649 0.37446 0.0
C778 C 0.20258 0.238 0.38663 0.0
H779 H 0.26932 0.19309 0.37531 0.0
H780 H 0.24099 0.23778 0.35673 0.0
S781 S 0.16013 0.20355 0.44687 0.0
N782 N 0.19336 0.1826 0.44255 0.0
N783 N 0.1617 0.22982 0.42256 0.0
C784 C 0.19031 0.22241 0.40963 0.0
C785 C 0.20739 0.19686 0.42049 0.0
C786 C 0.64832 0.56177 0.74561 0.0
C787 C 0.6302 0.51516 0.74387 0.0
C788 C 0.68635 0.58952 0.73375 0.0
C789 C 0.707 0.57163 0.7193 0.0
H790 H 0.6332 0.577 0.75633 0.0
H791 H 0.70001 0.62533 0.73607 0.0
S792 S 0.67516 0.45279 0.70973 0.0
N793 N 0.63793 0.45287 0.72745 0.0
N794 N 0.70821 0.50537 0.70435 0.0
C795 C 0.68929 0.52538 0.71709 0.0
C796 C 0.65112 0.49704 0.72955 0.0
C797 C 0.43829 0.07547 0.74699 0.0
C798 C 0.48482 0.10593 0.74924 0.0
C799 C 0.40783 0.08625 0.73582 0.0
C800 C 0.42273 0.12777 0.72625 0.0
H801 H 0.42533 0.04264 0.75352 0.0
H802 H 0.37244 0.06146 0.73422 0.0
S803 S 0.54052 0.22123 0.72989 0.0
N804 N 0.5438 0.18088 0.74281 0.0
N805 N 0.48685 0.20076 0.72136 0.0
C806 C 0.46904 0.15895 0.7289 0.0
C807 C 0.49998 0.14813 0.74047 0.0
C808 C 0.92639 0.35876 0.74253 0.0
C809 C 0.89573 0.37424 0.74402 0.0
C810 C 0.91273 0.31575 0.7324 0.0
C811 C 0.86801 0.28685 0.72325 0.0
H812 H 0.9613 0.38022 0.74907 0.0
H813 H 0.93756 0.3053 0.73148 0.0
S814 S 0.77396 0.31018 0.72462 0.0
N815 N 0.81814 0.35653 0.73691 0.0
N816 N 0.79259 0.27581 0.71734 0.0
C817 C 0.83689 0.30173 0.72481 0.0
C818 C 0.85073 0.34543 0.73533 0.0
C819 C 0.21628 0.96281 0.63472 0.0
C820 C 0.17011 0.94849 0.63362 0.0
C821 C 0.24823 0.00513 0.64553 0.0
C822 C 0.23506 0.03443 0.65571 0.0
H823 H 0.22771 0.94077 0.62767 0.0
H824 H 0.28334 0.01443 0.64647 0.0
S825 S 0.11868 0.01487 0.65471 0.0
N826 N 0.11317 0.96841 0.64155 0.0
N827 N 0.17294 0.04758 0.66214 0.0
C828 C 0.18908 0.02102 0.65397 0.0
C829 C 0.15668 0.97814 0.64287 0.0
C830 C 0.00797 0.17292 0.64935 0.0
C831 C 0.03031 0.21205 0.63712 0.0
C832 C 0.97084 0.16411 0.66242 0.0
C833 C 0.95423 0.19389 0.66367 0.0
H834 H 0.01893 0.14851 0.64856 0.0
H835 H 0.95445 0.13322 0.67115 0.0
S836 S 0.00226 0.30257 0.6363 0.0
N837 N 0.03446 0.28204 0.62838 0.0
N838 N 0.96415 0.26508 0.6523 0.0
C839 C 0.97649 0.23337 0.65174 0.0
C840 C 0.01454 0.24251 0.63862 0.0
C841 C 0.77296 0.77874 0.63178 0.0
C842 C 0.74748 0.7927 0.64481 0.0
C843 C 0.78986 0.75365 0.64225 0.0
C844 C 0.78197 0.74159 0.66618 0.0
H845 H 0.78095 0.7883 0.61355 0.0
H846 H 0.80979 0.74422 0.6315 0.0
S847 S 0.71429 0.76752 0.70729 0.0
N848 N 0.71304 0.79105 0.68229 0.0
N849 N 0.74495 0.74387 0.70221 0.0
C850 C 0.7557 0.75464 0.67926 0.0
C851 C 0.73844 0.78021 0.66852 0.0
C852 C 0.01434 0.75999 0.6419 0.0
C853 C 0.02738 0.80488 0.63925 0.0
C854 C 0.97806 0.7334 0.65526 0.0
C855 C 0.95349 0.75065 0.66668 0.0
H856 H 0.03255 0.74533 0.63377 0.0
H857 H 0.96913 0.69889 0.65657 0.0
S858 S 0.97214 0.86539 0.66402 0.0
N859 N 0.01137 0.86487 0.6482 0.0
N860 N 0.94385 0.81509 0.67371 0.0
C861 C 0.96616 0.79549 0.66423 0.0
C862 C 0.00286 0.8225 0.6504 0.0
C863 C 0.16198 0.17448 0.64842 0.0
C864 C 0.17535 0.21121 0.63429 0.0
C865 C 0.19356 0.16599 0.66023 0.0
C866 C 0.23963 0.19313 0.65787 0.0
H867 H 0.12675 0.15173 0.65023 0.0
H868 H 0.18175 0.13739 0.67088 0.0
S869 S 0.29324 0.29461 0.62448 0.0
N870 N 0.23895 0.2767 0.62022 0.0
N871 N 0.29771 0.25853 0.64112 0.0
C872 C 0.25374 0.22968 0.64384 0.0
C873 C 0.22177 0.23923 0.63235 0.0
C874 C 0.72669 0.9584 0.64792 0.0
C875 C 0.75514 0.94012 0.64706 0.0
C876 C 0.74278 0.00214 0.65776 0.0
C877 C 0.78765 0.02861 0.66699 0.0
H878 H 0.69187 0.9388 0.64083 0.0
H879 H 0.72015 0.01541 0.65806 0.0
S880 S 0.87611 -0.00238 0.6683 0.0
N881 N 0.83076 0.95265 0.65568 0.0
N882 N 0.8605 0.03479 0.67462 0.0
C883 C 0.8164 0.011 0.66642 0.0
C884 C 0.80022 0.96662 0.65634 0.0
C885 C 0.49776 0.34707 0.73304 0.0
C886 C 0.48489 0.37264 0.74762 0.0
C887 C 0.46597 0.30491 0.7222 0.0
C888 C 0.42035 0.28637 0.72602 0.0
H889 H 0.53277 0.35943 0.73019 0.0
H890 H 0.47724 0.28634 0.71108 0.0
S891 S 0.36823 0.33973 0.76113 0.0
N892 N 0.42237 0.37694 0.76382 0.0
N893 N 0.36313 0.29632 0.74449 0.0
C894 C 0.40676 0.31109 0.74048 0.0
C895 C 0.43892 0.35458 0.75105 0.0
C896 C 0.66867 0.11981 0.76094 0.0
C897 C 0.62674 0.0983 0.74741 0.0
C898 C 0.70851 0.13159 0.74988 0.0
C899 C 0.70824 0.12233 0.72475 0.0
H900 H 0.67084 0.12846 0.78021 0.0
H901 H 0.73984 0.14852 0.76119 0.0
S902 S 0.60655 0.06305 0.68154 0.0
N903 N 0.58694 0.06569 0.70782 0.0
N904 N 0.66162 0.0881 0.68694 0.0
C905 C 0.66633 0.10002 0.71109 0.0
C906 C 0.62573 0.08796 0.72241 0.0
C907 C 0.89868 0.52418 0.71777 0.0
C908 C 0.89695 0.51881 0.74279 0.0
C909 C 0.88349 0.55069 0.70716 0.0
C910 C 0.86684 0.57302 0.72135 0.0
H911 H 0.9125 0.50839 0.70641 0.0
H912 H 0.88599 0.55479 0.68793 0.0
S913 S 0.85011 0.56577 0.78684 0.0
N914 N 0.87271 0.5344 0.78084 0.0
N915 N 0.84629 0.58584 0.76099 0.0
C916 C 0.86388 0.56713 0.74615 0.0
C917 C 0.87845 0.53959 0.75687 0.0
C918 C 0.50602 0.98192 0.23153 0.0
C919 C 0.46384 0.94474 0.23462 0.0
C920 C 0.51628 0.00017 0.20909 0.0
C921 C 0.48492 0.98187 0.1887 0.0
H922 H 0.53143 -0.00293 0.24663 0.0
H923 H 0.54944 0.02836 0.20758 0.0
S924 S 0.3691 0.88534 0.18719 0.0
N925 N 0.39018 0.89061 0.21534 0.0
N926 N 0.40919 0.92542 0.17328 0.0
C927 C 0.44234 0.94511 0.19158 0.0
C928 C 0.43183 0.92654 0.21449 0.0
C929 C 0.98584 0.50265 0.23095 0.0
C930 C 0.02252 0.4965 0.23679 0.0
C931 C 0.96746 0.49566 0.20698 0.0
C932 C 0.98547 0.4827 0.18807 0.0
H933 H 0.97194 0.51392 0.24495 0.0
H934 H 0.94016 0.5021 0.20309 0.0
S935 S 0.07942 0.45931 0.19394 0.0
N936 N 0.07495 0.47493 0.22182 0.0
N937 N 0.03974 0.46091 0.17685 0.0
C938 C 0.02091 0.4747 0.19378 0.0
C939 C 0.03957 0.48175 0.21814 0.0
C940 C 0.48905 0.53163 0.22343 0.0
C941 C 0.47122 0.4978 0.23952 0.0
C942 C 0.49974 0.52381 0.20036 0.0
C943 C 0.49241 0.48151 0.192 0.0
H944 H 0.49497 0.56478 0.22871 0.0
H945 H 0.51438 0.5515 0.18908 0.0
S946 S 0.44447 0.38064 0.22645 0.0
N947 N 0.44638 0.42003 0.24536 0.0
N948 N 0.46423 0.40457 0.20134 0.0
C949 C 0.47371 0.44695 0.20765 0.0
C950 C 0.46338 0.45516 0.23144 0.0
C951 C 0.00723 0.4838 0.82017 0.0
C952 C 0.97113 0.49027 0.81338 0.0
C953 C 0.02563 0.49304 0.84425 0.0
C954 C 0.00828 0.50871 0.8623 0.0
H955 H 0.02091 0.47095 0.80684 0.0
H956 H 0.05261 0.48648 0.84892 0.0
S957 S 0.91521 0.53288 0.85374 0.0
N958 N 0.91922 0.51401 0.82658 0.0
N959 N 0.95477 0.53264 0.87163 0.0
C960 C 0.97312 0.51657 0.85561 0.0
C961 C 0.95431 0.50706 0.83119 0.0
C962 C 0.53826 0.45522 0.83769 0.0
C963 C 0.54709 0.48476 0.81949 0.0
C964 C 0.5276 0.46421 0.86058 0.0
C965 C 0.52504 0.50294 0.8661 0.0
H966 H 0.53851 0.42433 0.83399 0.0
H967 H 0.51974 0.43984 0.87379 0.0
S968 S 0.54842 0.59255 0.82537 0.0
N969 N 0.55483 0.55537 0.80885 0.0
N970 N 0.53515 0.57253 0.85207 0.0
C971 C 0.53543 0.53359 0.84838 0.0
C972 C 0.54654 0.52452 0.82506 0.0
C973 C 0.55888 0.04964 0.83503 0.0
C974 C 0.52595 0.03539 0.81544 0.0
C975 C 0.5487 0.03002 0.85719 0.0
C976 C 0.50526 -0.00488 0.86063 0.0
H977 H 0.59254 0.07687 0.83342 0.0
H978 H 0.57509 0.04238 0.87177 0.0
S979 S 0.40739 0.94452 0.81475 0.0
N980 N 0.44859 0.98292 0.80065 0.0
N981 N 0.42917 0.94711 0.84236 0.0
C982 C 0.47226 0.98011 0.84104 0.0
C983 C 0.48264 -1e-05 0.81849 0.0
C984 C 0.16461 0.29964 0.56073 0.0
C985 C 0.12148 0.26434 0.56422 0.0
C986 C 0.17433 0.31972 0.53878 0.0
C987 C 0.14137 0.30553 0.51924 0.0
H988 H 0.19126 0.31212 0.57518 0.0
H989 H 0.20829 0.34622 0.53701 0.0
S990 S 0.02262 0.21492 0.51898 0.0
N991 N 0.04529 0.21597 0.54612 0.0
N992 N 0.06318 0.25457 0.50508 0.0
C993 C 0.09786 0.27052 0.52249 0.0
C994 C 0.08797 0.24989 0.54491 0.0
C995 C 0.64829 0.79618 0.56506 0.0
C996 C 0.68857 0.83528 0.57314 0.0
C997 C 0.63146 0.78816 0.54071 0.0
C998 C 0.65478 0.81871 0.52371 0.0
H999 H 0.6295 0.77196 0.57769 0.0
H1000 H 0.6003 0.75769 0.53508 0.0
S1001 S 0.76198 0.92578 0.53577 0.0
N1002 N 0.7517 0.90442 0.56228 0.0
N1003 N 0.71974 0.88965 0.51662 0.0
C1004 C 0.69514 0.85782 0.53159 0.0
C1005 C 0.71213 0.86604 0.5563 0.0
C1006 C 0.16101 0.83454 0.56255 0.0
C1007 C 0.1181 0.82805 0.56641 0.0
C1008 C 0.17142 0.82517 0.53965 0.0
C1009 C 0.13938 0.8089 0.51959 0.0
H1010 H 0.1872 0.84801 0.57729 0.0
H1011 H 0.20542 0.83234 0.5375 0.0
S1012 S 0.02081 0.7822 0.52036 0.0
N1013 N 0.0425 0.80195 0.54846 0.0
N1014 N 0.06177 0.78329 0.50547 0.0
C1015 C 0.09571 0.80036 0.52337 0.0
C1016 C 0.08509 0.80999 0.54676 0.0
C1017 C 0.61382 0.78357 0.16397 0.0
C1018 C 0.63267 0.81553 0.14699 0.0
C1019 C 0.63133 0.79305 0.18814 0.0
C1020 C 0.66837 0.83486 0.19627 0.0
H1021 H 0.5851 0.75094 0.15855 0.0
H1022 H 0.61597 0.76723 0.20051 0.0
S1023 S 0.72953 0.93034 0.15916 0.0
N1024 N 0.69034 0.89065 0.1399 0.0
N1025 N 0.7228 0.90894 0.18566 0.0
C1026 C 0.68742 0.8673 0.17956 0.0
C1027 C 0.66956 0.85759 0.15486 0.0
C1028 C 0.19031 0.86068 0.15367 0.0
C1029 C 0.20406 0.82917 0.14917 0.0
C1030 C 0.17915 0.86809 0.17685 0.0
C1031 C 0.18197 0.84462 0.19628 0.0
H1032 H 0.18674 0.87855 0.13902 0.0
H1033 H 0.16782 0.89199 0.17956 0.0
S1034 S 0.21748 0.75945 0.19369 0.0
N1035 N 0.22092 0.77517 0.16585 0.0
N1036 N 0.20017 0.78905 0.20937 0.0
C1037 C 0.19685 0.81389 0.19202 0.0
C1038 C 0.20781 0.80616 0.16846 0.0
C1039 C 0.18475 0.39365 0.16901 0.0
C1040 C 0.19377 0.37355 0.14899 0.0
C1041 C 0.1741 0.37342 0.19094 0.0
C1042 C 0.17183 0.33213 0.19374 0.0
H1043 H 0.1862 0.42545 0.16776 0.0
H1044 H 0.16799 0.39049 0.20591 0.0
S1045 S 0.18938 0.26422 0.14619 0.0
N1046 N 0.19796 0.30926 0.13303 0.0
N1047 N 0.17746 0.27094 0.17406 0.0
C1048 C 0.18041 0.31153 0.17375 0.0
C1049 C 0.19148 0.33228 0.15147 0.0
C1050 C 0.83453 0.64595 0.89816 0.0
C1051 C 0.79148 0.6101 0.90132 0.0
C1052 C 0.84457 0.66635 0.87626 0.0
C1053 C 0.81205 0.6518 0.85646 0.0
H1054 H 0.86093 0.65827 0.91273 0.0
H1055 H 0.8785 0.69306 0.87465 0.0
S1056 S 0.69345 0.56063 0.85551 0.0
N1057 N 0.71569 0.56151 0.88273 0.0
N1058 N 0.73414 0.60072 0.84192 0.0
C1059 C 0.7685 0.61672 0.85954 0.0
C1060 C 0.7583 0.5958 0.88185 0.0
C1061 C 0.36402 0.13811 0.88774 0.0
C1062 C 0.34427 0.15087 0.90581 0.0
C1063 C 0.34725 0.13019 0.86343 0.0
C1064 C 0.31004 0.13464 0.85626 0.0
H1065 H 0.39376 0.13587 0.89226 0.0
H1066 H 0.36408 0.1213 0.85007 0.0
S1067 S 0.24443 0.16444 0.89677 0.0
N1068 N 0.28383 0.16486 0.91515 0.0
N1069 N 0.25287 0.15103 0.86928 0.0
C1070 C 0.28896 0.14584 0.87424 0.0
C1071 C 0.30602 0.15383 0.89904 0.0
C1072 C 0.84241 0.17046 0.90079 0.0
C1073 C 0.7993 0.16336 0.90466 0.0
C1074 C 0.85315 0.16227 0.87774 0.0
C1075 C 0.82127 0.14686 0.85763 0.0
H1076 H 0.86838 0.1834 0.91562 0.0
H1077 H 0.8872 0.16966 0.87549 0.0
S1078 S 0.7026 0.11963 0.85839 0.0
N1079 N 0.72387 0.13791 0.88667 0.0
N1080 N 0.74384 0.12166 0.84339 0.0
C1081 C 0.7775 0.13787 0.86141 0.0
C1082 C 0.76654 0.14619 0.88492 0.0
C1083 C 0.29494 0.17103 0.49669 0.0
C1084 C 0.31424 0.15893 0.4781 0.0
C1085 C 0.31184 0.17728 0.5209 0.0
C1086 C 0.34877 0.17188 0.52736 0.0
H1087 H 0.26547 0.17397 0.49261 0.0
H1088 H 0.29543 0.18571 0.53473 0.0
S1089 S 0.41301 0.14323 0.48525 0.0
N1090 N 0.37375 0.14435 0.46751 0.0
N1091 N 0.40516 0.15541 0.51314 0.0
C1092 C 0.36939 0.16139 0.50885 0.0
C1093 C 0.35214 0.15499 0.4842 0.0
C1094 C 0.88543 0.18789 0.4948 0.0
C1095 C 0.89099 0.15073 0.49003 0.0
C1096 C 0.87322 0.19633 0.51744 0.0
C1097 C 0.86672 0.16823 0.5362 0.0
H1098 H 0.88842 0.20934 0.48057 0.0
H1099 H 0.86795 0.22453 0.52015 0.0
S1100 S 0.88056 0.06845 0.53332 0.0
N1101 N 0.89187 0.08727 0.50625 0.0
N1102 N 0.8688 0.10289 0.54874 0.0
C1103 C 0.87423 0.13215 0.53196 0.0
C1104 C 0.88637 0.12345 0.50889 0.0
C1105 C 0.85409 0.73454 0.50364 0.0
C1106 C 0.86907 0.71752 0.4849 0.0
C1107 C 0.84397 0.71495 0.52574 0.0
C1108 C 0.84869 0.67774 0.53006 0.0
H1109 H 0.85003 0.76322 0.50122 0.0
H1110 H 0.83234 0.72907 0.53958 0.0
S1111 S 0.88552 0.61952 0.48685 0.0
N1112 N 0.8872 0.66051 0.47207 0.0
N1113 N 0.86885 0.62425 0.51374 0.0
C1114 C 0.86421 0.66072 0.51167 0.0
C1115 C 0.87425 0.68047 0.48908 0.0
loop_
_geom_bond_atom_site_label_1
_geom_bond_atom_site_label_2
_geom_bond_distance
_geom_bond_site_symmetry_2
_ccdc_geom_bond_type
H0 C3 0.931 . S
H1 C6 0.928 . S
H2 C8 0.930 . S
C3 H0 0.931 . S
C3 C4 1.413 . S
C3 C5 1.360 . S
C4 C3 1.413 . S
C4 C8 1.429 . S
C5 C3 1.360 . S
C5 C6 1.372 . S
C6 H1 0.928 . S
C6 C5 1.372 . S
C6 C7 1.404 . S
C7 C6 1.404 . S
C7 C8 1.391 . S
C8 H2 0.930 . S
C8 C4 1.429 . S
C8 C7 1.391 . S
H9 C12 0.931 . S
H10 C15 0.928 . S
H11 C17 0.930 . S
C12 H9 0.931 . S
C12 C13 1.413 . S
C12 C14 1.360 . S
C13 C12 1.413 . S
C13 C17 1.429 . S
C14 C12 1.360 . S
C14 C15 1.372 . S
C15 H10 0.928 . S
C15 C14 1.372 . S
C15 C16 1.404 . S
C16 C15 1.404 . S
C16 C17 1.391 . S
C17 H11 0.930 . S
C17 C13 1.429 . S
C17 C16 1.391 . S
H18 C21 0.931 . S
H19 C24 0.928 . S
H20 C26 0.930 . S
C21 H18 0.931 . S
C21 C22 1.413 . S
C21 C23 1.360 . S
C22 C21 1.413 . S
C22 C26 1.429 . S
C23 C21 1.360 . S
C23 C24 1.372 . S
C24 H19 0.928 . S
C24 C23 1.372 . S
C24 C25 1.404 . S
C25 C24 1.404 . S
C25 C26 1.391 . S
C26 H20 0.930 . S
C26 C22 1.429 . S
C26 C25 1.391 . S
H27 C30 0.931 . S
H28 C33 0.928 . S
H29 C35 0.930 . S
C30 H27 0.931 . S
C30 C31 1.413 . S
C30 C32 1.360 . S
C31 C30 1.413 . S
C31 C35 1.429 . S
C32 C30 1.360 . S
C32 C33 1.372 . S
C33 H28 0.928 . S
C33 C32 1.372 . S
C33 C34 1.404 . S
C34 C33 1.404 . S
C34 C35 1.391 . S
C35 H29 0.930 . S
C35 C31 1.429 . S
C35 C34 1.391 . S
H36 C39 0.931 . S
H37 C42 0.928 . S
H38 C44 0.930 . S
C39 H36 0.931 . S
C39 C40 1.413 . S
C39 C41 1.360 . S
C40 C39 1.413 . S
C40 C44 1.429 . S
C41 C39 1.360 . S
C41 C42 1.372 . S
C42 H37 0.928 . S
C42 C41 1.372 . S
C42 C43 1.404 . S
C43 C42 1.404 . S
C43 C44 1.391 . S
C44 H38 0.930 . S
C44 C40 1.429 . S
C44 C43 1.391 . S
H45 C48 0.931 . S
H46 C51 0.928 . S
H47 C53 0.930 . S
C48 H45 0.931 . S
C48 C49 1.413 . S
C48 C50 1.360 . S
C49 C48 1.413 . S
C49 C53 1.429 . S
C50 C48 1.360 . S
C50 C51 1.372 . S
C51 H46 0.928 . S
C51 C50 1.372 . S
C51 C52 1.404 . S
C52 C51 1.404 . S
C52 C53 1.391 . S
C53 H47 0.930 . S
C53 C49 1.429 . S
C53 C52 1.391 . S
H54 C57 0.931 . S
H55 C60 0.928 . S
H56 C62 0.930 . S
C57 H54 0.931 . S
C57 C58 1.413 . S
C57 C59 1.360 . S
C58 C57 1.413 . S
C58 C62 1.429 . S
C59 C57 1.360 . S
C59 C60 1.372 . S
C60 H55 0.928 . S
C60 C59 1.372 . S
C60 C61 1.404 . S
C61 C60 1.404 . S
C61 C62 1.391 . S
C62 H56 0.930 . S
C62 C58 1.429 . S
C62 C61 1.391 . S
H63 C66 0.931 . S
H64 C69 0.928 . S
H65 C71 0.930 . S
C66 H63 0.931 . S
C66 C67 1.413 . S
C66 C68 1.360 . S
C67 C66 1.413 . S
C67 C71 1.429 . S
C68 C66 1.360 . S
C68 C69 1.372 . S
C69 H64 0.928 . S
C69 C68 1.372 . S
C69 C70 1.404 . S
C70 C69 1.404 . S
C70 C71 1.391 . S
C71 H65 0.930 . S
C71 C67 1.429 . S
C71 C70 1.391 . S
H72 C75 0.931 . S
H73 C78 0.928 . S
H74 C80 0.930 . S
C75 H72 0.931 . S
C75 C76 1.413 . S
C75 C77 1.360 . S
C76 C75 1.413 . S
C76 C80 1.429 . S
C77 C75 1.360 . S
C77 C78 1.372 . S
C78 H73 0.928 . S
C78 C77 1.372 . S
C78 C79 1.404 . S
C79 C78 1.404 . S
C79 C80 1.391 . S
C80 H74 0.930 . S
C80 C76 1.429 . S
C80 C79 1.391 . S
H81 C84 0.931 . S
H82 C87 0.928 . S
H83 C89 0.930 . S
C84 H81 0.931 . S
C84 C85 1.413 . S
C84 C86 1.360 . S
C85 C84 1.413 . S
C85 C89 1.429 . S
C86 C84 1.360 . S
C86 C87 1.372 . S
C87 H82 0.928 . S
C87 C86 1.372 . S
C87 C88 1.404 . S
C88 C87 1.404 . S
C88 C89 1.391 . S
C89 H83 0.930 . S
C89 C85 1.429 . S
C89 C88 1.391 . S
H90 C93 0.931 . S
H91 C96 0.928 . S
H92 C98 0.930 . S
C93 H90 0.931 . S
C93 C94 1.413 . S
C93 C95 1.360 . S
C94 C93 1.413 . S
C94 C98 1.429 . S
C95 C93 1.360 . S
C95 C96 1.372 . S
C96 H91 0.928 . S
C96 C95 1.372 . S
C96 C97 1.404 . S
C97 C96 1.404 . S
C97 C98 1.391 . S
C98 H92 0.930 . S
C98 C94 1.429 . S
C98 C97 1.391 . S
H99 C102 0.931 . S
H100 C105 0.928 . S
H101 C107 0.930 . S
C102 H99 0.931 . S
C102 C103 1.413 . S
C102 C104 1.360 . S
C103 C102 1.413 . S
C103 C107 1.429 . S
C104 C102 1.360 . S
C104 C105 1.372 . S
C105 H100 0.928 . S
C105 C104 1.372 . S
C105 C106 1.404 . S
C106 C105 1.404 . S
C106 C107 1.391 . S
C107 H101 0.930 . S
C107 C103 1.429 . S
C107 C106 1.391 . S
H108 C111 0.931 . S
H109 C114 0.928 . S
H110 C116 0.930 . S
C111 H108 0.931 . S
C111 C112 1.413 . S
C111 C113 1.360 . S
C112 C111 1.413 . S
C112 C116 1.429 . S
C113 C111 1.360 . S
C113 C114 1.372 . S
C114 H109 0.928 . S
C114 C113 1.372 . S
C114 C115 1.404 . S
C115 C114 1.404 . S
C115 C116 1.391 . S
C116 H110 0.930 . S
C116 C112 1.429 . S
C116 C115 1.391 . S
H117 C120 0.931 . S
H118 C123 0.928 . S
H119 C125 0.930 . S
C120 H117 0.931 . S
C120 C121 1.413 . S
C120 C122 1.360 . S
C121 C120 1.413 . S
C121 C125 1.429 . S
C122 C120 1.360 . S
C122 C123 1.372 . S
C123 H118 0.928 . S
C123 C122 1.372 . S
C123 C124 1.404 . S
C124 C123 1.404 . S
C124 C125 1.391 . S
C125 H119 0.930 . S
C125 C121 1.429 . S
C125 C124 1.391 . S
H126 C129 0.931 . S
H127 C132 0.928 . S
H128 C134 0.930 . S
C129 H126 0.931 . S
C129 C130 1.413 . S
C129 C131 1.360 . S
C130 C129 1.413 . S
C130 C134 1.429 . S
C131 C129 1.360 . S
C131 C132 1.372 . S
C132 H127 0.928 . S
C132 C131 1.372 . S
C132 C133 1.404 . S
C133 C132 1.404 . S
C133 C134 1.391 . S
C134 H128 0.930 . S
C134 C130 1.429 . S
C134 C133 1.391 . S
H135 C138 0.931 . S
H136 C141 0.928 . S
H137 C143 0.930 . S
C138 H135 0.931 . S
C138 C139 1.413 . S
C138 C140 1.360 . S
C139 C138 1.413 . S
C139 C143 1.429 . S
C140 C138 1.360 . S
C140 C141 1.372 . S
C141 H136 0.928 . S
C141 C140 1.372 . S
C141 C142 1.404 . S
C142 C141 1.404 . S
C142 C143 1.391 . S
C143 H137 0.930 . S
C143 C139 1.429 . S
C143 C142 1.391 . S
H144 C147 0.931 . S
H145 C150 0.928 . S
H146 C152 0.930 . S
C147 H144 0.931 . S
C147 C148 1.413 . S
C147 C149 1.360 . S
C148 C147 1.413 . S
C148 C152 1.429 . S
C149 C147 1.360 . S
C149 C150 1.372 . S
C150 H145 0.928 . S
C150 C149 1.372 . S
C150 C151 1.404 . S
C151 C150 1.404 . S
C151 C152 1.391 . S
C152 H146 0.930 . S
C152 C148 1.429 . S
C152 C151 1.391 . S
H153 C156 0.931 . S
H154 C159 0.928 . S
H155 C161 0.930 . S
C156 H153 0.931 . S
C156 C157 1.413 . S
C156 C158 1.360 . S
C157 C156 1.413 . S
C157 C161 1.429 . S
C158 C156 1.360 . S
C158 C159 1.372 . S
C159 H154 0.928 . S
C159 C158 1.372 . S
C159 C160 1.404 . S
C160 C159 1.404 . S
C160 C161 1.391 . S
C161 H155 0.930 . S
C161 C157 1.429 . S
C161 C160 1.391 . S
Eu162 C171 2.828 . S
Eu162 O173 2.416 . S
Eu162 O175 2.418 . S
Eu162 O180 2.373 1_565 S
Eu162 O183 2.488 . S
Eu162 O184 2.471 . S
Eu162 O185 2.349 1_565 S
Eu163 O172 2.373 1_545 S
Eu163 O176 2.488 . S
Eu163 O177 2.471 . S
Eu163 O178 2.349 1_545 S
Eu163 O181 2.392 . S
Eu163 O182 2.418 . S
Eu163 C192 2.828 . S
C164 O182 1.244 1_556 S
C164 O185 1.265 . S
C165 C166 1.379 1_565 S
C165 C169 1.373 . S
C165 C171 1.505 . S
C166 C165 1.379 1_545 S
C166 C168 1.369 . S
C166 H194 0.930 . S
C167 C169 1.383 . S
C167 C170 1.379 1_565 S
C167 H195 0.930 . S
C168 C166 1.369 . S
C168 C170 1.395 . S
C168 H196 0.930 . S
C169 C165 1.373 . S
C169 C167 1.383 . S
C169 H197 0.931 . S
C170 C167 1.379 1_545 S
C170 C168 1.395 . S
C171 Eu162 2.828 . S
C171 C165 1.505 . S
C171 O183 1.249 . S
C171 O184 1.244 . S
O172 Eu163 2.373 1_565 S
O172 C174 1.258 . S
O173 Eu162 2.416 . S
O173 C174 1.215 1_556 S
C174 O172 1.258 . S
C174 O173 1.215 1_554 S
O175 Eu162 2.418 . S
O175 C179 1.244 1_556 S
O176 Eu163 2.488 . S
O176 C192 1.249 . S
O177 Eu163 2.471 . S
O177 C192 1.244 . S
O178 Eu163 2.349 1_565 S
O178 C179 1.265 . S
C179 O175 1.244 1_554 S
C179 O178 1.265 . S
O180 Eu162 2.373 1_545 S
O180 C193 1.258 . S
O181 Eu163 2.392 . S
O181 C193 1.242 1_554 S
O182 Eu163 2.418 . S
O182 C164 1.244 1_554 S
O183 Eu162 2.488 . S
O183 C171 1.249 . S
O184 Eu162 2.471 . S
O184 C171 1.244 . S
O185 Eu162 2.349 1_545 S
O185 C164 1.265 . S
C186 C187 1.379 1_545 S
C186 C190 1.373 . S
C186 C192 1.505 . S
C187 C186 1.379 1_565 S
C187 C189 1.369 . S
C187 H198 0.930 . S
C188 C190 1.383 . S
C188 C191 1.383 . S
C188 H199 0.930 . S
C189 C187 1.369 . S
C189 C191 1.392 1_565 S
C189 H200 0.930 . S
C190 C186 1.373 . S
C190 C188 1.383 . S
C190 H201 0.931 . S
C191 C188 1.383 . S
C191 C189 1.392 1_545 S
C192 Eu163 2.828 . S
C192 O176 1.249 . S
C192 O177 1.244 . S
C192 C186 1.505 . S
C193 O180 1.258 . S
C193 O181 1.242 1_556 S
H194 C166 0.930 . S
H195 C167 0.930 . S
H196 C168 0.930 . S
H197 C169 0.931 . S
H198 C187 0.930 . S
H199 C188 0.930 . S
H200 C189 0.930 . S
H201 C190 0.931 . S
Eu202 C211 2.828 . S
Eu202 O213 2.392 1_556 S
Eu202 O215 2.418 . S
Eu202 O220 2.373 1_455 S
Eu202 O223 2.488 . S
Eu202 O224 2.471 1_455 S
Eu202 O225 2.349 1_455 S
Eu203 O212 2.373 1_655 S
Eu203 O216 2.488 . S
Eu203 O217 2.471 1_655 S
Eu203 O218 2.349 1_655 S
Eu203 O221 2.392 1_554 S
Eu203 O222 2.418 . S
Eu203 C232 2.828 . S
C204 O222 1.244 1_556 S
C204 O225 1.265 . S
C205 C206 1.379 1_455 S
C205 C209 1.373 . S
C205 C211 1.505 . S
C206 C205 1.379 1_655 S
C206 C208 1.369 . S
C206 H234 0.930 . S
C207 C209 1.383 . S
C207 C210 1.382 1_455 S
C207 H235 0.930 . S
C208 C206 1.369 . S
C208 C210 1.392 . S
C208 H236 0.930 . S
C209 C205 1.373 . S
C209 C207 1.383 . S
C209 H237 0.931 . S
C210 C207 1.382 1_655 S
C210 C208 1.392 . S
C211 Eu202 2.828 . S
C211 C205 1.505 . S
C211 O223 1.249 . S
C211 O224 1.244 1_455 S
O212 Eu203 2.373 1_455 S
O212 C214 1.258 . S
O213 Eu202 2.392 1_554 S
O213 C214 1.242 . S
C214 O212 1.258 . S
C214 O213 1.242 . S
O215 Eu202 2.418 . S
O215 C219 1.244 1_556 S
O216 Eu203 2.488 . S
O216 C232 1.249 . S
O217 Eu203 2.471 1_455 S
O217 C232 1.244 1_455 S
O218 Eu203 2.349 1_455 S
O218 C219 1.265 . S
C219 O215 1.244 1_554 S
C219 O218 1.265 . S
O220 Eu202 2.373 1_655 S
O220 C233 1.258 . S
O221 Eu203 2.392 1_556 S
O221 C233 1.242 . S
O222 Eu203 2.418 . S
O222 C204 1.244 1_554 S
O223 Eu202 2.488 . S
O223 C211 1.249 . S
O224 Eu202 2.471 1_655 S
O224 C211 1.244 1_655 S
O225 Eu202 2.349 1_655 S
O225 C204 1.265 . S
C226 C227 1.379 1_655 S
C226 C230 1.373 . S
C226 C232 1.505 . S
C227 C226 1.379 1_455 S
C227 C229 1.369 . S
C227 H238 0.930 . S
C228 C230 1.383 . S
C228 C231 1.382 1_655 S
C228 H239 0.930 . S
C229 C227 1.369 . S
C229 C231 1.392 . S
C229 H240 0.930 . S
C230 C226 1.373 . S
C230 C228 1.383 . S
C230 H241 0.931 . S
C231 C228 1.382 1_455 S
C231 C229 1.392 . S
C232 Eu203 2.828 . S
C232 O216 1.249 . S
C232 O217 1.244 1_655 S
C232 C226 1.505 . S
C233 O220 1.258 . S
C233 O221 1.242 . S
H234 C206 0.930 . S
H235 C207 0.930 . S
H236 C208 0.930 . S
H237 C209 0.931 . S
H238 C227 0.930 . S
H239 C228 0.930 . S
H240 C229 0.930 . S
H241 C230 0.931 . S
Eu242 C251 2.828 . S
Eu242 O253 2.417 . S
Eu242 O255 2.418 . S
Eu242 O260 2.373 . S
Eu242 O263 2.488 . S
Eu242 O264 2.471 . S
Eu242 O265 2.349 . S
Eu243 O252 2.373 . S
Eu243 O256 2.488 . S
Eu243 O257 2.471 . S
Eu243 O258 2.349 . S
Eu243 O261 2.392 1_556 S
Eu243 O262 2.418 . S
Eu243 C272 2.828 . S
C244 O262 1.244 1_554 S
C244 O265 1.265 . S
C245 C246 1.379 . S
C245 C249 1.373 . S
C245 C251 1.505 . S
C246 C245 1.379 . S
C246 C248 1.369 . S
C246 H274 0.930 . S
C247 C249 1.383 . S
C247 C250 1.382 . S
C247 H275 0.930 . S
C248 C246 1.369 . S
C248 C250 1.392 . S
C248 H276 0.930 . S
C249 C245 1.373 . S
C249 C247 1.383 . S
C249 H277 0.931 . S
C250 C247 1.382 . S
C250 C248 1.392 . S
C251 Eu242 2.828 . S
C251 C245 1.505 . S
C251 O263 1.249 . S
C251 O264 1.244 . S
O252 Eu243 2.373 . S
O252 C254 1.258 . S
O253 Eu242 2.417 . S
O253 C254 1.214 1_554 S
C254 O252 1.258 . S
C254 O253 1.214 1_556 S
O255 Eu242 2.418 . S
O255 C259 1.244 1_554 S
O256 Eu243 2.488 . S
O256 C272 1.249 . S
O257 Eu243 2.471 . S
O257 C272 1.244 . S
O258 Eu243 2.349 . S
O258 C259 1.265 . S
C259 O255 1.244 1_556 S
C259 O258 1.265 . S
O260 Eu242 2.373 . S
O260 C273 1.258 . S
O261 Eu243 2.392 1_554 S
O261 C273 1.242 . S
O262 Eu243 2.418 . S
O262 C244 1.244 1_556 S
O263 Eu242 2.488 . S
O263 C251 1.249 . S
O264 Eu242 2.471 . S
O264 C251 1.244 . S
O265 Eu242 2.349 . S
O265 C244 1.265 . S
C266 C267 1.379 . S
C266 C270 1.373 . S
C266 C272 1.505 . S
C267 C266 1.379 . S
C267 C269 1.369 . S
C267 H278 0.930 . S
C268 C270 1.383 . S
C268 C271 1.382 . S
C268 H279 0.930 . S
C269 C267 1.369 . S
C269 C271 1.392 . S
C269 H280 0.930 . S
C270 C266 1.373 . S
C270 C268 1.383 . S
C270 H281 0.931 . S
C271 C268 1.382 . S
C271 C269 1.392 . S
C272 Eu243 2.828 . S
C272 O256 1.249 . S
C272 O257 1.244 . S
C272 C266 1.505 . S
C273 O260 1.258 . S
C273 O261 1.242 . S
H274 C246 0.930 . S
H275 C247 0.930 . S
H276 C248 0.930 . S
H277 C249 0.931 . S
H278 C267 0.930 . S
H279 C268 0.930 . S
H280 C269 0.930 . S
H281 C270 0.931 . S
Eu282 C291 2.828 . S
Eu282 O293 2.392 . S
Eu282 O295 2.418 . S
Eu282 O300 2.373 . S
Eu282 O303 2.488 . S
Eu282 O304 2.471 . S
Eu282 O305 2.349 . S
Eu283 O292 2.373 . S
Eu283 O296 2.488 . S
Eu283 O297 2.471 . S
Eu283 O298 2.349 . S
Eu283 O301 2.392 . S
Eu283 O302 2.418 . S
Eu283 C312 2.828 . S
C284 O302 1.244 . S
C284 O305 1.265 . S
C285 C286 1.379 . S
C285 C289 1.373 . S
C285 C291 1.505 . S
C286 C285 1.379 . S
C286 C288 1.369 . S
C286 H314 0.930 . S
C287 C289 1.383 . S
C287 C290 1.382 . S
C287 H315 0.930 . S
C288 C286 1.369 . S
C288 C290 1.392 . S
C288 H316 0.930 . S
C289 C285 1.373 . S
C289 C287 1.383 . S
C289 H317 0.931 . S
C290 C287 1.382 . S
C290 C288 1.392 . S
C291 Eu282 2.828 . S
C291 C285 1.505 . S
C291 O303 1.249 . S
C291 O304 1.244 . S
O292 Eu283 2.373 . S
O292 C294 1.258 . S
O293 Eu282 2.392 . S
O293 C294 1.242 . S
C294 O292 1.258 . S
C294 O293 1.242 . S
O295 Eu282 2.418 . S
O295 C299 1.244 . S
O296 Eu283 2.488 . S
O296 C312 1.249 . S
O297 Eu283 2.471 . S
O297 C312 1.244 . S
O298 Eu283 2.349 . S
O298 C299 1.265 . S
C299 O295 1.244 . S
C299 O298 1.265 . S
O300 Eu282 2.373 . S
O300 C313 1.258 . S
O301 Eu283 2.392 . S
O301 C313 1.242 . S
O302 Eu283 2.418 . S
O302 C284 1.244 . S
O303 Eu282 2.488 . S
O303 C291 1.249 . S
O304 Eu282 2.471 . S
O304 C291 1.244 . S
O305 Eu282 2.349 . S
O305 C284 1.265 . S
C306 C307 1.379 . S
C306 C310 1.373 . S
C306 C312 1.505 . S
C307 C306 1.379 . S
C307 C309 1.369 . S
C307 H318 0.930 . S
C308 C310 1.383 . S
C308 C311 1.382 . S
C308 H319 0.930 . S
C309 C307 1.369 . S
C309 C311 1.392 . S
C309 H320 0.930 . S
C310 C306 1.373 . S
C310 C308 1.383 . S
C310 H321 0.931 . S
C311 C308 1.382 . S
C311 C309 1.392 . S
C312 Eu283 2.828 . S
C312 O296 1.249 . S
C312 O297 1.244 . S
C312 C306 1.505 . S
C313 O300 1.258 . S
C313 O301 1.242 . S
H314 C286 0.930 . S
H315 C287 0.930 . S
H316 C288 0.930 . S
H317 C289 0.931 . S
H318 C307 0.930 . S
H319 C308 0.930 . S
H320 C309 0.930 . S
H321 C310 0.931 . S
Eu322 C331 2.828 . S
Eu322 O333 2.392 . S
Eu322 O335 2.418 . S
Eu322 O340 2.373 . S
Eu322 O343 2.488 . S
Eu322 O344 2.471 . S
Eu322 O345 2.349 . S
Eu323 O332 2.373 . S
Eu323 O336 2.488 . S
Eu323 O337 2.471 . S
Eu323 O338 2.349 . S
Eu323 O341 2.392 . S
Eu323 O342 2.418 . S
Eu323 C352 2.828 . S
C324 O342 1.244 . S
C324 O345 1.265 . S
C325 C326 1.379 . S
C325 C329 1.373 . S
C325 C331 1.505 . S
C326 C325 1.379 . S
C326 C328 1.369 . S
C326 H354 0.930 . S
C327 C329 1.383 . S
C327 C330 1.382 . S
C327 H355 0.930 . S
C328 C326 1.369 . S
C328 C330 1.392 . S
C328 H356 0.930 . S
C329 C325 1.373 . S
C329 C327 1.383 . S
C329 H357 0.931 . S
C330 C327 1.382 . S
C330 C328 1.392 . S
C331 Eu322 2.828 . S
C331 C325 1.505 . S
C331 O343 1.249 . S
C331 O344 1.244 . S
O332 Eu323 2.373 . S
O332 C334 1.258 . S
O333 Eu322 2.392 . S
O333 C334 1.242 . S
C334 O332 1.258 . S
C334 O333 1.242 . S
O335 Eu322 2.418 . S
O335 C339 1.244 . S
O336 Eu323 2.488 . S
O336 C352 1.249 . S
O337 Eu323 2.471 . S
O337 C352 1.244 . S
O338 Eu323 2.349 . S
O338 C339 1.265 . S
C339 O335 1.244 . S
C339 O338 1.265 . S
O340 Eu322 2.373 . S
O340 C353 1.258 . S
O341 Eu323 2.392 . S
O341 C353 1.242 . S
O342 Eu323 2.418 . S
O342 C324 1.244 . S
O343 Eu322 2.488 . S
O343 C331 1.249 . S
O344 Eu322 2.471 . S
O344 C331 1.244 . S
O345 Eu322 2.349 . S
O345 C324 1.265 . S
C346 C347 1.379 . S
C346 C350 1.373 . S
C346 C352 1.505 . S
C347 C346 1.379 . S
C347 C349 1.369 . S
C347 H358 0.930 . S
C348 C350 1.383 . S
C348 C351 1.382 . S
C348 H359 0.930 . S
C349 C347 1.369 . S
C349 C351 1.392 . S
C349 H360 0.930 . S
C350 C346 1.373 . S
C350 C348 1.383 . S
C350 H361 0.931 . S
C351 C348 1.382 . S
C351 C349 1.392 . S
C352 Eu323 2.828 . S
C352 O336 1.249 . S
C352 O337 1.244 . S
C352 C346 1.505 . S
C353 O340 1.258 . S
C353 O341 1.242 . S
H354 C326 0.930 . S
H355 C327 0.930 . S
H356 C328 0.930 . S
H357 C329 0.931 . S
H358 C347 0.930 . S
H359 C348 0.930 . S
H360 C349 0.930 . S
H361 C350 0.931 . S
Eu362 C371 2.828 . S
Eu362 O373 2.392 . S
Eu362 O375 2.418 . S
Eu362 O380 2.373 . S
Eu362 O383 2.488 . S
Eu362 O384 2.471 . S
Eu362 O385 2.349 . S
Eu363 O372 2.373 . S
Eu363 O376 2.488 . S
Eu363 O377 2.471 . S
Eu363 O378 2.349 . S
Eu363 O381 2.392 . S
Eu363 O382 2.418 . S
Eu363 C392 2.828 . S
C364 O382 1.244 . S
C364 O385 1.265 . S
C365 C366 1.379 . S
C365 C369 1.373 . S
C365 C371 1.505 . S
C366 C365 1.379 . S
C366 C368 1.369 . S
C366 H394 0.930 . S
C367 C369 1.383 . S
C367 C370 1.382 . S
C367 H395 0.930 . S
C368 C366 1.369 . S
C368 C370 1.392 . S
C368 H396 0.930 . S
C369 C365 1.373 . S
C369 C367 1.383 . S
C369 H397 0.931 . S
C370 C367 1.382 . S
C370 C368 1.392 . S
C371 Eu362 2.828 . S
C371 C365 1.505 . S
C371 O383 1.249 . S
C371 O384 1.244 . S
O372 Eu363 2.373 . S
O372 C374 1.258 . S
O373 Eu362 2.392 . S
O373 C374 1.242 . S
C374 O372 1.258 . S
C374 O373 1.242 . S
O375 Eu362 2.418 . S
O375 C379 1.244 . S
O376 Eu363 2.488 . S
O376 C392 1.249 . S
O377 Eu363 2.471 . S
O377 C392 1.244 . S
O378 Eu363 2.349 . S
O378 C379 1.265 . S
C379 O375 1.244 . S
C379 O378 1.265 . S
O380 Eu362 2.373 . S
O380 C393 1.258 . S
O381 Eu363 2.392 . S
O381 C393 1.242 . S
O382 Eu363 2.418 . S
O382 C364 1.244 . S
O383 Eu362 2.488 . S
O383 C371 1.249 . S
O384 Eu362 2.471 . S
O384 C371 1.244 . S
O385 Eu362 2.349 . S
O385 C364 1.265 . S
C386 C387 1.379 . S
C386 C390 1.373 . S
C386 C392 1.505 . S
C387 C386 1.379 . S
C387 C389 1.369 . S
C387 H398 0.930 . S
C388 C390 1.383 . S
C388 C391 1.382 . S
C388 H399 0.930 . S
C389 C387 1.369 . S
C389 C391 1.392 . S
C389 H400 0.930 . S
C390 C386 1.373 . S
C390 C388 1.383 . S
C390 H401 0.931 . S
C391 C388 1.382 . S
C391 C389 1.392 . S
C392 Eu363 2.828 . S
C392 O376 1.249 . S
C392 O377 1.244 . S
C392 C386 1.505 . S
C393 O380 1.258 . S
C393 O381 1.242 . S
H394 C366 0.930 . S
H395 C367 0.930 . S
H396 C368 0.930 . S
H397 C369 0.931 . S
H398 C387 0.930 . S
H399 C388 0.930 . S
H400 C389 0.930 . S
H401 C390 0.931 . S
Eu402 C411 2.828 . S
Eu402 O413 2.392 . S
Eu402 O415 2.418 . S
Eu402 O420 2.373 . S
Eu402 O423 2.488 . S
Eu402 O424 2.471 . S
Eu402 O425 2.349 . S
Eu403 O412 2.373 . S
Eu403 O416 2.488 . S
Eu403 O417 2.471 . S
Eu403 O418 2.349 . S
Eu403 O421 2.392 . S
Eu403 O422 2.418 . S
Eu403 C432 2.828 . S
C404 O422 1.244 . S
C404 O425 1.265 . S
C405 C406 1.379 . S
C405 C409 1.373 . S
C405 C411 1.505 . S
C406 C405 1.379 . S
C406 C408 1.369 . S
C406 H434 0.930 . S
C407 C409 1.383 . S
C407 C410 1.382 . S
C407 H435 0.930 . S
C408 C406 1.369 . S
C408 C410 1.392 . S
C408 H436 0.930 . S
C409 C405 1.373 . S
C409 C407 1.383 . S
C409 H437 0.931 . S
C410 C407 1.382 . S
C410 C408 1.392 . S
C411 Eu402 2.828 . S
C411 C405 1.505 . S
C411 O423 1.249 . S
C411 O424 1.244 . S
O412 Eu403 2.373 . S
O412 C414 1.258 . S
O413 Eu402 2.392 . S
O413 C414 1.242 . S
C414 O412 1.258 . S
C414 O413 1.242 . S
O415 Eu402 2.418 . S
O415 C419 1.244 . S
O416 Eu403 2.488 . S
O416 C432 1.249 . S
O417 Eu403 2.471 . S
O417 C432 1.244 . S
O418 Eu403 2.349 . S
O418 C419 1.265 . S
C419 O415 1.244 . S
C419 O418 1.265 . S
O420 Eu402 2.373 . S
O420 C433 1.258 . S
O421 Eu403 2.392 . S
O421 C433 1.242 . S
O422 Eu403 2.418 . S
O422 C404 1.244 . S
O423 Eu402 2.488 . S
O423 C411 1.249 . S
O424 Eu402 2.471 . S
O424 C411 1.244 . S
O425 Eu402 2.349 . S
O425 C404 1.265 . S
C426 C427 1.379 . S
C426 C430 1.373 . S
C426 C432 1.505 . S
C427 C426 1.379 . S
C427 C429 1.369 . S
C427 H438 0.930 . S
C428 C430 1.383 . S
C428 C431 1.382 . S
C428 H439 0.930 . S
C429 C427 1.369 . S
C429 C431 1.392 . S
C429 H440 0.930 . S
C430 C426 1.373 . S
C430 C428 1.383 . S
C430 H441 0.931 . S
C431 C428 1.382 . S
C431 C429 1.392 . S
C432 Eu403 2.828 . S
C432 O416 1.249 . S
C432 O417 1.244 . S
C432 C426 1.505 . S
C433 O420 1.258 . S
C433 O421 1.242 . S
H434 C406 0.930 . S
H435 C407 0.930 . S
H436 C408 0.930 . S
H437 C409 0.931 . S
H438 C427 0.930 . S
H439 C428 0.930 . S
H440 C429 0.930 . S
H441 C430 0.931 . S
Eu442 C451 2.828 . S
Eu442 O453 2.392 . S
Eu442 O455 2.418 . S
Eu442 O460 2.373 . S
Eu442 O463 2.488 . S
Eu442 O464 2.471 . S
Eu442 O465 2.349 . S
Eu443 O452 2.373 . S
Eu443 O456 2.488 . S
Eu443 O457 2.471 . S
Eu443 O458 2.349 . S
Eu443 O461 2.392 . S
Eu443 O462 2.418 . S
Eu443 C472 2.828 . S
C444 O462 1.244 . S
C444 O465 1.265 . S
C445 C446 1.379 . S
C445 C449 1.373 . S
C445 C451 1.505 . S
C446 C445 1.379 . S
C446 C448 1.369 . S
C446 H474 0.930 . S
C447 C449 1.383 . S
C447 C450 1.382 . S
C447 H475 0.930 . S
C448 C446 1.369 . S
C448 C450 1.392 . S
C448 H476 0.930 . S
C449 C445 1.373 . S
C449 C447 1.383 . S
C449 H477 0.931 . S
C450 C447 1.382 . S
C450 C448 1.392 . S
C451 Eu442 2.828 . S
C451 C445 1.505 . S
C451 O463 1.249 . S
C451 O464 1.244 . S
O452 Eu443 2.373 . S
O452 C454 1.258 . S
O453 Eu442 2.392 . S
O453 C454 1.242 . S
C454 O452 1.258 . S
C454 O453 1.242 . S
O455 Eu442 2.418 . S
O455 C459 1.244 . S
O456 Eu443 2.488 . S
O456 C472 1.249 . S
O457 Eu443 2.471 . S
O457 C472 1.244 . S
O458 Eu443 2.349 . S
O458 C459 1.265 . S
C459 O455 1.244 . S
C459 O458 1.265 . S
O460 Eu442 2.373 . S
O460 C473 1.258 . S
O461 Eu443 2.392 . S
O461 C473 1.242 . S
O462 Eu443 2.418 . S
O462 C444 1.244 . S
O463 Eu442 2.488 . S
O463 C451 1.249 . S
O464 Eu442 2.471 . S
O464 C451 1.244 . S
O465 Eu442 2.349 . S
O465 C444 1.265 . S
C466 C467 1.379 . S
C466 C470 1.373 . S
C466 C472 1.505 . S
C467 C466 1.379 . S
C467 C469 1.369 . S
C467 H478 0.930 . S
C468 C470 1.383 . S
C468 C471 1.382 . S
C468 H479 0.930 . S
C469 C467 1.369 . S
C469 C471 1.392 . S
C469 H480 0.930 . S
C470 C466 1.373 . S
C470 C468 1.383 . S
C470 H481 0.931 . S
C471 C468 1.382 . S
C471 C469 1.392 . S
C472 Eu443 2.828 . S
C472 O456 1.249 . S
C472 O457 1.244 . S
C472 C466 1.505 . S
C473 O460 1.258 . S
C473 O461 1.242 . S
H474 C446 0.930 . S
H475 C447 0.930 . S
H476 C448 0.930 . S
H477 C449 0.931 . S
H478 C467 0.930 . S
H479 C468 0.930 . S
H480 C469 0.930 . S
H481 C470 0.931 . S
Eu482 C491 2.828 . S
Eu482 O493 2.392 . S
Eu482 O495 2.418 . S
Eu482 O500 2.373 . S
Eu482 O503 2.488 . S
Eu482 O504 2.471 . S
Eu482 O505 2.349 . S
Eu483 O492 2.373 . S
Eu483 O496 2.488 . S
Eu483 O497 2.471 . S
Eu483 O498 2.349 . S
Eu483 O501 2.392 . S
Eu483 O502 2.418 . S
Eu483 C512 2.828 . S
C484 O502 1.244 . S
C484 O505 1.265 . S
C485 C486 1.379 . S
C485 C489 1.373 . S
C485 C491 1.505 . S
C486 C485 1.379 . S
C486 C488 1.369 . S
C486 H514 0.930 . S
C487 C489 1.383 . S
C487 C490 1.382 . S
C487 H515 0.930 . S
C488 C486 1.369 . S
C488 C490 1.392 . S
C488 H516 0.930 . S
C489 C485 1.373 . S
C489 C487 1.383 . S
C489 H517 0.931 . S
C490 C487 1.382 . S
C490 C488 1.392 . S
C491 Eu482 2.828 . S
C491 C485 1.505 . S
C491 O503 1.249 . S
C491 O504 1.244 . S
O492 Eu483 2.373 . S
O492 C494 1.258 . S
O493 Eu482 2.392 . S
O493 C494 1.242 . S
C494 O492 1.258 . S
C494 O493 1.242 . S
O495 Eu482 2.418 . S
O495 C499 1.244 . S
O496 Eu483 2.488 . S
O496 C512 1.249 . S
O497 Eu483 2.471 . S
O497 C512 1.244 . S
O498 Eu483 2.349 . S
O498 C499 1.265 . S
C499 O495 1.244 . S
C499 O498 1.265 . S
O500 Eu482 2.373 . S
O500 C513 1.258 . S
O501 Eu483 2.392 . S
O501 C513 1.242 . S
O502 Eu483 2.418 . S
O502 C484 1.244 . S
O503 Eu482 2.488 . S
O503 C491 1.249 . S
O504 Eu482 2.471 . S
O504 C491 1.244 . S
O505 Eu482 2.349 . S
O505 C484 1.265 . S
C506 C507 1.379 . S
C506 C510 1.373 . S
C506 C512 1.505 . S
C507 C506 1.379 . S
C507 C509 1.369 . S
C507 H518 0.930 . S
C508 C510 1.383 . S
C508 C511 1.382 . S
C508 H519 0.930 . S
C509 C507 1.369 . S
C509 C511 1.392 . S
C509 H520 0.930 . S
C510 C506 1.373 . S
C510 C508 1.383 . S
C510 H521 0.931 . S
C511 C508 1.382 . S
C511 C509 1.392 . S
C512 Eu483 2.828 . S
C512 O496 1.249 . S
C512 O497 1.244 . S
C512 C506 1.505 . S
C513 O500 1.258 . S
C513 O501 1.242 . S
H514 C486 0.930 . S
H515 C487 0.930 . S
H516 C488 0.930 . S
H517 C489 0.931 . S
H518 C507 0.930 . S
H519 C508 0.930 . S
H520 C509 0.930 . S
H521 C510 0.931 . S
C522 C523 1.369 . S
C522 C524 1.419 . S
C522 H526 0.930 . S
C523 C522 1.369 . S
C523 C532 1.429 . S
C524 C522 1.419 . S
C524 C525 1.363 . S
C524 H527 0.929 . S
C525 C524 1.363 . S
C525 C531 1.428 . S
H526 C522 0.930 . S
H527 C524 0.929 . S
S528 N529 1.613 1_556 S
S528 N530 1.610 . S
N529 S528 1.613 1_554 S
N529 C532 1.350 . S
N530 S528 1.610 . S
N530 C531 1.351 1_556 S
C531 C525 1.428 . S
C531 N530 1.351 1_554 S
C531 C532 1.434 . S
C532 C523 1.429 . S
C532 N529 1.350 . S
C532 C531 1.434 . S
C533 C534 1.369 . S
C533 C535 1.419 . S
C533 H537 0.930 . S
C534 C533 1.369 . S
C534 C543 1.429 . S
C535 C533 1.419 . S
C535 C536 1.363 . S
C535 H538 0.929 . S
C536 C535 1.363 . S
C536 C542 1.428 . S
H537 C533 0.930 . S
H538 C535 0.929 . S
S539 N540 1.613 . S
S539 N541 1.610 . S
N540 S539 1.613 . S
N540 C543 1.350 . S
N541 S539 1.610 . S
N541 C542 1.351 . S
C542 C536 1.428 . S
C542 N541 1.351 . S
C542 C543 1.434 . S
C543 C534 1.429 . S
C543 N540 1.350 . S
C543 C542 1.434 . S
C544 C545 1.369 . S
C544 C546 1.419 . S
C544 H548 0.930 . S
C545 C544 1.369 . S
C545 C554 1.429 . S
C546 C544 1.419 . S
C546 C547 1.363 . S
C546 H549 0.929 . S
C547 C546 1.363 . S
C547 C553 1.428 . S
H548 C544 0.930 . S
H549 C546 0.929 . S
S550 N551 1.626 . S
S550 N552 1.610 . S
N551 S550 1.626 . S
N551 C554 1.335 1_556 S
N552 S550 1.610 . S
N552 C553 1.351 1_556 S
C553 C547 1.428 . S
C553 N552 1.351 1_554 S
C553 C554 1.434 . S
C554 C545 1.429 . S
C554 N551 1.335 1_554 S
C554 C553 1.434 . S
C555 C556 1.369 . S
C555 C557 1.419 . S
C555 H559 0.930 . S
C556 C555 1.369 . S
C556 C565 1.429 . S
C557 C555 1.419 . S
C557 C558 1.363 . S
C557 H560 0.929 . S
C558 C557 1.363 . S
C558 C564 1.428 . S
H559 C555 0.930 . S
H560 C557 0.929 . S
S561 N562 1.613 . S
S561 N563 1.610 . S
N562 S561 1.613 . S
N562 C565 1.350 1_554 S
N563 S561 1.610 . S
N563 C564 1.351 1_554 S
C564 C558 1.428 . S
C564 N563 1.351 1_556 S
C564 C565 1.434 . S
C565 C556 1.429 . S
C565 N562 1.350 1_556 S
C565 C564 1.434 . S
C566 C567 1.369 . S
C566 C568 1.419 . S
C566 H570 0.930 . S
C567 C566 1.369 . S
C567 C576 1.429 . S
C568 C566 1.419 . S
C568 C569 1.363 . S
C568 H571 0.929 . S
C569 C568 1.363 . S
C569 C575 1.428 . S
H570 C566 0.930 . S
H571 C568 0.929 . S
S572 N573 1.613 . S
S572 N574 1.610 . S
N573 S572 1.613 . S
N573 C576 1.350 . S
N574 S572 1.610 . S
N574 C575 1.351 . S
C575 C569 1.428 . S
C575 N574 1.351 . S
C575 C576 1.434 . S
C576 C567 1.429 . S
C576 N573 1.350 . S
C576 C575 1.434 . S
C577 C578 1.369 . S
C577 C579 1.419 . S
C577 H581 0.930 . S
C578 C577 1.369 . S
C578 C587 1.429 . S
C579 C577 1.419 . S
C579 C580 1.363 . S
C579 H582 0.929 . S
C580 C579 1.363 . S
C580 C586 1.428 . S
H581 C577 0.930 . S
H582 C579 0.929 . S
S583 N584 1.613 . S
S583 N585 1.610 . S
N584 S583 1.613 . S
N584 C587 1.350 . S
N585 S583 1.610 . S
N585 C586 1.351 . S
C586 C580 1.428 . S
C586 N585 1.351 . S
C586 C587 1.434 . S
C587 C578 1.429 . S
C587 N584 1.350 . S
C587 C586 1.434 . S
C588 C589 1.369 . S
C588 C590 1.419 . S
C588 H592 0.930 . S
C589 C588 1.369 . S
C589 C598 1.429 . S
C590 C588 1.419 . S
C590 C591 1.363 . S
C590 H593 0.929 . S
C591 C590 1.363 . S
C591 C597 1.428 . S
H592 C588 0.930 . S
H593 C590 0.929 . S
S594 N595 1.613 1_554 S
S594 N596 1.610 . S
N595 S594 1.613 1_556 S
N595 C598 1.350 . S
N596 S594 1.610 . S
N596 C597 1.351 1_554 S
C597 C591 1.428 . S
C597 N596 1.351 1_556 S
C597 C598 1.434 . S
C598 C589 1.429 . S
C598 N595 1.350 . S
C598 C597 1.434 . S
C599 C600 1.369 . S
C599 C601 1.419 . S
C599 H603 0.930 . S
C600 C599 1.369 . S
C600 C609 1.429 . S
C601 C599 1.419 . S
C601 C602 1.363 . S
C601 H604 0.929 . S
C602 C601 1.363 . S
C602 C608 1.428 . S
H603 C599 0.930 . S
H604 C601 0.929 . S
S605 N606 1.613 1_554 S
S605 N607 1.610 . S
N606 S605 1.613 1_556 S
N606 C609 1.350 . S
N607 S605 1.610 . S
N607 C608 1.351 1_554 S
C608 C602 1.428 . S
C608 N607 1.351 1_556 S
C608 C609 1.434 . S
C609 C600 1.429 . S
C609 N606 1.350 . S
C609 C608 1.434 . S
C610 C611 1.369 . S
C610 C612 1.419 . S
C610 H614 0.930 1_556 S
C611 C610 1.369 . S
C611 C620 1.429 . S
C612 C610 1.419 . S
C612 C613 1.363 . S
C612 H615 0.929 1_556 S
C613 C612 1.363 . S
C613 C619 1.428 . S
H614 C610 0.930 1_554 S
H615 C612 0.929 1_554 S
S616 N617 1.613 . S
S616 N618 1.610 . S
N617 S616 1.613 . S
N617 C620 1.350 . S
N618 S616 1.610 . S
N618 C619 1.351 . S
C619 C613 1.428 . S
C619 N618 1.351 . S
C619 C620 1.434 . S
C620 C611 1.429 . S
C620 N617 1.350 . S
C620 C619 1.434 . S
C621 C622 1.369 . S
C621 C623 1.419 . S
C621 H625 0.930 . S
C622 C621 1.369 . S
C622 C631 1.429 . S
C623 C621 1.419 . S
C623 C624 1.363 . S
C623 H626 0.929 . S
C624 C623 1.363 . S
C624 C630 1.428 . S
H625 C621 0.930 . S
H626 C623 0.929 . S
S627 N628 1.613 . S
S627 N629 1.610 . S
N628 S627 1.613 . S
N628 C631 1.350 . S
N629 S627 1.610 . S
N629 C630 1.351 . S
C630 C624 1.428 . S
C630 N629 1.351 . S
C630 C631 1.434 . S
C631 C622 1.429 . S
C631 N628 1.350 . S
C631 C630 1.434 . S
C632 C633 1.369 . S
C632 C634 1.419 . S
C632 H636 0.930 . S
C633 C632 1.369 . S
C633 C642 1.429 . S
C634 C632 1.419 . S
C634 C635 1.363 . S
C634 H637 0.929 . S
C635 C634 1.363 . S
C635 C641 1.428 . S
H636 C632 0.930 . S
H637 C634 0.929 . S
S638 N639 1.613 . S
S638 N640 1.610 . S
N639 S638 1.613 . S
N639 C642 1.350 . S
N640 S638 1.610 . S
N640 C641 1.351 . S
C641 C635 1.428 . S
C641 N640 1.351 . S
C641 C642 1.434 . S
C642 C633 1.429 . S
C642 N639 1.350 . S
C642 C641 1.434 . S
C643 C644 1.369 . S
C643 C645 1.419 . S
C643 H647 0.930 . S
C644 C643 1.369 . S
C644 C653 1.429 . S
C645 C643 1.419 . S
C645 C646 1.363 . S
C645 H648 0.929 . S
C646 C645 1.363 . S
C646 C652 1.428 . S
H647 C643 0.930 . S
H648 C645 0.929 . S
S649 N650 1.613 . S
S649 N651 1.610 . S
N650 S649 1.613 . S
N650 C653 1.350 . S
N651 S649 1.610 . S
N651 C652 1.351 . S
C652 C646 1.428 . S
C652 N651 1.351 . S
C652 C653 1.434 . S
C653 C644 1.429 . S
C653 N650 1.350 . S
C653 C652 1.434 . S
C654 C655 1.369 . S
C654 C656 1.419 1_655 S
C654 H658 0.930 . S
C655 C654 1.369 . S
C655 C664 1.429 . S
C656 C654 1.419 1_455 S
C656 C657 1.363 . S
C656 H659 0.929 . S
C657 C656 1.363 . S
C657 C663 1.428 . S
H658 C654 0.930 . S
H659 C656 0.929 . S
S660 N661 1.613 . S
S660 N662 1.610 1_655 S
N661 S660 1.613 . S
N661 C664 1.350 . S
N662 S660 1.610 1_455 S
N662 C663 1.351 . S
C663 C657 1.428 . S
C663 N662 1.351 . S
C663 C664 1.434 1_455 S
C664 C655 1.429 . S
C664 N661 1.350 . S
C664 C663 1.434 1_655 S
C665 C666 1.369 . S
C665 C667 1.419 . S
C665 H669 0.930 . S
C666 C665 1.369 . S
C666 C675 1.429 . S
C667 C665 1.419 . S
C667 C668 1.363 . S
C667 H670 0.929 . S
C668 C667 1.363 . S
C668 C674 1.428 . S
H669 C665 0.930 . S
H670 C667 0.929 . S
S671 N672 1.613 . S
S671 N673 1.610 . S
N672 S671 1.613 . S
N672 C675 1.350 . S
N673 S671 1.610 . S
N673 C674 1.351 . S
C674 C668 1.428 . S
C674 N673 1.351 . S
C674 C675 1.434 . S
C675 C666 1.429 . S
C675 N672 1.350 . S
C675 C674 1.434 . S
C676 C677 1.369 . S
C676 C678 1.410 1_545 S
C676 H680 0.930 . S
C677 C676 1.369 . S
C677 C686 1.429 . S
C678 C676 1.410 1_565 S
C678 C679 1.365 . S
C678 H681 0.936 . S
C679 C678 1.365 . S
C679 C685 1.428 . S
H680 C676 0.930 . S
H681 C678 0.936 . S
S682 N683 1.613 . S
S682 N684 1.610 1_545 S
N683 S682 1.613 . S
N683 C686 1.350 . S
N684 S682 1.610 1_565 S
N684 C685 1.351 . S
C685 C679 1.428 . S
C685 N684 1.351 . S
C685 C686 1.434 1_565 S
C686 C677 1.429 . S
C686 N683 1.350 . S
C686 C685 1.434 1_545 S
C687 C688 1.369 . S
C687 C689 1.419 . S
C687 H691 0.930 . S
C688 C687 1.369 . S
C688 C697 1.429 . S
C689 C687 1.419 . S
C689 C690 1.363 . S
C689 H692 0.929 . S
C690 C689 1.363 . S
C690 C696 1.428 . S
H691 C687 0.930 . S
H692 C689 0.929 . S
S693 N694 1.613 . S
S693 N695 1.610 . S
N694 S693 1.613 . S
N694 C697 1.350 . S
N695 S693 1.610 . S
N695 C696 1.351 . S
C696 C690 1.428 . S
C696 N695 1.351 . S
C696 C697 1.434 . S
C697 C688 1.429 . S
C697 N694 1.350 . S
C697 C696 1.434 . S
C698 C699 1.369 . S
C698 C700 1.419 . S
C698 H702 0.930 . S
C699 C698 1.369 . S
C699 C708 1.429 . S
C700 C698 1.419 . S
C700 C701 1.363 . S
C700 H703 0.929 . S
C701 C700 1.363 . S
C701 C707 1.428 . S
H702 C698 0.930 . S
H703 C700 0.929 . S
S704 N705 1.613 . S
S704 N706 1.610 . S
N705 S704 1.613 . S
N705 C708 1.350 . S
N706 S704 1.610 . S
N706 C707 1.351 . S
C707 C701 1.428 . S
C707 N706 1.351 . S
C707 C708 1.434 . S
C708 C699 1.429 . S
C708 N705 1.350 . S
C708 C707 1.434 . S
C709 C710 1.369 . S
C709 C711 1.419 . S
C709 H713 0.930 . S
C710 C709 1.369 . S
C710 C719 1.429 . S
C711 C709 1.419 . S
C711 C712 1.363 . S
C711 H714 0.929 . S
C712 C711 1.363 . S
C712 C718 1.428 . S
H713 C709 0.930 . S
H714 C711 0.929 . S
S715 N716 1.613 . S
S715 N717 1.610 . S
N716 S715 1.613 . S
N716 C719 1.350 . S
N717 S715 1.610 . S
N717 C718 1.351 . S
C718 C712 1.428 . S
C718 N717 1.351 . S
C718 C719 1.434 . S
C719 C710 1.429 . S
C719 N716 1.350 . S
C719 C718 1.434 . S
C720 C721 1.369 . S
C720 C722 1.419 . S
C720 H724 0.930 . S
C721 C720 1.369 . S
C721 C730 1.429 . S
C722 C720 1.419 . S
C722 C723 1.363 . S
C722 H725 0.929 . S
C723 C722 1.363 . S
C723 C729 1.428 . S
H724 C720 0.930 . S
H725 C722 0.929 . S
S726 N727 1.613 . S
S726 N728 1.610 . S
N727 S726 1.613 . S
N727 C730 1.350 . S
N728 S726 1.610 . S
N728 C729 1.351 . S
C729 C723 1.428 . S
C729 N728 1.351 . S
C729 C730 1.434 . S
C730 C721 1.429 . S
C730 N727 1.350 . S
C730 C729 1.434 . S
C731 C732 1.369 . S
C731 C733 1.419 . S
C731 H735 0.930 . S
C732 C731 1.369 . S
C732 C741 1.429 . S
C733 C731 1.419 . S
C733 C734 1.363 . S
C733 H736 0.929 . S
C734 C733 1.363 . S
C734 C740 1.428 . S
H735 C731 0.930 . S
H736 C733 0.929 . S
S737 N738 1.613 . S
S737 N739 1.610 . S
N738 S737 1.613 . S
N738 C741 1.350 . S
N739 S737 1.610 . S
N739 C740 1.351 . S
C740 C734 1.428 . S
C740 N739 1.351 . S
C740 C741 1.434 . S
C741 C732 1.429 . S
C741 N738 1.350 . S
C741 C740 1.434 . S
C742 C743 1.369 . S
C742 C744 1.419 . S
C742 H746 0.930 . S
C743 C742 1.369 . S
C743 C752 1.429 . S
C744 C742 1.419 . S
C744 C745 1.363 . S
C744 H747 0.929 . S
C745 C744 1.363 . S
C745 C751 1.428 . S
H746 C742 0.930 . S
H747 C744 0.929 . S
S748 N749 1.613 . S
S748 N750 1.610 . S
N749 S748 1.613 . S
N749 C752 1.350 . S
N750 S748 1.610 . S
N750 C751 1.351 . S
C751 C745 1.428 . S
C751 N750 1.351 . S
C751 C752 1.434 . S
C752 C743 1.429 . S
C752 N749 1.350 . S
C752 C751 1.434 . S
C753 C754 1.369 . S
C753 C755 1.419 1_545 S
C753 H757 0.930 . S
C754 C753 1.369 . S
C754 C763 1.429 . S
C755 C753 1.419 1_565 S
C755 C756 1.363 . S
C755 H758 0.929 . S
C756 C755 1.363 . S
C756 C762 1.429 . S
H757 C753 0.930 . S
H758 C755 0.929 . S
S759 N760 1.613 . S
S759 N761 1.610 1_545 S
N760 S759 1.613 . S
N760 C763 1.350 . S
N761 S759 1.610 1_565 S
N761 C762 1.351 . S
C762 C756 1.429 . S
C762 N761 1.351 . S
C762 C763 1.433 1_565 S
C763 C754 1.429 . S
C763 N760 1.350 . S
C763 C762 1.433 1_545 S
C764 C765 1.369 . S
C764 C766 1.419 1_655 S
C764 H768 0.930 . S
C765 C764 1.369 . S
C765 C774 1.429 . S
C766 C764 1.419 1_455 S
C766 C767 1.363 . S
C766 H769 0.929 . S
C767 C766 1.363 . S
C767 C773 1.428 . S
H768 C764 0.930 . S
H769 C766 0.929 . S
S770 N771 1.613 . S
S770 N772 1.610 1_655 S
N771 S770 1.613 . S
N771 C774 1.350 . S
N772 S770 1.610 1_455 S
N772 C773 1.351 . S
C773 C767 1.428 . S
C773 N772 1.351 . S
C773 C774 1.434 1_455 S
C774 C765 1.429 . S
C774 N771 1.350 . S
C774 C773 1.434 1_655 S
C775 C776 1.369 . S
C775 C777 1.419 . S
C775 H779 0.930 . S
C776 C775 1.369 . S
C776 C785 1.429 . S
C777 C775 1.419 . S
C777 C778 1.363 . S
C777 H780 0.929 . S
C778 C777 1.363 . S
C778 C784 1.428 . S
H779 C775 0.930 . S
H780 C777 0.929 . S
S781 N782 1.613 . S
S781 N783 1.610 . S
N782 S781 1.613 . S
N782 C785 1.350 . S
N783 S781 1.610 . S
N783 C784 1.351 . S
C784 C778 1.428 . S
C784 N783 1.351 . S
C784 C785 1.434 . S
C785 C776 1.429 . S
C785 N782 1.350 . S
C785 C784 1.434 . S
C786 C787 1.369 . S
C786 C788 1.419 . S
C786 H790 0.930 . S
C787 C786 1.369 . S
C787 C796 1.429 . S
C788 C786 1.419 . S
C788 C789 1.363 . S
C788 H791 0.929 . S
C789 C788 1.363 . S
C789 C795 1.428 . S
H790 C786 0.930 . S
H791 C788 0.929 . S
S792 N793 1.613 . S
S792 N794 1.610 . S
N793 S792 1.613 . S
N793 C796 1.350 . S
N794 S792 1.610 . S
N794 C795 1.351 . S
C795 C789 1.428 . S
C795 N794 1.351 . S
C795 C796 1.434 . S
C796 C787 1.429 . S
C796 N793 1.350 . S
C796 C795 1.434 . S
C797 C798 1.369 . S
C797 C799 1.419 . S
C797 H801 0.930 . S
C798 C797 1.369 . S
C798 C807 1.429 . S
C799 C797 1.419 . S
C799 C800 1.363 . S
C799 H802 0.929 . S
C800 C799 1.363 . S
C800 C806 1.428 . S
H801 C797 0.930 . S
H802 C799 0.929 . S
S803 N804 1.613 . S
S803 N805 1.610 . S
N804 S803 1.613 . S
N804 C807 1.350 . S
N805 S803 1.610 . S
N805 C806 1.351 . S
C806 C800 1.428 . S
C806 N805 1.351 . S
C806 C807 1.434 . S
C807 C798 1.429 . S
C807 N804 1.350 . S
C807 C806 1.434 . S
C808 C809 1.369 . S
C808 C810 1.419 . S
C808 H812 0.930 . S
C809 C808 1.369 . S
C809 C818 1.429 . S
C810 C808 1.419 . S
C810 C811 1.363 . S
C810 H813 0.929 . S
C811 C810 1.363 . S
C811 C817 1.428 . S
H812 C808 0.930 . S
H813 C810 0.929 . S
S814 N815 1.613 . S
S814 N816 1.610 . S
N815 S814 1.613 . S
N815 C818 1.350 . S
N816 S814 1.610 . S
N816 C817 1.351 . S
C817 C811 1.428 . S
C817 N816 1.351 . S
C817 C818 1.434 . S
C818 C809 1.429 . S
C818 N815 1.350 . S
C818 C817 1.434 . S
C819 C820 1.369 . S
C819 C821 1.419 1_565 S
C819 H823 0.930 . S
C820 C819 1.369 . S
C820 C829 1.429 . S
C821 C819 1.419 1_545 S
C821 C822 1.363 . S
C821 H824 0.929 . S
C822 C821 1.363 . S
C822 C828 1.428 . S
H823 C819 0.930 . S
H824 C821 0.929 . S
S825 N826 1.613 . S
S825 N827 1.610 1_565 S
N826 S825 1.613 . S
N826 C829 1.350 . S
N827 S825 1.610 1_545 S
N827 C828 1.351 . S
C828 C822 1.428 . S
C828 N827 1.351 . S
C828 C829 1.434 1_545 S
C829 C820 1.429 . S
C829 N826 1.350 . S
C829 C828 1.434 1_565 S
C830 C831 1.369 . S
C830 C832 1.419 1_455 S
C830 H834 0.930 . S
C831 C830 1.369 . S
C831 C840 1.429 . S
C832 C830 1.419 1_655 S
C832 C833 1.363 . S
C832 H835 0.929 . S
C833 C832 1.363 . S
C833 C839 1.428 . S
H834 C830 0.930 . S
H835 C832 0.929 . S
S836 N837 1.613 . S
S836 N838 1.610 1_455 S
N837 S836 1.613 . S
N837 C840 1.350 . S
N838 S836 1.610 1_655 S
N838 C839 1.351 . S
C839 C833 1.428 . S
C839 N838 1.351 . S
C839 C840 1.434 1_655 S
C840 C831 1.429 . S
C840 N837 1.350 . S
C840 C839 1.434 1_455 S
C841 C842 1.369 . S
C841 C843 1.419 . S
C841 H845 0.930 . S
C842 C841 1.369 . S
C842 C851 1.429 . S
C843 C841 1.419 . S
C843 C844 1.363 . S
C843 H846 0.929 . S
C844 C843 1.363 . S
C844 C850 1.428 . S
H845 C841 0.930 . S
H846 C843 0.929 . S
S847 N848 1.613 . S
S847 N849 1.610 . S
N848 S847 1.613 . S
N848 C851 1.350 . S
N849 S847 1.610 . S
N849 C850 1.351 . S
C850 C844 1.428 . S
C850 N849 1.351 . S
C850 C851 1.434 . S
C851 C842 1.429 . S
C851 N848 1.350 . S
C851 C850 1.434 . S
C852 C853 1.369 . S
C852 C854 1.419 1_455 S
C852 H856 0.930 . S
C853 C852 1.369 . S
C853 C862 1.429 . S
C854 C852 1.419 1_655 S
C854 C855 1.363 . S
C854 H857 0.929 . S
C855 C854 1.363 . S
C855 C861 1.428 1_655 S
H856 C852 0.930 . S
H857 C854 0.929 . S
S858 N859 1.613 . S
S858 N860 1.611 1_455 S
N859 S858 1.613 . S
N859 C862 1.350 . S
N860 S858 1.611 1_655 S
N860 C861 1.351 1_655 S
C861 C855 1.428 1_455 S
C861 N860 1.351 1_455 S
C861 C862 1.434 . S
C862 C853 1.429 . S
C862 N859 1.350 . S
C862 C861 1.434 . S
C863 C864 1.369 . S
C863 C865 1.419 . S
C863 H867 0.930 . S
C864 C863 1.369 . S
C864 C873 1.429 . S
C865 C863 1.419 . S
C865 C866 1.363 . S
C865 H868 0.929 . S
C866 C865 1.363 . S
C866 C872 1.428 . S
H867 C863 0.930 . S
H868 C865 0.929 . S
S869 N870 1.613 . S
S869 N871 1.610 . S
N870 S869 1.613 . S
N870 C873 1.350 . S
N871 S869 1.610 . S
N871 C872 1.351 . S
C872 C866 1.428 . S
C872 N871 1.351 . S
C872 C873 1.434 . S
C873 C864 1.429 . S
C873 N870 1.350 . S
C873 C872 1.434 . S
C874 C875 1.369 . S
C874 C876 1.419 1_565 S
C874 H878 0.930 . S
C875 C874 1.369 . S
C875 C884 1.429 . S
C876 C874 1.419 1_545 S
C876 C877 1.363 . S
C876 H879 0.929 . S
C877 C876 1.363 . S
C877 C883 1.428 1_545 S
H878 C874 0.930 . S
H879 C876 0.929 . S
S880 N881 1.613 . S
S880 N882 1.610 1_565 S
N881 S880 1.613 . S
N881 C884 1.350 . S
N882 S880 1.610 1_545 S
N882 C883 1.351 1_545 S
C883 C877 1.428 1_565 S
C883 N882 1.351 1_565 S
C883 C884 1.434 . S
C884 C875 1.429 . S
C884 N881 1.350 . S
C884 C883 1.434 . S
C885 C886 1.369 . S
C885 C887 1.419 . S
C885 H889 0.930 . S
C886 C885 1.369 . S
C886 C895 1.429 . S
C887 C885 1.419 . S
C887 C888 1.363 . S
C887 H890 0.929 . S
C888 C887 1.363 . S
C888 C894 1.428 . S
H889 C885 0.930 . S
H890 C887 0.929 . S
S891 N892 1.613 . S
S891 N893 1.610 . S
N892 S891 1.613 . S
N892 C895 1.350 . S
N893 S891 1.610 . S
N893 C894 1.351 . S
C894 C888 1.428 . S
C894 N893 1.351 . S
C894 C895 1.434 . S
C895 C886 1.429 . S
C895 N892 1.350 . S
C895 C894 1.434 . S
C896 C897 1.369 . S
C896 C898 1.419 . S
C896 H900 0.930 . S
C897 C896 1.369 . S
C897 C906 1.429 . S
C898 C896 1.419 . S
C898 C899 1.363 . S
C898 H901 0.929 . S
C899 C898 1.363 . S
C899 C905 1.428 . S
H900 C896 0.930 . S
H901 C898 0.929 . S
S902 N903 1.613 . S
S902 N904 1.610 . S
N903 S902 1.613 . S
N903 C906 1.350 . S
N904 S902 1.610 . S
N904 C905 1.351 . S
C905 C899 1.428 . S
C905 N904 1.351 . S
C905 C906 1.434 . S
C906 C897 1.429 . S
C906 N903 1.350 . S
C906 C905 1.434 . S
C907 C908 1.369 . S
C907 C909 1.419 . S
C907 H911 0.930 . S
C908 C907 1.369 . S
C908 C917 1.429 . S
C909 C907 1.419 . S
C909 C910 1.363 . S
C909 H912 0.929 . S
C910 C909 1.363 . S
C910 C916 1.428 . S
H911 C907 0.930 . S
H912 C909 0.929 . S
S913 N914 1.613 . S
S913 N915 1.610 . S
N914 S913 1.613 . S
N914 C917 1.350 . S
N915 S913 1.610 . S
N915 C916 1.351 . S
C916 C910 1.428 . S
C916 N915 1.351 . S
C916 C917 1.434 . S
C917 C908 1.429 . S
C917 N914 1.350 . S
C917 C916 1.434 . S
C918 C919 1.369 1_545 S
C918 C920 1.419 . S
C918 H922 0.930 . S
C919 C918 1.369 1_565 S
C919 C928 1.429 . S
C920 C918 1.419 . S
C920 C921 1.363 1_545 S
C920 H923 0.929 . S
C921 C920 1.363 1_565 S
C921 C927 1.428 . S
H922 C918 0.930 . S
H923 C920 0.929 . S
S924 N925 1.613 . S
S924 N926 1.610 . S
N925 S924 1.613 . S
N925 C928 1.350 . S
N926 S924 1.610 . S
N926 C927 1.351 . S
C927 C921 1.428 . S
C927 N926 1.351 . S
C927 C928 1.434 . S
C928 C919 1.429 . S
C928 N925 1.350 . S
C928 C927 1.434 . S
C929 C930 1.369 1_655 S
C929 C931 1.419 . S
C929 H933 0.930 . S
C930 C929 1.369 1_455 S
C930 C939 1.429 . S
C931 C929 1.419 . S
C931 C932 1.363 1_655 S
C931 H934 0.929 . S
C932 C931 1.363 1_455 S
C932 C938 1.428 . S
H933 C929 0.930 . S
H934 C931 0.929 . S
S935 N936 1.613 . S
S935 N937 1.610 . S
N936 S935 1.613 . S
N936 C939 1.350 . S
N937 S935 1.610 . S
N937 C938 1.351 . S
C938 C932 1.428 . S
C938 N937 1.351 . S
C938 C939 1.434 . S
C939 C930 1.429 . S
C939 N936 1.350 . S
C939 C938 1.434 . S
C940 C941 1.369 . S
C940 C942 1.419 . S
C940 H944 0.930 . S
C941 C940 1.369 . S
C941 C950 1.429 . S
C942 C940 1.419 . S
C942 C943 1.363 . S
C942 H945 0.929 . S
C943 C942 1.363 . S
C943 C949 1.428 . S
H944 C940 0.930 . S
H945 C942 0.929 . S
S946 N947 1.613 . S
S946 N948 1.610 . S
N947 S946 1.613 . S
N947 C950 1.350 . S
N948 S946 1.610 . S
N948 C949 1.351 . S
C949 C943 1.428 . S
C949 N948 1.351 . S
C949 C950 1.434 . S
C950 C941 1.429 . S
C950 N947 1.350 . S
C950 C949 1.434 . S
C951 C952 1.369 1_455 S
C951 C953 1.419 . S
C951 H955 0.930 . S
C952 C951 1.369 1_655 S
C952 C961 1.429 . S
C953 C951 1.419 . S
C953 C954 1.363 1_455 S
C953 H956 0.929 . S
C954 C953 1.363 1_655 S
C954 C960 1.428 . S
H955 C951 0.930 . S
H956 C953 0.929 . S
S957 N958 1.613 . S
S957 N959 1.610 . S
N958 S957 1.613 . S
N958 C961 1.350 . S
N959 S957 1.610 . S
N959 C960 1.351 . S
C960 C954 1.428 . S
C960 N959 1.351 . S
C960 C961 1.434 . S
C961 C952 1.429 . S
C961 N958 1.350 . S
C961 C960 1.434 . S
C962 C963 1.369 . S
C962 C964 1.419 . S
C962 H966 0.930 . S
C963 C962 1.369 . S
C963 C972 1.429 . S
C964 C962 1.419 . S
C964 C965 1.363 . S
C964 H967 0.929 . S
C965 C964 1.363 . S
C965 C971 1.428 . S
H966 C962 0.930 . S
H967 C964 0.929 . S
S968 N969 1.613 . S
S968 N970 1.610 . S
N969 S968 1.613 . S
N969 C972 1.350 . S
N970 S968 1.610 . S
N970 C971 1.351 . S
C971 C965 1.428 . S
C971 N970 1.351 . S
C971 C972 1.434 . S
C972 C963 1.429 . S
C972 N969 1.350 . S
C972 C971 1.434 . S
C973 C974 1.369 . S
C973 C975 1.419 . S
C973 H977 0.930 . S
C974 C973 1.369 . S
C974 C983 1.429 1_545 S
C975 C973 1.419 . S
C975 C976 1.363 . S
C975 H978 0.929 . S
C976 C975 1.363 . S
C976 C982 1.428 1_545 S
H977 C973 0.930 . S
H978 C975 0.929 . S
S979 N980 1.613 . S
S979 N981 1.610 . S
N980 S979 1.613 . S
N980 C983 1.350 . S
N981 S979 1.610 . S
N981 C982 1.351 . S
C982 C976 1.428 1_565 S
C982 N981 1.351 . S
C982 C983 1.434 . S
C983 C974 1.429 1_565 S
C983 N980 1.350 . S
C983 C982 1.434 . S
C984 C985 1.369 . S
C984 C986 1.419 . S
C984 H988 0.930 . S
C985 C984 1.369 . S
C985 C994 1.429 . S
C986 C984 1.419 . S
C986 C987 1.363 . S
C986 H989 0.929 . S
C987 C986 1.363 . S
C987 C993 1.428 . S
H988 C984 0.930 . S
H989 C986 0.929 . S
S990 N991 1.613 . S
S990 N992 1.610 . S
N991 S990 1.613 . S
N991 C994 1.350 . S
N992 S990 1.610 . S
N992 C993 1.351 . S
C993 C987 1.428 . S
C993 N992 1.351 . S
C993 C994 1.434 . S
C994 C985 1.429 . S
C994 N991 1.350 . S
C994 C993 1.434 . S
C995 C996 1.369 . S
C995 C997 1.419 . S
C995 H999 0.930 . S
C996 C995 1.369 . S
C996 C1005 1.429 . S
C997 C995 1.419 . S
C997 C998 1.363 . S
C997 H1000 0.929 . S
C998 C997 1.363 . S
C998 C1004 1.428 . S
H999 C995 0.930 . S
H1000 C997 0.929 . S
S1001 N1002 1.613 . S
S1001 N1003 1.610 . S
N1002 S1001 1.613 . S
N1002 C1005 1.350 . S
N1003 S1001 1.610 . S
N1003 C1004 1.351 . S
C1004 C998 1.428 . S
C1004 N1003 1.351 . S
C1004 C1005 1.434 . S
C1005 C996 1.429 . S
C1005 N1002 1.350 . S
C1005 C1004 1.434 . S
C1006 C1007 1.369 . S
C1006 C1008 1.419 . S
C1006 H1010 0.930 . S
C1007 C1006 1.369 . S
C1007 C1016 1.429 . S
C1008 C1006 1.419 . S
C1008 C1009 1.363 . S
C1008 H1011 0.929 . S
C1009 C1008 1.363 . S
C1009 C1015 1.428 . S
H1010 C1006 0.930 . S
H1011 C1008 0.929 . S
S1012 N1013 1.613 . S
S1012 N1014 1.610 . S
N1013 S1012 1.613 . S
N1013 C1016 1.350 . S
N1014 S1012 1.610 . S
N1014 C1015 1.351 . S
C1015 C1009 1.428 . S
C1015 N1014 1.351 . S
C1015 C1016 1.434 . S
C1016 C1007 1.429 . S
C1016 N1013 1.350 . S
C1016 C1015 1.434 . S
C1017 C1018 1.369 . S
C1017 C1019 1.419 . S
C1017 H1021 0.930 . S
C1018 C1017 1.369 . S
C1018 C1027 1.429 . S
C1019 C1017 1.419 . S
C1019 C1020 1.363 . S
C1019 H1022 0.929 . S
C1020 C1019 1.363 . S
C1020 C1026 1.428 . S
H1021 C1017 0.930 . S
H1022 C1019 0.929 . S
S1023 N1024 1.613 . S
S1023 N1025 1.610 . S
N1024 S1023 1.613 . S
N1024 C1027 1.350 . S
N1025 S1023 1.610 . S
N1025 C1026 1.351 . S
C1026 C1020 1.428 . S
C1026 N1025 1.351 . S
C1026 C1027 1.434 . S
C1027 C1018 1.429 . S
C1027 N1024 1.350 . S
C1027 C1026 1.434 . S
C1028 C1029 1.369 . S
C1028 C1030 1.419 . S
C1028 H1032 0.930 . S
C1029 C1028 1.369 . S
C1029 C1038 1.429 . S
C1030 C1028 1.419 . S
C1030 C1031 1.363 . S
C1030 H1033 0.929 . S
C1031 C1030 1.363 . S
C1031 C1037 1.428 . S
H1032 C1028 0.930 . S
H1033 C1030 0.929 . S
S1034 N1035 1.613 . S
S1034 N1036 1.610 . S
N1035 S1034 1.613 . S
N1035 C1038 1.350 . S
N1036 S1034 1.610 . S
N1036 C1037 1.351 . S
C1037 C1031 1.428 . S
C1037 N1036 1.351 . S
C1037 C1038 1.434 . S
C1038 C1029 1.429 . S
C1038 N1035 1.350 . S
C1038 C1037 1.434 . S
C1039 C1040 1.369 . S
C1039 C1041 1.419 . S
C1039 H1043 0.930 . S
C1040 C1039 1.369 . S
C1040 C1049 1.429 . S
C1041 C1039 1.419 . S
C1041 C1042 1.363 . S
C1041 H1044 0.929 . S
C1042 C1041 1.363 . S
C1042 C1048 1.428 . S
H1043 C1039 0.930 . S
H1044 C1041 0.929 . S
S1045 N1046 1.613 . S
S1045 N1047 1.610 . S
N1046 S1045 1.613 . S
N1046 C1049 1.350 . S
N1047 S1045 1.610 . S
N1047 C1048 1.351 . S
C1048 C1042 1.428 . S
C1048 N1047 1.351 . S
C1048 C1049 1.434 . S
C1049 C1040 1.429 . S
C1049 N1046 1.350 . S
C1049 C1048 1.434 . S
C1050 C1051 1.369 . S
C1050 C1052 1.419 . S
C1050 H1054 0.930 . S
C1051 C1050 1.369 . S
C1051 C1060 1.429 . S
C1052 C1050 1.419 . S
C1052 C1053 1.363 . S
C1052 H1055 0.929 . S
C1053 C1052 1.363 . S
C1053 C1059 1.428 . S
H1054 C1050 0.930 . S
H1055 C1052 0.929 . S
S1056 N1057 1.613 . S
S1056 N1058 1.610 . S
N1057 S1056 1.613 . S
N1057 C1060 1.350 . S
N1058 S1056 1.610 . S
N1058 C1059 1.351 . S
C1059 C1053 1.428 . S
C1059 N1058 1.351 . S
C1059 C1060 1.434 . S
C1060 C1051 1.429 . S
C1060 N1057 1.350 . S
C1060 C1059 1.434 . S
C1061 C1062 1.369 . S
C1061 C1063 1.419 . S
C1061 H1065 0.930 . S
C1062 C1061 1.369 . S
C1062 C1071 1.429 . S
C1063 C1061 1.419 . S
C1063 C1064 1.363 . S
C1063 H1066 0.929 . S
C1064 C1063 1.363 . S
C1064 C1070 1.428 . S
H1065 C1061 0.930 . S
H1066 C1063 0.929 . S
S1067 N1068 1.613 . S
S1067 N1069 1.610 . S
N1068 S1067 1.613 . S
N1068 C1071 1.350 . S
N1069 S1067 1.610 . S
N1069 C1070 1.351 . S
C1070 C1064 1.428 . S
C1070 N1069 1.351 . S
C1070 C1071 1.434 . S
C1071 C1062 1.429 . S
C1071 N1068 1.350 . S
C1071 C1070 1.434 . S
C1072 C1073 1.369 . S
C1072 C1074 1.419 . S
C1072 H1076 0.930 . S
C1073 C1072 1.369 . S
C1073 C1082 1.429 . S
C1074 C1072 1.419 . S
C1074 C1075 1.363 . S
C1074 H1077 0.929 . S
C1075 C1074 1.363 . S
C1075 C1081 1.428 . S
H1076 C1072 0.930 . S
H1077 C1074 0.929 . S
S1078 N1079 1.613 . S
S1078 N1080 1.610 . S
N1079 S1078 1.613 . S
N1079 C1082 1.350 . S
N1080 S1078 1.610 . S
N1080 C1081 1.351 . S
C1081 C1075 1.428 . S
C1081 N1080 1.351 . S
C1081 C1082 1.434 . S
C1082 C1073 1.429 . S
C1082 N1079 1.350 . S
C1082 C1081 1.434 . S
C1083 C1084 1.369 . S
C1083 C1085 1.419 . S
C1083 H1087 0.930 . S
C1084 C1083 1.369 . S
C1084 C1093 1.429 . S
C1085 C1083 1.419 . S
C1085 C1086 1.363 . S
C1085 H1088 0.929 . S
C1086 C1085 1.363 . S
C1086 C1092 1.428 . S
H1087 C1083 0.930 . S
H1088 C1085 0.929 . S
S1089 N1090 1.613 . S
S1089 N1091 1.610 . S
N1090 S1089 1.613 . S
N1090 C1093 1.350 . S
N1091 S1089 1.610 . S
N1091 C1092 1.351 . S
C1092 C1086 1.428 . S
C1092 N1091 1.351 . S
C1092 C1093 1.434 . S
C1093 C1084 1.429 . S
C1093 N1090 1.350 . S
C1093 C1092 1.434 . S
C1094 C1095 1.369 . S
C1094 C1096 1.419 . S
C1094 H1098 0.930 . S
C1095 C1094 1.369 . S
C1095 C1104 1.429 . S
C1096 C1094 1.419 . S
C1096 C1097 1.363 . S
C1096 H1099 0.929 . S
C1097 C1096 1.363 . S
C1097 C1103 1.428 . S
H1098 C1094 0.930 . S
H1099 C1096 0.929 . S
S1100 N1101 1.613 . S
S1100 N1102 1.610 . S
N1101 S1100 1.613 . S
N1101 C1104 1.350 . S
N1102 S1100 1.610 . S
N1102 C1103 1.351 . S
C1103 C1097 1.428 . S
C1103 N1102 1.351 . S
C1103 C1104 1.434 . S
C1104 C1095 1.429 . S
C1104 N1101 1.350 . S
C1104 C1103 1.434 . S
C1105 C1106 1.369 . S
C1105 C1107 1.419 . S
C1105 H1109 0.930 . S
C1106 C1105 1.369 . S
C1106 C1115 1.429 . S
C1107 C1105 1.419 . S
C1107 C1108 1.363 . S
C1107 H1110 0.929 . S
C1108 C1107 1.363 . S
C1108 C1114 1.428 . S
H1109 C1105 0.930 . S
H1110 C1107 0.929 . S
S1111 N1112 1.613 . S
S1111 N1113 1.610 . S
N1112 S1111 1.613 . S
N1112 C1115 1.350 . S
N1113 S1111 1.610 . S
N1113 C1114 1.351 . S
C1114 C1108 1.428 . S
C1114 N1113 1.351 . S
C1114 C1115 1.434 . S
C1115 C1106 1.429 . S
C1115 N1112 1.350 . S
C1115 C1114 1.434 . S
C523 C124 1.568 . S
C525 C174 1.586 . S
C534 C130 1.680 . S
C536 C214 1.690 . S
C545 C115 1.571 . S
C547 C244 1.578 . S
C556 C106 1.498 . S
C558 C204 1.493 . S
C569 C254 1.485 . S
C567 C85 1.466 . S
C578 C97 1.370 . S
C580 C164 1.398 . S
C591 C193 1.605 . S
C589 C103 1.586 . S
C602 C233 1.670 . S
C600 C88 1.663 . S
C611 C94 1.565 . S
C613 C259 1.580 . S
C622 C121 1.494 . S
C624 C219 1.491 . S
C633 C133 1.447 . S
C635 C273 1.464 . S
C646 C179 1.415 . S
C644 C112 1.386 . S
C657 C294 1.585 . S
C655 C16 1.571 . S
C666 C22 1.680 . S
C668 C334 1.690 . S
C677 C7 1.565 . S
C679 C364 1.582 . S
C688 C160 1.497 . S
C690 C324 1.494 . S
C699 C139 1.468 . S
C701 C374 1.485 . S
C710 C151 1.372 . S
C712 C284 1.398 . S
C721 C157 1.588 . S
C723 C313 1.604 . S
C732 C142 1.664 . S
C734 C353 1.670 . S
C745 C379 1.575 . S
C743 C148 1.571 . S
C754 C13 1.496 . S
C756 C339 1.491 . S
C767 C393 1.461 . S
C765 C25 1.452 . S
C776 C4 1.391 . S
C778 C299 1.413 . S
C789 C414 1.587 . S
C787 C70 1.567 . S
C798 C76 1.681 . S
C800 C454 1.690 . S
C811 C484 1.580 . S
C809 C61 1.565 . S
C822 C444 1.496 . S
C820 C52 1.492 . S
C833 C494 1.482 . S
C831 C31 1.472 . S
C842 C43 1.376 . S
C844 C404 1.394 . S
C853 C49 1.585 . S
C855 C433 1.605 . S
C864 C34 1.661 . S
C866 C473 1.672 . S
C877 C499 1.575 . S
C875 C40 1.570 . S
C886 C67 1.494 . S
C888 C459 1.496 . S
C897 C79 1.452 . S
C899 C513 1.462 . S
C908 C58 1.388 . S
C910 C419 1.417 . S
C919 C140 1.497 . S
C921 C191 1.468 1_565 S
C932 C231 1.680 . S
C930 C149 1.699 . S
C941 C158 1.549 . S
C943 C250 1.542 . S
C952 C59 1.716 . S
C954 C210 1.694 . S
C963 C68 1.533 . S
C965 C271 1.527 . S
C976 C170 1.471 . S
C974 C77 1.496 . S
C985 C32 1.496 . S
C987 C311 1.471 . S
C996 C41 1.703 . S
C998 C351 1.675 . S
C1007 C50 1.548 . S
C1009 C370 1.542 . S
C1018 C113 1.719 . S
C1020 C330 1.693 . S
C1031 C391 1.525 . S
C1029 C122 1.532 . S
C1040 C131 1.496 . S
C1042 C290 1.471 . S
C1051 C86 1.496 . S
C1053 C431 1.470 . S
C1062 C95 1.703 . S
C1064 C471 1.675 . S
C1075 C490 1.543 . S
C1073 C104 1.548 . S
C1084 C5 1.719 . S
C1086 C450 1.690 . S
C1095 C14 1.532 . S
C1097 C511 1.525 . S
C1106 C23 1.495 . S
C1108 C410 1.472 . S
