# Generated by pormake.
# Topology zzz, (3,6)-cn, num edge types: 1
# Building blocks:
#     Node 0, Type 0, BuildingBlock: PAMTOO_clean_linker_0, # of connection points: 3
#     Node 1, Type 0, BuildingBlock: PAMTOO_clean_linker_0, # of connection points: 3
#     Node 2, Type 0, BuildingBlock: PAMTOO_clean_linker_0, # of connection points: 3
#     Node 3, Type 0, BuildingBlock: PAMTOO_clean_linker_0, # of connection points: 3
#     Node 4, Type 0, BuildingBlock: PAMTOO_clean_linker_0, # of connection points: 3
#     Node 5, Type 0, BuildingBlock: PAMTOO_clean_linker_0, # of connection points: 3
#     Node 6, Type 0, BuildingBlock: PAMTOO_clean_linker_0, # of connection points: 3
#     Node 7, Type 0, BuildingBlock: PAMTOO_clean_linker_0, # of connection points: 3
#     Node 8, Type 1, BuildingBlock: NUHQIS_clean_sbu_0, # of connection points: 6
#     Node 9, Type 1, BuildingBlock: NUHQIS_clean_sbu_0, # of connection points: 6
#     Node 10, Type 1, BuildingBlock: NUHQIS_clean_sbu_0, # of connection points: 6
#     Node 11, Type 1, BuildingBlock: NUHQIS_clean_sbu_0, # of connection points: 6
#     Edge 12, Type (0, 1), BuildingBlock: KIFKEQ_clean_linker_1, # of connection points: 2
#     Edge 13, Type (0, 1), BuildingBlock: KIFKEQ_clean_linker_1, # of connection points: 2
#     Edge 14, Type (0, 1), BuildingBlock: KIFKEQ_clean_linker_1, # of connection points: 2
#     Edge 15, Type (0, 1), BuildingBlock: KIFKEQ_clean_linker_1, # of connection points: 2
#     Edge 16, Type (0, 1), BuildingBlock: KIFKEQ_clean_linker_1, # of connection points: 2
#     Edge 17, Type (0, 1), BuildingBlock: KIFKEQ_clean_linker_1, # of connection points: 2
#     Edge 18, Type (0, 1), BuildingBlock: KIFKEQ_clean_linker_1, # of connection points: 2
#     Edge 19, Type (0, 1), BuildingBlock: KIFKEQ_clean_linker_1, # of connection points: 2
#     Edge 20, Type (0, 1), BuildingBlock: KIFKEQ_clean_linker_1, # of connection points: 2
#     Edge 21, Type (0, 1), BuildingBlock: KIFKEQ_clean_linker_1, # of connection points: 2
#     Edge 22, Type (0, 1), BuildingBlock: KIFKEQ_clean_linker_1, # of connection points: 2
#     Edge 23, Type (0, 1), BuildingBlock: KIFKEQ_clean_linker_1, # of connection points: 2
#     Edge 24, Type (0, 1), BuildingBlock: KIFKEQ_clean_linker_1, # of connection points: 2
#     Edge 25, Type (0, 1), BuildingBlock: KIFKEQ_clean_linker_1, # of connection points: 2
#     Edge 26, Type (0, 1), BuildingBlock: KIFKEQ_clean_linker_1, # of connection points: 2
#     Edge 27, Type (0, 1), BuildingBlock: KIFKEQ_clean_linker_1, # of connection points: 2
#     Edge 28, Type (0, 1), BuildingBlock: KIFKEQ_clean_linker_1, # of connection points: 2
#     Edge 29, Type (0, 1), BuildingBlock: KIFKEQ_clean_linker_1, # of connection points: 2
#     Edge 30, Type (0, 1), BuildingBlock: KIFKEQ_clean_linker_1, # of connection points: 2
#     Edge 31, Type (0, 1), BuildingBlock: KIFKEQ_clean_linker_1, # of connection points: 2
#     Edge 32, Type (0, 1), BuildingBlock: KIFKEQ_clean_linker_1, # of connection points: 2
#     Edge 33, Type (0, 1), BuildingBlock: KIFKEQ_clean_linker_1, # of connection points: 2
#     Edge 34, Type (0, 1), BuildingBlock: KIFKEQ_clean_linker_1, # of connection points: 2
#     Edge 35, Type (0, 1), BuildingBlock: KIFKEQ_clean_linker_1, # of connection points: 2
# Relax obj value: 0.247
# Max RMSD: 0.156
# Mean RMSD: 0.136
data_MOF--net-zzz--node1-NUHQIS_clean_sbu_0--node2-PAMTOO_clean_linker_0--edge1-KIFKEQ_clean_linker_1
_symmetry_space_group_name_H-M    P1
_symmetry_Int_Tables_number       1
_symmetry_cell_setting            triclinic
loop_
_symmetry_equiv_pos_as_xyz
'x, y, z'
_cell_length_a     52.448792
_cell_length_b     52.433116
_cell_length_c     14.135974
_cell_angle_alpha  90.083801
_cell_angle_beta   90.000083
_cell_angle_gamma 90.548789
loop_
_atom_site_label
_atom_site_type_symbol
_atom_site_fract_x
_atom_site_fract_y
_atom_site_fract_z
_atom_type_partial_charge
H0 H 0.81712 0.47532 0.38992 0.0
H1 H 0.74922 0.48759 0.22699 0.0
H2 H 0.77295 0.54302 0.43515 0.0
H3 H 0.70954 0.54194 0.39751 0.0
C4 C 0.71315 0.52691 0.34381 0.0
O5 O 0.73741 0.53063 0.30685 0.0
H6 H 0.71171 0.50829 0.38151 0.0
C7 C 0.80014 0.4864 0.37631 0.0
C8 C 0.79706 0.50973 0.42327 0.0
C9 C 0.78321 0.47834 0.30526 0.0
C10 C 0.76209 0.49337 0.28323 0.0
C11 C 0.75782 0.51628 0.33166 0.0
C12 C 0.77563 0.52479 0.40062 0.0
H13 H 0.07094 0.82849 0.33411 0.0
H14 H 0.05529 0.7597 0.1793 0.0
H15 H 1.00771 0.78023 0.4151 0.0
H16 H 1.01146 0.718 0.38398 0.0
C17 C 0.02321 0.72146 0.31975 0.0
O18 O 1.01676 0.74503 0.28284 0.0
H19 H 0.04355 0.72129 0.34246 0.0
C20 C 0.06014 0.81084 0.32673 0.0
C21 C 0.03899 0.80642 0.38536 0.0
C22 C 0.066 0.79425 0.25222 0.0
C23 C 0.05123 0.77221 0.23829 0.0
C24 C 0.03076 0.76657 0.29865 0.0
C25 C 0.02424 0.78399 0.3712 0.0
H26 H 0.72416 0.07898 0.34626 0.0
H27 H 0.79682 0.06874 0.21232 0.0
H28 H 0.77403 1.01952 0.44184 0.0
H29 H 0.8011 1.00983 0.20598 0.0
C30 C 0.81692 1.01237 0.2579 0.0
O31 O 0.81158 0.03171 0.32168 0.0
H32 H 0.81831 0.99412 0.29731 0.0
C33 C 0.74237 0.06934 0.34337 0.0
C34 C 0.74686 0.04877 0.40413 0.0
C35 C 0.76004 0.07639 0.27363 0.0
C36 C 0.78317 0.06346 0.26658 0.0
C37 C 0.78853 0.04322 0.32786 0.0
C38 C 0.77012 0.03548 0.39569 0.0
H39 H 0.47109 0.7267 0.35273 0.0
H40 H 0.48255 0.79545 0.19323 0.0
H41 H 0.53638 0.77468 0.40955 0.0
H42 H 0.53554 0.83718 0.3724 0.0
C43 C 0.52006 0.83315 0.32077 0.0
O44 O 0.52429 0.80948 0.27989 0.0
H45 H 0.50178 0.83297 0.36102 0.0
C46 C 0.48173 0.74427 0.3411 0.0
C47 C 0.50427 0.74867 0.39211 0.0
C48 C 0.47376 0.76085 0.26955 0.0
C49 C 0.48824 0.78278 0.24977 0.0
C50 C 0.51046 0.78822 0.30158 0.0
C51 C 0.51878 0.77089 0.37177 0.0
H52 H 0.22742 0.481 0.22214 0.0
H53 H 0.30629 0.49009 0.29686 0.0
H54 H 0.27679 0.5272 0.04829 0.0
H55 H 0.31298 0.54993 0.23747 0.0
C56 C 0.32815 0.54005 0.19653 0.0
O57 O 0.3185 0.51831 0.15264 0.0
H58 H 0.33439 0.5537 0.14092 0.0
C59 C 0.2463 0.48833 0.20531 0.0
C60 C 0.24923 0.50458 0.12742 0.0
C61 C 0.26655 0.4832 0.2671 0.0
C62 C 0.29072 0.49334 0.24805 0.0
C63 C 0.29468 0.50881 0.1686 0.0
C64 C 0.27389 0.51456 0.10791 0.0
H65 H 0.96897 0.22828 0.19009 0.0
H66 H 0.98311 0.30085 0.32144 0.0
H67 H 0.02992 0.27662 0.08797 0.0
H68 H 0.05813 0.32125 0.23149 0.0
C69 C 0.0401 0.31924 0.2722 0.0
O70 O 1.02036 0.31432 0.20944 0.0
H71 H 0.04283 0.30295 0.32165 0.0
C72 C 0.97951 0.24619 0.19172 0.0
C73 C 0.99983 0.25011 0.12861 0.0
C74 C 0.97351 0.26422 0.26122 0.0
C75 C 0.98755 0.28694 0.26724 0.0
C76 C 1.00773 0.29162 0.20448 0.0
C77 C 1.01419 0.27302 0.13591 0.0
H78 H 0.32396 0.99144 0.22269 0.0
H79 H 0.24752 1.00144 0.32318 0.0
H80 H 0.27209 0.0389 0.06698 0.0
H81 H 0.22037 0.06716 0.17887 0.0
C82 C 0.22426 0.05205 0.23182 0.0
O83 O 0.23298 0.03063 0.1847 0.0
H84 H 0.23915 0.05998 0.28017 0.0
C85 C 0.30524 0.99971 0.21338 0.0
C86 C 0.30058 1.01545 0.13528 0.0
C87 C 0.28636 0.99478 0.28107 0.0
C88 C 0.2622 1.00537 0.2711 0.0
C89 C 0.25695 1.02138 0.19441 0.0
C90 C 0.27625 0.02673 0.12673 0.0
H91 H 0.57554 0.32441 0.13178 0.0
H92 H 0.56436 0.25625 0.2953 0.0
H93 H 0.5091 0.27729 0.08452 0.0
H94 H 0.54732 0.21751 0.14983 0.0
C95 C 0.52728 0.21838 0.1756 0.0
O96 O 0.52205 0.2423 0.21266 0.0
H97 H 0.51453 0.21508 0.11389 0.0
C98 C 0.56478 0.30703 0.14548 0.0
C99 C 0.54169 0.30288 0.0978 0.0
C100 C 0.57303 0.29052 0.21691 0.0
C101 C 0.55839 0.26886 0.23899 0.0
C102 C 0.53577 0.26353 0.18956 0.0
C103 C 0.52709 0.28085 0.12002 0.0
Tb104 Tb 0.03722 0.02285 0.82434 0.0
Eu105 Eu 1.00079 0.03811 0.6464 0.0
C106 C 0.06155 0.03326 0.62369 0.0
C107 C 1.01981 0.08037 0.79684 0.0
C108 C 0.08468 0.98844 0.96515 0.0
C109 C 0.10944 0.95444 0.89423 0.0
C110 C 0.0959 0.97715 0.88535 0.0
C111 C 0.08819 0.9775 0.0542 0.0
C112 C 0.10143 0.9547 0.06305 0.0
C113 C 0.11161 0.94242 0.9828 0.0
C114 C 0.06689 1.00968 0.9553 0.0
O115 O 1.0004 0.03127 0.89014 0.0
O116 O 0.97462 0.02401 0.76224 0.0
O117 O 1.0128 0.99783 0.6156 0.0
O118 O 0.02382 0.98612 0.76655 0.0
C119 C 0.97766 0.02699 0.85377 0.0
O120 O 0.96554 0.03279 0.56613 0.0
O121 O 0.99341 0.06091 0.5209 0.0
O122 O 0.04135 0.0464 0.59984 0.0
O123 O 0.06129 1.01868 0.69917 0.0
O124 O 0.03799 0.0647 0.823 0.0
O125 O 1.00125 0.07279 0.74083 0.0
C126 C 1.01824 0.98019 0.67813 0.0
O127 O 0.07266 0.02686 0.89205 0.0
O128 O 0.0429 1.00302 0.95129 0.0
C129 C 0.95065 0.07189 0.50613 0.0
C130 C 0.92237 0.11729 0.50183 0.0
C131 C 0.92508 0.10363 0.58683 0.0
C132 C 0.9393 0.08122 0.5891 0.0
C133 C 0.94623 0.08418 0.42015 0.0
C134 C 0.93228 0.10667 0.41788 0.0
C135 C 0.97023 0.05216 0.51089 0.0
H136 H 0.11727 0.94578 0.83114 0.0
H137 H 0.09328 0.98528 0.81566 0.0
H138 H 0.07949 0.98586 0.11634 0.0
H139 H 0.10212 0.94594 0.13228 0.0
H140 H 0.91743 0.11095 0.65249 0.0
H141 H 0.94264 0.072 0.65649 0.0
H142 H 0.95504 0.07734 0.35567 0.0
H143 H 0.93109 0.11668 0.35113 0.0
Tb144 Tb 0.52982 0.04518 0.83649 0.0
Eu145 Eu 0.51448 1.00688 0.66393 0.0
C146 C 0.52065 0.06737 0.63225 0.0
C147 C 0.47207 0.02795 0.80848 0.0
C148 C 0.56521 0.09309 0.97577 0.0
C149 C 0.60052 0.11677 0.90578 0.0
C150 C 0.57735 0.1036 0.89608 0.0
C151 C 0.57581 0.09692 0.0654 0.0
C152 C 0.59907 0.10977 0.0751 0.0
C153 C 0.61215 0.11924 0.99512 0.0
C154 C 0.54337 0.07561 0.96557 0.0
O155 O 0.51998 1.00892 0.9052 0.0
O156 O 0.52946 0.98243 0.78241 0.0
O157 O 0.55496 1.0185 0.63133 0.0
O158 O 0.56651 0.03166 0.78061 0.0
C159 C 0.52515 0.98603 0.87277 0.0
O160 O 0.51768 0.96984 0.59408 0.0
O161 O 0.49266 0.9984 0.53638 0.0
O162 O 0.50717 0.04691 0.61081 0.0
O163 O 0.53487 0.06804 0.70868 0.0
O164 O 0.488 0.04654 0.83147 0.0
O165 O 0.47964 1.0085 0.7574 0.0
C166 C 0.57253 0.0251 0.69322 0.0
O167 O 0.52679 0.08122 0.90027 0.0
O168 O 0.54915 0.05149 0.96444 0.0
C169 C 0.47739 0.95661 0.53772 0.0
C170 C 0.42833 0.93446 0.54536 0.0
C171 C 0.44273 0.93767 0.62851 0.0
C172 C 0.467 0.94884 0.62477 0.0
C173 C 0.46419 0.95122 0.45405 0.0
C174 C 0.43988 0.94023 0.4577 0.0
C175 C 0.49907 0.97446 0.53565 0.0
H176 H 0.60977 0.12409 0.84282 0.0
H177 H 0.56949 0.10073 0.82595 0.0
H178 H 0.56679 0.08876 0.12751 0.0
H179 H 0.60747 0.11071 0.14496 0.0
H180 H 0.43464 0.93311 0.69697 0.0
H181 H 0.47688 0.953 0.69043 0.0
H182 H 0.47184 0.9573 0.38642 0.0
H183 H 0.42937 0.93842 0.39207 0.0
Tb184 Tb 0.50578 0.53388 0.83352 0.0
Eu185 Eu 0.54432 0.51853 0.66087 0.0
C186 C 0.48466 0.52556 0.62468 0.0
C187 C 0.52082 0.47613 0.80361 0.0
C188 C 0.45612 0.56814 0.96602 0.0
C189 C 0.42343 0.59071 0.05303 0.0
C190 C 0.43796 0.56878 0.03856 0.0
C191 C 0.45826 0.58882 0.90384 0.0
C192 C 0.44418 0.61086 0.91909 0.0
C193 C 0.42729 0.61254 0.99628 0.0
C194 C 0.47436 0.54711 0.95997 0.0
O195 O 0.54429 0.54004 0.89127 0.0
O196 O 0.56673 0.51324 0.79531 0.0
O197 O 0.54613 0.56159 0.66765 0.0
O198 O 0.50907 0.56883 0.74962 0.0
C199 C 0.56499 0.5269 0.87275 0.0
O200 O 0.5824 0.5203 0.59857 0.0
O201 O 0.55212 0.49941 0.52736 0.0
O202 O 0.50751 0.52973 0.58969 0.0
O203 O 0.48152 0.52116 0.71561 0.0
O204 O 0.51582 0.49442 0.86455 0.0
O205 O 0.5275 0.48135 0.71586 0.0
C206 C 0.52818 0.57703 0.69708 0.0
O207 O 0.46957 0.52968 0.89672 0.0
O208 O 0.49823 0.5541 0.95825 0.0
C209 C 0.59312 0.48204 0.52257 0.0
C210 C 0.62094 0.43703 0.49335 0.0
C211 C 0.62659 0.45923 0.4409 0.0
C212 C 0.61264 0.48153 0.45508 0.0
C213 C 0.58872 0.46066 0.57986 0.0
C214 C 0.60238 0.43834 0.56514 0.0
C215 C 0.57657 0.50431 0.53102 0.0
H216 H 0.41014 0.59097 0.11161 0.0
H217 H 0.43578 0.55278 0.08646 0.0
H218 H 0.47192 0.58853 0.84661 0.0
H219 H 0.44806 0.62712 0.87411 0.0
H220 H 0.64105 0.45908 0.38622 0.0
H221 H 0.61653 0.49807 0.41128 0.0
H222 H 0.57389 0.46087 0.63323 0.0
H223 H 0.59714 0.42168 0.60618 0.0
Tb224 Tb 1.0124 0.50632 0.86352 0.0
Eu225 Eu 0.03184 0.54057 0.68601 0.0
C226 C 0.02569 0.48085 0.67121 0.0
C227 C 0.07212 0.51913 0.83991 0.0
C228 C 0.97386 0.46057 1.0005 0.0
C229 C 0.95053 0.4269 0.08125 0.0
C230 C 0.97299 0.44103 0.06782 0.0
C231 C 0.95263 0.46478 0.94259 0.0
C232 C 0.93011 0.45096 0.95668 0.0
C233 C 0.92847 0.43238 0.02831 0.0
C234 C 0.99649 0.47709 0.99261 0.0
O235 O 1.02138 0.54395 0.92325 0.0
O236 O 1.01634 0.5688 0.79131 0.0
O237 O 0.98979 0.53473 0.65772 0.0
O238 O 0.97655 0.52042 0.80367 0.0
C239 C 1.01796 0.56642 0.88369 0.0
O240 O 0.05391 0.57208 0.62532 0.0
O241 O 0.03349 0.54602 0.53312 0.0
O242 O 0.04204 0.49951 0.65827 0.0
O243 O 1.00791 0.48323 0.73561 0.0
O244 O 0.0542 0.5039 0.8741 0.0
O245 O 0.06703 0.53638 0.77573 0.0
C246 C 0.97151 0.52848 0.71731 0.0
O247 O 1.01308 0.47035 0.92891 0.0
O248 O 0.99206 0.50152 0.98996 0.0
C249 C 0.07726 0.55285 0.50242 0.0
C250 C 0.12279 0.52485 0.4899 0.0
C251 C 0.12278 0.54921 0.5316 0.0
C252 C 0.10026 0.56312 0.53747 0.0
C253 C 0.07793 0.52972 0.45184 0.0
C254 C 0.10038 0.51578 0.44641 0.0
C255 C 0.0527 0.56195 0.54085 0.0
H256 H 0.95014 0.4124 0.1357 0.0
H257 H 0.98941 0.43723 0.11194 0.0
H258 H 0.95311 0.47952 0.88906 0.0
H259 H 0.91358 0.45606 0.91515 0.0
H260 H 0.13997 0.55713 0.56288 0.0
H261 H 0.10048 0.58098 0.57616 0.0
H262 H 0.06066 0.52122 0.42332 0.0
H263 H 0.09971 0.49716 0.41317 0.0
H264 H 0.21922 0.04127 0.42145 0.0
H265 H 0.17482 0.04947 0.16712 0.0
H266 H 0.18013 0.03585 0.51367 0.0
H267 H 0.13553 0.04336 0.25832 0.0
H268 H 0.07041 0.0623 0.4647 0.0
H269 H 0.10916 0.06497 0.36964 0.0
H270 H 0.14468 1.00914 0.54986 0.0
H271 H 0.1062 1.00697 0.64613 0.0
C272 C 0.20103 0.04161 0.38517 0.0
C273 C 0.20007 0.04614 0.28727 0.0
C274 C 0.17854 0.03838 0.43792 0.0
C275 C 0.15441 0.03939 0.39411 0.0
C276 C 0.1536 0.043 0.29528 0.0
C277 C 0.17613 0.04627 0.24264 0.0
C278 C 0.08646 0.05054 0.48411 0.0
C279 C 0.08505 0.03448 0.56368 0.0
C280 C 0.10872 0.05194 0.42895 0.0
C281 C 0.1303 0.03729 0.45149 0.0
C282 C 0.12874 1.02104 0.53065 0.0
C283 C 0.10651 1.01968 0.58586 0.0
H284 H 0.51487 0.16865 0.14135 0.0
H285 H 0.53344 0.21954 0.37149 0.0
H286 H 0.51292 0.13286 0.2509 0.0
H287 H 0.53052 0.18393 0.48264 0.0
H288 H 0.55082 0.11043 0.64049 0.0
H289 H 0.55136 0.14684 0.5338 0.0
H290 H 0.48996 0.11262 0.37241 0.0
H291 H 0.49009 0.07578 0.4774 0.0
C292 C 0.51793 0.17227 0.21598 0.0
C293 C 0.52359 0.19712 0.24776 0.0
C294 C 0.51675 0.15171 0.2792 0.0
C295 C 0.52133 0.15526 0.3766 0.0
C296 C 0.52706 0.18021 0.40839 0.0
C297 C 0.52841 0.20079 0.34476 0.0
C298 C 0.5374 0.11063 0.58231 0.0
C299 C 0.52048 0.08998 0.56773 0.0
C300 C 0.53757 0.13172 0.52115 0.0
C301 C 0.52071 0.13296 0.44368 0.0
C302 C 0.50358 0.11236 0.42991 0.0
C303 C 0.50354 0.09119 0.49072 0.0
H304 H 0.331 0.54209 0.39096 0.0
H305 H 0.37656 0.52538 0.14545 0.0
H306 H 0.36839 0.53776 0.49192 0.0
H307 H 0.41406 0.51996 0.24633 0.0
H308 H 0.48194 0.54055 0.4383 0.0
H309 H 0.4445 0.54219 0.33635 0.0
H310 H 0.39821 0.51143 0.56273 0.0
H311 H 0.43546 0.5108 0.66537 0.0
C312 C 0.349 0.53703 0.35876 0.0
C313 C 0.3508 0.53414 0.2601 0.0
C314 C 0.37055 0.53439 0.41681 0.0
C315 C 0.39463 0.52857 0.37817 0.0
C316 C 0.39615 0.52491 0.27932 0.0
C317 C 0.37456 0.5277 0.22124 0.0
C318 C 0.46378 0.53407 0.46636 0.0
C319 C 0.46187 0.52561 0.56061 0.0
C320 C 0.4422 0.53484 0.40737 0.0
C321 C 0.41798 0.52697 0.44039 0.0
C322 C 0.41624 0.51814 0.53443 0.0
C323 C 0.43776 0.5176 0.59359 0.0
H324 H 1.02206 0.32429 0.45405 0.0
H325 H 0.04734 0.36891 0.21557 0.0
H326 H 1.01803 0.36312 0.54853 0.0
H327 H 0.04266 0.40802 0.30861 0.0
H328 H 0.06043 0.46919 0.53262 0.0
H329 H 0.06241 0.43081 0.43544 0.0
H330 H 0.99495 0.40124 0.57399 0.0
H331 H 0.99341 0.43932 0.67289 0.0
C332 C 0.0265 0.3425 0.42162 0.0
C333 C 0.03536 0.34354 0.32787 0.0
C334 C 0.02406 0.36485 0.47557 0.0
C335 C 0.03023 0.38892 0.43698 0.0
C336 C 0.03825 0.38991 0.3418 0.0
C337 C 0.04073 0.36753 0.288 0.0
C338 C 0.04601 0.4545 0.54254 0.0
C339 C 0.02681 0.45742 0.61114 0.0
C340 C 0.04703 0.43248 0.48605 0.0
C341 C 0.02882 0.41271 0.49621 0.0
C342 C 1.00954 0.41575 0.56464 0.0
C343 C 1.00857 0.43774 0.62127 0.0
H344 H 0.86561 0.99722 0.30282 0.0
H345 H 0.82393 0.03954 0.09361 0.0
H346 H 0.90459 1.0019 0.20885 0.0
H347 H 0.86289 0.04477 1.00001 0.0
H348 H 0.92759 1.0209 0.8018 0.0
H349 H 0.88998 1.01934 0.90225 0.0
H350 H 0.93738 0.03017 0.14911 0.0
H351 H 0.97526 0.03124 0.04823 0.0
C352 C 0.8649 1.00782 0.23716 0.0
C353 C 0.84164 1.01769 0.20488 0.0
C354 C 0.88728 1.01061 0.18329 0.0
C355 C 0.88701 0.02345 0.09573 0.0
C356 C 0.86385 0.03427 0.06578 0.0
C357 C 0.84152 0.03148 0.11974 0.0
C358 C 0.93012 0.02293 0.87749 0.0
C359 C 0.95466 0.02611 0.9165 0.0
C360 C 0.9084 0.02226 0.93534 0.0
C361 C 0.91041 0.02474 0.0343 0.0
C362 C 0.93497 0.02793 0.07346 0.0
C363 C 0.95676 0.02866 0.01542 0.0
H364 H 0.55366 0.84214 0.17347 0.0
H365 H 0.48692 0.8732 0.3072 0.0
H366 H 0.5554 0.87879 0.06613 0.0
H367 H 0.48835 0.90962 0.19991 0.0
H368 H 0.51417 0.98471 0.06325 0.0
H369 H 0.51295 0.94771 0.16791 0.0
H370 H 0.53408 0.8991 0.93446 0.0
H371 H 0.53566 0.93609 0.83028 0.0
C372 C 0.53909 0.85657 0.17871 0.0
C373 C 0.51984 0.85443 0.24757 0.0
C374 C 0.54006 0.87763 0.11726 0.0
C375 C 0.52201 0.89734 0.12392 0.0
C376 C 0.50276 0.89509 0.19296 0.0
C377 C 0.50175 0.87401 0.25393 0.0
C378 C 0.51867 0.96616 0.03417 0.0
C379 C 0.52505 0.96355 0.93796 0.0
C380 C 0.51778 0.94483 0.09422 0.0
C381 C 0.52333 0.92022 0.06001 0.0
C382 C 0.52996 0.91768 0.96396 0.0
C383 C 0.53075 0.93898 0.90388 0.0
H384 H 0.69589 0.48784 0.22978 0.0
H385 H 0.68446 0.56773 0.28508 0.0
H386 H 0.66053 0.48797 0.11678 0.0
H387 H 0.64937 0.56821 0.17083 0.0
H388 H 0.56989 0.55312 0.0414 0.0
H389 H 0.60603 0.55347 0.15058 0.0
H390 H 0.64665 0.50249 0.96516 0.0
H391 H 0.61048 0.50176 0.85732 0.0
C392 C 0.68597 0.50552 0.21675 0.0
C393 C 0.69284 0.52771 0.26691 0.0
C394 C 0.6657 0.50566 0.15172 0.0
C395 C 0.65176 0.52807 0.13458 0.0
C396 C 0.65921 0.55045 0.18309 0.0
C397 C 0.67951 0.55028 0.24802 0.0
C398 C 0.58652 0.54197 0.02384 0.0
C399 C 0.58707 0.52739 0.94014 0.0
C400 C 0.6074 0.5423 0.08635 0.0
C401 C 0.62949 0.52802 0.06727 0.0
C402 C 0.62998 0.51348 0.98344 0.0
C403 C 0.60916 0.51318 0.92099 0.0
H404 H 0.99231 0.67887 0.33337 0.0
H405 H 0.04622 0.71535 0.14607 0.0
H406 H 0.98958 0.64227 0.22644 0.0
H407 H 0.04371 0.6787 0.03888 0.0
H408 H 1.01703 0.61676 0.82881 0.0
H409 H 1.01637 0.65473 0.92914 0.0
H410 H 1.01633 0.60699 0.17769 0.0
H411 H 1.01675 0.56908 0.07767 0.0
C412 C 1.00334 0.67921 0.2686 0.0
C413 C 1.0193 0.70017 0.2478 0.0
C414 C 1.00197 0.6581 0.2076 0.0
C415 C 1.01653 0.65733 0.12392 0.0
C416 C 0.03199 0.67865 0.10196 0.0
C417 C 0.03345 0.69972 0.16334 0.0
C418 C 1.01677 0.61431 0.90486 0.0
C419 C 1.01694 0.58971 0.9448 0.0
C420 C 1.01654 0.63616 0.96253 0.0
C421 C 1.01627 0.63407 0.06184 0.0
C422 C 1.01619 0.60945 0.10164 0.0
C423 C 1.01659 0.58763 0.04406 0.0
H424 H 0.98356 0.25118 0.44107 0.0
H425 H 0.92202 0.25905 0.24198 0.0
H426 H 0.95829 0.22159 0.53297 0.0
H427 H 0.89536 0.23077 0.33777 0.0
H428 H 0.89535 0.14239 0.36443 0.0
H429 H 0.89719 0.18765 0.33643 0.0
H430 H 0.92856 0.19947 0.61646 0.0
H431 H 0.92933 0.1538 0.63992 0.0
C432 C 0.96392 0.24771 0.42044 0.0
C433 C 0.95481 0.25686 0.33406 0.0
C434 C 0.94919 0.23065 0.47334 0.0
C435 C 0.92492 0.22267 0.44093 0.0
C436 C 0.91435 0.23545 0.36277 0.0
C437 C 0.92941 0.252 0.30847 0.0
C438 C 0.90237 0.15465 0.4206 0.0
C439 C 0.91358 0.14424 0.50189 0.0
C440 C 0.90304 0.18093 0.40531 0.0
C441 C 0.91438 0.19745 0.47229 0.0
C442 C 0.92097 0.18731 0.56105 0.0
C443 C 0.92101 0.16094 0.57519 0.0
H444 H 0.28319 0.94328 0.30001 0.0
H445 H 0.3068 1.01205 0.44344 0.0
H446 H 0.30938 0.91803 0.40731 0.0
H447 H 0.33381 0.98759 0.54733 0.0
H448 H 0.39809 0.90694 0.4228 0.0
H449 H 0.35336 0.91451 0.39495 0.0
H450 H 0.34927 0.95806 0.65453 0.0
H451 H 0.39459 0.95235 0.67783 0.0
C452 C 0.29316 0.95279 0.3574 0.0
C453 C 0.29326 0.97946 0.36391 0.0
C454 C 0.3084 0.93844 0.41817 0.0
C455 C 0.32447 0.95072 0.48425 0.0
C456 C 0.32181 0.97721 0.49796 0.0
C457 C 0.30634 0.99143 0.43813 0.0
C458 C 0.38755 0.91771 0.47499 0.0
C459 C 0.40027 0.93006 0.54979 0.0
C460 C 0.36161 0.92177 0.4599 0.0
C461 C 0.34778 0.93792 0.52045 0.0
C462 C 0.35955 0.9464 0.60435 0.0
C463 C 0.38563 0.9428 0.61836 0.0
H464 H 0.57265 0.29786 0.40662 0.0
H465 H 0.62124 0.3036 0.16138 0.0
H466 H 0.59927 0.32877 0.48899 0.0
H467 H 0.64857 0.33415 0.2447 0.0
H468 H 0.62992 0.4203 0.3136 0.0
H469 H 0.63247 0.37669 0.26226 0.0
H470 H 0.63593 0.35165 0.55305 0.0
H471 H 0.63388 0.396 0.60531 0.0
C472 C 0.58994 0.3046 0.37244 0.0
C473 C 0.59457 0.29896 0.27703 0.0
C474 C 0.60532 0.32238 0.41972 0.0
C475 C 0.62556 0.33465 0.37206 0.0
C476 C 0.63268 0.32557 0.28229 0.0
C477 C 0.61714 0.30798 0.23472 0.0
C478 C 0.63249 0.40579 0.36707 0.0
C479 C 0.63088 0.41173 0.46383 0.0
C480 C 0.63401 0.38051 0.33735 0.0
C481 C 0.6338 0.36051 0.40363 0.0
C482 C 0.63555 0.3666 0.50029 0.0
C483 C 0.63422 0.39201 0.53014 0.0
H484 H 0.27134 0.50704 0.43558 0.0
H485 H 0.245 0.43681 0.309 0.0
H486 H 0.23503 0.50673 0.54093 0.0
H487 H 0.2087 0.43606 0.4162 0.0
H488 H 0.14136 0.494 0.351 0.0
H489 H 0.18061 0.47031 0.35113 0.0
H490 H 0.19639 0.49546 0.63671 0.0
H491 H 0.15629 0.51895 0.63744 0.0
C492 C 0.25892 0.4904 0.4355 0.0
C493 C 0.25993 0.47277 0.36086 0.0
C494 C 0.23788 0.49026 0.49593 0.0
C495 C 0.21821 0.47223 0.48206 0.0
C496 C 0.22316 0.45075 0.42548 0.0
C497 C 0.24413 0.45102 0.36462 0.0
C498 C 0.1527 0.4939 0.41503 0.0
C499 C 0.14586 0.50872 0.49354 0.0
C500 C 0.17518 0.48003 0.41565 0.0
C501 C 0.19156 0.48074 0.49457 0.0
C502 C 0.18411 0.49446 0.57518 0.0
C503 C 0.16139 0.50823 0.57483 0.0
H504 H 0.05599 0.80535 0.07023 0.0
H505 H 0.11685 0.80423 0.27474 0.0
H506 H 0.07962 0.83553 0.97532 0.0
H507 H 0.14199 0.83315 0.17603 0.0
H508 H 0.13821 0.92059 0.12865 0.0
H509 H 0.13785 0.87593 0.16757 0.0
H510 H 0.10827 0.85807 0.8891 0.0
H511 H 0.10589 0.90317 0.85463 0.0
C512 C 0.07518 0.81051 0.09187 0.0
C513 C 0.08443 0.80304 0.18036 0.0
C514 C 0.08898 0.8279 0.03714 0.0
C515 C 0.1125 0.83789 0.06955 0.0
C516 C 0.12347 0.82692 0.15077 0.0
C517 C 0.10929 0.81004 0.20687 0.0
C518 C 0.13181 0.90714 0.07529 0.0
C519 C 0.1207 0.91567 0.99083 0.0
C520 C 0.13204 0.8812 0.0969 0.0
C521 C 0.12175 0.86311 0.03327 0.0
C522 C 0.11508 0.87144 0.94199 0.0
C523 C 0.11411 0.89748 0.92149 0.0
H524 H 0.75027 0.12716 0.29232 0.0
H525 H 0.7496 0.06518 0.09209 0.0
H526 H 0.72138 0.15112 0.19138 0.0
H527 H 0.71935 0.08758 0.99507 0.0
H528 H 0.63414 0.14618 0.1412 0.0
H529 H 0.67866 0.14612 0.18221 0.0
H530 H 0.69684 0.11522 0.90644 0.0
H531 H 0.65182 0.11251 0.87007 0.0
C532 C 0.7446 0.11913 0.22476 0.0
C533 C 0.75174 0.09431 0.20002 0.0
C534 C 0.7277 0.13261 0.16746 0.0
C535 C 0.71681 0.12093 0.08691 0.0
C536 C 0.72691 0.09746 0.05629 0.0
C537 C 0.74436 0.08439 0.11216 0.0
C538 C 0.64763 0.1395 0.08893 0.0
C539 C 0.63914 0.12804 1.00461 0.0
C540 C 0.6735 0.13992 0.11172 0.0
C541 C 0.69163 0.12948 0.04942 0.0
C542 C 0.68343 0.12221 0.95836 0.0
C543 C 0.65744 0.12106 0.93672 0.0
H544 H 0.42531 0.74804 0.3218 0.0
H545 H 0.47529 0.7527 0.0802 0.0
H546 H 0.39894 0.71647 0.23946 0.0
H547 H 0.44939 0.72095 0.99839 0.0
H548 H 0.41289 0.65325 0.88436 0.0
H549 H 0.41138 0.69779 0.93473 0.0
H550 H 0.41764 0.6739 0.22597 0.0
H551 H 0.42025 0.63013 0.17669 0.0
C552 C 0.42985 0.74328 0.24914 0.0
C553 C 0.45258 0.75227 0.2079 0.0
C554 C 0.41485 0.72512 0.20218 0.0
C555 C 0.42257 0.71558 0.11382 0.0
C556 C 0.44293 0.72777 0.06658 0.0
C557 C 0.45785 0.74604 0.11345 0.0
C558 C 0.41344 0.65748 0.95933 0.0
C559 C 0.41759 0.63799 0.02605 0.0
C560 C 0.41233 0.68301 0.98805 0.0
C561 C 0.4148 0.68945 0.08412 0.0
C562 C 0.41549 0.66972 0.15131 0.0
C563 C 0.41699 0.64434 0.1227 0.0
H564 H 0.79533 0.42997 0.35933 0.0
H565 H 0.78988 0.47884 0.11526 0.0
H566 H 0.82531 0.40287 0.27479 0.0
H567 H 0.82022 0.45248 0.03176 0.0
H568 H 0.91151 0.42289 0.20749 0.0
H569 H 0.8679 0.41953 0.25808 0.0
H570 H 0.84302 0.41639 0.96682 0.0
H571 H 0.8874 0.41925 0.91525 0.0
C572 C 0.79962 0.43417 0.28598 0.0
C573 C 0.79092 0.4568 0.24445 0.0
C574 C 0.81688 0.41876 0.23769 0.0
C575 C 0.82597 0.42609 0.14804 0.0
C576 C 0.81386 0.4463 0.10098 0.0
C577 C 0.7964 0.46153 0.14894 0.0
C578 C 0.89704 0.42023 0.15368 0.0
C579 C 0.90305 0.42215 0.05707 0.0
C580 C 0.87174 0.41823 0.18298 0.0
C581 C 0.85179 0.41827 0.11645 0.0
C582 C 0.85793 0.41687 0.0198 0.0
C583 C 0.88336 0.41869 0.99035 0.0
H584 H 0.96642 0.2245 0.01468 0.0
H585 H 0.04612 0.22779 0.08874 0.0
H586 H 0.97313 0.18513 0.92858 0.0
H587 H 0.05334 0.18855 0.99819 0.0
H588 H 0.04828 0.10116 0.94191 0.0
H589 H 0.04568 0.14397 1.00883 0.0
H590 H 0.98928 0.16355 0.7989 0.0
H591 H 0.99116 0.12053 0.73495 0.0
C592 C 0.98559 0.21707 0.01062 0.0
C593 C 1.00568 0.2293 0.05936 0.0
C594 C 0.98953 0.19443 0.96041 0.0
C595 C 1.0138 0.18321 0.9563 0.0
C596 C 0.03426 0.19622 1.00085 0.0
C597 C 0.03025 0.21899 0.05162 0.0
C598 C 0.03543 0.11465 0.90966 0.0
C599 C 1.01977 0.10716 0.83342 0.0
C600 C 0.03405 0.13939 0.94774 0.0
C601 C 1.01712 0.15751 0.91023 0.0
C602 C 1.00216 0.15019 0.83163 0.0
C603 C 1.00334 0.12541 0.79434 0.0
H604 H 0.32207 0.0604 0.06957 0.0
H605 H 0.32787 0.97869 0.04671 0.0
H606 H 0.36194 0.06527 0.9797 0.0
H607 H 0.36765 0.98327 0.96031 0.0
H608 H 0.43249 0.99587 0.75976 0.0
H609 H 0.38921 0.99496 0.82161 0.0
H610 H 0.40696 0.05956 1.0007 0.0
H611 H 0.45015 0.06095 0.93626 0.0
C612 C 0.33155 0.04352 0.04354 0.0
C613 C 0.32173 1.01917 0.06522 0.0
C614 C 0.35464 0.04625 0.99322 0.0
C615 C 0.36841 0.02468 0.96286 0.0
C616 C 0.35773 1.00042 0.98092 0.0
C617 C 0.33484 0.99775 0.03105 0.0
C618 C 0.42719 1.01004 0.81187 0.0
C619 C 0.44508 0.02839 0.84324 0.0
C620 C 0.40225 1.00944 0.84793 0.0
C621 C 0.39433 0.02704 0.91731 0.0
C622 C 0.41204 0.04584 0.94676 0.0
C623 C 0.437 0.04654 0.91017 0.0
H624 H 0.56697 0.3227 0.94611 0.0
H625 H 0.49772 0.33076 0.10685 0.0
H626 H 0.5591 0.36319 0.86752 0.0
H627 H 0.48938 0.37134 0.02692 0.0
H628 H 0.5062 0.45763 0.97729 0.0
H629 H 0.50738 0.41386 0.03449 0.0
H630 H 0.53456 0.38882 0.76172 0.0
H631 H 0.53381 0.43277 0.70488 0.0
C632 C 0.54955 0.33276 0.9622 0.0
C633 C 0.53289 0.32338 0.03235 0.0
C634 C 0.54502 0.3561 0.91716 0.0
C635 C 0.52373 0.37092 0.94128 0.0
C636 C 0.50621 0.36074 1.00741 0.0
C637 C 0.51071 0.33724 0.05219 0.0
C638 C 0.51228 0.44282 0.92904 0.0
C639 C 0.52003 0.44896 0.83634 0.0
C640 C 0.51274 0.41755 0.96178 0.0
C641 C 0.52105 0.39755 0.90305 0.0
C642 C 0.5283 0.40363 0.80962 0.0
C643 C 0.52776 0.42892 0.77675 0.0
H644 H 0.20548 0.52301 0.20282 0.0
H645 H 0.23851 0.50185 0.93492 0.0
H646 H 0.16376 0.52643 0.12912 0.0
H647 H 0.19628 0.50572 0.85968 0.0
H648 H 0.11622 0.53758 0.75776 0.0
H649 H 0.15985 0.53609 0.81935 0.0
H650 H 0.13274 0.4949 0.06403 0.0
H651 H 0.08924 0.49621 1.00247 0.0
C652 C 0.2039 0.51947 0.12748 0.0
C653 C 0.22544 0.51193 0.0751 0.0
C654 C 0.17984 0.52123 0.0853 0.0
C655 C 0.17638 0.51582 0.98871 0.0
C656 C 0.19817 0.50992 0.93439 0.0
C657 C 0.22244 0.50788 0.97724 0.0
C658 C 0.11954 0.52812 0.82466 0.0
C659 C 0.099 0.51715 0.87535 0.0
C660 C 0.14466 0.52716 0.85967 0.0
C661 C 0.14994 0.5156 0.94722 0.0
C662 C 0.12944 0.5043 0.99702 0.0
C663 C 0.10443 0.50491 0.96139 0.0
H664 H 0.06871 0.8289 0.52084 0.0
H665 H 0.99372 0.83198 0.39706 0.0
H666 H 0.0614 0.86942 0.60109 0.0
H667 H 0.98613 0.87258 0.47819 0.0
H668 H 0.03645 0.93832 0.77379 0.0
H669 H 0.03823 0.89409 0.71885 0.0
H670 H 1.00249 0.91596 0.45648 0.0
H671 H 1.00051 0.95993 0.51141 0.0
C672 C 0.05031 0.83789 0.51324 0.0
C673 C 0.03175 0.82712 0.45287 0.0
C674 C 0.0461 0.86119 0.55924 0.0
C675 C 0.02327 0.8746 0.5455 0.0
C676 C 1.0041 0.86305 0.48945 0.0
C677 C 1.00825 0.83955 0.44403 0.0
C678 C 0.02875 0.93367 0.70473 0.0
C679 C 1.01838 0.95287 0.64716 0.0
C680 C 0.02987 0.90826 0.67296 0.0
C681 C 1.02044 0.90126 0.58309 0.0
C682 C 1.00959 0.9204 0.52658 0.0
C683 C 1.00867 0.94578 0.55792 0.0
H684 H 0.72126 1.00294 0.41492 0.0
H685 H 0.72385 0.07822 0.53733 0.0
H686 H 0.68047 0.9946 0.49482 0.0
H687 H 0.68321 0.07019 0.61631 0.0
H688 H 0.61434 0.04459 0.78823 0.0
H689 H 0.65856 0.04705 0.73381 0.0
H690 H 0.63697 1.0095 0.47345 0.0
H691 H 0.59299 1.00679 0.52804 0.0
C692 C 0.71351 1.01739 0.4613 0.0
C693 C 0.7259 0.04115 0.47035 0.0
C694 C 0.68992 1.0128 0.50601 0.0
C695 C 0.67822 0.03182 0.5615 0.0
C696 C 0.69153 0.05498 0.57506 0.0
C697 C 0.71492 0.0596 0.5298 0.0
C698 C 0.61904 0.03661 0.71975 0.0
C699 C 0.5999 0.02553 0.66268 0.0
C700 C 0.64446 0.03814 0.68824 0.0
C701 C 0.65155 0.02844 0.599 0.0
C702 C 0.63247 1.01685 0.54305 0.0
C703 C 0.60708 1.01549 0.57419 0.0
H704 H 0.47567 0.72597 0.52945 0.0
H705 H 0.55069 0.72457 0.40525 0.0
H706 H 0.48387 0.68615 0.60989 0.0
H707 H 0.55975 0.68499 0.49047 0.0
H708 H 0.5526 0.59793 0.54322 0.0
H709 H 0.55001 0.64145 0.48387 0.0
H710 H 0.50298 0.66173 0.72313 0.0
H711 H 0.50462 0.61794 0.7792 0.0
C712 C 0.49432 0.71749 0.52174 0.0
C713 C 0.51244 0.72846 0.46026 0.0
C714 C 0.49914 0.69452 0.56853 0.0
C715 C 0.52245 0.68177 0.5566 0.0
C716 C 0.54133 0.69374 0.50018 0.0
C717 C 0.53637 0.71677 0.45252 0.0
C718 C 0.54184 0.61175 0.58347 0.0
C719 C 0.52855 0.60424 0.66549 0.0
C720 C 0.54048 0.63691 0.54971 0.0
C721 C 0.52608 0.65549 0.59769 0.0
C722 C 0.51373 0.64809 0.68217 0.0
C723 C 0.51475 0.62286 0.71494 0.0
H724 H 0.81646 0.48419 0.57441 0.0
H725 H 0.82654 0.5533 0.41366 0.0
H726 H 0.85728 0.49153 0.65246 0.0
H727 H 0.86747 0.56112 0.49318 0.0
H728 H 0.9533 0.54393 0.54431 0.0
H729 H 0.90954 0.5432 0.48678 0.0
H730 H 0.88377 0.51545 0.75819 0.0
H731 H 0.92768 0.51579 0.81537 0.0
C732 C 0.82706 0.50147 0.55811 0.0
C733 C 0.81809 0.51823 0.48814 0.0
C734 C 0.8506 0.5057 0.6029 0.0
C735 C 0.86609 0.52681 0.57884 0.0
C736 C 0.85638 0.54442 0.51273 0.0
C737 C 0.83267 0.54021 0.46816 0.0
C738 C 0.93834 0.53784 0.59227 0.0
C739 C 0.94431 0.52975 0.68463 0.0
C740 C 0.91306 0.53761 0.55928 0.0
C741 C 0.89282 0.52924 0.61739 0.0
C742 C 0.89873 0.52172 0.71058 0.0
C743 C 0.92403 0.52201 0.74369 0.0
loop_
_geom_bond_atom_site_label_1
_geom_bond_atom_site_label_2
_geom_bond_distance
_geom_bond_site_symmetry_2
_ccdc_geom_bond_type
H0 C7 0.929 . S
H1 C10 0.930 . S
H2 C12 0.929 . S
H3 C4 0.969 . S
C4 H3 0.969 . S
C4 O5 1.550 . S
C4 H6 0.973 . S
O5 C4 1.550 . S
O5 C11 1.412 . S
H6 C4 0.973 . S
C7 H0 0.929 . S
C7 C8 1.400 . S
C7 C9 1.364 . S
C8 C7 1.400 . S
C8 C12 1.377 . S
C9 C7 1.364 . S
C9 C10 1.374 . S
C10 H1 0.930 . S
C10 C9 1.374 . S
C10 C11 1.383 . S
C11 O5 1.412 . S
C11 C10 1.383 . S
C11 C12 1.394 . S
C12 H2 0.929 . S
C12 C8 1.377 . S
C12 C11 1.394 . S
H13 C20 0.928 1_655 S
H14 C23 0.930 . S
H15 C25 0.928 1_655 S
H16 C17 0.969 . S
C17 H16 0.969 . S
C17 O18 1.550 1_455 S
C17 H19 0.973 1_455 S
O18 C17 1.550 1_655 S
O18 C24 1.405 1_655 S
H19 C17 0.973 1_655 S
C20 H13 0.928 1_455 S
C20 C21 1.400 . S
C20 C22 1.364 . S
C21 C20 1.400 . S
C21 C25 1.377 . S
C22 C20 1.364 . S
C22 C23 1.374 1_455 S
C23 H14 0.930 . S
C23 C22 1.374 1_655 S
C23 C24 1.382 1_655 S
C24 O18 1.405 1_455 S
C24 C23 1.382 1_455 S
C24 C25 1.394 . S
C25 H15 0.928 1_455 S
C25 C21 1.377 . S
C25 C24 1.394 . S
H26 C33 0.928 1_565 S
H27 C36 0.930 . S
H28 C38 0.928 1_565 S
H29 C30 0.969 . S
C30 H29 0.969 . S
C30 O31 1.550 1_545 S
C30 H32 0.973 1_545 S
O31 C30 1.550 1_565 S
O31 C37 1.405 1_565 S
H32 C30 0.973 1_565 S
C33 H26 0.928 1_545 S
C33 C34 1.399 . S
C33 C35 1.364 . S
C34 C33 1.399 . S
C34 C38 1.377 . S
C35 C33 1.364 . S
C35 C36 1.374 1_545 S
C36 H27 0.930 . S
C36 C35 1.374 1_565 S
C36 C37 1.382 1_565 S
C37 O31 1.405 1_545 S
C37 C36 1.382 1_545 S
C37 C38 1.394 . S
C38 H28 0.928 1_545 S
C38 C34 1.377 . S
C38 C37 1.394 . S
H39 C46 0.929 . S
H40 C49 0.930 . S
H41 C51 0.929 . S
H42 C43 0.969 . S
C43 H42 0.969 . S
C43 O44 1.550 . S
C43 H45 0.973 . S
O44 C43 1.550 . S
O44 C50 1.412 . S
H45 C43 0.973 . S
C46 H39 0.929 . S
C46 C47 1.400 . S
C46 C48 1.364 . S
C47 C46 1.400 . S
C47 C51 1.377 . S
C48 C46 1.364 . S
C48 C49 1.374 . S
C49 H40 0.930 . S
C49 C48 1.374 . S
C49 C50 1.383 . S
C50 O44 1.412 . S
C50 C49 1.383 . S
C50 C51 1.394 . S
C51 H41 0.929 . S
C51 C47 1.377 . S
C51 C50 1.394 . S
H52 C59 0.929 . S
H53 C62 0.930 . S
H54 C64 0.929 . S
H55 C56 0.969 . S
C56 H55 0.969 . S
C56 O57 1.550 . S
C56 H58 0.973 . S
O57 C56 1.550 . S
O57 C63 1.412 . S
H58 C56 0.973 . S
C59 H52 0.929 . S
C59 C60 1.400 1_554 S
C59 C61 1.364 . S
C60 C59 1.400 1_556 S
C60 C64 1.377 . S
C61 C59 1.364 . S
C61 C62 1.374 . S
C62 H53 0.930 . S
C62 C61 1.374 . S
C62 C63 1.383 . S
C63 O57 1.412 . S
C63 C62 1.383 . S
C63 C64 1.394 1_554 S
C64 H54 0.929 . S
C64 C60 1.377 . S
C64 C63 1.394 1_556 S
H65 C72 0.928 1_655 S
H66 C75 0.930 . S
H67 C77 0.928 1_655 S
H68 C69 0.969 . S
C69 H68 0.969 . S
C69 O70 1.550 1_455 S
C69 H71 0.973 1_455 S
O70 C69 1.550 1_655 S
O70 C76 1.402 1_655 S
H71 C69 0.973 1_655 S
C72 H65 0.928 1_455 S
C72 C73 1.400 1_554 S
C72 C74 1.364 . S
C73 C72 1.400 1_556 S
C73 C77 1.377 . S
C74 C72 1.364 . S
C74 C75 1.374 1_455 S
C75 H66 0.930 . S
C75 C74 1.374 1_655 S
C75 C76 1.382 1_655 S
C76 O70 1.402 1_455 S
C76 C75 1.382 1_455 S
C76 C77 1.394 1_554 S
C77 H67 0.928 1_455 S
C77 C73 1.377 . S
C77 C76 1.394 1_556 S
H78 C85 0.928 1_565 S
H79 C88 0.930 . S
H80 C90 0.928 1_565 S
H81 C82 0.969 . S
C82 H81 0.969 . S
C82 O83 1.550 1_545 S
C82 H84 0.973 1_545 S
O83 C82 1.550 1_565 S
O83 C89 1.402 1_565 S
H84 C82 0.973 1_565 S
C85 H78 0.928 1_545 S
C85 C86 1.400 1_554 S
C85 C87 1.364 . S
C86 C85 1.400 1_556 S
C86 C90 1.377 . S
C87 C85 1.364 . S
C87 C88 1.374 1_545 S
C88 H79 0.930 . S
C88 C87 1.374 1_565 S
C88 C89 1.382 1_565 S
C89 O83 1.402 1_545 S
C89 C88 1.382 1_545 S
C89 C90 1.394 1_554 S
C90 H80 0.928 1_545 S
C90 C86 1.377 . S
C90 C89 1.394 1_556 S
H91 C98 0.929 . S
H92 C101 0.930 . S
H93 C103 0.929 . S
H94 C95 0.969 . S
C95 H94 0.969 . S
C95 O96 1.550 . S
C95 H97 0.973 . S
O96 C95 1.550 . S
O96 C102 1.412 . S
H97 C95 0.973 . S
C98 H91 0.929 . S
C98 C99 1.400 1_554 S
C98 C100 1.364 . S
C99 C98 1.400 1_556 S
C99 C103 1.377 . S
C100 C98 1.364 . S
C100 C101 1.374 . S
C101 H92 0.930 . S
C101 C100 1.374 . S
C101 C102 1.383 . S
C102 O96 1.412 . S
C102 C101 1.383 . S
C102 C103 1.394 1_554 S
C103 H93 0.929 . S
C103 C99 1.377 . S
C103 C102 1.394 1_556 S
Tb104 C114 2.825 . S
Tb104 O115 2.347 1_455 S
Tb104 O118 2.366 . S
Tb104 O123 2.418 . S
Tb104 O124 2.384 1_565 S
Tb104 O127 2.479 . S
Tb104 O128 2.471 . S
Eu105 O116 2.418 . S
Eu105 O117 2.384 1_545 S
Eu105 O120 2.479 . S
Eu105 O121 2.471 . S
Eu105 O122 2.347 1_655 S
Eu105 O125 2.366 . S
Eu105 C135 2.825 . S
C106 O122 1.259 1_565 S
C106 O123 1.265 . S
C107 O124 1.255 . S
C107 O125 1.265 1_455 S
C108 C110 1.380 1_556 S
C108 C111 1.374 1_556 S
C108 C114 1.507 . S
C109 C110 1.384 . S
C109 C113 1.387 . S
C109 H136 0.930 . S
C110 C108 1.380 1_554 S
C110 C109 1.384 . S
C110 H137 0.931 . S
C111 C108 1.374 1_554 S
C111 C112 1.390 . S
C111 H138 0.930 1_455 S
C112 C111 1.390 . S
C112 C113 1.391 . S
C112 H139 0.930 1_455 S
C113 C109 1.387 . S
C113 C112 1.391 . S
C114 Tb104 2.825 . S
C114 C108 1.507 . S
C114 O127 1.238 . S
C114 O128 1.247 . S
O115 Tb104 2.347 1_655 S
O115 C119 1.259 1_565 S
O116 Eu105 2.418 . S
O116 C119 1.265 . S
O117 Eu105 2.384 1_565 S
O117 C126 1.255 . S
O118 Tb104 2.366 . S
O118 C126 1.265 1_455 S
C119 O115 1.259 1_545 S
C119 O116 1.265 . S
O120 Eu105 2.479 . S
O120 C135 1.238 . S
O121 Eu105 2.471 . S
O121 C135 1.247 . S
O122 Eu105 2.347 1_455 S
O122 C106 1.259 1_545 S
O123 Tb104 2.418 . S
O123 C106 1.265 . S
O124 Tb104 2.384 1_545 S
O124 C107 1.255 . S
O125 Eu105 2.366 . S
O125 C107 1.265 1_655 S
C126 O117 1.255 . S
C126 O118 1.265 1_655 S
O127 Tb104 2.479 . S
O127 C114 1.238 . S
O128 Tb104 2.471 . S
O128 C114 1.247 . S
C129 C132 1.380 . S
C129 C133 1.374 . S
C129 C135 1.507 . S
C130 C131 1.387 . S
C130 C134 1.391 . S
C131 C130 1.387 . S
C131 C132 1.384 . S
C131 H140 0.930 . S
C132 C129 1.380 . S
C132 C131 1.384 . S
C132 H141 0.931 . S
C133 C129 1.374 . S
C133 C134 1.390 . S
C133 H142 0.930 1_655 S
C134 C130 1.391 . S
C134 C133 1.390 . S
C134 H143 0.930 1_655 S
C135 Eu105 2.825 . S
C135 O120 1.238 . S
C135 O121 1.247 . S
C135 C129 1.507 . S
H136 C109 0.930 . S
H137 C110 0.931 . S
H138 C111 0.930 1_655 S
H139 C112 0.930 1_655 S
H140 C131 0.930 . S
H141 C132 0.931 . S
H142 C133 0.930 1_455 S
H143 C134 0.930 1_455 S
Tb144 C154 2.825 . S
Tb144 O155 2.347 1_545 S
Tb144 O158 2.366 . S
Tb144 O163 2.418 . S
Tb144 O164 2.384 . S
Tb144 O167 2.479 . S
Tb144 O168 2.471 . S
Eu145 O156 2.418 . S
Eu145 O157 2.384 . S
Eu145 O160 2.479 . S
Eu145 O161 2.471 . S
Eu145 O162 2.347 1_565 S
Eu145 O165 2.366 . S
Eu145 C175 2.825 . S
C146 O162 1.259 . S
C146 O163 1.265 . S
C147 O164 1.255 . S
C147 O165 1.265 1_545 S
C148 C150 1.378 1_556 S
C148 C151 1.372 1_556 S
C148 C154 1.511 . S
C149 C150 1.384 . S
C149 C153 1.387 . S
C149 H176 0.930 . S
C150 C148 1.378 1_554 S
C150 C149 1.384 . S
C150 H177 0.931 . S
C151 C148 1.372 1_554 S
C151 C152 1.390 . S
C151 H178 0.930 1_545 S
C152 C151 1.390 . S
C152 C153 1.391 . S
C152 H179 0.930 1_545 S
C153 C149 1.387 . S
C153 C152 1.391 . S
C154 Tb144 2.825 . S
C154 C148 1.511 . S
C154 O167 1.238 . S
C154 O168 1.247 . S
O155 Tb144 2.347 1_565 S
O155 C159 1.259 . S
O156 Eu145 2.418 . S
O156 C159 1.265 . S
O157 Eu145 2.384 . S
O157 C166 1.255 . S
O158 Tb144 2.366 . S
O158 C166 1.265 1_545 S
C159 O155 1.259 . S
C159 O156 1.265 . S
O160 Eu145 2.479 . S
O160 C175 1.238 . S
O161 Eu145 2.471 . S
O161 C175 1.247 . S
O162 Eu145 2.347 1_545 S
O162 C146 1.259 . S
O163 Tb144 2.418 . S
O163 C146 1.265 . S
O164 Tb144 2.384 . S
O164 C147 1.255 . S
O165 Eu145 2.366 . S
O165 C147 1.265 1_565 S
C166 O157 1.255 . S
C166 O158 1.265 1_565 S
O167 Tb144 2.479 . S
O167 C154 1.238 . S
O168 Tb144 2.471 . S
O168 C154 1.247 . S
C169 C172 1.380 . S
C169 C173 1.374 . S
C169 C175 1.507 . S
C170 C171 1.387 . S
C170 C174 1.391 . S
C171 C170 1.387 . S
C171 C172 1.384 . S
C171 H180 0.930 . S
C172 C169 1.380 . S
C172 C171 1.384 . S
C172 H181 0.931 . S
C173 C169 1.374 . S
C173 C174 1.390 . S
C173 H182 0.930 1_565 S
C174 C170 1.391 . S
C174 C173 1.390 . S
C174 H183 0.930 1_565 S
C175 Eu145 2.825 . S
C175 O160 1.238 . S
C175 O161 1.247 . S
C175 C169 1.507 . S
H176 C149 0.930 . S
H177 C150 0.931 . S
H178 C151 0.930 1_565 S
H179 C152 0.930 1_565 S
H180 C171 0.930 . S
H181 C172 0.931 . S
H182 C173 0.930 1_545 S
H183 C174 0.930 1_545 S
Tb184 C194 2.825 . S
Tb184 O195 2.347 . S
Tb184 O198 2.366 . S
Tb184 O203 2.418 . S
Tb184 O204 2.384 . S
Tb184 O207 2.479 . S
Tb184 O208 2.471 . S
Eu185 O196 2.418 . S
Eu185 O197 2.384 . S
Eu185 O200 2.479 . S
Eu185 O201 2.471 . S
Eu185 O202 2.347 . S
Eu185 O205 2.366 . S
Eu185 C215 2.825 . S
C186 O202 1.259 . S
C186 O203 1.265 . S
C187 O204 1.255 . S
C187 O205 1.265 . S
C188 C190 1.381 . S
C188 C191 1.376 . S
C188 C194 1.503 1_554 S
C189 C190 1.384 . S
C189 C193 1.387 . S
C189 H216 0.930 . S
C190 C188 1.381 . S
C190 C189 1.384 . S
C190 H217 0.931 . S
C191 C188 1.376 . S
C191 C192 1.390 . S
C191 H218 0.930 . S
C192 C191 1.390 . S
C192 C193 1.391 . S
C192 H219 0.930 . S
C193 C189 1.387 . S
C193 C192 1.391 . S
C194 Tb184 2.825 . S
C194 C188 1.503 1_556 S
C194 O207 1.238 . S
C194 O208 1.247 . S
O195 Tb184 2.347 . S
O195 C199 1.259 . S
O196 Eu185 2.418 . S
O196 C199 1.265 . S
O197 Eu185 2.384 . S
O197 C206 1.255 . S
O198 Tb184 2.366 . S
O198 C206 1.265 . S
C199 O195 1.259 . S
C199 O196 1.265 . S
O200 Eu185 2.479 . S
O200 C215 1.238 . S
O201 Eu185 2.471 . S
O201 C215 1.247 . S
O202 Eu185 2.347 . S
O202 C186 1.259 . S
O203 Tb184 2.418 . S
O203 C186 1.265 . S
O204 Tb184 2.384 . S
O204 C187 1.255 . S
O205 Eu185 2.366 . S
O205 C187 1.265 . S
C206 O197 1.255 . S
C206 O198 1.265 . S
O207 Tb184 2.479 . S
O207 C194 1.238 . S
O208 Tb184 2.471 . S
O208 C194 1.247 . S
C209 C212 1.380 . S
C209 C213 1.374 . S
C209 C215 1.507 . S
C210 C211 1.387 . S
C210 C214 1.391 . S
C211 C210 1.387 . S
C211 C212 1.384 . S
C211 H220 0.930 . S
C212 C209 1.380 . S
C212 C211 1.384 . S
C212 H221 0.931 . S
C213 C209 1.374 . S
C213 C214 1.390 . S
C213 H222 0.930 . S
C214 C210 1.391 . S
C214 C213 1.390 . S
C214 H223 0.930 . S
C215 Eu185 2.825 . S
C215 O200 1.238 . S
C215 O201 1.247 . S
C215 C209 1.507 . S
H216 C189 0.930 . S
H217 C190 0.931 . S
H218 C191 0.930 . S
H219 C192 0.930 . S
H220 C211 0.930 . S
H221 C212 0.931 . S
H222 C213 0.930 . S
H223 C214 0.930 . S
Tb224 C234 2.825 . S
Tb224 O235 2.347 . S
Tb224 O238 2.366 . S
Tb224 O243 2.418 . S
Tb224 O244 2.384 1_655 S
Tb224 O247 2.479 . S
Tb224 O248 2.471 . S
Eu225 O236 2.418 . S
Eu225 O237 2.384 1_455 S
Eu225 O240 2.479 . S
Eu225 O241 2.471 . S
Eu225 O242 2.347 . S
Eu225 O245 2.366 . S
Eu225 C255 2.825 . S
C226 O242 1.259 1_655 S
C226 O243 1.265 . S
C227 O244 1.255 . S
C227 O245 1.265 . S
C228 C230 1.380 . S
C228 C231 1.374 . S
C228 C234 1.506 1_554 S
C229 C230 1.384 . S
C229 C233 1.387 . S
C229 H256 0.930 . S
C230 C228 1.380 . S
C230 C229 1.384 . S
C230 H257 0.931 . S
C231 C228 1.374 . S
C231 C232 1.390 . S
C231 H258 0.930 . S
C232 C231 1.390 . S
C232 C233 1.391 . S
C232 H259 0.930 . S
C233 C229 1.387 . S
C233 C232 1.391 . S
C234 Tb224 2.825 . S
C234 C228 1.506 1_556 S
C234 O247 1.238 . S
C234 O248 1.247 . S
O235 Tb224 2.347 . S
O235 C239 1.259 1_655 S
O236 Eu225 2.418 . S
O236 C239 1.265 . S
O237 Eu225 2.384 1_655 S
O237 C246 1.255 . S
O238 Tb224 2.366 . S
O238 C246 1.265 . S
C239 O235 1.259 1_455 S
C239 O236 1.265 . S
O240 Eu225 2.479 . S
O240 C255 1.238 . S
O241 Eu225 2.471 . S
O241 C255 1.247 . S
O242 Eu225 2.347 . S
O242 C226 1.259 1_455 S
O243 Tb224 2.418 . S
O243 C226 1.265 . S
O244 Tb224 2.384 1_455 S
O244 C227 1.255 . S
O245 Eu225 2.366 . S
O245 C227 1.265 . S
C246 O237 1.255 . S
C246 O238 1.265 . S
O247 Tb224 2.479 . S
O247 C234 1.238 . S
O248 Tb224 2.471 . S
O248 C234 1.247 . S
C249 C252 1.380 . S
C249 C253 1.374 . S
C249 C255 1.507 . S
C250 C251 1.387 . S
C250 C254 1.391 . S
C251 C250 1.387 . S
C251 C252 1.384 . S
C251 H260 0.930 . S
C252 C249 1.380 . S
C252 C251 1.384 . S
C252 H261 0.931 . S
C253 C249 1.374 . S
C253 C254 1.390 . S
C253 H262 0.930 . S
C254 C250 1.391 . S
C254 C253 1.390 . S
C254 H263 0.930 . S
C255 Eu225 2.825 . S
C255 O240 1.238 . S
C255 O241 1.247 . S
C255 C249 1.507 . S
H256 C229 0.930 . S
H257 C230 0.931 . S
H258 C231 0.930 . S
H259 C232 0.930 . S
H260 C251 0.930 . S
H261 C252 0.931 . S
H262 C253 0.930 . S
H263 C254 0.930 . S
H264 C272 0.950 . S
H265 C277 0.950 . S
H266 C274 0.950 . S
H267 C276 0.950 . S
H268 C278 0.950 . S
H269 C280 0.950 . S
H270 C282 0.950 . S
H271 C283 0.950 . S
C272 H264 0.950 . S
C272 C273 1.397 . S
C272 C274 1.391 . S
C273 C272 1.397 . S
C273 C277 1.384 1_545 S
C274 H266 0.950 . S
C274 C272 1.391 . S
C274 C275 1.407 . S
C275 C274 1.407 . S
C275 C276 1.393 1_545 S
C275 C281 1.490 1_545 S
C276 H267 0.950 . S
C276 C275 1.393 1_565 S
C276 C277 1.391 . S
C277 H265 0.950 . S
C277 C273 1.384 1_565 S
C277 C276 1.391 . S
C278 H268 0.950 . S
C278 C279 1.390 . S
C278 C280 1.391 . S
C279 C278 1.390 . S
C279 C283 1.389 1_565 S
C280 H269 0.950 . S
C280 C278 1.391 . S
C280 C281 1.401 . S
C281 C275 1.490 1_565 S
C281 C280 1.401 . S
C281 C282 1.398 1_565 S
C282 H270 0.950 . S
C282 C281 1.398 1_545 S
C282 C283 1.391 . S
C283 H271 0.950 . S
C283 C279 1.389 1_545 S
C283 C282 1.391 . S
H284 C292 0.950 . S
H285 C297 0.950 . S
H286 C294 0.950 . S
H287 C296 0.950 . S
H288 C298 0.950 . S
H289 C300 0.950 . S
H290 C302 0.950 . S
H291 C303 0.950 . S
C292 H284 0.950 . S
C292 C293 1.386 . S
C292 C294 1.391 . S
C293 C292 1.386 . S
C293 C297 1.393 . S
C294 H286 0.950 . S
C294 C292 1.391 . S
C294 C295 1.400 . S
C295 C294 1.400 . S
C295 C296 1.398 . S
C295 C301 1.491 . S
C296 H287 0.950 . S
C296 C295 1.398 . S
C296 C297 1.391 . S
C297 H285 0.950 . S
C297 C293 1.393 . S
C297 C296 1.391 . S
C298 H288 0.950 . S
C298 C299 1.386 . S
C298 C300 1.391 . S
C299 C298 1.386 . S
C299 C303 1.393 . S
C300 H289 0.950 . S
C300 C298 1.391 . S
C300 C301 1.400 . S
C301 C295 1.491 . S
C301 C300 1.400 . S
C301 C302 1.398 . S
C302 H290 0.950 . S
C302 C301 1.398 . S
C302 C303 1.391 . S
C303 H291 0.950 . S
C303 C299 1.393 . S
C303 C302 1.391 . S
H304 C312 0.950 . S
H305 C317 0.950 . S
H306 C314 0.950 . S
H307 C316 0.950 . S
H308 C318 0.950 . S
H309 C320 0.950 . S
H310 C322 0.950 . S
H311 C323 0.950 . S
C312 H304 0.950 . S
C312 C313 1.386 . S
C312 C314 1.391 . S
C313 C312 1.386 . S
C313 C317 1.393 . S
C314 H306 0.950 . S
C314 C312 1.391 . S
C314 C315 1.400 . S
C315 C314 1.400 . S
C315 C316 1.398 . S
C315 C321 1.491 . S
C316 H307 0.950 . S
C316 C315 1.398 . S
C316 C317 1.391 . S
C317 H305 0.950 . S
C317 C313 1.393 . S
C317 C316 1.391 . S
C318 H308 0.950 . S
C318 C319 1.386 . S
C318 C320 1.391 . S
C319 C318 1.386 . S
C319 C323 1.393 . S
C320 H309 0.950 . S
C320 C318 1.391 . S
C320 C321 1.400 . S
C321 C315 1.491 . S
C321 C320 1.400 . S
C321 C322 1.398 . S
C322 H310 0.950 . S
C322 C321 1.398 . S
C322 C323 1.391 . S
C323 H311 0.950 . S
C323 C319 1.393 . S
C323 C322 1.391 . S
H324 C332 0.950 . S
H325 C337 0.950 . S
H326 C334 0.950 . S
H327 C336 0.950 . S
H328 C338 0.950 . S
H329 C340 0.950 . S
H330 C342 0.950 . S
H331 C343 0.950 . S
C332 H324 0.950 . S
C332 C333 1.359 1_655 S
C332 C334 1.391 . S
C333 C332 1.359 1_455 S
C333 C337 1.421 . S
C334 H326 0.950 . S
C334 C332 1.391 . S
C334 C335 1.376 1_655 S
C335 C334 1.376 1_455 S
C335 C336 1.424 . S
C335 C341 1.490 . S
C336 H327 0.950 . S
C336 C335 1.424 . S
C336 C337 1.391 . S
C337 H325 0.950 . S
C337 C333 1.421 . S
C337 C336 1.391 . S
C338 H328 0.950 . S
C338 C339 1.389 . S
C338 C340 1.391 . S
C339 C338 1.389 . S
C339 C343 1.389 1_455 S
C340 H329 0.950 . S
C340 C338 1.391 . S
C340 C341 1.406 . S
C341 C335 1.490 . S
C341 C340 1.406 . S
C341 C342 1.392 1_455 S
C342 H330 0.950 . S
C342 C341 1.392 1_655 S
C342 C343 1.391 . S
C343 H331 0.950 . S
C343 C339 1.389 1_655 S
C343 C342 1.391 . S
H344 C352 0.950 . S
H345 C357 0.950 . S
H346 C354 0.950 . S
H347 C356 0.952 . S
H348 C358 0.950 . S
H349 C360 0.950 . S
H350 C362 0.952 . S
H351 C363 0.950 . S
C352 H344 0.950 . S
C352 C353 1.390 . S
C352 C354 1.391 . S
C353 C352 1.390 . S
C353 C357 1.391 1_565 S
C354 H346 0.950 . S
C354 C352 1.391 . S
C354 C355 1.402 . S
C355 C354 1.402 . S
C355 C356 1.397 1_565 S
C355 C361 1.490 1_565 S
C356 H347 0.952 . S
C356 C355 1.397 1_545 S
C356 C357 1.392 . S
C357 H345 0.950 . S
C357 C353 1.391 1_545 S
C357 C356 1.392 . S
C358 H348 0.950 . S
C358 C359 1.389 . S
C358 C360 1.391 . S
C359 C358 1.389 . S
C359 C363 1.391 1_546 S
C360 H349 0.950 . S
C360 C358 1.391 . S
C360 C361 1.402 1_556 S
C361 C355 1.490 1_545 S
C361 C360 1.402 1_554 S
C361 C362 1.397 1_545 S
C362 H350 0.952 . S
C362 C361 1.397 1_565 S
C362 C363 1.392 . S
C363 H351 0.950 . S
C363 C359 1.391 1_564 S
C363 C362 1.392 . S
H364 C372 0.950 . S
H365 C377 0.950 . S
H366 C374 0.950 . S
H367 C376 0.950 . S
H368 C378 0.950 . S
H369 C380 0.950 . S
H370 C382 0.950 . S
H371 C383 0.950 . S
C372 H364 0.950 . S
C372 C373 1.386 . S
C372 C374 1.391 . S
C373 C372 1.386 . S
C373 C377 1.393 . S
C374 H366 0.950 . S
C374 C372 1.391 . S
C374 C375 1.400 . S
C375 C374 1.400 . S
C375 C376 1.398 . S
C375 C381 1.491 . S
C376 H367 0.950 . S
C376 C375 1.398 . S
C376 C377 1.391 . S
C377 H365 0.950 . S
C377 C373 1.393 . S
C377 C376 1.391 . S
C378 H368 0.950 . S
C378 C379 1.386 1_554 S
C378 C380 1.391 . S
C379 C378 1.386 1_556 S
C379 C383 1.393 . S
C380 H369 0.950 . S
C380 C378 1.391 . S
C380 C381 1.400 . S
C381 C375 1.491 . S
C381 C380 1.400 . S
C381 C382 1.398 1_554 S
C382 H370 0.950 . S
C382 C381 1.398 1_556 S
C382 C383 1.391 . S
C383 H371 0.950 . S
C383 C379 1.393 . S
C383 C382 1.391 . S
H384 C392 0.950 . S
H385 C397 0.950 . S
H386 C394 0.950 . S
H387 C396 0.950 . S
H388 C398 0.950 . S
H389 C400 0.950 . S
H390 C402 0.950 . S
H391 C403 0.950 . S
C392 H384 0.950 . S
C392 C393 1.386 . S
C392 C394 1.391 . S
C393 C392 1.386 . S
C393 C397 1.393 . S
C394 H386 0.950 . S
C394 C392 1.391 . S
C394 C395 1.400 . S
C395 C394 1.400 . S
C395 C396 1.398 . S
C395 C401 1.491 . S
C396 H387 0.950 . S
C396 C395 1.398 . S
C396 C397 1.391 . S
C397 H385 0.950 . S
C397 C393 1.393 . S
C397 C396 1.391 . S
C398 H388 0.950 . S
C398 C399 1.386 . S
C398 C400 1.391 1_556 S
C399 C398 1.386 . S
C399 C403 1.393 . S
C400 H389 0.950 . S
C400 C398 1.391 1_554 S
C400 C401 1.400 . S
C401 C395 1.491 . S
C401 C400 1.400 . S
C401 C402 1.398 . S
C402 H390 0.950 . S
C402 C401 1.398 . S
C402 C403 1.391 1_554 S
C403 H391 0.950 . S
C403 C399 1.393 . S
C403 C402 1.391 1_556 S
H404 C412 0.950 . S
H405 C417 0.950 . S
H406 C414 0.950 . S
H407 C416 0.950 . S
H408 C418 0.950 . S
H409 C420 0.950 . S
H410 C422 0.950 . S
H411 C423 0.950 . S
C412 H404 0.950 . S
C412 C413 1.391 . S
C412 C414 1.391 . S
C413 C412 1.391 . S
C413 C417 1.388 1_655 S
C414 H406 0.950 . S
C414 C412 1.391 . S
C414 C415 1.419 . S
C415 C414 1.419 . S
C415 C416 1.380 1_655 S
C415 C421 1.491 . S
C416 H407 0.950 . S
C416 C415 1.380 1_455 S
C416 C417 1.391 . S
C417 H405 0.950 . S
C417 C413 1.388 1_455 S
C417 C416 1.391 . S
C418 H408 0.950 . S
C418 C419 1.347 1_455 S
C418 C420 1.391 1_556 S
C419 C418 1.347 1_655 S
C419 C423 1.431 . S
C420 H409 0.950 . S
C420 C418 1.391 1_554 S
C420 C421 1.376 1_455 S
C421 C415 1.491 . S
C421 C420 1.376 1_655 S
C421 C422 1.423 . S
C422 H410 0.950 . S
C422 C421 1.423 . S
C422 C423 1.391 1_554 S
C423 H411 0.950 . S
C423 C419 1.431 . S
C423 C422 1.391 1_556 S
H424 C432 0.950 . S
H425 C437 0.950 . S
H426 C434 0.950 . S
H427 C436 0.950 . S
H428 C438 0.950 . S
H429 C440 0.950 . S
H430 C442 0.965 . S
H431 C443 0.950 1_455 S
C432 H424 0.950 . S
C432 C433 1.386 . S
C432 C434 1.391 . S
C433 C432 1.386 . S
C433 C437 1.393 1_455 S
C434 H426 0.950 . S
C434 C432 1.391 . S
C434 C435 1.400 1_455 S
C435 C434 1.400 1_655 S
C435 C436 1.398 . S
C435 C441 1.491 . S
C436 H427 0.950 . S
C436 C435 1.398 . S
C436 C437 1.391 . S
C437 H425 0.950 . S
C437 C433 1.393 1_655 S
C437 C436 1.391 . S
C438 H428 0.950 . S
C438 C439 1.386 . S
C438 C440 1.391 . S
C439 C438 1.386 . S
C439 C443 1.393 . S
C440 H429 0.950 . S
C440 C438 1.391 . S
C440 C441 1.400 . S
C441 C435 1.491 . S
C441 C440 1.400 . S
C441 C442 1.387 1_655 S
C442 H430 0.965 . S
C442 C441 1.387 1_455 S
C442 C443 1.387 1_455 S
C443 H431 0.950 1_655 S
C443 C439 1.393 . S
C443 C442 1.387 1_655 S
H444 C452 0.950 . S
H445 C457 0.950 . S
H446 C454 0.950 . S
H447 C456 0.950 . S
H448 C458 0.950 1_545 S
H449 C460 0.950 1_545 S
H450 C462 0.950 . S
H451 C463 0.950 . S
C452 H444 0.950 . S
C452 C453 1.386 1_565 S
C452 C454 1.391 . S
C453 C452 1.386 1_545 S
C453 C457 1.393 . S
C454 H446 0.950 . S
C454 C452 1.391 . S
C454 C455 1.400 . S
C455 C454 1.400 . S
C455 C456 1.398 1_565 S
C455 C461 1.491 . S
C456 H447 0.950 . S
C456 C455 1.398 1_545 S
C456 C457 1.391 . S
C457 H445 0.950 . S
C457 C453 1.393 . S
C457 C456 1.391 . S
C458 H448 0.950 1_565 S
C458 C459 1.386 . S
C458 C460 1.391 . S
C459 C458 1.386 . S
C459 C463 1.393 . S
C460 H449 0.950 1_565 S
C460 C458 1.391 . S
C460 C461 1.400 . S
C461 C455 1.491 . S
C461 C460 1.400 . S
C461 C462 1.398 . S
C462 H450 0.950 . S
C462 C461 1.398 . S
C462 C463 1.391 . S
C463 H451 0.950 . S
C463 C459 1.393 . S
C463 C462 1.391 . S
H464 C472 0.950 . S
H465 C477 0.950 . S
H466 C474 0.950 . S
H467 C476 0.950 . S
H468 C478 0.950 . S
H469 C480 0.950 . S
H470 C482 0.950 . S
H471 C483 0.950 . S
C472 H464 0.950 . S
C472 C473 1.386 . S
C472 C474 1.391 . S
C473 C472 1.386 . S
C473 C477 1.393 . S
C474 H466 0.950 . S
C474 C472 1.391 . S
C474 C475 1.400 . S
C475 C474 1.400 . S
C475 C476 1.398 . S
C475 C481 1.491 . S
C476 H467 0.950 . S
C476 C475 1.398 . S
C476 C477 1.391 . S
C477 H465 0.950 . S
C477 C473 1.393 . S
C477 C476 1.391 . S
C478 H468 0.950 . S
C478 C479 1.386 . S
C478 C480 1.391 . S
C479 C478 1.386 . S
C479 C483 1.393 . S
C480 H469 0.950 . S
C480 C478 1.391 . S
C480 C481 1.400 . S
C481 C475 1.491 . S
C481 C480 1.400 . S
C481 C482 1.398 . S
C482 H470 0.950 . S
C482 C481 1.398 . S
C482 C483 1.391 . S
C483 H471 0.950 . S
C483 C479 1.393 . S
C483 C482 1.391 . S
H484 C492 0.950 . S
H485 C497 0.950 . S
H486 C494 0.950 . S
H487 C496 0.950 . S
H488 C498 0.950 . S
H489 C500 0.950 . S
H490 C502 0.950 . S
H491 C503 0.950 . S
C492 H484 0.950 . S
C492 C493 1.386 . S
C492 C494 1.391 . S
C493 C492 1.386 . S
C493 C497 1.393 . S
C494 H486 0.950 . S
C494 C492 1.391 . S
C494 C495 1.400 . S
C495 C494 1.400 . S
C495 C496 1.398 . S
C495 C501 1.491 . S
C496 H487 0.950 . S
C496 C495 1.398 . S
C496 C497 1.391 . S
C497 H485 0.950 . S
C497 C493 1.393 . S
C497 C496 1.391 . S
C498 H488 0.950 . S
C498 C499 1.386 . S
C498 C500 1.391 . S
C499 C498 1.386 . S
C499 C503 1.393 . S
C500 H489 0.950 . S
C500 C498 1.391 . S
C500 C501 1.400 . S
C501 C495 1.491 . S
C501 C500 1.400 . S
C501 C502 1.398 . S
C502 H490 0.950 . S
C502 C501 1.398 . S
C502 C503 1.391 . S
C503 H491 0.950 . S
C503 C499 1.393 . S
C503 C502 1.391 . S
H504 C512 0.950 . S
H505 C517 0.950 . S
H506 C514 0.950 . S
H507 C516 0.950 . S
H508 C518 0.950 . S
H509 C520 0.950 . S
H510 C522 0.950 1_655 S
H511 C523 0.950 1_655 S
C512 H504 0.950 . S
C512 C513 1.386 . S
C512 C514 1.391 . S
C513 C512 1.386 . S
C513 C517 1.393 1_655 S
C514 H506 0.950 . S
C514 C512 1.391 . S
C514 C515 1.400 1_655 S
C515 C514 1.400 1_455 S
C515 C516 1.398 . S
C515 C521 1.491 . S
C516 H507 0.950 . S
C516 C515 1.398 . S
C516 C517 1.391 . S
C517 H505 0.950 . S
C517 C513 1.393 1_455 S
C517 C516 1.391 . S
C518 H508 0.950 . S
C518 C519 1.386 . S
C518 C520 1.391 . S
C519 C518 1.386 . S
C519 C523 1.393 . S
C520 H509 0.950 . S
C520 C518 1.391 . S
C520 C521 1.400 . S
C521 C515 1.491 . S
C521 C520 1.400 . S
C521 C522 1.398 . S
C522 H510 0.950 1_455 S
C522 C521 1.398 . S
C522 C523 1.391 . S
C523 H511 0.950 1_455 S
C523 C519 1.393 . S
C523 C522 1.391 . S
H524 C532 0.950 . S
H525 C537 0.950 . S
H526 C534 0.950 . S
H527 C536 0.950 . S
H528 C538 0.950 1_565 S
H529 C540 0.979 . S
H530 C542 0.950 . S
H531 C543 0.950 . S
C532 H524 0.950 . S
C532 C533 1.386 1_545 S
C532 C534 1.391 . S
C533 C532 1.386 1_565 S
C533 C537 1.393 . S
C534 H526 0.950 . S
C534 C532 1.391 . S
C534 C535 1.400 . S
C535 C534 1.400 . S
C535 C536 1.398 1_545 S
C535 C541 1.491 . S
C536 H527 0.950 . S
C536 C535 1.398 1_565 S
C536 C537 1.391 . S
C537 H525 0.950 . S
C537 C533 1.393 . S
C537 C536 1.391 . S
C538 H528 0.950 1_545 S
C538 C539 1.386 . S
C538 C540 1.384 1_545 S
C539 C538 1.386 . S
C539 C543 1.393 . S
C540 H529 0.979 . S
C540 C538 1.384 1_565 S
C540 C541 1.379 1_565 S
C541 C535 1.491 . S
C541 C540 1.379 1_545 S
C541 C542 1.398 . S
C542 H530 0.950 . S
C542 C541 1.398 . S
C542 C543 1.391 . S
C543 H531 0.950 . S
C543 C539 1.393 . S
C543 C542 1.391 . S
H544 C552 0.950 . S
H545 C557 0.950 . S
H546 C554 0.950 . S
H547 C556 0.950 . S
H548 C558 0.950 . S
H549 C560 0.950 . S
H550 C562 0.950 . S
H551 C563 0.950 . S
C552 H544 0.950 . S
C552 C553 1.386 . S
C552 C554 1.391 . S
C553 C552 1.386 . S
C553 C557 1.393 . S
C554 H546 0.950 . S
C554 C552 1.391 . S
C554 C555 1.400 . S
C555 C554 1.400 . S
C555 C556 1.398 . S
C555 C561 1.491 . S
C556 H547 0.950 . S
C556 C555 1.398 . S
C556 C557 1.391 . S
C557 H545 0.950 . S
C557 C553 1.393 . S
C557 C556 1.391 . S
C558 H548 0.950 . S
C558 C559 1.386 . S
C558 C560 1.391 . S
C559 C558 1.386 . S
C559 C563 1.393 . S
C560 H549 0.950 . S
C560 C558 1.391 . S
C560 C561 1.400 . S
C561 C555 1.491 . S
C561 C560 1.400 . S
C561 C562 1.398 . S
C562 H550 0.950 . S
C562 C561 1.398 . S
C562 C563 1.391 . S
C563 H551 0.950 . S
C563 C559 1.393 . S
C563 C562 1.391 . S
H564 C572 0.950 . S
H565 C577 0.950 . S
H566 C574 0.950 . S
H567 C576 0.950 . S
H568 C578 0.950 . S
H569 C580 0.950 . S
H570 C582 0.950 . S
H571 C583 0.950 . S
C572 H564 0.950 . S
C572 C573 1.386 . S
C572 C574 1.391 . S
C573 C572 1.386 . S
C573 C577 1.393 . S
C574 H566 0.950 . S
C574 C572 1.391 . S
C574 C575 1.400 . S
C575 C574 1.400 . S
C575 C576 1.398 . S
C575 C581 1.491 . S
C576 H567 0.950 . S
C576 C575 1.398 . S
C576 C577 1.391 . S
C577 H565 0.950 . S
C577 C573 1.393 . S
C577 C576 1.391 . S
C578 H568 0.950 . S
C578 C579 1.386 . S
C578 C580 1.391 . S
C579 C578 1.386 . S
C579 C583 1.393 . S
C580 H569 0.950 . S
C580 C578 1.391 . S
C580 C581 1.400 . S
C581 C575 1.491 . S
C581 C580 1.400 . S
C581 C582 1.398 . S
C582 H570 0.950 . S
C582 C581 1.398 . S
C582 C583 1.391 . S
C583 H571 0.950 . S
C583 C579 1.393 . S
C583 C582 1.391 . S
H584 C592 0.950 . S
H585 C597 0.950 . S
H586 C594 0.950 . S
H587 C596 0.950 . S
H588 C598 0.950 . S
H589 C600 0.950 . S
H590 C602 0.950 . S
H591 C603 0.950 . S
C592 H584 0.950 . S
C592 C593 1.386 1_655 S
C592 C594 1.391 . S
C593 C592 1.386 1_455 S
C593 C597 1.393 . S
C594 H586 0.950 . S
C594 C592 1.391 . S
C594 C595 1.400 1_655 S
C595 C594 1.400 1_455 S
C595 C596 1.398 . S
C595 C601 1.491 . S
C596 H587 0.950 . S
C596 C595 1.398 . S
C596 C597 1.391 . S
C597 H585 0.950 . S
C597 C593 1.393 . S
C597 C596 1.391 . S
C598 H588 0.950 . S
C598 C599 1.386 . S
C598 C600 1.391 . S
C599 C598 1.386 . S
C599 C603 1.393 1_455 S
C600 H589 0.950 . S
C600 C598 1.391 . S
C600 C601 1.400 . S
C601 C595 1.491 . S
C601 C600 1.400 . S
C601 C602 1.398 1_455 S
C602 H590 0.950 . S
C602 C601 1.398 1_655 S
C602 C603 1.391 . S
C603 H591 0.950 . S
C603 C599 1.393 1_655 S
C603 C602 1.391 . S
H604 C612 0.950 . S
H605 C617 0.950 . S
H606 C614 0.950 . S
H607 C616 0.950 . S
H608 C618 0.950 . S
H609 C620 0.950 . S
H610 C622 0.950 . S
H611 C623 0.950 . S
C612 H604 0.950 . S
C612 C613 1.386 . S
C612 C614 1.391 . S
C613 C612 1.386 . S
C613 C617 1.393 1_545 S
C614 H606 0.950 . S
C614 C612 1.391 . S
C614 C615 1.400 . S
C615 C614 1.400 . S
C615 C616 1.398 1_545 S
C615 C621 1.491 . S
C616 H607 0.950 . S
C616 C615 1.398 1_565 S
C616 C617 1.391 . S
C617 H605 0.950 . S
C617 C613 1.393 1_565 S
C617 C616 1.391 . S
C618 H608 0.950 . S
C618 C619 1.386 1_565 S
C618 C620 1.391 . S
C619 C618 1.386 1_545 S
C619 C623 1.393 . S
C620 H609 0.950 . S
C620 C618 1.391 . S
C620 C621 1.400 1_565 S
C621 C615 1.491 . S
C621 C620 1.400 1_545 S
C621 C622 1.398 . S
C622 H610 0.950 . S
C622 C621 1.398 . S
C622 C623 1.391 . S
C623 H611 0.950 . S
C623 C619 1.393 . S
C623 C622 1.391 . S
H624 C632 0.950 . S
H625 C637 0.950 . S
H626 C634 0.950 . S
H627 C636 0.950 . S
H628 C638 0.950 . S
H629 C640 0.950 . S
H630 C642 0.950 . S
H631 C643 0.950 . S
C632 H624 0.950 . S
C632 C633 1.386 . S
C632 C634 1.391 . S
C633 C632 1.386 . S
C633 C637 1.393 . S
C634 H626 0.950 . S
C634 C632 1.391 . S
C634 C635 1.400 . S
C635 C634 1.400 . S
C635 C636 1.398 . S
C635 C641 1.491 . S
C636 H627 0.950 . S
C636 C635 1.398 . S
C636 C637 1.391 . S
C637 H625 0.950 . S
C637 C633 1.393 . S
C637 C636 1.391 . S
C638 H628 0.950 . S
C638 C639 1.386 . S
C638 C640 1.391 . S
C639 C638 1.386 . S
C639 C643 1.393 . S
C640 H629 0.950 . S
C640 C638 1.391 . S
C640 C641 1.400 . S
C641 C635 1.491 . S
C641 C640 1.400 . S
C641 C642 1.398 . S
C642 H630 0.950 . S
C642 C641 1.398 . S
C642 C643 1.391 . S
C643 H631 0.950 . S
C643 C639 1.393 . S
C643 C642 1.391 . S
H644 C652 0.950 . S
H645 C657 0.950 . S
H646 C654 0.950 . S
H647 C656 0.950 . S
H648 C658 0.950 . S
H649 C660 0.950 . S
H650 C662 0.950 . S
H651 C663 0.950 . S
C652 H644 0.950 . S
C652 C653 1.386 . S
C652 C654 1.391 . S
C653 C652 1.386 . S
C653 C657 1.393 . S
C654 H646 0.950 . S
C654 C652 1.391 . S
C654 C655 1.400 . S
C655 C654 1.400 . S
C655 C656 1.398 . S
C655 C661 1.491 . S
C656 H647 0.950 . S
C656 C655 1.398 . S
C656 C657 1.391 . S
C657 H645 0.950 . S
C657 C653 1.393 . S
C657 C656 1.391 . S
C658 H648 0.950 . S
C658 C659 1.386 . S
C658 C660 1.391 . S
C659 C658 1.386 . S
C659 C663 1.393 . S
C660 H649 0.950 . S
C660 C658 1.391 . S
C660 C661 1.400 . S
C661 C655 1.491 . S
C661 C660 1.400 . S
C661 C662 1.398 . S
C662 H650 0.950 . S
C662 C661 1.398 . S
C662 C663 1.391 . S
C663 H651 0.950 . S
C663 C659 1.393 . S
C663 C662 1.391 . S
H664 C672 0.950 . S
H665 C677 0.950 . S
H666 C674 0.950 . S
H667 C676 0.950 . S
H668 C678 0.950 . S
H669 C680 0.950 . S
H670 C682 0.950 . S
H671 C683 0.950 . S
C672 H664 0.950 . S
C672 C673 1.386 1_455 S
C672 C674 1.391 . S
C673 C672 1.386 1_655 S
C673 C677 1.393 . S
C674 H666 0.950 . S
C674 C672 1.391 . S
C674 C675 1.400 1_455 S
C675 C674 1.400 1_655 S
C675 C676 1.398 . S
C675 C681 1.491 . S
C676 H667 0.950 . S
C676 C675 1.398 . S
C676 C677 1.391 . S
C677 H665 0.950 . S
C677 C673 1.393 . S
C677 C676 1.391 . S
C678 H668 0.950 . S
C678 C679 1.386 . S
C678 C680 1.391 . S
C679 C678 1.386 . S
C679 C683 1.393 1_655 S
C680 H669 0.950 . S
C680 C678 1.391 . S
C680 C681 1.400 . S
C681 C675 1.491 . S
C681 C680 1.400 . S
C681 C682 1.398 1_655 S
C682 H670 0.950 . S
C682 C681 1.398 1_455 S
C682 C683 1.391 . S
C683 H671 0.950 . S
C683 C679 1.393 1_455 S
C683 C682 1.391 . S
H684 C692 0.950 . S
H685 C697 0.950 . S
H686 C694 0.950 . S
H687 C696 0.950 . S
H688 C698 0.950 . S
H689 C700 0.950 . S
H690 C702 0.950 . S
H691 C703 0.950 . S
C692 H684 0.950 . S
C692 C693 1.426 . S
C692 C694 1.391 . S
C693 C692 1.426 . S
C693 C697 1.355 1_565 S
C694 H686 0.950 . S
C694 C692 1.391 . S
C694 C695 1.400 . S
C695 C694 1.400 . S
C695 C696 1.398 1_565 S
C695 C701 1.491 . S
C696 H687 0.950 . S
C696 C695 1.398 1_545 S
C696 C697 1.391 . S
C697 H685 0.950 . S
C697 C693 1.355 1_545 S
C697 C696 1.391 . S
C698 H688 0.950 . S
C698 C699 1.386 1_545 S
C698 C700 1.391 . S
C699 C698 1.386 1_565 S
C699 C703 1.393 . S
C700 H689 0.950 . S
C700 C698 1.391 . S
C700 C701 1.400 1_545 S
C701 C695 1.491 . S
C701 C700 1.400 1_565 S
C701 C702 1.398 . S
C702 H690 0.950 . S
C702 C701 1.398 . S
C702 C703 1.391 . S
C703 H691 0.950 . S
C703 C699 1.393 . S
C703 C702 1.391 . S
H704 C712 0.950 . S
H705 C717 0.950 . S
H706 C714 0.950 . S
H707 C716 0.950 . S
H708 C718 0.950 . S
H709 C720 0.950 . S
H710 C722 0.950 . S
H711 C723 0.950 . S
C712 H704 0.950 . S
C712 C713 1.386 . S
C712 C714 1.391 . S
C713 C712 1.386 . S
C713 C717 1.393 . S
C714 H706 0.950 . S
C714 C712 1.391 . S
C714 C715 1.400 . S
C715 C714 1.400 . S
C715 C716 1.398 . S
C715 C721 1.491 . S
C716 H707 0.950 . S
C716 C715 1.398 . S
C716 C717 1.391 . S
C717 H705 0.950 . S
C717 C713 1.393 . S
C717 C716 1.391 . S
C718 H708 0.950 . S
C718 C719 1.386 . S
C718 C720 1.391 . S
C719 C718 1.386 . S
C719 C723 1.393 . S
C720 H709 0.950 . S
C720 C718 1.391 . S
C720 C721 1.400 . S
C721 C715 1.491 . S
C721 C720 1.400 . S
C721 C722 1.398 . S
C722 H710 0.950 . S
C722 C721 1.398 . S
C722 C723 1.391 . S
C723 H711 0.950 . S
C723 C719 1.393 . S
C723 C722 1.391 . S
H724 C732 0.950 . S
H725 C737 0.950 . S
H726 C734 0.950 . S
H727 C736 0.950 . S
H728 C738 0.950 . S
H729 C740 0.950 . S
H730 C742 0.950 . S
H731 C743 0.950 . S
C732 H724 0.950 . S
C732 C733 1.386 . S
C732 C734 1.391 . S
C733 C732 1.386 . S
C733 C737 1.393 . S
C734 H726 0.950 . S
C734 C732 1.391 . S
C734 C735 1.400 . S
C735 C734 1.400 . S
C735 C736 1.398 . S
C735 C741 1.491 . S
C736 H727 0.950 . S
C736 C735 1.398 . S
C736 C737 1.391 . S
C737 H725 0.950 . S
C737 C733 1.393 . S
C737 C736 1.391 . S
C738 H728 0.950 . S
C738 C739 1.386 . S
C738 C740 1.391 . S
C739 C738 1.386 . S
C739 C743 1.393 . S
C740 H729 0.950 . S
C740 C738 1.391 . S
C740 C741 1.400 . S
C741 C735 1.491 . S
C741 C740 1.400 . S
C741 C742 1.398 . S
C742 H730 0.950 . S
C742 C741 1.398 . S
C742 C743 1.391 . S
C743 H731 0.950 . S
C743 C739 1.393 . S
C743 C742 1.391 . S
C273 C82 1.686 . S
C279 C106 1.954 . S
C299 C146 1.972 . S
C293 C95 1.669 . S
C319 C186 1.974 . S
C313 C56 1.671 . S
C339 C226 1.963 1_455 S
C333 C69 1.675 . S
C359 C119 1.959 . S
C353 C30 1.680 1_565 S
C373 C43 1.686 . S
C379 C159 1.977 . S
C393 C4 1.716 . S
C399 C199 1.976 . S
C413 C17 1.668 1_655 S
C419 C239 1.965 1_655 S
C439 C130 0.452 . S
C433 C74 0.517 . S
C459 C170 0.470 . S
C453 C87 0.470 . S
C479 C210 0.464 . S
C473 C100 0.523 . S
C493 C61 0.465 . S
C499 C250 0.456 . S
C513 C22 0.474 1_655 S
C519 C113 0.479 . S
C539 C153 0.470 . S
C533 C35 0.533 1_565 S
C559 C193 0.463 . S
C553 C48 0.520 . S
C573 C9 0.529 . S
C579 C233 0.471 . S
C593 C73 2.056 . S
C599 C107 2.280 . S
C613 C86 2.000 . S
C619 C147 2.254 . S
C639 C187 2.245 . S
C633 C99 2.014 . S
C659 C227 2.274 . S
C653 C60 2.036 . S
C673 C21 2.032 1_655 S
C679 C126 2.285 . S
C699 C166 2.260 . S
C693 C34 2.028 1_565 S
C719 C206 2.241 . S
C713 C47 1.988 . S
C733 C8 2.015 . S
C739 C246 2.275 . S
