# Generated by pormake.
# Topology dag, (6,3)-cn, num edge types: 1
# Building blocks:
#     Node 0, Type 0, BuildingBlock: MIDCAF_clean_sbu_0, # of connection points: 6
#     Node 1, Type 0, BuildingBlock: MIDCAF_clean_sbu_0, # of connection points: 6
#     Node 2, Type 0, BuildingBlock: MIDCAF_clean_sbu_0, # of connection points: 6
#     Node 3, Type 0, BuildingBlock: MIDCAF_clean_sbu_0, # of connection points: 6
#     Node 4, Type 1, BuildingBlock: BETDIP_clean_linker_0, # of connection points: 3
#     Node 5, Type 1, BuildingBlock: BETDIP_clean_linker_0, # of connection points: 3
#     Node 6, Type 1, BuildingBlock: BETDIP_clean_linker_0, # of connection points: 3
#     Node 7, Type 1, BuildingBlock: BETDIP_clean_linker_0, # of connection points: 3
#     Node 8, Type 1, BuildingBlock: BETDIP_clean_linker_0, # of connection points: 3
#     Node 9, Type 1, BuildingBlock: BETDIP_clean_linker_0, # of connection points: 3
#     Node 10, Type 1, BuildingBlock: BETDIP_clean_linker_0, # of connection points: 3
#     Node 11, Type 1, BuildingBlock: BETDIP_clean_linker_0, # of connection points: 3
#     Edge 12, Type (0, 1), BuildingBlock: MIFKUJ_clean_linker_0, # of connection points: 2
#     Edge 13, Type (0, 1), BuildingBlock: MIFKUJ_clean_linker_0, # of connection points: 2
#     Edge 14, Type (0, 1), BuildingBlock: MIFKUJ_clean_linker_0, # of connection points: 2
#     Edge 15, Type (0, 1), BuildingBlock: MIFKUJ_clean_linker_0, # of connection points: 2
#     Edge 16, Type (0, 1), BuildingBlock: MIFKUJ_clean_linker_0, # of connection points: 2
#     Edge 17, Type (0, 1), BuildingBlock: MIFKUJ_clean_linker_0, # of connection points: 2
#     Edge 18, Type (0, 1), BuildingBlock: MIFKUJ_clean_linker_0, # of connection points: 2
#     Edge 19, Type (0, 1), BuildingBlock: MIFKUJ_clean_linker_0, # of connection points: 2
#     Edge 20, Type (0, 1), BuildingBlock: MIFKUJ_clean_linker_0, # of connection points: 2
#     Edge 21, Type (0, 1), BuildingBlock: MIFKUJ_clean_linker_0, # of connection points: 2
#     Edge 22, Type (0, 1), BuildingBlock: MIFKUJ_clean_linker_0, # of connection points: 2
#     Edge 23, Type (0, 1), BuildingBlock: MIFKUJ_clean_linker_0, # of connection points: 2
#     Edge 24, Type (0, 1), BuildingBlock: MIFKUJ_clean_linker_0, # of connection points: 2
#     Edge 25, Type (0, 1), BuildingBlock: MIFKUJ_clean_linker_0, # of connection points: 2
#     Edge 26, Type (0, 1), BuildingBlock: MIFKUJ_clean_linker_0, # of connection points: 2
#     Edge 27, Type (0, 1), BuildingBlock: MIFKUJ_clean_linker_0, # of connection points: 2
#     Edge 28, Type (0, 1), BuildingBlock: MIFKUJ_clean_linker_0, # of connection points: 2
#     Edge 29, Type (0, 1), BuildingBlock: MIFKUJ_clean_linker_0, # of connection points: 2
#     Edge 30, Type (0, 1), BuildingBlock: MIFKUJ_clean_linker_0, # of connection points: 2
#     Edge 31, Type (0, 1), BuildingBlock: MIFKUJ_clean_linker_0, # of connection points: 2
#     Edge 32, Type (0, 1), BuildingBlock: MIFKUJ_clean_linker_0, # of connection points: 2
#     Edge 33, Type (0, 1), BuildingBlock: MIFKUJ_clean_linker_0, # of connection points: 2
#     Edge 34, Type (0, 1), BuildingBlock: MIFKUJ_clean_linker_0, # of connection points: 2
#     Edge 35, Type (0, 1), BuildingBlock: MIFKUJ_clean_linker_0, # of connection points: 2
# Relax obj value: 0.132
# Max RMSD: 0.134
# Mean RMSD: 0.103
data_MOF--net-dag--node1-MIDCAF_clean_sbu_0--node2-BETDIP_clean_linker_0--edge1-MIFKUJ_clean_linker_0
_symmetry_space_group_name_H-M    P1
_symmetry_Int_Tables_number       1
_symmetry_cell_setting            triclinic
loop_
_symmetry_equiv_pos_as_xyz
'x, y, z'
_cell_length_a     53.91339
_cell_length_b     52.830493
_cell_length_c     41.66703
_cell_angle_alpha  87.778536
_cell_angle_beta   89.958586
_cell_angle_gamma 89.869828
loop_
_atom_site_label
_atom_site_type_symbol
_atom_site_fract_x
_atom_site_fract_y
_atom_site_fract_z
_atom_type_partial_charge
Zn0 Zn 0.12998 0.87041 0.09596 0.0
Zn1 Zn 0.11856 0.88253 0.95224 0.0
Zn2 Zn 0.12392 0.88076 0.00671 0.0
C3 C 0.13574 0.92806 0.95982 0.0
C4 C 0.07401 0.87043 0.97074 0.0
O5 O 0.15212 0.85208 0.01865 0.0
O6 O 0.15042 0.84456 0.07233 0.0
C7 C 0.14473 0.91002 0.06531 0.0
O8 O 0.12835 0.92032 0.98772 0.0
O9 O 0.13802 0.9123 0.93814 0.0
O10 O 0.08233 0.88512 0.94876 0.0
O11 O 0.08714 0.86583 0.99605 0.0
O12 O 0.1456 0.90566 0.09532 0.0
O13 O 0.13407 0.89386 0.04867 0.0
O14 O 0.08865 0.87089 0.03043 0.0
O15 O 0.09359 0.86913 0.08427 0.0
C16 C 0.08006 0.86862 0.05933 0.0
O17 O 0.15151 0.85578 0.98415 0.0
O18 O 0.13247 0.85058 0.93827 0.0
C19 C 0.15838 0.83946 0.04457 0.0
C20 C 0.15047 0.84554 0.95668 0.0
Zn21 Zn 0.65046 0.61532 0.44342 0.0
Zn22 Zn 0.60631 0.60671 0.58747 0.0
Zn23 Zn 0.62115 0.61276 0.53305 0.0
C24 C 0.61163 0.56102 0.57229 0.0
C25 C 0.59332 0.65375 0.56811 0.0
O26 O 0.63889 0.65097 0.52915 0.0
O27 O 0.646 0.63036 0.48682 0.0
C28 C 0.65686 0.58348 0.50685 0.0
O29 O 0.62793 0.57435 0.55676 0.0
O30 O 0.59325 0.57195 0.5843 0.0
O31 O 0.5833 0.63525 0.58307 0.0
O32 O 0.61347 0.65037 0.55238 0.0
O33 O 0.65192 0.60368 0.49081 0.0
O34 O 0.64736 0.58162 0.5348 0.0
O35 O 0.59865 0.61288 0.48802 0.0
O36 O 0.61317 0.61355 0.43682 0.0
C37 C 0.59528 0.61308 0.45722 0.0
O38 O 0.64149 0.64053 0.56021 0.0
O39 O 0.64177 0.61449 0.60291 0.0
C40 C 0.6466 0.65146 0.50008 0.0
C41 C 0.65153 0.63276 0.58685 0.0
Zn42 Zn 0.87171 0.10726 0.97277 0.0
Zn43 Zn 0.87259 0.12388 0.07665 0.0
Zn44 Zn 0.86887 0.11582 0.0256 0.0
C45 C 0.91924 0.12772 0.05651 0.0
C46 C 0.85301 0.07775 0.07813 0.0
O47 O 0.84343 0.14339 0.0023 0.0
O48 O 0.83415 0.11548 0.96654 0.0
C49 C 0.88822 0.1555 0.98214 0.0
O50 O 0.90902 0.11509 0.0345 0.0
O51 O 0.90576 0.13853 0.07654 0.0
O52 O 0.86896 0.08914 0.09426 0.0
O53 O 0.84743 0.08612 0.04975 0.0
O54 O 0.89601 0.1357 0.96931 0.0
O55 O 0.8699 0.15385 0.00204 0.0
O56 O 0.85348 0.07741 0.01356 0.0
O57 O 0.88283 0.07148 0.97824 0.0
C58 C 0.86575 0.06233 0.99582 0.0
O59 O 0.84986 0.1534 0.03328 0.0
O60 O 0.84565 0.14718 0.08567 0.0
C61 C 0.82819 0.13507 0.9814 0.0
C62 C 0.8412 0.16035 0.06053 0.0
Zn63 Zn 0.33051 0.36941 0.59127 0.0
Zn64 Zn 0.3694 0.34064 0.41501 0.0
Zn65 Zn 0.36985 0.37215 0.50513 0.0
C66 C 0.4142 0.35484 0.46783 0.0
C67 C 0.34342 0.38123 0.43718 0.0
O68 O 0.33663 0.34959 0.51917 0.0
O69 O 0.31671 0.37827 0.54543 0.0
C70 C 0.37039 0.3412 0.57254 0.0
O71 O 0.40799 0.36396 0.4947 0.0
O72 O 0.39738 0.34945 0.44782 0.0
O73 O 0.34376 0.37057 0.4104 0.0
O74 O 0.35448 0.36996 0.46032 0.0
O75 O 0.35728 0.3408 0.59787 0.0
O76 O 0.36261 0.35466 0.54891 0.0
O77 O 0.36429 0.41086 0.51695 0.0
O78 O 0.34472 0.3987 0.56127 0.0
C79 C 0.35336 0.4164 0.54302 0.0
O80 O 0.34648 0.34164 0.48652 0.0
O81 O 0.37491 0.32212 0.45967 0.0
C82 C 0.31609 0.3577 0.53095 0.0
C83 C 0.35389 0.32139 0.47311 0.0
H84 H 0.1665 0.17562 0.21079 0.0
H85 H 0.23226 0.12876 0.20966 0.0
H86 H 0.1647 0.1025 0.16913 0.0
H87 H 0.23519 0.14341 0.26005 0.0
C88 C 0.23197 0.16352 0.25523 0.0
C89 C 0.17575 0.1582 0.20476 0.0
C90 C 0.16292 0.13966 0.18812 0.0
C91 C 0.20054 0.15385 0.21413 0.0
C92 C 0.21273 0.13172 0.20474 0.0
C93 C 0.19968 0.1131 0.18912 0.0
C94 C 0.17474 0.11695 0.18145 0.0
N95 N 0.21285 0.17141 0.23355 0.0
H96 H 0.30698 0.66035 0.71165 0.0
H97 H 0.35642 0.72456 0.71433 0.0
H98 H 0.38042 0.65596 0.67245 0.0
H99 H 0.31574 0.74437 0.71341 0.0
C100 C 0.30928 0.73303 0.73406 0.0
C101 C 0.32505 0.6687 0.70717 0.0
C102 C 0.34299 0.65558 0.68992 0.0
C103 C 0.32999 0.69344 0.71683 0.0
C104 C 0.35277 0.70511 0.70855 0.0
C105 C 0.37067 0.6916 0.69196 0.0
C106 C 0.36627 0.66642 0.68501 0.0
N107 N 0.31175 0.70627 0.73456 0.0
H108 H 0.86518 0.81267 0.273 0.0
H109 H 0.8037 0.86073 0.29328 0.0
H110 H 0.87288 0.89413 0.26724 0.0
H111 H 0.82168 0.83145 0.35148 0.0
C112 C 0.81325 0.81718 0.33684 0.0
C113 C 0.85817 0.83168 0.2755 0.0
C114 C 0.87194 0.85316 0.26468 0.0
C115 C 0.83469 0.83497 0.28968 0.0
C116 C 0.82326 0.85889 0.28776 0.0
C117 C 0.83675 0.87982 0.27639 0.0
C118 C 0.86224 0.87704 0.27173 0.0
N119 N 0.82213 0.81439 0.30508 0.0
H120 H 0.57785 0.26398 0.7924 0.0
H121 H 0.63025 0.32572 0.78524 0.0
H122 H 0.56989 0.32119 0.71819 0.0
H123 H 0.60664 0.24378 0.81971 0.0
C124 C 0.62104 0.2564 0.82758 0.0
C125 C 0.58493 0.28098 0.78045 0.0
C126 C 0.57149 0.29183 0.75474 0.0
C127 C 0.60698 0.2927 0.79059 0.0
C128 C 0.61412 0.31613 0.77618 0.0
C129 C 0.6004 0.32713 0.75054 0.0
C130 C 0.58004 0.31387 0.73903 0.0
N131 N 0.62244 0.28179 0.8151 0.0
H132 H 0.66682 0.30678 0.32598 0.0
H133 H 0.72894 0.35741 0.3107 0.0
H134 H 0.66407 0.38288 0.35904 0.0
H135 H 0.74998 0.31937 0.30988 0.0
C136 C 0.73754 0.30943 0.2942 0.0
C137 C 0.67535 0.32513 0.32862 0.0
C138 C 0.66265 0.34416 0.34474 0.0
C139 C 0.69944 0.32953 0.31659 0.0
C140 C 0.71062 0.35337 0.32019 0.0
C141 C 0.69766 0.37251 0.33522 0.0
C142 C 0.67387 0.36783 0.34729 0.0
N143 N 0.71152 0.31019 0.29965 0.0
H144 H 0.07721 0.2212 0.7378 0.0
H145 H 0.13027 0.16015 0.74293 0.0
H146 H 0.05632 0.14923 0.77951 0.0
H147 H 0.15632 0.19465 0.73751 0.0
C148 C 0.1474 0.20742 0.72 0.0
C149 C 0.08132 0.20133 0.7428 0.0
C150 C 0.06457 0.18631 0.76052 0.0
C151 C 0.10465 0.19165 0.73478 0.0
C152 C 0.11157 0.16702 0.74628 0.0
C153 C 0.09433 0.15185 0.76374 0.0
C154 C 0.06998 0.16076 0.76663 0.0
N155 N 0.12117 0.20807 0.71752 0.0
H156 H 0.36109 0.67118 0.26858 0.0
H157 H 0.30782 0.61461 0.24188 0.0
H158 H 0.36761 0.59394 0.30431 0.0
H159 H 0.3021 0.63854 0.19957 0.0
C160 C 0.30419 0.65789 0.2069 0.0
C161 C 0.35464 0.65175 0.26929 0.0
C162 C 0.36652 0.63337 0.28935 0.0
C163 C 0.33388 0.64509 0.2508 0.0
C164 C 0.32481 0.62004 0.25346 0.0
C165 C 0.33738 0.6016 0.27197 0.0
C166 C 0.3583 0.60829 0.28932 0.0
N167 N 0.32176 0.66391 0.23095 0.0
H168 H 0.81054 0.82428 0.82073 0.0
H169 H 0.85161 0.75456 0.83437 0.0
H170 H 0.87237 0.81946 0.88615 0.0
H171 H 0.84417 0.7559 0.77902 0.0
C172 C 0.82419 0.75825 0.78105 0.0
C173 C 0.82505 0.81342 0.83288 0.0
C174 C 0.841 0.82513 0.85453 0.0
C175 C 0.82902 0.78805 0.82513 0.0
C176 C 0.84827 0.7741 0.84012 0.0
C177 C 0.86379 0.78542 0.86201 0.0
C178 C 0.85986 0.81068 0.86954 0.0
N179 N 0.81442 0.77705 0.80108 0.0
H180 H 0.19092 0.91291 0.04002 0.0
H181 H 0.21665 0.95099 0.04247 0.0
H182 H 0.1514 -0.00563 0.06569 0.0
H183 H 0.12603 0.95684 0.06177 0.0
H184 H 0.18308 0.02518 0.04638 0.0
H185 H 0.18361 0.95176 0.1222 0.0
H186 H 0.1924 0.90712 0.138 0.0
H187 H 0.26941 0.91818 0.1152 0.0
H188 H 0.26095 0.96279 0.09877 0.0
H189 H 0.18984 0.06443 0.20719 0.0
H190 H 0.19804 0.02801 0.17432 0.0
H191 H 0.24357 0.07477 0.11095 0.0
H192 H 0.23569 0.11116 0.1442 0.0
H193 H 0.23589 0.00051 0.14013 0.0
H194 H 0.20991 0.07652 0.04375 0.0
H195 H 0.18751 0.11739 0.03897 0.0
H196 H 0.14262 0.09571 0.12049 0.0
H197 H 0.16464 0.05477 0.12567 0.0
C198 C 0.18206 0.93103 0.04348 0.0
C199 C 0.1568 0.93231 0.05128 0.0
C200 C 0.19674 0.95269 0.04519 0.0
C201 C 0.18614 0.97521 0.05578 0.0
C202 C 0.16018 0.97716 0.058 0.0
C203 C 0.14556 0.95571 0.0558 0.0
C204 C 0.2012 -0.00579 0.07214 0.0
C205 C 0.19539 0.01983 0.06611 0.0
C206 C 0.21652 0.98718 0.09884 0.0
C207 C 0.2216 0.96042 0.10875 0.0
C208 C 0.20238 0.9446 0.1204 0.0
C209 C 0.2073 0.91932 0.12943 0.0
C210 C 0.23143 0.90979 0.12746 0.0
C211 C 0.25071 0.92555 0.11655 0.0
C212 C 0.24586 0.95081 0.10729 0.0
C213 C 0.20273 0.06647 0.1873 0.0
C214 C 0.21202 0.09037 0.17783 0.0
C215 C 0.2075 0.0457 0.16863 0.0
C216 C 0.22115 0.04894 0.14011 0.0
C217 C 0.23305 0.07205 0.13298 0.0
C218 C 0.22855 0.09275 0.15191 0.0
C219 C 0.21711 0.03101 0.11452 0.0
C220 C 0.22496 0.00589 0.11907 0.0
C221 C 0.20197 0.03802 0.08794 0.0
C222 C 0.18923 0.06288 0.08539 0.0
C223 C 0.19537 0.0806 0.06075 0.0
C224 C 0.18272 0.10374 0.05799 0.0
C225 C 0.16381 0.10922 0.07962 0.0
C226 C 0.15752 0.09159 0.10408 0.0
C227 C 0.17007 0.06845 0.10694 0.0
H228 H 0.15389 0.12702 0.07727 0.0
H229 H 0.23521 0.89022 0.13449 0.0
H230 H 0.55737 0.66131 0.52563 0.0
H231 H 0.51834 0.67901 0.54191 0.0
H232 H 0.555 0.71562 0.61976 0.0
H233 H 0.59381 0.69482 0.60546 0.0
H234 H 0.52218 0.68508 0.64262 0.0
H235 H 0.51247 0.74823 0.54422 0.0
H236 H 0.50773 0.75579 0.48554 0.0
H237 H 0.45657 0.69377 0.48206 0.0
H238 H 0.46079 0.68611 0.54056 0.0
H239 H 0.41103 0.71405 0.71971 0.0
H240 H 0.45127 0.72126 0.69301 0.0
H241 H 0.41905 0.69858 0.60347 0.0
H242 H 0.37906 0.69488 0.62895 0.0
H243 H 0.45052 0.7253 0.58655 0.0
H244 H 0.4516 0.65702 0.66248 0.0
H245 H 0.44729 0.63413 0.71487 0.0
H246 H 0.50646 0.67806 0.75319 0.0
H247 H 0.51087 0.70152 0.70111 0.0
C248 C 0.55741 0.67452 0.54492 0.0
C249 C 0.57843 0.67668 0.56438 0.0
C250 C 0.53485 0.68472 0.55439 0.0
C251 C 0.53342 0.6988 0.58225 0.0
C252 C 0.55553 0.70461 0.59836 0.0
C253 C 0.57789 0.69326 0.58979 0.0
C254 C 0.50917 0.70298 0.59826 0.0
C255 C 0.50665 0.69446 0.63057 0.0
C256 C 0.48802 0.71268 0.5819 0.0
C257 C 0.48686 0.71678 0.54664 0.0
C258 C 0.50029 0.73624 0.53086 0.0
C259 C 0.49754 0.74062 0.4977 0.0
C260 C 0.48154 0.72554 0.48022 0.0
C261 C 0.46863 0.7057 0.49568 0.0
C262 C 0.47113 0.70141 0.52879 0.0
C263 C 0.41254 0.712 0.69401 0.0
C264 C 0.39226 0.70367 0.6763 0.0
C265 C 0.43557 0.7155 0.67887 0.0
C266 C 0.4386 0.70956 0.64637 0.0
C267 C 0.41759 0.7034 0.62843 0.0
C268 C 0.39461 0.70118 0.64306 0.0
C269 C 0.46349 0.70784 0.63117 0.0
C270 C 0.46612 0.71647 0.59905 0.0
C271 C 0.48381 0.69548 0.64664 0.0
C272 C 0.4813 0.68135 0.67803 0.0
C273 C 0.46356 0.66196 0.68215 0.0
C274 C 0.46111 0.64886 0.71179 0.0
C275 C 0.47651 0.65473 0.7374 0.0
C276 C 0.49447 0.67362 0.73336 0.0
C277 C 0.49695 0.68684 0.7038 0.0
H278 H 0.47458 0.64458 0.76033 0.0
H279 H 0.47939 0.72903 0.45461 0.0
H280 H 0.87247 0.04211 0.11827 0.0
H281 H 0.84973 0.01325 0.15463 0.0
H282 H 0.78052 0.03926 0.11306 0.0
H283 H 0.80344 0.06829 0.07602 0.0
H284 H 0.80342 0.02808 0.19887 0.0
H285 H 0.77718 -0.00547 0.08746 0.0
H286 H 0.79929 -0.00338 0.0355 0.0
H287 H 0.86217 0.95907 0.0791 0.0
H288 H 0.84069 0.95728 0.13131 0.0
H289 H 0.7987 0.91202 0.29502 0.0
H290 H 0.7807 0.94739 0.26191 0.0
H291 H 0.83015 0.92911 0.18431 0.0
H292 H 0.84581 0.89365 0.21523 0.0
H293 H 0.79221 0.94189 0.15839 0.0
H294 H 0.8423 0.9745 0.24261 0.0
H295 H 0.85532 0.98459 0.29736 0.0
H296 H 0.78728 0.02526 0.31085 0.0
H297 H 0.77369 0.015 0.25626 0.0
C298 C 0.85242 0.0414 0.1166 0.0
C299 C 0.83959 0.05701 0.09428 0.0
C300 C 0.83949 0.02541 0.13776 0.0
C301 C 0.81354 0.02484 0.13697 0.0
C302 C 0.80057 0.03999 0.11425 0.0
C303 C 0.81361 0.05595 0.09272 0.0
C304 C 0.80094 0.00551 0.15727 0.0
C305 C 0.79978 0.0093 0.19029 0.0
C306 C 0.79795 0.98099 0.14569 0.0
C307 C 0.8072 0.97555 0.11316 0.0
C308 C 0.79543 0.98611 0.0857 0.0
C309 C 0.80808 0.98771 0.05638 0.0
C310 C 0.83225 0.97832 0.0542 0.0
C311 C 0.84353 0.96653 0.08096 0.0
C312 C 0.83106 0.96505 0.11033 0.0
C313 C 0.80526 0.91562 0.27071 0.0
C314 C 0.82438 0.90082 0.25816 0.0
C315 C 0.79505 0.93571 0.25185 0.0
C316 C 0.80404 0.94105 0.22052 0.0
C317 C 0.82245 0.92546 0.20806 0.0
C318 C 0.83201 0.90543 0.22626 0.0
C319 C 0.7967 0.96382 0.20077 0.0
C320 C 0.79362 0.96079 0.16754 0.0
C321 C 0.79932 0.98858 0.21231 0.0
C322 C 0.80665 -0.00664 0.24578 0.0
C323 C 0.8299 0.98517 0.2575 0.0
C324 C 0.83744 0.99101 0.28843 0.0
C325 C 0.82204 0.00538 0.30768 0.0
C326 C 0.79908 0.01393 0.29601 0.0
C327 C 0.79141 0.00804 0.26513 0.0
H328 H 0.82797 0.01003 0.33155 0.0
H329 H 0.84221 0.97984 0.03174 0.0
H330 H 0.41075 0.36934 0.58213 0.0
H331 H 0.44972 0.35352 0.60466 0.0
H332 H 0.42655 0.27681 0.58849 0.0
H333 H 0.38667 0.29285 0.56804 0.0
H334 H 0.43129 0.28304 0.64863 0.0
H335 H 0.48645 0.30533 0.55839 0.0
H336 H 0.50481 0.33379 0.51662 0.0
H337 H 0.52434 0.38682 0.58775 0.0
H338 H 0.5064 0.35854 0.63012 0.0
H339 H 0.56279 0.2543 0.71354 0.0
H340 H 0.52729 0.25482 0.67668 0.0
H341 H 0.49234 0.31245 0.73166 0.0
H342 H 0.52702 0.31107 0.76911 0.0
H343 H 0.51884 0.31132 0.64937 0.0
H344 H 0.44988 0.30052 0.73079 0.0
H345 H 0.43007 0.27673 0.77599 0.0
H346 H 0.43416 0.20844 0.72352 0.0
H347 H 0.45461 0.23185 0.67834 0.0
C348 C 0.41453 0.34917 0.58222 0.0
C349 C 0.39592 0.33215 0.57402 0.0
C350 C 0.43694 0.3401 0.5948 0.0
C351 C 0.44107 0.31389 0.59859 0.0
C352 C 0.42366 0.2971 0.58607 0.0
C353 C 0.40094 0.30617 0.57437 0.0
C354 C 0.45957 0.30421 0.62237 0.0
C355 C 0.45062 0.28873 0.64806 0.0
C356 C 0.48446 0.3127 0.62293 0.0
C357 C 0.49498 0.32983 0.59738 0.0
C358 C 0.49453 0.32312 0.5651 0.0
C359 C 0.50493 0.3392 0.54132 0.0
C360 C 0.5156 0.36217 0.54943 0.0
C361 C 0.51606 0.36904 0.58145 0.0
C362 C 0.50592 0.35291 0.60539 0.0
C363 C 0.54665 0.26561 0.719 0.0
C364 C 0.54733 0.28237 0.74427 0.0
C365 C 0.52659 0.2662 0.69773 0.0
C366 C 0.5072 0.28357 0.70163 0.0
C367 C 0.50672 0.2984 0.72876 0.0
C368 C 0.5265 0.29748 0.75028 0.0
C369 C 0.49047 0.28987 0.67455 0.0
C370 C 0.4997 0.30503 0.64885 0.0
C371 C 0.46561 0.28198 0.67434 0.0
C372 C 0.4544 0.26769 0.70176 0.0
C373 C 0.44707 0.28032 0.72927 0.0
C374 C 0.43561 0.26695 0.75477 0.0
C375 C 0.43105 0.24103 0.75275 0.0
C376 C 0.43791 0.22846 0.72518 0.0
C377 C 0.44953 0.24174 0.69969 0.0
H378 H 0.42205 0.23073 0.77244 0.0
H379 H 0.52358 0.37459 0.53093 0.0
H380 H 0.64982 0.57229 0.44512 0.0
H381 H 0.66606 0.53665 0.41697 0.0
H382 H 0.7008 0.50765 0.50414 0.0
H383 H 0.68479 0.54439 0.53286 0.0
H384 H 0.73056 0.51012 0.43823 0.0
H385 H 0.65659 0.47242 0.48977 0.0
H386 H 0.61349 0.47832 0.5082 0.0
H387 H 0.59124 0.49964 0.41194 0.0
H388 H 0.63415 0.4935 0.39293 0.0
H389 H 0.73453 0.38303 0.37665 0.0
H390 H 0.73764 0.42316 0.40389 0.0
H391 H 0.68651 0.45757 0.33552 0.0
H392 H 0.68344 0.41754 0.30836 0.0
H393 H 0.66771 0.45082 0.3976 0.0
H394 H 0.7384 0.48577 0.34409 0.0
H395 H 0.78107 0.4892 0.32316 0.0
H396 H 0.80991 0.48024 0.41897 0.0
H397 H 0.76738 0.47642 0.44047 0.0
C398 C 0.66148 0.55885 0.45823 0.0
C399 C 0.66672 0.56143 0.49088 0.0
C400 C 0.67053 0.53834 0.44216 0.0
C401 C 0.68474 0.51984 0.45851 0.0
C402 C 0.69002 0.52207 0.49124 0.0
C403 C 0.68081 0.5428 0.50754 0.0
C404 C 0.69262 0.49775 0.44081 0.0
C405 C 0.71717 0.49649 0.43004 0.0
C406 C 0.67467 0.48104 0.42925 0.0
C407 C 0.64848 0.48236 0.43994 0.0
C408 C 0.64241 0.47809 0.47252 0.0
C409 C 0.61805 0.48153 0.48307 0.0
C410 C 0.59965 0.4894 0.46126 0.0
C411 C 0.60552 0.49355 0.4288 0.0
C412 C 0.62979 0.48984 0.41807 0.0
C413 C 0.72525 0.39964 0.36632 0.0
C414 C 0.70862 0.39739 0.34072 0.0
C415 C 0.72691 0.42249 0.38196 0.0
C416 C 0.71193 0.44306 0.37197 0.0
C417 C 0.69809 0.44179 0.34359 0.0
C418 C 0.69648 0.41903 0.32797 0.0
C419 C 0.706 0.46285 0.39476 0.0
C420 C 0.68153 0.46376 0.40635 0.0
C421 C 0.7241 0.4793 0.40678 0.0
C422 C 0.7497 0.48036 0.39384 0.0
C423 C 0.75384 0.48408 0.36066 0.0
C424 C 0.77801 0.48624 0.3487 0.0
C425 C 0.7982 0.48482 0.36971 0.0
C426 C 0.79426 0.48125 0.40272 0.0
C427 C 0.77013 0.47908 0.4148 0.0
H428 H 0.81689 0.48659 0.36041 0.0
H429 H 0.58084 0.49222 0.4695 0.0
H430 H 0.87331 0.18868 0.93479 0.0
H431 H 0.90351 0.20831 0.89777 0.0
H432 H 0.96195 0.19053 0.96585 0.0
H433 H 0.93149 0.1728 0.0034 0.0
H434 H 0.97801 0.22561 0.93135 0.0
H435 H 0.94146 0.14775 0.90906 0.0
H436 H 0.91015 0.11531 0.89793 0.0
H437 H 0.88852 0.15701 0.81193 0.0
H438 H 0.91943 0.18995 0.82283 0.0
H439 H 0.07145 0.18848 0.82342 0.0
H440 H 0.04035 0.19479 0.86388 0.0
H441 H 0.98786 0.2183 0.79015 0.0
H442 H 0.01877 0.20849 0.74879 0.0
H443 H 0.96848 0.18467 0.82702 0.0
H444 H 0.01815 0.26039 0.8578 0.0
H445 H 0.05861 0.2782 0.87311 0.0
H446 H 0.06536 0.2218 0.94964 0.0
H447 H 0.02495 0.20382 0.93494 0.0
C448 C 0.8923 0.1908 0.94273 0.0
C449 C 0.9002 0.1792 0.97181 0.0
C450 C 0.90971 0.20137 0.92122 0.0
C451 C 0.93519 0.1998 0.92833 0.0
C452 C 0.9425 0.19173 0.95944 0.0
C453 C 0.92501 0.18184 0.98118 0.0
C454 C 0.95415 0.20302 0.90249 0.0
C455 C 0.97575 0.21688 0.9084 0.0
C456 C 0.95191 0.19074 0.87295 0.0
C457 C 0.93243 0.17161 0.86712 0.0
C458 C 0.92976 0.15022 0.88804 0.0
C459 C 0.91215 0.13169 0.88171 0.0
C460 C 0.89727 0.13416 0.85432 0.0
C461 C 0.89996 0.15518 0.83322 0.0
C462 C 0.91749 0.17382 0.8395 0.0
C463 C 0.05338 0.19553 0.81587 0.0
C464 C 0.04729 0.1978 0.78314 0.0
C465 C 0.03564 0.19965 0.83919 0.0
C466 C 0.01176 0.20787 0.83048 0.0
C467 C 0.00623 0.21216 0.79757 0.0
C468 C 0.02384 0.20684 0.77394 0.0
C469 C 0.99179 0.2083 0.85515 0.0
C470 C 0.97018 0.19448 0.84933 0.0
C471 C -0.00508 0.21901 0.88562 0.0
C472 C 0.01847 0.23093 0.89537 0.0
C473 C 0.0282 0.25196 0.87802 0.0
C474 C 0.05113 0.26204 0.88658 0.0
C475 C 0.06452 0.25117 0.91236 0.0
C476 C 0.05493 0.2303 0.9298 0.0
C477 C 0.03194 0.22028 0.92151 0.0
H478 H 0.08233 0.2589 0.91879 0.0
H479 H 0.88372 0.11974 0.84938 0.0
H480 H 0.37566 0.41945 0.43343 0.0
H481 H 0.36613 0.46198 0.41327 0.0
H482 H 0.28776 0.44636 0.42352 0.0
H483 H 0.29766 0.40267 0.44105 0.0
H484 H 0.29585 0.45548 0.36605 0.0
H485 H 0.32022 0.50543 0.4561 0.0
H486 H 0.34585 0.52092 0.5002 0.0
H487 H 0.40756 0.53119 0.43608 0.0
H488 H 0.38213 0.51648 0.39125 0.0
H489 H 0.29208 0.58879 0.29564 0.0
H490 H 0.28336 0.54928 0.32618 0.0
H491 H 0.35248 0.51795 0.29383 0.0
H492 H 0.36108 0.55717 0.2629 0.0
H493 H 0.34171 0.53658 0.36613 0.0
H494 H 0.32058 0.48133 0.27964 0.0
H495 H 0.29591 0.46818 0.23336 0.0
H496 H 0.22989 0.46787 0.29113 0.0
H497 H 0.25421 0.48127 0.33769 0.0
C498 C 0.35644 0.42554 0.43263 0.0
C499 C 0.33732 0.40805 0.43807 0.0
C500 C 0.35092 0.45007 0.42147 0.0
C501 C 0.32612 0.45753 0.41648 0.0
C502 C 0.30702 0.44096 0.42672 0.0
C503 C 0.3126 0.41608 0.4368 0.0
C504 C 0.32061 0.47878 0.39325 0.0
C505 C 0.3053 0.47354 0.36687 0.0
C506 C 0.33361 0.50206 0.3932 0.0
C507 C 0.3493 0.50965 0.42041 0.0
C508 C 0.33932 0.51074 0.45146 0.0
C509 C 0.35378 0.51949 0.47654 0.0
C510 C 0.37838 0.52673 0.47105 0.0
C511 C 0.38853 0.52548 0.44032 0.0
C512 C 0.37405 0.51714 0.41502 0.0
C513 C 0.3046 0.57288 0.29345 0.0
C514 C 0.32738 0.57593 0.27744 0.0
C515 C 0.29965 0.55041 0.31097 0.0
C516 C 0.3174 0.531 0.31229 0.0
C517 C 0.33855 0.53278 0.2928 0.0
C518 C 0.34343 0.55512 0.27518 0.0
C519 C 0.31745 0.51276 0.3397 0.0
C520 C 0.33174 0.51873 0.36639 0.0
C521 C 0.30381 0.49016 0.33998 0.0
C522 C 0.2891 0.48274 0.31191 0.0
C523 C 0.30074 0.47883 0.28232 0.0
C524 C 0.28685 0.4712 0.25609 0.0
C525 C 0.26132 0.46732 0.25925 0.0
C526 C 0.24965 0.47097 0.28868 0.0
C527 C 0.26348 0.47856 0.315 0.0
H528 H 0.2506 0.46138 0.23893 0.0
H529 H 0.38952 0.53344 0.49057 0.0
H530 H 0.07463 0.84552 0.91655 0.0
H531 H 0.045 0.81464 0.89832 0.0
H532 H 0.00267 0.8219 0.98547 0.0
H533 H 0.03308 0.85282 0.00439 0.0
H534 H 0.00445 0.7705 0.95961 0.0
H535 H 0.98674 0.85818 0.92692 0.0
H536 H -0.00084 0.89992 0.90376 0.0
H537 H 0.0173 0.86613 0.81463 0.0
H538 H 0.00538 0.82407 0.8375 0.0
H539 H 0.87919 0.77654 0.92343 0.0
H540 H 0.92245 0.77224 0.93971 0.0
H541 H 0.94389 0.76375 0.84087 0.0
H542 H 0.90047 0.76789 0.82459 0.0
H543 H 0.95933 0.80778 0.86524 0.0
H544 H 0.96629 0.72139 0.89511 0.0
H545 H 0.9525 0.6804 0.91898 0.0
H546 H 0.9528 0.71141 0.01272 0.0
H547 H 0.9663 0.75271 0.98939 0.0
C548 C 0.05901 0.84051 0.93191 0.0
C549 C 0.05553 0.85198 0.96143 0.0
C550 C 0.04241 0.82259 0.92169 0.0
C551 C 0.02169 0.81626 0.94046 0.0
C552 C 0.01875 0.82659 0.97083 0.0
C553 C 0.03581 0.84437 0.98143 0.0
C554 C 0.00139 0.80226 0.92585 0.0
C555 C -0.00558 0.77853 0.93907 0.0
C556 C 0.98918 0.81252 0.89827 0.0
C557 C -0.0046 0.83795 0.88401 0.0
C558 C 0.99348 0.85964 0.90242 0.0
C559 C 0.00044 0.88335 0.88937 0.0
C560 C 0.00908 0.88567 0.85777 0.0
C561 C 0.01064 0.86429 0.83912 0.0
C562 C 0.00377 0.84051 0.85211 0.0
C563 C 0.89302 0.77235 0.9055 0.0
C564 C 0.8868 0.77288 0.87286 0.0
C565 C 0.91772 0.76976 0.91476 0.0
C566 C 0.93634 0.76793 0.89139 0.0
C567 C 0.92972 0.76509 0.85919 0.0
C568 C 0.90495 0.76741 0.84996 0.0
C569 C 0.96156 0.77615 0.89955 0.0
C570 C 0.96967 0.79912 0.88514 0.0
C571 C 0.97459 0.76519 0.92601 0.0
C572 C 0.96729 0.74019 0.94046 0.0
C573 C 0.96336 0.7195 0.92081 0.0
C574 C 0.95559 0.6962 0.93425 0.0
C575 C 0.95176 0.6933 0.96734 0.0
C576 C 0.95582 0.71367 0.98709 0.0
C577 C 0.96361 0.73702 0.97378 0.0
H578 H 0.94565 0.67527 0.97769 0.0
H579 H 0.01452 0.90403 0.84773 0.0
H580 H 0.81928 0.04115 0.99124 0.0
H581 H 0.80995 0.00039 0.96706 0.0
H582 H 0.88806 0.98299 0.96447 0.0
H583 H 0.89736 0.02341 0.98816 0.0
H584 H 0.86423 0.98512 0.90357 0.0
H585 H 0.85661 0.9226 0.00105 0.0
H586 H 0.84047 0.90744 0.05383 0.0
H587 H 0.76919 0.93971 0.0307 0.0
H588 H 0.78499 0.95481 0.97763 0.0
H589 H 0.87911 0.85877 0.8566 0.0
H590 H 0.87823 0.90107 0.87739 0.0
H591 H 0.79851 0.89695 0.8857 0.0
H592 H 0.79951 0.85361 0.86653 0.0
H593 H 0.81812 0.90831 0.94021 0.0
H594 H 0.83116 0.94107 0.83168 0.0
H595 H 0.85231 0.94318 0.77913 0.0
H596 H 0.92082 0.9618 0.82499 0.0
H597 H 0.90017 0.95955 0.87784 0.0
C598 C 0.83431 0.02813 0.98674 0.0
C599 C 0.85905 0.03545 0.99157 0.0
C600 C 0.829 0.00491 0.97272 0.0
C601 C 0.84834 0.98867 0.9638 0.0
C602 C 0.87284 -0.00484 0.97113 0.0
C603 C 0.87812 0.01824 0.98484 0.0
C604 C 0.84377 0.96713 0.9426 0.0
C605 C 0.85405 0.96832 0.91151 0.0
C606 C 0.83049 0.94525 0.95267 0.0
C607 C 0.82214 0.9405 0.986 0.0
C608 C 0.83766 0.92691 0.0076 0.0
C609 C 0.82848 0.918 0.03731 0.0
C610 C 0.80382 0.92265 0.04565 0.0
C611 C 0.7883 0.93621 0.02425 0.0
C612 C 0.79738 0.94505 0.99443 0.0
C613 C 0.86132 0.86693 0.86257 0.0
C614 C 0.83941 0.85261 0.86071 0.0
C615 C 0.8608 0.89139 0.87396 0.0
C616 C 0.83828 0.90242 0.88298 0.0
C617 C 0.81613 0.88885 0.87887 0.0
C618 C 0.81667 0.86414 0.86779 0.0
C619 C 0.83839 0.9262 0.90103 0.0
C620 C 0.82755 0.92541 0.93165 0.0
C621 C 0.8518 0.94808 0.8907 0.0
C622 C 0.86408 0.95009 0.85877 0.0
C623 C 0.85074 0.94556 0.83058 0.0
C624 C 0.86265 0.94678 0.80073 0.0
C625 C 0.88789 0.95261 0.79873 0.0
C626 C 0.90126 0.95733 0.82656 0.0
C627 C 0.88944 0.95615 0.85646 0.0
H628 H 0.89708 0.95347 0.77561 0.0
H629 H 0.79676 0.91583 0.0687 0.0
H630 H 0.43126 0.32904 0.41725 0.0
H631 H 0.47353 0.32589 0.39773 0.0
H632 H 0.49916 0.37041 0.47566 0.0
H633 H 0.45639 0.37375 0.49562 0.0
H634 H 0.52039 0.38558 0.42027 0.0
H635 H 0.50881 0.30488 0.4754 0.0
H636 H 0.48674 0.26505 0.48879 0.0
H637 H 0.49341 0.2432 0.39095 0.0
H638 H 0.51515 0.28318 0.37693 0.0
H639 H 0.64731 0.35763 0.4039 0.0
H640 H 0.60504 0.35797 0.42474 0.0
H641 H 0.57916 0.32193 0.33995 0.0
H642 H 0.62166 0.32207 0.3184 0.0
H643 H 0.55814 0.30225 0.39816 0.0
H644 H 0.57138 0.38241 0.34349 0.0
H645 H 0.59265 0.42273 0.3302 0.0
H646 H 0.58259 0.44566 0.4271 0.0
H647 H 0.5618 0.40539 0.44112 0.0
C648 C 0.44585 0.33797 0.43061 0.0
C649 C 0.44043 0.3515 0.45823 0.0
C650 C 0.47009 0.33604 0.4194 0.0
C651 C 0.48965 0.34738 0.43563 0.0
C652 C 0.48438 0.36116 0.46305 0.0
C653 C 0.45998 0.36296 0.47453 0.0
C654 C 0.51542 0.34514 0.42333 0.0
C655 C 0.52881 0.36735 0.41598 0.0
C656 C 0.52611 0.32136 0.41668 0.0
C657 C 0.51338 0.29714 0.4251 0.0
C658 C 0.50538 0.29168 0.45672 0.0
C659 C 0.49296 0.26907 0.46442 0.0
C660 C 0.48861 0.25162 0.44071 0.0
C661 C 0.49676 0.25674 0.40928 0.0
C662 C 0.50915 0.27937 0.40146 0.0
C663 C 0.63265 0.34967 0.38968 0.0
C664 C 0.63773 0.34017 0.35926 0.0
C665 C 0.60852 0.3499 0.40164 0.0
C666 C 0.58894 0.34045 0.38359 0.0
C667 C 0.59406 0.32949 0.3541 0.0
C668 C 0.61831 0.32942 0.34193 0.0
C669 C 0.56315 0.34266 0.39548 0.0
C670 C 0.54973 0.32047 0.40259 0.0
C671 C 0.55246 0.36646 0.40191 0.0
C672 C 0.56526 0.39069 0.39347 0.0
C673 C 0.57398 0.39593 0.36207 0.0
C674 C 0.58593 0.41884 0.35437 0.0
C675 C 0.58909 0.43678 0.3778 0.0
C676 C 0.58026 0.43182 0.40894 0.0
C677 C 0.56839 0.40894 0.41679 0.0
H678 H 0.59829 0.45453 0.37179 0.0
H679 H 0.47899 0.23412 0.4467 0.0
H680 H 0.10243 0.96526 0.97328 0.0
H681 H 0.09635 0.00489 0.94122 0.0
H682 H 0.16319 0.98988 0.88819 0.0
H683 H 0.16917 0.95053 0.91989 0.0
H684 H 0.15948 0.03927 0.90103 0.0
H685 H 0.10629 0.97472 0.8584 0.0
H686 H 0.07246 0.94338 0.85724 0.0
H687 H 0.01987 0.00037 0.88268 0.0
H688 H 0.05341 0.03198 0.88433 0.0
H689 H 0.12777 0.11311 0.75144 0.0
H690 H 0.13803 0.07628 0.78742 0.0
H691 H 0.08777 0.1036 0.85872 0.0
H692 H 0.07892 0.14064 0.82489 0.0
H693 H 0.08282 0.04832 0.83582 0.0
H694 H 0.1344 0.11165 0.88228 0.0
H695 H 0.16677 0.14448 0.88268 0.0
H696 H 0.22074 0.09081 0.85145 0.0
H697 H 0.18848 0.05776 0.85021 0.0
C698 C 0.11632 0.97103 0.95569 0.0
C699 C 0.13648 0.95505 0.94937 0.0
C700 C 0.11258 -0.00663 0.93694 0.0
C701 C 0.12907 9e-05 0.91186 0.0
C702 C 0.15016 0.98506 0.90726 0.0
C703 C 0.15373 0.96271 0.92565 0.0
C704 C 0.12438 0.02233 0.8897 0.0
C705 C 0.1428 0.04104 0.88654 0.0
C706 C 0.10239 0.02499 0.87119 0.0
C707 C 0.08246 0.00562 0.87201 0.0
C708 C 0.08758 0.98047 0.86427 0.0
C709 C 0.06843 0.96269 0.86336 0.0
C710 C 0.04405 0.96985 0.87001 0.0
C711 C 0.03877 -0.00519 0.87764 0.0
C712 C 0.05784 0.01266 0.87857 0.0
C713 C 0.11916 0.11135 0.7749 0.0
C714 C 0.10189 0.12953 0.78465 0.0
C715 C 0.12493 0.09031 0.79533 0.0
C716 C 0.11336 0.08721 0.8255 0.0
C717 C 0.09662 0.1055 0.83539 0.0
C718 C 0.09138 0.12659 0.81562 0.0
C719 C 0.11803 0.0648 0.84706 0.0
C720 C 0.09953 0.04627 0.85021 0.0
C721 C 0.13972 0.06241 0.86584 0.0
C722 C 0.15893 0.0824 0.86547 0.0
C723 C 0.15305 0.10698 0.87486 0.0
C724 C 0.17141 0.1256 0.87541 0.0
C725 C 0.19578 0.11978 0.86692 0.0
C726 C 0.20183 0.09532 0.85787 0.0
C727 C 0.18351 0.07666 0.85719 0.0
H728 H 0.20999 0.13418 0.8675 0.0
H729 H 0.02925 0.95608 0.86915 0.0
H730 H 0.58214 0.63302 0.39885 0.0
H731 H 0.54074 0.63817 0.37645 0.0
H732 H 0.50927 0.60308 0.46225 0.0
H733 H 0.55113 0.59816 0.48549 0.0
H734 H 0.4913 0.58605 0.39727 0.0
H735 H 0.50667 0.65953 0.45763 0.0
H736 H 0.53271 0.69521 0.47307 0.0
H737 H 0.52507 0.72952 0.3785 0.0
H738 H 0.50046 0.69313 0.36169 0.0
H739 H 0.36954 0.62031 0.35276 0.0
H740 H 0.40685 0.61898 0.38587 0.0
H741 H 0.44744 0.65807 0.30985 0.0
H742 H 0.41007 0.65862 0.27585 0.0
H743 H 0.459 0.67308 0.37511 0.0
H744 H 0.4522 0.60041 0.31159 0.0
H745 H 0.43375 0.56245 0.2889 0.0
H746 H 0.42964 0.52676 0.38303 0.0
H747 H 0.44717 0.56496 0.40656 0.0
C748 C 0.56651 0.62617 0.41302 0.0
C749 C 0.5699 0.61514 0.44399 0.0
C750 C 0.54286 0.62921 0.40014 0.0
C751 C 0.52206 0.62112 0.41776 0.0
C752 C 0.52522 0.60946 0.44837 0.0
C753 C 0.54903 0.60679 0.46164 0.0
C754 C 0.49712 0.62572 0.40403 0.0
C755 C 0.48384 0.60499 0.39314 0.0
C756 C 0.48816 0.65064 0.3976 0.0
C757 C 0.50197 0.67323 0.40819 0.0
C758 C 0.51092 0.67437 0.43985 0.0
C759 C 0.52561 0.69468 0.44881 0.0
C760 C 0.53066 0.71456 0.42673 0.0
C761 C 0.52121 0.71406 0.39556 0.0
C762 C 0.50704 0.69347 0.38623 0.0
C763 C 0.3863 0.62908 0.34328 0.0
C764 C 0.38706 0.63923 0.31153 0.0
C765 C 0.40757 0.62825 0.36223 0.0
C766 C 0.42994 0.63801 0.35006 0.0
C767 C 0.43029 0.65032 0.31952 0.0
C768 C 0.40896 0.6508 0.30023 0.0
C769 C 0.45318 0.63338 0.36827 0.0
C770 C 0.46616 0.6541 0.37987 0.0
C771 C 0.4622 0.60847 0.3748 0.0
C772 C 0.45052 0.58586 0.36096 0.0
C773 C 0.44682 0.58475 0.32761 0.0
C774 C 0.43658 0.56314 0.31457 0.0
C775 C 0.4303 0.5423 0.33457 0.0
C776 C 0.43424 0.54305 0.36764 0.0
C777 C 0.44427 0.56471 0.38085 0.0
H778 H 0.42253 0.52552 0.32441 0.0
H779 H 0.54175 0.73044 0.43385 0.0
H780 H 0.32673 0.43259 0.59341 0.0
H781 H 0.325 0.47459 0.61444 0.0
H782 H 0.37481 0.50218 0.54008 0.0
H783 H 0.37673 0.45949 0.51841 0.0
H784 H 0.38597 0.52242 0.59601 0.0
H785 H 0.31226 0.51529 0.53539 0.0
H786 H 0.2742 0.49544 0.5157 0.0
H787 H 0.24296 0.49565 0.61053 0.0
H788 H 0.2811 0.51508 0.63088 0.0
H789 H 0.35014 0.64907 0.62686 0.0
H790 H 0.35159 0.60916 0.59954 0.0
H791 H 0.32469 0.5698 0.68519 0.0
H792 H 0.32432 0.61 0.71353 0.0
H793 H 0.3028 0.55822 0.61864 0.0
H794 H 0.37961 0.56645 0.67764 0.0
H795 H 0.41758 0.58882 0.69306 0.0
H796 H 0.44297 0.58975 0.59536 0.0
H797 H 0.40479 0.56802 0.57913 0.0
C798 C 0.33719 0.44753 0.58112 0.0
C799 C 0.35162 0.4427 0.55388 0.0
C800 C 0.3361 0.47164 0.59322 0.0
C801 C 0.34908 0.49175 0.57821 0.0
C802 C 0.36411 0.48703 0.55149 0.0
C803 C 0.36514 0.4627 0.53911 0.0
C804 C 0.3465 0.51749 0.59092 0.0
C805 C 0.36782 0.53045 0.60046 0.0
C806 C 0.32278 0.52797 0.59684 0.0
C807 C 0.29967 0.51648 0.58468 0.0
C808 C 0.29738 0.51093 0.55208 0.0
C809 C 0.27577 0.49977 0.5408 0.0
C810 C 0.25618 0.49424 0.56186 0.0
C811 C 0.25816 0.49993 0.59424 0.0
C812 C 0.27977 0.51103 0.60565 0.0
C813 C 0.34425 0.63194 0.63983 0.0
C814 C 0.33757 0.63241 0.67249 0.0
C815 C 0.34518 0.60923 0.6242 0.0
C816 C 0.33882 0.58665 0.64064 0.0
C817 C 0.32998 0.58719 0.67239 0.0
C818 C 0.32954 0.61004 0.68842 0.0
C819 C 0.34211 0.56251 0.62459 0.0
C820 C 0.32092 0.55011 0.6141 0.0
C821 C 0.36594 0.55297 0.61721 0.0
C822 C 0.38906 0.56592 0.62706 0.0
C823 C 0.39308 0.57174 0.65932 0.0
C824 C 0.41469 0.58426 0.66823 0.0
C825 C 0.43263 0.5908 0.64519 0.0
C826 C 0.42902 0.58476 0.61318 0.0
C827 C 0.40737 0.57235 0.6041 0.0
H828 H 0.44936 0.60047 0.65215 0.0
H829 H 0.23944 0.4856 0.55309 0.0
H830 H 0.04757 0.90615 0.06957 0.0
H831 H 0.0087 0.90122 0.09968 0.0
H832 H 0.01552 0.81997 0.09637 0.0
H833 H 0.05434 0.82499 0.06611 0.0
H834 H 0.96621 0.83661 0.09404 0.0
H835 H 0.04093 0.85047 0.15708 0.0
H836 H 0.07782 0.87423 0.17358 0.0
H837 H 0.03191 0.93787 0.19524 0.0
H838 H -0.00521 0.91464 0.17838 0.0
H839 H 0.90303 0.81206 0.2515 0.0
H840 H 0.93556 0.81065 0.21048 0.0
H841 H 0.92323 0.88941 0.1854 0.0
H842 H 0.89003 0.89096 0.22259 0.0
H843 H 0.97552 0.87089 0.20258 0.0
H844 H 0.90298 0.86276 0.13689 0.0
H845 H 0.86439 0.84382 0.11743 0.0
H846 H 0.90359 0.77532 0.09761 0.0
H847 H 0.94237 0.79368 0.11778 0.0
C848 C 0.04002 0.88733 0.0739 0.0
C849 C 0.05351 0.86592 0.06524 0.0
C850 C 0.01807 0.88451 0.09143 0.0
C851 C 0.00961 0.86021 0.1008 0.0
C852 C 0.02183 0.83885 0.08945 0.0
C853 C 0.04384 0.8417 0.07198 0.0
C854 C 0.99001 0.85696 0.12546 0.0
C855 C 0.96837 0.84375 0.11794 0.0
C856 C 0.99269 0.86683 0.15641 0.0
C857 C 0.01511 0.88089 0.16614 0.0
C858 C 0.03873 0.86961 0.16506 0.0
C859 C 0.05968 0.88298 0.17453 0.0
C860 C 0.05722 0.90756 0.18538 0.0
C861 C 0.0338 0.91884 0.18678 0.0
C862 C 0.01281 0.90559 0.17726 0.0
C863 C 0.90691 0.82911 0.23725 0.0
C864 C 0.89361 0.85177 0.24191 0.0
C865 C 0.92561 0.82819 0.21377 0.0
C866 C 0.93161 0.84997 0.19504 0.0
C867 C 0.91887 0.87244 0.19975 0.0
C868 C 0.89991 0.87324 0.22212 0.0
C869 C 0.95185 0.85039 0.17124 0.0
C870 C 0.97359 0.86328 0.17889 0.0
C871 C 0.94895 0.84087 0.14024 0.0
C872 C 0.92544 0.82933 0.12971 0.0
C873 C 0.90327 0.84343 0.12918 0.0
C874 C 0.88138 0.83286 0.1178 0.0
C875 C 0.88149 0.8083 0.10651 0.0
C876 C 0.90349 0.79427 0.10658 0.0
C877 C 0.92542 0.80473 0.11806 0.0
H878 H 0.86455 0.8002 0.09753 0.0
H879 H 0.07345 0.91785 0.19278 0.0
H880 H 0.57693 0.52427 0.57475 0.0
H881 H 0.58016 0.48337 0.60382 0.0
H882 H 0.65764 0.49734 0.62198 0.0
H883 H 0.65468 0.5379 0.59138 0.0
H884 H 0.64921 0.44762 0.61569 0.0
H885 H 0.61075 0.51475 0.67616 0.0
H886 H 0.57936 0.54776 0.68549 0.0
H887 H 0.52127 0.49273 0.67895 0.0
H888 H 0.55227 0.45948 0.66928 0.0
H889 H 0.64598 0.3506 0.74058 0.0
H890 H 0.65362 0.39151 0.71259 0.0
H891 H 0.57482 0.40064 0.69695 0.0
H892 H 0.56705 0.36251 0.72849 0.0
H893 H 0.58983 0.4422 0.7066 0.0
H894 H 0.62364 0.3768 0.63812 0.0
H895 H 0.6524 0.342 0.62598 0.0
H896 H 0.71464 0.39022 0.64313 0.0
H897 H 0.68623 0.42521 0.65562 0.0
C898 C 0.59484 0.51815 0.58399 0.0
C899 C 0.61553 0.53417 0.58119 0.0
C900 C 0.59661 0.49496 0.60088 0.0
C901 C 0.61889 0.48783 0.61614 0.0
C902 C 0.64019 0.50269 0.61076 0.0
C903 C 0.63854 0.52574 0.59316 0.0
C904 C 0.61931 0.46616 0.6398 0.0
C905 C 0.63634 0.44644 0.63573 0.0
C906 C 0.60242 0.46458 0.66584 0.0
C907 C 0.58385 0.48467 0.67183 0.0
C908 C 0.59128 0.50973 0.67658 0.0
C909 C 0.57355 0.52848 0.68194 0.0
C910 C 0.54834 0.52236 0.68277 0.0
C911 C 0.5408 0.49746 0.6783 0.0
C912 C 0.55844 0.47866 0.67293 0.0
C913 C 0.63031 0.36169 0.73183 0.0
C914 C 0.60593 0.3527 0.73597 0.0
C915 C 0.63472 0.38489 0.71524 0.0
C916 C 0.61488 0.39896 0.70157 0.0
C917 C 0.5906 0.39032 0.7069 0.0
C918 C 0.58618 0.368 0.72452 0.0
C919 C 0.61861 0.42257 0.68144 0.0
C920 C 0.60267 0.44311 0.68653 0.0
C921 C 0.6359 0.42445 0.6558 0.0
C922 C 0.65286 0.40347 0.64812 0.0
C923 C 0.64346 0.3799 0.63943 0.0
C924 C 0.65969 0.36017 0.63248 0.0
C925 C 0.68533 0.36388 0.63388 0.0
C926 C 0.69479 0.38736 0.64211 0.0
C927 C 0.67865 0.40714 0.64911 0.0
H928 H 0.69786 0.34858 0.62851 0.0
H929 H 0.53466 0.53689 0.68692 0.0
H930 H 0.93629 0.11141 0.1134 0.0
H931 H 0.97817 0.11485 0.13426 0.0
H932 H 0.00354 0.14287 0.04129 0.0
H933 H 0.96099 0.13913 0.01993 0.0
H934 H 0.03536 0.10741 0.07187 0.0
H935 H 0.9921 0.18396 0.10125 0.0
H936 H 0.95857 0.20845 0.12589 0.0
H937 H 0.97332 0.17135 0.21741 0.0
H938 H 0.00672 0.14642 0.19327 0.0
H939 H 0.14955 0.1544 0.12796 0.0
H940 H 0.10834 0.1505 0.10377 0.0
H941 H 0.07837 0.12683 0.19616 0.0
H942 H 0.11979 0.13049 0.22024 0.0
H943 H 0.04878 0.16111 0.16539 0.0
H944 H 0.0793 0.07869 0.14077 0.0
H945 H 0.10602 0.04466 0.12081 0.0
H946 H 0.11183 0.08443 0.02927 0.0
H947 H 0.08479 0.11846 0.04861 0.0
C948 C 0.95089 0.11792 0.09719 0.0
C949 C 0.94552 0.12514 0.06513 0.0
C950 C 0.97472 0.12014 0.10927 0.0
C951 C 0.99374 0.12988 0.08963 0.0
C952 C 0.9889 0.13568 0.05693 0.0
C953 C 0.96477 0.13337 0.04467 0.0
C954 C 0.01861 0.13362 0.10366 0.0
C955 C 0.03847 0.11969 0.09176 0.0
C956 C 0.02221 0.14841 0.13097 0.0
C957 C 0.00183 0.1632 0.14535 0.0
C958 C 0.98806 0.18086 0.12656 0.0
C959 C 0.9691 0.19487 0.14047 0.0
C960 C 0.9638 0.19144 0.17318 0.0
C961 C 0.97744 0.17399 0.19207 0.0
C962 C -0.0036 0.15995 0.17829 0.0
C963 C 0.13396 0.14902 0.14314 0.0
C964 C 0.1375 0.14334 0.17599 0.0
C965 C 0.11059 0.14633 0.12926 0.0
C966 C 0.09041 0.13796 0.14807 0.0
C967 C 0.09375 0.13321 0.18121 0.0
C968 C 0.11722 0.13566 0.19504 0.0
C969 C 0.06565 0.13519 0.13322 0.0
C970 C 0.04578 0.1492 0.14511 0.0
C971 C 0.06175 0.11976 0.10671 0.0
C972 C 0.08042 0.10125 0.09627 0.0
C973 C 0.08663 0.08034 0.11657 0.0
C974 C 0.10153 0.0609 0.10523 0.0
C975 C 0.11051 0.06232 0.07373 0.0
C976 C 0.10478 0.0833 0.05361 0.0
C977 C 0.08964 0.10263 0.06471 0.0
H978 H 0.12207 0.04728 0.06501 0.0
H979 H 0.94915 0.20232 0.1839 0.0
H980 H 0.2085 0.8363 0.04018 0.0
H981 H 0.23285 0.80021 0.06157 0.0
H982 H 0.16603 0.75575 0.07124 0.0
H983 H 0.14183 0.79175 0.04969 0.0
H984 H 0.18857 0.76153 0.12843 0.0
H985 H 0.2104 0.7337 0.0269 0.0
H986 H 0.22466 0.73547 0.97068 0.0
H987 H 0.29631 0.76081 1.00064 0.0
H988 H 0.28231 0.75976 0.05705 0.0
H989 H 0.25877 0.64947 0.18324 0.0
H990 H 0.23194 0.67931 0.15301 0.0
H991 H 0.28575 0.73853 0.16451 0.0
H992 H 0.31235 0.70885 0.19598 0.0
H993 H 0.26786 0.72231 0.09575 0.0
H994 H 0.24132 0.7504 0.20017 0.0
H995 H 0.22398 0.74521 0.2548 0.0
H996 H 0.15728 0.71397 0.21653 0.0
H997 H 0.17438 0.71865 0.16168 0.0
C998 C 0.19933 0.81835 0.04517 0.0
C999 C 0.17348 0.81655 0.04318 0.0
C1000 C 0.21315 0.79781 0.05763 0.0
C1001 C 0.20114 0.77546 0.06842 0.0
C1002 C 0.1756 0.77288 0.06325 0.0
C1003 C 0.16186 0.79331 0.05061 0.0
C1004 C 0.21443 0.75683 0.08957 0.0
C1005 C 0.2057 0.7526 0.1211 0.0
C1006 C 0.23682 0.74542 0.08009 0.0
C1007 C 0.24524 0.74684 0.04619 0.0
C1008 C 0.2291 0.73999 0.02148 0.0
C1009 C 0.23714 0.74082 0.98958 0.0
C1010 C 0.26135 0.74828 0.9821 0.0
C1011 C 0.27754 0.75511 0.00647 0.0
C1012 C 0.26956 0.75438 0.03843 0.0
C1013 C 0.26464 0.669 0.17978 0.0
C1014 C 0.28755 0.67696 0.19174 0.0
C1015 C 0.24931 0.68596 0.16265 0.0
C1016 C 0.25695 0.711 0.15664 0.0
C1017 C 0.27959 0.71923 0.16916 0.0
C1018 C 0.29469 0.70236 0.18709 0.0
C1019 C 0.24233 0.72769 0.13466 0.0
C1020 C 0.25073 0.73131 0.10294 0.0
C1021 C 0.21931 0.73803 0.14378 0.0
C1022 C 0.20932 0.7345 0.17684 0.0
C1023 C 0.22312 0.74205 0.20343 0.0
C1024 C 0.21328 0.73931 0.23443 0.0
C1025 C 0.18959 0.72917 0.23915 0.0
C1026 C 0.17566 0.72176 0.21286 0.0
C1027 C 0.18542 0.72446 0.18181 0.0
H1028 H 0.18198 0.72713 0.26315 0.0
H1029 H 0.26759 0.74852 0.95744 0.0
H1030 H 0.64683 0.66444 0.63515 0.0
H1031 H 0.6799 0.68711 0.66197 0.0
H1032 H 0.73374 0.65649 0.5971 0.0
H1033 H 0.70027 0.63377 0.57003 0.0
H1034 H 0.74689 0.6494 0.66034 0.0
H1035 H 0.7226 0.72068 0.59239 0.0
H1036 H 0.69364 0.75094 0.56562 0.0
H1037 H 0.66628 0.77273 0.65739 0.0
H1038 H 0.69502 0.74256 0.68466 0.0
H1039 H 0.8385 0.72767 0.73401 0.0
H1040 H 0.81191 0.70431 0.69787 0.0
H1041 H 0.74717 0.73026 0.74811 0.0
H1042 H 0.77363 0.754 0.78381 0.0
H1043 H 0.74405 0.74043 0.6851 0.0
H1044 H 0.76441 0.66768 0.75322 0.0
H1045 H 0.7913 0.63643 0.7818 0.0
H1046 H 0.82424 0.61646 0.69238 0.0
H1047 H 0.79765 0.64773 0.66328 0.0
C1048 C 0.66572 0.66283 0.62654 0.0
C1049 C 0.67131 0.64742 0.601 0.0
C1050 C 0.68453 0.6759 0.64157 0.0
C1051 C 0.70921 0.67365 0.63129 0.0
C1052 C 0.71476 0.65855 0.6052 0.0
C1053 C 0.69579 0.64564 0.58987 0.0
C1054 C 0.72909 0.68536 0.64998 0.0
C1055 C 0.74674 0.66944 0.66518 0.0
C1056 C 0.72836 0.71132 0.65688 0.0
C1057 C 0.71087 0.72928 0.64053 0.0
C1058 C 0.71029 0.73182 0.60683 0.0
C1059 C 0.69397 0.749 0.59158 0.0
C1060 C 0.67812 0.76373 0.6098 0.0
C1061 C 0.67859 0.76134 0.6433 0.0
C1062 C 0.69494 0.74426 0.65867 0.0
C1063 C 0.81858 0.72817 0.73739 0.0
C1064 C 0.80801 0.74296 0.76113 0.0
C1065 C 0.80347 0.71468 0.71698 0.0
C1066 C 0.77762 0.7156 0.72035 0.0
C1067 C 0.76711 0.72948 0.74504 0.0
C1068 C 0.7822 0.74311 0.76529 0.0
C1069 C 0.76136 0.70436 0.69626 0.0
C1070 C 0.74451 0.72046 0.67992 0.0
C1071 C 0.76275 0.67855 0.6886 0.0
C1072 C 0.77928 0.66029 0.70613 0.0
C1073 C 0.7776 0.65685 0.7397 0.0
C1074 C 0.79272 0.63906 0.75598 0.0
C1075 C 0.80954 0.62454 0.73893 0.0
C1076 C 0.81125 0.62776 0.70556 0.0
C1077 C 0.79614 0.64549 0.68916 0.0
H1078 H 0.82119 0.61075 0.75158 0.0
H1079 H 0.66548 0.77701 0.59795 0.0
H1080 H 0.79194 0.17078 0.06207 0.0
H1081 H 0.77411 0.20308 0.09616 0.0
H1082 H 0.84686 0.23477 0.10908 0.0
H1083 H 0.86448 0.20313 0.0742 0.0
H1084 H 0.8202 0.21287 0.16721 0.0
H1085 H 0.81227 0.27283 0.07858 0.0
H1086 H 0.79969 0.28613 0.02361 0.0
H1087 H 0.72339 0.27206 0.04777 0.0
H1088 H 0.73558 0.25833 0.10287 0.0
H1089 H 0.78601 0.30564 0.27812 0.0
H1090 H 0.80389 0.28521 0.23158 0.0
H1091 H 0.73064 0.26368 0.20139 0.0
H1092 H 0.71268 0.28417 0.24771 0.0
H1093 H 0.75899 0.28245 0.15065 0.0
H1094 H 0.76629 0.22087 0.23779 0.0
H1095 H 0.77802 0.20596 0.2925 0.0
H1096 H 0.85461 0.22106 0.27115 0.0
H1097 H 0.84328 0.23644 0.21639 0.0
C1098 C 0.80377 0.18572 0.07042 0.0
C1099 C 0.82944 0.18491 0.06504 0.0
C1100 C 0.79369 0.20386 0.09032 0.0
C1101 C 0.80929 0.22102 0.10539 0.0
C1102 C 0.83458 0.22166 0.09764 0.0
C1103 C 0.84452 0.2039 0.07724 0.0
C1104 C 0.79985 0.23578 0.13229 0.0
C1105 C 0.80716 0.2284 0.16362 0.0
C1106 C 0.78237 0.25547 0.1275 0.0
C1107 C 0.77485 0.26433 0.09474 0.0
C1108 C 0.79282 0.27241 0.07212 0.0
C1109 C 0.78576 0.28006 0.04095 0.0
C1110 C 0.76076 0.27987 0.03217 0.0
C1111 C 0.74275 0.27217 0.05461 0.0
C1112 C 0.74972 0.26449 0.08583 0.0
C1113 C 0.77377 0.29646 0.26156 0.0
C1114 C 0.74803 0.29634 0.26658 0.0
C1115 C 0.78397 0.28487 0.23501 0.0
C1116 C 0.76857 0.27288 0.2131 0.0
C1117 C 0.74281 0.27293 0.21794 0.0
C1118 C 0.73261 0.28448 0.24454 0.0
C1119 C 0.77938 0.25961 0.18566 0.0
C1120 C 0.77222 0.26711 0.15428 0.0
C1121 C 0.79691 0.23985 0.19042 0.0
C1122 C 0.80391 0.23005 0.22307 0.0
C1123 C 0.78562 0.22116 0.24481 0.0
C1124 C 0.7922 0.21261 0.27583 0.0
C1125 C 0.81704 0.21263 0.28532 0.0
C1126 C 0.83537 0.22109 0.26376 0.0
C1127 C 0.82889 0.22971 0.23272 0.0
H1128 H 0.82209 0.20604 0.30936 0.0
H1129 H 0.75533 0.28573 0.008 0.0
H1130 H 0.32365 0.3128 0.56365 0.0
H1131 H 0.29247 0.28779 0.59277 0.0
H1132 H 0.2347 0.33538 0.55097 0.0
H1133 H 0.2664 0.36196 0.52441 0.0
H1134 H 0.22495 0.33029 0.60857 0.0
H1135 H 0.24609 0.26821 0.53291 0.0
H1136 H 0.27327 0.2409 0.50141 0.0
H1137 H 0.30093 0.2049 0.58839 0.0
H1138 H 0.27421 0.23222 0.62042 0.0
H1139 H 0.13233 0.24261 0.67345 0.0
H1140 H 0.1588 0.27016 0.63953 0.0
H1141 H 0.2235 0.24092 0.68937 0.0
H1142 H 0.19716 0.21322 0.72323 0.0
H1143 H 0.22622 0.23685 0.62419 0.0
H1144 H 0.20366 0.30149 0.69874 0.0
H1145 H 0.17561 0.32969 0.72767 0.0
H1146 H 0.14752 0.36048 0.63798 0.0
H1147 H 0.17516 0.33226 0.60851 0.0
C1148 C 0.30427 0.31759 0.56028 0.0
C1149 C 0.29731 0.33923 0.54194 0.0
C1150 C 0.28634 0.30315 0.57673 0.0
C1151 C 0.261 0.30936 0.57391 0.0
C1152 C 0.25405 0.33018 0.55381 0.0
C1153 C 0.27209 0.34521 0.53837 0.0
C1154 C 0.24213 0.2956 0.59405 0.0
C1155 C 0.22492 0.30979 0.61136 0.0
C1156 C 0.24217 0.26887 0.59831 0.0
C1157 C 0.25823 0.25237 0.57905 0.0
C1158 C 0.25807 0.25457 0.54531 0.0
C1159 C 0.27339 0.23908 0.52736 0.0
C1160 C 0.28883 0.2212 0.54288 0.0
C1161 C 0.28897 0.21875 0.57639 0.0
C1162 C 0.27371 0.23421 0.59445 0.0
C1163 C 0.15218 0.24224 0.67741 0.0
C1164 C 0.16279 0.22553 0.70073 0.0
C1165 C 0.16724 0.25814 0.65815 0.0
C1166 C 0.1931 0.25761 0.66196 0.0
C1167 C 0.20358 0.24158 0.686 0.0
C1168 C 0.18856 0.22573 0.70524 0.0
C1169 C 0.20951 0.27156 0.63888 0.0
C1170 C 0.22615 0.25733 0.62097 0.0
C1171 C 0.20849 0.29815 0.63356 0.0
C1172 C 0.19125 0.31447 0.65141 0.0
C1173 C 0.19125 0.314 0.68518 0.0
C1174 C 0.17549 0.33008 0.70168 0.0
C1175 C 0.15972 0.34679 0.68468 0.0
C1176 C 0.15968 0.34748 0.65113 0.0
C1177 C 0.1754 0.33146 0.63453 0.0
H1178 H 0.1476 0.35926 0.6975 0.0
H1179 H 0.30067 0.20922 0.52894 0.0
H1180 H 0.6439 0.66187 0.43637 0.0
H1181 H 0.66624 0.69464 0.40547 0.0
H1182 H 0.69429 0.72441 0.49334 0.0
H1183 H 0.67135 0.69163 0.52461 0.0
H1184 H 0.68442 0.76209 0.44787 0.0
H1185 H 0.72825 0.68234 0.4526 0.0
H1186 H 0.73436 0.63659 0.44579 0.0
H1187 H 0.7198 0.64654 0.34478 0.0
H1188 H 0.71325 0.69233 0.35108 0.0
H1189 H 0.79808 0.81564 0.39823 0.0
H1190 H 0.7632 0.79235 0.42202 0.0
H1191 H 0.74487 0.76394 0.32922 0.0
H1192 H 0.78044 0.78677 0.30545 0.0
H1193 H 0.74589 0.72712 0.37263 0.0
H1194 H 0.70606 0.80805 0.36722 0.0
H1195 H 0.70141 0.85395 0.37439 0.0
H1196 H 0.70991 0.84231 0.47635 0.0
H1197 H 0.71476 0.79636 0.46979 0.0
C1198 C 0.65455 0.67563 0.44913 0.0
C1199 C 0.65637 0.67404 0.48276 0.0
C1200 C 0.66729 0.69432 0.43145 0.0
C1201 C 0.68243 0.7115 0.44707 0.0
C1202 C 0.68282 0.71116 0.48085 0.0
C1203 C 0.66975 0.69252 0.49867 0.0
C1204 C 0.69933 0.72826 0.42804 0.0
C1205 C 0.69801 0.75451 0.43158 0.0
C1206 C 0.71654 0.71833 0.40609 0.0
C1207 C 0.71995 0.6907 0.40239 0.0
C1208 C 0.72607 0.67473 0.429 0.0
C1209 C 0.72968 0.6488 0.42522 0.0
C1210 C 0.72739 0.63865 0.39489 0.0
C1211 C 0.7215 0.65442 0.36827 0.0
C1212 C 0.71784 0.68035 0.37193 0.0
C1213 C 0.78654 0.80446 0.38292 0.0
C1214 C 0.79203 0.80274 0.35017 0.0
C1215 C 0.76642 0.79144 0.39643 0.0
C1216 C 0.75109 0.77678 0.37732 0.0
C1217 C 0.75638 0.77528 0.34438 0.0
C1218 C 0.77675 0.78816 0.33087 0.0
C1219 C 0.73126 0.76108 0.39257 0.0
C1220 C 0.73204 0.73489 0.38842 0.0
C1221 C 0.71366 0.77111 0.41395 0.0
C1222 C 0.71093 0.79877 0.41797 0.0
C1223 C 0.70711 0.8153 0.39114 0.0
C1224 C 0.70438 0.84132 0.39511 0.0
C1225 C 0.7054 0.85104 0.4258 0.0
C1226 C 0.70911 0.83475 0.45259 0.0
C1227 C 0.71178 0.80871 0.44877 0.0
H1228 H 0.70329 0.87119 0.42881 0.0
H1229 H 0.73026 0.61858 0.392 0.0
H1230 H 0.78367 0.11468 0.96683 0.0
H1231 H 0.74592 0.13714 0.9498 0.0
H1232 H 0.7828 0.20871 0.96082 0.0
H1233 H 0.82012 0.18614 0.98014 0.0
H1234 H 0.73437 0.21404 0.97256 0.0
H1235 H 0.78312 0.17918 0.88882 0.0
H1236 H 0.80606 0.14475 0.86358 0.0
H1237 H 0.73866 0.10227 0.85584 0.0
H1238 H 0.71539 0.13625 0.88166 0.0
H1239 H 0.66174 0.28059 0.85171 0.0
H1240 H 0.69565 0.2614 0.88324 0.0
H1241 H 0.65941 0.18874 0.88141 0.0
H1242 H 0.62558 0.20778 0.84951 0.0
H1243 H 0.70805 0.18582 0.86554 0.0
H1244 H 0.65911 0.22394 0.94782 0.0
H1245 H 0.63772 0.26005 0.97146 0.0
H1246 H 0.7071 0.29908 0.9793 0.0
H1247 H 0.72887 0.26342 0.95503 0.0
C1248 C 0.78357 0.1352 0.96599 0.0
C1249 C 0.80492 0.14873 0.97383 0.0
C1250 C 0.76201 0.14804 0.95637 0.0
C1251 C 0.7618 0.17462 0.95291 0.0
C1252 C 0.78259 0.18821 0.96294 0.0
C1253 C 0.80395 0.17532 0.97367 0.0
C1254 C 0.74121 0.18775 0.93523 0.0
C1255 C 0.72872 0.20802 0.94908 0.0
C1256 C 0.73386 0.18002 0.90446 0.0
C1257 C 0.74755 0.16019 0.88734 0.0
C1258 C 0.7732 0.16249 0.88174 0.0
C1259 C 0.78627 0.14303 0.86742 0.0
C1260 C 0.77383 0.12132 0.85816 0.0
C1261 C 0.74826 0.1191 0.86305 0.0
C1262 C 0.73512 0.13845 0.87751 0.0
C1263 C 0.66092 0.26056 0.85818 0.0
C1264 C 0.64103 0.2456 0.84818 0.0
C1265 C 0.68027 0.24965 0.8763 0.0
C1266 C 0.67996 0.22368 0.88488 0.0
C1267 C 0.66 0.20882 0.87508 0.0
C1268 C 0.64067 0.2197 0.85699 0.0
C1269 C 0.70079 0.21169 0.90313 0.0
C1270 C 0.71354 0.19176 0.88914 0.0
C1271 C 0.70853 0.22008 0.93341 0.0
C1272 C 0.6956 0.24107 0.94931 0.0
C1273 C 0.66981 0.24027 0.95443 0.0
C1274 C 0.6576 0.26068 0.96791 0.0
C1275 C 0.67103 0.28188 0.97678 0.0
C1276 C 0.69671 0.28266 0.97235 0.0
C1277 C 0.709 0.26234 0.95874 0.0
H1278 H 0.66153 0.29769 0.98714 0.0
H1279 H 0.78399 0.10624 0.84716 0.0
H1280 H 0.31338 0.33607 0.43814 0.0
H1281 H 0.2915 0.31012 0.40045 0.0
H1282 H 0.32976 0.24364 0.43889 0.0
H1283 H 0.3538 0.27038 0.47398 0.0
H1284 H 0.33413 0.24355 0.37987 0.0
H1285 H 0.26204 0.25765 0.44585 0.0
H1286 H 0.2316 0.28333 0.47468 0.0
H1287 H 0.21162 0.32259 0.38624 0.0
H1288 H 0.24214 0.29735 0.357 0.0
H1289 H 0.26306 0.15137 0.30368 0.0
H1290 H 0.28387 0.17979 0.33964 0.0
H1291 H 0.25307 0.2443 0.28668 0.0
H1292 H 0.23159 0.2157 0.25092 0.0
H1293 H 0.24528 0.24725 0.34959 0.0
H1294 H 0.31612 0.23018 0.28375 0.0
H1295 H 0.34639 0.20368 0.25588 0.0
H1296 H 0.36808 0.16806 0.34591 0.0
H1297 H 0.33777 0.19413 0.3743 0.0
C1298 C 0.31674 0.31587 0.43889 0.0
C1299 C 0.33539 0.30515 0.45853 0.0
C1300 C 0.30402 0.30091 0.41752 0.0
C1301 C 0.30883 0.27476 0.41671 0.0
C1302 C 0.32589 0.26378 0.43868 0.0
C1303 C 0.33939 0.27894 0.459 0.0
C1304 C 0.2983 0.2594 0.39089 0.0
C1305 C 0.31457 0.24403 0.37376 0.0
C1306 C 0.27302 0.26076 0.38177 0.0
C1307 C 0.2545 0.27574 0.39932 0.0
C1308 C 0.25124 0.27185 0.43263 0.0
C1309 C 0.23396 0.28632 0.44902 0.0
C1310 C 0.21972 0.30461 0.43232 0.0
C1311 C 0.22267 0.30842 0.39916 0.0
C1312 C 0.23992 0.29402 0.38266 0.0
C1313 C 0.26092 0.17163 0.29955 0.0
C1314 C 0.24557 0.18139 0.27487 0.0
C1315 C 0.27298 0.18785 0.31992 0.0
C1316 C 0.27022 0.21415 0.31563 0.0
C1317 C 0.25543 0.22402 0.29033 0.0
C1318 C 0.24316 0.20772 0.27001 0.0
C1319 C 0.28097 0.23104 0.33941 0.0
C1320 C 0.2648 0.24679 0.35592 0.0
C1321 C 0.30627 0.22977 0.34824 0.0
C1322 C 0.32451 0.21401 0.33113 0.0
C1323 C 0.3272 0.21656 0.29758 0.0
C1324 C 0.34441 0.20164 0.2817 0.0
C1325 C 0.35911 0.18416 0.2991 0.0
C1326 C 0.35668 0.1816 0.33245 0.0
C1327 C 0.33952 0.19648 0.34846 0.0
H1328 H 0.37241 0.17263 0.28676 0.0
H1329 H 0.20637 0.3158 0.44505 0.0
H1330 H 0.17939 0.80433 0.97621 0.0
H1331 H 0.21325 0.78582 0.94443 0.0
H1332 H 0.20435 0.84588 0.87216 0.0
H1333 H 0.17135 0.86427 0.90347 0.0
H1334 H 0.19541 0.79288 0.85439 0.0
H1335 H 0.24945 0.84951 0.90573 0.0
H1336 H 0.27196 0.86884 0.94978 0.0
H1337 H 0.31193 0.79949 0.96834 0.0
H1338 H 0.28911 0.77942 0.92489 0.0
H1339 H 0.28569 0.77849 0.73124 0.0
H1340 H 0.26258 0.7983 0.77458 0.0
H1341 H 0.28143 0.73546 0.83922 0.0
H1342 H 0.30395 0.71533 0.79593 0.0
H1343 H 0.28699 0.78786 0.86395 0.0
H1344 H 0.22834 0.73238 0.81103 0.0
H1345 H 0.20575 0.71705 0.76414 0.0
H1346 H 0.17663 0.79173 0.74427 0.0
H1347 H 0.19929 0.80756 0.79083 0.0
C1348 C 0.18529 0.81378 0.954 0.0
C1349 C 0.17277 0.8354 0.94187 0.0
C1350 C 0.20451 0.80332 0.93598 0.0
C1351 C 0.21112 0.81463 0.90608 0.0
C1352 C 0.19948 0.837 0.89519 0.0
C1353 C 0.18057 0.84733 0.91297 0.0
C1354 C 0.22712 0.80163 0.88336 0.0
C1355 C 0.21545 0.79172 0.85656 0.0
C1356 C 0.25322 0.80052 0.88625 0.0
C1357 C 0.2667 0.81253 0.91281 0.0
C1358 C 0.26243 0.83804 0.91977 0.0
C1359 C 0.27543 0.84924 0.94451 0.0
C1360 C 0.29311 0.83529 0.96218 0.0
C1361 C 0.29796 0.81017 0.95495 0.0
C1362 C 0.28493 0.79885 0.93032 0.0
C1363 C 0.28489 0.76901 0.75475 0.0
C1364 C 0.29619 0.74531 0.76027 0.0
C1365 C 0.27182 0.78031 0.77938 0.0
C1366 C 0.27039 0.76822 0.80991 0.0
C1367 C 0.28242 0.74499 0.81576 0.0
C1368 C 0.29505 0.73346 0.79099 0.0
C1369 C 0.25516 0.7791 0.8353 0.0
C1370 C 0.26693 0.78867 0.86232 0.0
C1371 C 0.22914 0.78068 0.83234 0.0
C1372 C 0.21573 0.77119 0.80418 0.0
C1373 C 0.21733 0.74557 0.79645 0.0
C1374 C 0.20446 0.73679 0.76999 0.0
C1375 C 0.18983 0.75342 0.75118 0.0
C1376 C 0.188 0.77888 0.75882 0.0
C1377 C 0.20083 0.78775 0.78525 0.0
H1378 H 0.17986 0.74657 0.73072 0.0
H1379 H 0.30323 0.84402 0.98123 0.0
loop_
_geom_bond_atom_site_label_1
_geom_bond_atom_site_label_2
_geom_bond_distance
_geom_bond_site_symmetry_2
_ccdc_geom_bond_type
Zn0 O6 1.920 . S
Zn0 O12 1.898 . S
Zn0 O15 1.905 . S
Zn1 O9 1.905 . S
Zn1 O10 1.898 . S
Zn1 O18 1.920 . S
Zn2 O5 2.081 . S
Zn2 O8 2.114 1_554 S
Zn2 O11 2.120 1_554 S
Zn2 O13 2.120 . S
Zn2 O14 2.114 . S
Zn2 O17 2.080 1_554 S
C3 O8 1.166 . S
C3 O9 1.182 . S
C4 O10 1.167 . S
C4 O11 1.299 . S
O5 Zn2 2.081 . S
O5 C19 1.305 . S
O6 Zn0 1.920 . S
O6 C19 1.234 . S
C7 O12 1.167 . S
C7 O13 1.299 . S
O8 Zn2 2.114 1_556 S
O8 C3 1.166 . S
O9 Zn1 1.905 . S
O9 C3 1.182 . S
O10 Zn1 1.898 . S
O10 C4 1.167 . S
O11 Zn2 2.120 1_556 S
O11 C4 1.299 . S
O12 Zn0 1.898 . S
O12 C7 1.167 . S
O13 Zn2 2.120 . S
O13 C7 1.299 . S
O14 Zn2 2.114 . S
O14 C16 1.166 . S
O15 Zn0 1.905 . S
O15 C16 1.182 . S
C16 O14 1.166 . S
C16 O15 1.182 . S
O17 Zn2 2.080 1_556 S
O17 C20 1.305 . S
O18 Zn1 1.920 . S
O18 C20 1.234 . S
C19 O5 1.305 . S
C19 O6 1.234 . S
C20 O17 1.305 . S
C20 O18 1.234 . S
Zn21 O27 1.920 . S
Zn21 O33 1.898 . S
Zn21 O36 1.905 . S
Zn22 O30 1.905 . S
Zn22 O31 1.898 . S
Zn22 O39 1.920 . S
Zn23 O26 2.080 . S
Zn23 O29 2.114 . S
Zn23 O32 2.120 . S
Zn23 O34 2.120 . S
Zn23 O35 2.114 . S
Zn23 O38 2.080 . S
C24 O29 1.166 . S
C24 O30 1.182 . S
C25 O31 1.167 . S
C25 O32 1.299 . S
O26 Zn23 2.080 . S
O26 C40 1.305 . S
O27 Zn21 1.920 . S
O27 C40 1.234 . S
C28 O33 1.167 . S
C28 O34 1.299 . S
O29 Zn23 2.114 . S
O29 C24 1.166 . S
O30 Zn22 1.905 . S
O30 C24 1.182 . S
O31 Zn22 1.898 . S
O31 C25 1.167 . S
O32 Zn23 2.120 . S
O32 C25 1.299 . S
O33 Zn21 1.898 . S
O33 C28 1.167 . S
O34 Zn23 2.120 . S
O34 C28 1.299 . S
O35 Zn23 2.114 . S
O35 C37 1.166 . S
O36 Zn21 1.905 . S
O36 C37 1.182 . S
C37 O35 1.166 . S
C37 O36 1.182 . S
O38 Zn23 2.080 . S
O38 C41 1.305 . S
O39 Zn22 1.920 . S
O39 C41 1.234 . S
C40 O26 1.305 . S
C40 O27 1.234 . S
C41 O38 1.305 . S
C41 O39 1.234 . S
Zn42 O48 1.920 . S
Zn42 O54 1.898 . S
Zn42 O57 1.905 . S
Zn43 O51 1.905 . S
Zn43 O52 1.898 . S
Zn43 O60 1.920 . S
Zn44 O47 2.080 . S
Zn44 O50 2.114 . S
Zn44 O53 2.120 . S
Zn44 O55 2.120 1_554 S
Zn44 O56 2.124 . S
Zn44 O59 2.080 . S
C45 O50 1.166 . S
C45 O51 1.182 . S
C46 O52 1.167 . S
C46 O53 1.299 . S
O47 Zn44 2.080 . S
O47 C61 1.305 1_554 S
O48 Zn42 1.920 . S
O48 C61 1.234 . S
C49 O54 1.167 . S
C49 O55 1.299 . S
O50 Zn44 2.114 . S
O50 C45 1.166 . S
O51 Zn43 1.905 . S
O51 C45 1.182 . S
O52 Zn43 1.898 . S
O52 C46 1.167 . S
O53 Zn44 2.120 . S
O53 C46 1.299 . S
O54 Zn42 1.898 . S
O54 C49 1.167 . S
O55 Zn44 2.120 1_556 S
O55 C49 1.299 . S
O56 Zn44 2.124 . S
O56 C58 1.154 1_554 S
O57 Zn42 1.905 . S
O57 C58 1.182 . S
C58 O56 1.154 1_556 S
C58 O57 1.182 . S
O59 Zn44 2.080 . S
O59 C62 1.305 . S
O60 Zn43 1.920 . S
O60 C62 1.234 . S
C61 O47 1.305 1_556 S
C61 O48 1.234 . S
C62 O59 1.305 . S
C62 O60 1.234 . S
Zn63 O69 1.920 . S
Zn63 O75 1.898 . S
Zn63 O78 1.905 . S
Zn64 O72 1.905 . S
Zn64 O73 1.898 . S
Zn64 O81 1.920 . S
Zn65 O68 2.080 . S
Zn65 O71 2.114 . S
Zn65 O74 2.120 . S
Zn65 O76 2.120 . S
Zn65 O77 2.114 . S
Zn65 O80 2.080 . S
C66 O71 1.166 . S
C66 O72 1.182 . S
C67 O73 1.167 . S
C67 O74 1.299 . S
O68 Zn65 2.080 . S
O68 C82 1.305 . S
O69 Zn63 1.920 . S
O69 C82 1.234 . S
C70 O75 1.167 . S
C70 O76 1.299 . S
O71 Zn65 2.114 . S
O71 C66 1.166 . S
O72 Zn64 1.905 . S
O72 C66 1.182 . S
O73 Zn64 1.898 . S
O73 C67 1.167 . S
O74 Zn65 2.120 . S
O74 C67 1.299 . S
O75 Zn63 1.898 . S
O75 C70 1.167 . S
O76 Zn65 2.120 . S
O76 C70 1.299 . S
O77 Zn65 2.114 . S
O77 C79 1.166 . S
O78 Zn63 1.905 . S
O78 C79 1.182 . S
C79 O77 1.166 . S
C79 O78 1.182 . S
O80 Zn65 2.080 . S
O80 C83 1.305 . S
O81 Zn64 1.920 . S
O81 C83 1.234 . S
C82 O68 1.305 . S
C82 O69 1.234 . S
C83 O80 1.305 . S
C83 O81 1.234 . S
H84 C89 0.930 . S
H85 C92 0.930 . S
H86 C94 0.930 . S
H87 C88 1.016 . S
C88 H87 1.016 . S
C88 N95 1.286 . S
C89 H84 0.930 . S
C89 C90 1.397 . S
C89 C91 1.361 . S
C90 C89 1.397 . S
C90 C94 1.390 . S
C91 C89 1.361 . S
C91 C92 1.393 . S
C91 N95 1.413 . S
C92 H85 0.930 . S
C92 C91 1.393 . S
C92 C93 1.399 . S
C93 C92 1.399 . S
C93 C94 1.381 . S
C94 H86 0.930 . S
C94 C90 1.390 . S
C94 C93 1.381 . S
N95 C88 1.286 . S
N95 C91 1.413 . S
H96 C101 0.930 . S
H97 C104 0.930 . S
H98 C106 0.930 . S
H99 C100 1.016 . S
C100 H99 1.016 . S
C100 N107 1.286 . S
C101 H96 0.930 . S
C101 C102 1.397 . S
C101 C103 1.361 . S
C102 C101 1.397 . S
C102 C106 1.390 . S
C103 C101 1.361 . S
C103 C104 1.393 . S
C103 N107 1.413 . S
C104 H97 0.930 . S
C104 C103 1.393 . S
C104 C105 1.399 . S
C105 C104 1.399 . S
C105 C106 1.381 . S
C106 H98 0.930 . S
C106 C102 1.390 . S
C106 C105 1.381 . S
N107 C100 1.286 . S
N107 C103 1.413 . S
H108 C113 0.930 . S
H109 C116 0.930 . S
H110 C118 0.930 . S
H111 C112 1.016 . S
C112 H111 1.016 . S
C112 N119 1.286 . S
C113 H108 0.930 . S
C113 C114 1.397 . S
C113 C115 1.361 . S
C114 C113 1.397 . S
C114 C118 1.390 . S
C115 C113 1.361 . S
C115 C116 1.393 . S
C115 N119 1.413 . S
C116 H109 0.930 . S
C116 C115 1.393 . S
C116 C117 1.399 . S
C117 C116 1.399 . S
C117 C118 1.381 . S
C118 H110 0.930 . S
C118 C114 1.390 . S
C118 C117 1.381 . S
N119 C112 1.286 . S
N119 C115 1.413 . S
H120 C125 0.930 . S
H121 C128 0.930 . S
H122 C130 0.930 . S
H123 C124 1.016 . S
C124 H123 1.016 . S
C124 N131 1.286 . S
C125 H120 0.930 . S
C125 C126 1.397 . S
C125 C127 1.361 . S
C126 C125 1.397 . S
C126 C130 1.390 . S
C127 C125 1.361 . S
C127 C128 1.393 . S
C127 N131 1.413 . S
C128 H121 0.930 . S
C128 C127 1.393 . S
C128 C129 1.399 . S
C129 C128 1.399 . S
C129 C130 1.381 . S
C130 H122 0.930 . S
C130 C126 1.390 . S
C130 C129 1.381 . S
N131 C124 1.286 . S
N131 C127 1.413 . S
H132 C137 0.930 . S
H133 C140 0.930 . S
H134 C142 0.930 . S
H135 C136 1.016 . S
C136 H135 1.016 . S
C136 N143 1.286 . S
C137 H132 0.930 . S
C137 C138 1.397 . S
C137 C139 1.361 . S
C138 C137 1.397 . S
C138 C142 1.390 . S
C139 C137 1.361 . S
C139 C140 1.393 . S
C139 N143 1.413 . S
C140 H133 0.930 . S
C140 C139 1.393 . S
C140 C141 1.399 . S
C141 C140 1.399 . S
C141 C142 1.381 . S
C142 H134 0.930 . S
C142 C138 1.390 . S
C142 C141 1.381 . S
N143 C136 1.286 . S
N143 C139 1.413 . S
H144 C149 0.930 . S
H145 C152 0.930 . S
H146 C154 0.930 . S
H147 C148 1.016 . S
C148 H147 1.016 . S
C148 N155 1.286 . S
C149 H144 0.930 . S
C149 C150 1.397 . S
C149 C151 1.361 . S
C150 C149 1.397 . S
C150 C154 1.390 . S
C151 C149 1.361 . S
C151 C152 1.393 . S
C151 N155 1.413 . S
C152 H145 0.930 . S
C152 C151 1.393 . S
C152 C153 1.399 . S
C153 C152 1.399 . S
C153 C154 1.381 . S
C154 H146 0.930 . S
C154 C150 1.390 . S
C154 C153 1.381 . S
N155 C148 1.286 . S
N155 C151 1.413 . S
H156 C161 0.930 . S
H157 C164 0.930 . S
H158 C166 0.930 . S
H159 C160 1.016 . S
C160 H159 1.016 . S
C160 N167 1.286 . S
C161 H156 0.930 . S
C161 C162 1.397 . S
C161 C163 1.361 . S
C162 C161 1.397 . S
C162 C166 1.390 . S
C163 C161 1.361 . S
C163 C164 1.393 . S
C163 N167 1.413 . S
C164 H157 0.930 . S
C164 C163 1.393 . S
C164 C165 1.399 . S
C165 C164 1.399 . S
C165 C166 1.381 . S
C166 H158 0.930 . S
C166 C162 1.390 . S
C166 C165 1.381 . S
N167 C160 1.286 . S
N167 C163 1.413 . S
H168 C173 0.930 . S
H169 C176 0.930 . S
H170 C178 0.930 . S
H171 C172 1.016 . S
C172 H171 1.016 . S
C172 N179 1.286 . S
C173 H168 0.930 . S
C173 C174 1.397 . S
C173 C175 1.361 . S
C174 C173 1.397 . S
C174 C178 1.390 . S
C175 C173 1.361 . S
C175 C176 1.393 . S
C175 N179 1.413 . S
C176 H169 0.930 . S
C176 C175 1.393 . S
C176 C177 1.399 . S
C177 C176 1.399 . S
C177 C178 1.381 . S
C178 H170 0.930 . S
C178 C174 1.390 . S
C178 C177 1.381 . S
N179 C172 1.286 . S
N179 C175 1.413 . S
H180 C198 0.951 . S
H181 C200 0.951 . S
H182 C202 0.950 . S
H183 C203 0.950 . S
H184 C205 0.950 . S
H185 C208 0.950 . S
H186 C209 0.950 . S
H187 C211 0.950 . S
H188 C212 0.950 . S
H189 C213 0.951 . S
H190 C215 0.951 . S
H191 C217 0.950 . S
H192 C218 0.950 . S
H193 C220 0.950 . S
H194 C223 0.950 . S
H195 C224 0.950 . S
H196 C226 0.950 . S
H197 C227 0.950 . S
C198 H180 0.951 . S
C198 C199 1.366 . S
C198 C200 1.388 . S
C199 C198 1.366 . S
C199 C203 1.385 . S
C200 H181 0.951 . S
C200 C198 1.388 . S
C200 C201 1.366 . S
C201 C200 1.366 . S
C201 C202 1.414 . S
C201 C204 1.499 . S
C202 H182 0.950 . S
C202 C201 1.414 . S
C202 C203 1.374 . S
C203 H183 0.950 . S
C203 C199 1.385 . S
C203 C202 1.374 . S
C204 C201 1.499 . S
C204 C205 1.373 1_565 S
C204 C206 1.389 . S
C205 H184 0.950 . S
C205 C204 1.373 1_545 S
C205 C221 1.377 . S
C206 C204 1.389 . S
C206 C207 1.524 . S
C206 C220 1.377 1_565 S
C207 C206 1.524 . S
C207 C208 1.397 . S
C207 C212 1.363 . S
C208 H185 0.950 . S
C208 C207 1.397 . S
C208 C209 1.334 . S
C209 H186 0.950 . S
C209 C208 1.334 . S
C209 C210 1.287 . S
C210 C209 1.287 . S
C210 C211 1.524 . S
C210 H229 0.913 . S
C211 H187 0.950 . S
C211 C210 1.524 . S
C211 C212 1.415 . S
C212 H188 0.950 . S
C212 C207 1.363 . S
C212 C211 1.415 . S
C213 H189 0.951 . S
C213 C214 1.366 . S
C213 C215 1.388 . S
C214 C213 1.366 . S
C214 C218 1.385 . S
C215 H190 0.951 . S
C215 C213 1.388 . S
C215 C216 1.366 . S
C216 C215 1.366 . S
C216 C217 1.414 . S
C216 C219 1.499 . S
C217 H191 0.950 . S
C217 C216 1.414 . S
C217 C218 1.374 . S
C218 H192 0.950 . S
C218 C214 1.385 . S
C218 C217 1.374 . S
C219 C216 1.499 . S
C219 C220 1.373 . S
C219 C221 1.389 . S
C220 H193 0.950 . S
C220 C206 1.377 1_545 S
C220 C219 1.373 . S
C221 C205 1.377 . S
C221 C219 1.389 . S
C221 C222 1.524 . S
C222 C221 1.524 . S
C222 C223 1.397 . S
C222 C227 1.363 . S
C223 H194 0.950 . S
C223 C222 1.397 . S
C223 C224 1.334 . S
C224 H195 0.950 . S
C224 C223 1.334 . S
C224 C225 1.287 . S
C225 C224 1.287 . S
C225 C226 1.524 . S
C225 H228 0.999 . S
C226 H196 0.950 . S
C226 C225 1.524 . S
C226 C227 1.415 . S
C227 H197 0.950 . S
C227 C222 1.363 . S
C227 C226 1.415 . S
H228 C225 0.999 . S
H229 C210 0.913 . S
H230 C248 0.951 . S
H231 C250 0.951 . S
H232 C252 0.950 . S
H233 C253 0.950 . S
H234 C255 0.950 . S
H235 C258 0.950 . S
H236 C259 0.950 . S
H237 C261 0.950 . S
H238 C262 0.950 . S
H239 C263 0.951 . S
H240 C265 0.951 . S
H241 C267 0.950 . S
H242 C268 0.950 . S
H243 C270 0.950 . S
H244 C273 0.950 . S
H245 C274 0.950 . S
H246 C276 0.950 . S
H247 C277 0.950 . S
C248 H230 0.951 . S
C248 C249 1.366 . S
C248 C250 1.388 . S
C249 C248 1.366 . S
C249 C253 1.385 . S
C250 H231 0.951 . S
C250 C248 1.388 . S
C250 C251 1.366 . S
C251 C250 1.366 . S
C251 C252 1.414 . S
C251 C254 1.499 . S
C252 H232 0.950 . S
C252 C251 1.414 . S
C252 C253 1.374 . S
C253 H233 0.950 . S
C253 C249 1.385 . S
C253 C252 1.374 . S
C254 C251 1.499 . S
C254 C255 1.373 . S
C254 C256 1.389 . S
C255 H234 0.950 . S
C255 C254 1.373 . S
C255 C271 1.377 . S
C256 C254 1.389 . S
C256 C257 1.524 . S
C256 C270 1.377 . S
C257 C256 1.524 . S
C257 C258 1.397 . S
C257 C262 1.363 . S
C258 H235 0.950 . S
C258 C257 1.397 . S
C258 C259 1.334 . S
C259 H236 0.950 . S
C259 C258 1.334 . S
C259 C260 1.287 . S
C260 C259 1.287 . S
C260 C261 1.524 . S
C260 H279 0.913 . S
C261 H237 0.950 . S
C261 C260 1.524 . S
C261 C262 1.415 . S
C262 H238 0.950 . S
C262 C257 1.363 . S
C262 C261 1.415 . S
C263 H239 0.951 . S
C263 C264 1.366 . S
C263 C265 1.388 . S
C264 C263 1.366 . S
C264 C268 1.385 . S
C265 H240 0.951 . S
C265 C263 1.388 . S
C265 C266 1.366 . S
C266 C265 1.366 . S
C266 C267 1.414 . S
C266 C269 1.499 . S
C267 H241 0.950 . S
C267 C266 1.414 . S
C267 C268 1.374 . S
C268 H242 0.950 . S
C268 C264 1.385 . S
C268 C267 1.374 . S
C269 C266 1.499 . S
C269 C270 1.373 . S
C269 C271 1.389 . S
C270 H243 0.950 . S
C270 C256 1.377 . S
C270 C269 1.373 . S
C271 C255 1.377 . S
C271 C269 1.389 . S
C271 C272 1.524 . S
C272 C271 1.524 . S
C272 C273 1.397 . S
C272 C277 1.363 . S
C273 H244 0.950 . S
C273 C272 1.397 . S
C273 C274 1.334 . S
C274 H245 0.950 . S
C274 C273 1.334 . S
C274 C275 1.287 . S
C275 C274 1.287 . S
C275 C276 1.524 . S
C275 H278 0.999 . S
C276 H246 0.950 . S
C276 C275 1.524 . S
C276 C277 1.415 . S
C277 H247 0.950 . S
C277 C272 1.363 . S
C277 C276 1.415 . S
H278 C275 0.999 . S
H279 C260 0.913 . S
H280 C298 0.951 . S
H281 C300 0.951 . S
H282 C302 0.950 . S
H283 C303 0.950 . S
H284 C305 0.950 . S
H285 C308 0.950 1_545 S
H286 C309 0.950 . S
H287 C311 0.950 . S
H288 C312 0.950 . S
H289 C313 0.951 . S
H290 C315 0.951 . S
H291 C317 0.950 . S
H292 C318 0.950 . S
H293 C320 0.950 . S
H294 C323 0.950 . S
H295 C324 0.950 . S
H296 C326 0.950 . S
H297 C327 0.950 . S
C298 H280 0.951 . S
C298 C299 1.366 . S
C298 C300 1.388 . S
C299 C298 1.366 . S
C299 C303 1.385 . S
C300 H281 0.951 . S
C300 C298 1.388 . S
C300 C301 1.366 . S
C301 C300 1.366 . S
C301 C302 1.414 . S
C301 C304 1.499 . S
C302 H282 0.950 . S
C302 C301 1.414 . S
C302 C303 1.374 . S
C303 H283 0.950 . S
C303 C299 1.385 . S
C303 C302 1.374 . S
C304 C301 1.499 . S
C304 C305 1.373 . S
C304 C306 1.389 1_545 S
C305 H284 0.950 . S
C305 C304 1.373 . S
C305 C321 1.377 1_545 S
C306 C304 1.389 1_565 S
C306 C307 1.524 . S
C306 C320 1.377 . S
C307 C306 1.524 . S
C307 C308 1.397 . S
C307 C312 1.363 . S
C308 H285 0.950 1_565 S
C308 C307 1.397 . S
C308 C309 1.334 . S
C309 H286 0.950 . S
C309 C308 1.334 . S
C309 C310 1.287 . S
C310 C309 1.287 . S
C310 C311 1.524 . S
C310 H329 0.913 . S
C311 H287 0.950 . S
C311 C310 1.524 . S
C311 C312 1.415 . S
C312 H288 0.950 . S
C312 C307 1.363 . S
C312 C311 1.415 . S
C313 H289 0.951 . S
C313 C314 1.366 . S
C313 C315 1.388 . S
C314 C313 1.366 . S
C314 C318 1.385 . S
C315 H290 0.951 . S
C315 C313 1.388 . S
C315 C316 1.366 . S
C316 C315 1.366 . S
C316 C317 1.414 . S
C316 C319 1.499 . S
C317 H291 0.950 . S
C317 C316 1.414 . S
C317 C318 1.374 . S
C318 H292 0.950 . S
C318 C314 1.385 . S
C318 C317 1.374 . S
C319 C316 1.499 . S
C319 C320 1.373 . S
C319 C321 1.389 . S
C320 H293 0.950 . S
C320 C306 1.377 . S
C320 C319 1.373 . S
C321 C305 1.377 1_565 S
C321 C319 1.389 . S
C321 C322 1.524 1_565 S
C322 C321 1.524 1_545 S
C322 C323 1.397 1_545 S
C322 C327 1.363 . S
C323 H294 0.950 . S
C323 C322 1.397 1_565 S
C323 C324 1.334 . S
C324 H295 0.950 . S
C324 C323 1.334 . S
C324 C325 1.287 1_565 S
C325 C324 1.287 1_545 S
C325 C326 1.524 . S
C325 H328 0.999 . S
C326 H296 0.950 . S
C326 C325 1.524 . S
C326 C327 1.415 . S
C327 H297 0.950 . S
C327 C322 1.363 . S
C327 C326 1.415 . S
H328 C325 0.999 . S
H329 C310 0.913 . S
H330 C348 0.951 . S
H331 C350 0.951 . S
H332 C352 0.950 . S
H333 C353 0.950 . S
H334 C355 0.950 . S
H335 C358 0.950 . S
H336 C359 0.950 . S
H337 C361 0.950 . S
H338 C362 0.950 . S
H339 C363 0.951 . S
H340 C365 0.951 . S
H341 C367 0.950 . S
H342 C368 0.950 . S
H343 C370 0.950 . S
H344 C373 0.950 . S
H345 C374 0.950 . S
H346 C376 0.950 . S
H347 C377 0.950 . S
C348 H330 0.951 . S
C348 C349 1.366 . S
C348 C350 1.388 . S
C349 C348 1.366 . S
C349 C353 1.385 . S
C350 H331 0.951 . S
C350 C348 1.388 . S
C350 C351 1.366 . S
C351 C350 1.366 . S
C351 C352 1.414 . S
C351 C354 1.499 . S
C352 H332 0.950 . S
C352 C351 1.414 . S
C352 C353 1.374 . S
C353 H333 0.950 . S
C353 C349 1.385 . S
C353 C352 1.374 . S
C354 C351 1.499 . S
C354 C355 1.373 . S
C354 C356 1.389 . S
C355 H334 0.950 . S
C355 C354 1.373 . S
C355 C371 1.377 . S
C356 C354 1.389 . S
C356 C357 1.524 . S
C356 C370 1.377 . S
C357 C356 1.524 . S
C357 C358 1.397 . S
C357 C362 1.363 . S
C358 H335 0.950 . S
C358 C357 1.397 . S
C358 C359 1.334 . S
C359 H336 0.950 . S
C359 C358 1.334 . S
C359 C360 1.287 . S
C360 C359 1.287 . S
C360 C361 1.524 . S
C360 H379 0.913 . S
C361 H337 0.950 . S
C361 C360 1.524 . S
C361 C362 1.415 . S
C362 H338 0.950 . S
C362 C357 1.363 . S
C362 C361 1.415 . S
C363 H339 0.951 . S
C363 C364 1.366 . S
C363 C365 1.388 . S
C364 C363 1.366 . S
C364 C368 1.385 . S
C365 H340 0.951 . S
C365 C363 1.388 . S
C365 C366 1.366 . S
C366 C365 1.366 . S
C366 C367 1.414 . S
C366 C369 1.499 . S
C367 H341 0.950 . S
C367 C366 1.414 . S
C367 C368 1.374 . S
C368 H342 0.950 . S
C368 C364 1.385 . S
C368 C367 1.374 . S
C369 C366 1.499 . S
C369 C370 1.373 . S
C369 C371 1.389 . S
C370 H343 0.950 . S
C370 C356 1.377 . S
C370 C369 1.373 . S
C371 C355 1.377 . S
C371 C369 1.389 . S
C371 C372 1.524 . S
C372 C371 1.524 . S
C372 C373 1.397 . S
C372 C377 1.363 . S
C373 H344 0.950 . S
C373 C372 1.397 . S
C373 C374 1.334 . S
C374 H345 0.950 . S
C374 C373 1.334 . S
C374 C375 1.287 . S
C375 C374 1.287 . S
C375 C376 1.524 . S
C375 H378 0.999 . S
C376 H346 0.950 . S
C376 C375 1.524 . S
C376 C377 1.415 . S
C377 H347 0.950 . S
C377 C372 1.363 . S
C377 C376 1.415 . S
H378 C375 0.999 . S
H379 C360 0.913 . S
H380 C398 0.951 . S
H381 C400 0.951 . S
H382 C402 0.950 . S
H383 C403 0.950 . S
H384 C405 0.950 . S
H385 C408 0.950 . S
H386 C409 0.950 . S
H387 C411 0.950 . S
H388 C412 0.950 . S
H389 C413 0.951 . S
H390 C415 0.951 . S
H391 C417 0.950 . S
H392 C418 0.950 . S
H393 C420 0.950 . S
H394 C423 0.950 . S
H395 C424 0.950 . S
H396 C426 0.950 . S
H397 C427 0.950 . S
C398 H380 0.951 . S
C398 C399 1.366 . S
C398 C400 1.388 . S
C399 C398 1.366 . S
C399 C403 1.385 . S
C400 H381 0.951 . S
C400 C398 1.388 . S
C400 C401 1.366 . S
C401 C400 1.366 . S
C401 C402 1.414 . S
C401 C404 1.499 . S
C402 H382 0.950 . S
C402 C401 1.414 . S
C402 C403 1.374 . S
C403 H383 0.950 . S
C403 C399 1.385 . S
C403 C402 1.374 . S
C404 C401 1.499 . S
C404 C405 1.373 . S
C404 C406 1.389 . S
C405 H384 0.950 . S
C405 C404 1.373 . S
C405 C421 1.377 . S
C406 C404 1.389 . S
C406 C407 1.524 . S
C406 C420 1.377 . S
C407 C406 1.524 . S
C407 C408 1.397 . S
C407 C412 1.363 . S
C408 H385 0.950 . S
C408 C407 1.397 . S
C408 C409 1.334 . S
C409 H386 0.950 . S
C409 C408 1.334 . S
C409 C410 1.287 . S
C410 C409 1.287 . S
C410 C411 1.524 . S
C410 H429 0.913 . S
C411 H387 0.950 . S
C411 C410 1.524 . S
C411 C412 1.415 . S
C412 H388 0.950 . S
C412 C407 1.363 . S
C412 C411 1.415 . S
C413 H389 0.951 . S
C413 C414 1.366 . S
C413 C415 1.388 . S
C414 C413 1.366 . S
C414 C418 1.385 . S
C415 H390 0.951 . S
C415 C413 1.388 . S
C415 C416 1.366 . S
C416 C415 1.366 . S
C416 C417 1.414 . S
C416 C419 1.499 . S
C417 H391 0.950 . S
C417 C416 1.414 . S
C417 C418 1.374 . S
C418 H392 0.950 . S
C418 C414 1.385 . S
C418 C417 1.374 . S
C419 C416 1.499 . S
C419 C420 1.373 . S
C419 C421 1.389 . S
C420 H393 0.950 . S
C420 C406 1.377 . S
C420 C419 1.373 . S
C421 C405 1.377 . S
C421 C419 1.389 . S
C421 C422 1.524 . S
C422 C421 1.524 . S
C422 C423 1.397 . S
C422 C427 1.363 . S
C423 H394 0.950 . S
C423 C422 1.397 . S
C423 C424 1.334 . S
C424 H395 0.950 . S
C424 C423 1.334 . S
C424 C425 1.287 . S
C425 C424 1.287 . S
C425 C426 1.524 . S
C425 H428 0.999 . S
C426 H396 0.950 . S
C426 C425 1.524 . S
C426 C427 1.415 . S
C427 H397 0.950 . S
C427 C422 1.363 . S
C427 C426 1.415 . S
H428 C425 0.999 . S
H429 C410 0.913 . S
H430 C448 0.951 . S
H431 C450 0.951 . S
H432 C452 0.950 . S
H433 C453 0.950 . S
H434 C455 0.950 . S
H435 C458 0.950 . S
H436 C459 0.950 . S
H437 C461 0.950 . S
H438 C462 0.950 . S
H439 C463 0.951 . S
H440 C465 0.951 . S
H441 C467 0.950 1_655 S
H442 C468 0.950 . S
H443 C470 0.950 . S
H444 C473 0.950 . S
H445 C474 0.950 . S
H446 C476 0.950 . S
H447 C477 0.950 . S
C448 H430 0.951 . S
C448 C449 1.366 . S
C448 C450 1.388 . S
C449 C448 1.366 . S
C449 C453 1.385 . S
C450 H431 0.951 . S
C450 C448 1.388 . S
C450 C451 1.366 . S
C451 C450 1.366 . S
C451 C452 1.414 . S
C451 C454 1.499 . S
C452 H432 0.950 . S
C452 C451 1.414 . S
C452 C453 1.374 . S
C453 H433 0.950 . S
C453 C449 1.385 . S
C453 C452 1.374 . S
C454 C451 1.499 . S
C454 C455 1.373 . S
C454 C456 1.389 . S
C455 H434 0.950 . S
C455 C454 1.373 . S
C455 C471 1.377 1_655 S
C456 C454 1.389 . S
C456 C457 1.524 . S
C456 C470 1.377 . S
C457 C456 1.524 . S
C457 C458 1.397 . S
C457 C462 1.363 . S
C458 H435 0.950 . S
C458 C457 1.397 . S
C458 C459 1.334 . S
C459 H436 0.950 . S
C459 C458 1.334 . S
C459 C460 1.287 . S
C460 C459 1.287 . S
C460 C461 1.524 . S
C460 H479 0.913 . S
C461 H437 0.950 . S
C461 C460 1.524 . S
C461 C462 1.415 . S
C462 H438 0.950 . S
C462 C457 1.363 . S
C462 C461 1.415 . S
C463 H439 0.951 . S
C463 C464 1.366 . S
C463 C465 1.388 . S
C464 C463 1.366 . S
C464 C468 1.385 . S
C465 H440 0.951 . S
C465 C463 1.388 . S
C465 C466 1.366 . S
C466 C465 1.366 . S
C466 C467 1.414 . S
C466 C469 1.499 . S
C467 H441 0.950 1_455 S
C467 C466 1.414 . S
C467 C468 1.374 . S
C468 H442 0.950 . S
C468 C464 1.385 . S
C468 C467 1.374 . S
C469 C466 1.499 . S
C469 C470 1.373 1_455 S
C469 C471 1.389 . S
C470 H443 0.950 . S
C470 C456 1.377 . S
C470 C469 1.373 1_655 S
C471 C455 1.377 1_455 S
C471 C469 1.389 . S
C471 C472 1.524 . S
C472 C471 1.524 . S
C472 C473 1.397 . S
C472 C477 1.363 . S
C473 H444 0.950 . S
C473 C472 1.397 . S
C473 C474 1.334 . S
C474 H445 0.950 . S
C474 C473 1.334 . S
C474 C475 1.287 . S
C475 C474 1.287 . S
C475 C476 1.524 . S
C475 H478 0.999 . S
C476 H446 0.950 . S
C476 C475 1.524 . S
C476 C477 1.415 . S
C477 H447 0.950 . S
C477 C472 1.363 . S
C477 C476 1.415 . S
H478 C475 0.999 . S
H479 C460 0.913 . S
H480 C498 0.951 . S
H481 C500 0.951 . S
H482 C502 0.950 . S
H483 C503 0.950 . S
H484 C505 0.950 . S
H485 C508 0.950 . S
H486 C509 0.950 . S
H487 C511 0.950 . S
H488 C512 0.950 . S
H489 C513 0.951 . S
H490 C515 0.951 . S
H491 C517 0.950 . S
H492 C518 0.950 . S
H493 C520 0.950 . S
H494 C523 0.950 . S
H495 C524 0.950 . S
H496 C526 0.950 . S
H497 C527 0.950 . S
C498 H480 0.951 . S
C498 C499 1.366 . S
C498 C500 1.388 . S
C499 C498 1.366 . S
C499 C503 1.385 . S
C500 H481 0.951 . S
C500 C498 1.388 . S
C500 C501 1.366 . S
C501 C500 1.366 . S
C501 C502 1.414 . S
C501 C504 1.499 . S
C502 H482 0.950 . S
C502 C501 1.414 . S
C502 C503 1.374 . S
C503 H483 0.950 . S
C503 C499 1.385 . S
C503 C502 1.374 . S
C504 C501 1.499 . S
C504 C505 1.373 . S
C504 C506 1.389 . S
C505 H484 0.950 . S
C505 C504 1.373 . S
C505 C521 1.377 . S
C506 C504 1.389 . S
C506 C507 1.524 . S
C506 C520 1.377 . S
C507 C506 1.524 . S
C507 C508 1.397 . S
C507 C512 1.363 . S
C508 H485 0.950 . S
C508 C507 1.397 . S
C508 C509 1.334 . S
C509 H486 0.950 . S
C509 C508 1.334 . S
C509 C510 1.287 . S
C510 C509 1.287 . S
C510 C511 1.524 . S
C510 H529 0.913 . S
C511 H487 0.950 . S
C511 C510 1.524 . S
C511 C512 1.415 . S
C512 H488 0.950 . S
C512 C507 1.363 . S
C512 C511 1.415 . S
C513 H489 0.951 . S
C513 C514 1.366 . S
C513 C515 1.388 . S
C514 C513 1.366 . S
C514 C518 1.385 . S
C515 H490 0.951 . S
C515 C513 1.388 . S
C515 C516 1.366 . S
C516 C515 1.366 . S
C516 C517 1.414 . S
C516 C519 1.499 . S
C517 H491 0.950 . S
C517 C516 1.414 . S
C517 C518 1.374 . S
C518 H492 0.950 . S
C518 C514 1.385 . S
C518 C517 1.374 . S
C519 C516 1.499 . S
C519 C520 1.373 . S
C519 C521 1.389 . S
C520 H493 0.950 . S
C520 C506 1.377 . S
C520 C519 1.373 . S
C521 C505 1.377 . S
C521 C519 1.389 . S
C521 C522 1.524 . S
C522 C521 1.524 . S
C522 C523 1.397 . S
C522 C527 1.363 . S
C523 H494 0.950 . S
C523 C522 1.397 . S
C523 C524 1.334 . S
C524 H495 0.950 . S
C524 C523 1.334 . S
C524 C525 1.287 . S
C525 C524 1.287 . S
C525 C526 1.524 . S
C525 H528 0.999 . S
C526 H496 0.950 . S
C526 C525 1.524 . S
C526 C527 1.415 . S
C527 H497 0.950 . S
C527 C522 1.363 . S
C527 C526 1.415 . S
H528 C525 0.999 . S
H529 C510 0.913 . S
H530 C548 0.951 . S
H531 C550 0.951 . S
H532 C552 0.950 . S
H533 C553 0.950 1_554 S
H534 C555 0.935 1_455 S
H535 C558 0.950 . S
H536 C559 0.950 . S
H537 C561 0.950 . S
H538 C562 0.950 . S
H539 C563 0.951 . S
H540 C565 0.951 . S
H541 C567 0.950 . S
H542 C568 0.950 . S
H543 C570 0.950 . S
H544 C573 0.950 . S
H545 C574 0.950 . S
H546 C576 0.960 . S
H547 C577 0.950 . S
C548 H530 0.951 . S
C548 C549 1.366 . S
C548 C550 1.388 . S
C549 C548 1.366 . S
C549 C553 1.385 . S
C550 H531 0.951 . S
C550 C548 1.388 . S
C550 C551 1.366 . S
C551 C550 1.366 . S
C551 C552 1.414 . S
C551 C554 1.499 . S
C552 H532 0.950 . S
C552 C551 1.414 . S
C552 C553 1.374 . S
C553 H533 0.950 1_556 S
C553 C549 1.385 . S
C553 C552 1.374 . S
C554 C551 1.499 . S
C554 C555 1.353 1_455 S
C554 C556 1.401 . S
C555 H534 0.935 1_655 S
C555 C554 1.353 1_655 S
C555 C571 1.414 . S
C556 C554 1.401 . S
C556 C557 1.535 . S
C556 C570 1.352 1_455 S
C557 C556 1.535 . S
C557 C558 1.397 . S
C557 C562 1.363 . S
C558 H535 0.950 . S
C558 C557 1.397 . S
C558 C559 1.334 . S
C559 H536 0.950 . S
C559 C558 1.334 . S
C559 C560 1.287 . S
C560 C559 1.287 . S
C560 C561 1.524 . S
C560 H579 0.913 . S
C561 H537 0.950 . S
C561 C560 1.524 . S
C561 C562 1.415 . S
C562 H538 0.950 . S
C562 C557 1.363 . S
C562 C561 1.415 . S
C563 H539 0.951 . S
C563 C564 1.366 . S
C563 C565 1.388 . S
C564 C563 1.366 . S
C564 C568 1.385 . S
C565 H540 0.951 . S
C565 C563 1.388 . S
C565 C566 1.366 . S
C566 C565 1.366 . S
C566 C567 1.414 . S
C566 C569 1.499 . S
C567 H541 0.950 . S
C567 C566 1.414 . S
C567 C568 1.374 . S
C568 H542 0.950 . S
C568 C564 1.385 . S
C568 C567 1.374 . S
C569 C566 1.499 . S
C569 C570 1.373 . S
C569 C571 1.389 . S
C570 H543 0.950 . S
C570 C556 1.352 1_655 S
C570 C569 1.373 . S
C571 C555 1.414 . S
C571 C569 1.389 . S
C571 C572 1.524 . S
C572 C571 1.524 . S
C572 C573 1.397 . S
C572 C577 1.363 . S
C573 H544 0.950 . S
C573 C572 1.397 . S
C573 C574 1.334 . S
C574 H545 0.950 . S
C574 C573 1.334 . S
C574 C575 1.287 . S
C575 C574 1.287 . S
C575 C576 1.524 . S
C575 H578 0.999 . S
C576 H546 0.960 . S
C576 C575 1.524 . S
C576 C577 1.415 . S
C577 H547 0.950 . S
C577 C572 1.363 . S
C577 C576 1.415 . S
H578 C575 0.999 . S
H579 C560 0.913 . S
H580 C598 0.951 . S
H581 C600 0.951 . S
H582 C602 0.950 . S
H583 C603 0.950 . S
H584 C605 0.950 . S
H585 C608 0.950 . S
H586 C609 0.950 . S
H587 C611 0.950 . S
H588 C612 0.950 . S
H589 C613 0.951 . S
H590 C615 0.951 . S
H591 C617 0.950 . S
H592 C618 0.950 . S
H593 C620 0.950 . S
H594 C623 0.950 . S
H595 C624 0.950 . S
H596 C626 0.950 . S
H597 C627 0.950 . S
C598 H580 0.951 . S
C598 C599 1.366 . S
C598 C600 1.388 . S
C599 C598 1.366 . S
C599 C603 1.385 . S
C600 H581 0.951 . S
C600 C598 1.388 . S
C600 C601 1.366 . S
C601 C600 1.366 . S
C601 C602 1.414 . S
C601 C604 1.499 1_545 S
C602 H582 0.950 . S
C602 C601 1.414 . S
C602 C603 1.374 . S
C603 H583 0.950 . S
C603 C599 1.385 . S
C603 C602 1.374 . S
C604 C601 1.499 1_565 S
C604 C605 1.373 . S
C604 C606 1.389 . S
C605 H584 0.950 . S
C605 C604 1.373 . S
C605 C621 1.377 . S
C606 C604 1.389 . S
C606 C607 1.524 . S
C606 C620 1.377 . S
C607 C606 1.524 . S
C607 C608 1.397 1_556 S
C607 C612 1.363 . S
C608 H585 0.950 . S
C608 C607 1.397 1_554 S
C608 C609 1.334 . S
C609 H586 0.950 . S
C609 C608 1.334 . S
C609 C610 1.287 . S
C610 C609 1.287 . S
C610 C611 1.524 . S
C610 H629 0.913 . S
C611 H587 0.950 . S
C611 C610 1.524 . S
C611 C612 1.415 1_554 S
C612 H588 0.950 . S
C612 C607 1.363 . S
C612 C611 1.415 1_556 S
C613 H589 0.951 . S
C613 C614 1.366 . S
C613 C615 1.388 . S
C614 C613 1.366 . S
C614 C618 1.385 . S
C615 H590 0.951 . S
C615 C613 1.388 . S
C615 C616 1.366 . S
C616 C615 1.366 . S
C616 C617 1.414 . S
C616 C619 1.499 . S
C617 H591 0.950 . S
C617 C616 1.414 . S
C617 C618 1.374 . S
C618 H592 0.950 . S
C618 C614 1.385 . S
C618 C617 1.374 . S
C619 C616 1.499 . S
C619 C620 1.373 . S
C619 C621 1.389 . S
C620 H593 0.950 . S
C620 C606 1.377 . S
C620 C619 1.373 . S
C621 C605 1.377 . S
C621 C619 1.389 . S
C621 C622 1.524 . S
C622 C621 1.524 . S
C622 C623 1.397 . S
C622 C627 1.363 . S
C623 H594 0.950 . S
C623 C622 1.397 . S
C623 C624 1.334 . S
C624 H595 0.950 . S
C624 C623 1.334 . S
C624 C625 1.287 . S
C625 C624 1.287 . S
C625 C626 1.524 . S
C625 H628 0.999 . S
C626 H596 0.950 . S
C626 C625 1.524 . S
C626 C627 1.415 . S
C627 H597 0.950 . S
C627 C622 1.363 . S
C627 C626 1.415 . S
H628 C625 0.999 . S
H629 C610 0.913 . S
H630 C648 0.951 . S
H631 C650 0.951 . S
H632 C652 0.950 . S
H633 C653 0.950 . S
H634 C655 0.950 . S
H635 C658 0.950 . S
H636 C659 0.950 . S
H637 C661 0.950 . S
H638 C662 0.950 . S
H639 C663 0.951 . S
H640 C665 0.951 . S
H641 C667 0.950 . S
H642 C668 0.950 . S
H643 C670 0.950 . S
H644 C673 0.950 . S
H645 C674 0.950 . S
H646 C676 0.950 . S
H647 C677 0.950 . S
C648 H630 0.951 . S
C648 C649 1.366 . S
C648 C650 1.388 . S
C649 C648 1.366 . S
C649 C653 1.385 . S
C650 H631 0.951 . S
C650 C648 1.388 . S
C650 C651 1.366 . S
C651 C650 1.366 . S
C651 C652 1.414 . S
C651 C654 1.499 . S
C652 H632 0.950 . S
C652 C651 1.414 . S
C652 C653 1.374 . S
C653 H633 0.950 . S
C653 C649 1.385 . S
C653 C652 1.374 . S
C654 C651 1.499 . S
C654 C655 1.373 . S
C654 C656 1.389 . S
C655 H634 0.950 . S
C655 C654 1.373 . S
C655 C671 1.377 . S
C656 C654 1.389 . S
C656 C657 1.524 . S
C656 C670 1.377 . S
C657 C656 1.524 . S
C657 C658 1.397 . S
C657 C662 1.363 . S
C658 H635 0.950 . S
C658 C657 1.397 . S
C658 C659 1.334 . S
C659 H636 0.950 . S
C659 C658 1.334 . S
C659 C660 1.287 . S
C660 C659 1.287 . S
C660 C661 1.524 . S
C660 H679 0.913 . S
C661 H637 0.950 . S
C661 C660 1.524 . S
C661 C662 1.415 . S
C662 H638 0.950 . S
C662 C657 1.363 . S
C662 C661 1.415 . S
C663 H639 0.951 . S
C663 C664 1.366 . S
C663 C665 1.388 . S
C664 C663 1.366 . S
C664 C668 1.385 . S
C665 H640 0.951 . S
C665 C663 1.388 . S
C665 C666 1.366 . S
C666 C665 1.366 . S
C666 C667 1.414 . S
C666 C669 1.499 . S
C667 H641 0.950 . S
C667 C666 1.414 . S
C667 C668 1.374 . S
C668 H642 0.950 . S
C668 C664 1.385 . S
C668 C667 1.374 . S
C669 C666 1.499 . S
C669 C670 1.373 . S
C669 C671 1.389 . S
C670 H643 0.950 . S
C670 C656 1.377 . S
C670 C669 1.373 . S
C671 C655 1.377 . S
C671 C669 1.389 . S
C671 C672 1.524 . S
C672 C671 1.524 . S
C672 C673 1.397 . S
C672 C677 1.363 . S
C673 H644 0.950 . S
C673 C672 1.397 . S
C673 C674 1.334 . S
C674 H645 0.950 . S
C674 C673 1.334 . S
C674 C675 1.287 . S
C675 C674 1.287 . S
C675 C676 1.524 . S
C675 H678 0.999 . S
C676 H646 0.950 . S
C676 C675 1.524 . S
C676 C677 1.415 . S
C677 H647 0.950 . S
C677 C672 1.363 . S
C677 C676 1.415 . S
H678 C675 0.999 . S
H679 C660 0.913 . S
H680 C698 0.951 . S
H681 C700 0.951 1_545 S
H682 C702 0.950 . S
H683 C703 0.950 . S
H684 C705 0.950 . S
H685 C708 0.950 . S
H686 C709 0.950 . S
H687 C711 0.950 . S
H688 C712 0.950 . S
H689 C713 0.951 . S
H690 C715 0.951 . S
H691 C717 0.950 . S
H692 C718 0.950 . S
H693 C720 0.950 . S
H694 C723 0.950 . S
H695 C724 0.950 . S
H696 C726 0.950 . S
H697 C727 0.950 . S
C698 H680 0.951 . S
C698 C699 1.366 . S
C698 C700 1.388 . S
C699 C698 1.366 . S
C699 C703 1.385 . S
C700 H681 0.951 1_565 S
C700 C698 1.388 . S
C700 C701 1.366 . S
C701 C700 1.366 . S
C701 C702 1.414 . S
C701 C704 1.499 1_565 S
C702 H682 0.950 . S
C702 C701 1.414 . S
C702 C703 1.374 . S
C703 H683 0.950 . S
C703 C699 1.385 . S
C703 C702 1.374 . S
C704 C701 1.499 1_545 S
C704 C705 1.373 . S
C704 C706 1.389 . S
C705 H684 0.950 . S
C705 C704 1.373 . S
C705 C721 1.377 . S
C706 C704 1.389 . S
C706 C707 1.524 . S
C706 C720 1.377 . S
C707 C706 1.524 . S
C707 C708 1.397 1_545 S
C707 C712 1.363 . S
C708 H685 0.950 . S
C708 C707 1.397 1_565 S
C708 C709 1.334 . S
C709 H686 0.950 . S
C709 C708 1.334 . S
C709 C710 1.287 . S
C710 C709 1.287 . S
C710 C711 1.524 1_565 S
C710 H729 0.913 . S
C711 H687 0.950 . S
C711 C710 1.524 1_545 S
C711 C712 1.415 . S
C712 H688 0.950 . S
C712 C707 1.363 . S
C712 C711 1.415 . S
C713 H689 0.951 . S
C713 C714 1.366 . S
C713 C715 1.388 . S
C714 C713 1.366 . S
C714 C718 1.385 . S
C715 H690 0.951 . S
C715 C713 1.388 . S
C715 C716 1.366 . S
C716 C715 1.366 . S
C716 C717 1.414 . S
C716 C719 1.499 . S
C717 H691 0.950 . S
C717 C716 1.414 . S
C717 C718 1.374 . S
C718 H692 0.950 . S
C718 C714 1.385 . S
C718 C717 1.374 . S
C719 C716 1.499 . S
C719 C720 1.373 . S
C719 C721 1.389 . S
C720 H693 0.950 . S
C720 C706 1.377 . S
C720 C719 1.373 . S
C721 C705 1.377 . S
C721 C719 1.389 . S
C721 C722 1.524 . S
C722 C721 1.524 . S
C722 C723 1.397 . S
C722 C727 1.363 . S
C723 H694 0.950 . S
C723 C722 1.397 . S
C723 C724 1.334 . S
C724 H695 0.950 . S
C724 C723 1.334 . S
C724 C725 1.287 . S
C725 C724 1.287 . S
C725 C726 1.524 . S
C725 H728 0.999 . S
C726 H696 0.950 . S
C726 C725 1.524 . S
C726 C727 1.415 . S
C727 H697 0.950 . S
C727 C722 1.363 . S
C727 C726 1.415 . S
H728 C725 0.999 . S
H729 C710 0.913 . S
H730 C748 0.951 . S
H731 C750 0.951 . S
H732 C752 0.950 . S
H733 C753 0.950 . S
H734 C755 0.950 . S
H735 C758 0.950 . S
H736 C759 0.950 . S
H737 C761 0.950 . S
H738 C762 0.950 . S
H739 C763 0.951 . S
H740 C765 0.951 . S
H741 C767 0.950 . S
H742 C768 0.950 . S
H743 C770 0.950 . S
H744 C773 0.950 . S
H745 C774 0.950 . S
H746 C776 0.950 . S
H747 C777 0.950 . S
C748 H730 0.951 . S
C748 C749 1.366 . S
C748 C750 1.388 . S
C749 C748 1.366 . S
C749 C753 1.385 . S
C750 H731 0.951 . S
C750 C748 1.388 . S
C750 C751 1.366 . S
C751 C750 1.366 . S
C751 C752 1.414 . S
C751 C754 1.499 . S
C752 H732 0.950 . S
C752 C751 1.414 . S
C752 C753 1.374 . S
C753 H733 0.950 . S
C753 C749 1.385 . S
C753 C752 1.374 . S
C754 C751 1.499 . S
C754 C755 1.373 . S
C754 C756 1.389 . S
C755 H734 0.950 . S
C755 C754 1.373 . S
C755 C771 1.377 . S
C756 C754 1.389 . S
C756 C757 1.524 . S
C756 C770 1.377 . S
C757 C756 1.524 . S
C757 C758 1.397 . S
C757 C762 1.363 . S
C758 H735 0.950 . S
C758 C757 1.397 . S
C758 C759 1.334 . S
C759 H736 0.950 . S
C759 C758 1.334 . S
C759 C760 1.287 . S
C760 C759 1.287 . S
C760 C761 1.524 . S
C760 H779 0.913 . S
C761 H737 0.950 . S
C761 C760 1.524 . S
C761 C762 1.415 . S
C762 H738 0.950 . S
C762 C757 1.363 . S
C762 C761 1.415 . S
C763 H739 0.951 . S
C763 C764 1.366 . S
C763 C765 1.388 . S
C764 C763 1.366 . S
C764 C768 1.385 . S
C765 H740 0.951 . S
C765 C763 1.388 . S
C765 C766 1.366 . S
C766 C765 1.366 . S
C766 C767 1.414 . S
C766 C769 1.499 . S
C767 H741 0.950 . S
C767 C766 1.414 . S
C767 C768 1.374 . S
C768 H742 0.950 . S
C768 C764 1.385 . S
C768 C767 1.374 . S
C769 C766 1.499 . S
C769 C770 1.373 . S
C769 C771 1.389 . S
C770 H743 0.950 . S
C770 C756 1.377 . S
C770 C769 1.373 . S
C771 C755 1.377 . S
C771 C769 1.389 . S
C771 C772 1.524 . S
C772 C771 1.524 . S
C772 C773 1.397 . S
C772 C777 1.363 . S
C773 H744 0.950 . S
C773 C772 1.397 . S
C773 C774 1.334 . S
C774 H745 0.950 . S
C774 C773 1.334 . S
C774 C775 1.287 . S
C775 C774 1.287 . S
C775 C776 1.524 . S
C775 H778 0.999 . S
C776 H746 0.950 . S
C776 C775 1.524 . S
C776 C777 1.415 . S
C777 H747 0.950 . S
C777 C772 1.363 . S
C777 C776 1.415 . S
H778 C775 0.999 . S
H779 C760 0.913 . S
H780 C798 0.951 . S
H781 C800 0.951 . S
H782 C802 0.950 . S
H783 C803 0.950 . S
H784 C805 0.950 . S
H785 C808 0.950 . S
H786 C809 0.950 . S
H787 C811 0.950 . S
H788 C812 0.950 . S
H789 C813 0.951 . S
H790 C815 0.951 . S
H791 C817 0.950 . S
H792 C818 0.950 . S
H793 C820 0.950 . S
H794 C823 0.950 . S
H795 C824 0.950 . S
H796 C826 0.950 . S
H797 C827 0.950 . S
C798 H780 0.951 . S
C798 C799 1.366 . S
C798 C800 1.388 . S
C799 C798 1.366 . S
C799 C803 1.385 . S
C800 H781 0.951 . S
C800 C798 1.388 . S
C800 C801 1.366 . S
C801 C800 1.366 . S
C801 C802 1.414 . S
C801 C804 1.499 . S
C802 H782 0.950 . S
C802 C801 1.414 . S
C802 C803 1.374 . S
C803 H783 0.950 . S
C803 C799 1.385 . S
C803 C802 1.374 . S
C804 C801 1.499 . S
C804 C805 1.373 . S
C804 C806 1.389 . S
C805 H784 0.950 . S
C805 C804 1.373 . S
C805 C821 1.377 . S
C806 C804 1.389 . S
C806 C807 1.524 . S
C806 C820 1.377 . S
C807 C806 1.524 . S
C807 C808 1.397 . S
C807 C812 1.363 . S
C808 H785 0.950 . S
C808 C807 1.397 . S
C808 C809 1.334 . S
C809 H786 0.950 . S
C809 C808 1.334 . S
C809 C810 1.287 . S
C810 C809 1.287 . S
C810 C811 1.524 . S
C810 H829 0.913 . S
C811 H787 0.950 . S
C811 C810 1.524 . S
C811 C812 1.415 . S
C812 H788 0.950 . S
C812 C807 1.363 . S
C812 C811 1.415 . S
C813 H789 0.951 . S
C813 C814 1.366 . S
C813 C815 1.388 . S
C814 C813 1.366 . S
C814 C818 1.385 . S
C815 H790 0.951 . S
C815 C813 1.388 . S
C815 C816 1.366 . S
C816 C815 1.366 . S
C816 C817 1.414 . S
C816 C819 1.499 . S
C817 H791 0.950 . S
C817 C816 1.414 . S
C817 C818 1.374 . S
C818 H792 0.950 . S
C818 C814 1.385 . S
C818 C817 1.374 . S
C819 C816 1.499 . S
C819 C820 1.373 . S
C819 C821 1.389 . S
C820 H793 0.950 . S
C820 C806 1.377 . S
C820 C819 1.373 . S
C821 C805 1.377 . S
C821 C819 1.389 . S
C821 C822 1.524 . S
C822 C821 1.524 . S
C822 C823 1.397 . S
C822 C827 1.363 . S
C823 H794 0.950 . S
C823 C822 1.397 . S
C823 C824 1.334 . S
C824 H795 0.950 . S
C824 C823 1.334 . S
C824 C825 1.287 . S
C825 C824 1.287 . S
C825 C826 1.524 . S
C825 H828 0.999 . S
C826 H796 0.950 . S
C826 C825 1.524 . S
C826 C827 1.415 . S
C827 H797 0.950 . S
C827 C822 1.363 . S
C827 C826 1.415 . S
H828 C825 0.999 . S
H829 C810 0.913 . S
H830 C848 0.951 . S
H831 C850 0.951 . S
H832 C852 0.950 . S
H833 C853 0.950 . S
H834 C855 0.950 . S
H835 C858 0.950 . S
H836 C859 0.950 . S
H837 C861 0.950 . S
H838 C862 0.950 . S
H839 C863 0.951 . S
H840 C865 0.951 . S
H841 C867 0.950 . S
H842 C868 0.950 . S
H843 C870 0.950 . S
H844 C873 0.950 . S
H845 C874 0.950 . S
H846 C876 0.950 . S
H847 C877 0.950 . S
C848 H830 0.951 . S
C848 C849 1.366 . S
C848 C850 1.388 . S
C849 C848 1.366 . S
C849 C853 1.385 . S
C850 H831 0.951 . S
C850 C848 1.388 . S
C850 C851 1.366 . S
C851 C850 1.366 . S
C851 C852 1.414 . S
C851 C854 1.520 . S
C852 H832 0.950 . S
C852 C851 1.414 . S
C852 C853 1.374 . S
C853 H833 0.950 . S
C853 C849 1.385 . S
C853 C852 1.374 . S
C854 C851 1.520 . S
C854 C855 1.353 1_455 S
C854 C856 1.388 1_455 S
C855 H834 0.950 . S
C855 C854 1.353 1_655 S
C855 C871 1.377 . S
C856 C854 1.388 1_655 S
C856 C857 1.524 1_655 S
C856 C870 1.377 . S
C857 C856 1.524 1_455 S
C857 C858 1.397 . S
C857 C862 1.363 . S
C858 H835 0.950 . S
C858 C857 1.397 . S
C858 C859 1.334 . S
C859 H836 0.950 . S
C859 C858 1.334 . S
C859 C860 1.287 . S
C860 C859 1.287 . S
C860 C861 1.524 . S
C860 H879 0.913 . S
C861 H837 0.950 . S
C861 C860 1.524 . S
C861 C862 1.415 . S
C862 H838 0.950 . S
C862 C857 1.363 . S
C862 C861 1.415 . S
C863 H839 0.951 . S
C863 C864 1.366 . S
C863 C865 1.388 . S
C864 C863 1.366 . S
C864 C868 1.385 . S
C865 H840 0.951 . S
C865 C863 1.388 . S
C865 C866 1.366 . S
C866 C865 1.366 . S
C866 C867 1.414 . S
C866 C869 1.499 . S
C867 H841 0.950 . S
C867 C866 1.414 . S
C867 C868 1.374 . S
C868 H842 0.950 . S
C868 C864 1.385 . S
C868 C867 1.374 . S
C869 C866 1.499 . S
C869 C870 1.373 . S
C869 C871 1.389 . S
C870 H843 0.950 . S
C870 C856 1.377 . S
C870 C869 1.373 . S
C871 C855 1.377 . S
C871 C869 1.389 . S
C871 C872 1.524 . S
C872 C871 1.524 . S
C872 C873 1.397 . S
C872 C877 1.363 . S
C873 H844 0.950 . S
C873 C872 1.397 . S
C873 C874 1.334 . S
C874 H845 0.950 . S
C874 C873 1.334 . S
C874 C875 1.287 . S
C875 C874 1.287 . S
C875 C876 1.524 . S
C875 H878 0.999 . S
C876 H846 0.950 . S
C876 C875 1.524 . S
C876 C877 1.415 . S
C877 H847 0.950 . S
C877 C872 1.363 . S
C877 C876 1.415 . S
H878 C875 0.999 . S
H879 C860 0.913 . S
H880 C898 0.951 . S
H881 C900 0.951 . S
H882 C902 0.950 . S
H883 C903 0.950 . S
H884 C905 0.950 . S
H885 C908 0.950 . S
H886 C909 0.950 . S
H887 C911 0.950 . S
H888 C912 0.950 . S
H889 C913 0.951 . S
H890 C915 0.951 . S
H891 C917 0.950 . S
H892 C918 0.950 . S
H893 C920 0.950 . S
H894 C923 0.950 . S
H895 C924 0.950 . S
H896 C926 0.950 . S
H897 C927 0.950 . S
C898 H880 0.951 . S
C898 C899 1.366 . S
C898 C900 1.388 . S
C899 C898 1.366 . S
C899 C903 1.385 . S
C900 H881 0.951 . S
C900 C898 1.388 . S
C900 C901 1.366 . S
C901 C900 1.366 . S
C901 C902 1.414 . S
C901 C904 1.499 . S
C902 H882 0.950 . S
C902 C901 1.414 . S
C902 C903 1.374 . S
C903 H883 0.950 . S
C903 C899 1.385 . S
C903 C902 1.374 . S
C904 C901 1.499 . S
C904 C905 1.373 . S
C904 C906 1.389 . S
C905 H884 0.950 . S
C905 C904 1.373 . S
C905 C921 1.377 . S
C906 C904 1.389 . S
C906 C907 1.524 . S
C906 C920 1.377 . S
C907 C906 1.524 . S
C907 C908 1.397 . S
C907 C912 1.363 . S
C908 H885 0.950 . S
C908 C907 1.397 . S
C908 C909 1.334 . S
C909 H886 0.950 . S
C909 C908 1.334 . S
C909 C910 1.287 . S
C910 C909 1.287 . S
C910 C911 1.524 . S
C910 H929 0.913 . S
C911 H887 0.950 . S
C911 C910 1.524 . S
C911 C912 1.415 . S
C912 H888 0.950 . S
C912 C907 1.363 . S
C912 C911 1.415 . S
C913 H889 0.951 . S
C913 C914 1.366 . S
C913 C915 1.388 . S
C914 C913 1.366 . S
C914 C918 1.385 . S
C915 H890 0.951 . S
C915 C913 1.388 . S
C915 C916 1.366 . S
C916 C915 1.366 . S
C916 C917 1.414 . S
C916 C919 1.499 . S
C917 H891 0.950 . S
C917 C916 1.414 . S
C917 C918 1.374 . S
C918 H892 0.950 . S
C918 C914 1.385 . S
C918 C917 1.374 . S
C919 C916 1.499 . S
C919 C920 1.373 . S
C919 C921 1.389 . S
C920 H893 0.950 . S
C920 C906 1.377 . S
C920 C919 1.373 . S
C921 C905 1.377 . S
C921 C919 1.389 . S
C921 C922 1.524 . S
C922 C921 1.524 . S
C922 C923 1.397 . S
C922 C927 1.363 . S
C923 H894 0.950 . S
C923 C922 1.397 . S
C923 C924 1.334 . S
C924 H895 0.950 . S
C924 C923 1.334 . S
C924 C925 1.287 . S
C925 C924 1.287 . S
C925 C926 1.524 . S
C925 H928 0.999 . S
C926 H896 0.950 . S
C926 C925 1.524 . S
C926 C927 1.415 . S
C927 H897 0.950 . S
C927 C922 1.363 . S
C927 C926 1.415 . S
H928 C925 0.999 . S
H929 C910 0.913 . S
H930 C948 0.951 . S
H931 C950 0.951 . S
H932 C952 0.950 1_455 S
H933 C953 0.950 . S
H934 C955 0.950 . S
H935 C958 0.950 1_455 S
H936 C959 0.950 . S
H937 C961 0.950 . S
H938 C962 0.950 . S
H939 C963 0.951 . S
H940 C965 0.951 . S
H941 C967 0.950 . S
H942 C968 0.950 . S
H943 C970 0.950 . S
H944 C973 0.950 . S
H945 C974 0.950 . S
H946 C976 0.950 . S
H947 C977 0.950 . S
C948 H930 0.951 . S
C948 C949 1.366 . S
C948 C950 1.388 . S
C949 C948 1.366 . S
C949 C953 1.385 . S
C950 H931 0.951 . S
C950 C948 1.388 . S
C950 C951 1.366 . S
C951 C950 1.366 . S
C951 C952 1.414 . S
C951 C954 1.499 1_655 S
C952 H932 0.950 1_655 S
C952 C951 1.414 . S
C952 C953 1.374 . S
C953 H933 0.950 . S
C953 C949 1.385 . S
C953 C952 1.374 . S
C954 C951 1.499 1_455 S
C954 C955 1.373 . S
C954 C956 1.389 . S
C955 H934 0.950 . S
C955 C954 1.373 . S
C955 C971 1.377 . S
C956 C954 1.389 . S
C956 C957 1.524 . S
C956 C970 1.377 . S
C957 C956 1.524 . S
C957 C958 1.397 1_455 S
C957 C962 1.363 . S
C958 H935 0.950 1_655 S
C958 C957 1.397 1_655 S
C958 C959 1.334 . S
C959 H936 0.950 . S
C959 C958 1.334 . S
C959 C960 1.287 . S
C960 C959 1.287 . S
C960 C961 1.524 . S
C960 H979 0.913 . S
C961 H937 0.950 . S
C961 C960 1.524 . S
C961 C962 1.415 1_655 S
C962 H938 0.950 . S
C962 C957 1.363 . S
C962 C961 1.415 1_455 S
C963 H939 0.951 . S
C963 C964 1.366 . S
C963 C965 1.388 . S
C964 C963 1.366 . S
C964 C968 1.385 . S
C965 H940 0.951 . S
C965 C963 1.388 . S
C965 C966 1.366 . S
C966 C965 1.366 . S
C966 C967 1.414 . S
C966 C969 1.499 . S
C967 H941 0.950 . S
C967 C966 1.414 . S
C967 C968 1.374 . S
C968 H942 0.950 . S
C968 C964 1.385 . S
C968 C967 1.374 . S
C969 C966 1.499 . S
C969 C970 1.373 . S
C969 C971 1.389 . S
C970 H943 0.950 . S
C970 C956 1.377 . S
C970 C969 1.373 . S
C971 C955 1.377 . S
C971 C969 1.389 . S
C971 C972 1.524 . S
C972 C971 1.524 . S
C972 C973 1.397 . S
C972 C977 1.363 . S
C973 H944 0.950 . S
C973 C972 1.397 . S
C973 C974 1.334 . S
C974 H945 0.950 . S
C974 C973 1.334 . S
C974 C975 1.287 . S
C975 C974 1.287 . S
C975 C976 1.524 . S
C975 H978 0.999 . S
C976 H946 0.950 . S
C976 C975 1.524 . S
C976 C977 1.415 . S
C977 H947 0.950 . S
C977 C972 1.363 . S
C977 C976 1.415 . S
H978 C975 0.999 . S
H979 C960 0.913 . S
H980 C998 0.951 . S
H981 C1000 0.951 . S
H982 C1002 0.950 . S
H983 C1003 0.950 . S
H984 C1005 0.950 . S
H985 C1008 0.950 . S
H986 C1009 0.950 1_556 S
H987 C1011 0.950 . S
H988 C1012 0.950 . S
H989 C1013 0.951 . S
H990 C1015 0.951 . S
H991 C1017 0.950 . S
H992 C1018 0.950 . S
H993 C1020 0.950 . S
H994 C1023 0.950 . S
H995 C1024 0.950 . S
H996 C1026 0.950 . S
H997 C1027 0.950 . S
C998 H980 0.951 . S
C998 C999 1.366 . S
C998 C1000 1.388 . S
C999 C998 1.366 . S
C999 C1003 1.385 . S
C1000 H981 0.951 . S
C1000 C998 1.388 . S
C1000 C1001 1.366 . S
C1001 C1000 1.366 . S
C1001 C1002 1.414 . S
C1001 C1004 1.499 . S
C1002 H982 0.950 . S
C1002 C1001 1.414 . S
C1002 C1003 1.374 . S
C1003 H983 0.950 . S
C1003 C999 1.385 . S
C1003 C1002 1.374 . S
C1004 C1001 1.499 . S
C1004 C1005 1.373 . S
C1004 C1006 1.389 . S
C1005 H984 0.950 . S
C1005 C1004 1.373 . S
C1005 C1021 1.377 . S
C1006 C1004 1.389 . S
C1006 C1007 1.524 . S
C1006 C1020 1.377 . S
C1007 C1006 1.524 . S
C1007 C1008 1.397 . S
C1007 C1012 1.363 . S
C1008 H985 0.950 . S
C1008 C1007 1.397 . S
C1008 C1009 1.334 . S
C1009 H986 0.950 1_554 S
C1009 C1008 1.334 . S
C1009 C1010 1.286 1_554 S
C1010 C1009 1.286 1_556 S
C1010 C1011 1.521 1_556 S
C1010 H1029 0.918 . S
C1011 H987 0.950 . S
C1011 C1010 1.521 1_554 S
C1011 C1012 1.415 . S
C1012 H988 0.950 . S
C1012 C1007 1.363 . S
C1012 C1011 1.415 . S
C1013 H989 0.951 . S
C1013 C1014 1.366 . S
C1013 C1015 1.388 . S
C1014 C1013 1.366 . S
C1014 C1018 1.385 . S
C1015 H990 0.951 . S
C1015 C1013 1.388 . S
C1015 C1016 1.366 . S
C1016 C1015 1.366 . S
C1016 C1017 1.414 . S
C1016 C1019 1.499 . S
C1017 H991 0.950 . S
C1017 C1016 1.414 . S
C1017 C1018 1.374 . S
C1018 H992 0.950 . S
C1018 C1014 1.385 . S
C1018 C1017 1.374 . S
C1019 C1016 1.499 . S
C1019 C1020 1.373 . S
C1019 C1021 1.389 . S
C1020 H993 0.950 . S
C1020 C1006 1.377 . S
C1020 C1019 1.373 . S
C1021 C1005 1.377 . S
C1021 C1019 1.389 . S
C1021 C1022 1.524 . S
C1022 C1021 1.524 . S
C1022 C1023 1.397 . S
C1022 C1027 1.363 . S
C1023 H994 0.950 . S
C1023 C1022 1.397 . S
C1023 C1024 1.334 . S
C1024 H995 0.950 . S
C1024 C1023 1.334 . S
C1024 C1025 1.287 . S
C1025 C1024 1.287 . S
C1025 C1026 1.524 . S
C1025 H1028 0.999 . S
C1026 H996 0.950 . S
C1026 C1025 1.524 . S
C1026 C1027 1.415 . S
C1027 H997 0.950 . S
C1027 C1022 1.363 . S
C1027 C1026 1.415 . S
H1028 C1025 0.999 . S
H1029 C1010 0.918 . S
H1030 C1048 0.951 . S
H1031 C1050 0.951 . S
H1032 C1052 0.950 . S
H1033 C1053 0.950 . S
H1034 C1055 0.950 . S
H1035 C1058 0.950 . S
H1036 C1059 0.950 . S
H1037 C1061 0.950 . S
H1038 C1062 0.950 . S
H1039 C1063 0.951 . S
H1040 C1065 0.951 . S
H1041 C1067 0.950 . S
H1042 C1068 0.950 . S
H1043 C1070 0.950 . S
H1044 C1073 0.950 . S
H1045 C1074 0.950 . S
H1046 C1076 0.950 . S
H1047 C1077 0.950 . S
C1048 H1030 0.951 . S
C1048 C1049 1.366 . S
C1048 C1050 1.388 . S
C1049 C1048 1.366 . S
C1049 C1053 1.385 . S
C1050 H1031 0.951 . S
C1050 C1048 1.388 . S
C1050 C1051 1.366 . S
C1051 C1050 1.366 . S
C1051 C1052 1.414 . S
C1051 C1054 1.499 . S
C1052 H1032 0.950 . S
C1052 C1051 1.414 . S
C1052 C1053 1.374 . S
C1053 H1033 0.950 . S
C1053 C1049 1.385 . S
C1053 C1052 1.374 . S
C1054 C1051 1.499 . S
C1054 C1055 1.373 . S
C1054 C1056 1.389 . S
C1055 H1034 0.950 . S
C1055 C1054 1.373 . S
C1055 C1071 1.377 . S
C1056 C1054 1.389 . S
C1056 C1057 1.524 . S
C1056 C1070 1.377 . S
C1057 C1056 1.524 . S
C1057 C1058 1.397 . S
C1057 C1062 1.363 . S
C1058 H1035 0.950 . S
C1058 C1057 1.397 . S
C1058 C1059 1.334 . S
C1059 H1036 0.950 . S
C1059 C1058 1.334 . S
C1059 C1060 1.287 . S
C1060 C1059 1.287 . S
C1060 C1061 1.524 . S
C1060 H1079 0.913 . S
C1061 H1037 0.950 . S
C1061 C1060 1.524 . S
C1061 C1062 1.415 . S
C1062 H1038 0.950 . S
C1062 C1057 1.363 . S
C1062 C1061 1.415 . S
C1063 H1039 0.951 . S
C1063 C1064 1.366 . S
C1063 C1065 1.388 . S
C1064 C1063 1.366 . S
C1064 C1068 1.385 . S
C1065 H1040 0.951 . S
C1065 C1063 1.388 . S
C1065 C1066 1.366 . S
C1066 C1065 1.366 . S
C1066 C1067 1.414 . S
C1066 C1069 1.499 . S
C1067 H1041 0.950 . S
C1067 C1066 1.414 . S
C1067 C1068 1.374 . S
C1068 H1042 0.950 . S
C1068 C1064 1.385 . S
C1068 C1067 1.374 . S
C1069 C1066 1.499 . S
C1069 C1070 1.373 . S
C1069 C1071 1.389 . S
C1070 H1043 0.950 . S
C1070 C1056 1.377 . S
C1070 C1069 1.373 . S
C1071 C1055 1.377 . S
C1071 C1069 1.389 . S
C1071 C1072 1.524 . S
C1072 C1071 1.524 . S
C1072 C1073 1.397 . S
C1072 C1077 1.363 . S
C1073 H1044 0.950 . S
C1073 C1072 1.397 . S
C1073 C1074 1.334 . S
C1074 H1045 0.950 . S
C1074 C1073 1.334 . S
C1074 C1075 1.287 . S
C1075 C1074 1.287 . S
C1075 C1076 1.524 . S
C1075 H1078 0.999 . S
C1076 H1046 0.950 . S
C1076 C1075 1.524 . S
C1076 C1077 1.415 . S
C1077 H1047 0.950 . S
C1077 C1072 1.363 . S
C1077 C1076 1.415 . S
H1078 C1075 0.999 . S
H1079 C1060 0.913 . S
H1080 C1098 0.951 . S
H1081 C1100 0.951 . S
H1082 C1102 0.950 . S
H1083 C1103 0.950 . S
H1084 C1105 0.950 . S
H1085 C1108 0.950 . S
H1086 C1109 0.950 . S
H1087 C1111 0.950 . S
H1088 C1112 0.950 . S
H1089 C1113 0.951 . S
H1090 C1115 0.951 . S
H1091 C1117 0.950 . S
H1092 C1118 0.950 . S
H1093 C1120 0.950 . S
H1094 C1123 0.950 . S
H1095 C1124 0.950 . S
H1096 C1126 0.950 . S
H1097 C1127 0.950 . S
C1098 H1080 0.951 . S
C1098 C1099 1.366 . S
C1098 C1100 1.388 . S
C1099 C1098 1.366 . S
C1099 C1103 1.385 . S
C1100 H1081 0.951 . S
C1100 C1098 1.388 . S
C1100 C1101 1.366 . S
C1101 C1100 1.366 . S
C1101 C1102 1.414 . S
C1101 C1104 1.499 . S
C1102 H1082 0.950 . S
C1102 C1101 1.414 . S
C1102 C1103 1.374 . S
C1103 H1083 0.950 . S
C1103 C1099 1.385 . S
C1103 C1102 1.374 . S
C1104 C1101 1.499 . S
C1104 C1105 1.373 . S
C1104 C1106 1.389 . S
C1105 H1084 0.950 . S
C1105 C1104 1.373 . S
C1105 C1121 1.377 . S
C1106 C1104 1.389 . S
C1106 C1107 1.524 . S
C1106 C1120 1.377 . S
C1107 C1106 1.524 . S
C1107 C1108 1.397 . S
C1107 C1112 1.363 . S
C1108 H1085 0.950 . S
C1108 C1107 1.397 . S
C1108 C1109 1.334 . S
C1109 H1086 0.950 . S
C1109 C1108 1.334 . S
C1109 C1110 1.287 . S
C1110 C1109 1.287 . S
C1110 C1111 1.524 . S
C1110 H1129 0.913 . S
C1111 H1087 0.950 . S
C1111 C1110 1.524 . S
C1111 C1112 1.415 . S
C1112 H1088 0.950 . S
C1112 C1107 1.363 . S
C1112 C1111 1.415 . S
C1113 H1089 0.951 . S
C1113 C1114 1.366 . S
C1113 C1115 1.388 . S
C1114 C1113 1.366 . S
C1114 C1118 1.385 . S
C1115 H1090 0.951 . S
C1115 C1113 1.388 . S
C1115 C1116 1.366 . S
C1116 C1115 1.366 . S
C1116 C1117 1.414 . S
C1116 C1119 1.499 . S
C1117 H1091 0.950 . S
C1117 C1116 1.414 . S
C1117 C1118 1.374 . S
C1118 H1092 0.950 . S
C1118 C1114 1.385 . S
C1118 C1117 1.374 . S
C1119 C1116 1.499 . S
C1119 C1120 1.373 . S
C1119 C1121 1.389 . S
C1120 H1093 0.950 . S
C1120 C1106 1.377 . S
C1120 C1119 1.373 . S
C1121 C1105 1.377 . S
C1121 C1119 1.389 . S
C1121 C1122 1.524 . S
C1122 C1121 1.524 . S
C1122 C1123 1.397 . S
C1122 C1127 1.363 . S
C1123 H1094 0.950 . S
C1123 C1122 1.397 . S
C1123 C1124 1.334 . S
C1124 H1095 0.950 . S
C1124 C1123 1.334 . S
C1124 C1125 1.287 . S
C1125 C1124 1.287 . S
C1125 C1126 1.524 . S
C1125 H1128 0.999 . S
C1126 H1096 0.950 . S
C1126 C1125 1.524 . S
C1126 C1127 1.415 . S
C1127 H1097 0.950 . S
C1127 C1122 1.363 . S
C1127 C1126 1.415 . S
H1128 C1125 0.999 . S
H1129 C1110 0.913 . S
H1130 C1148 0.951 . S
H1131 C1150 0.951 . S
H1132 C1152 0.950 . S
H1133 C1153 0.950 . S
H1134 C1155 0.950 . S
H1135 C1158 0.950 . S
H1136 C1159 0.950 . S
H1137 C1161 0.950 . S
H1138 C1162 0.950 . S
H1139 C1163 0.951 . S
H1140 C1165 0.951 . S
H1141 C1167 0.950 . S
H1142 C1168 0.950 . S
H1143 C1170 0.950 . S
H1144 C1173 0.950 . S
H1145 C1174 0.950 . S
H1146 C1176 0.950 . S
H1147 C1177 0.950 . S
C1148 H1130 0.951 . S
C1148 C1149 1.366 . S
C1148 C1150 1.388 . S
C1149 C1148 1.366 . S
C1149 C1153 1.385 . S
C1150 H1131 0.951 . S
C1150 C1148 1.388 . S
C1150 C1151 1.366 . S
C1151 C1150 1.366 . S
C1151 C1152 1.414 . S
C1151 C1154 1.499 . S
C1152 H1132 0.950 . S
C1152 C1151 1.414 . S
C1152 C1153 1.374 . S
C1153 H1133 0.950 . S
C1153 C1149 1.385 . S
C1153 C1152 1.374 . S
C1154 C1151 1.499 . S
C1154 C1155 1.373 . S
C1154 C1156 1.389 . S
C1155 H1134 0.950 . S
C1155 C1154 1.373 . S
C1155 C1171 1.377 . S
C1156 C1154 1.389 . S
C1156 C1157 1.524 . S
C1156 C1170 1.377 . S
C1157 C1156 1.524 . S
C1157 C1158 1.397 . S
C1157 C1162 1.363 . S
C1158 H1135 0.950 . S
C1158 C1157 1.397 . S
C1158 C1159 1.334 . S
C1159 H1136 0.950 . S
C1159 C1158 1.334 . S
C1159 C1160 1.287 . S
C1160 C1159 1.287 . S
C1160 C1161 1.524 . S
C1160 H1179 0.913 . S
C1161 H1137 0.950 . S
C1161 C1160 1.524 . S
C1161 C1162 1.415 . S
C1162 H1138 0.950 . S
C1162 C1157 1.363 . S
C1162 C1161 1.415 . S
C1163 H1139 0.951 . S
C1163 C1164 1.366 . S
C1163 C1165 1.388 . S
C1164 C1163 1.366 . S
C1164 C1168 1.385 . S
C1165 H1140 0.951 . S
C1165 C1163 1.388 . S
C1165 C1166 1.366 . S
C1166 C1165 1.366 . S
C1166 C1167 1.414 . S
C1166 C1169 1.499 . S
C1167 H1141 0.950 . S
C1167 C1166 1.414 . S
C1167 C1168 1.374 . S
C1168 H1142 0.950 . S
C1168 C1164 1.385 . S
C1168 C1167 1.374 . S
C1169 C1166 1.499 . S
C1169 C1170 1.373 . S
C1169 C1171 1.389 . S
C1170 H1143 0.950 . S
C1170 C1156 1.377 . S
C1170 C1169 1.373 . S
C1171 C1155 1.377 . S
C1171 C1169 1.389 . S
C1171 C1172 1.524 . S
C1172 C1171 1.524 . S
C1172 C1173 1.397 . S
C1172 C1177 1.363 . S
C1173 H1144 0.950 . S
C1173 C1172 1.397 . S
C1173 C1174 1.334 . S
C1174 H1145 0.950 . S
C1174 C1173 1.334 . S
C1174 C1175 1.287 . S
C1175 C1174 1.287 . S
C1175 C1176 1.524 . S
C1175 H1178 0.999 . S
C1176 H1146 0.950 . S
C1176 C1175 1.524 . S
C1176 C1177 1.415 . S
C1177 H1147 0.950 . S
C1177 C1172 1.363 . S
C1177 C1176 1.415 . S
H1178 C1175 0.999 . S
H1179 C1160 0.913 . S
H1180 C1198 0.951 . S
H1181 C1200 0.951 . S
H1182 C1202 0.950 . S
H1183 C1203 0.950 . S
H1184 C1205 0.950 . S
H1185 C1208 0.950 . S
H1186 C1209 0.950 . S
H1187 C1211 0.950 . S
H1188 C1212 0.950 . S
H1189 C1213 0.951 . S
H1190 C1215 0.951 . S
H1191 C1217 0.950 . S
H1192 C1218 0.950 . S
H1193 C1220 0.950 . S
H1194 C1223 0.950 . S
H1195 C1224 0.950 . S
H1196 C1226 0.950 . S
H1197 C1227 0.950 . S
C1198 H1180 0.951 . S
C1198 C1199 1.366 . S
C1198 C1200 1.388 . S
C1199 C1198 1.366 . S
C1199 C1203 1.385 . S
C1200 H1181 0.951 . S
C1200 C1198 1.388 . S
C1200 C1201 1.366 . S
C1201 C1200 1.366 . S
C1201 C1202 1.414 . S
C1201 C1204 1.499 . S
C1202 H1182 0.950 . S
C1202 C1201 1.414 . S
C1202 C1203 1.374 . S
C1203 H1183 0.950 . S
C1203 C1199 1.385 . S
C1203 C1202 1.374 . S
C1204 C1201 1.499 . S
C1204 C1205 1.373 . S
C1204 C1206 1.389 . S
C1205 H1184 0.950 . S
C1205 C1204 1.373 . S
C1205 C1221 1.377 . S
C1206 C1204 1.389 . S
C1206 C1207 1.524 . S
C1206 C1220 1.377 . S
C1207 C1206 1.524 . S
C1207 C1208 1.397 . S
C1207 C1212 1.363 . S
C1208 H1185 0.950 . S
C1208 C1207 1.397 . S
C1208 C1209 1.334 . S
C1209 H1186 0.950 . S
C1209 C1208 1.334 . S
C1209 C1210 1.287 . S
C1210 C1209 1.287 . S
C1210 C1211 1.524 . S
C1210 H1229 0.913 . S
C1211 H1187 0.950 . S
C1211 C1210 1.524 . S
C1211 C1212 1.415 . S
C1212 H1188 0.950 . S
C1212 C1207 1.363 . S
C1212 C1211 1.415 . S
C1213 H1189 0.951 . S
C1213 C1214 1.366 . S
C1213 C1215 1.388 . S
C1214 C1213 1.366 . S
C1214 C1218 1.385 . S
C1215 H1190 0.951 . S
C1215 C1213 1.388 . S
C1215 C1216 1.366 . S
C1216 C1215 1.366 . S
C1216 C1217 1.414 . S
C1216 C1219 1.499 . S
C1217 H1191 0.950 . S
C1217 C1216 1.414 . S
C1217 C1218 1.374 . S
C1218 H1192 0.950 . S
C1218 C1214 1.385 . S
C1218 C1217 1.374 . S
C1219 C1216 1.499 . S
C1219 C1220 1.373 . S
C1219 C1221 1.389 . S
C1220 H1193 0.950 . S
C1220 C1206 1.377 . S
C1220 C1219 1.373 . S
C1221 C1205 1.377 . S
C1221 C1219 1.389 . S
C1221 C1222 1.524 . S
C1222 C1221 1.524 . S
C1222 C1223 1.397 . S
C1222 C1227 1.363 . S
C1223 H1194 0.950 . S
C1223 C1222 1.397 . S
C1223 C1224 1.334 . S
C1224 H1195 0.950 . S
C1224 C1223 1.334 . S
C1224 C1225 1.287 . S
C1225 C1224 1.287 . S
C1225 C1226 1.524 . S
C1225 H1228 0.999 . S
C1226 H1196 0.950 . S
C1226 C1225 1.524 . S
C1226 C1227 1.415 . S
C1227 H1197 0.950 . S
C1227 C1222 1.363 . S
C1227 C1226 1.415 . S
H1228 C1225 0.999 . S
H1229 C1210 0.913 . S
H1230 C1248 0.951 . S
H1231 C1250 0.951 . S
H1232 C1252 0.950 . S
H1233 C1253 0.950 . S
H1234 C1255 0.950 . S
H1235 C1258 0.950 . S
H1236 C1259 0.950 . S
H1237 C1261 0.950 . S
H1238 C1262 0.950 . S
H1239 C1263 0.951 . S
H1240 C1265 0.951 . S
H1241 C1267 0.950 . S
H1242 C1268 0.950 . S
H1243 C1270 0.950 . S
H1244 C1273 0.950 . S
H1245 C1274 0.950 . S
H1246 C1276 0.950 . S
H1247 C1277 0.950 . S
C1248 H1230 0.951 . S
C1248 C1249 1.366 . S
C1248 C1250 1.388 . S
C1249 C1248 1.366 . S
C1249 C1253 1.385 . S
C1250 H1231 0.951 . S
C1250 C1248 1.388 . S
C1250 C1251 1.366 . S
C1251 C1250 1.366 . S
C1251 C1252 1.414 . S
C1251 C1254 1.499 . S
C1252 H1232 0.950 . S
C1252 C1251 1.414 . S
C1252 C1253 1.374 . S
C1253 H1233 0.950 . S
C1253 C1249 1.385 . S
C1253 C1252 1.374 . S
C1254 C1251 1.499 . S
C1254 C1255 1.373 . S
C1254 C1256 1.389 . S
C1255 H1234 0.950 . S
C1255 C1254 1.373 . S
C1255 C1271 1.377 . S
C1256 C1254 1.389 . S
C1256 C1257 1.524 . S
C1256 C1270 1.377 . S
C1257 C1256 1.524 . S
C1257 C1258 1.397 . S
C1257 C1262 1.363 . S
C1258 H1235 0.950 . S
C1258 C1257 1.397 . S
C1258 C1259 1.334 . S
C1259 H1236 0.950 . S
C1259 C1258 1.334 . S
C1259 C1260 1.287 . S
C1260 C1259 1.287 . S
C1260 C1261 1.524 . S
C1260 H1279 0.913 . S
C1261 H1237 0.950 . S
C1261 C1260 1.524 . S
C1261 C1262 1.415 . S
C1262 H1238 0.950 . S
C1262 C1257 1.363 . S
C1262 C1261 1.415 . S
C1263 H1239 0.951 . S
C1263 C1264 1.366 . S
C1263 C1265 1.388 . S
C1264 C1263 1.366 . S
C1264 C1268 1.385 . S
C1265 H1240 0.951 . S
C1265 C1263 1.388 . S
C1265 C1266 1.366 . S
C1266 C1265 1.366 . S
C1266 C1267 1.414 . S
C1266 C1269 1.499 . S
C1267 H1241 0.950 . S
C1267 C1266 1.414 . S
C1267 C1268 1.374 . S
C1268 H1242 0.950 . S
C1268 C1264 1.385 . S
C1268 C1267 1.374 . S
C1269 C1266 1.499 . S
C1269 C1270 1.373 . S
C1269 C1271 1.389 . S
C1270 H1243 0.950 . S
C1270 C1256 1.377 . S
C1270 C1269 1.373 . S
C1271 C1255 1.377 . S
C1271 C1269 1.389 . S
C1271 C1272 1.524 . S
C1272 C1271 1.524 . S
C1272 C1273 1.397 . S
C1272 C1277 1.363 . S
C1273 H1244 0.950 . S
C1273 C1272 1.397 . S
C1273 C1274 1.334 . S
C1274 H1245 0.950 . S
C1274 C1273 1.334 . S
C1274 C1275 1.287 . S
C1275 C1274 1.287 . S
C1275 C1276 1.524 . S
C1275 H1278 0.999 . S
C1276 H1246 0.950 . S
C1276 C1275 1.524 . S
C1276 C1277 1.415 . S
C1277 H1247 0.950 . S
C1277 C1272 1.363 . S
C1277 C1276 1.415 . S
H1278 C1275 0.999 . S
H1279 C1260 0.913 . S
H1280 C1298 0.951 . S
H1281 C1300 0.951 . S
H1282 C1302 0.950 . S
H1283 C1303 0.950 . S
H1284 C1305 0.950 . S
H1285 C1308 0.950 . S
H1286 C1309 0.950 . S
H1287 C1311 0.950 . S
H1288 C1312 0.950 . S
H1289 C1313 0.951 . S
H1290 C1315 0.951 . S
H1291 C1317 0.950 . S
H1292 C1318 0.950 . S
H1293 C1320 0.950 . S
H1294 C1323 0.950 . S
H1295 C1324 0.950 . S
H1296 C1326 0.950 . S
H1297 C1327 0.950 . S
C1298 H1280 0.951 . S
C1298 C1299 1.366 . S
C1298 C1300 1.388 . S
C1299 C1298 1.366 . S
C1299 C1303 1.385 . S
C1300 H1281 0.951 . S
C1300 C1298 1.388 . S
C1300 C1301 1.366 . S
C1301 C1300 1.366 . S
C1301 C1302 1.414 . S
C1301 C1304 1.499 . S
C1302 H1282 0.950 . S
C1302 C1301 1.414 . S
C1302 C1303 1.374 . S
C1303 H1283 0.950 . S
C1303 C1299 1.385 . S
C1303 C1302 1.374 . S
C1304 C1301 1.499 . S
C1304 C1305 1.373 . S
C1304 C1306 1.389 . S
C1305 H1284 0.950 . S
C1305 C1304 1.373 . S
C1305 C1321 1.377 . S
C1306 C1304 1.389 . S
C1306 C1307 1.524 . S
C1306 C1320 1.377 . S
C1307 C1306 1.524 . S
C1307 C1308 1.397 . S
C1307 C1312 1.363 . S
C1308 H1285 0.950 . S
C1308 C1307 1.397 . S
C1308 C1309 1.334 . S
C1309 H1286 0.950 . S
C1309 C1308 1.334 . S
C1309 C1310 1.287 . S
C1310 C1309 1.287 . S
C1310 C1311 1.524 . S
C1310 H1329 0.913 . S
C1311 H1287 0.950 . S
C1311 C1310 1.524 . S
C1311 C1312 1.415 . S
C1312 H1288 0.950 . S
C1312 C1307 1.363 . S
C1312 C1311 1.415 . S
C1313 H1289 0.951 . S
C1313 C1314 1.366 . S
C1313 C1315 1.388 . S
C1314 C1313 1.366 . S
C1314 C1318 1.385 . S
C1315 H1290 0.951 . S
C1315 C1313 1.388 . S
C1315 C1316 1.366 . S
C1316 C1315 1.366 . S
C1316 C1317 1.414 . S
C1316 C1319 1.499 . S
C1317 H1291 0.950 . S
C1317 C1316 1.414 . S
C1317 C1318 1.374 . S
C1318 H1292 0.950 . S
C1318 C1314 1.385 . S
C1318 C1317 1.374 . S
C1319 C1316 1.499 . S
C1319 C1320 1.373 . S
C1319 C1321 1.389 . S
C1320 H1293 0.950 . S
C1320 C1306 1.377 . S
C1320 C1319 1.373 . S
C1321 C1305 1.377 . S
C1321 C1319 1.389 . S
C1321 C1322 1.524 . S
C1322 C1321 1.524 . S
C1322 C1323 1.397 . S
C1322 C1327 1.363 . S
C1323 H1294 0.950 . S
C1323 C1322 1.397 . S
C1323 C1324 1.334 . S
C1324 H1295 0.950 . S
C1324 C1323 1.334 . S
C1324 C1325 1.287 . S
C1325 C1324 1.287 . S
C1325 C1326 1.524 . S
C1325 H1328 0.999 . S
C1326 H1296 0.950 . S
C1326 C1325 1.524 . S
C1326 C1327 1.415 . S
C1327 H1297 0.950 . S
C1327 C1322 1.363 . S
C1327 C1326 1.415 . S
H1328 C1325 0.999 . S
H1329 C1310 0.913 . S
H1330 C1348 0.951 . S
H1331 C1350 0.951 . S
H1332 C1352 0.950 . S
H1333 C1353 0.950 . S
H1334 C1355 0.950 . S
H1335 C1358 0.950 . S
H1336 C1359 0.950 . S
H1337 C1361 0.950 . S
H1338 C1362 0.950 . S
H1339 C1363 0.951 . S
H1340 C1365 0.951 . S
H1341 C1367 0.950 . S
H1342 C1368 0.950 . S
H1343 C1370 0.950 . S
H1344 C1373 0.950 . S
H1345 C1374 0.950 . S
H1346 C1376 0.950 . S
H1347 C1377 0.950 . S
C1348 H1330 0.951 . S
C1348 C1349 1.366 . S
C1348 C1350 1.388 . S
C1349 C1348 1.366 . S
C1349 C1353 1.385 . S
C1350 H1331 0.951 . S
C1350 C1348 1.388 . S
C1350 C1351 1.366 . S
C1351 C1350 1.366 . S
C1351 C1352 1.414 . S
C1351 C1354 1.499 . S
C1352 H1332 0.950 . S
C1352 C1351 1.414 . S
C1352 C1353 1.374 . S
C1353 H1333 0.950 . S
C1353 C1349 1.385 . S
C1353 C1352 1.374 . S
C1354 C1351 1.499 . S
C1354 C1355 1.373 . S
C1354 C1356 1.389 . S
C1355 H1334 0.950 . S
C1355 C1354 1.373 . S
C1355 C1371 1.377 . S
C1356 C1354 1.389 . S
C1356 C1357 1.524 . S
C1356 C1370 1.377 . S
C1357 C1356 1.524 . S
C1357 C1358 1.397 . S
C1357 C1362 1.363 . S
C1358 H1335 0.950 . S
C1358 C1357 1.397 . S
C1358 C1359 1.334 . S
C1359 H1336 0.950 . S
C1359 C1358 1.334 . S
C1359 C1360 1.287 . S
C1360 C1359 1.287 . S
C1360 C1361 1.524 . S
C1360 H1379 0.913 . S
C1361 H1337 0.950 . S
C1361 C1360 1.524 . S
C1361 C1362 1.415 . S
C1362 H1338 0.950 . S
C1362 C1357 1.363 . S
C1362 C1361 1.415 . S
C1363 H1339 0.951 . S
C1363 C1364 1.366 . S
C1363 C1365 1.388 . S
C1364 C1363 1.366 . S
C1364 C1368 1.385 . S
C1365 H1340 0.951 . S
C1365 C1363 1.388 . S
C1365 C1366 1.366 . S
C1366 C1365 1.366 . S
C1366 C1367 1.414 . S
C1366 C1369 1.499 . S
C1367 H1341 0.950 . S
C1367 C1366 1.414 . S
C1367 C1368 1.374 . S
C1368 H1342 0.950 . S
C1368 C1364 1.385 . S
C1368 C1367 1.374 . S
C1369 C1366 1.499 . S
C1369 C1370 1.373 . S
C1369 C1371 1.389 . S
C1370 H1343 0.950 . S
C1370 C1356 1.377 . S
C1370 C1369 1.373 . S
C1371 C1355 1.377 . S
C1371 C1369 1.389 . S
C1371 C1372 1.524 . S
C1372 C1371 1.524 . S
C1372 C1373 1.397 . S
C1372 C1377 1.363 . S
C1373 H1344 0.950 . S
C1373 C1372 1.397 . S
C1373 C1374 1.334 . S
C1374 H1345 0.950 . S
C1374 C1373 1.334 . S
C1374 C1375 1.287 . S
C1375 C1374 1.287 . S
C1375 C1376 1.524 . S
C1375 H1378 0.999 . S
C1376 H1346 0.950 . S
C1376 C1375 1.524 . S
C1376 C1377 1.415 . S
C1377 H1347 0.950 . S
C1377 C1372 1.363 . S
C1377 C1376 1.415 . S
H1378 C1375 0.999 . S
H1379 C1360 0.913 . S
C199 C7 0.675 . S
C214 C93 0.660 . S
C249 C25 0.688 . S
C264 C105 0.683 . S
C299 C46 0.615 . S
C314 C117 0.568 . S
C364 C126 0.649 . S
C349 C70 0.677 . S
C414 C141 0.658 . S
C399 C28 0.674 . S
C449 C49 0.680 . S
C464 C150 0.649 . S
C499 C67 0.615 . S
C514 C165 0.567 . S
C549 C4 0.691 . S
C564 C177 0.682 . S
C599 C58 1.625 . S
C614 C174 1.710 . S
C664 C138 1.744 . S
C649 C66 1.643 . S
C714 C153 1.811 . S
C699 C3 1.722 . S
C749 C37 1.597 . S
C764 C162 1.687 . S
C814 C102 1.710 . S
C799 C79 1.624 . S
C849 C16 1.599 . S
C864 C114 1.686 . S
C914 C129 1.811 . S
C899 C24 1.721 . S
C964 C90 1.744 . S
C949 C45 1.644 . S
C1014 C160 1.280 . S
C999 C19 1.166 . S
C1064 C172 1.346 . S
C1049 C41 1.215 . S
C1099 C62 1.214 . S
C1114 C136 1.360 . S
C1164 C148 1.354 . S
C1149 C82 1.245 . S
C1214 C112 1.281 . S
C1199 C40 1.168 . S
C1249 C61 1.247 . S
C1264 C124 1.354 . S
C1314 C88 1.360 . S
C1299 C83 1.214 . S
C1364 C100 1.345 . S
C1349 C20 1.215 . S
