# Generated by pormake.
# Topology anh, (6,3)-cn, num edge types: 1
# Building blocks:
#     Node 0, Type 0, BuildingBlock: CUWYAW_clean_sbu_0, # of connection points: 6
#     Node 1, Type 0, BuildingBlock: CUWYAW_clean_sbu_0, # of connection points: 6
#     Node 2, Type 0, BuildingBlock: CUWYAW_clean_sbu_0, # of connection points: 6
#     Node 3, Type 1, BuildingBlock: VETTIZ_charged_linker_0, # of connection points: 3
#     Node 4, Type 1, BuildingBlock: VETTIZ_charged_linker_0, # of connection points: 3
#     Node 5, Type 1, BuildingBlock: VETTIZ_charged_linker_0, # of connection points: 3
#     Node 6, Type 1, BuildingBlock: VETTIZ_charged_linker_0, # of connection points: 3
#     Node 7, Type 1, BuildingBlock: VETTIZ_charged_linker_0, # of connection points: 3
#     Node 8, Type 1, BuildingBlock: VETTIZ_charged_linker_0, # of connection points: 3
#     Edge 9, Type (0, 1), BuildingBlock: UVAHIK_clean_linker_0, # of connection points: 2
#     Edge 10, Type (0, 1), BuildingBlock: UVAHIK_clean_linker_0, # of connection points: 2
#     Edge 11, Type (0, 1), BuildingBlock: UVAHIK_clean_linker_0, # of connection points: 2
#     Edge 12, Type (0, 1), BuildingBlock: UVAHIK_clean_linker_0, # of connection points: 2
#     Edge 13, Type (0, 1), BuildingBlock: UVAHIK_clean_linker_0, # of connection points: 2
#     Edge 14, Type (0, 1), BuildingBlock: UVAHIK_clean_linker_0, # of connection points: 2
#     Edge 15, Type (0, 1), BuildingBlock: UVAHIK_clean_linker_0, # of connection points: 2
#     Edge 16, Type (0, 1), BuildingBlock: UVAHIK_clean_linker_0, # of connection points: 2
#     Edge 17, Type (0, 1), BuildingBlock: UVAHIK_clean_linker_0, # of connection points: 2
#     Edge 18, Type (0, 1), BuildingBlock: UVAHIK_clean_linker_0, # of connection points: 2
#     Edge 19, Type (0, 1), BuildingBlock: UVAHIK_clean_linker_0, # of connection points: 2
#     Edge 20, Type (0, 1), BuildingBlock: UVAHIK_clean_linker_0, # of connection points: 2
#     Edge 21, Type (0, 1), BuildingBlock: UVAHIK_clean_linker_0, # of connection points: 2
#     Edge 22, Type (0, 1), BuildingBlock: UVAHIK_clean_linker_0, # of connection points: 2
#     Edge 23, Type (0, 1), BuildingBlock: UVAHIK_clean_linker_0, # of connection points: 2
#     Edge 24, Type (0, 1), BuildingBlock: UVAHIK_clean_linker_0, # of connection points: 2
#     Edge 25, Type (0, 1), BuildingBlock: UVAHIK_clean_linker_0, # of connection points: 2
#     Edge 26, Type (0, 1), BuildingBlock: UVAHIK_clean_linker_0, # of connection points: 2
# Relax obj value: 0.210
# Max RMSD: 0.182
# Mean RMSD: 0.153
data_MOF--net-anh--node1-CUWYAW_clean_sbu_0--node2-VETTIZ_charged_linker_0--edge1-UVAHIK_clean_linker_0
_symmetry_space_group_name_H-M    P1
_symmetry_Int_Tables_number       1
_symmetry_cell_setting            triclinic
loop_
_symmetry_equiv_pos_as_xyz
'x, y, z'
_cell_length_a     44.396656
_cell_length_b     44.540646
_cell_length_c     82.054971
_cell_angle_alpha  89.859168
_cell_angle_beta   90.341052
_cell_angle_gamma 119.98313
loop_
_atom_site_label
_atom_site_type_symbol
_atom_site_fract_x
_atom_site_fract_y
_atom_site_fract_z
_atom_type_partial_charge
C0 C 1.04362 0.4733 0.14669 0.0
Eu1 Eu 0.08836 0.53044 0.16075 0.0
C2 C 1.00561 0.45805 0.1469 0.0
C3 C 0.98933 0.45962 0.16124 0.0
C4 C 0.95476 0.45162 0.16096 0.0
C5 C 0.9357 0.44221 0.14631 0.0
C6 C 0.9516 0.43947 0.13204 0.0
C7 C 0.98638 0.44748 0.13233 0.0
C8 C 0.09674 0.54036 0.19339 0.0
C9 C 1.04442 0.57189 0.16635 0.0
C10 C 0.16971 0.66283 0.18439 0.0
Eu11 Eu 0.12551 0.60486 0.1709 0.0
C12 C 0.20752 0.68193 0.182 0.0
C13 C 0.22128 0.68132 0.1667 0.0
C14 C 0.25707 0.69647 0.16462 0.0
C15 C 0.27973 0.71202 0.17785 0.0
C16 C 0.26597 0.71229 0.19322 0.0
C17 C 0.23006 0.69737 0.19527 0.0
C18 C 0.11599 0.59437 0.13846 0.0
C19 C 0.17039 0.56463 0.16358 0.0
O20 O 1.06011 0.50276 0.13888 0.0
O21 O 1.0584 0.47396 0.16066 0.0
O22 O 0.09859 0.51581 0.18578 0.0
O23 O 0.0886 0.55714 0.18368 0.0
O24 O 1.04674 0.54667 0.15897 0.0
O25 O 1.07127 0.59624 0.17453 0.0
O26 O 0.15787 0.63297 0.19178 0.0
O27 O 0.15092 0.66114 0.17169 0.0
O28 O 0.11372 0.61875 0.14597 0.0
O29 O 0.12497 0.57836 0.14816 0.0
O30 O 0.16885 0.59067 0.1706 0.0
O31 O 0.14232 0.53855 0.1569 0.0
H32 H 1.00366 0.46836 0.17261 0.0
H33 H 0.9431 0.45327 0.17223 0.0
H34 H 0.93756 0.43237 0.12056 0.0
H35 H 0.99868 0.44683 0.12107 0.0
H36 H 0.20433 0.6686 0.15637 0.0
H37 H 0.26704 0.69569 0.1527 0.0
H38 H 0.28303 0.72447 0.20357 0.0
H39 H 0.21986 0.69744 0.20722 0.0
C40 C 0.57735 0.13398 0.47619 0.0
Eu41 Eu 0.59473 0.09549 0.49265 0.0
C42 C 0.59406 0.1719 0.47683 0.0
C43 C 0.60898 0.18912 0.49154 0.0
C44 C 0.63273 0.22454 0.49162 0.0
C45 C 0.64229 0.24343 0.477 0.0
C46 C 0.62582 0.22661 0.4624 0.0
C47 C 0.60194 0.191 0.46231 0.0
C48 C 0.60783 0.09741 0.52532 0.0
C49 C 0.68062 0.13873 0.49804 0.0
C50 C 0.65224 1.01163 0.51207 0.0
Eu51 Eu 0.63646 0.05614 0.50079 0.0
C52 C 0.63214 0.97364 0.51023 0.0
C53 C 0.62186 0.95853 0.49467 0.0
C54 C 0.59918 0.923 0.49301 0.0
C55 C 0.58602 0.90193 0.50685 0.0
C56 C 0.59635 0.91694 0.5224 0.0
C57 C 0.61932 0.9525 0.52407 0.0
C58 C 0.62996 0.06847 0.46916 0.0
C59 C 0.54964 1.0119 0.49628 0.0
O60 O 0.59769 0.12316 0.47038 0.0
O61 O 0.5604 0.11693 0.48929 0.0
O62 O 0.59086 0.11126 0.51886 0.0
O63 O 0.6164 0.08421 0.5141 0.0
O64 O 0.65246 0.13683 0.49119 0.0
O65 O 0.67987 0.11138 0.50498 0.0
O66 O 0.63746 1.0249 0.52103 0.0
O67 O 0.6661 1.02949 0.49876 0.0
O68 O 0.65762 0.06923 0.47498 0.0
O69 O 0.60716 0.05958 0.47998 0.0
O70 O 0.57922 1.01246 0.49997 0.0
O71 O 0.54887 1.04052 0.4924 0.0
H72 H 0.60389 0.1749 0.50287 0.0
H73 H 0.64447 0.23694 0.50311 0.0
H74 H 0.63276 0.24054 0.45094 0.0
H75 H 0.59129 0.17802 0.4508 0.0
H76 H 0.63066 0.97418 0.48374 0.0
H77 H 0.59152 0.91207 0.4809 0.0
H78 H 0.58697 0.90111 0.53327 0.0
H79 H 0.62649 0.96363 0.53617 0.0
C80 C 0.71726 0.60723 0.81506 0.0
Eu81 Eu 0.6571 0.58966 0.8276 0.0
C82 C 0.73397 0.58624 0.81257 0.0
C83 C 0.72981 0.56136 0.82423 0.0
C84 C 0.74019 0.53728 0.82082 0.0
C85 C 0.75485 0.53756 0.8057 0.0
C86 C 0.7606 0.56338 0.79428 0.0
C87 C 0.74992 0.58747 0.79766 0.0
C88 C 0.64139 0.58774 0.85948 0.0
C89 C 0.61673 0.50405 0.83292 0.0
C90 C 0.51988 0.53292 0.8456 0.0
Eu91 Eu 0.58097 0.55011 0.83473 0.0
C92 C 0.49892 0.54982 0.84287 0.0
C93 C 0.48832 0.55289 0.82705 0.0
C94 C 0.47178 0.57208 0.82432 0.0
C95 C 0.4657 0.58879 0.83729 0.0
C96 C 0.47601 0.58551 0.85312 0.0
C97 C 0.49236 0.56609 0.85589 0.0
C98 C 0.59715 0.55251 0.80294 0.0
C99 C 0.62033 0.63546 0.82849 0.0
O100 O 0.68923 0.59757 0.80627 0.0
O101 O 0.71339 0.61392 0.83019 0.0
O102 O 0.666 0.615 0.85234 0.0
O103 O 0.62712 0.56246 0.84975 0.0
O104 O 0.64362 0.53248 0.82689 0.0
O105 O 0.58972 0.50496 0.83902 0.0
O106 O 0.54825 0.55076 0.85427 0.0
O107 O 0.52473 0.51809 0.83292 0.0
O108 O 0.57196 0.5253 0.80973 0.0
O109 O 0.61094 0.57723 0.81289 0.0
O110 O 0.59307 0.60689 0.83417 0.0
O111 O 0.64832 0.63494 0.82347 0.0
H112 H 0.71733 0.55963 0.83578 0.0
H113 H 0.7363 0.51803 0.82993 0.0
H114 H 0.77223 0.56417 0.7826 0.0
H115 H 0.75299 0.60625 0.78844 0.0
H116 H 0.49336 0.54107 0.81668 0.0
H117 H 0.46421 0.57429 0.81199 0.0
H118 H 0.47109 0.59766 0.86339 0.0
H119 H 0.50046 0.5643 0.86816 0.0
C120 C 0.60718 0.21102 0.19397 0.0
C121 C 0.62352 0.24491 0.20029 0.0
C122 C 0.62591 0.24929 0.2174 0.0
C123 C 0.60074 0.18733 0.2212 0.0
C124 C 0.59741 0.18303 0.2045 0.0
C125 C 0.58746 0.14694 0.19932 0.0
H126 H 0.54977 0.98512 0.21956 0.0
C127 C 0.59128 0.1534 0.22852 0.0
C128 C 0.58395 0.12983 0.2157 0.0
H129 H 0.56364 1.02967 0.17135 0.0
H130 H 0.5739 0.08353 0.18307 0.0
H131 H 0.61608 0.05441 0.23675 0.0
H132 H 0.50571 1.01326 0.23325 0.0
H133 H 0.51828 1.03584 0.25183 0.0
H134 H 0.52415 0.9989 0.24879 0.0
H135 H 0.58398 1.01421 0.24567 0.0
H136 H 0.59985 0.05457 0.2563 0.0
C137 C 0.61772 0.14871 0.1891 0.0
C138 C 0.55221 0.1311 0.19018 0.0
C139 C 0.59131 0.13919 0.29016 0.0
C140 C 0.58107 0.10992 0.30008 0.0
C141 C 0.568 0.07711 0.29282 0.0
C142 C 0.56599 0.07347 0.27588 0.0
C143 C 0.57698 0.10293 0.26605 0.0
C144 C 0.58847 0.13498 0.27317 0.0
C145 C 0.5969 0.16286 0.26066 0.0
C146 C 0.58889 0.14221 0.24493 0.0
C147 C 0.57811 0.10734 0.24823 0.0
C148 C 0.636 0.19024 0.26223 0.0
C149 C 0.57208 0.17739 0.26327 0.0
C150 C 0.556 1.00674 0.2115 0.0
C151 C 0.55627 1.00313 0.19448 0.0
C152 C 0.5632 1.03166 0.18449 0.0
C153 C 0.56933 0.06302 0.19133 0.0
C154 C 0.56897 0.06613 0.20836 0.0
C155 C 0.56252 1.03831 0.21814 0.0
C156 C 0.56292 1.04622 0.23596 0.0
C157 C 0.57183 0.08384 0.23528 0.0
C158 C 0.57501 0.09517 0.2191 0.0
C159 C 0.59206 1.04204 0.24425 0.0
C160 C 0.52603 1.02229 0.24294 0.0
H161 H 0.61779 0.22579 0.24071 0.0
H162 H 0.60425 0.20629 0.18097 0.0
H163 H 0.53387 0.13696 0.19673 0.0
H164 H 0.539 0.10256 0.18933 0.0
H165 H 0.55565 0.14194 0.17768 0.0
H166 H 0.64283 0.17276 0.19164 0.0
H167 H 0.61248 0.14823 0.17583 0.0
H168 H 0.62302 0.12753 0.19207 0.0
H169 H 0.60105 0.16462 0.29551 0.0
H170 H 0.56005 0.0543 0.3003 0.0
H171 H 0.55626 1.04788 0.27109 0.0
H172 H 0.65154 0.17783 0.26566 0.0
H173 H 0.6404 0.20974 0.27174 0.0
H174 H 0.64738 0.20372 0.25064 0.0
H175 H 0.54529 0.15605 0.26595 0.0
H176 H 0.56942 0.1905 0.2524 0.0
H177 H 0.58084 0.19574 0.2737 0.0
H178 H 0.6387 0.27491 0.22277 0.0
C179 C 0.61425 0.22067 0.22786 0.0
C180 C 0.61043 0.62236 0.53561 0.0
C181 C 0.58656 0.62868 0.54397 0.0
C182 C 0.58626 0.6276 0.56117 0.0
C183 C 0.63315 0.61465 0.56125 0.0
C184 C 0.63361 0.61587 0.54444 0.0
C185 C 0.66179 0.61059 0.53738 0.0
H186 H 0.76864 0.54667 0.54714 0.0
C187 C 0.66023 0.60681 0.56667 0.0
C188 C 0.6772 0.60452 0.55277 0.0
H189 H 0.74922 0.58899 0.50333 0.0
H190 H 0.71772 0.60974 0.51897 0.0
H191 H 0.78704 0.61839 0.56877 0.0
H192 H 0.69716 0.51636 0.56401 0.0
H193 H 0.70356 0.52772 0.58481 0.0
H194 H 0.73662 0.52407 0.57389 0.0
H195 H 0.78515 0.58103 0.57813 0.0
H196 H 0.76823 0.60555 0.58813 0.0
C197 C 0.68818 0.64428 0.52842 0.0
C198 C 0.64432 0.57808 0.52633 0.0
C199 C 0.67354 0.58966 0.62679 0.0
C200 C 0.69306 0.57797 0.63545 0.0
C201 C 0.71445 0.56854 0.62687 0.0
C202 C 0.71689 0.57143 0.60982 0.0
C203 C 0.69731 0.58339 0.60131 0.0
C204 C 0.6758 0.59186 0.60982 0.0
C205 C 0.65528 0.60205 0.5988 0.0
C206 C 0.66915 0.59984 0.58229 0.0
C207 C 0.69387 0.58908 0.5838 0.0
C208 C 0.66484 0.63969 0.60298 0.0
C209 C 0.61613 0.57486 0.60075 0.0
C210 C 0.7584 0.5611 0.54089 0.0
C211 C 0.76023 0.56476 0.52377 0.0
C212 C 0.7469 0.58434 0.51634 0.0
C213 C 0.72857 0.5964 0.52543 0.0
C214 C 0.72383 0.58926 0.54215 0.0
C215 C 0.74048 0.57396 0.54983 0.0
C216 C 0.73499 0.5716 0.568 0.0
C217 C 0.71055 0.58603 0.5697 0.0
C218 C 0.70335 0.59528 0.55441 0.0
C219 C 0.7706 0.59509 0.57632 0.0
C220 C 0.71735 0.533 0.57309 0.0
H221 H 0.60797 0.62043 0.58287 0.0
H222 H 0.61148 0.6229 0.52243 0.0
H223 H 0.62273 0.556 0.5329 0.0
H224 H 0.66219 0.5691 0.52245 0.0
H225 H 0.63331 0.5832 0.51517 0.0
H226 H 0.68589 0.66701 0.53224 0.0
H227 H 0.68418 0.6416 0.51501 0.0
H228 H 0.71549 0.65174 0.53127 0.0
H229 H 0.65625 0.59625 0.6331 0.0
H230 H 0.7295 0.55926 0.63338 0.0
H231 H 0.73362 0.56394 0.60391 0.0
H232 H 0.69323 0.65599 0.60539 0.0
H233 H 0.65092 0.64044 0.61404 0.0
H234 H 0.65932 0.65273 0.59289 0.0
H235 H 0.61235 0.54916 0.60446 0.0
H236 H 0.60132 0.56964 0.58923 0.0
H237 H 0.60382 0.583 0.61018 0.0
H238 H 0.56895 0.63328 0.56803 0.0
C239 C 0.6093 0.62053 0.56982 0.0
C240 C 0.15551 0.57382 0.8637 0.0
C241 C 0.18757 0.59773 0.87082 0.0
C242 C 0.18989 0.60109 0.88795 0.0
C243 C 0.12958 0.55623 0.89048 0.0
C244 C 0.12715 0.55322 0.87372 0.0
C245 C 0.09193 0.5252 0.86811 0.0
H246 H 0.92544 0.40899 0.88597 0.0
C247 C 0.09569 0.53039 0.89732 0.0
C248 C 1.07361 0.51194 0.8843 0.0
H249 H 0.97462 0.439 0.83869 0.0
H250 H 1.03012 0.47334 0.85148 0.0
H251 H 0.99125 0.40347 0.9045 0.0
H252 H 0.962 0.4821 0.90053 0.0
H253 H 0.97667 0.48323 0.92055 0.0
H254 H 0.93872 0.44464 0.91325 0.0
H255 H 0.95336 0.39971 0.91419 0.0
H256 H 0.99557 0.42229 0.92383 0.0
C257 C 0.09641 0.49726 0.85893 0.0
C258 C 1.07545 0.54253 0.85779 0.0
C259 C 1.07741 0.52594 0.95834 0.0
C260 C 1.04819 0.50741 0.96836 0.0
C261 C 1.01656 0.48238 0.96115 0.0
C262 C 1.01403 0.47643 0.94427 0.0
C263 C 1.04331 0.49593 0.93442 0.0
C264 C 1.0743 0.52013 0.94154 0.0
C265 C 0.10246 0.53945 0.92926 0.0
C266 C 0.08333 0.52283 0.91355 0.0
C267 C 1.04877 0.49718 0.91661 0.0
C268 C 0.13225 0.53165 0.93267 0.0
C269 C 0.11338 0.57839 0.93024 0.0
C270 C 0.94823 0.42261 0.87837 0.0
C271 C 0.9453 0.42129 0.86124 0.0
C272 C 0.97584 0.43903 0.85187 0.0
C273 C 1.00817 0.4596 0.85934 0.0
C274 C 1.01017 0.46291 0.87636 0.0
C275 C 0.98079 0.44373 0.88565 0.0
C276 C 0.98798 0.45118 0.90359 0.0
C277 C 1.02632 0.47851 0.90343 0.0
C278 C 1.03897 0.48544 0.88741 0.0
C279 C 0.98156 0.41747 0.91212 0.0
C280 C 0.96511 0.46584 0.90997 0.0
H281 H 0.1648 0.58402 0.91072 0.0
H282 H 0.15265 0.5706 0.8506 0.0
H283 H 0.08117 0.56767 0.86328 0.0
H284 H 1.04683 0.52709 0.85712 0.0
H285 H 0.08598 0.54786 0.84521 0.0
H286 H 0.1195 0.49616 0.86349 0.0
H287 H 0.09997 0.50275 0.84566 0.0
H288 H 1.07434 0.47074 0.86084 0.0
H289 H 0.10234 0.54488 0.96341 0.0
H290 H 0.99349 0.46792 0.96848 0.0
H291 H 0.9892 0.45732 0.9395 0.0
H292 H 0.12169 0.5044 0.93679 0.0
H293 H 0.15 0.54886 0.94237 0.0
H294 H 0.14759 0.53403 0.9217 0.0
H295 H 0.09086 0.58166 0.93344 0.0
H296 H 0.12265 0.59207 0.91851 0.0
H297 H 0.13379 0.59202 0.93968 0.0
H298 H 0.21436 0.61865 0.89385 0.0
C299 C 0.16113 0.58056 0.89778 0.0
C300 C 1.03019 0.48775 0.47425 0.0
C301 C 1.00072 0.45981 0.46661 0.0
C302 C 0.99922 0.45839 0.44951 0.0
C303 C 1.05454 0.5118 0.44761 0.0
C304 C 1.05686 0.51374 0.46443 0.0
C305 C 0.08996 0.54636 0.46985 0.0
H306 H 0.23863 0.69519 0.4456 0.0
C307 C 0.08516 0.54248 0.44064 0.0
C308 C 0.10646 0.56341 0.45352 0.0
H309 H 0.20932 0.6621 0.49532 0.0
H310 H 0.1561 0.61114 0.4857 0.0
H311 H 0.21947 0.62183 0.43169 0.0
H312 H 0.16556 0.67927 0.43364 0.0
H313 H 0.15427 0.6579 0.41478 0.0
H314 H 0.19926 0.68895 0.41913 0.0
H315 H 0.23086 0.6591 0.41921 0.0
H316 H 0.1989 0.61607 0.41271 0.0
C317 C 0.11289 0.53541 0.47941 0.0
C318 C 0.07977 0.56906 0.47991 0.0
C319 C 0.09539 0.55369 0.37884 0.0
C320 C 0.11952 0.57954 0.36841 0.0
C321 C 0.14763 0.60946 0.3753 0.0
C322 C 0.15188 0.61339 0.39225 0.0
C323 C 0.12767 0.58723 0.40255 0.0
C324 C 0.09984 0.55821 0.39577 0.0
C325 C 1.07602 0.53374 0.40854 0.0
C326 C 0.09448 0.55252 0.42415 0.0
C327 C 0.12476 0.58363 0.42055 0.0
C328 C 1.07558 0.49888 0.40662 0.0
C329 C 1.04001 0.53126 0.40653 0.0
C330 C 0.2212 0.67695 0.45455 0.0
C331 C 0.22887 0.68277 0.47125 0.0
C332 C 0.20435 0.65848 0.48234 0.0
C333 C 0.17351 0.62878 0.47673 0.0
C334 C 0.16677 0.62323 0.45985 0.0
C335 C 0.19069 0.64757 0.44921 0.0
C336 C 0.18039 0.63875 0.43173 0.0
C337 C 0.14656 0.60488 0.43335 0.0
C338 C 0.13797 0.59526 0.44984 0.0
C339 C 0.20881 0.63386 0.42324 0.0
C340 C 0.17476 0.66768 0.42429 0.0
H341 H 1.02244 0.48075 0.42713 0.0
H342 H 1.03202 0.4896 0.4874 0.0
H343 H 1.05949 0.57221 0.4734 0.0
H344 H 0.10192 0.59536 0.48198 0.0
H345 H 1.06918 0.55699 0.49194 0.0
H346 H 0.11559 0.5154 0.47253 0.0
H347 H 0.10117 0.52427 0.49143 0.0
H348 H 0.13945 0.55721 0.48146 0.0
H349 H 1.07321 0.53063 0.37393 0.0
H350 H 0.16671 0.62963 0.36754 0.0
H351 H 0.17404 0.63665 0.39665 0.0
H352 H 0.10169 0.50338 0.40308 0.0
H353 H 1.05683 0.48251 0.39702 0.0
H354 H 1.06952 0.48388 0.41806 0.0
H355 H 1.04244 0.55508 0.40084 0.0
H356 H 1.02719 0.52922 0.41833 0.0
H357 H 1.02233 0.50899 0.39869 0.0
H358 H 0.97713 0.43727 0.44336 0.0
C359 C 1.02572 0.48387 0.44006 0.0
C360 C 0.61318 0.98073 0.80427 0.0
C361 C 0.61238 0.95231 0.79596 0.0
C362 C 0.61472 0.95366 0.77886 0.0
C363 C 0.61642 1.00889 0.77826 0.0
C364 C 0.61495 1.00879 0.79509 0.0
C365 C 0.61512 1.04124 0.80123 0.0
H366 H 0.61121 0.18963 0.77966 0.0
C367 C 0.61652 1.0401 0.77196 0.0
C368 C 0.61546 0.05957 0.78528 0.0
H369 H 0.61919 0.15958 0.82884 0.0
H370 H 0.61692 0.10695 0.81845 0.0
H371 H 0.66689 0.17541 0.76551 0.0
H372 H 0.55556 0.11643 0.76697 0.0
H373 H 0.56672 0.10764 0.74782 0.0
H374 H 0.57854 0.1516 0.75301 0.0
H375 H 0.63977 0.18478 0.75269 0.0
H376 H 0.65409 0.15517 0.74646 0.0
C377 C 0.64855 0.06289 0.8113 0.0
C378 C 0.58178 1.0303 0.81107 0.0
C379 C 0.62042 0.05856 0.71036 0.0
C380 C 0.61833 0.0835 0.70053 0.0
C381 C 0.61342 0.10903 0.70824 0.0
C382 C 0.61179 0.11047 0.72522 0.0
C383 C 0.61474 0.08595 0.73486 0.0
C384 C 0.61831 0.06019 0.7274 0.0
C385 C 0.61904 1.03528 0.73963 0.0
C386 C 0.61645 0.05108 0.75566 0.0
C387 C 0.61432 0.08087 0.75274 0.0
C388 C 0.65449 1.03664 0.73804 0.0
C389 C 0.5867 0.99903 0.73646 0.0
C390 C 0.61297 0.17225 0.78837 0.0
C391 C 0.61611 0.17965 0.80512 0.0
C392 C 0.61692 0.15497 0.81583 0.0
C393 C 0.61587 0.1245 0.80978 0.0
C394 C 0.61398 0.11844 0.79281 0.0
C395 C 0.61247 0.14246 0.78259 0.0
C396 C 0.61167 0.1338 0.76497 0.0
C397 C 0.61336 0.1008 0.76597 0.0
C398 C 0.61429 0.09092 0.78227 0.0
C399 C 0.64454 0.16375 0.75684 0.0
C400 C 0.57652 0.12723 0.75767 0.0
H401 H 0.61842 0.98026 0.75712 0.0
H402 H 0.61165 0.98066 0.81743 0.0
H403 H 0.55849 1.01174 0.80393 0.0
H404 H 0.5784 0.05257 0.81407 0.0
H405 H 0.58218 1.01747 0.82264 0.0
H406 H 0.67163 0.06628 0.80449 0.0
H407 H 0.64734 1.04984 0.82304 0.0
H408 H 0.65317 0.08913 0.81393 0.0
H409 H 0.62402 1.0384 0.70499 0.0
H410 H 0.61047 0.12793 0.70114 0.0
H411 H 0.60836 0.13082 0.73015 0.0
H412 H 0.67578 0.06367 0.73585 0.0
H413 H 0.65419 1.02052 0.72766 0.0
H414 H 0.66231 1.0284 0.74922 0.0
H415 H 0.56561 1.00101 0.73004 0.0
H416 H 0.57447 0.98505 0.74788 0.0
H417 H 0.59335 0.98264 0.72882 0.0
H418 H 0.6149 0.93282 0.77214 0.0
C419 C 0.61679 0.98146 0.77008 0.0
C420 C 0.69739 0.5756 0.13957 0.0
C421 C 0.7265 0.57678 0.13182 0.0
C422 C 0.72682 0.57552 0.11471 0.0
C423 C 0.67128 0.57347 0.11304 0.0
C424 C 0.67006 0.57424 0.12987 0.0
C425 C 0.63725 0.57407 0.13543 0.0
H426 H 0.49036 0.57964 0.11202 0.0
C427 C 0.64034 0.57344 0.10621 0.0
C428 C 0.61995 0.57408 0.11918 0.0
H429 H 0.5205 0.57396 0.16152 0.0
H430 H 0.57164 0.57261 0.15158 0.0
H431 H 0.56373 0.63407 0.09965 0.0
H432 H 0.50576 0.52289 0.09795 0.0
H433 H 0.52553 0.53662 0.07885 0.0
H434 H 0.49526 0.54973 0.0856 0.0
H435 H 0.52917 0.61095 0.08525 0.0
H436 H 0.57354 0.62283 0.08076 0.0
C437 C 0.6479 0.60726 0.14537 0.0
C438 C 0.61485 0.54057 0.14518 0.0
C439 C 0.62708 0.57288 0.04443 0.0
C440 C 0.60339 0.57617 0.0342 0.0
C441 C 0.57634 0.57947 0.04122 0.0
C442 C 0.57268 0.57916 0.05819 0.0
C443 C 0.5966 0.57595 0.06834 0.0
C444 C 0.62343 0.57328 0.0614 0.0
C445 C 0.64758 0.57228 0.07405 0.0
C446 C 0.63028 0.57383 0.08975 0.0
C447 C 0.60034 0.57564 0.08631 0.0
C448 C 0.68398 0.60495 0.07172 0.0
C449 C 0.64683 0.53727 0.07226 0.0
C450 C 0.50801 0.57854 0.12086 0.0
C451 C 0.50133 0.57745 0.13761 0.0
C452 C 0.52484 0.5749 0.14852 0.0
C453 C 0.55461 0.57424 0.14273 0.0
C454 C 0.56092 0.57577 0.12582 0.0
C455 C 0.53732 0.57759 0.11533 0.0
C456 C 0.54656 0.57816 0.09779 0.0
C457 C 0.57958 0.57633 0.09922 0.0
C458 C 0.58869 0.5752 0.11565 0.0
C459 C 0.55341 0.61309 0.09033 0.0
C460 C 0.5168 0.54539 0.08947 0.0
H461 H 0.70192 0.57277 0.09245 0.0
H462 H 0.69637 0.57648 0.15273 0.0
H463 H 0.6124 0.51774 0.13852 0.0
H464 H 0.58815 0.53552 0.14707 0.0
H465 H 0.62683 0.54179 0.15727 0.0
H466 H 0.66758 0.63044 0.13862 0.0
H467 H 0.65942 0.60632 0.15728 0.0
H468 H 0.62576 0.61133 0.14768 0.0
H469 H 0.64849 0.57092 0.03934 0.0
H470 H 0.55779 0.58198 0.03354 0.0
H471 H 0.55135 0.58151 0.06272 0.0
H472 H 0.6822 0.62615 0.06539 0.0
H473 H 0.70124 0.59899 0.06433 0.0
H474 H 0.69702 0.61663 0.08344 0.0
H475 H 0.62001 0.51594 0.06952 0.0
H476 H 0.65443 0.52911 0.08354 0.0
H477 H 0.66388 0.53829 0.06217 0.0
H478 H 0.7485 0.57598 0.10847 0.0
C479 C 0.69959 0.5737 0.10538 0.0
C480 C 0.23532 0.59436 0.16884 0.0
C481 C 0.2048 0.56593 0.16253 0.0
C482 C 0.26772 0.59604 0.16756 0.0
C483 C 0.30895 0.54158 0.1592 0.0
H484 H 0.39112 0.63053 0.15119 0.0
C485 C 0.44756 0.55667 0.15536 0.0
C486 C 0.46976 0.57888 0.14317 0.0
C487 C 0.41612 0.55578 0.15908 0.0
C488 C 0.36851 0.60535 0.15334 0.0
H489 H 0.18501 0.51688 0.14992 0.0
H490 H 0.24122 0.51992 0.14754 0.0
H491 H 0.33504 0.62709 0.1544 0.0
H492 H 0.47665 0.61885 0.12597 0.0
H493 H 0.42238 0.61704 0.13222 0.0
H494 H 0.34238 0.51975 0.15765 0.0
C495 C 0.24016 0.54082 0.15372 0.0
C496 C 0.33617 0.60343 0.1554 0.0
C497 C 0.20776 0.53915 0.15499 0.0
C498 C 0.46017 0.60104 0.13529 0.0
C499 C 0.42898 0.60025 0.13902 0.0
C500 C 0.34135 0.54351 0.15715 0.0
C501 C 0.27079 0.56934 0.15993 0.0
C502 C 0.30569 0.57147 0.15824 0.0
C503 C 0.40609 0.5773 0.15082 0.0
C504 C 0.37169 0.5754 0.15403 0.0
H505 H 0.23431 0.61555 0.17475 0.0
H506 H 0.29036 0.61827 0.17272 0.0
H507 H 0.28641 0.5165 0.1616 0.0
H508 H 0.45388 0.53912 0.16166 0.0
H509 H 0.3996 0.53806 0.16841 0.0
C510 C 0.74593 0.17617 0.50272 0.0
C511 C 0.71423 0.17269 0.49717 0.0
C512 C 0.77743 0.20781 0.50112 0.0
C513 C 0.81677 0.29199 0.4779 0.0
H514 H 0.89131 0.32243 0.50969 0.0
C515 C 0.9373 0.42861 0.47327 0.0
C516 C 0.97025 0.43193 0.47558 0.0
C517 C 0.90685 0.39815 0.47769 0.0
C518 C 0.87089 0.31427 0.50062 0.0
H519 H 0.69136 0.20078 0.48584 0.0
H520 H 0.74554 0.25526 0.48321 0.0
H521 H 0.83732 0.26742 0.51365 0.0
H522 H 0.99693 0.40592 0.48477 0.0
H523 H 0.94372 0.35262 0.49271 0.0
H524 H 0.85007 0.33865 0.46489 0.0
C525 C 0.74642 0.23353 0.4886 0.0
C526 C 0.83978 0.2825 0.50286 0.0
C527 C 0.71504 0.20205 0.49021 0.0
C528 C 0.97202 0.40452 0.48319 0.0
C529 C 0.9414 0.37383 0.48763 0.0
C530 C 0.84765 0.32368 0.47572 0.0
C531 C 0.77831 0.23704 0.49389 0.0
C532 C 0.81204 0.27082 0.49156 0.0
C533 C 0.90824 0.36972 0.48443 0.0
C534 C 0.87524 0.33556 0.48706 0.0
H535 H 0.74655 0.15426 0.50811 0.0
H536 H 0.80123 0.20901 0.50521 0.0
H537 H 0.79677 0.28389 0.46862 0.0
H538 H 0.935 0.44905 0.46724 0.0
H539 H 0.88206 0.39653 0.47534 0.0
C540 C 0.64578 0.69822 0.81982 0.0
C541 C 0.61885 0.66842 0.82728 0.0
C542 C 0.6442 0.72892 0.81846 0.0
C543 C 0.58171 0.76288 0.82068 0.0
H544 H 0.66652 0.8521 0.82036 0.0
C545 C 0.58353 0.88749 0.79827 0.0
C546 C 0.6085 0.92036 0.80421 0.0
C547 C 0.58359 0.85731 0.80315 0.0
C548 C 0.64242 0.82756 0.82063 0.0
H549 H 0.56907 0.64825 0.83932 0.0
H550 H 0.56665 0.70161 0.83731 0.0
H551 H 0.66941 0.79956 0.82489 0.0
H552 H 0.6524 0.94675 0.82059 0.0
H553 H 0.6521 0.89388 0.82956 0.0
H554 H 0.55464 0.79087 0.81684 0.0
C555 C 0.58886 0.70126 0.83216 0.0
C556 C 0.64412 0.79708 0.82298 0.0
C557 C 0.59035 0.67047 0.83344 0.0
C558 C 0.63258 0.9219 0.81588 0.0
C559 C 0.63269 0.89151 0.8208 0.0
C560 C 0.58 0.79334 0.81843 0.0
C561 C 0.61572 0.73112 0.82459 0.0
C562 C 0.61383 0.76405 0.82283 0.0
C563 C 0.60863 0.85869 0.81423 0.0
C564 C 0.61035 0.82629 0.81811 0.0
H565 H 0.66809 0.6978 0.81483 0.0
H566 H 0.6652 0.75078 0.81226 0.0
H567 H 0.55766 0.73829 0.82032 0.0
H568 H 0.56465 0.88525 0.78922 0.0
H569 H 0.56483 0.83305 0.79755 0.0
C570 C 1.00542 0.59612 0.17417 0.0
C571 C 1.01113 0.57278 0.16498 0.0
C572 C 0.9743 0.59708 0.17253 0.0
C573 C 0.88288 0.54588 0.15583 0.0
H574 H 0.88415 0.63308 0.15995 0.0
C575 C 0.7553 0.5526 0.1502 0.0
C576 C 0.75751 0.57998 0.14073 0.0
C577 C 0.78567 0.55244 0.15524 0.0
C578 C 0.88319 0.60841 0.15873 0.0
H579 H 0.9881 0.5323 0.14666 0.0
H580 H 0.93497 0.5348 0.1434 0.0
H581 H 0.93775 0.63138 0.16375 0.0
H582 H 0.79337 0.62911 0.12962 0.0
H583 H 0.8459 0.62922 0.1385 0.0
H584 H 0.82853 0.52309 0.15031 0.0
C585 C 0.95392 0.55178 0.15229 0.0
C586 C 0.91408 0.60736 0.1611 0.0
C587 C 0.98477 0.55052 0.15408 0.0
C588 C 0.79076 0.60788 0.13712 0.0
C589 C 0.82099 0.60788 0.14222 0.0
C590 C 0.85198 0.54688 0.15353 0.0
C591 C 0.94795 0.57496 0.16152 0.0
C592 C 0.9146 0.57608 0.15956 0.0
C593 C 0.81905 0.57975 0.151 0.0
C594 C 0.85161 0.57824 0.15477 0.0
H595 H 1.02497 0.61361 0.18273 0.0
H596 H 0.97083 0.61502 0.18007 0.0
H597 H 0.88183 0.52125 0.15464 0.0
H598 H 0.73013 0.53045 0.15294 0.0
H599 H 0.78294 0.53049 0.16215 0.0
C600 C 0.51609 0.94656 0.49984 0.0
C601 C 0.51651 0.97748 0.49561 0.0
C602 C 0.48531 0.91422 0.49876 0.0
C603 C 0.38786 0.87291 0.49462 0.0
H604 H 0.39391 0.79278 0.48122 0.0
C605 C 0.26414 0.7349 0.48984 0.0
C606 C 0.2625 0.71407 0.47659 0.0
C607 C 0.29512 0.76598 0.49354 0.0
C608 C 0.3915 0.81482 0.48488 0.0
H609 H 0.48413 0.99794 0.48691 0.0
H610 H 0.43098 0.94194 0.48477 0.0
H611 H 0.44675 0.8485 0.48441 0.0
H612 H 0.29332 0.70927 0.45744 0.0
H613 H 0.34634 0.76297 0.46359 0.0
H614 H 0.33247 0.83936 0.49451 0.0
C615 C 0.45428 0.94257 0.48924 0.0
C616 C 0.42211 0.84696 0.48694 0.0
C617 C 0.48503 0.97492 0.49037 0.0
C618 C 0.29316 0.7247 0.46758 0.0
C619 C 0.32396 0.75555 0.47126 0.0
C620 C 0.35721 0.84074 0.49252 0.0
C621 C 0.45381 0.91156 0.49336 0.0
C622 C 0.42091 0.87674 0.49172 0.0
C623 C 0.32552 0.77707 0.48418 0.0
C624 C 0.35841 0.81113 0.48744 0.0
H625 H 0.53963 0.94722 0.50398 0.0
H626 H 0.48628 0.89129 0.50232 0.0
H627 H 0.38552 0.89482 0.49856 0.0
H628 H 0.24119 0.72778 0.49705 0.0
H629 H 0.29516 0.78136 0.50374 0.0
C630 C 0.58588 0.43843 0.83129 0.0
C631 C 0.61695 0.47048 0.83247 0.0
C632 C 0.58644 0.40716 0.82985 0.0
C633 C 0.64759 0.37351 0.82016 0.0
H634 H 0.56985 0.28591 0.83404 0.0
C635 C 0.63746 0.24356 0.80116 0.0
C636 C 0.61923 0.21343 0.81074 0.0
C637 C 0.63792 0.27441 0.80507 0.0
C638 C 0.59213 0.31008 0.83027 0.0
H639 H 0.67277 0.49423 0.83396 0.0
H640 H 0.6741 0.44042 0.83216 0.0
H641 H 0.56912 0.33942 0.8389 0.0
H642 H 0.5884 0.19345 0.83261 0.0
H643 H 0.59034 0.24775 0.83987 0.0
H644 H 0.67141 0.34466 0.81223 0.0
C645 C 0.64909 0.43904 0.83156 0.0
C646 C 0.59145 0.34105 0.83282 0.0
C647 C 0.64846 0.47022 0.83269 0.0
C648 C 0.60273 0.2159 0.82488 0.0
C649 C 0.60346 0.24712 0.82891 0.0
C650 C 0.64851 0.34273 0.81784 0.0
C651 C 0.61812 0.40681 0.82983 0.0
C652 C 0.61904 0.37343 0.82767 0.0
C653 C 0.62075 0.27692 0.81895 0.0
C654 C 0.62059 0.31023 0.8226 0.0
H655 H 0.56106 0.43755 0.83098 0.0
H656 H 0.5619 0.38338 0.82833 0.0
H657 H 0.66922 0.39736 0.8157 0.0
H658 H 0.65126 0.24334 0.79037 0.0
H659 H 0.65117 0.29608 0.79681 0.0
C660 C 0.57264 0.84549 0.49453 0.0
C661 C 0.56318 0.86406 0.50509 0.0
C662 C 0.55445 0.80939 0.49463 0.0
C663 C 0.50863 0.74173 0.5246 0.0
H664 H 0.51701 0.68709 0.4901 0.0
C665 C 0.53112 0.63077 0.54073 0.0
C666 C 0.56427 0.63935 0.53494 0.0
C667 C 0.51292 0.64577 0.53378 0.0
C668 C 0.51369 0.70163 0.4998 0.0
H669 H 0.52517 0.85979 0.52275 0.0
H670 H 0.49289 0.79639 0.52283 0.0
H671 H 0.51593 0.73994 0.4833 0.0
H672 H 0.60296 0.66862 0.51648 0.0
H673 H 0.57109 0.69382 0.50429 0.0
H674 H 0.50862 0.70471 0.54115 0.0
C675 C 0.51492 0.80971 0.51476 0.0
C676 C 0.5133 0.73199 0.49594 0.0
C677 C 0.53341 0.84594 0.51477 0.0
C678 C 0.57738 0.66091 0.52119 0.0
C679 C 0.55899 0.67539 0.51412 0.0
C680 C 0.50861 0.71121 0.52842 0.0
C681 C 0.5262 0.79101 0.50523 0.0
C682 C 0.51348 0.75371 0.50842 0.0
C683 C 0.52728 0.66913 0.52076 0.0
C684 C 0.51371 0.6923 0.51616 0.0
H685 H 0.59555 0.85883 0.48697 0.0
H686 H 0.56437 0.7961 0.48729 0.0
H687 H 0.50868 0.75763 0.53457 0.0
H688 H 0.51979 0.61355 0.55103 0.0
H689 H 0.48844 0.64044 0.53908 0.0
C690 C 0.73902 0.47557 0.80396 0.0
C691 C 0.76413 0.51073 0.80227 0.0
C692 C 0.74891 0.45035 0.8042 0.0
C693 C 0.78093 0.41345 0.82146 0.0
H694 H 0.86776 0.4272 0.80393 0.0
C695 C 0.88546 0.4132 0.85992 0.0
C696 C 0.9108 0.40697 0.85311 0.0
C697 C 0.85715 0.40875 0.85063 0.0
C698 C 0.84292 0.42206 0.80869 0.0
H699 H 0.81859 0.54713 0.79827 0.0
H700 H 0.8363 0.50348 0.79928 0.0
H701 H 0.83781 0.45347 0.79034 0.0
H702 H 0.92366 0.38671 0.83187 0.0
H703 H 0.8744 0.37969 0.81548 0.0
H704 H 0.78685 0.38328 0.84019 0.0
C705 C 0.80885 0.49496 0.80002 0.0
C706 C 0.82599 0.43757 0.801 0.0
C707 C 0.79884 0.52011 0.79953 0.0
C708 C 0.9051 0.39264 0.83734 0.0
C709 C 0.87684 0.38847 0.82797 0.0
C710 C 0.79773 0.39776 0.82906 0.0
C711 C 0.78418 0.45995 0.80309 0.0
C712 C 0.79603 0.43529 0.80791 0.0
C713 C 0.85357 0.39815 0.83426 0.0
C714 C 0.83006 0.40382 0.82338 0.0
H715 H 0.71196 0.46782 0.80587 0.0
H716 H 0.72922 0.42358 0.80618 0.0
H717 H 0.75784 0.41092 0.82716 0.0
H718 H 0.88896 0.42456 0.87192 0.0
H719 H 0.83998 0.41682 0.85585 0.0
C720 C 0.33291 0.75356 0.16272 0.0
C721 C 0.31771 0.72959 0.17543 0.0
C722 C 0.36896 0.77366 0.16156 0.0
C723 C 0.44321 0.81021 0.18933 0.0
H724 H 0.48973 0.85986 0.15003 0.0
C725 C 0.55568 0.94644 0.19495 0.0
C726 C 0.54615 0.9688 0.1873 0.0
C727 C 0.53996 0.91164 0.19036 0.0
C728 C 0.47742 0.84585 0.16109 0.0
H729 H 0.32788 0.70534 0.19599 0.0
H730 H 0.39117 0.74001 0.1938 0.0
H731 H 0.43629 0.80384 0.14791 0.0
H732 H 0.51525 0.9729 0.16775 0.0
H733 H 0.48819 0.91259 0.15972 0.0
H734 H 0.4831 0.85289 0.20251 0.0
C735 C 0.37528 0.74401 0.18498 0.0
C736 C 0.44672 0.8139 0.1599 0.0
C737 C 0.33912 0.72421 0.18627 0.0
C738 C 0.52336 0.95653 0.17387 0.0
C739 C 0.50788 0.92185 0.16921 0.0
C740 C 0.47405 0.84185 0.19051 0.0
C741 C 0.39064 0.76999 0.17301 0.0
C742 C 0.42803 0.79693 0.17402 0.0
C743 C 0.51467 0.89868 0.17796 0.0
C744 C 0.49019 0.861 0.17642 0.0
H745 H 0.31693 0.75826 0.15423 0.0
H746 H 0.3796 0.79371 0.15234 0.0
H747 H 0.42968 0.79812 0.2005 0.0
H748 H 0.57389 0.95538 0.20507 0.0
H749 H 0.54593 0.89438 0.19718 0.0
C750 C 0.66708 0.30531 0.46823 0.0
C751 C 0.67047 0.28014 0.47706 0.0
C752 C 0.69241 0.34029 0.46956 0.0
C753 C 0.75477 0.39837 0.49972 0.0
H754 H 0.77175 0.46722 0.46662 0.0
C755 C 0.79564 0.53543 0.51917 0.0
C756 C 0.77078 0.54394 0.51361 0.0
C757 C 0.79924 0.50944 0.51141 0.0
C758 C 0.76772 0.44834 0.47595 0.0
H759 H 0.70418 0.27144 0.49321 0.0
H760 H 0.74865 0.33233 0.49532 0.0
H761 H 0.74671 0.40643 0.45882 0.0
H762 H 0.73238 0.53357 0.49462 0.0
H763 H 0.73904 0.48934 0.48119 0.0
H764 H 0.77349 0.43963 0.51699 0.0
C765 C 0.7261 0.32523 0.48767 0.0
C766 C 0.75324 0.41354 0.4715 0.0
C767 C 0.70062 0.29037 0.48647 0.0
C768 C 0.75217 0.52829 0.49922 0.0
C769 C 0.75599 0.50269 0.49143 0.0
C770 C 0.76923 0.43308 0.50416 0.0
C771 C 0.72177 0.35072 0.47964 0.0
C772 C 0.74493 0.38799 0.48347 0.0
C773 C 0.77826 0.49176 0.49789 0.0
C774 C 0.77406 0.45814 0.49245 0.0
H775 H 0.64407 0.29818 0.46092 0.0
H776 H 0.68795 0.35926 0.4634 0.0
H777 H 0.74858 0.37942 0.5093 0.0
H778 H 0.81106 0.54753 0.52998 0.0
H779 H 0.81697 0.50184 0.51653 0.0
C780 C 0.41675 0.59358 0.82497 0.0
C781 C 0.44719 0.60825 0.83447 0.0
C782 C 0.39671 0.6096 0.82392 0.0
C783 C 0.37597 0.6628 0.84969 0.0
H784 H 0.30927 0.64428 0.81497 0.0
C785 C 0.24588 0.64992 0.86488 0.0
C786 C 0.21932 0.61633 0.8607 0.0
C787 C 0.27834 0.66446 0.85734 0.0
C788 C 0.32806 0.65024 0.82469 0.0
H789 H 0.48229 0.65265 0.84913 0.0
H790 H 0.44723 0.68089 0.84726 0.0
H791 H 0.36217 0.64225 0.80929 0.0
H792 H 0.20532 0.57296 0.84436 0.0
H793 H 0.26134 0.59828 0.83123 0.0
H794 H 0.34099 0.66857 0.86532 0.0
C795 C 0.43851 0.65665 0.84087 0.0
C796 C 0.35825 0.64894 0.82147 0.0
C797 C 0.45849 0.64045 0.84201 0.0
C798 C 0.22493 0.59899 0.84782 0.0
C799 C 0.25719 0.61361 0.84022 0.0
C800 C 0.34595 0.66431 0.85287 0.0
C801 C 0.40674 0.64076 0.8323 0.0
C802 C 0.38138 0.653 0.83419 0.0
C803 C 0.2847 0.64578 0.8454 0.0
C804 C 0.32068 0.65588 0.84065 0.0
H805 H 0.40732 0.56867 0.8191 0.0
H806 H 0.37214 0.59623 0.81744 0.0
H807 H 0.39308 0.66599 0.85981 0.0
H808 H 0.24212 0.66434 0.87448 0.0
H809 H 0.299 0.68947 0.86145 0.0
C810 C 0.87315 0.40671 0.13779 0.0
C811 C 0.89942 0.43539 0.14617 0.0
C812 C 0.83835 0.39781 0.1395 0.0
C813 C 0.78354 0.40545 0.17039 0.0
H814 H 0.71116 0.34866 0.13937 0.0
C815 C 0.64914 0.30844 0.19327 0.0
C816 C 0.64293 0.2751 0.18918 0.0
C817 C 0.67329 0.3375 0.18448 0.0
C818 C 0.73101 0.36509 0.14808 0.0
H819 H 0.91014 0.4789 0.16178 0.0
H820 H 0.84956 0.46334 0.16475 0.0
H821 H 0.77097 0.38442 0.13002 0.0
H822 H 0.65607 0.24661 0.17176 0.0
H823 H 0.69633 0.29635 0.15644 0.0
H824 H 0.74414 0.38456 0.18859 0.0
C825 C 0.85571 0.44745 0.15706 0.0
C826 C 0.76528 0.38529 0.14277 0.0
C827 C 0.89041 0.45627 0.15539 0.0
C828 C 0.65915 0.27141 0.17523 0.0
C829 C 0.68256 0.30021 0.16633 0.0
C830 C 0.74931 0.38546 0.17566 0.0
C831 C 0.82915 0.41751 0.14956 0.0
C832 C 0.79221 0.40404 0.15405 0.0
C833 C 0.69111 0.33365 0.17128 0.0
C834 C 0.72313 0.36344 0.16474 0.0
H835 H 0.87923 0.39 0.13068 0.0
H836 H 0.81861 0.37421 0.13375 0.0
H837 H 0.80349 0.41941 0.17949 0.0
H838 H 0.63662 0.31232 0.20368 0.0
H839 H 0.67936 0.36308 0.18851 0.0
C840 C 0.08631 0.59572 0.11283 0.0
C841 C 0.10655 0.58469 0.1213 0.0
C842 C 1.07645 0.5856 0.09667 0.0
C843 C 1.0759 0.57816 0.06013 0.0
H844 H 1.06094 0.48955 0.04465 0.0
C845 C 1.07191 0.54909 0.99181 0.0
C846 C 1.05079 0.51499 0.98613 0.0
C847 C 1.07577 0.55634 0.00845 0.0
C848 C 1.06445 0.51418 0.04877 0.0
H849 H 0.13267 0.55476 0.11968 0.0
H850 H 0.11706 0.53844 0.09126 0.0
H851 H 1.07184 0.50363 0.07343 0.0
H852 H 1.01647 0.46183 0.99368 0.0
H853 H 1.02179 0.47475 0.02273 0.0
H854 H 1.06703 0.58812 0.03563 0.0
C855 C 0.10767 0.55392 0.09713 0.0
C856 C 1.07135 0.52254 0.06529 0.0
C857 C 0.11698 0.56355 0.11337 0.0
C858 C 1.03278 0.48844 -0.00242 0.0
C859 C 1.03624 0.49579 0.01428 0.0
C860 C 1.06843 0.56956 0.04368 0.0
C861 C 0.08719 0.56473 0.08855 0.0
C862 C 1.07775 0.55489 0.07115 0.0
C863 C 1.05807 0.52982 0.01994 0.0
C864 C 1.06324 0.53773 0.03771 0.0
H865 H 1.07758 0.61169 0.11878 0.0
H866 H 1.06011 0.59389 0.09062 0.0
H867 H 0.08101 0.60346 0.06408 0.0
H868 H 0.08563 0.57039 0.98339 0.0
H869 H 0.09323 0.58277 0.01227 0.0
C870 C 0.65393 0.09407 0.44188 0.0
C871 C 0.62527 0.07631 0.45222 0.0
C872 C 0.64908 0.10134 0.42579 0.0
C873 C 0.5849 0.06855 0.39315 0.0
H874 H 0.63881 0.15975 0.37383 0.0
C875 C 0.55618 0.09265 0.32792 0.0
C876 C 0.5848 0.11308 0.31796 0.0
C877 C 0.56048 0.09183 0.34474 0.0
C878 C 0.62379 0.13404 0.37897 0.0
H879 H 0.56924 0.05224 0.45406 0.0
H880 H 0.56073 0.06434 0.42588 0.0
H881 H 0.64861 0.15075 0.40235 0.0
H882 H 0.64009 0.14952 0.3176 0.0
H883 H 0.64809 0.1473 0.34697 0.0
H884 H 0.56095 0.0512 0.36986 0.0
C885 C 0.58688 0.0728 0.4302 0.0
C886 C 0.62937 0.12897 0.39531 0.0
C887 C 0.59176 0.06595 0.44629 0.0
C888 C 0.61761 0.13379 0.32511 0.0
C889 C 0.62209 0.13253 0.34194 0.0
C890 C 0.57965 0.07345 0.37682 0.0
C891 C 0.61546 0.09043 0.41978 0.0
C892 C 0.60988 0.09618 0.40253 0.0
C893 C 0.59369 0.11086 0.35192 0.0
C894 C 0.59891 0.10627 0.3695 0.0
H895 H 0.68003 0.10241 0.44622 0.0
H896 H 0.6715 0.11477 0.41794 0.0
H897 H 0.56989 1.04288 0.39837 0.0
H898 H 0.53057 0.07669 0.32263 0.0
H899 H 0.53784 0.07563 0.35206 0.0
C900 C 0.5996 0.52319 0.77756 0.0
C901 C 0.60932 0.55387 0.78618 0.0
C902 C 0.61188 0.52448 0.76178 0.0
C903 C 0.67919 0.58434 0.73241 0.0
H904 H 0.617 0.51786 0.70048 0.0
C905 C 0.69475 0.60333 0.66274 0.0
C906 C 0.69012 0.57498 0.65337 0.0
C907 C 0.68872 0.59978 0.67949 0.0
C908 C 0.63479 0.53629 0.70933 0.0
H909 H 0.63909 0.60992 0.7852 0.0
H910 H 0.65939 0.61239 0.75745 0.0
H911 H 0.59802 0.51363 0.7286 0.0
H912 H 0.67624 0.52097 0.65404 0.0
H913 H 0.66492 0.51451 0.68346 0.0
H914 H 0.71523 0.60791 0.71279 0.0
C915 C 0.64322 0.58723 0.76294 0.0
C916 C 0.62401 0.53386 0.72547 0.0
C917 C 0.63133 0.58588 0.77879 0.0
C918 C 0.68019 0.54322 0.66107 0.0
C919 C 0.67353 0.53949 0.67781 0.0
C920 C 0.68974 0.58706 0.71621 0.0
C921 C 0.63372 0.55654 0.75422 0.0
C922 C 0.64593 0.55806 0.73721 0.0
C923 C 0.67738 0.56766 0.68712 0.0
C924 C 0.66752 0.56322 0.70451 0.0
H925 H 0.58292 0.49816 0.78309 0.0
H926 H 0.60448 0.50031 0.75559 0.0
H927 H 0.69711 0.60298 0.74115 0.0
H928 H 0.70245 0.62807 0.65703 0.0
H929 H 0.69161 0.6218 0.68637 0.0
C930 C 0.61685 0.12264 0.55309 0.0
C931 C 0.61339 0.0958 0.54296 0.0
C932 C 0.61967 0.12059 0.56997 0.0
C933 C 0.63369 0.07049 0.60308 0.0
H934 H 0.59301 0.11308 0.62948 0.0
C935 C 0.60704 0.0519 0.67357 0.0
C936 C 0.62095 0.08322 0.68238 0.0
C937 C 0.60778 0.05206 0.65648 0.0
C938 C 0.60454 0.10114 0.62224 0.0
H939 H 0.60953 1.0455 0.54244 0.0
H940 H 0.61316 1.04104 0.57198 0.0
H941 H 0.59036 0.11557 0.59995 0.0
H942 H 0.64854 0.13931 0.67986 0.0
H943 H 0.64817 0.13925 0.65022 0.0
H944 H 0.64646 0.05497 0.62574 0.0
C945 C 0.61507 0.0644 0.56695 0.0
C946 C 0.60337 0.10282 0.60527 0.0
C947 C 0.61302 0.06688 0.54998 0.0
C948 C 0.63653 0.1146 0.67361 0.0
C949 C 0.63665 0.11468 0.65659 0.0
C950 C 0.63421 0.06823 0.62013 0.0
C951 C 0.61803 0.0911 0.57723 0.0
C952 C 0.61842 0.08803 0.59539 0.0
C953 C 0.62194 0.08345 0.64787 0.0
C954 C 0.62006 0.08398 0.62983 0.0
H955 H 0.61738 0.14532 0.54793 0.0
H956 H 0.62297 0.1422 0.5773 0.0
H957 H 0.6459 0.05908 0.59599 0.0
H958 H 0.59457 1.0272 0.67981 0.0
H959 H 0.59615 1.02762 0.64998 0.0
C960 C 0.61848 0.55296 0.88505 0.0
C961 C 0.63487 0.5853 0.87719 0.0
C962 C 0.614 0.55095 0.90198 0.0
C963 C 0.60362 0.59439 0.93692 0.0
H964 H 0.64458 0.55073 0.96269 0.0
C965 C 0.60883 0.6042 0.00708 0.0
C966 C 0.60702 0.57672 0.01624 0.0
C967 C 0.61188 0.60469 0.99012 0.0
C968 C 0.63232 0.56244 0.95575 0.0
H969 H 0.65841 0.64074 0.88068 0.0
H970 H 0.64939 0.6371 0.91023 0.0
H971 H 0.64867 0.55144 0.93306 0.0
H972 H 0.60652 0.52798 0.01495 0.0
H973 H 0.61008 0.52773 0.98529 0.0
H974 H 0.58599 0.60435 0.95932 0.0
C975 C 0.64058 0.61344 0.90332 0.0
C976 C 0.63491 0.56299 0.93875 0.0
C977 C 0.64582 0.6155 0.88647 0.0
C978 C 0.60818 0.54962 0.00814 0.0
C979 C 0.61045 0.54968 0.99112 0.0
C980 C 0.60032 0.59319 0.95389 0.0
C981 C 0.62501 0.58119 0.91125 0.0
C982 C 0.62089 0.57927 0.9292 0.0
C983 C 0.61239 0.57727 0.98182 0.0
C984 C 0.61497 0.57754 0.96362 0.0
H985 H 0.60982 0.52928 0.87818 0.0
H986 H 0.60178 0.52579 0.90783 0.0
H987 H 0.59232 0.60682 0.92979 0.0
H988 H 0.60835 0.62559 0.01309 0.0
H989 H 0.61421 0.62687 0.98357 0.0
C990 C 0.09841 0.57318 0.21844 0.0
C991 C 0.09897 0.54485 0.21128 0.0
C992 C 0.10038 0.57728 0.23539 0.0
C993 C 0.08289 0.52855 0.2736 0.0
H994 H 0.14751 0.61735 0.29293 0.0
C995 C 0.10863 0.54405 0.34305 0.0
C996 C 0.11567 0.57534 0.35043 0.0
C997 C 0.10607 0.54044 0.32608 0.0
C998 C 0.12887 0.59249 0.28778 0.0
H999 H 0.10193 0.49857 0.21618 0.0
H1000 H 0.10478 0.50541 0.24581 0.0
H1001 H 0.14378 0.61109 0.26336 0.0
H1002 H 0.12457 0.62705 0.34585 0.0
H1003 H 0.11908 0.62054 0.31631 0.0
H1004 H 1.06729 0.50998 0.29788 0.0
C1005 C 0.10288 0.52446 0.23833 0.0
C1006 C 0.12688 0.58891 0.2708 0.0
C1007 C 0.10141 0.52064 0.22137 0.0
C1008 C 0.11957 0.60277 0.34049 0.0
C1009 C 0.11658 0.59904 0.32353 0.0
C1010 C 0.08453 0.53221 0.29056 0.0
C1011 C 0.10243 0.55285 0.24552 0.0
C1012 C 0.10404 0.55686 0.26354 0.0
C1013 C 0.11004 0.5679 0.31606 0.0
C1014 C 0.10771 0.56418 0.29792 0.0
H1015 H 0.09645 0.5922 0.21094 0.0
H1016 H 0.09973 0.59928 0.2406 0.0
H1017 H 1.06469 0.50363 0.26833 0.0
H1018 H 0.1059 0.52259 0.35039 0.0
H1019 H 0.10166 0.51628 0.32084 0.0
loop_
_geom_bond_atom_site_label_1
_geom_bond_atom_site_label_2
_geom_bond_distance
_geom_bond_site_symmetry_2
_ccdc_geom_bond_type
C0 Eu1 2.835 1_655 S
C0 C2 1.500 . S
C0 O20 1.257 . S
C0 O21 1.260 . S
Eu1 C0 2.835 1_455 S
Eu1 O20 2.473 1_455 S
Eu1 O21 2.480 1_455 S
Eu1 O22 2.430 . S
Eu1 O23 2.670 . S
Eu1 O24 2.394 1_455 S
Eu1 O29 2.355 . S
Eu1 O31 2.374 . S
C2 C0 1.500 . S
C2 C3 1.377 . S
C2 C7 1.377 . S
C3 C2 1.377 . S
C3 C4 1.395 . S
C3 H32 0.931 . S
C4 C3 1.395 . S
C4 C5 1.383 . S
C4 H33 0.931 . S
C5 C4 1.383 . S
C5 C6 1.394 . S
C6 C5 1.394 . S
C6 C7 1.378 . S
C6 H34 0.931 . S
C7 C2 1.377 . S
C7 C6 1.378 . S
C7 H35 0.931 . S
C8 O22 1.259 . S
C8 O23 1.270 . S
C9 O24 1.251 . S
C9 O25 1.251 . S
C10 Eu11 2.835 . S
C10 C12 1.500 . S
C10 O26 1.257 . S
C10 O27 1.260 . S
Eu11 C10 2.835 . S
Eu11 O23 2.355 . S
Eu11 O25 2.374 1_455 S
Eu11 O26 2.473 . S
Eu11 O27 2.480 . S
Eu11 O28 2.430 . S
Eu11 O29 2.670 . S
Eu11 O30 2.394 . S
C12 C10 1.500 . S
C12 C13 1.377 . S
C12 C17 1.377 . S
C13 C12 1.377 . S
C13 C14 1.395 . S
C13 H36 0.931 . S
C14 C13 1.395 . S
C14 C15 1.383 . S
C14 H37 0.931 . S
C15 C14 1.383 . S
C15 C16 1.394 . S
C16 C15 1.394 . S
C16 C17 1.378 . S
C16 H38 0.931 . S
C17 C12 1.377 . S
C17 C16 1.378 . S
C17 H39 0.931 . S
C18 O28 1.259 . S
C18 O29 1.270 . S
C19 O30 1.251 . S
C19 O31 1.251 . S
O20 C0 1.257 . S
O20 Eu1 2.473 1_655 S
O21 C0 1.260 . S
O21 Eu1 2.480 1_655 S
O22 Eu1 2.430 . S
O22 C8 1.259 . S
O23 Eu1 2.670 . S
O23 C8 1.270 . S
O23 Eu11 2.355 . S
O24 Eu1 2.394 1_655 S
O24 C9 1.251 . S
O25 C9 1.251 . S
O25 Eu11 2.374 1_655 S
O26 C10 1.257 . S
O26 Eu11 2.473 . S
O27 C10 1.260 . S
O27 Eu11 2.480 . S
O28 Eu11 2.430 . S
O28 C18 1.259 . S
O29 Eu1 2.355 . S
O29 Eu11 2.670 . S
O29 C18 1.270 . S
O30 Eu11 2.394 . S
O30 C19 1.251 . S
O31 Eu1 2.374 . S
O31 C19 1.251 . S
H32 C3 0.931 . S
H33 C4 0.931 . S
H34 C6 0.931 . S
H35 C7 0.931 . S
H36 C13 0.931 . S
H37 C14 0.931 . S
H38 C16 0.931 . S
H39 C17 0.931 . S
C40 Eu41 2.835 . S
C40 C42 1.500 . S
C40 O60 1.257 . S
C40 O61 1.260 . S
Eu41 C40 2.835 . S
Eu41 O60 2.473 . S
Eu41 O61 2.480 . S
Eu41 O62 2.430 . S
Eu41 O63 2.670 . S
Eu41 O64 2.394 . S
Eu41 O69 2.355 . S
Eu41 O71 2.374 1_545 S
C42 C40 1.500 . S
C42 C43 1.377 . S
C42 C47 1.377 . S
C43 C42 1.377 . S
C43 C44 1.395 . S
C43 H72 0.931 . S
C44 C43 1.395 . S
C44 C45 1.383 . S
C44 H73 0.931 . S
C45 C44 1.383 . S
C45 C46 1.394 . S
C46 C45 1.394 . S
C46 C47 1.378 . S
C46 H74 0.931 . S
C47 C42 1.377 . S
C47 C46 1.378 . S
C47 H75 0.931 . S
C48 O62 1.259 . S
C48 O63 1.270 . S
C49 O64 1.251 . S
C49 O65 1.251 . S
C50 Eu51 2.835 1_565 S
C50 C52 1.500 . S
C50 O66 1.257 . S
C50 O67 1.260 . S
Eu51 C50 2.835 1_545 S
Eu51 O63 2.355 . S
Eu51 O65 2.374 . S
Eu51 O66 2.473 1_545 S
Eu51 O67 2.480 1_545 S
Eu51 O68 2.430 . S
Eu51 O69 2.670 . S
Eu51 O70 2.394 1_545 S
C52 C50 1.500 . S
C52 C53 1.377 . S
C52 C57 1.377 . S
C53 C52 1.377 . S
C53 C54 1.395 . S
C53 H76 0.931 . S
C54 C53 1.395 . S
C54 C55 1.383 . S
C54 H77 0.931 . S
C55 C54 1.383 . S
C55 C56 1.394 . S
C56 C55 1.394 . S
C56 C57 1.378 . S
C56 H78 0.931 . S
C57 C52 1.377 . S
C57 C56 1.378 . S
C57 H79 0.931 . S
C58 O68 1.259 . S
C58 O69 1.270 . S
C59 O70 1.251 . S
C59 O71 1.251 . S
O60 C40 1.257 . S
O60 Eu41 2.473 . S
O61 C40 1.260 . S
O61 Eu41 2.480 . S
O62 Eu41 2.430 . S
O62 C48 1.259 . S
O63 Eu41 2.670 . S
O63 C48 1.270 . S
O63 Eu51 2.355 . S
O64 Eu41 2.394 . S
O64 C49 1.251 . S
O65 C49 1.251 . S
O65 Eu51 2.374 . S
O66 C50 1.257 . S
O66 Eu51 2.473 1_565 S
O67 C50 1.260 . S
O67 Eu51 2.480 1_565 S
O68 Eu51 2.430 . S
O68 C58 1.259 . S
O69 Eu41 2.355 . S
O69 Eu51 2.670 . S
O69 C58 1.270 . S
O70 Eu51 2.394 1_565 S
O70 C59 1.251 . S
O71 Eu41 2.374 1_565 S
O71 C59 1.251 . S
H72 C43 0.931 . S
H73 C44 0.931 . S
H74 C46 0.931 . S
H75 C47 0.931 . S
H76 C53 0.931 . S
H77 C54 0.931 . S
H78 C56 0.931 . S
H79 C57 0.931 . S
C80 Eu81 2.835 . S
C80 C82 1.500 . S
C80 O100 1.257 . S
C80 O101 1.260 . S
Eu81 C80 2.835 . S
Eu81 O100 2.473 . S
Eu81 O101 2.480 . S
Eu81 O102 2.430 . S
Eu81 O103 2.670 . S
Eu81 O104 2.394 . S
Eu81 O109 2.355 . S
Eu81 O111 2.374 . S
C82 C80 1.500 . S
C82 C83 1.377 . S
C82 C87 1.377 . S
C83 C82 1.377 . S
C83 C84 1.395 . S
C83 H112 0.931 . S
C84 C83 1.395 . S
C84 C85 1.383 . S
C84 H113 0.931 . S
C85 C84 1.383 . S
C85 C86 1.394 . S
C86 C85 1.394 . S
C86 C87 1.378 . S
C86 H114 0.931 . S
C87 C82 1.377 . S
C87 C86 1.378 . S
C87 H115 0.931 . S
C88 O102 1.259 . S
C88 O103 1.270 . S
C89 O104 1.251 . S
C89 O105 1.251 . S
C90 Eu91 2.835 . S
C90 C92 1.500 . S
C90 O106 1.257 . S
C90 O107 1.260 . S
Eu91 C90 2.835 . S
Eu91 O103 2.355 . S
Eu91 O105 2.374 . S
Eu91 O106 2.473 . S
Eu91 O107 2.480 . S
Eu91 O108 2.430 . S
Eu91 O109 2.670 . S
Eu91 O110 2.394 . S
C92 C90 1.500 . S
C92 C93 1.377 . S
C92 C97 1.377 . S
C93 C92 1.377 . S
C93 C94 1.395 . S
C93 H116 0.931 . S
C94 C93 1.395 . S
C94 C95 1.383 . S
C94 H117 0.931 . S
C95 C94 1.383 . S
C95 C96 1.394 . S
C96 C95 1.394 . S
C96 C97 1.378 . S
C96 H118 0.931 . S
C97 C92 1.377 . S
C97 C96 1.378 . S
C97 H119 0.931 . S
C98 O108 1.259 . S
C98 O109 1.270 . S
C99 O110 1.251 . S
C99 O111 1.251 . S
O100 C80 1.257 . S
O100 Eu81 2.473 . S
O101 C80 1.260 . S
O101 Eu81 2.480 . S
O102 Eu81 2.430 . S
O102 C88 1.259 . S
O103 Eu81 2.670 . S
O103 C88 1.270 . S
O103 Eu91 2.355 . S
O104 Eu81 2.394 . S
O104 C89 1.251 . S
O105 C89 1.251 . S
O105 Eu91 2.374 . S
O106 C90 1.257 . S
O106 Eu91 2.473 . S
O107 C90 1.260 . S
O107 Eu91 2.480 . S
O108 Eu91 2.430 . S
O108 C98 1.259 . S
O109 Eu81 2.355 . S
O109 Eu91 2.670 . S
O109 C98 1.270 . S
O110 Eu91 2.394 . S
O110 C99 1.251 . S
O111 Eu81 2.374 . S
O111 C99 1.251 . S
H112 C83 0.931 . S
H113 C84 0.931 . S
H114 C86 0.931 . S
H115 C87 0.931 . S
H116 C93 0.931 . S
H117 C94 0.931 . S
H118 C96 0.931 . S
H119 C97 0.931 . S
C120 C121 1.391 . S
C120 C124 1.391 . S
C120 H162 0.948 . S
C121 C120 1.391 . S
C121 C122 1.391 . S
C122 C121 1.391 . S
C122 H178 0.947 . S
C122 C179 1.392 . S
C123 C124 1.391 . S
C123 C127 1.397 . S
C123 C179 1.419 . S
C124 C120 1.391 . S
C124 C123 1.391 . S
C124 C125 1.399 . S
C125 C124 1.399 . S
C125 C128 1.396 . S
C125 C137 1.453 . S
C125 C138 1.684 . S
H126 C150 0.948 . S
C127 C123 1.397 . S
C127 C128 1.394 . S
C127 C146 1.723 . S
C128 C125 1.396 . S
C128 C127 1.394 . S
C128 C158 1.723 . S
H129 C152 0.947 . S
H130 C153 0.948 . S
H131 C159 0.982 . S
H132 C160 0.959 1_545 S
H133 C160 0.980 . S
H134 C160 0.983 . S
H135 C159 0.979 . S
H136 C159 0.977 . S
C137 C125 1.453 . S
C137 H166 0.982 . S
C137 H167 0.979 . S
C137 H168 0.977 . S
C138 C125 1.684 . S
C138 H163 0.979 . S
C138 H164 0.980 . S
C138 H165 0.983 . S
C139 C140 1.391 . S
C139 C144 1.391 . S
C139 H169 0.948 . S
C140 C139 1.391 . S
C140 C141 1.391 . S
C141 C140 1.391 . S
C141 C142 1.392 . S
C141 H170 0.947 . S
C142 C141 1.392 . S
C142 C143 1.419 . S
C142 H171 0.948 . S
C143 C142 1.419 . S
C143 C144 1.391 . S
C143 C147 1.397 . S
C144 C139 1.391 . S
C144 C143 1.391 . S
C144 C145 1.399 . S
C145 C144 1.399 . S
C145 C146 1.396 . S
C145 C148 1.453 . S
C145 C149 1.684 . S
C146 C127 1.723 . S
C146 C145 1.396 . S
C146 C147 1.394 . S
C147 C143 1.397 . S
C147 C146 1.394 . S
C147 C157 1.723 . S
C148 C145 1.453 . S
C148 H172 0.982 . S
C148 H173 0.979 . S
C148 H174 0.977 . S
C149 C145 1.684 . S
C149 H175 0.979 . S
C149 H176 0.980 . S
C149 H177 0.983 . S
C150 H126 0.948 . S
C150 C151 1.391 . S
C150 C155 1.391 . S
C151 C150 1.391 . S
C151 C152 1.391 . S
C152 H129 0.947 . S
C152 C151 1.391 . S
C152 C153 1.392 1_565 S
C153 H130 0.948 . S
C153 C152 1.392 1_545 S
C153 C154 1.419 . S
C154 C153 1.419 . S
C154 C155 1.391 1_545 S
C154 C158 1.397 . S
C155 C150 1.391 . S
C155 C154 1.391 1_565 S
C155 C156 1.399 . S
C156 C155 1.399 . S
C156 C157 1.396 1_565 S
C156 C159 1.453 . S
C156 C160 1.684 . S
C157 C147 1.723 . S
C157 C156 1.396 1_545 S
C157 C158 1.394 . S
C158 C128 1.723 . S
C158 C154 1.397 . S
C158 C157 1.394 . S
C159 H131 0.982 . S
C159 H135 0.979 . S
C159 H136 0.977 . S
C159 C156 1.453 . S
C160 H132 0.959 1_565 S
C160 H133 0.980 . S
C160 H134 0.983 . S
C160 C156 1.684 . S
H161 C179 0.948 . S
H162 C120 0.948 . S
H163 C138 0.979 . S
H164 C138 0.980 . S
H165 C138 0.983 . S
H166 C137 0.982 . S
H167 C137 0.979 . S
H168 C137 0.977 . S
H169 C139 0.948 . S
H170 C141 0.947 . S
H171 C142 0.948 . S
H172 C148 0.982 . S
H173 C148 0.979 . S
H174 C148 0.977 . S
H175 C149 0.979 . S
H176 C149 0.980 . S
H177 C149 0.983 . S
H178 C122 0.947 . S
C179 C122 1.392 . S
C179 C123 1.419 . S
C179 H161 0.948 . S
C180 C181 1.391 . S
C180 C184 1.391 . S
C180 H222 0.948 . S
C181 C180 1.391 . S
C181 C182 1.391 . S
C182 C181 1.391 . S
C182 H238 0.947 . S
C182 C239 1.392 . S
C183 C184 1.391 . S
C183 C187 1.397 . S
C183 C239 1.419 . S
C184 C180 1.391 . S
C184 C183 1.391 . S
C184 C185 1.399 . S
C185 C184 1.399 . S
C185 C188 1.396 . S
C185 C197 1.453 . S
C185 C198 1.684 . S
H186 C210 0.948 . S
C187 C183 1.397 . S
C187 C188 1.394 . S
C187 C206 1.723 . S
C188 C185 1.396 . S
C188 C187 1.394 . S
C188 C218 1.723 . S
H189 C212 0.947 . S
H190 C213 0.948 . S
H191 C219 0.982 . S
H192 C220 0.979 . S
H193 C220 0.980 . S
H194 C220 0.983 . S
H195 C219 0.979 . S
H196 C219 0.977 . S
C197 C185 1.453 . S
C197 H226 0.982 . S
C197 H227 0.979 . S
C197 H228 0.977 . S
C198 C185 1.684 . S
C198 H223 0.979 . S
C198 H224 0.980 . S
C198 H225 0.983 . S
C199 C200 1.391 . S
C199 C204 1.391 . S
C199 H229 0.948 . S
C200 C199 1.391 . S
C200 C201 1.391 . S
C201 C200 1.391 . S
C201 C202 1.392 . S
C201 H230 0.947 . S
C202 C201 1.392 . S
C202 C203 1.419 . S
C202 H231 0.948 . S
C203 C202 1.419 . S
C203 C204 1.391 . S
C203 C207 1.397 . S
C204 C199 1.391 . S
C204 C203 1.391 . S
C204 C205 1.399 . S
C205 C204 1.399 . S
C205 C206 1.396 . S
C205 C208 1.453 . S
C205 C209 1.684 . S
C206 C187 1.723 . S
C206 C205 1.396 . S
C206 C207 1.394 . S
C207 C203 1.397 . S
C207 C206 1.394 . S
C207 C217 1.723 . S
C208 C205 1.453 . S
C208 H232 0.982 . S
C208 H233 0.979 . S
C208 H234 0.977 . S
C209 C205 1.684 . S
C209 H235 0.979 . S
C209 H236 0.980 . S
C209 H237 0.983 . S
C210 H186 0.948 . S
C210 C211 1.391 . S
C210 C215 1.391 . S
C211 C210 1.391 . S
C211 C212 1.391 . S
C212 H189 0.947 . S
C212 C211 1.391 . S
C212 C213 1.392 . S
C213 H190 0.948 . S
C213 C212 1.392 . S
C213 C214 1.419 . S
C214 C213 1.419 . S
C214 C215 1.391 . S
C214 C218 1.397 . S
C215 C210 1.391 . S
C215 C214 1.391 . S
C215 C216 1.399 . S
C216 C215 1.399 . S
C216 C217 1.396 . S
C216 C219 1.453 . S
C216 C220 1.684 . S
C217 C207 1.723 . S
C217 C216 1.396 . S
C217 C218 1.394 . S
C218 C188 1.723 . S
C218 C214 1.397 . S
C218 C217 1.394 . S
C219 H191 0.982 . S
C219 H195 0.979 . S
C219 H196 0.977 . S
C219 C216 1.453 . S
C220 H192 0.979 . S
C220 H193 0.980 . S
C220 H194 0.983 . S
C220 C216 1.684 . S
H221 C239 0.948 . S
H222 C180 0.948 . S
H223 C198 0.979 . S
H224 C198 0.980 . S
H225 C198 0.983 . S
H226 C197 0.982 . S
H227 C197 0.979 . S
H228 C197 0.977 . S
H229 C199 0.948 . S
H230 C201 0.947 . S
H231 C202 0.948 . S
H232 C208 0.982 . S
H233 C208 0.979 . S
H234 C208 0.977 . S
H235 C209 0.979 . S
H236 C209 0.980 . S
H237 C209 0.983 . S
H238 C182 0.947 . S
C239 C182 1.392 . S
C239 C183 1.419 . S
C239 H221 0.948 . S
C240 C241 1.391 . S
C240 C244 1.391 . S
C240 H282 0.948 . S
C241 C240 1.391 . S
C241 C242 1.391 . S
C242 C241 1.391 . S
C242 H298 0.947 . S
C242 C299 1.392 . S
C243 C244 1.391 . S
C243 C247 1.397 . S
C243 C299 1.419 . S
C244 C240 1.391 . S
C244 C243 1.391 . S
C244 C245 1.399 . S
C245 C244 1.399 . S
C245 C248 1.396 . S
C245 C257 1.453 . S
C245 C258 1.684 . S
H246 C270 0.948 . S
C247 C243 1.397 . S
C247 C248 1.394 . S
C247 C266 1.723 . S
C248 C245 1.396 . S
C248 C247 1.394 . S
C248 C278 1.723 1_455 S
H249 C272 0.947 . S
H250 C273 0.948 . S
H251 C279 0.982 . S
H252 C280 0.979 . S
H253 C280 0.980 . S
H254 C280 0.983 . S
H255 C279 0.979 . S
H256 C279 0.977 . S
C257 C245 1.453 . S
C257 H286 0.982 . S
C257 H287 0.979 . S
C257 H288 0.977 1_455 S
C258 C245 1.684 . S
C258 H283 0.979 . S
C258 H284 0.980 . S
C258 H285 0.983 . S
C259 C260 1.391 . S
C259 C264 1.391 . S
C259 H289 0.948 . S
C260 C259 1.391 . S
C260 C261 1.391 1_455 S
C261 C260 1.391 1_655 S
C261 C262 1.392 . S
C261 H290 0.947 . S
C262 C261 1.392 . S
C262 C263 1.419 . S
C262 H291 0.948 . S
C263 C262 1.419 . S
C263 C264 1.391 1_655 S
C263 C267 1.397 1_655 S
C264 C259 1.391 . S
C264 C263 1.391 1_455 S
C264 C265 1.399 . S
C265 C264 1.399 . S
C265 C266 1.396 . S
C265 C268 1.453 . S
C265 C269 1.684 . S
C266 C247 1.723 . S
C266 C265 1.396 . S
C266 C267 1.394 . S
C267 C263 1.397 1_455 S
C267 C266 1.394 . S
C267 C277 1.723 1_455 S
C268 C265 1.453 . S
C268 H292 0.982 . S
C268 H293 0.979 . S
C268 H294 0.977 . S
C269 C265 1.684 . S
C269 H295 0.979 . S
C269 H296 0.980 . S
C269 H297 0.983 . S
C270 H246 0.948 . S
C270 C271 1.391 . S
C270 C275 1.391 . S
C271 C270 1.391 . S
C271 C272 1.391 . S
C272 H249 0.947 . S
C272 C271 1.391 . S
C272 C273 1.392 . S
C273 H250 0.948 . S
C273 C272 1.392 . S
C273 C274 1.419 . S
C274 C273 1.419 . S
C274 C275 1.391 . S
C274 C278 1.397 . S
C275 C270 1.391 . S
C275 C274 1.391 . S
C275 C276 1.399 . S
C276 C275 1.399 . S
C276 C277 1.396 . S
C276 C279 1.453 . S
C276 C280 1.684 . S
C277 C267 1.723 1_655 S
C277 C276 1.396 . S
C277 C278 1.394 . S
C278 C248 1.723 1_655 S
C278 C274 1.397 . S
C278 C277 1.394 . S
C279 H251 0.982 . S
C279 H255 0.979 . S
C279 H256 0.977 . S
C279 C276 1.453 . S
C280 H252 0.979 . S
C280 H253 0.980 . S
C280 H254 0.983 . S
C280 C276 1.684 . S
H281 C299 0.948 . S
H282 C240 0.948 . S
H283 C258 0.979 . S
H284 C258 0.980 . S
H285 C258 0.983 . S
H286 C257 0.982 . S
H287 C257 0.979 . S
H288 C257 0.977 1_655 S
H289 C259 0.948 . S
H290 C261 0.947 . S
H291 C262 0.948 . S
H292 C268 0.982 . S
H293 C268 0.979 . S
H294 C268 0.977 . S
H295 C269 0.979 . S
H296 C269 0.980 . S
H297 C269 0.983 . S
H298 C242 0.947 . S
C299 C242 1.392 . S
C299 C243 1.419 . S
C299 H281 0.948 . S
C300 C301 1.391 . S
C300 C304 1.404 . S
C300 H342 0.948 . S
C301 C300 1.391 . S
C301 C302 1.391 . S
C302 C301 1.391 . S
C302 H358 0.947 . S
C302 C359 1.392 . S
C303 C304 1.392 . S
C303 C307 1.397 1_655 S
C303 C359 1.419 . S
C304 C300 1.404 . S
C304 C303 1.392 . S
C304 C305 1.381 1_655 S
C305 C304 1.381 1_455 S
C305 C308 1.396 . S
C305 C317 1.453 . S
C305 C318 1.684 . S
H306 C330 0.948 . S
C307 C303 1.397 1_455 S
C307 C308 1.394 . S
C307 C326 1.723 . S
C308 C305 1.396 . S
C308 C307 1.394 . S
C308 C338 1.723 . S
H309 C332 0.947 . S
H310 C333 0.948 . S
H311 C339 0.982 . S
H312 C340 0.979 . S
H313 C340 0.980 . S
H314 C340 0.983 . S
H315 C339 0.979 . S
H316 C339 0.977 . S
C317 C305 1.453 . S
C317 H346 0.982 . S
C317 H347 0.979 . S
C317 H348 0.977 . S
C318 C305 1.684 . S
C318 H343 0.979 . S
C318 H344 0.980 . S
C318 H345 0.983 . S
C319 C320 1.391 . S
C319 C324 1.391 . S
C319 H349 0.948 . S
C320 C319 1.391 . S
C320 C321 1.391 . S
C321 C320 1.391 . S
C321 C322 1.392 . S
C321 H350 0.947 . S
C322 C321 1.392 . S
C322 C323 1.419 . S
C322 H351 0.948 . S
C323 C322 1.419 . S
C323 C324 1.391 . S
C323 C327 1.397 . S
C324 C319 1.391 . S
C324 C323 1.391 . S
C324 C325 1.399 . S
C325 C324 1.399 . S
C325 C326 1.396 . S
C325 C328 1.453 . S
C325 C329 1.684 1_455 S
C326 C307 1.723 . S
C326 C325 1.396 . S
C326 C327 1.394 . S
C327 C323 1.397 . S
C327 C326 1.394 . S
C327 C337 1.723 . S
C328 C325 1.453 . S
C328 H352 0.982 . S
C328 H353 0.979 1_455 S
C328 H354 0.977 1_455 S
C329 C325 1.684 1_655 S
C329 H355 0.979 . S
C329 H356 0.980 . S
C329 H357 0.983 . S
C330 H306 0.948 . S
C330 C331 1.391 . S
C330 C335 1.391 . S
C331 C330 1.391 . S
C331 C332 1.391 . S
C332 H309 0.947 . S
C332 C331 1.391 . S
C332 C333 1.392 . S
C333 H310 0.948 . S
C333 C332 1.392 . S
C333 C334 1.419 . S
C334 C333 1.419 . S
C334 C335 1.391 . S
C334 C338 1.397 . S
C335 C330 1.391 . S
C335 C334 1.391 . S
C335 C336 1.399 . S
C336 C335 1.399 . S
C336 C337 1.396 . S
C336 C339 1.453 . S
C336 C340 1.684 . S
C337 C327 1.723 . S
C337 C336 1.396 . S
C337 C338 1.394 . S
C338 C308 1.723 . S
C338 C334 1.397 . S
C338 C337 1.394 . S
C339 H311 0.982 . S
C339 H315 0.979 . S
C339 H316 0.977 . S
C339 C336 1.453 . S
C340 H312 0.979 . S
C340 H313 0.980 . S
C340 H314 0.983 . S
C340 C336 1.684 . S
H341 C359 0.948 . S
H342 C300 0.948 . S
H343 C318 0.979 . S
H344 C318 0.980 . S
H345 C318 0.983 . S
H346 C317 0.982 . S
H347 C317 0.979 . S
H348 C317 0.977 . S
H349 C319 0.948 . S
H350 C321 0.947 . S
H351 C322 0.948 . S
H352 C328 0.982 . S
H353 C328 0.979 1_655 S
H354 C328 0.977 1_655 S
H355 C329 0.979 . S
H356 C329 0.980 . S
H357 C329 0.983 . S
H358 C302 0.947 . S
C359 C302 1.392 . S
C359 C303 1.419 . S
C359 H341 0.948 . S
C360 C361 1.391 . S
C360 C364 1.391 . S
C360 H402 0.948 . S
C361 C360 1.391 . S
C361 C362 1.391 . S
C362 C361 1.391 . S
C362 H418 0.947 . S
C362 C419 1.392 . S
C363 C364 1.391 . S
C363 C367 1.397 . S
C363 C419 1.419 . S
C364 C360 1.391 . S
C364 C363 1.391 . S
C364 C365 1.399 . S
C365 C364 1.399 . S
C365 C368 1.396 . S
C365 C377 1.453 . S
C365 C378 1.684 . S
H366 C390 0.948 . S
C367 C363 1.397 . S
C367 C368 1.394 . S
C367 C386 1.723 . S
C368 C365 1.396 . S
C368 C367 1.394 . S
C368 C398 1.723 1_565 S
H369 C392 0.947 . S
H370 C393 0.948 . S
H371 C399 0.982 . S
H372 C400 0.979 . S
H373 C400 0.980 . S
H374 C400 0.983 . S
H375 C399 0.979 . S
H376 C399 0.977 . S
C377 C365 1.453 . S
C377 H406 0.982 1_565 S
C377 H407 0.979 . S
C377 H408 0.977 1_565 S
C378 C365 1.684 . S
C378 H403 0.979 . S
C378 H404 0.980 . S
C378 H405 0.983 . S
C379 C380 1.391 1_565 S
C379 C384 1.391 . S
C379 H409 0.948 . S
C380 C379 1.391 1_545 S
C380 C381 1.391 . S
C381 C380 1.391 . S
C381 C382 1.392 . S
C381 H410 0.947 . S
C382 C381 1.392 . S
C382 C383 1.419 . S
C382 H411 0.948 . S
C383 C382 1.419 . S
C383 C384 1.391 1_545 S
C383 C387 1.397 . S
C384 C379 1.391 . S
C384 C383 1.391 1_565 S
C384 C385 1.399 . S
C385 C384 1.399 . S
C385 C386 1.396 . S
C385 C388 1.453 . S
C385 C389 1.684 . S
C386 C367 1.723 . S
C386 C385 1.396 . S
C386 C387 1.394 1_565 S
C387 C383 1.397 . S
C387 C386 1.394 1_545 S
C387 C397 1.723 . S
C388 C385 1.453 . S
C388 H412 0.982 . S
C388 H413 0.979 . S
C388 H414 0.977 . S
C389 C385 1.684 . S
C389 H415 0.979 . S
C389 H416 0.980 . S
C389 H417 0.983 . S
C390 H366 0.948 . S
C390 C391 1.391 . S
C390 C395 1.391 . S
C391 C390 1.391 . S
C391 C392 1.391 . S
C392 H369 0.947 . S
C392 C391 1.391 . S
C392 C393 1.392 . S
C393 H370 0.948 . S
C393 C392 1.392 . S
C393 C394 1.419 . S
C394 C393 1.419 . S
C394 C395 1.391 . S
C394 C398 1.397 . S
C395 C390 1.391 . S
C395 C394 1.391 . S
C395 C396 1.399 . S
C396 C395 1.399 . S
C396 C397 1.396 . S
C396 C399 1.453 . S
C396 C400 1.684 . S
C397 C387 1.723 . S
C397 C396 1.396 . S
C397 C398 1.394 . S
C398 C368 1.723 1_545 S
C398 C394 1.397 . S
C398 C397 1.394 . S
C399 H371 0.982 . S
C399 H375 0.979 . S
C399 H376 0.977 . S
C399 C396 1.453 . S
C400 H372 0.979 . S
C400 H373 0.980 . S
C400 H374 0.983 . S
C400 C396 1.684 . S
H401 C419 0.948 . S
H402 C360 0.948 . S
H403 C378 0.979 . S
H404 C378 0.980 . S
H405 C378 0.983 . S
H406 C377 0.982 1_545 S
H407 C377 0.979 . S
H408 C377 0.977 1_545 S
H409 C379 0.948 . S
H410 C381 0.947 . S
H411 C382 0.948 . S
H412 C388 0.982 . S
H413 C388 0.979 . S
H414 C388 0.977 . S
H415 C389 0.979 . S
H416 C389 0.980 . S
H417 C389 0.983 . S
H418 C362 0.947 . S
C419 C362 1.392 . S
C419 C363 1.419 . S
C419 H401 0.948 . S
C420 C421 1.391 . S
C420 C424 1.391 . S
C420 H462 0.948 . S
C421 C420 1.391 . S
C421 C422 1.391 . S
C422 C421 1.391 . S
C422 H478 0.947 . S
C422 C479 1.392 . S
C423 C424 1.391 . S
C423 C427 1.397 . S
C423 C479 1.419 . S
C424 C420 1.391 . S
C424 C423 1.391 . S
C424 C425 1.399 . S
C425 C424 1.399 . S
C425 C428 1.396 . S
C425 C437 1.453 . S
C425 C438 1.684 . S
H426 C450 0.948 . S
C427 C423 1.397 . S
C427 C428 1.394 . S
C427 C446 1.723 . S
C428 C425 1.396 . S
C428 C427 1.394 . S
C428 C458 1.723 . S
H429 C452 0.947 . S
H430 C453 0.948 . S
H431 C459 0.982 . S
H432 C460 0.979 . S
H433 C460 0.980 . S
H434 C460 0.983 . S
H435 C459 0.979 . S
H436 C459 0.977 . S
C437 C425 1.453 . S
C437 H466 0.982 . S
C437 H467 0.979 . S
C437 H468 0.977 . S
C438 C425 1.684 . S
C438 H463 0.979 . S
C438 H464 0.980 . S
C438 H465 0.983 . S
C439 C440 1.391 . S
C439 C444 1.391 . S
C439 H469 0.948 . S
C440 C439 1.391 . S
C440 C441 1.391 . S
C441 C440 1.391 . S
C441 C442 1.392 . S
C441 H470 0.947 . S
C442 C441 1.392 . S
C442 C443 1.419 . S
C442 H471 0.948 . S
C443 C442 1.419 . S
C443 C444 1.391 . S
C443 C447 1.397 . S
C444 C439 1.391 . S
C444 C443 1.391 . S
C444 C445 1.399 . S
C445 C444 1.399 . S
C445 C446 1.396 . S
C445 C448 1.453 . S
C445 C449 1.684 . S
C446 C427 1.723 . S
C446 C445 1.396 . S
C446 C447 1.394 . S
C447 C443 1.397 . S
C447 C446 1.394 . S
C447 C457 1.723 . S
C448 C445 1.453 . S
C448 H472 0.982 . S
C448 H473 0.979 . S
C448 H474 0.977 . S
C449 C445 1.684 . S
C449 H475 0.979 . S
C449 H476 0.980 . S
C449 H477 0.983 . S
C450 H426 0.948 . S
C450 C451 1.391 . S
C450 C455 1.391 . S
C451 C450 1.391 . S
C451 C452 1.391 . S
C452 H429 0.947 . S
C452 C451 1.391 . S
C452 C453 1.392 . S
C453 H430 0.948 . S
C453 C452 1.392 . S
C453 C454 1.419 . S
C454 C453 1.419 . S
C454 C455 1.391 . S
C454 C458 1.397 . S
C455 C450 1.391 . S
C455 C454 1.391 . S
C455 C456 1.399 . S
C456 C455 1.399 . S
C456 C457 1.396 . S
C456 C459 1.453 . S
C456 C460 1.684 . S
C457 C447 1.723 . S
C457 C456 1.396 . S
C457 C458 1.394 . S
C458 C428 1.723 . S
C458 C454 1.397 . S
C458 C457 1.394 . S
C459 H431 0.982 . S
C459 H435 0.979 . S
C459 H436 0.977 . S
C459 C456 1.453 . S
C460 H432 0.979 . S
C460 H433 0.980 . S
C460 H434 0.983 . S
C460 C456 1.684 . S
H461 C479 0.948 . S
H462 C420 0.948 . S
H463 C438 0.979 . S
H464 C438 0.980 . S
H465 C438 0.983 . S
H466 C437 0.982 . S
H467 C437 0.979 . S
H468 C437 0.977 . S
H469 C439 0.948 . S
H470 C441 0.947 . S
H471 C442 0.948 . S
H472 C448 0.982 . S
H473 C448 0.979 . S
H474 C448 0.977 . S
H475 C449 0.979 . S
H476 C449 0.980 . S
H477 C449 0.983 . S
H478 C422 0.947 . S
C479 C422 1.392 . S
C479 C423 1.419 . S
C479 H461 0.948 . S
C480 C481 1.349 . S
C480 C482 1.327 . S
C480 H505 0.950 . S
C481 C480 1.349 . S
C481 C497 1.349 . S
C482 C480 1.327 . S
C482 C501 1.429 . S
C482 H506 0.950 . S
C483 C500 1.574 . S
C483 C502 1.368 . S
C483 H507 0.949 . S
H484 C488 0.949 . S
C485 C486 1.349 . S
C485 C487 1.327 . S
C485 H508 0.950 . S
C486 C485 1.349 . S
C486 C498 1.349 . S
C487 C485 1.327 . S
C487 C503 1.429 . S
C487 H509 0.950 . S
C488 H484 0.949 . S
C488 C496 1.574 . S
C488 C504 1.368 . S
H489 C497 0.950 . S
H490 C495 0.950 . S
H491 C496 0.949 . S
H492 C498 0.950 . S
H493 C499 0.950 . S
H494 C500 0.949 . S
C495 H490 0.950 . S
C495 C497 1.327 . S
C495 C501 1.429 . S
C496 C488 1.574 . S
C496 H491 0.949 . S
C496 C502 1.368 . S
C497 C481 1.349 . S
C497 H489 0.950 . S
C497 C495 1.327 . S
C498 C486 1.349 . S
C498 H492 0.950 . S
C498 C499 1.327 . S
C499 H493 0.950 . S
C499 C498 1.327 . S
C499 C503 1.429 . S
C500 C483 1.574 . S
C500 H494 0.949 . S
C500 C504 1.368 . S
C501 C482 1.429 . S
C501 C495 1.429 . S
C501 C502 1.523 . S
C502 C483 1.368 . S
C502 C496 1.368 . S
C502 C501 1.523 . S
C503 C487 1.429 . S
C503 C499 1.429 . S
C503 C504 1.523 . S
C504 C488 1.368 . S
C504 C500 1.368 . S
C504 C503 1.523 . S
H505 C480 0.950 . S
H506 C482 0.950 . S
H507 C483 0.949 . S
H508 C485 0.950 . S
H509 C487 0.950 . S
C510 C511 1.349 . S
C510 C512 1.327 . S
C510 H535 0.950 . S
C511 C510 1.349 . S
C511 C527 1.349 . S
C512 C510 1.327 . S
C512 C531 1.429 . S
C512 H536 0.950 . S
C513 C530 1.574 . S
C513 C532 1.368 . S
C513 H537 0.949 . S
H514 C518 0.949 . S
C515 C516 1.349 . S
C515 C517 1.327 . S
C515 H538 0.950 . S
C516 C515 1.349 . S
C516 C528 1.349 . S
C517 C515 1.327 . S
C517 C533 1.429 . S
C517 H539 0.950 . S
C518 H514 0.949 . S
C518 C526 1.574 . S
C518 C534 1.368 . S
H519 C527 0.950 . S
H520 C525 0.950 . S
H521 C526 0.949 . S
H522 C528 0.950 . S
H523 C529 0.950 . S
H524 C530 0.949 . S
C525 H520 0.950 . S
C525 C527 1.327 . S
C525 C531 1.429 . S
C526 C518 1.574 . S
C526 H521 0.949 . S
C526 C532 1.368 . S
C527 C511 1.349 . S
C527 H519 0.950 . S
C527 C525 1.327 . S
C528 C516 1.349 . S
C528 H522 0.950 . S
C528 C529 1.327 . S
C529 H523 0.950 . S
C529 C528 1.327 . S
C529 C533 1.429 . S
C530 C513 1.574 . S
C530 H524 0.949 . S
C530 C534 1.368 . S
C531 C512 1.429 . S
C531 C525 1.429 . S
C531 C532 1.523 . S
C532 C513 1.368 . S
C532 C526 1.368 . S
C532 C531 1.523 . S
C533 C517 1.429 . S
C533 C529 1.429 . S
C533 C534 1.523 . S
C534 C518 1.368 . S
C534 C530 1.368 . S
C534 C533 1.523 . S
H535 C510 0.950 . S
H536 C512 0.950 . S
H537 C513 0.949 . S
H538 C515 0.950 . S
H539 C517 0.950 . S
C540 C541 1.349 . S
C540 C542 1.327 . S
C540 H565 0.950 . S
C541 C540 1.349 . S
C541 C557 1.349 . S
C542 C540 1.327 . S
C542 C561 1.429 . S
C542 H566 0.950 . S
C543 C560 1.574 . S
C543 C562 1.368 . S
C543 H567 0.949 . S
H544 C548 0.949 . S
C545 C546 1.349 . S
C545 C547 1.327 . S
C545 H568 0.950 . S
C546 C545 1.349 . S
C546 C558 1.349 . S
C547 C545 1.327 . S
C547 C563 1.429 . S
C547 H569 0.950 . S
C548 H544 0.949 . S
C548 C556 1.574 . S
C548 C564 1.368 . S
H549 C557 0.950 . S
H550 C555 0.950 . S
H551 C556 0.949 . S
H552 C558 0.950 . S
H553 C559 0.950 . S
H554 C560 0.949 . S
C555 H550 0.950 . S
C555 C557 1.327 . S
C555 C561 1.429 . S
C556 C548 1.574 . S
C556 H551 0.949 . S
C556 C562 1.368 . S
C557 C541 1.349 . S
C557 H549 0.950 . S
C557 C555 1.327 . S
C558 C546 1.349 . S
C558 H552 0.950 . S
C558 C559 1.327 . S
C559 H553 0.950 . S
C559 C558 1.327 . S
C559 C563 1.429 . S
C560 C543 1.574 . S
C560 H554 0.949 . S
C560 C564 1.368 . S
C561 C542 1.429 . S
C561 C555 1.429 . S
C561 C562 1.523 . S
C562 C543 1.368 . S
C562 C556 1.368 . S
C562 C561 1.523 . S
C563 C547 1.429 . S
C563 C559 1.429 . S
C563 C564 1.523 . S
C564 C548 1.368 . S
C564 C560 1.368 . S
C564 C563 1.523 . S
H565 C540 0.950 . S
H566 C542 0.950 . S
H567 C543 0.949 . S
H568 C545 0.950 . S
H569 C547 0.950 . S
C570 C571 1.349 . S
C570 C572 1.327 . S
C570 H595 0.950 . S
C571 C570 1.349 . S
C571 C587 1.349 . S
C572 C570 1.327 . S
C572 C591 1.429 . S
C572 H596 0.950 . S
C573 C590 1.574 . S
C573 C592 1.368 . S
C573 H597 0.949 . S
H574 C578 0.949 . S
C575 C576 1.349 . S
C575 C577 1.327 . S
C575 H598 0.950 . S
C576 C575 1.349 . S
C576 C588 1.349 . S
C577 C575 1.327 . S
C577 C593 1.429 . S
C577 H599 0.950 . S
C578 H574 0.949 . S
C578 C586 1.574 . S
C578 C594 1.368 . S
H579 C587 0.950 . S
H580 C585 0.950 . S
H581 C586 0.949 . S
H582 C588 0.950 . S
H583 C589 0.950 . S
H584 C590 0.949 . S
C585 H580 0.950 . S
C585 C587 1.327 . S
C585 C591 1.429 . S
C586 C578 1.574 . S
C586 H581 0.949 . S
C586 C592 1.368 . S
C587 C571 1.349 . S
C587 H579 0.950 . S
C587 C585 1.327 . S
C588 C576 1.349 . S
C588 H582 0.950 . S
C588 C589 1.327 . S
C589 H583 0.950 . S
C589 C588 1.327 . S
C589 C593 1.429 . S
C590 C573 1.574 . S
C590 H584 0.949 . S
C590 C594 1.368 . S
C591 C572 1.429 . S
C591 C585 1.429 . S
C591 C592 1.523 . S
C592 C573 1.368 . S
C592 C586 1.368 . S
C592 C591 1.523 . S
C593 C577 1.429 . S
C593 C589 1.429 . S
C593 C594 1.523 . S
C594 C578 1.368 . S
C594 C590 1.368 . S
C594 C593 1.523 . S
H595 C570 0.950 . S
H596 C572 0.950 . S
H597 C573 0.949 . S
H598 C575 0.950 . S
H599 C577 0.950 . S
C600 C601 1.349 . S
C600 C602 1.327 . S
C600 H625 0.950 . S
C601 C600 1.349 . S
C601 C617 1.349 . S
C602 C600 1.327 . S
C602 C621 1.429 . S
C602 H626 0.950 . S
C603 C620 1.574 . S
C603 C622 1.368 . S
C603 H627 0.949 . S
H604 C608 0.949 . S
C605 C606 1.349 . S
C605 C607 1.327 . S
C605 H628 0.950 . S
C606 C605 1.349 . S
C606 C618 1.349 . S
C607 C605 1.327 . S
C607 C623 1.429 . S
C607 H629 0.950 . S
C608 H604 0.949 . S
C608 C616 1.574 . S
C608 C624 1.368 . S
H609 C617 0.950 . S
H610 C615 0.950 . S
H611 C616 0.949 . S
H612 C618 0.950 . S
H613 C619 0.950 . S
H614 C620 0.949 . S
C615 H610 0.950 . S
C615 C617 1.327 . S
C615 C621 1.429 . S
C616 C608 1.574 . S
C616 H611 0.949 . S
C616 C622 1.368 . S
C617 C601 1.349 . S
C617 H609 0.950 . S
C617 C615 1.327 . S
C618 C606 1.349 . S
C618 H612 0.950 . S
C618 C619 1.327 . S
C619 H613 0.950 . S
C619 C618 1.327 . S
C619 C623 1.429 . S
C620 C603 1.574 . S
C620 H614 0.949 . S
C620 C624 1.368 . S
C621 C602 1.429 . S
C621 C615 1.429 . S
C621 C622 1.523 . S
C622 C603 1.368 . S
C622 C616 1.368 . S
C622 C621 1.523 . S
C623 C607 1.429 . S
C623 C619 1.429 . S
C623 C624 1.523 . S
C624 C608 1.368 . S
C624 C620 1.368 . S
C624 C623 1.523 . S
H625 C600 0.950 . S
H626 C602 0.950 . S
H627 C603 0.949 . S
H628 C605 0.950 . S
H629 C607 0.950 . S
C630 C631 1.349 . S
C630 C632 1.327 . S
C630 H655 0.950 . S
C631 C630 1.349 . S
C631 C647 1.349 . S
C632 C630 1.327 . S
C632 C651 1.429 . S
C632 H656 0.950 . S
C633 C650 1.574 . S
C633 C652 1.368 . S
C633 H657 0.949 . S
H634 C638 0.949 . S
C635 C636 1.349 . S
C635 C637 1.327 . S
C635 H658 0.950 . S
C636 C635 1.349 . S
C636 C648 1.349 . S
C637 C635 1.327 . S
C637 C653 1.429 . S
C637 H659 0.950 . S
C638 H634 0.949 . S
C638 C646 1.574 . S
C638 C654 1.368 . S
H639 C647 0.950 . S
H640 C645 0.950 . S
H641 C646 0.949 . S
H642 C648 0.950 . S
H643 C649 0.950 . S
H644 C650 0.949 . S
C645 H640 0.950 . S
C645 C647 1.327 . S
C645 C651 1.429 . S
C646 C638 1.574 . S
C646 H641 0.949 . S
C646 C652 1.368 . S
C647 C631 1.349 . S
C647 H639 0.950 . S
C647 C645 1.327 . S
C648 C636 1.349 . S
C648 H642 0.950 . S
C648 C649 1.327 . S
C649 H643 0.950 . S
C649 C648 1.327 . S
C649 C653 1.429 . S
C650 C633 1.574 . S
C650 H644 0.949 . S
C650 C654 1.368 . S
C651 C632 1.429 . S
C651 C645 1.429 . S
C651 C652 1.523 . S
C652 C633 1.368 . S
C652 C646 1.368 . S
C652 C651 1.523 . S
C653 C637 1.429 . S
C653 C649 1.429 . S
C653 C654 1.523 . S
C654 C638 1.368 . S
C654 C650 1.368 . S
C654 C653 1.523 . S
H655 C630 0.950 . S
H656 C632 0.950 . S
H657 C633 0.949 . S
H658 C635 0.950 . S
H659 C637 0.950 . S
C660 C661 1.349 . S
C660 C662 1.327 . S
C660 H685 0.950 . S
C661 C660 1.349 . S
C661 C677 1.349 . S
C662 C660 1.327 . S
C662 C681 1.429 . S
C662 H686 0.950 . S
C663 C680 1.574 . S
C663 C682 1.368 . S
C663 H687 0.949 . S
H664 C668 0.949 . S
C665 C666 1.349 . S
C665 C667 1.327 . S
C665 H688 0.950 . S
C666 C665 1.349 . S
C666 C678 1.349 . S
C667 C665 1.327 . S
C667 C683 1.429 . S
C667 H689 0.950 . S
C668 H664 0.949 . S
C668 C676 1.574 . S
C668 C684 1.368 . S
H669 C677 0.950 . S
H670 C675 0.950 . S
H671 C676 0.949 . S
H672 C678 0.950 . S
H673 C679 0.950 . S
H674 C680 0.949 . S
C675 H670 0.950 . S
C675 C677 1.327 . S
C675 C681 1.429 . S
C676 C668 1.574 . S
C676 H671 0.949 . S
C676 C682 1.368 . S
C677 C661 1.349 . S
C677 H669 0.950 . S
C677 C675 1.327 . S
C678 C666 1.349 . S
C678 H672 0.950 . S
C678 C679 1.327 . S
C679 H673 0.950 . S
C679 C678 1.327 . S
C679 C683 1.429 . S
C680 C663 1.574 . S
C680 H674 0.949 . S
C680 C684 1.368 . S
C681 C662 1.429 . S
C681 C675 1.429 . S
C681 C682 1.523 . S
C682 C663 1.368 . S
C682 C676 1.368 . S
C682 C681 1.523 . S
C683 C667 1.429 . S
C683 C679 1.429 . S
C683 C684 1.523 . S
C684 C668 1.368 . S
C684 C680 1.368 . S
C684 C683 1.523 . S
H685 C660 0.950 . S
H686 C662 0.950 . S
H687 C663 0.949 . S
H688 C665 0.950 . S
H689 C667 0.950 . S
C690 C691 1.349 . S
C690 C692 1.327 . S
C690 H715 0.950 . S
C691 C690 1.349 . S
C691 C707 1.349 . S
C692 C690 1.327 . S
C692 C711 1.429 . S
C692 H716 0.950 . S
C693 C710 1.574 . S
C693 C712 1.368 . S
C693 H717 0.949 . S
H694 C698 0.949 . S
C695 C696 1.349 . S
C695 C697 1.327 . S
C695 H718 0.950 . S
C696 C695 1.349 . S
C696 C708 1.349 . S
C697 C695 1.327 . S
C697 C713 1.429 . S
C697 H719 0.950 . S
C698 H694 0.949 . S
C698 C706 1.574 . S
C698 C714 1.368 . S
H699 C707 0.950 . S
H700 C705 0.950 . S
H701 C706 0.949 . S
H702 C708 0.950 . S
H703 C709 0.950 . S
H704 C710 0.949 . S
C705 H700 0.950 . S
C705 C707 1.327 . S
C705 C711 1.429 . S
C706 C698 1.574 . S
C706 H701 0.949 . S
C706 C712 1.368 . S
C707 C691 1.349 . S
C707 H699 0.950 . S
C707 C705 1.327 . S
C708 C696 1.349 . S
C708 H702 0.950 . S
C708 C709 1.327 . S
C709 H703 0.950 . S
C709 C708 1.327 . S
C709 C713 1.429 . S
C710 C693 1.574 . S
C710 H704 0.949 . S
C710 C714 1.368 . S
C711 C692 1.429 . S
C711 C705 1.429 . S
C711 C712 1.523 . S
C712 C693 1.368 . S
C712 C706 1.368 . S
C712 C711 1.523 . S
C713 C697 1.429 . S
C713 C709 1.429 . S
C713 C714 1.523 . S
C714 C698 1.368 . S
C714 C710 1.368 . S
C714 C713 1.523 . S
H715 C690 0.950 . S
H716 C692 0.950 . S
H717 C693 0.949 . S
H718 C695 0.950 . S
H719 C697 0.950 . S
C720 C721 1.349 . S
C720 C722 1.327 . S
C720 H745 0.950 . S
C721 C720 1.349 . S
C721 C737 1.349 . S
C722 C720 1.327 . S
C722 C741 1.429 . S
C722 H746 0.950 . S
C723 C740 1.574 . S
C723 C742 1.368 . S
C723 H747 0.949 . S
H724 C728 0.949 . S
C725 C726 1.349 . S
C725 C727 1.327 . S
C725 H748 0.950 . S
C726 C725 1.349 . S
C726 C738 1.349 . S
C727 C725 1.327 . S
C727 C743 1.429 . S
C727 H749 0.950 . S
C728 H724 0.949 . S
C728 C736 1.574 . S
C728 C744 1.368 . S
H729 C737 0.950 . S
H730 C735 0.950 . S
H731 C736 0.949 . S
H732 C738 0.950 . S
H733 C739 0.950 . S
H734 C740 0.949 . S
C735 H730 0.950 . S
C735 C737 1.327 . S
C735 C741 1.429 . S
C736 C728 1.574 . S
C736 H731 0.949 . S
C736 C742 1.368 . S
C737 C721 1.349 . S
C737 H729 0.950 . S
C737 C735 1.327 . S
C738 C726 1.349 . S
C738 H732 0.950 . S
C738 C739 1.327 . S
C739 H733 0.950 . S
C739 C738 1.327 . S
C739 C743 1.429 . S
C740 C723 1.574 . S
C740 H734 0.949 . S
C740 C744 1.368 . S
C741 C722 1.429 . S
C741 C735 1.429 . S
C741 C742 1.523 . S
C742 C723 1.368 . S
C742 C736 1.368 . S
C742 C741 1.523 . S
C743 C727 1.429 . S
C743 C739 1.429 . S
C743 C744 1.523 . S
C744 C728 1.368 . S
C744 C740 1.368 . S
C744 C743 1.523 . S
H745 C720 0.950 . S
H746 C722 0.950 . S
H747 C723 0.949 . S
H748 C725 0.950 . S
H749 C727 0.950 . S
C750 C751 1.349 . S
C750 C752 1.327 . S
C750 H775 0.950 . S
C751 C750 1.349 . S
C751 C767 1.349 . S
C752 C750 1.327 . S
C752 C771 1.429 . S
C752 H776 0.950 . S
C753 C770 1.574 . S
C753 C772 1.368 . S
C753 H777 0.949 . S
H754 C758 0.949 . S
C755 C756 1.349 . S
C755 C757 1.327 . S
C755 H778 0.950 . S
C756 C755 1.349 . S
C756 C768 1.349 . S
C757 C755 1.327 . S
C757 C773 1.429 . S
C757 H779 0.950 . S
C758 H754 0.949 . S
C758 C766 1.574 . S
C758 C774 1.368 . S
H759 C767 0.950 . S
H760 C765 0.950 . S
H761 C766 0.949 . S
H762 C768 0.950 . S
H763 C769 0.950 . S
H764 C770 0.949 . S
C765 H760 0.950 . S
C765 C767 1.327 . S
C765 C771 1.429 . S
C766 C758 1.574 . S
C766 H761 0.949 . S
C766 C772 1.368 . S
C767 C751 1.349 . S
C767 H759 0.950 . S
C767 C765 1.327 . S
C768 C756 1.349 . S
C768 H762 0.950 . S
C768 C769 1.327 . S
C769 H763 0.950 . S
C769 C768 1.327 . S
C769 C773 1.429 . S
C770 C753 1.574 . S
C770 H764 0.949 . S
C770 C774 1.368 . S
C771 C752 1.429 . S
C771 C765 1.429 . S
C771 C772 1.523 . S
C772 C753 1.368 . S
C772 C766 1.368 . S
C772 C771 1.523 . S
C773 C757 1.429 . S
C773 C769 1.429 . S
C773 C774 1.523 . S
C774 C758 1.368 . S
C774 C770 1.368 . S
C774 C773 1.523 . S
H775 C750 0.950 . S
H776 C752 0.950 . S
H777 C753 0.949 . S
H778 C755 0.950 . S
H779 C757 0.950 . S
C780 C781 1.349 . S
C780 C782 1.327 . S
C780 H805 0.950 . S
C781 C780 1.349 . S
C781 C797 1.349 . S
C782 C780 1.327 . S
C782 C801 1.429 . S
C782 H806 0.950 . S
C783 C800 1.574 . S
C783 C802 1.368 . S
C783 H807 0.949 . S
H784 C788 0.949 . S
C785 C786 1.349 . S
C785 C787 1.327 . S
C785 H808 0.950 . S
C786 C785 1.349 . S
C786 C798 1.349 . S
C787 C785 1.327 . S
C787 C803 1.429 . S
C787 H809 0.950 . S
C788 H784 0.949 . S
C788 C796 1.574 . S
C788 C804 1.368 . S
H789 C797 0.950 . S
H790 C795 0.950 . S
H791 C796 0.949 . S
H792 C798 0.950 . S
H793 C799 0.950 . S
H794 C800 0.949 . S
C795 H790 0.950 . S
C795 C797 1.327 . S
C795 C801 1.429 . S
C796 C788 1.574 . S
C796 H791 0.949 . S
C796 C802 1.368 . S
C797 C781 1.349 . S
C797 H789 0.950 . S
C797 C795 1.327 . S
C798 C786 1.349 . S
C798 H792 0.950 . S
C798 C799 1.327 . S
C799 H793 0.950 . S
C799 C798 1.327 . S
C799 C803 1.429 . S
C800 C783 1.574 . S
C800 H794 0.949 . S
C800 C804 1.368 . S
C801 C782 1.429 . S
C801 C795 1.429 . S
C801 C802 1.523 . S
C802 C783 1.368 . S
C802 C796 1.368 . S
C802 C801 1.523 . S
C803 C787 1.429 . S
C803 C799 1.429 . S
C803 C804 1.523 . S
C804 C788 1.368 . S
C804 C800 1.368 . S
C804 C803 1.523 . S
H805 C780 0.950 . S
H806 C782 0.950 . S
H807 C783 0.949 . S
H808 C785 0.950 . S
H809 C787 0.950 . S
C810 C811 1.349 . S
C810 C812 1.327 . S
C810 H835 0.950 . S
C811 C810 1.349 . S
C811 C827 1.349 . S
C812 C810 1.327 . S
C812 C831 1.429 . S
C812 H836 0.950 . S
C813 C830 1.574 . S
C813 C832 1.368 . S
C813 H837 0.949 . S
H814 C818 0.949 . S
C815 C816 1.349 . S
C815 C817 1.327 . S
C815 H838 0.950 . S
C816 C815 1.349 . S
C816 C828 1.349 . S
C817 C815 1.327 . S
C817 C833 1.429 . S
C817 H839 0.950 . S
C818 H814 0.949 . S
C818 C826 1.574 . S
C818 C834 1.368 . S
H819 C827 0.950 . S
H820 C825 0.950 . S
H821 C826 0.949 . S
H822 C828 0.950 . S
H823 C829 0.950 . S
H824 C830 0.949 . S
C825 H820 0.950 . S
C825 C827 1.327 . S
C825 C831 1.429 . S
C826 C818 1.574 . S
C826 H821 0.949 . S
C826 C832 1.368 . S
C827 C811 1.349 . S
C827 H819 0.950 . S
C827 C825 1.327 . S
C828 C816 1.349 . S
C828 H822 0.950 . S
C828 C829 1.327 . S
C829 H823 0.950 . S
C829 C828 1.327 . S
C829 C833 1.429 . S
C830 C813 1.574 . S
C830 H824 0.949 . S
C830 C834 1.368 . S
C831 C812 1.429 . S
C831 C825 1.429 . S
C831 C832 1.523 . S
C832 C813 1.368 . S
C832 C826 1.368 . S
C832 C831 1.523 . S
C833 C817 1.429 . S
C833 C829 1.429 . S
C833 C834 1.523 . S
C834 C818 1.368 . S
C834 C830 1.368 . S
C834 C833 1.523 . S
H835 C810 0.950 . S
H836 C812 0.950 . S
H837 C813 0.949 . S
H838 C815 0.950 . S
H839 C817 0.950 . S
C840 C841 1.349 1_655 S
C840 C842 1.327 . S
C840 H865 0.950 . S
C841 C840 1.349 1_455 S
C841 C857 1.349 . S
C842 C840 1.327 . S
C842 C861 1.429 1_655 S
C842 H866 0.950 . S
C843 C860 1.574 . S
C843 C862 1.368 . S
C843 H867 0.949 . S
H844 C848 0.949 . S
C845 C846 1.349 . S
C845 C847 1.327 1_556 S
C845 H868 0.950 . S
C846 C845 1.349 . S
C846 C858 1.349 1_455 S
C847 C845 1.327 1_554 S
C847 C863 1.429 . S
C847 H869 0.950 . S
C848 H844 0.949 . S
C848 C856 1.574 . S
C848 C864 1.368 1_655 S
H849 C857 0.950 . S
H850 C855 0.950 . S
H851 C856 0.949 . S
H852 C858 0.950 . S
H853 C859 0.950 . S
H854 C860 0.949 . S
C855 H850 0.950 . S
C855 C857 1.327 . S
C855 C861 1.429 . S
C856 C848 1.574 . S
C856 H851 0.949 . S
C856 C862 1.368 1_655 S
C857 C841 1.349 . S
C857 H849 0.950 . S
C857 C855 1.327 . S
C858 C846 1.349 1_655 S
C858 H852 0.950 . S
C858 C859 1.327 1_556 S
C859 H853 0.950 . S
C859 C858 1.327 1_554 S
C859 C863 1.429 1_655 S
C860 C843 1.574 . S
C860 H854 0.949 . S
C860 C864 1.368 . S
C861 C842 1.429 1_455 S
C861 C855 1.429 . S
C861 C862 1.523 . S
C862 C843 1.368 . S
C862 C856 1.368 1_455 S
C862 C861 1.523 . S
C863 C847 1.429 . S
C863 C859 1.429 1_455 S
C863 C864 1.523 . S
C864 C848 1.368 1_455 S
C864 C860 1.368 . S
C864 C863 1.523 . S
H865 C840 0.950 . S
H866 C842 0.950 . S
H867 C843 0.949 . S
H868 C845 0.950 . S
H869 C847 0.950 . S
C870 C871 1.349 . S
C870 C872 1.327 . S
C870 H895 0.950 . S
C871 C870 1.349 . S
C871 C887 1.349 . S
C872 C870 1.327 . S
C872 C891 1.429 . S
C872 H896 0.950 . S
C873 C890 1.574 . S
C873 C892 1.368 . S
C873 H897 0.955 . S
H874 C878 0.949 . S
C875 C876 1.349 . S
C875 C877 1.327 . S
C875 H898 0.950 . S
C876 C875 1.349 . S
C876 C888 1.349 . S
C877 C875 1.327 . S
C877 C893 1.429 . S
C877 H899 0.950 . S
C878 H874 0.949 . S
C878 C886 1.574 . S
C878 C894 1.368 . S
H879 C887 0.950 1_565 S
H880 C885 0.950 1_565 S
H881 C886 0.949 . S
H882 C888 0.950 . S
H883 C889 0.950 . S
H884 C890 0.949 . S
C885 H880 0.950 1_545 S
C885 C887 1.327 . S
C885 C891 1.429 . S
C886 C878 1.574 . S
C886 H881 0.949 . S
C886 C892 1.368 . S
C887 C871 1.349 . S
C887 H879 0.950 1_545 S
C887 C885 1.327 . S
C888 C876 1.349 . S
C888 H882 0.950 . S
C888 C889 1.327 . S
C889 H883 0.950 . S
C889 C888 1.327 . S
C889 C893 1.429 . S
C890 C873 1.574 . S
C890 H884 0.949 . S
C890 C894 1.368 . S
C891 C872 1.429 . S
C891 C885 1.429 . S
C891 C892 1.523 . S
C892 C873 1.368 . S
C892 C886 1.368 . S
C892 C891 1.523 . S
C893 C877 1.429 . S
C893 C889 1.429 . S
C893 C894 1.523 . S
C894 C878 1.368 . S
C894 C890 1.368 . S
C894 C893 1.523 . S
H895 C870 0.950 . S
H896 C872 0.950 . S
H897 C873 0.955 . S
H898 C875 0.950 . S
H899 C877 0.950 . S
C900 C901 1.349 . S
C900 C902 1.327 . S
C900 H925 0.950 . S
C901 C900 1.349 . S
C901 C917 1.349 . S
C902 C900 1.327 . S
C902 C921 1.429 . S
C902 H926 0.950 . S
C903 C920 1.574 . S
C903 C922 1.368 . S
C903 H927 0.949 . S
H904 C908 0.949 . S
C905 C906 1.349 . S
C905 C907 1.327 . S
C905 H928 0.950 . S
C906 C905 1.349 . S
C906 C918 1.349 . S
C907 C905 1.327 . S
C907 C923 1.429 . S
C907 H929 0.950 . S
C908 H904 0.949 . S
C908 C916 1.574 . S
C908 C924 1.368 . S
H909 C917 0.950 . S
H910 C915 0.950 . S
H911 C916 0.949 . S
H912 C918 0.950 . S
H913 C919 0.950 . S
H914 C920 0.949 . S
C915 H910 0.950 . S
C915 C917 1.327 . S
C915 C921 1.429 . S
C916 C908 1.574 . S
C916 H911 0.949 . S
C916 C922 1.368 . S
C917 C901 1.349 . S
C917 H909 0.950 . S
C917 C915 1.327 . S
C918 C906 1.349 . S
C918 H912 0.950 . S
C918 C919 1.327 . S
C919 H913 0.950 . S
C919 C918 1.327 . S
C919 C923 1.429 . S
C920 C903 1.574 . S
C920 H914 0.949 . S
C920 C924 1.368 . S
C921 C902 1.429 . S
C921 C915 1.429 . S
C921 C922 1.523 . S
C922 C903 1.368 . S
C922 C916 1.368 . S
C922 C921 1.523 . S
C923 C907 1.429 . S
C923 C919 1.429 . S
C923 C924 1.523 . S
C924 C908 1.368 . S
C924 C920 1.368 . S
C924 C923 1.523 . S
H925 C900 0.950 . S
H926 C902 0.950 . S
H927 C903 0.949 . S
H928 C905 0.950 . S
H929 C907 0.950 . S
C930 C931 1.349 . S
C930 C932 1.327 . S
C930 H955 0.950 . S
C931 C930 1.349 . S
C931 C947 1.345 . S
C932 C930 1.327 . S
C932 C951 1.429 . S
C932 H956 0.950 . S
C933 C950 1.574 . S
C933 C952 1.368 1_565 S
C933 H957 0.949 . S
H934 C938 0.949 . S
C935 C936 1.349 1_565 S
C935 C937 1.327 . S
C935 H958 0.950 . S
C936 C935 1.349 1_545 S
C936 C948 1.349 . S
C937 C935 1.327 . S
C937 C953 1.429 1_565 S
C937 H959 0.950 . S
C938 H934 0.949 . S
C938 C946 1.574 . S
C938 C954 1.368 . S
H939 C947 0.953 1_565 S
H940 C945 0.950 . S
H941 C946 0.949 . S
H942 C948 0.950 . S
H943 C949 0.950 . S
H944 C950 0.949 . S
C945 H940 0.950 . S
C945 C947 1.327 1_565 S
C945 C951 1.429 1_565 S
C946 C938 1.574 . S
C946 H941 0.949 . S
C946 C952 1.368 . S
C947 C931 1.345 . S
C947 H939 0.953 1_545 S
C947 C945 1.327 1_545 S
C948 C936 1.349 . S
C948 H942 0.950 . S
C948 C949 1.327 . S
C949 H943 0.950 . S
C949 C948 1.327 . S
C949 C953 1.429 . S
C950 C933 1.574 . S
C950 H944 0.949 . S
C950 C954 1.368 1_565 S
C951 C932 1.429 . S
C951 C945 1.429 1_545 S
C951 C952 1.523 . S
C952 C933 1.368 1_545 S
C952 C946 1.368 . S
C952 C951 1.523 . S
C953 C937 1.429 1_545 S
C953 C949 1.429 . S
C953 C954 1.523 . S
C954 C938 1.368 . S
C954 C950 1.368 1_545 S
C954 C953 1.523 . S
H955 C930 0.950 . S
H956 C932 0.950 . S
H957 C933 0.949 . S
H958 C935 0.950 . S
H959 C937 0.950 . S
C960 C961 1.349 . S
C960 C962 1.327 . S
C960 H985 0.950 . S
C961 C960 1.349 . S
C961 C977 1.349 . S
C962 C960 1.327 . S
C962 C981 1.429 . S
C962 H986 0.950 . S
C963 C980 1.574 . S
C963 C982 1.368 . S
C963 H987 0.949 . S
H964 C968 0.949 . S
C965 C966 1.349 . S
C965 C967 1.327 1_554 S
C965 H988 0.950 . S
C966 C965 1.349 . S
C966 C978 1.349 . S
C967 C965 1.327 1_556 S
C967 C983 1.429 . S
C967 H989 0.950 . S
C968 H964 0.949 . S
C968 C976 1.574 . S
C968 C984 1.368 . S
H969 C977 0.950 . S
H970 C975 0.950 . S
H971 C976 0.949 . S
H972 C978 0.950 . S
H973 C979 0.950 . S
H974 C980 0.949 . S
C975 H970 0.950 . S
C975 C977 1.327 . S
C975 C981 1.429 . S
C976 C968 1.574 . S
C976 H971 0.949 . S
C976 C982 1.368 . S
C977 C961 1.349 . S
C977 H969 0.950 . S
C977 C975 1.327 . S
C978 C966 1.349 . S
C978 H972 0.950 . S
C978 C979 1.327 1_554 S
C979 H973 0.950 . S
C979 C978 1.327 1_556 S
C979 C983 1.429 . S
C980 C963 1.574 . S
C980 H974 0.949 . S
C980 C984 1.368 . S
C981 C962 1.429 . S
C981 C975 1.429 . S
C981 C982 1.523 . S
C982 C963 1.368 . S
C982 C976 1.368 . S
C982 C981 1.523 . S
C983 C967 1.429 . S
C983 C979 1.429 . S
C983 C984 1.523 . S
C984 C968 1.368 . S
C984 C980 1.368 . S
C984 C983 1.523 . S
H985 C960 0.950 . S
H986 C962 0.950 . S
H987 C963 0.949 . S
H988 C965 0.950 . S
H989 C967 0.950 . S
C990 C991 1.349 . S
C990 C992 1.327 . S
C990 H1015 0.950 . S
C991 C990 1.349 . S
C991 C1007 1.349 . S
C992 C990 1.327 . S
C992 C1011 1.429 . S
C992 H1016 0.950 . S
C993 C1010 1.574 . S
C993 C1012 1.368 . S
C993 H1017 0.949 . S
H994 C998 0.949 . S
C995 C996 1.349 . S
C995 C997 1.327 . S
C995 H1018 0.950 . S
C996 C995 1.349 . S
C996 C1008 1.349 . S
C997 C995 1.327 . S
C997 C1013 1.429 . S
C997 H1019 0.950 . S
C998 H994 0.949 . S
C998 C1006 1.574 . S
C998 C1014 1.368 . S
H999 C1007 0.950 . S
H1000 C1005 0.950 . S
H1001 C1006 0.949 . S
H1002 C1008 0.950 . S
H1003 C1009 0.950 . S
H1004 C1010 0.949 . S
C1005 H1000 0.950 . S
C1005 C1007 1.327 . S
C1005 C1011 1.429 . S
C1006 C998 1.574 . S
C1006 H1001 0.949 . S
C1006 C1012 1.368 . S
C1007 C991 1.349 . S
C1007 H999 0.950 . S
C1007 C1005 1.327 . S
C1008 C996 1.349 . S
C1008 H1002 0.950 . S
C1008 C1009 1.327 . S
C1009 H1003 0.950 . S
C1009 C1008 1.327 . S
C1009 C1013 1.429 . S
C1010 C993 1.574 . S
C1010 H1004 0.949 . S
C1010 C1014 1.368 . S
C1011 C992 1.429 . S
C1011 C1005 1.429 . S
C1011 C1012 1.523 . S
C1012 C993 1.368 . S
C1012 C1006 1.368 . S
C1012 C1011 1.523 . S
C1013 C997 1.429 . S
C1013 C1009 1.429 . S
C1013 C1014 1.523 . S
C1014 C998 1.368 . S
C1014 C1010 1.368 . S
C1014 C1013 1.523 . S
H1015 C990 0.950 . S
H1016 C992 0.950 . S
H1017 C993 0.949 . S
H1018 C995 0.950 . S
H1019 C997 0.950 . S
C481 C19 2.907 . S
C486 C451 2.925 . S
C511 C49 3.011 . S
C516 C301 2.856 . S
C541 C99 2.907 . S
C546 C361 2.774 . S
C571 C9 3.011 . S
C576 C421 2.856 . S
C606 C331 2.925 . S
C601 C59 2.907 . S
C636 C391 3.003 . S
C631 C89 3.011 . S
C661 C55 0.291 . S
C666 C181 0.477 . S
C691 C85 0.326 . S
C696 C271 0.257 . S
C721 C15 0.291 . S
C726 C151 0.258 . S
C756 C211 0.256 . S
C751 C45 0.326 . S
C786 C241 0.477 . S
C781 C95 0.291 . S
C811 C5 0.326 . S
C816 C121 0.384 . S
C846 C260 1.075 . S
C841 C18 1.073 . S
C871 C58 1.073 . S
C876 C140 1.086 . S
C901 C98 1.073 . S
C906 C200 1.075 . S
C936 C380 1.755 . S
C931 C48 1.701 . S
C966 C440 1.759 . S
C961 C88 1.701 . S
C991 C8 1.701 . S
C996 C320 1.759 . S
