# Generated by pormake.
# Topology tsx, (6,3)-cn, num edge types: 1
# Building blocks:
#     Node 0, Type 0, BuildingBlock: FUNLAD_clean_sbu_0, # of connection points: 6
#     Node 1, Type 0, BuildingBlock: FUNLAD_clean_sbu_0, # of connection points: 6
#     Node 2, Type 1, BuildingBlock: ESEHIV_clean_linker_0, # of connection points: 3
#     Node 3, Type 1, BuildingBlock: ESEHIV_clean_linker_0, # of connection points: 3
#     Node 4, Type 1, BuildingBlock: ESEHIV_clean_linker_0, # of connection points: 3
#     Node 5, Type 1, BuildingBlock: ESEHIV_clean_linker_0, # of connection points: 3
#     Edge 6, Type (0, 1), BuildingBlock: XUDNAN_clean_linker_2, # of connection points: 2
#     Edge 7, Type (0, 1), BuildingBlock: XUDNAN_clean_linker_2, # of connection points: 2
#     Edge 8, Type (0, 1), BuildingBlock: XUDNAN_clean_linker_2, # of connection points: 2
#     Edge 9, Type (0, 1), BuildingBlock: XUDNAN_clean_linker_2, # of connection points: 2
#     Edge 10, Type (0, 1), BuildingBlock: XUDNAN_clean_linker_2, # of connection points: 2
#     Edge 11, Type (0, 1), BuildingBlock: XUDNAN_clean_linker_2, # of connection points: 2
#     Edge 12, Type (0, 1), BuildingBlock: XUDNAN_clean_linker_2, # of connection points: 2
#     Edge 13, Type (0, 1), BuildingBlock: XUDNAN_clean_linker_2, # of connection points: 2
#     Edge 14, Type (0, 1), BuildingBlock: XUDNAN_clean_linker_2, # of connection points: 2
#     Edge 15, Type (0, 1), BuildingBlock: XUDNAN_clean_linker_2, # of connection points: 2
#     Edge 16, Type (0, 1), BuildingBlock: XUDNAN_clean_linker_2, # of connection points: 2
#     Edge 17, Type (0, 1), BuildingBlock: XUDNAN_clean_linker_2, # of connection points: 2
# Relax obj value: 0.164
# Max RMSD: 0.154
# Mean RMSD: 0.079
data_MOF--net-tsx--node1-FUNLAD_clean_sbu_0--node2-ESEHIV_clean_linker_0--edge1-XUDNAN_clean_linker_2
_symmetry_space_group_name_H-M    P1
_symmetry_Int_Tables_number       1
_symmetry_cell_setting            triclinic
loop_
_symmetry_equiv_pos_as_xyz
'x, y, z'
_cell_length_a     17.716744
_cell_length_b     19.532999
_cell_length_c     40.411684
_cell_angle_alpha  91.206053
_cell_angle_beta   91.888576
_cell_angle_gamma 90.114912
loop_
_atom_site_label
_atom_site_type_symbol
_atom_site_fract_x
_atom_site_fract_y
_atom_site_fract_z
_atom_type_partial_charge
C0 C 0.95451 0.90015 0.01571 0.0
N1 N 0.07753 0.02196 0.08376 0.0
C2 C 0.01318 0.03158 0.10068 0.0
C3 C 0.01562 0.03604 0.13511 0.0
C4 C 0.08472 0.02865 0.15274 0.0
C5 C 0.15062 0.0195 0.13463 0.0
C6 C 0.14576 0.01671 0.09998 0.0
Zn7 Zn 0.066 0.01139 0.03332 0.0
C8 C 0.16853 0.91216 0.00465 0.0
N9 N 0.02947 0.99006 0.92873 0.0
C10 C 0.96043 0.98743 0.91289 0.0
C11 C 0.09416 0.98575 0.91154 0.0
C12 C 0.09114 0.97634 0.87729 0.0
C13 C 0.02095 0.97291 0.8604 0.0
C14 C 0.95486 0.97949 0.87838 0.0
Zn15 Zn 0.04096 0.00039 0.97914 0.0
O16 O 0.98625 0.93425 0.03938 0.0
C17 C 0.9411 0.10299 0.00734 0.0
O18 O 0.96552 0.91655 0.98595 0.0
H19 H 0.14853 0.98929 0.9244 0.0
H20 H 0.9593 0.03489 0.08748 0.0
H21 H 0.90973 0.99108 0.92701 0.0
O22 O 0.98172 0.08917 0.03281 0.0
O23 O 0.95085 0.0701 0.98038 0.0
H24 H 0.1963 0.009 0.08609 0.0
O25 O 0.11706 0.08369 0.9733 0.0
O26 O 0.14762 0.0859 0.02654 0.0
O27 O 0.13258 0.93124 0.97879 0.0
O28 O 0.15051 0.93585 0.03277 0.0
C29 C 0.15658 0.10805 -0.00239 0.0
H30 H 0.96343 0.04493 0.14769 0.0
H31 H 0.20515 0.01282 0.147 0.0
H32 H 0.14321 0.97215 0.86407 0.0
H33 H 0.89977 0.97693 0.86596 0.0
C34 C 0.34118 0.42641 0.49943 0.0
N35 N 0.49228 0.50158 0.57225 0.0
C36 C 0.43404 0.51675 0.59228 0.0
C37 C 0.44291 0.51092 0.62651 0.0
C38 C 0.51168 0.4877 0.64003 0.0
C39 C 0.57077 0.47189 0.61899 0.0
C40 C 0.56007 0.47998 0.58492 0.0
Zn41 Zn 0.47552 0.50974 0.52236 0.0
C42 C 0.55059 0.4004 0.48336 0.0
N43 N 0.43353 0.52692 0.41859 0.0
C44 C 0.36332 0.52856 0.40393 0.0
C45 C 0.49653 0.5301 0.40038 0.0
C46 C 0.49062 0.5357 0.36616 0.0
C47 C 0.41909 0.53626 0.35007 0.0
C48 C 0.35474 0.53283 0.36949 0.0
Zn49 Zn 0.44951 0.51904 0.46856 0.0
O50 O 0.38137 0.44532 0.52455 0.0
C51 C 0.36719 0.62398 0.50516 0.0
O52 O 0.35597 0.44939 0.47111 0.0
H53 H 0.55186 0.52817 0.4124 0.0
H54 H 0.38023 0.53272 0.58173 0.0
H55 H 0.31394 0.52601 0.4189 0.0
O56 O 0.40395 0.59908 0.5297 0.0
O57 O 0.37687 0.59976 0.47629 0.0
H58 H 0.60569 0.4685 0.56859 0.0
O59 O 0.5441 0.58987 0.46762 0.0
O60 O 0.5709 0.57301 0.52025 0.0
O61 O 0.51987 0.43523 0.4605 0.0
O62 O 0.54409 0.41998 0.51337 0.0
C63 C 0.58583 0.60158 0.49335 0.0
H64 H 0.39607 0.52282 0.64219 0.0
H65 H 0.62458 0.45384 0.62885 0.0
H66 H 0.54198 0.53995 0.35255 0.0
H67 H 0.29842 0.53236 0.35825 0.0
H68 H 0.8878 0.0654 0.37963 0.0
H69 H 0.0793 0.94317 0.40765 0.0
H70 H 0.90237 0.97758 0.4765 0.0
C71 C 0.91712 0.03429 0.39785 0.0
C72 C 0.88689 0.02607 0.42929 0.0
C73 C 0.98646 0.00485 0.39002 0.0
C74 C 0.02594 0.96667 0.41376 0.0
C75 C 0.9961 0.95675 0.44501 0.0
C76 C 0.92652 0.98645 0.45276 0.0
H77 H 0.93306 0.88973 0.60745 0.0
H78 H 0.03972 0.08631 0.62064 0.0
H79 H 0.96309 0.01557 0.52339 0.0
C80 C 0.95259 0.93716 0.5971 0.0
C81 C 0.94285 0.94776 0.56311 0.0
C82 C 0.98678 0.98721 0.61791 0.0
C83 C 0.01271 0.04816 0.60438 0.0
C84 C 0.00621 0.05875 0.56999 0.0
C85 C 0.96869 0.00881 0.54974 0.0
H86 H 0.48737 0.59194 0.88447 0.0
H87 H 0.65886 0.43705 0.88805 0.0
H88 H 0.60832 0.55029 0.97607 0.0
C89 C 0.53138 0.56526 0.89818 0.0
C90 C 0.54374 0.57927 0.9323 0.0
C91 C 0.57259 0.51381 0.88201 0.0
C92 C 0.6259 0.47605 0.90036 0.0
C93 C 0.63622 0.48667 0.93459 0.0
C94 C 0.59791 0.54051 0.94996 0.0
H95 H 0.40514 0.46431 0.09489 0.0
H96 H 0.59327 0.59633 0.12042 0.0
H97 H 0.57875 0.49502 0.02478 0.0
C98 C 0.45685 0.48948 0.08808 0.0
C99 C 0.48654 0.47645 0.05687 0.0
C100 C 0.49569 0.53201 0.11113 0.0
C101 C 0.56343 0.563 0.10258 0.0
C102 C 0.59247 0.55157 0.07105 0.0
C103 C 0.5546 0.50704 0.04846 0.0
H104 H 0.29231 0.12233 0.02932 0.0
H105 H 0.14427 0.21605 0.95595 0.0
H106 H 0.22951 0.31671 0.9553 0.0
H107 H 0.32886 0.25969 0.07674 0.0
H108 H 0.42715 0.24298 0.08625 0.0
H109 H 0.36446 0.17326 0.07546 0.0
H110 H 0.45104 0.13568 0.02784 0.0
H111 H 0.51457 0.20549 0.03864 0.0
H112 H 0.47572 0.19647 -0.00299 0.0
H113 H 0.31238 0.41551 0.9728 0.0
H114 H 0.39111 0.50086 0.00403 0.0
H115 H 0.49158 0.33987 0.06249 0.0
C116 C 0.27933 0.16326 0.01239 0.0
C117 C 0.2122 0.16222 0.99278 0.0
C118 C 0.1961 0.21622 0.97095 0.0
C119 C 0.24421 0.27328 0.97038 0.0
C120 C 0.30899 0.27401 0.991 0.0
C121 C 0.32754 0.21952 0.01101 0.0
C122 C 0.39583 0.23527 0.03326 0.0
C123 C 0.37792 0.22738 0.07007 0.0
C124 C 0.46328 0.19057 0.0236 0.0
C125 C 0.40888 0.30915 0.0248 0.0
C126 C 0.35938 0.33032 -0.00015 0.0
C127 C 0.35368 0.39896 0.99125 0.0
C128 C 0.39881 0.44711 0.00894 0.0
C129 C 0.44902 0.42596 0.03456 0.0
C130 C 0.45522 0.35629 0.04209 0.0
H131 H 0.25392 0.88874 0.95072 0.0
H132 H 0.22341 0.8254 0.05173 0.0
H133 H 0.32333 0.73834 0.04524 0.0
H134 H 0.28253 0.72714 0.91512 0.0
H135 H 0.35461 0.75338 0.88756 0.0
H136 H 0.28479 0.81391 0.90081 0.0
H137 H 0.39059 0.89613 0.92312 0.0
H138 H 0.46087 0.83596 0.90971 0.0
H139 H 0.46118 0.86535 0.9523 0.0
H140 H 0.4131 0.65016 0.02549 0.0
H141 H 0.49489 0.57161 -0.0044 0.0
H142 H 0.47889 0.69931 0.90916 0.0
C143 C 0.2688 0.85689 0.97155 0.0
C144 C 0.2309 0.86315 0.00167 0.0
C145 C 0.25206 0.82123 0.0285 0.0
C146 C 0.30861 0.77182 0.02504 0.0
C147 C 0.34421 0.76634 -0.00515 0.0
C148 C 0.32608 0.80839 0.96874 0.0
C149 C 0.37194 0.79093 0.93874 0.0
C150 C 0.32037 0.77009 0.9088 0.0
C151 C 0.42426 0.85065 0.9305 0.0
C152 C 0.41658 0.7306 0.95165 0.0
C153 C 0.39971 0.71756 0.98407 0.0
C154 C 0.42858 0.66119 0.00046 0.0
C155 C 0.47584 0.61692 0.98327 0.0
C156 C 0.49562 0.62943 0.95023 0.0
C157 C 0.46566 0.6878 0.9344 0.0
H158 H 0.82387 0.8454 0.98635 0.0
H159 H 0.99572 0.81271 0.06335 0.0
H160 H 0.92976 0.7089 0.08017 0.0
H161 H 0.6716 0.80315 0.03441 0.0
H162 H 0.61613 0.76055 0.00188 0.0
H163 H 0.68275 0.82587 0.99183 0.0
H164 H 0.7485 0.7402 0.95202 0.0
H165 H 0.68086 0.67552 0.96216 0.0
H166 H 0.7805 0.65888 0.96741 0.0
H167 H 0.84131 0.61763 0.09308 0.0
H168 H 0.72917 0.54662 0.10326 0.0
H169 H 0.61058 0.63861 0.02005 0.0
C170 C 0.84807 0.81526 0.00621 0.0
C171 C 0.91479 0.83661 0.02354 0.0
C172 C 0.94435 0.79717 0.04991 0.0
C173 C 0.90778 0.73779 0.05945 0.0
C174 C 0.84139 0.71853 0.04245 0.0
C175 C 0.81127 0.75597 0.01649 0.0
C176 C 0.7345 0.72791 0.00519 0.0
C177 C 0.67262 0.78262 0.00856 0.0
C178 C 0.73626 0.69889 0.96958 0.0
C179 C 0.72542 0.67109 0.02978 0.0
C180 C 0.78864 0.66561 0.05047 0.0
C181 C 0.79189 0.62044 0.07671 0.0
C182 C 0.72812 0.5806 0.08241 0.0
C183 C 0.66224 0.58664 0.06205 0.0
C184 C 0.66129 0.63155 0.03515 0.0
H185 H 0.81673 0.12349 0.96731 0.0
H186 H 0.95148 0.21657 0.04777 0.0
H187 H 0.87934 0.32408 0.04186 0.0
H188 H 0.80808 0.25902 0.91681 0.0
H189 H 0.71137 0.24809 0.90238 0.0
H190 H 0.76463 0.17542 0.91635 0.0
H191 H 0.66323 0.14895 0.95921 0.0
H192 H 0.60875 0.22104 0.94494 0.0
H193 H 0.63561 0.21499 0.98817 0.0
H194 H 0.80668 0.42679 0.02061 0.0
H195 H 0.7324 0.51197 0.98895 0.0
H196 H 0.63991 0.34818 0.92543 0.0
C197 C 0.82951 0.16591 0.98428 0.0
C198 C 0.88946 0.16198 0.00794 0.0
C199 C 0.90513 0.21848 0.02965 0.0
C200 C 0.8646 0.27976 0.02644 0.0
C201 C 0.80746 0.28287 0.00199 0.0
C202 C 0.78865 0.22678 0.98187 0.0
C203 C 0.72791 0.2442 0.95634 0.0
C204 C 0.75466 0.23091 0.92089 0.0
C205 C 0.65454 0.20497 0.96255 0.0
C206 C 0.71911 0.31979 0.96379 0.0
C207 C 0.76454 0.34129 0.99044 0.0
C208 C 0.76967 0.41023 0.00013 0.0
C209 C 0.72737 0.45827 0.98199 0.0
C210 C 0.68089 0.43695 0.95443 0.0
C211 C 0.67599 0.36655 0.94588 0.0
H212 H 0.59247 0.74088 0.48743 0.0
H213 H 0.73017 0.55992 0.50009 0.0
H214 H 0.84376 0.6325 0.50877 0.0
H215 H 0.74446 0.85293 0.44933 0.0
H216 H 0.71334 0.9277 0.47185 0.0
H217 H 0.64605 0.86258 0.45842 0.0
H218 H 0.60364 0.85102 0.51886 0.0
H219 H 0.6706 0.9158 0.53233 0.0
H220 H 0.67325 0.8328 0.55102 0.0
H221 H 0.93545 0.72145 0.5264 0.0
H222 H 0.00137 0.82201 0.55174 0.0
H223 H 0.8062 0.94799 0.52939 0.0
C224 C 0.64727 0.71697 0.49057 0.0
C225 C 0.65356 0.64506 0.49228 0.0
C226 C 0.72505 0.61496 0.49805 0.0
C227 C 0.78971 0.65579 0.50291 0.0
C228 C 0.78181 0.72674 0.50209 0.0
C229 C 0.71252 0.75736 0.49586 0.0
C230 C 0.71804 0.83456 0.50106 0.0
C231 C 0.70466 0.87162 0.46821 0.0
C232 C 0.66316 0.85998 0.52739 0.0
C233 C 0.79971 0.84183 0.51317 0.0
C234 C 0.83588 0.77914 0.51266 0.0
C235 C 0.90895 0.7712 0.52579 0.0
C236 C 0.94569 0.82836 0.54033 0.0
C237 C 0.90903 0.89247 0.54194 0.0
C238 C 0.83589 0.89971 0.52754 0.0
H239 H 0.66554 0.32971 0.51621 0.0
H240 H 0.51419 0.32166 0.4295 0.0
H241 H 0.5714 0.21341 0.41146 0.0
H242 H 0.82504 0.27428 0.4745 0.0
H243 H 0.86443 0.22455 0.50787 0.0
H244 H 0.80414 0.29592 0.51682 0.0
H245 H 0.71731 0.21563 0.54909 0.0
H246 H 0.7773 0.14384 0.53959 0.0
H247 H 0.6779 0.14015 0.52864 0.0
H248 H 0.65095 0.11371 0.39924 0.0
H249 H 0.75649 0.03347 0.39143 0.0
H250 H 0.85862 0.10265 0.48502 0.0
C251 C 0.64372 0.30424 0.49382 0.0
C252 C 0.58537 0.33409 0.4743 0.0
C253 C 0.55916 0.30006 0.44478 0.0
C254 C 0.59072 0.23805 0.43445 0.0
C255 C 0.64875 0.21033 0.45382 0.0
C256 C 0.67552 0.2422 0.4828 0.0
C257 C 0.74428 0.20497 0.49676 0.0
C258 C 0.81354 0.25277 0.49909 0.0
C259 C 0.7282 0.17433 0.53053 0.0
C260 C 0.75306 0.14904 0.47048 0.0
C261 C 0.69631 0.1524 0.44633 0.0
C262 C 0.69529 0.10995 0.41817 0.0
C263 C 0.75553 0.06467 0.41389 0.0
C264 C 0.81621 0.0625 0.43752 0.0
C265 C 0.81305 0.10319 0.46675 0.0
H266 H 0.33069 0.33688 0.54955 0.0
H267 H 0.21562 0.40054 0.45893 0.0
H268 H 0.11409 0.31572 0.46791 0.0
H269 H 0.29123 0.15794 0.53825 0.0
H270 H 0.28096 0.14405 0.58183 0.0
H271 H 0.34192 0.21119 0.56847 0.0
H272 H 0.26838 0.2996 0.60362 0.0
H273 H 0.20681 0.23277 0.61689 0.0
H274 H 0.1676 0.30723 0.59717 0.0
H275 H 0.0236 0.22523 0.48844 0.0
H276 H 0.95811 0.13159 0.51573 0.0
H277 H 0.13953 0.1228 0.59006 0.0
C278 C 0.28391 0.33342 0.53163 0.0
C279 C 0.28042 0.37572 0.5037 0.0
C280 C 0.21911 0.36865 0.48053 0.0
C281 C 0.16123 0.32087 0.48552 0.0
C282 C 0.16636 0.28019 0.51352 0.0
C283 C 0.22674 0.28555 0.53593 0.0
C284 C 0.22111 0.23427 0.56328 0.0
C285 C 0.28775 0.18388 0.56291 0.0
C286 C 0.21563 0.27066 0.59725 0.0
C287 C 0.14769 0.19922 0.55299 0.0
C288 C 0.11652 0.22672 0.52444 0.0
C289 C 0.04813 0.20299 0.51061 0.0
C290 C 0.01138 0.14933 0.52617 0.0
C291 C 0.04308 0.11907 0.555 0.0
C292 C 0.11233 0.14504 0.56847 0.0
H293 H 0.23308 0.62725 0.47239 0.0
H294 H 0.36915 0.73835 0.54665 0.0
H295 H 0.27414 0.83208 0.54652 0.0
H296 H 0.1825 0.7624 0.42481 0.0
H297 H 0.08809 0.73239 0.41467 0.0
H298 H 0.16114 0.67212 0.42482 0.0
H299 H 0.07809 0.62446 0.46986 0.0
H300 H 0.00509 0.68709 0.4625 0.0
H301 H 0.04846 0.67928 0.50327 0.0
H302 H 0.17665 0.92195 0.5292 0.0
H303 H 0.0851 0.99526 0.49876 0.0
H304 H 0.00787 0.81979 0.44002 0.0
C305 C 0.24209 0.67072 0.48917 0.0
C306 C 0.3082 0.67617 0.50942 0.0
C307 C 0.31837 0.7334 0.53111 0.0
C308 C 0.26472 0.78662 0.53116 0.0
C309 C 0.20074 0.78043 0.51005 0.0
C310 C 0.18892 0.72311 0.48989 0.0
C311 C 0.11926 0.72997 0.46766 0.0
C312 C 0.13898 0.72391 0.43084 0.0
C313 C 0.05907 0.67711 0.47633 0.0
C314 C 0.0954 0.80176 0.47703 0.0
C315 C 0.14248 0.83018 0.50173 0.0
C316 C 0.13774 0.89939 0.51084 0.0
C317 C 0.08525 0.9406 0.49368 0.0
C318 C 0.03762 0.91211 0.46821 0.0
C319 C 0.04167 0.84173 0.46043 0.0
H320 H 0.97752 0.97858 0.19363 0.0
H321 H 0.19659 0.07936 0.1959 0.0
H322 H 0.19788 0.08054 0.25704 0.0
H323 H 0.903 0.07794 0.26013 0.0
H324 H 0.84966 0.00767 0.27581 0.0
H325 H 0.86884 0.01046 0.23239 0.0
H326 H 0.93013 0.89022 0.23532 0.0
H327 H 0.91124 0.88707 0.27877 0.0
H328 H 0.00623 0.87556 0.26503 0.0
H329 H 0.17427 0.07057 0.31848 0.0
H330 H 0.12442 0.05585 0.37457 0.0
H331 H 0.91707 0.9712 0.33086 0.0
C332 C 0.02563 0.00175 0.20675 0.0
C333 C 0.08696 0.02895 0.18966 0.0
C334 C 0.14936 0.05714 0.20822 0.0
C335 C 0.15043 0.05846 0.24301 0.0
C336 C 0.08846 0.03194 0.25888 0.0
C337 C 0.02704 0.00458 0.24128 0.0
C338 C 0.96612 0.98173 0.264 0.0
C339 C 0.89258 0.02186 0.2577 0.0
C340 C 0.95268 0.90403 0.26057 0.0
C341 C 0.00259 0.00081 0.29724 0.0
C342 C 0.07358 0.0289 0.29389 0.0
C343 C 0.11863 0.04898 0.32136 0.0
C344 C 0.09008 0.04037 0.35302 0.0
C345 C 0.01691 0.013 0.35675 0.0
C346 C 0.97285 0.99303 0.32851 0.0
H347 H 0.95618 0.05433 0.81302 0.0
H348 H 0.08098 0.86581 0.82667 0.0
H349 H 0.08373 0.84809 0.76593 0.0
H350 H 0.84383 0.99926 0.7399 0.0
H351 H 0.84992 0.08111 0.72037 0.0
H352 H 0.85338 0.07656 0.76487 0.0
H353 H 0.98064 0.14238 0.76699 0.0
H354 H 0.97786 0.14669 0.72249 0.0
H355 H 0.0584 0.10962 0.74377 0.0
H356 H 0.07417 0.85126 0.70434 0.0
H357 H 0.05612 0.87683 0.64495 0.0
H358 H 0.94353 0.06655 0.67077 0.0
C359 C 0.98298 0.00892 0.80306 0.0
C360 C 0.01778 0.96094 0.82422 0.0
C361 C 0.05385 0.9028 0.81062 0.0
C362 C 0.05561 0.89236 0.77628 0.0
C363 C 0.02172 0.94101 0.75597 0.0
C364 C 0.98631 0.99829 0.76876 0.0
C365 C 0.95749 0.04421 0.74135 0.0
C366 C 0.87102 0.05063 0.74165 0.0
C367 C 0.99591 0.1149 0.74381 0.0
C368 C 0.98235 0.0038 0.71122 0.0
C369 C 0.01869 0.94415 0.72027 0.0
C370 C 0.04589 0.89781 0.69691 0.0
C371 C 0.03536 0.91265 0.66334 0.0
C372 C -0.00129 0.9736 0.65352 0.0
C373 C 0.97233 0.01992 0.67777 0.0
H374 H 0.50614 0.58565 0.68897 0.0
H375 H 0.53768 0.36814 0.67132 0.0
H376 H 0.54941 0.3505 0.7318 0.0
H377 H 0.64338 0.60026 0.75623 0.0
H378 H 0.59063 0.66316 0.77907 0.0
H379 H 0.58051 0.65783 0.73462 0.0
H380 H 0.43584 0.64286 0.73918 0.0
H381 H 0.44563 0.64764 0.78369 0.0
H382 H 0.39984 0.57468 0.76364 0.0
H383 H 0.5547 0.35643 0.79346 0.0
H384 H 0.56746 0.38591 0.85283 0.0
H385 H 0.5432 0.6016 0.83057 0.0
C386 C 0.51522 0.53443 0.69804 0.0
C387 C 0.52068 0.47799 0.67592 0.0
C388 C 0.53352 0.4117 0.6882 0.0
C389 C 0.5398 0.40129 0.72236 0.0
C390 C 0.53397 0.45795 0.74366 0.0
C391 C 0.52302 0.52335 0.73204 0.0
C392 C 0.52315 0.57578 0.76022 0.0
C393 C 0.58831 0.62728 0.75736 0.0
C394 C 0.44654 0.61238 0.76176 0.0
C395 C 0.53595 0.52959 0.78948 0.0
C396 C 0.54093 0.46179 0.77933 0.0
C397 C 0.5519 0.4094 0.80172 0.0
C398 C 0.55969 0.42684 0.83539 0.0
C399 C 0.55797 0.49629 0.84641 0.0
C400 C 0.54466 0.54811 0.82304 0.0
H401 H 0.51328 0.47842 0.3048 0.0
H402 H 0.31093 0.60251 0.31181 0.0
H403 H 0.30488 0.61143 0.25089 0.0
H404 H 0.59633 0.57747 0.24282 0.0
H405 H 0.63831 0.50469 0.22243 0.0
H406 H 0.62237 0.50299 0.26616 0.0
H407 H 0.54431 0.39117 0.25769 0.0
H408 H 0.56011 0.39244 0.21392 0.0
H409 H 0.46514 0.38917 0.22849 0.0
H410 H 0.32293 0.60773 0.18859 0.0
H411 H 0.36722 0.59572 0.13102 0.0
H412 H 0.56322 0.48397 0.16683 0.0
C413 C 0.46784 0.50808 0.29377 0.0
C414 C 0.41266 0.53985 0.31333 0.0
C415 C 0.35331 0.57671 0.29747 0.0
C416 C 0.34965 0.58248 0.26286 0.0
C417 C 0.40601 0.55156 0.24453 0.0
C418 C 0.46416 0.51541 0.25954 0.0
C419 C 0.51995 0.48968 0.23471 0.0
C420 C 0.59889 0.52058 0.24197 0.0
C421 C 0.52248 0.41095 0.23365 0.0
C422 C 0.4845 0.51734 0.20328 0.0
C423 C 0.41824 0.55214 0.20926 0.0
C424 C 0.3749 0.58092 0.18368 0.0
C425 C 0.40026 0.57398 0.15122 0.0
C426 C 0.4687 0.53969 0.145 0.0
C427 C 0.51114 0.51113 0.17128 0.0
loop_
_geom_bond_atom_site_label_1
_geom_bond_atom_site_label_2
_geom_bond_distance
_geom_bond_site_symmetry_2
_ccdc_geom_bond_type
C0 O16 1.251 . S
C0 O18 1.254 1_554 S
N1 C2 1.333 1_445 S
N1 C6 1.307 . S
N1 Zn7 2.020 . S
C2 N1 1.333 1_665 S
C2 C3 1.379 . S
C2 H20 0.952 . S
C3 C2 1.379 . S
C3 C4 1.390 1_665 S
C3 H30 0.949 . S
C4 C3 1.390 1_445 S
C4 C5 1.357 . S
C5 C4 1.357 . S
C5 C6 1.370 . S
C5 H31 0.950 . S
C6 N1 1.307 . S
C6 C5 1.370 . S
C6 H24 0.948 . S
Zn7 N1 2.020 . S
Zn7 O16 2.039 1_445 S
Zn7 O22 2.034 1_455 S
Zn7 O26 2.025 . S
Zn7 O28 2.024 1_545 S
C8 O27 1.246 1_554 S
C8 O28 1.249 . S
N9 C10 1.307 1_445 S
N9 C11 1.333 . S
N9 Zn15 2.020 . S
C10 N9 1.307 1_665 S
C10 C14 1.370 . S
C10 H21 0.948 . S
C11 N9 1.333 . S
C11 C12 1.379 . S
C11 H19 0.952 . S
C12 C11 1.379 . S
C12 C13 1.390 . S
C12 H32 0.949 . S
C13 C12 1.390 . S
C13 C14 1.357 1_445 S
C14 C10 1.370 . S
C14 C13 1.357 1_665 S
C14 H33 0.950 . S
Zn15 N9 2.020 . S
Zn15 O18 2.025 1_445 S
Zn15 O23 2.024 1_455 S
Zn15 O25 2.039 . S
Zn15 O27 2.034 1_545 S
O16 C0 1.251 . S
O16 Zn7 2.039 1_665 S
C17 O22 1.246 . S
C17 O23 1.249 1_554 S
O18 C0 1.254 1_556 S
O18 Zn15 2.025 1_665 S
H19 C11 0.952 . S
H20 C2 0.952 . S
H21 C10 0.948 . S
O22 Zn7 2.034 1_655 S
O22 C17 1.246 . S
O23 Zn15 2.024 1_655 S
O23 C17 1.249 1_556 S
H24 C6 0.948 . S
O25 Zn15 2.039 . S
O25 C29 1.251 1_556 S
O26 Zn7 2.025 . S
O26 C29 1.254 . S
O27 C8 1.246 1_556 S
O27 Zn15 2.034 1_565 S
O28 Zn7 2.024 1_565 S
O28 C8 1.249 . S
C29 O25 1.251 1_554 S
C29 O26 1.254 . S
H30 C3 0.949 . S
H31 C5 0.950 . S
H32 C12 0.949 . S
H33 C14 0.950 . S
C34 O50 1.251 . S
C34 O52 1.254 . S
N35 C36 1.333 . S
N35 C40 1.307 . S
N35 Zn41 2.020 . S
C36 N35 1.333 . S
C36 C37 1.379 . S
C36 H54 0.952 . S
C37 C36 1.379 . S
C37 C38 1.390 . S
C37 H64 0.949 . S
C38 C37 1.390 . S
C38 C39 1.357 . S
C39 C38 1.357 . S
C39 C40 1.370 . S
C39 H65 0.950 . S
C40 N35 1.307 . S
C40 C39 1.370 . S
C40 H58 0.948 . S
Zn41 N35 2.020 . S
Zn41 O50 2.039 . S
Zn41 O56 2.034 . S
Zn41 O60 2.025 . S
Zn41 O62 2.024 . S
C42 O61 1.246 . S
C42 O62 1.249 . S
N43 C44 1.307 . S
N43 C45 1.333 . S
N43 Zn49 2.020 . S
C44 N43 1.307 . S
C44 C48 1.370 . S
C44 H55 0.948 . S
C45 N43 1.333 . S
C45 C46 1.379 . S
C45 H53 0.952 . S
C46 C45 1.379 . S
C46 C47 1.390 . S
C46 H66 0.949 . S
C47 C46 1.390 . S
C47 C48 1.357 . S
C48 C44 1.370 . S
C48 C47 1.357 . S
C48 H67 0.950 . S
Zn49 N43 2.020 . S
Zn49 O52 2.025 . S
Zn49 O57 2.024 . S
Zn49 O59 2.039 . S
Zn49 O61 2.034 . S
O50 C34 1.251 . S
O50 Zn41 2.039 . S
C51 O56 1.246 . S
C51 O57 1.249 . S
O52 C34 1.254 . S
O52 Zn49 2.025 . S
H53 C45 0.952 . S
H54 C36 0.952 . S
H55 C44 0.948 . S
O56 Zn41 2.034 . S
O56 C51 1.246 . S
O57 Zn49 2.024 . S
O57 C51 1.249 . S
H58 C40 0.948 . S
O59 Zn49 2.039 . S
O59 C63 1.251 . S
O60 Zn41 2.025 . S
O60 C63 1.254 . S
O61 C42 1.246 . S
O61 Zn49 2.034 . S
O62 Zn41 2.024 . S
O62 C42 1.249 . S
C63 O59 1.251 . S
C63 O60 1.254 . S
H64 C37 0.949 . S
H65 C39 0.950 . S
H66 C46 0.949 . S
H67 C48 0.950 . S
H68 C71 0.931 . S
H69 C74 0.928 . S
H70 C76 0.930 . S
C71 H68 0.931 . S
C71 C72 1.413 . S
C71 C73 1.358 1_545 S
C72 C71 1.413 . S
C72 C76 1.429 1_645 S
C73 C71 1.358 1_565 S
C73 C74 1.374 1_655 S
C74 H69 0.928 . S
C74 C73 1.374 1_455 S
C74 C75 1.404 . S
C75 C74 1.404 . S
C75 C76 1.391 . S
C76 H70 0.930 . S
C76 C72 1.429 1_465 S
C76 C75 1.391 . S
H77 C80 0.931 . S
H78 C83 0.928 . S
H79 C85 0.930 . S
C80 H77 0.931 . S
C80 C81 1.413 . S
C80 C82 1.360 1_665 S
C81 C80 1.413 . S
C81 C85 1.429 1_665 S
C82 C80 1.360 1_445 S
C82 C83 1.372 . S
C83 H78 0.928 . S
C83 C82 1.372 . S
C83 C84 1.404 . S
C84 C83 1.404 . S
C84 C85 1.391 . S
C85 H79 0.930 . S
C85 C81 1.429 1_445 S
C85 C84 1.391 . S
H86 C89 0.931 . S
H87 C92 0.928 . S
H88 C94 0.930 1_554 S
C89 H86 0.931 . S
C89 C90 1.413 . S
C89 C91 1.360 . S
C90 C89 1.413 . S
C90 C94 1.429 . S
C91 C89 1.360 . S
C91 C92 1.372 . S
C92 H87 0.928 . S
C92 C91 1.372 . S
C92 C93 1.404 . S
C93 C92 1.404 . S
C93 C94 1.391 . S
C94 H88 0.930 1_556 S
C94 C90 1.429 . S
C94 C93 1.391 . S
H95 C98 0.931 . S
H96 C101 0.928 . S
H97 C103 0.930 . S
C98 H95 0.931 . S
C98 C99 1.413 . S
C98 C100 1.360 . S
C99 C98 1.413 . S
C99 C103 1.429 . S
C100 C98 1.360 . S
C100 C101 1.372 . S
C101 H96 0.928 . S
C101 C100 1.372 . S
C101 C102 1.404 . S
C102 C101 1.404 . S
C102 C103 1.391 . S
C103 H97 0.930 . S
C103 C99 1.429 . S
C103 C102 1.391 . S
H104 C116 0.930 . S
H105 C118 0.930 . S
H106 C119 0.930 . S
H107 C123 0.959 . S
H108 C123 0.959 . S
H109 C123 0.961 . S
H110 C124 0.960 . S
H111 C124 0.961 . S
H112 C124 0.959 . S
H113 C127 0.929 . S
H114 C128 0.931 . S
H115 C130 0.930 1_556 S
C116 H104 0.930 . S
C116 C117 1.399 1_556 S
C116 C121 1.399 1_556 S
C117 C116 1.399 1_554 S
C117 C118 1.376 . S
C118 H105 0.930 . S
C118 C117 1.376 . S
C118 C119 1.388 . S
C119 H106 0.930 . S
C119 C118 1.388 . S
C119 C120 1.390 . S
C120 C119 1.390 . S
C120 C121 1.394 . S
C120 C126 1.465 . S
C121 C116 1.399 1_554 S
C121 C120 1.394 . S
C121 C122 1.516 1_554 S
C122 C121 1.516 1_556 S
C122 C123 1.502 . S
C122 C124 1.561 . S
C122 C125 1.526 1_556 S
C123 H107 0.959 . S
C123 H108 0.959 . S
C123 H109 0.961 . S
C123 C122 1.502 . S
C124 H110 0.960 . S
C124 H111 0.961 . S
C124 H112 0.959 . S
C124 C122 1.561 . S
C125 C122 1.526 1_554 S
C125 C126 1.396 . S
C125 C130 1.390 . S
C126 C120 1.465 . S
C126 C125 1.396 . S
C126 C127 1.399 . S
C127 H113 0.929 . S
C127 C126 1.399 . S
C127 C128 1.385 . S
C128 H114 0.931 . S
C128 C127 1.385 . S
C128 C129 1.389 . S
C129 C128 1.389 . S
C129 C130 1.387 . S
C130 H115 0.930 1_554 S
C130 C125 1.390 . S
C130 C129 1.387 . S
H131 C143 0.930 . S
H132 C145 0.930 . S
H133 C146 0.930 . S
H134 C150 0.959 . S
H135 C150 0.959 . S
H136 C150 0.961 . S
H137 C151 0.960 . S
H138 C151 0.961 1_556 S
H139 C151 0.959 . S
H140 C154 0.929 1_554 S
H141 C155 0.931 . S
H142 C157 0.930 . S
C143 H131 0.930 . S
C143 C144 1.399 1_556 S
C143 C148 1.399 . S
C144 C143 1.399 1_554 S
C144 C145 1.376 . S
C145 H132 0.930 . S
C145 C144 1.376 . S
C145 C146 1.388 . S
C146 H133 0.930 . S
C146 C145 1.388 . S
C146 C147 1.383 1_554 S
C147 C146 1.383 1_556 S
C147 C148 1.399 . S
C147 C153 1.469 . S
C148 C143 1.399 . S
C148 C147 1.399 . S
C148 C149 1.516 . S
C149 C148 1.516 . S
C149 C150 1.502 . S
C149 C151 1.561 1_556 S
C149 C152 1.526 . S
C150 H134 0.959 . S
C150 H135 0.959 . S
C150 H136 0.961 . S
C150 C149 1.502 . S
C151 H137 0.960 . S
C151 H138 0.961 1_554 S
C151 H139 0.959 . S
C151 C149 1.561 1_554 S
C152 C149 1.526 . S
C152 C153 1.396 . S
C152 C157 1.390 . S
C153 C147 1.469 . S
C153 C152 1.396 . S
C153 C154 1.399 . S
C154 H140 0.929 1_556 S
C154 C153 1.399 . S
C154 C155 1.385 . S
C155 H141 0.931 . S
C155 C154 1.385 . S
C155 C156 1.389 . S
C156 C155 1.389 . S
C156 C157 1.387 . S
C157 H142 0.930 . S
C157 C152 1.390 . S
C157 C156 1.387 . S
H158 C170 0.930 . S
H159 C172 0.930 . S
H160 C173 0.930 . S
H161 C177 0.959 . S
H162 C177 0.959 . S
H163 C177 0.961 . S
H164 C178 0.960 . S
H165 C178 0.961 . S
H166 C178 0.959 . S
H167 C181 0.929 . S
H168 C182 0.931 . S
H169 C184 0.930 1_556 S
C170 H158 0.930 . S
C170 C171 1.399 1_556 S
C170 C175 1.399 1_556 S
C171 C170 1.399 1_554 S
C171 C172 1.376 . S
C172 H159 0.930 . S
C172 C171 1.376 . S
C172 C173 1.388 . S
C173 H160 0.930 . S
C173 C172 1.388 . S
C173 C174 1.390 . S
C174 C173 1.390 . S
C174 C175 1.394 . S
C174 C180 1.465 . S
C175 C170 1.399 1_554 S
C175 C174 1.394 . S
C175 C176 1.516 1_554 S
C176 C175 1.516 1_556 S
C176 C177 1.502 . S
C176 C178 1.561 . S
C176 C179 1.526 1_556 S
C177 H161 0.959 . S
C177 H162 0.959 . S
C177 H163 0.961 . S
C177 C176 1.502 . S
C178 H164 0.960 . S
C178 H165 0.961 . S
C178 H166 0.959 . S
C178 C176 1.561 . S
C179 C176 1.526 1_554 S
C179 C180 1.396 . S
C179 C184 1.390 . S
C180 C174 1.465 . S
C180 C179 1.396 . S
C180 C181 1.399 . S
C181 H167 0.929 . S
C181 C180 1.399 . S
C181 C182 1.385 . S
C182 H168 0.931 . S
C182 C181 1.385 . S
C182 C183 1.389 . S
C183 C182 1.389 . S
C183 C184 1.387 . S
C184 H169 0.930 1_554 S
C184 C179 1.390 . S
C184 C183 1.387 . S
H185 C197 0.930 . S
H186 C199 0.930 . S
H187 C200 0.930 . S
H188 C204 0.959 . S
H189 C204 0.959 . S
H190 C204 0.961 . S
H191 C205 0.960 . S
H192 C205 0.961 1_556 S
H193 C205 0.959 . S
H194 C208 0.929 1_554 S
H195 C209 0.931 . S
H196 C211 0.930 . S
C197 H185 0.930 . S
C197 C198 1.399 1_556 S
C197 C202 1.399 . S
C198 C197 1.399 1_554 S
C198 C199 1.376 . S
C199 H186 0.930 . S
C199 C198 1.376 . S
C199 C200 1.388 . S
C200 H187 0.930 . S
C200 C199 1.388 . S
C200 C201 1.391 . S
C201 C200 1.391 . S
C201 C202 1.393 1_554 S
C201 C207 1.465 1_554 S
C202 C197 1.399 . S
C202 C201 1.393 1_556 S
C202 C203 1.516 . S
C203 C202 1.516 . S
C203 C204 1.502 . S
C203 C205 1.561 1_556 S
C203 C206 1.526 . S
C204 H188 0.959 . S
C204 H189 0.959 . S
C204 H190 0.961 . S
C204 C203 1.502 . S
C205 H191 0.960 . S
C205 H192 0.961 1_554 S
C205 H193 0.959 . S
C205 C203 1.561 1_554 S
C206 C203 1.526 . S
C206 C207 1.396 . S
C206 C211 1.390 . S
C207 C201 1.465 1_556 S
C207 C206 1.396 . S
C207 C208 1.399 . S
C208 H194 0.929 1_556 S
C208 C207 1.399 . S
C208 C209 1.385 . S
C209 H195 0.931 . S
C209 C208 1.385 . S
C209 C210 1.389 . S
C210 C209 1.389 . S
C210 C211 1.387 . S
C211 H196 0.930 . S
C211 C206 1.390 . S
C211 C210 1.387 . S
H212 C224 0.930 . S
H213 C226 0.930 . S
H214 C227 0.930 . S
H215 C231 0.959 . S
H216 C231 0.959 . S
H217 C231 0.961 . S
H218 C232 0.960 . S
H219 C232 0.961 . S
H220 C232 0.959 . S
H221 C235 0.929 . S
H222 C236 0.931 1_455 S
H223 C238 0.930 . S
C224 H212 0.930 . S
C224 C225 1.399 . S
C224 C229 1.399 . S
C225 C224 1.399 . S
C225 C226 1.376 . S
C226 H213 0.930 . S
C226 C225 1.376 . S
C226 C227 1.388 . S
C227 H214 0.930 . S
C227 C226 1.388 . S
C227 C228 1.390 . S
C228 C227 1.390 . S
C228 C229 1.394 . S
C228 C234 1.465 . S
C229 C224 1.399 . S
C229 C228 1.394 . S
C229 C230 1.516 . S
C230 C229 1.516 . S
C230 C231 1.502 . S
C230 C232 1.561 . S
C230 C233 1.526 . S
C231 H215 0.959 . S
C231 H216 0.959 . S
C231 H217 0.961 . S
C231 C230 1.502 . S
C232 H218 0.960 . S
C232 H219 0.961 . S
C232 H220 0.959 . S
C232 C230 1.561 . S
C233 C230 1.526 . S
C233 C234 1.396 . S
C233 C238 1.390 . S
C234 C228 1.465 . S
C234 C233 1.396 . S
C234 C235 1.399 . S
C235 H221 0.929 . S
C235 C234 1.399 . S
C235 C236 1.385 . S
C236 H222 0.931 1_655 S
C236 C235 1.385 . S
C236 C237 1.389 . S
C237 C236 1.389 . S
C237 C238 1.387 . S
C238 H223 0.930 . S
C238 C233 1.390 . S
C238 C237 1.387 . S
H239 C251 0.930 . S
H240 C253 0.930 . S
H241 C254 0.930 . S
H242 C258 0.959 . S
H243 C258 0.959 . S
H244 C258 0.961 . S
H245 C259 0.960 . S
H246 C259 0.961 . S
H247 C259 0.959 . S
H248 C262 0.929 . S
H249 C263 0.931 . S
H250 C265 0.930 . S
C251 H239 0.930 . S
C251 C252 1.399 . S
C251 C256 1.399 . S
C252 C251 1.399 . S
C252 C253 1.376 . S
C253 H240 0.930 . S
C253 C252 1.376 . S
C253 C254 1.388 . S
C254 H241 0.930 . S
C254 C253 1.388 . S
C254 C255 1.390 . S
C255 C254 1.390 . S
C255 C256 1.394 . S
C255 C261 1.465 . S
C256 C251 1.399 . S
C256 C255 1.394 . S
C256 C257 1.516 . S
C257 C256 1.516 . S
C257 C258 1.502 . S
C257 C259 1.561 . S
C257 C260 1.526 . S
C258 H242 0.959 . S
C258 H243 0.959 . S
C258 H244 0.961 . S
C258 C257 1.502 . S
C259 H245 0.960 . S
C259 H246 0.961 . S
C259 H247 0.959 . S
C259 C257 1.561 . S
C260 C257 1.526 . S
C260 C261 1.396 . S
C260 C265 1.390 . S
C261 C255 1.465 . S
C261 C260 1.396 . S
C261 C262 1.399 . S
C262 H248 0.929 . S
C262 C261 1.399 . S
C262 C263 1.385 . S
C263 H249 0.931 . S
C263 C262 1.385 . S
C263 C264 1.389 . S
C264 C263 1.389 . S
C264 C265 1.387 . S
C265 H250 0.930 . S
C265 C260 1.390 . S
C265 C264 1.387 . S
H266 C278 0.930 . S
H267 C280 0.930 . S
H268 C281 0.930 . S
H269 C285 0.959 . S
H270 C285 0.959 . S
H271 C285 0.961 . S
H272 C286 0.960 . S
H273 C286 0.961 . S
H274 C286 0.959 . S
H275 C289 0.929 . S
H276 C290 0.931 . S
H277 C292 0.930 . S
C278 H266 0.930 . S
C278 C279 1.399 . S
C278 C283 1.399 . S
C279 C278 1.399 . S
C279 C280 1.376 . S
C280 H267 0.930 . S
C280 C279 1.376 . S
C280 C281 1.388 . S
C281 H268 0.930 . S
C281 C280 1.388 . S
C281 C282 1.390 . S
C282 C281 1.390 . S
C282 C283 1.394 . S
C282 C288 1.465 . S
C283 C278 1.399 . S
C283 C282 1.394 . S
C283 C284 1.516 . S
C284 C283 1.516 . S
C284 C285 1.502 . S
C284 C286 1.561 . S
C284 C287 1.526 . S
C285 H269 0.959 . S
C285 H270 0.959 . S
C285 H271 0.961 . S
C285 C284 1.502 . S
C286 H272 0.960 . S
C286 H273 0.961 . S
C286 H274 0.959 . S
C286 C284 1.561 . S
C287 C284 1.526 . S
C287 C288 1.396 . S
C287 C292 1.390 . S
C288 C282 1.465 . S
C288 C287 1.396 . S
C288 C289 1.399 . S
C289 H275 0.929 . S
C289 C288 1.399 . S
C289 C290 1.385 . S
C290 H276 0.931 . S
C290 C289 1.385 . S
C290 C291 1.389 . S
C291 C290 1.389 . S
C291 C292 1.387 . S
C292 H277 0.930 . S
C292 C287 1.390 . S
C292 C291 1.387 . S
H293 C305 0.930 . S
H294 C307 0.930 . S
H295 C308 0.930 . S
H296 C312 0.959 . S
H297 C312 0.959 . S
H298 C312 0.961 . S
H299 C313 0.960 . S
H300 C313 0.961 . S
H301 C313 0.959 . S
H302 C316 0.929 . S
H303 C317 0.931 . S
H304 C319 0.930 . S
C305 H293 0.930 . S
C305 C306 1.399 . S
C305 C310 1.399 . S
C306 C305 1.399 . S
C306 C307 1.376 . S
C307 H294 0.930 . S
C307 C306 1.376 . S
C307 C308 1.388 . S
C308 H295 0.930 . S
C308 C307 1.388 . S
C308 C309 1.390 . S
C309 C308 1.390 . S
C309 C310 1.394 . S
C309 C315 1.465 . S
C310 C305 1.399 . S
C310 C309 1.394 . S
C310 C311 1.516 . S
C311 C310 1.516 . S
C311 C312 1.502 . S
C311 C313 1.561 . S
C311 C314 1.526 . S
C312 H296 0.959 . S
C312 H297 0.959 . S
C312 H298 0.961 . S
C312 C311 1.502 . S
C313 H299 0.960 . S
C313 H300 0.961 . S
C313 H301 0.959 . S
C313 C311 1.561 . S
C314 C311 1.526 . S
C314 C315 1.396 . S
C314 C319 1.390 . S
C315 C309 1.465 . S
C315 C314 1.396 . S
C315 C316 1.399 . S
C316 H302 0.929 . S
C316 C315 1.399 . S
C316 C317 1.385 . S
C317 H303 0.931 . S
C317 C316 1.385 . S
C317 C318 1.389 . S
C318 C317 1.389 . S
C318 C319 1.387 . S
C319 H304 0.930 . S
C319 C314 1.390 . S
C319 C318 1.387 . S
H320 C332 0.930 . S
H321 C334 0.930 . S
H322 C335 0.930 . S
H323 C339 0.959 . S
H324 C339 0.959 . S
H325 C339 0.961 . S
H326 C340 0.960 . S
H327 C340 0.961 . S
H328 C340 0.959 . S
H329 C343 0.929 . S
H330 C344 0.931 . S
H331 C346 0.930 . S
C332 H320 0.930 . S
C332 C333 1.399 1_665 S
C332 C337 1.399 . S
C333 C332 1.399 1_445 S
C333 C334 1.376 . S
C334 H321 0.930 . S
C334 C333 1.376 . S
C334 C335 1.388 . S
C335 H322 0.930 . S
C335 C334 1.388 . S
C335 C336 1.390 . S
C336 C335 1.390 . S
C336 C337 1.394 1_445 S
C336 C342 1.465 . S
C337 C332 1.399 . S
C337 C336 1.394 1_665 S
C337 C338 1.516 . S
C338 C337 1.516 . S
C338 C339 1.502 . S
C338 C340 1.561 1_655 S
C338 C341 1.526 . S
C339 H323 0.959 . S
C339 H324 0.959 . S
C339 H325 0.961 . S
C339 C338 1.502 . S
C340 H326 0.960 . S
C340 H327 0.961 . S
C340 H328 0.959 . S
C340 C338 1.561 1_455 S
C341 C338 1.526 . S
C341 C342 1.396 1_665 S
C341 C346 1.390 . S
C342 C336 1.465 . S
C342 C341 1.396 1_445 S
C342 C343 1.399 . S
C343 H329 0.929 . S
C343 C342 1.399 . S
C343 C344 1.385 . S
C344 H330 0.931 . S
C344 C343 1.385 . S
C344 C345 1.389 . S
C345 C344 1.389 . S
C345 C346 1.387 1_445 S
C346 H331 0.930 . S
C346 C341 1.390 . S
C346 C345 1.387 1_665 S
H347 C359 0.930 1_655 S
H348 C361 0.930 . S
H349 C362 0.930 . S
H350 C366 0.959 . S
H351 C366 0.959 . S
H352 C366 0.961 . S
H353 C367 0.960 . S
H354 C367 0.961 . S
H355 C367 0.959 . S
H356 C370 0.929 . S
H357 C371 0.931 . S
H358 C373 0.930 1_655 S
C359 H347 0.930 1_455 S
C359 C360 1.399 . S
C359 C364 1.399 . S
C360 C359 1.399 . S
C360 C361 1.376 1_545 S
C361 H348 0.930 . S
C361 C360 1.376 1_565 S
C361 C362 1.388 . S
C362 H349 0.930 . S
C362 C361 1.388 . S
C362 C363 1.390 . S
C363 C362 1.390 . S
C363 C364 1.394 1_565 S
C363 C369 1.465 . S
C364 C359 1.399 . S
C364 C363 1.394 1_545 S
C364 C365 1.516 . S
C365 C364 1.516 . S
C365 C366 1.502 1_455 S
C365 C367 1.561 . S
C365 C368 1.526 . S
C366 H350 0.959 . S
C366 H351 0.959 . S
C366 H352 0.961 . S
C366 C365 1.502 1_655 S
C367 H353 0.960 . S
C367 H354 0.961 . S
C367 H355 0.959 . S
C367 C365 1.561 . S
C368 C365 1.526 . S
C368 C369 1.396 1_545 S
C368 C373 1.390 . S
C369 C363 1.465 . S
C369 C368 1.396 1_565 S
C369 C370 1.399 . S
C370 H356 0.929 . S
C370 C369 1.399 . S
C370 C371 1.385 . S
C371 H357 0.931 . S
C371 C370 1.385 . S
C371 C372 1.389 1_565 S
C372 C371 1.389 1_545 S
C372 C373 1.387 . S
C373 H358 0.930 1_455 S
C373 C368 1.390 . S
C373 C372 1.387 . S
H374 C386 0.930 . S
H375 C388 0.930 . S
H376 C389 0.930 . S
H377 C393 0.959 . S
H378 C393 0.959 . S
H379 C393 0.961 . S
H380 C394 0.960 . S
H381 C394 0.961 . S
H382 C394 0.959 . S
H383 C397 0.929 . S
H384 C398 0.931 . S
H385 C400 0.930 . S
C386 H374 0.930 . S
C386 C387 1.399 . S
C386 C391 1.399 . S
C387 C386 1.399 . S
C387 C388 1.376 . S
C388 H375 0.930 . S
C388 C387 1.376 . S
C388 C389 1.388 . S
C389 H376 0.930 . S
C389 C388 1.388 . S
C389 C390 1.390 . S
C390 C389 1.390 . S
C390 C391 1.394 . S
C390 C396 1.465 . S
C391 C386 1.399 . S
C391 C390 1.394 . S
C391 C392 1.516 . S
C392 C391 1.516 . S
C392 C393 1.502 . S
C392 C394 1.561 . S
C392 C395 1.526 . S
C393 H377 0.959 . S
C393 H378 0.959 . S
C393 H379 0.961 . S
C393 C392 1.502 . S
C394 H380 0.960 . S
C394 H381 0.961 . S
C394 H382 0.959 . S
C394 C392 1.561 . S
C395 C392 1.526 . S
C395 C396 1.396 . S
C395 C400 1.390 . S
C396 C390 1.465 . S
C396 C395 1.396 . S
C396 C397 1.399 . S
C397 H383 0.929 . S
C397 C396 1.399 . S
C397 C398 1.385 . S
C398 H384 0.931 . S
C398 C397 1.385 . S
C398 C399 1.389 . S
C399 C398 1.389 . S
C399 C400 1.387 . S
C400 H385 0.930 . S
C400 C395 1.390 . S
C400 C399 1.387 . S
H401 C413 0.930 . S
H402 C415 0.930 . S
H403 C416 0.930 . S
H404 C420 0.959 . S
H405 C420 0.959 . S
H406 C420 0.961 . S
H407 C421 0.960 . S
H408 C421 0.961 . S
H409 C421 0.959 . S
H410 C424 0.929 . S
H411 C425 0.931 . S
H412 C427 0.930 . S
C413 H401 0.930 . S
C413 C414 1.399 . S
C413 C418 1.399 . S
C414 C413 1.399 . S
C414 C415 1.376 . S
C415 H402 0.930 . S
C415 C414 1.376 . S
C415 C416 1.388 . S
C416 H403 0.930 . S
C416 C415 1.388 . S
C416 C417 1.390 . S
C417 C416 1.390 . S
C417 C418 1.394 . S
C417 C423 1.465 . S
C418 C413 1.399 . S
C418 C417 1.394 . S
C418 C419 1.516 . S
C419 C418 1.516 . S
C419 C420 1.502 . S
C419 C421 1.561 . S
C419 C422 1.526 . S
C420 H404 0.959 . S
C420 H405 0.959 . S
C420 H406 0.961 . S
C420 C419 1.502 . S
C421 H407 0.960 . S
C421 H408 0.961 . S
C421 H409 0.959 . S
C421 C419 1.561 . S
C422 C419 1.526 . S
C422 C423 1.396 . S
C422 C427 1.390 . S
C423 C417 1.465 . S
C423 C422 1.396 . S
C423 C424 1.399 . S
C424 H410 0.929 . S
C424 C423 1.399 . S
C424 C425 1.385 . S
C425 H411 0.931 . S
C425 C424 1.385 . S
C425 C426 1.389 . S
C426 C425 1.389 . S
C426 C427 1.387 . S
C427 H412 0.930 . S
C427 C422 1.390 . S
C427 C426 1.387 . S
C129 C99 1.324 . S
C117 C29 1.351 . S
C144 C8 1.381 . S
C156 C90 1.369 . S
C171 C0 1.356 . S
C183 C102 1.326 . S
C198 C17 1.380 . S
C210 C93 1.360 . S
C225 C63 1.354 . S
C237 C81 1.348 . S
C252 C42 1.365 . S
C264 C72 1.333 . S
C291 C84 1.375 . S
C279 C34 1.376 . S
C318 C75 1.375 . S
C306 C51 1.366 . S
C333 C4 1.475 . S
C345 C73 1.485 1_445 S
C360 C13 1.480 . S
C372 C82 1.486 . S
C399 C91 1.483 . S
C387 C38 1.490 . S
C414 C47 1.481 . S
C426 C100 1.481 . S
