# Generated by pormake.
# Topology anh, (6,3)-cn, num edge types: 1
# Building blocks:
#     Node 0, Type 0, BuildingBlock: PAMTOO_clean_sbu_0, # of connection points: 6
#     Node 1, Type 0, BuildingBlock: PAMTOO_clean_sbu_0, # of connection points: 6
#     Node 2, Type 0, BuildingBlock: PAMTOO_clean_sbu_0, # of connection points: 6
#     Node 3, Type 1, BuildingBlock: PAMTOO_clean_linker_0, # of connection points: 3
#     Node 4, Type 1, BuildingBlock: PAMTOO_clean_linker_0, # of connection points: 3
#     Node 5, Type 1, BuildingBlock: PAMTOO_clean_linker_0, # of connection points: 3
#     Node 6, Type 1, BuildingBlock: PAMTOO_clean_linker_0, # of connection points: 3
#     Node 7, Type 1, BuildingBlock: PAMTOO_clean_linker_0, # of connection points: 3
#     Node 8, Type 1, BuildingBlock: PAMTOO_clean_linker_0, # of connection points: 3
#     Edge 9, Type (0, 1), BuildingBlock: OJICUG_clean_linker_0, # of connection points: 2
#     Edge 10, Type (0, 1), BuildingBlock: OJICUG_clean_linker_0, # of connection points: 2
#     Edge 11, Type (0, 1), BuildingBlock: OJICUG_clean_linker_0, # of connection points: 2
#     Edge 12, Type (0, 1), BuildingBlock: OJICUG_clean_linker_0, # of connection points: 2
#     Edge 13, Type (0, 1), BuildingBlock: OJICUG_clean_linker_0, # of connection points: 2
#     Edge 14, Type (0, 1), BuildingBlock: OJICUG_clean_linker_0, # of connection points: 2
#     Edge 15, Type (0, 1), BuildingBlock: OJICUG_clean_linker_0, # of connection points: 2
#     Edge 16, Type (0, 1), BuildingBlock: OJICUG_clean_linker_0, # of connection points: 2
#     Edge 17, Type (0, 1), BuildingBlock: OJICUG_clean_linker_0, # of connection points: 2
#     Edge 18, Type (0, 1), BuildingBlock: OJICUG_clean_linker_0, # of connection points: 2
#     Edge 19, Type (0, 1), BuildingBlock: OJICUG_clean_linker_0, # of connection points: 2
#     Edge 20, Type (0, 1), BuildingBlock: OJICUG_clean_linker_0, # of connection points: 2
#     Edge 21, Type (0, 1), BuildingBlock: OJICUG_clean_linker_0, # of connection points: 2
#     Edge 22, Type (0, 1), BuildingBlock: OJICUG_clean_linker_0, # of connection points: 2
#     Edge 23, Type (0, 1), BuildingBlock: OJICUG_clean_linker_0, # of connection points: 2
#     Edge 24, Type (0, 1), BuildingBlock: OJICUG_clean_linker_0, # of connection points: 2
#     Edge 25, Type (0, 1), BuildingBlock: OJICUG_clean_linker_0, # of connection points: 2
#     Edge 26, Type (0, 1), BuildingBlock: OJICUG_clean_linker_0, # of connection points: 2
# Relax obj value: 0.230
# Max RMSD: 0.179
# Mean RMSD: 0.127
data_MOF--net-anh--node1-PAMTOO_clean_sbu_0--node2-PAMTOO_clean_linker_0--edge1-OJICUG_clean_linker_0
_symmetry_space_group_name_H-M    P1
_symmetry_Int_Tables_number       1
_symmetry_cell_setting            triclinic
loop_
_symmetry_equiv_pos_as_xyz
'x, y, z'
_cell_length_a     21.590644
_cell_length_b     21.191405
_cell_length_c     36.538047
_cell_angle_alpha  88.50365
_cell_angle_beta   94.387962
_cell_angle_gamma 93.839613
loop_
_atom_site_label
_atom_site_type_symbol
_atom_site_fract_x
_atom_site_fract_y
_atom_site_fract_z
_atom_type_partial_charge
Dy0 Dy 0.22308 0.60834 0.12623 0.0
Dy1 Dy 0.21154 0.45829 0.14784 0.0
C2 C 0.20818 0.50269 0.06684 0.0
O3 O 1.12118 0.58108 0.11416 0.0
O4 O 1.11357 0.49124 0.15055 0.0
O5 O 0.23091 0.6857 0.08654 0.0
O6 O 0.22799 0.70477 0.14416 0.0
O7 O 0.25143 0.50928 0.19713 0.0
O8 O 0.1987 0.59698 0.18475 0.0
O9 O 0.31268 0.4776 0.13405 0.0
O10 O 0.3213 0.58489 0.14292 0.0
O11 O 0.19353 0.385 0.18828 0.0
O12 O 0.21435 0.36005 0.13358 0.0
C13 C 1.08701 0.5367 0.13076 0.0
O14 O 0.24337 0.55267 0.07744 0.0
O15 O 0.17544 0.4702 0.09012 0.0
C16 C 0.2903 0.77537 0.1105 0.0
C17 C 0.39335 0.86437 0.11781 0.0
C18 C 0.40197 0.80017 0.11218 0.0
C19 C 0.35083 0.75603 0.10864 0.0
C20 C 0.28132 0.83947 0.11498 0.0
C21 C 0.33235 0.88365 0.11854 0.0
C22 C 0.23702 0.72867 0.1117 0.0
C23 C 0.22608 0.55858 0.20855 0.0
C24 C 0.34728 0.53145 0.13803 0.0
C25 C 0.13878 0.29578 0.16308 0.0
C26 C 1.02884 0.21768 0.16919 0.0
C27 C 1.0264 0.27892 0.15347 0.0
C28 C 1.08088 0.31748 0.15036 0.0
C29 C 0.14197 0.234 0.17729 0.0
C30 C 1.08748 0.1951 0.18017 0.0
C31 C 0.19451 0.33962 0.16492 0.0
H32 H 0.44831 0.78363 0.11187 0.0
H33 H 0.35859 0.70657 0.10549 0.0
H34 H 0.23488 0.85513 0.1167 0.0
H35 H 0.32408 0.93282 0.12232 0.0
H36 H 0.98225 0.29836 0.14515 0.0
H37 H 1.07761 0.36519 0.13936 0.0
H38 H 0.18634 0.21653 0.18722 0.0
H39 H 1.09122 0.14786 0.19179 0.0
Dy40 Dy 0.60477 0.10594 0.47889 0.0
Dy41 Dy 0.75698 0.11628 0.48612 0.0
C42 C 0.68145 0.10443 0.55578 0.0
O43 O 0.63118 0.20668 0.46512 0.0
O44 O 0.728 0.21429 0.49572 0.0
O45 O 0.51839 0.09335 0.50487 0.0
O46 O 0.51717 0.11009 0.44617 0.0
O47 O 0.72518 0.1425 0.42865 0.0
O48 O 0.63794 0.07597 0.42579 0.0
O49 O 0.73196 1.01273 0.4769 0.0
O50 O 0.63018 1.00731 0.49214 0.0
O51 O 0.84523 0.10327 0.46415 0.0
O52 O 0.84238 0.14268 0.5181 0.0
C53 C 0.67919 0.24083 0.47984 0.0
O54 O 0.63759 0.13334 0.53646 0.0
O55 O 0.72525 0.07929 0.53935 0.0
C56 C 0.43861 0.04045 0.46842 0.0
C57 C 0.35064 0.93656 0.46198 0.0
C58 C 0.41448 0.92703 0.46763 0.0
C59 C 0.4581 0.97858 0.47065 0.0
C60 C 0.37514 0.05034 0.4622 0.0
C61 C 0.33136 0.99869 0.45882 0.0
C62 C 0.48431 0.09433 0.47387 0.0
C63 C 0.68238 0.10812 0.40945 0.0
C64 C 0.68065 0.97981 0.48508 0.0
C65 C 0.92305 0.18369 0.48215 0.0
C66 C 1.00501 0.2871 0.4638 0.0
C67 C 0.98302 0.24246 0.43729 0.0
C68 C 0.94251 0.19125 0.44636 0.0
C69 C 0.94692 0.22707 0.50898 0.0
C70 C 0.98719 0.27842 0.49985 0.0
C71 C 0.87703 0.13197 0.49147 0.0
H72 H 0.43068 0.87968 0.46963 0.0
H73 H 0.50703 0.97022 0.47514 0.0
H74 H 0.35942 0.09789 0.46044 0.0
H75 H 0.2824 1.00727 0.4546 0.0
H76 H 0.99562 0.24813 0.4092 0.0
H77 H 0.92554 0.15836 0.42512 0.0
H78 H 0.93366 0.22197 0.53696 0.0
H79 H 1.00421 0.31151 0.52098 0.0
Dy80 Dy 0.76284 0.62449 0.80402 0.0
Dy81 Dy 0.61222 0.60845 0.80885 0.0
C82 C 0.67359 0.6307 0.73386 0.0
O83 O 0.73751 0.72226 0.81693 0.0
O84 O 0.63273 0.71228 0.79882 0.0
O85 O 0.83414 0.61836 0.76638 0.0
O86 O 0.85949 0.64338 0.82293 0.0
O87 O 0.64954 0.61178 0.8677 0.0
O88 O 0.75421 0.59942 0.86322 0.0
O89 O 0.64639 0.51482 0.82591 0.0
O90 O 0.73296 0.52177 0.79374 0.0
O91 O 0.52537 0.56687 0.78453 0.0
O92 O 0.52582 0.62637 0.83184 0.0
C93 C 0.68405 0.74747 0.80788 0.0
O94 O 0.71703 0.66371 0.753 0.0
O95 O 0.63432 0.59268 0.75078 0.0
C96 C 0.92383 0.57741 0.79398 0.0
C97 C 1.00746 0.4807 0.79649 0.0
C98 C 1.01669 0.53469 0.77378 0.0
C99 C 0.97514 0.58271 0.77258 0.0
C100 C 0.91301 0.5227 0.81551 0.0
C101 C 0.95457 0.47502 0.81694 0.0
C102 C 0.87922 0.62671 0.79188 0.0
C103 C 0.70567 0.6023 0.88263 0.0
C104 C 0.69023 0.48766 0.81066 0.0
C105 C 0.46268 0.53133 0.83061 0.0
C106 C 0.41314 0.41566 0.85901 0.0
C107 C 0.4715 0.44157 0.87293 0.0
C108 C 0.49607 0.49881 0.8588 0.0
C109 C 0.40349 0.50694 0.81751 0.0
C110 C 0.37872 0.44957 0.83171 0.0
C111 C 0.49413 0.58424 0.81125 0.0
H112 H 1.05655 0.54032 0.75744 0.0
H113 H 0.9832 0.6241 0.75512 0.0
H114 H 0.87279 0.51724 0.83162 0.0
H115 H 0.94641 0.43495 0.83534 0.0
H116 H 0.49941 0.41635 0.89363 0.0
H117 H 0.54242 0.51628 0.8688 0.0
H118 H 0.37751 0.53101 0.79542 0.0
H119 H 0.33316 0.43116 0.82088 0.0
H120 H 0.81318 0.12612 0.26318 0.0
H121 H 0.63144 0.03359 0.23823 0.0
H122 H 0.76099 0.05567 0.15501 0.0
H123 H 0.63041 0.05527 0.12144 0.0
C124 C 0.60829 0.04083 0.14713 0.0
O125 O 0.65036 1.01023 0.17046 0.0
H126 H 0.59441 0.08456 0.15977 0.0
C127 C 0.77911 0.10264 0.24396 0.0
C128 C 0.79428 0.09449 0.20769 0.0
C129 C 0.72057 0.08104 0.25564 0.0
C130 C 0.6771 0.05031 0.23029 0.0
C131 C 0.69191 0.04139 0.1942 0.0
C132 C 0.75018 0.0634 0.18295 0.0
H133 H 0.67004 0.74669 0.5745 0.0
H134 H 0.69169 0.54695 0.5679 0.0
H135 H 0.69908 0.66593 0.47088 0.0
H136 H 0.64111 0.53192 0.45327 0.0
C137 C 0.65246 0.51256 0.48139 0.0
O138 O 0.7028 0.54855 0.49726 0.0
H139 H 0.61086 0.51551 0.49737 0.0
C140 C 0.67744 0.70578 0.55853 0.0
C141 C 0.68426 0.71365 0.52083 0.0
C142 C 0.68067 0.64622 0.57598 0.0
C143 C 0.68909 0.59338 0.55495 0.0
C144 C 0.69546 0.6003 0.5171 0.0
C145 C 0.69397 0.66067 0.50008 0.0
H146 H 0.17191 0.42434 0.9021 0.0
H147 H 0.24744 0.2747 0.96928 0.0
H148 H 0.1856 0.24119 0.85621 0.0
H149 H 0.29938 0.13874 0.8912 0.0
C150 C 0.30123 0.17784 0.911 0.0
O151 O 0.24067 0.19244 0.91625 0.0
H152 H 0.32314 0.15996 0.93743 0.0
C153 C 0.18644 0.37627 0.90479 0.0
C154 C 0.17708 0.33599 0.8748 0.0
C155 C 0.2109 0.35457 0.93887 0.0
C156 C 0.22797 0.29199 0.94299 0.0
C157 C 0.21971 0.25139 0.913 0.0
C158 C 0.19292 0.27298 0.87911 0.0
H159 H 0.14445 0.4753 0.35969 0.0
H160 H 0.23105 0.66254 0.37475 0.0
H161 H 0.1562 0.56054 0.46603 0.0
H162 H 0.15437 0.70574 0.47625 0.0
C163 C 0.17822 0.71516 0.45059 0.0
O164 O 0.21412 0.66543 0.44477 0.0
H165 H 0.14172 0.72046 0.42763 0.0
C166 C 0.15925 0.51442 0.37754 0.0
C167 C 0.14636 0.51072 0.41467 0.0
C168 C 0.18972 0.56885 0.36284 0.0
C169 C 0.20689 0.62041 0.38553 0.0
C170 C 0.19456 0.61707 0.42261 0.0
C171 C 0.16447 0.56255 0.43714 0.0
H172 H 0.67751 0.9804 0.71385 0.0
H173 H 0.70103 0.18266 0.72404 0.0
H174 H 0.70359 0.0628 0.82088 0.0
H175 H 0.64651 0.19138 0.83258 0.0
C176 C 0.66028 0.21241 0.80597 0.0
O177 O 0.71031 0.18138 0.79552 0.0
H178 H 0.61963 0.20569 0.78544 0.0
C179 C 0.68463 1.02182 0.73088 0.0
C180 C 0.68986 1.01399 0.76924 0.0
C181 C 0.68895 0.08225 0.71422 0.0
C182 C 0.69748 0.13565 0.73642 0.0
C183 C 0.70253 0.12888 0.77476 0.0
C184 C 0.6995 0.06794 0.79123 0.0
H185 H 0.84329 0.55554 0.03911 0.0
H186 H 0.64563 0.54268 0.05086 0.0
H187 H 0.77334 0.50916 0.14432 0.0
H188 H 0.63787 0.60033 0.12996 0.0
C189 C 0.62242 0.55124 0.13845 0.0
O190 O 0.65238 0.50795 0.11911 0.0
H191 H 0.63737 0.54581 0.16806 0.0
C192 C 0.80434 0.54861 0.05608 0.0
C193 C 0.81679 0.53505 0.09378 0.0
C194 C 0.74321 0.55185 0.03987 0.0
C195 C 0.69317 0.53971 0.06221 0.0
C196 C 0.70315 0.52348 0.09953 0.0
C197 C 0.76532 0.521 0.11541 0.0
C198 C 0.45194 0.59288 0.13852 0.0
C199 C 0.41736 0.53404 0.13652 0.0
H200 H 0.54123 0.64376 0.13999 0.0
C201 C 0.45088 0.47968 0.13307 0.0
H202 H 0.42891 0.63609 0.14141 0.0
C203 C 0.51671 0.48433 0.13231 0.0
C204 C 0.55076 0.5436 0.13418 0.0
H205 H 0.42643 0.43341 0.13154 0.0
H206 H 0.541 0.44151 0.13082 0.0
C207 C 0.51697 0.59747 0.13744 0.0
C208 C 1.09268 0.33869 0.43028 0.0
C209 C 1.04432 0.34382 0.45342 0.0
H210 H 0.16387 0.38716 0.40067 0.0
C211 C 1.03196 0.40393 0.46535 0.0
H212 H 1.10391 0.29289 0.42113 0.0
C213 C 1.06602 0.45799 0.45348 0.0
C214 C 1.11327 0.45305 0.4295 0.0
H215 H 0.99448 0.40942 0.48286 0.0
H216 H 1.05389 0.5038 0.46211 0.0
C217 C 1.1269 0.39269 0.41854 0.0
C218 C 0.73514 0.85818 0.81395 0.0
C219 C 0.68286 0.81757 0.80325 0.0
H220 H 0.77783 0.95293 0.81227 0.0
C221 C 0.6306 0.84422 0.78512 0.0
H222 H 0.77615 0.83945 0.82802 0.0
C223 C 0.63193 0.90877 0.77595 0.0
C224 C 0.68506 0.9487 0.78517 0.0
H225 H 0.58944 0.81478 0.77641 0.0
H226 H 0.59208 0.92721 0.7604 0.0
C227 C 0.73606 0.92322 0.80518 0.0
C228 C 0.97617 0.48724 0.1373 0.0
C229 C 1.01682 0.53755 0.12545 0.0
H230 H 0.88143 0.44676 0.13724 0.0
C231 C 0.98957 0.58885 0.10665 0.0
H232 H 0.9949 0.44685 0.15195 0.0
C233 C 0.92492 0.58891 0.09857 0.0
C234 C 0.88432 0.53766 0.10879 0.0
H235 H 1.0184 0.62895 0.0973 0.0
H236 H 0.90665 0.62886 0.0832 0.0
C237 C 0.91082 0.48733 0.12911 0.0
C238 C 0.30925 0.83156 0.48572 0.0
C239 C 0.30453 0.88161 0.45986 0.0
H240 H 0.2721 0.74028 0.50315 0.0
C241 C 0.2564 0.87811 0.43169 0.0
H242 H 0.3455 0.83339 0.50794 0.0
C243 C 0.21473 0.82474 0.4289 0.0
C244 C 0.22007 0.77448 0.45452 0.0
H245 H 0.25203 0.91588 0.41129 0.0
H246 H 0.1789 0.82238 0.40646 0.0
C247 C 0.26721 0.77862 0.48315 0.0
C248 C 0.72218 0.38388 0.78758 0.0
C249 C 0.6884 0.41723 0.81133 0.0
H250 H 0.73968 0.2932 0.7668 0.0
C251 C 0.64914 0.38249 0.83467 0.0
H252 H 0.75237 0.40913 0.76902 0.0
C253 C 0.64265 0.31647 0.83374 0.0
C254 C 0.6753 0.28304 0.80961 0.0
H255 H 0.62227 0.40634 0.85331 0.0
H256 H 0.61062 0.29146 0.85135 0.0
C257 C 0.71509 0.31746 0.7864 0.0
C258 C 0.62622 0.87517 0.49989 0.0
C259 C 0.67988 0.90962 0.48881 0.0
H260 H 0.58563 0.78592 0.51802 0.0
C261 C 0.7329 0.87653 0.48359 0.0
H262 H 0.58434 0.89854 0.50408 0.0
C263 C 0.73313 0.81121 0.49128 0.0
C264 C 0.68048 0.77809 0.5044 0.0
H265 H 0.77493 0.90141 0.47493 0.0
H266 H 0.77547 0.78737 0.489 0.0
C267 C 0.62665 0.81039 0.50772 0.0
C268 C 1.11919 0.45715 0.80831 0.0
C269 C 1.05639 0.43481 0.80326 0.0
H270 H 0.20892 0.44061 0.83433 0.0
C271 C 1.04022 0.37098 0.81195 0.0
H272 H 1.13366 0.50578 0.80176 0.0
C273 C 1.08356 0.33383 0.83104 0.0
C274 C 0.14351 0.36006 0.84123 0.0
H275 H 0.99263 0.35168 0.80722 0.0
H276 H 1.06797 0.28768 0.84157 0.0
C277 C 0.16255 0.41978 0.82698 0.0
C278 C 0.50018 0.90914 0.10398 0.0
C279 C 0.44774 0.91056 0.12447 0.0
H280 H 0.59181 0.94957 0.09505 0.0
C281 C 0.4482 0.9555 0.1522 0.0
H282 H 0.50121 0.87528 0.08237 0.0
C283 C 0.49986 0.99792 0.15928 0.0
C284 C 0.5518 0.99681 0.13853 0.0
H285 H 0.40913 0.95702 0.16899 0.0
H286 H 0.49943 0.03142 0.18114 0.0
C287 C 0.55177 0.95179 0.11101 0.0
C288 C 0.71573 0.34924 0.50309 0.0
C289 C 0.67668 0.3108 0.47899 0.0
H290 H 0.73868 0.44279 0.5234 0.0
C291 C 0.63267 0.33963 0.45481 0.0
H292 H 0.74974 0.32848 0.52228 0.0
C293 C 0.62707 0.40492 0.45505 0.0
C294 C 0.66521 0.44334 0.47942 0.0
H295 H 0.60185 0.31163 0.43584 0.0
H296 H 0.59181 0.42541 0.43658 0.0
C297 C 0.70952 0.41478 0.50365 0.0
C298 C 0.39544 0.33567 0.90957 0.0
C299 C 0.38938 0.35246 0.87205 0.0
H300 H 0.37337 0.26632 0.95112 0.0
C301 C 0.36059 0.30838 0.847 0.0
H302 H 0.41691 0.36882 0.92956 0.0
C303 C 0.33623 0.24969 0.85937 0.0
C304 C 0.34027 0.23401 0.89697 0.0
H305 H 0.35618 0.31956 0.81786 0.0
H306 H 0.31161 0.21767 0.8398 0.0
C307 C 0.37109 0.27694 0.92191 0.0
C308 C 0.91668 0.18181 0.15251 0.0
C309 C 0.97031 0.17999 0.17687 0.0
H310 H 0.8191 0.15666 0.14315 0.0
C311 C 0.96639 0.14547 0.21011 0.0
H312 H 0.91816 0.20716 0.12644 0.0
C313 C 0.90989 0.11571 0.21939 0.0
C314 C 0.85566 0.12002 0.19583 0.0
H315 H 1.00639 0.14345 0.22977 0.0
H316 H 0.90846 0.09032 0.24546 0.0
C317 C 0.86 0.15222 0.1619 0.0
C318 C 0.15542 0.45621 0.01086 0.0
C319 C 0.21121 0.47537 0.03077 0.0
H320 H 1.1122 0.40282 0.96587 0.0
C321 C 0.26793 0.45639 0.01977 0.0
H322 H 1.11119 0.46942 0.01945 0.0
C323 C 0.26837 0.41645 -0.01016 0.0
C324 C 0.21218 0.39635 0.97047 0.0
H325 H 0.31127 0.46945 0.03551 0.0
H326 H 0.31218 0.40081 -0.01796 0.0
C327 C 0.15596 0.41767 -0.01934 0.0
C328 C 0.66097 0.05001 0.35042 0.0
C329 C 0.68695 0.10332 0.36948 0.0
H330 H 0.6525 1.00016 0.2999 0.0
C331 C 0.72044 0.15092 0.35039 0.0
H332 H 0.63516 1.01242 0.36452 0.0
C333 C 0.72918 0.14472 0.31323 0.0
C334 C 0.70586 0.09005 0.29435 0.0
H335 H 0.74031 0.19298 0.36425 0.0
H336 H 0.75481 0.18275 0.29942 0.0
C337 C 0.67072 0.04318 0.31331 0.0
C338 C 0.63723 0.59028 0.67106 0.0
C339 C 0.67253 0.63465 0.69336 0.0
H340 H 0.61248 0.55868 0.6161 0.0
C341 C 0.71021 0.68204 0.67672 0.0
H342 H 0.60811 0.55296 0.68314 0.0
C343 C 0.71284 0.68508 0.63879 0.0
C344 C 0.6779 0.64085 0.61637 0.0
H345 H 0.73819 0.7169 0.69303 0.0
H346 H 0.74294 0.72189 0.62698 0.0
C347 C 0.64017 0.59316 0.63281 0.0
C348 C 0.72075 0.05676 0.61552 0.0
C349 C 0.6823 0.09936 0.59628 0.0
H350 H 0.75294 1.01829 0.66768 0.0
C351 C 0.64589 0.13683 0.61615 0.0
H352 H 0.74935 1.02709 0.60109 0.0
C353 C 0.64838 0.13198 0.65457 0.0
C354 C 0.68656 0.08892 0.67364 0.0
H355 H 0.61596 0.1702 0.60209 0.0
H356 H 0.61985 0.16122 0.66933 0.0
C357 C 0.72263 0.05142 0.65369 0.0
C358 C 0.66896 0.55525 0.94132 0.0
C359 C 0.71395 0.59171 0.92283 0.0
H360 H 0.64377 0.5115 -0.00817 0.0
C361 C 0.76759 0.61653 0.94291 0.0
H362 H 0.6274 0.53497 0.92636 0.0
C363 C 0.77604 0.60537 -0.01916 0.0
C364 C 0.73213 0.567 -0.00045 0.0
H365 H 0.80269 0.64539 0.92933 0.0
H366 H 0.81717 0.62725 -0.00465 0.0
C367 C 0.6783 0.54225 0.97907 0.0
C368 C 0.24233 0.51741 0.27286 0.0
C369 C 0.22225 0.56559 0.24847 0.0
H370 H 0.24777 0.48107 0.32808 0.0
C371 C 0.19529 0.61762 0.26249 0.0
H372 H 0.26352 0.47673 0.26311 0.0
C373 C 0.18674 0.62018 0.30004 0.0
C374 C 0.2043 0.57038 0.32393 0.0
H375 H 0.17953 0.65554 0.2444 0.0
H376 H 0.1643 0.65977 0.31016 0.0
C377 C 0.23315 0.51965 0.3101 0.0
loop_
_geom_bond_atom_site_label_1
_geom_bond_atom_site_label_2
_geom_bond_distance
_geom_bond_site_symmetry_2
_ccdc_geom_bond_type
Dy0 O3 2.307 1_455 S
Dy0 O5 2.395 . S
Dy0 O6 2.379 . S
Dy0 O8 2.339 . S
Dy0 O10 2.298 . S
Dy0 O14 2.275 . S
Dy0 C22 2.738 . S
Dy1 O4 2.298 . S
Dy1 O7 2.275 1_655 S
Dy1 O9 2.307 1_655 S
Dy1 O11 2.395 . S
Dy1 O12 2.379 . S
Dy1 O15 2.339 . S
Dy1 C31 2.738 . S
C2 O14 1.254 . S
C2 O15 1.257 1_455 S
O3 Dy0 2.307 1_655 S
O3 C13 1.266 . S
O4 Dy1 2.298 . S
O4 C13 1.236 . S
O5 Dy0 2.395 . S
O5 C22 1.255 . S
O6 Dy0 2.379 . S
O6 C22 1.249 . S
O7 Dy1 2.275 1_455 S
O7 C23 1.254 . S
O8 Dy0 2.339 . S
O8 C23 1.257 . S
O9 Dy1 2.307 1_455 S
O9 C24 1.266 . S
O10 Dy0 2.298 . S
O10 C24 1.236 . S
O11 Dy1 2.395 . S
O11 C31 1.255 . S
O12 Dy1 2.379 . S
O12 C31 1.249 . S
C13 O3 1.266 . S
C13 O4 1.236 . S
O14 Dy0 2.275 . S
O14 C2 1.254 . S
O15 Dy1 2.339 . S
O15 C2 1.257 1_655 S
C16 C19 1.344 . S
C16 C20 1.328 . S
C16 C22 1.516 . S
C17 C18 1.304 . S
C17 C21 1.323 . S
C18 C17 1.304 . S
C18 C19 1.371 . S
C18 H32 0.930 . S
C19 C16 1.344 . S
C19 C18 1.371 . S
C19 H33 0.931 . S
C20 C16 1.328 . S
C20 C21 1.433 . S
C20 H34 0.931 . S
C21 C17 1.323 . S
C21 C20 1.433 . S
C21 H35 0.933 . S
C22 Dy0 2.738 . S
C22 O5 1.255 . S
C22 O6 1.249 . S
C22 C16 1.516 . S
C23 O7 1.254 . S
C23 O8 1.257 . S
C24 O9 1.266 . S
C24 O10 1.236 . S
C25 C28 1.344 . S
C25 C29 1.328 . S
C25 C31 1.516 . S
C26 C27 1.304 . S
C26 C30 1.323 . S
C27 C26 1.304 . S
C27 C28 1.371 . S
C27 H36 0.930 . S
C28 C25 1.344 . S
C28 C27 1.371 . S
C28 H37 0.931 . S
C29 C25 1.328 . S
C29 C30 1.433 . S
C29 H38 0.931 . S
C30 C26 1.323 . S
C30 C29 1.433 . S
C30 H39 0.933 . S
C31 Dy1 2.738 . S
C31 O11 1.255 . S
C31 O12 1.249 . S
C31 C25 1.516 . S
H32 C18 0.930 . S
H33 C19 0.931 . S
H34 C20 0.931 . S
H35 C21 0.933 . S
H36 C27 0.930 . S
H37 C28 0.931 . S
H38 C29 0.931 . S
H39 C30 0.933 . S
Dy40 O43 2.307 1_565 S
Dy40 O45 2.395 . S
Dy40 O46 2.379 . S
Dy40 O48 2.339 1_565 S
Dy40 O50 2.298 . S
Dy40 O54 2.275 1_565 S
Dy40 C62 2.738 . S
Dy41 O44 2.298 . S
Dy41 O47 2.275 . S
Dy41 O49 2.307 1_545 S
Dy41 O51 2.395 . S
Dy41 O52 2.379 . S
Dy41 O55 2.339 . S
Dy41 C71 2.738 . S
C42 O54 1.254 . S
C42 O55 1.257 . S
O43 Dy40 2.307 1_545 S
O43 C53 1.266 . S
O44 Dy41 2.298 . S
O44 C53 1.236 . S
O45 Dy40 2.395 . S
O45 C62 1.255 . S
O46 Dy40 2.379 . S
O46 C62 1.249 . S
O47 Dy41 2.275 . S
O47 C63 1.254 . S
O48 Dy40 2.339 1_545 S
O48 C63 1.257 . S
O49 Dy41 2.307 1_565 S
O49 C64 1.266 . S
O50 Dy40 2.298 . S
O50 C64 1.236 . S
O51 Dy41 2.395 . S
O51 C71 1.255 . S
O52 Dy41 2.379 . S
O52 C71 1.249 . S
C53 O43 1.266 . S
C53 O44 1.236 . S
O54 Dy40 2.275 1_545 S
O54 C42 1.254 . S
O55 Dy41 2.339 . S
O55 C42 1.257 . S
C56 C59 1.344 . S
C56 C60 1.328 . S
C56 C62 1.516 . S
C57 C58 1.304 . S
C57 C61 1.323 . S
C58 C57 1.304 . S
C58 C59 1.371 . S
C58 H72 0.930 . S
C59 C56 1.344 . S
C59 C58 1.371 . S
C59 H73 0.931 . S
C60 C56 1.328 . S
C60 C61 1.433 . S
C60 H74 0.931 . S
C61 C57 1.323 . S
C61 C60 1.433 . S
C61 H75 0.933 . S
C62 Dy40 2.738 . S
C62 O45 1.255 . S
C62 O46 1.249 . S
C62 C56 1.516 . S
C63 O47 1.254 . S
C63 O48 1.257 . S
C64 O49 1.266 . S
C64 O50 1.236 . S
C65 C68 1.344 . S
C65 C69 1.328 . S
C65 C71 1.516 . S
C66 C67 1.304 . S
C66 C70 1.323 . S
C67 C66 1.304 . S
C67 C68 1.371 . S
C67 H76 0.930 . S
C68 C65 1.344 . S
C68 C67 1.371 . S
C68 H77 0.931 . S
C69 C65 1.328 . S
C69 C70 1.433 . S
C69 H78 0.931 . S
C70 C66 1.323 . S
C70 C69 1.433 . S
C70 H79 0.933 . S
C71 Dy41 2.738 . S
C71 O51 1.255 . S
C71 O52 1.249 . S
C71 C65 1.516 . S
H72 C58 0.930 . S
H73 C59 0.931 . S
H74 C60 0.931 . S
H75 C61 0.933 . S
H76 C67 0.930 . S
H77 C68 0.931 . S
H78 C69 0.931 . S
H79 C70 0.933 . S
Dy80 O83 2.307 . S
Dy80 O85 2.395 . S
Dy80 O86 2.379 . S
Dy80 O88 2.339 . S
Dy80 O90 2.298 . S
Dy80 O94 2.275 . S
Dy80 C102 2.738 . S
Dy81 O84 2.298 . S
Dy81 O87 2.275 . S
Dy81 O89 2.307 . S
Dy81 O91 2.395 . S
Dy81 O92 2.379 . S
Dy81 O95 2.339 . S
Dy81 C111 2.738 . S
C82 O94 1.254 . S
C82 O95 1.257 . S
O83 Dy80 2.307 . S
O83 C93 1.266 . S
O84 Dy81 2.298 . S
O84 C93 1.236 . S
O85 Dy80 2.395 . S
O85 C102 1.255 . S
O86 Dy80 2.379 . S
O86 C102 1.249 . S
O87 Dy81 2.275 . S
O87 C103 1.254 . S
O88 Dy80 2.339 . S
O88 C103 1.257 . S
O89 Dy81 2.307 . S
O89 C104 1.266 . S
O90 Dy80 2.298 . S
O90 C104 1.236 . S
O91 Dy81 2.395 . S
O91 C111 1.255 . S
O92 Dy81 2.379 . S
O92 C111 1.249 . S
C93 O83 1.266 . S
C93 O84 1.236 . S
O94 Dy80 2.275 . S
O94 C82 1.254 . S
O95 Dy81 2.339 . S
O95 C82 1.257 . S
C96 C99 1.344 . S
C96 C100 1.328 . S
C96 C102 1.516 . S
C97 C98 1.304 . S
C97 C101 1.323 . S
C98 C97 1.304 . S
C98 C99 1.371 . S
C98 H112 0.930 . S
C99 C96 1.344 . S
C99 C98 1.371 . S
C99 H113 0.931 . S
C100 C96 1.328 . S
C100 C101 1.433 . S
C100 H114 0.931 . S
C101 C97 1.323 . S
C101 C100 1.433 . S
C101 H115 0.933 . S
C102 Dy80 2.738 . S
C102 O85 1.255 . S
C102 O86 1.249 . S
C102 C96 1.516 . S
C103 O87 1.254 . S
C103 O88 1.257 . S
C104 O89 1.266 . S
C104 O90 1.236 . S
C105 C108 1.344 . S
C105 C109 1.328 . S
C105 C111 1.516 . S
C106 C107 1.304 . S
C106 C110 1.323 . S
C107 C106 1.304 . S
C107 C108 1.371 . S
C107 H116 0.930 . S
C108 C105 1.344 . S
C108 C107 1.371 . S
C108 H117 0.931 . S
C109 C105 1.328 . S
C109 C110 1.433 . S
C109 H118 0.931 . S
C110 C106 1.323 . S
C110 C109 1.433 . S
C110 H119 0.933 . S
C111 Dy81 2.738 . S
C111 O91 1.255 . S
C111 O92 1.249 . S
C111 C105 1.516 . S
H112 C98 0.930 . S
H113 C99 0.931 . S
H114 C100 0.931 . S
H115 C101 0.933 . S
H116 C107 0.930 . S
H117 C108 0.931 . S
H118 C109 0.931 . S
H119 C110 0.933 . S
H120 C127 0.929 . S
H121 C130 0.930 1_565 S
H122 C132 0.929 . S
H123 C124 0.969 . S
C124 H123 0.969 . S
C124 O125 1.550 . S
C124 H126 0.973 . S
O125 C124 1.550 . S
O125 C131 1.412 1_565 S
H126 C124 0.973 . S
C127 H120 0.929 . S
C127 C128 1.400 . S
C127 C129 1.364 . S
C128 C127 1.400 . S
C128 C132 1.377 . S
C129 C127 1.364 . S
C129 C130 1.374 . S
C130 H121 0.930 1_545 S
C130 C129 1.374 . S
C130 C131 1.383 . S
C131 O125 1.412 1_545 S
C131 C130 1.383 . S
C131 C132 1.394 . S
C132 H122 0.929 . S
C132 C128 1.377 . S
C132 C131 1.394 . S
H133 C140 0.929 . S
H134 C143 0.930 . S
H135 C145 0.929 . S
H136 C137 0.969 . S
C137 H136 0.969 . S
C137 O138 1.550 . S
C137 H139 0.973 . S
O138 C137 1.550 . S
O138 C144 1.412 . S
H139 C137 0.973 . S
C140 H133 0.929 . S
C140 C141 1.400 . S
C140 C142 1.364 . S
C141 C140 1.400 . S
C141 C145 1.377 . S
C142 C140 1.364 . S
C142 C143 1.374 . S
C143 H134 0.930 . S
C143 C142 1.374 . S
C143 C144 1.383 . S
C144 O138 1.412 . S
C144 C143 1.383 . S
C144 C145 1.394 . S
C145 H135 0.929 . S
C145 C141 1.377 . S
C145 C144 1.394 . S
H146 C153 0.929 . S
H147 C156 0.930 . S
H148 C158 0.929 . S
H149 C150 0.969 . S
C150 H149 0.969 . S
C150 O151 1.550 . S
C150 H152 0.973 . S
O151 C150 1.550 . S
O151 C157 1.412 . S
H152 C150 0.973 . S
C153 H146 0.929 . S
C153 C154 1.400 . S
C153 C155 1.364 1_655 S
C154 C153 1.400 . S
C154 C158 1.377 1_655 S
C155 C153 1.364 1_455 S
C155 C156 1.374 . S
C156 H147 0.930 . S
C156 C155 1.374 . S
C156 C157 1.383 . S
C157 O151 1.412 . S
C157 C156 1.383 . S
C157 C158 1.394 . S
C158 H148 0.929 . S
C158 C154 1.377 1_455 S
C158 C157 1.394 . S
H159 C166 0.929 . S
H160 C169 0.930 . S
H161 C171 0.929 . S
H162 C163 0.969 . S
C163 H162 0.969 . S
C163 O164 1.550 . S
C163 H165 0.973 . S
O164 C163 1.550 . S
O164 C170 1.412 . S
H165 C163 0.973 . S
C166 H159 0.929 . S
C166 C167 1.399 . S
C166 C168 1.364 1_655 S
C167 C166 1.399 . S
C167 C171 1.366 1_655 S
C168 C166 1.364 1_455 S
C168 C169 1.374 . S
C169 H160 0.930 . S
C169 C168 1.374 . S
C169 C170 1.383 . S
C170 O164 1.412 . S
C170 C169 1.383 . S
C170 C171 1.394 . S
C171 H161 0.929 . S
C171 C167 1.366 1_455 S
C171 C170 1.394 . S
H172 C179 0.929 . S
H173 C182 0.930 . S
H174 C184 0.929 . S
H175 C176 0.969 . S
C176 H175 0.969 . S
C176 O177 1.550 . S
C176 H178 0.973 . S
O177 C176 1.550 . S
O177 C183 1.412 . S
H178 C176 0.973 . S
C179 H172 0.929 . S
C179 C180 1.400 . S
C179 C181 1.364 . S
C180 C179 1.400 . S
C180 C184 1.377 . S
C181 C179 1.364 . S
C181 C182 1.374 1_565 S
C182 H173 0.930 . S
C182 C181 1.374 1_545 S
C182 C183 1.383 . S
C183 O177 1.412 . S
C183 C182 1.383 . S
C183 C184 1.394 1_545 S
C184 H174 0.929 . S
C184 C180 1.377 . S
C184 C183 1.394 1_565 S
H185 C192 0.929 . S
H186 C195 0.930 . S
H187 C197 0.929 . S
H188 C189 0.969 . S
C189 H188 0.969 . S
C189 O190 1.550 . S
C189 H191 0.973 . S
O190 C189 1.550 . S
O190 C196 1.412 . S
H191 C189 0.973 . S
C192 H185 0.929 . S
C192 C193 1.400 . S
C192 C194 1.364 . S
C193 C192 1.400 . S
C193 C197 1.377 . S
C194 C192 1.364 . S
C194 C195 1.374 . S
C195 H186 0.930 . S
C195 C194 1.374 . S
C195 C196 1.383 . S
C196 O190 1.412 . S
C196 C195 1.383 . S
C196 C197 1.394 . S
C197 H187 0.929 . S
C197 C193 1.377 . S
C197 C196 1.394 . S
C198 C199 1.387 . S
C198 H202 0.950 . S
C198 C207 1.390 . S
C199 C198 1.387 . S
C199 C201 1.387 . S
H200 C207 0.950 . S
C201 C199 1.387 . S
C201 C203 1.390 . S
C201 H205 0.950 . S
H202 C198 0.950 . S
C203 C201 1.390 . S
C203 C204 1.387 . S
C203 H206 0.950 . S
C204 C203 1.387 . S
C204 C207 1.387 . S
H205 C201 0.950 . S
H206 C203 0.950 . S
C207 C198 1.390 . S
C207 H200 0.950 . S
C207 C204 1.387 . S
C208 C209 1.387 . S
C208 H212 0.950 . S
C208 C217 1.390 . S
C209 C208 1.387 . S
C209 C211 1.387 . S
H210 C217 0.950 . S
C211 C209 1.387 . S
C211 C213 1.390 . S
C211 H215 0.950 . S
H212 C208 0.950 . S
C213 C211 1.390 . S
C213 C214 1.387 . S
C213 H216 0.950 1_655 S
C214 C213 1.387 . S
C214 C217 1.387 . S
H215 C211 0.950 . S
H216 C213 0.950 1_455 S
C217 C208 1.390 . S
C217 H210 0.950 . S
C217 C214 1.387 . S
C218 C219 1.387 . S
C218 H222 0.950 . S
C218 C227 1.390 . S
C219 C218 1.387 . S
C219 C221 1.387 . S
H220 C227 0.950 . S
C221 C219 1.387 . S
C221 C223 1.390 . S
C221 H225 0.950 . S
H222 C218 0.950 . S
C223 C221 1.390 . S
C223 C224 1.387 . S
C223 H226 0.950 . S
C224 C223 1.387 . S
C224 C227 1.387 . S
H225 C221 0.950 . S
H226 C223 0.950 . S
C227 C218 1.390 . S
C227 H220 0.950 . S
C227 C224 1.387 . S
C228 C229 1.387 . S
C228 H232 0.950 . S
C228 C237 1.390 . S
C229 C228 1.387 . S
C229 C231 1.387 . S
H230 C237 0.950 . S
C231 C229 1.387 . S
C231 C233 1.390 . S
C231 H235 0.950 . S
H232 C228 0.950 . S
C233 C231 1.390 . S
C233 C234 1.387 . S
C233 H236 0.950 . S
C234 C233 1.387 . S
C234 C237 1.387 . S
H235 C231 0.950 . S
H236 C233 0.950 . S
C237 C228 1.390 . S
C237 H230 0.950 . S
C237 C234 1.387 . S
C238 C239 1.387 . S
C238 H242 0.950 . S
C238 C247 1.390 . S
C239 C238 1.387 . S
C239 C241 1.387 . S
H240 C247 0.950 . S
C241 C239 1.387 . S
C241 C243 1.390 . S
C241 H245 0.950 . S
H242 C238 0.950 . S
C243 C241 1.390 . S
C243 C244 1.387 . S
C243 H246 0.950 . S
C244 C243 1.387 . S
C244 C247 1.387 . S
H245 C241 0.950 . S
H246 C243 0.950 . S
C247 C238 1.390 . S
C247 H240 0.950 . S
C247 C244 1.387 . S
C248 C249 1.387 . S
C248 H252 0.950 . S
C248 C257 1.390 . S
C249 C248 1.387 . S
C249 C251 1.387 . S
H250 C257 0.950 . S
C251 C249 1.387 . S
C251 C253 1.390 . S
C251 H255 0.950 . S
H252 C248 0.950 . S
C253 C251 1.390 . S
C253 C254 1.387 . S
C253 H256 0.950 . S
C254 C253 1.387 . S
C254 C257 1.387 . S
H255 C251 0.950 . S
H256 C253 0.950 . S
C257 C248 1.390 . S
C257 H250 0.950 . S
C257 C254 1.387 . S
C258 C259 1.387 . S
C258 H262 0.950 . S
C258 C267 1.390 . S
C259 C258 1.387 . S
C259 C261 1.387 . S
H260 C267 0.950 . S
C261 C259 1.387 . S
C261 C263 1.390 . S
C261 H265 0.950 . S
H262 C258 0.950 . S
C263 C261 1.390 . S
C263 C264 1.387 . S
C263 H266 0.950 . S
C264 C263 1.387 . S
C264 C267 1.387 . S
H265 C261 0.950 . S
H266 C263 0.950 . S
C267 C258 1.390 . S
C267 H260 0.950 . S
C267 C264 1.387 . S
C268 C269 1.387 . S
C268 H272 0.950 . S
C268 C277 1.390 . S
C269 C268 1.387 . S
C269 C271 1.387 . S
H270 C277 0.950 . S
C271 C269 1.387 . S
C271 C273 1.390 . S
C271 H275 0.950 . S
H272 C268 0.950 . S
C273 C271 1.390 . S
C273 C274 1.387 . S
C273 H276 0.950 . S
C274 C273 1.387 . S
C274 C277 1.387 . S
H275 C271 0.950 . S
H276 C273 0.950 . S
C277 C268 1.390 . S
C277 H270 0.950 . S
C277 C274 1.387 . S
C278 C279 1.387 . S
C278 H282 0.950 . S
C278 C287 1.390 . S
C279 C278 1.387 . S
C279 C281 1.387 . S
H280 C287 0.950 . S
C281 C279 1.387 . S
C281 C283 1.390 . S
C281 H285 0.950 . S
H282 C278 0.950 . S
C283 C281 1.390 . S
C283 C284 1.387 . S
C283 H286 0.950 . S
C284 C283 1.387 . S
C284 C287 1.387 . S
H285 C281 0.950 . S
H286 C283 0.950 . S
C287 C278 1.390 . S
C287 H280 0.950 . S
C287 C284 1.387 . S
C288 C289 1.387 . S
C288 H292 0.950 . S
C288 C297 1.390 . S
C289 C288 1.387 . S
C289 C291 1.387 . S
H290 C297 0.950 . S
C291 C289 1.387 . S
C291 C293 1.390 . S
C291 H295 0.950 . S
H292 C288 0.950 . S
C293 C291 1.390 . S
C293 C294 1.387 . S
C293 H296 0.950 . S
C294 C293 1.387 . S
C294 C297 1.387 . S
H295 C291 0.950 . S
H296 C293 0.950 . S
C297 C288 1.390 . S
C297 H290 0.950 . S
C297 C294 1.387 . S
C298 C299 1.387 . S
C298 H302 0.950 . S
C298 C307 1.390 . S
C299 C298 1.387 . S
C299 C301 1.387 . S
H300 C307 0.950 . S
C301 C299 1.387 . S
C301 C303 1.390 . S
C301 H305 0.950 . S
H302 C298 0.950 . S
C303 C301 1.390 . S
C303 C304 1.387 . S
C303 H306 0.950 . S
C304 C303 1.387 . S
C304 C307 1.387 . S
H305 C301 0.950 . S
H306 C303 0.950 . S
C307 C298 1.390 . S
C307 H300 0.950 . S
C307 C304 1.387 . S
C308 C309 1.387 . S
C308 H312 0.950 . S
C308 C317 1.390 . S
C309 C308 1.387 . S
C309 C311 1.387 . S
H310 C317 0.950 . S
C311 C309 1.387 . S
C311 C313 1.390 . S
C311 H315 0.950 . S
H312 C308 0.950 . S
C313 C311 1.390 . S
C313 C314 1.387 . S
C313 H316 0.950 . S
C314 C313 1.387 . S
C314 C317 1.387 . S
H315 C311 0.950 . S
H316 C313 0.950 . S
C317 C308 1.390 . S
C317 H310 0.950 . S
C317 C314 1.387 . S
C318 C319 1.387 . S
C318 H322 0.950 . S
C318 C327 1.390 1_554 S
C319 C318 1.387 . S
C319 C321 1.387 . S
H320 C327 0.950 . S
C321 C319 1.387 . S
C321 C323 1.390 1_554 S
C321 H325 0.950 . S
H322 C318 0.950 . S
C323 C321 1.390 1_556 S
C323 C324 1.387 . S
C323 H326 0.950 . S
C324 C323 1.387 . S
C324 C327 1.387 . S
H325 C321 0.950 . S
H326 C323 0.950 . S
C327 C318 1.390 1_556 S
C327 H320 0.950 . S
C327 C324 1.387 . S
C328 C329 1.387 1_565 S
C328 H332 0.950 . S
C328 C337 1.390 . S
C329 C328 1.387 1_545 S
C329 C331 1.387 . S
H330 C337 0.950 . S
C331 C329 1.387 . S
C331 C333 1.390 . S
C331 H335 0.950 . S
H332 C328 0.950 . S
C333 C331 1.390 . S
C333 C334 1.387 . S
C333 H336 0.950 . S
C334 C333 1.387 . S
C334 C337 1.387 1_545 S
H335 C331 0.950 . S
H336 C333 0.950 . S
C337 C328 1.390 . S
C337 H330 0.950 . S
C337 C334 1.387 1_565 S
C338 C339 1.387 . S
C338 H342 0.950 . S
C338 C347 1.390 . S
C339 C338 1.387 . S
C339 C341 1.387 . S
H340 C347 0.950 . S
C341 C339 1.387 . S
C341 C343 1.390 . S
C341 H345 0.950 . S
H342 C338 0.950 . S
C343 C341 1.390 . S
C343 C344 1.387 . S
C343 H346 0.950 . S
C344 C343 1.387 . S
C344 C347 1.387 . S
H345 C341 0.950 . S
H346 C343 0.950 . S
C347 C338 1.390 . S
C347 H340 0.950 . S
C347 C344 1.387 . S
C348 C349 1.387 1_545 S
C348 H352 0.950 . S
C348 C357 1.390 . S
C349 C348 1.387 1_565 S
C349 C351 1.387 . S
H350 C357 0.950 . S
C351 C349 1.387 . S
C351 C353 1.390 . S
C351 H355 0.950 . S
H352 C348 0.950 . S
C353 C351 1.390 . S
C353 C354 1.387 1_565 S
C353 H356 0.950 . S
C354 C353 1.387 1_545 S
C354 C357 1.387 . S
H355 C351 0.950 . S
H356 C353 0.950 . S
C357 C348 1.390 . S
C357 H350 0.950 . S
C357 C354 1.387 . S
C358 C359 1.387 . S
C358 H362 0.950 . S
C358 C367 1.390 . S
C359 C358 1.387 . S
C359 C361 1.387 . S
H360 C367 0.950 1_554 S
C361 C359 1.387 . S
C361 C363 1.390 . S
C361 H365 0.950 . S
H362 C358 0.950 . S
C363 C361 1.390 . S
C363 C364 1.387 1_556 S
C363 H366 0.950 1_556 S
C364 C363 1.387 1_554 S
C364 C367 1.387 1_554 S
H365 C361 0.950 . S
H366 C363 0.950 1_554 S
C367 C358 1.390 . S
C367 H360 0.950 1_556 S
C367 C364 1.387 1_556 S
C368 C369 1.387 . S
C368 H372 0.950 . S
C368 C377 1.390 . S
C369 C368 1.387 . S
C369 C371 1.387 1_455 S
H370 C377 0.950 . S
C371 C369 1.387 1_655 S
C371 C373 1.390 . S
C371 H375 0.950 . S
H372 C368 0.950 . S
C373 C371 1.390 . S
C373 C374 1.387 1_655 S
C373 H376 0.950 . S
C374 C373 1.387 1_455 S
C374 C377 1.387 . S
H375 C371 0.950 . S
H376 C373 0.950 . S
C377 C368 1.390 . S
C377 H370 0.950 . S
C377 C374 1.387 . S
C199 C24 3.088 . S
C204 C189 2.883 . S
C209 C66 1.228 . S
C214 C167 1.297 . S
C219 C93 1.814 . S
C224 C180 1.786 . S
C229 C13 3.082 . S
C234 C193 3.046 . S
C244 C163 1.379 . S
C239 C57 1.393 . S
C254 C176 1.844 . S
C249 C104 2.024 . S
C259 C64 1.894 . S
C264 C141 1.850 . S
C269 C97 0.705 . S
C274 C154 0.685 . S
C279 C17 1.450 . S
C284 C124 1.450 . S
C294 C137 1.733 . S
C289 C53 1.910 . S
C304 C150 0.761 . S
C299 C106 0.749 . S
C309 C26 1.259 . S
C314 C128 1.322 . S
C324 C155 1.105 . S
C319 C2 1.102 . S
C329 C63 1.490 . S
C334 C129 1.571 . S
C339 C82 1.405 . S
C344 C142 1.420 . S
C354 C181 1.520 1_545 S
C349 C42 1.505 1_565 S
C364 C194 1.762 . S
C359 C103 1.739 . S
C369 C23 1.511 . S
C374 C168 1.571 . S
