# Generated by pormake.
# Topology anh, (6,3)-cn, num edge types: 1
# Building blocks:
#     Node 0, Type 0, BuildingBlock: MIFKUJ_clean_sbu_0, # of connection points: 6
#     Node 1, Type 0, BuildingBlock: MIFKUJ_clean_sbu_0, # of connection points: 6
#     Node 2, Type 0, BuildingBlock: MIFKUJ_clean_sbu_0, # of connection points: 6
#     Node 3, Type 1, BuildingBlock: MIDCAF_clean_linker_0, # of connection points: 3
#     Node 4, Type 1, BuildingBlock: MIDCAF_clean_linker_0, # of connection points: 3
#     Node 5, Type 1, BuildingBlock: MIDCAF_clean_linker_0, # of connection points: 3
#     Node 6, Type 1, BuildingBlock: MIDCAF_clean_linker_0, # of connection points: 3
#     Node 7, Type 1, BuildingBlock: MIDCAF_clean_linker_0, # of connection points: 3
#     Node 8, Type 1, BuildingBlock: MIDCAF_clean_linker_0, # of connection points: 3
#     Edge 9, Type (0, 1), BuildingBlock: XUDNAN_clean_linker_2, # of connection points: 2
#     Edge 10, Type (0, 1), BuildingBlock: XUDNAN_clean_linker_2, # of connection points: 2
#     Edge 11, Type (0, 1), BuildingBlock: XUDNAN_clean_linker_2, # of connection points: 2
#     Edge 12, Type (0, 1), BuildingBlock: XUDNAN_clean_linker_2, # of connection points: 2
#     Edge 13, Type (0, 1), BuildingBlock: XUDNAN_clean_linker_2, # of connection points: 2
#     Edge 14, Type (0, 1), BuildingBlock: XUDNAN_clean_linker_2, # of connection points: 2
#     Edge 15, Type (0, 1), BuildingBlock: XUDNAN_clean_linker_2, # of connection points: 2
#     Edge 16, Type (0, 1), BuildingBlock: XUDNAN_clean_linker_2, # of connection points: 2
#     Edge 17, Type (0, 1), BuildingBlock: XUDNAN_clean_linker_2, # of connection points: 2
#     Edge 18, Type (0, 1), BuildingBlock: XUDNAN_clean_linker_2, # of connection points: 2
#     Edge 19, Type (0, 1), BuildingBlock: XUDNAN_clean_linker_2, # of connection points: 2
#     Edge 20, Type (0, 1), BuildingBlock: XUDNAN_clean_linker_2, # of connection points: 2
#     Edge 21, Type (0, 1), BuildingBlock: XUDNAN_clean_linker_2, # of connection points: 2
#     Edge 22, Type (0, 1), BuildingBlock: XUDNAN_clean_linker_2, # of connection points: 2
#     Edge 23, Type (0, 1), BuildingBlock: XUDNAN_clean_linker_2, # of connection points: 2
#     Edge 24, Type (0, 1), BuildingBlock: XUDNAN_clean_linker_2, # of connection points: 2
#     Edge 25, Type (0, 1), BuildingBlock: XUDNAN_clean_linker_2, # of connection points: 2
#     Edge 26, Type (0, 1), BuildingBlock: XUDNAN_clean_linker_2, # of connection points: 2
# Relax obj value: 0.135
# Max RMSD: 0.184
# Mean RMSD: 0.145
data_MOF--net-anh--node1-MIFKUJ_clean_sbu_0--node2-MIDCAF_clean_linker_0--edge1-XUDNAN_clean_linker_2
_symmetry_space_group_name_H-M    P1
_symmetry_Int_Tables_number       1
_symmetry_cell_setting            triclinic
loop_
_symmetry_equiv_pos_as_xyz
'x, y, z'
_cell_length_a     36.895105
_cell_length_b     36.900261
_cell_length_c     63.84116
_cell_angle_alpha  93.809295
_cell_angle_beta   90.651257
_cell_angle_gamma 119.72601
loop_
_atom_site_label
_atom_site_type_symbol
_atom_site_fract_x
_atom_site_fract_y
_atom_site_fract_z
_atom_type_partial_charge
Zn0 Zn 0.04911 0.57841 0.16056 0.0
Zn1 Zn 0.96434 0.48878 0.16237 0.0
C2 C 0.11859 0.56511 0.16455 0.0
O3 O 0.13198 0.60091 0.17583 0.0
C4 C 0.89294 0.4974 0.15264 0.0
O5 O 0.89015 0.4716 0.13668 0.0
O6 O 0.09096 0.63856 0.15731 0.0
O7 O 0.00517 0.56504 0.1383 0.0
O8 O 0.98771 0.499 0.13326 0.0
C9 C 0.11026 0.64752 0.14037 0.0
O10 O 0.10151 0.61742 0.12558 0.0
O11 O 0.0815 0.54662 0.15623 0.0
C12 C 0.90281 0.41537 0.17787 0.0
O13 O 0.90805 0.44365 0.19306 0.0
O14 O 0.92594 0.42686 0.1623 0.0
O15 O 1.00163 0.50603 0.18914 0.0
O16 O 0.0297 0.57461 0.18959 0.0
O17 O 0.92419 0.51178 0.16575 0.0
C18 C 0.99228 0.5322 0.1261 0.0
C19 C 0.01701 0.54183 0.19927 0.0
Zn20 Zn 0.56138 0.06333 0.49762 0.0
Zn21 Zn 0.53248 0.95544 0.50667 0.0
C22 C 0.64884 0.11272 0.49873 0.0
O23 O 0.63981 0.12669 0.51623 0.0
C24 C 0.4504 0.88675 0.49468 0.0
O25 O 0.46913 0.88582 0.47744 0.0
O26 O 0.55415 0.11274 0.49459 0.0
O27 O 0.51668 0.01783 0.47823 0.0
O28 O 0.54188 0.97485 0.47746 0.0
C29 C 0.5652 0.13204 0.47801 0.0
O30 O 0.58013 0.11831 0.46281 0.0
O31 O 0.6194 0.08191 0.48769 0.0
C32 C 0.59406 0.92931 0.50009 0.0
O33 O 0.6186 0.96741 0.49466 0.0
O34 O 0.55818 0.91929 0.50666 0.0
O35 O 0.55267 0.99417 0.53317 0.0
O36 O 0.56135 0.05693 0.52837 0.0
O37 O 0.47091 0.91517 0.50935 0.0
C38 C 0.52459 0.99204 0.46817 0.0
C39 C 0.56058 0.03046 0.54031 0.0
Zn40 Zn 0.57722 0.51617 0.83028 0.0
Zn41 Zn 0.48628 0.51763 0.82882 0.0
C42 C 0.54866 0.43476 0.84496 0.0
O43 O 0.56326 0.45841 0.86271 0.0
C44 C 0.49673 0.59693 0.81739 0.0
O45 O 0.46947 0.57203 0.80232 0.0
O46 O 0.63815 0.53512 0.82966 0.0
O47 O 0.56728 0.54063 0.80543 0.0
O48 O 0.49979 0.4974 0.80127 0.0
C49 C 0.65282 0.53182 0.81216 0.0
O50 O 0.62759 0.5159 0.79526 0.0
O51 O 0.54883 0.45196 0.82824 0.0
C52 C 0.39904 0.47973 0.84036 0.0
O53 O 0.41269 0.47678 0.85891 0.0
O54 O 0.42454 0.49474 0.82594 0.0
O55 O 0.49951 0.50337 0.85715 0.0
O56 O 0.5685 0.53939 0.85764 0.0
O57 O 0.51049 0.5812 0.83035 0.0
C58 C 0.53413 0.52269 0.7938 0.0
C59 C 0.53469 0.52536 0.86715 0.0
C60 C 0.35483 0.91159 0.19868 0.0
C61 C 0.35425 0.91459 0.17688 0.0
C62 C 0.38894 0.94745 0.16824 0.0
C63 C 0.42355 0.97652 0.1812 0.0
H64 H 0.54547 0.08077 0.18182 0.0
H65 H 0.61004 0.13641 0.16901 0.0
H66 H 0.66616 0.16854 0.23211 0.0
H67 H 0.60205 0.11409 0.24497 0.0
H68 H 0.54601 0.0751 0.28364 0.0
H69 H 0.54613 0.06076 0.32046 0.0
H70 H 0.43913 0.93763 0.30627 0.0
H71 H 0.43866 0.95172 0.26955 0.0
H72 H 0.38817 0.93651 0.22823 0.0
H73 H 0.32921 0.88611 0.20586 0.0
H74 H 0.38936 0.95062 0.15149 0.0
H75 H 0.44996 0.00131 0.1741 0.0
N76 N 0.49583 0.03361 0.2094 0.0
N77 N 0.52795 0.05335 0.24338 0.0
N78 N 0.4601 0.99672 0.23787 0.0
C79 C 0.52957 0.05935 0.22256 0.0
C80 C 0.49335 0.0221 0.25115 0.0
C81 C 0.46085 0.00223 0.21704 0.0
C82 C 0.56836 0.09298 0.21445 0.0
C83 C 0.57155 0.09979 0.19296 0.0
C84 C 0.60861 0.13147 0.18559 0.0
C85 C 0.64309 0.15697 0.19957 0.0
C86 C 0.63992 0.14992 0.22098 0.0
C87 C 0.60307 0.11844 0.22833 0.0
C88 C 0.49244 0.0145 0.27364 0.0
C89 C 0.52238 0.04505 0.28838 0.0
C90 C 0.52233 0.03698 0.30946 0.0
C91 C 0.49273 0.99806 0.31611 0.0
C92 C 0.46248 0.96776 0.30147 0.0
C93 C 0.46215 0.97598 0.28048 0.0
C94 C 0.42407 0.97309 0.20302 0.0
C95 C 0.38907 0.94045 0.21155 0.0
C96 C 0.58067 0.40433 0.53535 0.0
C97 C 0.578 0.39891 0.51326 0.0
C98 C 0.57683 0.42952 0.50177 0.0
C99 C 0.57761 0.46442 0.51217 0.0
H100 H 0.62759 0.59905 0.50913 0.0
H101 H 0.64134 0.66166 0.49155 0.0
H102 H 0.5711 0.68843 0.53752 0.0
H103 H 0.55764 0.62694 0.55504 0.0
H104 H 0.55208 0.59313 0.5987 0.0
H105 H 0.54232 0.59709 0.63612 0.0
H106 H 0.5494 0.48475 0.64167 0.0
H107 H 0.55874 0.48024 0.60393 0.0
H108 H 0.58279 0.44196 0.56275 0.0
H109 H 0.58264 0.38185 0.54468 0.0
H110 H 0.57437 0.42608 0.48475 0.0
H111 H 0.57601 0.48712 0.50285 0.0
N112 N 0.58576 0.5389 0.53477 0.0
N113 N 0.57381 0.56997 0.56508 0.0
N114 N 0.56864 0.50429 0.56582 0.0
C115 C 0.58366 0.57143 0.54465 0.0
C116 C 0.56632 0.53667 0.57582 0.0
C117 C 0.57815 0.50514 0.54526 0.0
C118 C 0.59152 0.60813 0.53345 0.0
C119 C 0.61497 0.61829 0.51536 0.0
C120 C 0.62301 0.65403 0.50537 0.0
C121 C 0.60691 0.67936 0.51313 0.0
C122 C 0.58338 0.66899 0.5311 0.0
C123 C 0.57591 0.63391 0.5412 0.0
C124 C 0.55683 0.53666 0.5983 0.0
C125 C 0.55132 0.569 0.60777 0.0
C126 C 0.54576 0.57138 0.62926 0.0
C127 C 0.54559 0.54153 0.64183 0.0
C128 C 0.54919 0.50808 0.63231 0.0
C129 C 0.55478 0.50566 0.61072 0.0
C130 C 0.57923 0.46923 0.53426 0.0
C131 C 0.58101 0.43894 0.54573 0.0
C132 C 0.95817 0.61322 0.85574 0.0
C133 C 0.93752 0.58755 0.83733 0.0
C134 C 0.94953 0.55876 0.82941 0.0
C135 C 0.97895 0.55329 0.84068 0.0
H136 H 0.06094 0.4998 0.8412 0.0
H137 H 0.1074 0.47516 0.82805 0.0
H138 H 0.17899 0.51897 0.88753 0.0
H139 H 0.13127 0.54119 0.90089 0.0
H140 H 0.0761 0.54312 0.94134 0.0
H141 H 0.06101 0.54139 0.97847 0.0
H142 H 0.95662 0.55958 0.96418 0.0
H143 H 0.97241 0.56273 0.92737 0.0
H144 H 1.00044 0.62577 0.88195 0.0
H145 H 0.95046 0.63648 0.86195 0.0
H146 H 0.93411 0.53836 0.81532 0.0
H147 H 0.98576 0.52912 0.83495 0.0
N148 N 0.04435 0.54936 0.86671 0.0
N149 N 0.05944 0.5398 0.90111 0.0
N150 N 0.01458 0.56627 0.89528 0.0
C151 C 0.06473 0.53754 0.88012 0.0
C152 C 0.03403 0.55377 0.90877 0.0
C153 C 0.01973 0.56438 0.87432 0.0
C154 C 0.09252 0.52236 0.87206 0.0
C155 C 0.08652 0.50386 0.85145 0.0
C156 C 0.11325 0.48989 0.84391 0.0
C157 C 0.14699 0.49488 0.85671 0.0
C158 C 0.15279 0.51347 0.87735 0.0
C159 C 0.12563 0.52663 0.88499 0.0
C160 C 0.02566 0.55334 0.93138 0.0
C161 C 0.05002 0.54688 0.94615 0.0
C162 C 0.04116 0.54555 0.96741 0.0
C163 C 0.00761 0.55037 0.9743 0.0
C164 C 0.98315 0.55651 0.95948 0.0
C165 C 0.99218 0.5582 0.93831 0.0
C166 C 0.99624 0.5761 0.86014 0.0
C167 C 0.98686 0.60721 0.86716 0.0
C168 C 0.14522 0.64348 0.46635 0.0
C169 C 0.16871 0.64041 0.48284 0.0
C170 C 0.15453 0.60139 0.49106 0.0
C171 C 0.11924 0.56541 0.48171 0.0
H172 H 0.96318 0.4438 0.4776 0.0
H173 H 0.9054 0.37581 0.48529 0.0
H174 H 0.94628 0.31497 0.43869 0.0
H175 H 1.00179 0.38314 0.43015 0.0
H176 H 0.98086 0.44643 0.38575 0.0
H177 H 0.97599 0.45915 0.34894 0.0
H178 H 0.08937 0.5788 0.35921 0.0
H179 H 0.09393 0.56674 0.39571 0.0
H180 H 0.09405 0.61127 0.44378 0.0
H181 H 0.15495 0.67329 0.46 0.0
H182 H 0.17214 0.59828 0.50383 0.0
H183 H 0.11045 0.53524 0.48737 0.0
N184 N 0.042 0.49312 0.45868 0.0
N185 N 0.01437 0.46318 0.42436 0.0
N186 N 0.06527 0.53373 0.42981 0.0
C187 C 0.01553 0.45928 0.44536 0.0
C188 C 0.0392 0.50045 0.41648 0.0
C189 C 0.06712 0.53061 0.45078 0.0
C190 C 0.98661 0.41853 0.45323 0.0
C191 C 0.96006 0.41569 0.46935 0.0
C192 C 0.92697 0.37658 0.47375 0.0
C193 C 0.92038 0.33952 0.46236 0.0
C194 C 0.94922 0.34263 0.44732 0.0
C195 C 0.98145 0.38168 0.44258 0.0
C196 C 0.03747 0.50578 0.39378 0.0
C197 C 0.00487 0.4753 0.38008 0.0
C198 C 1.00212 0.48251 0.35901 0.0
C199 C 0.03193 0.52027 0.35129 0.0
C200 C 0.06531 0.54986 0.36481 0.0
C201 C 0.06799 0.54279 0.38576 0.0
C202 C 0.09787 0.56822 0.46406 0.0
C203 C 0.11026 0.6079 0.45711 0.0
C204 C 0.57126 0.17016 0.81025 0.0
C205 C 0.53847 0.16352 0.82328 0.0
C206 C 0.51206 0.12261 0.82917 0.0
C207 C 0.51686 0.08884 0.82107 0.0
H208 H 0.53376 0.96847 0.82989 0.0
H209 H 0.52744 0.90317 0.8411 0.0
H210 H 0.5383 0.86625 0.77691 0.0
H211 H 0.54346 0.92952 0.76578 0.0
H212 H 0.57414 0.9893 0.73138 0.0
H213 H 0.58484 0.99914 0.69413 0.0
H214 H 0.56251 0.10367 0.70106 0.0
H215 H 0.55326 0.09481 0.73829 0.0
H216 H 0.60053 0.14297 0.79146 0.0
H217 H 0.59301 0.20127 0.80588 0.0
H218 H 0.48651 0.11635 0.83923 0.0
H219 H 0.4947 0.05739 0.82482 0.0
N220 N 0.5424 0.0246 0.80219 0.0
N221 N 0.55081 1.00027 0.76855 0.0
N222 N 0.55515 0.06541 0.77342 0.0
C223 C 0.54393 0.99422 0.78924 0.0
C224 C 0.55624 0.03551 0.7605 0.0
C225 C 0.54839 0.06059 0.79414 0.0
C226 C 0.53901 0.95462 0.7969 0.0
C227 C 0.53447 0.94622 0.8182 0.0
C228 C 0.53109 0.90886 0.82463 0.0
C229 C 0.53194 0.87906 0.80989 0.0
C230 C 0.5365 0.88773 0.7887 0.0
C231 C 0.53984 0.92462 0.78233 0.0
C232 C 0.56291 0.0413 0.73786 0.0
C233 C 0.57163 0.01445 0.72497 0.0
C234 C 0.57758 0.01998 0.70357 0.0
C235 C 0.57463 0.05226 0.69458 0.0
C236 C 0.56585 0.07901 0.70751 0.0
C237 C 0.56027 0.07373 0.72889 0.0
C238 C 0.5481 0.09552 0.80694 0.0
C239 C 0.57589 0.13672 0.80217 0.0
C240 C 0.64092 0.54003 0.12669 0.0
C241 C 0.63944 0.52215 0.14556 0.0
C242 C 0.60304 0.5078 0.15706 0.0
C243 C 0.56797 0.50925 0.14906 0.0
H244 H 0.4161 0.47304 0.14733 0.0
H245 H 0.3513 0.46999 0.15913 0.0
H246 H 0.37579 0.57374 0.12285 0.0
H247 H 0.43937 0.57612 0.11089 0.0
H248 H 0.44502 0.52626 0.05784 0.0
H249 H 0.45347 0.53502 0.02009 0.0
H250 H 0.57092 0.5365 0.02528 0.0
H251 H 0.56295 0.52785 0.06246 0.0
H252 H 0.60918 0.55525 0.10402 0.0
H253 H 0.66878 0.55238 0.11773 0.0
H254 H 0.60118 0.49408 0.17176 0.0
H255 H 0.53974 0.4965 0.15771 0.0
N256 N 0.49911 0.52209 0.12913 0.0
N257 N 0.46894 0.52432 0.0967 0.0
N258 N 0.53173 0.52373 0.09758 0.0
C259 C 0.46763 0.52301 0.11796 0.0
C260 C 0.50074 0.52421 0.08638 0.0
C261 C 0.53177 0.52296 0.11876 0.0
C262 C 0.43276 0.52491 0.12827 0.0
C263 C 0.40792 0.49566 0.14231 0.0
C264 C 0.37074 0.4937 0.14888 0.0
C265 C 0.35841 0.52162 0.1419 0.0
C266 C 0.3845 0.55205 0.12868 0.0
C267 C 0.42091 0.55337 0.1218 0.0
C268 C 0.50349 0.52682 0.06331 0.0
C269 C 0.4725 0.52822 0.05088 0.0
C270 C 0.4772 0.53307 0.02929 0.0
C271 C 0.51312 0.53702 0.01992 0.0
C272 C 0.54329 0.53431 0.0322 0.0
C273 C 0.53854 0.52919 0.05356 0.0
C274 C 0.56904 0.52525 0.12952 0.0
C275 C 0.60649 0.54166 0.11885 0.0
H276 H 0.20371 0.60925 0.16835 0.0
H277 H 0.09966 0.48417 0.15225 0.0
H278 H 0.14957 0.45804 0.14688 0.0
H279 H 0.27034 0.60423 0.12964 0.0
H280 H 0.31747 0.63499 0.14601 0.0
H281 H 0.27333 0.64262 0.14963 0.0
H282 H 0.27374 0.6287 0.18887 0.0
H283 H 0.31775 0.62075 0.18534 0.0
H284 H 0.2707 0.58066 0.1957 0.0
H285 H 0.21236 0.44613 0.14357 0.0
H286 H 0.28113 0.45075 0.13905 0.0
H287 H 0.34306 0.58451 0.15583 0.0
C288 C 0.19127 0.57624 0.16387 0.0
C289 C 0.14769 0.54861 0.16094 0.0
C290 C 0.13288 0.50585 0.15464 0.0
C291 C 0.16103 0.49076 0.15165 0.0
C292 C 0.20387 0.51892 0.15479 0.0
C293 C 0.21883 0.56089 0.16052 0.0
C294 C 0.26617 0.58535 0.1618 0.0
C295 C 0.28279 0.61876 0.14582 0.0
C296 C 0.28307 0.60501 0.18426 0.0
C297 C 0.27578 0.5507 0.15588 0.0
C298 C 0.23953 0.51246 0.15216 0.0
C299 C 0.24084 0.47596 0.14645 0.0
C300 C 0.28005 0.47881 0.14406 0.0
C301 C 0.31747 0.51796 0.14711 0.0
C302 C 0.31504 0.55416 0.15334 0.0
H303 H 0.71815 0.17849 0.51924 0.0
H304 H 0.67473 0.10256 0.45973 0.0
H305 H 0.74236 0.14927 0.44486 0.0
H306 H 0.76845 0.27489 0.49863 0.0
H307 H 0.81185 0.2992 0.51778 0.0
H308 H 0.76239 0.25705 0.52465 0.0
H309 H 0.79811 0.21528 0.53535 0.0
H310 H 0.84788 0.25756 0.52873 0.0
H311 H 0.82929 0.20528 0.51683 0.0
H312 H 0.81048 0.20919 0.43522 0.0
H313 H 0.87545 0.27524 0.43186 0.0
H314 H 0.87672 0.31063 0.49831 0.0
C315 C 0.72315 0.17106 0.50322 0.0
C316 C 0.69114 0.13675 0.49066 0.0
C317 C 0.69885 0.12844 0.4697 0.0
C318 C 0.73716 0.15485 0.46111 0.0
C319 C 0.76758 0.18911 0.47375 0.0
C320 C 0.76123 0.19694 0.49445 0.0
C321 C 0.79797 0.23718 0.50431 0.0
C322 C 0.78433 0.26894 0.51177 0.0
C323 C 0.8196 0.22828 0.52237 0.0
C324 C 0.82545 0.25149 0.48573 0.0
C325 C 0.80744 0.2232 0.46831 0.0
C326 C 0.82542 0.23103 0.4489 0.0
C327 C 0.8627 0.26874 0.44722 0.0
C328 C 0.8821 0.29834 0.46489 0.0
C329 C 0.86308 0.28904 0.48444 0.0
H330 H 0.47315 0.63926 0.7918 0.0
H331 H 0.54586 0.65637 0.84924 0.0
H332 H 0.56121 0.72985 0.85446 0.0
H333 H 0.53976 0.74183 0.77448 0.0
H334 H 0.49677 0.74624 0.76385 0.0
H335 H 0.49214 0.69546 0.7648 0.0
H336 H 0.42529 0.67104 0.78576 0.0
H337 H 0.42988 0.72184 0.78501 0.0
H338 H 0.42731 0.70045 0.80988 0.0
H339 H 0.56775 0.80235 0.85336 0.0
H340 H 0.56798 0.86706 0.845 0.0
H341 H 0.48955 0.80072 0.78875 0.0
C342 C 0.49247 0.6584 0.80546 0.0
C343 C 0.50828 0.64187 0.82011 0.0
C344 C 0.53345 0.66823 0.83775 0.0
C345 C 0.54222 0.71002 0.84089 0.0
C346 C 0.52566 0.7251 0.82625 0.0
C347 C 0.50151 0.70004 0.80882 0.0
C348 C 0.48759 0.72356 0.79529 0.0
C349 C 0.50512 0.72697 0.7733 0.0
C350 C 0.43968 0.70299 0.79391 0.0
C351 C 0.50758 0.76583 0.80779 0.0
C352 C 0.52936 0.76625 0.82563 0.0
C353 C 0.5507 0.80224 0.83943 0.0
C354 C 0.55038 0.83882 0.83464 0.0
C355 C 0.52896 0.8393 0.81616 0.0
C356 C 0.50678 0.80185 0.80285 0.0
H357 H 0.82819 0.47984 0.12492 0.0
H358 H 0.87814 0.53378 0.18822 0.0
H359 H 0.81691 0.54309 0.19434 0.0
H360 H 0.78806 0.54819 0.1144 0.0
H361 H 0.74281 0.50778 0.09925 0.0
H362 H 0.79038 0.50545 0.10031 0.0
H363 H 0.74986 0.43119 0.11346 0.0
H364 H 0.70222 0.43347 0.11267 0.0
H365 H 0.72039 0.42329 0.13671 0.0
H366 H 0.74781 0.54485 0.19341 0.0
H367 H 0.68207 0.54478 0.18431 0.0
H368 H 0.6795 0.49036 0.12165 0.0
C369 C 0.82644 0.49376 0.14008 0.0
C370 C 0.85804 0.50604 0.1561 0.0
C371 C 0.85446 0.52429 0.17566 0.0
C372 C 0.81964 0.52947 0.17932 0.0
C373 C 0.78872 0.51644 0.16323 0.0
C374 C 0.79217 0.49935 0.14392 0.0
C375 C 0.75547 0.48867 0.12899 0.0
C376 C 0.77006 0.51404 0.1096 0.0
C377 C 0.73052 0.44134 0.12259 0.0
C378 C 0.73072 0.50244 0.14281 0.0
C379 C 0.75001 0.51805 0.16259 0.0
C380 C 0.73257 0.53273 0.17794 0.0
C381 C 0.6951 0.53232 0.17272 0.0
C382 C 0.67579 0.51774 0.15227 0.0
C383 C 0.69368 0.50199 0.13737 0.0
H384 H 0.39346 0.8316 0.46429 0.0
H385 H 0.40984 0.86532 0.53152 0.0
H386 H 0.33946 0.8055 0.53629 0.0
H387 H 0.28359 0.80036 0.45989 0.0
H388 H 0.27154 0.75837 0.44003 0.0
H389 H 0.32281 0.80412 0.44218 0.0
H390 H 0.35588 0.75699 0.44591 0.0
H391 H 0.30472 0.71114 0.44393 0.0
H392 H 0.3396 0.72137 0.46633 0.0
H393 H 0.26788 0.73864 0.53359 0.0
H394 H 0.1996 0.67513 0.52314 0.0
H395 H 0.23075 0.68819 0.45779 0.0
C396 C 0.3822 0.8266 0.48002 0.0
C397 C 0.40717 0.85304 0.49754 0.0
C398 C 0.39116 0.84553 0.51785 0.0
C399 C 0.3513 0.81153 0.52072 0.0
C400 C 0.32771 0.78567 0.5031 0.0
C401 C 0.34245 0.79323 0.48312 0.0
C402 C 0.31103 0.76128 0.46671 0.0
C403 C 0.29637 0.78229 0.4513 0.0
C404 C 0.32889 0.73622 0.45504 0.0
C405 C 0.27642 0.73424 0.48054 0.0
C406 C 0.28654 0.74846 0.50152 0.0
C407 C 0.25952 0.72749 0.51718 0.0
C408 C 0.22099 0.69143 0.51116 0.0
C409 C 0.20984 0.67719 0.48969 0.0
C410 C 0.23819 0.69882 0.47431 0.0
H411 H 0.54892 0.38329 0.81158 0.0
H412 H 0.52381 0.38544 0.87771 0.0
H413 H 0.51291 0.31398 0.87878 0.0
H414 H 0.475 0.27003 0.79799 0.0
H415 H 0.5102 0.26477 0.78033 0.0
H416 H 0.51085 0.31394 0.78412 0.0
H417 H 0.59003 0.35154 0.79448 0.0
H418 H 0.58956 0.30253 0.7909 0.0
H419 H 0.60826 0.33374 0.81568 0.0
H420 H 0.51028 0.24418 0.87344 0.0
H421 H 0.51716 0.18252 0.86207 0.0
H422 H 0.54475 0.22592 0.79959 0.0
C423 C 0.53999 0.36825 0.82612 0.0
C424 C 0.53678 0.38985 0.84452 0.0
C425 C 0.52623 0.36948 0.86339 0.0
C426 C 0.51992 0.32881 0.86416 0.0
C427 C 0.52437 0.30874 0.84592 0.0
C428 C 0.53403 0.32771 0.82722 0.0
C429 C 0.54008 0.30057 0.8103 0.0
C430 C 0.50706 0.28649 0.79211 0.0
C431 C 0.58462 0.32347 0.80238 0.0
C432 C 0.53319 0.26393 0.82252 0.0
C433 C 0.52367 0.26896 0.84296 0.0
C434 C 0.51732 0.23973 0.85738 0.0
C435 C 0.52116 0.20468 0.85077 0.0
C436 C 0.53167 0.19925 0.82997 0.0
C437 C 0.53717 0.22923 0.81568 0.0
H438 H 0.54141 0.84566 0.49586 0.0
H439 H 0.67289 0.9393 0.49714 0.0
H440 H 0.69097 0.88279 0.49403 0.0
H441 H 0.55022 0.77981 0.52759 0.0
H442 H 0.51018 0.73211 0.51372 0.0
H443 H 0.50836 0.77965 0.51265 0.0
H444 H 0.50661 0.77151 0.47191 0.0
H445 H 0.50877 0.72389 0.47288 0.0
H446 H 0.54718 0.76624 0.45902 0.0
H447 H 0.69415 0.81593 0.49625 0.0
H448 H 0.68214 0.74628 0.50473 0.0
H449 H 0.54854 0.69799 0.50047 0.0
C450 C 0.57405 0.85438 0.49519 0.0
C451 C 0.60584 0.8967 0.49691 0.0
C452 C 0.6481 0.90691 0.49584 0.0
C453 C 0.65858 0.87506 0.49395 0.0
C454 C 0.6263 0.83345 0.49268 0.0
C455 C 0.58485 0.82324 0.49306 0.0
C456 C 0.55597 0.77672 0.49339 0.0
C457 C 0.52969 0.76652 0.513 0.0
C458 C 0.52799 0.75853 0.47309 0.0
C459 C 0.58767 0.76233 0.49436 0.0
C460 C 0.62809 0.7952 0.49349 0.0
C461 C 0.66264 0.78981 0.49643 0.0
C462 C 0.6556 0.75024 0.50114 0.0
C463 C 0.61444 0.71711 0.50308 0.0
C464 C 0.58025 0.72289 0.4988 0.0
H465 H 0.71116 0.55876 0.84474 0.0
H466 H 0.69515 0.53321 0.77689 0.0
H467 H 0.76921 0.55162 0.77532 0.0
H468 H 0.81868 0.64635 0.84674 0.0
H469 H 0.83307 0.63049 0.87007 0.0
H470 H 0.78007 0.61925 0.86551 0.0
H471 H 0.75306 0.54034 0.86891 0.0
H472 H 0.80585 0.55137 0.87359 0.0
H473 H 0.77341 0.5136 0.85249 0.0
H474 H 0.84391 0.56782 0.78166 0.0
H475 H 0.91182 0.5786 0.79555 0.0
H476 H 0.87654 0.59179 0.85903 0.0
C477 C 0.7233 0.55762 0.8295 0.0
C478 C 0.69747 0.5447 0.81094 0.0
C479 C 0.71446 0.54311 0.79133 0.0
C480 C 0.7565 0.55366 0.79026 0.0
C481 C 0.78103 0.56587 0.80892 0.0
C482 C 0.76497 0.56789 0.82816 0.0
C483 C 0.79675 0.57906 0.84605 0.0
C484 C 0.80779 0.62131 0.85778 0.0
C485 C 0.78134 0.544 0.86113 0.0
C486 C 0.83297 0.58218 0.83395 0.0
C487 C 0.82364 0.57495 0.81254 0.0
C488 C 0.85173 0.57398 0.79839 0.0
C489 C 0.8901 0.57994 0.8064 0.0
C490 C 0.89976 0.58655 0.82836 0.0
C491 C 0.87083 0.58815 0.84215 0.0
H492 H 0.12954 0.71836 0.16528 0.0
H493 H 0.17037 0.67288 0.1113 0.0
H494 H 0.23363 0.74239 0.11097 0.0
H495 H 0.17358 0.82891 0.15011 0.0
H496 H 0.18778 0.84966 0.17716 0.0
H497 H 0.14247 0.79885 0.17075 0.0
H498 H 0.17233 0.76606 0.19556 0.0
H499 H 0.21758 0.81652 0.20198 0.0
H500 H 0.22379 0.77335 0.19168 0.0
H501 H 0.29763 0.81224 0.12048 0.0
H502 H 0.35597 0.87602 0.13887 0.0
H503 H 0.27147 0.87746 0.18519 0.0
C504 C 0.15123 0.72333 0.15305 0.0
C505 C 0.14508 0.6903 0.13833 0.0
C506 C 0.17435 0.69787 0.12266 0.0
C507 C 0.21032 0.73729 0.12231 0.0
C508 C 0.21607 0.76894 0.13745 0.0
C509 C 0.18698 0.76251 0.15235 0.0
C510 C 0.20219 0.80012 0.16812 0.0
C511 C 0.17488 0.8206 0.16642 0.0
C512 C 0.2041 0.78829 0.19065 0.0
C513 C 0.24536 0.82777 0.16052 0.0
C514 C 0.25264 0.80966 0.14261 0.0
C515 C 0.29195 0.82731 0.13417 0.0
C516 C 0.32491 0.86366 0.14467 0.0
C517 C 0.31829 0.88173 0.16347 0.0
C518 C 0.27756 0.86433 0.17089 0.0
H519 H 0.52822 0.1635 0.50444 0.0
H520 H 0.60288 0.19064 0.44951 0.0
H521 H 0.60946 0.26077 0.45056 0.0
H522 H 0.47393 0.22141 0.49131 0.0
H523 H 0.47499 0.23872 0.5185 0.0
H524 H 0.47221 0.18918 0.51173 0.0
H525 H 0.53839 0.21257 0.53584 0.0
H526 H 0.54168 0.26226 0.54251 0.0
H527 H 0.58564 0.26041 0.5316 0.0
H528 H 0.61491 0.33076 0.46042 0.0
H529 H 0.61618 0.39364 0.47731 0.0
H530 H 0.53542 0.31869 0.52477 0.0
C531 C 0.54529 0.18384 0.49237 0.0
C532 C 0.5651 0.17174 0.47692 0.0
C533 C 0.5873 0.19929 0.46145 0.0
C534 C 0.59121 0.23914 0.46192 0.0
C535 C 0.57221 0.25053 0.47776 0.0
C536 C 0.54923 0.22342 0.49253 0.0
C537 C 0.5339 0.24384 0.50867 0.0
C538 C 0.48591 0.22199 0.50747 0.0
C539 C 0.55094 0.24483 0.53096 0.0
C540 C 0.55307 0.28718 0.50112 0.0
C541 C 0.57479 0.29045 0.4832 0.0
C542 C 0.59732 0.32837 0.47421 0.0
C543 C 0.59777 0.36387 0.48389 0.0
C544 C 0.57589 0.36111 0.50237 0.0
C545 C 0.55282 0.32201 0.5108 0.0
H546 H 0.33812 0.45624 0.869 0.0
H547 H 0.36277 0.48549 0.80411 0.0
H548 H 0.29477 0.48209 0.79976 0.0
H549 H 0.22133 0.38573 0.86032 0.0
H550 H 0.21209 0.40511 0.88517 0.0
H551 H 0.25912 0.4022 0.8821 0.0
H552 H 0.3035 0.48107 0.89449 0.0
H553 H 0.25682 0.48438 0.89738 0.0
H554 H 0.29668 0.51868 0.88083 0.0
H555 H 0.23132 0.48835 0.8042 0.0
H556 H 0.17534 0.50081 0.81674 0.0
H557 H 0.1888 0.46307 0.87808 0.0
C558 C 0.32865 0.46063 0.85369 0.0
C559 C 0.35575 0.47111 0.83691 0.0
C560 C 0.34251 0.47733 0.81721 0.0
C561 C 0.30384 0.47532 0.81454 0.0
C562 C 0.2785 0.46644 0.83161 0.0
C563 C 0.29004 0.45857 0.85073 0.0
C564 C 0.25901 0.45382 0.86713 0.0
C565 C 0.23655 0.40904 0.87408 0.0
C566 C 0.28028 0.48644 0.88606 0.0
C567 C 0.22952 0.46245 0.85453 0.0
C568 C 0.24098 0.4691 0.83402 0.0
C569 C 0.22119 0.48197 0.82005 0.0
C570 C 0.18923 0.48882 0.82732 0.0
C571 C 0.1773 0.48274 0.8484 0.0
C572 C 0.19715 0.46827 0.86191 0.0
H573 H 0.84356 0.38431 0.20698 0.0
H574 H 0.88159 0.34906 0.14857 0.0
H575 H 0.81911 0.27846 0.14758 0.0
H576 H 0.80177 0.28452 0.2292 0.0
H577 H 0.75935 0.28842 0.24074 0.0
H578 H 0.80798 0.33519 0.23712 0.0
H579 H 0.76817 0.36319 0.21579 0.0
H580 H 0.71947 0.31639 0.2192 0.0
H581 H 0.73518 0.33188 0.19315 0.0
H582 H 0.75067 0.21222 0.15261 0.0
H583 H 0.68373 0.15534 0.16397 0.0
H584 H 0.69106 0.23606 0.21842 0.0
C585 C 0.83912 0.36168 0.19407 0.0
C586 C 0.86751 0.37213 0.17789 0.0
C587 C 0.86028 0.34165 0.1612 0.0
C588 C 0.82486 0.30154 0.16047 0.0
C589 C 0.79711 0.29255 0.17654 0.0
C590 C 0.80401 0.32176 0.19306 0.0
C591 C 0.76914 0.30486 0.20814 0.0
C592 C 0.78555 0.30314 0.23009 0.0
C593 C 0.74667 0.33061 0.20911 0.0
C594 C 0.74144 0.26151 0.19754 0.0
C595 C 0.75795 0.25487 0.17933 0.0
C596 C 0.7375 0.21706 0.16686 0.0
C597 C 0.69939 0.18508 0.17334 0.0
C598 C 0.68231 0.19122 0.19212 0.0
C599 C 0.70361 0.23014 0.20417 0.0
H600 H 0.99984 0.48691 0.09215 0.0
H601 H 0.96836 0.58324 0.10968 0.0
H602 H 0.96353 0.59423 0.07237 0.0
H603 H 0.06605 0.53928 0.05285 0.0
H604 H 0.05137 0.49372 0.03499 0.0
H605 H 0.04661 0.48862 0.0628 0.0
H606 H 0.96815 0.43323 0.05662 0.0
H607 H 0.97274 0.43775 0.02871 0.0
H608 H 0.93411 0.44563 0.04207 0.0
H609 H 0.96967 0.60064 0.03422 0.0
H610 H 0.98427 0.60058 0.99672 0.0
H611 H 0.01119 0.49966 0.00313 0.0
C612 C 0.99079 0.50942 0.08802 0.0
C613 C 0.98427 0.53411 0.10369 0.0
C614 C 0.97351 0.56406 0.09784 0.0
C615 C 0.97055 0.57044 0.07672 0.0
C616 C 0.97846 0.54662 0.06164 0.0
C617 C 0.98808 0.5165 0.06691 0.0
C618 C 0.99836 0.49768 0.04765 0.0
C619 C 0.04326 0.5053 0.04971 0.0
C620 C 0.96642 0.45079 0.04352 0.0
C621 C 0.99401 0.52272 0.0309 0.0
C622 C 0.98214 0.55046 0.03933 0.0
C623 C 0.97818 0.5785 0.0273 0.0
C624 C 0.98642 0.57811 0.00598 0.0
C625 C 0.99846 0.54984 0.99688 0.0
C626 C 1.00215 0.52173 0.00959 0.0
H627 H 0.5147 0.04126 0.44097 0.0
H628 H 0.51698 0.92511 0.44351 0.0
H629 H 0.50566 0.9125 0.40493 0.0
H630 H 0.43667 0.00699 0.39778 0.0
H631 H 0.46293 0.05643 0.38627 0.0
H632 H 0.46797 0.05475 0.41424 0.0
H633 H 0.54858 0.09338 0.41259 0.0
H634 H 0.54386 0.09511 0.38463 0.0
H635 H 0.57247 0.07192 0.39509 0.0
H636 H 0.49535 0.91301 0.36625 0.0
H637 H 0.49061 0.92857 0.32959 0.0
H638 H 0.49868 0.04606 0.35203 0.0
C639 C 0.51226 0.01291 0.43342 0.0
C640 C 0.51626 0.98392 0.44521 0.0
C641 C 0.51376 0.94761 0.43476 0.0
C642 C 0.50727 0.94013 0.41288 0.0
C643 C 0.50383 0.96952 0.4017 0.0
C644 C 0.50651 0.00532 0.41157 0.0
C645 C 0.50432 0.0331 0.39577 0.0
C646 C 0.46566 0.03809 0.39869 0.0
C647 C 0.54471 0.0759 0.3971 0.0
C648 C 0.50017 0.00737 0.37548 0.0
C649 C 0.49946 0.97058 0.37928 0.0
C650 C 0.49579 0.94165 0.36305 0.0
C651 C 0.49297 0.95066 0.34233 0.0
C652 C 0.49429 0.98845 0.33808 0.0
C653 C 0.49788 0.01707 0.35489 0.0
H654 H 0.49087 0.47147 0.75856 0.0
H655 H 0.58224 0.59944 0.78024 0.0
H656 H 0.59038 0.619 0.7437 0.0
H657 H 0.54461 0.46613 0.71448 0.0
H658 H 0.49879 0.43445 0.69735 0.0
H659 H 0.49556 0.43119 0.72533 0.0
H660 H 0.4359 0.44902 0.72505 0.0
H661 H 0.43876 0.45208 0.697 0.0
H662 H 0.44394 0.49582 0.71378 0.0
H663 H 0.59264 0.62399 0.70537 0.0
H664 H 0.5907 0.61384 0.66679 0.0
H665 H 0.49974 0.48207 0.66911 0.0
C666 C 0.51182 0.50373 0.75554 0.0
C667 C 0.53575 0.5341 0.77208 0.0
C668 C 0.56371 0.57581 0.76768 0.0
C669 C 0.56838 0.58724 0.74703 0.0
C670 C 0.54511 0.55648 0.73098 0.0
C671 C 0.51746 0.51555 0.7349 0.0
C672 C 0.49912 0.48802 0.71455 0.0
C673 C 0.5102 0.45289 0.71284 0.0
C674 C 0.4516 0.47019 0.71248 0.0
C675 C 0.52144 0.51977 0.69868 0.0
C676 C 0.5473 0.55914 0.70856 0.0
C677 C 0.57215 0.59345 0.6974 0.0
C678 C 0.57071 0.58739 0.67549 0.0
C679 C 0.54482 0.54727 0.66497 0.0
C680 C 0.51979 0.51307 0.67676 0.0
H681 H 0.53988 0.97816 0.57209 0.0
H682 H 0.59979 0.10946 0.5601 0.0
H683 H 0.61294 0.12937 0.59825 0.0
H684 H 0.4876 0.98694 0.61697 0.0
H685 H 0.49378 0.94918 0.63083 0.0
H686 H 0.49139 0.94536 0.60254 0.0
H687 H 0.56246 0.94703 0.60254 0.0
H688 H 0.56513 0.95098 0.63086 0.0
H689 H 0.60725 0.98976 0.61693 0.0
H690 H 0.61886 0.13499 0.63759 0.0
H691 H 0.61403 0.12596 0.67557 0.0
H692 H 0.54693 0.99088 0.66186 0.0
C693 C 0.55614 0.01111 0.57748 0.0
C694 C 0.569 0.04228 0.56313 0.0
C695 C 0.5896 0.08505 0.57082 0.0
C696 C 0.59738 0.09668 0.59244 0.0
C697 C 0.58412 0.06517 0.60616 0.0
C698 C 0.56372 0.02327 0.59901 0.0
C699 C 0.55088 0.99556 0.6171 0.0
C700 C 0.50308 0.96763 0.61684 0.0
C701 C 0.57275 0.96929 0.61684 0.0
C702 C 0.56708 0.02846 0.63553 0.0
C703 C 0.58648 0.06839 0.62887 0.0
C704 C 0.60361 0.10387 0.64301 0.0
C705 C 0.60043 0.09839 0.66455 0.0
C706 C 0.57988 0.0577 0.67176 0.0
C707 C 0.56333 0.0224 0.65694 0.0
H708 H 0.47318 0.48709 0.89534 0.0
H709 H 0.60163 0.58605 0.89089 0.0
H710 H 0.60713 0.60314 0.92907 0.0
H711 H 0.44584 0.54061 0.93751 0.0
H712 H 0.41482 0.49348 0.9504 0.0
H713 H 0.41933 0.49062 0.92233 0.0
H714 H 0.44592 0.43798 0.92543 0.0
H715 H 0.44136 0.44056 0.95347 0.0
H716 H 0.4906 0.45196 0.9428 0.0
H717 H 0.60076 0.60794 0.96732 0.0
H718 H 0.58381 0.59766 0.00444 0.0
H719 H 0.45994 0.49503 0.98517 0.0
C720 C 0.50227 0.51263 0.9024 0.0
C721 C 0.53695 0.53529 0.8901 0.0
C722 C 0.57467 0.56814 0.89996 0.0
C723 C 0.57807 0.5783 0.92163 0.0
C724 C 0.54351 0.55533 0.9333 0.0
C725 C 0.50636 0.52305 0.92415 0.0
C726 C 0.47499 0.50179 0.94066 0.0
C727 C 0.43646 0.50695 0.93753 0.0
C728 C 0.4625 0.45532 0.94058 0.0
C729 C 0.50069 0.52676 0.96049 0.0
C730 C 0.53993 0.55778 0.95575 0.0
C731 C 0.57009 0.58395 0.97127 0.0
C732 C 0.56024 0.57777 0.99228 0.0
C733 C 0.52067 0.54553 -0.0024 0.0
C734 C 0.49021 0.52023 0.98149 0.0
H735 H 1.00262 0.48072 0.22591 0.0
H736 H 0.03751 0.61173 0.2252 0.0
H737 H 0.04159 0.61889 0.26386 0.0
H738 H 0.93949 0.45906 0.27158 0.0
H739 H 0.95684 0.42546 0.2817 0.0
H740 H 0.95499 0.42974 0.2538 0.0
H741 H 0.03325 0.45118 0.25262 0.0
H742 H 0.0353 0.44681 0.28048 0.0
H743 H 0.07124 0.49507 0.26966 0.0
H744 H 0.04271 0.61272 0.30217 0.0
H745 H 0.04421 0.59436 0.33842 0.0
H746 H 0.01081 0.46795 0.31487 0.0
C747 C 0.01096 0.51086 0.23389 0.0
C748 C 0.0197 0.54565 0.2225 0.0
C749 C 0.03076 0.58463 0.23355 0.0
C750 C 0.03301 0.58901 0.25552 0.0
C751 C 0.02422 0.5542 0.26625 0.0
C752 C 0.01364 0.51592 0.25589 0.0
C753 C 0.00721 0.48398 0.27134 0.0
C754 C 0.96194 0.4474 0.26949 0.0
C755 C 0.03863 0.46836 0.26834 0.0
C756 C 0.01622 0.51051 0.29196 0.0
C757 C 0.02561 0.55079 0.28859 0.0
C758 C 0.03557 0.58134 0.30505 0.0
C759 C 0.03659 0.57066 0.32557 0.0
C760 C 0.02806 0.52986 0.32946 0.0
C761 C 0.01718 0.49928 0.3124 0.0
loop_
_geom_bond_atom_site_label_1
_geom_bond_atom_site_label_2
_geom_bond_distance
_geom_bond_site_symmetry_2
_ccdc_geom_bond_type
Zn0 O6 1.969 . S
Zn0 O7 1.965 . S
Zn0 O11 2.024 . S
Zn0 O16 1.969 . S
Zn1 O8 1.969 . S
Zn1 O14 1.969 . S
Zn1 O15 1.965 . S
Zn1 O17 2.024 . S
C2 O3 1.229 . S
C2 O11 1.058 . S
O3 C2 1.229 . S
C4 O5 1.229 . S
C4 O17 1.058 . S
O5 C4 1.229 . S
O6 Zn0 1.969 . S
O6 C9 1.267 . S
O7 Zn0 1.965 . S
O7 C18 1.260 1_455 S
O8 Zn1 1.969 . S
O8 C18 1.258 . S
C9 O6 1.267 . S
C9 O10 1.228 . S
O10 C9 1.228 . S
O11 Zn0 2.024 . S
O11 C2 1.058 . S
C12 O13 1.228 . S
C12 O14 1.267 . S
O13 C12 1.228 . S
O14 Zn1 1.969 . S
O14 C12 1.267 . S
O15 Zn1 1.965 . S
O15 C19 1.260 1_655 S
O16 Zn0 1.969 . S
O16 C19 1.258 . S
O17 Zn1 2.024 . S
O17 C4 1.058 . S
C18 O7 1.260 1_655 S
C18 O8 1.258 . S
C19 O15 1.260 1_455 S
C19 O16 1.258 . S
Zn20 O26 1.969 . S
Zn20 O27 1.965 . S
Zn20 O31 2.024 . S
Zn20 O36 1.969 . S
Zn21 O28 1.969 . S
Zn21 O34 1.969 . S
Zn21 O35 1.965 . S
Zn21 O37 2.024 . S
C22 O23 1.229 . S
C22 O31 1.058 . S
O23 C22 1.229 . S
C24 O25 1.229 . S
C24 O37 1.058 . S
O25 C24 1.229 . S
O26 Zn20 1.969 . S
O26 C29 1.267 . S
O27 Zn20 1.965 . S
O27 C38 1.260 . S
O28 Zn21 1.969 . S
O28 C38 1.258 1_565 S
C29 O26 1.267 . S
C29 O30 1.228 . S
O30 C29 1.228 . S
O31 Zn20 2.024 . S
O31 C22 1.058 . S
C32 O33 1.228 . S
C32 O34 1.267 . S
O33 C32 1.228 . S
O34 Zn21 1.969 . S
O34 C32 1.267 . S
O35 Zn21 1.965 . S
O35 C39 1.260 1_565 S
O36 Zn20 1.969 . S
O36 C39 1.258 . S
O37 Zn21 2.024 . S
O37 C24 1.058 . S
C38 O27 1.260 . S
C38 O28 1.258 1_545 S
C39 O35 1.260 1_545 S
C39 O36 1.258 . S
Zn40 O46 1.969 . S
Zn40 O47 1.965 . S
Zn40 O51 2.024 . S
Zn40 O56 1.969 . S
Zn41 O48 1.969 . S
Zn41 O54 1.969 . S
Zn41 O55 1.965 . S
Zn41 O57 2.024 . S
C42 O43 1.229 . S
C42 O51 1.058 . S
O43 C42 1.229 . S
C44 O45 1.229 . S
C44 O57 1.058 . S
O45 C44 1.229 . S
O46 Zn40 1.969 . S
O46 C49 1.267 . S
O47 Zn40 1.965 . S
O47 C58 1.260 . S
O48 Zn41 1.969 . S
O48 C58 1.258 . S
C49 O46 1.267 . S
C49 O50 1.228 . S
O50 C49 1.228 . S
O51 Zn40 2.024 . S
O51 C42 1.058 . S
C52 O53 1.228 . S
C52 O54 1.267 . S
O53 C52 1.228 . S
O54 Zn41 1.969 . S
O54 C52 1.267 . S
O55 Zn41 1.965 . S
O55 C59 1.260 . S
O56 Zn40 1.969 . S
O56 C59 1.258 . S
O57 Zn41 2.024 . S
O57 C44 1.058 . S
C58 O47 1.260 . S
C58 O48 1.258 . S
C59 O55 1.260 . S
C59 O56 1.258 . S
C60 C61 1.384 . S
C60 H73 0.947 . S
C60 C95 1.382 . S
C61 C60 1.384 . S
C61 C62 1.378 . S
C62 C61 1.378 . S
C62 C63 1.378 . S
C62 H74 0.952 . S
C63 C62 1.378 . S
C63 H75 0.950 . S
C63 C94 1.383 . S
H64 C83 0.947 . S
H65 C84 0.946 . S
H66 C86 0.953 . S
H67 C87 0.945 . S
H68 C89 0.952 . S
H69 C90 0.949 . S
H70 C92 0.950 . S
H71 C93 0.948 . S
H72 C95 0.951 . S
H73 C60 0.947 . S
H74 C62 0.952 . S
H75 C63 0.950 . S
N76 C79 1.382 . S
N76 C81 1.363 1_545 S
N77 C79 1.371 . S
N77 C80 1.372 . S
N78 C80 1.361 1_565 S
N78 C81 1.377 . S
C79 N76 1.382 . S
C79 N77 1.371 . S
C79 C82 1.480 . S
C80 N77 1.372 . S
C80 N78 1.361 1_545 S
C80 C88 1.457 . S
C81 N76 1.363 1_565 S
C81 N78 1.377 . S
C81 C94 1.479 . S
C82 C79 1.480 . S
C82 C83 1.383 . S
C82 C87 1.385 . S
C83 H64 0.947 . S
C83 C82 1.383 . S
C83 C84 1.388 . S
C84 H65 0.946 . S
C84 C83 1.388 . S
C84 C85 1.384 . S
C85 C84 1.384 . S
C85 C86 1.377 . S
C86 H66 0.953 . S
C86 C85 1.377 . S
C86 C87 1.369 . S
C87 H67 0.945 . S
C87 C82 1.385 . S
C87 C86 1.369 . S
C88 C80 1.457 . S
C88 C89 1.372 . S
C88 C93 1.364 1_545 S
C89 H68 0.952 . S
C89 C88 1.372 . S
C89 C90 1.389 . S
C90 H69 0.949 . S
C90 C89 1.389 . S
C90 C91 1.387 . S
C91 C90 1.387 . S
C91 C92 1.372 1_545 S
C92 H70 0.950 . S
C92 C91 1.372 1_565 S
C92 C93 1.379 . S
C93 H71 0.948 . S
C93 C88 1.364 1_565 S
C93 C92 1.379 . S
C94 C63 1.383 . S
C94 C81 1.479 . S
C94 C95 1.398 . S
C95 C60 1.382 . S
C95 H72 0.951 . S
C95 C94 1.398 . S
C96 C97 1.384 . S
C96 H109 0.947 . S
C96 C131 1.382 . S
C97 C96 1.384 . S
C97 C98 1.378 . S
C98 C97 1.378 . S
C98 C99 1.378 . S
C98 H110 0.952 . S
C99 C98 1.378 . S
C99 H111 0.950 . S
C99 C130 1.383 . S
H100 C119 0.947 . S
H101 C120 0.946 . S
H102 C122 0.953 . S
H103 C123 0.945 . S
H104 C125 0.952 . S
H105 C126 0.949 . S
H106 C128 0.950 . S
H107 C129 0.948 . S
H108 C131 0.951 . S
H109 C96 0.947 . S
H110 C98 0.952 . S
H111 C99 0.950 . S
N112 C115 1.382 . S
N112 C117 1.363 . S
N113 C115 1.371 . S
N113 C116 1.372 . S
N114 C116 1.361 . S
N114 C117 1.377 . S
C115 N112 1.382 . S
C115 N113 1.371 . S
C115 C118 1.480 . S
C116 N113 1.372 . S
C116 N114 1.361 . S
C116 C124 1.457 . S
C117 N112 1.363 . S
C117 N114 1.377 . S
C117 C130 1.479 . S
C118 C115 1.480 . S
C118 C119 1.383 . S
C118 C123 1.385 . S
C119 H100 0.947 . S
C119 C118 1.383 . S
C119 C120 1.388 . S
C120 H101 0.946 . S
C120 C119 1.388 . S
C120 C121 1.384 . S
C121 C120 1.384 . S
C121 C122 1.377 . S
C122 H102 0.953 . S
C122 C121 1.377 . S
C122 C123 1.369 . S
C123 H103 0.945 . S
C123 C118 1.385 . S
C123 C122 1.369 . S
C124 C116 1.457 . S
C124 C125 1.372 . S
C124 C129 1.364 . S
C125 H104 0.952 . S
C125 C124 1.372 . S
C125 C126 1.389 . S
C126 H105 0.949 . S
C126 C125 1.389 . S
C126 C127 1.387 . S
C127 C126 1.387 . S
C127 C128 1.372 . S
C128 H106 0.950 . S
C128 C127 1.372 . S
C128 C129 1.379 . S
C129 H107 0.948 . S
C129 C124 1.364 . S
C129 C128 1.379 . S
C130 C99 1.383 . S
C130 C117 1.479 . S
C130 C131 1.398 . S
C131 C96 1.382 . S
C131 H108 0.951 . S
C131 C130 1.398 . S
C132 C133 1.384 . S
C132 H145 0.947 . S
C132 C167 1.382 . S
C133 C132 1.384 . S
C133 C134 1.378 . S
C134 C133 1.378 . S
C134 C135 1.378 . S
C134 H146 0.952 . S
C135 C134 1.378 . S
C135 H147 0.950 . S
C135 C166 1.383 . S
H136 C155 0.947 . S
H137 C156 0.946 . S
H138 C158 0.953 . S
H139 C159 0.945 . S
H140 C161 0.952 . S
H141 C162 0.949 . S
H142 C164 0.950 . S
H143 C165 0.948 . S
H144 C167 0.951 . S
H145 C132 0.947 . S
H146 C134 0.952 . S
H147 C135 0.950 . S
N148 C151 1.382 . S
N148 C153 1.363 1_455 S
N149 C151 1.371 . S
N149 C152 1.372 . S
N150 C152 1.361 1_655 S
N150 C153 1.377 . S
C151 N148 1.382 . S
C151 N149 1.371 . S
C151 C154 1.480 . S
C152 N149 1.372 . S
C152 N150 1.361 1_455 S
C152 C160 1.457 . S
C153 N148 1.363 1_655 S
C153 N150 1.377 . S
C153 C166 1.479 . S
C154 C151 1.480 . S
C154 C155 1.383 . S
C154 C159 1.385 . S
C155 H136 0.947 . S
C155 C154 1.383 . S
C155 C156 1.388 . S
C156 H137 0.946 . S
C156 C155 1.388 . S
C156 C157 1.384 . S
C157 C156 1.384 . S
C157 C158 1.377 . S
C158 H138 0.953 . S
C158 C157 1.377 . S
C158 C159 1.369 . S
C159 H139 0.945 . S
C159 C154 1.385 . S
C159 C158 1.369 . S
C160 C152 1.457 . S
C160 C161 1.372 . S
C160 C165 1.364 1_455 S
C161 H140 0.952 . S
C161 C160 1.372 . S
C161 C162 1.389 . S
C162 H141 0.949 . S
C162 C161 1.389 . S
C162 C163 1.387 . S
C163 C162 1.387 . S
C163 C164 1.372 1_455 S
C164 H142 0.950 . S
C164 C163 1.372 1_655 S
C164 C165 1.379 . S
C165 H143 0.948 . S
C165 C160 1.364 1_655 S
C165 C164 1.379 . S
C166 C135 1.383 . S
C166 C153 1.479 . S
C166 C167 1.398 . S
C167 C132 1.382 . S
C167 H144 0.951 . S
C167 C166 1.398 . S
C168 C169 1.384 . S
C168 H181 0.947 . S
C168 C203 1.382 . S
C169 C168 1.384 . S
C169 C170 1.378 . S
C170 C169 1.378 . S
C170 C171 1.378 . S
C170 H182 0.952 . S
C171 C170 1.378 . S
C171 H183 0.950 . S
C171 C202 1.383 . S
H172 C191 0.947 . S
H173 C192 0.946 . S
H174 C194 0.953 . S
H175 C195 0.945 . S
H176 C197 0.952 . S
H177 C198 0.949 . S
H178 C200 0.950 . S
H179 C201 0.948 . S
H180 C203 0.951 . S
H181 C168 0.947 . S
H182 C170 0.952 . S
H183 C171 0.950 . S
N184 C187 1.382 1_455 S
N184 C189 1.363 . S
N185 C187 1.371 . S
N185 C188 1.372 1_655 S
N186 C188 1.361 . S
N186 C189 1.377 . S
C187 N184 1.382 1_655 S
C187 N185 1.371 . S
C187 C190 1.480 . S
C188 N185 1.372 1_455 S
C188 N186 1.361 . S
C188 C196 1.457 . S
C189 N184 1.363 . S
C189 N186 1.377 . S
C189 C202 1.479 . S
C190 C187 1.480 . S
C190 C191 1.383 . S
C190 C195 1.385 . S
C191 H172 0.947 . S
C191 C190 1.383 . S
C191 C192 1.388 . S
C192 H173 0.946 . S
C192 C191 1.388 . S
C192 C193 1.384 . S
C193 C192 1.384 . S
C193 C194 1.377 . S
C194 H174 0.953 . S
C194 C193 1.377 . S
C194 C195 1.369 . S
C195 H175 0.945 . S
C195 C190 1.385 . S
C195 C194 1.369 . S
C196 C188 1.457 . S
C196 C197 1.372 1_455 S
C196 C201 1.364 . S
C197 H176 0.952 . S
C197 C196 1.372 1_655 S
C197 C198 1.389 . S
C198 H177 0.949 . S
C198 C197 1.389 . S
C198 C199 1.387 1_655 S
C199 C198 1.387 1_455 S
C199 C200 1.372 . S
C200 H178 0.950 . S
C200 C199 1.372 . S
C200 C201 1.379 . S
C201 H179 0.948 . S
C201 C196 1.364 . S
C201 C200 1.379 . S
C202 C171 1.383 . S
C202 C189 1.479 . S
C202 C203 1.398 . S
C203 C168 1.382 . S
C203 H180 0.951 . S
C203 C202 1.398 . S
C204 C205 1.384 . S
C204 H217 0.947 . S
C204 C239 1.382 . S
C205 C204 1.384 . S
C205 C206 1.378 . S
C206 C205 1.378 . S
C206 C207 1.378 . S
C206 H218 0.952 . S
C207 C206 1.378 . S
C207 H219 0.950 . S
C207 C238 1.383 . S
H208 C227 0.947 . S
H209 C228 0.946 . S
H210 C230 0.953 . S
H211 C231 0.945 . S
H212 C233 0.952 . S
H213 C234 0.949 . S
H214 C236 0.950 . S
H215 C237 0.948 . S
H216 C239 0.951 . S
H217 C204 0.947 . S
H218 C206 0.952 . S
H219 C207 0.950 . S
N220 C223 1.382 1_545 S
N220 C225 1.363 . S
N221 C223 1.371 . S
N221 C224 1.372 1_565 S
N222 C224 1.361 . S
N222 C225 1.377 . S
C223 N220 1.382 1_565 S
C223 N221 1.371 . S
C223 C226 1.480 . S
C224 N221 1.372 1_545 S
C224 N222 1.361 . S
C224 C232 1.457 . S
C225 N220 1.363 . S
C225 N222 1.377 . S
C225 C238 1.479 . S
C226 C223 1.480 . S
C226 C227 1.383 . S
C226 C231 1.385 . S
C227 H208 0.947 . S
C227 C226 1.383 . S
C227 C228 1.388 . S
C228 H209 0.946 . S
C228 C227 1.388 . S
C228 C229 1.384 . S
C229 C228 1.384 . S
C229 C230 1.377 . S
C230 H210 0.953 . S
C230 C229 1.377 . S
C230 C231 1.369 . S
C231 H211 0.945 . S
C231 C226 1.385 . S
C231 C230 1.369 . S
C232 C224 1.457 . S
C232 C233 1.372 1_545 S
C232 C237 1.364 . S
C233 H212 0.952 . S
C233 C232 1.372 1_565 S
C233 C234 1.389 . S
C234 H213 0.949 . S
C234 C233 1.389 . S
C234 C235 1.387 1_565 S
C235 C234 1.387 1_545 S
C235 C236 1.372 . S
C236 H214 0.950 . S
C236 C235 1.372 . S
C236 C237 1.379 . S
C237 H215 0.948 . S
C237 C232 1.364 . S
C237 C236 1.379 . S
C238 C207 1.383 . S
C238 C225 1.479 . S
C238 C239 1.398 . S
C239 C204 1.382 . S
C239 H216 0.951 . S
C239 C238 1.398 . S
C240 C241 1.384 . S
C240 H253 0.947 . S
C240 C275 1.382 . S
C241 C240 1.384 . S
C241 C242 1.378 . S
C242 C241 1.378 . S
C242 C243 1.378 . S
C242 H254 0.952 . S
C243 C242 1.378 . S
C243 H255 0.950 . S
C243 C274 1.383 . S
H244 C263 0.947 . S
H245 C264 0.946 . S
H246 C266 0.953 . S
H247 C267 0.945 . S
H248 C269 0.952 . S
H249 C270 0.949 . S
H250 C272 0.950 . S
H251 C273 0.948 . S
H252 C275 0.951 . S
H253 C240 0.947 . S
H254 C242 0.952 . S
H255 C243 0.950 . S
N256 C259 1.382 . S
N256 C261 1.363 . S
N257 C259 1.371 . S
N257 C260 1.372 . S
N258 C260 1.361 . S
N258 C261 1.377 . S
C259 N256 1.382 . S
C259 N257 1.371 . S
C259 C262 1.480 . S
C260 N257 1.372 . S
C260 N258 1.361 . S
C260 C268 1.457 . S
C261 N256 1.363 . S
C261 N258 1.377 . S
C261 C274 1.479 . S
C262 C259 1.480 . S
C262 C263 1.383 . S
C262 C267 1.385 . S
C263 H244 0.947 . S
C263 C262 1.383 . S
C263 C264 1.388 . S
C264 H245 0.946 . S
C264 C263 1.388 . S
C264 C265 1.384 . S
C265 C264 1.384 . S
C265 C266 1.377 . S
C266 H246 0.953 . S
C266 C265 1.377 . S
C266 C267 1.369 . S
C267 H247 0.945 . S
C267 C262 1.385 . S
C267 C266 1.369 . S
C268 C260 1.457 . S
C268 C269 1.372 . S
C268 C273 1.364 . S
C269 H248 0.952 . S
C269 C268 1.372 . S
C269 C270 1.389 . S
C270 H249 0.949 . S
C270 C269 1.389 . S
C270 C271 1.387 . S
C271 C270 1.387 . S
C271 C272 1.372 . S
C272 H250 0.950 . S
C272 C271 1.372 . S
C272 C273 1.379 . S
C273 H251 0.948 . S
C273 C268 1.364 . S
C273 C272 1.379 . S
C274 C243 1.383 . S
C274 C261 1.479 . S
C274 C275 1.398 . S
C275 C240 1.382 . S
C275 H252 0.951 . S
C275 C274 1.398 . S
H276 C288 0.930 . S
H277 C290 0.930 . S
H278 C291 0.930 . S
H279 C295 0.959 . S
H280 C295 0.959 . S
H281 C295 0.961 . S
H282 C296 0.960 . S
H283 C296 0.961 . S
H284 C296 0.959 . S
H285 C299 0.929 . S
H286 C300 0.931 . S
H287 C302 0.930 . S
C288 H276 0.930 . S
C288 C289 1.399 . S
C288 C293 1.399 . S
C289 C288 1.399 . S
C289 C290 1.376 . S
C290 H277 0.930 . S
C290 C289 1.376 . S
C290 C291 1.388 . S
C291 H278 0.930 . S
C291 C290 1.388 . S
C291 C292 1.390 . S
C292 C291 1.390 . S
C292 C293 1.394 . S
C292 C298 1.465 . S
C293 C288 1.399 . S
C293 C292 1.394 . S
C293 C294 1.516 . S
C294 C293 1.516 . S
C294 C295 1.502 . S
C294 C296 1.561 . S
C294 C297 1.526 . S
C295 H279 0.959 . S
C295 H280 0.959 . S
C295 H281 0.961 . S
C295 C294 1.502 . S
C296 H282 0.960 . S
C296 H283 0.961 . S
C296 H284 0.959 . S
C296 C294 1.561 . S
C297 C294 1.526 . S
C297 C298 1.396 . S
C297 C302 1.390 . S
C298 C292 1.465 . S
C298 C297 1.396 . S
C298 C299 1.399 . S
C299 H285 0.929 . S
C299 C298 1.399 . S
C299 C300 1.385 . S
C300 H286 0.931 . S
C300 C299 1.385 . S
C300 C301 1.389 . S
C301 C300 1.389 . S
C301 C302 1.387 . S
C302 H287 0.930 . S
C302 C297 1.390 . S
C302 C301 1.387 . S
H303 C315 0.930 . S
H304 C317 0.930 . S
H305 C318 0.930 . S
H306 C322 0.959 . S
H307 C322 0.959 . S
H308 C322 0.961 . S
H309 C323 0.960 . S
H310 C323 0.961 . S
H311 C323 0.959 . S
H312 C326 0.929 . S
H313 C327 0.931 . S
H314 C329 0.930 . S
C315 H303 0.930 . S
C315 C316 1.399 . S
C315 C320 1.399 . S
C316 C315 1.399 . S
C316 C317 1.376 . S
C317 H304 0.930 . S
C317 C316 1.376 . S
C317 C318 1.388 . S
C318 H305 0.930 . S
C318 C317 1.388 . S
C318 C319 1.390 . S
C319 C318 1.390 . S
C319 C320 1.394 . S
C319 C325 1.465 . S
C320 C315 1.399 . S
C320 C319 1.394 . S
C320 C321 1.516 . S
C321 C320 1.516 . S
C321 C322 1.502 . S
C321 C323 1.561 . S
C321 C324 1.526 . S
C322 H306 0.959 . S
C322 H307 0.959 . S
C322 H308 0.961 . S
C322 C321 1.502 . S
C323 H309 0.960 . S
C323 H310 0.961 . S
C323 H311 0.959 . S
C323 C321 1.561 . S
C324 C321 1.526 . S
C324 C325 1.396 . S
C324 C329 1.390 . S
C325 C319 1.465 . S
C325 C324 1.396 . S
C325 C326 1.399 . S
C326 H312 0.929 . S
C326 C325 1.399 . S
C326 C327 1.385 . S
C327 H313 0.931 . S
C327 C326 1.385 . S
C327 C328 1.389 . S
C328 C327 1.389 . S
C328 C329 1.387 . S
C329 H314 0.930 . S
C329 C324 1.390 . S
C329 C328 1.387 . S
H330 C342 0.930 . S
H331 C344 0.930 . S
H332 C345 0.930 . S
H333 C349 0.959 . S
H334 C349 0.959 . S
H335 C349 0.961 . S
H336 C350 0.960 . S
H337 C350 0.961 . S
H338 C350 0.959 . S
H339 C353 0.929 . S
H340 C354 0.931 . S
H341 C356 0.930 . S
C342 H330 0.930 . S
C342 C343 1.399 . S
C342 C347 1.399 . S
C343 C342 1.399 . S
C343 C344 1.376 . S
C344 H331 0.930 . S
C344 C343 1.376 . S
C344 C345 1.388 . S
C345 H332 0.930 . S
C345 C344 1.388 . S
C345 C346 1.390 . S
C346 C345 1.390 . S
C346 C347 1.394 . S
C346 C352 1.465 . S
C347 C342 1.399 . S
C347 C346 1.394 . S
C347 C348 1.516 . S
C348 C347 1.516 . S
C348 C349 1.502 . S
C348 C350 1.561 . S
C348 C351 1.526 . S
C349 H333 0.959 . S
C349 H334 0.959 . S
C349 H335 0.961 . S
C349 C348 1.502 . S
C350 H336 0.960 . S
C350 H337 0.961 . S
C350 H338 0.959 . S
C350 C348 1.561 . S
C351 C348 1.526 . S
C351 C352 1.396 . S
C351 C356 1.390 . S
C352 C346 1.465 . S
C352 C351 1.396 . S
C352 C353 1.399 . S
C353 H339 0.929 . S
C353 C352 1.399 . S
C353 C354 1.385 . S
C354 H340 0.931 . S
C354 C353 1.385 . S
C354 C355 1.389 . S
C355 C354 1.389 . S
C355 C356 1.387 . S
C356 H341 0.930 . S
C356 C351 1.390 . S
C356 C355 1.387 . S
H357 C369 0.930 . S
H358 C371 0.930 . S
H359 C372 0.930 . S
H360 C376 0.959 . S
H361 C376 0.959 . S
H362 C376 0.961 . S
H363 C377 0.960 . S
H364 C377 0.961 . S
H365 C377 0.959 . S
H366 C380 0.929 . S
H367 C381 0.931 . S
H368 C383 0.930 . S
C369 H357 0.930 . S
C369 C370 1.399 . S
C369 C374 1.399 . S
C370 C369 1.399 . S
C370 C371 1.376 . S
C371 H358 0.930 . S
C371 C370 1.376 . S
C371 C372 1.388 . S
C372 H359 0.930 . S
C372 C371 1.388 . S
C372 C373 1.390 . S
C373 C372 1.390 . S
C373 C374 1.394 . S
C373 C379 1.465 . S
C374 C369 1.399 . S
C374 C373 1.394 . S
C374 C375 1.516 . S
C375 C374 1.516 . S
C375 C376 1.502 . S
C375 C377 1.561 . S
C375 C378 1.526 . S
C376 H360 0.959 . S
C376 H361 0.959 . S
C376 H362 0.961 . S
C376 C375 1.502 . S
C377 H363 0.960 . S
C377 H364 0.961 . S
C377 H365 0.959 . S
C377 C375 1.561 . S
C378 C375 1.526 . S
C378 C379 1.396 . S
C378 C383 1.390 . S
C379 C373 1.465 . S
C379 C378 1.396 . S
C379 C380 1.399 . S
C380 H366 0.929 . S
C380 C379 1.399 . S
C380 C381 1.385 . S
C381 H367 0.931 . S
C381 C380 1.385 . S
C381 C382 1.389 . S
C382 C381 1.389 . S
C382 C383 1.387 . S
C383 H368 0.930 . S
C383 C378 1.390 . S
C383 C382 1.387 . S
H384 C396 0.930 . S
H385 C398 0.930 . S
H386 C399 0.930 . S
H387 C403 0.959 . S
H388 C403 0.959 . S
H389 C403 0.961 . S
H390 C404 0.960 . S
H391 C404 0.961 . S
H392 C404 0.959 . S
H393 C407 0.929 . S
H394 C408 0.931 . S
H395 C410 0.930 . S
C396 H384 0.930 . S
C396 C397 1.399 . S
C396 C401 1.399 . S
C397 C396 1.399 . S
C397 C398 1.376 . S
C398 H385 0.930 . S
C398 C397 1.376 . S
C398 C399 1.388 . S
C399 H386 0.930 . S
C399 C398 1.388 . S
C399 C400 1.390 . S
C400 C399 1.390 . S
C400 C401 1.394 . S
C400 C406 1.465 . S
C401 C396 1.399 . S
C401 C400 1.394 . S
C401 C402 1.516 . S
C402 C401 1.516 . S
C402 C403 1.502 . S
C402 C404 1.561 . S
C402 C405 1.526 . S
C403 H387 0.959 . S
C403 H388 0.959 . S
C403 H389 0.961 . S
C403 C402 1.502 . S
C404 H390 0.960 . S
C404 H391 0.961 . S
C404 H392 0.959 . S
C404 C402 1.561 . S
C405 C402 1.526 . S
C405 C406 1.396 . S
C405 C410 1.390 . S
C406 C400 1.465 . S
C406 C405 1.396 . S
C406 C407 1.399 . S
C407 H393 0.929 . S
C407 C406 1.399 . S
C407 C408 1.385 . S
C408 H394 0.931 . S
C408 C407 1.385 . S
C408 C409 1.389 . S
C409 C408 1.389 . S
C409 C410 1.387 . S
C410 H395 0.930 . S
C410 C405 1.390 . S
C410 C409 1.387 . S
H411 C423 0.930 . S
H412 C425 0.930 . S
H413 C426 0.930 . S
H414 C430 0.959 . S
H415 C430 0.959 . S
H416 C430 0.961 . S
H417 C431 0.960 . S
H418 C431 0.961 . S
H419 C431 0.959 . S
H420 C434 0.929 . S
H421 C435 0.931 . S
H422 C437 0.930 . S
C423 H411 0.930 . S
C423 C424 1.399 . S
C423 C428 1.399 . S
C424 C423 1.399 . S
C424 C425 1.376 . S
C425 H412 0.930 . S
C425 C424 1.376 . S
C425 C426 1.388 . S
C426 H413 0.930 . S
C426 C425 1.388 . S
C426 C427 1.390 . S
C427 C426 1.390 . S
C427 C428 1.394 . S
C427 C433 1.465 . S
C428 C423 1.399 . S
C428 C427 1.394 . S
C428 C429 1.516 . S
C429 C428 1.516 . S
C429 C430 1.502 . S
C429 C431 1.561 . S
C429 C432 1.526 . S
C430 H414 0.959 . S
C430 H415 0.959 . S
C430 H416 0.961 . S
C430 C429 1.502 . S
C431 H417 0.960 . S
C431 H418 0.961 . S
C431 H419 0.959 . S
C431 C429 1.561 . S
C432 C429 1.526 . S
C432 C433 1.396 . S
C432 C437 1.390 . S
C433 C427 1.465 . S
C433 C432 1.396 . S
C433 C434 1.399 . S
C434 H420 0.929 . S
C434 C433 1.399 . S
C434 C435 1.385 . S
C435 H421 0.931 . S
C435 C434 1.385 . S
C435 C436 1.389 . S
C436 C435 1.389 . S
C436 C437 1.387 . S
C437 H422 0.930 . S
C437 C432 1.390 . S
C437 C436 1.387 . S
H438 C450 0.930 . S
H439 C452 0.930 . S
H440 C453 0.930 . S
H441 C457 0.959 . S
H442 C457 0.959 . S
H443 C457 0.961 . S
H444 C458 0.960 . S
H445 C458 0.961 . S
H446 C458 0.959 . S
H447 C461 0.929 . S
H448 C462 0.931 . S
H449 C464 0.930 . S
C450 H438 0.930 . S
C450 C451 1.399 . S
C450 C455 1.399 . S
C451 C450 1.399 . S
C451 C452 1.376 . S
C452 H439 0.930 . S
C452 C451 1.376 . S
C452 C453 1.388 . S
C453 H440 0.930 . S
C453 C452 1.388 . S
C453 C454 1.390 . S
C454 C453 1.390 . S
C454 C455 1.394 . S
C454 C460 1.465 . S
C455 C450 1.399 . S
C455 C454 1.394 . S
C455 C456 1.516 . S
C456 C455 1.516 . S
C456 C457 1.502 . S
C456 C458 1.561 . S
C456 C459 1.526 . S
C457 H441 0.959 . S
C457 H442 0.959 . S
C457 H443 0.961 . S
C457 C456 1.502 . S
C458 H444 0.960 . S
C458 H445 0.961 . S
C458 H446 0.959 . S
C458 C456 1.561 . S
C459 C456 1.526 . S
C459 C460 1.396 . S
C459 C464 1.390 . S
C460 C454 1.465 . S
C460 C459 1.396 . S
C460 C461 1.399 . S
C461 H447 0.929 . S
C461 C460 1.399 . S
C461 C462 1.385 . S
C462 H448 0.931 . S
C462 C461 1.385 . S
C462 C463 1.389 . S
C463 C462 1.389 . S
C463 C464 1.387 . S
C464 H449 0.930 . S
C464 C459 1.390 . S
C464 C463 1.387 . S
H465 C477 0.930 . S
H466 C479 0.930 . S
H467 C480 0.930 . S
H468 C484 0.959 . S
H469 C484 0.959 . S
H470 C484 0.961 . S
H471 C485 0.960 . S
H472 C485 0.961 . S
H473 C485 0.959 . S
H474 C488 0.929 . S
H475 C489 0.931 . S
H476 C491 0.930 . S
C477 H465 0.930 . S
C477 C478 1.399 . S
C477 C482 1.399 . S
C478 C477 1.399 . S
C478 C479 1.376 . S
C479 H466 0.930 . S
C479 C478 1.376 . S
C479 C480 1.388 . S
C480 H467 0.930 . S
C480 C479 1.388 . S
C480 C481 1.390 . S
C481 C480 1.390 . S
C481 C482 1.394 . S
C481 C487 1.465 . S
C482 C477 1.399 . S
C482 C481 1.394 . S
C482 C483 1.516 . S
C483 C482 1.516 . S
C483 C484 1.502 . S
C483 C485 1.561 . S
C483 C486 1.526 . S
C484 H468 0.959 . S
C484 H469 0.959 . S
C484 H470 0.961 . S
C484 C483 1.502 . S
C485 H471 0.960 . S
C485 H472 0.961 . S
C485 H473 0.959 . S
C485 C483 1.561 . S
C486 C483 1.526 . S
C486 C487 1.396 . S
C486 C491 1.390 . S
C487 C481 1.465 . S
C487 C486 1.396 . S
C487 C488 1.399 . S
C488 H474 0.929 . S
C488 C487 1.399 . S
C488 C489 1.385 . S
C489 H475 0.931 . S
C489 C488 1.385 . S
C489 C490 1.389 . S
C490 C489 1.389 . S
C490 C491 1.387 . S
C491 H476 0.930 . S
C491 C486 1.390 . S
C491 C490 1.387 . S
H492 C504 0.930 . S
H493 C506 0.930 . S
H494 C507 0.930 . S
H495 C511 0.959 . S
H496 C511 0.959 . S
H497 C511 0.961 . S
H498 C512 0.960 . S
H499 C512 0.961 . S
H500 C512 0.959 . S
H501 C515 0.929 . S
H502 C516 0.931 . S
H503 C518 0.930 . S
C504 H492 0.930 . S
C504 C505 1.399 . S
C504 C509 1.399 . S
C505 C504 1.399 . S
C505 C506 1.376 . S
C506 H493 0.930 . S
C506 C505 1.376 . S
C506 C507 1.388 . S
C507 H494 0.930 . S
C507 C506 1.388 . S
C507 C508 1.390 . S
C508 C507 1.390 . S
C508 C509 1.394 . S
C508 C514 1.465 . S
C509 C504 1.399 . S
C509 C508 1.394 . S
C509 C510 1.516 . S
C510 C509 1.516 . S
C510 C511 1.502 . S
C510 C512 1.561 . S
C510 C513 1.526 . S
C511 H495 0.959 . S
C511 H496 0.959 . S
C511 H497 0.961 . S
C511 C510 1.502 . S
C512 H498 0.960 . S
C512 H499 0.961 . S
C512 H500 0.959 . S
C512 C510 1.561 . S
C513 C510 1.526 . S
C513 C514 1.396 . S
C513 C518 1.390 . S
C514 C508 1.465 . S
C514 C513 1.396 . S
C514 C515 1.399 . S
C515 H501 0.929 . S
C515 C514 1.399 . S
C515 C516 1.385 . S
C516 H502 0.931 . S
C516 C515 1.385 . S
C516 C517 1.389 . S
C517 C516 1.389 . S
C517 C518 1.387 . S
C518 H503 0.930 . S
C518 C513 1.390 . S
C518 C517 1.387 . S
H519 C531 0.930 . S
H520 C533 0.930 . S
H521 C534 0.930 . S
H522 C538 0.959 . S
H523 C538 0.959 . S
H524 C538 0.961 . S
H525 C539 0.960 . S
H526 C539 0.961 . S
H527 C539 0.959 . S
H528 C542 0.929 . S
H529 C543 0.931 . S
H530 C545 0.930 . S
C531 H519 0.930 . S
C531 C532 1.399 . S
C531 C536 1.399 . S
C532 C531 1.399 . S
C532 C533 1.376 . S
C533 H520 0.930 . S
C533 C532 1.376 . S
C533 C534 1.388 . S
C534 H521 0.930 . S
C534 C533 1.388 . S
C534 C535 1.390 . S
C535 C534 1.390 . S
C535 C536 1.394 . S
C535 C541 1.465 . S
C536 C531 1.399 . S
C536 C535 1.394 . S
C536 C537 1.516 . S
C537 C536 1.516 . S
C537 C538 1.502 . S
C537 C539 1.561 . S
C537 C540 1.526 . S
C538 H522 0.959 . S
C538 H523 0.959 . S
C538 H524 0.961 . S
C538 C537 1.502 . S
C539 H525 0.960 . S
C539 H526 0.961 . S
C539 H527 0.959 . S
C539 C537 1.561 . S
C540 C537 1.526 . S
C540 C541 1.396 . S
C540 C545 1.390 . S
C541 C535 1.465 . S
C541 C540 1.396 . S
C541 C542 1.399 . S
C542 H528 0.929 . S
C542 C541 1.399 . S
C542 C543 1.385 . S
C543 H529 0.931 . S
C543 C542 1.385 . S
C543 C544 1.389 . S
C544 C543 1.389 . S
C544 C545 1.387 . S
C545 H530 0.930 . S
C545 C540 1.390 . S
C545 C544 1.387 . S
H546 C558 0.930 . S
H547 C560 0.930 . S
H548 C561 0.930 . S
H549 C565 0.959 . S
H550 C565 0.959 . S
H551 C565 0.961 . S
H552 C566 0.960 . S
H553 C566 0.961 . S
H554 C566 0.959 . S
H555 C569 0.929 . S
H556 C570 0.931 . S
H557 C572 0.930 . S
C558 H546 0.930 . S
C558 C559 1.399 . S
C558 C563 1.399 . S
C559 C558 1.399 . S
C559 C560 1.376 . S
C560 H547 0.930 . S
C560 C559 1.376 . S
C560 C561 1.388 . S
C561 H548 0.930 . S
C561 C560 1.388 . S
C561 C562 1.390 . S
C562 C561 1.390 . S
C562 C563 1.394 . S
C562 C568 1.465 . S
C563 C558 1.399 . S
C563 C562 1.394 . S
C563 C564 1.516 . S
C564 C563 1.516 . S
C564 C565 1.502 . S
C564 C566 1.561 . S
C564 C567 1.526 . S
C565 H549 0.959 . S
C565 H550 0.959 . S
C565 H551 0.961 . S
C565 C564 1.502 . S
C566 H552 0.960 . S
C566 H553 0.961 . S
C566 H554 0.959 . S
C566 C564 1.561 . S
C567 C564 1.526 . S
C567 C568 1.396 . S
C567 C572 1.390 . S
C568 C562 1.465 . S
C568 C567 1.396 . S
C568 C569 1.399 . S
C569 H555 0.929 . S
C569 C568 1.399 . S
C569 C570 1.385 . S
C570 H556 0.931 . S
C570 C569 1.385 . S
C570 C571 1.389 . S
C571 C570 1.389 . S
C571 C572 1.387 . S
C572 H557 0.930 . S
C572 C567 1.390 . S
C572 C571 1.387 . S
H573 C585 0.930 . S
H574 C587 0.930 . S
H575 C588 0.930 . S
H576 C592 0.959 . S
H577 C592 0.959 . S
H578 C592 0.961 . S
H579 C593 0.960 . S
H580 C593 0.961 . S
H581 C593 0.959 . S
H582 C596 0.929 . S
H583 C597 0.931 . S
H584 C599 0.930 . S
C585 H573 0.930 . S
C585 C586 1.399 . S
C585 C590 1.399 . S
C586 C585 1.399 . S
C586 C587 1.376 . S
C587 H574 0.930 . S
C587 C586 1.376 . S
C587 C588 1.388 . S
C588 H575 0.930 . S
C588 C587 1.388 . S
C588 C589 1.390 . S
C589 C588 1.390 . S
C589 C590 1.394 . S
C589 C595 1.465 . S
C590 C585 1.399 . S
C590 C589 1.394 . S
C590 C591 1.516 . S
C591 C590 1.516 . S
C591 C592 1.502 . S
C591 C593 1.561 . S
C591 C594 1.526 . S
C592 H576 0.959 . S
C592 H577 0.959 . S
C592 H578 0.961 . S
C592 C591 1.502 . S
C593 H579 0.960 . S
C593 H580 0.961 . S
C593 H581 0.959 . S
C593 C591 1.561 . S
C594 C591 1.526 . S
C594 C595 1.396 . S
C594 C599 1.390 . S
C595 C589 1.465 . S
C595 C594 1.396 . S
C595 C596 1.399 . S
C596 H582 0.929 . S
C596 C595 1.399 . S
C596 C597 1.385 . S
C597 H583 0.931 . S
C597 C596 1.385 . S
C597 C598 1.389 . S
C598 C597 1.389 . S
C598 C599 1.387 . S
C599 H584 0.930 . S
C599 C594 1.390 . S
C599 C598 1.387 . S
H600 C612 0.930 . S
H601 C614 0.930 . S
H602 C615 0.930 . S
H603 C619 0.959 . S
H604 C619 0.959 . S
H605 C619 0.961 . S
H606 C620 0.960 . S
H607 C620 0.961 . S
H608 C620 0.959 . S
H609 C623 0.929 . S
H610 C624 0.948 . S
H611 C626 0.930 . S
C612 H600 0.930 . S
C612 C613 1.399 . S
C612 C617 1.399 . S
C613 C612 1.399 . S
C613 C614 1.376 1_455 S
C614 H601 0.930 . S
C614 C613 1.376 1_655 S
C614 C615 1.388 . S
C615 H602 0.930 . S
C615 C614 1.388 . S
C615 C616 1.390 . S
C616 C615 1.390 . S
C616 C617 1.394 1_655 S
C616 C622 1.465 1_655 S
C617 C612 1.399 . S
C617 C616 1.394 1_455 S
C617 C618 1.516 . S
C618 C617 1.516 . S
C618 C619 1.502 . S
C618 C620 1.561 . S
C618 C621 1.526 . S
C619 H603 0.959 . S
C619 H604 0.959 . S
C619 H605 0.961 . S
C619 C618 1.502 . S
C620 H606 0.960 . S
C620 H607 0.961 . S
C620 H608 0.959 . S
C620 C618 1.561 . S
C621 C618 1.526 . S
C621 C622 1.396 . S
C621 C626 1.390 . S
C622 C616 1.465 1_455 S
C622 C621 1.396 . S
C622 C623 1.399 1_455 S
C623 H609 0.929 . S
C623 C622 1.399 1_655 S
C623 C624 1.385 . S
C624 H610 0.948 . S
C624 C623 1.385 . S
C624 C625 1.389 1_655 S
C625 C624 1.389 1_455 S
C625 C626 1.387 . S
C626 H611 0.930 . S
C626 C621 1.390 . S
C626 C625 1.387 . S
H627 C639 0.930 . S
H628 C641 0.930 . S
H629 C642 0.930 . S
H630 C646 0.959 . S
H631 C646 0.959 . S
H632 C646 0.961 . S
H633 C647 0.960 . S
H634 C647 0.961 . S
H635 C647 0.959 . S
H636 C650 0.929 . S
H637 C651 0.931 . S
H638 C653 0.930 . S
C639 H627 0.930 . S
C639 C640 1.399 . S
C639 C644 1.399 . S
C640 C639 1.399 . S
C640 C641 1.376 1_545 S
C641 H628 0.930 . S
C641 C640 1.376 1_565 S
C641 C642 1.388 . S
C642 H629 0.930 . S
C642 C641 1.388 . S
C642 C643 1.390 1_565 S
C643 C642 1.390 1_545 S
C643 C644 1.394 . S
C643 C649 1.465 . S
C644 C639 1.399 . S
C644 C643 1.394 . S
C644 C645 1.516 . S
C645 C644 1.516 . S
C645 C646 1.502 . S
C645 C647 1.561 . S
C645 C648 1.526 . S
C646 H630 0.959 . S
C646 H631 0.959 . S
C646 H632 0.961 . S
C646 C645 1.502 . S
C647 H633 0.960 . S
C647 H634 0.961 . S
C647 H635 0.959 . S
C647 C645 1.561 . S
C648 C645 1.526 . S
C648 C649 1.396 . S
C648 C653 1.390 . S
C649 C643 1.465 . S
C649 C648 1.396 . S
C649 C650 1.399 1_545 S
C650 H636 0.929 . S
C650 C649 1.399 1_565 S
C650 C651 1.385 . S
C651 H637 0.931 . S
C651 C650 1.385 . S
C651 C652 1.389 1_565 S
C652 C651 1.389 1_545 S
C652 C653 1.387 . S
C653 H638 0.930 . S
C653 C648 1.390 . S
C653 C652 1.387 . S
H654 C666 0.930 . S
H655 C668 0.930 . S
H656 C669 0.930 . S
H657 C673 0.959 . S
H658 C673 0.959 . S
H659 C673 0.961 . S
H660 C674 0.960 . S
H661 C674 0.961 . S
H662 C674 0.959 . S
H663 C677 0.929 . S
H664 C678 0.931 . S
H665 C680 0.930 . S
C666 H654 0.930 . S
C666 C667 1.399 . S
C666 C671 1.399 . S
C667 C666 1.399 . S
C667 C668 1.376 . S
C668 H655 0.930 . S
C668 C667 1.376 . S
C668 C669 1.388 . S
C669 H656 0.930 . S
C669 C668 1.388 . S
C669 C670 1.390 . S
C670 C669 1.390 . S
C670 C671 1.394 . S
C670 C676 1.465 . S
C671 C666 1.399 . S
C671 C670 1.394 . S
C671 C672 1.516 . S
C672 C671 1.516 . S
C672 C673 1.502 . S
C672 C674 1.561 . S
C672 C675 1.526 . S
C673 H657 0.959 . S
C673 H658 0.959 . S
C673 H659 0.961 . S
C673 C672 1.502 . S
C674 H660 0.960 . S
C674 H661 0.961 . S
C674 H662 0.959 . S
C674 C672 1.561 . S
C675 C672 1.526 . S
C675 C676 1.396 . S
C675 C680 1.390 . S
C676 C670 1.465 . S
C676 C675 1.396 . S
C676 C677 1.399 . S
C677 H663 0.929 . S
C677 C676 1.399 . S
C677 C678 1.385 . S
C678 H664 0.931 . S
C678 C677 1.385 . S
C678 C679 1.389 . S
C679 C678 1.389 . S
C679 C680 1.387 . S
C680 H665 0.930 . S
C680 C675 1.390 . S
C680 C679 1.387 . S
H681 C693 0.930 . S
H682 C695 0.930 . S
H683 C696 0.930 . S
H684 C700 0.959 . S
H685 C700 0.959 . S
H686 C700 0.961 . S
H687 C701 0.960 . S
H688 C701 0.961 . S
H689 C701 0.959 . S
H690 C704 0.929 . S
H691 C705 0.931 . S
H692 C707 0.930 . S
C693 H681 0.930 . S
C693 C694 1.399 1_565 S
C693 C698 1.399 . S
C694 C693 1.399 1_545 S
C694 C695 1.376 . S
C695 H682 0.930 . S
C695 C694 1.376 . S
C695 C696 1.388 . S
C696 H683 0.930 . S
C696 C695 1.388 . S
C696 C697 1.390 . S
C697 C696 1.390 . S
C697 C698 1.394 1_545 S
C697 C703 1.465 . S
C698 C693 1.399 . S
C698 C697 1.394 1_565 S
C698 C699 1.516 . S
C699 C698 1.516 . S
C699 C700 1.502 . S
C699 C701 1.561 . S
C699 C702 1.526 . S
C700 H684 0.959 . S
C700 H685 0.959 . S
C700 H686 0.961 . S
C700 C699 1.502 . S
C701 H687 0.960 . S
C701 H688 0.961 . S
C701 H689 0.959 . S
C701 C699 1.561 . S
C702 C699 1.526 . S
C702 C703 1.396 1_565 S
C702 C707 1.390 . S
C703 C697 1.465 . S
C703 C702 1.396 1_545 S
C703 C704 1.399 . S
C704 H690 0.929 . S
C704 C703 1.399 . S
C704 C705 1.385 . S
C705 H691 0.931 . S
C705 C704 1.385 . S
C705 C706 1.389 . S
C706 C705 1.389 . S
C706 C707 1.387 1_545 S
C707 H692 0.930 . S
C707 C702 1.390 . S
C707 C706 1.387 1_565 S
H708 C720 0.930 . S
H709 C722 0.930 . S
H710 C723 0.930 . S
H711 C727 0.959 . S
H712 C727 0.959 . S
H713 C727 0.961 . S
H714 C728 0.960 . S
H715 C728 0.961 . S
H716 C728 0.959 . S
H717 C731 0.929 . S
H718 C732 0.931 1_554 S
H719 C734 0.930 . S
C720 H708 0.930 . S
C720 C721 1.399 . S
C720 C725 1.399 . S
C721 C720 1.399 . S
C721 C722 1.376 . S
C722 H709 0.930 . S
C722 C721 1.376 . S
C722 C723 1.388 . S
C723 H710 0.930 . S
C723 C722 1.388 . S
C723 C724 1.390 . S
C724 C723 1.390 . S
C724 C725 1.394 . S
C724 C730 1.465 . S
C725 C720 1.399 . S
C725 C724 1.394 . S
C725 C726 1.516 . S
C726 C725 1.516 . S
C726 C727 1.502 . S
C726 C728 1.561 . S
C726 C729 1.526 . S
C727 H711 0.959 . S
C727 H712 0.959 . S
C727 H713 0.961 . S
C727 C726 1.502 . S
C728 H714 0.960 . S
C728 H715 0.961 . S
C728 H716 0.959 . S
C728 C726 1.561 . S
C729 C726 1.526 . S
C729 C730 1.396 . S
C729 C734 1.390 . S
C730 C724 1.465 . S
C730 C729 1.396 . S
C730 C731 1.399 . S
C731 H717 0.929 . S
C731 C730 1.399 . S
C731 C732 1.385 . S
C732 H718 0.931 1_556 S
C732 C731 1.385 . S
C732 C733 1.389 . S
C733 C732 1.389 . S
C733 C734 1.387 . S
C734 H719 0.930 . S
C734 C729 1.390 . S
C734 C733 1.387 . S
H735 C747 0.930 . S
H736 C749 0.930 . S
H737 C750 0.930 . S
H738 C754 0.959 . S
H739 C754 0.959 . S
H740 C754 0.961 . S
H741 C755 0.960 . S
H742 C755 0.961 . S
H743 C755 0.959 . S
H744 C758 0.929 . S
H745 C759 0.931 . S
H746 C761 0.930 . S
C747 H735 0.930 . S
C747 C748 1.410 . S
C747 C752 1.399 . S
C748 C747 1.410 . S
C748 C749 1.365 1_455 S
C749 H736 0.930 . S
C749 C748 1.365 1_655 S
C749 C750 1.388 . S
C750 H737 0.930 . S
C750 C749 1.388 . S
C750 C751 1.390 1_655 S
C751 C750 1.390 1_455 S
C751 C752 1.394 . S
C751 C757 1.465 . S
C752 C747 1.399 . S
C752 C751 1.394 . S
C752 C753 1.516 . S
C753 C752 1.516 . S
C753 C754 1.502 1_455 S
C753 C755 1.561 . S
C753 C756 1.526 . S
C754 H738 0.959 . S
C754 H739 0.959 . S
C754 H740 0.961 . S
C754 C753 1.502 1_655 S
C755 H741 0.960 . S
C755 H742 0.961 . S
C755 H743 0.959 . S
C755 C753 1.561 . S
C756 C753 1.526 . S
C756 C757 1.396 . S
C756 C761 1.390 . S
C757 C751 1.465 . S
C757 C756 1.396 . S
C757 C758 1.399 1_455 S
C758 H744 0.929 . S
C758 C757 1.399 1_655 S
C758 C759 1.385 . S
C759 H745 0.931 . S
C759 C758 1.385 . S
C759 C760 1.389 1_655 S
C760 C759 1.389 1_455 S
C760 C761 1.387 . S
C761 H746 0.930 . S
C761 C756 1.390 . S
C761 C760 1.387 . S
C289 C2 1.397 . S
C301 C265 1.418 . S
C316 C22 1.363 . S
C328 C193 1.366 . S
C343 C44 1.379 . S
C355 C229 1.485 . S
C370 C4 1.552 . S
C382 C241 1.656 . S
C409 C169 1.676 . S
C397 C24 1.567 . S
C436 C205 1.606 . S
C424 C42 1.464 . S
C451 C32 1.346 . S
C463 C121 1.286 . S
C478 C49 1.283 . S
C490 C133 1.317 . S
C505 C9 1.238 . S
C517 C61 1.256 . S
C544 C97 1.305 . S
C532 C29 1.201 . S
C571 C157 1.326 . S
C559 C52 1.225 . S
C586 C12 1.271 . S
C598 C85 1.312 . S
C625 C163 1.420 1_554 S
C613 C18 1.407 1_455 S
C640 C38 1.422 . S
C652 C91 1.411 . S
C667 C58 1.390 . S
C679 C127 1.442 . S
C706 C235 1.482 . S
C694 C39 1.464 . S
C733 C271 1.484 1_556 S
C721 C59 1.459 . S
C748 C19 1.475 . S
C760 C199 1.491 . S
