# Generated by pormake.
# Topology hwx, (6,3)-cn, num edge types: 1
# Building blocks:
#     Node 0, Type 0, BuildingBlock: IZENUY_clean_sbu_0, # of connection points: 6
#     Node 1, Type 0, BuildingBlock: IZENUY_clean_sbu_0, # of connection points: 6
#     Node 2, Type 0, BuildingBlock: IZENUY_clean_sbu_0, # of connection points: 6
#     Node 3, Type 0, BuildingBlock: IZENUY_clean_sbu_0, # of connection points: 6
#     Node 4, Type 1, BuildingBlock: BETDIP_clean_linker_0, # of connection points: 3
#     Node 5, Type 1, BuildingBlock: BETDIP_clean_linker_0, # of connection points: 3
#     Node 6, Type 1, BuildingBlock: BETDIP_clean_linker_0, # of connection points: 3
#     Node 7, Type 1, BuildingBlock: BETDIP_clean_linker_0, # of connection points: 3
#     Node 8, Type 1, BuildingBlock: BETDIP_clean_linker_0, # of connection points: 3
#     Node 9, Type 1, BuildingBlock: BETDIP_clean_linker_0, # of connection points: 3
#     Node 10, Type 1, BuildingBlock: BETDIP_clean_linker_0, # of connection points: 3
#     Node 11, Type 1, BuildingBlock: BETDIP_clean_linker_0, # of connection points: 3
#     Edge 12, Type (0, 1), BuildingBlock: MIFKUJ_clean_linker_0, # of connection points: 2
#     Edge 13, Type (0, 1), BuildingBlock: MIFKUJ_clean_linker_0, # of connection points: 2
#     Edge 14, Type (0, 1), BuildingBlock: MIFKUJ_clean_linker_0, # of connection points: 2
#     Edge 15, Type (0, 1), BuildingBlock: MIFKUJ_clean_linker_0, # of connection points: 2
#     Edge 16, Type (0, 1), BuildingBlock: MIFKUJ_clean_linker_0, # of connection points: 2
#     Edge 17, Type (0, 1), BuildingBlock: MIFKUJ_clean_linker_0, # of connection points: 2
#     Edge 18, Type (0, 1), BuildingBlock: MIFKUJ_clean_linker_0, # of connection points: 2
#     Edge 19, Type (0, 1), BuildingBlock: MIFKUJ_clean_linker_0, # of connection points: 2
#     Edge 20, Type (0, 1), BuildingBlock: MIFKUJ_clean_linker_0, # of connection points: 2
#     Edge 21, Type (0, 1), BuildingBlock: MIFKUJ_clean_linker_0, # of connection points: 2
#     Edge 22, Type (0, 1), BuildingBlock: MIFKUJ_clean_linker_0, # of connection points: 2
#     Edge 23, Type (0, 1), BuildingBlock: MIFKUJ_clean_linker_0, # of connection points: 2
#     Edge 24, Type (0, 1), BuildingBlock: MIFKUJ_clean_linker_0, # of connection points: 2
#     Edge 25, Type (0, 1), BuildingBlock: MIFKUJ_clean_linker_0, # of connection points: 2
#     Edge 26, Type (0, 1), BuildingBlock: MIFKUJ_clean_linker_0, # of connection points: 2
#     Edge 27, Type (0, 1), BuildingBlock: MIFKUJ_clean_linker_0, # of connection points: 2
#     Edge 28, Type (0, 1), BuildingBlock: MIFKUJ_clean_linker_0, # of connection points: 2
#     Edge 29, Type (0, 1), BuildingBlock: MIFKUJ_clean_linker_0, # of connection points: 2
#     Edge 30, Type (0, 1), BuildingBlock: MIFKUJ_clean_linker_0, # of connection points: 2
#     Edge 31, Type (0, 1), BuildingBlock: MIFKUJ_clean_linker_0, # of connection points: 2
#     Edge 32, Type (0, 1), BuildingBlock: MIFKUJ_clean_linker_0, # of connection points: 2
#     Edge 33, Type (0, 1), BuildingBlock: MIFKUJ_clean_linker_0, # of connection points: 2
#     Edge 34, Type (0, 1), BuildingBlock: MIFKUJ_clean_linker_0, # of connection points: 2
#     Edge 35, Type (0, 1), BuildingBlock: MIFKUJ_clean_linker_0, # of connection points: 2
# Relax obj value: 0.002
# Max RMSD: 0.065
# Mean RMSD: 0.050
data_MOF--net-hwx--node1-IZENUY_clean_sbu_0--node2-BETDIP_clean_linker_0--edge1-MIFKUJ_clean_linker_0
_symmetry_space_group_name_H-M    P1
_symmetry_Int_Tables_number       1
_symmetry_cell_setting            triclinic
loop_
_symmetry_equiv_pos_as_xyz
'x, y, z'
_cell_length_a     66.958744
_cell_length_b     66.901719
_cell_length_c     26.981421
_cell_angle_alpha  91.385127
_cell_angle_beta   91.340944
_cell_angle_gamma 90.102994
loop_
_atom_site_label
_atom_site_type_symbol
_atom_site_fract_x
_atom_site_fract_y
_atom_site_fract_z
_atom_type_partial_charge
Fe0 Fe 0.23084 0.23276 0.06516 0.0
Fe1 Fe 0.23117 0.23248 0.95136 0.0
O2 O 0.2221 0.22285 0.00719 0.0
Fe3 Fe 0.20422 0.20327 0.00486 0.0
O4 O 0.19169 0.21117 0.06189 0.0
O5 O 0.20577 0.2399 0.0828 0.0
O6 O 0.23382 0.25842 0.04339 0.0
C7 C 0.22654 0.26712 0.00584 0.0
C8 C 0.22869 0.19091 0.08046 0.0
O9 O 0.22207 0.25735 0.96652 0.0
C10 C 0.23043 0.19259 0.92762 0.0
O11 O 0.25651 0.2264 0.0516 0.0
O12 O 0.25625 0.23849 0.97665 0.0
O13 O 0.22084 0.18684 0.03848 0.0
O14 O 0.22945 0.2088 0.09719 0.0
C15 C 0.18994 0.22611 0.92981 0.0
O16 O 0.24091 0.20824 0.93257 0.0
O17 O 0.21351 0.19156 0.94752 0.0
C18 C 0.26573 0.23208 0.0142 0.0
O19 O 0.20772 0.22823 0.9157 0.0
O20 O 0.18641 0.21852 0.97104 0.0
C21 C 0.19123 0.22796 0.08445 0.0
Fe22 Fe 0.26974 0.7329 0.55901 0.0
Fe23 Fe 0.29723 0.70425 0.50121 0.0
O24 O 0.27853 0.72306 0.50188 0.0
Fe25 Fe 0.26867 0.73209 0.44505 0.0
O26 O 0.27696 0.75737 0.46018 0.0
O27 O 0.26588 0.75834 0.53635 0.0
O28 O 0.2946 0.74097 0.57892 0.0
C29 C 0.30983 0.72994 0.58115 0.0
C30 C 0.23453 0.7308 0.50548 0.0
O31 O 0.31015 0.71323 0.55818 0.0
C32 C 0.27051 0.69201 0.42308 0.0
O33 O 0.272 0.70921 0.59172 0.0
O34 O 0.28191 0.68729 0.53515 0.0
O35 O 0.24356 0.73716 0.46827 0.0
O36 O 0.24418 0.72562 0.5437 0.0
C37 C 0.30991 0.72754 0.42628 0.0
O38 O 0.28765 0.69167 0.44406 0.0
O39 O 0.2597 0.70739 0.42627 0.0
C40 C 0.27391 0.69134 0.57597 0.0
O41 O 0.31405 0.71991 0.46749 0.0
O42 O 0.29194 0.72883 0.41096 0.0
C43 C 0.2726 0.76712 0.49906 0.0
Fe44 Fe 0.769 0.78599 0.95494 0.0
Fe45 Fe 0.76756 0.78565 0.06849 0.0
O46 O 0.77726 0.79556 0.01371 0.0
Fe47 Fe 0.79516 0.81508 0.0175 0.0
O48 O 0.77892 0.83161 0.98274 0.0
O49 O 0.7717 0.80979 0.9229 0.0
O50 O 0.74339 0.79317 0.96697 0.0
C51 C 0.73366 0.78746 0.00357 0.0
C52 C 0.80894 0.79 0.93918 0.0
O53 O 0.74258 0.78034 0.04118 0.0
C54 C 0.80869 0.79162 0.09269 0.0
O55 O 0.76476 0.76036 0.97595 0.0
O56 O 0.77652 0.76079 0.0526 0.0
O57 O 0.80837 0.80685 0.96165 0.0
O58 O 0.79412 0.7783 0.93932 0.0
C59 C 0.76827 0.82557 0.09338 0.0
O60 O 0.79077 0.78915 0.10554 0.0
O61 O 0.81256 0.79994 0.05259 0.0
C62 C 0.77175 0.75127 0.01319 0.0
O63 O 0.75795 0.80984 0.08826 0.0
O64 O 0.78526 0.82679 0.074 0.0
C65 C 0.77217 0.82765 0.93963 0.0
Fe66 Fe 0.70333 0.31441 0.51252 0.0
Fe67 Fe 0.72995 0.28547 0.57091 0.0
O68 O 0.72152 0.29516 0.51355 0.0
Fe69 Fe 0.73131 0.28562 0.45731 0.0
O70 O 0.7298 0.30951 0.42501 0.0
O71 O 0.72001 0.33118 0.48188 0.0
O72 O 0.71187 0.32633 0.57141 0.0
C73 C 0.72845 0.32539 0.59486 0.0
C74 C 0.69187 0.28924 0.4305 0.0
O75 O 0.73899 0.30981 0.59233 0.0
C76 C 0.72675 0.25096 0.51493 0.0
O77 O 0.68535 0.29902 0.54312 0.0
O78 O 0.70594 0.28885 0.60186 0.0
O79 O 0.70679 0.27789 0.43453 0.0
O80 O 0.69148 0.30599 0.45345 0.0
C81 C 0.76536 0.287 0.51506 0.0
O82 O 0.72146 0.26052 0.55326 0.0
O83 O 0.7346 0.25995 0.47937 0.0
C84 C 0.68835 0.29096 0.58434 0.0
O85 O 0.75551 0.2802 0.55054 0.0
O86 O 0.75653 0.2927 0.47616 0.0
C87 C 0.72839 0.32735 0.44142 0.0
H88 H 0.2325 0.51569 0.90626 0.0
H89 H 0.2348 0.52105 0.0661 0.0
H90 H 0.23939 0.57332 0.97801 0.0
H91 H 0.23036 0.48907 0.06622 0.0
C92 C 0.22993 0.48237 0.02927 0.0
C93 C 0.23372 0.52477 0.94001 0.0
C94 C 0.23593 0.54553 0.93712 0.0
C95 C 0.23308 0.51562 0.98621 0.0
C96 C 0.23488 0.52762 0.02996 0.0
C97 C 0.23739 0.54846 0.02726 0.0
C98 C 0.23771 0.55725 0.98062 0.0
N99 N 0.23093 0.49441 0.9866 0.0
H100 H 0.98425 0.75791 0.602 0.0
H101 H 0.98291 0.75064 0.44252 0.0
H102 H 0.9289 0.76301 0.51942 0.0
H103 H 0.01486 0.75751 0.44886 0.0
C104 C 0.02054 0.75293 0.48479 0.0
C105 C 0.97603 0.75753 0.56691 0.0
C106 C 0.95532 0.7609 0.5659 0.0
C107 C 0.98635 0.75436 0.52263 0.0
C108 C 0.97553 0.7538 0.47701 0.0
C109 C 0.95476 0.75673 0.47578 0.0
C110 C 0.94489 0.76043 0.52028 0.0
N111 N 0.00748 0.75169 0.52553 0.0
H112 H 0.76884 0.50032 0.10914 0.0
H113 H 0.76714 0.49941 0.9494 0.0
H114 H 0.7667 0.44431 0.02718 0.0
H115 H 0.75289 0.52991 0.96183 0.0
C116 C 0.76109 0.53629 0.99363 0.0
C117 C 0.76824 0.49198 0.07422 0.0
C118 C 0.76801 0.47095 0.07385 0.0
C119 C 0.76755 0.50243 0.02972 0.0
C120 C 0.76706 0.49165 0.98412 0.0
C121 C 0.76717 0.47066 0.98322 0.0
C122 C 0.7675 0.46051 0.02809 0.0
N123 N 0.76789 0.52371 0.03227 0.0
H124 H 0.01455 0.26134 0.41763 0.0
H125 H 0.01562 0.25589 0.57653 0.0
H126 H 0.06948 0.24803 0.4948 0.0
H127 H 0.98349 0.24925 0.56557 0.0
C128 C 0.97822 0.2578 0.53421 0.0
C129 C 0.02266 0.25863 0.45204 0.0
C130 C 0.04314 0.25435 0.45131 0.0
C131 C 0.01242 0.25876 0.49686 0.0
C132 C 0.02314 0.25535 0.54154 0.0
C133 C 0.04376 0.25129 0.54131 0.0
C134 C 0.05354 0.25076 0.4958 0.0
N135 N 0.99147 0.26249 0.49562 0.0
H136 H 0.73343 0.99906 0.59945 0.0
H137 H 0.7234 0.99908 0.44116 0.0
H138 H 0.73059 0.94357 0.51522 0.0
H139 H 0.73617 0.02985 0.44925 0.0
C140 C 0.73082 0.03588 0.48421 0.0
C141 C 0.7313 0.99091 0.56453 0.0
C142 C 0.73248 0.96989 0.56292 0.0
C143 C 0.72831 1.00166 0.5209 0.0
C144 C 0.72607 0.99116 0.47514 0.0
C145 C 0.72689 0.97019 0.47302 0.0
C146 C 0.72985 0.95975 0.51702 0.0
N147 N 0.72766 0.02294 0.52443 0.0
H148 H 0.51529 0.25117 0.91824 0.0
H149 H 0.51763 0.25111 0.07802 0.0
H150 H 0.57183 0.25434 0.99724 0.0
H151 H 0.48824 0.23555 0.06822 0.0
C152 C 0.48098 0.24195 0.03592 0.0
C153 C 0.52389 0.25157 0.95279 0.0
C154 C 0.54486 0.2526 0.95211 0.0
C155 C 0.51388 0.25049 0.99781 0.0
C156 C 0.52503 0.25124 0.04284 0.0
C157 C 0.54598 0.25225 0.04267 0.0
C158 C 0.5557 0.2529 0.99727 0.0
N159 N 0.49264 0.24894 0.99641 0.0
H160 H 0.27286 0.01901 0.41764 0.0
H161 H 0.27164 0.01974 0.57749 0.0
H162 H 0.26969 0.07474 0.50033 0.0
H163 H 0.27703 0.98811 0.57208 0.0
C164 C 0.27559 0.98224 0.5344 0.0
C165 C 0.27227 0.02724 0.45266 0.0
C166 C 0.2714 0.04826 0.45328 0.0
C167 C 0.27261 0.01662 0.49699 0.0
C168 C 0.27177 0.02733 0.54266 0.0
C169 C 0.27117 0.0483 0.54377 0.0
C170 C 0.27095 0.05858 0.49915 0.0
N171 N 0.27364 0.99533 0.49372 0.0
H172 H 0.48317 0.77239 0.09604 0.0
H173 H 0.48331 0.77169 0.93633 0.0
H174 H 0.42796 0.76665 0.01179 0.0
H175 H 0.51103 0.79153 0.95235 0.0
C176 C 0.51846 0.78367 0.98232 0.0
C177 C 0.47509 0.77149 0.06077 0.0
C178 C 0.45414 0.76976 0.0595 0.0
C179 C 0.48573 0.77271 0.01667 0.0
C180 C 0.4753 0.77139 0.97069 0.0
C181 C 0.4544 0.76952 0.96889 0.0
C182 C 0.44403 0.76874 0.01332 0.0
N183 N 0.50689 0.7749 0.0197 0.0
H184 H 0.17848 0.26478 0.11693 0.0
H185 H 0.15041 0.27221 0.17093 0.0
H186 H 0.1383 0.20904 0.18105 0.0
H187 H 0.16561 0.20167 0.12535 0.0
H188 H 0.10494 0.22693 0.17352 0.0
H189 H 0.16412 0.23852 0.27532 0.0
H190 H 0.19668 0.25386 0.29816 0.0
H191 H 0.16985 0.31212 0.29913 0.0
H192 H 0.13717 0.29713 0.2757 0.0
H193 H 0.05975 0.22148 0.40913 0.0
H194 H 0.08168 0.21999 0.33762 0.0
H195 H 0.07418 0.28339 0.31862 0.0
H196 H 0.05181 0.28479 0.38985 0.0
H197 H 0.11504 0.2695 0.32513 0.0
H198 H 0.05417 0.2551 0.23433 0.0
H199 H 0.02226 0.2376 0.21678 0.0
H200 H 0.05335 0.18181 0.20123 0.0
H201 H 0.08544 0.19892 0.21943 0.0
C202 C 0.16978 0.25251 0.13068 0.0
C203 C 0.1743 0.23265 0.11707 0.0
C204 C 0.15378 0.25675 0.16171 0.0
C205 C 0.14235 0.24118 0.18085 0.0
C206 C 0.14679 0.22136 0.16678 0.0
C207 C 0.16248 0.21715 0.13502 0.0
C208 C 0.12593 0.24531 0.21601 0.0
C209 C 0.10725 0.23614 0.20681 0.0
C210 C 0.12865 0.2577 0.25903 0.0
C211 C 0.14827 0.26673 0.27319 0.0
C212 C 0.16521 0.25462 0.28006 0.0
C213 C 0.18367 0.26324 0.29316 0.0
C214 C 0.18535 0.28396 0.29993 0.0
C215 C 0.16854 0.29608 0.29377 0.0
C216 C 0.15004 0.28753 0.2806 0.0
C217 C 0.06247 0.23497 0.3889 0.0
C218 C 0.05405 0.25321 0.4044 0.0
C219 C 0.07497 0.23413 0.34821 0.0
C220 C 0.07948 0.25157 0.32279 0.0
C221 C 0.07079 0.26977 0.33769 0.0
C222 C 0.05797 0.27055 0.378 0.0
C223 C 0.09436 0.25079 0.28296 0.0
C224 C 0.11272 0.26056 0.29139 0.0
C225 C 0.09148 0.23863 0.23983 0.0
C226 C 0.07221 0.22829 0.2286 0.0
C227 C 0.0542 0.23908 0.22757 0.0
C228 C 0.03607 0.22923 0.21742 0.0
C229 C 0.03577 0.2086 0.20799 0.0
C230 C 0.0536 0.19779 0.20857 0.0
C231 C 0.07177 0.20756 0.21873 0.0
H232 H 0.02172 0.20101 0.20014 0.0
H233 H 0.19966 0.29061 0.31008 0.0
H234 H 0.29635 0.65909 0.59975 0.0
H235 H 0.28783 0.63237 0.65584 0.0
H236 H 0.23005 0.65938 0.67825 0.0
H237 H 0.23937 0.68698 0.6253 0.0
H238 H 0.24185 0.64739 0.75989 0.0
H239 H 0.23979 0.61619 0.60051 0.0
H240 H 0.25278 0.60742 0.51838 0.0
H241 H 0.29949 0.5728 0.586 0.0
H242 H 0.28735 0.58221 0.66894 0.0
H243 H 0.20614 0.56495 0.88855 0.0
H244 H 0.20951 0.58667 0.81714 0.0
H245 H 0.27191 0.57114 0.80919 0.0
H246 H 0.26831 0.54896 0.87962 0.0
H247 H 0.25476 0.57617 0.71638 0.0
H248 H 0.25555 0.61171 0.87784 0.0
H249 H 0.23984 0.62104 0.95688 0.0
H250 H 0.19015 0.64655 0.87737 0.0
H251 H 0.20535 0.63696 0.79791 0.0
C252 C 0.28184 0.65922 0.61671 0.0
C253 C 0.26843 0.67491 0.60821 0.0
C254 C 0.27689 0.64389 0.64848 0.0
C255 C 0.25806 0.64347 0.67052 0.0
C256 C 0.24465 0.65925 0.66178 0.0
C257 C 0.24991 0.67497 0.63141 0.0
C258 C 0.25253 0.6269 0.70359 0.0
C259 C 0.24438 0.63182 0.74976 0.0
C260 C 0.25585 0.60648 0.69087 0.0
C261 C 0.26274 0.60006 0.64104 0.0
C262 C 0.2529 0.60679 0.59795 0.0
C263 C 0.26014 0.60173 0.5512 0.0
C264 C 0.27692 0.58947 0.54687 0.0
C265 C 0.2865 0.58229 0.58939 0.0
C266 C 0.27949 0.58756 0.63633 0.0
C267 C 0.22038 0.56578 0.87043 0.0
C268 C 0.23697 0.55536 0.88902 0.0
C269 C 0.22234 0.57823 0.82996 0.0
C270 C 0.24106 0.5808 0.80844 0.0
C271 C 0.25735 0.56939 0.82522 0.0
C272 C 0.25531 0.55676 0.86534 0.0
C273 C 0.24427 0.59681 0.77228 0.0
C274 C 0.25206 0.59177 0.72582 0.0
C275 C 0.24013 0.6171 0.78406 0.0
C276 C 0.23149 0.62347 0.83199 0.0
C277 C 0.24125 0.61925 0.87726 0.0
C278 C 0.23241 0.62456 0.92212 0.0
C279 C 0.21398 0.63434 0.92208 0.0
C280 C 0.2044 0.63894 0.87729 0.0
C281 C 0.21311 0.63356 0.83236 0.0
H282 H 0.20707 0.6384 0.95668 0.0
H283 H 0.28249 0.58555 0.51059 0.0
H284 H 0.84824 0.80204 0.08825 0.0
H285 H 0.87507 0.79451 0.14785 0.0
H286 H 0.8336 0.76132 0.23437 0.0
H287 H 0.80662 0.76924 0.17576 0.0
H288 H 0.85497 0.785 0.29259 0.0
H289 H 0.86978 0.73835 0.16003 0.0
H290 H 0.87692 0.72813 0.07383 0.0
H291 H 0.92929 0.76532 0.07783 0.0
H292 H 0.92231 0.77598 0.16388 0.0
H293 H 0.91997 0.73685 0.45475 0.0
H294 H 0.8976 0.74094 0.38292 0.0
H295 H 0.94033 0.78029 0.31815 0.0
H296 H 0.9629 0.77623 0.39033 0.0
H297 H 0.91987 0.75469 0.24748 0.0
H298 H 0.90497 0.8008 0.38078 0.0
H299 H 0.8981 0.81009 0.46771 0.0
H300 H 0.84552 0.77319 0.46191 0.0
H301 H 0.85228 0.76338 0.37517 0.0
C302 C 0.84485 0.79304 0.11982 0.0
C303 C 0.82524 0.78631 0.12734 0.0
C304 C 0.86024 0.78866 0.15376 0.0
C305 C 0.85643 0.77718 0.19543 0.0
C306 C 0.83692 0.77024 0.20259 0.0
C307 C 0.8215 0.77477 0.16899 0.0
C308 C 0.87248 0.77305 0.2328 0.0
C309 C 0.86903 0.77812 0.28265 0.0
C310 C 0.89112 0.76462 0.21983 0.0
C311 C 0.89541 0.75812 0.16823 0.0
C312 C 0.88274 0.74447 0.14241 0.0
C313 C 0.88677 0.73857 0.09359 0.0
C314 C 0.90352 0.74611 0.07032 0.0
C315 C 0.91631 0.75952 0.09588 0.0
C316 C 0.91233 0.76547 0.14469 0.0
C317 C 0.92473 0.74615 0.42487 0.0
C318 C 0.94303 0.75647 0.42841 0.0
C319 C 0.91196 0.74844 0.38385 0.0
C320 C 0.91716 0.7612 0.3457 0.0
C321 C 0.93603 0.77042 0.34732 0.0
C322 C 0.9489 0.76808 0.38848 0.0
C323 C 0.90207 0.76629 0.30696 0.0
C324 C 0.90576 0.76154 0.2571 0.0
C325 C 0.88359 0.77499 0.31978 0.0
C326 C 0.87923 0.78122 0.3716 0.0
C327 C 0.89201 0.79457 0.39813 0.0
C328 C 0.88813 0.79993 0.44737 0.0
C329 C 0.8714 0.7922 0.47035 0.0
C330 C 0.85848 0.77915 0.44407 0.0
C331 C 0.86232 0.77369 0.39486 0.0
H332 H 0.86844 0.79636 0.50849 0.0
H333 H 0.9066 0.74154 0.03252 0.0
H334 H 0.76214 0.32811 0.65449 0.0
H335 H 0.77113 0.35481 0.71435 0.0
H336 H 0.71769 0.38696 0.67357 0.0
H337 H 0.70866 0.36048 0.6132 0.0
H338 H 0.74981 0.4121 0.68666 0.0
H339 H 0.71862 0.35938 0.77591 0.0
H340 H 0.71426 0.32467 0.80257 0.0
H341 H 0.77367 0.32515 0.86611 0.0
H342 H 0.77848 0.35979 0.8392 0.0
H343 H 0.74107 0.4746 0.90456 0.0
H344 H 0.73702 0.4519 0.83229 0.0
H345 H 0.78769 0.41759 0.88329 0.0
H346 H 0.79141 0.43993 0.95597 0.0
H347 H 0.75792 0.39376 0.86301 0.0
H348 H 0.78872 0.44726 0.77768 0.0
H349 H 0.79311 0.48193 0.75084 0.0
H350 H 0.735 0.48032 0.6801 0.0
H351 H 0.73014 0.44571 0.7071 0.0
C352 C 0.75232 0.34089 0.65802 0.0
C353 C 0.73453 0.34201 0.62941 0.0
C354 C 0.75749 0.35614 0.6923 0.0
C355 C 0.74495 0.37276 0.69887 0.0
C356 C 0.72757 0.37427 0.66916 0.0
C357 C 0.72238 0.35904 0.63484 0.0
C358 C 0.74944 0.38808 0.7383 0.0
C359 C 0.75142 0.40817 0.72531 0.0
C360 C 0.7519 0.38287 0.78857 0.0
C361 C 0.74898 0.3621 0.80511 0.0
C362 C 0.7308 0.35203 0.79525 0.0
C363 C 0.72824 0.33238 0.81046 0.0
C364 C 0.7437 0.32269 0.8359 0.0
C365 C 0.76172 0.33266 0.84633 0.0
C366 C 0.76437 0.35231 0.83115 0.0
C367 C 0.75157 0.46245 0.89966 0.0
C368 C 0.76648 0.45893 0.93586 0.0
C369 C 0.74928 0.44949 0.85836 0.0
C370 C 0.76209 0.43302 0.85218 0.0
C371 C 0.77755 0.43009 0.88731 0.0
C372 C 0.77969 0.44287 0.92876 0.0
C373 C 0.7585 0.41792 0.81156 0.0
C374 C 0.75652 0.39779 0.82437 0.0
C375 C 0.75609 0.42315 0.76121 0.0
C376 C 0.75899 0.44395 0.74482 0.0
C377 C 0.77681 0.45435 0.75674 0.0
C378 C 0.77939 0.47398 0.74143 0.0
C379 C 0.76432 0.48334 0.71389 0.0
C380 C 0.74665 0.47306 0.70148 0.0
C381 C 0.74398 0.45343 0.71673 0.0
H382 H 0.76635 0.49854 0.70207 0.0
H383 H 0.74169 0.30748 0.84764 0.0
H384 H 0.6557 0.30773 0.41852 0.0
H385 H 0.62912 0.29941 0.3577 0.0
H386 H 0.66416 0.25025 0.3012 0.0
H387 H 0.69079 0.25837 0.36194 0.0
H388 H 0.64907 0.27499 0.22746 0.0
H389 H 0.62546 0.24031 0.3685 0.0
H390 H 0.61593 0.23738 0.45574 0.0
H391 H 0.56976 0.28103 0.4346 0.0
H392 H 0.57923 0.28446 0.34737 0.0
H393 H 0.57867 0.23 0.06614 0.0
H394 H 0.60135 0.23441 0.13786 0.0
H395 H 0.56357 0.28109 0.19625 0.0
H396 H 0.54062 0.27654 0.1245 0.0
H397 H 0.5795 0.2579 0.27045 0.0
H398 H 0.60315 0.29341 0.13134 0.0
H399 H 0.61262 0.29726 0.04431 0.0
H400 H 0.65887 0.25349 0.06247 0.0
H401 H 0.64945 0.24912 0.14942 0.0
C402 C 0.65774 0.29509 0.39331 0.0
C403 C 0.67543 0.28377 0.39497 0.0
C404 C 0.64249 0.29031 0.35873 0.0
C405 C 0.64466 0.27418 0.32511 0.0
C406 C 0.66221 0.26277 0.32685 0.0
C407 C 0.67739 0.26742 0.36168 0.0
C408 C 0.62896 0.26966 0.28684 0.0
C409 C 0.63394 0.27096 0.23684 0.0
C410 C 0.60908 0.26501 0.29924 0.0
C411 C 0.60319 0.26279 0.35151 0.0
C412 C 0.61338 0.24941 0.38254 0.0
C413 C 0.60797 0.24764 0.43198 0.0
C414 C 0.59228 0.25905 0.45074 0.0
C415 C 0.58193 0.27222 0.42004 0.0
C416 C 0.58729 0.27407 0.37057 0.0
C417 C 0.57508 0.24105 0.09458 0.0
C418 C 0.55804 0.25311 0.08951 0.0
C419 C 0.58803 0.24355 0.13551 0.0
C420 C 0.58435 0.25835 0.17188 0.0
C421 C 0.56672 0.26963 0.1685 0.0
C422 C 0.55363 0.26702 0.12758 0.0
C423 C 0.59971 0.26301 0.21106 0.0
C424 C 0.59465 0.26186 0.26113 0.0
C425 C 0.61954 0.26797 0.19883 0.0
C426 C 0.62547 0.2708 0.14677 0.0
C427 C 0.61526 0.28451 0.11668 0.0
C428 C 0.62062 0.28679 0.06737 0.0
C429 C 0.63631 0.2756 0.04784 0.0
C430 C 0.64671 0.26213 0.07763 0.0
C431 C 0.64137 0.25975 0.12694 0.0
H432 H 0.64043 0.27738 0.00965 0.0
H433 H 0.58813 0.25767 0.48904 0.0
H434 H 0.21133 0.15708 0.90689 0.0
H435 H 0.22089 0.13082 0.84779 0.0
H436 H 0.27353 0.16437 0.81252 0.0
H437 H 0.264 0.19089 0.87127 0.0
H438 H 0.2533 0.15145 0.73001 0.0
H439 H 0.27697 0.12247 0.88144 0.0
H440 H 0.27411 0.11114 0.96727 0.0
H441 H 0.22823 0.06946 0.92032 0.0
H442 H 0.23059 0.08076 0.83429 0.0
H443 H 0.29566 0.07859 0.57573 0.0
H444 H 0.29148 0.10089 0.64791 0.0
H445 H 0.23983 0.06702 0.68944 0.0
H446 H 0.24441 0.04426 0.61785 0.0
H447 H 0.2605 0.07981 0.77052 0.0
H448 H 0.23497 0.10947 0.62187 0.0
H449 H 0.23652 0.1207 0.53566 0.0
H450 H 0.2841 0.16127 0.57733 0.0
H451 H 0.28305 0.15004 0.66369 0.0
C452 C 0.22502 0.15886 0.88684 0.0
C453 C 0.23685 0.17617 0.89372 0.0
C454 C 0.23052 0.14375 0.85323 0.0
C455 C 0.24801 0.14554 0.82602 0.0
C456 C 0.25998 0.16267 0.83319 0.0
C457 C 0.25451 0.1778 0.86685 0.0
C458 C 0.25327 0.13003 0.7883 0.0
C459 C 0.25523 0.13584 0.73906 0.0
C460 C 0.25514 0.10956 0.79983 0.0
C461 C 0.25385 0.10259 0.85146 0.0
C462 C 0.26617 0.11099 0.88947 0.0
C463 C 0.26465 0.10455 0.93815 0.0
C464 C 0.25097 0.08962 0.94926 0.0
C465 C 0.23881 0.08104 0.91167 0.0
C466 C 0.24025 0.08744 0.86292 0.0
C467 C 0.28362 0.07575 0.60079 0.0
C468 C 0.27024 0.05987 0.59115 0.0
C469 C 0.2812 0.08851 0.64188 0.0
C470 C 0.26505 0.08592 0.67343 0.0
C471 C 0.25234 0.06936 0.66548 0.0
C472 C 0.25495 0.05638 0.62466 0.0
C473 C 0.26066 0.10129 0.71235 0.0
C474 C 0.25874 0.09545 0.76163 0.0
C475 C 0.25861 0.12176 0.70088 0.0
C476 C 0.25905 0.12877 0.64914 0.0
C477 C 0.24584 0.1207 0.61258 0.0
C478 C 0.24663 0.12707 0.5637 0.0
C479 C 0.26043 0.14166 0.551 0.0
C480 C 0.27344 0.14995 0.58721 0.0
C481 C 0.27275 0.1436 0.63614 0.0
H482 H 0.26103 0.14656 0.51313 0.0
H483 H 0.24981 0.08467 0.98698 0.0
H484 H 0.35014 0.72083 0.43856 0.0
H485 H 0.37673 0.72938 0.38215 0.0
H486 H 0.33339 0.75642 0.28387 0.0
H487 H 0.30671 0.74752 0.33936 0.0
H488 H 0.35719 0.73358 0.23266 0.0
H489 H 0.36633 0.78446 0.35921 0.0
H490 H 0.37142 0.79775 0.4446 0.0
H491 H 0.4271 0.76633 0.45677 0.0
H492 H 0.42219 0.75255 0.37169 0.0
H493 H 0.41887 0.78823 0.08001 0.0
H494 H 0.39697 0.78217 0.14912 0.0
H495 H 0.44101 0.74304 0.21356 0.0
H496 H 0.46293 0.74857 0.14341 0.0
H497 H 0.41877 0.77083 0.28374 0.0
H498 H 0.4085 0.7204 0.15413 0.0
H499 H 0.40287 0.7091 0.06726 0.0
H500 H 0.34808 0.74227 0.06039 0.0
H501 H 0.35357 0.75406 0.14703 0.0
C502 C 0.34627 0.72867 0.40504 0.0
C503 C 0.32626 0.73339 0.39337 0.0
C504 C 0.36153 0.73364 0.37292 0.0
C505 C 0.35711 0.74369 0.32888 0.0
C506 C 0.33718 0.74862 0.31753 0.0
C507 C 0.32193 0.74353 0.34937 0.0
C508 C 0.37307 0.74842 0.29352 0.0
C509 C 0.37052 0.74191 0.24392 0.0
C510 C 0.39074 0.75893 0.3082 0.0
C511 C 0.39379 0.76729 0.35925 0.0
C512 C 0.37959 0.78025 0.38022 0.0
C513 C 0.38245 0.7879 0.42854 0.0
C514 C 0.39955 0.78286 0.45612 0.0
C515 C 0.41385 0.7702 0.43539 0.0
C516 C 0.41104 0.76246 0.38711 0.0
C517 C 0.424 0.77841 0.10896 0.0
C518 C 0.4425 0.76857 0.10568 0.0
C519 C 0.41152 0.77509 0.14861 0.0
C520 C 0.41731 0.76202 0.18607 0.0
C521 C 0.43632 0.75322 0.18493 0.0
C522 C 0.44882 0.75641 0.14489 0.0
C523 C 0.40262 0.75616 0.2233 0.0
C524 C 0.40543 0.76242 0.27295 0.0
C525 C 0.38505 0.74561 0.20873 0.0
C526 C 0.38154 0.73826 0.15691 0.0
C527 C 0.39533 0.72542 0.13397 0.0
C528 C 0.39216 0.7189 0.0848 0.0
C529 C 0.37516 0.725 0.05828 0.0
C530 C 0.36126 0.73758 0.08096 0.0
C531 C 0.36438 0.74417 0.13011 0.0
H532 H 0.37273 0.71995 0.0202 0.0
H533 H 0.40174 0.7888 0.49353 0.0
H534 H 0.76034 0.86566 0.96459 0.0
H535 H 0.75325 0.89321 0.90816 0.0
H536 H 0.76679 0.85471 0.78306 0.0
H537 H 0.77335 0.82705 0.83875 0.0
H538 H 0.78704 0.89544 0.79217 0.0
H539 H 0.72237 0.86141 0.79535 0.0
H540 H 0.69333 0.84841 0.83912 0.0
H541 H 0.68125 0.90725 0.89794 0.0
H542 H 0.71045 0.92053 0.85512 0.0
H543 H 0.75689 0.93736 0.57049 0.0
H544 H 0.76316 0.91685 0.642 0.0
H545 H 0.72685 0.95617 0.73124 0.0
H546 H 0.71928 0.97619 0.65818 0.0
H547 H 0.7186 0.91956 0.75256 0.0
H548 H 0.77925 0.95531 0.74374 0.0
H549 H 0.80889 0.96992 0.70582 0.0
H550 H 0.82983 0.9112 0.66616 0.0
H551 H 0.80017 0.89622 0.7032 0.0
C552 C 0.7617 0.86308 0.92502 0.0
C553 C 0.76735 0.8442 0.90604 0.0
C554 C 0.75765 0.87879 0.89295 0.0
C555 C 0.75955 0.87593 0.8416 0.0
C556 C 0.76527 0.85716 0.82263 0.0
C557 C 0.7689 0.84137 0.85448 0.0
C558 C 0.75581 0.89248 0.80722 0.0
C559 C 0.77211 0.9007 0.78318 0.0
C560 C 0.7364 0.89986 0.79742 0.0
C561 C 0.71873 0.89191 0.82257 0.0
C562 C 0.71364 0.87153 0.81801 0.0
C563 C 0.69713 0.86412 0.84256 0.0
C564 C 0.68549 0.87698 0.87143 0.0
C565 C 0.6903 0.8973 0.87565 0.0
C566 C 0.70682 0.90477 0.85124 0.0
C567 C 0.74998 0.94161 0.60506 0.0
C568 C 0.73734 0.95835 0.60824 0.0
C569 C 0.7539 0.93 0.64635 0.0
C570 C 0.7458 0.9351 0.69246 0.0
C571 C 0.73337 0.95196 0.69615 0.0
C572 C 0.72919 0.9635 0.65445 0.0
C573 C 0.74985 0.92222 0.7358 0.0
C574 C 0.73364 0.91466 0.76182 0.0
C575 C 0.76945 0.91573 0.74826 0.0
C576 C 0.7874 0.92464 0.72604 0.0
C577 C 0.7901 0.94551 0.72665 0.0
C578 C 0.80692 0.95386 0.70535 0.0
C579 C 0.82122 0.9415 0.68354 0.0
C580 C 0.81874 0.92075 0.68308 0.0
C581 C 0.80194 0.91232 0.7043 0.0
H582 H 0.83422 0.948 0.66705 0.0
H583 H 0.67272 0.87122 0.89041 0.0
H584 H 0.84353 0.81134 0.93134 0.0
H585 H 0.87068 0.80519 0.87417 0.0
H586 H 0.84097 0.75168 0.81858 0.0
H587 H 0.81357 0.7578 0.87538 0.0
H588 H 0.8974 0.7754 0.85733 0.0
H589 H 0.84617 0.74961 0.69269 0.0
H590 H 0.81131 0.75371 0.66296 0.0
H591 H 0.80804 0.81035 0.74065 0.0
H592 H 0.84295 0.80672 0.77016 0.0
H593 H 0.95521 0.73939 0.65109 0.0
H594 H 0.93269 0.74382 0.72107 0.0
H595 H 0.90771 0.79627 0.65338 0.0
H596 H 0.92984 0.79165 0.58342 0.0
H597 H 0.87898 0.77267 0.67813 0.0
H598 H 0.9383 0.79889 0.75901 0.0
H599 H 0.97341 0.7986 0.78866 0.0
H600 H 0.96136 0.74781 0.87766 0.0
H601 H 0.92622 0.74764 0.848 0.0
C602 C 0.84279 0.79817 0.90724 0.0
C603 C 0.82619 0.78521 0.90751 0.0
C604 C 0.85842 0.79461 0.87478 0.0
C605 C 0.85776 0.7781 0.84175 0.0
C606 C 0.84167 0.76465 0.84339 0.0
C607 C 0.82602 0.76817 0.87591 0.0
C608 C 0.87319 0.7758 0.80338 0.0
C609 C 0.89341 0.77468 0.81813 0.0
C610 C 0.868 0.77529 0.75223 0.0
C611 C 0.84709 0.77776 0.7341 0.0
C612 C 0.83802 0.76296 0.70327 0.0
C613 C 0.81826 0.7652 0.68647 0.0
C614 C 0.80744 0.78224 0.70006 0.0
C615 C 0.8164 0.79712 0.7303 0.0
C616 C 0.83617 0.79497 0.74711 0.0
C617 C 0.94517 0.75207 0.65183 0.0
C618 C 0.94415 0.76511 0.61181 0.0
C619 C 0.9323 0.75459 0.69173 0.0
C620 C 0.91842 0.77035 0.69245 0.0
C621 C 0.91812 0.78388 0.65349 0.0
C622 C 0.93081 0.78128 0.61361 0.0
C623 C 0.90332 0.77219 0.73187 0.0
C624 C 0.88307 0.7732 0.71729 0.0
C625 C 0.90856 0.77306 0.78303 0.0
C626 C 0.92968 0.77312 0.80085 0.0
C627 C 0.94318 0.78755 0.78457 0.0
C628 C 0.96308 0.78749 0.80144 0.0
C629 C 0.96963 0.77316 0.83491 0.0
C630 C 0.95627 0.75888 0.85167 0.0
C631 C 0.93636 0.75887 0.83487 0.0
H632 H 0.98504 0.77314 0.84795 0.0
H633 H 0.79214 0.78393 0.68707 0.0
H634 H 0.7194 0.36712 0.4526 0.0
H635 H 0.72845 0.39431 0.39838 0.0
H636 H 0.76098 0.35281 0.30612 0.0
H637 H 0.75191 0.32545 0.35992 0.0
H638 H 0.78124 0.3898 0.32631 0.0
H639 H 0.7164 0.36513 0.26959 0.0
H640 H 0.68103 0.35621 0.28021 0.0
H641 H 0.66822 0.41665 0.32608 0.0
H642 H 0.70361 0.42586 0.31644 0.0
H643 H 0.78788 0.43648 0.09614 0.0
H644 H 0.78322 0.41534 0.16715 0.0
H645 H 0.74281 0.45876 0.22982 0.0
H646 H 0.74658 0.47955 0.15721 0.0
H647 H 0.72682 0.42357 0.23284 0.0
H648 H 0.79049 0.44963 0.28187 0.0
H649 H 0.82581 0.4591 0.2731 0.0
H650 H 0.84116 0.39764 0.24511 0.0
H651 H 0.80589 0.38782 0.25301 0.0
C652 C 0.7286 0.36377 0.42098 0.0
C653 C 0.7348 0.34406 0.41034 0.0
C654 C 0.73373 0.37933 0.39004 0.0
C655 C 0.74528 0.37553 0.34813 0.0
C656 C 0.75206 0.35604 0.33833 0.0
C657 C 0.74677 0.34041 0.36894 0.0
C658 C 0.7495 0.39166 0.31314 0.0
C659 C 0.76941 0.39713 0.30554 0.0
C660 C 0.73397 0.40162 0.28737 0.0
C661 C 0.71268 0.39612 0.29286 0.0
C662 C 0.70607 0.37648 0.28236 0.0
C663 C 0.68602 0.37138 0.28813 0.0
C664 C 0.6724 0.38584 0.30396 0.0
C665 C 0.67879 0.40546 0.31392 0.0
C666 C 0.69884 0.41062 0.30829 0.0
C667 C 0.77804 0.4416 0.12508 0.0
C668 C 0.76744 0.45964 0.12067 0.0
C669 C 0.77559 0.42959 0.16609 0.0
C670 C 0.76279 0.4355 0.20423 0.0
C671 C 0.75279 0.45388 0.20093 0.0
C672 C 0.75511 0.46586 0.1596 0.0
C673 C 0.75869 0.42169 0.24524 0.0
C674 C 0.73875 0.41656 0.254 0.0
C675 C 0.77422 0.41219 0.27237 0.0
C676 C 0.79549 0.41801 0.2677 0.0
C677 C 0.80137 0.43815 0.27349 0.0
C678 C 0.82139 0.44357 0.26873 0.0
C679 C 0.83571 0.42899 0.25846 0.0
C680 C 0.83005 0.40893 0.25304 0.0
C681 C 0.81004 0.40342 0.25773 0.0
H682 H 0.85121 0.43322 0.25479 0.0
H683 H 0.65688 0.38187 0.30839 0.0
H684 H 0.15135 0.23607 0.95076 0.0
H685 H 0.12385 0.24209 0.89146 0.0
H686 H 0.16327 0.22936 0.7703 0.0
H687 H 0.19087 0.22454 0.82917 0.0
H688 H 0.14238 0.25854 0.74593 0.0
H689 H 0.12619 0.1951 0.81561 0.0
H690 H 0.11904 0.17176 0.88235 0.0
H691 H 0.06868 0.20735 0.92496 0.0
H692 H 0.07569 0.23104 0.8588 0.0
H693 H 0.07398 0.22446 0.557 0.0
H694 H 0.09579 0.22185 0.63028 0.0
H695 H 0.06133 0.26689 0.7063 0.0
H696 H 0.03993 0.27048 0.63209 0.0
H697 H 0.07684 0.22446 0.75792 0.0
H698 H 0.09504 0.28759 0.68064 0.0
H699 H 0.10272 0.3071 0.607 0.0
H700 H 0.15066 0.26693 0.57248 0.0
H701 H 0.14303 0.24701 0.64554 0.0
C702 C 0.15408 0.23464 0.91142 0.0
C703 C 0.17323 0.22987 0.89455 0.0
C704 C 0.13834 0.23795 0.87753 0.0
C705 C 0.14132 0.23589 0.82621 0.0
C706 C 0.16051 0.23115 0.80957 0.0
C707 C 0.17631 0.22835 0.84329 0.0
C708 C 0.1247 0.23877 0.78941 0.0
C709 C 0.12812 0.251 0.74881 0.0
C710 C 0.10586 0.2292 0.79298 0.0
C711 C 0.1016 0.21496 0.83266 0.0
C712 C 0.11368 0.19802 0.83945 0.0
C713 C 0.10964 0.18472 0.87713 0.0
C714 C 0.09345 0.1881 0.90798 0.0
C715 C 0.08123 0.20477 0.9011 0.0
C716 C 0.08523 0.21813 0.86351 0.0
C717 C 0.07101 0.23391 0.58912 0.0
C718 C 0.05536 0.24794 0.5882 0.0
C719 C 0.08337 0.23221 0.63114 0.0
C720 C 0.08014 0.24422 0.6734 0.0
C721 C 0.06394 0.25745 0.67392 0.0
C722 C 0.0517 0.25941 0.63152 0.0
C723 C 0.09483 0.24396 0.71508 0.0
C724 C 0.09105 0.2322 0.75609 0.0
C725 C 0.11351 0.25355 0.71152 0.0
C726 C 0.11834 0.26573 0.66822 0.0
C727 C 0.1071 0.28283 0.65709 0.0
C728 C 0.11146 0.29398 0.61552 0.0
C729 C 0.12713 0.28823 0.58501 0.0
C730 C 0.13851 0.27136 0.59612 0.0
C731 C 0.13419 0.26015 0.63762 0.0
H732 H 0.13048 0.29687 0.55282 0.0
H733 H 0.09035 0.17779 0.93713 0.0
H734 H 0.23672 0.68911 0.364 0.0
H735 H 0.22772 0.66241 0.30427 0.0
H736 H 0.2807 0.62984 0.3467 0.0
H737 H 0.28977 0.65641 0.40683 0.0
H738 H 0.24806 0.65233 0.22574 0.0
H739 H 0.27261 0.57928 0.32366 0.0
H740 H 0.27113 0.56355 0.40524 0.0
H741 H 0.22279 0.60224 0.44574 0.0
H742 H 0.22386 0.6181 0.36429 0.0
H743 H 0.26542 0.57743 0.04561 0.0
H744 H 0.26856 0.60007 0.11772 0.0
H745 H 0.2182 0.57138 0.18347 0.0
H746 H 0.21524 0.54837 0.11144 0.0
H747 H 0.24546 0.57928 0.25223 0.0
H748 H 0.21325 0.61736 0.1263 0.0
H749 H 0.20796 0.63252 0.04481 0.0
H750 H 0.26371 0.66404 0.06241 0.0
H751 H 0.26937 0.64895 0.14408 0.0
C752 C 0.24637 0.67618 0.36111 0.0
C753 C 0.26412 0.67506 0.38983 0.0
C754 C 0.24117 0.6609 0.32694 0.0
C755 C 0.2535 0.64408 0.32101 0.0
C756 C 0.27082 0.64253 0.35099 0.0
C757 C 0.27607 0.65785 0.38509 0.0
C758 C 0.24935 0.62928 0.28008 0.0
C759 C 0.24746 0.63636 0.23168 0.0
C760 C 0.24826 0.60844 0.28769 0.0
C761 C 0.24844 0.59998 0.33798 0.0
C762 C 0.26173 0.58449 0.35006 0.0
C763 C 0.26093 0.57552 0.39622 0.0
C764 C 0.24682 0.58183 0.4305 0.0
C765 C 0.2337 0.59736 0.41908 0.0
C766 C 0.23446 0.60642 0.37301 0.0
C767 C 0.25501 0.57595 0.07545 0.0
C768 C 0.23996 0.56126 0.07272 0.0
C769 C 0.25678 0.58893 0.1166 0.0
C770 C 0.24336 0.58773 0.15563 0.0
C771 C 0.22869 0.57266 0.15374 0.0
C772 C 0.22702 0.5595 0.11266 0.0
C773 C 0.24459 0.60236 0.19801 0.0
C774 C 0.24606 0.59526 0.24649 0.0
C775 C 0.24485 0.62324 0.19072 0.0
C776 C 0.24179 0.63191 0.14108 0.0
C777 C 0.22446 0.62738 0.11257 0.0
C778 C 0.22139 0.636 0.06638 0.0
C779 C 0.23551 0.64923 0.04836 0.0
C780 C 0.25278 0.6538 0.07643 0.0
C781 C 0.25591 0.64524 0.1227 0.0
H782 H 0.23308 0.65601 0.01274 0.0
H783 H 0.24602 0.57464 0.46591 0.0
H784 H 0.34604 0.7114 0.58986 0.0
H785 H 0.37348 0.71958 0.64798 0.0
H786 H 0.33981 0.76929 0.70683 0.0
H787 H 0.31239 0.76148 0.648 0.0
H788 H 0.37837 0.77927 0.69893 0.0
H789 H 0.34188 0.72457 0.76588 0.0
H790 H 0.32649 0.69104 0.76459 0.0
H791 H 0.38382 0.66423 0.74113 0.0
H792 H 0.39951 0.69765 0.74157 0.0
H793 H 0.42133 0.79043 0.9411 0.0
H794 H 0.40018 0.78504 0.86688 0.0
H795 H 0.44042 0.73926 0.8148 0.0
H796 H 0.46165 0.74457 0.88947 0.0
H797 H 0.40112 0.72681 0.81413 0.0
H798 H 0.43789 0.78233 0.75558 0.0
H799 H 0.45257 0.81617 0.75924 0.0
H800 H 0.39405 0.84182 0.76993 0.0
H801 H 0.37902 0.80811 0.76708 0.0
C802 C 0.34447 0.72414 0.61499 0.0
C803 C 0.32689 0.73564 0.61463 0.0
C804 C 0.36018 0.72877 0.64829 0.0
C805 C 0.35858 0.74484 0.68237 0.0
C806 C 0.34135 0.75678 0.68098 0.0
C807 C 0.32566 0.75224 0.64743 0.0
C808 C 0.37453 0.74876 0.72061 0.0
C809 C 0.38323 0.76786 0.7244 0.0
C810 C 0.38121 0.73373 0.75314 0.0
C811 C 0.37183 0.71362 0.7532 0.0
C812 C 0.35118 0.71153 0.76007 0.0
C813 C 0.3424 0.69255 0.75955 0.0
C814 C 0.35416 0.67552 0.75264 0.0
C815 C 0.37473 0.67744 0.74639 0.0
C816 C 0.38357 0.6964 0.74679 0.0
C817 C 0.42579 0.77939 0.9135 0.0
C818 C 0.4431 0.76788 0.92102 0.0
C819 C 0.41376 0.7764 0.87101 0.0
C820 C 0.41877 0.76181 0.83519 0.0
C821 C 0.43633 0.75063 0.84194 0.0
C822 C 0.4485 0.75376 0.88436 0.0
C823 C 0.40486 0.75737 0.79272 0.0
C824 C 0.39646 0.73816 0.78826 0.0
C825 C 0.39836 0.77235 0.75992 0.0
C826 C 0.40733 0.79267 0.76151 0.0
C827 C 0.42815 0.79518 0.75912 0.0
C828 C 0.43654 0.81434 0.76097 0.0
C829 C 0.42425 0.83113 0.76491 0.0
C830 C 0.40355 0.8288 0.76691 0.0
C831 C 0.39508 0.80966 0.76511 0.0
H832 H 0.43077 0.84596 0.76634 0.0
H833 H 0.34734 0.66084 0.75224 0.0
H834 H 0.73618 0.8262 0.15499 0.0
H835 H 0.72629 0.85322 0.21191 0.0
H836 H 0.77465 0.88973 0.16179 0.0
H837 H 0.78488 0.8627 0.10572 0.0
H838 H 0.7743 0.89048 0.25873 0.0
H839 H 0.7251 0.89915 0.12957 0.0
H840 H 0.69823 0.88873 0.0704 0.0
H841 H 0.6612 0.87277 0.19115 0.0
H842 H 0.68797 0.88283 0.25107 0.0
H843 H 0.74775 0.97794 0.38989 0.0
H844 H 0.75141 0.95599 0.3167 0.0
H845 H 0.70891 0.91472 0.37512 0.0
H846 H 0.70502 0.93672 0.44813 0.0
H847 H 0.7057 0.91785 0.27094 0.0
H848 H 0.75591 0.90696 0.39874 0.0
H849 H 0.78274 0.91746 0.45794 0.0
H850 H 0.81795 0.93765 0.33784 0.0
H851 H 0.79114 0.92758 0.27796 0.0
C852 C 0.74463 0.84003 0.15584 0.0
C853 C 0.76141 0.84222 0.12601 0.0
C854 C 0.73888 0.85552 0.18822 0.0
C855 C 0.74963 0.8736 0.1909 0.0
C856 C 0.76615 0.87592 0.16048 0.0
C857 C 0.77197 0.86043 0.12841 0.0
C858 C 0.7444 0.88969 0.22727 0.0
C859 C 0.75937 0.89669 0.26067 0.0
C860 C 0.72481 0.89752 0.23072 0.0
C861 C 0.70863 0.89158 0.19481 0.0
C862 C 0.71129 0.89328 0.14351 0.0
C863 C 0.69606 0.88746 0.10983 0.0
C864 C 0.67804 0.88004 0.127 0.0
C865 C 0.67518 0.87849 0.1779 0.0
C866 C 0.69037 0.88427 0.21174 0.0
C867 C 0.73875 0.96448 0.38643 0.0
C868 C 0.72625 0.95893 0.4249 0.0
C869 C 0.74094 0.95191 0.34477 0.0
C870 C 0.73063 0.93361 0.34087 0.0
C871 C 0.71703 0.92875 0.37747 0.0
C872 C 0.71492 0.94125 0.41925 0.0
C873 C 0.73564 0.9186 0.30178 0.0
C874 C 0.72065 0.91174 0.26831 0.0
C875 C 0.75521 0.91087 0.29806 0.0
C876 C 0.77144 0.91673 0.33394 0.0
C877 C 0.76931 0.91379 0.385 0.0
C878 C 0.78452 0.91964 0.41867 0.0
C879 C 0.80202 0.92826 0.40167 0.0
C880 C 0.80437 0.931 0.35095 0.0
C881 C 0.78917 0.92522 0.31713 0.0
H882 H 0.81379 0.93278 0.42779 0.0
H883 H 0.66627 0.87554 0.10087 0.0
H884 H 0.68804 0.26633 0.66353 0.0
H885 H 0.65979 0.25842 0.71557 0.0
H886 H 0.6215 0.29588 0.627 0.0
H887 H 0.64963 0.30368 0.5742 0.0
H888 H 0.61963 0.303 0.73229 0.0
H889 H 0.61427 0.24916 0.61311 0.0
H890 H 0.62693 0.22116 0.56186 0.0
H891 H 0.64342 0.18958 0.69326 0.0
H892 H 0.63113 0.21755 0.74536 0.0
H893 H 0.5358 0.27544 0.87146 0.0
H894 H 0.55622 0.28029 0.79845 0.0
H895 H 0.59928 0.238 0.85415 0.0
H896 H 0.57868 0.2326 0.92605 0.0
H897 H 0.59535 0.23383 0.75596 0.0
H898 H 0.60541 0.28842 0.87421 0.0
H899 H 0.59491 0.31668 0.92783 0.0
H900 H 0.57149 0.34693 0.80055 0.0
H901 H 0.58164 0.3187 0.74623 0.0
C902 C 0.6736 0.27283 0.65496 0.0
C903 C 0.67109 0.28567 0.61481 0.0
C904 C 0.65746 0.26823 0.6846 0.0
C905 C 0.63857 0.27652 0.67496 0.0
C906 C 0.63597 0.28932 0.63494 0.0
C907 C 0.65205 0.2937 0.60478 0.0
C908 C 0.62176 0.27223 0.7079 0.0
C909 C 0.61398 0.28796 0.73675 0.0
C910 C 0.61476 0.25253 0.71431 0.0
C911 C 0.62191 0.23553 0.68315 0.0
C912 C 0.62073 0.23631 0.6311 0.0
C913 C 0.62782 0.22043 0.60189 0.0
C914 C 0.63601 0.20361 0.62429 0.0
C915 C 0.63707 0.20262 0.67596 0.0
C916 C 0.63002 0.21847 0.70535 0.0
C917 C 0.54939 0.26686 0.86754 0.0
C918 C 0.55576 0.25383 0.90485 0.0
C919 C 0.56113 0.26976 0.82602 0.0
C920 C 0.57947 0.25977 0.82124 0.0
C921 C 0.58526 0.24595 0.85708 0.0
C922 C 0.57355 0.24301 0.89841 0.0
C923 C 0.59336 0.26458 0.78099 0.0
C924 C 0.60069 0.24894 0.75089 0.0
C925 C 0.60011 0.28436 0.77372 0.0
C926 C 0.59405 0.30135 0.80626 0.0
C927 C 0.59788 0.30103 0.85772 0.0
C928 C 0.59202 0.31705 0.88822 0.0
C929 C 0.58248 0.33356 0.86762 0.0
C930 C 0.57884 0.33411 0.81646 0.0
C931 C 0.58465 0.31811 0.7858 0.0
H932 H 0.57795 0.34595 0.89129 0.0
H933 H 0.64152 0.19134 0.60161 0.0
H934 H 0.22086 0.15088 0.06766 0.0
H935 H 0.23026 0.12392 0.1232 0.0
H936 H 0.26085 0.16636 0.22102 0.0
H937 H 0.2514 0.19349 0.16595 0.0
H938 H 0.28237 0.13006 0.20308 0.0
H939 H 0.21657 0.1525 0.2504 0.0
H940 H 0.18104 0.1602 0.23427 0.0
H941 H 0.1703 0.09936 0.18649 0.0
H942 H 0.20586 0.09138 0.20162 0.0
H943 H 0.29001 0.08354 0.4335 0.0
H944 H 0.28459 0.1046 0.36223 0.0
H945 H 0.24551 0.05985 0.29464 0.0
H946 H 0.24998 0.0391 0.36757 0.0
H947 H 0.22858 0.09445 0.28879 0.0
H948 H 0.2931 0.07053 0.24869 0.0
H949 H 0.32862 0.06221 0.26238 0.0
H950 H 0.34218 0.12412 0.29257 0.0
H951 H 0.30668 0.1328 0.27975 0.0
C952 C 0.22969 0.1545 0.10083 0.0
C953 C 0.23524 0.17439 0.11261 0.0
C954 C 0.23502 0.13906 0.13251 0.0
C955 C 0.24614 0.14319 0.1763 0.0
C956 C 0.25227 0.16289 0.18736 0.0
C957 C 0.24675 0.17838 0.156 0.0
C958 C 0.25066 0.12714 0.21176 0.0
C959 C 0.27067 0.12233 0.22216 0.0
C960 C 0.23532 0.11665 0.23527 0.0
C961 C 0.21391 0.1214 0.22659 0.0
C962 C 0.20667 0.14081 0.23605 0.0
C963 C 0.18652 0.14522 0.22716 0.0
C964 C 0.17343 0.13029 0.20923 0.0
C965 C 0.18046 0.11091 0.20029 0.0
C966 C 0.20061 0.10644 0.20903 0.0
C967 C 0.28027 0.07812 0.40349 0.0
C968 C 0.27027 0.05968 0.40658 0.0
C969 C 0.27739 0.0901 0.36232 0.0
C970 C 0.2648 0.08377 0.32263 0.0
C971 C 0.25534 0.06505 0.32473 0.0
C972 C 0.25806 0.0531 0.36626 0.0
C973 C 0.26043 0.09741 0.28097 0.0
C974 C 0.24039 0.10187 0.26935 0.0
C975 C 0.27578 0.10742 0.25598 0.0
C976 C 0.29718 0.10229 0.26358 0.0
C977 C 0.30362 0.08236 0.25859 0.0
C978 C 0.32376 0.07758 0.26614 0.0
C979 C 0.33764 0.09262 0.27842 0.0
C980 C 0.33141 0.11248 0.28307 0.0
C981 C 0.31128 0.11735 0.27559 0.0
H982 H 0.35323 0.08889 0.28426 0.0
H983 H 0.15784 0.13373 0.20238 0.0
H984 H 0.2205 0.29187 0.92728 0.0
H985 H 0.21967 0.32846 0.92908 0.0
H986 H 0.22838 0.32907 0.08796 0.0
H987 H 0.22929 0.29253 0.08658 0.0
H988 H 0.19901 0.35575 0.05636 0.0
H989 H 0.26681 0.33831 0.01856 0.0
H990 H 0.29309 0.32117 0.9713 0.0
H991 H 0.27398 0.35109 0.83944 0.0
H992 H 0.24737 0.36819 0.88581 0.0
H993 H 0.22922 0.45595 0.10366 0.0
H994 H 0.22713 0.41946 0.09721 0.0
H995 H 0.22494 0.42246 0.93761 0.0
H996 H 0.2274 0.45895 0.9439 0.0
H997 H 0.24977 0.3938 0.96605 0.0
H998 H 0.18284 0.41232 0.00349 0.0
H999 H 0.15608 0.42918 0.04966 0.0
H1000 H 0.17271 0.3972 0.18032 0.0
H1001 H 0.19977 0.38034 0.13511 0.0
C1002 C 0.22214 0.29977 0.96265 0.0
C1003 C 0.2251 0.28925 0.00676 0.0
C1004 C 0.22173 0.32068 0.96357 0.0
C1005 C 0.22413 0.33148 0.00861 0.0
C1006 C 0.22653 0.32103 0.05281 0.0
C1007 C 0.22713 0.30014 0.05189 0.0
C1008 C 0.22458 0.35367 0.00966 0.0
C1009 C 0.21022 0.3641 0.03706 0.0
C1010 C 0.2389 0.36453 0.9834 0.0
C1011 C 0.25496 0.35436 0.95553 0.0
C1012 C 0.2681 0.34111 0.97939 0.0
C1013 C 0.28307 0.33142 0.95278 0.0
C1014 C 0.28517 0.335 0.90236 0.0
C1015 C 0.27232 0.34831 0.87848 0.0
C1016 C 0.25729 0.35801 0.90491 0.0
C1017 C 0.22825 0.44881 0.06722 0.0
C1018 C 0.22842 0.4603 0.02437 0.0
C1019 C 0.22696 0.42796 0.06355 0.0
C1020 C 0.2256 0.41818 0.01691 0.0
C1021 C 0.22592 0.42965 0.97399 0.0
C1022 C 0.22728 0.45053 0.97765 0.0
C1023 C 0.22424 0.39599 0.01305 0.0
C1024 C 0.23845 0.38552 0.98514 0.0
C1025 C 0.20972 0.3851 0.03868 0.0
C1026 C 0.19346 0.3952 0.06601 0.0
C1027 C 0.1809 0.409 0.04218 0.0
C1028 C 0.16565 0.41854 0.06816 0.0
C1029 C 0.16273 0.4143 0.11793 0.0
C1030 C 0.17501 0.40048 0.14179 0.0
C1031 C 0.19029 0.39092 0.11599 0.0
H1032 H 0.15092 0.4217 0.13797 0.0
H1033 H 0.29677 0.32749 0.88182 0.0
H1034 H 0.20981 0.72435 0.58345 0.0
H1035 H 0.1734 0.72728 0.58416 0.0
H1036 H 0.17264 0.74122 0.42885 0.0
H1037 H 0.20897 0.73877 0.42807 0.0
H1038 H 0.14976 0.76642 0.47792 0.0
H1039 H 0.15789 0.69481 0.47182 0.0
H1040 H 0.17089 0.66253 0.50068 0.0
H1041 H 0.14229 0.67183 0.64013 0.0
H1042 H 0.12933 0.7043 0.61233 0.0
H1043 H 0.04803 0.75484 0.41344 0.0
H1044 H 0.08416 0.75024 0.42136 0.0
H1045 H 0.07855 0.73919 0.57729 0.0
H1046 H 0.04223 0.74348 0.56933 0.0
H1047 H 0.10453 0.71323 0.5346 0.0
H1048 H 0.09529 0.78413 0.53949 0.0
H1049 H 0.08247 0.81652 0.51102 0.0
H1050 H 0.11342 0.8087 0.37434 0.0
H1051 H 0.12621 0.77612 0.40171 0.0
C1052 C 0.20189 0.72793 0.54936 0.0
C1053 C 0.21236 0.7314 0.50573 0.0
C1054 C 0.18104 0.72952 0.54978 0.0
C1055 C 0.17022 0.73435 0.50646 0.0
C1056 C 0.18063 0.73755 0.46279 0.0
C1057 C 0.20144 0.73609 0.46239 0.0
C1058 C 0.14811 0.73671 0.50663 0.0
C1059 C 0.13988 0.75467 0.48975 0.0
C1060 C 0.13519 0.72167 0.5236 0.0
C1061 C 0.14281 0.70208 0.54018 0.0
C1062 C 0.15449 0.69003 0.50877 0.0
C1063 C 0.16183 0.6717 0.52492 0.0
C1064 C 0.15746 0.66516 0.57226 0.0
C1065 C 0.14568 0.67692 0.60349 0.0
C1066 C 0.13832 0.69529 0.58755 0.0
C1067 C 0.0545 0.7514 0.44941 0.0
C1068 C 0.04234 0.74965 0.49076 0.0
C1069 C 0.07515 0.74885 0.45394 0.0
C1070 C 0.08414 0.74467 0.50009 0.0
C1071 C 0.07197 0.74248 0.54136 0.0
C1072 C 0.05122 0.745 0.53679 0.0
C1073 C 0.10623 0.74277 0.50494 0.0
C1074 C 0.11444 0.72498 0.52293 0.0
C1075 C 0.11919 0.75796 0.48901 0.0
C1076 C 0.11158 0.7776 0.4725 0.0
C1077 C 0.09925 0.78925 0.50321 0.0
C1078 C 0.092 0.80765 0.4873 0.0
C1079 C 0.09709 0.81464 0.44086 0.0
C1080 C 0.10947 0.80326 0.41029 0.0
C1081 C 0.11675 0.78483 0.426 0.0
H1082 H 0.09146 0.8289 0.42861 0.0
H1083 H 0.16317 0.65096 0.5847 0.0
H1084 H 0.75311 0.72565 0.94645 0.0
H1085 H 0.75231 0.68914 0.94741 0.0
H1086 H 0.79027 0.69002 0.07877 0.0
H1087 H 0.79103 0.72665 0.07839 0.0
H1088 H 0.80162 0.6612 0.00793 0.0
H1089 H 0.74357 0.68205 0.09179 0.0
H1090 H 0.71214 0.70017 0.10589 0.0
H1091 H 0.68471 0.66953 0.98023 0.0
H1092 H 0.7162 0.65171 0.96427 0.0
H1093 H 0.78249 0.55857 0.06379 0.0
H1094 H 0.78537 0.59509 0.06984 0.0
H1095 H 0.74717 0.60019 0.93984 0.0
H1096 H 0.7443 0.56369 0.93354 0.0
H1097 H 0.7365 0.62604 0.0163 0.0
H1098 H 0.79625 0.60676 0.93085 0.0
H1099 H 0.8278 0.58837 0.92012 0.0
H1100 H 0.85177 0.61553 0.05459 0.0
H1101 H 0.82024 0.63387 0.06648 0.0
C1102 C 0.76138 0.71812 0.97545 0.0
C1103 C 0.77206 0.72909 0.01251 0.0
C1104 C 0.76085 0.69724 0.97603 0.0
C1105 C 0.77109 0.68688 0.0134 0.0
C1106 C 0.78222 0.69773 0.04967 0.0
C1107 C 0.78258 0.71866 0.04948 0.0
C1108 C 0.76984 0.66474 0.01481 0.0
C1109 C 0.78741 0.6535 0.01047 0.0
C1110 C 0.75127 0.65472 0.01765 0.0
C1111 C 0.73238 0.66572 0.02643 0.0
C1112 C 0.73095 0.6794 0.06663 0.0
C1113 C 0.71311 0.68962 0.07499 0.0
C1114 C 0.69648 0.6861 0.0438 0.0
C1115 C 0.69765 0.67236 0.00414 0.0
C1116 C 0.71551 0.66222 0.99537 0.0
C1117 C 0.77471 0.56747 0.03652 0.0
C1118 C 0.76313 0.55832 0.99816 0.0
C1119 C 0.77643 0.58833 0.03992 0.0
C1120 C 0.76656 0.60036 0.00514 0.0
C1121 C 0.75489 0.59121 0.96709 0.0
C1122 C 0.7533 0.57038 0.96345 0.0
C1123 C 0.76822 0.6225 0.00844 0.0
C1124 C 0.7507 0.63375 0.01384 0.0
C1125 C 0.78684 0.63251 0.00698 0.0
C1126 C 0.8058 0.62151 0.99984 0.0
C1127 C 0.80818 0.60867 0.95837 0.0
C1128 C 0.82608 0.59829 0.95202 0.0
C1129 C 0.84176 0.60073 0.98673 0.0
C1130 C 0.8396 0.61362 0.02779 0.0
C1131 C 0.82172 0.62402 0.03433 0.0
H1132 H 0.8556 0.59269 0.98175 0.0
H1133 H 0.68265 0.69394 0.05058 0.0
H1134 H 0.78954 0.27193 0.58835 0.0
H1135 H 0.82591 0.26948 0.59 0.0
H1136 H 0.8279 0.29812 0.44866 0.0
H1137 H 0.79144 0.30032 0.44623 0.0
H1138 H 0.85175 0.26635 0.44966 0.0
H1139 H 0.84162 0.32319 0.55666 0.0
H1140 H 0.82697 0.3421 0.62641 0.0
H1141 H 0.85244 0.30066 0.7291 0.0
H1142 H 0.86699 0.28131 0.65988 0.0
H1143 H 0.95782 0.27778 0.46057 0.0
H1144 H 0.922 0.28515 0.4563 0.0
H1145 H 0.91424 0.25624 0.59579 0.0
H1146 H 0.95006 0.24908 0.60051 0.0
H1147 H 0.89362 0.29058 0.59297 0.0
H1148 H 0.90169 0.23266 0.48531 0.0
H1149 H 0.91585 0.21343 0.41541 0.0
H1150 H 0.89404 0.25719 0.31379 0.0
H1151 H 0.87996 0.27683 0.38322 0.0
C1152 C 0.79768 0.27782 0.55768 0.0
C1153 C 0.78752 0.28631 0.51713 0.0
C1154 C 0.81852 0.27648 0.55879 0.0
C1155 C 0.82969 0.28381 0.51969 0.0
C1156 C 0.81961 0.29238 0.47926 0.0
C1157 C 0.79875 0.29366 0.47802 0.0
C1158 C 0.85183 0.28198 0.52042 0.0
C1159 C 0.86094 0.27197 0.48061 0.0
C1160 C 0.86381 0.28897 0.5612 0.0
C1161 C 0.85527 0.30071 0.603 0.0
C1162 C 0.84399 0.31803 0.59408 0.0
C1163 C 0.83571 0.32883 0.63353 0.0
C1164 C 0.83873 0.32256 0.68214 0.0
C1165 C 0.85009 0.3055 0.69142 0.0
C1166 C 0.85838 0.29461 0.65209 0.0
C1167 C 0.94848 0.27303 0.49034 0.0
C1168 C 0.95669 0.26276 0.53083 0.0
C1169 C 0.928 0.2772 0.48779 0.0
C1170 C 0.91537 0.27108 0.5255 0.0
C1171 C 0.92366 0.26112 0.56628 0.0
C1172 C 0.9441 0.25697 0.56885 0.0
C1173 C 0.89349 0.27477 0.52246 0.0
C1174 C 0.88443 0.28513 0.56184 0.0
C1175 C 0.88155 0.26813 0.48127 0.0
C1176 C 0.88997 0.25632 0.43951 0.0
C1177 C 0.90006 0.23827 0.44811 0.0
C1178 C 0.90804 0.22728 0.40857 0.0
C1179 C 0.9059 0.23412 0.36021 0.0
C1180 C 0.89572 0.25193 0.35128 0.0
C1181 C 0.88772 0.26299 0.3907 0.0
H1182 H 0.91209 0.22559 0.32965 0.0
H1183 H 0.8323 0.33094 0.71263 0.0
H1184 H 0.73694 0.22532 0.43908 0.0
H1185 H 0.73528 0.18885 0.43698 0.0
H1186 H 0.71167 0.18976 0.58435 0.0
H1187 H 0.71342 0.22631 0.58704 0.0
H1188 H 0.74112 0.16214 0.57444 0.0
H1189 H 0.6813 0.17958 0.48606 0.0
H1190 H 0.66114 0.19702 0.42292 0.0
H1191 H 0.69389 0.1677 0.30725 0.0
H1192 H 0.71448 0.15031 0.36973 0.0
H1193 H 0.71795 0.05785 0.56514 0.0
H1194 H 0.71499 0.09429 0.57277 0.0
H1195 H 0.73621 0.0999 0.42396 0.0
H1196 H 0.73883 0.06349 0.4159 0.0
H1197 H 0.70552 0.12432 0.4387 0.0
H1198 H 0.76682 0.10891 0.5273 0.0
H1199 H 0.7876 0.09215 0.59045 0.0
H1200 H 0.75211 0.11804 0.70585 0.0
H1201 H 0.73095 0.13475 0.64329 0.0
C1202 C 0.73134 0.21781 0.47107 0.0
C1203 C 0.72534 0.2288 0.51326 0.0
C1204 C 0.73033 0.19693 0.46971 0.0
C1205 C 0.72319 0.18657 0.51035 0.0
C1206 C 0.71722 0.19745 0.55257 0.0
C1207 C 0.71819 0.21835 0.55396 0.0
C1208 C 0.72233 0.16435 0.50893 0.0
C1209 C 0.73305 0.15386 0.54525 0.0
C1210 C 0.71209 0.15355 0.47037 0.0
C1211 C 0.69955 0.16376 0.43262 0.0
C1212 C 0.6843 0.17694 0.44717 0.0
C1213 C 0.67278 0.18681 0.4115 0.0
C1214 C 0.67626 0.1835 0.36111 0.0
C1215 C 0.69122 0.17026 0.3463 0.0
C1216 C 0.70281 0.16038 0.38183 0.0
C1217 C 0.72197 0.06686 0.53407 0.0
C1218 C 0.72873 0.05786 0.48994 0.0
C1219 C 0.72033 0.0877 0.53852 0.0
C1220 C 0.72558 0.09989 0.49912 0.0
C1221 C 0.73206 0.09084 0.45485 0.0
C1222 C 0.73363 0.07005 0.45035 0.0
C1223 C 0.72455 0.12209 0.50385 0.0
C1224 C 0.71346 0.13259 0.46814 0.0
C1225 C 0.73445 0.13291 0.54298 0.0
C1226 C 0.74717 0.1229 0.5806 0.0
C1227 C 0.76335 0.1109 0.56612 0.0
C1228 C 0.77521 0.10143 0.60181 0.0
C1229 C 0.77114 0.10398 0.65212 0.0
C1230 C 0.75522 0.11605 0.66686 0.0
C1231 C 0.7433 0.12553 0.63131 0.0
H1232 H 0.78034 0.09664 0.67969 0.0
H1233 H 0.66734 0.19117 0.33355 0.0
H1234 H 0.2914 0.21877 0.08693 0.0
H1235 H 0.32787 0.2207 0.08945 0.0
H1236 H 0.32677 0.24936 0.94791 0.0
H1237 H 0.29036 0.24717 0.94462 0.0
H1238 H 0.3553 0.22185 0.95071 0.0
H1239 H 0.33495 0.27624 0.05675 0.0
H1240 H 0.31701 0.29223 0.12589 0.0
H1241 H 0.34856 0.25536 0.2295 0.0
H1242 H 0.3665 0.23894 0.16086 0.0
H1243 H 0.45628 0.25593 0.96133 0.0
H1244 H 0.41973 0.2546 0.95697 0.0
H1245 H 0.41927 0.22541 0.0978 0.0
H1246 H 0.4558 0.22701 0.10267 0.0
H1247 H 0.39147 0.25381 0.09441 0.0
H1248 H 0.41154 0.19921 0.98731 0.0
H1249 H 0.42936 0.18344 0.91764 0.0
H1250 H 0.39826 0.22127 0.81539 0.0
H1251 H 0.38044 0.23744 0.88457 0.0
C1252 C 0.29889 0.22549 0.05632 0.0
C1253 C 0.28789 0.23293 0.01571 0.0
C1254 C 0.31977 0.22665 0.0579 0.0
C1255 C 0.33008 0.23543 0.01918 0.0
C1256 C 0.31916 0.24256 0.97826 0.0
C1257 C 0.29831 0.24134 0.97654 0.0
C1258 C 0.35224 0.23719 0.02124 0.0
C1259 C 0.36319 0.22908 0.98184 0.0
C1260 C 0.3626 0.2463 0.06223 0.0
C1261 C 0.35193 0.25623 0.10361 0.0
C1262 C 0.33796 0.27144 0.09424 0.0
C1263 C 0.32781 0.28059 0.13334 0.0
C1264 C 0.33161 0.27478 0.18205 0.0
C1265 C 0.34562 0.25983 0.19175 0.0
C1266 C 0.35579 0.25061 0.15277 0.0
C1267 C 0.44839 0.24922 0.99133 0.0
C1268 C 0.45887 0.24147 0.03231 0.0
C1269 C 0.42749 0.2484 0.98872 0.0
C1270 C 0.41673 0.23968 0.0268 0.0
C1271 C 0.42722 0.23218 0.06796 0.0
C1272 C 0.44808 0.23305 0.07064 0.0
C1273 C 0.39454 0.23839 0.024 0.0
C1274 C 0.38358 0.2466 0.06326 0.0
C1275 C 0.38418 0.22943 0.98282 0.0
C1276 C 0.39481 0.21967 0.94117 0.0
C1277 C 0.40862 0.20426 0.95001 0.0
C1278 C 0.41869 0.19524 0.9106 0.0
C1279 C 0.41498 0.20139 0.86213 0.0
C1280 C 0.40114 0.21654 0.85296 0.0
C1281 C 0.39104 0.22563 0.89224 0.0
H1282 H 0.4228 0.19438 0.83167 0.0
H1283 H 0.32373 0.28188 0.21227 0.0
H1284 H 0.27832 0.79191 0.42099 0.0
H1285 H 0.27913 0.82847 0.42284 0.0
H1286 H 0.27095 0.82897 0.58103 0.0
H1287 H 0.26955 0.79252 0.57925 0.0
H1288 H 0.24749 0.85535 0.54103 0.0
H1289 H 0.31705 0.83893 0.52714 0.0
H1290 H 0.34617 0.82249 0.4897 0.0
H1291 H 0.33486 0.85319 0.35401 0.0
H1292 H 0.30549 0.86963 0.39047 0.0
H1293 H 0.27589 0.95445 0.60539 0.0
H1294 H 0.27566 0.91802 0.59483 0.0
H1295 H 0.27557 0.92382 0.43598 0.0
H1296 H 0.27577 0.96038 0.44634 0.0
H1297 H 0.30247 0.89469 0.47066 0.0
H1298 H 0.23344 0.91211 0.48769 0.0
H1299 H 0.20468 0.92847 0.52702 0.0
H1300 H 0.21578 0.89564 0.65961 0.0
H1301 H 0.2448 0.87928 0.62131 0.0
C1302 C 0.27676 0.7998 0.45621 0.0
C1303 C 0.27381 0.78927 0.49997 0.0
C1304 C 0.27732 0.82073 0.45725 0.0
C1305 C 0.27529 0.83153 0.50217 0.0
C1306 C 0.27249 0.82101 0.54588 0.0
C1307 C 0.27173 0.80014 0.54481 0.0
C1308 C 0.27558 0.85379 0.50377 0.0
C1309 C 0.25966 0.8639 0.52615 0.0
C1310 C 0.29117 0.86505 0.48318 0.0
C1311 C 0.30895 0.85535 0.46137 0.0
C1312 C 0.32069 0.84207 0.48921 0.0
C1313 C 0.33726 0.83276 0.46817 0.0
C1314 C 0.34233 0.83674 0.41944 0.0
C1315 C 0.33089 0.8501 0.39172 0.0
C1316 C 0.3143 0.85943 0.41257 0.0
C1317 C 0.27583 0.94795 0.56821 0.0
C1318 C 0.27573 0.96024 0.52676 0.0
C1319 C 0.27566 0.92715 0.56222 0.0
C1320 C 0.27542 0.91821 0.51461 0.0
C1321 C 0.27573 0.93043 0.47303 0.0
C1322 C 0.27576 0.9513 0.47902 0.0
C1323 C 0.27456 0.8961 0.50862 0.0
C1324 C 0.29031 0.88606 0.48534 0.0
C1325 C 0.2589 0.88486 0.5287 0.0
C1326 C 0.2414 0.89461 0.55176 0.0
C1327 C 0.22985 0.9085 0.52537 0.0
C1328 C 0.21348 0.91775 0.54745 0.0
C1329 C 0.20843 0.91313 0.59582 0.0
C1330 C 0.21972 0.89922 0.62216 0.0
C1331 C 0.23611 0.88994 0.60027 0.0
H1332 H 0.19575 0.92031 0.61285 0.0
H1333 H 0.35515 0.82952 0.40319 0.0
H1334 H 0.70806 0.76656 0.06052 0.0
H1335 H 0.67156 0.76608 0.05548 0.0
H1336 H 0.6725 0.80773 0.93606 0.0
H1337 H 0.70911 0.80817 0.9405 0.0
H1338 H 0.64473 0.8178 0.00794 0.0
H1339 H 0.66302 0.76153 0.90885 0.0
H1340 H 0.6799 0.72995 0.88707 0.0
H1341 H 0.64942 0.70035 0.00285 0.0
H1342 H 0.63275 0.73192 0.02632 0.0
H1343 H 0.54337 0.80474 0.92568 0.0
H1344 H 0.57996 0.8058 0.92983 0.0
H1345 H 0.58006 0.76446 0.05003 0.0
H1346 H 0.54343 0.76344 0.04622 0.0
H1347 H 0.60734 0.75446 0.97653 0.0
H1348 H 0.5893 0.81215 0.07518 0.0
H1349 H 0.5721 0.844 0.09273 0.0
H1350 H 0.60178 0.87105 0.97185 0.0
H1351 H 0.61895 0.83925 0.95309 0.0
C1352 C 0.70053 0.77564 0.03317 0.0
C1353 C 0.71151 0.78735 0.00077 0.0
C1354 C 0.67966 0.77529 0.03025 0.0
C1355 C 0.66932 0.78677 0.99519 0.0
C1356 C 0.6802 0.79874 0.96332 0.0
C1357 C 0.70111 0.7989 0.96577 0.0
C1358 C 0.64715 0.78622 0.99198 0.0
C1359 C 0.63654 0.804 1.00043 0.0
C1360 C 0.6365 0.76815 0.98298 0.0
C1361 C 0.64682 0.74919 0.96977 0.0
C1362 C 0.66013 0.74838 0.9302 0.0
C1363 C 0.66965 0.73046 0.91749 0.0
C1364 C 0.6658 0.71318 0.94368 0.0
C1365 C 0.65245 0.71378 0.98273 0.0
C1366 C 0.64298 0.73169 0.99581 0.0
C1367 C 0.55122 0.79594 0.95309 0.0
C1368 C 0.54058 0.78411 0.98577 0.0
C1369 C 0.57209 0.79659 0.95551 0.0
C1370 C 0.58273 0.78534 0.99051 0.0
C1371 C 0.57213 0.7733 0.02283 0.0
C1372 C 0.55121 0.77278 0.02073 0.0
C1373 C 0.60491 0.78599 0.99291 0.0
C1374 C 0.61553 0.76824 0.9842 0.0
C1375 C 0.61557 0.80411 0.00123 0.0
C1376 C 0.60524 0.82324 0.0124 0.0
C1377 C 0.59202 0.82483 0.05204 0.0
C1378 C 0.58231 0.84289 0.06227 0.0
C1379 C 0.5858 0.85952 0.03334 0.0
C1380 C 0.59906 0.85814 0.99418 0.0
C1381 C 0.6088 0.84011 0.98375 0.0
H1382 H 0.57828 0.87349 0.04133 0.0
H1383 H 0.67309 0.69931 0.9335 0.0
loop_
_geom_bond_atom_site_label_1
_geom_bond_atom_site_label_2
_geom_bond_distance
_geom_bond_site_symmetry_2
_ccdc_geom_bond_type
Fe0 O2 1.918 . S
Fe0 O5 1.997 . S
Fe0 O6 2.002 . S
Fe0 O11 1.976 . S
Fe0 O14 1.996 . S
Fe1 O2 1.918 1_556 S
Fe1 O9 1.997 . S
Fe1 O12 1.996 . S
Fe1 O16 1.976 . S
Fe1 O19 2.002 . S
O2 Fe0 1.918 . S
O2 Fe1 1.918 1_554 S
O2 Fe3 1.918 . S
Fe3 O2 1.918 . S
Fe3 O4 2.002 . S
Fe3 O13 1.976 . S
Fe3 O17 1.996 1_554 S
Fe3 O20 1.997 1_554 S
O4 Fe3 2.002 . S
O4 C21 1.295 . S
O5 Fe0 1.997 . S
O5 C21 1.235 . S
O6 Fe0 2.002 . S
O6 C7 1.295 . S
C7 O6 1.295 . S
C7 O9 1.235 1_554 S
C8 O13 1.287 . S
C8 O14 1.255 . S
O9 Fe1 1.997 . S
O9 C7 1.235 1_556 S
C10 O16 1.287 . S
C10 O17 1.255 . S
O11 Fe0 1.976 . S
O11 C18 1.287 . S
O12 Fe1 1.996 . S
O12 C18 1.255 1_556 S
O13 Fe3 1.976 . S
O13 C8 1.287 . S
O14 Fe0 1.996 . S
O14 C8 1.255 . S
C15 O19 1.295 . S
C15 O20 1.235 . S
O16 Fe1 1.976 . S
O16 C10 1.287 . S
O17 Fe3 1.996 1_556 S
O17 C10 1.255 . S
C18 O11 1.287 . S
C18 O12 1.255 1_554 S
O19 Fe1 2.002 . S
O19 C15 1.295 . S
O20 Fe3 1.997 1_556 S
O20 C15 1.235 . S
C21 O4 1.295 . S
C21 O5 1.235 . S
Fe22 O24 1.918 . S
Fe22 O27 1.997 . S
Fe22 O28 2.002 . S
Fe22 O33 1.976 . S
Fe22 O36 1.996 . S
Fe23 O24 1.918 . S
Fe23 O31 1.997 . S
Fe23 O34 1.996 . S
Fe23 O38 1.976 . S
Fe23 O41 2.002 . S
O24 Fe22 1.918 . S
O24 Fe23 1.918 . S
O24 Fe25 1.918 . S
Fe25 O24 1.918 . S
Fe25 O26 2.002 . S
Fe25 O35 1.976 . S
Fe25 O39 1.996 . S
Fe25 O42 1.997 . S
O26 Fe25 2.002 . S
O26 C43 1.295 . S
O27 Fe22 1.997 . S
O27 C43 1.235 . S
O28 Fe22 2.002 . S
O28 C29 1.295 . S
C29 O28 1.295 . S
C29 O31 1.235 . S
C30 O35 1.287 . S
C30 O36 1.255 . S
O31 Fe23 1.997 . S
O31 C29 1.235 . S
C32 O38 1.287 . S
C32 O39 1.255 . S
O33 Fe22 1.976 . S
O33 C40 1.287 . S
O34 Fe23 1.996 . S
O34 C40 1.255 . S
O35 Fe25 1.976 . S
O35 C30 1.287 . S
O36 Fe22 1.996 . S
O36 C30 1.255 . S
C37 O41 1.295 . S
C37 O42 1.235 . S
O38 Fe23 1.976 . S
O38 C32 1.287 . S
O39 Fe25 1.996 . S
O39 C32 1.255 . S
C40 O33 1.287 . S
C40 O34 1.255 . S
O41 Fe23 2.002 . S
O41 C37 1.295 . S
O42 Fe25 1.997 . S
O42 C37 1.235 . S
C43 O26 1.295 . S
C43 O27 1.235 . S
Fe44 O46 1.918 1_556 S
Fe44 O49 1.997 . S
Fe44 O50 2.002 . S
Fe44 O55 1.976 . S
Fe44 O58 1.996 . S
Fe45 O46 1.918 . S
Fe45 O53 1.997 . S
Fe45 O56 1.996 . S
Fe45 O60 1.976 . S
Fe45 O63 2.002 . S
O46 Fe44 1.918 1_554 S
O46 Fe45 1.918 . S
O46 Fe47 1.918 . S
Fe47 O46 1.918 . S
Fe47 O48 2.002 1_554 S
Fe47 O57 1.976 1_554 S
Fe47 O61 1.996 . S
Fe47 O64 1.997 . S
O48 Fe47 2.002 1_556 S
O48 C65 1.295 . S
O49 Fe44 1.997 . S
O49 C65 1.235 . S
O50 Fe44 2.002 . S
O50 C51 1.295 1_556 S
C51 O50 1.295 1_554 S
C51 O53 1.235 . S
C52 O57 1.287 . S
C52 O58 1.255 . S
O53 Fe45 1.997 . S
O53 C51 1.235 . S
C54 O60 1.287 . S
C54 O61 1.255 . S
O55 Fe44 1.976 . S
O55 C62 1.287 1_556 S
O56 Fe45 1.996 . S
O56 C62 1.255 . S
O57 Fe47 1.976 1_556 S
O57 C52 1.287 . S
O58 Fe44 1.996 . S
O58 C52 1.255 . S
C59 O63 1.295 . S
C59 O64 1.235 . S
O60 Fe45 1.976 . S
O60 C54 1.287 . S
O61 Fe47 1.996 . S
O61 C54 1.255 . S
C62 O55 1.287 1_554 S
C62 O56 1.255 . S
O63 Fe45 2.002 . S
O63 C59 1.295 . S
O64 Fe47 1.997 . S
O64 C59 1.235 . S
C65 O48 1.295 . S
C65 O49 1.235 . S
Fe66 O68 1.918 . S
Fe66 O71 1.997 . S
Fe66 O72 2.002 . S
Fe66 O77 1.976 . S
Fe66 O80 1.996 . S
Fe67 O68 1.918 . S
Fe67 O75 1.997 . S
Fe67 O78 1.996 . S
Fe67 O82 1.976 . S
Fe67 O85 2.002 . S
O68 Fe66 1.918 . S
O68 Fe67 1.918 . S
O68 Fe69 1.918 . S
Fe69 O68 1.918 . S
Fe69 O70 2.002 . S
Fe69 O79 1.976 . S
Fe69 O83 1.996 . S
Fe69 O86 1.997 . S
O70 Fe69 2.002 . S
O70 C87 1.295 . S
O71 Fe66 1.997 . S
O71 C87 1.235 . S
O72 Fe66 2.002 . S
O72 C73 1.295 . S
C73 O72 1.295 . S
C73 O75 1.235 . S
C74 O79 1.287 . S
C74 O80 1.255 . S
O75 Fe67 1.997 . S
O75 C73 1.235 . S
C76 O82 1.287 . S
C76 O83 1.255 . S
O77 Fe66 1.976 . S
O77 C84 1.287 . S
O78 Fe67 1.996 . S
O78 C84 1.255 . S
O79 Fe69 1.976 . S
O79 C74 1.287 . S
O80 Fe66 1.996 . S
O80 C74 1.255 . S
C81 O85 1.295 . S
C81 O86 1.235 . S
O82 Fe67 1.976 . S
O82 C76 1.287 . S
O83 Fe69 1.996 . S
O83 C76 1.255 . S
C84 O77 1.287 . S
C84 O78 1.255 . S
O85 Fe67 2.002 . S
O85 C81 1.295 . S
O86 Fe69 1.997 . S
O86 C81 1.235 . S
C87 O70 1.295 . S
C87 O71 1.235 . S
H88 C93 0.930 . S
H89 C96 0.930 . S
H90 C98 0.929 1_554 S
H91 C92 1.016 . S
C92 H91 1.016 . S
C92 N99 1.286 1_554 S
C93 H88 0.930 . S
C93 C94 1.397 . S
C93 C95 1.361 . S
C94 C93 1.397 . S
C94 C98 1.408 . S
C95 C93 1.361 . S
C95 C96 1.393 1_556 S
C95 N99 1.413 . S
C96 H89 0.930 . S
C96 C95 1.393 1_554 S
C96 C97 1.399 . S
C97 C96 1.399 . S
C97 C98 1.364 1_554 S
C98 H90 0.929 1_556 S
C98 C94 1.408 . S
C98 C97 1.364 1_556 S
N99 C92 1.286 1_556 S
N99 C95 1.413 . S
H100 C105 0.930 . S
H101 C108 0.930 . S
H102 C110 0.930 . S
H103 C104 1.016 . S
C104 H103 1.016 . S
C104 N111 1.286 . S
C105 H100 0.930 . S
C105 C106 1.397 . S
C105 C107 1.361 . S
C106 C105 1.397 . S
C106 C110 1.390 . S
C107 C105 1.361 . S
C107 C108 1.393 . S
C107 N111 1.413 1_655 S
C108 H101 0.930 . S
C108 C107 1.393 . S
C108 C109 1.399 . S
C109 C108 1.399 . S
C109 C110 1.381 . S
C110 H102 0.930 . S
C110 C106 1.390 . S
C110 C109 1.381 . S
N111 C104 1.286 . S
N111 C107 1.413 1_455 S
H112 C117 0.930 . S
H113 C120 0.930 . S
H114 C122 0.930 . S
H115 C116 1.016 1_556 S
C116 H115 1.016 1_554 S
C116 N123 1.286 . S
C117 H112 0.930 . S
C117 C118 1.397 . S
C117 C119 1.361 . S
C118 C117 1.397 . S
C118 C122 1.390 . S
C119 C117 1.361 . S
C119 C120 1.393 1_554 S
C119 N123 1.413 . S
C120 H113 0.930 . S
C120 C119 1.393 1_556 S
C120 C121 1.399 . S
C121 C120 1.399 . S
C121 C122 1.381 1_556 S
C122 H114 0.930 . S
C122 C118 1.390 . S
C122 C121 1.381 1_554 S
N123 C116 1.286 . S
N123 C119 1.413 . S
H124 C129 0.930 . S
H125 C132 0.916 1_655 S
H126 C134 0.930 . S
H127 C128 1.016 . S
C128 H127 1.016 . S
C128 N135 1.286 . S
C129 H124 0.930 . S
C129 C130 1.397 . S
C129 C131 1.361 1_455 S
C130 C129 1.397 . S
C130 C134 1.390 . S
C131 C129 1.361 1_655 S
C131 C132 1.393 1_655 S
C131 N135 1.413 . S
C132 H125 0.916 1_455 S
C132 C131 1.393 1_455 S
C132 C133 1.399 . S
C133 C132 1.399 . S
C133 C134 1.381 . S
C134 H126 0.930 . S
C134 C130 1.390 . S
C134 C133 1.381 . S
N135 C128 1.286 . S
N135 C131 1.413 . S
H136 C141 0.936 . S
H137 C144 0.930 1_545 S
H138 C146 0.930 . S
H139 C140 1.016 . S
C140 H139 1.016 . S
C140 N147 1.286 . S
C141 H136 0.936 . S
C141 C142 1.397 . S
C141 C143 1.361 1_565 S
C142 C141 1.397 . S
C142 C146 1.390 . S
C143 C141 1.361 1_545 S
C143 C144 1.393 1_545 S
C143 N147 1.413 . S
C144 H137 0.930 1_565 S
C144 C143 1.393 1_565 S
C144 C145 1.399 . S
C145 C144 1.399 . S
C145 C146 1.381 . S
C146 H138 0.930 . S
C146 C142 1.390 . S
C146 C145 1.381 . S
N147 C140 1.286 . S
N147 C143 1.413 . S
H148 C153 0.930 . S
H149 C156 0.930 . S
H150 C158 0.930 . S
H151 C152 1.016 . S
C152 H151 1.016 . S
C152 N159 1.286 1_554 S
C153 H148 0.930 . S
C153 C154 1.397 . S
C153 C155 1.361 . S
C154 C153 1.397 . S
C154 C158 1.390 1_556 S
C155 C153 1.361 . S
C155 C156 1.393 1_556 S
C155 N159 1.413 . S
C156 H149 0.930 . S
C156 C155 1.393 1_554 S
C156 C157 1.399 . S
C157 C156 1.399 . S
C157 C158 1.381 . S
C158 H150 0.930 . S
C158 C154 1.390 1_554 S
C158 C157 1.381 . S
N159 C152 1.286 1_556 S
N159 C155 1.413 . S
H160 C165 0.930 . S
H161 C168 0.930 . S
H162 C170 0.930 . S
H163 C164 1.016 . S
C164 H163 1.016 . S
C164 N171 1.286 . S
C165 H160 0.930 . S
C165 C166 1.397 . S
C165 C167 1.361 . S
C166 C165 1.397 . S
C166 C170 1.390 . S
C167 C165 1.361 . S
C167 C168 1.393 . S
C167 N171 1.413 1_545 S
C168 H161 0.930 . S
C168 C167 1.393 . S
C168 C169 1.399 . S
C169 C168 1.399 . S
C169 C170 1.381 . S
C170 H162 0.930 . S
C170 C166 1.390 . S
C170 C169 1.381 . S
N171 C164 1.286 . S
N171 C167 1.413 1_565 S
H172 C177 0.930 . S
H173 C180 0.930 . S
H174 C182 0.930 . S
H175 C176 1.016 1_556 S
C176 H175 1.016 1_554 S
C176 N183 1.286 . S
C177 H172 0.930 . S
C177 C178 1.397 . S
C177 C179 1.361 . S
C178 C177 1.397 . S
C178 C182 1.390 . S
C179 C177 1.361 . S
C179 C180 1.393 1_554 S
C179 N183 1.413 . S
C180 H173 0.930 . S
C180 C179 1.393 1_556 S
C180 C181 1.399 . S
C181 C180 1.399 . S
C181 C182 1.381 1_556 S
C182 H174 0.930 . S
C182 C178 1.390 . S
C182 C181 1.381 1_554 S
N183 C176 1.286 . S
N183 C179 1.413 . S
H184 C202 0.951 . S
H185 C204 0.951 . S
H186 C206 0.950 . S
H187 C207 0.950 . S
H188 C209 0.950 . S
H189 C212 0.950 . S
H190 C213 0.950 . S
H191 C215 0.950 . S
H192 C216 0.950 . S
H193 C217 0.951 . S
H194 C219 0.951 . S
H195 C221 0.950 . S
H196 C222 0.950 . S
H197 C224 0.950 . S
H198 C227 0.950 . S
H199 C228 0.950 . S
H200 C230 0.950 . S
H201 C231 0.950 . S
C202 H184 0.951 . S
C202 C203 1.366 . S
C202 C204 1.388 . S
C203 C202 1.366 . S
C203 C207 1.385 . S
C204 H185 0.951 . S
C204 C202 1.388 . S
C204 C205 1.366 . S
C205 C204 1.366 . S
C205 C206 1.414 . S
C205 C208 1.499 . S
C206 H186 0.950 . S
C206 C205 1.414 . S
C206 C207 1.374 . S
C207 H187 0.950 . S
C207 C203 1.385 . S
C207 C206 1.374 . S
C208 C205 1.499 . S
C208 C209 1.373 . S
C208 C210 1.389 . S
C209 H188 0.950 . S
C209 C208 1.373 . S
C209 C225 1.377 . S
C210 C208 1.389 . S
C210 C211 1.524 . S
C210 C224 1.377 . S
C211 C210 1.524 . S
C211 C212 1.397 . S
C211 C216 1.363 . S
C212 H189 0.950 . S
C212 C211 1.397 . S
C212 C213 1.334 . S
C213 H190 0.950 . S
C213 C212 1.334 . S
C213 C214 1.287 . S
C214 C213 1.287 . S
C214 C215 1.524 . S
C214 H233 0.913 . S
C215 H191 0.950 . S
C215 C214 1.524 . S
C215 C216 1.415 . S
C216 H192 0.950 . S
C216 C211 1.363 . S
C216 C215 1.415 . S
C217 H193 0.951 . S
C217 C218 1.366 . S
C217 C219 1.388 . S
C218 C217 1.366 . S
C218 C222 1.385 . S
C219 H194 0.951 . S
C219 C217 1.388 . S
C219 C220 1.366 . S
C220 C219 1.366 . S
C220 C221 1.414 . S
C220 C223 1.499 . S
C221 H195 0.950 . S
C221 C220 1.414 . S
C221 C222 1.374 . S
C222 H196 0.950 . S
C222 C218 1.385 . S
C222 C221 1.374 . S
C223 C220 1.499 . S
C223 C224 1.373 . S
C223 C225 1.389 . S
C224 H197 0.950 . S
C224 C210 1.377 . S
C224 C223 1.373 . S
C225 C209 1.377 . S
C225 C223 1.389 . S
C225 C226 1.524 . S
C226 C225 1.524 . S
C226 C227 1.397 . S
C226 C231 1.363 . S
C227 H198 0.950 . S
C227 C226 1.397 . S
C227 C228 1.334 . S
C228 H199 0.950 . S
C228 C227 1.334 . S
C228 C229 1.287 . S
C229 C228 1.287 . S
C229 C230 1.524 . S
C229 H232 0.999 . S
C230 H200 0.950 . S
C230 C229 1.524 . S
C230 C231 1.415 . S
C231 H201 0.950 . S
C231 C226 1.363 . S
C231 C230 1.415 . S
H232 C229 0.999 . S
H233 C214 0.913 . S
H234 C252 0.951 . S
H235 C254 0.951 . S
H236 C256 0.950 . S
H237 C257 0.950 . S
H238 C259 0.950 . S
H239 C262 0.950 . S
H240 C263 0.950 . S
H241 C265 0.950 . S
H242 C266 0.950 . S
H243 C267 0.951 . S
H244 C269 0.951 . S
H245 C271 0.950 . S
H246 C272 0.950 . S
H247 C274 0.950 . S
H248 C277 0.950 . S
H249 C278 0.950 . S
H250 C280 0.950 . S
H251 C281 0.950 . S
C252 H234 0.951 . S
C252 C253 1.366 . S
C252 C254 1.388 . S
C253 C252 1.366 . S
C253 C257 1.385 . S
C254 H235 0.951 . S
C254 C252 1.388 . S
C254 C255 1.366 . S
C255 C254 1.366 . S
C255 C256 1.414 . S
C255 C258 1.499 . S
C256 H236 0.950 . S
C256 C255 1.414 . S
C256 C257 1.374 . S
C257 H237 0.950 . S
C257 C253 1.385 . S
C257 C256 1.374 . S
C258 C255 1.499 . S
C258 C259 1.373 . S
C258 C260 1.389 . S
C259 H238 0.950 . S
C259 C258 1.373 . S
C259 C275 1.377 . S
C260 C258 1.389 . S
C260 C261 1.524 . S
C260 C274 1.377 . S
C261 C260 1.524 . S
C261 C262 1.397 . S
C261 C266 1.363 . S
C262 H239 0.950 . S
C262 C261 1.397 . S
C262 C263 1.334 . S
C263 H240 0.950 . S
C263 C262 1.334 . S
C263 C264 1.287 . S
C264 C263 1.287 . S
C264 C265 1.524 . S
C264 H283 0.913 . S
C265 H241 0.950 . S
C265 C264 1.524 . S
C265 C266 1.415 . S
C266 H242 0.950 . S
C266 C261 1.363 . S
C266 C265 1.415 . S
C267 H243 0.951 . S
C267 C268 1.366 . S
C267 C269 1.388 . S
C268 C267 1.366 . S
C268 C272 1.385 . S
C269 H244 0.951 . S
C269 C267 1.388 . S
C269 C270 1.366 . S
C270 C269 1.366 . S
C270 C271 1.414 . S
C270 C273 1.499 . S
C271 H245 0.950 . S
C271 C270 1.414 . S
C271 C272 1.374 . S
C272 H246 0.950 . S
C272 C268 1.385 . S
C272 C271 1.374 . S
C273 C270 1.499 . S
C273 C274 1.373 . S
C273 C275 1.389 . S
C274 H247 0.950 . S
C274 C260 1.377 . S
C274 C273 1.373 . S
C275 C259 1.377 . S
C275 C273 1.389 . S
C275 C276 1.524 . S
C276 C275 1.524 . S
C276 C277 1.397 . S
C276 C281 1.363 . S
C277 H248 0.950 . S
C277 C276 1.397 . S
C277 C278 1.334 . S
C278 H249 0.950 . S
C278 C277 1.334 . S
C278 C279 1.287 . S
C279 C278 1.287 . S
C279 C280 1.524 . S
C279 H282 0.999 . S
C280 H250 0.950 . S
C280 C279 1.524 . S
C280 C281 1.415 . S
C281 H251 0.950 . S
C281 C276 1.363 . S
C281 C280 1.415 . S
H282 C279 0.999 . S
H283 C264 0.913 . S
H284 C302 0.951 . S
H285 C304 0.951 . S
H286 C306 0.950 . S
H287 C307 0.950 . S
H288 C309 0.950 . S
H289 C312 0.950 . S
H290 C313 0.950 . S
H291 C315 0.950 . S
H292 C316 0.950 . S
H293 C317 0.951 . S
H294 C319 0.951 . S
H295 C321 0.950 . S
H296 C322 0.950 . S
H297 C324 0.950 . S
H298 C327 0.950 . S
H299 C328 0.950 . S
H300 C330 0.950 . S
H301 C331 0.950 . S
C302 H284 0.951 . S
C302 C303 1.366 . S
C302 C304 1.388 . S
C303 C302 1.366 . S
C303 C307 1.385 . S
C304 H285 0.951 . S
C304 C302 1.388 . S
C304 C305 1.366 . S
C305 C304 1.366 . S
C305 C306 1.414 . S
C305 C308 1.499 . S
C306 H286 0.950 . S
C306 C305 1.414 . S
C306 C307 1.374 . S
C307 H287 0.950 . S
C307 C303 1.385 . S
C307 C306 1.374 . S
C308 C305 1.499 . S
C308 C309 1.373 . S
C308 C310 1.389 . S
C309 H288 0.950 . S
C309 C308 1.373 . S
C309 C325 1.377 . S
C310 C308 1.389 . S
C310 C311 1.524 . S
C310 C324 1.377 . S
C311 C310 1.524 . S
C311 C312 1.397 . S
C311 C316 1.363 . S
C312 H289 0.950 . S
C312 C311 1.397 . S
C312 C313 1.334 . S
C313 H290 0.950 . S
C313 C312 1.334 . S
C313 C314 1.287 . S
C314 C313 1.287 . S
C314 C315 1.524 . S
C314 H333 0.913 . S
C315 H291 0.950 . S
C315 C314 1.524 . S
C315 C316 1.415 . S
C316 H292 0.950 . S
C316 C311 1.363 . S
C316 C315 1.415 . S
C317 H293 0.951 . S
C317 C318 1.366 . S
C317 C319 1.388 . S
C318 C317 1.366 . S
C318 C322 1.385 . S
C319 H294 0.951 . S
C319 C317 1.388 . S
C319 C320 1.366 . S
C320 C319 1.366 . S
C320 C321 1.414 . S
C320 C323 1.499 . S
C321 H295 0.950 . S
C321 C320 1.414 . S
C321 C322 1.374 . S
C322 H296 0.950 . S
C322 C318 1.385 . S
C322 C321 1.374 . S
C323 C320 1.499 . S
C323 C324 1.373 . S
C323 C325 1.389 . S
C324 H297 0.950 . S
C324 C310 1.377 . S
C324 C323 1.373 . S
C325 C309 1.377 . S
C325 C323 1.389 . S
C325 C326 1.524 . S
C326 C325 1.524 . S
C326 C327 1.397 . S
C326 C331 1.363 . S
C327 H298 0.950 . S
C327 C326 1.397 . S
C327 C328 1.334 . S
C328 H299 0.950 . S
C328 C327 1.334 . S
C328 C329 1.287 . S
C329 C328 1.287 . S
C329 C330 1.524 . S
C329 H332 0.999 . S
C330 H300 0.950 . S
C330 C329 1.524 . S
C330 C331 1.415 . S
C331 H301 0.950 . S
C331 C326 1.363 . S
C331 C330 1.415 . S
H332 C329 0.999 . S
H333 C314 0.913 . S
H334 C352 0.951 . S
H335 C354 0.951 . S
H336 C356 0.950 . S
H337 C357 0.950 . S
H338 C359 0.950 . S
H339 C362 0.950 . S
H340 C363 0.950 . S
H341 C365 0.950 . S
H342 C366 0.950 . S
H343 C367 0.951 . S
H344 C369 0.951 . S
H345 C371 0.950 . S
H346 C372 0.950 . S
H347 C374 0.950 . S
H348 C377 0.950 . S
H349 C378 0.950 . S
H350 C380 0.950 . S
H351 C381 0.950 . S
C352 H334 0.951 . S
C352 C353 1.366 . S
C352 C354 1.388 . S
C353 C352 1.366 . S
C353 C357 1.385 . S
C354 H335 0.951 . S
C354 C352 1.388 . S
C354 C355 1.366 . S
C355 C354 1.366 . S
C355 C356 1.414 . S
C355 C358 1.499 . S
C356 H336 0.950 . S
C356 C355 1.414 . S
C356 C357 1.374 . S
C357 H337 0.950 . S
C357 C353 1.385 . S
C357 C356 1.374 . S
C358 C355 1.499 . S
C358 C359 1.373 . S
C358 C360 1.389 . S
C359 H338 0.950 . S
C359 C358 1.373 . S
C359 C375 1.377 . S
C360 C358 1.389 . S
C360 C361 1.524 . S
C360 C374 1.377 . S
C361 C360 1.524 . S
C361 C362 1.397 . S
C361 C366 1.363 . S
C362 H339 0.950 . S
C362 C361 1.397 . S
C362 C363 1.334 . S
C363 H340 0.950 . S
C363 C362 1.334 . S
C363 C364 1.287 . S
C364 C363 1.287 . S
C364 C365 1.524 . S
C364 H383 0.913 . S
C365 H341 0.950 . S
C365 C364 1.524 . S
C365 C366 1.415 . S
C366 H342 0.950 . S
C366 C361 1.363 . S
C366 C365 1.415 . S
C367 H343 0.951 . S
C367 C368 1.366 . S
C367 C369 1.388 . S
C368 C367 1.366 . S
C368 C372 1.385 . S
C369 H344 0.951 . S
C369 C367 1.388 . S
C369 C370 1.366 . S
C370 C369 1.366 . S
C370 C371 1.414 . S
C370 C373 1.499 . S
C371 H345 0.950 . S
C371 C370 1.414 . S
C371 C372 1.374 . S
C372 H346 0.950 . S
C372 C368 1.385 . S
C372 C371 1.374 . S
C373 C370 1.499 . S
C373 C374 1.373 . S
C373 C375 1.389 . S
C374 H347 0.950 . S
C374 C360 1.377 . S
C374 C373 1.373 . S
C375 C359 1.377 . S
C375 C373 1.389 . S
C375 C376 1.524 . S
C376 C375 1.524 . S
C376 C377 1.397 . S
C376 C381 1.363 . S
C377 H348 0.950 . S
C377 C376 1.397 . S
C377 C378 1.334 . S
C378 H349 0.950 . S
C378 C377 1.334 . S
C378 C379 1.287 . S
C379 C378 1.287 . S
C379 C380 1.524 . S
C379 H382 0.999 . S
C380 H350 0.950 . S
C380 C379 1.524 . S
C380 C381 1.415 . S
C381 H351 0.950 . S
C381 C376 1.363 . S
C381 C380 1.415 . S
H382 C379 0.999 . S
H383 C364 0.913 . S
H384 C402 0.951 . S
H385 C404 0.951 . S
H386 C406 0.950 . S
H387 C407 0.950 . S
H388 C409 0.950 . S
H389 C412 0.950 . S
H390 C413 0.950 . S
H391 C415 0.950 . S
H392 C416 0.950 . S
H393 C417 0.951 . S
H394 C419 0.951 . S
H395 C421 0.950 . S
H396 C422 0.950 . S
H397 C424 0.950 . S
H398 C427 0.950 . S
H399 C428 0.950 . S
H400 C430 0.950 . S
H401 C431 0.950 . S
C402 H384 0.951 . S
C402 C403 1.366 . S
C402 C404 1.388 . S
C403 C402 1.366 . S
C403 C407 1.385 . S
C404 H385 0.951 . S
C404 C402 1.388 . S
C404 C405 1.366 . S
C405 C404 1.366 . S
C405 C406 1.414 . S
C405 C408 1.499 . S
C406 H386 0.950 . S
C406 C405 1.414 . S
C406 C407 1.374 . S
C407 H387 0.950 . S
C407 C403 1.385 . S
C407 C406 1.374 . S
C408 C405 1.499 . S
C408 C409 1.373 . S
C408 C410 1.389 . S
C409 H388 0.950 . S
C409 C408 1.373 . S
C409 C425 1.377 . S
C410 C408 1.389 . S
C410 C411 1.524 . S
C410 C424 1.377 . S
C411 C410 1.524 . S
C411 C412 1.397 . S
C411 C416 1.363 . S
C412 H389 0.950 . S
C412 C411 1.397 . S
C412 C413 1.334 . S
C413 H390 0.950 . S
C413 C412 1.334 . S
C413 C414 1.287 . S
C414 C413 1.287 . S
C414 C415 1.524 . S
C414 H433 0.913 . S
C415 H391 0.950 . S
C415 C414 1.524 . S
C415 C416 1.415 . S
C416 H392 0.950 . S
C416 C411 1.363 . S
C416 C415 1.415 . S
C417 H393 0.951 . S
C417 C418 1.366 . S
C417 C419 1.388 . S
C418 C417 1.366 . S
C418 C422 1.385 . S
C419 H394 0.951 . S
C419 C417 1.388 . S
C419 C420 1.366 . S
C420 C419 1.366 . S
C420 C421 1.414 . S
C420 C423 1.499 . S
C421 H395 0.950 . S
C421 C420 1.414 . S
C421 C422 1.374 . S
C422 H396 0.950 . S
C422 C418 1.385 . S
C422 C421 1.374 . S
C423 C420 1.499 . S
C423 C424 1.373 . S
C423 C425 1.389 . S
C424 H397 0.950 . S
C424 C410 1.377 . S
C424 C423 1.373 . S
C425 C409 1.377 . S
C425 C423 1.389 . S
C425 C426 1.524 . S
C426 C425 1.524 . S
C426 C427 1.397 . S
C426 C431 1.363 . S
C427 H398 0.950 . S
C427 C426 1.397 . S
C427 C428 1.334 . S
C428 H399 0.950 . S
C428 C427 1.334 . S
C428 C429 1.287 . S
C429 C428 1.287 . S
C429 C430 1.524 . S
C429 H432 0.999 . S
C430 H400 0.950 . S
C430 C429 1.524 . S
C430 C431 1.415 . S
C431 H401 0.950 . S
C431 C426 1.363 . S
C431 C430 1.415 . S
H432 C429 0.999 . S
H433 C414 0.913 . S
H434 C452 0.951 . S
H435 C454 0.951 . S
H436 C456 0.950 . S
H437 C457 0.950 . S
H438 C459 0.950 . S
H439 C462 0.950 . S
H440 C463 0.950 . S
H441 C465 0.950 . S
H442 C466 0.950 . S
H443 C467 0.951 . S
H444 C469 0.951 . S
H445 C471 0.950 . S
H446 C472 0.950 . S
H447 C474 0.950 . S
H448 C477 0.950 . S
H449 C478 0.950 . S
H450 C480 0.950 . S
H451 C481 0.950 . S
C452 H434 0.951 . S
C452 C453 1.366 . S
C452 C454 1.388 . S
C453 C452 1.366 . S
C453 C457 1.385 . S
C454 H435 0.951 . S
C454 C452 1.388 . S
C454 C455 1.366 . S
C455 C454 1.366 . S
C455 C456 1.414 . S
C455 C458 1.499 . S
C456 H436 0.950 . S
C456 C455 1.414 . S
C456 C457 1.374 . S
C457 H437 0.950 . S
C457 C453 1.385 . S
C457 C456 1.374 . S
C458 C455 1.499 . S
C458 C459 1.373 . S
C458 C460 1.389 . S
C459 H438 0.950 . S
C459 C458 1.373 . S
C459 C475 1.377 . S
C460 C458 1.389 . S
C460 C461 1.524 . S
C460 C474 1.377 . S
C461 C460 1.524 . S
C461 C462 1.397 . S
C461 C466 1.363 . S
C462 H439 0.950 . S
C462 C461 1.397 . S
C462 C463 1.334 . S
C463 H440 0.950 . S
C463 C462 1.334 . S
C463 C464 1.287 . S
C464 C463 1.287 . S
C464 C465 1.524 . S
C464 H483 0.913 . S
C465 H441 0.950 . S
C465 C464 1.524 . S
C465 C466 1.415 . S
C466 H442 0.950 . S
C466 C461 1.363 . S
C466 C465 1.415 . S
C467 H443 0.951 . S
C467 C468 1.366 . S
C467 C469 1.388 . S
C468 C467 1.366 . S
C468 C472 1.385 . S
C469 H444 0.951 . S
C469 C467 1.388 . S
C469 C470 1.366 . S
C470 C469 1.366 . S
C470 C471 1.414 . S
C470 C473 1.499 . S
C471 H445 0.950 . S
C471 C470 1.414 . S
C471 C472 1.374 . S
C472 H446 0.950 . S
C472 C468 1.385 . S
C472 C471 1.374 . S
C473 C470 1.499 . S
C473 C474 1.373 . S
C473 C475 1.389 . S
C474 H447 0.950 . S
C474 C460 1.377 . S
C474 C473 1.373 . S
C475 C459 1.377 . S
C475 C473 1.389 . S
C475 C476 1.524 . S
C476 C475 1.524 . S
C476 C477 1.397 . S
C476 C481 1.363 . S
C477 H448 0.950 . S
C477 C476 1.397 . S
C477 C478 1.334 . S
C478 H449 0.950 . S
C478 C477 1.334 . S
C478 C479 1.287 . S
C479 C478 1.287 . S
C479 C480 1.524 . S
C479 H482 0.999 . S
C480 H450 0.950 . S
C480 C479 1.524 . S
C480 C481 1.415 . S
C481 H451 0.950 . S
C481 C476 1.363 . S
C481 C480 1.415 . S
H482 C479 0.999 . S
H483 C464 0.913 . S
H484 C502 0.951 . S
H485 C504 0.951 . S
H486 C506 0.950 . S
H487 C507 0.950 . S
H488 C509 0.950 . S
H489 C512 0.950 . S
H490 C513 0.950 . S
H491 C515 0.950 . S
H492 C516 0.950 . S
H493 C517 0.951 . S
H494 C519 0.951 . S
H495 C521 0.950 . S
H496 C522 0.950 . S
H497 C524 0.950 . S
H498 C527 0.950 . S
H499 C528 0.950 . S
H500 C530 0.950 . S
H501 C531 0.950 . S
C502 H484 0.951 . S
C502 C503 1.366 . S
C502 C504 1.388 . S
C503 C502 1.366 . S
C503 C507 1.385 . S
C504 H485 0.951 . S
C504 C502 1.388 . S
C504 C505 1.366 . S
C505 C504 1.366 . S
C505 C506 1.414 . S
C505 C508 1.499 . S
C506 H486 0.950 . S
C506 C505 1.414 . S
C506 C507 1.374 . S
C507 H487 0.950 . S
C507 C503 1.385 . S
C507 C506 1.374 . S
C508 C505 1.499 . S
C508 C509 1.373 . S
C508 C510 1.389 . S
C509 H488 0.950 . S
C509 C508 1.373 . S
C509 C525 1.377 . S
C510 C508 1.389 . S
C510 C511 1.524 . S
C510 C524 1.377 . S
C511 C510 1.524 . S
C511 C512 1.397 . S
C511 C516 1.363 . S
C512 H489 0.950 . S
C512 C511 1.397 . S
C512 C513 1.334 . S
C513 H490 0.950 . S
C513 C512 1.334 . S
C513 C514 1.287 . S
C514 C513 1.287 . S
C514 C515 1.524 . S
C514 H533 0.913 . S
C515 H491 0.950 . S
C515 C514 1.524 . S
C515 C516 1.415 . S
C516 H492 0.950 . S
C516 C511 1.363 . S
C516 C515 1.415 . S
C517 H493 0.951 . S
C517 C518 1.366 . S
C517 C519 1.388 . S
C518 C517 1.366 . S
C518 C522 1.385 . S
C519 H494 0.951 . S
C519 C517 1.388 . S
C519 C520 1.366 . S
C520 C519 1.366 . S
C520 C521 1.414 . S
C520 C523 1.499 . S
C521 H495 0.950 . S
C521 C520 1.414 . S
C521 C522 1.374 . S
C522 H496 0.950 . S
C522 C518 1.385 . S
C522 C521 1.374 . S
C523 C520 1.499 . S
C523 C524 1.373 . S
C523 C525 1.389 . S
C524 H497 0.950 . S
C524 C510 1.377 . S
C524 C523 1.373 . S
C525 C509 1.377 . S
C525 C523 1.389 . S
C525 C526 1.524 . S
C526 C525 1.524 . S
C526 C527 1.397 . S
C526 C531 1.363 . S
C527 H498 0.950 . S
C527 C526 1.397 . S
C527 C528 1.334 . S
C528 H499 0.950 . S
C528 C527 1.334 . S
C528 C529 1.287 . S
C529 C528 1.287 . S
C529 C530 1.524 . S
C529 H532 0.999 . S
C530 H500 0.950 . S
C530 C529 1.524 . S
C530 C531 1.415 . S
C531 H501 0.950 . S
C531 C526 1.363 . S
C531 C530 1.415 . S
H532 C529 0.999 . S
H533 C514 0.913 . S
H534 C552 0.951 . S
H535 C554 0.951 . S
H536 C556 0.950 . S
H537 C557 0.950 . S
H538 C559 0.950 . S
H539 C562 0.950 . S
H540 C563 0.950 . S
H541 C565 0.950 . S
H542 C566 0.950 . S
H543 C567 0.951 . S
H544 C569 0.951 . S
H545 C571 0.950 . S
H546 C572 0.950 . S
H547 C574 0.950 . S
H548 C577 0.950 . S
H549 C578 0.950 . S
H550 C580 0.950 . S
H551 C581 0.950 . S
C552 H534 0.951 . S
C552 C553 1.366 . S
C552 C554 1.388 . S
C553 C552 1.366 . S
C553 C557 1.385 . S
C554 H535 0.951 . S
C554 C552 1.388 . S
C554 C555 1.366 . S
C555 C554 1.366 . S
C555 C556 1.414 . S
C555 C558 1.499 . S
C556 H536 0.950 . S
C556 C555 1.414 . S
C556 C557 1.374 . S
C557 H537 0.950 . S
C557 C553 1.385 . S
C557 C556 1.374 . S
C558 C555 1.499 . S
C558 C559 1.373 . S
C558 C560 1.389 . S
C559 H538 0.950 . S
C559 C558 1.373 . S
C559 C575 1.377 . S
C560 C558 1.389 . S
C560 C561 1.524 . S
C560 C574 1.377 . S
C561 C560 1.524 . S
C561 C562 1.397 . S
C561 C566 1.363 . S
C562 H539 0.950 . S
C562 C561 1.397 . S
C562 C563 1.334 . S
C563 H540 0.950 . S
C563 C562 1.334 . S
C563 C564 1.287 . S
C564 C563 1.287 . S
C564 C565 1.524 . S
C564 H583 0.913 . S
C565 H541 0.950 . S
C565 C564 1.524 . S
C565 C566 1.415 . S
C566 H542 0.950 . S
C566 C561 1.363 . S
C566 C565 1.415 . S
C567 H543 0.951 . S
C567 C568 1.366 . S
C567 C569 1.388 . S
C568 C567 1.366 . S
C568 C572 1.385 . S
C569 H544 0.951 . S
C569 C567 1.388 . S
C569 C570 1.366 . S
C570 C569 1.366 . S
C570 C571 1.414 . S
C570 C573 1.499 . S
C571 H545 0.950 . S
C571 C570 1.414 . S
C571 C572 1.374 . S
C572 H546 0.950 . S
C572 C568 1.385 . S
C572 C571 1.374 . S
C573 C570 1.499 . S
C573 C574 1.373 . S
C573 C575 1.389 . S
C574 H547 0.950 . S
C574 C560 1.377 . S
C574 C573 1.373 . S
C575 C559 1.377 . S
C575 C573 1.389 . S
C575 C576 1.524 . S
C576 C575 1.524 . S
C576 C577 1.397 . S
C576 C581 1.363 . S
C577 H548 0.950 . S
C577 C576 1.397 . S
C577 C578 1.334 . S
C578 H549 0.950 . S
C578 C577 1.334 . S
C578 C579 1.287 . S
C579 C578 1.287 . S
C579 C580 1.524 . S
C579 H582 0.999 . S
C580 H550 0.950 . S
C580 C579 1.524 . S
C580 C581 1.415 . S
C581 H551 0.950 . S
C581 C576 1.363 . S
C581 C580 1.415 . S
H582 C579 0.999 . S
H583 C564 0.913 . S
H584 C602 0.951 . S
H585 C604 0.951 . S
H586 C606 0.950 . S
H587 C607 0.950 . S
H588 C609 0.950 . S
H589 C612 0.950 . S
H590 C613 0.950 . S
H591 C615 0.950 . S
H592 C616 0.950 . S
H593 C617 0.951 . S
H594 C619 0.951 . S
H595 C621 0.950 . S
H596 C622 0.950 . S
H597 C624 0.950 . S
H598 C627 0.950 . S
H599 C628 0.950 . S
H600 C630 0.950 . S
H601 C631 0.950 . S
C602 H584 0.951 . S
C602 C603 1.366 . S
C602 C604 1.388 . S
C603 C602 1.366 . S
C603 C607 1.385 . S
C604 H585 0.951 . S
C604 C602 1.388 . S
C604 C605 1.366 . S
C605 C604 1.366 . S
C605 C606 1.414 . S
C605 C608 1.499 . S
C606 H586 0.950 . S
C606 C605 1.414 . S
C606 C607 1.374 . S
C607 H587 0.950 . S
C607 C603 1.385 . S
C607 C606 1.374 . S
C608 C605 1.499 . S
C608 C609 1.373 . S
C608 C610 1.389 . S
C609 H588 0.950 . S
C609 C608 1.373 . S
C609 C625 1.377 . S
C610 C608 1.389 . S
C610 C611 1.524 . S
C610 C624 1.377 . S
C611 C610 1.524 . S
C611 C612 1.397 . S
C611 C616 1.363 . S
C612 H589 0.950 . S
C612 C611 1.397 . S
C612 C613 1.334 . S
C613 H590 0.950 . S
C613 C612 1.334 . S
C613 C614 1.287 . S
C614 C613 1.287 . S
C614 C615 1.524 . S
C614 H633 0.913 . S
C615 H591 0.950 . S
C615 C614 1.524 . S
C615 C616 1.415 . S
C616 H592 0.950 . S
C616 C611 1.363 . S
C616 C615 1.415 . S
C617 H593 0.951 . S
C617 C618 1.366 . S
C617 C619 1.388 . S
C618 C617 1.366 . S
C618 C622 1.385 . S
C619 H594 0.951 . S
C619 C617 1.388 . S
C619 C620 1.366 . S
C620 C619 1.366 . S
C620 C621 1.414 . S
C620 C623 1.499 . S
C621 H595 0.950 . S
C621 C620 1.414 . S
C621 C622 1.374 . S
C622 H596 0.950 . S
C622 C618 1.385 . S
C622 C621 1.374 . S
C623 C620 1.499 . S
C623 C624 1.373 . S
C623 C625 1.389 . S
C624 H597 0.950 . S
C624 C610 1.377 . S
C624 C623 1.373 . S
C625 C609 1.377 . S
C625 C623 1.389 . S
C625 C626 1.524 . S
C626 C625 1.524 . S
C626 C627 1.397 . S
C626 C631 1.363 . S
C627 H598 0.950 . S
C627 C626 1.397 . S
C627 C628 1.334 . S
C628 H599 0.950 . S
C628 C627 1.334 . S
C628 C629 1.287 . S
C629 C628 1.287 . S
C629 C630 1.524 . S
C629 H632 0.999 . S
C630 H600 0.950 . S
C630 C629 1.524 . S
C630 C631 1.415 . S
C631 H601 0.950 . S
C631 C626 1.363 . S
C631 C630 1.415 . S
H632 C629 0.999 . S
H633 C614 0.913 . S
H634 C652 0.951 . S
H635 C654 0.951 . S
H636 C656 0.950 . S
H637 C657 0.950 . S
H638 C659 0.950 . S
H639 C662 0.950 . S
H640 C663 0.950 . S
H641 C665 0.950 . S
H642 C666 0.950 . S
H643 C667 0.951 . S
H644 C669 0.951 . S
H645 C671 0.950 . S
H646 C672 0.950 . S
H647 C674 0.950 . S
H648 C677 0.950 . S
H649 C678 0.950 . S
H650 C680 0.950 . S
H651 C681 0.950 . S
C652 H634 0.951 . S
C652 C653 1.366 . S
C652 C654 1.388 . S
C653 C652 1.366 . S
C653 C657 1.385 . S
C654 H635 0.951 . S
C654 C652 1.388 . S
C654 C655 1.366 . S
C655 C654 1.366 . S
C655 C656 1.414 . S
C655 C658 1.499 . S
C656 H636 0.950 . S
C656 C655 1.414 . S
C656 C657 1.374 . S
C657 H637 0.950 . S
C657 C653 1.385 . S
C657 C656 1.374 . S
C658 C655 1.499 . S
C658 C659 1.373 . S
C658 C660 1.389 . S
C659 H638 0.950 . S
C659 C658 1.373 . S
C659 C675 1.377 . S
C660 C658 1.389 . S
C660 C661 1.524 . S
C660 C674 1.377 . S
C661 C660 1.524 . S
C661 C662 1.397 . S
C661 C666 1.363 . S
C662 H639 0.950 . S
C662 C661 1.397 . S
C662 C663 1.334 . S
C663 H640 0.950 . S
C663 C662 1.334 . S
C663 C664 1.287 . S
C664 C663 1.287 . S
C664 C665 1.524 . S
C664 H683 0.913 . S
C665 H641 0.950 . S
C665 C664 1.524 . S
C665 C666 1.415 . S
C666 H642 0.950 . S
C666 C661 1.363 . S
C666 C665 1.415 . S
C667 H643 0.951 . S
C667 C668 1.366 . S
C667 C669 1.388 . S
C668 C667 1.366 . S
C668 C672 1.385 . S
C669 H644 0.951 . S
C669 C667 1.388 . S
C669 C670 1.366 . S
C670 C669 1.366 . S
C670 C671 1.414 . S
C670 C673 1.499 . S
C671 H645 0.950 . S
C671 C670 1.414 . S
C671 C672 1.374 . S
C672 H646 0.950 . S
C672 C668 1.385 . S
C672 C671 1.374 . S
C673 C670 1.499 . S
C673 C674 1.373 . S
C673 C675 1.389 . S
C674 H647 0.950 . S
C674 C660 1.377 . S
C674 C673 1.373 . S
C675 C659 1.377 . S
C675 C673 1.389 . S
C675 C676 1.524 . S
C676 C675 1.524 . S
C676 C677 1.397 . S
C676 C681 1.363 . S
C677 H648 0.950 . S
C677 C676 1.397 . S
C677 C678 1.334 . S
C678 H649 0.950 . S
C678 C677 1.334 . S
C678 C679 1.287 . S
C679 C678 1.287 . S
C679 C680 1.524 . S
C679 H682 0.999 . S
C680 H650 0.950 . S
C680 C679 1.524 . S
C680 C681 1.415 . S
C681 H651 0.950 . S
C681 C676 1.363 . S
C681 C680 1.415 . S
H682 C679 0.999 . S
H683 C664 0.913 . S
H684 C702 0.951 . S
H685 C704 0.951 . S
H686 C706 0.950 . S
H687 C707 0.950 . S
H688 C709 0.950 . S
H689 C712 0.950 . S
H690 C713 0.950 . S
H691 C715 0.950 . S
H692 C716 0.950 . S
H693 C717 0.951 . S
H694 C719 0.951 . S
H695 C721 0.950 . S
H696 C722 0.950 . S
H697 C724 0.950 . S
H698 C727 0.950 . S
H699 C728 0.950 . S
H700 C730 0.950 . S
H701 C731 0.950 . S
C702 H684 0.951 . S
C702 C703 1.366 . S
C702 C704 1.388 . S
C703 C702 1.366 . S
C703 C707 1.385 . S
C704 H685 0.951 . S
C704 C702 1.388 . S
C704 C705 1.366 . S
C705 C704 1.366 . S
C705 C706 1.414 . S
C705 C708 1.499 . S
C706 H686 0.950 . S
C706 C705 1.414 . S
C706 C707 1.374 . S
C707 H687 0.950 . S
C707 C703 1.385 . S
C707 C706 1.374 . S
C708 C705 1.499 . S
C708 C709 1.373 . S
C708 C710 1.389 . S
C709 H688 0.950 . S
C709 C708 1.373 . S
C709 C725 1.377 . S
C710 C708 1.389 . S
C710 C711 1.524 . S
C710 C724 1.377 . S
C711 C710 1.524 . S
C711 C712 1.397 . S
C711 C716 1.363 . S
C712 H689 0.950 . S
C712 C711 1.397 . S
C712 C713 1.334 . S
C713 H690 0.950 . S
C713 C712 1.334 . S
C713 C714 1.287 . S
C714 C713 1.287 . S
C714 C715 1.524 . S
C714 H733 0.913 . S
C715 H691 0.950 . S
C715 C714 1.524 . S
C715 C716 1.415 . S
C716 H692 0.950 . S
C716 C711 1.363 . S
C716 C715 1.415 . S
C717 H693 0.951 . S
C717 C718 1.366 . S
C717 C719 1.388 . S
C718 C717 1.366 . S
C718 C722 1.385 . S
C719 H694 0.951 . S
C719 C717 1.388 . S
C719 C720 1.366 . S
C720 C719 1.366 . S
C720 C721 1.414 . S
C720 C723 1.499 . S
C721 H695 0.950 . S
C721 C720 1.414 . S
C721 C722 1.374 . S
C722 H696 0.950 . S
C722 C718 1.385 . S
C722 C721 1.374 . S
C723 C720 1.499 . S
C723 C724 1.373 . S
C723 C725 1.389 . S
C724 H697 0.950 . S
C724 C710 1.377 . S
C724 C723 1.373 . S
C725 C709 1.377 . S
C725 C723 1.389 . S
C725 C726 1.524 . S
C726 C725 1.524 . S
C726 C727 1.397 . S
C726 C731 1.363 . S
C727 H698 0.950 . S
C727 C726 1.397 . S
C727 C728 1.334 . S
C728 H699 0.950 . S
C728 C727 1.334 . S
C728 C729 1.287 . S
C729 C728 1.287 . S
C729 C730 1.524 . S
C729 H732 0.999 . S
C730 H700 0.950 . S
C730 C729 1.524 . S
C730 C731 1.415 . S
C731 H701 0.950 . S
C731 C726 1.363 . S
C731 C730 1.415 . S
H732 C729 0.999 . S
H733 C714 0.913 . S
H734 C752 0.951 . S
H735 C754 0.951 . S
H736 C756 0.950 . S
H737 C757 0.950 . S
H738 C759 0.950 . S
H739 C762 0.950 . S
H740 C763 0.950 . S
H741 C765 0.950 . S
H742 C766 0.950 . S
H743 C767 0.951 . S
H744 C769 0.951 . S
H745 C771 0.950 . S
H746 C772 0.950 . S
H747 C774 0.950 . S
H748 C777 0.950 . S
H749 C778 0.950 . S
H750 C780 0.950 . S
H751 C781 0.950 . S
C752 H734 0.951 . S
C752 C753 1.366 . S
C752 C754 1.388 . S
C753 C752 1.366 . S
C753 C757 1.385 . S
C754 H735 0.951 . S
C754 C752 1.388 . S
C754 C755 1.366 . S
C755 C754 1.366 . S
C755 C756 1.414 . S
C755 C758 1.499 . S
C756 H736 0.950 . S
C756 C755 1.414 . S
C756 C757 1.374 . S
C757 H737 0.950 . S
C757 C753 1.385 . S
C757 C756 1.374 . S
C758 C755 1.499 . S
C758 C759 1.373 . S
C758 C760 1.389 . S
C759 H738 0.950 . S
C759 C758 1.373 . S
C759 C775 1.377 . S
C760 C758 1.389 . S
C760 C761 1.524 . S
C760 C774 1.377 . S
C761 C760 1.524 . S
C761 C762 1.397 . S
C761 C766 1.363 . S
C762 H739 0.950 . S
C762 C761 1.397 . S
C762 C763 1.334 . S
C763 H740 0.950 . S
C763 C762 1.334 . S
C763 C764 1.287 . S
C764 C763 1.287 . S
C764 C765 1.524 . S
C764 H783 0.913 . S
C765 H741 0.950 . S
C765 C764 1.524 . S
C765 C766 1.415 . S
C766 H742 0.950 . S
C766 C761 1.363 . S
C766 C765 1.415 . S
C767 H743 0.951 . S
C767 C768 1.366 . S
C767 C769 1.388 . S
C768 C767 1.366 . S
C768 C772 1.385 . S
C769 H744 0.951 . S
C769 C767 1.388 . S
C769 C770 1.366 . S
C770 C769 1.366 . S
C770 C771 1.414 . S
C770 C773 1.499 . S
C771 H745 0.950 . S
C771 C770 1.414 . S
C771 C772 1.374 . S
C772 H746 0.950 . S
C772 C768 1.385 . S
C772 C771 1.374 . S
C773 C770 1.499 . S
C773 C774 1.373 . S
C773 C775 1.389 . S
C774 H747 0.950 . S
C774 C760 1.377 . S
C774 C773 1.373 . S
C775 C759 1.377 . S
C775 C773 1.389 . S
C775 C776 1.524 . S
C776 C775 1.524 . S
C776 C777 1.397 . S
C776 C781 1.363 . S
C777 H748 0.950 . S
C777 C776 1.397 . S
C777 C778 1.334 . S
C778 H749 0.950 . S
C778 C777 1.334 . S
C778 C779 1.287 . S
C779 C778 1.287 . S
C779 C780 1.524 . S
C779 H782 0.999 . S
C780 H750 0.950 . S
C780 C779 1.524 . S
C780 C781 1.415 . S
C781 H751 0.950 . S
C781 C776 1.363 . S
C781 C780 1.415 . S
H782 C779 0.999 . S
H783 C764 0.913 . S
H784 C802 0.951 . S
H785 C804 0.951 . S
H786 C806 0.950 . S
H787 C807 0.950 . S
H788 C809 0.950 . S
H789 C812 0.950 . S
H790 C813 0.950 . S
H791 C815 0.950 . S
H792 C816 0.950 . S
H793 C817 0.951 . S
H794 C819 0.951 . S
H795 C821 0.950 . S
H796 C822 0.950 . S
H797 C824 0.950 . S
H798 C827 0.950 . S
H799 C828 0.950 . S
H800 C830 0.950 . S
H801 C831 0.950 . S
C802 H784 0.951 . S
C802 C803 1.366 . S
C802 C804 1.388 . S
C803 C802 1.366 . S
C803 C807 1.385 . S
C804 H785 0.951 . S
C804 C802 1.388 . S
C804 C805 1.366 . S
C805 C804 1.366 . S
C805 C806 1.414 . S
C805 C808 1.499 . S
C806 H786 0.950 . S
C806 C805 1.414 . S
C806 C807 1.374 . S
C807 H787 0.950 . S
C807 C803 1.385 . S
C807 C806 1.374 . S
C808 C805 1.499 . S
C808 C809 1.373 . S
C808 C810 1.389 . S
C809 H788 0.950 . S
C809 C808 1.373 . S
C809 C825 1.377 . S
C810 C808 1.389 . S
C810 C811 1.524 . S
C810 C824 1.377 . S
C811 C810 1.524 . S
C811 C812 1.397 . S
C811 C816 1.363 . S
C812 H789 0.950 . S
C812 C811 1.397 . S
C812 C813 1.334 . S
C813 H790 0.950 . S
C813 C812 1.334 . S
C813 C814 1.287 . S
C814 C813 1.287 . S
C814 C815 1.524 . S
C814 H833 0.913 . S
C815 H791 0.950 . S
C815 C814 1.524 . S
C815 C816 1.415 . S
C816 H792 0.950 . S
C816 C811 1.363 . S
C816 C815 1.415 . S
C817 H793 0.951 . S
C817 C818 1.366 . S
C817 C819 1.388 . S
C818 C817 1.366 . S
C818 C822 1.385 . S
C819 H794 0.951 . S
C819 C817 1.388 . S
C819 C820 1.366 . S
C820 C819 1.366 . S
C820 C821 1.414 . S
C820 C823 1.499 . S
C821 H795 0.950 . S
C821 C820 1.414 . S
C821 C822 1.374 . S
C822 H796 0.950 . S
C822 C818 1.385 . S
C822 C821 1.374 . S
C823 C820 1.499 . S
C823 C824 1.373 . S
C823 C825 1.389 . S
C824 H797 0.950 . S
C824 C810 1.377 . S
C824 C823 1.373 . S
C825 C809 1.377 . S
C825 C823 1.389 . S
C825 C826 1.524 . S
C826 C825 1.524 . S
C826 C827 1.397 . S
C826 C831 1.363 . S
C827 H798 0.950 . S
C827 C826 1.397 . S
C827 C828 1.334 . S
C828 H799 0.950 . S
C828 C827 1.334 . S
C828 C829 1.287 . S
C829 C828 1.287 . S
C829 C830 1.524 . S
C829 H832 0.999 . S
C830 H800 0.950 . S
C830 C829 1.524 . S
C830 C831 1.415 . S
C831 H801 0.950 . S
C831 C826 1.363 . S
C831 C830 1.415 . S
H832 C829 0.999 . S
H833 C814 0.913 . S
H834 C852 0.951 . S
H835 C854 0.951 . S
H836 C856 0.950 . S
H837 C857 0.950 . S
H838 C859 0.950 . S
H839 C862 0.950 . S
H840 C863 0.950 . S
H841 C865 0.950 . S
H842 C866 0.950 . S
H843 C867 0.951 . S
H844 C869 0.951 . S
H845 C871 0.950 . S
H846 C872 0.950 . S
H847 C874 0.950 . S
H848 C877 0.950 . S
H849 C878 0.950 . S
H850 C880 0.950 . S
H851 C881 0.950 . S
C852 H834 0.951 . S
C852 C853 1.366 . S
C852 C854 1.388 . S
C853 C852 1.366 . S
C853 C857 1.385 . S
C854 H835 0.951 . S
C854 C852 1.388 . S
C854 C855 1.366 . S
C855 C854 1.366 . S
C855 C856 1.414 . S
C855 C858 1.499 . S
C856 H836 0.950 . S
C856 C855 1.414 . S
C856 C857 1.374 . S
C857 H837 0.950 . S
C857 C853 1.385 . S
C857 C856 1.374 . S
C858 C855 1.499 . S
C858 C859 1.373 . S
C858 C860 1.389 . S
C859 H838 0.950 . S
C859 C858 1.373 . S
C859 C875 1.377 . S
C860 C858 1.389 . S
C860 C861 1.524 . S
C860 C874 1.377 . S
C861 C860 1.524 . S
C861 C862 1.397 . S
C861 C866 1.363 . S
C862 H839 0.950 . S
C862 C861 1.397 . S
C862 C863 1.334 . S
C863 H840 0.950 . S
C863 C862 1.334 . S
C863 C864 1.287 . S
C864 C863 1.287 . S
C864 C865 1.524 . S
C864 H883 0.913 . S
C865 H841 0.950 . S
C865 C864 1.524 . S
C865 C866 1.415 . S
C866 H842 0.950 . S
C866 C861 1.363 . S
C866 C865 1.415 . S
C867 H843 0.951 . S
C867 C868 1.366 . S
C867 C869 1.388 . S
C868 C867 1.366 . S
C868 C872 1.385 . S
C869 H844 0.951 . S
C869 C867 1.388 . S
C869 C870 1.366 . S
C870 C869 1.366 . S
C870 C871 1.414 . S
C870 C873 1.499 . S
C871 H845 0.950 . S
C871 C870 1.414 . S
C871 C872 1.374 . S
C872 H846 0.950 . S
C872 C868 1.385 . S
C872 C871 1.374 . S
C873 C870 1.499 . S
C873 C874 1.373 . S
C873 C875 1.389 . S
C874 H847 0.950 . S
C874 C860 1.377 . S
C874 C873 1.373 . S
C875 C859 1.377 . S
C875 C873 1.389 . S
C875 C876 1.524 . S
C876 C875 1.524 . S
C876 C877 1.397 . S
C876 C881 1.363 . S
C877 H848 0.950 . S
C877 C876 1.397 . S
C877 C878 1.334 . S
C878 H849 0.950 . S
C878 C877 1.334 . S
C878 C879 1.287 . S
C879 C878 1.287 . S
C879 C880 1.524 . S
C879 H882 0.999 . S
C880 H850 0.950 . S
C880 C879 1.524 . S
C880 C881 1.415 . S
C881 H851 0.950 . S
C881 C876 1.363 . S
C881 C880 1.415 . S
H882 C879 0.999 . S
H883 C864 0.913 . S
H884 C902 0.951 . S
H885 C904 0.951 . S
H886 C906 0.950 . S
H887 C907 0.950 . S
H888 C909 0.950 . S
H889 C912 0.950 . S
H890 C913 0.950 . S
H891 C915 0.950 . S
H892 C916 0.950 . S
H893 C917 0.951 . S
H894 C919 0.951 . S
H895 C921 0.950 . S
H896 C922 0.950 . S
H897 C924 0.950 . S
H898 C927 0.950 . S
H899 C928 0.950 . S
H900 C930 0.950 . S
H901 C931 0.950 . S
C902 H884 0.951 . S
C902 C903 1.366 . S
C902 C904 1.388 . S
C903 C902 1.366 . S
C903 C907 1.385 . S
C904 H885 0.951 . S
C904 C902 1.388 . S
C904 C905 1.366 . S
C905 C904 1.366 . S
C905 C906 1.414 . S
C905 C908 1.499 . S
C906 H886 0.950 . S
C906 C905 1.414 . S
C906 C907 1.374 . S
C907 H887 0.950 . S
C907 C903 1.385 . S
C907 C906 1.374 . S
C908 C905 1.499 . S
C908 C909 1.373 . S
C908 C910 1.389 . S
C909 H888 0.950 . S
C909 C908 1.373 . S
C909 C925 1.377 . S
C910 C908 1.389 . S
C910 C911 1.524 . S
C910 C924 1.377 . S
C911 C910 1.524 . S
C911 C912 1.397 . S
C911 C916 1.363 . S
C912 H889 0.950 . S
C912 C911 1.397 . S
C912 C913 1.334 . S
C913 H890 0.950 . S
C913 C912 1.334 . S
C913 C914 1.287 . S
C914 C913 1.287 . S
C914 C915 1.524 . S
C914 H933 0.913 . S
C915 H891 0.950 . S
C915 C914 1.524 . S
C915 C916 1.415 . S
C916 H892 0.950 . S
C916 C911 1.363 . S
C916 C915 1.415 . S
C917 H893 0.951 . S
C917 C918 1.366 . S
C917 C919 1.388 . S
C918 C917 1.366 . S
C918 C922 1.385 . S
C919 H894 0.951 . S
C919 C917 1.388 . S
C919 C920 1.366 . S
C920 C919 1.366 . S
C920 C921 1.414 . S
C920 C923 1.499 . S
C921 H895 0.950 . S
C921 C920 1.414 . S
C921 C922 1.374 . S
C922 H896 0.950 . S
C922 C918 1.385 . S
C922 C921 1.374 . S
C923 C920 1.499 . S
C923 C924 1.373 . S
C923 C925 1.389 . S
C924 H897 0.950 . S
C924 C910 1.377 . S
C924 C923 1.373 . S
C925 C909 1.377 . S
C925 C923 1.389 . S
C925 C926 1.524 . S
C926 C925 1.524 . S
C926 C927 1.397 . S
C926 C931 1.363 . S
C927 H898 0.950 . S
C927 C926 1.397 . S
C927 C928 1.334 . S
C928 H899 0.950 . S
C928 C927 1.334 . S
C928 C929 1.287 . S
C929 C928 1.287 . S
C929 C930 1.524 . S
C929 H932 0.999 . S
C930 H900 0.950 . S
C930 C929 1.524 . S
C930 C931 1.415 . S
C931 H901 0.950 . S
C931 C926 1.363 . S
C931 C930 1.415 . S
H932 C929 0.999 . S
H933 C914 0.913 . S
H934 C952 0.951 . S
H935 C954 0.951 . S
H936 C956 0.950 . S
H937 C957 0.950 . S
H938 C959 0.950 . S
H939 C962 0.950 . S
H940 C963 0.950 . S
H941 C965 0.950 . S
H942 C966 0.950 . S
H943 C967 0.951 . S
H944 C969 0.951 . S
H945 C971 0.950 . S
H946 C972 0.950 . S
H947 C974 0.950 . S
H948 C977 0.950 . S
H949 C978 0.950 . S
H950 C980 0.950 . S
H951 C981 0.950 . S
C952 H934 0.951 . S
C952 C953 1.366 . S
C952 C954 1.388 . S
C953 C952 1.366 . S
C953 C957 1.385 . S
C954 H935 0.951 . S
C954 C952 1.388 . S
C954 C955 1.366 . S
C955 C954 1.366 . S
C955 C956 1.414 . S
C955 C958 1.499 . S
C956 H936 0.950 . S
C956 C955 1.414 . S
C956 C957 1.374 . S
C957 H937 0.950 . S
C957 C953 1.385 . S
C957 C956 1.374 . S
C958 C955 1.499 . S
C958 C959 1.373 . S
C958 C960 1.389 . S
C959 H938 0.950 . S
C959 C958 1.373 . S
C959 C975 1.377 . S
C960 C958 1.389 . S
C960 C961 1.524 . S
C960 C974 1.377 . S
C961 C960 1.524 . S
C961 C962 1.397 . S
C961 C966 1.363 . S
C962 H939 0.950 . S
C962 C961 1.397 . S
C962 C963 1.334 . S
C963 H940 0.950 . S
C963 C962 1.334 . S
C963 C964 1.287 . S
C964 C963 1.287 . S
C964 C965 1.524 . S
C964 H983 0.913 . S
C965 H941 0.950 . S
C965 C964 1.524 . S
C965 C966 1.415 . S
C966 H942 0.950 . S
C966 C961 1.363 . S
C966 C965 1.415 . S
C967 H943 0.951 . S
C967 C968 1.366 . S
C967 C969 1.388 . S
C968 C967 1.366 . S
C968 C972 1.385 . S
C969 H944 0.951 . S
C969 C967 1.388 . S
C969 C970 1.366 . S
C970 C969 1.366 . S
C970 C971 1.414 . S
C970 C973 1.499 . S
C971 H945 0.950 . S
C971 C970 1.414 . S
C971 C972 1.374 . S
C972 H946 0.950 . S
C972 C968 1.385 . S
C972 C971 1.374 . S
C973 C970 1.499 . S
C973 C974 1.373 . S
C973 C975 1.389 . S
C974 H947 0.950 . S
C974 C960 1.377 . S
C974 C973 1.373 . S
C975 C959 1.377 . S
C975 C973 1.389 . S
C975 C976 1.524 . S
C976 C975 1.524 . S
C976 C977 1.397 . S
C976 C981 1.363 . S
C977 H948 0.950 . S
C977 C976 1.397 . S
C977 C978 1.334 . S
C978 H949 0.950 . S
C978 C977 1.334 . S
C978 C979 1.287 . S
C979 C978 1.287 . S
C979 C980 1.524 . S
C979 H982 0.999 . S
C980 H950 0.950 . S
C980 C979 1.524 . S
C980 C981 1.415 . S
C981 H951 0.950 . S
C981 C976 1.363 . S
C981 C980 1.415 . S
H982 C979 0.999 . S
H983 C964 0.913 . S
H984 C1002 0.951 . S
H985 C1004 0.951 . S
H986 C1006 0.950 . S
H987 C1007 0.950 . S
H988 C1009 0.950 . S
H989 C1012 0.950 . S
H990 C1013 0.950 . S
H991 C1015 0.950 . S
H992 C1016 0.950 . S
H993 C1017 0.951 . S
H994 C1019 0.951 . S
H995 C1021 0.950 . S
H996 C1022 0.950 . S
H997 C1024 0.950 . S
H998 C1027 0.950 . S
H999 C1028 0.950 . S
H1000 C1030 0.950 . S
H1001 C1031 0.950 . S
C1002 H984 0.951 . S
C1002 C1003 1.366 1_556 S
C1002 C1004 1.388 . S
C1003 C1002 1.366 1_554 S
C1003 C1007 1.385 . S
C1004 H985 0.951 . S
C1004 C1002 1.388 . S
C1004 C1005 1.366 1_556 S
C1005 C1004 1.366 1_554 S
C1005 C1006 1.414 . S
C1005 C1008 1.499 . S
C1006 H986 0.950 . S
C1006 C1005 1.414 . S
C1006 C1007 1.374 . S
C1007 H987 0.950 . S
C1007 C1003 1.385 . S
C1007 C1006 1.374 . S
C1008 C1005 1.499 . S
C1008 C1009 1.373 . S
C1008 C1010 1.389 1_554 S
C1009 H988 0.950 . S
C1009 C1008 1.373 . S
C1009 C1025 1.377 . S
C1010 C1008 1.389 1_556 S
C1010 C1011 1.524 . S
C1010 C1024 1.377 . S
C1011 C1010 1.524 . S
C1011 C1012 1.397 1_556 S
C1011 C1016 1.363 . S
C1012 H989 0.950 . S
C1012 C1011 1.397 1_554 S
C1012 C1013 1.334 . S
C1013 H990 0.950 . S
C1013 C1012 1.334 . S
C1013 C1014 1.287 1_554 S
C1014 C1013 1.287 1_556 S
C1014 C1015 1.524 . S
C1014 H1033 0.913 . S
C1015 H991 0.950 . S
C1015 C1014 1.524 . S
C1015 C1016 1.415 . S
C1016 H992 0.950 . S
C1016 C1011 1.363 . S
C1016 C1015 1.415 . S
C1017 H993 0.951 . S
C1017 C1018 1.366 . S
C1017 C1019 1.388 . S
C1018 C1017 1.366 . S
C1018 C1022 1.385 1_554 S
C1019 H994 0.951 . S
C1019 C1017 1.388 . S
C1019 C1020 1.366 . S
C1020 C1019 1.366 . S
C1020 C1021 1.414 1_554 S
C1020 C1023 1.499 . S
C1021 H995 0.950 . S
C1021 C1020 1.414 1_556 S
C1021 C1022 1.374 . S
C1022 H996 0.950 . S
C1022 C1018 1.385 1_556 S
C1022 C1021 1.374 . S
C1023 C1020 1.499 . S
C1023 C1024 1.373 1_554 S
C1023 C1025 1.389 . S
C1024 H997 0.950 . S
C1024 C1010 1.377 . S
C1024 C1023 1.373 1_556 S
C1025 C1009 1.377 . S
C1025 C1023 1.389 . S
C1025 C1026 1.524 . S
C1026 C1025 1.524 . S
C1026 C1027 1.397 1_554 S
C1026 C1031 1.363 . S
C1027 H998 0.950 . S
C1027 C1026 1.397 1_556 S
C1027 C1028 1.334 . S
C1028 H999 0.950 . S
C1028 C1027 1.334 . S
C1028 C1029 1.287 1_556 S
C1029 C1028 1.287 1_554 S
C1029 C1030 1.524 . S
C1029 H1032 0.999 . S
C1030 H1000 0.950 . S
C1030 C1029 1.524 . S
C1030 C1031 1.415 . S
C1031 H1001 0.950 . S
C1031 C1026 1.363 . S
C1031 C1030 1.415 . S
H1032 C1029 0.999 . S
H1033 C1014 0.913 . S
H1034 C1052 0.951 . S
H1035 C1054 0.951 . S
H1036 C1056 0.950 . S
H1037 C1057 0.950 . S
H1038 C1059 0.950 . S
H1039 C1062 0.950 . S
H1040 C1063 0.950 . S
H1041 C1065 0.950 . S
H1042 C1066 0.950 . S
H1043 C1067 0.951 . S
H1044 C1069 0.951 . S
H1045 C1071 0.950 . S
H1046 C1072 0.950 . S
H1047 C1074 0.950 . S
H1048 C1077 0.950 . S
H1049 C1078 0.950 . S
H1050 C1080 0.950 . S
H1051 C1081 0.950 . S
C1052 H1034 0.951 . S
C1052 C1053 1.366 . S
C1052 C1054 1.388 . S
C1053 C1052 1.366 . S
C1053 C1057 1.385 . S
C1054 H1035 0.951 . S
C1054 C1052 1.388 . S
C1054 C1055 1.366 . S
C1055 C1054 1.366 . S
C1055 C1056 1.414 . S
C1055 C1058 1.499 . S
C1056 H1036 0.950 . S
C1056 C1055 1.414 . S
C1056 C1057 1.374 . S
C1057 H1037 0.950 . S
C1057 C1053 1.385 . S
C1057 C1056 1.374 . S
C1058 C1055 1.499 . S
C1058 C1059 1.373 . S
C1058 C1060 1.389 . S
C1059 H1038 0.950 . S
C1059 C1058 1.373 . S
C1059 C1075 1.377 . S
C1060 C1058 1.389 . S
C1060 C1061 1.524 . S
C1060 C1074 1.377 . S
C1061 C1060 1.524 . S
C1061 C1062 1.397 . S
C1061 C1066 1.363 . S
C1062 H1039 0.950 . S
C1062 C1061 1.397 . S
C1062 C1063 1.334 . S
C1063 H1040 0.950 . S
C1063 C1062 1.334 . S
C1063 C1064 1.287 . S
C1064 C1063 1.287 . S
C1064 C1065 1.524 . S
C1064 H1083 0.913 . S
C1065 H1041 0.950 . S
C1065 C1064 1.524 . S
C1065 C1066 1.415 . S
C1066 H1042 0.950 . S
C1066 C1061 1.363 . S
C1066 C1065 1.415 . S
C1067 H1043 0.951 . S
C1067 C1068 1.366 . S
C1067 C1069 1.388 . S
C1068 C1067 1.366 . S
C1068 C1072 1.385 . S
C1069 H1044 0.951 . S
C1069 C1067 1.388 . S
C1069 C1070 1.366 . S
C1070 C1069 1.366 . S
C1070 C1071 1.414 . S
C1070 C1073 1.499 . S
C1071 H1045 0.950 . S
C1071 C1070 1.414 . S
C1071 C1072 1.374 . S
C1072 H1046 0.950 . S
C1072 C1068 1.385 . S
C1072 C1071 1.374 . S
C1073 C1070 1.499 . S
C1073 C1074 1.373 . S
C1073 C1075 1.389 . S
C1074 H1047 0.950 . S
C1074 C1060 1.377 . S
C1074 C1073 1.373 . S
C1075 C1059 1.377 . S
C1075 C1073 1.389 . S
C1075 C1076 1.524 . S
C1076 C1075 1.524 . S
C1076 C1077 1.397 . S
C1076 C1081 1.363 . S
C1077 H1048 0.950 . S
C1077 C1076 1.397 . S
C1077 C1078 1.334 . S
C1078 H1049 0.950 . S
C1078 C1077 1.334 . S
C1078 C1079 1.287 . S
C1079 C1078 1.287 . S
C1079 C1080 1.524 . S
C1079 H1082 0.999 . S
C1080 H1050 0.950 . S
C1080 C1079 1.524 . S
C1080 C1081 1.415 . S
C1081 H1051 0.950 . S
C1081 C1076 1.363 . S
C1081 C1080 1.415 . S
H1082 C1079 0.999 . S
H1083 C1064 0.913 . S
H1084 C1102 0.951 . S
H1085 C1104 0.951 . S
H1086 C1106 0.950 . S
H1087 C1107 0.950 . S
H1088 C1109 0.950 . S
H1089 C1112 0.950 . S
H1090 C1113 0.950 . S
H1091 C1115 0.950 1_556 S
H1092 C1116 0.950 1_556 S
H1093 C1117 0.951 . S
H1094 C1119 0.951 . S
H1095 C1121 0.950 . S
H1096 C1122 0.950 . S
H1097 C1124 0.950 . S
H1098 C1127 0.950 . S
H1099 C1128 0.950 . S
H1100 C1130 0.950 . S
H1101 C1131 0.950 . S
C1102 H1084 0.951 . S
C1102 C1103 1.366 1_556 S
C1102 C1104 1.388 . S
C1103 C1102 1.366 1_554 S
C1103 C1107 1.385 . S
C1104 H1085 0.951 . S
C1104 C1102 1.388 . S
C1104 C1105 1.366 1_556 S
C1105 C1104 1.366 1_554 S
C1105 C1106 1.414 . S
C1105 C1108 1.499 . S
C1106 H1086 0.950 . S
C1106 C1105 1.414 . S
C1106 C1107 1.374 . S
C1107 H1087 0.950 . S
C1107 C1103 1.385 . S
C1107 C1106 1.374 . S
C1108 C1105 1.499 . S
C1108 C1109 1.373 . S
C1108 C1110 1.389 . S
C1109 H1088 0.950 . S
C1109 C1108 1.373 . S
C1109 C1125 1.377 . S
C1110 C1108 1.389 . S
C1110 C1111 1.524 . S
C1110 C1124 1.377 . S
C1111 C1110 1.524 . S
C1111 C1112 1.397 . S
C1111 C1116 1.363 . S
C1112 H1089 0.950 . S
C1112 C1111 1.397 . S
C1112 C1113 1.334 . S
C1113 H1090 0.950 . S
C1113 C1112 1.334 . S
C1113 C1114 1.287 . S
C1114 C1113 1.287 . S
C1114 C1115 1.524 . S
C1114 H1133 0.913 . S
C1115 H1091 0.950 1_554 S
C1115 C1114 1.524 . S
C1115 C1116 1.415 . S
C1116 H1092 0.950 1_554 S
C1116 C1111 1.363 . S
C1116 C1115 1.415 . S
C1117 H1093 0.951 . S
C1117 C1118 1.366 . S
C1117 C1119 1.388 . S
C1118 C1117 1.366 . S
C1118 C1122 1.385 1_554 S
C1119 H1094 0.951 . S
C1119 C1117 1.388 . S
C1119 C1120 1.366 . S
C1120 C1119 1.366 . S
C1120 C1121 1.414 1_554 S
C1120 C1123 1.499 . S
C1121 H1095 0.950 . S
C1121 C1120 1.414 1_556 S
C1121 C1122 1.374 . S
C1122 H1096 0.950 . S
C1122 C1118 1.385 1_556 S
C1122 C1121 1.374 . S
C1123 C1120 1.499 . S
C1123 C1124 1.373 . S
C1123 C1125 1.389 . S
C1124 H1097 0.950 . S
C1124 C1110 1.377 . S
C1124 C1123 1.373 . S
C1125 C1109 1.377 . S
C1125 C1123 1.389 . S
C1125 C1126 1.524 1_554 S
C1126 C1125 1.524 1_556 S
C1126 C1127 1.397 . S
C1126 C1131 1.363 1_556 S
C1127 H1098 0.950 . S
C1127 C1126 1.397 . S
C1127 C1128 1.334 . S
C1128 H1099 0.950 . S
C1128 C1127 1.334 . S
C1128 C1129 1.287 . S
C1129 C1128 1.287 . S
C1129 C1130 1.524 1_556 S
C1129 H1132 0.999 . S
C1130 H1100 0.950 . S
C1130 C1129 1.524 1_554 S
C1130 C1131 1.415 . S
C1131 H1101 0.950 . S
C1131 C1126 1.363 1_554 S
C1131 C1130 1.415 . S
H1132 C1129 0.999 . S
H1133 C1114 0.913 . S
H1134 C1152 0.951 . S
H1135 C1154 0.951 . S
H1136 C1156 0.950 . S
H1137 C1157 0.950 . S
H1138 C1159 0.950 . S
H1139 C1162 0.950 . S
H1140 C1163 0.950 . S
H1141 C1165 0.950 . S
H1142 C1166 0.950 . S
H1143 C1167 0.951 . S
H1144 C1169 0.951 . S
H1145 C1171 0.950 . S
H1146 C1172 0.950 . S
H1147 C1174 0.950 . S
H1148 C1177 0.950 . S
H1149 C1178 0.950 . S
H1150 C1180 0.950 . S
H1151 C1181 0.950 . S
C1152 H1134 0.951 . S
C1152 C1153 1.366 . S
C1152 C1154 1.388 . S
C1153 C1152 1.366 . S
C1153 C1157 1.385 . S
C1154 H1135 0.951 . S
C1154 C1152 1.388 . S
C1154 C1155 1.366 . S
C1155 C1154 1.366 . S
C1155 C1156 1.414 . S
C1155 C1158 1.499 . S
C1156 H1136 0.950 . S
C1156 C1155 1.414 . S
C1156 C1157 1.374 . S
C1157 H1137 0.950 . S
C1157 C1153 1.385 . S
C1157 C1156 1.374 . S
C1158 C1155 1.499 . S
C1158 C1159 1.373 . S
C1158 C1160 1.389 . S
C1159 H1138 0.950 . S
C1159 C1158 1.373 . S
C1159 C1175 1.377 . S
C1160 C1158 1.389 . S
C1160 C1161 1.524 . S
C1160 C1174 1.377 . S
C1161 C1160 1.524 . S
C1161 C1162 1.397 . S
C1161 C1166 1.363 . S
C1162 H1139 0.950 . S
C1162 C1161 1.397 . S
C1162 C1163 1.334 . S
C1163 H1140 0.950 . S
C1163 C1162 1.334 . S
C1163 C1164 1.287 . S
C1164 C1163 1.287 . S
C1164 C1165 1.524 . S
C1164 H1183 0.913 . S
C1165 H1141 0.950 . S
C1165 C1164 1.524 . S
C1165 C1166 1.415 . S
C1166 H1142 0.950 . S
C1166 C1161 1.363 . S
C1166 C1165 1.415 . S
C1167 H1143 0.951 . S
C1167 C1168 1.366 . S
C1167 C1169 1.388 . S
C1168 C1167 1.366 . S
C1168 C1172 1.385 . S
C1169 H1144 0.951 . S
C1169 C1167 1.388 . S
C1169 C1170 1.366 . S
C1170 C1169 1.366 . S
C1170 C1171 1.414 . S
C1170 C1173 1.499 . S
C1171 H1145 0.950 . S
C1171 C1170 1.414 . S
C1171 C1172 1.374 . S
C1172 H1146 0.950 . S
C1172 C1168 1.385 . S
C1172 C1171 1.374 . S
C1173 C1170 1.499 . S
C1173 C1174 1.373 . S
C1173 C1175 1.389 . S
C1174 H1147 0.950 . S
C1174 C1160 1.377 . S
C1174 C1173 1.373 . S
C1175 C1159 1.377 . S
C1175 C1173 1.389 . S
C1175 C1176 1.524 . S
C1176 C1175 1.524 . S
C1176 C1177 1.397 . S
C1176 C1181 1.363 . S
C1177 H1148 0.950 . S
C1177 C1176 1.397 . S
C1177 C1178 1.334 . S
C1178 H1149 0.950 . S
C1178 C1177 1.334 . S
C1178 C1179 1.287 . S
C1179 C1178 1.287 . S
C1179 C1180 1.524 . S
C1179 H1182 0.999 . S
C1180 H1150 0.950 . S
C1180 C1179 1.524 . S
C1180 C1181 1.415 . S
C1181 H1151 0.950 . S
C1181 C1176 1.363 . S
C1181 C1180 1.415 . S
H1182 C1179 0.999 . S
H1183 C1164 0.913 . S
H1184 C1202 0.951 . S
H1185 C1204 0.951 . S
H1186 C1206 0.950 . S
H1187 C1207 0.950 . S
H1188 C1209 0.950 . S
H1189 C1212 0.950 . S
H1190 C1213 0.950 . S
H1191 C1215 0.950 . S
H1192 C1216 0.950 . S
H1193 C1217 0.951 . S
H1194 C1219 0.951 . S
H1195 C1221 0.950 . S
H1196 C1222 0.950 . S
H1197 C1224 0.950 . S
H1198 C1227 0.950 . S
H1199 C1228 0.950 . S
H1200 C1230 0.950 . S
H1201 C1231 0.950 . S
C1202 H1184 0.951 . S
C1202 C1203 1.366 . S
C1202 C1204 1.388 . S
C1203 C1202 1.366 . S
C1203 C1207 1.385 . S
C1204 H1185 0.951 . S
C1204 C1202 1.388 . S
C1204 C1205 1.366 . S
C1205 C1204 1.366 . S
C1205 C1206 1.414 . S
C1205 C1208 1.499 . S
C1206 H1186 0.950 . S
C1206 C1205 1.414 . S
C1206 C1207 1.374 . S
C1207 H1187 0.950 . S
C1207 C1203 1.385 . S
C1207 C1206 1.374 . S
C1208 C1205 1.499 . S
C1208 C1209 1.373 . S
C1208 C1210 1.389 . S
C1209 H1188 0.950 . S
C1209 C1208 1.373 . S
C1209 C1225 1.377 . S
C1210 C1208 1.389 . S
C1210 C1211 1.524 . S
C1210 C1224 1.377 . S
C1211 C1210 1.524 . S
C1211 C1212 1.397 . S
C1211 C1216 1.363 . S
C1212 H1189 0.950 . S
C1212 C1211 1.397 . S
C1212 C1213 1.334 . S
C1213 H1190 0.950 . S
C1213 C1212 1.334 . S
C1213 C1214 1.287 . S
C1214 C1213 1.287 . S
C1214 C1215 1.524 . S
C1214 H1233 0.913 . S
C1215 H1191 0.950 . S
C1215 C1214 1.524 . S
C1215 C1216 1.415 . S
C1216 H1192 0.950 . S
C1216 C1211 1.363 . S
C1216 C1215 1.415 . S
C1217 H1193 0.951 . S
C1217 C1218 1.366 . S
C1217 C1219 1.388 . S
C1218 C1217 1.366 . S
C1218 C1222 1.385 . S
C1219 H1194 0.951 . S
C1219 C1217 1.388 . S
C1219 C1220 1.366 . S
C1220 C1219 1.366 . S
C1220 C1221 1.414 . S
C1220 C1223 1.499 . S
C1221 H1195 0.950 . S
C1221 C1220 1.414 . S
C1221 C1222 1.374 . S
C1222 H1196 0.950 . S
C1222 C1218 1.385 . S
C1222 C1221 1.374 . S
C1223 C1220 1.499 . S
C1223 C1224 1.373 . S
C1223 C1225 1.389 . S
C1224 H1197 0.950 . S
C1224 C1210 1.377 . S
C1224 C1223 1.373 . S
C1225 C1209 1.377 . S
C1225 C1223 1.389 . S
C1225 C1226 1.524 . S
C1226 C1225 1.524 . S
C1226 C1227 1.397 . S
C1226 C1231 1.363 . S
C1227 H1198 0.950 . S
C1227 C1226 1.397 . S
C1227 C1228 1.334 . S
C1228 H1199 0.950 . S
C1228 C1227 1.334 . S
C1228 C1229 1.287 . S
C1229 C1228 1.287 . S
C1229 C1230 1.524 . S
C1229 H1232 0.999 . S
C1230 H1200 0.950 . S
C1230 C1229 1.524 . S
C1230 C1231 1.415 . S
C1231 H1201 0.950 . S
C1231 C1226 1.363 . S
C1231 C1230 1.415 . S
H1232 C1229 0.999 . S
H1233 C1214 0.913 . S
H1234 C1252 0.951 . S
H1235 C1254 0.951 . S
H1236 C1256 0.950 . S
H1237 C1257 0.950 . S
H1238 C1259 0.950 . S
H1239 C1262 0.950 . S
H1240 C1263 0.950 . S
H1241 C1265 0.950 . S
H1242 C1266 0.950 . S
H1243 C1267 0.951 . S
H1244 C1269 0.951 . S
H1245 C1271 0.950 . S
H1246 C1272 0.950 . S
H1247 C1274 0.950 . S
H1248 C1277 0.950 . S
H1249 C1278 0.950 . S
H1250 C1280 0.950 . S
H1251 C1281 0.950 . S
C1252 H1234 0.951 . S
C1252 C1253 1.366 . S
C1252 C1254 1.388 . S
C1253 C1252 1.366 . S
C1253 C1257 1.385 . S
C1254 H1235 0.951 . S
C1254 C1252 1.388 . S
C1254 C1255 1.366 . S
C1255 C1254 1.366 . S
C1255 C1256 1.414 . S
C1255 C1258 1.499 . S
C1256 H1236 0.950 . S
C1256 C1255 1.414 . S
C1256 C1257 1.374 . S
C1257 H1237 0.950 . S
C1257 C1253 1.385 . S
C1257 C1256 1.374 . S
C1258 C1255 1.499 . S
C1258 C1259 1.373 1_554 S
C1258 C1260 1.389 . S
C1259 H1238 0.950 . S
C1259 C1258 1.373 1_556 S
C1259 C1275 1.377 . S
C1260 C1258 1.389 . S
C1260 C1261 1.524 . S
C1260 C1274 1.377 . S
C1261 C1260 1.524 . S
C1261 C1262 1.397 . S
C1261 C1266 1.363 . S
C1262 H1239 0.950 . S
C1262 C1261 1.397 . S
C1262 C1263 1.334 . S
C1263 H1240 0.950 . S
C1263 C1262 1.334 . S
C1263 C1264 1.287 . S
C1264 C1263 1.287 . S
C1264 C1265 1.524 . S
C1264 H1283 0.913 . S
C1265 H1241 0.950 . S
C1265 C1264 1.524 . S
C1265 C1266 1.415 . S
C1266 H1242 0.950 . S
C1266 C1261 1.363 . S
C1266 C1265 1.415 . S
C1267 H1243 0.951 . S
C1267 C1268 1.366 . S
C1267 C1269 1.388 . S
C1268 C1267 1.366 . S
C1268 C1272 1.385 . S
C1269 H1244 0.951 . S
C1269 C1267 1.388 . S
C1269 C1270 1.366 . S
C1270 C1269 1.366 . S
C1270 C1271 1.414 . S
C1270 C1273 1.499 . S
C1271 H1245 0.950 . S
C1271 C1270 1.414 . S
C1271 C1272 1.374 . S
C1272 H1246 0.950 . S
C1272 C1268 1.385 . S
C1272 C1271 1.374 . S
C1273 C1270 1.499 . S
C1273 C1274 1.373 . S
C1273 C1275 1.389 1_554 S
C1274 H1247 0.950 . S
C1274 C1260 1.377 . S
C1274 C1273 1.373 . S
C1275 C1259 1.377 . S
C1275 C1273 1.389 1_556 S
C1275 C1276 1.524 . S
C1276 C1275 1.524 . S
C1276 C1277 1.397 . S
C1276 C1281 1.363 . S
C1277 H1248 0.950 . S
C1277 C1276 1.397 . S
C1277 C1278 1.334 . S
C1278 H1249 0.950 . S
C1278 C1277 1.334 . S
C1278 C1279 1.287 . S
C1279 C1278 1.287 . S
C1279 C1280 1.524 . S
C1279 H1282 0.999 . S
C1280 H1250 0.950 . S
C1280 C1279 1.524 . S
C1280 C1281 1.415 . S
C1281 H1251 0.950 . S
C1281 C1276 1.363 . S
C1281 C1280 1.415 . S
H1282 C1279 0.999 . S
H1283 C1264 0.913 . S
H1284 C1302 0.951 . S
H1285 C1304 0.951 . S
H1286 C1306 0.950 . S
H1287 C1307 0.950 . S
H1288 C1309 0.950 . S
H1289 C1312 0.950 . S
H1290 C1313 0.950 . S
H1291 C1315 0.950 . S
H1292 C1316 0.950 . S
H1293 C1317 0.951 . S
H1294 C1319 0.951 . S
H1295 C1321 0.950 . S
H1296 C1322 0.950 . S
H1297 C1324 0.950 . S
H1298 C1327 0.950 . S
H1299 C1328 0.950 . S
H1300 C1330 0.950 . S
H1301 C1331 0.950 . S
C1302 H1284 0.951 . S
C1302 C1303 1.366 . S
C1302 C1304 1.388 . S
C1303 C1302 1.366 . S
C1303 C1307 1.385 . S
C1304 H1285 0.951 . S
C1304 C1302 1.388 . S
C1304 C1305 1.366 . S
C1305 C1304 1.366 . S
C1305 C1306 1.414 . S
C1305 C1308 1.499 . S
C1306 H1286 0.950 . S
C1306 C1305 1.414 . S
C1306 C1307 1.374 . S
C1307 H1287 0.950 . S
C1307 C1303 1.385 . S
C1307 C1306 1.374 . S
C1308 C1305 1.499 . S
C1308 C1309 1.373 . S
C1308 C1310 1.389 . S
C1309 H1288 0.950 . S
C1309 C1308 1.373 . S
C1309 C1325 1.377 . S
C1310 C1308 1.389 . S
C1310 C1311 1.524 . S
C1310 C1324 1.377 . S
C1311 C1310 1.524 . S
C1311 C1312 1.397 . S
C1311 C1316 1.363 . S
C1312 H1289 0.950 . S
C1312 C1311 1.397 . S
C1312 C1313 1.334 . S
C1313 H1290 0.950 . S
C1313 C1312 1.334 . S
C1313 C1314 1.287 . S
C1314 C1313 1.287 . S
C1314 C1315 1.524 . S
C1314 H1333 0.913 . S
C1315 H1291 0.950 . S
C1315 C1314 1.524 . S
C1315 C1316 1.415 . S
C1316 H1292 0.950 . S
C1316 C1311 1.363 . S
C1316 C1315 1.415 . S
C1317 H1293 0.951 . S
C1317 C1318 1.366 . S
C1317 C1319 1.388 . S
C1318 C1317 1.366 . S
C1318 C1322 1.385 . S
C1319 H1294 0.951 . S
C1319 C1317 1.388 . S
C1319 C1320 1.366 . S
C1320 C1319 1.366 . S
C1320 C1321 1.414 . S
C1320 C1323 1.499 . S
C1321 H1295 0.950 . S
C1321 C1320 1.414 . S
C1321 C1322 1.374 . S
C1322 H1296 0.950 . S
C1322 C1318 1.385 . S
C1322 C1321 1.374 . S
C1323 C1320 1.499 . S
C1323 C1324 1.373 . S
C1323 C1325 1.389 . S
C1324 H1297 0.950 . S
C1324 C1310 1.377 . S
C1324 C1323 1.373 . S
C1325 C1309 1.377 . S
C1325 C1323 1.389 . S
C1325 C1326 1.524 . S
C1326 C1325 1.524 . S
C1326 C1327 1.397 . S
C1326 C1331 1.363 . S
C1327 H1298 0.950 . S
C1327 C1326 1.397 . S
C1327 C1328 1.334 . S
C1328 H1299 0.950 . S
C1328 C1327 1.334 . S
C1328 C1329 1.287 . S
C1329 C1328 1.287 . S
C1329 C1330 1.524 . S
C1329 H1332 0.999 . S
C1330 H1300 0.950 . S
C1330 C1329 1.524 . S
C1330 C1331 1.415 . S
C1331 H1301 0.950 . S
C1331 C1326 1.363 . S
C1331 C1330 1.415 . S
H1332 C1329 0.999 . S
H1333 C1314 0.913 . S
H1334 C1352 0.951 . S
H1335 C1354 0.951 . S
H1336 C1356 0.950 . S
H1337 C1357 0.950 . S
H1338 C1359 0.950 1_556 S
H1339 C1362 0.950 . S
H1340 C1363 0.950 . S
H1341 C1365 0.950 . S
H1342 C1366 0.950 . S
H1343 C1367 0.951 . S
H1344 C1369 0.951 . S
H1345 C1371 0.950 . S
H1346 C1372 0.950 . S
H1347 C1374 0.950 . S
H1348 C1377 0.950 . S
H1349 C1378 0.950 . S
H1350 C1380 0.950 . S
H1351 C1381 0.950 . S
C1352 H1334 0.951 . S
C1352 C1353 1.366 . S
C1352 C1354 1.388 . S
C1353 C1352 1.366 . S
C1353 C1357 1.385 1_554 S
C1354 H1335 0.951 . S
C1354 C1352 1.388 . S
C1354 C1355 1.366 . S
C1355 C1354 1.366 . S
C1355 C1356 1.414 1_554 S
C1355 C1358 1.499 . S
C1356 H1336 0.950 . S
C1356 C1355 1.414 1_556 S
C1356 C1357 1.374 . S
C1357 H1337 0.950 . S
C1357 C1353 1.385 1_556 S
C1357 C1356 1.374 . S
C1358 C1355 1.499 . S
C1358 C1359 1.373 . S
C1358 C1360 1.389 . S
C1359 H1338 0.950 1_554 S
C1359 C1358 1.373 . S
C1359 C1375 1.377 . S
C1360 C1358 1.389 . S
C1360 C1361 1.524 . S
C1360 C1374 1.377 . S
C1361 C1360 1.524 . S
C1361 C1362 1.397 1_554 S
C1361 C1366 1.363 . S
C1362 H1339 0.950 . S
C1362 C1361 1.397 1_556 S
C1362 C1363 1.334 . S
C1363 H1340 0.950 . S
C1363 C1362 1.334 . S
C1363 C1364 1.289 . S
C1364 C1363 1.289 . S
C1364 C1365 1.522 1_556 S
C1364 H1383 0.913 . S
C1365 H1341 0.950 . S
C1365 C1364 1.522 1_554 S
C1365 C1366 1.415 . S
C1366 H1342 0.950 . S
C1366 C1361 1.363 . S
C1366 C1365 1.415 . S
C1367 H1343 0.951 . S
C1367 C1368 1.366 1_556 S
C1367 C1369 1.388 . S
C1368 C1367 1.366 1_554 S
C1368 C1372 1.385 . S
C1369 H1344 0.951 . S
C1369 C1367 1.388 . S
C1369 C1370 1.366 1_556 S
C1370 C1369 1.366 1_554 S
C1370 C1371 1.414 . S
C1370 C1373 1.499 . S
C1371 H1345 0.950 . S
C1371 C1370 1.414 . S
C1371 C1372 1.374 . S
C1372 H1346 0.950 . S
C1372 C1368 1.385 . S
C1372 C1371 1.374 . S
C1373 C1370 1.499 . S
C1373 C1374 1.373 . S
C1373 C1375 1.389 . S
C1374 H1347 0.950 . S
C1374 C1360 1.377 . S
C1374 C1373 1.373 . S
C1375 C1359 1.377 . S
C1375 C1373 1.389 . S
C1375 C1376 1.524 . S
C1376 C1375 1.524 . S
C1376 C1377 1.397 . S
C1376 C1381 1.363 1_554 S
C1377 H1348 0.950 . S
C1377 C1376 1.397 . S
C1377 C1378 1.334 . S
C1378 H1349 0.950 . S
C1378 C1377 1.334 . S
C1378 C1379 1.287 . S
C1379 C1378 1.287 . S
C1379 C1380 1.524 1_554 S
C1379 H1382 0.999 . S
C1380 H1350 0.950 . S
C1380 C1379 1.524 1_556 S
C1380 C1381 1.415 . S
C1381 H1351 0.950 . S
C1381 C1376 1.363 1_556 S
C1381 C1380 1.415 . S
H1382 C1379 0.999 . S
H1383 C1364 0.913 . S
C203 C21 1.489 . S
C218 C130 1.493 . S
C253 C40 1.487 . S
C268 C94 1.482 . S
C318 C109 1.442 . S
C303 C54 1.462 . S
C353 C73 1.524 . S
C368 C121 1.507 . S
C418 C157 1.434 . S
C403 C74 1.453 . S
C468 C169 1.476 . S
C453 C10 1.504 . S
C518 C178 1.502 . S
C503 C37 1.498 . S
C568 C142 1.513 . S
C553 C65 1.507 . S
C603 C52 1.435 . S
C618 C106 1.432 . S
C653 C87 1.514 . S
C668 C118 1.509 . S
C703 C15 1.515 . S
C718 C133 1.504 . S
C768 C97 1.471 . S
C753 C32 1.493 . S
C803 C29 1.507 . S
C818 C181 1.496 . S
C868 C145 1.518 . S
C853 C59 1.530 . S
C918 C154 1.439 . S
C903 C84 1.442 . S
C953 C8 1.476 . S
C968 C166 1.463 . S
C1018 C92 1.529 . S
C1003 C7 1.533 . S
C1068 C104 1.477 . S
C1053 C30 1.482 . S
C1103 C62 1.535 . S
C1118 C116 1.528 . S
C1153 C81 1.506 . S
C1168 C128 1.511 . S
C1218 C140 1.522 . S
C1203 C76 1.535 . S
C1253 C18 1.482 . S
C1268 C152 1.476 . S
C1303 C43 1.533 . S
C1318 C164 1.535 . S
C1353 C51 1.506 . S
C1368 C176 1.511 . S
