# Generated by pormake.
# Topology tsx, (6,3)-cn, num edge types: 1
# Building blocks:
#     Node 0, Type 0, BuildingBlock: CIFDUS_clean_sbu_1, # of connection points: 6
#     Node 1, Type 0, BuildingBlock: CIFDUS_clean_sbu_1, # of connection points: 6
#     Node 2, Type 1, BuildingBlock: BETDAH_clean_linker_0, # of connection points: 3
#     Node 3, Type 1, BuildingBlock: BETDAH_clean_linker_0, # of connection points: 3
#     Node 4, Type 1, BuildingBlock: BETDAH_clean_linker_0, # of connection points: 3
#     Node 5, Type 1, BuildingBlock: BETDAH_clean_linker_0, # of connection points: 3
#     Edge 6, Type (0, 1), BuildingBlock: FUNLAD_clean_linker_1, # of connection points: 2
#     Edge 7, Type (0, 1), BuildingBlock: FUNLAD_clean_linker_1, # of connection points: 2
#     Edge 8, Type (0, 1), BuildingBlock: FUNLAD_clean_linker_1, # of connection points: 2
#     Edge 9, Type (0, 1), BuildingBlock: FUNLAD_clean_linker_1, # of connection points: 2
#     Edge 10, Type (0, 1), BuildingBlock: FUNLAD_clean_linker_1, # of connection points: 2
#     Edge 11, Type (0, 1), BuildingBlock: FUNLAD_clean_linker_1, # of connection points: 2
#     Edge 12, Type (0, 1), BuildingBlock: FUNLAD_clean_linker_1, # of connection points: 2
#     Edge 13, Type (0, 1), BuildingBlock: FUNLAD_clean_linker_1, # of connection points: 2
#     Edge 14, Type (0, 1), BuildingBlock: FUNLAD_clean_linker_1, # of connection points: 2
#     Edge 15, Type (0, 1), BuildingBlock: FUNLAD_clean_linker_1, # of connection points: 2
#     Edge 16, Type (0, 1), BuildingBlock: FUNLAD_clean_linker_1, # of connection points: 2
#     Edge 17, Type (0, 1), BuildingBlock: FUNLAD_clean_linker_1, # of connection points: 2
# Relax obj value: 0.091
# Max RMSD: 0.142
# Mean RMSD: 0.107
data_MOF--net-tsx--node1-CIFDUS_clean_sbu_1--node2-BETDAH_clean_linker_0--edge1-FUNLAD_clean_linker_1
_symmetry_space_group_name_H-M    P1
_symmetry_Int_Tables_number       1
_symmetry_cell_setting            triclinic
loop_
_symmetry_equiv_pos_as_xyz
'x, y, z'
_cell_length_a     18.28712
_cell_length_b     24.178934
_cell_length_c     35.261409
_cell_angle_alpha  96.781154
_cell_angle_beta   104.09136
_cell_angle_gamma 91.313994
loop_
_atom_site_label
_atom_site_type_symbol
_atom_site_fract_x
_atom_site_fract_y
_atom_site_fract_z
_atom_type_partial_charge
O0 O 1.02384 0.12065 0.01585 0.0
Mn1 Mn 0.0847 0.04734 0.01677 0.0
O2 O 0.91015 0.09727 0.97313 0.0
Mn3 Mn 0.93269 0.0284 0.95068 0.0
O4 O 0.14167 0.97292 0.01504 0.0
O5 O 0.18221 0.09268 0.04383 0.0
Mn6 Mn 0.23068 0.05519 0.08205 0.0
O7 O 0.06218 0.03609 0.07104 0.0
O8 O 0.25424 0.98754 0.05865 0.0
O9 O 0.10424 0.05775 0.96196 0.0
O10 O 0.99492 0.03213 0.91627 0.0
O11 O 0.2912 0.1175 0.08494 0.0
O12 O 0.1714 0.05129 0.1174 0.0
C13 C 0.9449 0.96022 0.98682 0.0
C14 C 0.95603 0.13211 0.99853 0.0
C15 C 0.20723 0.95701 0.03124 0.0
C16 C 0.23922 0.12893 0.05511 0.0
C17 C 0.10032 0.04051 0.10713 0.0
C18 C 0.06497 0.0481 0.92598 0.0
O19 O 0.99088 0.00222 0.9908 0.0
O20 O 0.88665 0.96123 0.95759 0.0
O21 O 0.56234 0.57832 0.51781 0.0
Mn22 Mn 0.61804 0.50281 0.51586 0.0
O23 O 0.44211 0.55791 0.48229 0.0
Mn24 Mn 0.45553 0.48676 0.45987 0.0
O25 O 0.67064 0.42633 0.51145 0.0
O26 O 0.71828 0.54606 0.53518 0.0
Mn27 Mn 0.77982 0.50927 0.56915 0.0
O28 O 0.61391 0.49685 0.57418 0.0
O29 O 0.79354 0.44204 0.54187 0.0
O30 O 0.62185 0.50914 0.45765 0.0
O31 O 0.50485 0.4842 0.41941 0.0
O32 O 0.83351 0.57318 0.56594 0.0
O33 O 0.73447 0.50476 0.61051 0.0
C34 C 0.47133 0.41958 0.49634 0.0
C35 C 0.49391 0.59207 0.50424 0.0
C36 C 0.73881 0.41059 0.52038 0.0
C37 C 0.77192 0.58427 0.54153 0.0
C38 C 0.66361 0.49916 0.60729 0.0
C39 C 0.5745 0.49812 0.42377 0.0
O40 O 0.51971 0.45933 0.4975 0.0
O41 O 0.40823 0.42331 0.47071 0.0
H42 H 0.16777 0.90587 0.38745 0.0
H43 H 0.97817 0.00743 0.39041 0.0
H44 H 0.06172 0.90873 0.4837 0.0
C45 C 0.12567 0.92186 0.40225 0.0
C46 C 0.12267 0.90428 0.43844 0.0
C47 C 0.07228 0.95752 0.38387 0.0
C48 C 1.01776 0.97823 0.40332 0.0
C49 C 1.0144 0.96109 0.43969 0.0
C50 C 0.06562 0.92304 0.4563 0.0
N51 N 0.96012 0.98069 0.46026 0.0
C52 C 0.9134 0.02429 0.45066 0.0
H53 H 1.00759 0.96305 0.62723 0.0
H54 H 0.21652 0.05933 0.64379 0.0
H55 H 0.146 0.93123 0.54529 0.0
C56 C 0.05651 0.97388 0.61682 0.0
C57 C 0.06792 0.94417 0.5822 0.0
C58 C 0.11107 0.01378 0.64019 0.0
C59 C 0.17494 0.02751 0.62679 0.0
C60 C 0.18676 -0.00173 0.59204 0.0
C61 C 0.13472 0.95531 0.57093 0.0
N62 N 0.25219 0.0094 0.57868 0.0
C63 C 0.2837 0.06293 0.58075 0.0
H64 H 0.62083 0.43781 0.87744 0.0
H65 H 0.43934 0.54749 0.88126 0.0
H66 H 0.51755 0.44742 0.97472 0.0
C67 C 0.57919 0.45536 0.89189 0.0
C68 C 0.57583 0.439 0.92835 0.0
C69 C 0.52817 0.49306 0.8739 0.0
C70 C 0.47746 0.51746 0.89443 0.0
C71 C 0.47397 0.5015 0.93114 0.0
C72 C 0.52158 0.46094 0.94708 0.0
N73 N 0.42269 0.52435 0.95256 0.0
C74 C 0.38191 0.57142 0.94462 0.0
H75 H 0.5869 0.45126 0.15574 0.0
H76 H 0.73017 0.58742 0.14167 0.0
H77 H 0.59307 0.48497 0.03993 0.0
C78 C 0.60721 0.47732 0.13708 0.0
C79 C 0.58137 0.46437 0.09614 0.0
C80 C 0.65932 0.52263 0.15395 0.0
C81 C 0.68851 0.55345 0.12898 0.0
C82 C 0.66433 0.53986 0.08769 0.0
C83 C 0.61051 0.4957 0.07162 0.0
N84 N 0.69409 0.56826 0.06125 0.0
C85 C 0.73604 0.61892 0.07085 0.0
H86 H 0.20726 0.1871 0.00956 0.0
C87 C 0.24881 0.17894 0.03579 0.0
H88 H 0.35289 0.20304 0.07658 0.0
H89 H 0.54704 0.34571 0.01103 0.0
H90 H 0.59345 0.25589 0.99141 0.0
H91 H 0.5202 0.16834 0.99035 0.0
H92 H 0.4001 0.17023 0.00889 0.0
C93 C 0.31124 0.21304 0.05092 0.0
C94 C 0.3338 0.26246 0.03412 0.0
C95 C 0.40202 0.26093 0.0218 0.0
C96 C 0.44427 0.3112 0.02247 0.0
C97 C 0.51347 0.30842 0.01133 0.0
C98 C 0.5404 0.25726 0.9999 0.0
C99 C 0.49915 0.20799 0.99932 0.0
C100 C 0.43073 0.20955 0.01017 0.0
H101 H 0.53204 0.38082 0.09756 0.0
C102 C 0.52763 0.4155 0.0802 0.0
H103 H 0.46101 0.44873 0.03095 0.0
H104 H 0.19768 0.28054 0.05111 0.0
H105 H 0.14759 0.37061 0.06598 0.0
H106 H 0.22014 0.45801 0.06607 0.0
H107 H 0.34363 0.45589 0.05156 0.0
C108 C 0.47119 0.41319 0.04732 0.0
C109 C 0.418 0.36296 0.03531 0.0
C110 C 0.34471 0.36499 0.04196 0.0
C111 C 0.30259 0.31451 0.04162 0.0
C112 C 0.23164 0.31758 0.05082 0.0
C113 C 0.20231 0.36899 0.05932 0.0
C114 C 0.24318 0.41823 0.05937 0.0
C115 C 0.31385 0.4165 0.05104 0.0
H116 H 0.28925 0.89193 0.03122 0.0
C117 C 0.23148 0.90161 0.0181 0.0
H118 H 0.12797 0.87013 0.97885 0.0
H119 H 0.39993 0.71605 0.93088 0.0
H120 H 0.42669 0.79568 0.89985 0.0
H121 H 0.35602 0.88089 0.90437 0.0
H122 H 0.25888 0.88721 0.94074 0.0
C123 C 0.18681 0.8629 0.9915 0.0
C124 C 0.21674 0.80765 0.98121 0.0
C125 C 0.27071 0.80337 0.95829 0.0
C126 C 0.30924 0.75323 0.95432 0.0
C127 C 0.36668 0.75196 0.93363 0.0
C128 C 0.38303 0.79763 0.91583 0.0
C129 C 0.34342 0.84569 0.91848 0.0
C130 C 0.28807 0.84884 0.93955 0.0
H131 H 0.30696 0.6285 0.91177 0.0
C132 C 0.33887 0.62089 0.94077 0.0
H133 H 0.36772 0.64641 1.00184 0.0
H134 H 0.11129 0.80044 0.02381 0.0
H135 H 0.07836 0.71915 0.05178 0.0
H136 H 0.13985 0.63066 0.04212 0.0
H137 H 0.23637 0.62328 1.00541 0.0
C138 C 0.33765 0.65624 0.973 0.0
C139 C 0.29131 0.7065 0.97199 0.0
C140 C 0.23323 0.70971 0.99247 0.0
C141 C 0.1963 0.76036 0.99726 0.0
C142 C 0.14063 0.76286 0.01907 0.0
C143 C 0.12104 0.71649 0.03518 0.0
C144 C 0.15582 0.6667 0.02982 0.0
C145 C 0.21132 0.66311 0.0088 0.0
H146 H 1.00784 0.91605 0.03557 0.0
C147 C 0.95615 0.91539 0.01243 0.0
H148 H 0.85212 0.87304 0.98315 0.0
H149 H 0.90389 0.63222 0.01663 0.0
H150 H 0.94653 0.62698 0.95654 0.0
H151 H 0.97445 0.71245 0.9296 0.0
H152 H 0.95946 0.80392 0.96276 0.0
C153 C 0.90282 0.87406 1.00699 0.0
C154 C 0.91087 0.82574 0.0299 0.0
C155 C 0.92169 0.77271 0.01097 0.0
C156 C 0.90657 0.72355 0.02691 0.0
C157 C 0.91514 0.67109 1.0063 0.0
C158 C 0.93955 0.66742 0.97164 0.0
C159 C 0.95512 0.71553 0.95641 0.0
C160 C 0.946 0.76767 0.97561 0.0
H161 H 0.73977 0.70817 0.06808 0.0
C162 C 0.77439 0.67252 0.0729 0.0
H163 H 0.88112 0.64012 0.07638 0.0
H164 H 0.89922 0.92137 0.07739 0.0
H165 H 0.86995 0.92749 0.14133 0.0
H166 H 0.84768 0.84236 0.17012 0.0
H167 H 0.85423 0.75042 0.135 0.0
C168 C 0.84799 0.67681 0.07336 0.0
C169 C 0.88072 0.72775 0.06195 0.0
C170 C 0.87952 0.78106 0.08347 0.0
C171 C 0.89395 0.83019 0.06723 0.0
C172 C 0.88918 0.88283 0.0885 0.0
C173 C 0.87245 0.88689 0.1252 0.0
C174 C 0.85983 0.83893 0.1414 0.0
C175 C 0.86334 0.7865 0.12092 0.0
H176 H 0.97274 0.22356 0.01816 0.0
C177 C 0.9308 0.18976 1.00493 0.0
H178 H 0.81601 0.16734 0.97741 0.0
H179 H 0.6895 0.40115 0.02319 0.0
H180 H 0.68852 0.36383 0.08397 0.0
H181 H 0.75225 0.27757 0.09979 0.0
H182 H 0.81912 0.22881 0.0552 0.0
C183 C 0.8581 0.20117 0.99024 0.0
C184 C 0.83203 0.25837 0.98484 0.0
C185 C 0.79223 0.28592 0.01069 0.0
C186 C 0.75293 0.33453 1.00079 0.0
C187 C 0.71708 0.36266 0.02827 0.0
C188 C 0.71676 0.34199 0.06348 0.0
C189 C 0.75276 0.29345 0.07241 0.0
C190 C 0.79052 0.26573 0.04653 0.0
H191 H 0.60019 0.36153 0.9557 0.0
C192 C 0.6259 0.39647 0.94602 0.0
H193 H 0.72649 0.43566 0.94122 0.0
H194 H 0.90873 0.21895 0.93046 0.0
H195 H 0.90966 0.25567 0.86958 0.0
H196 H 0.83759 0.33742 0.85092 0.0
H197 H 0.76444 0.38294 0.89294 0.0
C198 C 0.70118 0.4001 0.95045 0.0
C199 C 0.75047 0.35401 0.96403 0.0
C200 C 0.79397 0.32824 0.93921 0.0
C201 C 0.83502 0.28065 0.94975 0.0
C202 C 0.87645 0.25508 0.92395 0.0
C203 C 0.87753 0.27573 0.88886 0.0
C204 C 0.83703 0.32178 0.87838 0.0
C205 C 0.79541 0.34771 0.90299 0.0
H206 H 0.70847 0.65418 0.51576 0.0
C207 C 0.76419 0.6391 0.52676 0.0
H208 H 0.88203 0.6562 0.54249 0.0
H209 H 0.93555 0.87502 0.48119 0.0
H210 H 0.93645 0.81481 0.42081 0.0
H211 H 0.88685 0.71679 0.41043 0.0
H212 H 0.8355 0.67882 0.46023 0.0
C213 C 0.82677 0.67266 0.53246 0.0
C214 C 0.82769 0.7338 0.53087 0.0
C215 C 0.85719 0.75535 0.50177 0.0
C216 C 0.88756 0.81129 0.50818 0.0
C217 C 0.91508 0.83211 0.47823 0.0
C218 C 0.91499 0.79815 0.44341 0.0
C219 C 0.887 0.74299 0.43756 0.0
C220 C 0.85822 0.72161 0.46633 0.0
H221 H 1.03905 0.85954 0.54955 0.0
C222 C 1.0149 0.89698 0.56049 0.0
H223 H 0.91536 0.93546 0.56634 0.0
H224 H 0.76001 0.70929 0.5886 0.0
H225 H 0.75291 0.77089 0.64679 0.0
H226 H 0.80805 0.8673 0.65881 0.0
H227 H 0.87055 0.90257 0.61282 0.0
C228 C 0.93963 0.89756 0.55637 0.0
C229 C 0.89051 0.845 0.54432 0.0
C230 C 0.85186 0.8258 0.57106 0.0
C231 C 0.82022 0.77006 0.56423 0.0
C232 C 0.78505 0.75106 0.59227 0.0
C233 C 0.78045 0.78607 0.62582 0.0
C234 C 0.81144 0.84035 0.63257 0.0
C235 C 0.84717 0.86011 0.60578 0.0
H236 H 0.81632 0.3439 0.51558 0.0
C237 C 0.75736 0.35387 0.5065 0.0
H238 H 0.64759 0.32182 0.47567 0.0
H239 H 0.92181 0.16343 0.42957 0.0
H240 H 0.94624 0.23891 0.3943 0.0
H241 H 0.87166 0.32271 0.39343 0.0
H242 H 0.77291 0.33173 0.42873 0.0
C243 C 0.70734 0.31422 0.4842 0.0
C244 C 0.73397 0.25765 0.47402 0.0
C245 C 0.78812 0.25116 0.45127 0.0
C246 C 0.82843 0.20151 0.45015 0.0
C247 C 0.8868 0.19872 0.43003 0.0
C248 C 0.9019 0.24209 0.40983 0.0
C249 C 0.86012 0.28936 0.40945 0.0
C250 C 0.80401 0.29415 0.42999 0.0
H251 H 0.83395 0.07493 0.41421 0.0
C252 C 0.86514 0.07063 0.44404 0.0
H253 H 0.88977 0.10174 0.50424 0.0
H254 H 0.6243 0.25305 0.51436 0.0
H255 H 0.59084 0.17452 0.5449 0.0
H256 H 0.65694 0.08693 0.54105 0.0
H257 H 0.75703 0.07738 0.50672 0.0
C258 C 0.86005 0.10809 0.47448 0.0
C259 C 0.81142 0.15701 0.47014 0.0
C260 C 0.7518 0.16158 0.48955 0.0
C261 C 0.71307 0.2119 0.49147 0.0
C262 C 0.65531 0.21575 0.51196 0.0
C263 C 0.63547 0.17096 0.52956 0.0
C264 C 0.67272 0.12166 0.5274 0.0
C265 C 0.73025 0.1168 0.50772 0.0
H266 H 0.54317 0.35957 0.52962 0.0
C267 C 0.48569 0.37186 0.51924 0.0
H268 H 0.36993 0.35446 0.5125 0.0
H269 H 0.32958 0.10201 0.49983 0.0
H270 H 0.28251 0.11684 0.43152 0.0
H271 H 0.30435 0.20781 0.40985 0.0
H272 H 0.37346 0.28439 0.45637 0.0
C273 C 0.42673 0.34117 0.52369 0.0
C274 C 0.43143 0.28398 0.53562 0.0
C275 C 0.39195 0.23923 0.50797 0.0
C276 C 0.37926 0.18686 0.52043 0.0
C277 C 0.33962 0.14301 0.49211 0.0
C278 C 0.3127 0.15082 0.45273 0.0
C279 C 0.32497 0.20202 0.44054 0.0
C280 C 0.36427 0.24576 0.46764 0.0
H281 H 0.27187 0.15013 0.57187 0.0
C282 C 0.31207 0.11779 0.57709 0.0
H283 H 0.42352 0.09454 0.57899 0.0
H284 H 0.51885 0.35801 0.59519 0.0
H285 H 0.5739 0.34047 0.66225 0.0
H286 H 0.55209 0.24931 0.68364 0.0
H287 H 0.47565 0.17466 0.63777 0.0
C288 C 0.38324 0.12695 0.57439 0.0
C289 C 0.40581 0.17924 0.5606 0.0
C290 C 0.45166 0.22199 0.58742 0.0
C291 C 0.46439 0.27464 0.57498 0.0
C292 C 0.50821 0.31712 0.60278 0.0
C293 C 0.54001 0.3076 0.64143 0.0
C294 C 0.52767 0.25626 0.6535 0.0
C295 C 0.48374 0.21386 0.62697 0.0
H296 H 0.51997 0.68352 0.52061 0.0
C297 C 0.47466 0.65136 0.51037 0.0
H298 H 0.35713 0.6336 0.48842 0.0
H299 H 0.25566 0.8761 0.53232 0.0
H300 H 0.26883 0.8476 0.59728 0.0
H301 H 0.33249 0.76178 0.61457 0.0
H302 H 0.38462 0.70448 0.56704 0.0
C303 C 0.40246 0.66578 0.49846 0.0
C304 C 0.38011 0.7235 0.49197 0.0
C305 C 0.34897 0.75607 0.51962 0.0
C306 C 0.30996 0.80457 0.50915 0.0
C307 C 0.28254 0.83755 0.53808 0.0
C308 C 0.29049 0.82195 0.57561 0.0
C309 C 0.32645 0.77367 0.58536 0.0
C310 C 0.35571 0.74103 0.55783 0.0
H311 H 0.15281 0.83117 0.47033 0.0
C312 C 0.17544 0.86336 0.45662 0.0
H313 H 0.27225 0.89783 0.44395 0.0
H314 H 0.44224 0.67493 0.43397 0.0
H315 H 0.43169 0.70414 0.36953 0.0
H316 H 0.36003 0.78581 0.3502 0.0
H317 H 0.29893 0.83883 0.39511 0.0
C318 C 0.24927 0.86481 0.45675 0.0
C319 C 0.29945 0.81917 0.47037 0.0
C320 C 0.33563 0.78888 0.44372 0.0
C321 C 0.37627 0.74127 0.45465 0.0
C322 C 0.41043 0.71118 0.42717 0.0
C323 C 0.40489 0.72752 0.39006 0.0
C324 C 0.36466 0.77354 0.37921 0.0
C325 C 0.33002 0.80381 0.40546 0.0
H326 H 1.00126 0.01796 0.12937 0.0
C327 C 0.06099 0.03074 0.13802 0.0
H328 H 0.15789 0.04964 0.18525 0.0
H329 H 1.01248 0.09548 0.32669 0.0
H330 H 1.03011 0.19087 0.31402 0.0
H331 H 0.06216 0.21055 0.25271 0.0
H332 H 0.07676 0.13494 0.20364 0.0
C333 C 0.0987 0.0354 0.17626 0.0
C334 C 0.06321 0.02335 0.20833 0.0
C335 C 0.05345 0.06788 0.23634 0.0
C336 C 1.03459 0.05656 0.27158 0.0
C337 C 1.02667 0.10184 0.2994 0.0
C338 C 1.03657 0.15674 0.29248 0.0
C339 C 0.05468 0.16782 0.25797 0.0
C340 C 0.06316 0.12409 0.23013 0.0
H341 H 0.12838 0.96519 0.33564 0.0
C342 C 0.07583 0.97181 0.3444 0.0
H343 H 0.96289 -0.00466 0.32471 0.0
H344 H 0.07281 0.92791 0.15965 0.0
H345 H 0.04903 0.83301 0.17099 0.0
H346 H 1.01204 0.81371 0.23111 0.0
H347 H 0.99982 0.88946 0.28063 0.0
C348 C 1.0172 0.98907 0.31807 0.0
C349 C 1.02595 0.00073 0.27882 0.0
C350 C 1.03019 0.9562 0.24954 0.0
C351 C 0.04961 0.96745 0.21438 0.0
C352 C 0.05709 0.92199 0.18658 0.0
C353 C 1.04378 0.86721 0.19277 0.0
C354 C 1.02298 0.85634 0.22663 0.0
C355 C 1.01634 0.90014 0.25483 0.0
H356 H 0.16291 0.06709 0.90199 0.0
C357 C 0.10283 0.05551 0.89416 0.0
H358 H 1.00412 0.03786 0.84794 0.0
H359 H 0.09816 0.14626 0.7146 0.0
H360 H 1.01966 0.21758 0.73552 0.0
H361 H 0.97802 0.21497 0.79684 0.0
H362 H 1.01485 0.14124 0.8377 0.0
C363 C 0.06469 0.04746 0.85597 0.0
C364 C 0.10069 0.05391 0.82305 0.0
C365 C 0.07897 0.09734 0.79957 0.0
C366 C 0.10231 0.09857 0.76403 0.0
C367 C 0.08044 0.14275 0.74139 0.0
C368 C 1.03587 0.1841 0.7532 0.0
C369 C 1.01246 0.18265 0.78773 0.0
C370 C 1.03371 0.13996 0.81081 0.0
H371 H 1.04486 0.03344 0.68428 0.0
C372 C 0.10147 0.03635 0.67965 0.0
H373 H 0.21735 0.04999 0.70844 0.0
H374 H 0.15522 0.96567 0.86192 0.0
H375 H 0.23688 0.89667 0.84213 0.0
H376 H 0.27903 0.89973 0.78104 0.0
H377 H 0.2393 0.97169 0.73932 0.0
C378 C 0.15963 0.05071 0.71134 0.0
C379 C 0.14661 0.05596 0.75175 0.0
C380 C 0.1728 0.01474 0.77664 0.0
C381 C 0.14924 0.01336 0.81217 0.0
C382 C 0.17264 0.96973 0.83518 0.0
C383 C 0.21933 0.92953 0.82405 0.0
C384 C 0.24298 0.93122 0.78964 0.0
C385 C 0.21981 0.97294 0.76598 0.0
H386 H 0.6844 0.4878 0.66971 0.0
C387 C 0.6404 0.49546 0.64421 0.0
H388 H 0.52552 0.51245 0.62399 0.0
H389 H 0.4424 0.40509 0.76632 0.0
H390 H 0.36287 0.34847 0.70904 0.0
H391 H 0.36923 0.36318 0.64184 0.0
H392 H 0.45547 0.43435 0.63148 0.0
C393 C 0.57075 0.50486 0.64889 0.0
C394 C 0.55502 0.50398 0.68855 0.0
C395 C 0.50303 0.46324 0.69408 0.0
C396 C 0.4994 0.45482 0.7329 0.0
C397 C 0.448 0.41294 0.73754 0.0
C398 C 0.40177 0.38032 0.70492 0.0
C399 C 0.40525 0.38866 0.66708 0.0
C400 C 0.45522 0.42954 0.66155 0.0
H401 H 0.50343 0.54689 0.82587 0.0
C402 C 0.52668 0.50765 0.8338 0.0
H403 H 0.56717 0.43199 0.81242 0.0
H404 H 0.64322 0.59647 0.68771 0.0
H405 H 0.72214 0.65417 0.74463 0.0
H406 H 0.72463 0.63473 0.81205 0.0
H407 H 0.64702 0.55873 0.82298 0.0
C408 C 0.54998 0.47343 0.80653 0.0
C409 C 0.54701 0.48773 0.76616 0.0
C410 C 0.59517 0.53124 0.76047 0.0
C411 C 0.59729 0.54039 0.72159 0.0
C412 C 0.64256 0.58598 0.71662 0.0
C413 C 0.68758 0.6197 0.74902 0.0
C414 C 0.68871 0.6089 0.78696 0.0
C415 C 0.64334 0.56522 0.79281 0.0
H416 H 0.5603 0.48441 0.35972 0.0
C417 C 0.59949 0.5015 0.38735 0.0
H418 H 0.70388 0.54707 0.41278 0.0
H419 H 0.70929 0.43366 0.231 0.0
H420 H 0.75027 0.35243 0.26351 0.0
H421 H 0.76088 0.35308 0.33472 0.0
H422 H 0.73037 0.43507 0.37387 0.0
C423 C 0.66479 0.52697 0.38611 0.0
C424 C 0.67992 0.53197 0.34699 0.0
C425 C 0.70025 0.48467 0.32489 0.0
C426 C 0.69463 0.4845 0.28395 0.0
C427 C 0.71262 0.43592 0.26221 0.0
C428 C 0.73635 0.38914 0.28053 0.0
C429 C 0.74231 0.38949 0.32063 0.0
C430 C 0.72439 0.43659 0.3427 0.0
H431 H 0.74279 0.5545 0.21022 0.0
C432 C 0.68597 0.53617 0.1976 0.0
H433 H 0.58357 0.51032 0.20966 0.0
H434 H 0.65163 0.63274 0.38283 0.0
H435 H 0.6167 0.71572 0.35112 0.0
H436 H 0.60628 0.71535 0.27996 0.0
H437 H 0.63087 0.63199 0.23999 0.0
C438 C 0.64179 0.5258 0.2217 0.0
C439 C 0.66915 0.53182 0.26536 0.0
C440 C 0.65661 0.5811 0.28836 0.0
C441 C 0.66248 0.58128 0.32936 0.0
C442 C 0.64759 0.63051 0.35154 0.0
C443 C 0.62771 0.67833 0.33373 0.0
C444 C 0.62183 0.67811 0.29363 0.0
C445 C 0.63586 0.63009 0.27103 0.0
loop_
_geom_bond_atom_site_label_1
_geom_bond_atom_site_label_2
_geom_bond_distance
_geom_bond_site_symmetry_2
_ccdc_geom_bond_type
O0 Mn1 2.162 1_554 S
O0 C14 1.244 1_454 S
Mn1 O0 2.162 1_556 S
Mn1 O4 2.161 1_545 S
Mn1 O5 2.221 1_556 S
Mn1 O7 2.141 1_556 S
Mn1 O9 2.181 . S
Mn1 O19 2.223 1_445 S
O2 Mn3 2.087 1_545 S
O2 C14 1.256 . S
Mn3 O2 2.087 1_565 S
Mn3 O10 2.089 1_565 S
Mn3 O19 2.290 . S
Mn3 O20 2.251 . S
O4 Mn1 2.161 1_565 S
O4 C15 1.239 1_556 S
O5 Mn1 2.221 1_554 S
O5 Mn6 2.290 . S
O5 C16 1.278 . S
Mn6 O5 2.290 . S
Mn6 O8 2.089 1_545 S
Mn6 O11 2.251 . S
Mn6 O12 2.087 . S
O7 Mn1 2.141 1_554 S
O7 C17 1.244 . S
O8 Mn6 2.089 1_565 S
O8 C15 1.256 . S
O9 Mn1 2.181 . S
O9 C18 1.239 . S
O10 Mn3 2.089 1_545 S
O10 C18 1.256 1_655 S
O11 Mn6 2.251 . S
O11 C16 1.241 . S
O12 Mn6 2.087 . S
O12 C17 1.256 . S
C13 O19 1.278 . S
C13 O20 1.241 . S
C14 O0 1.244 1_656 S
C14 O2 1.256 . S
C15 O4 1.239 1_554 S
C15 O8 1.256 . S
C16 O5 1.278 . S
C16 O11 1.241 . S
C17 O7 1.244 . S
C17 O12 1.256 . S
C18 O9 1.239 . S
C18 O10 1.256 1_455 S
O19 Mn1 2.223 1_665 S
O19 Mn3 2.290 . S
O19 C13 1.278 . S
O20 Mn3 2.251 . S
O20 C13 1.241 . S
O21 Mn22 2.163 . S
O21 C35 1.244 . S
Mn22 O21 2.163 . S
Mn22 O25 2.160 . S
Mn22 O26 2.221 . S
Mn22 O28 2.163 . S
Mn22 O30 2.160 . S
Mn22 O40 2.221 . S
O23 Mn24 2.087 . S
O23 C35 1.256 . S
Mn24 O23 2.087 . S
Mn24 O31 2.089 . S
Mn24 O40 2.290 . S
Mn24 O41 2.251 . S
O25 Mn22 2.160 . S
O25 C36 1.239 . S
O26 Mn22 2.221 . S
O26 Mn27 2.290 . S
O26 C37 1.278 . S
Mn27 O26 2.290 . S
Mn27 O29 2.089 . S
Mn27 O32 2.251 . S
Mn27 O33 2.087 . S
O28 Mn22 2.163 . S
O28 C38 1.244 . S
O29 Mn27 2.089 . S
O29 C36 1.256 . S
O30 Mn22 2.160 . S
O30 C39 1.239 . S
O31 Mn24 2.089 . S
O31 C39 1.256 . S
O32 Mn27 2.251 . S
O32 C37 1.241 . S
O33 Mn27 2.087 . S
O33 C38 1.256 . S
C34 O40 1.278 . S
C34 O41 1.241 . S
C35 O21 1.244 . S
C35 O23 1.256 . S
C36 O25 1.239 . S
C36 O29 1.256 . S
C37 O26 1.278 . S
C37 O32 1.241 . S
C38 O28 1.244 . S
C38 O33 1.256 . S
C39 O30 1.239 . S
C39 O31 1.256 . S
O40 Mn22 2.221 . S
O40 Mn24 2.290 . S
O40 C34 1.278 . S
O41 Mn24 2.251 . S
O41 C34 1.241 . S
H42 C45 0.929 . S
H43 C48 0.929 . S
H44 C50 0.930 . S
C45 H42 0.929 . S
C45 C46 1.398 . S
C45 C47 1.396 . S
C46 C45 1.398 . S
C46 C50 1.407 . S
C47 C45 1.396 . S
C47 C48 1.394 1_565 S
C48 H43 0.929 . S
C48 C47 1.394 1_545 S
C48 C49 1.382 . S
C49 C48 1.382 . S
C49 C50 1.392 1_545 S
C49 N51 1.420 1_455 S
C50 H44 0.930 . S
C50 C46 1.407 . S
C50 C49 1.392 1_565 S
N51 C49 1.420 1_655 S
N51 C52 1.244 . S
C52 N51 1.244 . S
H53 C56 0.929 1_565 S
H54 C59 0.929 . S
H55 C61 0.930 . S
C56 H53 0.929 1_545 S
C56 C57 1.398 1_545 S
C56 C58 1.396 . S
C57 C56 1.398 1_565 S
C57 C61 1.407 1_565 S
C58 C56 1.396 . S
C58 C59 1.394 1_655 S
C59 H54 0.929 . S
C59 C58 1.394 1_455 S
C59 C60 1.382 . S
C60 C59 1.382 . S
C60 C61 1.392 1_455 S
C60 N62 1.420 . S
C61 H55 0.930 . S
C61 C57 1.407 1_545 S
C61 C60 1.392 1_655 S
N62 C60 1.420 . S
N62 C63 1.244 . S
C63 N62 1.244 . S
H64 C67 0.929 . S
H65 C70 0.929 . S
H66 C72 0.930 . S
C67 H64 0.929 . S
C67 C68 1.398 . S
C67 C69 1.396 . S
C68 C67 1.398 . S
C68 C72 1.407 . S
C69 C67 1.396 . S
C69 C70 1.394 . S
C70 H65 0.929 . S
C70 C69 1.394 . S
C70 C71 1.382 . S
C71 C70 1.382 . S
C71 C72 1.392 . S
C71 N73 1.420 . S
C72 H66 0.930 . S
C72 C68 1.407 . S
C72 C71 1.392 . S
N73 C71 1.420 . S
N73 C74 1.244 . S
C74 N73 1.244 . S
H75 C78 0.929 . S
H76 C81 0.929 . S
H77 C83 0.930 . S
C78 H75 0.929 . S
C78 C79 1.398 . S
C78 C80 1.396 . S
C79 C78 1.398 . S
C79 C83 1.407 . S
C80 C78 1.396 . S
C80 C81 1.394 . S
C81 H76 0.929 . S
C81 C80 1.394 . S
C81 C82 1.382 . S
C82 C81 1.382 . S
C82 C83 1.392 . S
C82 N84 1.420 . S
C83 H77 0.930 . S
C83 C79 1.407 . S
C83 C82 1.392 . S
N84 C82 1.420 . S
N84 C85 1.244 . S
C85 N84 1.244 . S
H86 C87 0.951 . S
C87 H86 0.951 . S
C87 C93 1.265 . S
H88 C93 0.950 . S
H89 C97 0.949 . S
H90 C98 0.950 . S
H91 C99 0.951 . S
H92 C100 0.951 . S
C93 C87 1.265 . S
C93 H88 0.950 . S
C93 C94 1.478 . S
C94 C93 1.478 . S
C94 C95 1.397 . S
C94 C111 1.394 1_554 S
C95 C94 1.397 . S
C95 C96 1.438 . S
C95 C100 1.429 . S
C96 C95 1.438 . S
C96 C97 1.428 . S
C96 C109 1.394 . S
C97 H89 0.949 . S
C97 C96 1.428 . S
C97 C98 1.345 . S
C98 H90 0.950 . S
C98 C97 1.345 . S
C98 C99 1.424 . S
C99 H91 0.951 . S
C99 C98 1.424 . S
C99 C100 1.347 . S
C100 H92 0.951 . S
C100 C95 1.429 . S
C100 C99 1.347 . S
H101 C102 0.951 . S
C102 H101 0.951 . S
C102 C108 1.265 . S
H103 C108 0.950 . S
H104 C112 0.949 . S
H105 C113 0.950 . S
H106 C114 0.951 . S
H107 C115 0.951 . S
C108 C102 1.265 . S
C108 H103 0.950 . S
C108 C109 1.478 . S
C109 C96 1.394 . S
C109 C108 1.478 . S
C109 C110 1.397 . S
C110 C109 1.397 . S
C110 C111 1.438 1_554 S
C110 C115 1.429 1_554 S
C111 C94 1.394 1_556 S
C111 C110 1.438 1_556 S
C111 C112 1.428 . S
C112 H104 0.949 . S
C112 C111 1.428 . S
C112 C113 1.345 . S
C113 H105 0.950 . S
C113 C112 1.345 . S
C113 C114 1.424 . S
C114 H106 0.951 . S
C114 C113 1.424 . S
C114 C115 1.347 . S
C115 H107 0.951 . S
C115 C110 1.429 1_556 S
C115 C114 1.347 . S
H116 C117 0.951 . S
C117 H116 0.951 . S
C117 C123 1.264 1_554 S
H118 C123 0.950 . S
H119 C127 0.949 . S
H120 C128 0.950 . S
H121 C129 0.951 . S
H122 C130 0.951 . S
C123 C117 1.264 1_556 S
C123 H118 0.950 . S
C123 C124 1.479 . S
C124 C123 1.479 . S
C124 C125 1.397 . S
C124 C141 1.394 1_556 S
C125 C124 1.397 . S
C125 C126 1.438 . S
C125 C130 1.429 . S
C126 C125 1.438 . S
C126 C127 1.428 . S
C126 C139 1.394 . S
C127 H119 0.949 . S
C127 C126 1.428 . S
C127 C128 1.345 . S
C128 H120 0.950 . S
C128 C127 1.345 . S
C128 C129 1.424 . S
C129 H121 0.951 . S
C129 C128 1.424 . S
C129 C130 1.347 . S
C130 H122 0.951 . S
C130 C125 1.429 . S
C130 C129 1.347 . S
H131 C132 0.951 . S
C132 H131 0.951 . S
C132 C138 1.265 . S
H133 C138 0.950 . S
H134 C142 0.949 . S
H135 C143 0.950 . S
H136 C144 0.951 . S
H137 C145 0.951 . S
C138 C132 1.265 . S
C138 H133 0.950 . S
C138 C139 1.478 . S
C139 C126 1.394 . S
C139 C138 1.478 . S
C139 C140 1.397 1_556 S
C140 C139 1.397 1_554 S
C140 C141 1.438 . S
C140 C145 1.429 . S
C141 C124 1.394 1_554 S
C141 C140 1.438 . S
C141 C142 1.428 . S
C142 H134 0.949 . S
C142 C141 1.428 . S
C142 C143 1.345 . S
C143 H135 0.950 . S
C143 C142 1.345 . S
C143 C144 1.424 . S
C144 H136 0.951 . S
C144 C143 1.424 . S
C144 C145 1.347 . S
C145 H137 0.951 . S
C145 C140 1.429 . S
C145 C144 1.347 . S
H146 C147 0.951 . S
C147 H146 0.951 . S
C147 C153 1.265 . S
H148 C153 0.958 . S
H149 C157 0.949 . S
H150 C158 0.950 . S
H151 C159 0.951 . S
H152 C160 0.951 . S
C153 C147 1.265 . S
C153 H148 0.958 . S
C153 C154 1.478 . S
C154 C153 1.478 . S
C154 C155 1.397 1_554 S
C154 C171 1.394 . S
C155 C154 1.397 1_556 S
C155 C156 1.438 . S
C155 C160 1.429 . S
C156 C155 1.438 . S
C156 C157 1.428 . S
C156 C169 1.394 1_556 S
C157 H149 0.949 . S
C157 C156 1.428 . S
C157 C158 1.345 . S
C158 H150 0.950 . S
C158 C157 1.345 . S
C158 C159 1.424 . S
C159 H151 0.951 . S
C159 C158 1.424 . S
C159 C160 1.347 . S
C160 H152 0.951 . S
C160 C155 1.429 . S
C160 C159 1.347 . S
H161 C162 0.951 . S
C162 H161 0.951 . S
C162 C168 1.265 . S
H163 C168 0.950 . S
H164 C172 0.949 . S
H165 C173 0.950 . S
H166 C174 0.951 . S
H167 C175 0.951 . S
C168 C162 1.265 . S
C168 H163 0.950 . S
C168 C169 1.478 . S
C169 C156 1.394 1_554 S
C169 C168 1.478 . S
C169 C170 1.397 . S
C170 C169 1.397 . S
C170 C171 1.438 . S
C170 C175 1.429 . S
C171 C154 1.394 . S
C171 C170 1.438 . S
C171 C172 1.428 . S
C172 H164 0.949 . S
C172 C171 1.428 . S
C172 C173 1.345 . S
C173 H165 0.950 . S
C173 C172 1.345 . S
C173 C174 1.424 . S
C174 H166 0.951 . S
C174 C173 1.424 . S
C174 C175 1.347 . S
C175 H167 0.951 . S
C175 C170 1.429 . S
C175 C174 1.347 . S
H176 C177 0.951 . S
C177 H176 0.951 . S
C177 C183 1.265 . S
H178 C183 0.950 . S
H179 C187 0.949 . S
H180 C188 0.950 . S
H181 C189 0.951 . S
H182 C190 0.951 . S
C183 C177 1.265 . S
C183 H178 0.950 . S
C183 C184 1.478 . S
C184 C183 1.478 . S
C184 C185 1.397 1_556 S
C184 C201 1.394 . S
C185 C184 1.397 1_554 S
C185 C186 1.438 . S
C185 C190 1.429 . S
C186 C185 1.438 . S
C186 C187 1.428 . S
C186 C199 1.394 1_554 S
C187 H179 0.949 . S
C187 C186 1.428 . S
C187 C188 1.345 . S
C188 H180 0.950 . S
C188 C187 1.345 . S
C188 C189 1.424 . S
C189 H181 0.951 . S
C189 C188 1.424 . S
C189 C190 1.347 . S
C190 H182 0.951 . S
C190 C185 1.429 . S
C190 C189 1.347 . S
H191 C192 0.951 . S
C192 H191 0.951 . S
C192 C198 1.265 . S
H193 C198 0.950 . S
H194 C202 0.949 . S
H195 C203 0.950 . S
H196 C204 0.951 . S
H197 C205 0.951 . S
C198 C192 1.265 . S
C198 H193 0.950 . S
C198 C199 1.478 . S
C199 C186 1.394 1_556 S
C199 C198 1.478 . S
C199 C200 1.397 . S
C200 C199 1.397 . S
C200 C201 1.438 . S
C200 C205 1.429 . S
C201 C184 1.394 . S
C201 C200 1.438 . S
C201 C202 1.428 . S
C202 H194 0.949 . S
C202 C201 1.428 . S
C202 C203 1.345 . S
C203 H195 0.950 . S
C203 C202 1.345 . S
C203 C204 1.424 . S
C204 H196 0.951 . S
C204 C203 1.424 . S
C204 C205 1.347 . S
C205 H197 0.951 . S
C205 C200 1.429 . S
C205 C204 1.347 . S
H206 C207 0.951 . S
C207 H206 0.951 . S
C207 C213 1.265 . S
H208 C213 0.950 . S
H209 C217 0.949 . S
H210 C218 0.950 . S
H211 C219 0.951 . S
H212 C220 0.951 . S
C213 C207 1.265 . S
C213 H208 0.950 . S
C213 C214 1.478 . S
C214 C213 1.478 . S
C214 C215 1.397 . S
C214 C231 1.394 . S
C215 C214 1.397 . S
C215 C216 1.438 . S
C215 C220 1.429 . S
C216 C215 1.438 . S
C216 C217 1.428 . S
C216 C229 1.394 . S
C217 H209 0.949 . S
C217 C216 1.428 . S
C217 C218 1.345 . S
C218 H210 0.950 . S
C218 C217 1.345 . S
C218 C219 1.424 . S
C219 H211 0.951 . S
C219 C218 1.424 . S
C219 C220 1.347 . S
C220 H212 0.951 . S
C220 C215 1.429 . S
C220 C219 1.347 . S
H221 C222 0.951 . S
C222 H221 0.951 . S
C222 C228 1.265 . S
H223 C228 0.950 . S
H224 C232 0.949 . S
H225 C233 0.950 . S
H226 C234 0.951 . S
H227 C235 0.951 . S
C228 C222 1.265 . S
C228 H223 0.950 . S
C228 C229 1.478 . S
C229 C216 1.394 . S
C229 C228 1.478 . S
C229 C230 1.397 . S
C230 C229 1.397 . S
C230 C231 1.438 . S
C230 C235 1.429 . S
C231 C214 1.394 . S
C231 C230 1.438 . S
C231 C232 1.428 . S
C232 H224 0.949 . S
C232 C231 1.428 . S
C232 C233 1.345 . S
C233 H225 0.950 . S
C233 C232 1.345 . S
C233 C234 1.424 . S
C234 H226 0.951 . S
C234 C233 1.424 . S
C234 C235 1.347 . S
C235 H227 0.951 . S
C235 C230 1.429 . S
C235 C234 1.347 . S
H236 C237 0.951 . S
C237 H236 0.951 . S
C237 C243 1.265 . S
H238 C243 0.950 . S
H239 C247 0.949 . S
H240 C248 0.950 . S
H241 C249 0.951 . S
H242 C250 0.951 . S
C243 C237 1.265 . S
C243 H238 0.950 . S
C243 C244 1.478 . S
C244 C243 1.478 . S
C244 C245 1.397 . S
C244 C261 1.394 . S
C245 C244 1.397 . S
C245 C246 1.438 . S
C245 C250 1.429 . S
C246 C245 1.438 . S
C246 C247 1.428 . S
C246 C259 1.394 . S
C247 H239 0.949 . S
C247 C246 1.428 . S
C247 C248 1.345 . S
C248 H240 0.950 . S
C248 C247 1.345 . S
C248 C249 1.424 . S
C249 H241 0.951 . S
C249 C248 1.424 . S
C249 C250 1.347 . S
C250 H242 0.951 . S
C250 C245 1.429 . S
C250 C249 1.347 . S
H251 C252 0.951 . S
C252 H251 0.951 . S
C252 C258 1.265 . S
H253 C258 0.950 . S
H254 C262 0.949 . S
H255 C263 0.950 . S
H256 C264 0.951 . S
H257 C265 0.951 . S
C258 C252 1.265 . S
C258 H253 0.950 . S
C258 C259 1.478 . S
C259 C246 1.394 . S
C259 C258 1.478 . S
C259 C260 1.397 . S
C260 C259 1.397 . S
C260 C261 1.438 . S
C260 C265 1.429 . S
C261 C244 1.394 . S
C261 C260 1.438 . S
C261 C262 1.428 . S
C262 H254 0.949 . S
C262 C261 1.428 . S
C262 C263 1.345 . S
C263 H255 0.950 . S
C263 C262 1.345 . S
C263 C264 1.424 . S
C264 H256 0.951 . S
C264 C263 1.424 . S
C264 C265 1.347 . S
C265 H257 0.951 . S
C265 C260 1.429 . S
C265 C264 1.347 . S
H266 C267 0.951 . S
C267 H266 0.951 . S
C267 C273 1.265 . S
H268 C273 0.950 . S
H269 C277 0.949 . S
H270 C278 0.950 . S
H271 C279 0.951 . S
H272 C280 0.951 . S
C273 C267 1.265 . S
C273 H268 0.950 . S
C273 C274 1.478 . S
C274 C273 1.478 . S
C274 C275 1.397 . S
C274 C291 1.394 . S
C275 C274 1.397 . S
C275 C276 1.438 . S
C275 C280 1.429 . S
C276 C275 1.438 . S
C276 C277 1.428 . S
C276 C289 1.394 . S
C277 H269 0.949 . S
C277 C276 1.428 . S
C277 C278 1.345 . S
C278 H270 0.950 . S
C278 C277 1.345 . S
C278 C279 1.424 . S
C279 H271 0.951 . S
C279 C278 1.424 . S
C279 C280 1.347 . S
C280 H272 0.951 . S
C280 C275 1.429 . S
C280 C279 1.347 . S
H281 C282 0.951 . S
C282 H281 0.951 . S
C282 C288 1.265 . S
H283 C288 0.950 . S
H284 C292 0.949 . S
H285 C293 0.950 . S
H286 C294 0.951 . S
H287 C295 0.951 . S
C288 C282 1.265 . S
C288 H283 0.950 . S
C288 C289 1.478 . S
C289 C276 1.394 . S
C289 C288 1.478 . S
C289 C290 1.397 . S
C290 C289 1.397 . S
C290 C291 1.438 . S
C290 C295 1.429 . S
C291 C274 1.394 . S
C291 C290 1.438 . S
C291 C292 1.428 . S
C292 H284 0.949 . S
C292 C291 1.428 . S
C292 C293 1.345 . S
C293 H285 0.950 . S
C293 C292 1.345 . S
C293 C294 1.424 . S
C294 H286 0.951 . S
C294 C293 1.424 . S
C294 C295 1.347 . S
C295 H287 0.951 . S
C295 C290 1.429 . S
C295 C294 1.347 . S
H296 C297 0.951 . S
C297 H296 0.951 . S
C297 C303 1.265 . S
H298 C303 0.950 . S
H299 C307 0.949 . S
H300 C308 0.950 . S
H301 C309 0.951 . S
H302 C310 0.951 . S
C303 C297 1.265 . S
C303 H298 0.950 . S
C303 C304 1.478 . S
C304 C303 1.478 . S
C304 C305 1.397 . S
C304 C321 1.394 . S
C305 C304 1.397 . S
C305 C306 1.438 . S
C305 C310 1.429 . S
C306 C305 1.438 . S
C306 C307 1.428 . S
C306 C319 1.394 . S
C307 H299 0.949 . S
C307 C306 1.428 . S
C307 C308 1.345 . S
C308 H300 0.950 . S
C308 C307 1.345 . S
C308 C309 1.424 . S
C309 H301 0.951 . S
C309 C308 1.424 . S
C309 C310 1.347 . S
C310 H302 0.951 . S
C310 C305 1.429 . S
C310 C309 1.347 . S
H311 C312 0.951 . S
C312 H311 0.951 . S
C312 C318 1.265 . S
H313 C318 0.950 . S
H314 C322 0.949 . S
H315 C323 0.950 . S
H316 C324 0.951 . S
H317 C325 0.951 . S
C318 C312 1.265 . S
C318 H313 0.950 . S
C318 C319 1.478 . S
C319 C306 1.394 . S
C319 C318 1.478 . S
C319 C320 1.397 . S
C320 C319 1.397 . S
C320 C321 1.438 . S
C320 C325 1.429 . S
C321 C304 1.394 . S
C321 C320 1.438 . S
C321 C322 1.428 . S
C322 H314 0.949 . S
C322 C321 1.428 . S
C322 C323 1.345 . S
C323 H315 0.950 . S
C323 C322 1.345 . S
C323 C324 1.424 . S
C324 H316 0.951 . S
C324 C323 1.424 . S
C324 C325 1.347 . S
C325 H317 0.951 . S
C325 C320 1.429 . S
C325 C324 1.347 . S
H326 C327 0.951 1_565 S
C327 H326 0.951 1_545 S
C327 C333 1.265 . S
H328 C333 0.950 . S
H329 C337 0.949 . S
H330 C338 0.950 . S
H331 C339 0.951 . S
H332 C340 0.951 . S
C333 C327 1.265 . S
C333 H328 0.950 . S
C333 C334 1.478 . S
C334 C333 1.478 . S
C334 C335 1.396 . S
C334 C351 1.395 1_545 S
C335 C334 1.396 . S
C335 C336 1.438 . S
C335 C340 1.429 . S
C336 C335 1.438 . S
C336 C337 1.428 . S
C336 C349 1.394 1_545 S
C337 H329 0.949 . S
C337 C336 1.428 . S
C337 C338 1.345 . S
C338 H330 0.950 . S
C338 C337 1.345 . S
C338 C339 1.424 . S
C339 H331 0.951 . S
C339 C338 1.424 . S
C339 C340 1.347 . S
C340 H332 0.951 . S
C340 C335 1.429 . S
C340 C339 1.347 . S
H341 C342 0.951 . S
C342 H341 0.951 . S
C342 C348 1.265 . S
H343 C348 0.945 1_655 S
H344 C352 0.949 . S
H345 C353 0.950 1_655 S
H346 C354 0.951 . S
H347 C355 0.951 . S
C348 C342 1.265 . S
C348 H343 0.945 1_455 S
C348 C349 1.478 . S
C349 C336 1.394 1_565 S
C349 C348 1.478 . S
C349 C350 1.397 . S
C350 C349 1.397 . S
C350 C351 1.438 . S
C350 C355 1.429 . S
C351 C334 1.395 1_565 S
C351 C350 1.438 . S
C351 C352 1.428 . S
C352 H344 0.949 . S
C352 C351 1.428 . S
C352 C353 1.345 . S
C353 H345 0.950 1_455 S
C353 C352 1.345 . S
C353 C354 1.424 1_455 S
C354 H346 0.951 . S
C354 C353 1.424 1_655 S
C354 C355 1.347 1_655 S
C355 H347 0.951 . S
C355 C350 1.429 . S
C355 C354 1.347 1_455 S
H356 C357 0.951 . S
C357 H356 0.951 . S
C357 C363 1.265 1_455 S
H358 C363 0.950 . S
H359 C367 0.949 . S
H360 C368 0.950 . S
H361 C369 0.951 . S
H362 C370 0.951 . S
C363 C357 1.265 1_655 S
C363 H358 0.950 . S
C363 C364 1.478 1_655 S
C364 C363 1.478 1_455 S
C364 C365 1.397 1_455 S
C364 C381 1.394 1_545 S
C365 C364 1.397 1_655 S
C365 C366 1.439 . S
C365 C370 1.429 . S
C366 C365 1.439 . S
C366 C367 1.428 . S
C366 C379 1.393 1_655 S
C367 H359 0.949 . S
C367 C366 1.428 . S
C367 C368 1.345 . S
C368 H360 0.950 . S
C368 C367 1.345 . S
C368 C369 1.424 . S
C369 H361 0.951 . S
C369 C368 1.424 . S
C369 C370 1.347 . S
C370 H362 0.951 . S
C370 C365 1.429 . S
C370 C369 1.347 . S
H371 C372 0.951 . S
C372 H371 0.951 . S
C372 C378 1.265 1_655 S
H373 C378 0.950 . S
H374 C382 0.949 . S
H375 C383 0.950 . S
H376 C384 0.951 . S
H377 C385 0.951 . S
C378 C372 1.265 1_455 S
C378 H373 0.950 . S
C378 C379 1.478 . S
C379 C366 1.393 1_455 S
C379 C378 1.478 . S
C379 C380 1.397 1_545 S
C380 C379 1.397 1_565 S
C380 C381 1.438 . S
C380 C385 1.429 . S
C381 C364 1.394 1_565 S
C381 C380 1.438 . S
C381 C382 1.428 . S
C382 H374 0.949 . S
C382 C381 1.428 . S
C382 C383 1.345 . S
C383 H375 0.950 . S
C383 C382 1.345 . S
C383 C384 1.424 . S
C384 H376 0.951 . S
C384 C383 1.424 . S
C384 C385 1.347 . S
C385 H377 0.951 . S
C385 C380 1.429 . S
C385 C384 1.347 . S
H386 C387 0.951 . S
C387 H386 0.951 . S
C387 C393 1.265 . S
H388 C393 0.950 . S
H389 C397 0.949 . S
H390 C398 0.950 . S
H391 C399 0.951 . S
H392 C400 0.951 . S
C393 C387 1.265 . S
C393 H388 0.950 . S
C393 C394 1.478 . S
C394 C393 1.478 . S
C394 C395 1.397 . S
C394 C411 1.394 . S
C395 C394 1.397 . S
C395 C396 1.438 . S
C395 C400 1.429 . S
C396 C395 1.438 . S
C396 C397 1.428 . S
C396 C409 1.394 . S
C397 H389 0.949 . S
C397 C396 1.428 . S
C397 C398 1.345 . S
C398 H390 0.950 . S
C398 C397 1.345 . S
C398 C399 1.424 . S
C399 H391 0.951 . S
C399 C398 1.424 . S
C399 C400 1.347 . S
C400 H392 0.951 . S
C400 C395 1.429 . S
C400 C399 1.347 . S
H401 C402 0.951 . S
C402 H401 0.951 . S
C402 C408 1.265 . S
H403 C408 0.950 . S
H404 C412 0.949 . S
H405 C413 0.950 . S
H406 C414 0.951 . S
H407 C415 0.951 . S
C408 C402 1.265 . S
C408 H403 0.950 . S
C408 C409 1.478 . S
C409 C396 1.394 . S
C409 C408 1.478 . S
C409 C410 1.397 . S
C410 C409 1.397 . S
C410 C411 1.438 . S
C410 C415 1.429 . S
C411 C394 1.394 . S
C411 C410 1.438 . S
C411 C412 1.428 . S
C412 H404 0.949 . S
C412 C411 1.428 . S
C412 C413 1.345 . S
C413 H405 0.950 . S
C413 C412 1.345 . S
C413 C414 1.424 . S
C414 H406 0.951 . S
C414 C413 1.424 . S
C414 C415 1.347 . S
C415 H407 0.951 . S
C415 C410 1.429 . S
C415 C414 1.347 . S
H416 C417 0.951 . S
C417 H416 0.951 . S
C417 C423 1.265 . S
H418 C423 0.950 . S
H419 C427 0.949 . S
H420 C428 0.950 . S
H421 C429 0.951 . S
H422 C430 0.951 . S
C423 C417 1.265 . S
C423 H418 0.950 . S
C423 C424 1.478 . S
C424 C423 1.478 . S
C424 C425 1.397 . S
C424 C441 1.394 . S
C425 C424 1.397 . S
C425 C426 1.438 . S
C425 C430 1.429 . S
C426 C425 1.438 . S
C426 C427 1.428 . S
C426 C439 1.394 . S
C427 H419 0.949 . S
C427 C426 1.428 . S
C427 C428 1.345 . S
C428 H420 0.950 . S
C428 C427 1.345 . S
C428 C429 1.424 . S
C429 H421 0.951 . S
C429 C428 1.424 . S
C429 C430 1.347 . S
C430 H422 0.951 . S
C430 C425 1.429 . S
C430 C429 1.347 . S
H431 C432 0.951 . S
C432 H431 0.951 . S
C432 C438 1.265 . S
H433 C438 0.950 . S
H434 C442 0.949 . S
H435 C443 0.950 . S
H436 C444 0.951 . S
H437 C445 0.951 . S
C438 C432 1.265 . S
C438 H433 0.950 . S
C438 C439 1.478 . S
C439 C426 1.394 . S
C439 C438 1.478 . S
C439 C440 1.397 . S
C440 C439 1.397 . S
C440 C441 1.438 . S
C440 C445 1.429 . S
C441 C424 1.394 . S
C441 C440 1.438 . S
C441 C442 1.428 . S
C442 H434 0.949 . S
C442 C441 1.428 . S
C442 C443 1.345 . S
C443 H435 0.950 . S
C443 C442 1.345 . S
C443 C444 1.424 . S
C444 H436 0.951 . S
C444 C443 1.424 . S
C444 C445 1.347 . S
C445 H437 0.951 . S
C445 C440 1.429 . S
C445 C444 1.347 . S
C102 C79 1.458 . S
C87 C16 1.246 . S
C117 C15 1.377 . S
C132 C74 1.403 . S
C147 C13 1.339 1_554 S
C162 C85 1.426 . S
C177 C14 1.452 . S
C192 C68 1.440 . S
C207 C37 1.363 . S
C222 C57 1.419 . S
C237 C36 1.384 . S
C252 C52 1.367 . S
C282 C63 1.384 . S
C267 C34 1.254 . S
C312 C46 1.452 . S
C297 C35 1.440 . S
C327 C17 1.595 . S
C342 C47 1.601 . S
C357 C18 1.424 . S
C372 C58 1.407 . S
C402 C69 1.608 . S
C387 C38 1.537 . S
C417 C39 1.337 . S
C432 C80 1.414 . S
