# Generated by pormake.
# Topology hwx, (6,3)-cn, num edge types: 1
# Building blocks:
#     Node 0, Type 0, BuildingBlock: OJICUG_clean_sbu_0, # of connection points: 6
#     Node 1, Type 0, BuildingBlock: OJICUG_clean_sbu_0, # of connection points: 6
#     Node 2, Type 0, BuildingBlock: OJICUG_clean_sbu_0, # of connection points: 6
#     Node 3, Type 0, BuildingBlock: OJICUG_clean_sbu_0, # of connection points: 6
#     Node 4, Type 1, BuildingBlock: PAMTOO_clean_linker_0, # of connection points: 3
#     Node 5, Type 1, BuildingBlock: PAMTOO_clean_linker_0, # of connection points: 3
#     Node 6, Type 1, BuildingBlock: PAMTOO_clean_linker_0, # of connection points: 3
#     Node 7, Type 1, BuildingBlock: PAMTOO_clean_linker_0, # of connection points: 3
#     Node 8, Type 1, BuildingBlock: PAMTOO_clean_linker_0, # of connection points: 3
#     Node 9, Type 1, BuildingBlock: PAMTOO_clean_linker_0, # of connection points: 3
#     Node 10, Type 1, BuildingBlock: PAMTOO_clean_linker_0, # of connection points: 3
#     Node 11, Type 1, BuildingBlock: PAMTOO_clean_linker_0, # of connection points: 3
#     Edge 12, Type (0, 1), BuildingBlock: MIFKUJ_clean_linker_0, # of connection points: 2
#     Edge 13, Type (0, 1), BuildingBlock: MIFKUJ_clean_linker_0, # of connection points: 2
#     Edge 14, Type (0, 1), BuildingBlock: MIFKUJ_clean_linker_0, # of connection points: 2
#     Edge 15, Type (0, 1), BuildingBlock: MIFKUJ_clean_linker_0, # of connection points: 2
#     Edge 16, Type (0, 1), BuildingBlock: MIFKUJ_clean_linker_0, # of connection points: 2
#     Edge 17, Type (0, 1), BuildingBlock: MIFKUJ_clean_linker_0, # of connection points: 2
#     Edge 18, Type (0, 1), BuildingBlock: MIFKUJ_clean_linker_0, # of connection points: 2
#     Edge 19, Type (0, 1), BuildingBlock: MIFKUJ_clean_linker_0, # of connection points: 2
#     Edge 20, Type (0, 1), BuildingBlock: MIFKUJ_clean_linker_0, # of connection points: 2
#     Edge 21, Type (0, 1), BuildingBlock: MIFKUJ_clean_linker_0, # of connection points: 2
#     Edge 22, Type (0, 1), BuildingBlock: MIFKUJ_clean_linker_0, # of connection points: 2
#     Edge 23, Type (0, 1), BuildingBlock: MIFKUJ_clean_linker_0, # of connection points: 2
#     Edge 24, Type (0, 1), BuildingBlock: MIFKUJ_clean_linker_0, # of connection points: 2
#     Edge 25, Type (0, 1), BuildingBlock: MIFKUJ_clean_linker_0, # of connection points: 2
#     Edge 26, Type (0, 1), BuildingBlock: MIFKUJ_clean_linker_0, # of connection points: 2
#     Edge 27, Type (0, 1), BuildingBlock: MIFKUJ_clean_linker_0, # of connection points: 2
#     Edge 28, Type (0, 1), BuildingBlock: MIFKUJ_clean_linker_0, # of connection points: 2
#     Edge 29, Type (0, 1), BuildingBlock: MIFKUJ_clean_linker_0, # of connection points: 2
#     Edge 30, Type (0, 1), BuildingBlock: MIFKUJ_clean_linker_0, # of connection points: 2
#     Edge 31, Type (0, 1), BuildingBlock: MIFKUJ_clean_linker_0, # of connection points: 2
#     Edge 32, Type (0, 1), BuildingBlock: MIFKUJ_clean_linker_0, # of connection points: 2
#     Edge 33, Type (0, 1), BuildingBlock: MIFKUJ_clean_linker_0, # of connection points: 2
#     Edge 34, Type (0, 1), BuildingBlock: MIFKUJ_clean_linker_0, # of connection points: 2
#     Edge 35, Type (0, 1), BuildingBlock: MIFKUJ_clean_linker_0, # of connection points: 2
# Relax obj value: 0.008
# Max RMSD: 0.050
# Mean RMSD: 0.044
data_MOF--net-hwx--node1-OJICUG_clean_sbu_0--node2-PAMTOO_clean_linker_0--edge1-MIFKUJ_clean_linker_0
_symmetry_space_group_name_H-M    P1
_symmetry_Int_Tables_number       1
_symmetry_cell_setting            triclinic
loop_
_symmetry_equiv_pos_as_xyz
'x, y, z'
_cell_length_a     68.167402
_cell_length_b     68.147868
_cell_length_c     26.289858
_cell_angle_alpha  88.288539
_cell_angle_beta   91.718089
_cell_angle_gamma 90.010893
loop_
_atom_site_label
_atom_site_type_symbol
_atom_site_fract_x
_atom_site_fract_y
_atom_site_fract_z
_atom_type_partial_charge
Sc0 Sc 0.22473 0.21946 0.07573 0.0
Sc1 Sc 0.19345 0.18935 0.00316 0.0
Sc2 Sc 0.22368 0.22381 0.94117 0.0
O3 O 0.21399 0.2109 0.00668 0.0
C4 C 0.22111 0.26048 0.01354 0.0
C5 C 0.17889 0.21448 0.09529 0.0
C6 C 0.17797 0.21899 0.91455 0.0
C7 C 0.22142 0.1731 0.09416 0.0
C8 C 0.2633 0.22 0.00957 0.0
C9 C 0.22118 0.17854 0.91268 0.0
O10 O 0.22265 0.25015 0.05453 0.0
O11 O 0.17606 0.2025 0.05971 0.0
O12 O 0.19451 0.22714 0.90786 0.0
O13 O 0.2283 0.18979 0.10553 0.0
O14 O 0.25392 0.2222 0.9672 0.0
O15 O 0.2088 0.17418 0.94632 0.0
O16 O 0.25481 0.21838 0.052 0.0
O17 O 0.20882 0.17079 0.05836 0.0
O18 O 0.22771 0.19588 0.90539 0.0
O19 O 0.19568 0.22171 0.10622 0.0
O20 O 0.22086 0.25306 0.96968 0.0
O21 O 0.17556 0.20514 0.94715 0.0
Sc22 Sc 0.27339 0.72292 0.44969 0.0
Sc23 Sc 0.3049 0.68971 0.51799 0.0
Sc24 Sc 0.27565 0.72246 0.58384 0.0
O25 O 0.28464 0.7117 0.51711 0.0
C26 C 0.27888 0.7616 0.51452 0.0
C27 C 0.3185 0.71677 0.42434 0.0
C28 C 0.32167 0.71677 0.60606 0.0
C29 C 0.27509 0.67696 0.4289 0.0
C30 C 0.23548 0.72172 0.51844 0.0
C31 C 0.27822 0.67647 0.61051 0.0
O32 O 0.27735 0.75296 0.47232 0.0
O33 O 0.32171 0.70397 0.45973 0.0
O34 O 0.30523 0.72467 0.61439 0.0
O35 O 0.26823 0.69412 0.4198 0.0
O36 O 0.24517 0.72163 0.56049 0.0
O37 O 0.29042 0.67283 0.57641 0.0
O38 O 0.24363 0.72232 0.47553 0.0
O39 O 0.28836 0.67329 0.46286 0.0
O40 O 0.27173 0.69362 0.61765 0.0
O41 O 0.30181 0.72477 0.41597 0.0
O42 O 0.27836 0.75246 0.55731 0.0
O43 O 0.32373 0.70378 0.57293 0.0
Sc44 Sc 0.77358 0.77807 0.94231 0.0
Sc45 Sc 0.80588 0.80852 0.01125 0.0
Sc46 Sc 0.77377 0.77703 0.07683 0.0
O47 O 0.78436 0.78789 0.01008 0.0
C48 C 0.73473 0.78132 0.00615 0.0
C49 C 0.77963 0.82375 0.91611 0.0
C50 C 0.77802 0.82276 0.09832 0.0
C51 C 0.81959 0.78031 0.92417 0.0
C52 C 0.77523 0.7385 0.01133 0.0
C53 C 0.81962 0.78002 0.10382 0.0
O54 O 0.74346 0.78159 0.96399 0.0
O55 O 0.79166 0.82655 0.95292 0.0
O56 O 0.7705 0.80594 0.10687 0.0
O57 O 0.8026 0.77342 0.91425 0.0
O58 O 0.77574 0.74704 0.05368 0.0
O59 O 0.82281 0.79287 0.06916 0.0
O60 O 0.77393 0.74783 0.96874 0.0
O61 O 0.82282 0.79326 0.95719 0.0
O62 O 0.80261 0.77319 0.11212 0.0
O63 O 0.77215 0.80707 0.90701 0.0
O64 O 0.74381 0.77938 0.04901 0.0
O65 O 0.79115 0.82577 0.06565 0.0
Sc66 Sc 0.72682 0.2774 0.56721 0.0
Sc67 Sc 0.69245 0.30829 0.50121 0.0
Sc68 Sc 0.72521 0.27991 0.43315 0.0
O69 O 0.71482 0.28852 0.50057 0.0
C70 C 0.76482 0.28337 0.49937 0.0
C71 C 0.72062 0.32224 0.59311 0.0
C72 C 0.71818 0.32594 0.41188 0.0
C73 C 0.68103 0.27859 0.59099 0.0
C74 C 0.72566 0.23959 0.49905 0.0
C75 C 0.67919 0.28144 0.40854 0.0
O76 O 0.7566 0.28028 0.5417 0.0
O77 O 0.70641 0.32482 0.56111 0.0
O78 O 0.72552 0.30943 0.40154 0.0
O79 O 0.69862 0.2733 0.60148 0.0
O80 O 0.72633 0.24946 0.45731 0.0
O81 O 0.67583 0.29419 0.44152 0.0
O82 O 0.72505 0.24757 0.54213 0.0
O83 O 0.67633 0.29052 0.5546 0.0
O84 O 0.69621 0.27451 0.40198 0.0
O85 O 0.72985 0.30606 0.59858 0.0
O86 O 0.75527 0.28429 0.45711 0.0
O87 O 0.70624 0.32801 0.44759 0.0
H88 H 0.22272 0.55753 0.02353 0.0
H89 H 0.2228 0.50258 0.94726 0.0
H90 H 0.22079 0.50302 0.11034 0.0
H91 H 0.24579 0.47293 0.07487 0.0
C92 C 0.23893 0.47028 0.03677 0.0
O93 O 0.22168 0.48081 0.03089 0.0
H94 H 0.24931 0.47524 0.00711 0.0
C95 C 0.22175 0.54164 0.02509 0.0
C96 C 0.22135 0.53167 0.07254 0.0
C97 C 0.22226 0.53136 0.9797 0.0
C98 C 0.22222 0.51077 0.9819 0.0
C99 C 0.22156 0.50063 0.02899 0.0
C100 C 0.22109 0.51104 0.07416 0.0
H101 H 0.93849 0.73384 0.52748 0.0
H102 H 0.99215 0.72571 0.44858 0.0
H103 H 0.99298 0.72579 0.61207 0.0
H104 H 0.02427 0.74711 0.57065 0.0
C105 C 0.02586 0.74016 0.53325 0.0
O106 O 0.01441 0.72346 0.53135 0.0
H107 H 0.02084 0.75082 0.50261 0.0
C108 C 0.9542 0.73124 0.52822 0.0
C109 C 0.96449 0.73003 0.57515 0.0
C110 C 0.96394 0.72981 0.48228 0.0
C111 C 0.98423 0.72628 0.48363 0.0
C112 C 0.99463 0.72474 0.53045 0.0
C113 C 0.98472 0.7263 0.57619 0.0
H114 H 0.76681 0.44419 0.99766 0.0
H115 H 0.77301 0.49922 0.0729 0.0
H116 H 0.77437 0.49776 0.90982 0.0
H117 H 0.80298 0.52501 0.95502 0.0
C118 C 0.79521 0.52854 0.99025 0.0
O119 O 0.77676 0.52025 0.98898 0.0
H120 H 0.80402 0.52243 0.02339 0.0
C121 C 0.76927 0.45991 0.99607 0.0
C122 C 0.77086 0.46959 0.94852 0.0
C123 C 0.76991 0.47038 0.04128 0.0
C124 C 0.77233 0.49084 0.03849 0.0
C125 C 0.77415 0.50061 0.99119 0.0
C126 C 0.77314 0.49005 0.94624 0.0
H127 H 0.05457 0.25096 0.49274 0.0
H128 H 0.00203 0.26846 0.56542 0.0
H129 H 0.00346 0.26836 0.40203 0.0
H130 H 0.98067 0.30198 0.44542 0.0
C131 C 0.97575 0.29413 0.48051 0.0
O132 O 0.9817 0.27481 0.48031 0.0
H133 H 0.98243 0.30152 0.51402 0.0
C134 C 0.03944 0.2559 0.48982 0.0
C135 C 0.03034 0.25911 0.44171 0.0
C136 C 0.02941 0.25919 0.53447 0.0
C137 C 0.01004 0.2661 0.53114 0.0
C138 C 0.00077 0.26944 0.48332 0.0
C139 C 0.01092 0.26608 0.43871 0.0
H140 H 0.72925 0.94302 0.47844 0.0
H141 H 0.73739 0.99612 0.56161 0.0
H142 H 0.72329 0.99935 0.40168 0.0
H143 H 0.75156 0.02767 0.43474 0.0
C144 C 0.74688 0.03005 0.47426 0.0
O145 O 0.72997 0.01957 0.48343 0.0
H146 H 0.75882 0.02484 0.50118 0.0
C147 C 0.7293 0.95888 0.47982 0.0
C148 C 0.72588 0.96995 0.43454 0.0
C149 C 0.73384 0.96797 0.52605 0.0
C150 C 0.73367 0.98859 0.52693 0.0
C151 C 0.72959 0.99978 0.4823 0.0
C152 C 0.72582 0.99051 0.4362 0.0
H153 H 0.55927 0.23199 0.01021 0.0
H154 H 0.50216 0.22868 0.07489 0.0
H155 H 0.50728 0.23647 0.91312 0.0
H156 H 0.47453 0.25841 0.95457 0.0
C157 C 0.47194 0.24911 0.98923 0.0
O158 O 0.48281 0.23209 0.9875 0.0
H159 H 0.47657 0.25765 0.02301 0.0
C160 C 0.54342 0.23198 0.00517 0.0
C161 C 0.53487 0.23466 0.95616 0.0
C162 C 0.53181 0.22994 0.04816 0.0
C163 C 0.51132 0.23006 0.04199 0.0
C164 C 0.50257 0.23209 0.99319 0.0
C165 C 0.51429 0.23437 0.95041 0.0
H166 H 0.2529 0.05127 0.50642 0.0
H167 H 0.26891 0.99639 0.44253 0.0
H168 H 0.26968 0.00218 0.60498 0.0
H169 H 0.30209 0.97679 0.56834 0.0
C170 C 0.29476 0.9721 0.53232 0.0
O171 O 0.27549 0.97826 0.53058 0.0
H172 H 0.3028 0.97883 0.49993 0.0
C173 C 0.25745 0.03607 0.51157 0.0
C174 C 0.26068 0.02815 0.56093 0.0
C175 C 0.26024 0.0248 0.46865 0.0
C176 C 0.26686 0.00539 0.47526 0.0
C177 C 0.27032 0.99732 0.52443 0.0
C178 C 0.26732 0.00869 0.56718 0.0
H179 H 0.44058 0.76128 0.00228 0.0
H180 H 0.4972 0.77296 0.94033 0.0
H181 H 0.49211 0.76231 0.10116 0.0
H182 H 0.5207 0.79395 0.07515 0.0
C183 C 0.52433 0.78913 0.03647 0.0
O184 O 0.51621 0.77093 0.0283 0.0
H185 H 0.5182 0.80017 0.00821 0.0
C186 C 0.45627 0.76328 0.00791 0.0
C187 C 0.46481 0.76107 0.05702 0.0
C188 C 0.46777 0.76749 0.96562 0.0
C189 C 0.48808 0.76987 0.97266 0.0
C190 C 0.49668 0.76843 0.0217 0.0
C191 C 0.48513 0.76395 0.06372 0.0
H192 H 0.14019 0.20991 0.06868 0.0
H193 H 0.11167 0.22 0.11507 0.0
H194 H 0.14977 0.24256 0.23364 0.0
H195 H 0.17848 0.23304 0.18653 0.0
H196 H 0.09857 0.20857 0.20037 0.0
H197 H 0.12885 0.28019 0.29131 0.0
H198 H 0.15088 0.30757 0.26838 0.0
H199 H 0.14004 0.29733 0.10966 0.0
H200 H 0.11771 0.27012 0.13156 0.0
H201 H 0.0534 0.22732 0.42682 0.0
H202 H 0.07488 0.22184 0.35654 0.0
H203 H 0.0534 0.2749 0.28029 0.0
H204 H 0.0324 0.28103 0.35248 0.0
H205 H 0.09161 0.27388 0.27638 0.0
H206 H 0.04134 0.22901 0.23492 0.0
H207 H 0.01695 0.20283 0.24869 0.0
H208 H 0.06308 0.16208 0.29081 0.0
H209 H 0.08775 0.18809 0.27801 0.0
C210 C 0.14255 0.21706 0.1046 0.0
C211 C 0.16166 0.22061 0.12398 0.0
C212 C 0.12619 0.22284 0.13106 0.0
C213 C 0.12851 0.23223 0.17762 0.0
C214 C 0.14757 0.23573 0.19724 0.0
C215 C 0.16399 0.23015 0.17045 0.0
C216 C 0.11102 0.23749 0.20677 0.0
C217 C 0.097 0.2229 0.2167 0.0
C218 C 0.10854 0.25639 0.22662 0.0
C219 C 0.12172 0.27299 0.21316 0.0
C220 C 0.13107 0.28385 0.25152 0.0
C221 C 0.14363 0.29933 0.23869 0.0
C222 C 0.1469 0.30415 0.1876 0.0
C223 C 0.13755 0.29355 0.14922 0.0
C224 C 0.12495 0.27808 0.16183 0.0
C225 C 0.0532 0.23786 0.39512 0.0
C226 C 0.04135 0.25473 0.39548 0.0
C227 C 0.06534 0.23457 0.35458 0.0
C228 C 0.06564 0.24784 0.31276 0.0
C229 C 0.05339 0.26444 0.31213 0.0
C230 C 0.04127 0.26784 0.35312 0.0
C231 C 0.07965 0.24469 0.27155 0.0
C232 C 0.09303 0.25966 0.25937 0.0
C233 C 0.08117 0.22633 0.24814 0.0
C234 C 0.06641 0.21056 0.25571 0.0
C235 C 0.04629 0.2145 0.24742 0.0
C236 C 0.03241 0.19968 0.25502 0.0
C237 C 0.03846 0.18081 0.27067 0.0
C238 C 0.05841 0.17671 0.27867 0.0
C239 C 0.07236 0.19148 0.27115 0.0
H240 H 0.02768 0.16936 0.27655 0.0
H241 H 0.15665 0.31612 0.17774 0.0
H242 H 0.24599 0.67591 0.66978 0.0
H243 H 0.23453 0.64909 0.7247 0.0
H244 H 0.28289 0.61308 0.68085 0.0
H245 H 0.29416 0.6397 0.62446 0.0
H246 H 0.25036 0.59163 0.68663 0.0
H247 H 0.28414 0.63688 0.79459 0.0
H248 H 0.2917 0.66917 0.83027 0.0
H249 H 0.23294 0.67328 0.88348 0.0
H250 H 0.22495 0.64112 0.8475 0.0
H251 H 0.24902 0.52578 0.90622 0.0
H252 H 0.25621 0.54824 0.83464 0.0
H253 H 0.20737 0.58475 0.87265 0.0
H254 H 0.20033 0.56249 0.94445 0.0
H255 H 0.24035 0.60534 0.86826 0.0
H256 H 0.20733 0.55862 0.76216 0.0
H257 H 0.20089 0.52593 0.72757 0.0
H258 H 0.25955 0.52385 0.67289 0.0
H259 H 0.26644 0.55643 0.70776 0.0
C260 C 0.25422 0.6623 0.67176 0.0
C261 C 0.27113 0.66004 0.64317 0.0
C262 C 0.24764 0.64697 0.70322 0.0
C263 C 0.25805 0.6292 0.70759 0.0
C264 C 0.27466 0.62669 0.67815 0.0
C265 C 0.28112 0.64195 0.64611 0.0
C266 C 0.25193 0.61351 0.74412 0.0
C267 C 0.24836 0.59454 0.72649 0.0
C268 C 0.24909 0.61738 0.79597 0.0
C269 C 0.2539 0.63667 0.81794 0.0
C270 C 0.27279 0.64473 0.8136 0.0
C271 C 0.27716 0.663 0.83392 0.0
C272 C 0.2628 0.67329 0.85902 0.0
C273 C 0.24405 0.6653 0.86397 0.0
C274 C 0.23959 0.64705 0.84367 0.0
C275 C 0.23951 0.5383 0.8983 0.0
C276 C 0.22421 0.54252 0.93094 0.0
C277 C 0.24362 0.55113 0.85746 0.0
C278 C 0.23235 0.5682 0.84838 0.0
C279 C 0.21632 0.57173 0.87914 0.0
C280 C 0.2123 0.55902 0.92005 0.0
C281 C 0.23844 0.58349 0.81074 0.0
C282 C 0.24219 0.6024 0.82834 0.0
C283 C 0.24159 0.57946 0.75913 0.0
C284 C 0.23745 0.5599 0.738 0.0
C285 C 0.21891 0.55113 0.74313 0.0
C286 C 0.21517 0.53263 0.72339 0.0
C287 C 0.22981 0.5228 0.69816 0.0
C288 C 0.24822 0.53148 0.69249 0.0
C289 C 0.25205 0.54997 0.71218 0.0
H290 H 0.22689 0.50848 0.68291 0.0
H291 H 0.26621 0.68744 0.87471 0.0
H292 H 0.85839 0.78381 0.08266 0.0
H293 H 0.88662 0.77177 0.13336 0.0
H294 H 0.84789 0.74736 0.24567 0.0
H295 H 0.81946 0.7589 0.19432 0.0
H296 H 0.89905 0.7817 0.22127 0.0
H297 H 0.86827 0.70831 0.30797 0.0
H298 H 0.84657 0.68128 0.28139 0.0
H299 H 0.85849 0.69451 0.12464 0.0
H300 H 0.88049 0.72143 0.15026 0.0
H301 H 0.93825 0.75952 0.46109 0.0
H302 H 0.918 0.76518 0.38442 0.0
H303 H 0.94467 0.71545 0.31562 0.0
H304 H 0.96476 0.70927 0.39387 0.0
H305 H 0.90532 0.71506 0.3014 0.0
H306 H 0.9558 0.76119 0.27292 0.0
H307 H 0.97946 0.78735 0.29354 0.0
H308 H 0.93203 0.82676 0.32069 0.0
H309 H 0.90807 0.80076 0.30097 0.0
C310 C 0.85583 0.77581 0.11808 0.0
C311 C 0.83664 0.77243 0.13465 0.0
C312 C 0.87201 0.76889 0.14694 0.0
C313 C 0.86941 0.7585 0.19309 0.0
C314 C 0.85027 0.75498 0.20964 0.0
C315 C 0.83403 0.76173 0.18046 0.0
C316 C 0.88669 0.7526 0.22566 0.0
C317 C 0.9005 0.76707 0.23838 0.0
C318 C 0.88898 0.73335 0.24677 0.0
C319 C 0.87593 0.717 0.23109 0.0
C320 C 0.86635 0.70539 0.26784 0.0
C321 C 0.85398 0.6901 0.25293 0.0
C322 C 0.85112 0.68621 0.20135 0.0
C323 C 0.86067 0.69758 0.16457 0.0
C324 C 0.87307 0.71287 0.17927 0.0
C325 C 0.93981 0.74972 0.42975 0.0
C326 C 0.95293 0.73381 0.43363 0.0
C327 C 0.92836 0.7531 0.3857 0.0
C328 C 0.92997 0.74087 0.3441 0.0
C329 C 0.94327 0.7251 0.34732 0.0
C330 C 0.9548 0.72166 0.39175 0.0
C331 C 0.91703 0.74442 0.29848 0.0
C332 C 0.90405 0.72955 0.28339 0.0
C333 C 0.91578 0.76318 0.27405 0.0
C334 C 0.93012 0.77897 0.28561 0.0
C335 C 0.95041 0.7754 0.28356 0.0
C336 C 0.96388 0.79021 0.29507 0.0
C337 C 0.95726 0.8087 0.30845 0.0
C338 C 0.93714 0.81243 0.31027 0.0
C339 C 0.9236 0.79767 0.29884 0.0
H340 H 0.96771 0.82014 0.31736 0.0
H341 H 0.84152 0.67438 0.18989 0.0
H342 H 0.70512 0.35943 0.59327 0.0
H343 H 0.71519 0.38644 0.64727 0.0
H344 H 0.76019 0.34978 0.71925 0.0
H345 H 0.75013 0.32263 0.66606 0.0
H346 H 0.73955 0.36852 0.78819 0.0
H347 H 0.77154 0.38588 0.6325 0.0
H348 H 0.77305 0.39308 0.54023 0.0
H349 H 0.73349 0.44155 0.55365 0.0
H350 H 0.73152 0.43446 0.64595 0.0
H351 H 0.79164 0.43701 0.9273 0.0
H352 H 0.78496 0.41433 0.85858 0.0
H353 H 0.73942 0.4529 0.79697 0.0
H354 H 0.74635 0.47588 0.86547 0.0
H355 H 0.75947 0.4342 0.72121 0.0
H356 H 0.72722 0.41683 0.87601 0.0
H357 H 0.72575 0.41 0.96845 0.0
H358 H 0.76526 0.36143 0.95619 0.0
H359 H 0.76726 0.3682 0.86375 0.0
C360 C 0.71719 0.35708 0.62051 0.0
C361 C 0.72677 0.33879 0.62531 0.0
C362 C 0.72299 0.3726 0.65115 0.0
C363 C 0.73856 0.37017 0.68695 0.0
C364 C 0.74815 0.35197 0.69183 0.0
C365 C 0.74237 0.33646 0.66129 0.0
C366 C 0.74448 0.38632 0.72069 0.0
C367 C 0.74416 0.38279 0.77348 0.0
C368 C 0.74992 0.40512 0.70147 0.0
C369 C 0.75122 0.40951 0.64606 0.0
C370 C 0.76304 0.39798 0.61572 0.0
C371 C 0.764 0.40206 0.56342 0.0
C372 C 0.75333 0.41773 0.54106 0.0
C373 C 0.74173 0.4294 0.57101 0.0
C374 C 0.74069 0.42537 0.62332 0.0
C375 C 0.78049 0.44083 0.89844 0.0
C376 C 0.76933 0.45802 0.90187 0.0
C377 C 0.77668 0.42789 0.85929 0.0
C378 C 0.76141 0.43175 0.8234 0.0
C379 C 0.75122 0.44963 0.82446 0.0
C380 C 0.75517 0.46273 0.86349 0.0
C381 C 0.75484 0.41622 0.7885 0.0
C382 C 0.7549 0.41991 0.73573 0.0
C383 C 0.74905 0.39752 0.80761 0.0
C384 C 0.74752 0.39313 0.86302 0.0
C385 C 0.73568 0.40476 0.89307 0.0
C386 C 0.73476 0.40091 0.94546 0.0
C387 C 0.74544 0.38532 0.9682 0.0
C388 C 0.75701 0.37351 0.93853 0.0
C389 C 0.75804 0.37735 0.88613 0.0
H390 H 0.74471 0.38236 0.00878 0.0
H391 H 0.75409 0.42085 0.50056 0.0
H392 H 0.64166 0.29588 0.40077 0.0
H393 H 0.61437 0.284 0.34789 0.0
H394 H 0.65144 0.2385 0.29245 0.0
H395 H 0.67894 0.25054 0.34428 0.0
H396 H 0.63134 0.2559 0.21636 0.0
H397 H 0.61569 0.22876 0.38124 0.0
H398 H 0.60991 0.23034 0.47319 0.0
H399 H 0.56147 0.26961 0.44246 0.0
H400 H 0.56711 0.26847 0.3503 0.0
H401 H 0.56048 0.20495 0.08365 0.0
H402 H 0.58258 0.20981 0.15722 0.0
H403 H 0.54808 0.25948 0.19941 0.0
H404 H 0.52569 0.25442 0.12617 0.0
H405 H 0.56615 0.23891 0.28463 0.0
H406 H 0.58332 0.26873 0.12334 0.0
H407 H 0.58823 0.26795 0.0309 0.0
H408 H 0.63347 0.22458 0.0554 0.0
H409 H 0.62867 0.22496 0.14816 0.0
C410 C 0.64402 0.28331 0.37745 0.0
C411 C 0.66253 0.27419 0.37679 0.0
C412 C 0.62835 0.27646 0.34744 0.0
C413 C 0.63078 0.26019 0.31673 0.0
C414 C 0.64922 0.25107 0.31593 0.0
C415 C 0.66493 0.25798 0.34561 0.0
C416 C 0.61431 0.25307 0.28399 0.0
C417 C 0.61723 0.25187 0.23156 0.0
C418 C 0.59567 0.24832 0.30353 0.0
C419 C 0.59193 0.24865 0.35885 0.0
C420 C 0.60386 0.23781 0.39409 0.0
C421 C 0.6006 0.23862 0.44625 0.0
C422 C 0.58536 0.2501 0.46366 0.0
C423 C 0.57328 0.26073 0.42891 0.0
C424 C 0.57648 0.25998 0.3767 0.0
C425 C 0.55725 0.21646 0.10971 0.0
C426 C 0.54157 0.22946 0.09914 0.0
C427 C 0.56985 0.21923 0.15163 0.0
C428 C 0.56716 0.23524 0.18306 0.0
C429 C 0.5504 0.24705 0.17555 0.0
C430 C 0.53763 0.24416 0.13376 0.0
C431 C 0.5834 0.24153 0.21753 0.0
C432 C 0.58038 0.24274 0.26988 0.0
C433 C 0.60197 0.24643 0.19807 0.0
C434 C 0.60553 0.24676 0.1426 0.0
C435 C 0.59429 0.25899 0.109 0.0
C436 C 0.59703 0.25861 0.05656 0.0
C437 C 0.6111 0.24617 0.03726 0.0
C438 C 0.62256 0.23419 0.07043 0.0
C439 C 0.61986 0.23451 0.12295 0.0
H440 H 0.61313 0.24587 0.99663 0.0
H441 H 0.58289 0.25074 0.50406 0.0
H442 H 0.23676 0.18137 0.81762 0.0
H443 H 0.24526 0.15426 0.76308 0.0
H444 H 0.23043 0.11258 0.88259 0.0
H445 H 0.22136 0.13942 0.93639 0.0
H446 H 0.2705 0.12465 0.76599 0.0
H447 H 0.20792 0.07345 0.83359 0.0
H448 H 0.17493 0.07602 0.869 0.0
H449 H 0.16773 0.13335 0.79863 0.0
H450 H 0.20056 0.13101 0.76228 0.0
H451 H 0.28349 0.03305 0.64759 0.0
H452 H 0.27824 0.05673 0.71453 0.0
H453 H 0.224 0.07516 0.63875 0.0
H454 H 0.22877 0.05118 0.57347 0.0
H455 H 0.21924 0.07426 0.73565 0.0
H456 H 0.26756 0.10056 0.62311 0.0
H457 H 0.29868 0.1007 0.57759 0.0
H458 H 0.33112 0.09785 0.72018 0.0
H459 H 0.30016 0.09742 0.76655 0.0
C460 C 0.23545 0.16643 0.8323 0.0
C461 C 0.22807 0.16252 0.88092 0.0
C462 C 0.24037 0.15096 0.80121 0.0
C463 C 0.23813 0.13138 0.81842 0.0
C464 C 0.23183 0.12754 0.86803 0.0
C465 C 0.22665 0.14292 0.89874 0.0
C466 C 0.24135 0.11495 0.78378 0.0
C467 C 0.25934 0.11358 0.75951 0.0
C468 C 0.22665 0.10068 0.77459 0.0
C469 C 0.20678 0.10213 0.79572 0.0
C470 C 0.19926 0.08657 0.82555 0.0
C471 C 0.1806 0.08799 0.8458 0.0
C472 C 0.16927 0.10486 0.83622 0.0
C473 C 0.17655 0.12032 0.80619 0.0
C474 C 0.19519 0.11896 0.7858 0.0
C475 C 0.27027 0.04189 0.64596 0.0
C476 C 0.25667 0.04048 0.605 0.0
C477 C 0.26738 0.05554 0.68386 0.0
C478 C 0.2509 0.06798 0.68113 0.0
C479 C 0.23687 0.06581 0.64162 0.0
C480 C 0.23969 0.05219 0.60408 0.0
C481 C 0.24842 0.08387 0.71785 0.0
C482 C 0.23053 0.08516 0.7426 0.0
C483 C 0.26294 0.0984 0.72601 0.0
C484 C 0.28156 0.09873 0.69826 0.0
C485 C 0.28134 0.09981 0.64473 0.0
C486 C 0.29894 0.09997 0.61879 0.0
C487 C 0.31687 0.09923 0.64598 0.0
C488 C 0.31723 0.09838 0.69918 0.0
C489 C 0.29966 0.09819 0.72531 0.0
H490 H 0.33048 0.09936 0.62582 0.0
H491 H 0.15484 0.10594 0.85197 0.0
H492 H 0.31709 0.7404 0.33807 0.0
H493 H 0.34382 0.74805 0.28093 0.0
H494 H 0.38373 0.71382 0.37819 0.0
H495 H 0.35708 0.7058 0.43509 0.0
H496 H 0.37808 0.76637 0.29059 0.0
H497 H 0.41561 0.68998 0.30452 0.0
H498 H 0.40671 0.65533 0.32138 0.0
H499 H 0.34758 0.66718 0.26838 0.0
H500 H 0.35619 0.7018 0.25056 0.0
H501 H 0.46608 0.77504 0.1541 0.0
H502 H 0.44367 0.76705 0.22285 0.0
H503 H 0.41255 0.72687 0.12558 0.0
H504 H 0.43543 0.73391 0.05817 0.0
H505 H 0.41458 0.71171 0.21615 0.0
H506 H 0.39649 0.77486 0.1429 0.0
H507 H 0.40176 0.80942 0.11622 0.0
H508 H 0.41591 0.82386 0.27091 0.0
H509 H 0.41096 0.78931 0.2984 0.0
C510 C 0.33156 0.73455 0.34748 0.0
C511 C 0.33486 0.72231 0.39095 0.0
C512 C 0.34684 0.739 0.31485 0.0
C513 C 0.3657 0.73132 0.32501 0.0
C514 C 0.36921 0.71965 0.3692 0.0
C515 C 0.35394 0.71509 0.40171 0.0
C516 C 0.38151 0.73499 0.28844 0.0
C517 C 0.38615 0.75443 0.2745 0.0
C518 C 0.39177 0.71939 0.26676 0.0
C519 C 0.38651 0.69853 0.27681 0.0
C520 C 0.40073 0.68517 0.29634 0.0
C521 C 0.39573 0.66554 0.30607 0.0
C522 C 0.37657 0.65908 0.29614 0.0
C523 C 0.36239 0.67222 0.27625 0.0
C524 C 0.36732 0.69185 0.2664 0.0
C525 C 0.45468 0.76424 0.14778 0.0
C526 C 0.45234 0.75536 0.10039 0.0
C527 C 0.44176 0.75983 0.1869 0.0
C528 C 0.42618 0.74664 0.17905 0.0
C529 C 0.42437 0.73717 0.13251 0.0
C530 C 0.43734 0.7414 0.09374 0.0
C531 C 0.41121 0.74313 0.21817 0.0
C532 C 0.40673 0.72368 0.2327 0.0
C533 C 0.40062 0.75871 0.23901 0.0
C534 C 0.40358 0.77948 0.2226 0.0
C535 C 0.40087 0.78539 0.17116 0.0
C536 C 0.40378 0.80497 0.1559 0.0
C537 C 0.40923 0.81882 0.19183 0.0
C538 C 0.41173 0.81311 0.24312 0.0
C539 C 0.40887 0.79353 0.25856 0.0
H540 H 0.41147 0.83397 0.17995 0.0
H541 H 0.37273 0.64388 0.30374 0.0
H542 H 0.77903 0.86261 0.93841 0.0
H543 H 0.77237 0.89056 0.87933 0.0
H544 H 0.76364 0.85081 0.75618 0.0
H545 H 0.76969 0.82278 0.81508 0.0
H546 H 0.79263 0.88725 0.74703 0.0
H547 H 0.72646 0.86505 0.79344 0.0
H548 H 0.70237 0.85794 0.85935 0.0
H549 H 0.70572 0.91765 0.9068 0.0
H550 H 0.7305 0.9249 0.84231 0.0
H551 H 0.75473 0.93354 0.52958 0.0
H552 H 0.76292 0.91259 0.60269 0.0
H553 H 0.7376 0.95457 0.70156 0.0
H554 H 0.72717 0.97478 0.62722 0.0
H555 H 0.72834 0.9215 0.73553 0.0
H556 H 0.78976 0.94696 0.69139 0.0
H557 H 0.81717 0.95708 0.63748 0.0
H558 H 0.82651 0.89712 0.59861 0.0
H559 H 0.79897 0.88665 0.65168 0.0
C560 C 0.77558 0.85985 0.89877 0.0
C561 C 0.7748 0.84054 0.88127 0.0
C562 C 0.77182 0.87579 0.86522 0.0
C563 C 0.76761 0.87263 0.81364 0.0
C564 C 0.76692 0.85343 0.79599 0.0
C565 C 0.77023 0.83747 0.82966 0.0
C566 C 0.76386 0.88931 0.77766 0.0
C567 C 0.77857 0.89473 0.74402 0.0
C568 C 0.74593 0.89969 0.77619 0.0
C569 C 0.73053 0.89544 0.81354 0.0
C570 C 0.72224 0.87661 0.81828 0.0
C571 C 0.70843 0.87256 0.85537 0.0
C572 C 0.7025 0.88735 0.88729 0.0
C573 C 0.71035 0.90621 0.88211 0.0
C574 C 0.72432 0.91028 0.84539 0.0
C575 C 0.75042 0.93826 0.56656 0.0
C576 C 0.73992 0.95583 0.572 0.0
C577 C 0.75562 0.9264 0.60879 0.0
C578 C 0.75138 0.93215 0.65807 0.0
C579 C 0.74118 0.94982 0.664 0.0
C580 C 0.7354 0.96149 0.62139 0.0
C581 C 0.75688 0.91911 0.70263 0.0
C582 C 0.74256 0.91436 0.73838 0.0
C583 C 0.77553 0.90986 0.70732 0.0
C584 C 0.7922 0.91604 0.67538 0.0
C585 C 0.79757 0.93594 0.67111 0.0
C586 C 0.81315 0.94174 0.64072 0.0
C587 C 0.82356 0.92775 0.61459 0.0
C588 C 0.81844 0.90794 0.61888 0.0
C589 C 0.80286 0.90206 0.6492 0.0
H590 H 0.83561 0.93228 0.59106 0.0
H591 H 0.6918 0.88422 0.91599 0.0
H592 H 0.85829 0.78127 0.9538 0.0
H593 H 0.88636 0.76982 0.9073 0.0
H594 H 0.84733 0.75135 0.7856 0.0
H595 H 0.81912 0.76213 0.83278 0.0
H596 H 0.87558 0.72558 0.79962 0.0
H597 H 0.87212 0.7964 0.78158 0.0
H598 H 0.8713 0.83017 0.81274 0.0
H599 H 0.92739 0.82126 0.88866 0.0
H600 H 0.92842 0.78734 0.8584 0.0
H601 H 0.94154 0.7616 0.58912 0.0
H602 H 0.92099 0.76792 0.66095 0.0
H603 H 0.94349 0.71569 0.73926 0.0
H604 H 0.964 0.70906 0.66611 0.0
H605 H 0.92697 0.77462 0.75846 0.0
H606 H 0.90402 0.69524 0.80402 0.0
H607 H 0.9023 0.66307 0.76331 0.0
H608 H 0.89501 0.69186 0.61642 0.0
H609 H 0.89644 0.72416 0.65634 0.0
C610 C 0.85568 0.77473 0.91716 0.0
C611 C 0.8365 0.77284 0.89659 0.0
C612 C 0.87174 0.76817 0.89067 0.0
C613 C 0.86899 0.76001 0.84259 0.0
C614 C 0.84982 0.75758 0.82267 0.0
C615 C 0.83371 0.76385 0.84953 0.0
C616 C 0.88602 0.75498 0.81164 0.0
C617 C 0.88692 0.73624 0.79105 0.0
C618 C 0.90082 0.76889 0.80022 0.0
C619 C 0.90024 0.78928 0.81826 0.0
C620 C 0.88421 0.80161 0.80521 0.0
C621 C 0.88372 0.82078 0.82266 0.0
C622 C 0.89925 0.82783 0.8528 0.0
C623 C 0.91534 0.81576 0.86541 0.0
C624 C 0.9159 0.79657 0.84811 0.0
C625 C 0.94219 0.7515 0.62176 0.0
C626 C 0.95407 0.73467 0.62185 0.0
C627 C 0.93057 0.75522 0.66297 0.0
C628 C 0.93056 0.74219 0.70524 0.0
C629 C 0.94316 0.72582 0.70671 0.0
C630 C 0.9549 0.72209 0.66519 0.0
C631 C 0.91626 0.74539 0.74554 0.0
C632 C 0.91591 0.76378 0.7681 0.0
C633 C 0.90166 0.73138 0.75751 0.0
C634 C 0.90061 0.71207 0.73312 0.0
C635 C 0.90202 0.69468 0.76305 0.0
C636 C 0.90109 0.67644 0.74012 0.0
C637 C 0.89863 0.67543 0.68729 0.0
C638 C 0.897 0.69266 0.6573 0.0
C639 C 0.89789 0.71093 0.68005 0.0
H640 H 0.89793 0.66129 0.66962 0.0
H641 H 0.89884 0.84268 0.86627 0.0
H642 H 0.70449 0.36375 0.41706 0.0
H643 H 0.71435 0.39248 0.36589 0.0
H644 H 0.75501 0.3567 0.2868 0.0
H645 H 0.74544 0.32802 0.33773 0.0
H646 H 0.7712 0.39184 0.31338 0.0
H647 H 0.71086 0.36835 0.23339 0.0
H648 H 0.67583 0.35924 0.23167 0.0
H649 H 0.6604 0.41744 0.27449 0.0
H650 H 0.6954 0.42681 0.27709 0.0
H651 H 0.78684 0.43582 0.07378 0.0
H652 H 0.77917 0.41594 0.14915 0.0
H653 H 0.73965 0.4609 0.19643 0.0
H654 H 0.74684 0.48068 0.11978 0.0
H655 H 0.72232 0.426 0.19857 0.0
H656 H 0.78257 0.45101 0.26422 0.0
H657 H 0.81758 0.46007 0.26456 0.0
H658 H 0.83347 0.39962 0.24908 0.0
H659 H 0.79853 0.39021 0.24788 0.0
C660 C 0.71555 0.36198 0.38884 0.0
C661 C 0.72406 0.3435 0.38132 0.0
C662 C 0.72116 0.37842 0.35964 0.0
C663 C 0.73534 0.37668 0.32241 0.0
C664 C 0.74408 0.35837 0.31544 0.0
C665 C 0.73847 0.34195 0.34443 0.0
C666 C 0.74077 0.39368 0.28934 0.0
C667 C 0.76056 0.3993 0.28812 0.0
C668 C 0.72675 0.40382 0.25773 0.0
C669 C 0.70574 0.3982 0.25606 0.0
C670 C 0.7 0.37915 0.24286 0.0
C671 C 0.68016 0.37395 0.24164 0.0
C672 C 0.6659 0.38774 0.25313 0.0
C673 C 0.67146 0.40677 0.26571 0.0
C674 C 0.69129 0.41203 0.26704 0.0
C675 C 0.77665 0.44157 0.10045 0.0
C676 C 0.76733 0.45975 0.09069 0.0
C677 C 0.77242 0.43028 0.14383 0.0
C678 C 0.75896 0.437 0.17873 0.0
C679 C 0.75014 0.45547 0.17009 0.0
C680 C 0.75437 0.46681 0.12652 0.0
C681 C 0.7529 0.42386 0.22145 0.0
C682 C 0.73297 0.41891 0.22455 0.0
C683 C 0.76681 0.41436 0.25482 0.0
C684 C 0.78789 0.41992 0.2557 0.0
C685 C 0.79351 0.43966 0.26053 0.0
C686 C 0.81336 0.44486 0.26093 0.0
C687 C 0.82774 0.43044 0.25678 0.0
C688 C 0.82231 0.41078 0.2523 0.0
C689 C 0.80249 0.4055 0.25185 0.0
H690 H 0.84309 0.43449 0.25709 0.0
H691 H 0.65055 0.38368 0.25216 0.0
H692 H 0.13998 0.20622 0.92001 0.0
H693 H 0.11231 0.21499 0.86287 0.0
H694 H 0.14904 0.25541 0.77978 0.0
H695 H 0.17696 0.2466 0.83636 0.0
H696 H 0.09246 0.24878 0.83456 0.0
H697 H 0.13839 0.25021 0.65377 0.0
H698 H 0.16913 0.23617 0.62336 0.0
H699 H 0.16345 0.18676 0.72709 0.0
H700 H 0.13256 0.20037 0.75756 0.0
H701 H 0.0372 0.28441 0.61134 0.0
H702 H 0.05978 0.27855 0.68489 0.0
H703 H 0.06705 0.21848 0.64122 0.0
H704 H 0.04499 0.22449 0.56744 0.0
H705 H 0.1012 0.23524 0.65226 0.0
H706 H 0.04291 0.23062 0.74967 0.0
H707 H 0.01121 0.24166 0.78142 0.0
H708 H 0.03925 0.29193 0.84619 0.0
H709 H 0.0711 0.28131 0.81421 0.0
C710 C 0.14221 0.21709 0.88982 0.0
C711 C 0.16082 0.22549 0.88235 0.0
C712 C 0.1263 0.22218 0.85745 0.0
C713 C 0.12868 0.23569 0.81687 0.0
C714 C 0.14697 0.24478 0.81062 0.0
C715 C 0.16292 0.23971 0.84299 0.0
C716 C 0.1125 0.23902 0.77875 0.0
C717 C 0.09434 0.24593 0.79462 0.0
C718 C 0.11489 0.2349 0.72691 0.0
C719 C 0.1333 0.22643 0.70831 0.0
C720 C 0.14368 0.23632 0.66994 0.0
C721 C 0.16113 0.22844 0.65271 0.0
C722 C 0.16828 0.21062 0.67342 0.0
C723 C 0.15794 0.2006 0.71123 0.0
C724 C 0.14048 0.2084 0.72852 0.0
C725 C 0.04327 0.26987 0.61845 0.0
C726 C 0.03952 0.2549 0.58395 0.0
C727 C 0.05615 0.26652 0.66032 0.0
C728 C 0.06518 0.24809 0.66839 0.0
C729 C 0.0604 0.23285 0.63551 0.0
C730 C 0.04775 0.23624 0.59359 0.0
C731 C 0.08101 0.24505 0.70779 0.0
C732 C 0.09923 0.23823 0.69209 0.0
C733 C 0.07847 0.24887 0.75981 0.0
C734 C 0.05935 0.25527 0.77908 0.0
C735 C 0.04229 0.24412 0.7703 0.0
C736 C 0.0243 0.25028 0.78842 0.0
C737 C 0.02321 0.26751 0.81568 0.0
C738 C 0.04012 0.27859 0.825 0.0
C739 C 0.05814 0.2725 0.80692 0.0
H740 H 0.00927 0.27226 0.82969 0.0
H741 H 0.1818 0.20456 0.66007 0.0
H742 H 0.28729 0.63866 0.43356 0.0
H743 H 0.27581 0.61182 0.38114 0.0
H744 H 0.23445 0.65077 0.30245 0.0
H745 H 0.24571 0.67781 0.35505 0.0
H746 H 0.21841 0.61442 0.32534 0.0
H747 H 0.2764 0.64046 0.24829 0.0
H748 H 0.311 0.65098 0.24721 0.0
H749 H 0.3296 0.59258 0.29138 0.0
H750 H 0.29507 0.58177 0.29345 0.0
H751 H 0.20157 0.56513 0.09405 0.0
H752 H 0.20848 0.58708 0.16401 0.0
H753 H 0.25141 0.54607 0.22783 0.0
H754 H 0.245 0.5243 0.15682 0.0
H755 H 0.26661 0.58178 0.21813 0.0
H756 H 0.20814 0.55509 0.28784 0.0
H757 H 0.17342 0.545 0.2884 0.0
H758 H 0.15544 0.60464 0.25724 0.0
H759 H 0.19007 0.61506 0.25572 0.0
C760 C 0.27568 0.64158 0.4053 0.0
C761 C 0.26755 0.6605 0.39827 0.0
C762 C 0.26916 0.62619 0.37533 0.0
C763 C 0.25444 0.62938 0.33759 0.0
C764 C 0.24586 0.64804 0.33138 0.0
C765 C 0.25239 0.66349 0.36132 0.0
C766 C 0.24854 0.61341 0.30333 0.0
C767 C 0.22887 0.60736 0.3015 0.0
C768 C 0.26234 0.60394 0.27326 0.0
C769 C 0.28313 0.61036 0.27157 0.0
C770 C 0.28786 0.6299 0.25816 0.0
C771 C 0.30746 0.63591 0.25731 0.0
C772 C 0.32249 0.62247 0.26937 0.0
C773 C 0.31794 0.60298 0.28213 0.0
C774 C 0.29836 0.5969 0.28312 0.0
C775 C 0.21229 0.56066 0.12339 0.0
C776 C 0.22285 0.54306 0.11975 0.0
C777 C 0.21611 0.57315 0.16361 0.0
C778 C 0.23043 0.5682 0.20131 0.0
C779 C 0.2403 0.55017 0.19916 0.0
C780 C 0.23649 0.53766 0.15883 0.0
C781 C 0.23638 0.58271 0.23985 0.0
C782 C 0.25612 0.58859 0.24235 0.0
C783 C 0.2226 0.59204 0.27036 0.0
C784 C 0.20173 0.58583 0.27126 0.0
C785 C 0.1968 0.56604 0.28068 0.0
C786 C 0.17712 0.56026 0.28125 0.0
C787 C 0.16223 0.57417 0.27275 0.0
C788 C 0.16699 0.59389 0.26377 0.0
C789 C 0.18664 0.59974 0.26312 0.0
H790 H 0.14701 0.56967 0.27321 0.0
H791 H 0.33766 0.62715 0.26869 0.0
H792 H 0.32469 0.74756 0.67039 0.0
H793 H 0.35378 0.75839 0.71809 0.0
H794 H 0.38766 0.71191 0.6557 0.0
H795 H 0.35861 0.70084 0.6079 0.0
H796 H 0.39293 0.71409 0.75872 0.0
H797 H 0.39473 0.75804 0.61411 0.0
H798 H 0.38133 0.7821 0.55037 0.0
H799 H 0.37011 0.8224 0.66858 0.0
H800 H 0.38318 0.79846 0.73317 0.0
H801 H 0.47823 0.74673 0.88373 0.0
H802 H 0.45787 0.74105 0.80711 0.0
H803 H 0.41528 0.78267 0.85653 0.0
H804 H 0.43563 0.78846 0.93284 0.0
H805 H 0.41794 0.78251 0.75008 0.0
H806 H 0.41045 0.73737 0.89371 0.0
H807 H 0.42266 0.71374 0.9601 0.0
H808 H 0.44311 0.67592 0.84511 0.0
H809 H 0.43133 0.69956 0.778 0.0
C810 C 0.3383 0.73961 0.66672 0.0
C811 C 0.33928 0.72329 0.63535 0.0
C812 C 0.35496 0.74593 0.69371 0.0
C813 C 0.37291 0.7361 0.68987 0.0
C814 C 0.37395 0.71975 0.65891 0.0
C815 C 0.35732 0.71346 0.63166 0.0
C816 C 0.39033 0.74236 0.72022 0.0
C817 C 0.3987 0.72891 0.75596 0.0
C818 C 0.39753 0.76184 0.71732 0.0
C819 C 0.38982 0.77638 0.67855 0.0
C820 C 0.38928 0.77197 0.62658 0.0
C821 C 0.38176 0.78561 0.59028 0.0
C822 C 0.37484 0.80376 0.60542 0.0
C823 C 0.37547 0.80833 0.6569 0.0
C824 C 0.38296 0.79474 0.69337 0.0
C825 C 0.46488 0.75518 0.8772 0.0
C826 C 0.45832 0.76784 0.91428 0.0
C827 C 0.45325 0.75188 0.83362 0.0
C828 C 0.43496 0.76123 0.82669 0.0
C829 C 0.42933 0.7753 0.86125 0.0
C830 C 0.44089 0.77851 0.90489 0.0
C831 C 0.42039 0.75425 0.78855 0.0
C832 C 0.41245 0.76757 0.75179 0.0
C833 C 0.41341 0.73468 0.79068 0.0
C834 C 0.42025 0.72033 0.83089 0.0
C835 C 0.41769 0.72409 0.8826 0.0
C836 C 0.42452 0.71069 0.92036 0.0
C837 C 0.4337 0.69336 0.90683 0.0
C838 C 0.43603 0.68938 0.85552 0.0
C839 C 0.42929 0.70277 0.81761 0.0
H840 H 0.43897 0.683 0.93611 0.0
H841 H 0.36901 0.81429 0.57726 0.0
H842 H 0.78988 0.86109 0.0897 0.0
H843 H 0.77786 0.88908 0.13536 0.0
H844 H 0.73788 0.85123 0.21606 0.0
H845 H 0.74962 0.82308 0.17012 0.0
H846 H 0.72047 0.886 0.18428 0.0
H847 H 0.78018 0.86499 0.27281 0.0
H848 H 0.81531 0.85638 0.28014 0.0
H849 H 0.83064 0.91424 0.22574 0.0
H850 H 0.79556 0.92312 0.21744 0.0
H851 H 0.70481 0.93714 0.41071 0.0
H852 H 0.71033 0.91576 0.33969 0.0
H853 H 0.75066 0.95808 0.27655 0.0
H854 H 0.74568 0.97925 0.34851 0.0
H855 H 0.76765 0.92356 0.29064 0.0
H856 H 0.70759 0.94586 0.21236 0.0
H857 H 0.67242 0.95431 0.20659 0.0
H858 H 0.6574 0.89441 0.24268 0.0
H859 H 0.6925 0.88564 0.24941 0.0
C860 C 0.77854 0.85864 0.11716 0.0
C861 C 0.77086 0.83974 0.12652 0.0
C862 C 0.77168 0.8747 0.14319 0.0
C863 C 0.7571 0.8722 0.17936 0.0
C864 C 0.74913 0.85346 0.18822 0.0
C865 C 0.75597 0.83737 0.16216 0.0
C866 C 0.75066 0.88899 0.20928 0.0
C867 C 0.73071 0.89416 0.20788 0.0
C868 C 0.76416 0.89994 0.23886 0.0
C869 C 0.78525 0.89464 0.24395 0.0
C870 C 0.79104 0.87583 0.26201 0.0
C871 C 0.81094 0.8709 0.26642 0.0
C872 C 0.82519 0.88473 0.25326 0.0
C873 C 0.81958 0.90353 0.23582 0.0
C874 C 0.79969 0.90852 0.23129 0.0
C875 C 0.71449 0.94209 0.38101 0.0
C876 C 0.72499 0.95975 0.38546 0.0
C877 C 0.71752 0.92992 0.34019 0.0
C878 C 0.73096 0.93529 0.3028 0.0
C879 C 0.74026 0.95364 0.30503 0.0
C880 C 0.73726 0.96581 0.34595 0.0
C881 C 0.73735 0.92061 0.26613 0.0
C882 C 0.75736 0.9157 0.26643 0.0
C883 C 0.72387 0.90993 0.23573 0.0
C884 C 0.70272 0.91513 0.23175 0.0
C885 C 0.69681 0.93451 0.21948 0.0
C886 C 0.67687 0.93935 0.21596 0.0
C887 C 0.66269 0.92491 0.22436 0.0
C888 C 0.66841 0.90558 0.2362 0.0
C889 C 0.68832 0.90067 0.23981 0.0
H890 H 0.64726 0.92869 0.2216 0.0
H891 H 0.84059 0.8809 0.25671 0.0
H892 H 0.64544 0.26393 0.56147 0.0
H893 H 0.61914 0.25243 0.61637 0.0
H894 H 0.6547 0.26673 0.749 0.0
H895 H 0.6815 0.27656 0.69411 0.0
H896 H 0.63699 0.23623 0.77162 0.0
H897 H 0.61401 0.29726 0.6903 0.0
H898 H 0.60544 0.31919 0.61655 0.0
H899 H 0.56297 0.27739 0.56341 0.0
H900 H 0.57139 0.25516 0.6367 0.0
H901 H 0.56762 0.25763 0.95303 0.0
H902 H 0.59047 0.26166 0.88406 0.0
H903 H 0.55379 0.22539 0.78912 0.0
H904 H 0.53099 0.2206 0.85913 0.0
H905 H 0.56953 0.26223 0.74121 0.0
H906 H 0.59066 0.20405 0.8362 0.0
H907 H 0.59914 0.18531 0.91549 0.0
H908 H 0.6459 0.22563 0.94833 0.0
H909 H 0.63747 0.24484 0.86969 0.0
C910 C 0.64759 0.26441 0.60241 0.0
C911 C 0.66538 0.27115 0.62377 0.0
C912 C 0.63251 0.25802 0.63381 0.0
C913 C 0.63461 0.25915 0.68707 0.0
C914 C 0.6526 0.26565 0.70818 0.0
C915 C 0.66791 0.27134 0.67686 0.0
C916 C 0.61818 0.25391 0.72117 0.0
C917 C 0.62232 0.24208 0.76491 0.0
C918 C 0.59876 0.26102 0.71217 0.0
C919 C 0.59345 0.2745 0.66865 0.0
C920 C 0.60289 0.29274 0.66278 0.0
C921 C 0.59805 0.30521 0.62109 0.0
C922 C 0.58371 0.29966 0.58526 0.0
C923 C 0.57409 0.28166 0.59118 0.0
C924 C 0.57886 0.26914 0.63281 0.0
C925 C 0.56443 0.25032 0.91774 0.0
C926 C 0.54766 0.23844 0.91203 0.0
C927 C 0.57744 0.25279 0.87821 0.0
C928 C 0.5739 0.24363 0.83183 0.0
C929 C 0.55675 0.23252 0.82481 0.0
C930 C 0.54374 0.22986 0.86475 0.0
C931 C 0.58869 0.24524 0.79186 0.0
C932 C 0.5842 0.25626 0.74719 0.0
C933 C 0.6079 0.2378 0.80052 0.0
C934 C 0.61335 0.22595 0.84715 0.0
C935 C 0.60268 0.20899 0.86046 0.0
C936 C 0.60748 0.19828 0.9053 0.0
C937 C 0.62303 0.2043 0.93697 0.0
C938 C 0.63388 0.22098 0.92372 0.0
C939 C 0.6291 0.23178 0.87901 0.0
H940 H 0.62669 0.19602 0.97174 0.0
H941 H 0.58001 0.30932 0.55296 0.0
H942 H 0.22123 0.13505 0.06457 0.0
H943 H 0.23065 0.10582 0.11562 0.0
H944 H 0.24543 0.14216 0.24289 0.0
H945 H 0.23683 0.17149 0.19132 0.0
H946 H 0.2707 0.11407 0.24102 0.0
H947 H 0.19996 0.11766 0.22894 0.0
H948 H 0.16764 0.11941 0.18424 0.0
H949 H 0.17901 0.0647 0.1137 0.0
H950 H 0.21152 0.06275 0.15758 0.0
H951 H 0.22743 0.04471 0.43742 0.0
H952 H 0.22282 0.0652 0.36052 0.0
H953 H 0.27855 0.04558 0.30696 0.0
H954 H 0.28349 0.02536 0.38529 0.0
H955 H 0.22039 0.06204 0.26169 0.0
H956 H 0.30108 0.08574 0.2518 0.0
H957 H 0.33098 0.0868 0.30705 0.0
H958 H 0.29563 0.09157 0.43863 0.0
H959 H 0.26557 0.09079 0.38409 0.0
C960 C 0.2266 0.1368 0.10337 0.0
C961 C 0.22809 0.15554 0.12419 0.0
C962 C 0.23196 0.12008 0.13251 0.0
C963 C 0.23841 0.12173 0.18342 0.0
C964 C 0.2405 0.14049 0.2037 0.0
C965 C 0.23551 0.15725 0.17427 0.0
C966 C 0.24206 0.104 0.21654 0.0
C967 C 0.25977 0.1026 0.2451 0.0
C968 C 0.22777 0.08906 0.22231 0.0
C969 C 0.20824 0.09018 0.19602 0.0
C970 C 0.19561 0.10608 0.20361 0.0
C971 C 0.17726 0.1071 0.17848 0.0
C972 C 0.1713 0.09221 0.14602 0.0
C973 C 0.18367 0.07624 0.13876 0.0
C974 C 0.20205 0.07517 0.16376 0.0
C975 C 0.23858 0.04455 0.40889 0.0
C976 C 0.25597 0.03376 0.41757 0.0
C977 C 0.23586 0.05615 0.36478 0.0
C978 C 0.25048 0.05718 0.32837 0.0
C979 C 0.26721 0.0452 0.33498 0.0
C980 C 0.26997 0.03357 0.37944 0.0
C981 C 0.24882 0.07235 0.28684 0.0
C982 C 0.23152 0.07325 0.25658 0.0
C983 C 0.26316 0.08722 0.28088 0.0
C984 C 0.28112 0.08793 0.31395 0.0
C985 C 0.29972 0.08705 0.29252 0.0
C986 C 0.31668 0.08761 0.32369 0.0
C987 C 0.3152 0.08917 0.37633 0.0
C988 C 0.29676 0.09028 0.39789 0.0
C989 C 0.27976 0.08977 0.36687 0.0
H990 H 0.32835 0.08957 0.4004 0.0
H991 H 0.15709 0.09303 0.1266 0.0
H992 H 0.22594 0.28202 0.09919 0.0
H993 H 0.22635 0.31766 0.10516 0.0
H994 H 0.21502 0.32386 0.94323 0.0
H995 H 0.21453 0.28812 0.93668 0.0
H996 H 0.25142 0.34339 0.06056 0.0
H997 H 0.18709 0.36582 0.9219 0.0
H998 H 0.15513 0.35274 0.89222 0.0
H999 H 0.15044 0.31914 0.0321 0.0
H1000 H 0.18222 0.3322 0.06288 0.0
H1001 H 0.25919 0.44325 0.9839 0.0
H1002 H 0.25397 0.40772 0.98184 0.0
H1003 H 0.20498 0.41295 0.0807 0.0
H1004 H 0.21023 0.44856 0.08299 0.0
H1005 H 0.19716 0.38776 0.00124 0.0
H1006 H 0.2468 0.39759 0.13075 0.0
H1007 H 0.27788 0.41042 0.16681 0.0
H1008 H 0.31019 0.379 0.05753 0.0
H1009 H 0.27926 0.3662 0.02031 0.0
C1010 C 0.22338 0.2909 0.06478 0.0
C1011 C 0.22026 0.28215 0.01737 0.0
C1012 C 0.22368 0.3113 0.06832 0.0
C1013 C 0.22067 0.32339 0.02471 0.0
C1014 C 0.2172 0.31477 0.97744 0.0
C1015 C 0.21701 0.29434 0.97377 0.0
C1016 C 0.222 0.34501 0.02847 0.0
C1017 C 0.23956 0.35308 0.04757 0.0
C1018 C 0.20639 0.35762 0.01231 0.0
C1019 C 0.18714 0.34985 0.99443 0.0
C1020 C 0.1792 0.3557 0.94638 0.0
C1021 C 0.16112 0.34828 0.92937 0.0
C1022 C 0.15079 0.33507 0.96019 0.0
C1023 C 0.15849 0.3293 0.00818 0.0
C1024 C 0.17656 0.33669 0.02539 0.0
C1025 C 0.24718 0.43683 0.0047 0.0
C1026 C 0.2349 0.44864 0.03292 0.0
C1027 C 0.24426 0.41656 0.00366 0.0
C1028 C 0.22911 0.40772 0.03119 0.0
C1029 C 0.21667 0.41951 0.05894 0.0
C1030 C 0.21966 0.43979 0.06023 0.0
C1031 C 0.22673 0.3861 0.03233 0.0
C1032 C 0.20901 0.37804 0.01414 0.0
C1033 C 0.24207 0.37345 0.05011 0.0
C1034 C 0.2607 0.38109 0.07244 0.0
C1035 C 0.26052 0.39355 0.11413 0.0
C1036 C 0.27811 0.40079 0.13483 0.0
C1037 C 0.296 0.39557 0.11439 0.0
C1038 C 0.29633 0.38305 0.07328 0.0
C1039 C 0.27877 0.37579 0.05239 0.0
H1040 H 0.3096 0.40118 0.13049 0.0
H1041 H 0.13681 0.32933 0.94693 0.0
H1042 H 0.21258 0.72056 0.60226 0.0
H1043 H 0.17685 0.72074 0.60447 0.0
H1044 H 0.17322 0.72244 0.44033 0.0
H1045 H 0.20902 0.72205 0.43756 0.0
H1046 H 0.15173 0.74834 0.56951 0.0
H1047 H 0.13126 0.69826 0.40203 0.0
H1048 H 0.14492 0.66998 0.3585 0.0
H1049 H 0.17705 0.65232 0.49523 0.0
H1050 H 0.16337 0.68031 0.53977 0.0
H1051 H 0.0534 0.76295 0.48752 0.0
H1052 H 0.0888 0.75729 0.48458 0.0
H1053 H 0.08205 0.70171 0.5649 0.0
H1054 H 0.04657 0.7074 0.56839 0.0
H1055 H 0.10838 0.70051 0.48238 0.0
H1056 H 0.09675 0.73755 0.63112 0.0
H1057 H 0.08318 0.76486 0.67855 0.0
H1058 H 0.11568 0.80623 0.58798 0.0
H1059 H 0.12921 0.77917 0.53948 0.0
C1060 C 0.20424 0.72088 0.56652 0.0
C1061 C 0.21374 0.72133 0.51969 0.0
C1062 C 0.18379 0.72101 0.56792 0.0
C1063 C 0.17239 0.72148 0.52262 0.0
C1064 C 0.18175 0.72181 0.47578 0.0
C1065 C 0.20224 0.72168 0.47429 0.0
C1066 C 0.1507 0.72241 0.52454 0.0
C1067 C 0.14229 0.73785 0.55048 0.0
C1068 C 0.13837 0.7086 0.50021 0.0
C1069 C 0.14642 0.69151 0.47407 0.0
C1070 C 0.14117 0.68829 0.42287 0.0
C1071 C 0.14893 0.67232 0.398 0.0
C1072 C 0.16189 0.6594 0.42403 0.0
C1073 C 0.16706 0.66238 0.47505 0.0
C1074 C 0.15933 0.67831 0.5001 0.0
C1075 C 0.05944 0.74937 0.50373 0.0
C1076 C 0.04721 0.73542 0.52712 0.0
C1077 C 0.07963 0.7462 0.5022 0.0
C1078 C 0.08798 0.72908 0.52448 0.0
C1079 C 0.07581 0.71492 0.5471 0.0
C1080 C 0.05559 0.71817 0.54901 0.0
C1081 C 0.10956 0.72659 0.5266 0.0
C1082 C 0.11791 0.71093 0.50139 0.0
C1083 C 0.12188 0.74005 0.55213 0.0
C1084 C 0.11384 0.75635 0.58136 0.0
C1085 C 0.10087 0.75248 0.62104 0.0
C1086 C 0.09321 0.76791 0.64816 0.0
C1087 C 0.09853 0.78727 0.6362 0.0
C1088 C 0.11155 0.79123 0.59716 0.0
C1089 C 0.11924 0.77585 0.56987 0.0
H1090 H 0.09259 0.7992 0.65725 0.0
H1091 H 0.1679 0.64706 0.40469 0.0
H1092 H 0.77315 0.7147 0.92925 0.0
H1093 H 0.7758 0.67903 0.92913 0.0
H1094 H 0.78273 0.67719 0.09281 0.0
H1095 H 0.78032 0.71298 0.09343 0.0
H1096 H 0.80917 0.65391 0.04935 0.0
H1097 H 0.73974 0.66379 0.03683 0.0
H1098 H 0.70873 0.67796 0.00183 0.0
H1099 H 0.71923 0.65295 0.85714 0.0
H1100 H 0.75046 0.63885 0.89108 0.0
H1101 H 0.79623 0.55024 0.07633 0.0
H1102 H 0.79237 0.58588 0.0825 0.0
H1103 H 0.78523 0.59135 0.91901 0.0
H1104 H 0.78893 0.55568 0.91295 0.0
H1105 H 0.75826 0.6127 0.96615 0.0
H1106 H 0.8282 0.6036 0.97848 0.0
H1107 H 0.85934 0.58975 0.01357 0.0
H1108 H 0.84785 0.6135 0.15919 0.0
H1109 H 0.81648 0.62724 0.12516 0.0
C1110 C 0.77517 0.70677 0.96533 0.0
C1111 C 0.77645 0.71677 0.01139 0.0
C1112 C 0.7766 0.68634 0.96517 0.0
C1113 C 0.77923 0.67544 0.011 0.0
C1114 C 0.78064 0.68533 0.05702 0.0
C1115 C 0.77919 0.70579 0.05727 0.0
C1116 C 0.78088 0.65375 0.01062 0.0
C1117 C 0.7979 0.64485 0.03191 0.0
C1118 C 0.76635 0.64201 0.98691 0.0
C1119 C 0.74753 0.65041 0.96639 0.0
C1120 C 0.73552 0.66144 0.99743 0.0
C1121 C 0.71788 0.66943 0.9778 0.0
C1122 C 0.71203 0.66639 0.92726 0.0
C1123 C 0.72379 0.65531 0.89627 0.0
C1124 C 0.74145 0.6473 0.9157 0.0
C1125 C 0.794 0.55913 0.0418 0.0
C1126 C 0.79331 0.5504 0.99408 0.0
C1127 C 0.79181 0.57943 0.04531 0.0
C1128 C 0.78881 0.59129 0.00114 0.0
C1129 C 0.78766 0.58248 0.95353 0.0
C1130 C 0.78986 0.56219 0.95004 0.0
C1131 C 0.78663 0.61286 0.00451 0.0
C1132 C 0.76949 0.62174 0.9838 0.0
C1133 C 0.80104 0.62457 0.02883 0.0
C1134 C 0.81987 0.61624 0.04942 0.0
C1135 C 0.83221 0.6057 0.01812 0.0
C1136 C 0.84993 0.5979 0.03779 0.0
C1137 C 0.85554 0.60068 0.08862 0.0
C1138 C 0.84346 0.61131 0.11986 0.0
C1139 C 0.82572 0.61912 0.10039 0.0
H1140 H 0.86926 0.59465 0.10377 0.0
H1141 H 0.69838 0.67259 0.91213 0.0
H1142 H 0.78721 0.29547 0.41964 0.0
H1143 H 0.82284 0.29839 0.41813 0.0
H1144 H 0.82727 0.27929 0.57597 0.0
H1145 H 0.79152 0.27672 0.57824 0.0
H1146 H 0.85181 0.30898 0.55794 0.0
H1147 H 0.83687 0.2478 0.47963 0.0
H1148 H 0.82016 0.22615 0.41857 0.0
H1149 H 0.84448 0.2592 0.29394 0.0
H1150 H 0.86113 0.28122 0.35427 0.0
H1151 H 0.95367 0.28521 0.56282 0.0
H1152 H 0.91779 0.28441 0.56739 0.0
H1153 H 0.91268 0.30326 0.40933 0.0
H1154 H 0.94855 0.3036 0.40455 0.0
H1155 H 0.88846 0.27378 0.42827 0.0
H1156 H 0.90369 0.33486 0.50731 0.0
H1157 H 0.92038 0.35631 0.56889 0.0
H1158 H 0.89566 0.32314 0.69275 0.0
H1159 H 0.87902 0.30133 0.63191 0.0
C1160 C 0.79572 0.29189 0.45413 0.0
C1161 C 0.78646 0.2857 0.49899 0.0
C1162 C 0.81612 0.29351 0.45313 0.0
C1163 C 0.82777 0.28873 0.49668 0.0
C1164 C 0.81858 0.28299 0.54185 0.0
C1165 C 0.79813 0.28149 0.54303 0.0
C1166 C 0.84951 0.28955 0.49491 0.0
C1167 C 0.85986 0.30108 0.53002 0.0
C1168 C 0.85999 0.27957 0.45781 0.0
C1169 C 0.8501 0.26626 0.42147 0.0
C1170 C 0.83854 0.25053 0.4392 0.0
C1171 C 0.8291 0.23819 0.40472 0.0
C1172 C 0.83122 0.24133 0.3524 0.0
C1173 C 0.84283 0.2568 0.33447 0.0
C1174 C 0.85229 0.2692 0.36879 0.0
C1175 C 0.94481 0.28936 0.52932 0.0
C1176 C 0.95377 0.29476 0.4836 0.0
C1177 C 0.92436 0.28896 0.53193 0.0
C1178 C 0.91252 0.29408 0.48889 0.0
C1179 C 0.92151 0.29936 0.44307 0.0
C1180 C 0.94196 0.29965 0.4404 0.0
C1181 C 0.89078 0.29329 0.49113 0.0
C1182 C 0.88043 0.28172 0.45615 0.0
C1183 C 0.88033 0.3032 0.52842 0.0
C1184 C 0.89026 0.31635 0.56506 0.0
C1185 C 0.90193 0.33205 0.54769 0.0
C1186 C 0.91136 0.34429 0.58246 0.0
C1187 C 0.90912 0.34106 0.6347 0.0
C1188 C 0.8974 0.32561 0.65228 0.0
C1189 C 0.88795 0.31332 0.61767 0.0
H1190 H 0.91643 0.35055 0.66156 0.0
H1191 H 0.8239 0.23176 0.32577 0.0
H1192 H 0.73108 0.21726 0.4159 0.0
H1193 H 0.73296 0.18161 0.41283 0.0
H1194 H 0.7234 0.17682 0.57413 0.0
H1195 H 0.72141 0.21261 0.57775 0.0
H1196 H 0.75911 0.15693 0.46125 0.0
H1197 H 0.69703 0.13389 0.59555 0.0
H1198 H 0.66536 0.14657 0.62364 0.0
H1199 H 0.6579 0.17982 0.48306 0.0
H1200 H 0.68937 0.16712 0.45386 0.0
H1201 H 0.76799 0.05609 0.53174 0.0
H1202 H 0.76285 0.09155 0.53725 0.0
H1203 H 0.71263 0.088 0.43411 0.0
H1204 H 0.71777 0.05248 0.42845 0.0
H1205 H 0.7059 0.11196 0.51561 0.0
H1206 H 0.75436 0.10344 0.38883 0.0
H1207 H 0.78522 0.09096 0.35535 0.0
H1208 H 0.81825 0.12134 0.47022 0.0
H1209 H 0.78754 0.13378 0.50484 0.0
C1210 C 0.72926 0.20869 0.4508 0.0
C1211 C 0.72612 0.21786 0.49713 0.0
C1212 C 0.73041 0.18829 0.44893 0.0
C1213 C 0.72826 0.17659 0.49318 0.0
C1214 C 0.72493 0.18561 0.53945 0.0
C1215 C 0.72387 0.20607 0.54145 0.0
C1216 C 0.73002 0.15498 0.49085 0.0
C1217 C 0.74749 0.14711 0.47327 0.0
C1218 C 0.71476 0.14219 0.50595 0.0
C1219 C 0.69567 0.14971 0.5228 0.0
C1220 C 0.68859 0.14385 0.57057 0.0
C1221 C 0.67068 0.15105 0.58669 0.0
C1222 C 0.65966 0.16405 0.55523 0.0
C1223 C 0.66649 0.16982 0.50749 0.0
C1224 C 0.68438 0.16264 0.49117 0.0
C1225 C 0.75576 0.06288 0.51064 0.0
C1226 C 0.74315 0.05161 0.48001 0.0
C1227 C 0.75287 0.08309 0.51372 0.0
C1228 C 0.7374 0.09237 0.48597 0.0
C1229 C 0.72458 0.08109 0.45602 0.0
C1230 C 0.72754 0.06087 0.45273 0.0
C1231 C 0.73507 0.11397 0.48659 0.0
C1232 C 0.71753 0.12182 0.50388 0.0
C1233 C 0.75016 0.12678 0.47057 0.0
C1234 C 0.76864 0.11938 0.44972 0.0
C1235 C 0.76819 0.10733 0.4072 0.0
C1236 C 0.78566 0.10028 0.38797 0.0
C1237 C 0.80368 0.10531 0.41073 0.0
C1238 C 0.80427 0.11743 0.45268 0.0
C1239 C 0.78685 0.1245 0.4721 0.0
H1240 H 0.81719 0.09984 0.39578 0.0
H1241 H 0.6458 0.16962 0.5678 0.0
H1242 H 0.28933 0.21262 0.08978 0.0
H1243 H 0.32515 0.21453 0.08934 0.0
H1244 H 0.32239 0.22999 0.92896 0.0
H1245 H 0.28673 0.22767 0.92868 0.0
H1246 H 0.35134 0.20494 0.94875 0.0
H1247 H 0.32905 0.2649 0.02155 0.0
H1248 H 0.31137 0.28455 0.08278 0.0
H1249 H 0.3459 0.25845 0.20626 0.0
H1250 H 0.36362 0.23845 0.14577 0.0
H1251 H 0.44334 0.25091 0.91355 0.0
H1252 H 0.40841 0.24309 0.92017 0.0
H1253 H 0.41776 0.22733 0.0793 0.0
H1254 H 0.45271 0.23552 0.07278 0.0
H1255 H 0.38605 0.25016 0.06528 0.0
H1256 H 0.41028 0.19213 0.99031 0.0
H1257 H 0.42804 0.1731 0.92798 0.0
H1258 H 0.38996 0.19602 0.80742 0.0
H1259 H 0.37214 0.21542 0.86893 0.0
C1260 C 0.29633 0.21632 0.05433 0.0
C1261 C 0.28508 0.22011 0.00934 0.0
C1262 C 0.31683 0.21748 0.0542 0.0
C1263 C 0.32646 0.22269 0.00926 0.0
C1264 C 0.3153 0.22596 0.9641 0.0
C1265 C 0.29486 0.22467 0.96409 0.0
C1266 C 0.34811 0.22525 0.00916 0.0
C1267 C 0.35891 0.21495 0.97394 0.0
C1268 C 0.35808 0.23795 0.04286 0.0
C1269 C 0.34751 0.25003 0.07921 0.0
C1270 C 0.33277 0.26325 0.0618 0.0
C1271 C 0.32276 0.27447 0.09636 0.0
C1272 C 0.32747 0.27271 0.14839 0.0
C1273 C 0.34224 0.25977 0.16596 0.0
C1274 C 0.35228 0.24851 0.13156 0.0
C1275 C 0.43788 0.24578 0.94987 0.0
C1276 C 0.45055 0.24403 0.99285 0.0
C1277 C 0.41799 0.24119 0.95358 0.0
C1278 C 0.41048 0.23446 0.00016 0.0
C1279 C 0.42321 0.23252 0.04302 0.0
C1280 C 0.44311 0.23717 0.03932 0.0
C1281 C 0.38924 0.23004 0.0044 0.0
C1282 C 0.37852 0.24 0.0404 0.0
C1283 C 0.37934 0.21709 0.97127 0.0
C1284 C 0.38997 0.20535 0.93421 0.0
C1285 C 0.40578 0.19323 0.95046 0.0
C1286 C 0.41585 0.18235 0.91528 0.0
C1287 C 0.41016 0.18338 0.86376 0.0
C1288 C 0.39436 0.19525 0.84733 0.0
C1289 C 0.38426 0.20617 0.88235 0.0
H1290 H 0.41797 0.17495 0.83659 0.0
H1291 H 0.3197 0.2814 0.17509 0.0
H1292 H 0.28081 0.78538 0.59654 0.0
H1293 H 0.28422 0.82096 0.59652 0.0
H1294 H 0.28579 0.82279 0.4326 0.0
H1295 H 0.28252 0.787 0.43206 0.0
H1296 H 0.31385 0.84661 0.47653 0.0
H1297 H 0.24472 0.8356 0.48848 0.0
H1298 H 0.21481 0.8208 0.52349 0.0
H1299 H 0.22836 0.84568 0.66851 0.0
H1300 H 0.25853 0.8604 0.63456 0.0
H1301 H 0.29671 0.94993 0.44748 0.0
H1302 H 0.29503 0.91407 0.44256 0.0
H1303 H 0.29096 0.90917 0.60596 0.0
H1304 H 0.29246 0.94505 0.61073 0.0
H1305 H 0.26393 0.88686 0.55918 0.0
H1306 H 0.33329 0.89739 0.54801 0.0
H1307 H 0.36342 0.91195 0.5136 0.0
H1308 H 0.34959 0.88799 0.36763 0.0
H1309 H 0.31921 0.8735 0.40101 0.0
C1310 C 0.28188 0.79327 0.56035 0.0
C1311 C 0.28125 0.78326 0.51423 0.0
C1312 C 0.28378 0.81365 0.56046 0.0
C1313 C 0.28502 0.82453 0.51454 0.0
C1314 C 0.2848 0.81465 0.46846 0.0
C1315 C 0.28285 0.7942 0.46825 0.0
C1316 C 0.28639 0.84625 0.51495 0.0
C1317 C 0.3028 0.85547 0.49388 0.0
C1318 C 0.27217 0.85772 0.53859 0.0
C1319 C 0.25398 0.84896 0.55908 0.0
C1320 C 0.24141 0.83779 0.52795 0.0
C1321 C 0.22439 0.82943 0.54758 0.0
C1322 C 0.21971 0.83226 0.59822 0.0
C1323 C 0.23202 0.84349 0.6293 0.0
C1324 C 0.24907 0.85185 0.60987 0.0
C1325 C 0.29575 0.94112 0.48229 0.0
C1326 C 0.29516 0.95011 0.52959 0.0
C1327 C 0.2948 0.92068 0.4795 0.0
C1328 C 0.29314 0.90893 0.52398 0.0
C1329 C 0.29236 0.91795 0.57121 0.0
C1330 C 0.29333 0.93838 0.57398 0.0
C1331 C 0.29149 0.88727 0.52115 0.0
C1332 C 0.27498 0.87804 0.54171 0.0
C1333 C 0.30563 0.87582 0.49706 0.0
C1334 C 0.32387 0.88454 0.47687 0.0
C1335 C 0.33658 0.89537 0.50845 0.0
C1336 C 0.35372 0.90359 0.48916 0.0
C1337 C 0.35839 0.90095 0.43842 0.0
C1338 C 0.34594 0.89005 0.40691 0.0
C1339 C 0.32877 0.88182 0.426 0.0
H1340 H 0.37167 0.90731 0.42356 0.0
H1341 H 0.20653 0.82578 0.61335 0.0
H1342 H 0.70894 0.78276 0.92355 0.0
H1343 H 0.67306 0.78397 0.92434 0.0
H1344 H 0.67551 0.78504 0.08838 0.0
H1345 H 0.71118 0.78357 0.08813 0.0
H1346 H 0.64954 0.75874 0.05657 0.0
H1347 H 0.66468 0.82635 0.01287 0.0
H1348 H 0.67761 0.8544 0.96286 0.0
H1349 H 0.64338 0.83707 0.83197 0.0
H1350 H 0.63047 0.80873 0.88099 0.0
H1351 H 0.55302 0.78755 0.11191 0.0
H1352 H 0.58859 0.7854 0.10234 0.0
H1353 H 0.58008 0.78491 0.939 0.0
H1354 H 0.54446 0.78746 0.94865 0.0
H1355 H 0.60876 0.80939 0.96462 0.0
H1356 H 0.59238 0.74302 0.00749 0.0
H1357 H 0.57755 0.71599 0.05749 0.0
H1358 H 0.61335 0.73068 0.18801 0.0
H1359 H 0.62821 0.758 0.13899 0.0
C1360 C 0.70186 0.78337 0.9598 0.0
C1361 C 0.71301 0.78298 0.00578 0.0
C1362 C 0.68134 0.78413 0.96015 0.0
C1363 C 0.6716 0.78468 0.00643 0.0
C1364 C 0.6827 0.78455 0.05223 0.0
C1365 C 0.70314 0.78374 0.05196 0.0
C1366 C 0.64984 0.78469 0.00771 0.0
C1367 C 0.64064 0.76995 0.03687 0.0
C1368 C 0.63816 0.79889 0.98059 0.0
C1369 C 0.64677 0.8153 0.95046 0.0
C1370 C 0.66014 0.82835 0.97322 0.0
C1371 C 0.6674 0.84435 0.94508 0.0
C1372 C 0.66128 0.84753 0.89429 0.0
C1373 C 0.64808 0.83459 0.87133 0.0
C1374 C 0.64081 0.81856 0.89924 0.0
C1375 C 0.55881 0.78705 0.07404 0.0
C1376 C 0.54615 0.78794 0.03093 0.0
C1377 C 0.57907 0.78567 0.06858 0.0
C1378 C 0.58699 0.78481 0.01995 0.0
C1379 C 0.5743 0.78558 0.97685 0.0
C1380 C 0.55403 0.78703 0.98233 0.0
C1381 C 0.60853 0.78365 0.01408 0.0
C1382 C 0.61767 0.79811 0.98399 0.0
C1383 C 0.62015 0.76912 0.04007 0.0
C1384 C 0.61129 0.75267 0.06966 0.0
C1385 C 0.59698 0.74059 0.04696 0.0
C1386 C 0.58859 0.72519 0.07511 0.0
C1387 C 0.59447 0.72165 0.12592 0.0
C1388 C 0.6088 0.73346 0.14866 0.0
C1389 C 0.61723 0.74889 0.12069 0.0
H1390 H 0.58795 0.70972 0.14765 0.0
H1391 H 0.66663 0.86008 0.87272 0.0
loop_
_geom_bond_atom_site_label_1
_geom_bond_atom_site_label_2
_geom_bond_distance
_geom_bond_site_symmetry_2
_ccdc_geom_bond_type
Sc0 O3 2.025 . S
Sc0 O10 2.105 . S
Sc0 O13 2.105 . S
Sc0 O16 2.105 . S
Sc0 O19 2.105 . S
Sc1 O3 2.025 . S
Sc1 O11 2.105 . S
Sc1 O15 2.105 1_554 S
Sc1 O17 2.105 . S
Sc1 O21 2.105 1_554 S
Sc2 O3 2.025 1_556 S
Sc2 O12 2.105 . S
Sc2 O14 2.105 . S
Sc2 O18 2.105 . S
Sc2 O20 2.105 . S
O3 Sc0 2.025 . S
O3 Sc1 2.025 . S
O3 Sc2 2.025 1_554 S
C4 O10 1.268 . S
C4 O20 1.268 1_554 S
C5 O11 1.268 . S
C5 O19 1.268 . S
C6 O12 1.268 . S
C6 O21 1.268 . S
C7 O13 1.268 . S
C7 O17 1.268 . S
C8 O14 1.268 1_554 S
C8 O16 1.268 . S
C9 O15 1.268 . S
C9 O18 1.268 . S
O10 Sc0 2.105 . S
O10 C4 1.268 . S
O11 Sc1 2.105 . S
O11 C5 1.268 . S
O12 Sc2 2.105 . S
O12 C6 1.268 . S
O13 Sc0 2.105 . S
O13 C7 1.268 . S
O14 Sc2 2.105 . S
O14 C8 1.268 1_556 S
O15 Sc1 2.105 1_556 S
O15 C9 1.268 . S
O16 Sc0 2.105 . S
O16 C8 1.268 . S
O17 Sc1 2.105 . S
O17 C7 1.268 . S
O18 Sc2 2.105 . S
O18 C9 1.268 . S
O19 Sc0 2.105 . S
O19 C5 1.268 . S
O20 Sc2 2.105 . S
O20 C4 1.268 1_556 S
O21 Sc1 2.105 1_556 S
O21 C6 1.268 . S
Sc22 O25 2.025 . S
Sc22 O32 2.105 . S
Sc22 O35 2.105 . S
Sc22 O38 2.105 . S
Sc22 O41 2.105 . S
Sc23 O25 2.025 . S
Sc23 O33 2.105 . S
Sc23 O37 2.105 . S
Sc23 O39 2.105 . S
Sc23 O43 2.105 . S
Sc24 O25 2.025 . S
Sc24 O34 2.105 . S
Sc24 O36 2.105 . S
Sc24 O40 2.105 . S
Sc24 O42 2.105 . S
O25 Sc22 2.025 . S
O25 Sc23 2.025 . S
O25 Sc24 2.025 . S
C26 O32 1.268 . S
C26 O42 1.268 . S
C27 O33 1.268 . S
C27 O41 1.268 . S
C28 O34 1.268 . S
C28 O43 1.268 . S
C29 O35 1.268 . S
C29 O39 1.268 . S
C30 O36 1.268 . S
C30 O38 1.268 . S
C31 O37 1.268 . S
C31 O40 1.268 . S
O32 Sc22 2.105 . S
O32 C26 1.268 . S
O33 Sc23 2.105 . S
O33 C27 1.268 . S
O34 Sc24 2.105 . S
O34 C28 1.268 . S
O35 Sc22 2.105 . S
O35 C29 1.268 . S
O36 Sc24 2.105 . S
O36 C30 1.268 . S
O37 Sc23 2.105 . S
O37 C31 1.268 . S
O38 Sc22 2.105 . S
O38 C30 1.268 . S
O39 Sc23 2.105 . S
O39 C29 1.268 . S
O40 Sc24 2.105 . S
O40 C31 1.268 . S
O41 Sc22 2.105 . S
O41 C27 1.268 . S
O42 Sc24 2.105 . S
O42 C26 1.268 . S
O43 Sc23 2.105 . S
O43 C28 1.268 . S
Sc44 O47 2.025 1_556 S
Sc44 O54 2.105 . S
Sc44 O57 2.105 . S
Sc44 O60 2.105 . S
Sc44 O63 2.105 . S
Sc45 O47 2.025 . S
Sc45 O55 2.105 1_554 S
Sc45 O59 2.105 . S
Sc45 O61 2.105 1_554 S
Sc45 O65 2.105 . S
Sc46 O47 2.025 . S
Sc46 O56 2.105 . S
Sc46 O58 2.105 . S
Sc46 O62 2.105 . S
Sc46 O64 2.105 . S
O47 Sc44 2.025 1_554 S
O47 Sc45 2.025 . S
O47 Sc46 2.025 . S
C48 O54 1.268 1_554 S
C48 O64 1.268 . S
C49 O55 1.268 . S
C49 O63 1.268 . S
C50 O56 1.268 . S
C50 O65 1.268 . S
C51 O57 1.268 . S
C51 O61 1.268 . S
C52 O58 1.268 . S
C52 O60 1.268 1_554 S
C53 O59 1.268 . S
C53 O62 1.268 . S
O54 Sc44 2.105 . S
O54 C48 1.268 1_556 S
O55 Sc45 2.105 1_556 S
O55 C49 1.268 . S
O56 Sc46 2.105 . S
O56 C50 1.268 . S
O57 Sc44 2.105 . S
O57 C51 1.268 . S
O58 Sc46 2.105 . S
O58 C52 1.268 . S
O59 Sc45 2.105 . S
O59 C53 1.268 . S
O60 Sc44 2.105 . S
O60 C52 1.268 1_556 S
O61 Sc45 2.105 1_556 S
O61 C51 1.268 . S
O62 Sc46 2.105 . S
O62 C53 1.268 . S
O63 Sc44 2.105 . S
O63 C49 1.268 . S
O64 Sc46 2.105 . S
O64 C48 1.268 . S
O65 Sc45 2.105 . S
O65 C50 1.268 . S
Sc66 O69 2.025 . S
Sc66 O76 2.105 . S
Sc66 O79 2.105 . S
Sc66 O82 2.105 . S
Sc66 O85 2.105 . S
Sc67 O69 2.025 . S
Sc67 O77 2.105 . S
Sc67 O81 2.105 . S
Sc67 O83 2.105 . S
Sc67 O87 2.105 . S
Sc68 O69 2.025 . S
Sc68 O78 2.105 . S
Sc68 O80 2.105 . S
Sc68 O84 2.105 . S
Sc68 O86 2.105 . S
O69 Sc66 2.025 . S
O69 Sc67 2.025 . S
O69 Sc68 2.025 . S
C70 O76 1.268 . S
C70 O86 1.268 . S
C71 O77 1.268 . S
C71 O85 1.268 . S
C72 O78 1.268 . S
C72 O87 1.268 . S
C73 O79 1.268 . S
C73 O83 1.268 . S
C74 O80 1.268 . S
C74 O82 1.268 . S
C75 O81 1.268 . S
C75 O84 1.268 . S
O76 Sc66 2.105 . S
O76 C70 1.268 . S
O77 Sc67 2.105 . S
O77 C71 1.268 . S
O78 Sc68 2.105 . S
O78 C72 1.268 . S
O79 Sc66 2.105 . S
O79 C73 1.268 . S
O80 Sc68 2.105 . S
O80 C74 1.268 . S
O81 Sc67 2.105 . S
O81 C75 1.268 . S
O82 Sc66 2.105 . S
O82 C74 1.268 . S
O83 Sc67 2.105 . S
O83 C73 1.268 . S
O84 Sc68 2.105 . S
O84 C75 1.268 . S
O85 Sc66 2.105 . S
O85 C71 1.268 . S
O86 Sc68 2.105 . S
O86 C70 1.268 . S
O87 Sc67 2.105 . S
O87 C72 1.268 . S
H88 C95 0.929 . S
H89 C98 0.930 . S
H90 C100 0.929 . S
H91 C92 0.969 . S
C92 H91 0.969 . S
C92 O93 1.550 1_556 S
C92 H94 0.973 . S
O93 C92 1.550 1_554 S
O93 C99 1.412 . S
H94 C92 0.973 . S
C95 H88 0.929 . S
C95 C96 1.400 . S
C95 C97 1.364 1_554 S
C96 C95 1.400 . S
C96 C100 1.377 . S
C97 C95 1.364 1_556 S
C97 C98 1.374 . S
C98 H89 0.930 . S
C98 C97 1.374 . S
C98 C99 1.383 1_556 S
C99 O93 1.412 . S
C99 C98 1.383 1_554 S
C99 C100 1.394 . S
C100 H90 0.929 . S
C100 C96 1.377 . S
C100 C99 1.394 . S
H101 C108 0.929 . S
H102 C111 0.930 . S
H103 C113 0.929 . S
H104 C105 0.969 . S
C105 H104 0.969 . S
C105 O106 1.550 . S
C105 H107 0.973 . S
O106 C105 1.550 . S
O106 C112 1.412 1_455 S
H107 C105 0.973 . S
C108 H101 0.929 . S
C108 C109 1.400 . S
C108 C110 1.364 . S
C109 C108 1.400 . S
C109 C113 1.377 . S
C110 C108 1.364 . S
C110 C111 1.374 . S
C111 H102 0.930 . S
C111 C110 1.374 . S
C111 C112 1.383 . S
C112 O106 1.412 1_655 S
C112 C111 1.383 . S
C112 C113 1.394 . S
C113 H103 0.929 . S
C113 C109 1.377 . S
C113 C112 1.394 . S
H114 C121 0.927 1_554 S
H115 C124 0.930 . S
H116 C126 0.929 . S
H117 C118 0.969 . S
C118 H117 0.969 . S
C118 O119 1.550 1_554 S
C118 H120 0.973 . S
O119 C118 1.550 1_556 S
O119 C125 1.412 . S
H120 C118 0.973 . S
C121 H114 0.927 1_556 S
C121 C122 1.410 . S
C121 C123 1.355 1_556 S
C122 C121 1.410 . S
C122 C126 1.377 . S
C123 C121 1.355 1_554 S
C123 C124 1.374 . S
C124 H115 0.930 . S
C124 C123 1.374 . S
C124 C125 1.383 1_554 S
C125 O119 1.412 . S
C125 C124 1.383 1_556 S
C125 C126 1.394 . S
C126 H116 0.929 . S
C126 C122 1.377 . S
C126 C125 1.394 . S
H127 C134 0.929 . S
H128 C137 0.930 . S
H129 C139 0.929 . S
H130 C131 0.969 . S
C131 H130 0.969 . S
C131 O132 1.550 . S
C131 H133 0.973 . S
O132 C131 1.550 . S
O132 C138 1.412 1_655 S
H133 C131 0.973 . S
C134 H127 0.929 . S
C134 C135 1.400 . S
C134 C136 1.364 . S
C135 C134 1.400 . S
C135 C139 1.377 . S
C136 C134 1.364 . S
C136 C137 1.374 . S
C137 H128 0.930 . S
C137 C136 1.374 . S
C137 C138 1.383 . S
C138 O132 1.412 1_455 S
C138 C137 1.383 . S
C138 C139 1.394 . S
C139 H129 0.929 . S
C139 C135 1.377 . S
C139 C138 1.394 . S
H140 C147 0.929 . S
H141 C150 0.930 . S
H142 C152 0.929 . S
H143 C144 0.969 . S
C144 H143 0.969 . S
C144 O145 1.550 . S
C144 H146 0.973 . S
O145 C144 1.550 . S
O145 C151 1.412 1_545 S
H146 C144 0.973 . S
C147 H140 0.929 . S
C147 C148 1.400 . S
C147 C149 1.364 . S
C148 C147 1.400 . S
C148 C152 1.377 . S
C149 C147 1.364 . S
C149 C150 1.374 . S
C150 H141 0.930 . S
C150 C149 1.374 . S
C150 C151 1.383 . S
C151 O145 1.412 1_565 S
C151 C150 1.383 . S
C151 C152 1.394 . S
C152 H142 0.929 . S
C152 C148 1.377 . S
C152 C151 1.394 . S
H153 C160 0.927 1_554 S
H154 C163 0.930 . S
H155 C165 0.929 . S
H156 C157 0.969 . S
C157 H156 0.969 . S
C157 O158 1.550 1_554 S
C157 H159 0.973 . S
O158 C157 1.550 1_556 S
O158 C164 1.412 . S
H159 C157 0.973 . S
C160 H153 0.927 1_556 S
C160 C161 1.410 . S
C160 C162 1.355 1_556 S
C161 C160 1.410 . S
C161 C165 1.377 . S
C162 C160 1.355 1_554 S
C162 C163 1.374 . S
C163 H154 0.930 . S
C163 C162 1.374 . S
C163 C164 1.383 1_554 S
C164 O158 1.412 . S
C164 C163 1.383 1_556 S
C164 C165 1.394 . S
C165 H155 0.929 . S
C165 C161 1.377 . S
C165 C164 1.394 . S
H166 C173 0.929 . S
H167 C176 0.930 . S
H168 C178 0.929 . S
H169 C170 0.969 . S
C170 H169 0.969 . S
C170 O171 1.550 . S
C170 H172 0.973 . S
O171 C170 1.550 . S
O171 C177 1.412 1_565 S
H172 C170 0.973 . S
C173 H166 0.929 . S
C173 C174 1.400 . S
C173 C175 1.364 . S
C174 C173 1.400 . S
C174 C178 1.377 . S
C175 C173 1.364 . S
C175 C176 1.374 . S
C176 H167 0.930 . S
C176 C175 1.374 . S
C176 C177 1.383 . S
C177 O171 1.412 1_545 S
C177 C176 1.383 . S
C177 C178 1.394 . S
C178 H168 0.929 . S
C178 C174 1.377 . S
C178 C177 1.394 . S
H179 C186 0.929 . S
H180 C189 0.930 . S
H181 C191 0.929 . S
H182 C183 0.969 . S
C183 H182 0.969 . S
C183 O184 1.550 1_556 S
C183 H185 0.973 . S
O184 C183 1.550 1_554 S
O184 C190 1.412 . S
H185 C183 0.973 . S
C186 H179 0.929 . S
C186 C187 1.400 . S
C186 C188 1.364 1_554 S
C187 C186 1.400 . S
C187 C191 1.377 . S
C188 C186 1.364 1_556 S
C188 C189 1.374 . S
C189 H180 0.930 . S
C189 C188 1.374 . S
C189 C190 1.383 1_556 S
C190 O184 1.412 . S
C190 C189 1.383 1_554 S
C190 C191 1.394 . S
C191 H181 0.929 . S
C191 C187 1.377 . S
C191 C190 1.394 . S
H192 C210 0.951 . S
H193 C212 0.951 . S
H194 C214 0.950 . S
H195 C215 0.950 . S
H196 C217 0.950 . S
H197 C220 0.950 . S
H198 C221 0.950 . S
H199 C223 0.950 . S
H200 C224 0.950 . S
H201 C225 0.951 . S
H202 C227 0.951 . S
H203 C229 0.950 . S
H204 C230 0.950 . S
H205 C232 0.950 . S
H206 C235 0.950 . S
H207 C236 0.950 . S
H208 C238 0.950 . S
H209 C239 0.950 . S
C210 H192 0.951 . S
C210 C211 1.366 . S
C210 C212 1.388 . S
C211 C210 1.366 . S
C211 C215 1.385 . S
C212 H193 0.951 . S
C212 C210 1.388 . S
C212 C213 1.366 . S
C213 C212 1.366 . S
C213 C214 1.414 . S
C213 C216 1.499 . S
C214 H194 0.950 . S
C214 C213 1.414 . S
C214 C215 1.374 . S
C215 H195 0.950 . S
C215 C211 1.385 . S
C215 C214 1.374 . S
C216 C213 1.499 . S
C216 C217 1.373 . S
C216 C218 1.389 . S
C217 H196 0.950 . S
C217 C216 1.373 . S
C217 C233 1.377 . S
C218 C216 1.389 . S
C218 C219 1.524 . S
C218 C232 1.377 . S
C219 C218 1.524 . S
C219 C220 1.397 . S
C219 C224 1.363 . S
C220 H197 0.950 . S
C220 C219 1.397 . S
C220 C221 1.334 . S
C221 H198 0.950 . S
C221 C220 1.334 . S
C221 C222 1.287 . S
C222 C221 1.287 . S
C222 C223 1.524 . S
C222 H241 0.913 . S
C223 H199 0.950 . S
C223 C222 1.524 . S
C223 C224 1.415 . S
C224 H200 0.950 . S
C224 C219 1.363 . S
C224 C223 1.415 . S
C225 H201 0.951 . S
C225 C226 1.366 . S
C225 C227 1.388 . S
C226 C225 1.366 . S
C226 C230 1.385 . S
C227 H202 0.951 . S
C227 C225 1.388 . S
C227 C228 1.366 . S
C228 C227 1.366 . S
C228 C229 1.414 . S
C228 C231 1.499 . S
C229 H203 0.950 . S
C229 C228 1.414 . S
C229 C230 1.374 . S
C230 H204 0.950 . S
C230 C226 1.385 . S
C230 C229 1.374 . S
C231 C228 1.499 . S
C231 C232 1.373 . S
C231 C233 1.389 . S
C232 H205 0.950 . S
C232 C218 1.377 . S
C232 C231 1.373 . S
C233 C217 1.377 . S
C233 C231 1.389 . S
C233 C234 1.524 . S
C234 C233 1.524 . S
C234 C235 1.397 . S
C234 C239 1.363 . S
C235 H206 0.950 . S
C235 C234 1.397 . S
C235 C236 1.334 . S
C236 H207 0.950 . S
C236 C235 1.334 . S
C236 C237 1.287 . S
C237 C236 1.287 . S
C237 C238 1.524 . S
C237 H240 0.999 . S
C238 H208 0.950 . S
C238 C237 1.524 . S
C238 C239 1.415 . S
C239 H209 0.950 . S
C239 C234 1.363 . S
C239 C238 1.415 . S
H240 C237 0.999 . S
H241 C222 0.913 . S
H242 C260 0.951 . S
H243 C262 0.951 . S
H244 C264 0.950 . S
H245 C265 0.950 . S
H246 C267 0.950 . S
H247 C270 0.950 . S
H248 C271 0.950 . S
H249 C273 0.950 . S
H250 C274 0.950 . S
H251 C275 0.951 . S
H252 C277 0.951 . S
H253 C279 0.950 . S
H254 C280 0.950 . S
H255 C282 0.950 . S
H256 C285 0.950 . S
H257 C286 0.950 . S
H258 C288 0.950 . S
H259 C289 0.950 . S
C260 H242 0.951 . S
C260 C261 1.366 . S
C260 C262 1.388 . S
C261 C260 1.366 . S
C261 C265 1.385 . S
C262 H243 0.951 . S
C262 C260 1.388 . S
C262 C263 1.366 . S
C263 C262 1.366 . S
C263 C264 1.414 . S
C263 C266 1.499 . S
C264 H244 0.950 . S
C264 C263 1.414 . S
C264 C265 1.374 . S
C265 H245 0.950 . S
C265 C261 1.385 . S
C265 C264 1.374 . S
C266 C263 1.499 . S
C266 C267 1.373 . S
C266 C268 1.389 . S
C267 H246 0.950 . S
C267 C266 1.373 . S
C267 C283 1.377 . S
C268 C266 1.389 . S
C268 C269 1.524 . S
C268 C282 1.377 . S
C269 C268 1.524 . S
C269 C270 1.397 . S
C269 C274 1.363 . S
C270 H247 0.950 . S
C270 C269 1.397 . S
C270 C271 1.334 . S
C271 H248 0.950 . S
C271 C270 1.334 . S
C271 C272 1.287 . S
C272 C271 1.287 . S
C272 C273 1.524 . S
C272 H291 0.913 . S
C273 H249 0.950 . S
C273 C272 1.524 . S
C273 C274 1.415 . S
C274 H250 0.950 . S
C274 C269 1.363 . S
C274 C273 1.415 . S
C275 H251 0.951 . S
C275 C276 1.366 . S
C275 C277 1.388 . S
C276 C275 1.366 . S
C276 C280 1.385 . S
C277 H252 0.951 . S
C277 C275 1.388 . S
C277 C278 1.366 . S
C278 C277 1.366 . S
C278 C279 1.414 . S
C278 C281 1.499 . S
C279 H253 0.950 . S
C279 C278 1.414 . S
C279 C280 1.374 . S
C280 H254 0.950 . S
C280 C276 1.385 . S
C280 C279 1.374 . S
C281 C278 1.499 . S
C281 C282 1.373 . S
C281 C283 1.389 . S
C282 H255 0.950 . S
C282 C268 1.377 . S
C282 C281 1.373 . S
C283 C267 1.377 . S
C283 C281 1.389 . S
C283 C284 1.524 . S
C284 C283 1.524 . S
C284 C285 1.397 . S
C284 C289 1.363 . S
C285 H256 0.950 . S
C285 C284 1.397 . S
C285 C286 1.334 . S
C286 H257 0.950 . S
C286 C285 1.334 . S
C286 C287 1.287 . S
C287 C286 1.287 . S
C287 C288 1.524 . S
C287 H290 0.999 . S
C288 H258 0.950 . S
C288 C287 1.524 . S
C288 C289 1.415 . S
C289 H259 0.950 . S
C289 C284 1.363 . S
C289 C288 1.415 . S
H290 C287 0.999 . S
H291 C272 0.913 . S
H292 C310 0.951 . S
H293 C312 0.951 . S
H294 C314 0.950 . S
H295 C315 0.950 . S
H296 C317 0.950 . S
H297 C320 0.950 . S
H298 C321 0.950 . S
H299 C323 0.950 . S
H300 C324 0.950 . S
H301 C325 0.951 . S
H302 C327 0.951 . S
H303 C329 0.950 . S
H304 C330 0.950 . S
H305 C332 0.950 . S
H306 C335 0.950 . S
H307 C336 0.950 . S
H308 C338 0.950 . S
H309 C339 0.950 . S
C310 H292 0.951 . S
C310 C311 1.366 . S
C310 C312 1.388 . S
C311 C310 1.366 . S
C311 C315 1.385 . S
C312 H293 0.951 . S
C312 C310 1.388 . S
C312 C313 1.366 . S
C313 C312 1.366 . S
C313 C314 1.414 . S
C313 C316 1.499 . S
C314 H294 0.950 . S
C314 C313 1.414 . S
C314 C315 1.374 . S
C315 H295 0.950 . S
C315 C311 1.385 . S
C315 C314 1.374 . S
C316 C313 1.499 . S
C316 C317 1.373 . S
C316 C318 1.389 . S
C317 H296 0.950 . S
C317 C316 1.373 . S
C317 C333 1.377 . S
C318 C316 1.389 . S
C318 C319 1.524 . S
C318 C332 1.377 . S
C319 C318 1.524 . S
C319 C320 1.397 . S
C319 C324 1.363 . S
C320 H297 0.950 . S
C320 C319 1.397 . S
C320 C321 1.334 . S
C321 H298 0.950 . S
C321 C320 1.334 . S
C321 C322 1.287 . S
C322 C321 1.287 . S
C322 C323 1.524 . S
C322 H341 0.913 . S
C323 H299 0.950 . S
C323 C322 1.524 . S
C323 C324 1.415 . S
C324 H300 0.950 . S
C324 C319 1.363 . S
C324 C323 1.415 . S
C325 H301 0.951 . S
C325 C326 1.366 . S
C325 C327 1.388 . S
C326 C325 1.366 . S
C326 C330 1.385 . S
C327 H302 0.951 . S
C327 C325 1.388 . S
C327 C328 1.366 . S
C328 C327 1.366 . S
C328 C329 1.414 . S
C328 C331 1.499 . S
C329 H303 0.950 . S
C329 C328 1.414 . S
C329 C330 1.374 . S
C330 H304 0.950 . S
C330 C326 1.385 . S
C330 C329 1.374 . S
C331 C328 1.499 . S
C331 C332 1.373 . S
C331 C333 1.389 . S
C332 H305 0.950 . S
C332 C318 1.377 . S
C332 C331 1.373 . S
C333 C317 1.377 . S
C333 C331 1.389 . S
C333 C334 1.524 . S
C334 C333 1.524 . S
C334 C335 1.397 . S
C334 C339 1.363 . S
C335 H306 0.950 . S
C335 C334 1.397 . S
C335 C336 1.334 . S
C336 H307 0.950 . S
C336 C335 1.334 . S
C336 C337 1.287 . S
C337 C336 1.287 . S
C337 C338 1.524 . S
C337 H340 0.999 . S
C338 H308 0.950 . S
C338 C337 1.524 . S
C338 C339 1.415 . S
C339 H309 0.950 . S
C339 C334 1.363 . S
C339 C338 1.415 . S
H340 C337 0.999 . S
H341 C322 0.913 . S
H342 C360 0.951 . S
H343 C362 0.951 . S
H344 C364 0.950 . S
H345 C365 0.950 . S
H346 C367 0.950 . S
H347 C370 0.950 . S
H348 C371 0.950 . S
H349 C373 0.950 . S
H350 C374 0.950 . S
H351 C375 0.951 . S
H352 C377 0.951 . S
H353 C379 0.950 . S
H354 C380 0.950 . S
H355 C382 0.950 . S
H356 C385 0.950 . S
H357 C386 0.950 . S
H358 C388 0.950 . S
H359 C389 0.950 . S
C360 H342 0.951 . S
C360 C361 1.366 . S
C360 C362 1.388 . S
C361 C360 1.366 . S
C361 C365 1.385 . S
C362 H343 0.951 . S
C362 C360 1.388 . S
C362 C363 1.366 . S
C363 C362 1.366 . S
C363 C364 1.414 . S
C363 C366 1.499 . S
C364 H344 0.950 . S
C364 C363 1.414 . S
C364 C365 1.374 . S
C365 H345 0.950 . S
C365 C361 1.385 . S
C365 C364 1.374 . S
C366 C363 1.499 . S
C366 C367 1.373 . S
C366 C368 1.389 . S
C367 H346 0.950 . S
C367 C366 1.373 . S
C367 C383 1.377 . S
C368 C366 1.389 . S
C368 C369 1.524 . S
C368 C382 1.377 . S
C369 C368 1.524 . S
C369 C370 1.397 . S
C369 C374 1.363 . S
C370 H347 0.950 . S
C370 C369 1.397 . S
C370 C371 1.334 . S
C371 H348 0.950 . S
C371 C370 1.334 . S
C371 C372 1.287 . S
C372 C371 1.287 . S
C372 C373 1.524 . S
C372 H391 0.913 . S
C373 H349 0.950 . S
C373 C372 1.524 . S
C373 C374 1.415 . S
C374 H350 0.950 . S
C374 C369 1.363 . S
C374 C373 1.415 . S
C375 H351 0.951 . S
C375 C376 1.366 . S
C375 C377 1.388 . S
C376 C375 1.366 . S
C376 C380 1.385 . S
C377 H352 0.951 . S
C377 C375 1.388 . S
C377 C378 1.366 . S
C378 C377 1.366 . S
C378 C379 1.414 . S
C378 C381 1.499 . S
C379 H353 0.950 . S
C379 C378 1.414 . S
C379 C380 1.374 . S
C380 H354 0.950 . S
C380 C376 1.385 . S
C380 C379 1.374 . S
C381 C378 1.499 . S
C381 C382 1.373 . S
C381 C383 1.389 . S
C382 H355 0.950 . S
C382 C368 1.377 . S
C382 C381 1.373 . S
C383 C367 1.377 . S
C383 C381 1.389 . S
C383 C384 1.524 . S
C384 C383 1.524 . S
C384 C385 1.397 . S
C384 C389 1.363 . S
C385 H356 0.950 . S
C385 C384 1.397 . S
C385 C386 1.334 . S
C386 H357 0.950 . S
C386 C385 1.334 . S
C386 C387 1.287 . S
C387 C386 1.287 . S
C387 C388 1.524 . S
C387 H390 0.981 1_556 S
C388 H358 0.950 . S
C388 C387 1.524 . S
C388 C389 1.415 . S
C389 H359 0.950 . S
C389 C384 1.363 . S
C389 C388 1.415 . S
H390 C387 0.981 1_554 S
H391 C372 0.913 . S
H392 C410 0.951 . S
H393 C412 0.951 . S
H394 C414 0.950 . S
H395 C415 0.950 . S
H396 C417 0.950 . S
H397 C420 0.950 . S
H398 C421 0.950 . S
H399 C423 0.950 . S
H400 C424 0.950 . S
H401 C425 0.951 . S
H402 C427 0.951 . S
H403 C429 0.950 . S
H404 C430 0.950 . S
H405 C432 0.950 . S
H406 C435 0.950 . S
H407 C436 0.950 . S
H408 C438 0.950 . S
H409 C439 0.950 . S
C410 H392 0.951 . S
C410 C411 1.366 . S
C410 C412 1.388 . S
C411 C410 1.366 . S
C411 C415 1.385 . S
C412 H393 0.951 . S
C412 C410 1.388 . S
C412 C413 1.366 . S
C413 C412 1.366 . S
C413 C414 1.414 . S
C413 C416 1.499 . S
C414 H394 0.950 . S
C414 C413 1.414 . S
C414 C415 1.374 . S
C415 H395 0.950 . S
C415 C411 1.385 . S
C415 C414 1.374 . S
C416 C413 1.499 . S
C416 C417 1.373 . S
C416 C418 1.389 . S
C417 H396 0.950 . S
C417 C416 1.373 . S
C417 C433 1.377 . S
C418 C416 1.389 . S
C418 C419 1.524 . S
C418 C432 1.377 . S
C419 C418 1.524 . S
C419 C420 1.397 . S
C419 C424 1.363 . S
C420 H397 0.950 . S
C420 C419 1.397 . S
C420 C421 1.334 . S
C421 H398 0.950 . S
C421 C420 1.334 . S
C421 C422 1.287 . S
C422 C421 1.287 . S
C422 C423 1.524 . S
C422 H441 0.913 . S
C423 H399 0.950 . S
C423 C422 1.524 . S
C423 C424 1.415 . S
C424 H400 0.950 . S
C424 C419 1.363 . S
C424 C423 1.415 . S
C425 H401 0.951 . S
C425 C426 1.366 . S
C425 C427 1.388 . S
C426 C425 1.366 . S
C426 C430 1.385 . S
C427 H402 0.951 . S
C427 C425 1.388 . S
C427 C428 1.366 . S
C428 C427 1.366 . S
C428 C429 1.414 . S
C428 C431 1.499 . S
C429 H403 0.950 . S
C429 C428 1.414 . S
C429 C430 1.374 . S
C430 H404 0.950 . S
C430 C426 1.385 . S
C430 C429 1.374 . S
C431 C428 1.499 . S
C431 C432 1.373 . S
C431 C433 1.389 . S
C432 H405 0.950 . S
C432 C418 1.377 . S
C432 C431 1.373 . S
C433 C417 1.377 . S
C433 C431 1.389 . S
C433 C434 1.524 . S
C434 C433 1.524 . S
C434 C435 1.397 . S
C434 C439 1.363 . S
C435 H406 0.950 . S
C435 C434 1.397 . S
C435 C436 1.334 . S
C436 H407 0.950 . S
C436 C435 1.334 . S
C436 C437 1.287 . S
C437 C436 1.287 . S
C437 C438 1.524 . S
C437 H440 0.999 . S
C438 H408 0.950 . S
C438 C437 1.524 . S
C438 C439 1.415 . S
C439 H409 0.950 . S
C439 C434 1.363 . S
C439 C438 1.415 . S
H440 C437 0.999 . S
H441 C422 0.913 . S
H442 C460 0.951 . S
H443 C462 0.951 . S
H444 C464 0.950 . S
H445 C465 0.950 . S
H446 C467 0.950 . S
H447 C470 0.950 . S
H448 C471 0.950 . S
H449 C473 0.950 . S
H450 C474 0.950 . S
H451 C475 0.951 . S
H452 C477 0.951 . S
H453 C479 0.950 . S
H454 C480 0.950 . S
H455 C482 0.950 . S
H456 C485 0.950 . S
H457 C486 0.950 . S
H458 C488 0.950 . S
H459 C489 0.950 . S
C460 H442 0.951 . S
C460 C461 1.366 . S
C460 C462 1.388 . S
C461 C460 1.366 . S
C461 C465 1.385 . S
C462 H443 0.951 . S
C462 C460 1.388 . S
C462 C463 1.366 . S
C463 C462 1.366 . S
C463 C464 1.414 . S
C463 C466 1.499 . S
C464 H444 0.950 . S
C464 C463 1.414 . S
C464 C465 1.374 . S
C465 H445 0.950 . S
C465 C461 1.385 . S
C465 C464 1.374 . S
C466 C463 1.499 . S
C466 C467 1.373 . S
C466 C468 1.389 . S
C467 H446 0.950 . S
C467 C466 1.373 . S
C467 C483 1.377 . S
C468 C466 1.389 . S
C468 C469 1.524 . S
C468 C482 1.377 . S
C469 C468 1.524 . S
C469 C470 1.397 . S
C469 C474 1.363 . S
C470 H447 0.950 . S
C470 C469 1.397 . S
C470 C471 1.334 . S
C471 H448 0.950 . S
C471 C470 1.334 . S
C471 C472 1.287 . S
C472 C471 1.287 . S
C472 C473 1.524 . S
C472 H491 0.913 . S
C473 H449 0.950 . S
C473 C472 1.524 . S
C473 C474 1.415 . S
C474 H450 0.950 . S
C474 C469 1.363 . S
C474 C473 1.415 . S
C475 H451 0.951 . S
C475 C476 1.366 . S
C475 C477 1.388 . S
C476 C475 1.366 . S
C476 C480 1.385 . S
C477 H452 0.951 . S
C477 C475 1.388 . S
C477 C478 1.366 . S
C478 C477 1.366 . S
C478 C479 1.414 . S
C478 C481 1.499 . S
C479 H453 0.950 . S
C479 C478 1.414 . S
C479 C480 1.374 . S
C480 H454 0.950 . S
C480 C476 1.385 . S
C480 C479 1.374 . S
C481 C478 1.499 . S
C481 C482 1.373 . S
C481 C483 1.389 . S
C482 H455 0.950 . S
C482 C468 1.377 . S
C482 C481 1.373 . S
C483 C467 1.377 . S
C483 C481 1.389 . S
C483 C484 1.524 . S
C484 C483 1.524 . S
C484 C485 1.397 . S
C484 C489 1.363 . S
C485 H456 0.950 . S
C485 C484 1.397 . S
C485 C486 1.334 . S
C486 H457 0.950 . S
C486 C485 1.334 . S
C486 C487 1.287 . S
C487 C486 1.287 . S
C487 C488 1.524 . S
C487 H490 0.999 . S
C488 H458 0.950 . S
C488 C487 1.524 . S
C488 C489 1.415 . S
C489 H459 0.950 . S
C489 C484 1.363 . S
C489 C488 1.415 . S
H490 C487 0.999 . S
H491 C472 0.913 . S
H492 C510 0.951 . S
H493 C512 0.951 . S
H494 C514 0.950 . S
H495 C515 0.950 . S
H496 C517 0.950 . S
H497 C520 0.950 . S
H498 C521 0.950 . S
H499 C523 0.950 . S
H500 C524 0.950 . S
H501 C525 0.951 . S
H502 C527 0.951 . S
H503 C529 0.950 . S
H504 C530 0.950 . S
H505 C532 0.950 . S
H506 C535 0.950 . S
H507 C536 0.950 . S
H508 C538 0.950 . S
H509 C539 0.950 . S
C510 H492 0.951 . S
C510 C511 1.366 . S
C510 C512 1.388 . S
C511 C510 1.366 . S
C511 C515 1.385 . S
C512 H493 0.951 . S
C512 C510 1.388 . S
C512 C513 1.366 . S
C513 C512 1.366 . S
C513 C514 1.414 . S
C513 C516 1.499 . S
C514 H494 0.950 . S
C514 C513 1.414 . S
C514 C515 1.374 . S
C515 H495 0.950 . S
C515 C511 1.385 . S
C515 C514 1.374 . S
C516 C513 1.499 . S
C516 C517 1.373 . S
C516 C518 1.389 . S
C517 H496 0.950 . S
C517 C516 1.373 . S
C517 C533 1.377 . S
C518 C516 1.389 . S
C518 C519 1.524 . S
C518 C532 1.377 . S
C519 C518 1.524 . S
C519 C520 1.397 . S
C519 C524 1.363 . S
C520 H497 0.950 . S
C520 C519 1.397 . S
C520 C521 1.334 . S
C521 H498 0.950 . S
C521 C520 1.334 . S
C521 C522 1.287 . S
C522 C521 1.287 . S
C522 C523 1.524 . S
C522 H541 0.913 . S
C523 H499 0.950 . S
C523 C522 1.524 . S
C523 C524 1.415 . S
C524 H500 0.950 . S
C524 C519 1.363 . S
C524 C523 1.415 . S
C525 H501 0.951 . S
C525 C526 1.366 . S
C525 C527 1.388 . S
C526 C525 1.366 . S
C526 C530 1.385 . S
C527 H502 0.951 . S
C527 C525 1.388 . S
C527 C528 1.366 . S
C528 C527 1.366 . S
C528 C529 1.414 . S
C528 C531 1.499 . S
C529 H503 0.950 . S
C529 C528 1.414 . S
C529 C530 1.374 . S
C530 H504 0.950 . S
C530 C526 1.385 . S
C530 C529 1.374 . S
C531 C528 1.499 . S
C531 C532 1.373 . S
C531 C533 1.389 . S
C532 H505 0.950 . S
C532 C518 1.377 . S
C532 C531 1.373 . S
C533 C517 1.377 . S
C533 C531 1.389 . S
C533 C534 1.524 . S
C534 C533 1.524 . S
C534 C535 1.397 . S
C534 C539 1.363 . S
C535 H506 0.950 . S
C535 C534 1.397 . S
C535 C536 1.334 . S
C536 H507 0.950 . S
C536 C535 1.334 . S
C536 C537 1.287 . S
C537 C536 1.287 . S
C537 C538 1.524 . S
C537 H540 0.999 . S
C538 H508 0.950 . S
C538 C537 1.524 . S
C538 C539 1.415 . S
C539 H509 0.950 . S
C539 C534 1.363 . S
C539 C538 1.415 . S
H540 C537 0.999 . S
H541 C522 0.913 . S
H542 C560 0.951 . S
H543 C562 0.951 . S
H544 C564 0.950 . S
H545 C565 0.950 . S
H546 C567 0.950 . S
H547 C570 0.950 . S
H548 C571 0.950 . S
H549 C573 0.950 . S
H550 C574 0.950 . S
H551 C575 0.951 . S
H552 C577 0.951 . S
H553 C579 0.950 . S
H554 C580 0.950 . S
H555 C582 0.950 . S
H556 C585 0.950 . S
H557 C586 0.950 . S
H558 C588 0.950 . S
H559 C589 0.950 . S
C560 H542 0.951 . S
C560 C561 1.366 . S
C560 C562 1.388 . S
C561 C560 1.366 . S
C561 C565 1.385 . S
C562 H543 0.951 . S
C562 C560 1.388 . S
C562 C563 1.366 . S
C563 C562 1.366 . S
C563 C564 1.414 . S
C563 C566 1.499 . S
C564 H544 0.950 . S
C564 C563 1.414 . S
C564 C565 1.374 . S
C565 H545 0.950 . S
C565 C561 1.385 . S
C565 C564 1.374 . S
C566 C563 1.499 . S
C566 C567 1.373 . S
C566 C568 1.389 . S
C567 H546 0.950 . S
C567 C566 1.373 . S
C567 C583 1.377 . S
C568 C566 1.389 . S
C568 C569 1.524 . S
C568 C582 1.377 . S
C569 C568 1.524 . S
C569 C570 1.397 . S
C569 C574 1.363 . S
C570 H547 0.950 . S
C570 C569 1.397 . S
C570 C571 1.334 . S
C571 H548 0.950 . S
C571 C570 1.334 . S
C571 C572 1.287 . S
C572 C571 1.287 . S
C572 C573 1.524 . S
C572 H591 0.913 . S
C573 H549 0.950 . S
C573 C572 1.524 . S
C573 C574 1.415 . S
C574 H550 0.950 . S
C574 C569 1.363 . S
C574 C573 1.415 . S
C575 H551 0.951 . S
C575 C576 1.366 . S
C575 C577 1.388 . S
C576 C575 1.366 . S
C576 C580 1.385 . S
C577 H552 0.951 . S
C577 C575 1.388 . S
C577 C578 1.366 . S
C578 C577 1.366 . S
C578 C579 1.414 . S
C578 C581 1.499 . S
C579 H553 0.950 . S
C579 C578 1.414 . S
C579 C580 1.374 . S
C580 H554 0.950 . S
C580 C576 1.385 . S
C580 C579 1.374 . S
C581 C578 1.499 . S
C581 C582 1.373 . S
C581 C583 1.389 . S
C582 H555 0.950 . S
C582 C568 1.377 . S
C582 C581 1.373 . S
C583 C567 1.377 . S
C583 C581 1.389 . S
C583 C584 1.524 . S
C584 C583 1.524 . S
C584 C585 1.397 . S
C584 C589 1.363 . S
C585 H556 0.950 . S
C585 C584 1.397 . S
C585 C586 1.334 . S
C586 H557 0.950 . S
C586 C585 1.334 . S
C586 C587 1.287 . S
C587 C586 1.287 . S
C587 C588 1.524 . S
C587 H590 0.999 . S
C588 H558 0.950 . S
C588 C587 1.524 . S
C588 C589 1.415 . S
C589 H559 0.950 . S
C589 C584 1.363 . S
C589 C588 1.415 . S
H590 C587 0.999 . S
H591 C572 0.913 . S
H592 C610 0.951 . S
H593 C612 0.951 . S
H594 C614 0.950 . S
H595 C615 0.950 . S
H596 C617 0.950 . S
H597 C620 0.950 . S
H598 C621 0.950 . S
H599 C623 0.950 . S
H600 C624 0.950 . S
H601 C625 0.951 . S
H602 C627 0.951 . S
H603 C629 0.950 . S
H604 C630 0.950 . S
H605 C632 0.950 . S
H606 C635 0.950 . S
H607 C636 0.950 . S
H608 C638 0.950 . S
H609 C639 0.950 . S
C610 H592 0.951 . S
C610 C611 1.366 . S
C610 C612 1.388 . S
C611 C610 1.366 . S
C611 C615 1.385 . S
C612 H593 0.951 . S
C612 C610 1.388 . S
C612 C613 1.366 . S
C613 C612 1.366 . S
C613 C614 1.414 . S
C613 C616 1.499 . S
C614 H594 0.950 . S
C614 C613 1.414 . S
C614 C615 1.374 . S
C615 H595 0.950 . S
C615 C611 1.385 . S
C615 C614 1.374 . S
C616 C613 1.499 . S
C616 C617 1.373 . S
C616 C618 1.389 . S
C617 H596 0.950 . S
C617 C616 1.373 . S
C617 C633 1.377 . S
C618 C616 1.389 . S
C618 C619 1.524 . S
C618 C632 1.377 . S
C619 C618 1.524 . S
C619 C620 1.397 . S
C619 C624 1.363 . S
C620 H597 0.950 . S
C620 C619 1.397 . S
C620 C621 1.334 . S
C621 H598 0.950 . S
C621 C620 1.334 . S
C621 C622 1.287 . S
C622 C621 1.287 . S
C622 C623 1.524 . S
C622 H641 0.913 . S
C623 H599 0.950 . S
C623 C622 1.524 . S
C623 C624 1.415 . S
C624 H600 0.950 . S
C624 C619 1.363 . S
C624 C623 1.415 . S
C625 H601 0.951 . S
C625 C626 1.366 . S
C625 C627 1.388 . S
C626 C625 1.366 . S
C626 C630 1.385 . S
C627 H602 0.951 . S
C627 C625 1.388 . S
C627 C628 1.366 . S
C628 C627 1.366 . S
C628 C629 1.414 . S
C628 C631 1.499 . S
C629 H603 0.950 . S
C629 C628 1.414 . S
C629 C630 1.374 . S
C630 H604 0.950 . S
C630 C626 1.385 . S
C630 C629 1.374 . S
C631 C628 1.499 . S
C631 C632 1.373 . S
C631 C633 1.389 . S
C632 H605 0.950 . S
C632 C618 1.377 . S
C632 C631 1.373 . S
C633 C617 1.377 . S
C633 C631 1.389 . S
C633 C634 1.524 . S
C634 C633 1.524 . S
C634 C635 1.397 . S
C634 C639 1.363 . S
C635 H606 0.950 . S
C635 C634 1.397 . S
C635 C636 1.334 . S
C636 H607 0.950 . S
C636 C635 1.334 . S
C636 C637 1.287 . S
C637 C636 1.287 . S
C637 C638 1.524 . S
C637 H640 0.999 . S
C638 H608 0.950 . S
C638 C637 1.524 . S
C638 C639 1.415 . S
C639 H609 0.950 . S
C639 C634 1.363 . S
C639 C638 1.415 . S
H640 C637 0.999 . S
H641 C622 0.913 . S
H642 C660 0.951 . S
H643 C662 0.951 . S
H644 C664 0.950 . S
H645 C665 0.950 . S
H646 C667 0.950 . S
H647 C670 0.950 . S
H648 C671 0.950 . S
H649 C673 0.950 . S
H650 C674 0.950 . S
H651 C675 0.951 . S
H652 C677 0.951 . S
H653 C679 0.950 . S
H654 C680 0.950 . S
H655 C682 0.950 . S
H656 C685 0.950 . S
H657 C686 0.950 . S
H658 C688 0.950 . S
H659 C689 0.950 . S
C660 H642 0.951 . S
C660 C661 1.366 . S
C660 C662 1.388 . S
C661 C660 1.366 . S
C661 C665 1.385 . S
C662 H643 0.951 . S
C662 C660 1.388 . S
C662 C663 1.366 . S
C663 C662 1.366 . S
C663 C664 1.414 . S
C663 C666 1.499 . S
C664 H644 0.950 . S
C664 C663 1.414 . S
C664 C665 1.374 . S
C665 H645 0.950 . S
C665 C661 1.385 . S
C665 C664 1.374 . S
C666 C663 1.499 . S
C666 C667 1.373 . S
C666 C668 1.389 . S
C667 H646 0.950 . S
C667 C666 1.373 . S
C667 C683 1.377 . S
C668 C666 1.389 . S
C668 C669 1.524 . S
C668 C682 1.377 . S
C669 C668 1.524 . S
C669 C670 1.397 . S
C669 C674 1.363 . S
C670 H647 0.950 . S
C670 C669 1.397 . S
C670 C671 1.334 . S
C671 H648 0.950 . S
C671 C670 1.334 . S
C671 C672 1.287 . S
C672 C671 1.287 . S
C672 C673 1.524 . S
C672 H691 0.913 . S
C673 H649 0.950 . S
C673 C672 1.524 . S
C673 C674 1.415 . S
C674 H650 0.950 . S
C674 C669 1.363 . S
C674 C673 1.415 . S
C675 H651 0.951 . S
C675 C676 1.366 . S
C675 C677 1.388 . S
C676 C675 1.366 . S
C676 C680 1.385 . S
C677 H652 0.951 . S
C677 C675 1.388 . S
C677 C678 1.366 . S
C678 C677 1.366 . S
C678 C679 1.414 . S
C678 C681 1.499 . S
C679 H653 0.950 . S
C679 C678 1.414 . S
C679 C680 1.374 . S
C680 H654 0.950 . S
C680 C676 1.385 . S
C680 C679 1.374 . S
C681 C678 1.499 . S
C681 C682 1.373 . S
C681 C683 1.389 . S
C682 H655 0.950 . S
C682 C668 1.377 . S
C682 C681 1.373 . S
C683 C667 1.377 . S
C683 C681 1.389 . S
C683 C684 1.524 . S
C684 C683 1.524 . S
C684 C685 1.397 . S
C684 C689 1.363 . S
C685 H656 0.950 . S
C685 C684 1.397 . S
C685 C686 1.334 . S
C686 H657 0.950 . S
C686 C685 1.334 . S
C686 C687 1.287 . S
C687 C686 1.287 . S
C687 C688 1.524 . S
C687 H690 0.999 . S
C688 H658 0.950 . S
C688 C687 1.524 . S
C688 C689 1.415 . S
C689 H659 0.950 . S
C689 C684 1.363 . S
C689 C688 1.415 . S
H690 C687 0.999 . S
H691 C672 0.913 . S
H692 C710 0.951 . S
H693 C712 0.951 . S
H694 C714 0.950 . S
H695 C715 0.950 . S
H696 C717 0.950 . S
H697 C720 0.950 . S
H698 C721 0.950 . S
H699 C723 0.950 . S
H700 C724 0.950 . S
H701 C725 0.951 . S
H702 C727 0.951 . S
H703 C729 0.950 . S
H704 C730 0.950 . S
H705 C732 0.950 . S
H706 C735 0.950 . S
H707 C736 0.950 . S
H708 C738 0.950 . S
H709 C739 0.950 . S
C710 H692 0.951 . S
C710 C711 1.366 . S
C710 C712 1.388 . S
C711 C710 1.366 . S
C711 C715 1.385 . S
C712 H693 0.951 . S
C712 C710 1.388 . S
C712 C713 1.366 . S
C713 C712 1.366 . S
C713 C714 1.414 . S
C713 C716 1.499 . S
C714 H694 0.950 . S
C714 C713 1.414 . S
C714 C715 1.374 . S
C715 H695 0.950 . S
C715 C711 1.385 . S
C715 C714 1.374 . S
C716 C713 1.499 . S
C716 C717 1.373 . S
C716 C718 1.389 . S
C717 H696 0.950 . S
C717 C716 1.373 . S
C717 C733 1.377 . S
C718 C716 1.389 . S
C718 C719 1.524 . S
C718 C732 1.377 . S
C719 C718 1.524 . S
C719 C720 1.397 . S
C719 C724 1.363 . S
C720 H697 0.950 . S
C720 C719 1.397 . S
C720 C721 1.334 . S
C721 H698 0.950 . S
C721 C720 1.334 . S
C721 C722 1.287 . S
C722 C721 1.287 . S
C722 C723 1.524 . S
C722 H741 0.913 . S
C723 H699 0.950 . S
C723 C722 1.524 . S
C723 C724 1.415 . S
C724 H700 0.950 . S
C724 C719 1.363 . S
C724 C723 1.415 . S
C725 H701 0.951 . S
C725 C726 1.366 . S
C725 C727 1.388 . S
C726 C725 1.366 . S
C726 C730 1.385 . S
C727 H702 0.951 . S
C727 C725 1.388 . S
C727 C728 1.366 . S
C728 C727 1.366 . S
C728 C729 1.414 . S
C728 C731 1.499 . S
C729 H703 0.950 . S
C729 C728 1.414 . S
C729 C730 1.374 . S
C730 H704 0.950 . S
C730 C726 1.385 . S
C730 C729 1.374 . S
C731 C728 1.499 . S
C731 C732 1.373 . S
C731 C733 1.389 . S
C732 H705 0.950 . S
C732 C718 1.377 . S
C732 C731 1.373 . S
C733 C717 1.377 . S
C733 C731 1.389 . S
C733 C734 1.524 . S
C734 C733 1.524 . S
C734 C735 1.397 . S
C734 C739 1.363 . S
C735 H706 0.950 . S
C735 C734 1.397 . S
C735 C736 1.334 . S
C736 H707 0.950 . S
C736 C735 1.334 . S
C736 C737 1.287 . S
C737 C736 1.287 . S
C737 C738 1.524 . S
C737 H740 0.999 . S
C738 H708 0.950 . S
C738 C737 1.524 . S
C738 C739 1.415 . S
C739 H709 0.950 . S
C739 C734 1.363 . S
C739 C738 1.415 . S
H740 C737 0.999 . S
H741 C722 0.913 . S
H742 C760 0.951 . S
H743 C762 0.951 . S
H744 C764 0.950 . S
H745 C765 0.950 . S
H746 C767 0.950 . S
H747 C770 0.950 . S
H748 C771 0.950 . S
H749 C773 0.950 . S
H750 C774 0.950 . S
H751 C775 0.951 . S
H752 C777 0.951 . S
H753 C779 0.950 . S
H754 C780 0.950 . S
H755 C782 0.950 . S
H756 C785 0.950 . S
H757 C786 0.950 . S
H758 C788 0.950 . S
H759 C789 0.950 . S
C760 H742 0.951 . S
C760 C761 1.366 . S
C760 C762 1.388 . S
C761 C760 1.366 . S
C761 C765 1.385 . S
C762 H743 0.951 . S
C762 C760 1.388 . S
C762 C763 1.366 . S
C763 C762 1.366 . S
C763 C764 1.414 . S
C763 C766 1.499 . S
C764 H744 0.950 . S
C764 C763 1.414 . S
C764 C765 1.374 . S
C765 H745 0.950 . S
C765 C761 1.385 . S
C765 C764 1.374 . S
C766 C763 1.499 . S
C766 C767 1.373 . S
C766 C768 1.389 . S
C767 H746 0.950 . S
C767 C766 1.373 . S
C767 C783 1.377 . S
C768 C766 1.389 . S
C768 C769 1.524 . S
C768 C782 1.377 . S
C769 C768 1.524 . S
C769 C770 1.397 . S
C769 C774 1.363 . S
C770 H747 0.950 . S
C770 C769 1.397 . S
C770 C771 1.334 . S
C771 H748 0.950 . S
C771 C770 1.334 . S
C771 C772 1.287 . S
C772 C771 1.287 . S
C772 C773 1.524 . S
C772 H791 0.913 . S
C773 H749 0.950 . S
C773 C772 1.524 . S
C773 C774 1.415 . S
C774 H750 0.950 . S
C774 C769 1.363 . S
C774 C773 1.415 . S
C775 H751 0.951 . S
C775 C776 1.366 . S
C775 C777 1.388 . S
C776 C775 1.366 . S
C776 C780 1.385 . S
C777 H752 0.951 . S
C777 C775 1.388 . S
C777 C778 1.366 . S
C778 C777 1.366 . S
C778 C779 1.414 . S
C778 C781 1.499 . S
C779 H753 0.950 . S
C779 C778 1.414 . S
C779 C780 1.374 . S
C780 H754 0.950 . S
C780 C776 1.385 . S
C780 C779 1.374 . S
C781 C778 1.499 . S
C781 C782 1.373 . S
C781 C783 1.389 . S
C782 H755 0.950 . S
C782 C768 1.377 . S
C782 C781 1.373 . S
C783 C767 1.377 . S
C783 C781 1.389 . S
C783 C784 1.524 . S
C784 C783 1.524 . S
C784 C785 1.397 . S
C784 C789 1.363 . S
C785 H756 0.950 . S
C785 C784 1.397 . S
C785 C786 1.334 . S
C786 H757 0.950 . S
C786 C785 1.334 . S
C786 C787 1.287 . S
C787 C786 1.287 . S
C787 C788 1.524 . S
C787 H790 0.999 . S
C788 H758 0.950 . S
C788 C787 1.524 . S
C788 C789 1.415 . S
C789 H759 0.950 . S
C789 C784 1.363 . S
C789 C788 1.415 . S
H790 C787 0.999 . S
H791 C772 0.913 . S
H792 C810 0.951 . S
H793 C812 0.951 . S
H794 C814 0.950 . S
H795 C815 0.950 . S
H796 C817 0.950 . S
H797 C820 0.950 . S
H798 C821 0.950 . S
H799 C823 0.950 . S
H800 C824 0.950 . S
H801 C825 0.951 . S
H802 C827 0.951 . S
H803 C829 0.950 . S
H804 C830 0.950 . S
H805 C832 0.950 . S
H806 C835 0.950 . S
H807 C836 0.950 . S
H808 C838 0.950 . S
H809 C839 0.950 . S
C810 H792 0.951 . S
C810 C811 1.366 . S
C810 C812 1.388 . S
C811 C810 1.366 . S
C811 C815 1.385 . S
C812 H793 0.951 . S
C812 C810 1.388 . S
C812 C813 1.366 . S
C813 C812 1.366 . S
C813 C814 1.414 . S
C813 C816 1.499 . S
C814 H794 0.950 . S
C814 C813 1.414 . S
C814 C815 1.374 . S
C815 H795 0.950 . S
C815 C811 1.385 . S
C815 C814 1.374 . S
C816 C813 1.499 . S
C816 C817 1.373 . S
C816 C818 1.389 . S
C817 H796 0.950 . S
C817 C816 1.373 . S
C817 C833 1.377 . S
C818 C816 1.389 . S
C818 C819 1.524 . S
C818 C832 1.377 . S
C819 C818 1.524 . S
C819 C820 1.397 . S
C819 C824 1.363 . S
C820 H797 0.950 . S
C820 C819 1.397 . S
C820 C821 1.334 . S
C821 H798 0.950 . S
C821 C820 1.334 . S
C821 C822 1.287 . S
C822 C821 1.287 . S
C822 C823 1.524 . S
C822 H841 0.913 . S
C823 H799 0.950 . S
C823 C822 1.524 . S
C823 C824 1.415 . S
C824 H800 0.950 . S
C824 C819 1.363 . S
C824 C823 1.415 . S
C825 H801 0.951 . S
C825 C826 1.366 . S
C825 C827 1.388 . S
C826 C825 1.366 . S
C826 C830 1.385 . S
C827 H802 0.951 . S
C827 C825 1.388 . S
C827 C828 1.366 . S
C828 C827 1.366 . S
C828 C829 1.414 . S
C828 C831 1.499 . S
C829 H803 0.950 . S
C829 C828 1.414 . S
C829 C830 1.374 . S
C830 H804 0.950 . S
C830 C826 1.385 . S
C830 C829 1.374 . S
C831 C828 1.499 . S
C831 C832 1.373 . S
C831 C833 1.389 . S
C832 H805 0.950 . S
C832 C818 1.377 . S
C832 C831 1.373 . S
C833 C817 1.377 . S
C833 C831 1.389 . S
C833 C834 1.524 . S
C834 C833 1.524 . S
C834 C835 1.397 . S
C834 C839 1.363 . S
C835 H806 0.950 . S
C835 C834 1.397 . S
C835 C836 1.334 . S
C836 H807 0.950 . S
C836 C835 1.334 . S
C836 C837 1.287 . S
C837 C836 1.287 . S
C837 C838 1.524 . S
C837 H840 0.999 1_556 S
C838 H808 0.950 . S
C838 C837 1.524 . S
C838 C839 1.415 . S
C839 H809 0.950 . S
C839 C834 1.363 . S
C839 C838 1.415 . S
H840 C837 0.999 1_554 S
H841 C822 0.913 . S
H842 C860 0.951 . S
H843 C862 0.951 . S
H844 C864 0.950 . S
H845 C865 0.950 . S
H846 C867 0.950 . S
H847 C870 0.950 . S
H848 C871 0.950 . S
H849 C873 0.950 . S
H850 C874 0.950 . S
H851 C875 0.951 . S
H852 C877 0.951 . S
H853 C879 0.950 . S
H854 C880 0.950 . S
H855 C882 0.950 . S
H856 C885 0.950 . S
H857 C886 0.950 . S
H858 C888 0.950 . S
H859 C889 0.950 . S
C860 H842 0.951 . S
C860 C861 1.366 . S
C860 C862 1.388 . S
C861 C860 1.366 . S
C861 C865 1.385 . S
C862 H843 0.951 . S
C862 C860 1.388 . S
C862 C863 1.366 . S
C863 C862 1.366 . S
C863 C864 1.414 . S
C863 C866 1.499 . S
C864 H844 0.950 . S
C864 C863 1.414 . S
C864 C865 1.374 . S
C865 H845 0.950 . S
C865 C861 1.385 . S
C865 C864 1.374 . S
C866 C863 1.499 . S
C866 C867 1.373 . S
C866 C868 1.389 . S
C867 H846 0.950 . S
C867 C866 1.373 . S
C867 C883 1.377 . S
C868 C866 1.389 . S
C868 C869 1.524 . S
C868 C882 1.377 . S
C869 C868 1.524 . S
C869 C870 1.397 . S
C869 C874 1.363 . S
C870 H847 0.950 . S
C870 C869 1.397 . S
C870 C871 1.334 . S
C871 H848 0.950 . S
C871 C870 1.334 . S
C871 C872 1.287 . S
C872 C871 1.287 . S
C872 C873 1.524 . S
C872 H891 0.913 . S
C873 H849 0.950 . S
C873 C872 1.524 . S
C873 C874 1.415 . S
C874 H850 0.950 . S
C874 C869 1.363 . S
C874 C873 1.415 . S
C875 H851 0.951 . S
C875 C876 1.366 . S
C875 C877 1.388 . S
C876 C875 1.366 . S
C876 C880 1.385 . S
C877 H852 0.951 . S
C877 C875 1.388 . S
C877 C878 1.366 . S
C878 C877 1.366 . S
C878 C879 1.414 . S
C878 C881 1.499 . S
C879 H853 0.950 . S
C879 C878 1.414 . S
C879 C880 1.374 . S
C880 H854 0.950 . S
C880 C876 1.385 . S
C880 C879 1.374 . S
C881 C878 1.499 . S
C881 C882 1.373 . S
C881 C883 1.389 . S
C882 H855 0.950 . S
C882 C868 1.377 . S
C882 C881 1.373 . S
C883 C867 1.377 . S
C883 C881 1.389 . S
C883 C884 1.524 . S
C884 C883 1.524 . S
C884 C885 1.397 . S
C884 C889 1.363 . S
C885 H856 0.950 . S
C885 C884 1.397 . S
C885 C886 1.334 . S
C886 H857 0.950 . S
C886 C885 1.334 . S
C886 C887 1.287 . S
C887 C886 1.287 . S
C887 C888 1.524 . S
C887 H890 0.999 . S
C888 H858 0.950 . S
C888 C887 1.524 . S
C888 C889 1.415 . S
C889 H859 0.950 . S
C889 C884 1.363 . S
C889 C888 1.415 . S
H890 C887 0.999 . S
H891 C872 0.913 . S
H892 C910 0.951 . S
H893 C912 0.951 . S
H894 C914 0.950 . S
H895 C915 0.950 . S
H896 C917 0.950 . S
H897 C920 0.950 . S
H898 C921 0.950 . S
H899 C923 0.950 . S
H900 C924 0.950 . S
H901 C925 0.951 . S
H902 C927 0.951 . S
H903 C929 0.950 . S
H904 C930 0.950 . S
H905 C932 0.950 . S
H906 C935 0.950 . S
H907 C936 0.950 . S
H908 C938 0.950 . S
H909 C939 0.950 . S
C910 H892 0.951 . S
C910 C911 1.366 . S
C910 C912 1.388 . S
C911 C910 1.366 . S
C911 C915 1.385 . S
C912 H893 0.951 . S
C912 C910 1.388 . S
C912 C913 1.366 . S
C913 C912 1.366 . S
C913 C914 1.414 . S
C913 C916 1.499 . S
C914 H894 0.950 . S
C914 C913 1.414 . S
C914 C915 1.374 . S
C915 H895 0.950 . S
C915 C911 1.385 . S
C915 C914 1.374 . S
C916 C913 1.499 . S
C916 C917 1.373 . S
C916 C918 1.389 . S
C917 H896 0.950 . S
C917 C916 1.373 . S
C917 C933 1.377 . S
C918 C916 1.389 . S
C918 C919 1.524 . S
C918 C932 1.377 . S
C919 C918 1.524 . S
C919 C920 1.397 . S
C919 C924 1.363 . S
C920 H897 0.950 . S
C920 C919 1.397 . S
C920 C921 1.334 . S
C921 H898 0.950 . S
C921 C920 1.334 . S
C921 C922 1.287 . S
C922 C921 1.287 . S
C922 C923 1.524 . S
C922 H941 0.913 . S
C923 H899 0.950 . S
C923 C922 1.524 . S
C923 C924 1.415 . S
C924 H900 0.950 . S
C924 C919 1.363 . S
C924 C923 1.415 . S
C925 H901 0.951 . S
C925 C926 1.366 . S
C925 C927 1.388 . S
C926 C925 1.366 . S
C926 C930 1.385 . S
C927 H902 0.951 . S
C927 C925 1.388 . S
C927 C928 1.366 . S
C928 C927 1.366 . S
C928 C929 1.414 . S
C928 C931 1.499 . S
C929 H903 0.950 . S
C929 C928 1.414 . S
C929 C930 1.374 . S
C930 H904 0.950 . S
C930 C926 1.385 . S
C930 C929 1.374 . S
C931 C928 1.499 . S
C931 C932 1.373 . S
C931 C933 1.389 . S
C932 H905 0.950 . S
C932 C918 1.377 . S
C932 C931 1.373 . S
C933 C917 1.377 . S
C933 C931 1.389 . S
C933 C934 1.524 . S
C934 C933 1.524 . S
C934 C935 1.397 . S
C934 C939 1.363 . S
C935 H906 0.950 . S
C935 C934 1.397 . S
C935 C936 1.334 . S
C936 H907 0.950 . S
C936 C935 1.334 . S
C936 C937 1.287 . S
C937 C936 1.287 . S
C937 C938 1.524 . S
C937 H940 0.999 . S
C938 H908 0.950 . S
C938 C937 1.524 . S
C938 C939 1.415 . S
C939 H909 0.950 . S
C939 C934 1.363 . S
C939 C938 1.415 . S
H940 C937 0.999 . S
H941 C922 0.913 . S
H942 C960 0.951 . S
H943 C962 0.951 . S
H944 C964 0.950 . S
H945 C965 0.950 . S
H946 C967 0.950 . S
H947 C970 0.950 . S
H948 C971 0.950 . S
H949 C973 0.950 . S
H950 C974 0.950 . S
H951 C975 0.951 . S
H952 C977 0.951 . S
H953 C979 0.950 . S
H954 C980 0.950 . S
H955 C982 0.950 . S
H956 C985 0.950 . S
H957 C986 0.950 . S
H958 C988 0.950 . S
H959 C989 0.950 . S
C960 H942 0.951 . S
C960 C961 1.366 . S
C960 C962 1.388 . S
C961 C960 1.366 . S
C961 C965 1.385 . S
C962 H943 0.951 . S
C962 C960 1.388 . S
C962 C963 1.366 . S
C963 C962 1.366 . S
C963 C964 1.414 . S
C963 C966 1.499 . S
C964 H944 0.950 . S
C964 C963 1.414 . S
C964 C965 1.374 . S
C965 H945 0.950 . S
C965 C961 1.385 . S
C965 C964 1.374 . S
C966 C963 1.499 . S
C966 C967 1.373 . S
C966 C968 1.389 . S
C967 H946 0.950 . S
C967 C966 1.373 . S
C967 C983 1.377 . S
C968 C966 1.389 . S
C968 C969 1.524 . S
C968 C982 1.377 . S
C969 C968 1.524 . S
C969 C970 1.397 . S
C969 C974 1.363 . S
C970 H947 0.950 . S
C970 C969 1.397 . S
C970 C971 1.334 . S
C971 H948 0.950 . S
C971 C970 1.334 . S
C971 C972 1.287 . S
C972 C971 1.287 . S
C972 C973 1.524 . S
C972 H991 0.913 . S
C973 H949 0.950 . S
C973 C972 1.524 . S
C973 C974 1.415 . S
C974 H950 0.950 . S
C974 C969 1.363 . S
C974 C973 1.415 . S
C975 H951 0.951 . S
C975 C976 1.366 . S
C975 C977 1.388 . S
C976 C975 1.366 . S
C976 C980 1.385 . S
C977 H952 0.951 . S
C977 C975 1.388 . S
C977 C978 1.366 . S
C978 C977 1.366 . S
C978 C979 1.414 . S
C978 C981 1.499 . S
C979 H953 0.950 . S
C979 C978 1.414 . S
C979 C980 1.374 . S
C980 H954 0.950 . S
C980 C976 1.385 . S
C980 C979 1.374 . S
C981 C978 1.499 . S
C981 C982 1.373 . S
C981 C983 1.389 . S
C982 H955 0.950 . S
C982 C968 1.377 . S
C982 C981 1.373 . S
C983 C967 1.377 . S
C983 C981 1.389 . S
C983 C984 1.524 . S
C984 C983 1.524 . S
C984 C985 1.397 . S
C984 C989 1.363 . S
C985 H956 0.950 . S
C985 C984 1.397 . S
C985 C986 1.334 . S
C986 H957 0.950 . S
C986 C985 1.334 . S
C986 C987 1.287 . S
C987 C986 1.287 . S
C987 C988 1.524 . S
C987 H990 0.999 . S
C988 H958 0.950 . S
C988 C987 1.524 . S
C988 C989 1.415 . S
C989 H959 0.950 . S
C989 C984 1.363 . S
C989 C988 1.415 . S
H990 C987 0.999 . S
H991 C972 0.913 . S
H992 C1010 0.951 . S
H993 C1012 0.951 . S
H994 C1014 0.950 . S
H995 C1015 0.950 . S
H996 C1017 0.950 . S
H997 C1020 0.950 . S
H998 C1021 0.950 . S
H999 C1023 0.950 . S
H1000 C1024 0.950 . S
H1001 C1025 0.951 . S
H1002 C1027 0.951 . S
H1003 C1029 0.950 . S
H1004 C1030 0.950 . S
H1005 C1032 0.950 . S
H1006 C1035 0.950 . S
H1007 C1036 0.950 . S
H1008 C1038 0.950 . S
H1009 C1039 0.950 . S
C1010 H992 0.951 . S
C1010 C1011 1.366 . S
C1010 C1012 1.388 . S
C1011 C1010 1.366 . S
C1011 C1015 1.385 . S
C1012 H993 0.951 . S
C1012 C1010 1.388 . S
C1012 C1013 1.366 . S
C1013 C1012 1.366 . S
C1013 C1014 1.414 . S
C1013 C1016 1.499 . S
C1014 H994 0.950 . S
C1014 C1013 1.414 . S
C1014 C1015 1.374 . S
C1015 H995 0.950 . S
C1015 C1011 1.385 . S
C1015 C1014 1.374 . S
C1016 C1013 1.499 . S
C1016 C1017 1.373 . S
C1016 C1018 1.389 1_554 S
C1017 H996 0.950 . S
C1017 C1016 1.373 . S
C1017 C1033 1.377 . S
C1018 C1016 1.389 1_556 S
C1018 C1019 1.524 . S
C1018 C1032 1.377 . S
C1019 C1018 1.524 . S
C1019 C1020 1.397 . S
C1019 C1024 1.363 . S
C1020 H997 0.950 . S
C1020 C1019 1.397 . S
C1020 C1021 1.334 . S
C1021 H998 0.950 . S
C1021 C1020 1.334 . S
C1021 C1022 1.287 . S
C1022 C1021 1.287 . S
C1022 C1023 1.524 . S
C1022 H1041 0.913 . S
C1023 H999 0.950 . S
C1023 C1022 1.524 . S
C1023 C1024 1.415 . S
C1024 H1000 0.950 . S
C1024 C1019 1.363 . S
C1024 C1023 1.415 . S
C1025 H1001 0.951 . S
C1025 C1026 1.366 . S
C1025 C1027 1.388 . S
C1026 C1025 1.366 . S
C1026 C1030 1.385 . S
C1027 H1002 0.951 . S
C1027 C1025 1.388 . S
C1027 C1028 1.366 . S
C1028 C1027 1.366 . S
C1028 C1029 1.414 . S
C1028 C1031 1.499 . S
C1029 H1003 0.950 . S
C1029 C1028 1.414 . S
C1029 C1030 1.374 . S
C1030 H1004 0.950 . S
C1030 C1026 1.385 . S
C1030 C1029 1.374 . S
C1031 C1028 1.499 . S
C1031 C1032 1.373 1_554 S
C1031 C1033 1.389 . S
C1032 H1005 0.950 . S
C1032 C1018 1.377 . S
C1032 C1031 1.373 1_556 S
C1033 C1017 1.377 . S
C1033 C1031 1.389 . S
C1033 C1034 1.524 . S
C1034 C1033 1.524 . S
C1034 C1035 1.397 . S
C1034 C1039 1.363 . S
C1035 H1006 0.950 . S
C1035 C1034 1.397 . S
C1035 C1036 1.334 . S
C1036 H1007 0.950 . S
C1036 C1035 1.334 . S
C1036 C1037 1.287 . S
C1037 C1036 1.287 . S
C1037 C1038 1.524 . S
C1037 H1040 0.999 . S
C1038 H1008 0.950 . S
C1038 C1037 1.524 . S
C1038 C1039 1.415 . S
C1039 H1009 0.950 . S
C1039 C1034 1.363 . S
C1039 C1038 1.415 . S
H1040 C1037 0.999 . S
H1041 C1022 0.913 . S
H1042 C1060 0.951 . S
H1043 C1062 0.951 . S
H1044 C1064 0.950 . S
H1045 C1065 0.950 . S
H1046 C1067 0.950 . S
H1047 C1070 0.950 . S
H1048 C1071 0.950 . S
H1049 C1073 0.950 . S
H1050 C1074 0.950 . S
H1051 C1075 0.951 . S
H1052 C1077 0.951 . S
H1053 C1079 0.950 . S
H1054 C1080 0.950 . S
H1055 C1082 0.950 . S
H1056 C1085 0.950 . S
H1057 C1086 0.950 . S
H1058 C1088 0.950 . S
H1059 C1089 0.950 . S
C1060 H1042 0.951 . S
C1060 C1061 1.366 . S
C1060 C1062 1.388 . S
C1061 C1060 1.366 . S
C1061 C1065 1.385 . S
C1062 H1043 0.951 . S
C1062 C1060 1.388 . S
C1062 C1063 1.366 . S
C1063 C1062 1.366 . S
C1063 C1064 1.414 . S
C1063 C1066 1.499 . S
C1064 H1044 0.950 . S
C1064 C1063 1.414 . S
C1064 C1065 1.374 . S
C1065 H1045 0.950 . S
C1065 C1061 1.385 . S
C1065 C1064 1.374 . S
C1066 C1063 1.499 . S
C1066 C1067 1.373 . S
C1066 C1068 1.389 . S
C1067 H1046 0.950 . S
C1067 C1066 1.373 . S
C1067 C1083 1.377 . S
C1068 C1066 1.389 . S
C1068 C1069 1.524 . S
C1068 C1082 1.377 . S
C1069 C1068 1.524 . S
C1069 C1070 1.397 . S
C1069 C1074 1.363 . S
C1070 H1047 0.950 . S
C1070 C1069 1.397 . S
C1070 C1071 1.334 . S
C1071 H1048 0.950 . S
C1071 C1070 1.334 . S
C1071 C1072 1.287 . S
C1072 C1071 1.287 . S
C1072 C1073 1.524 . S
C1072 H1091 0.913 . S
C1073 H1049 0.950 . S
C1073 C1072 1.524 . S
C1073 C1074 1.415 . S
C1074 H1050 0.950 . S
C1074 C1069 1.363 . S
C1074 C1073 1.415 . S
C1075 H1051 0.951 . S
C1075 C1076 1.366 . S
C1075 C1077 1.388 . S
C1076 C1075 1.366 . S
C1076 C1080 1.385 . S
C1077 H1052 0.951 . S
C1077 C1075 1.388 . S
C1077 C1078 1.366 . S
C1078 C1077 1.366 . S
C1078 C1079 1.414 . S
C1078 C1081 1.499 . S
C1079 H1053 0.950 . S
C1079 C1078 1.414 . S
C1079 C1080 1.374 . S
C1080 H1054 0.950 . S
C1080 C1076 1.385 . S
C1080 C1079 1.374 . S
C1081 C1078 1.499 . S
C1081 C1082 1.373 . S
C1081 C1083 1.389 . S
C1082 H1055 0.950 . S
C1082 C1068 1.377 . S
C1082 C1081 1.373 . S
C1083 C1067 1.377 . S
C1083 C1081 1.389 . S
C1083 C1084 1.524 . S
C1084 C1083 1.524 . S
C1084 C1085 1.397 . S
C1084 C1089 1.363 . S
C1085 H1056 0.950 . S
C1085 C1084 1.397 . S
C1085 C1086 1.334 . S
C1086 H1057 0.950 . S
C1086 C1085 1.334 . S
C1086 C1087 1.287 . S
C1087 C1086 1.287 . S
C1087 C1088 1.524 . S
C1087 H1090 0.999 . S
C1088 H1058 0.950 . S
C1088 C1087 1.524 . S
C1088 C1089 1.415 . S
C1089 H1059 0.950 . S
C1089 C1084 1.363 . S
C1089 C1088 1.415 . S
H1090 C1087 0.999 . S
H1091 C1072 0.913 . S
H1092 C1110 0.951 . S
H1093 C1112 0.951 . S
H1094 C1114 0.950 . S
H1095 C1115 0.950 . S
H1096 C1117 0.950 . S
H1097 C1120 0.950 . S
H1098 C1121 0.950 . S
H1099 C1123 0.950 . S
H1100 C1124 0.950 . S
H1101 C1125 0.951 . S
H1102 C1127 0.951 . S
H1103 C1129 0.950 . S
H1104 C1130 0.950 . S
H1105 C1132 0.950 . S
H1106 C1135 0.950 . S
H1107 C1136 0.950 . S
H1108 C1138 0.950 . S
H1109 C1139 0.950 . S
C1110 H1092 0.951 . S
C1110 C1111 1.366 1_556 S
C1110 C1112 1.388 . S
C1111 C1110 1.366 1_554 S
C1111 C1115 1.385 . S
C1112 H1093 0.951 . S
C1112 C1110 1.388 . S
C1112 C1113 1.366 1_556 S
C1113 C1112 1.366 1_554 S
C1113 C1114 1.414 . S
C1113 C1116 1.499 . S
C1114 H1094 0.950 . S
C1114 C1113 1.414 . S
C1114 C1115 1.374 . S
C1115 H1095 0.950 . S
C1115 C1111 1.385 . S
C1115 C1114 1.374 . S
C1116 C1113 1.499 . S
C1116 C1117 1.373 . S
C1116 C1118 1.389 . S
C1117 H1096 0.950 . S
C1117 C1116 1.373 . S
C1117 C1133 1.377 . S
C1118 C1116 1.389 . S
C1118 C1119 1.524 1_554 S
C1118 C1132 1.377 1_554 S
C1119 C1118 1.524 1_556 S
C1119 C1120 1.397 1_556 S
C1119 C1124 1.363 . S
C1120 H1097 0.950 . S
C1120 C1119 1.397 1_554 S
C1120 C1121 1.334 . S
C1121 H1098 0.950 . S
C1121 C1120 1.334 . S
C1121 C1122 1.286 1_554 S
C1122 C1121 1.286 1_556 S
C1122 C1123 1.524 . S
C1122 H1141 0.914 . S
C1123 H1099 0.950 . S
C1123 C1122 1.524 . S
C1123 C1124 1.415 . S
C1124 H1100 0.950 . S
C1124 C1119 1.363 . S
C1124 C1123 1.415 . S
C1125 H1101 0.951 . S
C1125 C1126 1.366 . S
C1125 C1127 1.388 . S
C1126 C1125 1.366 . S
C1126 C1130 1.385 1_554 S
C1127 H1102 0.951 . S
C1127 C1125 1.388 . S
C1127 C1128 1.366 . S
C1128 C1127 1.366 . S
C1128 C1129 1.414 1_554 S
C1128 C1131 1.499 . S
C1129 H1103 0.950 . S
C1129 C1128 1.414 1_556 S
C1129 C1130 1.374 . S
C1130 H1104 0.950 . S
C1130 C1126 1.385 1_556 S
C1130 C1129 1.374 . S
C1131 C1128 1.499 . S
C1131 C1132 1.373 1_554 S
C1131 C1133 1.389 . S
C1132 H1105 0.950 . S
C1132 C1118 1.377 1_556 S
C1132 C1131 1.373 1_556 S
C1133 C1117 1.377 . S
C1133 C1131 1.389 . S
C1133 C1134 1.524 . S
C1134 C1133 1.524 . S
C1134 C1135 1.397 1_554 S
C1134 C1139 1.363 . S
C1135 H1106 0.950 . S
C1135 C1134 1.397 1_556 S
C1135 C1136 1.334 . S
C1136 H1107 0.950 . S
C1136 C1135 1.334 . S
C1136 C1137 1.287 1_556 S
C1137 C1136 1.287 1_554 S
C1137 C1138 1.524 . S
C1137 H1140 0.999 . S
C1138 H1108 0.950 . S
C1138 C1137 1.524 . S
C1138 C1139 1.415 . S
C1139 H1109 0.950 . S
C1139 C1134 1.363 . S
C1139 C1138 1.415 . S
H1140 C1137 0.999 . S
H1141 C1122 0.914 . S
H1142 C1160 0.951 . S
H1143 C1162 0.951 . S
H1144 C1164 0.950 . S
H1145 C1165 0.950 . S
H1146 C1167 0.950 . S
H1147 C1170 0.950 . S
H1148 C1171 0.950 . S
H1149 C1173 0.950 . S
H1150 C1174 0.950 . S
H1151 C1175 0.951 . S
H1152 C1177 0.951 . S
H1153 C1179 0.950 . S
H1154 C1180 0.950 . S
H1155 C1182 0.950 . S
H1156 C1185 0.950 . S
H1157 C1186 0.950 . S
H1158 C1188 0.950 . S
H1159 C1189 0.950 . S
C1160 H1142 0.951 . S
C1160 C1161 1.366 . S
C1160 C1162 1.388 . S
C1161 C1160 1.366 . S
C1161 C1165 1.385 . S
C1162 H1143 0.951 . S
C1162 C1160 1.388 . S
C1162 C1163 1.366 . S
C1163 C1162 1.366 . S
C1163 C1164 1.414 . S
C1163 C1166 1.499 . S
C1164 H1144 0.950 . S
C1164 C1163 1.414 . S
C1164 C1165 1.374 . S
C1165 H1145 0.950 . S
C1165 C1161 1.385 . S
C1165 C1164 1.374 . S
C1166 C1163 1.499 . S
C1166 C1167 1.373 . S
C1166 C1168 1.389 . S
C1167 H1146 0.950 . S
C1167 C1166 1.373 . S
C1167 C1183 1.377 . S
C1168 C1166 1.389 . S
C1168 C1169 1.524 . S
C1168 C1182 1.377 . S
C1169 C1168 1.524 . S
C1169 C1170 1.397 . S
C1169 C1174 1.363 . S
C1170 H1147 0.950 . S
C1170 C1169 1.397 . S
C1170 C1171 1.334 . S
C1171 H1148 0.950 . S
C1171 C1170 1.334 . S
C1171 C1172 1.287 . S
C1172 C1171 1.287 . S
C1172 C1173 1.524 . S
C1172 H1191 0.913 . S
C1173 H1149 0.950 . S
C1173 C1172 1.524 . S
C1173 C1174 1.415 . S
C1174 H1150 0.950 . S
C1174 C1169 1.363 . S
C1174 C1173 1.415 . S
C1175 H1151 0.951 . S
C1175 C1176 1.366 . S
C1175 C1177 1.388 . S
C1176 C1175 1.366 . S
C1176 C1180 1.385 . S
C1177 H1152 0.951 . S
C1177 C1175 1.388 . S
C1177 C1178 1.366 . S
C1178 C1177 1.366 . S
C1178 C1179 1.414 . S
C1178 C1181 1.499 . S
C1179 H1153 0.950 . S
C1179 C1178 1.414 . S
C1179 C1180 1.374 . S
C1180 H1154 0.950 . S
C1180 C1176 1.385 . S
C1180 C1179 1.374 . S
C1181 C1178 1.499 . S
C1181 C1182 1.373 . S
C1181 C1183 1.389 . S
C1182 H1155 0.950 . S
C1182 C1168 1.377 . S
C1182 C1181 1.373 . S
C1183 C1167 1.377 . S
C1183 C1181 1.389 . S
C1183 C1184 1.524 . S
C1184 C1183 1.524 . S
C1184 C1185 1.397 . S
C1184 C1189 1.363 . S
C1185 H1156 0.950 . S
C1185 C1184 1.397 . S
C1185 C1186 1.334 . S
C1186 H1157 0.950 . S
C1186 C1185 1.334 . S
C1186 C1187 1.287 . S
C1187 C1186 1.287 . S
C1187 C1188 1.524 . S
C1187 H1190 0.999 . S
C1188 H1158 0.950 . S
C1188 C1187 1.524 . S
C1188 C1189 1.415 . S
C1189 H1159 0.950 . S
C1189 C1184 1.363 . S
C1189 C1188 1.415 . S
H1190 C1187 0.999 . S
H1191 C1172 0.913 . S
H1192 C1210 0.951 . S
H1193 C1212 0.951 . S
H1194 C1214 0.950 . S
H1195 C1215 0.950 . S
H1196 C1217 0.950 . S
H1197 C1220 0.950 . S
H1198 C1221 0.950 . S
H1199 C1223 0.950 . S
H1200 C1224 0.950 . S
H1201 C1225 0.951 . S
H1202 C1227 0.951 . S
H1203 C1229 0.950 . S
H1204 C1230 0.950 . S
H1205 C1232 0.950 . S
H1206 C1235 0.950 . S
H1207 C1236 0.950 . S
H1208 C1238 0.950 . S
H1209 C1239 0.950 . S
C1210 H1192 0.951 . S
C1210 C1211 1.366 . S
C1210 C1212 1.388 . S
C1211 C1210 1.366 . S
C1211 C1215 1.385 . S
C1212 H1193 0.951 . S
C1212 C1210 1.388 . S
C1212 C1213 1.366 . S
C1213 C1212 1.366 . S
C1213 C1214 1.414 . S
C1213 C1216 1.499 . S
C1214 H1194 0.950 . S
C1214 C1213 1.414 . S
C1214 C1215 1.374 . S
C1215 H1195 0.950 . S
C1215 C1211 1.385 . S
C1215 C1214 1.374 . S
C1216 C1213 1.499 . S
C1216 C1217 1.373 . S
C1216 C1218 1.389 . S
C1217 H1196 0.950 . S
C1217 C1216 1.373 . S
C1217 C1233 1.377 . S
C1218 C1216 1.389 . S
C1218 C1219 1.524 . S
C1218 C1232 1.377 . S
C1219 C1218 1.524 . S
C1219 C1220 1.397 . S
C1219 C1224 1.363 . S
C1220 H1197 0.950 . S
C1220 C1219 1.397 . S
C1220 C1221 1.334 . S
C1221 H1198 0.950 . S
C1221 C1220 1.334 . S
C1221 C1222 1.287 . S
C1222 C1221 1.287 . S
C1222 C1223 1.524 . S
C1222 H1241 0.913 . S
C1223 H1199 0.950 . S
C1223 C1222 1.524 . S
C1223 C1224 1.415 . S
C1224 H1200 0.950 . S
C1224 C1219 1.363 . S
C1224 C1223 1.415 . S
C1225 H1201 0.951 . S
C1225 C1226 1.366 . S
C1225 C1227 1.388 . S
C1226 C1225 1.366 . S
C1226 C1230 1.385 . S
C1227 H1202 0.951 . S
C1227 C1225 1.388 . S
C1227 C1228 1.366 . S
C1228 C1227 1.366 . S
C1228 C1229 1.414 . S
C1228 C1231 1.499 . S
C1229 H1203 0.950 . S
C1229 C1228 1.414 . S
C1229 C1230 1.374 . S
C1230 H1204 0.950 . S
C1230 C1226 1.385 . S
C1230 C1229 1.374 . S
C1231 C1228 1.499 . S
C1231 C1232 1.373 . S
C1231 C1233 1.389 . S
C1232 H1205 0.950 . S
C1232 C1218 1.377 . S
C1232 C1231 1.373 . S
C1233 C1217 1.377 . S
C1233 C1231 1.389 . S
C1233 C1234 1.524 . S
C1234 C1233 1.524 . S
C1234 C1235 1.397 . S
C1234 C1239 1.363 . S
C1235 H1206 0.950 . S
C1235 C1234 1.397 . S
C1235 C1236 1.334 . S
C1236 H1207 0.950 . S
C1236 C1235 1.334 . S
C1236 C1237 1.287 . S
C1237 C1236 1.287 . S
C1237 C1238 1.524 . S
C1237 H1240 0.999 . S
C1238 H1208 0.950 . S
C1238 C1237 1.524 . S
C1238 C1239 1.415 . S
C1239 H1209 0.950 . S
C1239 C1234 1.363 . S
C1239 C1238 1.415 . S
H1240 C1237 0.999 . S
H1241 C1222 0.913 . S
H1242 C1260 0.951 . S
H1243 C1262 0.951 . S
H1244 C1264 0.949 1_556 S
H1245 C1265 0.950 1_556 S
H1246 C1267 0.950 . S
H1247 C1270 0.950 . S
H1248 C1271 0.950 . S
H1249 C1273 0.950 . S
H1250 C1274 0.950 . S
H1251 C1275 0.951 . S
H1252 C1277 0.951 . S
H1253 C1279 0.950 . S
H1254 C1280 0.950 . S
H1255 C1282 0.950 . S
H1256 C1285 0.950 . S
H1257 C1286 0.950 . S
H1258 C1288 0.950 . S
H1259 C1289 0.950 . S
C1260 H1242 0.951 . S
C1260 C1261 1.366 . S
C1260 C1262 1.388 . S
C1261 C1260 1.366 . S
C1261 C1265 1.384 . S
C1262 H1243 0.951 . S
C1262 C1260 1.388 . S
C1262 C1263 1.366 . S
C1263 C1262 1.366 . S
C1263 C1264 1.415 . S
C1263 C1266 1.499 . S
C1264 H1244 0.949 1_554 S
C1264 C1263 1.415 . S
C1264 C1265 1.374 . S
C1265 H1245 0.950 1_554 S
C1265 C1261 1.384 . S
C1265 C1264 1.374 . S
C1266 C1263 1.499 . S
C1266 C1267 1.373 1_554 S
C1266 C1268 1.389 . S
C1267 H1246 0.950 . S
C1267 C1266 1.373 1_556 S
C1267 C1283 1.377 . S
C1268 C1266 1.389 . S
C1268 C1269 1.524 . S
C1268 C1282 1.377 . S
C1269 C1268 1.524 . S
C1269 C1270 1.397 . S
C1269 C1274 1.363 . S
C1270 H1247 0.950 . S
C1270 C1269 1.397 . S
C1270 C1271 1.334 . S
C1271 H1248 0.950 . S
C1271 C1270 1.334 . S
C1271 C1272 1.287 . S
C1272 C1271 1.287 . S
C1272 C1273 1.524 . S
C1272 H1291 0.913 . S
C1273 H1249 0.950 . S
C1273 C1272 1.524 . S
C1273 C1274 1.415 . S
C1274 H1250 0.950 . S
C1274 C1269 1.363 . S
C1274 C1273 1.415 . S
C1275 H1251 0.951 . S
C1275 C1276 1.366 1_556 S
C1275 C1277 1.388 . S
C1276 C1275 1.366 1_554 S
C1276 C1280 1.385 . S
C1277 H1252 0.951 . S
C1277 C1275 1.388 . S
C1277 C1278 1.366 1_556 S
C1278 C1277 1.366 1_554 S
C1278 C1279 1.414 . S
C1278 C1281 1.499 . S
C1279 H1253 0.950 . S
C1279 C1278 1.414 . S
C1279 C1280 1.374 . S
C1280 H1254 0.950 . S
C1280 C1276 1.385 . S
C1280 C1279 1.374 . S
C1281 C1278 1.499 . S
C1281 C1282 1.373 . S
C1281 C1283 1.389 1_554 S
C1282 H1255 0.950 . S
C1282 C1268 1.377 . S
C1282 C1281 1.373 . S
C1283 C1267 1.377 . S
C1283 C1281 1.389 1_556 S
C1283 C1284 1.524 . S
C1284 C1283 1.524 . S
C1284 C1285 1.397 . S
C1284 C1289 1.363 . S
C1285 H1256 0.950 . S
C1285 C1284 1.397 . S
C1285 C1286 1.334 . S
C1286 H1257 0.950 . S
C1286 C1285 1.334 . S
C1286 C1287 1.287 . S
C1287 C1286 1.287 . S
C1287 C1288 1.524 . S
C1287 H1290 0.999 . S
C1288 H1258 0.950 . S
C1288 C1287 1.524 . S
C1288 C1289 1.415 . S
C1289 H1259 0.950 . S
C1289 C1284 1.363 . S
C1289 C1288 1.415 . S
H1290 C1287 0.999 . S
H1291 C1272 0.913 . S
H1292 C1310 0.951 . S
H1293 C1312 0.951 . S
H1294 C1314 0.950 . S
H1295 C1315 0.950 . S
H1296 C1317 0.950 . S
H1297 C1320 0.950 . S
H1298 C1321 0.950 . S
H1299 C1323 0.950 . S
H1300 C1324 0.950 . S
H1301 C1325 0.951 . S
H1302 C1327 0.951 . S
H1303 C1329 0.950 . S
H1304 C1330 0.950 . S
H1305 C1332 0.950 . S
H1306 C1335 0.950 . S
H1307 C1336 0.950 . S
H1308 C1338 0.950 . S
H1309 C1339 0.950 . S
C1310 H1292 0.951 . S
C1310 C1311 1.366 . S
C1310 C1312 1.388 . S
C1311 C1310 1.366 . S
C1311 C1315 1.385 . S
C1312 H1293 0.951 . S
C1312 C1310 1.388 . S
C1312 C1313 1.366 . S
C1313 C1312 1.366 . S
C1313 C1314 1.414 . S
C1313 C1316 1.499 . S
C1314 H1294 0.950 . S
C1314 C1313 1.414 . S
C1314 C1315 1.374 . S
C1315 H1295 0.950 . S
C1315 C1311 1.385 . S
C1315 C1314 1.374 . S
C1316 C1313 1.499 . S
C1316 C1317 1.373 . S
C1316 C1318 1.389 . S
C1317 H1296 0.950 . S
C1317 C1316 1.373 . S
C1317 C1333 1.377 . S
C1318 C1316 1.389 . S
C1318 C1319 1.524 . S
C1318 C1332 1.377 . S
C1319 C1318 1.524 . S
C1319 C1320 1.397 . S
C1319 C1324 1.363 . S
C1320 H1297 0.950 . S
C1320 C1319 1.397 . S
C1320 C1321 1.334 . S
C1321 H1298 0.950 . S
C1321 C1320 1.334 . S
C1321 C1322 1.287 . S
C1322 C1321 1.287 . S
C1322 C1323 1.524 . S
C1322 H1341 0.913 . S
C1323 H1299 0.950 . S
C1323 C1322 1.524 . S
C1323 C1324 1.415 . S
C1324 H1300 0.950 . S
C1324 C1319 1.363 . S
C1324 C1323 1.415 . S
C1325 H1301 0.951 . S
C1325 C1326 1.366 . S
C1325 C1327 1.388 . S
C1326 C1325 1.366 . S
C1326 C1330 1.385 . S
C1327 H1302 0.951 . S
C1327 C1325 1.388 . S
C1327 C1328 1.366 . S
C1328 C1327 1.366 . S
C1328 C1329 1.414 . S
C1328 C1331 1.499 . S
C1329 H1303 0.950 . S
C1329 C1328 1.414 . S
C1329 C1330 1.374 . S
C1330 H1304 0.950 . S
C1330 C1326 1.385 . S
C1330 C1329 1.374 . S
C1331 C1328 1.499 . S
C1331 C1332 1.373 . S
C1331 C1333 1.389 . S
C1332 H1305 0.950 . S
C1332 C1318 1.377 . S
C1332 C1331 1.373 . S
C1333 C1317 1.377 . S
C1333 C1331 1.389 . S
C1333 C1334 1.524 . S
C1334 C1333 1.524 . S
C1334 C1335 1.397 . S
C1334 C1339 1.363 . S
C1335 H1306 0.950 . S
C1335 C1334 1.397 . S
C1335 C1336 1.334 . S
C1336 H1307 0.950 . S
C1336 C1335 1.334 . S
C1336 C1337 1.287 . S
C1337 C1336 1.287 . S
C1337 C1338 1.524 . S
C1337 H1340 0.999 . S
C1338 H1308 0.950 . S
C1338 C1337 1.524 . S
C1338 C1339 1.415 . S
C1339 H1309 0.950 . S
C1339 C1334 1.363 . S
C1339 C1338 1.415 . S
H1340 C1337 0.999 . S
H1341 C1322 0.913 . S
H1342 C1360 0.951 . S
H1343 C1362 0.951 . S
H1344 C1364 0.950 . S
H1345 C1365 0.950 . S
H1346 C1367 0.950 . S
H1347 C1370 0.950 1_554 S
H1348 C1371 0.950 . S
H1349 C1373 0.950 . S
H1350 C1374 0.950 . S
H1351 C1375 0.951 . S
H1352 C1377 0.951 . S
H1353 C1379 0.950 . S
H1354 C1380 0.950 . S
H1355 C1382 0.950 . S
H1356 C1385 0.950 1_556 S
H1357 C1386 0.950 . S
H1358 C1388 0.950 . S
H1359 C1389 0.950 . S
C1360 H1342 0.951 . S
C1360 C1361 1.366 1_556 S
C1360 C1362 1.388 . S
C1361 C1360 1.366 1_554 S
C1361 C1365 1.385 . S
C1362 H1343 0.951 . S
C1362 C1360 1.388 . S
C1362 C1363 1.366 1_556 S
C1363 C1362 1.366 1_554 S
C1363 C1364 1.414 . S
C1363 C1366 1.499 . S
C1364 H1344 0.950 . S
C1364 C1363 1.414 . S
C1364 C1365 1.374 . S
C1365 H1345 0.950 . S
C1365 C1361 1.385 . S
C1365 C1364 1.374 . S
C1366 C1363 1.499 . S
C1366 C1367 1.373 . S
C1366 C1368 1.389 1_554 S
C1367 H1346 0.950 . S
C1367 C1366 1.373 . S
C1367 C1383 1.377 . S
C1368 C1366 1.389 1_556 S
C1368 C1369 1.524 . S
C1368 C1382 1.377 . S
C1369 C1368 1.524 . S
C1369 C1370 1.397 . S
C1369 C1374 1.363 . S
C1370 H1347 0.950 1_556 S
C1370 C1369 1.397 . S
C1370 C1371 1.334 . S
C1371 H1348 0.950 . S
C1371 C1370 1.334 . S
C1371 C1372 1.287 . S
C1372 C1371 1.287 . S
C1372 C1373 1.524 . S
C1372 H1391 0.913 . S
C1373 H1349 0.950 . S
C1373 C1372 1.524 . S
C1373 C1374 1.415 . S
C1374 H1350 0.950 . S
C1374 C1369 1.363 . S
C1374 C1373 1.415 . S
C1375 H1351 0.951 . S
C1375 C1376 1.366 . S
C1375 C1377 1.388 . S
C1376 C1375 1.366 . S
C1376 C1380 1.385 1_554 S
C1377 H1352 0.951 . S
C1377 C1375 1.388 . S
C1377 C1378 1.366 . S
C1378 C1377 1.366 . S
C1378 C1379 1.414 1_554 S
C1378 C1381 1.499 . S
C1379 H1353 0.950 . S
C1379 C1378 1.414 1_556 S
C1379 C1380 1.374 . S
C1380 H1354 0.950 . S
C1380 C1376 1.385 1_556 S
C1380 C1379 1.374 . S
C1381 C1378 1.499 . S
C1381 C1382 1.373 1_554 S
C1381 C1383 1.389 . S
C1382 H1355 0.950 . S
C1382 C1368 1.377 . S
C1382 C1381 1.373 1_556 S
C1383 C1367 1.377 . S
C1383 C1381 1.389 . S
C1383 C1384 1.524 . S
C1384 C1383 1.524 . S
C1384 C1385 1.397 . S
C1384 C1389 1.363 . S
C1385 H1356 0.950 1_554 S
C1385 C1384 1.397 . S
C1385 C1386 1.334 . S
C1386 H1357 0.950 . S
C1386 C1385 1.334 . S
C1386 C1387 1.287 . S
C1387 C1386 1.287 . S
C1387 C1388 1.524 . S
C1387 H1390 0.999 . S
C1388 H1358 0.950 . S
C1388 C1387 1.524 . S
C1388 C1389 1.415 . S
C1389 H1359 0.950 . S
C1389 C1384 1.363 . S
C1389 C1388 1.415 . S
H1390 C1387 0.999 . S
H1391 C1372 0.913 . S
C211 C5 1.452 . S
C226 C135 1.463 . S
C261 C31 1.477 . S
C276 C97 1.466 . S
C326 C110 1.455 . S
C311 C53 1.462 . S
C361 C71 1.436 . S
C376 C122 1.449 . S
C426 C162 1.467 . S
C411 C75 1.477 . S
C476 C174 1.463 . S
C461 C9 1.452 . S
C526 C187 1.449 . S
C511 C27 1.436 . S
C576 C149 1.454 . S
C561 C49 1.461 . S
C611 C51 1.453 . S
C626 C109 1.460 . S
C661 C72 1.477 . S
C676 C123 1.468 . S
C711 C6 1.462 . S
C726 C136 1.455 . S
C776 C96 1.447 . S
C761 C29 1.437 . S
C811 C28 1.477 . S
C826 C188 1.468 . S
C876 C148 1.459 . S
C861 C50 1.452 . S
C926 C161 1.447 . S
C911 C73 1.436 . S
C961 C7 1.462 . S
C976 C175 1.455 . S
C1026 C92 1.451 1_554 S
C1011 C4 1.501 . S
C1076 C105 1.451 . S
C1061 C30 1.501 . S
C1111 C52 1.502 . S
C1126 C118 1.477 . S
C1161 C70 1.501 . S
C1176 C131 1.478 . S
C1226 C144 1.452 . S
C1211 C74 1.501 . S
C1261 C8 1.501 . S
C1276 C157 1.451 . S
C1311 C26 1.502 . S
C1326 C170 1.477 . S
C1361 C48 1.501 . S
C1376 C183 1.476 1_554 S
