# Generated by pormake.
# Topology ctn, (3,4)-cn, num edge types: 1
# Building blocks:
#     Node 0, Type 0, BuildingBlock: BETDAH_clean_linker_0, # of connection points: 3
#     Node 1, Type 0, BuildingBlock: BETDAH_clean_linker_0, # of connection points: 3
#     Node 2, Type 0, BuildingBlock: BETDAH_clean_linker_0, # of connection points: 3
#     Node 3, Type 0, BuildingBlock: BETDAH_clean_linker_0, # of connection points: 3
#     Node 4, Type 0, BuildingBlock: BETDAH_clean_linker_0, # of connection points: 3
#     Node 5, Type 0, BuildingBlock: BETDAH_clean_linker_0, # of connection points: 3
#     Node 6, Type 0, BuildingBlock: BETDAH_clean_linker_0, # of connection points: 3
#     Node 7, Type 0, BuildingBlock: BETDAH_clean_linker_0, # of connection points: 3
#     Node 8, Type 0, BuildingBlock: BETDAH_clean_linker_0, # of connection points: 3
#     Node 9, Type 0, BuildingBlock: BETDAH_clean_linker_0, # of connection points: 3
#     Node 10, Type 0, BuildingBlock: BETDAH_clean_linker_0, # of connection points: 3
#     Node 11, Type 0, BuildingBlock: BETDAH_clean_linker_0, # of connection points: 3
#     Node 12, Type 0, BuildingBlock: BETDAH_clean_linker_0, # of connection points: 3
#     Node 13, Type 0, BuildingBlock: BETDAH_clean_linker_0, # of connection points: 3
#     Node 14, Type 0, BuildingBlock: BETDAH_clean_linker_0, # of connection points: 3
#     Node 15, Type 0, BuildingBlock: BETDAH_clean_linker_0, # of connection points: 3
#     Node 16, Type 1, BuildingBlock: AZAVOO_clean_sbu_0, # of connection points: 4
#     Node 17, Type 1, BuildingBlock: AZAVOO_clean_sbu_0, # of connection points: 4
#     Node 18, Type 1, BuildingBlock: AZAVOO_clean_sbu_0, # of connection points: 4
#     Node 19, Type 1, BuildingBlock: AZAVOO_clean_sbu_0, # of connection points: 4
#     Node 20, Type 1, BuildingBlock: AZAVOO_clean_sbu_0, # of connection points: 4
#     Node 21, Type 1, BuildingBlock: AZAVOO_clean_sbu_0, # of connection points: 4
#     Node 22, Type 1, BuildingBlock: AZAVOO_clean_sbu_0, # of connection points: 4
#     Node 23, Type 1, BuildingBlock: AZAVOO_clean_sbu_0, # of connection points: 4
#     Node 24, Type 1, BuildingBlock: AZAVOO_clean_sbu_0, # of connection points: 4
#     Node 25, Type 1, BuildingBlock: AZAVOO_clean_sbu_0, # of connection points: 4
#     Node 26, Type 1, BuildingBlock: AZAVOO_clean_sbu_0, # of connection points: 4
#     Node 27, Type 1, BuildingBlock: AZAVOO_clean_sbu_0, # of connection points: 4
#     Edge 28, Type (0, 1), BuildingBlock: CIFDUS_clean_linker_0, # of connection points: 2
#     Edge 29, Type (0, 1), BuildingBlock: CIFDUS_clean_linker_0, # of connection points: 2
#     Edge 30, Type (0, 1), BuildingBlock: CIFDUS_clean_linker_0, # of connection points: 2
#     Edge 31, Type (0, 1), BuildingBlock: CIFDUS_clean_linker_0, # of connection points: 2
#     Edge 32, Type (0, 1), BuildingBlock: CIFDUS_clean_linker_0, # of connection points: 2
#     Edge 33, Type (0, 1), BuildingBlock: CIFDUS_clean_linker_0, # of connection points: 2
#     Edge 34, Type (0, 1), BuildingBlock: CIFDUS_clean_linker_0, # of connection points: 2
#     Edge 35, Type (0, 1), BuildingBlock: CIFDUS_clean_linker_0, # of connection points: 2
#     Edge 36, Type (0, 1), BuildingBlock: CIFDUS_clean_linker_0, # of connection points: 2
#     Edge 37, Type (0, 1), BuildingBlock: CIFDUS_clean_linker_0, # of connection points: 2
#     Edge 38, Type (0, 1), BuildingBlock: CIFDUS_clean_linker_0, # of connection points: 2
#     Edge 39, Type (0, 1), BuildingBlock: CIFDUS_clean_linker_0, # of connection points: 2
#     Edge 40, Type (0, 1), BuildingBlock: CIFDUS_clean_linker_0, # of connection points: 2
#     Edge 41, Type (0, 1), BuildingBlock: CIFDUS_clean_linker_0, # of connection points: 2
#     Edge 42, Type (0, 1), BuildingBlock: CIFDUS_clean_linker_0, # of connection points: 2
#     Edge 43, Type (0, 1), BuildingBlock: CIFDUS_clean_linker_0, # of connection points: 2
#     Edge 44, Type (0, 1), BuildingBlock: CIFDUS_clean_linker_0, # of connection points: 2
#     Edge 45, Type (0, 1), BuildingBlock: CIFDUS_clean_linker_0, # of connection points: 2
#     Edge 46, Type (0, 1), BuildingBlock: CIFDUS_clean_linker_0, # of connection points: 2
#     Edge 47, Type (0, 1), BuildingBlock: CIFDUS_clean_linker_0, # of connection points: 2
#     Edge 48, Type (0, 1), BuildingBlock: CIFDUS_clean_linker_0, # of connection points: 2
#     Edge 49, Type (0, 1), BuildingBlock: CIFDUS_clean_linker_0, # of connection points: 2
#     Edge 50, Type (0, 1), BuildingBlock: CIFDUS_clean_linker_0, # of connection points: 2
#     Edge 51, Type (0, 1), BuildingBlock: CIFDUS_clean_linker_0, # of connection points: 2
#     Edge 52, Type (0, 1), BuildingBlock: CIFDUS_clean_linker_0, # of connection points: 2
#     Edge 53, Type (0, 1), BuildingBlock: CIFDUS_clean_linker_0, # of connection points: 2
#     Edge 54, Type (0, 1), BuildingBlock: CIFDUS_clean_linker_0, # of connection points: 2
#     Edge 55, Type (0, 1), BuildingBlock: CIFDUS_clean_linker_0, # of connection points: 2
#     Edge 56, Type (0, 1), BuildingBlock: CIFDUS_clean_linker_0, # of connection points: 2
#     Edge 57, Type (0, 1), BuildingBlock: CIFDUS_clean_linker_0, # of connection points: 2
#     Edge 58, Type (0, 1), BuildingBlock: CIFDUS_clean_linker_0, # of connection points: 2
#     Edge 59, Type (0, 1), BuildingBlock: CIFDUS_clean_linker_0, # of connection points: 2
#     Edge 60, Type (0, 1), BuildingBlock: CIFDUS_clean_linker_0, # of connection points: 2
#     Edge 61, Type (0, 1), BuildingBlock: CIFDUS_clean_linker_0, # of connection points: 2
#     Edge 62, Type (0, 1), BuildingBlock: CIFDUS_clean_linker_0, # of connection points: 2
#     Edge 63, Type (0, 1), BuildingBlock: CIFDUS_clean_linker_0, # of connection points: 2
#     Edge 64, Type (0, 1), BuildingBlock: CIFDUS_clean_linker_0, # of connection points: 2
#     Edge 65, Type (0, 1), BuildingBlock: CIFDUS_clean_linker_0, # of connection points: 2
#     Edge 66, Type (0, 1), BuildingBlock: CIFDUS_clean_linker_0, # of connection points: 2
#     Edge 67, Type (0, 1), BuildingBlock: CIFDUS_clean_linker_0, # of connection points: 2
#     Edge 68, Type (0, 1), BuildingBlock: CIFDUS_clean_linker_0, # of connection points: 2
#     Edge 69, Type (0, 1), BuildingBlock: CIFDUS_clean_linker_0, # of connection points: 2
#     Edge 70, Type (0, 1), BuildingBlock: CIFDUS_clean_linker_0, # of connection points: 2
#     Edge 71, Type (0, 1), BuildingBlock: CIFDUS_clean_linker_0, # of connection points: 2
#     Edge 72, Type (0, 1), BuildingBlock: CIFDUS_clean_linker_0, # of connection points: 2
#     Edge 73, Type (0, 1), BuildingBlock: CIFDUS_clean_linker_0, # of connection points: 2
#     Edge 74, Type (0, 1), BuildingBlock: CIFDUS_clean_linker_0, # of connection points: 2
#     Edge 75, Type (0, 1), BuildingBlock: CIFDUS_clean_linker_0, # of connection points: 2
# Relax obj value: 0.052
# Max RMSD: 0.176
# Mean RMSD: 0.103
data_MOF--net-ctn--node1-AZAVOO_clean_sbu_0--node2-BETDAH_clean_linker_0--edge1-CIFDUS_clean_linker_0
_symmetry_space_group_name_H-M    P1
_symmetry_Int_Tables_number       1
_symmetry_cell_setting            triclinic
loop_
_symmetry_equiv_pos_as_xyz
'x, y, z'
_cell_length_a     46.092313
_cell_length_b     47.079337
_cell_length_c     47.542005
_cell_angle_alpha  98.762214
_cell_angle_beta   92.934355
_cell_angle_gamma 97.962859
loop_
_atom_site_label
_atom_site_type_symbol
_atom_site_fract_x
_atom_site_fract_y
_atom_site_fract_z
_atom_type_partial_charge
H0 H 0.07455 0.98619 0.07212 0.0
H1 H 0.08095 0.98915 0.98272 0.0
H2 H 0.02016 0.03599 0.02835 0.0
C3 C 0.06766 0.99417 0.05305 0.0
C4 C 0.04517 0.01184 0.05373 0.0
C5 C 0.08136 0.98659 0.02772 0.0
C6 C 0.07146 0.99567 1.00266 0.0
C7 C 0.04959 0.01342 1.00296 0.0
C8 C 0.03687 0.02195 0.02848 0.0
N9 N 0.03996 0.02146 0.97695 0.0
C10 C 0.03631 0.04975 0.97443 0.0
H11 H 0.34422 0.71157 0.29858 0.0
H12 H 0.38986 0.79491 0.28838 0.0
H13 H 0.30829 0.75976 0.23886 0.0
C14 C 0.34568 0.73082 0.28844 0.0
C15 C 0.32363 0.7331 0.26783 0.0
C16 C 0.36958 0.75294 0.29605 0.0
C17 C 0.37147 0.77759 0.28264 0.0
C18 C 0.34964 0.7803 0.26198 0.0
C19 C 0.32543 0.75799 0.25468 0.0
N20 N 0.35287 0.80583 0.24925 0.0
C21 C 0.33578 0.80975 0.22563 0.0
H22 H 0.04532 0.438 0.08949 0.0
H23 H 0.04211 0.52918 0.09184 0.0
H24 H 0.99597 0.46721 0.02283 0.0
C25 C 0.03676 0.45539 0.08071 0.0
C26 C 0.01955 0.44912 0.05465 0.0
C27 C 0.04511 0.48422 0.09421 0.0
C28 C 0.03544 0.50678 0.08183 0.0
C29 C 0.01687 0.50068 0.05675 0.0
C30 C 0.00911 0.47183 0.04301 0.0
N31 N 0.00796 0.5241 0.04473 0.0
C32 C 0.97903 0.52467 0.03537 0.0
H33 H 0.82575 0.81739 0.178 0.0
H34 H 0.738 0.79202 0.20131 0.0
H35 H 0.7884 0.87221 0.2431 0.0
C36 C 0.80799 0.82138 0.19147 0.0
C37 C 0.81064 0.8472 0.21125 0.0
C38 C 0.78181 0.8015 0.18762 0.0
C39 C 0.75837 0.80706 0.20443 0.0
C40 C 0.76098 0.83262 0.22454 0.0
C41 C 0.78682 0.85258 0.22754 0.0
N42 N 0.73751 0.83979 0.24103 0.0
C43 C 0.71839 0.81966 0.2522 0.0
H44 H 0.07758 0.03767 0.46665 0.0
H45 H 0.06871 1.00162 0.5443 0.0
H46 H 0.99763 0.98349 0.47893 0.0
C47 C 0.06498 0.02376 0.47926 0.0
C48 C 0.03641 0.01047 0.46908 0.0
C49 C 0.07675 0.02095 0.50638 0.0
C50 C 0.06006 1.00351 0.52315 0.0
C51 C 0.03156 0.98968 0.51299 0.0
C52 C 0.01976 0.99381 0.48636 0.0
N53 N 0.01311 0.97362 0.5299 0.0
C54 C 0.02186 0.95385 0.54643 0.0
H55 H 0.28449 0.70617 0.83213 0.0
H56 H 0.19931 0.71583 0.79616 0.0
H57 H 0.24857 0.65313 0.75323 0.0
C58 C 0.26702 0.70032 0.81522 0.0
C59 C 0.26986 0.67854 0.79231 0.0
C60 C 0.24159 0.71381 0.81706 0.0
C61 C 0.21889 0.70548 0.79513 0.0
C62 C 0.22142 0.68356 0.77205 0.0
C63 C 0.24667 0.66991 0.7711 0.0
N64 N 0.19899 0.6743 0.74957 0.0
C65 C 0.1769 0.69005 0.74274 0.0
H66 H 0.93618 0.53426 0.51611 0.0
H67 H 1.00218 0.55347 0.45743 0.0
H68 H 0.94964 0.46934 0.44629 0.0
C69 C 0.9479 0.52782 0.49757 0.0
C70 C 0.94078 0.4994 0.48265 0.0
C71 C 0.97024 0.54769 0.4889 0.0
C72 C 0.98489 0.53868 0.46438 0.0
C73 C 0.97717 0.51039 0.44891 0.0
C74 C 0.9553 0.49113 0.45823 0.0
N75 N 0.99033 0.50016 0.42367 0.0
C76 C 0.01548 0.51345 0.41324 0.0
H77 H 0.8438 0.75633 0.80348 0.0
H78 H 0.79084 0.79735 0.74842 0.0
H79 H 0.76023 0.77893 0.82803 0.0
C80 C 0.82431 0.76591 0.79917 0.0
C81 C 0.803 0.76735 0.81939 0.0
C82 C 0.82005 0.77646 0.77316 0.0
C83 C 0.79454 0.78908 0.76816 0.0
C84 C 0.77303 0.78978 0.78795 0.0
C85 C 0.77724 0.77861 0.81309 0.0
N86 N 0.74584 0.79942 0.78226 0.0
C87 C 0.74327 0.82546 0.77267 0.0
H88 H 0.35746 0.24682 0.32289 0.0
H89 H 0.3169 0.30918 0.28217 0.0
H90 H 0.27191 0.2664 0.34374 0.0
C91 C 0.3396 0.25912 0.32032 0.0
C92 C 0.31494 0.25453 0.33636 0.0
C93 C 0.34072 0.2786 0.30028 0.0
C94 C 0.31668 0.29386 0.29701 0.0
C95 C 0.29172 0.28867 0.31227 0.0
C96 C 0.29111 0.26924 0.33165 0.0
N97 N 0.26589 0.30105 0.30754 0.0
C98 C 0.26512 0.32895 0.30169 0.0
H99 H 0.55394 0.95576 0.57696 0.0
H100 H 0.51969 0.03384 0.56433 0.0
H101 H 0.5028 0.95791 0.49942 0.0
C102 C 0.54083 0.96721 0.56419 0.0
C103 C 0.52838 0.95331 0.53729 0.0
C104 C 0.53824 0.99636 0.5739 0.0
C105 C 0.52161 0.01127 0.55703 0.0
C106 C 0.50835 0.99712 0.53025 0.0
C107 C 0.51255 0.96853 0.52026 0.0
N108 N 0.49161 0.0112 0.51229 0.0
C109 C 0.47455 0.03223 0.52215 0.0
H110 H 0.28551 0.33871 0.681 0.0
H111 H 0.19476 0.31336 0.69519 0.0
H112 H 0.23927 0.3972 0.73426 0.0
C113 C 0.26599 0.34334 0.69152 0.0
C114 C 0.26596 0.37052 0.7086 0.0
C115 C 0.24039 0.32268 0.68644 0.0
C116 C 0.21471 0.32899 0.69923 0.0
C117 C 0.21453 0.35593 0.71647 0.0
C118 C 0.2399 0.37656 0.72082 0.0
N119 N 0.18859 0.3634 0.72841 0.0
C120 C 0.17319 0.3467 0.74597 0.0
H121 H 0.83096 0.20542 0.78697 0.0
H122 H 0.88507 0.28086 0.76732 0.0
H123 H 0.80212 0.24838 0.71944 0.0
C124 C 0.83472 0.22285 0.77446 0.0
C125 C 0.81364 0.22479 0.75279 0.0
C126 C 0.86055 0.24295 0.78001 0.0
C127 C 0.86528 0.26501 0.76324 0.0
C128 C 0.84458 0.26712 0.74129 0.0
C129 C 0.81845 0.24701 0.7362 0.0
N130 N 0.85097 0.28981 0.725 0.0
C131 C 0.83439 0.29295 0.70075 0.0
H132 H 0.5552 0.48093 0.56824 0.0
H133 H 0.55534 0.49396 0.48057 0.0
H134 H 0.48718 0.52135 0.53112 0.0
C135 C 0.54549 0.48921 0.5505 0.0
C136 C 0.51949 0.50177 0.55352 0.0
C137 C 0.55851 0.48618 0.52423 0.0
C138 C 0.54555 0.49606 0.5009 0.0
C139 C 0.51971 0.50835 0.50354 0.0
C140 C 0.50678 0.51109 0.52958 0.0
N141 N 0.506 0.51746 0.47988 0.0
C142 C 0.51986 0.53977 0.46716 0.0
H143 H 0.58915 0.54183 0.95888 0.0
H144 H 0.5922 0.5029 0.03513 0.0
H145 H 0.51413 0.48477 0.97799 0.0
C146 C 0.57885 0.5274 0.97241 0.0
C147 C 0.54995 0.5134 0.96507 0.0
C148 C 0.59429 0.52378 0.99756 0.0
C149 C 0.58078 0.50522 0.0153 0.0
C150 C 0.55191 0.49078 0.00795 0.0
C151 C 0.53666 0.49522 0.98306 0.0
N152 N 0.53643 0.47421 0.02651 0.0
C153 C 0.54744 0.45314 0.03982 0.0
H154 H 0.80572 0.22008 0.32891 0.0
H155 H 0.71805 0.23041 0.30013 0.0
H156 H 0.761 0.16291 0.25613 0.0
C157 C 0.78652 0.21374 0.31397 0.0
C158 C 0.78658 0.19038 0.29185 0.0
C159 C 0.76193 0.22837 0.31746 0.0
C160 C 0.73703 0.21924 0.29801 0.0
C161 C 0.73661 0.19548 0.27593 0.0
C162 C 0.76126 0.18096 0.27331 0.0
N163 N 0.71183 0.18528 0.25609 0.0
C164 C 0.68912 0.20082 0.25052 0.0
H165 H 0.43333 0.04142 0.03194 0.0
H166 H 0.48539 0.06901 0.96493 0.0
H167 H 0.42855 0.98734 0.95034 0.0
C168 C 0.44008 0.0382 0.01035 0.0
C169 C 0.4283 0.01234 0.99225 0.0
C170 C 0.46066 0.05932 1.00096 0.0
C171 C 0.47019 0.05316 0.97312 0.0
C172 C 0.45882 0.02696 0.9551 0.0
C173 C 0.43772 0.0071 0.96466 0.0
N174 N 0.46671 0.02029 0.92663 0.0
C175 C 0.49327 0.03042 0.91638 0.0
Mg176 Mg 0.25017 0.84701 0.02888 0.0
O177 O 0.29382 0.87778 0.02499 0.0
O178 O 0.32854 0.84883 0.02459 0.0
Mg179 Mg 0.30953 0.80254 0.02822 0.0
C180 C 0.32068 0.87362 0.02344 0.0
C181 C 0.19661 0.8743 0.03316 0.0
O182 O 0.19414 0.85159 0.04635 0.0
O183 O 0.25009 0.82742 0.98146 0.0
O184 O 0.28642 0.80058 0.98389 0.0
O185 O 0.25633 0.85512 0.07649 0.0
O186 O 0.27338 0.81992 0.04929 0.0
C187 C 0.26646 0.80991 0.96972 0.0
C188 C 0.27122 0.83364 0.07449 0.0
O189 O 0.21996 0.88013 0.02059 0.0
Mg190 Mg 0.19895 0.53658 0.28256 0.0
O191 O 0.17285 0.52772 0.23838 0.0
O192 O 0.20615 0.52857 0.20571 0.0
Mg193 Mg 0.25216 0.53431 0.22755 0.0
C194 C 0.17958 0.52628 0.21248 0.0
C195 C 0.13474 0.5384 0.30125 0.0
O196 O 0.13491 0.55508 0.28146 0.0
O197 O 0.20887 0.48961 0.27687 0.0
O198 O 0.24164 0.4907 0.24369 0.0
O199 O 0.20335 0.58476 0.28267 0.0
O200 O 0.23526 0.55712 0.26542 0.0
C201 C 0.22647 0.47733 0.26073 0.0
C202 C 0.22717 0.58238 0.26977 0.0
O203 O 0.15717 0.52624 0.30573 0.0
Mg204 Mg 0.81549 0.65747 0.00881 0.0
O205 O 0.77038 0.62796 0.00385 0.0
O206 O 0.73682 0.65807 0.01032 0.0
Mg207 Mg 0.75949 0.7055 0.01829 0.0
C208 C 0.74375 0.63251 0.00559 0.0
C209 C 0.84101 0.59953 0.00676 0.0
O210 O 0.8248 0.59863 0.02864 0.0
O211 O 0.80815 0.66954 0.96425 0.0
O212 O 0.77778 0.70238 0.97368 0.0
O213 O 0.81911 0.65895 0.05634 0.0
O214 O 0.79853 0.69024 0.03501 0.0
C215 C 0.79401 0.68904 0.95678 0.0
C216 C 0.80549 0.68133 0.05836 0.0
O217 O 0.8398 0.6199 0.99216 0.0
Mg218 Mg 0.96416 0.05438 0.25759 0.0
O219 O 0.93585 0.01009 0.24464 0.0
O220 O 0.96427 0.97604 0.23306 0.0
Mg221 Mg 0.01199 0.99918 0.23768 0.0
C222 C 0.93899 0.98368 0.23641 0.0
C223 C 0.92103 0.09942 0.27107 0.0
O224 O 0.9432 0.11511 0.2617 0.0
O225 O 0.97834 0.04176 0.30129 0.0
O226 O 0.00937 0.01117 0.28579 0.0
O227 O 0.96406 0.06056 0.21123 0.0
O228 O 0.99759 0.04072 0.23281 0.0
C229 C 0.99744 0.02531 0.30605 0.0
C230 C 0.98741 0.04815 0.20982 0.0
O231 O 0.92311 0.07317 0.27344 0.0
Mg232 Mg 0.29493 0.16357 0.53117 0.0
O233 O 0.25139 0.13089 0.52554 0.0
O234 O 0.21463 0.15744 0.52594 0.0
Mg235 Mg 0.23371 0.20526 0.52835 0.0
C236 C 0.22398 0.13304 0.52481 0.0
C237 C 0.34713 0.13014 0.53539 0.0
O238 O 0.3547 0.15354 0.55464 0.0
O239 O 0.29059 0.16983 0.48444 0.0
O240 O 0.25346 0.19588 0.48467 0.0
O241 O 0.29422 0.1707 0.57881 0.0
O242 O 0.27361 0.19681 0.55093 0.0
C243 C 0.27317 0.18347 0.47178 0.0
C244 C 0.27915 0.19154 0.57628 0.0
O245 O 0.32243 0.12693 0.52114 0.0
Mg246 Mg 0.44714 0.54249 0.76027 0.0
O247 O 0.41903 0.49784 0.747 0.0
O248 O 0.44795 0.46415 0.73559 0.0
Mg249 Mg 0.49537 0.48736 0.74274 0.0
C250 C 0.42253 0.47157 0.7385 0.0
C251 C 0.40489 0.58807 0.77615 0.0
O252 O 0.42854 0.6049 0.77091 0.0
O253 O 0.46003 0.5305 0.80409 0.0
O254 O 0.48892 0.49701 0.79067 0.0
O255 O 0.447 0.548 0.71436 0.0
O256 O 0.48108 0.52876 0.73619 0.0
C257 C 0.4765 0.51205 0.80988 0.0
C258 C 0.47029 0.53548 0.71301 0.0
O259 O 0.40577 0.56102 0.77511 0.0
Mg260 Mg 0.73518 0.36199 0.52625 0.0
O261 O 0.77819 0.39258 0.52153 0.0
O262 O 0.81451 0.36585 0.5234 0.0
Mg263 Mg 0.79593 0.31956 0.52819 0.0
C264 C 0.80544 0.38987 0.52107 0.0
C265 C 0.70776 0.41863 0.5327 0.0
O266 O 0.72824 0.42424 0.55387 0.0
O267 O 0.73507 0.33975 0.47979 0.0
O268 O 0.77239 0.3143 0.48334 0.0
O269 O 0.74167 0.37258 0.57368 0.0
O270 O 0.75852 0.33602 0.54821 0.0
C271 C 0.75175 0.3222 0.46873 0.0
C272 C 0.75661 0.35119 0.5728 0.0
O273 O 0.70637 0.39516 0.51509 0.0
Mg274 Mg 0.67366 0.04135 0.7804 0.0
O275 O 0.64353 0.03281 0.73889 0.0
O276 O 0.67245 0.0283 0.70251 0.0
Mg277 Mg 0.72013 0.03159 0.72018 0.0
C278 C 0.64719 0.02904 0.71219 0.0
C279 C 0.63578 0.02449 0.82981 0.0
O280 O 0.66025 0.01492 0.83658 0.0
O281 O 0.67907 0.99307 0.77507 0.0
O282 O 0.70955 0.98994 0.73994 0.0
O283 O 0.68213 0.08936 0.77861 0.0
O284 O 0.7092 0.05762 0.75928 0.0
C285 C 0.69494 0.97863 0.75866 0.0
C286 C 0.7041 0.08401 0.76377 0.0
O287 O 0.63381 0.03559 0.80714 0.0
Mg288 Mg 0.06658 0.25452 0.91452 0.0
O289 O 0.02325 0.24611 0.88706 0.0
O290 O 0.98731 0.23052 0.91324 0.0
Mg291 Mg 0.00829 0.22752 0.9573 0.0
C292 C 0.99619 0.23773 0.88994 0.0
C293 C 0.11501 0.27638 0.87771 0.0
O294 O 0.1289 0.26208 0.89444 0.0
O295 O 0.05252 0.29554 0.93835 0.0
O296 O 0.01901 0.27765 0.966 0.0
O297 O 0.0738 0.2091 0.90086 0.0
O298 O 0.05072 0.22326 0.93899 0.0
C299 C 0.0344 0.29911 0.9576 0.0
C300 C 0.05922 0.2024 0.92208 0.0
O301 O 0.08817 0.27847 0.88108 0.0
Mg302 Mg 0.58064 0.74676 0.41723 0.0
O303 O 0.53623 0.74363 0.3921 0.0
O304 O 0.50089 0.7341 0.42134 0.0
Mg305 Mg 0.52246 0.72979 0.46464 0.0
C306 C 0.50913 0.73924 0.39711 0.0
C307 C 0.61656 0.75446 0.36327 0.0
O308 O 0.61655 0.72643 0.3624 0.0
O309 O 0.57302 0.79102 0.44058 0.0
O310 O 0.53939 0.77858 0.47052 0.0
O311 O 0.58104 0.6987 0.40494 0.0
O312 O 0.56111 0.71876 0.44285 0.0
C313 C 0.55654 0.79775 0.46061 0.0
C314 C 0.56564 0.6956 0.42657 0.0
O315 O 0.60378 0.7683 0.38288 0.0
Mg316 Mg 0.9929 0.74926 0.62434 0.0
O317 O 0.03791 0.7449 0.64683 0.0
O318 O 0.06641 0.7347 0.611 0.0
Mg319 Mg 0.04128 0.73076 0.56761 0.0
C320 C 0.06257 0.73956 0.63762 0.0
C321 C 0.94623 0.76189 0.66357 0.0
O322 O 0.93389 0.74826 0.63874 0.0
O323 O 0.01138 0.79414 0.61263 0.0
O324 O 0.03798 0.77956 0.57661 0.0
O325 O 0.97838 0.70159 0.62233 0.0
O326 O 1.00057 0.72031 0.588 0.0
C327 C 0.02774 0.79968 0.59253 0.0
C328 C 0.98951 0.69753 0.59787 0.0
O329 O 0.97416 0.76815 0.66618 0.0
Mg330 Mg 0.49717 0.25907 0.14124 0.0
O331 O 0.54221 0.25252 0.16241 0.0
O332 O 0.56908 0.24372 0.12495 0.0
Mg333 Mg 0.54251 0.24014 0.08225 0.0
C334 C 0.56646 0.24764 0.15185 0.0
C335 C 0.45262 0.28291 0.17644 0.0
O336 O 0.44392 0.27962 0.14922 0.0
O337 O 0.51704 0.3033 0.13001 0.0
O338 O 0.54035 0.28948 0.09127 0.0
O339 O 0.47882 0.21239 0.13831 0.0
O340 O 0.50285 0.22999 0.10443 0.0
C341 C 0.53156 0.30932 0.10886 0.0
C342 C 0.48902 0.20782 0.11346 0.0
O343 O 0.47862 0.27846 0.18289 0.0
H344 H 0.28346 0.75707 0.844 0.0
H345 H 0.19333 0.71921 0.84792 0.0
H346 H 0.19144 0.74954 0.89421 0.0
H347 H 0.21779 0.78185 0.93669 0.0
H348 H 0.30925 0.8154 0.93377 0.0
H349 H 0.30835 0.79186 0.8842 0.0
C350 C 0.26333 0.75554 0.8549 0.0
C351 C 0.23875 0.73553 0.84268 0.0
C352 C 0.26275 0.77221 0.8819 0.0
C353 C 0.2126 0.73443 0.85677 0.0
C354 C 0.21158 0.75161 0.88339 0.0
C355 C 0.23721 0.78452 0.92483 0.0
C356 C 0.26353 0.80033 0.93862 0.0
C357 C 0.23682 0.7699 0.89661 0.0
C358 C 0.28878 0.80332 0.92341 0.0
C359 C 0.2883 0.78978 0.89516 0.0
H360 H 0.01648 0.53382 0.36362 0.0
H361 H 0.0712 0.50794 0.42841 0.0
H362 H 0.11337 0.51284 0.39911 0.0
H363 H 0.13392 0.52235 0.35399 0.0
H364 H 0.07912 0.54895 0.28944 0.0
H365 H 0.03771 0.54573 0.31947 0.0
C366 C 0.03785 0.52986 0.37145 0.0
C367 C 0.0411 0.52097 0.39813 0.0
C368 C 0.06178 0.53238 0.35431 0.0
C369 C 0.06853 0.51528 0.40803 0.0
C370 C 0.0925 0.51782 0.39119 0.0
C371 C 0.11288 0.52732 0.34646 0.0
C372 C 0.10956 0.5356 0.31937 0.0
C373 C 0.08926 0.5259 0.36407 0.0
C374 C 0.08226 0.54242 0.31013 0.0
C375 C 0.05857 0.54065 0.32733 0.0
H376 H 0.81266 0.71372 0.83069 0.0
H377 H 0.80032 0.79921 0.87103 0.0
H378 H 0.79635 0.78237 0.91687 0.0
H379 H 0.79278 0.74295 0.94482 0.0
H380 H 0.80659 0.65734 0.90638 0.0
H381 H 0.81348 0.67445 0.86051 0.0
C382 C 0.80978 0.7287 0.8497 0.0
C383 C 0.80664 0.75764 0.8475 0.0
C384 C 0.80719 0.71872 0.87616 0.0
C385 C 0.80266 0.77683 0.87222 0.0
C386 C 0.80022 0.76718 0.89839 0.0
C387 C 0.79718 0.72794 0.92639 0.0
C388 C 0.79856 0.69877 0.92885 0.0
C389 C 0.80168 0.73805 0.90046 0.0
C390 C 0.80511 0.67984 0.90495 0.0
C391 C 0.80911 0.68965 0.87876 0.0
H392 H 0.06359 0.00714 0.41982 0.0
H393 H 0.98145 0.02256 0.45424 0.0
H394 H 0.96198 0.0297 0.40726 0.0
H395 H 0.96851 0.03132 0.35573 0.0
H396 H 0.05112 0.01462 0.32267 0.0
H397 H 0.07014 0.00878 0.36962 0.0
C398 C 0.04149 0.01229 0.41713 0.0
C399 C 0.02409 0.01439 0.44054 0.0
C400 C 0.03047 0.01627 0.39017 0.0
C401 C 0.99528 0.02056 0.43651 0.0
C402 C 0.98418 0.02482 0.40967 0.0
C403 C 0.99069 0.02659 0.35894 0.0
C404 C 0.00823 0.02332 0.33558 0.0
C405 C 1.00159 0.02273 0.38624 0.0
C406 C 0.03693 0.01698 0.3401 0.0
C407 C 0.04795 0.01366 0.36701 0.0
H408 H 0.27593 0.28144 0.68809 0.0
H409 H 0.20456 0.30425 0.63817 0.0
H410 H 0.20848 0.26386 0.60017 0.0
H411 H 0.2354 0.22511 0.57946 0.0
H412 H 0.30565 0.20102 0.63001 0.0
H413 H 0.29869 0.23847 0.66967 0.0
C414 C 0.261 0.27719 0.66904 0.0
C415 C 0.24013 0.29577 0.66572 0.0
C416 C 0.26327 0.25382 0.64741 0.0
C417 C 0.22071 0.29009 0.64113 0.0
C418 C 0.22306 0.26713 0.61938 0.0
C419 C 0.24893 0.22778 0.59925 0.0
C420 C 0.27126 0.21056 0.60162 0.0
C421 C 0.24472 0.24929 0.62201 0.0
C422 C 0.28829 0.214 0.62763 0.0
C423 C 0.28446 0.23555 0.65027 0.0
H424 H 0.54658 0.51286 0.60775 0.0
H425 H 0.46069 0.49861 0.56258 0.0
H426 H 0.43825 0.50883 0.60745 0.0
H427 H 0.44276 0.52271 0.65972 0.0
H428 H 0.52767 0.53158 0.70525 0.0
H429 H 0.55053 0.52184 0.66014 0.0
C430 C 0.5229 0.51139 0.60757 0.0
C431 C 0.50562 0.50549 0.58141 0.0
C432 C 0.50985 0.51633 0.63365 0.0
C433 C 0.4749 0.50404 0.58205 0.0
C434 C 0.46188 0.50962 0.60783 0.0
C435 C 0.46625 0.52246 0.6597 0.0
C436 C 0.48357 0.52816 0.68568 0.0
C437 C 0.47915 0.51611 0.63373 0.0
C438 C 0.5139 0.52728 0.68546 0.0
C439 C 0.52699 0.52177 0.65969 0.0
H440 H 0.8109 0.34062 0.69485 0.0
H441 H 0.82567 0.25799 0.64975 0.0
H442 H 0.80341 0.26901 0.60538 0.0
H443 H 0.7802 0.30257 0.57958 0.0
H444 H 0.76498 0.38509 0.62519 0.0
H445 H 0.78708 0.37388 0.66919 0.0
C446 C 0.80895 0.32503 0.67526 0.0
C447 C 0.81954 0.29855 0.67523 0.0
C448 C 0.79631 0.33163 0.65 0.0
C449 C 0.81733 0.27845 0.64999 0.0
C450 C 0.80476 0.2848 0.62471 0.0
C451 C 0.7819 0.31817 0.5991 0.0
C452 C 0.77111 0.34469 0.59907 0.0
C453 C 0.79432 0.31142 0.62443 0.0
C454 C 0.77315 0.36454 0.62462 0.0
C455 C 0.78574 0.35813 0.64982 0.0
H456 H 0.53559 0.98309 0.62736 0.0
H457 H 0.5817 0.04214 0.57821 0.0
H458 H 0.61922 0.05904 0.61779 0.0
H459 H 0.6419 0.0524 0.66398 0.0
H460 H 0.59475 0.99515 0.71425 0.0
H461 H 0.55449 0.98214 0.67677 0.0
C462 C 0.55346 1.00023 0.62574 0.0
C463 C 0.55604 0.0114 0.60005 0.0
C464 C 0.57493 0.00973 0.64855 0.0
C465 C 0.57922 0.03351 0.59796 0.0
C466 C 0.60081 0.04291 0.62044 0.0
C467 C 0.62259 0.03738 0.6668 0.0
C468 C 0.62134 0.02436 0.69151 0.0
C469 C 0.59939 0.03045 0.64543 0.0
C470 C 0.59611 0.00533 0.6953 0.0
C471 C 0.57318 0.99784 0.67387 0.0
H472 H 0.92002 0.24826 0.77868 0.0
H473 H 0.84998 0.23255 0.83375 0.0
H474 H 0.88556 0.2281 0.87207 0.0
H475 H 0.93654 0.22971 0.8903 0.0
H476 H 1.00681 0.24649 0.83559 0.0
H477 H 0.97115 0.24957 0.79688 0.0
C478 C 0.91259 0.24411 0.79916 0.0
C479 C 0.88241 0.24076 0.80334 0.0
C480 C 0.93318 0.24171 0.82116 0.0
C481 C 0.87307 0.23493 0.82986 0.0
C482 C 0.89341 0.23249 0.85183 0.0
C483 C 0.9441 0.23385 0.86987 0.0
C484 C 0.97437 0.23788 0.86596 0.0
C485 C 0.92351 0.23587 0.84773 0.0
C486 C 0.98368 0.24335 0.8393 0.0
C487 C 0.9633 0.24516 0.81712 0.0
H488 H 0.55107 0.9325 0.48807 0.0
H489 H 0.51512 0.90659 0.56379 0.0
H490 H 0.52161 0.85623 0.54713 0.0
H491 H 0.53656 0.81965 0.51074 0.0
H492 H 0.57425 0.84535 0.43556 0.0
H493 H 0.56842 0.89586 0.45245 0.0
C494 C 0.5446 0.91571 0.50077 0.0
C495 C 0.5324 0.92298 0.52693 0.0
C496 C 0.54889 0.88694 0.49127 0.0
C497 C 0.52452 0.90132 0.54355 0.0
C498 C 0.52822 0.87261 0.53405 0.0
C499 C 0.54362 0.83629 0.49806 0.0
C500 C 0.55565 0.8287 0.47184 0.0
C501 C 0.54029 0.86518 0.50792 0.0
C502 C 0.56501 0.85061 0.45586 0.0
C503 C 0.56152 0.87947 0.46543 0.0
H504 H 0.19754 0.32364 0.78767 0.0
H505 H 0.11487 0.33884 0.75095 0.0
H506 H 0.08911 0.31847 0.78895 0.0
H507 H 0.09056 0.29758 0.83332 0.0
H508 H 0.17356 0.28222 0.86984 0.0
H509 H 0.19881 0.30149 0.83137 0.0
C510 C 0.17385 0.32212 0.78796 0.0
C511 C 0.15789 0.33236 0.76674 0.0
C512 C 0.15937 0.31065 0.80994 0.0
C513 C 0.12735 0.33074 0.76715 0.0
C514 C 0.11272 0.31927 0.78889 0.0
C515 C 0.11418 0.29853 0.83292 0.0
C516 C 0.13015 0.28862 0.85454 0.0
C517 C 0.12856 0.30942 0.81057 0.0
C518 C 0.16072 0.28975 0.85352 0.0
C519 C 0.1752 0.30074 0.8315 0.0
H520 H 0.49327 0.58556 0.46315 0.0
H521 H 0.57326 0.55055 0.44645 0.0
H522 H 0.59421 0.59555 0.42994 0.0
H523 H 0.59028 0.64608 0.42286 0.0
H524 H 0.51017 0.68057 0.44105 0.0
H525 H 0.48857 0.63469 0.45423 0.0
C526 C 0.51519 0.58783 0.45563 0.0
C527 C 0.53184 0.56518 0.45582 0.0
C528 C 0.52702 0.61371 0.44663 0.0
C529 C 0.5602 0.56799 0.44629 0.0
C530 C 0.57211 0.59364 0.43694 0.0
C531 C 0.56801 0.6433 0.42943 0.0
C532 C 0.552 0.66678 0.43156 0.0
C533 C 0.55582 0.61681 0.43733 0.0
C534 C 0.5232 0.6631 0.4401 0.0
C535 C 0.51075 0.63678 0.44743 0.0
H536 H 0.88068 0.78743 0.77741 0.0
H537 H 0.80572 0.75625 0.717 0.0
H538 H 0.83797 0.75015 0.6783 0.0
H539 H 0.88693 0.7531 0.66132 0.0
H540 H 0.96301 0.78382 0.7203 0.0
H541 H 0.93093 0.79078 0.75973 0.0
C542 C 0.87149 0.7792 0.75578 0.0
C543 C 0.84071 0.77254 0.75016 0.0
C544 C 0.89034 0.77575 0.73333 0.0
C545 C 0.8292 0.76202 0.72195 0.0
C546 C 0.84766 0.75839 0.69976 0.0
C547 C 0.89667 0.76141 0.68275 0.0
C548 C 0.92743 0.76788 0.68775 0.0
C549 C 0.87819 0.76521 0.70517 0.0
C550 C 0.93944 0.77871 0.71576 0.0
C551 C 0.92107 0.7826 0.73834 0.0
H552 H 0.05704 0.91281 0.53653 0.0
H553 H 0.99097 0.94118 0.59047 0.0
H554 H 0.98845 0.8968 0.61193 0.0
H555 H 1.0017 0.84759 0.61185 0.0
H556 H 0.06763 0.81949 0.55702 0.0
H557 H 0.07372 0.86583 0.53982 0.0
C558 C 0.04262 0.90945 0.55343 0.0
C559 C 0.02437 0.93012 0.56214 0.0
C560 C 0.04101 0.88369 0.56534 0.0
C561 C 1.00542 0.92554 0.58371 0.0
C562 C 1.00385 0.9001 0.59584 0.0
C563 C 0.01773 0.85176 0.5965 0.0
C564 C 0.03385 0.82972 0.58558 0.0
C565 C 0.02104 0.87863 0.58634 0.0
C566 C 0.05457 0.83573 0.56566 0.0
C567 C 0.05813 0.86233 0.55572 0.0
H568 H 0.18051 0.71847 0.69841 0.0
H569 H 0.12144 0.68999 0.75912 0.0
H570 H 0.08051 0.706 0.73354 0.0
H571 H 0.06084 0.7237 0.69085 0.0
H572 H 0.12056 0.74979 0.62932 0.0
H573 H 0.16182 0.73956 0.65826 0.0
C574 C 0.15874 0.71636 0.70628 0.0
C575 C 0.1538 0.70334 0.73054 0.0
C576 C 0.13539 0.72501 0.69112 0.0
C577 C 0.12561 0.70024 0.74051 0.0
C578 C 0.10224 0.70925 0.7258 0.0
C579 C 0.08296 0.72766 0.68411 0.0
C580 C 0.08752 0.73732 0.65782 0.0
C581 C 0.10672 0.72106 0.70065 0.0
C582 C 0.11634 0.74211 0.64929 0.0
C583 C 0.14001 0.73625 0.66582 0.0
H584 H 0.97324 0.56413 0.54675 0.0
H585 H 0.98465 0.59906 0.46852 0.0
H586 H 0.99437 0.64827 0.49554 0.0
H587 H 0.99623 0.68175 0.54119 0.0
H588 H 0.98115 0.6465 0.61869 0.0
H589 H 0.97593 0.59721 0.59213 0.0
C590 C 0.97759 0.58246 0.53548 0.0
C591 C 0.97791 0.57769 0.5055 0.0
C592 C 0.9824 0.61077 0.55108 0.0
C593 C 0.98447 0.60186 0.49154 0.0
C594 C 0.98983 0.63011 0.50698 0.0
C595 C 0.99214 0.66326 0.55229 0.0
C596 C 0.98906 0.66782 0.5819 0.0
C597 C 0.98845 0.63487 0.53673 0.0
C598 C 0.98351 0.64363 0.59592 0.0
C599 C 0.98049 0.61541 0.58073 0.0
H600 H 0.81438 0.90602 0.21761 0.0
H601 H 0.86795 0.83738 0.21171 0.0
H602 H 0.91239 0.87339 0.21786 0.0
H603 H 0.93602 0.92451 0.22644 0.0
H604 H 0.8818 0.99278 0.23403 0.0
H605 H 0.83773 0.95671 0.22616 0.0
C606 C 0.83576 0.89887 0.21798 0.0
C607 C 0.83776 0.869 0.21439 0.0
C608 C 0.86117 0.91965 0.22194 0.0
C609 C 0.86571 0.86021 0.21419 0.0
C610 C 0.89115 0.8808 0.21788 0.0
C611 C 0.91458 0.93152 0.22627 0.0
C612 C 0.91236 0.9614 0.2309 0.0
C613 C 0.88915 0.91061 0.22194 0.0
C614 C 0.8843 0.97 0.23067 0.0
C615 C 0.85901 0.94937 0.22614 0.0
H616 H 0.79344 0.13298 0.28794 0.0
H617 H 0.84099 0.21828 0.28661 0.0
H618 H 0.88661 0.19787 0.28064 0.0
H619 H 0.9131 0.15598 0.27558 0.0
H620 H 0.86666 0.07053 0.27861 0.0
H621 H 0.82073 0.09072 0.2844 0.0
C622 C 0.81381 0.14697 0.2862 0.0
C623 C 0.81385 0.17709 0.28761 0.0
C624 C 0.84021 0.1351 0.28327 0.0
C625 C 0.84044 0.19507 0.28568 0.0
C626 C 0.86653 0.18341 0.28225 0.0
C627 C 0.89297 0.14172 0.2776 0.0
C628 C 0.89341 0.11173 0.27657 0.0
C629 C 0.86671 0.15349 0.28106 0.0
C630 C 0.86706 0.0937 0.27942 0.0
C631 C 0.84072 0.10523 0.2826 0.0
H632 H 0.42951 0.95478 0.98914 0.0
H633 H 0.37712 0.02134 0.0168 0.0
H634 H 0.33882 0.98462 0.02925 0.0
H635 H 0.31953 0.9328 0.03054 0.0
H636 H 0.374 0.86738 0.00381 0.0
H637 H 0.41185 0.90427 0.99275 0.0
C638 C 0.40971 0.96122 0.99794 0.0
C639 C 0.40601 0.99061 1.00185 0.0
C640 C 0.38801 0.94011 0.00515 0.0
C641 C 0.38047 0.99878 0.01369 0.0
C642 C 0.35853 0.97778 0.02066 0.0
C643 C 0.33971 0.92669 0.02238 0.0
C644 C 0.34368 0.89722 0.01801 0.0
C645 C 0.36191 0.94825 0.01621 0.0
C646 C 0.37017 0.88979 0.00758 0.0
C647 C 0.39195 0.91089 1.00112 0.0
H648 H 0.26407 0.35244 0.25344 0.0
H649 H 0.25048 0.36836 0.34306 0.0
H650 H 0.23478 0.41509 0.33808 0.0
H651 H 0.22522 0.45159 0.30816 0.0
H652 H 0.24078 0.43665 0.21881 0.0
H653 H 0.25491 0.38932 0.2235 0.0
C654 C 0.25794 0.36641 0.27182 0.0
C655 C 0.25867 0.35747 0.29861 0.0
C656 C 0.2489 0.39319 0.26873 0.0
C657 C 0.25037 0.37525 0.32232 0.0
C658 C 0.24122 0.4018 0.31944 0.0
C659 C 0.23129 0.43776 0.28967 0.0
C660 C 0.23171 0.44746 0.26315 0.0
C661 C 0.24026 0.41096 0.29272 0.0
C662 C 0.2402 0.42958 0.23945 0.0
C663 C 0.24842 0.40258 0.24214 0.0
H664 H 0.13022 0.02159 0.48434 0.0
H665 H 0.08565 0.06255 0.55335 0.0
H666 H 0.12838 0.1003 0.56649 0.0
H667 H 0.17609 0.12463 0.55475 0.0
H668 H 0.22214 0.08254 0.48759 0.0
H669 H 0.18139 0.0421 0.47735 0.0
C670 C 0.13027 0.03841 0.50268 0.0
C671 C 0.10489 0.03938 0.51788 0.0
C672 C 0.155 0.05998 0.51015 0.0
C673 C 0.10506 0.06125 0.54155 0.0
C674 C 0.12936 0.08297 0.54888 0.0
C675 C 0.17734 0.10632 0.53819 0.0
C676 C 0.20184 0.10661 0.52171 0.0
C677 C 0.15408 0.08303 0.5328 0.0
C678 C 0.20348 0.08271 0.50054 0.0
C679 C 0.18013 0.0597 0.49461 0.0
H680 H 0.81059 0.16823 0.73184 0.0
H681 H 0.7579 0.23251 0.76498 0.0
H682 H 0.71705 0.19407 0.76863 0.0
H683 H 0.6994 0.14191 0.76853 0.0
H684 H 0.75383 0.07836 0.73639 0.0
H685 H 0.7906 0.11659 0.72581 0.0
C686 C 0.78979 0.17372 0.73905 0.0
C687 C 0.78698 0.2029 0.74806 0.0
C688 C 0.76688 0.15159 0.74162 0.0
C689 C 0.76023 0.21005 0.75766 0.0
C690 C 0.73708 0.18809 0.76001 0.0
C691 C 0.71907 0.13643 0.75875 0.0
C692 C 0.72386 0.10725 0.75352 0.0
C693 C 0.74056 0.15872 0.75303 0.0
C694 C 0.74943 0.10053 0.74069 0.0
C695 C 0.77065 0.12244 0.73471 0.0
H696 H 0.4211 0.02923 0.49676 0.0
H697 H 0.48272 0.0802 0.56261 0.0
H698 H 0.44817 0.11511 0.57298 0.0
H699 H 0.40083 0.13128 0.56252 0.0
H700 H 0.33926 0.08014 0.49629 0.0
H701 H 0.37334 0.04503 0.48682 0.0
C702 C 0.42678 0.04799 0.51343 0.0
C703 C 0.45415 0.05242 0.52899 0.0
C704 C 0.40688 0.06783 0.5191 0.0
C705 C 0.46162 0.07659 0.55049 0.0
C706 C 0.44191 0.09646 0.55634 0.0
C707 C 0.39479 0.11243 0.54604 0.0
C708 C 0.36749 0.10842 0.5301 0.0
C709 C 0.41453 0.09235 0.54068 0.0
C710 C 0.36009 0.08382 0.50887 0.0
C711 C 0.37958 0.06371 0.50343 0.0
H712 H 0.60941 0.49799 0.55815 0.0
H713 H 0.56727 0.44255 0.48235 0.0
H714 H 0.61057 0.41805 0.47691 0.0
H715 H 0.65951 0.41086 0.495 0.0
H716 H 0.70189 0.46685 0.57058 0.0
H717 H 0.65967 0.4928 0.57455 0.0
C718 C 0.60978 0.48051 0.54049 0.0
C719 C 0.58517 0.47193 0.5208 0.0
C720 C 0.63484 0.46669 0.53736 0.0
C721 C 0.58602 0.44957 0.49774 0.0
C722 C 0.61074 0.43553 0.49464 0.0
C723 C 0.65969 0.42895 0.51215 0.0
C724 C 0.68382 0.43669 0.53255 0.0
C725 C 0.6352 0.44374 0.51445 0.0
C726 C 0.68363 0.4603 0.55458 0.0
C727 C 0.65941 0.47512 0.55698 0.0
H728 H 0.71705 0.24132 0.35086 0.0
H729 H 0.80822 0.27014 0.33948 0.0
H730 H 0.81252 0.30318 0.38459 0.0
H731 H 0.79204 0.31994 0.42978 0.0
H732 H 0.70031 0.29464 0.44018 0.0
H733 H 0.69433 0.26475 0.39262 0.0
C734 C 0.73767 0.25532 0.35781 0.0
C735 C 0.76253 0.25238 0.34209 0.0
C736 C 0.73994 0.27485 0.3837 0.0
C737 C 0.78899 0.27097 0.35157 0.0
C738 C 0.79147 0.29009 0.37733 0.0
C739 C 0.77064 0.30832 0.42131 0.0
C740 C 0.7467 0.30918 0.43835 0.0
C741 C 0.76738 0.2915 0.39399 0.0
C742 C 0.71899 0.29431 0.42726 0.0
C743 C 0.71565 0.27708 0.4002 0.0
H744 H 0.5418 0.0055 0.9203 0.0
H745 H 0.50188 0.06616 0.87748 0.0
H746 H 0.54271 0.0698 0.84642 0.0
H747 H 0.58859 0.05375 0.83004 0.0
H748 H 0.62855 0.99311 0.8733 0.0
H749 H 0.58895 0.99128 0.90545 0.0
C750 C 0.54246 0.01989 0.90448 0.0
C751 C 0.51931 0.03584 0.90122 0.0
C752 C 0.56577 0.02152 0.88655 0.0
C753 C 0.51984 0.05405 0.88047 0.0
C754 C 0.54302 0.05593 0.86261 0.0
C755 C 0.58861 0.0401 0.84647 0.0
C756 C 0.61142 0.02341 0.84906 0.0
C757 C 0.56588 0.03939 0.86515 0.0
C758 C 0.61126 0.00612 0.87073 0.0
C759 C 0.58863 0.00508 0.88919 0.0
H760 H 0.26764 0.21864 0.34991 0.0
H761 H 0.35983 0.24751 0.37397 0.0
H762 H 0.35585 0.22336 0.41591 0.0
H763 H 0.32459 0.20036 0.4495 0.0
H764 H 0.23134 0.17819 0.42831 0.0
H765 H 0.23714 0.19373 0.38184 0.0
C766 C 0.28694 0.21979 0.3643 0.0
C767 C 0.31388 0.23551 0.35892 0.0
C768 C 0.28416 0.20724 0.38918 0.0
C769 C 0.33879 0.23562 0.37737 0.0
C770 C 0.33647 0.22205 0.4016 0.0
C771 C 0.30571 0.19832 0.43436 0.0
C772 C 0.27758 0.188 0.44213 0.0
C773 C 0.30905 0.20867 0.40824 0.0
C774 C 0.25316 0.18599 0.42267 0.0
C775 C 0.25648 0.19497 0.39619 0.0
H776 H 0.51907 0.47276 0.92361 0.0
H777 H 0.54435 0.56526 0.94784 0.0
H778 H 0.52024 0.57345 0.90332 0.0
H779 H 0.49529 0.55395 0.85561 0.0
H780 H 0.47375 0.46126 0.83016 0.0
H781 H 0.49232 0.45345 0.87706 0.0
C782 C 0.51892 0.49471 0.91927 0.0
C783 C 0.53359 0.51834 0.93889 0.0
C784 C 0.50555 0.4992 0.89337 0.0
C785 C 0.5335 0.54668 0.93288 0.0
C786 C 0.51962 0.55138 0.90749 0.0
C787 C 0.49407 0.53214 0.86069 0.0
C788 C 0.48292 0.5082 0.8397 0.0
C789 C 0.50599 0.52778 0.88732 0.0
C790 C 0.48208 0.47998 0.84616 0.0
C791 C 0.49285 0.47551 0.87288 0.0
H792 H 0.81525 0.75826 0.17977 0.0
H793 H 0.74113 0.78961 0.14254 0.0
H794 H 0.7402 0.75335 0.09956 0.0
H795 H 0.76373 0.71609 0.07092 0.0
H796 H 0.83673 0.68342 0.10884 0.0
H797 H 0.83458 0.71641 0.1534 0.0
C798 C 0.79863 0.7567 0.16239 0.0
C799 C 0.7784 0.77654 0.16409 0.0
C800 C 0.79815 0.73572 0.13788 0.0
C801 C 0.75681 0.7744 0.14163 0.0
C802 C 0.7564 0.75382 0.11704 0.0
C803 C 0.77892 0.71596 0.08902 0.0
C804 C 0.80063 0.69766 0.08643 0.0
C805 C 0.77745 0.73488 0.11464 0.0
C806 C 0.81982 0.69733 0.11028 0.0
C807 C 0.81873 0.71631 0.13572 0.0
H808 H 0.06861 0.0216 0.10918 0.0
H809 H 0.98719 0.01873 0.05886 0.0
H810 H 0.96259 0.03126 0.10216 0.0
H811 H 0.96364 0.04196 0.15482 0.0
H812 H 0.04401 0.04003 0.20468 0.0
H813 H 0.06914 0.02976 0.16122 0.0
C814 C 0.04538 0.02323 0.10751 0.0
C815 C 0.03005 0.01932 0.08046 0.0
C816 C 0.03098 0.02948 0.1326 0.0
C817 C 0.99998 0.02223 0.07914 0.0
C818 C 0.98569 0.02914 0.10401 0.0
C819 C 0.98665 0.03934 0.1561 0.0
C820 C 1.00192 0.04182 0.18295 0.0
C821 C 1.00094 0.03277 0.13089 0.0
C822 C 0.03168 0.0381 0.18428 0.0
C823 C 0.04613 0.03229 0.15942 0.0
H824 H 0.33779 0.78405 0.17168 0.0
H825 H 0.30008 0.85009 0.2244 0.0
H826 H 0.27675 0.86375 0.1819 0.0
H827 H 0.26818 0.85751 0.12978 0.0
H828 H 0.30539 0.79079 0.077 0.0
H829 H 0.32803 0.77692 0.11935 0.0
C830 C 0.32421 0.80123 0.17369 0.0
C831 C 0.32033 0.81605 0.20078 0.0
C832 C 0.31111 0.80901 0.1492 0.0
C833 C 0.30303 0.83839 0.20353 0.0
C834 C 0.28986 0.84624 0.1793 0.0
C835 C 0.28132 0.83999 0.1275 0.0
C836 C 0.28538 0.8255 0.10016 0.0
C837 C 0.29396 0.83185 0.15201 0.0
C838 C 0.30221 0.80263 0.09768 0.0
C839 C 0.31506 0.79454 0.12194 0.0
H840 H 0.09725 0.51926 0.10089 0.0
H841 H 0.03982 0.46324 0.14448 0.0
H842 H 0.07557 0.47274 0.18612 0.0
H843 H 0.12426 0.49581 0.20931 0.0
H844 H 0.18273 0.54862 0.16337 0.0
H845 H 0.14554 0.54179 0.12361 0.0
C846 C 0.0925 0.50943 0.11967 0.0
C847 C 0.06597 0.49083 0.11987 0.0
C848 C 0.11341 0.51436 0.14304 0.0
C849 C 0.06018 0.47769 0.144 0.0
C850 C 0.08058 0.48312 0.16774 0.0
C851 C 0.12867 0.50595 0.19065 0.0
C852 C 0.15616 0.52268 0.18925 0.0
C853 C 0.10742 0.50125 0.16742 0.0
C854 C 0.16179 0.53547 0.16485 0.0
C855 C 0.14053 0.53164 0.14212 0.0
H856 H 0.42878 0.76069 0.29278 0.0
H857 H 0.36124 0.73805 0.34839 0.0
H858 H 0.39836 0.73095 0.38419 0.0
H859 H 0.44979 0.73125 0.39965 0.0
H860 H 0.5177 0.75349 0.34404 0.0
H861 H 0.48062 0.7605 0.30824 0.0
C862 C 0.42231 0.75447 0.31288 0.0
C863 C 0.39241 0.74997 0.31804 0.0
C864 C 0.44376 0.75015 0.33323 0.0
C865 C 0.38417 0.74148 0.34393 0.0
C866 C 0.40535 0.73745 0.36438 0.0
C867 C 0.45657 0.73753 0.37968 0.0
C868 C 0.48656 0.74185 0.37465 0.0
C869 C 0.43519 0.74163 0.35922 0.0
C870 C 0.4948 0.74995 0.34855 0.0
C871 C 0.47361 0.75407 0.32807 0.0
H872 H 0.03592 0.43296 1.00161 0.0
H873 H 0.99601 0.39881 0.07184 0.0
H874 H 0.99549 0.34909 0.04709 0.0
H875 H 0.00941 0.3156 0.00696 0.0
H876 H 0.05245 0.34996 0.93814 0.0
H877 H 0.04877 0.39935 0.96084 0.0
C878 C 0.02661 0.41456 0.01116 0.0
C879 C 0.01572 0.41935 0.03828 0.0
C880 C 0.02731 0.38616 0.99724 0.0
C881 C 1.00432 0.39548 0.05087 0.0
C882 C 1.00415 0.36714 0.03679 0.0
C883 C 0.0178 0.33386 0.99678 0.0
C884 C 0.03127 0.32903 0.9709 0.0
C885 C 0.01608 0.36223 0.0102 0.0
C886 C 0.04217 0.35301 0.95815 0.0
C887 C 0.04001 0.38128 0.97107 0.0
H888 H 0.68086 0.83973 0.288 0.0
H889 H 0.71345 0.7617 0.25222 0.0
H890 H 0.68344 0.73386 0.28291 0.0
H891 H 0.64987 0.73264 0.32165 0.0
H892 H 0.61845 0.81154 0.35791 0.0
H893 H 0.64595 0.83814 0.32526 0.0
C894 C 0.68102 0.81653 0.28678 0.0
C895 C 0.69896 0.80252 0.26803 0.0
C896 C 0.66411 0.80097 0.30468 0.0
C897 C 0.69948 0.77267 0.26654 0.0
C898 C 0.68246 0.75687 0.28412 0.0
C899 C 0.64889 0.75561 0.32231 0.0
C900 C 0.63222 0.77007 0.34237 0.0
C901 C 0.66498 0.7709 0.30355 0.0
C902 C 0.6312 0.79986 0.34285 0.0
C903 C 0.64691 0.81513 0.32416 0.0
H904 H 0.04906 0.06823 0.92594 0.0
H905 H 0.02274 0.09577 0.01014 0.0
H906 H 0.0255 0.14596 1.00065 0.0
H907 H 0.03826 0.18217 0.96904 0.0
H908 H 0.06618 0.15402 0.88532 0.0
H909 H 0.05974 0.10384 0.89379 0.0
C910 C 0.04366 0.08528 0.94202 0.0
C911 C 0.03566 0.07875 0.96857 0.0
C912 C 0.04569 0.11387 0.93649 0.0
C913 C 0.02885 0.10065 0.9895 0.0
C914 C 0.0305 0.12922 0.98407 0.0
C915 C 0.0426 0.165 0.95255 0.0
C916 C 0.05277 0.17185 0.92662 0.0
C917 C 0.03927 0.13615 0.95774 0.0
C918 C 0.05846 0.14938 0.90551 0.0
C919 C 0.05481 0.12066 0.91033 0.0
H920 H 0.33977 0.28812 0.24487 0.0
H921 H 0.3994 0.27623 0.31374 0.0
H922 H 0.43968 0.27778 0.28232 0.0
H923 H 0.45769 0.28034 0.23419 0.0
H924 H 0.39754 0.29511 0.16706 0.0
H925 H 0.35837 0.29569 0.19925 0.0
C926 C 0.36162 0.28658 0.25347 0.0
C927 C 0.36612 0.28184 0.28183 0.0
C928 C 0.38489 0.2881 0.23549 0.0
C929 C 0.3948 0.27922 0.29192 0.0
C930 C 0.41804 0.28036 0.27398 0.0
C931 C 0.43614 0.28414 0.22677 0.0
C932 C 0.43068 0.28739 0.19804 0.0
C933 C 0.41331 0.28444 0.24555 0.0
C934 C 0.40252 0.29229 0.18889 0.0
C935 C 0.37993 0.29257 0.20731 0.0
H936 H 0.52619 0.43816 0.08785 0.0
H937 H 0.57908 0.41151 0.01934 0.0
H938 H 0.58105 0.3651 0.03633 0.0
H939 H 0.56384 0.33057 0.06797 0.0
H940 H 0.50979 0.3568 0.136 0.0
H941 H 0.51246 0.40494 0.12219 0.0
C942 C 0.53865 0.42236 0.07709 0.0
C943 C 0.55269 0.4281 0.05258 0.0
C944 C 0.53921 0.39557 0.08675 0.0
C945 C 0.56841 0.40751 0.03845 0.0
C946 C 0.56935 0.38095 0.04806 0.0
C947 C 0.55288 0.34686 0.08005 0.0
C948 C 0.53637 0.33977 0.10288 0.0
C949 C 0.55424 0.37447 0.07179 0.0
C950 C 0.52257 0.36143 0.11831 0.0
C951 C 0.52401 0.38901 0.11035 0.0
H952 H 0.6888 0.22917 0.20608 0.0
H953 H 0.63467 0.19916 0.26983 0.0
H954 H 0.59155 0.21382 0.2465 0.0
H955 H 0.56851 0.23105 0.20499 0.0
H956 H 0.62351 0.2589 0.14053 0.0
H957 H 0.6668 0.24961 0.16707 0.0
C958 C 0.66763 0.22643 0.21511 0.0
C959 C 0.66474 0.21339 0.23962 0.0
C960 C 0.64298 0.23432 0.20123 0.0
C961 C 0.63729 0.20946 0.25105 0.0
C962 C 0.61265 0.21769 0.23761 0.0
C963 C 0.59004 0.23555 0.19706 0.0
C964 C 0.59263 0.24544 0.17063 0.0
C965 C 0.61507 0.22957 0.21227 0.0
C966 C 0.62074 0.25097 0.16061 0.0
C967 C 0.64561 0.24568 0.17578 0.0
H968 H 0.43125 0.08838 0.04214 0.0
H969 H 0.51397 0.09559 1.0029 0.0
H970 H 0.52979 0.14248 0.0331 0.0
H971 H 0.52025 0.18171 0.0715 0.0
H972 H 0.44013 0.16958 0.11422 0.0
H973 H 0.42395 0.12379 0.08266 0.0
C974 C 0.45315 0.09947 0.04048 0.0
C975 C 0.4712 0.08786 0.01996 0.0
C976 C 0.4628 0.12571 0.05886 0.0
C977 C 0.49907 0.10383 0.01789 0.0
C978 C 0.50838 0.13067 0.03545 0.0
C979 C 0.49938 0.16887 0.07393 0.0
C980 C 0.4814 0.17907 0.09515 0.0
C981 C 0.49041 0.14188 0.05607 0.0
C982 C 0.4545 0.16214 0.09823 0.0
C983 C 0.44511 0.13599 0.08006 0.0
H984 H 0.32318 0.36217 0.71638 0.0
H985 H 0.26912 0.42936 0.71077 0.0
H986 H 0.31251 0.46627 0.71997 0.0
H987 H 0.36573 0.47969 0.72977 0.0
H988 H 0.42027 0.41257 0.73296 0.0
H989 H 0.3768 0.37546 0.72393 0.0
C990 C 0.32087 0.38483 0.71679 0.0
C991 C 0.29275 0.39286 0.71317 0.0
C992 C 0.34603 0.40603 0.72159 0.0
C993 C 0.29031 0.42247 0.71413 0.0
C994 C 0.31517 0.44365 0.71917 0.0
C995 C 0.36815 0.45695 0.72851 0.0
C996 C 0.39624 0.44899 0.73218 0.0
C997 C 0.34311 0.4357 0.72308 0.0
C998 C 0.39894 0.41936 0.73017 0.0
C999 C 0.37407 0.3981 0.72507 0.0
H1000 H 0.27631 0.62101 0.78368 0.0
H1001 H 0.32558 0.70734 0.79684 0.0
H1002 H 0.37156 0.6871 0.79386 0.0
H1003 H 0.39783 0.645 0.78672 0.0
H1004 H 0.34915 0.55839 0.77504 0.0
H1005 H 0.30304 0.57852 0.77847 0.0
C1006 C 0.29715 0.6353 0.78578 0.0
C1007 C 0.29755 0.66563 0.79036 0.0
C1008 C 0.32363 0.62347 0.78445 0.0
C1009 C 0.32471 0.68394 0.79343 0.0
C1010 C 0.351 0.67238 0.79168 0.0
C1011 C 0.37716 0.63048 0.78505 0.0
C1012 C 0.37703 0.6002 0.78051 0.0
C1013 C 0.35075 0.6422 0.78715 0.0
C1014 C 0.34998 0.58178 0.77861 0.0
C1015 C 0.32355 0.59328 0.78044 0.0
H1016 H 0.88382 0.50342 0.49463 0.0
H1017 H 0.9494 0.44627 0.49318 0.0
H1018 H 0.91374 0.40812 0.50634 0.0
H1019 H 0.86379 0.39011 0.51584 0.0
H1020 H 0.79675 0.44571 0.51589 0.0
H1021 H 0.83309 0.48535 0.50585 0.0
C1022 C 0.89025 0.48269 0.49753 0.0
C1023 C 0.91913 0.47756 0.49283 0.0
C1024 C 0.86938 0.46055 0.50466 0.0
C1025 C 0.92722 0.45058 0.49645 0.0
C1026 C 0.90686 0.42879 0.50398 0.0
C1027 C 0.85698 0.4109 0.51384 0.0
C1028 C 0.82743 0.41475 0.51653 0.0
C1029 C 0.87781 0.43337 0.50773 0.0
C1030 C 0.81928 0.442 0.51385 0.0
C1031 C 0.84007 0.46471 0.50809 0.0
H1032 H 0.70324 0.85604 0.79531 0.0
H1033 H 0.76937 0.85579 0.73454 0.0
H1034 H 0.75893 0.90287 0.72357 0.0
H1035 H 0.73204 0.94445 0.73251 0.0
H1036 H 0.66643 0.94518 0.79425 0.0
H1037 H 0.67538 0.89735 0.80345 0.0
C1038 C 0.71523 0.86639 0.77962 0.0
C1039 C 0.73702 0.85286 0.7657 0.0
C1040 C 0.70914 0.89338 0.77362 0.0
C1041 C 0.75254 0.8661 0.74543 0.0
C1042 C 0.74654 0.8929 0.73921 0.0
C1043 C 0.71945 0.93413 0.74783 0.0
C1044 C 0.69855 0.94856 0.76268 0.0
C1045 C 0.725 0.90681 0.75331 0.0
C1046 C 0.68263 0.93471 0.78251 0.0
C1047 C 0.68779 0.90736 0.78784 0.0
H1048 H 0.64409 0.52477 0.96916 0.0
H1049 H 0.60827 0.56479 0.04463 0.0
H1050 H 0.65196 0.60186 0.05433 0.0
H1051 H 0.6983 0.62533 0.03884 0.0
H1052 H 0.73597 0.58373 0.96526 0.0
H1053 H 0.69376 0.54473 0.95723 0.0
C1054 C 0.64626 0.54127 0.98804 0.0
C1055 C 0.62311 0.54214 0.00621 0.0
C1056 C 0.67155 0.56239 0.99354 0.0
C1057 C 0.62599 0.56359 0.03057 0.0
C1058 C 0.65082 0.58491 0.03595 0.0
C1059 C 0.69731 0.60755 0.0212 0.0
C1060 C 0.71989 0.60752 1.00238 0.0
C1061 C 0.67338 0.58494 0.01719 0.0
C1062 C 0.71874 0.58419 0.97992 0.0
C1063 C 0.69461 0.56197 0.97532 0.0
H1064 H 0.32742 0.67801 0.2457 0.0
H1065 H 0.26555 0.73412 0.2759 0.0
H1066 H 0.2281 0.69165 0.27624 0.0
H1067 H 0.21591 0.63846 0.27459 0.0
H1068 H 0.27972 0.58334 0.24617 0.0
H1069 H 0.31324 0.62534 0.23819 0.0
C1070 C 0.30543 0.68084 0.25158 0.0
C1071 C 0.29909 0.70889 0.26083 0.0
C1072 C 0.28453 0.65647 0.25245 0.0
C1073 C 0.2707 0.71259 0.2685 0.0
C1074 C 0.24947 0.68833 0.269 0.0
C1075 C 0.23694 0.63563 0.2662 0.0
C1076 C 0.2453 0.60773 0.26123 0.0
C1077 C 0.25655 0.66012 0.26208 0.0
C1078 C 0.27259 0.60444 0.25021 0.0
C1079 C 0.29193 0.62852 0.24572 0.0
H1080 H 0.96094 0.55129 0.99313 0.0
H1081 H 0.93176 0.51039 0.06385 0.0
H1082 H 0.88388 0.52687 0.05864 0.0
H1083 H 0.85306 0.55803 0.03784 0.0
H1084 H 0.88298 0.6005 0.96803 0.0
H1085 H 0.92749 0.57784 0.96853 0.0
C1086 C 0.94374 0.54548 0.00688 0.0
C1087 C 0.94949 0.52971 0.02877 0.0
C1088 C 0.91656 0.55551 0.00404 0.0
C1089 C 0.92748 0.52242 0.04676 0.0
C1090 C 0.90024 0.53196 0.04386 0.0
C1091 C 0.86903 0.56194 0.02237 0.0
C1092 C 0.86483 0.58133 1.00323 0.0
C1093 C 0.89488 0.54929 0.02315 0.0
C1094 C 0.8857 0.58588 0.98317 0.0
C1095 C 0.91128 0.57303 0.98352 0.0
H1096 H 0.08497 0.93753 0.05081 0.0
H1097 H 0.13307 0.99656 1.00281 0.0
H1098 H 0.17291 0.9672 0.99977 0.0
H1099 H 0.1941 0.92431 0.01054 0.0
H1100 H 0.14536 0.86548 0.05852 0.0
H1101 H 0.10613 0.89514 0.06181 0.0
C1102 C 0.10431 0.94411 0.03995 0.0
C1103 C 0.10599 0.96916 0.02705 0.0
C1104 C 0.1271 0.92705 0.03815 0.0
C1105 C 0.13107 0.97718 0.01269 0.0
C1106 C 0.15392 0.96045 0.011 0.0
C1107 C 0.17488 0.91798 0.02165 0.0
C1108 C 0.17281 0.89264 0.0342 0.0
C1109 C 0.15214 0.93522 0.02353 0.0
C1110 C 0.14768 0.88482 0.04859 0.0
C1111 C 0.12513 0.90181 0.05056 0.0
loop_
_geom_bond_atom_site_label_1
_geom_bond_atom_site_label_2
_geom_bond_distance
_geom_bond_site_symmetry_2
_ccdc_geom_bond_type
H0 C3 0.929 . S
H1 C6 0.929 . S
H2 C8 0.930 . S
C3 H0 0.929 . S
C3 C4 1.398 . S
C3 C5 1.396 . S
C4 C3 1.398 . S
C4 C8 1.407 . S
C5 C3 1.396 . S
C5 C6 1.394 . S
C6 H1 0.929 . S
C6 C5 1.394 . S
C6 C7 1.382 . S
C7 C6 1.382 . S
C7 C8 1.392 . S
C7 N9 1.420 . S
C8 H2 0.930 . S
C8 C4 1.407 . S
C8 C7 1.392 . S
N9 C7 1.420 . S
N9 C10 1.244 . S
C10 N9 1.244 . S
H11 C14 0.929 . S
H12 C17 0.929 . S
H13 C19 0.930 . S
C14 H11 0.929 . S
C14 C15 1.398 . S
C14 C16 1.396 . S
C15 C14 1.398 . S
C15 C19 1.407 . S
C16 C14 1.396 . S
C16 C17 1.394 . S
C17 H12 0.929 . S
C17 C16 1.394 . S
C17 C18 1.382 . S
C18 C17 1.382 . S
C18 C19 1.392 . S
C18 N20 1.420 . S
C19 H13 0.930 . S
C19 C15 1.407 . S
C19 C18 1.392 . S
N20 C18 1.420 . S
N20 C21 1.244 . S
C21 N20 1.244 . S
H22 C25 0.929 . S
H23 C28 0.929 . S
H24 C30 0.930 1_556 S
C25 H22 0.929 . S
C25 C26 1.398 . S
C25 C27 1.396 . S
C26 C25 1.398 . S
C26 C30 1.407 1_455 S
C27 C25 1.396 . S
C27 C28 1.394 . S
C28 H23 0.929 . S
C28 C27 1.394 . S
C28 C29 1.382 1_455 S
C29 C28 1.382 1_655 S
C29 C30 1.392 . S
C29 N31 1.420 . S
C30 H24 0.930 1_554 S
C30 C26 1.407 1_655 S
C30 C29 1.392 . S
N31 C29 1.420 . S
N31 C32 1.244 . S
C32 N31 1.244 . S
H33 C36 0.929 . S
H34 C39 0.929 . S
H35 C41 0.930 . S
C36 H33 0.929 . S
C36 C37 1.398 . S
C36 C38 1.396 . S
C37 C36 1.398 . S
C37 C41 1.407 . S
C38 C36 1.396 . S
C38 C39 1.394 . S
C39 H34 0.929 . S
C39 C38 1.394 . S
C39 C40 1.382 . S
C40 C39 1.382 . S
C40 C41 1.392 . S
C40 N42 1.420 . S
C41 H35 0.930 . S
C41 C37 1.407 . S
C41 C40 1.392 . S
N42 C40 1.420 . S
N42 C43 1.244 . S
C43 N42 1.244 . S
H44 C47 0.929 . S
H45 C50 0.929 . S
H46 C52 0.930 . S
C47 H44 0.929 . S
C47 C48 1.398 1_545 S
C47 C49 1.396 . S
C48 C47 1.398 1_565 S
C48 C52 1.407 . S
C49 C47 1.396 . S
C49 C50 1.394 1_545 S
C50 H45 0.929 . S
C50 C49 1.394 1_565 S
C50 C51 1.382 . S
C51 C50 1.382 . S
C51 C52 1.392 . S
C51 N53 1.420 . S
C52 H46 0.930 . S
C52 C48 1.407 . S
C52 C51 1.392 . S
N53 C51 1.420 . S
N53 C54 1.244 . S
C54 N53 1.244 . S
H55 C58 0.929 . S
H56 C61 0.929 . S
H57 C63 0.930 . S
C58 H55 0.929 . S
C58 C59 1.398 . S
C58 C60 1.396 . S
C59 C58 1.398 . S
C59 C63 1.407 . S
C60 C58 1.396 . S
C60 C61 1.394 . S
C61 H56 0.929 . S
C61 C60 1.394 . S
C61 C62 1.382 . S
C62 C61 1.382 . S
C62 C63 1.392 . S
C62 N64 1.420 . S
C63 H57 0.930 . S
C63 C59 1.407 . S
C63 C62 1.392 . S
N64 C62 1.420 . S
N64 C65 1.244 . S
C65 N64 1.244 . S
H66 C69 0.929 . S
H67 C72 0.929 1_455 S
H68 C74 0.930 . S
C69 H66 0.929 . S
C69 C70 1.398 . S
C69 C71 1.396 . S
C70 C69 1.398 . S
C70 C74 1.407 . S
C71 C69 1.396 . S
C71 C72 1.394 . S
C72 H67 0.929 1_655 S
C72 C71 1.394 . S
C72 C73 1.382 . S
C73 C72 1.382 . S
C73 C74 1.392 . S
C73 N75 1.420 1_655 S
C74 H68 0.930 . S
C74 C70 1.407 . S
C74 C73 1.392 . S
N75 C73 1.420 1_455 S
N75 C76 1.244 . S
C76 N75 1.244 . S
H77 C80 0.929 . S
H78 C83 0.929 . S
H79 C85 0.930 . S
C80 H77 0.929 . S
C80 C81 1.398 . S
C80 C82 1.396 . S
C81 C80 1.398 . S
C81 C85 1.407 . S
C82 C80 1.396 . S
C82 C83 1.394 . S
C83 H78 0.929 . S
C83 C82 1.394 . S
C83 C84 1.382 . S
C84 C83 1.382 . S
C84 C85 1.392 . S
C84 N86 1.420 . S
C85 H79 0.930 . S
C85 C81 1.407 . S
C85 C84 1.392 . S
N86 C84 1.420 . S
N86 C87 1.244 . S
C87 N86 1.244 . S
H88 C91 0.929 . S
H89 C94 0.929 . S
H90 C96 0.930 . S
C91 H88 0.929 . S
C91 C92 1.398 . S
C91 C93 1.396 . S
C92 C91 1.398 . S
C92 C96 1.407 . S
C93 C91 1.396 . S
C93 C94 1.394 . S
C94 H89 0.929 . S
C94 C93 1.394 . S
C94 C95 1.382 . S
C95 C94 1.382 . S
C95 C96 1.392 . S
C95 N97 1.420 . S
C96 H90 0.930 . S
C96 C92 1.407 . S
C96 C95 1.392 . S
N97 C95 1.420 . S
N97 C98 1.244 . S
C98 N97 1.244 . S
H99 C102 0.929 . S
H100 C105 0.929 1_545 S
H101 C107 0.930 . S
C102 H99 0.929 . S
C102 C103 1.398 . S
C102 C104 1.396 . S
C103 C102 1.398 . S
C103 C107 1.407 . S
C104 C102 1.396 . S
C104 C105 1.394 . S
C105 H100 0.929 1_565 S
C105 C104 1.394 . S
C105 C106 1.382 . S
C106 C105 1.382 . S
C106 C107 1.392 . S
C106 N108 1.420 1_565 S
C107 H101 0.930 . S
C107 C103 1.407 . S
C107 C106 1.392 . S
N108 C106 1.420 1_545 S
N108 C109 1.244 . S
C109 N108 1.244 . S
H110 C113 0.929 . S
H111 C116 0.929 . S
H112 C118 0.930 . S
C113 H110 0.929 . S
C113 C114 1.398 . S
C113 C115 1.396 . S
C114 C113 1.398 . S
C114 C118 1.407 . S
C115 C113 1.396 . S
C115 C116 1.394 . S
C116 H111 0.929 . S
C116 C115 1.394 . S
C116 C117 1.382 . S
C117 C116 1.382 . S
C117 C118 1.392 . S
C117 N119 1.420 . S
C118 H112 0.930 . S
C118 C114 1.407 . S
C118 C117 1.392 . S
N119 C117 1.420 . S
N119 C120 1.244 . S
C120 N119 1.244 . S
H121 C124 0.929 . S
H122 C127 0.929 . S
H123 C129 0.930 . S
C124 H121 0.929 . S
C124 C125 1.398 . S
C124 C126 1.396 . S
C125 C124 1.398 . S
C125 C129 1.407 . S
C126 C124 1.396 . S
C126 C127 1.394 . S
C127 H122 0.929 . S
C127 C126 1.394 . S
C127 C128 1.382 . S
C128 C127 1.382 . S
C128 C129 1.392 . S
C128 N130 1.420 . S
C129 H123 0.930 . S
C129 C125 1.407 . S
C129 C128 1.392 . S
N130 C128 1.420 . S
N130 C131 1.244 . S
C131 N130 1.244 . S
H132 C135 0.929 . S
H133 C138 0.929 . S
H134 C140 0.930 . S
C135 H132 0.929 . S
C135 C136 1.398 . S
C135 C137 1.396 . S
C136 C135 1.398 . S
C136 C140 1.407 . S
C137 C135 1.396 . S
C137 C138 1.394 . S
C138 H133 0.929 . S
C138 C137 1.394 . S
C138 C139 1.382 . S
C139 C138 1.382 . S
C139 C140 1.392 . S
C139 N141 1.420 . S
C140 H134 0.930 . S
C140 C136 1.407 . S
C140 C139 1.392 . S
N141 C139 1.420 . S
N141 C142 1.244 . S
C142 N141 1.244 . S
H143 C146 0.929 . S
H144 C149 0.929 . S
H145 C151 0.930 . S
C146 H143 0.929 . S
C146 C147 1.398 . S
C146 C148 1.396 . S
C147 C146 1.398 . S
C147 C151 1.407 . S
C148 C146 1.396 . S
C148 C149 1.394 1_556 S
C149 H144 0.929 . S
C149 C148 1.394 1_554 S
C149 C150 1.382 1_554 S
C150 C149 1.382 1_556 S
C150 C151 1.392 . S
C150 N152 1.420 1_556 S
C151 H145 0.930 . S
C151 C147 1.407 . S
C151 C150 1.392 . S
N152 C150 1.420 1_554 S
N152 C153 1.244 . S
C153 N152 1.244 . S
H154 C157 0.929 . S
H155 C160 0.929 . S
H156 C162 0.930 . S
C157 H154 0.929 . S
C157 C158 1.398 . S
C157 C159 1.396 . S
C158 C157 1.398 . S
C158 C162 1.407 . S
C159 C157 1.396 . S
C159 C160 1.394 . S
C160 H155 0.929 . S
C160 C159 1.394 . S
C160 C161 1.382 . S
C161 C160 1.382 . S
C161 C162 1.392 . S
C161 N163 1.420 . S
C162 H156 0.930 . S
C162 C158 1.407 . S
C162 C161 1.392 . S
N163 C161 1.420 . S
N163 C164 1.244 . S
C164 N163 1.244 . S
H165 C168 0.929 . S
H166 C171 0.929 . S
H167 C173 0.930 1_565 S
C168 H165 0.929 . S
C168 C169 1.398 1_554 S
C168 C170 1.396 1_554 S
C169 C168 1.398 1_556 S
C169 C173 1.407 . S
C170 C168 1.396 1_556 S
C170 C171 1.394 . S
C171 H166 0.929 . S
C171 C170 1.394 . S
C171 C172 1.382 . S
C172 C171 1.382 . S
C172 C173 1.392 . S
C172 N174 1.420 . S
C173 H167 0.930 1_545 S
C173 C169 1.407 . S
C173 C172 1.392 . S
N174 C172 1.420 . S
N174 C175 1.244 . S
C175 N174 1.244 . S
Mg176 O177 2.028 . S
Mg176 O183 1.986 1_554 S
Mg176 O185 2.114 . S
Mg176 O186 2.251 . S
Mg176 O189 2.010 . S
O177 Mg176 2.028 . S
O177 C180 1.250 . S
O178 Mg179 2.028 . S
O178 C180 1.248 . S
Mg179 O178 2.028 . S
Mg179 O184 2.032 1_554 S
Mg179 O186 2.079 . S
C180 O177 1.250 . S
C180 O178 1.248 . S
C181 O182 1.264 . S
C181 O189 1.249 . S
O182 C181 1.264 . S
O183 Mg176 1.986 1_556 S
O183 C187 1.246 . S
O184 Mg179 2.032 1_556 S
O184 C187 1.259 . S
O185 Mg176 2.114 . S
O185 C188 1.252 . S
O186 Mg176 2.251 . S
O186 Mg179 2.079 . S
O186 C188 1.273 . S
C187 O183 1.246 . S
C187 O184 1.259 . S
C188 O185 1.252 . S
C188 O186 1.273 . S
O189 Mg176 2.010 . S
O189 C181 1.249 . S
Mg190 O191 2.028 . S
Mg190 O197 1.986 . S
Mg190 O199 2.114 . S
Mg190 O200 2.251 . S
Mg190 O203 2.010 . S
O191 Mg190 2.028 . S
O191 C194 1.250 . S
O192 Mg193 2.028 . S
O192 C194 1.248 . S
Mg193 O192 2.028 . S
Mg193 O198 2.032 . S
Mg193 O200 2.079 . S
C194 O191 1.250 . S
C194 O192 1.248 . S
C195 O196 1.264 . S
C195 O203 1.249 . S
O196 C195 1.264 . S
O197 Mg190 1.986 . S
O197 C201 1.246 . S
O198 Mg193 2.032 . S
O198 C201 1.259 . S
O199 Mg190 2.114 . S
O199 C202 1.252 . S
O200 Mg190 2.251 . S
O200 Mg193 2.079 . S
O200 C202 1.273 . S
C201 O197 1.246 . S
C201 O198 1.259 . S
C202 O199 1.252 . S
C202 O200 1.273 . S
O203 Mg190 2.010 . S
O203 C195 1.249 . S
Mg204 O205 2.028 1_554 S
Mg204 O211 1.986 1_554 S
Mg204 O213 2.114 . S
Mg204 O214 2.251 . S
Mg204 O217 2.010 . S
O205 Mg204 2.028 1_556 S
O205 C208 1.250 . S
O206 Mg207 2.028 . S
O206 C208 1.248 . S
Mg207 O206 2.028 . S
Mg207 O212 2.032 . S
Mg207 O214 2.079 1_556 S
C208 O205 1.250 . S
C208 O206 1.248 . S
C209 O210 1.264 . S
C209 O217 1.249 . S
O210 C209 1.264 . S
O211 Mg204 1.986 1_556 S
O211 C215 1.246 . S
O212 Mg207 2.032 . S
O212 C215 1.259 . S
O213 Mg204 2.114 . S
O213 C216 1.252 . S
O214 Mg204 2.251 . S
O214 Mg207 2.079 1_554 S
O214 C216 1.273 . S
C215 O211 1.246 . S
C215 O212 1.259 . S
C216 O213 1.252 . S
C216 O214 1.273 . S
O217 Mg204 2.010 . S
O217 C209 1.249 . S
Mg218 O219 2.028 . S
Mg218 O225 1.986 . S
Mg218 O227 2.114 . S
Mg218 O228 2.251 . S
Mg218 O231 2.010 . S
O219 Mg218 2.028 . S
O219 C222 1.250 1_545 S
O220 Mg221 2.028 . S
O220 C222 1.248 . S
Mg221 O220 2.028 . S
Mg221 O226 2.032 1_565 S
Mg221 O228 2.079 1_565 S
C222 O219 1.250 1_565 S
C222 O220 1.248 . S
C223 O224 1.264 . S
C223 O231 1.249 . S
O224 C223 1.264 . S
O225 Mg218 1.986 . S
O225 C229 1.246 . S
O226 Mg221 2.032 1_545 S
O226 C229 1.259 . S
O227 Mg218 2.114 . S
O227 C230 1.252 . S
O228 Mg218 2.251 . S
O228 Mg221 2.079 1_545 S
O228 C230 1.273 . S
C229 O225 1.246 . S
C229 O226 1.259 . S
C230 O227 1.252 . S
C230 O228 1.273 . S
O231 Mg218 2.010 . S
O231 C223 1.249 . S
Mg232 O233 2.028 . S
Mg232 O239 1.986 . S
Mg232 O241 2.114 . S
Mg232 O242 2.251 . S
Mg232 O245 2.010 . S
O233 Mg232 2.028 . S
O233 C236 1.250 . S
O234 Mg235 2.028 . S
O234 C236 1.248 . S
Mg235 O234 2.028 . S
Mg235 O240 2.032 . S
Mg235 O242 2.079 . S
C236 O233 1.250 . S
C236 O234 1.248 . S
C237 O238 1.264 . S
C237 O245 1.249 . S
O238 C237 1.264 . S
O239 Mg232 1.986 . S
O239 C243 1.246 . S
O240 Mg235 2.032 . S
O240 C243 1.259 . S
O241 Mg232 2.114 . S
O241 C244 1.252 . S
O242 Mg232 2.251 . S
O242 Mg235 2.079 . S
O242 C244 1.273 . S
C243 O239 1.246 . S
C243 O240 1.259 . S
C244 O241 1.252 . S
C244 O242 1.273 . S
O245 Mg232 2.010 . S
O245 C237 1.249 . S
Mg246 O247 2.028 . S
Mg246 O253 1.986 . S
Mg246 O255 2.114 . S
Mg246 O256 2.251 . S
Mg246 O259 2.010 . S
O247 Mg246 2.028 . S
O247 C250 1.250 . S
O248 Mg249 2.028 . S
O248 C250 1.248 . S
Mg249 O248 2.028 . S
Mg249 O254 2.032 . S
Mg249 O256 2.079 . S
C250 O247 1.250 . S
C250 O248 1.248 . S
C251 O252 1.264 . S
C251 O259 1.249 . S
O252 C251 1.264 . S
O253 Mg246 1.986 . S
O253 C257 1.246 . S
O254 Mg249 2.032 . S
O254 C257 1.259 . S
O255 Mg246 2.114 . S
O255 C258 1.252 . S
O256 Mg246 2.251 . S
O256 Mg249 2.079 . S
O256 C258 1.273 . S
C257 O253 1.246 . S
C257 O254 1.259 . S
C258 O255 1.252 . S
C258 O256 1.273 . S
O259 Mg246 2.010 . S
O259 C251 1.249 . S
Mg260 O261 2.028 . S
Mg260 O267 1.986 . S
Mg260 O269 2.114 . S
Mg260 O270 2.251 . S
Mg260 O273 2.010 . S
O261 Mg260 2.028 . S
O261 C264 1.250 . S
O262 Mg263 2.028 . S
O262 C264 1.248 . S
Mg263 O262 2.028 . S
Mg263 O268 2.032 . S
Mg263 O270 2.079 . S
C264 O261 1.250 . S
C264 O262 1.248 . S
C265 O266 1.264 . S
C265 O273 1.249 . S
O266 C265 1.264 . S
O267 Mg260 1.986 . S
O267 C271 1.246 . S
O268 Mg263 2.032 . S
O268 C271 1.259 . S
O269 Mg260 2.114 . S
O269 C272 1.252 . S
O270 Mg260 2.251 . S
O270 Mg263 2.079 . S
O270 C272 1.273 . S
C271 O267 1.246 . S
C271 O268 1.259 . S
C272 O269 1.252 . S
C272 O270 1.273 . S
O273 Mg260 2.010 . S
O273 C265 1.249 . S
Mg274 O275 2.028 1_545 S
Mg274 O281 1.986 1_545 S
Mg274 O283 2.114 . S
Mg274 O284 2.251 . S
Mg274 O287 2.010 . S
O275 Mg274 2.028 1_565 S
O275 C278 1.250 . S
O276 Mg277 2.028 . S
O276 C278 1.248 . S
Mg277 O276 2.028 . S
Mg277 O282 2.032 . S
Mg277 O284 2.079 1_565 S
C278 O275 1.250 . S
C278 O276 1.248 . S
C279 O280 1.264 . S
C279 O287 1.249 . S
O280 C279 1.264 . S
O281 Mg274 1.986 1_565 S
O281 C285 1.246 . S
O282 Mg277 2.032 . S
O282 C285 1.259 . S
O283 Mg274 2.114 . S
O283 C286 1.252 . S
O284 Mg274 2.251 . S
O284 Mg277 2.079 1_545 S
O284 C286 1.273 . S
C285 O281 1.246 . S
C285 O282 1.259 . S
C286 O283 1.252 . S
C286 O284 1.273 . S
O287 Mg274 2.010 . S
O287 C279 1.249 . S
Mg288 O289 2.028 . S
Mg288 O295 1.986 . S
Mg288 O297 2.114 . S
Mg288 O298 2.251 . S
Mg288 O301 2.010 . S
O289 Mg288 2.028 . S
O289 C292 1.250 1_455 S
O290 Mg291 2.028 . S
O290 C292 1.248 . S
Mg291 O290 2.028 . S
Mg291 O296 2.032 . S
Mg291 O298 2.079 1_655 S
C292 O289 1.250 1_655 S
C292 O290 1.248 . S
C293 O294 1.264 . S
C293 O301 1.249 . S
O294 C293 1.264 . S
O295 Mg288 1.986 . S
O295 C299 1.246 . S
O296 Mg291 2.032 . S
O296 C299 1.259 1_655 S
O297 Mg288 2.114 . S
O297 C300 1.252 . S
O298 Mg288 2.251 . S
O298 Mg291 2.079 1_455 S
O298 C300 1.273 . S
C299 O295 1.246 . S
C299 O296 1.259 1_455 S
C300 O297 1.252 . S
C300 O298 1.273 . S
O301 Mg288 2.010 . S
O301 C293 1.249 . S
Mg302 O303 2.028 . S
Mg302 O309 1.986 . S
Mg302 O311 2.114 . S
Mg302 O312 2.251 . S
Mg302 O315 2.010 . S
O303 Mg302 2.028 . S
O303 C306 1.250 . S
O304 Mg305 2.028 . S
O304 C306 1.248 . S
Mg305 O304 2.028 . S
Mg305 O310 2.032 . S
Mg305 O312 2.079 . S
C306 O303 1.250 . S
C306 O304 1.248 . S
C307 O308 1.264 . S
C307 O315 1.249 . S
O308 C307 1.264 . S
O309 Mg302 1.986 . S
O309 C313 1.246 . S
O310 Mg305 2.032 . S
O310 C313 1.259 . S
O311 Mg302 2.114 . S
O311 C314 1.252 . S
O312 Mg302 2.251 . S
O312 Mg305 2.079 . S
O312 C314 1.273 . S
C313 O309 1.246 . S
C313 O310 1.259 . S
C314 O311 1.252 . S
C314 O312 1.273 . S
O315 Mg302 2.010 . S
O315 C307 1.249 . S
Mg316 O317 2.028 1_655 S
Mg316 O323 1.986 1_655 S
Mg316 O325 2.114 . S
Mg316 O326 2.251 1_655 S
Mg316 O329 2.010 . S
O317 Mg316 2.028 1_455 S
O317 C320 1.250 . S
O318 Mg319 2.028 . S
O318 C320 1.248 . S
Mg319 O318 2.028 . S
Mg319 O324 2.032 . S
Mg319 O326 2.079 . S
C320 O317 1.250 . S
C320 O318 1.248 . S
C321 O322 1.264 . S
C321 O329 1.249 . S
O322 C321 1.264 . S
O323 Mg316 1.986 1_455 S
O323 C327 1.246 . S
O324 Mg319 2.032 . S
O324 C327 1.259 . S
O325 Mg316 2.114 . S
O325 C328 1.252 . S
O326 Mg316 2.251 1_455 S
O326 Mg319 2.079 . S
O326 C328 1.273 1_455 S
C327 O323 1.246 . S
C327 O324 1.259 . S
C328 O325 1.252 . S
C328 O326 1.273 1_655 S
O329 Mg316 2.010 . S
O329 C321 1.249 . S
Mg330 O331 2.028 . S
Mg330 O337 1.986 . S
Mg330 O339 2.114 . S
Mg330 O340 2.251 . S
Mg330 O343 2.010 . S
O331 Mg330 2.028 . S
O331 C334 1.250 . S
O332 Mg333 2.028 . S
O332 C334 1.248 . S
Mg333 O332 2.028 . S
Mg333 O338 2.032 . S
Mg333 O340 2.079 . S
C334 O331 1.250 . S
C334 O332 1.248 . S
C335 O336 1.264 . S
C335 O343 1.249 . S
O336 C335 1.264 . S
O337 Mg330 1.986 . S
O337 C341 1.246 . S
O338 Mg333 2.032 . S
O338 C341 1.259 . S
O339 Mg330 2.114 . S
O339 C342 1.252 . S
O340 Mg330 2.251 . S
O340 Mg333 2.079 . S
O340 C342 1.273 . S
C341 O337 1.246 . S
C341 O338 1.259 . S
C342 O339 1.252 . S
C342 O340 1.273 . S
O343 Mg330 2.010 . S
O343 C335 1.249 . S
H344 C350 0.930 . S
H345 C353 0.930 . S
H346 C354 0.930 . S
H347 C355 0.930 . S
H348 C358 0.930 . S
H349 C359 0.930 . S
C350 H344 0.930 . S
C350 C351 1.355 . S
C350 C352 1.415 . S
C351 C350 1.355 . S
C351 C353 1.419 . S
C352 C350 1.415 . S
C352 C357 1.425 . S
C352 C359 1.409 . S
C353 H345 0.930 . S
C353 C351 1.419 . S
C353 C354 1.362 . S
C354 H346 0.930 . S
C354 C353 1.362 . S
C354 C357 1.409 . S
C355 H347 0.930 . S
C355 C356 1.355 . S
C355 C357 1.415 . S
C356 C355 1.355 . S
C356 C358 1.419 . S
C357 C352 1.425 . S
C357 C354 1.409 . S
C357 C355 1.415 . S
C358 H348 0.930 . S
C358 C356 1.419 . S
C358 C359 1.362 . S
C359 H349 0.930 . S
C359 C352 1.409 . S
C359 C358 1.362 . S
H360 C366 0.930 . S
H361 C369 0.930 . S
H362 C370 0.930 . S
H363 C371 0.930 . S
H364 C374 0.930 . S
H365 C375 0.930 . S
C366 H360 0.930 . S
C366 C367 1.355 . S
C366 C368 1.415 . S
C367 C366 1.355 . S
C367 C369 1.419 . S
C368 C366 1.415 . S
C368 C373 1.425 . S
C368 C375 1.409 . S
C369 H361 0.930 . S
C369 C367 1.419 . S
C369 C370 1.362 . S
C370 H362 0.930 . S
C370 C369 1.362 . S
C370 C373 1.409 . S
C371 H363 0.930 . S
C371 C372 1.355 . S
C371 C373 1.415 . S
C372 C371 1.355 . S
C372 C374 1.419 . S
C373 C368 1.425 . S
C373 C370 1.409 . S
C373 C371 1.415 . S
C374 H364 0.930 . S
C374 C372 1.419 . S
C374 C375 1.362 . S
C375 H365 0.930 . S
C375 C368 1.409 . S
C375 C374 1.362 . S
H376 C382 0.930 . S
H377 C385 0.930 . S
H378 C386 0.930 . S
H379 C387 0.930 . S
H380 C390 0.930 . S
H381 C391 0.930 . S
C382 H376 0.930 . S
C382 C383 1.355 . S
C382 C384 1.415 . S
C383 C382 1.355 . S
C383 C385 1.419 . S
C384 C382 1.415 . S
C384 C389 1.425 . S
C384 C391 1.409 . S
C385 H377 0.930 . S
C385 C383 1.419 . S
C385 C386 1.362 . S
C386 H378 0.930 . S
C386 C385 1.362 . S
C386 C389 1.409 . S
C387 H379 0.930 . S
C387 C388 1.355 . S
C387 C389 1.415 . S
C388 C387 1.355 . S
C388 C390 1.419 . S
C389 C384 1.425 . S
C389 C386 1.409 . S
C389 C387 1.415 . S
C390 H380 0.930 . S
C390 C388 1.419 . S
C390 C391 1.362 . S
C391 H381 0.930 . S
C391 C384 1.409 . S
C391 C390 1.362 . S
H392 C398 0.930 . S
H393 C401 0.930 1_655 S
H394 C402 0.930 . S
H395 C403 0.930 . S
H396 C406 0.930 . S
H397 C407 0.930 . S
C398 H392 0.930 . S
C398 C399 1.355 1_545 S
C398 C400 1.415 . S
C399 C398 1.355 1_565 S
C399 C401 1.419 . S
C400 C398 1.415 . S
C400 C405 1.425 1_455 S
C400 C407 1.409 . S
C401 H393 0.930 1_455 S
C401 C399 1.419 . S
C401 C402 1.362 1_455 S
C402 H394 0.930 . S
C402 C401 1.362 1_655 S
C402 C405 1.409 1_565 S
C403 H395 0.930 . S
C403 C404 1.355 . S
C403 C405 1.415 . S
C404 C403 1.355 . S
C404 C406 1.419 1_655 S
C405 C400 1.425 1_655 S
C405 C402 1.409 1_545 S
C405 C403 1.415 . S
C406 H396 0.930 . S
C406 C404 1.419 1_455 S
C406 C407 1.362 . S
C407 H397 0.930 . S
C407 C400 1.409 . S
C407 C406 1.362 . S
H408 C414 0.930 . S
H409 C417 0.930 . S
H410 C418 0.930 . S
H411 C419 0.930 . S
H412 C422 0.930 . S
H413 C423 0.930 . S
C414 H408 0.930 . S
C414 C415 1.355 . S
C414 C416 1.415 . S
C415 C414 1.355 . S
C415 C417 1.419 . S
C416 C414 1.415 . S
C416 C421 1.425 . S
C416 C423 1.409 . S
C417 H409 0.930 . S
C417 C415 1.419 . S
C417 C418 1.362 . S
C418 H410 0.930 . S
C418 C417 1.362 . S
C418 C421 1.409 . S
C419 H411 0.930 . S
C419 C420 1.355 . S
C419 C421 1.415 . S
C420 C419 1.355 . S
C420 C422 1.419 . S
C421 C416 1.425 . S
C421 C418 1.409 . S
C421 C419 1.415 . S
C422 H412 0.930 . S
C422 C420 1.419 . S
C422 C423 1.362 . S
C423 H413 0.930 . S
C423 C416 1.409 . S
C423 C422 1.362 . S
H424 C430 0.930 . S
H425 C433 0.930 . S
H426 C434 0.930 . S
H427 C435 0.930 . S
H428 C438 0.930 . S
H429 C439 0.930 . S
C430 H424 0.930 . S
C430 C431 1.355 . S
C430 C432 1.415 . S
C431 C430 1.355 . S
C431 C433 1.419 . S
C432 C430 1.415 . S
C432 C437 1.425 . S
C432 C439 1.409 . S
C433 H425 0.930 . S
C433 C431 1.419 . S
C433 C434 1.362 . S
C434 H426 0.930 . S
C434 C433 1.362 . S
C434 C437 1.409 . S
C435 H427 0.930 . S
C435 C436 1.355 . S
C435 C437 1.415 . S
C436 C435 1.355 . S
C436 C438 1.419 . S
C437 C432 1.425 . S
C437 C434 1.409 . S
C437 C435 1.415 . S
C438 H428 0.930 . S
C438 C436 1.419 . S
C438 C439 1.362 . S
C439 H429 0.930 . S
C439 C432 1.409 . S
C439 C438 1.362 . S
H440 C446 0.930 . S
H441 C449 0.930 . S
H442 C450 0.930 . S
H443 C451 0.930 . S
H444 C454 0.930 . S
H445 C455 0.930 . S
C446 H440 0.930 . S
C446 C447 1.355 . S
C446 C448 1.415 . S
C447 C446 1.355 . S
C447 C449 1.419 . S
C448 C446 1.415 . S
C448 C453 1.425 . S
C448 C455 1.409 . S
C449 H441 0.930 . S
C449 C447 1.419 . S
C449 C450 1.362 . S
C450 H442 0.930 . S
C450 C449 1.362 . S
C450 C453 1.409 . S
C451 H443 0.930 . S
C451 C452 1.355 . S
C451 C453 1.415 . S
C452 C451 1.355 . S
C452 C454 1.419 . S
C453 C448 1.425 . S
C453 C450 1.409 . S
C453 C451 1.415 . S
C454 H444 0.930 . S
C454 C452 1.419 . S
C454 C455 1.362 . S
C455 H445 0.930 . S
C455 C448 1.409 . S
C455 C454 1.362 . S
H456 C462 0.930 . S
H457 C465 0.930 . S
H458 C466 0.930 . S
H459 C467 0.930 . S
H460 C470 0.930 . S
H461 C471 0.930 . S
C462 H456 0.930 . S
C462 C463 1.355 . S
C462 C464 1.415 . S
C463 C462 1.355 . S
C463 C465 1.419 1_565 S
C464 C462 1.415 . S
C464 C469 1.456 . S
C464 C471 1.409 . S
C465 H457 0.930 . S
C465 C463 1.419 1_545 S
C465 C466 1.362 . S
C466 H458 0.930 . S
C466 C465 1.362 . S
C466 C469 1.378 1_545 S
C467 H459 0.930 . S
C467 C468 1.355 1_545 S
C467 C469 1.417 1_545 S
C468 C467 1.355 1_565 S
C468 C470 1.419 . S
C469 C464 1.456 . S
C469 C466 1.378 1_565 S
C469 C467 1.417 1_565 S
C470 H460 0.930 . S
C470 C468 1.419 . S
C470 C471 1.362 . S
C471 H461 0.930 . S
C471 C464 1.409 . S
C471 C470 1.362 . S
H472 C478 0.930 . S
H473 C481 0.930 . S
H474 C482 0.930 . S
H475 C483 0.930 . S
H476 C486 0.930 . S
H477 C487 0.930 . S
C478 H472 0.930 . S
C478 C479 1.355 . S
C478 C480 1.415 . S
C479 C478 1.355 . S
C479 C481 1.419 . S
C480 C478 1.415 . S
C480 C485 1.425 . S
C480 C487 1.409 . S
C481 H473 0.930 . S
C481 C479 1.419 . S
C481 C482 1.362 . S
C482 H474 0.930 . S
C482 C481 1.362 . S
C482 C485 1.409 . S
C483 H475 0.930 . S
C483 C484 1.355 . S
C483 C485 1.415 . S
C484 C483 1.355 . S
C484 C486 1.419 . S
C485 C480 1.425 . S
C485 C482 1.409 . S
C485 C483 1.415 . S
C486 H476 0.930 . S
C486 C484 1.419 . S
C486 C487 1.362 . S
C487 H477 0.930 . S
C487 C480 1.409 . S
C487 C486 1.362 . S
H488 C494 0.930 . S
H489 C497 0.930 . S
H490 C498 0.930 . S
H491 C499 0.930 . S
H492 C502 0.930 . S
H493 C503 0.930 . S
C494 H488 0.930 . S
C494 C495 1.355 . S
C494 C496 1.415 . S
C495 C494 1.355 . S
C495 C497 1.419 . S
C496 C494 1.415 . S
C496 C501 1.425 . S
C496 C503 1.409 . S
C497 H489 0.930 . S
C497 C495 1.419 . S
C497 C498 1.362 . S
C498 H490 0.930 . S
C498 C497 1.362 . S
C498 C501 1.409 . S
C499 H491 0.930 . S
C499 C500 1.355 . S
C499 C501 1.415 . S
C500 C499 1.355 . S
C500 C502 1.419 . S
C501 C496 1.425 . S
C501 C498 1.409 . S
C501 C499 1.415 . S
C502 H492 0.930 . S
C502 C500 1.419 . S
C502 C503 1.362 . S
C503 H493 0.930 . S
C503 C496 1.409 . S
C503 C502 1.362 . S
H504 C510 0.930 . S
H505 C513 0.930 . S
H506 C514 0.930 . S
H507 C515 0.930 . S
H508 C518 0.930 . S
H509 C519 0.930 . S
C510 H504 0.930 . S
C510 C511 1.355 . S
C510 C512 1.415 . S
C511 C510 1.355 . S
C511 C513 1.419 . S
C512 C510 1.415 . S
C512 C517 1.425 . S
C512 C519 1.409 . S
C513 H505 0.930 . S
C513 C511 1.419 . S
C513 C514 1.362 . S
C514 H506 0.930 . S
C514 C513 1.362 . S
C514 C517 1.409 . S
C515 H507 0.930 . S
C515 C516 1.355 . S
C515 C517 1.415 . S
C516 C515 1.355 . S
C516 C518 1.419 . S
C517 C512 1.425 . S
C517 C514 1.409 . S
C517 C515 1.415 . S
C518 H508 0.930 . S
C518 C516 1.419 . S
C518 C519 1.362 . S
C519 H509 0.930 . S
C519 C512 1.409 . S
C519 C518 1.362 . S
H520 C526 0.930 . S
H521 C529 0.930 . S
H522 C530 0.930 . S
H523 C531 0.930 . S
H524 C534 0.930 . S
H525 C535 0.930 . S
C526 H520 0.930 . S
C526 C527 1.355 . S
C526 C528 1.415 . S
C527 C526 1.355 . S
C527 C529 1.419 . S
C528 C526 1.415 . S
C528 C533 1.425 . S
C528 C535 1.409 . S
C529 H521 0.930 . S
C529 C527 1.419 . S
C529 C530 1.362 . S
C530 H522 0.930 . S
C530 C529 1.362 . S
C530 C533 1.409 . S
C531 H523 0.930 . S
C531 C532 1.355 . S
C531 C533 1.415 . S
C532 C531 1.355 . S
C532 C534 1.419 . S
C533 C528 1.425 . S
C533 C530 1.409 . S
C533 C531 1.415 . S
C534 H524 0.930 . S
C534 C532 1.419 . S
C534 C535 1.362 . S
C535 H525 0.930 . S
C535 C528 1.409 . S
C535 C534 1.362 . S
H536 C542 0.930 . S
H537 C545 0.930 . S
H538 C546 0.930 . S
H539 C547 0.930 . S
H540 C550 0.930 . S
H541 C551 0.930 . S
C542 H536 0.930 . S
C542 C543 1.355 . S
C542 C544 1.415 . S
C543 C542 1.355 . S
C543 C545 1.419 . S
C544 C542 1.415 . S
C544 C549 1.425 . S
C544 C551 1.409 . S
C545 H537 0.930 . S
C545 C543 1.419 . S
C545 C546 1.362 . S
C546 H538 0.930 . S
C546 C545 1.362 . S
C546 C549 1.409 . S
C547 H539 0.930 . S
C547 C548 1.355 . S
C547 C549 1.415 . S
C548 C547 1.355 . S
C548 C550 1.419 . S
C549 C544 1.425 . S
C549 C546 1.409 . S
C549 C547 1.415 . S
C550 H540 0.930 . S
C550 C548 1.419 . S
C550 C551 1.362 . S
C551 H541 0.930 . S
C551 C544 1.409 . S
C551 C550 1.362 . S
H552 C558 0.930 . S
H553 C561 0.930 . S
H554 C562 0.930 . S
H555 C563 0.930 . S
H556 C566 0.930 . S
H557 C567 0.930 . S
C558 H552 0.930 . S
C558 C559 1.355 . S
C558 C560 1.415 . S
C559 C558 1.355 . S
C559 C561 1.419 . S
C560 C558 1.415 . S
C560 C565 1.425 . S
C560 C567 1.409 . S
C561 H553 0.930 . S
C561 C559 1.419 . S
C561 C562 1.362 . S
C562 H554 0.930 . S
C562 C561 1.362 . S
C562 C565 1.409 . S
C563 H555 0.930 . S
C563 C564 1.355 . S
C563 C565 1.415 . S
C564 C563 1.355 . S
C564 C566 1.419 . S
C565 C560 1.425 . S
C565 C562 1.409 . S
C565 C563 1.415 . S
C566 H556 0.930 . S
C566 C564 1.419 . S
C566 C567 1.362 . S
C567 H557 0.930 . S
C567 C560 1.409 . S
C567 C566 1.362 . S
H568 C574 0.930 . S
H569 C577 0.930 . S
H570 C578 0.930 . S
H571 C579 0.930 . S
H572 C582 0.930 . S
H573 C583 0.930 . S
C574 H568 0.930 . S
C574 C575 1.355 . S
C574 C576 1.415 . S
C575 C574 1.355 . S
C575 C577 1.419 . S
C576 C574 1.415 . S
C576 C581 1.425 . S
C576 C583 1.409 . S
C577 H569 0.930 . S
C577 C575 1.419 . S
C577 C578 1.362 . S
C578 H570 0.930 . S
C578 C577 1.362 . S
C578 C581 1.409 . S
C579 H571 0.930 . S
C579 C580 1.355 . S
C579 C581 1.415 . S
C580 C579 1.355 . S
C580 C582 1.419 . S
C581 C576 1.425 . S
C581 C578 1.409 . S
C581 C579 1.415 . S
C582 H572 0.930 . S
C582 C580 1.419 . S
C582 C583 1.362 . S
C583 H573 0.930 . S
C583 C576 1.409 . S
C583 C582 1.362 . S
H584 C590 0.940 . S
H585 C593 0.930 . S
H586 C594 0.930 . S
H587 C595 0.930 . S
H588 C598 0.930 . S
H589 C599 0.930 . S
C590 H584 0.940 . S
C590 C591 1.355 . S
C590 C592 1.415 . S
C591 C590 1.355 . S
C591 C593 1.419 . S
C592 C590 1.415 . S
C592 C597 1.425 . S
C592 C599 1.409 1_655 S
C593 H585 0.930 . S
C593 C591 1.419 . S
C593 C594 1.362 . S
C594 H586 0.930 . S
C594 C593 1.362 . S
C594 C597 1.409 . S
C595 H587 0.930 . S
C595 C596 1.355 . S
C595 C597 1.415 . S
C596 C595 1.355 . S
C596 C598 1.419 1_655 S
C597 C592 1.425 . S
C597 C594 1.409 . S
C597 C595 1.415 . S
C598 H588 0.930 . S
C598 C596 1.419 1_455 S
C598 C599 1.362 . S
C599 H589 0.930 . S
C599 C592 1.409 1_455 S
C599 C598 1.362 . S
H600 C606 0.930 . S
H601 C609 0.930 . S
H602 C610 0.930 . S
H603 C611 0.930 . S
H604 C614 0.930 . S
H605 C615 0.930 . S
C606 H600 0.930 . S
C606 C607 1.355 . S
C606 C608 1.415 . S
C607 C606 1.355 . S
C607 C609 1.419 . S
C608 C606 1.415 . S
C608 C613 1.425 . S
C608 C615 1.409 . S
C609 H601 0.930 . S
C609 C607 1.419 . S
C609 C610 1.362 . S
C610 H602 0.930 . S
C610 C609 1.362 . S
C610 C613 1.409 . S
C611 H603 0.930 . S
C611 C612 1.355 . S
C611 C613 1.415 . S
C612 C611 1.355 . S
C612 C614 1.419 . S
C613 C608 1.425 . S
C613 C610 1.409 . S
C613 C611 1.415 . S
C614 H604 0.930 . S
C614 C612 1.419 . S
C614 C615 1.362 . S
C615 H605 0.930 . S
C615 C608 1.409 . S
C615 C614 1.362 . S
H616 C622 0.930 . S
H617 C625 0.930 . S
H618 C626 0.930 . S
H619 C627 0.930 . S
H620 C630 0.930 . S
H621 C631 0.930 . S
C622 H616 0.930 . S
C622 C623 1.355 . S
C622 C624 1.415 . S
C623 C622 1.355 . S
C623 C625 1.419 . S
C624 C622 1.415 . S
C624 C629 1.425 . S
C624 C631 1.409 . S
C625 H617 0.930 . S
C625 C623 1.419 . S
C625 C626 1.362 . S
C626 H618 0.930 . S
C626 C625 1.362 . S
C626 C629 1.409 . S
C627 H619 0.930 . S
C627 C628 1.355 . S
C627 C629 1.415 . S
C628 C627 1.355 . S
C628 C630 1.419 . S
C629 C624 1.425 . S
C629 C626 1.409 . S
C629 C627 1.415 . S
C630 H620 0.930 . S
C630 C628 1.419 . S
C630 C631 1.362 . S
C631 H621 0.930 . S
C631 C624 1.409 . S
C631 C630 1.362 . S
H632 C638 0.930 . S
H633 C641 0.930 . S
H634 C642 0.930 . S
H635 C643 0.930 . S
H636 C646 0.930 1_556 S
H637 C647 0.930 . S
C638 H632 0.930 . S
C638 C639 1.355 . S
C638 C640 1.415 . S
C639 C638 1.355 . S
C639 C641 1.419 1_566 S
C640 C638 1.415 . S
C640 C645 1.425 1_556 S
C640 C647 1.409 . S
C641 H633 0.930 . S
C641 C639 1.419 1_544 S
C641 C642 1.362 . S
C642 H634 0.930 . S
C642 C641 1.362 . S
C642 C645 1.409 1_545 S
C643 H635 0.930 . S
C643 C644 1.355 . S
C643 C645 1.415 . S
C644 C643 1.355 . S
C644 C646 1.419 . S
C645 C640 1.425 1_554 S
C645 C642 1.409 1_565 S
C645 C643 1.415 . S
C646 H636 0.930 1_554 S
C646 C644 1.419 . S
C646 C647 1.362 1_554 S
C647 H637 0.930 . S
C647 C640 1.409 . S
C647 C646 1.362 1_556 S
H648 C654 0.930 . S
H649 C657 0.930 . S
H650 C658 0.930 . S
H651 C659 0.930 . S
H652 C662 0.930 . S
H653 C663 0.930 . S
C654 H648 0.930 . S
C654 C655 1.355 . S
C654 C656 1.415 . S
C655 C654 1.355 . S
C655 C657 1.419 . S
C656 C654 1.415 . S
C656 C661 1.425 . S
C656 C663 1.409 . S
C657 H649 0.930 . S
C657 C655 1.419 . S
C657 C658 1.362 . S
C658 H650 0.930 . S
C658 C657 1.362 . S
C658 C661 1.409 . S
C659 H651 0.930 . S
C659 C660 1.355 . S
C659 C661 1.415 . S
C660 C659 1.355 . S
C660 C662 1.419 . S
C661 C656 1.425 . S
C661 C658 1.409 . S
C661 C659 1.415 . S
C662 H652 0.930 . S
C662 C660 1.419 . S
C662 C663 1.362 . S
C663 H653 0.930 . S
C663 C656 1.409 . S
C663 C662 1.362 . S
H664 C670 0.930 . S
H665 C673 0.930 . S
H666 C674 0.930 . S
H667 C675 0.930 . S
H668 C678 0.930 . S
H669 C679 0.930 . S
C670 H664 0.930 . S
C670 C671 1.355 . S
C670 C672 1.415 . S
C671 C670 1.355 . S
C671 C673 1.419 . S
C672 C670 1.415 . S
C672 C677 1.425 . S
C672 C679 1.409 . S
C673 H665 0.930 . S
C673 C671 1.419 . S
C673 C674 1.362 . S
C674 H666 0.930 . S
C674 C673 1.362 . S
C674 C677 1.409 . S
C675 H667 0.930 . S
C675 C676 1.355 . S
C675 C677 1.415 . S
C676 C675 1.355 . S
C676 C678 1.419 . S
C677 C672 1.425 . S
C677 C674 1.409 . S
C677 C675 1.415 . S
C678 H668 0.930 . S
C678 C676 1.419 . S
C678 C679 1.362 . S
C679 H669 0.930 . S
C679 C672 1.409 . S
C679 C678 1.362 . S
H680 C686 0.930 . S
H681 C689 0.930 . S
H682 C690 0.930 . S
H683 C691 0.930 . S
H684 C694 0.930 . S
H685 C695 0.930 . S
C686 H680 0.930 . S
C686 C687 1.355 . S
C686 C688 1.415 . S
C687 C686 1.355 . S
C687 C689 1.419 . S
C688 C686 1.415 . S
C688 C693 1.425 . S
C688 C695 1.409 . S
C689 H681 0.930 . S
C689 C687 1.419 . S
C689 C690 1.362 . S
C690 H682 0.930 . S
C690 C689 1.362 . S
C690 C693 1.409 . S
C691 H683 0.930 . S
C691 C692 1.355 . S
C691 C693 1.415 . S
C692 C691 1.355 . S
C692 C694 1.419 . S
C693 C688 1.425 . S
C693 C690 1.409 . S
C693 C691 1.415 . S
C694 H684 0.930 . S
C694 C692 1.419 . S
C694 C695 1.362 . S
C695 H685 0.930 . S
C695 C688 1.409 . S
C695 C694 1.362 . S
H696 C702 0.930 . S
H697 C705 0.930 . S
H698 C706 0.930 . S
H699 C707 0.930 . S
H700 C710 0.930 . S
H701 C711 0.930 . S
C702 H696 0.930 . S
C702 C703 1.355 . S
C702 C704 1.415 . S
C703 C702 1.355 . S
C703 C705 1.419 . S
C704 C702 1.415 . S
C704 C709 1.425 . S
C704 C711 1.409 . S
C705 H697 0.930 . S
C705 C703 1.419 . S
C705 C706 1.362 . S
C706 H698 0.930 . S
C706 C705 1.362 . S
C706 C709 1.409 . S
C707 H699 0.930 . S
C707 C708 1.355 . S
C707 C709 1.415 . S
C708 C707 1.355 . S
C708 C710 1.419 . S
C709 C704 1.425 . S
C709 C706 1.409 . S
C709 C707 1.415 . S
C710 H700 0.930 . S
C710 C708 1.419 . S
C710 C711 1.362 . S
C711 H701 0.930 . S
C711 C704 1.409 . S
C711 C710 1.362 . S
H712 C718 0.930 . S
H713 C721 0.930 . S
H714 C722 0.930 . S
H715 C723 0.930 . S
H716 C726 0.930 . S
H717 C727 0.930 . S
C718 H712 0.930 . S
C718 C719 1.355 . S
C718 C720 1.415 . S
C719 C718 1.355 . S
C719 C721 1.419 . S
C720 C718 1.415 . S
C720 C725 1.425 . S
C720 C727 1.409 . S
C721 H713 0.930 . S
C721 C719 1.419 . S
C721 C722 1.362 . S
C722 H714 0.930 . S
C722 C721 1.362 . S
C722 C725 1.409 . S
C723 H715 0.930 . S
C723 C724 1.355 . S
C723 C725 1.415 . S
C724 C723 1.355 . S
C724 C726 1.419 . S
C725 C720 1.425 . S
C725 C722 1.409 . S
C725 C723 1.415 . S
C726 H716 0.930 . S
C726 C724 1.419 . S
C726 C727 1.362 . S
C727 H717 0.930 . S
C727 C720 1.409 . S
C727 C726 1.362 . S
H728 C734 0.930 . S
H729 C737 0.930 . S
H730 C738 0.930 . S
H731 C739 0.930 . S
H732 C742 0.930 . S
H733 C743 0.930 . S
C734 H728 0.930 . S
C734 C735 1.355 . S
C734 C736 1.415 . S
C735 C734 1.355 . S
C735 C737 1.419 . S
C736 C734 1.415 . S
C736 C741 1.425 . S
C736 C743 1.409 . S
C737 H729 0.930 . S
C737 C735 1.419 . S
C737 C738 1.362 . S
C738 H730 0.930 . S
C738 C737 1.362 . S
C738 C741 1.409 . S
C739 H731 0.930 . S
C739 C740 1.355 . S
C739 C741 1.415 . S
C740 C739 1.355 . S
C740 C742 1.419 . S
C741 C736 1.425 . S
C741 C738 1.409 . S
C741 C739 1.415 . S
C742 H732 0.930 . S
C742 C740 1.419 . S
C742 C743 1.362 . S
C743 H733 0.930 . S
C743 C736 1.409 . S
C743 C742 1.362 . S
H744 C750 0.930 . S
H745 C753 0.930 . S
H746 C754 0.930 . S
H747 C755 0.930 . S
H748 C758 0.930 . S
H749 C759 0.930 . S
C750 H744 0.930 . S
C750 C751 1.355 . S
C750 C752 1.415 . S
C751 C750 1.355 . S
C751 C753 1.419 . S
C752 C750 1.415 . S
C752 C757 1.425 . S
C752 C759 1.409 . S
C753 H745 0.930 . S
C753 C751 1.419 . S
C753 C754 1.362 . S
C754 H746 0.930 . S
C754 C753 1.362 . S
C754 C757 1.409 . S
C755 H747 0.930 . S
C755 C756 1.355 . S
C755 C757 1.415 . S
C756 C755 1.355 . S
C756 C758 1.419 . S
C757 C752 1.425 . S
C757 C754 1.409 . S
C757 C755 1.415 . S
C758 H748 0.930 . S
C758 C756 1.419 . S
C758 C759 1.362 . S
C759 H749 0.930 . S
C759 C752 1.409 . S
C759 C758 1.362 . S
H760 C766 0.930 . S
H761 C769 0.930 . S
H762 C770 0.930 . S
H763 C771 0.930 . S
H764 C774 0.930 . S
H765 C775 0.930 . S
C766 H760 0.930 . S
C766 C767 1.355 . S
C766 C768 1.415 . S
C767 C766 1.355 . S
C767 C769 1.419 . S
C768 C766 1.415 . S
C768 C773 1.425 . S
C768 C775 1.409 . S
C769 H761 0.930 . S
C769 C767 1.419 . S
C769 C770 1.362 . S
C770 H762 0.930 . S
C770 C769 1.362 . S
C770 C773 1.409 . S
C771 H763 0.930 . S
C771 C772 1.355 . S
C771 C773 1.415 . S
C772 C771 1.355 . S
C772 C774 1.419 . S
C773 C768 1.425 . S
C773 C770 1.409 . S
C773 C771 1.415 . S
C774 H764 0.930 . S
C774 C772 1.419 . S
C774 C775 1.362 . S
C775 H765 0.930 . S
C775 C768 1.409 . S
C775 C774 1.362 . S
H776 C782 0.930 . S
H777 C785 0.930 . S
H778 C786 0.930 . S
H779 C787 0.930 . S
H780 C790 0.930 . S
H781 C791 0.930 . S
C782 H776 0.930 . S
C782 C783 1.355 . S
C782 C784 1.415 . S
C783 C782 1.355 . S
C783 C785 1.419 . S
C784 C782 1.415 . S
C784 C789 1.425 . S
C784 C791 1.409 . S
C785 H777 0.930 . S
C785 C783 1.419 . S
C785 C786 1.362 . S
C786 H778 0.930 . S
C786 C785 1.362 . S
C786 C789 1.409 . S
C787 H779 0.930 . S
C787 C788 1.355 . S
C787 C789 1.415 . S
C788 C787 1.355 . S
C788 C790 1.419 . S
C789 C784 1.425 . S
C789 C786 1.409 . S
C789 C787 1.415 . S
C790 H780 0.930 . S
C790 C788 1.419 . S
C790 C791 1.362 . S
C791 H781 0.930 . S
C791 C784 1.409 . S
C791 C790 1.362 . S
H792 C798 0.930 . S
H793 C801 0.930 . S
H794 C802 0.930 . S
H795 C803 0.930 . S
H796 C806 0.930 . S
H797 C807 0.930 . S
C798 H792 0.930 . S
C798 C799 1.355 . S
C798 C800 1.415 . S
C799 C798 1.355 . S
C799 C801 1.419 . S
C800 C798 1.415 . S
C800 C805 1.425 . S
C800 C807 1.409 . S
C801 H793 0.930 . S
C801 C799 1.419 . S
C801 C802 1.362 . S
C802 H794 0.930 . S
C802 C801 1.362 . S
C802 C805 1.409 . S
C803 H795 0.930 . S
C803 C804 1.355 . S
C803 C805 1.415 . S
C804 C803 1.355 . S
C804 C806 1.419 . S
C805 C800 1.425 . S
C805 C802 1.409 . S
C805 C803 1.415 . S
C806 H796 0.930 . S
C806 C804 1.419 . S
C806 C807 1.362 . S
C807 H797 0.930 . S
C807 C800 1.409 . S
C807 C806 1.362 . S
H808 C814 0.930 . S
H809 C817 0.930 . S
H810 C818 0.930 . S
H811 C819 0.930 . S
H812 C822 0.930 . S
H813 C823 0.930 . S
C814 H808 0.930 . S
C814 C815 1.355 . S
C814 C816 1.415 . S
C815 C814 1.355 . S
C815 C817 1.419 1_455 S
C816 C814 1.415 . S
C816 C821 1.425 1_455 S
C816 C823 1.409 . S
C817 H809 0.930 . S
C817 C815 1.419 1_655 S
C817 C818 1.362 . S
C818 H810 0.930 . S
C818 C817 1.362 . S
C818 C821 1.409 . S
C819 H811 0.930 . S
C819 C820 1.355 . S
C819 C821 1.415 . S
C820 C819 1.355 . S
C820 C822 1.419 1_655 S
C821 C816 1.425 1_655 S
C821 C818 1.409 . S
C821 C819 1.415 . S
C822 H812 0.930 . S
C822 C820 1.419 1_455 S
C822 C823 1.362 . S
C823 H813 0.930 . S
C823 C816 1.409 . S
C823 C822 1.362 . S
H824 C830 0.930 . S
H825 C833 0.930 . S
H826 C834 0.930 . S
H827 C835 0.930 . S
H828 C838 0.930 . S
H829 C839 0.930 . S
C830 H824 0.930 . S
C830 C831 1.355 . S
C830 C832 1.415 . S
C831 C830 1.355 . S
C831 C833 1.419 . S
C832 C830 1.415 . S
C832 C837 1.425 . S
C832 C839 1.409 . S
C833 H825 0.930 . S
C833 C831 1.419 . S
C833 C834 1.362 . S
C834 H826 0.930 . S
C834 C833 1.362 . S
C834 C837 1.409 . S
C835 H827 0.930 . S
C835 C836 1.355 . S
C835 C837 1.415 . S
C836 C835 1.355 . S
C836 C838 1.419 . S
C837 C832 1.425 . S
C837 C834 1.409 . S
C837 C835 1.415 . S
C838 H828 0.930 . S
C838 C836 1.419 . S
C838 C839 1.362 . S
C839 H829 0.930 . S
C839 C832 1.409 . S
C839 C838 1.362 . S
H840 C846 0.930 . S
H841 C849 0.930 1_655 S
H842 C850 0.930 . S
H843 C851 0.930 . S
H844 C854 0.930 . S
H845 C855 0.930 . S
C846 H840 0.930 . S
C846 C847 1.355 . S
C846 C848 1.415 . S
C847 C846 1.355 . S
C847 C849 1.419 . S
C848 C846 1.415 . S
C848 C853 1.425 . S
C848 C855 1.409 . S
C849 H841 0.930 1_455 S
C849 C847 1.419 . S
C849 C850 1.362 . S
C850 H842 0.930 . S
C850 C849 1.362 . S
C850 C853 1.409 . S
C851 H843 0.930 . S
C851 C852 1.355 . S
C851 C853 1.415 . S
C852 C851 1.355 . S
C852 C854 1.419 . S
C853 C848 1.425 . S
C853 C850 1.409 . S
C853 C851 1.415 . S
C854 H844 0.930 . S
C854 C852 1.419 . S
C854 C855 1.362 . S
C855 H845 0.930 . S
C855 C848 1.409 . S
C855 C854 1.362 . S
H856 C862 0.930 . S
H857 C865 0.930 . S
H858 C866 0.930 . S
H859 C867 0.930 . S
H860 C870 0.930 . S
H861 C871 0.930 . S
C862 H856 0.930 . S
C862 C863 1.355 . S
C862 C864 1.415 . S
C863 C862 1.355 . S
C863 C865 1.419 . S
C864 C862 1.415 . S
C864 C869 1.425 . S
C864 C871 1.409 . S
C865 H857 0.930 . S
C865 C863 1.419 . S
C865 C866 1.362 . S
C866 H858 0.930 . S
C866 C865 1.362 . S
C866 C869 1.409 . S
C867 H859 0.930 . S
C867 C868 1.355 . S
C867 C869 1.415 . S
C868 C867 1.355 . S
C868 C870 1.419 . S
C869 C864 1.425 . S
C869 C866 1.409 . S
C869 C867 1.415 . S
C870 H860 0.930 . S
C870 C868 1.419 . S
C870 C871 1.362 . S
C871 H861 0.930 . S
C871 C864 1.409 . S
C871 C870 1.362 . S
H872 C878 0.930 . S
H873 C881 0.930 . S
H874 C882 0.930 . S
H875 C883 0.930 . S
H876 C886 0.930 . S
H877 C887 0.930 . S
C878 H872 0.930 . S
C878 C879 1.355 1_556 S
C878 C880 1.415 . S
C879 C878 1.355 1_554 S
C879 C881 1.419 . S
C880 C878 1.415 . S
C880 C885 1.425 . S
C880 C887 1.409 . S
C881 H873 0.930 . S
C881 C879 1.419 . S
C881 C882 1.362 . S
C882 H874 0.930 . S
C882 C881 1.362 . S
C882 C885 1.409 1_554 S
C883 H875 0.930 . S
C883 C884 1.355 . S
C883 C885 1.415 . S
C884 C883 1.355 . S
C884 C886 1.419 . S
C885 C880 1.425 . S
C885 C882 1.409 1_556 S
C885 C883 1.415 . S
C886 H876 0.930 . S
C886 C884 1.419 . S
C886 C887 1.362 . S
C887 H877 0.930 . S
C887 C880 1.409 . S
C887 C886 1.362 . S
H888 C894 0.930 . S
H889 C897 0.930 . S
H890 C898 0.930 . S
H891 C899 0.930 . S
H892 C902 0.930 . S
H893 C903 0.930 . S
C894 H888 0.930 . S
C894 C895 1.355 . S
C894 C896 1.415 . S
C895 C894 1.355 . S
C895 C897 1.419 . S
C896 C894 1.415 . S
C896 C901 1.425 . S
C896 C903 1.409 . S
C897 H889 0.930 . S
C897 C895 1.419 . S
C897 C898 1.362 . S
C898 H890 0.930 . S
C898 C897 1.362 . S
C898 C901 1.409 . S
C899 H891 0.930 . S
C899 C900 1.355 . S
C899 C901 1.415 . S
C900 C899 1.355 . S
C900 C902 1.419 . S
C901 C896 1.425 . S
C901 C898 1.409 . S
C901 C899 1.415 . S
C902 H892 0.930 . S
C902 C900 1.419 . S
C902 C903 1.362 . S
C903 H893 0.930 . S
C903 C896 1.409 . S
C903 C902 1.362 . S
H904 C910 0.930 . S
H905 C913 0.930 . S
H906 C914 0.928 1_554 S
H907 C915 0.930 . S
H908 C918 0.930 . S
H909 C919 0.930 . S
C910 H904 0.930 . S
C910 C911 1.355 . S
C910 C912 1.415 . S
C911 C910 1.355 . S
C911 C913 1.419 1_556 S
C912 C910 1.415 . S
C912 C917 1.425 . S
C912 C919 1.409 . S
C913 H905 0.930 . S
C913 C911 1.419 1_554 S
C913 C914 1.362 1_554 S
C914 H906 0.928 1_556 S
C914 C913 1.362 1_556 S
C914 C917 1.409 . S
C915 H907 0.930 . S
C915 C916 1.355 . S
C915 C917 1.415 . S
C916 C915 1.355 . S
C916 C918 1.419 . S
C917 C912 1.425 . S
C917 C914 1.409 . S
C917 C915 1.415 . S
C918 H908 0.930 . S
C918 C916 1.419 . S
C918 C919 1.362 . S
C919 H909 0.930 . S
C919 C912 1.409 . S
C919 C918 1.362 . S
H920 C926 0.930 . S
H921 C929 0.930 . S
H922 C930 0.930 . S
H923 C931 0.930 . S
H924 C934 0.930 . S
H925 C935 0.930 . S
C926 H920 0.930 . S
C926 C927 1.355 . S
C926 C928 1.415 . S
C927 C926 1.355 . S
C927 C929 1.419 . S
C928 C926 1.415 . S
C928 C933 1.425 . S
C928 C935 1.409 . S
C929 H921 0.930 . S
C929 C927 1.419 . S
C929 C930 1.362 . S
C930 H922 0.930 . S
C930 C929 1.362 . S
C930 C933 1.409 . S
C931 H923 0.930 . S
C931 C932 1.355 . S
C931 C933 1.415 . S
C932 C931 1.355 . S
C932 C934 1.419 . S
C933 C928 1.425 . S
C933 C930 1.409 . S
C933 C931 1.415 . S
C934 H924 0.930 . S
C934 C932 1.419 . S
C934 C935 1.362 . S
C935 H925 0.930 . S
C935 C928 1.409 . S
C935 C934 1.362 . S
H936 C942 0.930 . S
H937 C945 0.968 . S
H938 C946 0.930 . S
H939 C947 0.930 . S
H940 C950 0.930 . S
H941 C951 0.930 . S
C942 H936 0.930 . S
C942 C943 1.355 . S
C942 C944 1.415 . S
C943 C942 1.355 . S
C943 C945 1.419 . S
C944 C942 1.415 . S
C944 C949 1.425 . S
C944 C951 1.409 . S
C945 H937 0.968 . S
C945 C943 1.419 . S
C945 C946 1.362 . S
C946 H938 0.930 . S
C946 C945 1.362 . S
C946 C949 1.409 . S
C947 H939 0.930 . S
C947 C948 1.355 . S
C947 C949 1.415 . S
C948 C947 1.355 . S
C948 C950 1.419 . S
C949 C944 1.425 . S
C949 C946 1.409 . S
C949 C947 1.415 . S
C950 H940 0.930 . S
C950 C948 1.419 . S
C950 C951 1.362 . S
C951 H941 0.930 . S
C951 C944 1.409 . S
C951 C950 1.362 . S
H952 C958 0.930 . S
H953 C961 0.930 . S
H954 C962 0.930 . S
H955 C963 0.930 . S
H956 C966 0.930 . S
H957 C967 0.930 . S
C958 H952 0.930 . S
C958 C959 1.355 . S
C958 C960 1.415 . S
C959 C958 1.355 . S
C959 C961 1.419 . S
C960 C958 1.415 . S
C960 C965 1.425 . S
C960 C967 1.409 . S
C961 H953 0.930 . S
C961 C959 1.419 . S
C961 C962 1.362 . S
C962 H954 0.930 . S
C962 C961 1.362 . S
C962 C965 1.409 . S
C963 H955 0.930 . S
C963 C964 1.355 . S
C963 C965 1.415 . S
C964 C963 1.355 . S
C964 C966 1.419 . S
C965 C960 1.425 . S
C965 C962 1.409 . S
C965 C963 1.415 . S
C966 H956 0.930 . S
C966 C964 1.419 . S
C966 C967 1.362 . S
C967 H957 0.930 . S
C967 C960 1.409 . S
C967 C966 1.362 . S
H968 C974 0.930 . S
H969 C977 0.930 . S
H970 C978 0.930 . S
H971 C979 0.930 . S
H972 C982 0.930 . S
H973 C983 0.930 . S
C974 H968 0.930 . S
C974 C975 1.355 . S
C974 C976 1.415 . S
C975 C974 1.355 . S
C975 C977 1.419 . S
C976 C974 1.415 . S
C976 C981 1.425 . S
C976 C983 1.409 . S
C977 H969 0.930 . S
C977 C975 1.419 . S
C977 C978 1.362 . S
C978 H970 0.930 . S
C978 C977 1.362 . S
C978 C981 1.409 . S
C979 H971 0.930 . S
C979 C980 1.355 . S
C979 C981 1.415 . S
C980 C979 1.355 . S
C980 C982 1.419 . S
C981 C976 1.425 . S
C981 C978 1.409 . S
C981 C979 1.415 . S
C982 H972 0.930 . S
C982 C980 1.419 . S
C982 C983 1.362 . S
C983 H973 0.930 . S
C983 C976 1.409 . S
C983 C982 1.362 . S
H984 C990 0.930 . S
H985 C993 0.930 . S
H986 C994 0.930 . S
H987 C995 0.930 . S
H988 C998 0.930 . S
H989 C999 0.930 . S
C990 H984 0.930 . S
C990 C991 1.355 . S
C990 C992 1.415 . S
C991 C990 1.355 . S
C991 C993 1.419 . S
C992 C990 1.415 . S
C992 C997 1.425 . S
C992 C999 1.409 . S
C993 H985 0.930 . S
C993 C991 1.419 . S
C993 C994 1.362 . S
C994 H986 0.930 . S
C994 C993 1.362 . S
C994 C997 1.409 . S
C995 H987 0.930 . S
C995 C996 1.355 . S
C995 C997 1.415 . S
C996 C995 1.355 . S
C996 C998 1.419 . S
C997 C992 1.425 . S
C997 C994 1.409 . S
C997 C995 1.415 . S
C998 H988 0.930 . S
C998 C996 1.419 . S
C998 C999 1.362 . S
C999 H989 0.930 . S
C999 C992 1.409 . S
C999 C998 1.362 . S
H1000 C1006 0.930 . S
H1001 C1009 0.930 . S
H1002 C1010 0.930 . S
H1003 C1011 0.930 . S
H1004 C1014 0.930 . S
H1005 C1015 0.930 . S
C1006 H1000 0.930 . S
C1006 C1007 1.355 . S
C1006 C1008 1.415 . S
C1007 C1006 1.355 . S
C1007 C1009 1.419 . S
C1008 C1006 1.415 . S
C1008 C1013 1.425 . S
C1008 C1015 1.409 . S
C1009 H1001 0.930 . S
C1009 C1007 1.419 . S
C1009 C1010 1.362 . S
C1010 H1002 0.930 . S
C1010 C1009 1.362 . S
C1010 C1013 1.409 . S
C1011 H1003 0.930 . S
C1011 C1012 1.355 . S
C1011 C1013 1.415 . S
C1012 C1011 1.355 . S
C1012 C1014 1.419 . S
C1013 C1008 1.425 . S
C1013 C1010 1.409 . S
C1013 C1011 1.415 . S
C1014 H1004 0.930 . S
C1014 C1012 1.419 . S
C1014 C1015 1.362 . S
C1015 H1005 0.930 . S
C1015 C1008 1.409 . S
C1015 C1014 1.362 . S
H1016 C1022 0.930 . S
H1017 C1025 0.930 . S
H1018 C1026 0.930 . S
H1019 C1027 0.930 . S
H1020 C1030 0.930 . S
H1021 C1031 0.930 . S
C1022 H1016 0.930 . S
C1022 C1023 1.355 . S
C1022 C1024 1.415 . S
C1023 C1022 1.355 . S
C1023 C1025 1.419 . S
C1024 C1022 1.415 . S
C1024 C1029 1.425 . S
C1024 C1031 1.409 . S
C1025 H1017 0.930 . S
C1025 C1023 1.419 . S
C1025 C1026 1.362 . S
C1026 H1018 0.930 . S
C1026 C1025 1.362 . S
C1026 C1029 1.409 . S
C1027 H1019 0.930 . S
C1027 C1028 1.355 . S
C1027 C1029 1.415 . S
C1028 C1027 1.355 . S
C1028 C1030 1.419 . S
C1029 C1024 1.425 . S
C1029 C1026 1.409 . S
C1029 C1027 1.415 . S
C1030 H1020 0.930 . S
C1030 C1028 1.419 . S
C1030 C1031 1.362 . S
C1031 H1021 0.930 . S
C1031 C1024 1.409 . S
C1031 C1030 1.362 . S
H1032 C1038 0.930 . S
H1033 C1041 0.930 . S
H1034 C1042 0.930 . S
H1035 C1043 0.930 . S
H1036 C1046 0.930 . S
H1037 C1047 0.930 . S
C1038 H1032 0.930 . S
C1038 C1039 1.355 . S
C1038 C1040 1.415 . S
C1039 C1038 1.355 . S
C1039 C1041 1.419 . S
C1040 C1038 1.415 . S
C1040 C1045 1.425 . S
C1040 C1047 1.409 . S
C1041 H1033 0.930 . S
C1041 C1039 1.419 . S
C1041 C1042 1.362 . S
C1042 H1034 0.930 . S
C1042 C1041 1.362 . S
C1042 C1045 1.409 . S
C1043 H1035 0.930 . S
C1043 C1044 1.355 . S
C1043 C1045 1.415 . S
C1044 C1043 1.355 . S
C1044 C1046 1.419 . S
C1045 C1040 1.425 . S
C1045 C1042 1.409 . S
C1045 C1043 1.415 . S
C1046 H1036 0.930 . S
C1046 C1044 1.419 . S
C1046 C1047 1.362 . S
C1047 H1037 0.930 . S
C1047 C1040 1.409 . S
C1047 C1046 1.362 . S
H1048 C1054 0.930 . S
H1049 C1057 0.930 . S
H1050 C1058 0.930 . S
H1051 C1059 0.930 . S
H1052 C1062 0.930 . S
H1053 C1063 0.930 . S
C1054 H1048 0.930 . S
C1054 C1055 1.355 . S
C1054 C1056 1.415 . S
C1055 C1054 1.355 . S
C1055 C1057 1.419 . S
C1056 C1054 1.415 . S
C1056 C1061 1.425 . S
C1056 C1063 1.409 . S
C1057 H1049 0.930 . S
C1057 C1055 1.419 . S
C1057 C1058 1.362 . S
C1058 H1050 0.930 . S
C1058 C1057 1.362 . S
C1058 C1061 1.409 . S
C1059 H1051 0.930 . S
C1059 C1060 1.355 . S
C1059 C1061 1.415 . S
C1060 C1059 1.355 . S
C1060 C1062 1.419 . S
C1061 C1056 1.425 . S
C1061 C1058 1.409 . S
C1061 C1059 1.415 . S
C1062 H1052 0.930 . S
C1062 C1060 1.419 . S
C1062 C1063 1.362 . S
C1063 H1053 0.930 . S
C1063 C1056 1.409 . S
C1063 C1062 1.362 . S
H1064 C1070 0.930 . S
H1065 C1073 0.930 . S
H1066 C1074 0.930 . S
H1067 C1075 0.930 . S
H1068 C1078 0.930 . S
H1069 C1079 0.930 . S
C1070 H1064 0.930 . S
C1070 C1071 1.355 . S
C1070 C1072 1.415 . S
C1071 C1070 1.355 . S
C1071 C1073 1.419 . S
C1072 C1070 1.415 . S
C1072 C1077 1.425 . S
C1072 C1079 1.409 . S
C1073 H1065 0.930 . S
C1073 C1071 1.419 . S
C1073 C1074 1.362 . S
C1074 H1066 0.930 . S
C1074 C1073 1.362 . S
C1074 C1077 1.409 . S
C1075 H1067 0.930 . S
C1075 C1076 1.355 . S
C1075 C1077 1.415 . S
C1076 C1075 1.355 . S
C1076 C1078 1.419 . S
C1077 C1072 1.425 . S
C1077 C1074 1.409 . S
C1077 C1075 1.415 . S
C1078 H1068 0.930 . S
C1078 C1076 1.419 . S
C1078 C1079 1.362 . S
C1079 H1069 0.930 . S
C1079 C1072 1.409 . S
C1079 C1078 1.362 . S
H1080 C1086 0.930 . S
H1081 C1089 0.930 . S
H1082 C1090 0.930 . S
H1083 C1091 0.930 . S
H1084 C1094 0.930 . S
H1085 C1095 0.930 . S
C1086 H1080 0.930 . S
C1086 C1087 1.355 . S
C1086 C1088 1.415 . S
C1087 C1086 1.355 . S
C1087 C1089 1.419 . S
C1088 C1086 1.415 . S
C1088 C1093 1.425 . S
C1088 C1095 1.409 1_554 S
C1089 H1081 0.930 . S
C1089 C1087 1.419 . S
C1089 C1090 1.362 . S
C1090 H1082 0.930 . S
C1090 C1089 1.362 . S
C1090 C1093 1.409 . S
C1091 H1083 0.930 . S
C1091 C1092 1.355 . S
C1091 C1093 1.415 . S
C1092 C1091 1.355 . S
C1092 C1094 1.419 1_554 S
C1093 C1088 1.425 . S
C1093 C1090 1.409 . S
C1093 C1091 1.415 . S
C1094 H1084 0.930 . S
C1094 C1092 1.419 1_556 S
C1094 C1095 1.362 . S
C1095 H1085 0.930 . S
C1095 C1088 1.409 1_556 S
C1095 C1094 1.362 . S
H1096 C1102 0.930 . S
H1097 C1105 0.930 . S
H1098 C1106 0.930 . S
H1099 C1107 0.930 . S
H1100 C1110 0.930 . S
H1101 C1111 0.930 . S
C1102 H1096 0.930 . S
C1102 C1103 1.355 1_565 S
C1102 C1104 1.415 . S
C1103 C1102 1.355 1_545 S
C1103 C1105 1.419 . S
C1104 C1102 1.415 . S
C1104 C1109 1.425 . S
C1104 C1111 1.409 . S
C1105 H1097 0.930 . S
C1105 C1103 1.419 . S
C1105 C1106 1.362 . S
C1106 H1098 0.930 . S
C1106 C1105 1.362 . S
C1106 C1109 1.409 1_545 S
C1107 H1099 0.930 . S
C1107 C1108 1.355 . S
C1107 C1109 1.415 . S
C1108 C1107 1.355 . S
C1108 C1110 1.419 . S
C1109 C1104 1.425 . S
C1109 C1106 1.409 1_565 S
C1109 C1107 1.415 . S
C1110 H1100 0.930 . S
C1110 C1108 1.419 . S
C1110 C1111 1.362 . S
C1111 H1101 0.930 . S
C1111 C1104 1.409 . S
C1111 C1110 1.362 . S
C356 C187 1.496 . S
C351 C60 1.554 . S
C372 C195 1.123 . S
C367 C76 1.375 . S
C383 C81 1.619 . S
C388 C215 1.619 . S
C404 C229 1.533 . S
C399 C48 1.585 . S
C420 C244 1.524 . S
C415 C115 1.528 . S
C436 C258 1.613 . S
C431 C136 1.611 . S
C447 C131 1.419 . S
C452 C272 1.419 . S
C468 C278 1.493 . S
C463 C104 1.525 . S
C479 C126 1.520 . S
C484 C292 1.528 . S
C500 C313 1.458 . S
C495 C103 1.452 . S
C511 C120 1.389 . S
C516 C293 1.104 . S
C532 C314 1.449 . S
C527 C142 1.442 . S
C543 C82 1.497 . S
C548 C321 1.288 . S
C559 C54 1.753 . S
C564 C327 1.709 . S
C575 C65 1.418 . S
C580 C320 1.362 . S
C591 C71 1.264 . S
C596 C328 1.275 . S
C607 C37 1.572 . S
C612 C222 1.554 . S
C623 C158 1.879 . S
C628 C223 1.726 . S
C644 C180 1.340 . S
C639 C169 1.418 1_565 S
C660 C201 1.265 . S
C655 C98 1.294 . S
C671 C49 1.673 . S
C676 C236 1.688 . S
C692 C286 1.461 . S
C687 C125 1.460 . S
C708 C237 1.236 . S
C703 C109 1.358 . S
C724 C265 1.506 . S
C719 C137 1.779 . S
C740 C271 1.536 . S
C735 C159 1.549 . S
C751 C175 1.357 . S
C756 C279 1.056 . S
C767 C92 1.613 . S
C772 C243 1.600 . S
C788 C257 1.542 . S
C783 C147 1.576 . S
C799 C38 1.519 . S
C804 C216 1.518 . S
C820 C230 1.612 . S
C815 C4 1.609 . S
C836 C188 1.413 . S
C831 C21 1.418 . S
C852 C194 1.453 . S
C847 C27 1.510 . S
C863 C16 1.526 . S
C868 C306 1.532 . S
C879 C26 1.452 . S
C884 C299 1.453 . S
C895 C43 1.401 . S
C900 C307 1.259 . S
C911 C10 1.440 1_556 S
C916 C300 1.455 . S
C932 C335 1.139 . S
C927 C93 1.469 . S
C948 C341 1.742 . S
C943 C153 1.747 . S
C964 C334 1.333 . S
C959 C164 1.394 . S
C975 C170 1.277 1_554 S
C980 C342 1.274 . S
C991 C114 1.565 . S
C996 C250 1.516 . S
C1012 C251 1.727 . S
C1007 C59 1.878 . S
C1028 C264 1.366 . S
C1023 C70 1.414 . S
C1044 C285 1.290 . S
C1039 C87 1.253 . S
C1055 C148 1.675 . S
C1060 C208 1.688 . S
C1076 C202 1.462 . S
C1071 C15 1.463 . S
C1087 C32 1.351 . S
C1092 C209 1.158 . S
C1108 C181 1.405 . S
C1103 C5 1.774 . S
