# Generated by pormake.
# Topology ssb, (4,4)-cn, num edge types: 1
# Building blocks:
#     Node 0, Type 0, BuildingBlock: MUDLON_clean_linker_0, # of connection points: 4
#     Node 1, Type 0, BuildingBlock: MUDLON_clean_linker_0, # of connection points: 4
#     Node 2, Type 0, BuildingBlock: MUDLON_clean_linker_0, # of connection points: 4
#     Node 3, Type 0, BuildingBlock: MUDLON_clean_linker_0, # of connection points: 4
#     Node 4, Type 0, BuildingBlock: MUDLON_clean_linker_0, # of connection points: 4
#     Node 5, Type 0, BuildingBlock: MUDLON_clean_linker_0, # of connection points: 4
#     Node 6, Type 0, BuildingBlock: MUDLON_clean_linker_0, # of connection points: 4
#     Node 7, Type 0, BuildingBlock: MUDLON_clean_linker_0, # of connection points: 4
#     Node 8, Type 1, BuildingBlock: KOZSID_clean_sbu_0, # of connection points: 4
#     Node 9, Type 1, BuildingBlock: KOZSID_clean_sbu_0, # of connection points: 4
#     Node 10, Type 1, BuildingBlock: KOZSID_clean_sbu_0, # of connection points: 4
#     Node 11, Type 1, BuildingBlock: KOZSID_clean_sbu_0, # of connection points: 4
#     Node 12, Type 1, BuildingBlock: KOZSID_clean_sbu_0, # of connection points: 4
#     Node 13, Type 1, BuildingBlock: KOZSID_clean_sbu_0, # of connection points: 4
#     Node 14, Type 1, BuildingBlock: KOZSID_clean_sbu_0, # of connection points: 4
#     Node 15, Type 1, BuildingBlock: KOZSID_clean_sbu_0, # of connection points: 4
#     Edge 16, Type (0, 1), BuildingBlock: CIFDUS_clean_linker_0, # of connection points: 2
#     Edge 17, Type (0, 1), BuildingBlock: CIFDUS_clean_linker_0, # of connection points: 2
#     Edge 18, Type (0, 1), BuildingBlock: CIFDUS_clean_linker_0, # of connection points: 2
#     Edge 19, Type (0, 1), BuildingBlock: CIFDUS_clean_linker_0, # of connection points: 2
#     Edge 20, Type (0, 1), BuildingBlock: CIFDUS_clean_linker_0, # of connection points: 2
#     Edge 21, Type (0, 1), BuildingBlock: CIFDUS_clean_linker_0, # of connection points: 2
#     Edge 22, Type (0, 1), BuildingBlock: CIFDUS_clean_linker_0, # of connection points: 2
#     Edge 23, Type (0, 1), BuildingBlock: CIFDUS_clean_linker_0, # of connection points: 2
#     Edge 24, Type (0, 1), BuildingBlock: CIFDUS_clean_linker_0, # of connection points: 2
#     Edge 25, Type (0, 1), BuildingBlock: CIFDUS_clean_linker_0, # of connection points: 2
#     Edge 26, Type (0, 1), BuildingBlock: CIFDUS_clean_linker_0, # of connection points: 2
#     Edge 27, Type (0, 1), BuildingBlock: CIFDUS_clean_linker_0, # of connection points: 2
#     Edge 28, Type (0, 1), BuildingBlock: CIFDUS_clean_linker_0, # of connection points: 2
#     Edge 29, Type (0, 1), BuildingBlock: CIFDUS_clean_linker_0, # of connection points: 2
#     Edge 30, Type (0, 1), BuildingBlock: CIFDUS_clean_linker_0, # of connection points: 2
#     Edge 31, Type (0, 1), BuildingBlock: CIFDUS_clean_linker_0, # of connection points: 2
#     Edge 32, Type (0, 1), BuildingBlock: CIFDUS_clean_linker_0, # of connection points: 2
#     Edge 33, Type (0, 1), BuildingBlock: CIFDUS_clean_linker_0, # of connection points: 2
#     Edge 34, Type (0, 1), BuildingBlock: CIFDUS_clean_linker_0, # of connection points: 2
#     Edge 35, Type (0, 1), BuildingBlock: CIFDUS_clean_linker_0, # of connection points: 2
#     Edge 36, Type (0, 1), BuildingBlock: CIFDUS_clean_linker_0, # of connection points: 2
#     Edge 37, Type (0, 1), BuildingBlock: CIFDUS_clean_linker_0, # of connection points: 2
#     Edge 38, Type (0, 1), BuildingBlock: CIFDUS_clean_linker_0, # of connection points: 2
#     Edge 39, Type (0, 1), BuildingBlock: CIFDUS_clean_linker_0, # of connection points: 2
#     Edge 40, Type (0, 1), BuildingBlock: CIFDUS_clean_linker_0, # of connection points: 2
#     Edge 41, Type (0, 1), BuildingBlock: CIFDUS_clean_linker_0, # of connection points: 2
#     Edge 42, Type (0, 1), BuildingBlock: CIFDUS_clean_linker_0, # of connection points: 2
#     Edge 43, Type (0, 1), BuildingBlock: CIFDUS_clean_linker_0, # of connection points: 2
#     Edge 44, Type (0, 1), BuildingBlock: CIFDUS_clean_linker_0, # of connection points: 2
#     Edge 45, Type (0, 1), BuildingBlock: CIFDUS_clean_linker_0, # of connection points: 2
#     Edge 46, Type (0, 1), BuildingBlock: CIFDUS_clean_linker_0, # of connection points: 2
#     Edge 47, Type (0, 1), BuildingBlock: CIFDUS_clean_linker_0, # of connection points: 2
# Relax obj value: 0.004
# Max RMSD: 0.060
# Mean RMSD: 0.025
data_MOF--net-ssb--node1-KOZSID_clean_sbu_0--node2-MUDLON_clean_linker_0--edge1-CIFDUS_clean_linker_0
_symmetry_space_group_name_H-M    P1
_symmetry_Int_Tables_number       1
_symmetry_cell_setting            triclinic
loop_
_symmetry_equiv_pos_as_xyz
'x, y, z'
_cell_length_a     64.083302
_cell_length_b     64.005772
_cell_length_c     47.237851
_cell_angle_alpha  92.378249
_cell_angle_beta   94.694816
_cell_angle_gamma 89.973039
loop_
_atom_site_label
_atom_site_type_symbol
_atom_site_fract_x
_atom_site_fract_y
_atom_site_fract_z
_atom_type_partial_charge
H0 H 0.26752 0.30785 0.15838 0.0
N1 N 0.29829 0.29106 0.19126 0.0
H2 H 0.26536 0.34417 0.14365 0.0
H3 H 0.32054 0.32399 0.21721 0.0
H4 H 0.31891 0.36011 0.20192 0.0
H5 H 0.33551 0.28803 0.22341 0.0
H6 H 0.36998 0.28213 0.20528 0.0
H7 H 0.30614 0.28035 0.13832 0.0
H8 H 0.34035 0.27414 0.12002 0.0
H9 H 0.28899 0.25067 0.19059 0.0
H10 H 0.29034 0.30657 0.24486 0.0
H11 H 0.27448 0.23109 0.22745 0.0
H12 H 0.27438 0.28744 0.28122 0.0
H13 H 0.18805 0.21667 0.31591 0.0
H14 H 0.15886 0.23245 0.3396 0.0
H15 H 0.2016 0.25123 0.41159 0.0
H16 H 0.23073 0.23572 0.38749 0.0
H17 H 0.26144 0.21319 0.37641 0.0
H18 H 0.27237 0.18449 0.40678 0.0
H19 H 0.22304 0.14574 0.36453 0.0
H20 H 0.21276 0.17437 0.33375 0.0
H21 H 0.22504 0.20746 0.28112 0.0
H22 H 0.24319 0.2266 0.24696 0.0
H23 H 0.27656 0.26228 0.31622 0.0
N24 N 0.22757 0.21316 0.33707 0.0
H25 H 0.2571 0.24373 0.35008 0.0
C26 C 0.29423 0.31314 0.18866 0.0
C27 C 0.27826 0.31938 0.16875 0.0
C28 C 0.2771 0.34009 0.16029 0.0
C29 C 0.29215 0.35486 0.17138 0.0
C30 C 0.30725 0.34896 0.19283 0.0
C31 C 0.30815 0.32834 0.20164 0.0
C32 C 0.31832 0.28462 0.18209 0.0
C33 C 0.33649 0.28466 0.20091 0.0
C34 C 0.35614 0.28126 0.19052 0.0
C35 C 0.35791 0.2779 0.16116 0.0
C36 C 0.33956 0.27702 0.14266 0.0
C37 C 0.32001 0.28035 0.15306 0.0
C38 C 0.29064 0.28012 0.21459 0.0
C39 C 0.28607 0.25874 0.21048 0.0
C40 C 0.27751 0.24761 0.23157 0.0
C41 C 0.27275 0.25765 0.25734 0.0
C42 C 0.27789 0.27904 0.26183 0.0
C43 C 0.2869 0.29013 0.24081 0.0
C44 C 0.21143 0.22487 0.35001 0.0
C45 C 0.19112 0.22458 0.33655 0.0
C46 C 0.17452 0.23361 0.35007 0.0
C47 C 0.17794 0.24293 0.37753 0.0
C48 C 0.19849 0.24396 0.39055 0.0
C49 C 0.21514 0.23516 0.3768 0.0
C50 C 0.23634 0.19585 0.35258 0.0
C51 C 0.25331 0.19839 0.37324 0.0
C52 C 0.25939 0.18197 0.39085 0.0
C53 C 0.24854 0.16273 0.38833 0.0
C54 C 0.23202 0.16012 0.36692 0.0
C55 C 0.22606 0.17648 0.3493 0.0
C56 C 0.23997 0.22385 0.31805 0.0
C57 C 0.23643 0.21929 0.28885 0.0
C58 C 0.24699 0.23023 0.26937 0.0
C59 C 0.2617 0.24594 0.27862 0.0
C60 C 0.26531 0.25044 0.30813 0.0
C61 C 0.25442 0.23961 0.32764 0.0
H62 H 0.72034 0.33328 0.21705 0.0
N63 N 0.73654 0.29497 0.20264 0.0
H64 H 0.72875 0.3665 0.19817 0.0
H65 H 0.76453 0.30223 0.1657 0.0
H66 H 0.77167 0.33534 0.14429 0.0
H67 H 0.72305 0.27386 0.15531 0.0
H68 H 0.68675 0.26747 0.13681 0.0
H69 H 0.70185 0.30326 0.23144 0.0
H70 H 0.66543 0.29766 0.21273 0.0
H71 H 0.7405 0.31896 0.25303 0.0
H72 H 0.75123 0.25761 0.21577 0.0
H73 H 0.7565 0.30841 0.29817 0.0
H74 H 0.76614 0.24633 0.26187 0.0
H75 H 0.81239 0.25589 0.44692 0.0
H76 H 0.84745 0.26371 0.46853 0.0
H77 H 0.86783 0.27519 0.38552 0.0
H78 H 0.83334 0.26615 0.36403 0.0
H79 H 0.82869 0.22089 0.38011 0.0
H80 H 0.82684 0.18404 0.39144 0.0
H81 H 0.76603 0.19445 0.42258 0.0
H82 H 0.76807 0.23147 0.41144 0.0
H83 H 0.76931 0.27838 0.38308 0.0
H84 H 0.75249 0.28869 0.3375 0.0
H85 H 0.79575 0.24956 0.29377 0.0
N86 N 0.80016 0.25121 0.39206 0.0
H87 H 0.81143 0.23846 0.33931 0.0
C88 C 0.7422 0.31521 0.19325 0.0
C89 C 0.73208 0.3336 0.2019 0.0
C90 C 0.73663 0.35267 0.19055 0.0
C91 C 0.75072 0.35375 0.1693 0.0
C92 C 0.761 0.33532 0.16091 0.0
C93 C 0.75686 0.31632 0.17296 0.0
C94 C 0.71513 0.2891 0.19453 0.0
C95 C 0.7105 0.2787 0.16813 0.0
C96 C 0.68977 0.27528 0.15752 0.0
C97 C 0.67318 0.28237 0.17308 0.0
C98 C 0.67784 0.29194 0.20024 0.0
C99 C 0.69865 0.29526 0.21091 0.0
C100 C 0.74496 0.28914 0.2305 0.0
C101 C 0.74614 0.30314 0.25436 0.0
C102 C 0.75517 0.29696 0.28059 0.0
C103 C 0.76279 0.27651 0.28386 0.0
C104 C 0.76096 0.26237 0.26014 0.0
C105 C 0.75226 0.26869 0.23379 0.0
C106 C 0.81997 0.26007 0.40384 0.0
C107 C 0.82436 0.26043 0.43345 0.0
C108 C 0.84447 0.265 0.44579 0.0
C109 C 0.86071 0.2698 0.42878 0.0
C110 C 0.85594 0.27093 0.39926 0.0
C111 C 0.83592 0.26591 0.38687 0.0
C112 C 0.79855 0.22898 0.39535 0.0
C113 C 0.81484 0.21522 0.38903 0.0
C114 C 0.8138 0.19419 0.39555 0.0
C115 C 0.79636 0.18649 0.40802 0.0
C116 C 0.77959 0.19998 0.4128 0.0
C117 C 0.78075 0.22108 0.4066 0.0
C118 C 0.79173 0.25792 0.36468 0.0
C119 C 0.77514 0.27215 0.36358 0.0
C120 C 0.76564 0.27808 0.33746 0.0
C121 C 0.77275 0.27004 0.31176 0.0
C122 C 0.78954 0.25582 0.31298 0.0
C123 C 0.79875 0.24962 0.33911 0.0
H124 H 0.81049 0.80064 0.38838 0.0
N125 N 0.80473 0.81889 0.3369 0.0
H126 H 0.84385 0.79205 0.41359 0.0
H127 H 0.84255 0.82104 0.31772 0.0
H128 H 0.87626 0.81337 0.34333 0.0
H129 H 0.81267 0.85917 0.33187 0.0
H130 H 0.80209 0.88855 0.36215 0.0
H131 H 0.77658 0.817 0.37729 0.0
H132 H 0.76572 0.84636 0.40777 0.0
H133 H 0.7967 0.77787 0.34948 0.0
H134 H 0.78027 0.82573 0.29004 0.0
H135 H 0.77456 0.75309 0.32106 0.0
H136 H 0.75674 0.80126 0.26227 0.0
H137 H 0.6943 0.67778 0.22257 0.0
H138 H 0.70378 0.6475 0.19311 0.0
H139 H 0.75187 0.68427 0.15948 0.0
H140 H 0.74183 0.71449 0.18817 0.0
H141 H 0.7044 0.72741 0.16681 0.0
H142 H 0.67264 0.73979 0.1414 0.0
H143 H 0.64199 0.74205 0.2198 0.0
H144 H 0.67358 0.72796 0.24452 0.0
H145 H 0.71865 0.71721 0.27824 0.0
H146 H 0.74096 0.74219 0.30707 0.0
H147 H 0.75495 0.77266 0.23072 0.0
N148 N 0.70898 0.71655 0.2225 0.0
H149 H 0.73138 0.74848 0.20256 0.0
C150 C 0.824 0.81133 0.35092 0.0
C151 C 0.82472 0.80306 0.37812 0.0
C152 C 0.8439 0.79836 0.39268 0.0
C153 C 0.86287 0.80218 0.38069 0.0
C154 C 0.86204 0.80993 0.35315 0.0
C155 C 0.84279 0.81439 0.33846 0.0
C156 C 0.79548 0.83597 0.35233 0.0
C157 C 0.80206 0.85638 0.34802 0.0
C158 C 0.79594 0.87314 0.36534 0.0
C159 C 0.78311 0.86983 0.38752 0.0
C160 C 0.77582 0.84942 0.39111 0.0
C161 C 0.78191 0.83263 0.37363 0.0
C162 C 0.79048 0.80388 0.32183 0.0
C163 C 0.7882 0.78328 0.33052 0.0
C164 C 0.77522 0.76898 0.31417 0.0
C165 C 0.76377 0.77495 0.28905 0.0
C166 C 0.76562 0.79576 0.28097 0.0
C167 C 0.7789 0.80993 0.29704 0.0
C168 C 0.7173 0.69844 0.20789 0.0
C169 C 0.70713 0.67915 0.2092 0.0
C170 C 0.71264 0.66184 0.19236 0.0
C171 C 0.72856 0.66339 0.17371 0.0
C172 C 0.73931 0.68255 0.17321 0.0
C173 C 0.73371 0.6999 0.18998 0.0
C174 C 0.69122 0.72627 0.20755 0.0
C175 C 0.69086 0.7305 0.17854 0.0
C176 C 0.67261 0.7379 0.16405 0.0
C177 C 0.65444 0.74184 0.17834 0.0
C178 C 0.65535 0.7387 0.20777 0.0
C179 C 0.67347 0.73085 0.22208 0.0
C180 C 0.72359 0.73071 0.23829 0.0
C181 C 0.72667 0.72924 0.26782 0.0
C182 C 0.73958 0.74353 0.28424 0.0
C183 C 0.75001 0.75958 0.27142 0.0
C184 C 0.74702 0.76083 0.2416 0.0
C185 C 0.73378 0.74674 0.22527 0.0
H186 H 0.31102 0.75991 0.10685 0.0
N187 N 0.29884 0.74382 0.15351 0.0
H188 H 0.34685 0.76528 0.09451 0.0
H189 H 0.33447 0.73873 0.18878 0.0
H190 H 0.37024 0.74497 0.17734 0.0
H191 H 0.30851 0.7126 0.18995 0.0
H192 H 0.30174 0.67527 0.18027 0.0
H193 H 0.27646 0.72636 0.1092 0.0
H194 H 0.2688 0.68917 0.09969 0.0
H195 H 0.26618 0.76751 0.13938 0.0
H196 H 0.30598 0.74823 0.21145 0.0
H197 H 0.24544 0.78854 0.17091 0.0
H198 H 0.28633 0.77023 0.24308 0.0
H199 H 0.19743 0.86939 0.28315 0.0
H200 H 0.21137 0.90003 0.31073 0.0
H201 H 0.26607 0.86455 0.33915 0.0
H202 H 0.25136 0.83369 0.31247 0.0
H203 H 0.22044 0.8157 0.33419 0.0
H204 H 0.19389 0.80249 0.36316 0.0
H205 H 0.14667 0.81015 0.29369 0.0
H206 H 0.17341 0.82369 0.26494 0.0
H207 H 0.22354 0.83957 0.22958 0.0
H208 H 0.2457 0.81918 0.19923 0.0
H209 H 0.25444 0.77326 0.2638 0.0
N210 N 0.21343 0.83129 0.28113 0.0
H211 H 0.23347 0.79444 0.29456 0.0
C212 C 0.32001 0.74915 0.14871 0.0
C213 C 0.32393 0.75694 0.12242 0.0
C214 C 0.34443 0.76008 0.11552 0.0
C215 C 0.36152 0.75559 0.13496 0.0
C216 C 0.3575 0.74835 0.16172 0.0
C217 C 0.33695 0.74503 0.16847 0.0
C218 C 0.29319 0.72212 0.15 0.0
C219 C 0.29979 0.70759 0.17029 0.0
C220 C 0.29574 0.68626 0.16481 0.0
C221 C 0.28493 0.67921 0.13904 0.0
C222 C 0.27755 0.69401 0.11946 0.0
C223 C 0.28174 0.71524 0.12489 0.0
C224 C 0.28776 0.75663 0.17293 0.0
C225 C 0.27063 0.76816 0.16203 0.0
C226 C 0.25891 0.78028 0.18012 0.0
C227 C 0.26428 0.78133 0.20965 0.0
C228 C 0.28157 0.76969 0.22054 0.0
C229 C 0.29308 0.75728 0.20238 0.0
C230 C 0.22333 0.84939 0.2956 0.0
C231 C 0.21253 0.86837 0.29511 0.0
C232 C 0.22065 0.88589 0.31075 0.0
C233 C 0.23995 0.88487 0.32713 0.0
C234 C 0.25107 0.86587 0.32705 0.0
C235 C 0.24277 0.84824 0.31159 0.0
C236 C 0.19881 0.82078 0.29736 0.0
C237 C 0.20446 0.81423 0.32501 0.0
C238 C 0.18926 0.80658 0.34153 0.0
C239 C 0.16815 0.80543 0.33078 0.0
C240 C 0.16276 0.81112 0.30269 0.0
C241 C 0.17798 0.8187 0.28618 0.0
C242 C 0.22649 0.81847 0.26407 0.0
C243 C 0.23032 0.82511 0.23711 0.0
C244 C 0.24287 0.81332 0.21975 0.0
C245 C 0.25171 0.79436 0.22883 0.0
C246 C 0.24811 0.78785 0.25613 0.0
C247 C 0.23581 0.79988 0.2737 0.0
H248 H 0.22723 0.84322 0.68668 0.0
N249 N 0.24191 0.80457 0.67106 0.0
H250 H 0.23468 0.87613 0.66509 0.0
H251 H 0.27168 0.81152 0.63651 0.0
H252 H 0.27967 0.84454 0.61521 0.0
H253 H 0.22823 0.78702 0.62111 0.0
H254 H 0.19189 0.78178 0.60188 0.0
H255 H 0.20714 0.81239 0.69963 0.0
H256 H 0.17061 0.80762 0.68043 0.0
H257 H 0.25288 0.8265 0.7218 0.0
H258 H 0.24784 0.76459 0.68226 0.0
H259 H 0.26661 0.8119 0.76612 0.0
H260 H 0.26015 0.74961 0.72718 0.0
H261 H 0.31571 0.75215 0.91001 0.0
H262 H 0.35228 0.75816 0.9266 0.0
H263 H 0.36743 0.76276 0.83947 0.0
H264 H 0.33149 0.75499 0.82316 0.0
H265 H 0.32225 0.71096 0.85067 0.0
H266 H 0.31613 0.67782 0.87226 0.0
H267 H 0.25684 0.70119 0.89784 0.0
H268 H 0.26412 0.73486 0.87826 0.0
H269 H 0.27488 0.78011 0.84986 0.0
H270 H 0.25966 0.794 0.80545 0.0
H271 H 0.28866 0.74386 0.75854 0.0
N272 N 0.29914 0.7467 0.85669 0.0
H273 H 0.3025 0.72947 0.80334 0.0
C274 C 0.24893 0.82482 0.66316 0.0
C275 C 0.239 0.84344 0.67155 0.0
C276 C 0.24334 0.86231 0.6592 0.0
C277 C 0.25762 0.86299 0.63813 0.0
C278 C 0.26833 0.84454 0.63099 0.0
C279 C 0.26399 0.8257 0.64336 0.0
C280 C 0.22035 0.80003 0.66168 0.0
C281 C 0.21568 0.79128 0.63424 0.0
C282 C 0.19493 0.7885 0.62324 0.0
C283 C 0.17833 0.79448 0.63951 0.0
C284 C 0.18303 0.80273 0.66741 0.0
C285 C 0.20387 0.80553 0.6784 0.0
C286 C 0.24948 0.79665 0.6983 0.0
C287 C 0.25452 0.80973 0.72257 0.0
C288 C 0.26223 0.80124 0.74825 0.0
C289 C 0.26464 0.77943 0.7506 0.0
C290 C 0.25909 0.76645 0.72635 0.0
C291 C 0.25181 0.77498 0.7006 0.0
C292 C 0.32054 0.75299 0.86539 0.0
C293 C 0.32695 0.75459 0.89453 0.0
C294 C 0.34794 0.7582 0.90398 0.0
C295 C 0.36311 0.76086 0.88447 0.0
C296 C 0.35647 0.76023 0.85526 0.0
C297 C 0.33558 0.75601 0.8458 0.0
C298 C 0.29383 0.72562 0.86349 0.0
C299 C 0.30786 0.70886 0.86074 0.0
C300 C 0.30422 0.68977 0.87301 0.0
C301 C 0.28617 0.68676 0.8876 0.0
C302 C 0.27131 0.70302 0.88787 0.0
C303 C 0.27523 0.72224 0.87626 0.0
C304 C 0.28987 0.7539 0.82992 0.0
C305 C 0.27772 0.77208 0.82992 0.0
C306 C 0.26924 0.78011 0.80438 0.0
C307 C 0.27301 0.77031 0.77802 0.0
C308 C 0.28504 0.7518 0.7782 0.0
C309 C 0.29314 0.74355 0.80385 0.0
H310 H 0.3146 0.27272 0.93649 0.0
N311 N 0.29688 0.29602 0.89613 0.0
H312 H 0.352 0.2655 0.94663 0.0
H313 H 0.32862 0.30748 0.8641 0.0
H314 H 0.36572 0.30052 0.87412 0.0
H315 H 0.29933 0.32804 0.85984 0.0
H316 H 0.29387 0.36501 0.87112 0.0
H317 H 0.28278 0.31274 0.94307 0.0
H318 H 0.27561 0.34956 0.95396 0.0
H319 H 0.26304 0.27474 0.90583 0.0
H320 H 0.30025 0.29212 0.83855 0.0
H321 H 0.2386 0.25615 0.87115 0.0
H322 H 0.27653 0.2729 0.80388 0.0
H323 H 0.18355 0.17905 0.74193 0.0
H324 H 0.19784 0.15142 0.71199 0.0
H325 H 0.25111 0.19078 0.70071 0.0
H326 H 0.2362 0.21856 0.72936 0.0
H327 H 0.20121 0.23239 0.70088 0.0
H328 H 0.17314 0.24823 0.67186 0.0
H329 H 0.13345 0.24644 0.74161 0.0
H330 H 0.16146 0.22892 0.76987 0.0
H331 H 0.21116 0.20697 0.80654 0.0
H332 H 0.23576 0.22567 0.84088 0.0
H333 H 0.24215 0.27383 0.78058 0.0
N334 N 0.1988 0.21723 0.75404 0.0
H335 H 0.21833 0.25452 0.74605 0.0
C336 C 0.31871 0.29052 0.89958 0.0
C337 C 0.32571 0.27855 0.9226 0.0
C338 C 0.34704 0.27459 0.92844 0.0
C339 C 0.36181 0.28252 0.91122 0.0
C340 C 0.35472 0.29399 0.88759 0.0
C341 C 0.33339 0.29802 0.88186 0.0
C342 C 0.29197 0.31772 0.901 0.0
C343 C 0.29443 0.33263 0.88053 0.0
C344 C 0.29095 0.35381 0.88691 0.0
C345 C 0.28452 0.36043 0.91364 0.0
C346 C 0.28114 0.34521 0.93348 0.0
C347 C 0.28501 0.32414 0.92726 0.0
C348 C 0.28355 0.28458 0.87494 0.0
C349 C 0.26605 0.27428 0.88358 0.0
C350 C 0.25219 0.2636 0.86372 0.0
C351 C 0.25563 0.2629 0.83467 0.0
C352 C 0.27325 0.27329 0.82601 0.0
C353 C 0.28702 0.28415 0.84593 0.0
C354 C 0.20877 0.20078 0.7382 0.0
C355 C 0.1984 0.18158 0.73317 0.0
C356 C 0.20669 0.16578 0.71618 0.0
C357 C 0.22571 0.16881 0.70396 0.0
C358 C 0.23632 0.18797 0.70947 0.0
C359 C 0.2279 0.20384 0.72621 0.0
C360 C 0.18326 0.22894 0.73744 0.0
C361 C 0.18649 0.23529 0.70998 0.0
C362 C 0.17037 0.24472 0.69346 0.0
C363 C 0.15079 0.24859 0.70417 0.0
C364 C 0.14806 0.24327 0.73228 0.0
C365 C 0.1641 0.23343 0.7486 0.0
C366 C 0.21266 0.22939 0.77396 0.0
C367 C 0.21784 0.22161 0.80088 0.0
C368 C 0.23183 0.23239 0.82047 0.0
C369 C 0.24088 0.25136 0.8136 0.0
C370 C 0.23567 0.25917 0.78651 0.0
C371 C 0.2218 0.24825 0.76681 0.0
H372 H 0.79948 0.25236 0.63137 0.0
N373 N 0.79605 0.2381 0.68275 0.0
H374 H 0.83151 0.26173 0.60999 0.0
H375 H 0.83556 0.24089 0.71019 0.0
H376 H 0.86748 0.25074 0.68939 0.0
H377 H 0.82004 0.20561 0.70288 0.0
H378 H 0.81581 0.16877 0.68817 0.0
H379 H 0.76454 0.22066 0.65003 0.0
H380 H 0.75985 0.18364 0.63555 0.0
H381 H 0.7666 0.26709 0.68602 0.0
H382 H 0.80962 0.23032 0.738 0.0
H383 H 0.75364 0.28367 0.72869 0.0
H384 H 0.79795 0.24767 0.78066 0.0
H385 H 0.72635 0.34193 0.84509 0.0
H386 H 0.73213 0.37626 0.86888 0.0
H387 H 0.78391 0.35129 0.92132 0.0
H388 H 0.77746 0.31678 0.89795 0.0
H389 H 0.73594 0.29072 0.91 0.0
H390 H 0.70111 0.28505 0.92574 0.0
H391 H 0.67349 0.30177 0.84319 0.0
H392 H 0.70857 0.30794 0.82801 0.0
H393 H 0.74725 0.32371 0.80945 0.0
H394 H 0.76026 0.3076 0.76665 0.0
H395 H 0.77109 0.25 0.8103 0.0
N396 N 0.7455 0.3055 0.86105 0.0
H397 H 0.75929 0.26679 0.85342 0.0
C398 C 0.81496 0.24602 0.67236 0.0
C399 C 0.81426 0.25231 0.64423 0.0
C400 C 0.8326 0.25771 0.6321 0.0
C401 C 0.85216 0.25692 0.6479 0.0
C402 C 0.85276 0.25122 0.67643 0.0
C403 C 0.83439 0.24576 0.68851 0.0
C404 C 0.79251 0.21595 0.67757 0.0
C405 C 0.80666 0.20096 0.68859 0.0
C406 C 0.8042 0.1798 0.68012 0.0
C407 C 0.78757 0.17318 0.66046 0.0
C408 C 0.77304 0.18818 0.65032 0.0
C409 C 0.77554 0.2093 0.65879 0.0
C410 C 0.78918 0.24761 0.70864 0.0
C411 C 0.77343 0.2628 0.70669 0.0
C412 C 0.76618 0.2724 0.7312 0.0
C413 C 0.77473 0.26721 0.75844 0.0
C414 C 0.79065 0.25196 0.76025 0.0
C415 C 0.79763 0.24213 0.7357 0.0
C416 C 0.75146 0.32669 0.86988 0.0
C417 C 0.73925 0.34393 0.86124 0.0
C418 C 0.74261 0.36364 0.87488 0.0
C419 C 0.7583 0.36654 0.89739 0.0
C420 C 0.7714 0.34956 0.90453 0.0
C421 C 0.76795 0.32987 0.89097 0.0
C422 C 0.72484 0.29964 0.86792 0.0
C423 C 0.72235 0.29278 0.8952 0.0
C424 C 0.7024 0.28949 0.90408 0.0
C425 C 0.6844 0.29295 0.88576 0.0
C426 C 0.68697 0.2992 0.85799 0.0
C427 C 0.70701 0.30256 0.84915 0.0
C428 C 0.75261 0.29653 0.83494 0.0
C429 C 0.75262 0.30771 0.80993 0.0
C430 C 0.7599 0.29831 0.78524 0.0
C431 C 0.76694 0.2774 0.78476 0.0
C432 C 0.7664 0.26623 0.80977 0.0
C433 C 0.75946 0.27574 0.83447 0.0
H434 H 0.79 0.78969 0.61532 0.0
N435 N 0.80519 0.78169 0.66759 0.0
H436 H 0.78256 0.82403 0.59567 0.0
H437 H 0.8053 0.81942 0.69805 0.0
H438 H 0.79778 0.85345 0.67868 0.0
H439 H 0.84035 0.80309 0.68954 0.0
H440 H 0.87581 0.79777 0.67555 0.0
H441 H 0.81845 0.75117 0.63392 0.0
H442 H 0.85403 0.74621 0.61906 0.0
H443 H 0.77347 0.75565 0.67097 0.0
H444 H 0.81998 0.79176 0.72287 0.0
H445 H 0.75896 0.74376 0.7138 0.0
H446 H 0.80482 0.78143 0.76536 0.0
H447 H 0.71204 0.71523 0.82536 0.0
H448 H 0.67572 0.71832 0.83708 0.0
H449 H 0.69089 0.77618 0.88457 0.0
H450 H 0.72741 0.77281 0.87306 0.0
H451 H 0.75713 0.73524 0.90066 0.0
H452 H 0.76524 0.70219 0.9235 0.0
H453 H 0.75597 0.66913 0.84183 0.0
H454 H 0.74806 0.70224 0.81916 0.0
H455 H 0.72364 0.74529 0.7932 0.0
H456 H 0.73904 0.75471 0.75052 0.0
H457 H 0.80054 0.7548 0.79572 0.0
N458 N 0.74467 0.74055 0.84646 0.0
H459 H 0.78478 0.74685 0.83919 0.0
C460 C 0.79809 0.80181 0.6581 0.0
C461 C 0.79131 0.80354 0.62934 0.0
C462 C 0.7872 0.82311 0.61816 0.0
C463 C 0.78967 0.84136 0.63568 0.0
C464 C 0.79555 0.83961 0.66477 0.0
C465 C 0.79989 0.82004 0.67588 0.0
C466 C 0.82673 0.77724 0.66306 0.0
C467 C 0.84323 0.7901 0.67505 0.0
C468 C 0.86353 0.78713 0.66693 0.0
C469 C 0.86759 0.77158 0.64627 0.0
C470 C 0.85125 0.7583 0.63504 0.0
C471 C 0.83103 0.76105 0.64355 0.0
C472 C 0.79762 0.77474 0.69351 0.0
C473 C 0.78043 0.76112 0.69161 0.0
C474 C 0.77206 0.75453 0.71615 0.0
C475 C 0.78055 0.76173 0.74323 0.0
C476 C 0.79799 0.77523 0.74502 0.0
C477 C 0.80659 0.78144 0.7205 0.0
C478 C 0.72254 0.74372 0.84875 0.0
C479 C 0.70756 0.7287 0.83802 0.0
C480 C 0.68679 0.73049 0.84467 0.0
C481 C 0.68055 0.7474 0.86191 0.0
C482 C 0.69523 0.76307 0.87106 0.0
C483 C 0.71607 0.76116 0.8646 0.0
C484 C 0.75197 0.7212 0.85837 0.0
C485 C 0.75725 0.72088 0.8877 0.0
C486 C 0.76175 0.70203 0.90066 0.0
C487 C 0.76107 0.6831 0.88444 0.0
C488 C 0.75677 0.6835 0.85481 0.0
C489 C 0.75217 0.70239 0.84186 0.0
C490 C 0.75306 0.74533 0.8199 0.0
C491 C 0.74042 0.74734 0.79429 0.0
C492 C 0.74934 0.75258 0.7695 0.0
C493 C 0.7711 0.75556 0.76946 0.0
C494 C 0.78369 0.75311 0.79491 0.0
C495 C 0.77473 0.74834 0.8198 0.0
C496 C 0.04466 0.28381 0.58512 0.0
C497 C 0.05052 0.30311 0.59788 0.0
C498 C 0.04607 0.31777 0.57794 0.0
C499 C 0.03751 0.30674 0.55428 0.0
N500 N 0.036 0.28609 0.55829 0.0
Co501 Co 0.02396 0.26475 0.52997 0.0
N502 N 0.01003 0.28639 0.50653 0.0
C503 C 0.015 0.3068 0.50709 0.0
C504 C 0.00203 0.31785 0.48853 0.0
C505 C 0.98806 0.30342 0.47569 0.0
C506 C 0.99331 0.28439 0.4873 0.0
N507 N 0.01168 0.24359 0.50161 0.0
C508 C 0.9945 0.24515 0.48321 0.0
C509 C 0.99033 0.22627 0.46828 0.0
C510 C 0.00575 0.21265 0.47748 0.0
C511 C 0.01831 0.22385 0.49764 0.0
N512 N 0.03812 0.24294 0.55303 0.0
C513 C 0.04219 0.2233 0.54358 0.0
C514 C 0.05338 0.21193 0.56351 0.0
C515 C 0.05682 0.22529 0.5868 0.0
C516 C 0.04741 0.24422 0.57984 0.0
N517 N 0.99916 0.26266 0.55127 0.0
C518 C 0.96321 0.25915 0.58091 0.0
C519 C 0.97373 0.24132 0.57139 0.0
C520 C 0.99159 0.24341 0.5567 0.0
C521 C 0.97109 0.27883 0.57511 0.0
C522 C 0.98908 0.28024 0.56035 0.0
N523 N 0.04886 0.2666 0.50866 0.0
C524 C 0.06496 0.26354 0.46431 0.0
C525 C 0.08496 0.26323 0.47887 0.0
C526 C 0.0864 0.26603 0.50855 0.0
C527 C 0.06829 0.26752 0.52295 0.0
C528 C 0.04715 0.26545 0.47958 0.0
H529 H 0.07014 0.26868 0.5458 0.0
H530 H 0.03196 0.26517 0.46788 0.0
H531 H 0.99921 0.22938 0.54956 0.0
H532 H 0.99484 0.29555 0.55627 0.0
C533 C 0.02825 0.31547 0.52957 0.0
C534 C 0.05001 0.26362 0.59771 0.0
C535 C 0.98263 0.26458 0.47928 0.0
C536 C 0.03312 0.21538 0.51732 0.0
H537 H 0.05777 0.30623 0.61914 0.0
H538 H 0.04835 0.33451 0.58062 0.0
H539 H 0.00188 0.33457 0.48592 0.0
H540 H 0.97531 0.30653 0.45997 0.0
H541 H 0.97742 0.22246 0.45276 0.0
H542 H 0.00685 0.19621 0.47149 0.0
H543 H 0.05824 0.19577 0.56151 0.0
H544 H 0.06583 0.22158 0.60629 0.0
H545 H 0.96807 0.22578 0.57491 0.0
H546 H 0.96362 0.29305 0.58226 0.0
H547 H 0.06294 0.26145 0.44139 0.0
H548 H 0.10144 0.2666 0.52082 0.0
C549 C 0.75693 0.05101 0.57013 0.0
C550 C 0.73821 0.05857 0.57923 0.0
C551 C 0.72266 0.04655 0.56539 0.0
C552 C 0.73275 0.03237 0.54879 0.0
N553 N 0.75384 0.03434 0.55159 0.0
Co554 Co 0.77458 0.01766 0.53047 0.0
N555 N 0.75167 0.00247 0.5064 0.0
C556 C 0.73081 0.00534 0.50733 0.0
C557 C 0.7189 0.99254 0.48843 0.0
C558 C 0.73297 0.98068 0.47471 0.0
C559 C 0.75273 0.98695 0.48609 0.0
N560 N 0.79539 0.00063 0.50985 0.0
C561 C 0.79231 0.98491 0.48978 0.0
C562 C 0.81114 0.97669 0.48189 0.0
C563 C 0.82668 0.98739 0.49779 0.0
C564 C 0.81652 0.00147 0.5144 0.0
N565 N 0.79748 0.03331 0.55402 0.0
C566 C 0.81836 0.0307 0.55296 0.0
C567 C 0.8302 0.04477 0.57004 0.0
C568 C 0.81607 0.05748 0.58227 0.0
C569 C 0.79635 0.05033 0.57195 0.0
N570 N 0.77449 0.99564 0.55891 0.0
C571 C 0.77475 0.95936 0.59042 0.0
C572 C 0.79341 0.96922 0.5855 0.0
C573 C 0.79292 0.98741 0.57024 0.0
C574 C 0.75591 0.96882 0.58142 0.0
C575 C 0.75614 0.98687 0.56578 0.0
N576 N 0.77469 0.03951 0.50199 0.0
C577 C 0.79381 0.06205 0.47347 0.0
C578 C 0.77587 0.07386 0.46672 0.0
C579 C 0.75705 0.06734 0.47662 0.0
C580 C 0.75677 0.0501 0.49376 0.0
C581 C 0.79292 0.04521 0.49114 0.0
H582 H 0.74197 0.04598 0.50073 0.0
H583 H 0.80729 0.03736 0.49619 0.0
H584 H 0.80768 0.99406 0.56708 0.0
H585 H 0.74128 0.99295 0.55864 0.0
C586 C 0.72288 0.01907 0.52758 0.0
C587 C 0.77706 0.06106 0.57818 0.0
C588 C 0.77196 0.97705 0.47782 0.0
C589 C 0.82634 0.01577 0.53434 0.0
H590 H 0.73604 0.07188 0.59357 0.0
H591 H 0.70595 0.04863 0.5662 0.0
H592 H 0.702 0.99154 0.48552 0.0
H593 H 0.72912 0.96848 0.45857 0.0
H594 H 0.81341 0.96415 0.46638 0.0
H595 H 0.84339 0.98508 0.49742 0.0
H596 H 0.84709 0.04613 0.57247 0.0
H597 H 0.81986 0.0709 0.59644 0.0
H598 H 0.80838 0.96261 0.5928 0.0
H599 H 0.74107 0.96175 0.58511 0.0
H600 H 0.80868 0.06595 0.46563 0.0
H601 H 0.74266 0.07589 0.47211 0.0
C602 C 0.05495 0.81007 0.54436 0.0
C603 C 0.06036 0.82919 0.55788 0.0
C604 C 0.04678 0.84356 0.54638 0.0
C605 C 0.03386 0.83242 0.52667 0.0
N606 N 0.03817 0.81172 0.52519 0.0
Co607 Co 0.02356 0.7898 0.4992 0.0
N608 N 0.00554 0.81133 0.47951 0.0
C609 C 0.00647 0.83232 0.48434 0.0
C610 C 0.99222 0.84308 0.46736 0.0
C611 C 0.98132 0.82808 0.45097 0.0
C612 C 0.98948 0.80894 0.45912 0.0
N613 N 0.00849 0.76782 0.47369 0.0
C614 C 0.99156 0.76949 0.45466 0.0
C615 C 0.98497 0.75007 0.44309 0.0
C616 C 0.99809 0.73562 0.45532 0.0
C617 C 0.01181 0.74694 0.47372 0.0
N618 N 0.04206 0.76837 0.5184 0.0
C619 C 0.04184 0.74748 0.51271 0.0
C620 C 0.05724 0.73695 0.52808 0.0
C621 C 0.06825 0.75205 0.54418 0.0
C622 C 0.05882 0.77098 0.53772 0.0
N623 N 0.00226 0.78642 0.52696 0.0
C624 C 0.96738 0.78087 0.55812 0.0
C625 C 0.97983 0.76391 0.55115 0.0
C626 C 0.99717 0.76702 0.5357 0.0
C627 C 0.97328 0.80078 0.551 0.0
C628 C 0.99086 0.80322 0.53589 0.0
N629 N 0.04464 0.79314 0.47119 0.0
C630 C 0.06701 0.77829 0.43675 0.0
C631 C 0.07391 0.79816 0.43061 0.0
C632 C 0.06619 0.81542 0.44545 0.0
C633 C 0.05177 0.81258 0.46552 0.0
C634 C 0.05244 0.77616 0.45693 0.0
H635 H 0.04664 0.82637 0.47618 0.0
H636 H 0.04767 0.76062 0.46053 0.0
H637 H 0.00574 0.7534 0.53028 0.0
H638 H 0.99447 0.81878 0.53087 0.0
C639 C 0.01942 0.84125 0.50687 0.0
C640 C 0.06706 0.7911 0.54914 0.0
C641 C 0.98064 0.78894 0.44805 0.0
C642 C 0.02747 0.73837 0.49202 0.0
H643 H 0.07324 0.83247 0.57373 0.0
H644 H 0.04693 0.86028 0.5509 0.0
H645 H 0.98956 0.85979 0.46761 0.0
H646 H 0.9684 0.83087 0.43537 0.0
H647 H 0.97175 0.7466 0.4279 0.0
H648 H 0.99737 0.71881 0.45178 0.0
H649 H 0.06044 0.72034 0.52711 0.0
H650 H 0.08198 0.74947 0.5585 0.0
H651 H 0.97571 0.74824 0.55658 0.0
H652 H 0.96402 0.81432 0.55641 0.0
H653 H 0.07251 0.76445 0.4257 0.0
H654 H 0.0714 0.83111 0.44181 0.0
C655 C 0.28083 0.9879 0.56918 0.0
C656 C 0.30006 0.98277 0.58277 0.0
C657 C 0.31428 0.99669 0.5745 0.0
C658 C 0.30297 0.0095 0.55647 0.0
N659 N 0.28239 0.00461 0.55269 0.0
Co660 Co 0.26033 0.01979 0.52899 0.0
N661 N 0.28164 0.03849 0.51397 0.0
C662 C 0.30264 0.03761 0.51964 0.0
C663 C 0.31342 0.05169 0.50527 0.0
C664 C 0.29843 0.06208 0.4892 0.0
C665 C 0.27928 0.0538 0.49491 0.0
N666 N 0.23811 0.03584 0.50682 0.0
C667 C 0.23972 0.05214 0.48965 0.0
C668 C 0.22017 0.05939 0.47968 0.0
C669 C 0.20571 0.04713 0.49075 0.0
C670 C 0.21718 0.03325 0.50694 0.0
N671 N 0.23916 1.00006 0.54224 0.0
C672 C 0.2183 1.00002 0.53503 0.0
C673 C 0.20783 0.98397 0.54603 0.0
C674 C 0.22294 0.97291 0.5609 0.0
C675 C 0.24182 0.98296 0.55819 0.0
N676 N 0.25719 0.03951 0.56206 0.0
C677 C 0.25184 0.06863 0.60726 0.0
C678 C 0.23585 0.05479 0.59742 0.0
C679 C 0.23876 0.04059 0.57491 0.0
C680 C 0.27073 0.06748 0.59456 0.0
C681 C 0.27316 0.05273 0.5724 0.0
N682 N 0.26336 1.0001 0.49615 0.0
C683 C 0.24761 0.98015 0.45544 0.0
C684 C 0.26634 0.96958 0.45221 0.0
C685 C 0.28379 0.97492 0.47071 0.0
C686 C 0.28206 0.99041 0.49216 0.0
C687 C 0.24641 0.99512 0.47749 0.0
H688 H 0.29594 0.99408 0.50552 0.0
H689 H 0.23146 0.00211 0.47938 0.0
H690 H 0.22568 0.03088 0.5682 0.0
H691 H 0.28807 0.05248 0.56394 0.0
C692 C 0.31154 0.02445 0.54011 0.0
C693 C 0.26174 0.97592 0.57168 0.0
C694 C 0.2593 0.06106 0.48181 0.0
C695 C 0.2089 0.01612 0.51958 0.0
H696 H 0.30352 0.97 0.5967 0.0
H697 H 0.33099 0.99695 0.58016 0.0
H698 H 0.33017 0.05427 0.50658 0.0
H699 H 0.30125 0.07445 0.47503 0.0
H700 H 0.21672 0.07205 0.46555 0.0
H701 H 0.18885 0.04786 0.48679 0.0
H702 H 0.19116 0.98084 0.5438 0.0
H703 H 0.22034 0.95912 0.57266 0.0
H704 H 0.22086 0.05529 0.60653 0.0
H705 H 0.28361 0.07785 0.60179 0.0
H706 H 0.23367 0.97633 0.44164 0.0
H707 H 0.29865 0.96715 0.46868 0.0
C708 C 0.55399 0.79091 0.05304 0.0
C709 C 0.56244 0.8101 0.06292 0.0
C710 C 0.55587 0.82442 0.04337 0.0
C711 C 0.54358 0.81334 0.02286 0.0
N712 N 0.54168 0.79299 0.02859 0.0
Co713 Co 0.52501 0.77177 0.00464 0.0
N714 N 0.50939 0.7936 0.98327 0.0
C715 C 0.51519 0.81366 0.98158 0.0
C716 C 0.50072 0.82504 0.96561 0.0
C717 C 0.48486 0.81123 0.95685 0.0
C718 C 0.49056 0.7922 0.96812 0.0
N719 N 0.5084 0.75073 0.98037 0.0
C720 C 0.48956 0.75288 0.96563 0.0
C721 C 0.48267 0.73385 0.95301 0.0
C722 C 0.49801 0.71952 0.95973 0.0
C723 C 0.51324 0.73044 0.97629 0.0
N724 N 0.54053 0.74971 0.02592 0.0
C725 C 0.54183 0.72948 0.01711 0.0
C726 C 0.55451 0.71789 0.03515 0.0
C727 C 0.56198 0.73172 0.05643 0.0
C728 C 0.55335 0.75113 0.05025 0.0
N729 N 0.50367 0.77223 0.03183 0.0
C730 C 0.46861 0.77334 0.06347 0.0
C731 C 0.47706 0.75421 0.0544 0.0
C732 C 0.49466 0.75401 0.03882 0.0
C733 C 0.47894 0.79181 0.0578 0.0
C734 C 0.49637 0.79091 0.04196 0.0
N735 N 0.54628 0.77138 0.9772 0.0
C736 C 0.58245 0.76924 0.96747 0.0
C737 C 0.57682 0.76975 0.93835 0.0
C738 C 0.55568 0.7714 0.92885 0.0
C739 C 0.54059 0.77201 0.94867 0.0
C740 C 0.56701 0.77028 0.98653 0.0
H741 H 0.52431 0.77284 0.94091 0.0
H742 H 0.57193 0.77004 0.00881 0.0
H743 H 0.50042 0.73912 0.03135 0.0
H744 H 0.50343 0.80543 0.03697 0.0
C745 C 0.53154 0.82195 1.00012 0.0
C746 C 0.56021 0.77085 0.06542 0.0
C747 C 0.47839 0.77284 0.96303 0.0
C748 C 0.52935 0.72152 0.99344 0.0
H749 H 0.57277 0.81333 0.08189 0.0
H750 H 0.55932 0.841 0.04432 0.0
H751 H 0.50106 0.84164 0.96209 0.0
H752 H 0.47067 0.81477 0.94391 0.0
H753 H 0.46801 0.73039 0.94078 0.0
H754 H 0.49742 0.70286 0.95476 0.0
H755 H 0.55789 0.70135 0.03316 0.0
H756 H 0.57316 0.72793 0.07384 0.0
H757 H 0.46961 0.73951 0.05812 0.0
H758 H 0.47333 0.80693 0.06494 0.0
H759 H 0.59874 0.76809 0.97546 0.0
H760 H 0.55087 0.77178 0.90635 0.0
C761 C 0.26233 0.55087 0.06676 0.0
C762 C 0.24291 0.55753 0.07441 0.0
C763 C 0.22833 0.54563 0.05831 0.0
C764 C 0.23968 0.53244 0.04186 0.0
N765 N 0.26061 0.53496 0.04692 0.0
Co766 Co 0.28301 0.51981 0.02718 0.0
N767 N 0.26174 0.50512 0.99987 0.0
C768 C 0.2408 0.50821 0.99766 0.0
C769 C 0.23023 0.49511 0.97772 0.0
C770 C 0.24526 0.48266 0.96699 0.0
C771 C 0.26422 0.48894 0.98104 0.0
N772 N 0.30536 0.50396 0.00833 0.0
C773 C 0.30351 0.48774 0.989 0.0
C774 C 0.32289 0.48004 0.9826 0.0
C775 C 0.33756 0.49141 0.99925 0.0
C776 C 0.3263 0.50531 0.01473 0.0
N777 N 0.30432 0.53518 0.05361 0.0
C778 C 0.32539 0.53341 0.05443 0.0
C779 C 0.3359 0.54721 0.0735 0.0
C780 C 0.32063 0.55891 0.08495 0.0
C781 C 0.30169 0.55145 0.07216 0.0
N782 N 0.28168 0.49674 0.05408 0.0
C783 C 0.28013 0.46228 0.08973 0.0
C784 C 0.29866 0.47365 0.08822 0.0
C785 C 0.29914 0.49049 0.07027 0.0
C786 C 0.26233 0.46886 0.07332 0.0
C787 C 0.26338 0.48606 0.05619 0.0
N788 N 0.2843 0.54289 1.00027 0.0
C789 C 0.30425 0.56555 0.97261 0.0
C790 C 0.28638 0.57705 0.96454 0.0
C791 C 0.26741 0.57101 0.97431 0.0
C792 C 0.26667 0.5539 0.99171 0.0
C793 C 0.30291 0.5488 0.99052 0.0
H794 H 0.25166 0.55002 0.99815 0.0
H795 H 0.31722 0.54106 0.99645 0.0
H796 H 0.31388 0.49809 0.06969 0.0
H797 H 0.24916 0.49021 0.04451 0.0
C798 C 0.23133 0.52044 0.01821 0.0
C799 C 0.28179 0.56156 0.0763 0.0
C800 C 0.28383 0.47779 0.97836 0.0
C801 C 0.33479 0.51925 0.03614 0.0
H802 H 0.23963 0.57036 0.08902 0.0
H803 H 0.21149 0.54737 0.05732 0.0
H804 H 0.21346 0.49374 0.97302 0.0
H805 H 0.24236 0.46976 0.95167 0.0
H806 H 0.32598 0.467 0.96822 0.0
H807 H 0.35436 0.48928 0.00065 0.0
H808 H 0.35267 0.54904 0.07779 0.0
H809 H 0.3231 0.57195 0.1002 0.0
H810 H 0.31287 0.4697 0.10082 0.0
H811 H 0.24759 0.46059 0.07308 0.0
H812 H 0.31934 0.56978 0.9657 0.0
H813 H 0.2531 0.57934 0.96834 0.0
C814 C 0.49214 0.29864 0.98132 0.0
C815 C 0.48566 0.31736 0.96982 0.0
C816 C 0.49805 0.33262 0.98352 0.0
C817 C 0.51131 0.32232 0.00249 0.0
N818 N 0.50848 0.30134 0.00115 0.0
Co819 Co 0.52291 0.28029 0.0261 0.0
N820 N 0.53798 0.30288 0.05031 0.0
C821 C 0.53613 0.32379 0.04762 0.0
C822 C 0.54894 0.33529 0.06706 0.0
C823 C 0.55991 0.32087 0.08272 0.0
C824 C 0.55317 0.30135 0.07178 0.0
N825 N 0.53756 0.25918 0.05086 0.0
C826 C 0.55309 0.26192 0.07195 0.0
C827 C 0.55996 0.24299 0.08256 0.0
C828 C 0.54858 0.22772 0.06733 0.0
C829 C 0.53552 0.23813 0.04829 0.0
N830 N 0.50746 0.25776 0.00214 0.0
C831 C 0.50913 0.23686 0.00477 0.0
C832 C 0.49511 0.22553 0.98675 0.0
C833 C 0.48336 0.2401 0.97238 0.0
C834 C 0.49101 0.25948 0.98249 0.0
N835 N 0.54652 0.27886 0.0011 0.0
C836 C 0.58191 0.27689 0.969 0.0
C837 C 0.57165 0.25872 0.97578 0.0
C838 C 0.55417 0.26005 0.99166 0.0
C839 C 0.57378 0.29608 0.97799 0.0
C840 C 0.55624 0.2967 0.99375 0.0
N841 N 0.49931 0.28172 0.05092 0.0
C842 C 0.47241 0.26445 0.07461 0.0
C843 C 0.46232 0.28347 0.07939 0.0
C844 C 0.47167 0.30167 0.07107 0.0
C845 C 0.49008 0.30048 0.05721 0.0
C846 C 0.49076 0.26393 0.06043 0.0
H847 H 0.49623 0.3149 0.0511 0.0
H848 H 0.49741 0.24891 0.05667 0.0
H849 H 0.54729 0.2456 0.99631 0.0
H850 H 0.55112 0.31182 1.00015 0.0
C851 C 0.52394 0.33202 0.02479 0.0
C852 C 0.48088 0.27907 0.97519 0.0
C853 C 0.56293 0.28192 0.08082 0.0
C854 C 0.52225 0.22857 0.02658 0.0
H855 H 0.47261 0.31978 0.95427 0.0
H856 H 0.49659 0.34933 0.9813 0.0
H857 H 0.55078 0.35212 0.06879 0.0
H858 H 0.57209 0.32426 0.09954 0.0
H859 H 0.57238 0.24042 0.09895 0.0
H860 H 0.55019 0.21099 0.06917 0.0
H861 H 0.49288 0.20874 0.98543 0.0
H862 H 0.47006 0.23689 0.9572 0.0
H863 H 0.57709 0.24344 0.96894 0.0
H864 H 0.58124 0.31065 0.97363 0.0
H865 H 0.46576 0.24992 0.08075 0.0
H866 H 0.46466 0.31683 0.07488 0.0
C867 C 0.72436 0.54696 0.06771 0.0
C868 C 0.70416 0.55221 0.07391 0.0
C869 C 0.6909 0.54107 0.05487 0.0
C870 C 0.70368 0.52968 0.03822 0.0
N871 N 0.72433 0.53276 0.04557 0.0
Co872 Co 0.74829 0.51921 0.027 0.0
N873 N 0.72878 0.50443 0.99724 0.0
C874 C 0.7077 0.50639 0.9938 0.0
C875 C 0.69848 0.49406 0.97188 0.0
C876 C 0.71458 0.48342 0.96077 0.0
C877 C 0.7328 0.48992 0.97663 0.0
N878 N 0.77217 0.50496 0.00917 0.0
C879 C 0.77201 0.48979 0.98819 0.0
C880 C 0.79212 0.48326 0.98336 0.0
C881 C 0.80545 0.49439 0.00232 0.0
C882 C 0.79278 0.50703 0.01756 0.0
N883 N 0.76783 0.5347 0.05601 0.0
C884 C 0.789 0.53404 0.05807 0.0
C885 C 0.79824 0.54718 0.07909 0.0
C886 C 0.78202 0.55709 0.09094 0.0
C887 C 0.76376 0.54936 0.0764 0.0
N888 N 0.74678 0.49536 0.05226 0.0
C889 C 0.74451 0.46083 0.08712 0.0
C890 C 0.76309 0.47223 0.08673 0.0
C891 C 0.76392 0.48921 0.06916 0.0
C892 C 0.72714 0.46711 0.06973 0.0
C893 C 0.72854 0.48434 0.05292 0.0
N894 N 0.74978 0.54317 0.00187 0.0
C895 C 0.76989 0.56962 0.98092 0.0
C896 C 0.75163 0.5804 0.97258 0.0
C897 C 0.73244 0.57164 0.97762 0.0
C898 C 0.73187 0.55309 0.99192 0.0
C899 C 0.76862 0.55113 0.99548 0.0
H900 H 0.71673 0.54738 0.99523 0.0
H901 H 0.78309 0.54388 0.00195 0.0
H902 H 0.77858 0.49708 0.06957 0.0
H903 H 0.71463 0.48829 0.04048 0.0
C904 C 0.69684 0.51776 0.01377 0.0
C905 C 0.74298 0.55667 0.08253 0.0
C906 C 0.7533 0.48078 0.97267 0.0
C907 C 0.79972 0.52081 0.04005 0.0
H908 H 0.6995 0.56334 0.09006 0.0
H909 H 0.67397 0.54178 0.05276 0.0
H910 H 0.68194 0.49226 0.96559 0.0
H911 H 0.71294 0.47167 0.94361 0.0
H912 H 0.79663 0.47148 0.96794 0.0
H913 H 0.82234 0.49318 0.00497 0.0
H914 H 0.8148 0.54941 0.08494 0.0
H915 H 0.78345 0.56882 0.10817 0.0
H916 H 0.77696 0.46824 0.10005 0.0
H917 H 0.71246 0.45863 0.06864 0.0
H918 H 0.78512 0.57582 0.97722 0.0
H919 H 0.71786 0.57922 0.97085 0.0
H920 H 0.17019 0.23401 0.43117 0.0
H921 H 0.14498 0.2674 0.35876 0.0
H922 H 0.11421 0.27722 0.38384 0.0
H923 H 0.09419 0.27566 0.4262 0.0
H924 H 0.11896 0.24012 0.49712 0.0
H925 H 0.15026 0.23226 0.47304 0.0
C926 C 0.15809 0.2437 0.42104 0.0
C927 C 0.15991 0.2501 0.39325 0.0
C928 C 0.14034 0.24894 0.43537 0.0
C929 C 0.1439 0.26225 0.38015 0.0
C930 C 0.12632 0.26787 0.39449 0.0
C931 C 0.10635 0.26609 0.43635 0.0
C932 C 0.10415 0.25876 0.4637 0.0
C933 C 0.12427 0.26113 0.42204 0.0
C934 C 0.12029 0.24651 0.47647 0.0
C935 C 0.1382 0.2418 0.46259 0.0
H936 H 0.76545 0.15719 0.39933 0.0
H937 H 0.82738 0.16791 0.44032 0.0
H938 H 0.82678 0.1337 0.46123 0.0
H939 H 0.80782 0.10206 0.47045 0.0
H940 H 0.74649 0.09008 0.42784 0.0
H941 H 0.74753 0.12373 0.40547 0.0
C942 C 0.77882 0.15191 0.41271 0.0
C943 C 0.79642 0.16499 0.41835 0.0
C944 C 0.77839 0.13218 0.42462 0.0
C945 C 0.81375 0.15799 0.43549 0.0
C946 C 0.81336 0.13851 0.44759 0.0
C947 C 0.79483 0.10646 0.45576 0.0
C948 C 0.77706 0.09347 0.45104 0.0
C949 C 0.79567 0.12561 0.44257 0.0
C950 C 0.76023 0.09987 0.43237 0.0
C951 C 0.76086 0.11907 0.41939 0.0
H952 H 0.89979 0.7877 0.36182 0.0
H953 H 0.87226 0.81054 0.43761 0.0
H954 H 0.90578 0.80711 0.46517 0.0
H955 H 0.94342 0.79915 0.46764 0.0
H956 H 0.97164 0.77844 0.39178 0.0
H957 H 0.93749 0.77971 0.36429 0.0
C958 C 0.90111 0.79205 0.38432 0.0
C959 C 0.88336 0.79928 0.3975 0.0
C960 C 0.92062 0.79048 0.40006 0.0
C961 C 0.88544 0.80454 0.42685 0.0
C962 C 0.90469 0.80277 0.44267 0.0
C963 C 0.94195 0.79481 0.44511 0.0
C964 C 0.9598 0.78855 0.43165 0.0
C965 C 0.92241 0.79593 0.42948 0.0
C966 C 0.95795 0.78309 0.40248 0.0
C967 C 0.93849 0.7839 0.38682 0.0
H968 H 0.25996 0.88485 0.38048 0.0
H969 H 0.23719 0.92636 0.31512 0.0
H970 H 0.24474 0.95646 0.34763 0.0
H971 H 0.25481 0.97077 0.39592 0.0
H972 H 0.27886 0.92957 0.46064 0.0
H973 H 0.27444 0.89957 0.42676 0.0
C974 C 0.25713 0.90047 0.37302 0.0
C975 C 0.24761 0.90322 0.34548 0.0
C976 C 0.26172 0.91778 0.39174 0.0
C977 C 0.24394 0.92367 0.33642 0.0
C978 C 0.24837 0.94094 0.35494 0.0
C979 C 0.25936 0.95523 0.40238 0.0
C980 C 0.26698 0.95225 0.43064 0.0
C981 C 0.25673 0.93813 0.38286 0.0
C982 C 0.27304 0.93217 0.43888 0.0
C983 C 0.27038 0.91503 0.4196 0.0
H984 H 0.16304 0.80429 0.58635 0.0
H985 H 0.144 0.7808 0.6646 0.0
H986 H 0.10785 0.77774 0.64372 0.0
H987 H 0.08157 0.78144 0.60274 0.0
H988 H 0.10093 0.80473 0.52476 0.0
H989 H 0.1371 0.80797 0.54579 0.0
C990 C 0.15104 0.79828 0.59877 0.0
C991 C 0.15628 0.79267 0.62697 0.0
C992 C 0.13035 0.7965 0.58661 0.0
C993 C 0.14039 0.78538 0.64293 0.0
C994 C 0.11973 0.78352 0.63096 0.0
C995 C 0.09382 0.78715 0.5905 0.0
C996 C 0.08886 0.79274 0.56231 0.0
C997 C 0.11453 0.789 0.60279 0.0
C998 C 0.10461 0.8003 0.54649 0.0
C999 C 0.1252 0.80214 0.5585 0.0
H1000 H 0.22483 0.12649 0.70899 0.0
H1001 H 0.24496 0.17416 0.65504 0.0
H1002 H 0.25669 0.14732 0.62188 0.0
H1003 H 0.25891 0.1103 0.60632 0.0
H1004 H 0.23648 0.06277 0.65842 0.0
H1005 H 0.22768 0.08955 0.69396 0.0
C1006 C 0.23167 0.13105 0.68991 0.0
C1007 C 0.23392 0.15238 0.6846 0.0
C1008 C 0.23786 0.11553 0.67048 0.0
C1009 C 0.24326 0.15791 0.66 0.0
C1010 C 0.24983 0.14256 0.64084 0.0
C1011 C 0.25239 0.10584 0.62568 0.0
C1012 C 0.24834 0.08467 0.62984 0.0
C1013 C 0.24695 0.12133 0.64566 0.0
C1014 C 0.23961 0.07903 0.65477 0.0
C1015 C 0.23459 0.09431 0.67505 0.0
H1016 H 0.88922 0.23607 0.65478 0.0
H1017 H 0.85943 0.28689 0.60989 0.0
H1018 H 0.89106 0.29224 0.58548 0.0
H1019 H 0.92696 0.28185 0.57591 0.0
H1020 H 0.95684 0.23166 0.62209 0.0
H1021 H 0.92546 0.22685 0.64702 0.0
C1022 C 0.88971 0.24857 0.64004 0.0
C1023 C 0.87187 0.26103 0.63424 0.0
C1024 C 0.90798 0.25162 0.62614 0.0
C1025 C 0.87278 0.27686 0.61455 0.0
C1026 C 0.89092 0.28001 0.60066 0.0
C1027 C 0.92671 0.27004 0.59169 0.0
C1028 C 0.94425 0.25706 0.59692 0.0
C1029 C 0.90858 0.26738 0.60613 0.0
C1030 C 0.94349 0.24165 0.61722 0.0
C1031 C 0.92557 0.23895 0.63164 0.0
H1032 H 0.76826 0.87525 0.65465 0.0
H1033 H 0.80734 0.85413 0.58908 0.0
H1034 H 0.80629 0.88888 0.5696 0.0
H1035 H 0.79489 0.92536 0.57168 0.0
H1036 H 0.75483 0.94668 0.63584 0.0
H1037 H 0.75565 0.91177 0.65559 0.0
C1038 C 0.7765 0.87832 0.63609 0.0
C1039 C 0.78783 0.8622 0.62327 0.0
C1040 C 0.77574 0.89834 0.62491 0.0
C1041 C 0.79831 0.86625 0.59908 0.0
C1042 C 0.79784 0.88613 0.58806 0.0
C1043 C 0.78646 0.92234 0.59011 0.0
C1044 C 0.77506 0.93848 0.60262 0.0
C1045 C 0.78674 0.90229 0.60091 0.0
C1046 C 0.76378 0.9344 0.62604 0.0
C1047 C 0.76426 0.91451 0.63728 0.0
H1048 H 0.8748 0.77272 0.59103 0.0
H1049 H 0.90633 0.76951 0.67487 0.0
H1050 H 0.94041 0.77102 0.65482 0.0
H1051 H 0.96113 0.77486 0.61328 0.0
H1052 H 0.92911 0.78018 0.53011 0.0
H1053 H 0.89524 0.77617 0.54985 0.0
C1054 C 0.88917 0.77202 0.60481 0.0
C1055 C 0.88818 0.77081 0.63427 0.0
C1056 C 0.90854 0.77343 0.59322 0.0
C1057 C 0.90682 0.77039 0.65208 0.0
C1058 C 0.92624 0.77128 0.64064 0.0
C1059 C 0.94666 0.77498 0.59964 0.0
C1060 C 0.94734 0.77772 0.57043 0.0
C1061 C 0.92728 0.77306 0.61126 0.0
C1062 C 0.92871 0.77806 0.55271 0.0
C1063 C 0.90944 0.77577 0.56396 0.0
H1064 H 0.26004 0.90366 0.65885 0.0
H1065 H 0.26029 0.86588 0.58103 0.0
H1066 H 0.26239 0.89727 0.5539 0.0
H1067 H 0.2627 0.93572 0.55178 0.0
H1068 H 0.26198 0.97365 0.62905 0.0
H1069 H 0.26132 0.94211 0.65688 0.0
C1070 C 0.26053 0.90229 0.63596 0.0
C1071 C 0.26007 0.88234 0.62211 0.0
C1072 C 0.26155 0.9205 0.62035 0.0
C1073 C 0.26097 0.88094 0.59241 0.0
C1074 C 0.262 0.89892 0.57678 0.0
C1075 C 0.26253 0.93694 0.57473 0.0
C1076 C 0.2624 0.95678 0.58852 0.0
C1077 C 0.26213 0.91877 0.59046 0.0
C1078 C 0.26213 0.95841 0.61819 0.0
C1079 C 0.26173 0.94042 0.63401 0.0
H1080 H 0.10896 0.23935 0.70378 0.0
H1081 H 0.15247 0.27676 0.66204 0.0
H1082 H 0.1247 0.2857 0.6264 0.0
H1083 H 0.08907 0.27992 0.60431 0.0
H1084 H 0.04471 0.24528 0.64776 0.0
H1085 H 0.07182 0.23858 0.68605 0.0
C1086 C 0.11237 0.24995 0.68745 0.0
C1087 C 0.13307 0.25687 0.68537 0.0
C1088 C 0.09618 0.25549 0.66728 0.0
C1089 C 0.13695 0.2705 0.66374 0.0
C1090 C 0.12102 0.27581 0.6434 0.0
C1091 C 0.08519 0.27152 0.62267 0.0
C1092 C 0.06498 0.26318 0.62346 0.0
C1093 C 0.10074 0.26793 0.64454 0.0
C1094 C 0.06018 0.25194 0.64697 0.0
C1095 C 0.07569 0.24802 0.66868 0.0
H1096 H 0.77697 0.15839 0.60616 0.0
H1097 H 0.79453 0.13774 0.6906 0.0
H1098 H 0.79296 0.10134 0.67274 0.0
H1099 H 0.78674 0.07517 0.63284 0.0
H1100 H 0.76873 0.0959 0.54882 0.0
H1101 H 0.76998 0.13243 0.56676 0.0
C1102 C 0.78017 0.14595 0.62078 0.0
C1103 C 0.78585 0.1509 0.64974 0.0
C1104 C 0.77916 0.12503 0.61038 0.0
C1105 C 0.79036 0.13448 0.66817 0.0
C1106 C 0.78937 0.11362 0.658 0.0
C1107 C 0.78311 0.08778 0.61862 0.0
C1108 C 0.77775 0.08307 0.58962 0.0
C1109 C 0.78387 0.1087 0.62913 0.0
C1110 C 0.77294 0.09934 0.57122 0.0
C1111 C 0.77366 0.12015 0.58147 0.0
H1112 H 0.89643 0.25729 0.40534 0.0
H1113 H 0.87476 0.28714 0.48123 0.0
H1114 H 0.91044 0.2876 0.50361 0.0
H1115 H 0.94786 0.27875 0.50204 0.0
H1116 H 0.9697 0.25213 0.42463 0.0
H1117 H 0.93389 0.25151 0.40218 0.0
C1118 C 0.89945 0.26437 0.42652 0.0
C1119 C 0.88273 0.27204 0.44153 0.0
C1120 C 0.92006 0.26499 0.43909 0.0
C1121 C 0.88714 0.28072 0.46926 0.0
C1122 C 0.9076 0.28112 0.48207 0.0
C1123 C 0.94465 0.27282 0.48026 0.0
C1124 C 0.96108 0.26469 0.46528 0.0
C1125 C 0.92413 0.27308 0.4673 0.0
C1126 C 0.95705 0.25759 0.43687 0.0
C1127 C 0.93666 0.25745 0.42398 0.0
H1128 H 0.77321 0.91029 0.37576 0.0
H1129 H 0.78356 0.86894 0.44539 0.0
H1130 H 0.77978 0.89821 0.47938 0.0
H1131 H 0.77591 0.93613 0.48958 0.0
H1132 H 0.76629 0.97755 0.42024 0.0
H1133 H 0.76758 0.94784 0.38586 0.0
C1134 C 0.7746 0.90767 0.39837 0.0
C1135 C 0.77873 0.8874 0.40793 0.0
C1136 C 0.77268 0.92465 0.41787 0.0
C1137 C 0.78015 0.88428 0.43734 0.0
C1138 C 0.77817 0.90106 0.45685 0.0
C1139 C 0.77389 0.93848 0.4669 0.0
C1140 C 0.771 0.95881 0.45722 0.0
C1141 C 0.77476 0.92136 0.44739 0.0
C1142 C 0.76846 0.96192 0.42794 0.0
C1143 C 0.76925 0.94498 0.40839 0.0
H1144 H 0.13104 0.82492 0.33574 0.0
H1145 H 0.1685 0.77391 0.36839 0.0
H1146 H 0.14229 0.76666 0.40161 0.0
H1147 H 0.10935 0.77583 0.42264 0.0
H1148 H 0.07222 0.82702 0.38971 0.0
H1149 H 0.09765 0.83311 0.3552 0.0
C1150 C 0.13331 0.81198 0.34976 0.0
C1151 C 0.15165 0.79993 0.34952 0.0
C1152 C 0.1183 0.80803 0.36889 0.0
C1153 C 0.15457 0.7835 0.36829 0.0
C1154 C 0.13958 0.77933 0.38724 0.0
C1155 C 0.10673 0.78815 0.40767 0.0
C1156 C 0.08899 0.80103 0.40885 0.0
C1157 C 0.12148 0.79164 0.38792 0.0
C1158 C 0.08591 0.81708 0.38952 0.0
C1159 C 0.10038 0.82052 0.3697 0.0
H1160 H 0.24843 0.12026 0.3779 0.0
H1161 H 0.25935 0.16735 0.44563 0.0
H1162 H 0.26493 0.14018 0.48009 0.0
H1163 H 0.26468 0.10287 0.49168 0.0
H1164 H 0.25219 0.05594 0.42452 0.0
H1165 H 0.24895 0.08309 0.38925 0.0
C1166 C 0.25196 0.12463 0.4002 0.0
C1167 C 0.25343 0.14595 0.40898 0.0
C1168 C 0.25474 0.10889 0.4201 0.0
C1169 C 0.25841 0.15117 0.43801 0.0
C1170 C 0.26143 0.1356 0.45787 0.0
C1171 C 0.26144 0.09871 0.46926 0.0
C1172 C 0.25872 0.07758 0.4605 0.0
C1173 C 0.25938 0.11442 0.44923 0.0
C1174 C 0.25439 0.07218 0.43154 0.0
C1175 C 0.25251 0.08768 0.41147 0.0
H1176 H 0.65283 0.77971 0.8638 0.0
H1177 H 0.66155 0.71527 0.88537 0.0
H1178 H 0.62909 0.71602 0.90897 0.0
H1179 H 0.59996 0.7359 0.9273 0.0
H1180 H 0.59054 0.80008 0.90565 0.0
H1181 H 0.62145 0.79863 0.87811 0.0
C1182 C 0.64745 0.76582 0.87344 0.0
C1183 C 0.65957 0.7475 0.87296 0.0
C1184 C 0.62874 0.76637 0.88705 0.0
C1185 C 0.65239 0.72951 0.88526 0.0
C1186 C 0.63391 0.72995 0.89892 0.0
C1187 C 0.60455 0.7494 0.91609 0.0
C1188 C 0.59324 0.76806 0.91834 0.0
C1189 C 0.62222 0.7484 0.90045 0.0
C1190 C 0.59911 0.78555 0.90391 0.0
C1191 C 0.6168 0.78474 0.88838 0.0
H1192 H 0.29924 0.64644 0.8758 0.0
H1193 H 0.26759 0.68361 0.93764 0.0
H1194 H 0.26389 0.65304 0.96553 0.0
H1195 H 0.27072 0.61594 0.97386 0.0
H1196 H 0.30489 0.57929 0.91465 0.0
H1197 H 0.30703 0.60953 0.88487 0.0
C1198 C 0.29169 0.64801 0.89547 0.0
C1199 C 0.28352 0.66754 0.90413 0.0
C1200 C 0.29021 0.63041 0.91218 0.0
C1201 C 0.27355 0.66887 0.92968 0.0
C1202 C 0.27161 0.65137 0.94599 0.0
C1203 C 0.2785 0.61457 0.95431 0.0
C1204 C 0.28755 0.5954 0.94639 0.0
C1205 C 0.27996 0.63209 0.93756 0.0
C1206 C 0.29789 0.59392 0.92126 0.0
C1207 C 0.29905 0.61118 0.90419 0.0
H1208 H 0.38267 0.28712 0.96348 0.0
H1209 H 0.39212 0.27222 0.87554 0.0
H1210 H 0.42986 0.26955 0.88753 0.0
H1211 H 0.46039 0.27216 0.92311 0.0
H1212 H 0.45075 0.28722 0.01075 0.0
H1213 H 0.41284 0.28895 0.999 0.0
C1214 C 0.39295 0.28299 0.947 0.0
C1215 C 0.3846 0.27982 0.91867 0.0
C1216 C 0.4146 0.28158 0.95403 0.0
C1217 C 0.39819 0.27489 0.89747 0.0
C1218 C 0.41975 0.27331 0.90432 0.0
C1219 C 0.44985 0.27571 0.93948 0.0
C1220 C 0.45804 0.27953 0.96766 0.0
C1221 C 0.42815 0.27676 0.93249 0.0
C1222 C 0.44454 0.28424 0.98892 0.0
C1223 C 0.42296 0.28521 0.9822 0.0
H1224 H 0.75397 0.40676 0.87961 0.0
H1225 H 0.76542 0.37131 0.95511 0.0
H1226 H 0.76582 0.4034 0.98467 0.0
H1227 H 0.76127 0.44156 0.98959 0.0
H1228 H 0.7491 0.47716 0.91473 0.0
H1229 H 0.75036 0.44512 0.88447 0.0
C1230 C 0.75653 0.40604 0.90252 0.0
C1231 C 0.75976 0.38653 0.91497 0.0
C1232 C 0.75645 0.42463 0.91958 0.0
C1233 C 0.76328 0.38603 0.94476 0.0
C1234 C 0.76333 0.4044 0.96179 0.0
C1235 C 0.75902 0.4422 0.96662 0.0
C1236 C 0.75496 0.4615 0.95426 0.0
C1237 C 0.75973 0.42375 0.94949 0.0
C1238 C 0.75212 0.46235 0.92455 0.0
C1239 C 0.75285 0.44407 0.90733 0.0
H1240 H 0.65913 0.28989 0.11875 0.0
H1241 H 0.63784 0.27191 0.19861 0.0
H1242 H 0.60173 0.27034 0.17727 0.0
H1243 H 0.57613 0.27409 0.13557 0.0
H1244 H 0.59792 0.29134 0.05587 0.0
H1245 H 0.63402 0.29298 0.07733 0.0
C1246 C 0.64666 0.28531 0.13143 0.0
C1247 C 0.65123 0.28089 0.1602 0.0
C1248 C 0.62604 0.28433 0.11901 0.0
C1249 C 0.63476 0.27553 0.17647 0.0
C1250 C 0.61412 0.27454 0.16425 0.0
C1251 C 0.5889 0.27809 0.12305 0.0
C1252 C 0.58464 0.28249 0.09429 0.0
C1253 C 0.60957 0.27893 0.13554 0.0
C1254 C 0.60106 0.28786 0.07807 0.0
C1255 C 0.62161 0.28878 0.09031 0.0
H1256 H 0.72941 0.62152 0.18396 0.0
H1257 H 0.73754 0.66495 0.11815 0.0
H1258 H 0.74347 0.63596 0.08468 0.0
H1259 H 0.7451 0.59802 0.07331 0.0
H1260 H 0.73584 0.55456 0.13828 0.0
H1261 H 0.73129 0.58367 0.17273 0.0
C1262 C 0.73237 0.62468 0.16227 0.0
C1263 C 0.73307 0.64551 0.15376 0.0
C1264 C 0.73545 0.60786 0.14289 0.0
C1265 C 0.73726 0.64918 0.12558 0.0
C1266 C 0.74047 0.63258 0.10628 0.0
C1267 C 0.74215 0.59507 0.09508 0.0
C1268 C 0.74075 0.57437 0.10346 0.0
C1269 C 0.73946 0.61186 0.11461 0.0
C1270 C 0.73693 0.57048 0.13157 0.0
C1271 C 0.73434 0.58709 0.15117 0.0
H1272 H 0.37762 0.78555 0.10348 0.0
H1273 H 0.39458 0.72943 0.14747 0.0
H1274 H 0.42963 0.7309 0.13112 0.0
H1275 H 0.45488 0.74692 0.10208 0.0
H1276 H 0.43672 0.80131 0.0549 0.0
H1277 H 0.40284 0.80165 0.07477 0.0
C1278 C 0.38892 0.77355 0.10939 0.0
C1279 C 0.38334 0.75738 0.12663 0.0
C1280 C 0.4089 0.77414 0.0993 0.0
C1281 C 0.39843 0.74225 0.13457 0.0
C1282 C 0.41846 0.74296 0.125 0.0
C1283 C 0.4435 0.75881 0.09605 0.0
C1284 C 0.44846 0.77408 0.07705 0.0
C1285 C 0.42377 0.75864 0.107 0.0
C1286 C 0.43357 0.78957 0.06986 0.0
C1287 C 0.41407 0.78968 0.08102 0.0
H1288 H 0.26121 0.38373 0.1618 0.0
H1289 H 0.32632 0.37181 0.15079 0.0
H1290 H 0.32851 0.40391 0.12492 0.0
H1291 H 0.31147 0.43417 0.10309 0.0
H1292 H 0.24704 0.44789 0.11745 0.0
H1293 H 0.24499 0.41613 0.14367 0.0
C1294 C 0.27589 0.38831 0.15391 0.0
C1295 C 0.29357 0.37544 0.1582 0.0
C1296 C 0.27711 0.40696 0.13928 0.0
C1297 C 0.31254 0.38157 0.14801 0.0
C1298 C 0.31377 0.39985 0.13305 0.0
C1299 C 0.29705 0.4306 0.11239 0.0
C1300 C 0.27938 0.44354 0.1077 0.0
C1301 C 0.2961 0.41257 0.12829 0.0
C1302 C 0.2608 0.43811 0.11976 0.0
C1303 C 0.25963 0.41998 0.1351 0.0
H1304 H 0.37041 0.2971 0.11532 0.0
H1305 H 0.39235 0.25578 0.18113 0.0
H1306 H 0.42662 0.2537 0.16169 0.0
H1307 H 0.45035 0.26369 0.1257 0.0
H1308 H 0.42789 0.30509 0.06019 0.0
H1309 H 0.3938 0.30696 0.07967 0.0
C1310 C 0.38261 0.28745 0.12525 0.0
C1311 C 0.37877 0.27648 0.14951 0.0
C1312 C 0.40221 0.28639 0.11403 0.0
C1313 C 0.39493 0.26445 0.16251 0.0
C1314 C 0.41449 0.26319 0.15133 0.0
C1315 C 0.43794 0.27303 0.11567 0.0
C1316 C 0.44169 0.28434 0.09164 0.0
C1317 C 0.41832 0.27409 0.12706 0.0
C1318 C 0.42551 0.29651 0.07896 0.0
C1319 C 0.40598 0.2975 0.08999 0.0
H1320 H 0.72161 0.38394 0.15762 0.0
H1321 H 0.7864 0.36864 0.14796 0.0
H1322 H 0.79019 0.40026 0.12169 0.0
H1323 H 0.77475 0.43169 0.10027 0.0
H1324 H 0.71107 0.44846 0.11494 0.0
H1325 H 0.70745 0.41686 0.14092 0.0
C1326 C 0.73678 0.38764 0.15051 0.0
C1327 C 0.75365 0.37371 0.15486 0.0
C1328 C 0.73906 0.40611 0.13615 0.0
C1329 C 0.77296 0.37875 0.14456 0.0
C1330 C 0.77522 0.39695 0.12969 0.0
C1331 C 0.76019 0.4287 0.10957 0.0
C1332 C 0.74311 0.44239 0.10511 0.0
C1333 C 0.75831 0.41067 0.12519 0.0
C1334 C 0.72432 0.43799 0.1172 0.0
C1335 C 0.72225 0.41997 0.13231 0.0
H1336 H 0.6494 0.76616 0.1318 0.0
H1337 H 0.61407 0.73161 0.18849 0.0
H1338 H 0.58168 0.73998 0.1608 0.0
H1339 H 0.5634 0.75456 0.11797 0.0
H1340 H 0.59946 0.78456 0.05808 0.0
H1341 H 0.63141 0.78039 0.08923 0.0
C1342 C 0.63471 0.76024 0.13808 0.0
C1343 C 0.63445 0.74818 0.16235 0.0
C1344 C 0.61612 0.76432 0.12134 0.0
C1345 C 0.61497 0.74123 0.17032 0.0
C1346 C 0.59634 0.74583 0.15428 0.0
C1347 C 0.57825 0.76043 0.11209 0.0
C1348 C 0.57906 0.77021 0.08612 0.0
C1349 C 0.59674 0.75706 0.12949 0.0
C1350 C 0.59841 0.77741 0.0783 0.0
C1351 C 0.6167 0.77484 0.09597 0.0
H1352 H 0.28946 0.65939 0.08809 0.0
H1353 H 0.27511 0.64793 0.17379 0.0
H1354 H 0.27245 0.61041 0.16189 0.0
H1355 H 0.27488 0.58068 0.12704 0.0
H1356 H 0.28877 0.59263 0.04151 0.0
H1357 H 0.29055 0.63027 0.05317 0.0
C1358 C 0.28538 0.64876 0.10408 0.0
C1359 C 0.28242 0.65649 0.13177 0.0
C1360 C 0.28379 0.62731 0.09706 0.0
C1361 C 0.27767 0.64238 0.15238 0.0
C1362 C 0.27604 0.62094 0.14556 0.0
C1363 C 0.27811 0.59167 0.11107 0.0
C1364 C 0.28163 0.58422 0.08353 0.0
C1365 C 0.27918 0.61322 0.11801 0.0
C1366 C 0.28599 0.59829 0.06282 0.0
C1367 C 0.28703 0.6197 0.0695 0.0
H1368 H 0.38074 0.77979 0.93421 0.0
H1369 H 0.39714 0.74684 0.85737 0.0
H1370 H 0.43397 0.74961 0.87362 0.0
H1371 H 0.46176 0.75984 0.91046 0.0
H1372 H 0.44553 0.78857 0.98969 0.0
H1373 H 0.40847 0.78898 0.97178 0.0
C1374 C 0.39225 0.77295 0.92105 0.0
C1375 C 0.38584 0.76321 0.89439 0.0
C1376 C 0.41355 0.77377 0.93105 0.0
C1377 C 0.40132 0.75492 0.87761 0.0
C1378 C 0.42252 0.75626 0.88703 0.0
C1379 C 0.45002 0.76591 0.92388 0.0
C1380 C 0.45613 0.77365 0.95155 0.0
C1381 C 0.42879 0.76542 0.9138 0.0
C1382 C 0.441 0.78226 0.96843 0.0
C1383 C 0.41988 0.78245 0.95821 0.0
H1384 H 0.294 0.3803 0.96521 0.0
H1385 H 0.26984 0.39179 0.87919 0.0
H1386 H 0.2677 0.4291 0.89142 0.0
H1387 H 0.27331 0.4587 0.92654 0.0
H1388 H 0.29485 0.44651 0.01307 0.0
H1389 H 0.2971 0.4091 0.00076 0.0
C1390 C 0.28783 0.3908 0.94918 0.0
C1391 C 0.28215 0.38309 0.92126 0.0
C1392 C 0.28618 0.41215 0.95648 0.0
C1393 C 0.2747 0.39722 0.90073 0.0
C1394 C 0.27332 0.41858 0.90774 0.0
C1395 C 0.27815 0.44772 0.94268 0.0
C1396 C 0.28377 0.45512 0.97064 0.0
C1397 C 0.27911 0.42624 0.93551 0.0
C1398 C 0.29042 0.44098 0.99141 0.0
C1399 C 0.29171 0.41967 0.98439 0.0
H1400 H 0.67042 0.26389 0.92066 0.0
H1401 H 0.65056 0.31845 0.87499 0.0
H1402 H 0.61678 0.31752 0.89524 0.0
H1403 H 0.59352 0.30243 0.92795 0.0
H1404 H 0.61426 0.24913 0.97572 0.0
H1405 H 0.64694 0.24841 0.95263 0.0
C1406 C 0.65875 0.27564 0.91517 0.0
C1407 C 0.66317 0.29126 0.89634 0.0
C1408 C 0.63947 0.2753 0.92737 0.0
C1409 C 0.6476 0.30607 0.88909 0.0
C1410 C 0.6283 0.30567 0.90089 0.0
C1411 C 0.60521 0.2907 0.93342 0.0
C1412 C 0.60136 0.27589 0.95366 0.0
C1413 C 0.62417 0.29056 0.92038 0.0
C1414 C 0.6166 0.26057 0.96001 0.0
C1415 C 0.6354 0.26023 0.94695 0.0
H1416 H 0.7419 0.67212 0.93035 0.0
H1417 H 0.78407 0.64872 0.86996 0.0
H1418 H 0.78555 0.61488 0.89253 0.0
H1419 H 0.77388 0.59169 0.92881 0.0
H1420 H 0.73101 0.61546 0.98811 0.0
H1421 H 0.73089 0.64951 0.96675 0.0
C1422 C 0.75167 0.65972 0.9224 0.0
C1423 C 0.76299 0.66292 0.8987 0.0
C1424 C 0.75223 0.64036 0.93521 0.0
C1425 C 0.77519 0.64656 0.88817 0.0
C1426 C 0.77606 0.62726 0.90108 0.0
C1427 C 0.76468 0.60442 0.93711 0.0
C1428 C 0.75238 0.60109 0.95985 0.0
C1429 C 0.76451 0.62394 0.92451 0.0
C1430 C 0.74037 0.61761 0.97036 0.0
C1431 C 0.74036 0.63708 0.95825 0.0
loop_
_geom_bond_atom_site_label_1
_geom_bond_atom_site_label_2
_geom_bond_distance
_geom_bond_site_symmetry_2
_ccdc_geom_bond_type
H0 C27 0.929 . S
N1 C26 1.433 . S
N1 C32 1.435 . S
N1 C38 1.423 . S
H2 C28 0.930 . S
H3 C31 0.931 . S
H4 C30 0.929 . S
H5 C33 0.930 . S
H6 C34 0.932 . S
H7 C37 0.929 . S
H8 C36 0.931 . S
H9 C39 0.929 . S
H10 C43 0.932 . S
H11 C40 0.931 . S
H12 C42 0.929 . S
H13 C45 0.929 . S
H14 C46 0.930 . S
H15 C48 0.929 . S
H16 C49 0.931 . S
H17 C51 0.930 . S
H18 C52 0.932 . S
H19 C54 0.931 . S
H20 C55 0.929 . S
H21 C57 0.929 . S
H22 C58 0.931 . S
H23 C60 0.929 . S
N24 C44 1.433 . S
N24 C50 1.435 . S
N24 C56 1.423 . S
H25 C61 0.932 . S
C26 N1 1.433 . S
C26 C27 1.363 . S
C26 C31 1.370 . S
C27 H0 0.929 . S
C27 C26 1.363 . S
C27 C28 1.385 . S
C28 H2 0.930 . S
C28 C27 1.385 . S
C28 C29 1.357 . S
C29 C28 1.357 . S
C29 C30 1.406 . S
C30 H4 0.929 . S
C30 C29 1.406 . S
C30 C31 1.391 . S
C31 H3 0.931 . S
C31 C26 1.370 . S
C31 C30 1.391 . S
C32 N1 1.435 . S
C32 C33 1.358 . S
C32 C37 1.371 . S
C33 H5 0.930 . S
C33 C32 1.358 . S
C33 C34 1.405 . S
C34 H6 0.932 . S
C34 C33 1.405 . S
C34 C35 1.383 . S
C35 C34 1.383 . S
C35 C36 1.393 . S
C36 H8 0.931 . S
C36 C35 1.393 . S
C36 C37 1.382 . S
C37 H7 0.929 . S
C37 C32 1.371 . S
C37 C36 1.382 . S
C38 N1 1.423 . S
C38 C39 1.362 . S
C38 C43 1.388 . S
C39 H9 0.929 . S
C39 C38 1.362 . S
C39 C40 1.376 . S
C40 H11 0.931 . S
C40 C39 1.376 . S
C40 C41 1.396 . S
C41 C40 1.396 . S
C41 C42 1.348 . S
C41 C59 1.472 . S
C42 H12 0.929 . S
C42 C41 1.348 . S
C42 C43 1.443 . S
C43 H10 0.932 . S
C43 C38 1.388 . S
C43 C42 1.443 . S
C44 N24 1.433 . S
C44 C45 1.363 . S
C44 C49 1.370 . S
C45 H13 0.929 . S
C45 C44 1.363 . S
C45 C46 1.385 . S
C46 H14 0.930 . S
C46 C45 1.385 . S
C46 C47 1.357 . S
C47 C46 1.357 . S
C47 C48 1.406 . S
C48 H15 0.929 . S
C48 C47 1.406 . S
C48 C49 1.391 . S
C49 H16 0.931 . S
C49 C44 1.370 . S
C49 C48 1.391 . S
C50 N24 1.435 . S
C50 C51 1.358 . S
C50 C55 1.371 . S
C51 H17 0.930 . S
C51 C50 1.358 . S
C51 C52 1.405 . S
C52 H18 0.932 . S
C52 C51 1.405 . S
C52 C53 1.383 . S
C53 C52 1.383 . S
C53 C54 1.393 . S
C54 H19 0.931 . S
C54 C53 1.393 . S
C54 C55 1.382 . S
C55 H20 0.929 . S
C55 C50 1.371 . S
C55 C54 1.382 . S
C56 N24 1.423 . S
C56 C57 1.362 . S
C56 C61 1.388 . S
C57 H21 0.929 . S
C57 C56 1.362 . S
C57 C58 1.376 . S
C58 H22 0.931 . S
C58 C57 1.376 . S
C58 C59 1.396 . S
C59 C41 1.472 . S
C59 C58 1.396 . S
C59 C60 1.348 . S
C60 H23 0.929 . S
C60 C59 1.348 . S
C60 C61 1.443 . S
C61 H25 0.932 . S
C61 C56 1.388 . S
C61 C60 1.443 . S
H62 C89 0.929 . S
N63 C88 1.433 . S
N63 C94 1.435 . S
N63 C100 1.423 . S
H64 C90 0.930 . S
H65 C93 0.931 . S
H66 C92 0.929 . S
H67 C95 0.930 . S
H68 C96 0.932 . S
H69 C99 0.929 . S
H70 C98 0.931 . S
H71 C101 0.929 . S
H72 C105 0.932 . S
H73 C102 0.931 . S
H74 C104 0.929 . S
H75 C107 0.929 . S
H76 C108 0.930 . S
H77 C110 0.929 . S
H78 C111 0.931 . S
H79 C113 0.930 . S
H80 C114 0.932 . S
H81 C116 0.931 . S
H82 C117 0.929 . S
H83 C119 0.929 . S
H84 C120 0.931 . S
H85 C122 0.929 . S
N86 C106 1.433 . S
N86 C112 1.435 . S
N86 C118 1.423 . S
H87 C123 0.932 . S
C88 N63 1.433 . S
C88 C89 1.363 . S
C88 C93 1.370 . S
C89 H62 0.929 . S
C89 C88 1.363 . S
C89 C90 1.385 . S
C90 H64 0.930 . S
C90 C89 1.385 . S
C90 C91 1.357 . S
C91 C90 1.357 . S
C91 C92 1.406 . S
C92 H66 0.929 . S
C92 C91 1.406 . S
C92 C93 1.391 . S
C93 H65 0.931 . S
C93 C88 1.370 . S
C93 C92 1.391 . S
C94 N63 1.435 . S
C94 C95 1.358 . S
C94 C99 1.371 . S
C95 H67 0.930 . S
C95 C94 1.358 . S
C95 C96 1.405 . S
C96 H68 0.932 . S
C96 C95 1.405 . S
C96 C97 1.383 . S
C97 C96 1.383 . S
C97 C98 1.393 . S
C98 H70 0.931 . S
C98 C97 1.393 . S
C98 C99 1.382 . S
C99 H69 0.929 . S
C99 C94 1.371 . S
C99 C98 1.382 . S
C100 N63 1.423 . S
C100 C101 1.362 . S
C100 C105 1.388 . S
C101 H71 0.929 . S
C101 C100 1.362 . S
C101 C102 1.376 . S
C102 H73 0.931 . S
C102 C101 1.376 . S
C102 C103 1.396 . S
C103 C102 1.396 . S
C103 C104 1.348 . S
C103 C121 1.472 . S
C104 H74 0.929 . S
C104 C103 1.348 . S
C104 C105 1.443 . S
C105 H72 0.932 . S
C105 C100 1.388 . S
C105 C104 1.443 . S
C106 N86 1.433 . S
C106 C107 1.363 . S
C106 C111 1.370 . S
C107 H75 0.929 . S
C107 C106 1.363 . S
C107 C108 1.385 . S
C108 H76 0.930 . S
C108 C107 1.385 . S
C108 C109 1.357 . S
C109 C108 1.357 . S
C109 C110 1.406 . S
C110 H77 0.929 . S
C110 C109 1.406 . S
C110 C111 1.391 . S
C111 H78 0.931 . S
C111 C106 1.370 . S
C111 C110 1.391 . S
C112 N86 1.435 . S
C112 C113 1.358 . S
C112 C117 1.371 . S
C113 H79 0.930 . S
C113 C112 1.358 . S
C113 C114 1.405 . S
C114 H80 0.932 . S
C114 C113 1.405 . S
C114 C115 1.383 . S
C115 C114 1.383 . S
C115 C116 1.393 . S
C116 H81 0.931 . S
C116 C115 1.393 . S
C116 C117 1.382 . S
C117 H82 0.929 . S
C117 C112 1.371 . S
C117 C116 1.382 . S
C118 N86 1.423 . S
C118 C119 1.362 . S
C118 C123 1.388 . S
C119 H83 0.929 . S
C119 C118 1.362 . S
C119 C120 1.376 . S
C120 H84 0.931 . S
C120 C119 1.376 . S
C120 C121 1.396 . S
C121 C103 1.472 . S
C121 C120 1.396 . S
C121 C122 1.348 . S
C122 H85 0.929 . S
C122 C121 1.348 . S
C122 C123 1.443 . S
C123 H87 0.932 . S
C123 C118 1.388 . S
C123 C122 1.443 . S
H124 C151 0.929 . S
N125 C150 1.433 . S
N125 C156 1.435 . S
N125 C162 1.423 . S
H126 C152 0.930 . S
H127 C155 0.931 . S
H128 C154 0.929 . S
H129 C157 0.930 . S
H130 C158 0.932 . S
H131 C161 0.929 . S
H132 C160 0.931 . S
H133 C163 0.929 . S
H134 C167 0.932 . S
H135 C164 0.931 . S
H136 C166 0.929 . S
H137 C169 0.929 . S
H138 C170 0.930 . S
H139 C172 0.929 . S
H140 C173 0.931 . S
H141 C175 0.930 . S
H142 C176 0.932 . S
H143 C178 0.931 . S
H144 C179 0.929 . S
H145 C181 0.929 . S
H146 C182 0.931 . S
H147 C184 0.929 . S
N148 C168 1.433 . S
N148 C174 1.435 . S
N148 C180 1.423 . S
H149 C185 0.932 . S
C150 N125 1.433 . S
C150 C151 1.363 . S
C150 C155 1.370 . S
C151 H124 0.929 . S
C151 C150 1.363 . S
C151 C152 1.385 . S
C152 H126 0.930 . S
C152 C151 1.385 . S
C152 C153 1.357 . S
C153 C152 1.357 . S
C153 C154 1.406 . S
C154 H128 0.929 . S
C154 C153 1.406 . S
C154 C155 1.391 . S
C155 H127 0.931 . S
C155 C150 1.370 . S
C155 C154 1.391 . S
C156 N125 1.435 . S
C156 C157 1.358 . S
C156 C161 1.371 . S
C157 H129 0.930 . S
C157 C156 1.358 . S
C157 C158 1.405 . S
C158 H130 0.932 . S
C158 C157 1.405 . S
C158 C159 1.383 . S
C159 C158 1.383 . S
C159 C160 1.393 . S
C160 H132 0.931 . S
C160 C159 1.393 . S
C160 C161 1.382 . S
C161 H131 0.929 . S
C161 C156 1.371 . S
C161 C160 1.382 . S
C162 N125 1.423 . S
C162 C163 1.362 . S
C162 C167 1.388 . S
C163 H133 0.929 . S
C163 C162 1.362 . S
C163 C164 1.376 . S
C164 H135 0.931 . S
C164 C163 1.376 . S
C164 C165 1.396 . S
C165 C164 1.396 . S
C165 C166 1.348 . S
C165 C183 1.472 . S
C166 H136 0.929 . S
C166 C165 1.348 . S
C166 C167 1.443 . S
C167 H134 0.932 . S
C167 C162 1.388 . S
C167 C166 1.443 . S
C168 N148 1.433 . S
C168 C169 1.363 . S
C168 C173 1.370 . S
C169 H137 0.929 . S
C169 C168 1.363 . S
C169 C170 1.385 . S
C170 H138 0.930 . S
C170 C169 1.385 . S
C170 C171 1.357 . S
C171 C170 1.357 . S
C171 C172 1.406 . S
C172 H139 0.929 . S
C172 C171 1.406 . S
C172 C173 1.391 . S
C173 H140 0.931 . S
C173 C168 1.370 . S
C173 C172 1.391 . S
C174 N148 1.435 . S
C174 C175 1.358 . S
C174 C179 1.371 . S
C175 H141 0.930 . S
C175 C174 1.358 . S
C175 C176 1.405 . S
C176 H142 0.932 . S
C176 C175 1.405 . S
C176 C177 1.383 . S
C177 C176 1.383 . S
C177 C178 1.393 . S
C178 H143 0.931 . S
C178 C177 1.393 . S
C178 C179 1.382 . S
C179 H144 0.929 . S
C179 C174 1.371 . S
C179 C178 1.382 . S
C180 N148 1.423 . S
C180 C181 1.362 . S
C180 C185 1.388 . S
C181 H145 0.929 . S
C181 C180 1.362 . S
C181 C182 1.376 . S
C182 H146 0.931 . S
C182 C181 1.376 . S
C182 C183 1.396 . S
C183 C165 1.472 . S
C183 C182 1.396 . S
C183 C184 1.348 . S
C184 H147 0.929 . S
C184 C183 1.348 . S
C184 C185 1.443 . S
C185 H149 0.932 . S
C185 C180 1.388 . S
C185 C184 1.443 . S
H186 C213 0.929 . S
N187 C212 1.433 . S
N187 C218 1.435 . S
N187 C224 1.423 . S
H188 C214 0.930 . S
H189 C217 0.931 . S
H190 C216 0.929 . S
H191 C219 0.930 . S
H192 C220 0.932 . S
H193 C223 0.929 . S
H194 C222 0.931 . S
H195 C225 0.929 . S
H196 C229 0.932 . S
H197 C226 0.931 . S
H198 C228 0.929 . S
H199 C231 0.929 . S
H200 C232 0.930 . S
H201 C234 0.929 . S
H202 C235 0.931 . S
H203 C237 0.930 . S
H204 C238 0.932 . S
H205 C240 0.931 . S
H206 C241 0.929 . S
H207 C243 0.929 . S
H208 C244 0.931 . S
H209 C246 0.929 . S
N210 C230 1.433 . S
N210 C236 1.435 . S
N210 C242 1.423 . S
H211 C247 0.932 . S
C212 N187 1.433 . S
C212 C213 1.363 . S
C212 C217 1.370 . S
C213 H186 0.929 . S
C213 C212 1.363 . S
C213 C214 1.385 . S
C214 H188 0.930 . S
C214 C213 1.385 . S
C214 C215 1.357 . S
C215 C214 1.357 . S
C215 C216 1.406 . S
C216 H190 0.929 . S
C216 C215 1.406 . S
C216 C217 1.391 . S
C217 H189 0.931 . S
C217 C212 1.370 . S
C217 C216 1.391 . S
C218 N187 1.435 . S
C218 C219 1.358 . S
C218 C223 1.371 . S
C219 H191 0.930 . S
C219 C218 1.358 . S
C219 C220 1.405 . S
C220 H192 0.932 . S
C220 C219 1.405 . S
C220 C221 1.383 . S
C221 C220 1.383 . S
C221 C222 1.393 . S
C222 H194 0.931 . S
C222 C221 1.393 . S
C222 C223 1.382 . S
C223 H193 0.929 . S
C223 C218 1.371 . S
C223 C222 1.382 . S
C224 N187 1.423 . S
C224 C225 1.362 . S
C224 C229 1.388 . S
C225 H195 0.929 . S
C225 C224 1.362 . S
C225 C226 1.376 . S
C226 H197 0.931 . S
C226 C225 1.376 . S
C226 C227 1.396 . S
C227 C226 1.396 . S
C227 C228 1.348 . S
C227 C245 1.472 . S
C228 H198 0.929 . S
C228 C227 1.348 . S
C228 C229 1.443 . S
C229 H196 0.932 . S
C229 C224 1.388 . S
C229 C228 1.443 . S
C230 N210 1.433 . S
C230 C231 1.363 . S
C230 C235 1.370 . S
C231 H199 0.929 . S
C231 C230 1.363 . S
C231 C232 1.385 . S
C232 H200 0.930 . S
C232 C231 1.385 . S
C232 C233 1.357 . S
C233 C232 1.357 . S
C233 C234 1.406 . S
C234 H201 0.929 . S
C234 C233 1.406 . S
C234 C235 1.391 . S
C235 H202 0.931 . S
C235 C230 1.370 . S
C235 C234 1.391 . S
C236 N210 1.435 . S
C236 C237 1.358 . S
C236 C241 1.371 . S
C237 H203 0.930 . S
C237 C236 1.358 . S
C237 C238 1.405 . S
C238 H204 0.932 . S
C238 C237 1.405 . S
C238 C239 1.383 . S
C239 C238 1.383 . S
C239 C240 1.393 . S
C240 H205 0.931 . S
C240 C239 1.393 . S
C240 C241 1.382 . S
C241 H206 0.929 . S
C241 C236 1.371 . S
C241 C240 1.382 . S
C242 N210 1.423 . S
C242 C243 1.362 . S
C242 C247 1.388 . S
C243 H207 0.929 . S
C243 C242 1.362 . S
C243 C244 1.376 . S
C244 H208 0.931 . S
C244 C243 1.376 . S
C244 C245 1.396 . S
C245 C227 1.472 . S
C245 C244 1.396 . S
C245 C246 1.348 . S
C246 H209 0.929 . S
C246 C245 1.348 . S
C246 C247 1.443 . S
C247 H211 0.932 . S
C247 C242 1.388 . S
C247 C246 1.443 . S
H248 C275 0.929 . S
N249 C274 1.433 . S
N249 C280 1.435 . S
N249 C286 1.423 . S
H250 C276 0.930 . S
H251 C279 0.931 . S
H252 C278 0.929 . S
H253 C281 0.930 . S
H254 C282 0.932 . S
H255 C285 0.929 . S
H256 C284 0.931 . S
H257 C287 0.929 . S
H258 C291 0.932 . S
H259 C288 0.931 . S
H260 C290 0.929 . S
H261 C293 0.929 . S
H262 C294 0.930 . S
H263 C296 0.929 . S
H264 C297 0.931 . S
H265 C299 0.930 . S
H266 C300 0.932 . S
H267 C302 0.931 . S
H268 C303 0.929 . S
H269 C305 0.929 . S
H270 C306 0.931 . S
H271 C308 0.929 . S
N272 C292 1.433 . S
N272 C298 1.435 . S
N272 C304 1.423 . S
H273 C309 0.932 . S
C274 N249 1.433 . S
C274 C275 1.363 . S
C274 C279 1.370 . S
C275 H248 0.929 . S
C275 C274 1.363 . S
C275 C276 1.385 . S
C276 H250 0.930 . S
C276 C275 1.385 . S
C276 C277 1.357 . S
C277 C276 1.357 . S
C277 C278 1.406 . S
C278 H252 0.929 . S
C278 C277 1.406 . S
C278 C279 1.391 . S
C279 H251 0.931 . S
C279 C274 1.370 . S
C279 C278 1.391 . S
C280 N249 1.435 . S
C280 C281 1.358 . S
C280 C285 1.371 . S
C281 H253 0.930 . S
C281 C280 1.358 . S
C281 C282 1.405 . S
C282 H254 0.932 . S
C282 C281 1.405 . S
C282 C283 1.383 . S
C283 C282 1.383 . S
C283 C284 1.393 . S
C284 H256 0.931 . S
C284 C283 1.393 . S
C284 C285 1.382 . S
C285 H255 0.929 . S
C285 C280 1.371 . S
C285 C284 1.382 . S
C286 N249 1.423 . S
C286 C287 1.362 . S
C286 C291 1.388 . S
C287 H257 0.929 . S
C287 C286 1.362 . S
C287 C288 1.376 . S
C288 H259 0.931 . S
C288 C287 1.376 . S
C288 C289 1.396 . S
C289 C288 1.396 . S
C289 C290 1.348 . S
C289 C307 1.472 . S
C290 H260 0.929 . S
C290 C289 1.348 . S
C290 C291 1.443 . S
C291 H258 0.932 . S
C291 C286 1.388 . S
C291 C290 1.443 . S
C292 N272 1.433 . S
C292 C293 1.363 . S
C292 C297 1.370 . S
C293 H261 0.929 . S
C293 C292 1.363 . S
C293 C294 1.385 . S
C294 H262 0.930 . S
C294 C293 1.385 . S
C294 C295 1.357 . S
C295 C294 1.357 . S
C295 C296 1.406 . S
C296 H263 0.929 . S
C296 C295 1.406 . S
C296 C297 1.391 . S
C297 H264 0.931 . S
C297 C292 1.370 . S
C297 C296 1.391 . S
C298 N272 1.435 . S
C298 C299 1.358 . S
C298 C303 1.371 . S
C299 H265 0.930 . S
C299 C298 1.358 . S
C299 C300 1.405 . S
C300 H266 0.932 . S
C300 C299 1.405 . S
C300 C301 1.383 . S
C301 C300 1.383 . S
C301 C302 1.393 . S
C302 H267 0.931 . S
C302 C301 1.393 . S
C302 C303 1.382 . S
C303 H268 0.929 . S
C303 C298 1.371 . S
C303 C302 1.382 . S
C304 N272 1.423 . S
C304 C305 1.362 . S
C304 C309 1.388 . S
C305 H269 0.929 . S
C305 C304 1.362 . S
C305 C306 1.376 . S
C306 H270 0.931 . S
C306 C305 1.376 . S
C306 C307 1.396 . S
C307 C289 1.472 . S
C307 C306 1.396 . S
C307 C308 1.348 . S
C308 H271 0.929 . S
C308 C307 1.348 . S
C308 C309 1.443 . S
C309 H273 0.932 . S
C309 C304 1.388 . S
C309 C308 1.443 . S
H310 C337 0.929 . S
N311 C336 1.433 . S
N311 C342 1.435 . S
N311 C348 1.423 . S
H312 C338 0.930 . S
H313 C341 0.931 . S
H314 C340 0.929 . S
H315 C343 0.930 . S
H316 C344 0.932 . S
H317 C347 0.929 . S
H318 C346 0.931 . S
H319 C349 0.929 . S
H320 C353 0.932 . S
H321 C350 0.931 . S
H322 C352 0.929 . S
H323 C355 0.929 . S
H324 C356 0.930 . S
H325 C358 0.929 . S
H326 C359 0.931 . S
H327 C361 0.930 . S
H328 C362 0.932 . S
H329 C364 0.931 . S
H330 C365 0.929 . S
H331 C367 0.929 . S
H332 C368 0.931 . S
H333 C370 0.929 . S
N334 C354 1.433 . S
N334 C360 1.435 . S
N334 C366 1.423 . S
H335 C371 0.932 . S
C336 N311 1.433 . S
C336 C337 1.363 . S
C336 C341 1.370 . S
C337 H310 0.929 . S
C337 C336 1.363 . S
C337 C338 1.385 . S
C338 H312 0.930 . S
C338 C337 1.385 . S
C338 C339 1.357 . S
C339 C338 1.357 . S
C339 C340 1.406 . S
C340 H314 0.929 . S
C340 C339 1.406 . S
C340 C341 1.391 . S
C341 H313 0.931 . S
C341 C336 1.370 . S
C341 C340 1.391 . S
C342 N311 1.435 . S
C342 C343 1.358 . S
C342 C347 1.371 . S
C343 H315 0.930 . S
C343 C342 1.358 . S
C343 C344 1.405 . S
C344 H316 0.932 . S
C344 C343 1.405 . S
C344 C345 1.383 . S
C345 C344 1.383 . S
C345 C346 1.393 . S
C346 H318 0.931 . S
C346 C345 1.393 . S
C346 C347 1.382 . S
C347 H317 0.929 . S
C347 C342 1.371 . S
C347 C346 1.382 . S
C348 N311 1.423 . S
C348 C349 1.362 . S
C348 C353 1.388 . S
C349 H319 0.929 . S
C349 C348 1.362 . S
C349 C350 1.376 . S
C350 H321 0.931 . S
C350 C349 1.376 . S
C350 C351 1.396 . S
C351 C350 1.396 . S
C351 C352 1.348 . S
C351 C369 1.472 . S
C352 H322 0.929 . S
C352 C351 1.348 . S
C352 C353 1.443 . S
C353 H320 0.932 . S
C353 C348 1.388 . S
C353 C352 1.443 . S
C354 N334 1.433 . S
C354 C355 1.363 . S
C354 C359 1.370 . S
C355 H323 0.929 . S
C355 C354 1.363 . S
C355 C356 1.385 . S
C356 H324 0.930 . S
C356 C355 1.385 . S
C356 C357 1.357 . S
C357 C356 1.357 . S
C357 C358 1.406 . S
C358 H325 0.929 . S
C358 C357 1.406 . S
C358 C359 1.391 . S
C359 H326 0.931 . S
C359 C354 1.370 . S
C359 C358 1.391 . S
C360 N334 1.435 . S
C360 C361 1.358 . S
C360 C365 1.371 . S
C361 H327 0.930 . S
C361 C360 1.358 . S
C361 C362 1.405 . S
C362 H328 0.932 . S
C362 C361 1.405 . S
C362 C363 1.383 . S
C363 C362 1.383 . S
C363 C364 1.393 . S
C364 H329 0.931 . S
C364 C363 1.393 . S
C364 C365 1.382 . S
C365 H330 0.929 . S
C365 C360 1.371 . S
C365 C364 1.382 . S
C366 N334 1.423 . S
C366 C367 1.362 . S
C366 C371 1.388 . S
C367 H331 0.929 . S
C367 C366 1.362 . S
C367 C368 1.376 . S
C368 H332 0.931 . S
C368 C367 1.376 . S
C368 C369 1.396 . S
C369 C351 1.472 . S
C369 C368 1.396 . S
C369 C370 1.348 . S
C370 H333 0.929 . S
C370 C369 1.348 . S
C370 C371 1.443 . S
C371 H335 0.932 . S
C371 C366 1.388 . S
C371 C370 1.443 . S
H372 C399 0.929 . S
N373 C398 1.433 . S
N373 C404 1.435 . S
N373 C410 1.423 . S
H374 C400 0.930 . S
H375 C403 0.931 . S
H376 C402 0.929 . S
H377 C405 0.930 . S
H378 C406 0.932 . S
H379 C409 0.929 . S
H380 C408 0.931 . S
H381 C411 0.929 . S
H382 C415 0.932 . S
H383 C412 0.931 . S
H384 C414 0.929 . S
H385 C417 0.929 . S
H386 C418 0.930 . S
H387 C420 0.929 . S
H388 C421 0.931 . S
H389 C423 0.930 . S
H390 C424 0.932 . S
H391 C426 0.931 . S
H392 C427 0.929 . S
H393 C429 0.929 . S
H394 C430 0.931 . S
H395 C432 0.929 . S
N396 C416 1.433 . S
N396 C422 1.435 . S
N396 C428 1.423 . S
H397 C433 0.932 . S
C398 N373 1.433 . S
C398 C399 1.363 . S
C398 C403 1.370 . S
C399 H372 0.929 . S
C399 C398 1.363 . S
C399 C400 1.385 . S
C400 H374 0.930 . S
C400 C399 1.385 . S
C400 C401 1.357 . S
C401 C400 1.357 . S
C401 C402 1.406 . S
C402 H376 0.929 . S
C402 C401 1.406 . S
C402 C403 1.391 . S
C403 H375 0.931 . S
C403 C398 1.370 . S
C403 C402 1.391 . S
C404 N373 1.435 . S
C404 C405 1.358 . S
C404 C409 1.371 . S
C405 H377 0.930 . S
C405 C404 1.358 . S
C405 C406 1.405 . S
C406 H378 0.932 . S
C406 C405 1.405 . S
C406 C407 1.383 . S
C407 C406 1.383 . S
C407 C408 1.393 . S
C408 H380 0.931 . S
C408 C407 1.393 . S
C408 C409 1.382 . S
C409 H379 0.929 . S
C409 C404 1.371 . S
C409 C408 1.382 . S
C410 N373 1.423 . S
C410 C411 1.362 . S
C410 C415 1.388 . S
C411 H381 0.929 . S
C411 C410 1.362 . S
C411 C412 1.376 . S
C412 H383 0.931 . S
C412 C411 1.376 . S
C412 C413 1.396 . S
C413 C412 1.396 . S
C413 C414 1.348 . S
C413 C431 1.472 . S
C414 H384 0.929 . S
C414 C413 1.348 . S
C414 C415 1.443 . S
C415 H382 0.932 . S
C415 C410 1.388 . S
C415 C414 1.443 . S
C416 N396 1.433 . S
C416 C417 1.363 . S
C416 C421 1.370 . S
C417 H385 0.929 . S
C417 C416 1.363 . S
C417 C418 1.385 . S
C418 H386 0.930 . S
C418 C417 1.385 . S
C418 C419 1.357 . S
C419 C418 1.357 . S
C419 C420 1.406 . S
C420 H387 0.929 . S
C420 C419 1.406 . S
C420 C421 1.391 . S
C421 H388 0.931 . S
C421 C416 1.370 . S
C421 C420 1.391 . S
C422 N396 1.435 . S
C422 C423 1.358 . S
C422 C427 1.371 . S
C423 H389 0.930 . S
C423 C422 1.358 . S
C423 C424 1.405 . S
C424 H390 0.932 . S
C424 C423 1.405 . S
C424 C425 1.383 . S
C425 C424 1.383 . S
C425 C426 1.393 . S
C426 H391 0.931 . S
C426 C425 1.393 . S
C426 C427 1.382 . S
C427 H392 0.929 . S
C427 C422 1.371 . S
C427 C426 1.382 . S
C428 N396 1.423 . S
C428 C429 1.362 . S
C428 C433 1.388 . S
C429 H393 0.929 . S
C429 C428 1.362 . S
C429 C430 1.376 . S
C430 H394 0.931 . S
C430 C429 1.376 . S
C430 C431 1.396 . S
C431 C413 1.472 . S
C431 C430 1.396 . S
C431 C432 1.348 . S
C432 H395 0.929 . S
C432 C431 1.348 . S
C432 C433 1.443 . S
C433 H397 0.932 . S
C433 C428 1.388 . S
C433 C432 1.443 . S
H434 C461 0.929 . S
N435 C460 1.433 . S
N435 C466 1.435 . S
N435 C472 1.423 . S
H436 C462 0.930 . S
H437 C465 0.931 . S
H438 C464 0.929 . S
H439 C467 0.930 . S
H440 C468 0.932 . S
H441 C471 0.929 . S
H442 C470 0.931 . S
H443 C473 0.929 . S
H444 C477 0.932 . S
H445 C474 0.931 . S
H446 C476 0.929 . S
H447 C479 0.929 . S
H448 C480 0.930 . S
H449 C482 0.929 . S
H450 C483 0.931 . S
H451 C485 0.930 . S
H452 C486 0.932 . S
H453 C488 0.931 . S
H454 C489 0.929 . S
H455 C491 0.929 . S
H456 C492 0.931 . S
H457 C494 0.929 . S
N458 C478 1.433 . S
N458 C484 1.435 . S
N458 C490 1.423 . S
H459 C495 0.932 . S
C460 N435 1.433 . S
C460 C461 1.363 . S
C460 C465 1.370 . S
C461 H434 0.929 . S
C461 C460 1.363 . S
C461 C462 1.385 . S
C462 H436 0.930 . S
C462 C461 1.385 . S
C462 C463 1.357 . S
C463 C462 1.357 . S
C463 C464 1.406 . S
C464 H438 0.929 . S
C464 C463 1.406 . S
C464 C465 1.391 . S
C465 H437 0.931 . S
C465 C460 1.370 . S
C465 C464 1.391 . S
C466 N435 1.435 . S
C466 C467 1.358 . S
C466 C471 1.371 . S
C467 H439 0.930 . S
C467 C466 1.358 . S
C467 C468 1.405 . S
C468 H440 0.932 . S
C468 C467 1.405 . S
C468 C469 1.383 . S
C469 C468 1.383 . S
C469 C470 1.393 . S
C470 H442 0.931 . S
C470 C469 1.393 . S
C470 C471 1.382 . S
C471 H441 0.929 . S
C471 C466 1.371 . S
C471 C470 1.382 . S
C472 N435 1.423 . S
C472 C473 1.362 . S
C472 C477 1.388 . S
C473 H443 0.929 . S
C473 C472 1.362 . S
C473 C474 1.376 . S
C474 H445 0.931 . S
C474 C473 1.376 . S
C474 C475 1.396 . S
C475 C474 1.396 . S
C475 C476 1.348 . S
C475 C493 1.472 . S
C476 H446 0.929 . S
C476 C475 1.348 . S
C476 C477 1.443 . S
C477 H444 0.932 . S
C477 C472 1.388 . S
C477 C476 1.443 . S
C478 N458 1.433 . S
C478 C479 1.363 . S
C478 C483 1.370 . S
C479 H447 0.929 . S
C479 C478 1.363 . S
C479 C480 1.385 . S
C480 H448 0.930 . S
C480 C479 1.385 . S
C480 C481 1.357 . S
C481 C480 1.357 . S
C481 C482 1.406 . S
C482 H449 0.929 . S
C482 C481 1.406 . S
C482 C483 1.391 . S
C483 H450 0.931 . S
C483 C478 1.370 . S
C483 C482 1.391 . S
C484 N458 1.435 . S
C484 C485 1.358 . S
C484 C489 1.371 . S
C485 H451 0.930 . S
C485 C484 1.358 . S
C485 C486 1.405 . S
C486 H452 0.932 . S
C486 C485 1.405 . S
C486 C487 1.383 . S
C487 C486 1.383 . S
C487 C488 1.393 . S
C488 H453 0.931 . S
C488 C487 1.393 . S
C488 C489 1.382 . S
C489 H454 0.929 . S
C489 C484 1.371 . S
C489 C488 1.382 . S
C490 N458 1.423 . S
C490 C491 1.362 . S
C490 C495 1.388 . S
C491 H455 0.929 . S
C491 C490 1.362 . S
C491 C492 1.376 . S
C492 H456 0.931 . S
C492 C491 1.376 . S
C492 C493 1.396 . S
C493 C475 1.472 . S
C493 C492 1.396 . S
C493 C494 1.348 . S
C494 H457 0.929 . S
C494 C493 1.348 . S
C494 C495 1.443 . S
C495 H459 0.932 . S
C495 C490 1.388 . S
C495 C494 1.443 . S
C496 C497 1.443 . S
C496 N500 1.376 . S
C496 C534 1.389 . S
C497 C496 1.443 . S
C497 C498 1.340 . S
C497 H537 0.951 . S
C498 C497 1.340 . S
C498 C499 1.439 . S
C498 H538 0.950 . S
C499 C498 1.439 . S
C499 N500 1.374 . S
C499 C533 1.395 . S
N500 C496 1.376 . S
N500 C499 1.374 . S
N500 Co501 2.008 . S
Co501 N500 2.008 . S
Co501 N502 1.995 1_455 S
Co501 N507 2.008 1_455 S
Co501 N512 1.995 . S
Co501 N517 2.282 1_455 S
Co501 N523 2.282 . S
N502 Co501 1.995 1_655 S
N502 C503 1.369 1_655 S
N502 C506 1.383 . S
C503 N502 1.369 1_455 S
C503 C504 1.409 1_455 S
C503 C533 1.430 . S
C504 C503 1.409 1_655 S
C504 C505 1.339 . S
C504 H539 0.949 . S
C505 C504 1.339 . S
C505 C506 1.439 . S
C505 H540 0.950 . S
C506 N502 1.383 . S
C506 C505 1.439 . S
C506 C535 1.392 . S
N507 Co501 2.008 1_655 S
N507 C508 1.376 . S
N507 C511 1.374 . S
C508 N507 1.376 . S
C508 C509 1.443 . S
C508 C535 1.389 . S
C509 C508 1.443 . S
C509 C510 1.340 . S
C509 H541 0.951 . S
C510 C509 1.340 . S
C510 C511 1.439 . S
C510 H542 0.950 . S
C511 N507 1.374 . S
C511 C510 1.439 . S
C511 C536 1.395 1_655 S
N512 Co501 1.995 . S
N512 C513 1.376 . S
N512 C516 1.383 . S
C513 N512 1.376 . S
C513 C514 1.446 . S
C513 C536 1.391 . S
C514 C513 1.446 . S
C514 C515 1.339 . S
C514 H543 0.949 . S
C515 C514 1.339 . S
C515 C516 1.439 . S
C515 H544 0.950 . S
C516 N512 1.383 . S
C516 C515 1.439 . S
C516 C534 1.392 . S
N517 Co501 2.282 1_655 S
N517 C520 1.332 . S
N517 C522 1.332 . S
C518 C519 1.386 . S
C518 C521 1.388 . S
C519 C518 1.386 . S
C519 C520 1.382 . S
C519 H545 0.950 . S
C520 N517 1.332 . S
C520 C519 1.382 . S
C520 H531 0.952 . S
C521 C518 1.388 . S
C521 C522 1.382 . S
C521 H546 0.950 . S
C522 N517 1.332 . S
C522 C521 1.382 . S
C522 H532 0.948 . S
N523 Co501 2.282 . S
N523 C527 1.332 . S
N523 C528 1.332 . S
C524 C525 1.388 . S
C524 C528 1.382 . S
C524 H547 0.950 . S
C525 C524 1.388 . S
C525 C526 1.386 . S
C526 C525 1.386 . S
C526 C527 1.382 . S
C526 H548 0.950 . S
C527 N523 1.332 . S
C527 C526 1.382 . S
C527 H529 0.952 . S
C528 N523 1.332 . S
C528 C524 1.382 . S
C528 H530 0.948 . S
H529 C527 0.952 . S
H530 C528 0.948 . S
H531 C520 0.952 . S
H532 C522 0.948 . S
C533 C499 1.395 . S
C533 C503 1.430 . S
C534 C496 1.389 . S
C534 C516 1.392 . S
C535 C506 1.392 . S
C535 C508 1.389 . S
C536 C511 1.395 1_455 S
C536 C513 1.391 . S
H537 C497 0.951 . S
H538 C498 0.950 . S
H539 C504 0.949 . S
H540 C505 0.950 . S
H541 C509 0.951 . S
H542 C510 0.950 . S
H543 C514 0.949 . S
H544 C515 0.950 . S
H545 C519 0.950 . S
H546 C521 0.950 . S
H547 C524 0.950 . S
H548 C526 0.950 . S
C549 C550 1.443 . S
C549 N553 1.376 . S
C549 C587 1.389 . S
C550 C549 1.443 . S
C550 C551 1.340 . S
C550 H590 0.951 . S
C551 C550 1.340 . S
C551 C552 1.439 . S
C551 H591 0.950 . S
C552 C551 1.439 . S
C552 N553 1.374 . S
C552 C586 1.395 . S
N553 C549 1.376 . S
N553 C552 1.374 . S
N553 Co554 2.008 . S
Co554 N553 2.008 . S
Co554 N555 1.968 1_545 S
Co554 N560 2.008 1_545 S
Co554 N565 1.995 . S
Co554 N570 2.282 1_545 S
Co554 N576 2.282 . S
N555 Co554 1.968 1_565 S
N555 C556 1.369 1_565 S
N555 C559 1.430 . S
C556 N555 1.369 1_545 S
C556 C557 1.446 1_545 S
C556 C586 1.391 . S
C557 C556 1.446 1_565 S
C557 C558 1.339 . S
C557 H592 0.949 . S
C558 C557 1.339 . S
C558 C559 1.439 . S
C558 H593 0.950 . S
C559 N555 1.430 . S
C559 C558 1.439 . S
C559 C588 1.392 . S
N560 Co554 2.008 1_565 S
N560 C561 1.376 . S
N560 C564 1.374 . S
C561 N560 1.376 . S
C561 C562 1.443 . S
C561 C588 1.389 . S
C562 C561 1.443 . S
C562 C563 1.340 . S
C562 H594 0.951 . S
C563 C562 1.340 . S
C563 C564 1.439 . S
C563 H595 0.950 . S
C564 N560 1.374 . S
C564 C563 1.439 . S
C564 C589 1.395 1_565 S
N565 Co554 1.995 . S
N565 C566 1.376 . S
N565 C569 1.383 . S
C566 N565 1.376 . S
C566 C567 1.446 . S
C566 C589 1.391 . S
C567 C566 1.446 . S
C567 C568 1.339 . S
C567 H596 0.949 . S
C568 C567 1.339 . S
C568 C569 1.439 . S
C568 H597 0.950 . S
C569 N565 1.383 . S
C569 C568 1.439 . S
C569 C587 1.392 . S
N570 Co554 2.282 1_565 S
N570 C573 1.332 . S
N570 C575 1.332 . S
C571 C572 1.386 . S
C571 C574 1.388 . S
C572 C571 1.386 . S
C572 C573 1.382 . S
C572 H598 0.950 . S
C573 N570 1.332 . S
C573 C572 1.382 . S
C573 H584 0.952 . S
C574 C571 1.388 . S
C574 C575 1.382 . S
C574 H599 0.950 . S
C575 N570 1.332 . S
C575 C574 1.382 . S
C575 H585 0.948 . S
N576 Co554 2.282 . S
N576 C580 1.332 . S
N576 C581 1.332 . S
C577 C578 1.388 . S
C577 C581 1.382 . S
C577 H600 0.950 . S
C578 C577 1.388 . S
C578 C579 1.386 . S
C579 C578 1.386 . S
C579 C580 1.382 . S
C579 H601 0.950 . S
C580 N576 1.332 . S
C580 C579 1.382 . S
C580 H582 0.952 . S
C581 N576 1.332 . S
C581 C577 1.382 . S
C581 H583 0.948 . S
H582 C580 0.952 . S
H583 C581 0.948 . S
H584 C573 0.952 . S
H585 C575 0.948 . S
C586 C552 1.395 . S
C586 C556 1.391 . S
C587 C549 1.389 . S
C587 C569 1.392 . S
C588 C559 1.392 . S
C588 C561 1.389 . S
C589 C564 1.395 1_545 S
C589 C566 1.391 . S
H590 C550 0.951 . S
H591 C551 0.950 . S
H592 C557 0.949 . S
H593 C558 0.950 . S
H594 C562 0.951 . S
H595 C563 0.950 . S
H596 C567 0.949 . S
H597 C568 0.950 . S
H598 C572 0.950 . S
H599 C574 0.950 . S
H600 C577 0.950 . S
H601 C579 0.950 . S
C602 C603 1.443 . S
C602 N606 1.376 . S
C602 C640 1.389 . S
C603 C602 1.443 . S
C603 C604 1.340 . S
C603 H643 0.951 . S
C604 C603 1.340 . S
C604 C605 1.439 . S
C604 H644 0.950 . S
C605 C604 1.439 . S
C605 N606 1.374 . S
C605 C639 1.395 . S
N606 C602 1.376 . S
N606 C605 1.374 . S
N606 Co607 2.008 . S
Co607 N606 2.008 . S
Co607 N608 1.995 1_455 S
Co607 N613 2.008 1_455 S
Co607 N618 1.995 . S
Co607 N623 2.282 1_455 S
Co607 N629 2.282 . S
N608 Co607 1.995 1_655 S
N608 C609 1.376 . S
N608 C612 1.383 . S
C609 N608 1.376 . S
C609 C610 1.446 . S
C609 C639 1.391 1_655 S
C610 C609 1.446 . S
C610 C611 1.339 . S
C610 H645 0.949 . S
C611 C610 1.339 . S
C611 C612 1.439 . S
C611 H646 0.950 . S
C612 N608 1.383 . S
C612 C611 1.439 . S
C612 C641 1.392 . S
N613 Co607 2.008 1_655 S
N613 C614 1.376 . S
N613 C617 1.374 . S
C614 N613 1.376 . S
C614 C615 1.443 . S
C614 C641 1.389 . S
C615 C614 1.443 . S
C615 C616 1.340 . S
C615 H647 0.951 . S
C616 C615 1.340 . S
C616 C617 1.439 . S
C616 H648 0.950 . S
C617 N613 1.374 . S
C617 C616 1.439 . S
C617 C642 1.395 1_655 S
N618 Co607 1.995 . S
N618 C619 1.376 . S
N618 C622 1.383 . S
C619 N618 1.376 . S
C619 C620 1.446 . S
C619 C642 1.391 . S
C620 C619 1.446 . S
C620 C621 1.339 . S
C620 H649 0.949 . S
C621 C620 1.339 . S
C621 C622 1.439 . S
C621 H650 0.950 . S
C622 N618 1.383 . S
C622 C621 1.439 . S
C622 C640 1.392 . S
N623 Co607 2.282 1_655 S
N623 C626 1.332 . S
N623 C628 1.332 . S
C624 C625 1.386 . S
C624 C627 1.388 . S
C625 C624 1.386 . S
C625 C626 1.382 . S
C625 H651 0.950 . S
C626 N623 1.332 . S
C626 C625 1.382 . S
C626 H637 0.952 . S
C627 C624 1.388 . S
C627 C628 1.382 . S
C627 H652 0.950 . S
C628 N623 1.332 . S
C628 C627 1.382 . S
C628 H638 0.948 . S
N629 Co607 2.282 . S
N629 C633 1.332 . S
N629 C634 1.332 . S
C630 C631 1.388 . S
C630 C634 1.382 . S
C630 H653 0.950 . S
C631 C630 1.388 . S
C631 C632 1.386 . S
C632 C631 1.386 . S
C632 C633 1.382 . S
C632 H654 0.950 . S
C633 N629 1.332 . S
C633 C632 1.382 . S
C633 H635 0.952 . S
C634 N629 1.332 . S
C634 C630 1.382 . S
C634 H636 0.948 . S
H635 C633 0.952 . S
H636 C634 0.948 . S
H637 C626 0.952 . S
H638 C628 0.948 . S
C639 C605 1.395 . S
C639 C609 1.391 1_455 S
C640 C602 1.389 . S
C640 C622 1.392 . S
C641 C612 1.392 . S
C641 C614 1.389 . S
C642 C617 1.395 1_455 S
C642 C619 1.391 . S
H643 C603 0.951 . S
H644 C604 0.950 . S
H645 C610 0.949 . S
H646 C611 0.950 . S
H647 C615 0.951 . S
H648 C616 0.950 . S
H649 C620 0.949 . S
H650 C621 0.950 . S
H651 C625 0.950 . S
H652 C627 0.950 . S
H653 C630 0.950 . S
H654 C632 0.950 . S
C655 C656 1.443 . S
C655 N659 1.376 . S
C655 C693 1.389 . S
C656 C655 1.443 . S
C656 C657 1.340 . S
C656 H696 0.951 . S
C657 C656 1.340 . S
C657 C658 1.439 . S
C657 H697 0.950 . S
C658 C657 1.439 . S
C658 N659 1.374 . S
C658 C692 1.395 1_565 S
N659 C655 1.376 . S
N659 C658 1.374 . S
N659 Co660 2.008 1_565 S
Co660 N659 2.008 1_545 S
Co660 N661 1.995 . S
Co660 N666 2.008 . S
Co660 N671 1.988 1_545 S
Co660 N676 2.282 . S
Co660 N682 2.282 1_545 S
N661 Co660 1.995 . S
N661 C662 1.376 . S
N661 C665 1.383 . S
C662 N661 1.376 . S
C662 C663 1.446 . S
C662 C692 1.391 . S
C663 C662 1.446 . S
C663 C664 1.339 . S
C663 H698 0.949 . S
C664 C663 1.339 . S
C664 C665 1.439 . S
C664 H699 0.950 . S
C665 N661 1.383 . S
C665 C664 1.439 . S
C665 C694 1.392 . S
N666 Co660 2.008 . S
N666 C667 1.376 . S
N666 C670 1.374 . S
C667 N666 1.376 . S
C667 C668 1.443 . S
C667 C694 1.389 . S
C668 C667 1.443 . S
C668 C669 1.340 . S
C668 H700 0.951 . S
C669 C668 1.340 . S
C669 C670 1.439 . S
C669 H701 0.950 . S
C670 N666 1.374 . S
C670 C669 1.439 . S
C670 C695 1.395 . S
N671 Co660 1.988 1_565 S
N671 C672 1.374 1_565 S
N671 C675 1.394 . S
C672 N671 1.374 1_545 S
C672 C673 1.446 1_545 S
C672 C695 1.391 . S
C673 C672 1.446 1_565 S
C673 C674 1.339 . S
C673 H702 0.949 . S
C674 C673 1.339 . S
C674 C675 1.439 . S
C674 H703 0.950 . S
C675 N671 1.394 . S
C675 C674 1.439 . S
C675 C693 1.392 . S
N676 Co660 2.282 . S
N676 C679 1.332 . S
N676 C681 1.332 . S
C677 C678 1.386 . S
C677 C680 1.388 . S
C678 C677 1.386 . S
C678 C679 1.382 . S
C678 H704 0.950 . S
C679 N676 1.332 . S
C679 C678 1.382 . S
C679 H690 0.952 . S
C680 C677 1.388 . S
C680 C681 1.382 . S
C680 H705 0.950 . S
C681 N676 1.332 . S
C681 C680 1.382 . S
C681 H691 0.948 . S
N682 Co660 2.282 1_565 S
N682 C686 1.332 . S
N682 C687 1.332 . S
C683 C684 1.388 . S
C683 C687 1.382 . S
C683 H706 0.950 . S
C684 C683 1.388 . S
C684 C685 1.386 . S
C685 C684 1.386 . S
C685 C686 1.382 . S
C685 H707 0.950 . S
C686 N682 1.332 . S
C686 C685 1.382 . S
C686 H688 0.952 . S
C687 N682 1.332 . S
C687 C683 1.382 . S
C687 H689 0.948 . S
H688 C686 0.952 . S
H689 C687 0.948 . S
H690 C679 0.952 . S
H691 C681 0.948 . S
C692 C658 1.395 1_545 S
C692 C662 1.391 . S
C693 C655 1.389 . S
C693 C675 1.392 . S
C694 C665 1.392 . S
C694 C667 1.389 . S
C695 C670 1.395 . S
C695 C672 1.391 . S
H696 C656 0.951 . S
H697 C657 0.950 . S
H698 C663 0.949 . S
H699 C664 0.950 . S
H700 C668 0.951 . S
H701 C669 0.950 . S
H702 C673 0.949 . S
H703 C674 0.950 . S
H704 C678 0.950 . S
H705 C680 0.950 . S
H706 C683 0.950 . S
H707 C685 0.950 . S
C708 C709 1.443 . S
C708 N712 1.376 . S
C708 C746 1.389 . S
C709 C708 1.443 . S
C709 C710 1.340 . S
C709 H749 0.951 . S
C710 C709 1.340 . S
C710 C711 1.439 . S
C710 H750 0.950 . S
C711 C710 1.439 . S
C711 N712 1.374 . S
C711 C745 1.395 1_554 S
N712 C708 1.376 . S
N712 C711 1.374 . S
N712 Co713 2.008 . S
Co713 N712 2.008 . S
Co713 N714 1.995 1_554 S
Co713 N719 2.008 1_554 S
Co713 N724 1.995 . S
Co713 N729 2.282 . S
Co713 N735 2.282 1_554 S
N714 Co713 1.995 1_556 S
N714 C715 1.376 . S
N714 C718 1.383 . S
C715 N714 1.376 . S
C715 C716 1.446 . S
C715 C745 1.391 . S
C716 C715 1.446 . S
C716 C717 1.339 . S
C716 H751 0.949 . S
C717 C716 1.339 . S
C717 C718 1.439 . S
C717 H752 0.950 . S
C718 N714 1.383 . S
C718 C717 1.439 . S
C718 C747 1.392 . S
N719 Co713 2.008 1_556 S
N719 C720 1.376 . S
N719 C723 1.374 . S
C720 N719 1.376 . S
C720 C721 1.443 . S
C720 C747 1.389 . S
C721 C720 1.443 . S
C721 C722 1.340 . S
C721 H753 0.951 . S
C722 C721 1.340 . S
C722 C723 1.439 . S
C722 H754 0.950 . S
C723 N719 1.374 . S
C723 C722 1.439 . S
C723 C748 1.395 1_556 S
N724 Co713 1.995 . S
N724 C725 1.376 . S
N724 C728 1.383 . S
C725 N724 1.376 . S
C725 C726 1.446 . S
C725 C748 1.391 . S
C726 C725 1.446 . S
C726 C727 1.339 . S
C726 H755 0.949 . S
C727 C726 1.339 . S
C727 C728 1.439 . S
C727 H756 0.950 . S
C728 N724 1.383 . S
C728 C727 1.439 . S
C728 C746 1.392 . S
N729 Co713 2.282 . S
N729 C732 1.332 . S
N729 C734 1.332 . S
C730 C731 1.386 . S
C730 C733 1.388 . S
C731 C730 1.386 . S
C731 C732 1.382 . S
C731 H757 0.950 . S
C732 N729 1.332 . S
C732 C731 1.382 . S
C732 H743 0.952 . S
C733 C730 1.388 . S
C733 C734 1.382 . S
C733 H758 0.950 . S
C734 N729 1.332 . S
C734 C733 1.382 . S
C734 H744 0.948 . S
N735 Co713 2.282 1_556 S
N735 C739 1.332 . S
N735 C740 1.332 . S
C736 C737 1.388 . S
C736 C740 1.382 . S
C736 H759 0.950 . S
C737 C736 1.388 . S
C737 C738 1.386 . S
C738 C737 1.386 . S
C738 C739 1.382 . S
C738 H760 0.950 . S
C739 N735 1.332 . S
C739 C738 1.382 . S
C739 H741 0.952 . S
C740 N735 1.332 . S
C740 C736 1.382 . S
C740 H742 0.948 . S
H741 C739 0.952 . S
H742 C740 0.948 . S
H743 C732 0.952 . S
H744 C734 0.948 . S
C745 C711 1.395 1_556 S
C745 C715 1.391 . S
C746 C708 1.389 . S
C746 C728 1.392 . S
C747 C718 1.392 . S
C747 C720 1.389 . S
C748 C723 1.395 1_554 S
C748 C725 1.391 . S
H749 C709 0.951 . S
H750 C710 0.950 . S
H751 C716 0.949 . S
H752 C717 0.950 . S
H753 C721 0.951 . S
H754 C722 0.950 . S
H755 C726 0.949 . S
H756 C727 0.950 . S
H757 C731 0.950 . S
H758 C733 0.950 . S
H759 C736 0.950 . S
H760 C738 0.950 . S
C761 C762 1.443 . S
C761 N765 1.376 . S
C761 C799 1.389 . S
C762 C761 1.443 . S
C762 C763 1.340 . S
C762 H802 0.951 . S
C763 C762 1.340 . S
C763 C764 1.439 . S
C763 H803 0.950 . S
C764 C763 1.439 . S
C764 N765 1.374 . S
C764 C798 1.395 . S
N765 C761 1.376 . S
N765 C764 1.374 . S
N765 Co766 2.008 . S
Co766 N765 2.008 . S
Co766 N767 1.995 . S
Co766 N772 2.008 . S
Co766 N777 1.995 . S
Co766 N782 2.282 . S
Co766 N788 2.282 . S
N767 Co766 1.995 . S
N767 C768 1.376 . S
N767 C771 1.383 1_554 S
C768 N767 1.376 . S
C768 C769 1.446 1_554 S
C768 C798 1.391 . S
C769 C768 1.446 1_556 S
C769 C770 1.339 . S
C769 H804 0.949 . S
C770 C769 1.339 . S
C770 C771 1.439 . S
C770 H805 0.950 . S
C771 N767 1.383 1_556 S
C771 C770 1.439 . S
C771 C800 1.392 . S
N772 Co766 2.008 . S
N772 C773 1.376 . S
N772 C776 1.374 . S
C773 N772 1.376 . S
C773 C774 1.443 . S
C773 C800 1.389 1_554 S
C774 C773 1.443 . S
C774 C775 1.340 . S
C774 H806 0.951 1_554 S
C775 C774 1.340 . S
C775 C776 1.439 . S
C775 H807 0.950 . S
C776 N772 1.374 . S
C776 C775 1.439 . S
C776 C801 1.395 . S
N777 Co766 1.995 . S
N777 C778 1.376 . S
N777 C781 1.383 . S
C778 N777 1.376 . S
C778 C779 1.446 . S
C778 C801 1.391 . S
C779 C778 1.446 . S
C779 C780 1.339 . S
C779 H808 0.949 . S
C780 C779 1.339 . S
C780 C781 1.439 . S
C780 H809 0.950 . S
C781 N777 1.383 . S
C781 C780 1.439 . S
C781 C799 1.392 . S
N782 Co766 2.282 . S
N782 C785 1.332 . S
N782 C787 1.332 . S
C783 C784 1.386 . S
C783 C786 1.388 . S
C784 C783 1.386 . S
C784 C785 1.382 . S
C784 H810 0.950 . S
C785 N782 1.332 . S
C785 C784 1.382 . S
C785 H796 0.952 . S
C786 C783 1.388 . S
C786 C787 1.382 . S
C786 H811 0.950 . S
C787 N782 1.332 . S
C787 C786 1.382 . S
C787 H797 0.948 . S
N788 Co766 2.282 . S
N788 C792 1.332 1_554 S
N788 C793 1.332 . S
C789 C790 1.388 . S
C789 C793 1.382 1_556 S
C789 H812 0.950 . S
C790 C789 1.388 . S
C790 C791 1.386 . S
C791 C790 1.386 . S
C791 C792 1.382 . S
C791 H813 0.950 . S
C792 N788 1.332 1_556 S
C792 C791 1.382 . S
C792 H794 0.952 . S
C793 N788 1.332 . S
C793 C789 1.382 1_554 S
C793 H795 0.948 . S
H794 C792 0.952 . S
H795 C793 0.948 . S
H796 C785 0.952 . S
H797 C787 0.948 . S
C798 C764 1.395 . S
C798 C768 1.391 . S
C799 C761 1.389 . S
C799 C781 1.392 . S
C800 C771 1.392 . S
C800 C773 1.389 1_556 S
C801 C776 1.395 . S
C801 C778 1.391 . S
H802 C762 0.951 . S
H803 C763 0.950 . S
H804 C769 0.949 . S
H805 C770 0.950 . S
H806 C774 0.951 1_556 S
H807 C775 0.950 . S
H808 C779 0.949 . S
H809 C780 0.950 . S
H810 C784 0.950 . S
H811 C786 0.950 . S
H812 C789 0.950 . S
H813 C791 0.950 . S
C814 C815 1.443 . S
C814 N818 1.376 1_556 S
C814 C852 1.389 . S
C815 C814 1.443 . S
C815 C816 1.340 1_556 S
C815 H855 0.951 . S
C816 C815 1.340 1_554 S
C816 C817 1.439 . S
C816 H856 0.950 . S
C817 C816 1.439 . S
C817 N818 1.374 . S
C817 C851 1.395 . S
N818 C814 1.376 1_554 S
N818 C817 1.374 . S
N818 Co819 2.008 . S
Co819 N818 2.008 . S
Co819 N820 1.995 . S
Co819 N825 2.008 . S
Co819 N830 1.995 . S
Co819 N835 2.282 1_554 S
Co819 N841 2.282 . S
N820 Co819 1.995 . S
N820 C821 1.376 . S
N820 C824 1.383 . S
C821 N820 1.376 . S
C821 C822 1.446 . S
C821 C851 1.391 . S
C822 C821 1.446 . S
C822 C823 1.339 . S
C822 H857 0.949 . S
C823 C822 1.339 . S
C823 C824 1.439 . S
C823 H858 0.950 . S
C824 N820 1.383 . S
C824 C823 1.439 . S
C824 C853 1.392 . S
N825 Co819 2.008 . S
N825 C826 1.376 . S
N825 C829 1.374 . S
C826 N825 1.376 . S
C826 C827 1.443 . S
C826 C853 1.389 . S
C827 C826 1.443 . S
C827 C828 1.340 . S
C827 H859 0.951 . S
C828 C827 1.340 . S
C828 C829 1.439 . S
C828 H860 0.950 . S
C829 N825 1.374 . S
C829 C828 1.439 . S
C829 C854 1.395 . S
N830 Co819 1.995 . S
N830 C831 1.376 . S
N830 C834 1.383 1_554 S
C831 N830 1.376 . S
C831 C832 1.446 1_554 S
C831 C854 1.391 . S
C832 C831 1.446 1_556 S
C832 C833 1.339 . S
C832 H861 0.949 . S
C833 C832 1.339 . S
C833 C834 1.439 . S
C833 H862 0.950 . S
C834 N830 1.383 1_556 S
C834 C833 1.439 . S
C834 C852 1.392 . S
N835 Co819 2.282 1_556 S
N835 C838 1.332 . S
N835 C840 1.332 . S
C836 C837 1.386 . S
C836 C839 1.388 . S
C837 C836 1.386 . S
C837 C838 1.382 . S
C837 H863 0.950 . S
C838 N835 1.332 . S
C838 C837 1.382 . S
C838 H849 0.952 . S
C839 C836 1.388 . S
C839 C840 1.382 . S
C839 H864 0.950 . S
C840 N835 1.332 . S
C840 C839 1.382 . S
C840 H850 0.948 1_556 S
N841 Co819 2.282 . S
N841 C845 1.332 . S
N841 C846 1.332 . S
C842 C843 1.388 . S
C842 C846 1.382 . S
C842 H865 0.950 . S
C843 C842 1.388 . S
C843 C844 1.386 . S
C844 C843 1.386 . S
C844 C845 1.382 . S
C844 H866 0.950 . S
C845 N841 1.332 . S
C845 C844 1.382 . S
C845 H847 0.952 . S
C846 N841 1.332 . S
C846 C842 1.382 . S
C846 H848 0.948 . S
H847 C845 0.952 . S
H848 C846 0.948 . S
H849 C838 0.952 . S
H850 C840 0.948 1_554 S
C851 C817 1.395 . S
C851 C821 1.391 . S
C852 C814 1.389 . S
C852 C834 1.392 . S
C853 C824 1.392 . S
C853 C826 1.389 . S
C854 C829 1.395 . S
C854 C831 1.391 . S
H855 C815 0.951 . S
H856 C816 0.950 . S
H857 C822 0.949 . S
H858 C823 0.950 . S
H859 C827 0.951 . S
H860 C828 0.950 . S
H861 C832 0.949 . S
H862 C833 0.950 . S
H863 C837 0.950 . S
H864 C839 0.950 . S
H865 C842 0.950 . S
H866 C844 0.950 . S
C867 C868 1.443 . S
C867 N871 1.376 . S
C867 C905 1.389 . S
C868 C867 1.443 . S
C868 C869 1.340 . S
C868 H908 0.951 . S
C869 C868 1.340 . S
C869 C870 1.439 . S
C869 H909 0.950 . S
C870 C869 1.439 . S
C870 N871 1.374 . S
C870 C904 1.395 . S
N871 C867 1.376 . S
N871 C870 1.374 . S
N871 Co872 2.008 . S
Co872 N871 2.008 . S
Co872 N873 1.995 . S
Co872 N878 2.008 . S
Co872 N883 1.995 . S
Co872 N888 2.282 . S
Co872 N894 2.282 1_554 S
N873 Co872 1.995 . S
N873 C874 1.376 . S
N873 C877 1.383 1_554 S
C874 N873 1.376 . S
C874 C875 1.443 1_554 S
C874 C904 1.394 . S
C875 C874 1.443 1_556 S
C875 C876 1.339 . S
C875 H910 0.949 . S
C876 C875 1.339 . S
C876 C877 1.439 . S
C876 H911 0.950 . S
C877 N873 1.383 1_556 S
C877 C876 1.439 . S
C877 C906 1.392 . S
N878 Co872 2.008 . S
N878 C879 1.376 1_554 S
N878 C882 1.374 . S
C879 N878 1.376 1_556 S
C879 C880 1.443 . S
C879 C906 1.389 . S
C880 C879 1.443 . S
C880 C881 1.340 1_556 S
C880 H912 0.951 . S
C881 C880 1.340 1_554 S
C881 C882 1.439 . S
C881 H913 0.950 . S
C882 N878 1.374 . S
C882 C881 1.439 . S
C882 C907 1.395 . S
N883 Co872 1.995 . S
N883 C884 1.376 . S
N883 C887 1.383 . S
C884 N883 1.376 . S
C884 C885 1.446 . S
C884 C907 1.391 . S
C885 C884 1.446 . S
C885 C886 1.339 . S
C885 H914 0.949 . S
C886 C885 1.339 . S
C886 C887 1.439 . S
C886 H915 0.950 . S
C887 N883 1.383 . S
C887 C886 1.439 . S
C887 C905 1.392 . S
N888 Co872 2.282 . S
N888 C891 1.332 . S
N888 C893 1.332 . S
C889 C890 1.386 . S
C889 C892 1.388 . S
C890 C889 1.386 . S
C890 C891 1.382 . S
C890 H916 0.950 . S
C891 N888 1.332 . S
C891 C890 1.382 . S
C891 H902 0.952 . S
C892 C889 1.388 . S
C892 C893 1.382 . S
C892 H917 0.950 . S
C893 N888 1.332 . S
C893 C892 1.382 . S
C893 H903 0.948 . S
N894 Co872 2.282 1_556 S
N894 C898 1.332 . S
N894 C899 1.332 . S
C895 C896 1.388 . S
C895 C899 1.382 . S
C895 H918 0.950 . S
C896 C895 1.388 . S
C896 C897 1.386 . S
C897 C896 1.386 . S
C897 C898 1.382 . S
C897 H919 0.950 . S
C898 N894 1.332 . S
C898 C897 1.382 . S
C898 H900 0.952 . S
C899 N894 1.332 . S
C899 C895 1.382 . S
C899 H901 0.948 1_556 S
H900 C898 0.952 . S
H901 C899 0.948 1_554 S
H902 C891 0.952 . S
H903 C893 0.948 . S
C904 C870 1.395 . S
C904 C874 1.394 . S
C905 C867 1.389 . S
C905 C887 1.392 . S
C906 C877 1.392 . S
C906 C879 1.389 . S
C907 C882 1.395 . S
C907 C884 1.391 . S
H908 C868 0.951 . S
H909 C869 0.950 . S
H910 C875 0.949 . S
H911 C876 0.950 . S
H912 C880 0.951 . S
H913 C881 0.950 . S
H914 C885 0.949 . S
H915 C886 0.950 . S
H916 C890 0.950 . S
H917 C892 0.950 . S
H918 C895 0.950 . S
H919 C897 0.950 . S
H920 C926 0.930 . S
H921 C929 0.930 . S
H922 C930 0.930 . S
H923 C931 0.930 . S
H924 C934 0.930 . S
H925 C935 0.930 . S
C926 H920 0.930 . S
C926 C927 1.355 . S
C926 C928 1.415 . S
C927 C926 1.355 . S
C927 C929 1.419 . S
C928 C926 1.415 . S
C928 C933 1.425 . S
C928 C935 1.409 . S
C929 H921 0.930 . S
C929 C927 1.419 . S
C929 C930 1.362 . S
C930 H922 0.930 . S
C930 C929 1.362 . S
C930 C933 1.409 . S
C931 H923 0.930 . S
C931 C932 1.355 . S
C931 C933 1.415 . S
C932 C931 1.355 . S
C932 C934 1.419 . S
C933 C928 1.425 . S
C933 C930 1.409 . S
C933 C931 1.415 . S
C934 H924 0.930 . S
C934 C932 1.419 . S
C934 C935 1.362 . S
C935 H925 0.930 . S
C935 C928 1.409 . S
C935 C934 1.362 . S
H936 C942 0.930 . S
H937 C945 0.930 . S
H938 C946 0.930 . S
H939 C947 0.930 . S
H940 C950 0.930 . S
H941 C951 0.930 . S
C942 H936 0.930 . S
C942 C943 1.355 . S
C942 C944 1.415 . S
C943 C942 1.355 . S
C943 C945 1.419 . S
C944 C942 1.415 . S
C944 C949 1.425 . S
C944 C951 1.409 . S
C945 H937 0.930 . S
C945 C943 1.419 . S
C945 C946 1.362 . S
C946 H938 0.930 . S
C946 C945 1.362 . S
C946 C949 1.409 . S
C947 H939 0.930 . S
C947 C948 1.355 . S
C947 C949 1.415 . S
C948 C947 1.355 . S
C948 C950 1.419 . S
C949 C944 1.425 . S
C949 C946 1.409 . S
C949 C947 1.415 . S
C950 H940 0.930 . S
C950 C948 1.419 . S
C950 C951 1.362 . S
C951 H941 0.930 . S
C951 C944 1.409 . S
C951 C950 1.362 . S
H952 C958 0.930 . S
H953 C961 0.930 . S
H954 C962 0.930 . S
H955 C963 0.930 . S
H956 C966 0.930 . S
H957 C967 0.930 . S
C958 H952 0.930 . S
C958 C959 1.355 . S
C958 C960 1.415 . S
C959 C958 1.355 . S
C959 C961 1.419 . S
C960 C958 1.415 . S
C960 C965 1.425 . S
C960 C967 1.409 . S
C961 H953 0.930 . S
C961 C959 1.419 . S
C961 C962 1.362 . S
C962 H954 0.930 . S
C962 C961 1.362 . S
C962 C965 1.409 . S
C963 H955 0.930 . S
C963 C964 1.355 . S
C963 C965 1.415 . S
C964 C963 1.355 . S
C964 C966 1.419 . S
C965 C960 1.425 . S
C965 C962 1.409 . S
C965 C963 1.415 . S
C966 H956 0.930 . S
C966 C964 1.419 . S
C966 C967 1.362 . S
C967 H957 0.930 . S
C967 C960 1.409 . S
C967 C966 1.362 . S
H968 C974 0.930 . S
H969 C977 0.930 . S
H970 C978 0.930 . S
H971 C979 0.930 . S
H972 C982 0.930 . S
H973 C983 0.930 . S
C974 H968 0.930 . S
C974 C975 1.355 . S
C974 C976 1.415 . S
C975 C974 1.355 . S
C975 C977 1.419 . S
C976 C974 1.415 . S
C976 C981 1.425 . S
C976 C983 1.409 . S
C977 H969 0.930 . S
C977 C975 1.419 . S
C977 C978 1.362 . S
C978 H970 0.930 . S
C978 C977 1.362 . S
C978 C981 1.409 . S
C979 H971 0.930 . S
C979 C980 1.355 . S
C979 C981 1.415 . S
C980 C979 1.355 . S
C980 C982 1.419 . S
C981 C976 1.425 . S
C981 C978 1.409 . S
C981 C979 1.415 . S
C982 H972 0.930 . S
C982 C980 1.419 . S
C982 C983 1.362 . S
C983 H973 0.930 . S
C983 C976 1.409 . S
C983 C982 1.362 . S
H984 C990 0.930 . S
H985 C993 0.930 . S
H986 C994 0.930 . S
H987 C995 0.930 . S
H988 C998 0.930 . S
H989 C999 0.930 . S
C990 H984 0.930 . S
C990 C991 1.355 . S
C990 C992 1.415 . S
C991 C990 1.355 . S
C991 C993 1.419 . S
C992 C990 1.415 . S
C992 C997 1.425 . S
C992 C999 1.409 . S
C993 H985 0.930 . S
C993 C991 1.419 . S
C993 C994 1.362 . S
C994 H986 0.930 . S
C994 C993 1.362 . S
C994 C997 1.409 . S
C995 H987 0.930 . S
C995 C996 1.355 . S
C995 C997 1.415 . S
C996 C995 1.355 . S
C996 C998 1.419 . S
C997 C992 1.425 . S
C997 C994 1.409 . S
C997 C995 1.415 . S
C998 H988 0.930 . S
C998 C996 1.419 . S
C998 C999 1.362 . S
C999 H989 0.930 . S
C999 C992 1.409 . S
C999 C998 1.362 . S
H1000 C1006 0.930 . S
H1001 C1009 0.930 . S
H1002 C1010 0.930 . S
H1003 C1011 0.930 . S
H1004 C1014 0.930 . S
H1005 C1015 0.930 . S
C1006 H1000 0.930 . S
C1006 C1007 1.355 . S
C1006 C1008 1.415 . S
C1007 C1006 1.355 . S
C1007 C1009 1.419 . S
C1008 C1006 1.415 . S
C1008 C1013 1.425 . S
C1008 C1015 1.409 . S
C1009 H1001 0.930 . S
C1009 C1007 1.419 . S
C1009 C1010 1.362 . S
C1010 H1002 0.930 . S
C1010 C1009 1.362 . S
C1010 C1013 1.409 . S
C1011 H1003 0.930 . S
C1011 C1012 1.355 . S
C1011 C1013 1.415 . S
C1012 C1011 1.355 . S
C1012 C1014 1.419 . S
C1013 C1008 1.425 . S
C1013 C1010 1.409 . S
C1013 C1011 1.415 . S
C1014 H1004 0.930 . S
C1014 C1012 1.419 . S
C1014 C1015 1.362 . S
C1015 H1005 0.930 . S
C1015 C1008 1.409 . S
C1015 C1014 1.362 . S
H1016 C1022 0.930 . S
H1017 C1025 0.930 . S
H1018 C1026 0.930 . S
H1019 C1027 0.930 . S
H1020 C1030 0.930 . S
H1021 C1031 0.930 . S
C1022 H1016 0.930 . S
C1022 C1023 1.355 . S
C1022 C1024 1.415 . S
C1023 C1022 1.355 . S
C1023 C1025 1.419 . S
C1024 C1022 1.415 . S
C1024 C1029 1.425 . S
C1024 C1031 1.409 . S
C1025 H1017 0.930 . S
C1025 C1023 1.419 . S
C1025 C1026 1.362 . S
C1026 H1018 0.930 . S
C1026 C1025 1.362 . S
C1026 C1029 1.409 . S
C1027 H1019 0.930 . S
C1027 C1028 1.355 . S
C1027 C1029 1.415 . S
C1028 C1027 1.355 . S
C1028 C1030 1.419 . S
C1029 C1024 1.425 . S
C1029 C1026 1.409 . S
C1029 C1027 1.415 . S
C1030 H1020 0.930 . S
C1030 C1028 1.419 . S
C1030 C1031 1.362 . S
C1031 H1021 0.930 . S
C1031 C1024 1.409 . S
C1031 C1030 1.362 . S
H1032 C1038 0.930 . S
H1033 C1041 0.930 . S
H1034 C1042 0.930 . S
H1035 C1043 0.930 . S
H1036 C1046 0.930 . S
H1037 C1047 0.930 . S
C1038 H1032 0.930 . S
C1038 C1039 1.355 . S
C1038 C1040 1.415 . S
C1039 C1038 1.355 . S
C1039 C1041 1.419 . S
C1040 C1038 1.415 . S
C1040 C1045 1.425 . S
C1040 C1047 1.409 . S
C1041 H1033 0.930 . S
C1041 C1039 1.419 . S
C1041 C1042 1.362 . S
C1042 H1034 0.930 . S
C1042 C1041 1.362 . S
C1042 C1045 1.409 . S
C1043 H1035 0.930 . S
C1043 C1044 1.355 . S
C1043 C1045 1.415 . S
C1044 C1043 1.355 . S
C1044 C1046 1.419 . S
C1045 C1040 1.425 . S
C1045 C1042 1.409 . S
C1045 C1043 1.415 . S
C1046 H1036 0.930 . S
C1046 C1044 1.419 . S
C1046 C1047 1.362 . S
C1047 H1037 0.930 . S
C1047 C1040 1.409 . S
C1047 C1046 1.362 . S
H1048 C1054 0.930 . S
H1049 C1057 0.930 . S
H1050 C1058 0.930 . S
H1051 C1059 0.930 . S
H1052 C1062 0.930 . S
H1053 C1063 0.930 . S
C1054 H1048 0.930 . S
C1054 C1055 1.355 . S
C1054 C1056 1.415 . S
C1055 C1054 1.355 . S
C1055 C1057 1.419 . S
C1056 C1054 1.415 . S
C1056 C1061 1.425 . S
C1056 C1063 1.409 . S
C1057 H1049 0.930 . S
C1057 C1055 1.419 . S
C1057 C1058 1.362 . S
C1058 H1050 0.930 . S
C1058 C1057 1.362 . S
C1058 C1061 1.409 . S
C1059 H1051 0.930 . S
C1059 C1060 1.355 . S
C1059 C1061 1.415 . S
C1060 C1059 1.355 . S
C1060 C1062 1.419 . S
C1061 C1056 1.425 . S
C1061 C1058 1.409 . S
C1061 C1059 1.415 . S
C1062 H1052 0.930 . S
C1062 C1060 1.419 . S
C1062 C1063 1.362 . S
C1063 H1053 0.930 . S
C1063 C1056 1.409 . S
C1063 C1062 1.362 . S
H1064 C1070 0.930 . S
H1065 C1073 0.930 . S
H1066 C1074 0.930 . S
H1067 C1075 0.930 . S
H1068 C1078 0.930 . S
H1069 C1079 0.930 . S
C1070 H1064 0.930 . S
C1070 C1071 1.355 . S
C1070 C1072 1.415 . S
C1071 C1070 1.355 . S
C1071 C1073 1.419 . S
C1072 C1070 1.415 . S
C1072 C1077 1.425 . S
C1072 C1079 1.409 . S
C1073 H1065 0.930 . S
C1073 C1071 1.419 . S
C1073 C1074 1.362 . S
C1074 H1066 0.930 . S
C1074 C1073 1.362 . S
C1074 C1077 1.409 . S
C1075 H1067 0.930 . S
C1075 C1076 1.355 . S
C1075 C1077 1.415 . S
C1076 C1075 1.355 . S
C1076 C1078 1.419 . S
C1077 C1072 1.425 . S
C1077 C1074 1.409 . S
C1077 C1075 1.415 . S
C1078 H1068 0.930 . S
C1078 C1076 1.419 . S
C1078 C1079 1.362 . S
C1079 H1069 0.930 . S
C1079 C1072 1.409 . S
C1079 C1078 1.362 . S
H1080 C1086 0.930 . S
H1081 C1089 0.930 . S
H1082 C1090 0.930 . S
H1083 C1091 0.930 . S
H1084 C1094 0.930 . S
H1085 C1095 0.930 . S
C1086 H1080 0.930 . S
C1086 C1087 1.355 . S
C1086 C1088 1.415 . S
C1087 C1086 1.355 . S
C1087 C1089 1.419 . S
C1088 C1086 1.415 . S
C1088 C1093 1.425 . S
C1088 C1095 1.409 . S
C1089 H1081 0.930 . S
C1089 C1087 1.419 . S
C1089 C1090 1.362 . S
C1090 H1082 0.930 . S
C1090 C1089 1.362 . S
C1090 C1093 1.409 . S
C1091 H1083 0.930 . S
C1091 C1092 1.355 . S
C1091 C1093 1.415 . S
C1092 C1091 1.355 . S
C1092 C1094 1.419 . S
C1093 C1088 1.425 . S
C1093 C1090 1.409 . S
C1093 C1091 1.415 . S
C1094 H1084 0.930 . S
C1094 C1092 1.419 . S
C1094 C1095 1.362 . S
C1095 H1085 0.930 . S
C1095 C1088 1.409 . S
C1095 C1094 1.362 . S
H1096 C1102 0.930 . S
H1097 C1105 0.930 . S
H1098 C1106 0.930 . S
H1099 C1107 0.930 . S
H1100 C1110 0.930 . S
H1101 C1111 0.930 . S
C1102 H1096 0.930 . S
C1102 C1103 1.355 . S
C1102 C1104 1.415 . S
C1103 C1102 1.355 . S
C1103 C1105 1.419 . S
C1104 C1102 1.415 . S
C1104 C1109 1.425 . S
C1104 C1111 1.409 . S
C1105 H1097 0.930 . S
C1105 C1103 1.419 . S
C1105 C1106 1.362 . S
C1106 H1098 0.930 . S
C1106 C1105 1.362 . S
C1106 C1109 1.409 . S
C1107 H1099 0.930 . S
C1107 C1108 1.355 . S
C1107 C1109 1.415 . S
C1108 C1107 1.355 . S
C1108 C1110 1.419 . S
C1109 C1104 1.425 . S
C1109 C1106 1.409 . S
C1109 C1107 1.415 . S
C1110 H1100 0.930 . S
C1110 C1108 1.419 . S
C1110 C1111 1.362 . S
C1111 H1101 0.930 . S
C1111 C1104 1.409 . S
C1111 C1110 1.362 . S
H1112 C1118 0.930 . S
H1113 C1121 0.930 . S
H1114 C1122 0.930 . S
H1115 C1123 0.930 . S
H1116 C1126 0.930 . S
H1117 C1127 0.930 . S
C1118 H1112 0.930 . S
C1118 C1119 1.355 . S
C1118 C1120 1.415 . S
C1119 C1118 1.355 . S
C1119 C1121 1.419 . S
C1120 C1118 1.415 . S
C1120 C1125 1.425 . S
C1120 C1127 1.409 . S
C1121 H1113 0.930 . S
C1121 C1119 1.419 . S
C1121 C1122 1.362 . S
C1122 H1114 0.930 . S
C1122 C1121 1.362 . S
C1122 C1125 1.409 . S
C1123 H1115 0.930 . S
C1123 C1124 1.355 . S
C1123 C1125 1.415 . S
C1124 C1123 1.355 . S
C1124 C1126 1.419 . S
C1125 C1120 1.425 . S
C1125 C1122 1.409 . S
C1125 C1123 1.415 . S
C1126 H1116 0.930 . S
C1126 C1124 1.419 . S
C1126 C1127 1.362 . S
C1127 H1117 0.930 . S
C1127 C1120 1.409 . S
C1127 C1126 1.362 . S
H1128 C1134 0.930 . S
H1129 C1137 0.930 . S
H1130 C1138 0.930 . S
H1131 C1139 0.930 . S
H1132 C1142 0.930 . S
H1133 C1143 0.930 . S
C1134 H1128 0.930 . S
C1134 C1135 1.355 . S
C1134 C1136 1.415 . S
C1135 C1134 1.355 . S
C1135 C1137 1.419 . S
C1136 C1134 1.415 . S
C1136 C1141 1.425 . S
C1136 C1143 1.409 . S
C1137 H1129 0.930 . S
C1137 C1135 1.419 . S
C1137 C1138 1.362 . S
C1138 H1130 0.930 . S
C1138 C1137 1.362 . S
C1138 C1141 1.409 . S
C1139 H1131 0.930 . S
C1139 C1140 1.355 . S
C1139 C1141 1.415 . S
C1140 C1139 1.355 . S
C1140 C1142 1.419 . S
C1141 C1136 1.425 . S
C1141 C1138 1.409 . S
C1141 C1139 1.415 . S
C1142 H1132 0.930 . S
C1142 C1140 1.419 . S
C1142 C1143 1.362 . S
C1143 H1133 0.930 . S
C1143 C1136 1.409 . S
C1143 C1142 1.362 . S
H1144 C1150 0.930 . S
H1145 C1153 0.930 . S
H1146 C1154 0.930 . S
H1147 C1155 0.930 . S
H1148 C1158 0.930 . S
H1149 C1159 0.930 . S
C1150 H1144 0.930 . S
C1150 C1151 1.355 . S
C1150 C1152 1.415 . S
C1151 C1150 1.355 . S
C1151 C1153 1.419 . S
C1152 C1150 1.415 . S
C1152 C1157 1.425 . S
C1152 C1159 1.409 . S
C1153 H1145 0.930 . S
C1153 C1151 1.419 . S
C1153 C1154 1.362 . S
C1154 H1146 0.930 . S
C1154 C1153 1.362 . S
C1154 C1157 1.409 . S
C1155 H1147 0.930 . S
C1155 C1156 1.355 . S
C1155 C1157 1.415 . S
C1156 C1155 1.355 . S
C1156 C1158 1.419 . S
C1157 C1152 1.425 . S
C1157 C1154 1.409 . S
C1157 C1155 1.415 . S
C1158 H1148 0.930 . S
C1158 C1156 1.419 . S
C1158 C1159 1.362 . S
C1159 H1149 0.930 . S
C1159 C1152 1.409 . S
C1159 C1158 1.362 . S
H1160 C1166 0.930 . S
H1161 C1169 0.930 . S
H1162 C1170 0.930 . S
H1163 C1171 0.930 . S
H1164 C1174 0.930 . S
H1165 C1175 0.930 . S
C1166 H1160 0.930 . S
C1166 C1167 1.355 . S
C1166 C1168 1.415 . S
C1167 C1166 1.355 . S
C1167 C1169 1.419 . S
C1168 C1166 1.415 . S
C1168 C1173 1.425 . S
C1168 C1175 1.409 . S
C1169 H1161 0.930 . S
C1169 C1167 1.419 . S
C1169 C1170 1.362 . S
C1170 H1162 0.930 . S
C1170 C1169 1.362 . S
C1170 C1173 1.409 . S
C1171 H1163 0.930 . S
C1171 C1172 1.355 . S
C1171 C1173 1.415 . S
C1172 C1171 1.355 . S
C1172 C1174 1.419 . S
C1173 C1168 1.425 . S
C1173 C1170 1.409 . S
C1173 C1171 1.415 . S
C1174 H1164 0.930 . S
C1174 C1172 1.419 . S
C1174 C1175 1.362 . S
C1175 H1165 0.930 . S
C1175 C1168 1.409 . S
C1175 C1174 1.362 . S
H1176 C1182 0.930 . S
H1177 C1185 0.930 . S
H1178 C1186 0.930 . S
H1179 C1187 0.930 . S
H1180 C1190 0.930 . S
H1181 C1191 0.930 . S
C1182 H1176 0.930 . S
C1182 C1183 1.355 . S
C1182 C1184 1.415 . S
C1183 C1182 1.355 . S
C1183 C1185 1.419 . S
C1184 C1182 1.415 . S
C1184 C1189 1.425 . S
C1184 C1191 1.409 . S
C1185 H1177 0.930 . S
C1185 C1183 1.419 . S
C1185 C1186 1.362 . S
C1186 H1178 0.930 . S
C1186 C1185 1.362 . S
C1186 C1189 1.409 . S
C1187 H1179 0.930 . S
C1187 C1188 1.355 . S
C1187 C1189 1.415 . S
C1188 C1187 1.355 . S
C1188 C1190 1.419 . S
C1189 C1184 1.425 . S
C1189 C1186 1.409 . S
C1189 C1187 1.415 . S
C1190 H1180 0.930 . S
C1190 C1188 1.419 . S
C1190 C1191 1.362 . S
C1191 H1181 0.930 . S
C1191 C1184 1.409 . S
C1191 C1190 1.362 . S
H1192 C1198 0.930 . S
H1193 C1201 0.930 . S
H1194 C1202 0.930 . S
H1195 C1203 0.930 . S
H1196 C1206 0.930 . S
H1197 C1207 0.930 . S
C1198 H1192 0.930 . S
C1198 C1199 1.355 . S
C1198 C1200 1.415 . S
C1199 C1198 1.355 . S
C1199 C1201 1.419 . S
C1200 C1198 1.415 . S
C1200 C1205 1.425 . S
C1200 C1207 1.409 . S
C1201 H1193 0.930 . S
C1201 C1199 1.419 . S
C1201 C1202 1.362 . S
C1202 H1194 0.930 . S
C1202 C1201 1.362 . S
C1202 C1205 1.409 . S
C1203 H1195 0.930 . S
C1203 C1204 1.355 . S
C1203 C1205 1.415 . S
C1204 C1203 1.355 . S
C1204 C1206 1.419 . S
C1205 C1200 1.425 . S
C1205 C1202 1.409 . S
C1205 C1203 1.415 . S
C1206 H1196 0.930 . S
C1206 C1204 1.419 . S
C1206 C1207 1.362 . S
C1207 H1197 0.930 . S
C1207 C1200 1.409 . S
C1207 C1206 1.362 . S
H1208 C1214 0.930 . S
H1209 C1217 0.930 . S
H1210 C1218 0.930 . S
H1211 C1219 0.930 . S
H1212 C1222 0.930 . S
H1213 C1223 0.930 . S
C1214 H1208 0.930 . S
C1214 C1215 1.355 . S
C1214 C1216 1.415 . S
C1215 C1214 1.355 . S
C1215 C1217 1.419 . S
C1216 C1214 1.415 . S
C1216 C1221 1.425 . S
C1216 C1223 1.409 . S
C1217 H1209 0.930 . S
C1217 C1215 1.419 . S
C1217 C1218 1.362 . S
C1218 H1210 0.930 . S
C1218 C1217 1.362 . S
C1218 C1221 1.409 . S
C1219 H1211 0.930 . S
C1219 C1220 1.355 . S
C1219 C1221 1.415 . S
C1220 C1219 1.355 . S
C1220 C1222 1.419 . S
C1221 C1216 1.425 . S
C1221 C1218 1.409 . S
C1221 C1219 1.415 . S
C1222 H1212 0.930 . S
C1222 C1220 1.419 . S
C1222 C1223 1.362 . S
C1223 H1213 0.930 . S
C1223 C1216 1.409 . S
C1223 C1222 1.362 . S
H1224 C1230 0.930 . S
H1225 C1233 0.930 . S
H1226 C1234 0.930 . S
H1227 C1235 0.930 . S
H1228 C1238 0.930 . S
H1229 C1239 0.930 . S
C1230 H1224 0.930 . S
C1230 C1231 1.355 . S
C1230 C1232 1.415 . S
C1231 C1230 1.355 . S
C1231 C1233 1.419 . S
C1232 C1230 1.415 . S
C1232 C1237 1.425 . S
C1232 C1239 1.409 . S
C1233 H1225 0.930 . S
C1233 C1231 1.419 . S
C1233 C1234 1.362 . S
C1234 H1226 0.930 . S
C1234 C1233 1.362 . S
C1234 C1237 1.409 . S
C1235 H1227 0.930 . S
C1235 C1236 1.355 . S
C1235 C1237 1.415 . S
C1236 C1235 1.355 . S
C1236 C1238 1.419 . S
C1237 C1232 1.425 . S
C1237 C1234 1.409 . S
C1237 C1235 1.415 . S
C1238 H1228 0.930 . S
C1238 C1236 1.419 . S
C1238 C1239 1.362 . S
C1239 H1229 0.930 . S
C1239 C1232 1.409 . S
C1239 C1238 1.362 . S
H1240 C1246 0.930 . S
H1241 C1249 0.930 . S
H1242 C1250 0.930 . S
H1243 C1251 0.930 . S
H1244 C1254 0.930 . S
H1245 C1255 0.930 . S
C1246 H1240 0.930 . S
C1246 C1247 1.355 . S
C1246 C1248 1.415 . S
C1247 C1246 1.355 . S
C1247 C1249 1.419 . S
C1248 C1246 1.415 . S
C1248 C1253 1.425 . S
C1248 C1255 1.409 . S
C1249 H1241 0.930 . S
C1249 C1247 1.419 . S
C1249 C1250 1.362 . S
C1250 H1242 0.930 . S
C1250 C1249 1.362 . S
C1250 C1253 1.409 . S
C1251 H1243 0.930 . S
C1251 C1252 1.355 . S
C1251 C1253 1.415 . S
C1252 C1251 1.355 . S
C1252 C1254 1.419 . S
C1253 C1248 1.425 . S
C1253 C1250 1.409 . S
C1253 C1251 1.415 . S
C1254 H1244 0.930 . S
C1254 C1252 1.419 . S
C1254 C1255 1.362 . S
C1255 H1245 0.930 . S
C1255 C1248 1.409 . S
C1255 C1254 1.362 . S
H1256 C1262 0.930 . S
H1257 C1265 0.930 . S
H1258 C1266 0.930 . S
H1259 C1267 0.930 . S
H1260 C1270 0.930 . S
H1261 C1271 0.930 . S
C1262 H1256 0.930 . S
C1262 C1263 1.355 . S
C1262 C1264 1.415 . S
C1263 C1262 1.355 . S
C1263 C1265 1.419 . S
C1264 C1262 1.415 . S
C1264 C1269 1.425 . S
C1264 C1271 1.409 . S
C1265 H1257 0.930 . S
C1265 C1263 1.419 . S
C1265 C1266 1.362 . S
C1266 H1258 0.930 . S
C1266 C1265 1.362 . S
C1266 C1269 1.409 . S
C1267 H1259 0.930 . S
C1267 C1268 1.355 . S
C1267 C1269 1.415 . S
C1268 C1267 1.355 . S
C1268 C1270 1.419 . S
C1269 C1264 1.425 . S
C1269 C1266 1.409 . S
C1269 C1267 1.415 . S
C1270 H1260 0.930 . S
C1270 C1268 1.419 . S
C1270 C1271 1.362 . S
C1271 H1261 0.930 . S
C1271 C1264 1.409 . S
C1271 C1270 1.362 . S
H1272 C1278 0.930 . S
H1273 C1281 0.930 . S
H1274 C1282 0.930 . S
H1275 C1283 0.930 . S
H1276 C1286 0.930 . S
H1277 C1287 0.930 . S
C1278 H1272 0.930 . S
C1278 C1279 1.355 . S
C1278 C1280 1.415 . S
C1279 C1278 1.355 . S
C1279 C1281 1.419 . S
C1280 C1278 1.415 . S
C1280 C1285 1.425 . S
C1280 C1287 1.409 . S
C1281 H1273 0.930 . S
C1281 C1279 1.419 . S
C1281 C1282 1.362 . S
C1282 H1274 0.930 . S
C1282 C1281 1.362 . S
C1282 C1285 1.409 . S
C1283 H1275 0.930 . S
C1283 C1284 1.355 . S
C1283 C1285 1.415 . S
C1284 C1283 1.355 . S
C1284 C1286 1.419 . S
C1285 C1280 1.425 . S
C1285 C1282 1.409 . S
C1285 C1283 1.415 . S
C1286 H1276 0.930 . S
C1286 C1284 1.419 . S
C1286 C1287 1.362 . S
C1287 H1277 0.930 . S
C1287 C1280 1.409 . S
C1287 C1286 1.362 . S
H1288 C1294 0.930 . S
H1289 C1297 0.930 . S
H1290 C1298 0.930 . S
H1291 C1299 0.930 . S
H1292 C1302 0.930 . S
H1293 C1303 0.930 . S
C1294 H1288 0.930 . S
C1294 C1295 1.355 . S
C1294 C1296 1.415 . S
C1295 C1294 1.355 . S
C1295 C1297 1.419 . S
C1296 C1294 1.415 . S
C1296 C1301 1.425 . S
C1296 C1303 1.409 . S
C1297 H1289 0.930 . S
C1297 C1295 1.419 . S
C1297 C1298 1.362 . S
C1298 H1290 0.930 . S
C1298 C1297 1.362 . S
C1298 C1301 1.409 . S
C1299 H1291 0.930 . S
C1299 C1300 1.355 . S
C1299 C1301 1.415 . S
C1300 C1299 1.355 . S
C1300 C1302 1.419 . S
C1301 C1296 1.425 . S
C1301 C1298 1.409 . S
C1301 C1299 1.415 . S
C1302 H1292 0.930 . S
C1302 C1300 1.419 . S
C1302 C1303 1.362 . S
C1303 H1293 0.930 . S
C1303 C1296 1.409 . S
C1303 C1302 1.362 . S
H1304 C1310 0.930 . S
H1305 C1313 0.930 . S
H1306 C1314 0.930 . S
H1307 C1315 0.930 . S
H1308 C1318 0.930 . S
H1309 C1319 0.930 . S
C1310 H1304 0.930 . S
C1310 C1311 1.355 . S
C1310 C1312 1.415 . S
C1311 C1310 1.355 . S
C1311 C1313 1.419 . S
C1312 C1310 1.415 . S
C1312 C1317 1.425 . S
C1312 C1319 1.409 . S
C1313 H1305 0.930 . S
C1313 C1311 1.419 . S
C1313 C1314 1.362 . S
C1314 H1306 0.930 . S
C1314 C1313 1.362 . S
C1314 C1317 1.409 . S
C1315 H1307 0.930 . S
C1315 C1316 1.355 . S
C1315 C1317 1.415 . S
C1316 C1315 1.355 . S
C1316 C1318 1.419 . S
C1317 C1312 1.425 . S
C1317 C1314 1.409 . S
C1317 C1315 1.415 . S
C1318 H1308 0.930 . S
C1318 C1316 1.419 . S
C1318 C1319 1.362 . S
C1319 H1309 0.930 . S
C1319 C1312 1.409 . S
C1319 C1318 1.362 . S
H1320 C1326 0.930 . S
H1321 C1329 0.930 . S
H1322 C1330 0.930 . S
H1323 C1331 0.930 . S
H1324 C1334 0.930 . S
H1325 C1335 0.930 . S
C1326 H1320 0.930 . S
C1326 C1327 1.355 . S
C1326 C1328 1.415 . S
C1327 C1326 1.355 . S
C1327 C1329 1.419 . S
C1328 C1326 1.415 . S
C1328 C1333 1.425 . S
C1328 C1335 1.409 . S
C1329 H1321 0.930 . S
C1329 C1327 1.419 . S
C1329 C1330 1.362 . S
C1330 H1322 0.930 . S
C1330 C1329 1.362 . S
C1330 C1333 1.409 . S
C1331 H1323 0.930 . S
C1331 C1332 1.355 . S
C1331 C1333 1.415 . S
C1332 C1331 1.355 . S
C1332 C1334 1.419 . S
C1333 C1328 1.425 . S
C1333 C1330 1.409 . S
C1333 C1331 1.415 . S
C1334 H1324 0.930 . S
C1334 C1332 1.419 . S
C1334 C1335 1.362 . S
C1335 H1325 0.930 . S
C1335 C1328 1.409 . S
C1335 C1334 1.362 . S
H1336 C1342 0.930 . S
H1337 C1345 0.930 . S
H1338 C1346 0.930 . S
H1339 C1347 0.930 . S
H1340 C1350 0.930 . S
H1341 C1351 0.930 . S
C1342 H1336 0.930 . S
C1342 C1343 1.355 . S
C1342 C1344 1.415 . S
C1343 C1342 1.355 . S
C1343 C1345 1.419 . S
C1344 C1342 1.415 . S
C1344 C1349 1.425 . S
C1344 C1351 1.409 . S
C1345 H1337 0.930 . S
C1345 C1343 1.419 . S
C1345 C1346 1.362 . S
C1346 H1338 0.930 . S
C1346 C1345 1.362 . S
C1346 C1349 1.409 . S
C1347 H1339 0.930 . S
C1347 C1348 1.355 . S
C1347 C1349 1.415 . S
C1348 C1347 1.355 . S
C1348 C1350 1.419 . S
C1349 C1344 1.425 . S
C1349 C1346 1.409 . S
C1349 C1347 1.415 . S
C1350 H1340 0.930 . S
C1350 C1348 1.419 . S
C1350 C1351 1.362 . S
C1351 H1341 0.930 . S
C1351 C1344 1.409 . S
C1351 C1350 1.362 . S
H1352 C1358 0.930 . S
H1353 C1361 0.930 . S
H1354 C1362 0.930 . S
H1355 C1363 0.930 . S
H1356 C1366 0.930 . S
H1357 C1367 0.930 . S
C1358 H1352 0.930 . S
C1358 C1359 1.355 . S
C1358 C1360 1.415 . S
C1359 C1358 1.355 . S
C1359 C1361 1.419 . S
C1360 C1358 1.415 . S
C1360 C1365 1.425 . S
C1360 C1367 1.409 . S
C1361 H1353 0.930 . S
C1361 C1359 1.419 . S
C1361 C1362 1.362 . S
C1362 H1354 0.930 . S
C1362 C1361 1.362 . S
C1362 C1365 1.409 . S
C1363 H1355 0.930 . S
C1363 C1364 1.355 . S
C1363 C1365 1.415 . S
C1364 C1363 1.355 . S
C1364 C1366 1.419 . S
C1365 C1360 1.425 . S
C1365 C1362 1.409 . S
C1365 C1363 1.415 . S
C1366 H1356 0.930 . S
C1366 C1364 1.419 . S
C1366 C1367 1.362 . S
C1367 H1357 0.930 . S
C1367 C1360 1.409 . S
C1367 C1366 1.362 . S
H1368 C1374 0.930 . S
H1369 C1377 0.930 . S
H1370 C1378 0.930 . S
H1371 C1379 0.930 . S
H1372 C1382 0.930 . S
H1373 C1383 0.930 . S
C1374 H1368 0.930 . S
C1374 C1375 1.355 . S
C1374 C1376 1.415 . S
C1375 C1374 1.355 . S
C1375 C1377 1.419 . S
C1376 C1374 1.415 . S
C1376 C1381 1.425 . S
C1376 C1383 1.409 . S
C1377 H1369 0.930 . S
C1377 C1375 1.419 . S
C1377 C1378 1.362 . S
C1378 H1370 0.930 . S
C1378 C1377 1.362 . S
C1378 C1381 1.409 . S
C1379 H1371 0.930 . S
C1379 C1380 1.355 . S
C1379 C1381 1.415 . S
C1380 C1379 1.355 . S
C1380 C1382 1.419 . S
C1381 C1376 1.425 . S
C1381 C1378 1.409 . S
C1381 C1379 1.415 . S
C1382 H1372 0.930 . S
C1382 C1380 1.419 . S
C1382 C1383 1.362 . S
C1383 H1373 0.930 . S
C1383 C1376 1.409 . S
C1383 C1382 1.362 . S
H1384 C1390 0.930 . S
H1385 C1393 0.930 . S
H1386 C1394 0.930 . S
H1387 C1395 0.930 . S
H1388 C1398 0.930 1_554 S
H1389 C1399 0.930 . S
C1390 H1384 0.930 . S
C1390 C1391 1.355 . S
C1390 C1392 1.415 . S
C1391 C1390 1.355 . S
C1391 C1393 1.419 . S
C1392 C1390 1.415 . S
C1392 C1397 1.425 . S
C1392 C1399 1.409 . S
C1393 H1385 0.930 . S
C1393 C1391 1.419 . S
C1393 C1394 1.362 . S
C1394 H1386 0.930 . S
C1394 C1393 1.362 . S
C1394 C1397 1.409 . S
C1395 H1387 0.930 . S
C1395 C1396 1.355 . S
C1395 C1397 1.415 . S
C1396 C1395 1.355 . S
C1396 C1398 1.419 . S
C1397 C1392 1.425 . S
C1397 C1394 1.409 . S
C1397 C1395 1.415 . S
C1398 H1388 0.930 1_556 S
C1398 C1396 1.419 . S
C1398 C1399 1.362 . S
C1399 H1389 0.930 . S
C1399 C1392 1.409 . S
C1399 C1398 1.362 . S
H1400 C1406 0.930 . S
H1401 C1409 0.930 . S
H1402 C1410 0.930 . S
H1403 C1411 0.930 . S
H1404 C1414 0.930 . S
H1405 C1415 0.930 . S
C1406 H1400 0.930 . S
C1406 C1407 1.355 . S
C1406 C1408 1.415 . S
C1407 C1406 1.355 . S
C1407 C1409 1.419 . S
C1408 C1406 1.415 . S
C1408 C1413 1.425 . S
C1408 C1415 1.409 . S
C1409 H1401 0.930 . S
C1409 C1407 1.419 . S
C1409 C1410 1.362 . S
C1410 H1402 0.930 . S
C1410 C1409 1.362 . S
C1410 C1413 1.409 . S
C1411 H1403 0.930 . S
C1411 C1412 1.355 . S
C1411 C1413 1.415 . S
C1412 C1411 1.355 . S
C1412 C1414 1.419 . S
C1413 C1408 1.425 . S
C1413 C1410 1.409 . S
C1413 C1411 1.415 . S
C1414 H1404 0.930 . S
C1414 C1412 1.419 . S
C1414 C1415 1.362 . S
C1415 H1405 0.930 . S
C1415 C1408 1.409 . S
C1415 C1414 1.362 . S
H1416 C1422 0.930 . S
H1417 C1425 0.930 . S
H1418 C1426 0.930 . S
H1419 C1427 0.930 . S
H1420 C1430 0.930 . S
H1421 C1431 0.930 . S
C1422 H1416 0.930 . S
C1422 C1423 1.355 . S
C1422 C1424 1.415 . S
C1423 C1422 1.355 . S
C1423 C1425 1.419 . S
C1424 C1422 1.415 . S
C1424 C1429 1.425 . S
C1424 C1431 1.409 . S
C1425 H1417 0.930 . S
C1425 C1423 1.419 . S
C1425 C1426 1.362 . S
C1426 H1418 0.930 . S
C1426 C1425 1.362 . S
C1426 C1429 1.409 . S
C1427 H1419 0.930 . S
C1427 C1428 1.355 . S
C1427 C1429 1.415 . S
C1428 C1427 1.355 . S
C1428 C1430 1.419 . S
C1429 C1424 1.425 . S
C1429 C1426 1.409 . S
C1429 C1427 1.415 . S
C1430 H1420 0.930 . S
C1430 C1428 1.419 . S
C1430 C1431 1.362 . S
C1431 H1421 0.930 . S
C1431 C1424 1.409 . S
C1431 C1430 1.362 . S
C932 C525 1.580 . S
C927 C47 1.474 . S
C948 C578 1.324 . S
C943 C115 1.274 . S
C964 C641 1.568 . S
C959 C153 1.398 . S
C980 C684 1.443 . S
C975 C233 1.315 . S
C991 C283 1.534 . S
C996 C640 1.553 . S
C1012 C677 1.421 . S
C1007 C357 1.349 . S
C1028 C518 1.617 . S
C1023 C401 1.469 . S
C1044 C571 1.328 . S
C1039 C463 1.151 . S
C1060 C624 1.444 . S
C1055 C469 1.417 . S
C1076 C693 1.808 . S
C1071 C277 1.707 . S
C1092 C534 1.568 . S
C1087 C363 1.539 . S
C1108 C587 1.624 . S
C1103 C407 1.615 . S
C1124 C535 1.560 . S
C1119 C109 1.421 . S
C1140 C588 1.684 . S
C1135 C159 1.638 . S
C1156 C631 1.413 . S
C1151 C239 1.368 . S
C1172 C694 1.724 . S
C1167 C53 1.683 . S
C1188 C737 1.556 . S
C1183 C481 1.392 . S
C1199 C301 1.636 . S
C1204 C790 1.686 . S
C1215 C339 1.505 . S
C1220 C852 1.603 . S
C1231 C419 1.651 . S
C1236 C906 1.821 . S
C1247 C97 1.489 . S
C1252 C853 1.514 . S
C1263 C171 1.722 . S
C1268 C905 1.849 . S
C1279 C215 1.518 . S
C1284 C730 1.637 . S
C1300 C783 1.710 . S
C1295 C29 1.502 . S
C1316 C843 1.423 . S
C1311 C35 1.396 . S
C1327 C91 1.302 . S
C1332 C889 1.360 . S
C1343 C177 1.612 . S
C1348 C746 1.615 . S
C1359 C221 1.228 . S
C1364 C799 1.247 . S
C1380 C747 1.554 . S
C1375 C295 1.465 . S
C1396 C800 1.308 . S
C1391 C345 1.287 . S
C1407 C425 1.369 . S
C1412 C836 1.416 . S
C1428 C896 1.304 . S
C1423 C487 1.308 . S
