# Generated by pormake.
# Topology pyr, (3,6)-cn, num edge types: 1
# Building blocks:
#     Node 0, Type 0, BuildingBlock: KAKCAD_clean_linker_0, # of connection points: 3
#     Node 1, Type 0, BuildingBlock: KAKCAD_clean_linker_0, # of connection points: 3
#     Node 2, Type 0, BuildingBlock: KAKCAD_clean_linker_0, # of connection points: 3
#     Node 3, Type 0, BuildingBlock: KAKCAD_clean_linker_0, # of connection points: 3
#     Node 4, Type 0, BuildingBlock: KAKCAD_clean_linker_0, # of connection points: 3
#     Node 5, Type 0, BuildingBlock: KAKCAD_clean_linker_0, # of connection points: 3
#     Node 6, Type 0, BuildingBlock: KAKCAD_clean_linker_0, # of connection points: 3
#     Node 7, Type 0, BuildingBlock: KAKCAD_clean_linker_0, # of connection points: 3
#     Node 8, Type 1, BuildingBlock: MIFKUJ_clean_sbu_0, # of connection points: 6
#     Node 9, Type 1, BuildingBlock: MIFKUJ_clean_sbu_0, # of connection points: 6
#     Node 10, Type 1, BuildingBlock: MIFKUJ_clean_sbu_0, # of connection points: 6
#     Node 11, Type 1, BuildingBlock: MIFKUJ_clean_sbu_0, # of connection points: 6
#     Edge 12, Type (0, 1), BuildingBlock: EZIPEK_clean_linker_0, # of connection points: 2
#     Edge 13, Type (0, 1), BuildingBlock: EZIPEK_clean_linker_0, # of connection points: 2
#     Edge 14, Type (0, 1), BuildingBlock: EZIPEK_clean_linker_0, # of connection points: 2
#     Edge 15, Type (0, 1), BuildingBlock: EZIPEK_clean_linker_0, # of connection points: 2
#     Edge 16, Type (0, 1), BuildingBlock: EZIPEK_clean_linker_0, # of connection points: 2
#     Edge 17, Type (0, 1), BuildingBlock: EZIPEK_clean_linker_0, # of connection points: 2
#     Edge 18, Type (0, 1), BuildingBlock: EZIPEK_clean_linker_0, # of connection points: 2
#     Edge 19, Type (0, 1), BuildingBlock: EZIPEK_clean_linker_0, # of connection points: 2
#     Edge 20, Type (0, 1), BuildingBlock: EZIPEK_clean_linker_0, # of connection points: 2
#     Edge 21, Type (0, 1), BuildingBlock: EZIPEK_clean_linker_0, # of connection points: 2
#     Edge 22, Type (0, 1), BuildingBlock: EZIPEK_clean_linker_0, # of connection points: 2
#     Edge 23, Type (0, 1), BuildingBlock: EZIPEK_clean_linker_0, # of connection points: 2
#     Edge 24, Type (0, 1), BuildingBlock: EZIPEK_clean_linker_0, # of connection points: 2
#     Edge 25, Type (0, 1), BuildingBlock: EZIPEK_clean_linker_0, # of connection points: 2
#     Edge 26, Type (0, 1), BuildingBlock: EZIPEK_clean_linker_0, # of connection points: 2
#     Edge 27, Type (0, 1), BuildingBlock: EZIPEK_clean_linker_0, # of connection points: 2
#     Edge 28, Type (0, 1), BuildingBlock: EZIPEK_clean_linker_0, # of connection points: 2
#     Edge 29, Type (0, 1), BuildingBlock: EZIPEK_clean_linker_0, # of connection points: 2
#     Edge 30, Type (0, 1), BuildingBlock: EZIPEK_clean_linker_0, # of connection points: 2
#     Edge 31, Type (0, 1), BuildingBlock: EZIPEK_clean_linker_0, # of connection points: 2
#     Edge 32, Type (0, 1), BuildingBlock: EZIPEK_clean_linker_0, # of connection points: 2
#     Edge 33, Type (0, 1), BuildingBlock: EZIPEK_clean_linker_0, # of connection points: 2
#     Edge 34, Type (0, 1), BuildingBlock: EZIPEK_clean_linker_0, # of connection points: 2
#     Edge 35, Type (0, 1), BuildingBlock: EZIPEK_clean_linker_0, # of connection points: 2
# Relax obj value: 0.030
# Max RMSD: 0.082
# Mean RMSD: 0.049
data_MOF--net-pyr--node1-MIFKUJ_clean_sbu_0--node2-KAKCAD_clean_linker_0--edge1-EZIPEK_clean_linker_0
_symmetry_space_group_name_H-M    P1
_symmetry_Int_Tables_number       1
_symmetry_cell_setting            triclinic
loop_
_symmetry_equiv_pos_as_xyz
'x, y, z'
_cell_length_a     38.317643
_cell_length_b     34.223061
_cell_length_c     36.607895
_cell_angle_alpha  86.031959
_cell_angle_beta   88.154054
_cell_angle_gamma 96.356381
loop_
_atom_site_label
_atom_site_type_symbol
_atom_site_fract_x
_atom_site_fract_y
_atom_site_fract_z
_atom_type_partial_charge
C0 C 0.1046 0.10569 0.29343 0.0
C1 C 0.12827 0.09835 0.32075 0.0
C2 C 0.11698 0.11884 0.25802 0.0
C3 C 0.15328 0.12476 0.24935 0.0
C4 C 0.17697 0.11743 0.2769 0.0
C5 C 0.16452 0.10434 0.31245 0.0
C6 C 0.16611 0.1385 0.21156 0.0
C7 C 0.15083 0.16873 0.19241 0.0
C8 C 0.16184 0.18138 0.15621 0.0
C9 C 0.18876 0.16362 0.1392 0.0
C10 C 0.20452 0.13341 0.15804 0.0
C11 C 0.19303 0.12105 0.19427 0.0
C12 C 0.23288 0.1147 0.13989 0.0
C13 C 0.23043 0.10523 0.1032 0.0
C14 C 0.26274 0.1064 0.15909 0.0
C15 C 0.28966 0.08927 0.14187 0.0
C16 C 0.28715 0.08023 0.10524 0.0
C17 C 0.14563 0.2138 0.13674 0.0
C18 C 0.10914 0.21547 0.1402 0.0
C19 C 0.16667 0.24429 0.11606 0.0
C20 C 0.15166 0.27639 0.10018 0.0
C21 C 0.11548 0.27844 0.10478 0.0
C22 C 0.09419 0.24763 0.1244 0.0
C23 C 0.2574 0.08813 0.086 0.0
H24 H 0.07652 0.10084 0.29949 0.0
H25 H 0.09812 0.12374 0.23725 0.0
H26 H 0.20507 0.12209 0.27102 0.0
H27 H 0.18302 0.09855 0.33337 0.0
H28 H 0.13078 0.18309 0.20609 0.0
H29 H 0.20435 0.09704 0.20867 0.0
H30 H 0.19753 0.17343 0.1113 0.0
H31 H 0.20756 0.11077 0.08787 0.0
H32 H 0.26556 0.11377 0.18722 0.0
H33 H 0.31263 0.08345 0.15695 0.0
H34 H 0.09221 0.19213 0.15552 0.0
H35 H 0.19487 0.24406 0.11325 0.0
H36 H 0.25517 0.08119 0.05768 0.0
H37 H 0.06619 0.24895 0.12811 0.0
H38 H 0.16837 0.3002 0.08523 0.0
C39 C 0.35846 0.88788 0.82117 0.0
C40 C 0.39514 0.89131 0.82355 0.0
C41 C 0.3426 0.87333 0.79013 0.0
C42 C 0.36321 0.86253 0.76067 0.0
C43 C 0.40002 0.8669 0.76307 0.0
C44 C 0.41574 0.88086 0.79421 0.0
C45 C 0.34671 0.84668 0.72755 0.0
C46 C 0.31656 0.86134 0.71345 0.0
C47 C 0.30171 0.84715 0.68161 0.0
C48 C 0.3173 0.81804 0.66378 0.0
C49 C 0.34721 0.80278 0.67747 0.0
C50 C 0.36153 0.81706 0.70946 0.0
C51 C 0.36344 0.77185 0.6584 0.0
C52 C 0.34224 0.7404 0.64465 0.0
C53 C 0.40022 0.77352 0.6538 0.0
C54 C 0.4154 0.74435 0.63592 0.0
C55 C 0.39407 0.71308 0.62236 0.0
C56 C 0.26994 0.86267 0.66672 0.0
C57 C 0.24076 0.8666 0.68993 0.0
C58 C 0.26822 0.87257 0.62893 0.0
C59 C 0.23786 0.88571 0.61461 0.0
C60 C 0.2086 0.88895 0.63775 0.0
C61 C 0.21026 0.87944 0.67553 0.0
C62 C 0.35744 0.71129 0.62682 0.0
H63 H 0.34215 0.89605 0.84349 0.0
H64 H 0.31421 0.87004 0.78949 0.0
H65 H 0.41687 0.85989 0.7407 0.0
H66 H 0.44412 0.88371 0.79538 0.0
H67 H 0.30517 0.88467 0.72655 0.0
H68 H 0.38393 0.80442 0.7207 0.0
H69 H 0.30606 0.8072 0.63911 0.0
H70 H 0.31389 0.73794 0.64816 0.0
H71 H 0.41725 0.79758 0.66371 0.0
H72 H 0.44375 0.74606 0.63276 0.0
H73 H 0.24124 0.85886 0.7191 0.0
H74 H 0.29041 0.87025 0.61043 0.0
H75 H 0.34064 0.68715 0.61671 0.0
H76 H 0.18786 0.88173 0.69376 0.0
H77 H 0.23706 0.89307 0.5854 0.0
C78 C 0.76894 0.42226 0.85753 0.0
C79 C 0.79076 0.39637 0.87396 0.0
C80 C 0.73825 0.40757 0.84113 0.0
C81 C 0.72884 0.36668 0.84086 0.0
C82 C 0.75137 0.34088 0.85656 0.0
C83 C 0.78195 0.3556 0.87313 0.0
C84 C 0.6946 0.35103 0.82649 0.0
C85 C 0.68167 0.36839 0.79446 0.0
C86 C 0.64814 0.3551 0.78221 0.0
C87 C 0.62805 0.32334 0.80252 0.0
C88 C 0.6413 0.30463 0.8336 0.0
C89 C 0.67424 0.31911 0.84566 0.0
C90 C 0.62125 0.26941 0.85337 0.0
C91 C 0.5849 0.26794 0.86117 0.0
C92 C 0.63873 0.23695 0.86489 0.0
C93 C 0.62047 0.20402 0.88423 0.0
C94 C 0.58439 0.20287 0.8923 0.0
C95 C 0.63418 0.37405 0.74834 0.0
C96 C 0.64455 0.41404 0.73704 0.0
C97 C 0.6101 0.35237 0.72695 0.0
C98 C 0.59612 0.37028 0.69615 0.0
C99 C 0.60688 0.40991 0.68486 0.0
C100 C 0.63159 0.43148 0.70531 0.0
C101 C 0.5666 0.23487 0.88059 0.0
H102 H 0.77538 0.45385 0.85805 0.0
H103 H 0.72131 0.42823 0.82974 0.0
H104 H 0.74517 0.30924 0.85636 0.0
H105 H 0.79857 0.33524 0.88563 0.0
H106 H 0.69821 0.39181 0.77887 0.0
H107 H 0.68366 0.30596 0.87072 0.0
H108 H 0.60209 0.31271 0.79419 0.0
H109 H 0.57079 0.29261 0.85292 0.0
H110 H 0.66659 0.23693 0.8588 0.0
H111 H 0.63449 0.17944 0.89304 0.0
H112 H 0.66233 0.4323 0.75283 0.0
H113 H 0.60208 0.32132 0.73357 0.0
H114 H 0.53871 0.23434 0.88678 0.0
H115 H 0.64034 0.46211 0.69708 0.0
H116 H 0.57721 0.35295 0.6807 0.0
C117 C 0.92204 0.58849 0.21386 0.0
C118 C 0.93138 0.61154 0.18109 0.0
C119 C 0.9091 0.60563 0.24432 0.0
C120 C 0.90568 0.64619 0.24265 0.0
C121 C 0.91569 0.66934 0.20999 0.0
C122 C 0.92823 0.65209 0.17937 0.0
C123 C 0.89043 0.66397 0.27444 0.0
C124 C 0.85924 0.64562 0.29232 0.0
C125 C 0.84379 0.66261 0.32176 0.0
C126 C 0.85995 0.69817 0.33329 0.0
C127 C 0.8912 0.7167 0.316 0.0
C128 C 0.90645 0.69949 0.2866 0.0
C129 C 0.90778 0.75361 0.32978 0.0
C130 C 0.88754 0.78474 0.33492 0.0
C131 C 0.94253 0.75646 0.34135 0.0
C132 C 0.95616 0.78912 0.35954 0.0
C133 C 0.93532 0.81942 0.36575 0.0
C134 C 0.81105 0.64322 0.34093 0.0
C135 C 0.80681 0.60233 0.35002 0.0
C136 C 0.78425 0.66571 0.35129 0.0
C137 C 0.75406 0.64777 0.3707 0.0
C138 C 0.75022 0.6071 0.38009 0.0
C139 C 0.77662 0.58443 0.36949 0.0
C140 C 0.90127 0.81746 0.35263 0.0
H141 H 0.92444 0.55718 0.21568 0.0
H142 H 0.90181 0.58718 0.26924 0.0
H143 H 0.913 0.70059 0.20786 0.0
H144 H 0.9353 0.67028 0.15426 0.0
H145 H 0.84648 0.61859 0.28269 0.0
H146 H 0.93066 0.71374 0.27322 0.0
H147 H 0.84871 0.711 0.3566 0.0
H148 H 0.86072 0.78319 0.32613 0.0
H149 H 0.95846 0.73262 0.33795 0.0
H150 H 0.98247 0.79024 0.36969 0.0
H151 H 0.82714 0.58432 0.34276 0.0
H152 H 0.78657 0.69719 0.34426 0.0
H153 H 0.8849 0.84064 0.3573 0.0
H154 H 0.7739 0.55293 0.37652 0.0
H155 H 0.73372 0.66556 0.37848 0.0
C156 C 0.88242 0.8719 0.68176 0.0
C157 C 0.89282 0.91255 0.67771 0.0
C158 C 0.86277 0.85545 0.71292 0.0
C159 C 0.85315 0.87953 0.7403 0.0
C160 C 0.86345 0.92035 0.73589 0.0
C161 C 0.88326 0.93674 0.70483 0.0
C162 C 0.83265 0.86207 0.77351 0.0
C163 C 0.84194 0.82787 0.79222 0.0
C164 C 0.82281 0.81115 0.82392 0.0
C165 C 0.79388 0.82897 0.83674 0.0
C166 C 0.78445 0.86338 0.81831 0.0
C167 C 0.80399 0.87974 0.78679 0.0
C168 C 0.75401 0.88242 0.8313 0.0
C169 C 0.72153 0.86035 0.84014 0.0
C170 C 0.75718 0.92319 0.83421 0.0
C171 C 0.72792 0.94192 0.84339 0.0
C172 C 0.69393 0.92085 0.84776 0.0
C173 C 0.83406 0.77588 0.84399 0.0
C174 C 0.845 0.74496 0.82465 0.0
C175 C 0.83578 0.77379 0.88239 0.0
C176 C 0.84901 0.7419 0.90093 0.0
C177 C 0.86068 0.71172 0.88134 0.0
C178 C 0.85827 0.71317 0.84318 0.0
C179 C 0.69216 0.87917 0.84898 0.0
H180 H 0.88967 0.85299 0.6609 0.0
H181 H 0.85486 0.82396 0.7155 0.0
H182 H 0.85667 0.93949 0.75675 0.0
H183 H 0.89128 0.9682 0.70196 0.0
H184 H 0.86484 0.81495 0.78267 0.0
H185 H 0.79634 0.90584 0.77204 0.0
H186 H 0.77886 0.81625 0.86112 0.0
H187 H 0.71861 0.82855 0.83954 0.0
H188 H 0.7825 0.94067 0.82965 0.0
H189 H 0.73305 0.97279 0.84756 0.0
H190 H 0.84354 0.74551 0.79512 0.0
H191 H 0.8279 0.79735 0.89797 0.0
H192 H 0.66825 0.86039 0.85704 0.0
H193 H 0.86701 0.6899 0.82778 0.0
H194 H 0.85071 0.74103 0.93045 0.0
C195 C 0.59427 0.09262 0.2358 0.0
C196 C 0.61088 0.09024 0.20149 0.0
C197 C 0.61344 0.10723 0.26468 0.0
C198 C 0.64965 0.11951 0.25982 0.0
C199 C 0.66654 0.11561 0.2258 0.0
C200 C 0.64721 0.10132 0.19671 0.0
C201 C 0.66897 0.13854 0.2896 0.0
C202 C 0.7014 0.127 0.30054 0.0
C203 C 0.71884 0.14448 0.32963 0.0
C204 C 0.70383 0.1743 0.34709 0.0
C205 C 0.67187 0.1867 0.33595 0.0
C206 C 0.65457 0.16854 0.30733 0.0
C207 C 0.65688 0.21912 0.35379 0.0
C208 C 0.65598 0.22005 0.39216 0.0
C209 C 0.64403 0.24982 0.33248 0.0
C210 C 0.63123 0.28118 0.34916 0.0
C211 C 0.63078 0.28215 0.38739 0.0
C212 C 0.75263 0.13177 0.34216 0.0
C213 C 0.77972 0.12633 0.31679 0.0
C214 C 0.75829 0.12588 0.37984 0.0
C215 C 0.79031 0.11502 0.3919 0.0
C216 C 0.81738 0.11003 0.36655 0.0
C217 C 0.8119 0.11572 0.3289 0.0
C218 C 0.6429 0.25128 0.40883 0.0
H219 H 0.56623 0.08427 0.23988 0.0
H220 H 0.59984 0.10953 0.29071 0.0
H221 H 0.69436 0.12507 0.22128 0.0
H222 H 0.66034 0.09983 0.17028 0.0
H223 H 0.71246 0.10361 0.28719 0.0
H224 H 0.62976 0.17784 0.29877 0.0
H225 H 0.71759 0.1887 0.36878 0.0
H226 H 0.66538 0.19663 0.40926 0.0
H227 H 0.64473 0.25008 0.30286 0.0
H228 H 0.62215 0.30498 0.33228 0.0
H229 H 0.77626 0.13099 0.28763 0.0
H230 H 0.7378 0.12942 0.40004 0.0
H231 H 0.64281 0.25175 0.43839 0.0
H232 H 0.83255 0.11196 0.30897 0.0
H233 H 0.79403 0.11053 0.42104 0.0
C234 C 0.23524 0.59325 0.17414 0.0
C235 C 0.23331 0.5892 0.13635 0.0
C236 C 0.26701 0.60749 0.18888 0.0
C237 C 0.29715 0.61833 0.16594 0.0
C238 C 0.29504 0.61413 0.1281 0.0
C239 C 0.26342 0.59946 0.11346 0.0
C240 C 0.33056 0.63495 0.18114 0.0
C241 C 0.34396 0.61665 0.21239 0.0
C242 C 0.37597 0.63219 0.22634 0.0
C243 C 0.39427 0.66666 0.2087 0.0
C244 C 0.38113 0.68546 0.17754 0.0
C245 C 0.3492 0.66933 0.16406 0.0
C246 C 0.40052 0.72201 0.15909 0.0
C247 C 0.41757 0.7512 0.17968 0.0
C248 C 0.40168 0.72826 0.12063 0.0
C249 C 0.41875 0.7631 0.10327 0.0
C250 C 0.43534 0.79221 0.12395 0.0
C251 C 0.39047 0.61262 0.25921 0.0
C252 C 0.36827 0.59685 0.28931 0.0
C253 C 0.42685 0.61038 0.2611 0.0
C254 C 0.44077 0.59378 0.29258 0.0
C255 C 0.41859 0.57875 0.32263 0.0
C256 C 0.38223 0.57997 0.32072 0.0
C257 C 0.43501 0.78587 0.16223 0.0
H258 H 0.21219 0.58532 0.19214 0.0
H259 H 0.26786 0.61072 0.21808 0.0
H260 H 0.31795 0.62196 0.10985 0.0
H261 H 0.26235 0.59629 0.08426 0.0
H262 H 0.3299 0.5897 0.22519 0.0
H263 H 0.33826 0.68405 0.14065 0.0
H264 H 0.41887 0.67892 0.21928 0.0
H265 H 0.41686 0.74766 0.20932 0.0
H266 H 0.38948 0.70616 0.10385 0.0
H267 H 0.41895 0.76744 0.07366 0.0
H268 H 0.34021 0.59843 0.28897 0.0
H269 H 0.44466 0.62147 0.23822 0.0
H270 H 0.44775 0.80808 0.17858 0.0
H271 H 0.3648 0.56856 0.34382 0.0
H272 H 0.46889 0.59287 0.29362 0.0
C273 C 0.12293 0.20895 0.65611 0.0
C274 C 0.08795 0.20677 0.64578 0.0
C275 C 0.13771 0.24116 0.67379 0.0
C276 C 0.11786 0.27206 0.68137 0.0
C277 C 0.08233 0.26918 0.67217 0.0
C278 C 0.06744 0.23666 0.65447 0.0
C279 C 0.1352 0.30778 0.69704 0.0
C280 C 0.16881 0.32371 0.68341 0.0
C281 C 0.18717 0.3559 0.69879 0.0
C282 C 0.17097 0.37295 0.72773 0.0
C283 C 0.13693 0.35821 0.74126 0.0
C284 C 0.11912 0.32554 0.72568 0.0
C285 C 0.1204 0.37709 0.77181 0.0
C286 C 0.14046 0.38954 0.80131 0.0
C287 C 0.08488 0.38397 0.77121 0.0
C288 C 0.06994 0.40332 0.79923 0.0
C289 C 0.09029 0.41608 0.82823 0.0
C290 C 0.22316 0.37158 0.68439 0.0
C291 C 0.24665 0.34588 0.67222 0.0
C292 C 0.23412 0.41234 0.68196 0.0
C293 C 0.26752 0.42699 0.66744 0.0
C294 C 0.29038 0.40128 0.65447 0.0
C295 C 0.27977 0.36064 0.65702 0.0
C296 C 0.12555 0.40894 0.8292 0.0
H297 H 0.13897 0.18587 0.65001 0.0
H298 H 0.16492 0.2421 0.6812 0.0
H299 H 0.06645 0.29257 0.6776 0.0
H300 H 0.04026 0.23516 0.6469 0.0
H301 H 0.1805 0.31117 0.66022 0.0
H302 H 0.09332 0.31318 0.73657 0.0
H303 H 0.18488 0.39785 0.7398 0.0
H304 H 0.16769 0.38411 0.80297 0.0
H305 H 0.06883 0.37509 0.74874 0.0
H306 H 0.0426 0.40851 0.79826 0.0
H307 H 0.2395 0.31427 0.67438 0.0
H308 H 0.21666 0.43311 0.69047 0.0
H309 H 0.14146 0.41827 0.85164 0.0
H310 H 0.29712 0.34039 0.64717 0.0
H311 H 0.27529 0.4585 0.66551 0.0
Zn312 Zn 0.04755 -0.00072 0.52959 0.0
Zn313 Zn 0.98552 0.0254 0.48146 0.0
C314 C 0.06773 0.0706 0.56478 0.0
O315 O 0.09883 0.05815 0.56203 0.0
C316 C 0.95849 0.95528 0.44826 0.0
O317 O 0.92833 0.96872 0.45484 0.0
O318 O 0.08712 0.97522 0.55522 0.0
O319 O 0.00305 0.96316 0.54037 0.0
O320 O 0.97201 0.01352 0.53528 0.0
C321 C 0.08436 0.94139 0.57247 0.0
O322 O 0.05401 0.91922 0.57474 0.0
O323 O 0.04137 0.05075 0.55226 0.0
C324 C 0.94631 0.0619 0.4243 0.0
O325 O 0.9742 0.05822 0.40357 0.0
O326 O 0.94573 0.05136 0.45834 0.0
O327 O 0.03116 0.05842 0.46594 0.0
O328 O 0.06366 0.00989 0.47699 0.0
O329 O 0.98677 0.97382 0.45812 0.0
C330 C 0.97715 0.98034 0.55074 0.0
C331 C 0.05741 0.04051 0.45787 0.0
Zn332 Zn 0.53375 0.97963 0.98422 0.0
Zn333 Zn 0.47966 0.01466 0.02748 0.0
C334 C 0.48294 0.93673 0.94181 0.0
O335 O 0.4996 0.90747 0.95446 0.0
C336 C 0.51186 0.04558 0.09211 0.0
O337 O 0.48053 0.05631 0.09853 0.0
O338 O 0.57286 0.95974 0.95533 0.0
O339 O 0.54789 0.03766 0.98558 0.0
O340 O 0.49285 0.04884 0.98094 0.0
C341 C 0.58233 0.97979 0.92542 0.0
O342 O 0.56718 0.0114 0.91616 0.0
O343 O 0.49137 0.97103 0.95235 0.0
C344 C 0.40517 0.01659 0.03926 0.0
O345 O 0.40246 0.98703 0.0181 0.0
O346 O 0.43523 0.03289 0.04661 0.0
O347 O 0.46972 0.95545 0.02724 0.0
O348 O 0.52522 0.94724 0.03259 0.0
O349 O 0.51772 0.02741 0.06376 0.0
C350 C 0.52534 0.05978 0.97456 0.0
C351 C 0.49306 0.93512 0.03973 0.0
Zn352 Zn 0.55712 0.48707 0.46939 0.0
Zn353 Zn 0.47336 0.51232 0.53793 0.0
C354 C 0.62869 0.52601 0.46175 0.0
O355 O 0.63431 0.50318 0.49077 0.0
C356 C 0.42467 0.47071 0.58966 0.0
O357 O 0.44785 0.48628 0.61173 0.0
O358 O 0.56532 0.43644 0.4465 0.0
O359 O 0.55966 0.47683 0.52423 0.0
O360 O 0.51459 0.48916 0.55977 0.0
C361 C 0.58827 0.41561 0.45927 0.0
O362 O 0.60508 0.42597 0.48836 0.0
O363 O 0.59787 0.52585 0.45 0.0
C364 C 0.44394 0.58444 0.54879 0.0
O365 O 0.42673 0.57437 0.51981 0.0
O366 O 0.46686 0.56329 0.56109 0.0
O367 O 0.47066 0.52178 0.48341 0.0
O368 O 0.5145 0.50722 0.44722 0.0
O369 O 0.43072 0.47584 0.55525 0.0
C370 C 0.54454 0.4771 0.55563 0.0
C371 C 0.48474 0.51961 0.45186 0.0
Zn372 Zn 0.96132 0.52194 0.97394 0.0
Zn373 Zn 0.04884 0.4977 0.03217 0.0
C374 C 0.91159 0.47802 0.93566 0.0
O375 O 0.92996 0.50048 0.90968 0.0
C376 C 0.10098 0.52788 0.0792 0.0
O377 O 0.07648 0.51275 0.10362 0.0
O378 O 0.94827 0.57036 0.94596 0.0
O379 O 0.96422 0.53701 0.02601 0.0
O380 O 0.01144 0.52448 0.05652 0.0
C381 C 0.91974 0.5823 0.95683 0.0
O382 O 0.90178 0.5636 0.98518 0.0
O383 O 0.92055 0.48027 0.96868 0.0
C384 C 0.0741 0.42585 0.04719 0.0
O385 O 0.0984 0.44413 0.02399 0.0
O386 O 0.04745 0.44289 0.05548 0.0
O387 O 0.04944 0.49082 0.97814 0.0
O388 O 0.00229 0.5032 0.94736 0.0
O389 O 0.09542 0.52606 0.04527 0.0
C390 C 0.98199 0.53805 0.05467 0.0
C391 C 0.03298 0.49271 0.94867 0.0
C392 C 0.10202 0.04202 0.36331 0.0
C393 C 0.11453 0.08256 0.35764 0.0
C394 C 0.09674 0.0928 0.42071 0.0
C395 C 0.07933 0.05387 0.42441 0.0
N396 N 0.06259 0.99194 0.39801 0.0
N397 N 0.12204 0.14776 0.3794 0.0
C398 C 0.08152 0.02838 0.39556 0.0
C399 C 0.11159 0.10833 0.38599 0.0
N400 N 0.11004 0.01654 0.33793 0.0
N401 N 0.10024 0.11426 0.45076 0.0
H402 H 0.1339 0.16002 0.35455 0.0
H403 H 0.11683 0.16862 0.39764 0.0
H404 H 0.09115 0.10279 0.47689 0.0
H405 H 0.11532 0.14153 0.45058 0.0
H406 H 0.10496 0.98602 0.3423 0.0
H407 H 0.12474 0.02567 0.31376 0.0
H408 H 0.05992 0.97411 0.37612 0.0
H409 H 0.0471 0.98049 0.42096 0.0
C410 C 0.41021 0.88349 0.8902 0.0
C411 C 0.41272 0.90653 0.85624 0.0
C412 C 0.45987 0.95153 0.87907 0.0
C413 C 0.45635 0.92957 0.91366 0.0
N414 N 0.42178 0.88131 0.955 0.0
N415 N 0.43244 0.96829 0.82229 0.0
C416 C 0.4294 0.89765 0.92013 0.0
C417 C 0.43502 0.94258 0.85208 0.0
N418 N 0.39108 0.84719 0.89341 0.0
N419 N 0.48829 0.97884 0.87073 0.0
H420 H 0.41422 0.96272 0.80216 0.0
H421 H 0.44572 0.99666 0.81959 0.0
H422 H 0.50821 0.98509 0.88876 0.0
H423 H 0.49392 0.9925 0.84455 0.0
H424 H 0.39161 0.82735 0.91623 0.0
H425 H 0.37686 0.83549 0.87212 0.0
H426 H 0.40028 0.86039 0.96187 0.0
H427 H 0.43476 0.89167 0.97765 0.0
C428 C 0.59531 0.41137 0.61744 0.0
C429 C 0.59224 0.42848 0.65145 0.0
C430 C 0.56312 0.48132 0.62091 0.0
C431 C 0.56149 0.4608 0.58846 0.0
N432 N 0.56751 0.39974 0.56045 0.0
N433 N 0.56554 0.4752 0.68692 0.0
C434 C 0.57528 0.42399 0.58788 0.0
C435 C 0.574 0.46226 0.65364 0.0
N436 N 0.61792 0.38374 0.61291 0.0
N437 N 0.55547 0.51941 0.62037 0.0
H438 H 0.57147 0.46106 0.71172 0.0
H439 H 0.54933 0.4974 0.68992 0.0
H440 H 0.54901 0.53516 0.59661 0.0
H441 H 0.55937 0.53664 0.6426 0.0
H442 H 0.62314 0.37304 0.58755 0.0
H443 H 0.63427 0.37489 0.6334 0.0
H444 H 0.57461 0.37118 0.56076 0.0
H445 H 0.5505 0.40619 0.53977 0.0
C446 C 0.97959 0.60217 0.13539 0.0
C447 C 0.94417 0.59303 0.1484 0.0
C448 C 0.93435 0.54508 0.10199 0.0
C449 C 0.96867 0.55722 0.08664 0.0
N450 N 0.02083 0.60423 0.08373 0.0
N451 N 0.88572 0.56184 0.13947 0.0
C452 C 0.99049 0.5877 0.10196 0.0
C453 C 0.92088 0.56624 0.13033 0.0
N454 N 0.00315 0.62367 0.15549 0.0
N455 N 0.91515 0.51231 0.09074 0.0
H456 H 0.87475 0.57719 0.15977 0.0
H457 H 0.86709 0.54588 0.12458 0.0
H458 H 0.92441 0.49517 0.07087 0.0
H459 H 0.89151 0.49986 0.10367 0.0
H460 H 0.03008 0.62757 0.1492 0.0
H461 H 0.99631 0.63449 0.18037 0.0
H462 H 0.03585 0.62914 0.09191 0.0
H463 H 0.02907 0.59582 0.05831 0.0
C464 C 0.31955 0.02248 0.09302 0.0
C465 C 0.31626 0.06324 0.08675 0.0
C466 C 0.36786 0.0714 0.04462 0.0
C467 C 0.37343 0.03173 0.05407 0.0
N468 N 0.3576 0.97059 0.09076 0.0
N469 N 0.33931 0.12795 0.06058 0.0
C470 C 0.34996 0.00739 0.07904 0.0
C471 C 0.34094 0.08814 0.06357 0.0
N472 N 0.29329 0.99814 0.1118 0.0
N473 N 0.38755 0.09263 0.01666 0.0
H474 H 0.31967 0.14132 0.07365 0.0
H475 H 0.35892 0.14808 0.04752 0.0
H476 H 0.40717 0.08112 0.00171 0.0
H477 H 0.38233 0.12027 0.00596 0.0
H478 H 0.29235 0.96754 0.11389 0.0
H479 H 0.27083 0.00832 0.12284 0.0
H480 H 0.3437 0.95326 0.11209 0.0
H481 H 0.37961 0.95841 0.08118 0.0
C482 C 0.15528 0.87652 0.60017 0.0
C483 C 0.17602 0.90182 0.62215 0.0
C484 C 0.13373 0.95035 0.61576 0.0
C485 C 0.11541 0.92723 0.59018 0.0
N486 N 0.11249 0.87141 0.55302 0.0
N487 N 0.18824 0.9656 0.64619 0.0
C488 C 0.12709 0.89103 0.58109 0.0
C489 C 0.16615 0.93955 0.62868 0.0
N490 N 0.16196 0.83828 0.59825 0.0
N491 N 0.11942 0.98167 0.62894 0.0
H492 H 0.2123 0.95888 0.65597 0.0
H493 H 0.18415 0.99498 0.64815 0.0
H494 H 0.09511 0.98957 0.62111 0.0
H495 H 0.1298 0.9972 0.65033 0.0
H496 H 0.14543 0.81733 0.58581 0.0
H497 H 0.18222 0.82646 0.61204 0.0
H498 H 0.12254 0.84718 0.54266 0.0
H499 H 0.09243 0.8815 0.53764 0.0
C500 C 0.81783 0.42977 0.92671 0.0
C501 C 0.82224 0.41223 0.89312 0.0
C502 C 0.88602 0.4269 0.8959 0.0
C503 C 0.88119 0.45076 0.92544 0.0
N504 N 0.84174 0.47704 0.96801 0.0
N505 N 0.86035 0.39651 0.84377 0.0
C506 C 0.84695 0.45235 0.94105 0.0
C507 C 0.85633 0.41108 0.87731 0.0
N508 N 0.78585 0.42435 0.94513 0.0
N509 N 0.91903 0.41866 0.8862 0.0
H510 H 0.83926 0.38466 0.8292 0.0
H511 H 0.88433 0.39905 0.82909 0.0
H512 H 0.9412 0.42869 0.9002 0.0
H513 H 0.92393 0.39855 0.8671 0.0
H514 H 0.78188 0.43289 0.97156 0.0
H515 H 0.76397 0.40791 0.93541 0.0
H516 H 0.81694 0.48317 0.97681 0.0
H517 H 0.86203 0.49382 0.97987 0.0
C518 C 0.69226 0.56526 0.38217 0.0
C519 C 0.71826 0.58799 0.40076 0.0
C520 C 0.6827 0.57498 0.45804 0.0
C521 C 0.65878 0.54848 0.44042 0.0
N522 N 0.64428 0.51288 0.38697 0.0
N523 N 0.74106 0.6106 0.45719 0.0
C524 C 0.66434 0.54224 0.40274 0.0
C525 C 0.71427 0.59185 0.43896 0.0
N526 N 0.69388 0.56629 0.34474 0.0
N527 N 0.67463 0.58518 0.49251 0.0
H528 H 0.76449 0.62362 0.4441 0.0
H529 H 0.74127 0.6105 0.48564 0.0
H530 H 0.65137 0.57409 0.50705 0.0
H531 H 0.68928 0.6074 0.5053 0.0
H532 H 0.67358 0.55385 0.3295 0.0
H533 H 0.71409 0.58268 0.32869 0.0
H534 H 0.64997 0.50413 0.36096 0.0
H535 H 0.62392 0.49451 0.40089 0.0
C536 C 0.09795 0.34519 0.11467 0.0
C537 C 0.10039 0.31433 0.09111 0.0
C538 C 0.08083 0.35499 0.03974 0.0
C539 C 0.07853 0.38599 0.0633 0.0
N540 N 0.07741 0.40815 0.12457 0.0
N541 N 0.08841 0.28611 0.03378 0.0
C542 C 0.08448 0.38021 0.10128 0.0
C543 C 0.08997 0.31808 0.05437 0.0
N544 N 0.11007 0.34169 0.14938 0.0
N545 N 0.0747 0.36118 0.00329 0.0
H546 H 0.09546 0.25885 0.04365 0.0
H547 H 0.07787 0.28549 0.00797 0.0
H548 H 0.06523 0.38668 0.99223 0.0
H549 H 0.08006 0.34185 0.98366 0.0
H550 H 0.11339 0.36492 0.1663 0.0
H551 H 0.11918 0.31606 0.16065 0.0
H552 H 0.0774 0.40371 0.15298 0.0
H553 H 0.06881 0.4349 0.11588 0.0
C554 C 0.54686 0.13769 0.89552 0.0
C555 C 0.56568 0.16808 0.91381 0.0
C556 C 0.55699 0.12801 0.97216 0.0
C557 C 0.5372 0.09801 0.95414 0.0
N558 N 0.50847 0.07612 0.90019 0.0
N559 N 0.58312 0.19609 0.9699 0.0
C560 C 0.53041 0.10357 0.91631 0.0
C561 C 0.56905 0.1644 0.9523 0.0
N562 N 0.54612 0.14073 0.8581 0.0
N563 N 0.56476 0.12145 0.00811 0.0
H564 H 0.59238 0.22314 0.95611 0.0
H565 H 0.583 0.19683 0.99827 0.0
H566 H 0.55476 0.09617 0.02426 0.0
H567 H 0.58267 0.13998 0.02155 0.0
H568 H 0.53662 0.11771 0.84267 0.0
H569 H 0.55721 0.16564 0.84203 0.0
H570 H 0.49933 0.08046 0.87392 0.0
H571 H 0.49735 0.04976 0.91387 0.0
C572 C 0.96636 0.88696 0.37158 0.0
C573 C 0.9476 0.85202 0.38849 0.0
C574 C 0.94509 0.88254 0.44703 0.0
C575 C 0.95912 0.919 0.4288 0.0
N576 N 0.98284 0.95723 0.37402 0.0
N577 N 0.91883 0.81544 0.44185 0.0
C578 C 0.97027 0.92149 0.39127 0.0
C579 C 0.93724 0.84934 0.42625 0.0
N580 N 0.98031 0.88699 0.33673 0.0
N581 N 0.93993 0.8797 0.48432 0.0
H582 H 0.91416 0.78985 0.42799 0.0
H583 H 0.90667 0.81305 0.46786 0.0
H584 H 0.94575 0.90357 0.50021 0.0
H585 H 0.93284 0.85325 0.4999 0.0
H586 H 0.99724 0.91017 0.324 0.0
H587 H 0.97715 0.86236 0.32138 0.0
H588 H 0.98742 0.9621 0.34582 0.0
H589 H 0.98707 0.98288 0.38778 0.0
C590 C 0.42289 0.68748 0.56745 0.0
C591 C 0.40991 0.68128 0.60439 0.0
C592 C 0.41896 0.61155 0.60486 0.0
C593 C 0.43411 0.61818 0.56872 0.0
N594 N 0.45654 0.66365 0.51801 0.0
N595 N 0.40252 0.64001 0.66079 0.0
C596 C 0.43786 0.65656 0.55069 0.0
C597 C 0.4102 0.6441 0.6239 0.0
N598 N 0.41977 0.72241 0.54801 0.0
N599 N 0.41085 0.57398 0.62022 0.0
H600 H 0.3958 0.6632 0.67567 0.0
H601 H 0.40595 0.61471 0.67718 0.0
H602 H 0.41571 0.54924 0.60677 0.0
H603 H 0.39619 0.56714 0.64474 0.0
H604 H 0.42503 0.72713 0.51987 0.0
H605 H 0.4094 0.7459 0.5595 0.0
H606 H 0.46322 0.69173 0.50522 0.0
H607 H 0.46817 0.64175 0.50524 0.0
C608 C 0.89754 0.94073 0.61262 0.0
C609 C 0.91427 0.92989 0.64514 0.0
C610 C 0.97157 0.95625 0.61707 0.0
C611 C 0.95531 0.96362 0.58334 0.0
N612 N 0.90355 0.95804 0.54733 0.0
N613 N 0.96719 0.92165 0.67732 0.0
C614 C 0.91843 0.95471 0.58066 0.0
C615 C 0.95132 0.93594 0.64706 0.0
N616 N 0.86167 0.93837 0.61252 0.0
N617 N 0.00591 0.97045 0.62107 0.0
H618 H 0.95316 0.9074 0.70027 0.0
H619 H 0.99425 0.92107 0.67855 0.0
H620 H 0.02143 0.98656 0.60014 0.0
H621 H 0.01813 0.9696 0.64606 0.0
H622 H 0.84802 0.95007 0.591 0.0
H623 H 0.84547 0.9273 0.63519 0.0
H624 H 0.87759 0.94759 0.54284 0.0
H625 H 0.91791 0.96848 0.52337 0.0
C626 C 0.57287 0.10843 0.14996 0.0
C627 C 0.58927 0.07906 0.17006 0.0
C628 C 0.55654 0.0274 0.1374 0.0
C629 C 0.54053 0.05687 0.1169 0.0
N630 N 0.53864 0.12547 0.09784 0.0
N631 N 0.60228 0.01191 0.17874 0.0
C632 C 0.55026 0.09744 0.12147 0.0
C633 C 0.58294 0.03892 0.16231 0.0
N634 N 0.5781 0.14674 0.15891 0.0
N635 N 0.54514 0.98845 0.13459 0.0
H636 H 0.6212 0.01932 0.19772 0.0
H637 H 0.60166 0.98295 0.17156 0.0
H638 H 0.52594 0.97879 0.11669 0.0
H639 H 0.55279 0.96567 0.15176 0.0
H640 H 0.56349 0.16866 0.14869 0.0
H641 H 0.59576 0.15636 0.17837 0.0
H642 H 0.54789 0.1553 0.09698 0.0
H643 H 0.52191 0.11862 0.07672 0.0
C644 C 0.44023 0.52279 0.3603 0.0
C645 C 0.43384 0.5629 0.35658 0.0
C646 C 0.46225 0.57493 0.41443 0.0
C647 C 0.46671 0.53427 0.41933 0.0
N648 N 0.45518 0.46815 0.40042 0.0
N649 N 0.43354 0.62594 0.38214 0.0
C650 C 0.45443 0.50778 0.39317 0.0
C651 C 0.44319 0.58857 0.38436 0.0
N652 N 0.43331 0.49927 0.33208 0.0
N653 N 0.47781 0.60085 0.43746 0.0
H654 H 0.42063 0.6375 0.35991 0.0
H655 H 0.43588 0.6445 0.40351 0.0
H656 H 0.49237 0.59219 0.45958 0.0
H657 H 0.47892 0.63134 0.43295 0.0
H658 H 0.44116 0.47118 0.3312 0.0
H659 H 0.42161 0.50881 0.30823 0.0
H660 H 0.44328 0.4469 0.3844 0.0
H661 H 0.46529 0.45613 0.42426 0.0
C662 C 0.07958 0.47794 0.85798 0.0
C663 C 0.07453 0.43616 0.85829 0.0
C664 C 0.03904 0.43246 0.91553 0.0
C665 C 0.04675 0.47387 0.91695 0.0
N666 N 0.0766 0.53603 0.89212 0.0
N667 N 0.0538 0.373 0.88932 0.0
C668 C 0.06762 0.49668 0.88883 0.0
C669 C 0.05536 0.41322 0.88757 0.0
N670 N 0.09513 0.4996 0.82782 0.0
N671 N 0.01545 0.41164 0.94047 0.0
H672 H 0.06483 0.35772 0.86899 0.0
H673 H 0.04399 0.35482 0.91218 0.0
H674 H 0.0035 0.42441 0.96196 0.0
H675 H 0.00563 0.38232 0.93835 0.0
H676 H 0.09644 0.53016 0.82415 0.0
H677 H 0.10458 0.48676 0.805 0.0
H678 H 0.09481 0.55365 0.87468 0.0
H679 H 0.06743 0.5507 0.91392 0.0
C680 C 0.62733 0.91967 0.8581 0.0
C681 C 0.66127 0.94104 0.85533 0.0
C682 C 0.63952 0.99276 0.88925 0.0
C683 C 0.60877 0.96697 0.89996 0.0
N684 N 0.57055 0.90779 0.8902 0.0
N685 N 0.68293 0.00912 0.84013 0.0
C686 C 0.60166 0.93098 0.88294 0.0
C687 C 0.66325 0.98124 0.86275 0.0
N688 N 0.61836 0.89268 0.8333 0.0
N689 N 0.64675 0.02774 0.90477 0.0
H690 H 0.69477 0.00181 0.8158 0.0
H691 H 0.68281 0.03929 0.84255 0.0
H692 H 0.63044 0.03728 0.92488 0.0
H693 H 0.67055 0.04555 0.8996 0.0
H694 H 0.59303 0.87855 0.83144 0.0
H695 H 0.63557 0.8884 0.8116 0.0
H696 H 0.56587 0.87915 0.88208 0.0
H697 H 0.54991 0.9167 0.90554 0.0
C698 C 0.85978 0.05949 0.37589 0.0
C699 C 0.85138 0.0984 0.37967 0.0
C700 C 0.90502 0.11326 0.41349 0.0
C701 C 0.91446 0.07517 0.40767 0.0
N702 N 0.90416 0.0143 0.37805 0.0
N703 N 0.86858 0.16462 0.39602 0.0
C704 C 0.89292 0.04905 0.38708 0.0
C705 C 0.87475 0.12597 0.39681 0.0
N706 N 0.83539 0.03193 0.36321 0.0
N707 N 0.92483 0.13714 0.43525 0.0
H708 H 0.84683 0.17501 0.38381 0.0
H709 H 0.88639 0.18701 0.40461 0.0
H710 H 0.94813 0.12967 0.44638 0.0
H711 H 0.91713 0.16325 0.44414 0.0
H712 H 0.83829 0.00201 0.36383 0.0
H713 H 0.81074 0.0383 0.35488 0.0
H714 H 0.89161 0.99618 0.35962 0.0
H715 H 0.92767 0.0049 0.3867 0.0
C716 C 0.19035 0.53228 0.12161 0.0
C717 C 0.19975 0.57364 0.12069 0.0
C718 C 0.14441 0.5852 0.09194 0.0
C719 C 0.13574 0.54387 0.09152 0.0
N720 N 0.15211 0.47799 0.10021 0.0
N721 N 0.18856 0.63977 0.10147 0.0
C722 C 0.15918 0.51736 0.10481 0.0
C723 C 0.17761 0.60022 0.10472 0.0
N724 N 0.21098 0.50732 0.13912 0.0
N725 N 0.12033 0.60996 0.08133 0.0
H726 H 0.21194 0.65199 0.11201 0.0
H727 H 0.17569 0.66037 0.08647 0.0
H728 H 0.09629 0.6 0.07073 0.0
H729 H 0.12307 0.64003 0.08494 0.0
H730 H 0.20358 0.47727 0.14473 0.0
H731 H 0.23486 0.51699 0.15024 0.0
H732 H 0.16966 0.45742 0.10571 0.0
H733 H 0.12955 0.46613 0.08797 0.0
C734 C 0.35657 0.40871 0.65326 0.0
C735 C 0.32495 0.41725 0.6369 0.0
C736 C 0.35856 0.4628 0.59093 0.0
C737 C 0.39034 0.45112 0.60484 0.0
N738 N 0.41909 0.40611 0.6442 0.0
N739 N 0.29642 0.44457 0.58472 0.0
C740 C 0.38923 0.42203 0.63457 0.0
C741 C 0.32612 0.44184 0.604 0.0
N742 N 0.35558 0.38923 0.68722 0.0
N743 N 0.35895 0.49533 0.56696 0.0
H744 H 0.27219 0.42892 0.59294 0.0
H745 H 0.29669 0.45909 0.55871 0.0
H746 H 0.38182 0.51321 0.55805 0.0
H747 H 0.33617 0.50714 0.55914 0.0
H748 H 0.378 0.38589 0.70195 0.0
H749 H 0.33221 0.37965 0.70216 0.0
H750 H 0.41907 0.38214 0.66338 0.0
H751 H 0.44331 0.41404 0.63031 0.0
C752 C 0.85623 0.64101 0.90538 0.0
C753 C 0.876 0.67865 0.90068 0.0
C754 C 0.92407 0.65365 0.93446 0.0
C755 C 0.90545 0.61532 0.93648 0.0
N756 N 0.85745 0.57075 0.91714 0.0
N757 N 0.93094 0.71972 0.90478 0.0
C758 C 0.87248 0.60847 0.9201 0.0
C759 C 0.91061 0.6847 0.91351 0.0
N760 N 0.82165 0.63657 0.89666 0.0
N761 N 0.95382 0.66073 0.95373 0.0
H762 H 0.92194 0.74325 0.88961 0.0
H763 H 0.9576 0.72433 0.9099 0.0
H764 H 0.96445 0.63876 0.96951 0.0
H765 H 0.96631 0.6889 0.95659 0.0
H766 H 0.80491 0.61075 0.90321 0.0
H767 H 0.80882 0.65977 0.8857 0.0
H768 H 0.83521 0.56378 0.90221 0.0
H769 H 0.86923 0.54612 0.92645 0.0
C770 C 0.48314 0.82892 0.08228 0.0
C771 C 0.4527 0.82955 0.10521 0.0
C772 C 0.45583 0.90094 0.09233 0.0
C773 C 0.48216 0.89923 0.06444 0.0
N774 N 0.51887 0.85993 0.03043 0.0
N775 N 0.40677 0.86549 0.12809 0.0
C776 C 0.4956 0.86286 0.05893 0.0
C777 C 0.43818 0.86541 0.10932 0.0
N778 N 0.50056 0.79612 0.08336 0.0
N779 N 0.44856 0.93653 0.10364 0.0
H780 H 0.39259 0.84002 0.14056 0.0
H781 H 0.39326 0.89028 0.12837 0.0
H782 H 0.46224 0.96325 0.0933 0.0
H783 H 0.43191 0.93923 0.12617 0.0
H784 H 0.52493 0.79537 0.07013 0.0
H785 H 0.49233 0.77085 0.1004 0.0
H786 H 0.52588 0.83309 0.02256 0.0
H787 H 0.52926 0.88373 0.01272 0.0
C788 C 0.06691 0.13512 0.64493 0.0
C789 C 0.0736 0.17272 0.62569 0.0
C790 C 0.06296 0.14263 0.56761 0.0
C791 C 0.06327 0.10501 0.58614 0.0
N792 N 0.06296 0.06413 0.64239 0.0
N793 N 0.07882 0.2131 0.56862 0.0
C794 C 0.06406 0.10085 0.62491 0.0
C795 C 0.07123 0.17685 0.587 0.0
N796 N 0.06313 0.13245 0.68232 0.0
N797 N 0.05463 0.14549 0.53161 0.0
H798 H 0.08447 0.23892 0.58187 0.0
H799 H 0.08168 0.21735 0.5402 0.0
H800 H 0.04752 0.12071 0.5173 0.0
H801 H 0.05116 0.17198 0.51716 0.0
H802 H 0.05533 0.10626 0.69805 0.0
H803 H 0.06487 0.15725 0.69752 0.0
H804 H 0.06789 0.05895 0.66999 0.0
H805 H 0.05813 0.03853 0.62868 0.0
C806 C 0.58364 0.31704 0.41602 0.0
C807 C 0.61942 0.31669 0.40493 0.0
C808 C 0.63362 0.38296 0.42563 0.0
C809 C 0.59852 0.3819 0.43973 0.0
N810 N 0.54117 0.34618 0.45311 0.0
N811 N 0.67952 0.34668 0.40265 0.0
C812 C 0.57369 0.34855 0.43602 0.0
C813 C 0.64472 0.34893 0.41072 0.0
N814 N 0.55916 0.28745 0.40702 0.0
N815 N 0.656 0.41706 0.42513 0.0
H816 H 0.68862 0.32291 0.39039 0.0
H817 H 0.69969 0.367 0.41041 0.0
H818 H 0.64909 0.44265 0.43591 0.0
H819 H 0.68045 0.4212 0.41131 0.0
H820 H 0.53219 0.28813 0.41064 0.0
H821 H 0.56571 0.26332 0.39339 0.0
H822 H 0.52323 0.3209 0.45487 0.0
H823 H 0.53303 0.36853 0.4682 0.0
loop_
_geom_bond_atom_site_label_1
_geom_bond_atom_site_label_2
_geom_bond_distance
_geom_bond_site_symmetry_2
_ccdc_geom_bond_type
C0 C1 1.386 . S
C0 C2 1.397 . S
C0 H24 0.931 . S
C1 C0 1.386 . S
C1 C5 1.397 . S
C2 C0 1.397 . S
C2 C3 1.384 . S
C2 H25 0.930 . S
C3 C2 1.384 . S
C3 C4 1.377 . S
C3 C6 1.481 . S
C4 C3 1.377 . S
C4 C5 1.389 . S
C4 H26 0.929 . S
C5 C1 1.397 . S
C5 C4 1.389 . S
C5 H27 0.931 . S
C6 C3 1.481 . S
C6 C7 1.387 . S
C6 C11 1.390 . S
C7 C6 1.387 . S
C7 C8 1.401 . S
C7 H28 0.930 . S
C8 C7 1.401 . S
C8 C9 1.376 . S
C8 C17 1.511 . S
C9 C8 1.376 . S
C9 C10 1.392 . S
C9 H30 0.931 . S
C10 C9 1.392 . S
C10 C11 1.361 . S
C10 C12 1.500 . S
C11 C6 1.390 . S
C11 C10 1.361 . S
C11 H29 0.931 . S
C12 C10 1.500 . S
C12 C13 1.371 . S
C12 C14 1.365 . S
C13 C12 1.371 . S
C13 C23 1.386 . S
C13 H31 0.931 . S
C14 C12 1.365 . S
C14 C15 1.409 . S
C14 H32 0.929 . S
C15 C14 1.409 . S
C15 C16 1.380 . S
C15 H33 0.930 . S
C16 C15 1.380 . S
C16 C23 1.357 . S
C17 C8 1.511 . S
C17 C18 1.341 . S
C17 C19 1.371 . S
C18 C17 1.341 . S
C18 C22 1.394 . S
C18 H34 0.930 . S
C19 C17 1.371 . S
C19 C20 1.392 . S
C19 H35 0.931 . S
C20 C19 1.392 . S
C20 C21 1.331 . S
C20 H38 0.932 . S
C21 C20 1.331 . S
C21 C22 1.336 . S
C22 C18 1.394 . S
C22 C21 1.336 . S
C22 H37 0.929 . S
C23 C13 1.386 . S
C23 C16 1.357 . S
C23 H36 0.928 . S
H24 C0 0.931 . S
H25 C2 0.930 . S
H26 C4 0.929 . S
H27 C5 0.931 . S
H28 C7 0.930 . S
H29 C11 0.931 . S
H30 C9 0.931 . S
H31 C13 0.931 . S
H32 C14 0.929 . S
H33 C15 0.930 . S
H34 C18 0.930 . S
H35 C19 0.931 . S
H36 C23 0.928 . S
H37 C22 0.929 . S
H38 C20 0.932 . S
C39 C40 1.386 . S
C39 C41 1.397 . S
C39 H63 0.931 . S
C40 C39 1.386 . S
C40 C44 1.397 . S
C41 C39 1.397 . S
C41 C42 1.384 . S
C41 H64 0.930 . S
C42 C41 1.384 . S
C42 C43 1.377 . S
C42 C45 1.481 . S
C43 C42 1.377 . S
C43 C44 1.389 . S
C43 H65 0.929 . S
C44 C40 1.397 . S
C44 C43 1.389 . S
C44 H66 0.931 . S
C45 C42 1.481 . S
C45 C46 1.387 . S
C45 C50 1.390 . S
C46 C45 1.387 . S
C46 C47 1.401 . S
C46 H67 0.930 . S
C47 C46 1.401 . S
C47 C48 1.376 . S
C47 C56 1.511 . S
C48 C47 1.376 . S
C48 C49 1.392 . S
C48 H69 0.931 . S
C49 C48 1.392 . S
C49 C50 1.361 . S
C49 C51 1.500 . S
C50 C45 1.390 . S
C50 C49 1.361 . S
C50 H68 0.931 . S
C51 C49 1.500 . S
C51 C52 1.371 . S
C51 C53 1.365 . S
C52 C51 1.371 . S
C52 C62 1.386 . S
C52 H70 0.931 . S
C53 C51 1.365 . S
C53 C54 1.409 . S
C53 H71 0.929 . S
C54 C53 1.409 . S
C54 C55 1.380 . S
C54 H72 0.930 . S
C55 C54 1.380 . S
C55 C62 1.357 . S
C56 C47 1.511 . S
C56 C57 1.341 . S
C56 C58 1.371 . S
C57 C56 1.341 . S
C57 C61 1.394 . S
C57 H73 0.930 . S
C58 C56 1.371 . S
C58 C59 1.392 . S
C58 H74 0.931 . S
C59 C58 1.392 . S
C59 C60 1.331 . S
C59 H77 0.932 . S
C60 C59 1.331 . S
C60 C61 1.336 . S
C61 C57 1.394 . S
C61 C60 1.336 . S
C61 H76 0.929 . S
C62 C52 1.386 . S
C62 C55 1.357 . S
C62 H75 0.928 . S
H63 C39 0.931 . S
H64 C41 0.930 . S
H65 C43 0.929 . S
H66 C44 0.931 . S
H67 C46 0.930 . S
H68 C50 0.931 . S
H69 C48 0.931 . S
H70 C52 0.931 . S
H71 C53 0.929 . S
H72 C54 0.930 . S
H73 C57 0.930 . S
H74 C58 0.931 . S
H75 C62 0.928 . S
H76 C61 0.929 . S
H77 C59 0.932 . S
C78 C79 1.386 . S
C78 C80 1.397 . S
C78 H102 0.931 . S
C79 C78 1.386 . S
C79 C83 1.397 . S
C80 C78 1.397 . S
C80 C81 1.384 . S
C80 H103 0.930 . S
C81 C80 1.384 . S
C81 C82 1.377 . S
C81 C84 1.481 . S
C82 C81 1.377 . S
C82 C83 1.389 . S
C82 H104 0.929 . S
C83 C79 1.397 . S
C83 C82 1.389 . S
C83 H105 0.931 . S
C84 C81 1.481 . S
C84 C85 1.387 . S
C84 C89 1.390 . S
C85 C84 1.387 . S
C85 C86 1.401 . S
C85 H106 0.930 . S
C86 C85 1.401 . S
C86 C87 1.376 . S
C86 C95 1.511 . S
C87 C86 1.376 . S
C87 C88 1.392 . S
C87 H108 0.931 . S
C88 C87 1.392 . S
C88 C89 1.361 . S
C88 C90 1.500 . S
C89 C84 1.390 . S
C89 C88 1.361 . S
C89 H107 0.931 . S
C90 C88 1.500 . S
C90 C91 1.371 . S
C90 C92 1.365 . S
C91 C90 1.371 . S
C91 C101 1.386 . S
C91 H109 0.931 . S
C92 C90 1.365 . S
C92 C93 1.409 . S
C92 H110 0.929 . S
C93 C92 1.409 . S
C93 C94 1.380 . S
C93 H111 0.930 . S
C94 C93 1.380 . S
C94 C101 1.357 . S
C95 C86 1.511 . S
C95 C96 1.341 . S
C95 C97 1.371 . S
C96 C95 1.341 . S
C96 C100 1.394 . S
C96 H112 0.930 . S
C97 C95 1.371 . S
C97 C98 1.392 . S
C97 H113 0.931 . S
C98 C97 1.392 . S
C98 C99 1.331 . S
C98 H116 0.932 . S
C99 C98 1.331 . S
C99 C100 1.336 . S
C100 C96 1.394 . S
C100 C99 1.336 . S
C100 H115 0.929 . S
C101 C91 1.386 . S
C101 C94 1.357 . S
C101 H114 0.928 . S
H102 C78 0.931 . S
H103 C80 0.930 . S
H104 C82 0.929 . S
H105 C83 0.931 . S
H106 C85 0.930 . S
H107 C89 0.931 . S
H108 C87 0.931 . S
H109 C91 0.931 . S
H110 C92 0.929 . S
H111 C93 0.930 . S
H112 C96 0.930 . S
H113 C97 0.931 . S
H114 C101 0.928 . S
H115 C100 0.929 . S
H116 C98 0.932 . S
C117 C118 1.386 . S
C117 C119 1.397 . S
C117 H141 0.931 . S
C118 C117 1.386 . S
C118 C122 1.397 . S
C119 C117 1.397 . S
C119 C120 1.384 . S
C119 H142 0.930 . S
C120 C119 1.384 . S
C120 C121 1.377 . S
C120 C123 1.481 . S
C121 C120 1.377 . S
C121 C122 1.389 . S
C121 H143 0.929 . S
C122 C118 1.397 . S
C122 C121 1.389 . S
C122 H144 0.931 . S
C123 C120 1.481 . S
C123 C124 1.387 . S
C123 C128 1.390 . S
C124 C123 1.387 . S
C124 C125 1.401 . S
C124 H145 0.930 . S
C125 C124 1.401 . S
C125 C126 1.376 . S
C125 C134 1.511 . S
C126 C125 1.376 . S
C126 C127 1.392 . S
C126 H147 0.931 . S
C127 C126 1.392 . S
C127 C128 1.361 . S
C127 C129 1.500 . S
C128 C123 1.390 . S
C128 C127 1.361 . S
C128 H146 0.931 . S
C129 C127 1.500 . S
C129 C130 1.371 . S
C129 C131 1.365 . S
C130 C129 1.371 . S
C130 C140 1.386 . S
C130 H148 0.931 . S
C131 C129 1.365 . S
C131 C132 1.409 . S
C131 H149 0.929 . S
C132 C131 1.409 . S
C132 C133 1.380 . S
C132 H150 0.930 . S
C133 C132 1.380 . S
C133 C140 1.357 . S
C134 C125 1.511 . S
C134 C135 1.341 . S
C134 C136 1.371 . S
C135 C134 1.341 . S
C135 C139 1.394 . S
C135 H151 0.930 . S
C136 C134 1.371 . S
C136 C137 1.392 . S
C136 H152 0.931 . S
C137 C136 1.392 . S
C137 C138 1.331 . S
C137 H155 0.932 . S
C138 C137 1.331 . S
C138 C139 1.336 . S
C139 C135 1.394 . S
C139 C138 1.336 . S
C139 H154 0.929 . S
C140 C130 1.386 . S
C140 C133 1.357 . S
C140 H153 0.928 . S
H141 C117 0.931 . S
H142 C119 0.930 . S
H143 C121 0.929 . S
H144 C122 0.931 . S
H145 C124 0.930 . S
H146 C128 0.931 . S
H147 C126 0.931 . S
H148 C130 0.931 . S
H149 C131 0.929 . S
H150 C132 0.930 . S
H151 C135 0.930 . S
H152 C136 0.931 . S
H153 C140 0.928 . S
H154 C139 0.929 . S
H155 C137 0.932 . S
C156 C157 1.386 . S
C156 C158 1.397 . S
C156 H180 0.931 . S
C157 C156 1.386 . S
C157 C161 1.397 . S
C158 C156 1.397 . S
C158 C159 1.384 . S
C158 H181 0.930 . S
C159 C158 1.384 . S
C159 C160 1.377 . S
C159 C162 1.481 . S
C160 C159 1.377 . S
C160 C161 1.389 . S
C160 H182 0.929 . S
C161 C157 1.397 . S
C161 C160 1.389 . S
C161 H183 0.931 . S
C162 C159 1.481 . S
C162 C163 1.387 . S
C162 C167 1.390 . S
C163 C162 1.387 . S
C163 C164 1.401 . S
C163 H184 0.930 . S
C164 C163 1.401 . S
C164 C165 1.376 . S
C164 C173 1.511 . S
C165 C164 1.376 . S
C165 C166 1.392 . S
C165 H186 0.931 . S
C166 C165 1.392 . S
C166 C167 1.361 . S
C166 C168 1.500 . S
C167 C162 1.390 . S
C167 C166 1.361 . S
C167 H185 0.931 . S
C168 C166 1.500 . S
C168 C169 1.371 . S
C168 C170 1.365 . S
C169 C168 1.371 . S
C169 C179 1.386 . S
C169 H187 0.931 . S
C170 C168 1.365 . S
C170 C171 1.409 . S
C170 H188 0.929 . S
C171 C170 1.409 . S
C171 C172 1.380 . S
C171 H189 0.930 . S
C172 C171 1.380 . S
C172 C179 1.357 . S
C173 C164 1.511 . S
C173 C174 1.341 . S
C173 C175 1.371 . S
C174 C173 1.341 . S
C174 C178 1.394 . S
C174 H190 0.930 . S
C175 C173 1.371 . S
C175 C176 1.392 . S
C175 H191 0.931 . S
C176 C175 1.392 . S
C176 C177 1.331 . S
C176 H194 0.932 . S
C177 C176 1.331 . S
C177 C178 1.336 . S
C178 C174 1.394 . S
C178 C177 1.336 . S
C178 H193 0.929 . S
C179 C169 1.386 . S
C179 C172 1.357 . S
C179 H192 0.928 . S
H180 C156 0.931 . S
H181 C158 0.930 . S
H182 C160 0.929 . S
H183 C161 0.931 . S
H184 C163 0.930 . S
H185 C167 0.931 . S
H186 C165 0.931 . S
H187 C169 0.931 . S
H188 C170 0.929 . S
H189 C171 0.930 . S
H190 C174 0.930 . S
H191 C175 0.931 . S
H192 C179 0.928 . S
H193 C178 0.929 . S
H194 C176 0.932 . S
C195 C196 1.386 . S
C195 C197 1.397 . S
C195 H219 0.931 . S
C196 C195 1.386 . S
C196 C200 1.397 . S
C197 C195 1.397 . S
C197 C198 1.384 . S
C197 H220 0.930 . S
C198 C197 1.384 . S
C198 C199 1.377 . S
C198 C201 1.481 . S
C199 C198 1.377 . S
C199 C200 1.389 . S
C199 H221 0.929 . S
C200 C196 1.397 . S
C200 C199 1.389 . S
C200 H222 0.931 . S
C201 C198 1.481 . S
C201 C202 1.387 . S
C201 C206 1.390 . S
C202 C201 1.387 . S
C202 C203 1.401 . S
C202 H223 0.930 . S
C203 C202 1.401 . S
C203 C204 1.376 . S
C203 C212 1.511 . S
C204 C203 1.376 . S
C204 C205 1.392 . S
C204 H225 0.931 . S
C205 C204 1.392 . S
C205 C206 1.361 . S
C205 C207 1.500 . S
C206 C201 1.390 . S
C206 C205 1.361 . S
C206 H224 0.931 . S
C207 C205 1.500 . S
C207 C208 1.371 . S
C207 C209 1.365 . S
C208 C207 1.371 . S
C208 C218 1.386 . S
C208 H226 0.931 . S
C209 C207 1.365 . S
C209 C210 1.409 . S
C209 H227 0.929 . S
C210 C209 1.409 . S
C210 C211 1.380 . S
C210 H228 0.930 . S
C211 C210 1.380 . S
C211 C218 1.357 . S
C212 C203 1.511 . S
C212 C213 1.341 . S
C212 C214 1.371 . S
C213 C212 1.341 . S
C213 C217 1.394 . S
C213 H229 0.930 . S
C214 C212 1.371 . S
C214 C215 1.392 . S
C214 H230 0.931 . S
C215 C214 1.392 . S
C215 C216 1.331 . S
C215 H233 0.932 . S
C216 C215 1.331 . S
C216 C217 1.336 . S
C217 C213 1.394 . S
C217 C216 1.336 . S
C217 H232 0.929 . S
C218 C208 1.386 . S
C218 C211 1.357 . S
C218 H231 0.928 . S
H219 C195 0.931 . S
H220 C197 0.930 . S
H221 C199 0.929 . S
H222 C200 0.931 . S
H223 C202 0.930 . S
H224 C206 0.931 . S
H225 C204 0.931 . S
H226 C208 0.931 . S
H227 C209 0.929 . S
H228 C210 0.930 . S
H229 C213 0.930 . S
H230 C214 0.931 . S
H231 C218 0.928 . S
H232 C217 0.929 . S
H233 C215 0.932 . S
C234 C235 1.386 . S
C234 C236 1.397 . S
C234 H258 0.931 . S
C235 C234 1.386 . S
C235 C239 1.397 . S
C236 C234 1.397 . S
C236 C237 1.384 . S
C236 H259 0.930 . S
C237 C236 1.384 . S
C237 C238 1.377 . S
C237 C240 1.481 . S
C238 C237 1.377 . S
C238 C239 1.389 . S
C238 H260 0.929 . S
C239 C235 1.397 . S
C239 C238 1.389 . S
C239 H261 0.931 . S
C240 C237 1.481 . S
C240 C241 1.387 . S
C240 C245 1.390 . S
C241 C240 1.387 . S
C241 C242 1.401 . S
C241 H262 0.930 . S
C242 C241 1.401 . S
C242 C243 1.376 . S
C242 C251 1.511 . S
C243 C242 1.376 . S
C243 C244 1.392 . S
C243 H264 0.931 . S
C244 C243 1.392 . S
C244 C245 1.361 . S
C244 C246 1.500 . S
C245 C240 1.390 . S
C245 C244 1.361 . S
C245 H263 0.931 . S
C246 C244 1.500 . S
C246 C247 1.371 . S
C246 C248 1.365 . S
C247 C246 1.371 . S
C247 C257 1.386 . S
C247 H265 0.931 . S
C248 C246 1.365 . S
C248 C249 1.409 . S
C248 H266 0.929 . S
C249 C248 1.409 . S
C249 C250 1.380 . S
C249 H267 0.930 . S
C250 C249 1.380 . S
C250 C257 1.357 . S
C251 C242 1.511 . S
C251 C252 1.341 . S
C251 C253 1.371 . S
C252 C251 1.341 . S
C252 C256 1.394 . S
C252 H268 0.930 . S
C253 C251 1.371 . S
C253 C254 1.392 . S
C253 H269 0.931 . S
C254 C253 1.392 . S
C254 C255 1.331 . S
C254 H272 0.932 . S
C255 C254 1.331 . S
C255 C256 1.336 . S
C256 C252 1.394 . S
C256 C255 1.336 . S
C256 H271 0.929 . S
C257 C247 1.386 . S
C257 C250 1.357 . S
C257 H270 0.928 . S
H258 C234 0.931 . S
H259 C236 0.930 . S
H260 C238 0.929 . S
H261 C239 0.931 . S
H262 C241 0.930 . S
H263 C245 0.931 . S
H264 C243 0.931 . S
H265 C247 0.931 . S
H266 C248 0.929 . S
H267 C249 0.930 . S
H268 C252 0.930 . S
H269 C253 0.931 . S
H270 C257 0.928 . S
H271 C256 0.929 . S
H272 C254 0.932 . S
C273 C274 1.386 . S
C273 C275 1.397 . S
C273 H297 0.931 . S
C274 C273 1.386 . S
C274 C278 1.397 . S
C275 C273 1.397 . S
C275 C276 1.384 . S
C275 H298 0.930 . S
C276 C275 1.384 . S
C276 C277 1.377 . S
C276 C279 1.481 . S
C277 C276 1.377 . S
C277 C278 1.389 . S
C277 H299 0.929 . S
C278 C274 1.397 . S
C278 C277 1.389 . S
C278 H300 0.931 . S
C279 C276 1.481 . S
C279 C280 1.387 . S
C279 C284 1.390 . S
C280 C279 1.387 . S
C280 C281 1.401 . S
C280 H301 0.930 . S
C281 C280 1.401 . S
C281 C282 1.376 . S
C281 C290 1.511 . S
C282 C281 1.376 . S
C282 C283 1.392 . S
C282 H303 0.931 . S
C283 C282 1.392 . S
C283 C284 1.361 . S
C283 C285 1.500 . S
C284 C279 1.390 . S
C284 C283 1.361 . S
C284 H302 0.931 . S
C285 C283 1.500 . S
C285 C286 1.371 . S
C285 C287 1.365 . S
C286 C285 1.371 . S
C286 C296 1.386 . S
C286 H304 0.931 . S
C287 C285 1.365 . S
C287 C288 1.409 . S
C287 H305 0.929 . S
C288 C287 1.409 . S
C288 C289 1.380 . S
C288 H306 0.930 . S
C289 C288 1.380 . S
C289 C296 1.357 . S
C290 C281 1.511 . S
C290 C291 1.341 . S
C290 C292 1.371 . S
C291 C290 1.341 . S
C291 C295 1.394 . S
C291 H307 0.930 . S
C292 C290 1.371 . S
C292 C293 1.392 . S
C292 H308 0.931 . S
C293 C292 1.392 . S
C293 C294 1.331 . S
C293 H311 0.932 . S
C294 C293 1.331 . S
C294 C295 1.336 . S
C295 C291 1.394 . S
C295 C294 1.336 . S
C295 H310 0.929 . S
C296 C286 1.386 . S
C296 C289 1.357 . S
C296 H309 0.928 . S
H297 C273 0.931 . S
H298 C275 0.930 . S
H299 C277 0.929 . S
H300 C278 0.931 . S
H301 C280 0.930 . S
H302 C284 0.931 . S
H303 C282 0.931 . S
H304 C286 0.931 . S
H305 C287 0.929 . S
H306 C288 0.930 . S
H307 C291 0.930 . S
H308 C292 0.931 . S
H309 C296 0.928 . S
H310 C295 0.929 . S
H311 C293 0.932 . S
Zn312 O318 1.969 1_545 S
Zn312 O319 1.965 1_545 S
Zn312 O323 2.024 . S
Zn312 O328 1.969 . S
Zn313 O320 1.969 . S
Zn313 O326 1.969 1_565 S
Zn313 O327 1.965 1_665 S
Zn313 O329 2.024 . S
C314 O315 1.229 . S
C314 O323 1.058 . S
O315 C314 1.229 . S
C316 O317 1.229 . S
C316 O329 1.058 . S
O317 C316 1.229 . S
O318 Zn312 1.969 1_565 S
O318 C321 1.267 . S
O319 Zn312 1.965 1_565 S
O319 C330 1.260 1_455 S
O320 Zn313 1.969 . S
O320 C330 1.258 . S
C321 O318 1.267 . S
C321 O322 1.228 . S
O322 C321 1.228 . S
O323 Zn312 2.024 . S
O323 C314 1.058 . S
C324 O325 1.228 . S
C324 O326 1.267 . S
O325 C324 1.228 . S
O326 Zn313 1.969 1_545 S
O326 C324 1.267 . S
O327 Zn313 1.965 1_445 S
O327 C331 1.260 . S
O328 Zn312 1.969 . S
O328 C331 1.258 . S
O329 Zn313 2.024 . S
O329 C316 1.058 . S
C330 O319 1.260 1_655 S
C330 O320 1.258 . S
C331 O327 1.260 . S
C331 O328 1.258 . S
Zn332 O338 1.969 . S
Zn332 O339 1.965 1_565 S
Zn332 O343 2.024 . S
Zn332 O348 1.969 1_556 S
Zn333 O340 1.969 . S
Zn333 O346 1.969 . S
Zn333 O347 1.965 1_545 S
Zn333 O349 2.024 . S
C334 O335 1.229 . S
C334 O343 1.058 . S
O335 C334 1.229 . S
C336 O337 1.229 . S
C336 O349 1.058 . S
O337 C336 1.229 . S
O338 Zn332 1.969 . S
O338 C341 1.267 . S
O339 Zn332 1.965 1_545 S
O339 C350 1.260 . S
O340 Zn333 1.969 . S
O340 C350 1.258 1_554 S
C341 O338 1.267 . S
C341 O342 1.228 . S
O342 C341 1.228 . S
O343 Zn332 2.024 . S
O343 C334 1.058 . S
C344 O345 1.228 . S
C344 O346 1.267 . S
O345 C344 1.228 . S
O346 Zn333 1.969 . S
O346 C344 1.267 . S
O347 Zn333 1.965 1_565 S
O347 C351 1.260 . S
O348 Zn332 1.969 1_554 S
O348 C351 1.258 . S
O349 Zn333 2.024 . S
O349 C336 1.058 . S
C350 O339 1.260 . S
C350 O340 1.258 1_556 S
C351 O347 1.260 . S
C351 O348 1.258 . S
Zn352 O358 1.969 . S
Zn352 O359 1.965 . S
Zn352 O363 2.024 . S
Zn352 O368 1.969 . S
Zn353 O360 1.969 . S
Zn353 O366 1.969 . S
Zn353 O367 1.965 . S
Zn353 O369 2.024 . S
C354 O355 1.229 . S
C354 O363 1.058 . S
O355 C354 1.229 . S
C356 O357 1.229 . S
C356 O369 1.058 . S
O357 C356 1.229 . S
O358 Zn352 1.969 . S
O358 C361 1.267 . S
O359 Zn352 1.965 . S
O359 C370 1.260 . S
O360 Zn353 1.969 . S
O360 C370 1.258 . S
C361 O358 1.267 . S
C361 O362 1.228 . S
O362 C361 1.228 . S
O363 Zn352 2.024 . S
O363 C354 1.058 . S
C364 O365 1.228 . S
C364 O366 1.267 . S
O365 C364 1.228 . S
O366 Zn353 1.969 . S
O366 C364 1.267 . S
O367 Zn353 1.965 . S
O367 C371 1.260 . S
O368 Zn352 1.969 . S
O368 C371 1.258 . S
O369 Zn353 2.024 . S
O369 C356 1.058 . S
C370 O359 1.260 . S
C370 O360 1.258 . S
C371 O367 1.260 . S
C371 O368 1.258 . S
Zn372 O378 1.969 . S
Zn372 O379 1.965 1_556 S
Zn372 O383 2.024 . S
Zn372 O388 1.969 1_655 S
Zn373 O380 1.969 . S
Zn373 O386 1.969 . S
Zn373 O387 1.965 1_554 S
Zn373 O389 2.024 . S
C374 O375 1.229 . S
C374 O383 1.058 . S
O375 C374 1.229 . S
C376 O377 1.229 . S
C376 O389 1.058 . S
O377 C376 1.229 . S
O378 Zn372 1.969 . S
O378 C381 1.267 . S
O379 Zn372 1.965 1_554 S
O379 C390 1.260 . S
O380 Zn373 1.969 . S
O380 C390 1.258 1_455 S
C381 O378 1.267 . S
C381 O382 1.228 . S
O382 C381 1.228 . S
O383 Zn372 2.024 . S
O383 C374 1.058 . S
C384 O385 1.228 . S
C384 O386 1.267 . S
O385 C384 1.228 . S
O386 Zn373 1.969 . S
O386 C384 1.267 . S
O387 Zn373 1.965 1_556 S
O387 C391 1.260 . S
O388 Zn372 1.969 1_455 S
O388 C391 1.258 . S
O389 Zn373 2.024 . S
O389 C376 1.058 . S
C390 O379 1.260 . S
C390 O380 1.258 1_655 S
C391 O387 1.260 . S
C391 O388 1.258 . S
C392 C393 1.363 . S
C392 C398 1.379 . S
C392 N400 1.356 . S
C393 C392 1.363 . S
C393 C399 1.363 . S
C394 C395 1.363 . S
C394 C399 1.379 . S
C394 N401 1.356 . S
C395 C394 1.363 . S
C395 C398 1.363 . S
N396 C398 1.356 . S
N396 H408 0.984 1_545 S
N396 H409 0.985 1_545 S
N397 C399 1.356 . S
N397 H402 0.984 . S
N397 H403 0.985 . S
C398 C392 1.379 . S
C398 C395 1.363 . S
C398 N396 1.356 . S
C399 C393 1.363 . S
C399 C394 1.379 . S
C399 N397 1.356 . S
N400 C392 1.356 . S
N400 H406 0.984 . S
N400 H407 0.984 . S
N401 C394 1.356 . S
N401 H404 0.984 . S
N401 H405 0.985 . S
H402 N397 0.984 . S
H403 N397 0.985 . S
H404 N401 0.984 . S
H405 N401 0.985 . S
H406 N400 0.984 . S
H407 N400 0.984 . S
H408 N396 0.984 1_565 S
H409 N396 0.985 1_565 S
C410 C411 1.363 . S
C410 C416 1.379 . S
C410 N418 1.356 . S
C411 C410 1.363 . S
C411 C417 1.363 . S
C412 C413 1.363 . S
C412 C417 1.379 . S
C412 N419 1.356 . S
C413 C412 1.363 . S
C413 C416 1.363 . S
N414 C416 1.356 . S
N414 H426 0.984 . S
N414 H427 0.985 . S
N415 C417 1.356 . S
N415 H420 0.984 . S
N415 H421 0.985 . S
C416 C410 1.379 . S
C416 C413 1.363 . S
C416 N414 1.356 . S
C417 C411 1.363 . S
C417 C412 1.379 . S
C417 N415 1.356 . S
N418 C410 1.356 . S
N418 H424 0.984 . S
N418 H425 0.984 . S
N419 C412 1.356 . S
N419 H422 0.984 . S
N419 H423 0.985 . S
H420 N415 0.984 . S
H421 N415 0.985 . S
H422 N419 0.984 . S
H423 N419 0.985 . S
H424 N418 0.984 . S
H425 N418 0.984 . S
H426 N414 0.984 . S
H427 N414 0.985 . S
C428 C429 1.363 . S
C428 C434 1.379 . S
C428 N436 1.356 . S
C429 C428 1.363 . S
C429 C435 1.363 . S
C430 C431 1.363 . S
C430 C435 1.379 . S
C430 N437 1.356 . S
C431 C430 1.363 . S
C431 C434 1.363 . S
N432 C434 1.356 . S
N432 H444 0.984 . S
N432 H445 0.985 . S
N433 C435 1.356 . S
N433 H438 0.984 . S
N433 H439 0.985 . S
C434 C428 1.379 . S
C434 C431 1.363 . S
C434 N432 1.356 . S
C435 C429 1.363 . S
C435 C430 1.379 . S
C435 N433 1.356 . S
N436 C428 1.356 . S
N436 H442 0.984 . S
N436 H443 0.984 . S
N437 C430 1.356 . S
N437 H440 0.984 . S
N437 H441 0.985 . S
H438 N433 0.984 . S
H439 N433 0.985 . S
H440 N437 0.984 . S
H441 N437 0.985 . S
H442 N436 0.984 . S
H443 N436 0.984 . S
H444 N432 0.984 . S
H445 N432 0.985 . S
C446 C447 1.363 . S
C446 C452 1.379 . S
C446 N454 1.356 . S
C447 C446 1.363 . S
C447 C453 1.363 . S
C448 C449 1.363 . S
C448 C453 1.379 . S
C448 N455 1.356 . S
C449 C448 1.363 . S
C449 C452 1.363 . S
N450 C452 1.358 1_455 S
N450 H462 0.983 . S
N450 H463 0.984 . S
N451 C453 1.356 . S
N451 H456 0.984 . S
N451 H457 0.985 . S
C452 C446 1.379 . S
C452 C449 1.363 . S
C452 N450 1.358 1_655 S
C453 C447 1.363 . S
C453 C448 1.379 . S
C453 N451 1.356 . S
N454 C446 1.356 . S
N454 H460 0.984 . S
N454 H461 0.984 . S
N455 C448 1.356 . S
N455 H458 0.984 . S
N455 H459 0.985 . S
H456 N451 0.984 . S
H457 N451 0.985 . S
H458 N455 0.984 . S
H459 N455 0.985 . S
H460 N454 0.984 . S
H461 N454 0.984 . S
H462 N450 0.983 . S
H463 N450 0.984 . S
C464 C465 1.363 . S
C464 C470 1.379 . S
C464 N472 1.356 . S
C465 C464 1.363 . S
C465 C471 1.363 . S
C466 C467 1.363 . S
C466 C471 1.379 . S
C466 N473 1.356 . S
C467 C466 1.363 . S
C467 C470 1.363 . S
N468 C470 1.356 . S
N468 H480 0.984 . S
N468 H481 0.985 . S
N469 C471 1.356 . S
N469 H474 0.984 . S
N469 H475 0.985 . S
C470 C464 1.379 . S
C470 C467 1.363 . S
C470 N468 1.356 . S
C471 C465 1.363 . S
C471 C466 1.379 . S
C471 N469 1.356 . S
N472 C464 1.356 . S
N472 H478 0.984 . S
N472 H479 0.984 . S
N473 C466 1.356 . S
N473 H476 0.984 . S
N473 H477 0.985 . S
H474 N469 0.984 . S
H475 N469 0.985 . S
H476 N473 0.984 . S
H477 N473 0.985 . S
H478 N472 0.984 . S
H479 N472 0.984 . S
H480 N468 0.984 . S
H481 N468 0.985 . S
C482 C483 1.363 . S
C482 C488 1.379 . S
C482 N490 1.356 . S
C483 C482 1.363 . S
C483 C489 1.363 . S
C484 C485 1.363 . S
C484 C489 1.379 . S
C484 N491 1.356 . S
C485 C484 1.363 . S
C485 C488 1.363 . S
N486 C488 1.356 . S
N486 H498 0.984 . S
N486 H499 0.985 . S
N487 C489 1.356 . S
N487 H492 0.984 . S
N487 H493 0.985 . S
C488 C482 1.379 . S
C488 C485 1.363 . S
C488 N486 1.356 . S
C489 C483 1.363 . S
C489 C484 1.379 . S
C489 N487 1.356 . S
N490 C482 1.356 . S
N490 H496 0.984 . S
N490 H497 0.984 . S
N491 C484 1.356 . S
N491 H494 0.984 . S
N491 H495 0.985 . S
H492 N487 0.984 . S
H493 N487 0.985 . S
H494 N491 0.984 . S
H495 N491 0.985 . S
H496 N490 0.984 . S
H497 N490 0.984 . S
H498 N486 0.984 . S
H499 N486 0.985 . S
C500 C501 1.363 . S
C500 C506 1.379 . S
C500 N508 1.356 . S
C501 C500 1.363 . S
C501 C507 1.363 . S
C502 C503 1.363 . S
C502 C507 1.379 . S
C502 N509 1.356 . S
C503 C502 1.363 . S
C503 C506 1.363 . S
N504 C506 1.356 . S
N504 H516 0.984 . S
N504 H517 0.985 . S
N505 C507 1.356 . S
N505 H510 0.984 . S
N505 H511 0.985 . S
C506 C500 1.379 . S
C506 C503 1.363 . S
C506 N504 1.356 . S
C507 C501 1.363 . S
C507 C502 1.379 . S
C507 N505 1.356 . S
N508 C500 1.356 . S
N508 H514 0.984 . S
N508 H515 0.984 . S
N509 C502 1.356 . S
N509 H512 0.984 . S
N509 H513 0.985 . S
H510 N505 0.984 . S
H511 N505 0.985 . S
H512 N509 0.984 . S
H513 N509 0.985 . S
H514 N508 0.984 . S
H515 N508 0.984 . S
H516 N504 0.984 . S
H517 N504 0.985 . S
C518 C519 1.363 . S
C518 C524 1.379 . S
C518 N526 1.356 . S
C519 C518 1.363 . S
C519 C525 1.363 . S
C520 C521 1.363 . S
C520 C525 1.379 . S
C520 N527 1.356 . S
C521 C520 1.363 . S
C521 C524 1.363 . S
N522 C524 1.356 . S
N522 H534 0.984 . S
N522 H535 0.985 . S
N523 C525 1.356 . S
N523 H528 0.984 . S
N523 H529 0.985 . S
C524 C518 1.379 . S
C524 C521 1.363 . S
C524 N522 1.356 . S
C525 C519 1.363 . S
C525 C520 1.379 . S
C525 N523 1.356 . S
N526 C518 1.356 . S
N526 H532 0.984 . S
N526 H533 0.984 . S
N527 C520 1.356 . S
N527 H530 0.984 . S
N527 H531 0.985 . S
H528 N523 0.984 . S
H529 N523 0.985 . S
H530 N527 0.984 . S
H531 N527 0.985 . S
H532 N526 0.984 . S
H533 N526 0.984 . S
H534 N522 0.984 . S
H535 N522 0.985 . S
C536 C537 1.363 . S
C536 C542 1.379 . S
C536 N544 1.356 . S
C537 C536 1.363 . S
C537 C543 1.363 . S
C538 C539 1.363 . S
C538 C543 1.379 . S
C538 N545 1.356 . S
C539 C538 1.363 . S
C539 C542 1.363 . S
N540 C542 1.356 . S
N540 H552 0.984 . S
N540 H553 0.985 . S
N541 C543 1.356 . S
N541 H546 0.984 . S
N541 H547 0.985 . S
C542 C536 1.379 . S
C542 C539 1.363 . S
C542 N540 1.356 . S
C543 C537 1.363 . S
C543 C538 1.379 . S
C543 N541 1.356 . S
N544 C536 1.356 . S
N544 H550 0.984 . S
N544 H551 0.984 . S
N545 C538 1.356 . S
N545 H548 0.984 . S
N545 H549 0.985 . S
H546 N541 0.984 . S
H547 N541 0.985 . S
H548 N545 0.984 . S
H549 N545 0.985 . S
H550 N544 0.984 . S
H551 N544 0.984 . S
H552 N540 0.984 . S
H553 N540 0.985 . S
C554 C555 1.363 . S
C554 C560 1.379 . S
C554 N562 1.356 . S
C555 C554 1.363 . S
C555 C561 1.363 . S
C556 C557 1.363 . S
C556 C561 1.379 . S
C556 N563 1.356 . S
C557 C556 1.363 . S
C557 C560 1.363 . S
N558 C560 1.356 . S
N558 H570 0.984 . S
N558 H571 0.985 . S
N559 C561 1.356 . S
N559 H564 0.984 . S
N559 H565 0.985 . S
C560 C554 1.379 . S
C560 C557 1.363 . S
C560 N558 1.356 . S
C561 C555 1.363 . S
C561 C556 1.379 . S
C561 N559 1.356 . S
N562 C554 1.356 . S
N562 H568 0.984 . S
N562 H569 0.984 . S
N563 C556 1.356 . S
N563 H566 0.984 1_556 S
N563 H567 0.985 1_556 S
H564 N559 0.984 . S
H565 N559 0.985 . S
H566 N563 0.984 1_554 S
H567 N563 0.985 1_554 S
H568 N562 0.984 . S
H569 N562 0.984 . S
H570 N558 0.984 . S
H571 N558 0.985 . S
C572 C573 1.363 . S
C572 C578 1.379 . S
C572 N580 1.356 . S
C573 C572 1.363 . S
C573 C579 1.363 . S
C574 C575 1.363 . S
C574 C579 1.379 . S
C574 N581 1.356 . S
C575 C574 1.363 . S
C575 C578 1.363 . S
N576 C578 1.356 . S
N576 H588 0.984 . S
N576 H589 0.985 . S
N577 C579 1.356 . S
N577 H582 0.984 . S
N577 H583 0.985 . S
C578 C572 1.379 . S
C578 C575 1.363 . S
C578 N576 1.356 . S
C579 C573 1.363 . S
C579 C574 1.379 . S
C579 N577 1.356 . S
N580 C572 1.356 . S
N580 H586 0.984 . S
N580 H587 0.984 . S
N581 C574 1.356 . S
N581 H584 0.984 . S
N581 H585 0.985 . S
H582 N577 0.984 . S
H583 N577 0.985 . S
H584 N581 0.984 . S
H585 N581 0.985 . S
H586 N580 0.984 . S
H587 N580 0.984 . S
H588 N576 0.984 . S
H589 N576 0.985 . S
C590 C591 1.363 . S
C590 C596 1.379 . S
C590 N598 1.356 . S
C591 C590 1.363 . S
C591 C597 1.363 . S
C592 C593 1.363 . S
C592 C597 1.379 . S
C592 N599 1.356 . S
C593 C592 1.363 . S
C593 C596 1.363 . S
N594 C596 1.356 . S
N594 H606 0.984 . S
N594 H607 0.985 . S
N595 C597 1.356 . S
N595 H600 0.984 . S
N595 H601 0.985 . S
C596 C590 1.379 . S
C596 C593 1.363 . S
C596 N594 1.356 . S
C597 C591 1.363 . S
C597 C592 1.379 . S
C597 N595 1.356 . S
N598 C590 1.356 . S
N598 H604 0.984 . S
N598 H605 0.984 . S
N599 C592 1.356 . S
N599 H602 0.984 . S
N599 H603 0.985 . S
H600 N595 0.984 . S
H601 N595 0.985 . S
H602 N599 0.984 . S
H603 N599 0.985 . S
H604 N598 0.984 . S
H605 N598 0.984 . S
H606 N594 0.984 . S
H607 N594 0.985 . S
C608 C609 1.363 . S
C608 C614 1.379 . S
C608 N616 1.356 . S
C609 C608 1.363 . S
C609 C615 1.363 . S
C610 C611 1.363 . S
C610 C615 1.379 . S
C610 N617 1.356 . S
C611 C610 1.363 . S
C611 C614 1.363 . S
N612 C614 1.356 . S
N612 H624 0.984 . S
N612 H625 0.985 . S
N613 C615 1.356 . S
N613 H618 0.984 . S
N613 H619 0.985 . S
C614 C608 1.379 . S
C614 C611 1.363 . S
C614 N612 1.356 . S
C615 C609 1.363 . S
C615 C610 1.379 . S
C615 N613 1.356 . S
N616 C608 1.356 . S
N616 H622 0.984 . S
N616 H623 0.984 . S
N617 C610 1.356 . S
N617 H620 0.986 . S
N617 H621 0.985 . S
H618 N613 0.984 . S
H619 N613 0.985 . S
H620 N617 0.986 . S
H621 N617 0.985 . S
H622 N616 0.984 . S
H623 N616 0.984 . S
H624 N612 0.984 . S
H625 N612 0.985 . S
C626 C627 1.363 . S
C626 C632 1.379 . S
C626 N634 1.356 . S
C627 C626 1.363 . S
C627 C633 1.363 . S
C628 C629 1.363 . S
C628 C633 1.379 . S
C628 N635 1.356 . S
C629 C628 1.363 . S
C629 C632 1.363 . S
N630 C632 1.356 . S
N630 H642 0.984 . S
N630 H643 0.985 . S
N631 C633 1.356 . S
N631 H636 0.984 . S
N631 H637 0.985 . S
C632 C626 1.379 . S
C632 C629 1.363 . S
C632 N630 1.356 . S
C633 C627 1.363 . S
C633 C628 1.379 . S
C633 N631 1.356 . S
N634 C626 1.356 . S
N634 H640 0.984 . S
N634 H641 0.984 . S
N635 C628 1.356 . S
N635 H638 0.983 1_545 S
N635 H639 0.985 1_545 S
H636 N631 0.984 . S
H637 N631 0.985 . S
H638 N635 0.983 1_565 S
H639 N635 0.985 1_565 S
H640 N634 0.984 . S
H641 N634 0.984 . S
H642 N630 0.984 . S
H643 N630 0.985 . S
C644 C645 1.363 . S
C644 C650 1.379 . S
C644 N652 1.356 . S
C645 C644 1.363 . S
C645 C651 1.363 . S
C646 C647 1.363 . S
C646 C651 1.379 . S
C646 N653 1.356 . S
C647 C646 1.363 . S
C647 C650 1.363 . S
N648 C650 1.356 . S
N648 H660 0.984 . S
N648 H661 0.985 . S
N649 C651 1.356 . S
N649 H654 0.984 . S
N649 H655 0.985 . S
C650 C644 1.379 . S
C650 C647 1.363 . S
C650 N648 1.356 . S
C651 C645 1.363 . S
C651 C646 1.379 . S
C651 N649 1.356 . S
N652 C644 1.356 . S
N652 H658 0.984 . S
N652 H659 0.984 . S
N653 C646 1.356 . S
N653 H656 0.984 . S
N653 H657 0.985 . S
H654 N649 0.984 . S
H655 N649 0.985 . S
H656 N653 0.984 . S
H657 N653 0.985 . S
H658 N652 0.984 . S
H659 N652 0.984 . S
H660 N648 0.984 . S
H661 N648 0.985 . S
C662 C663 1.363 . S
C662 C668 1.379 . S
C662 N670 1.356 . S
C663 C662 1.363 . S
C663 C669 1.363 . S
C664 C665 1.363 . S
C664 C669 1.379 . S
C664 N671 1.356 . S
C665 C664 1.363 . S
C665 C668 1.363 . S
N666 C668 1.356 . S
N666 H678 0.984 . S
N666 H679 0.985 . S
N667 C669 1.356 . S
N667 H672 0.984 . S
N667 H673 0.985 . S
C668 C662 1.379 . S
C668 C665 1.363 . S
C668 N666 1.356 . S
C669 C663 1.363 . S
C669 C664 1.379 . S
C669 N667 1.356 . S
N670 C662 1.356 . S
N670 H676 0.984 . S
N670 H677 0.984 . S
N671 C664 1.356 . S
N671 H674 0.984 . S
N671 H675 0.985 . S
H672 N667 0.984 . S
H673 N667 0.985 . S
H674 N671 0.984 . S
H675 N671 0.985 . S
H676 N670 0.984 . S
H677 N670 0.984 . S
H678 N666 0.984 . S
H679 N666 0.985 . S
C680 C681 1.363 . S
C680 C686 1.379 . S
C680 N688 1.356 . S
C681 C680 1.363 . S
C681 C687 1.363 . S
C682 C683 1.363 . S
C682 C687 1.379 . S
C682 N689 1.356 . S
C683 C682 1.363 . S
C683 C686 1.363 . S
N684 C686 1.356 . S
N684 H696 0.984 . S
N684 H697 0.985 . S
N685 C687 1.356 . S
N685 H690 0.984 . S
N685 H691 0.985 . S
C686 C680 1.379 . S
C686 C683 1.363 . S
C686 N684 1.356 . S
C687 C681 1.363 . S
C687 C682 1.379 . S
C687 N685 1.356 . S
N688 C680 1.356 . S
N688 H694 0.984 . S
N688 H695 0.984 . S
N689 C682 1.356 . S
N689 H692 0.984 . S
N689 H693 0.985 1_565 S
H690 N685 0.984 . S
H691 N685 0.985 . S
H692 N689 0.984 . S
H693 N689 0.985 1_545 S
H694 N688 0.984 . S
H695 N688 0.984 . S
H696 N684 0.984 . S
H697 N684 0.985 . S
C698 C699 1.363 . S
C698 C704 1.379 . S
C698 N706 1.356 . S
C699 C698 1.363 . S
C699 C705 1.363 . S
C700 C701 1.363 . S
C700 C705 1.379 . S
C700 N707 1.356 . S
C701 C700 1.363 . S
C701 C704 1.363 . S
N702 C704 1.356 . S
N702 H714 0.984 1_545 S
N702 H715 0.990 . S
N703 C705 1.356 . S
N703 H708 0.984 . S
N703 H709 0.985 . S
C704 C698 1.379 . S
C704 C701 1.363 . S
C704 N702 1.356 . S
C705 C699 1.363 . S
C705 C700 1.379 . S
C705 N703 1.356 . S
N706 C698 1.356 . S
N706 H712 0.984 . S
N706 H713 0.984 . S
N707 C700 1.356 . S
N707 H710 0.984 . S
N707 H711 0.985 . S
H708 N703 0.984 . S
H709 N703 0.985 . S
H710 N707 0.984 . S
H711 N707 0.985 . S
H712 N706 0.984 . S
H713 N706 0.984 . S
H714 N702 0.984 1_565 S
H715 N702 0.990 . S
C716 C717 1.363 . S
C716 C722 1.379 . S
C716 N724 1.356 . S
C717 C716 1.363 . S
C717 C723 1.363 . S
C718 C719 1.363 . S
C718 C723 1.379 . S
C718 N725 1.356 . S
C719 C718 1.363 . S
C719 C722 1.363 . S
N720 C722 1.356 . S
N720 H732 0.984 . S
N720 H733 0.985 . S
N721 C723 1.356 . S
N721 H726 0.984 . S
N721 H727 0.985 . S
C722 C716 1.379 . S
C722 C719 1.363 . S
C722 N720 1.356 . S
C723 C717 1.363 . S
C723 C718 1.379 . S
C723 N721 1.356 . S
N724 C716 1.356 . S
N724 H730 0.984 . S
N724 H731 0.984 . S
N725 C718 1.356 . S
N725 H728 0.984 . S
N725 H729 0.985 . S
H726 N721 0.984 . S
H727 N721 0.985 . S
H728 N725 0.984 . S
H729 N725 0.985 . S
H730 N724 0.984 . S
H731 N724 0.984 . S
H732 N720 0.984 . S
H733 N720 0.985 . S
C734 C735 1.363 . S
C734 C740 1.379 . S
C734 N742 1.356 . S
C735 C734 1.363 . S
C735 C741 1.363 . S
C736 C737 1.363 . S
C736 C741 1.379 . S
C736 N743 1.356 . S
C737 C736 1.363 . S
C737 C740 1.363 . S
N738 C740 1.356 . S
N738 H750 0.984 . S
N738 H751 0.985 . S
N739 C741 1.356 . S
N739 H744 0.984 . S
N739 H745 0.985 . S
C740 C734 1.379 . S
C740 C737 1.363 . S
C740 N738 1.356 . S
C741 C735 1.363 . S
C741 C736 1.379 . S
C741 N739 1.356 . S
N742 C734 1.356 . S
N742 H748 0.984 . S
N742 H749 0.984 . S
N743 C736 1.356 . S
N743 H746 0.984 . S
N743 H747 0.985 . S
H744 N739 0.984 . S
H745 N739 0.985 . S
H746 N743 0.984 . S
H747 N743 0.985 . S
H748 N742 0.984 . S
H749 N742 0.984 . S
H750 N738 0.984 . S
H751 N738 0.985 . S
C752 C753 1.363 . S
C752 C758 1.379 . S
C752 N760 1.356 . S
C753 C752 1.363 . S
C753 C759 1.363 . S
C754 C755 1.363 . S
C754 C759 1.379 . S
C754 N761 1.356 . S
C755 C754 1.363 . S
C755 C758 1.363 . S
N756 C758 1.356 . S
N756 H768 0.984 . S
N756 H769 0.985 . S
N757 C759 1.356 . S
N757 H762 0.984 . S
N757 H763 0.985 . S
C758 C752 1.379 . S
C758 C755 1.363 . S
C758 N756 1.356 . S
C759 C753 1.363 . S
C759 C754 1.379 . S
C759 N757 1.356 . S
N760 C752 1.356 . S
N760 H766 0.984 . S
N760 H767 0.984 . S
N761 C754 1.356 . S
N761 H764 0.984 . S
N761 H765 0.985 . S
H762 N757 0.984 . S
H763 N757 0.985 . S
H764 N761 0.984 . S
H765 N761 0.985 . S
H766 N760 0.984 . S
H767 N760 0.984 . S
H768 N756 0.984 . S
H769 N756 0.985 . S
C770 C771 1.363 . S
C770 C776 1.379 . S
C770 N778 1.356 . S
C771 C770 1.363 . S
C771 C777 1.363 . S
C772 C773 1.363 . S
C772 C777 1.379 . S
C772 N779 1.356 . S
C773 C772 1.363 . S
C773 C776 1.363 . S
N774 C776 1.356 . S
N774 H786 0.984 . S
N774 H787 0.985 . S
N775 C777 1.356 . S
N775 H780 0.984 . S
N775 H781 0.985 . S
C776 C770 1.379 . S
C776 C773 1.363 . S
C776 N774 1.356 . S
C777 C771 1.363 . S
C777 C772 1.379 . S
C777 N775 1.356 . S
N778 C770 1.356 . S
N778 H784 0.984 . S
N778 H785 0.984 . S
N779 C772 1.356 . S
N779 H782 0.984 . S
N779 H783 0.985 . S
H780 N775 0.984 . S
H781 N775 0.985 . S
H782 N779 0.984 . S
H783 N779 0.985 . S
H784 N778 0.984 . S
H785 N778 0.984 . S
H786 N774 0.984 . S
H787 N774 0.985 . S
C788 C789 1.363 . S
C788 C794 1.379 . S
C788 N796 1.356 . S
C789 C788 1.363 . S
C789 C795 1.363 . S
C790 C791 1.363 . S
C790 C795 1.379 . S
C790 N797 1.356 . S
C791 C790 1.363 . S
C791 C794 1.363 . S
N792 C794 1.356 . S
N792 H804 0.984 . S
N792 H805 0.985 . S
N793 C795 1.356 . S
N793 H798 0.984 . S
N793 H799 0.985 . S
C794 C788 1.379 . S
C794 C791 1.363 . S
C794 N792 1.356 . S
C795 C789 1.363 . S
C795 C790 1.379 . S
C795 N793 1.356 . S
N796 C788 1.356 . S
N796 H802 0.984 . S
N796 H803 0.984 . S
N797 C790 1.356 . S
N797 H800 0.984 . S
N797 H801 0.985 . S
H798 N793 0.984 . S
H799 N793 0.985 . S
H800 N797 0.984 . S
H801 N797 0.985 . S
H802 N796 0.984 . S
H803 N796 0.984 . S
H804 N792 0.984 . S
H805 N792 0.985 . S
C806 C807 1.363 . S
C806 C812 1.379 . S
C806 N814 1.356 . S
C807 C806 1.363 . S
C807 C813 1.363 . S
C808 C809 1.363 . S
C808 C813 1.379 . S
C808 N815 1.356 . S
C809 C808 1.363 . S
C809 C812 1.363 . S
N810 C812 1.356 . S
N810 H822 0.984 . S
N810 H823 0.985 . S
N811 C813 1.356 . S
N811 H816 0.984 . S
N811 H817 0.985 . S
C812 C806 1.379 . S
C812 C809 1.363 . S
C812 N810 1.356 . S
C813 C807 1.363 . S
C813 C808 1.379 . S
C813 N811 1.356 . S
N814 C806 1.356 . S
N814 H820 0.984 . S
N814 H821 0.984 . S
N815 C808 1.356 . S
N815 H818 0.984 . S
N815 H819 0.985 . S
H816 N811 0.984 . S
H817 N811 0.985 . S
H818 N815 0.984 . S
H819 N815 0.985 . S
H820 N814 0.984 . S
H821 N814 0.984 . S
H822 N810 0.984 . S
H823 N810 0.985 . S
C393 C1 1.546 . S
C395 C331 1.511 . S
C411 C40 1.296 . S
C413 C334 1.261 . S
C431 C370 1.793 . S
C429 C99 1.807 . S
C447 C118 1.700 . S
C449 C390 1.683 . S
C467 C344 1.654 . S
C465 C16 1.693 . S
C485 C321 1.474 . S
C483 C60 1.495 . S
C503 C374 1.574 . S
C501 C79 1.721 . S
C521 C354 1.409 . S
C519 C138 1.508 . S
C537 C21 1.397 . S
C539 C384 1.331 . S
C557 C350 1.663 . S
C555 C94 1.680 . S
C573 C133 1.656 . S
C575 C316 1.617 . S
C591 C55 1.334 . S
C593 C364 1.302 . S
C611 C330 1.514 . S
C609 C157 1.556 . S
C627 C196 1.295 . S
C629 C336 1.262 . S
C645 C255 1.809 . S
C647 C371 1.792 . S
C663 C289 1.693 . S
C665 C391 1.679 . S
C681 C172 1.689 . S
C683 C341 1.652 . S
C701 C324 1.475 . S
C699 C216 1.494 . S
C719 C376 1.574 . S
C717 C235 1.723 . S
C737 C356 1.406 . S
C735 C294 1.512 . S
C753 C177 1.407 . S
C755 C381 1.331 . S
C773 C351 1.664 . S
C771 C250 1.680 . S
C791 C314 1.619 . S
C789 C274 1.659 . S
C807 C211 1.331 . S
C809 C361 1.298 . S
