# Generated by pormake.
# Topology zzz, (3,6)-cn, num edge types: 1
# Building blocks:
#     Node 0, Type 0, BuildingBlock: BETDAH_clean_linker_0, # of connection points: 3
#     Node 1, Type 0, BuildingBlock: BETDAH_clean_linker_0, # of connection points: 3
#     Node 2, Type 0, BuildingBlock: BETDAH_clean_linker_0, # of connection points: 3
#     Node 3, Type 0, BuildingBlock: BETDAH_clean_linker_0, # of connection points: 3
#     Node 4, Type 0, BuildingBlock: BETDAH_clean_linker_0, # of connection points: 3
#     Node 5, Type 0, BuildingBlock: BETDAH_clean_linker_0, # of connection points: 3
#     Node 6, Type 0, BuildingBlock: BETDAH_clean_linker_0, # of connection points: 3
#     Node 7, Type 0, BuildingBlock: BETDAH_clean_linker_0, # of connection points: 3
#     Node 8, Type 1, BuildingBlock: BETFEN_clean_sbu_0, # of connection points: 6
#     Node 9, Type 1, BuildingBlock: BETFEN_clean_sbu_0, # of connection points: 6
#     Node 10, Type 1, BuildingBlock: BETFEN_clean_sbu_0, # of connection points: 6
#     Node 11, Type 1, BuildingBlock: BETFEN_clean_sbu_0, # of connection points: 6
#     Edge 12, Type (0, 1), BuildingBlock: KIFKEQ_clean_linker_1, # of connection points: 2
#     Edge 13, Type (0, 1), BuildingBlock: KIFKEQ_clean_linker_1, # of connection points: 2
#     Edge 14, Type (0, 1), BuildingBlock: KIFKEQ_clean_linker_1, # of connection points: 2
#     Edge 15, Type (0, 1), BuildingBlock: KIFKEQ_clean_linker_1, # of connection points: 2
#     Edge 16, Type (0, 1), BuildingBlock: KIFKEQ_clean_linker_1, # of connection points: 2
#     Edge 17, Type (0, 1), BuildingBlock: KIFKEQ_clean_linker_1, # of connection points: 2
#     Edge 18, Type (0, 1), BuildingBlock: KIFKEQ_clean_linker_1, # of connection points: 2
#     Edge 19, Type (0, 1), BuildingBlock: KIFKEQ_clean_linker_1, # of connection points: 2
#     Edge 20, Type (0, 1), BuildingBlock: KIFKEQ_clean_linker_1, # of connection points: 2
#     Edge 21, Type (0, 1), BuildingBlock: KIFKEQ_clean_linker_1, # of connection points: 2
#     Edge 22, Type (0, 1), BuildingBlock: KIFKEQ_clean_linker_1, # of connection points: 2
#     Edge 23, Type (0, 1), BuildingBlock: KIFKEQ_clean_linker_1, # of connection points: 2
#     Edge 24, Type (0, 1), BuildingBlock: KIFKEQ_clean_linker_1, # of connection points: 2
#     Edge 25, Type (0, 1), BuildingBlock: KIFKEQ_clean_linker_1, # of connection points: 2
#     Edge 26, Type (0, 1), BuildingBlock: KIFKEQ_clean_linker_1, # of connection points: 2
#     Edge 27, Type (0, 1), BuildingBlock: KIFKEQ_clean_linker_1, # of connection points: 2
#     Edge 28, Type (0, 1), BuildingBlock: KIFKEQ_clean_linker_1, # of connection points: 2
#     Edge 29, Type (0, 1), BuildingBlock: KIFKEQ_clean_linker_1, # of connection points: 2
#     Edge 30, Type (0, 1), BuildingBlock: KIFKEQ_clean_linker_1, # of connection points: 2
#     Edge 31, Type (0, 1), BuildingBlock: KIFKEQ_clean_linker_1, # of connection points: 2
#     Edge 32, Type (0, 1), BuildingBlock: KIFKEQ_clean_linker_1, # of connection points: 2
#     Edge 33, Type (0, 1), BuildingBlock: KIFKEQ_clean_linker_1, # of connection points: 2
#     Edge 34, Type (0, 1), BuildingBlock: KIFKEQ_clean_linker_1, # of connection points: 2
#     Edge 35, Type (0, 1), BuildingBlock: KIFKEQ_clean_linker_1, # of connection points: 2
# Relax obj value: 0.276
# Max RMSD: 0.191
# Mean RMSD: 0.162
data_MOF--net-zzz--node1-BETFEN_clean_sbu_0--node2-BETDAH_clean_linker_0--edge1-KIFKEQ_clean_linker_1
_symmetry_space_group_name_H-M    P1
_symmetry_Int_Tables_number       1
_symmetry_cell_setting            triclinic
loop_
_symmetry_equiv_pos_as_xyz
'x, y, z'
_cell_length_a     52.583742
_cell_length_b     52.395941
_cell_length_c     13.680637
_cell_angle_alpha  89.898448
_cell_angle_beta   89.957971
_cell_angle_gamma 89.943433
loop_
_atom_site_label
_atom_site_type_symbol
_atom_site_fract_x
_atom_site_fract_y
_atom_site_fract_z
_atom_type_partial_charge
H0 H 0.80513 0.48178 0.39357 0.0
H1 H 0.73022 0.49428 0.2796 0.0
H2 H 0.75956 0.54268 0.50865 0.0
C3 C 0.78698 0.49161 0.39734 0.0
C4 C 0.78455 0.51234 0.46091 0.0
C5 C 0.76765 0.48516 0.33122 0.0
C6 C 0.74485 0.49903 0.3321 0.0
C7 C 0.74149 0.51956 0.39734 0.0
C8 C 0.76165 0.52639 0.46064 0.0
N9 N 0.71855 0.53414 0.39807 0.0
C10 C 0.69817 0.53008 0.33425 0.0
H11 H 0.05841 0.80989 0.41798 0.0
H12 H 0.04621 0.73811 0.27628 0.0
H13 H 0.996 0.76259 0.50801 0.0
C14 C 0.04828 0.79187 0.41415 0.0
C15 C 0.02685 0.78828 0.47302 0.0
C16 C 0.05516 0.77405 0.34271 0.0
C17 C 0.04112 0.75147 0.3332 0.0
C18 C 1.02013 0.74675 0.39489 0.0
C19 C 1.01276 0.76556 0.46333 0.0
N20 N 1.0056 0.72386 0.38757 0.0
C21 C 1.01032 0.7043 0.32056 0.0
H22 H 0.73037 0.06202 0.46411 0.0
H23 H 0.79794 0.04922 0.29495 0.0
H24 H 0.77493 0.99474 0.51505 0.0
C25 C 0.74753 0.05105 0.45062 0.0
C26 C 0.75093 0.02794 0.50008 0.0
C27 C 0.76417 0.05875 0.37615 0.0
C28 C 0.7854 0.04353 0.3539 0.0
C29 C 0.78978 1.02068 0.40615 0.0
C30 C 0.77221 1.01282 0.47789 0.0
N31 N 0.811 1.00465 0.38623 0.0
C32 C 0.8289 1.00905 0.31302 0.0
H33 H 0.48133 0.73302 0.43905 0.0
H34 H 0.49517 0.80723 0.31855 0.0
H35 H 0.54342 0.77768 0.54751 0.0
C36 C 0.49144 0.75106 0.44094 0.0
C37 C 0.51237 0.75332 0.50319 0.0
C38 C 0.48531 0.77022 0.37322 0.0
C39 C 0.49968 0.79274 0.37198 0.0
C40 C 0.52043 0.79588 0.43611 0.0
C41 C 0.5269 0.77586 0.50072 0.0
N42 N 0.5357 0.81834 0.43411 0.0
C43 C 0.5328 0.83807 0.36619 0.0
H44 H 0.23794 0.56816 0.05878 0.0
H45 H 0.31223 0.55329 0.1757 0.0
H46 H 0.28165 0.5056 0.94693 0.0
C47 C 0.25578 0.55778 0.05594 0.0
C48 C 0.25763 0.53687 0.99301 0.0
C49 C 0.27516 0.5637 0.12271 0.0
C50 C 0.29747 0.54897 0.12309 0.0
C51 C 0.30021 0.5282 0.05851 0.0
C52 C 0.28003 0.52205 0.99438 0.0
N53 N 0.32253 0.51269 0.05905 0.0
C54 C 0.34181 0.51433 0.12914 0.0
H55 H 0.06238 0.23657 0.08782 0.0
H56 H 0.04779 0.31237 0.19048 0.0
H57 H 1.01836 0.28794 0.91115 0.0
C58 C 0.05519 0.25568 0.07416 0.0
C59 C 0.04088 0.26011 0.98983 0.0
C60 C 0.05733 0.27426 0.14718 0.0
C61 C 0.04657 0.29841 0.13242 0.0
C62 C 0.03314 0.30387 0.04569 0.0
C63 C 0.02985 0.28437 0.97545 0.0
N64 N 1.02169 0.32823 0.03007 0.0
C65 C 1.02304 0.34828 0.09707 0.0
H66 H 0.31009 0.06648 0.14571 0.0
H67 H 0.23464 0.05535 0.2571 0.0
H68 H 0.2595 1.01551 0.9976 0.0
C69 C 0.29112 0.05861 0.13722 0.0
C70 C 0.28684 0.04104 0.06267 0.0
C71 C 0.27253 0.06368 0.20796 0.0
C72 C 0.24866 0.05195 0.20058 0.0
C73 C 0.24349 0.03512 0.12246 0.0
C74 C 0.26286 0.02947 0.05448 0.0
N75 N 0.21958 1.02264 0.11324 0.0
C76 C 0.19998 1.02477 0.18135 0.0
H77 H 0.56307 0.30241 0.07439 0.0
H78 H 0.54921 0.23173 0.22359 0.0
H79 H 0.4983 0.25718 0.99558 0.0
C80 C 0.55235 0.28479 0.08083 0.0
C81 C 0.53036 0.28176 0.02474 0.0
C82 C 0.55911 0.26705 0.15302 0.0
C83 C 0.54424 0.24509 0.1662 0.0
C84 C 0.52259 0.24102 0.1073 0.0
C85 C 0.51551 0.2597 0.03801 0.0
N86 N 0.50706 0.21894 0.11829 0.0
C87 C 0.51113 0.1998 0.18758 0.0
Pr88 Pr 0.0273 1.01791 0.84308 0.0
Pr89 Pr 1.00216 0.02892 0.6553 0.0
C90 C 0.04402 0.9987 0.01352 0.0
C91 C 0.05515 0.97361 0.03716 0.0
C92 C 0.07862 0.97195 0.08564 0.0
C93 C 0.09041 0.94821 0.099 0.0
C94 C 0.07902 0.92587 0.06277 0.0
C95 C 0.0554 0.92763 0.01543 0.0
C96 C 0.04355 0.95119 1.00324 0.0
C97 C 0.06154 0.02651 0.69004 0.0
C98 C 1.00878 0.96864 0.69946 0.0
C99 C 0.99188 0.05154 0.48499 0.0
C100 C 1.0035 0.07559 0.45059 0.0
C101 C 0.9891 0.09817 0.45106 0.0
C102 C 1.00107 0.12186 0.44313 0.0
C103 C 0.02763 0.1234 0.43365 0.0
C104 C 0.04189 0.10081 0.42729 0.0
C105 C 0.02997 0.07714 0.43585 0.0
C106 C 0.96741 1.01999 0.80529 0.0
C107 C 1.02032 0.07708 0.79561 0.0
O108 O 1.01996 0.99892 0.98885 0.0
O109 O 0.05801 1.01334 0.95796 0.0
O110 O 0.04184 1.01292 0.68498 0.0
O111 O 0.06432 0.03613 0.77667 0.0
O112 O 1.0036 0.98511 0.62935 0.0
O113 O 1.01614 0.97651 0.78694 0.0
O114 O 1.00705 0.03179 0.49132 0.0
O115 O 0.97693 0.05383 0.56094 0.0
O116 O 0.98724 0.03346 0.81361 0.0
O117 O 0.96462 1.01135 0.71691 0.0
O118 O 1.01864 0.06106 0.86954 0.0
O119 O 1.02009 0.06826 0.70536 0.0
H120 H 0.08798 0.98903 0.11185 0.0
H121 H 0.10852 0.94734 0.13655 0.0
H122 H 0.04581 0.91068 0.98918 0.0
H123 H 0.02537 0.95185 0.96636 0.0
H124 H 0.96873 0.09755 0.46277 0.0
H125 H 0.98957 0.13901 0.44601 0.0
H126 H 0.06239 0.10144 0.41984 0.0
H127 H 0.04177 0.06018 0.43598 0.0
Pr128 Pr 0.52887 0.03702 0.88487 0.0
Pr129 Pr 0.51315 1.00837 0.68952 0.0
C130 C 0.54229 0.05908 0.05367 0.0
C131 C 0.56589 0.07294 0.07538 0.0
C132 C 0.56764 0.08973 0.15468 0.0
C133 C 0.59065 0.10221 0.17438 0.0
C134 C 0.61224 0.09796 0.11519 0.0
C135 C 0.60989 0.08172 0.03391 0.0
C136 C 0.58697 0.06955 0.01396 0.0
C137 C 0.52854 0.06621 0.7139 0.0
C138 C 0.57433 1.0131 0.74491 0.0
C139 C 0.49413 1.00319 0.51034 0.0
C140 C 0.47006 1.01484 0.47573 0.0
C141 C 0.44664 1.00415 0.50405 0.0
C142 C 0.4242 1.01814 0.49553 0.0
C143 C 0.42454 0.04305 0.45767 0.0
C144 C 0.44755 0.05302 0.42193 0.0
C145 C 0.47012 0.03901 0.43072 0.0
C146 C 0.52026 0.97186 0.83789 0.0
C147 C 0.46756 1.02528 0.84406 0.0
O148 O 0.54512 0.03458 0.03741 0.0
O149 O 0.52726 0.07024 0.99041 0.0
O150 O 0.5118 0.0502 0.7386 0.0
O151 O 0.54642 0.06758 0.77882 0.0
O152 O 0.5575 1.01088 0.67339 0.0
O153 O 0.56763 1.01925 0.83512 0.0
O154 O 0.51279 1.0191 0.52893 0.0
O155 O 0.4917 0.98542 0.5773 0.0
O156 O 0.52281 0.99566 0.84541 0.0
O157 O 0.51426 0.96594 0.74858 0.0
O158 O 0.48505 0.03016 0.91116 0.0
O159 O 0.4736 1.01954 0.75318 0.0
H160 H 0.55139 0.09293 0.20185 0.0
H161 H 0.59166 0.11483 0.23681 0.0
H162 H 0.62604 0.07744 0.98761 0.0
H163 H 0.58588 0.05697 0.9514 0.0
H164 H 0.44572 0.98547 0.53786 0.0
H165 H 0.40661 1.00959 0.52055 0.0
H166 H 0.4483 0.07206 0.3911 0.0
H167 H 0.48779 0.04773 0.40749 0.0
Pr168 Pr 0.5015 0.5223 0.84608 0.0
Pr169 Pr 0.53411 0.50873 0.64058 0.0
C170 C 0.48857 0.54058 0.02185 0.0
C171 C 0.48435 0.56739 0.0494 0.0
C172 C 0.46256 0.57464 0.10167 0.0
C173 C 0.45688 0.60055 0.11515 0.0
C174 C 0.4728 0.61955 0.07546 0.0
C175 C 0.4947 0.61201 0.02407 0.0
C176 C 0.5005 0.58633 0.01197 0.0
C177 C 0.46956 0.52012 0.68031 0.0
C178 C 0.52333 0.56954 0.69816 0.0
C179 C 0.54805 0.49072 0.46586 0.0
C180 C 0.56008 0.46602 0.44234 0.0
C181 C 0.58249 0.46489 0.38658 0.0
C182 C 0.59505 0.44153 0.3729 0.0
C183 C 0.58553 0.41907 0.41611 0.0
C184 C 0.56302 0.42035 0.4711 0.0
C185 C 0.55044 0.44347 0.48374 0.0
C186 C 0.56599 0.51059 0.80637 0.0
C187 C 0.51255 0.46145 0.79042 0.0
O188 O 0.51199 0.53437 0.99924 0.0
O189 O 0.47179 0.53117 0.96128 0.0
O190 O 0.49335 0.51731 0.68375 0.0
O191 O 0.46125 0.52395 0.76853 0.0
O192 O 0.52956 0.55324 0.62775 0.0
O193 O 0.5149 0.56217 0.78532 0.0
O194 O 0.52451 0.48963 0.4977 0.0
O195 O 0.56224 0.50674 0.5151 0.0
O196 O 0.54234 0.51421 0.80211 0.0
O197 O 0.57424 0.50531 0.7192 0.0
O198 O 0.50508 0.47786 0.85852 0.0
O199 O 0.52193 0.4686 0.70429 0.0
H200 H 0.44969 0.56031 0.13012 0.0
H201 H 0.44008 0.60563 0.15659 0.0
H202 H 0.50721 0.62595 0.99083 0.0
H203 H 0.5173 0.58135 0.97033 0.0
H204 H 0.59041 0.48208 0.35472 0.0
H205 H 0.61228 0.44105 0.32948 0.0
H206 H 0.55478 0.40331 0.50302 0.0
H207 H 0.53318 0.44368 0.52673 0.0
Pr208 Pr 1.01601 0.50558 0.80774 0.0
Pr209 Pr 0.02731 0.53969 0.62546 0.0
C210 C 0.99593 0.48255 0.9658 0.0
C211 C 0.96936 0.47894 0.9956 0.0
C212 C 0.96159 0.45621 0.04079 0.0
C213 C 0.9357 0.45146 0.05653 0.0
C214 C 0.9172 0.46925 0.02592 0.0
C215 C 0.92534 0.49211 0.98181 0.0
C216 C 0.95108 0.49699 0.96784 0.0
C217 C 0.02799 0.47923 0.63673 0.0
C218 C 0.967 0.52922 0.6714 0.0
C219 C 0.04707 0.55302 0.45243 0.0
C220 C 0.07382 0.55931 0.43071 0.0
C221 C 0.08035 0.58182 0.38088 0.0
C222 C 0.10598 0.58881 0.37046 0.0
C223 C 0.12539 0.57348 0.41069 0.0
C224 C 0.11856 0.55103 0.46042 0.0
C225 C 0.09324 0.54393 0.46936 0.0
C226 C 0.02473 0.57224 0.78784 0.0
C227 C 0.07534 0.52071 0.77413 0.0
O228 O 1.00446 0.50603 0.96718 0.0
O229 O 1.00246 0.47018 0.8869 0.0
O230 O 1.01341 0.49838 0.64231 0.0
O231 O 0.03731 0.47332 0.72183 0.0
O232 O 0.98313 0.53869 0.60659 0.0
O233 O 0.97496 0.51759 0.7521 0.0
O234 O 0.04272 0.52924 0.47691 0.0
O235 O 0.03493 0.56937 0.50773 0.0
O236 O 1.0218 0.5483 0.78984 0.0
O237 O 0.02839 0.58005 0.69893 0.0
O238 O 0.05873 0.51373 0.84139 0.0
O239 O 0.06795 0.52796 0.68575 0.0
H240 H 0.97548 0.44197 0.06213 0.0
H241 H 0.93023 0.43389 0.09257 0.0
H242 H 0.91184 0.50612 0.95554 0.0
H243 H 0.95661 0.51462 0.93237 0.0
H244 H 0.06567 0.5941 0.35122 0.0
H245 H 0.11054 0.60604 0.33041 0.0
H246 H 0.13277 0.53897 0.49433 0.0
H247 H 0.08894 0.52656 0.509 0.0
H248 H 0.14966 0.02868 0.14557 0.0
H249 H 0.20501 1.02415 0.37707 0.0
H250 H 0.11533 0.03069 0.26664 0.0
H251 H 0.1709 1.02556 0.49875 0.0
H252 H 0.10644 0.05247 0.69385 0.0
H253 H 0.13948 0.05347 0.56854 0.0
H254 H 0.09382 1.00444 0.38547 0.0
H255 H 0.06057 1.00398 0.51017 0.0
C256 C 0.15437 0.02812 0.22264 0.0
C257 C 0.17977 0.02634 0.25272 0.0
C258 C 0.13477 0.02911 0.29199 0.0
C259 C 0.14029 0.02833 0.39273 0.0
C260 C 0.16592 0.02663 0.42206 0.0
C261 C 0.18546 1.02566 0.35264 0.0
C262 C 0.10344 0.04201 0.62661 0.0
C263 C 0.08102 0.028 0.61209 0.0
C264 C 0.12244 0.04245 0.55495 0.0
C265 C 0.11948 0.02886 0.46701 0.0
C266 C 0.09671 1.01531 0.45178 0.0
C267 C 0.0777 1.0149 0.5235 0.0
H268 H 0.4756 0.18345 0.3146 0.0
H269 H 0.55274 0.17059 0.22021 0.0
H270 H 0.47991 0.14952 0.43672 0.0
H271 H 0.55716 0.13626 0.34116 0.0
H272 H 0.56422 0.09961 0.64762 0.0
H273 H 0.56016 0.13084 0.51614 0.0
H274 H 0.48413 0.10377 0.4569 0.0
H275 H 0.48812 0.07284 0.59036 0.0
C276 C 0.49345 0.1732 0.32005 0.0
C277 C 0.51389 0.17957 0.25901 0.0
C278 C 0.49589 0.15363 0.3893 0.0
C279 C 0.51889 0.14005 0.39893 0.0
C280 C 0.53929 0.14646 0.33664 0.0
C281 C 0.53679 0.16603 0.26726 0.0
C282 C 0.5467 0.10023 0.60607 0.0
C283 C 0.52647 0.0838 0.62932 0.0
C284 C 0.54441 0.11803 0.53018 0.0
C285 C 0.52179 0.11994 0.47577 0.0
C286 C 0.50172 0.10309 0.49797 0.0
C287 C 0.50405 0.08521 0.57385 0.0
H288 H 0.38595 0.5414 0.12978 0.0
H289 H 0.34193 0.48725 0.29607 0.0
H290 H 0.41849 0.5418 0.25886 0.0
H291 H 0.37438 0.48711 0.4239 0.0
H292 H 0.4184 0.51785 0.68329 0.0
H293 H 0.3889 0.51609 0.54754 0.0
H294 H 0.45183 0.51638 0.34446 0.0
H295 H 0.48175 0.51861 0.48275 0.0
C296 C 0.38336 0.5295 0.19389 0.0
C297 C 0.36143 0.51445 0.20389 0.0
C298 C 0.40206 0.52955 0.26737 0.0
C299 C 0.39909 0.51459 0.35233 0.0
C300 C 0.3772 0.4992 0.36053 0.0
C301 C 0.35861 0.49918 0.28727 0.0
C302 C 0.42609 0.5174 0.60982 0.0
C303 C 0.45249 0.51811 0.59401 0.0
C304 C 0.40908 0.51623 0.53164 0.0
C305 C 0.41786 0.5158 0.43462 0.0
C306 C 0.44437 0.51671 0.41824 0.0
C307 C 0.46154 0.51775 0.49729 0.0
H308 H 0.06433 0.36202 0.20112 0.0
H309 H 0.98538 0.38023 0.15363 0.0
H310 H 0.06703 0.39545 0.32543 0.0
H311 H 0.98763 0.41335 0.27953 0.0
H312 H 1.00465 0.48471 0.45855 0.0
H313 H 1.00446 0.45443 0.32252 0.0
H314 H 0.05315 0.4038 0.48775 0.0
H315 H 0.05382 0.4343 0.62177 0.0
C316 C 0.04757 0.37327 0.21758 0.0
C317 C 0.02466 0.36865 0.16849 0.0
C318 C 0.04901 0.39232 0.28917 0.0
C319 C 0.02752 0.40714 0.31342 0.0
C320 C 1.00467 0.40262 0.2624 0.0
C321 C 1.00328 0.38355 0.19073 0.0
C322 C 1.01552 0.46721 0.46516 0.0
C323 C 0.02923 0.4619 0.55101 0.0
C324 C 1.01525 0.44973 0.3875 0.0
C325 C 0.0287 0.4265 0.39381 0.0
C326 C 0.04283 0.42156 0.4792 0.0
C327 C 0.04312 0.43903 0.55656 0.0
H328 H 0.84314 0.97281 0.18588 0.0
H329 H 0.85822 0.05025 0.27389 0.0
H330 H 0.87702 0.97542 0.06381 0.0
H331 H 0.89194 0.05332 0.15026 0.0
H332 H 0.96799 0.03952 0.99078 0.0
H333 H 0.93423 0.03727 0.11363 0.0
H334 H 0.88724 0.99534 0.91076 0.0
H335 H 0.92115 0.9971 0.78947 0.0
C336 C 0.85366 0.99048 0.17811 0.0
C337 C 0.84821 1.01135 0.23834 0.0
C338 C 0.87298 0.99206 0.10805 0.0
C339 C 0.88726 1.01461 0.09687 0.0
C340 C 0.88158 0.03557 0.15756 0.0
C341 C 0.86219 0.03393 0.22772 0.0
C342 C 0.95044 0.02979 0.97275 0.0
C343 C 0.94722 1.01847 0.88057 0.0
C344 C 0.93102 0.02864 0.04284 0.0
C345 C 0.90795 1.01613 0.02227 0.0
C346 C 0.90484 1.00481 0.92983 0.0
C347 C 0.92425 1.00593 0.85999 0.0
H348 H 0.4946 0.84564 0.23663 0.0
H349 H 0.56608 0.8765 0.33524 0.0
H350 H 0.49179 0.87889 0.11203 0.0
H351 H 0.56342 0.91001 0.20986 0.0
H352 H 0.53513 0.98014 0.02787 0.0
H353 H 0.53812 0.94848 0.15997 0.0
H354 H 0.51424 0.88955 0.95979 0.0
H355 H 0.51118 0.921 0.82906 0.0
C356 C 0.50973 0.85955 0.23157 0.0
C357 C 0.53064 0.85846 0.29485 0.0
C358 C 0.50818 0.87859 0.15996 0.0
C359 C 0.52747 0.89705 0.15038 0.0
C360 C 0.54816 0.89622 0.21561 0.0
C361 C 0.54976 0.87702 0.28698 0.0
C362 C 0.53059 0.9604 0.01242 0.0
C363 C 0.52287 0.95305 0.91826 0.0
C364 C 0.53239 0.94226 0.08783 0.0
C365 C 0.52624 0.91648 0.07065 0.0
C366 C 0.51872 0.90926 0.97607 0.0
C367 C 0.51712 0.92728 0.90089 0.0
H368 H 0.66641 0.56624 0.26323 0.0
H369 H 0.68251 0.48563 0.25422 0.0
H370 H 0.63219 0.56048 0.14352 0.0
H371 H 0.64818 0.4796 0.13551 0.0
H372 H 0.61086 0.48637 0.83092 0.0
H373 H 0.64104 0.49024 0.96486 0.0
H374 H 0.58986 0.54187 0.11284 0.0
H375 H 0.55978 0.53829 0.9763 0.0
C376 C 0.66241 0.54725 0.23602 0.0
C377 C 0.67711 0.52639 0.26702 0.0
C378 C 0.64271 0.54389 0.16803 0.0
C379 C 0.6374 0.51957 0.12925 0.0
C380 C 0.65191 0.49865 0.16256 0.0
C381 C 0.67153 0.50204 0.23073 0.0
C382 C 0.60588 0.49832 0.8926 0.0
C383 C 0.58271 0.51171 0.89375 0.0
C384 C 0.62316 0.50043 0.96986 0.0
C385 C 0.61793 0.51626 0.05035 0.0
C386 C 0.59457 0.52953 0.05203 0.0
C387 C 0.57711 0.5272 0.97462 0.0
H388 H 0.04909 0.69823 0.1922 0.0
H389 H 0.97949 0.66372 0.29332 0.0
H390 H 0.05389 0.66452 0.07027 0.0
H391 H 0.984 0.62993 0.17042 0.0
H392 H 1.01198 0.56192 0.98023 0.0
H393 H 1.00971 0.59258 0.1161 0.0
H394 H 0.03239 0.65309 0.91985 0.0
H395 H 0.03483 0.62278 0.78625 0.0
C396 C 0.03485 0.68336 0.18834 0.0
C397 C 1.01384 0.68361 0.25135 0.0
C398 C 0.03752 0.66406 0.11832 0.0
C399 C 1.01923 0.64453 0.1098 0.0
C400 C 0.99855 0.64448 0.17528 0.0
C401 C 0.99586 0.66389 0.24517 0.0
C402 C 1.01657 0.58176 0.96671 0.0
C403 C 1.02359 0.58991 0.87253 0.0
C404 C 1.01517 0.59935 0.04426 0.0
C405 C 1.02102 0.62534 0.02919 0.0
C406 C 0.02817 0.63324 0.93489 0.0
C407 C 0.02939 0.61582 0.85788 0.0
H408 H 0.02795 0.27409 0.30831 0.0
H409 H 0.10242 0.25286 0.20465 0.0
H410 H 0.02857 0.23912 0.42288 0.0
H411 H 0.10401 0.21839 0.32441 0.0
H412 H 0.0648 0.13875 0.30831 0.0
H413 H 0.0817 0.18128 0.28763 0.0
H414 H 0.03733 0.20729 0.535 0.0
H415 H 1.01927 0.16463 0.55128 0.0
C416 C 0.04529 0.26302 0.3151 0.0
C417 C 0.06471 0.26544 0.2455 0.0
C418 C 0.04567 0.2427 0.38099 0.0
C419 C 0.06576 0.2249 0.37885 0.0
C420 C 0.08766 0.23098 0.3243 0.0
C421 C 0.08701 0.25101 0.25682 0.0
C422 C 0.05905 0.15344 0.35944 0.0
C423 C 0.04041 0.14853 0.43021 0.0
C424 C 0.06902 0.17791 0.34864 0.0
C425 C 0.0608 0.19805 0.40927 0.0
C426 C 0.04374 0.19248 0.48564 0.0
C427 C 0.03335 0.16806 0.49499 0.0
H428 H 0.29201 0.11162 0.22996 0.0
H429 H 0.2748 0.04251 0.38768 0.0
H430 H 0.32909 0.11843 0.33333 0.0
H431 H 0.31192 0.04875 0.48918 0.0
H432 H 0.38885 0.0481 0.60163 0.0
H433 H 0.34621 0.06624 0.58615 0.0
H434 H 0.3642 0.09021 0.29149 0.0
H435 H 0.40648 0.0722 0.30751 0.0
C436 C 0.29516 0.09885 0.29115 0.0
C437 C 0.28127 0.07603 0.29873 0.0
C438 C 0.31664 0.10251 0.34946 0.0
C439 C 0.32422 0.08338 0.41556 0.0
C440 C 0.30698 0.06365 0.4376 0.0
C441 C 0.28544 0.0601 0.37964 0.0
C442 C 0.38371 0.05766 0.53428 0.0
C443 C 0.40071 0.05817 0.45481 0.0
C444 C 0.35941 0.06824 0.52578 0.0
C445 C 0.35164 0.07953 0.43749 0.0
C446 C 0.36954 0.08204 0.36129 0.0
C447 C 0.39381 0.07149 0.36993 0.0
H448 H 0.60863 0.28007 0.11976 0.0
H449 H 0.55198 0.27434 0.34653 0.0
H450 H 0.62979 0.3141 0.20987 0.0
H451 H 0.57242 0.30855 0.43532 0.0
H452 H 0.59491 0.38101 0.54871 0.0
H453 H 0.60282 0.33614 0.51146 0.0
H454 H 0.60994 0.35538 0.20519 0.0
H455 H 0.60238 0.3999 0.24281 0.0
C456 C 0.6016 0.28507 0.19171 0.0
C457 C 0.57834 0.27518 0.22519 0.0
C458 C 0.61351 0.30479 0.24279 0.0
C459 C 0.60214 0.31488 0.32741 0.0
C460 C 0.58163 0.30156 0.3698 0.0
C461 C 0.56986 0.28173 0.31901 0.0
C462 C 0.59894 0.37564 0.47383 0.0
C463 C 0.59739 0.39381 0.39821 0.0
C464 C 0.60353 0.34996 0.45258 0.0
C465 C 0.60651 0.34198 0.35522 0.0
C466 C 0.60792 0.3607 0.28125 0.0
C467 C 0.60344 0.38636 0.3026 0.0
H468 H 0.25343 0.61127 0.11246 0.0
H469 H 0.28139 0.55538 0.31798 0.0
H470 H 0.22021 0.62325 0.22693 0.0
H471 H 0.24907 0.56835 0.43444 0.0
H472 H 0.16472 0.54047 0.38235 0.0
H473 H 0.20901 0.54979 0.36041 0.0
H474 H 0.19352 0.63055 0.38188 0.0
H475 H 0.14834 0.62107 0.40982 0.0
C476 C 0.25362 0.60283 0.18482 0.0
C477 C 0.26881 0.58127 0.20407 0.0
C478 C 0.23458 0.60979 0.25083 0.0
C479 C 0.23122 0.59558 0.33693 0.0
C480 C 0.25075 0.5789 0.36655 0.0
C481 C 0.26945 0.57156 0.29977 0.0
C482 C 0.1706 0.56023 0.38644 0.0
C483 C 0.15278 0.57996 0.39892 0.0
C484 C 0.19623 0.56561 0.37425 0.0
C485 C 0.20495 0.59093 0.37196 0.0
C486 C 0.18736 0.61085 0.38502 0.0
C487 C 0.16148 0.6054 0.39935 0.0
H488 H 0.04596 0.78054 0.15031 0.0
H489 H 0.10463 0.78839 0.36795 0.0
H490 H 0.065 0.81447 0.05524 0.0
H491 H 0.12463 0.82191 0.2708 0.0
H492 H 0.09824 0.90735 0.2332 0.0
H493 H 0.10586 0.86301 0.27346 0.0
H494 H 0.09315 0.84205 0.97169 0.0
H495 H 0.08486 0.88677 0.93233 0.0
C496 C 0.06397 0.78836 0.17444 0.0
C497 C 0.07346 0.78246 0.26746 0.0
C498 C 0.07496 0.80801 0.11995 0.0
C499 C 0.09575 0.82179 0.15769 0.0
C500 C 0.10806 0.81233 0.24156 0.0
C501 C 0.09684 0.79288 0.29664 0.0
C502 C 0.09799 0.89342 0.17479 0.0
C503 C 0.09035 0.90038 0.08031 0.0
C504 C 0.10254 0.86785 0.19757 0.0
C505 C 0.09966 0.84872 0.12608 0.0
C506 C 0.09497 0.85618 0.02895 0.0
C507 C 0.09019 0.88176 0.00641 0.0
H508 H 0.7556 0.05669 0.18102 0.0
H509 H 0.75148 0.10734 0.42858 0.0
H510 H 0.72178 0.08046 0.10123 0.0
H511 H 0.71751 0.13131 0.34871 0.0
H512 H 0.63172 0.1034 0.29938 0.0
H513 H 0.67594 0.10809 0.3435 0.0
H514 H 0.69601 0.1178 0.03963 0.0
H515 H 0.6512 0.11414 0.99494 0.0
C516 C 0.74863 0.07393 0.21557 0.0
C517 C 0.75559 0.0798 0.31191 0.0
C518 C 0.72909 0.08757 0.16998 0.0
C519 C 0.71638 0.1072 0.22043 0.0
C520 C 0.7266 0.1159 0.30917 0.0
C521 C 0.74618 0.10231 0.35454 0.0
C522 C 0.64522 0.10773 0.24194 0.0
C523 C 0.63784 0.10769 0.14325 0.0
C524 C 0.67076 0.11048 0.26741 0.0
C525 C 0.68956 0.113 0.19482 0.0
C526 C 0.68197 0.11559 0.09697 0.0
C527 C 0.65631 0.11322 0.07152 0.0
H528 H 0.43826 0.74781 0.3827 0.0
H529 H 0.49411 0.776 0.17819 0.0
H530 H 0.42629 0.71472 0.26748 0.0
H531 H 0.48132 0.74369 0.0613 0.0
H532 H 0.50699 0.65789 0.10385 0.0
H533 H 0.49897 0.70251 0.12995 0.0
H534 H 0.41805 0.6894 0.11087 0.0
H535 H 0.42616 0.64403 0.07909 0.0
C536 C 0.44674 0.74805 0.3105 0.0
C537 C 0.46813 0.76339 0.29148 0.0
C538 C 0.43981 0.72908 0.24411 0.0
C539 C 0.45394 0.72585 0.1579 0.0
C540 C 0.47078 0.74531 0.1291 0.0
C541 C 0.478 0.764 0.19609 0.0
C542 C 0.48746 0.6644 0.10134 0.0
C543 C 0.46727 0.64719 0.08877 0.0
C544 C 0.48283 0.69021 0.11589 0.0
C545 C 0.45784 0.69964 0.12029 0.0
C546 C 0.4375 0.68267 0.10646 0.0
C547 C 0.44218 0.65668 0.08991 0.0
H548 H 0.762 0.49446 0.13696 0.0
H549 H 0.78969 0.43781 0.34003 0.0
H550 H 0.79385 0.48122 0.0188 0.0
H551 H 0.82209 0.42511 0.22279 0.0
H552 H 0.89096 0.42349 0.01965 0.0
H553 H 0.84572 0.41656 0.05489 0.0
H554 H 0.83593 0.4976 0.09696 0.0
H555 H 0.88054 0.50441 0.06885 0.0
C556 C 0.77372 0.47804 0.15409 0.0
C557 C 0.77432 0.46799 0.24926 0.0
C558 C 0.79209 0.47052 0.08632 0.0
C559 C 0.81113 0.4531 0.11397 0.0
C560 C 0.80793 0.43896 0.20033 0.0
C561 C 0.78938 0.44631 0.26778 0.0
C562 C 0.87912 0.43981 0.03646 0.0
C563 C 0.88956 0.46456 0.04109 0.0
C564 C 0.85318 0.43582 0.05486 0.0
C565 C 0.8372 0.45659 0.07571 0.0
C566 C 0.84752 0.48128 0.07734 0.0
C567 C 0.8733 0.48518 0.06142 0.0
H568 H 0.99579 0.23518 0.97568 0.0
H569 H 0.0734 0.23287 0.87505 0.0
H570 H 0.98955 0.19122 0.91956 0.0
H571 H 0.06721 0.18906 0.81754 0.0
H572 H 0.03993 0.11368 0.67343 0.0
H573 H 0.0435 0.15965 0.70343 0.0
H574 H 1.00788 0.14983 0.98506 0.0
H575 H 1.00522 0.10382 0.95708 0.0
C576 C 1.01116 0.22563 0.93766 0.0
C577 C 0.03493 0.23759 0.92804 0.0
C578 C 1.00776 0.20032 0.90703 0.0
C579 C 0.02799 0.18649 0.86517 0.0
C580 C 0.05121 0.19915 0.84905 0.0
C581 C 0.05472 0.22432 0.88116 0.0
C582 C 0.03286 0.12133 0.74179 0.0
C583 C 1.02237 0.10504 0.81312 0.0
C584 C 0.03483 0.14768 0.75868 0.0
C585 C 0.02555 0.15851 0.84573 0.0
C586 C 1.01481 0.14221 0.91646 0.0
C587 C 1.01349 0.11579 0.90082 0.0
H588 H 0.30708 0.063 0.89957 0.0
H589 H 0.31838 1.0022 0.1075 0.0
H590 H 0.3508 0.05743 0.8404 0.0
H591 H 0.36216 0.99677 0.04995 0.0
H592 H 0.44582 1.026 0.02687 0.0
H593 H 0.40047 1.02625 0.06726 0.0
H594 H 0.38178 0.02631 0.76025 0.0
H595 H 0.42695 1.02615 0.7194 0.0
C596 C 0.31863 0.04775 0.92957 0.0
C597 C 0.30927 0.03259 0.00621 0.0
C598 C 0.3437 0.04472 0.89665 0.0
C599 C 0.36001 0.02689 0.94154 0.0
C600 C 0.35014 1.01085 0.01474 0.0
C601 C 0.32499 1.01362 0.04647 0.0
C602 C 0.43207 1.02613 0.96796 0.0
C603 C 0.4401 1.02606 0.86997 0.0
C604 C 0.40609 1.02604 0.99106 0.0
C605 C 0.38757 1.02618 0.91674 0.0
C606 C 0.3956 0.02634 0.81891 0.0
C607 C 0.42152 1.02615 0.79577 0.0
H608 H 0.48551 0.30814 0.0317 0.0
H609 H 0.55781 0.30568 0.88322 0.0
H610 H 0.47745 0.35063 0.96316 0.0
H611 H 0.55022 0.34809 0.81649 0.0
H612 H 0.5271 0.42137 0.67392 0.0
H613 H 0.52669 0.37608 0.71206 0.0
H614 H 0.49483 0.39263 0.99608 0.0
H615 H 0.49459 0.438 0.95679 0.0
C616 C 0.49927 0.31633 0.98173 0.0
C617 C 0.52224 0.30358 0.96248 0.0
C618 C 0.49488 0.34085 0.94375 0.0
C619 C 0.51334 0.35305 0.88537 0.0
C620 C 0.53545 0.33937 0.86045 0.0
C621 C 0.53984 0.31499 0.89862 0.0
C622 C 0.5197 0.41545 0.74405 0.0
C623 C 0.51098 0.43357 0.81218 0.0
C624 C 0.51958 0.38936 0.76619 0.0
C625 C 0.5108 0.38055 0.85735 0.0
C626 C 0.50141 0.39858 0.92456 0.0
C627 C 0.50149 0.42472 0.9023 0.0
H628 H 0.23025 0.49234 0.99784 0.0
H629 H 0.2318 0.56691 0.86474 0.0
H630 H 0.18685 0.48592 0.93693 0.0
H631 H 0.18856 0.56096 0.80564 0.0
H632 H 0.09944 0.50125 0.93712 0.0
H633 H 0.14482 0.50206 0.97538 0.0
H634 H 0.15975 0.53975 0.70023 0.0
H635 H 0.11447 0.5398 0.66445 0.0
C636 C 0.22161 0.507 0.95289 0.0
C637 C 0.23455 0.53002 0.93526 0.0
C638 C 0.19655 0.50356 0.91942 0.0
C639 C 0.18388 0.52302 0.86712 0.0
C640 C 0.19755 0.54539 0.84467 0.0
C641 C 0.22245 0.54883 0.87839 0.0
C642 C 0.11241 0.50966 0.88468 0.0
C643 C 0.10315 0.52039 0.79722 0.0
C644 C 0.13856 0.5099 0.90618 0.0
C645 C 0.15621 0.52091 0.84095 0.0
C646 C 0.14689 0.5313 0.75297 0.0
C647 C 0.12082 0.53111 0.73175 0.0
H648 H 0.98213 0.81481 0.46341 0.0
H649 H 0.0539 0.81228 0.61498 0.0
H650 H 0.97411 0.85755 0.52946 0.0
H651 H 0.04628 0.85488 0.67989 0.0
H652 H 0.99183 0.94493 0.5328 0.0
H653 H 0.99212 0.89945 0.49533 0.0
H654 H 1.02226 0.88332 0.78246 0.0
H655 H 1.02247 0.92876 0.81891 0.0
C656 C 0.99574 0.82302 0.51372 0.0
C657 C 1.01854 0.81014 0.5347 0.0
C658 C 0.99139 0.84769 0.55028 0.0
C659 C 1.0097 0.85993 0.60906 0.0
C660 C 0.03163 0.84614 0.63562 0.0
C661 C 0.03601 0.82164 0.59865 0.0
C662 C 0.99834 0.9317 0.58835 0.0
C663 C 1.00723 0.9407 0.67897 0.0
C664 C 0.99829 0.90551 0.56712 0.0
C665 C 1.0072 0.88755 0.63578 0.0
C666 C 1.01548 0.89652 0.7273 0.0
C667 C 1.01547 0.92268 0.74852 0.0
H668 H 0.72979 0.05274 0.65465 0.0
H669 H 0.7238 0.98381 0.48454 0.0
H670 H 0.68814 0.04457 0.72631 0.0
H671 H 0.68207 0.97529 0.55722 0.0
H672 H 0.59606 0.9984 0.57168 0.0
H673 H 0.64111 0.99672 0.53089 0.0
H674 H 0.66011 1.0183 0.82648 0.0
H675 H 0.61501 1.02034 0.86722 0.0
C676 C 0.71991 0.03532 0.63549 0.0
C677 C 0.72999 1.01891 0.56413 0.0
C678 C 0.69601 0.03061 0.67645 0.0
C679 C 0.68156 1.00945 0.64648 0.0
C680 C 0.69255 0.99196 0.58074 0.0
C681 C 0.7166 0.99661 0.54019 0.0
C682 C 0.6098 1.00252 0.62842 0.0
C683 C 0.60181 1.00973 0.72252 0.0
C684 C 0.6357 1.00133 0.60521 0.0
C685 C 0.65429 1.00739 0.67539 0.0
C686 C 0.64631 1.01373 0.77045 0.0
C687 C 0.62041 1.01483 0.7938 0.0
H688 H 0.55583 0.72507 0.48647 0.0
H689 H 0.48438 0.72857 0.64027 0.0
H690 H 0.56186 0.68099 0.54256 0.0
H691 H 0.48996 0.68469 0.69504 0.0
H692 H 0.51034 0.60863 0.82049 0.0
H693 H 0.51252 0.65424 0.79122 0.0
H694 H 0.54241 0.64015 0.5021 0.0
H695 H 0.54102 0.59423 0.53311 0.0
C696 C 0.54191 0.71671 0.53531 0.0
C697 C 0.5198 0.73032 0.5601 0.0
C698 C 0.54509 0.6913 0.56596 0.0
C699 C 0.52625 0.67905 0.62239 0.0
C700 C 0.50501 0.69341 0.65254 0.0
C701 C 0.50181 0.71866 0.62156 0.0
C702 C 0.51772 0.61514 0.75115 0.0
C703 C 0.52549 0.59755 0.67944 0.0
C704 C 0.51881 0.64143 0.734 0.0
C705 C 0.52758 0.65106 0.64411 0.0
C706 C 0.53588 0.63353 0.5728 0.0
C707 C 0.53485 0.60712 0.59023 0.0
H708 H 0.81106 0.48281 0.58857 0.0
H709 H 0.81088 0.55755 0.45677 0.0
H710 H 0.85418 0.4896 0.64705 0.0
H711 H 0.85419 0.56486 0.5174 0.0
H712 H 0.94201 0.55079 0.51406 0.0
H713 H 0.89647 0.55015 0.47881 0.0
H714 H 0.88286 0.5107 0.75135 0.0
H715 H 0.92822 0.51046 0.78393 0.0
C716 C 0.81999 0.50112 0.57518 0.0
C717 C 0.80746 0.51971 0.51874 0.0
C718 C 0.84484 0.50506 0.60861 0.0
C719 C 0.85802 0.52774 0.58645 0.0
C720 C 0.84489 0.54699 0.53472 0.0
C721 C 0.81987 0.54304 0.50141 0.0
C722 C 0.92929 0.54211 0.56678 0.0
C723 C 0.939 0.53063 0.65212 0.0
C724 C 0.90305 0.54193 0.54693 0.0
C725 C 0.88572 0.5303 0.61191 0.0
C726 C 0.89545 0.51951 0.69852 0.0
C727 C 0.92161 0.51958 0.71791 0.0
loop_
_geom_bond_atom_site_label_1
_geom_bond_atom_site_label_2
_geom_bond_distance
_geom_bond_site_symmetry_2
_ccdc_geom_bond_type
H0 C3 0.929 . S
H1 C6 0.929 . S
H2 C8 0.930 . S
C3 H0 0.929 . S
C3 C4 1.398 . S
C3 C5 1.396 . S
C4 C3 1.398 . S
C4 C8 1.407 . S
C5 C3 1.396 . S
C5 C6 1.394 . S
C6 H1 0.929 . S
C6 C5 1.394 . S
C6 C7 1.382 . S
C7 C6 1.382 . S
C7 C8 1.392 . S
C7 N9 1.420 . S
C8 H2 0.930 . S
C8 C4 1.407 . S
C8 C7 1.392 . S
N9 C7 1.420 . S
N9 C10 1.244 . S
C10 N9 1.244 . S
H11 C14 0.929 . S
H12 C17 0.929 . S
H13 C19 0.930 . S
C14 H11 0.929 . S
C14 C15 1.395 1_655 S
C14 C16 1.395 1_655 S
C15 C14 1.395 1_455 S
C15 C19 1.413 . S
C16 C14 1.395 1_455 S
C16 C17 1.397 . S
C17 H12 0.929 . S
C17 C16 1.397 . S
C17 C18 1.382 . S
C18 C17 1.382 . S
C18 C19 1.392 . S
C18 N20 1.420 . S
C19 H13 0.930 . S
C19 C15 1.413 . S
C19 C18 1.392 . S
N20 C18 1.420 . S
N20 C21 1.232 1_455 S
C21 N20 1.232 1_655 S
H22 C25 0.929 . S
H23 C28 0.929 . S
H24 C30 0.930 . S
C25 H22 0.929 . S
C25 C26 1.395 1_565 S
C25 C27 1.395 1_565 S
C26 C25 1.395 1_545 S
C26 C30 1.413 . S
C27 C25 1.395 1_545 S
C27 C28 1.397 . S
C28 H23 0.929 . S
C28 C27 1.397 . S
C28 C29 1.382 . S
C29 C28 1.382 . S
C29 C30 1.392 . S
C29 N31 1.420 . S
C30 H24 0.930 . S
C30 C26 1.413 . S
C30 C29 1.392 . S
N31 C29 1.420 . S
N31 C32 1.232 1_545 S
C32 N31 1.232 1_565 S
H33 C36 0.929 . S
H34 C39 0.929 . S
H35 C41 0.930 . S
C36 H33 0.929 . S
C36 C37 1.398 . S
C36 C38 1.396 . S
C37 C36 1.398 . S
C37 C41 1.407 . S
C38 C36 1.396 . S
C38 C39 1.394 . S
C39 H34 0.929 . S
C39 C38 1.394 . S
C39 C40 1.382 . S
C40 C39 1.382 . S
C40 C41 1.392 . S
C40 N42 1.420 . S
C41 H35 0.930 . S
C41 C37 1.407 . S
C41 C40 1.392 . S
N42 C40 1.420 . S
N42 C43 1.244 . S
C43 N42 1.244 . S
H44 C47 0.929 . S
H45 C50 0.929 . S
H46 C52 0.930 . S
C47 H44 0.929 . S
C47 C48 1.398 1_554 S
C47 C49 1.396 . S
C48 C47 1.398 1_556 S
C48 C52 1.407 . S
C49 C47 1.396 . S
C49 C50 1.394 . S
C50 H45 0.929 . S
C50 C49 1.394 . S
C50 C51 1.382 . S
C51 C50 1.382 . S
C51 C52 1.392 1_554 S
C51 N53 1.420 . S
C52 H46 0.930 . S
C52 C48 1.407 . S
C52 C51 1.392 1_556 S
N53 C51 1.420 . S
N53 C54 1.244 . S
C54 N53 1.244 . S
H55 C58 0.929 . S
H56 C61 0.929 . S
H57 C63 0.930 . S
C58 H55 0.929 . S
C58 C59 1.395 1_654 S
C58 C60 1.394 1_655 S
C59 C58 1.395 1_456 S
C59 C63 1.416 . S
C60 C58 1.394 1_455 S
C60 C61 1.398 . S
C61 H56 0.929 . S
C61 C60 1.398 . S
C61 C62 1.382 . S
C62 C61 1.382 . S
C62 C63 1.392 1_554 S
C62 N64 1.420 . S
C63 H57 0.930 . S
C63 C59 1.416 . S
C63 C62 1.392 1_556 S
N64 C62 1.420 . S
N64 C65 1.237 1_455 S
C65 N64 1.237 1_655 S
H66 C69 0.929 . S
H67 C72 0.929 . S
H68 C74 0.930 . S
C69 H66 0.929 . S
C69 C70 1.395 1_564 S
C69 C71 1.394 1_565 S
C70 C69 1.395 1_546 S
C70 C74 1.416 . S
C71 C69 1.394 1_545 S
C71 C72 1.398 . S
C72 H67 0.929 . S
C72 C71 1.398 . S
C72 C73 1.382 . S
C73 C72 1.382 . S
C73 C74 1.392 1_554 S
C73 N75 1.420 . S
C74 H68 0.930 . S
C74 C70 1.416 . S
C74 C73 1.392 1_556 S
N75 C73 1.420 . S
N75 C76 1.237 1_545 S
C76 N75 1.237 1_565 S
H77 C80 0.929 . S
H78 C83 0.929 . S
H79 C85 0.930 . S
C80 H77 0.929 . S
C80 C81 1.398 1_554 S
C80 C82 1.396 . S
C81 C80 1.398 1_556 S
C81 C85 1.407 . S
C82 C80 1.396 . S
C82 C83 1.394 . S
C83 H78 0.929 . S
C83 C82 1.394 . S
C83 C84 1.382 . S
C84 C83 1.382 . S
C84 C85 1.392 1_554 S
C84 N86 1.420 . S
C85 H79 0.930 . S
C85 C81 1.407 . S
C85 C84 1.392 1_556 S
N86 C84 1.420 . S
N86 C87 1.244 . S
C87 N86 1.244 . S
Pr88 C90 2.880 . S
Pr88 O108 2.562 . S
Pr88 O109 2.490 . S
Pr88 O110 2.695 1_565 S
Pr88 O111 2.512 . S
Pr88 O113 2.437 . S
Pr88 O116 2.436 1_455 S
Pr88 O118 2.438 1_565 S
Pr89 C99 2.880 . S
Pr89 O110 2.436 1_655 S
Pr89 O112 2.438 1_545 S
Pr89 O114 2.562 . S
Pr89 O115 2.490 . S
Pr89 O116 2.695 1_545 S
Pr89 O117 2.512 . S
Pr89 O119 2.437 . S
C90 Pr88 2.880 . S
C90 C91 1.491 1_556 S
C90 O108 1.254 . S
C90 O109 1.225 . S
C91 C90 1.491 1_554 S
C91 C92 1.392 . S
C91 C96 1.356 . S
C92 C91 1.392 . S
C92 C93 1.368 . S
C92 H120 0.929 1_554 S
C93 C92 1.368 . S
C93 C94 1.386 . S
C93 H121 0.929 . S
C94 C93 1.386 . S
C94 C95 1.373 . S
C95 C94 1.373 . S
C95 C96 1.409 . S
C95 H122 0.931 1_455 S
C96 C91 1.356 . S
C96 C95 1.409 . S
C96 H123 0.930 1_455 S
C97 O110 1.270 1_565 S
C97 O111 1.248 . S
C98 O112 1.267 . S
C98 O113 1.278 1_655 S
C99 Pr89 2.880 . S
C99 C100 1.491 . S
C99 O114 1.254 . S
C99 O115 1.225 . S
C100 C99 1.491 . S
C100 C101 1.392 . S
C100 C105 1.356 . S
C101 C100 1.392 . S
C101 C102 1.368 . S
C101 H124 0.929 . S
C102 C101 1.368 . S
C102 C103 1.386 . S
C102 H125 0.929 . S
C103 C102 1.386 . S
C103 C104 1.373 . S
C104 C103 1.373 . S
C104 C105 1.409 . S
C104 H126 0.931 1_655 S
C105 C100 1.356 . S
C105 C104 1.409 . S
C105 H127 0.930 1_655 S
C106 O116 1.270 1_545 S
C106 O117 1.248 . S
C107 O118 1.267 . S
C107 O119 1.278 1_455 S
O108 Pr88 2.562 . S
O108 C90 1.254 . S
O109 Pr88 2.490 . S
O109 C90 1.225 . S
O110 Pr88 2.695 1_545 S
O110 Pr89 2.436 1_455 S
O110 C97 1.270 1_545 S
O111 Pr88 2.512 . S
O111 C97 1.248 . S
O112 Pr89 2.438 1_565 S
O112 C98 1.267 . S
O113 Pr88 2.437 . S
O113 C98 1.278 1_455 S
O114 Pr89 2.562 . S
O114 C99 1.254 . S
O115 Pr89 2.490 . S
O115 C99 1.225 . S
O116 Pr88 2.436 1_655 S
O116 Pr89 2.695 1_565 S
O116 C106 1.270 1_565 S
O117 Pr89 2.512 . S
O117 C106 1.248 . S
O118 Pr88 2.438 1_545 S
O118 C107 1.267 . S
O119 Pr89 2.437 . S
O119 C107 1.278 1_655 S
H120 C92 0.929 1_556 S
H121 C93 0.929 . S
H122 C95 0.931 1_655 S
H123 C96 0.930 1_655 S
H124 C101 0.929 . S
H125 C102 0.929 . S
H126 C104 0.931 1_455 S
H127 C105 0.930 1_455 S
Pr128 C130 2.880 . S
Pr128 O148 2.562 . S
Pr128 O149 2.490 . S
Pr128 O150 2.695 . S
Pr128 O151 2.512 . S
Pr128 O153 2.437 . S
Pr128 O156 2.436 1_545 S
Pr128 O158 2.438 . S
Pr129 C139 2.880 . S
Pr129 O150 2.436 1_565 S
Pr129 O152 2.438 . S
Pr129 O154 2.562 . S
Pr129 O155 2.490 . S
Pr129 O156 2.695 . S
Pr129 O157 2.512 . S
Pr129 O159 2.437 . S
C130 Pr128 2.880 . S
C130 C131 1.491 1_556 S
C130 O148 1.254 . S
C130 O149 1.225 . S
C131 C130 1.491 1_554 S
C131 C132 1.392 . S
C131 C136 1.356 . S
C132 C131 1.392 . S
C132 C133 1.368 . S
C132 H160 0.929 1_554 S
C133 C132 1.368 . S
C133 C134 1.386 . S
C133 H161 0.929 . S
C134 C133 1.386 . S
C134 C135 1.373 . S
C135 C134 1.373 . S
C135 C136 1.409 . S
C135 H162 0.931 1_545 S
C136 C131 1.356 . S
C136 C135 1.409 . S
C136 H163 0.930 1_545 S
C137 O150 1.270 . S
C137 O151 1.248 . S
C138 O152 1.267 . S
C138 O153 1.278 1_565 S
C139 Pr129 2.880 . S
C139 C140 1.491 . S
C139 O154 1.254 . S
C139 O155 1.225 . S
C140 C139 1.491 . S
C140 C141 1.392 . S
C140 C145 1.356 . S
C141 C140 1.392 . S
C141 C142 1.368 . S
C141 H164 0.929 . S
C142 C141 1.368 . S
C142 C143 1.386 . S
C142 H165 0.929 . S
C143 C142 1.386 . S
C143 C144 1.373 . S
C144 C143 1.373 . S
C144 C145 1.409 . S
C144 H166 0.931 1_565 S
C145 C140 1.356 . S
C145 C144 1.409 . S
C145 H167 0.930 1_565 S
C146 O156 1.270 . S
C146 O157 1.248 . S
C147 O158 1.267 . S
C147 O159 1.278 1_545 S
O148 Pr128 2.562 . S
O148 C130 1.254 . S
O149 Pr128 2.490 . S
O149 C130 1.225 . S
O150 Pr128 2.695 . S
O150 Pr129 2.436 1_545 S
O150 C137 1.270 . S
O151 Pr128 2.512 . S
O151 C137 1.248 . S
O152 Pr129 2.438 . S
O152 C138 1.267 . S
O153 Pr128 2.437 . S
O153 C138 1.278 1_545 S
O154 Pr129 2.562 . S
O154 C139 1.254 . S
O155 Pr129 2.490 . S
O155 C139 1.225 . S
O156 Pr128 2.436 1_565 S
O156 Pr129 2.695 . S
O156 C146 1.270 . S
O157 Pr129 2.512 . S
O157 C146 1.248 . S
O158 Pr128 2.438 . S
O158 C147 1.267 . S
O159 Pr129 2.437 . S
O159 C147 1.278 1_565 S
H160 C132 0.929 1_556 S
H161 C133 0.929 . S
H162 C135 0.931 1_565 S
H163 C136 0.930 1_565 S
H164 C141 0.929 . S
H165 C142 0.929 . S
H166 C144 0.931 1_545 S
H167 C145 0.930 1_545 S
Pr168 C170 2.880 . S
Pr168 O188 2.562 . S
Pr168 O189 2.490 . S
Pr168 O190 2.695 . S
Pr168 O191 2.512 . S
Pr168 O193 2.437 . S
Pr168 O196 2.436 . S
Pr168 O198 2.438 . S
Pr169 C179 2.880 . S
Pr169 O190 2.436 . S
Pr169 O192 2.438 . S
Pr169 O194 2.562 . S
Pr169 O195 2.490 . S
Pr169 O196 2.695 . S
Pr169 O197 2.512 . S
Pr169 O199 2.437 . S
C170 Pr168 2.880 . S
C170 C171 1.491 1_556 S
C170 O188 1.254 . S
C170 O189 1.225 . S
C171 C170 1.491 1_554 S
C171 C172 1.392 . S
C171 C176 1.356 . S
C172 C171 1.392 . S
C172 C173 1.368 . S
C172 H200 0.929 1_554 S
C173 C172 1.368 . S
C173 C174 1.386 . S
C173 H201 0.929 . S
C174 C173 1.386 . S
C174 C175 1.373 . S
C175 C174 1.373 . S
C175 C176 1.409 . S
C175 H202 0.931 . S
C176 C171 1.356 . S
C176 C175 1.409 . S
C176 H203 0.930 . S
C177 O190 1.270 . S
C177 O191 1.248 . S
C178 O192 1.267 . S
C178 O193 1.278 . S
C179 Pr169 2.880 . S
C179 C180 1.491 . S
C179 O194 1.254 . S
C179 O195 1.225 . S
C180 C179 1.491 . S
C180 C181 1.392 . S
C180 C185 1.356 . S
C181 C180 1.392 . S
C181 C182 1.368 . S
C181 H204 0.929 . S
C182 C181 1.368 . S
C182 C183 1.386 . S
C182 H205 0.929 . S
C183 C182 1.386 . S
C183 C184 1.373 . S
C184 C183 1.373 . S
C184 C185 1.409 . S
C184 H206 0.931 . S
C185 C180 1.356 . S
C185 C184 1.409 . S
C185 H207 0.930 . S
C186 O196 1.270 . S
C186 O197 1.248 . S
C187 O198 1.267 . S
C187 O199 1.278 . S
O188 Pr168 2.562 . S
O188 C170 1.254 . S
O189 Pr168 2.490 . S
O189 C170 1.225 . S
O190 Pr168 2.695 . S
O190 Pr169 2.436 . S
O190 C177 1.270 . S
O191 Pr168 2.512 . S
O191 C177 1.248 . S
O192 Pr169 2.438 . S
O192 C178 1.267 . S
O193 Pr168 2.437 . S
O193 C178 1.278 . S
O194 Pr169 2.562 . S
O194 C179 1.254 . S
O195 Pr169 2.490 . S
O195 C179 1.225 . S
O196 Pr168 2.436 . S
O196 Pr169 2.695 . S
O196 C186 1.270 . S
O197 Pr169 2.512 . S
O197 C186 1.248 . S
O198 Pr168 2.438 . S
O198 C187 1.267 . S
O199 Pr169 2.437 . S
O199 C187 1.278 . S
H200 C172 0.929 1_556 S
H201 C173 0.929 . S
H202 C175 0.931 . S
H203 C176 0.930 . S
H204 C181 0.929 . S
H205 C182 0.929 . S
H206 C184 0.931 . S
H207 C185 0.930 . S
Pr208 C210 2.880 . S
Pr208 O228 2.562 . S
Pr208 O229 2.490 . S
Pr208 O230 2.695 1_655 S
Pr208 O231 2.512 . S
Pr208 O233 2.437 . S
Pr208 O236 2.436 . S
Pr208 O238 2.438 1_655 S
Pr209 C219 2.880 . S
Pr209 O230 2.436 . S
Pr209 O232 2.438 1_455 S
Pr209 O234 2.562 . S
Pr209 O235 2.490 . S
Pr209 O236 2.695 1_455 S
Pr209 O237 2.512 . S
Pr209 O239 2.437 . S
C210 Pr208 2.880 . S
C210 C211 1.491 1_556 S
C210 O228 1.254 . S
C210 O229 1.225 . S
C211 C210 1.491 1_554 S
C211 C212 1.392 . S
C211 C216 1.356 . S
C212 C211 1.392 . S
C212 C213 1.368 . S
C212 H240 0.929 1_554 S
C213 C212 1.368 . S
C213 C214 1.386 . S
C213 H241 0.929 . S
C214 C213 1.386 . S
C214 C215 1.373 . S
C215 C214 1.373 . S
C215 C216 1.409 . S
C215 H242 0.931 . S
C216 C211 1.356 . S
C216 C215 1.409 . S
C216 H243 0.930 . S
C217 O230 1.259 1_655 S
C217 O231 1.268 . S
C218 O232 1.267 . S
C218 O233 1.278 . S
C219 Pr209 2.880 . S
C219 C220 1.491 . S
C219 O234 1.254 . S
C219 O235 1.225 . S
C220 C219 1.491 . S
C220 C221 1.392 . S
C220 C225 1.356 . S
C221 C220 1.392 . S
C221 C222 1.368 . S
C221 H244 0.929 . S
C222 C221 1.368 . S
C222 C223 1.386 . S
C222 H245 0.929 . S
C223 C222 1.386 . S
C223 C224 1.373 . S
C224 C223 1.373 . S
C224 C225 1.409 . S
C224 H246 0.931 . S
C225 C220 1.356 . S
C225 C224 1.409 . S
C225 H247 0.930 . S
C226 O236 1.270 1_455 S
C226 O237 1.248 . S
C227 O238 1.267 . S
C227 O239 1.278 . S
O228 Pr208 2.562 . S
O228 C210 1.254 . S
O229 Pr208 2.490 . S
O229 C210 1.225 . S
O230 Pr208 2.695 1_455 S
O230 Pr209 2.436 . S
O230 C217 1.259 1_455 S
O231 Pr208 2.512 . S
O231 C217 1.268 . S
O232 Pr209 2.438 1_655 S
O232 C218 1.267 . S
O233 Pr208 2.437 . S
O233 C218 1.278 . S
O234 Pr209 2.562 . S
O234 C219 1.254 . S
O235 Pr209 2.490 . S
O235 C219 1.225 . S
O236 Pr208 2.436 . S
O236 Pr209 2.695 1_655 S
O236 C226 1.270 1_655 S
O237 Pr209 2.512 . S
O237 C226 1.248 . S
O238 Pr208 2.438 1_455 S
O238 C227 1.267 . S
O239 Pr209 2.437 . S
O239 C227 1.278 . S
H240 C212 0.929 1_556 S
H241 C213 0.929 . S
H242 C215 0.931 . S
H243 C216 0.930 . S
H244 C221 0.929 . S
H245 C222 0.929 . S
H246 C224 0.931 . S
H247 C225 0.930 . S
H248 C256 0.950 . S
H249 C261 0.950 . S
H250 C258 0.950 . S
H251 C260 0.950 . S
H252 C262 0.950 . S
H253 C264 0.953 . S
H254 C266 0.950 . S
H255 C267 0.950 . S
C256 H248 0.950 . S
C256 C257 1.384 1_545 S
C256 C258 1.391 . S
C257 C256 1.384 1_565 S
C257 C261 1.396 . S
C258 H250 0.950 . S
C258 C256 1.391 . S
C258 C259 1.400 . S
C259 C258 1.400 . S
C259 C260 1.398 1_545 S
C259 C265 1.491 . S
C260 H251 0.950 . S
C260 C259 1.398 1_565 S
C260 C261 1.391 . S
C261 H249 0.950 . S
C261 C257 1.396 . S
C261 C260 1.391 . S
C262 H252 0.950 . S
C262 C263 1.386 1_565 S
C262 C264 1.391 . S
C263 C262 1.386 1_545 S
C263 C267 1.393 . S
C264 H253 0.953 . S
C264 C262 1.391 . S
C264 C265 1.399 1_565 S
C265 C259 1.491 . S
C265 C264 1.399 1_545 S
C265 C266 1.398 . S
C266 H254 0.950 . S
C266 C265 1.398 . S
C266 C267 1.391 . S
C267 H255 0.950 . S
C267 C263 1.393 . S
C267 C266 1.391 . S
H268 C276 0.950 . S
H269 C281 0.950 . S
H270 C278 0.950 . S
H271 C280 0.950 . S
H272 C282 0.950 . S
H273 C284 0.950 . S
H274 C286 0.950 . S
H275 C287 0.950 . S
C276 H268 0.950 . S
C276 C277 1.386 . S
C276 C278 1.391 . S
C277 C276 1.386 . S
C277 C281 1.393 . S
C278 H270 0.950 . S
C278 C276 1.391 . S
C278 C279 1.400 . S
C279 C278 1.400 . S
C279 C280 1.398 . S
C279 C285 1.491 . S
C280 H271 0.950 . S
C280 C279 1.398 . S
C280 C281 1.391 . S
C281 H269 0.950 . S
C281 C277 1.393 . S
C281 C280 1.391 . S
C282 H272 0.950 . S
C282 C283 1.386 . S
C282 C284 1.391 . S
C283 C282 1.386 . S
C283 C287 1.393 . S
C284 H273 0.950 . S
C284 C282 1.391 . S
C284 C285 1.400 . S
C285 C279 1.491 . S
C285 C284 1.400 . S
C285 C286 1.398 . S
C286 H274 0.950 . S
C286 C285 1.398 . S
C286 C287 1.391 . S
C287 H275 0.950 . S
C287 C283 1.393 . S
C287 C286 1.391 . S
H288 C296 0.950 . S
H289 C301 0.950 . S
H290 C298 0.950 . S
H291 C300 0.950 . S
H292 C302 0.950 . S
H293 C304 0.950 . S
H294 C306 0.950 . S
H295 C307 0.950 . S
C296 H288 0.950 . S
C296 C297 1.386 . S
C296 C298 1.391 . S
C297 C296 1.386 . S
C297 C301 1.393 . S
C298 H290 0.950 . S
C298 C296 1.391 . S
C298 C299 1.400 . S
C299 C298 1.400 . S
C299 C300 1.398 . S
C299 C305 1.491 . S
C300 H291 0.950 . S
C300 C299 1.398 . S
C300 C301 1.391 . S
C301 H289 0.950 . S
C301 C297 1.393 . S
C301 C300 1.391 . S
C302 H292 0.950 . S
C302 C303 1.386 . S
C302 C304 1.391 . S
C303 C302 1.386 . S
C303 C307 1.393 . S
C304 H293 0.950 . S
C304 C302 1.391 . S
C304 C305 1.400 . S
C305 C299 1.491 . S
C305 C304 1.400 . S
C305 C306 1.398 . S
C306 H294 0.950 . S
C306 C305 1.398 . S
C306 C307 1.391 . S
C307 H295 0.950 . S
C307 C303 1.393 . S
C307 C306 1.391 . S
H308 C316 0.950 . S
H309 C321 0.950 . S
H310 C318 0.950 . S
H311 C320 0.950 . S
H312 C322 0.950 . S
H313 C324 0.950 . S
H314 C326 0.950 . S
H315 C327 0.950 . S
C316 H308 0.950 . S
C316 C317 1.408 . S
C316 C318 1.391 . S
C317 C316 1.408 . S
C317 C321 1.371 1_455 S
C318 H310 0.950 . S
C318 C316 1.391 . S
C318 C319 1.436 . S
C319 C318 1.436 . S
C319 C320 1.364 1_455 S
C319 C325 1.491 . S
C320 H311 0.950 . S
C320 C319 1.364 1_655 S
C320 C321 1.391 . S
C321 H309 0.950 . S
C321 C317 1.371 1_655 S
C321 C320 1.391 . S
C322 H312 0.950 . S
C322 C323 1.386 1_655 S
C322 C324 1.391 . S
C323 C322 1.386 1_455 S
C323 C327 1.393 . S
C324 H313 0.950 . S
C324 C322 1.391 . S
C324 C325 1.370 1_655 S
C325 C319 1.491 . S
C325 C324 1.370 1_455 S
C325 C326 1.429 . S
C326 H314 0.950 . S
C326 C325 1.429 . S
C326 C327 1.391 . S
C327 H315 0.950 . S
C327 C323 1.393 . S
C327 C326 1.391 . S
H328 C336 0.950 . S
H329 C341 0.950 . S
H330 C338 0.949 . S
H331 C340 0.950 . S
H332 C342 0.950 . S
H333 C344 0.949 . S
H334 C346 0.950 . S
H335 C347 0.950 . S
C336 H328 0.950 . S
C336 C337 1.385 . S
C336 C338 1.391 1_545 S
C337 C336 1.385 . S
C337 C341 1.395 . S
C338 H330 0.949 . S
C338 C336 1.391 1_565 S
C338 C339 1.400 1_565 S
C339 C338 1.400 1_545 S
C339 C340 1.398 . S
C339 C345 1.489 1_545 S
C340 H331 0.950 . S
C340 C339 1.398 . S
C340 C341 1.391 . S
C341 H329 0.950 . S
C341 C337 1.395 . S
C341 C340 1.391 . S
C342 H332 0.950 . S
C342 C343 1.386 1_554 S
C342 C344 1.392 . S
C343 C342 1.386 1_556 S
C343 C347 1.393 . S
C344 H333 0.949 . S
C344 C342 1.392 . S
C344 C345 1.400 . S
C345 C339 1.489 1_565 S
C345 C344 1.400 . S
C345 C346 1.402 1_554 S
C346 H334 0.950 . S
C346 C345 1.402 1_556 S
C346 C347 1.391 . S
C347 H335 0.950 . S
C347 C343 1.393 . S
C347 C346 1.391 . S
H348 C356 0.950 . S
H349 C361 0.950 . S
H350 C358 0.950 . S
H351 C360 0.950 . S
H352 C362 0.950 . S
H353 C364 0.950 . S
H354 C366 0.950 . S
H355 C367 0.950 . S
C356 H348 0.950 . S
C356 C357 1.386 . S
C356 C358 1.391 . S
C357 C356 1.386 . S
C357 C361 1.393 . S
C358 H350 0.950 . S
C358 C356 1.391 . S
C358 C359 1.400 . S
C359 C358 1.400 . S
C359 C360 1.398 . S
C359 C365 1.491 . S
C360 H351 0.950 . S
C360 C359 1.398 . S
C360 C361 1.391 . S
C361 H349 0.950 . S
C361 C357 1.393 . S
C361 C360 1.391 . S
C362 H352 0.950 . S
C362 C363 1.386 . S
C362 C364 1.391 1_556 S
C363 C362 1.386 . S
C363 C367 1.393 . S
C364 H353 0.950 . S
C364 C362 1.391 1_554 S
C364 C365 1.400 . S
C365 C359 1.491 . S
C365 C364 1.400 . S
C365 C366 1.398 . S
C366 H354 0.950 . S
C366 C365 1.398 . S
C366 C367 1.391 1_554 S
C367 H355 0.950 . S
C367 C363 1.393 . S
C367 C366 1.391 1_556 S
H368 C376 0.950 . S
H369 C381 0.950 . S
H370 C378 0.950 . S
H371 C380 0.950 . S
H372 C382 0.950 . S
H373 C384 0.950 . S
H374 C386 0.950 . S
H375 C387 0.950 . S
C376 H368 0.950 . S
C376 C377 1.386 . S
C376 C378 1.391 . S
C377 C376 1.386 . S
C377 C381 1.393 . S
C378 H370 0.950 . S
C378 C376 1.391 . S
C378 C379 1.400 . S
C379 C378 1.400 . S
C379 C380 1.398 . S
C379 C385 1.491 . S
C380 H371 0.950 . S
C380 C379 1.398 . S
C380 C381 1.391 . S
C381 H369 0.950 . S
C381 C377 1.393 . S
C381 C380 1.391 . S
C382 H372 0.950 . S
C382 C383 1.386 . S
C382 C384 1.391 . S
C383 C382 1.386 . S
C383 C387 1.393 1_556 S
C384 H373 0.950 . S
C384 C382 1.391 . S
C384 C385 1.400 1_556 S
C385 C379 1.491 . S
C385 C384 1.400 1_554 S
C385 C386 1.398 . S
C386 H374 0.950 . S
C386 C385 1.398 . S
C386 C387 1.391 . S
C387 H375 0.950 . S
C387 C383 1.393 1_554 S
C387 C386 1.391 . S
H388 C396 0.950 . S
H389 C401 0.950 . S
H390 C398 0.950 . S
H391 C400 0.950 . S
H392 C402 0.950 . S
H393 C404 0.950 . S
H394 C406 0.950 . S
H395 C407 0.950 . S
C396 H388 0.950 . S
C396 C397 1.381 1_455 S
C396 C398 1.391 . S
C397 C396 1.381 1_655 S
C397 C401 1.397 . S
C398 H390 0.950 . S
C398 C396 1.391 . S
C398 C399 1.372 1_455 S
C399 C398 1.372 1_655 S
C399 C400 1.426 . S
C399 C405 1.491 . S
C400 H391 0.950 . S
C400 C399 1.426 . S
C400 C401 1.391 . S
C401 H389 0.950 . S
C401 C397 1.397 . S
C401 C400 1.391 . S
C402 H392 0.950 . S
C402 C403 1.386 . S
C402 C404 1.391 1_556 S
C403 C402 1.386 . S
C403 C407 1.393 1_655 S
C404 H393 0.950 . S
C404 C402 1.391 1_554 S
C404 C405 1.400 . S
C405 C399 1.491 . S
C405 C404 1.400 . S
C405 C406 1.398 1_655 S
C406 H394 0.950 . S
C406 C405 1.398 1_455 S
C406 C407 1.391 1_554 S
C407 H395 0.950 . S
C407 C403 1.393 1_455 S
C407 C406 1.391 1_556 S
H408 C416 0.950 . S
H409 C421 0.950 . S
H410 C418 0.950 . S
H411 C420 0.959 . S
H412 C422 0.950 . S
H413 C424 0.950 . S
H414 C426 0.950 . S
H415 C427 0.950 . S
C416 H408 0.950 . S
C416 C417 1.386 1_655 S
C416 C418 1.391 . S
C417 C416 1.386 1_455 S
C417 C421 1.393 . S
C418 H410 0.950 . S
C418 C416 1.391 . S
C418 C419 1.400 . S
C419 C418 1.400 . S
C419 C420 1.380 1_655 S
C419 C425 1.491 . S
C420 H411 0.959 . S
C420 C419 1.380 1_455 S
C420 C421 1.401 . S
C421 H409 0.950 . S
C421 C417 1.393 . S
C421 C420 1.401 . S
C422 H412 0.950 . S
C422 C423 1.386 . S
C422 C424 1.391 . S
C423 C422 1.386 . S
C423 C427 1.393 . S
C424 H413 0.950 . S
C424 C422 1.391 . S
C424 C425 1.400 . S
C425 C419 1.491 . S
C425 C424 1.400 . S
C425 C426 1.398 . S
C426 H414 0.950 . S
C426 C425 1.398 . S
C426 C427 1.391 . S
C427 H415 0.950 . S
C427 C423 1.393 . S
C427 C426 1.391 . S
H428 C436 0.950 . S
H429 C441 0.950 . S
H430 C438 0.950 . S
H431 C440 0.950 . S
H432 C442 0.950 . S
H433 C444 0.950 . S
H434 C446 0.950 1_545 S
H435 C447 0.950 . S
C436 H428 0.950 . S
C436 C437 1.386 . S
C436 C438 1.391 . S
C437 C436 1.386 . S
C437 C441 1.393 1_545 S
C438 H430 0.950 . S
C438 C436 1.391 . S
C438 C439 1.400 1_545 S
C439 C438 1.400 1_565 S
C439 C440 1.398 . S
C439 C445 1.491 . S
C440 H431 0.950 . S
C440 C439 1.398 . S
C440 C441 1.391 . S
C441 H429 0.950 . S
C441 C437 1.393 1_565 S
C441 C440 1.391 . S
C442 H432 0.950 . S
C442 C443 1.386 . S
C442 C444 1.391 . S
C443 C442 1.386 . S
C443 C447 1.393 . S
C444 H433 0.950 . S
C444 C442 1.391 . S
C444 C445 1.400 . S
C445 C439 1.491 . S
C445 C444 1.400 . S
C445 C446 1.398 . S
C446 H434 0.950 1_565 S
C446 C445 1.398 . S
C446 C447 1.391 . S
C447 H435 0.950 . S
C447 C443 1.393 . S
C447 C446 1.391 . S
H448 C456 0.950 . S
H449 C461 0.950 . S
H450 C458 0.950 . S
H451 C460 0.950 . S
H452 C462 0.950 . S
H453 C464 0.950 . S
H454 C466 0.950 . S
H455 C467 0.950 . S
C456 H448 0.950 . S
C456 C457 1.386 . S
C456 C458 1.391 . S
C457 C456 1.386 . S
C457 C461 1.393 . S
C458 H450 0.950 . S
C458 C456 1.391 . S
C458 C459 1.400 . S
C459 C458 1.400 . S
C459 C460 1.398 . S
C459 C465 1.491 . S
C460 H451 0.950 . S
C460 C459 1.398 . S
C460 C461 1.391 . S
C461 H449 0.950 . S
C461 C457 1.393 . S
C461 C460 1.391 . S
C462 H452 0.950 . S
C462 C463 1.386 . S
C462 C464 1.391 . S
C463 C462 1.386 . S
C463 C467 1.393 . S
C464 H453 0.950 . S
C464 C462 1.391 . S
C464 C465 1.400 . S
C465 C459 1.491 . S
C465 C464 1.400 . S
C465 C466 1.398 . S
C466 H454 0.950 . S
C466 C465 1.398 . S
C466 C467 1.391 . S
C467 H455 0.950 . S
C467 C463 1.393 . S
C467 C466 1.391 . S
H468 C476 0.950 . S
H469 C481 0.950 . S
H470 C478 0.950 . S
H471 C480 0.950 . S
H472 C482 0.950 . S
H473 C484 0.950 . S
H474 C486 0.950 . S
H475 C487 0.950 . S
C476 H468 0.950 . S
C476 C477 1.386 . S
C476 C478 1.391 . S
C477 C476 1.386 . S
C477 C481 1.393 . S
C478 H470 0.950 . S
C478 C476 1.391 . S
C478 C479 1.400 . S
C479 C478 1.400 . S
C479 C480 1.398 . S
C479 C485 1.491 . S
C480 H471 0.950 . S
C480 C479 1.398 . S
C480 C481 1.391 . S
C481 H469 0.950 . S
C481 C477 1.393 . S
C481 C480 1.391 . S
C482 H472 0.950 . S
C482 C483 1.386 . S
C482 C484 1.391 . S
C483 C482 1.386 . S
C483 C487 1.393 . S
C484 H473 0.950 . S
C484 C482 1.391 . S
C484 C485 1.400 . S
C485 C479 1.491 . S
C485 C484 1.400 . S
C485 C486 1.398 . S
C486 H474 0.950 . S
C486 C485 1.398 . S
C486 C487 1.391 . S
C487 H475 0.950 . S
C487 C483 1.393 . S
C487 C486 1.391 . S
H488 C496 0.950 . S
H489 C501 0.950 . S
H490 C498 0.950 . S
H491 C500 0.950 . S
H492 C502 0.950 . S
H493 C504 0.950 . S
H494 C506 0.950 1_655 S
H495 C507 0.950 . S
C496 H488 0.950 . S
C496 C497 1.386 . S
C496 C498 1.391 . S
C497 C496 1.386 . S
C497 C501 1.393 1_655 S
C498 H490 0.950 . S
C498 C496 1.391 . S
C498 C499 1.400 1_655 S
C499 C498 1.400 1_455 S
C499 C500 1.398 . S
C499 C505 1.491 . S
C500 H491 0.950 . S
C500 C499 1.398 . S
C500 C501 1.391 . S
C501 H489 0.950 . S
C501 C497 1.393 1_455 S
C501 C500 1.391 . S
C502 H492 0.950 . S
C502 C503 1.386 . S
C502 C504 1.391 . S
C503 C502 1.386 . S
C503 C507 1.393 . S
C504 H493 0.950 . S
C504 C502 1.391 . S
C504 C505 1.400 . S
C505 C499 1.491 . S
C505 C504 1.400 . S
C505 C506 1.398 . S
C506 H494 0.950 1_455 S
C506 C505 1.398 . S
C506 C507 1.391 . S
C507 H495 0.950 . S
C507 C503 1.393 . S
C507 C506 1.391 . S
H508 C516 0.950 . S
H509 C521 0.950 . S
H510 C518 0.950 . S
H511 C520 0.950 . S
H512 C522 0.950 . S
H513 C524 0.950 . S
H514 C526 0.950 1_565 S
H515 C527 0.950 . S
C516 H508 0.950 . S
C516 C517 1.386 . S
C516 C518 1.391 . S
C517 C516 1.386 . S
C517 C521 1.393 1_565 S
C518 H510 0.950 . S
C518 C516 1.391 . S
C518 C519 1.400 1_565 S
C519 C518 1.400 1_545 S
C519 C520 1.398 . S
C519 C525 1.491 . S
C520 H511 0.950 . S
C520 C519 1.398 . S
C520 C521 1.391 . S
C521 H509 0.950 . S
C521 C517 1.393 1_545 S
C521 C520 1.391 . S
C522 H512 0.950 . S
C522 C523 1.386 . S
C522 C524 1.391 . S
C523 C522 1.386 . S
C523 C527 1.393 . S
C524 H513 0.950 . S
C524 C522 1.391 . S
C524 C525 1.400 . S
C525 C519 1.491 . S
C525 C524 1.400 . S
C525 C526 1.398 . S
C526 H514 0.950 1_545 S
C526 C525 1.398 . S
C526 C527 1.391 . S
C527 H515 0.950 . S
C527 C523 1.393 . S
C527 C526 1.391 . S
H528 C536 0.950 . S
H529 C541 0.950 . S
H530 C538 0.950 . S
H531 C540 0.950 . S
H532 C542 0.950 . S
H533 C544 0.950 . S
H534 C546 0.950 . S
H535 C547 0.950 . S
C536 H528 0.950 . S
C536 C537 1.386 . S
C536 C538 1.391 . S
C537 C536 1.386 . S
C537 C541 1.393 . S
C538 H530 0.950 . S
C538 C536 1.391 . S
C538 C539 1.400 . S
C539 C538 1.400 . S
C539 C540 1.398 . S
C539 C545 1.491 . S
C540 H531 0.950 . S
C540 C539 1.398 . S
C540 C541 1.391 . S
C541 H529 0.950 . S
C541 C537 1.393 . S
C541 C540 1.391 . S
C542 H532 0.950 . S
C542 C543 1.386 . S
C542 C544 1.391 . S
C543 C542 1.386 . S
C543 C547 1.393 . S
C544 H533 0.950 . S
C544 C542 1.391 . S
C544 C545 1.400 . S
C545 C539 1.491 . S
C545 C544 1.400 . S
C545 C546 1.398 . S
C546 H534 0.950 . S
C546 C545 1.398 . S
C546 C547 1.391 . S
C547 H535 0.950 . S
C547 C543 1.393 . S
C547 C546 1.391 . S
H548 C556 0.950 . S
H549 C561 0.950 . S
H550 C558 0.950 . S
H551 C560 0.950 . S
H552 C562 0.950 . S
H553 C564 0.950 . S
H554 C566 0.950 . S
H555 C567 0.950 . S
C556 H548 0.950 . S
C556 C557 1.386 . S
C556 C558 1.391 . S
C557 C556 1.386 . S
C557 C561 1.393 . S
C558 H550 0.950 . S
C558 C556 1.391 . S
C558 C559 1.400 . S
C559 C558 1.400 . S
C559 C560 1.398 . S
C559 C565 1.491 . S
C560 H551 0.950 . S
C560 C559 1.398 . S
C560 C561 1.391 . S
C561 H549 0.950 . S
C561 C557 1.393 . S
C561 C560 1.391 . S
C562 H552 0.950 . S
C562 C563 1.386 . S
C562 C564 1.391 . S
C563 C562 1.386 . S
C563 C567 1.393 . S
C564 H553 0.950 . S
C564 C562 1.391 . S
C564 C565 1.400 . S
C565 C559 1.491 . S
C565 C564 1.400 . S
C565 C566 1.398 . S
C566 H554 0.950 . S
C566 C565 1.398 . S
C566 C567 1.391 . S
C567 H555 0.950 . S
C567 C563 1.393 . S
C567 C566 1.391 . S
H568 C576 0.950 . S
H569 C581 0.950 . S
H570 C578 0.950 . S
H571 C580 0.950 . S
H572 C582 0.950 . S
H573 C584 0.950 . S
H574 C586 0.950 . S
H575 C587 0.950 . S
C576 H568 0.950 . S
C576 C577 1.386 1_655 S
C576 C578 1.391 . S
C577 C576 1.386 1_455 S
C577 C581 1.393 . S
C578 H570 0.950 . S
C578 C576 1.391 . S
C578 C579 1.400 1_655 S
C579 C578 1.400 1_455 S
C579 C580 1.398 . S
C579 C585 1.491 . S
C580 H571 0.950 . S
C580 C579 1.398 . S
C580 C581 1.391 . S
C581 H569 0.950 . S
C581 C577 1.393 . S
C581 C580 1.391 . S
C582 H572 0.950 . S
C582 C583 1.386 . S
C582 C584 1.391 . S
C583 C582 1.386 . S
C583 C587 1.393 1_455 S
C584 H573 0.950 . S
C584 C582 1.391 . S
C584 C585 1.400 . S
C585 C579 1.491 . S
C585 C584 1.400 . S
C585 C586 1.398 1_455 S
C586 H574 0.950 . S
C586 C585 1.398 1_655 S
C586 C587 1.391 . S
C587 H575 0.950 . S
C587 C583 1.393 1_655 S
C587 C586 1.391 . S
H588 C596 0.950 . S
H589 C601 0.950 . S
H590 C598 0.950 . S
H591 C600 0.950 . S
H592 C602 0.950 . S
H593 C604 0.950 . S
H594 C606 0.950 . S
H595 C607 0.950 . S
C596 H588 0.950 . S
C596 C597 1.386 . S
C596 C598 1.391 . S
C597 C596 1.386 . S
C597 C601 1.393 1_545 S
C598 H590 0.950 . S
C598 C596 1.391 . S
C598 C599 1.400 . S
C599 C598 1.400 . S
C599 C600 1.398 1_545 S
C599 C605 1.491 . S
C600 H591 0.950 . S
C600 C599 1.398 1_565 S
C600 C601 1.391 . S
C601 H589 0.950 . S
C601 C597 1.393 1_565 S
C601 C600 1.391 . S
C602 H592 0.950 . S
C602 C603 1.386 1_565 S
C602 C604 1.391 . S
C603 C602 1.386 1_545 S
C603 C607 1.393 . S
C604 H593 0.950 . S
C604 C602 1.391 . S
C604 C605 1.400 1_565 S
C605 C599 1.491 . S
C605 C604 1.400 1_545 S
C605 C606 1.398 . S
C606 H594 0.950 . S
C606 C605 1.398 . S
C606 C607 1.391 . S
C607 H595 0.950 . S
C607 C603 1.393 . S
C607 C606 1.391 . S
H608 C616 0.950 . S
H609 C621 0.950 . S
H610 C618 0.950 . S
H611 C620 0.950 . S
H612 C622 0.950 . S
H613 C624 0.950 . S
H614 C626 0.950 . S
H615 C627 0.950 . S
C616 H608 0.950 . S
C616 C617 1.386 . S
C616 C618 1.391 . S
C617 C616 1.386 . S
C617 C621 1.393 . S
C618 H610 0.950 . S
C618 C616 1.391 . S
C618 C619 1.400 . S
C619 C618 1.400 . S
C619 C620 1.398 . S
C619 C625 1.491 . S
C620 H611 0.950 . S
C620 C619 1.398 . S
C620 C621 1.391 . S
C621 H609 0.950 . S
C621 C617 1.393 . S
C621 C620 1.391 . S
C622 H612 0.950 . S
C622 C623 1.386 . S
C622 C624 1.391 . S
C623 C622 1.386 . S
C623 C627 1.393 . S
C624 H613 0.950 . S
C624 C622 1.391 . S
C624 C625 1.400 . S
C625 C619 1.491 . S
C625 C624 1.400 . S
C625 C626 1.398 . S
C626 H614 0.950 . S
C626 C625 1.398 . S
C626 C627 1.391 . S
C627 H615 0.950 . S
C627 C623 1.393 . S
C627 C626 1.391 . S
H628 C636 0.950 . S
H629 C641 0.950 1_554 S
H630 C638 0.950 . S
H631 C640 0.950 . S
H632 C642 0.950 . S
H633 C644 0.950 . S
H634 C646 0.950 . S
H635 C647 0.950 . S
C636 H628 0.950 . S
C636 C637 1.386 . S
C636 C638 1.391 . S
C637 C636 1.386 . S
C637 C641 1.393 . S
C638 H630 0.950 . S
C638 C636 1.391 . S
C638 C639 1.400 . S
C639 C638 1.400 . S
C639 C640 1.398 . S
C639 C645 1.491 . S
C640 H631 0.950 . S
C640 C639 1.398 . S
C640 C641 1.391 . S
C641 H629 0.950 1_556 S
C641 C637 1.393 . S
C641 C640 1.391 . S
C642 H632 0.950 . S
C642 C643 1.386 . S
C642 C644 1.391 . S
C643 C642 1.386 . S
C643 C647 1.393 . S
C644 H633 0.950 . S
C644 C642 1.391 . S
C644 C645 1.400 . S
C645 C639 1.491 . S
C645 C644 1.400 . S
C645 C646 1.398 . S
C646 H634 0.950 . S
C646 C645 1.398 . S
C646 C647 1.391 . S
C647 H635 0.950 . S
C647 C643 1.393 . S
C647 C646 1.391 . S
H648 C656 0.950 . S
H649 C661 0.950 . S
H650 C658 0.950 . S
H651 C660 0.950 . S
H652 C662 0.952 . S
H653 C664 0.950 . S
H654 C666 0.950 . S
H655 C667 0.950 . S
C656 H648 0.950 . S
C656 C657 1.386 . S
C656 C658 1.391 . S
C657 C656 1.386 . S
C657 C661 1.393 1_655 S
C658 H650 0.950 . S
C658 C656 1.391 . S
C658 C659 1.400 . S
C659 C658 1.400 . S
C659 C660 1.398 1_655 S
C659 C665 1.491 . S
C660 H651 0.950 . S
C660 C659 1.398 1_455 S
C660 C661 1.391 . S
C661 H649 0.950 . S
C661 C657 1.393 1_455 S
C661 C660 1.391 . S
C662 H652 0.952 . S
C662 C663 1.382 1_455 S
C662 C664 1.392 . S
C663 C662 1.382 1_655 S
C663 C667 1.393 . S
C664 H653 0.950 . S
C664 C662 1.392 . S
C664 C665 1.400 1_455 S
C665 C659 1.491 . S
C665 C664 1.400 1_655 S
C665 C666 1.398 . S
C666 H654 0.950 . S
C666 C665 1.398 . S
C666 C667 1.391 . S
C667 H655 0.950 . S
C667 C663 1.393 . S
C667 C666 1.391 . S
H668 C676 0.950 . S
H669 C681 0.950 . S
H670 C678 0.953 . S
H671 C680 0.950 . S
H672 C682 0.950 . S
H673 C684 0.950 . S
H674 C686 0.950 . S
H675 C687 0.950 . S
C676 H668 0.950 . S
C676 C677 1.380 1_545 S
C676 C678 1.393 . S
C677 C676 1.380 1_565 S
C677 C681 1.403 . S
C678 H670 0.953 . S
C678 C676 1.393 . S
C678 C679 1.395 1_545 S
C679 C678 1.395 1_565 S
C679 C680 1.398 . S
C679 C685 1.491 . S
C680 H671 0.950 . S
C680 C679 1.398 . S
C680 C681 1.391 . S
C681 H669 0.950 . S
C681 C677 1.403 . S
C681 C680 1.391 . S
C682 H672 0.950 . S
C682 C683 1.386 . S
C682 C684 1.391 . S
C683 C682 1.386 . S
C683 C687 1.393 . S
C684 H673 0.950 . S
C684 C682 1.391 . S
C684 C685 1.400 . S
C685 C679 1.491 . S
C685 C684 1.400 . S
C685 C686 1.398 . S
C686 H674 0.950 . S
C686 C685 1.398 . S
C686 C687 1.391 . S
C687 H675 0.950 . S
C687 C683 1.393 . S
C687 C686 1.391 . S
H688 C696 0.950 . S
H689 C701 0.950 . S
H690 C698 0.950 . S
H691 C700 0.950 . S
H692 C702 0.950 . S
H693 C704 0.950 . S
H694 C706 0.950 . S
H695 C707 0.950 . S
C696 H688 0.950 . S
C696 C697 1.386 . S
C696 C698 1.391 . S
C697 C696 1.386 . S
C697 C701 1.393 . S
C698 H690 0.950 . S
C698 C696 1.391 . S
C698 C699 1.400 . S
C699 C698 1.400 . S
C699 C700 1.398 . S
C699 C705 1.491 . S
C700 H691 0.950 . S
C700 C699 1.398 . S
C700 C701 1.391 . S
C701 H689 0.950 . S
C701 C697 1.393 . S
C701 C700 1.391 . S
C702 H692 0.950 . S
C702 C703 1.386 . S
C702 C704 1.391 . S
C703 C702 1.386 . S
C703 C707 1.393 . S
C704 H693 0.950 . S
C704 C702 1.391 . S
C704 C705 1.400 . S
C705 C699 1.491 . S
C705 C704 1.400 . S
C705 C706 1.398 . S
C706 H694 0.950 . S
C706 C705 1.398 . S
C706 C707 1.391 . S
C707 H695 0.950 . S
C707 C703 1.393 . S
C707 C706 1.391 . S
H708 C716 0.950 . S
H709 C721 0.950 . S
H710 C718 0.950 . S
H711 C720 0.950 . S
H712 C722 0.950 . S
H713 C724 0.950 . S
H714 C726 0.950 . S
H715 C727 0.950 . S
C716 H708 0.950 . S
C716 C717 1.386 . S
C716 C718 1.391 . S
C717 C716 1.386 . S
C717 C721 1.393 . S
C718 H710 0.950 . S
C718 C716 1.391 . S
C718 C719 1.400 . S
C719 C718 1.400 . S
C719 C720 1.398 . S
C719 C725 1.491 . S
C720 H711 0.950 . S
C720 C719 1.398 . S
C720 C721 1.391 . S
C721 H709 0.950 . S
C721 C717 1.393 . S
C721 C720 1.391 . S
C722 H712 0.950 . S
C722 C723 1.386 . S
C722 C724 1.391 . S
C723 C722 1.386 . S
C723 C727 1.393 . S
C724 H713 0.950 . S
C724 C722 1.391 . S
C724 C725 1.400 . S
C725 C719 1.491 . S
C725 C724 1.400 . S
C725 C726 1.398 . S
C726 H714 0.950 . S
C726 C725 1.398 . S
C726 C727 1.391 . S
C727 H715 0.950 . S
C727 C723 1.393 . S
C727 C726 1.391 . S
C257 C76 1.814 . S
C263 C97 1.944 1_545 S
C283 C137 1.952 . S
C277 C87 1.834 . S
C303 C177 1.963 . S
C297 C54 1.824 . S
C323 C217 1.944 1_455 S
C317 C65 1.834 1_455 S
C343 C106 1.948 1_565 S
C337 C32 1.822 1_545 S
C357 C43 1.837 . S
C363 C146 1.952 . S
C377 C10 1.823 . S
C383 C186 1.955 . S
C397 C21 1.836 . S
C403 C226 1.950 1_655 S
C423 C103 0.471 . S
C417 C60 0.476 . S
C443 C143 0.511 . S
C437 C71 0.552 . S
C463 C183 0.509 . S
C457 C82 0.490 . S
C477 C49 0.479 . S
C483 C223 0.491 . S
C497 C16 0.496 1_655 S
C503 C94 0.510 . S
C523 C134 0.514 . S
C517 C27 0.498 1_565 S
C543 C174 0.535 . S
C537 C38 0.557 . S
C557 C5 0.482 . S
C563 C214 0.486 . S
C577 C59 2.042 . S
C583 C107 2.271 . S
C597 C70 1.994 . S
C603 C147 2.248 . S
C623 C187 2.240 . S
C617 C81 1.981 . S
C643 C227 2.257 . S
C637 C48 2.003 . S
C657 C15 2.039 1_655 S
C663 C98 2.285 . S
C683 C138 2.256 . S
C677 C26 2.004 1_565 S
C703 C178 2.235 . S
C697 C37 2.015 . S
C717 C4 2.008 . S
C723 C218 2.266 . S
