# Generated by pormake.
# Topology the, (3,8)-cn, num edge types: 1
# Building blocks:
#     Node 0, Type 0, BuildingBlock: BETDAH_clean_linker_0, # of connection points: 3
#     Node 1, Type 0, BuildingBlock: BETDAH_clean_linker_0, # of connection points: 3
#     Node 2, Type 0, BuildingBlock: BETDAH_clean_linker_0, # of connection points: 3
#     Node 3, Type 0, BuildingBlock: BETDAH_clean_linker_0, # of connection points: 3
#     Node 4, Type 0, BuildingBlock: BETDAH_clean_linker_0, # of connection points: 3
#     Node 5, Type 0, BuildingBlock: BETDAH_clean_linker_0, # of connection points: 3
#     Node 6, Type 0, BuildingBlock: BETDAH_clean_linker_0, # of connection points: 3
#     Node 7, Type 0, BuildingBlock: BETDAH_clean_linker_0, # of connection points: 3
#     Node 8, Type 1, BuildingBlock: GIZVER_clean_sbu_0, # of connection points: 8
#     Node 9, Type 1, BuildingBlock: GIZVER_clean_sbu_0, # of connection points: 8
#     Node 10, Type 1, BuildingBlock: GIZVER_clean_sbu_0, # of connection points: 8
#     Edge 11, Type (0, 1), BuildingBlock: OJICUG_clean_linker_0, # of connection points: 2
#     Edge 12, Type (0, 1), BuildingBlock: OJICUG_clean_linker_0, # of connection points: 2
#     Edge 13, Type (0, 1), BuildingBlock: OJICUG_clean_linker_0, # of connection points: 2
#     Edge 14, Type (0, 1), BuildingBlock: OJICUG_clean_linker_0, # of connection points: 2
#     Edge 15, Type (0, 1), BuildingBlock: OJICUG_clean_linker_0, # of connection points: 2
#     Edge 16, Type (0, 1), BuildingBlock: OJICUG_clean_linker_0, # of connection points: 2
#     Edge 17, Type (0, 1), BuildingBlock: OJICUG_clean_linker_0, # of connection points: 2
#     Edge 18, Type (0, 1), BuildingBlock: OJICUG_clean_linker_0, # of connection points: 2
#     Edge 19, Type (0, 1), BuildingBlock: OJICUG_clean_linker_0, # of connection points: 2
#     Edge 20, Type (0, 1), BuildingBlock: OJICUG_clean_linker_0, # of connection points: 2
#     Edge 21, Type (0, 1), BuildingBlock: OJICUG_clean_linker_0, # of connection points: 2
#     Edge 22, Type (0, 1), BuildingBlock: OJICUG_clean_linker_0, # of connection points: 2
#     Edge 23, Type (0, 1), BuildingBlock: OJICUG_clean_linker_0, # of connection points: 2
#     Edge 24, Type (0, 1), BuildingBlock: OJICUG_clean_linker_0, # of connection points: 2
#     Edge 25, Type (0, 1), BuildingBlock: OJICUG_clean_linker_0, # of connection points: 2
#     Edge 26, Type (0, 1), BuildingBlock: OJICUG_clean_linker_0, # of connection points: 2
#     Edge 27, Type (0, 1), BuildingBlock: OJICUG_clean_linker_0, # of connection points: 2
#     Edge 28, Type (0, 1), BuildingBlock: OJICUG_clean_linker_0, # of connection points: 2
#     Edge 29, Type (0, 1), BuildingBlock: OJICUG_clean_linker_0, # of connection points: 2
#     Edge 30, Type (0, 1), BuildingBlock: OJICUG_clean_linker_0, # of connection points: 2
#     Edge 31, Type (0, 1), BuildingBlock: OJICUG_clean_linker_0, # of connection points: 2
#     Edge 32, Type (0, 1), BuildingBlock: OJICUG_clean_linker_0, # of connection points: 2
#     Edge 33, Type (0, 1), BuildingBlock: OJICUG_clean_linker_0, # of connection points: 2
#     Edge 34, Type (0, 1), BuildingBlock: OJICUG_clean_linker_0, # of connection points: 2
# Relax obj value: 0.074
# Max RMSD: 0.201
# Mean RMSD: 0.121
data_MOF--net-the--node1-GIZVER_clean_sbu_0--node2-BETDAH_clean_linker_0--edge1-OJICUG_clean_linker_0
_symmetry_space_group_name_H-M    P1
_symmetry_Int_Tables_number       1
_symmetry_cell_setting            triclinic
loop_
_symmetry_equiv_pos_as_xyz
'x, y, z'
_cell_length_a     30.738314
_cell_length_b     28.717792
_cell_length_c     26.281903
_cell_angle_alpha  85.910161
_cell_angle_beta   97.306718
_cell_angle_gamma 114.00338
loop_
_atom_site_label
_atom_site_type_symbol
_atom_site_fract_x
_atom_site_fract_y
_atom_site_fract_z
_atom_type_partial_charge
H0 H 0.39812 0.28157 0.35814 0.0
H1 H 0.3812 0.29356 0.51585 0.0
H2 H 0.34835 0.39203 0.40119 0.0
C3 C 0.38718 0.2986 0.38692 0.0
C4 C 0.37284 0.33889 0.37311 0.0
C5 C 0.39058 0.28237 0.43836 0.0
C6 C 0.37891 0.30599 0.47602 0.0
C7 C 0.36243 0.34423 0.46273 0.0
C8 C 0.35963 0.36108 0.41126 0.0
N9 N 0.3495 0.36536 0.50225 0.0
C10 C 0.31142 0.37993 0.49477 0.0
H11 H 0.76954 0.28219 0.41668 0.0
H12 H 0.81224 0.37631 0.28184 0.0
H13 H 0.67599 0.2499 0.2744 0.0
C14 C 0.76243 0.29018 0.37631 0.0
C15 C 0.71846 0.25954 0.34872 0.0
C16 C 0.79632 0.3329 0.35282 0.0
C17 C 0.7863 0.34416 0.30088 0.0
C18 C 0.74263 0.31517 0.27326 0.0
C19 C 0.70892 0.27293 0.29698 0.0
N20 N 0.73437 0.32764 0.22075 0.0
C21 C 0.6966 0.34095 0.20133 0.0
H22 H 0.76592 0.62946 0.3109 0.0
H23 H 0.83 0.76831 0.39638 0.0
H24 H 0.71063 0.74574 0.28243 0.0
C25 C 0.76732 0.66642 0.31944 0.0
C26 C 0.73435 0.68388 0.29155 0.0
C27 C 0.80217 0.69623 0.35767 0.0
C28 C 0.80278 0.74383 0.3684 0.0
C29 C 0.76929 0.76117 0.34225 0.0
C30 C 0.73553 0.73149 0.30347 0.0
N31 N 0.77412 0.81137 0.35063 0.0
C32 C 0.74298 0.82236 0.377 0.0
H33 H 0.30077 0.75133 0.41765 0.0
H34 H 0.40058 0.791 0.30575 0.0
H35 H 0.27406 0.65239 0.29018 0.0
C36 C 0.31093 0.74172 0.38321 0.0
C37 C 0.2809 0.69692 0.3566 0.0
C38 C 0.35472 0.77491 0.36623 0.0
C39 C 0.36715 0.76539 0.31974 0.0
C40 C 0.33803 0.72126 0.29251 0.0
C41 C 0.29549 0.68674 0.31129 0.0
N42 N 0.35106 0.71343 0.24504 0.0
C43 C 0.36083 0.67169 0.23599 0.0
H44 H 0.33663 0.75541 0.66758 0.0
H45 H 0.28792 0.65328 0.79599 0.0
H46 H 0.42604 0.77639 0.81232 0.0
C47 C 0.34226 0.74456 0.70738 0.0
C48 C 0.38581 0.7727 0.73727 0.0
C49 C 0.30683 0.70082 0.7278 0.0
C50 C 0.31504 0.68603 0.77904 0.0
C51 C 0.35837 0.71218 0.80869 0.0
C52 C 0.39351 0.75548 0.78802 0.0
N53 N 0.36471 0.69591 0.86031 0.0
C54 C 0.40105 0.68004 0.87897 0.0
H55 H 0.44969 0.27985 0.78888 0.0
H56 H 0.33064 0.3246 0.77569 0.0
H57 H 0.32753 0.21001 0.67766 0.0
C58 C 0.41455 0.27573 0.7711 0.0
C59 C 0.39164 0.24121 0.73072 0.0
C60 C 0.3927 0.30585 0.78792 0.0
C61 C 0.34774 0.3016 0.76336 0.0
C62 C 0.32408 0.26614 0.72427 0.0
C63 C 0.34586 0.23603 0.70884 0.0
N64 N 0.27768 0.25834 0.70035 0.0
C65 C 0.26046 0.29627 0.69019 0.0
H66 H 0.81069 0.3012 0.66111 0.0
H67 H 0.8567 0.38356 0.80277 0.0
H68 H 0.72294 0.25353 0.78592 0.0
C69 C 0.80528 0.30608 0.69998 0.0
C70 C 0.76334 0.27179 0.72025 0.0
C71 C 0.83963 0.34687 0.72914 0.0
C72 C 0.8308 0.35314 0.77899 0.0
C73 C 0.7886 0.32005 0.79895 0.0
C74 C 0.75541 0.27903 0.77001 0.0
N75 N 0.78045 0.32697 0.84912 0.0
C76 C 0.75632 0.35687 0.85811 0.0
H77 H 0.80728 0.62154 0.73249 0.0
H78 H 0.80474 0.69203 0.58294 0.0
H79 H 0.71016 0.69498 0.68868 0.0
C80 C 0.79275 0.64254 0.70451 0.0
C81 C 0.75666 0.65676 0.71638 0.0
C82 C 0.81078 0.65643 0.65686 0.0
C83 C 0.79144 0.68231 0.62027 0.0
C84 C 0.75553 0.69647 0.63132 0.0
C85 C 0.73849 0.68455 0.67993 0.0
N86 N 0.73681 0.72148 0.59196 0.0
C87 C 0.71747 0.75549 0.60115 0.0
Co88 Co 0.1371 0.4749 0.57362 0.0
Co89 Co 0.0912 0.45529 0.47919 0.0
Co90 Co 0.05233 0.52194 0.5345 0.0
O91 O 0.07389 0.46497 0.54331 0.0
H92 H 0.0495 0.43376 0.55512 0.0
O93 O 0.03023 0.57881 0.52446 0.0
Co94 Co 0.96489 0.56648 0.49878 0.0
Co95 Co 0.01572 0.58862 0.58825 0.0
H96 H 0.05361 0.60979 0.511 0.0
O97 O 0.10655 0.4001 0.46457 0.0
O98 O 0.15452 0.47162 0.50518 0.0
O99 O 0.09482 0.50687 0.42587 0.0
O100 O 0.1007 0.56104 0.48503 0.0
O101 O 1.00354 0.483 0.47756 0.0
O102 O 0.9067 0.56099 0.47312 0.0
O103 O 0.97436 0.63262 0.4835 0.0
O104 O 0.94591 0.49564 0.50851 0.0
O105 O 1.00474 0.48281 0.58515 0.0
O106 O 0.01676 0.54028 0.6429 0.0
O107 O 0.95123 0.57224 0.56906 0.0
O108 O 1.00627 0.64528 0.60402 0.0
C109 C 0.16878 0.42766 0.60612 0.0
C110 C 0.14549 0.5709 0.59278 0.0
C111 C 0.11018 0.55201 0.44175 0.0
C112 C 0.14887 0.4299 0.48432 0.0
C113 C 0.92897 0.60994 0.46675 0.0
C114 C 0.95907 0.4719 0.47897 0.0
C115 C 0.99922 0.49424 0.62933 0.0
C116 C 0.96189 0.61464 0.59217 0.0
O117 O 0.19344 0.47668 0.60285 0.0
O118 O 0.12388 0.40841 0.58698 0.0
O119 O 0.101 0.56101 0.59189 0.0
O120 O 0.15905 0.546 0.56519 0.0
Co121 Co 0.59525 0.93355 0.5142 0.0
Co122 Co 0.62152 0.96873 0.60843 0.0
Co123 Co 0.55559 0.02051 0.54999 0.0
O124 O 0.60767 0.99701 0.54509 0.0
H125 H 0.63637 0.02432 0.53481 0.0
O126 O 0.50353 0.0439 0.55602 0.0
Co127 Co 0.51829 0.10836 0.58606 0.0
Co128 Co 0.48953 0.07216 0.49443 0.0
H129 H 0.47499 0.01701 0.56716 0.0
O130 O 0.67717 0.95662 0.62555 0.0
O131 O 0.60821 0.9057 0.58218 0.0
O132 O 0.577 0.95405 0.65852 0.0
O133 O 0.5218 0.96459 0.60138 0.0
O134 O 0.59787 0.06759 0.606 0.0
O135 O 0.52729 0.16549 0.6162 0.0
O136 O 0.45982 0.09391 0.60691 0.0
O137 O 0.58209 0.13184 0.57091 0.0
O138 O 0.58905 0.07577 0.49778 0.0
O139 O 0.53222 0.0857 0.44273 0.0
O140 O 0.4995 0.13505 0.51881 0.0
O141 O 0.43198 0.07734 0.47745 0.0
C142 C 0.63546 0.90394 0.48037 0.0
C143 C 0.50302 0.92652 0.4954 0.0
C144 C 0.53358 0.94536 0.64363 0.0
C145 C 0.65046 0.91313 0.60469 0.0
C146 C 0.483 0.13988 0.625 0.0
C147 C 0.60912 0.11555 0.60051 0.0
C148 C 0.57584 0.094 0.4556 0.0
C149 C 0.45647 0.12282 0.49521 0.0
O150 O 0.59007 0.87723 0.48399 0.0
O151 O 0.65582 0.94952 0.49967 0.0
O152 O 0.51363 0.97438 0.49328 0.0
O153 O 0.5296 0.9087 0.52366 0.0
Co154 Co 0.49179 0.52151 0.13746 0.0
Co155 Co 0.46999 0.42938 0.11508 0.0
Co156 Co 0.54705 0.50758 0.03943 0.0
O157 O 0.488 0.4885 0.07545 0.0
H158 H 0.46106 0.48772 0.05159 0.0
O159 O 0.6061 0.52675 1.00359 0.0
Co160 Co 0.60373 0.49134 0.94382 0.0
Co161 Co 0.62295 0.5835 0.96107 0.0
H162 H 0.63333 0.52939 1.02791 0.0
O163 O 0.40766 0.39192 0.13216 0.0
O164 O 0.46662 0.45606 0.17597 0.0
O165 O 0.51698 0.4008 0.12682 0.0
O166 O 0.57217 0.45971 0.08216 0.0
O167 O 0.50746 0.45041 0.99004 0.0
O168 O 0.60674 0.45641 0.89167 0.0
O169 O 0.66207 0.49011 0.95862 0.0
O170 O 0.54199 0.48792 0.92116 0.0
O171 O 0.52191 0.55567 0.99654 0.0
O172 O 0.57552 0.61089 0.94753 0.0
O173 O 0.62893 0.55529 0.90251 0.0
O174 O 0.68529 0.62208 0.94591 0.0
C175 C 0.44913 0.5493 0.16823 0.0
C176 C 0.58875 0.5571 0.13807 0.0
C177 C 0.55865 0.42028 0.11223 0.0
C178 C 0.42445 0.41881 0.17335 0.0
C179 C 0.64792 0.46294 0.91727 0.0
C180 C 0.50683 0.45448 0.94122 0.0
C181 C 0.53478 0.59343 0.96427 0.0
C182 C 0.67056 0.59353 0.9058 0.0
O183 O 0.49044 0.55397 0.19212 0.0
O184 O 0.43359 0.52415 0.12554 0.0
O185 O 0.58712 0.56408 0.08938 0.0
O186 O 0.55323 0.52362 0.15761 0.0
C187 C 0.27644 0.4412 0.50324 0.0
C188 C 0.27073 0.39283 0.48959 0.0
H189 H 0.24213 0.49102 0.51173 0.0
C190 C 0.22517 0.35647 0.47297 0.0
H191 H 0.31153 0.4695 0.51637 0.0
C192 C 0.18517 0.36845 0.47043 0.0
C193 C 0.19059 0.41687 0.48471 0.0
H194 H 0.22047 0.31874 0.46257 0.0
H195 H 0.15012 0.3397 0.4581 0.0
C196 C 0.23669 0.45325 0.50071 0.0
C197 C 0.69595 0.18479 0.41225 0.0
C198 C 0.68205 0.21475 0.37419 0.0
H199 H 0.67372 0.1231 0.46748 0.0
C200 C 0.63277 0.20209 0.36128 0.0
H201 H 0.73343 0.19255 0.42273 0.0
C202 C 0.59859 0.16152 0.38606 0.0
C203 C 0.61246 0.13259 0.42514 0.0
H204 H 0.6203 0.22449 0.33304 0.0
H205 H 0.56115 0.15408 0.37564 0.0
C206 C 0.66164 0.14444 0.43757 0.0
C207 C 0.85606 0.64902 0.35988 0.0
C208 C 0.8382 0.6779 0.38547 0.0
H209 H 0.89882 0.60519 0.36594 0.0
C210 C 0.85434 0.68791 0.43792 0.0
H211 H 0.84568 0.64142 0.3194 0.0
C212 C 0.8862 0.66827 0.46417 0.0
C213 C 0.90228 0.63805 0.43857 0.0
H214 H 0.8411 0.70939 0.45925 0.0
H215 H 0.89662 0.67488 0.50484 0.0
C216 C 0.88716 0.62886 0.38628 0.0
C217 C 0.41288 0.86627 0.38131 0.0
C218 C 0.38938 0.81615 0.40001 0.0
H219 H 0.46665 0.94151 0.39768 0.0
C220 C 0.40101 0.80424 0.4513 0.0
H221 H 0.40448 0.87642 0.34192 0.0
C222 C 0.43672 0.8409 0.48264 0.0
C223 C 0.46106 0.89066 0.4638 0.0
H224 H 0.38379 0.76585 0.46665 0.0
H225 H 0.44604 0.82999 0.52147 0.0
C226 C 0.44807 0.90349 0.41323 0.0
C227 C 0.24658 0.61485 0.69886 0.0
C228 C 0.26265 0.66825 0.69524 0.0
H229 H 0.19623 0.54271 0.67015 0.0
C230 C 0.23684 0.68943 0.65982 0.0
H231 H 0.26578 0.59706 0.72499 0.0
C232 C 0.1965 0.65779 0.62822 0.0
C233 C 0.18167 0.60461 0.63135 0.0
H234 H 0.24807 0.73037 0.65623 0.0
H235 H 0.17816 0.67486 0.60006 0.0
C236 C 0.20677 0.58358 0.6673 0.0
C237 C 0.39028 0.16269 0.69125 0.0
C238 C 0.41607 0.21308 0.70827 0.0
H239 H 0.39076 0.10008 0.65157 0.0
C240 C 0.46435 0.23804 0.69922 0.0
H241 H 0.35313 0.14202 0.698 0.0
C242 C 0.48584 0.21395 0.67268 0.0
C243 C 0.45973 0.16414 0.65444 0.0
H244 H 0.48517 0.277 0.71096 0.0
H245 H 0.5229 0.23493 0.66574 0.0
C246 C 0.41182 0.13854 0.66463 0.0
C247 C 0.90238 0.43589 0.71861 0.0
C248 C 0.88359 0.38383 0.70692 0.0
H249 H 0.95387 0.51106 0.70437 0.0
C250 C 0.90622 0.36795 0.67249 0.0
H251 H 0.88568 0.45001 0.74409 0.0
C252 C 0.94514 0.40344 0.6488 0.0
C253 C 0.9629 0.45556 0.65958 0.0
H254 H 0.89358 0.32813 0.66327 0.0
H255 H 0.96068 0.39017 0.62125 0.0
C256 C 0.94166 0.47114 0.69562 0.0
C257 C 0.65261 0.7849 0.58692 0.0
C258 C 0.69979 0.79377 0.60585 0.0
H259 H 0.59978 0.81592 0.57209 0.0
C260 C 0.73075 0.84128 0.62568 0.0
H261 H 0.62855 0.74835 0.57106 0.0
C262 C 0.71466 0.88024 0.626 0.0
C263 C 0.66747 0.8719 0.60628 0.0
H264 H 0.76754 0.84855 0.63999 0.0
H265 H 0.73933 0.91696 0.64088 0.0
C266 C 0.63644 0.82366 0.58728 0.0
C267 C 0.44379 0.24832 0.49345 0.0
C268 C 0.40704 0.24128 0.4533 0.0
H269 H 0.48846 0.21633 0.5381 0.0
C270 C 0.3855 0.19455 0.42827 0.0
H271 H 0.46097 0.28419 0.51321 0.0
C272 C 0.40056 0.15539 0.44308 0.0
C273 C 0.43799 0.16269 0.4826 0.0
H274 H 0.35676 0.18821 0.39755 0.0
H275 H 0.38356 0.11984 0.42277 0.0
C276 C 0.45942 0.20949 0.5077 0.0
C277 C 0.86927 0.34958 0.4175 0.0
C278 C 0.84069 0.36805 0.38292 0.0
H279 H 0.93057 0.36849 0.47439 0.0
C280 C 0.85408 0.42103 0.37789 0.0
H281 H 0.86001 0.30898 0.42204 0.0
C282 C 0.89405 0.45461 0.40758 0.0
C283 C 0.92202 0.43621 0.44262 0.0
H284 H 0.83266 0.43658 0.35213 0.0
H285 H 0.90258 0.4951 0.40387 0.0
C286 C 0.90987 0.38349 0.44692 0.0
C287 C 0.73858 0.88992 0.42635 0.0
C288 C 0.71598 0.84142 0.4048 0.0
H289 H 0.73109 0.94777 0.46728 0.0
C290 C 0.66727 0.81282 0.40935 0.0
H291 H 0.77626 0.91259 0.42328 0.0
C292 C 0.64128 0.83287 0.43451 0.0
C293 C 0.66356 0.88199 0.45543 0.0
H294 H 0.6492 0.77526 0.39301 0.0
H295 H 0.60358 0.81002 0.43705 0.0
C296 C 0.71268 0.91003 0.45146 0.0
C297 C 0.23175 0.65749 0.43046 0.0
C298 C 0.23552 0.66074 0.37731 0.0
H299 H 0.18895 0.62283 0.49153 0.0
C300 C 0.1957 0.6289 0.34487 0.0
H301 H 0.26158 0.67931 0.45751 0.0
C302 C 0.15418 0.59418 0.36526 0.0
C303 C 0.15086 0.59187 0.41823 0.0
H304 H 0.19639 0.63051 0.30373 0.0
H305 H 0.12474 0.5691 0.33968 0.0
C306 C 0.18982 0.62449 0.45036 0.0
C307 C 0.41126 0.85174 0.6792 0.0
C308 C 0.42357 0.8191 0.71529 0.0
H309 H 0.4359 0.9172 0.62867 0.0
C310 C 0.47254 0.83089 0.72974 0.0
H311 H 0.3741 0.84479 0.66767 0.0
C312 C 0.50793 0.87321 0.70836 0.0
C313 C 0.49565 0.90486 0.67118 0.0
H314 H 0.48388 0.80654 0.75652 0.0
H315 H 0.54507 0.87989 0.71974 0.0
C316 C 0.44678 0.89381 0.65723 0.0
C317 C 0.18814 0.30974 0.65663 0.0
C318 C 0.23745 0.33015 0.67225 0.0
H319 H 0.12761 0.32453 0.62331 0.0
C320 C 0.26428 0.38258 0.66664 0.0
H321 H 0.16703 0.26912 0.66017 0.0
C322 C 0.24187 0.41441 0.64548 0.0
C323 C 0.19233 0.39412 0.62939 0.0
H324 H 0.30256 0.3988 0.67792 0.0
H325 H 0.2635 0.4548 0.64118 0.0
C326 C 0.16572 0.34142 0.63535 0.0
C327 C 0.71022 0.24117 0.63858 0.0
C328 C 0.72656 0.23018 0.6884 0.0
H329 H 0.66043 0.21341 0.57192 0.0
C330 C 0.70624 0.17989 0.70797 0.0
H331 H 0.72498 0.27957 0.62259 0.0
C332 C 0.66956 0.14158 0.67854 0.0
C333 C 0.65197 0.15327 0.62953 0.0
H334 H 0.71843 0.17036 0.7462 0.0
H335 H 0.65373 0.10344 0.69489 0.0
C336 C 0.67314 0.20328 0.60967 0.0
C337 C 0.84231 0.59513 0.63276 0.0
C338 C 0.85031 0.64492 0.64437 0.0
H339 H 0.8716 0.54662 0.60597 0.0
C340 C 0.89491 0.68488 0.6388 0.0
H341 H 0.80773 0.56412 0.63622 0.0
C342 C 0.93144 0.67511 0.62185 0.0
C343 C 0.92337 0.62539 0.60927 0.0
H344 H 0.90118 0.72368 0.64704 0.0
H345 H 0.96565 0.7065 0.61779 0.0
C346 C 0.87856 0.58543 0.61493 0.0
C347 C 0.36053 0.32867 0.27749 0.0
C348 C 0.37677 0.36068 0.32007 0.0
H349 H 0.36181 0.32223 0.19703 0.0
C350 C 0.40241 0.41325 0.31213 0.0
H351 H 0.34035 0.28804 0.2825 0.0
C352 C 0.41504 0.43277 0.26338 0.0
C353 C 0.40177 0.40023 0.22143 0.0
H354 H 0.4156 0.43883 0.34421 0.0
H355 H 0.43734 0.47298 0.25912 0.0
C356 C 0.37258 0.34833 0.22852 0.0
C357 C 0.48141 0.67841 0.88641 0.0
C358 C 0.4351 0.65929 0.9013 0.0
H359 H 0.54928 0.67291 0.89471 0.0
C360 C 0.42162 0.61924 0.93777 0.0
H361 H 0.49244 0.70932 0.85829 0.0
C362 C 0.454 0.59814 0.95887 0.0
C363 C 0.50055 0.61679 0.94377 0.0
H364 H 0.38587 0.60399 0.94974 0.0
H365 H 0.4424 0.56699 0.98661 0.0
C366 C 0.51384 0.65744 0.90742 0.0
C367 C 0.43431 0.32743 0.87768 0.0
C368 C 0.41756 0.34294 0.82989 0.0
H369 H 0.47419 0.35053 0.95163 0.0
C370 C 0.42608 0.39467 0.82172 0.0
H371 H 0.42806 0.28775 0.88509 0.0
C372 C 0.45292 0.43047 0.85935 0.0
C373 C 0.47064 0.41525 0.90667 0.0
H374 H 0.41376 0.40777 0.78529 0.0
H375 H 0.46111 0.47046 0.85089 0.0
C376 C 0.46013 0.36318 0.91598 0.0
C377 C 0.68872 0.38335 0.84095 0.0
C378 C 0.73094 0.38651 0.87073 0.0
H379 H 0.62945 0.40544 0.83203 0.0
C380 C 0.74722 0.41678 0.91437 0.0
H381 H 0.67562 0.36005 0.80712 0.0
C382 C 0.72097 0.4428 0.92881 0.0
C383 C 0.67786 0.43882 0.89984 0.0
H384 H 0.77979 0.41957 0.93787 0.0
H385 H 0.73394 0.46512 0.96327 0.0
C386 C 0.6624 0.40932 0.85531 0.0
C387 C 0.71067 0.5889 0.77673 0.0
C388 C 0.73684 0.64075 0.76607 0.0
H389 H 0.66885 0.53336 0.82929 0.0
C390 C 0.74377 0.67686 0.80287 0.0
H391 H 0.70507 0.56048 0.74878 0.0
C392 C 0.72427 0.66129 0.84964 0.0
C393 C 0.69655 0.60948 0.85967 0.0
H394 H 0.76412 0.71704 0.79533 0.0
H395 H 0.72935 0.68997 0.87705 0.0
C396 C 0.69018 0.57345 0.82283 0.0
C397 C 0.69043 0.67231 0.20172 0.0
C398 C 0.69864 0.65173 0.25054 0.0
H399 H 0.6502 0.65831 0.12687 0.0
C400 C 0.67271 0.59951 0.26009 0.0
H401 H 0.71022 0.71233 0.193 0.0
C402 C 0.63864 0.56894 0.22258 0.0
C403 C 0.62974 0.5894 0.17406 0.0
H404 H 0.67791 0.58242 0.2972 0.0
H405 H 0.61854 0.52911 0.23196 0.0
C406 C 0.65659 0.64131 0.16364 0.0
C407 C 0.41527 0.62763 0.25351 0.0
C408 C 0.37752 0.63425 0.22262 0.0
H409 H 0.46715 0.59492 0.26085 0.0
C410 C 0.36032 0.60912 0.17578 0.0
H411 H 0.42924 0.64707 0.28964 0.0
C412 C 0.38198 0.57922 0.15903 0.0
C413 C 0.42147 0.57446 0.18875 0.0
H414 H 0.33142 0.61421 0.1512 0.0
H415 H 0.36915 0.56175 0.12185 0.0
C416 C 0.43702 0.59795 0.23681 0.0
C417 C 0.61425 0.33766 0.19089 0.0
C418 C 0.66129 0.35947 0.17788 0.0
H419 H 0.54474 0.33943 0.18013 0.0
C420 C 0.67436 0.40016 0.14215 0.0
H421 H 0.60354 0.30618 0.21843 0.0
C422 C 0.64091 0.41936 0.12004 0.0
C423 C 0.59365 0.39816 0.13333 0.0
H424 H 0.71063 0.41744 0.13162 0.0
H425 H 0.6523 0.4512 0.093 0.0
C426 C 0.58069 0.35676 0.16881 0.0
loop_
_geom_bond_atom_site_label_1
_geom_bond_atom_site_label_2
_geom_bond_distance
_geom_bond_site_symmetry_2
_ccdc_geom_bond_type
H0 C3 0.929 . S
H1 C6 0.929 . S
H2 C8 0.930 . S
C3 H0 0.929 . S
C3 C4 1.398 . S
C3 C5 1.396 . S
C4 C3 1.398 . S
C4 C8 1.407 . S
C5 C3 1.396 . S
C5 C6 1.394 . S
C6 H1 0.929 . S
C6 C5 1.394 . S
C6 C7 1.382 . S
C7 C6 1.382 . S
C7 C8 1.392 . S
C7 N9 1.420 . S
C8 H2 0.930 . S
C8 C4 1.407 . S
C8 C7 1.392 . S
N9 C7 1.420 . S
N9 C10 1.244 . S
C10 N9 1.244 . S
H11 C14 0.929 . S
H12 C17 0.929 . S
H13 C19 0.930 . S
C14 H11 0.929 . S
C14 C15 1.398 . S
C14 C16 1.396 . S
C15 C14 1.398 . S
C15 C19 1.407 . S
C16 C14 1.396 . S
C16 C17 1.394 . S
C17 H12 0.929 . S
C17 C16 1.394 . S
C17 C18 1.382 . S
C18 C17 1.382 . S
C18 C19 1.392 . S
C18 N20 1.420 . S
C19 H13 0.930 . S
C19 C15 1.407 . S
C19 C18 1.392 . S
N20 C18 1.420 . S
N20 C21 1.244 . S
C21 N20 1.244 . S
H22 C25 0.929 . S
H23 C28 0.929 . S
H24 C30 0.930 . S
C25 H22 0.929 . S
C25 C26 1.398 . S
C25 C27 1.396 . S
C26 C25 1.398 . S
C26 C30 1.407 . S
C27 C25 1.396 . S
C27 C28 1.394 . S
C28 H23 0.929 . S
C28 C27 1.394 . S
C28 C29 1.382 . S
C29 C28 1.382 . S
C29 C30 1.392 . S
C29 N31 1.420 . S
C30 H24 0.930 . S
C30 C26 1.407 . S
C30 C29 1.392 . S
N31 C29 1.420 . S
N31 C32 1.244 . S
C32 N31 1.244 . S
H33 C36 0.929 . S
H34 C39 0.929 . S
H35 C41 0.930 . S
C36 H33 0.929 . S
C36 C37 1.398 . S
C36 C38 1.396 . S
C37 C36 1.398 . S
C37 C41 1.407 . S
C38 C36 1.396 . S
C38 C39 1.394 . S
C39 H34 0.929 . S
C39 C38 1.394 . S
C39 C40 1.382 . S
C40 C39 1.382 . S
C40 C41 1.392 . S
C40 N42 1.420 . S
C41 H35 0.930 . S
C41 C37 1.407 . S
C41 C40 1.392 . S
N42 C40 1.420 . S
N42 C43 1.244 . S
C43 N42 1.244 . S
H44 C47 0.929 . S
H45 C50 0.929 . S
H46 C52 0.930 . S
C47 H44 0.929 . S
C47 C48 1.398 . S
C47 C49 1.396 . S
C48 C47 1.398 . S
C48 C52 1.407 . S
C49 C47 1.396 . S
C49 C50 1.394 . S
C50 H45 0.929 . S
C50 C49 1.394 . S
C50 C51 1.382 . S
C51 C50 1.382 . S
C51 C52 1.392 . S
C51 N53 1.420 . S
C52 H46 0.930 . S
C52 C48 1.407 . S
C52 C51 1.392 . S
N53 C51 1.420 . S
N53 C54 1.244 . S
C54 N53 1.244 . S
H55 C58 0.929 . S
H56 C61 0.929 . S
H57 C63 0.930 . S
C58 H55 0.929 . S
C58 C59 1.398 . S
C58 C60 1.396 . S
C59 C58 1.398 . S
C59 C63 1.407 . S
C60 C58 1.396 . S
C60 C61 1.394 . S
C61 H56 0.929 . S
C61 C60 1.394 . S
C61 C62 1.382 . S
C62 C61 1.382 . S
C62 C63 1.392 . S
C62 N64 1.420 . S
C63 H57 0.930 . S
C63 C59 1.407 . S
C63 C62 1.392 . S
N64 C62 1.420 . S
N64 C65 1.244 . S
C65 N64 1.244 . S
H66 C69 0.929 . S
H67 C72 0.929 . S
H68 C74 0.930 . S
C69 H66 0.929 . S
C69 C70 1.398 . S
C69 C71 1.396 . S
C70 C69 1.398 . S
C70 C74 1.407 . S
C71 C69 1.396 . S
C71 C72 1.394 . S
C72 H67 0.929 . S
C72 C71 1.394 . S
C72 C73 1.382 . S
C73 C72 1.382 . S
C73 C74 1.392 . S
C73 N75 1.420 . S
C74 H68 0.930 . S
C74 C70 1.407 . S
C74 C73 1.392 . S
N75 C73 1.420 . S
N75 C76 1.244 . S
C76 N75 1.244 . S
H77 C80 0.929 . S
H78 C83 0.929 . S
H79 C85 0.930 . S
C80 H77 0.929 . S
C80 C81 1.398 . S
C80 C82 1.396 . S
C81 C80 1.398 . S
C81 C85 1.407 . S
C82 C80 1.396 . S
C82 C83 1.394 . S
C83 H78 0.929 . S
C83 C82 1.394 . S
C83 C84 1.382 . S
C84 C83 1.382 . S
C84 C85 1.392 . S
C84 N86 1.420 . S
C85 H79 0.930 . S
C85 C81 1.407 . S
C85 C84 1.392 . S
N86 C84 1.420 . S
N86 C87 1.244 . S
C87 N86 1.244 . S
Co88 O91 2.042 . S
Co88 O98 2.264 . S
Co88 O117 2.286 . S
Co88 O118 2.069 . S
Co88 O120 2.015 . S
Co89 O91 2.122 . S
Co89 O97 2.073 . S
Co89 O98 2.327 . S
Co89 O99 1.976 . S
Co90 O91 2.087 . S
Co90 O93 2.087 1_455 S
Co90 O100 2.111 . S
Co90 O101 2.143 1_455 S
Co90 O105 2.111 1_455 S
Co90 O119 2.143 . S
O91 Co88 2.042 . S
O91 Co89 2.122 . S
O91 Co90 2.087 . S
O91 H92 0.980 . S
H92 O91 0.980 . S
O93 Co90 2.087 1_655 S
O93 Co94 2.042 . S
O93 Co95 2.122 . S
O93 H96 0.980 1_655 S
Co94 O93 2.042 . S
Co94 O102 2.286 . S
Co94 O103 2.069 . S
Co94 O104 2.015 . S
Co94 O107 2.264 . S
Co95 O93 2.122 . S
Co95 O106 1.976 . S
Co95 O107 2.327 . S
Co95 O108 2.073 . S
H96 O93 0.980 1_455 S
O97 Co89 2.073 . S
O97 C112 1.245 . S
O98 Co88 2.264 . S
O98 Co89 2.327 . S
O98 C112 1.257 . S
O99 Co89 1.976 . S
O99 C111 1.251 . S
O100 Co90 2.111 . S
O100 C111 1.274 . S
O101 Co90 2.143 1_655 S
O101 C114 1.246 . S
O102 Co94 2.286 . S
O102 C113 1.259 . S
O103 Co94 2.069 . S
O103 C113 1.289 . S
O104 Co94 2.015 . S
O104 C114 1.257 . S
O105 Co90 2.111 1_655 S
O105 C115 1.274 . S
O106 Co95 1.976 . S
O106 C115 1.251 . S
O107 Co94 2.264 . S
O107 Co95 2.327 . S
O107 C116 1.257 . S
O108 Co95 2.073 . S
O108 C116 1.245 . S
C109 O117 1.259 . S
C109 O118 1.289 . S
C110 O119 1.246 . S
C110 O120 1.257 . S
C111 O99 1.251 . S
C111 O100 1.274 . S
C112 O97 1.245 . S
C112 O98 1.257 . S
C113 O102 1.259 . S
C113 O103 1.289 . S
C114 O101 1.246 . S
C114 O104 1.257 . S
C115 O105 1.274 . S
C115 O106 1.251 . S
C116 O107 1.257 . S
C116 O108 1.245 . S
O117 Co88 2.286 . S
O117 C109 1.259 . S
O118 Co88 2.069 . S
O118 C109 1.289 . S
O119 Co90 2.143 . S
O119 C110 1.246 . S
O120 Co88 2.015 . S
O120 C110 1.257 . S
Co121 O124 2.042 . S
Co121 O131 2.264 . S
Co121 O150 2.286 . S
Co121 O151 2.069 . S
Co121 O153 2.015 . S
Co122 O124 2.122 . S
Co122 O130 2.073 . S
Co122 O131 2.327 . S
Co122 O132 1.976 . S
Co123 O124 2.087 1_545 S
Co123 O126 2.087 . S
Co123 O133 2.111 1_545 S
Co123 O134 2.143 . S
Co123 O138 2.111 . S
Co123 O152 2.143 1_545 S
O124 Co121 2.042 . S
O124 Co122 2.122 . S
O124 Co123 2.087 1_565 S
O124 H125 0.980 1_565 S
H125 O124 0.980 1_545 S
O126 Co123 2.087 . S
O126 Co127 2.042 . S
O126 Co128 2.122 . S
O126 H129 0.980 . S
Co127 O126 2.042 . S
Co127 O135 2.286 . S
Co127 O136 2.069 . S
Co127 O137 2.015 . S
Co127 O140 2.264 . S
Co128 O126 2.122 . S
Co128 O139 1.976 . S
Co128 O140 2.327 . S
Co128 O141 2.073 . S
H129 O126 0.980 . S
O130 Co122 2.073 . S
O130 C145 1.245 . S
O131 Co121 2.264 . S
O131 Co122 2.327 . S
O131 C145 1.257 . S
O132 Co122 1.976 . S
O132 C144 1.251 . S
O133 Co123 2.111 1_565 S
O133 C144 1.274 . S
O134 Co123 2.143 . S
O134 C147 1.246 . S
O135 Co127 2.286 . S
O135 C146 1.259 . S
O136 Co127 2.069 . S
O136 C146 1.289 . S
O137 Co127 2.015 . S
O137 C147 1.257 . S
O138 Co123 2.111 . S
O138 C148 1.274 . S
O139 Co128 1.976 . S
O139 C148 1.251 . S
O140 Co127 2.264 . S
O140 Co128 2.327 . S
O140 C149 1.257 . S
O141 Co128 2.073 . S
O141 C149 1.245 . S
C142 O150 1.259 . S
C142 O151 1.289 . S
C143 O152 1.246 . S
C143 O153 1.257 . S
C144 O132 1.251 . S
C144 O133 1.274 . S
C145 O130 1.245 . S
C145 O131 1.257 . S
C146 O135 1.259 . S
C146 O136 1.289 . S
C147 O134 1.246 . S
C147 O137 1.257 . S
C148 O138 1.274 . S
C148 O139 1.251 . S
C149 O140 1.257 . S
C149 O141 1.245 . S
O150 Co121 2.286 . S
O150 C142 1.259 . S
O151 Co121 2.069 . S
O151 C142 1.289 . S
O152 Co123 2.143 1_565 S
O152 C143 1.246 . S
O153 Co121 2.015 . S
O153 C143 1.257 . S
Co154 O157 2.042 . S
Co154 O164 2.264 . S
Co154 O183 2.286 . S
Co154 O184 2.069 . S
Co154 O186 2.015 . S
Co155 O157 2.122 . S
Co155 O163 2.073 . S
Co155 O164 2.327 . S
Co155 O165 1.976 . S
Co156 O157 2.087 . S
Co156 O159 2.087 1_554 S
Co156 O166 2.111 . S
Co156 O167 2.143 1_554 S
Co156 O171 2.111 1_554 S
Co156 O185 2.143 . S
O157 Co154 2.042 . S
O157 Co155 2.122 . S
O157 Co156 2.087 . S
O157 H158 0.980 . S
H158 O157 0.980 . S
O159 Co156 2.087 1_556 S
O159 Co160 2.042 . S
O159 Co161 2.122 . S
O159 H162 0.980 . S
Co160 O159 2.042 . S
Co160 O168 2.286 . S
Co160 O169 2.069 . S
Co160 O170 2.015 . S
Co160 O173 2.264 . S
Co161 O159 2.122 . S
Co161 O172 1.976 . S
Co161 O173 2.327 . S
Co161 O174 2.073 . S
H162 O159 0.980 . S
O163 Co155 2.073 . S
O163 C178 1.245 . S
O164 Co154 2.264 . S
O164 Co155 2.327 . S
O164 C178 1.257 . S
O165 Co155 1.976 . S
O165 C177 1.251 . S
O166 Co156 2.111 . S
O166 C177 1.274 . S
O167 Co156 2.143 1_556 S
O167 C180 1.246 . S
O168 Co160 2.286 . S
O168 C179 1.259 . S
O169 Co160 2.069 . S
O169 C179 1.289 . S
O170 Co160 2.015 . S
O170 C180 1.257 . S
O171 Co156 2.111 1_556 S
O171 C181 1.274 . S
O172 Co161 1.976 . S
O172 C181 1.251 . S
O173 Co160 2.264 . S
O173 Co161 2.327 . S
O173 C182 1.257 . S
O174 Co161 2.073 . S
O174 C182 1.245 . S
C175 O183 1.259 . S
C175 O184 1.289 . S
C176 O185 1.246 . S
C176 O186 1.257 . S
C177 O165 1.251 . S
C177 O166 1.274 . S
C178 O163 1.245 . S
C178 O164 1.257 . S
C179 O168 1.259 . S
C179 O169 1.289 . S
C180 O167 1.246 . S
C180 O170 1.257 . S
C181 O171 1.274 . S
C181 O172 1.251 . S
C182 O173 1.257 . S
C182 O174 1.245 . S
O183 Co154 2.286 . S
O183 C175 1.259 . S
O184 Co154 2.069 . S
O184 C175 1.289 . S
O185 Co156 2.143 . S
O185 C176 1.246 . S
O186 Co154 2.015 . S
O186 C176 1.257 . S
C187 C188 1.387 . S
C187 H191 0.950 . S
C187 C196 1.390 . S
C188 C187 1.387 . S
C188 C190 1.387 . S
H189 C196 0.950 . S
C190 C188 1.387 . S
C190 C192 1.390 . S
C190 H194 0.950 . S
H191 C187 0.950 . S
C192 C190 1.390 . S
C192 C193 1.387 . S
C192 H195 0.950 . S
C193 C192 1.387 . S
C193 C196 1.387 . S
H194 C190 0.950 . S
H195 C192 0.950 . S
C196 C187 1.390 . S
C196 H189 0.950 . S
C196 C193 1.387 . S
C197 C198 1.387 . S
C197 H201 0.950 . S
C197 C206 1.390 . S
C198 C197 1.387 . S
C198 C200 1.387 . S
H199 C206 0.950 . S
C200 C198 1.387 . S
C200 C202 1.390 . S
C200 H204 0.950 . S
H201 C197 0.950 . S
C202 C200 1.390 . S
C202 C203 1.387 . S
C202 H205 0.950 . S
C203 C202 1.387 . S
C203 C206 1.387 . S
H204 C200 0.950 . S
H205 C202 0.950 . S
C206 C197 1.390 . S
C206 H199 0.950 . S
C206 C203 1.387 . S
C207 C208 1.387 . S
C207 H211 0.950 . S
C207 C216 1.390 . S
C208 C207 1.387 . S
C208 C210 1.387 . S
H209 C216 0.950 . S
C210 C208 1.387 . S
C210 C212 1.390 . S
C210 H214 0.950 . S
H211 C207 0.950 . S
C212 C210 1.390 . S
C212 C213 1.387 . S
C212 H215 0.950 . S
C213 C212 1.387 . S
C213 C216 1.387 . S
H214 C210 0.950 . S
H215 C212 0.950 . S
C216 C207 1.390 . S
C216 H209 0.950 . S
C216 C213 1.387 . S
C217 C218 1.387 . S
C217 H221 0.950 . S
C217 C226 1.390 . S
C218 C217 1.387 . S
C218 C220 1.387 . S
H219 C226 0.950 . S
C220 C218 1.387 . S
C220 C222 1.390 . S
C220 H224 0.950 . S
H221 C217 0.950 . S
C222 C220 1.390 . S
C222 C223 1.387 . S
C222 H225 0.950 . S
C223 C222 1.387 . S
C223 C226 1.387 . S
H224 C220 0.950 . S
H225 C222 0.950 . S
C226 C217 1.390 . S
C226 H219 0.950 . S
C226 C223 1.387 . S
C227 C228 1.387 . S
C227 H231 0.950 . S
C227 C236 1.390 . S
C228 C227 1.387 . S
C228 C230 1.387 . S
H229 C236 0.950 . S
C230 C228 1.387 . S
C230 C232 1.390 . S
C230 H234 0.950 . S
H231 C227 0.950 . S
C232 C230 1.390 . S
C232 C233 1.387 . S
C232 H235 0.950 . S
C233 C232 1.387 . S
C233 C236 1.387 . S
H234 C230 0.950 . S
H235 C232 0.950 . S
C236 C227 1.390 . S
C236 H229 0.950 . S
C236 C233 1.387 . S
C237 C238 1.387 . S
C237 H241 0.950 . S
C237 C246 1.390 . S
C238 C237 1.387 . S
C238 C240 1.387 . S
H239 C246 0.950 . S
C240 C238 1.387 . S
C240 C242 1.390 . S
C240 H244 0.950 . S
H241 C237 0.950 . S
C242 C240 1.390 . S
C242 C243 1.387 . S
C242 H245 0.950 . S
C243 C242 1.387 . S
C243 C246 1.387 . S
H244 C240 0.950 . S
H245 C242 0.950 . S
C246 C237 1.390 . S
C246 H239 0.950 . S
C246 C243 1.387 . S
C247 C248 1.387 . S
C247 H251 0.950 . S
C247 C256 1.390 . S
C248 C247 1.387 . S
C248 C250 1.387 . S
H249 C256 0.950 . S
C250 C248 1.387 . S
C250 C252 1.390 . S
C250 H254 0.950 . S
H251 C247 0.950 . S
C252 C250 1.390 . S
C252 C253 1.387 . S
C252 H255 0.950 . S
C253 C252 1.387 . S
C253 C256 1.387 . S
H254 C250 0.950 . S
H255 C252 0.950 . S
C256 C247 1.390 . S
C256 H249 0.950 . S
C256 C253 1.387 . S
C257 C258 1.387 . S
C257 H261 0.950 . S
C257 C266 1.390 . S
C258 C257 1.387 . S
C258 C260 1.387 . S
H259 C266 0.950 . S
C260 C258 1.387 . S
C260 C262 1.390 . S
C260 H264 0.950 . S
H261 C257 0.950 . S
C262 C260 1.390 . S
C262 C263 1.387 . S
C262 H265 0.950 . S
C263 C262 1.387 . S
C263 C266 1.387 . S
H264 C260 0.950 . S
H265 C262 0.950 . S
C266 C257 1.390 . S
C266 H259 0.950 . S
C266 C263 1.387 . S
C267 C268 1.387 . S
C267 H271 0.950 . S
C267 C276 1.390 . S
C268 C267 1.387 . S
C268 C270 1.387 . S
H269 C276 0.950 . S
C270 C268 1.387 . S
C270 C272 1.390 . S
C270 H274 0.950 . S
H271 C267 0.950 . S
C272 C270 1.390 . S
C272 C273 1.387 . S
C272 H275 0.950 . S
C273 C272 1.387 . S
C273 C276 1.387 . S
H274 C270 0.950 . S
H275 C272 0.950 . S
C276 C267 1.390 . S
C276 H269 0.950 . S
C276 C273 1.387 . S
C277 C278 1.387 . S
C277 H281 0.950 . S
C277 C286 1.390 . S
C278 C277 1.387 . S
C278 C280 1.387 . S
H279 C286 0.950 . S
C280 C278 1.387 . S
C280 C282 1.390 . S
C280 H284 0.950 . S
H281 C277 0.950 . S
C282 C280 1.390 . S
C282 C283 1.387 . S
C282 H285 0.950 . S
C283 C282 1.387 . S
C283 C286 1.387 . S
H284 C280 0.950 . S
H285 C282 0.950 . S
C286 C277 1.390 . S
C286 H279 0.950 . S
C286 C283 1.387 . S
C287 C288 1.387 . S
C287 H291 0.950 . S
C287 C296 1.390 . S
C288 C287 1.387 . S
C288 C290 1.387 . S
H289 C296 0.950 . S
C290 C288 1.387 . S
C290 C292 1.390 . S
C290 H294 0.950 . S
H291 C287 0.950 . S
C292 C290 1.390 . S
C292 C293 1.387 . S
C292 H295 0.950 . S
C293 C292 1.387 . S
C293 C296 1.387 . S
H294 C290 0.950 . S
H295 C292 0.950 . S
C296 C287 1.390 . S
C296 H289 0.950 . S
C296 C293 1.387 . S
C297 C298 1.387 . S
C297 H301 0.950 . S
C297 C306 1.390 . S
C298 C297 1.387 . S
C298 C300 1.387 . S
H299 C306 0.950 . S
C300 C298 1.387 . S
C300 C302 1.390 . S
C300 H304 0.950 . S
H301 C297 0.950 . S
C302 C300 1.390 . S
C302 C303 1.387 . S
C302 H305 0.950 . S
C303 C302 1.387 . S
C303 C306 1.387 . S
H304 C300 0.950 . S
H305 C302 0.950 . S
C306 C297 1.390 . S
C306 H299 0.950 . S
C306 C303 1.387 . S
C307 C308 1.387 . S
C307 H311 0.950 . S
C307 C316 1.390 . S
C308 C307 1.387 . S
C308 C310 1.387 . S
H309 C316 0.950 . S
C310 C308 1.387 . S
C310 C312 1.390 . S
C310 H314 0.950 . S
H311 C307 0.950 . S
C312 C310 1.390 . S
C312 C313 1.387 . S
C312 H315 0.950 . S
C313 C312 1.387 . S
C313 C316 1.387 . S
H314 C310 0.950 . S
H315 C312 0.950 . S
C316 C307 1.390 . S
C316 H309 0.950 . S
C316 C313 1.387 . S
C317 C318 1.387 . S
C317 H321 0.950 . S
C317 C326 1.390 . S
C318 C317 1.387 . S
C318 C320 1.387 . S
H319 C326 0.950 . S
C320 C318 1.387 . S
C320 C322 1.390 . S
C320 H324 0.950 . S
H321 C317 0.950 . S
C322 C320 1.390 . S
C322 C323 1.387 . S
C322 H325 0.950 . S
C323 C322 1.387 . S
C323 C326 1.387 . S
H324 C320 0.950 . S
H325 C322 0.950 . S
C326 C317 1.390 . S
C326 H319 0.950 . S
C326 C323 1.387 . S
C327 C328 1.387 . S
C327 H331 0.950 . S
C327 C336 1.390 . S
C328 C327 1.387 . S
C328 C330 1.387 . S
H329 C336 0.950 . S
C330 C328 1.387 . S
C330 C332 1.390 . S
C330 H334 0.950 . S
H331 C327 0.950 . S
C332 C330 1.390 . S
C332 C333 1.387 . S
C332 H335 0.950 . S
C333 C332 1.387 . S
C333 C336 1.387 . S
H334 C330 0.950 . S
H335 C332 0.950 . S
C336 C327 1.390 . S
C336 H329 0.950 . S
C336 C333 1.387 . S
C337 C338 1.387 . S
C337 H341 0.950 . S
C337 C346 1.390 . S
C338 C337 1.387 . S
C338 C340 1.387 . S
H339 C346 0.950 . S
C340 C338 1.387 . S
C340 C342 1.390 . S
C340 H344 0.950 . S
H341 C337 0.950 . S
C342 C340 1.390 . S
C342 C343 1.387 . S
C342 H345 0.950 . S
C343 C342 1.387 . S
C343 C346 1.387 . S
H344 C340 0.950 . S
H345 C342 0.950 . S
C346 C337 1.390 . S
C346 H339 0.950 . S
C346 C343 1.387 . S
C347 C348 1.387 . S
C347 H351 0.950 . S
C347 C356 1.390 . S
C348 C347 1.387 . S
C348 C350 1.387 . S
H349 C356 0.950 . S
C350 C348 1.387 . S
C350 C352 1.390 . S
C350 H354 0.950 . S
H351 C347 0.950 . S
C352 C350 1.390 . S
C352 C353 1.387 . S
C352 H355 0.950 . S
C353 C352 1.387 . S
C353 C356 1.387 . S
H354 C350 0.950 . S
H355 C352 0.950 . S
C356 C347 1.390 . S
C356 H349 0.950 . S
C356 C353 1.387 . S
C357 C358 1.387 . S
C357 H361 0.950 . S
C357 C366 1.390 . S
C358 C357 1.387 . S
C358 C360 1.387 . S
H359 C366 0.950 . S
C360 C358 1.387 . S
C360 C362 1.390 . S
C360 H364 0.950 . S
H361 C357 0.950 . S
C362 C360 1.390 . S
C362 C363 1.387 . S
C362 H365 0.950 . S
C363 C362 1.387 . S
C363 C366 1.387 . S
H364 C360 0.950 . S
H365 C362 0.950 . S
C366 C357 1.390 . S
C366 H359 0.950 . S
C366 C363 1.387 . S
C367 C368 1.387 . S
C367 H371 0.950 . S
C367 C376 1.390 . S
C368 C367 1.387 . S
C368 C370 1.387 . S
H369 C376 0.950 . S
C370 C368 1.387 . S
C370 C372 1.390 . S
C370 H374 0.950 . S
H371 C367 0.950 . S
C372 C370 1.390 . S
C372 C373 1.387 . S
C372 H375 0.950 . S
C373 C372 1.387 . S
C373 C376 1.387 . S
H374 C370 0.950 . S
H375 C372 0.950 . S
C376 C367 1.390 . S
C376 H369 0.950 . S
C376 C373 1.387 . S
C377 C378 1.387 . S
C377 H381 0.950 . S
C377 C386 1.390 . S
C378 C377 1.387 . S
C378 C380 1.387 . S
H379 C386 0.950 . S
C380 C378 1.387 . S
C380 C382 1.390 . S
C380 H384 0.950 . S
H381 C377 0.950 . S
C382 C380 1.390 . S
C382 C383 1.387 . S
C382 H385 0.950 . S
C383 C382 1.387 . S
C383 C386 1.387 . S
H384 C380 0.950 . S
H385 C382 0.950 . S
C386 C377 1.390 . S
C386 H379 0.950 . S
C386 C383 1.387 . S
C387 C388 1.387 . S
C387 H391 0.950 . S
C387 C396 1.390 . S
C388 C387 1.387 . S
C388 C390 1.387 . S
H389 C396 0.950 . S
C390 C388 1.387 . S
C390 C392 1.390 . S
C390 H394 0.950 . S
H391 C387 0.950 . S
C392 C390 1.390 . S
C392 C393 1.387 . S
C392 H395 0.950 . S
C393 C392 1.387 . S
C393 C396 1.387 . S
H394 C390 0.950 . S
H395 C392 0.950 . S
C396 C387 1.390 . S
C396 H389 0.950 . S
C396 C393 1.387 . S
C397 C398 1.387 . S
C397 H401 0.950 . S
C397 C406 1.390 . S
C398 C397 1.387 . S
C398 C400 1.387 . S
H399 C406 0.950 . S
C400 C398 1.387 . S
C400 C402 1.390 . S
C400 H404 0.950 . S
H401 C397 0.950 . S
C402 C400 1.390 . S
C402 C403 1.387 . S
C402 H405 0.950 . S
C403 C402 1.387 . S
C403 C406 1.387 . S
H404 C400 0.950 . S
H405 C402 0.950 . S
C406 C397 1.390 . S
C406 H399 0.950 . S
C406 C403 1.387 . S
C407 C408 1.387 . S
C407 H411 0.950 . S
C407 C416 1.390 . S
C408 C407 1.387 . S
C408 C410 1.387 . S
H409 C416 0.950 . S
C410 C408 1.387 . S
C410 C412 1.390 . S
C410 H414 0.950 . S
H411 C407 0.950 . S
C412 C410 1.390 . S
C412 C413 1.387 . S
C412 H415 0.950 . S
C413 C412 1.387 . S
C413 C416 1.387 . S
H414 C410 0.950 . S
H415 C412 0.950 . S
C416 C407 1.390 . S
C416 H409 0.950 . S
C416 C413 1.387 . S
C417 C418 1.387 . S
C417 H421 0.950 . S
C417 C426 1.390 . S
C418 C417 1.387 . S
C418 C420 1.387 . S
H419 C426 0.950 . S
C420 C418 1.387 . S
C420 C422 1.390 . S
C420 H424 0.950 . S
H421 C417 0.950 . S
C422 C420 1.390 . S
C422 C423 1.387 . S
C422 H425 0.950 . S
C423 C422 1.387 . S
C423 C426 1.387 . S
H424 C420 0.950 . S
H425 C422 0.950 . S
C426 C417 1.390 . S
C426 H419 0.950 . S
C426 C423 1.387 . S
C193 C112 1.442 . S
C188 C10 1.528 . S
C203 C148 1.406 . S
C198 C15 1.486 . S
C213 C113 1.593 . S
C208 C27 1.615 . S
C223 C143 1.552 . S
C218 C38 1.603 . S
C233 C110 1.466 . S
C228 C49 1.527 . S
C238 C59 1.803 . S
C243 C146 1.823 . S
C248 C71 0.926 . S
C253 C115 0.874 . S
C263 C145 1.516 . S
C258 C87 1.541 . S
C273 C149 1.694 . S
C268 C5 1.725 . S
C283 C114 1.254 . S
C278 C16 1.288 . S
C293 C142 1.593 . S
C288 C32 1.561 . S
C303 C111 1.222 . S
C298 C37 1.377 . S
C313 C144 1.679 . S
C308 C48 1.797 . S
C318 C65 1.314 . S
C323 C109 1.307 . S
C328 C70 1.253 . S
C333 C147 1.255 . S
C343 C116 1.497 . S
C338 C82 1.594 . S
C353 C178 1.707 . S
C348 C4 1.814 . S
C358 C54 1.954 . S
C363 C181 1.814 . S
C373 C180 1.850 . S
C368 C60 1.896 . S
C378 C76 1.362 . S
C383 C179 1.351 . S
C393 C182 1.772 . S
C388 C81 1.900 . S
C398 C26 1.805 . S
C403 C176 1.750 . S
C413 C175 1.898 . S
C408 C43 1.922 . S
C418 C21 1.339 . S
C423 C177 1.255 . S
