# Generated by pormake.
# Topology ant, (3,6)-cn, num edge types: 1
# Building blocks:
#     Node 0, Type 0, BuildingBlock: BETDAH_clean_linker_0, # of connection points: 3
#     Node 1, Type 0, BuildingBlock: BETDAH_clean_linker_0, # of connection points: 3
#     Node 2, Type 0, BuildingBlock: BETDAH_clean_linker_0, # of connection points: 3
#     Node 3, Type 0, BuildingBlock: BETDAH_clean_linker_0, # of connection points: 3
#     Node 4, Type 0, BuildingBlock: BETDAH_clean_linker_0, # of connection points: 3
#     Node 5, Type 0, BuildingBlock: BETDAH_clean_linker_0, # of connection points: 3
#     Node 6, Type 0, BuildingBlock: BETDAH_clean_linker_0, # of connection points: 3
#     Node 7, Type 0, BuildingBlock: BETDAH_clean_linker_0, # of connection points: 3
#     Node 8, Type 1, BuildingBlock: MIDCAF_clean_sbu_0, # of connection points: 6
#     Node 9, Type 1, BuildingBlock: MIDCAF_clean_sbu_0, # of connection points: 6
#     Node 10, Type 1, BuildingBlock: MIDCAF_clean_sbu_0, # of connection points: 6
#     Node 11, Type 1, BuildingBlock: MIDCAF_clean_sbu_0, # of connection points: 6
#     Edge 12, Type (0, 1), BuildingBlock: ZUJKAS_clean_linker_0, # of connection points: 2
#     Edge 13, Type (0, 1), BuildingBlock: ZUJKAS_clean_linker_0, # of connection points: 2
#     Edge 14, Type (0, 1), BuildingBlock: ZUJKAS_clean_linker_0, # of connection points: 2
#     Edge 15, Type (0, 1), BuildingBlock: ZUJKAS_clean_linker_0, # of connection points: 2
#     Edge 16, Type (0, 1), BuildingBlock: ZUJKAS_clean_linker_0, # of connection points: 2
#     Edge 17, Type (0, 1), BuildingBlock: ZUJKAS_clean_linker_0, # of connection points: 2
#     Edge 18, Type (0, 1), BuildingBlock: ZUJKAS_clean_linker_0, # of connection points: 2
#     Edge 19, Type (0, 1), BuildingBlock: ZUJKAS_clean_linker_0, # of connection points: 2
#     Edge 20, Type (0, 1), BuildingBlock: ZUJKAS_clean_linker_0, # of connection points: 2
#     Edge 21, Type (0, 1), BuildingBlock: ZUJKAS_clean_linker_0, # of connection points: 2
#     Edge 22, Type (0, 1), BuildingBlock: ZUJKAS_clean_linker_0, # of connection points: 2
#     Edge 23, Type (0, 1), BuildingBlock: ZUJKAS_clean_linker_0, # of connection points: 2
#     Edge 24, Type (0, 1), BuildingBlock: ZUJKAS_clean_linker_0, # of connection points: 2
#     Edge 25, Type (0, 1), BuildingBlock: ZUJKAS_clean_linker_0, # of connection points: 2
#     Edge 26, Type (0, 1), BuildingBlock: ZUJKAS_clean_linker_0, # of connection points: 2
#     Edge 27, Type (0, 1), BuildingBlock: ZUJKAS_clean_linker_0, # of connection points: 2
#     Edge 28, Type (0, 1), BuildingBlock: ZUJKAS_clean_linker_0, # of connection points: 2
#     Edge 29, Type (0, 1), BuildingBlock: ZUJKAS_clean_linker_0, # of connection points: 2
#     Edge 30, Type (0, 1), BuildingBlock: ZUJKAS_clean_linker_0, # of connection points: 2
#     Edge 31, Type (0, 1), BuildingBlock: ZUJKAS_clean_linker_0, # of connection points: 2
#     Edge 32, Type (0, 1), BuildingBlock: ZUJKAS_clean_linker_0, # of connection points: 2
#     Edge 33, Type (0, 1), BuildingBlock: ZUJKAS_clean_linker_0, # of connection points: 2
#     Edge 34, Type (0, 1), BuildingBlock: ZUJKAS_clean_linker_0, # of connection points: 2
#     Edge 35, Type (0, 1), BuildingBlock: ZUJKAS_clean_linker_0, # of connection points: 2
# Relax obj value: 0.057
# Max RMSD: 0.149
# Mean RMSD: 0.094
data_MOF--net-ant--node1-MIDCAF_clean_sbu_0--node2-BETDAH_clean_linker_0--edge1-ZUJKAS_clean_linker_0
_symmetry_space_group_name_H-M    P1
_symmetry_Int_Tables_number       1
_symmetry_cell_setting            triclinic
loop_
_symmetry_equiv_pos_as_xyz
'x, y, z'
_cell_length_a     37.59472
_cell_length_b     37.379899
_cell_length_c     91.446608
_cell_angle_alpha  94.201186
_cell_angle_beta   97.692761
_cell_angle_gamma 89.832456
loop_
_atom_site_label
_atom_site_type_symbol
_atom_site_fract_x
_atom_site_fract_y
_atom_site_fract_z
_atom_type_partial_charge
H0 H 0.17891 0.30005 0.04855 0.0
H1 H 0.20527 0.20018 0.0678 0.0
H2 H 0.21187 0.29871 0.09543 0.0
C3 C 0.18784 0.28548 0.05818 0.0
C4 C 0.19474 0.30417 0.07217 0.0
C5 C 0.19148 0.24799 0.05653 0.0
C6 C 0.20214 0.229 0.06908 0.0
C7 C 0.20962 0.24742 0.08315 0.0
C8 C 0.20567 0.28475 0.08458 0.0
N9 N 0.22168 0.22954 0.09608 0.0
C10 C 0.22743 0.1928 0.09631 0.0
H11 H 0.16616 0.81967 0.30248 0.0
H12 H 0.05841 0.79677 0.30994 0.0
H13 H 0.14307 0.8063 0.34662 0.0
C14 C 0.14719 0.81481 0.31006 0.0
C15 C 0.15939 0.81394 0.32525 0.0
C16 C 0.11094 0.80833 0.30444 0.0
C17 C 0.08635 0.80183 0.31425 0.0
C18 C 0.09794 0.80176 0.32954 0.0
C19 C 0.13432 0.80762 0.3349 0.0
N20 N 0.07405 0.79515 0.33984 0.0
C21 C 0.0372 0.79028 0.33621 0.0
H22 H 0.68179 0.77832 0.54773 0.0
H23 H 0.70281 0.67715 0.56655 0.0
H24 H 0.70976 0.77469 0.59483 0.0
C25 C 0.68935 0.76331 0.55736 0.0
C26 C 0.69514 0.78137 0.5715 0.0
C27 C 0.69202 0.72579 0.55554 0.0
C28 C 0.70066 0.70606 0.568 0.0
C29 C 0.70728 0.72387 0.58222 0.0
C30 C 0.70436 0.76127 0.58384 0.0
N31 N 0.71718 0.7053 0.59514 0.0
C32 C 0.72129 0.66836 0.59523 0.0
H33 H 0.6663 0.30772 0.80209 0.0
H34 H 0.55518 0.31308 0.80861 0.0
H35 H 0.63768 0.32786 0.84595 0.0
C36 C 0.64607 0.31162 0.80945 0.0
C37 C 0.65673 0.31792 0.82475 0.0
C38 C 0.60954 0.30999 0.80352 0.0
C39 C 0.58333 0.3146 0.8131 0.0
C40 C 0.59358 0.32076 0.82846 0.0
C41 C 0.63012 0.32269 0.83413 0.0
N42 N 0.56804 0.32512 0.83857 0.0
C43 C 0.53151 0.31787 0.83502 0.0
H44 H 0.06217 0.64209 0.93361 0.0
H45 H 0.07129 0.7565 0.93316 0.0
H46 H 0.02399 0.69408 0.89407 0.0
C47 C 0.05783 0.66617 0.92772 0.0
C48 C 0.04161 0.66362 0.91291 0.0
C49 C 0.06826 0.69946 0.93516 0.0
C50 C 0.06307 0.73077 0.92752 0.0
C51 C 0.04751 0.72869 0.91259 0.0
C52 C 0.03667 0.69522 0.90546 0.0
N53 N 0.04207 0.75951 0.90436 0.0
C54 C 0.05233 0.79436 0.90961 0.0
H55 H 0.61183 0.81096 0.19989 0.0
H56 H 0.71655 0.77714 0.19093 0.0
H57 H 0.63339 0.79247 0.15488 0.0
C58 C 0.63018 0.8038 0.19198 0.0
C59 C 0.61802 0.80318 0.17674 0.0
C60 C 0.66553 0.79412 0.19717 0.0
C61 C 0.68934 0.78473 0.18695 0.0
C62 C 0.67782 0.78478 0.17166 0.0
C63 C 0.64225 0.79369 0.16669 0.0
N64 N 0.70093 0.77517 0.16096 0.0
C65 C 0.73779 0.77075 0.16423 0.0
H66 H 0.53984 0.15762 0.43982 0.0
H67 H 0.56445 0.26918 0.43773 0.0
H68 H 0.53244 0.20308 0.39765 0.0
C69 C 0.54125 0.18063 0.43336 0.0
C70 C 0.53422 0.1762 0.41786 0.0
C71 C 0.5522 0.21399 0.44061 0.0
C72 C 0.55593 0.24344 0.43219 0.0
C73 C 0.5486 0.23946 0.41664 0.0
C74 C 0.53787 0.20591 0.40962 0.0
N75 N 0.55219 0.26824 0.40763 0.0
C76 C 0.56075 0.30344 0.41286 0.0
H77 H 0.11994 0.29612 0.70258 0.0
H78 H 0.2281 0.27255 0.6945 0.0
H79 H 0.14846 0.29854 0.65876 0.0
C80 C 0.13983 0.29258 0.69507 0.0
C81 C 0.12953 0.29739 0.68001 0.0
C82 C 0.17506 0.28266 0.70047 0.0
C83 C 0.20098 0.28057 0.69066 0.0
C84 C 0.19148 0.28736 0.67569 0.0
C85 C 0.15578 0.29515 0.67045 0.0
N86 N 0.21671 0.28528 0.66542 0.0
C87 C 0.25345 0.28108 0.6692 0.0
Zn88 Zn 0.20589 0.71067 0.14143 0.0
Zn89 Zn 0.12687 0.80221 0.11195 0.0
Zn90 Zn 0.16833 0.75614 0.12451 0.0
C91 C 0.14466 0.74966 0.09019 0.0
C92 C 0.18825 0.83952 0.1228 0.0
O93 O 0.143 0.74793 0.14472 0.0
O94 O 0.17532 0.70822 0.15742 0.0
C95 C 0.18815 0.67571 0.11301 0.0
O96 O 0.15654 0.73272 0.10158 0.0
O97 O 0.1326 0.78108 0.09181 0.0
O98 O 0.15536 0.84556 0.11919 0.0
O99 O 0.19933 0.8071 0.12425 0.0
O100 O 0.20471 0.67118 0.12569 0.0
O101 O 0.17266 0.70578 0.11026 0.0
O102 O 0.22177 0.7813 0.13153 0.0
O103 O 0.24935 0.74156 0.14582 0.0
C104 C 0.24964 0.77109 0.13995 0.0
O105 O 0.11724 0.76272 0.13441 0.0
O106 O 0.08128 0.79593 0.11989 0.0
C107 C 0.14919 0.72956 0.15621 0.0
C108 C 0.08631 0.77709 0.13085 0.0
Zn109 Zn 0.57102 0.6913 0.35394 0.0
Zn110 Zn 0.64983 0.78171 0.39274 0.0
Zn111 Zn 0.60808 0.73749 0.37421 0.0
C112 C 0.58292 0.81469 0.38706 0.0
C113 C 0.68606 0.77047 0.36885 0.0
O114 O 0.60386 0.68551 0.38423 0.0
O115 O 0.57241 0.65035 0.36662 0.0
C116 C 0.52647 0.75075 0.35976 0.0
O117 O 0.57592 0.78601 0.37846 0.0
O118 O 0.61321 0.81909 0.39479 0.0
O119 O 0.68884 0.78992 0.38082 0.0
O120 O 0.65819 0.75015 0.36495 0.0
O121 O 0.52722 0.72152 0.35193 0.0
O122 O 0.55425 0.76142 0.36885 0.0
O123 O 0.6335 0.73258 0.35365 0.0
O124 O 0.60259 0.69214 0.33816 0.0
C125 C 0.62794 0.71473 0.34092 0.0
O126 O 0.62194 0.7103 0.39504 0.0
O127 O 0.6592 0.74893 0.40875 0.0
C128 C 0.58902 0.65499 0.37957 0.0
C129 C 0.64251 0.71936 0.40719 0.0
Zn130 Zn 0.61591 0.30273 0.6027 0.0
Zn131 Zn 0.70813 0.19282 0.64745 0.0
Zn132 Zn 0.6796 0.23264 0.6278 0.0
C133 C 0.76071 0.2437 0.64337 0.0
C134 C 0.68797 0.14765 0.62172 0.0
O135 O 0.62502 0.25646 0.63272 0.0
O136 O 0.58841 0.29575 0.61993 0.0
C137 C 0.69559 0.2983 0.617 0.0
O138 O 0.73437 0.25507 0.63444 0.0
O139 O 0.75662 0.21627 0.6503 0.0
O140 O 0.69983 0.14662 0.63528 0.0
O141 O 0.68006 0.178 0.61632 0.0
O142 O 0.66414 0.28704 0.61248 0.0
O143 O 0.71513 0.27725 0.62491 0.0
O144 O 0.66668 0.20318 0.6061 0.0
O145 O 0.64196 0.25488 0.60468 0.0
C146 C 0.6479 0.22484 0.59818 0.0
O147 O 0.64692 0.23952 0.64578 0.0
O148 O 0.67534 0.20545 0.66227 0.0
C149 C 0.59586 0.27568 0.63073 0.0
C150 C 0.65045 0.22712 0.65864 0.0
Zn151 Zn 0.07497 0.18094 0.85367 0.0
Zn152 Zn 0.14493 0.27859 0.89249 0.0
Zn153 Zn 0.1079 0.22978 0.87419 0.0
C154 C 0.14089 0.21637 0.90772 0.0
C155 C 0.07678 0.30688 0.88472 0.0
O156 O 0.13712 0.2226 0.85477 0.0
O157 O 0.11086 0.17897 0.83942 0.0
C158 C 0.08904 0.14835 0.88073 0.0
O159 O 0.12111 0.20523 0.89563 0.0
O160 O 0.1558 0.24686 0.90885 0.0
O161 O 0.10533 0.3134 0.89346 0.0
O162 O 0.0731 0.27732 0.87647 0.0
O163 O 0.07398 0.14268 0.86756 0.0
O164 O 0.10377 0.17903 0.88521 0.0
O165 O 0.05338 0.25047 0.86719 0.0
O166 O 0.03081 0.21026 0.84941 0.0
C167 C 0.02749 0.23907 0.85725 0.0
O168 O 0.15822 0.24498 0.86561 0.0
O169 O 0.18384 0.28922 0.88072 0.0
C170 C 0.13532 0.20237 0.84265 0.0
C171 C 0.18376 0.26824 0.86926 0.0
H172 H 0.21567 0.35397 0.05435 0.0
H173 H 0.21167 0.41941 0.05771 0.0
H174 H 0.16144 0.40982 0.09696 0.0
H175 H 0.16512 0.34443 0.09365 0.0
H176 H 0.15218 0.46671 0.06013 0.0
H177 H 0.2505 0.47322 0.1113 0.0
H178 H 0.24423 0.43353 0.09873 0.0
H179 H 0.21299 0.44382 0.11168 0.0
C180 C 0.20338 0.36575 0.0636 0.0
C181 C 0.19102 0.34393 0.07382 0.0
C182 C 0.20117 0.40316 0.06551 0.0
C183 C 0.18669 0.41948 0.07769 0.0
C184 C 0.1733 0.39779 0.08763 0.0
H185 H 0.12829 0.63875 0.10038 0.0
H186 H 0.12712 0.57722 0.08892 0.0
C187 C 0.17555 0.36042 0.08575 0.0
C188 C 0.18693 0.45915 0.08037 0.0
H189 H 0.22024 0.52694 0.10541 0.0
C190 C 0.16716 0.47999 0.06999 0.0
C191 C 0.20692 0.47642 0.09312 0.0
C192 C 0.23015 0.4557 0.10429 0.0
C193 C 0.16623 0.51765 0.07222 0.0
C194 C 0.18532 0.53476 0.08523 0.0
C195 C 0.20555 0.51386 0.09544 0.0
C196 C 0.18464 0.57419 0.08882 0.0
C197 C 0.1452 0.53879 0.0606 0.0
C198 C 0.21713 0.59336 0.09219 0.0
C199 C 0.21776 0.62827 0.09879 0.0
C200 C 0.18589 0.64486 0.10198 0.0
C201 C 0.15307 0.62682 0.09763 0.0
C202 C 0.15243 0.59164 0.09112 0.0
H203 H 0.14068 0.52318 0.04969 0.0
H204 H 0.11858 0.5455 0.064 0.0
H205 H 0.15919 0.56428 0.05933 0.0
H206 H 0.2423 0.58047 0.09057 0.0
H207 H 0.24342 0.64147 0.10231 0.0
H208 H 1.00081 0.72789 0.32964 0.0
H209 H 0.93577 0.719 0.32884 0.0
H210 H 0.92297 0.83298 0.33773 0.0
H211 H 0.98776 0.84177 0.33828 0.0
H212 H 0.90007 0.73443 0.35214 0.0
H213 H 0.83937 0.81056 0.30563 0.0
H214 H 0.88613 0.79805 0.30796 0.0
H215 H 0.8714 0.83718 0.31812 0.0
C216 C 0.98381 0.751 0.33105 0.0
C217 C 0.99879 0.78548 0.33392 0.0
C218 C 0.94679 0.74595 0.33061 0.0
C219 C 0.92436 0.77538 0.33299 0.0
C220 C 0.9395 0.80999 0.33546 0.0
H221 H 0.7308 0.82565 0.36598 0.0
H222 H 0.78579 0.82305 0.35436 0.0
C223 C 0.97647 0.815 0.33588 0.0
C224 C 0.8861 0.76968 0.33469 0.0
H225 H 0.80126 0.79985 0.32424 0.0
C226 C 0.87835 0.74808 0.34581 0.0
C227 C 0.85777 0.78751 0.32643 0.0
C228 C 0.86403 0.80932 0.31376 0.0
C229 C 0.84345 0.74555 0.34949 0.0
C230 C 0.81546 0.76481 0.34173 0.0
C231 C 0.82283 0.78516 0.33017 0.0
C232 C 0.77947 0.76708 0.3466 0.0
C233 C 0.83713 0.72395 0.36224 0.0
C234 C 0.75719 0.73669 0.34569 0.0
C235 C 0.72576 0.73809 0.35237 0.0
C236 C 0.71612 0.76997 0.35996 0.0
C237 C 0.73763 0.80073 0.36022 0.0
C238 C 0.76892 0.79934 0.35353 0.0
H239 H 0.86261 0.71485 0.36842 0.0
H240 H 0.82212 0.74001 0.37006 0.0
H241 H 0.82069 0.69989 0.35795 0.0
H242 H 0.76483 0.71159 0.34032 0.0
H243 H 0.70993 0.71387 0.35218 0.0
H244 H 0.68039 0.61517 0.58013 0.0
H245 H 0.68546 0.55072 0.5838 0.0
H246 H 0.77731 0.57222 0.61696 0.0
H247 H 0.77192 0.63665 0.6134 0.0
H248 H 0.74419 0.50252 0.58156 0.0
H249 H 0.70716 0.51802 0.6386 0.0
H250 H 0.69989 0.55297 0.62593 0.0
H251 H 0.74412 0.54523 0.63522 0.0
C252 C 0.70173 0.60592 0.58811 0.0
C253 C 0.72572 0.6304 0.59654 0.0
C254 C 0.70465 0.56926 0.59019 0.0
C255 C 0.73147 0.5568 0.60079 0.0
C256 C 0.7561 0.58135 0.60891 0.0
H257 H 0.75118 0.33945 0.63194 0.0
H258 H 0.7664 0.40144 0.62772 0.0
C259 C 0.75314 0.61799 0.60682 0.0
C260 C 0.73294 0.51823 0.60359 0.0
H261 H 0.72022 0.45971 0.62943 0.0
C262 C 0.73919 0.49313 0.59205 0.0
C263 C 0.72666 0.50611 0.61733 0.0
C264 C 0.7188 0.53187 0.62998 0.0
C265 C 0.73872 0.45614 0.59381 0.0
C266 C 0.73116 0.44398 0.60736 0.0
C267 C 0.72615 0.46911 0.61907 0.0
C268 C 0.72469 0.40554 0.60916 0.0
C269 C 0.74609 0.4304 0.58109 0.0
C270 C 0.69628 0.3874 0.60015 0.0
C271 C 0.68767 0.35224 0.60252 0.0
C272 C 0.70714 0.33447 0.61401 0.0
C273 C 0.73605 0.35233 0.62289 0.0
C274 C 0.74462 0.38774 0.62053 0.0
H275 H 0.76258 0.44324 0.57369 0.0
H276 H 0.76017 0.4061 0.5851 0.0
H277 H 0.72025 0.42189 0.57442 0.0
H278 H 0.68003 0.40082 0.59154 0.0
H279 H 0.66533 0.33914 0.59546 0.0
H280 H 0.68859 0.28827 0.84975 0.0
H281 H 0.75265 0.28462 0.85867 0.0
H282 H 0.77706 0.34265 0.82215 0.0
H283 H 0.71303 0.34775 0.81351 0.0
H284 H 0.80058 0.24998 0.84388 0.0
H285 H 0.8443 0.39149 0.8559 0.0
H286 H 0.79761 0.37815 0.8534 0.0
H287 H 0.82049 0.38337 0.8376 0.0
C288 C 0.7075 0.30112 0.84383 0.0
C289 C 0.69557 0.31823 0.83088 0.0
C290 C 0.74417 0.29884 0.84891 0.0
C291 C 0.76975 0.31374 0.84121 0.0
C292 C 0.75791 0.33161 0.82849 0.0
H293 H 0.98006 0.23888 0.83214 0.0
H294 H 0.91853 0.26093 0.82949 0.0
C295 C 0.72124 0.33401 0.82342 0.0
C296 C 0.80867 0.30724 0.84552 0.0
H297 H 0.89103 0.34832 0.85283 0.0
C298 C 0.82023 0.27156 0.84603 0.0
C299 C 0.83441 0.33536 0.84849 0.0
C300 C 0.82356 0.37425 0.84898 0.0
C301 C 0.85676 0.26317 0.8488 0.0
C302 C 0.88259 0.29115 0.85088 0.0
C303 C 0.87115 0.32692 0.85103 0.0
C304 C 0.92147 0.28312 0.85213 0.0
C305 C 0.86752 0.22429 0.84926 0.0
C306 C 0.94403 0.28975 0.86559 0.0
C307 C 0.97943 0.27714 0.86715 0.0
C308 C 0.99269 0.25796 0.85523 0.0
C309 C 0.97056 0.25333 0.84156 0.0
C310 C 0.93539 0.26591 0.84002 0.0
H311 H 0.84485 0.20698 0.85117 0.0
H312 H 0.87619 0.21482 0.83851 0.0
H313 H 0.89032 0.2209 0.8581 0.0
H314 H 0.93372 0.30302 0.87507 0.0
H315 H 0.99562 0.28059 0.87788 0.0
H316 H 0.01273 0.60668 0.92472 0.0
H317 H 0.00313 0.54574 0.91368 0.0
H318 H 0.03141 0.57866 0.87247 0.0
H319 H 0.04429 0.63921 0.88386 0.0
H320 H 0.96192 0.51182 0.89151 0.0
H321 H 0.10362 0.5023 0.88017 0.0
H322 H 0.08758 0.54021 0.89064 0.0
H323 H 0.07788 0.53621 0.87076 0.0
C324 C 0.01745 0.60101 0.91336 0.0
C325 C 0.03048 0.62782 0.90537 0.0
C326 C 0.01136 0.56613 0.90697 0.0
C327 C 0.01749 0.55723 0.89235 0.0
C328 C 0.02761 0.58453 0.88393 0.0
H329 H 0.04701 0.33424 0.85916 0.0
H330 H 0.02101 0.39444 0.85728 0.0
C331 C 0.03448 0.61937 0.89042 0.0
C332 C 0.01585 0.51891 0.88655 0.0
H333 H 0.06849 0.45045 0.87521 0.0
C334 C 0.98506 0.49853 0.88772 0.0
C335 C 0.04604 0.50139 0.8816 0.0
C336 C 0.08076 0.521 0.88082 0.0
C337 C 0.98441 0.46105 0.88485 0.0
C338 C 0.01508 0.44363 0.88054 0.0
C339 C 0.04487 0.4641 0.87838 0.0
C340 C 0.01987 0.40436 0.88082 0.0
C341 C 0.9516 0.44006 0.88703 0.0
C342 C 0.0265 0.38964 0.89459 0.0
C343 C 0.04193 0.35579 0.89569 0.0
C344 C 0.05035 0.33589 0.88302 0.0
C345 C 0.0403 0.34898 0.86906 0.0
C346 C 0.02556 0.38332 0.86798 0.0
H347 H 0.92745 0.45732 0.88676 0.0
H348 H 0.94634 0.41753 0.87838 0.0
H349 H 0.95624 0.42849 0.89795 0.0
H350 H 0.02283 0.40564 0.90464 0.0
H351 H 0.04974 0.3463 0.90657 0.0
H352 H 0.78562 0.82222 0.16175 0.0
H353 H 0.85058 0.81501 0.16203 0.0
H354 H 0.84129 0.7041 0.17128 0.0
H355 H 0.77601 0.71129 0.17077 0.0
H356 H 0.90666 0.79186 0.18329 0.0
H357 H 0.88487 0.69888 0.13233 0.0
H358 H 0.84908 0.72547 0.13869 0.0
H359 H 0.86453 0.68647 0.14794 0.0
C360 C 0.79765 0.79649 0.16404 0.0
C361 C 0.77626 0.76724 0.16618 0.0
C362 C 0.83465 0.79239 0.16424 0.0
C363 C 0.85069 0.75891 0.16651 0.0
C364 C 0.82938 0.73001 0.16931 0.0
H365 H 0.06841 0.71665 0.14353 0.0
H366 H 0.01507 0.70764 0.15581 0.0
C367 C 0.79227 0.73414 0.16908 0.0
C368 C 0.88912 0.75413 0.16479 0.0
H369 H 0.9438 0.71751 0.14081 0.0
C370 C 0.91491 0.77512 0.17416 0.0
C371 C 0.89988 0.73209 0.15292 0.0
C372 C 0.87324 0.70956 0.1423 0.0
C373 C 0.95086 0.77594 0.17153 0.0
C374 C 0.96102 0.75571 0.15911 0.0
C375 C 0.93583 0.73295 0.15033 0.0
C376 C 0.99571 0.76183 0.15369 0.0
C377 C 0.97747 0.7993 0.18177 0.0
C378 C 1.00238 0.79521 0.14849 0.0
C379 C 0.03239 0.80024 0.1414 0.0
C380 C 0.05648 0.77208 0.13948 0.0
C381 C 0.05043 0.7389 0.14506 0.0
C382 C 0.02005 0.73373 0.15204 0.0
H383 H 0.96913 0.80357 0.19297 0.0
H384 H 0.0047 0.78733 0.18279 0.0
H385 H 0.97903 0.82591 0.17724 0.0
H386 H 0.98356 0.81702 0.14939 0.0
H387 H 0.03644 0.82605 0.13718 0.0
H388 H 0.62545 0.33451 0.42216 0.0
H389 H 0.63903 0.39918 0.42409 0.0
H390 H 0.52664 0.42112 0.41176 0.0
H391 H 0.5132 0.35683 0.41015 0.0
H392 H 0.62886 0.44053 0.40138 0.0
H393 H 0.55161 0.49828 0.44445 0.0
H394 H 0.56087 0.45087 0.4423 0.0
H395 H 0.52348 0.4699 0.43107 0.0
C396 C 0.60368 0.3534 0.42029 0.0
C397 C 0.56831 0.34116 0.41616 0.0
C398 C 0.6114 0.39022 0.42137 0.0
C399 C 0.58379 0.41515 0.41834 0.0
C400 C 0.54827 0.40264 0.41461 0.0
H401 H 0.53622 0.60755 0.38158 0.0
H402 H 0.54076 0.55241 0.39447 0.0
C403 C 0.5406 0.36592 0.41358 0.0
C404 C 0.5922 0.45357 0.41714 0.0
H405 H 0.56318 0.53827 0.42566 0.0
C406 C 0.6153 0.46202 0.40701 0.0
C407 C 0.57466 0.48165 0.42453 0.0
C408 C 0.55159 0.47469 0.43631 0.0
C409 C 0.61903 0.49737 0.40317 0.0
C410 C 0.59936 0.52501 0.40975 0.0
C411 C 0.57812 0.51698 0.4206 0.0
C412 C 0.59629 0.56092 0.40385 0.0
C413 C 0.64193 0.50454 0.39133 0.0
C414 C 0.62583 0.58443 0.40516 0.0
C415 C 0.62326 0.61609 0.39776 0.0
C416 C 0.5911 0.62456 0.38904 0.0
C417 C 0.5613 0.60162 0.38825 0.0
C418 C 0.56381 0.57024 0.39566 0.0
H419 H 0.65252 0.47948 0.38627 0.0
H420 H 0.62617 0.51898 0.38246 0.0
H421 H 0.66503 0.52188 0.39621 0.0
H422 H 0.65109 0.57774 0.41149 0.0
H423 H 0.64674 0.63313 0.39835 0.0
H424 H 0.07193 0.26346 0.68814 0.0
H425 H 0.00866 0.27009 0.67886 0.0
H426 H 0.03564 0.34676 0.64906 0.0
H427 H 0.0996 0.34115 0.65864 0.0
H428 H 0.96826 0.34381 0.67708 0.0
H429 H 0.97124 0.25926 0.6244 0.0
H430 H 0.00389 0.25274 0.64034 0.0
H431 H 0.00573 0.2925 0.63065 0.0
C432 C 0.06458 0.28227 0.6798 0.0
C433 C 0.09094 0.30208 0.67426 0.0
C434 C 0.02837 0.2858 0.67444 0.0
C435 C 0.01761 0.30888 0.66331 0.0
C436 C 0.04358 0.32872 0.65765 0.0
H437 H 0.78976 0.2864 0.62464 0.0
H438 H 0.85073 0.3121 0.62808 0.0
C439 C 0.08004 0.32536 0.66309 0.0
C440 C 0.97899 0.31134 0.65776 0.0
H441 H 0.91464 0.27179 0.63181 0.0
C442 C 0.95647 0.32885 0.66699 0.0
C443 C 0.96384 0.29205 0.64454 0.0
C444 C 0.98721 0.27297 0.63432 0.0
C445 C 0.91902 0.32564 0.66382 0.0
C446 C 0.90387 0.3037 0.65128 0.0
C447 C 0.92633 0.2885 0.64144 0.0
C448 C 0.86594 0.2916 0.64954 0.0
C449 C 0.89604 0.34451 0.67426 0.0
C450 C 0.85443 0.27154 0.66041 0.0
C451 C 0.81995 0.25689 0.65849 0.0
C452 C 0.79611 0.26192 0.64561 0.0
C453 C 0.80736 0.28254 0.63478 0.0
C454 C 0.84217 0.29709 0.63669 0.0
H455 H 0.90956 0.36916 0.67988 0.0
H456 H 0.86957 0.3519 0.66837 0.0
H457 H 0.89146 0.32641 0.68293 0.0
H458 H 0.87257 0.26624 0.67025 0.0
H459 H 0.81217 0.24111 0.66703 0.0
H460 H 0.30113 0.33174 0.66565 0.0
H461 H 0.366 0.32407 0.66586 0.0
H462 H 0.35699 0.21519 0.67778 0.0
H463 H 0.29177 0.2228 0.67734 0.0
H464 H 0.42357 0.30277 0.68711 0.0
H465 H 0.39674 0.20462 0.63795 0.0
H466 H 0.36193 0.23253 0.64435 0.0
H467 H 0.37774 0.1945 0.65419 0.0
C468 C 0.31322 0.30643 0.66856 0.0
C469 C 0.29192 0.27778 0.67142 0.0
C470 C 0.35017 0.30207 0.66872 0.0
C471 C 0.36621 0.26894 0.67167 0.0
C472 C 0.34505 0.24082 0.6753 0.0
H473 H 0.5735 0.21548 0.64222 0.0
H474 H 0.52296 0.21028 0.65636 0.0
C475 C 0.30798 0.24518 0.6751 0.0
C476 C 0.40425 0.26332 0.6695 0.0
H477 H 0.45605 0.22297 0.64526 0.0
C478 C 0.43086 0.28487 0.67812 0.0
C479 C 0.41372 0.23983 0.65782 0.0
C480 C 0.38612 0.21666 0.64795 0.0
C481 C 0.46641 0.28471 0.67495 0.0
C482 C 0.47535 0.26284 0.66269 0.0
C483 C 0.44922 0.23968 0.65467 0.0
C484 C 0.50979 0.26674 0.65668 0.0
C485 C 0.49367 0.30871 0.68456 0.0
C486 C 0.51947 0.30021 0.65232 0.0
C487 C 0.54841 0.30324 0.64439 0.0
C488 C 0.56824 0.27285 0.64063 0.0
C489 C 0.55909 0.23945 0.64525 0.0
C490 C 0.53021 0.23645 0.65328 0.0
H491 H 0.48824 0.31055 0.69624 0.0
H492 H 0.52149 0.29909 0.6842 0.0
H493 H 0.49162 0.33617 0.68067 0.0
H494 H 0.50356 0.32378 0.65441 0.0
H495 H 0.55471 0.32923 0.64084 0.0
H496 H 0.55849 0.78246 0.18832 0.0
H497 H 0.49565 0.79363 0.17942 0.0
H498 H 0.52708 0.85062 0.14386 0.0
H499 H 0.59049 0.84054 0.15295 0.0
H500 H 0.46063 0.86628 0.17324 0.0
H501 H 0.45553 0.76553 0.12486 0.0
H502 H 0.48922 0.76331 0.14082 0.0
H503 H 0.49174 0.79783 0.12838 0.0
C504 C 0.55225 0.79797 0.17876 0.0
C505 C 0.5797 0.81072 0.1714 0.0
C506 C 0.51625 0.80414 0.17365 0.0
C507 C 0.50681 0.82287 0.16099 0.0
C508 C 0.53392 0.83594 0.15362 0.0
H509 H 0.28169 0.80689 0.1201 0.0
H510 H 0.34318 0.83135 0.1238 0.0
C511 C 0.57008 0.82996 0.15879 0.0
C512 C 0.46838 0.82738 0.15542 0.0
H513 H 0.40088 0.78913 0.13061 0.0
C514 C 0.44756 0.84999 0.16374 0.0
C515 C 0.45156 0.80644 0.14292 0.0
C516 C 0.47293 0.78176 0.13367 0.0
C517 C 0.41003 0.85074 0.16036 0.0
C518 C 0.39291 0.82759 0.14859 0.0
C519 C 0.41398 0.80687 0.13964 0.0
C520 C 0.35376 0.81999 0.14686 0.0
C521 C 0.38903 0.87555 0.1697 0.0
C522 C 0.33906 0.80622 0.15862 0.0
C523 C 0.30414 0.79261 0.15653 0.0
C524 C 0.2831 0.79242 0.14264 0.0
C525 C 0.29701 0.80777 0.13102 0.0
C526 C 0.33222 0.82134 0.13309 0.0
H527 H 0.40486 0.9001 0.17391 0.0
H528 H 0.36329 0.88358 0.1634 0.0
H529 H 0.38307 0.86172 0.17944 0.0
H530 H 0.35533 0.80392 0.16922 0.0
H531 H 0.29414 0.78061 0.16563 0.0
H532 H 0.47926 0.36422 0.8404 0.0
H533 H 0.41573 0.34974 0.84075 0.0
H534 H 0.43507 0.23982 0.82622 0.0
H535 H 0.49883 0.25431 0.82606 0.0
H536 H 0.36019 0.31846 0.81911 0.0
H537 H 0.39691 0.23271 0.86607 0.0
H538 H 0.42854 0.26311 0.86024 0.0
H539 H 0.41725 0.22135 0.84966 0.0
C540 C 0.46968 0.33715 0.83705 0.0
C541 C 0.49353 0.31029 0.83322 0.0
C542 C 0.4335 0.3289 0.83724 0.0
C543 C 0.42078 0.29361 0.83369 0.0
C544 C 0.44443 0.26709 0.82919 0.0
H545 H 0.2166 0.21263 0.85544 0.0
H546 H 0.27088 0.21542 0.84333 0.0
C547 C 0.48068 0.27538 0.82902 0.0
C548 C 0.38352 0.2844 0.8358 0.0
H549 H 0.33564 0.24029 0.85822 0.0
C550 C 0.35476 0.30105 0.82754 0.0
C551 C 0.37646 0.26157 0.84677 0.0
C552 C 0.40633 0.24379 0.8563 0.0
C553 C 0.3192 0.29615 0.83022 0.0
C554 C 0.31237 0.2746 0.84164 0.0
C555 C 0.34094 0.25674 0.84944 0.0
C556 C 0.27663 0.27313 0.84679 0.0
C557 C 0.28934 0.31446 0.82094 0.0
C558 C 0.26165 0.30462 0.85261 0.0
C559 C 0.23064 0.30306 0.85942 0.0
C560 C 0.21392 0.26999 0.86051 0.0
C561 C 0.22838 0.23855 0.85437 0.0
C562 C 0.25951 0.2401 0.84757 0.0
H563 H 0.29647 0.31842 0.80976 0.0
H564 H 0.26392 0.29884 0.81972 0.0
H565 H 0.28475 0.34129 0.82638 0.0
H566 H 0.27483 0.3303 0.85247 0.0
H567 H 0.22022 0.32767 0.86418 0.0
H568 H 0.19148 0.84867 0.35133 0.0
H569 H 0.2558 0.85281 0.36061 0.0
H570 H 0.27986 0.79267 0.32115 0.0
H571 H 0.21608 0.78721 0.31204 0.0
H572 H 0.30471 0.79121 0.36464 0.0
H573 H 0.34564 0.88444 0.32546 0.0
H574 H 0.29996 0.881 0.3294 0.0
H575 H 0.31713 0.84828 0.31678 0.0
C576 C 0.21044 0.83619 0.34465 0.0
C577 C 0.19845 0.81783 0.33086 0.0
C578 C 0.24717 0.83883 0.34993 0.0
C579 C 0.27254 0.82361 0.34144 0.0
C580 C 0.26073 0.80533 0.32772 0.0
H581 H 0.47749 0.75262 0.33535 0.0
H582 H 0.41789 0.7789 0.33336 0.0
C583 C 0.22416 0.80237 0.3225 0.0
C584 C 0.3114 0.8247 0.34706 0.0
H585 H 0.39219 0.84812 0.33731 0.0
C586 C 0.32397 0.80435 0.35895 0.0
C587 C 0.33629 0.84203 0.33962 0.0
C588 C 0.32414 0.86547 0.32718 0.0
C589 C 0.36087 0.79837 0.36281 0.0
C590 C 0.38574 0.81379 0.3547 0.0
C591 C 0.37314 0.83628 0.34351 0.0
C592 C 0.42375 0.80216 0.35593 0.0
C593 C 0.3727 0.7734 0.37475 0.0
C594 C 0.44742 0.80736 0.3692 0.0
C595 C 0.48171 0.792 0.3704 0.0
C596 C 0.49281 0.77156 0.35832 0.0
C597 C 0.46966 0.76805 0.34489 0.0
C598 C 0.43561 0.78323 0.3437 0.0
H599 H 0.34965 0.75973 0.37847 0.0
H600 H 0.39105 0.75266 0.37076 0.0
H601 H 0.38752 0.78894 0.38447 0.0
H602 H 0.43901 0.82233 0.37872 0.0
H603 H 0.49875 0.79466 0.38094 0.0
H604 H 0.66444 0.82028 0.59299 0.0
H605 H 0.65914 0.88528 0.59653 0.0
H606 H 0.71021 0.89758 0.55767 0.0
H607 H 0.717 0.83241 0.55438 0.0
H608 H 0.7381 0.94314 0.58076 0.0
H609 H 0.5902 0.9517 0.57433 0.0
H610 H 0.60655 0.9213 0.58793 0.0
H611 H 0.61324 0.91142 0.56891 0.0
C612 C 0.67474 0.83674 0.58522 0.0
C613 C 0.69117 0.82104 0.5734 0.0
C614 C 0.67116 0.87393 0.58713 0.0
C615 C 0.68352 0.8963 0.57717 0.0
C616 C 0.70006 0.88081 0.56538 0.0
H617 H 0.69246 0.1342 0.592 0.0
H618 H 0.68902 0.07519 0.57794 0.0
C619 C 0.70375 0.84354 0.56348 0.0
C620 C 0.68098 0.93588 0.57969 0.0
H621 H 0.62273 1.00259 0.58764 0.0
C622 C 0.71279 0.95633 0.58191 0.0
C623 C 0.64788 0.95315 0.58106 0.0
C624 C 0.61252 0.93328 0.57777 0.0
C625 C 0.71264 0.99302 0.58651 0.0
C626 C 0.67986 0.00961 0.58886 0.0
C627 C 0.64783 0.98971 0.58583 0.0
C628 C 0.67909 0.04579 0.59653 0.0
C629 C 0.74772 0.0134 0.58973 0.0
C630 C 0.67396 0.04867 0.61145 0.0
C631 C 0.67601 0.082 0.61941 0.0
C632 C 0.68283 0.11329 0.61257 0.0
C633 C 0.6867 0.11062 0.59746 0.0
C634 C 0.68502 0.07698 0.58948 0.0
H635 H 0.77109 0.99618 0.5879 0.0
H636 H 0.74716 0.036 0.58248 0.0
H637 H 0.7515 0.02497 0.60137 0.0
H638 H 0.66935 0.02491 0.61707 0.0
H639 H 0.67267 0.08319 0.63102 0.0
H640 H 0.29081 0.16103 0.1043 0.0
H641 H 0.30055 0.09732 0.10861 0.0
H642 H 0.18708 0.07684 0.09663 0.0
H643 H 0.17758 0.14027 0.09211 0.0
H644 H 0.27327 0.05886 0.12871 0.0
H645 H 0.23005 0.99679 0.07247 0.0
H646 H 0.23983 0.04415 0.07602 0.0
H647 H 0.19661 0.02664 0.07849 0.0
C648 C 0.26817 0.14263 0.10238 0.0
C649 C 0.23355 0.15505 0.09777 0.0
C650 C 0.2737 0.10639 0.10487 0.0
C651 C 0.24465 0.08215 0.10271 0.0
C652 C 0.21003 0.09479 0.098 0.0
H653 H 0.18482 0.90033 0.14019 0.0
H654 H 0.21049 0.95822 0.13648 0.0
C655 C 0.20455 0.13097 0.0955 0.0
C656 C 0.24985 0.04417 0.10625 0.0
H657 H 0.22814 0.95857 0.09254 0.0
C658 C 0.26405 0.03684 0.12072 0.0
C659 C 0.23871 0.01531 0.09578 0.0
C660 C 0.22583 0.02108 0.07978 0.0
C661 C 0.26489 1.00169 0.12526 0.0
C662 C 0.25057 0.97326 0.11514 0.0
C663 C 0.23887 0.98031 0.10039 0.0
C664 C 0.24277 0.93727 0.11992 0.0
C665 C 0.28033 0.99553 0.14095 0.0
C666 C 0.25296 0.90585 0.11214 0.0
C667 C 0.23813 0.87258 0.11427 0.0
C668 C 0.21295 0.87037 0.1242 0.0
C669 C 0.20482 0.90131 0.13272 0.0
C670 C 0.21959 0.93444 0.13061 0.0
H671 H 0.30187 0.01539 0.14519 0.0
H672 H 0.25887 0.99901 0.14816 0.0
H673 H 0.29145 0.9681 0.14185 0.0
H674 H 0.27045 0.90742 0.1037 0.0
H675 H 0.24373 0.84934 0.10718 0.0
H676 H 0.48959 0.12498 0.42563 0.0
H677 H 0.48423 0.06205 0.41607 0.0
H678 H 0.55332 0.08247 0.38356 0.0
H679 H 0.55982 0.1451 0.39332 0.0
H680 H 0.46578 0.02247 0.38653 0.0
H681 H 0.60833 0.01186 0.41179 0.0
H682 H 0.58095 0.05002 0.41592 0.0
H683 H 0.59921 0.04542 0.39871 0.0
C684 C 0.50334 0.11617 0.41633 0.0
C685 C 0.52566 0.13993 0.41041 0.0
C686 C 0.4999 0.08032 0.41079 0.0
C687 C 0.51865 0.06763 0.39922 0.0
C688 C 0.53876 0.0918 0.39255 0.0
H689 H 0.54763 0.84794 0.36379 0.0
H690 H 0.52298 0.90894 0.36535 0.0
C691 C 0.54232 0.12763 0.39811 0.0
C692 C 0.52147 0.02853 0.39569 0.0
H693 H 0.58067 0.95961 0.39983 0.0
C694 C 0.49088 0.00862 0.38932 0.0
C695 C 0.55419 0.01063 0.39954 0.0
C696 C 0.58753 0.0304 0.40697 0.0
C697 C 0.49233 0.97104 0.38674 0.0
C698 C 0.52505 0.95334 0.39068 0.0
C699 C 0.55558 0.97338 0.39684 0.0
C700 C 0.52875 0.91386 0.38928 0.0
C701 C 0.45891 0.95033 0.38023 0.0
C702 C 0.53856 0.89601 0.40216 0.0
C703 C 0.55296 0.86168 0.40128 0.0
C704 C 0.55738 0.84446 0.38751 0.0
C705 C 0.54406 0.86067 0.37452 0.0
C706 C 0.52999 0.89543 0.3754 0.0
H707 H 0.43471 0.96756 0.37931 0.0
H708 H 0.46234 0.93845 0.36902 0.0
H709 H 0.45454 0.9279 0.38713 0.0
H710 H 0.53791 0.90984 0.41296 0.0
H711 H 0.56317 0.84966 0.41143 0.0
H712 H 0.11803 0.82405 0.9184 0.0
H713 H 0.13283 0.88852 0.92098 0.0
H714 H 0.02059 0.91302 0.90997 0.0
H715 H 0.00597 0.84892 0.90771 0.0
H716 H 0.12277 0.93285 0.89931 0.0
H717 H 0.04776 0.98653 0.94381 0.0
H718 H 0.05602 0.93916 0.94063 0.0
H719 H 0.01881 0.96006 0.93002 0.0
C720 C 0.09659 0.84342 0.91693 0.0
C721 C 0.0609 0.83193 0.91302 0.0
C722 C 0.105 0.88014 0.91836 0.0
C723 C 0.07778 0.90579 0.91595 0.0
C724 C 0.04198 0.89399 0.91235 0.0
H725 H 0.03474 0.1026 0.88249 0.0
H726 H 0.03767 0.04664 0.89477 0.0
C727 C 0.03363 0.85737 0.91096 0.0
C728 C 0.08674 0.94442 0.91545 0.0
H729 H 0.05978 0.02876 0.92593 0.0
C730 C 0.1098 0.95386 0.90545 0.0
C731 C 0.06999 0.97194 0.9235 0.0
C732 C 0.04709 0.96387 0.93521 0.0
C733 C 0.11429 0.98977 0.90243 0.0
C734 C 0.09543 0.01699 0.90968 0.0
C735 C 0.07416 0.00783 0.92036 0.0
C736 C 0.09303 0.05379 0.90458 0.0
C737 C 0.13715 0.99815 0.89073 0.0
C738 C 0.12289 0.07705 0.90646 0.0
C739 C 0.12118 0.10937 0.89948 0.0
C740 C 0.08964 0.11858 0.89052 0.0
C741 C 0.05937 0.0961 0.88934 0.0
C742 C 0.06097 0.06418 0.89638 0.0
H743 H 0.14756 0.97355 0.88523 0.0
H744 H 0.12139 0.01352 0.88217 0.0
H745 H 0.16035 0.01508 0.89586 0.0
H746 H 0.14785 0.06954 0.91281 0.0
H747 H 0.14499 0.12607 0.90041 0.0
H748 H 0.14961 0.18829 0.04769 0.0
H749 H 0.13506 0.1603 0.02235 0.0
H750 H 0.20342 0.23713 0.00657 0.0
H751 H 0.21777 0.26526 0.03168 0.0
H752 H 0.11087 0.21601 0.99506 0.0
H753 H 0.22321 0.12029 0.99115 0.0
H754 H 0.20459 0.13094 0.00819 0.0
H755 H 0.23321 0.16269 0.0016 0.0
C756 C 0.16185 0.19881 0.03882 0.0
C757 C 0.18461 0.22907 0.04159 0.0
C758 C 0.1535 0.18287 0.0244 0.0
C759 C 0.16835 0.19664 0.01269 0.0
C760 C 0.19188 0.22609 0.01552 0.0
H761 H 0.19885 0.21485 0.92851 0.0
H762 H 0.20028 0.19652 0.95353 0.0
C763 C 0.19988 0.24223 0.02982 0.0
C764 C 0.1576 0.18268 0.9972 0.0
H765 H 0.19182 0.1379 0.96845 0.0
C766 C 0.12777 0.19804 0.98921 0.0
C767 C 0.17991 0.15935 0.98977 0.0
C768 C 0.212 0.14207 0.99807 0.0
C769 C 0.12149 0.19335 0.9737 0.0
C770 C 0.14537 0.17196 0.96607 0.0
C771 C 0.17343 0.1541 0.97427 0.0
C772 C 0.1464 0.17436 0.94999 0.0
C773 C 0.09141 0.2141 0.96563 0.0
C774 C 0.11638 0.1661 0.93934 0.0
C775 C 0.11537 0.17706 0.92494 0.0
C776 C 0.14459 0.19587 0.92103 0.0
C777 C 0.17583 0.20065 0.93127 0.0
C778 C 0.17673 0.19002 0.94558 0.0
H779 H 0.07857 0.23311 0.97321 0.0
H780 H 0.10153 0.22957 0.95711 0.0
H781 H 0.07046 0.19514 0.95998 0.0
H782 H 0.09297 0.15325 0.94241 0.0
H783 H 0.09089 0.17319 0.91727 0.0
H784 H 0.12671 0.8553 0.28472 0.0
H785 H 0.11799 0.84598 0.25772 0.0
H786 H 0.06263 0.7463 0.2605 0.0
H787 H 0.071 0.7557 0.28753 0.0
H788 H 0.14908 0.78862 0.24471 0.0
H789 H 0.00301 0.78752 0.22487 0.0
H790 H 0.02168 0.80683 0.24297 0.0
H791 H 0.01573 0.75908 0.23969 0.0
C792 C 0.11197 0.83181 0.27954 0.0
C793 C 0.09979 0.80608 0.28821 0.0
C794 C 0.10685 0.82659 0.26413 0.0
C795 C 0.08948 0.79555 0.25707 0.0
C796 C 0.07543 0.77081 0.26567 0.0
H797 H 0.13939 0.684 0.17729 0.0
H798 H 0.11751 0.69959 0.20096 0.0
C799 C 0.08036 0.77614 0.28112 0.0
C800 C 0.09129 0.78648 0.24112 0.0
H801 H 0.04138 0.76359 0.20765 0.0
C802 C 0.12547 0.78354 0.23661 0.0
C803 C 0.06047 0.77973 0.23056 0.0
C804 C 0.02311 0.78375 0.23471 0.0
C805 C 0.12977 0.77347 0.22192 0.0
C806 C 0.09911 0.76572 0.21145 0.0
C807 C 0.06479 0.76926 0.21579 0.0
C808 C 0.10317 0.75385 0.19601 0.0
C809 C 0.1672 0.77087 0.21766 0.0
C810 C 0.10099 0.77887 0.18523 0.0
C811 C 0.11377 0.77015 0.17175 0.0
C812 C 0.12862 0.7362 0.16884 0.0
C813 C 0.12817 0.71038 0.17924 0.0
C814 C 0.11549 0.71914 0.19271 0.0
H815 H 0.18775 0.78261 0.22657 0.0
H816 H 0.17383 0.74225 0.21532 0.0
H817 H 0.16877 0.78483 0.20745 0.0
H818 H 0.09186 0.8059 0.18767 0.0
H819 H 0.11429 0.79081 0.16408 0.0
H820 H 0.6435 0.67258 0.54501 0.0
H821 H 0.62891 0.64796 0.51915 0.0
H822 H 0.71212 0.7138 0.50657 0.0
H823 H 0.72616 0.7389 0.53218 0.0
H824 H 0.61195 0.70167 0.49456 0.0
H825 H 0.72169 0.6056 0.48669 0.0
H826 H 0.70597 0.6157 0.50439 0.0
H827 H 0.73495 0.64672 0.49752 0.0
C828 C 0.659 0.6812 0.53672 0.0
C829 C 0.68584 0.70765 0.54048 0.0
C830 C 0.65068 0.66718 0.52202 0.0
C831 C 0.66974 0.67883 0.51105 0.0
C832 C 0.69747 0.70416 0.51494 0.0
H833 H 0.7001 0.71397 0.42795 0.0
H834 H 0.70103 0.69141 0.45225 0.0
C835 C 0.70532 0.7186 0.52952 0.0
C836 C 0.65858 0.66822 0.49522 0.0
H837 H 0.69189 0.63028 0.46489 0.0
C838 C 0.62865 0.68519 0.48801 0.0
C839 C 0.68056 0.64672 0.48685 0.0
C840 C 0.71249 0.62734 0.49423 0.0
C841 C 0.62215 0.68425 0.4725 0.0
C842 C 0.64577 0.66484 0.46403 0.0
C843 C 0.67377 0.64511 0.47134 0.0
C844 C 0.64652 0.67086 0.44819 0.0
C845 C 0.59216 0.70687 0.46545 0.0
C846 C 0.61617 0.66521 0.43747 0.0
C847 C 0.61539 0.6788 0.42353 0.0
C848 C 0.64525 0.69742 0.42008 0.0
C849 C 0.67661 0.69993 0.43034 0.0
C850 C 0.67722 0.68685 0.44423 0.0
H851 H 0.57991 0.72434 0.47376 0.0
H852 H 0.60215 0.72419 0.4575 0.0
H853 H 0.57076 0.68912 0.45932 0.0
H854 H 0.59245 0.65214 0.44014 0.0
H855 H 0.59078 0.67673 0.41586 0.0
H856 H 0.63661 0.25975 0.78497 0.0
H857 H 0.62492 0.25318 0.75795 0.0
H858 H 0.54765 0.33853 0.75822 0.0
H859 H 0.55945 0.34559 0.78541 0.0
H860 H 0.53783 0.25675 0.73681 0.0
H861 H 0.64901 0.35326 0.73424 0.0
H862 H 0.65435 0.32292 0.74881 0.0
H863 H 0.62075 0.35706 0.74878 0.0
C864 C 0.61694 0.27697 0.7793 0.0
C865 C 0.59924 0.30345 0.78729 0.0
C866 C 0.61011 0.273 0.7639 0.0
C867 C 0.58547 0.29538 0.75617 0.0
C868 C 0.5666 0.32091 0.76406 0.0
H869 H 0.62593 0.29491 0.66452 0.0
H870 H 0.59706 0.31651 0.686 0.0
C871 C 0.57335 0.32485 0.77954 0.0
C872 C 0.58244 0.29372 0.73987 0.0
H873 H 0.63015 0.31586 0.71268 0.0
C874 C 0.55738 0.27027 0.7314 0.0
C875 C 0.60758 0.31185 0.73288 0.0
C876 C 0.63444 0.3379 0.74156 0.0
C877 C 0.55853 0.26256 0.71619 0.0
C878 C 0.586 0.27811 0.70946 0.0
C879 C 0.60912 0.30379 0.71777 0.0
C880 C 0.59517 0.26437 0.69477 0.0
C881 C 0.53103 0.2369 0.70768 0.0
C882 C 0.60282 0.2278 0.69231 0.0
C883 C 0.61877 0.21546 0.68 0.0
C884 C 0.62762 0.23943 0.66991 0.0
C885 C 0.61866 0.27577 0.67197 0.0
C886 C 0.60236 0.28812 0.68427 0.0
H887 H 0.50441 0.24132 0.71149 0.0
H888 H 0.5282 0.23966 0.69558 0.0
H889 H 0.53912 0.20899 0.70984 0.0
H890 H 0.59862 0.20904 0.70041 0.0
H891 H 0.62573 0.18736 0.67872 0.0
H892 H 0.11919 0.65614 0.94888 0.0
H893 H 0.13808 0.65412 0.9755 0.0
H894 H 0.0703 0.74442 0.98404 0.0
H895 H 0.05061 0.74607 0.95747 0.0
H896 H 0.17104 0.70571 0.99672 0.0
H897 H 0.03673 0.66746 0.00924 0.0
H898 H 0.04839 0.66463 0.99067 0.0
H899 H 0.03596 0.70695 0.99915 0.0
C900 C 0.10831 0.67557 0.95644 0.0
C901 C 0.08311 0.70105 0.9511 0.0
C902 C 0.1192 0.67442 0.97162 0.0
C903 C 0.10495 0.69857 0.98174 0.0
C904 C 0.081 0.72502 0.97642 0.0
H905 H 0.16156 0.78553 0.06764 0.0
H906 H 0.15724 0.76469 0.04163 0.0
C907 C 0.07014 0.72624 0.96123 0.0
C908 C 0.11502 0.69626 0.99787 0.0
H909 H 0.07904 0.68956 0.02991 0.0
C910 C 0.15104 0.70164 0.00397 0.0
C911 C 0.08908 0.68995 0.00727 0.0
C912 C 0.05043 0.68153 0.00125 0.0
C913 C 0.16134 0.70344 0.01934 0.0
C914 C 0.13486 0.70016 0.0288 0.0
C915 C 0.0993 0.69225 0.02265 0.0
C916 C 0.14224 0.71029 0.04489 0.0
C917 C 0.20032 0.70987 0.02535 0.0
C918 C 0.1352 0.68658 0.05543 0.0
C919 C 0.13772 0.69856 0.07045 0.0
C920 C 0.14662 0.73448 0.07498 0.0
C921 C 0.15459 0.75768 0.06444 0.0
C922 C 0.15248 0.74572 0.04958 0.0
H923 H 0.21814 0.69945 0.01727 0.0
H924 H 0.2053 0.73917 0.02745 0.0
H925 H 0.20766 0.69704 0.0359 0.0
H926 H 0.12677 0.65922 0.05199 0.0
H927 H 0.13084 0.68044 0.07834 0.0
H928 H 0.65659 0.84409 0.21964 0.0
H929 H 0.66543 0.83592 0.24619 0.0
H930 H 0.70563 0.72934 0.23741 0.0
H931 H 0.69765 0.73781 0.2109 0.0
H932 H 0.62882 0.78757 0.25766 0.0
H933 H 0.77333 0.76222 0.27374 0.0
H934 H 0.75633 0.7811 0.25657 0.0
H935 H 0.75459 0.73339 0.25807 0.0
C936 C 0.66811 0.81927 0.22344 0.0
C937 C 0.67634 0.79154 0.21325 0.0
C938 C 0.67324 0.81464 0.23859 0.0
C939 C 0.68651 0.78213 0.24385 0.0
C940 C 0.69626 0.755 0.23371 0.0
H941 H 0.64307 0.67052 0.31753 0.0
H942 H 0.66451 0.68849 0.29497 0.0
C943 C 0.69151 0.75978 0.21854 0.0
C944 C 0.68511 0.7748 0.2595 0.0
H945 H 0.73328 0.74311 0.29027 0.0
C946 C 0.65187 0.77845 0.26484 0.0
C947 C 0.71513 0.76268 0.26888 0.0
C948 C 0.75193 0.75996 0.26407 0.0
C949 C 0.64752 0.76934 0.27907 0.0
C950 C 0.67714 0.75617 0.28824 0.0
C951 C 0.71063 0.75312 0.28313 0.0
C952 C 0.6726 0.74416 0.3029 0.0
C953 C 0.61099 0.77292 0.28415 0.0
C954 C 0.67116 0.76941 0.31492 0.0
C955 C 0.65878 0.75928 0.32776 0.0
C956 C 0.64786 0.7237 0.32879 0.0
C957 C 0.65146 0.69806 0.31706 0.0
C958 C 0.66386 0.70822 0.30422 0.0
H959 H 0.5903 0.78213 0.27542 0.0
H960 H 0.60231 0.74673 0.28753 0.0
H961 H 0.6125 0.79245 0.29397 0.0
H962 H 0.67742 0.79736 0.31399 0.0
H963 H 0.65555 0.77978 0.33647 0.0
H964 H 0.61188 0.24459 0.45716 0.0
H965 H 0.62913 0.24407 0.48397 0.0
H966 H 0.52981 0.19008 0.48768 0.0
H967 H 0.51281 0.18996 0.46091 0.0
H968 H 0.59891 0.27204 0.50726 0.0
H969 H 0.60233 0.12412 0.50818 0.0
H970 H 0.59919 0.14647 0.49122 0.0
H971 H 0.55975 0.13996 0.49994 0.0
C972 C 0.59362 0.23293 0.46374 0.0
C973 C 0.56114 0.21706 0.45696 0.0
C974 C 0.60357 0.23246 0.47902 0.0
C975 C 0.58118 0.21618 0.48778 0.0
C976 C 0.54804 0.20173 0.4811 0.0
H977 H 0.58894 0.25166 0.58248 0.0
H978 H 0.57296 0.24757 0.55561 0.0
C979 C 0.53824 0.20191 0.46582 0.0
C980 C 0.59221 0.21472 0.50393 0.0
H981 H 0.60432 0.15742 0.53162 0.0
C982 C 0.6003 0.24696 0.51257 0.0
C983 C 0.59472 0.1819 0.51082 0.0
C984 C 0.58892 0.14613 0.50204 0.0
C985 C 0.60979 0.24742 0.52795 0.0
C986 C 0.61029 0.2148 0.53494 0.0
C987 C 0.60332 0.18243 0.52627 0.0
C988 C 0.61788 0.21394 0.55125 0.0
C989 C 0.61962 0.28285 0.53654 0.0
C990 C 0.64725 0.19468 0.55777 0.0
C991 C 0.65609 0.19651 0.57318 0.0
C992 C 0.63562 0.21755 0.58225 0.0
C993 C 0.60528 0.23537 0.57572 0.0
C994 C 0.59629 0.23329 0.56038 0.0
H995 H 0.62825 0.30291 0.52932 0.0
H996 H 0.5958 0.29371 0.54128 0.0
H997 H 0.64155 0.27963 0.54576 0.0
H998 H 0.66418 0.17945 0.55092 0.0
H999 H 0.68006 0.18325 0.57791 0.0
H1000 H 0.13076 0.24972 0.71689 0.0
H1001 H 0.14236 0.23585 0.7424 0.0
H1002 H 0.25183 0.27264 0.74478 0.0
H1003 H 0.23912 0.29085 0.71947 0.0
H1004 H 0.18273 0.19057 0.75505 0.0
H1005 H 0.22892 0.32418 0.78142 0.0
H1006 H 0.21042 0.31797 0.76219 0.0
H1007 H 0.25582 0.30474 0.76816 0.0
C1008 C 0.15706 0.25617 0.72286 0.0
C1009 C 0.18361 0.27251 0.71606 0.0
C1010 C 0.1639 0.24748 0.73749 0.0
C1011 C 0.19786 0.25362 0.74573 0.0
C1012 C 0.22507 0.26856 0.73888 0.0
H1013 H 0.18184 0.15782 0.82978 0.0
H1014 H 0.21153 0.16929 0.80822 0.0
C1015 C 0.21789 0.27838 0.72425 0.0
C1016 C 0.2037 0.24375 0.76136 0.0
H1017 H 0.22248 0.27872 0.79711 0.0
C1018 C 0.19159 0.20982 0.76427 0.0
C1019 C 0.21579 0.26867 0.77341 0.0
C1020 C 0.22823 0.30602 0.77121 0.0
C1021 C 0.18746 0.2014 0.77864 0.0
C1022 C 0.19848 0.22673 0.79072 0.0
C1023 C 0.21393 0.25935 0.78792 0.0
C1024 C 0.18908 0.2224 0.80584 0.0
C1025 C 0.1683 0.16677 0.78037 0.0
C1026 C 0.17005 0.2498 0.81272 0.0
C1027 C 0.15496 0.24396 0.82548 0.0
C1028 C 0.15782 0.21035 0.83135 0.0
C1029 C 0.17888 0.18375 0.8252 0.0
C1030 C 0.19542 0.19019 0.8128 0.0
H1031 H 0.15406 0.15502 0.76967 0.0
H1032 H 0.18816 0.14677 0.78463 0.0
H1033 H 0.14823 0.17099 0.78818 0.0
H1034 H 0.16493 0.27506 0.80775 0.0
H1035 H 0.13889 0.26487 0.83014 0.0
loop_
_geom_bond_atom_site_label_1
_geom_bond_atom_site_label_2
_geom_bond_distance
_geom_bond_site_symmetry_2
_ccdc_geom_bond_type
H0 C3 0.929 . S
H1 C6 0.929 . S
H2 C8 0.930 . S
C3 H0 0.929 . S
C3 C4 1.398 . S
C3 C5 1.396 . S
C4 C3 1.398 . S
C4 C8 1.407 . S
C5 C3 1.396 . S
C5 C6 1.394 . S
C6 H1 0.929 . S
C6 C5 1.394 . S
C6 C7 1.382 . S
C7 C6 1.382 . S
C7 C8 1.392 . S
C7 N9 1.420 . S
C8 H2 0.930 . S
C8 C4 1.407 . S
C8 C7 1.392 . S
N9 C7 1.420 . S
N9 C10 1.244 . S
C10 N9 1.244 . S
H11 C14 0.929 . S
H12 C17 0.929 . S
H13 C19 0.930 . S
C14 H11 0.929 . S
C14 C15 1.398 . S
C14 C16 1.396 . S
C15 C14 1.398 . S
C15 C19 1.407 . S
C16 C14 1.396 . S
C16 C17 1.394 . S
C17 H12 0.929 . S
C17 C16 1.394 . S
C17 C18 1.382 . S
C18 C17 1.382 . S
C18 C19 1.392 . S
C18 N20 1.420 . S
C19 H13 0.930 . S
C19 C15 1.407 . S
C19 C18 1.392 . S
N20 C18 1.420 . S
N20 C21 1.244 . S
C21 N20 1.244 . S
H22 C25 0.929 . S
H23 C28 0.929 . S
H24 C30 0.930 . S
C25 H22 0.929 . S
C25 C26 1.398 . S
C25 C27 1.396 . S
C26 C25 1.398 . S
C26 C30 1.407 . S
C27 C25 1.396 . S
C27 C28 1.394 . S
C28 H23 0.929 . S
C28 C27 1.394 . S
C28 C29 1.382 . S
C29 C28 1.382 . S
C29 C30 1.392 . S
C29 N31 1.420 . S
C30 H24 0.930 . S
C30 C26 1.407 . S
C30 C29 1.392 . S
N31 C29 1.420 . S
N31 C32 1.244 . S
C32 N31 1.244 . S
H33 C36 0.929 . S
H34 C39 0.929 . S
H35 C41 0.930 . S
C36 H33 0.929 . S
C36 C37 1.398 . S
C36 C38 1.396 . S
C37 C36 1.398 . S
C37 C41 1.407 . S
C38 C36 1.396 . S
C38 C39 1.394 . S
C39 H34 0.929 . S
C39 C38 1.394 . S
C39 C40 1.382 . S
C40 C39 1.382 . S
C40 C41 1.392 . S
C40 N42 1.420 . S
C41 H35 0.930 . S
C41 C37 1.407 . S
C41 C40 1.392 . S
N42 C40 1.420 . S
N42 C43 1.244 . S
C43 N42 1.244 . S
H44 C47 0.929 . S
H45 C50 0.929 . S
H46 C52 0.930 . S
C47 H44 0.929 . S
C47 C48 1.398 . S
C47 C49 1.396 . S
C48 C47 1.398 . S
C48 C52 1.407 . S
C49 C47 1.396 . S
C49 C50 1.394 . S
C50 H45 0.929 . S
C50 C49 1.394 . S
C50 C51 1.382 . S
C51 C50 1.382 . S
C51 C52 1.392 . S
C51 N53 1.420 . S
C52 H46 0.930 . S
C52 C48 1.407 . S
C52 C51 1.392 . S
N53 C51 1.420 . S
N53 C54 1.244 . S
C54 N53 1.244 . S
H55 C58 0.929 . S
H56 C61 0.929 . S
H57 C63 0.930 . S
C58 H55 0.929 . S
C58 C59 1.398 . S
C58 C60 1.396 . S
C59 C58 1.398 . S
C59 C63 1.407 . S
C60 C58 1.396 . S
C60 C61 1.394 . S
C61 H56 0.929 . S
C61 C60 1.394 . S
C61 C62 1.382 . S
C62 C61 1.382 . S
C62 C63 1.392 . S
C62 N64 1.420 . S
C63 H57 0.930 . S
C63 C59 1.407 . S
C63 C62 1.392 . S
N64 C62 1.420 . S
N64 C65 1.244 . S
C65 N64 1.244 . S
H66 C69 0.929 . S
H67 C72 0.929 . S
H68 C74 0.930 . S
C69 H66 0.929 . S
C69 C70 1.398 . S
C69 C71 1.396 . S
C70 C69 1.398 . S
C70 C74 1.407 . S
C71 C69 1.396 . S
C71 C72 1.394 . S
C72 H67 0.929 . S
C72 C71 1.394 . S
C72 C73 1.382 . S
C73 C72 1.382 . S
C73 C74 1.392 . S
C73 N75 1.420 . S
C74 H68 0.930 . S
C74 C70 1.407 . S
C74 C73 1.392 . S
N75 C73 1.420 . S
N75 C76 1.244 . S
C76 N75 1.244 . S
H77 C80 0.929 . S
H78 C83 0.929 . S
H79 C85 0.930 . S
C80 H77 0.929 . S
C80 C81 1.398 . S
C80 C82 1.396 . S
C81 C80 1.398 . S
C81 C85 1.407 . S
C82 C80 1.396 . S
C82 C83 1.394 . S
C83 H78 0.929 . S
C83 C82 1.394 . S
C83 C84 1.382 . S
C84 C83 1.382 . S
C84 C85 1.392 . S
C84 N86 1.420 . S
C85 H79 0.930 . S
C85 C81 1.407 . S
C85 C84 1.392 . S
N86 C84 1.420 . S
N86 C87 1.244 . S
C87 N86 1.244 . S
Zn88 O94 1.920 . S
Zn88 O100 1.898 . S
Zn88 O103 1.905 . S
Zn89 O97 1.905 . S
Zn89 O98 1.898 . S
Zn89 O106 1.920 . S
Zn90 O93 2.080 . S
Zn90 O96 2.114 . S
Zn90 O99 2.120 . S
Zn90 O101 2.120 . S
Zn90 O102 2.114 . S
Zn90 O105 2.080 . S
C91 O96 1.166 . S
C91 O97 1.182 . S
C92 O98 1.167 . S
C92 O99 1.299 . S
O93 Zn90 2.080 . S
O93 C107 1.305 . S
O94 Zn88 1.920 . S
O94 C107 1.234 . S
C95 O100 1.167 . S
C95 O101 1.299 . S
O96 Zn90 2.114 . S
O96 C91 1.166 . S
O97 Zn89 1.905 . S
O97 C91 1.182 . S
O98 Zn89 1.898 . S
O98 C92 1.167 . S
O99 Zn90 2.120 . S
O99 C92 1.299 . S
O100 Zn88 1.898 . S
O100 C95 1.167 . S
O101 Zn90 2.120 . S
O101 C95 1.299 . S
O102 Zn90 2.114 . S
O102 C104 1.166 . S
O103 Zn88 1.905 . S
O103 C104 1.182 . S
C104 O102 1.166 . S
C104 O103 1.182 . S
O105 Zn90 2.080 . S
O105 C108 1.305 . S
O106 Zn89 1.920 . S
O106 C108 1.234 . S
C107 O93 1.305 . S
C107 O94 1.234 . S
C108 O105 1.305 . S
C108 O106 1.234 . S
Zn109 O115 1.920 . S
Zn109 O121 1.898 . S
Zn109 O124 1.905 . S
Zn110 O118 1.905 . S
Zn110 O119 1.898 . S
Zn110 O127 1.920 . S
Zn111 O114 2.080 . S
Zn111 O117 2.114 . S
Zn111 O120 2.120 . S
Zn111 O122 2.120 . S
Zn111 O123 2.114 . S
Zn111 O126 2.080 . S
C112 O117 1.166 . S
C112 O118 1.182 . S
C113 O119 1.167 . S
C113 O120 1.299 . S
O114 Zn111 2.080 . S
O114 C128 1.305 . S
O115 Zn109 1.920 . S
O115 C128 1.234 . S
C116 O121 1.167 . S
C116 O122 1.299 . S
O117 Zn111 2.114 . S
O117 C112 1.166 . S
O118 Zn110 1.905 . S
O118 C112 1.182 . S
O119 Zn110 1.898 . S
O119 C113 1.167 . S
O120 Zn111 2.120 . S
O120 C113 1.299 . S
O121 Zn109 1.898 . S
O121 C116 1.167 . S
O122 Zn111 2.120 . S
O122 C116 1.299 . S
O123 Zn111 2.114 . S
O123 C125 1.166 . S
O124 Zn109 1.905 . S
O124 C125 1.182 . S
C125 O123 1.166 . S
C125 O124 1.182 . S
O126 Zn111 2.080 . S
O126 C129 1.305 . S
O127 Zn110 1.920 . S
O127 C129 1.234 . S
C128 O114 1.305 . S
C128 O115 1.234 . S
C129 O126 1.305 . S
C129 O127 1.234 . S
Zn130 O136 1.920 . S
Zn130 O142 1.898 . S
Zn130 O145 1.905 . S
Zn131 O139 1.905 . S
Zn131 O140 1.898 . S
Zn131 O148 1.920 . S
Zn132 O135 2.080 . S
Zn132 O138 2.114 . S
Zn132 O141 2.120 . S
Zn132 O143 2.120 . S
Zn132 O144 2.114 . S
Zn132 O147 2.080 . S
C133 O138 1.166 . S
C133 O139 1.182 . S
C134 O140 1.167 . S
C134 O141 1.299 . S
O135 Zn132 2.080 . S
O135 C149 1.305 . S
O136 Zn130 1.920 . S
O136 C149 1.234 . S
C137 O142 1.167 . S
C137 O143 1.299 . S
O138 Zn132 2.114 . S
O138 C133 1.166 . S
O139 Zn131 1.905 . S
O139 C133 1.182 . S
O140 Zn131 1.898 . S
O140 C134 1.167 . S
O141 Zn132 2.120 . S
O141 C134 1.299 . S
O142 Zn130 1.898 . S
O142 C137 1.167 . S
O143 Zn132 2.120 . S
O143 C137 1.299 . S
O144 Zn132 2.114 . S
O144 C146 1.166 . S
O145 Zn130 1.905 . S
O145 C146 1.182 . S
C146 O144 1.166 . S
C146 O145 1.182 . S
O147 Zn132 2.080 . S
O147 C150 1.305 . S
O148 Zn131 1.920 . S
O148 C150 1.234 . S
C149 O135 1.305 . S
C149 O136 1.234 . S
C150 O147 1.305 . S
C150 O148 1.234 . S
Zn151 O157 1.920 . S
Zn151 O163 1.898 . S
Zn151 O166 1.905 . S
Zn152 O160 1.905 . S
Zn152 O161 1.898 . S
Zn152 O169 1.920 . S
Zn153 O156 2.080 . S
Zn153 O159 2.114 . S
Zn153 O162 2.120 . S
Zn153 O164 2.120 . S
Zn153 O165 2.114 . S
Zn153 O168 2.080 . S
C154 O159 1.166 . S
C154 O160 1.182 . S
C155 O161 1.167 . S
C155 O162 1.299 . S
O156 Zn153 2.080 . S
O156 C170 1.305 . S
O157 Zn151 1.920 . S
O157 C170 1.234 . S
C158 O163 1.167 . S
C158 O164 1.299 . S
O159 Zn153 2.114 . S
O159 C154 1.166 . S
O160 Zn152 1.905 . S
O160 C154 1.182 . S
O161 Zn152 1.898 . S
O161 C155 1.167 . S
O162 Zn153 2.120 . S
O162 C155 1.299 . S
O163 Zn151 1.898 . S
O163 C158 1.167 . S
O164 Zn153 2.120 . S
O164 C158 1.299 . S
O165 Zn153 2.114 . S
O165 C167 1.166 . S
O166 Zn151 1.905 . S
O166 C167 1.182 . S
C167 O165 1.166 . S
C167 O166 1.182 . S
O168 Zn153 2.080 . S
O168 C171 1.305 . S
O169 Zn152 1.920 . S
O169 C171 1.234 . S
C170 O156 1.305 . S
C170 O157 1.234 . S
C171 O168 1.305 . S
C171 O169 1.234 . S
H172 C180 0.929 . S
H173 C182 0.930 . S
H174 C184 0.930 . S
H175 C187 0.929 . S
H176 C190 0.930 . S
H177 C192 0.960 . S
H178 C192 0.960 . S
H179 C192 0.960 . S
C180 H172 0.929 . S
C180 C181 1.377 . S
C180 C182 1.384 . S
C181 C180 1.377 . S
C181 C187 1.390 . S
C182 H173 0.930 . S
C182 C180 1.384 . S
C182 C183 1.372 . S
C183 C182 1.372 . S
C183 C184 1.400 . S
C183 C188 1.490 . S
C184 H174 0.930 . S
C184 C183 1.400 . S
C184 C187 1.386 . S
H185 C201 0.930 . S
H186 C202 0.931 . S
C187 H175 0.929 . S
C187 C181 1.390 . S
C187 C184 1.386 . S
C188 C183 1.490 . S
C188 C190 1.395 . S
C188 C191 1.403 . S
H189 C195 0.930 . S
C190 H176 0.930 . S
C190 C188 1.395 . S
C190 C193 1.403 . S
C191 C188 1.403 . S
C191 C192 1.524 . S
C191 C195 1.400 . S
C192 H177 0.960 . S
C192 H178 0.960 . S
C192 H179 0.960 . S
C192 C191 1.524 . S
C193 C190 1.403 . S
C193 C194 1.392 . S
C193 C197 1.495 . S
C194 C193 1.392 . S
C194 C195 1.385 . S
C194 C196 1.478 . S
C195 H189 0.930 . S
C195 C191 1.400 . S
C195 C194 1.385 . S
C196 C194 1.478 . S
C196 C198 1.381 . S
C196 C202 1.383 . S
C197 C193 1.495 . S
C197 H203 0.959 . S
C197 H204 0.961 . S
C197 H205 0.960 . S
C198 C196 1.381 . S
C198 C199 1.394 . S
C198 H206 0.930 . S
C199 C198 1.394 . S
C199 C200 1.383 . S
C199 H207 0.929 . S
C200 C199 1.383 . S
C200 C201 1.377 . S
C201 H185 0.930 . S
C201 C200 1.377 . S
C201 C202 1.379 . S
C202 H186 0.931 . S
C202 C196 1.383 . S
C202 C201 1.379 . S
H203 C197 0.959 . S
H204 C197 0.961 . S
H205 C197 0.960 . S
H206 C198 0.930 . S
H207 C199 0.929 . S
H208 C216 0.929 1_455 S
H209 C218 0.930 . S
H210 C220 0.930 . S
H211 C223 0.929 . S
H212 C226 0.930 . S
H213 C228 0.960 . S
H214 C228 0.960 . S
H215 C228 0.960 . S
C216 H208 0.929 1_655 S
C216 C217 1.377 1_655 S
C216 C218 1.384 . S
C217 C216 1.377 1_455 S
C217 C223 1.390 1_455 S
C218 H209 0.930 . S
C218 C216 1.384 . S
C218 C219 1.372 . S
C219 C218 1.372 . S
C219 C220 1.400 . S
C219 C224 1.490 . S
C220 H210 0.930 . S
C220 C219 1.400 . S
C220 C223 1.386 . S
H221 C237 0.930 . S
H222 C238 0.931 . S
C223 H211 0.929 . S
C223 C217 1.390 1_655 S
C223 C220 1.386 . S
C224 C219 1.490 . S
C224 C226 1.395 . S
C224 C227 1.403 . S
H225 C231 0.930 . S
C226 H212 0.930 . S
C226 C224 1.395 . S
C226 C229 1.403 . S
C227 C224 1.403 . S
C227 C228 1.524 . S
C227 C231 1.400 . S
C228 H213 0.960 . S
C228 H214 0.960 . S
C228 H215 0.960 . S
C228 C227 1.524 . S
C229 C226 1.403 . S
C229 C230 1.392 . S
C229 C233 1.495 . S
C230 C229 1.392 . S
C230 C231 1.385 . S
C230 C232 1.478 . S
C231 H225 0.930 . S
C231 C227 1.400 . S
C231 C230 1.385 . S
C232 C230 1.478 . S
C232 C234 1.381 . S
C232 C238 1.383 . S
C233 C229 1.495 . S
C233 H239 0.959 . S
C233 H240 0.961 . S
C233 H241 0.960 . S
C234 C232 1.381 . S
C234 C235 1.394 . S
C234 H242 0.930 . S
C235 C234 1.394 . S
C235 C236 1.383 . S
C235 H243 0.929 . S
C236 C235 1.383 . S
C236 C237 1.377 . S
C237 H221 0.930 . S
C237 C236 1.377 . S
C237 C238 1.379 . S
C238 H222 0.931 . S
C238 C232 1.383 . S
C238 C237 1.379 . S
H239 C233 0.959 . S
H240 C233 0.961 . S
H241 C233 0.960 . S
H242 C234 0.930 . S
H243 C235 0.929 . S
H244 C252 0.929 . S
H245 C254 0.930 . S
H246 C256 0.930 . S
H247 C259 0.929 . S
H248 C262 0.930 . S
H249 C264 0.960 . S
H250 C264 0.960 . S
H251 C264 0.960 . S
C252 H244 0.929 . S
C252 C253 1.377 . S
C252 C254 1.384 . S
C253 C252 1.377 . S
C253 C259 1.390 . S
C254 H245 0.930 . S
C254 C252 1.384 . S
C254 C255 1.372 . S
C255 C254 1.372 . S
C255 C256 1.400 . S
C255 C260 1.490 . S
C256 H246 0.930 . S
C256 C255 1.400 . S
C256 C259 1.386 . S
H257 C273 0.930 . S
H258 C274 0.931 . S
C259 H247 0.929 . S
C259 C253 1.390 . S
C259 C256 1.386 . S
C260 C255 1.490 . S
C260 C262 1.395 . S
C260 C263 1.403 . S
H261 C267 0.930 . S
C262 H248 0.930 . S
C262 C260 1.395 . S
C262 C265 1.403 . S
C263 C260 1.403 . S
C263 C264 1.524 . S
C263 C267 1.400 . S
C264 H249 0.960 . S
C264 H250 0.960 . S
C264 H251 0.960 . S
C264 C263 1.524 . S
C265 C262 1.403 . S
C265 C266 1.392 . S
C265 C269 1.495 . S
C266 C265 1.392 . S
C266 C267 1.385 . S
C266 C268 1.478 . S
C267 H261 0.930 . S
C267 C263 1.400 . S
C267 C266 1.385 . S
C268 C266 1.478 . S
C268 C270 1.381 . S
C268 C274 1.383 . S
C269 C265 1.495 . S
C269 H275 0.959 . S
C269 H276 0.961 . S
C269 H277 0.960 . S
C270 C268 1.381 . S
C270 C271 1.394 . S
C270 H278 0.930 . S
C271 C270 1.394 . S
C271 C272 1.383 . S
C271 H279 0.929 . S
C272 C271 1.383 . S
C272 C273 1.377 . S
C273 H257 0.930 . S
C273 C272 1.377 . S
C273 C274 1.379 . S
C274 H258 0.931 . S
C274 C268 1.383 . S
C274 C273 1.379 . S
H275 C269 0.959 . S
H276 C269 0.961 . S
H277 C269 0.960 . S
H278 C270 0.930 . S
H279 C271 0.929 . S
H280 C288 0.929 . S
H281 C290 0.930 . S
H282 C292 0.930 . S
H283 C295 0.929 . S
H284 C298 0.930 . S
H285 C300 0.960 . S
H286 C300 0.960 . S
H287 C300 0.960 . S
C288 H280 0.929 . S
C288 C289 1.377 . S
C288 C290 1.384 . S
C289 C288 1.377 . S
C289 C295 1.390 . S
C290 H281 0.930 . S
C290 C288 1.384 . S
C290 C291 1.372 . S
C291 C290 1.372 . S
C291 C292 1.400 . S
C291 C296 1.490 . S
C292 H282 0.930 . S
C292 C291 1.400 . S
C292 C295 1.386 . S
H293 C309 0.930 . S
H294 C310 0.931 . S
C295 H283 0.929 . S
C295 C289 1.390 . S
C295 C292 1.386 . S
C296 C291 1.490 . S
C296 C298 1.395 . S
C296 C299 1.403 . S
H297 C303 0.930 . S
C298 H284 0.930 . S
C298 C296 1.395 . S
C298 C301 1.403 . S
C299 C296 1.403 . S
C299 C300 1.524 . S
C299 C303 1.400 . S
C300 H285 0.960 . S
C300 H286 0.960 . S
C300 H287 0.960 . S
C300 C299 1.524 . S
C301 C298 1.403 . S
C301 C302 1.392 . S
C301 C305 1.495 . S
C302 C301 1.392 . S
C302 C303 1.385 . S
C302 C304 1.478 . S
C303 H297 0.930 . S
C303 C299 1.400 . S
C303 C302 1.385 . S
C304 C302 1.478 . S
C304 C306 1.381 . S
C304 C310 1.383 . S
C305 C301 1.495 . S
C305 H311 0.959 . S
C305 H312 0.961 . S
C305 H313 0.960 . S
C306 C304 1.381 . S
C306 C307 1.394 . S
C306 H314 0.930 . S
C307 C306 1.394 . S
C307 C308 1.383 . S
C307 H315 0.929 . S
C308 C307 1.383 . S
C308 C309 1.377 . S
C309 H293 0.930 . S
C309 C308 1.377 . S
C309 C310 1.379 . S
C310 H294 0.931 . S
C310 C304 1.383 . S
C310 C309 1.379 . S
H311 C305 0.959 . S
H312 C305 0.961 . S
H313 C305 0.960 . S
H314 C306 0.930 . S
H315 C307 0.929 . S
H316 C324 0.929 . S
H317 C326 0.930 . S
H318 C328 0.930 . S
H319 C331 0.929 . S
H320 C334 0.930 . S
H321 C336 0.960 . S
H322 C336 0.960 . S
H323 C336 0.960 . S
C324 H316 0.929 . S
C324 C325 1.377 . S
C324 C326 1.384 . S
C325 C324 1.377 . S
C325 C331 1.390 . S
C326 H317 0.930 . S
C326 C324 1.384 . S
C326 C327 1.372 . S
C327 C326 1.372 . S
C327 C328 1.400 . S
C327 C332 1.490 . S
C328 H318 0.930 . S
C328 C327 1.400 . S
C328 C331 1.386 . S
H329 C345 0.930 . S
H330 C346 0.931 . S
C331 H319 0.929 . S
C331 C325 1.390 . S
C331 C328 1.386 . S
C332 C327 1.490 . S
C332 C334 1.395 . S
C332 C335 1.403 . S
H333 C339 0.930 . S
C334 H320 0.930 . S
C334 C332 1.395 . S
C334 C337 1.403 . S
C335 C332 1.403 . S
C335 C336 1.524 . S
C335 C339 1.400 . S
C336 H321 0.960 . S
C336 H322 0.960 . S
C336 H323 0.960 . S
C336 C335 1.524 . S
C337 C334 1.403 . S
C337 C338 1.392 . S
C337 C341 1.495 . S
C338 C337 1.392 . S
C338 C339 1.385 . S
C338 C340 1.478 . S
C339 H333 0.930 . S
C339 C335 1.400 . S
C339 C338 1.385 . S
C340 C338 1.478 . S
C340 C342 1.381 . S
C340 C346 1.383 . S
C341 C337 1.495 . S
C341 H347 0.959 1_455 S
C341 H348 0.961 . S
C341 H349 0.960 1_455 S
C342 C340 1.381 . S
C342 C343 1.394 . S
C342 H350 0.930 . S
C343 C342 1.394 . S
C343 C344 1.383 . S
C343 H351 0.929 . S
C344 C343 1.383 . S
C344 C345 1.377 . S
C345 H329 0.930 . S
C345 C344 1.377 . S
C345 C346 1.379 . S
C346 H330 0.931 . S
C346 C340 1.383 . S
C346 C345 1.379 . S
H347 C341 0.959 1_655 S
H348 C341 0.961 . S
H349 C341 0.960 1_655 S
H350 C342 0.930 . S
H351 C343 0.929 . S
H352 C360 0.929 . S
H353 C362 0.930 . S
H354 C364 0.930 . S
H355 C367 0.929 . S
H356 C370 0.930 . S
H357 C372 0.960 . S
H358 C372 0.960 . S
H359 C372 0.960 . S
C360 H352 0.929 . S
C360 C361 1.377 . S
C360 C362 1.384 . S
C361 C360 1.377 . S
C361 C367 1.390 . S
C362 H353 0.930 . S
C362 C360 1.384 . S
C362 C363 1.372 . S
C363 C362 1.372 . S
C363 C364 1.400 . S
C363 C368 1.490 . S
C364 H354 0.930 . S
C364 C363 1.400 . S
C364 C367 1.386 . S
H365 C381 0.930 . S
H366 C382 0.931 . S
C367 H355 0.929 . S
C367 C361 1.390 . S
C367 C364 1.386 . S
C368 C363 1.490 . S
C368 C370 1.395 . S
C368 C371 1.403 . S
H369 C375 0.930 . S
C370 H356 0.930 . S
C370 C368 1.395 . S
C370 C373 1.403 . S
C371 C368 1.403 . S
C371 C372 1.524 . S
C371 C375 1.400 . S
C372 H357 0.960 . S
C372 H358 0.960 . S
C372 H359 0.960 . S
C372 C371 1.524 . S
C373 C370 1.403 . S
C373 C374 1.392 . S
C373 C377 1.495 . S
C374 C373 1.392 . S
C374 C375 1.385 . S
C374 C376 1.478 . S
C375 H369 0.930 . S
C375 C371 1.400 . S
C375 C374 1.385 . S
C376 C374 1.478 . S
C376 C378 1.381 . S
C376 C382 1.383 . S
C377 C373 1.495 . S
C377 H383 0.959 . S
C377 H384 0.961 . S
C377 H385 0.960 . S
C378 C376 1.381 . S
C378 C379 1.394 1_655 S
C378 H386 0.930 . S
C379 C378 1.394 1_455 S
C379 C380 1.383 . S
C379 H387 0.929 . S
C380 C379 1.383 . S
C380 C381 1.377 . S
C381 H365 0.930 . S
C381 C380 1.377 . S
C381 C382 1.379 1_455 S
C382 H366 0.931 . S
C382 C376 1.383 . S
C382 C381 1.379 1_655 S
H383 C377 0.959 . S
H384 C377 0.961 . S
H385 C377 0.960 . S
H386 C378 0.930 . S
H387 C379 0.929 . S
H388 C396 0.929 . S
H389 C398 0.930 . S
H390 C400 0.930 . S
H391 C403 0.929 . S
H392 C406 0.930 . S
H393 C408 0.960 . S
H394 C408 0.960 . S
H395 C408 0.960 . S
C396 H388 0.929 . S
C396 C397 1.377 . S
C396 C398 1.384 . S
C397 C396 1.377 . S
C397 C403 1.390 . S
C398 H389 0.930 . S
C398 C396 1.384 . S
C398 C399 1.372 . S
C399 C398 1.372 . S
C399 C400 1.400 . S
C399 C404 1.490 . S
C400 H390 0.930 . S
C400 C399 1.400 . S
C400 C403 1.386 . S
H401 C417 0.930 . S
H402 C418 0.931 . S
C403 H391 0.929 . S
C403 C397 1.390 . S
C403 C400 1.386 . S
C404 C399 1.490 . S
C404 C406 1.395 . S
C404 C407 1.403 . S
H405 C411 0.930 . S
C406 H392 0.930 . S
C406 C404 1.395 . S
C406 C409 1.403 . S
C407 C404 1.403 . S
C407 C408 1.524 . S
C407 C411 1.400 . S
C408 H393 0.960 . S
C408 H394 0.960 . S
C408 H395 0.960 . S
C408 C407 1.524 . S
C409 C406 1.403 . S
C409 C410 1.392 . S
C409 C413 1.495 . S
C410 C409 1.392 . S
C410 C411 1.385 . S
C410 C412 1.478 . S
C411 H405 0.930 . S
C411 C407 1.400 . S
C411 C410 1.385 . S
C412 C410 1.478 . S
C412 C414 1.381 . S
C412 C418 1.383 . S
C413 C409 1.495 . S
C413 H419 0.959 . S
C413 H420 0.961 . S
C413 H421 0.960 . S
C414 C412 1.381 . S
C414 C415 1.394 . S
C414 H422 0.930 . S
C415 C414 1.394 . S
C415 C416 1.383 . S
C415 H423 0.929 . S
C416 C415 1.383 . S
C416 C417 1.377 . S
C417 H401 0.930 . S
C417 C416 1.377 . S
C417 C418 1.379 . S
C418 H402 0.931 . S
C418 C412 1.383 . S
C418 C417 1.379 . S
H419 C413 0.959 . S
H420 C413 0.961 . S
H421 C413 0.960 . S
H422 C414 0.930 . S
H423 C415 0.929 . S
H424 C432 0.929 . S
H425 C434 0.930 . S
H426 C436 0.930 . S
H427 C439 0.929 . S
H428 C442 0.930 . S
H429 C444 0.960 . S
H430 C444 0.960 . S
H431 C444 0.960 . S
C432 H424 0.929 . S
C432 C433 1.377 . S
C432 C434 1.384 . S
C433 C432 1.377 . S
C433 C439 1.390 . S
C434 H425 0.930 . S
C434 C432 1.384 . S
C434 C435 1.372 . S
C435 C434 1.372 . S
C435 C436 1.400 . S
C435 C440 1.490 1_455 S
C436 H426 0.930 . S
C436 C435 1.400 . S
C436 C439 1.386 . S
H437 C453 0.930 . S
H438 C454 0.931 . S
C439 H427 0.929 . S
C439 C433 1.390 . S
C439 C436 1.386 . S
C440 C435 1.490 1_655 S
C440 C442 1.395 . S
C440 C443 1.403 . S
H441 C447 0.930 . S
C442 H428 0.930 . S
C442 C440 1.395 . S
C442 C445 1.403 . S
C443 C440 1.403 . S
C443 C444 1.524 . S
C443 C447 1.400 . S
C444 H429 0.960 . S
C444 H430 0.960 . S
C444 H431 0.960 . S
C444 C443 1.524 . S
C445 C442 1.403 . S
C445 C446 1.392 . S
C445 C449 1.495 . S
C446 C445 1.392 . S
C446 C447 1.385 . S
C446 C448 1.478 . S
C447 H441 0.930 . S
C447 C443 1.400 . S
C447 C446 1.385 . S
C448 C446 1.478 . S
C448 C450 1.381 . S
C448 C454 1.383 . S
C449 C445 1.495 . S
C449 H455 0.959 . S
C449 H456 0.961 . S
C449 H457 0.960 . S
C450 C448 1.381 . S
C450 C451 1.394 . S
C450 H458 0.930 . S
C451 C450 1.394 . S
C451 C452 1.383 . S
C451 H459 0.929 . S
C452 C451 1.383 . S
C452 C453 1.377 . S
C453 H437 0.930 . S
C453 C452 1.377 . S
C453 C454 1.379 . S
C454 H438 0.931 . S
C454 C448 1.383 . S
C454 C453 1.379 . S
H455 C449 0.959 . S
H456 C449 0.961 . S
H457 C449 0.960 . S
H458 C450 0.930 . S
H459 C451 0.929 . S
H460 C468 0.929 . S
H461 C470 0.930 . S
H462 C472 0.930 . S
H463 C475 0.929 . S
H464 C478 0.930 . S
H465 C480 0.960 . S
H466 C480 0.960 . S
H467 C480 0.960 . S
C468 H460 0.929 . S
C468 C469 1.377 . S
C468 C470 1.384 . S
C469 C468 1.377 . S
C469 C475 1.390 . S
C470 H461 0.930 . S
C470 C468 1.384 . S
C470 C471 1.372 . S
C471 C470 1.372 . S
C471 C472 1.400 . S
C471 C476 1.490 . S
C472 H462 0.930 . S
C472 C471 1.400 . S
C472 C475 1.386 . S
H473 C489 0.930 . S
H474 C490 0.931 . S
C475 H463 0.929 . S
C475 C469 1.390 . S
C475 C472 1.386 . S
C476 C471 1.490 . S
C476 C478 1.395 . S
C476 C479 1.403 . S
H477 C483 0.930 . S
C478 H464 0.930 . S
C478 C476 1.395 . S
C478 C481 1.403 . S
C479 C476 1.403 . S
C479 C480 1.524 . S
C479 C483 1.400 . S
C480 H465 0.960 . S
C480 H466 0.960 . S
C480 H467 0.960 . S
C480 C479 1.524 . S
C481 C478 1.403 . S
C481 C482 1.392 . S
C481 C485 1.495 . S
C482 C481 1.392 . S
C482 C483 1.385 . S
C482 C484 1.478 . S
C483 H477 0.930 . S
C483 C479 1.400 . S
C483 C482 1.385 . S
C484 C482 1.478 . S
C484 C486 1.381 . S
C484 C490 1.383 . S
C485 C481 1.495 . S
C485 H491 0.959 . S
C485 H492 0.961 . S
C485 H493 0.960 . S
C486 C484 1.381 . S
C486 C487 1.394 . S
C486 H494 0.930 . S
C487 C486 1.394 . S
C487 C488 1.383 . S
C487 H495 0.929 . S
C488 C487 1.383 . S
C488 C489 1.377 . S
C489 H473 0.930 . S
C489 C488 1.377 . S
C489 C490 1.379 . S
C490 H474 0.931 . S
C490 C484 1.383 . S
C490 C489 1.379 . S
H491 C485 0.959 . S
H492 C485 0.961 . S
H493 C485 0.960 . S
H494 C486 0.930 . S
H495 C487 0.929 . S
H496 C504 0.929 . S
H497 C506 0.930 . S
H498 C508 0.930 . S
H499 C511 0.929 . S
H500 C514 0.930 . S
H501 C516 0.960 . S
H502 C516 0.960 . S
H503 C516 0.960 . S
C504 H496 0.929 . S
C504 C505 1.377 . S
C504 C506 1.384 . S
C505 C504 1.377 . S
C505 C511 1.390 . S
C506 H497 0.930 . S
C506 C504 1.384 . S
C506 C507 1.372 . S
C507 C506 1.372 . S
C507 C508 1.400 . S
C507 C512 1.490 . S
C508 H498 0.930 . S
C508 C507 1.400 . S
C508 C511 1.386 . S
H509 C525 0.930 . S
H510 C526 0.931 . S
C511 H499 0.929 . S
C511 C505 1.390 . S
C511 C508 1.386 . S
C512 C507 1.490 . S
C512 C514 1.395 . S
C512 C515 1.403 . S
H513 C519 0.930 . S
C514 H500 0.930 . S
C514 C512 1.395 . S
C514 C517 1.403 . S
C515 C512 1.403 . S
C515 C516 1.524 . S
C515 C519 1.400 . S
C516 H501 0.960 . S
C516 H502 0.960 . S
C516 H503 0.960 . S
C516 C515 1.524 . S
C517 C514 1.403 . S
C517 C518 1.392 . S
C517 C521 1.495 . S
C518 C517 1.392 . S
C518 C519 1.385 . S
C518 C520 1.478 . S
C519 H513 0.930 . S
C519 C515 1.400 . S
C519 C518 1.385 . S
C520 C518 1.478 . S
C520 C522 1.381 . S
C520 C526 1.383 . S
C521 C517 1.495 . S
C521 H527 0.959 . S
C521 H528 0.961 . S
C521 H529 0.960 . S
C522 C520 1.381 . S
C522 C523 1.394 . S
C522 H530 0.930 . S
C523 C522 1.394 . S
C523 C524 1.383 . S
C523 H531 0.929 . S
C524 C523 1.383 . S
C524 C525 1.377 . S
C525 H509 0.930 . S
C525 C524 1.377 . S
C525 C526 1.379 . S
C526 H510 0.931 . S
C526 C520 1.383 . S
C526 C525 1.379 . S
H527 C521 0.959 . S
H528 C521 0.961 . S
H529 C521 0.960 . S
H530 C522 0.930 . S
H531 C523 0.929 . S
H532 C540 0.929 . S
H533 C542 0.930 . S
H534 C544 0.930 . S
H535 C547 0.929 . S
H536 C550 0.930 . S
H537 C552 0.960 . S
H538 C552 0.960 . S
H539 C552 0.960 . S
C540 H532 0.929 . S
C540 C541 1.377 . S
C540 C542 1.384 . S
C541 C540 1.377 . S
C541 C547 1.390 . S
C542 H533 0.930 . S
C542 C540 1.384 . S
C542 C543 1.372 . S
C543 C542 1.372 . S
C543 C544 1.400 . S
C543 C548 1.490 . S
C544 H534 0.930 . S
C544 C543 1.400 . S
C544 C547 1.386 . S
H545 C561 0.930 . S
H546 C562 0.931 . S
C547 H535 0.929 . S
C547 C541 1.390 . S
C547 C544 1.386 . S
C548 C543 1.490 . S
C548 C550 1.395 . S
C548 C551 1.403 . S
H549 C555 0.930 . S
C550 H536 0.930 . S
C550 C548 1.395 . S
C550 C553 1.403 . S
C551 C548 1.403 . S
C551 C552 1.524 . S
C551 C555 1.400 . S
C552 H537 0.960 . S
C552 H538 0.960 . S
C552 H539 0.960 . S
C552 C551 1.524 . S
C553 C550 1.403 . S
C553 C554 1.392 . S
C553 C557 1.495 . S
C554 C553 1.392 . S
C554 C555 1.385 . S
C554 C556 1.478 . S
C555 H549 0.930 . S
C555 C551 1.400 . S
C555 C554 1.385 . S
C556 C554 1.478 . S
C556 C558 1.381 . S
C556 C562 1.383 . S
C557 C553 1.495 . S
C557 H563 0.959 . S
C557 H564 0.961 . S
C557 H565 0.960 . S
C558 C556 1.381 . S
C558 C559 1.394 . S
C558 H566 0.930 . S
C559 C558 1.394 . S
C559 C560 1.383 . S
C559 H567 0.929 . S
C560 C559 1.383 . S
C560 C561 1.377 . S
C561 H545 0.930 . S
C561 C560 1.377 . S
C561 C562 1.379 . S
C562 H546 0.931 . S
C562 C556 1.383 . S
C562 C561 1.379 . S
H563 C557 0.959 . S
H564 C557 0.961 . S
H565 C557 0.960 . S
H566 C558 0.930 . S
H567 C559 0.929 . S
H568 C576 0.929 . S
H569 C578 0.930 . S
H570 C580 0.930 . S
H571 C583 0.929 . S
H572 C586 0.930 . S
H573 C588 0.960 . S
H574 C588 0.960 . S
H575 C588 0.960 . S
C576 H568 0.929 . S
C576 C577 1.377 . S
C576 C578 1.384 . S
C577 C576 1.377 . S
C577 C583 1.390 . S
C578 H569 0.930 . S
C578 C576 1.384 . S
C578 C579 1.372 . S
C579 C578 1.372 . S
C579 C580 1.400 . S
C579 C584 1.490 . S
C580 H570 0.930 . S
C580 C579 1.400 . S
C580 C583 1.386 . S
H581 C597 0.930 . S
H582 C598 0.931 . S
C583 H571 0.929 . S
C583 C577 1.390 . S
C583 C580 1.386 . S
C584 C579 1.490 . S
C584 C586 1.395 . S
C584 C587 1.403 . S
H585 C591 0.930 . S
C586 H572 0.930 . S
C586 C584 1.395 . S
C586 C589 1.403 . S
C587 C584 1.403 . S
C587 C588 1.524 . S
C587 C591 1.400 . S
C588 H573 0.960 . S
C588 H574 0.960 . S
C588 H575 0.960 . S
C588 C587 1.524 . S
C589 C586 1.403 . S
C589 C590 1.392 . S
C589 C593 1.495 . S
C590 C589 1.392 . S
C590 C591 1.385 . S
C590 C592 1.478 . S
C591 H585 0.930 . S
C591 C587 1.400 . S
C591 C590 1.385 . S
C592 C590 1.478 . S
C592 C594 1.381 . S
C592 C598 1.383 . S
C593 C589 1.495 . S
C593 H599 0.959 . S
C593 H600 0.961 . S
C593 H601 0.960 . S
C594 C592 1.381 . S
C594 C595 1.394 . S
C594 H602 0.930 . S
C595 C594 1.394 . S
C595 C596 1.383 . S
C595 H603 0.929 . S
C596 C595 1.383 . S
C596 C597 1.377 . S
C597 H581 0.930 . S
C597 C596 1.377 . S
C597 C598 1.379 . S
C598 H582 0.931 . S
C598 C592 1.383 . S
C598 C597 1.379 . S
H599 C593 0.959 . S
H600 C593 0.961 . S
H601 C593 0.960 . S
H602 C594 0.930 . S
H603 C595 0.929 . S
H604 C612 0.929 . S
H605 C614 0.930 . S
H606 C616 0.930 . S
H607 C619 0.929 . S
H608 C622 0.930 . S
H609 C624 0.960 . S
H610 C624 0.960 . S
H611 C624 0.960 . S
C612 H604 0.929 . S
C612 C613 1.377 . S
C612 C614 1.384 . S
C613 C612 1.377 . S
C613 C619 1.390 . S
C614 H605 0.930 . S
C614 C612 1.384 . S
C614 C615 1.372 . S
C615 C614 1.372 . S
C615 C616 1.400 . S
C615 C620 1.490 . S
C616 H606 0.930 . S
C616 C615 1.400 . S
C616 C619 1.386 . S
H617 C633 0.930 . S
H618 C634 0.931 . S
C619 H607 0.929 . S
C619 C613 1.390 . S
C619 C616 1.386 . S
C620 C615 1.490 . S
C620 C622 1.395 . S
C620 C623 1.403 . S
H621 C627 0.930 . S
C622 H608 0.930 . S
C622 C620 1.395 . S
C622 C625 1.403 . S
C623 C620 1.403 . S
C623 C624 1.524 . S
C623 C627 1.400 . S
C624 H609 0.960 . S
C624 H610 0.960 . S
C624 H611 0.960 . S
C624 C623 1.524 . S
C625 C622 1.403 . S
C625 C626 1.392 . S
C625 C629 1.495 . S
C626 C625 1.392 . S
C626 C627 1.385 . S
C626 C628 1.478 1_565 S
C627 H621 0.930 . S
C627 C623 1.400 . S
C627 C626 1.385 . S
C628 C626 1.478 1_545 S
C628 C630 1.381 . S
C628 C634 1.383 . S
C629 C625 1.495 . S
C629 H635 0.959 . S
C629 H636 0.961 1_565 S
C629 H637 0.960 1_565 S
C630 C628 1.381 . S
C630 C631 1.394 . S
C630 H638 0.930 . S
C631 C630 1.394 . S
C631 C632 1.383 . S
C631 H639 0.929 . S
C632 C631 1.383 . S
C632 C633 1.377 . S
C633 H617 0.930 . S
C633 C632 1.377 . S
C633 C634 1.379 . S
C634 H618 0.931 . S
C634 C628 1.383 . S
C634 C633 1.379 . S
H635 C629 0.959 . S
H636 C629 0.961 1_545 S
H637 C629 0.960 1_545 S
H638 C630 0.930 . S
H639 C631 0.929 . S
H640 C648 0.929 . S
H641 C650 0.930 . S
H642 C652 0.930 . S
H643 C655 0.929 . S
H644 C658 0.929 1_545 S
H645 C660 0.960 . S
H646 C660 0.965 . S
H647 C660 0.960 1_545 S
C648 H640 0.929 . S
C648 C649 1.377 . S
C648 C650 1.384 . S
C649 C648 1.377 . S
C649 C655 1.390 . S
C650 H641 0.930 . S
C650 C648 1.384 . S
C650 C651 1.372 . S
C651 C650 1.372 . S
C651 C652 1.400 . S
C651 C656 1.490 . S
C652 H642 0.930 . S
C652 C651 1.400 . S
C652 C655 1.386 . S
H653 C669 0.930 . S
H654 C670 0.931 . S
C655 H643 0.929 . S
C655 C649 1.390 . S
C655 C652 1.386 . S
C656 C651 1.490 . S
C656 C658 1.394 1_545 S
C656 C659 1.403 1_545 S
H657 C663 0.930 . S
C658 H644 0.929 1_565 S
C658 C656 1.394 1_565 S
C658 C661 1.405 . S
C659 C656 1.403 1_565 S
C659 C660 1.524 . S
C659 C663 1.400 . S
C660 H645 0.960 . S
C660 H646 0.965 . S
C660 H647 0.960 1_565 S
C660 C659 1.524 . S
C661 C658 1.405 . S
C661 C662 1.392 . S
C661 C665 1.495 . S
C662 C661 1.392 . S
C662 C663 1.385 . S
C662 C664 1.478 . S
C663 H657 0.930 . S
C663 C659 1.400 . S
C663 C662 1.385 . S
C664 C662 1.478 . S
C664 C666 1.381 . S
C664 C670 1.383 . S
C665 C661 1.495 . S
C665 H671 0.959 . S
C665 H672 0.961 . S
C665 H673 0.960 . S
C666 C664 1.381 . S
C666 C667 1.394 . S
C666 H674 0.930 . S
C667 C666 1.394 . S
C667 C668 1.383 . S
C667 H675 0.929 . S
C668 C667 1.383 . S
C668 C669 1.377 . S
C669 H653 0.930 . S
C669 C668 1.377 . S
C669 C670 1.379 . S
C670 H654 0.931 . S
C670 C664 1.383 . S
C670 C669 1.379 . S
H671 C665 0.959 . S
H672 C665 0.961 . S
H673 C665 0.960 . S
H674 C666 0.930 . S
H675 C667 0.929 . S
H676 C684 0.929 . S
H677 C686 0.930 . S
H678 C688 0.930 . S
H679 C691 0.929 . S
H680 C694 0.930 . S
H681 C696 0.960 . S
H682 C696 0.960 . S
H683 C696 0.960 . S
C684 H676 0.929 . S
C684 C685 1.377 . S
C684 C686 1.384 . S
C685 C684 1.377 . S
C685 C691 1.390 . S
C686 H677 0.930 . S
C686 C684 1.384 . S
C686 C687 1.372 . S
C687 C686 1.372 . S
C687 C688 1.400 . S
C687 C692 1.490 . S
C688 H678 0.930 . S
C688 C687 1.400 . S
C688 C691 1.386 . S
H689 C705 0.930 . S
H690 C706 0.931 . S
C691 H679 0.929 . S
C691 C685 1.390 . S
C691 C688 1.386 . S
C692 C687 1.490 . S
C692 C694 1.395 . S
C692 C695 1.403 . S
H693 C699 0.930 . S
C694 H680 0.930 . S
C694 C692 1.395 . S
C694 C697 1.403 . S
C695 C692 1.403 . S
C695 C696 1.524 . S
C695 C699 1.400 1_545 S
C696 H681 0.960 . S
C696 H682 0.960 . S
C696 H683 0.960 . S
C696 C695 1.524 . S
C697 C694 1.403 . S
C697 C698 1.392 1_545 S
C697 C701 1.495 1_545 S
C698 C697 1.392 1_565 S
C698 C699 1.385 . S
C698 C700 1.478 . S
C699 H693 0.930 . S
C699 C695 1.400 1_565 S
C699 C698 1.385 . S
C700 C698 1.478 . S
C700 C702 1.381 . S
C700 C706 1.383 . S
C701 C697 1.495 1_565 S
C701 H707 0.959 1_565 S
C701 H708 0.961 . S
C701 H709 0.960 . S
C702 C700 1.381 . S
C702 C703 1.394 . S
C702 H710 0.930 . S
C703 C702 1.394 . S
C703 C704 1.383 . S
C703 H711 0.929 . S
C704 C703 1.383 . S
C704 C705 1.377 . S
C705 H689 0.930 . S
C705 C704 1.377 . S
C705 C706 1.379 . S
C706 H690 0.931 . S
C706 C700 1.383 . S
C706 C705 1.379 . S
H707 C701 0.959 1_545 S
H708 C701 0.961 . S
H709 C701 0.960 . S
H710 C702 0.930 . S
H711 C703 0.929 . S
H712 C720 0.929 . S
H713 C722 0.930 . S
H714 C724 0.930 . S
H715 C727 0.929 . S
H716 C730 0.930 . S
H717 C732 0.960 . S
H718 C732 0.960 . S
H719 C732 0.960 . S
C720 H712 0.929 . S
C720 C721 1.377 . S
C720 C722 1.384 . S
C721 C720 1.377 . S
C721 C727 1.390 . S
C722 H713 0.930 . S
C722 C720 1.384 . S
C722 C723 1.372 . S
C723 C722 1.372 . S
C723 C724 1.400 . S
C723 C728 1.490 . S
C724 H714 0.930 . S
C724 C723 1.400 . S
C724 C727 1.386 . S
H725 C741 0.930 . S
H726 C742 0.931 . S
C727 H715 0.929 . S
C727 C721 1.390 . S
C727 C724 1.386 . S
C728 C723 1.490 . S
C728 C730 1.395 . S
C728 C731 1.403 . S
H729 C735 0.930 . S
C730 H716 0.930 . S
C730 C728 1.395 . S
C730 C733 1.403 1_565 S
C731 C728 1.403 . S
C731 C732 1.524 . S
C731 C735 1.400 1_565 S
C732 H717 0.960 . S
C732 H718 0.960 . S
C732 H719 0.960 . S
C732 C731 1.524 . S
C733 C730 1.403 1_545 S
C733 C734 1.392 . S
C733 C737 1.495 . S
C734 C733 1.392 . S
C734 C735 1.385 . S
C734 C736 1.478 . S
C735 H729 0.930 . S
C735 C731 1.400 1_545 S
C735 C734 1.385 . S
C736 C734 1.478 . S
C736 C738 1.381 . S
C736 C742 1.383 . S
C737 C733 1.495 . S
C737 H743 0.959 1_455 S
C737 H744 0.961 . S
C737 H745 0.960 . S
C738 C736 1.381 . S
C738 C739 1.394 . S
C738 H746 0.930 . S
C739 C738 1.394 . S
C739 C740 1.383 . S
C739 H747 0.929 . S
C740 C739 1.383 . S
C740 C741 1.377 . S
C741 H725 0.930 . S
C741 C740 1.377 . S
C741 C742 1.379 . S
C742 H726 0.931 . S
C742 C736 1.383 . S
C742 C741 1.379 . S
H743 C737 0.959 1_655 S
H744 C737 0.961 . S
H745 C737 0.960 . S
H746 C738 0.930 . S
H747 C739 0.929 . S
H748 C756 0.929 . S
H749 C758 0.930 . S
H750 C760 0.930 . S
H751 C763 0.929 . S
H752 C766 0.936 1_554 S
H753 C768 0.960 . S
H754 C768 0.960 . S
H755 C768 0.960 . S
C756 H748 0.929 . S
C756 C757 1.377 . S
C756 C758 1.384 . S
C757 C756 1.377 . S
C757 C763 1.390 . S
C758 H749 0.930 . S
C758 C756 1.384 . S
C758 C759 1.372 . S
C759 C758 1.372 . S
C759 C760 1.400 . S
C759 C764 1.490 1_554 S
C760 H750 0.930 . S
C760 C759 1.400 . S
C760 C763 1.386 . S
H761 C777 0.930 . S
H762 C778 0.931 . S
C763 H751 0.929 . S
C763 C757 1.390 . S
C763 C760 1.386 . S
C764 C759 1.490 1_556 S
C764 C766 1.395 . S
C764 C767 1.403 . S
H765 C771 0.930 . S
C766 H752 0.936 1_556 S
C766 C764 1.395 . S
C766 C769 1.403 . S
C767 C764 1.403 . S
C767 C768 1.524 . S
C767 C771 1.400 . S
C768 H753 0.960 . S
C768 H754 0.960 . S
C768 H755 0.960 . S
C768 C767 1.524 . S
C769 C766 1.403 . S
C769 C770 1.392 . S
C769 C773 1.495 . S
C770 C769 1.392 . S
C770 C771 1.385 . S
C770 C772 1.478 . S
C771 H765 0.930 . S
C771 C767 1.400 . S
C771 C770 1.385 . S
C772 C770 1.478 . S
C772 C774 1.381 . S
C772 C778 1.383 . S
C773 C769 1.495 . S
C773 H779 0.959 . S
C773 H780 0.961 . S
C773 H781 0.960 . S
C774 C772 1.381 . S
C774 C775 1.394 . S
C774 H782 0.930 . S
C775 C774 1.394 . S
C775 C776 1.383 . S
C775 H783 0.929 . S
C776 C775 1.383 . S
C776 C777 1.377 . S
C777 H761 0.930 . S
C777 C776 1.377 . S
C777 C778 1.379 . S
C778 H762 0.931 . S
C778 C772 1.383 . S
C778 C777 1.379 . S
H779 C773 0.959 . S
H780 C773 0.961 . S
H781 C773 0.960 . S
H782 C774 0.930 . S
H783 C775 0.929 . S
H784 C792 0.929 . S
H785 C794 0.930 . S
H786 C796 0.930 . S
H787 C799 0.929 . S
H788 C802 0.930 . S
H789 C804 0.960 . S
H790 C804 0.960 . S
H791 C804 0.960 . S
C792 H784 0.929 . S
C792 C793 1.377 . S
C792 C794 1.384 . S
C793 C792 1.377 . S
C793 C799 1.390 . S
C794 H785 0.930 . S
C794 C792 1.384 . S
C794 C795 1.372 . S
C795 C794 1.372 . S
C795 C796 1.400 . S
C795 C800 1.490 . S
C796 H786 0.930 . S
C796 C795 1.400 . S
C796 C799 1.386 . S
H797 C813 0.930 . S
H798 C814 0.931 . S
C799 H787 0.929 . S
C799 C793 1.390 . S
C799 C796 1.386 . S
C800 C795 1.490 . S
C800 C802 1.395 . S
C800 C803 1.403 . S
H801 C807 0.930 . S
C802 H788 0.930 . S
C802 C800 1.395 . S
C802 C805 1.403 . S
C803 C800 1.403 . S
C803 C804 1.524 . S
C803 C807 1.400 . S
C804 H789 0.960 . S
C804 H790 0.960 . S
C804 H791 0.960 . S
C804 C803 1.524 . S
C805 C802 1.403 . S
C805 C806 1.392 . S
C805 C809 1.495 . S
C806 C805 1.392 . S
C806 C807 1.385 . S
C806 C808 1.478 . S
C807 H801 0.930 . S
C807 C803 1.400 . S
C807 C806 1.385 . S
C808 C806 1.478 . S
C808 C810 1.381 . S
C808 C814 1.383 . S
C809 C805 1.495 . S
C809 H815 0.959 . S
C809 H816 0.961 . S
C809 H817 0.960 . S
C810 C808 1.381 . S
C810 C811 1.394 . S
C810 H818 0.930 . S
C811 C810 1.394 . S
C811 C812 1.383 . S
C811 H819 0.929 . S
C812 C811 1.383 . S
C812 C813 1.377 . S
C813 H797 0.930 . S
C813 C812 1.377 . S
C813 C814 1.379 . S
C814 H798 0.931 . S
C814 C808 1.383 . S
C814 C813 1.379 . S
H815 C809 0.959 . S
H816 C809 0.961 . S
H817 C809 0.960 . S
H818 C810 0.930 . S
H819 C811 0.929 . S
H820 C828 0.929 . S
H821 C830 0.930 . S
H822 C832 0.930 . S
H823 C835 0.929 . S
H824 C838 0.930 . S
H825 C840 0.960 . S
H826 C840 0.960 . S
H827 C840 0.960 . S
C828 H820 0.929 . S
C828 C829 1.377 . S
C828 C830 1.384 . S
C829 C828 1.377 . S
C829 C835 1.390 . S
C830 H821 0.930 . S
C830 C828 1.384 . S
C830 C831 1.372 . S
C831 C830 1.372 . S
C831 C832 1.400 . S
C831 C836 1.490 . S
C832 H822 0.930 . S
C832 C831 1.400 . S
C832 C835 1.386 . S
H833 C849 0.930 . S
H834 C850 0.931 . S
C835 H823 0.929 . S
C835 C829 1.390 . S
C835 C832 1.386 . S
C836 C831 1.490 . S
C836 C838 1.395 . S
C836 C839 1.403 . S
H837 C843 0.930 . S
C838 H824 0.930 . S
C838 C836 1.395 . S
C838 C841 1.403 . S
C839 C836 1.403 . S
C839 C840 1.524 . S
C839 C843 1.400 . S
C840 H825 0.960 . S
C840 H826 0.960 . S
C840 H827 0.960 . S
C840 C839 1.524 . S
C841 C838 1.403 . S
C841 C842 1.392 . S
C841 C845 1.495 . S
C842 C841 1.392 . S
C842 C843 1.385 . S
C842 C844 1.478 . S
C843 H837 0.930 . S
C843 C839 1.400 . S
C843 C842 1.385 . S
C844 C842 1.478 . S
C844 C846 1.381 . S
C844 C850 1.383 . S
C845 C841 1.495 . S
C845 H851 0.959 . S
C845 H852 0.961 . S
C845 H853 0.960 . S
C846 C844 1.381 . S
C846 C847 1.394 . S
C846 H854 0.930 . S
C847 C846 1.394 . S
C847 C848 1.383 . S
C847 H855 0.929 . S
C848 C847 1.383 . S
C848 C849 1.377 . S
C849 H833 0.930 . S
C849 C848 1.377 . S
C849 C850 1.379 . S
C850 H834 0.931 . S
C850 C844 1.383 . S
C850 C849 1.379 . S
H851 C845 0.959 . S
H852 C845 0.961 . S
H853 C845 0.960 . S
H854 C846 0.930 . S
H855 C847 0.929 . S
H856 C864 0.929 . S
H857 C866 0.930 . S
H858 C868 0.930 . S
H859 C871 0.929 . S
H860 C874 0.930 . S
H861 C876 0.960 . S
H862 C876 0.960 . S
H863 C876 0.960 . S
C864 H856 0.929 . S
C864 C865 1.377 . S
C864 C866 1.384 . S
C865 C864 1.377 . S
C865 C871 1.390 . S
C866 H857 0.930 . S
C866 C864 1.384 . S
C866 C867 1.372 . S
C867 C866 1.372 . S
C867 C868 1.400 . S
C867 C872 1.490 . S
C868 H858 0.930 . S
C868 C867 1.400 . S
C868 C871 1.386 . S
H869 C885 0.930 . S
H870 C886 0.931 . S
C871 H859 0.929 . S
C871 C865 1.390 . S
C871 C868 1.386 . S
C872 C867 1.490 . S
C872 C874 1.395 . S
C872 C875 1.403 . S
H873 C879 0.930 . S
C874 H860 0.930 . S
C874 C872 1.395 . S
C874 C877 1.403 . S
C875 C872 1.403 . S
C875 C876 1.524 . S
C875 C879 1.400 . S
C876 H861 0.960 . S
C876 H862 0.960 . S
C876 H863 0.960 . S
C876 C875 1.524 . S
C877 C874 1.403 . S
C877 C878 1.392 . S
C877 C881 1.495 . S
C878 C877 1.392 . S
C878 C879 1.385 . S
C878 C880 1.478 . S
C879 H873 0.930 . S
C879 C875 1.400 . S
C879 C878 1.385 . S
C880 C878 1.478 . S
C880 C882 1.381 . S
C880 C886 1.383 . S
C881 C877 1.495 . S
C881 H887 0.959 . S
C881 H888 0.961 . S
C881 H889 0.960 . S
C882 C880 1.381 . S
C882 C883 1.394 . S
C882 H890 0.930 . S
C883 C882 1.394 . S
C883 C884 1.383 . S
C883 H891 0.929 . S
C884 C883 1.383 . S
C884 C885 1.377 . S
C885 H869 0.930 . S
C885 C884 1.377 . S
C885 C886 1.379 . S
C886 H870 0.931 . S
C886 C880 1.383 . S
C886 C885 1.379 . S
H887 C881 0.959 . S
H888 C881 0.961 . S
H889 C881 0.960 . S
H890 C882 0.930 . S
H891 C883 0.929 . S
H892 C900 0.929 . S
H893 C902 0.930 . S
H894 C904 0.930 . S
H895 C907 0.929 . S
H896 C910 0.930 1_556 S
H897 C912 0.960 . S
H898 C912 0.949 1_556 S
H899 C912 0.960 . S
C900 H892 0.929 . S
C900 C901 1.377 . S
C900 C902 1.384 . S
C901 C900 1.377 . S
C901 C907 1.390 . S
C902 H893 0.930 . S
C902 C900 1.384 . S
C902 C903 1.372 . S
C903 C902 1.372 . S
C903 C904 1.400 . S
C903 C908 1.431 1_556 S
C904 H894 0.930 . S
C904 C903 1.400 . S
C904 C907 1.386 . S
H905 C921 0.930 . S
H906 C922 0.931 . S
C907 H895 0.929 . S
C907 C901 1.390 . S
C907 C904 1.386 . S
C908 C903 1.431 1_554 S
C908 C910 1.408 . S
C908 C911 1.450 . S
H909 C915 0.930 . S
C910 H896 0.930 1_554 S
C910 C908 1.408 . S
C910 C913 1.403 . S
C911 C908 1.450 . S
C911 C912 1.524 . S
C911 C915 1.400 . S
C912 H897 0.960 . S
C912 H898 0.949 1_554 S
C912 H899 0.960 . S
C912 C911 1.524 . S
C913 C910 1.403 . S
C913 C914 1.392 . S
C913 C917 1.495 . S
C914 C913 1.392 . S
C914 C915 1.385 . S
C914 C916 1.478 . S
C915 H909 0.930 . S
C915 C911 1.400 . S
C915 C914 1.385 . S
C916 C914 1.478 . S
C916 C918 1.381 . S
C916 C922 1.383 . S
C917 C913 1.495 . S
C917 H923 0.959 . S
C917 H924 0.961 . S
C917 H925 0.960 . S
C918 C916 1.381 . S
C918 C919 1.394 . S
C918 H926 0.930 . S
C919 C918 1.394 . S
C919 C920 1.383 . S
C919 H927 0.929 . S
C920 C919 1.383 . S
C920 C921 1.377 . S
C921 H905 0.930 . S
C921 C920 1.377 . S
C921 C922 1.379 . S
C922 H906 0.931 . S
C922 C916 1.383 . S
C922 C921 1.379 . S
H923 C917 0.959 . S
H924 C917 0.961 . S
H925 C917 0.960 . S
H926 C918 0.930 . S
H927 C919 0.929 . S
H928 C936 0.929 . S
H929 C938 0.930 . S
H930 C940 0.930 . S
H931 C943 0.929 . S
H932 C946 0.930 . S
H933 C948 0.960 . S
H934 C948 0.960 . S
H935 C948 0.960 . S
C936 H928 0.929 . S
C936 C937 1.377 . S
C936 C938 1.384 . S
C937 C936 1.377 . S
C937 C943 1.390 . S
C938 H929 0.930 . S
C938 C936 1.384 . S
C938 C939 1.372 . S
C939 C938 1.372 . S
C939 C940 1.400 . S
C939 C944 1.490 . S
C940 H930 0.930 . S
C940 C939 1.400 . S
C940 C943 1.386 . S
H941 C957 0.930 . S
H942 C958 0.931 . S
C943 H931 0.929 . S
C943 C937 1.390 . S
C943 C940 1.386 . S
C944 C939 1.490 . S
C944 C946 1.395 . S
C944 C947 1.403 . S
H945 C951 0.930 . S
C946 H932 0.930 . S
C946 C944 1.395 . S
C946 C949 1.403 . S
C947 C944 1.403 . S
C947 C948 1.524 . S
C947 C951 1.400 . S
C948 H933 0.960 . S
C948 H934 0.960 . S
C948 H935 0.960 . S
C948 C947 1.524 . S
C949 C946 1.403 . S
C949 C950 1.392 . S
C949 C953 1.495 . S
C950 C949 1.392 . S
C950 C951 1.385 . S
C950 C952 1.478 . S
C951 H945 0.930 . S
C951 C947 1.400 . S
C951 C950 1.385 . S
C952 C950 1.478 . S
C952 C954 1.381 . S
C952 C958 1.383 . S
C953 C949 1.495 . S
C953 H959 0.959 . S
C953 H960 0.961 . S
C953 H961 0.960 . S
C954 C952 1.381 . S
C954 C955 1.394 . S
C954 H962 0.930 . S
C955 C954 1.394 . S
C955 C956 1.383 . S
C955 H963 0.929 . S
C956 C955 1.383 . S
C956 C957 1.377 . S
C957 H941 0.930 . S
C957 C956 1.377 . S
C957 C958 1.379 . S
C958 H942 0.931 . S
C958 C952 1.383 . S
C958 C957 1.379 . S
H959 C953 0.959 . S
H960 C953 0.961 . S
H961 C953 0.960 . S
H962 C954 0.930 . S
H963 C955 0.929 . S
H964 C972 0.929 . S
H965 C974 0.930 . S
H966 C976 0.930 . S
H967 C979 0.929 . S
H968 C982 0.930 . S
H969 C984 0.960 . S
H970 C984 0.960 . S
H971 C984 0.960 . S
C972 H964 0.929 . S
C972 C973 1.377 . S
C972 C974 1.384 . S
C973 C972 1.377 . S
C973 C979 1.390 . S
C974 H965 0.930 . S
C974 C972 1.384 . S
C974 C975 1.372 . S
C975 C974 1.372 . S
C975 C976 1.400 . S
C975 C980 1.490 . S
C976 H966 0.930 . S
C976 C975 1.400 . S
C976 C979 1.386 . S
H977 C993 0.930 . S
H978 C994 0.931 . S
C979 H967 0.929 . S
C979 C973 1.390 . S
C979 C976 1.386 . S
C980 C975 1.490 . S
C980 C982 1.395 . S
C980 C983 1.403 . S
H981 C987 0.930 . S
C982 H968 0.930 . S
C982 C980 1.395 . S
C982 C985 1.403 . S
C983 C980 1.403 . S
C983 C984 1.524 . S
C983 C987 1.400 . S
C984 H969 0.960 . S
C984 H970 0.960 . S
C984 H971 0.960 . S
C984 C983 1.524 . S
C985 C982 1.403 . S
C985 C986 1.392 . S
C985 C989 1.495 . S
C986 C985 1.392 . S
C986 C987 1.385 . S
C986 C988 1.478 . S
C987 H981 0.930 . S
C987 C983 1.400 . S
C987 C986 1.385 . S
C988 C986 1.478 . S
C988 C990 1.381 . S
C988 C994 1.383 . S
C989 C985 1.495 . S
C989 H995 0.959 . S
C989 H996 0.961 . S
C989 H997 0.960 . S
C990 C988 1.381 . S
C990 C991 1.394 . S
C990 H998 0.930 . S
C991 C990 1.394 . S
C991 C992 1.383 . S
C991 H999 0.929 . S
C992 C991 1.383 . S
C992 C993 1.377 . S
C993 H977 0.930 . S
C993 C992 1.377 . S
C993 C994 1.379 . S
C994 H978 0.931 . S
C994 C988 1.383 . S
C994 C993 1.379 . S
H995 C989 0.959 . S
H996 C989 0.961 . S
H997 C989 0.960 . S
H998 C990 0.930 . S
H999 C991 0.929 . S
H1000 C1008 0.929 . S
H1001 C1010 0.930 . S
H1002 C1012 0.930 . S
H1003 C1015 0.929 . S
H1004 C1018 0.930 . S
H1005 C1020 0.960 . S
H1006 C1020 0.960 . S
H1007 C1020 0.960 . S
C1008 H1000 0.929 . S
C1008 C1009 1.377 . S
C1008 C1010 1.384 . S
C1009 C1008 1.377 . S
C1009 C1015 1.390 . S
C1010 H1001 0.930 . S
C1010 C1008 1.384 . S
C1010 C1011 1.372 . S
C1011 C1010 1.372 . S
C1011 C1012 1.400 . S
C1011 C1016 1.490 . S
C1012 H1002 0.930 . S
C1012 C1011 1.400 . S
C1012 C1015 1.386 . S
H1013 C1029 0.930 . S
H1014 C1030 0.931 . S
C1015 H1003 0.929 . S
C1015 C1009 1.390 . S
C1015 C1012 1.386 . S
C1016 C1011 1.490 . S
C1016 C1018 1.395 . S
C1016 C1019 1.403 . S
H1017 C1023 0.930 . S
C1018 H1004 0.930 . S
C1018 C1016 1.395 . S
C1018 C1021 1.403 . S
C1019 C1016 1.403 . S
C1019 C1020 1.524 . S
C1019 C1023 1.400 . S
C1020 H1005 0.960 . S
C1020 H1006 0.960 . S
C1020 H1007 0.960 . S
C1020 C1019 1.524 . S
C1021 C1018 1.403 . S
C1021 C1022 1.392 . S
C1021 C1025 1.495 . S
C1022 C1021 1.392 . S
C1022 C1023 1.385 . S
C1022 C1024 1.478 . S
C1023 H1017 0.930 . S
C1023 C1019 1.400 . S
C1023 C1022 1.385 . S
C1024 C1022 1.478 . S
C1024 C1026 1.381 . S
C1024 C1030 1.383 . S
C1025 C1021 1.495 . S
C1025 H1031 0.959 . S
C1025 H1032 0.961 . S
C1025 H1033 0.960 . S
C1026 C1024 1.381 . S
C1026 C1027 1.394 . S
C1026 H1034 0.930 . S
C1027 C1026 1.394 . S
C1027 C1028 1.383 . S
C1027 H1035 0.929 . S
C1028 C1027 1.383 . S
C1028 C1029 1.377 . S
C1029 H1013 0.930 . S
C1029 C1028 1.377 . S
C1029 C1030 1.379 . S
C1030 H1014 0.931 . S
C1030 C1024 1.383 . S
C1030 C1029 1.379 . S
H1031 C1025 0.959 . S
H1032 C1025 0.961 . S
H1033 C1025 0.960 . S
H1034 C1026 0.930 . S
H1035 C1027 0.929 . S
C200 C95 1.472 . S
C181 C4 1.577 . S
C236 C113 1.316 . S
C217 C21 1.427 . S
C253 C32 1.357 . S
C272 C137 1.221 . S
C308 C167 1.205 1_655 S
C289 C37 1.390 . S
C344 C155 1.241 . S
C325 C48 1.291 . S
C361 C65 1.447 . S
C380 C108 1.382 . S
C397 C76 1.617 . S
C416 C128 1.483 . S
C433 C81 1.393 . S
C452 C133 1.257 . S
C469 C87 1.435 . S
C488 C149 1.391 . S
C505 C59 1.392 . S
C524 C104 1.278 . S
C560 C171 1.390 . S
C541 C43 1.435 . S
C596 C116 1.235 . S
C577 C15 1.393 . S
C613 C26 1.570 . S
C632 C134 1.402 . S
C649 C10 1.368 . S
C668 C92 1.293 . S
C704 C112 1.225 . S
C685 C70 1.279 . S
C740 C158 1.484 . S
C721 C54 1.624 . S
C776 C154 1.379 . S
C757 C5 1.519 . S
C812 C107 1.406 . S
C793 C16 1.503 . S
C829 C27 1.499 . S
C848 C129 1.353 . S
C865 C38 1.519 . S
C884 C150 1.477 . S
C920 C91 1.377 . S
C901 C49 1.570 . S
C937 C60 1.503 . S
C956 C125 1.396 . S
C992 C146 1.332 . S
C973 C71 1.586 . S
C1028 C170 1.381 . S
C1009 C82 1.475 . S
