# Generated by pormake.
# Topology pth, (4,4)-cn, num edge types: 1
# Building blocks:
#     Node 0, Type 0, BuildingBlock: QUQFOY_clean_sbu_1, # of connection points: 4
#     Node 1, Type 0, BuildingBlock: QUQFOY_clean_sbu_1, # of connection points: 4
#     Node 2, Type 0, BuildingBlock: QUQFOY_clean_sbu_1, # of connection points: 4
#     Node 3, Type 1, BuildingBlock: NAHDIM_clean_linker_0, # of connection points: 4
#     Node 4, Type 1, BuildingBlock: NAHDIM_clean_linker_0, # of connection points: 4
#     Node 5, Type 1, BuildingBlock: NAHDIM_clean_linker_0, # of connection points: 4
#     Edge 6, Type (0, 1), BuildingBlock: TEMPAE_clean_linker_10, # of connection points: 2
#     Edge 7, Type (0, 1), BuildingBlock: TEMPAE_clean_linker_10, # of connection points: 2
#     Edge 8, Type (0, 1), BuildingBlock: TEMPAE_clean_linker_10, # of connection points: 2
#     Edge 9, Type (0, 1), BuildingBlock: TEMPAE_clean_linker_10, # of connection points: 2
#     Edge 10, Type (0, 1), BuildingBlock: TEMPAE_clean_linker_10, # of connection points: 2
#     Edge 11, Type (0, 1), BuildingBlock: TEMPAE_clean_linker_10, # of connection points: 2
#     Edge 12, Type (0, 1), BuildingBlock: TEMPAE_clean_linker_10, # of connection points: 2
#     Edge 13, Type (0, 1), BuildingBlock: TEMPAE_clean_linker_10, # of connection points: 2
#     Edge 14, Type (0, 1), BuildingBlock: TEMPAE_clean_linker_10, # of connection points: 2
#     Edge 15, Type (0, 1), BuildingBlock: TEMPAE_clean_linker_10, # of connection points: 2
#     Edge 16, Type (0, 1), BuildingBlock: TEMPAE_clean_linker_10, # of connection points: 2
#     Edge 17, Type (0, 1), BuildingBlock: TEMPAE_clean_linker_10, # of connection points: 2
# Relax obj value: 0.027
# Max RMSD: 0.121
# Mean RMSD: 0.078
data_MOF--net-pth--node1-QUQFOY_clean_sbu_1--node2-NAHDIM_clean_linker_0--edge1-TEMPAE_clean_linker_10
_symmetry_space_group_name_H-M    P1
_symmetry_Int_Tables_number       1
_symmetry_cell_setting            triclinic
loop_
_symmetry_equiv_pos_as_xyz
'x, y, z'
_cell_length_a     30.856922
_cell_length_b     33.593536
_cell_length_c     83.848049
_cell_angle_alpha  89.690296
_cell_angle_beta   90.676164
_cell_angle_gamma 120.06321
loop_
_atom_site_label
_atom_site_type_symbol
_atom_site_fract_x
_atom_site_fract_y
_atom_site_fract_z
_atom_type_partial_charge
O0 O 0.05864 0.10712 0.05094 0.0
Cd1 Cd 0.99663 0.06683 0.0645 0.0
Cd2 Cd 0.03122 0.00773 0.06313 0.0
O3 O 0.08954 0.06045 0.05077 0.0
O4 O 0.97626 0.10987 0.07334 0.0
O5 O 0.0035 0.0724 0.08835 0.0
C6 C 0.98833 0.10187 0.08728 0.0
C7 C 0.04506 0.9728 0.08514 0.0
C8 C 0.0923 0.09821 0.04674 0.0
C9 C 0.93074 0.97707 0.04805 0.0
O10 O 0.96534 0.96784 0.0508 0.0
O11 O 0.93496 0.01468 0.0529 0.0
O12 O 0.05375 0.96477 0.07084 0.0
O13 O 0.03026 0.00229 0.08697 0.0
O14 O 0.99442 0.076 0.41407 0.0
Cd15 Cd 0.04776 0.07526 0.39968 0.0
Cd16 Cd 0.98006 0.98697 0.39981 0.0
O17 O 0.93173 0.00623 0.40928 0.0
O18 O 0.0895 0.14095 0.39347 0.0
O19 O 0.04345 0.08593 0.37618 0.0
C20 C 0.07214 0.12923 0.37915 0.0
C21 C 0.96045 0.93814 0.37798 0.0
C22 C 0.94859 0.0456 0.41565 0.0
C23 C 0.07766 0.01705 0.4173 0.0
O24 O 0.03192 0.98654 0.4154 0.0
O25 O 0.09499 0.05571 0.41034 0.0
O26 O 0.94158 0.92259 0.39183 0.0
O27 O 0.98846 0.98213 0.3763 0.0
O28 O 0.95761 0.02626 0.70222 0.0
Cd29 Cd 0.99094 0.99629 0.71543 0.0
Cd30 Cd 0.06692 0.08393 0.71753 0.0
O31 O 0.01858 0.09809 0.70497 0.0
O32 O 0.93618 0.93532 0.72283 0.0
O33 O 0.98457 0.99223 0.73924 0.0
C34 C 0.94814 0.95063 0.73723 0.0
C35 C 0.10437 0.12395 0.74103 0.0
C36 C 0.97558 0.06897 0.69954 0.0
C37 C 0.08922 0.01677 0.70146 0.0
O38 O 0.10501 0.05854 0.70508 0.0
O39 O 0.04487 0.98584 0.70492 0.0
O40 O 0.11917 0.14285 0.72723 0.0
O41 O 0.06733 0.08222 0.74149 0.0
C42 C 0.94567 0.73582 0.2764 0.0
C43 C 0.94396 0.7172 0.29325 0.0
C44 C 0.99004 0.67578 0.28892 0.0
C45 C 0.03828 0.68186 0.28888 0.0
C46 C 0.04813 0.64976 0.28155 0.0
C47 C 0.00829 0.60985 0.27447 0.0
C48 C 0.95891 0.60237 0.27512 0.0
C49 C 0.95037 0.63567 0.28212 0.0
C50 C 0.10126 0.65902 0.28107 0.0
C51 C 0.91514 0.55945 0.26818 0.0
C52 C 0.07945 0.4181 0.33238 0.0
C53 C 0.05035 0.37829 0.32067 0.0
C54 C 0.05908 0.41993 0.29604 0.0
C55 C 0.01013 0.41128 0.29339 0.0
C56 C 0.0011 0.44102 0.28391 0.0
C57 C 0.04194 0.48033 0.27706 0.0
C58 C 0.09132 0.48883 0.27962 0.0
C59 C 0.09913 0.458 0.28888 0.0
C60 C 0.94792 0.43027 0.28109 0.0
C61 C 0.13585 0.53058 0.27263 0.0
C62 C 0.03911 0.39351 0.17742 0.0
C63 C 0.99259 0.38728 0.18212 0.0
C64 C 0.9889 0.42373 0.18875 0.0
C65 C 0.03262 0.46719 0.19075 0.0
C66 C 0.07914 0.47409 0.18533 0.0
C67 C 0.08163 0.43715 0.17856 0.0
C68 C 0.9384 0.41563 0.1939 0.0
C69 C 0.12638 0.52008 0.18712 0.0
C70 C 0.99289 0.75854 0.18642 0.0
C71 C 0.02652 0.75821 0.1732 0.0
C72 C 0.01138 0.67974 0.17335 0.0
C73 C 0.969 0.63622 0.17491 0.0
C74 C 0.97201 0.60029 0.18249 0.0
C75 C 0.01887 0.60807 0.1883 0.0
C76 C 0.06244 0.6512 0.18577 0.0
C77 C 0.05823 0.68667 0.17834 0.0
C78 C 0.92492 0.55458 0.18484 0.0
C79 C 0.11326 0.66018 0.19132 0.0
C80 C 0.01839 0.57694 0.26574 0.0
C81 C 0.0255 0.54514 0.27456 0.0
C82 C 0.03302 0.51211 0.26698 0.0
C83 C 0.03228 0.50986 0.25013 0.0
C84 C 0.03742 0.4758 0.24212 0.0
C85 C 0.03679 0.47396 0.22555 0.0
C86 C 0.03109 0.50616 0.2163 0.0
C87 C 0.03009 0.50438 0.19943 0.0
C88 C 0.02585 0.53776 0.1906 0.0
C89 C 0.02182 0.57271 0.19821 0.0
C90 C 0.0212 0.57417 0.21507 0.0
C91 C 0.01581 0.60809 0.22309 0.0
C92 C 0.01517 0.60924 0.23965 0.0
C93 C 0.01987 0.5765 0.24888 0.0
C94 C 0.02614 0.54246 0.24106 0.0
C95 C 0.02618 0.54094 0.22413 0.0
C96 C 0.05528 0.31225 0.19091 0.0
C97 C 0.0221 0.31421 0.17757 0.0
O98 O 0.98376 0.70942 0.29558 0.0
O99 O 0.00597 0.71419 0.16692 0.0
O100 O 0.04411 0.35853 0.17146 0.0
O101 O 0.06873 0.39208 0.3054 0.0
H102 H 0.90798 0.68458 0.29488 0.0
H103 H 0.94251 0.7105 0.26734 0.0
H104 H 0.98149 0.76847 0.27457 0.0
H105 H 0.91399 0.74222 0.27445 0.0
H106 H 0.06861 0.71269 0.29424 0.0
H107 H 0.91263 0.62989 0.28222 0.0
H108 H 0.10412 0.63204 0.28791 0.0
H109 H 0.12847 0.69314 0.28617 0.0
H110 H 0.11182 0.65746 0.26856 0.0
H111 H 0.87862 0.55509 0.27197 0.0
H112 H 0.91705 0.52852 0.27183 0.0
H113 H 0.91664 0.56139 0.25497 0.0
H114 H 0.01019 0.36848 0.32104 0.0
H115 H 0.07465 0.44772 0.32904 0.0
H116 H 0.12003 0.42945 0.33221 0.0
H117 H 0.06527 0.40743 0.34469 0.0
H118 H 0.97886 0.3809 0.29845 0.0
H119 H 0.13673 0.4641 0.29092 0.0
H120 H 0.94273 0.45775 0.28643 0.0
H121 H 0.92011 0.39674 0.28635 0.0
H122 H 0.94029 0.42957 0.26809 0.0
H123 H 0.17196 0.53476 0.27708 0.0
H124 H 0.1344 0.5621 0.27556 0.0
H125 H 0.13471 0.52744 0.25944 0.0
H126 H 0.98501 0.30395 0.18278 0.0
H127 H 0.95903 0.35422 0.1805 0.0
H128 H 0.11717 0.44181 0.17458 0.0
H129 H 0.9378 0.4176 0.2071 0.0
H130 H 0.90737 0.38149 0.19002 0.0
H131 H 0.93167 0.44281 0.18894 0.0
H132 H 0.15968 0.5198 0.18237 0.0
H133 H 0.13315 0.52994 0.19992 0.0
H134 H 0.12191 0.54686 0.18073 0.0
H135 H 0.06401 0.7694 0.17855 0.0
H136 H 0.00859 0.79375 0.1914 0.0
H137 H 0.99054 0.7352 0.19623 0.0
H138 H 0.95445 0.74671 0.18177 0.0
H139 H 0.93317 0.63101 0.17071 0.0
H140 H 0.09156 0.71964 0.17643 0.0
H141 H 0.91844 0.54712 0.19778 0.0
H142 H 0.92939 0.52677 0.17942 0.0
H143 H 0.89145 0.55383 0.17945 0.0
H144 H 0.14404 0.69349 0.18685 0.0
H145 H 0.11958 0.63208 0.18727 0.0
H146 H 0.11479 0.66072 0.20456 0.0
H147 H 0.02504 0.54605 0.28749 0.0
H148 H 0.04179 0.45002 0.24858 0.0
H149 H 0.04097 0.44697 0.22008 0.0
H150 H 0.02566 0.53651 0.17767 0.0
H151 H 0.01177 0.63411 0.21666 0.0
H152 H 0.01102 0.63625 0.24512 0.0
H153 H 0.03837 0.27682 0.19581 0.0
H154 H 0.05891 0.3358 0.20075 0.0
H155 H 0.09329 0.32289 0.18641 0.0
C156 C 0.32341 0.88592 0.66799 0.0
C157 C 0.33708 0.93083 0.65933 0.0
C158 C 0.37359 0.94988 0.63291 0.0
C159 C 0.39619 0.9979 0.63298 0.0
C160 C 0.43485 0.02479 0.62232 0.0
C161 C 0.4521 0.00309 0.61172 0.0
C162 C 0.42941 0.95446 0.61181 0.0
C163 C 0.38941 0.9285 0.6221 0.0
C164 C 0.4573 0.07633 0.62251 0.0
C165 C 0.44767 0.92964 0.60128 0.0
C166 C 0.86312 0.24199 0.61998 0.0
C167 C 0.82076 0.19211 0.62138 0.0
C168 C 0.73071 0.16321 0.61963 0.0
C169 C 0.71576 0.11847 0.61438 0.0
C170 C 0.66774 0.09038 0.60782 0.0
C171 C 0.63452 0.10776 0.60626 0.0
C172 C 0.64911 0.15234 0.61199 0.0
C173 C 0.69685 0.17922 0.61881 0.0
C174 C 0.65277 0.04242 0.60236 0.0
C175 C 0.61465 0.17197 0.6106 0.0
C176 C 0.69153 0.12174 0.50069 0.0
C177 C 0.67336 0.0792 0.50837 0.0
C178 C 0.63084 0.06157 0.51803 0.0
C179 C 0.60637 0.08729 0.52014 0.0
C180 C 0.62374 0.1295 0.51198 0.0
C181 C 0.66583 0.14588 0.50217 0.0
C182 C 0.61222 0.01554 0.52604 0.0
C183 C 0.59837 0.15763 0.51385 0.0
C184 C 0.19347 0.89998 0.51296 0.0
C185 C 0.24046 0.94448 0.50812 0.0
C186 C 0.32598 0.95894 0.51177 0.0
C187 C 0.35187 0.93533 0.51452 0.0
C188 C 0.39976 0.95737 0.52154 0.0
C189 C 0.42247 0.00443 0.52565 0.0
C190 C 0.39735 0.02908 0.52227 0.0
C191 C 0.3493 0.00609 0.51533 0.0
C192 C 0.42578 0.93023 0.52483 0.0
C193 C 0.42118 0.07962 0.52613 0.0
C194 C 0.49483 0.03105 0.60093 0.0
C195 C 0.54285 0.0555 0.6077 0.0
C196 C 0.58511 0.08015 0.59821 0.0
C197 C 0.57985 0.07908 0.58141 0.0
C198 C 0.62173 0.10185 0.57145 0.0
C199 C 0.61629 0.09903 0.55493 0.0
C200 C 0.56867 0.07424 0.54772 0.0
C201 C 0.5628 0.07001 0.53094 0.0
C202 C 0.5148 0.04728 0.52415 0.0
C203 C 0.4722 0.02774 0.53369 0.0
C204 C 0.47733 0.02975 0.5505 0.0
C205 C 0.43528 0.00898 0.56045 0.0
C206 C 0.44085 0.00991 0.57697 0.0
C207 C 0.48864 0.0317 0.58418 0.0
C208 C 0.53142 0.05469 0.57439 0.0
C209 C 0.52579 0.05305 0.55753 0.0
C210 C 0.81957 0.1895 0.49772 0.0
C211 C 0.77709 0.13987 0.49557 0.0
O212 O 0.33619 0.92329 0.64306 0.0
O213 O 0.27881 0.93512 0.50565 0.0
O214 O 0.73342 0.14015 0.49169 0.0
O215 O 0.77731 0.19187 0.62555 0.0
H216 H 0.37567 0.9569 0.6633 0.0
H217 H 0.34998 0.87421 0.66467 0.0
H218 H 0.28485 0.85865 0.66466 0.0
H219 H 0.32567 0.89099 0.68112 0.0
H220 H 0.38312 0.01423 0.64123 0.0
H221 H 0.37142 0.8913 0.62216 0.0
H222 H 0.49412 0.0922 0.62875 0.0
H223 H 0.43311 0.08678 0.62883 0.0
H224 H 0.46354 0.09022 0.61017 0.0
H225 H 0.43438 0.89395 0.60546 0.0
H226 H 0.48922 0.94826 0.60087 0.0
H227 H 0.43331 0.92773 0.58896 0.0
H228 H 0.81608 0.17622 0.60938 0.0
H229 H 0.89833 0.24331 0.61634 0.0
H230 H 0.86959 0.26026 0.63154 0.0
H231 H 0.85322 0.26016 0.6108 0.0
H232 H 0.74137 0.10537 0.61546 0.0
H233 H 0.70861 0.21357 0.6231 0.0
H234 H 0.61565 0.01726 0.60727 0.0
H235 H 0.68051 0.03218 0.60604 0.0
H236 H 0.64929 0.04061 0.58915 0.0
H237 H 0.63267 0.20813 0.61483 0.0
H238 H 0.58055 0.15086 0.61774 0.0
H239 H 0.60255 0.17061 0.59798 0.0
H240 H 0.77334 0.12225 0.5072 0.0
H241 H 0.69215 0.05961 0.50671 0.0
H242 H 0.6798 0.17836 0.49597 0.0
H243 H 0.61836 0.02059 0.53911 0.0
H244 H 0.63173 0.99749 0.52172 0.0
H245 H 0.57135 0.99321 0.52389 0.0
H246 H 0.61864 0.19126 0.50761 0.0
H247 H 0.59564 0.1639 0.52669 0.0
H248 H 0.55966 0.13819 0.50894 0.0
H249 H 0.24981 0.96884 0.51826 0.0
H250 H 0.16216 0.90653 0.51523 0.0
H251 H 0.20106 0.88628 0.52408 0.0
H252 H 0.18191 0.87355 0.50344 0.0
H253 H 0.33379 0.89912 0.5115 0.0
H254 H 0.33025 0.02504 0.51262 0.0
H255 H 0.43383 0.93095 0.5378 0.0
H256 H 0.46219 0.94631 0.51856 0.0
H257 H 0.40301 0.89383 0.52092 0.0
H258 H 0.39744 0.09425 0.52232 0.0
H259 H 0.45802 0.09894 0.52018 0.0
H260 H 0.42808 0.0848 0.53919 0.0
H261 H 0.54747 0.05529 0.62054 0.0
H262 H 0.65932 0.12148 0.57631 0.0
H263 H 0.64991 0.11661 0.54787 0.0
H264 H 0.51054 0.0444 0.51128 0.0
H265 H 0.39758 0.9913 0.55558 0.0
H266 H 0.40717 0.99315 0.58404 0.0
H267 H 0.855 0.19029 0.501 0.0
H268 H 0.81024 0.20624 0.50743 0.0
H269 H 0.82533 0.2095 0.48656 0.0
C270 C 0.79091 0.76063 0.84517 0.0
C271 C 0.76549 0.73771 0.82935 0.0
C272 C 0.67672 0.68984 0.83683 0.0
C273 C 0.63011 0.68729 0.83647 0.0
C274 C 0.58857 0.65158 0.84419 0.0
C275 C 0.59377 0.61719 0.85231 0.0
C276 C 0.64055 0.61891 0.85246 0.0
C277 C 0.68165 0.65537 0.84484 0.0
C278 C 0.53931 0.65088 0.84383 0.0
C279 C 0.64725 0.58237 0.8608 0.0
C280 C 0.29333 0.28573 0.80672 0.0
C281 C 0.33224 0.31389 0.81881 0.0
C282 C 0.36926 0.39004 0.83133 0.0
C283 C 0.40826 0.38764 0.83931 0.0
C284 C 0.44392 0.42487 0.84844 0.0
C285 C 0.43965 0.46469 0.85002 0.0
C286 C 0.39999 0.46687 0.84221 0.0
C287 C 0.36554 0.42958 0.83288 0.0
C288 C 0.48609 0.42157 0.85645 0.0
C289 C 0.39397 0.50857 0.84374 0.0
C290 C 0.36621 0.37827 0.95211 0.0
C291 C 0.4139 0.38755 0.94725 0.0
C292 C 0.44647 0.42867 0.93941 0.0
C293 C 0.43128 0.46134 0.93636 0.0
C294 C 0.38381 0.45265 0.94146 0.0
C295 C 0.35183 0.41109 0.94924 0.0
C296 C 0.497 0.43695 0.93417 0.0
C297 C 0.36673 0.48699 0.93848 0.0
C298 C 0.6606 0.80951 0.9562 0.0
C299 C 0.65817 0.77661 0.96942 0.0
C300 C 0.63263 0.7038 0.95533 0.0
C301 C 0.64813 0.67295 0.95081 0.0
C302 C 0.61606 0.63266 0.94231 0.0
C303 C 0.56751 0.62359 0.93795 0.0
C304 C 0.55122 0.65427 0.94266 0.0
C305 C 0.5837 0.69382 0.95142 0.0
C306 C 0.63421 0.60007 0.93783 0.0
C307 C 0.49962 0.64555 0.93822 0.0
C308 C 0.55075 0.57992 0.86099 0.0
C309 C 0.51577 0.54141 0.85236 0.0
C310 C 0.47618 0.50391 0.85999 0.0
C311 C 0.47193 0.50414 0.87676 0.0
C312 C 0.43371 0.46634 0.88491 0.0
C313 C 0.43124 0.46611 0.90147 0.0
C314 C 0.46603 0.50419 0.91049 0.0
C315 C 0.46473 0.50379 0.92734 0.0
C316 C 0.49822 0.54305 0.93594 0.0
C317 C 0.53406 0.58266 0.92814 0.0
C318 C 0.53757 0.58293 0.91132 0.0
C319 C 0.57444 0.62152 0.90312 0.0
C320 C 0.5788 0.62069 0.88664 0.0
C321 C 0.54577 0.58161 0.87769 0.0
C322 C 0.50691 0.54315 0.88563 0.0
C323 C 0.50336 0.54351 0.90249 0.0
C324 C 0.33289 0.27141 0.9493 0.0
C325 C 0.34022 0.3022 0.96376 0.0
O326 O 0.71554 0.72611 0.82939 0.0
O327 O 0.6662 0.7427 0.96321 0.0
O328 O 0.33288 0.33827 0.95939 0.0
O329 O 0.33479 0.35549 0.82196 0.0
H330 H 0.76822 0.70625 0.82761 0.0
H331 H 0.831 0.77023 0.8451 0.0
H332 H 0.77269 0.73667 0.85527 0.0
H333 H 0.78833 0.79205 0.84718 0.0
H334 H 0.62654 0.71389 0.83025 0.0
H335 H 0.71727 0.65653 0.8453 0.0
H336 H 0.51076 0.61957 0.83749 0.0
H337 H 0.54212 0.68157 0.83777 0.0
H338 H 0.52596 0.64933 0.85619 0.0
H339 H 0.68437 0.58591 0.85843 0.0
H340 H 0.61753 0.54763 0.85691 0.0
H341 H 0.64361 0.58475 0.87387 0.0
H342 H 0.36942 0.31706 0.81662 0.0
H343 H 0.31481 0.28334 0.79637 0.0
H344 H 0.28287 0.30954 0.80047 0.0
H345 H 0.2418 0.22798 0.81954 0.0
H346 H 0.4113 0.35703 0.83847 0.0
H347 H 0.33527 0.43107 0.82674 0.0
H348 H 0.48118 0.41991 0.86957 0.0
H349 H 0.52256 0.45268 0.85379 0.0
H350 H 0.4875 0.39067 0.85259 0.0
H351 H 0.35906 0.50351 0.83789 0.0
H352 H 0.42639 0.53867 0.83819 0.0
H353 H 0.39352 0.5168 0.85653 0.0
H354 H 0.37905 0.31583 0.96839 0.0
H355 H 0.42609 0.36291 0.94933 0.0
H356 H 0.31515 0.40387 0.95306 0.0
H357 H 0.4988 0.43845 0.92094 0.0
H358 H 0.50459 0.40956 0.93833 0.0
H359 H 0.52706 0.47057 0.93879 0.0
H360 H 0.32861 0.47507 0.94314 0.0
H361 H 0.36675 0.49341 0.92547 0.0
H362 H 0.39335 0.52025 0.94423 0.0
H363 H 0.62055 0.76057 0.97498 0.0
H364 H 0.65688 0.838 0.96139 0.0
H365 H 0.62974 0.79127 0.94741 0.0
H366 H 0.69651 0.82427 0.94968 0.0
H367 H 0.68573 0.68064 0.95395 0.0
H368 H 0.57057 0.71682 0.95495 0.0
H369 H 0.63772 0.59983 0.92468 0.0
H370 H 0.60657 0.56452 0.94157 0.0
H371 H 0.67111 0.60986 0.94337 0.0
H372 H 0.49327 0.6737 0.94219 0.0
H373 H 0.4709 0.61287 0.94371 0.0
H374 H 0.49416 0.64173 0.92508 0.0
H375 H 0.51958 0.54049 0.83954 0.0
H376 H 0.40574 0.43614 0.8786 0.0
H377 H 0.40155 0.43573 0.9071 0.0
H378 H 0.49678 0.54258 0.94886 0.0
H379 H 0.60091 0.65257 0.90937 0.0
H380 H 0.60838 0.65114 0.88101 0.0
H381 H 0.29641 0.26035 0.94325 0.0
H382 H 0.33456 0.24047 0.95311 0.0
H383 H 0.36282 0.2902 0.94045 0.0
C384 C 0.00727 0.12407 0.1161 0.0
C385 C 0.98772 0.12801 0.10136 0.0
C386 C 0.01123 0.15206 0.12907 0.0
C387 C 0.99517 0.18464 0.12724 0.0
C388 C 0.97387 0.18764 0.11257 0.0
C389 C 0.97044 0.15934 0.09981 0.0
C390 C 0.03402 0.14779 0.14456 0.0
C391 C 0.95606 0.22176 0.11018 0.0
C392 C 0.97131 0.23752 0.16366 0.0
C393 C 0.01512 0.28066 0.16444 0.0
C394 C 0.9645 0.20564 0.15175 0.0
C395 C 0.00259 0.21707 0.1404 0.0
C396 C 0.04734 0.26021 0.14132 0.0
C397 C 0.05318 0.29137 0.15338 0.0
C398 C 0.91642 0.15989 0.15121 0.0
C399 C 0.08889 0.27361 0.12947 0.0
H400 H 0.02072 0.09996 0.11739 0.0
H401 H 0.95511 0.1625 0.08849 0.0
H402 H 0.06976 0.18009 0.14692 0.0
H403 H 0.00874 0.14266 0.15463 0.0
H404 H 0.04164 0.11878 0.14438 0.0
H405 H 0.93807 0.21817 0.09831 0.0
H406 H 0.92885 0.21724 0.11954 0.0
H407 H 0.98824 0.2573 0.11131 0.0
H408 H 0.94224 0.2288 0.17238 0.0
H409 H 0.08751 0.3243 0.15415 0.0
H410 H 0.92477 0.13141 0.15178 0.0
H411 H 0.89642 0.15638 0.13976 0.0
H412 H 0.89107 0.15582 0.16117 0.0
H413 H 0.10143 0.24789 0.12959 0.0
H414 H 0.12171 0.30807 0.13202 0.0
H415 H 0.0749 0.27392 0.11725 0.0
C416 C 0.86593 0.023 0.42842 0.0
C417 C 0.9162 0.05602 0.42568 0.0
C418 C 0.83655 0.03214 0.43885 0.0
C419 C 0.85812 0.07512 0.44677 0.0
C420 C 0.90838 0.10893 0.44372 0.0
C421 C 0.93664 0.09904 0.4332 0.0
C422 C 0.78291 0.99549 0.44169 0.0
C423 C 0.93292 0.1552 0.45195 0.0
C424 C 0.78486 0.12411 0.46648 0.0
C425 C 0.79028 0.11648 0.48266 0.0
C426 C 0.80382 0.10804 0.45453 0.0
C427 C 0.82956 0.08456 0.4589 0.0
C428 C 0.83329 0.07514 0.47518 0.0
C429 C 0.81371 0.09132 0.48685 0.0
C430 C 0.79882 0.11854 0.4373 0.0
C431 C 0.86073 0.0505 0.48036 0.0
H432 H 0.84974 0.98974 0.42263 0.0
H433 H 0.97535 0.12493 0.43115 0.0
H434 H 0.77865 0.98346 0.45423 0.0
H435 H 0.7577 0.00981 0.43988 0.0
H436 H 0.77054 0.96539 0.43367 0.0
H437 H 0.97184 0.17823 0.44786 0.0
H438 H 0.91086 0.17253 0.44973 0.0
H439 H 0.93385 0.15044 0.46503 0.0
H440 H 0.76742 0.14412 0.46319 0.0
H441 H 0.81851 0.08587 0.49936 0.0
H442 H 0.78628 0.08749 0.42979 0.0
H443 H 0.83587 0.14531 0.43285 0.0
H444 H 0.77196 0.13119 0.43573 0.0
H445 H 0.84738 0.01838 0.4734 0.0
H446 H 0.85593 0.04177 0.49326 0.0
H447 H 0.90131 0.07268 0.478 0.0
C448 C 0.87719 0.87869 0.74849 0.0
C449 C 0.92107 0.92104 0.75098 0.0
C450 C 0.85148 0.84974 0.76132 0.0
C451 C 0.87037 0.86322 0.77702 0.0
C452 C 0.91452 0.90602 0.77965 0.0
C453 C 0.93923 0.93456 0.76659 0.0
C454 C 0.80426 0.80455 0.75805 0.0
C455 C 0.93605 0.92137 0.79622 0.0
C456 C 0.78107 0.80462 0.81137 0.0
C457 C 0.79217 0.77023 0.81566 0.0
C458 C 0.80635 0.83526 0.79886 0.0
C459 C 0.84428 0.83199 0.79064 0.0
C460 C 0.85658 0.79817 0.7952 0.0
C461 C 0.83044 0.76778 0.80767 0.0
C462 C 0.79217 0.87085 0.79434 0.0
C463 C 0.89719 0.79393 0.78686 0.0
H464 H 0.86278 0.8681 0.73647 0.0
H465 H 0.97319 0.96718 0.76861 0.0
H466 H 0.80938 0.77562 0.76204 0.0
H467 H 0.77275 0.80261 0.76492 0.0
H468 H 0.79373 0.79975 0.74519 0.0
H469 H 0.97021 0.95597 0.79627 0.0
H470 H 0.9078 0.92223 0.80405 0.0
H471 H 0.94566 0.89637 0.80149 0.0
H472 H 0.7524 0.80741 0.81778 0.0
H473 H 0.83989 0.74194 0.8112 0.0
H474 H 0.77905 0.86583 0.78174 0.0
H475 H 0.82539 0.90583 0.79527 0.0
H476 H 0.76217 0.86913 0.80201 0.0
H477 H 0.8873 0.78595 0.77405 0.0
H478 H 0.90313 0.76662 0.79214 0.0
H479 H 0.933 0.8271 0.78747 0.0
C480 C 0.06759 0.91665 0.09662 0.0
C481 C 0.04872 0.94651 0.09882 0.0
C482 C 0.0667 0.88796 0.10899 0.0
C483 C 0.04619 0.88894 0.12389 0.0
C484 C 0.0286 0.92008 0.12636 0.0
C485 C 0.03021 0.94862 0.1138 0.0
C486 C 0.08626 0.85554 0.10594 0.0
C487 C 0.00647 0.92211 0.14209 0.0
C488 C 0.99314 0.78051 0.14907 0.0
C489 C 0.03195 0.79176 0.16017 0.0
C490 C 0.99725 0.81193 0.13725 0.0
C491 C 0.04104 0.85581 0.1366 0.0
C492 C 0.08002 0.86761 0.14792 0.0
C493 C 0.07491 0.8355 0.1596 0.0
C494 C 0.95476 0.79813 0.12543 0.0
C495 C 0.12717 0.9141 0.14765 0.0
H496 H 0.08218 0.91496 0.08511 0.0
H497 H 0.01551 0.97155 0.11558 0.0
H498 H 0.1143 0.86 0.11521 0.0
H499 H 0.05508 0.81945 0.10666 0.0
H500 H 0.10383 0.86101 0.09404 0.0
H501 H 0.99749 0.95025 0.14244 0.0
H502 H 0.9716 0.88898 0.14424 0.0
H503 H 0.03281 0.92716 0.15203 0.0
H504 H 0.95949 0.74706 0.14967 0.0
H505 H 0.10457 0.84459 0.16835 0.0
H506 H 0.96834 0.79946 0.11314 0.0
H507 H 0.94073 0.82271 0.12599 0.0
H508 H 0.92305 0.76292 0.12768 0.0
H509 H 0.14625 0.9192 0.13606 0.0
H510 H 0.15375 0.91807 0.15739 0.0
H511 H 0.11766 0.94172 0.14879 0.0
C512 C 0.08626 0.97017 0.43892 0.0
C513 C 0.10903 0.00838 0.42873 0.0
C514 C 0.11374 0.96315 0.45089 0.0
C515 C 0.1656 0.9947 0.45262 0.0
C516 C 0.18939 0.0324 0.44201 0.0
C517 C 0.1607 0.03904 0.43025 0.0
C518 C 0.08675 0.92272 0.46205 0.0
C519 C 0.2448 0.06621 0.44332 0.0
C520 C 0.21291 0.9953 0.49453 0.0
C521 C 0.22985 0.9638 0.49317 0.0
C522 C 0.19493 0.00811 0.48116 0.0
C523 C 0.19374 0.9888 0.46608 0.0
C524 C 0.21337 0.95893 0.46448 0.0
C525 C 0.23072 0.94638 0.47808 0.0
C526 C 0.17401 0.03981 0.48342 0.0
C527 C 0.21319 0.93796 0.44858 0.0
H528 H 0.04637 0.9463 0.4379 0.0
H529 H 0.17863 0.06853 0.42238 0.0
H530 H 0.10453 0.90107 0.46189 0.0
H531 H 0.08959 0.93526 0.47445 0.0
H532 H 0.04649 0.90084 0.45887 0.0
H533 H 0.25843 0.09116 0.43329 0.0
H534 H 0.25302 0.08562 0.45467 0.0
H535 H 0.26617 0.04772 0.44357 0.0
H536 H 0.21168 0.00839 0.5062 0.0
H537 H 0.24314 0.92153 0.477 0.0
H538 H 0.13273 0.02011 0.48178 0.0
H539 H 0.18919 0.06755 0.47434 0.0
H540 H 0.18265 0.05575 0.49546 0.0
H541 H 0.17428 0.91158 0.44532 0.0
H542 H 0.23653 0.92133 0.44884 0.0
H543 H 0.22714 0.9645 0.43908 0.0
C544 C 0.1165 0.12774 0.77074 0.0
C545 C 0.13062 0.14898 0.75576 0.0
C546 C 0.14362 0.15037 0.78459 0.0
C547 C 0.18574 0.19506 0.7834 0.0
C548 C 0.19918 0.21716 0.76841 0.0
C549 C 0.17148 0.19388 0.75477 0.0
C550 C 0.12776 0.12618 0.80047 0.0
C551 C 0.24357 0.26493 0.76665 0.0
C552 C 0.24184 0.28224 0.82722 0.0
C553 C 0.29995 0.27844 0.82907 0.0
C554 C 0.20376 0.25396 0.80987 0.0
C555 C 0.21724 0.21747 0.79759 0.0
C556 C 0.2663 0.20496 0.80267 0.0
C557 C 0.30644 0.23158 0.81975 0.0
C558 C 0.16108 0.261 0.80558 0.0
C559 C 0.27439 0.17315 0.79245 0.0
H560 H 0.08481 0.09314 0.77163 0.0
H561 H 0.18252 0.21068 0.74327 0.0
H562 H 0.15771 0.12029 0.80532 0.0
H563 H 0.12243 0.1482 0.80914 0.0
H564 H 0.09248 0.09255 0.79955 0.0
H565 H 0.2473 0.2783 0.7543 0.0
H566 H 0.24 0.28888 0.77487 0.0
H567 H 0.27834 0.26456 0.76988 0.0
H568 H 0.2367 0.30691 0.83396 0.0
H569 H 0.3387 0.22769 0.82205 0.0
H570 H 0.12612 0.22716 0.80487 0.0
H571 H 0.16753 0.27711 0.79361 0.0
H572 H 0.15718 0.28321 0.81452 0.0
H573 H 0.24012 0.13874 0.79242 0.0
H574 H 0.30681 0.17043 0.79689 0.0
H575 H 0.28087 0.18604 0.78 0.0
C576 C 0.97095 0.13065 0.6841 0.0
C577 C 0.94752 0.0849 0.6894 0.0
C578 C 0.94642 0.14575 0.67362 0.0
C579 C 0.89699 0.1145 0.66842 0.0
C580 C 0.87246 0.06866 0.6741 0.0
C581 C 0.89812 0.05431 0.68446 0.0
C582 C 0.97402 0.19487 0.66776 0.0
C583 C 0.81953 0.03458 0.66898 0.0
C584 C 0.82728 0.1701 0.64997 0.0
C585 C 0.83463 0.167 0.63364 0.0
C586 C 0.84529 0.15118 0.66144 0.0
C587 C 0.87219 0.12958 0.65646 0.0
C588 C 0.87879 0.12554 0.63998 0.0
C589 C 0.85994 0.14432 0.62878 0.0
C590 C 0.8372 0.15588 0.67889 0.0
C591 C 0.90767 0.10316 0.63419 0.0
H592 H 0.00909 0.15457 0.68782 0.0
H593 H 0.8796 0.01897 0.68857 0.0
H594 H 0.97836 0.19534 0.65463 0.0
H595 H 0.95217 0.21207 0.67035 0.0
H596 H 0.01175 0.21519 0.67333 0.0
H597 H 0.80458 0.00115 0.67529 0.0
H598 H 0.79453 0.04877 0.67125 0.0
H599 H 0.81828 0.02829 0.65596 0.0
H600 H 0.80851 0.18832 0.65379 0.0
H601 H 0.86632 0.14255 0.61619 0.0
H602 H 0.87357 0.17974 0.68472 0.0
H603 H 0.82192 0.12214 0.68498 0.0
H604 H 0.81121 0.16927 0.68072 0.0
H605 H 0.94729 0.12364 0.63821 0.0
H606 H 0.90681 0.10028 0.62098 0.0
H607 H 0.89217 0.06827 0.63938 0.0
C608 C 0.86028 0.9614 0.02939 0.0
C609 C 0.88695 0.94506 0.03825 0.0
C610 C 0.82193 0.9325 0.01878 0.0
C611 C 0.80922 0.8859 0.01728 0.0
C612 C 0.83464 0.86874 0.02669 0.0
C613 C 0.87364 0.89869 0.03693 0.0
C614 C 0.79629 0.95226 0.00873 0.0
C615 C 0.82137 0.81901 0.02569 0.0
C616 C 0.68344 0.8058 0.99773 0.0
C617 C 0.69755 0.80292 0.98213 0.0
C618 C 0.71948 0.8316 0.00944 0.0
C619 C 0.77077 0.85576 0.00537 0.0
C620 C 0.78534 0.85236 0.98971 0.0
C621 C 0.74859 0.82551 0.97834 0.0
C622 C 0.70267 0.8335 0.02612 0.0
C623 C 0.83964 0.878 0.98485 0.0
H624 H 0.87069 0.9973 0.03028 0.0
H625 H 0.89397 0.88585 0.04384 0.0
H626 H 0.80311 0.94964 0.99592 0.0
H627 H 0.75522 0.93226 0.01051 0.0
H628 H 0.80976 0.98891 0.01159 0.0
H629 H 0.84178 0.81024 0.03477 0.0
H630 H 0.78054 0.79605 0.02736 0.0
H631 H 0.83057 0.81178 0.0137 0.0
H632 H 0.64408 0.78808 0.00076 0.0
H633 H 0.75968 0.82285 0.96636 0.0
H634 H 0.71204 0.86917 0.02896 0.0
H635 H 0.72278 0.82367 0.03493 0.0
H636 H 0.66173 0.81038 0.02762 0.0
H637 H 0.8552 0.91552 0.98649 0.0
H638 H 0.8447 0.87151 0.97222 0.0
H639 H 0.86186 0.86778 0.99257 0.0
C640 C 0.94056 0.8606 0.36845 0.0
C641 C 0.95346 0.90604 0.36488 0.0
C642 C 0.93835 0.83056 0.3565 0.0
C643 C 0.94805 0.84592 0.3405 0.0
C644 C 0.95937 0.89128 0.33672 0.0
C645 C 0.96263 0.92105 0.349 0.0
C646 C 0.92714 0.7828 0.36109 0.0
C647 C 0.96866 0.90851 0.31974 0.0
C648 C 0.99115 0.78373 0.31275 0.0
C649 C 0.94589 0.75126 0.30548 0.0
C650 C 0.99241 0.81494 0.32408 0.0
C651 C 0.94768 0.81473 0.32788 0.0
C652 C 0.9023 0.78334 0.32011 0.0
C653 C 0.90193 0.75186 0.30909 0.0
C654 C 0.04147 0.84752 0.33224 0.0
C655 C 0.85405 0.78271 0.32356 0.0
H656 H 0.93392 0.84891 0.38072 0.0
H657 H 0.97247 0.95611 0.34618 0.0
H658 H 0.89376 0.75663 0.35444 0.0
H659 H 0.95906 0.77813 0.35782 0.0
H660 H 0.92023 0.77609 0.37407 0.0
H661 H 0.97366 0.94354 0.31865 0.0
H662 H 0.00273 0.90935 0.3152 0.0
H663 H 0.9369 0.88472 0.31195 0.0
H664 H 0.02558 0.78443 0.30975 0.0
H665 H 0.86713 0.72753 0.30322 0.0
H666 H 0.03811 0.84133 0.3453 0.0
H667 H 0.05076 0.8836 0.33028 0.0
H668 H 0.07295 0.84355 0.32787 0.0
H669 H 0.84348 0.77292 0.33617 0.0
H670 H 0.82266 0.75817 0.31577 0.0
H671 H 0.85913 0.81758 0.32186 0.0
C672 C 0.11584 0.95954 0.69512 0.0
C673 C 0.12342 0.00417 0.69364 0.0
C674 C 0.15004 0.94811 0.68871 0.0
C675 C 0.19217 0.98183 0.68031 0.0
C676 C 0.199 0.02647 0.67828 0.0
C677 C 0.16486 0.03727 0.68514 0.0
C678 C 0.14198 0.90038 0.69139 0.0
C679 C 0.24284 0.06306 0.66911 0.0
C680 C 0.30686 0.96811 0.67876 0.0
C681 C 0.30107 0.94713 0.66387 0.0
C682 C 0.2719 0.97983 0.68419 0.0
C683 C 0.2304 0.97104 0.67437 0.0
C684 C 0.22487 0.95089 0.65915 0.0
C685 C 0.25983 0.93848 0.65417 0.0
C686 C 0.27869 0.00048 0.70062 0.0
C687 C 0.18163 0.94184 0.64823 0.0
H688 H 0.08402 0.93392 0.70175 0.0
H689 H 0.17065 0.07172 0.68384 0.0
H690 H 0.14085 0.88405 0.67982 0.0
H691 H 0.17379 0.90253 0.69842 0.0
H692 H 0.10671 0.87783 0.69785 0.0
H693 H 0.2407 0.0949 0.66759 0.0
H694 H 0.27832 0.07198 0.67545 0.0
H695 H 0.24448 0.04991 0.65715 0.0
H696 H 0.33831 0.97425 0.68635 0.0
H697 H 0.25455 0.92167 0.64274 0.0
H698 H 0.24592 0.97788 0.70809 0.0
H699 H 0.28068 0.03433 0.69982 0.0
H700 H 0.31312 0.00527 0.70673 0.0
H701 H 0.14585 0.91603 0.6537 0.0
H702 H 0.18458 0.92893 0.63635 0.0
H703 H 0.17991 0.97381 0.64654 0.0
C704 C 0.14317 0.17638 0.03475 0.0
C705 C 0.13293 0.13084 0.03623 0.0
C706 C 0.17854 0.20667 0.02381 0.0
C707 C 0.20356 0.19078 0.01392 0.0
C708 C 0.1942 0.14517 0.01559 0.0
C709 C 0.15931 0.11586 0.02684 0.0
C710 C 0.18827 0.25535 0.0226 0.0
C711 C 0.21971 0.12683 0.00511 0.0
C712 C 0.25239 0.24993 0.9741 0.0
C713 C 0.30424 0.27489 0.97698 0.0
C714 C 0.2192 0.22245 0.98603 0.0
C715 C 0.23812 0.2212 0.00138 0.0
C716 C 0.29009 0.24812 0.0046 0.0
C717 C 0.32255 0.27437 0.99233 0.0
C718 C 0.16402 0.19394 0.9821 0.0
C719 C 0.31145 0.24876 0.02095 0.0
H720 H 0.12313 0.18827 0.04205 0.0
H721 H 0.15137 0.08066 0.02786 0.0
H722 H 0.22906 0.28019 0.02342 0.0
H723 H 0.175 0.26054 0.01084 0.0
H724 H 0.16906 0.26346 0.03209 0.0
H725 H 0.2094 0.09098 0.00823 0.0
H726 H 0.20929 0.12763 0.99245 0.0
H727 H 0.26097 0.14893 0.00613 0.0
H728 H 0.23783 0.2512 0.96241 0.0
H729 H 0.36246 0.29432 0.99473 0.0
H730 H 0.14217 0.20315 0.99016 0.0
H731 H 0.15112 0.15695 0.98401 0.0
H732 H 0.15538 0.19871 0.96957 0.0
H733 H 0.29206 0.25775 0.03009 0.0
H734 H 0.35226 0.27371 0.02176 0.0
H735 H 0.3051 0.21403 0.02392 0.0
C736 C 0.10598 0.21146 0.37168 0.0
C737 C 0.07968 0.16492 0.36725 0.0
C738 C 0.105 0.24526 0.36205 0.0
C739 C 0.07754 0.23234 0.34752 0.0
C740 C 0.0544 0.18602 0.34234 0.0
C741 C 0.0555 0.15273 0.35232 0.0
C742 C 0.13017 0.29422 0.36807 0.0
C743 C 0.02576 0.17111 0.32675 0.0
C744 C 0.02012 0.30573 0.33667 0.0
C745 C 0.05477 0.33714 0.32584 0.0
C746 C 0.02614 0.27038 0.34329 0.0
C747 C 0.0679 0.26617 0.33897 0.0
C748 C 0.10222 0.29679 0.32763 0.0
C749 C 0.09565 0.33235 0.32136 0.0
C750 C 0.98895 0.23885 0.35549 0.0
C751 C 0.14685 0.29308 0.32258 0.0
H752 H 0.12511 0.22133 0.38313 0.0
H753 H 0.03536 0.1169 0.34875 0.0
H754 H 0.15375 0.31847 0.35865 0.0
H755 H 0.10122 0.30317 0.37119 0.0
H756 H 0.15395 0.29946 0.37879 0.0
H757 H 0.01697 0.13597 0.32325 0.0
H758 H 0.99003 0.17121 0.32789 0.0
H759 H 0.04735 0.19546 0.31708 0.0
H760 H 0.98902 0.30982 0.34037 0.0
H761 H 0.12311 0.35703 0.31322 0.0
H762 H 0.00803 0.24379 0.36722 0.0
H763 H 0.9737 0.2024 0.35199 0.0
H764 H 0.95722 0.24527 0.35694 0.0
H765 H 0.17425 0.3037 0.33259 0.0
H766 H 0.16589 0.31516 0.31212 0.0
H767 H 0.13527 0.25694 0.3196 0.0
loop_
_geom_bond_atom_site_label_1
_geom_bond_atom_site_label_2
_geom_bond_distance
_geom_bond_site_symmetry_2
_ccdc_geom_bond_type
O0 Cd1 2.223 1_455 S
O0 C8 1.315 . S
Cd1 O0 2.223 1_655 S
Cd1 O4 2.297 . S
Cd1 O5 2.439 1_655 S
Cd1 O11 2.240 1_545 S
Cd2 O3 2.240 . S
Cd2 O10 2.223 1_545 S
Cd2 O12 2.297 1_545 S
Cd2 O13 2.439 1_545 S
O3 Cd2 2.240 . S
O3 C8 1.279 . S
O4 Cd1 2.297 . S
O4 C6 1.247 1_655 S
O5 Cd1 2.439 1_455 S
O5 C6 1.208 . S
C6 O4 1.247 1_455 S
C6 O5 1.208 . S
C7 O12 1.247 . S
C7 O13 1.208 . S
C8 O0 1.315 . S
C8 O3 1.279 . S
C9 O10 1.315 1_655 S
C9 O11 1.279 . S
O10 Cd2 2.223 1_565 S
O10 C9 1.315 1_455 S
O11 Cd1 2.240 1_565 S
O11 C9 1.279 . S
O12 Cd2 2.297 1_565 S
O12 C7 1.247 . S
O13 Cd2 2.439 1_565 S
O13 C7 1.208 . S
O14 Cd15 2.223 . S
O14 C22 1.315 1_455 S
Cd15 O14 2.223 . S
Cd15 O18 2.297 . S
Cd15 O19 2.439 . S
Cd15 O25 2.240 . S
Cd16 O17 2.240 1_565 S
Cd16 O24 2.223 1_655 S
Cd16 O26 2.297 1_655 S
Cd16 O27 2.439 1_655 S
O17 Cd16 2.240 1_545 S
O17 C22 1.279 . S
O18 Cd15 2.297 . S
O18 C20 1.247 . S
O19 Cd15 2.439 . S
O19 C20 1.208 . S
C20 O18 1.247 . S
C20 O19 1.208 . S
C21 O26 1.247 . S
C21 O27 1.208 . S
C22 O14 1.315 1_655 S
C22 O17 1.279 . S
C23 O24 1.315 1_545 S
C23 O25 1.279 . S
O24 Cd16 2.223 1_455 S
O24 C23 1.315 1_565 S
O25 Cd15 2.240 . S
O25 C23 1.279 . S
O26 Cd16 2.297 1_455 S
O26 C21 1.247 . S
O27 Cd16 2.439 1_455 S
O27 C21 1.208 . S
O28 Cd29 2.223 . S
O28 C36 1.315 1_565 S
Cd29 O28 2.223 . S
Cd29 O32 2.297 . S
Cd29 O33 2.439 . S
Cd29 O39 2.240 1_665 S
Cd30 O31 2.240 1_455 S
Cd30 O38 2.223 . S
Cd30 O40 2.297 . S
Cd30 O41 2.439 . S
O31 Cd30 2.240 1_655 S
O31 C36 1.279 . S
O32 Cd29 2.297 . S
O32 C34 1.247 . S
O33 Cd29 2.439 . S
O33 C34 1.208 . S
C34 O32 1.247 . S
C34 O33 1.208 . S
C35 O40 1.247 . S
C35 O41 1.208 . S
C36 O28 1.315 1_545 S
C36 O31 1.279 . S
C37 O38 1.315 . S
C37 O39 1.279 . S
O38 Cd30 2.223 . S
O38 C37 1.315 . S
O39 Cd29 2.240 1_445 S
O39 C37 1.279 . S
O40 Cd30 2.297 . S
O40 C35 1.247 . S
O41 Cd30 2.439 . S
O41 C35 1.208 . S
C42 C43 1.560 . S
C42 H103 0.959 . S
C42 H104 0.959 . S
C42 H105 0.960 . S
C43 C42 1.560 . S
C43 O98 1.426 . S
C43 H102 0.980 1_655 S
C44 C45 1.407 1_655 S
C44 C49 1.418 . S
C44 O98 1.334 . S
C45 C44 1.407 1_455 S
C45 C46 1.360 . S
C45 H106 0.929 . S
C46 C45 1.360 . S
C46 C47 1.401 . S
C46 C50 1.527 . S
C47 C46 1.401 . S
C47 C48 1.405 1_455 S
C47 C80 1.587 . S
C48 C47 1.405 1_655 S
C48 C49 1.332 . S
C48 C51 1.496 . S
C49 C44 1.418 . S
C49 C48 1.332 . S
C49 H107 0.929 . S
C50 C46 1.527 . S
C50 H108 0.959 . S
C50 H109 0.961 . S
C50 H110 0.961 . S
C51 C48 1.496 . S
C51 H111 0.960 . S
C51 H112 0.960 . S
C51 H113 0.961 . S
C52 C53 1.517 . S
C52 H115 0.961 . S
C52 H116 0.960 . S
C52 H117 0.959 . S
C53 C52 1.517 . S
C53 O101 1.468 . S
C53 H114 0.980 . S
C54 C55 1.349 . S
C54 C59 1.367 . S
C54 O101 1.408 . S
C55 C54 1.349 . S
C55 C56 1.407 . S
C55 H118 0.930 . S
C56 C55 1.407 . S
C56 C57 1.449 . S
C56 C60 1.535 1_455 S
C57 C56 1.449 . S
C57 C58 1.384 . S
C57 C82 1.553 . S
C58 C57 1.384 . S
C58 C59 1.364 . S
C58 C61 1.450 . S
C59 C54 1.367 . S
C59 C58 1.364 . S
C59 H119 0.931 . S
C60 C56 1.535 1_655 S
C60 H120 0.959 . S
C60 H121 0.961 . S
C60 H122 0.959 . S
C61 C58 1.450 . S
C61 H123 0.960 . S
C61 H124 0.960 . S
C61 H125 0.960 . S
C62 C63 1.309 . S
C62 C67 1.304 . S
C62 O100 1.435 . S
C63 C62 1.309 . S
C63 C64 1.476 . S
C63 H127 0.930 1_455 S
C64 C63 1.476 . S
C64 C65 1.400 . S
C64 C68 1.567 1_455 S
C65 C64 1.400 . S
C65 C66 1.373 . S
C65 C87 1.432 . S
C66 C65 1.373 . S
C66 C67 1.339 . S
C66 C69 1.530 . S
C67 C62 1.304 . S
C67 C66 1.339 . S
C67 H128 0.930 . S
C68 C64 1.567 1_655 S
C68 H129 0.961 . S
C68 H130 0.960 . S
C68 H131 0.958 . S
C69 C66 1.530 . S
C69 H132 0.961 . S
C69 H133 0.960 . S
C69 H134 0.960 . S
C70 C71 1.530 1_655 S
C70 H136 0.961 . S
C70 H137 0.961 . S
C70 H138 0.959 . S
C71 C70 1.530 1_455 S
C71 O99 1.412 1_455 S
C71 H135 0.980 . S
C72 C73 1.288 . S
C72 C77 1.377 1_655 S
C72 O99 1.393 . S
C73 C72 1.288 . S
C73 C74 1.369 . S
C73 H139 0.932 . S
C74 C73 1.369 . S
C74 C75 1.398 1_655 S
C74 C78 1.527 . S
C75 C74 1.398 1_455 S
C75 C76 1.380 . S
C75 C89 1.497 . S
C76 C75 1.380 . S
C76 C77 1.383 . S
C76 C79 1.603 . S
C77 C72 1.377 1_455 S
C77 C76 1.383 . S
C77 H140 0.929 . S
C78 C74 1.527 . S
C78 H141 0.961 . S
C78 H142 0.959 . S
C78 H143 0.959 . S
C79 C76 1.603 . S
C79 H144 0.960 . S
C79 H145 0.962 . S
C79 H146 0.961 . S
C80 C47 1.587 . S
C80 C81 1.360 . S
C80 C93 1.412 . S
C81 C80 1.360 . S
C81 C82 1.365 . S
C81 H147 0.929 . S
C82 C57 1.553 . S
C82 C81 1.365 . S
C82 C83 1.404 . S
C83 C82 1.404 . S
C83 C84 1.395 . S
C83 C94 1.451 . S
C84 C83 1.395 . S
C84 C85 1.322 . S
C84 H148 0.930 . S
C85 C84 1.322 . S
C85 C86 1.459 . S
C85 H149 0.929 . S
C86 C85 1.459 . S
C86 C87 1.445 . S
C86 C95 1.395 . S
C87 C65 1.432 . S
C87 C86 1.445 . S
C87 C88 1.370 . S
C88 C87 1.370 . S
C88 C89 1.438 . S
C88 H150 0.930 . S
C89 C75 1.497 . S
C89 C88 1.438 . S
C89 C90 1.360 . S
C90 C89 1.360 . S
C90 C91 1.401 . S
C90 C95 1.446 . S
C91 C90 1.401 . S
C91 C92 1.347 . S
C91 H151 0.929 . S
C92 C91 1.347 . S
C92 C93 1.455 . S
C92 H152 0.930 . S
C93 C80 1.412 . S
C93 C92 1.455 . S
C93 C94 1.331 . S
C94 C83 1.451 . S
C94 C93 1.331 . S
C94 C95 1.497 . S
C95 C86 1.395 . S
C95 C90 1.446 . S
C95 C94 1.497 . S
C96 C97 1.582 . S
C96 H153 0.962 . S
C96 H154 0.959 . S
C96 H155 0.958 . S
C97 C96 1.582 . S
C97 O100 1.458 . S
C97 H126 0.980 . S
O98 C43 1.426 . S
O98 C44 1.334 . S
O99 C71 1.412 1_655 S
O99 C72 1.393 . S
O100 C62 1.435 . S
O100 C97 1.458 . S
O101 C53 1.468 . S
O101 C54 1.408 . S
H102 C43 0.980 1_455 S
H103 C42 0.959 . S
H104 C42 0.959 . S
H105 C42 0.960 . S
H106 C45 0.929 . S
H107 C49 0.929 . S
H108 C50 0.959 . S
H109 C50 0.961 . S
H110 C50 0.961 . S
H111 C51 0.960 . S
H112 C51 0.960 . S
H113 C51 0.961 . S
H114 C53 0.980 . S
H115 C52 0.961 . S
H116 C52 0.960 . S
H117 C52 0.959 . S
H118 C55 0.930 . S
H119 C59 0.931 . S
H120 C60 0.959 . S
H121 C60 0.961 . S
H122 C60 0.959 . S
H123 C61 0.960 . S
H124 C61 0.960 . S
H125 C61 0.960 . S
H126 C97 0.980 . S
H127 C63 0.930 1_655 S
H128 C67 0.930 . S
H129 C68 0.961 . S
H130 C68 0.960 . S
H131 C68 0.958 . S
H132 C69 0.961 . S
H133 C69 0.960 . S
H134 C69 0.960 . S
H135 C71 0.980 . S
H136 C70 0.961 . S
H137 C70 0.961 . S
H138 C70 0.959 . S
H139 C73 0.932 . S
H140 C77 0.929 . S
H141 C78 0.961 . S
H142 C78 0.959 . S
H143 C78 0.959 . S
H144 C79 0.960 . S
H145 C79 0.962 . S
H146 C79 0.961 . S
H147 C81 0.929 . S
H148 C84 0.930 . S
H149 C85 0.929 . S
H150 C88 0.930 . S
H151 C91 0.929 . S
H152 C92 0.930 . S
H153 C96 0.962 . S
H154 C96 0.959 . S
H155 C96 0.958 . S
C156 C157 1.560 1_565 S
C156 H217 0.959 . S
C156 H218 0.959 . S
C156 H219 0.960 1_565 S
C157 C156 1.560 1_545 S
C157 O212 1.426 1_545 S
C157 H216 0.980 . S
C158 C159 1.407 . S
C158 C163 1.418 1_545 S
C158 O212 1.334 1_545 S
C159 C158 1.407 . S
C159 C160 1.360 . S
C159 H220 0.929 . S
C160 C159 1.360 . S
C160 C161 1.401 . S
C160 C164 1.527 . S
C161 C160 1.401 . S
C161 C162 1.405 . S
C161 C194 1.587 . S
C162 C161 1.405 . S
C162 C163 1.332 1_545 S
C162 C165 1.496 1_545 S
C163 C158 1.418 1_565 S
C163 C162 1.332 1_565 S
C163 H221 0.929 . S
C164 C160 1.527 . S
C164 H222 0.959 . S
C164 H223 0.961 . S
C164 H224 0.961 . S
C165 C162 1.496 1_565 S
C165 H225 0.960 . S
C165 H226 0.960 . S
C165 H227 0.961 . S
C166 C167 1.517 . S
C166 H229 0.961 . S
C166 H230 0.960 . S
C166 H231 0.959 . S
C167 C166 1.517 . S
C167 O215 1.468 . S
C167 H228 0.980 . S
C168 C169 1.349 . S
C168 C173 1.367 . S
C168 O215 1.408 . S
C169 C168 1.349 . S
C169 C170 1.407 . S
C169 H232 0.930 . S
C170 C169 1.407 . S
C170 C171 1.449 . S
C170 C174 1.535 . S
C171 C170 1.449 . S
C171 C172 1.384 . S
C171 C196 1.553 . S
C172 C171 1.384 . S
C172 C173 1.364 . S
C172 C175 1.450 . S
C173 C168 1.367 . S
C173 C172 1.364 . S
C173 H233 0.931 . S
C174 C170 1.535 . S
C174 H234 0.959 . S
C174 H235 0.961 1_545 S
C174 H236 0.959 1_545 S
C175 C172 1.450 . S
C175 H237 0.960 . S
C175 H238 0.960 . S
C175 H239 0.960 . S
C176 C177 1.309 . S
C176 C181 1.304 . S
C176 O214 1.435 . S
C177 C176 1.309 . S
C177 C178 1.476 . S
C177 H241 0.930 . S
C178 C177 1.476 . S
C178 C179 1.400 . S
C178 C182 1.567 1_545 S
C179 C178 1.400 . S
C179 C180 1.373 . S
C179 C201 1.432 . S
C180 C179 1.373 . S
C180 C181 1.339 . S
C180 C183 1.530 . S
C181 C176 1.304 . S
C181 C180 1.339 . S
C181 H242 0.930 . S
C182 C178 1.567 1_565 S
C182 H243 0.961 . S
C182 H244 0.960 . S
C182 H245 0.958 . S
C183 C180 1.530 . S
C183 H246 0.961 . S
C183 H247 0.960 . S
C183 H248 0.960 . S
C184 C185 1.530 . S
C184 H250 0.961 . S
C184 H251 0.961 1_545 S
C184 H252 0.959 1_545 S
C185 C184 1.530 . S
C185 O213 1.412 . S
C185 H249 0.980 . S
C186 C187 1.288 1_545 S
C186 C191 1.377 . S
C186 O213 1.393 . S
C187 C186 1.288 1_565 S
C187 C188 1.371 1_565 S
C187 H253 0.932 . S
C188 C187 1.371 1_545 S
C188 C189 1.404 . S
C188 C192 1.520 1_545 S
C189 C188 1.404 . S
C189 C190 1.380 . S
C189 C203 1.497 . S
C190 C189 1.380 . S
C190 C191 1.383 . S
C190 C193 1.603 . S
C191 C186 1.377 . S
C191 C190 1.383 . S
C191 H254 0.929 . S
C192 C188 1.520 1_565 S
C192 H255 0.961 . S
C192 H256 0.959 . S
C192 H257 0.959 . S
C193 C190 1.603 . S
C193 H258 0.960 . S
C193 H259 0.962 . S
C193 H260 0.961 . S
C194 C161 1.587 . S
C194 C195 1.360 . S
C194 C207 1.412 . S
C195 C194 1.360 . S
C195 C196 1.365 . S
C195 H261 0.929 . S
C196 C171 1.553 . S
C196 C195 1.365 . S
C196 C197 1.404 . S
C197 C196 1.404 . S
C197 C198 1.395 . S
C197 C208 1.451 . S
C198 C197 1.395 . S
C198 C199 1.322 . S
C198 H262 0.930 . S
C199 C198 1.322 . S
C199 C200 1.459 . S
C199 H263 0.929 . S
C200 C199 1.459 . S
C200 C201 1.445 . S
C200 C209 1.395 . S
C201 C179 1.432 . S
C201 C200 1.445 . S
C201 C202 1.370 . S
C202 C201 1.370 . S
C202 C203 1.438 . S
C202 H264 0.930 . S
C203 C189 1.497 . S
C203 C202 1.438 . S
C203 C204 1.360 . S
C204 C203 1.360 . S
C204 C205 1.401 . S
C204 C209 1.446 . S
C205 C204 1.401 . S
C205 C206 1.347 . S
C205 H265 0.929 . S
C206 C205 1.347 . S
C206 C207 1.455 . S
C206 H266 0.930 . S
C207 C194 1.412 . S
C207 C206 1.455 . S
C207 C208 1.331 . S
C208 C197 1.451 . S
C208 C207 1.331 . S
C208 C209 1.497 . S
C209 C200 1.395 . S
C209 C204 1.446 . S
C209 C208 1.497 . S
C210 C211 1.582 . S
C210 H267 0.962 . S
C210 H268 0.959 . S
C210 H269 0.958 . S
C211 C210 1.582 . S
C211 O214 1.458 . S
C211 H240 0.980 . S
O212 C157 1.426 1_565 S
O212 C158 1.334 1_565 S
O213 C185 1.412 . S
O213 C186 1.393 . S
O214 C176 1.435 . S
O214 C211 1.458 . S
O215 C167 1.468 . S
O215 C168 1.408 . S
H216 C157 0.980 . S
H217 C156 0.959 . S
H218 C156 0.959 . S
H219 C156 0.960 1_545 S
H220 C159 0.929 . S
H221 C163 0.929 . S
H222 C164 0.959 . S
H223 C164 0.961 . S
H224 C164 0.961 . S
H225 C165 0.960 . S
H226 C165 0.960 . S
H227 C165 0.961 . S
H228 C167 0.980 . S
H229 C166 0.961 . S
H230 C166 0.960 . S
H231 C166 0.959 . S
H232 C169 0.930 . S
H233 C173 0.931 . S
H234 C174 0.959 . S
H235 C174 0.961 1_565 S
H236 C174 0.959 1_565 S
H237 C175 0.960 . S
H238 C175 0.960 . S
H239 C175 0.960 . S
H240 C211 0.980 . S
H241 C177 0.930 . S
H242 C181 0.930 . S
H243 C182 0.961 . S
H244 C182 0.960 . S
H245 C182 0.958 . S
H246 C183 0.961 . S
H247 C183 0.960 . S
H248 C183 0.960 . S
H249 C185 0.980 . S
H250 C184 0.961 . S
H251 C184 0.961 1_565 S
H252 C184 0.959 1_565 S
H253 C187 0.932 . S
H254 C191 0.929 . S
H255 C192 0.961 . S
H256 C192 0.959 . S
H257 C192 0.959 . S
H258 C193 0.960 . S
H259 C193 0.962 . S
H260 C193 0.961 . S
H261 C195 0.929 . S
H262 C198 0.930 . S
H263 C199 0.929 . S
H264 C202 0.930 . S
H265 C205 0.929 . S
H266 C206 0.930 . S
H267 C210 0.962 . S
H268 C210 0.959 . S
H269 C210 0.958 . S
C270 C271 1.560 . S
C270 H331 0.959 . S
C270 H332 0.959 . S
C270 H333 0.960 . S
C271 C270 1.560 . S
C271 O326 1.426 . S
C271 H330 0.980 . S
C272 C273 1.407 . S
C272 C277 1.418 . S
C272 O326 1.334 . S
C273 C272 1.407 . S
C273 C274 1.360 . S
C273 H334 0.929 . S
C274 C273 1.360 . S
C274 C275 1.401 . S
C274 C278 1.527 . S
C275 C274 1.401 . S
C275 C276 1.405 . S
C275 C308 1.587 . S
C276 C275 1.405 . S
C276 C277 1.332 . S
C276 C279 1.496 . S
C277 C272 1.418 . S
C277 C276 1.332 . S
C277 H335 0.929 . S
C278 C274 1.527 . S
C278 H336 0.959 . S
C278 H337 0.961 . S
C278 H338 0.961 . S
C279 C276 1.496 . S
C279 H339 0.960 . S
C279 H340 0.960 . S
C279 H341 0.961 . S
C280 C281 1.517 . S
C280 H343 0.961 . S
C280 H344 0.960 . S
C280 H345 0.959 . S
C281 C280 1.517 . S
C281 O329 1.468 . S
C281 H342 0.980 . S
C282 C283 1.349 . S
C282 C287 1.367 . S
C282 O329 1.408 . S
C283 C282 1.349 . S
C283 C284 1.407 . S
C283 H346 0.930 . S
C284 C283 1.407 . S
C284 C285 1.449 . S
C284 C288 1.535 . S
C285 C284 1.449 . S
C285 C286 1.384 . S
C285 C310 1.553 . S
C286 C285 1.384 . S
C286 C287 1.364 . S
C286 C289 1.450 . S
C287 C282 1.367 . S
C287 C286 1.364 . S
C287 H347 0.931 . S
C288 C284 1.535 . S
C288 H348 0.959 . S
C288 H349 0.961 . S
C288 H350 0.959 . S
C289 C286 1.450 . S
C289 H351 0.960 . S
C289 H352 0.960 . S
C289 H353 0.960 . S
C290 C291 1.309 . S
C290 C295 1.304 . S
C290 O328 1.435 . S
C291 C290 1.309 . S
C291 C292 1.476 . S
C291 H355 0.930 . S
C292 C291 1.476 . S
C292 C293 1.400 . S
C292 C296 1.567 . S
C293 C292 1.400 . S
C293 C294 1.373 . S
C293 C315 1.432 . S
C294 C293 1.373 . S
C294 C295 1.339 . S
C294 C297 1.530 . S
C295 C290 1.304 . S
C295 C294 1.339 . S
C295 H356 0.930 . S
C296 C292 1.567 . S
C296 H357 0.961 . S
C296 H358 0.960 . S
C296 H359 0.958 . S
C297 C294 1.530 . S
C297 H360 0.961 . S
C297 H361 0.960 . S
C297 H362 0.960 . S
C298 C299 1.530 . S
C298 H364 0.961 . S
C298 H365 0.961 . S
C298 H366 0.959 . S
C299 C298 1.530 . S
C299 O327 1.412 . S
C299 H363 0.980 . S
C300 C301 1.288 . S
C300 C305 1.377 . S
C300 O327 1.393 . S
C301 C300 1.288 . S
C301 C302 1.369 . S
C301 H367 0.932 . S
C302 C301 1.369 . S
C302 C303 1.398 . S
C302 C306 1.527 . S
C303 C302 1.398 . S
C303 C304 1.380 . S
C303 C317 1.497 . S
C304 C303 1.380 . S
C304 C305 1.383 . S
C304 C307 1.603 . S
C305 C300 1.377 . S
C305 C304 1.383 . S
C305 H368 0.929 . S
C306 C302 1.527 . S
C306 H369 0.961 . S
C306 H370 0.959 . S
C306 H371 0.959 . S
C307 C304 1.603 . S
C307 H372 0.960 . S
C307 H373 0.962 . S
C307 H374 0.961 . S
C308 C275 1.587 . S
C308 C309 1.360 . S
C308 C321 1.412 . S
C309 C308 1.360 . S
C309 C310 1.365 . S
C309 H375 0.929 . S
C310 C285 1.553 . S
C310 C309 1.365 . S
C310 C311 1.404 . S
C311 C310 1.404 . S
C311 C312 1.395 . S
C311 C322 1.451 . S
C312 C311 1.395 . S
C312 C313 1.322 . S
C312 H376 0.930 . S
C313 C312 1.322 . S
C313 C314 1.459 . S
C313 H377 0.929 . S
C314 C313 1.459 . S
C314 C315 1.445 . S
C314 C323 1.395 . S
C315 C293 1.432 . S
C315 C314 1.445 . S
C315 C316 1.370 . S
C316 C315 1.370 . S
C316 C317 1.438 . S
C316 H378 0.930 . S
C317 C303 1.497 . S
C317 C316 1.438 . S
C317 C318 1.360 . S
C318 C317 1.360 . S
C318 C319 1.401 . S
C318 C323 1.446 . S
C319 C318 1.401 . S
C319 C320 1.347 . S
C319 H379 0.929 . S
C320 C319 1.347 . S
C320 C321 1.455 . S
C320 H380 0.930 . S
C321 C308 1.412 . S
C321 C320 1.455 . S
C321 C322 1.331 . S
C322 C311 1.451 . S
C322 C321 1.331 . S
C322 C323 1.497 . S
C323 C314 1.395 . S
C323 C318 1.446 . S
C323 C322 1.497 . S
C324 C325 1.582 . S
C324 H381 0.962 . S
C324 H382 0.959 . S
C324 H383 0.958 . S
C325 C324 1.582 . S
C325 O328 1.458 . S
C325 H354 0.980 . S
O326 C271 1.426 . S
O326 C272 1.334 . S
O327 C299 1.412 . S
O327 C300 1.393 . S
O328 C290 1.435 . S
O328 C325 1.458 . S
O329 C281 1.468 . S
O329 C282 1.408 . S
H330 C271 0.980 . S
H331 C270 0.959 . S
H332 C270 0.959 . S
H333 C270 0.960 . S
H334 C273 0.929 . S
H335 C277 0.929 . S
H336 C278 0.959 . S
H337 C278 0.961 . S
H338 C278 0.961 . S
H339 C279 0.960 . S
H340 C279 0.960 . S
H341 C279 0.961 . S
H342 C281 0.980 . S
H343 C280 0.961 . S
H344 C280 0.960 . S
H345 C280 0.959 . S
H346 C283 0.930 . S
H347 C287 0.931 . S
H348 C288 0.959 . S
H349 C288 0.961 . S
H350 C288 0.959 . S
H351 C289 0.960 . S
H352 C289 0.960 . S
H353 C289 0.960 . S
H354 C325 0.980 . S
H355 C291 0.930 . S
H356 C295 0.930 . S
H357 C296 0.961 . S
H358 C296 0.960 . S
H359 C296 0.958 . S
H360 C297 0.961 . S
H361 C297 0.960 . S
H362 C297 0.960 . S
H363 C299 0.980 . S
H364 C298 0.961 . S
H365 C298 0.961 . S
H366 C298 0.959 . S
H367 C301 0.932 . S
H368 C305 0.929 . S
H369 C306 0.961 . S
H370 C306 0.959 . S
H371 C306 0.959 . S
H372 C307 0.960 . S
H373 C307 0.962 . S
H374 C307 0.961 . S
H375 C309 0.929 . S
H376 C312 0.930 . S
H377 C313 0.929 . S
H378 C316 0.930 . S
H379 C319 0.929 . S
H380 C320 0.930 . S
H381 C324 0.962 . S
H382 C324 0.959 . S
H383 C324 0.958 . S
C384 C385 1.391 . S
C384 C386 1.394 . S
C384 H400 0.931 . S
C385 C384 1.391 . S
C385 C389 1.376 1_455 S
C386 C384 1.394 . S
C386 C387 1.369 . S
C386 C390 1.531 . S
C387 C386 1.369 . S
C387 C388 1.410 1_455 S
C387 C395 1.503 . S
C388 C387 1.410 1_655 S
C388 C389 1.392 . S
C388 C391 1.511 . S
C389 C385 1.376 1_655 S
C389 C388 1.392 . S
C389 H401 0.929 . S
C390 C386 1.531 . S
C390 H402 0.960 . S
C390 H403 0.962 . S
C390 H404 0.960 . S
C391 C388 1.511 . S
C391 H405 0.961 . S
C391 H406 0.961 . S
C391 H407 0.961 . S
C392 C393 1.370 1_655 S
C392 C394 1.363 . S
C392 H408 0.931 . S
C393 C392 1.370 1_455 S
C393 C397 1.408 . S
C394 C392 1.363 . S
C394 C395 1.370 1_655 S
C394 C398 1.524 . S
C395 C387 1.503 . S
C395 C394 1.370 1_455 S
C395 C396 1.403 . S
C396 C395 1.403 . S
C396 C397 1.404 . S
C396 C399 1.539 . S
C397 C393 1.408 . S
C397 C396 1.404 . S
C397 H409 0.930 . S
C398 C394 1.524 . S
C398 H410 0.956 . S
C398 H411 0.961 . S
C398 H412 0.961 . S
C399 C396 1.539 . S
C399 H413 0.958 . S
C399 H414 0.961 . S
C399 H415 0.960 . S
H400 C384 0.931 . S
H401 C389 0.929 . S
H402 C390 0.960 . S
H403 C390 0.962 . S
H404 C390 0.960 . S
H405 C391 0.961 . S
H406 C391 0.961 . S
H407 C391 0.961 . S
H408 C392 0.931 . S
H409 C397 0.930 . S
H410 C398 0.956 . S
H411 C398 0.961 . S
H412 C398 0.961 . S
H413 C399 0.958 . S
H414 C399 0.961 . S
H415 C399 0.960 . S
C416 C417 1.391 . S
C416 C418 1.394 . S
C416 H432 0.931 1_545 S
C417 C416 1.391 . S
C417 C421 1.376 . S
C418 C416 1.394 . S
C418 C419 1.369 . S
C418 C422 1.531 1_545 S
C419 C418 1.369 . S
C419 C420 1.410 . S
C419 C427 1.503 . S
C420 C419 1.410 . S
C420 C421 1.392 . S
C420 C423 1.511 . S
C421 C417 1.376 . S
C421 C420 1.392 . S
C421 H433 0.929 . S
C422 C418 1.531 1_565 S
C422 H434 0.960 . S
C422 H435 0.962 . S
C422 H436 0.960 . S
C423 C420 1.511 . S
C423 H437 0.961 . S
C423 H438 0.961 . S
C423 H439 0.961 . S
C424 C425 1.370 . S
C424 C426 1.363 . S
C424 H440 0.931 . S
C425 C424 1.370 . S
C425 C429 1.408 . S
C426 C424 1.363 . S
C426 C427 1.370 . S
C426 C430 1.524 . S
C427 C419 1.503 . S
C427 C426 1.370 . S
C427 C428 1.403 . S
C428 C427 1.403 . S
C428 C429 1.404 . S
C428 C431 1.520 1_545 S
C429 C425 1.408 . S
C429 C428 1.404 . S
C429 H441 0.930 . S
C430 C426 1.524 . S
C430 H442 0.956 . S
C430 H443 0.961 . S
C430 H444 0.961 . S
C431 C428 1.520 1_565 S
C431 H445 0.980 . S
C431 H446 0.959 1_565 S
C431 H447 0.959 1_565 S
H432 C416 0.931 1_565 S
H433 C421 0.929 . S
H434 C422 0.960 . S
H435 C422 0.962 . S
H436 C422 0.960 . S
H437 C423 0.961 . S
H438 C423 0.961 . S
H439 C423 0.961 . S
H440 C424 0.931 . S
H441 C429 0.930 . S
H442 C430 0.956 . S
H443 C430 0.961 . S
H444 C430 0.961 . S
H445 C431 0.980 . S
H446 C431 0.959 1_545 S
H447 C431 0.959 1_545 S
C448 C449 1.391 . S
C448 C450 1.394 . S
C448 H464 0.931 . S
C449 C448 1.391 . S
C449 C453 1.376 . S
C450 C448 1.394 . S
C450 C451 1.369 . S
C450 C454 1.531 . S
C451 C450 1.369 . S
C451 C452 1.410 . S
C451 C459 1.503 . S
C452 C451 1.410 . S
C452 C453 1.392 . S
C452 C455 1.511 . S
C453 C449 1.376 . S
C453 C452 1.392 . S
C453 H465 0.929 . S
C454 C450 1.531 . S
C454 H466 0.960 . S
C454 H467 0.962 . S
C454 H468 0.960 . S
C455 C452 1.511 . S
C455 H469 0.961 . S
C455 H470 0.961 . S
C455 H471 0.961 . S
C456 C457 1.370 . S
C456 C458 1.363 . S
C456 H472 0.931 . S
C457 C456 1.370 . S
C457 C461 1.408 . S
C458 C456 1.363 . S
C458 C459 1.370 . S
C458 C462 1.524 . S
C459 C451 1.503 . S
C459 C458 1.370 . S
C459 C460 1.403 . S
C460 C459 1.403 . S
C460 C461 1.404 . S
C460 C463 1.539 . S
C461 C457 1.408 . S
C461 C460 1.404 . S
C461 H473 0.930 . S
C462 C458 1.524 . S
C462 H474 0.956 . S
C462 H475 0.961 . S
C462 H476 0.961 . S
C463 C460 1.539 . S
C463 H477 0.958 . S
C463 H478 0.961 . S
C463 H479 0.960 . S
H464 C448 0.931 . S
H465 C453 0.929 . S
H466 C454 0.960 . S
H467 C454 0.962 . S
H468 C454 0.960 . S
H469 C455 0.961 . S
H470 C455 0.961 . S
H471 C455 0.961 . S
H472 C456 0.931 . S
H473 C461 0.930 . S
H474 C462 0.956 . S
H475 C462 0.961 . S
H476 C462 0.961 . S
H477 C463 0.958 . S
H478 C463 0.961 . S
H479 C463 0.960 . S
C480 C481 1.391 . S
C480 C482 1.394 . S
C480 H496 0.931 . S
C481 C480 1.391 . S
C481 C485 1.376 1_455 S
C482 C480 1.394 . S
C482 C483 1.369 . S
C482 C486 1.531 . S
C483 C482 1.369 . S
C483 C484 1.410 1_455 S
C483 C491 1.503 . S
C484 C483 1.410 1_655 S
C484 C485 1.392 . S
C484 C487 1.511 . S
C485 C481 1.376 1_655 S
C485 C484 1.392 . S
C485 H497 0.929 . S
C486 C482 1.531 . S
C486 H498 0.960 . S
C486 H499 0.962 . S
C486 H500 0.960 . S
C487 C484 1.511 . S
C487 H501 0.961 . S
C487 H502 0.961 . S
C487 H503 0.961 . S
C488 C489 1.370 . S
C488 C490 1.363 . S
C488 H504 0.931 . S
C489 C488 1.370 . S
C489 C493 1.408 . S
C490 C488 1.363 . S
C490 C491 1.370 . S
C490 C494 1.524 . S
C491 C483 1.503 . S
C491 C490 1.370 . S
C491 C492 1.403 . S
C492 C491 1.403 . S
C492 C493 1.404 . S
C492 C495 1.539 1_455 S
C493 C489 1.408 . S
C493 C492 1.404 . S
C493 H505 0.930 . S
C494 C490 1.524 . S
C494 H506 0.956 . S
C494 H507 0.961 . S
C494 H508 0.961 . S
C495 C492 1.539 1_655 S
C495 H509 0.958 1_655 S
C495 H510 0.961 . S
C495 H511 0.960 . S
H496 C480 0.931 . S
H497 C485 0.929 . S
H498 C486 0.960 . S
H499 C486 0.962 . S
H500 C486 0.960 . S
H501 C487 0.961 . S
H502 C487 0.961 . S
H503 C487 0.961 . S
H504 C488 0.931 . S
H505 C493 0.930 . S
H506 C494 0.956 . S
H507 C494 0.961 . S
H508 C494 0.961 . S
H509 C495 0.958 1_455 S
H510 C495 0.961 . S
H511 C495 0.960 . S
C512 C513 1.391 . S
C512 C514 1.394 . S
C512 H528 0.931 . S
C513 C512 1.391 . S
C513 C517 1.376 . S
C514 C512 1.394 . S
C514 C515 1.369 . S
C514 C518 1.531 . S
C515 C514 1.369 . S
C515 C516 1.410 . S
C515 C523 1.503 . S
C516 C515 1.410 . S
C516 C517 1.392 . S
C516 C519 1.511 1_545 S
C517 C513 1.376 . S
C517 C516 1.392 . S
C517 H529 0.929 . S
C518 C514 1.531 . S
C518 H530 0.960 . S
C518 H531 0.962 . S
C518 H532 0.960 . S
C519 C516 1.511 1_565 S
C519 H533 0.961 . S
C519 H534 0.961 1_565 S
C519 H535 0.961 . S
C520 C521 1.370 . S
C520 C522 1.363 . S
C520 H536 0.931 . S
C521 C520 1.370 . S
C521 C525 1.408 . S
C522 C520 1.363 . S
C522 C523 1.370 . S
C522 C526 1.524 . S
C523 C515 1.503 . S
C523 C522 1.370 . S
C523 C524 1.403 . S
C524 C523 1.403 . S
C524 C525 1.404 . S
C524 C527 1.539 1_545 S
C525 C521 1.408 . S
C525 C524 1.404 . S
C525 H537 0.930 1_545 S
C526 C522 1.524 . S
C526 H538 0.956 . S
C526 H539 0.961 . S
C526 H540 0.961 . S
C527 C524 1.539 1_565 S
C527 H541 0.958 . S
C527 H542 0.961 . S
C527 H543 0.960 . S
H528 C512 0.931 . S
H529 C517 0.929 . S
H530 C518 0.960 . S
H531 C518 0.962 . S
H532 C518 0.960 . S
H533 C519 0.961 . S
H534 C519 0.961 1_545 S
H535 C519 0.961 . S
H536 C520 0.931 . S
H537 C525 0.930 1_565 S
H538 C526 0.956 . S
H539 C526 0.961 . S
H540 C526 0.961 . S
H541 C527 0.958 . S
H542 C527 0.961 . S
H543 C527 0.960 . S
C544 C545 1.391 . S
C544 C546 1.394 . S
C544 H560 0.931 . S
C545 C544 1.391 . S
C545 C549 1.376 . S
C546 C544 1.394 . S
C546 C547 1.369 . S
C546 C550 1.531 . S
C547 C546 1.369 . S
C547 C548 1.410 . S
C547 C555 1.503 . S
C548 C547 1.410 . S
C548 C549 1.392 . S
C548 C551 1.511 . S
C549 C545 1.376 . S
C549 C548 1.392 . S
C549 H561 0.929 . S
C550 C546 1.531 . S
C550 H562 0.960 . S
C550 H563 0.962 . S
C550 H564 0.960 . S
C551 C548 1.511 . S
C551 H565 0.961 . S
C551 H566 0.961 . S
C551 H567 0.961 . S
C552 C553 1.370 . S
C552 C554 1.363 . S
C552 H568 0.931 . S
C553 C552 1.370 . S
C553 C557 1.408 . S
C554 C552 1.363 . S
C554 C555 1.370 . S
C554 C558 1.524 . S
C555 C547 1.503 . S
C555 C554 1.370 . S
C555 C556 1.403 . S
C556 C555 1.403 . S
C556 C557 1.404 . S
C556 C559 1.539 . S
C557 C553 1.408 . S
C557 C556 1.404 . S
C557 H569 0.930 . S
C558 C554 1.524 . S
C558 H570 0.956 . S
C558 H571 0.961 . S
C558 H572 0.961 . S
C559 C556 1.539 . S
C559 H573 0.958 . S
C559 H574 0.961 . S
C559 H575 0.960 . S
H560 C544 0.931 . S
H561 C549 0.929 . S
H562 C550 0.960 . S
H563 C550 0.962 . S
H564 C550 0.960 . S
H565 C551 0.961 . S
H566 C551 0.961 . S
H567 C551 0.961 . S
H568 C552 0.931 . S
H569 C557 0.930 . S
H570 C558 0.956 . S
H571 C558 0.961 . S
H572 C558 0.961 . S
H573 C559 0.958 . S
H574 C559 0.961 . S
H575 C559 0.960 . S
C576 C577 1.391 . S
C576 C578 1.394 . S
C576 H592 0.931 . S
C577 C576 1.391 . S
C577 C581 1.376 . S
C578 C576 1.394 . S
C578 C579 1.369 . S
C578 C582 1.531 . S
C579 C578 1.369 . S
C579 C580 1.410 . S
C579 C587 1.503 . S
C580 C579 1.410 . S
C580 C581 1.392 . S
C580 C583 1.511 1_545 S
C581 C577 1.376 . S
C581 C580 1.392 . S
C581 H593 0.929 1_545 S
C582 C578 1.531 . S
C582 H594 0.960 . S
C582 H595 0.962 . S
C582 H596 0.960 . S
C583 C580 1.511 1_565 S
C583 H597 0.961 . S
C583 H598 0.961 . S
C583 H599 0.961 . S
C584 C585 1.370 . S
C584 C586 1.363 . S
C584 H600 0.931 . S
C585 C584 1.370 . S
C585 C589 1.408 . S
C586 C584 1.363 . S
C586 C587 1.370 . S
C586 C590 1.524 . S
C587 C579 1.503 . S
C587 C586 1.370 . S
C587 C588 1.403 . S
C588 C587 1.403 . S
C588 C589 1.404 . S
C588 C591 1.539 1_545 S
C589 C585 1.408 . S
C589 C588 1.404 . S
C589 H601 0.930 1_545 S
C590 C586 1.524 . S
C590 H602 0.956 . S
C590 H603 0.961 . S
C590 H604 0.961 . S
C591 C588 1.539 1_565 S
C591 H605 0.958 . S
C591 H606 0.961 . S
C591 H607 0.960 . S
H592 C576 0.931 . S
H593 C581 0.929 1_565 S
H594 C582 0.960 . S
H595 C582 0.962 . S
H596 C582 0.960 . S
H597 C583 0.961 . S
H598 C583 0.961 . S
H599 C583 0.961 . S
H600 C584 0.931 . S
H601 C589 0.930 1_565 S
H602 C590 0.956 . S
H603 C590 0.961 . S
H604 C590 0.961 . S
H605 C591 0.958 . S
H606 C591 0.961 . S
H607 C591 0.960 . S
C608 C609 1.391 . S
C608 C610 1.394 . S
C608 H624 0.931 . S
C609 C608 1.391 . S
C609 C613 1.376 . S
C610 C608 1.394 . S
C610 C611 1.369 . S
C610 C614 1.531 1_554 S
C611 C610 1.369 . S
C611 C612 1.410 . S
C611 C619 1.503 . S
C612 C611 1.410 . S
C612 C613 1.392 . S
C612 C615 1.511 . S
C613 C609 1.376 . S
C613 C612 1.392 . S
C613 H625 0.929 . S
C614 C610 1.531 1_556 S
C614 H626 0.960 . S
C614 H627 0.962 . S
C614 H628 0.960 . S
C615 C612 1.511 . S
C615 H629 0.961 . S
C615 H630 0.961 . S
C615 H631 0.961 . S
C616 C617 1.370 . S
C616 C618 1.363 1_556 S
C616 H632 0.931 . S
C617 C616 1.370 . S
C617 C621 1.408 . S
C618 C616 1.363 1_554 S
C618 C619 1.370 . S
C618 C622 1.524 . S
C619 C611 1.503 . S
C619 C618 1.370 . S
C619 C620 1.403 1_554 S
C620 C619 1.403 1_556 S
C620 C621 1.404 . S
C620 C623 1.539 . S
C621 C617 1.408 . S
C621 C620 1.404 . S
C621 H633 0.930 . S
C622 C618 1.524 . S
C622 H634 0.956 . S
C622 H635 0.961 . S
C622 H636 0.961 . S
C623 C620 1.539 . S
C623 H637 0.958 . S
C623 H638 0.961 . S
C623 H639 0.960 1_556 S
H624 C608 0.931 . S
H625 C613 0.929 . S
H626 C614 0.960 . S
H627 C614 0.962 . S
H628 C614 0.960 . S
H629 C615 0.961 . S
H630 C615 0.961 . S
H631 C615 0.961 . S
H632 C616 0.931 . S
H633 C621 0.930 . S
H634 C622 0.956 . S
H635 C622 0.961 . S
H636 C622 0.961 . S
H637 C623 0.958 . S
H638 C623 0.961 . S
H639 C623 0.960 1_554 S
C640 C641 1.391 . S
C640 C642 1.394 . S
C640 H656 0.931 . S
C641 C640 1.391 . S
C641 C645 1.376 1_455 S
C642 C640 1.394 . S
C642 C643 1.369 . S
C642 C646 1.531 . S
C643 C642 1.369 . S
C643 C644 1.410 1_455 S
C643 C651 1.503 . S
C644 C643 1.410 1_655 S
C644 C645 1.392 . S
C644 C647 1.511 . S
C645 C641 1.376 1_655 S
C645 C644 1.392 . S
C645 H657 0.929 . S
C646 C642 1.531 . S
C646 H658 0.960 . S
C646 H659 0.962 . S
C646 H660 0.960 . S
C647 C644 1.511 . S
C647 H661 0.961 . S
C647 H662 0.961 . S
C647 H663 0.961 . S
C648 C649 1.370 . S
C648 C650 1.363 . S
C648 H664 0.931 . S
C649 C648 1.370 . S
C649 C653 1.408 1_455 S
C650 C648 1.363 . S
C650 C651 1.370 . S
C650 C654 1.524 . S
C651 C643 1.503 . S
C651 C650 1.370 . S
C651 C652 1.403 1_455 S
C652 C651 1.403 1_655 S
C652 C653 1.404 . S
C652 C655 1.539 . S
C653 C649 1.408 1_655 S
C653 C652 1.404 . S
C653 H665 0.930 . S
C654 C650 1.524 . S
C654 H666 0.956 . S
C654 H667 0.961 . S
C654 H668 0.961 . S
C655 C652 1.539 . S
C655 H669 0.958 . S
C655 H670 0.961 . S
C655 H671 0.960 . S
H656 C640 0.931 . S
H657 C645 0.929 . S
H658 C646 0.960 . S
H659 C646 0.962 . S
H660 C646 0.960 . S
H661 C647 0.961 . S
H662 C647 0.961 . S
H663 C647 0.961 . S
H664 C648 0.931 . S
H665 C653 0.930 . S
H666 C654 0.956 . S
H667 C654 0.961 . S
H668 C654 0.961 . S
H669 C655 0.958 . S
H670 C655 0.961 . S
H671 C655 0.960 . S
C672 C673 1.391 . S
C672 C674 1.394 . S
C672 H688 0.931 1_545 S
C673 C672 1.391 . S
C673 C677 1.376 . S
C674 C672 1.394 . S
C674 C675 1.369 . S
C674 C678 1.531 1_545 S
C675 C674 1.369 . S
C675 C676 1.410 . S
C675 C683 1.503 . S
C676 C675 1.410 . S
C676 C677 1.392 . S
C676 C679 1.511 . S
C677 C673 1.376 . S
C677 C676 1.392 . S
C677 H689 0.929 . S
C678 C674 1.531 1_565 S
C678 H690 0.960 . S
C678 H691 0.962 . S
C678 H692 0.960 . S
C679 C676 1.511 . S
C679 H693 0.961 . S
C679 H694 0.961 . S
C679 H695 0.961 . S
C680 C681 1.370 . S
C680 C682 1.363 . S
C680 H696 0.931 . S
C681 C680 1.370 . S
C681 C685 1.408 . S
C682 C680 1.363 . S
C682 C683 1.370 . S
C682 C686 1.524 . S
C683 C675 1.503 . S
C683 C682 1.370 . S
C683 C684 1.403 . S
C684 C683 1.403 . S
C684 C685 1.404 . S
C684 C687 1.539 1_545 S
C685 C681 1.408 . S
C685 C684 1.404 . S
C685 H697 0.930 1_545 S
C686 C682 1.524 . S
C686 H698 0.956 . S
C686 H699 0.961 . S
C686 H700 0.961 . S
C687 C684 1.539 1_565 S
C687 H701 0.958 . S
C687 H702 0.961 . S
C687 H703 0.960 . S
H688 C672 0.931 1_565 S
H689 C677 0.929 . S
H690 C678 0.960 . S
H691 C678 0.962 . S
H692 C678 0.960 . S
H693 C679 0.961 . S
H694 C679 0.961 . S
H695 C679 0.961 . S
H696 C680 0.931 . S
H697 C685 0.930 1_565 S
H698 C686 0.956 . S
H699 C686 0.961 . S
H700 C686 0.961 . S
H701 C687 0.958 . S
H702 C687 0.961 . S
H703 C687 0.960 . S
C704 C705 1.391 . S
C704 C706 1.394 . S
C704 H720 0.931 . S
C705 C704 1.391 . S
C705 C709 1.376 . S
C706 C704 1.394 . S
C706 C707 1.369 . S
C706 C710 1.531 . S
C707 C706 1.369 . S
C707 C708 1.410 . S
C707 C715 1.495 1_554 S
C708 C707 1.410 . S
C708 C709 1.392 . S
C708 C711 1.511 1_554 S
C709 C705 1.376 . S
C709 C708 1.392 . S
C709 H721 0.929 . S
C710 C706 1.531 . S
C710 H722 0.960 . S
C710 H723 0.962 . S
C710 H724 0.960 . S
C711 C708 1.511 1_556 S
C711 H725 0.961 . S
C711 H726 0.961 . S
C711 H727 0.961 . S
C712 C713 1.370 . S
C712 C714 1.363 . S
C712 H728 0.931 . S
C713 C712 1.370 . S
C713 C717 1.408 . S
C714 C712 1.363 . S
C714 C715 1.379 . S
C714 C718 1.524 . S
C715 C707 1.495 1_556 S
C715 C714 1.379 . S
C715 C716 1.401 1_556 S
C716 C715 1.401 1_554 S
C716 C717 1.404 1_554 S
C716 C719 1.539 . S
C717 C713 1.408 . S
C717 C716 1.404 1_556 S
C717 H729 0.930 . S
C718 C714 1.524 . S
C718 H730 0.956 . S
C718 H731 0.961 . S
C718 H732 0.961 . S
C719 C716 1.539 . S
C719 H733 0.958 . S
C719 H734 0.961 . S
C719 H735 0.960 . S
H720 C704 0.931 . S
H721 C709 0.929 . S
H722 C710 0.960 . S
H723 C710 0.962 . S
H724 C710 0.960 . S
H725 C711 0.961 . S
H726 C711 0.961 . S
H727 C711 0.961 . S
H728 C712 0.931 . S
H729 C717 0.930 . S
H730 C718 0.956 . S
H731 C718 0.961 . S
H732 C718 0.961 . S
H733 C719 0.958 . S
H734 C719 0.961 . S
H735 C719 0.960 . S
C736 C737 1.391 . S
C736 C738 1.394 . S
C736 H752 0.931 . S
C737 C736 1.391 . S
C737 C741 1.376 . S
C738 C736 1.394 . S
C738 C739 1.369 . S
C738 C742 1.531 . S
C739 C738 1.369 . S
C739 C740 1.410 . S
C739 C747 1.503 . S
C740 C739 1.410 . S
C740 C741 1.392 . S
C740 C743 1.511 1_455 S
C741 C737 1.376 . S
C741 C740 1.392 . S
C741 H753 0.929 1_455 S
C742 C738 1.531 . S
C742 H754 0.960 . S
C742 H755 0.962 . S
C742 H756 0.960 . S
C743 C740 1.511 1_655 S
C743 H757 0.961 . S
C743 H758 0.961 . S
C743 H759 0.961 1_655 S
C744 C745 1.370 1_655 S
C744 C746 1.363 . S
C744 H760 0.931 . S
C745 C744 1.370 1_455 S
C745 C749 1.408 . S
C746 C744 1.363 . S
C746 C747 1.370 1_655 S
C746 C750 1.524 . S
C747 C739 1.503 . S
C747 C746 1.370 1_455 S
C747 C748 1.403 . S
C748 C747 1.403 . S
C748 C749 1.404 . S
C748 C751 1.539 . S
C749 C745 1.408 . S
C749 C748 1.404 . S
C749 H761 0.930 . S
C750 C746 1.524 . S
C750 H762 0.956 . S
C750 H763 0.961 . S
C750 H764 0.961 . S
C751 C748 1.539 . S
C751 H765 0.958 . S
C751 H766 0.961 . S
C751 H767 0.960 . S
H752 C736 0.931 . S
H753 C741 0.929 1_655 S
H754 C742 0.960 . S
H755 C742 0.962 . S
H756 C742 0.960 . S
H757 C743 0.961 . S
H758 C743 0.961 . S
H759 C743 0.961 1_455 S
H760 C744 0.931 . S
H761 C749 0.930 . S
H762 C750 0.956 . S
H763 C750 0.961 . S
H764 C750 0.961 . S
H765 C751 0.958 . S
H766 C751 0.961 . S
H767 C751 0.960 . S
C393 C97 1.160 . S
C385 C6 1.553 . S
C417 C22 1.665 . S
C425 C211 1.235 . S
C449 C34 1.070 . S
C457 C271 0.870 . S
C481 C7 1.425 . S
C489 C71 1.104 . S
C521 C185 1.192 . S
C513 C23 1.501 . S
C545 C35 1.283 . S
C553 C281 0.824 . S
C585 C167 1.030 . S
C577 C36 1.594 . S
C609 C9 1.737 . S
C617 C299 1.393 . S
C649 C43 1.047 1_455 S
C641 C21 1.291 . S
C681 C157 1.151 . S
C673 C37 1.443 . S
C713 C325 1.453 . S
C705 C8 1.896 . S
C737 C20 1.458 . S
C745 C53 0.924 . S
