# Generated by pormake.
# Topology tsx, (6,3)-cn, num edge types: 1
# Building blocks:
#     Node 0, Type 0, BuildingBlock: LEVNOQ01_clean_sbu_1, # of connection points: 6
#     Node 1, Type 0, BuildingBlock: LEVNOQ01_clean_sbu_1, # of connection points: 6
#     Node 2, Type 1, BuildingBlock: KAKCAD_clean_linker_0, # of connection points: 3
#     Node 3, Type 1, BuildingBlock: KAKCAD_clean_linker_0, # of connection points: 3
#     Node 4, Type 1, BuildingBlock: KAKCAD_clean_linker_0, # of connection points: 3
#     Node 5, Type 1, BuildingBlock: KAKCAD_clean_linker_0, # of connection points: 3
#     Edge 6, Type (0, 1), BuildingBlock: EZIPEK_clean_linker_0, # of connection points: 2
#     Edge 7, Type (0, 1), BuildingBlock: EZIPEK_clean_linker_0, # of connection points: 2
#     Edge 8, Type (0, 1), BuildingBlock: EZIPEK_clean_linker_0, # of connection points: 2
#     Edge 9, Type (0, 1), BuildingBlock: EZIPEK_clean_linker_0, # of connection points: 2
#     Edge 10, Type (0, 1), BuildingBlock: EZIPEK_clean_linker_0, # of connection points: 2
#     Edge 11, Type (0, 1), BuildingBlock: EZIPEK_clean_linker_0, # of connection points: 2
#     Edge 12, Type (0, 1), BuildingBlock: EZIPEK_clean_linker_0, # of connection points: 2
#     Edge 13, Type (0, 1), BuildingBlock: EZIPEK_clean_linker_0, # of connection points: 2
#     Edge 14, Type (0, 1), BuildingBlock: EZIPEK_clean_linker_0, # of connection points: 2
#     Edge 15, Type (0, 1), BuildingBlock: EZIPEK_clean_linker_0, # of connection points: 2
#     Edge 16, Type (0, 1), BuildingBlock: EZIPEK_clean_linker_0, # of connection points: 2
#     Edge 17, Type (0, 1), BuildingBlock: EZIPEK_clean_linker_0, # of connection points: 2
# Relax obj value: 0.130
# Max RMSD: 0.158
# Mean RMSD: 0.120
data_MOF--net-tsx--node1-LEVNOQ01_clean_sbu_1--node2-KAKCAD_clean_linker_0--edge1-EZIPEK_clean_linker_0
_symmetry_space_group_name_H-M    P1
_symmetry_Int_Tables_number       1
_symmetry_cell_setting            triclinic
loop_
_symmetry_equiv_pos_as_xyz
'x, y, z'
_cell_length_a     17.227775
_cell_length_b     21.088995
_cell_length_c     35.418607
_cell_angle_alpha  96.872611
_cell_angle_beta   91.394401
_cell_angle_gamma 90.426707
loop_
_atom_site_label
_atom_site_type_symbol
_atom_site_fract_x
_atom_site_fract_y
_atom_site_fract_z
_atom_type_partial_charge
O0 O 0.17405 0.03639 0.08936 0.0
Mg1 Mg 0.23742 0.04843 0.04021 0.0
O2 O 0.05427 0.0274 0.06341 0.0
Mg3 Mg 0.06343 0.04086 -0.00115 0.0
O4 O 0.16901 0.10493 0.01098 0.0
O5 O 0.2864 0.13655 0.03209 0.0
O6 O 0.07857 0.05733 0.93565 0.0
O7 O 0.99255 0.13737 0.01169 0.0
Mg8 Mg 0.91168 0.04193 0.96282 0.0
O9 O 0.96039 0.96551 0.98412 0.0
O10 O 0.95937 0.06298 0.9119 0.0
O11 O 0.86892 0.11615 -0.00028 0.0
O12 O 0.84174 0.96511 0.95665 0.0
C13 C 0.20582 0.92732 0.99024 0.0
C14 C 0.10131 0.02788 0.09209 0.0
C15 C 0.22211 0.14879 0.0152 0.0
C16 C 0.03213 0.06519 0.90808 0.0
C17 C 0.92175 0.15495 0.01261 0.0
C18 C 0.89652 0.93494 0.9722 0.0
O19 O 0.26064 0.96169 0.0063 0.0
O20 O 0.1369 0.94842 0.98758 0.0
O21 O 0.66654 0.53038 0.59117 0.0
Mg22 Mg 0.73301 0.54286 0.5431 0.0
O23 O 0.54836 0.52006 0.56345 0.0
Mg24 Mg 0.56072 0.53523 0.49927 0.0
O25 O 0.66592 0.5989 0.513 0.0
O26 O 0.78192 0.63144 0.53553 0.0
O27 O 0.57921 0.55349 0.43656 0.0
O28 O 0.48944 0.63134 0.51239 0.0
Mg29 Mg 0.41106 0.53701 0.4612 0.0
O30 O 0.45793 0.4602 0.48289 0.0
O31 O 0.46144 0.55916 0.41118 0.0
O32 O 0.36654 0.61062 0.49788 0.0
O33 O 0.3411 0.46029 0.4536 0.0
C34 C 0.70346 0.42224 0.49175 0.0
C35 C 0.59374 0.52086 0.59277 0.0
C36 C 0.71851 0.64311 0.51772 0.0
C37 C 0.53442 0.56181 0.40846 0.0
C38 C 0.41863 0.64889 0.51228 0.0
C39 C 0.39457 0.42985 0.46993 0.0
O40 O 0.75715 0.45625 0.50918 0.0
O41 O 0.63476 0.44326 0.48803 0.0
C42 C 0.04985 0.92706 0.2589 0.0
C43 C 0.02825 0.98455 0.2454 0.0
C44 C 0.03816 0.91805 0.29692 0.0
C45 C 1.00597 0.96693 0.32219 0.0
C46 C 0.9852 0.02456 0.30825 0.0
C47 C 0.99478 0.03269 0.27024 0.0
C48 C 0.99581 0.95978 0.36319 0.0
C49 C 0.05096 0.92793 0.38393 0.0
C50 C 0.04682 0.92977 0.42383 0.0
C51 C 0.98781 0.96571 0.44278 0.0
C52 C 0.93334 -0.00202 0.42239 0.0
C53 C 0.93492 0.99163 0.38277 0.0
C54 C 0.8868 0.05005 0.44149 0.0
C55 C 0.80613 0.05189 0.43496 0.0
C56 C 0.9258 0.10452 0.45947 0.0
C57 C 0.88555 0.16087 0.46927 0.0
C58 C 0.80584 0.16367 0.46098 0.0
C59 C 0.1075 0.89848 0.44584 0.0
C60 C 0.13943 0.83989 0.43087 0.0
C61 C 0.13516 0.92739 0.48166 0.0
C62 C 0.19414 0.89919 0.50159 0.0
C63 C 0.2259 0.84108 0.48624 0.0
C64 C 0.19804 0.81161 0.45085 0.0
C65 C 0.76562 0.10844 0.44496 0.0
H66 H 0.07598 0.88937 0.24004 0.0
H67 H 0.05436 0.87297 0.30644 0.0
H68 H 0.96305 0.06449 0.3268 0.0
H69 H 0.97831 0.07755 0.26041 0.0
H70 H 0.09969 0.90494 0.3694 0.0
H71 H 0.89175 0.01646 0.36748 0.0
H72 H 0.985 0.97005 0.47341 0.0
H73 H 0.77542 0.01065 0.42045 0.0
H74 H 0.98837 0.1049 0.46337 0.0
H75 H 0.91725 0.20324 0.48157 0.0
H76 H 0.11883 0.81556 0.40378 0.0
H77 H 0.11227 0.97241 0.49406 0.0
H78 H 0.70396 0.1101 0.43846 0.0
H79 H 0.22184 0.76653 0.43866 0.0
H80 H 0.21506 0.92265 0.52886 0.0
C81 C 0.09607 0.13777 0.73233 0.0
C82 C 0.07733 0.08519 0.75123 0.0
C83 C 0.08591 0.13413 0.69289 0.0
C84 C 0.05995 0.07692 0.67142 0.0
C85 C 0.04564 0.02335 0.69054 0.0
C86 C 0.05313 0.02777 0.73001 0.0
C87 C 0.04757 0.07301 0.62941 0.0
C88 C 0.09395 0.10911 0.60772 0.0
C89 C 0.08348 0.10483 0.56816 0.0
C90 C 0.02705 0.06314 0.54971 0.0
C91 C 0.98059 0.02632 0.57084 0.0
C92 C 0.99018 0.03226 0.61056 0.0
C93 C 0.92598 0.97768 0.55183 0.0
C94 C 0.86362 0.9942 0.5287 0.0
C95 C 0.93504 0.91387 0.55833 0.0
C96 C 0.88179 0.86745 0.54284 0.0
C97 C 0.81838 0.88382 0.52055 0.0
C98 C 0.13353 0.14356 0.54659 0.0
C99 C 0.13523 0.21019 0.55546 0.0
C100 C 0.1844 0.11427 0.51961 0.0
C101 C 0.23733 0.15118 0.50215 0.0
C102 C 0.23935 0.21768 0.51146 0.0
C103 C 0.18766 0.24705 0.53788 0.0
C104 C 0.81004 0.9473 0.51293 0.0
H105 H 0.1153 0.18237 0.74831 0.0
H106 H 0.09665 0.17678 0.67953 0.0
H107 H 0.02837 0.97779 0.67516 0.0
H108 H 0.03928 0.98641 0.74412 0.0
H109 H 0.14015 0.13947 0.62125 0.0
H110 H 0.95244 0.00473 0.62659 0.0
H111 H 0.02047 0.05858 0.51911 0.0
H112 H 0.8554 0.04339 0.52369 0.0
H113 H 0.98302 0.90006 0.57584 0.0
H114 H 0.88928 0.81861 0.54881 0.0
H115 H 0.09671 0.23354 0.5764 0.0
H116 H 0.18533 0.06291 0.51316 0.0
H117 H 0.76144 0.9606 0.49568 0.0
H118 H 0.18879 0.29842 0.54527 0.0
H119 H 0.27729 0.12802 0.48187 0.0
C120 C 0.53794 0.42102 0.7594 0.0
C121 C 0.51422 0.47736 0.74517 0.0
C122 C 0.52705 0.41314 0.79765 0.0
C123 C 0.49374 0.4621 0.82247 0.0
C124 C 0.46991 0.51824 0.80763 0.0
C125 C 0.47853 0.52511 0.76939 0.0
C126 C 0.48684 0.45715 0.864 0.0
C127 C 0.54414 0.42694 0.88442 0.0
C128 C 0.54376 0.43162 0.92452 0.0
C129 C 0.48658 0.46894 0.94399 0.0
C130 C 0.42978 0.49945 0.92394 0.0
C131 C 0.42742 0.48996 0.88425 0.0
C132 C 0.38442 0.55255 0.94288 0.0
C133 C 0.30369 0.55528 0.93666 0.0
C134 C 0.42447 0.60681 0.96047 0.0
C135 C 0.38528 0.66384 0.96994 0.0
C136 C 0.30558 0.66748 0.96181 0.0
C137 C 0.60638 0.40168 0.94602 0.0
C138 C 0.63574 0.3416 0.93207 0.0
C139 C 0.63822 0.43322 0.98033 0.0
C140 C 0.69846 0.40582 -0.00011 0.0
C141 C 0.72756 0.34609 0.98558 0.0
C142 C 0.69573 0.3142 0.95164 0.0
C143 C 0.26428 0.61247 0.94636 0.0
H144 H 0.5657 0.38359 0.74102 0.0
H145 H 0.54538 0.36903 0.80776 0.0
H146 H 0.44674 0.55835 0.82566 0.0
H147 H 0.46033 0.56908 0.75898 0.0
H148 H 0.59174 0.40305 0.86942 0.0
H149 H 0.3824 0.51327 0.86925 0.0
H150 H 0.48698 0.47562 0.97471 0.0
H151 H 0.27207 0.51417 0.92258 0.0
H152 H 0.48703 0.60648 0.96429 0.0
H153 H 0.41781 0.706 0.98187 0.0
H154 H 0.61198 0.31542 0.90614 0.0
H155 H 0.61752 0.47961 0.99175 0.0
H156 H 0.2026 0.61473 0.94005 0.0
H157 H 0.71743 0.26789 0.94027 0.0
H158 H 0.72249 0.43117 0.02602 0.0
C159 C 0.6037 0.63813 0.23404 0.0
C160 C 0.58406 0.58551 0.25272 0.0
C161 C 0.59351 0.63504 0.19462 0.0
C162 C 0.56661 0.57831 0.17295 0.0
C163 C 0.55154 0.52461 0.19183 0.0
C164 C 0.55908 0.52851 0.23129 0.0
C165 C 0.55388 0.57506 0.13098 0.0
C166 C 0.60055 0.61109 0.10937 0.0
C167 C 0.58954 0.60757 0.06988 0.0
C168 C 0.53224 0.56686 0.05137 0.0
C169 C 0.48553 0.53007 0.0724 0.0
C170 C 0.49573 0.53513 0.11208 0.0
C171 C 0.43004 0.48231 0.05326 0.0
C172 C 0.36721 0.50003 0.03083 0.0
C173 C 0.43892 0.41806 0.05882 0.0
C174 C 0.38521 0.37231 0.04296 0.0
C175 C 0.32148 0.38982 0.02127 0.0
C176 C 0.63966 0.64633 0.04844 0.0
C177 C 0.63917 0.71306 0.05643 0.0
C178 C 0.69269 0.6171 0.02253 0.0
C179 C 0.74539 0.65431 0.00514 0.0
C180 C 0.74513 0.72098 0.01352 0.0
C181 C 0.69144 0.75019 0.03895 0.0
C182 C 0.31314 0.45382 0.01471 0.0
H183 H 0.62358 0.6824 0.25018 0.0
H184 H 0.60489 0.67777 0.18145 0.0
H185 H 0.53355 0.47937 0.17629 0.0
H186 H 0.54456 0.4871 0.24522 0.0
H187 H 0.64726 0.64089 0.1229 0.0
H188 H 0.45779 0.50763 0.12802 0.0
H189 H 0.52514 0.56307 0.02079 0.0
H190 H 0.35914 0.54957 0.02657 0.0
H191 H 0.48723 0.40337 0.07581 0.0
H192 H 0.39267 0.32306 0.04812 0.0
H193 H 0.59903 0.73628 0.07661 0.0
H194 H 0.69529 0.56566 0.01688 0.0
H195 H 0.26426 0.46799 -0.00204 0.0
H196 H 0.69081 0.80169 0.04562 0.0
H197 H 0.78693 0.6313 0.98564 0.0
C198 C 0.25388 0.23109 0.97371 0.0
C199 C 0.21065 0.21346 0.00425 0.0
C200 C 0.20428 0.32522 0.03163 0.0
C201 C 0.264 0.33929 0.00707 0.0
N202 N 0.33513 0.31204 0.95013 0.0
N203 N 0.13171 0.24253 0.05841 0.0
C204 C 0.28376 0.29451 0.97585 0.0
C205 C 0.17961 0.26066 0.03136 0.0
N206 N 0.2682 0.18607 0.94375 0.0
N207 N 0.17445 0.37332 0.05611 0.0
H208 H 0.11176 0.19556 0.0578 0.0
H209 H 0.11267 0.27301 0.08152 0.0
H210 H 0.19288 0.42065 0.05656 0.0
H211 H 0.12795 0.3676 0.07363 0.0
H212 H 0.29673 0.19542 0.91944 0.0
H213 H 0.24565 0.13969 0.94239 0.0
H214 H 0.35833 0.28069 0.92849 0.0
H215 H 0.35512 0.35908 0.95096 0.0
C216 C 0.24727 0.83479 0.9444 0.0
C217 C 0.21993 0.85843 0.9807 0.0
C218 C 0.23984 0.75419 0.00344 0.0
C219 C 0.26754 0.73057 0.96717 0.0
N220 N 0.28533 0.74285 0.90109 0.0
N221 N 0.17749 0.84017 0.04295 0.0
C222 C 0.26697 0.76917 0.93691 0.0
C223 C 0.21188 0.81775 0.00961 0.0
N224 N 0.25732 0.8758 0.91774 0.0
N225 N 0.24313 0.71645 0.03228 0.0
H226 H 0.15821 0.88699 0.04888 0.0
H227 H 0.16266 0.81161 0.06372 0.0
H228 H 0.26007 0.66876 0.02822 0.0
H229 H 0.23281 0.73273 0.06058 0.0
H230 H 0.28492 0.8637 0.89211 0.0
H231 H 0.24167 0.92375 0.9222 0.0
H232 H 0.27884 0.76632 0.87701 0.0
H233 H 0.30199 0.6954 0.89481 0.0
C234 C 0.82878 0.83223 0.94866 0.0
C235 C 0.88365 0.86529 0.97444 0.0
C236 C 0.86895 0.78444 0.01761 0.0
C237 C 0.80158 0.76132 -0.00366 0.0
N238 N 0.72031 0.75771 0.9397 0.0
N239 N 0.98634 0.84861 0.01922 0.0
C240 C 0.78348 0.78239 0.96071 0.0
C241 C 0.9135 0.83432 0.00484 0.0
N242 N 0.82281 0.84738 0.91228 0.0
N243 N 0.88802 0.76081 0.05086 0.0
H244 H 0.02285 0.88034 0.00774 0.0
H245 H 0.01422 0.82245 0.03858 0.0
H246 H 0.85855 0.7223 0.06008 0.0
H247 H 0.93069 0.78106 0.07 0.0
H248 H 0.78825 0.82214 0.89099 0.0
H249 H 0.85988 0.8809 0.90246 0.0
H250 H 0.6985 0.77667 0.91583 0.0
H251 H 0.68715 0.71982 0.94726 0.0
C252 C 0.83206 0.23316 0.0444 0.0
C253 C 0.89849 0.22255 0.02196 0.0
C254 C 0.8676 0.31702 0.9906 0.0
C255 C 0.79193 0.31575 0.00534 0.0
N256 N 0.70363 0.27945 0.05008 0.0
N257 N 0.98989 0.26194 0.97966 0.0
C258 C 0.77528 0.27711 0.03429 0.0
C259 C 0.92078 0.26816 -0.00225 0.0
N260 N 0.82277 0.19865 0.07423 0.0
N261 N 0.88727 0.3643 0.96928 0.0
H262 H 0.03205 0.22974 0.98637 0.0
H263 H 1.00579 0.28827 0.958 0.0
H264 H 0.84864 0.40024 0.9639 0.0
H265 H 0.94285 0.37119 0.95957 0.0
H266 H 0.77824 0.20599 0.09356 0.0
H267 H 0.86472 0.16619 0.08128 0.0
H268 H 0.68467 0.24767 0.0683 0.0
H269 H 0.66167 0.31229 0.04381 0.0
C270 C 0.6765 0.7554 0.53235 0.0
C271 C 0.70763 0.70725 0.50589 0.0
C272 C 0.78107 0.78683 0.4764 0.0
C273 C 0.76108 0.83278 0.50701 0.0
N274 N 0.67129 0.8687 0.55557 0.0
N275 N 0.76544 0.6775 0.44569 0.0
C276 C 0.70123 0.81976 0.53175 0.0
C277 C 0.75107 0.72355 0.47509 0.0
N278 N 0.62826 0.73842 0.55958 0.0
N279 N 0.83274 0.80316 0.45048 0.0
H280 H 0.74282 0.63123 0.44493 0.0
H281 H 0.794 0.68587 0.4212 0.0
H282 H 0.85286 0.85006 0.45068 0.0
H283 H 0.85613 0.77096 0.42933 0.0
H284 H 0.609 0.76973 0.58228 0.0
H285 H 0.60814 0.6916 0.55952 0.0
H286 H 0.62475 0.86371 0.57318 0.0
H287 H 0.68972 0.91589 0.55538 0.0
C288 C 0.74701 0.33145 0.44524 0.0
C289 C 0.71828 0.35366 0.48149 0.0
C290 C 0.73769 0.24843 0.50295 0.0
C291 C 0.76676 0.22625 0.46673 0.0
N292 N 0.78648 0.241 0.40116 0.0
N293 N 0.67327 0.33275 0.54282 0.0
C294 C 0.76701 0.26603 0.43706 0.0
C295 C 0.7092 0.31175 0.50966 0.0
N296 N 0.75813 0.37362 0.41933 0.0
N297 N 0.74025 0.20959 0.53124 0.0
H298 H 0.65345 0.37934 0.54912 0.0
H299 H 0.65769 0.30322 0.56296 0.0
H300 H 0.75764 0.16205 0.52674 0.0
H301 H 0.72891 0.22488 0.55958 0.0
H302 H 0.78668 0.36251 0.39388 0.0
H303 H 0.74249 0.42153 0.42433 0.0
H304 H 0.78071 0.26542 0.37742 0.0
H305 H 0.8032 0.19366 0.3944 0.0
C306 C 0.32533 0.32777 0.44648 0.0
C307 C 0.38051 0.36037 0.47228 0.0
C308 C 0.36414 0.27985 0.51554 0.0
C309 C 0.29635 0.25758 0.4943 0.0
N310 N 0.21497 0.25522 0.43775 0.0
N311 N 0.48253 0.34285 0.51724 0.0
C312 C 0.27878 0.27879 0.45866 0.0
C313 C 0.40958 0.32925 0.50278 0.0
N314 N 0.32023 0.34243 0.40998 0.0
N315 N 0.38284 0.25579 0.5487 0.0
H316 H 0.5197 0.37401 0.50568 0.0
H317 H 0.50987 0.31654 0.53668 0.0
H318 H 0.35278 0.21751 0.55783 0.0
H319 H 0.42588 0.27538 0.56783 0.0
H320 H 0.28547 0.3173 0.38872 0.0
H321 H 0.35824 0.37517 0.40007 0.0
H322 H 0.19377 0.27454 0.41387 0.0
H323 H 0.1806 0.21814 0.44542 0.0
C324 C 0.3274 0.72541 0.54425 0.0
C325 C 0.39497 0.71611 0.52252 0.0
C326 C 0.36568 0.81248 0.49278 0.0
C327 C 0.28915 0.81004 0.50635 0.0
N328 N 0.19825 0.77045 0.54881 0.0
N329 N 0.488 0.75763 0.4818 0.0
C330 C 0.27094 0.76962 0.53418 0.0
C331 C 0.41838 0.76309 0.49945 0.0
N332 N 0.3167 0.68935 0.57326 0.0
N333 N 0.38665 0.86139 0.47297 0.0
H334 H 0.52962 0.72464 0.488 0.0
H335 H 0.5046 0.78515 0.46081 0.0
H336 H 0.34832 0.89775 0.46794 0.0
H337 H 0.44291 0.86911 0.46439 0.0
H338 H 0.2712 0.69571 0.5921 0.0
H339 H 0.35839 0.65663 0.58024 0.0
H340 H 0.17848 0.73737 0.56602 0.0
H341 H 0.1563 0.80326 0.5425 0.0
C342 C 0.09955 0.06376 0.16169 0.0
C343 C 0.07243 0.02022 0.13045 0.0
C344 C 1.0054 0.95873 0.17463 0.0
C345 C 0.04342 -0.00377 0.20568 0.0
N346 N 0.1397 0.077 0.22794 0.0
N347 N 0.00908 0.91986 0.10776 0.0
C348 C 0.09408 0.04684 0.19902 0.0
C349 C 0.02732 0.96611 0.13697 0.0
N350 N 0.12894 0.12204 0.15575 0.0
N351 N 0.9472 0.91722 0.18096 0.0
H352 H 0.02578 0.92274 0.08003 0.0
H353 H 0.98386 0.87619 0.11175 0.0
H354 H 0.92867 0.9112 0.20813 0.0
H355 H 0.91248 0.89345 0.15915 0.0
H356 H 0.14319 0.15771 0.17786 0.0
H357 H 0.13068 0.13727 0.1288 0.0
H358 H 0.18297 0.10996 0.22359 0.0
H359 H 0.14014 0.06428 0.2555 0.0
C360 C 0.11164 0.03721 0.84958 0.0
C361 C 0.06125 0.07955 0.87112 0.0
C362 C 0.02818 0.13142 0.81495 0.0
C363 C 0.07952 0.08994 0.79337 0.0
N364 N 0.18762 0.0179 0.79272 0.0
N365 N 0.99499 0.18036 0.87766 0.0
C366 C 0.12742 0.0478 0.81167 0.0
C367 C 0.02771 0.13139 0.85486 0.0
N368 N 0.14003 0.98456 0.86405 0.0
N369 N 0.97574 0.16728 0.79742 0.0
H370 H 0.99539 0.18211 0.90724 0.0
H371 H 0.97554 0.22204 0.86757 0.0
H372 H 0.97075 0.1668 0.76803 0.0
H373 H 0.93188 0.1929 0.81196 0.0
H374 H 0.16981 0.94858 0.84782 0.0
H375 H 0.1287 0.97398 0.89136 0.0
H376 H 0.22851 0.99093 0.80576 0.0
H377 H 0.2011 0.02561 0.76505 0.0
C378 C 0.51917 0.45778 0.63676 0.0
C379 C 0.5627 0.51294 0.63066 0.0
C380 C 0.58004 0.5407 0.69935 0.0
C381 C 0.53082 0.48889 0.70557 0.0
N382 N 0.43902 0.40691 0.67993 0.0
N383 N 0.61442 0.61628 0.65625 0.0
C384 C 0.49577 0.45007 0.67417 0.0
C385 C 0.5867 0.55742 0.66205 0.0
N386 N 0.50387 0.411 0.60744 0.0
N387 N 0.6234 0.57217 0.72871 0.0
H388 H 0.61711 0.63121 0.62925 0.0
H389 H 0.62628 0.65251 0.67839 0.0
H390 H 0.62324 0.55959 0.7563 0.0
H391 H 0.66571 0.60617 0.72477 0.0
H392 H 0.48013 0.36671 0.61124 0.0
H393 H 0.52147 0.41431 0.57989 0.0
H394 H 0.40628 0.38193 0.65779 0.0
H395 H 0.41962 0.40051 0.7069 0.0
C396 C 0.61641 0.53554 0.35067 0.0
C397 C 0.56565 0.57752 0.3722 0.0
C398 C 0.53475 0.63127 0.31651 0.0
C399 C 0.58597 0.58979 0.29485 0.0
N400 N 0.69334 0.51704 0.29407 0.0
N401 N 0.50037 0.6787 0.37939 0.0
C402 C 0.63309 0.54692 0.31299 0.0
C403 C 0.53323 0.63015 0.35632 0.0
N404 N 0.64425 0.4825 0.3649 0.0
N405 N 0.48326 0.66812 0.29911 0.0
H406 H 0.49989 0.67948 0.40891 0.0
H407 H 0.48167 0.72091 0.36968 0.0
H408 H 0.47905 0.66854 0.26976 0.0
H409 H 0.43941 0.69377 0.31362 0.0
H410 H 0.67423 0.4467 0.34862 0.0
H411 H 0.63245 0.47157 0.39209 0.0
H412 H 0.73371 0.48948 0.30701 0.0
H413 H 0.70739 0.52531 0.26657 0.0
loop_
_geom_bond_atom_site_label_1
_geom_bond_atom_site_label_2
_geom_bond_distance
_geom_bond_site_symmetry_2
_ccdc_geom_bond_type
O0 Mg1 1.990 . S
O0 C14 1.253 . S
Mg1 O0 1.990 . S
Mg1 O4 2.180 . S
Mg1 O5 2.117 . S
Mg1 O19 2.030 1_545 S
O2 Mg3 2.072 1_554 S
O2 C14 1.260 . S
Mg3 O2 2.072 1_556 S
Mg3 O4 2.099 1_556 S
Mg3 O6 2.079 . S
Mg3 O7 2.072 1_456 S
Mg3 O9 2.099 1_445 S
Mg3 O20 2.079 1_545 S
O4 Mg1 2.180 . S
O4 Mg3 2.099 1_554 S
O4 C15 1.279 . S
O5 Mg1 2.117 . S
O5 C15 1.250 . S
O6 Mg3 2.079 . S
O6 C16 1.264 . S
O7 Mg3 2.072 1_654 S
O7 C17 1.260 1_554 S
Mg8 O9 2.180 1_545 S
Mg8 O10 2.030 . S
Mg8 O11 1.990 . S
Mg8 O12 2.117 1_545 S
O9 Mg3 2.099 1_665 S
O9 Mg8 2.180 1_565 S
O9 C18 1.282 . S
O10 Mg8 2.030 . S
O10 C16 1.248 1_655 S
O11 Mg8 1.990 . S
O11 C17 1.253 . S
O12 Mg8 2.117 1_565 S
O12 C18 1.252 . S
C13 O19 1.248 . S
C13 O20 1.264 1_554 S
C14 O0 1.253 . S
C14 O2 1.260 . S
C15 O4 1.279 . S
C15 O5 1.250 . S
C16 O6 1.264 . S
C16 O10 1.248 1_455 S
C17 O7 1.260 1_556 S
C17 O11 1.253 . S
C18 O9 1.282 . S
C18 O12 1.252 . S
O19 Mg1 2.030 1_565 S
O19 C13 1.248 . S
O20 Mg3 2.079 1_565 S
O20 C13 1.264 1_556 S
O21 Mg22 1.990 . S
O21 C35 1.253 . S
Mg22 O21 1.990 . S
Mg22 O25 2.180 . S
Mg22 O26 2.117 . S
Mg22 O40 2.030 . S
O23 Mg24 2.072 . S
O23 C35 1.260 . S
Mg24 O23 2.072 . S
Mg24 O25 2.099 . S
Mg24 O27 2.079 . S
Mg24 O28 2.072 . S
Mg24 O30 2.099 . S
Mg24 O41 2.079 . S
O25 Mg22 2.180 . S
O25 Mg24 2.099 . S
O25 C36 1.279 . S
O26 Mg22 2.117 . S
O26 C36 1.250 . S
O27 Mg24 2.079 . S
O27 C37 1.264 . S
O28 Mg24 2.072 . S
O28 C38 1.260 . S
Mg29 O30 2.180 . S
Mg29 O31 2.030 . S
Mg29 O32 1.990 . S
Mg29 O33 2.117 . S
O30 Mg24 2.099 . S
O30 Mg29 2.180 . S
O30 C39 1.279 . S
O31 Mg29 2.030 . S
O31 C37 1.248 . S
O32 Mg29 1.990 . S
O32 C38 1.253 . S
O33 Mg29 2.117 . S
O33 C39 1.250 . S
C34 O40 1.248 . S
C34 O41 1.264 . S
C35 O21 1.253 . S
C35 O23 1.260 . S
C36 O25 1.279 . S
C36 O26 1.250 . S
C37 O27 1.264 . S
C37 O31 1.248 . S
C38 O28 1.260 . S
C38 O32 1.253 . S
C39 O30 1.279 . S
C39 O33 1.250 . S
O40 Mg22 2.030 . S
O40 C34 1.248 . S
O41 Mg24 2.079 . S
O41 C34 1.264 . S
C42 C43 1.386 . S
C42 C44 1.397 . S
C42 H66 0.931 . S
C43 C42 1.386 . S
C43 C47 1.397 1_565 S
C44 C42 1.397 . S
C44 C45 1.384 . S
C44 H67 0.930 . S
C45 C44 1.384 . S
C45 C46 1.377 1_565 S
C45 C48 1.481 . S
C46 C45 1.377 1_545 S
C46 C47 1.389 . S
C46 H68 0.929 . S
C47 C43 1.397 1_545 S
C47 C46 1.389 . S
C47 H69 0.931 . S
C48 C45 1.481 . S
C48 C49 1.387 . S
C48 C53 1.390 1_565 S
C49 C48 1.387 . S
C49 C50 1.401 . S
C49 H70 0.930 . S
C50 C49 1.401 . S
C50 C51 1.376 1_565 S
C50 C59 1.511 . S
C51 C50 1.376 1_545 S
C51 C52 1.392 . S
C51 H72 0.931 . S
C52 C51 1.392 . S
C52 C53 1.361 . S
C52 C54 1.500 1_455 S
C53 C48 1.390 1_545 S
C53 C52 1.361 . S
C53 H71 0.931 1_455 S
C54 C52 1.500 1_655 S
C54 C55 1.371 . S
C54 C56 1.365 . S
C55 C54 1.371 . S
C55 C65 1.386 . S
C55 H73 0.931 . S
C56 C54 1.365 . S
C56 C57 1.409 . S
C56 H74 0.929 . S
C57 C56 1.409 . S
C57 C58 1.380 . S
C57 H75 0.930 . S
C58 C57 1.380 . S
C58 C65 1.357 . S
C59 C50 1.511 . S
C59 C60 1.341 . S
C59 C61 1.371 . S
C60 C59 1.341 . S
C60 C64 1.394 . S
C60 H76 0.930 . S
C61 C59 1.371 . S
C61 C62 1.392 . S
C61 H77 0.931 . S
C62 C61 1.392 . S
C62 C63 1.331 . S
C62 H80 0.932 . S
C63 C62 1.331 . S
C63 C64 1.336 . S
C64 C60 1.394 . S
C64 C63 1.336 . S
C64 H79 0.929 . S
C65 C55 1.386 . S
C65 C58 1.357 . S
C65 H78 0.928 . S
H66 C42 0.931 . S
H67 C44 0.930 . S
H68 C46 0.929 . S
H69 C47 0.931 . S
H70 C49 0.930 . S
H71 C53 0.931 1_655 S
H72 C51 0.931 . S
H73 C55 0.931 . S
H74 C56 0.929 . S
H75 C57 0.930 . S
H76 C60 0.930 . S
H77 C61 0.931 . S
H78 C65 0.928 . S
H79 C64 0.929 . S
H80 C62 0.932 . S
C81 C82 1.386 . S
C81 C83 1.397 . S
C81 H105 0.931 . S
C82 C81 1.386 . S
C82 C86 1.397 . S
C83 C81 1.397 . S
C83 C84 1.384 . S
C83 H106 0.930 . S
C84 C83 1.384 . S
C84 C85 1.377 . S
C84 C87 1.481 . S
C85 C84 1.377 . S
C85 C86 1.389 . S
C85 H107 0.929 1_545 S
C86 C82 1.397 . S
C86 C85 1.389 . S
C86 H108 0.931 1_545 S
C87 C84 1.481 . S
C87 C88 1.387 . S
C87 C92 1.390 1_455 S
C88 C87 1.387 . S
C88 C89 1.401 . S
C88 H109 0.930 . S
C89 C88 1.401 . S
C89 C90 1.376 1_455 S
C89 C98 1.511 . S
C90 C89 1.376 1_655 S
C90 C91 1.392 . S
C90 H111 0.931 . S
C91 C90 1.392 . S
C91 C92 1.361 . S
C91 C93 1.500 1_545 S
C92 C87 1.390 1_655 S
C92 C91 1.361 . S
C92 H110 0.931 . S
C93 C91 1.500 1_565 S
C93 C94 1.371 . S
C93 C95 1.365 . S
C94 C93 1.371 . S
C94 C104 1.386 . S
C94 H112 0.931 1_565 S
C95 C93 1.365 . S
C95 C96 1.409 . S
C95 H113 0.929 . S
C96 C95 1.409 . S
C96 C97 1.380 . S
C96 H114 0.930 . S
C97 C96 1.380 . S
C97 C104 1.357 . S
C98 C89 1.511 . S
C98 C99 1.341 . S
C98 C100 1.371 . S
C99 C98 1.341 . S
C99 C103 1.394 . S
C99 H115 0.930 . S
C100 C98 1.371 . S
C100 C101 1.392 . S
C100 H116 0.931 . S
C101 C100 1.392 . S
C101 C102 1.331 . S
C101 H119 0.932 . S
C102 C101 1.331 . S
C102 C103 1.336 . S
C103 C99 1.394 . S
C103 C102 1.336 . S
C103 H118 0.929 . S
C104 C94 1.386 . S
C104 C97 1.357 . S
C104 H117 0.928 . S
H105 C81 0.931 . S
H106 C83 0.930 . S
H107 C85 0.929 1_565 S
H108 C86 0.931 1_565 S
H109 C88 0.930 . S
H110 C92 0.931 . S
H111 C90 0.931 . S
H112 C94 0.931 1_545 S
H113 C95 0.929 . S
H114 C96 0.930 . S
H115 C99 0.930 . S
H116 C100 0.931 . S
H117 C104 0.928 . S
H118 C103 0.929 . S
H119 C101 0.932 . S
C120 C121 1.386 . S
C120 C122 1.397 . S
C120 H144 0.931 . S
C121 C120 1.386 . S
C121 C125 1.397 . S
C122 C120 1.397 . S
C122 C123 1.384 . S
C122 H145 0.930 . S
C123 C122 1.384 . S
C123 C124 1.377 . S
C123 C126 1.481 . S
C124 C123 1.377 . S
C124 C125 1.389 . S
C124 H146 0.929 . S
C125 C121 1.397 . S
C125 C124 1.389 . S
C125 H147 0.931 . S
C126 C123 1.481 . S
C126 C127 1.387 . S
C126 C131 1.390 . S
C127 C126 1.387 . S
C127 C128 1.401 . S
C127 H148 0.930 . S
C128 C127 1.401 . S
C128 C129 1.376 . S
C128 C137 1.511 . S
C129 C128 1.376 . S
C129 C130 1.392 . S
C129 H150 0.931 . S
C130 C129 1.392 . S
C130 C131 1.361 . S
C130 C132 1.500 . S
C131 C126 1.390 . S
C131 C130 1.361 . S
C131 H149 0.931 . S
C132 C130 1.500 . S
C132 C133 1.371 . S
C132 C134 1.365 . S
C133 C132 1.371 . S
C133 C143 1.386 1_556 S
C133 H151 0.924 1_556 S
C134 C132 1.365 . S
C134 C135 1.409 . S
C134 H152 0.929 . S
C135 C134 1.409 . S
C135 C136 1.393 . S
C135 H153 0.930 . S
C136 C135 1.393 . S
C136 C143 1.351 1_556 S
C137 C128 1.511 . S
C137 C138 1.341 . S
C137 C139 1.371 . S
C138 C137 1.341 . S
C138 C142 1.394 . S
C138 H154 0.930 . S
C139 C137 1.371 . S
C139 C140 1.392 1_556 S
C139 H155 0.931 1_556 S
C140 C139 1.392 1_554 S
C140 C141 1.331 1_554 S
C140 H158 0.932 . S
C141 C140 1.331 1_556 S
C141 C142 1.336 . S
C142 C138 1.394 . S
C142 C141 1.336 . S
C142 H157 0.929 . S
C143 C133 1.386 1_554 S
C143 C136 1.351 1_554 S
C143 H156 0.928 . S
H144 C120 0.931 . S
H145 C122 0.930 . S
H146 C124 0.929 . S
H147 C125 0.931 . S
H148 C127 0.930 . S
H149 C131 0.931 . S
H150 C129 0.931 . S
H151 C133 0.924 1_554 S
H152 C134 0.929 . S
H153 C135 0.930 . S
H154 C138 0.930 . S
H155 C139 0.931 1_554 S
H156 C143 0.928 . S
H157 C142 0.929 . S
H158 C140 0.932 . S
C159 C160 1.386 . S
C159 C161 1.397 . S
C159 H183 0.931 . S
C160 C159 1.386 . S
C160 C164 1.397 . S
C161 C159 1.397 . S
C161 C162 1.384 . S
C161 H184 0.930 . S
C162 C161 1.384 . S
C162 C163 1.377 . S
C162 C165 1.481 . S
C163 C162 1.377 . S
C163 C164 1.389 . S
C163 H185 0.929 . S
C164 C160 1.397 . S
C164 C163 1.389 . S
C164 H186 0.931 . S
C165 C162 1.481 . S
C165 C166 1.387 . S
C165 C170 1.390 . S
C166 C165 1.387 . S
C166 C167 1.401 . S
C166 H187 0.930 . S
C167 C166 1.401 . S
C167 C168 1.376 . S
C167 C176 1.511 . S
C168 C167 1.376 . S
C168 C169 1.392 . S
C168 H189 0.931 . S
C169 C168 1.392 . S
C169 C170 1.361 . S
C169 C171 1.500 . S
C170 C165 1.390 . S
C170 C169 1.361 . S
C170 H188 0.931 . S
C171 C169 1.500 . S
C171 C172 1.371 . S
C171 C173 1.365 . S
C172 C171 1.371 . S
C172 C182 1.386 1_554 S
C172 H190 0.931 . S
C173 C171 1.365 . S
C173 C174 1.409 . S
C173 H191 0.929 . S
C174 C173 1.409 . S
C174 C175 1.380 . S
C174 H192 0.930 . S
C175 C174 1.380 . S
C175 C182 1.357 1_554 S
C176 C167 1.511 . S
C176 C177 1.341 . S
C176 C178 1.371 . S
C177 C176 1.341 . S
C177 C181 1.394 . S
C177 H193 0.930 . S
C178 C176 1.371 . S
C178 C179 1.385 1_554 S
C178 H194 0.931 . S
C179 C178 1.385 1_556 S
C179 C180 1.325 1_556 S
C179 H197 0.945 . S
C180 C179 1.325 1_554 S
C180 C181 1.336 . S
C181 C177 1.394 . S
C181 C180 1.336 . S
C181 H196 0.929 . S
C182 C172 1.386 1_556 S
C182 C175 1.357 1_556 S
C182 H195 0.928 . S
H183 C159 0.931 . S
H184 C161 0.930 . S
H185 C163 0.929 . S
H186 C164 0.931 . S
H187 C166 0.930 . S
H188 C170 0.931 . S
H189 C168 0.931 . S
H190 C172 0.931 . S
H191 C173 0.929 . S
H192 C174 0.930 . S
H193 C177 0.930 . S
H194 C178 0.931 . S
H195 C182 0.928 . S
H196 C181 0.929 . S
H197 C179 0.945 . S
C198 C199 1.363 1_556 S
C198 C204 1.379 . S
C198 N206 1.356 . S
C199 C198 1.363 1_554 S
C199 C205 1.363 . S
C200 C201 1.364 . S
C200 C205 1.379 . S
C200 N207 1.356 . S
C201 C200 1.364 . S
C201 C204 1.362 1_554 S
N202 C204 1.356 . S
N202 H214 0.984 . S
N202 H215 0.985 . S
N203 C205 1.356 . S
N203 H208 0.984 . S
N203 H209 0.985 . S
C204 C198 1.379 . S
C204 C201 1.362 1_556 S
C204 N202 1.356 . S
C205 C199 1.363 . S
C205 C200 1.379 . S
C205 N203 1.356 . S
N206 C198 1.356 . S
N206 H212 0.984 . S
N206 H213 0.984 . S
N207 C200 1.356 . S
N207 H210 0.984 . S
N207 H211 0.985 . S
H208 N203 0.984 . S
H209 N203 0.985 . S
H210 N207 0.984 . S
H211 N207 0.985 . S
H212 N206 0.984 . S
H213 N206 0.984 . S
H214 N202 0.984 . S
H215 N202 0.985 . S
C216 C217 1.363 1_556 S
C216 C222 1.379 . S
C216 N224 1.356 . S
C217 C216 1.363 1_554 S
C217 C223 1.363 . S
C218 C219 1.363 . S
C218 C223 1.379 . S
C218 N225 1.356 . S
C219 C218 1.363 . S
C219 C222 1.363 1_554 S
N220 C222 1.356 . S
N220 H232 0.984 . S
N220 H233 0.985 . S
N221 C223 1.356 . S
N221 H226 0.984 . S
N221 H227 0.985 . S
C222 C216 1.379 . S
C222 C219 1.363 1_556 S
C222 N220 1.356 . S
C223 C217 1.363 . S
C223 C218 1.379 . S
C223 N221 1.356 . S
N224 C216 1.356 . S
N224 H230 0.984 . S
N224 H231 0.984 . S
N225 C218 1.356 . S
N225 H228 0.984 . S
N225 H229 0.985 . S
H226 N221 0.984 . S
H227 N221 0.985 . S
H228 N225 0.984 . S
H229 N225 0.985 . S
H230 N224 0.984 . S
H231 N224 0.984 . S
H232 N220 0.984 . S
H233 N220 0.985 . S
C234 C235 1.363 1_556 S
C234 C240 1.379 . S
C234 N242 1.356 . S
C235 C234 1.363 1_554 S
C235 C241 1.363 . S
C236 C237 1.363 . S
C236 C241 1.379 . S
C236 N243 1.356 . S
C237 C236 1.363 . S
C237 C240 1.363 1_554 S
N238 C240 1.356 . S
N238 H250 0.984 . S
N238 H251 0.985 . S
N239 C241 1.356 . S
N239 H244 0.984 . S
N239 H245 0.985 . S
C240 C234 1.379 . S
C240 C237 1.363 1_556 S
C240 N238 1.356 . S
C241 C235 1.363 . S
C241 C236 1.379 . S
C241 N239 1.356 . S
N242 C234 1.356 . S
N242 H248 0.984 . S
N242 H249 0.984 . S
N243 C236 1.356 . S
N243 H246 0.984 . S
N243 H247 0.985 . S
H244 N239 0.984 . S
H245 N239 0.985 . S
H246 N243 0.984 . S
H247 N243 0.985 . S
H248 N242 0.984 . S
H249 N242 0.984 . S
H250 N238 0.984 . S
H251 N238 0.985 . S
C252 C253 1.355 1_554 S
C252 C258 1.379 . S
C252 N260 1.356 . S
C253 C252 1.355 1_556 S
C253 C259 1.372 . S
C254 C255 1.384 . S
C254 C259 1.379 . S
C254 N261 1.356 . S
C255 C254 1.384 . S
C255 C258 1.340 1_556 S
N256 C258 1.356 . S
N256 H268 0.984 . S
N256 H269 0.985 . S
N257 C259 1.356 . S
N257 H262 0.984 . S
N257 H263 0.985 . S
C258 C252 1.379 . S
C258 C255 1.340 1_554 S
C258 N256 1.356 . S
C259 C253 1.372 . S
C259 C254 1.379 . S
C259 N257 1.356 . S
N260 C252 1.356 . S
N260 H266 0.984 . S
N260 H267 0.984 . S
N261 C254 1.356 . S
N261 H264 0.984 . S
N261 H265 0.985 . S
H262 N257 0.984 . S
H263 N257 0.985 . S
H264 N261 0.984 . S
H265 N261 0.985 . S
H266 N260 0.984 . S
H267 N260 0.984 . S
H268 N256 0.984 . S
H269 N256 0.985 . S
C270 C271 1.363 . S
C270 C276 1.379 . S
C270 N278 1.356 . S
C271 C270 1.363 . S
C271 C277 1.363 . S
C272 C273 1.363 . S
C272 C277 1.379 . S
C272 N279 1.356 . S
C273 C272 1.363 . S
C273 C276 1.363 . S
N274 C276 1.356 . S
N274 H286 0.984 . S
N274 H287 0.985 . S
N275 C277 1.356 . S
N275 H280 0.984 . S
N275 H281 0.985 . S
C276 C270 1.379 . S
C276 C273 1.363 . S
C276 N274 1.356 . S
C277 C271 1.363 . S
C277 C272 1.379 . S
C277 N275 1.356 . S
N278 C270 1.356 . S
N278 H284 0.984 . S
N278 H285 0.984 . S
N279 C272 1.356 . S
N279 H282 0.984 . S
N279 H283 0.985 . S
H280 N275 0.984 . S
H281 N275 0.985 . S
H282 N279 0.984 . S
H283 N279 0.985 . S
H284 N278 0.984 . S
H285 N278 0.984 . S
H286 N274 0.984 . S
H287 N274 0.985 . S
C288 C289 1.363 . S
C288 C294 1.379 . S
C288 N296 1.356 . S
C289 C288 1.363 . S
C289 C295 1.363 . S
C290 C291 1.363 . S
C290 C295 1.379 . S
C290 N297 1.356 . S
C291 C290 1.363 . S
C291 C294 1.363 . S
N292 C294 1.356 . S
N292 H304 0.984 . S
N292 H305 0.985 . S
N293 C295 1.356 . S
N293 H298 0.984 . S
N293 H299 0.985 . S
C294 C288 1.379 . S
C294 C291 1.363 . S
C294 N292 1.356 . S
C295 C289 1.363 . S
C295 C290 1.379 . S
C295 N293 1.356 . S
N296 C288 1.356 . S
N296 H302 0.984 . S
N296 H303 0.984 . S
N297 C290 1.356 . S
N297 H300 0.984 . S
N297 H301 0.985 . S
H298 N293 0.984 . S
H299 N293 0.985 . S
H300 N297 0.984 . S
H301 N297 0.985 . S
H302 N296 0.984 . S
H303 N296 0.984 . S
H304 N292 0.984 . S
H305 N292 0.985 . S
C306 C307 1.363 . S
C306 C312 1.379 . S
C306 N314 1.356 . S
C307 C306 1.363 . S
C307 C313 1.363 . S
C308 C309 1.363 . S
C308 C313 1.379 . S
C308 N315 1.356 . S
C309 C308 1.363 . S
C309 C312 1.363 . S
N310 C312 1.356 . S
N310 H322 0.984 . S
N310 H323 0.985 . S
N311 C313 1.356 . S
N311 H316 0.984 . S
N311 H317 0.985 . S
C312 C306 1.379 . S
C312 C309 1.363 . S
C312 N310 1.356 . S
C313 C307 1.363 . S
C313 C308 1.379 . S
C313 N311 1.356 . S
N314 C306 1.356 . S
N314 H320 0.984 . S
N314 H321 0.984 . S
N315 C308 1.356 . S
N315 H318 0.984 . S
N315 H319 0.985 . S
H316 N311 0.984 . S
H317 N311 0.985 . S
H318 N315 0.984 . S
H319 N315 0.985 . S
H320 N314 0.984 . S
H321 N314 0.984 . S
H322 N310 0.984 . S
H323 N310 0.985 . S
C324 C325 1.363 . S
C324 C330 1.379 . S
C324 N332 1.356 . S
C325 C324 1.363 . S
C325 C331 1.363 . S
C326 C327 1.363 . S
C326 C331 1.379 . S
C326 N333 1.356 . S
C327 C326 1.363 . S
C327 C330 1.363 . S
N328 C330 1.356 . S
N328 H340 0.984 . S
N328 H341 0.985 . S
N329 C331 1.356 . S
N329 H334 0.984 . S
N329 H335 0.985 . S
C330 C324 1.379 . S
C330 C327 1.363 . S
C330 N328 1.356 . S
C331 C325 1.363 . S
C331 C326 1.379 . S
C331 N329 1.356 . S
N332 C324 1.356 . S
N332 H338 0.984 . S
N332 H339 0.984 . S
N333 C326 1.356 . S
N333 H336 0.984 . S
N333 H337 0.985 . S
H334 N329 0.984 . S
H335 N329 0.985 . S
H336 N333 0.984 . S
H337 N333 0.985 . S
H338 N332 0.984 . S
H339 N332 0.984 . S
H340 N328 0.984 . S
H341 N328 0.985 . S
C342 C343 1.363 . S
C342 C348 1.379 . S
C342 N350 1.356 . S
C343 C342 1.363 . S
C343 C349 1.363 1_545 S
C344 C345 1.363 . S
C344 C349 1.379 . S
C344 N351 1.356 1_455 S
C345 C344 1.363 . S
C345 C348 1.363 1_565 S
N346 C348 1.356 . S
N346 H358 0.984 . S
N346 H359 0.985 . S
N347 C349 1.356 1_655 S
N347 H352 0.984 . S
N347 H353 0.985 . S
C348 C342 1.379 . S
C348 C345 1.363 1_545 S
C348 N346 1.356 . S
C349 C343 1.363 1_565 S
C349 C344 1.379 . S
C349 N347 1.356 1_455 S
N350 C342 1.356 . S
N350 H356 0.984 . S
N350 H357 0.984 . S
N351 C344 1.356 1_655 S
N351 H354 0.984 . S
N351 H355 0.985 . S
H352 N347 0.984 . S
H353 N347 0.985 . S
H354 N351 0.984 . S
H355 N351 0.985 . S
H356 N350 0.984 . S
H357 N350 0.984 . S
H358 N346 0.984 . S
H359 N346 0.985 . S
C360 C361 1.363 . S
C360 C366 1.379 . S
C360 N368 1.356 1_545 S
C361 C360 1.363 . S
C361 C367 1.363 1_455 S
C362 C363 1.363 1_655 S
C362 C367 1.379 . S
C362 N369 1.356 . S
C363 C362 1.363 1_455 S
C363 C366 1.363 . S
N364 C366 1.356 . S
N364 H376 0.984 1_545 S
N364 H377 0.985 . S
N365 C367 1.356 . S
N365 H370 0.984 . S
N365 H371 0.985 . S
C366 C360 1.379 . S
C366 C363 1.363 . S
C366 N364 1.356 . S
C367 C361 1.363 1_655 S
C367 C362 1.379 . S
C367 N365 1.356 . S
N368 C360 1.356 1_565 S
N368 H374 0.984 . S
N368 H375 0.984 . S
N369 C362 1.356 . S
N369 H372 0.984 . S
N369 H373 0.985 . S
H370 N365 0.984 . S
H371 N365 0.985 . S
H372 N369 0.984 . S
H373 N369 0.985 . S
H374 N368 0.984 . S
H375 N368 0.984 . S
H376 N364 0.984 1_565 S
H377 N364 0.985 . S
C378 C379 1.363 . S
C378 C384 1.379 . S
C378 N386 1.356 . S
C379 C378 1.363 . S
C379 C385 1.363 . S
C380 C381 1.363 . S
C380 C385 1.379 . S
C380 N387 1.356 . S
C381 C380 1.363 . S
C381 C384 1.363 . S
N382 C384 1.356 . S
N382 H394 0.984 . S
N382 H395 0.985 . S
N383 C385 1.356 . S
N383 H388 0.984 . S
N383 H389 0.985 . S
C384 C378 1.379 . S
C384 C381 1.363 . S
C384 N382 1.356 . S
C385 C379 1.363 . S
C385 C380 1.379 . S
C385 N383 1.356 . S
N386 C378 1.356 . S
N386 H392 0.984 . S
N386 H393 0.984 . S
N387 C380 1.356 . S
N387 H390 0.984 . S
N387 H391 0.985 . S
H388 N383 0.984 . S
H389 N383 0.985 . S
H390 N387 0.984 . S
H391 N387 0.985 . S
H392 N386 0.984 . S
H393 N386 0.984 . S
H394 N382 0.984 . S
H395 N382 0.985 . S
C396 C397 1.363 . S
C396 C402 1.379 . S
C396 N404 1.356 . S
C397 C396 1.363 . S
C397 C403 1.363 . S
C398 C399 1.363 . S
C398 C403 1.379 . S
C398 N405 1.356 . S
C399 C398 1.363 . S
C399 C402 1.363 . S
N400 C402 1.356 . S
N400 H412 0.984 . S
N400 H413 0.985 . S
N401 C403 1.356 . S
N401 H406 0.984 . S
N401 H407 0.985 . S
C402 C396 1.379 . S
C402 C399 1.363 . S
C402 N400 1.356 . S
C403 C397 1.363 . S
C403 C398 1.379 . S
C403 N401 1.356 . S
N404 C396 1.356 . S
N404 H410 0.984 . S
N404 H411 0.984 . S
N405 C398 1.356 . S
N405 H408 0.984 . S
N405 H409 0.985 . S
H406 N401 0.984 . S
H407 N401 0.985 . S
H408 N405 0.984 . S
H409 N405 0.985 . S
H410 N404 0.984 . S
H411 N404 0.984 . S
H412 N400 0.984 . S
H413 N400 0.985 . S
C201 C175 1.556 . S
C199 C15 1.522 . S
C217 C13 1.615 . S
C219 C136 1.575 1_554 S
C235 C18 1.309 1_554 S
C237 C180 1.552 . S
C253 C17 1.426 . S
C255 C141 1.470 . S
C271 C36 1.522 . S
C273 C97 1.557 . S
C289 C34 1.615 . S
C291 C58 1.577 . S
C309 C102 1.552 . S
C307 C39 1.311 . S
C327 C63 1.460 . S
C325 C38 1.426 . S
C343 C14 1.515 . S
C345 C43 1.561 . S
C361 C16 1.403 . S
C363 C82 1.458 . S
C381 C121 1.561 . S
C379 C35 1.515 . S
C397 C37 1.402 . S
C399 C160 1.458 . S
