# Generated by pormake.
# Topology zzz, (3,6)-cn, num edge types: 1
# Building blocks:
#     Node 0, Type 0, BuildingBlock: PAMTOO_clean_linker_0, # of connection points: 3
#     Node 1, Type 0, BuildingBlock: PAMTOO_clean_linker_0, # of connection points: 3
#     Node 2, Type 0, BuildingBlock: PAMTOO_clean_linker_0, # of connection points: 3
#     Node 3, Type 0, BuildingBlock: PAMTOO_clean_linker_0, # of connection points: 3
#     Node 4, Type 0, BuildingBlock: PAMTOO_clean_linker_0, # of connection points: 3
#     Node 5, Type 0, BuildingBlock: PAMTOO_clean_linker_0, # of connection points: 3
#     Node 6, Type 0, BuildingBlock: PAMTOO_clean_linker_0, # of connection points: 3
#     Node 7, Type 0, BuildingBlock: PAMTOO_clean_linker_0, # of connection points: 3
#     Node 8, Type 1, BuildingBlock: KUMJIN_clean_sbu_0, # of connection points: 6
#     Node 9, Type 1, BuildingBlock: KUMJIN_clean_sbu_0, # of connection points: 6
#     Node 10, Type 1, BuildingBlock: KUMJIN_clean_sbu_0, # of connection points: 6
#     Node 11, Type 1, BuildingBlock: KUMJIN_clean_sbu_0, # of connection points: 6
#     Edge 12, Type (0, 1), BuildingBlock: TEMPAE_clean_linker_10, # of connection points: 2
#     Edge 13, Type (0, 1), BuildingBlock: TEMPAE_clean_linker_10, # of connection points: 2
#     Edge 14, Type (0, 1), BuildingBlock: TEMPAE_clean_linker_10, # of connection points: 2
#     Edge 15, Type (0, 1), BuildingBlock: TEMPAE_clean_linker_10, # of connection points: 2
#     Edge 16, Type (0, 1), BuildingBlock: TEMPAE_clean_linker_10, # of connection points: 2
#     Edge 17, Type (0, 1), BuildingBlock: TEMPAE_clean_linker_10, # of connection points: 2
#     Edge 18, Type (0, 1), BuildingBlock: TEMPAE_clean_linker_10, # of connection points: 2
#     Edge 19, Type (0, 1), BuildingBlock: TEMPAE_clean_linker_10, # of connection points: 2
#     Edge 20, Type (0, 1), BuildingBlock: TEMPAE_clean_linker_10, # of connection points: 2
#     Edge 21, Type (0, 1), BuildingBlock: TEMPAE_clean_linker_10, # of connection points: 2
#     Edge 22, Type (0, 1), BuildingBlock: TEMPAE_clean_linker_10, # of connection points: 2
#     Edge 23, Type (0, 1), BuildingBlock: TEMPAE_clean_linker_10, # of connection points: 2
#     Edge 24, Type (0, 1), BuildingBlock: TEMPAE_clean_linker_10, # of connection points: 2
#     Edge 25, Type (0, 1), BuildingBlock: TEMPAE_clean_linker_10, # of connection points: 2
#     Edge 26, Type (0, 1), BuildingBlock: TEMPAE_clean_linker_10, # of connection points: 2
#     Edge 27, Type (0, 1), BuildingBlock: TEMPAE_clean_linker_10, # of connection points: 2
#     Edge 28, Type (0, 1), BuildingBlock: TEMPAE_clean_linker_10, # of connection points: 2
#     Edge 29, Type (0, 1), BuildingBlock: TEMPAE_clean_linker_10, # of connection points: 2
#     Edge 30, Type (0, 1), BuildingBlock: TEMPAE_clean_linker_10, # of connection points: 2
#     Edge 31, Type (0, 1), BuildingBlock: TEMPAE_clean_linker_10, # of connection points: 2
#     Edge 32, Type (0, 1), BuildingBlock: TEMPAE_clean_linker_10, # of connection points: 2
#     Edge 33, Type (0, 1), BuildingBlock: TEMPAE_clean_linker_10, # of connection points: 2
#     Edge 34, Type (0, 1), BuildingBlock: TEMPAE_clean_linker_10, # of connection points: 2
#     Edge 35, Type (0, 1), BuildingBlock: TEMPAE_clean_linker_10, # of connection points: 2
# Relax obj value: 0.173
# Max RMSD: 0.164
# Mean RMSD: 0.115
data_MOF--net-zzz--node1-KUMJIN_clean_sbu_0--node2-PAMTOO_clean_linker_0--edge1-TEMPAE_clean_linker_10
_symmetry_space_group_name_H-M    P1
_symmetry_Int_Tables_number       1
_symmetry_cell_setting            triclinic
loop_
_symmetry_equiv_pos_as_xyz
'x, y, z'
_cell_length_a     50.692787
_cell_length_b     50.572189
_cell_length_c     14.866734
_cell_angle_alpha  91.170328
_cell_angle_beta   90.06318
_cell_angle_gamma 89.758041
loop_
_atom_site_label
_atom_site_type_symbol
_atom_site_fract_x
_atom_site_fract_y
_atom_site_fract_z
_atom_type_partial_charge
H0 H 0.82238 0.59114 0.27269 0.0
H1 H 0.75158 0.58307 0.11523 0.0
H2 H 0.75761 0.54617 0.37316 0.0
H3 H 0.70808 0.59086 0.21682 0.0
C4 C 0.70346 0.56975 0.22928 0.0
O5 O 0.72643 0.55448 0.22718 0.0
H6 H 0.6951 0.56885 0.29823 0.0
C7 C 0.80205 0.58481 0.26616 0.0
C8 C 0.79186 0.56911 0.33399 0.0
C9 C 0.78822 0.58942 0.18595 0.0
C10 C 0.76248 0.57984 0.1768 0.0
C11 C 0.75092 0.56478 0.24397 0.0
C12 C 0.76586 0.55889 0.32281 0.0
H13 H 0.9495 0.82819 0.31894 0.0
H14 H 0.95583 0.76058 0.15524 0.0
H15 H 1.00021 0.76452 0.40524 0.0
H16 H 0.99294 0.73346 0.12477 0.0
C17 C 0.98398 0.71991 0.17421 0.0
O18 O 0.98674 0.7313 0.26148 0.0
H19 H 0.96256 0.719 0.15812 0.0
C20 C 0.95613 0.80777 0.31397 0.0
C21 C 0.9743 0.7983 0.37705 0.0
C22 C 0.95441 0.79582 0.22958 0.0
C23 C 0.96029 0.76923 0.22042 0.0
C24 C 0.97725 0.75667 0.28214 0.0
C25 C 0.98557 0.77232 0.35978 0.0
H26 H 0.71831 0.96381 0.33266 0.0
H27 H 0.79109 0.94983 0.19495 0.0
H28 H 0.78615 1.00995 0.40569 0.0
H29 H 0.81009 1.01471 0.17493 0.0
C30 C 0.82227 0.99668 0.18519 0.0
O31 O 0.81757 0.98781 0.27261 0.0
H32 H 0.81509 0.98175 0.13519 0.0
C33 C 0.73936 0.9672 0.32671 0.0
C34 C 0.75079 0.98598 0.38456 0.0
C35 C 0.75307 0.95621 0.25343 0.0
C36 C 0.78035 0.9598 0.24873 0.0
C37 C 0.79255 0.98032 0.29832 0.0
C38 C 0.77738 0.99393 0.36679 0.0
H39 H 0.58879 0.7298 0.29947 0.0
H40 H 0.59082 0.80496 0.16994 0.0
H41 H 0.54641 0.79584 0.41411 0.0
H42 H 0.52208 0.83934 0.26278 0.0
C43 C 0.54056 0.83651 0.22355 0.0
O44 O 0.56054 0.82946 0.2829 0.0
H45 H 0.53656 0.82015 0.17408 0.0
C46 C 0.58427 0.75078 0.29937 0.0
C47 C 0.56824 0.76098 0.36824 0.0
C48 C 0.59145 0.76605 0.22536 0.0
C49 C 0.58514 0.79297 0.22615 0.0
C50 C 0.56866 0.80391 0.29251 0.0
C51 C 0.55973 0.78774 0.36371 0.0
H52 H 0.23099 0.45993 0.03884 0.0
H53 H 0.30386 0.46742 0.18585 0.0
H54 H 0.2906 0.51309 0.94907 0.0
H55 H 0.35919 0.5 0.02139 0.0
C56 C 0.34891 0.49115 0.07935 0.0
O57 O 0.32402 0.50284 0.08726 0.0
H58 H 0.34693 0.4696 0.06373 0.0
C59 C 0.251 0.46724 0.04457 0.0
C60 C 0.25908 0.48578 0.9819 0.0
C61 C 0.26615 0.46165 0.12141 0.0
C62 C 0.29175 0.47176 0.12781 0.0
C63 C 0.30093 0.49018 0.06674 0.0
C64 C 0.28433 0.49769 0.99372 0.0
H65 H 0.09481 0.23165 0.02229 0.0
H66 H 0.08109 0.30106 0.1836 0.0
H67 H 0.04055 0.29125 0.93209 0.0
H68 H 0.06021 0.35871 1.01109 0.0
C69 C 0.06373 0.34915 0.07669 0.0
O70 O 0.05055 0.32489 0.07506 0.0
H71 H 0.08541 0.34588 0.08232 0.0
C72 C 0.08718 0.25175 0.02712 0.0
C73 C 0.06815 0.25946 0.96436 0.0
C74 C 0.08827 0.26468 0.11112 0.0
C75 C 0.07948 0.29079 0.11908 0.0
C76 C 0.0628 0.30129 0.05405 0.0
C77 C 0.05597 0.28494 0.97735 0.0
H78 H 0.33393 0.0715 0.0305 0.0
H79 H 0.26405 0.09409 0.16441 0.0
H80 H 0.25991 0.05558 0.89977 0.0
H81 H 0.22307 0.09516 0.15103 0.0
C82 C 0.21952 0.07381 0.13708 0.0
O83 O 0.23043 0.06843 0.05145 0.0
H84 H 0.23046 0.06222 0.18809 0.0
C85 C 0.31259 0.07351 0.02919 0.0
C86 C 0.29912 0.06558 0.95186 0.0
C87 C 0.29985 0.08525 0.10205 0.0
C88 C 0.27261 0.08522 0.1047 0.0
C89 C 0.2573 0.07225 0.03703 0.0
C90 C 0.27091 0.06344 0.95666 0.0
H91 H 0.43999 0.32515 0.02541 0.0
H92 H 0.44413 0.25148 0.15777 0.0
H93 H 0.4893 0.26268 0.91701 0.0
H94 H 0.49255 0.23833 0.17014 0.0
C95 C 0.49435 0.22334 0.11448 0.0
O96 O 0.4756 0.22803 0.04768 0.0
H97 H 0.51417 0.22607 0.08433 0.0
C98 C 0.4457 0.30442 0.0229 0.0
C99 C 0.46382 0.29586 0.95675 0.0
C100 C 0.44265 0.29002 0.10159 0.0
C101 C 0.44801 0.263 0.09853 0.0
C102 C 0.4655 0.25278 0.0339 0.0
C103 C 0.47439 0.26968 0.9639 0.0
Eu104 Eu 0.04948 0.02043 0.74806 0.0
C105 C 0.95948 0.99593 0.48118 0.0
C106 C 0.9809 0.98057 0.34317 0.0
C107 C 0.93477 0.97078 0.36763 0.0
C108 C 0.9821 0.99388 0.42771 0.0
C109 C 0.93556 0.98456 0.45031 0.0
C110 C 0.95733 0.96884 0.31431 0.0
C111 C 0.91328 1.00479 0.57716 0.0
N112 N 0.96014 1.01064 0.559 0.0
C113 C 0.93698 1.01648 0.60329 0.0
C114 C 0.9126 0.98853 0.5008 0.0
Eu115 Eu 0.99919 0.03584 0.57867 0.0
N116 N 1.00494 1.00548 0.45618 0.0
C117 C 0.02736 1.00288 0.40503 0.0
C118 C 1.00344 0.97936 0.28918 0.0
C119 C 0.02689 0.99006 0.32116 0.0
H120 H 0.93616 0.03129 0.6567 0.0
H121 H 0.04475 0.98827 0.2816 0.0
H122 H 0.95639 0.95823 0.25046 0.0
H123 H 0.89532 1.00932 0.61378 0.0
H124 H 0.04616 1.00936 0.42815 0.0
H125 H 1.00532 0.09069 0.99179 0.0
H126 H 1.00315 0.96944 0.22388 0.0
H127 H 0.11311 1.01576 0.67882 0.0
H128 H 1.00472 0.0619 0.85731 0.0
H129 H 0.15644 0.03135 0.7283 0.0
H130 H 0.91655 0.96208 0.34318 0.0
H131 H 0.04764 0.10174 0.06597 0.0
H132 H 0.09694 0.09955 0.06382 0.0
H133 H 0.89395 0.98021 0.47888 0.0
H134 H 0.13777 0.08417 0.9911 0.0
N135 N 0.04632 0.05534 0.85615 0.0
C136 C 0.02335 0.06589 0.88942 0.0
C137 C 0.04752 0.0888 1.00699 0.0
C138 C 0.07109 0.07918 0.96973 0.0
C139 C 0.0236 0.08262 0.96536 0.0
C140 C 0.06992 0.06256 0.89251 0.0
H141 H 0.16004 0.06034 0.86339 0.0
N142 N 0.09139 0.0402 0.77094 0.0
C143 C 0.1388 0.03881 0.76123 0.0
C144 C 0.09305 0.05507 0.84807 0.0
C145 C 0.114 0.03108 0.73012 0.0
C146 C 0.14073 0.05485 0.83811 0.0
C147 C 0.11779 0.06288 0.88325 0.0
O148 O 0.08034 0.99191 0.77437 0.0
O149 O 0.02252 1.00339 0.63942 0.0
O150 O 0.97857 0.02393 0.70977 0.0
O151 O 1.01021 1.01533 0.81992 0.0
O152 O 0.04394 0.97673 0.7075 0.0
O153 O 0.05401 1.00499 0.88293 0.0
O154 O 0.96581 0.06236 0.56126 0.0
O155 O 0.02716 0.05369 0.68293 0.0
O156 O 0.07134 0.03056 0.61805 0.0
O157 O 0.03927 0.04648 0.51905 0.0
O158 O 1.0015 0.07876 0.62334 0.0
O159 O 0.99118 0.05183 0.44703 0.0
C160 C 0.02641 0.97848 0.64575 0.0
C161 C 0.07669 0.96438 0.897 0.0
C162 C 0.05816 0.92172 0.92775 0.0
C163 C 0.05508 0.94743 0.89711 0.0
C164 C 0.08283 0.91309 0.95916 0.0
C165 C 0.10128 0.95584 0.92857 0.0
C166 C 0.10431 0.93021 0.95981 0.0
C167 C 0.98541 1.01729 0.79264 0.0
C168 C 0.07453 0.99053 0.85965 0.0
C169 C 0.11895 0.0782 0.96284 0.0
C170 C 0.09569 0.08657 1.00525 0.0
C171 C 0.02099 0.07838 0.67836 0.0
C172 C 0.96885 0.09261 0.445 0.0
C173 C 0.99139 0.10823 0.43817 0.0
C174 C 0.98906 0.13429 0.4105 0.0
C175 C 0.96418 0.14475 0.38897 0.0
C176 C 0.94402 0.10299 0.42335 0.0
C177 C 0.94173 0.12904 0.3952 0.0
C178 C 0.06422 0.04135 0.54083 0.0
C179 C 0.97082 0.06561 0.47592 0.0
H180 H 0.03602 0.95411 0.873 0.0
H181 H 0.08529 0.89333 0.98485 0.0
H182 H 0.11814 0.96895 0.92828 0.0
H183 H 0.12327 0.92363 0.9845 0.0
H184 H 1.01067 0.10023 0.45451 0.0
H185 H 0.96226 0.16484 0.36582 0.0
H186 H 0.92648 0.09093 0.42832 0.0
H187 H 0.92258 0.13701 0.37794 0.0
Eu188 Eu 0.53224 0.05025 0.7375 0.0
C189 C 0.55083 0.96365 0.45633 0.0
C190 C 0.56445 0.98716 0.32393 0.0
C191 C 0.57388 0.94029 0.33481 0.0
C192 C 0.55146 0.98683 0.40803 0.0
C193 C 0.56185 0.94009 0.4195 0.0
C194 C 0.57543 0.96383 0.28792 0.0
C195 C 0.54743 0.91722 0.5509 0.0
N196 N 0.53921 0.96395 0.53858 0.0
C197 C 0.53652 0.94082 0.58407 0.0
C198 C 0.56028 0.91685 0.46836 0.0
Eu199 Eu 0.51413 1.00232 0.57581 0.0
N200 N 0.54198 1.00953 0.44719 0.0
C201 C 0.54825 0.03336 0.4098 0.0
C202 C 0.56783 1.01127 0.28128 0.0
C203 C 0.56033 0.03454 0.32567 0.0
H204 H 0.52447 0.93965 0.64313 0.0
H205 H 0.56464 0.05349 0.29658 0.0
H206 H 0.58636 0.96414 0.22599 0.0
H207 H 0.54507 0.89913 0.58768 0.0
H208 H 0.54563 0.0518 0.44535 0.0
H209 H 0.47815 1.00741 0.0183 0.0
H210 H 0.57779 1.01226 0.21698 0.0
H211 H 0.53527 0.11387 0.67715 0.0
H212 H 0.50718 1.0068 0.88898 0.0
H213 H 0.51502 0.15656 0.71866 0.0
H214 H 0.58255 0.92245 0.30579 0.0
H215 H 0.45401 0.04821 0.06111 0.0
H216 H 0.44476 0.09571 0.0344 0.0
H217 H 0.56837 0.89841 0.44199 0.0
H218 H 0.4543 0.13604 0.95187 0.0
N219 N 0.4998 0.04671 0.85243 0.0
C220 C 0.49697 0.02478 0.90402 0.0
C221 C 0.46669 0.04801 1.00246 0.0
C222 C 0.46998 0.07063 0.9514 0.0
C223 C 0.48035 0.02502 0.97881 0.0
C224 C 0.48691 0.06948 0.87573 0.0
H225 H 0.48019 0.15883 0.8345 0.0
N226 N 0.50989 0.09123 0.76011 0.0
C227 C 0.50799 0.13864 0.74895 0.0
C228 C 0.492 0.09226 0.82813 0.0
C229 C 0.51912 0.11427 0.72475 0.0
C230 C 0.48836 0.1398 0.81421 0.0
C231 C 0.48061 0.11663 0.85639 0.0
O232 O 0.56088 0.08078 0.76904 0.0
O233 O 0.5504 0.01898 0.6444 0.0
O234 O 0.52262 0.9815 0.70774 0.0
O235 O 0.54666 1.01095 0.79527 0.0
O236 O 0.56552 0.05641 0.63792 0.0
O237 O 0.55052 0.05263 0.87071 0.0
O238 O 0.4849 0.97171 0.60272 0.0
O239 O 0.49807 0.02454 0.69791 0.0
O240 O 0.51566 0.07263 0.61481 0.0
O241 O 0.50427 0.04095 0.50567 0.0
O242 O 0.47566 0.02497 0.58057 0.0
O243 O 0.49568 0.98046 0.46582 0.0
C244 C 0.56883 0.03239 0.60915 0.0
C245 C 0.59076 0.07639 0.88724 0.0
C246 C 0.62974 0.05852 0.95778 0.0
C247 C 0.60461 0.05483 0.92082 0.0
C248 C 0.64095 0.08391 0.96071 0.0
C249 C 0.60208 0.10166 0.89003 0.0
C250 C 0.62713 0.10538 0.92661 0.0
C251 C 0.53776 0.98674 0.77812 0.0
C252 C 0.56417 0.07356 0.85146 0.0
C253 C 0.4631 0.1175 0.92936 0.0
C254 C 0.45774 0.09455 0.97657 0.0
C255 C 0.47623 0.0323 0.66411 0.0
C256 C 0.45278 0.96576 0.49023 0.0
C257 C 0.44092 0.98749 0.44951 0.0
C258 C 0.41479 0.9861 0.41994 0.0
C259 C 0.40055 0.96257 0.43123 0.0
C260 C 0.43851 0.94244 0.50131 0.0
C261 C 0.41243 0.94086 0.47166 0.0
C262 C 0.50664 0.066 0.53336 0.0
C263 C 0.48034 0.96697 0.51773 0.0
H264 H 0.59582 0.03531 0.91907 0.0
H265 H 0.66052 0.08707 0.98809 0.0
H266 H 0.59144 0.11854 0.86428 0.0
H267 H 0.63581 0.12489 0.92855 0.0
H268 H 0.45226 1.00525 0.43859 0.0
H269 H 0.3802 0.96102 0.40949 0.0
H270 H 0.44762 0.92544 0.53205 0.0
H271 H 0.40142 0.92279 0.47989 0.0
Eu272 Eu 0.54864 0.51781 0.5884 0.0
C273 C 0.43662 0.52544 0.72602 0.0
C274 C 0.41772 0.55576 0.61892 0.0
C275 C 0.38912 0.52648 0.70103 0.0
C276 C 0.43986 0.54549 0.6646 0.0
C277 C 0.41107 0.51609 0.74578 0.0
C278 C 0.39245 0.54612 0.6374 0.0
C279 C 0.43017 0.48816 0.85818 0.0
N280 N 0.45813 0.51576 0.76896 0.0
C281 C 0.45498 0.49797 0.83679 0.0
C282 C 0.4081 0.4971 0.81204 0.0
Eu283 Eu 0.49859 0.53815 0.74296 0.0
N284 N 0.46447 0.55499 0.64929 0.0
C285 C 0.468 0.57482 0.58902 0.0
C286 C 0.42148 0.57561 0.5563 0.0
C287 C 0.44675 0.58509 0.5411 0.0
H288 H 0.47147 0.4921 0.87805 0.0
H289 H 0.44994 0.60036 0.49233 0.0
H290 H 0.37528 0.55397 0.60348 0.0
H291 H 0.42804 0.47421 0.91196 0.0
H292 H 0.48715 0.58233 0.57382 0.0
H293 H 0.59967 0.45125 0.81888 0.0
H294 H 0.405 0.58378 0.51945 0.0
H295 H 0.57513 0.56085 0.44489 0.0
H296 H 0.56181 0.46971 0.74207 0.0
H297 H 0.61819 0.57997 0.41012 0.0
H298 H 0.36941 0.51959 0.71573 0.0
H299 H 0.64373 0.47085 0.79986 0.0
H300 H 0.6723 0.5035 0.72423 0.0
H301 H 0.38879 0.48975 0.82977 0.0
H302 H 0.67726 0.53882 0.61509 0.0
N303 N 0.58313 0.50057 0.67893 0.0
C304 C 0.58047 0.47888 0.73179 0.0
C305 C 0.62693 0.47935 0.76569 0.0
C306 C 0.62988 0.50095 0.7095 0.0
C307 C 0.60215 0.46814 0.77618 0.0
C308 C 0.60736 0.51143 0.66652 0.0
H309 H 0.6574 0.56735 0.49829 0.0
N310 N 0.58858 0.54056 0.56089 0.0
C311 C 0.61619 0.56702 0.46681 0.0
C312 C 0.61014 0.53188 0.60603 0.0
C313 C 0.59164 0.55661 0.48831 0.0
C314 C 0.63822 0.55978 0.51655 0.0
C315 C 0.63553 0.54156 0.58551 0.0
O316 O 0.55636 0.5154 0.44502 0.0
O317 O 0.50431 0.51781 0.6074 0.0
O318 O 0.50232 0.49379 0.75815 0.0
O319 O 0.52822 0.47981 0.63726 0.0
O320 O 0.51894 0.53122 0.48599 0.0
O321 O 0.56654 0.48229 0.52921 0.0
O322 O 0.48636 0.54041 0.88229 0.0
O323 O 0.54271 0.53774 0.72308 0.0
O324 O 0.54795 0.56288 0.58353 0.0
O325 O 0.51753 0.57636 0.69216 0.0
O326 O 0.52889 0.52448 0.8449 0.0
O327 O 0.48713 0.57603 0.80474 0.0
C328 C 0.49778 0.5258 0.52964 0.0
C329 C 0.56194 0.47458 0.37279 0.0
C330 C 0.53821 0.43844 0.30354 0.0
C331 C 0.54303 0.45477 0.37832 0.0
C332 C 0.55231 0.44195 0.22329 0.0
C333 C 0.57594 0.47822 0.29273 0.0
C334 C 0.57114 0.46186 0.21808 0.0
C335 C 0.51304 0.47486 0.70802 0.0
C336 C 0.56719 0.49213 0.44868 0.0
C337 C 0.65769 0.53164 0.63024 0.0
C338 C 0.65486 0.51147 0.69221 0.0
C339 C 0.54982 0.52946 0.79951 0.0
C340 C 0.4942 0.57953 0.96282 0.0
C341 C 0.50669 0.60395 0.95493 0.0
C342 C 0.51697 0.61683 0.03115 0.0
C343 C 0.51472 0.60509 0.11579 0.0
C344 C 0.49179 0.56811 0.04784 0.0
C345 C 0.50218 0.58083 0.12384 0.0
C346 C 0.53497 0.58164 0.62839 0.0
C347 C 0.48329 0.56585 0.88366 0.0
H348 H 0.53193 0.45224 0.43994 0.0
H349 H 0.54886 0.42917 0.1651 0.0
H350 H 0.59053 0.49375 0.2881 0.0
H351 H 0.58199 0.46458 0.15635 0.0
H352 H 0.50819 0.61311 0.88985 0.0
H353 H 0.52292 0.6145 0.17559 0.0
H354 H 0.48198 0.54929 0.05541 0.0
H355 H 0.5007 0.57182 0.18899 0.0
Eu356 Eu 0.03406 0.54819 0.59316 0.0
C357 C 0.02089 0.43957 0.73295 0.0
C358 C 0.98874 0.42091 0.62894 0.0
C359 C 0.01803 0.3918 0.70993 0.0
C360 C 1.00006 0.44319 0.67327 0.0
C361 C 0.02954 0.41371 0.7533 0.0
C362 C 0.99788 0.3954 0.64739 0.0
C363 C 0.05863 0.43244 0.86555 0.0
N364 N 0.03173 0.46095 0.77518 0.0
C365 C 0.04949 0.45751 0.84364 0.0
C366 C 0.04883 0.41042 0.81947 0.0
Eu367 Eu 1.01135 0.50237 0.75001 0.0
N368 N 0.9907 0.4681 0.65896 0.0
C369 C 0.97097 0.47156 0.59652 0.0
C370 C 0.96835 0.4247 0.56746 0.0
C371 C 0.95963 0.45014 0.55068 0.0
H372 H 0.05583 0.47392 0.88538 0.0
H373 H 0.94435 0.45339 0.50112 0.0
H374 H 0.9892 0.37822 0.61442 0.0
H375 H 0.07266 0.43011 0.91984 0.0
H376 H 0.96435 0.49054 0.57579 0.0
H377 H 0.08922 0.60366 0.85077 0.0
H378 H 0.95941 0.40813 0.53179 0.0
H379 H 0.9947 0.57027 0.43042 0.0
H380 H 0.07353 0.56408 0.77036 0.0
H381 H 0.97823 0.61269 0.37339 0.0
H382 H 0.02439 0.3719 0.72508 0.0
H383 H 0.07364 0.64784 0.80593 0.0
H384 H 0.04614 0.67523 0.70293 0.0
H385 H 0.05561 0.39089 0.8377 0.0
H386 H 1.01578 0.67769 0.57417 0.0
N387 N 0.04826 0.58501 0.68173 0.0
C388 C 0.06631 0.583 0.74976 0.0
C389 C 0.06632 0.63037 0.77089 0.0
C390 C 0.04832 0.63244 0.69997 0.0
C391 C 0.07526 0.60551 0.79608 0.0
C392 C 0.03937 0.60908 0.65649 0.0
H393 H 0.99029 0.65458 0.45144 0.0
N394 N 1.01381 0.58766 0.54455 0.0
C395 C 0.99008 0.61237 0.43398 0.0
C396 C 0.0217 0.61045 0.58569 0.0
C397 C 0.99914 0.58836 0.46724 0.0
C398 C 0.99699 0.63593 0.47811 0.0
C399 C 1.01325 0.63522 0.5542 0.0
O400 O 0.04041 0.54904 0.44798 0.0
O401 O 0.03212 0.50418 0.61684 0.0
O402 O 0.05655 0.50609 0.76913 0.0
O403 O 0.07167 0.52918 0.64676 0.0
O404 O 1.01507 0.51801 0.49975 0.0
O405 O 0.07269 0.55901 0.54121 0.0
O406 O 0.01876 0.50486 0.89439 0.0
O407 O 0.02526 0.5443 0.73954 0.0
O408 O 0.98886 0.55118 0.58932 0.0
O409 O 0.97342 0.51966 0.68936 0.0
O410 O 0.98954 0.53881 0.80258 0.0
O411 O 0.98662 0.48076 0.84226 0.0
C412 C 0.02213 0.4971 0.5416 0.0
C413 C 0.08172 0.56157 0.3824 0.0
C414 C 0.12103 0.54603 0.30598 0.0
C415 C 0.10709 0.55115 0.38558 0.0
C416 C 0.11075 0.55546 0.22437 0.0
C417 C 0.07147 0.57084 0.30132 0.0
C418 C 0.08648 0.56856 0.22296 0.0
C419 C 0.07616 0.51522 0.71952 0.0
C420 C 0.06458 0.55675 0.45826 0.0
C421 C 0.02202 0.65849 0.5975 0.0
C422 C 0.03939 0.6571 0.67056 0.0
C423 C 1.00664 0.55638 0.78121 0.0
C424 C 0.98251 0.49864 0.98875 0.0
C425 C 0.95905 0.5125 0.97353 0.0
C426 C 0.94348 0.52106 0.04622 0.0
C427 C 0.95171 0.51558 0.13449 0.0
C428 C 0.99048 0.49318 0.07667 0.0
C429 C 0.97506 0.50163 0.14937 0.0
C430 C 0.96939 0.53809 0.6278 0.0
C431 C 0.99893 0.4897 0.91376 0.0
H432 H 0.1148 0.54471 0.44957 0.0
H433 H 0.12067 0.55178 0.16094 0.0
H434 H 0.05162 0.57882 0.29807 0.0
H435 H 0.07873 0.57549 0.15997 0.0
H436 H 0.95272 0.51618 0.90522 0.0
H437 H 0.94025 0.52227 0.1921 0.0
H438 H 1.00861 0.48241 0.08894 0.0
H439 H 0.98124 0.49746 0.21734 0.0
C440 C 0.17777 0.045 0.14838 0.0
C441 C 0.19017 0.06974 0.15688 0.0
C442 C 0.15464 0.0393 0.19853 0.0
C443 C 0.14475 0.05802 0.26321 0.0
C444 C 0.15672 0.08317 0.26937 0.0
C445 C 0.17837 0.08889 0.21453 0.0
C446 C 0.14151 1.01282 0.18539 0.0
C447 C 0.14829 0.10344 0.34002 0.0
C448 C 0.07824 0.05682 0.38663 0.0
C449 C 0.08492 0.04545 0.46934 0.0
C450 C 0.09702 0.05956 0.31721 0.0
C451 C 0.12349 0.05123 0.3301 0.0
C452 C 0.1303 0.03949 0.41283 0.0
C453 C 0.11099 0.03645 0.4801 0.0
C454 C 0.08854 0.07163 0.23003 0.0
C455 C 0.15825 0.0307 0.4317 0.0
H456 H 0.18682 0.02973 0.10643 0.0
H457 H 0.18784 0.10792 0.22422 0.0
H458 H 0.14557 1.00028 0.24416 0.0
H459 H 0.11979 1.01535 0.18058 0.0
H460 H 0.14868 1.00227 0.12379 0.0
H461 H 0.15945 0.12223 0.33558 0.0
H462 H 0.12698 0.10798 0.33362 0.0
H463 H 0.15148 0.09532 0.40803 0.0
H464 H 0.05819 0.06353 0.37555 0.0
H465 H 0.11655 0.02685 0.54097 0.0
H466 H 0.09324 0.05781 0.17332 0.0
H467 H 0.09966 0.09012 0.21933 0.0
H468 H 0.06711 0.07631 0.22857 0.0
H469 H 0.16437 1.0153 0.38179 0.0
H470 H 0.16053 0.02256 0.50016 0.0
H471 H 0.17193 0.04763 0.42508 0.0
C472 C 0.51623 0.18353 0.18324 0.0
C473 C 0.49262 0.19605 0.15804 0.0
C474 C 0.51655 0.16123 0.23863 0.0
C475 C 0.4926 0.15067 0.27112 0.0
C476 C 0.46847 0.16247 0.2434 0.0
C477 C 0.46875 0.18524 0.18864 0.0
C478 C 0.54283 0.14968 0.26565 0.0
C479 C 0.44242 0.15148 0.27404 0.0
C480 C 0.49772 0.08151 0.37444 0.0
C481 C 0.50041 0.08744 0.46704 0.0
C482 C 0.49436 0.1016 0.31034 0.0
C483 C 0.4933 0.12858 0.33867 0.0
C484 C 0.495 0.13458 0.43221 0.0
C485 C 0.49834 0.1141 0.49451 0.0
C486 C 0.49224 0.09387 0.212 0.0
C487 C 0.49402 0.16285 0.46677 0.0
H488 H 0.53481 0.19196 0.16236 0.0
H489 H 0.45035 0.19497 0.17192 0.0
H490 H 0.54595 0.15307 0.33888 0.0
H491 H 0.5431 0.12799 0.25276 0.0
H492 H 0.55954 0.15862 0.22891 0.0
H493 H 0.42539 0.16107 0.24063 0.0
H494 H 0.44163 0.12986 0.25989 0.0
H495 H 0.44042 0.15439 0.34791 0.0
H496 H 0.4989 0.06108 0.35131 0.0
H497 H 0.49939 0.11916 0.565 0.0
H498 H 0.50596 0.10571 0.17111 0.0
H499 H 0.47195 0.09803 0.18803 0.0
H500 H 0.49658 0.07255 0.19957 0.0
H501 H 0.511 0.17395 0.43975 0.0
H502 H 0.49463 0.16427 0.54143 0.0
H503 H 0.47577 0.17267 0.44301 0.0
C504 C 0.38882 0.47819 0.17188 0.0
C505 C 0.36652 0.49462 0.16334 0.0
C506 C 0.4078 0.4823 0.24042 0.0
C507 C 0.40474 0.5035 0.30361 0.0
C508 C 0.3818 0.51969 0.29749 0.0
C509 C 0.36318 0.51528 0.22729 0.0
C510 C 0.43189 0.46465 0.24227 0.0
C511 C 0.37762 0.54256 0.36268 0.0
C512 C 0.45244 0.504 0.50749 0.0
C513 C 0.47229 0.52127 0.47915 0.0
C514 C 0.42971 0.499 0.45372 0.0
C515 C 0.42711 0.51064 0.36764 0.0
C516 C 0.44707 0.52821 0.33967 0.0
C517 C 0.46907 0.53329 0.39533 0.0
C518 C 0.40876 0.48078 0.48833 0.0
C519 C 0.44606 0.54085 0.24855 0.0
H520 H 0.39189 0.46242 0.12244 0.0
H521 H 0.34636 0.52842 0.22135 0.0
H522 H 0.44977 0.47645 0.22812 0.0
H523 H 0.43441 0.45621 0.31004 0.0
H524 H 0.43074 0.44814 0.19199 0.0
H525 H 0.3576 0.55137 0.35656 0.0
H526 H 0.38054 0.53602 0.4328 0.0
H527 H 0.39244 0.55813 0.3499 0.0
H528 H 0.45483 0.49412 0.57098 0.0
H529 H 0.48426 0.54649 0.37181 0.0
H530 H 0.40957 0.46171 0.45019 0.0
H531 H 0.38885 0.48944 0.47803 0.0
H532 H 0.4114 0.47676 0.561 0.0
H533 H 0.45295 0.5263 0.19672 0.0
H534 H 0.45889 0.55852 0.24604 0.0
H535 H 0.42574 0.54695 0.23051 0.0
C536 C 0.04354 0.36136 0.23424 0.0
C537 C 0.05586 0.36871 0.15356 0.0
C538 C 0.03822 0.3803 0.30446 0.0
C539 C 0.04593 0.4072 0.29572 0.0
C540 C 0.05906 0.41434 0.21552 0.0
C541 C 0.06371 0.39525 0.14645 0.0
C542 C 0.02393 0.37165 0.38776 0.0
C543 C 0.0684 0.4423 0.20235 0.0
C544 C 1.01044 0.46533 0.41596 0.0
C545 C 0.02706 0.47167 0.48899 0.0
C546 C 1.01562 0.44375 0.35663 0.0
C547 C 0.03885 0.42832 0.36661 0.0
C548 C 0.05586 0.43458 0.44051 0.0
C549 C 0.04954 0.45576 0.50156 0.0
C550 C 0.99647 0.4381 0.28093 0.0
C551 C 0.08132 0.41957 0.4531 0.0
H552 H 0.03795 0.3409 0.24247 0.0
H553 H 0.07388 0.40111 0.08595 0.0
H554 H 0.03591 0.3763 0.44847 0.0
H555 H 1.00511 0.38281 0.39492 0.0
H556 H 0.01955 0.35015 0.38601 0.0
H557 H 0.0791 0.44456 0.13778 0.0
H558 H 0.05134 0.45611 0.20333 0.0
H559 H 0.08169 0.44834 0.25841 0.0
H560 H 0.99324 0.47761 0.40442 0.0
H561 H 0.06289 0.46069 0.55632 0.0
H562 H 0.99193 0.41666 0.2766 0.0
H563 H 1.00545 0.44367 0.21606 0.0
H564 H 0.97769 0.44927 0.28951 0.0
H565 H 0.07701 0.39859 0.46729 0.0
H566 H 0.09338 0.42794 0.50917 0.0
H567 H 0.09317 0.41985 0.39038 0.0
C568 C 0.85622 0.0243 0.10703 0.0
C569 C 0.85114 1.00175 0.15792 0.0
C570 C 0.87924 0.02683 0.05469 0.0
C571 C 0.89852 1.00645 0.05281 0.0
C572 C 0.89452 0.98422 0.1084 0.0
C573 C 0.8708 0.9819 0.15906 0.0
C574 C 0.88189 0.05071 0.9962 0.0
C575 C 0.91455 0.96207 0.10962 0.0
C576 C 0.94004 1.00092 0.83594 0.0
C577 C 0.96381 1.01327 0.86061 0.0
C578 C 0.91916 0.99792 0.89801 0.0
C579 C 0.92163 1.00779 0.98786 0.0
C580 C 0.94572 0.02012 0.01342 0.0
C581 C 0.96652 0.02231 0.95032 0.0
C582 C 0.8943 0.98418 0.867 0.0
C583 C 0.94941 0.03142 0.10728 0.0
H584 H 0.84112 0.03946 0.103 0.0
H585 H 0.86707 0.96396 0.19553 0.0
H586 H 0.90179 0.05952 1.0037 0.0
H587 H 0.87946 0.04458 0.92459 0.0
H588 H 0.86687 0.06613 0.01246 0.0
H589 H 0.91163 0.94898 0.16781 0.0
H590 H 0.91275 0.94996 0.04686 0.0
H591 H 0.93491 0.97003 0.11168 0.0
H592 H 0.93789 0.99309 0.76809 0.0
H593 H 0.98473 0.03176 0.97094 0.0
H594 H 0.87707 0.99756 0.87621 0.0
H595 H 0.89083 0.96656 0.90856 0.0
H596 H 0.89528 0.97776 0.79515 0.0
H597 H 0.93354 0.04598 0.12299 0.0
H598 H 0.96879 0.04134 0.11599 0.0
H599 H 0.9479 1.0154 0.15691 0.0
C600 C 0.56552 0.86082 0.10039 0.0
C601 C 0.54682 0.86136 0.17029 0.0
C602 C 0.5676 0.88191 0.03952 0.0
C603 C 0.55038 0.90405 0.04751 0.0
C604 C 0.53276 0.9054 0.1216 0.0
C605 C 0.53119 0.88418 0.18161 0.0
C606 C 0.58758 0.88015 0.96456 0.0
C607 C 0.51472 0.92892 0.1356 0.0
C608 C 0.56144 0.96756 0.91279 0.0
C609 C 0.54233 0.96516 0.84472 0.0
C610 C 0.56504 0.94764 0.97723 0.0
C611 C 0.54898 0.92463 0.975 0.0
C612 C 0.53027 0.92178 0.90448 0.0
C613 C 0.52693 0.94207 0.84166 0.0
C614 C 0.58673 0.9515 0.04527 0.0
C615 C 0.51362 0.89718 0.89522 0.0
H616 H 0.57774 0.84339 0.09078 0.0
H617 H 0.51678 0.88496 0.2354 0.0
H618 H 0.57731 0.87986 0.89856 0.0
H619 H 0.6004 0.89789 0.9668 0.0
H620 H 0.60022 0.86222 0.96884 0.0
H621 H 0.5038 0.92813 0.20025 0.0
H622 H 0.52632 0.94748 0.13462 0.0
H623 H 0.50018 0.92966 0.07982 0.0
H624 H 0.57373 0.98505 0.91594 0.0
H625 H 0.51169 0.93994 0.79104 0.0
H626 H 0.60602 0.94919 1.01076 0.0
H627 H 0.58596 0.93716 0.10052 0.0
H628 H 0.58598 0.97202 0.07329 0.0
H629 H 0.52645 0.87934 0.89425 0.0
H630 H 0.50148 0.89699 0.83293 0.0
H631 H 0.50027 0.89575 0.954 0.0
C632 C 0.68899 0.55443 0.06966 0.0
C633 C 0.6826 0.56116 0.15943 0.0
C634 C 0.66905 0.5494 1.00423 0.0
C635 C 0.64193 0.55203 0.02765 0.0
C636 C 0.63554 0.55943 0.11771 0.0
C637 C 0.65575 0.56368 0.18176 0.0
C638 C 0.67699 0.54105 0.91006 0.0
C639 C 0.60722 0.56299 0.14722 0.0
C640 C 0.58857 0.55898 0.84286 0.0
C641 C 0.5755 0.53459 0.84725 0.0
C642 C 0.61011 0.56508 0.90082 0.0
C643 C 0.62012 0.54571 0.96044 0.0
C644 C 0.60766 0.52066 0.96115 0.0
C645 C 0.58487 0.51605 0.90872 0.0
C646 C 0.62098 0.5928 0.90246 0.0
C647 C 0.61805 0.4987 0.01875 0.0
H648 H 0.70958 0.5532 0.05046 0.0
H649 H 0.65047 0.56956 0.24995 0.0
H650 H 0.66664 0.52255 0.89002 0.0
H651 H 0.67102 0.55643 0.86189 0.0
H652 H 0.6986 0.53777 0.90383 0.0
H653 H 0.60568 0.5738 0.21286 0.0
H654 H 0.59572 0.57392 0.0963 0.0
H655 H 0.59795 0.54334 0.15467 0.0
H656 H 0.58087 0.5739 0.79841 0.0
H657 H 0.57439 0.49755 0.91526 0.0
H658 H 0.64242 0.59243 0.88792 0.0
H659 H 0.61843 0.60177 0.97074 0.0
H660 H 0.611 0.60568 0.8531 0.0
H661 H 0.63984 0.49716 0.01274 0.0
H662 H 0.60931 0.47927 0.99963 0.0
H663 H 0.61334 0.503 0.09036 0.0
C664 C 0.01788 0.68852 0.10411 0.0
C665 C 0.99434 0.69175 0.1534 0.0
C666 C 0.0225 0.66596 0.04797 0.0
C667 C 1.0032 0.64576 0.03987 0.0
C668 C 0.98046 0.64776 0.09551 0.0
C669 C 0.97649 0.6704 0.15188 0.0
C670 C 0.0472 0.66485 0.99162 0.0
C671 C 0.95929 0.62683 0.09068 0.0
C672 C 0.99699 0.60437 0.81943 0.0
C673 C 1.00939 0.58048 0.84113 0.0
C674 C 0.99577 0.62595 0.88172 0.0
C675 C 1.00605 0.6234 0.97029 0.0
C676 C 0.01833 0.5991 0.99259 0.0
C677 C 0.02008 0.57819 0.9279 0.0
C678 C 0.98264 0.65126 0.85334 0.0
C679 C 0.02916 0.59494 0.0857 0.0
H680 H 0.03166 0.70484 0.10281 0.0
H681 H 0.95803 0.67258 0.18807 0.0
H682 H 0.05652 0.64499 0.99456 0.0
H683 H 0.04198 0.66839 0.92038 0.0
H684 H 0.06182 0.67996 0.01362 0.0
H685 H 0.94337 0.63047 0.14079 0.0
H686 H 0.95035 0.62632 0.02246 0.0
H687 H 0.96798 0.60701 0.10211 0.0
H688 H 0.98783 0.60606 0.75388 0.0
H689 H 0.02896 0.55954 0.94641 0.0
H690 H 0.99589 0.6683 0.86663 0.0
H691 H 0.96444 0.65462 0.89348 0.0
H692 H 0.97733 0.65084 0.78079 0.0
H693 H 0.04632 0.60814 0.0972 0.0
H694 H 0.03542 0.57413 0.09557 0.0
H695 H 1.01417 0.6002 0.13741 0.0
C696 C 0.09715 0.2355 0.2425 0.0
C697 C 0.07967 0.24783 0.18399 0.0
C698 C 0.08778 0.21616 0.30083 0.0
C699 C 0.06104 0.2083 0.29469 0.0
C700 C 0.04345 0.2211 0.23577 0.0
C701 C 0.05283 0.24145 0.18425 0.0
C702 C 0.10651 0.20357 0.36627 0.0
C703 C 1.01502 0.21257 0.22312 0.0
C704 C 0.03105 0.14279 0.33275 0.0
C705 C 1.0127 0.15021 0.3988 0.0
C706 C 0.05007 0.16078 0.30498 0.0
C707 C 0.05074 0.18622 0.34646 0.0
C708 C 0.03457 0.19224 0.42162 0.0
C709 C 1.01521 0.17423 0.44585 0.0
C710 C 0.06638 0.15401 0.22257 0.0
C711 C 0.03509 0.21913 0.4676 0.0
H712 H 0.11789 0.2406 0.2415 0.0
H713 H 0.03944 0.2513 0.13871 0.0
H714 H 0.09678 0.20068 0.43219 0.0
H715 H 0.11265 0.18384 0.33977 0.0
H716 H 0.12449 0.21573 0.37685 0.0
H717 H 1.00472 0.22388 0.17012 0.0
H718 H 1.01418 0.19128 0.20383 0.0
H719 H 1.00393 0.21535 0.28684 0.0
H720 H 0.02892 0.12399 0.29705 0.0
H721 H 1.00094 0.1796 0.49731 0.0
H722 H 0.08683 0.16138 0.23024 0.0
H723 H 0.05758 0.1637 0.16318 0.0
H724 H 0.06705 0.13235 0.20858 0.0
H725 H 0.05565 0.22628 0.47511 0.0
H726 H 0.02561 0.21882 0.53487 0.0
H727 H 0.02419 0.23353 0.42601 0.0
C728 C 0.31012 0.08066 0.26217 0.0
C729 C 0.31576 0.09303 0.18119 0.0
C730 C 0.33076 0.07072 0.3137 0.0
C731 C 0.3568 0.0727 0.28009 0.0
C732 C 0.36246 0.09011 0.20963 0.0
C733 C 0.3414 0.10219 0.16589 0.0
C734 C 0.32425 0.05385 0.39327 0.0
C735 C 0.38948 0.09204 0.16744 0.0
C736 C 0.4069 0.03487 0.41106 0.0
C737 C 0.40263 1.00912 0.37666 0.0
C738 C 0.39386 0.05652 0.37397 0.0
C739 C 0.37575 0.05199 0.30377 0.0
C740 C 0.3732 0.02653 0.26337 0.0
C741 C 0.3867 1.00532 0.30065 0.0
C742 C 0.39844 0.08407 0.41165 0.0
C743 C 0.35539 0.02147 0.18324 0.0
H744 H 0.29012 0.0747 0.27735 0.0
H745 H 0.34534 0.11326 0.10559 0.0
H746 H 0.32333 0.03277 0.3711 0.0
H747 H 0.33964 0.05574 0.44615 0.0
H748 H 0.30479 0.05935 0.4227 0.0
H749 H 0.39377 0.11288 0.15062 0.0
H750 H 0.40555 0.08439 0.21031 0.0
H751 H 0.38959 0.08036 0.10331 0.0
H752 H 0.41962 0.038 0.46883 0.0
H753 H 0.38441 0.98565 0.2713 0.0
H754 H 0.38043 0.09107 0.44742 0.0
H755 H 0.40194 0.09823 0.35715 0.0
H756 H 0.41567 0.08481 0.45773 0.0
H757 H 0.33448 0.0222 0.20512 0.0
H758 H 0.35915 1.00181 0.15096 0.0
H759 H 0.35816 0.03693 0.1322 0.0
C760 C 0.48073 0.30716 0.1817 0.0
C761 C 0.45322 0.30429 0.18032 0.0
C762 C 0.49211 0.32946 0.22065 0.0
C763 C 0.47594 0.34697 0.2718 0.0
C764 C 0.44893 0.34122 0.28544 0.0
C765 C 0.43739 0.32061 0.23479 0.0
C766 C 0.52077 0.33504 0.19843 0.0
C767 C 0.43184 0.35802 0.34709 0.0
C768 C 0.5213 0.39761 0.37214 0.0
C769 C 0.51857 0.41755 0.30881 0.0
C770 C 0.50561 0.37496 0.36602 0.0
C771 C 0.48657 0.373 0.29676 0.0
C772 C 0.48249 0.39416 0.23719 0.0
C773 C 0.49858 0.41634 0.24447 0.0
C774 C 0.5109 0.35213 0.4277 0.0
C775 C 0.46367 0.3921 0.15848 0.0
H776 H 0.49292 0.29425 0.13978 0.0
H777 H 0.41616 0.31819 0.2341 0.0
H778 H 0.52541 0.35644 0.19804 0.0
H779 H 0.53373 0.32546 0.24838 0.0
H780 H 0.52617 0.32658 0.13132 0.0
H781 H 0.41612 0.34587 0.37752 0.0
H782 H 0.44359 0.36755 0.40179 0.0
H783 H 0.42199 0.37373 0.30823 0.0
H784 H 0.53688 0.3989 0.4221 0.0
H785 H 0.49662 0.43211 0.19648 0.0
H786 H 0.51637 0.33402 0.38909 0.0
H787 H 0.4926 0.34738 0.4649 0.0
H788 H 0.52722 0.35639 0.47556 0.0
H789 H 0.47043 0.3762 0.1112 0.0
H790 H 0.46222 0.4109 0.12142 0.0
H791 H 0.44364 0.38691 0.18136 0.0
C792 C 0.22801 0.44037 0.19537 0.0
C793 C 0.25202 0.4539 0.20452 0.0
C794 C 0.20543 0.45084 0.23715 0.0
C795 C 0.20825 0.47295 0.29604 0.0
C796 C 0.23352 0.48052 0.32656 0.0
C797 C 0.25552 0.47036 0.281 0.0
C798 C 0.17868 0.44192 0.20402 0.0
C799 C 0.23715 0.50315 0.39322 0.0
C800 C 0.16428 0.53082 0.24344 0.0
C801 C 0.1444 0.52838 0.30772 0.0
C802 C 0.18496 0.5126 0.23842 0.0
C803 C 0.18664 0.49237 0.303 0.0
C804 C 0.16765 0.49068 0.37154 0.0
C805 C 0.14619 0.50805 0.37107 0.0
C806 C 0.20446 0.51466 0.16207 0.0
C807 C 0.16942 0.47011 0.44366 0.0
H808 H 0.22571 0.42586 0.14121 0.0
H809 H 0.27441 0.47955 0.29449 0.0
H810 H 0.16383 0.44291 0.25863 0.0
H811 H 0.17198 0.45524 0.14999 0.0
H812 H 0.17944 0.42143 0.17575 0.0
H813 H 0.25725 0.50308 0.42305 0.0
H814 H 0.23432 0.52217 0.35834 0.0
H815 H 0.22233 0.50231 0.44796 0.0
H816 H 0.16352 0.54671 0.19574 0.0
H817 H 0.13062 0.50509 0.41953 0.0
H818 H 0.20361 0.49646 0.11928 0.0
H819 H 0.22484 0.51656 0.18851 0.0
H820 H 0.20033 0.53187 0.1189 0.0
H821 H 0.16207 0.45093 0.41649 0.0
H822 H 0.15732 0.47572 0.50341 0.0
H823 H 0.19011 0.46711 0.46579 0.0
C824 C 0.99112 0.82029 0.16707 0.0
C825 C 0.96489 0.81207 0.15777 0.0
C826 C 1.00198 0.83804 0.10842 0.0
C827 C 0.98661 0.84658 0.03504 0.0
C828 C 0.96087 0.8366 0.02033 0.0
C829 C 0.94997 0.8195 0.08346 0.0
C830 C 0.02939 0.84856 0.12834 0.0
C831 C 0.94485 0.84454 0.93973 0.0
C832 C 1.01361 0.91235 0.98491 0.0
C833 C 0.03532 0.90438 0.93302 0.0
C834 C 0.99469 0.89393 1.00969 0.0
C835 C 0.99757 0.86736 0.97924 0.0
C836 C 1.01743 0.86026 0.91652 0.0
C837 C 0.03661 0.87885 0.89574 0.0
C838 C 0.97453 0.90196 0.08011 0.0
C839 C 0.0206 0.83225 0.88119 0.0
H840 H 1.00289 0.81357 0.22324 0.0
H841 H 0.92995 0.81237 0.07576 0.0
H842 H 0.04288 0.84378 0.07166 0.0
H843 H 0.02875 0.8704 0.13695 0.0
H844 H 0.03802 0.8402 0.19042 0.0
H845 H 0.92657 0.83266 0.93243 0.0
H846 H 0.93929 0.86572 0.94625 0.0
H847 H 0.95676 0.8422 0.87745 0.0
H848 H 1.01286 0.93225 0.01355 0.0
H849 H 0.05329 0.87309 0.854 0.0
H850 H 0.98145 0.89542 0.14705 0.0
H851 H 0.95525 0.89242 0.06662 0.0
H852 H 0.97163 0.92375 0.08373 0.0
H853 H 0.03209 0.82062 0.93029 0.0
H854 H 0.03143 0.83164 0.81624 0.0
H855 H 1.00116 0.82256 0.87183 0.0
C856 C 0.71178 0.94211 0.17612 0.0
C857 C 0.73762 0.95183 0.16963 0.0
C858 C 0.69125 0.95429 0.12905 0.0
C859 C 0.69742 0.97481 0.06965 0.0
C860 C 0.72396 0.98005 0.04756 0.0
C861 C 0.74394 0.96802 0.09708 0.0
C862 C 0.66305 0.94835 0.15392 0.0
C863 C 0.73128 1.00169 0.98357 0.0
C864 C 0.64655 1.01256 0.93858 0.0
C865 C 0.64454 0.03575 0.99128 0.0
C866 C 0.66298 0.99185 0.9648 0.0
C867 C 0.6771 0.9944 0.04637 0.0
C868 C 0.67369 1.01709 0.10291 0.0
C869 C 0.65748 0.03763 0.07415 0.0
C870 C 0.66649 0.96815 0.90256 0.0
C871 C 0.68812 0.02033 0.19161 0.0
H872 H 0.707 0.92873 0.22975 0.0
H873 H 0.76395 0.97507 0.08891 0.0
H874 H 0.65529 0.9645 0.19833 0.0
H875 H 0.65038 0.94743 0.09312 0.0
H876 H 0.66137 0.92945 0.19018 0.0
H877 H 0.75198 0.99961 0.95994 0.0
H878 H 0.71798 1.00173 0.92429 0.0
H879 H 0.72927 0.02118 0.01872 0.0
H880 H 0.6362 1.01107 0.87487 0.0
H881 H 0.65527 0.05539 0.11568 0.0
H882 H 0.66647 0.94954 0.94075 0.0
H883 H 0.68585 0.9695 0.86822 0.0
H884 H 0.65083 0.96708 0.85028 0.0
H885 H 0.68519 1.00271 0.23363 0.0
H886 H 0.68145 0.03813 0.2305 0.0
H887 H 0.70961 0.02215 0.17917 0.0
C888 C 0.58111 0.75699 0.06559 0.0
C889 C 0.59765 0.75202 0.13937 0.0
C890 C 0.57193 0.73596 0.0118 0.0
C891 C 0.57969 0.71005 0.03361 0.0
C892 C 0.60122 0.70605 0.09254 0.0
C893 C 0.6109 0.72767 0.1424 0.0
C894 C 0.55001 0.74103 0.94549 0.0
C895 C 0.61013 0.67861 0.11742 0.0
C896 C 0.52582 0.66227 0.08724 0.0
C897 C 0.53032 0.64238 0.02254 0.0
C898 C 0.54094 0.68517 0.08862 0.0
C899 C 0.56052 0.68847 0.02157 0.0
C900 C 0.56333 0.66965 0.95076 0.0
C901 C 0.54837 0.64649 0.95271 0.0
C902 C 0.53708 0.70479 0.16581 0.0
C903 C 0.58312 0.67313 0.87621 0.0
H904 H 0.57161 0.77611 0.0593 0.0
H905 H 0.62486 0.72424 0.19631 0.0
H906 H 0.54941 0.72558 0.89145 0.0
H907 H 0.53081 0.74091 0.9813 0.0
H908 H 0.55229 0.76071 0.91468 0.0
H909 H 0.62956 0.6789 0.15206 0.0
H910 H 0.59545 0.66996 0.16368 0.0
H911 H 0.61146 0.66546 0.05703 0.0
H912 H 0.51112 0.65942 0.13905 0.0
H913 H 0.55169 0.63115 0.90189 0.0
H914 H 0.53374 0.72496 0.14018 0.0
H915 H 0.55505 0.70527 0.20834 0.0
H916 H 0.52011 0.69964 0.20933 0.0
H917 H 0.58433 0.69411 0.85631 0.0
H918 H 0.57809 0.66079 0.81595 0.0
H919 H 0.60293 0.66702 0.89991 0.0
C920 C 0.80204 0.58172 0.02791 0.0
C921 C 0.80351 0.59771 0.10612 0.0
C922 C 0.82511 0.57489 0.98124 0.0
C923 C 0.84948 0.58382 0.01607 0.0
C924 C 0.84993 0.60514 0.07921 0.0
C925 C 0.82623 0.61305 0.11997 0.0
C926 C 0.82379 0.55407 0.90743 0.0
C927 C 0.8756 0.6159 0.11619 0.0
C928 C 0.89651 0.52988 0.08269 0.0
C929 C 0.91856 0.53543 0.03022 0.0
C930 C 0.87354 0.54494 0.07611 0.0
C931 C 0.87231 0.56559 0.0128 0.0
C932 C 0.89373 0.56991 0.95434 0.0
C933 C 0.91688 0.55501 0.96468 0.0
C934 C 0.85129 0.53954 0.14091 0.0
C935 C 0.89282 0.59085 0.88353 0.0
H936 H 0.78417 0.57092 0.01197 0.0
H937 H 0.82676 0.62711 0.17601 0.0
H938 H 0.84089 0.55544 0.86129 0.0
H939 H 0.82399 0.53417 0.9376 0.0
H940 H 0.80525 0.55601 0.86819 0.0
H941 H 0.87248 0.63247 0.16527 0.0
H942 H 0.88669 0.6 0.15052 0.0
H943 H 0.88809 0.62294 0.06054 0.0
H944 H 0.89747 0.5141 0.13092 0.0
H945 H 0.93388 0.5593 0.92336 0.0
H946 H 0.8329 0.53485 0.10355 0.0
H947 H 0.84754 0.55735 0.18373 0.0
H948 H 0.85572 0.5228 0.18589 0.0
H949 H 0.87247 0.59412 0.8584 0.0
H950 H 0.90572 0.5854 0.82561 0.0
H951 H 0.90018 0.60976 0.91281 0.0
C952 C 0.03894 0.2198 0.94117 0.0
C953 C 0.05767 0.23712 0.90508 0.0
C954 C 0.03484 0.19395 0.90505 0.0
C955 C 0.04914 0.18486 0.82804 0.0
C956 C 0.06729 0.2027 0.78874 0.0
C957 C 0.07177 0.22811 0.8288 0.0
C958 C 1.01613 0.1758 0.9527 0.0
C959 C 0.08228 0.19486 0.70465 0.0
C960 C 0.05469 0.10979 0.7627 0.0
C961 C 0.03051 0.10481 0.71915 0.0
C962 C 0.06069 0.13514 0.80206 0.0
C963 C 0.04392 0.15736 0.78683 0.0
C964 C 0.02144 0.15314 0.73212 0.0
C965 C 1.01455 0.12729 0.70309 0.0
C966 C 0.08444 0.13777 0.86259 0.0
C967 C 1.00481 0.17615 0.7019 0.0
H968 H 0.02864 0.22587 1.00201 0.0
H969 H 0.08705 0.24066 0.80213 0.0
H970 H 1.0002 0.16917 0.90644 0.0
H971 H 0.02693 0.15785 0.97422 0.0
H972 H 1.00692 0.18545 0.01277 0.0
H973 H 0.09584 0.21067 0.68265 0.0
H974 H 0.09401 0.17668 0.71574 0.0
H975 H 0.06816 0.19034 0.64937 0.0
H976 H 0.06919 0.09432 0.7639 0.0
H977 H 0.99652 0.12498 0.66464 0.0
H978 H 0.07776 0.13684 0.93352 0.0
H979 H 0.09447 0.15702 0.85544 0.0
H980 H 0.09895 0.12165 0.84968 0.0
H981 H 0.99573 0.1865 0.76061 0.0
H982 H 0.98886 0.16991 0.65492 0.0
H983 H 0.01753 0.19067 0.66777 0.0
C984 C 0.32456 0.03713 0.83832 0.0
C985 C 0.31729 0.06225 0.872 0.0
C986 C 0.34968 0.03264 0.79809 0.0
C987 C 0.36926 0.05289 0.8011 0.0
C988 C 0.36156 0.07837 0.83332 0.0
C989 C 0.33523 0.08315 0.85897 0.0
C990 C 0.355 1.00588 0.7553 0.0
C991 C 0.38118 0.10066 0.8452 0.0
C992 C 0.44124 0.02744 0.78609 0.0
C993 C 0.45086 0.04017 0.70979 0.0
C994 C 0.41536 0.03227 0.81905 0.0
C995 C 0.39742 0.04813 0.76953 0.0
C996 C 0.40688 0.06024 0.69067 0.0
C997 C 0.43333 0.05657 0.66327 0.0
C998 C 0.40721 0.01998 0.90627 0.0
C999 C 0.38892 0.07549 0.62968 0.0
H1000 H 0.31125 0.02068 0.84723 0.0
H1001 H 0.33001 0.10274 0.88451 0.0
H1002 H 0.37294 1.00547 0.71263 0.0
H1003 H 0.35703 0.99096 0.80857 0.0
H1004 H 0.33789 0.9998 0.71308 0.0
H1005 H 0.37543 0.11408 0.90205 0.0
H1006 H 0.40146 0.09331 0.85829 0.0
H1007 H 0.38153 0.11263 0.78353 0.0
H1008 H 0.45339 1.01276 0.81789 0.0
H1009 H 0.43996 0.06559 0.6017 0.0
H1010 H 0.39511 1.00222 0.8918 0.0
H1011 H 0.39523 0.03406 0.9477 0.0
H1012 H 0.4245 1.01359 0.94626 0.0
H1013 H 0.38348 0.06224 0.57247 0.0
H1014 H 0.39931 0.09306 0.60392 0.0
H1015 H 0.37022 0.08227 0.66062 0.0
C1016 C 0.455 0.33412 0.8545 0.0
C1017 C 0.4735 0.31686 0.89334 0.0
C1018 C 0.46238 0.35867 0.81873 0.0
C1019 C 0.48927 0.36628 0.81797 0.0
C1020 C 0.50839 0.34801 0.84987 0.0
C1021 C 0.50032 0.3238 0.88825 0.0
C1022 C 0.44109 0.37709 0.78577 0.0
C1023 C 0.53734 0.35466 0.84778 0.0
C1024 C 0.50752 0.42598 0.67222 0.0
C1025 C 0.5082 0.44687 0.73546 0.0
C1026 C 0.50145 0.39987 0.69793 0.0
C1027 C 0.49689 0.39395 0.78953 0.0
C1028 C 0.49816 0.41502 0.85387 0.0
C1029 C 0.50358 0.44102 0.82625 0.0
C1030 C 0.49993 0.37867 0.62632 0.0
C1031 C 0.49298 0.41022 0.95197 0.0
H1032 H 0.43425 0.32913 0.85761 0.0
H1033 H 0.5149 0.3111 0.91894 0.0
H1034 H 0.4426 0.39663 0.82071 0.0
H1035 H 0.44366 0.38041 0.7128 0.0
H1036 H 0.42097 0.36916 0.79682 0.0
H1037 H 0.54991 0.33697 0.85874 0.0
H1038 H 0.54271 0.3634 0.78241 0.0
H1039 H 0.54175 0.36957 0.9014 0.0
H1040 H 0.51101 0.43016 0.60198 0.0
H1041 H 0.50441 0.45685 0.87638 0.0
H1042 H 0.48245 0.36591 0.63534 0.0
H1043 H 0.51774 0.36593 0.63066 0.0
H1044 H 0.4988 0.3875 0.55883 0.0
H1045 H 0.47273 0.40235 0.95979 0.0
H1046 H 0.49493 0.42849 0.99419 0.0
H1047 H 0.50688 0.39511 0.97741 0.0
C1048 C 0.22381 0.5178 0.93267 0.0
C1049 C 0.23813 0.49434 0.91617 0.0
C1050 C 0.19844 0.52188 0.89478 0.0
C1051 C 0.18685 0.50216 0.83791 0.0
C1052 C 0.20194 0.47915 0.81669 0.0
C1053 C 0.2271 0.47549 0.85621 0.0
C1054 C 0.18327 0.5466 0.92059 0.0
C1055 C 0.1908 0.45752 0.75658 0.0
C1056 C 0.11084 0.49907 0.8307 0.0
C1057 C 0.10452 0.51101 0.74868 0.0
C1058 C 0.13728 0.4956 0.85922 0.0
C1059 C 0.15846 0.50479 0.80584 0.0
C1060 C 0.15229 0.51676 0.72273 0.0
C1061 C 0.12565 0.51966 0.69537 0.0
C1062 C 0.14252 0.48208 0.94719 0.0
C1063 C 0.17385 0.52693 0.66292 0.0
H1064 H 0.23158 0.53212 0.98091 0.0
H1065 H 0.23751 0.45696 0.84484 0.0
H1066 H 0.17488 0.55589 0.85987 0.0
H1067 H 0.16653 0.54138 0.96478 0.0
H1068 H 0.19578 0.56129 0.95698 0.0
H1069 H 0.20544 0.44161 0.74198 0.0
H1070 H 0.17338 0.44863 0.7893 0.0
H1071 H 0.18399 0.46579 0.69199 0.0
H1072 H 0.09515 0.49271 0.87397 0.0
H1073 H 0.12142 0.52901 0.63198 0.0
H1074 H 0.15283 0.49581 0.99444 0.0
H1075 H 0.15566 0.46474 0.93581 0.0
H1076 H 0.12409 0.47525 0.97965 0.0
H1077 H 0.18409 0.54358 0.69767 0.0
H1078 H 0.16611 0.53391 0.59754 0.0
H1079 H 0.18876 0.51124 0.64946 0.0
C1080 C 1.00905 0.82792 0.45409 0.0
C1081 C 0.9828 0.81908 0.44715 0.0
C1082 C 1.01537 0.85302 0.49418 0.0
C1083 C 0.99498 0.8708 0.52333 0.0
C1084 C 0.96863 0.86152 0.51902 0.0
C1085 C 0.96317 0.83569 0.48588 0.0
C1086 C 0.04394 0.86088 0.50152 0.0
C1087 C 0.94567 0.87977 0.54009 0.0
C1088 C 1.00598 0.93397 0.67153 0.0
C1089 C 1.01284 0.95353 0.60926 0.0
C1090 C 1.00058 0.90732 0.64523 0.0
C1091 C 1.00076 0.89942 0.553 0.0
C1092 C 1.00666 0.91911 0.4893 0.0
C1093 C 1.01403 0.94506 0.51845 0.0
C1094 C 0.99673 0.88716 0.71726 0.0
C1095 C 1.00654 0.9126 0.38974 0.0
H1096 H 0.02457 0.81595 0.42374 0.0
H1097 H 0.94276 0.8295 0.48083 0.0
H1098 H 0.04914 0.8737 0.4447 0.0
H1099 H 0.04766 0.87217 0.56511 0.0
H1100 H 0.05719 0.84334 0.49881 0.0
H1101 H 0.92669 0.86895 0.54358 0.0
H1102 H 0.94861 0.89078 0.60445 0.0
H1103 H 0.94409 0.89464 0.48639 0.0
H1104 H 1.00651 0.93913 0.74265 0.0
H1105 H 0.02257 0.95772 0.46999 0.0
H1106 H 1.01447 0.87426 0.71923 0.0
H1107 H 0.9797 0.87412 0.70247 0.0
H1108 H 0.99367 0.89663 0.78446 0.0
H1109 H 0.02667 0.90675 0.36797 0.0
H1110 H 1.00084 0.93001 0.35054 0.0
H1111 H 0.9927 0.89637 0.37195 0.0
C1112 C 0.71996 0.02224 0.44159 0.0
C1113 C 0.73197 0.99747 0.4541 0.0
C1114 C 0.69503 0.02859 0.48041 0.0
C1115 C 0.68107 1.00947 0.5306 0.0
C1116 C 0.6938 0.98506 0.54754 0.0
C1117 C 0.71908 0.97969 0.51116 0.0
C1118 C 0.68282 0.0552 0.46245 0.0
C1119 C 0.67956 0.96339 0.59591 0.0
C1120 C 0.61665 0.02744 0.6595 0.0
C1121 C 0.59699 0.02273 0.59393 0.0
C1122 C 0.64393 0.0233 0.64076 0.0
C1123 C 0.65213 1.01354 0.55472 0.0
C1124 C 0.63237 1.00788 0.48988 0.0
C1125 C 0.60565 1.01323 0.50968 0.0
C1126 C 0.66393 0.02995 0.71273 0.0
C1127 C 0.63933 0.99714 0.39718 0.0
H1128 H 0.72901 0.0359 0.39576 0.0
H1129 H 0.72759 0.96017 0.51918 0.0
H1130 H 0.66713 0.05296 0.41085 0.0
H1131 H 0.67353 0.06352 0.5245 0.0
H1132 H 0.69759 0.06946 0.43761 0.0
H1133 H 0.69266 0.94629 0.60985 0.0
H1134 H 0.67127 0.971 0.6604 0.0
H1135 H 0.66279 0.95631 0.5539 0.0
H1136 H 0.61077 0.03532 0.72483 0.0
H1137 H 0.59203 1.0111 0.45634 0.0
H1138 H 0.68168 0.03927 0.68367 0.0
H1139 H 0.67036 1.0115 0.74554 0.0
H1140 H 0.65559 0.04351 0.76517 0.0
H1141 H 0.64663 1.01345 0.35532 0.0
H1142 H 0.62201 0.98826 0.36257 0.0
H1143 H 0.65509 0.9819 0.40042 0.0
C1144 C 0.57785 0.72993 0.49348 0.0
C1145 C 0.55915 0.7414 0.43601 0.0
C1146 C 0.57325 0.70545 0.53476 0.0
C1147 C 0.54937 0.69166 0.51796 0.0
C1148 C 0.52982 0.70382 0.46389 0.0
C1149 C 0.53495 0.7284 0.42354 0.0
C1150 C 0.59494 0.69335 0.59035 0.0
C1151 C 0.50418 0.68993 0.44314 0.0
C1152 C 0.55041 0.61585 0.51867 0.0
C1153 C 0.53932 0.60991 0.60254 0.0
C1154 C 0.55409 0.64212 0.49134 0.0
C1155 C 0.54608 0.66349 0.54837 0.0
C1156 C 0.53486 0.65773 0.6333 0.0
C1157 C 0.5316 0.63114 0.65918 0.0
C1158 C 0.56648 0.64693 0.4007 0.0
C1159 C 0.5262 0.67967 0.69693 0.0
H1160 H 0.59697 0.73926 0.50095 0.0
H1161 H 0.5208 0.73644 0.37658 0.0
H1162 H 0.58689 0.68504 0.65303 0.0
H1163 H 0.60423 0.67682 0.5515 0.0
H1164 H 0.61048 0.70795 0.60843 0.0
H1165 H 0.48974 0.70314 0.4099 0.0
H1166 H 0.50799 0.67265 0.39775 0.0
H1167 H 0.49526 0.68238 0.50569 0.0
H1168 H 0.5557 0.59995 0.47266 0.0
H1169 H 0.52295 0.627 0.724 0.0
H1170 H 0.58432 0.65938 0.40913 0.0
H1171 H 0.55251 0.65786 0.35744 0.0
H1172 H 0.57223 0.62824 0.36514 0.0
H1173 H 0.5433 0.69234 0.71499 0.0
H1174 H 0.5175 0.67204 0.75981 0.0
H1175 H 0.51143 0.6924 0.66345 0.0
C1176 C 0.82255 0.53686 0.41011 0.0
C1177 C 0.81111 0.5622 0.40766 0.0
C1178 C 0.84696 0.53237 0.4544 0.0
C1179 C 0.86069 0.55372 0.49681 0.0
C1180 C 0.84841 0.57899 0.49908 0.0
C1181 C 0.82396 0.58283 0.45522 0.0
C1182 C 0.85896 0.50504 0.45047 0.0
C1183 C 0.86207 0.60261 0.54145 0.0
C1184 C 0.91985 0.53959 0.65325 0.0
C1185 C 0.94159 0.5432 0.59631 0.0
C1186 C 0.89362 0.54328 0.62262 0.0
C1187 C 0.88864 0.55017 0.53186 0.0
C1188 C 0.9106 0.55388 0.47421 0.0
C1189 C 0.93658 0.55048 0.50705 0.0
C1190 C 0.87119 0.53992 0.68782 0.0
C1191 C 0.90671 0.5613 0.37713 0.0
H1192 H 0.81345 0.52091 0.37159 0.0
H1193 H 0.81582 0.60266 0.45192 0.0
H1194 H 0.87651 0.50503 0.40593 0.0
H1195 H 0.86572 0.49921 0.5183 0.0
H1196 H 0.84484 0.48999 0.42436 0.0
H1197 H 0.8483 0.61952 0.55236 0.0
H1198 H 0.87114 0.59752 0.60681 0.0
H1199 H 0.87815 0.60908 0.49644 0.0
H1200 H 0.92335 0.53406 0.72233 0.0
H1201 H 0.953 0.55275 0.46154 0.0
H1202 H 0.85751 0.52445 0.66212 0.0
H1203 H 0.85978 0.55863 0.69404 0.0
H1204 H 0.87818 0.53439 0.7558 0.0
H1205 H 0.89463 0.54609 0.34162 0.0
H1206 H 0.9257 0.56331 0.34069 0.0
H1207 H 0.8958 0.58032 0.37364 0.0
loop_
_geom_bond_atom_site_label_1
_geom_bond_atom_site_label_2
_geom_bond_distance
_geom_bond_site_symmetry_2
_ccdc_geom_bond_type
H0 C7 0.929 . S
H1 C10 0.930 . S
H2 C12 0.929 . S
H3 C4 0.969 . S
C4 H3 0.969 . S
C4 O5 1.550 . S
C4 H6 0.973 . S
O5 C4 1.550 . S
O5 C11 1.412 . S
H6 C4 0.973 . S
C7 H0 0.929 . S
C7 C8 1.400 . S
C7 C9 1.364 . S
C8 C7 1.400 . S
C8 C12 1.377 . S
C9 C7 1.364 . S
C9 C10 1.374 . S
C10 H1 0.930 . S
C10 C9 1.374 . S
C10 C11 1.383 . S
C11 O5 1.412 . S
C11 C10 1.383 . S
C11 C12 1.394 . S
C12 H2 0.929 . S
C12 C8 1.377 . S
C12 C11 1.394 . S
H13 C20 0.929 . S
H14 C23 0.930 . S
H15 C25 0.929 . S
H16 C17 0.969 . S
C17 H16 0.969 . S
C17 O18 1.550 . S
C17 H19 0.973 . S
O18 C17 1.550 . S
O18 C24 1.412 . S
H19 C17 0.973 . S
C20 H13 0.929 . S
C20 C21 1.400 . S
C20 C22 1.364 . S
C21 C20 1.400 . S
C21 C25 1.377 . S
C22 C20 1.364 . S
C22 C23 1.374 . S
C23 H14 0.930 . S
C23 C22 1.374 . S
C23 C24 1.383 . S
C24 O18 1.412 . S
C24 C23 1.383 . S
C24 C25 1.394 . S
C25 H15 0.929 . S
C25 C21 1.377 . S
C25 C24 1.394 . S
H26 C33 0.929 . S
H27 C36 0.930 . S
H28 C38 0.929 . S
H29 C30 0.969 . S
C30 H29 0.969 . S
C30 O31 1.550 . S
C30 H32 0.973 . S
O31 C30 1.550 . S
O31 C37 1.412 . S
H32 C30 0.973 . S
C33 H26 0.929 . S
C33 C34 1.400 . S
C33 C35 1.364 . S
C34 C33 1.400 . S
C34 C38 1.377 . S
C35 C33 1.364 . S
C35 C36 1.374 . S
C36 H27 0.930 . S
C36 C35 1.374 . S
C36 C37 1.383 . S
C37 O31 1.412 . S
C37 C36 1.383 . S
C37 C38 1.394 . S
C38 H28 0.929 . S
C38 C34 1.377 . S
C38 C37 1.394 . S
H39 C46 0.929 . S
H40 C49 0.930 . S
H41 C51 0.929 . S
H42 C43 0.969 . S
C43 H42 0.969 . S
C43 O44 1.550 . S
C43 H45 0.973 . S
O44 C43 1.550 . S
O44 C50 1.412 . S
H45 C43 0.973 . S
C46 H39 0.929 . S
C46 C47 1.400 . S
C46 C48 1.364 . S
C47 C46 1.400 . S
C47 C51 1.377 . S
C48 C46 1.364 . S
C48 C49 1.374 . S
C49 H40 0.930 . S
C49 C48 1.374 . S
C49 C50 1.383 . S
C50 O44 1.412 . S
C50 C49 1.383 . S
C50 C51 1.394 . S
C51 H41 0.929 . S
C51 C47 1.377 . S
C51 C50 1.394 . S
H52 C59 0.929 . S
H53 C62 0.930 . S
H54 C64 0.929 . S
H55 C56 0.969 . S
C56 H55 0.969 . S
C56 O57 1.550 . S
C56 H58 0.973 . S
O57 C56 1.550 . S
O57 C63 1.412 . S
H58 C56 0.973 . S
C59 H52 0.929 . S
C59 C60 1.400 . S
C59 C61 1.364 1_556 S
C60 C59 1.400 . S
C60 C64 1.377 . S
C61 C59 1.364 1_554 S
C61 C62 1.374 . S
C62 H53 0.930 . S
C62 C61 1.374 . S
C62 C63 1.383 . S
C63 O57 1.412 . S
C63 C62 1.383 . S
C63 C64 1.394 1_554 S
C64 H54 0.929 . S
C64 C60 1.377 . S
C64 C63 1.394 1_556 S
H65 C72 0.929 . S
H66 C75 0.930 . S
H67 C77 0.929 . S
H68 C69 0.969 . S
C69 H68 0.969 . S
C69 O70 1.551 . S
C69 H71 0.973 . S
O70 C69 1.551 . S
O70 C76 1.412 . S
H71 C69 0.973 . S
C72 H65 0.929 . S
C72 C73 1.400 . S
C72 C74 1.364 1_556 S
C73 C72 1.400 . S
C73 C77 1.377 . S
C74 C72 1.364 1_554 S
C74 C75 1.374 . S
C75 H66 0.930 . S
C75 C74 1.374 . S
C75 C76 1.382 . S
C76 O70 1.412 . S
C76 C75 1.382 . S
C76 C77 1.395 1_554 S
C77 H67 0.929 . S
C77 C73 1.377 . S
C77 C76 1.395 1_556 S
H78 C85 0.929 . S
H79 C88 0.930 . S
H80 C90 0.929 . S
H81 C82 0.969 . S
C82 H81 0.969 . S
C82 O83 1.550 1_554 S
C82 H84 0.973 . S
O83 C82 1.550 1_556 S
O83 C89 1.412 . S
H84 C82 0.973 . S
C85 H78 0.929 . S
C85 C86 1.400 . S
C85 C87 1.364 1_556 S
C86 C85 1.400 . S
C86 C90 1.377 . S
C87 C85 1.364 1_554 S
C87 C88 1.374 . S
C88 H79 0.930 . S
C88 C87 1.374 . S
C88 C89 1.383 1_554 S
C89 O83 1.412 . S
C89 C88 1.383 1_556 S
C89 C90 1.394 . S
C90 H80 0.929 . S
C90 C86 1.377 . S
C90 C89 1.394 . S
H91 C98 0.929 . S
H92 C101 0.930 . S
H93 C103 0.929 . S
H94 C95 0.969 . S
C95 H94 0.969 . S
C95 O96 1.550 . S
C95 H97 0.973 . S
O96 C95 1.550 . S
O96 C102 1.412 . S
H97 C95 0.973 . S
C98 H91 0.929 . S
C98 C99 1.400 . S
C98 C100 1.364 1_556 S
C99 C98 1.400 . S
C99 C103 1.377 . S
C100 C98 1.364 1_554 S
C100 C101 1.374 . S
C101 H92 0.930 . S
C101 C100 1.374 . S
C101 C102 1.383 . S
C102 O96 1.412 . S
C102 C101 1.383 . S
C102 C103 1.394 1_554 S
C103 H93 0.929 . S
C103 C99 1.377 . S
C103 C102 1.394 1_556 S
Eu104 N135 2.657 1_565 S
Eu104 N142 2.599 1_565 S
Eu104 O148 2.558 . S
Eu104 O149 2.612 1_455 S
Eu104 O151 2.339 1_455 S
Eu104 O152 2.563 . S
Eu104 O153 2.419 . S
Eu104 O155 2.380 1_565 S
Eu104 O156 2.432 . S
Eu104 C168 2.848 . S
C105 C108 1.429 1_545 S
C105 C109 1.408 1_545 S
C105 N112 1.377 . S
C106 C108 1.420 . S
C106 C110 1.423 . S
C106 C118 1.392 . S
C107 C109 1.430 . S
C107 C110 1.351 . S
C107 H130 0.931 . S
C108 C105 1.429 1_565 S
C108 C106 1.420 . S
C108 N116 1.370 . S
C109 C105 1.408 1_565 S
C109 C107 1.430 . S
C109 C114 1.388 1_565 S
C110 C106 1.423 . S
C110 C107 1.351 . S
C110 H122 0.930 . S
C111 C113 1.400 . S
C111 C114 1.386 . S
C111 H123 0.930 . S
N112 C105 1.377 . S
N112 C113 1.321 . S
N112 Eu115 2.609 . S
C113 C111 1.400 . S
C113 N112 1.321 . S
C113 H120 0.930 . S
C114 C109 1.388 1_545 S
C114 C111 1.386 . S
C114 H133 0.930 . S
Eu115 N112 2.609 . S
Eu115 N116 2.637 1_545 S
Eu115 O149 2.380 1_545 S
Eu115 O150 2.432 . S
Eu115 O154 2.558 . S
Eu115 O155 2.612 1_655 S
Eu115 O157 2.339 1_655 S
Eu115 O158 2.563 1_655 S
Eu115 O159 2.419 . S
Eu115 C179 2.848 . S
N116 C108 1.370 . S
N116 Eu115 2.637 1_565 S
N116 C117 1.348 1_655 S
C117 N116 1.348 1_455 S
C117 C119 1.413 . S
C117 H124 0.929 . S
C118 C106 1.392 . S
C118 C119 1.367 1_655 S
C118 H126 0.930 . S
C119 C117 1.413 . S
C119 C118 1.367 1_455 S
C119 H121 0.930 . S
H120 C113 0.930 . S
H121 C119 0.930 . S
H122 C110 0.930 . S
H123 C111 0.930 . S
H124 C117 0.929 . S
H125 C139 0.930 1_654 S
H126 C118 0.930 . S
H127 C145 0.930 . S
H128 C136 0.929 1_655 S
H129 C143 0.930 . S
H130 C107 0.931 . S
H131 C137 0.930 . S
H132 C170 0.930 . S
H133 C114 0.930 . S
H134 C169 0.931 . S
N135 Eu104 2.657 1_545 S
N135 C136 1.334 . S
N135 C140 1.362 . S
C136 H128 0.929 1_455 S
C136 N135 1.334 . S
C136 C139 1.413 . S
C137 H131 0.930 . S
C137 C138 1.392 . S
C137 C139 1.367 1_554 S
C138 C137 1.392 . S
C138 C140 1.420 1_554 S
C138 C170 1.423 . S
C139 H125 0.930 1_456 S
C139 C136 1.413 . S
C139 C137 1.367 1_556 S
C140 N135 1.362 . S
C140 C138 1.420 1_556 S
C140 C144 1.429 . S
H141 C146 0.930 . S
N142 Eu104 2.599 1_545 S
N142 C144 1.400 . S
N142 C145 1.304 1_545 S
C143 H129 0.930 . S
C143 C145 1.400 . S
C143 C146 1.386 1_565 S
C144 C140 1.429 . S
C144 N142 1.400 . S
C144 C147 1.411 . S
C145 H127 0.930 . S
C145 N142 1.304 1_565 S
C145 C143 1.400 . S
C146 H141 0.930 . S
C146 C143 1.386 1_545 S
C146 C147 1.395 . S
C147 C144 1.411 . S
C147 C146 1.395 . S
C147 C169 1.420 1_556 S
O148 Eu104 2.558 . S
O148 C168 1.257 . S
O149 Eu104 2.612 1_655 S
O149 Eu115 2.380 1_565 S
O149 C160 1.276 . S
O150 Eu115 2.432 . S
O150 C167 1.264 . S
O151 Eu104 2.339 1_655 S
O151 C167 1.254 1_565 S
O152 Eu104 2.563 . S
O152 C160 1.235 1_455 S
O153 Eu104 2.419 . S
O153 C168 1.249 . S
O154 Eu115 2.558 . S
O154 C179 1.257 . S
O155 Eu104 2.380 1_545 S
O155 Eu115 2.612 1_455 S
O155 C171 1.276 . S
O156 Eu104 2.432 . S
O156 C178 1.264 1_565 S
O157 Eu115 2.339 1_455 S
O157 C178 1.254 . S
O158 Eu115 2.563 1_455 S
O158 C171 1.235 . S
O159 Eu115 2.419 . S
O159 C179 1.249 . S
C160 O149 1.276 . S
C160 O152 1.235 1_655 S
C161 C163 1.393 . S
C161 C165 1.395 . S
C161 C168 1.492 . S
C162 C163 1.392 . S
C162 C164 1.386 . S
C163 C161 1.393 . S
C163 C162 1.392 . S
C163 H180 0.959 . S
C164 C162 1.386 . S
C164 C166 1.395 . S
C164 H181 0.930 1_556 S
C165 C161 1.395 . S
C165 C166 1.379 . S
C165 H182 0.930 . S
C166 C164 1.395 . S
C166 C165 1.379 . S
C166 H183 0.930 . S
C167 O150 1.264 . S
C167 O151 1.254 1_545 S
C168 Eu104 2.848 . S
C168 O148 1.257 . S
C168 O153 1.249 . S
C168 C161 1.492 . S
C169 H134 0.931 . S
C169 C147 1.420 1_554 S
C169 C170 1.351 . S
C170 H132 0.930 . S
C170 C138 1.423 . S
C170 C169 1.351 . S
C171 O155 1.276 . S
C171 O158 1.235 . S
C172 C173 1.393 . S
C172 C176 1.395 . S
C172 C179 1.492 . S
C173 C172 1.393 . S
C173 C174 1.392 . S
C173 H184 0.930 1_655 S
C174 C173 1.392 . S
C174 C175 1.386 . S
C175 C174 1.386 . S
C175 C177 1.395 . S
C175 H185 0.930 . S
C176 C172 1.395 . S
C176 C177 1.379 . S
C176 H186 0.930 . S
C177 C175 1.395 . S
C177 C176 1.379 . S
C177 H187 0.930 . S
C178 O156 1.264 1_545 S
C178 O157 1.254 . S
C179 Eu115 2.848 . S
C179 O154 1.257 . S
C179 O159 1.249 . S
C179 C172 1.492 . S
H180 C163 0.959 . S
H181 C164 0.930 1_554 S
H182 C165 0.930 . S
H183 C166 0.930 . S
H184 C173 0.930 1_455 S
H185 C175 0.930 . S
H186 C176 0.930 . S
H187 C177 0.930 . S
Eu188 N219 2.657 . S
Eu188 N226 2.609 . S
Eu188 O232 2.558 . S
Eu188 O233 2.612 1_545 S
Eu188 O235 2.339 1_545 S
Eu188 O236 2.563 . S
Eu188 O237 2.419 . S
Eu188 O239 2.380 . S
Eu188 O240 2.432 . S
Eu188 C252 2.848 . S
C189 C192 1.429 . S
C189 C193 1.411 . S
C189 N196 1.377 . S
C190 C192 1.420 . S
C190 C194 1.423 . S
C190 C202 1.392 . S
C191 C193 1.420 . S
C191 C194 1.351 . S
C191 H214 0.931 . S
C192 C189 1.429 . S
C192 C190 1.420 . S
C192 N200 1.362 . S
C193 C189 1.411 . S
C193 C191 1.420 . S
C193 C198 1.395 . S
C194 C190 1.423 . S
C194 C191 1.351 . S
C194 H206 0.930 . S
C195 C197 1.400 . S
C195 C198 1.386 . S
C195 H207 0.930 . S
N196 C189 1.377 . S
N196 C197 1.321 . S
N196 Eu199 2.609 . S
C197 C195 1.400 . S
C197 N196 1.321 . S
C197 H204 0.930 . S
C198 C193 1.395 . S
C198 C195 1.386 . S
C198 H217 0.930 . S
Eu199 N196 2.609 . S
Eu199 N200 2.657 . S
Eu199 O233 2.380 . S
Eu199 O234 2.432 . S
Eu199 O238 2.558 . S
Eu199 O239 2.612 1_565 S
Eu199 O241 2.339 1_565 S
Eu199 O242 2.563 1_565 S
Eu199 O243 2.419 . S
Eu199 C263 2.848 . S
N200 C192 1.362 . S
N200 Eu199 2.657 . S
N200 C201 1.334 1_565 S
C201 N200 1.334 1_545 S
C201 C203 1.413 . S
C201 H208 0.929 . S
C202 C190 1.392 . S
C202 C203 1.367 1_565 S
C202 H210 0.930 . S
C203 C201 1.413 . S
C203 C202 1.367 1_545 S
C203 H205 0.930 . S
H204 C197 0.930 . S
H205 C203 0.930 . S
H206 C194 0.930 . S
H207 C195 0.930 . S
H208 C201 0.929 . S
H209 C223 0.930 1_564 S
H210 C202 0.930 . S
H211 C229 0.930 . S
H212 C220 0.929 1_565 S
H213 C227 0.930 . S
H214 C191 0.931 . S
H215 C221 0.930 . S
H216 C254 0.930 . S
H217 C198 0.930 . S
H218 C253 0.931 . S
N219 Eu188 2.657 . S
N219 C220 1.334 . S
N219 C224 1.362 . S
C220 H212 0.929 1_545 S
C220 N219 1.334 . S
C220 C223 1.413 . S
C221 H215 0.930 . S
C221 C222 1.392 . S
C221 C223 1.367 1_554 S
C222 C221 1.392 . S
C222 C224 1.420 1_554 S
C222 C254 1.423 . S
C223 H209 0.930 1_546 S
C223 C220 1.413 . S
C223 C221 1.367 1_556 S
C224 N219 1.362 . S
C224 C222 1.420 1_556 S
C224 C228 1.429 . S
H225 C230 0.930 . S
N226 Eu188 2.609 . S
N226 C228 1.377 . S
N226 C229 1.321 . S
C227 H213 0.930 . S
C227 C229 1.400 . S
C227 C230 1.386 . S
C228 C224 1.429 . S
C228 N226 1.377 . S
C228 C231 1.411 . S
C229 H211 0.930 . S
C229 N226 1.321 . S
C229 C227 1.400 . S
C230 H225 0.930 . S
C230 C227 1.386 . S
C230 C231 1.395 . S
C231 C228 1.411 . S
C231 C230 1.395 . S
C231 C253 1.420 1_556 S
O232 Eu188 2.558 . S
O232 C252 1.257 . S
O233 Eu188 2.612 1_565 S
O233 Eu199 2.380 . S
O233 C244 1.276 . S
O234 Eu199 2.432 . S
O234 C251 1.264 . S
O235 Eu188 2.339 1_565 S
O235 C251 1.254 . S
O236 Eu188 2.563 . S
O236 C244 1.235 1_545 S
O237 Eu188 2.419 . S
O237 C252 1.249 . S
O238 Eu199 2.558 . S
O238 C263 1.257 . S
O239 Eu188 2.380 . S
O239 Eu199 2.612 1_545 S
O239 C255 1.276 . S
O240 Eu188 2.432 . S
O240 C262 1.264 . S
O241 Eu199 2.339 1_545 S
O241 C262 1.254 . S
O242 Eu199 2.563 1_545 S
O242 C255 1.235 . S
O243 Eu199 2.419 . S
O243 C263 1.249 . S
C244 O233 1.276 . S
C244 O236 1.235 1_565 S
C245 C247 1.393 . S
C245 C249 1.395 . S
C245 C252 1.492 . S
C246 C247 1.392 . S
C246 C248 1.386 . S
C247 C245 1.393 . S
C247 C246 1.392 . S
C247 H264 0.930 . S
C248 C246 1.386 . S
C248 C250 1.395 . S
C248 H265 0.930 1_556 S
C249 C245 1.395 . S
C249 C250 1.379 . S
C249 H266 0.930 . S
C250 C248 1.395 . S
C250 C249 1.379 . S
C250 H267 0.930 . S
C251 O234 1.264 . S
C251 O235 1.254 . S
C252 Eu188 2.848 . S
C252 O232 1.257 . S
C252 O237 1.249 . S
C252 C245 1.492 . S
C253 H218 0.931 . S
C253 C231 1.420 1_554 S
C253 C254 1.351 . S
C254 H216 0.930 . S
C254 C222 1.423 . S
C254 C253 1.351 . S
C255 O239 1.276 . S
C255 O242 1.235 . S
C256 C257 1.393 . S
C256 C260 1.395 . S
C256 C263 1.492 . S
C257 C256 1.393 . S
C257 C258 1.392 . S
C257 H268 0.930 1_565 S
C258 C257 1.392 . S
C258 C259 1.386 . S
C259 C258 1.386 . S
C259 C261 1.395 . S
C259 H269 0.930 . S
C260 C256 1.395 . S
C260 C261 1.379 . S
C260 H270 0.930 . S
C261 C259 1.395 . S
C261 C260 1.379 . S
C261 H271 0.930 . S
C262 O240 1.264 . S
C262 O241 1.254 . S
C263 Eu199 2.848 . S
C263 O238 1.257 . S
C263 O243 1.249 . S
C263 C256 1.492 . S
H264 C247 0.930 . S
H265 C248 0.930 1_554 S
H266 C249 0.930 . S
H267 C250 0.930 . S
H268 C257 0.930 1_545 S
H269 C259 0.930 . S
H270 C260 0.930 . S
H271 C261 0.930 . S
Eu272 N303 2.657 . S
Eu272 N310 2.609 . S
Eu272 O316 2.558 . S
Eu272 O317 2.612 . S
Eu272 O319 2.339 . S
Eu272 O320 2.563 . S
Eu272 O321 2.419 . S
Eu272 O323 2.380 . S
Eu272 O324 2.432 . S
Eu272 C336 2.848 . S
C273 C276 1.429 . S
C273 C277 1.411 . S
C273 N280 1.377 . S
C274 C276 1.420 . S
C274 C278 1.423 . S
C274 C286 1.392 . S
C275 C277 1.420 . S
C275 C278 1.351 . S
C275 H298 0.931 . S
C276 C273 1.429 . S
C276 C274 1.420 . S
C276 N284 1.362 . S
C277 C273 1.411 . S
C277 C275 1.420 . S
C277 C282 1.395 . S
C278 C274 1.423 . S
C278 C275 1.351 . S
C278 H290 0.930 . S
C279 C281 1.400 . S
C279 C282 1.386 . S
C279 H291 0.930 . S
N280 C273 1.377 . S
N280 C281 1.321 . S
N280 Eu283 2.609 . S
C281 C279 1.400 . S
C281 N280 1.321 . S
C281 H288 0.930 . S
C282 C277 1.395 . S
C282 C279 1.386 . S
C282 H301 0.930 . S
Eu283 N280 2.609 . S
Eu283 N284 2.657 . S
Eu283 O317 2.380 . S
Eu283 O318 2.432 . S
Eu283 O322 2.558 . S
Eu283 O323 2.612 . S
Eu283 O325 2.339 . S
Eu283 O326 2.563 . S
Eu283 O327 2.419 . S
Eu283 C347 2.848 . S
N284 C276 1.362 . S
N284 Eu283 2.657 . S
N284 C285 1.334 . S
C285 N284 1.334 . S
C285 C287 1.413 . S
C285 H292 0.929 . S
C286 C274 1.392 . S
C286 C287 1.367 . S
C286 H294 0.930 . S
C287 C285 1.413 . S
C287 C286 1.367 . S
C287 H289 0.930 . S
H288 C281 0.930 . S
H289 C287 0.930 . S
H290 C278 0.930 . S
H291 C279 0.930 . S
H292 C285 0.929 . S
H293 C307 0.930 . S
H294 C286 0.930 . S
H295 C313 0.930 . S
H296 C304 0.929 . S
H297 C311 0.930 . S
H298 C275 0.931 . S
H299 C305 0.930 . S
H300 C338 0.930 . S
H301 C282 0.930 . S
H302 C337 0.931 . S
N303 Eu272 2.657 . S
N303 C304 1.334 . S
N303 C308 1.362 . S
C304 H296 0.929 . S
C304 N303 1.334 . S
C304 C307 1.413 . S
C305 H299 0.930 . S
C305 C306 1.392 . S
C305 C307 1.367 . S
C306 C305 1.392 . S
C306 C308 1.420 . S
C306 C338 1.423 . S
C307 H293 0.930 . S
C307 C304 1.413 . S
C307 C305 1.367 . S
C308 N303 1.362 . S
C308 C306 1.420 . S
C308 C312 1.429 . S
H309 C314 0.930 . S
N310 Eu272 2.609 . S
N310 C312 1.377 . S
N310 C313 1.321 . S
C311 H297 0.930 . S
C311 C313 1.400 . S
C311 C314 1.386 . S
C312 C308 1.429 . S
C312 N310 1.377 . S
C312 C315 1.411 . S
C313 H295 0.930 . S
C313 N310 1.321 . S
C313 C311 1.400 . S
C314 H309 0.930 . S
C314 C311 1.386 . S
C314 C315 1.395 . S
C315 C312 1.411 . S
C315 C314 1.395 . S
C315 C337 1.420 . S
O316 Eu272 2.558 . S
O316 C336 1.257 . S
O317 Eu272 2.612 . S
O317 Eu283 2.380 . S
O317 C328 1.276 . S
O318 Eu283 2.432 . S
O318 C335 1.264 . S
O319 Eu272 2.339 . S
O319 C335 1.254 . S
O320 Eu272 2.563 . S
O320 C328 1.235 . S
O321 Eu272 2.419 . S
O321 C336 1.249 . S
O322 Eu283 2.558 . S
O322 C347 1.257 . S
O323 Eu272 2.380 . S
O323 Eu283 2.612 . S
O323 C339 1.276 . S
O324 Eu272 2.432 . S
O324 C346 1.264 . S
O325 Eu283 2.339 . S
O325 C346 1.254 . S
O326 Eu283 2.563 . S
O326 C339 1.235 . S
O327 Eu283 2.419 . S
O327 C347 1.249 . S
C328 O317 1.276 . S
C328 O320 1.235 . S
C329 C331 1.393 . S
C329 C333 1.395 . S
C329 C336 1.492 . S
C330 C331 1.392 . S
C330 C332 1.386 . S
C331 C329 1.393 . S
C331 C330 1.392 . S
C331 H348 0.930 . S
C332 C330 1.386 . S
C332 C334 1.395 . S
C332 H349 0.930 . S
C333 C329 1.395 . S
C333 C334 1.379 . S
C333 H350 0.930 . S
C334 C332 1.395 . S
C334 C333 1.379 . S
C334 H351 0.930 . S
C335 O318 1.264 . S
C335 O319 1.254 . S
C336 Eu272 2.848 . S
C336 O316 1.257 . S
C336 O321 1.249 . S
C336 C329 1.492 . S
C337 H302 0.931 . S
C337 C315 1.420 . S
C337 C338 1.351 . S
C338 H300 0.930 . S
C338 C306 1.423 . S
C338 C337 1.351 . S
C339 O323 1.276 . S
C339 O326 1.235 . S
C340 C341 1.393 . S
C340 C344 1.395 1_556 S
C340 C347 1.492 . S
C341 C340 1.393 . S
C341 C342 1.392 1_556 S
C341 H352 0.930 . S
C342 C341 1.392 1_554 S
C342 C343 1.386 . S
C343 C342 1.386 . S
C343 C345 1.395 . S
C343 H353 0.930 . S
C344 C340 1.395 1_554 S
C344 C345 1.379 . S
C344 H354 0.930 . S
C345 C343 1.395 . S
C345 C344 1.379 . S
C345 H355 0.930 . S
C346 O324 1.264 . S
C346 O325 1.254 . S
C347 Eu283 2.848 . S
C347 O322 1.257 . S
C347 O327 1.249 . S
C347 C340 1.492 . S
H348 C331 0.930 . S
H349 C332 0.930 . S
H350 C333 0.930 . S
H351 C334 0.930 . S
H352 C341 0.930 . S
H353 C343 0.930 . S
H354 C344 0.930 . S
H355 C345 0.930 . S
Eu356 N387 2.657 . S
Eu356 N394 2.609 . S
Eu356 O400 2.558 . S
Eu356 O401 2.612 . S
Eu356 O403 2.339 . S
Eu356 O404 2.563 . S
Eu356 O405 2.419 . S
Eu356 O407 2.380 . S
Eu356 O408 2.432 1_455 S
Eu356 C420 2.848 . S
C357 C360 1.429 . S
C357 C361 1.411 . S
C357 N364 1.377 . S
C358 C360 1.420 . S
C358 C362 1.423 . S
C358 C370 1.392 . S
C359 C361 1.420 . S
C359 C362 1.351 . S
C359 H382 0.931 . S
C360 C357 1.429 . S
C360 C358 1.420 . S
C360 N368 1.362 . S
C361 C357 1.411 . S
C361 C359 1.420 . S
C361 C366 1.395 1_655 S
C362 C358 1.423 . S
C362 C359 1.351 . S
C362 H374 0.930 . S
C363 C365 1.400 . S
C363 C366 1.386 . S
C363 H375 0.930 . S
N364 C357 1.377 . S
N364 C365 1.321 1_655 S
N364 Eu367 2.609 . S
C365 C363 1.400 . S
C365 N364 1.321 1_455 S
C365 H372 0.930 . S
C366 C361 1.395 1_455 S
C366 C363 1.386 . S
C366 H385 0.930 . S
Eu367 N364 2.609 . S
Eu367 N368 2.657 . S
Eu367 O401 2.380 1_655 S
Eu367 O402 2.432 1_655 S
Eu367 O406 2.558 . S
Eu367 O407 2.612 1_655 S
Eu367 O409 2.339 . S
Eu367 O410 2.563 . S
Eu367 O411 2.419 . S
Eu367 C431 2.848 . S
N368 C360 1.362 . S
N368 Eu367 2.657 . S
N368 C369 1.334 . S
C369 N368 1.334 . S
C369 C371 1.413 . S
C369 H376 0.929 . S
C370 C358 1.392 . S
C370 C371 1.367 . S
C370 H378 0.930 . S
C371 C369 1.413 . S
C371 C370 1.367 . S
C371 H373 0.930 . S
H372 C365 0.930 . S
H373 C371 0.930 . S
H374 C362 0.930 . S
H375 C363 0.930 . S
H376 C369 0.929 . S
H377 C391 0.930 . S
H378 C370 0.930 . S
H379 C397 0.922 1_655 S
H380 C388 0.929 . S
H381 C395 0.930 . S
H382 C359 0.931 . S
H383 C389 0.930 . S
H384 C422 0.930 . S
H385 C366 0.930 . S
H386 C421 0.931 . S
N387 Eu356 2.657 . S
N387 C388 1.334 . S
N387 C392 1.362 . S
C388 H380 0.929 . S
C388 N387 1.334 . S
C388 C391 1.413 . S
C389 H383 0.930 . S
C389 C390 1.392 . S
C389 C391 1.367 . S
C390 C389 1.392 . S
C390 C392 1.420 . S
C390 C422 1.423 . S
C391 H377 0.930 . S
C391 C388 1.413 . S
C391 C389 1.367 . S
C392 N387 1.362 . S
C392 C390 1.420 . S
C392 C396 1.429 . S
H393 C398 0.930 . S
N394 Eu356 2.609 . S
N394 C396 1.377 . S
N394 C397 1.332 . S
C395 H381 0.930 . S
C395 C397 1.397 1_655 S
C395 C398 1.386 1_655 S
C396 C392 1.429 . S
C396 N394 1.377 . S
C396 C399 1.411 . S
C397 H379 0.922 1_455 S
C397 N394 1.332 . S
C397 C395 1.397 1_455 S
C398 H393 0.930 . S
C398 C395 1.386 1_455 S
C398 C399 1.395 . S
C399 C396 1.411 . S
C399 C398 1.395 . S
C399 C421 1.420 . S
O400 Eu356 2.558 . S
O400 C420 1.257 . S
O401 Eu356 2.612 . S
O401 Eu367 2.380 1_455 S
O401 C412 1.276 . S
O402 Eu367 2.432 1_455 S
O402 C419 1.264 . S
O403 Eu356 2.339 . S
O403 C419 1.254 . S
O404 Eu356 2.563 . S
O404 C412 1.235 . S
O405 Eu356 2.419 . S
O405 C420 1.249 . S
O406 Eu367 2.558 . S
O406 C431 1.257 . S
O407 Eu356 2.380 . S
O407 Eu367 2.612 1_455 S
O407 C423 1.276 1_455 S
O408 Eu356 2.432 1_655 S
O408 C430 1.264 . S
O409 Eu367 2.339 . S
O409 C430 1.254 . S
O410 Eu367 2.563 . S
O410 C423 1.235 . S
O411 Eu367 2.419 . S
O411 C431 1.249 . S
C412 O401 1.276 . S
C412 O404 1.235 . S
C413 C415 1.393 . S
C413 C417 1.395 . S
C413 C420 1.492 . S
C414 C415 1.392 . S
C414 C416 1.386 . S
C415 C413 1.393 . S
C415 C414 1.392 . S
C415 H432 0.930 . S
C416 C414 1.386 . S
C416 C418 1.395 . S
C416 H433 0.930 . S
C417 C413 1.395 . S
C417 C418 1.379 . S
C417 H434 0.930 . S
C418 C416 1.395 . S
C418 C417 1.379 . S
C418 H435 0.930 . S
C419 O402 1.264 . S
C419 O403 1.254 . S
C420 Eu356 2.848 . S
C420 O400 1.257 . S
C420 O405 1.249 . S
C420 C413 1.492 . S
C421 H386 0.931 . S
C421 C399 1.420 . S
C421 C422 1.351 . S
C422 H384 0.930 . S
C422 C390 1.423 . S
C422 C421 1.351 . S
C423 O407 1.276 1_655 S
C423 O410 1.235 . S
C424 C425 1.393 . S
C424 C428 1.395 1_556 S
C424 C431 1.492 . S
C425 C424 1.393 . S
C425 C426 1.392 1_556 S
C425 H436 0.930 . S
C426 C425 1.392 1_554 S
C426 C427 1.386 . S
C427 C426 1.386 . S
C427 C429 1.395 . S
C427 H437 0.930 . S
C428 C424 1.395 1_554 S
C428 C429 1.379 . S
C428 H438 0.930 . S
C429 C427 1.395 . S
C429 C428 1.379 . S
C429 H439 0.930 . S
C430 O408 1.264 . S
C430 O409 1.254 . S
C431 Eu367 2.848 . S
C431 O406 1.257 . S
C431 O411 1.249 . S
C431 C424 1.492 . S
H432 C415 0.930 . S
H433 C416 0.930 . S
H434 C417 0.930 . S
H435 C418 0.930 . S
H436 C425 0.930 . S
H437 C427 0.930 . S
H438 C428 0.930 . S
H439 C429 0.930 . S
C440 C441 1.391 . S
C440 C442 1.394 . S
C440 H456 0.931 . S
C441 C440 1.391 . S
C441 C445 1.376 . S
C442 C440 1.394 . S
C442 C443 1.369 . S
C442 C446 1.531 1_545 S
C443 C442 1.369 . S
C443 C444 1.410 . S
C443 C451 1.503 . S
C444 C443 1.410 . S
C444 C445 1.392 . S
C444 C447 1.511 . S
C445 C441 1.376 . S
C445 C444 1.392 . S
C445 H457 0.929 . S
C446 C442 1.531 1_565 S
C446 H458 0.960 . S
C446 H459 0.962 1_565 S
C446 H460 0.960 . S
C447 C444 1.511 . S
C447 H461 0.961 . S
C447 H462 0.961 . S
C447 H463 0.961 . S
C448 C449 1.370 . S
C448 C450 1.363 . S
C448 H464 0.931 . S
C449 C448 1.370 . S
C449 C453 1.408 . S
C450 C448 1.363 . S
C450 C451 1.370 . S
C450 C454 1.524 . S
C451 C443 1.503 . S
C451 C450 1.370 . S
C451 C452 1.403 . S
C452 C451 1.403 . S
C452 C453 1.404 . S
C452 C455 1.539 . S
C453 C449 1.408 . S
C453 C452 1.404 . S
C453 H465 0.930 . S
C454 C450 1.524 . S
C454 H466 0.956 . S
C454 H467 0.961 . S
C454 H468 0.961 . S
C455 C452 1.539 . S
C455 H469 0.958 1_545 S
C455 H470 0.961 . S
C455 H471 0.960 . S
H456 C440 0.931 . S
H457 C445 0.929 . S
H458 C446 0.960 . S
H459 C446 0.962 1_545 S
H460 C446 0.960 . S
H461 C447 0.961 . S
H462 C447 0.961 . S
H463 C447 0.961 . S
H464 C448 0.931 . S
H465 C453 0.930 . S
H466 C454 0.956 . S
H467 C454 0.961 . S
H468 C454 0.961 . S
H469 C455 0.958 1_565 S
H470 C455 0.961 . S
H471 C455 0.960 . S
C472 C473 1.391 . S
C472 C474 1.394 . S
C472 H488 0.931 . S
C473 C472 1.391 . S
C473 C477 1.376 . S
C474 C472 1.394 . S
C474 C475 1.369 . S
C474 C478 1.531 . S
C475 C474 1.369 . S
C475 C476 1.410 . S
C475 C483 1.503 . S
C476 C475 1.410 . S
C476 C477 1.392 . S
C476 C479 1.511 . S
C477 C473 1.376 . S
C477 C476 1.392 . S
C477 H489 0.929 . S
C478 C474 1.531 . S
C478 H490 0.960 . S
C478 H491 0.962 . S
C478 H492 0.960 . S
C479 C476 1.511 . S
C479 H493 0.961 . S
C479 H494 0.961 . S
C479 H495 0.961 . S
C480 C481 1.370 . S
C480 C482 1.363 . S
C480 H496 0.931 . S
C481 C480 1.370 . S
C481 C485 1.408 . S
C482 C480 1.363 . S
C482 C483 1.370 . S
C482 C486 1.524 . S
C483 C475 1.503 . S
C483 C482 1.370 . S
C483 C484 1.403 . S
C484 C483 1.403 . S
C484 C485 1.404 . S
C484 C487 1.539 . S
C485 C481 1.408 . S
C485 C484 1.404 . S
C485 H497 0.930 . S
C486 C482 1.524 . S
C486 H498 0.956 . S
C486 H499 0.961 . S
C486 H500 0.961 . S
C487 C484 1.539 . S
C487 H501 0.958 . S
C487 H502 0.961 . S
C487 H503 0.960 . S
H488 C472 0.931 . S
H489 C477 0.929 . S
H490 C478 0.960 . S
H491 C478 0.962 . S
H492 C478 0.960 . S
H493 C479 0.961 . S
H494 C479 0.961 . S
H495 C479 0.961 . S
H496 C480 0.931 . S
H497 C485 0.930 . S
H498 C486 0.956 . S
H499 C486 0.961 . S
H500 C486 0.961 . S
H501 C487 0.958 . S
H502 C487 0.961 . S
H503 C487 0.960 . S
C504 C505 1.391 . S
C504 C506 1.394 . S
C504 H520 0.931 . S
C505 C504 1.391 . S
C505 C509 1.376 . S
C506 C504 1.394 . S
C506 C507 1.369 . S
C506 C510 1.531 . S
C507 C506 1.369 . S
C507 C508 1.410 . S
C507 C515 1.503 . S
C508 C507 1.410 . S
C508 C509 1.392 . S
C508 C511 1.511 . S
C509 C505 1.376 . S
C509 C508 1.392 . S
C509 H521 0.929 . S
C510 C506 1.531 . S
C510 H522 0.960 . S
C510 H523 0.962 . S
C510 H524 0.960 . S
C511 C508 1.511 . S
C511 H525 0.961 . S
C511 H526 0.961 . S
C511 H527 0.961 . S
C512 C513 1.370 . S
C512 C514 1.363 . S
C512 H528 0.931 . S
C513 C512 1.370 . S
C513 C517 1.408 . S
C514 C512 1.363 . S
C514 C515 1.370 . S
C514 C518 1.524 . S
C515 C507 1.503 . S
C515 C514 1.370 . S
C515 C516 1.403 . S
C516 C515 1.403 . S
C516 C517 1.404 . S
C516 C519 1.539 . S
C517 C513 1.408 . S
C517 C516 1.404 . S
C517 H529 0.930 . S
C518 C514 1.524 . S
C518 H530 0.956 . S
C518 H531 0.961 . S
C518 H532 0.961 . S
C519 C516 1.539 . S
C519 H533 0.958 . S
C519 H534 0.961 . S
C519 H535 0.960 . S
H520 C504 0.931 . S
H521 C509 0.929 . S
H522 C510 0.960 . S
H523 C510 0.962 . S
H524 C510 0.960 . S
H525 C511 0.961 . S
H526 C511 0.961 . S
H527 C511 0.961 . S
H528 C512 0.931 . S
H529 C517 0.930 . S
H530 C518 0.956 . S
H531 C518 0.961 . S
H532 C518 0.961 . S
H533 C519 0.958 . S
H534 C519 0.961 . S
H535 C519 0.960 . S
C536 C537 1.391 . S
C536 C538 1.394 . S
C536 H552 0.931 . S
C537 C536 1.391 . S
C537 C541 1.376 . S
C538 C536 1.394 . S
C538 C539 1.369 . S
C538 C542 1.531 . S
C539 C538 1.369 . S
C539 C540 1.410 . S
C539 C547 1.503 . S
C540 C539 1.410 . S
C540 C541 1.392 . S
C540 C543 1.511 . S
C541 C537 1.376 . S
C541 C540 1.392 . S
C541 H553 0.929 . S
C542 C538 1.531 . S
C542 H554 0.960 . S
C542 H555 0.962 . S
C542 H556 0.960 . S
C543 C540 1.511 . S
C543 H557 0.961 . S
C543 H558 0.961 . S
C543 H559 0.961 . S
C544 C545 1.370 . S
C544 C546 1.363 . S
C544 H560 0.931 1_455 S
C545 C544 1.370 . S
C545 C549 1.408 . S
C546 C544 1.363 . S
C546 C547 1.370 . S
C546 C550 1.504 1_455 S
C547 C539 1.503 . S
C547 C546 1.370 . S
C547 C548 1.403 . S
C548 C547 1.403 . S
C548 C549 1.404 . S
C548 C551 1.539 . S
C549 C545 1.408 . S
C549 C548 1.404 . S
C549 H561 0.930 . S
C550 C546 1.504 1_655 S
C550 H562 0.968 . S
C550 H563 0.944 1_655 S
C550 H564 0.987 . S
C551 C548 1.539 . S
C551 H565 0.958 . S
C551 H566 0.961 . S
C551 H567 0.960 . S
H552 C536 0.931 . S
H553 C541 0.929 . S
H554 C542 0.960 . S
H555 C542 0.962 . S
H556 C542 0.960 . S
H557 C543 0.961 . S
H558 C543 0.961 . S
H559 C543 0.961 . S
H560 C544 0.931 1_655 S
H561 C549 0.930 . S
H562 C550 0.968 . S
H563 C550 0.944 1_455 S
H564 C550 0.987 . S
H565 C551 0.958 . S
H566 C551 0.961 . S
H567 C551 0.960 . S
C568 C569 1.391 . S
C568 C570 1.394 . S
C568 H584 0.931 . S
C569 C568 1.391 . S
C569 C573 1.376 . S
C570 C568 1.394 . S
C570 C571 1.369 . S
C570 C574 1.531 1_564 S
C571 C570 1.369 . S
C571 C572 1.410 . S
C571 C579 1.503 1_554 S
C572 C571 1.410 . S
C572 C573 1.392 . S
C572 C575 1.511 . S
C573 C569 1.376 . S
C573 C572 1.392 . S
C573 H585 0.929 . S
C574 C570 1.531 1_546 S
C574 H586 0.960 . S
C574 H587 0.962 . S
C574 H588 0.960 1_556 S
C575 C572 1.511 . S
C575 H589 0.961 . S
C575 H590 0.961 . S
C575 H591 0.961 . S
C576 C577 1.370 . S
C576 C578 1.363 . S
C576 H592 0.931 . S
C577 C576 1.370 . S
C577 C581 1.408 1_565 S
C578 C576 1.363 . S
C578 C579 1.370 . S
C578 C582 1.524 . S
C579 C571 1.503 1_556 S
C579 C578 1.370 . S
C579 C580 1.403 1_565 S
C580 C579 1.403 1_545 S
C580 C581 1.404 . S
C580 C583 1.539 1_556 S
C581 C577 1.408 1_545 S
C581 C580 1.404 . S
C581 H593 0.930 . S
C582 C578 1.524 . S
C582 H594 0.956 . S
C582 H595 0.961 . S
C582 H596 0.961 . S
C583 C580 1.539 1_554 S
C583 H597 0.958 . S
C583 H598 0.961 . S
C583 H599 0.960 . S
H584 C568 0.931 . S
H585 C573 0.929 . S
H586 C574 0.960 . S
H587 C574 0.962 . S
H588 C574 0.960 1_554 S
H589 C575 0.961 . S
H590 C575 0.961 . S
H591 C575 0.961 . S
H592 C576 0.931 . S
H593 C581 0.930 . S
H594 C582 0.956 . S
H595 C582 0.961 . S
H596 C582 0.961 . S
H597 C583 0.958 . S
H598 C583 0.961 . S
H599 C583 0.960 . S
C600 C601 1.391 . S
C600 C602 1.394 . S
C600 H616 0.931 . S
C601 C600 1.391 . S
C601 C605 1.376 . S
C602 C600 1.394 . S
C602 C603 1.369 . S
C602 C606 1.531 1_554 S
C603 C602 1.369 . S
C603 C604 1.410 . S
C603 C611 1.503 1_554 S
C604 C603 1.410 . S
C604 C605 1.392 . S
C604 C607 1.511 . S
C605 C601 1.376 . S
C605 C604 1.392 . S
C605 H617 0.929 . S
C606 C602 1.531 1_556 S
C606 H618 0.960 . S
C606 H619 0.962 . S
C606 H620 0.960 . S
C607 C604 1.511 . S
C607 H621 0.961 . S
C607 H622 0.961 . S
C607 H623 0.961 . S
C608 C609 1.370 . S
C608 C610 1.363 . S
C608 H624 0.931 . S
C609 C608 1.370 . S
C609 C613 1.408 . S
C610 C608 1.363 . S
C610 C611 1.370 . S
C610 C614 1.524 1_556 S
C611 C603 1.503 1_556 S
C611 C610 1.370 . S
C611 C612 1.403 . S
C612 C611 1.403 . S
C612 C613 1.404 . S
C612 C615 1.539 . S
C613 C609 1.408 . S
C613 C612 1.404 . S
C613 H625 0.930 . S
C614 C610 1.524 1_554 S
C614 H626 0.956 . S
C614 H627 0.961 . S
C614 H628 0.961 . S
C615 C612 1.539 . S
C615 H629 0.958 . S
C615 H630 0.961 . S
C615 H631 0.960 . S
H616 C600 0.931 . S
H617 C605 0.929 . S
H618 C606 0.960 . S
H619 C606 0.962 . S
H620 C606 0.960 . S
H621 C607 0.961 . S
H622 C607 0.961 . S
H623 C607 0.961 . S
H624 C608 0.931 . S
H625 C613 0.930 . S
H626 C614 0.956 . S
H627 C614 0.961 . S
H628 C614 0.961 . S
H629 C615 0.958 . S
H630 C615 0.961 . S
H631 C615 0.960 . S
C632 C633 1.391 . S
C632 C634 1.394 . S
C632 H648 0.931 . S
C633 C632 1.391 . S
C633 C637 1.376 . S
C634 C632 1.394 . S
C634 C635 1.369 . S
C634 C638 1.531 1_554 S
C635 C634 1.369 . S
C635 C636 1.410 . S
C635 C643 1.503 1_554 S
C636 C635 1.410 . S
C636 C637 1.392 . S
C636 C639 1.511 . S
C637 C633 1.376 . S
C637 C636 1.392 . S
C637 H649 0.929 . S
C638 C634 1.531 1_556 S
C638 H650 0.960 . S
C638 H651 0.962 . S
C638 H652 0.960 . S
C639 C636 1.511 . S
C639 H653 0.961 . S
C639 H654 0.961 . S
C639 H655 0.961 . S
C640 C641 1.370 . S
C640 C642 1.363 . S
C640 H656 0.931 . S
C641 C640 1.370 . S
C641 C645 1.408 . S
C642 C640 1.363 . S
C642 C643 1.370 . S
C642 C646 1.524 . S
C643 C635 1.503 1_556 S
C643 C642 1.370 . S
C643 C644 1.403 . S
C644 C643 1.403 . S
C644 C645 1.404 . S
C644 C647 1.539 . S
C645 C641 1.408 . S
C645 C644 1.404 . S
C645 H657 0.930 . S
C646 C642 1.524 . S
C646 H658 0.956 . S
C646 H659 0.960 . S
C646 H660 0.961 . S
C647 C644 1.539 . S
C647 H661 0.958 . S
C647 H662 0.961 . S
C647 H663 0.960 1_556 S
H648 C632 0.931 . S
H649 C637 0.929 . S
H650 C638 0.960 . S
H651 C638 0.962 . S
H652 C638 0.960 . S
H653 C639 0.961 . S
H654 C639 0.961 . S
H655 C639 0.961 . S
H656 C640 0.931 . S
H657 C645 0.930 . S
H658 C646 0.956 . S
H659 C646 0.960 . S
H660 C646 0.961 . S
H661 C647 0.958 . S
H662 C647 0.961 . S
H663 C647 0.960 1_554 S
C664 C665 1.391 . S
C664 C666 1.394 . S
C664 H680 0.931 . S
C665 C664 1.391 . S
C665 C669 1.376 . S
C666 C664 1.394 . S
C666 C667 1.369 . S
C666 C670 1.531 1_655 S
C667 C666 1.369 . S
C667 C668 1.410 . S
C667 C675 1.503 1_554 S
C668 C667 1.410 . S
C668 C669 1.392 . S
C668 C671 1.511 . S
C669 C665 1.376 . S
C669 C668 1.392 . S
C669 H681 0.929 . S
C670 C666 1.531 1_455 S
C670 H682 0.959 1_554 S
C670 H683 0.962 1_554 S
C670 H684 0.960 . S
C671 C668 1.511 . S
C671 H685 0.961 . S
C671 H686 0.961 . S
C671 H687 0.961 . S
C672 C673 1.370 . S
C672 C674 1.363 . S
C672 H688 0.931 . S
C673 C672 1.370 . S
C673 C677 1.408 . S
C674 C672 1.363 . S
C674 C675 1.370 . S
C674 C678 1.524 . S
C675 C667 1.503 1_556 S
C675 C674 1.370 . S
C675 C676 1.403 . S
C676 C675 1.403 . S
C676 C677 1.404 . S
C676 C679 1.540 1_556 S
C677 C673 1.408 . S
C677 C676 1.404 . S
C677 H689 0.930 1_655 S
C678 C674 1.524 . S
C678 H690 0.956 . S
C678 H691 0.961 . S
C678 H692 0.961 . S
C679 C676 1.540 1_554 S
C679 H693 0.954 1_655 S
C679 H694 0.961 . S
C679 H695 0.962 . S
H680 C664 0.931 . S
H681 C669 0.929 . S
H682 C670 0.959 1_556 S
H683 C670 0.962 1_556 S
H684 C670 0.960 . S
H685 C671 0.961 . S
H686 C671 0.961 . S
H687 C671 0.961 . S
H688 C672 0.931 . S
H689 C677 0.930 1_455 S
H690 C678 0.956 . S
H691 C678 0.961 . S
H692 C678 0.961 . S
H693 C679 0.954 1_455 S
H694 C679 0.961 . S
H695 C679 0.962 . S
C696 C697 1.391 . S
C696 C698 1.394 . S
C696 H712 0.931 . S
C697 C696 1.391 . S
C697 C701 1.376 . S
C698 C696 1.394 . S
C698 C699 1.369 . S
C698 C702 1.531 . S
C699 C698 1.369 . S
C699 C700 1.410 . S
C699 C707 1.503 . S
C700 C699 1.410 . S
C700 C701 1.392 . S
C700 C703 1.511 1_455 S
C701 C697 1.376 . S
C701 C700 1.392 . S
C701 H713 0.929 . S
C702 C698 1.531 . S
C702 H714 0.960 . S
C702 H715 0.962 . S
C702 H716 0.960 . S
C703 C700 1.511 1_655 S
C703 H717 0.961 . S
C703 H718 0.961 . S
C703 H719 0.961 . S
C704 C705 1.370 . S
C704 C706 1.363 . S
C704 H720 0.931 . S
C705 C704 1.370 . S
C705 C709 1.408 1_455 S
C706 C704 1.363 . S
C706 C707 1.370 . S
C706 C710 1.524 . S
C707 C699 1.503 . S
C707 C706 1.370 . S
C707 C708 1.403 . S
C708 C707 1.403 . S
C708 C709 1.404 1_455 S
C708 C711 1.539 1_455 S
C709 C705 1.408 1_655 S
C709 C708 1.404 1_655 S
C709 H721 0.930 . S
C710 C706 1.524 . S
C710 H722 0.956 . S
C710 H723 0.961 . S
C710 H724 0.961 . S
C711 C708 1.539 1_655 S
C711 H725 0.958 1_655 S
C711 H726 0.961 . S
C711 H727 0.960 . S
H712 C696 0.931 . S
H713 C701 0.929 . S
H714 C702 0.960 . S
H715 C702 0.962 . S
H716 C702 0.960 . S
H717 C703 0.961 . S
H718 C703 0.961 . S
H719 C703 0.961 . S
H720 C704 0.931 . S
H721 C709 0.930 . S
H722 C710 0.956 . S
H723 C710 0.961 . S
H724 C710 0.961 . S
H725 C711 0.958 1_455 S
H726 C711 0.961 . S
H727 C711 0.960 . S
C728 C729 1.391 . S
C728 C730 1.394 . S
C728 H744 0.931 . S
C729 C728 1.391 . S
C729 C733 1.376 . S
C730 C728 1.394 . S
C730 C731 1.369 . S
C730 C734 1.531 . S
C731 C730 1.369 . S
C731 C732 1.410 . S
C731 C739 1.503 . S
C732 C731 1.410 . S
C732 C733 1.392 . S
C732 C735 1.511 . S
C733 C729 1.376 . S
C733 C732 1.392 . S
C733 H745 0.929 1_554 S
C734 C730 1.531 . S
C734 H746 0.960 . S
C734 H747 0.962 . S
C734 H748 0.960 . S
C735 C732 1.511 . S
C735 H749 0.961 1_554 S
C735 H750 0.961 . S
C735 H751 0.961 . S
C736 C737 1.370 . S
C736 C738 1.363 . S
C736 H752 0.931 . S
C737 C736 1.370 . S
C737 C741 1.408 1_545 S
C738 C736 1.363 . S
C738 C739 1.370 . S
C738 C742 1.524 . S
C739 C731 1.503 . S
C739 C738 1.370 . S
C739 C740 1.403 1_545 S
C740 C739 1.403 1_565 S
C740 C741 1.404 . S
C740 C743 1.539 . S
C741 C737 1.408 1_565 S
C741 C740 1.404 . S
C741 H753 0.930 . S
C742 C738 1.524 . S
C742 H754 0.956 . S
C742 H755 0.961 . S
C742 H756 0.961 . S
C743 C740 1.539 . S
C743 H757 0.958 . S
C743 H758 0.961 . S
C743 H759 0.960 . S
H744 C728 0.931 . S
H745 C733 0.929 1_556 S
H746 C734 0.960 . S
H747 C734 0.962 . S
H748 C734 0.960 . S
H749 C735 0.961 1_556 S
H750 C735 0.961 . S
H751 C735 0.961 . S
H752 C736 0.931 . S
H753 C741 0.930 . S
H754 C742 0.956 . S
H755 C742 0.961 . S
H756 C742 0.961 . S
H757 C743 0.958 . S
H758 C743 0.961 . S
H759 C743 0.960 . S
C760 C761 1.391 . S
C760 C762 1.394 . S
C760 H776 0.931 . S
C761 C760 1.391 . S
C761 C765 1.376 . S
C762 C760 1.394 . S
C762 C763 1.369 . S
C762 C766 1.531 . S
C763 C762 1.369 . S
C763 C764 1.410 . S
C763 C771 1.503 . S
C764 C763 1.410 . S
C764 C765 1.392 . S
C764 C767 1.511 . S
C765 C761 1.376 . S
C765 C764 1.392 . S
C765 H777 0.929 . S
C766 C762 1.531 . S
C766 H778 0.960 . S
C766 H779 0.962 . S
C766 H780 0.960 . S
C767 C764 1.511 . S
C767 H781 0.961 . S
C767 H782 0.961 . S
C767 H783 0.961 . S
C768 C769 1.370 . S
C768 C770 1.363 . S
C768 H784 0.931 . S
C769 C768 1.370 . S
C769 C773 1.408 . S
C770 C768 1.363 . S
C770 C771 1.370 . S
C770 C774 1.524 . S
C771 C763 1.503 . S
C771 C770 1.370 . S
C771 C772 1.403 . S
C772 C771 1.403 . S
C772 C773 1.404 . S
C772 C775 1.539 . S
C773 C769 1.408 . S
C773 C772 1.404 . S
C773 H785 0.930 . S
C774 C770 1.524 . S
C774 H786 0.956 . S
C774 H787 0.961 . S
C774 H788 0.961 . S
C775 C772 1.539 . S
C775 H789 0.958 . S
C775 H790 0.961 . S
C775 H791 0.960 . S
H776 C760 0.931 . S
H777 C765 0.929 . S
H778 C766 0.960 . S
H779 C766 0.962 . S
H780 C766 0.960 . S
H781 C767 0.961 . S
H782 C767 0.961 . S
H783 C767 0.961 . S
H784 C768 0.931 . S
H785 C773 0.930 . S
H786 C774 0.956 . S
H787 C774 0.961 . S
H788 C774 0.961 . S
H789 C775 0.958 . S
H790 C775 0.961 . S
H791 C775 0.960 . S
C792 C793 1.391 . S
C792 C794 1.394 . S
C792 H808 0.931 . S
C793 C792 1.391 . S
C793 C797 1.376 . S
C794 C792 1.394 . S
C794 C795 1.369 . S
C794 C798 1.531 . S
C795 C794 1.369 . S
C795 C796 1.410 . S
C795 C803 1.503 . S
C796 C795 1.410 . S
C796 C797 1.392 . S
C796 C799 1.511 . S
C797 C793 1.376 . S
C797 C796 1.392 . S
C797 H809 0.929 . S
C798 C794 1.531 . S
C798 H810 0.960 . S
C798 H811 0.962 . S
C798 H812 0.960 . S
C799 C796 1.511 . S
C799 H813 0.961 . S
C799 H814 0.961 . S
C799 H815 0.961 . S
C800 C801 1.370 . S
C800 C802 1.363 . S
C800 H816 0.931 . S
C801 C800 1.370 . S
C801 C805 1.408 . S
C802 C800 1.363 . S
C802 C803 1.370 . S
C802 C806 1.524 . S
C803 C795 1.503 . S
C803 C802 1.370 . S
C803 C804 1.403 . S
C804 C803 1.403 . S
C804 C805 1.404 . S
C804 C807 1.539 . S
C805 C801 1.408 . S
C805 C804 1.404 . S
C805 H817 0.930 . S
C806 C802 1.524 . S
C806 H818 0.956 . S
C806 H819 0.961 . S
C806 H820 0.961 . S
C807 C804 1.539 . S
C807 H821 0.958 . S
C807 H822 0.961 . S
C807 H823 0.960 . S
H808 C792 0.931 . S
H809 C797 0.929 . S
H810 C798 0.960 . S
H811 C798 0.962 . S
H812 C798 0.960 . S
H813 C799 0.961 . S
H814 C799 0.961 . S
H815 C799 0.961 . S
H816 C800 0.931 . S
H817 C805 0.930 . S
H818 C806 0.956 . S
H819 C806 0.961 . S
H820 C806 0.961 . S
H821 C807 0.958 . S
H822 C807 0.961 . S
H823 C807 0.960 . S
C824 C825 1.391 . S
C824 C826 1.394 . S
C824 H840 0.931 . S
C825 C824 1.391 . S
C825 C829 1.376 . S
C826 C824 1.394 . S
C826 C827 1.369 . S
C826 C830 1.531 1_655 S
C827 C826 1.369 . S
C827 C828 1.410 . S
C827 C835 1.503 . S
C828 C827 1.410 . S
C828 C829 1.392 . S
C828 C831 1.511 1_554 S
C829 C825 1.376 . S
C829 C828 1.392 . S
C829 H841 0.929 . S
C830 C826 1.531 1_455 S
C830 H842 0.960 . S
C830 H843 0.962 . S
C830 H844 0.960 . S
C831 C828 1.511 1_556 S
C831 H845 0.961 . S
C831 H846 0.961 . S
C831 H847 0.961 . S
C832 C833 1.370 1_654 S
C832 C834 1.363 . S
C832 H848 0.931 . S
C833 C832 1.370 1_456 S
C833 C837 1.408 . S
C834 C832 1.363 . S
C834 C835 1.370 . S
C834 C838 1.524 . S
C835 C827 1.503 . S
C835 C834 1.370 . S
C835 C836 1.403 1_655 S
C836 C835 1.403 1_455 S
C836 C837 1.404 1_554 S
C836 C839 1.539 1_554 S
C837 C833 1.408 . S
C837 C836 1.404 1_556 S
C837 H849 0.930 . S
C838 C834 1.524 . S
C838 H850 0.956 . S
C838 H851 0.961 . S
C838 H852 0.961 . S
C839 C836 1.539 1_556 S
C839 H853 0.958 1_556 S
C839 H854 0.961 . S
C839 H855 0.960 . S
H840 C824 0.931 . S
H841 C829 0.929 . S
H842 C830 0.960 . S
H843 C830 0.962 . S
H844 C830 0.960 . S
H845 C831 0.961 . S
H846 C831 0.961 . S
H847 C831 0.961 . S
H848 C832 0.931 . S
H849 C837 0.930 . S
H850 C838 0.956 . S
H851 C838 0.961 . S
H852 C838 0.961 . S
H853 C839 0.958 1_554 S
H854 C839 0.961 . S
H855 C839 0.960 . S
C856 C857 1.391 . S
C856 C858 1.394 . S
C856 H872 0.931 . S
C857 C856 1.391 . S
C857 C861 1.376 . S
C858 C856 1.394 . S
C858 C859 1.369 . S
C858 C862 1.531 . S
C859 C858 1.369 . S
C859 C860 1.410 . S
C859 C867 1.503 . S
C860 C859 1.410 . S
C860 C861 1.392 . S
C860 C863 1.511 1_565 S
C861 C857 1.376 . S
C861 C860 1.392 . S
C861 H873 0.929 . S
C862 C858 1.531 . S
C862 H874 0.960 . S
C862 H875 0.962 . S
C862 H876 0.960 . S
C863 C860 1.511 1_545 S
C863 H877 0.961 . S
C863 H878 0.961 . S
C863 H879 0.961 . S
C864 C865 1.370 1_565 S
C864 C866 1.363 1_556 S
C864 H880 0.931 . S
C865 C864 1.370 1_545 S
C865 C869 1.408 1_556 S
C866 C864 1.363 1_554 S
C866 C867 1.370 . S
C866 C870 1.524 1_554 S
C867 C859 1.503 . S
C867 C866 1.370 . S
C867 C868 1.403 1_565 S
C868 C867 1.403 1_545 S
C868 C869 1.404 . S
C868 C871 1.539 . S
C869 C865 1.408 1_554 S
C869 C868 1.404 . S
C869 H881 0.930 . S
C870 C866 1.524 1_556 S
C870 H882 0.956 1_556 S
C870 H883 0.961 . S
C870 H884 0.961 . S
C871 C868 1.539 . S
C871 H885 0.958 . S
C871 H886 0.961 . S
C871 H887 0.960 . S
H872 C856 0.931 . S
H873 C861 0.929 . S
H874 C862 0.960 . S
H875 C862 0.962 . S
H876 C862 0.960 . S
H877 C863 0.961 . S
H878 C863 0.961 . S
H879 C863 0.961 . S
H880 C864 0.931 . S
H881 C869 0.930 . S
H882 C870 0.956 1_554 S
H883 C870 0.961 . S
H884 C870 0.961 . S
H885 C871 0.958 . S
H886 C871 0.961 . S
H887 C871 0.960 . S
C888 C889 1.391 . S
C888 C890 1.394 . S
C888 H904 0.931 . S
C889 C888 1.391 . S
C889 C893 1.376 . S
C890 C888 1.394 . S
C890 C891 1.369 . S
C890 C894 1.531 . S
C891 C890 1.369 . S
C891 C892 1.410 . S
C891 C899 1.503 . S
C892 C891 1.410 . S
C892 C893 1.392 . S
C892 C895 1.511 . S
C893 C889 1.376 . S
C893 C892 1.392 . S
C893 H905 0.929 . S
C894 C890 1.531 . S
C894 H906 0.960 1_554 S
C894 H907 0.962 . S
C894 H908 0.960 1_554 S
C895 C892 1.511 . S
C895 H909 0.961 . S
C895 H910 0.961 . S
C895 H911 0.961 . S
C896 C897 1.370 . S
C896 C898 1.363 . S
C896 H912 0.931 . S
C897 C896 1.370 . S
C897 C901 1.408 1_554 S
C898 C896 1.363 . S
C898 C899 1.370 . S
C898 C902 1.524 . S
C899 C891 1.503 . S
C899 C898 1.370 . S
C899 C900 1.403 1_554 S
C900 C899 1.403 1_556 S
C900 C901 1.404 . S
C900 C903 1.539 . S
C901 C897 1.408 1_556 S
C901 C900 1.404 . S
C901 H913 0.930 . S
C902 C898 1.524 . S
C902 H914 0.956 . S
C902 H915 0.961 . S
C902 H916 0.961 . S
C903 C900 1.539 . S
C903 H917 0.958 . S
C903 H918 0.961 . S
C903 H919 0.960 . S
H904 C888 0.931 . S
H905 C893 0.929 . S
H906 C894 0.960 1_556 S
H907 C894 0.962 . S
H908 C894 0.960 1_556 S
H909 C895 0.961 . S
H910 C895 0.961 . S
H911 C895 0.961 . S
H912 C896 0.931 . S
H913 C901 0.930 . S
H914 C902 0.956 . S
H915 C902 0.961 . S
H916 C902 0.961 . S
H917 C903 0.958 . S
H918 C903 0.961 . S
H919 C903 0.960 . S
C920 C921 1.391 . S
C920 C922 1.394 . S
C920 H936 0.931 . S
C921 C920 1.391 . S
C921 C925 1.376 . S
C922 C920 1.394 . S
C922 C923 1.369 . S
C922 C926 1.531 1_554 S
C923 C922 1.369 . S
C923 C924 1.410 . S
C923 C931 1.503 . S
C924 C923 1.410 . S
C924 C925 1.392 . S
C924 C927 1.511 . S
C925 C921 1.376 . S
C925 C924 1.392 . S
C925 H937 0.929 . S
C926 C922 1.531 1_556 S
C926 H938 0.960 . S
C926 H939 0.962 1_556 S
C926 H940 0.960 . S
C927 C924 1.511 . S
C927 H941 0.961 . S
C927 H942 0.961 . S
C927 H943 0.961 . S
C928 C929 1.370 . S
C928 C930 1.363 . S
C928 H944 0.931 . S
C929 C928 1.370 . S
C929 C933 1.408 1_554 S
C930 C928 1.363 . S
C930 C931 1.370 . S
C930 C934 1.524 . S
C931 C923 1.503 . S
C931 C930 1.370 . S
C931 C932 1.403 . S
C932 C931 1.403 . S
C932 C933 1.404 1_554 S
C932 C935 1.539 1_554 S
C933 C929 1.408 1_556 S
C933 C932 1.404 1_556 S
C933 H945 0.930 . S
C934 C930 1.524 . S
C934 H946 0.956 . S
C934 H947 0.961 . S
C934 H948 0.961 . S
C935 C932 1.539 1_556 S
C935 H949 0.958 . S
C935 H950 0.961 . S
C935 H951 0.960 1_556 S
H936 C920 0.931 . S
H937 C925 0.929 . S
H938 C926 0.960 . S
H939 C926 0.962 1_554 S
H940 C926 0.960 . S
H941 C927 0.961 . S
H942 C927 0.961 . S
H943 C927 0.961 . S
H944 C928 0.931 . S
H945 C933 0.930 . S
H946 C934 0.956 . S
H947 C934 0.961 . S
H948 C934 0.961 . S
H949 C935 0.958 . S
H950 C935 0.961 . S
H951 C935 0.960 1_554 S
C952 C953 1.391 . S
C952 C954 1.394 . S
C952 H968 0.931 . S
C953 C952 1.391 . S
C953 C957 1.376 . S
C954 C952 1.394 . S
C954 C955 1.369 . S
C954 C958 1.531 . S
C955 C954 1.369 . S
C955 C956 1.410 . S
C955 C963 1.503 . S
C956 C955 1.410 . S
C956 C957 1.392 . S
C956 C959 1.511 . S
C957 C953 1.376 . S
C957 C956 1.392 . S
C957 H969 0.929 . S
C958 C954 1.531 . S
C958 H970 0.960 1_455 S
C958 H971 0.962 . S
C958 H972 0.960 1_455 S
C959 C956 1.511 . S
C959 H973 0.961 . S
C959 H974 0.961 . S
C959 H975 0.961 . S
C960 C961 1.370 . S
C960 C962 1.363 . S
C960 H976 0.931 . S
C961 C960 1.370 . S
C961 C965 1.408 . S
C962 C960 1.363 . S
C962 C963 1.370 . S
C962 C966 1.524 . S
C963 C955 1.503 . S
C963 C962 1.370 . S
C963 C964 1.403 . S
C964 C963 1.403 . S
C964 C965 1.404 . S
C964 C967 1.539 . S
C965 C961 1.408 . S
C965 C964 1.404 . S
C965 H977 0.930 . S
C966 C962 1.524 . S
C966 H978 0.956 . S
C966 H979 0.961 . S
C966 H980 0.961 . S
C967 C964 1.539 . S
C967 H981 0.958 1_455 S
C967 H982 0.961 . S
C967 H983 0.960 . S
H968 C952 0.931 . S
H969 C957 0.929 . S
H970 C958 0.960 1_655 S
H971 C958 0.962 . S
H972 C958 0.960 1_655 S
H973 C959 0.961 . S
H974 C959 0.961 . S
H975 C959 0.961 . S
H976 C960 0.931 . S
H977 C965 0.930 . S
H978 C966 0.956 . S
H979 C966 0.961 . S
H980 C966 0.961 . S
H981 C967 0.958 1_655 S
H982 C967 0.961 . S
H983 C967 0.960 . S
C984 C985 1.391 . S
C984 C986 1.394 . S
C984 H1000 0.931 . S
C985 C984 1.391 . S
C985 C989 1.376 . S
C986 C984 1.394 . S
C986 C987 1.369 . S
C986 C990 1.531 . S
C987 C986 1.369 . S
C987 C988 1.410 . S
C987 C995 1.503 . S
C988 C987 1.410 . S
C988 C989 1.392 . S
C988 C991 1.511 . S
C989 C985 1.376 . S
C989 C988 1.392 . S
C989 H1001 0.929 . S
C990 C986 1.531 . S
C990 H1002 0.960 . S
C990 H1003 0.962 1_545 S
C990 H1004 0.960 . S
C991 C988 1.511 . S
C991 H1005 0.961 . S
C991 H1006 0.961 . S
C991 H1007 0.961 . S
C992 C993 1.370 . S
C992 C994 1.363 . S
C992 H1008 0.931 . S
C993 C992 1.370 . S
C993 C997 1.408 . S
C994 C992 1.363 . S
C994 C995 1.370 . S
C994 C998 1.524 . S
C995 C987 1.503 . S
C995 C994 1.370 . S
C995 C996 1.403 . S
C996 C995 1.403 . S
C996 C997 1.404 . S
C996 C999 1.539 . S
C997 C993 1.408 . S
C997 C996 1.404 . S
C997 H1009 0.930 . S
C998 C994 1.524 . S
C998 H1010 0.956 . S
C998 H1011 0.961 . S
C998 H1012 0.961 . S
C999 C996 1.539 . S
C999 H1013 0.958 . S
C999 H1014 0.961 . S
C999 H1015 0.960 . S
H1000 C984 0.931 . S
H1001 C989 0.929 . S
H1002 C990 0.960 . S
H1003 C990 0.962 1_565 S
H1004 C990 0.960 . S
H1005 C991 0.961 . S
H1006 C991 0.961 . S
H1007 C991 0.961 . S
H1008 C992 0.931 . S
H1009 C997 0.930 . S
H1010 C998 0.956 . S
H1011 C998 0.961 . S
H1012 C998 0.961 . S
H1013 C999 0.958 . S
H1014 C999 0.961 . S
H1015 C999 0.960 . S
C1016 C1017 1.391 . S
C1016 C1018 1.394 . S
C1016 H1032 0.931 . S
C1017 C1016 1.391 . S
C1017 C1021 1.376 . S
C1018 C1016 1.394 . S
C1018 C1019 1.369 . S
C1018 C1022 1.531 . S
C1019 C1018 1.369 . S
C1019 C1020 1.410 . S
C1019 C1027 1.503 . S
C1020 C1019 1.410 . S
C1020 C1021 1.392 . S
C1020 C1023 1.511 . S
C1021 C1017 1.376 . S
C1021 C1020 1.392 . S
C1021 H1033 0.929 . S
C1022 C1018 1.531 . S
C1022 H1034 0.960 . S
C1022 H1035 0.962 . S
C1022 H1036 0.960 . S
C1023 C1020 1.511 . S
C1023 H1037 0.961 . S
C1023 H1038 0.961 . S
C1023 H1039 0.961 . S
C1024 C1025 1.370 . S
C1024 C1026 1.363 . S
C1024 H1040 0.931 . S
C1025 C1024 1.370 . S
C1025 C1029 1.408 . S
C1026 C1024 1.363 . S
C1026 C1027 1.370 . S
C1026 C1030 1.524 . S
C1027 C1019 1.503 . S
C1027 C1026 1.370 . S
C1027 C1028 1.403 . S
C1028 C1027 1.403 . S
C1028 C1029 1.404 . S
C1028 C1031 1.539 . S
C1029 C1025 1.408 . S
C1029 C1028 1.404 . S
C1029 H1041 0.930 . S
C1030 C1026 1.524 . S
C1030 H1042 0.956 . S
C1030 H1043 0.961 . S
C1030 H1044 0.961 . S
C1031 C1028 1.539 . S
C1031 H1045 0.958 1_556 S
C1031 H1046 0.961 . S
C1031 H1047 0.960 . S
H1032 C1016 0.931 . S
H1033 C1021 0.929 . S
H1034 C1022 0.960 . S
H1035 C1022 0.962 . S
H1036 C1022 0.960 . S
H1037 C1023 0.961 . S
H1038 C1023 0.961 . S
H1039 C1023 0.961 . S
H1040 C1024 0.931 . S
H1041 C1029 0.930 . S
H1042 C1030 0.956 . S
H1043 C1030 0.961 . S
H1044 C1030 0.961 . S
H1045 C1031 0.958 1_554 S
H1046 C1031 0.961 . S
H1047 C1031 0.960 . S
C1048 C1049 1.391 . S
C1048 C1050 1.394 . S
C1048 H1064 0.931 . S
C1049 C1048 1.391 . S
C1049 C1053 1.376 . S
C1050 C1048 1.394 . S
C1050 C1051 1.369 . S
C1050 C1054 1.531 . S
C1051 C1050 1.369 . S
C1051 C1052 1.410 . S
C1051 C1059 1.503 . S
C1052 C1051 1.410 . S
C1052 C1053 1.392 . S
C1052 C1055 1.511 . S
C1053 C1049 1.376 . S
C1053 C1052 1.392 . S
C1053 H1065 0.929 . S
C1054 C1050 1.531 . S
C1054 H1066 0.960 . S
C1054 H1067 0.962 . S
C1054 H1068 0.960 . S
C1055 C1052 1.511 . S
C1055 H1069 0.961 . S
C1055 H1070 0.961 . S
C1055 H1071 0.961 . S
C1056 C1057 1.370 . S
C1056 C1058 1.363 . S
C1056 H1072 0.931 . S
C1057 C1056 1.370 . S
C1057 C1061 1.408 . S
C1058 C1056 1.363 . S
C1058 C1059 1.370 . S
C1058 C1062 1.524 . S
C1059 C1051 1.503 . S
C1059 C1058 1.370 . S
C1059 C1060 1.403 . S
C1060 C1059 1.403 . S
C1060 C1061 1.404 . S
C1060 C1063 1.539 . S
C1061 C1057 1.408 . S
C1061 C1060 1.404 . S
C1061 H1073 0.930 . S
C1062 C1058 1.524 . S
C1062 H1074 0.956 . S
C1062 H1075 0.961 . S
C1062 H1076 0.961 . S
C1063 C1060 1.539 . S
C1063 H1077 0.958 . S
C1063 H1078 0.961 . S
C1063 H1079 0.960 . S
H1064 C1048 0.931 . S
H1065 C1053 0.929 . S
H1066 C1054 0.960 . S
H1067 C1054 0.962 . S
H1068 C1054 0.960 . S
H1069 C1055 0.961 . S
H1070 C1055 0.961 . S
H1071 C1055 0.961 . S
H1072 C1056 0.931 . S
H1073 C1061 0.930 . S
H1074 C1062 0.956 . S
H1075 C1062 0.961 . S
H1076 C1062 0.961 . S
H1077 C1063 0.958 . S
H1078 C1063 0.961 . S
H1079 C1063 0.960 . S
C1080 C1081 1.391 . S
C1080 C1082 1.394 . S
C1080 H1096 0.931 . S
C1081 C1080 1.391 . S
C1081 C1085 1.376 . S
C1082 C1080 1.394 . S
C1082 C1083 1.369 . S
C1082 C1086 1.531 1_655 S
C1083 C1082 1.369 . S
C1083 C1084 1.410 . S
C1083 C1091 1.503 . S
C1084 C1083 1.410 . S
C1084 C1085 1.392 . S
C1084 C1087 1.511 . S
C1085 C1081 1.376 . S
C1085 C1084 1.392 . S
C1085 H1097 0.929 . S
C1086 C1082 1.531 1_455 S
C1086 H1098 0.960 . S
C1086 H1099 0.962 . S
C1086 H1100 0.960 . S
C1087 C1084 1.511 . S
C1087 H1101 0.961 . S
C1087 H1102 0.961 . S
C1087 H1103 0.961 . S
C1088 C1089 1.370 . S
C1088 C1090 1.363 . S
C1088 H1104 0.931 . S
C1089 C1088 1.370 . S
C1089 C1093 1.408 . S
C1090 C1088 1.363 . S
C1090 C1091 1.370 . S
C1090 C1094 1.524 . S
C1091 C1083 1.503 . S
C1091 C1090 1.370 . S
C1091 C1092 1.403 . S
C1092 C1091 1.403 . S
C1092 C1093 1.404 . S
C1092 C1095 1.539 . S
C1093 C1089 1.408 . S
C1093 C1092 1.404 . S
C1093 H1105 0.930 . S
C1094 C1090 1.524 . S
C1094 H1106 0.956 . S
C1094 H1107 0.961 . S
C1094 H1108 0.961 . S
C1095 C1092 1.539 . S
C1095 H1109 0.958 . S
C1095 H1110 0.961 . S
C1095 H1111 0.960 . S
H1096 C1080 0.931 . S
H1097 C1085 0.929 . S
H1098 C1086 0.960 . S
H1099 C1086 0.962 . S
H1100 C1086 0.960 . S
H1101 C1087 0.961 . S
H1102 C1087 0.961 . S
H1103 C1087 0.961 . S
H1104 C1088 0.931 . S
H1105 C1093 0.930 . S
H1106 C1094 0.956 . S
H1107 C1094 0.961 . S
H1108 C1094 0.961 . S
H1109 C1095 0.958 . S
H1110 C1095 0.961 . S
H1111 C1095 0.960 . S
C1112 C1113 1.391 . S
C1112 C1114 1.394 . S
C1112 H1128 0.931 1_565 S
C1113 C1112 1.391 . S
C1113 C1117 1.376 . S
C1114 C1112 1.394 . S
C1114 C1115 1.369 . S
C1114 C1118 1.531 1_565 S
C1115 C1114 1.369 . S
C1115 C1116 1.410 . S
C1115 C1123 1.503 . S
C1116 C1115 1.410 . S
C1116 C1117 1.392 . S
C1116 C1119 1.511 . S
C1117 C1113 1.376 . S
C1117 C1116 1.392 . S
C1117 H1129 0.929 . S
C1118 C1114 1.531 1_545 S
C1118 H1130 0.960 . S
C1118 H1131 0.962 . S
C1118 H1132 0.960 . S
C1119 C1116 1.511 . S
C1119 H1133 0.961 . S
C1119 H1134 0.961 . S
C1119 H1135 0.961 . S
C1120 C1121 1.370 . S
C1120 C1122 1.363 . S
C1120 H1136 0.931 . S
C1121 C1120 1.370 . S
C1121 C1125 1.408 . S
C1122 C1120 1.363 . S
C1122 C1123 1.370 . S
C1122 C1126 1.524 . S
C1123 C1115 1.503 . S
C1123 C1122 1.370 . S
C1123 C1124 1.403 . S
C1124 C1123 1.403 . S
C1124 C1125 1.404 . S
C1124 C1127 1.539 . S
C1125 C1121 1.408 . S
C1125 C1124 1.404 . S
C1125 H1137 0.930 . S
C1126 C1122 1.524 . S
C1126 H1138 0.956 . S
C1126 H1139 0.961 . S
C1126 H1140 0.961 . S
C1127 C1124 1.539 . S
C1127 H1141 0.958 . S
C1127 H1142 0.961 . S
C1127 H1143 0.960 . S
H1128 C1112 0.931 1_545 S
H1129 C1117 0.929 . S
H1130 C1118 0.960 . S
H1131 C1118 0.962 . S
H1132 C1118 0.960 . S
H1133 C1119 0.961 . S
H1134 C1119 0.961 . S
H1135 C1119 0.961 . S
H1136 C1120 0.931 . S
H1137 C1125 0.930 . S
H1138 C1126 0.956 . S
H1139 C1126 0.961 . S
H1140 C1126 0.961 . S
H1141 C1127 0.958 . S
H1142 C1127 0.961 . S
H1143 C1127 0.960 . S
C1144 C1145 1.391 . S
C1144 C1146 1.394 . S
C1144 H1160 0.931 . S
C1145 C1144 1.391 . S
C1145 C1149 1.376 . S
C1146 C1144 1.394 . S
C1146 C1147 1.369 . S
C1146 C1150 1.531 . S
C1147 C1146 1.369 . S
C1147 C1148 1.410 . S
C1147 C1155 1.503 . S
C1148 C1147 1.410 . S
C1148 C1149 1.392 . S
C1148 C1151 1.511 . S
C1149 C1145 1.376 . S
C1149 C1148 1.392 . S
C1149 H1161 0.929 . S
C1150 C1146 1.531 . S
C1150 H1162 0.960 . S
C1150 H1163 0.962 . S
C1150 H1164 0.960 . S
C1151 C1148 1.511 . S
C1151 H1165 0.961 . S
C1151 H1166 0.961 . S
C1151 H1167 0.961 . S
C1152 C1153 1.370 . S
C1152 C1154 1.363 . S
C1152 H1168 0.931 . S
C1153 C1152 1.370 . S
C1153 C1157 1.408 . S
C1154 C1152 1.363 . S
C1154 C1155 1.370 . S
C1154 C1158 1.524 . S
C1155 C1147 1.503 . S
C1155 C1154 1.370 . S
C1155 C1156 1.403 . S
C1156 C1155 1.403 . S
C1156 C1157 1.404 . S
C1156 C1159 1.539 . S
C1157 C1153 1.408 . S
C1157 C1156 1.404 . S
C1157 H1169 0.930 . S
C1158 C1154 1.524 . S
C1158 H1170 0.956 . S
C1158 H1171 0.961 . S
C1158 H1172 0.961 . S
C1159 C1156 1.539 . S
C1159 H1173 0.958 . S
C1159 H1174 0.961 . S
C1159 H1175 0.960 . S
H1160 C1144 0.931 . S
H1161 C1149 0.929 . S
H1162 C1150 0.960 . S
H1163 C1150 0.962 . S
H1164 C1150 0.960 . S
H1165 C1151 0.961 . S
H1166 C1151 0.961 . S
H1167 C1151 0.961 . S
H1168 C1152 0.931 . S
H1169 C1157 0.930 . S
H1170 C1158 0.956 . S
H1171 C1158 0.961 . S
H1172 C1158 0.961 . S
H1173 C1159 0.958 . S
H1174 C1159 0.961 . S
H1175 C1159 0.960 . S
C1176 C1177 1.391 . S
C1176 C1178 1.394 . S
C1176 H1192 0.931 . S
C1177 C1176 1.391 . S
C1177 C1181 1.376 . S
C1178 C1176 1.394 . S
C1178 C1179 1.369 . S
C1178 C1182 1.531 . S
C1179 C1178 1.369 . S
C1179 C1180 1.410 . S
C1179 C1187 1.503 . S
C1180 C1179 1.410 . S
C1180 C1181 1.392 . S
C1180 C1183 1.511 . S
C1181 C1177 1.376 . S
C1181 C1180 1.392 . S
C1181 H1193 0.929 . S
C1182 C1178 1.531 . S
C1182 H1194 0.960 . S
C1182 H1195 0.962 . S
C1182 H1196 0.960 . S
C1183 C1180 1.511 . S
C1183 H1197 0.961 . S
C1183 H1198 0.961 . S
C1183 H1199 0.961 . S
C1184 C1185 1.370 . S
C1184 C1186 1.363 . S
C1184 H1200 0.931 . S
C1185 C1184 1.370 . S
C1185 C1189 1.408 . S
C1186 C1184 1.363 . S
C1186 C1187 1.370 . S
C1186 C1190 1.524 . S
C1187 C1179 1.503 . S
C1187 C1186 1.370 . S
C1187 C1188 1.403 . S
C1188 C1187 1.403 . S
C1188 C1189 1.404 . S
C1188 C1191 1.539 . S
C1189 C1185 1.408 . S
C1189 C1188 1.404 . S
C1189 H1201 0.930 . S
C1190 C1186 1.524 . S
C1190 H1202 0.956 . S
C1190 H1203 0.961 . S
C1190 H1204 0.961 . S
C1191 C1188 1.539 . S
C1191 H1205 0.958 . S
C1191 H1206 0.961 . S
C1191 H1207 0.960 . S
H1192 C1176 0.931 . S
H1193 C1181 0.929 . S
H1194 C1182 0.960 . S
H1195 C1182 0.962 . S
H1196 C1182 0.960 . S
H1197 C1183 0.961 . S
H1198 C1183 0.961 . S
H1199 C1183 0.961 . S
H1200 C1184 0.931 . S
H1201 C1189 0.930 . S
H1202 C1190 0.956 . S
H1203 C1190 0.961 . S
H1204 C1190 0.961 . S
H1205 C1191 0.958 . S
H1206 C1191 0.961 . S
H1207 C1191 0.960 . S
C441 C82 1.708 . S
C449 C178 1.931 . S
C481 C262 1.955 . S
C473 C95 1.721 . S
C513 C328 1.920 . S
C505 C56 1.896 . S
C545 C412 1.913 . S
C537 C69 1.812 . S
C577 C167 1.916 1_565 S
C569 C30 1.696 . S
C601 C43 1.649 . S
C609 C251 1.948 . S
C633 C4 1.770 . S
C641 C339 1.928 . S
C665 C17 1.801 . S
C673 C423 1.897 . S
C705 C174 0.629 1_455 S
C697 C74 0.666 . S
C737 C258 0.589 1_545 S
C729 C87 0.562 . S
C769 C330 0.575 . S
C761 C100 0.552 . S
C793 C61 0.703 . S
C801 C414 0.651 . S
C825 C22 0.653 . S
C833 C162 0.633 . S
C865 C246 0.590 . S
C857 C35 0.545 . S
C897 C342 0.623 . S
C889 C48 0.682 . S
C921 C9 0.701 . S
C929 C426 0.642 . S
C953 C73 2.029 . S
C961 C171 2.059 . S
C985 C86 2.006 . S
C993 C255 2.042 . S
C1025 C335 2.056 . S
C1017 C99 1.845 . S
C1057 C419 2.086 . S
C1049 C60 1.938 . S
C1081 C21 1.963 . S
C1089 C160 2.081 . S
C1121 C244 2.053 . S
C1113 C34 1.935 . S
C1153 C346 2.057 . S
C1145 C47 1.910 . S
C1177 C8 1.867 . S
C1185 C430 2.088 . S
