# Generated by pormake.
# Topology pyr, (3,6)-cn, num edge types: 1
# Building blocks:
#     Node 0, Type 0, BuildingBlock: CUQRIR_clean_linker_1, # of connection points: 3
#     Node 1, Type 0, BuildingBlock: CUQRIR_clean_linker_1, # of connection points: 3
#     Node 2, Type 0, BuildingBlock: CUQRIR_clean_linker_1, # of connection points: 3
#     Node 3, Type 0, BuildingBlock: CUQRIR_clean_linker_1, # of connection points: 3
#     Node 4, Type 0, BuildingBlock: CUQRIR_clean_linker_1, # of connection points: 3
#     Node 5, Type 0, BuildingBlock: CUQRIR_clean_linker_1, # of connection points: 3
#     Node 6, Type 0, BuildingBlock: CUQRIR_clean_linker_1, # of connection points: 3
#     Node 7, Type 0, BuildingBlock: CUQRIR_clean_linker_1, # of connection points: 3
#     Node 8, Type 1, BuildingBlock: BETDAH_clean_sbu_0, # of connection points: 6
#     Node 9, Type 1, BuildingBlock: BETDAH_clean_sbu_0, # of connection points: 6
#     Node 10, Type 1, BuildingBlock: BETDAH_clean_sbu_0, # of connection points: 6
#     Node 11, Type 1, BuildingBlock: BETDAH_clean_sbu_0, # of connection points: 6
#     Edge 12, Type (0, 1), BuildingBlock: EZIPEK_clean_linker_0, # of connection points: 2
#     Edge 13, Type (0, 1), BuildingBlock: EZIPEK_clean_linker_0, # of connection points: 2
#     Edge 14, Type (0, 1), BuildingBlock: EZIPEK_clean_linker_0, # of connection points: 2
#     Edge 15, Type (0, 1), BuildingBlock: EZIPEK_clean_linker_0, # of connection points: 2
#     Edge 16, Type (0, 1), BuildingBlock: EZIPEK_clean_linker_0, # of connection points: 2
#     Edge 17, Type (0, 1), BuildingBlock: EZIPEK_clean_linker_0, # of connection points: 2
#     Edge 18, Type (0, 1), BuildingBlock: EZIPEK_clean_linker_0, # of connection points: 2
#     Edge 19, Type (0, 1), BuildingBlock: EZIPEK_clean_linker_0, # of connection points: 2
#     Edge 20, Type (0, 1), BuildingBlock: EZIPEK_clean_linker_0, # of connection points: 2
#     Edge 21, Type (0, 1), BuildingBlock: EZIPEK_clean_linker_0, # of connection points: 2
#     Edge 22, Type (0, 1), BuildingBlock: EZIPEK_clean_linker_0, # of connection points: 2
#     Edge 23, Type (0, 1), BuildingBlock: EZIPEK_clean_linker_0, # of connection points: 2
#     Edge 24, Type (0, 1), BuildingBlock: EZIPEK_clean_linker_0, # of connection points: 2
#     Edge 25, Type (0, 1), BuildingBlock: EZIPEK_clean_linker_0, # of connection points: 2
#     Edge 26, Type (0, 1), BuildingBlock: EZIPEK_clean_linker_0, # of connection points: 2
#     Edge 27, Type (0, 1), BuildingBlock: EZIPEK_clean_linker_0, # of connection points: 2
#     Edge 28, Type (0, 1), BuildingBlock: EZIPEK_clean_linker_0, # of connection points: 2
#     Edge 29, Type (0, 1), BuildingBlock: EZIPEK_clean_linker_0, # of connection points: 2
#     Edge 30, Type (0, 1), BuildingBlock: EZIPEK_clean_linker_0, # of connection points: 2
#     Edge 31, Type (0, 1), BuildingBlock: EZIPEK_clean_linker_0, # of connection points: 2
#     Edge 32, Type (0, 1), BuildingBlock: EZIPEK_clean_linker_0, # of connection points: 2
#     Edge 33, Type (0, 1), BuildingBlock: EZIPEK_clean_linker_0, # of connection points: 2
#     Edge 34, Type (0, 1), BuildingBlock: EZIPEK_clean_linker_0, # of connection points: 2
#     Edge 35, Type (0, 1), BuildingBlock: EZIPEK_clean_linker_0, # of connection points: 2
# Relax obj value: 0.304
# Max RMSD: 0.275
# Mean RMSD: 0.177
data_MOF--net-pyr--node1-BETDAH_clean_sbu_0--node2-CUQRIR_clean_linker_1--edge1-EZIPEK_clean_linker_0
_symmetry_space_group_name_H-M    P1
_symmetry_Int_Tables_number       1
_symmetry_cell_setting            triclinic
loop_
_symmetry_equiv_pos_as_xyz
'x, y, z'
_cell_length_a     24.907219
_cell_length_b     26.63767
_cell_length_c     24.110494
_cell_angle_alpha  89.351494
_cell_angle_beta   89.59384
_cell_angle_gamma 107.98006
loop_
_atom_site_label
_atom_site_type_symbol
_atom_site_fract_x
_atom_site_fract_y
_atom_site_fract_z
_atom_type_partial_charge
C0 C 0.39233 0.41221 0.26476 0.0
N1 N 0.42389 0.37931 0.26715 0.0
N2 N 0.40562 0.44379 0.21922 0.0
C3 C 0.34356 0.40863 0.30346 0.0
C4 C 0.44819 0.4297 0.1947 0.0
N5 N 0.45882 0.38965 0.22364 0.0
C6 C 0.47767 0.45426 0.14207 0.0
H7 H 0.30953 0.37107 0.29634 0.0
H8 H 0.32622 0.44194 0.29775 0.0
H9 H 0.35777 0.40835 0.34691 0.0
H10 H 0.4961 0.49744 0.14779 0.0
H11 H 0.44662 0.44854 0.1081 0.0
H12 H 0.51153 0.43726 0.13035 0.0
C13 C 0.20527 0.91066 0.65611 0.0
N14 N 0.22018 0.96078 0.67528 0.0
N15 N 0.23427 0.88233 0.68272 0.0
C16 C 0.16048 0.88917 0.61358 0.0
C17 C 0.2661 0.91655 0.71951 0.0
N18 N 0.25699 0.9637 0.71571 0.0
C19 C 0.30487 0.90355 0.76099 0.0
H20 H 0.14846 0.84548 0.61195 0.0
H21 H 0.1759 0.90601 0.57206 0.0
H22 H 0.12282 0.90139 0.62371 0.0
H23 H 0.32639 0.87719 0.74242 0.0
H24 H 0.27964 0.88275 0.79721 0.0
H25 H 0.33704 0.93975 0.77564 0.0
C26 C 0.64435 0.45539 0.89219 0.0
N27 N 0.67733 0.44937 0.93571 0.0
N28 N 0.66558 0.50322 0.86599 0.0
C29 C 0.59072 0.41455 0.87522 0.0
C30 C 0.71274 0.52667 0.89558 0.0
N31 N 0.71993 0.49527 0.93853 0.0
C32 C 0.75164 0.58124 0.88265 0.0
H33 H 0.60099 0.38833 0.84423 0.0
H34 H 0.56148 0.43345 0.85572 0.0
H35 H 0.56952 0.39011 0.91138 0.0
H36 H 0.73689 0.6104 0.90572 0.0
H37 H 0.75126 0.59061 0.83774 0.0
H38 H 0.79551 0.58528 0.8953 0.0
C39 C 0.86398 0.77794 0.38007 0.0
N40 N 0.91654 0.81243 0.36768 0.0
N41 N 0.84384 0.78748 0.43005 0.0
C42 C 0.83274 0.73298 0.34381 0.0
C43 C 0.88554 0.82941 0.4485 0.0
N44 N 0.92953 0.84653 0.41127 0.0
C45 C 0.88075 0.85663 0.50203 0.0
H46 H 0.83834 0.74526 0.29948 0.0
H47 H 0.78707 0.71886 0.35444 0.0
H48 H 0.85023 0.69974 0.34988 0.0
H49 H 0.92281 0.875 0.52045 0.0
H50 H 0.85375 0.82848 0.53269 0.0
H51 H 0.86101 0.88797 0.4936 0.0
C52 C 0.68121 0.91737 0.92089 0.0
N53 N 0.70315 0.89323 0.88189 0.0
N54 N 0.64707 0.9418 0.89766 0.0
C55 C 0.69805 0.92222 0.98096 0.0
C56 C 0.64689 0.93009 0.84326 0.0
N57 N 0.68273 0.90142 0.83236 0.0
C58 C 0.60839 0.9446 0.80297 0.0
H59 H 0.66261 0.92494 1.00762 0.0
H60 H 0.73388 0.95887 0.98606 0.0
H61 H 0.71145 0.88813 0.99492 0.0
H62 H 0.63194 0.98065 0.77928 0.0
H63 H 0.5734 0.95364 0.82524 0.0
H64 H 0.5895 0.91119 0.77504 0.0
C65 C 0.77197 0.25966 0.62867 0.0
N66 N 0.7745 0.21256 0.60755 0.0
N67 N 0.73517 0.27777 0.59946 0.0
C68 C 0.81383 0.2955 0.66715 0.0
C69 C 0.71797 0.24304 0.55834 0.0
N70 N 0.74351 0.20521 0.56139 0.0
C71 C 0.68368 0.25142 0.50954 0.0
H72 H 0.80038 0.28555 0.71084 0.0
H73 H 0.8157 0.3373 0.66086 0.0
H74 H 0.85711 0.29371 0.65975 0.0
H75 H 0.71202 0.26497 0.47297 0.0
H76 H 0.66176 0.28095 0.51832 0.0
H77 H 0.6512 0.21409 0.49865 0.0
C78 C 0.36981 0.79741 0.31225 0.0
N79 N 0.42293 0.82897 0.32548 0.0
N80 N 0.35325 0.80988 0.26196 0.0
C81 C 0.33461 0.75193 0.34734 0.0
C82 C 0.39715 0.85094 0.24442 0.0
N83 N 0.43941 0.8642 0.28247 0.0
C84 C 0.39749 0.88009 0.19033 0.0
H85 H 0.342 0.71504 0.33334 0.0
H86 H 0.28905 0.74719 0.34238 0.0
H87 H 0.34584 0.75777 0.39178 0.0
H88 H 0.38599 0.91641 0.19843 0.0
H89 H 0.36669 0.85574 0.16073 0.0
H90 H 0.44009 0.89181 0.17086 0.0
C91 C 0.14195 0.46777 0.80182 0.0
N92 N 0.1738 0.46137 0.75686 0.0
N93 N 0.16125 0.51726 0.82421 0.0
C94 C 0.09172 0.42508 0.82433 0.0
C95 C 0.20689 0.54078 0.79071 0.0
N96 N 0.21543 0.5078 0.75045 0.0
C97 C 0.24333 0.59705 0.79659 0.0
H98 H 0.05428 0.42402 0.79916 0.0
H99 H 0.08284 0.43262 0.86809 0.0
H100 H 0.09874 0.38603 0.82136 0.0
H101 H 0.28696 0.59801 0.80696 0.0
H102 H 0.22705 0.61788 0.82905 0.0
H103 H 0.24522 0.61819 0.75638 0.0
Ho104 Ho 0.07998 0.18109 0.53152 0.0
Ho105 Ho 0.05794 0.12728 0.62052 0.0
C106 C 0.10212 0.25701 0.63332 0.0
C107 C 0.12833 0.23147 0.44459 0.0
C108 C 0.18515 0.23504 0.42478 0.0
C109 C 0.22353 0.28473 0.41344 0.0
C110 C 0.27955 0.28962 0.40131 0.0
C111 C 0.29836 0.24493 0.3998 0.0
C112 C 0.26032 0.19526 0.41298 0.0
C113 C 0.20401 0.19033 0.42536 0.0
C114 C 0.16582 0.12189 0.55477 0.0
C115 C 1.02756 1.05731 0.50834 0.0
C116 C 0.04358 1.07481 0.71284 0.0
C117 C 0.99303 1.03177 0.73057 0.0
C118 C 0.9718 0.98676 0.69749 0.0
C119 C 0.91674 0.95337 0.70553 0.0
C120 C 0.88235 0.9642 0.74697 0.0
C121 C 0.90462 1.00728 0.78191 0.0
C122 C 0.95972 1.04041 0.77427 0.0
C123 C 0.95898 0.13981 0.58503 0.0
O124 O 0.08605 0.2548 0.58105 0.0
O125 O 0.10078 0.21116 0.65733 0.0
O126 O 0.09024 0.18507 0.44219 0.0
O127 O 0.12747 0.25457 0.49179 0.0
O128 O 0.1416 0.15307 0.57775 0.0
O129 O 0.14122 0.15282 0.57662 0.0
O130 O 0.04357 1.05662 0.56071 0.0
O131 O 1.02974 0.10446 0.48821 0.0
O132 O 1.03638 0.12111 0.70816 0.0
O133 O 0.07162 1.06489 0.67079 0.0
O134 O 0.96658 0.09582 0.59906 0.0
O135 O 1.00586 0.17556 0.58427 0.0
H136 H 0.21028 0.31983 0.41446 0.0
H137 H 0.30794 0.32839 0.39127 0.0
H138 H 0.27381 0.16034 0.41274 0.0
H139 H 0.1753 0.15163 0.43561 0.0
H140 H 0.99615 0.97918 0.66299 0.0
H141 H 0.89993 0.92095 0.67744 0.0
H142 H 0.87798 1.01788 0.81212 0.0
H143 H 0.97463 1.07523 0.7996 0.0
Ho144 Ho 0.62684 0.16629 0.13877 0.0
Ho145 Ho 0.52318 0.15073 0.10196 0.0
C146 C 0.54402 0.21626 0.20286 0.0
C147 C 0.72668 0.20229 0.18041 0.0
C148 C 0.74931 0.18939 0.23291 0.0
C149 C 0.76496 0.22848 0.27323 0.0
C150 C 0.77235 0.21485 0.32776 0.0
C151 C 0.76527 0.16208 0.34266 0.0
C152 C 0.75566 0.12373 0.30147 0.0
C153 C 0.74686 0.13716 0.2468 0.0
C154 C 0.56155 1.06968 0.18426 0.0
C155 C 0.59775 0.09698 1.0328 0.0
C156 C 0.42219 0.12157 0.06194 0.0
C157 C 0.399 0.11049 1.00573 0.0
C158 C 0.41305 1.07347 0.97215 0.0
C159 C 0.38787 1.0606 0.92067 0.0
C160 C 0.3487 0.08473 0.90167 0.0
C161 C 0.3368 0.12383 0.93354 0.0
C162 C 0.36158 0.13637 0.98557 0.0
C163 C 0.5939 0.2476 0.06194 0.0
O164 O 0.59543 0.22744 0.18233 0.0
O165 O 0.5095 0.1712 0.1881 0.0
O166 O 0.71357 0.16573 0.1431 0.0
O167 O 0.68783 0.22527 0.186 0.0
O168 O 0.61353 0.08303 0.16867 0.0
O169 O 0.54589 0.11113 0.17822 0.0
O170 O 0.54631 0.09602 1.04459 0.0
O171 O 0.64029 0.13004 1.05844 0.0
O172 O 0.4501 0.17053 0.07205 0.0
O173 O 0.44678 0.08885 0.08235 0.0
O174 O 0.54445 0.23889 0.08409 0.0
O175 O 0.60501 0.20379 0.06269 0.0
H176 H 0.76735 0.26893 0.26341 0.0
H177 H 0.7805 0.24514 0.35903 0.0
H178 H 0.7511 0.08303 0.3123 0.0
H179 H 0.73501 0.10617 0.21638 0.0
H180 H 0.44235 1.05337 0.98611 0.0
H181 H 0.39749 1.03041 0.89638 0.0
H182 H 0.30651 0.14269 0.91928 0.0
H183 H 0.35058 0.16534 1.01061 0.0
Ho184 Ho 0.52255 0.60746 0.55735 0.0
Ho185 Ho 0.53757 0.69282 0.62437 0.0
C186 C 0.58146 0.60231 0.6783 0.0
C187 C 0.53528 0.52904 0.50273 0.0
C188 C 0.57508 0.49907 0.51287 0.0
C189 C 0.63068 0.52496 0.52966 0.0
C190 C 0.66546 0.49588 0.54778 0.0
C191 C 0.64521 0.4406 0.5492 0.0
C192 C 0.59025 0.41472 0.53111 0.0
C193 C 0.55537 0.44377 0.51324 0.0
C194 C 0.42104 0.60017 0.61091 0.0
C195 C 0.49262 0.70662 0.50315 0.0
C196 C 0.52173 0.75228 0.70208 0.0
C197 C 0.4658 0.75269 0.7207 0.0
C198 C 0.41974 0.70601 0.7176 0.0
C199 C 0.36473 0.70854 0.71408 0.0
C200 C 0.35548 0.75769 0.71408 0.0
C201 C 0.40093 0.80362 0.72289 0.0
C202 C 0.4558 0.80114 0.72638 0.0
C203 C 0.6282 0.71157 0.55222 0.0
O204 O 0.56016 0.57641 0.63274 0.0
O205 O 0.58214 0.65184 0.68305 0.0
O206 O 0.49707 0.52363 0.5414 0.0
O207 O 0.55709 0.57813 0.48646 0.0
O208 O 0.42687 0.59215 0.55847 0.0
O209 O 0.47038 0.61493 0.63092 0.0
O210 O 0.48264 0.71297 0.55633 0.0
O211 O 0.51634 0.66949 0.49244 0.0
O212 O 0.53415 0.76908 0.65123 0.0
O213 O 0.53376 0.70891 0.71201 0.0
O214 O 0.60619 0.74659 0.56962 0.0
O215 O 0.60347 0.66835 0.57752 0.0
H216 H 0.64663 0.56766 0.5307 0.0
H217 H 0.70777 0.5164 0.56156 0.0
H218 H 0.57395 0.37201 0.53206 0.0
H219 H 0.51232 0.42314 0.50171 0.0
H220 H 0.42653 0.66807 0.71273 0.0
H221 H 0.33032 0.67291 0.70664 0.0
H222 H 0.39483 0.84203 0.72197 0.0
H223 H 0.49066 0.83749 0.72785 0.0
Ho224 Ho 1.03306 0.62013 0.13919 0.0
Ho225 Ho 0.04104 0.69622 0.0629 0.0
C226 C 0.14881 0.71502 0.13622 0.0
C227 C 0.05968 0.55004 0.19927 0.0
C228 C 0.11339 0.53753 0.19784 0.0
C229 C 0.1489 0.55244 0.15107 0.0
C230 C 0.20173 0.54449 0.14971 0.0
C231 C 0.21934 0.52 0.19471 0.0
C232 C 0.18401 0.50502 0.24176 0.0
C233 C 0.13144 0.51413 0.2435 0.0
C234 C 0.99018 0.69571 0.18827 0.0
C235 C 0.9235 0.59739 0.06642 0.0
C236 C 1.02494 0.76897 0.99851 0.0
C237 C 0.97447 0.77947 0.97669 0.0
C238 C 0.924 0.76567 1.00785 0.0
C239 C 0.87808 0.78058 0.98956 0.0
C240 C 0.88148 0.80829 0.93918 0.0
C241 C 0.93066 0.81915 0.9063 0.0
C242 C 0.97711 0.8052 0.92524 0.0
C243 C 0.09051 0.62528 1.01685 0.0
O244 O 0.12705 0.66358 0.14132 0.0
O245 O 0.12022 0.74084 0.10849 0.0
O246 O 0.06365 0.59708 0.2165 0.0
O247 O 1.02925 0.53866 0.15471 0.0
O248 O 0.96914 0.64464 0.19284 0.0
O249 O 1.03308 0.70393 0.15571 0.0
O250 O 0.94804 0.64744 1.05204 0.0
O251 O 0.94948 0.57501 0.10168 0.0
O252 O 1.03531 0.72722 0.98009 0.0
O253 O 1.0318 0.77367 1.05184 0.0
O254 O 0.11181 0.67634 1.01652 0.0
O255 O 0.04473 0.6142 1.04605 0.0
H256 H 0.13527 0.57007 0.11551 0.0
H257 H 0.2282 0.55592 0.11299 0.0
H258 H 0.19693 0.48585 0.2768 0.0
H259 H 0.10493 0.50283 0.28022 0.0
H260 H 0.92058 0.74468 1.04705 0.0
H261 H 0.84039 0.77172 1.01532 0.0
H262 H 0.93382 0.84041 0.86723 0.0
H263 H 1.01551 0.81564 0.90043 0.0
C264 C 0.4288 0.33371 0.35591 0.0
C265 C 0.40948 0.33181 0.30058 0.0
C266 C 0.35058 0.24139 0.31667 0.0
C267 C 0.35405 0.25088 0.37375 0.0
N268 N 0.40952 0.29492 0.44913 0.0
N269 N 0.34566 0.28482 0.23013 0.0
C270 C 0.39978 0.29246 0.39355 0.0
C271 C 0.36985 0.28523 0.28064 0.0
N272 N 0.47123 0.37657 0.37272 0.0
N273 N 0.32338 0.19224 0.29771 0.0
H274 H 0.35521 0.31813 0.20462 0.0
H275 H 0.31259 0.25301 0.21629 0.0
H276 H 0.30884 0.15999 0.32481 0.0
H277 H 0.3213 0.18322 0.25565 0.0
H278 H 0.48945 0.37962 0.41169 0.0
H279 H 0.48941 0.40863 0.34623 0.0
H280 H 0.43924 0.32593 0.46841 0.0
H281 H 0.38647 0.26451 0.47574 0.0
C282 C 0.31974 1.04769 0.75148 0.0
C283 C 0.27155 1.00288 0.75845 0.0
C284 C 0.265 1.02258 0.85689 0.0
C285 C 0.31649 1.06405 0.8511 0.0
N286 N 0.38662 0.12446 0.79322 0.0
N287 N 0.19893 0.94531 0.81667 0.0
C288 C 0.34169 1.07951 0.79818 0.0
C289 C 0.24359 0.99044 0.8107 0.0
N290 N 0.34665 1.05694 0.70112 0.0
N291 N 0.23687 1.01387 0.90677 0.0
H292 H 0.18064 0.92191 0.78323 0.0
H293 H 0.18127 0.92943 0.85465 0.0
H294 H 0.25226 1.03556 0.9421 0.0
H295 H 0.19625 0.98803 0.91249 0.0
H296 H 0.38472 0.0862 0.69329 0.0
H297 H 0.33163 1.03319 0.66705 0.0
H298 H 0.40543 0.14038 0.75568 0.0
H299 H 0.40288 0.14819 0.82711 0.0
C300 C 0.60191 0.55221 0.82726 0.0
C301 C 0.64268 0.52563 0.81861 0.0
C302 C 0.64599 0.5511 0.71859 0.0
C303 C 0.60229 0.57482 0.72641 0.0
N304 N 0.53131 0.58801 0.78809 0.0
N305 N 0.69773 0.49342 0.75453 0.0
C306 C 0.57845 0.57273 0.78088 0.0
C307 C 0.66277 0.52317 0.76366 0.0
N308 N 0.58638 0.55882 0.8804 0.0
N309 N 0.67382 0.55768 0.6688 0.0
H310 H 0.71113 0.47372 0.78667 0.0
H311 H 0.70984 0.48499 0.71518 0.0
H312 H 0.66359 0.57834 0.63567 0.0
H313 H 0.70998 0.54682 0.66182 0.0
H314 H 0.56198 0.58284 0.89086 0.0
H315 H 0.6016 0.54316 0.91454 0.0
H316 H 0.50823 0.58248 0.82505 0.0
H317 H 0.51188 0.60162 0.75558 0.0
C318 C 0.95089 0.81067 0.26797 0.0
C319 C 0.95306 0.7969 0.3253 0.0
C320 C 0.99275 0.72562 0.29224 0.0
C321 C 0.98241 0.73421 0.23502 0.0
N322 N 0.95047 0.78711 0.16976 0.0
N323 N 0.97246 0.73589 0.39007 0.0
C324 C 0.96186 0.77795 0.22352 0.0
C325 C 0.97391 0.75332 0.33649 0.0
N326 N 0.938 0.85568 0.25607 0.0
N327 N 1.02244 0.69174 0.30473 0.0
H328 H 0.96051 0.75535 0.42298 0.0
H329 H 0.97932 0.70055 0.40139 0.0
H330 H 1.03804 0.67234 0.27425 0.0
H331 H 1.03676 0.68725 0.34439 0.0
H332 H 0.9392 0.8717 0.21636 0.0
H333 H 0.93149 0.87977 0.28747 0.0
H334 H 0.92993 0.81395 0.15759 0.0
H335 H 0.959 0.76524 0.13721 0.0
C336 C 0.46447 0.31124 0.17511 0.0
C337 C 0.49125 0.35521 0.20758 0.0
C338 C 0.55546 0.30755 0.24142 0.0
C339 C 0.52105 0.2607 0.21604 0.0
N340 N 0.42695 0.2172 0.18108 0.0
N341 N 0.56451 0.39723 0.27062 0.0
C342 C 0.47083 0.26204 0.18932 0.0
C343 C 0.53792 0.35399 0.24025 0.0
N344 N 0.43106 0.31566 0.13214 0.0
N345 N 0.60394 0.30728 0.26725 0.0
H346 H 0.59509 0.398 0.30008 0.0
H347 H 0.554 0.43217 0.26688 0.0
H348 H 0.61445 0.27266 0.27369 0.0
H349 H 0.63394 0.3412 0.28134 0.0
H350 H 0.41295 0.28444 0.1056 0.0
H351 H 0.42728 0.35184 0.11964 0.0
H352 H 0.38939 0.21776 0.16261 0.0
H353 H 0.42362 0.18163 0.20137 0.0
C354 C 0.23472 1.01825 0.59137 0.0
C355 C 0.21321 1.00602 0.64624 0.0
C356 C 0.19183 0.08906 0.64707 0.0
C357 C 0.19571 0.09177 0.58829 0.0
N358 N 0.22591 1.06012 0.50391 0.0
N359 N 0.16362 1.02746 0.72378 0.0
C360 C 0.21934 1.05702 0.56023 0.0
C361 C 0.18997 1.04106 0.67373 0.0
N362 N 0.27159 0.99464 0.57003 0.0
N363 N 0.19162 0.13188 0.67738 0.0
H364 H 0.15462 0.98932 0.73987 0.0
H365 H 0.14518 1.0517 0.74536 0.0
H366 H 0.2005 0.16942 0.65954 0.0
H367 H 0.19124 0.13133 0.72065 0.0
H368 H 0.29172 1.00515 0.53167 0.0
H369 H 0.28719 0.9693 0.59358 0.0
H370 H 0.23667 1.03165 0.48094 0.0
H371 H 0.21762 0.08972 0.48009 0.0
C372 C 0.8145 0.49574 0.97531 0.0
C373 C 0.76574 0.5126 0.97946 0.0
C374 C 0.81922 0.58358 1.04335 0.0
C375 C 0.86758 0.56578 1.04 0.0
N376 N 0.90815 0.49986 1.00728 0.0
N377 N 0.72103 0.57189 1.01951 0.0
C378 C 0.86381 0.51989 1.00799 0.0
C379 C 0.76808 0.55613 1.01459 0.0
N380 N 0.81561 0.45968 0.93596 0.0
N381 N 0.82261 0.62769 0.07338 0.0
H382 H 0.68511 0.55603 0.99582 0.0
H383 H 0.71615 0.59904 1.04818 0.0
H384 H 0.85685 0.64586 0.09849 0.0
H385 H 0.79269 0.64759 0.07263 0.0
H386 H 0.85149 0.44978 0.92492 0.0
H387 H 0.78128 0.44282 0.91072 0.0
H388 H 0.90556 0.46299 0.99148 0.0
H389 H 0.94703 0.51858 1.02506 0.0
C390 C 0.7421 0.78144 0.44247 0.0
C391 C 0.78814 0.76319 0.45621 0.0
C392 C 0.73037 0.7096 0.53305 0.0
C393 C 0.68278 0.72577 0.51753 0.0
N394 N 0.64174 0.76942 0.44895 0.0
N395 N 0.82331 0.70321 0.5081 0.0
C396 C 0.6884 0.75955 0.4698 0.0
C397 C 0.78104 0.72488 0.49934 0.0
N398 N 0.75026 0.8212 0.40406 0.0
N399 N 0.72906 0.68294 0.58201 0.0
H400 H 0.86073 0.71466 0.48481 0.0
H401 H 0.81945 0.67121 0.53472 0.0
H402 H 0.69476 0.67352 0.6093 0.0
H403 H 0.76394 0.67452 0.59834 0.0
H404 H 0.72133 0.84157 0.39691 0.0
H405 H 0.78797 0.83626 0.38185 0.0
H406 H 0.64141 0.78855 0.41112 0.0
H407 H 0.6018 0.75415 0.46672 0.0
C408 C 0.32121 0.44234 0.16566 0.0
C409 C 0.36896 0.47145 0.19622 0.0
C410 C 0.32265 0.53854 0.21659 0.0
C411 C 0.2729 0.50635 0.19087 0.0
N412 N 0.22788 0.43417 0.13061 0.0
N413 N 0.4198 0.54926 0.2442 0.0
C414 C 0.27338 0.46051 0.16177 0.0
C415 C 0.37137 0.52097 0.21858 0.0
N416 N 0.32024 0.39501 0.14403 0.0
N417 N 0.32263 0.58533 0.23938 0.0
H418 H 0.45542 0.53644 0.24488 0.0
H419 H 0.42572 0.5852 0.26353 0.0
H420 H 0.28778 0.59917 0.23758 0.0
H421 H 0.35686 0.61127 0.2591 0.0
H422 H 0.28436 0.36719 0.12896 0.0
H423 H 0.35599 0.38293 0.14237 0.0
H424 H 0.22786 0.40435 0.10312 0.0
H425 H 0.19053 0.44401 0.12943 0.0
C426 C 0.66688 0.35194 0.94558 0.0
C427 C 0.66638 0.40048 0.97018 0.0
C428 C 0.63051 0.34924 1.057 0.0
C429 C 0.62487 0.29988 1.03089 0.0
N430 N 0.63033 0.25576 0.94537 0.0
N431 N 0.63331 0.44076 1.04603 0.0
C432 C 0.64194 0.30176 0.97399 0.0
C433 C 0.64472 0.39779 1.0252 0.0
N434 N 0.69028 0.35362 0.89398 0.0
N435 N 0.62322 0.35019 0.11305 0.0
H436 H 0.63944 0.47507 1.02263 0.0
H437 H 0.61188 0.4402 0.08342 0.0
H438 H 0.6149 0.31642 0.13779 0.0
H439 H 0.6317 0.38495 0.13545 0.0
H440 H 0.69854 0.32142 0.87591 0.0
H441 H 0.70501 0.38843 0.87063 0.0
H442 H 0.63554 0.25417 0.90262 0.0
H443 H 0.61046 0.21897 0.96344 0.0
C444 C 0.94104 0.94394 0.40699 0.0
C445 C 0.9662 0.90273 0.41521 0.0
C446 C 1.0371 0.96628 0.47568 0.0
C447 C 1.00796 1.00527 0.47296 0.0
N448 N 0.93569 1.03216 0.42598 0.0
N449 N 1.03784 0.87572 0.46011 0.0
C450 C 0.96152 0.99446 0.43504 0.0
C451 C 1.01486 0.91508 0.44948 0.0
N452 N 0.89272 0.93204 0.37665 0.0
N453 N 0.08831 0.97913 0.501 0.0
H454 H 1.02449 0.83992 0.43935 0.0
H455 H 0.06765 0.87743 0.49066 0.0
H456 H 0.10728 1.01605 0.51784 0.0
H457 H 0.11483 0.95565 0.50029 0.0
H458 H 0.86598 0.95518 0.37423 0.0
H459 H 0.8775 0.89656 0.35569 0.0
H460 H 0.90835 1.03147 0.39341 0.0
H461 H 0.94267 1.06573 0.44982 0.0
C462 C 0.27169 0.82121 0.63124 0.0
C463 C 0.23643 0.82961 0.67412 0.0
C464 C 0.25884 0.76408 0.73317 0.0
C465 C 0.30169 0.76376 0.69464 0.0
N466 N 0.33247 0.77117 0.59949 0.0
N467 N 0.17889 0.79553 0.75387 0.0
C468 C 0.3015 0.78448 0.6405 0.0
C469 C 0.22271 0.7946 0.7202 0.0
N470 N 0.2813 0.85228 0.58466 0.0
N471 N 0.25625 0.73923 0.78335 0.0
H472 H 0.15426 0.81991 0.74457 0.0
H473 H 0.16476 0.77007 0.78765 0.0
H474 H 0.28267 0.71666 0.79279 0.0
H475 H 0.22924 0.7418 0.81556 0.0
H476 H 0.31238 0.85319 0.55521 0.0
H477 H 0.25869 0.87829 0.57618 0.0
H478 H 0.33153 0.78233 0.55807 0.0
H479 H 0.35506 0.74461 0.60656 0.0
C480 C 0.72459 0.93929 0.7419 0.0
C481 C 0.70766 0.89553 0.77851 0.0
C482 C 0.79899 0.88205 0.76497 0.0
C483 C 0.82091 0.93617 0.74855 0.0
N484 N 0.80171 1.01272 0.70825 0.0
N485 N 0.71322 0.80797 0.78105 0.0
C486 C 0.78288 0.96398 0.73296 0.0
C487 C 0.73972 0.86058 0.77452 0.0
N488 N 0.68664 0.94838 0.70605 0.0
N489 N 0.83429 0.85293 0.7756 0.0
H490 H 0.66962 0.79385 0.78805 0.0
H491 H 0.7334 0.77941 0.77565 0.0
H492 H 0.87799 0.86814 0.77091 0.0
H493 H 0.8203 0.81472 0.79205 0.0
H494 H 0.69799 0.97686 0.67443 0.0
H495 H 0.64588 0.92214 0.70348 0.0
H496 H 0.77504 1.03551 0.70091 0.0
H497 H 0.84378 1.03051 0.6965 0.0
C498 C 0.70709 0.14112 0.48704 0.0
C499 C 0.75332 0.17896 0.51188 0.0
C500 C 0.81265 0.17389 0.43244 0.0
C501 C 0.76371 0.14872 0.40243 0.0
N502 N 0.66343 0.10392 0.40125 0.0
N503 N 0.85037 0.23582 0.50477 0.0
C504 C 0.71079 0.1293 0.43019 0.0
C505 C 0.80679 0.19576 0.48435 0.0
N506 N 0.65887 0.11895 0.51728 0.0
N507 N 0.86435 0.17991 0.40913 0.0
H508 H 0.8475 0.25584 0.54082 0.0
H509 H 0.8881 0.25257 0.48305 0.0
H510 H 0.86842 0.16467 0.37013 0.0
H511 H 0.90197 0.19468 0.43069 0.0
H512 H 0.62553 0.08742 0.50352 0.0
H513 H 0.65401 0.13026 0.55784 0.0
H514 H 0.62268 0.09526 0.41745 0.0
H515 H 0.66467 0.09315 0.36 0.0
C516 C 0.46505 0.75875 0.35524 0.0
C517 C 0.45711 0.80867 0.36548 0.0
C518 C 0.48335 0.79675 0.46389 0.0
C519 C 0.48036 0.74243 0.4557 0.0
N520 N 0.45434 0.67055 0.39073 0.0
N521 N 0.45336 0.87185 0.4339 0.0
C522 C 0.46813 0.72343 0.40032 0.0
C523 C 0.46488 0.82657 0.42116 0.0
N524 N 0.46696 0.74386 0.30155 0.0
N525 N 0.50666 0.8215 0.51116 0.0
H526 H 0.44288 0.89519 0.40345 0.0
H527 H 0.45123 0.88422 0.47449 0.0
H528 H 0.52525 0.80383 0.54091 0.0
H529 H 0.51404 0.8617 0.5174 0.0
H530 H 0.47726 0.71027 0.29027 0.0
H531 H 0.4639 0.76833 0.26841 0.0
H532 H 0.44012 0.65396 0.35255 0.0
H533 H 0.44938 0.64245 0.42229 0.0
C534 C 0.0893 0.55348 0.87285 0.0
C535 C 0.14045 0.53977 0.87379 0.0
C536 C 0.15763 0.58002 0.96816 0.0
C537 C 0.10496 0.59152 0.96909 0.0
N538 N 1.01769 0.58246 0.92165 0.0
N539 N 0.21734 0.53164 0.92818 0.0
C540 C 0.06987 0.57579 0.92128 0.0
C541 C 0.17266 0.55078 0.92327 0.0
N542 N 0.06043 0.54759 0.82424 0.0
N543 N 0.19469 0.5983 1.01001 0.0
H544 H 0.22892 0.51031 0.89673 0.0
H545 H 0.23951 0.53256 0.96479 0.0
H546 H 0.18447 0.61703 1.04415 0.0
H547 H 0.23637 0.59794 1.00928 0.0
H548 H 1.02637 0.56159 0.81732 0.0
H549 H 0.07352 0.53192 0.78904 0.0
H550 H 0.98716 0.56672 0.89199 0.0
H551 H 1.00326 0.60089 0.9538 0.0
C552 C 0.5812 0.96737 0.95844 0.0
C553 C 0.62886 0.98241 0.92324 0.0
C554 C 0.64876 1.07452 0.95088 0.0
C555 C 0.60667 1.05804 0.99304 0.0
N556 N 0.53668 0.98602 1.04133 0.0
N557 N 0.71064 1.04913 0.88666 0.0
C558 C 0.57317 1.00381 0.99758 0.0
C559 C 0.66317 1.03579 0.91926 0.0
N560 N 0.54427 0.91757 0.95479 0.0
N561 N 0.67342 0.12705 0.93957 0.0
H562 H 0.72094 1.02233 0.86084 0.0
H563 H 0.74136 0.08593 0.88752 0.0
H564 H 0.66284 0.1566 0.96073 0.0
H565 H 0.70019 0.14124 0.90568 0.0
H566 H 0.50535 0.90525 0.97527 0.0
H567 H 0.55053 0.89016 0.92686 0.0
H568 H 0.51616 0.9462 1.04944 0.0
H569 H 0.53091 1.00977 0.0733 0.0
C570 C 0.85433 0.19486 0.66083 0.0
C571 C 0.80973 0.17938 0.62325 0.0
C572 C 0.85359 0.11969 0.57995 0.0
C573 C 0.90596 0.14973 0.6027 0.0
N574 N 0.95196 0.20502 0.67929 0.0
N575 N 0.75198 0.0956 0.59158 0.0
C576 C 0.90542 0.18429 0.64763 0.0
C577 C 0.8041 0.13134 0.59646 0.0
N578 N 0.84318 0.20682 0.71351 0.0
N579 N 0.85101 0.08189 0.54148 0.0
H580 H 0.74531 1.0578 0.57609 0.0
H581 H 0.71681 0.10278 0.60945 0.0
H582 H 0.8863 1.07169 0.5288 0.0
H583 H 0.81417 1.06311 0.5201 0.0
H584 H 0.87241 0.21299 0.74544 0.0
H585 H 0.8019 0.20337 0.72592 0.0
H586 H 0.95455 0.23486 0.70775 0.0
H587 H 0.98766 0.19271 0.67711 0.0
C588 C 0.2541 0.80388 0.23869 0.0
C589 C 0.3011 0.78504 0.23231 0.0
C590 C 0.25225 0.72851 0.15635 0.0
C591 C 0.20269 0.74299 0.1663 0.0
N592 N 0.15427 0.78952 0.22377 0.0
N593 N 0.3422 0.724 0.19075 0.0
C594 C 0.2031 0.77963 0.20918 0.0
C595 C 0.29908 0.74542 0.193 0.0
N596 N 0.25871 0.84573 0.27249 0.0
N597 N 0.25593 0.70149 0.10954 0.0
H598 H 0.37725 0.73655 0.21635 0.0
H599 H 0.34094 0.69116 0.16715 0.0
H600 H 0.22495 0.6944 0.07931 0.0
H601 H 0.29205 0.69248 0.0974 0.0
H602 H 0.22878 0.86567 0.27439 0.0
H603 H 0.29469 0.86279 0.29587 0.0
H604 H 0.15038 0.81089 0.25864 0.0
H605 H 0.11621 0.77304 0.20361 0.0
C606 C 0.31838 0.52116 0.72816 0.0
C607 C 0.26428 0.52289 0.71111 0.0
C608 C 0.31332 0.57887 0.63027 0.0
C609 C 0.3664 0.57218 0.64457 0.0
N610 N 0.4126 0.52227 0.70073 0.0
N611 N 0.21079 0.55243 0.64312 0.0
C612 C 0.36686 0.5391 0.69166 0.0
C613 C 0.26214 0.5511 0.6609 0.0
N614 N 0.3247 0.50525 0.781 0.0
N615 N 0.31213 0.61435 0.58929 0.0
H616 H 0.17405 0.53556 0.66625 0.0
H617 H 0.20412 0.56698 0.6044 0.0
H618 H 0.34801 0.63563 0.5668 0.0
H619 H 0.27689 0.62608 0.58058 0.0
H620 H 0.36395 0.50838 0.79798 0.0
H621 H 0.29147 0.49465 0.80967 0.0
H622 H 0.41324 0.49469 0.73152 0.0
H623 H 0.44687 0.53032 0.67343 0.0
C624 C 0.8033 0.90623 0.90293 0.0
C625 C 0.74853 0.87158 0.89306 0.0
C626 C 0.78105 0.79532 0.9111 0.0
C627 C 0.83545 0.82995 0.9234 0.0
N628 N 0.89501 0.91801 0.9439 0.0
N629 N 0.68133 0.78518 0.90271 0.0
C630 C 0.84573 0.88549 0.923 0.0
C631 C 0.7362 0.81665 0.90197 0.0
N632 N 0.81402 0.95904 0.89364 0.0
N633 N 0.77269 0.7424 0.90612 0.0
H634 H 0.64785 0.80002 0.89505 0.0
H635 H 0.66904 0.74549 0.91457 0.0
H636 H 0.80485 0.72538 0.91149 0.0
H637 H 0.7352 0.71616 0.89188 0.0
H638 H 0.85297 0.98715 0.89965 0.0
H639 H 0.78414 0.97458 0.8766 0.0
H640 H 0.90333 0.95835 0.94934 0.0
H641 H 0.9262 0.9041 0.96086 0.0
C642 C 0.5296 0.92481 0.24491 0.0
C643 C 0.48124 0.91763 0.27888 0.0
C644 C 0.49336 1.01388 0.2624 0.0
C645 C 0.53412 1.01793 0.21896 0.0
N646 N 0.5848 0.96939 0.16567 0.0
N647 N 0.41394 0.95671 0.31568 0.0
C648 C 0.55115 0.97142 0.21008 0.0
C649 C 0.46303 0.96302 0.28703 0.0
N650 N 0.55356 0.88524 0.24414 0.0
N651 N 0.48452 1.05849 0.28215 0.0
H652 H 0.39142 0.92086 0.33451 0.0
H653 H 0.39387 0.98569 0.3173 0.0
H654 H 0.50773 0.09621 0.26867 0.0
H655 H 0.45911 1.05836 0.31671 0.0
H656 H 0.59199 0.88868 0.22457 0.0
H657 H 0.5376 0.8513 0.26872 0.0
H658 H 0.59311 0.93503 0.1538 0.0
H659 H 0.59948 0.99957 0.1365 0.0
C660 C 0.18831 0.37423 0.72829 0.0
C661 C 0.16012 0.4131 0.72163 0.0
C662 C 0.09034 0.34765 0.66217 0.0
C663 C 0.12208 0.31095 0.66423 0.0
N664 N 0.20937 0.29725 0.69201 0.0
N665 N 0.08467 0.43641 0.67818 0.0
C666 C 0.1733 0.32667 0.69533 0.0
C667 C 0.11147 0.39949 0.68703 0.0
N668 N 0.22744 0.38094 0.76898 0.0
N669 N 1.03776 0.33188 0.63945 0.0
H670 H 0.0962 0.4725 0.69838 0.0
H671 H 0.05369 0.43286 0.64842 0.0
H672 H 1.01996 0.29471 0.62252 0.0
H673 H 1.0094 0.35344 0.642 0.0
H674 H 0.24585 0.35219 0.78031 0.0
H675 H 0.23635 0.41291 0.79553 0.0
H676 H 0.24971 0.30916 0.70877 0.0
H677 H 0.20139 0.26377 0.66759 0.0
C678 C 0.68468 0.33755 0.63411 0.0
C679 C 0.72727 0.32922 0.59994 0.0
C680 C 0.72586 0.40292 0.53924 0.0
C681 C 0.6803 0.40902 0.57125 0.0
N682 N 0.62881 0.39467 0.65801 0.0
N683 N 0.80104 0.36288 0.53247 0.0
C684 C 0.66402 0.38054 0.62196 0.0
C685 C 0.75264 0.36573 0.55714 0.0
N686 N 0.66191 0.30232 0.67592 0.0
N687 N 0.74075 0.4296 0.48992 0.0
H688 H 0.82044 0.33522 0.54519 0.0
H689 H 0.82445 0.39056 0.50364 0.0
H690 H 0.72191 0.45696 0.47514 0.0
H691 H 0.76926 0.42223 0.46184 0.0
H692 H 0.6263 0.30235 0.69879 0.0
H693 H 0.67781 0.27147 0.68605 0.0
H694 H 0.61892 0.37826 0.69761 0.0
H695 H 0.61374 0.4265 0.65012 0.0
loop_
_geom_bond_atom_site_label_1
_geom_bond_atom_site_label_2
_geom_bond_distance
_geom_bond_site_symmetry_2
_ccdc_geom_bond_type
C0 N1 1.317 . S
C0 N2 1.348 . S
C0 C3 1.485 . S
N1 C0 1.317 . S
N1 N5 1.370 . S
N2 C0 1.348 . S
N2 C4 1.346 . S
C3 C0 1.485 . S
C3 H7 0.960 . S
C3 H8 0.961 . S
C3 H9 0.960 . S
C4 N2 1.346 . S
C4 N5 1.307 . S
C4 C6 1.486 . S
N5 N1 1.370 . S
N5 C4 1.307 . S
C6 C4 1.486 . S
C6 H10 0.960 . S
C6 H11 0.960 . S
C6 H12 0.959 . S
H7 C3 0.960 . S
H8 C3 0.961 . S
H9 C3 0.960 . S
H10 C6 0.960 . S
H11 C6 0.960 . S
H12 C6 0.959 . S
C13 N14 1.317 . S
C13 N15 1.348 . S
C13 C16 1.485 . S
N14 C13 1.317 . S
N14 N18 1.370 . S
N15 C13 1.348 . S
N15 C17 1.346 . S
C16 C13 1.485 . S
C16 H20 0.960 . S
C16 H21 0.961 . S
C16 H22 0.960 . S
C17 N15 1.346 . S
C17 N18 1.307 . S
C17 C19 1.486 . S
N18 N14 1.370 . S
N18 C17 1.307 . S
C19 C17 1.486 . S
C19 H23 0.960 . S
C19 H24 0.960 . S
C19 H25 0.959 . S
H20 C16 0.960 . S
H21 C16 0.961 . S
H22 C16 0.960 . S
H23 C19 0.960 . S
H24 C19 0.960 . S
H25 C19 0.959 . S
C26 N27 1.317 . S
C26 N28 1.348 . S
C26 C29 1.485 . S
N27 C26 1.317 . S
N27 N31 1.370 . S
N28 C26 1.348 . S
N28 C30 1.346 . S
C29 C26 1.485 . S
C29 H33 0.960 . S
C29 H34 0.961 . S
C29 H35 0.960 . S
C30 N28 1.346 . S
C30 N31 1.307 . S
C30 C32 1.486 . S
N31 N27 1.370 . S
N31 C30 1.307 . S
C32 C30 1.486 . S
C32 H36 0.960 . S
C32 H37 0.960 . S
C32 H38 0.959 . S
H33 C29 0.960 . S
H34 C29 0.961 . S
H35 C29 0.960 . S
H36 C32 0.960 . S
H37 C32 0.960 . S
H38 C32 0.959 . S
C39 N40 1.317 . S
C39 N41 1.348 . S
C39 C42 1.485 . S
N40 C39 1.317 . S
N40 N44 1.370 . S
N41 C39 1.348 . S
N41 C43 1.346 . S
C42 C39 1.485 . S
C42 H46 0.960 . S
C42 H47 0.961 . S
C42 H48 0.960 . S
C43 N41 1.346 . S
C43 N44 1.307 . S
C43 C45 1.486 . S
N44 N40 1.370 . S
N44 C43 1.307 . S
C45 C43 1.486 . S
C45 H49 0.960 . S
C45 H50 0.960 . S
C45 H51 0.959 . S
H46 C42 0.960 . S
H47 C42 0.961 . S
H48 C42 0.960 . S
H49 C45 0.960 . S
H50 C45 0.960 . S
H51 C45 0.959 . S
C52 N53 1.317 . S
C52 N54 1.348 . S
C52 C55 1.485 . S
N53 C52 1.317 . S
N53 N57 1.370 . S
N54 C52 1.348 . S
N54 C56 1.346 . S
C55 C52 1.485 . S
C55 H59 0.960 . S
C55 H60 0.961 . S
C55 H61 0.960 . S
C56 N54 1.346 . S
C56 N57 1.307 . S
C56 C58 1.486 . S
N57 N53 1.370 . S
N57 C56 1.307 . S
C58 C56 1.486 . S
C58 H62 0.960 . S
C58 H63 0.960 . S
C58 H64 0.959 . S
H59 C55 0.960 . S
H60 C55 0.961 . S
H61 C55 0.960 . S
H62 C58 0.960 . S
H63 C58 0.960 . S
H64 C58 0.959 . S
C65 N66 1.317 . S
C65 N67 1.348 . S
C65 C68 1.485 . S
N66 C65 1.317 . S
N66 N70 1.370 . S
N67 C65 1.348 . S
N67 C69 1.346 . S
C68 C65 1.485 . S
C68 H72 0.960 . S
C68 H73 0.961 . S
C68 H74 0.960 . S
C69 N67 1.346 . S
C69 N70 1.307 . S
C69 C71 1.486 . S
N70 N66 1.370 . S
N70 C69 1.307 . S
C71 C69 1.486 . S
C71 H75 0.960 . S
C71 H76 0.960 . S
C71 H77 0.959 . S
H72 C68 0.960 . S
H73 C68 0.961 . S
H74 C68 0.960 . S
H75 C71 0.960 . S
H76 C71 0.960 . S
H77 C71 0.959 . S
C78 N79 1.317 . S
C78 N80 1.348 . S
C78 C81 1.485 . S
N79 C78 1.317 . S
N79 N83 1.370 . S
N80 C78 1.348 . S
N80 C82 1.346 . S
C81 C78 1.485 . S
C81 H85 0.960 . S
C81 H86 0.961 . S
C81 H87 0.960 . S
C82 N80 1.346 . S
C82 N83 1.307 . S
C82 C84 1.486 . S
N83 N79 1.370 . S
N83 C82 1.307 . S
C84 C82 1.486 . S
C84 H88 0.960 . S
C84 H89 0.960 . S
C84 H90 0.959 . S
H85 C81 0.960 . S
H86 C81 0.961 . S
H87 C81 0.960 . S
H88 C84 0.960 . S
H89 C84 0.960 . S
H90 C84 0.959 . S
C91 N92 1.317 . S
C91 N93 1.348 . S
C91 C94 1.485 . S
N92 C91 1.317 . S
N92 N96 1.370 . S
N93 C91 1.348 . S
N93 C95 1.346 . S
C94 C91 1.485 . S
C94 H98 0.960 . S
C94 H99 0.961 . S
C94 H100 0.960 . S
C95 N93 1.346 . S
C95 N96 1.307 . S
C95 C97 1.486 . S
N96 N92 1.370 . S
N96 C95 1.307 . S
C97 C95 1.486 . S
C97 H101 0.960 . S
C97 H102 0.960 . S
C97 H103 0.959 . S
H98 C94 0.960 . S
H99 C94 0.961 . S
H100 C94 0.960 . S
H101 C97 0.960 . S
H102 C97 0.960 . S
H103 C97 0.959 . S
Ho104 C107 2.811 . S
Ho104 O124 2.322 . S
Ho104 O126 2.378 . S
Ho104 O127 2.524 . S
Ho104 O128 2.381 . S
Ho104 O129 2.669 . S
Ho104 O131 2.346 1_545 S
Ho104 O135 2.305 . S
Ho105 C116 2.811 1_545 S
Ho105 O125 2.346 1_655 S
Ho105 O129 2.305 1_655 S
Ho105 O130 2.322 1_545 S
Ho105 O132 2.378 1_545 S
Ho105 O133 2.524 1_545 S
Ho105 O134 2.381 . S
Ho105 O135 2.669 1_655 S
C106 O124 1.259 . S
C106 O125 1.268 . S
C107 Ho104 2.811 . S
C107 C108 1.488 . S
C107 O126 1.215 . S
C107 O127 1.289 . S
C108 C107 1.488 . S
C108 C109 1.348 . S
C108 C113 1.413 . S
C109 C108 1.348 . S
C109 C110 1.442 . S
C109 H136 0.930 . S
C110 C109 1.442 . S
C110 C111 1.381 . S
C110 H137 0.931 . S
C111 C110 1.381 . S
C111 C112 1.321 . S
C112 C111 1.321 . S
C112 C113 1.403 . S
C112 H138 0.934 . S
C113 C108 1.413 . S
C113 C112 1.403 . S
C113 H139 0.930 . S
C114 O128 1.275 1_565 S
C114 O129 1.256 1_565 S
C115 O130 1.259 . S
C115 O131 1.268 1_655 S
C116 Ho105 2.811 1_565 S
C116 C117 1.488 . S
C116 O132 1.215 . S
C116 O133 1.289 . S
C117 C116 1.488 . S
C117 C118 1.348 . S
C117 C122 1.413 . S
C118 C117 1.348 . S
C118 C119 1.442 . S
C118 H140 0.930 . S
C119 C118 1.442 . S
C119 C120 1.381 . S
C119 H141 0.931 . S
C120 C119 1.381 . S
C120 C121 1.321 . S
C121 C120 1.321 . S
C121 C122 1.403 . S
C121 H142 0.934 . S
C122 C117 1.413 . S
C122 C121 1.403 . S
C122 H143 0.930 . S
C123 O134 1.275 . S
C123 O135 1.256 1_655 S
O124 Ho104 2.322 . S
O124 C106 1.259 . S
O125 Ho105 2.346 1_455 S
O125 C106 1.268 . S
O126 Ho104 2.378 . S
O126 C107 1.215 . S
O127 Ho104 2.524 . S
O127 C107 1.289 . S
O128 Ho104 2.381 . S
O128 C114 1.275 1_545 S
O129 Ho104 2.669 . S
O129 Ho105 2.305 1_455 S
O129 C114 1.256 1_545 S
O130 Ho105 2.322 1_565 S
O130 C115 1.259 . S
O131 Ho104 2.346 1_565 S
O131 C115 1.268 1_455 S
O132 Ho105 2.378 1_565 S
O132 C116 1.215 . S
O133 Ho105 2.524 1_565 S
O133 C116 1.289 . S
O134 Ho105 2.381 . S
O134 C123 1.275 . S
O135 Ho104 2.305 . S
O135 Ho105 2.669 1_455 S
O135 C123 1.256 1_455 S
H136 C109 0.930 . S
H137 C110 0.931 . S
H138 C112 0.934 . S
H139 C113 0.930 . S
H140 C118 0.930 . S
H141 C119 0.931 . S
H142 C121 0.934 . S
H143 C122 0.930 . S
Ho144 C147 2.811 . S
Ho144 O164 2.322 . S
Ho144 O166 2.378 . S
Ho144 O167 2.524 . S
Ho144 O168 2.381 1_545 S
Ho144 O169 2.669 . S
Ho144 O171 2.346 . S
Ho144 O175 2.305 . S
Ho145 C156 2.811 1_554 S
Ho145 O165 2.346 . S
Ho145 O169 2.305 . S
Ho145 O170 2.322 1_554 S
Ho145 O172 2.378 1_554 S
Ho145 O173 2.524 1_544 S
Ho145 O174 2.381 1_554 S
Ho145 O175 2.669 . S
C146 O164 1.259 . S
C146 O165 1.268 . S
C147 Ho144 2.811 . S
C147 C148 1.488 . S
C147 O166 1.215 . S
C147 O167 1.289 . S
C148 C147 1.488 . S
C148 C149 1.348 . S
C148 C153 1.413 . S
C149 C148 1.348 . S
C149 C150 1.442 . S
C149 H176 0.930 . S
C150 C149 1.442 . S
C150 C151 1.381 . S
C150 H177 0.931 . S
C151 C150 1.381 . S
C151 C152 1.321 . S
C152 C151 1.321 . S
C152 C153 1.403 . S
C152 H178 0.934 . S
C153 C148 1.413 . S
C153 C152 1.403 . S
C153 H179 0.930 . S
C154 O168 1.275 . S
C154 O169 1.256 1_565 S
C155 O170 1.259 . S
C155 O171 1.268 1_556 S
C156 Ho145 2.811 1_556 S
C156 C157 1.488 1_545 S
C156 O172 1.215 . S
C156 O173 1.289 1_545 S
C157 C156 1.488 1_565 S
C157 C158 1.348 . S
C157 C162 1.413 1_565 S
C158 C157 1.348 . S
C158 C159 1.442 . S
C158 H180 0.930 . S
C159 C158 1.442 . S
C159 C160 1.381 . S
C159 H181 0.931 . S
C160 C159 1.381 . S
C160 C161 1.321 . S
C161 C160 1.321 . S
C161 C162 1.403 1_565 S
C161 H182 0.934 . S
C162 C157 1.413 1_545 S
C162 C161 1.403 1_545 S
C162 H183 0.930 . S
C163 O174 1.275 1_554 S
C163 O175 1.256 . S
O164 Ho144 2.322 . S
O164 C146 1.259 . S
O165 Ho145 2.346 . S
O165 C146 1.268 . S
O166 Ho144 2.378 . S
O166 C147 1.215 . S
O167 Ho144 2.524 . S
O167 C147 1.289 . S
O168 Ho144 2.381 1_565 S
O168 C154 1.275 . S
O169 Ho144 2.669 . S
O169 Ho145 2.305 . S
O169 C154 1.256 1_545 S
O170 Ho145 2.322 1_556 S
O170 C155 1.259 . S
O171 Ho144 2.346 . S
O171 C155 1.268 1_554 S
O172 Ho145 2.378 1_556 S
O172 C156 1.215 . S
O173 Ho145 2.524 1_566 S
O173 C156 1.289 1_565 S
O174 Ho145 2.381 1_556 S
O174 C163 1.275 1_556 S
O175 Ho144 2.305 . S
O175 Ho145 2.669 . S
O175 C163 1.256 . S
H176 C149 0.930 . S
H177 C150 0.931 . S
H178 C152 0.934 . S
H179 C153 0.930 . S
H180 C158 0.930 . S
H181 C159 0.931 . S
H182 C161 0.934 . S
H183 C162 0.930 . S
Ho184 C187 2.811 . S
Ho184 O204 2.322 . S
Ho184 O206 2.378 . S
Ho184 O207 2.524 . S
Ho184 O208 2.381 . S
Ho184 O209 2.669 . S
Ho184 O211 2.346 . S
Ho184 O215 2.305 . S
Ho185 C196 2.811 . S
Ho185 O205 2.346 . S
Ho185 O209 2.305 . S
Ho185 O210 2.322 . S
Ho185 O212 2.378 . S
Ho185 O213 2.524 . S
Ho185 O214 2.381 . S
Ho185 O215 2.669 . S
C186 O204 1.259 . S
C186 O205 1.268 . S
C187 Ho184 2.811 . S
C187 C188 1.488 . S
C187 O206 1.215 . S
C187 O207 1.289 . S
C188 C187 1.488 . S
C188 C189 1.348 . S
C188 C193 1.413 . S
C189 C188 1.348 . S
C189 C190 1.442 . S
C189 H216 0.930 . S
C190 C189 1.442 . S
C190 C191 1.381 . S
C190 H217 0.931 . S
C191 C190 1.381 . S
C191 C192 1.321 . S
C192 C191 1.321 . S
C192 C193 1.403 . S
C192 H218 0.934 . S
C193 C188 1.413 . S
C193 C192 1.403 . S
C193 H219 0.930 . S
C194 O208 1.275 . S
C194 O209 1.256 . S
C195 O210 1.259 . S
C195 O211 1.268 . S
C196 Ho185 2.811 . S
C196 C197 1.488 . S
C196 O212 1.215 . S
C196 O213 1.289 . S
C197 C196 1.488 . S
C197 C198 1.348 . S
C197 C202 1.413 . S
C198 C197 1.348 . S
C198 C199 1.442 . S
C198 H220 0.930 . S
C199 C198 1.442 . S
C199 C200 1.381 . S
C199 H221 0.931 . S
C200 C199 1.381 . S
C200 C201 1.321 . S
C201 C200 1.321 . S
C201 C202 1.403 . S
C201 H222 0.934 . S
C202 C197 1.413 . S
C202 C201 1.403 . S
C202 H223 0.930 . S
C203 O214 1.275 . S
C203 O215 1.256 . S
O204 Ho184 2.322 . S
O204 C186 1.259 . S
O205 Ho185 2.346 . S
O205 C186 1.268 . S
O206 Ho184 2.378 . S
O206 C187 1.215 . S
O207 Ho184 2.524 . S
O207 C187 1.289 . S
O208 Ho184 2.381 . S
O208 C194 1.275 . S
O209 Ho184 2.669 . S
O209 Ho185 2.305 . S
O209 C194 1.256 . S
O210 Ho185 2.322 . S
O210 C195 1.259 . S
O211 Ho184 2.346 . S
O211 C195 1.268 . S
O212 Ho185 2.378 . S
O212 C196 1.215 . S
O213 Ho185 2.524 . S
O213 C196 1.289 . S
O214 Ho185 2.381 . S
O214 C203 1.275 . S
O215 Ho184 2.305 . S
O215 Ho185 2.669 . S
O215 C203 1.256 . S
H216 C189 0.930 . S
H217 C190 0.931 . S
H218 C192 0.934 . S
H219 C193 0.930 . S
H220 C198 0.930 . S
H221 C199 0.931 . S
H222 C201 0.934 . S
H223 C202 0.930 . S
Ho224 C227 2.811 . S
Ho224 O244 2.322 . S
Ho224 O246 2.378 . S
Ho224 O247 2.524 . S
Ho224 O248 2.381 1_455 S
Ho224 O249 2.669 1_455 S
Ho224 O251 2.346 1_455 S
Ho224 O255 2.305 1_554 S
Ho225 C236 2.814 . S
Ho225 O245 2.342 1_656 S
Ho225 O249 2.305 1_556 S
Ho225 O250 2.324 . S
Ho225 O252 2.380 . S
Ho225 O253 2.528 . S
Ho225 O254 2.379 1_655 S
Ho225 O255 2.667 1_655 S
C226 O244 1.259 . S
C226 O245 1.268 . S
C227 Ho224 2.811 . S
C227 C228 1.488 . S
C227 O246 1.215 . S
C227 O247 1.289 . S
C228 C227 1.488 . S
C228 C229 1.348 . S
C228 C233 1.413 . S
C229 C228 1.348 . S
C229 C230 1.442 . S
C229 H256 0.930 . S
C230 C229 1.442 . S
C230 C231 1.381 . S
C230 H257 0.931 . S
C231 C230 1.381 . S
C231 C232 1.321 . S
C232 C231 1.321 . S
C232 C233 1.403 . S
C232 H258 0.934 . S
C233 C228 1.413 . S
C233 C232 1.403 . S
C233 H259 0.930 . S
C234 O248 1.275 . S
C234 O249 1.256 . S
C235 O250 1.259 . S
C235 O251 1.268 1_556 S
C236 Ho225 2.814 . S
C236 C237 1.488 . S
C236 O252 1.215 . S
C236 O253 1.289 . S
C237 C236 1.488 . S
C237 C238 1.348 . S
C237 C242 1.413 . S
C238 C237 1.348 . S
C238 C239 1.442 . S
C238 H260 0.930 . S
C239 C238 1.442 . S
C239 C240 1.381 . S
C239 H261 0.931 . S
C240 C239 1.381 . S
C240 C241 1.321 . S
C241 C240 1.321 . S
C241 C242 1.403 . S
C241 H262 0.934 . S
C242 C237 1.413 . S
C242 C241 1.403 . S
C242 H263 0.930 . S
C243 O254 1.275 . S
C243 O255 1.256 . S
O244 Ho224 2.322 . S
O244 C226 1.259 . S
O245 Ho225 2.342 1_454 S
O245 C226 1.268 . S
O246 Ho224 2.378 . S
O246 C227 1.215 . S
O247 Ho224 2.524 . S
O247 C227 1.289 . S
O248 Ho224 2.381 1_655 S
O248 C234 1.275 . S
O249 Ho224 2.669 1_655 S
O249 Ho225 2.305 1_554 S
O249 C234 1.256 . S
O250 Ho225 2.324 . S
O250 C235 1.259 . S
O251 Ho224 2.346 1_655 S
O251 C235 1.268 1_554 S
O252 Ho225 2.380 . S
O252 C236 1.215 . S
O253 Ho225 2.528 . S
O253 C236 1.289 . S
O254 Ho225 2.379 1_455 S
O254 C243 1.275 . S
O255 Ho224 2.305 1_556 S
O255 Ho225 2.667 1_455 S
O255 C243 1.256 . S
H256 C229 0.930 . S
H257 C230 0.931 . S
H258 C232 0.934 . S
H259 C233 0.930 . S
H260 C238 0.930 . S
H261 C239 0.931 . S
H262 C241 0.934 . S
H263 C242 0.930 . S
C264 C265 1.363 . S
C264 C270 1.379 . S
C264 N272 1.356 . S
C265 C264 1.363 . S
C265 C271 1.363 . S
C266 C267 1.363 . S
C266 C271 1.379 . S
C266 N273 1.356 . S
C267 C266 1.363 . S
C267 C270 1.363 . S
N268 C270 1.356 . S
N268 H280 0.984 . S
N268 H281 0.985 . S
N269 C271 1.356 . S
N269 H274 0.984 . S
N269 H275 0.985 . S
C270 C264 1.379 . S
C270 C267 1.363 . S
C270 N268 1.356 . S
C271 C265 1.363 . S
C271 C266 1.379 . S
C271 N269 1.356 . S
N272 C264 1.356 . S
N272 H278 0.984 . S
N272 H279 0.984 . S
N273 C266 1.356 . S
N273 H276 0.984 . S
N273 H277 0.985 . S
H274 N269 0.984 . S
H275 N269 0.985 . S
H276 N273 0.984 . S
H277 N273 0.985 . S
H278 N272 0.984 . S
H279 N272 0.984 . S
H280 N268 0.984 . S
H281 N268 0.985 . S
C282 C283 1.363 . S
C282 C288 1.379 . S
C282 N290 1.356 . S
C283 C282 1.363 . S
C283 C289 1.363 . S
C284 C285 1.363 . S
C284 C289 1.379 . S
C284 N291 1.356 . S
C285 C284 1.363 . S
C285 C288 1.363 . S
N286 C288 1.356 . S
N286 H298 0.984 1_565 S
N286 H299 0.985 . S
N287 C289 1.356 . S
N287 H292 0.984 . S
N287 H293 0.985 . S
C288 C282 1.379 . S
C288 C285 1.363 . S
C288 N286 1.356 . S
C289 C283 1.363 . S
C289 C284 1.379 . S
C289 N287 1.356 . S
N290 C282 1.356 . S
N290 H296 0.984 1_565 S
N290 H297 0.984 . S
N291 C284 1.356 . S
N291 H294 0.984 . S
N291 H295 0.985 . S
H292 N287 0.984 . S
H293 N287 0.985 . S
H294 N291 0.984 . S
H295 N291 0.985 . S
H296 N290 0.984 1_545 S
H297 N290 0.984 . S
H298 N286 0.984 1_545 S
H299 N286 0.985 . S
C300 C301 1.363 . S
C300 C306 1.379 . S
C300 N308 1.356 . S
C301 C300 1.363 . S
C301 C307 1.363 . S
C302 C303 1.363 . S
C302 C307 1.379 . S
C302 N309 1.356 . S
C303 C302 1.363 . S
C303 C306 1.363 . S
N304 C306 1.356 . S
N304 H316 0.984 . S
N304 H317 0.985 . S
N305 C307 1.356 . S
N305 H310 0.984 . S
N305 H311 0.985 . S
C306 C300 1.379 . S
C306 C303 1.363 . S
C306 N304 1.356 . S
C307 C301 1.363 . S
C307 C302 1.379 . S
C307 N305 1.356 . S
N308 C300 1.356 . S
N308 H314 0.984 . S
N308 H315 0.984 . S
N309 C302 1.356 . S
N309 H312 0.984 . S
N309 H313 0.985 . S
H310 N305 0.984 . S
H311 N305 0.985 . S
H312 N309 0.984 . S
H313 N309 0.985 . S
H314 N308 0.984 . S
H315 N308 0.984 . S
H316 N304 0.984 . S
H317 N304 0.985 . S
C318 C319 1.363 . S
C318 C324 1.379 . S
C318 N326 1.356 . S
C319 C318 1.363 . S
C319 C325 1.363 . S
C320 C321 1.363 . S
C320 C325 1.379 . S
C320 N327 1.356 . S
C321 C320 1.363 . S
C321 C324 1.363 . S
N322 C324 1.356 . S
N322 H334 0.984 . S
N322 H335 0.985 . S
N323 C325 1.356 . S
N323 H328 0.984 . S
N323 H329 0.985 . S
C324 C318 1.379 . S
C324 C321 1.363 . S
C324 N322 1.356 . S
C325 C319 1.363 . S
C325 C320 1.379 . S
C325 N323 1.356 . S
N326 C318 1.356 . S
N326 H332 0.984 . S
N326 H333 0.984 . S
N327 C320 1.356 . S
N327 H330 0.984 . S
N327 H331 0.985 . S
H328 N323 0.984 . S
H329 N323 0.985 . S
H330 N327 0.984 . S
H331 N327 0.985 . S
H332 N326 0.984 . S
H333 N326 0.984 . S
H334 N322 0.984 . S
H335 N322 0.985 . S
C336 C337 1.363 . S
C336 C342 1.379 . S
C336 N344 1.356 . S
C337 C336 1.363 . S
C337 C343 1.363 . S
C338 C339 1.363 . S
C338 C343 1.379 . S
C338 N345 1.356 . S
C339 C338 1.363 . S
C339 C342 1.363 . S
N340 C342 1.356 . S
N340 H352 0.984 . S
N340 H353 0.985 . S
N341 C343 1.356 . S
N341 H346 0.984 . S
N341 H347 0.985 . S
C342 C336 1.379 . S
C342 C339 1.363 . S
C342 N340 1.356 . S
C343 C337 1.363 . S
C343 C338 1.379 . S
C343 N341 1.356 . S
N344 C336 1.356 . S
N344 H350 0.984 . S
N344 H351 0.984 . S
N345 C338 1.356 . S
N345 H348 0.984 . S
N345 H349 0.985 . S
H346 N341 0.984 . S
H347 N341 0.985 . S
H348 N345 0.984 . S
H349 N345 0.985 . S
H350 N344 0.984 . S
H351 N344 0.984 . S
H352 N340 0.984 . S
H353 N340 0.985 . S
C354 C355 1.363 . S
C354 C360 1.379 . S
C354 N362 1.356 . S
C355 C354 1.363 . S
C355 C361 1.363 . S
C356 C357 1.363 . S
C356 C361 1.379 . S
C356 N363 1.356 . S
C357 C356 1.363 . S
C357 C360 1.363 . S
N358 C360 1.356 1_545 S
N358 H370 0.984 . S
N358 H371 0.985 . S
N359 C361 1.356 . S
N359 H364 0.984 . S
N359 H365 0.985 . S
C360 C354 1.379 . S
C360 C357 1.363 . S
C360 N358 1.356 1_565 S
C361 C355 1.363 . S
C361 C356 1.379 . S
C361 N359 1.356 . S
N362 C354 1.356 . S
N362 H368 0.984 . S
N362 H369 0.984 . S
N363 C356 1.356 . S
N363 H366 0.984 1_565 S
N363 H367 0.985 . S
H364 N359 0.984 . S
H365 N359 0.985 . S
H366 N363 0.984 1_545 S
H367 N363 0.985 . S
H368 N362 0.984 . S
H369 N362 0.984 . S
H370 N358 0.984 . S
H371 N358 0.985 . S
C372 C373 1.363 . S
C372 C378 1.379 . S
C372 N380 1.356 . S
C373 C372 1.363 . S
C373 C379 1.363 . S
C374 C375 1.363 . S
C374 C379 1.379 . S
C374 N381 1.356 . S
C375 C374 1.363 . S
C375 C378 1.363 . S
N376 C378 1.356 . S
N376 H388 0.984 . S
N376 H389 0.985 . S
N377 C379 1.356 . S
N377 H382 0.984 . S
N377 H383 0.985 . S
C378 C372 1.379 . S
C378 C375 1.363 . S
C378 N376 1.356 . S
C379 C373 1.363 . S
C379 C374 1.379 . S
C379 N377 1.356 . S
N380 C372 1.356 . S
N380 H386 0.984 . S
N380 H387 0.984 . S
N381 C374 1.356 . S
N381 H384 0.984 . S
N381 H385 0.985 . S
H382 N377 0.984 . S
H383 N377 0.985 . S
H384 N381 0.984 . S
H385 N381 0.985 . S
H386 N380 0.984 . S
H387 N380 0.984 . S
H388 N376 0.984 . S
H389 N376 0.985 . S
C390 C391 1.363 . S
C390 C396 1.379 . S
C390 N398 1.356 . S
C391 C390 1.363 . S
C391 C397 1.363 . S
C392 C393 1.363 . S
C392 C397 1.379 . S
C392 N399 1.356 . S
C393 C392 1.363 . S
C393 C396 1.363 . S
N394 C396 1.356 . S
N394 H406 0.984 . S
N394 H407 0.985 . S
N395 C397 1.356 . S
N395 H400 0.984 . S
N395 H401 0.985 . S
C396 C390 1.379 . S
C396 C393 1.363 . S
C396 N394 1.356 . S
C397 C391 1.363 . S
C397 C392 1.379 . S
C397 N395 1.356 . S
N398 C390 1.356 . S
N398 H404 0.984 . S
N398 H405 0.984 . S
N399 C392 1.356 . S
N399 H402 0.984 . S
N399 H403 0.985 . S
H400 N395 0.984 . S
H401 N395 0.985 . S
H402 N399 0.984 . S
H403 N399 0.985 . S
H404 N398 0.984 . S
H405 N398 0.984 . S
H406 N394 0.984 . S
H407 N394 0.985 . S
C408 C409 1.363 . S
C408 C414 1.379 . S
C408 N416 1.356 . S
C409 C408 1.363 . S
C409 C415 1.363 . S
C410 C411 1.363 . S
C410 C415 1.379 . S
C410 N417 1.356 . S
C411 C410 1.363 . S
C411 C414 1.363 . S
N412 C414 1.356 . S
N412 H424 0.984 . S
N412 H425 0.985 . S
N413 C415 1.356 . S
N413 H418 0.984 . S
N413 H419 0.985 . S
C414 C408 1.379 . S
C414 C411 1.363 . S
C414 N412 1.356 . S
C415 C409 1.363 . S
C415 C410 1.379 . S
C415 N413 1.356 . S
N416 C408 1.356 . S
N416 H422 0.984 . S
N416 H423 0.984 . S
N417 C410 1.356 . S
N417 H420 0.984 . S
N417 H421 0.985 . S
H418 N413 0.984 . S
H419 N413 0.985 . S
H420 N417 0.984 . S
H421 N417 0.985 . S
H422 N416 0.984 . S
H423 N416 0.984 . S
H424 N412 0.984 . S
H425 N412 0.985 . S
C426 C427 1.363 . S
C426 C432 1.379 . S
C426 N434 1.356 . S
C427 C426 1.363 . S
C427 C433 1.363 . S
C428 C429 1.363 . S
C428 C433 1.379 . S
C428 N435 1.356 1_556 S
C429 C428 1.363 . S
C429 C432 1.363 . S
N430 C432 1.356 . S
N430 H442 0.984 . S
N430 H443 0.985 . S
N431 C433 1.356 . S
N431 H436 0.984 . S
N431 H437 0.985 1_556 S
C432 C426 1.379 . S
C432 C429 1.363 . S
C432 N430 1.356 . S
C433 C427 1.363 . S
C433 C428 1.379 . S
C433 N431 1.356 . S
N434 C426 1.356 . S
N434 H440 0.984 . S
N434 H441 0.984 . S
N435 C428 1.356 1_554 S
N435 H438 0.984 . S
N435 H439 0.985 . S
H436 N431 0.984 . S
H437 N431 0.985 1_554 S
H438 N435 0.984 . S
H439 N435 0.985 . S
H440 N434 0.984 . S
H441 N434 0.984 . S
H442 N430 0.984 . S
H443 N430 0.985 . S
C444 C445 1.363 . S
C444 C450 1.379 . S
C444 N452 1.356 . S
C445 C444 1.363 . S
C445 C451 1.363 . S
C446 C447 1.363 . S
C446 C451 1.379 . S
C446 N453 1.356 . S
C447 C446 1.363 . S
C447 C450 1.363 . S
N448 C450 1.356 1_455 S
N448 H460 0.984 . S
N448 H461 0.985 . S
N449 C451 1.356 . S
N449 H454 0.984 . S
N449 H455 0.985 . S
C450 C444 1.379 . S
C450 C447 1.363 . S
C450 N448 1.356 1_655 S
C451 C445 1.363 . S
C451 C446 1.379 . S
C451 N449 1.356 . S
N452 C444 1.356 . S
N452 H458 0.984 . S
N452 H459 0.984 . S
N453 C446 1.356 . S
N453 H456 0.984 . S
N453 H457 0.985 . S
H454 N449 0.984 . S
H455 N449 0.985 . S
H456 N453 0.984 . S
H457 N453 0.985 . S
H458 N452 0.984 . S
H459 N452 0.984 . S
H460 N448 0.984 . S
H461 N448 0.985 . S
C462 C463 1.363 . S
C462 C468 1.379 . S
C462 N470 1.356 . S
C463 C462 1.363 . S
C463 C469 1.363 . S
C464 C465 1.363 . S
C464 C469 1.379 . S
C464 N471 1.356 . S
C465 C464 1.363 . S
C465 C468 1.363 . S
N466 C468 1.356 . S
N466 H478 0.984 . S
N466 H479 0.985 . S
N467 C469 1.356 . S
N467 H472 0.984 . S
N467 H473 0.985 . S
C468 C462 1.379 . S
C468 C465 1.363 . S
C468 N466 1.356 . S
C469 C463 1.363 . S
C469 C464 1.379 . S
C469 N467 1.356 . S
N470 C462 1.356 . S
N470 H476 0.984 . S
N470 H477 0.984 . S
N471 C464 1.356 . S
N471 H474 0.984 . S
N471 H475 0.985 . S
H472 N467 0.984 . S
H473 N467 0.985 . S
H474 N471 0.984 . S
H475 N471 0.985 . S
H476 N470 0.984 . S
H477 N470 0.984 . S
H478 N466 0.984 . S
H479 N466 0.985 . S
C480 C481 1.363 . S
C480 C486 1.379 . S
C480 N488 1.356 . S
C481 C480 1.363 . S
C481 C487 1.363 . S
C482 C483 1.363 . S
C482 C487 1.379 . S
C482 N489 1.356 . S
C483 C482 1.363 . S
C483 C486 1.363 . S
N484 C486 1.356 . S
N484 H496 0.984 . S
N484 H497 0.985 . S
N485 C487 1.356 . S
N485 H490 0.984 . S
N485 H491 0.985 . S
C486 C480 1.379 . S
C486 C483 1.363 . S
C486 N484 1.356 . S
C487 C481 1.363 . S
C487 C482 1.379 . S
C487 N485 1.356 . S
N488 C480 1.356 . S
N488 H494 0.984 . S
N488 H495 0.984 . S
N489 C482 1.356 . S
N489 H492 0.984 . S
N489 H493 0.985 . S
H490 N485 0.984 . S
H491 N485 0.985 . S
H492 N489 0.984 . S
H493 N489 0.985 . S
H494 N488 0.984 . S
H495 N488 0.984 . S
H496 N484 0.984 . S
H497 N484 0.985 . S
C498 C499 1.363 . S
C498 C504 1.379 . S
C498 N506 1.356 . S
C499 C498 1.363 . S
C499 C505 1.363 . S
C500 C501 1.363 . S
C500 C505 1.379 . S
C500 N507 1.356 . S
C501 C500 1.363 . S
C501 C504 1.363 . S
N502 C504 1.356 . S
N502 H514 0.984 . S
N502 H515 0.985 . S
N503 C505 1.356 . S
N503 H508 0.984 . S
N503 H509 0.985 . S
C504 C498 1.379 . S
C504 C501 1.363 . S
C504 N502 1.356 . S
C505 C499 1.363 . S
C505 C500 1.379 . S
C505 N503 1.356 . S
N506 C498 1.356 . S
N506 H512 0.984 . S
N506 H513 0.984 . S
N507 C500 1.356 . S
N507 H510 0.984 . S
N507 H511 0.985 . S
H508 N503 0.984 . S
H509 N503 0.985 . S
H510 N507 0.984 . S
H511 N507 0.985 . S
H512 N506 0.984 . S
H513 N506 0.984 . S
H514 N502 0.984 . S
H515 N502 0.985 . S
C516 C517 1.363 . S
C516 C522 1.379 . S
C516 N524 1.356 . S
C517 C516 1.363 . S
C517 C523 1.363 . S
C518 C519 1.363 . S
C518 C523 1.379 . S
C518 N525 1.356 . S
C519 C518 1.363 . S
C519 C522 1.363 . S
N520 C522 1.356 . S
N520 H532 0.984 . S
N520 H533 0.985 . S
N521 C523 1.356 . S
N521 H526 0.984 . S
N521 H527 0.985 . S
C522 C516 1.379 . S
C522 C519 1.363 . S
C522 N520 1.356 . S
C523 C517 1.363 . S
C523 C518 1.379 . S
C523 N521 1.356 . S
N524 C516 1.356 . S
N524 H530 0.984 . S
N524 H531 0.984 . S
N525 C518 1.356 . S
N525 H528 0.984 . S
N525 H529 0.985 . S
H526 N521 0.984 . S
H527 N521 0.985 . S
H528 N525 0.984 . S
H529 N525 0.985 . S
H530 N524 0.984 . S
H531 N524 0.984 . S
H532 N520 0.984 . S
H533 N520 0.985 . S
C534 C535 1.363 . S
C534 C540 1.379 . S
C534 N542 1.356 . S
C535 C534 1.363 . S
C535 C541 1.363 . S
C536 C537 1.363 . S
C536 C541 1.379 . S
C536 N543 1.356 . S
C537 C536 1.363 . S
C537 C540 1.363 . S
N538 C540 1.356 1_655 S
N538 H550 0.984 . S
N538 H551 0.985 1_655 S
N539 C541 1.356 . S
N539 H544 0.984 . S
N539 H545 0.985 . S
C540 C534 1.379 . S
C540 C537 1.363 . S
C540 N538 1.356 1_455 S
C541 C535 1.363 . S
C541 C536 1.379 . S
C541 N539 1.356 . S
N542 C534 1.356 . S
N542 H548 0.984 1_455 S
N542 H549 0.984 . S
N543 C536 1.356 . S
N543 H546 0.984 . S
N543 H547 0.985 . S
H544 N539 0.984 . S
H545 N539 0.985 . S
H546 N543 0.984 . S
H547 N543 0.985 . S
H548 N542 0.984 1_655 S
H549 N542 0.984 . S
H550 N538 0.984 . S
H551 N538 0.985 1_455 S
C552 C553 1.363 . S
C552 C558 1.379 . S
C552 N560 1.356 . S
C553 C552 1.363 . S
C553 C559 1.363 . S
C554 C555 1.363 . S
C554 C559 1.379 . S
C554 N561 1.356 . S
C555 C554 1.363 . S
C555 C558 1.363 . S
N556 C558 1.356 . S
N556 H568 0.984 . S
N556 H569 0.985 . S
N557 C559 1.356 . S
N557 H562 0.984 . S
N557 H563 0.985 . S
C558 C552 1.379 . S
C558 C555 1.363 . S
C558 N556 1.356 . S
C559 C553 1.363 . S
C559 C554 1.379 . S
C559 N557 1.356 . S
N560 C552 1.356 . S
N560 H566 0.984 . S
N560 H567 0.984 . S
N561 C554 1.356 . S
N561 H564 0.984 . S
N561 H565 0.985 . S
H562 N557 0.984 . S
H563 N557 0.985 . S
H564 N561 0.984 . S
H565 N561 0.985 . S
H566 N560 0.984 . S
H567 N560 0.984 . S
H568 N556 0.984 . S
H569 N556 0.985 . S
C570 C571 1.363 . S
C570 C576 1.379 . S
C570 N578 1.356 . S
C571 C570 1.363 . S
C571 C577 1.363 . S
C572 C573 1.363 . S
C572 C577 1.379 . S
C572 N579 1.356 . S
C573 C572 1.363 . S
C573 C576 1.363 . S
N574 C576 1.356 . S
N574 H586 0.984 . S
N574 H587 0.985 . S
N575 C577 1.356 . S
N575 H580 0.984 . S
N575 H581 0.985 . S
C576 C570 1.379 . S
C576 C573 1.363 . S
C576 N574 1.356 . S
C577 C571 1.363 . S
C577 C572 1.379 . S
C577 N575 1.356 . S
N578 C570 1.356 . S
N578 H584 0.984 . S
N578 H585 0.984 . S
N579 C572 1.356 . S
N579 H582 0.984 . S
N579 H583 0.985 . S
H580 N575 0.984 . S
H581 N575 0.985 . S
H582 N579 0.984 . S
H583 N579 0.985 . S
H584 N578 0.984 . S
H585 N578 0.984 . S
H586 N574 0.984 . S
H587 N574 0.985 . S
C588 C589 1.363 . S
C588 C594 1.379 . S
C588 N596 1.356 . S
C589 C588 1.363 . S
C589 C595 1.363 . S
C590 C591 1.363 . S
C590 C595 1.379 . S
C590 N597 1.356 . S
C591 C590 1.363 . S
C591 C594 1.363 . S
N592 C594 1.356 . S
N592 H604 0.984 . S
N592 H605 0.985 . S
N593 C595 1.356 . S
N593 H598 0.984 . S
N593 H599 0.985 . S
C594 C588 1.379 . S
C594 C591 1.363 . S
C594 N592 1.356 . S
C595 C589 1.363 . S
C595 C590 1.379 . S
C595 N593 1.356 . S
N596 C588 1.356 . S
N596 H602 0.984 . S
N596 H603 0.984 . S
N597 C590 1.356 . S
N597 H600 0.984 . S
N597 H601 0.985 . S
H598 N593 0.984 . S
H599 N593 0.985 . S
H600 N597 0.984 . S
H601 N597 0.985 . S
H602 N596 0.984 . S
H603 N596 0.984 . S
H604 N592 0.984 . S
H605 N592 0.985 . S
C606 C607 1.363 . S
C606 C612 1.379 . S
C606 N614 1.356 . S
C607 C606 1.363 . S
C607 C613 1.363 . S
C608 C609 1.363 . S
C608 C613 1.379 . S
C608 N615 1.356 . S
C609 C608 1.363 . S
C609 C612 1.363 . S
N610 C612 1.356 . S
N610 H622 0.984 . S
N610 H623 0.985 . S
N611 C613 1.356 . S
N611 H616 0.984 . S
N611 H617 0.985 . S
C612 C606 1.379 . S
C612 C609 1.363 . S
C612 N610 1.356 . S
C613 C607 1.363 . S
C613 C608 1.379 . S
C613 N611 1.356 . S
N614 C606 1.356 . S
N614 H620 0.984 . S
N614 H621 0.984 . S
N615 C608 1.356 . S
N615 H618 0.984 . S
N615 H619 0.985 . S
H616 N611 0.984 . S
H617 N611 0.985 . S
H618 N615 0.984 . S
H619 N615 0.985 . S
H620 N614 0.984 . S
H621 N614 0.984 . S
H622 N610 0.984 . S
H623 N610 0.985 . S
C624 C625 1.363 . S
C624 C630 1.379 . S
C624 N632 1.356 . S
C625 C624 1.363 . S
C625 C631 1.363 . S
C626 C627 1.363 . S
C626 C631 1.379 . S
C626 N633 1.356 . S
C627 C626 1.363 . S
C627 C630 1.363 . S
N628 C630 1.356 . S
N628 H640 0.984 . S
N628 H641 0.985 . S
N629 C631 1.356 . S
N629 H634 0.984 . S
N629 H635 0.985 . S
C630 C624 1.379 . S
C630 C627 1.363 . S
C630 N628 1.356 . S
C631 C625 1.363 . S
C631 C626 1.379 . S
C631 N629 1.356 . S
N632 C624 1.356 . S
N632 H638 0.984 . S
N632 H639 0.984 . S
N633 C626 1.356 . S
N633 H636 0.984 . S
N633 H637 0.985 . S
H634 N629 0.984 . S
H635 N629 0.985 . S
H636 N633 0.984 . S
H637 N633 0.985 . S
H638 N632 0.984 . S
H639 N632 0.984 . S
H640 N628 0.984 . S
H641 N628 0.985 . S
C642 C643 1.363 . S
C642 C648 1.379 . S
C642 N650 1.356 . S
C643 C642 1.363 . S
C643 C649 1.363 . S
C644 C645 1.363 . S
C644 C649 1.379 . S
C644 N651 1.356 . S
C645 C644 1.363 . S
C645 C648 1.363 . S
N646 C648 1.356 . S
N646 H658 0.984 . S
N646 H659 0.985 . S
N647 C649 1.356 . S
N647 H652 0.984 . S
N647 H653 0.985 . S
C648 C642 1.379 . S
C648 C645 1.363 . S
C648 N646 1.356 . S
C649 C643 1.363 . S
C649 C644 1.379 . S
C649 N647 1.356 . S
N650 C642 1.356 . S
N650 H656 0.984 . S
N650 H657 0.984 . S
N651 C644 1.356 . S
N651 H654 0.984 . S
N651 H655 0.985 . S
H652 N647 0.984 . S
H653 N647 0.985 . S
H654 N651 0.984 . S
H655 N651 0.985 . S
H656 N650 0.984 . S
H657 N650 0.984 . S
H658 N646 0.984 . S
H659 N646 0.985 . S
C660 C661 1.363 . S
C660 C666 1.379 . S
C660 N668 1.356 . S
C661 C660 1.363 . S
C661 C667 1.363 . S
C662 C663 1.363 . S
C662 C667 1.379 . S
C662 N669 1.356 . S
C663 C662 1.363 . S
C663 C666 1.363 . S
N664 C666 1.356 . S
N664 H676 0.984 . S
N664 H677 0.985 . S
N665 C667 1.356 . S
N665 H670 0.984 . S
N665 H671 0.985 . S
C666 C660 1.379 . S
C666 C663 1.363 . S
C666 N664 1.356 . S
C667 C661 1.363 . S
C667 C662 1.379 . S
C667 N665 1.356 . S
N668 C660 1.356 . S
N668 H674 0.984 . S
N668 H675 0.984 . S
N669 C662 1.356 . S
N669 H672 0.984 . S
N669 H673 0.985 . S
H670 N665 0.984 . S
H671 N665 0.985 . S
H672 N669 0.984 . S
H673 N669 0.985 . S
H674 N668 0.984 . S
H675 N668 0.984 . S
H676 N664 0.984 . S
H677 N664 0.985 . S
C678 C679 1.363 . S
C678 C684 1.379 . S
C678 N686 1.356 . S
C679 C678 1.363 . S
C679 C685 1.363 . S
C680 C681 1.363 . S
C680 C685 1.379 . S
C680 N687 1.356 . S
C681 C680 1.363 . S
C681 C684 1.363 . S
N682 C684 1.356 . S
N682 H694 0.984 . S
N682 H695 0.985 . S
N683 C685 1.356 . S
N683 H688 0.984 . S
N683 H689 0.985 . S
C684 C678 1.379 . S
C684 C681 1.363 . S
C684 N682 1.356 . S
C685 C679 1.363 . S
C685 C680 1.379 . S
C685 N683 1.356 . S
N686 C678 1.356 . S
N686 H692 0.984 . S
N686 H693 0.984 . S
N687 C680 1.356 . S
N687 H690 0.984 . S
N687 H691 0.985 . S
H688 N683 0.984 . S
H689 N683 0.985 . S
H690 N687 0.984 . S
H691 N687 0.985 . S
H692 N686 0.984 . S
H693 N686 0.984 . S
H694 N682 0.984 . S
H695 N682 0.985 . S
C265 N1 0.974 . S
C267 C111 1.008 . S
C283 N18 1.117 . S
C285 C160 1.176 . S
C303 C186 2.188 . S
C301 N28 2.246 . S
C319 N40 2.668 . S
C321 C234 2.688 . S
C339 C146 2.275 . S
C337 N5 2.183 . S
C357 C114 0.585 . S
C355 N14 0.549 . S
C375 C235 2.054 . S
C373 N31 2.059 . S
C393 C203 1.587 . S
C391 N41 1.600 . S
C409 N2 1.323 . S
C411 C231 1.371 . S
C429 C163 2.483 1_556 S
C427 N27 2.547 . S
C445 N44 2.439 . S
C447 C115 2.504 . S
C463 N15 0.970 . S
C465 C200 0.977 . S
C483 C120 1.495 . S
C481 N57 1.574 . S
C499 N70 0.995 . S
C501 C151 1.082 . S
C517 N79 2.379 . S
C519 C195 2.412 . S
C535 N93 2.502 . S
C537 C243 2.487 . S
C553 N54 1.867 . S
C555 C155 2.053 1_565 S
C573 C123 1.343 . S
C571 N66 1.426 . S
C591 C226 1.595 . S
C589 N80 1.665 . S
C609 C194 1.825 . S
C607 N96 1.827 . S
C625 N53 1.539 . S
C627 C240 1.553 . S
C645 C154 2.216 . S
C643 N83 2.214 . S
C663 C106 2.662 . S
C661 N92 2.658 . S
C679 N67 1.175 . S
C681 C191 1.223 . S
