# Generated by pormake.
# Topology anh, (6,3)-cn, num edge types: 1
# Building blocks:
#     Node 0, Type 0, BuildingBlock: PAMTOO_clean_sbu_0, # of connection points: 6
#     Node 1, Type 0, BuildingBlock: PAMTOO_clean_sbu_0, # of connection points: 6
#     Node 2, Type 0, BuildingBlock: PAMTOO_clean_sbu_0, # of connection points: 6
#     Node 3, Type 1, BuildingBlock: VETTIZ_charged_linker_0, # of connection points: 3
#     Node 4, Type 1, BuildingBlock: VETTIZ_charged_linker_0, # of connection points: 3
#     Node 5, Type 1, BuildingBlock: VETTIZ_charged_linker_0, # of connection points: 3
#     Node 6, Type 1, BuildingBlock: VETTIZ_charged_linker_0, # of connection points: 3
#     Node 7, Type 1, BuildingBlock: VETTIZ_charged_linker_0, # of connection points: 3
#     Node 8, Type 1, BuildingBlock: VETTIZ_charged_linker_0, # of connection points: 3
#     Edge 9, Type (0, 1), BuildingBlock: XIVTED_clean_linker_0, # of connection points: 2
#     Edge 10, Type (0, 1), BuildingBlock: XIVTED_clean_linker_0, # of connection points: 2
#     Edge 11, Type (0, 1), BuildingBlock: XIVTED_clean_linker_0, # of connection points: 2
#     Edge 12, Type (0, 1), BuildingBlock: XIVTED_clean_linker_0, # of connection points: 2
#     Edge 13, Type (0, 1), BuildingBlock: XIVTED_clean_linker_0, # of connection points: 2
#     Edge 14, Type (0, 1), BuildingBlock: XIVTED_clean_linker_0, # of connection points: 2
#     Edge 15, Type (0, 1), BuildingBlock: XIVTED_clean_linker_0, # of connection points: 2
#     Edge 16, Type (0, 1), BuildingBlock: XIVTED_clean_linker_0, # of connection points: 2
#     Edge 17, Type (0, 1), BuildingBlock: XIVTED_clean_linker_0, # of connection points: 2
#     Edge 18, Type (0, 1), BuildingBlock: XIVTED_clean_linker_0, # of connection points: 2
#     Edge 19, Type (0, 1), BuildingBlock: XIVTED_clean_linker_0, # of connection points: 2
#     Edge 20, Type (0, 1), BuildingBlock: XIVTED_clean_linker_0, # of connection points: 2
#     Edge 21, Type (0, 1), BuildingBlock: XIVTED_clean_linker_0, # of connection points: 2
#     Edge 22, Type (0, 1), BuildingBlock: XIVTED_clean_linker_0, # of connection points: 2
#     Edge 23, Type (0, 1), BuildingBlock: XIVTED_clean_linker_0, # of connection points: 2
#     Edge 24, Type (0, 1), BuildingBlock: XIVTED_clean_linker_0, # of connection points: 2
#     Edge 25, Type (0, 1), BuildingBlock: XIVTED_clean_linker_0, # of connection points: 2
#     Edge 26, Type (0, 1), BuildingBlock: XIVTED_clean_linker_0, # of connection points: 2
# Relax obj value: 0.183
# Max RMSD: 0.197
# Mean RMSD: 0.159
data_MOF--net-anh--node1-PAMTOO_clean_sbu_0--node2-VETTIZ_charged_linker_0--edge1-XIVTED_clean_linker_0
_symmetry_space_group_name_H-M    P1
_symmetry_Int_Tables_number       1
_symmetry_cell_setting            triclinic
loop_
_symmetry_equiv_pos_as_xyz
'x, y, z'
_cell_length_a     36.053267
_cell_length_b     35.04623
_cell_length_c     67.196241
_cell_angle_alpha  89.804935
_cell_angle_beta   95.481313
_cell_angle_gamma 104.37292
loop_
_atom_site_label
_atom_site_type_symbol
_atom_site_fract_x
_atom_site_fract_y
_atom_site_fract_z
_atom_type_partial_charge
Dy0 Dy 0.06551 0.60732 0.15133 0.0
Dy1 Dy 1.04205 0.51082 0.15021 0.0
C2 C 1.04518 0.55964 0.11111 0.0
O3 O 1.00296 0.59325 0.15741 0.0
O4 O 0.985 0.5275 0.1481 0.0
O5 O 0.08535 0.65971 0.13451 0.0
O6 O 0.0744 0.66468 0.16545 0.0
O7 O 1.03761 0.52894 0.18145 0.0
O8 O 0.08135 0.58883 0.18203 0.0
O9 O 0.10684 0.52572 0.15643 0.0
O10 O 0.12079 0.59026 0.14668 0.0
O11 O 1.04272 0.45384 0.16238 0.0
O12 O 1.01235 0.45799 0.13332 0.0
C13 C 0.97612 0.5602 0.15338 0.0
O14 O 1.0351 0.586 0.12161 0.0
O15 O 1.05856 0.53206 0.12017 0.0
C16 C 0.12678 0.71136 0.15362 0.0
C17 C 0.20131 0.76242 0.15751 0.0
C18 C 0.17207 0.77057 0.144 0.0
C19 C 0.13516 0.74528 0.14211 0.0
C20 C 0.15566 0.70316 0.16723 0.0
C21 C 0.19249 0.72858 0.16926 0.0
C22 C 0.08901 0.68314 0.14998 0.0
C23 C 1.06117 0.55895 0.19132 0.0
C24 C 0.13196 0.55819 0.15197 0.0
C25 C 0.98456 0.40582 0.1534 0.0
C26 C 0.91609 0.352 0.16232 0.0
C27 C 0.93231 0.3858 0.17449 0.0
C28 C 0.96604 0.41256 0.17 0.0
C29 C 0.96884 0.37207 0.14133 0.0
C30 C 0.9349 0.34542 0.14572 0.0
C31 C 1.01879 0.43487 0.14778 0.0
H32 H 0.17787 0.79596 0.1345 0.0
H33 H 0.11337 0.75173 0.13129 0.0
H34 H 0.14993 0.67682 0.17608 0.0
H35 H 0.21401 0.72164 0.18005 0.0
H36 H 0.91907 0.39156 0.18759 0.0
H37 H 0.97747 0.43867 0.17941 0.0
H38 H 0.98249 0.36666 0.1283 0.0
H39 H 0.92303 0.3201 0.13584 0.0
Dy40 Dy 0.56104 0.01378 0.51213 0.0
Dy41 Dy 0.65595 0.03442 0.51536 0.0
C42 C 0.61121 0.02505 0.55355 0.0
O43 O 0.57852 0.07742 0.50428 0.0
O44 O 0.64046 0.09179 0.51934 0.0
O45 O 0.50994 1.00038 0.5276 0.0
O46 O 0.50499 0.00466 0.49534 0.0
O47 O 0.63515 0.04474 0.48394 0.0
O48 O 0.57761 0.99881 0.48264 0.0
O49 O 0.63777 0.96915 0.50984 0.0
O50 O 0.57569 0.9563 0.5187 0.0
O51 O 0.70932 0.03608 0.50275 0.0
O52 O 0.7101 0.0589 0.53272 0.0
C53 C 0.61047 0.10305 0.51104 0.0
O54 O 0.58452 0.03734 0.5427 0.0
O55 O 0.63801 0.01354 0.54515 0.0
C56 C 0.45602 0.95805 0.5097 0.0
C57 C 0.3952 0.88917 0.50787 0.0
C58 C 0.43056 0.89013 0.519 0.0
C59 C 0.46073 0.92416 0.51982 0.0
C60 C 0.42109 0.95713 0.49842 0.0
C61 C 0.39102 0.92301 0.49743 0.0
C62 C 0.48679 0.99477 0.51117 0.0
C63 C 0.60556 0.02124 0.47366 0.0
C64 C 0.60581 0.94435 0.51421 0.0
C65 C 0.75642 0.09376 0.51286 0.0
C66 C 0.80601 0.16581 0.50338 0.0
C67 C 0.76612 0.16181 0.50285 0.0
C68 C 0.74159 0.12609 0.50742 0.0
C69 C 0.79612 0.09748 0.51366 0.0
C70 C 0.82078 0.13325 0.50892 0.0
C71 C 0.73023 0.05653 0.51786 0.0
H72 H 0.43478 0.86484 0.52737 0.0
H73 H 0.48756 0.9241 0.52857 0.0
H74 H 0.417 0.9829 0.49041 0.0
H75 H 0.36459 0.92314 0.48834 0.0
H76 H 0.75375 0.18636 0.499 0.0
H77 H 0.71098 0.12369 0.50671 0.0
H78 H 0.80798 0.07273 0.51783 0.0
H79 H 0.85127 0.13515 0.50925 0.0
Dy80 Dy 0.58828 0.50115 0.84212 0.0
Dy81 Dy 0.49557 0.47675 0.8312 0.0
C82 C 0.55112 0.4855 0.79731 0.0
O83 O 0.56957 0.55553 0.84907 0.0
O84 O 0.51651 0.54155 0.82639 0.0
O85 O 0.6436 0.54116 0.83961 0.0
O86 O 0.63971 0.48695 0.85586 0.0
O87 O 0.50544 0.49829 0.86296 0.0
O88 O 0.5641 0.48537 0.87112 0.0
O89 O 0.50953 0.41995 0.8404 0.0
O90 O 0.572 0.43753 0.8327 0.0
O91 O 0.43717 0.4577 0.83925 0.0
O92 O 0.44782 0.47385 0.80883 0.0
C93 C 0.54229 0.56688 0.83809 0.0
O94 O 0.57692 0.50967 0.80943 0.0
O95 O 0.5207 0.46235 0.80402 0.0
C96 C 0.69075 0.50629 0.83589 0.0
C97 C 0.74504 0.48465 0.81378 0.0
C98 C 0.71324 0.49551 0.80388 0.0
C99 C 0.68607 0.5059 0.81486 0.0
C100 C 0.72216 0.495 0.84576 0.0
C101 C 0.74905 0.4842 0.83481 0.0
C102 C 0.66219 0.51653 0.84767 0.0
C103 C 0.53227 0.49236 0.87634 0.0
C104 C 0.54161 0.41055 0.83716 0.0
C105 C 0.40343 0.50137 0.82374 0.0
C106 C 0.38236 0.57141 0.83241 0.0
C107 C 0.40008 0.56808 0.81503 0.0
C108 C 0.41048 0.53343 0.81071 0.0
C109 C 0.38307 0.5037 0.84029 0.0
C110 C 0.37271 0.53839 0.84461 0.0
C111 C 0.42335 0.46942 0.82227 0.0
H112 H 0.70951 0.4961 0.78771 0.0
H113 H 0.66155 0.51381 0.80691 0.0
H114 H 0.72601 0.49476 0.86195 0.0
H115 H 0.77368 0.47669 0.84286 0.0
H116 H 0.40776 0.59292 0.80529 0.0
H117 H 0.42608 0.53278 0.79777 0.0
H118 H 0.37704 0.47948 0.85053 0.0
H119 H 0.35799 0.53969 0.85781 0.0
C120 C 0.65922 0.13449 0.20063 0.0
C121 C 0.68853 0.16345 0.21121 0.0
C122 C 0.69148 0.16433 0.23226 0.0
C123 C 0.63745 0.1073 0.23201 0.0
C124 C 0.63377 0.10696 0.21134 0.0
C125 C 0.5999 0.07494 0.20269 0.0
H126 H 0.45461 0.91632 0.219 0.0
C127 C 0.60765 0.07414 0.23867 0.0
C128 C 0.58539 0.05499 0.22159 0.0
H129 H 0.47804 0.97282 0.16277 0.0
H130 H 0.53343 0.02008 0.17933 0.0
H131 H 0.54251 0.92169 0.23633 0.0
H132 H 0.46409 0.99426 0.2428 0.0
H133 H 0.48915 0.99351 0.26641 0.0
H134 H 0.45992 0.94806 0.25508 0.0
H135 H 0.50337 0.90818 0.25165 0.0
H136 H 0.5499 0.93803 0.2614 0.0
C137 C 0.6148 0.04711 0.18944 0.0
C138 C 0.57022 0.09462 0.19143 0.0
C139 C 0.60261 0.04735 0.31293 0.0
C140 C 0.57944 0.01751 0.3236 0.0
C141 C 0.55192 0.98702 0.31285 0.0
C142 C 0.54691 0.98671 0.29194 0.0
C143 C 0.56969 0.01716 0.28153 0.0
C144 C 0.59735 0.04647 0.29199 0.0
C145 C 0.61966 0.07569 0.27834 0.0
C146 C 0.60017 0.05951 0.258 0.0
C147 C 0.57084 0.02543 0.26001 0.0
C148 C 0.66223 0.07337 0.28127 0.0
C149 C 0.6133 0.1168 0.28295 0.0
C150 C 0.4721 0.93843 0.21019 0.0
C151 C 0.4625 0.94064 0.18958 0.0
C152 C 0.48516 0.97059 0.17869 0.0
C153 C 0.51711 0.99796 0.18833 0.0
C154 C 0.52591 0.99572 0.20911 0.0
C155 C 0.50333 0.96634 0.21963 0.0
C156 C 0.51482 0.96982 0.24172 0.0
C157 C 0.54804 0.0062 0.24285 0.0
C158 C 0.55489 0.02107 0.22373 0.0
C159 C 0.52814 0.93249 0.24831 0.0
C160 C 0.48034 0.97649 0.25221 0.0
H161 H 0.6703 0.13854 0.2587 0.0
H162 H 0.65601 0.13359 0.18443 0.0
H163 H 0.57184 0.12413 0.19804 0.0
H164 H 0.54019 0.07781 0.19248 0.0
H165 H 0.57532 0.09874 0.17543 0.0
H166 H 0.64043 0.03936 0.19732 0.0
H167 H 0.62337 0.06141 0.17524 0.0
H168 H 0.59345 0.01894 0.18579 0.0
H169 H 0.62392 0.07134 0.32064 0.0
H170 H 0.53428 0.96313 0.32061 0.0
H171 H 0.52532 0.96281 0.28472 0.0
H172 H 0.66426 0.04274 0.28447 0.0
H173 H 0.67828 0.09252 0.29401 0.0
H174 H 0.67748 0.08118 0.26777 0.0
H175 H 0.58363 0.11418 0.28711 0.0
H176 H 0.61579 0.13621 0.2699 0.0
H177 H 0.63372 0.13185 0.2956 0.0
H178 H 0.71397 0.18625 0.24068 0.0
C179 C 0.66624 0.13642 0.24269 0.0
C180 C 0.59819 0.62785 0.52759 0.0
C181 C 0.59361 0.66142 0.53766 0.0
C182 C 0.58971 0.6599 0.55827 0.0
C183 C 0.59463 0.59236 0.55881 0.0
C184 C 0.59826 0.59335 0.5385 0.0
C185 C 0.60095 0.55379 0.53055 0.0
H186 H 0.61234 0.36581 0.55242 0.0
C187 C 0.59559 0.5528 0.56597 0.0
C188 C 0.59927 0.52963 0.54955 0.0
H189 H 0.61049 0.41607 0.49379 0.0
H190 H 0.60496 0.47813 0.50826 0.0
H191 H 0.66672 0.44084 0.57614 0.0
H192 H 0.54455 0.39504 0.56506 0.0
H193 H 0.55181 0.41602 0.58919 0.0
H194 H 0.57263 0.37564 0.58411 0.0
H195 H 0.64058 0.39747 0.58768 0.0
H196 H 0.64754 0.44582 0.59876 0.0
C197 C 0.63985 0.55927 0.5217 0.0
C198 C 0.56569 0.5376 0.51529 0.0
C199 C 0.58618 0.52416 0.63983 0.0
C200 C 0.58563 0.4901 0.65102 0.0
C201 C 0.58936 0.45583 0.64137 0.0
C202 C 0.59336 0.45537 0.62088 0.0
C203 C 0.59345 0.4895 0.60981 0.0
C204 C 0.58993 0.52311 0.6193 0.0
C205 C 0.58996 0.5563 0.60507 0.0
C206 C 0.5939 0.53694 0.58543 0.0
C207 C 0.59609 0.49803 0.58837 0.0
C208 C 0.62567 0.59034 0.61161 0.0
C209 C 0.55074 0.56719 0.605 0.0
C210 C 0.61106 0.39029 0.54269 0.0
C211 C 0.61241 0.38651 0.52209 0.0
C212 C 0.60969 0.41861 0.50979 0.0
C213 C 0.6065 0.45445 0.51822 0.0
C214 C 0.60535 0.45773 0.53906 0.0
C215 C 0.6072 0.42554 0.55075 0.0
C216 C 0.60366 0.43252 0.57233 0.0
C217 C 0.60001 0.47451 0.57201 0.0
C218 C 0.6013 0.48977 0.55258 0.0
C219 C 0.64134 0.42877 0.58452 0.0
C220 C 0.56649 0.40327 0.57816 0.0
H221 H 0.58724 0.62686 0.58453 0.0
H222 H 0.6009 0.6283 0.51167 0.0
H223 H 0.53925 0.54317 0.5207 0.0
H224 H 0.5595 0.50541 0.513 0.0
H225 H 0.56971 0.55203 0.50064 0.0
H226 H 0.66363 0.57683 0.5322 0.0
H227 H 0.63974 0.57511 0.50735 0.0
H228 H 0.64716 0.5311 0.51907 0.0
H229 H 0.58296 0.55083 0.6468 0.0
H230 H 0.5895 0.42938 0.64974 0.0
H231 H 0.59618 0.42837 0.6145 0.0
H232 H 0.65049 0.57862 0.61747 0.0
H233 H 0.61961 0.60893 0.62364 0.0
H234 H 0.63627 0.60926 0.59914 0.0
H235 H 0.52746 0.54123 0.60835 0.0
H236 H 0.5406 0.57681 0.59022 0.0
H237 H 0.55207 0.59049 0.6164 0.0
H238 H 0.58629 0.68546 0.56624 0.0
C239 C 0.59033 0.62578 0.56887 0.0
C240 C 0.20095 0.70491 0.85969 0.0
C241 C 0.23002 0.72488 0.8742 0.0
C242 C 0.22022 0.72945 0.89374 0.0
C243 C 0.15735 0.68533 0.88523 0.0
C244 C 0.16524 0.68496 0.86554 0.0
C245 C 0.13417 0.65665 0.85262 0.0
H246 H 0.97374 0.50775 0.84595 0.0
C247 C 0.12142 0.65477 0.88719 0.0
C248 C 0.10774 0.63801 0.8681 0.0
H249 H 1.03267 0.56847 0.79748 0.0
H250 H 0.07994 0.61007 0.82135 0.0
H251 H 1.05132 0.50552 0.87593 0.0
H252 H 0.97476 0.58236 0.86973 0.0
H253 H 0.986 0.57765 0.89548 0.0
H254 H 0.96136 0.53456 0.88051 0.0
H255 H 1.00338 0.49176 0.88336 0.0
H256 H 1.04353 0.51815 0.90016 0.0
C257 C 0.15219 0.62628 0.84292 0.0
C258 C 0.11467 0.68082 0.83746 0.0
C259 C 0.07929 0.61698 0.95616 0.0
C260 C 1.05038 0.58627 0.96286 0.0
C261 C 1.0253 0.56023 0.94872 0.0
C262 C 1.0291 0.56455 0.92823 0.0
C263 C 1.05852 0.59503 0.92177 0.0
C264 C 0.08295 0.62068 0.93565 0.0
C265 C 0.11371 0.65004 0.92612 0.0
C266 C 0.10311 0.6384 0.90418 0.0
C267 C 0.0709 0.60606 0.90177 0.0
C268 C 0.15319 0.64293 0.93411 0.0
C269 C 0.10925 0.69192 0.93052 0.0
C270 C 0.99758 0.52908 0.84045 0.0
C271 C 1.00002 0.53436 0.81982 0.0
C272 C 1.03051 0.56366 0.8133 0.0
C273 C 1.05759 0.58798 0.82718 0.0
C274 C 1.05392 0.58315 0.84777 0.0
C275 C 1.02435 0.55396 0.85407 0.0
C276 C 1.02322 0.55473 0.87637 0.0
C277 C 1.05676 0.5896 0.88244 0.0
C278 C 0.07489 0.60574 0.86568 0.0
C279 C 1.03044 0.51551 0.88453 0.0
C280 C 0.98431 0.56243 0.88093 0.0
H281 H 0.17894 0.71247 0.91468 0.0
H282 H 0.207 0.70066 0.84451 0.0
H283 H 0.11641 0.71078 0.84354 0.0
H284 H 0.08349 0.6675 0.83407 0.0
H285 H 0.12864 0.68453 0.8233 0.0
H286 H 0.17366 0.61749 0.85381 0.0
H287 H 0.16712 0.63877 0.82977 0.0
H288 H 0.1311 0.59853 0.83815 0.0
H289 H 0.09939 0.63703 0.96671 0.0
H290 H 1.00262 0.53657 0.95355 0.0
H291 H 1.00914 0.54377 0.91823 0.0
H292 H 0.15088 0.61104 0.93656 0.0
H293 H 0.16411 0.65877 0.9486 0.0
H294 H 0.17527 0.65149 0.92355 0.0
H295 H 0.07833 0.69203 0.92995 0.0
H296 H 0.12125 0.71349 0.91933 0.0
H297 H 0.12299 0.70273 0.94564 0.0
H298 H 0.24157 0.74566 0.90511 0.0
C299 C 0.18396 0.70981 0.89932 0.0
C300 C 1.007 0.43746 0.46331 0.0
C301 C 0.97815 0.40845 0.45244 0.0
C302 C 0.97434 0.40954 0.43139 0.0
C303 C 1.02669 0.46814 0.43225 0.0
C304 C 1.03077 0.46717 0.4529 0.0
C305 C 0.06232 0.50112 0.46188 0.0
H306 H 0.19426 0.67198 0.44724 0.0
C307 C 1.05524 0.50274 0.42594 0.0
C308 C 0.07626 0.52243 0.44319 0.0
H309 H 0.16958 0.61648 0.50352 0.0
H310 H 0.12273 0.56179 0.48612 0.0
H311 H 0.19989 0.59625 0.42581 0.0
H312 H 0.10674 0.65254 0.42578 0.0
H313 H 0.11037 0.63942 0.4009 0.0
H314 H 0.15054 0.67292 0.41465 0.0
H315 H 0.19708 0.63671 0.40984 0.0
H316 H 0.17466 0.58631 0.40201 0.0
C317 C 0.09373 0.48423 0.47342 0.0
C318 C 1.04406 0.5264 0.47494 0.0
C319 C 0.06196 0.52981 0.35189 0.0
C320 C 0.08595 0.55907 0.34128 0.0
C321 C 0.11419 0.58884 0.35211 0.0
C322 C 0.11837 0.58951 0.37305 0.0
C323 C 0.09425 0.55999 0.38339 0.0
C324 C 0.06679 0.53071 0.3728 0.0
C325 C 1.04439 0.50122 0.38628 0.0
C326 C 0.0632 0.51751 0.4067 0.0
C327 C 0.09206 0.55206 0.4049 0.0
C328 C 1.05151 0.46041 0.3817 0.0
C329 C 1.00165 0.50295 0.38308 0.0
C330 C 0.17842 0.64815 0.45577 0.0
C331 C 0.18476 0.64852 0.47666 0.0
C332 C 0.16465 0.61667 0.48737 0.0
C333 C 0.13755 0.58516 0.47724 0.0
C334 C 0.13106 0.58549 0.45624 0.0
C335 C 0.15194 0.61641 0.44591 0.0
C336 C 0.14334 0.61112 0.42367 0.0
C337 C 0.11286 0.57252 0.42225 0.0
C338 C 0.10539 0.55766 0.44132 0.0
C339 C 0.18055 0.60765 0.41472 0.0
C340 C 0.12708 0.64581 0.41565 0.0
H341 H 0.99383 0.43814 0.40528 0.0
H342 H 1.01051 0.43744 0.47949 0.0
H343 H 1.01647 0.53007 0.46725 0.0
H344 H 0.06216 0.55653 0.47789 0.0
H345 H 1.03782 0.51221 0.48947 0.0
H346 H 0.09708 0.45749 0.46563 0.0
H347 H 0.08627 0.47579 0.48876 0.0
H348 H 0.12251 0.50489 0.47435 0.0
H349 H 1.03963 0.50673 0.34414 0.0
H350 H 0.13358 0.61138 0.34441 0.0
H351 H 0.14036 0.61296 0.38035 0.0
H352 H 0.08131 0.46351 0.37765 0.0
H353 H 1.0314 0.44515 0.36899 0.0
H354 H 1.04919 0.44094 0.39472 0.0
H355 H 0.99922 0.53333 0.37952 0.0
H356 H 0.98635 0.4955 0.3966 0.0
H357 H 0.98589 0.48321 0.37049 0.0
H358 H 0.95285 0.38716 0.42267 0.0
C359 C 0.99837 0.43911 0.42128 0.0
C360 C 0.54028 0.88068 0.82155 0.0
C361 C 0.53989 0.84514 0.81154 0.0
C362 C 0.54539 0.8459 0.79109 0.0
C363 C 0.55233 0.91625 0.79072 0.0
C364 C 0.54612 0.91598 0.81071 0.0
C365 C 0.54581 0.95672 0.81815 0.0
H366 H 0.57743 0.15322 0.79769 0.0
C367 C 0.55918 0.95708 0.78375 0.0
C368 C 0.55564 0.98144 0.7997 0.0
H369 H 0.53555 0.09758 0.85133 0.0
H370 H 0.53851 0.03362 0.83812 0.0
H371 H 0.6399 0.10652 0.79221 0.0
H372 H 0.52199 0.08994 0.76842 0.0
H373 H 0.54726 0.08117 0.74858 0.0
H374 H 0.56028 0.12887 0.76085 0.0
H375 H 0.62596 0.13523 0.77203 0.0
H376 H 0.63745 0.08883 0.7676 0.0
C377 C 0.57712 0.96917 0.83583 0.0
C378 C 0.50481 0.95544 0.82355 0.0
C379 C 0.58971 0.98519 0.71206 0.0
C380 C 0.60098 0.0203 0.70163 0.0
C381 C 0.60693 0.05667 0.7118 0.0
C382 C 0.60037 0.05806 0.73197 0.0
C383 C 0.58797 0.02267 0.74211 0.0
C384 C 0.58386 0.98711 0.73229 0.0
C385 C 0.57292 0.95268 0.74577 0.0
C386 C 0.56963 0.97341 0.76512 0.0
C387 C 0.57785 0.01421 0.76276 0.0
C388 C 0.60628 0.93166 0.74774 0.0
C389 C 0.53351 0.92647 0.73702 0.0
C390 C 0.56923 0.12736 0.80672 0.0
C391 C 0.55675 0.13041 0.82562 0.0
C392 C 0.54535 0.09586 0.8367 0.0
C393 C 0.547 0.05888 0.82899 0.0
C394 C 0.55937 0.05645 0.80984 0.0
C395 C 0.56988 0.09058 0.79911 0.0
C396 C 0.58007 0.08325 0.77866 0.0
C397 C 0.57389 0.03901 0.7786 0.0
C398 C 0.56226 0.023 0.79695 0.0
C399 C 0.62294 0.10468 0.77736 0.0
C400 C 0.55125 0.09662 0.7632 0.0
H401 H 0.5558 0.87924 0.7652 0.0
H402 H 0.53568 0.8808 0.83724 0.0
H403 H 0.48277 0.93675 0.81257 0.0
H404 H 0.49847 0.98465 0.82309 0.0
H405 H 0.50027 0.94293 0.8386 0.0
H406 H 0.60492 0.96436 0.83191 0.0
H407 H 0.56893 0.95162 0.84924 0.0
H408 H 0.58258 1.00066 0.83992 0.0
H409 H 0.58558 0.95686 0.70461 0.0
H410 H 0.61558 0.08404 0.70396 0.0
H411 H 0.60466 0.08666 0.73877 0.0
H412 H 0.63416 0.95196 0.74477 0.0
H413 H 0.60069 0.90639 0.73701 0.0
H414 H 0.61175 0.92126 0.76305 0.0
H415 H 0.51433 0.94491 0.73072 0.0
H416 H 0.51737 0.9084 0.74837 0.0
H417 H 0.53705 0.90681 0.72479 0.0
H418 H 0.54551 0.8191 0.78311 0.0
C419 C 0.55165 0.88103 0.7807 0.0
C420 C 0.66147 0.55881 0.15133 0.0
C421 C 0.69432 0.55671 0.1414 0.0
C422 C 0.69006 0.5528 0.12052 0.0
C423 C 0.62243 0.55223 0.11921 0.0
C424 C 0.62541 0.55648 0.13977 0.0
C425 C 0.58614 0.55751 0.14665 0.0
H426 H 0.39529 0.55591 0.11481 0.0
C427 C 0.58237 0.55007 0.11101 0.0
C428 C 0.56002 0.55336 0.12679 0.0
H429 H 0.44265 0.56362 0.17638 0.0
H430 H 0.50551 0.55985 0.16584 0.0
H431 H 0.46493 0.61252 0.09697 0.0
H432 H 0.4292 0.48744 0.10375 0.0
H433 H 0.44957 0.49342 0.08097 0.0
H434 H 0.40799 0.51207 0.08403 0.0
H435 H 0.4249 0.58143 0.0821 0.0
H436 H 0.47302 0.59172 0.07458 0.0
C437 C 0.58971 0.59725 0.15726 0.0
C438 C 0.57282 0.52236 0.16025 0.0
C439 C 0.55124 0.53024 0.03589 0.0
C440 C 0.51724 0.5259 0.02307 0.0
C441 C 0.48334 0.52852 0.03122 0.0
C442 C 0.48331 0.53493 0.05179 0.0
C443 C 0.51749 0.53861 0.06448 0.0
C444 C 0.55059 0.53632 0.05639 0.0
C445 C 0.58413 0.54059 0.07194 0.0
C446 C 0.56565 0.54532 0.09089 0.0
C447 C 0.52684 0.54434 0.08642 0.0
C448 C 0.61483 0.57852 0.06735 0.0
C449 C 0.59765 0.50179 0.07165 0.0
C450 C 0.41905 0.55706 0.12616 0.0
C451 C 0.41384 0.56057 0.14634 0.0
C452 C 0.44572 0.56104 0.1606 0.0
C453 C 0.48215 0.55899 0.1545 0.0
C454 C 0.48666 0.55578 0.13395 0.0
C455 C 0.45469 0.55437 0.12042 0.0
C456 C 0.46212 0.54891 0.09934 0.0
C457 C 0.50399 0.54827 0.1019 0.0
C458 C 0.51959 0.5525 0.12218 0.0
C459 C 0.45574 0.58523 0.08746 0.0
C460 C 0.43583 0.50862 0.09143 0.0
H461 H 0.6546 0.54749 0.09371 0.0
H462 H 0.66378 0.56182 0.16745 0.0
H463 H 0.57332 0.49437 0.15267 0.0
H464 H 0.54312 0.5196 0.16401 0.0
H465 H 0.59205 0.52558 0.17442 0.0
H466 H 0.60165 0.62201 0.14746 0.0
H467 H 0.60921 0.6001 0.17132 0.0
H468 H 0.5615 0.60058 0.16102 0.0
H469 H 0.57802 0.52914 0.03014 0.0
H470 H 0.45662 0.52495 0.02175 0.0
H471 H 0.45651 0.53658 0.05696 0.0
H472 H 0.60138 0.60049 0.05951 0.0
H473 H 0.63577 0.57184 0.05765 0.0
H474 H 0.6306 0.5944 0.08103 0.0
H475 H 0.57324 0.47604 0.06709 0.0
H476 H 0.60918 0.49405 0.08654 0.0
H477 H 0.61959 0.50328 0.06095 0.0
H478 H 0.71442 0.55123 0.11253 0.0
C479 C 0.65488 0.55063 0.10952 0.0
H480 H 0.16884 0.50042 0.16484 0.0
H481 H 0.37729 0.61791 0.13513 0.0
H482 H 0.19253 0.61761 0.1412 0.0
H483 H 0.36026 0.50984 0.16758 0.0
H484 H 0.30999 0.61814 0.13767 0.0
H485 H 0.23769 0.5025 0.16595 0.0
C486 C 0.18834 0.52663 0.15985 0.0
C487 C 0.17424 0.55882 0.15282 0.0
C488 C 0.32087 0.59456 0.14451 0.0
C489 C 0.254 0.56135 0.15407 0.0
C490 C 0.35955 0.59458 0.14319 0.0
C491 C 0.37494 0.56417 0.15144 0.0
C492 C 0.29649 0.56343 0.15385 0.0
C493 C 0.35005 0.53431 0.16133 0.0
C494 C 0.22787 0.52781 0.16056 0.0
C495 C 0.20152 0.59191 0.14669 0.0
N496 N 0.31217 0.5345 0.16209 0.0
N497 N 0.23965 0.59218 0.14737 0.0
H498 H 0.87895 0.20276 0.52008 0.0
H499 H 0.90049 0.38194 0.44431 0.0
H500 H 0.79182 0.2149 0.47343 0.0
H501 H 0.99576 0.3629 0.48362 0.0
H502 H 0.85826 0.32492 0.45819 0.0
H503 H 0.9206 0.26457 0.50971 0.0
C504 C 0.86858 0.2183 0.50765 0.0
C505 C 0.83173 0.20352 0.49763 0.0
C506 C 0.88835 0.3332 0.46388 0.0
C507 C 0.87901 0.27448 0.48593 0.0
C508 C 0.91249 0.36574 0.45593 0.0
C509 C 0.9518 0.37678 0.46261 0.0
C510 C 0.90352 0.31131 0.47864 0.0
C511 C 0.96561 0.35532 0.47804 0.0
C512 C 0.89228 0.2537 0.50184 0.0
C513 C 0.81966 0.22532 0.48184 0.0
N514 N 0.94154 0.32331 0.48544 0.0
N515 N 0.8432 0.25957 0.47649 0.0
H516 H 0.59346 0.6304 0.85768 0.0
H517 H 0.58227 0.82593 0.84453 0.0
H518 H 0.48723 0.59937 0.81915 0.0
H519 H 0.487 0.77663 0.80089 0.0
H520 H 0.58261 0.75935 0.85556 0.0
H521 H 0.59137 0.69936 0.8563 0.0
C522 C 0.56947 0.63805 0.84907 0.0
C523 C 0.54069 0.6089 0.83837 0.0
C524 C 0.56144 0.76277 0.84363 0.0
C525 C 0.53756 0.68833 0.8369 0.0
C526 C 0.56088 0.80103 0.8376 0.0
C527 C 0.53478 0.80671 0.8217 0.0
C528 C 0.53575 0.73002 0.83356 0.0
C529 C 0.50784 0.77349 0.8131 0.0
C530 C 0.56811 0.67769 0.84837 0.0
C531 C 0.51028 0.62068 0.82753 0.0
N532 N 0.50929 0.73673 0.81899 0.0
N533 N 0.50971 0.6593 0.82699 0.0
H534 H 0.91287 0.49631 0.14998 0.0
H535 H 0.75355 0.62115 0.15317 0.0
H536 H 0.94282 0.62229 0.15956 0.0
H537 H 0.72645 0.49466 0.149 0.0
H538 H 0.82248 0.6225 0.15813 0.0
H539 H 0.84505 0.4954 0.15125 0.0
C540 C 0.90538 0.5239 0.15236 0.0
C541 C 0.93422 0.55949 0.15456 0.0
C542 C 0.80149 0.59434 0.15665 0.0
C543 C 0.85534 0.55859 0.15607 0.0
C544 C 0.76197 0.59356 0.15418 0.0
C545 C 0.73378 0.55766 0.15133 0.0
C546 C 0.81333 0.55897 0.15591 0.0
C547 C 0.74687 0.52295 0.15176 0.0
C548 C 0.86636 0.52331 0.15316 0.0
C549 C 0.922 0.59408 0.15774 0.0
N550 N 0.78534 0.52449 0.15379 0.0
N551 N 0.88378 0.59277 0.15827 0.0
H552 H 0.31786 0.88431 0.50728 0.0
H553 H 0.25299 0.64897 0.49823 0.0
H554 H 0.39849 0.81149 0.50681 0.0
H555 H 0.18066 0.72467 0.47706 0.0
H556 H 0.30419 0.70761 0.50946 0.0
H557 H 0.265 0.82506 0.50367 0.0
C558 C 0.32455 0.85594 0.50639 0.0
C559 C 0.36284 0.8531 0.50704 0.0
C560 C 0.27687 0.71128 0.50264 0.0
C561 C 0.30226 0.78501 0.50342 0.0
C562 C 0.24768 0.67795 0.49643 0.0
C563 C 0.21283 0.68233 0.4868 0.0
C564 C 0.27076 0.74897 0.49932 0.0
C565 C 0.20728 0.72032 0.48448 0.0
C566 C 0.29431 0.82211 0.50448 0.0
C567 C 0.36956 0.81528 0.50647 0.0
N568 N 0.23602 0.75224 0.49063 0.0
N569 N 0.33956 0.78273 0.50458 0.0
H570 H 0.60479 0.38218 0.83379 0.0
H571 H 0.4953 0.15375 0.83841 0.0
H572 H 0.4843 0.34346 0.84273 0.0
H573 H 0.61459 0.1973 0.82838 0.0
H574 H 0.49125 0.2221 0.84368 0.0
H575 H 0.60918 0.31416 0.83474 0.0
C576 C 0.57912 0.35938 0.83594 0.0
C577 C 0.544 0.36876 0.83801 0.0
C578 C 0.51843 0.21661 0.84061 0.0
C579 C 0.54894 0.28999 0.83917 0.0
C580 C 0.52083 0.17763 0.83781 0.0
C581 C 0.55531 0.16996 0.83291 0.0
C582 C 0.5508 0.24795 0.83852 0.0
C583 C 0.5874 0.20196 0.83202 0.0
C584 C 0.58171 0.32035 0.83655 0.0
C585 C 0.51193 0.33767 0.84096 0.0
N586 N 0.58429 0.2394 0.83464 0.0
N587 N 0.51511 0.29966 0.84134 0.0
H588 H 0.66272 0.90675 0.50837 0.0
H589 H 0.53276 0.6939 0.53192 0.0
H590 H 0.54351 0.88356 0.52001 0.0
H591 H 0.65222 0.71442 0.52187 0.0
H592 H 0.53442 0.76194 0.52299 0.0
H593 H 0.65825 0.83589 0.50954 0.0
C594 C 0.63557 0.88684 0.5111 0.0
C595 C 0.60354 0.90137 0.51428 0.0
C596 C 0.56018 0.75156 0.52237 0.0
C597 C 0.59822 0.82003 0.51552 0.0
C598 C 0.55908 0.71261 0.52727 0.0
C599 C 0.5923 0.69861 0.52744 0.0
C600 C 0.59498 0.77704 0.5179 0.0
C601 C 0.6259 0.72408 0.52165 0.0
C602 C 0.63304 0.84633 0.51172 0.0
C603 C 0.56911 0.87398 0.51765 0.0
N604 N 0.62655 0.76229 0.51735 0.0
N605 N 0.56746 0.83481 0.51826 0.0
H606 H 0.77947 0.52826 0.78372 0.0
H607 H 0.96222 0.4561 0.81815 0.0
H608 H 0.78183 0.42521 0.81859 0.0
H609 H 0.96177 0.56674 0.79001 0.0
H610 H 0.89521 0.43027 0.80482 0.0
H611 H 0.84203 0.52757 0.77284 0.0
C612 C 0.79258 0.5047 0.78856 0.0
C613 C 0.77622 0.47754 0.80262 0.0
C614 C 0.9101 0.45979 0.80099 0.0
C615 C 0.84795 0.47706 0.79059 0.0
C616 C 0.94837 0.47447 0.80856 0.0
C617 C 0.96697 0.51403 0.80577 0.0
C618 C 0.89032 0.48518 0.79095 0.0
C619 C 0.94819 0.5363 0.79286 0.0
C620 C 0.82839 0.50439 0.7824 0.0
C621 C 0.79424 0.4475 0.80828 0.0
N622 N 0.91042 0.52198 0.78643 0.0
N623 N 0.82961 0.4486 0.80263 0.0
H624 H 0.22288 0.84331 0.15542 0.0
H625 H 0.4426 0.86055 0.19146 0.0
H626 H 0.27034 0.74197 0.16343 0.0
H627 H 0.40201 0.95837 0.16705 0.0
H628 H 0.37989 0.81637 0.18079 0.0
H629 H 0.28802 0.88596 0.15926 0.0
C630 C 0.24692 0.82991 0.15778 0.0
C631 C 0.24089 0.78885 0.15925 0.0
C632 C 0.3848 0.84738 0.17748 0.0
C633 C 0.31568 0.83776 0.16399 0.0
C634 C 0.42057 0.87254 0.18354 0.0
C635 C 0.42732 0.91306 0.18013 0.0
C636 C 0.35532 0.86297 0.16826 0.0
C637 C 0.39793 0.92722 0.16983 0.0
C638 C 0.28415 0.85436 0.16003 0.0
C639 C 0.27335 0.77342 0.16264 0.0
N640 N 0.36295 0.90228 0.1645 0.0
N641 N 0.30925 0.79788 0.16505 0.0
H642 H 0.67178 0.1646 0.52321 0.0
H643 H 0.56028 0.33279 0.49732 0.0
H644 H 0.55506 0.13975 0.49542 0.0
H645 H 0.67197 0.3528 0.53039 0.0
H646 H 0.56117 0.26367 0.49162 0.0
H647 H 0.67521 0.23477 0.52163 0.0
C648 C 0.64683 0.1738 0.51671 0.0
C649 C 0.61293 0.14597 0.50959 0.0
C650 C 0.5858 0.28338 0.49979 0.0
C651 C 0.61674 0.22692 0.50774 0.0
C652 C 0.58546 0.32286 0.50282 0.0
C653 C 0.61621 0.34839 0.51421 0.0
C654 C 0.61714 0.26954 0.50825 0.0
C655 C 0.64782 0.334 0.52143 0.0
C656 C 0.64885 0.21405 0.51579 0.0
C657 C 0.5817 0.16003 0.50123 0.0
N658 N 0.64734 0.29555 0.51847 0.0
N659 N 0.58427 0.19948 0.50064 0.0
H660 H 0.355 0.62387 0.80829 0.0
H661 H 0.29025 0.714 0.89988 0.0
H662 H 0.3936 0.60607 0.8696 0.0
H663 H 0.26381 0.74692 0.83917 0.0
H664 H 0.3442 0.69244 0.88951 0.0
H665 H 0.33588 0.68217 0.81896 0.0
C666 C 0.36001 0.63257 0.82396 0.0
C667 C 0.37474 0.60935 0.83817 0.0
C668 C 0.32724 0.70525 0.87846 0.0
C669 C 0.35279 0.67592 0.85051 0.0
C670 C 0.29646 0.71823 0.88446 0.0
C671 C 0.27089 0.73034 0.87015 0.0
C672 C 0.33197 0.70363 0.85801 0.0
C673 C 0.28144 0.73565 0.85053 0.0
C674 C 0.34918 0.66596 0.83005 0.0
C675 C 0.38094 0.62224 0.85824 0.0
N676 N 0.31025 0.72075 0.84482 0.0
N677 N 0.36932 0.65423 0.86385 0.0
H678 H 0.89589 0.27108 0.15832 0.0
H679 H 0.70976 0.24325 0.21656 0.0
H680 H 0.85298 0.36866 0.17683 0.0
H681 H 0.73243 0.14897 0.18246 0.0
H682 H 0.76257 0.28969 0.20237 0.0
H683 H 0.83687 0.22567 0.16717 0.0
C684 C 0.87398 0.28307 0.16404 0.0
C685 C 0.87973 0.32391 0.16696 0.0
C686 C 0.75576 0.25894 0.19778 0.0
C687 C 0.81228 0.27185 0.17745 0.0
C688 C 0.7257 0.23248 0.2059 0.0
C689 C 0.71694 0.1923 0.2007 0.0
C690 C 0.77769 0.24504 0.18462 0.0
C691 C 0.73824 0.1798 0.18676 0.0
C692 C 0.84031 0.25705 0.16915 0.0
C693 C 0.85038 0.33748 0.17473 0.0
N694 N 0.76803 0.20601 0.17938 0.0
N695 N 0.81814 0.31153 0.17984 0.0
H696 H 1.03131 0.62026 0.0884 0.0
H697 H 1.04147 0.51788 0.98368 0.0
H698 H 1.05446 0.50568 0.08372 0.0
H699 H 1.05184 0.6424 0.99126 0.0
H700 H 1.03788 0.51003 0.01975 0.0
H701 H 1.03038 0.62589 0.05218 0.0
C702 C 1.036 0.59616 0.07975 0.0
C703 C 1.0431 0.56247 0.08911 0.0
C704 C 1.04089 0.53903 0.0135 0.0
C705 C 1.04202 0.56879 0.0476 0.0
C706 C 1.04269 0.54349 0.99294 0.0
C707 C 1.04701 0.58086 0.98453 0.0
C708 C 1.043 0.57212 0.02567 0.0
C709 C 1.04887 0.61314 -0.00281 0.0
C710 C 1.03561 0.59949 0.05907 0.0
C711 C 1.04906 0.53224 0.07712 0.0
N712 N 1.04676 0.60802 0.01713 0.0
N713 N 1.04835 0.53609 0.05695 0.0
H714 H 0.66116 0.0558 0.44948 0.0
H715 H 0.52221 0.99755 0.34861 0.0
H716 H 0.54395 0.98569 0.44753 0.0
H717 H 0.64557 0.0396 0.34935 0.0
H718 H 0.52905 0.99798 0.38502 0.0
H719 H 0.65538 0.05524 0.41287 0.0
C720 C 0.63424 0.04027 0.44137 0.0
C721 C 0.60299 0.02073 0.45158 0.0
C722 C 0.55464 0.00702 0.37722 0.0
C723 C 0.59618 0.02021 0.40979 0.0
C724 C 0.5508 0.00658 0.3564 0.0
C725 C 0.58339 0.01827 0.34582 0.0
C726 C 0.59131 0.01957 0.38765 0.0
C727 C 0.61959 0.03071 0.35683 0.0
C728 C 0.63101 0.03991 0.42049 0.0
C729 C 0.56883 1.00105 0.44031 0.0
N730 N 0.62258 0.03106 0.37715 0.0
N731 N 0.56631 1.00144 0.42004 0.0
H732 H 0.50718 0.43572 0.76792 0.0
H733 H 0.62148 0.54629 0.67945 0.0
H734 H 0.60645 0.53462 0.77761 0.0
H735 H 0.53872 0.43369 0.67169 0.0
H736 H 0.6132 0.54515 0.71519 0.0
H737 H 0.51549 0.43679 0.73224 0.0
C738 C 0.53074 0.45763 0.76257 0.0
C739 C 0.55613 0.48515 0.77577 0.0
C740 C 0.59691 0.52066 0.70567 0.0
C741 C 0.56566 0.48663 0.73497 0.0
C742 C 0.60146 0.52143 0.68528 0.0
C743 C 0.58081 0.49 0.67265 0.0
C744 C 0.57128 0.4884 0.71343 0.0
C745 C 0.55552 0.4583 0.68097 0.0
C746 C 0.53549 0.45818 0.7422 0.0
C747 C 0.58618 0.51282 0.76798 0.0
N748 N 0.55137 0.45836 0.70084 0.0
N749 N 0.59002 0.51294 0.74808 0.0
H750 H 0.5488 0.01717 0.5744 0.0
H751 H 0.66252 0.05661 0.68176 0.0
H752 H 0.67141 0.02924 0.5823 0.0
H753 H 0.54744 0.98183 0.6725 0.0
H754 H 0.66626 0.05647 0.64538 0.0
H755 H 0.54727 0.01419 0.6107 0.0
C756 C 0.57542 0.01936 0.5838 0.0
C757 C 0.61031 0.02348 0.5754 0.0
C758 C 0.64036 0.03991 0.65139 0.0
C759 C 0.60874 0.02049 0.6168 0.0
C760 C 0.63817 0.04011 0.67203 0.0
C761 C 0.60467 0.01911 0.67998 0.0
C762 C 0.60845 0.01943 0.63874 0.0
C763 C 0.57384 0.99812 0.66687 0.0
C764 C 0.57446 0.01741 0.60445 0.0
C765 C 0.64392 0.02589 0.58823 0.0
N766 N 0.57629 0.99916 0.64684 0.0
N767 N 0.6424 0.02474 0.60838 0.0
H768 H 0.47818 0.5206 0.89356 0.0
H769 H 0.55512 0.47894 0.00498 0.0
H770 H 0.57538 0.47074 0.908 0.0
H771 H 0.47924 0.55553 0.99162 0.0
H772 H 0.55717 0.46913 0.96925 0.0
H773 H 0.47233 0.52692 0.92931 0.0
C774 C 0.49817 0.51082 0.90423 0.0
C775 C 0.52743 0.49526 0.8978 0.0
C776 C 0.54005 0.48806 0.97414 0.0
C777 C 0.52078 0.50229 0.93862 0.0
C778 C 0.53901 0.49386 -0.00546 0.0
C779 C 0.51726 0.51843 0.00135 0.0
C780 C 0.51899 0.50671 0.96036 0.0
C781 C 0.49615 0.53611 0.98708 0.0
C782 C 0.49488 0.51456 0.92461 0.0
C783 C 0.55255 0.48313 0.91228 0.0
N784 N 0.49761 0.52997 0.96724 0.0
N785 N 0.54862 0.48687 0.932 0.0
H786 H 0.09545 0.62094 0.21684 0.0
H787 H 0.06906 0.49473 0.31569 0.0
H788 H 1.03569 0.49771 0.21606 0.0
H789 H 0.09354 0.62184 0.31607 0.0
H790 H 0.06233 0.49446 0.2792 0.0
H791 H 0.10131 0.62094 0.25335 0.0
C792 C 0.08362 0.59385 0.22434 0.0
C793 C 0.06502 0.55926 0.21339 0.0
C794 C 0.0691 0.52237 0.28731 0.0
C795 C 0.07179 0.5591 0.25514 0.0
C796 C 0.07275 0.52259 0.30816 0.0
C797 C 0.08183 0.55839 0.31906 0.0
C798 C 0.07497 0.55819 0.27724 0.0
C799 C 0.08712 0.59355 0.30837 0.0
C800 C 0.08686 0.59394 0.24518 0.0
C801 C 1.05013 0.52508 0.22391 0.0
N802 N 0.08373 0.59256 0.28807 0.0
N803 N 1.05399 0.52581 0.24422 0.0
loop_
_geom_bond_atom_site_label_1
_geom_bond_atom_site_label_2
_geom_bond_distance
_geom_bond_site_symmetry_2
_ccdc_geom_bond_type
Dy0 O3 2.307 1_455 S
Dy0 O5 2.395 . S
Dy0 O6 2.379 . S
Dy0 O8 2.339 . S
Dy0 O10 2.298 . S
Dy0 O14 2.275 . S
Dy0 C22 2.738 . S
Dy1 O4 2.298 . S
Dy1 O7 2.275 1_655 S
Dy1 O9 2.307 1_655 S
Dy1 O11 2.395 . S
Dy1 O12 2.379 . S
Dy1 O15 2.339 . S
Dy1 C31 2.738 . S
C2 O14 1.254 . S
C2 O15 1.257 1_455 S
O3 Dy0 2.307 1_655 S
O3 C13 1.266 . S
O4 Dy1 2.298 . S
O4 C13 1.236 . S
O5 Dy0 2.395 . S
O5 C22 1.255 . S
O6 Dy0 2.379 . S
O6 C22 1.249 . S
O7 Dy1 2.275 1_455 S
O7 C23 1.254 . S
O8 Dy0 2.339 . S
O8 C23 1.257 . S
O9 Dy1 2.307 1_455 S
O9 C24 1.266 . S
O10 Dy0 2.298 . S
O10 C24 1.236 . S
O11 Dy1 2.395 . S
O11 C31 1.255 . S
O12 Dy1 2.379 . S
O12 C31 1.249 . S
C13 O3 1.266 . S
C13 O4 1.236 . S
O14 Dy0 2.275 . S
O14 C2 1.254 . S
O15 Dy1 2.339 . S
O15 C2 1.257 1_655 S
C16 C19 1.344 . S
C16 C20 1.328 . S
C16 C22 1.516 . S
C17 C18 1.304 . S
C17 C21 1.323 . S
C18 C17 1.304 . S
C18 C19 1.371 . S
C18 H32 0.930 . S
C19 C16 1.344 . S
C19 C18 1.371 . S
C19 H33 0.931 . S
C20 C16 1.328 . S
C20 C21 1.433 . S
C20 H34 0.931 . S
C21 C17 1.323 . S
C21 C20 1.433 . S
C21 H35 0.933 . S
C22 Dy0 2.738 . S
C22 O5 1.255 . S
C22 O6 1.249 . S
C22 C16 1.516 . S
C23 O7 1.254 . S
C23 O8 1.257 . S
C24 O9 1.266 . S
C24 O10 1.236 . S
C25 C28 1.344 . S
C25 C29 1.328 . S
C25 C31 1.516 . S
C26 C27 1.304 . S
C26 C30 1.323 . S
C27 C26 1.304 . S
C27 C28 1.371 . S
C27 H36 0.930 . S
C28 C25 1.344 . S
C28 C27 1.371 . S
C28 H37 0.931 . S
C29 C25 1.328 . S
C29 C30 1.433 . S
C29 H38 0.931 . S
C30 C26 1.323 . S
C30 C29 1.433 . S
C30 H39 0.933 . S
C31 Dy1 2.738 . S
C31 O11 1.255 . S
C31 O12 1.249 . S
C31 C25 1.516 . S
H32 C18 0.930 . S
H33 C19 0.931 . S
H34 C20 0.931 . S
H35 C21 0.933 . S
H36 C27 0.930 . S
H37 C28 0.931 . S
H38 C29 0.931 . S
H39 C30 0.933 . S
Dy40 O43 2.307 . S
Dy40 O45 2.395 1_545 S
Dy40 O46 2.379 1_545 S
Dy40 O48 2.339 . S
Dy40 O50 2.298 1_545 S
Dy40 O54 2.275 . S
Dy40 C62 2.738 1_545 S
Dy41 O44 2.298 . S
Dy41 O47 2.275 . S
Dy41 O49 2.307 1_545 S
Dy41 O51 2.395 . S
Dy41 O52 2.379 . S
Dy41 O55 2.339 . S
Dy41 C71 2.738 . S
C42 O54 1.254 . S
C42 O55 1.257 . S
O43 Dy40 2.307 . S
O43 C53 1.266 . S
O44 Dy41 2.298 . S
O44 C53 1.236 . S
O45 Dy40 2.395 1_565 S
O45 C62 1.255 . S
O46 Dy40 2.379 1_565 S
O46 C62 1.249 . S
O47 Dy41 2.275 . S
O47 C63 1.254 . S
O48 Dy40 2.339 . S
O48 C63 1.257 . S
O49 Dy41 2.307 1_565 S
O49 C64 1.266 . S
O50 Dy40 2.298 1_565 S
O50 C64 1.236 . S
O51 Dy41 2.395 . S
O51 C71 1.255 . S
O52 Dy41 2.379 . S
O52 C71 1.249 . S
C53 O43 1.266 . S
C53 O44 1.236 . S
O54 Dy40 2.275 . S
O54 C42 1.254 . S
O55 Dy41 2.339 . S
O55 C42 1.257 . S
C56 C59 1.344 . S
C56 C60 1.328 . S
C56 C62 1.516 . S
C57 C58 1.304 . S
C57 C61 1.323 . S
C58 C57 1.304 . S
C58 C59 1.371 . S
C58 H72 0.930 . S
C59 C56 1.344 . S
C59 C58 1.371 . S
C59 H73 0.931 . S
C60 C56 1.328 . S
C60 C61 1.433 . S
C60 H74 0.931 . S
C61 C57 1.323 . S
C61 C60 1.433 . S
C61 H75 0.933 . S
C62 Dy40 2.738 1_565 S
C62 O45 1.255 . S
C62 O46 1.249 . S
C62 C56 1.516 . S
C63 O47 1.254 . S
C63 O48 1.257 . S
C64 O49 1.266 . S
C64 O50 1.236 . S
C65 C68 1.344 . S
C65 C69 1.328 . S
C65 C71 1.516 . S
C66 C67 1.304 . S
C66 C70 1.323 . S
C67 C66 1.304 . S
C67 C68 1.371 . S
C67 H76 0.930 . S
C68 C65 1.344 . S
C68 C67 1.371 . S
C68 H77 0.931 . S
C69 C65 1.328 . S
C69 C70 1.433 . S
C69 H78 0.931 . S
C70 C66 1.323 . S
C70 C69 1.433 . S
C70 H79 0.933 . S
C71 Dy41 2.738 . S
C71 O51 1.255 . S
C71 O52 1.249 . S
C71 C65 1.516 . S
H72 C58 0.930 . S
H73 C59 0.931 . S
H74 C60 0.931 . S
H75 C61 0.933 . S
H76 C67 0.930 . S
H77 C68 0.931 . S
H78 C69 0.931 . S
H79 C70 0.933 . S
Dy80 O83 2.307 . S
Dy80 O85 2.395 . S
Dy80 O86 2.379 . S
Dy80 O88 2.339 . S
Dy80 O90 2.298 . S
Dy80 O94 2.275 . S
Dy80 C102 2.738 . S
Dy81 O84 2.298 . S
Dy81 O87 2.275 . S
Dy81 O89 2.307 . S
Dy81 O91 2.395 . S
Dy81 O92 2.379 . S
Dy81 O95 2.339 . S
Dy81 C111 2.738 . S
C82 O94 1.254 . S
C82 O95 1.257 . S
O83 Dy80 2.307 . S
O83 C93 1.266 . S
O84 Dy81 2.298 . S
O84 C93 1.236 . S
O85 Dy80 2.395 . S
O85 C102 1.255 . S
O86 Dy80 2.379 . S
O86 C102 1.249 . S
O87 Dy81 2.275 . S
O87 C103 1.254 . S
O88 Dy80 2.339 . S
O88 C103 1.257 . S
O89 Dy81 2.307 . S
O89 C104 1.266 . S
O90 Dy80 2.298 . S
O90 C104 1.236 . S
O91 Dy81 2.395 . S
O91 C111 1.255 . S
O92 Dy81 2.379 . S
O92 C111 1.249 . S
C93 O83 1.266 . S
C93 O84 1.236 . S
O94 Dy80 2.275 . S
O94 C82 1.254 . S
O95 Dy81 2.339 . S
O95 C82 1.257 . S
C96 C99 1.344 . S
C96 C100 1.328 . S
C96 C102 1.516 . S
C97 C98 1.304 . S
C97 C101 1.323 . S
C98 C97 1.304 . S
C98 C99 1.371 . S
C98 H112 0.930 . S
C99 C96 1.344 . S
C99 C98 1.371 . S
C99 H113 0.931 . S
C100 C96 1.328 . S
C100 C101 1.433 . S
C100 H114 0.931 . S
C101 C97 1.323 . S
C101 C100 1.433 . S
C101 H115 0.933 . S
C102 Dy80 2.738 . S
C102 O85 1.255 . S
C102 O86 1.249 . S
C102 C96 1.516 . S
C103 O87 1.254 . S
C103 O88 1.257 . S
C104 O89 1.266 . S
C104 O90 1.236 . S
C105 C108 1.344 . S
C105 C109 1.328 . S
C105 C111 1.516 . S
C106 C107 1.304 . S
C106 C110 1.323 . S
C107 C106 1.304 . S
C107 C108 1.371 . S
C107 H116 0.930 . S
C108 C105 1.344 . S
C108 C107 1.371 . S
C108 H117 0.931 . S
C109 C105 1.328 . S
C109 C110 1.433 . S
C109 H118 0.931 . S
C110 C106 1.323 . S
C110 C109 1.433 . S
C110 H119 0.933 . S
C111 Dy81 2.738 . S
C111 O91 1.255 . S
C111 O92 1.249 . S
C111 C105 1.516 . S
H112 C98 0.930 . S
H113 C99 0.931 . S
H114 C100 0.931 . S
H115 C101 0.933 . S
H116 C107 0.930 . S
H117 C108 0.931 . S
H118 C109 0.931 . S
H119 C110 0.933 . S
C120 C121 1.391 . S
C120 C124 1.391 . S
C120 H162 0.948 . S
C121 C120 1.391 . S
C121 C122 1.391 . S
C122 C121 1.391 . S
C122 H178 0.947 . S
C122 C179 1.392 . S
C123 C124 1.391 . S
C123 C127 1.397 . S
C123 C179 1.419 . S
C124 C120 1.391 . S
C124 C123 1.391 . S
C124 C125 1.399 . S
C125 C124 1.399 . S
C125 C128 1.396 . S
C125 C137 1.453 . S
C125 C138 1.684 . S
H126 C150 0.948 . S
C127 C123 1.397 . S
C127 C128 1.394 . S
C127 C146 1.723 . S
C128 C125 1.396 . S
C128 C127 1.394 . S
C128 C158 1.723 . S
H129 C152 0.947 . S
H130 C153 0.948 . S
H131 C159 0.982 . S
H132 C160 0.979 1_545 S
H133 C160 0.980 . S
H134 C160 0.983 . S
H135 C159 0.979 . S
H136 C159 0.977 . S
C137 C125 1.453 . S
C137 H166 0.982 . S
C137 H167 0.979 . S
C137 H168 0.977 . S
C138 C125 1.684 . S
C138 H163 0.979 . S
C138 H164 0.980 . S
C138 H165 0.983 . S
C139 C140 1.391 . S
C139 C144 1.391 . S
C139 H169 0.948 . S
C140 C139 1.391 . S
C140 C141 1.391 . S
C141 C140 1.391 . S
C141 C142 1.392 . S
C141 H170 0.947 . S
C142 C141 1.392 . S
C142 C143 1.419 . S
C142 H171 0.948 . S
C143 C142 1.419 . S
C143 C144 1.391 . S
C143 C147 1.397 . S
C144 C139 1.391 . S
C144 C143 1.391 . S
C144 C145 1.399 . S
C145 C144 1.399 . S
C145 C146 1.396 . S
C145 C148 1.453 . S
C145 C149 1.684 . S
C146 C127 1.723 . S
C146 C145 1.396 . S
C146 C147 1.394 . S
C147 C143 1.397 . S
C147 C146 1.394 . S
C147 C157 1.723 . S
C148 C145 1.453 . S
C148 H172 0.982 . S
C148 H173 0.979 . S
C148 H174 0.977 . S
C149 C145 1.684 . S
C149 H175 0.979 . S
C149 H176 0.980 . S
C149 H177 0.983 . S
C150 H126 0.948 . S
C150 C151 1.391 . S
C150 C155 1.391 . S
C151 C150 1.391 . S
C151 C152 1.391 . S
C152 H129 0.947 . S
C152 C151 1.391 . S
C152 C153 1.392 1_565 S
C153 H130 0.948 . S
C153 C152 1.392 1_545 S
C153 C154 1.419 . S
C154 C153 1.419 . S
C154 C155 1.391 1_545 S
C154 C158 1.397 . S
C155 C150 1.391 . S
C155 C154 1.391 1_565 S
C155 C156 1.399 . S
C156 C155 1.399 . S
C156 C157 1.396 1_565 S
C156 C159 1.453 . S
C156 C160 1.684 . S
C157 C147 1.723 . S
C157 C156 1.396 1_545 S
C157 C158 1.394 . S
C158 C128 1.723 . S
C158 C154 1.397 . S
C158 C157 1.394 . S
C159 H131 0.982 . S
C159 H135 0.979 . S
C159 H136 0.977 . S
C159 C156 1.453 . S
C160 H132 0.979 1_565 S
C160 H133 0.980 . S
C160 H134 0.983 . S
C160 C156 1.684 . S
H161 C179 0.948 . S
H162 C120 0.948 . S
H163 C138 0.979 . S
H164 C138 0.980 . S
H165 C138 0.983 . S
H166 C137 0.982 . S
H167 C137 0.979 . S
H168 C137 0.977 . S
H169 C139 0.948 . S
H170 C141 0.947 . S
H171 C142 0.948 . S
H172 C148 0.982 . S
H173 C148 0.979 . S
H174 C148 0.977 . S
H175 C149 0.979 . S
H176 C149 0.980 . S
H177 C149 0.983 . S
H178 C122 0.947 . S
C179 C122 1.392 . S
C179 C123 1.419 . S
C179 H161 0.948 . S
C180 C181 1.391 . S
C180 C184 1.391 . S
C180 H222 0.948 . S
C181 C180 1.391 . S
C181 C182 1.391 . S
C182 C181 1.391 . S
C182 H238 0.947 . S
C182 C239 1.392 . S
C183 C184 1.391 . S
C183 C187 1.397 . S
C183 C239 1.419 . S
C184 C180 1.391 . S
C184 C183 1.391 . S
C184 C185 1.399 . S
C185 C184 1.399 . S
C185 C188 1.396 . S
C185 C197 1.453 . S
C185 C198 1.684 . S
H186 C210 0.948 . S
C187 C183 1.397 . S
C187 C188 1.394 . S
C187 C206 1.723 . S
C188 C185 1.396 . S
C188 C187 1.394 . S
C188 C218 1.723 . S
H189 C212 0.947 . S
H190 C213 0.948 . S
H191 C219 0.982 . S
H192 C220 0.979 . S
H193 C220 0.980 . S
H194 C220 0.983 . S
H195 C219 0.979 . S
H196 C219 0.977 . S
C197 C185 1.453 . S
C197 H226 0.982 . S
C197 H227 0.979 . S
C197 H228 0.977 . S
C198 C185 1.684 . S
C198 H223 0.979 . S
C198 H224 0.980 . S
C198 H225 0.983 . S
C199 C200 1.391 . S
C199 C204 1.391 . S
C199 H229 0.948 . S
C200 C199 1.391 . S
C200 C201 1.391 . S
C201 C200 1.391 . S
C201 C202 1.392 . S
C201 H230 0.947 . S
C202 C201 1.392 . S
C202 C203 1.419 . S
C202 H231 0.948 . S
C203 C202 1.419 . S
C203 C204 1.391 . S
C203 C207 1.397 . S
C204 C199 1.391 . S
C204 C203 1.391 . S
C204 C205 1.399 . S
C205 C204 1.399 . S
C205 C206 1.396 . S
C205 C208 1.453 . S
C205 C209 1.684 . S
C206 C187 1.723 . S
C206 C205 1.396 . S
C206 C207 1.394 . S
C207 C203 1.397 . S
C207 C206 1.394 . S
C207 C217 1.723 . S
C208 C205 1.453 . S
C208 H232 0.982 . S
C208 H233 0.979 . S
C208 H234 0.977 . S
C209 C205 1.684 . S
C209 H235 0.979 . S
C209 H236 0.980 . S
C209 H237 0.983 . S
C210 H186 0.948 . S
C210 C211 1.391 . S
C210 C215 1.391 . S
C211 C210 1.391 . S
C211 C212 1.391 . S
C212 H189 0.947 . S
C212 C211 1.391 . S
C212 C213 1.392 . S
C213 H190 0.948 . S
C213 C212 1.392 . S
C213 C214 1.419 . S
C214 C213 1.419 . S
C214 C215 1.391 . S
C214 C218 1.397 . S
C215 C210 1.391 . S
C215 C214 1.391 . S
C215 C216 1.399 . S
C216 C215 1.399 . S
C216 C217 1.396 . S
C216 C219 1.453 . S
C216 C220 1.684 . S
C217 C207 1.723 . S
C217 C216 1.396 . S
C217 C218 1.394 . S
C218 C188 1.723 . S
C218 C214 1.397 . S
C218 C217 1.394 . S
C219 H191 0.982 . S
C219 H195 0.979 . S
C219 H196 0.977 . S
C219 C216 1.453 . S
C220 H192 0.979 . S
C220 H193 0.980 . S
C220 H194 0.983 . S
C220 C216 1.684 . S
H221 C239 0.948 . S
H222 C180 0.948 . S
H223 C198 0.979 . S
H224 C198 0.980 . S
H225 C198 0.983 . S
H226 C197 0.982 . S
H227 C197 0.979 . S
H228 C197 0.977 . S
H229 C199 0.948 . S
H230 C201 0.947 . S
H231 C202 0.948 . S
H232 C208 0.982 . S
H233 C208 0.979 . S
H234 C208 0.977 . S
H235 C209 0.979 . S
H236 C209 0.980 . S
H237 C209 0.983 . S
H238 C182 0.947 . S
C239 C182 1.392 . S
C239 C183 1.419 . S
C239 H221 0.948 . S
C240 C241 1.391 . S
C240 C244 1.391 . S
C240 H282 0.948 . S
C241 C240 1.391 . S
C241 C242 1.391 . S
C242 C241 1.391 . S
C242 H298 0.947 . S
C242 C299 1.392 . S
C243 C244 1.391 . S
C243 C247 1.397 . S
C243 C299 1.419 . S
C244 C240 1.391 . S
C244 C243 1.391 . S
C244 C245 1.399 . S
C245 C244 1.399 . S
C245 C248 1.396 . S
C245 C257 1.453 . S
C245 C258 1.684 . S
H246 C270 0.948 . S
C247 C243 1.397 . S
C247 C248 1.394 . S
C247 C266 1.723 . S
C248 C245 1.396 . S
C248 C247 1.394 . S
C248 C278 1.723 1_455 S
H249 C272 0.947 . S
H250 C273 0.948 . S
H251 C279 0.982 . S
H252 C280 0.979 . S
H253 C280 0.980 . S
H254 C280 0.983 . S
H255 C279 0.979 . S
H256 C279 0.977 . S
C257 C245 1.453 . S
C257 H286 0.982 . S
C257 H287 0.979 . S
C257 H288 0.945 1_455 S
C258 C245 1.684 . S
C258 H283 0.979 . S
C258 H284 0.980 . S
C258 H285 0.983 . S
C259 C260 1.391 . S
C259 C264 1.391 . S
C259 H289 0.948 . S
C260 C259 1.391 . S
C260 C261 1.391 1_455 S
C261 C260 1.391 1_655 S
C261 C262 1.392 . S
C261 H290 0.947 . S
C262 C261 1.392 . S
C262 C263 1.419 1_655 S
C262 H291 0.948 . S
C263 C262 1.419 1_455 S
C263 C264 1.391 . S
C263 C267 1.397 . S
C264 C259 1.391 . S
C264 C263 1.391 . S
C264 C265 1.399 . S
C265 C264 1.399 . S
C265 C266 1.396 . S
C265 C268 1.453 . S
C265 C269 1.684 . S
C266 C247 1.723 . S
C266 C265 1.396 . S
C266 C267 1.394 . S
C267 C263 1.397 . S
C267 C266 1.394 . S
C267 C277 1.723 1_455 S
C268 C265 1.453 . S
C268 H292 0.982 . S
C268 H293 0.979 . S
C268 H294 0.977 . S
C269 C265 1.684 . S
C269 H295 0.979 . S
C269 H296 0.980 . S
C269 H297 0.983 . S
C270 H246 0.948 . S
C270 C271 1.391 . S
C270 C275 1.391 . S
C271 C270 1.391 . S
C271 C272 1.391 . S
C272 H249 0.947 . S
C272 C271 1.391 . S
C272 C273 1.392 . S
C273 H250 0.948 . S
C273 C272 1.392 . S
C273 C274 1.419 . S
C274 C273 1.419 . S
C274 C275 1.391 . S
C274 C278 1.397 . S
C275 C270 1.391 . S
C275 C274 1.391 . S
C275 C276 1.399 . S
C276 C275 1.399 . S
C276 C277 1.396 . S
C276 C279 1.453 . S
C276 C280 1.684 . S
C277 C267 1.723 1_655 S
C277 C276 1.396 . S
C277 C278 1.394 . S
C278 C248 1.723 1_655 S
C278 C274 1.397 . S
C278 C277 1.394 . S
C279 H251 0.982 . S
C279 H255 0.979 . S
C279 H256 0.977 . S
C279 C276 1.453 . S
C280 H252 0.979 . S
C280 H253 0.980 . S
C280 H254 0.983 . S
C280 C276 1.684 . S
H281 C299 0.948 . S
H282 C240 0.948 . S
H283 C258 0.979 . S
H284 C258 0.980 . S
H285 C258 0.983 . S
H286 C257 0.982 . S
H287 C257 0.979 . S
H288 C257 0.945 1_655 S
H289 C259 0.948 . S
H290 C261 0.947 . S
H291 C262 0.948 . S
H292 C268 0.982 . S
H293 C268 0.979 . S
H294 C268 0.977 . S
H295 C269 0.979 . S
H296 C269 0.980 . S
H297 C269 0.983 . S
H298 C242 0.947 . S
C299 C242 1.392 . S
C299 C243 1.419 . S
C299 H281 0.948 . S
C300 C301 1.391 . S
C300 C304 1.391 . S
C300 H342 0.948 . S
C301 C300 1.391 . S
C301 C302 1.391 . S
C302 C301 1.391 . S
C302 H358 0.947 . S
C302 C359 1.392 . S
C303 C304 1.391 . S
C303 C307 1.397 . S
C303 C359 1.419 . S
C304 C300 1.391 . S
C304 C303 1.391 . S
C304 C305 1.399 . S
C305 C304 1.399 . S
C305 C308 1.396 1_655 S
C305 C317 1.453 1_655 S
C305 C318 1.684 . S
H306 C330 0.948 . S
C307 C303 1.397 . S
C307 C308 1.394 1_655 S
C307 C326 1.723 . S
C308 C305 1.396 1_455 S
C308 C307 1.394 1_455 S
C308 C338 1.723 . S
H309 C332 0.947 . S
H310 C333 0.948 . S
H311 C339 0.982 . S
H312 C340 0.979 . S
H313 C340 0.980 . S
H314 C340 0.983 . S
H315 C339 0.979 . S
H316 C339 0.977 . S
C317 C305 1.453 1_455 S
C317 H346 0.982 . S
C317 H347 0.979 . S
C317 H348 0.977 . S
C318 C305 1.684 . S
C318 H343 0.979 . S
C318 H344 0.980 1_655 S
C318 H345 0.983 . S
C319 C320 1.391 1_655 S
C319 C324 1.391 . S
C319 H349 0.948 . S
C320 C319 1.391 1_455 S
C320 C321 1.391 . S
C321 C320 1.391 . S
C321 C322 1.392 . S
C321 H350 0.947 . S
C322 C321 1.392 . S
C322 C323 1.419 . S
C322 H351 0.948 . S
C323 C322 1.419 . S
C323 C324 1.391 1_455 S
C323 C327 1.397 . S
C324 C319 1.391 . S
C324 C323 1.391 1_655 S
C324 C325 1.399 . S
C325 C324 1.399 . S
C325 C326 1.396 . S
C325 C328 1.453 . S
C325 C329 1.684 . S
C326 C307 1.723 . S
C326 C325 1.396 . S
C326 C327 1.394 1_655 S
C327 C323 1.397 . S
C327 C326 1.394 1_455 S
C327 C337 1.723 . S
C328 C325 1.453 . S
C328 H352 0.982 . S
C328 H353 0.979 . S
C328 H354 0.977 . S
C329 C325 1.684 . S
C329 H355 0.979 . S
C329 H356 0.980 . S
C329 H357 0.983 . S
C330 H306 0.948 . S
C330 C331 1.391 . S
C330 C335 1.391 . S
C331 C330 1.391 . S
C331 C332 1.391 . S
C332 H309 0.947 . S
C332 C331 1.391 . S
C332 C333 1.392 . S
C333 H310 0.948 . S
C333 C332 1.392 . S
C333 C334 1.419 . S
C334 C333 1.419 . S
C334 C335 1.391 . S
C334 C338 1.397 . S
C335 C330 1.391 . S
C335 C334 1.391 . S
C335 C336 1.399 . S
C336 C335 1.399 . S
C336 C337 1.396 . S
C336 C339 1.453 . S
C336 C340 1.684 . S
C337 C327 1.723 . S
C337 C336 1.396 . S
C337 C338 1.394 . S
C338 C308 1.723 . S
C338 C334 1.397 . S
C338 C337 1.394 . S
C339 H311 0.982 . S
C339 H315 0.979 . S
C339 H316 0.977 . S
C339 C336 1.453 . S
C340 H312 0.979 . S
C340 H313 0.980 . S
C340 H314 0.983 . S
C340 C336 1.684 . S
H341 C359 0.948 . S
H342 C300 0.948 . S
H343 C318 0.979 . S
H344 C318 0.980 1_455 S
H345 C318 0.983 . S
H346 C317 0.982 . S
H347 C317 0.979 . S
H348 C317 0.977 . S
H349 C319 0.948 . S
H350 C321 0.947 . S
H351 C322 0.948 . S
H352 C328 0.982 . S
H353 C328 0.979 . S
H354 C328 0.977 . S
H355 C329 0.979 . S
H356 C329 0.980 . S
H357 C329 0.983 . S
H358 C302 0.947 . S
C359 C302 1.392 . S
C359 C303 1.419 . S
C359 H341 0.948 . S
C360 C361 1.391 . S
C360 C364 1.391 . S
C360 H402 0.948 . S
C361 C360 1.391 . S
C361 C362 1.391 . S
C362 C361 1.391 . S
C362 H418 0.947 . S
C362 C419 1.392 . S
C363 C364 1.391 . S
C363 C367 1.397 . S
C363 C419 1.419 . S
C364 C360 1.391 . S
C364 C363 1.391 . S
C364 C365 1.399 . S
C365 C364 1.399 . S
C365 C368 1.396 . S
C365 C377 1.453 . S
C365 C378 1.684 . S
H366 C390 0.948 . S
C367 C363 1.397 . S
C367 C368 1.394 . S
C367 C386 1.723 . S
C368 C365 1.396 . S
C368 C367 1.394 . S
C368 C398 1.723 1_565 S
H369 C392 0.947 . S
H370 C393 0.948 . S
H371 C399 0.982 . S
H372 C400 0.979 . S
H373 C400 0.980 . S
H374 C400 0.983 . S
H375 C399 0.979 . S
H376 C399 0.977 . S
C377 C365 1.453 . S
C377 H406 0.982 . S
C377 H407 0.979 . S
C377 H408 0.977 1_565 S
C378 C365 1.684 . S
C378 H403 0.979 . S
C378 H404 0.956 1_565 S
C378 H405 0.983 . S
C379 C380 1.391 1_565 S
C379 C384 1.391 . S
C379 H409 0.948 . S
C380 C379 1.391 1_545 S
C380 C381 1.391 . S
C381 C380 1.391 . S
C381 C382 1.392 . S
C381 H410 0.947 . S
C382 C381 1.392 . S
C382 C383 1.419 . S
C382 H411 0.948 . S
C383 C382 1.419 . S
C383 C384 1.391 1_545 S
C383 C387 1.397 . S
C384 C379 1.391 . S
C384 C383 1.391 1_565 S
C384 C385 1.399 . S
C385 C384 1.399 . S
C385 C386 1.396 . S
C385 C388 1.453 . S
C385 C389 1.684 . S
C386 C367 1.723 . S
C386 C385 1.396 . S
C386 C387 1.394 1_565 S
C387 C383 1.397 . S
C387 C386 1.394 1_545 S
C387 C397 1.723 . S
C388 C385 1.453 . S
C388 H412 0.982 . S
C388 H413 0.979 . S
C388 H414 0.977 . S
C389 C385 1.684 . S
C389 H415 0.979 . S
C389 H416 0.980 . S
C389 H417 0.983 . S
C390 H366 0.948 . S
C390 C391 1.391 . S
C390 C395 1.391 . S
C391 C390 1.391 . S
C391 C392 1.391 . S
C392 H369 0.947 . S
C392 C391 1.391 . S
C392 C393 1.392 . S
C393 H370 0.948 . S
C393 C392 1.392 . S
C393 C394 1.419 . S
C394 C393 1.419 . S
C394 C395 1.391 . S
C394 C398 1.397 . S
C395 C390 1.391 . S
C395 C394 1.391 . S
C395 C396 1.399 . S
C396 C395 1.399 . S
C396 C397 1.396 . S
C396 C399 1.453 . S
C396 C400 1.684 . S
C397 C387 1.723 . S
C397 C396 1.396 . S
C397 C398 1.394 . S
C398 C368 1.723 1_545 S
C398 C394 1.397 . S
C398 C397 1.394 . S
C399 H371 0.982 . S
C399 H375 0.979 . S
C399 H376 0.977 . S
C399 C396 1.453 . S
C400 H372 0.979 . S
C400 H373 0.980 . S
C400 H374 0.983 . S
C400 C396 1.684 . S
H401 C419 0.948 . S
H402 C360 0.948 . S
H403 C378 0.979 . S
H404 C378 0.956 1_545 S
H405 C378 0.983 . S
H406 C377 0.982 . S
H407 C377 0.979 . S
H408 C377 0.977 1_545 S
H409 C379 0.948 . S
H410 C381 0.947 . S
H411 C382 0.948 . S
H412 C388 0.982 . S
H413 C388 0.979 . S
H414 C388 0.977 . S
H415 C389 0.979 . S
H416 C389 0.980 . S
H417 C389 0.983 . S
H418 C362 0.947 . S
C419 C362 1.392 . S
C419 C363 1.419 . S
C419 H401 0.948 . S
C420 C421 1.391 . S
C420 C424 1.391 . S
C420 H462 0.948 . S
C421 C420 1.391 . S
C421 C422 1.391 . S
C422 C421 1.391 . S
C422 H478 0.947 . S
C422 C479 1.392 . S
C423 C424 1.391 . S
C423 C427 1.397 . S
C423 C479 1.419 . S
C424 C420 1.391 . S
C424 C423 1.391 . S
C424 C425 1.399 . S
C425 C424 1.399 . S
C425 C428 1.396 . S
C425 C437 1.453 . S
C425 C438 1.684 . S
H426 C450 0.948 . S
C427 C423 1.397 . S
C427 C428 1.394 . S
C427 C446 1.723 . S
C428 C425 1.396 . S
C428 C427 1.394 . S
C428 C458 1.723 . S
H429 C452 0.947 . S
H430 C453 0.948 . S
H431 C459 0.982 . S
H432 C460 0.979 . S
H433 C460 0.980 . S
H434 C460 0.983 . S
H435 C459 0.979 . S
H436 C459 0.977 . S
C437 C425 1.453 . S
C437 H466 0.982 . S
C437 H467 0.979 . S
C437 H468 0.977 . S
C438 C425 1.684 . S
C438 H463 0.979 . S
C438 H464 0.980 . S
C438 H465 0.983 . S
C439 C440 1.391 . S
C439 C444 1.391 . S
C439 H469 0.948 . S
C440 C439 1.391 . S
C440 C441 1.391 . S
C441 C440 1.391 . S
C441 C442 1.392 . S
C441 H470 0.947 . S
C442 C441 1.392 . S
C442 C443 1.419 . S
C442 H471 0.948 . S
C443 C442 1.419 . S
C443 C444 1.391 . S
C443 C447 1.397 . S
C444 C439 1.391 . S
C444 C443 1.391 . S
C444 C445 1.399 . S
C445 C444 1.399 . S
C445 C446 1.396 . S
C445 C448 1.453 . S
C445 C449 1.684 . S
C446 C427 1.723 . S
C446 C445 1.396 . S
C446 C447 1.394 . S
C447 C443 1.397 . S
C447 C446 1.394 . S
C447 C457 1.723 . S
C448 C445 1.453 . S
C448 H472 0.982 . S
C448 H473 0.979 . S
C448 H474 0.977 . S
C449 C445 1.684 . S
C449 H475 0.979 . S
C449 H476 0.980 . S
C449 H477 0.983 . S
C450 H426 0.948 . S
C450 C451 1.391 . S
C450 C455 1.391 . S
C451 C450 1.391 . S
C451 C452 1.391 . S
C452 H429 0.947 . S
C452 C451 1.391 . S
C452 C453 1.392 . S
C453 H430 0.948 . S
C453 C452 1.392 . S
C453 C454 1.419 . S
C454 C453 1.419 . S
C454 C455 1.391 . S
C454 C458 1.397 . S
C455 C450 1.391 . S
C455 C454 1.391 . S
C455 C456 1.399 . S
C456 C455 1.399 . S
C456 C457 1.396 . S
C456 C459 1.453 . S
C456 C460 1.684 . S
C457 C447 1.723 . S
C457 C456 1.396 . S
C457 C458 1.394 . S
C458 C428 1.723 . S
C458 C454 1.397 . S
C458 C457 1.394 . S
C459 H431 0.982 . S
C459 H435 0.979 . S
C459 H436 0.977 . S
C459 C456 1.453 . S
C460 H432 0.979 . S
C460 H433 0.980 . S
C460 H434 0.983 . S
C460 C456 1.684 . S
H461 C479 0.948 . S
H462 C420 0.948 . S
H463 C438 0.979 . S
H464 C438 0.980 . S
H465 C438 0.983 . S
H466 C437 0.982 . S
H467 C437 0.979 . S
H468 C437 0.977 . S
H469 C439 0.948 . S
H470 C441 0.947 . S
H471 C442 0.948 . S
H472 C448 0.982 . S
H473 C448 0.979 . S
H474 C448 0.977 . S
H475 C449 0.979 . S
H476 C449 0.980 . S
H477 C449 0.983 . S
H478 C422 0.947 . S
C479 C422 1.392 . S
C479 C423 1.419 . S
C479 H461 0.948 . S
H480 C486 0.930 . S
H481 C490 0.930 . S
H482 C495 0.929 . S
H483 C493 0.929 . S
H484 C488 0.929 . S
H485 C494 0.929 . S
C486 H480 0.930 . S
C486 C487 1.367 . S
C486 C494 1.378 . S
C487 C486 1.367 . S
C487 C495 1.433 . S
C488 H484 0.929 . S
C488 C490 1.378 . S
C488 C492 1.350 . S
C489 C492 1.463 . S
C489 C494 1.350 . S
C489 N497 1.427 . S
C490 H481 0.930 . S
C490 C488 1.378 . S
C490 C491 1.367 . S
C491 C490 1.367 . S
C491 C493 1.433 . S
C492 C488 1.350 . S
C492 C489 1.463 . S
C492 N496 1.427 . S
C493 H483 0.929 . S
C493 C491 1.433 . S
C493 N496 1.384 . S
C494 H485 0.929 . S
C494 C486 1.378 . S
C494 C489 1.350 . S
C495 H482 0.929 . S
C495 C487 1.433 . S
C495 N497 1.384 . S
N496 C492 1.427 . S
N496 C493 1.384 . S
N497 C489 1.427 . S
N497 C495 1.384 . S
H498 C504 0.930 . S
H499 C508 0.930 . S
H500 C513 0.929 . S
H501 C511 0.929 . S
H502 C506 0.929 . S
H503 C512 0.929 . S
C504 H498 0.930 . S
C504 C505 1.367 . S
C504 C512 1.378 . S
C505 C504 1.367 . S
C505 C513 1.433 . S
C506 H502 0.929 . S
C506 C508 1.378 . S
C506 C510 1.350 . S
C507 C510 1.463 . S
C507 C512 1.350 . S
C507 N515 1.427 . S
C508 H499 0.930 . S
C508 C506 1.378 . S
C508 C509 1.367 . S
C509 C508 1.367 . S
C509 C511 1.433 . S
C510 C506 1.350 . S
C510 C507 1.463 . S
C510 N514 1.427 . S
C511 H501 0.929 . S
C511 C509 1.433 . S
C511 N514 1.384 . S
C512 H503 0.929 . S
C512 C504 1.378 . S
C512 C507 1.350 . S
C513 H500 0.929 . S
C513 C505 1.433 . S
C513 N515 1.384 . S
N514 C510 1.427 . S
N514 C511 1.384 . S
N515 C507 1.427 . S
N515 C513 1.384 . S
H516 C522 0.930 . S
H517 C526 0.930 . S
H518 C531 0.929 . S
H519 C529 0.929 . S
H520 C524 0.929 . S
H521 C530 0.929 . S
C522 H516 0.930 . S
C522 C523 1.367 . S
C522 C530 1.378 . S
C523 C522 1.367 . S
C523 C531 1.433 . S
C524 H520 0.929 . S
C524 C526 1.378 . S
C524 C528 1.350 . S
C525 C528 1.463 . S
C525 C530 1.350 . S
C525 N533 1.427 . S
C526 H517 0.930 . S
C526 C524 1.378 . S
C526 C527 1.367 . S
C527 C526 1.367 . S
C527 C529 1.433 . S
C528 C524 1.350 . S
C528 C525 1.463 . S
C528 N532 1.427 . S
C529 H519 0.929 . S
C529 C527 1.433 . S
C529 N532 1.384 . S
C530 H521 0.929 . S
C530 C522 1.378 . S
C530 C525 1.350 . S
C531 H518 0.929 . S
C531 C523 1.433 . S
C531 N533 1.384 . S
N532 C528 1.427 . S
N532 C529 1.384 . S
N533 C525 1.427 . S
N533 C531 1.384 . S
H534 C540 0.930 . S
H535 C544 0.930 . S
H536 C549 0.929 . S
H537 C547 0.929 . S
H538 C542 0.929 . S
H539 C548 0.929 . S
C540 H534 0.930 . S
C540 C541 1.367 . S
C540 C548 1.378 . S
C541 C540 1.367 . S
C541 C549 1.433 . S
C542 H538 0.929 . S
C542 C544 1.378 . S
C542 C546 1.350 . S
C543 C546 1.463 . S
C543 C548 1.350 . S
C543 N551 1.427 . S
C544 H535 0.930 . S
C544 C542 1.378 . S
C544 C545 1.367 . S
C545 C544 1.367 . S
C545 C547 1.433 . S
C546 C542 1.350 . S
C546 C543 1.463 . S
C546 N550 1.427 . S
C547 H537 0.929 . S
C547 C545 1.433 . S
C547 N550 1.384 . S
C548 H539 0.929 . S
C548 C540 1.378 . S
C548 C543 1.350 . S
C549 H536 0.929 . S
C549 C541 1.433 . S
C549 N551 1.384 . S
N550 C546 1.427 . S
N550 C547 1.384 . S
N551 C543 1.427 . S
N551 C549 1.384 . S
H552 C558 0.930 . S
H553 C562 0.930 . S
H554 C567 0.929 . S
H555 C565 0.929 . S
H556 C560 0.929 . S
H557 C566 0.929 . S
C558 H552 0.930 . S
C558 C559 1.367 . S
C558 C566 1.378 . S
C559 C558 1.367 . S
C559 C567 1.433 . S
C560 H556 0.929 . S
C560 C562 1.378 . S
C560 C564 1.350 . S
C561 C564 1.463 . S
C561 C566 1.350 . S
C561 N569 1.427 . S
C562 H553 0.930 . S
C562 C560 1.378 . S
C562 C563 1.367 . S
C563 C562 1.367 . S
C563 C565 1.433 . S
C564 C560 1.350 . S
C564 C561 1.463 . S
C564 N568 1.427 . S
C565 H555 0.929 . S
C565 C563 1.433 . S
C565 N568 1.384 . S
C566 H557 0.929 . S
C566 C558 1.378 . S
C566 C561 1.350 . S
C567 H554 0.929 . S
C567 C559 1.433 . S
C567 N569 1.384 . S
N568 C564 1.427 . S
N568 C565 1.384 . S
N569 C561 1.427 . S
N569 C567 1.384 . S
H570 C576 0.930 . S
H571 C580 0.930 . S
H572 C585 0.929 . S
H573 C583 0.929 . S
H574 C578 0.929 . S
H575 C584 0.929 . S
C576 H570 0.930 . S
C576 C577 1.367 . S
C576 C584 1.378 . S
C577 C576 1.367 . S
C577 C585 1.433 . S
C578 H574 0.929 . S
C578 C580 1.378 . S
C578 C582 1.350 . S
C579 C582 1.463 . S
C579 C584 1.350 . S
C579 N587 1.427 . S
C580 H571 0.930 . S
C580 C578 1.378 . S
C580 C581 1.367 . S
C581 C580 1.367 . S
C581 C583 1.433 . S
C582 C578 1.350 . S
C582 C579 1.463 . S
C582 N586 1.427 . S
C583 H573 0.929 . S
C583 C581 1.433 . S
C583 N586 1.384 . S
C584 H575 0.929 . S
C584 C576 1.378 . S
C584 C579 1.350 . S
C585 H572 0.929 . S
C585 C577 1.433 . S
C585 N587 1.384 . S
N586 C582 1.427 . S
N586 C583 1.384 . S
N587 C579 1.427 . S
N587 C585 1.384 . S
H588 C594 0.930 . S
H589 C598 0.930 . S
H590 C603 0.929 . S
H591 C601 0.929 . S
H592 C596 0.929 . S
H593 C602 0.929 . S
C594 H588 0.930 . S
C594 C595 1.367 . S
C594 C602 1.378 . S
C595 C594 1.367 . S
C595 C603 1.433 . S
C596 H592 0.929 . S
C596 C598 1.378 . S
C596 C600 1.350 . S
C597 C600 1.463 . S
C597 C602 1.350 . S
C597 N605 1.427 . S
C598 H589 0.930 . S
C598 C596 1.378 . S
C598 C599 1.367 . S
C599 C598 1.367 . S
C599 C601 1.433 . S
C600 C596 1.350 . S
C600 C597 1.463 . S
C600 N604 1.427 . S
C601 H591 0.929 . S
C601 C599 1.433 . S
C601 N604 1.384 . S
C602 H593 0.929 . S
C602 C594 1.378 . S
C602 C597 1.350 . S
C603 H590 0.929 . S
C603 C595 1.433 . S
C603 N605 1.384 . S
N604 C600 1.427 . S
N604 C601 1.384 . S
N605 C597 1.427 . S
N605 C603 1.384 . S
H606 C612 0.930 . S
H607 C616 0.930 . S
H608 C621 0.929 . S
H609 C619 0.929 . S
H610 C614 0.929 . S
H611 C620 0.929 . S
C612 H606 0.930 . S
C612 C613 1.367 . S
C612 C620 1.378 . S
C613 C612 1.367 . S
C613 C621 1.433 . S
C614 H610 0.929 . S
C614 C616 1.378 . S
C614 C618 1.350 . S
C615 C618 1.463 . S
C615 C620 1.350 . S
C615 N623 1.427 . S
C616 H607 0.930 . S
C616 C614 1.378 . S
C616 C617 1.367 . S
C617 C616 1.367 . S
C617 C619 1.433 . S
C618 C614 1.350 . S
C618 C615 1.463 . S
C618 N622 1.427 . S
C619 H609 0.929 . S
C619 C617 1.433 . S
C619 N622 1.384 . S
C620 H611 0.929 . S
C620 C612 1.378 . S
C620 C615 1.350 . S
C621 H608 0.929 . S
C621 C613 1.433 . S
C621 N623 1.384 . S
N622 C618 1.427 . S
N622 C619 1.384 . S
N623 C615 1.427 . S
N623 C621 1.384 . S
H624 C630 0.930 . S
H625 C634 0.930 . S
H626 C639 0.929 . S
H627 C637 0.929 . S
H628 C632 0.929 . S
H629 C638 0.929 . S
C630 H624 0.930 . S
C630 C631 1.367 . S
C630 C638 1.378 . S
C631 C630 1.367 . S
C631 C639 1.433 . S
C632 H628 0.929 . S
C632 C634 1.378 . S
C632 C636 1.350 . S
C633 C636 1.463 . S
C633 C638 1.350 . S
C633 N641 1.427 . S
C634 H625 0.930 . S
C634 C632 1.378 . S
C634 C635 1.367 . S
C635 C634 1.367 . S
C635 C637 1.433 . S
C636 C632 1.350 . S
C636 C633 1.463 . S
C636 N640 1.427 . S
C637 H627 0.929 . S
C637 C635 1.433 . S
C637 N640 1.384 . S
C638 H629 0.929 . S
C638 C630 1.378 . S
C638 C633 1.350 . S
C639 H626 0.929 . S
C639 C631 1.433 . S
C639 N641 1.384 . S
N640 C636 1.427 . S
N640 C637 1.384 . S
N641 C633 1.427 . S
N641 C639 1.384 . S
H642 C648 0.930 . S
H643 C652 0.930 . S
H644 C657 0.929 . S
H645 C655 0.929 . S
H646 C650 0.929 . S
H647 C656 0.929 . S
C648 H642 0.930 . S
C648 C649 1.367 . S
C648 C656 1.378 . S
C649 C648 1.367 . S
C649 C657 1.433 . S
C650 H646 0.929 . S
C650 C652 1.378 . S
C650 C654 1.350 . S
C651 C654 1.463 . S
C651 C656 1.350 . S
C651 N659 1.427 . S
C652 H643 0.930 . S
C652 C650 1.378 . S
C652 C653 1.367 . S
C653 C652 1.367 . S
C653 C655 1.433 . S
C654 C650 1.350 . S
C654 C651 1.463 . S
C654 N658 1.427 . S
C655 H645 0.929 . S
C655 C653 1.433 . S
C655 N658 1.384 . S
C656 H647 0.929 . S
C656 C648 1.378 . S
C656 C651 1.350 . S
C657 H644 0.929 . S
C657 C649 1.433 . S
C657 N659 1.384 . S
N658 C654 1.427 . S
N658 C655 1.384 . S
N659 C651 1.427 . S
N659 C657 1.384 . S
H660 C666 0.930 . S
H661 C670 0.930 . S
H662 C675 0.929 . S
H663 C673 0.929 . S
H664 C668 0.929 . S
H665 C674 0.929 . S
C666 H660 0.930 . S
C666 C667 1.367 . S
C666 C674 1.378 . S
C667 C666 1.367 . S
C667 C675 1.433 . S
C668 H664 0.929 . S
C668 C670 1.378 . S
C668 C672 1.350 . S
C669 C672 1.463 . S
C669 C674 1.350 . S
C669 N677 1.427 . S
C670 H661 0.930 . S
C670 C668 1.378 . S
C670 C671 1.367 . S
C671 C670 1.367 . S
C671 C673 1.433 . S
C672 C668 1.350 . S
C672 C669 1.463 . S
C672 N676 1.427 . S
C673 H663 0.929 . S
C673 C671 1.433 . S
C673 N676 1.384 . S
C674 H665 0.929 . S
C674 C666 1.378 . S
C674 C669 1.350 . S
C675 H662 0.929 . S
C675 C667 1.433 . S
C675 N677 1.384 . S
N676 C672 1.427 . S
N676 C673 1.384 . S
N677 C669 1.427 . S
N677 C675 1.384 . S
H678 C684 0.930 . S
H679 C688 0.930 . S
H680 C693 0.929 . S
H681 C691 0.929 . S
H682 C686 0.929 . S
H683 C692 0.929 . S
C684 H678 0.930 . S
C684 C685 1.367 . S
C684 C692 1.378 . S
C685 C684 1.367 . S
C685 C693 1.433 . S
C686 H682 0.929 . S
C686 C688 1.378 . S
C686 C690 1.350 . S
C687 C690 1.463 . S
C687 C692 1.350 . S
C687 N695 1.427 . S
C688 H679 0.930 . S
C688 C686 1.378 . S
C688 C689 1.367 . S
C689 C688 1.367 . S
C689 C691 1.433 . S
C690 C686 1.350 . S
C690 C687 1.463 . S
C690 N694 1.427 . S
C691 H681 0.929 . S
C691 C689 1.433 . S
C691 N694 1.384 . S
C692 H683 0.929 . S
C692 C684 1.378 . S
C692 C687 1.350 . S
C693 H680 0.929 . S
C693 C685 1.433 . S
C693 N695 1.384 . S
N694 C690 1.427 . S
N694 C691 1.384 . S
N695 C687 1.427 . S
N695 C693 1.384 . S
H696 C702 0.930 . S
H697 C706 0.930 . S
H698 C711 0.929 . S
H699 C709 0.929 . S
H700 C704 0.929 . S
H701 C710 0.929 . S
C702 H696 0.930 . S
C702 C703 1.367 . S
C702 C710 1.378 . S
C703 C702 1.367 . S
C703 C711 1.433 1_455 S
C704 H700 0.929 . S
C704 C706 1.378 . S
C704 C708 1.350 1_655 S
C705 C708 1.463 . S
C705 C710 1.350 . S
C705 N713 1.427 1_455 S
C706 H697 0.930 . S
C706 C704 1.378 . S
C706 C707 1.367 1_655 S
C707 C706 1.367 1_455 S
C707 C709 1.433 . S
C708 C704 1.350 1_455 S
C708 C705 1.463 . S
C708 N712 1.427 . S
C709 H699 0.929 . S
C709 C707 1.433 . S
C709 N712 1.384 . S
C710 H701 0.929 . S
C710 C702 1.378 . S
C710 C705 1.350 . S
C711 H698 0.929 . S
C711 C703 1.433 1_655 S
C711 N713 1.384 . S
N712 C708 1.427 . S
N712 C709 1.384 . S
N713 C705 1.427 1_655 S
N713 C711 1.384 . S
H714 C720 0.930 . S
H715 C724 0.930 . S
H716 C729 0.929 1_565 S
H717 C727 0.929 . S
H718 C722 0.929 . S
H719 C728 0.929 . S
C720 H714 0.930 . S
C720 C721 1.367 . S
C720 C728 1.378 . S
C721 C720 1.367 . S
C721 C729 1.433 . S
C722 H718 0.929 . S
C722 C724 1.378 . S
C722 C726 1.350 . S
C723 C726 1.463 . S
C723 C728 1.350 . S
C723 N731 1.427 . S
C724 H715 0.930 . S
C724 C722 1.378 . S
C724 C725 1.367 . S
C725 C724 1.367 . S
C725 C727 1.433 . S
C726 C722 1.350 . S
C726 C723 1.463 . S
C726 N730 1.427 . S
C727 H717 0.929 . S
C727 C725 1.433 . S
C727 N730 1.384 . S
C728 H719 0.929 . S
C728 C720 1.378 . S
C728 C723 1.350 . S
C729 H716 0.929 1_545 S
C729 C721 1.433 . S
C729 N731 1.384 . S
N730 C726 1.427 . S
N730 C727 1.384 . S
N731 C723 1.427 . S
N731 C729 1.384 . S
H732 C738 0.930 . S
H733 C742 0.930 . S
H734 C747 0.929 . S
H735 C745 0.929 . S
H736 C740 0.929 . S
H737 C746 0.929 . S
C738 H732 0.930 . S
C738 C739 1.367 . S
C738 C746 1.378 . S
C739 C738 1.367 . S
C739 C747 1.433 . S
C740 H736 0.929 . S
C740 C742 1.378 . S
C740 C744 1.350 . S
C741 C744 1.463 . S
C741 C746 1.350 . S
C741 N749 1.427 . S
C742 H733 0.930 . S
C742 C740 1.378 . S
C742 C743 1.367 . S
C743 C742 1.367 . S
C743 C745 1.433 . S
C744 C740 1.350 . S
C744 C741 1.463 . S
C744 N748 1.427 . S
C745 H735 0.929 . S
C745 C743 1.433 . S
C745 N748 1.384 . S
C746 H737 0.929 . S
C746 C738 1.378 . S
C746 C741 1.350 . S
C747 H734 0.929 . S
C747 C739 1.433 . S
C747 N749 1.384 . S
N748 C744 1.427 . S
N748 C745 1.384 . S
N749 C741 1.427 . S
N749 C747 1.384 . S
H750 C756 0.930 . S
H751 C760 0.930 . S
H752 C765 0.929 . S
H753 C763 0.929 . S
H754 C758 0.929 . S
H755 C764 0.929 . S
C756 H750 0.930 . S
C756 C757 1.367 1_565 S
C756 C764 1.378 . S
C757 C756 1.367 1_545 S
C757 C765 1.433 . S
C758 H754 0.929 . S
C758 C760 1.378 . S
C758 C762 1.350 . S
C759 C762 1.463 . S
C759 C764 1.350 1_545 S
C759 N767 1.427 . S
C760 H751 0.930 . S
C760 C758 1.378 . S
C760 C761 1.367 . S
C761 C760 1.367 . S
C761 C763 1.433 1_545 S
C762 C758 1.350 . S
C762 C759 1.463 . S
C762 N766 1.427 1_545 S
C763 H753 0.929 . S
C763 C761 1.433 1_565 S
C763 N766 1.384 . S
C764 H755 0.929 . S
C764 C756 1.378 . S
C764 C759 1.350 1_565 S
C765 H752 0.929 . S
C765 C757 1.433 . S
C765 N767 1.384 . S
N766 C762 1.427 1_565 S
N766 C763 1.384 . S
N767 C759 1.427 . S
N767 C765 1.384 . S
H768 C774 0.930 . S
H769 C778 0.930 . S
H770 C783 0.929 . S
H771 C781 0.929 . S
H772 C776 0.929 . S
H773 C782 0.929 . S
C774 H768 0.930 . S
C774 C775 1.367 . S
C774 C782 1.378 . S
C775 C774 1.367 . S
C775 C783 1.433 . S
C776 H772 0.929 . S
C776 C778 1.378 . S
C776 C780 1.350 . S
C777 C780 1.463 . S
C777 C782 1.350 . S
C777 N785 1.427 . S
C778 H769 0.930 . S
C778 C776 1.378 . S
C778 C779 1.367 . S
C779 C778 1.367 . S
C779 C781 1.433 . S
C780 C776 1.350 . S
C780 C777 1.463 . S
C780 N784 1.427 . S
C781 H771 0.929 . S
C781 C779 1.433 . S
C781 N784 1.384 . S
C782 H773 0.929 . S
C782 C774 1.378 . S
C782 C777 1.350 . S
C783 H770 0.929 . S
C783 C775 1.433 . S
C783 N785 1.384 . S
N784 C780 1.427 . S
N784 C781 1.384 . S
N785 C777 1.427 . S
N785 C783 1.384 . S
H786 C792 0.930 . S
H787 C796 0.930 . S
H788 C801 0.929 . S
H789 C799 0.929 . S
H790 C794 0.929 . S
H791 C800 0.929 . S
C792 H786 0.930 . S
C792 C793 1.367 1_655 S
C792 C800 1.378 . S
C793 C792 1.367 1_455 S
C793 C801 1.433 . S
C794 H790 0.929 . S
C794 C796 1.378 . S
C794 C798 1.339 1_455 S
C795 C798 1.461 1_455 S
C795 C800 1.349 1_455 S
C795 N803 1.428 . S
C796 H787 0.930 . S
C796 C794 1.378 . S
C796 C797 1.367 1_455 S
C797 C796 1.367 1_655 S
C797 C799 1.433 . S
C798 C794 1.339 1_655 S
C798 C795 1.461 1_655 S
C798 N802 1.440 . S
C799 H789 0.929 . S
C799 C797 1.433 . S
C799 N802 1.384 . S
C800 H791 0.929 . S
C800 C792 1.378 . S
C800 C795 1.349 1_655 S
C801 H788 0.929 . S
C801 C793 1.433 . S
C801 N803 1.384 . S
N802 C798 1.440 . S
N802 C799 1.384 . S
N803 C795 1.428 . S
N803 C801 1.384 . S
C487 C24 2.941 . S
C491 C451 2.927 . S
C505 C66 1.140 . S
C509 C301 1.133 . S
C523 C93 1.842 . S
C527 C361 1.690 . S
C541 C13 3.085 . S
C545 C421 2.903 . S
C563 C331 1.305 . S
C559 C57 1.297 . S
C581 C391 1.979 . S
C577 C104 1.982 . S
C595 C64 1.959 . S
C599 C181 1.799 . S
C613 C97 0.530 . S
C617 C271 0.507 . S
C631 C17 1.301 . S
C635 C151 1.307 . S
C653 C211 1.839 . S
C649 C53 1.852 . S
C671 C241 0.284 . S
C667 C106 0.399 . S
C685 C26 1.151 . S
C689 C121 1.145 . S
C707 C260 1.052 1_554 S
C703 C2 1.071 . S
C721 C63 1.467 . S
C725 C140 1.464 . S
C739 C82 1.363 . S
C743 C200 1.361 . S
C761 C380 1.387 . S
C757 C42 1.389 . S
C779 C440 1.773 1_556 S
C775 C103 1.746 . S
C793 C23 1.473 . S
C797 C320 1.478 1_655 S
