# Generated by pormake.
# Topology nom, (4,4)-cn, num edge types: 1
# Building blocks:
#     Node 0, Type 0, BuildingBlock: NAWXER_clean_linker_0, # of connection points: 4
#     Node 1, Type 0, BuildingBlock: NAWXER_clean_linker_0, # of connection points: 4
#     Node 2, Type 0, BuildingBlock: NAWXER_clean_linker_0, # of connection points: 4
#     Node 3, Type 0, BuildingBlock: NAWXER_clean_linker_0, # of connection points: 4
#     Node 4, Type 0, BuildingBlock: NAWXER_clean_linker_0, # of connection points: 4
#     Node 5, Type 0, BuildingBlock: NAWXER_clean_linker_0, # of connection points: 4
#     Node 6, Type 1, BuildingBlock: UXUYUI_clean_sbu_0, # of connection points: 4
#     Node 7, Type 1, BuildingBlock: UXUYUI_clean_sbu_0, # of connection points: 4
#     Node 8, Type 1, BuildingBlock: UXUYUI_clean_sbu_0, # of connection points: 4
#     Node 9, Type 1, BuildingBlock: UXUYUI_clean_sbu_0, # of connection points: 4
#     Node 10, Type 1, BuildingBlock: UXUYUI_clean_sbu_0, # of connection points: 4
#     Node 11, Type 1, BuildingBlock: UXUYUI_clean_sbu_0, # of connection points: 4
#     Edge 12, Type (0, 1), BuildingBlock: AJUNOK_clean_linker_0, # of connection points: 2
#     Edge 13, Type (0, 1), BuildingBlock: AJUNOK_clean_linker_0, # of connection points: 2
#     Edge 14, Type (0, 1), BuildingBlock: AJUNOK_clean_linker_0, # of connection points: 2
#     Edge 15, Type (0, 1), BuildingBlock: AJUNOK_clean_linker_0, # of connection points: 2
#     Edge 16, Type (0, 1), BuildingBlock: AJUNOK_clean_linker_0, # of connection points: 2
#     Edge 17, Type (0, 1), BuildingBlock: AJUNOK_clean_linker_0, # of connection points: 2
#     Edge 18, Type (0, 1), BuildingBlock: AJUNOK_clean_linker_0, # of connection points: 2
#     Edge 19, Type (0, 1), BuildingBlock: AJUNOK_clean_linker_0, # of connection points: 2
#     Edge 20, Type (0, 1), BuildingBlock: AJUNOK_clean_linker_0, # of connection points: 2
#     Edge 21, Type (0, 1), BuildingBlock: AJUNOK_clean_linker_0, # of connection points: 2
#     Edge 22, Type (0, 1), BuildingBlock: AJUNOK_clean_linker_0, # of connection points: 2
#     Edge 23, Type (0, 1), BuildingBlock: AJUNOK_clean_linker_0, # of connection points: 2
#     Edge 24, Type (0, 1), BuildingBlock: AJUNOK_clean_linker_0, # of connection points: 2
#     Edge 25, Type (0, 1), BuildingBlock: AJUNOK_clean_linker_0, # of connection points: 2
#     Edge 26, Type (0, 1), BuildingBlock: AJUNOK_clean_linker_0, # of connection points: 2
#     Edge 27, Type (0, 1), BuildingBlock: AJUNOK_clean_linker_0, # of connection points: 2
#     Edge 28, Type (0, 1), BuildingBlock: AJUNOK_clean_linker_0, # of connection points: 2
#     Edge 29, Type (0, 1), BuildingBlock: AJUNOK_clean_linker_0, # of connection points: 2
#     Edge 30, Type (0, 1), BuildingBlock: AJUNOK_clean_linker_0, # of connection points: 2
#     Edge 31, Type (0, 1), BuildingBlock: AJUNOK_clean_linker_0, # of connection points: 2
#     Edge 32, Type (0, 1), BuildingBlock: AJUNOK_clean_linker_0, # of connection points: 2
#     Edge 33, Type (0, 1), BuildingBlock: AJUNOK_clean_linker_0, # of connection points: 2
#     Edge 34, Type (0, 1), BuildingBlock: AJUNOK_clean_linker_0, # of connection points: 2
#     Edge 35, Type (0, 1), BuildingBlock: AJUNOK_clean_linker_0, # of connection points: 2
# Relax obj value: 0.041
# Max RMSD: 0.144
# Mean RMSD: 0.123
data_MOF--net-nom--node1-UXUYUI_clean_sbu_0--node2-NAWXER_clean_linker_0--edge1-AJUNOK_clean_linker_0
_symmetry_space_group_name_H-M    P1
_symmetry_Int_Tables_number       1
_symmetry_cell_setting            triclinic
loop_
_symmetry_equiv_pos_as_xyz
'x, y, z'
_cell_length_a     50.879483
_cell_length_b     50.887206
_cell_length_c     56.312593
_cell_angle_alpha  89.917997
_cell_angle_beta   90.060011
_cell_angle_gamma 120.01432
loop_
_atom_site_label
_atom_site_type_symbol
_atom_site_fract_x
_atom_site_fract_y
_atom_site_fract_z
_atom_type_partial_charge
C0 C 0.91667 0.50999 0.34377 0.0
C1 C 0.90425 0.49008 0.36312 0.0
C2 C 0.94565 0.5184 0.33545 0.0
C3 C 0.96262 0.50661 0.34603 0.0
C4 C 0.92122 0.47835 0.37378 0.0
C5 C 0.95025 0.48671 0.36539 0.0
C6 C 0.99418 0.51719 0.33829 0.0
C7 C 0.9361 0.46598 0.27613 0.0
C8 C 0.9416 0.48246 0.25487 0.0
C9 C 0.9559 0.47833 0.29541 0.0
C10 C 0.98121 0.50779 0.29411 0.0
C11 C 0.96706 0.51178 0.25352 0.0
C12 C 0.98668 0.52425 0.27288 0.0
C13 C 0.00302 0.5209 0.31417 0.0
C14 C 0.14053 0.58273 0.31894 0.0
C15 C 0.14704 0.60623 0.30268 0.0
C16 C 0.11066 0.56324 0.32639 0.0
C17 C 0.08693 0.56738 0.31807 0.0
C18 C 0.1231 0.60968 0.29389 0.0
C19 C 0.0934 0.59042 0.30146 0.0
C20 C 0.05513 0.54798 0.32598 0.0
C21 C 0.10889 0.59132 0.39333 0.0
C22 C 0.10664 0.56974 0.41006 0.0
C23 C 0.08953 0.58241 0.37362 0.0
C24 C 0.06786 0.55169 0.37017 0.0
C25 C 0.08498 0.53904 0.40652 0.0
C26 C 0.06562 0.53016 0.38687 0.0
C27 C 0.04625 0.54178 0.35007 0.0
H28 H 0.90421 0.51963 0.33542 0.0
H29 H 0.95504 0.53468 0.32108 0.0
H30 H 0.91201 0.46265 0.38854 0.0
H31 H 0.96305 0.47763 0.37402 0.0
H32 H 0.91641 0.44355 0.27792 0.0
H33 H 0.95153 0.46464 0.31123 0.0
H34 H 0.97203 0.52497 0.23734 0.0
H35 H 0.00616 0.54686 0.27126 0.0
H36 H 0.15857 0.57974 0.32624 0.0
H37 H 0.1062 0.54513 0.33872 0.0
H38 H 0.12737 0.62737 0.28117 0.0
H39 H 0.07546 0.5939 0.29458 0.0
H40 H 0.1256 0.6151 0.3955 0.0
H41 H 0.09128 0.59951 0.36123 0.0
H42 H 0.08262 0.52198 0.41921 0.0
H43 H 0.04883 0.50639 0.38468 0.0
N44 N 0.01611 0.52698 0.35526 0.0
N45 N 0.03314 0.53683 0.30903 0.0
C46 C 0.43066 0.91548 0.51183 0.0
C47 C 0.43878 0.90498 0.53208 0.0
C48 C 0.45011 0.94441 0.50278 0.0
C49 C 0.47852 0.96322 0.51337 0.0
C50 C 0.46726 0.92365 0.54259 0.0
C51 C 0.48686 0.95256 0.5334 0.0
C52 C 0.49802 0.99498 0.50522 0.0
C53 C 0.49574 0.94005 0.44182 0.0
C54 C 0.48395 0.94504 0.42082 0.0
C55 C 0.50101 0.95857 0.46167 0.0
C56 C 0.49405 0.98205 0.461 0.0
C57 C 0.47664 0.96824 0.42027 0.0
C58 C 0.48178 0.98665 0.4401 0.0
C59 C 0.50203 0.00366 0.48104 0.0
C60 C 0.57924 0.13982 0.4814 0.0
C61 C 0.56109 0.14668 0.46671 0.0
C62 C 0.56803 0.11033 0.49014 0.0
C63 C 0.53849 0.08739 0.48437 0.0
C64 C 0.53162 0.12365 0.46098 0.0
C65 C 0.52053 0.09425 0.46956 0.0
C66 C 0.52619 0.05578 0.49253 0.0
C67 C 0.54095 0.1119 0.55884 0.0
C68 C 0.55904 0.10845 0.57607 0.0
C69 C 0.52978 0.09227 0.53935 0.0
C70 C 0.53702 0.06918 0.5365 0.0
C71 C 0.56616 0.08529 0.57317 0.0
C72 C 0.55512 0.06578 0.55367 0.0
C73 C 0.5246 0.04726 0.51661 0.0
H74 H 0.40913 0.90139 0.50305 0.0
H75 H 0.4425 0.95229 0.48784 0.0
H76 H 0.47408 0.91615 0.55823 0.0
H77 H 0.50843 0.96675 0.54211 0.0
H78 H 0.5017 0.9224 0.44265 0.0
H79 H 0.51135 0.95504 0.47726 0.0
H80 H 0.46701 0.97222 0.40443 0.0
H81 H 0.47633 0.00466 0.43906 0.0
H82 H 0.60197 0.15728 0.48623 0.0
H83 H 0.58246 0.1054 0.50121 0.0
H84 H 0.51727 0.12833 0.44958 0.0
H85 H 0.49777 0.07682 0.46473 0.0
H86 H 0.53539 0.12978 0.56043 0.0
H87 H 0.51518 0.0949 0.52674 0.0
H88 H 0.57982 0.08191 0.58625 0.0
H89 H 0.56073 0.04794 0.552 0.0
N90 N 0.5102 0.01716 0.52199 0.0
N91 N 0.51525 0.03367 0.47574 0.0
C92 C 0.57139 0.48693 0.60345 0.0
C93 C 0.55197 0.47108 0.58448 0.0
C94 C 0.56037 0.49481 0.62331 0.0
C95 C 0.52969 0.48693 0.62458 0.0
C96 C 0.52136 0.46343 0.58565 0.0
C97 C 0.51037 0.47144 0.60546 0.0
C98 C 0.51822 0.4966 0.64502 0.0
C99 C 0.53736 0.4268 0.67508 0.0
C100 C 0.55988 0.43678 0.69269 0.0
C101 C 0.52661 0.44566 0.66709 0.0
C102 C 0.53838 0.47508 0.67634 0.0
C103 C 0.57131 0.46598 0.70229 0.0
C104 C 0.5606 0.48495 0.69421 0.0
C105 C 0.52555 0.49433 0.66888 0.0
C106 C 0.45786 0.54121 0.72587 0.0
C107 C 0.48146 0.56286 0.74015 0.0
C108 C 0.46426 0.52796 0.70664 0.0
C109 C 0.49438 0.53621 0.70131 0.0
C110 C 0.51152 0.57071 0.73495 0.0
C111 C 0.51789 0.5574 0.71577 0.0
C112 C 0.50168 0.52217 0.6813 0.0
C113 C 0.46053 0.57504 0.64925 0.0
C114 C 0.43321 0.55603 0.63722 0.0
C115 C 0.47986 0.5642 0.65603 0.0
C116 C 0.47218 0.53421 0.65085 0.0
C117 C 0.42593 0.52622 0.63175 0.0
C118 C 0.44531 0.51549 0.63838 0.0
C119 C 0.49207 0.52204 0.65773 0.0
H120 H 0.5951 0.4932 0.60292 0.0
H121 H 0.57599 0.50754 0.63748 0.0
H122 H 0.50605 0.4517 0.57105 0.0
H123 H 0.48675 0.46551 0.60588 0.0
H124 H 0.52749 0.40408 0.66788 0.0
H125 H 0.5085 0.43687 0.65408 0.0
H126 H 0.58856 0.47412 0.716 0.0
H127 H 0.56964 0.50732 0.70193 0.0
H128 H 0.4344 0.53403 0.72987 0.0
H129 H 0.44567 0.511 0.69614 0.0
H130 H 0.53015 0.58726 0.74567 0.0
H131 H 0.54126 0.56386 0.7121 0.0
H132 H 0.46716 0.59838 0.65313 0.0
H133 H 0.50087 0.57927 0.66512 0.0
H134 H 0.40504 0.51104 0.62255 0.0
H135 H 0.43907 0.49233 0.63408 0.0
N136 N 0.50108 0.50965 0.64046 0.0
N137 N 0.5177 0.50794 0.68602 0.0
C138 C 0.9136 0.43005 0.82273 0.0
C139 C 0.90119 0.43806 0.80368 0.0
C140 C 0.94263 0.45036 0.83115 0.0
C141 C 0.95974 0.4793 0.82089 0.0
C142 C 0.918 0.46718 0.79368 0.0
C143 C 0.94715 0.48752 0.80208 0.0
C144 C 0.99179 0.49945 0.82798 0.0
C145 C 0.93935 0.49678 0.89292 0.0
C146 C 0.94469 0.48433 0.9134 0.0
C147 C 0.95737 0.50251 0.8727 0.0
C148 C 0.98084 0.49553 0.87246 0.0
C149 C 0.96791 0.47702 0.91303 0.0
C150 C 0.98594 0.48278 0.89284 0.0
C151 C 1.00166 0.50368 0.85186 0.0
C152 C 0.13883 0.57803 0.84404 0.0
C153 C 0.14584 0.56071 0.85953 0.0
C154 C 0.10873 0.56776 0.83734 0.0
C155 C 0.08527 0.53973 0.8457 0.0
C156 C 0.12226 0.53322 0.86844 0.0
C157 C 0.0923 0.52286 0.8616 0.0
C158 C 0.05318 0.52776 0.83875 0.0
C159 C 0.1037 0.53853 0.7697 0.0
C160 C 0.1032 0.56059 0.75495 0.0
C161 C 0.08441 0.52724 0.78939 0.0
C162 C 0.06436 0.53788 0.79459 0.0
C163 C 0.08313 0.57117 0.76023 0.0
C164 C 0.06365 0.55966 0.77973 0.0
C165 C 0.04338 0.52592 0.81501 0.0
H166 H 0.90095 0.40788 0.83095 0.0
H167 H 0.95205 0.44299 0.84518 0.0
H168 H 0.90893 0.47386 0.77894 0.0
H169 H 0.96005 0.50954 0.79367 0.0
H170 H 0.92171 0.50279 0.89276 0.0
H171 H 0.95344 0.51316 0.8575 0.0
H172 H 0.97213 0.46679 0.92837 0.0
H173 H 0.00394 0.47727 0.89315 0.0
H174 H 0.15659 0.59964 0.83734 0.0
H175 H 0.10384 0.58179 0.82577 0.0
H176 H 0.12709 0.51948 0.88041 0.0
H177 H 0.07459 0.50133 0.86848 0.0
H178 H 0.11913 0.53019 0.76606 0.0
H179 H 0.08501 0.51013 0.80047 0.0
H180 H 0.08224 0.58805 0.74904 0.0
H181 H 0.04819 0.56798 0.78337 0.0
N182 N 0.01307 0.51147 0.81052 0.0
N183 N 0.03192 0.51698 0.85623 0.0
C184 C 0.50725 0.91115 0.98834 0.0
C185 C 0.48478 0.89816 0.97072 0.0
C186 C 0.5176 0.94076 0.99604 0.0
C187 C 0.50559 0.95801 0.98639 0.0
C188 C 0.47322 0.91563 0.96066 0.0
C189 C 0.48365 0.94538 0.96838 0.0
C190 C 0.51744 0.98977 0.99411 0.0
C191 C 0.46711 0.93225 0.05665 0.0
C192 C 0.48444 0.93667 0.07723 0.0
C193 C 0.47933 0.9522 0.03744 0.0
C194 C 0.50933 0.97665 0.03825 0.0
C195 C 0.51416 0.96145 0.07829 0.0
C196 C 0.52649 0.98123 0.05898 0.0
C197 C 0.52231 0.99854 0.01824 0.0
C198 C 0.58494 0.1357 0.01505 0.0
C199 C 0.60963 0.14199 0.02994 0.0
C200 C 0.56513 0.10599 0.00746 0.0
C201 C 0.57004 0.08224 0.01434 0.0
C202 C 0.61401 0.11806 0.03718 0.0
C203 C 0.59435 0.0885 0.02955 0.0
C204 C 0.55001 0.05059 0.00648 0.0
C205 C 0.5903 0.10646 0.93981 0.0
C206 C 0.56804 0.10444 0.92388 0.0
C207 C 0.58233 0.0862 0.95888 0.0
C208 C 0.55189 0.06375 0.96249 0.0
C209 C 0.53776 0.08141 0.92719 0.0
C210 C 0.52981 0.06126 0.94627 0.0
C211 C 0.54274 0.04189 0.98243 0.0
H212 H 0.51729 0.89859 0.99586 0.0
H213 H 0.5354 0.95036 0.0093 0.0
H214 H 0.45601 0.90621 0.94694 0.0
H215 H 0.47444 0.95845 0.96041 0.0
H216 H 0.44389 0.91373 0.05563 0.0
H217 H 0.46506 0.94876 0.02214 0.0
H218 H 0.52793 0.96537 0.09401 0.0
H219 H 0.54952 1.00008 0.06023 0.0
H220 H 0.58122 0.15378 0.00898 0.0
H221 H 0.54612 0.10162 0.99617 0.0
H222 H 0.63268 0.12221 0.04881 0.0
H223 H 0.59842 0.0705 0.03528 0.0
H224 H 0.61385 0.12383 0.93758 0.0
H225 H 0.59994 0.08803 0.97073 0.0
H226 H 0.52025 0.07871 0.91484 0.0
H227 H 0.50628 0.04377 0.94845 0.0
N228 N 0.52705 0.01176 0.97718 0.0
N229 N 0.53909 0.02857 0.0234 0.0
C230 C 0.51173 0.61913 0.1754 0.0
C231 C 0.48931 0.61009 0.19303 0.0
C232 C 0.52121 0.59923 0.16749 0.0
C233 C 0.50852 0.56989 0.17708 0.0
C234 C 0.47693 0.58086 0.20286 0.0
C235 C 0.48661 0.56099 0.19505 0.0
C236 C 0.51975 0.54944 0.16951 0.0
C237 C 0.46904 0.55619 0.10678 0.0
C238 C 0.48586 0.56754 0.08574 0.0
C239 C 0.48129 0.54891 0.12624 0.0
C240 C 0.51094 0.55354 0.12532 0.0
C241 C 0.51545 0.57206 0.08479 0.0
C242 C 0.5278 0.56502 0.10433 0.0
C243 C 0.52376 0.54457 0.14542 0.0
C244 C 0.58222 0.46601 0.14992 0.0
C245 C 0.60535 0.48215 0.13324 0.0
C246 C 0.56378 0.47749 0.15765 0.0
C247 C 0.56887 0.50573 0.14934 0.0
C248 C 0.60985 0.50993 0.12452 0.0
C249 C 0.59177 0.52156 0.13246 0.0
C250 C 0.55038 0.51911 0.15734 0.0
C251 C 0.59251 0.505 0.22351 0.0
C252 C 0.57097 0.4871 0.24077 0.0
C253 C 0.58418 0.51669 0.20424 0.0
C254 C 0.55399 0.51008 0.20164 0.0
C255 C 0.54106 0.48133 0.23852 0.0
C256 C 0.53267 0.49272 0.21916 0.0
C257 C 0.54438 0.52204 0.18145 0.0
H258 H 0.52244 0.64184 0.16804 0.0
H259 H 0.53894 0.60702 0.15421 0.0
H260 H 0.45969 0.57333 0.21654 0.0
H261 H 0.47686 0.53861 0.20293 0.0
H262 H 0.44638 0.55293 0.10823 0.0
H263 H 0.4673 0.53918 0.14185 0.0
H264 H 0.52892 0.58061 0.06878 0.0
H265 H 0.55057 0.56852 0.103 0.0
H266 H 0.57827 0.44443 0.15677 0.0
H267 H 0.54565 0.46435 0.17011 0.0
H268 H 0.62776 0.52293 0.11185 0.0
H269 H 0.59602 0.54328 0.12565 0.0
H270 H 0.61589 0.51034 0.22514 0.0
H271 H 0.60133 0.53095 0.19146 0.0
H272 H 0.52407 0.4677 0.25163 0.0
H273 H 0.50937 0.48768 0.21773 0.0
N274 N 0.52953 0.53736 0.18654 0.0
N275 N 0.53949 0.53018 0.14035 0.0
Li276 Li 0.63796 0.41399 0.43595 0.0
Li277 Li 0.63444 0.37023 0.41568 0.0
Li278 Li 0.68062 0.42004 0.41207 0.0
Li279 Li 0.63422 0.41061 0.39189 0.0
C280 C 0.67705 0.40082 0.46254 0.0
N281 N 0.7045 0.4128 0.50665 0.0
C282 C 0.66839 0.37746 0.47914 0.0
C283 C 0.69997 0.43016 0.46826 0.0
C284 C 0.68244 0.38401 0.50138 0.0
C285 C 0.71351 0.43579 0.49067 0.0
C286 C 0.57915 0.36558 0.43019 0.0
C287 C 0.52626 0.34415 0.44029 0.0
N288 N 0.53035 0.33022 0.45941 0.0
C289 C 0.58279 0.35103 0.44993 0.0
C290 C 0.55065 0.36212 0.4253 0.0
C291 C 0.55787 0.33326 0.46449 0.0
C292 C 0.61898 0.44952 0.46159 0.0
N293 N 0.62495 0.42636 0.46355 0.0
C294 C 0.60824 0.41797 0.50394 0.0
C295 C 0.61994 0.41074 0.48424 0.0
C296 C 0.60146 0.44144 0.50235 0.0
C297 C 0.60738 0.45766 0.48097 0.0
H298 H 0.62277 0.46134 0.44485 0.0
H299 H 0.62425 0.3921 0.4854 0.0
C300 C 0.64145 0.32174 0.42928 0.0
N301 N 0.62125 0.32825 0.41893 0.0
C302 C 0.63283 0.29194 0.43539 0.0
C303 C 0.5831 0.27582 0.419 0.0
C304 C 0.59267 0.30603 0.4133 0.0
C305 C 0.60319 0.26855 0.43051 0.0
H306 H 0.664 0.33994 0.4336 0.0
H307 H 0.57701 0.31187 0.40515 0.0
C308 C 0.68183 0.47602 0.41315 0.0
N309 N 0.72312 0.53751 0.41532 0.0
C310 C 0.69164 0.49327 0.39233 0.0
C311 C 0.69248 0.49022 0.4351 0.0
C312 C 0.71269 0.52426 0.39378 0.0
C313 C 0.71349 0.52127 0.43582 0.0
C314 C 0.64697 0.37053 0.36781 0.0
C315 C 0.66663 0.36649 0.35294 0.0
C316 C 0.61573 0.35439 0.36344 0.0
C317 C 0.65469 0.34628 0.33391 0.0
C318 C 0.60468 0.33439 0.34423 0.0
N319 N 0.62422 0.33078 0.32999 0.0
C320 C 0.73905 0.42786 0.42002 0.0
C321 C 0.73621 0.45804 0.38914 0.0
C322 C 0.76934 0.43774 0.4145 0.0
N323 N 0.72323 0.43821 0.40743 0.0
C324 C 0.76644 0.46854 0.38303 0.0
C325 C 0.7833 0.45815 0.39564 0.0
H326 H 0.72782 0.4109 0.43366 0.0
H327 H 0.72274 0.46467 0.37861 0.0
C328 C 0.59224 0.41737 0.36244 0.0
N329 N 0.62055 0.42106 0.36389 0.0
C330 C 0.58328 0.42655 0.34204 0.0
C331 C 0.63277 0.44308 0.32509 0.0
C332 C 0.64066 0.43336 0.34571 0.0
C333 C 0.60372 0.43973 0.32303 0.0
H334 H 0.57676 0.40762 0.37722 0.0
H335 H 0.6631 0.43617 0.34746 0.0
O336 O 0.6634 0.39477 0.4407 0.0
O337 O 0.60328 0.38331 0.41576 0.0
O338 O 0.66096 0.44569 0.41205 0.0
O339 O 0.65843 0.39031 0.38646 0.0
H340 H 0.65074 0.35458 0.47501 0.0
H341 H 0.70758 0.44827 0.45541 0.0
H342 H 0.67579 0.3662 0.51446 0.0
H343 H 0.73127 0.45841 0.49532 0.0
H344 H 0.50409 0.3413 0.43672 0.0
H345 H 0.60465 0.35347 0.45405 0.0
H346 H 0.5474 0.37322 0.41011 0.0
H347 H 0.56042 0.32192 0.47984 0.0
H348 H 0.60437 0.40521 0.52024 0.0
H349 H 0.60237 0.47589 0.4791 0.0
H350 H 0.64882 0.28746 0.44469 0.0
H351 H 0.56008 0.25839 0.41488 0.0
H352 H 0.68323 0.48281 0.37521 0.0
H353 H 0.68443 0.47751 0.45146 0.0
H354 H 0.72067 0.53781 0.37778 0.0
H355 H 0.72202 0.5325 0.4527 0.0
H356 H 0.69088 0.37888 0.35609 0.0
H357 H 0.60016 0.35726 0.37469 0.0
H358 H 0.66964 0.34292 0.32226 0.0
H359 H 0.58057 0.32174 0.34065 0.0
H360 H 0.78126 0.42845 0.42417 0.0
H361 H 0.77631 0.48403 0.3682 0.0
H362 H 0.56064 0.42347 0.34116 0.0
H363 H 0.64952 0.4538 0.31119 0.0
Li364 Li 0.24509 0.64208 0.60605 0.0
Li365 Li 0.28371 0.63203 0.5867 0.0
Li366 Li 0.28545 0.67993 0.58067 0.0
Li367 Li 0.24704 0.63622 0.56144 0.0
C368 C 0.31406 0.68627 0.621 0.0
N369 N 0.36475 0.73637 0.63923 0.0
C370 C 0.34308 0.69249 0.61436 0.0
C371 C 0.3108 0.70551 0.63691 0.0
C372 C 0.36843 0.71795 0.62377 0.0
C373 C 0.33672 0.73072 0.64594 0.0
C374 C 0.23276 0.5774 0.59277 0.0
C375 C 0.22967 0.53009 0.58193 0.0
N376 N 0.22213 0.52018 0.60468 0.0
C377 C 0.22474 0.56663 0.61602 0.0
C378 C 0.23502 0.55889 0.57554 0.0
C379 C 0.21954 0.53769 0.6217 0.0
C380 C 0.18895 0.61488 0.62976 0.0
N381 N 0.21946 0.63163 0.6331 0.0
C382 C 0.21305 0.62782 0.67525 0.0
C383 C 0.23176 0.63831 0.65525 0.0
C384 C 0.18154 0.60978 0.67232 0.0
C385 C 0.16943 0.60358 0.64926 0.0
H386 H 0.17989 0.60957 0.61191 0.0
H387 H 0.25612 0.65093 0.65739 0.0
C388 C 0.33179 0.61965 0.57908 0.0
N389 N 0.30825 0.6144 0.59352 0.0
C390 C 0.35216 0.61012 0.58579 0.0
C391 C 0.32356 0.58979 0.622 0.0
C392 C 0.30397 0.59998 0.61471 0.0
C393 C 0.3484 0.59535 0.60768 0.0
H394 H 0.33549 0.6323 0.5628 0.0
H395 H 0.28589 0.59723 0.62633 0.0
C396 C 0.2404 0.6928 0.58215 0.0
N397 N 0.23862 0.74598 0.58669 0.0
C398 C 0.24777 0.71259 0.56285 0.0
C399 C 0.23197 0.70002 0.60373 0.0
C400 C 0.24681 0.73939 0.56552 0.0
C401 C 0.23122 0.72701 0.60567 0.0
C402 C 0.29246 0.64803 0.53359 0.0
C403 C 0.29626 0.66878 0.51574 0.0
C404 C 0.28896 0.61988 0.52741 0.0
C405 C 0.29616 0.66085 0.49199 0.0
C406 C 0.28899 0.61279 0.50346 0.0
N407 N 0.29254 0.63324 0.48639 0.0
C408 C 0.33628 0.72904 0.56009 0.0
C409 C 0.3134 0.7449 0.58899 0.0
C410 C 0.35731 0.75907 0.55453 0.0
N411 N 0.31427 0.72246 0.57651 0.0
C412 C 0.33414 0.77535 0.58409 0.0
C413 C 0.35602 0.78271 0.56623 0.0
H414 H 0.33741 0.71093 0.55108 0.0
H415 H 0.29647 0.73926 0.60261 0.0
C416 C 0.20193 0.59224 0.52985 0.0
N417 N 0.22189 0.62219 0.53362 0.0
C418 C 0.18308 0.58303 0.50981 0.0
C419 C 0.20583 0.63555 0.49791 0.0
C420 C 0.22404 0.6437 0.51815 0.0
C421 C 0.18469 0.6049 0.49369 0.0
H422 H 0.20025 0.57555 0.54257 0.0
H423 H 0.24001 0.6673 0.52148 0.0
O424 O 0.289 0.66187 0.61153 0.0
O425 O 0.23807 0.60577 0.58688 0.0
O426 O 0.24102 0.66633 0.57992 0.0
O427 O 0.29191 0.65514 0.55697 0.0
H428 H 0.346 0.67802 0.60188 0.0
H429 H 0.2885 0.70135 0.64188 0.0
H430 H 0.39103 0.72311 0.61873 0.0
H431 H 0.33454 0.7459 0.65816 0.0
H432 H 0.23146 0.51559 0.56877 0.0
H433 H 0.22289 0.58056 0.62963 0.0
H434 H 0.24075 0.5666 0.55741 0.0
H435 H 0.21352 0.52917 0.63965 0.0
H436 H 0.22313 0.63283 0.6928 0.0
H437 H 0.14519 0.5899 0.64639 0.0
H438 H 0.3712 0.61511 0.57435 0.0
H439 H 0.3195 0.57802 0.63881 0.0
H440 H 0.25482 0.70772 0.54614 0.0
H441 H 0.22618 0.68506 0.61887 0.0
H442 H 0.25273 0.75502 0.55079 0.0
H443 H 0.22482 0.7329 0.62228 0.0
H444 H 0.2987 0.69059 0.52014 0.0
H445 H 0.28624 0.60365 0.54094 0.0
H446 H 0.29884 0.6766 0.47801 0.0
H447 H 0.2862 0.59102 0.49844 0.0
H448 H 0.37397 0.76373 0.54079 0.0
H449 H 0.33299 0.79291 0.59408 0.0
H450 H 0.16698 0.55915 0.50722 0.0
H451 H 0.20831 0.65308 0.48568 0.0
Li452 Li 0.67771 0.28377 0.75391 0.0
Li453 Li 0.63123 0.24552 0.77322 0.0
Li454 Li 0.63665 0.24545 0.72862 0.0
Li455 Li 0.62835 0.28377 0.74805 0.0
C456 C 0.68325 0.23239 0.75149 0.0
N457 N 0.73011 0.22011 0.74661 0.0
C458 C 0.69118 0.21992 0.77042 0.0
C459 C 0.69884 0.23813 0.72998 0.0
C460 C 0.71503 0.21402 0.76764 0.0
C461 C 0.72253 0.23189 0.72788 0.0
C462 C 0.65095 0.29706 0.80069 0.0
C463 C 0.62553 0.30693 0.83265 0.0
N464 N 0.6479 0.31047 0.84781 0.0
C465 C 0.67395 0.30133 0.8165 0.0
C466 C 0.62676 0.30032 0.80875 0.0
C467 C 0.67189 0.30787 0.84028 0.0
C468 C 0.73447 0.3371 0.74793 0.0
N469 N 0.72006 0.30967 0.75899 0.0
C470 C 0.76475 0.32187 0.78125 0.0
C471 C 0.73451 0.30179 0.77539 0.0
C472 C 0.78022 0.35041 0.77017 0.0
C473 C 0.76477 0.3579 0.75322 0.0
H474 H 0.7222 0.34313 0.73544 0.0
H475 H 0.72222 0.28041 0.78466 0.0
C476 C 0.58806 0.19934 0.80442 0.0
N477 N 0.61763 0.22099 0.80128 0.0
C478 C 0.57916 0.18099 0.82471 0.0
C479 C 0.63133 0.20714 0.83792 0.0
C480 C 0.63918 0.22501 0.81746 0.0
C481 C 0.60097 0.18482 0.84177 0.0
H482 H 0.57145 0.19584 0.79099 0.0
H483 H 0.66264 0.24181 0.81428 0.0
C484 C 0.66949 0.29834 0.70159 0.0
N485 N 0.68846 0.31499 0.65523 0.0
C486 C 0.65215 0.30477 0.68587 0.0
C487 C 0.69684 0.30107 0.69384 0.0
C488 C 0.66201 0.31293 0.66248 0.0
C489 C 0.70595 0.30933 0.67031 0.0
C490 C 0.57147 0.23218 0.74908 0.0
C491 C 0.55189 0.21823 0.72991 0.0
C492 C 0.56066 0.23927 0.76947 0.0
C493 C 0.52193 0.21212 0.73131 0.0
C494 C 0.53055 0.23278 0.7702 0.0
N495 N 0.51198 0.2195 0.75125 0.0
C496 C 0.6311 0.19804 0.69754 0.0
C497 C 0.60983 0.22742 0.68386 0.0
C498 C 0.62108 0.18005 0.6771 0.0
N499 N 0.62547 0.22131 0.70045 0.0
C500 C 0.59931 0.20999 0.66326 0.0
C501 C 0.60466 0.18577 0.65979 0.0
H502 H 0.64281 0.19302 0.71126 0.0
H503 H 0.60485 0.24543 0.68691 0.0
C504 C 0.62472 0.33725 0.75286 0.0
N505 N 0.61187 0.30952 0.74231 0.0
C506 C 0.61609 0.3583 0.74606 0.0
C507 C 0.5808 0.3216 0.71808 0.0
C508 C 0.59006 0.30131 0.72541 0.0
C509 C 0.59442 0.35077 0.72802 0.0
H510 H 0.64253 0.34344 0.76586 0.0
H511 H 0.5809 0.27955 0.71675 0.0
O512 O 0.6602 0.23869 0.75399 0.0
O513 O 0.65257 0.29061 0.77733 0.0
O514 O 0.66022 0.29042 0.72462 0.0
O515 O 0.601 0.23871 0.7479 0.0
H516 H 0.67915 0.21495 0.78711 0.0
H517 H 0.69244 0.24693 0.71497 0.0
H518 H 0.72153 0.20457 0.7822 0.0
H519 H 0.73481 0.2363 0.71132 0.0
H520 H 0.60686 0.30937 0.83913 0.0
H521 H 0.69307 0.29936 0.81053 0.0
H522 H 0.60926 0.2981 0.79664 0.0
H523 H 0.68939 0.31092 0.85274 0.0
H524 H 0.77554 0.31558 0.79494 0.0
H525 H 0.77588 0.37976 0.7444 0.0
H526 H 0.55562 0.16351 0.82674 0.0
H527 H 0.64884 0.21069 0.85059 0.0
H528 H 0.63118 0.30325 0.6916 0.0
H529 H 0.7111 0.29721 0.70589 0.0
H530 H 0.64864 0.31769 0.65009 0.0
H531 H 0.72701 0.3114 0.66408 0.0
H532 H 0.55971 0.21224 0.71409 0.0
H533 H 0.57527 0.24937 0.78464 0.0
H534 H 0.50658 0.20149 0.71655 0.0
H535 H 0.52193 0.23822 0.78586 0.0
H536 H 0.62539 0.16136 0.67513 0.0
H537 H 0.58697 0.21529 0.65023 0.0
H538 H 0.62717 0.38064 0.75406 0.0
H539 H 0.56371 0.31482 0.70433 0.0
Li540 Li 0.40864 0.62968 0.93415 0.0
Li541 Li 0.41661 0.67676 0.91596 0.0
Li542 Li 0.36977 0.62793 0.90771 0.0
Li543 Li 0.41757 0.63762 0.89099 0.0
C544 C 0.37337 0.64773 0.96041 0.0
N545 N 0.35149 0.64368 0.00597 0.0
C546 C 0.38953 0.67107 0.97671 0.0
C547 C 0.34573 0.62266 0.96713 0.0
C548 C 0.37821 0.66851 0.9997 0.0
C549 C 0.33514 0.62094 0.99028 0.0
C550 C 0.47331 0.68191 0.90829 0.0
C551 C 0.5037 0.7222 0.88079 0.0
N552 N 0.52912 0.72314 0.88944 0.0
C553 C 0.49972 0.68329 0.91693 0.0
C554 C 0.47527 0.70153 0.89009 0.0
C555 C 0.52774 0.70429 0.90716 0.0
C556 C 0.41457 0.58692 0.96365 0.0
N557 N 0.41856 0.61537 0.96223 0.0
C558 C 0.44176 0.62763 1.00063 0.0
C559 C 0.43225 0.63577 0.98004 0.0
C560 C 0.43768 0.59832 1.00276 0.0
C561 C 0.42397 0.57785 0.98388 0.0
H562 H 0.40485 0.5715 0.94885 0.0
H563 H 0.43644 0.65866 0.97803 0.0
C564 C 0.41763 0.73262 0.9131 0.0
N565 N 0.43174 0.71834 0.92256 0.0
C566 C 0.42628 0.76223 0.91999 0.0
C567 C 0.46398 0.76184 0.94596 0.0
C568 C 0.45476 0.73235 0.93846 0.0
C569 C 0.44929 0.77689 0.93699 0.0
H570 H 0.39906 0.72066 0.90079 0.0
H571 H 0.46528 0.72024 0.94588 0.0
C572 C 0.36463 0.57105 0.90952 0.0
N573 N 0.31834 0.5114 0.91253 0.0
C574 C 0.3579 0.55159 0.89011 0.0
C575 C 0.34807 0.56006 0.93053 0.0
C576 C 0.33433 0.52154 0.89196 0.0
C577 C 0.3247 0.52987 0.93168 0.0
C578 C 0.38261 0.6551 0.86296 0.0
C579 C 0.37201 0.62688 0.85212 0.0
C580 C 0.37907 0.67748 0.85145 0.0
C581 C 0.35796 0.62147 0.82993 0.0
C582 C 0.36487 0.67119 0.82926 0.0
N583 N 0.3547 0.64355 0.81905 0.0
C584 C 0.31442 0.62701 0.9108 0.0
C585 C 0.31218 0.58829 0.88607 0.0
C586 C 0.28468 0.61891 0.90474 0.0
N587 N 0.32758 0.61181 0.90135 0.0
C588 C 0.28252 0.57961 0.87937 0.0
C589 C 0.26865 0.59532 0.88847 0.0
H590 H 0.32736 0.64601 0.92254 0.0
H591 H 0.32315 0.57689 0.87837 0.0
C592 C 0.43618 0.60318 0.86478 0.0
N593 N 0.4354 0.62946 0.86432 0.0
C594 C 0.44527 0.59369 0.84473 0.0
C595 C 0.45388 0.6392 0.82441 0.0
C596 C 0.4445 0.64777 0.84485 0.0
C597 C 0.45366 0.61148 0.82403 0.0
H598 H 0.42881 0.5891 0.88052 0.0
H599 H 0.44361 0.66856 0.84493 0.0
O600 O 0.38403 0.64997 0.93776 0.0
O601 O 0.44577 0.6614 0.9177 0.0
O602 O 0.3875 0.6006 0.90796 0.0
O603 O 0.39633 0.66091 0.88475 0.0
H604 H 0.41071 0.69087 0.97171 0.0
H605 H 0.3324 0.60485 0.95455 0.0
H606 H 0.39063 0.68629 0.01255 0.0
H607 H 0.31385 0.6016 0.99574 0.0
H608 H 0.50554 0.73749 0.86669 0.0
H609 H 0.49856 0.66826 0.93103 0.0
H610 H 0.4551 0.70086 0.8832 0.0
H611 H 0.54837 0.7056 0.91367 0.0
H612 H 0.45247 0.6442 0.01465 0.0
H613 H 0.42134 0.55539 0.98441 0.0
H614 H 0.41441 0.77315 0.91277 0.0
H615 H 0.48209 0.77262 0.95888 0.0
H616 H 0.37051 0.55966 0.87371 0.0
H617 H 0.35345 0.5746 0.94585 0.0
H618 H 0.32873 0.50629 0.87703 0.0
H619 H 0.31168 0.5211 0.94784 0.0
H620 H 0.37451 0.6093 0.86077 0.0
H621 H 0.3872 0.69948 0.85956 0.0
H622 H 0.34962 0.5997 0.82137 0.0
H623 H 0.36196 0.6883 0.82016 0.0
H624 H 0.27467 0.63157 0.91206 0.0
H625 H 0.27068 0.56105 0.86698 0.0
H626 H 0.44477 0.57216 0.84517 0.0
H627 H 0.46086 0.65391 0.809 0.0
Li628 Li 0.76046 0.41378 0.08515 0.0
Li629 Li 0.8007 0.40576 0.10425 0.0
Li630 Li 0.80174 0.4148 0.06204 0.0
Li631 Li 0.7647 0.36689 0.07747 0.0
C632 C 0.8236 0.46984 0.07875 0.0
N633 N 0.86313 0.52457 0.05754 0.0
C634 C 0.85491 0.48179 0.08077 0.0
C635 C 0.81234 0.48574 0.06608 0.0
C636 C 0.87454 0.50949 0.06986 0.0
C637 C 0.83272 0.51339 0.05547 0.0
C638 C 0.7504 0.37477 0.13122 0.0
C639 C 0.75168 0.34793 0.16614 0.0
N640 N 0.7412 0.36312 0.17935 0.0
C641 C 0.73935 0.38989 0.14509 0.0
C642 C 0.75635 0.35341 0.14177 0.0
C643 C 0.73495 0.38376 0.16941 0.0
C644 C 0.70375 0.41059 0.08326 0.0
N645 N 0.73284 0.42763 0.09098 0.0
C646 C 0.7208 0.46158 0.11102 0.0
C647 C 0.74175 0.45279 0.10451 0.0
C648 C 0.6906 0.44442 0.1033 0.0
C649 C 0.68214 0.41877 0.08911 0.0
H650 H 0.69728 0.39036 0.0729 0.0
H651 H 0.76494 0.46553 0.11075 0.0
C652 C 0.84825 0.41042 0.13404 0.0
N653 N 0.82465 0.41574 0.13242 0.0
C654 C 0.86688 0.41966 0.15416 0.0
C655 C 0.83665 0.43978 0.17047 0.0
C656 C 0.81884 0.43045 0.14997 0.0
C657 C 0.8611 0.43448 0.17276 0.0
H658 H 0.85312 0.39973 0.11946 0.0
H659 H 0.80066 0.43542 0.14785 0.0
C660 C 0.75494 0.39934 0.03167 0.0
N661 N 0.74962 0.4127 0.98492 0.0
C662 C 0.7632 0.38653 0.01324 0.0
C663 C 0.74396 0.41895 0.02629 0.0
C664 C 0.76039 0.3936 0.98973 0.0
C665 C 0.74142 0.42539 1.00255 0.0
C666 C 0.81239 0.36003 0.07525 0.0
C667 C 0.81648 0.35194 0.05241 0.0
C668 C 0.811 0.34219 0.09463 0.0
C669 C 0.81878 0.32593 0.04932 0.0
C670 C 0.81338 0.31634 0.09081 0.0
N671 N 0.81716 0.30879 0.06842 0.0
C672 C 0.85408 0.4302 0.03552 0.0
C673 C 0.82559 0.45096 0.01904 0.0
C674 C 0.87426 0.44099 0.01646 0.0
N675 N 0.82972 0.43442 0.03613 0.0
C676 C 0.84512 0.462 0.9995 0.0
C677 C 0.86957 0.45665 0.99793 0.0
H678 H 0.85754 0.41787 0.04966 0.0
H679 H 0.80684 0.45515 0.02024 0.0
C680 C 0.71785 0.30673 0.08725 0.0
N681 N 0.73936 0.32453 0.07113 0.0
C682 C 0.69672 0.27658 0.08181 0.0
C683 C 0.72046 0.28351 0.04341 0.0
C684 C 0.74103 0.31346 0.04957 0.0
C685 C 0.69762 0.26483 0.05947 0.0
H686 H 0.71651 0.31614 0.10408 0.0
H687 H 0.75781 0.32804 0.03684 0.0
O688 O 0.80403 0.44243 0.08877 0.0
O689 O 0.75525 0.38077 0.10743 0.0
O690 O 0.75724 0.39251 0.05482 0.0
O691 O 0.80991 0.38534 0.07863 0.0
H692 H 0.8639 0.46962 0.09046 0.0
H693 H 0.78813 0.47662 0.06422 0.0
H694 H 0.89885 0.51896 0.07114 0.0
H695 H 0.82436 0.52588 0.04549 0.0
H696 H 0.75634 0.33156 0.17455 0.0
H697 H 0.73443 0.40634 0.13723 0.0
H698 H 0.76443 0.34116 0.13125 0.0
H699 H 0.7266 0.39545 0.18038 0.0
H700 H 0.72804 0.48149 0.12202 0.0
H701 H 0.65893 0.40479 0.08314 0.0
H702 H 0.8861 0.41604 0.1548 0.0
H703 H 0.8315 0.45128 0.1843 0.0
H704 H 0.7724 0.37192 0.01701 0.0
H705 H 0.7377 0.4293 0.04027 0.0
H706 H 0.76694 0.38404 0.97532 0.0
H707 H 0.73301 0.44056 0.99815 0.0
H708 H 0.81737 0.3653 0.03716 0.0
H709 H 0.80821 0.34826 0.11244 0.0
H710 H 0.82172 0.31929 0.03173 0.0
H711 H 0.81226 0.30229 0.10565 0.0
H712 H 0.89278 0.43627 0.01585 0.0
H713 H 0.84103 0.47436 0.98569 0.0
H714 H 0.67969 0.26273 0.09481 0.0
H715 H 0.7218 0.27532 0.02596 0.0
Li716 Li 0.42014 0.80278 0.27245 0.0
Li717 Li 0.3724 0.76368 0.25651 0.0
Li718 Li 0.42066 0.76259 0.2482 0.0
Li719 Li 0.41013 0.80003 0.2296 0.0
C720 C 0.39933 0.75316 0.30269 0.0
N721 N 0.39905 0.74305 0.35095 0.0
C722 C 0.38613 0.7645 0.31835 0.0
C723 C 0.41256 0.73682 0.31159 0.0
C724 C 0.38619 0.75913 0.34268 0.0
C725 C 0.41213 0.73189 0.33604 0.0
C726 C 0.36352 0.81046 0.25937 0.0
C727 C 0.31659 0.80589 0.24533 0.0
N728 N 0.31148 0.8135 0.26729 0.0
C729 C 0.35788 0.81841 0.28177 0.0
C730 C 0.34279 0.80433 0.24097 0.0
C731 C 0.33143 0.81977 0.28543 0.0
C732 C 0.437 0.85599 0.29777 0.0
N733 N 0.43901 0.83036 0.29836 0.0
C734 C 0.46276 0.84383 0.33655 0.0
C735 C 0.45243 0.82444 0.31693 0.0
C736 C 0.45971 0.86978 0.33684 0.0
C737 C 0.44702 0.87598 0.31696 0.0
H738 H 0.42669 0.86044 0.28264 0.0
H739 H 0.4544 0.80427 0.31687 0.0
C740 C 0.31412 0.71313 0.24822 0.0
N741 N 0.33025 0.7369 0.26314 0.0
C742 C 0.28406 0.69148 0.25346 0.0
C743 C 0.28769 0.71915 0.28929 0.0
C744 C 0.31757 0.74025 0.28333 0.0
C745 C 0.27065 0.69415 0.27443 0.0
H746 H 0.32477 0.71062 0.23247 0.0
H747 H 0.3307 0.75893 0.29513 0.0
C748 C 0.47654 0.81735 0.25442 0.0
N749 N 0.53431 0.83862 0.2722 0.0
C750 C 0.50067 0.84462 0.24604 0.0
C751 C 0.48174 0.80088 0.27183 0.0
C752 C 0.52974 0.855 0.25525 0.0
C753 C 0.51111 0.81202 0.2806 0.0
C754 C 0.38136 0.75116 0.20246 0.0
C755 C 0.40024 0.74572 0.18775 0.0
C756 C 0.35704 0.75283 0.19257 0.0
C757 C 0.39484 0.74268 0.1633 0.0
C758 C 0.35238 0.74967 0.16804 0.0
N759 N 0.37125 0.74475 0.15403 0.0
C760 C 0.42127 0.70763 0.25013 0.0
C761 C 0.46155 0.74676 0.22803 0.0
C762 C 0.43036 0.68696 0.2434 0.0
N763 N 0.43676 0.73676 0.24222 0.0
C764 C 0.47121 0.7268 0.22066 0.0
C765 C 0.45519 0.69639 0.22805 0.0
H766 H 0.40126 0.70022 0.261 0.0
H767 H 0.47306 0.76993 0.22166 0.0
C768 C 0.40771 0.8417 0.19624 0.0
N769 N 0.41924 0.82325 0.2011 0.0
C770 C 0.41635 0.8593 0.17555 0.0
C771 C 0.44847 0.83857 0.16534 0.0
C772 C 0.43948 0.82166 0.18629 0.0
C773 C 0.43688 0.85771 0.15978 0.0
H774 H 0.39229 0.8432 0.2086 0.0
H775 H 0.44898 0.8075 0.19096 0.0
O776 O 0.39975 0.75835 0.2788 0.0
O777 O 0.3892 0.80879 0.25544 0.0
O778 O 0.44795 0.80705 0.24567 0.0
O779 O 0.38667 0.75484 0.2264 0.0
H780 H 0.37688 0.77817 0.31189 0.0
H781 H 0.42317 0.72813 0.29977 0.0
H782 H 0.37625 0.76799 0.355 0.0
H783 H 0.42226 0.71926 0.34317 0.0
H784 H 0.30032 0.80107 0.23125 0.0
H785 H 0.37345 0.82301 0.29632 0.0
H786 H 0.34687 0.79842 0.22349 0.0
H787 H 0.3267 0.82569 0.30271 0.0
H788 H 0.47267 0.83843 0.35147 0.0
H789 H 0.44387 0.89551 0.31658 0.0
H790 H 0.27151 0.67284 0.24129 0.0
H791 H 0.27826 0.72197 0.30568 0.0
H792 H 0.49696 0.85762 0.23257 0.0
H793 H 0.4633 0.7798 0.27858 0.0
H794 H 0.54865 0.87608 0.24894 0.0
H795 H 0.51546 0.79953 0.29411 0.0
H796 H 0.41907 0.7442 0.19506 0.0
H797 H 0.34184 0.75642 0.20371 0.0
H798 H 0.40945 0.73873 0.1517 0.0
H799 H 0.33373 0.75108 0.16015 0.0
H800 H 0.41741 0.6636 0.2493 0.0
H801 H 0.4906 0.73484 0.20893 0.0
H802 H 0.40719 0.87407 0.17193 0.0
H803 H 0.46494 0.83732 0.15393 0.0
C804 C 0.18918 0.6593 0.29568 0.0
C805 C 0.1787 0.62794 0.29531 0.0
C806 C 0.21881 0.68044 0.28874 0.0
C807 C 0.23914 0.67107 0.28107 0.0
H808 H 0.17444 0.66764 0.30161 0.0
H809 H 0.22581 0.70434 0.28927 0.0
S810 S 0.22294 0.59156 0.2768 0.0
N811 N 0.19084 0.58849 0.28635 0.0
N812 N 0.24687 0.6283 0.27385 0.0
C813 C 0.22898 0.63977 0.28059 0.0
C814 C 0.19874 0.61821 0.28766 0.0
C815 C 0.55515 0.19203 0.4603 0.0
C816 C 0.57253 0.17778 0.45737 0.0
C817 C 0.56507 0.22118 0.45128 0.0
C818 C 0.59269 0.23714 0.43888 0.0
H819 H 0.53385 0.18068 0.46989 0.0
H820 H 0.55124 0.23151 0.45442 0.0
S821 S 0.64534 0.20875 0.42478 0.0
N822 N 0.61788 0.18105 0.44027 0.0
N823 N 0.63647 0.23579 0.42305 0.0
C824 C 0.61006 0.22291 0.4355 0.0
C825 C 0.6 0.19327 0.44481 0.0
C826 C 0.40024 0.56159 0.60689 0.0
C827 C 0.4123 0.5671 0.63005 0.0
C828 C 0.37981 0.57098 0.5998 0.0
C829 C 0.37053 0.58615 0.61559 0.0
H830 H 0.40671 0.54996 0.5941 0.0
H831 H 0.37088 0.56591 0.58188 0.0
S832 S 0.39592 0.60667 0.67808 0.0
N833 N 0.41346 0.5887 0.66878 0.0
N834 N 0.37582 0.60722 0.65524 0.0
C835 C 0.3827 0.59215 0.63873 0.0
C836 C 0.40345 0.58249 0.64597 0.0
C837 C 0.84841 0.42388 0.79127 0.0
C838 C 0.87095 0.41583 0.79403 0.0
C839 C 0.8193 0.40276 0.78311 0.0
C840 C 0.81173 0.37287 0.77732 0.0
H841 H 0.8531 0.44645 0.79601 0.0
H842 H 0.80237 0.40967 0.78189 0.0
S843 S 0.86375 0.34159 0.77883 0.0
N844 N 0.88453 0.37672 0.78861 0.0
N845 N 0.82989 0.33708 0.77315 0.0
C846 C 0.83439 0.36486 0.77929 0.0
C847 C 0.86397 0.38632 0.78765 0.0
C848 C 0.47312 0.86054 0.93799 0.0
C849 C 0.47419 0.86675 0.96243 0.0
C850 C 0.46476 0.83134 0.92985 0.0
C851 C 0.45733 0.8074 0.94588 0.0
H852 H 0.47946 0.87852 0.92508 0.0
H853 H 0.46471 0.82759 0.91091 0.0
S854 S 0.45326 0.81099 0.01146 0.0
N855 N 0.46468 0.84597 1.00245 0.0
N856 N 0.44929 0.79122 0.98715 0.0
C857 C 0.45749 0.81311 0.9703 0.0
C858 C 0.46584 0.84275 0.97858 0.0
C859 C 0.6425 0.46491 0.14203 0.0
C860 C 0.62545 0.47065 0.1253 0.0
C861 C 0.66355 0.45642 0.13476 0.0
C862 C 0.66788 0.45292 0.11055 0.0
H863 H 0.6401 0.46778 0.16082 0.0
H864 H 0.67653 0.45253 0.14816 0.0
S865 S 0.628 0.46422 0.05988 0.0
N866 N 0.61369 0.47156 0.08358 0.0
N867 N 0.65308 0.45532 0.06992 0.0
C868 C 0.65049 0.45795 0.0937 0.0
C869 C 0.62934 0.46693 0.10108 0.0
C870 C 0.42803 0.85438 0.54761 0.0
C871 C 0.41759 0.87457 0.54215 0.0
C872 C 0.40812 0.82498 0.55592 0.0
C873 C 0.37704 0.8147 0.55922 0.0
H874 H 0.45164 0.86107 0.54489 0.0
H875 H 0.4171 0.81007 0.55961 0.0
S876 S 0.33856 0.85928 0.54862 0.0
N877 N 0.37444 0.88281 0.54181 0.0
N878 N 0.33687 0.82729 0.55675 0.0
C879 C 0.36643 0.83492 0.55435 0.0
C880 C 0.38671 0.86486 0.54594 0.0
C881 C 0.57079 0.41082 0.72599 0.0
C882 C 0.57055 0.4162 0.70148 0.0
C883 C 0.57889 0.3899 0.73452 0.0
C884 C 0.58696 0.37361 0.71883 0.0
H885 H 0.56392 0.42228 0.73861 0.0
H886 H 0.57817 0.38593 0.75347 0.0
S887 S 0.59353 0.38224 0.65331 0.0
N888 N 0.58154 0.40549 0.66184 0.0
N889 N 0.59676 0.36624 0.67783 0.0
C890 C 0.5878 0.37957 0.69436 0.0
C891 C 0.5796 0.40084 0.6857 0.0
C892 C 0.18534 0.57242 0.89063 0.0
C893 C 0.17763 0.57098 0.86647 0.0
C894 C 0.21496 0.58078 0.89763 0.0
C895 C 0.23775 0.5875 0.8807 0.0
H896 H 0.16831 0.56703 0.90422 0.0
H897 H 0.21992 0.58142 0.91641 0.0
S898 S 0.22939 0.58757 0.81527 0.0
N899 N 0.19523 0.57733 0.82564 0.0
N900 N 0.25094 0.59305 0.8388 0.0
C901 C 0.23042 0.58643 0.85651 0.0
C902 C 0.20036 0.57821 0.84939 0.0
C903 C 0.6628 0.18472 0.03526 0.0
C904 C 0.63141 0.17345 0.0376 0.0
C905 C 0.684 0.21418 0.04251 0.0
C906 C 0.67464 0.23345 0.05256 0.0
H907 H 0.67106 0.17072 0.02753 0.0
H908 H 0.70794 0.2219 0.04035 0.0
S909 S 0.59511 0.21491 0.06259 0.0
N910 N 0.592 0.18374 0.05087 0.0
N911 N 0.63188 0.23939 0.06416 0.0
C912 C 0.64333 0.22249 0.05504 0.0
C913 C 0.62172 0.19248 0.04758 0.0
C914 C 0.47768 0.63565 0.22613 0.0
C915 C 0.47958 0.63151 0.2016 0.0
C916 C 0.46961 0.65657 0.23461 0.0
C917 C 0.46342 0.67423 0.21885 0.0
H918 H 0.483 0.62303 0.23888 0.0
H919 H 0.46869 0.65931 0.25361 0.0
S920 S 0.46214 0.66993 0.15312 0.0
N921 N 0.47226 0.64522 0.16173 0.0
N922 N 0.45769 0.6849 0.17772 0.0
C923 C 0.46461 0.66991 0.19434 0.0
C924 C 0.47256 0.64847 0.1857 0.0
C925 C 0.8493 0.47193 0.35601 0.0
C926 C 0.87363 0.48176 0.37203 0.0
C927 C 0.82027 0.46453 0.36381 0.0
C928 C 0.81447 0.46675 0.38794 0.0
H929 H 0.85266 0.46967 0.33729 0.0
H930 H 0.80211 0.4566 0.35087 0.0
S931 S 0.87091 0.49333 0.4368 0.0
N932 N 0.8904 0.4946 0.41296 0.0
N933 N 0.83575 0.4807 0.42766 0.0
C934 C 0.83866 0.47679 0.40413 0.0
C935 C 0.86825 0.4843 0.39618 0.0
C936 C 0.14237 0.56401 0.43752 0.0
C937 C 0.12646 0.57911 0.43142 0.0
C938 C 0.16097 0.57231 0.45775 0.0
C939 C 0.16432 0.59597 0.47265 0.0
H940 H 0.14068 0.54587 0.4264 0.0
H941 H 0.17316 0.5604 0.46156 0.0
S942 S 0.12523 0.6406 0.46578 0.0
N943 N 0.11381 0.61752 0.4427 0.0
N944 N 0.14859 0.63301 0.48074 0.0
C945 C 0.14807 0.61083 0.46699 0.0
C946 C 0.12921 0.60244 0.44638 0.0
C947 C 0.60088 0.14174 0.60417 0.0
C948 C 0.57026 0.12856 0.59724 0.0
C949 C 0.61183 0.16016 0.62442 0.0
C950 C 0.59261 0.16619 0.63844 0.0
H951 H 0.61656 0.13793 0.59376 0.0
H952 H 0.6356 0.17001 0.62901 0.0
S953 S 0.51011 0.1353 0.62912 0.0
N954 N 0.52055 0.12155 0.60681 0.0
N955 N 0.5412 0.15634 0.64472 0.0
C956 C 0.56191 0.15296 0.63186 0.0
C957 C 0.55073 0.13414 0.6113 0.0
C958 C 0.48796 0.57721 0.78316 0.0
C959 C 0.47478 0.57643 0.761 0.0
C960 C 0.48134 0.58896 0.80333 0.0
C961 C 0.46142 0.60056 0.80211 0.0
H962 H 0.5031 0.56813 0.78506 0.0
H963 H 0.49188 0.5889 0.82004 0.0
S964 S 0.42149 0.60445 0.74815 0.0
N965 N 0.4416 0.58914 0.73884 0.0
N966 N 0.42856 0.61057 0.77685 0.0
C967 C 0.44835 0.60027 0.77999 0.0
C968 C 0.45511 0.5883 0.75944 0.0
C969 C 0.89418 0.46376 0.93348 0.0
C970 C 0.92605 0.47895 0.9351 0.0
C971 C 0.8761 0.45736 0.95384 0.0
C972 C 0.88923 0.46589 0.97655 0.0
H973 H 0.8831 0.45608 0.91642 0.0
H974 H 0.85164 0.44486 0.95186 0.0
S975 S 0.97154 0.50928 0.99014 0.0
N976 N 0.96997 0.50463 0.96105 0.0
N977 N 0.93595 0.49237 0.9993 0.0
C978 C 0.92104 0.48194 0.97834 0.0
C979 C 0.93945 0.48852 0.95763 0.0
C980 C 0.47183 0.92778 0.1205 0.0
C981 C 0.47137 0.91593 0.09785 0.0
C982 C 0.45991 0.90869 0.14032 0.0
C983 C 0.44752 0.87712 0.13826 0.0
H984 H 0.48139 0.95199 0.12289 0.0
H985 H 0.46102 0.91877 0.15749 0.0
S986 S 0.44069 0.83481 0.08286 0.0
N987 N 0.45724 0.87069 0.07443 0.0
N988 N 0.43495 0.83479 0.11173 0.0
C989 C 0.44675 0.86497 0.11569 0.0
C990 C 0.4586 0.88438 0.09547 0.0
C991 C 0.57299 0.47987 0.28457 0.0
C992 C 0.57962 0.4748 0.26136 0.0
C993 C 0.58072 0.46833 0.30433 0.0
C994 C 0.5952 0.45108 0.30165 0.0
H995 H 0.56207 0.49321 0.28749 0.0
H996 H 0.57571 0.47336 0.32188 0.0
S997 S 0.61513 0.42927 0.24442 0.0
N998 N 0.60015 0.45027 0.23666 0.0
N999 N 0.61424 0.42807 0.27374 0.0
C1000 C 0.60148 0.44543 0.27846 0.0
C1001 C 0.5938 0.4574 0.25835 0.0
C1002 C 0.46322 0.89441 0.401 0.0
C1003 C 0.4795 0.92627 0.39942 0.0
C1004 C 0.45758 0.8763 0.38076 0.0
C1005 C 0.46809 0.8894 0.35823 0.0
H1006 H 0.45411 0.88342 0.41791 0.0
H1007 H 0.44413 0.85187 0.38267 0.0
S1008 S 0.51499 0.97164 0.34513 0.0
N1009 N 0.5082 0.9701 0.37391 0.0
N1010 N 0.49772 0.93608 0.33591 0.0
C1011 C 0.48532 0.9212 0.35658 0.0
C1012 C 0.49099 0.93962 0.37715 0.0
C1013 C 0.5898 0.48558 0.55154 0.0
C1014 C 0.56386 0.46308 0.56333 0.0
C1015 C 0.60154 0.47853 0.53156 0.0
C1016 C 0.58799 0.44866 0.52289 0.0
H1017 H 0.60098 0.50884 0.55773 0.0
H1018 H 0.62165 0.49647 0.52308 0.0
S1019 S 0.51958 0.38159 0.54727 0.0
N1020 N 0.52495 0.40981 0.56485 0.0
N1021 N 0.54693 0.39657 0.52725 0.0
C1022 C 0.56198 0.42601 0.53444 0.0
C1023 C 0.54991 0.43322 0.55465 0.0
C1024 C 0.1429 0.60403 0.73133 0.0
C1025 C 0.12338 0.57257 0.73397 0.0
C1026 C 0.16187 0.61591 0.71143 0.0
C1027 C 0.1615 0.59678 0.69328 0.0
H1028 H 0.14365 0.61952 0.74485 0.0
H1029 H 0.17665 0.64026 0.71007 0.0
S1030 S 0.11452 0.51286 0.69172 0.0
N1031 N 0.10492 0.52255 0.71685 0.0
N1032 N 0.14036 0.54491 0.67934 0.0
C1033 C 0.14208 0.56532 0.6957 0.0
C1034 C 0.12309 0.5532 0.71609 0.0
C1035 C 0.60109 0.13116 0.88879 0.0
C1036 C 0.57647 0.12571 0.90344 0.0
C1037 C 0.60893 0.1504 0.869 0.0
C1038 C 0.59242 0.16492 0.86306 0.0
H1039 H 0.61407 0.12001 0.89239 0.0
H1040 H 0.62775 0.15354 0.85801 0.0
S1041 S 0.52781 0.16048 0.89687 0.0
N1042 N 0.53687 0.13797 0.91149 0.0
N1043 N 0.55152 0.17399 0.87421 0.0
C1044 C 0.56812 0.16013 0.87778 0.0
C1045 C 0.56018 0.14059 0.89798 0.0
C1046 C 0.49004 0.60251 0.05272 0.0
C1047 C 0.47279 0.5748 0.06477 0.0
C1048 C 0.47844 0.60991 0.03282 0.0
C1049 C 0.44914 0.58987 0.0241 0.0
H1050 H 0.51266 0.61875 0.0588 0.0
H1051 H 0.49274 0.63139 0.02402 0.0
S1052 S 0.39472 0.51439 0.0492 0.0
N1053 N 0.42503 0.52699 0.06631 0.0
N1054 N 0.40291 0.54129 0.02933 0.0
C1055 C 0.43159 0.56211 0.03601 0.0
C1056 C 0.44344 0.55453 0.05626 0.0
C1057 C 0.911 0.48705 0.2219 0.0
C1058 C 0.92082 0.46939 0.23416 0.0
C1059 C 0.89163 0.47551 0.20223 0.0
C1060 C 0.88129 0.44582 0.19395 0.0
H1061 H 0.91819 0.50998 0.22765 0.0
H1062 H 0.88502 0.49015 0.19324 0.0
S1063 S 0.90023 0.39018 0.21976 0.0
N1064 N 0.91905 0.42078 0.23636 0.0
N1065 N 0.88185 0.39876 0.19985 0.0
C1066 C 0.8908 0.42783 0.20609 0.0
C1067 C 0.91065 0.43965 0.2261 0.0
loop_
_geom_bond_atom_site_label_1
_geom_bond_atom_site_label_2
_geom_bond_distance
_geom_bond_site_symmetry_2
_ccdc_geom_bond_type
C0 C1 1.384 . S
C0 C2 1.384 . S
C0 H28 0.931 . S
C1 C0 1.384 . S
C1 C4 1.382 . S
C2 C0 1.384 . S
C2 C3 1.381 . S
C2 H29 0.930 . S
C3 C2 1.381 . S
C3 C5 1.381 . S
C3 C6 1.487 . S
C4 C1 1.382 . S
C4 C5 1.387 . S
C4 H30 0.930 . S
C5 C3 1.381 . S
C5 C4 1.387 . S
C5 H31 0.931 . S
C6 C3 1.487 . S
C6 C13 1.399 1_655 S
C6 N44 1.343 1_655 S
C7 C8 1.384 . S
C7 C9 1.384 . S
C7 H32 0.931 . S
C8 C7 1.384 . S
C8 C11 1.382 . S
C9 C7 1.384 . S
C9 C10 1.381 . S
C9 H33 0.930 . S
C10 C9 1.381 . S
C10 C12 1.381 . S
C10 C13 1.487 1_655 S
C11 C8 1.382 . S
C11 C12 1.387 . S
C11 H34 0.930 . S
C12 C10 1.381 . S
C12 C11 1.387 . S
C12 H35 0.931 1_655 S
C13 C6 1.399 1_455 S
C13 C10 1.487 1_455 S
C13 N45 1.343 . S
C14 C15 1.384 . S
C14 C16 1.384 . S
C14 H36 0.931 . S
C15 C14 1.384 . S
C15 C18 1.382 . S
C16 C14 1.384 . S
C16 C17 1.381 . S
C16 H37 0.930 . S
C17 C16 1.381 . S
C17 C19 1.381 . S
C17 C20 1.487 . S
C18 C15 1.382 . S
C18 C19 1.387 . S
C18 H38 0.930 . S
C19 C17 1.381 . S
C19 C18 1.387 . S
C19 H39 0.931 . S
C20 C17 1.487 . S
C20 C27 1.399 . S
C20 N45 1.343 . S
C21 C22 1.384 . S
C21 C23 1.384 . S
C21 H40 0.931 . S
C22 C21 1.384 . S
C22 C25 1.382 . S
C23 C21 1.384 . S
C23 C24 1.381 . S
C23 H41 0.930 . S
C24 C23 1.381 . S
C24 C26 1.381 . S
C24 C27 1.487 . S
C25 C22 1.382 . S
C25 C26 1.387 . S
C25 H42 0.930 . S
C26 C24 1.381 . S
C26 C25 1.387 . S
C26 H43 0.931 . S
C27 C20 1.399 . S
C27 C24 1.487 . S
C27 N44 1.343 . S
H28 C0 0.931 . S
H29 C2 0.930 . S
H30 C4 0.930 . S
H31 C5 0.931 . S
H32 C7 0.931 . S
H33 C9 0.930 . S
H34 C11 0.930 . S
H35 C12 0.931 1_455 S
H36 C14 0.931 . S
H37 C16 0.930 . S
H38 C18 0.930 . S
H39 C19 0.931 . S
H40 C21 0.931 . S
H41 C23 0.930 . S
H42 C25 0.930 . S
H43 C26 0.931 . S
N44 C6 1.343 1_455 S
N44 C27 1.343 . S
N45 C13 1.343 . S
N45 C20 1.343 . S
C46 C47 1.384 . S
C46 C48 1.384 . S
C46 H74 0.931 . S
C47 C46 1.384 . S
C47 C50 1.382 . S
C48 C46 1.384 . S
C48 C49 1.381 . S
C48 H75 0.930 . S
C49 C48 1.381 . S
C49 C51 1.381 . S
C49 C52 1.487 . S
C50 C47 1.382 . S
C50 C51 1.387 . S
C50 H76 0.930 . S
C51 C49 1.381 . S
C51 C50 1.387 . S
C51 H77 0.931 . S
C52 C49 1.487 . S
C52 C59 1.399 1_565 S
C52 N90 1.343 1_565 S
C53 C54 1.384 . S
C53 C55 1.384 . S
C53 H78 0.931 . S
C54 C53 1.384 . S
C54 C57 1.382 . S
C55 C53 1.384 . S
C55 C56 1.381 . S
C55 H79 0.930 . S
C56 C55 1.381 . S
C56 C58 1.381 . S
C56 C59 1.487 1_565 S
C57 C54 1.382 . S
C57 C58 1.387 . S
C57 H80 0.930 . S
C58 C56 1.381 . S
C58 C57 1.387 . S
C58 H81 0.931 1_565 S
C59 C52 1.399 1_545 S
C59 C56 1.487 1_545 S
C59 N91 1.343 . S
C60 C61 1.384 . S
C60 C62 1.384 . S
C60 H82 0.931 . S
C61 C60 1.384 . S
C61 C64 1.382 . S
C62 C60 1.384 . S
C62 C63 1.381 . S
C62 H83 0.930 . S
C63 C62 1.381 . S
C63 C65 1.381 . S
C63 C66 1.487 . S
C64 C61 1.382 . S
C64 C65 1.387 . S
C64 H84 0.930 . S
C65 C63 1.381 . S
C65 C64 1.387 . S
C65 H85 0.931 . S
C66 C63 1.487 . S
C66 C73 1.399 . S
C66 N91 1.343 . S
C67 C68 1.384 . S
C67 C69 1.384 . S
C67 H86 0.931 . S
C68 C67 1.384 . S
C68 C71 1.382 . S
C69 C67 1.384 . S
C69 C70 1.381 . S
C69 H87 0.930 . S
C70 C69 1.381 . S
C70 C72 1.381 . S
C70 C73 1.487 . S
C71 C68 1.382 . S
C71 C72 1.387 . S
C71 H88 0.930 . S
C72 C70 1.381 . S
C72 C71 1.387 . S
C72 H89 0.931 . S
C73 C66 1.399 . S
C73 C70 1.487 . S
C73 N90 1.343 . S
H74 C46 0.931 . S
H75 C48 0.930 . S
H76 C50 0.930 . S
H77 C51 0.931 . S
H78 C53 0.931 . S
H79 C55 0.930 . S
H80 C57 0.930 . S
H81 C58 0.931 1_545 S
H82 C60 0.931 . S
H83 C62 0.930 . S
H84 C64 0.930 . S
H85 C65 0.931 . S
H86 C67 0.931 . S
H87 C69 0.930 . S
H88 C71 0.930 . S
H89 C72 0.931 . S
N90 C52 1.343 1_545 S
N90 C73 1.343 . S
N91 C59 1.343 . S
N91 C66 1.343 . S
C92 C93 1.384 . S
C92 C94 1.384 . S
C92 H120 0.931 . S
C93 C92 1.384 . S
C93 C96 1.382 . S
C94 C92 1.384 . S
C94 C95 1.381 . S
C94 H121 0.930 . S
C95 C94 1.381 . S
C95 C97 1.381 . S
C95 C98 1.487 . S
C96 C93 1.382 . S
C96 C97 1.387 . S
C96 H122 0.930 . S
C97 C95 1.381 . S
C97 C96 1.387 . S
C97 H123 0.931 . S
C98 C95 1.487 . S
C98 C105 1.399 . S
C98 N136 1.343 . S
C99 C100 1.384 . S
C99 C101 1.384 . S
C99 H124 0.931 . S
C100 C99 1.384 . S
C100 C103 1.382 . S
C101 C99 1.384 . S
C101 C102 1.381 . S
C101 H125 0.930 . S
C102 C101 1.381 . S
C102 C104 1.381 . S
C102 C105 1.487 . S
C103 C100 1.382 . S
C103 C104 1.387 . S
C103 H126 0.930 . S
C104 C102 1.381 . S
C104 C103 1.387 . S
C104 H127 0.931 . S
C105 C98 1.399 . S
C105 C102 1.487 . S
C105 N137 1.343 . S
C106 C107 1.384 . S
C106 C108 1.384 . S
C106 H128 0.931 . S
C107 C106 1.384 . S
C107 C110 1.382 . S
C108 C106 1.384 . S
C108 C109 1.381 . S
C108 H129 0.930 . S
C109 C108 1.381 . S
C109 C111 1.381 . S
C109 C112 1.487 . S
C110 C107 1.382 . S
C110 C111 1.387 . S
C110 H130 0.930 . S
C111 C109 1.381 . S
C111 C110 1.387 . S
C111 H131 0.931 . S
C112 C109 1.487 . S
C112 C119 1.399 . S
C112 N137 1.343 . S
C113 C114 1.384 . S
C113 C115 1.384 . S
C113 H132 0.931 . S
C114 C113 1.384 . S
C114 C117 1.382 . S
C115 C113 1.384 . S
C115 C116 1.381 . S
C115 H133 0.930 . S
C116 C115 1.381 . S
C116 C118 1.381 . S
C116 C119 1.487 . S
C117 C114 1.382 . S
C117 C118 1.387 . S
C117 H134 0.930 . S
C118 C116 1.381 . S
C118 C117 1.387 . S
C118 H135 0.931 . S
C119 C112 1.399 . S
C119 C116 1.487 . S
C119 N136 1.343 . S
H120 C92 0.931 . S
H121 C94 0.930 . S
H122 C96 0.930 . S
H123 C97 0.931 . S
H124 C99 0.931 . S
H125 C101 0.930 . S
H126 C103 0.930 . S
H127 C104 0.931 . S
H128 C106 0.931 . S
H129 C108 0.930 . S
H130 C110 0.930 . S
H131 C111 0.931 . S
H132 C113 0.931 . S
H133 C115 0.930 . S
H134 C117 0.930 . S
H135 C118 0.931 . S
N136 C98 1.343 . S
N136 C119 1.343 . S
N137 C105 1.343 . S
N137 C112 1.343 . S
C138 C139 1.384 . S
C138 C140 1.384 . S
C138 H166 0.931 . S
C139 C138 1.384 . S
C139 C142 1.382 . S
C140 C138 1.384 . S
C140 C141 1.381 . S
C140 H167 0.930 . S
C141 C140 1.381 . S
C141 C143 1.381 . S
C141 C144 1.487 . S
C142 C139 1.382 . S
C142 C143 1.387 . S
C142 H168 0.930 . S
C143 C141 1.381 . S
C143 C142 1.387 . S
C143 H169 0.931 . S
C144 C141 1.487 . S
C144 C151 1.399 1_655 S
C144 N182 1.343 1_655 S
C145 C146 1.384 . S
C145 C147 1.384 . S
C145 H170 0.931 . S
C146 C145 1.384 . S
C146 C149 1.382 . S
C147 C145 1.384 . S
C147 C148 1.381 . S
C147 H171 0.930 . S
C148 C147 1.381 . S
C148 C150 1.381 . S
C148 C151 1.487 1_655 S
C149 C146 1.382 . S
C149 C150 1.387 . S
C149 H172 0.930 . S
C150 C148 1.381 . S
C150 C149 1.387 . S
C150 H173 0.931 1_655 S
C151 C144 1.399 1_455 S
C151 C148 1.487 1_455 S
C151 N183 1.343 . S
C152 C153 1.384 . S
C152 C154 1.384 . S
C152 H174 0.931 . S
C153 C152 1.384 . S
C153 C156 1.382 . S
C154 C152 1.384 . S
C154 C155 1.381 . S
C154 H175 0.930 . S
C155 C154 1.381 . S
C155 C157 1.381 . S
C155 C158 1.487 . S
C156 C153 1.382 . S
C156 C157 1.387 . S
C156 H176 0.930 . S
C157 C155 1.381 . S
C157 C156 1.387 . S
C157 H177 0.931 . S
C158 C155 1.487 . S
C158 C165 1.399 . S
C158 N183 1.343 . S
C159 C160 1.384 . S
C159 C161 1.384 . S
C159 H178 0.931 . S
C160 C159 1.384 . S
C160 C163 1.382 . S
C161 C159 1.384 . S
C161 C162 1.381 . S
C161 H179 0.930 . S
C162 C161 1.381 . S
C162 C164 1.381 . S
C162 C165 1.487 . S
C163 C160 1.382 . S
C163 C164 1.387 . S
C163 H180 0.930 . S
C164 C162 1.381 . S
C164 C163 1.387 . S
C164 H181 0.931 . S
C165 C158 1.399 . S
C165 C162 1.487 . S
C165 N182 1.343 . S
H166 C138 0.931 . S
H167 C140 0.930 . S
H168 C142 0.930 . S
H169 C143 0.931 . S
H170 C145 0.931 . S
H171 C147 0.930 . S
H172 C149 0.930 . S
H173 C150 0.931 1_455 S
H174 C152 0.931 . S
H175 C154 0.930 . S
H176 C156 0.930 . S
H177 C157 0.931 . S
H178 C159 0.931 . S
H179 C161 0.930 . S
H180 C163 0.930 . S
H181 C164 0.931 . S
N182 C144 1.343 1_455 S
N182 C165 1.343 . S
N183 C151 1.343 . S
N183 C158 1.343 . S
C184 C185 1.384 . S
C184 C186 1.384 . S
C184 H212 0.931 . S
C185 C184 1.384 . S
C185 C188 1.382 . S
C186 C184 1.384 . S
C186 C187 1.381 . S
C186 H213 0.930 1_556 S
C187 C186 1.381 . S
C187 C189 1.381 . S
C187 C190 1.487 . S
C188 C185 1.382 . S
C188 C189 1.387 . S
C188 H214 0.930 . S
C189 C187 1.381 . S
C189 C188 1.387 . S
C189 H215 0.931 . S
C190 C187 1.487 . S
C190 C197 1.399 1_566 S
C190 N228 1.343 1_565 S
C191 C192 1.384 . S
C191 C193 1.384 . S
C191 H216 0.931 . S
C192 C191 1.384 . S
C192 C195 1.382 . S
C193 C191 1.384 . S
C193 C194 1.381 . S
C193 H217 0.930 . S
C194 C193 1.381 . S
C194 C196 1.381 . S
C194 C197 1.487 1_565 S
C195 C192 1.382 . S
C195 C196 1.387 . S
C195 H218 0.930 . S
C196 C194 1.381 . S
C196 C195 1.387 . S
C196 H219 0.931 1_565 S
C197 C190 1.399 1_544 S
C197 C194 1.487 1_545 S
C197 N229 1.343 . S
C198 C199 1.384 . S
C198 C200 1.384 1_554 S
C198 H220 0.931 . S
C199 C198 1.384 . S
C199 C202 1.382 . S
C200 C198 1.384 1_556 S
C200 C201 1.381 1_556 S
C200 H221 0.930 . S
C201 C200 1.381 1_554 S
C201 C203 1.381 . S
C201 C204 1.488 . S
C202 C199 1.382 . S
C202 C203 1.387 . S
C202 H222 0.930 . S
C203 C201 1.381 . S
C203 C202 1.387 . S
C203 H223 0.931 . S
C204 C201 1.488 . S
C204 C211 1.397 1_554 S
C204 N229 1.345 . S
C205 C206 1.384 . S
C205 C207 1.384 . S
C205 H224 0.931 . S
C206 C205 1.384 . S
C206 C209 1.382 . S
C207 C205 1.384 . S
C207 C208 1.381 . S
C207 H225 0.930 . S
C208 C207 1.381 . S
C208 C210 1.381 . S
C208 C211 1.487 . S
C209 C206 1.382 . S
C209 C210 1.387 . S
C209 H226 0.930 . S
C210 C208 1.381 . S
C210 C209 1.387 . S
C210 H227 0.931 . S
C211 C204 1.397 1_556 S
C211 C208 1.487 . S
C211 N228 1.343 . S
H212 C184 0.931 . S
H213 C186 0.930 1_554 S
H214 C188 0.930 . S
H215 C189 0.931 . S
H216 C191 0.931 . S
H217 C193 0.930 . S
H218 C195 0.930 . S
H219 C196 0.931 1_545 S
H220 C198 0.931 . S
H221 C200 0.930 . S
H222 C202 0.930 . S
H223 C203 0.931 . S
H224 C205 0.931 . S
H225 C207 0.930 . S
H226 C209 0.930 . S
H227 C210 0.931 . S
N228 C190 1.343 1_545 S
N228 C211 1.343 . S
N229 C197 1.343 . S
N229 C204 1.345 . S
C230 C231 1.384 . S
C230 C232 1.384 . S
C230 H258 0.931 . S
C231 C230 1.384 . S
C231 C234 1.382 . S
C232 C230 1.384 . S
C232 C233 1.381 . S
C232 H259 0.930 . S
C233 C232 1.381 . S
C233 C235 1.381 . S
C233 C236 1.487 . S
C234 C231 1.382 . S
C234 C235 1.387 . S
C234 H260 0.930 . S
C235 C233 1.381 . S
C235 C234 1.387 . S
C235 H261 0.931 . S
C236 C233 1.487 . S
C236 C243 1.399 . S
C236 N274 1.343 . S
C237 C238 1.384 . S
C237 C239 1.384 . S
C237 H262 0.931 . S
C238 C237 1.384 . S
C238 C241 1.382 . S
C239 C237 1.384 . S
C239 C240 1.381 . S
C239 H263 0.930 . S
C240 C239 1.381 . S
C240 C242 1.381 . S
C240 C243 1.487 . S
C241 C238 1.382 . S
C241 C242 1.387 . S
C241 H264 0.930 . S
C242 C240 1.381 . S
C242 C241 1.387 . S
C242 H265 0.931 . S
C243 C236 1.399 . S
C243 C240 1.487 . S
C243 N275 1.343 . S
C244 C245 1.384 . S
C244 C246 1.384 . S
C244 H266 0.931 . S
C245 C244 1.384 . S
C245 C248 1.382 . S
C246 C244 1.384 . S
C246 C247 1.381 . S
C246 H267 0.930 . S
C247 C246 1.381 . S
C247 C249 1.381 . S
C247 C250 1.487 . S
C248 C245 1.382 . S
C248 C249 1.387 . S
C248 H268 0.930 . S
C249 C247 1.381 . S
C249 C248 1.387 . S
C249 H269 0.931 . S
C250 C247 1.487 . S
C250 C257 1.399 . S
C250 N275 1.343 . S
C251 C252 1.384 . S
C251 C253 1.384 . S
C251 H270 0.931 . S
C252 C251 1.384 . S
C252 C255 1.382 . S
C253 C251 1.384 . S
C253 C254 1.381 . S
C253 H271 0.930 . S
C254 C253 1.381 . S
C254 C256 1.381 . S
C254 C257 1.487 . S
C255 C252 1.382 . S
C255 C256 1.387 . S
C255 H272 0.930 . S
C256 C254 1.381 . S
C256 C255 1.387 . S
C256 H273 0.931 . S
C257 C250 1.399 . S
C257 C254 1.487 . S
C257 N274 1.343 . S
H258 C230 0.931 . S
H259 C232 0.930 . S
H260 C234 0.930 . S
H261 C235 0.931 . S
H262 C237 0.931 . S
H263 C239 0.930 . S
H264 C241 0.930 . S
H265 C242 0.931 . S
H266 C244 0.931 . S
H267 C246 0.930 . S
H268 C248 0.930 . S
H269 C249 0.931 . S
H270 C251 0.931 . S
H271 C253 0.930 . S
H272 C255 0.930 . S
H273 C256 0.931 . S
N274 C236 1.343 . S
N274 C257 1.343 . S
N275 C243 1.343 . S
N275 C250 1.343 . S
Li276 N293 1.990 . S
Li276 O336 1.956 . S
Li276 O337 1.970 . S
Li276 O338 1.961 . S
Li277 N301 1.990 . S
Li277 O336 1.970 . S
Li277 O337 1.956 . S
Li277 O339 1.961 . S
Li278 N323 1.990 . S
Li278 O336 1.961 . S
Li278 O338 1.956 . S
Li278 O339 1.970 . S
Li279 N329 1.990 . S
Li279 O337 1.961 . S
Li279 O338 1.970 . S
Li279 O339 1.956 . S
C280 C282 1.348 . S
C280 C283 1.356 . S
C280 O336 1.325 . S
N281 C284 1.314 . S
N281 C285 1.279 . S
C282 C280 1.348 . S
C282 C284 1.353 . S
C282 H340 0.929 . S
C283 C280 1.356 . S
C283 C285 1.358 . S
C283 H341 0.930 . S
C284 N281 1.314 . S
C284 C282 1.353 . S
C284 H342 0.930 . S
C285 N281 1.279 . S
C285 C283 1.358 . S
C285 H343 0.930 . S
C286 C289 1.348 . S
C286 C290 1.356 . S
C286 O337 1.325 . S
C287 N288 1.279 . S
C287 C290 1.358 . S
C287 H344 0.930 . S
N288 C287 1.279 . S
N288 C291 1.314 . S
C289 C286 1.348 . S
C289 C291 1.353 . S
C289 H345 0.929 . S
C290 C286 1.356 . S
C290 C287 1.358 . S
C290 H346 0.930 . S
C291 N288 1.314 . S
C291 C289 1.353 . S
C291 H347 0.930 . S
C292 N293 1.314 . S
C292 C297 1.353 . S
C292 H298 0.930 . S
N293 Li276 1.990 . S
N293 C292 1.314 . S
N293 C295 1.279 . S
C294 C295 1.358 . S
C294 C296 1.356 . S
C294 H348 0.930 . S
C295 N293 1.279 . S
C295 C294 1.358 . S
C295 H299 0.930 . S
C296 C294 1.356 . S
C296 C297 1.348 . S
C297 C292 1.353 . S
C297 C296 1.348 . S
C297 H349 0.929 . S
H298 C292 0.930 . S
H299 C295 0.930 . S
C300 N301 1.314 . S
C300 C302 1.353 . S
C300 H306 0.930 . S
N301 Li277 1.990 . S
N301 C300 1.314 . S
N301 C304 1.279 . S
C302 C300 1.353 . S
C302 C305 1.348 . S
C302 H350 0.929 . S
C303 C304 1.358 . S
C303 C305 1.356 . S
C303 H351 0.930 . S
C304 N301 1.279 . S
C304 C303 1.358 . S
C304 H307 0.930 . S
C305 C302 1.348 . S
C305 C303 1.356 . S
H306 C300 0.930 . S
H307 C304 0.930 . S
C308 C310 1.348 . S
C308 C311 1.356 . S
C308 O338 1.325 . S
N309 C312 1.314 . S
N309 C313 1.279 . S
C310 C308 1.348 . S
C310 C312 1.353 . S
C310 H352 0.929 . S
C311 C308 1.356 . S
C311 C313 1.358 . S
C311 H353 0.930 . S
C312 N309 1.314 . S
C312 C310 1.353 . S
C312 H354 0.930 . S
C313 N309 1.279 . S
C313 C311 1.358 . S
C313 H355 0.930 . S
C314 C315 1.348 . S
C314 C316 1.356 . S
C314 O339 1.325 . S
C315 C314 1.348 . S
C315 C317 1.353 . S
C315 H356 0.929 . S
C316 C314 1.356 . S
C316 C318 1.358 . S
C316 H357 0.930 . S
C317 C315 1.353 . S
C317 N319 1.314 . S
C317 H358 0.930 . S
C318 C316 1.358 . S
C318 N319 1.279 . S
C318 H359 0.930 . S
N319 C317 1.314 . S
N319 C318 1.279 . S
C320 C322 1.353 . S
C320 N323 1.314 . S
C320 H326 0.930 . S
C321 N323 1.279 . S
C321 C324 1.358 . S
C321 H327 0.930 . S
C322 C320 1.353 . S
C322 C325 1.348 . S
C322 H360 0.929 . S
N323 Li278 1.990 . S
N323 C320 1.314 . S
N323 C321 1.279 . S
C324 C321 1.358 . S
C324 C325 1.356 . S
C324 H361 0.930 . S
C325 C322 1.348 . S
C325 C324 1.356 . S
H326 C320 0.930 . S
H327 C321 0.930 . S
C328 N329 1.314 . S
C328 C330 1.353 . S
C328 H334 0.930 . S
N329 Li279 1.990 . S
N329 C328 1.314 . S
N329 C332 1.279 . S
C330 C328 1.353 . S
C330 C333 1.348 . S
C330 H362 0.929 . S
C331 C332 1.358 . S
C331 C333 1.356 . S
C331 H363 0.930 . S
C332 N329 1.279 . S
C332 C331 1.358 . S
C332 H335 0.930 . S
C333 C330 1.348 . S
C333 C331 1.356 . S
H334 C328 0.930 . S
H335 C332 0.930 . S
O336 Li276 1.956 . S
O336 Li277 1.970 . S
O336 Li278 1.961 . S
O336 C280 1.325 . S
O337 Li276 1.970 . S
O337 Li277 1.956 . S
O337 Li279 1.961 . S
O337 C286 1.325 . S
O338 Li276 1.961 . S
O338 Li278 1.956 . S
O338 Li279 1.970 . S
O338 C308 1.325 . S
O339 Li277 1.961 . S
O339 Li278 1.970 . S
O339 Li279 1.956 . S
O339 C314 1.325 . S
H340 C282 0.929 . S
H341 C283 0.930 . S
H342 C284 0.930 . S
H343 C285 0.930 . S
H344 C287 0.930 . S
H345 C289 0.929 . S
H346 C290 0.930 . S
H347 C291 0.930 . S
H348 C294 0.930 . S
H349 C297 0.929 . S
H350 C302 0.929 . S
H351 C303 0.930 . S
H352 C310 0.929 . S
H353 C311 0.930 . S
H354 C312 0.930 . S
H355 C313 0.930 . S
H356 C315 0.929 . S
H357 C316 0.930 . S
H358 C317 0.930 . S
H359 C318 0.930 . S
H360 C322 0.929 . S
H361 C324 0.930 . S
H362 C330 0.929 . S
H363 C331 0.930 . S
Li364 N381 1.990 . S
Li364 O424 1.956 . S
Li364 O425 1.970 . S
Li364 O426 1.961 . S
Li365 N389 1.990 . S
Li365 O424 1.970 . S
Li365 O425 1.956 . S
Li365 O427 1.961 . S
Li366 N411 1.990 . S
Li366 O424 1.961 . S
Li366 O426 1.956 . S
Li366 O427 1.970 . S
Li367 N417 1.990 . S
Li367 O425 1.961 . S
Li367 O426 1.970 . S
Li367 O427 1.956 . S
C368 C370 1.348 . S
C368 C371 1.356 . S
C368 O424 1.325 . S
N369 C372 1.314 . S
N369 C373 1.279 . S
C370 C368 1.348 . S
C370 C372 1.353 . S
C370 H428 0.929 . S
C371 C368 1.356 . S
C371 C373 1.358 . S
C371 H429 0.930 . S
C372 N369 1.314 . S
C372 C370 1.353 . S
C372 H430 0.930 . S
C373 N369 1.279 . S
C373 C371 1.358 . S
C373 H431 0.930 . S
C374 C377 1.348 . S
C374 C378 1.356 . S
C374 O425 1.325 . S
C375 N376 1.279 . S
C375 C378 1.358 . S
C375 H432 0.930 . S
N376 C375 1.279 . S
N376 C379 1.314 . S
C377 C374 1.348 . S
C377 C379 1.353 . S
C377 H433 0.929 . S
C378 C374 1.356 . S
C378 C375 1.358 . S
C378 H434 0.930 . S
C379 N376 1.314 . S
C379 C377 1.353 . S
C379 H435 0.930 . S
C380 N381 1.314 . S
C380 C385 1.353 . S
C380 H386 0.930 . S
N381 Li364 1.990 . S
N381 C380 1.314 . S
N381 C383 1.279 . S
C382 C383 1.358 . S
C382 C384 1.356 . S
C382 H436 0.930 . S
C383 N381 1.279 . S
C383 C382 1.358 . S
C383 H387 0.930 . S
C384 C382 1.356 . S
C384 C385 1.348 . S
C385 C380 1.353 . S
C385 C384 1.348 . S
C385 H437 0.929 . S
H386 C380 0.930 . S
H387 C383 0.930 . S
C388 N389 1.314 . S
C388 C390 1.353 . S
C388 H394 0.930 . S
N389 Li365 1.990 . S
N389 C388 1.314 . S
N389 C392 1.279 . S
C390 C388 1.353 . S
C390 C393 1.348 . S
C390 H438 0.929 . S
C391 C392 1.358 . S
C391 C393 1.356 . S
C391 H439 0.930 . S
C392 N389 1.279 . S
C392 C391 1.358 . S
C392 H395 0.930 . S
C393 C390 1.348 . S
C393 C391 1.356 . S
H394 C388 0.930 . S
H395 C392 0.930 . S
C396 C398 1.348 . S
C396 C399 1.356 . S
C396 O426 1.325 . S
N397 C400 1.314 . S
N397 C401 1.279 . S
C398 C396 1.348 . S
C398 C400 1.353 . S
C398 H440 0.929 . S
C399 C396 1.356 . S
C399 C401 1.358 . S
C399 H441 0.930 . S
C400 N397 1.314 . S
C400 C398 1.353 . S
C400 H442 0.930 . S
C401 N397 1.279 . S
C401 C399 1.358 . S
C401 H443 0.930 . S
C402 C403 1.348 . S
C402 C404 1.356 . S
C402 O427 1.325 . S
C403 C402 1.348 . S
C403 C405 1.353 . S
C403 H444 0.929 . S
C404 C402 1.356 . S
C404 C406 1.358 . S
C404 H445 0.930 . S
C405 C403 1.353 . S
C405 N407 1.314 . S
C405 H446 0.930 . S
C406 C404 1.358 . S
C406 N407 1.279 . S
C406 H447 0.930 . S
N407 C405 1.314 . S
N407 C406 1.279 . S
C408 C410 1.353 . S
C408 N411 1.314 . S
C408 H414 0.930 . S
C409 N411 1.279 . S
C409 C412 1.358 . S
C409 H415 0.930 . S
C410 C408 1.353 . S
C410 C413 1.348 . S
C410 H448 0.929 . S
N411 Li366 1.990 . S
N411 C408 1.314 . S
N411 C409 1.279 . S
C412 C409 1.358 . S
C412 C413 1.356 . S
C412 H449 0.930 . S
C413 C410 1.348 . S
C413 C412 1.356 . S
H414 C408 0.930 . S
H415 C409 0.930 . S
C416 N417 1.314 . S
C416 C418 1.353 . S
C416 H422 0.930 . S
N417 Li367 1.990 . S
N417 C416 1.314 . S
N417 C420 1.279 . S
C418 C416 1.353 . S
C418 C421 1.348 . S
C418 H450 0.929 . S
C419 C420 1.358 . S
C419 C421 1.356 . S
C419 H451 0.930 . S
C420 N417 1.279 . S
C420 C419 1.358 . S
C420 H423 0.930 . S
C421 C418 1.348 . S
C421 C419 1.356 . S
H422 C416 0.930 . S
H423 C420 0.930 . S
O424 Li364 1.956 . S
O424 Li365 1.970 . S
O424 Li366 1.961 . S
O424 C368 1.325 . S
O425 Li364 1.970 . S
O425 Li365 1.956 . S
O425 Li367 1.961 . S
O425 C374 1.325 . S
O426 Li364 1.961 . S
O426 Li366 1.956 . S
O426 Li367 1.970 . S
O426 C396 1.325 . S
O427 Li365 1.961 . S
O427 Li366 1.970 . S
O427 Li367 1.956 . S
O427 C402 1.325 . S
H428 C370 0.929 . S
H429 C371 0.930 . S
H430 C372 0.930 . S
H431 C373 0.930 . S
H432 C375 0.930 . S
H433 C377 0.929 . S
H434 C378 0.930 . S
H435 C379 0.930 . S
H436 C382 0.930 . S
H437 C385 0.929 . S
H438 C390 0.929 . S
H439 C391 0.930 . S
H440 C398 0.929 . S
H441 C399 0.930 . S
H442 C400 0.930 . S
H443 C401 0.930 . S
H444 C403 0.929 . S
H445 C404 0.930 . S
H446 C405 0.930 . S
H447 C406 0.930 . S
H448 C410 0.929 . S
H449 C412 0.930 . S
H450 C418 0.929 . S
H451 C419 0.930 . S
Li452 N469 1.990 . S
Li452 O512 1.956 . S
Li452 O513 1.970 . S
Li452 O514 1.961 . S
Li453 N477 1.990 . S
Li453 O512 1.970 . S
Li453 O513 1.956 . S
Li453 O515 1.961 . S
Li454 N499 1.990 . S
Li454 O512 1.961 . S
Li454 O514 1.956 . S
Li454 O515 1.970 . S
Li455 N505 1.990 . S
Li455 O513 1.961 . S
Li455 O514 1.970 . S
Li455 O515 1.956 . S
C456 C458 1.348 . S
C456 C459 1.356 . S
C456 O512 1.325 . S
N457 C460 1.314 . S
N457 C461 1.279 . S
C458 C456 1.348 . S
C458 C460 1.353 . S
C458 H516 0.929 . S
C459 C456 1.356 . S
C459 C461 1.358 . S
C459 H517 0.930 . S
C460 N457 1.314 . S
C460 C458 1.353 . S
C460 H518 0.930 . S
C461 N457 1.279 . S
C461 C459 1.358 . S
C461 H519 0.930 . S
C462 C465 1.348 . S
C462 C466 1.356 . S
C462 O513 1.325 . S
C463 N464 1.279 . S
C463 C466 1.358 . S
C463 H520 0.930 . S
N464 C463 1.279 . S
N464 C467 1.314 . S
C465 C462 1.348 . S
C465 C467 1.353 . S
C465 H521 0.929 . S
C466 C462 1.356 . S
C466 C463 1.358 . S
C466 H522 0.930 . S
C467 N464 1.314 . S
C467 C465 1.353 . S
C467 H523 0.930 . S
C468 N469 1.314 . S
C468 C473 1.353 . S
C468 H474 0.930 . S
N469 Li452 1.990 . S
N469 C468 1.314 . S
N469 C471 1.279 . S
C470 C471 1.358 . S
C470 C472 1.356 . S
C470 H524 0.930 . S
C471 N469 1.279 . S
C471 C470 1.358 . S
C471 H475 0.930 . S
C472 C470 1.356 . S
C472 C473 1.348 . S
C473 C468 1.353 . S
C473 C472 1.348 . S
C473 H525 0.929 . S
H474 C468 0.930 . S
H475 C471 0.930 . S
C476 N477 1.314 . S
C476 C478 1.353 . S
C476 H482 0.930 . S
N477 Li453 1.990 . S
N477 C476 1.314 . S
N477 C480 1.279 . S
C478 C476 1.353 . S
C478 C481 1.348 . S
C478 H526 0.929 . S
C479 C480 1.358 . S
C479 C481 1.356 . S
C479 H527 0.930 . S
C480 N477 1.279 . S
C480 C479 1.358 . S
C480 H483 0.930 . S
C481 C478 1.348 . S
C481 C479 1.356 . S
H482 C476 0.930 . S
H483 C480 0.930 . S
C484 C486 1.348 . S
C484 C487 1.356 . S
C484 O514 1.325 . S
N485 C488 1.314 . S
N485 C489 1.279 . S
C486 C484 1.348 . S
C486 C488 1.353 . S
C486 H528 0.929 . S
C487 C484 1.356 . S
C487 C489 1.358 . S
C487 H529 0.930 . S
C488 N485 1.314 . S
C488 C486 1.353 . S
C488 H530 0.930 . S
C489 N485 1.279 . S
C489 C487 1.358 . S
C489 H531 0.930 . S
C490 C491 1.348 . S
C490 C492 1.356 . S
C490 O515 1.325 . S
C491 C490 1.348 . S
C491 C493 1.353 . S
C491 H532 0.929 . S
C492 C490 1.356 . S
C492 C494 1.358 . S
C492 H533 0.930 . S
C493 C491 1.353 . S
C493 N495 1.314 . S
C493 H534 0.930 . S
C494 C492 1.358 . S
C494 N495 1.279 . S
C494 H535 0.930 . S
N495 C493 1.314 . S
N495 C494 1.279 . S
C496 C498 1.353 . S
C496 N499 1.314 . S
C496 H502 0.930 . S
C497 N499 1.279 . S
C497 C500 1.358 . S
C497 H503 0.930 . S
C498 C496 1.353 . S
C498 C501 1.348 . S
C498 H536 0.929 . S
N499 Li454 1.990 . S
N499 C496 1.314 . S
N499 C497 1.279 . S
C500 C497 1.358 . S
C500 C501 1.356 . S
C500 H537 0.930 . S
C501 C498 1.348 . S
C501 C500 1.356 . S
H502 C496 0.930 . S
H503 C497 0.930 . S
C504 N505 1.314 . S
C504 C506 1.353 . S
C504 H510 0.930 . S
N505 Li455 1.990 . S
N505 C504 1.314 . S
N505 C508 1.279 . S
C506 C504 1.353 . S
C506 C509 1.348 . S
C506 H538 0.929 . S
C507 C508 1.358 . S
C507 C509 1.356 . S
C507 H539 0.930 . S
C508 N505 1.279 . S
C508 C507 1.358 . S
C508 H511 0.930 . S
C509 C506 1.348 . S
C509 C507 1.356 . S
H510 C504 0.930 . S
H511 C508 0.930 . S
O512 Li452 1.956 . S
O512 Li453 1.970 . S
O512 Li454 1.961 . S
O512 C456 1.325 . S
O513 Li452 1.970 . S
O513 Li453 1.956 . S
O513 Li455 1.961 . S
O513 C462 1.325 . S
O514 Li452 1.961 . S
O514 Li454 1.956 . S
O514 Li455 1.970 . S
O514 C484 1.325 . S
O515 Li453 1.961 . S
O515 Li454 1.970 . S
O515 Li455 1.956 . S
O515 C490 1.325 . S
H516 C458 0.929 . S
H517 C459 0.930 . S
H518 C460 0.930 . S
H519 C461 0.930 . S
H520 C463 0.930 . S
H521 C465 0.929 . S
H522 C466 0.930 . S
H523 C467 0.930 . S
H524 C470 0.930 . S
H525 C473 0.929 . S
H526 C478 0.929 . S
H527 C479 0.930 . S
H528 C486 0.929 . S
H529 C487 0.930 . S
H530 C488 0.930 . S
H531 C489 0.930 . S
H532 C491 0.929 . S
H533 C492 0.930 . S
H534 C493 0.930 . S
H535 C494 0.930 . S
H536 C498 0.929 . S
H537 C500 0.930 . S
H538 C506 0.929 . S
H539 C507 0.930 . S
Li540 N557 1.990 . S
Li540 O600 1.956 . S
Li540 O601 1.970 . S
Li540 O602 1.961 . S
Li541 N565 1.990 . S
Li541 O600 1.970 . S
Li541 O601 1.956 . S
Li541 O603 1.961 . S
Li542 N587 1.990 . S
Li542 O600 1.961 . S
Li542 O602 1.956 . S
Li542 O603 1.970 . S
Li543 N593 1.990 . S
Li543 O601 1.961 . S
Li543 O602 1.970 . S
Li543 O603 1.956 . S
C544 C546 1.348 . S
C544 C547 1.356 . S
C544 O600 1.325 . S
N545 C548 1.314 . S
N545 C549 1.279 . S
C546 C544 1.348 . S
C546 C548 1.353 . S
C546 H604 0.929 . S
C547 C544 1.356 . S
C547 C549 1.358 . S
C547 H605 0.930 . S
C548 N545 1.314 . S
C548 C546 1.353 . S
C548 H606 0.930 . S
C549 N545 1.279 . S
C549 C547 1.358 . S
C549 H607 0.930 . S
C550 C553 1.348 . S
C550 C554 1.356 . S
C550 O601 1.325 . S
C551 N552 1.279 . S
C551 C554 1.358 . S
C551 H608 0.930 . S
N552 C551 1.279 . S
N552 C555 1.314 . S
C553 C550 1.348 . S
C553 C555 1.353 . S
C553 H609 0.929 . S
C554 C550 1.356 . S
C554 C551 1.358 . S
C554 H610 0.930 . S
C555 N552 1.314 . S
C555 C553 1.353 . S
C555 H611 0.930 . S
C556 N557 1.314 . S
C556 C561 1.353 . S
C556 H562 0.930 . S
N557 Li540 1.990 . S
N557 C556 1.314 . S
N557 C559 1.279 . S
C558 C559 1.358 1_554 S
C558 C560 1.356 . S
C558 H612 0.930 . S
C559 N557 1.279 . S
C559 C558 1.358 1_556 S
C559 H563 0.930 . S
C560 C558 1.356 . S
C560 C561 1.348 1_554 S
C561 C556 1.353 . S
C561 C560 1.348 1_556 S
C561 H613 0.929 . S
H562 C556 0.930 . S
H563 C559 0.930 . S
C564 N565 1.314 . S
C564 C566 1.353 . S
C564 H570 0.930 . S
N565 Li541 1.990 . S
N565 C564 1.314 . S
N565 C568 1.279 . S
C566 C564 1.353 . S
C566 C569 1.348 . S
C566 H614 0.929 . S
C567 C568 1.358 . S
C567 C569 1.356 . S
C567 H615 0.930 . S
C568 N565 1.279 . S
C568 C567 1.358 . S
C568 H571 0.930 . S
C569 C566 1.348 . S
C569 C567 1.356 . S
H570 C564 0.930 . S
H571 C568 0.930 . S
C572 C574 1.348 . S
C572 C575 1.356 . S
C572 O602 1.325 . S
N573 C576 1.314 . S
N573 C577 1.279 . S
C574 C572 1.348 . S
C574 C576 1.353 . S
C574 H616 0.929 . S
C575 C572 1.356 . S
C575 C577 1.358 . S
C575 H617 0.930 . S
C576 N573 1.314 . S
C576 C574 1.353 . S
C576 H618 0.930 . S
C577 N573 1.279 . S
C577 C575 1.358 . S
C577 H619 0.930 . S
C578 C579 1.348 . S
C578 C580 1.356 . S
C578 O603 1.325 . S
C579 C578 1.348 . S
C579 C581 1.353 . S
C579 H620 0.929 . S
C580 C578 1.356 . S
C580 C582 1.358 . S
C580 H621 0.930 . S
C581 C579 1.353 . S
C581 N583 1.314 . S
C581 H622 0.930 . S
C582 C580 1.358 . S
C582 N583 1.279 . S
C582 H623 0.930 . S
N583 C581 1.314 . S
N583 C582 1.279 . S
C584 C586 1.353 . S
C584 N587 1.314 . S
C584 H590 0.930 . S
C585 N587 1.279 . S
C585 C588 1.358 . S
C585 H591 0.930 . S
C586 C584 1.353 . S
C586 C589 1.348 . S
C586 H624 0.929 . S
N587 Li542 1.990 . S
N587 C584 1.314 . S
N587 C585 1.279 . S
C588 C585 1.358 . S
C588 C589 1.356 . S
C588 H625 0.930 . S
C589 C586 1.348 . S
C589 C588 1.356 . S
H590 C584 0.930 . S
H591 C585 0.930 . S
C592 N593 1.314 . S
C592 C594 1.353 . S
C592 H598 0.930 . S
N593 Li543 1.990 . S
N593 C592 1.314 . S
N593 C596 1.279 . S
C594 C592 1.353 . S
C594 C597 1.348 . S
C594 H626 0.929 . S
C595 C596 1.358 . S
C595 C597 1.356 . S
C595 H627 0.930 . S
C596 N593 1.279 . S
C596 C595 1.358 . S
C596 H599 0.930 . S
C597 C594 1.348 . S
C597 C595 1.356 . S
H598 C592 0.930 . S
H599 C596 0.930 . S
O600 Li540 1.956 . S
O600 Li541 1.970 . S
O600 Li542 1.961 . S
O600 C544 1.325 . S
O601 Li540 1.970 . S
O601 Li541 1.956 . S
O601 Li543 1.961 . S
O601 C550 1.325 . S
O602 Li540 1.961 . S
O602 Li542 1.956 . S
O602 Li543 1.970 . S
O602 C572 1.325 . S
O603 Li541 1.961 . S
O603 Li542 1.970 . S
O603 Li543 1.956 . S
O603 C578 1.325 . S
H604 C546 0.929 . S
H605 C547 0.930 . S
H606 C548 0.930 . S
H607 C549 0.930 . S
H608 C551 0.930 . S
H609 C553 0.929 . S
H610 C554 0.930 . S
H611 C555 0.930 . S
H612 C558 0.930 . S
H613 C561 0.929 . S
H614 C566 0.929 . S
H615 C567 0.930 . S
H616 C574 0.929 . S
H617 C575 0.930 . S
H618 C576 0.930 . S
H619 C577 0.930 . S
H620 C579 0.929 . S
H621 C580 0.930 . S
H622 C581 0.930 . S
H623 C582 0.930 . S
H624 C586 0.929 . S
H625 C588 0.930 . S
H626 C594 0.929 . S
H627 C595 0.930 . S
Li628 N645 1.990 . S
Li628 O688 1.956 . S
Li628 O689 1.970 . S
Li628 O690 1.961 . S
Li629 N653 1.990 . S
Li629 O688 1.970 . S
Li629 O689 1.956 . S
Li629 O691 1.961 . S
Li630 N675 1.990 . S
Li630 O688 1.961 . S
Li630 O690 1.956 . S
Li630 O691 1.970 . S
Li631 N681 1.990 . S
Li631 O689 1.961 . S
Li631 O690 1.970 . S
Li631 O691 1.956 . S
C632 C634 1.348 . S
C632 C635 1.356 . S
C632 O688 1.325 . S
N633 C636 1.314 . S
N633 C637 1.279 . S
C634 C632 1.348 . S
C634 C636 1.353 . S
C634 H692 0.929 . S
C635 C632 1.356 . S
C635 C637 1.358 . S
C635 H693 0.930 . S
C636 N633 1.314 . S
C636 C634 1.353 . S
C636 H694 0.930 . S
C637 N633 1.279 . S
C637 C635 1.358 . S
C637 H695 0.930 . S
C638 C641 1.348 . S
C638 C642 1.356 . S
C638 O689 1.325 . S
C639 N640 1.279 . S
C639 C642 1.358 . S
C639 H696 0.930 . S
N640 C639 1.279 . S
N640 C643 1.314 . S
C641 C638 1.348 . S
C641 C643 1.353 . S
C641 H697 0.929 . S
C642 C638 1.356 . S
C642 C639 1.358 . S
C642 H698 0.930 . S
C643 N640 1.314 . S
C643 C641 1.353 . S
C643 H699 0.930 . S
C644 N645 1.314 . S
C644 C649 1.353 . S
C644 H650 0.930 . S
N645 Li628 1.990 . S
N645 C644 1.314 . S
N645 C647 1.279 . S
C646 C647 1.358 . S
C646 C648 1.356 . S
C646 H700 0.930 . S
C647 N645 1.279 . S
C647 C646 1.358 . S
C647 H651 0.930 . S
C648 C646 1.356 . S
C648 C649 1.348 . S
C649 C644 1.353 . S
C649 C648 1.348 . S
C649 H701 0.929 . S
H650 C644 0.930 . S
H651 C647 0.930 . S
C652 N653 1.314 . S
C652 C654 1.353 . S
C652 H658 0.930 . S
N653 Li629 1.990 . S
N653 C652 1.314 . S
N653 C656 1.279 . S
C654 C652 1.353 . S
C654 C657 1.348 . S
C654 H702 0.929 . S
C655 C656 1.358 . S
C655 C657 1.356 . S
C655 H703 0.930 . S
C656 N653 1.279 . S
C656 C655 1.358 . S
C656 H659 0.930 . S
C657 C654 1.348 . S
C657 C655 1.356 . S
H658 C652 0.930 . S
H659 C656 0.930 . S
C660 C662 1.348 . S
C660 C663 1.356 . S
C660 O690 1.325 . S
N661 C664 1.314 1_556 S
N661 C665 1.279 1_556 S
C662 C660 1.348 . S
C662 C664 1.353 . S
C662 H704 0.929 . S
C663 C660 1.356 . S
C663 C665 1.358 . S
C663 H705 0.930 . S
C664 N661 1.314 1_554 S
C664 C662 1.353 . S
C664 H706 0.930 1_554 S
C665 N661 1.279 1_554 S
C665 C663 1.358 . S
C665 H707 0.930 . S
C666 C667 1.348 . S
C666 C668 1.356 . S
C666 O691 1.325 . S
C667 C666 1.348 . S
C667 C669 1.353 . S
C667 H708 0.929 . S
C668 C666 1.356 . S
C668 C670 1.358 . S
C668 H709 0.930 . S
C669 C667 1.353 . S
C669 N671 1.314 . S
C669 H710 0.930 . S
C670 C668 1.358 . S
C670 N671 1.279 . S
C670 H711 0.930 . S
N671 C669 1.314 . S
N671 C670 1.279 . S
C672 C674 1.353 . S
C672 N675 1.314 . S
C672 H678 0.930 . S
C673 N675 1.279 . S
C673 C676 1.358 1_554 S
C673 H679 0.930 . S
C674 C672 1.353 . S
C674 C677 1.348 1_554 S
C674 H712 0.929 . S
N675 Li630 1.990 . S
N675 C672 1.314 . S
N675 C673 1.279 . S
C676 C673 1.358 1_556 S
C676 C677 1.356 . S
C676 H713 0.930 . S
C677 C674 1.348 1_556 S
C677 C676 1.356 . S
H678 C672 0.930 . S
H679 C673 0.930 . S
C680 N681 1.314 . S
C680 C682 1.353 . S
C680 H686 0.930 . S
N681 Li631 1.990 . S
N681 C680 1.314 . S
N681 C684 1.279 . S
C682 C680 1.353 . S
C682 C685 1.348 . S
C682 H714 0.929 . S
C683 C684 1.358 . S
C683 C685 1.356 . S
C683 H715 0.930 . S
C684 N681 1.279 . S
C684 C683 1.358 . S
C684 H687 0.930 . S
C685 C682 1.348 . S
C685 C683 1.356 . S
H686 C680 0.930 . S
H687 C684 0.930 . S
O688 Li628 1.956 . S
O688 Li629 1.970 . S
O688 Li630 1.961 . S
O688 C632 1.325 . S
O689 Li628 1.970 . S
O689 Li629 1.956 . S
O689 Li631 1.961 . S
O689 C638 1.325 . S
O690 Li628 1.961 . S
O690 Li630 1.956 . S
O690 Li631 1.970 . S
O690 C660 1.325 . S
O691 Li629 1.961 . S
O691 Li630 1.970 . S
O691 Li631 1.956 . S
O691 C666 1.325 . S
H692 C634 0.929 . S
H693 C635 0.930 . S
H694 C636 0.930 . S
H695 C637 0.930 . S
H696 C639 0.930 . S
H697 C641 0.929 . S
H698 C642 0.930 . S
H699 C643 0.930 . S
H700 C646 0.930 . S
H701 C649 0.929 . S
H702 C654 0.929 . S
H703 C655 0.930 . S
H704 C662 0.929 . S
H705 C663 0.930 . S
H706 C664 0.930 1_556 S
H707 C665 0.930 . S
H708 C667 0.929 . S
H709 C668 0.930 . S
H710 C669 0.930 . S
H711 C670 0.930 . S
H712 C674 0.929 . S
H713 C676 0.930 . S
H714 C682 0.929 . S
H715 C683 0.930 . S
Li716 N733 1.990 . S
Li716 O776 1.956 . S
Li716 O777 1.970 . S
Li716 O778 1.961 . S
Li717 N741 1.990 . S
Li717 O776 1.970 . S
Li717 O777 1.956 . S
Li717 O779 1.961 . S
Li718 N763 1.990 . S
Li718 O776 1.961 . S
Li718 O778 1.956 . S
Li718 O779 1.970 . S
Li719 N769 1.990 . S
Li719 O777 1.961 . S
Li719 O778 1.970 . S
Li719 O779 1.956 . S
C720 C722 1.348 . S
C720 C723 1.356 . S
C720 O776 1.325 . S
N721 C724 1.314 . S
N721 C725 1.279 . S
C722 C720 1.348 . S
C722 C724 1.353 . S
C722 H780 0.929 . S
C723 C720 1.356 . S
C723 C725 1.358 . S
C723 H781 0.930 . S
C724 N721 1.314 . S
C724 C722 1.353 . S
C724 H782 0.930 . S
C725 N721 1.279 . S
C725 C723 1.358 . S
C725 H783 0.930 . S
C726 C729 1.348 . S
C726 C730 1.356 . S
C726 O777 1.325 . S
C727 N728 1.279 . S
C727 C730 1.358 . S
C727 H784 0.930 . S
N728 C727 1.279 . S
N728 C731 1.314 . S
C729 C726 1.348 . S
C729 C731 1.353 . S
C729 H785 0.929 . S
C730 C726 1.356 . S
C730 C727 1.358 . S
C730 H786 0.930 . S
C731 N728 1.314 . S
C731 C729 1.353 . S
C731 H787 0.930 . S
C732 N733 1.314 . S
C732 C737 1.353 . S
C732 H738 0.930 . S
N733 Li716 1.990 . S
N733 C732 1.314 . S
N733 C735 1.279 . S
C734 C735 1.358 . S
C734 C736 1.356 . S
C734 H788 0.930 . S
C735 N733 1.279 . S
C735 C734 1.358 . S
C735 H739 0.930 . S
C736 C734 1.356 . S
C736 C737 1.348 . S
C737 C732 1.353 . S
C737 C736 1.348 . S
C737 H789 0.929 . S
H738 C732 0.930 . S
H739 C735 0.930 . S
C740 N741 1.314 . S
C740 C742 1.353 . S
C740 H746 0.930 . S
N741 Li717 1.990 . S
N741 C740 1.314 . S
N741 C744 1.279 . S
C742 C740 1.353 . S
C742 C745 1.348 . S
C742 H790 0.929 . S
C743 C744 1.358 . S
C743 C745 1.356 . S
C743 H791 0.930 . S
C744 N741 1.279 . S
C744 C743 1.358 . S
C744 H747 0.930 . S
C745 C742 1.348 . S
C745 C743 1.356 . S
H746 C740 0.930 . S
H747 C744 0.930 . S
C748 C750 1.348 . S
C748 C751 1.356 . S
C748 O778 1.325 . S
N749 C752 1.314 . S
N749 C753 1.279 . S
C750 C748 1.348 . S
C750 C752 1.353 . S
C750 H792 0.929 . S
C751 C748 1.356 . S
C751 C753 1.358 . S
C751 H793 0.930 . S
C752 N749 1.314 . S
C752 C750 1.353 . S
C752 H794 0.930 . S
C753 N749 1.279 . S
C753 C751 1.358 . S
C753 H795 0.930 . S
C754 C755 1.348 . S
C754 C756 1.356 . S
C754 O779 1.325 . S
C755 C754 1.348 . S
C755 C757 1.353 . S
C755 H796 0.929 . S
C756 C754 1.356 . S
C756 C758 1.358 . S
C756 H797 0.930 . S
C757 C755 1.353 . S
C757 N759 1.314 . S
C757 H798 0.930 . S
C758 C756 1.358 . S
C758 N759 1.279 . S
C758 H799 0.930 . S
N759 C757 1.314 . S
N759 C758 1.279 . S
C760 C762 1.353 . S
C760 N763 1.314 . S
C760 H766 0.930 . S
C761 N763 1.279 . S
C761 C764 1.358 . S
C761 H767 0.930 . S
C762 C760 1.353 . S
C762 C765 1.348 . S
C762 H800 0.929 . S
N763 Li718 1.990 . S
N763 C760 1.314 . S
N763 C761 1.279 . S
C764 C761 1.358 . S
C764 C765 1.356 . S
C764 H801 0.930 . S
C765 C762 1.348 . S
C765 C764 1.356 . S
H766 C760 0.930 . S
H767 C761 0.930 . S
C768 N769 1.314 . S
C768 C770 1.353 . S
C768 H774 0.930 . S
N769 Li719 1.990 . S
N769 C768 1.314 . S
N769 C772 1.279 . S
C770 C768 1.353 . S
C770 C773 1.348 . S
C770 H802 0.929 . S
C771 C772 1.358 . S
C771 C773 1.356 . S
C771 H803 0.930 . S
C772 N769 1.279 . S
C772 C771 1.358 . S
C772 H775 0.930 . S
C773 C770 1.348 . S
C773 C771 1.356 . S
H774 C768 0.930 . S
H775 C772 0.930 . S
O776 Li716 1.956 . S
O776 Li717 1.970 . S
O776 Li718 1.961 . S
O776 C720 1.325 . S
O777 Li716 1.970 . S
O777 Li717 1.956 . S
O777 Li719 1.961 . S
O777 C726 1.325 . S
O778 Li716 1.961 . S
O778 Li718 1.956 . S
O778 Li719 1.970 . S
O778 C748 1.325 . S
O779 Li717 1.961 . S
O779 Li718 1.970 . S
O779 Li719 1.956 . S
O779 C754 1.325 . S
H780 C722 0.929 . S
H781 C723 0.930 . S
H782 C724 0.930 . S
H783 C725 0.930 . S
H784 C727 0.930 . S
H785 C729 0.929 . S
H786 C730 0.930 . S
H787 C731 0.930 . S
H788 C734 0.930 . S
H789 C737 0.929 . S
H790 C742 0.929 . S
H791 C743 0.930 . S
H792 C750 0.929 . S
H793 C751 0.930 . S
H794 C752 0.930 . S
H795 C753 0.930 . S
H796 C755 0.929 . S
H797 C756 0.930 . S
H798 C757 0.930 . S
H799 C758 0.930 . S
H800 C762 0.929 . S
H801 C764 0.930 . S
H802 C770 0.929 . S
H803 C771 0.930 . S
C804 C805 1.369 . S
C804 C806 1.419 . S
C804 H808 0.930 . S
C805 C804 1.369 . S
C805 C814 1.429 . S
C806 C804 1.419 . S
C806 C807 1.363 . S
C806 H809 0.929 . S
C807 C806 1.363 . S
C807 C813 1.428 . S
H808 C804 0.930 . S
H809 C806 0.929 . S
S810 N811 1.613 . S
S810 N812 1.610 . S
N811 S810 1.613 . S
N811 C814 1.350 . S
N812 S810 1.610 . S
N812 C813 1.351 . S
C813 C807 1.428 . S
C813 N812 1.351 . S
C813 C814 1.434 . S
C814 C805 1.429 . S
C814 N811 1.350 . S
C814 C813 1.434 . S
C815 C816 1.369 . S
C815 C817 1.419 . S
C815 H819 0.930 . S
C816 C815 1.369 . S
C816 C825 1.429 . S
C817 C815 1.419 . S
C817 C818 1.363 . S
C817 H820 0.929 . S
C818 C817 1.363 . S
C818 C824 1.428 . S
H819 C815 0.930 . S
H820 C817 0.929 . S
S821 N822 1.613 . S
S821 N823 1.610 . S
N822 S821 1.613 . S
N822 C825 1.350 . S
N823 S821 1.610 . S
N823 C824 1.351 . S
C824 C818 1.428 . S
C824 N823 1.351 . S
C824 C825 1.434 . S
C825 C816 1.429 . S
C825 N822 1.350 . S
C825 C824 1.434 . S
C826 C827 1.369 . S
C826 C828 1.419 . S
C826 H830 0.930 . S
C827 C826 1.369 . S
C827 C836 1.429 . S
C828 C826 1.419 . S
C828 C829 1.363 . S
C828 H831 0.929 . S
C829 C828 1.363 . S
C829 C835 1.428 . S
H830 C826 0.930 . S
H831 C828 0.929 . S
S832 N833 1.613 . S
S832 N834 1.610 . S
N833 S832 1.613 . S
N833 C836 1.350 . S
N834 S832 1.610 . S
N834 C835 1.351 . S
C835 C829 1.428 . S
C835 N834 1.351 . S
C835 C836 1.434 . S
C836 C827 1.429 . S
C836 N833 1.350 . S
C836 C835 1.434 . S
C837 C838 1.369 . S
C837 C839 1.419 . S
C837 H841 0.930 . S
C838 C837 1.369 . S
C838 C847 1.429 . S
C839 C837 1.419 . S
C839 C840 1.363 . S
C839 H842 0.929 . S
C840 C839 1.363 . S
C840 C846 1.428 . S
H841 C837 0.930 . S
H842 C839 0.929 . S
S843 N844 1.613 . S
S843 N845 1.610 . S
N844 S843 1.613 . S
N844 C847 1.350 . S
N845 S843 1.610 . S
N845 C846 1.351 . S
C846 C840 1.428 . S
C846 N845 1.351 . S
C846 C847 1.434 . S
C847 C838 1.429 . S
C847 N844 1.350 . S
C847 C846 1.434 . S
C848 C849 1.369 . S
C848 C850 1.419 . S
C848 H852 0.930 . S
C849 C848 1.369 . S
C849 C858 1.429 . S
C850 C848 1.419 . S
C850 C851 1.363 . S
C850 H853 0.929 . S
C851 C850 1.363 . S
C851 C857 1.428 . S
H852 C848 0.930 . S
H853 C850 0.929 . S
S854 N855 1.613 1_554 S
S854 N856 1.610 1_554 S
N855 S854 1.613 1_556 S
N855 C858 1.350 . S
N856 S854 1.610 1_556 S
N856 C857 1.351 . S
C857 C851 1.428 . S
C857 N856 1.351 . S
C857 C858 1.434 . S
C858 C849 1.429 . S
C858 N855 1.350 . S
C858 C857 1.434 . S
C859 C860 1.369 . S
C859 C861 1.419 . S
C859 H863 0.930 . S
C860 C859 1.369 . S
C860 C869 1.429 . S
C861 C859 1.419 . S
C861 C862 1.363 . S
C861 H864 0.929 . S
C862 C861 1.363 . S
C862 C868 1.428 . S
H863 C859 0.930 . S
H864 C861 0.929 . S
S865 N866 1.613 . S
S865 N867 1.610 . S
N866 S865 1.613 . S
N866 C869 1.350 . S
N867 S865 1.610 . S
N867 C868 1.351 . S
C868 C862 1.428 . S
C868 N867 1.351 . S
C868 C869 1.434 . S
C869 C860 1.429 . S
C869 N866 1.350 . S
C869 C868 1.434 . S
C870 C871 1.369 . S
C870 C872 1.419 . S
C870 H874 0.930 . S
C871 C870 1.369 . S
C871 C880 1.429 . S
C872 C870 1.419 . S
C872 C873 1.363 . S
C872 H875 0.929 . S
C873 C872 1.363 . S
C873 C879 1.428 . S
H874 C870 0.930 . S
H875 C872 0.929 . S
S876 N877 1.613 . S
S876 N878 1.610 . S
N877 S876 1.613 . S
N877 C880 1.350 . S
N878 S876 1.610 . S
N878 C879 1.351 . S
C879 C873 1.428 . S
C879 N878 1.351 . S
C879 C880 1.434 . S
C880 C871 1.429 . S
C880 N877 1.350 . S
C880 C879 1.434 . S
C881 C882 1.369 . S
C881 C883 1.419 . S
C881 H885 0.930 . S
C882 C881 1.369 . S
C882 C891 1.429 . S
C883 C881 1.419 . S
C883 C884 1.363 . S
C883 H886 0.929 . S
C884 C883 1.363 . S
C884 C890 1.428 . S
H885 C881 0.930 . S
H886 C883 0.929 . S
S887 N888 1.613 . S
S887 N889 1.610 . S
N888 S887 1.613 . S
N888 C891 1.350 . S
N889 S887 1.610 . S
N889 C890 1.351 . S
C890 C884 1.428 . S
C890 N889 1.351 . S
C890 C891 1.434 . S
C891 C882 1.429 . S
C891 N888 1.350 . S
C891 C890 1.434 . S
C892 C893 1.369 . S
C892 C894 1.419 . S
C892 H896 0.930 . S
C893 C892 1.369 . S
C893 C902 1.429 . S
C894 C892 1.419 . S
C894 C895 1.363 . S
C894 H897 0.929 . S
C895 C894 1.363 . S
C895 C901 1.428 . S
H896 C892 0.930 . S
H897 C894 0.929 . S
S898 N899 1.613 . S
S898 N900 1.610 . S
N899 S898 1.613 . S
N899 C902 1.350 . S
N900 S898 1.610 . S
N900 C901 1.351 . S
C901 C895 1.428 . S
C901 N900 1.351 . S
C901 C902 1.434 . S
C902 C893 1.429 . S
C902 N899 1.350 . S
C902 C901 1.434 . S
C903 C904 1.369 . S
C903 C905 1.419 . S
C903 H907 0.930 . S
C904 C903 1.369 . S
C904 C913 1.429 . S
C905 C903 1.419 . S
C905 C906 1.363 . S
C905 H908 0.929 . S
C906 C905 1.363 . S
C906 C912 1.428 . S
H907 C903 0.930 . S
H908 C905 0.929 . S
S909 N910 1.613 . S
S909 N911 1.610 . S
N910 S909 1.613 . S
N910 C913 1.350 . S
N911 S909 1.610 . S
N911 C912 1.351 . S
C912 C906 1.428 . S
C912 N911 1.351 . S
C912 C913 1.434 . S
C913 C904 1.429 . S
C913 N910 1.350 . S
C913 C912 1.434 . S
C914 C915 1.369 . S
C914 C916 1.419 . S
C914 H918 0.930 . S
C915 C914 1.369 . S
C915 C924 1.429 . S
C916 C914 1.419 . S
C916 C917 1.363 . S
C916 H919 0.929 . S
C917 C916 1.363 . S
C917 C923 1.428 . S
H918 C914 0.930 . S
H919 C916 0.929 . S
S920 N921 1.613 . S
S920 N922 1.610 . S
N921 S920 1.613 . S
N921 C924 1.350 . S
N922 S920 1.610 . S
N922 C923 1.351 . S
C923 C917 1.428 . S
C923 N922 1.351 . S
C923 C924 1.434 . S
C924 C915 1.429 . S
C924 N921 1.350 . S
C924 C923 1.434 . S
C925 C926 1.369 . S
C925 C927 1.419 . S
C925 H929 0.930 . S
C926 C925 1.369 . S
C926 C935 1.429 . S
C927 C925 1.419 . S
C927 C928 1.363 . S
C927 H930 0.929 . S
C928 C927 1.363 . S
C928 C934 1.428 . S
H929 C925 0.930 . S
H930 C927 0.929 . S
S931 N932 1.613 . S
S931 N933 1.610 . S
N932 S931 1.613 . S
N932 C935 1.350 . S
N933 S931 1.610 . S
N933 C934 1.351 . S
C934 C928 1.428 . S
C934 N933 1.351 . S
C934 C935 1.434 . S
C935 C926 1.429 . S
C935 N932 1.350 . S
C935 C934 1.434 . S
C936 C937 1.369 . S
C936 C938 1.419 . S
C936 H940 0.930 . S
C937 C936 1.369 . S
C937 C946 1.429 . S
C938 C936 1.419 . S
C938 C939 1.363 . S
C938 H941 0.929 . S
C939 C938 1.363 . S
C939 C945 1.428 . S
H940 C936 0.930 . S
H941 C938 0.929 . S
S942 N943 1.613 . S
S942 N944 1.610 . S
N943 S942 1.613 . S
N943 C946 1.350 . S
N944 S942 1.610 . S
N944 C945 1.351 . S
C945 C939 1.428 . S
C945 N944 1.351 . S
C945 C946 1.434 . S
C946 C937 1.429 . S
C946 N943 1.350 . S
C946 C945 1.434 . S
C947 C948 1.369 . S
C947 C949 1.419 . S
C947 H951 0.930 . S
C948 C947 1.369 . S
C948 C957 1.429 . S
C949 C947 1.419 . S
C949 C950 1.363 . S
C949 H952 0.929 . S
C950 C949 1.363 . S
C950 C956 1.428 . S
H951 C947 0.930 . S
H952 C949 0.929 . S
S953 N954 1.613 . S
S953 N955 1.610 . S
N954 S953 1.613 . S
N954 C957 1.350 . S
N955 S953 1.610 . S
N955 C956 1.351 . S
C956 C950 1.428 . S
C956 N955 1.351 . S
C956 C957 1.434 . S
C957 C948 1.429 . S
C957 N954 1.350 . S
C957 C956 1.434 . S
C958 C959 1.369 . S
C958 C960 1.419 . S
C958 H962 0.930 . S
C959 C958 1.369 . S
C959 C968 1.429 . S
C960 C958 1.419 . S
C960 C961 1.363 . S
C960 H963 0.929 . S
C961 C960 1.363 . S
C961 C967 1.428 . S
H962 C958 0.930 . S
H963 C960 0.929 . S
S964 N965 1.613 . S
S964 N966 1.610 . S
N965 S964 1.613 . S
N965 C968 1.350 . S
N966 S964 1.610 . S
N966 C967 1.351 . S
C967 C961 1.428 . S
C967 N966 1.351 . S
C967 C968 1.434 . S
C968 C959 1.429 . S
C968 N965 1.350 . S
C968 C967 1.434 . S
C969 C970 1.369 . S
C969 C971 1.419 . S
C969 H973 0.930 . S
C970 C969 1.369 . S
C970 C979 1.429 . S
C971 C969 1.419 . S
C971 C972 1.363 . S
C971 H974 0.929 . S
C972 C971 1.363 . S
C972 C978 1.428 . S
H973 C969 0.930 . S
H974 C971 0.929 . S
S975 N976 1.613 . S
S975 N977 1.610 . S
N976 S975 1.613 . S
N976 C979 1.350 . S
N977 S975 1.610 . S
N977 C978 1.351 . S
C978 C972 1.428 . S
C978 N977 1.351 . S
C978 C979 1.434 . S
C979 C970 1.429 . S
C979 N976 1.350 . S
C979 C978 1.434 . S
C980 C981 1.369 . S
C980 C982 1.419 . S
C980 H984 0.930 . S
C981 C980 1.369 . S
C981 C990 1.429 . S
C982 C980 1.419 . S
C982 C983 1.363 . S
C982 H985 0.929 . S
C983 C982 1.363 . S
C983 C989 1.428 . S
H984 C980 0.930 . S
H985 C982 0.929 . S
S986 N987 1.613 . S
S986 N988 1.610 . S
N987 S986 1.613 . S
N987 C990 1.350 . S
N988 S986 1.610 . S
N988 C989 1.351 . S
C989 C983 1.428 . S
C989 N988 1.351 . S
C989 C990 1.434 . S
C990 C981 1.429 . S
C990 N987 1.350 . S
C990 C989 1.434 . S
C991 C992 1.369 . S
C991 C993 1.419 . S
C991 H995 0.930 . S
C992 C991 1.369 . S
C992 C1001 1.429 . S
C993 C991 1.419 . S
C993 C994 1.363 . S
C993 H996 0.929 . S
C994 C993 1.363 . S
C994 C1000 1.428 . S
H995 C991 0.930 . S
H996 C993 0.929 . S
S997 N998 1.613 . S
S997 N999 1.610 . S
N998 S997 1.613 . S
N998 C1001 1.350 . S
N999 S997 1.610 . S
N999 C1000 1.351 . S
C1000 C994 1.428 . S
C1000 N999 1.351 . S
C1000 C1001 1.434 . S
C1001 C992 1.429 . S
C1001 N998 1.350 . S
C1001 C1000 1.434 . S
C1002 C1003 1.369 . S
C1002 C1004 1.419 . S
C1002 H1006 0.930 . S
C1003 C1002 1.369 . S
C1003 C1012 1.429 . S
C1004 C1002 1.419 . S
C1004 C1005 1.363 . S
C1004 H1007 0.929 . S
C1005 C1004 1.363 . S
C1005 C1011 1.428 . S
H1006 C1002 0.930 . S
H1007 C1004 0.929 . S
S1008 N1009 1.613 . S
S1008 N1010 1.610 . S
N1009 S1008 1.613 . S
N1009 C1012 1.350 . S
N1010 S1008 1.610 . S
N1010 C1011 1.351 . S
C1011 C1005 1.428 . S
C1011 N1010 1.351 . S
C1011 C1012 1.434 . S
C1012 C1003 1.429 . S
C1012 N1009 1.350 . S
C1012 C1011 1.434 . S
C1013 C1014 1.369 . S
C1013 C1015 1.419 . S
C1013 H1017 0.930 . S
C1014 C1013 1.369 . S
C1014 C1023 1.429 . S
C1015 C1013 1.419 . S
C1015 C1016 1.363 . S
C1015 H1018 0.929 . S
C1016 C1015 1.363 . S
C1016 C1022 1.428 . S
H1017 C1013 0.930 . S
H1018 C1015 0.929 . S
S1019 N1020 1.613 . S
S1019 N1021 1.610 . S
N1020 S1019 1.613 . S
N1020 C1023 1.350 . S
N1021 S1019 1.610 . S
N1021 C1022 1.351 . S
C1022 C1016 1.428 . S
C1022 N1021 1.351 . S
C1022 C1023 1.434 . S
C1023 C1014 1.429 . S
C1023 N1020 1.350 . S
C1023 C1022 1.434 . S
C1024 C1025 1.369 . S
C1024 C1026 1.419 . S
C1024 H1028 0.930 . S
C1025 C1024 1.369 . S
C1025 C1034 1.429 . S
C1026 C1024 1.419 . S
C1026 C1027 1.363 . S
C1026 H1029 0.929 . S
C1027 C1026 1.363 . S
C1027 C1033 1.428 . S
H1028 C1024 0.930 . S
H1029 C1026 0.929 . S
S1030 N1031 1.613 . S
S1030 N1032 1.610 . S
N1031 S1030 1.613 . S
N1031 C1034 1.350 . S
N1032 S1030 1.610 . S
N1032 C1033 1.351 . S
C1033 C1027 1.428 . S
C1033 N1032 1.351 . S
C1033 C1034 1.434 . S
C1034 C1025 1.429 . S
C1034 N1031 1.350 . S
C1034 C1033 1.434 . S
C1035 C1036 1.369 . S
C1035 C1037 1.419 . S
C1035 H1039 0.930 . S
C1036 C1035 1.369 . S
C1036 C1045 1.429 . S
C1037 C1035 1.419 . S
C1037 C1038 1.363 . S
C1037 H1040 0.929 . S
C1038 C1037 1.363 . S
C1038 C1044 1.428 . S
H1039 C1035 0.930 . S
H1040 C1037 0.929 . S
S1041 N1042 1.613 . S
S1041 N1043 1.610 . S
N1042 S1041 1.613 . S
N1042 C1045 1.350 . S
N1043 S1041 1.610 . S
N1043 C1044 1.351 . S
C1044 C1038 1.428 . S
C1044 N1043 1.351 . S
C1044 C1045 1.434 . S
C1045 C1036 1.429 . S
C1045 N1042 1.350 . S
C1045 C1044 1.434 . S
C1046 C1047 1.369 . S
C1046 C1048 1.419 . S
C1046 H1050 0.930 . S
C1047 C1046 1.369 . S
C1047 C1056 1.429 . S
C1048 C1046 1.419 . S
C1048 C1049 1.363 . S
C1048 H1051 0.929 . S
C1049 C1048 1.363 . S
C1049 C1055 1.428 . S
H1050 C1046 0.930 . S
H1051 C1048 0.929 . S
S1052 N1053 1.613 . S
S1052 N1054 1.610 . S
N1053 S1052 1.613 . S
N1053 C1056 1.350 . S
N1054 S1052 1.610 . S
N1054 C1055 1.351 . S
C1055 C1049 1.428 . S
C1055 N1054 1.351 . S
C1055 C1056 1.434 . S
C1056 C1047 1.429 . S
C1056 N1053 1.350 . S
C1056 C1055 1.434 . S
C1057 C1058 1.369 . S
C1057 C1059 1.419 . S
C1057 H1061 0.930 . S
C1058 C1057 1.369 . S
C1058 C1067 1.429 . S
C1059 C1057 1.419 . S
C1059 C1060 1.363 . S
C1059 H1062 0.929 . S
C1060 C1059 1.363 . S
C1060 C1066 1.428 . S
H1061 C1057 0.930 . S
H1062 C1059 0.929 . S
S1063 N1064 1.613 . S
S1063 N1065 1.610 . S
N1064 S1063 1.613 . S
N1064 C1067 1.350 . S
N1065 S1063 1.610 . S
N1065 C1066 1.351 . S
C1066 C1060 1.428 . S
C1066 N1065 1.351 . S
C1066 C1067 1.434 . S
C1067 C1058 1.429 . S
C1067 N1064 1.350 . S
C1067 C1066 1.434 . S
C807 C745 1.749 . S
C805 C15 1.715 . S
C816 C61 1.717 . S
C818 C305 1.749 . S
C827 C114 1.708 . S
C829 C393 1.754 . S
C838 C139 1.738 . S
C840 C472 1.754 . S
C851 C569 1.754 . S
C849 C185 1.737 . S
C860 C245 1.710 . S
C862 C648 1.754 . S
C871 C47 1.735 . S
C873 C413 1.754 . S
C882 C100 1.740 . S
C884 C509 1.751 . S
C893 C153 1.709 . S
C895 C589 1.753 . S
C906 C685 1.749 . S
C904 C199 1.717 . S
C917 C765 1.753 . S
C915 C231 1.737 . S
C928 C325 1.751 . S
C926 C1 1.744 . S
C937 C22 1.490 . S
C939 C421 1.486 . S
C948 C68 1.491 . S
C950 C501 1.485 . S
C961 C597 1.487 . S
C959 C107 1.489 . S
C970 C146 1.496 . S
C972 C677 1.487 . S
C983 C773 1.488 . S
C981 C192 1.493 . S
C994 C333 1.489 . S
C992 C252 1.487 . S
C1005 C736 1.487 . S
C1003 C54 1.496 . S
C1014 C93 1.496 . S
C1016 C296 1.485 . S
C1027 C384 1.485 . S
C1025 C160 1.491 . S
C1036 C206 1.488 . S
C1038 C481 1.489 . S
C1047 C238 1.495 . S
C1049 C560 1.489 . S
C1058 C8 1.494 . S
C1060 C657 1.489 . S
