# Generated by pormake.
# Topology csq, (4,8)-cn, num edge types: 1
# Building blocks:
#     Node 0, Type 0, BuildingBlock: MIFKUJ_clean_linker_1, # of connection points: 4
#     Node 1, Type 0, BuildingBlock: MIFKUJ_clean_linker_1, # of connection points: 4
#     Node 2, Type 0, BuildingBlock: MIFKUJ_clean_linker_1, # of connection points: 4
#     Node 3, Type 0, BuildingBlock: MIFKUJ_clean_linker_1, # of connection points: 4
#     Node 4, Type 0, BuildingBlock: MIFKUJ_clean_linker_1, # of connection points: 4
#     Node 5, Type 0, BuildingBlock: MIFKUJ_clean_linker_1, # of connection points: 4
#     Node 6, Type 1, BuildingBlock: TAGTUT_clean_sbu_1, # of connection points: 8
#     Node 7, Type 1, BuildingBlock: TAGTUT_clean_sbu_1, # of connection points: 8
#     Node 8, Type 1, BuildingBlock: TAGTUT_clean_sbu_1, # of connection points: 8
#     Edge 9, Type (0, 1), BuildingBlock: UVAHIK_clean_linker_0, # of connection points: 2
#     Edge 10, Type (0, 1), BuildingBlock: UVAHIK_clean_linker_0, # of connection points: 2
#     Edge 11, Type (0, 1), BuildingBlock: UVAHIK_clean_linker_0, # of connection points: 2
#     Edge 12, Type (0, 1), BuildingBlock: UVAHIK_clean_linker_0, # of connection points: 2
#     Edge 13, Type (0, 1), BuildingBlock: UVAHIK_clean_linker_0, # of connection points: 2
#     Edge 14, Type (0, 1), BuildingBlock: UVAHIK_clean_linker_0, # of connection points: 2
#     Edge 15, Type (0, 1), BuildingBlock: UVAHIK_clean_linker_0, # of connection points: 2
#     Edge 16, Type (0, 1), BuildingBlock: UVAHIK_clean_linker_0, # of connection points: 2
#     Edge 17, Type (0, 1), BuildingBlock: UVAHIK_clean_linker_0, # of connection points: 2
#     Edge 18, Type (0, 1), BuildingBlock: UVAHIK_clean_linker_0, # of connection points: 2
#     Edge 19, Type (0, 1), BuildingBlock: UVAHIK_clean_linker_0, # of connection points: 2
#     Edge 20, Type (0, 1), BuildingBlock: UVAHIK_clean_linker_0, # of connection points: 2
#     Edge 21, Type (0, 1), BuildingBlock: UVAHIK_clean_linker_0, # of connection points: 2
#     Edge 22, Type (0, 1), BuildingBlock: UVAHIK_clean_linker_0, # of connection points: 2
#     Edge 23, Type (0, 1), BuildingBlock: UVAHIK_clean_linker_0, # of connection points: 2
#     Edge 24, Type (0, 1), BuildingBlock: UVAHIK_clean_linker_0, # of connection points: 2
#     Edge 25, Type (0, 1), BuildingBlock: UVAHIK_clean_linker_0, # of connection points: 2
#     Edge 26, Type (0, 1), BuildingBlock: UVAHIK_clean_linker_0, # of connection points: 2
#     Edge 27, Type (0, 1), BuildingBlock: UVAHIK_clean_linker_0, # of connection points: 2
#     Edge 28, Type (0, 1), BuildingBlock: UVAHIK_clean_linker_0, # of connection points: 2
#     Edge 29, Type (0, 1), BuildingBlock: UVAHIK_clean_linker_0, # of connection points: 2
#     Edge 30, Type (0, 1), BuildingBlock: UVAHIK_clean_linker_0, # of connection points: 2
#     Edge 31, Type (0, 1), BuildingBlock: UVAHIK_clean_linker_0, # of connection points: 2
#     Edge 32, Type (0, 1), BuildingBlock: UVAHIK_clean_linker_0, # of connection points: 2
# Relax obj value: 0.033
# Max RMSD: 0.129
# Mean RMSD: 0.058
data_MOF--net-csq--node1-TAGTUT_clean_sbu_1--node2-MIFKUJ_clean_linker_1--edge1-UVAHIK_clean_linker_0
_symmetry_space_group_name_H-M    P1
_symmetry_Int_Tables_number       1
_symmetry_cell_setting            triclinic
loop_
_symmetry_equiv_pos_as_xyz
'x, y, z'
_cell_length_a     76.784959
_cell_length_b     75.816935
_cell_length_c     27.004386
_cell_angle_alpha  92.710168
_cell_angle_beta   91.640834
_cell_angle_gamma 119.93125
loop_
_atom_site_label
_atom_site_type_symbol
_atom_site_fract_x
_atom_site_fract_y
_atom_site_fract_z
_atom_type_partial_charge
H0 H 0.24308 0.45112 0.22498 0.0
H1 H 0.26575 0.45001 0.28815 0.0
H2 H 0.31521 0.50456 0.23577 0.0
H3 H 0.29219 0.50658 0.17597 0.0
H4 H 0.23305 0.4782 0.22685 0.0
H5 H 0.26214 0.45605 0.09506 0.0
H6 H 0.28757 0.45623 0.04155 0.0
H7 H 0.30912 0.51958 0.0175 0.0
H8 H 0.28381 0.51931 0.07075 0.0
H9 H 0.23684 0.52698 0.06699 0.0
H10 H 0.21622 0.53384 0.00921 0.0
H11 H 0.16423 0.47612 0.03673 0.0
H12 H 0.18493 0.46944 0.09487 0.0
H13 H 0.24372 0.49613 0.05201 0.0
H14 H 0.21701 0.51982 0.17986 0.0
H15 H 0.19309 0.52266 0.23251 0.0
H16 H 0.16864 0.45975 0.26642 0.0
H17 H 0.19287 0.45715 0.2142 0.0
C18 C 0.26588 0.47888 0.19544 0.0
C19 C 0.25887 0.46271 0.22679 0.0
C20 C 0.27191 0.46202 0.26274 0.0
C21 C 0.29229 0.47738 0.26766 0.0
C22 C 0.29951 0.49276 0.23395 0.0
C23 C 0.2864 0.49368 0.19877 0.0
C24 C 0.25138 0.48189 0.16473 0.0
C25 C 0.23509 0.48157 0.18814 0.0
C26 C 0.25455 0.48727 0.11497 0.0
C27 C 0.2711 0.48767 0.08692 0.0
C28 C 0.27254 0.47003 0.0788 0.0
C29 C 0.28696 0.47012 0.04796 0.0
C30 C 0.3003 0.48791 0.02524 0.0
C31 C 0.29919 0.5057 0.03478 0.0
C32 C 0.28467 0.50553 0.06501 0.0
C33 C 0.21239 0.49772 0.08515 0.0
C34 C 0.22093 0.51595 0.06106 0.0
C35 C 0.20918 0.51979 0.02788 0.0
C36 C 0.18868 0.50542 0.01804 0.0
C37 C 0.17996 0.48756 0.04387 0.0
C38 C 0.19174 0.48372 0.07713 0.0
C39 C 0.22556 0.49247 0.11424 0.0
C40 C 0.24152 0.49237 0.09047 0.0
C41 C 0.22224 0.48697 0.1638 0.0
C42 C 0.2066 0.4882 0.19255 0.0
C43 C 0.20628 0.50654 0.19797 0.0
C44 C 0.19258 0.50814 0.22823 0.0
C45 C 0.1789 0.49143 0.25387 0.0
C46 C 0.17914 0.47301 0.24791 0.0
C47 C 0.19288 0.47145 0.21773 0.0
H48 H 0.78388 0.26828 0.0085 0.0
H49 H 0.81093 0.29296 0.9603 0.0
H50 H 0.85499 0.29024 0.05759 0.0
H51 H 0.82797 0.26497 0.10437 0.0
H52 H 0.76983 0.23023 0.03198 0.0
H53 H 0.79799 0.29489 0.12372 0.0
H54 H 0.8274 0.3272 0.15517 0.0
H55 H 0.84622 0.29441 0.24909 0.0
H56 H 0.81696 0.26213 0.21686 0.0
H57 H 0.76518 0.20751 0.2308 0.0
H58 H 0.74225 0.18773 0.29286 0.0
H59 H 0.69389 0.19046 0.21404 0.0
H60 H 0.71739 0.21171 0.15474 0.0
H61 H 0.77557 0.24658 0.21395 0.0
H62 H 0.75296 0.18382 0.07662 0.0
H63 H 0.72611 0.15534 0.02349 0.0
H64 H 0.69412 0.18855 0.01391 0.0
H65 H 0.72122 0.21713 0.06524 0.0
C66 C 0.80391 0.26507 0.06064 0.0
C67 C 0.79933 0.2727 0.01889 0.0
C68 C 0.81476 0.28681 0.99151 0.0
C69 C 0.83499 0.29363 0.00576 0.0
C70 C 0.83951 0.28543 0.04639 0.0
C71 C 0.82409 0.27105 0.07312 0.0
C72 C 0.78777 0.25175 0.09282 0.0
C73 C 0.77104 0.23387 0.07173 0.0
C74 C 0.78905 0.2566 0.1445 0.0
C75 C 0.80545 0.27617 0.16777 0.0
C76 C 0.80839 0.29472 0.1514 0.0
C77 C 0.82514 0.31313 0.16939 0.0
C78 C 0.83918 0.31326 0.20409 0.0
C79 C 0.83581 0.2947 0.22168 0.0
C80 C 0.81901 0.2763 0.20383 0.0
C81 C 0.74295 0.21071 0.18725 0.0
C82 C 0.74958 0.2037 0.22672 0.0
C83 C 0.73636 0.19223 0.26208 0.0
C84 C 0.71608 0.18733 0.25865 0.0
C85 C 0.70941 0.19408 0.21845 0.0
C86 C 0.72276 0.20586 0.18356 0.0
C87 C 0.75775 0.22471 0.15332 0.0
C88 C 0.77433 0.24286 0.17424 0.0
C89 C 0.75594 0.22044 0.10126 0.0
C90 C 0.73868 0.20222 0.07586 0.0
C91 C 0.73995 0.18473 0.06373 0.0
C92 C 0.72477 0.16863 0.03323 0.0
C93 C 0.70809 0.16981 0.01508 0.0
C94 C 0.70672 0.18721 0.02808 0.0
C95 C 0.72207 0.20343 0.05756 0.0
H96 H 0.54891 0.75271 0.96152 0.0
H97 H 0.54552 0.72073 0.92605 0.0
H98 H 0.50574 0.68811 0.04004 0.0
H99 H 0.50854 0.71994 0.07437 0.0
H100 H 0.52397 0.76647 0.97492 0.0
H101 H 0.56548 0.75209 0.0804 0.0
H102 H 0.5707 0.72831 0.12837 0.0
H103 H 0.52795 0.7263 0.23167 0.0
H104 H 0.52219 0.74946 0.18273 0.0
H105 H 0.50956 0.79608 0.15184 0.0
H106 H 0.50892 0.82625 0.18469 0.0
H107 H 0.56173 0.86442 0.10567 0.0
H108 H 0.56151 0.8339 0.07104 0.0
H109 H 0.54293 0.78655 0.15462 0.0
H110 H 0.5003 0.79929 0.04173 0.0
H111 H 0.49662 0.82403 0.99439 0.0
H112 H 0.5451 0.83085 0.90471 0.0
H113 H 0.54933 0.80689 0.95393 0.0
C114 C 0.52921 0.73879 0.02101 0.0
C115 C 0.53927 0.73865 0.97853 0.0
C116 C 0.53738 0.72042 0.95842 0.0
C117 C 0.52552 0.70205 0.98068 0.0
C118 C 0.51521 0.70213 0.02269 0.0
C119 C 0.51681 0.72029 0.04225 0.0
C120 C 0.53206 0.75832 0.04381 0.0
C121 C 0.52833 0.77091 0.01408 0.0
C122 C 0.53784 0.76426 0.09492 0.0
C123 C 0.54312 0.7522 0.12743 0.0
C124 C 0.55726 0.74657 0.11344 0.0
C125 C 0.56027 0.73305 0.14081 0.0
C126 C 0.54962 0.72544 0.18338 0.0
C127 C 0.53641 0.73207 0.19907 0.0
C128 C 0.53314 0.74529 0.17121 0.0
C129 C 0.53558 0.81284 0.10919 0.0
C130 C 0.52108 0.811 0.14207 0.0
C131 C 0.5208 0.8283 0.16088 0.0
C132 C 0.53529 0.84787 0.14793 0.0
C133 C 0.55012 0.84963 0.11578 0.0
C134 C 0.55019 0.83225 0.0964 0.0
C135 C 0.53453 0.7943 0.08585 0.0
C136 C 0.53866 0.78202 0.11546 0.0
C137 C 0.52944 0.78878 0.03458 0.0
C138 C 0.52535 0.80159 0.0019 0.0
C139 C 0.51012 0.80614 0.01185 0.0
C140 C 0.50792 0.82014 0.98446 0.0
C141 C 0.52074 0.82962 0.94617 0.0
C142 C 0.53528 0.82418 0.9347 0.0
C143 C 0.53758 0.81031 0.96237 0.0
H144 H 0.76601 0.49634 0.13909 0.0
H145 H 0.78737 0.49075 0.19724 0.0
H146 H 0.8376 0.54999 0.17165 0.0
H147 H 0.81591 0.55558 0.11353 0.0
H148 H 0.75935 0.52861 0.15902 0.0
H149 H 0.78737 0.50444 0.037 0.0
H150 H 0.81169 0.50246 0.98501 0.0
H151 H 0.82367 0.55859 0.92194 0.0
H152 H 0.80084 0.5615 0.97784 0.0
H153 H 0.75214 0.56696 0.98254 0.0
H154 H 0.72681 0.56714 0.92562 0.0
H155 H 0.68089 0.51177 0.98326 0.0
H156 H 0.70623 0.51117 0.03871 0.0
H157 H 0.76326 0.54003 0.97975 0.0
H158 H 0.73142 0.56129 0.10284 0.0
H159 H 0.70585 0.56029 0.1571 0.0
H160 H 0.69804 0.50473 0.21391 0.0
H161 H 0.72267 0.50506 0.15823 0.0
C162 C 0.78943 0.52636 0.1222 0.0
C163 C 0.78173 0.50796 0.14534 0.0
C164 C 0.79396 0.50476 0.17835 0.0
C165 C 0.8141 0.51999 0.18913 0.0
C166 C 0.82205 0.5381 0.16432 0.0
C167 C 0.80978 0.54124 0.1309 0.0
C168 C 0.77545 0.53066 0.09382 0.0
C169 C 0.75999 0.53093 0.1196 0.0
C170 C 0.777 0.53434 0.04288 0.0
C171 C 0.79248 0.53338 0.01247 0.0
C172 C 0.79572 0.51672 0.01331 0.0
C173 C 0.80938 0.51535 0.98242 0.0
C174 C 0.81973 0.53028 0.94862 0.0
C175 C 0.8164 0.54694 0.94787 0.0
C176 C 0.80309 0.54853 0.9796 0.0
C177 C 0.73106 0.53917 0.01532 0.0
C178 C 0.73658 0.55497 0.98327 0.0
C179 C 0.72217 0.55507 0.95079 0.0
C180 C 0.70198 0.53951 0.95029 0.0
C181 C 0.69634 0.5241 0.9835 0.0
C182 C 0.71079 0.52381 0.01537 0.0
C183 C 0.74676 0.53763 0.04475 0.0
C184 C 0.76267 0.53799 0.01928 0.0
C185 C 0.74538 0.53406 0.09591 0.0
C186 C 0.72903 0.53322 0.12611 0.0
C187 C 0.72391 0.54864 0.12609 0.0
C188 C 0.70941 0.54815 0.1573 0.0
C189 C 0.70018 0.53253 0.1899 0.0
C190 C 0.70513 0.51706 0.18954 0.0
C191 C 0.71923 0.51729 0.15771 0.0
H192 H 0.24005 0.81332 0.99386 0.0
H193 H 0.26359 0.83385 0.93409 0.0
H194 H 0.31092 0.82913 0.01221 0.0
H195 H 0.28677 0.80715 0.06966 0.0
H196 H 0.22679 0.7757 0.00486 0.0
H197 H 0.26295 0.83649 0.12446 0.0
H198 H 0.28955 0.86277 0.18194 0.0
H199 H 0.30138 0.81724 0.23922 0.0
H200 H 0.27463 0.79114 0.18262 0.0
H201 H 0.21692 0.73828 0.18738 0.0
H202 H 0.18887 0.71267 0.23162 0.0
H203 H 0.15043 0.7344 0.17433 0.0
H204 H 0.17842 0.75978 0.12974 0.0
H205 H 0.23523 0.78234 0.18879 0.0
H206 H 0.20243 0.72297 0.07958 0.0
H207 H 0.17282 0.69304 0.03959 0.0
H208 H 0.15624 0.73242 0.96613 0.0
H209 H 0.18598 0.76237 0.00641 0.0
C210 C 0.26157 0.80873 0.03666 0.0
C211 C 0.25552 0.81675 0.99829 0.0
C212 C 0.26913 0.82872 0.96427 0.0
C213 C 0.28928 0.83325 0.96803 0.0
C214 C 0.29548 0.82573 0.00749 0.0
C215 C 0.28173 0.81344 0.04112 0.0
C216 C 0.24624 0.79398 0.06857 0.0
C217 C 0.22863 0.77751 0.04509 0.0
C218 C 0.24885 0.79542 0.12109 0.0
C219 C 0.26686 0.81191 0.1494 0.0
C220 C 0.27157 0.83231 0.14878 0.0
C221 C 0.28674 0.84728 0.18168 0.0
C222 C 0.29736 0.84202 0.21568 0.0
C223 C 0.29317 0.82171 0.21437 0.0
C224 C 0.27803 0.80682 0.18174 0.0
C225 C 0.19966 0.75082 0.15532 0.0
C226 C 0.20251 0.73765 0.1849 0.0
C227 C 0.18649 0.72299 0.20976 0.0
C228 C 0.16753 0.72158 0.20613 0.0
C229 C 0.16493 0.73527 0.1779 0.0
C230 C 0.18085 0.7497 0.15243 0.0
C231 C 0.21592 0.76491 0.12491 0.0
C232 C 0.23357 0.78091 0.14851 0.0
C233 C 0.21367 0.76283 0.07262 0.0
C234 C 0.19624 0.74485 0.0463 0.0
C235 C 0.19235 0.72514 0.05503 0.0
C236 C 0.1754 0.70806 0.03233 0.0
C237 C 0.16213 0.71038 3e-05 0.0
C238 C 0.16628 0.73017 0.99058 0.0
C239 C 0.18323 0.74727 0.0135 0.0
H240 H 0.49351 0.21251 0.14575 0.0
H241 H 0.49473 0.18159 0.12158 0.0
H242 H 0.43293 0.15249 0.06325 0.0
H243 H 0.43182 0.18348 0.08752 0.0
H244 H 0.45825 0.22602 0.06172 0.0
H245 H 0.49421 0.23421 0.25376 0.0
H246 H 0.49903 0.21135 0.30652 0.0
H247 H 0.44022 0.16179 0.2542 0.0
H248 H 0.43533 0.18484 0.20321 0.0
H249 H 0.43519 0.25769 0.22859 0.0
H250 H 0.43493 0.28884 0.25505 0.0
H251 H 0.48714 0.32401 0.17146 0.0
H252 H 0.48776 0.2929 0.1469 0.0
H253 H 0.46396 0.24606 0.242 0.0
H254 H 0.42844 0.25597 0.10179 0.0
H255 H 0.42744 0.28017 0.0463 0.0
H256 H 0.48447 0.29239 0.99167 0.0
H257 H 0.48538 0.26818 0.04718 0.0
C258 C 0.46259 0.20021 0.11822 0.0
C259 C 0.48029 0.19949 0.12747 0.0
C260 C 0.48096 0.18186 0.11374 0.0
C261 C 0.46388 0.16465 0.0909 0.0
C262 C 0.44622 0.16548 0.0814 0.0
C263 C 0.44562 0.18319 0.09466 0.0
C264 C 0.46146 0.21833 0.13588 0.0
C265 C 0.45941 0.23036 0.10105 0.0
C266 C 0.46284 0.2239 0.18714 0.0
C267 C 0.46448 0.21113 0.22454 0.0
C268 C 0.48221 0.21853 0.25474 0.0
C269 C 0.48502 0.20541 0.28431 0.0
C270 C 0.47009 0.18472 0.28417 0.0
C271 C 0.45195 0.17767 0.25558 0.0
C272 C 0.44915 0.19078 0.22624 0.0
C273 C 0.46138 0.27297 0.18549 0.0
C274 C 0.44667 0.27215 0.21638 0.0
C275 C 0.4464 0.28993 0.23092 0.0
C276 C 0.46089 0.30889 0.21492 0.0
C277 C 0.47583 0.30969 0.18464 0.0
C278 C 0.47612 0.2919 0.17029 0.0
C279 C 0.46091 0.25394 0.16777 0.0
C280 C 0.46264 0.24169 0.20264 0.0
C281 C 0.45903 0.24806 0.1165 0.0
C282 C 0.45704 0.26045 0.07861 0.0
C283 C 0.44054 0.26363 0.07723 0.0
C284 C 0.43996 0.27738 0.04553 0.0
C285 C 0.45596 0.2882 0.0151 0.0
C286 C 0.47206 0.28436 0.01517 0.0
C287 C 0.47252 0.27046 0.04647 0.0
C288 C 0.98261 0.45409 0.73308 0.0
C289 C 0.04199 0.49774 0.68407 0.0
C290 C 0.01546 0.55003 0.68196 0.0
Mg291 Mg 0.0007 0.46876 0.63157 0.0
O292 O 0.99231 0.48767 0.64752 0.0
Mg293 Mg 0.00292 0.50424 0.71258 0.0
Mg294 Mg -0.00101 0.51016 0.60325 0.0
O295 O 0.00548 0.53265 0.55893 0.0
Mg296 Mg 0.9974 0.55185 0.5751 0.0
Mg297 Mg 0.99353 0.51538 0.49509 0.0
C298 C 0.98281 0.4705 0.5248 0.0
C299 C 0.03357 0.51388 0.52928 0.0
O300 O 0.98867 0.47274 0.74833 0.0
O301 O 0.98527 0.4491 0.68909 0.0
O302 O 0.03323 0.50545 0.70905 0.0
O303 O 0.03258 0.48357 0.64978 0.0
O304 O 0.98921 0.46165 0.55371 0.0
O305 O 0.98257 0.48677 0.53899 0.0
C306 C 0.96372 0.50651 0.67479 0.0
O307 O 0.97034 0.50962 0.63102 0.0
O308 O 0.97304 0.50361 0.7107 0.0
O309 O 0.00698 0.54619 0.458 0.0
O310 O 0.0117 0.571 0.51523 0.0
O311 O 0.96335 0.51426 0.50176 0.0
C312 C 0.01334 0.56506 0.4712 0.0
O313 O 0.96534 0.53702 0.56042 0.0
O314 O 0.00953 0.55913 0.65252 0.0
C315 C 0.95521 0.52242 0.52757 0.0
O316 O 0.01502 0.53332 0.66847 0.0
O317 O 0.0279 0.51097 0.57409 0.0
O318 O 0.02319 0.5161 0.49475 0.0
C319 C 0.46764 0.01773 0.77539 0.0
C320 C 0.44175 0.96586 0.67036 0.0
C321 C 0.5176 0.98102 0.65398 0.0
Mg322 Mg 0.46319 0.012 0.66019 0.0
O323 O 0.48859 0.01465 0.67115 0.0
Mg324 Mg 0.49021 0.99501 0.71566 0.0
Mg325 Mg 0.50158 0.01037 0.6126 0.0
O326 O 0.51426 0.00591 0.55373 0.0
Mg327 Mg 0.53938 0.00771 0.56264 0.0
Mg328 Mg 0.5122 0.02518 0.50863 0.0
C329 C 0.4854 0.03952 0.57055 0.0
C330 C 0.46698 0.98787 0.52232 0.0
O331 O 0.47772 0.00832 0.776 0.0
O332 O 0.46112 0.02123 0.73489 0.0
O333 O 0.45772 0.96911 0.69473 0.0
O334 O 0.44087 0.98013 0.64923 0.0
O335 O 0.47053 0.03201 0.59893 0.0
O336 O 0.49989 0.03567 0.57437 0.0
C337 C 0.53526 0.03313 0.70453 0.0
O338 O 0.53182 0.03235 0.65734 0.0
O339 O 0.52194 0.02089 0.73246 0.0
O340 O 0.52344 0.01086 0.44779 0.0
O341 O 0.54032 0.99787 0.48748 0.0
O342 O 0.54513 0.05074 0.52746 0.0
C343 C 0.53329 0.00121 0.44758 0.0
O344 O 0.5621 0.03942 0.57145 0.0
O345 O 0.53228 0.98809 0.62496 0.0
C346 C 0.56126 0.05377 0.55062 0.0
O347 O 0.50334 0.9852 0.65045 0.0
O348 O 0.47135 0.98838 0.56884 0.0
O349 O 0.4799 -5e-05 0.49339 0.0
C350 C 0.52679 0.56281 0.47204 0.0
C351 C 0.54837 0.52233 0.50529 0.0
C352 C 0.47113 0.46601 0.52068 0.0
Mg353 Mg 0.53565 0.54789 0.57 0.0
O354 O 0.50822 0.52852 0.55695 0.0
Mg355 Mg 0.50018 0.51261 0.49085 0.0
Mg356 Mg 0.49618 0.5053 0.60032 0.0
O357 O 0.48411 0.48212 0.64399 0.0
Mg358 Mg 0.45676 0.4623 0.63213 0.0
Mg359 Mg 0.4922 0.49819 0.70993 0.0
C360 C 0.5206 0.54491 0.68026 0.0
C361 C 0.53222 0.50332 0.65918 0.0
O362 O 0.51388 0.54424 0.45712 0.0
O363 O 0.5364 0.56772 0.51469 0.0
O364 O 0.53077 0.51419 0.48372 0.0
O365 O 0.5534 0.53473 0.54374 0.0
O366 O 0.5341 0.55472 0.64939 0.0
O367 O 0.50487 0.5276 0.66761 0.0
C368 C 0.45998 0.5071 0.54135 0.0
O369 O 0.4663 0.50403 0.58269 0.0
O370 O 0.47015 0.51107 0.50248 0.0
O371 O 0.47917 0.46672 0.74362 0.0
O372 O 0.45658 0.44262 0.68731 0.0
O373 O 0.46157 0.4967 0.71747 0.0
C374 C 0.46656 0.44798 0.72952 0.0
O375 O 0.43883 0.47494 0.65923 0.0
O376 O 0.45789 0.45622 0.55211 0.0
C377 C 0.44386 0.48797 0.69626 0.0
O378 O 0.4873 0.48301 0.53298 0.0
O379 O 0.52609 0.50641 0.61763 0.0
O380 O 0.52208 0.4997 0.698 0.0
C381 C 0.1553 0.50446 0.2732 0.0
C382 C 0.16457 0.4933 0.28688 0.0
C383 C 0.14194 0.50634 0.30407 0.0
C384 C 0.12587 0.50166 0.43355 0.0
H385 H 0.07934 0.50055 0.37036 0.0
C386 C 0.05852 0.50141 0.53451 0.0
C387 C 0.05217 0.51422 0.51463 0.0
C388 C 0.07358 0.49896 0.51219 0.0
C389 C 0.09233 0.501 0.38859 0.0
H390 H 0.16719 0.47559 0.34449 0.0
H391 H 0.14341 0.47842 0.39776 0.0
H392 H 0.1022 0.49526 0.31975 0.0
H393 H 0.05781 0.53588 0.45895 0.0
H394 H 0.08391 0.53176 0.42075 0.0
H395 H 0.11559 0.50726 0.50268 0.0
C396 C 0.14668 0.48592 0.36331 0.0
C397 C 0.1055 0.49804 0.35954 0.0
C398 C 0.16013 0.48408 0.33241 0.0
C399 C 0.06215 0.52564 0.47468 0.0
C400 C 0.07705 0.52323 0.4526 0.0
C401 C 0.11253 0.5045 0.46281 0.0
C402 C 0.13734 0.497 0.3494 0.0
C403 C 0.12269 0.49876 0.3814 0.0
C404 C 0.08239 0.50929 0.46976 0.0
C405 C 0.09586 0.50464 0.44041 0.0
H406 H 0.15818 0.5116 0.23827 0.0
H407 H 0.1353 0.51527 0.29243 0.0
H408 H 0.139 0.50237 0.45163 0.0
H409 H 0.05102 0.49233 0.56503 0.0
H410 H 0.0775 0.48817 0.52627 0.0
C411 C 0.68705 0.17991 0.31197 0.0
C412 C 0.70215 0.17571 0.29748 0.0
C413 C 0.67398 0.169 0.34824 0.0
C414 C 0.65502 0.12073 0.41152 0.0
H415 H 0.63237 0.14555 0.49759 0.0
C416 C 0.5989 0.07406 0.55249 0.0
C417 C 0.58023 0.07303 0.54421 0.0
C418 C 0.61622 0.08946 0.53307 0.0
C419 C 0.63868 0.13849 0.47395 0.0
H420 H 0.71521 0.15657 0.31056 0.0
H421 H 0.69326 0.13842 0.37535 0.0
H422 H 0.65802 0.16643 0.4414 0.0
H423 H 0.56564 0.0888 0.51434 0.0
H424 H 0.59595 0.11583 0.48127 0.0
H425 H 0.63572 0.09284 0.44422 0.0
C426 C 0.69112 0.14979 0.35776 0.0
C427 C 0.65325 0.15037 0.44139 0.0
C428 C 0.70397 0.16047 0.32094 0.0
C429 C 0.57973 0.08902 0.52099 0.0
C430 C 0.59711 0.10455 0.50209 0.0
C431 C 0.64074 0.10898 0.44454 0.0
C432 C 0.6758 0.15375 0.37167 0.0
C433 C 0.66137 0.14157 0.40906 0.0
C434 C 0.61527 0.10431 0.50576 0.0
C435 C 0.63219 0.11763 0.47556 0.0
H436 H 0.68535 0.19176 0.29559 0.0
H437 H 0.66224 0.17234 0.35724 0.0
H438 H 0.66051 0.11322 0.38669 0.0
H439 H 0.59991 0.06211 0.57053 0.0
H440 H 0.63012 0.08912 0.53708 0.0
C441 C 0.54833 0.69189 0.18312 0.0
C442 C 0.5512 0.70962 0.20967 0.0
C443 C 0.54783 0.67599 0.20827 0.0
C444 C 0.56266 0.66328 0.32525 0.0
H445 H 0.51491 0.61014 0.29795 0.0
C446 C 0.54016 0.59964 0.4586 0.0
C447 C 0.53077 0.57927 0.43905 0.0
C448 C 0.54399 0.61528 0.42782 0.0
C449 C 0.52854 0.62474 0.30544 0.0
H450 H 0.55656 0.72507 0.28275 0.0
H451 H 0.55602 0.69733 0.32683 0.0
H452 H 0.52015 0.63825 0.2484 0.0
H453 H 0.51834 0.55936 0.37167 0.0
H454 H 0.52555 0.58677 0.31755 0.0
H455 H 0.57123 0.64989 0.38194 0.0
C456 C 0.55408 0.69573 0.28666 0.0
C457 C 0.53149 0.64084 0.27711 0.0
C458 C 0.55427 0.7115 0.26158 0.0
C459 C 0.52544 0.57489 0.38791 0.0
C460 C 0.52951 0.59061 0.35694 0.0
C461 C 0.55987 0.64713 0.35314 0.0
C462 C 0.5505 0.6777 0.26028 0.0
C463 C 0.54839 0.66032 0.28734 0.0
C464 C 0.53879 0.611 0.37657 0.0
C465 C 0.54258 0.62774 0.34423 0.0
H466 H 0.54574 0.69003 0.14307 0.0
H467 H 0.54512 0.66225 0.18716 0.0
H468 H 0.57594 0.67814 0.33343 0.0
H469 H 0.54431 0.60351 0.49793 0.0
H470 H 0.55072 0.63072 0.4445 0.0
C471 C 0.82545 0.49867 0.23248 0.0
C472 C 0.82617 0.51744 0.22883 0.0
C473 C 0.83569 0.49584 0.27202 0.0
C474 C 0.85837 0.51639 0.39871 0.0
H475 H 0.89159 0.49265 0.36765 0.0
C476 C 0.92774 0.5307 0.51843 0.0
C477 C 0.93417 0.51635 0.51395 0.0
C478 C 0.90999 0.52694 0.49297 0.0
C479 C 0.882 0.49881 0.37745 0.0
H480 H 0.83802 0.54792 0.26377 0.0
H481 H 0.8563 0.54312 0.33233 0.0
H482 H 0.8701 0.49415 0.30251 0.0
H483 H 0.92589 0.48577 0.4856 0.0
H484 H 0.89456 0.47889 0.4428 0.0
H485 H 0.87075 0.52153 0.47358 0.0
C486 C 0.84761 0.53052 0.30494 0.0
C487 C 0.86976 0.49976 0.3399 0.0
C488 C 0.83744 0.53338 0.26529 0.0
C489 C 0.92144 0.49726 0.48876 0.0
C490 C 0.90357 0.49338 0.46403 0.0
C491 C 0.87058 0.51534 0.43648 0.0
C492 C 0.84678 0.51171 0.30876 0.0
C493 C 0.85817 0.50896 0.34987 0.0
C494 C 0.89831 0.50866 0.4633 0.0
C495 C 0.88287 0.50693 0.426 0.0
H496 H 0.81692 0.48615 0.20478 0.0
H497 H 0.83476 0.48116 0.27412 0.0
H498 H 0.84932 0.52328 0.40753 0.0
H499 H 0.93725 0.54552 0.53782 0.0
H500 H 0.90641 0.53907 0.49327 0.0
C501 C 0.31286 0.852 0.30273 0.0
C502 C 0.31218 0.85734 0.2538 0.0
C503 C 0.32708 0.86612 0.33852 0.0
C504 C 0.36186 0.92127 0.36703 0.0
H505 H 0.3923 0.90353 0.44696 0.0
C506 C 0.44053 0.97641 0.45365 0.0
C507 C 0.44653 0.97329 0.50054 0.0
C508 C 0.42179 0.96245 0.43094 0.0
C509 C 0.38367 0.90864 0.42574 0.0
H510 H 0.32576 0.88182 0.20434 0.0
H511 H 0.35063 0.90654 0.2669 0.0
H512 H 0.36393 0.87865 0.39206 0.0
H513 H 0.43731 0.95323 0.56094 0.0
H514 H 0.40428 0.92859 0.52086 0.0
H515 H 0.38192 0.95133 0.39972 0.0
C516 C 0.33999 0.89144 0.27765 0.0
C517 C 0.36745 0.89441 0.39416 0.0
C518 C 0.32578 0.87728 0.24177 0.0
C519 C 0.43309 0.95606 0.52485 0.0
C520 C 0.41426 0.94192 0.50181 0.0
C521 C 0.37802 0.93547 0.39864 0.0
C522 C 0.34089 0.88596 0.32631 0.0
C523 C 0.3567 0.90066 0.36355 0.0
C524 C 0.40852 0.94493 0.45438 0.0
C525 C 0.38945 0.92941 0.42731 0.0
H526 H 0.3023 0.83689 0.31351 0.0
H527 H 0.32721 0.86154 0.37586 0.0
H528 H 0.35359 0.92647 0.34468 0.0
H529 H 0.45042 0.98959 0.43398 0.0
H530 H 0.418 0.96507 0.39411 0.0
C531 C 0.4786 0.34593 0.2451 0.0
C532 C 0.46059 0.32777 0.23062 0.0
C533 C 0.47819 0.36327 0.26329 0.0
C534 C 0.44538 0.37658 0.32975 0.0
H535 H 0.48522 0.43217 0.30587 0.0
C536 C 0.44902 0.44171 0.45076 0.0
C537 C 0.4684 0.45611 0.47051 0.0
C538 C 0.44648 0.42887 0.40909 0.0
C539 C 0.474 0.41674 0.31299 0.0
H540 H 0.42815 0.314 0.22102 0.0
H541 H 0.42744 0.34421 0.25347 0.0
H542 H 0.48395 0.40372 0.25601 0.0
H543 H 0.5003 0.46962 0.45988 0.0
H544 H 0.49598 0.44671 0.38843 0.0
H545 H 0.43606 0.38919 0.38828 0.0
C546 C 0.44183 0.34492 0.25124 0.0
C547 C 0.47327 0.40048 0.28438 0.0
C548 C 0.44224 0.3276 0.23291 0.0
C549 C 0.48517 0.45863 0.44541 0.0
C550 C 0.48265 0.4455 0.40425 0.0
C551 C 0.44621 0.39276 0.35853 0.0
C552 C 0.45977 0.36281 0.26752 0.0
C553 C 0.45918 0.38022 0.29316 0.0
C554 C 0.46329 0.42984 0.38701 0.0
C555 C 0.46077 0.41305 0.35125 0.0
H556 H 0.49297 0.34652 0.24426 0.0
H557 H 0.49223 0.37674 0.27618 0.0
H558 H 0.43457 0.36115 0.33798 0.0
H559 H 0.43581 0.43971 0.46895 0.0
H560 H 0.43133 0.41745 0.39583 0.0
C561 C 0.5008 0.84385 0.9062 0.0
C562 C 0.51951 0.84567 0.91949 0.0
C563 C 0.49986 0.85905 0.88088 0.0
C564 C 0.52887 0.89928 0.79861 0.0
H565 H 0.49476 0.92133 0.8362 0.0
C566 C 0.53536 0.96833 0.70736 0.0
C567 C 0.51742 0.96774 0.69239 0.0
C568 C 0.53512 0.95428 0.73912 0.0
C569 C 0.5042 0.91517 0.82498 0.0
H570 H 0.55189 0.86529 0.91837 0.0
H571 H 0.55019 0.89152 0.87346 0.0
H572 H 0.4949 0.89453 0.88314 0.0
H573 H 0.48524 0.95263 0.7008 0.0
H574 H 0.48472 0.92763 0.75562 0.0
H575 H 0.53797 0.91944 0.74013 0.0
C576 C 0.53627 0.87822 0.88207 0.0
C577 C 0.50428 0.89986 0.85183 0.0
C578 C 0.53722 0.86314 0.90758 0.0
C579 C 0.49931 0.95343 0.71176 0.0
C580 C 0.49902 0.93915 0.74323 0.0
C581 C 0.52869 0.9144 0.77168 0.0
C582 C 0.51759 0.87626 0.86814 0.0
C583 C 0.5168 0.89195 0.83915 0.0
C584 C 0.51688 0.93911 0.75616 0.0
C585 C 0.51655 0.92272 0.78485 0.0
H586 H 0.48688 0.83051 0.91451 0.0
H587 H 0.48526 0.8571 0.8702 0.0
H588 H 0.53835 0.89316 0.7874 0.0
H589 H 0.54962 0.97943 0.69376 0.0
H590 H 0.54923 0.95505 0.74954 0.0
C591 C 0.69072 0.53945 0.86252 0.0
C592 C 0.68694 0.53845 0.9132 0.0
C593 C 0.67558 0.53594 0.82687 0.0
C594 C 0.62025 0.51007 0.81255 0.0
H595 H 0.62925 0.53865 0.6922 0.0
C596 C 0.55359 0.4886 0.67986 0.0
C597 C 0.55204 0.50515 0.66446 0.0
C598 C 0.57206 0.49152 0.69813 0.0
C599 C 0.6265 0.53053 0.72564 0.0
H600 H 0.66502 0.53434 0.9668 0.0
H601 H 0.63875 0.52886 0.90487 0.0
H602 H 0.65753 0.5479 0.75188 0.0
H603 H 0.56833 0.53732 0.65246 0.0
H604 H 0.60057 0.5428 0.68671 0.0
H605 H 0.58926 0.49351 0.78849 0.0
C606 C 0.65313 0.53165 0.89236 0.0
C607 C 0.64272 0.53573 0.75964 0.0
C608 C 0.66816 0.5349 0.92786 0.0
C609 C 0.56938 0.52435 0.66386 0.0
C610 C 0.58782 0.52742 0.6834 0.0
C611 C 0.6041 0.50503 0.77901 0.0
C612 C 0.65646 0.53153 0.84139 0.0
C613 C 0.63967 0.52576 0.80389 0.0
C614 C 0.58911 0.51121 0.70312 0.0
C615 C 0.60693 0.51529 0.73532 0.0
H616 H 0.70507 0.54202 0.85036 0.0
H617 H 0.6786 0.53585 0.78796 0.0
H618 H 0.61742 0.50174 0.84566 0.0
H619 H 0.54029 0.47365 0.68039 0.0
H620 H 0.57266 0.47856 0.7114 0.0
C621 C 0.13896 0.69168 0.92527 0.0
C622 C 0.14419 0.6922 0.97576 0.0
C623 C 0.12231 0.67445 0.90203 0.0
C624 C 0.08036 0.64132 0.8687 0.0
H625 H 0.07167 0.58735 0.89011 0.0
C626 C 0.01826 0.57309 0.75412 0.0
C627 C 0.02435 0.56019 0.73137 0.0
C628 C 0.02951 0.58635 0.79489 0.0
C629 C 0.07387 0.60231 0.88384 0.0
H630 H 0.1359 0.6752 0.04177 0.0
H631 H 0.1067 0.64502 0.00101 0.0
H632 H 0.09876 0.61711 0.93795 0.0
H633 H 0.04586 0.54967 0.73566 0.0
H634 H 0.06602 0.57337 0.80578 0.0
H635 H 0.0564 0.62694 0.81286 0.0
C636 C 0.11566 0.65787 0.97933 0.0
C637 C 0.08927 0.61933 0.91154 0.0
C638 C 0.13236 0.67513 0.00261 0.0
C639 C 0.04087 0.5595 0.75261 0.0
C640 C 0.05238 0.57306 0.79292 0.0
C641 C 0.06509 0.62439 0.84098 0.0
C642 C 0.11046 0.65736 0.92877 0.0
C643 C 0.09294 0.63906 0.90339 0.0
C644 C 0.04733 0.58729 0.81302 0.0
C645 C 0.06186 0.6047 0.84751 0.0
H646 H 0.14798 0.70444 0.9034 0.0
H647 H 0.11896 0.67438 0.86277 0.0
H648 H 0.08259 0.65627 0.86214 0.0
H649 H 0.00533 0.57363 0.73891 0.0
H650 H 0.02483 0.59664 0.8105 0.0
C651 C 0.48059 0.14753 0.04859 0.0
C652 C 0.46463 0.14605 0.0756 0.0
C653 C 0.4805 0.12995 0.03038 0.0
C654 C 0.44462 0.07598 0.99358 0.0
H655 H 0.49381 0.07586 0.96562 0.0
C656 C 0.47546 0.02812 0.86682 0.0
C657 C 0.46425 0.02598 0.82259 0.0
C658 C 0.47393 0.03844 0.9094 0.0
C659 C 0.47986 0.07534 0.97401 0.0
H660 H 0.4367 0.12519 0.10746 0.0
H661 H 0.43672 0.09438 0.07661 0.0
H662 H 0.49526 0.10266 0.02188 0.0
H663 H 0.44166 0.0318 0.7894 0.0
H664 H 0.43927 0.04989 0.86258 0.0
H665 H 0.42924 0.04872 0.94559 0.0
C666 C 0.44905 0.10909 0.0683 0.0
C667 C 0.48073 0.09091 0.0057 0.0
C668 C 0.44902 0.1267 0.08601 0.0
C669 C 0.45067 0.03331 0.82266 0.0
C670 C 0.44912 0.04353 0.86499 0.0
C671 C 0.44373 0.06031 0.96237 0.0
C672 C 0.46455 0.11048 0.03924 0.0
C673 C 0.46324 0.09192 0.0141 0.0
C674 C 0.46106 0.04668 0.90854 0.0
C675 C 0.46144 0.06033 0.95038 0.0
H676 H 0.49272 0.16227 0.03972 0.0
H677 H 0.49251 0.13168 0.00739 0.0
H678 H 0.43081 0.0762 0.99898 0.0
H679 H 0.48601 0.02258 0.86801 0.0
H680 H 0.48318 0.04044 0.94254 0.0
C681 C 0.33475 0.50413 0.99195 0.0
C682 C 0.3148 0.48786 0.98995 0.0
C683 C 0.34807 0.50468 0.95695 0.0
C684 C 0.35534 0.47203 0.86209 0.0
H685 H 0.39452 0.52421 0.81606 0.0
C686 C 0.40769 0.47754 0.70743 0.0
C687 C 0.42827 0.49115 0.71954 0.0
C688 C 0.39302 0.47816 0.7358 0.0
C689 C 0.38368 0.50954 0.82863 0.0
H690 H 0.29314 0.45946 0.94955 0.0
H691 H 0.31621 0.46054 0.88797 0.0
H692 H 0.37063 0.52274 0.87572 0.0
H693 H 0.44943 0.5171 0.76871 0.0
H694 H 0.42382 0.51831 0.81764 0.0
H695 H 0.36838 0.45887 0.81471 0.0
C696 C 0.32177 0.47269 0.91717 0.0
C697 C 0.37005 0.50868 0.86309 0.0
C698 C 0.30851 0.47205 0.95248 0.0
C699 C 0.43373 0.5063 0.75848 0.0
C700 C 0.41905 0.50705 0.78649 0.0
C701 C 0.36884 0.47288 0.8273 0.0
C702 C 0.34171 0.48908 0.91873 0.0
C703 C 0.35582 0.48993 0.88073 0.0
C704 C 0.39857 0.49258 0.77647 0.0
C705 C 0.38329 0.49166 0.81052 0.0
H706 H 0.34009 0.51642 0.02074 0.0
H707 H 0.3634 0.51732 0.96014 0.0
H708 H 0.34487 0.45736 0.87527 0.0
H709 H 0.40292 0.46572 0.67759 0.0
H710 H 0.37732 0.46702 0.72672 0.0
C711 C 0.85147 0.30807 0.92748 0.0
C712 C 0.85138 0.30978 0.97938 0.0
C713 C 0.86679 0.32353 0.90262 0.0
C714 C 0.91791 0.3698 0.92302 0.0
H715 H 0.90402 0.38141 0.79416 0.0
C716 C 0.96846 0.44172 0.8156 0.0
C717 C 0.97041 0.4375 0.76541 0.0
C718 C 0.95521 0.42608 0.84414 0.0
C719 C 0.90811 0.37825 0.83004 0.0
H720 H 0.86697 0.32894 0.04616 0.0
H721 H 0.89331 0.35634 0.00285 0.0
H722 H 0.87809 0.35446 0.83897 0.0
H723 H 0.96038 0.41334 0.70647 0.0
H724 H 0.93715 0.38635 0.756 0.0
H725 H 0.94791 0.39429 0.91417 0.0
C726 C 0.882 0.34284 0.98119 0.0
C727 C 0.8933 0.3627 0.85565 0.0
C728 C 0.86686 0.3272 0.00607 0.0
C729 C 0.95931 0.41722 0.74495 0.0
C730 C 0.9459 0.40173 0.77317 0.0
C731 C 0.93268 0.38562 0.89764 0.0
C732 C 0.88215 0.34125 0.92908 0.0
C733 C 0.89801 0.3581 0.9023 0.0
C734 C 0.94348 0.40606 0.8227 0.0
C735 C 0.92792 0.38982 0.85073 0.0
H736 H 0.83979 0.29466 0.90617 0.0
H737 H 0.86661 0.32149 0.86262 0.0
H738 H 0.92222 0.36657 0.95848 0.0
H739 H 0.97683 0.45715 0.83253 0.0
H740 H 0.95355 0.42976 0.88233 0.0
C741 C 0.82969 0.50889 0.89505 0.0
C742 C 0.8335 0.52824 0.9136 0.0
C743 C 0.84258 0.50693 0.86258 0.0
C744 C 0.89427 0.53639 0.81618 0.0
H745 H 0.87376 0.48923 0.72186 0.0
C746 C 0.94422 0.5248 0.67647 0.0
C747 C 0.94554 0.50745 0.68609 0.0
C748 C 0.92904 0.52755 0.69648 0.0
C749 C 0.87962 0.50254 0.7478 0.0
H750 H 0.85423 0.56078 0.91164 0.0
H751 H 0.87578 0.55741 0.85276 0.0
H752 H 0.85042 0.49424 0.77195 0.0
H753 H 0.93171 0.47899 0.72183 0.0
H754 H 0.90462 0.48336 0.75492 0.0
H755 H 0.92344 0.54477 0.79078 0.0
C756 C 0.86316 0.54363 0.86454 0.0
C757 C 0.86631 0.50534 0.77704 0.0
C758 C 0.85049 0.54559 0.89789 0.0
C759 C 0.93083 0.49239 0.71354 0.0
C760 C 0.91539 0.49488 0.73242 0.0
C761 C 0.90747 0.53381 0.7861 0.0
C762 C 0.8595 0.52426 0.84661 0.0
C763 C 0.87347 0.52209 0.81252 0.0
C764 C 0.91471 0.51276 0.72537 0.0
C765 C 0.90032 0.51668 0.75232 0.0
H766 H 0.81661 0.49511 0.9052 0.0
H767 H 0.83932 0.49171 0.85061 0.0
H768 H 0.90056 0.54928 0.84345 0.0
H769 H 0.95567 0.53682 0.65636 0.0
H770 H 0.92883 0.54149 0.69072 0.0
C771 C 0.30195 0.86077 0.9075 0.0
C772 C 0.30348 0.84518 0.92996 0.0
C773 C 0.31467 0.87138 0.87042 0.0
C774 C 0.35111 0.86975 0.78358 0.0
H775 H 0.36915 0.92737 0.78002 0.0
C776 C 0.42359 0.9304 0.69864 0.0
C777 C 0.42289 0.94643 0.67613 0.0
C778 C 0.40641 0.91489 0.71825 0.0
C779 C 0.36397 0.91121 0.77991 0.0
H780 H 0.31979 0.82862 0.93029 0.0
H781 H 0.34273 0.84794 0.86815 0.0
H782 H 0.34525 0.90757 0.83987 0.0
H783 H 0.40301 0.95734 0.65141 0.0
H784 H 0.37314 0.93035 0.68608 0.0
H785 H 0.37099 0.87399 0.7252 0.0
C786 C 0.33126 0.85156 0.87806 0.0
C787 C 0.35021 0.89978 0.81429 0.0
C788 C 0.3183 0.84071 0.9146 0.0
C789 C 0.40416 0.94536 0.66886 0.0
C790 C 0.38705 0.92998 0.68901 0.0
C791 C 0.36518 0.88131 0.74967 0.0
C792 C 0.32959 0.86702 0.85528 0.0
C793 C 0.34366 0.87891 0.81695 0.0
C794 C 0.38826 0.91519 0.71599 0.0
C795 C 0.37181 0.90218 0.74771 0.0
H796 H 0.29097 0.86492 0.91866 0.0
H797 H 0.31265 0.88293 0.85343 0.0
H798 H 0.34617 0.85366 0.78373 0.0
H799 H 0.43773 0.93065 0.70444 0.0
H800 H 0.40777 0.90365 0.73874 0.0
C801 C 0.47378 0.32373 0.98834 0.0
C802 C 0.45645 0.30434 0.98559 0.0
C803 C 0.47426 0.33925 0.96168 0.0
C804 C 0.44116 0.35448 0.8965 0.0
H805 H 0.49081 0.39214 0.83845 0.0
C806 C 0.44772 0.41193 0.75378 0.0
C807 C 0.46411 0.4319 0.7622 0.0
C808 C 0.44606 0.39648 0.78288 0.0
C809 C 0.47691 0.38183 0.85486 0.0
H810 H 0.42609 0.28583 0.95281 0.0
H811 H 0.42707 0.31281 0.9048 0.0
H812 H 0.48932 0.3645 0.88395 0.0
H813 H 0.49141 0.45139 0.80831 0.0
H814 H 0.48858 0.42428 0.85865 0.0
H815 H 0.4287 0.37168 0.86595 0.0
C816 C 0.44014 0.31619 0.92844 0.0
C817 C 0.47604 0.36603 0.88105 0.0
C818 C 0.43959 0.30071 0.95565 0.0
C819 C 0.4786 0.43617 0.8009 0.0
C820 C 0.47706 0.42066 0.82954 0.0
C821 C 0.44198 0.37018 0.86975 0.0
C822 C 0.45749 0.33567 0.9312 0.0
C823 C 0.4582 0.35222 0.90246 0.0
C824 C 0.46088 0.40066 0.82047 0.0
C825 C 0.4599 0.38405 0.84896 0.0
H826 H 0.48685 0.327 0.01193 0.0
H827 H 0.4877 0.35416 0.9656 0.0
H828 H 0.42728 0.34433 0.91313 0.0
H829 H 0.43627 0.40817 0.7244 0.0
H830 H 0.4335 0.38113 0.77503 0.0
C831 C 0.15689 0.50379 0.98634 0.0
C832 C 0.17674 0.50853 0.97899 0.0
C833 C 0.14546 0.50603 0.94871 0.0
C834 C 0.12855 0.5227 0.87377 0.0
H835 H 0.12801 0.50199 0.73922 0.0
C836 C 0.07507 0.52313 0.72582 0.0
C837 C 0.06297 0.50412 0.69962 0.0
C838 C 0.09298 0.52744 0.75113 0.0
C839 C 0.12807 0.50791 0.77656 0.0
H840 H 0.20015 0.51919 0.92634 0.0
H841 H 0.18025 0.52343 0.8609 0.0
H842 H 0.1507 0.50158 0.80391 0.0
H843 H 0.06096 0.4755 0.67516 0.0
H844 H 0.09197 0.48274 0.72063 0.0
H845 H 0.1053 0.52808 0.84754 0.0
C846 C 0.17352 0.51789 0.89567 0.0
C847 C 0.14116 0.50783 0.8135 0.0
C848 C 0.18497 0.51568 0.93334 0.0
C849 C 0.07 0.49025 0.69524 0.0
C850 C 0.08782 0.49445 0.72122 0.0
C851 C 0.1155 0.52277 0.83701 0.0
C852 C 0.15363 0.51304 0.90292 0.0
C853 C 0.1412 0.51483 0.86269 0.0
C854 C 0.09895 0.51269 0.75139 0.0
C855 C 0.11483 0.51504 0.78815 0.0
H856 H 0.15019 0.49836 0.0212 0.0
H857 H 0.13007 0.50191 0.95517 0.0
H858 H 0.12846 0.52847 0.91118 0.0
H859 H 0.07017 0.53427 0.72898 0.0
H860 H 0.10154 0.54188 0.77285 0.0
C861 C 0.67207 0.14469 0.99179 0.0
C862 C 0.69237 0.15338 0.98114 0.0
C863 C 0.65702 0.13022 0.9582 0.0
C864 C 0.64484 0.11489 0.82756 0.0
H865 H 0.60107 0.06558 0.87445 0.0
C866 C 0.57296 0.05579 0.70471 0.0
C867 C 0.55492 0.04834 0.72901 0.0
C868 C 0.59153 0.06814 0.73131 0.0
C869 C 0.61314 0.07932 0.86077 0.0
H870 H 0.71302 0.1539 0.92744 0.0
H871 H 0.68645 0.12868 0.86775 0.0
H872 H 0.63046 0.08742 0.93 0.0
H873 H 0.54206 0.04916 0.79902 0.0
H874 H 0.57404 0.07082 0.84458 0.0
H875 H 0.627 0.1072 0.7589 0.0
C876 C 0.6823 0.13297 0.90237 0.0
C877 C 0.62997 0.09174 0.89253 0.0
C878 C 0.69743 0.14722 0.93652 0.0
C879 C 0.55571 0.05432 0.77942 0.0
C880 C 0.57407 0.06664 0.80568 0.0
C881 C 0.62782 0.1025 0.79574 0.0
C882 C 0.66197 0.12441 0.91295 0.0
C883 C 0.64571 0.10991 0.87672 0.0
C884 C 0.59221 0.0732 0.78245 0.0
C885 C 0.61152 0.08494 0.81268 0.0
H886 H 0.66786 0.14925 0.02597 0.0
H887 H 0.64143 0.12396 0.96699 0.0
H888 H 0.65681 0.12888 0.81463 0.0
H889 H 0.57278 0.05139 0.66594 0.0
H890 H 0.60529 0.0731 0.71237 0.0
C891 C 0.51922 0.67724 0.90882 0.0
C892 C 0.52382 0.68283 0.95982 0.0
C893 C 0.51771 0.6592 0.88884 0.0
C894 C 0.50376 0.6144 0.86412 0.0
H895 H 0.54894 0.60556 0.88527 0.0
C896 C 0.50494 0.54843 0.7574 0.0
C897 C 0.52204 0.5552 0.72943 0.0
C898 C 0.5048 0.56069 0.79746 0.0
C899 C 0.53612 0.60772 0.87952 0.0
H900 H 0.53061 0.67416 0.02997 0.0
H901 H 0.52832 0.64258 0.99459 0.0
H902 H 0.54864 0.6341 0.93107 0.0
H903 H 0.55308 0.57913 0.72494 0.0
H904 H 0.5528 0.60048 0.79476 0.0
H905 H 0.49154 0.58864 0.81132 0.0
C906 C 0.52572 0.65213 0.97036 0.0
C907 C 0.53591 0.62396 0.90583 0.0
C908 C 0.52692 0.67007 0.99054 0.0
C909 C 0.53959 0.57356 0.74535 0.0
C910 C 0.53948 0.58575 0.78562 0.0
C911 C 0.50385 0.59808 0.83831 0.0
C912 C 0.52102 0.64651 0.91934 0.0
C913 C 0.52 0.62778 0.89718 0.0
C914 C 0.52179 0.57987 0.8106 0.0
C915 C 0.52029 0.5949 0.8447 0.0
H916 H 0.51667 0.68678 0.88446 0.0
H917 H 0.51429 0.65532 0.84927 0.0
H918 H 0.49124 0.61694 0.85714 0.0
H919 H 0.4912 0.53435 0.74637 0.0
H920 H 0.49104 0.55566 0.81653 0.0
C921 C 0.45806 0.15472 0.33614 0.0
C922 C 0.47368 0.17022 0.31153 0.0
C923 C 0.46091 0.14008 0.35855 0.0
C924 C 0.49928 0.13001 0.4109 0.0
H925 H 0.45636 0.07359 0.39215 0.0
C926 C 0.50275 0.06512 0.50735 0.0
C927 C 0.48524 0.05248 0.53157 0.0
C928 C 0.5027 0.07855 0.47359 0.0
C929 C 0.46847 0.08927 0.39776 0.0
H930 H 0.50463 0.18263 0.29169 0.0
H931 H 0.5097 0.15719 0.33184 0.0
H932 H 0.4538 0.09962 0.34816 0.0
H933 H 0.45376 0.04339 0.53774 0.0
H934 H 0.45374 0.06673 0.47956 0.0
H935 H 0.51364 0.11972 0.4618 0.0
C936 C 0.49528 0.15645 0.3337 0.0
C937 C 0.46698 0.10416 0.37268 0.0
C938 C 0.49239 0.17106 0.31098 0.0
C939 C 0.46755 0.05299 0.52001 0.0
C940 C 0.46748 0.06626 0.48623 0.0
C941 C 0.50074 0.11509 0.43622 0.0
C942 C 0.47946 0.14067 0.35708 0.0
C943 C 0.48212 0.12474 0.37996 0.0
C944 C 0.48509 0.07939 0.46315 0.0
C945 C 0.48508 0.09465 0.43085 0.0
H946 H 0.44358 0.15385 0.33796 0.0
H947 H 0.44859 0.12832 0.37726 0.0
H948 H 0.51114 0.14577 0.41727 0.0
H949 H 0.51662 0.06507 0.51551 0.0
H950 H 0.51646 0.08841 0.45606 0.0
C951 C 0.30398 0.4603 0.32734 0.0
C952 C 0.30568 0.47821 0.30965 0.0
C953 C 0.31671 0.46137 0.36689 0.0
C954 C 0.35507 0.49802 0.46481 0.0
H955 H 0.37727 0.4622 0.44878 0.0
C956 C 0.4364 0.51832 0.51196 0.0
C957 C 0.43969 0.50428 0.53657 0.0
C958 C 0.41682 0.51401 0.49993 0.0
C959 C 0.37089 0.47201 0.45441 0.0
H960 H 0.32154 0.51126 0.32146 0.0
H961 H 0.34446 0.51317 0.38733 0.0
H962 H 0.34847 0.45604 0.39548 0.0
H963 H 0.42547 0.47502 0.56872 0.0
H964 H 0.39104 0.46718 0.54631 0.0
H965 H 0.37892 0.51504 0.5208 0.0
C966 C 0.333 0.49822 0.37191 0.0
C967 C 0.35433 0.46848 0.42395 0.0
C968 C 0.32011 0.49714 0.33308 0.0
C969 C 0.4232 0.48625 0.55079 0.0
C970 C 0.4036 0.48171 0.53773 0.0
C971 C 0.37191 0.50179 0.49451 0.0
C972 C 0.33158 0.48037 0.38921 0.0
C973 C 0.34665 0.48188 0.42754 0.0
C974 C 0.40032 0.49537 0.51124 0.0
C975 C 0.38026 0.48914 0.48845 0.0
H976 H 0.29307 0.44545 0.31016 0.0
H977 H 0.31499 0.44728 0.37959 0.0
H978 H 0.34919 0.5083 0.46969 0.0
H979 H 0.44897 0.53224 0.50043 0.0
H980 H 0.41461 0.52462 0.47886 0.0
C981 C 0.87621 0.33374 0.22559 0.0
C982 C 0.85741 0.33263 0.2218 0.0
C983 C 0.8932 0.35151 0.24555 0.0
C984 C 0.91343 0.40627 0.28396 0.0
H985 H 0.94268 0.39551 0.38618 0.0
C986 C 0.95868 0.4623 0.45179 0.0
C987 C 0.9745 0.4608 0.47467 0.0
C988 C 0.94795 0.44964 0.40957 0.0
C989 C 0.93511 0.39895 0.35698 0.0
H990 H 0.84174 0.34946 0.23395 0.0
H991 H 0.8714 0.38047 0.26965 0.0
H992 H 0.91696 0.36745 0.33303 0.0
H993 H 0.99311 0.44684 0.46839 0.0
H994 H 0.97491 0.42534 0.39373 0.0
H995 H 0.9313 0.43785 0.30934 0.0
C996 C 0.87307 0.36771 0.25651 0.0
C997 C 0.92026 0.38277 0.3265 0.0
C998 C 0.85608 0.34993 0.23633 0.0
C999 C 0.98068 0.44797 0.452 0.0
C1000 C 0.9702 0.43561 0.40938 0.0
C1001 C 0.92841 0.42255 0.31447 0.0
C1002 C 0.89171 0.36852 0.26236 0.0
C1003 C 0.90899 0.38617 0.29029 0.0
C1004 C 0.95307 0.43552 0.3892 0.0
C1005 C 0.93915 0.419 0.35198 0.0
H1006 H 0.87774 0.32076 0.21362 0.0
H1007 H 0.90743 0.3518 0.24879 0.0
H1008 H 0.9051 0.40936 0.25597 0.0
H1009 H 0.95364 0.47211 0.46854 0.0
H1010 H 0.9348 0.44995 0.39515 0.0
C1011 C 0.52889 0.86718 0.21629 0.0
C1012 C 0.53483 0.86627 0.16788 0.0
C1013 C 0.52801 0.88416 0.23486 0.0
C1014 C 0.51583 0.9166 0.24986 0.0
H1015 H 0.56483 0.96935 0.25906 0.0
C1016 C 0.5203 0.98503 0.36163 0.0
C1017 C 0.53539 0.99212 0.40022 0.0
C1018 C 0.52043 0.97294 0.32101 0.0
C1019 C 0.55095 0.95478 0.25599 0.0
H1020 H 0.54447 0.88272 0.10108 0.0
H1021 H 0.54375 0.91285 0.13481 0.0
H1022 H 0.56373 0.94041 0.21148 0.0
H1023 H 0.56333 0.99375 0.42467 0.0
H1024 H 0.56372 0.97299 0.35355 0.0
H1025 H 0.50326 0.93062 0.29588 0.0
C1026 C 0.53958 0.90017 0.15781 0.0
C1027 C 0.55031 0.9383 0.22874 0.0
C1028 C 0.54013 0.88298 0.13879 0.0
C1029 C 0.55142 0.98833 0.3956 0.0
C1030 C 0.55173 0.97658 0.35469 0.0
C1031 C 0.51636 0.93311 0.27642 0.0
C1032 C 0.53335 0.9008 0.20586 0.0
C1033 C 0.53297 0.91892 0.22699 0.0
C1034 C 0.53586 0.96814 0.31797 0.0
C1035 C 0.53414 0.95218 0.28117 0.0
H1036 H 0.52517 0.85489 0.24029 0.0
H1037 H 0.52352 0.88448 0.27243 0.0
H1038 H 0.50225 0.9018 0.24871 0.0
H1039 H 0.50774 0.9877 0.36433 0.0
H1040 H 0.50805 0.96663 0.29304 0.0
C1041 C 0.66839 0.53265 0.20783 0.0
C1042 C 0.68565 0.53239 0.22506 0.0
C1043 C 0.65414 0.5313 0.24091 0.0
C1044 C 0.63816 0.51714 0.36997 0.0
H1045 H 0.60615 0.54245 0.34214 0.0
C1046 C 0.5836 0.52794 0.50193 0.0
C1047 C 0.56396 0.51968 0.48015 0.0
C1048 C 0.599 0.52846 0.47415 0.0
C1049 C 0.61502 0.53533 0.35029 0.0
H1050 H 0.70199 0.53122 0.29026 0.0
H1051 H 0.67777 0.52995 0.34845 0.0
H1052 H 0.63248 0.54689 0.28736 0.0
H1053 H 0.54501 0.50448 0.41281 0.0
H1054 H 0.57191 0.50591 0.36465 0.0
H1055 H 0.62087 0.50626 0.43421 0.0
C1056 C 0.67466 0.53035 0.30931 0.0
C1057 C 0.63002 0.53768 0.31866 0.0
C1058 C 0.68867 0.53127 0.27606 0.0
C1059 C 0.55991 0.51102 0.43094 0.0
C1060 C 0.57531 0.51189 0.40311 0.0
C1061 C 0.62341 0.51517 0.40223 0.0
C1062 C 0.65703 0.53011 0.29223 0.0
C1063 C 0.64164 0.52837 0.32751 0.0
C1064 C 0.59506 0.52103 0.42404 0.0
C1065 C 0.61154 0.52401 0.39218 0.0
H1066 H 0.66565 0.5333 0.16856 0.0
H1067 H 0.64064 0.53074 0.22587 0.0
H1068 H 0.64646 0.50942 0.37785 0.0
H1069 H 0.58723 0.53468 0.53973 0.0
H1070 H 0.61416 0.53554 0.49101 0.0
C1071 C 0.1456 0.68503 0.22305 0.0
C1072 C 0.15031 0.70541 0.23033 0.0
C1073 C 0.12922 0.66964 0.24525 0.0
C1074 C 0.08255 0.65858 0.30814 0.0
H1075 H 0.08789 0.614 0.35612 0.0
C1076 C 0.03081 0.60124 0.4468 0.0
C1077 C 0.02498 0.58062 0.43605 0.0
C1078 C 0.0442 0.61627 0.41725 0.0
C1079 C 0.0861 0.62624 0.34241 0.0
H1080 H 0.14176 0.72582 0.26645 0.0
H1081 H 0.11354 0.69908 0.30695 0.0
H1082 H 0.11551 0.64081 0.31504 0.0
H1083 H 0.02791 0.55957 0.38423 0.0
H1084 H 0.0514 0.58583 0.33325 0.0
H1085 H 0.0533 0.64415 0.33766 0.0
C1086 C 0.1221 0.69481 0.28301 0.0
C1087 C 0.10191 0.6416 0.31867 0.0
C1088 C 0.13834 0.71017 0.26013 0.0
C1089 C 0.03207 0.57528 0.39372 0.0
C1090 C 0.04562 0.59031 0.36462 0.0
C1091 C 0.06682 0.64331 0.3326 0.0
C1092 C 0.11735 0.67433 0.27592 0.0
C1093 C 0.10035 0.65796 0.30105 0.0
C1094 C 0.05217 0.61097 0.3768 0.0
C1095 C 0.06845 0.62698 0.34975 0.0
H1096 H 0.15443 0.68095 0.1995 0.0
H1097 H 0.12578 0.65403 0.23793 0.0
H1098 H 0.08066 0.67075 0.29444 0.0
H1099 H 0.02556 0.60586 0.47899 0.0
H1100 H 0.04907 0.63211 0.42746 0.0
loop_
_geom_bond_atom_site_label_1
_geom_bond_atom_site_label_2
_geom_bond_distance
_geom_bond_site_symmetry_2
_ccdc_geom_bond_type
H0 C19 0.949 . S
H1 C20 0.950 . S
H2 C22 0.950 . S
H3 C23 0.950 . S
H4 C25 0.950 . S
H5 C28 0.950 . S
H6 C29 0.950 . S
H7 C31 0.951 . S
H8 C32 0.949 . S
H9 C34 0.949 . S
H10 C35 0.950 . S
H11 C37 0.950 . S
H12 C38 0.950 . S
H13 C40 0.950 . S
H14 C43 0.950 . S
H15 C44 0.950 . S
H16 C46 0.951 . S
H17 C47 0.949 . S
C18 C19 1.376 . S
C18 C23 1.386 . S
C18 C24 1.483 . S
C19 H0 0.949 . S
C19 C18 1.376 . S
C19 C20 1.397 . S
C20 H1 0.950 . S
C20 C19 1.397 . S
C20 C21 1.391 . S
C21 C20 1.391 . S
C21 C22 1.405 . S
C22 H2 0.950 . S
C22 C21 1.405 . S
C22 C23 1.367 . S
C23 H3 0.950 . S
C23 C18 1.386 . S
C23 C22 1.367 . S
C24 C18 1.483 . S
C24 C25 1.382 . S
C24 C26 1.403 . S
C25 H4 0.950 . S
C25 C24 1.382 . S
C25 C41 1.411 . S
C26 C24 1.403 . S
C26 C27 1.489 . S
C26 C40 1.411 . S
C27 C26 1.489 . S
C27 C28 1.383 . S
C27 C32 1.382 . S
C28 H5 0.950 . S
C28 C27 1.383 . S
C28 C29 1.395 . S
C29 H6 0.950 . S
C29 C28 1.395 . S
C29 C30 1.288 . S
C30 C29 1.288 . S
C30 C31 1.392 . S
C31 H7 0.951 . S
C31 C30 1.392 . S
C31 C32 1.392 . S
C32 H8 0.949 . S
C32 C27 1.382 . S
C32 C31 1.392 . S
C33 C34 1.376 . S
C33 C38 1.386 . S
C33 C39 1.483 . S
C34 H9 0.949 . S
C34 C33 1.376 . S
C34 C35 1.397 . S
C35 H10 0.950 . S
C35 C34 1.397 . S
C35 C36 1.391 . S
C36 C35 1.391 . S
C36 C37 1.405 . S
C37 H11 0.950 . S
C37 C36 1.405 . S
C37 C38 1.367 . S
C38 H12 0.950 . S
C38 C33 1.386 . S
C38 C37 1.367 . S
C39 C33 1.483 . S
C39 C40 1.382 . S
C39 C41 1.403 . S
C40 H13 0.950 . S
C40 C26 1.411 . S
C40 C39 1.382 . S
C41 C25 1.411 . S
C41 C39 1.403 . S
C41 C42 1.489 . S
C42 C41 1.489 . S
C42 C43 1.383 . S
C42 C47 1.382 . S
C43 H14 0.950 . S
C43 C42 1.383 . S
C43 C44 1.395 . S
C44 H15 0.950 . S
C44 C43 1.395 . S
C44 C45 1.288 . S
C45 C44 1.288 . S
C45 C46 1.392 . S
C46 H16 0.951 . S
C46 C45 1.392 . S
C46 C47 1.392 . S
C47 H17 0.949 . S
C47 C42 1.382 . S
C47 C46 1.392 . S
H48 C67 0.949 . S
H49 C68 0.950 1_556 S
H50 C70 0.950 . S
H51 C71 0.950 . S
H52 C73 0.950 . S
H53 C76 0.950 . S
H54 C77 0.950 . S
H55 C79 0.951 . S
H56 C80 0.949 . S
H57 C82 0.949 . S
H58 C83 0.950 . S
H59 C85 0.950 . S
H60 C86 0.950 . S
H61 C88 0.950 . S
H62 C91 0.950 . S
H63 C92 0.950 . S
H64 C94 0.937 1_556 S
H65 C95 0.949 . S
C66 C67 1.376 . S
C66 C71 1.386 . S
C66 C72 1.483 . S
C67 H48 0.949 . S
C67 C66 1.376 . S
C67 C68 1.397 . S
C68 H49 0.950 1_554 S
C68 C67 1.397 . S
C68 C69 1.391 . S
C69 C68 1.391 . S
C69 C70 1.405 . S
C70 H50 0.950 . S
C70 C69 1.405 . S
C70 C71 1.367 . S
C71 H51 0.950 . S
C71 C66 1.386 . S
C71 C70 1.367 . S
C72 C66 1.483 . S
C72 C73 1.382 . S
C72 C74 1.403 . S
C73 H52 0.950 . S
C73 C72 1.382 . S
C73 C89 1.411 . S
C74 C72 1.403 . S
C74 C75 1.489 . S
C74 C88 1.411 . S
C75 C74 1.489 . S
C75 C76 1.383 . S
C75 C80 1.382 . S
C76 H53 0.950 . S
C76 C75 1.383 . S
C76 C77 1.395 . S
C77 H54 0.950 . S
C77 C76 1.395 . S
C77 C78 1.288 . S
C78 C77 1.288 . S
C78 C79 1.392 . S
C79 H55 0.951 . S
C79 C78 1.392 . S
C79 C80 1.392 . S
C80 H56 0.949 . S
C80 C75 1.382 . S
C80 C79 1.392 . S
C81 C82 1.376 . S
C81 C86 1.386 . S
C81 C87 1.483 . S
C82 H57 0.949 . S
C82 C81 1.376 . S
C82 C83 1.397 . S
C83 H58 0.950 . S
C83 C82 1.397 . S
C83 C84 1.391 . S
C84 C83 1.391 . S
C84 C85 1.405 . S
C85 H59 0.950 . S
C85 C84 1.405 . S
C85 C86 1.367 . S
C86 H60 0.950 . S
C86 C81 1.386 . S
C86 C85 1.367 . S
C87 C81 1.483 . S
C87 C88 1.382 . S
C87 C89 1.403 . S
C88 H61 0.950 . S
C88 C74 1.411 . S
C88 C87 1.382 . S
C89 C73 1.411 . S
C89 C87 1.403 . S
C89 C90 1.489 . S
C90 C89 1.489 . S
C90 C91 1.383 . S
C90 C95 1.382 . S
C91 H62 0.950 . S
C91 C90 1.383 . S
C91 C92 1.395 . S
C92 H63 0.950 . S
C92 C91 1.395 . S
C92 C93 1.288 . S
C93 C92 1.288 . S
C93 C94 1.394 . S
C94 H64 0.937 1_554 S
C94 C93 1.394 . S
C94 C95 1.402 . S
C95 H65 0.949 . S
C95 C90 1.382 . S
C95 C94 1.402 . S
H96 C115 0.949 . S
H97 C116 0.950 . S
H98 C118 0.950 . S
H99 C119 0.950 . S
H100 C121 0.950 . S
H101 C124 0.950 . S
H102 C125 0.950 . S
H103 C127 0.951 . S
H104 C128 0.949 . S
H105 C130 0.949 . S
H106 C131 0.950 . S
H107 C133 0.950 . S
H108 C134 0.950 . S
H109 C136 0.950 . S
H110 C139 0.950 . S
H111 C140 0.950 . S
H112 C142 0.951 . S
H113 C143 0.949 . S
C114 C115 1.376 . S
C114 C119 1.386 . S
C114 C120 1.483 . S
C115 H96 0.949 . S
C115 C114 1.376 . S
C115 C116 1.397 . S
C116 H97 0.950 . S
C116 C115 1.397 . S
C116 C117 1.391 . S
C117 C116 1.391 . S
C117 C118 1.405 . S
C118 H98 0.950 . S
C118 C117 1.405 . S
C118 C119 1.367 . S
C119 H99 0.950 . S
C119 C114 1.386 . S
C119 C118 1.367 . S
C120 C114 1.483 . S
C120 C121 1.382 . S
C120 C122 1.403 1_556 S
C121 H100 0.950 . S
C121 C120 1.382 . S
C121 C137 1.411 . S
C122 C120 1.403 1_554 S
C122 C123 1.489 . S
C122 C136 1.411 . S
C123 C122 1.489 . S
C123 C124 1.383 . S
C123 C128 1.382 . S
C124 H101 0.950 . S
C124 C123 1.383 . S
C124 C125 1.395 . S
C125 H102 0.950 . S
C125 C124 1.395 . S
C125 C126 1.288 . S
C126 C125 1.288 . S
C126 C127 1.392 . S
C127 H103 0.951 . S
C127 C126 1.392 . S
C127 C128 1.392 . S
C128 H104 0.949 . S
C128 C123 1.382 . S
C128 C127 1.392 . S
C129 C130 1.376 . S
C129 C134 1.386 . S
C129 C135 1.483 . S
C130 H105 0.949 . S
C130 C129 1.376 . S
C130 C131 1.397 . S
C131 H106 0.950 . S
C131 C130 1.397 . S
C131 C132 1.391 . S
C132 C131 1.391 . S
C132 C133 1.405 . S
C133 H107 0.950 . S
C133 C132 1.405 . S
C133 C134 1.367 . S
C134 H108 0.950 . S
C134 C129 1.386 . S
C134 C133 1.367 . S
C135 C129 1.483 . S
C135 C136 1.382 . S
C135 C137 1.403 1_554 S
C136 H109 0.950 . S
C136 C122 1.411 . S
C136 C135 1.382 . S
C137 C121 1.411 . S
C137 C135 1.403 1_556 S
C137 C138 1.489 . S
C138 C137 1.489 . S
C138 C139 1.383 . S
C138 C143 1.382 . S
C139 H110 0.950 . S
C139 C138 1.383 . S
C139 C140 1.395 . S
C140 H111 0.950 . S
C140 C139 1.395 . S
C140 C141 1.288 . S
C141 C140 1.288 . S
C141 C142 1.392 . S
C142 H112 0.951 . S
C142 C141 1.392 . S
C142 C143 1.392 . S
C143 H113 0.949 . S
C143 C138 1.382 . S
C143 C142 1.392 . S
H144 C163 0.949 . S
H145 C164 0.950 . S
H146 C166 0.950 . S
H147 C167 0.950 . S
H148 C169 0.950 . S
H149 C172 0.950 . S
H150 C173 0.950 . S
H151 C175 0.951 . S
H152 C176 0.949 . S
H153 C178 0.949 . S
H154 C179 0.950 . S
H155 C181 0.950 . S
H156 C182 0.950 . S
H157 C184 0.950 1_556 S
H158 C187 0.950 . S
H159 C188 0.950 . S
H160 C190 0.951 . S
H161 C191 0.949 . S
C162 C163 1.376 . S
C162 C167 1.386 . S
C162 C168 1.483 . S
C163 H144 0.949 . S
C163 C162 1.376 . S
C163 C164 1.397 . S
C164 H145 0.950 . S
C164 C163 1.397 . S
C164 C165 1.391 . S
C165 C164 1.391 . S
C165 C166 1.405 . S
C166 H146 0.950 . S
C166 C165 1.405 . S
C166 C167 1.367 . S
C167 H147 0.950 . S
C167 C162 1.386 . S
C167 C166 1.367 . S
C168 C162 1.483 . S
C168 C169 1.382 . S
C168 C170 1.403 . S
C169 H148 0.950 . S
C169 C168 1.382 . S
C169 C185 1.411 . S
C170 C168 1.403 . S
C170 C171 1.489 . S
C170 C184 1.411 . S
C171 C170 1.489 . S
C171 C172 1.383 . S
C171 C176 1.382 1_554 S
C172 H149 0.950 . S
C172 C171 1.383 . S
C172 C173 1.395 1_554 S
C173 H150 0.950 . S
C173 C172 1.395 1_556 S
C173 C174 1.288 . S
C174 C173 1.288 . S
C174 C175 1.392 . S
C175 H151 0.951 . S
C175 C174 1.392 . S
C175 C176 1.392 . S
C176 H152 0.949 . S
C176 C171 1.382 1_556 S
C176 C175 1.392 . S
C177 C178 1.376 1_554 S
C177 C182 1.386 . S
C177 C183 1.483 . S
C178 H153 0.949 . S
C178 C177 1.376 1_556 S
C178 C179 1.397 . S
C179 H154 0.950 . S
C179 C178 1.397 . S
C179 C180 1.391 . S
C180 C179 1.391 . S
C180 C181 1.405 . S
C181 H155 0.950 . S
C181 C180 1.405 . S
C181 C182 1.367 1_556 S
C182 H156 0.950 . S
C182 C177 1.386 . S
C182 C181 1.367 1_554 S
C183 C177 1.483 . S
C183 C184 1.382 . S
C183 C185 1.403 . S
C184 H157 0.950 1_554 S
C184 C170 1.411 . S
C184 C183 1.382 . S
C185 C169 1.411 . S
C185 C183 1.403 . S
C185 C186 1.489 . S
C186 C185 1.489 . S
C186 C187 1.383 . S
C186 C191 1.382 . S
C187 H158 0.950 . S
C187 C186 1.383 . S
C187 C188 1.395 . S
C188 H159 0.950 . S
C188 C187 1.395 . S
C188 C189 1.288 . S
C189 C188 1.288 . S
C189 C190 1.392 . S
C190 H160 0.951 . S
C190 C189 1.392 . S
C190 C191 1.392 . S
C191 H161 0.949 . S
C191 C186 1.382 . S
C191 C190 1.392 . S
H192 C211 0.949 . S
H193 C212 0.950 . S
H194 C214 0.950 . S
H195 C215 0.950 . S
H196 C217 0.956 . S
H197 C220 0.950 . S
H198 C221 0.950 . S
H199 C223 0.951 . S
H200 C224 0.949 . S
H201 C226 0.949 . S
H202 C227 0.950 . S
H203 C229 0.950 . S
H204 C230 0.950 . S
H205 C232 0.950 . S
H206 C235 0.950 . S
H207 C236 0.953 . S
H208 C238 0.951 . S
H209 C239 0.949 . S
C210 C211 1.376 . S
C210 C215 1.386 . S
C210 C216 1.483 . S
C211 H192 0.949 . S
C211 C210 1.376 . S
C211 C212 1.397 1_554 S
C212 H193 0.950 . S
C212 C211 1.397 1_556 S
C212 C213 1.391 . S
C213 C212 1.391 . S
C213 C214 1.405 1_556 S
C214 H194 0.950 . S
C214 C213 1.405 1_554 S
C214 C215 1.367 . S
C215 H195 0.950 . S
C215 C210 1.386 . S
C215 C214 1.367 . S
C216 C210 1.483 . S
C216 C217 1.382 . S
C216 C218 1.403 . S
C217 H196 0.956 . S
C217 C216 1.382 . S
C217 C233 1.411 . S
C218 C216 1.403 . S
C218 C219 1.489 . S
C218 C232 1.411 . S
C219 C218 1.489 . S
C219 C220 1.383 . S
C219 C224 1.382 . S
C220 H197 0.950 . S
C220 C219 1.383 . S
C220 C221 1.395 . S
C221 H198 0.950 . S
C221 C220 1.395 . S
C221 C222 1.288 . S
C222 C221 1.288 . S
C222 C223 1.392 . S
C223 H199 0.951 . S
C223 C222 1.392 . S
C223 C224 1.392 . S
C224 H200 0.949 . S
C224 C219 1.382 . S
C224 C223 1.392 . S
C225 C226 1.376 . S
C225 C230 1.386 . S
C225 C231 1.483 . S
C226 H201 0.949 . S
C226 C225 1.376 . S
C226 C227 1.397 . S
C227 H202 0.950 . S
C227 C226 1.397 . S
C227 C228 1.391 . S
C228 C227 1.391 . S
C228 C229 1.405 . S
C229 H203 0.950 . S
C229 C228 1.405 . S
C229 C230 1.367 . S
C230 H204 0.950 . S
C230 C225 1.386 . S
C230 C229 1.367 . S
C231 C225 1.483 . S
C231 C232 1.382 . S
C231 C233 1.403 . S
C232 H205 0.950 . S
C232 C218 1.411 . S
C232 C231 1.382 . S
C233 C217 1.411 . S
C233 C231 1.403 . S
C233 C234 1.489 . S
C234 C233 1.489 . S
C234 C235 1.383 . S
C234 C239 1.382 1_554 S
C235 H206 0.950 . S
C235 C234 1.383 . S
C235 C236 1.395 1_554 S
C236 H207 0.953 . S
C236 C235 1.395 1_556 S
C236 C237 1.288 . S
C237 C236 1.288 . S
C237 C238 1.392 . S
C238 H208 0.951 . S
C238 C237 1.392 . S
C238 C239 1.392 . S
C239 H209 0.949 . S
C239 C234 1.382 1_556 S
C239 C238 1.392 . S
H240 C259 0.949 . S
H241 C260 0.950 . S
H242 C262 0.950 . S
H243 C263 0.950 . S
H244 C265 0.950 . S
H245 C268 0.950 . S
H246 C269 0.950 . S
H247 C271 0.951 . S
H248 C272 0.949 . S
H249 C274 0.949 . S
H250 C275 0.950 . S
H251 C277 0.950 . S
H252 C278 0.950 . S
H253 C280 0.950 . S
H254 C283 0.950 . S
H255 C284 0.950 . S
H256 C286 0.951 . S
H257 C287 0.949 . S
C258 C259 1.376 . S
C258 C263 1.386 . S
C258 C264 1.483 . S
C259 H240 0.949 . S
C259 C258 1.376 . S
C259 C260 1.397 . S
C260 H241 0.950 . S
C260 C259 1.397 . S
C260 C261 1.391 . S
C261 C260 1.391 . S
C261 C262 1.405 . S
C262 H242 0.950 . S
C262 C261 1.405 . S
C262 C263 1.367 . S
C263 H243 0.950 . S
C263 C258 1.386 . S
C263 C262 1.367 . S
C264 C258 1.483 . S
C264 C265 1.382 . S
C264 C266 1.403 . S
C265 H244 0.950 . S
C265 C264 1.382 . S
C265 C281 1.411 . S
C266 C264 1.403 . S
C266 C267 1.489 . S
C266 C280 1.411 . S
C267 C266 1.489 . S
C267 C268 1.383 . S
C267 C272 1.382 . S
C268 H245 0.950 . S
C268 C267 1.383 . S
C268 C269 1.395 . S
C269 H246 0.950 . S
C269 C268 1.395 . S
C269 C270 1.288 . S
C270 C269 1.288 . S
C270 C271 1.392 . S
C271 H247 0.951 . S
C271 C270 1.392 . S
C271 C272 1.392 . S
C272 H248 0.949 . S
C272 C267 1.382 . S
C272 C271 1.392 . S
C273 C274 1.376 . S
C273 C278 1.386 . S
C273 C279 1.483 . S
C274 H249 0.949 . S
C274 C273 1.376 . S
C274 C275 1.397 . S
C275 H250 0.950 . S
C275 C274 1.397 . S
C275 C276 1.391 . S
C276 C275 1.391 . S
C276 C277 1.405 . S
C277 H251 0.950 . S
C277 C276 1.405 . S
C277 C278 1.367 . S
C278 H252 0.950 . S
C278 C273 1.386 . S
C278 C277 1.367 . S
C279 C273 1.483 . S
C279 C280 1.382 . S
C279 C281 1.403 . S
C280 H253 0.950 . S
C280 C266 1.411 . S
C280 C279 1.382 . S
C281 C265 1.411 . S
C281 C279 1.403 . S
C281 C282 1.489 . S
C282 C281 1.489 . S
C282 C283 1.383 . S
C282 C287 1.382 . S
C283 H254 0.950 . S
C283 C282 1.383 . S
C283 C284 1.395 . S
C284 H255 0.950 . S
C284 C283 1.395 . S
C284 C285 1.288 . S
C285 C284 1.288 . S
C285 C286 1.392 . S
C286 H256 0.951 . S
C286 C285 1.392 . S
C286 C287 1.392 . S
C287 H257 0.949 . S
C287 C282 1.382 . S
C287 C286 1.392 . S
C288 O300 1.241 . S
C288 O301 1.280 . S
C289 O302 1.277 . S
C289 O303 1.245 . S
C290 O314 1.247 . S
C290 O316 1.289 . S
Mg291 O292 1.926 . S
Mg291 O301 1.984 . S
Mg291 O303 1.988 1_655 S
Mg291 O304 2.061 . S
O292 Mg291 1.926 . S
O292 Mg293 1.988 1_655 S
O292 Mg294 1.918 1_655 S
Mg293 O292 1.988 1_455 S
Mg293 O300 2.034 1_455 S
Mg293 O302 2.070 . S
Mg293 O308 2.010 1_455 S
Mg293 O316 2.244 . S
Mg294 O292 1.918 1_455 S
Mg294 O295 1.916 . S
Mg294 O305 2.102 1_455 S
Mg294 O307 2.064 1_455 S
Mg294 O316 2.111 . S
Mg294 O317 2.094 . S
O295 Mg294 1.916 . S
O295 Mg296 1.926 . S
O295 Mg297 1.986 . S
Mg296 O295 1.926 . S
Mg296 O310 1.984 . S
Mg296 O313 1.988 1_455 S
Mg296 O314 2.061 . S
Mg297 O295 1.986 . S
Mg297 O305 2.237 1_455 S
Mg297 O309 2.043 . S
Mg297 O311 2.040 1_455 S
Mg297 O318 2.040 . S
C298 O304 1.247 . S
C298 O305 1.289 . S
C299 O317 1.245 . S
C299 O318 1.274 . S
O300 C288 1.241 . S
O300 Mg293 2.034 1_655 S
O301 C288 1.280 . S
O301 Mg291 1.984 . S
O302 C289 1.277 . S
O302 Mg293 2.070 . S
O303 C289 1.245 . S
O303 Mg291 1.988 1_455 S
O304 Mg291 2.061 . S
O304 C298 1.247 . S
O305 Mg294 2.102 1_655 S
O305 Mg297 2.237 1_655 S
O305 C298 1.289 . S
C306 O307 1.245 . S
C306 O308 1.274 . S
O307 Mg294 2.064 1_655 S
O307 C306 1.245 . S
O308 Mg293 2.010 1_655 S
O308 C306 1.274 . S
O309 Mg297 2.043 . S
O309 C312 1.241 . S
O310 Mg296 1.984 . S
O310 C312 1.280 . S
O311 Mg297 2.040 1_655 S
O311 C315 1.277 . S
C312 O309 1.241 . S
C312 O310 1.280 . S
O313 Mg296 1.988 1_655 S
O313 C315 1.245 . S
O314 C290 1.247 . S
O314 Mg296 2.061 . S
C315 O311 1.277 . S
C315 O313 1.245 . S
O316 C290 1.289 . S
O316 Mg293 2.244 . S
O316 Mg294 2.111 . S
O317 Mg294 2.094 . S
O317 C299 1.245 . S
O318 Mg297 2.040 . S
O318 C299 1.274 . S
C319 O331 1.241 . S
C319 O332 1.280 . S
C320 O333 1.277 . S
C320 O334 1.245 . S
C321 O345 1.247 . S
C321 O347 1.289 . S
Mg322 O323 1.926 . S
Mg322 O332 1.984 . S
Mg322 O334 1.988 1_545 S
Mg322 O335 2.061 . S
O323 Mg322 1.926 . S
O323 Mg324 1.986 . S
O323 Mg325 1.917 . S
Mg324 O323 1.986 . S
Mg324 O331 2.042 . S
Mg324 O333 2.041 1_545 S
Mg324 O339 2.038 . S
Mg324 O347 2.238 1_545 S
Mg325 O323 1.917 . S
Mg325 O326 1.917 . S
Mg325 O336 2.106 . S
Mg325 O338 2.079 . S
Mg325 O347 2.106 1_545 S
Mg325 O348 2.079 1_545 S
O326 Mg325 1.917 . S
O326 Mg327 1.928 . S
O326 Mg328 1.986 . S
Mg327 O326 1.928 . S
Mg327 O341 1.983 1_545 S
Mg327 O344 1.990 . S
Mg327 O345 2.060 1_545 S
Mg328 O326 1.986 . S
Mg328 O336 2.238 . S
Mg328 O340 2.042 1_545 S
Mg328 O342 2.041 . S
Mg328 O349 2.038 1_545 S
C329 O335 1.247 . S
C329 O336 1.289 . S
C330 O348 1.245 . S
C330 O349 1.274 . S
O331 C319 1.241 . S
O331 Mg324 2.042 . S
O332 C319 1.280 . S
O332 Mg322 1.984 . S
O333 C320 1.277 . S
O333 Mg324 2.041 1_565 S
O334 C320 1.245 . S
O334 Mg322 1.988 1_565 S
O335 Mg322 2.061 . S
O335 C329 1.247 . S
O336 Mg325 2.106 . S
O336 Mg328 2.238 . S
O336 C329 1.289 . S
C337 O338 1.245 . S
C337 O339 1.274 . S
O338 Mg325 2.079 . S
O338 C337 1.245 . S
O339 Mg324 2.038 . S
O339 C337 1.274 . S
O340 Mg328 2.042 1_565 S
O340 C343 1.241 . S
O341 Mg327 1.983 1_565 S
O341 C343 1.280 . S
O342 Mg328 2.041 . S
O342 C346 1.277 . S
C343 O340 1.241 . S
C343 O341 1.280 . S
O344 Mg327 1.990 . S
O344 C346 1.245 . S
O345 C321 1.247 . S
O345 Mg327 2.060 1_565 S
C346 O342 1.277 . S
C346 O344 1.245 . S
O347 C321 1.289 . S
O347 Mg324 2.238 1_565 S
O347 Mg325 2.106 1_565 S
O348 Mg325 2.079 1_565 S
O348 C330 1.245 . S
O349 Mg328 2.038 1_565 S
O349 C330 1.274 . S
C350 O362 1.241 . S
C350 O363 1.280 . S
C351 O364 1.277 . S
C351 O365 1.245 . S
C352 O376 1.247 . S
C352 O378 1.289 . S
Mg353 O354 1.926 . S
Mg353 O363 1.984 . S
Mg353 O365 1.988 . S
Mg353 O366 2.061 . S
O354 Mg353 1.926 . S
O354 Mg355 1.986 . S
O354 Mg356 1.917 . S
Mg355 O354 1.986 . S
Mg355 O362 2.042 . S
Mg355 O364 2.041 . S
Mg355 O370 2.038 . S
Mg355 O378 2.238 . S
Mg356 O354 1.917 . S
Mg356 O357 1.917 . S
Mg356 O367 2.106 . S
Mg356 O369 2.079 . S
Mg356 O378 2.106 . S
Mg356 O379 2.079 . S
O357 Mg356 1.917 . S
O357 Mg358 1.926 . S
O357 Mg359 1.986 . S
Mg358 O357 1.926 . S
Mg358 O372 1.984 . S
Mg358 O375 1.988 . S
Mg358 O376 2.061 . S
Mg359 O357 1.986 . S
Mg359 O367 2.238 . S
Mg359 O371 2.042 . S
Mg359 O373 2.041 . S
Mg359 O380 2.038 . S
C360 O366 1.247 . S
C360 O367 1.289 . S
C361 O379 1.245 . S
C361 O380 1.274 . S
O362 C350 1.241 . S
O362 Mg355 2.042 . S
O363 C350 1.280 . S
O363 Mg353 1.984 . S
O364 C351 1.277 . S
O364 Mg355 2.041 . S
O365 C351 1.245 . S
O365 Mg353 1.988 . S
O366 Mg353 2.061 . S
O366 C360 1.247 . S
O367 Mg356 2.106 . S
O367 Mg359 2.238 . S
O367 C360 1.289 . S
C368 O369 1.245 . S
C368 O370 1.274 . S
O369 Mg356 2.079 . S
O369 C368 1.245 . S
O370 Mg355 2.038 . S
O370 C368 1.274 . S
O371 Mg359 2.042 . S
O371 C374 1.241 . S
O372 Mg358 1.984 . S
O372 C374 1.280 . S
O373 Mg359 2.041 . S
O373 C377 1.277 . S
C374 O371 1.241 . S
C374 O372 1.280 . S
O375 Mg358 1.988 . S
O375 C377 1.245 . S
O376 C352 1.247 . S
O376 Mg358 2.061 . S
C377 O373 1.277 . S
C377 O375 1.245 . S
O378 C352 1.289 . S
O378 Mg355 2.238 . S
O378 Mg356 2.106 . S
O379 Mg356 2.079 . S
O379 C361 1.245 . S
O380 Mg359 2.038 . S
O380 C361 1.274 . S
C381 C382 1.349 . S
C381 C383 1.327 . S
C381 H406 0.950 . S
C382 C381 1.349 . S
C382 C398 1.349 . S
C383 C381 1.327 . S
C383 C402 1.429 . S
C383 H407 0.950 . S
C384 C401 1.574 . S
C384 C403 1.368 . S
C384 H408 0.949 . S
H385 C389 0.949 . S
C386 C387 1.349 . S
C386 C388 1.327 . S
C386 H409 0.950 . S
C387 C386 1.349 . S
C387 C399 1.349 . S
C388 C386 1.327 . S
C388 C404 1.429 . S
C388 H410 0.950 . S
C389 H385 0.949 . S
C389 C397 1.574 . S
C389 C405 1.368 . S
H390 C398 0.950 . S
H391 C396 0.950 . S
H392 C397 0.949 . S
H393 C399 0.950 . S
H394 C400 0.950 . S
H395 C401 0.949 . S
C396 H391 0.950 . S
C396 C398 1.327 . S
C396 C402 1.429 . S
C397 C389 1.574 . S
C397 H392 0.949 . S
C397 C403 1.368 . S
C398 C382 1.349 . S
C398 H390 0.950 . S
C398 C396 1.327 . S
C399 C387 1.349 . S
C399 H393 0.950 . S
C399 C400 1.327 . S
C400 H394 0.950 . S
C400 C399 1.327 . S
C400 C404 1.429 . S
C401 C384 1.574 . S
C401 H395 0.949 . S
C401 C405 1.368 . S
C402 C383 1.429 . S
C402 C396 1.429 . S
C402 C403 1.523 . S
C403 C384 1.368 . S
C403 C397 1.368 . S
C403 C402 1.523 . S
C404 C388 1.429 . S
C404 C400 1.429 . S
C404 C405 1.523 . S
C405 C389 1.368 . S
C405 C401 1.368 . S
C405 C404 1.523 . S
H406 C381 0.950 . S
H407 C383 0.950 . S
H408 C384 0.949 . S
H409 C386 0.950 . S
H410 C388 0.950 . S
C411 C412 1.349 . S
C411 C413 1.327 . S
C411 H436 0.950 . S
C412 C411 1.349 . S
C412 C428 1.349 . S
C413 C411 1.327 . S
C413 C432 1.429 . S
C413 H437 0.950 . S
C414 C431 1.574 . S
C414 C433 1.368 . S
C414 H438 0.949 . S
H415 C419 0.949 . S
C416 C417 1.349 . S
C416 C418 1.327 . S
C416 H439 0.950 . S
C417 C416 1.349 . S
C417 C429 1.349 . S
C418 C416 1.327 . S
C418 C434 1.429 . S
C418 H440 0.950 . S
C419 H415 0.949 . S
C419 C427 1.574 . S
C419 C435 1.368 . S
H420 C428 0.950 . S
H421 C426 0.950 . S
H422 C427 0.949 . S
H423 C429 0.950 . S
H424 C430 0.950 . S
H425 C431 0.949 . S
C426 H421 0.950 . S
C426 C428 1.327 . S
C426 C432 1.429 . S
C427 C419 1.574 . S
C427 H422 0.949 . S
C427 C433 1.368 . S
C428 C412 1.349 . S
C428 H420 0.950 . S
C428 C426 1.327 . S
C429 C417 1.349 . S
C429 H423 0.950 . S
C429 C430 1.327 . S
C430 H424 0.950 . S
C430 C429 1.327 . S
C430 C434 1.429 . S
C431 C414 1.574 . S
C431 H425 0.949 . S
C431 C435 1.368 . S
C432 C413 1.429 . S
C432 C426 1.429 . S
C432 C433 1.523 . S
C433 C414 1.368 . S
C433 C427 1.368 . S
C433 C432 1.523 . S
C434 C418 1.429 . S
C434 C430 1.429 . S
C434 C435 1.523 . S
C435 C419 1.368 . S
C435 C431 1.368 . S
C435 C434 1.523 . S
H436 C411 0.950 . S
H437 C413 0.950 . S
H438 C414 0.949 . S
H439 C416 0.950 . S
H440 C418 0.950 . S
C441 C442 1.349 . S
C441 C443 1.327 . S
C441 H466 0.950 . S
C442 C441 1.349 . S
C442 C458 1.349 . S
C443 C441 1.327 . S
C443 C462 1.429 . S
C443 H467 0.950 . S
C444 C461 1.574 . S
C444 C463 1.368 . S
C444 H468 0.949 . S
H445 C449 0.949 . S
C446 C447 1.349 . S
C446 C448 1.327 . S
C446 H469 0.950 . S
C447 C446 1.349 . S
C447 C459 1.349 . S
C448 C446 1.327 . S
C448 C464 1.429 . S
C448 H470 0.950 . S
C449 H445 0.949 . S
C449 C457 1.574 . S
C449 C465 1.368 . S
H450 C458 0.950 . S
H451 C456 0.950 . S
H452 C457 0.949 . S
H453 C459 0.950 . S
H454 C460 0.950 . S
H455 C461 0.949 . S
C456 H451 0.950 . S
C456 C458 1.327 . S
C456 C462 1.429 . S
C457 C449 1.574 . S
C457 H452 0.949 . S
C457 C463 1.368 . S
C458 C442 1.349 . S
C458 H450 0.950 . S
C458 C456 1.327 . S
C459 C447 1.349 . S
C459 H453 0.950 . S
C459 C460 1.327 . S
C460 H454 0.950 . S
C460 C459 1.327 . S
C460 C464 1.429 . S
C461 C444 1.574 . S
C461 H455 0.949 . S
C461 C465 1.368 . S
C462 C443 1.429 . S
C462 C456 1.429 . S
C462 C463 1.523 . S
C463 C444 1.368 . S
C463 C457 1.368 . S
C463 C462 1.523 . S
C464 C448 1.429 . S
C464 C460 1.429 . S
C464 C465 1.523 . S
C465 C449 1.368 . S
C465 C461 1.368 . S
C465 C464 1.523 . S
H466 C441 0.950 . S
H467 C443 0.950 . S
H468 C444 0.949 . S
H469 C446 0.950 . S
H470 C448 0.950 . S
C471 C472 1.349 . S
C471 C473 1.327 . S
C471 H496 0.950 . S
C472 C471 1.349 . S
C472 C488 1.349 . S
C473 C471 1.327 . S
C473 C492 1.429 . S
C473 H497 0.950 . S
C474 C491 1.574 . S
C474 C493 1.368 . S
C474 H498 0.949 . S
H475 C479 0.949 . S
C476 C477 1.349 . S
C476 C478 1.327 . S
C476 H499 0.950 . S
C477 C476 1.349 . S
C477 C489 1.349 . S
C478 C476 1.327 . S
C478 C494 1.429 . S
C478 H500 0.950 . S
C479 H475 0.949 . S
C479 C487 1.574 . S
C479 C495 1.368 . S
H480 C488 0.950 . S
H481 C486 0.950 . S
H482 C487 0.949 . S
H483 C489 0.950 . S
H484 C490 0.950 . S
H485 C491 0.949 . S
C486 H481 0.950 . S
C486 C488 1.327 . S
C486 C492 1.429 . S
C487 C479 1.574 . S
C487 H482 0.949 . S
C487 C493 1.368 . S
C488 C472 1.349 . S
C488 H480 0.950 . S
C488 C486 1.327 . S
C489 C477 1.349 . S
C489 H483 0.950 . S
C489 C490 1.327 . S
C490 H484 0.950 . S
C490 C489 1.327 . S
C490 C494 1.429 . S
C491 C474 1.574 . S
C491 H485 0.949 . S
C491 C495 1.368 . S
C492 C473 1.429 . S
C492 C486 1.429 . S
C492 C493 1.523 . S
C493 C474 1.368 . S
C493 C487 1.368 . S
C493 C492 1.523 . S
C494 C478 1.429 . S
C494 C490 1.429 . S
C494 C495 1.523 . S
C495 C479 1.368 . S
C495 C491 1.368 . S
C495 C494 1.523 . S
H496 C471 0.950 . S
H497 C473 0.950 . S
H498 C474 0.949 . S
H499 C476 0.950 . S
H500 C478 0.950 . S
C501 C502 1.349 . S
C501 C503 1.327 . S
C501 H526 0.950 . S
C502 C501 1.349 . S
C502 C518 1.349 . S
C503 C501 1.327 . S
C503 C522 1.429 . S
C503 H527 0.950 . S
C504 C521 1.574 . S
C504 C523 1.368 . S
C504 H528 0.949 . S
H505 C509 0.949 . S
C506 C507 1.349 . S
C506 C508 1.327 . S
C506 H529 0.950 . S
C507 C506 1.349 . S
C507 C519 1.349 . S
C508 C506 1.327 . S
C508 C524 1.429 . S
C508 H530 0.950 . S
C509 H505 0.949 . S
C509 C517 1.574 . S
C509 C525 1.368 . S
H510 C518 0.950 . S
H511 C516 0.950 . S
H512 C517 0.949 . S
H513 C519 0.950 . S
H514 C520 0.950 . S
H515 C521 0.949 . S
C516 H511 0.950 . S
C516 C518 1.327 . S
C516 C522 1.429 . S
C517 C509 1.574 . S
C517 H512 0.949 . S
C517 C523 1.368 . S
C518 C502 1.349 . S
C518 H510 0.950 . S
C518 C516 1.327 . S
C519 C507 1.349 . S
C519 H513 0.950 . S
C519 C520 1.327 . S
C520 H514 0.950 . S
C520 C519 1.327 . S
C520 C524 1.429 . S
C521 C504 1.574 . S
C521 H515 0.949 . S
C521 C525 1.368 . S
C522 C503 1.429 . S
C522 C516 1.429 . S
C522 C523 1.523 . S
C523 C504 1.368 . S
C523 C517 1.368 . S
C523 C522 1.523 . S
C524 C508 1.429 . S
C524 C520 1.429 . S
C524 C525 1.523 . S
C525 C509 1.368 . S
C525 C521 1.368 . S
C525 C524 1.523 . S
H526 C501 0.950 . S
H527 C503 0.950 . S
H528 C504 0.949 . S
H529 C506 0.950 . S
H530 C508 0.950 . S
C531 C532 1.349 . S
C531 C533 1.327 . S
C531 H556 0.950 . S
C532 C531 1.349 . S
C532 C548 1.349 . S
C533 C531 1.327 . S
C533 C552 1.429 . S
C533 H557 0.950 . S
C534 C551 1.574 . S
C534 C553 1.368 . S
C534 H558 0.949 . S
H535 C539 0.949 . S
C536 C537 1.349 . S
C536 C538 1.327 . S
C536 H559 0.950 . S
C537 C536 1.349 . S
C537 C549 1.349 . S
C538 C536 1.327 . S
C538 C554 1.429 . S
C538 H560 0.950 . S
C539 H535 0.949 . S
C539 C547 1.574 . S
C539 C555 1.368 . S
H540 C548 0.950 . S
H541 C546 0.950 . S
H542 C547 0.949 . S
H543 C549 0.950 . S
H544 C550 0.950 . S
H545 C551 0.949 . S
C546 H541 0.950 . S
C546 C548 1.327 . S
C546 C552 1.429 . S
C547 C539 1.574 . S
C547 H542 0.949 . S
C547 C553 1.368 . S
C548 C532 1.349 . S
C548 H540 0.950 . S
C548 C546 1.327 . S
C549 C537 1.349 . S
C549 H543 0.950 . S
C549 C550 1.327 . S
C550 H544 0.950 . S
C550 C549 1.327 . S
C550 C554 1.429 . S
C551 C534 1.574 . S
C551 H545 0.949 . S
C551 C555 1.368 . S
C552 C533 1.429 . S
C552 C546 1.429 . S
C552 C553 1.523 . S
C553 C534 1.368 . S
C553 C547 1.368 . S
C553 C552 1.523 . S
C554 C538 1.429 . S
C554 C550 1.429 . S
C554 C555 1.523 . S
C555 C539 1.368 . S
C555 C551 1.368 . S
C555 C554 1.523 . S
H556 C531 0.950 . S
H557 C533 0.950 . S
H558 C534 0.949 . S
H559 C536 0.950 . S
H560 C538 0.950 . S
C561 C562 1.349 . S
C561 C563 1.327 . S
C561 H586 0.950 . S
C562 C561 1.349 . S
C562 C578 1.349 . S
C563 C561 1.327 . S
C563 C582 1.429 . S
C563 H587 0.950 . S
C564 C581 1.574 . S
C564 C583 1.368 . S
C564 H588 0.949 . S
H565 C569 0.949 . S
C566 C567 1.349 . S
C566 C568 1.327 . S
C566 H589 0.950 . S
C567 C566 1.349 . S
C567 C579 1.349 . S
C568 C566 1.327 . S
C568 C584 1.429 . S
C568 H590 0.950 . S
C569 H565 0.949 . S
C569 C577 1.574 . S
C569 C585 1.368 . S
H570 C578 0.950 . S
H571 C576 0.950 . S
H572 C577 0.949 . S
H573 C579 0.950 . S
H574 C580 0.950 . S
H575 C581 0.949 . S
C576 H571 0.950 . S
C576 C578 1.327 . S
C576 C582 1.429 . S
C577 C569 1.574 . S
C577 H572 0.949 . S
C577 C583 1.368 . S
C578 C562 1.349 . S
C578 H570 0.950 . S
C578 C576 1.327 . S
C579 C567 1.349 . S
C579 H573 0.950 . S
C579 C580 1.327 . S
C580 H574 0.950 . S
C580 C579 1.327 . S
C580 C584 1.429 . S
C581 C564 1.574 . S
C581 H575 0.949 . S
C581 C585 1.368 . S
C582 C563 1.429 . S
C582 C576 1.429 . S
C582 C583 1.523 . S
C583 C564 1.368 . S
C583 C577 1.368 . S
C583 C582 1.523 . S
C584 C568 1.429 . S
C584 C580 1.429 . S
C584 C585 1.523 . S
C585 C569 1.368 . S
C585 C581 1.368 . S
C585 C584 1.523 . S
H586 C561 0.950 . S
H587 C563 0.950 . S
H588 C564 0.949 . S
H589 C566 0.950 . S
H590 C568 0.950 . S
C591 C592 1.349 . S
C591 C593 1.327 . S
C591 H616 0.950 . S
C592 C591 1.349 . S
C592 C608 1.349 . S
C593 C591 1.327 . S
C593 C612 1.429 . S
C593 H617 0.950 . S
C594 C611 1.574 . S
C594 C613 1.368 . S
C594 H618 0.949 . S
H595 C599 0.949 . S
C596 C597 1.349 . S
C596 C598 1.327 . S
C596 H619 0.950 . S
C597 C596 1.349 . S
C597 C609 1.349 . S
C598 C596 1.327 . S
C598 C614 1.429 . S
C598 H620 0.950 . S
C599 H595 0.949 . S
C599 C607 1.574 . S
C599 C615 1.368 . S
H600 C608 0.950 . S
H601 C606 0.950 . S
H602 C607 0.949 . S
H603 C609 0.950 . S
H604 C610 0.950 . S
H605 C611 0.949 . S
C606 H601 0.950 . S
C606 C608 1.327 . S
C606 C612 1.429 . S
C607 C599 1.574 . S
C607 H602 0.949 . S
C607 C613 1.368 . S
C608 C592 1.349 . S
C608 H600 0.950 . S
C608 C606 1.327 . S
C609 C597 1.349 . S
C609 H603 0.950 . S
C609 C610 1.327 . S
C610 H604 0.950 . S
C610 C609 1.327 . S
C610 C614 1.429 . S
C611 C594 1.574 . S
C611 H605 0.949 . S
C611 C615 1.368 . S
C612 C593 1.429 . S
C612 C606 1.429 . S
C612 C613 1.523 . S
C613 C594 1.368 . S
C613 C607 1.368 . S
C613 C612 1.523 . S
C614 C598 1.429 . S
C614 C610 1.429 . S
C614 C615 1.523 . S
C615 C599 1.368 . S
C615 C611 1.368 . S
C615 C614 1.523 . S
H616 C591 0.950 . S
H617 C593 0.950 . S
H618 C594 0.949 . S
H619 C596 0.950 . S
H620 C598 0.950 . S
C621 C622 1.349 . S
C621 C623 1.327 . S
C621 H646 0.950 . S
C622 C621 1.349 . S
C622 C638 1.349 . S
C623 C621 1.327 . S
C623 C642 1.429 . S
C623 H647 0.950 . S
C624 C641 1.574 . S
C624 C643 1.368 . S
C624 H648 0.949 . S
H625 C629 0.949 . S
C626 C627 1.349 . S
C626 C628 1.327 . S
C626 H649 0.950 . S
C627 C626 1.349 . S
C627 C639 1.349 . S
C628 C626 1.327 . S
C628 C644 1.429 . S
C628 H650 0.950 . S
C629 H625 0.949 . S
C629 C637 1.574 . S
C629 C645 1.368 . S
H630 C638 0.950 . S
H631 C636 0.950 . S
H632 C637 0.949 . S
H633 C639 0.950 . S
H634 C640 0.950 . S
H635 C641 0.949 . S
C636 H631 0.950 . S
C636 C638 1.327 . S
C636 C642 1.429 . S
C637 C629 1.574 . S
C637 H632 0.949 . S
C637 C643 1.368 . S
C638 C622 1.349 . S
C638 H630 0.950 . S
C638 C636 1.327 . S
C639 C627 1.349 . S
C639 H633 0.950 . S
C639 C640 1.327 . S
C640 H634 0.950 . S
C640 C639 1.327 . S
C640 C644 1.429 . S
C641 C624 1.574 . S
C641 H635 0.949 . S
C641 C645 1.368 . S
C642 C623 1.429 . S
C642 C636 1.429 . S
C642 C643 1.523 . S
C643 C624 1.368 . S
C643 C637 1.368 . S
C643 C642 1.523 . S
C644 C628 1.429 . S
C644 C640 1.429 . S
C644 C645 1.523 . S
C645 C629 1.368 . S
C645 C641 1.368 . S
C645 C644 1.523 . S
H646 C621 0.950 . S
H647 C623 0.950 . S
H648 C624 0.949 . S
H649 C626 0.950 . S
H650 C628 0.950 . S
C651 C652 1.349 . S
C651 C653 1.327 1_554 S
C651 H676 0.950 1_554 S
C652 C651 1.349 . S
C652 C668 1.349 . S
C653 C651 1.327 1_556 S
C653 C672 1.429 . S
C653 H677 0.950 . S
C654 C671 1.574 . S
C654 C673 1.368 . S
C654 H678 0.949 . S
H655 C659 0.949 . S
C656 C657 1.349 . S
C656 C658 1.327 . S
C656 H679 0.950 . S
C657 C656 1.349 . S
C657 C669 1.349 . S
C658 C656 1.327 . S
C658 C674 1.429 . S
C658 H680 0.950 . S
C659 H655 0.949 . S
C659 C667 1.574 . S
C659 C675 1.368 . S
H660 C668 0.950 . S
H661 C666 0.950 . S
H662 C667 0.949 . S
H663 C669 0.950 . S
H664 C670 0.950 . S
H665 C671 0.949 . S
C666 H661 0.950 . S
C666 C668 1.327 . S
C666 C672 1.429 1_554 S
C667 C659 1.574 . S
C667 H662 0.949 . S
C667 C673 1.368 . S
C668 C652 1.349 . S
C668 H660 0.950 . S
C668 C666 1.327 . S
C669 C657 1.349 . S
C669 H663 0.950 . S
C669 C670 1.327 . S
C670 H664 0.950 . S
C670 C669 1.327 . S
C670 C674 1.429 . S
C671 C654 1.574 . S
C671 H665 0.949 . S
C671 C675 1.368 . S
C672 C653 1.429 . S
C672 C666 1.429 1_556 S
C672 C673 1.523 . S
C673 C654 1.368 . S
C673 C667 1.368 . S
C673 C672 1.523 . S
C674 C658 1.429 . S
C674 C670 1.429 . S
C674 C675 1.523 . S
C675 C659 1.368 . S
C675 C671 1.368 . S
C675 C674 1.523 . S
H676 C651 0.950 1_556 S
H677 C653 0.950 . S
H678 C654 0.949 . S
H679 C656 0.950 . S
H680 C658 0.950 . S
C681 C682 1.349 . S
C681 C683 1.327 . S
C681 H706 0.950 . S
C682 C681 1.349 . S
C682 C698 1.349 . S
C683 C681 1.327 . S
C683 C702 1.429 . S
C683 H707 0.950 . S
C684 C701 1.574 . S
C684 C703 1.368 . S
C684 H708 0.949 . S
H685 C689 0.949 . S
C686 C687 1.349 . S
C686 C688 1.327 . S
C686 H709 0.950 . S
C687 C686 1.349 . S
C687 C699 1.349 . S
C688 C686 1.327 . S
C688 C704 1.429 . S
C688 H710 0.950 . S
C689 H685 0.949 . S
C689 C697 1.574 . S
C689 C705 1.368 . S
H690 C698 0.950 . S
H691 C696 0.950 . S
H692 C697 0.949 . S
H693 C699 0.950 . S
H694 C700 0.950 . S
H695 C701 0.949 . S
C696 H691 0.950 . S
C696 C698 1.327 . S
C696 C702 1.429 . S
C697 C689 1.574 . S
C697 H692 0.949 . S
C697 C703 1.368 . S
C698 C682 1.349 . S
C698 H690 0.950 . S
C698 C696 1.327 . S
C699 C687 1.349 . S
C699 H693 0.950 . S
C699 C700 1.327 . S
C700 H694 0.950 . S
C700 C699 1.327 . S
C700 C704 1.429 . S
C701 C684 1.574 . S
C701 H695 0.949 . S
C701 C705 1.368 . S
C702 C683 1.429 . S
C702 C696 1.429 . S
C702 C703 1.523 . S
C703 C684 1.368 . S
C703 C697 1.368 . S
C703 C702 1.523 . S
C704 C688 1.429 . S
C704 C700 1.429 . S
C704 C705 1.523 . S
C705 C689 1.368 . S
C705 C701 1.368 . S
C705 C704 1.523 . S
H706 C681 0.950 . S
H707 C683 0.950 . S
H708 C684 0.949 . S
H709 C686 0.950 . S
H710 C688 0.950 . S
C711 C712 1.349 . S
C711 C713 1.327 . S
C711 H736 0.950 . S
C712 C711 1.349 . S
C712 C728 1.355 . S
C713 C711 1.327 . S
C713 C732 1.429 . S
C713 H737 0.950 . S
C714 C731 1.574 . S
C714 C733 1.368 . S
C714 H738 0.949 . S
H715 C719 0.949 . S
C716 C717 1.349 . S
C716 C718 1.327 . S
C716 H739 0.950 . S
C717 C716 1.349 . S
C717 C729 1.349 . S
C718 C716 1.327 . S
C718 C734 1.429 . S
C718 H740 0.950 . S
C719 H715 0.949 . S
C719 C727 1.574 . S
C719 C735 1.368 . S
H720 C728 0.930 1_554 S
H721 C726 0.950 . S
H722 C727 0.949 . S
H723 C729 0.950 . S
H724 C730 0.950 . S
H725 C731 0.949 . S
C726 H721 0.950 . S
C726 C728 1.341 . S
C726 C732 1.429 . S
C727 C719 1.574 . S
C727 H722 0.949 . S
C727 C733 1.368 . S
C728 C712 1.355 . S
C728 H720 0.930 1_556 S
C728 C726 1.341 . S
C729 C717 1.349 . S
C729 H723 0.950 . S
C729 C730 1.327 . S
C730 H724 0.950 . S
C730 C729 1.327 . S
C730 C734 1.429 . S
C731 C714 1.574 . S
C731 H725 0.949 . S
C731 C735 1.368 . S
C732 C713 1.429 . S
C732 C726 1.429 . S
C732 C733 1.523 . S
C733 C714 1.368 . S
C733 C727 1.368 . S
C733 C732 1.523 . S
C734 C718 1.429 . S
C734 C730 1.429 . S
C734 C735 1.523 . S
C735 C719 1.368 . S
C735 C731 1.368 . S
C735 C734 1.523 . S
H736 C711 0.950 . S
H737 C713 0.950 . S
H738 C714 0.949 . S
H739 C716 0.950 . S
H740 C718 0.950 . S
C741 C742 1.349 . S
C741 C743 1.327 . S
C741 H766 0.950 . S
C742 C741 1.349 . S
C742 C758 1.349 . S
C743 C741 1.327 . S
C743 C762 1.429 . S
C743 H767 0.950 . S
C744 C761 1.574 . S
C744 C763 1.368 . S
C744 H768 0.949 . S
H745 C749 0.949 . S
C746 C747 1.349 . S
C746 C748 1.327 . S
C746 H769 0.950 . S
C747 C746 1.349 . S
C747 C759 1.349 . S
C748 C746 1.327 . S
C748 C764 1.429 . S
C748 H770 0.950 . S
C749 H745 0.949 . S
C749 C757 1.574 . S
C749 C765 1.368 . S
H750 C758 0.950 . S
H751 C756 0.950 . S
H752 C757 0.949 . S
H753 C759 0.950 . S
H754 C760 0.950 . S
H755 C761 0.949 . S
C756 H751 0.950 . S
C756 C758 1.327 . S
C756 C762 1.429 . S
C757 C749 1.574 . S
C757 H752 0.949 . S
C757 C763 1.368 . S
C758 C742 1.349 . S
C758 H750 0.950 . S
C758 C756 1.327 . S
C759 C747 1.349 . S
C759 H753 0.950 . S
C759 C760 1.327 . S
C760 H754 0.950 . S
C760 C759 1.327 . S
C760 C764 1.429 . S
C761 C744 1.574 . S
C761 H755 0.949 . S
C761 C765 1.368 . S
C762 C743 1.429 . S
C762 C756 1.429 . S
C762 C763 1.523 . S
C763 C744 1.368 . S
C763 C757 1.368 . S
C763 C762 1.523 . S
C764 C748 1.429 . S
C764 C760 1.429 . S
C764 C765 1.523 . S
C765 C749 1.368 . S
C765 C761 1.368 . S
C765 C764 1.523 . S
H766 C741 0.950 . S
H767 C743 0.950 . S
H768 C744 0.949 . S
H769 C746 0.950 . S
H770 C748 0.950 . S
C771 C772 1.349 . S
C771 C773 1.327 . S
C771 H796 0.950 . S
C772 C771 1.349 . S
C772 C788 1.349 . S
C773 C771 1.327 . S
C773 C792 1.429 . S
C773 H797 0.950 . S
C774 C791 1.574 . S
C774 C793 1.368 . S
C774 H798 0.949 . S
H775 C779 0.949 . S
C776 C777 1.349 . S
C776 C778 1.327 . S
C776 H799 0.950 . S
C777 C776 1.349 . S
C777 C789 1.349 . S
C778 C776 1.327 . S
C778 C794 1.429 . S
C778 H800 0.950 . S
C779 H775 0.949 . S
C779 C787 1.574 . S
C779 C795 1.368 . S
H780 C788 0.950 . S
H781 C786 0.950 . S
H782 C787 0.949 . S
H783 C789 0.950 . S
H784 C790 0.950 . S
H785 C791 0.949 . S
C786 H781 0.950 . S
C786 C788 1.327 . S
C786 C792 1.429 . S
C787 C779 1.574 . S
C787 H782 0.949 . S
C787 C793 1.368 . S
C788 C772 1.349 . S
C788 H780 0.950 . S
C788 C786 1.327 . S
C789 C777 1.349 . S
C789 H783 0.950 . S
C789 C790 1.327 . S
C790 H784 0.950 . S
C790 C789 1.327 . S
C790 C794 1.429 . S
C791 C774 1.574 . S
C791 H785 0.949 . S
C791 C795 1.368 . S
C792 C773 1.429 . S
C792 C786 1.429 . S
C792 C793 1.523 . S
C793 C774 1.368 . S
C793 C787 1.368 . S
C793 C792 1.523 . S
C794 C778 1.429 . S
C794 C790 1.429 . S
C794 C795 1.523 . S
C795 C779 1.368 . S
C795 C791 1.368 . S
C795 C794 1.523 . S
H796 C771 0.950 . S
H797 C773 0.950 . S
H798 C774 0.949 . S
H799 C776 0.950 . S
H800 C778 0.950 . S
C801 C802 1.349 . S
C801 C803 1.327 . S
C801 H826 0.950 . S
C802 C801 1.349 . S
C802 C818 1.349 1_554 S
C803 C801 1.327 . S
C803 C822 1.429 1_554 S
C803 H827 0.950 . S
C804 C821 1.574 . S
C804 C823 1.368 . S
C804 H828 0.949 . S
H805 C809 0.949 . S
C806 C807 1.349 . S
C806 C808 1.327 . S
C806 H829 0.950 . S
C807 C806 1.349 . S
C807 C819 1.349 . S
C808 C806 1.327 . S
C808 C824 1.429 . S
C808 H830 0.950 . S
C809 H805 0.949 . S
C809 C817 1.574 . S
C809 C825 1.368 . S
H810 C818 0.950 . S
H811 C816 0.950 . S
H812 C817 0.949 . S
H813 C819 0.950 . S
H814 C820 0.950 . S
H815 C821 0.949 . S
C816 H811 0.950 . S
C816 C818 1.327 . S
C816 C822 1.429 . S
C817 C809 1.574 . S
C817 H812 0.949 . S
C817 C823 1.368 . S
C818 C802 1.349 1_556 S
C818 H810 0.950 . S
C818 C816 1.327 . S
C819 C807 1.349 . S
C819 H813 0.950 . S
C819 C820 1.327 . S
C820 H814 0.950 . S
C820 C819 1.327 . S
C820 C824 1.429 . S
C821 C804 1.574 . S
C821 H815 0.949 . S
C821 C825 1.368 . S
C822 C803 1.429 1_556 S
C822 C816 1.429 . S
C822 C823 1.523 . S
C823 C804 1.368 . S
C823 C817 1.368 . S
C823 C822 1.523 . S
C824 C808 1.429 . S
C824 C820 1.429 . S
C824 C825 1.523 . S
C825 C809 1.368 . S
C825 C821 1.368 . S
C825 C824 1.523 . S
H826 C801 0.950 . S
H827 C803 0.950 . S
H828 C804 0.949 . S
H829 C806 0.950 . S
H830 C808 0.950 . S
C831 C832 1.349 . S
C831 C833 1.327 . S
C831 H856 0.950 1_556 S
C832 C831 1.349 . S
C832 C848 1.349 . S
C833 C831 1.327 . S
C833 C852 1.429 . S
C833 H857 0.950 . S
C834 C851 1.574 . S
C834 C853 1.368 . S
C834 H858 0.949 . S
H835 C839 0.949 . S
C836 C837 1.349 . S
C836 C838 1.327 . S
C836 H859 0.950 . S
C837 C836 1.349 . S
C837 C849 1.349 . S
C838 C836 1.327 . S
C838 C854 1.429 . S
C838 H860 0.950 . S
C839 H835 0.949 . S
C839 C847 1.574 . S
C839 C855 1.368 . S
H840 C848 0.950 . S
H841 C846 0.950 . S
H842 C847 0.949 . S
H843 C849 0.950 . S
H844 C850 0.950 . S
H845 C851 0.949 . S
C846 H841 0.950 . S
C846 C848 1.327 . S
C846 C852 1.429 . S
C847 C839 1.574 . S
C847 H842 0.949 . S
C847 C853 1.368 . S
C848 C832 1.349 . S
C848 H840 0.950 . S
C848 C846 1.327 . S
C849 C837 1.349 . S
C849 H843 0.950 . S
C849 C850 1.327 . S
C850 H844 0.950 . S
C850 C849 1.327 . S
C850 C854 1.429 . S
C851 C834 1.574 . S
C851 H845 0.949 . S
C851 C855 1.368 . S
C852 C833 1.429 . S
C852 C846 1.429 . S
C852 C853 1.523 . S
C853 C834 1.368 . S
C853 C847 1.368 . S
C853 C852 1.523 . S
C854 C838 1.429 . S
C854 C850 1.429 . S
C854 C855 1.523 . S
C855 C839 1.368 . S
C855 C851 1.368 . S
C855 C854 1.523 . S
H856 C831 0.950 1_554 S
H857 C833 0.950 . S
H858 C834 0.949 . S
H859 C836 0.950 . S
H860 C838 0.950 . S
C861 C862 1.349 . S
C861 C863 1.327 . S
C861 H886 0.950 1_556 S
C862 C861 1.349 . S
C862 C878 1.349 . S
C863 C861 1.327 . S
C863 C882 1.429 . S
C863 H887 0.950 . S
C864 C881 1.574 . S
C864 C883 1.368 . S
C864 H888 0.949 . S
H865 C869 0.949 . S
C866 C867 1.349 . S
C866 C868 1.327 . S
C866 H889 0.950 . S
C867 C866 1.349 . S
C867 C879 1.349 . S
C868 C866 1.327 . S
C868 C884 1.429 . S
C868 H890 0.950 . S
C869 H865 0.949 . S
C869 C877 1.574 . S
C869 C885 1.368 . S
H870 C878 0.950 . S
H871 C876 0.950 . S
H872 C877 0.949 . S
H873 C879 0.950 . S
H874 C880 0.950 . S
H875 C881 0.949 . S
C876 H871 0.950 . S
C876 C878 1.327 . S
C876 C882 1.429 . S
C877 C869 1.574 . S
C877 H872 0.949 . S
C877 C883 1.368 . S
C878 C862 1.349 . S
C878 H870 0.950 . S
C878 C876 1.327 . S
C879 C867 1.349 . S
C879 H873 0.950 . S
C879 C880 1.327 . S
C880 H874 0.950 . S
C880 C879 1.327 . S
C880 C884 1.429 . S
C881 C864 1.574 . S
C881 H875 0.949 . S
C881 C885 1.368 . S
C882 C863 1.429 . S
C882 C876 1.429 . S
C882 C883 1.523 . S
C883 C864 1.368 . S
C883 C877 1.368 . S
C883 C882 1.523 . S
C884 C868 1.429 . S
C884 C880 1.429 . S
C884 C885 1.523 . S
C885 C869 1.368 . S
C885 C881 1.368 . S
C885 C884 1.523 . S
H886 C861 0.950 1_554 S
H887 C863 0.950 . S
H888 C864 0.949 . S
H889 C866 0.950 . S
H890 C868 0.950 . S
C891 C892 1.349 . S
C891 C893 1.327 . S
C891 H916 0.950 . S
C892 C891 1.349 . S
C892 C908 1.349 . S
C893 C891 1.327 . S
C893 C912 1.429 . S
C893 H917 0.950 . S
C894 C911 1.574 . S
C894 C913 1.368 . S
C894 H918 0.949 . S
H895 C899 0.949 . S
C896 C897 1.349 . S
C896 C898 1.327 . S
C896 H919 0.950 . S
C897 C896 1.349 . S
C897 C909 1.349 . S
C898 C896 1.327 . S
C898 C914 1.429 . S
C898 H920 0.950 . S
C899 H895 0.949 . S
C899 C907 1.574 . S
C899 C915 1.368 . S
H900 C908 0.950 . S
H901 C906 0.950 . S
H902 C907 0.949 . S
H903 C909 0.950 . S
H904 C910 0.950 . S
H905 C911 0.949 . S
C906 H901 0.950 . S
C906 C908 1.327 . S
C906 C912 1.429 . S
C907 C899 1.574 . S
C907 H902 0.949 . S
C907 C913 1.368 . S
C908 C892 1.349 . S
C908 H900 0.950 . S
C908 C906 1.327 . S
C909 C897 1.349 . S
C909 H903 0.950 . S
C909 C910 1.327 . S
C910 H904 0.950 . S
C910 C909 1.327 . S
C910 C914 1.429 . S
C911 C894 1.574 . S
C911 H905 0.949 . S
C911 C915 1.368 . S
C912 C893 1.429 . S
C912 C906 1.429 . S
C912 C913 1.523 . S
C913 C894 1.368 . S
C913 C907 1.368 . S
C913 C912 1.523 . S
C914 C898 1.429 . S
C914 C910 1.429 . S
C914 C915 1.523 . S
C915 C899 1.368 . S
C915 C911 1.368 . S
C915 C914 1.523 . S
H916 C891 0.950 . S
H917 C893 0.950 . S
H918 C894 0.949 . S
H919 C896 0.950 . S
H920 C898 0.950 . S
C921 C922 1.349 . S
C921 C923 1.327 . S
C921 H946 0.950 . S
C922 C921 1.349 . S
C922 C938 1.349 . S
C923 C921 1.327 . S
C923 C942 1.429 . S
C923 H947 0.950 . S
C924 C941 1.574 . S
C924 C943 1.368 . S
C924 H948 0.949 . S
H925 C929 0.949 . S
C926 C927 1.349 . S
C926 C928 1.327 . S
C926 H949 0.950 . S
C927 C926 1.349 . S
C927 C939 1.349 . S
C928 C926 1.327 . S
C928 C944 1.429 . S
C928 H950 0.950 . S
C929 H925 0.949 . S
C929 C937 1.574 . S
C929 C945 1.368 . S
H930 C938 0.950 . S
H931 C936 0.950 . S
H932 C937 0.949 . S
H933 C939 0.950 . S
H934 C940 0.950 . S
H935 C941 0.949 . S
C936 H931 0.950 . S
C936 C938 1.327 . S
C936 C942 1.429 . S
C937 C929 1.574 . S
C937 H932 0.949 . S
C937 C943 1.368 . S
C938 C922 1.349 . S
C938 H930 0.950 . S
C938 C936 1.327 . S
C939 C927 1.349 . S
C939 H933 0.950 . S
C939 C940 1.327 . S
C940 H934 0.950 . S
C940 C939 1.327 . S
C940 C944 1.429 . S
C941 C924 1.574 . S
C941 H935 0.949 . S
C941 C945 1.368 . S
C942 C923 1.429 . S
C942 C936 1.429 . S
C942 C943 1.523 . S
C943 C924 1.368 . S
C943 C937 1.368 . S
C943 C942 1.523 . S
C944 C928 1.429 . S
C944 C940 1.429 . S
C944 C945 1.523 . S
C945 C929 1.368 . S
C945 C941 1.368 . S
C945 C944 1.523 . S
H946 C921 0.950 . S
H947 C923 0.950 . S
H948 C924 0.949 . S
H949 C926 0.950 . S
H950 C928 0.950 . S
C951 C952 1.349 . S
C951 C953 1.327 . S
C951 H976 0.950 . S
C952 C951 1.349 . S
C952 C968 1.349 . S
C953 C951 1.327 . S
C953 C972 1.429 . S
C953 H977 0.950 . S
C954 C971 1.574 . S
C954 C973 1.368 . S
C954 H978 0.949 . S
H955 C959 0.949 . S
C956 C957 1.349 . S
C956 C958 1.327 . S
C956 H979 0.950 . S
C957 C956 1.349 . S
C957 C969 1.349 . S
C958 C956 1.327 . S
C958 C974 1.429 . S
C958 H980 0.950 . S
C959 H955 0.949 . S
C959 C967 1.574 . S
C959 C975 1.368 . S
H960 C968 0.950 . S
H961 C966 0.950 . S
H962 C967 0.949 . S
H963 C969 0.950 . S
H964 C970 0.950 . S
H965 C971 0.949 . S
C966 H961 0.950 . S
C966 C968 1.327 . S
C966 C972 1.429 . S
C967 C959 1.574 . S
C967 H962 0.949 . S
C967 C973 1.368 . S
C968 C952 1.349 . S
C968 H960 0.950 . S
C968 C966 1.327 . S
C969 C957 1.349 . S
C969 H963 0.950 . S
C969 C970 1.327 . S
C970 H964 0.950 . S
C970 C969 1.327 . S
C970 C974 1.429 . S
C971 C954 1.574 . S
C971 H965 0.949 . S
C971 C975 1.368 . S
C972 C953 1.429 . S
C972 C966 1.429 . S
C972 C973 1.523 . S
C973 C954 1.368 . S
C973 C967 1.368 . S
C973 C972 1.523 . S
C974 C958 1.429 . S
C974 C970 1.429 . S
C974 C975 1.523 . S
C975 C959 1.368 . S
C975 C971 1.368 . S
C975 C974 1.523 . S
H976 C951 0.950 . S
H977 C953 0.950 . S
H978 C954 0.949 . S
H979 C956 0.950 . S
H980 C958 0.950 . S
C981 C982 1.349 . S
C981 C983 1.327 . S
C981 H1006 0.950 . S
C982 C981 1.349 . S
C982 C998 1.349 . S
C983 C981 1.327 . S
C983 C1002 1.429 . S
C983 H1007 0.950 . S
C984 C1001 1.574 . S
C984 C1003 1.368 . S
C984 H1008 0.949 . S
H985 C989 0.949 . S
C986 C987 1.349 . S
C986 C988 1.327 . S
C986 H1009 0.950 . S
C987 C986 1.349 . S
C987 C999 1.349 . S
C988 C986 1.327 . S
C988 C1004 1.429 . S
C988 H1010 0.950 . S
C989 H985 0.949 . S
C989 C997 1.574 . S
C989 C1005 1.368 . S
H990 C998 0.950 . S
H991 C996 0.950 . S
H992 C997 0.949 . S
H993 C999 0.950 . S
H994 C1000 0.950 . S
H995 C1001 0.949 . S
C996 H991 0.950 . S
C996 C998 1.327 . S
C996 C1002 1.429 . S
C997 C989 1.574 . S
C997 H992 0.949 . S
C997 C1003 1.368 . S
C998 C982 1.349 . S
C998 H990 0.950 . S
C998 C996 1.327 . S
C999 C987 1.349 . S
C999 H993 0.950 . S
C999 C1000 1.327 . S
C1000 H994 0.950 . S
C1000 C999 1.327 . S
C1000 C1004 1.429 . S
C1001 C984 1.574 . S
C1001 H995 0.949 . S
C1001 C1005 1.368 . S
C1002 C983 1.429 . S
C1002 C996 1.429 . S
C1002 C1003 1.523 . S
C1003 C984 1.368 . S
C1003 C997 1.368 . S
C1003 C1002 1.523 . S
C1004 C988 1.429 . S
C1004 C1000 1.429 . S
C1004 C1005 1.523 . S
C1005 C989 1.368 . S
C1005 C1001 1.368 . S
C1005 C1004 1.523 . S
H1006 C981 0.950 . S
H1007 C983 0.950 . S
H1008 C984 0.949 . S
H1009 C986 0.950 . S
H1010 C988 0.950 . S
C1011 C1012 1.349 . S
C1011 C1013 1.327 . S
C1011 H1036 0.950 . S
C1012 C1011 1.349 . S
C1012 C1028 1.349 . S
C1013 C1011 1.327 . S
C1013 C1032 1.429 . S
C1013 H1037 0.950 . S
C1014 C1031 1.574 . S
C1014 C1033 1.368 . S
C1014 H1038 0.949 . S
H1015 C1019 0.949 . S
C1016 C1017 1.349 . S
C1016 C1018 1.327 . S
C1016 H1039 0.950 . S
C1017 C1016 1.349 . S
C1017 C1029 1.349 . S
C1018 C1016 1.327 . S
C1018 C1034 1.429 . S
C1018 H1040 0.950 . S
C1019 H1015 0.949 . S
C1019 C1027 1.574 . S
C1019 C1035 1.368 . S
H1020 C1028 0.950 . S
H1021 C1026 0.950 . S
H1022 C1027 0.949 . S
H1023 C1029 0.950 . S
H1024 C1030 0.950 . S
H1025 C1031 0.949 . S
C1026 H1021 0.950 . S
C1026 C1028 1.327 . S
C1026 C1032 1.429 . S
C1027 C1019 1.574 . S
C1027 H1022 0.949 . S
C1027 C1033 1.368 . S
C1028 C1012 1.349 . S
C1028 H1020 0.950 . S
C1028 C1026 1.327 . S
C1029 C1017 1.349 . S
C1029 H1023 0.950 . S
C1029 C1030 1.327 . S
C1030 H1024 0.950 . S
C1030 C1029 1.327 . S
C1030 C1034 1.429 . S
C1031 C1014 1.574 . S
C1031 H1025 0.949 . S
C1031 C1035 1.368 . S
C1032 C1013 1.429 . S
C1032 C1026 1.429 . S
C1032 C1033 1.523 . S
C1033 C1014 1.368 . S
C1033 C1027 1.368 . S
C1033 C1032 1.523 . S
C1034 C1018 1.429 . S
C1034 C1030 1.429 . S
C1034 C1035 1.523 . S
C1035 C1019 1.368 . S
C1035 C1031 1.368 . S
C1035 C1034 1.523 . S
H1036 C1011 0.950 . S
H1037 C1013 0.950 . S
H1038 C1014 0.949 . S
H1039 C1016 0.950 . S
H1040 C1018 0.950 . S
C1041 C1042 1.349 . S
C1041 C1043 1.327 . S
C1041 H1066 0.950 . S
C1042 C1041 1.349 . S
C1042 C1058 1.349 . S
C1043 C1041 1.327 . S
C1043 C1062 1.429 . S
C1043 H1067 0.950 . S
C1044 C1061 1.574 . S
C1044 C1063 1.368 . S
C1044 H1068 0.949 . S
H1045 C1049 0.949 . S
C1046 C1047 1.349 . S
C1046 C1048 1.327 . S
C1046 H1069 0.950 . S
C1047 C1046 1.349 . S
C1047 C1059 1.349 . S
C1048 C1046 1.327 . S
C1048 C1064 1.429 . S
C1048 H1070 0.950 . S
C1049 H1045 0.949 . S
C1049 C1057 1.574 . S
C1049 C1065 1.368 . S
H1050 C1058 0.950 . S
H1051 C1056 0.950 . S
H1052 C1057 0.949 . S
H1053 C1059 0.950 . S
H1054 C1060 0.950 . S
H1055 C1061 0.949 . S
C1056 H1051 0.950 . S
C1056 C1058 1.327 . S
C1056 C1062 1.429 . S
C1057 C1049 1.574 . S
C1057 H1052 0.949 . S
C1057 C1063 1.368 . S
C1058 C1042 1.349 . S
C1058 H1050 0.950 . S
C1058 C1056 1.327 . S
C1059 C1047 1.349 . S
C1059 H1053 0.950 . S
C1059 C1060 1.327 . S
C1060 H1054 0.950 . S
C1060 C1059 1.327 . S
C1060 C1064 1.429 . S
C1061 C1044 1.574 . S
C1061 H1055 0.949 . S
C1061 C1065 1.368 . S
C1062 C1043 1.429 . S
C1062 C1056 1.429 . S
C1062 C1063 1.523 . S
C1063 C1044 1.368 . S
C1063 C1057 1.368 . S
C1063 C1062 1.523 . S
C1064 C1048 1.429 . S
C1064 C1060 1.429 . S
C1064 C1065 1.523 . S
C1065 C1049 1.368 . S
C1065 C1061 1.368 . S
C1065 C1064 1.523 . S
H1066 C1041 0.950 . S
H1067 C1043 0.950 . S
H1068 C1044 0.949 . S
H1069 C1046 0.950 . S
H1070 C1048 0.950 . S
C1071 C1072 1.349 . S
C1071 C1073 1.327 . S
C1071 H1096 0.950 . S
C1072 C1071 1.349 . S
C1072 C1088 1.349 . S
C1073 C1071 1.327 . S
C1073 C1092 1.429 . S
C1073 H1097 0.950 . S
C1074 C1091 1.574 . S
C1074 C1093 1.368 . S
C1074 H1098 0.949 . S
H1075 C1079 0.949 . S
C1076 C1077 1.349 . S
C1076 C1078 1.327 . S
C1076 H1099 0.950 . S
C1077 C1076 1.349 . S
C1077 C1089 1.349 . S
C1078 C1076 1.327 . S
C1078 C1094 1.429 . S
C1078 H1100 0.950 . S
C1079 H1075 0.949 . S
C1079 C1087 1.574 . S
C1079 C1095 1.368 . S
H1080 C1088 0.950 . S
H1081 C1086 0.950 . S
H1082 C1087 0.949 . S
H1083 C1089 0.950 . S
H1084 C1090 0.950 . S
H1085 C1091 0.949 . S
C1086 H1081 0.950 . S
C1086 C1088 1.327 . S
C1086 C1092 1.429 . S
C1087 C1079 1.574 . S
C1087 H1082 0.949 . S
C1087 C1093 1.368 . S
C1088 C1072 1.349 . S
C1088 H1080 0.950 . S
C1088 C1086 1.327 . S
C1089 C1077 1.349 . S
C1089 H1083 0.950 . S
C1089 C1090 1.327 . S
C1090 H1084 0.950 . S
C1090 C1089 1.327 . S
C1090 C1094 1.429 . S
C1091 C1074 1.574 . S
C1091 H1085 0.949 . S
C1091 C1095 1.368 . S
C1092 C1073 1.429 . S
C1092 C1086 1.429 . S
C1092 C1093 1.523 . S
C1093 C1074 1.368 . S
C1093 C1087 1.368 . S
C1093 C1092 1.523 . S
C1094 C1078 1.429 . S
C1094 C1090 1.429 . S
C1094 C1095 1.523 . S
C1095 C1079 1.368 . S
C1095 C1091 1.368 . S
C1095 C1094 1.523 . S
H1096 C1071 0.950 . S
H1097 C1073 0.950 . S
H1098 C1074 0.949 . S
H1099 C1076 0.950 . S
H1100 C1078 0.950 . S
C382 C45 1.905 . S
C387 C299 1.825 . S
C412 C84 1.722 . S
C417 C346 1.685 . S
C447 C350 1.922 . S
C442 C126 1.959 . S
C477 C315 1.596 . S
C472 C165 1.629 . S
C502 C222 1.775 . S
C507 C330 1.732 . S
C537 C352 0.918 . S
C532 C276 0.940 . S
C567 C321 1.361 . S
C562 C141 1.425 . S
C592 C180 1.417 . S
C597 C361 1.370 . S
C627 C290 1.249 . S
C622 C237 1.310 . S
C652 C261 1.550 . S
C657 C319 1.508 . S
C682 C30 2.040 1_556 S
C687 C377 2.014 . S
C717 C288 1.591 . S
C712 C69 1.630 1_556 S
C747 C306 1.825 . S
C742 C174 1.904 . S
C777 C320 1.686 . S
C772 C213 1.722 . S
C807 C374 1.921 . S
C802 C285 1.959 . S
C837 C289 1.596 . S
C832 C36 1.629 1_556 S
C867 C337 1.733 . S
C862 C93 1.775 1_556 S
C892 C117 0.940 . S
C897 C360 0.918 . S
C927 C329 1.361 . S
C922 C270 1.426 . S
C957 C368 1.370 . S
C952 C21 1.417 . S
C987 C298 1.248 . S
C982 C78 1.310 . S
C1017 C343 1.509 . S
C1012 C132 1.550 . S
C1042 C189 2.040 . S
C1047 C351 2.014 . S
C1072 C228 1.630 . S
C1077 C312 1.591 . S
