# Generated by pormake.
# Topology anh, (6,3)-cn, num edge types: 1
# Building blocks:
#     Node 0, Type 0, BuildingBlock: BETDAH_clean_sbu_0, # of connection points: 6
#     Node 1, Type 0, BuildingBlock: BETDAH_clean_sbu_0, # of connection points: 6
#     Node 2, Type 0, BuildingBlock: BETDAH_clean_sbu_0, # of connection points: 6
#     Node 3, Type 1, BuildingBlock: BETDIP_clean_linker_0, # of connection points: 3
#     Node 4, Type 1, BuildingBlock: BETDIP_clean_linker_0, # of connection points: 3
#     Node 5, Type 1, BuildingBlock: BETDIP_clean_linker_0, # of connection points: 3
#     Node 6, Type 1, BuildingBlock: BETDIP_clean_linker_0, # of connection points: 3
#     Node 7, Type 1, BuildingBlock: BETDIP_clean_linker_0, # of connection points: 3
#     Node 8, Type 1, BuildingBlock: BETDIP_clean_linker_0, # of connection points: 3
#     Edge 9, Type (0, 1), BuildingBlock: UVAHIK_clean_linker_0, # of connection points: 2
#     Edge 10, Type (0, 1), BuildingBlock: UVAHIK_clean_linker_0, # of connection points: 2
#     Edge 11, Type (0, 1), BuildingBlock: UVAHIK_clean_linker_0, # of connection points: 2
#     Edge 12, Type (0, 1), BuildingBlock: UVAHIK_clean_linker_0, # of connection points: 2
#     Edge 13, Type (0, 1), BuildingBlock: UVAHIK_clean_linker_0, # of connection points: 2
#     Edge 14, Type (0, 1), BuildingBlock: UVAHIK_clean_linker_0, # of connection points: 2
#     Edge 15, Type (0, 1), BuildingBlock: UVAHIK_clean_linker_0, # of connection points: 2
#     Edge 16, Type (0, 1), BuildingBlock: UVAHIK_clean_linker_0, # of connection points: 2
#     Edge 17, Type (0, 1), BuildingBlock: UVAHIK_clean_linker_0, # of connection points: 2
#     Edge 18, Type (0, 1), BuildingBlock: UVAHIK_clean_linker_0, # of connection points: 2
#     Edge 19, Type (0, 1), BuildingBlock: UVAHIK_clean_linker_0, # of connection points: 2
#     Edge 20, Type (0, 1), BuildingBlock: UVAHIK_clean_linker_0, # of connection points: 2
#     Edge 21, Type (0, 1), BuildingBlock: UVAHIK_clean_linker_0, # of connection points: 2
#     Edge 22, Type (0, 1), BuildingBlock: UVAHIK_clean_linker_0, # of connection points: 2
#     Edge 23, Type (0, 1), BuildingBlock: UVAHIK_clean_linker_0, # of connection points: 2
#     Edge 24, Type (0, 1), BuildingBlock: UVAHIK_clean_linker_0, # of connection points: 2
#     Edge 25, Type (0, 1), BuildingBlock: UVAHIK_clean_linker_0, # of connection points: 2
#     Edge 26, Type (0, 1), BuildingBlock: UVAHIK_clean_linker_0, # of connection points: 2
# Relax obj value: 0.127
# Max RMSD: 0.170
# Mean RMSD: 0.121
data_MOF--net-anh--node1-BETDAH_clean_sbu_0--node2-BETDIP_clean_linker_0--edge1-UVAHIK_clean_linker_0
_symmetry_space_group_name_H-M    P1
_symmetry_Int_Tables_number       1
_symmetry_cell_setting            triclinic
loop_
_symmetry_equiv_pos_as_xyz
'x, y, z'
_cell_length_a     39.696127
_cell_length_b     46.832438
_cell_length_c     63.846918
_cell_angle_alpha  95.288429
_cell_angle_beta   89.338341
_cell_angle_gamma 127.6581
loop_
_atom_site_label
_atom_site_type_symbol
_atom_site_fract_x
_atom_site_fract_y
_atom_site_fract_z
_atom_type_partial_charge
Ho0 Ho 0.11789 0.53994 0.14758 0.0
Ho1 Ho 0.07557 0.57199 0.16676 0.0
C2 C 0.1729 0.62799 0.15765 0.0
C3 C 0.16177 0.52443 0.12674 0.0
C4 C 0.20453 0.53438 0.13095 0.0
C5 C 0.24156 0.56682 0.12496 0.0
C6 C 0.28184 0.57666 0.13005 0.0
C7 C 0.28578 0.55438 0.14134 0.0
C8 C 0.24879 0.52182 0.14708 0.0
C9 C 0.20866 0.51182 0.14183 0.0
C10 C 0.11835 0.54535 0.19 0.0
C11 C 1.01976 0.48452 0.15532 0.0
C12 C 1.03496 0.58832 0.19038 0.0
C13 C 0.99043 0.57013 0.19524 0.0
C14 C 0.98036 0.5861 0.21111 0.0
C15 C 0.93782 0.5696 0.2153 0.0
C16 C 0.90478 0.53683 0.20368 0.0
C17 C 0.91528 0.52056 0.1881 0.0
C18 C 0.95775 0.5371 0.18392 0.0
C19 C 0.07679 0.56727 0.12426 0.0
O20 O 0.1686 0.60061 0.14634 0.0
O21 O 0.14271 0.62265 0.16976 0.0
O22 O 0.13278 0.50324 0.13952 0.0
O23 O 0.16008 0.55036 0.12245 0.0
O24 O 0.11607 0.5199 0.17861 0.0
O25 O 0.12413 0.56824 0.17855 0.0
O26 O 1.02508 0.51148 0.16767 0.0
O27 O 1.04944 0.49051 0.14252 0.0
O28 O 1.04416 0.59669 0.17108 0.0
O29 O 1.05222 0.57419 0.19715 0.0
O30 O 0.07988 0.59327 0.13564 0.0
O31 O 0.0699 0.54402 0.13574 0.0
H32 H 0.23948 0.58474 0.11647 0.0
H33 H 0.3099 0.60181 0.12532 0.0
H34 H 0.25082 0.50365 0.15531 0.0
H35 H 0.18083 0.48644 0.14647 0.0
H36 H 1.00537 0.61154 0.22006 0.0
H37 H 0.93077 0.58261 0.22751 0.0
H38 H 0.89063 0.49566 0.17862 0.0
H39 H 0.96507 0.52448 0.17157 0.0
Ho40 Ho 0.62287 0.04032 0.48783 0.0
Ho41 Ho 0.56403 0.05751 0.47428 0.0
C42 C 0.5207 0.97515 0.4774 0.0
C43 C 0.65589 0.01543 0.50665 0.0
C44 C 0.64376 0.97918 0.50869 0.0
C45 C 0.65149 0.97172 0.52805 0.0
C46 C 0.64033 0.93754 0.53034 0.0
C47 C 0.62145 0.91026 0.51324 0.0
C48 C 0.61346 0.91773 0.49387 0.0
C49 C 0.62424 0.95182 0.49165 0.0
C50 C 0.61729 0.04296 0.44618 0.0
C51 C 0.66662 0.12281 0.48352 0.0
C52 C 0.53073 0.08368 0.4573 0.0
C53 C 0.54068 0.11965 0.46033 0.0
C54 C 0.52301 0.12924 0.44636 0.0
C55 C 0.53182 0.16324 0.44962 0.0
C56 C 0.55841 0.18819 0.46696 0.0
C57 C 0.57642 0.17842 0.48075 0.0
C58 C 0.56776 0.14457 0.47741 0.0
C59 C 0.57126 0.05572 0.51598 0.0
O60 O 0.55638 0.9867 0.48782 0.0
O61 O 0.51819 0.99729 0.46735 0.0
O62 O 0.66597 0.02675 0.48796 0.0
O63 O 0.63205 0.02273 0.51597 0.0
O64 O 0.65166 0.05301 0.45632 0.0
O65 O 0.58681 0.02942 0.45821 0.0
O66 O 0.62998 0.11099 0.47415 0.0
O67 O 0.6707 0.10095 0.4929 0.0
O68 O 0.51555 0.06504 0.47354 0.0
O69 O 0.55993 0.08256 0.44857 0.0
O70 O 0.53617 0.04458 0.50619 0.0
O71 O 0.60085 0.06913 0.50353 0.0
H72 H 0.66633 0.99241 0.5414 0.0
H73 H 0.64715 0.93265 0.54541 0.0
H74 H 0.59848 0.89709 0.48051 0.0
H75 H 0.61739 0.95678 0.47661 0.0
H76 H 0.50226 0.11038 0.43301 0.0
H77 H 0.51791 0.17001 0.43852 0.0
H78 H 0.59646 0.19656 0.49444 0.0
H79 H 0.58176 0.13763 0.48835 0.0
Ho80 Ho 0.63387 0.5573 0.83663 0.0
Ho81 Ho 0.57422 0.47706 0.84294 0.0
C82 C 0.53107 0.51643 0.84232 0.0
C83 C 0.66927 0.61984 0.82335 0.0
C84 C 0.65703 0.64327 0.82025 0.0
C85 C 0.66573 0.65897 0.80132 0.0
C86 C 0.65446 0.68126 0.79792 0.0
C87 C 0.63454 0.6885 0.81349 0.0
C88 C 0.62577 0.67272 0.83246 0.0
C89 C 0.63665 0.65009 0.83577 0.0
C90 C 0.62816 0.54153 0.87653 0.0
C91 C 0.67738 0.51819 0.83788 0.0
C92 C 0.54025 0.41461 0.85604 0.0
C93 C 0.5512 0.38969 0.85404 0.0
C94 C 0.53478 0.36272 0.86767 0.0
C95 C 0.54451 0.33851 0.86551 0.0
C96 C 0.57079 0.34087 0.84963 0.0
C97 C 0.5877 0.36847 0.83624 0.0
C98 C 0.57813 0.39271 0.83848 0.0
C99 C 0.57952 0.49189 0.80284 0.0
O100 O 0.56775 0.54412 0.83546 0.0
O101 O 0.52742 0.48868 0.84896 0.0
O102 O 0.67409 0.61568 0.84281 0.0
O103 O 0.64941 0.58958 0.81078 0.0
O104 O 0.66366 0.56734 0.86904 0.0
O105 O 0.59791 0.52676 0.86288 0.0
O106 O 0.64 0.48992 0.84373 0.0
O107 O 0.68202 0.54679 0.832 0.0
O108 O 0.52768 0.41873 0.83849 0.0
O109 O 0.56725 0.44539 0.86767 0.0
O110 O 0.54479 0.46531 0.81038 0.0
O111 O 0.61011 0.50747 0.81642 0.0
H112 H 0.68135 0.65401 0.78914 0.0
H113 H 0.66194 0.6933 0.78322 0.0
H114 H 0.61002 0.67753 0.84463 0.0
H115 H 0.62912 0.63797 0.85044 0.0
H116 H 0.51426 0.36027 0.8799 0.0
H117 H 0.53148 0.318 0.87631 0.0
H118 H 0.60753 0.37086 0.82365 0.0
H119 H 0.5913 0.41353 0.82786 0.0
H120 H 0.56575 0.02514 0.15994 0.0
H121 H 0.63232 0.08918 0.21877 0.0
H122 H 0.52561 0.97647 0.21814 0.0
H123 H 0.62235 0.12751 0.19889 0.0
C124 C 0.64062 0.12683 0.18629 0.0
C125 C 0.56998 0.02723 0.17689 0.0
C126 C 0.54198 0.99676 0.1878 0.0
C127 C 0.60185 0.061 0.18812 0.0
C128 C 0.60689 0.06352 0.21016 0.0
C129 C 0.58001 0.03305 0.22109 0.0
C130 C 0.54743 0.99993 0.20978 0.0
N131 N 0.62835 0.0925 0.17734 0.0
H132 H 0.57951 0.51933 0.52012 0.0
H133 H 0.57778 0.56462 0.58158 0.0
H134 H 0.60499 0.4887 0.57592 0.0
H135 H 0.52664 0.56357 0.56314 0.0
C136 C 0.5455 0.57677 0.54983 0.0
C137 C 0.58315 0.52153 0.53713 0.0
C138 C 0.59338 0.50148 0.5465 0.0
C139 C 0.57705 0.54412 0.54963 0.0
C140 C 0.58155 0.54676 0.57171 0.0
C141 C 0.59189 0.52704 0.58124 0.0
C142 C 0.59822 0.50479 0.56856 0.0
N143 N 0.56756 0.5647 0.53979 0.0
H144 H 0.07161 0.51477 0.83608 0.0
H145 H 0.13281 0.53035 0.89612 0.0
H146 H 1.02369 0.52859 0.89393 0.0
H147 H 0.13605 0.48696 0.87787 0.0
C148 C 0.15296 0.50253 0.86478 0.0
C149 C 0.07378 0.51926 0.85311 0.0
C150 C 1.04345 0.52137 0.86373 0.0
C151 C 0.10599 0.52164 0.86479 0.0
C152 C 0.1081 0.52769 0.88695 0.0
C153 C 0.07839 0.52977 0.89754 0.0
C154 C 1.04646 0.52662 0.8858 0.0
N155 N 0.13594 0.5178 0.85464 0.0
H156 H 0.11996 0.58271 0.47698 0.0
H157 H 1.04949 0.51464 0.41972 0.0
H158 H 0.16197 0.6242 0.41693 0.0
H159 H 0.99537 0.50678 0.44587 0.0
C160 C 1.00601 0.49591 0.45598 0.0
C161 C 0.11618 0.57876 0.45993 0.0
C162 C 0.14474 0.60765 0.44809 0.0
C163 C 0.08112 0.54538 0.44973 0.0
C164 C 0.0762 0.54048 0.4276 0.0
C165 C 0.10523 0.56875 0.41562 0.0
C166 C 0.13917 0.60223 0.42604 0.0
N167 N 1.05029 0.51701 0.46169 0.0
H168 H 0.5865 0.02924 0.79811 0.0
H169 H 0.57925 0.98057 0.73602 0.0
H170 H 0.60891 0.08576 0.74383 0.0
H171 H 0.53266 0.92869 0.75196 0.0
C172 C 0.55157 0.93584 0.76643 0.0
C173 C 0.58874 0.03043 0.78124 0.0
C174 C 0.59888 0.06118 0.77255 0.0
C175 C 0.58124 1.00105 0.76822 0.0
C176 C 0.58401 0.00262 0.74629 0.0
C177 C 0.59424 0.03319 0.73747 0.0
C178 C 0.60207 0.06249 0.75069 0.0
N179 N 0.57263 0.97091 0.77755 0.0
H180 H 0.48109 0.4011 0.13143 0.0
H181 H 0.51601 0.36417 0.07779 0.0
H182 H 0.55329 0.47249 0.08413 0.0
H183 H 0.4544 0.31872 0.14201 0.0
C184 C 0.48139 0.3419 0.13508 0.0
C185 C 0.49782 0.40679 0.11702 0.0
C186 C 0.5174 0.44039 0.10917 0.0
C187 C 0.49747 0.37945 0.10569 0.0
C188 C 0.51664 0.38557 0.08636 0.0
C189 C 0.53771 0.41943 0.07855 0.0
C190 C 0.53809 0.44662 0.09022 0.0
N191 N 0.47735 0.34536 0.11352 0.0
C192 C 0.35657 0.57301 0.13013 0.0
C193 C 0.32792 0.56343 0.14609 0.0
C194 C 0.39245 0.57462 0.13332 0.0
C195 C 0.42122 0.52919 0.16329 0.0
H196 H 0.52101 0.58127 0.13031 0.0
C197 C 0.51283 0.47294 0.1416 0.0
C198 C 0.51302 0.46771 0.11954 0.0
C199 C 0.5043 0.49605 0.15089 0.0
C200 C 0.49367 0.56688 0.1399 0.0
H201 H 0.31652 0.55185 0.17861 0.0
H202 H 0.37958 0.55512 0.18433 0.0
H203 H 0.47989 0.60389 0.13653 0.0
H204 H 0.50509 0.48346 0.0901 0.0
H205 H 0.49164 0.52404 0.10623 0.0
H206 H 0.43362 0.49111 0.16565 0.0
C207 C 0.3738 0.56047 0.16917 0.0
C208 C 0.47002 0.57971 0.14338 0.0
C209 C 0.33773 0.55859 0.1659 0.0
C210 C 0.50639 0.48736 0.10713 0.0
C211 C 0.49861 0.51075 0.1164 0.0
C212 C 0.44503 0.51653 0.15992 0.0
C213 C 0.40053 0.5669 0.15261 0.0
C214 C 0.43215 0.55983 0.15408 0.0
C215 C 0.49648 0.51474 0.13831 0.0
C216 C 0.48004 0.53412 0.1472 0.0
H217 H 0.34969 0.57672 0.11468 0.0
H218 H 0.41197 0.57924 0.12011 0.0
H219 H 0.39216 0.51301 0.17151 0.0
H220 H 0.51842 0.45867 0.15167 0.0
H221 H 0.50278 0.49865 0.16785 0.0
C222 C 0.6982 0.18514 0.47437 0.0
C223 C 0.70356 0.16167 0.48326 0.0
C224 C 0.73292 0.22123 0.47283 0.0
C225 C 0.84292 0.29577 0.49336 0.0
H226 H 0.84797 0.33305 0.44069 0.0
C227 C 0.98531 0.4404 0.47242 0.0
C228 C 0.97399 0.4587 0.46184 0.0
C229 C 0.95413 0.40413 0.47618 0.0
C230 C 0.8469 0.32324 0.45559 0.0
H231 H 0.74975 0.15828 0.49808 0.0
H232 H 0.8107 0.22166 0.49531 0.0
H233 H 0.79053 0.2701 0.44523 0.0
H234 H 0.92144 0.45406 0.44755 0.0
H235 H 0.86728 0.39144 0.45432 0.0
H236 H 0.89942 0.34935 0.5037 0.0
C237 C 0.77939 0.21191 0.4896 0.0
C238 C 0.81391 0.28709 0.45819 0.0
C239 C 0.74449 0.17558 0.49112 0.0
C240 C 0.93106 0.44053 0.45564 0.0
C241 C 0.90009 0.40454 0.45938 0.0
C242 C 0.87607 0.33216 0.49076 0.0
C243 C 0.77406 0.23498 0.48012 0.0
C244 C 0.81102 0.273 0.47721 0.0
C245 C 0.91122 0.3856 0.46935 0.0
C246 C 0.87799 0.34647 0.47195 0.0
H247 H 0.66716 0.17561 0.46834 0.0
H248 H 0.72748 0.23842 0.46586 0.0
H249 H 0.84153 0.28577 0.50823 0.0
H250 H 1.01823 0.45375 0.47735 0.0
H251 H 0.96379 0.3903 0.48384 0.0
C252 C 0.60328 0.7086 0.79064 0.0
C253 C 0.62325 0.71265 0.80989 0.0
C254 C 0.59395 0.73207 0.7869 0.0
C255 C 0.58334 0.80011 0.81359 0.0
H256 H 0.59832 0.83008 0.75743 0.0
C257 C 0.58016 0.91655 0.79203 0.0
C258 C 0.55718 0.90956 0.77319 0.0
C259 C 0.5869 0.89201 0.79742 0.0
C260 C 0.59363 0.82171 0.77315 0.0
H261 H 0.64901 0.74434 0.84037 0.0
H262 H 0.6336 0.78593 0.83371 0.0
H263 H 0.61293 0.78855 0.7651 0.0
H264 H 0.52259 0.87141 0.74546 0.0
H265 H 0.53452 0.82869 0.75478 0.0
H266 H 0.56485 0.83409 0.82162 0.0
C267 C 0.62428 0.76414 0.82163 0.0
C268 C 0.60186 0.79778 0.77755 0.0
C269 C 0.63323 0.74039 0.82545 0.0
C270 C 0.5405 0.87744 0.76005 0.0
C271 C 0.54753 0.85313 0.76532 0.0
C272 C 0.57547 0.82436 0.80921 0.0
C273 C 0.6048 0.76045 0.80223 0.0
C274 C 0.59652 0.78641 0.79777 0.0
C275 C 0.57115 0.8603 0.78395 0.0
C276 C 0.58023 0.83517 0.7889 0.0
H277 H 0.59463 0.68709 0.77849 0.0
H278 H 0.57805 0.72784 0.77197 0.0
H279 H 0.57839 0.79164 0.82928 0.0
H280 H 0.59337 0.9411 0.80248 0.0
H281 H 0.60542 0.89832 0.81182 0.0
C282 C 0.82823 0.48298 0.20553 0.0
C283 C 0.85947 0.52079 0.20662 0.0
C284 C 0.78503 0.4676 0.20488 0.0
C285 C 0.71718 0.48822 0.18547 0.0
H286 H 0.627 0.39509 0.20417 0.0
C287 C 0.56128 0.3854 0.13748 0.0
C288 C 0.52264 0.36648 0.14753 0.0
C289 C 0.59995 0.40827 0.14922 0.0
C290 C 0.65173 0.42143 0.19916 0.0
H291 H 0.86991 0.57222 0.20941 0.0
H292 H 0.79449 0.54537 0.20867 0.0
H293 H 0.7 0.42833 0.21894 0.0
H294 H 0.49415 0.35525 0.17774 0.0
H295 H 0.56256 0.39502 0.19852 0.0
H296 H 0.66935 0.48073 0.16512 0.0
C297 C 0.80343 0.5276 0.20799 0.0
C298 C 0.69353 0.44029 0.20747 0.0
C299 C 0.84666 0.54299 0.2086 0.0
C300 C 0.52355 0.36999 0.16964 0.0
C301 C 0.56251 0.39265 0.18148 0.0
C302 C 0.67556 0.46936 0.17716 0.0
C303 C 0.77215 0.48972 0.20535 0.0
C304 C 0.72693 0.47327 0.20012 0.0
C305 C 0.60104 0.4122 0.17132 0.0
C306 C 0.64277 0.43517 0.18332 0.0
H307 H 0.83714 0.46518 0.20436 0.0
H308 H 0.76181 0.43832 0.20269 0.0
H309 H 0.74209 0.51337 0.17931 0.0
H310 H 0.56198 0.38197 0.12054 0.0
H311 H 0.62919 0.42209 0.14097 0.0
C312 C 0.48454 0.91171 0.48674 0.0
C313 C 0.48263 0.93659 0.47713 0.0
C314 C 0.44806 0.87569 0.4871 0.0
C315 C 0.33019 0.81826 0.48217 0.0
H316 H 0.33543 0.73871 0.46846 0.0
C317 C 0.18343 0.6744 0.4527 0.0
C318 C 0.17987 0.64432 0.45814 0.0
C319 C 0.21963 0.7096 0.45911 0.0
C320 C 0.33351 0.76058 0.47274 0.0
H321 H 0.44079 0.94284 0.46018 0.0
H322 H 0.3776 0.88027 0.46068 0.0
H323 H 0.4009 0.80116 0.47107 0.0
H324 H 0.2105 0.62727 0.4752 0.0
H325 H 0.27437 0.68929 0.48661 0.0
H326 H 0.26281 0.77785 0.4834 0.0
C327 C 0.40711 0.88865 0.4682 0.0
C328 C 0.37105 0.79641 0.47417 0.0
C329 C 0.44351 0.92452 0.46775 0.0
C330 C 0.21245 0.65009 0.47095 0.0
C331 C 0.24907 0.68551 0.47726 0.0
C332 C 0.29276 0.78254 0.48077 0.0
C333 C 0.40881 0.86382 0.47798 0.0
C334 C 0.36968 0.82569 0.4784 0.0
C335 C 0.25339 0.71566 0.47105 0.0
C336 C 0.29379 0.75325 0.47554 0.0
H337 H 0.51414 0.92005 0.49413 0.0
H338 H 0.45044 0.85731 0.49485 0.0
H339 H 0.3281 0.84015 0.48594 0.0
H340 H 0.15873 0.67062 0.4428 0.0
H341 H 0.22198 0.73204 0.45381 0.0
C342 C 0.61936 0.32461 0.84024 0.0
C343 C 0.57937 0.31397 0.84645 0.0
C344 C 0.62625 0.29888 0.8355 0.0
C345 C 0.58538 0.20544 0.84213 0.0
H346 H 0.63344 0.20969 0.78825 0.0
C347 C 0.57164 0.08417 0.79919 0.0
C348 C 0.60378 0.09125 0.78588 0.0
C349 C 0.57312 0.11272 0.80935 0.0
C350 C 0.62083 0.20839 0.80356 0.0
H351 H 0.51565 0.26779 0.85308 0.0
H352 H 0.52805 0.22307 0.84518 0.0
H353 H 0.62823 0.2572 0.80121 0.0
H354 H 0.66403 0.13352 0.77381 0.0
H355 H 0.66761 0.18345 0.79213 0.0
H356 H 0.57793 0.15657 0.84449 0.0
C357 C 0.55405 0.2514 0.84405 0.0
C358 C 0.61772 0.23565 0.81094 0.0
C359 C 0.54701 0.27709 0.84861 0.0
C360 C 0.63861 0.12738 0.78383 0.0
C361 C 0.64043 0.15593 0.7942 0.0
C362 C 0.58892 0.1783 0.83484 0.0
C363 C 0.59348 0.26195 0.83707 0.0
C364 C 0.59949 0.23426 0.83017 0.0
C365 C 0.60707 0.14898 0.80659 0.0
C366 C 0.60622 0.17918 0.81532 0.0
H367 H 0.64532 0.35285 0.83884 0.0
H368 H 0.65717 0.30784 0.83043 0.0
H369 H 0.57156 0.20388 0.85711 0.0
H370 H 0.54423 0.05651 0.80086 0.0
H371 H 0.5466 0.10621 0.81854 0.0
C372 C 0.62154 0.85799 0.50038 0.0
C373 C 0.61062 0.8743 0.51561 0.0
C374 C 0.61301 0.82486 0.5031 0.0
C375 C 0.59008 0.76577 0.54478 0.0
H376 H 0.55664 0.69362 0.49745 0.0
C377 C 0.53228 0.62219 0.55626 0.0
C378 C 0.55021 0.60877 0.54387 0.0
C379 C 0.53841 0.6537 0.55192 0.0
C380 C 0.56627 0.71366 0.51078 0.0
H381 H 0.58077 0.86807 0.54522 0.0
H382 H 0.56495 0.80997 0.54979 0.0
H383 H 0.56883 0.75005 0.49159 0.0
H384 H 0.58768 0.61717 0.51681 0.0
H385 H 0.59817 0.67233 0.50909 0.0
H386 H 0.58693 0.72917 0.56398 0.0
C387 C 0.58125 0.82317 0.53602 0.0
C388 C 0.57336 0.74605 0.50744 0.0
C389 C 0.59015 0.85642 0.53339 0.0
C390 C 0.57351 0.62693 0.52665 0.0
C391 C 0.57937 0.65839 0.52218 0.0
C392 C 0.58263 0.73334 0.54812 0.0
C393 C 0.59302 0.80713 0.52105 0.0
C394 C 0.58529 0.77252 0.52443 0.0
C395 C 0.56239 0.67238 0.53498 0.0
C396 C 0.57056 0.70689 0.53118 0.0
H397 H 0.63773 0.87133 0.48661 0.0
H398 H 0.62307 0.81365 0.49138 0.0
H399 H 0.60019 0.78579 0.55819 0.0
H400 H 0.51409 0.60862 0.56959 0.0
H401 H 0.52444 0.66353 0.56188 0.0
C402 C 0.71104 0.48726 0.84354 0.0
C403 C 0.71499 0.51758 0.83792 0.0
C404 C 0.74636 0.48699 0.84398 0.0
C405 C 0.86652 0.54891 0.84615 0.0
H406 H 0.85141 0.45962 0.83076 0.0
C407 C 1.01252 0.54696 0.84536 0.0
C408 C 1.00689 0.51716 0.85303 0.0
C409 C 0.97726 0.54641 0.84107 0.0
C410 C 0.85644 0.48486 0.83533 0.0
H411 H 0.76023 0.57144 0.82821 0.0
H412 H 0.82128 0.57088 0.82879 0.0
H413 H 0.79038 0.45995 0.82873 0.0
H414 H 0.95944 0.46338 0.86207 0.0
H415 H 0.89837 0.46198 0.8544 0.0
H416 H 0.93246 0.57375 0.85298 0.0
C417 C 0.79093 0.54731 0.83315 0.0
C418 C 0.82109 0.48503 0.83418 0.0
C419 C 0.75558 0.54754 0.83267 0.0
C420 C 0.96491 0.48636 0.85554 0.0
C421 C 0.92973 0.48572 0.85124 0.0
C422 C 0.90186 0.54873 0.84733 0.0
C423 C 0.78712 0.51707 0.83887 0.0
C424 C 0.82532 0.51702 0.83968 0.0
C425 C 0.93519 0.51609 0.84444 0.0
C426 C 0.89756 0.51666 0.84206 0.0
H427 H 0.68056 0.46362 0.84776 0.0
H428 H 0.74174 0.46327 0.84874 0.0
H429 H 0.87148 0.57409 0.85087 0.0
H430 H 1.04439 0.57152 0.84381 0.0
H431 H 0.9832 0.57023 0.83559 0.0
C432 C 0.21491 0.69507 0.16677 0.0
C433 C 0.21237 0.66569 0.15683 0.0
C434 C 0.25133 0.73072 0.16578 0.0
C435 C 0.36619 0.78651 0.15783 0.0
H436 H 0.35227 0.86031 0.15114 0.0
C437 C 0.51066 0.93969 0.16346 0.0
C438 C 0.50505 0.96169 0.17702 0.0
C439 C 0.47565 0.90381 0.15657 0.0
C440 C 0.35677 0.84007 0.15304 0.0
H441 H 0.24663 0.65097 0.13813 0.0
H442 H 0.31065 0.71355 0.13653 0.0
H443 H 0.28999 0.79663 0.14801 0.0
H444 H 0.45882 0.96432 0.19335 0.0
H445 H 0.39793 0.90229 0.18126 0.0
H446 H 0.43294 0.83018 0.16351 0.0
C447 C 0.28421 0.70877 0.1451 0.0
C448 C 0.32104 0.80356 0.15128 0.0
C449 C 0.24748 0.67294 0.14597 0.0
C450 C 0.46382 0.94792 0.18274 0.0
C451 C 0.42895 0.91239 0.17575 0.0
C452 C 0.40204 0.82316 0.15963 0.0
C453 C 0.28641 0.7381 0.15488 0.0
C454 C 0.32512 0.77638 0.15422 0.0
C455 C 0.43446 0.88954 0.16297 0.0
C456 C 0.3976 0.85046 0.15783 0.0
H457 H 0.1886 0.69064 0.1753 0.0
H458 H 0.25219 0.75257 0.17382 0.0
H459 H 0.37044 0.76628 0.16026 0.0
H460 H 0.54229 0.94966 0.15905 0.0
H461 H 0.48092 0.887 0.14663 0.0
C462 C 0.53358 0.22656 0.46775 0.0
C463 C 0.56641 0.22378 0.47114 0.0
C464 C 0.54029 0.25941 0.47307 0.0
C465 C 0.60507 0.34201 0.50955 0.0
H466 H 0.56416 0.37942 0.47438 0.0
C467 C 0.63062 0.47443 0.53728 0.0
C468 C 0.59637 0.47516 0.53363 0.0
C469 C 0.63077 0.44673 0.5272 0.0
C470 C 0.57544 0.3692 0.4845 0.0
H471 H 0.63276 0.25411 0.48185 0.0
H472 H 0.64403 0.31107 0.49156 0.0
H473 H 0.55657 0.32491 0.46137 0.0
H474 H 0.53599 0.44818 0.51617 0.0
H475 H 0.5355 0.3992 0.49895 0.0
H476 H 0.62247 0.38508 0.53301 0.0
C477 C 0.613 0.28768 0.48495 0.0
C478 C 0.57119 0.33803 0.47699 0.0
C479 C 0.60645 0.25497 0.47945 0.0
C480 C 0.56301 0.44844 0.51909 0.0
C481 C 0.56284 0.42041 0.5092 0.0
C482 C 0.60891 0.37287 0.51714 0.0
C483 C 0.57985 0.29013 0.48207 0.0
C484 C 0.58584 0.32405 0.48948 0.0
C485 C 0.5963 0.41873 0.51348 0.0
C486 C 0.59402 0.38686 0.50477 0.0
H487 H 0.50218 0.20306 0.46165 0.0
H488 H 0.514 0.26038 0.47088 0.0
H489 H 0.61603 0.33155 0.51969 0.0
H490 H 0.65694 0.49494 0.54828 0.0
H491 H 0.65762 0.44694 0.53049 0.0
C492 C 0.45208 0.4845 0.84547 0.0
C493 C 0.49312 0.51653 0.84293 0.0
C494 C 0.41632 0.48406 0.84618 0.0
C495 C 0.37778 0.53913 0.83656 0.0
H496 H 0.2856 0.46944 0.86954 0.0
C497 C 0.21557 0.51982 0.8417 0.0
C498 C 0.1941 0.50842 0.86047 0.0
C499 C 0.25259 0.5221 0.83848 0.0
C500 C 0.31104 0.48958 0.86044 0.0
H501 H 0.52799 0.57348 0.83905 0.0
H502 H 0.46618 0.57317 0.84109 0.0
H503 H 0.34798 0.47199 0.86697 0.0
H504 H 0.19617 0.49212 0.89076 0.0
H505 H 0.2602 0.49753 0.88574 0.0
H506 H 0.34098 0.55768 0.83094 0.0
C507 C 0.46122 0.5479 0.84203 0.0
C508 C 0.34704 0.49056 0.85858 0.0
C509 C 0.49704 0.54819 0.84101 0.0
C510 C 0.21139 0.50057 0.87599 0.0
C511 C 0.24824 0.5033 0.87296 0.0
C512 C 0.34172 0.5384 0.83863 0.0
C513 C 0.42002 0.51582 0.84477 0.0
C514 C 0.38131 0.51527 0.8466 0.0
C515 C 0.26929 0.51332 0.85399 0.0
C516 C 0.30767 0.51375 0.85077 0.0
H517 H 0.44735 0.45937 0.84672 0.0
H518 H 0.38555 0.45839 0.84766 0.0
H519 H 0.40276 0.55835 0.82692 0.0
H520 H 0.20322 0.52603 0.82935 0.0
H521 H 0.26742 0.52987 0.82359 0.0
C522 C 0.94777 0.44055 0.16933 0.0
C523 C 0.97977 0.44703 0.15604 0.0
C524 C 0.91119 0.40521 0.1711 0.0
C525 C 0.84572 0.31049 0.14541 0.0
H526 H 0.80532 0.28779 0.20153 0.0
C527 C 0.70685 0.16422 0.16571 0.0
C528 C 0.67851 0.16193 0.18017 0.0
C529 C 0.74384 0.19824 0.16152 0.0
C530 C 0.81584 0.2937 0.1857 0.0
H531 H 0.99773 0.42115 0.13381 0.0
H532 H 0.9339 0.35935 0.13703 0.0
H533 H 0.86875 0.34828 0.19647 0.0
H534 H 0.66588 0.19311 0.20107 0.0
H535 H 0.72956 0.25201 0.19365 0.0
H536 H 0.79245 0.25559 0.13473 0.0
C537 C 0.93704 0.38174 0.14596 0.0
C538 C 0.85228 0.32848 0.18279 0.0
C539 C 0.97374 0.41721 0.14419 0.0
C540 C 0.68728 0.19407 0.18994 0.0
C541 C 0.72399 0.22785 0.18579 0.0
C542 C 0.80909 0.27552 0.14834 0.0
C543 C 0.90555 0.37526 0.15967 0.0
C544 C 0.86746 0.33756 0.1626 0.0
C545 C 0.75316 0.23048 0.17179 0.0
C546 C 0.79336 0.26686 0.16851 0.0
H547 H 0.95109 0.46277 0.17863 0.0
H548 H 0.88727 0.40136 0.18149 0.0
H549 H 0.85638 0.31657 0.12962 0.0
H550 H 0.70095 0.13986 0.15797 0.0
H551 H 0.7657 0.19927 0.15071 0.0
C552 C 0.07666 0.53539 0.09068 0.0
C553 C 0.07916 0.56437 0.10118 0.0
C554 C 0.07843 0.53228 0.06879 0.0
C555 C 0.11047 0.58454 0.02254 0.0
H556 H 1.03487 0.48896 0.99163 0.0
C557 C 0.11884 0.55858 0.93282 0.0
C558 C 0.07986 0.53425 0.92098 0.0
C559 C 0.11993 0.56256 0.95485 0.0
C560 C 1.05599 0.51589 -1e-05 0.0
H561 H 0.08589 0.61301 0.09718 0.0
H562 H 0.08822 0.60732 0.05885 0.0
H563 H 1.03424 0.49567 0.02984 0.0
H564 H 1.01152 0.49468 0.92309 0.0
H565 H 1.01331 0.50228 0.96137 0.0
H566 H 0.13131 0.60483 0.99258 0.0
C567 C 0.08551 0.58724 0.06752 0.0
C568 C 1.05603 0.51969 0.02195 0.0
C569 C 0.08387 0.59039 0.08944 0.0
C570 C 1.04205 0.51399 0.9317 0.0
C571 C 1.04313 0.51801 0.95369 0.0
C572 C 0.11038 0.58074 0.00055 0.0
C573 C 0.0826 0.55803 0.0569 0.0
C574 C 0.08318 0.55407 0.03352 0.0
C575 C 0.08207 0.54229 0.96555 0.0
C576 C 0.08299 0.54637 0.98899 0.0
H577 H 0.07334 0.51507 0.09938 0.0
H578 H 0.07683 0.50979 0.06119 0.0
H579 H 0.13214 0.61137 0.03096 0.0
H580 H 0.14851 0.57482 0.92506 0.0
H581 H 0.15051 0.58125 0.9635 0.0
C582 C 0.64953 0.05798 0.41135 0.0
C583 C 0.61364 0.04379 0.42334 0.0
C584 C 0.64628 0.05807 0.38962 0.0
C585 C 0.57985 0.05234 0.34694 0.0
H586 H 0.63698 0.02393 0.3115 0.0
C587 C 0.58228 0.00825 0.25377 0.0
C588 C 0.58532 0.03566 0.24435 0.0
C589 C 0.58619 0.01008 0.27564 0.0
C590 C 0.62066 0.03175 0.32116 0.0
H591 H 0.54633 0.01909 0.42218 0.0
H592 H 0.5405 0.01905 0.38405 0.0
H593 H 0.64199 0.0251 0.3496 0.0
H594 H 0.59473 0.08647 0.25054 0.0
H595 H 0.60213 0.08992 0.28883 0.0
H596 H 0.55795 0.05839 0.31839 0.0
C597 C 0.57124 0.03034 0.39148 0.0
C598 C 0.6239 0.03279 0.34301 0.0
C599 C 0.5745 0.03018 0.41327 0.0
C600 C 0.59262 0.06509 0.25732 0.0
C601 C 0.59637 0.06686 0.27924 0.0
C602 C 0.57674 0.05143 0.32505 0.0
C603 C 0.60705 0.04402 0.3794 0.0
C604 C 0.60352 0.04306 0.35616 0.0
C605 C 0.59316 0.03934 0.28864 0.0
C606 C 0.59702 0.04101 0.31192 0.0
H607 H 0.68017 0.06887 0.41875 0.0
H608 H 0.67459 0.06931 0.38081 0.0
H609 H 0.56407 0.06065 0.35666 0.0
H610 H 0.57706 0.98539 0.24419 0.0
H611 H 0.58316 0.98827 0.2824 0.0
C612 C 0.62281 0.51986 0.77175 0.0
C613 C 0.58314 0.49986 0.78081 0.0
C614 C 0.62541 0.52528 0.75041 0.0
C615 C 0.55702 0.48764 0.70061 0.0
H616 H 0.65488 0.57456 0.67953 0.0
C617 C 0.55972 0.52163 0.61592 0.0
C618 C 0.59378 0.5281 0.60447 0.0
C619 C 0.55997 0.52029 0.63767 0.0
C620 C 0.62748 0.55013 0.68526 0.0
H621 H 0.51545 0.47143 0.77521 0.0
H622 H 0.51995 0.48226 0.73839 0.0
H623 H 0.65195 0.56894 0.71732 0.0
H624 H 0.65534 0.53934 0.60673 0.0
H625 H 0.65621 0.53781 0.64504 0.0
H626 H 0.53212 0.46947 0.66856 0.0
C627 C 0.54899 0.49251 0.74731 0.0
C628 C 0.62581 0.54675 0.70688 0.0
C629 C 0.54636 0.48652 0.76847 0.0
C630 C 0.62866 0.53418 0.61523 0.0
C631 C 0.62926 0.53351 0.63708 0.0
C632 C 0.55837 0.49134 0.67912 0.0
C633 C 0.58842 0.51134 0.73783 0.0
C634 C 0.59051 0.51541 0.71485 0.0
C635 C 0.59461 0.52601 0.64842 0.0
C636 C 0.59358 0.52257 0.67125 0.0
H637 H 0.65165 0.5304 0.78099 0.0
H638 H 0.65628 0.53955 0.74371 0.0
H639 H 0.52983 0.46267 0.70596 0.0
H640 H 0.53234 0.51661 0.60796 0.0
H641 H 0.53298 0.51461 0.64611 0.0
C642 C 0.53955 0.02895 0.54939 0.0
C643 C 0.57577 0.05266 0.53834 0.0
C644 C 0.54375 0.02583 0.57059 0.0
C645 C 0.61076 0.07602 0.6181 0.0
H646 H 0.55745 0.98209 0.63797 0.0
C647 C 0.63037 0.06376 0.70538 0.0
C648 C 0.59518 0.03408 0.71436 0.0
C649 C 0.63036 0.06525 0.68362 0.0
C650 C 0.57205 0.00852 0.63279 0.0
H651 H 0.64467 0.09173 0.54055 0.0
H652 H 0.65192 0.08708 0.57792 0.0
H653 H 0.55204 0.98616 0.6005 0.0
H654 H 0.53236 0.98278 0.70783 0.0
H655 H 0.53133 0.98589 0.66999 0.0
H656 H 0.62916 0.09847 0.65027 0.0
C657 C 0.62041 0.0707 0.5701 0.0
C658 C 0.56912 0.01078 0.6113 0.0
C659 C 0.61627 0.07329 0.54879 0.0
C660 C 0.56008 0.00578 0.70121 0.0
C661 C 0.55969 0.00754 0.6795 0.0
C662 C 0.61303 0.07374 0.63964 0.0
C663 C 0.58418 0.04689 0.58116 0.0
C664 C 0.58837 0.04454 0.6038 0.0
C665 C 0.59475 0.0374 0.67039 0.0
C666 C 0.59359 0.03992 0.64732 0.0
H667 H 0.508 0.01263 0.54162 0.0
H668 H 0.51535 0.00745 0.57885 0.0
H669 H 0.62549 0.10234 0.61268 0.0
H670 H 0.65797 0.08577 0.71522 0.0
H671 H 0.65834 0.08829 0.67721 0.0
C672 C 0.58486 0.50837 0.90612 0.0
C673 C 0.62413 0.5274 0.89676 0.0
C674 C 0.57988 0.49346 0.92488 0.0
C675 C 0.56781 0.44857 0.95882 0.0
H676 H 0.66128 0.49716 0.00102 0.0
C677 C 0.53677 0.39895 0.04051 0.0
C678 C 0.55682 0.42618 0.05763 0.0
C679 C 0.55067 0.40714 0.02017 0.0
C680 C 0.6346 0.48333 0.98953 0.0
H681 H 0.68887 0.54535 0.89919 0.0
H682 H 0.67986 0.51778 0.93153 0.0
H683 H 0.67285 0.52104 0.96739 0.0
H684 H 0.61026 0.4825 0.06695 0.0
H685 H 0.63206 0.49741 0.03167 0.0
H686 H 0.52852 0.41296 0.98148 0.0
C687 C 0.65318 0.5154 0.92491 0.0
C688 C 0.64149 0.49674 0.96998 0.0
C689 C 0.65842 0.53115 0.90635 0.0
C690 C 0.59302 0.46107 0.05408 0.0
C691 C 0.60616 0.46948 0.03372 0.0
C692 C 0.56064 0.4358 0.97853 0.0
C693 C 0.61376 0.4963 0.93446 0.0
C694 C 0.60788 0.48006 0.95451 0.0
C695 C 0.58429 0.44293 0.01633 0.0
C696 C 0.59367 0.45346 0.9944 0.0
H697 H 0.55801 0.50528 0.89899 0.0
H698 H 0.54943 0.48005 0.93195 0.0
H699 H 0.54139 0.43411 0.94714 0.0
H700 H 0.50891 0.3717 0.04256 0.0
H701 H 0.53386 0.38555 0.00737 0.0
C702 C 0.12231 0.57759 0.22449 0.0
C703 C 0.11529 0.54719 0.21302 0.0
C704 C 0.11873 0.57876 0.24631 0.0
C705 C 0.12194 0.53855 0.29255 0.0
H706 H 0.06591 0.57584 0.31937 0.0
C707 C 0.09102 0.53196 0.38102 0.0
C708 C 0.10057 0.56358 0.39225 0.0
C709 C 0.08971 0.52834 0.35901 0.0
C710 C 0.08193 0.5656 0.31212 0.0
H711 H 0.09906 0.49422 0.21518 0.0
H712 H 0.09268 0.49614 0.25321 0.0
H713 H 0.07079 0.57345 0.28118 0.0
H714 H 0.11436 0.61547 0.38918 0.0
H715 H 0.11285 0.60946 0.35083 0.0
H716 H 0.13346 0.53099 0.32344 0.0
C717 C 0.10133 0.51924 0.24547 0.0
C718 C 0.08478 0.56429 0.29026 0.0
C719 C 0.10483 0.51808 0.22369 0.0
C720 C 0.10749 0.59099 0.38098 0.0
C721 C 0.10615 0.58737 0.35899 0.0
C722 C 0.11913 0.53988 0.31439 0.0
C723 C 0.10826 0.54959 0.25704 0.0
C724 C 0.10492 0.55084 0.28024 0.0
C725 C 0.09781 0.55622 0.34775 0.0
C726 C 0.09922 0.55353 0.32444 0.0
H727 H 0.13073 0.60051 0.21662 0.0
H728 H 0.12479 0.60271 0.25483 0.0
H729 H 0.13823 0.52853 0.28534 0.0
H730 H 0.08576 0.51045 0.38926 0.0
H731 H 0.08264 0.5038 0.3508 0.0
loop_
_geom_bond_atom_site_label_1
_geom_bond_atom_site_label_2
_geom_bond_distance
_geom_bond_site_symmetry_2
_ccdc_geom_bond_type
Ho0 C3 2.811 . S
Ho0 O20 2.322 . S
Ho0 O22 2.378 . S
Ho0 O23 2.524 . S
Ho0 O24 2.381 . S
Ho0 O25 2.669 . S
Ho0 O27 2.346 . S
Ho0 O31 2.305 . S
Ho1 C12 2.811 1_455 S
Ho1 O21 2.346 . S
Ho1 O25 2.305 . S
Ho1 O26 2.322 1_455 S
Ho1 O28 2.378 1_455 S
Ho1 O29 2.524 1_455 S
Ho1 O30 2.381 . S
Ho1 O31 2.669 . S
C2 O20 1.259 . S
C2 O21 1.268 . S
C3 Ho0 2.811 . S
C3 C4 1.488 . S
C3 O22 1.215 . S
C3 O23 1.289 . S
C4 C3 1.488 . S
C4 C5 1.348 . S
C4 C9 1.413 . S
C5 C4 1.348 . S
C5 C6 1.442 . S
C5 H32 0.930 . S
C6 C5 1.442 . S
C6 C7 1.381 . S
C6 H33 0.931 . S
C7 C6 1.381 . S
C7 C8 1.321 . S
C8 C7 1.321 . S
C8 C9 1.403 . S
C8 H34 0.934 . S
C9 C4 1.413 . S
C9 C8 1.403 . S
C9 H35 0.930 . S
C10 O24 1.275 . S
C10 O25 1.256 . S
C11 O26 1.259 . S
C11 O27 1.268 1_655 S
C12 Ho1 2.811 1_655 S
C12 C13 1.488 . S
C12 O28 1.215 . S
C12 O29 1.289 . S
C13 C12 1.488 . S
C13 C14 1.348 . S
C13 C18 1.413 . S
C14 C13 1.348 . S
C14 C15 1.442 . S
C14 H36 0.930 . S
C15 C14 1.442 . S
C15 C16 1.381 . S
C15 H37 0.931 . S
C16 C15 1.381 . S
C16 C17 1.321 . S
C17 C16 1.321 . S
C17 C18 1.403 . S
C17 H38 0.934 . S
C18 C13 1.413 . S
C18 C17 1.403 . S
C18 H39 0.930 . S
C19 O30 1.275 . S
C19 O31 1.256 . S
O20 Ho0 2.322 . S
O20 C2 1.259 . S
O21 Ho1 2.346 . S
O21 C2 1.268 . S
O22 Ho0 2.378 . S
O22 C3 1.215 . S
O23 Ho0 2.524 . S
O23 C3 1.289 . S
O24 Ho0 2.381 . S
O24 C10 1.275 . S
O25 Ho0 2.669 . S
O25 Ho1 2.305 . S
O25 C10 1.256 . S
O26 Ho1 2.322 1_655 S
O26 C11 1.259 . S
O27 Ho0 2.346 . S
O27 C11 1.268 1_455 S
O28 Ho1 2.378 1_655 S
O28 C12 1.215 . S
O29 Ho1 2.524 1_655 S
O29 C12 1.289 . S
O30 Ho1 2.381 . S
O30 C19 1.275 . S
O31 Ho0 2.305 . S
O31 Ho1 2.669 . S
O31 C19 1.256 . S
H32 C5 0.930 . S
H33 C6 0.931 . S
H34 C8 0.934 . S
H35 C9 0.930 . S
H36 C14 0.930 . S
H37 C15 0.931 . S
H38 C17 0.934 . S
H39 C18 0.930 . S
Ho40 C43 2.811 1_545 S
Ho40 O60 2.322 1_545 S
Ho40 O62 2.378 1_545 S
Ho40 O63 2.524 1_545 S
Ho40 O64 2.381 . S
Ho40 O65 2.669 . S
Ho40 O67 2.346 . S
Ho40 O71 2.305 . S
Ho41 C52 2.811 . S
Ho41 O61 2.346 1_545 S
Ho41 O65 2.305 . S
Ho41 O66 2.322 . S
Ho41 O68 2.378 . S
Ho41 O69 2.524 . S
Ho41 O70 2.381 . S
Ho41 O71 2.669 . S
C42 O60 1.259 . S
C42 O61 1.268 . S
C43 Ho40 2.811 1_565 S
C43 C44 1.488 . S
C43 O62 1.215 . S
C43 O63 1.289 . S
C44 C43 1.488 . S
C44 C45 1.348 . S
C44 C49 1.413 . S
C45 C44 1.348 . S
C45 C46 1.442 . S
C45 H72 0.930 . S
C46 C45 1.442 . S
C46 C47 1.381 . S
C46 H73 0.931 . S
C47 C46 1.381 . S
C47 C48 1.321 . S
C48 C47 1.321 . S
C48 C49 1.403 . S
C48 H74 0.934 . S
C49 C44 1.413 . S
C49 C48 1.403 . S
C49 H75 0.930 . S
C50 O64 1.275 . S
C50 O65 1.256 . S
C51 O66 1.259 . S
C51 O67 1.268 . S
C52 Ho41 2.811 . S
C52 C53 1.488 . S
C52 O68 1.215 . S
C52 O69 1.289 . S
C53 C52 1.488 . S
C53 C54 1.348 . S
C53 C58 1.413 . S
C54 C53 1.348 . S
C54 C55 1.442 . S
C54 H76 0.930 . S
C55 C54 1.442 . S
C55 C56 1.381 . S
C55 H77 0.931 . S
C56 C55 1.381 . S
C56 C57 1.321 . S
C57 C56 1.321 . S
C57 C58 1.403 . S
C57 H78 0.934 . S
C58 C53 1.413 . S
C58 C57 1.403 . S
C58 H79 0.930 . S
C59 O70 1.275 . S
C59 O71 1.256 . S
O60 Ho40 2.322 1_565 S
O60 C42 1.259 . S
O61 Ho41 2.346 1_565 S
O61 C42 1.268 . S
O62 Ho40 2.378 1_565 S
O62 C43 1.215 . S
O63 Ho40 2.524 1_565 S
O63 C43 1.289 . S
O64 Ho40 2.381 . S
O64 C50 1.275 . S
O65 Ho40 2.669 . S
O65 Ho41 2.305 . S
O65 C50 1.256 . S
O66 Ho41 2.322 . S
O66 C51 1.259 . S
O67 Ho40 2.346 . S
O67 C51 1.268 . S
O68 Ho41 2.378 . S
O68 C52 1.215 . S
O69 Ho41 2.524 . S
O69 C52 1.289 . S
O70 Ho41 2.381 . S
O70 C59 1.275 . S
O71 Ho40 2.305 . S
O71 Ho41 2.669 . S
O71 C59 1.256 . S
H72 C45 0.930 . S
H73 C46 0.931 . S
H74 C48 0.934 . S
H75 C49 0.930 . S
H76 C54 0.930 . S
H77 C55 0.931 . S
H78 C57 0.934 . S
H79 C58 0.930 . S
Ho80 C83 2.811 . S
Ho80 O100 2.322 . S
Ho80 O102 2.378 . S
Ho80 O103 2.524 . S
Ho80 O104 2.381 . S
Ho80 O105 2.669 . S
Ho80 O107 2.346 . S
Ho80 O111 2.305 . S
Ho81 C92 2.811 . S
Ho81 O101 2.346 . S
Ho81 O105 2.305 . S
Ho81 O106 2.322 . S
Ho81 O108 2.378 . S
Ho81 O109 2.524 . S
Ho81 O110 2.381 . S
Ho81 O111 2.669 . S
C82 O100 1.259 . S
C82 O101 1.268 . S
C83 Ho80 2.811 . S
C83 C84 1.488 . S
C83 O102 1.215 . S
C83 O103 1.289 . S
C84 C83 1.488 . S
C84 C85 1.348 . S
C84 C89 1.413 . S
C85 C84 1.348 . S
C85 C86 1.442 . S
C85 H112 0.930 . S
C86 C85 1.442 . S
C86 C87 1.381 . S
C86 H113 0.931 . S
C87 C86 1.381 . S
C87 C88 1.321 . S
C88 C87 1.321 . S
C88 C89 1.403 . S
C88 H114 0.934 . S
C89 C84 1.413 . S
C89 C88 1.403 . S
C89 H115 0.930 . S
C90 O104 1.275 . S
C90 O105 1.256 . S
C91 O106 1.259 . S
C91 O107 1.268 . S
C92 Ho81 2.811 . S
C92 C93 1.488 . S
C92 O108 1.215 . S
C92 O109 1.289 . S
C93 C92 1.488 . S
C93 C94 1.348 . S
C93 C98 1.413 . S
C94 C93 1.348 . S
C94 C95 1.442 . S
C94 H116 0.930 . S
C95 C94 1.442 . S
C95 C96 1.381 . S
C95 H117 0.931 . S
C96 C95 1.381 . S
C96 C97 1.321 . S
C97 C96 1.321 . S
C97 C98 1.403 . S
C97 H118 0.934 . S
C98 C93 1.413 . S
C98 C97 1.403 . S
C98 H119 0.930 . S
C99 O110 1.275 . S
C99 O111 1.256 . S
O100 Ho80 2.322 . S
O100 C82 1.259 . S
O101 Ho81 2.346 . S
O101 C82 1.268 . S
O102 Ho80 2.378 . S
O102 C83 1.215 . S
O103 Ho80 2.524 . S
O103 C83 1.289 . S
O104 Ho80 2.381 . S
O104 C90 1.275 . S
O105 Ho80 2.669 . S
O105 Ho81 2.305 . S
O105 C90 1.256 . S
O106 Ho81 2.322 . S
O106 C91 1.259 . S
O107 Ho80 2.346 . S
O107 C91 1.268 . S
O108 Ho81 2.378 . S
O108 C92 1.215 . S
O109 Ho81 2.524 . S
O109 C92 1.289 . S
O110 Ho81 2.381 . S
O110 C99 1.275 . S
O111 Ho80 2.305 . S
O111 Ho81 2.669 . S
O111 C99 1.256 . S
H112 C85 0.930 . S
H113 C86 0.931 . S
H114 C88 0.934 . S
H115 C89 0.930 . S
H116 C94 0.930 . S
H117 C95 0.931 . S
H118 C97 0.934 . S
H119 C98 0.930 . S
H120 C125 0.930 . S
H121 C128 0.930 . S
H122 C130 0.930 1_565 S
H123 C124 1.016 . S
C124 H123 1.016 . S
C124 N131 1.286 . S
C125 H120 0.930 . S
C125 C126 1.397 . S
C125 C127 1.361 . S
C126 C125 1.397 . S
C126 C130 1.390 . S
C127 C125 1.361 . S
C127 C128 1.393 . S
C127 N131 1.413 . S
C128 H121 0.930 . S
C128 C127 1.393 . S
C128 C129 1.399 . S
C129 C128 1.399 . S
C129 C130 1.381 . S
C130 H122 0.930 1_545 S
C130 C126 1.390 . S
C130 C129 1.381 . S
N131 C124 1.286 . S
N131 C127 1.413 . S
H132 C137 0.930 . S
H133 C140 0.930 . S
H134 C142 0.930 . S
H135 C136 1.016 . S
C136 H135 1.016 . S
C136 N143 1.286 . S
C137 H132 0.930 . S
C137 C138 1.397 . S
C137 C139 1.361 . S
C138 C137 1.397 . S
C138 C142 1.390 . S
C139 C137 1.361 . S
C139 C140 1.393 . S
C139 N143 1.413 . S
C140 H133 0.930 . S
C140 C139 1.393 . S
C140 C141 1.399 . S
C141 C140 1.399 . S
C141 C142 1.381 . S
C142 H134 0.930 . S
C142 C138 1.390 . S
C142 C141 1.381 . S
N143 C136 1.286 . S
N143 C139 1.413 . S
H144 C149 0.930 . S
H145 C152 0.930 . S
H146 C154 0.930 . S
H147 C148 1.016 . S
C148 H147 1.016 . S
C148 N155 1.286 . S
C149 H144 0.930 . S
C149 C150 1.397 . S
C149 C151 1.361 . S
C150 C149 1.397 . S
C150 C154 1.390 . S
C151 C149 1.361 . S
C151 C152 1.393 . S
C151 N155 1.413 . S
C152 H145 0.930 . S
C152 C151 1.393 . S
C152 C153 1.399 . S
C153 C152 1.399 . S
C153 C154 1.381 . S
C154 H146 0.930 . S
C154 C150 1.390 . S
C154 C153 1.381 . S
N155 C148 1.286 . S
N155 C151 1.413 . S
H156 C161 0.930 . S
H157 C164 0.930 . S
H158 C166 0.930 . S
H159 C160 1.016 . S
C160 H159 1.016 . S
C160 N167 1.286 . S
C161 H156 0.930 . S
C161 C162 1.397 . S
C161 C163 1.361 1_455 S
C162 C161 1.397 . S
C162 C166 1.390 . S
C163 C161 1.361 1_655 S
C163 C164 1.393 . S
C163 N167 1.413 . S
C164 H157 0.930 . S
C164 C163 1.393 . S
C164 C165 1.399 1_655 S
C165 C164 1.399 1_455 S
C165 C166 1.381 . S
C166 H158 0.930 . S
C166 C162 1.390 . S
C166 C165 1.381 . S
N167 C160 1.286 . S
N167 C163 1.413 . S
H168 C173 0.930 . S
H169 C176 0.930 . S
H170 C178 0.930 . S
H171 C172 1.016 . S
C172 H171 1.016 . S
C172 N179 1.286 . S
C173 H168 0.930 . S
C173 C174 1.397 . S
C173 C175 1.361 . S
C174 C173 1.397 . S
C174 C178 1.390 . S
C175 C173 1.361 . S
C175 C176 1.393 1_545 S
C175 N179 1.413 1_545 S
C176 H169 0.930 . S
C176 C175 1.393 1_565 S
C176 C177 1.399 1_565 S
C177 C176 1.399 1_545 S
C177 C178 1.381 . S
C178 H170 0.930 . S
C178 C174 1.390 . S
C178 C177 1.381 . S
N179 C172 1.286 . S
N179 C175 1.413 1_565 S
H180 C185 0.930 . S
H181 C188 0.930 . S
H182 C190 0.930 . S
H183 C184 1.016 . S
C184 H183 1.016 . S
C184 N191 1.286 . S
C185 H180 0.930 . S
C185 C186 1.397 . S
C185 C187 1.361 . S
C186 C185 1.397 . S
C186 C190 1.390 . S
C187 C185 1.361 . S
C187 C188 1.393 . S
C187 N191 1.413 . S
C188 H181 0.930 . S
C188 C187 1.393 . S
C188 C189 1.399 . S
C189 C188 1.399 . S
C189 C190 1.381 . S
C190 H182 0.930 . S
C190 C186 1.390 . S
C190 C189 1.381 . S
N191 C184 1.286 . S
N191 C187 1.413 . S
C192 C193 1.349 . S
C192 C194 1.327 . S
C192 H217 0.950 . S
C193 C192 1.349 . S
C193 C209 1.349 . S
C194 C192 1.327 . S
C194 C213 1.429 . S
C194 H218 0.950 . S
C195 C212 1.574 . S
C195 C214 1.368 . S
C195 H219 0.949 . S
H196 C200 0.949 . S
C197 C198 1.349 . S
C197 C199 1.327 . S
C197 H220 0.950 . S
C198 C197 1.349 . S
C198 C210 1.349 . S
C199 C197 1.327 . S
C199 C215 1.429 . S
C199 H221 0.950 . S
C200 H196 0.949 . S
C200 C208 1.574 . S
C200 C216 1.368 . S
H201 C209 0.950 . S
H202 C207 0.950 . S
H203 C208 0.949 . S
H204 C210 0.950 . S
H205 C211 0.950 . S
H206 C212 0.949 . S
C207 H202 0.950 . S
C207 C209 1.327 . S
C207 C213 1.429 . S
C208 C200 1.574 . S
C208 H203 0.949 . S
C208 C214 1.368 . S
C209 C193 1.349 . S
C209 H201 0.950 . S
C209 C207 1.327 . S
C210 C198 1.349 . S
C210 H204 0.950 . S
C210 C211 1.327 . S
C211 H205 0.950 . S
C211 C210 1.327 . S
C211 C215 1.429 . S
C212 C195 1.574 . S
C212 H206 0.949 . S
C212 C216 1.368 . S
C213 C194 1.429 . S
C213 C207 1.429 . S
C213 C214 1.523 . S
C214 C195 1.368 . S
C214 C208 1.368 . S
C214 C213 1.523 . S
C215 C199 1.429 . S
C215 C211 1.429 . S
C215 C216 1.523 . S
C216 C200 1.368 . S
C216 C212 1.368 . S
C216 C215 1.523 . S
H217 C192 0.950 . S
H218 C194 0.950 . S
H219 C195 0.949 . S
H220 C197 0.950 . S
H221 C199 0.950 . S
C222 C223 1.349 . S
C222 C224 1.327 . S
C222 H247 0.950 . S
C223 C222 1.349 . S
C223 C239 1.349 . S
C224 C222 1.327 . S
C224 C243 1.429 . S
C224 H248 0.950 . S
C225 C242 1.574 . S
C225 C244 1.368 . S
C225 H249 0.949 . S
H226 C230 0.949 . S
C227 C228 1.349 . S
C227 C229 1.327 . S
C227 H250 0.950 . S
C228 C227 1.349 . S
C228 C240 1.349 . S
C229 C227 1.327 . S
C229 C245 1.429 . S
C229 H251 0.950 . S
C230 H226 0.949 . S
C230 C238 1.574 . S
C230 C246 1.368 . S
H231 C239 0.950 . S
H232 C237 0.950 . S
H233 C238 0.949 . S
H234 C240 0.950 . S
H235 C241 0.950 . S
H236 C242 0.949 . S
C237 H232 0.950 . S
C237 C239 1.327 . S
C237 C243 1.429 . S
C238 C230 1.574 . S
C238 H233 0.949 . S
C238 C244 1.368 . S
C239 C223 1.349 . S
C239 H231 0.950 . S
C239 C237 1.327 . S
C240 C228 1.349 . S
C240 H234 0.950 . S
C240 C241 1.327 . S
C241 H235 0.950 . S
C241 C240 1.327 . S
C241 C245 1.429 . S
C242 C225 1.574 . S
C242 H236 0.949 . S
C242 C246 1.368 . S
C243 C224 1.429 . S
C243 C237 1.429 . S
C243 C244 1.523 . S
C244 C225 1.368 . S
C244 C238 1.368 . S
C244 C243 1.523 . S
C245 C229 1.429 . S
C245 C241 1.429 . S
C245 C246 1.523 . S
C246 C230 1.368 . S
C246 C242 1.368 . S
C246 C245 1.523 . S
H247 C222 0.950 . S
H248 C224 0.950 . S
H249 C225 0.949 . S
H250 C227 0.950 . S
H251 C229 0.950 . S
C252 C253 1.349 . S
C252 C254 1.327 . S
C252 H277 0.950 . S
C253 C252 1.349 . S
C253 C269 1.349 . S
C254 C252 1.327 . S
C254 C273 1.429 . S
C254 H278 0.950 . S
C255 C272 1.574 . S
C255 C274 1.368 . S
C255 H279 0.949 . S
H256 C260 0.949 . S
C257 C258 1.349 . S
C257 C259 1.327 . S
C257 H280 0.950 . S
C258 C257 1.349 . S
C258 C270 1.349 . S
C259 C257 1.327 . S
C259 C275 1.429 . S
C259 H281 0.950 . S
C260 H256 0.949 . S
C260 C268 1.574 . S
C260 C276 1.368 . S
H261 C269 0.950 . S
H262 C267 0.950 . S
H263 C268 0.949 . S
H264 C270 0.950 . S
H265 C271 0.950 . S
H266 C272 0.949 . S
C267 H262 0.950 . S
C267 C269 1.327 . S
C267 C273 1.429 . S
C268 C260 1.574 . S
C268 H263 0.949 . S
C268 C274 1.368 . S
C269 C253 1.349 . S
C269 H261 0.950 . S
C269 C267 1.327 . S
C270 C258 1.349 . S
C270 H264 0.950 . S
C270 C271 1.327 . S
C271 H265 0.950 . S
C271 C270 1.327 . S
C271 C275 1.429 . S
C272 C255 1.574 . S
C272 H266 0.949 . S
C272 C276 1.368 . S
C273 C254 1.429 . S
C273 C267 1.429 . S
C273 C274 1.523 . S
C274 C255 1.368 . S
C274 C268 1.368 . S
C274 C273 1.523 . S
C275 C259 1.429 . S
C275 C271 1.429 . S
C275 C276 1.523 . S
C276 C260 1.368 . S
C276 C272 1.368 . S
C276 C275 1.523 . S
H277 C252 0.950 . S
H278 C254 0.950 . S
H279 C255 0.949 . S
H280 C257 0.950 . S
H281 C259 0.950 . S
C282 C283 1.349 . S
C282 C284 1.327 . S
C282 H307 0.950 . S
C283 C282 1.349 . S
C283 C299 1.349 . S
C284 C282 1.327 . S
C284 C303 1.429 . S
C284 H308 0.950 . S
C285 C302 1.574 . S
C285 C304 1.368 . S
C285 H309 0.949 . S
H286 C290 0.949 . S
C287 C288 1.349 . S
C287 C289 1.327 . S
C287 H310 0.950 . S
C288 C287 1.349 . S
C288 C300 1.349 . S
C289 C287 1.327 . S
C289 C305 1.429 . S
C289 H311 0.950 . S
C290 H286 0.949 . S
C290 C298 1.574 . S
C290 C306 1.368 . S
H291 C299 0.950 . S
H292 C297 0.950 . S
H293 C298 0.949 . S
H294 C300 0.950 . S
H295 C301 0.950 . S
H296 C302 0.949 . S
C297 H292 0.950 . S
C297 C299 1.327 . S
C297 C303 1.429 . S
C298 C290 1.574 . S
C298 H293 0.949 . S
C298 C304 1.368 . S
C299 C283 1.349 . S
C299 H291 0.950 . S
C299 C297 1.327 . S
C300 C288 1.349 . S
C300 H294 0.950 . S
C300 C301 1.327 . S
C301 H295 0.950 . S
C301 C300 1.327 . S
C301 C305 1.429 . S
C302 C285 1.574 . S
C302 H296 0.949 . S
C302 C306 1.368 . S
C303 C284 1.429 . S
C303 C297 1.429 . S
C303 C304 1.523 . S
C304 C285 1.368 . S
C304 C298 1.368 . S
C304 C303 1.523 . S
C305 C289 1.429 . S
C305 C301 1.429 . S
C305 C306 1.523 . S
C306 C290 1.368 . S
C306 C302 1.368 . S
C306 C305 1.523 . S
H307 C282 0.950 . S
H308 C284 0.950 . S
H309 C285 0.949 . S
H310 C287 0.950 . S
H311 C289 0.950 . S
C312 C313 1.349 . S
C312 C314 1.327 . S
C312 H337 0.950 . S
C313 C312 1.349 . S
C313 C329 1.349 . S
C314 C312 1.327 . S
C314 C333 1.429 . S
C314 H338 0.950 . S
C315 C332 1.574 . S
C315 C334 1.368 . S
C315 H339 0.949 . S
H316 C320 0.949 . S
C317 C318 1.349 . S
C317 C319 1.327 . S
C317 H340 0.950 . S
C318 C317 1.349 . S
C318 C330 1.349 . S
C319 C317 1.327 . S
C319 C335 1.429 . S
C319 H341 0.950 . S
C320 H316 0.949 . S
C320 C328 1.574 . S
C320 C336 1.368 . S
H321 C329 0.950 . S
H322 C327 0.950 . S
H323 C328 0.949 . S
H324 C330 0.950 . S
H325 C331 0.950 . S
H326 C332 0.949 . S
C327 H322 0.950 . S
C327 C329 1.327 . S
C327 C333 1.429 . S
C328 C320 1.574 . S
C328 H323 0.949 . S
C328 C334 1.368 . S
C329 C313 1.349 . S
C329 H321 0.950 . S
C329 C327 1.327 . S
C330 C318 1.349 . S
C330 H324 0.950 . S
C330 C331 1.327 . S
C331 H325 0.950 . S
C331 C330 1.327 . S
C331 C335 1.429 . S
C332 C315 1.574 . S
C332 H326 0.949 . S
C332 C336 1.368 . S
C333 C314 1.429 . S
C333 C327 1.429 . S
C333 C334 1.523 . S
C334 C315 1.368 . S
C334 C328 1.368 . S
C334 C333 1.523 . S
C335 C319 1.429 . S
C335 C331 1.429 . S
C335 C336 1.523 . S
C336 C320 1.368 . S
C336 C332 1.368 . S
C336 C335 1.523 . S
H337 C312 0.950 . S
H338 C314 0.950 . S
H339 C315 0.949 . S
H340 C317 0.950 . S
H341 C319 0.950 . S
C342 C343 1.349 . S
C342 C344 1.327 . S
C342 H367 0.950 . S
C343 C342 1.349 . S
C343 C359 1.349 . S
C344 C342 1.327 . S
C344 C363 1.429 . S
C344 H368 0.950 . S
C345 C362 1.574 . S
C345 C364 1.368 . S
C345 H369 0.949 . S
H346 C350 0.949 . S
C347 C348 1.349 . S
C347 C349 1.327 . S
C347 H370 0.950 . S
C348 C347 1.349 . S
C348 C360 1.349 . S
C349 C347 1.327 . S
C349 C365 1.429 . S
C349 H371 0.950 . S
C350 H346 0.949 . S
C350 C358 1.574 . S
C350 C366 1.368 . S
H351 C359 0.950 . S
H352 C357 0.950 . S
H353 C358 0.949 . S
H354 C360 0.950 . S
H355 C361 0.950 . S
H356 C362 0.949 . S
C357 H352 0.950 . S
C357 C359 1.327 . S
C357 C363 1.429 . S
C358 C350 1.574 . S
C358 H353 0.949 . S
C358 C364 1.368 . S
C359 C343 1.349 . S
C359 H351 0.950 . S
C359 C357 1.327 . S
C360 C348 1.349 . S
C360 H354 0.950 . S
C360 C361 1.327 . S
C361 H355 0.950 . S
C361 C360 1.327 . S
C361 C365 1.429 . S
C362 C345 1.574 . S
C362 H356 0.949 . S
C362 C366 1.368 . S
C363 C344 1.429 . S
C363 C357 1.429 . S
C363 C364 1.523 . S
C364 C345 1.368 . S
C364 C358 1.368 . S
C364 C363 1.523 . S
C365 C349 1.429 . S
C365 C361 1.429 . S
C365 C366 1.523 . S
C366 C350 1.368 . S
C366 C362 1.368 . S
C366 C365 1.523 . S
H367 C342 0.950 . S
H368 C344 0.950 . S
H369 C345 0.949 . S
H370 C347 0.950 . S
H371 C349 0.950 . S
C372 C373 1.349 . S
C372 C374 1.327 . S
C372 H397 0.950 . S
C373 C372 1.349 . S
C373 C389 1.349 . S
C374 C372 1.327 . S
C374 C393 1.429 . S
C374 H398 0.950 . S
C375 C392 1.574 . S
C375 C394 1.368 . S
C375 H399 0.949 . S
H376 C380 0.949 . S
C377 C378 1.349 . S
C377 C379 1.327 . S
C377 H400 0.950 . S
C378 C377 1.349 . S
C378 C390 1.349 . S
C379 C377 1.327 . S
C379 C395 1.429 . S
C379 H401 0.950 . S
C380 H376 0.949 . S
C380 C388 1.574 . S
C380 C396 1.368 . S
H381 C389 0.950 . S
H382 C387 0.950 . S
H383 C388 0.949 . S
H384 C390 0.950 . S
H385 C391 0.950 . S
H386 C392 0.949 . S
C387 H382 0.950 . S
C387 C389 1.327 . S
C387 C393 1.429 . S
C388 C380 1.574 . S
C388 H383 0.949 . S
C388 C394 1.368 . S
C389 C373 1.349 . S
C389 H381 0.950 . S
C389 C387 1.327 . S
C390 C378 1.349 . S
C390 H384 0.950 . S
C390 C391 1.327 . S
C391 H385 0.950 . S
C391 C390 1.327 . S
C391 C395 1.429 . S
C392 C375 1.574 . S
C392 H386 0.949 . S
C392 C396 1.368 . S
C393 C374 1.429 . S
C393 C387 1.429 . S
C393 C394 1.523 . S
C394 C375 1.368 . S
C394 C388 1.368 . S
C394 C393 1.523 . S
C395 C379 1.429 . S
C395 C391 1.429 . S
C395 C396 1.523 . S
C396 C380 1.368 . S
C396 C392 1.368 . S
C396 C395 1.523 . S
H397 C372 0.950 . S
H398 C374 0.950 . S
H399 C375 0.949 . S
H400 C377 0.950 . S
H401 C379 0.950 . S
C402 C403 1.349 . S
C402 C404 1.327 . S
C402 H427 0.950 . S
C403 C402 1.349 . S
C403 C419 1.349 . S
C404 C402 1.327 . S
C404 C423 1.429 . S
C404 H428 0.950 . S
C405 C422 1.574 . S
C405 C424 1.368 . S
C405 H429 0.949 . S
H406 C410 0.949 . S
C407 C408 1.349 . S
C407 C409 1.327 . S
C407 H430 0.950 . S
C408 C407 1.349 . S
C408 C420 1.349 . S
C409 C407 1.327 . S
C409 C425 1.429 . S
C409 H431 0.950 . S
C410 H406 0.949 . S
C410 C418 1.574 . S
C410 C426 1.368 . S
H411 C419 0.950 . S
H412 C417 0.950 . S
H413 C418 0.949 . S
H414 C420 0.950 . S
H415 C421 0.950 . S
H416 C422 0.949 . S
C417 H412 0.950 . S
C417 C419 1.327 . S
C417 C423 1.429 . S
C418 C410 1.574 . S
C418 H413 0.949 . S
C418 C424 1.368 . S
C419 C403 1.349 . S
C419 H411 0.950 . S
C419 C417 1.327 . S
C420 C408 1.349 . S
C420 H414 0.950 . S
C420 C421 1.327 . S
C421 H415 0.950 . S
C421 C420 1.327 . S
C421 C425 1.429 . S
C422 C405 1.574 . S
C422 H416 0.949 . S
C422 C426 1.368 . S
C423 C404 1.429 . S
C423 C417 1.429 . S
C423 C424 1.523 . S
C424 C405 1.368 . S
C424 C418 1.368 . S
C424 C423 1.523 . S
C425 C409 1.429 . S
C425 C421 1.429 . S
C425 C426 1.523 . S
C426 C410 1.368 . S
C426 C422 1.368 . S
C426 C425 1.523 . S
H427 C402 0.950 . S
H428 C404 0.950 . S
H429 C405 0.949 . S
H430 C407 0.950 . S
H431 C409 0.950 . S
C432 C433 1.349 . S
C432 C434 1.327 . S
C432 H457 0.950 . S
C433 C432 1.349 . S
C433 C449 1.349 . S
C434 C432 1.327 . S
C434 C453 1.429 . S
C434 H458 0.950 . S
C435 C452 1.574 . S
C435 C454 1.368 . S
C435 H459 0.949 . S
H436 C440 0.949 . S
C437 C438 1.349 . S
C437 C439 1.327 . S
C437 H460 0.950 . S
C438 C437 1.349 . S
C438 C450 1.349 . S
C439 C437 1.327 . S
C439 C455 1.429 . S
C439 H461 0.950 . S
C440 H436 0.949 . S
C440 C448 1.574 . S
C440 C456 1.368 . S
H441 C449 0.950 . S
H442 C447 0.950 . S
H443 C448 0.949 . S
H444 C450 0.950 . S
H445 C451 0.950 . S
H446 C452 0.949 . S
C447 H442 0.950 . S
C447 C449 1.327 . S
C447 C453 1.429 . S
C448 C440 1.574 . S
C448 H443 0.949 . S
C448 C454 1.368 . S
C449 C433 1.349 . S
C449 H441 0.950 . S
C449 C447 1.327 . S
C450 C438 1.349 . S
C450 H444 0.950 . S
C450 C451 1.327 . S
C451 H445 0.950 . S
C451 C450 1.327 . S
C451 C455 1.429 . S
C452 C435 1.574 . S
C452 H446 0.949 . S
C452 C456 1.368 . S
C453 C434 1.429 . S
C453 C447 1.429 . S
C453 C454 1.523 . S
C454 C435 1.368 . S
C454 C448 1.368 . S
C454 C453 1.523 . S
C455 C439 1.429 . S
C455 C451 1.429 . S
C455 C456 1.523 . S
C456 C440 1.368 . S
C456 C452 1.368 . S
C456 C455 1.523 . S
H457 C432 0.950 . S
H458 C434 0.950 . S
H459 C435 0.949 . S
H460 C437 0.950 . S
H461 C439 0.950 . S
C462 C463 1.349 . S
C462 C464 1.327 . S
C462 H487 0.950 . S
C463 C462 1.349 . S
C463 C479 1.349 . S
C464 C462 1.327 . S
C464 C483 1.429 . S
C464 H488 0.950 . S
C465 C482 1.574 . S
C465 C484 1.368 . S
C465 H489 0.949 . S
H466 C470 0.949 . S
C467 C468 1.349 . S
C467 C469 1.327 . S
C467 H490 0.950 . S
C468 C467 1.349 . S
C468 C480 1.349 . S
C469 C467 1.327 . S
C469 C485 1.429 . S
C469 H491 0.950 . S
C470 H466 0.949 . S
C470 C478 1.574 . S
C470 C486 1.368 . S
H471 C479 0.950 . S
H472 C477 0.950 . S
H473 C478 0.949 . S
H474 C480 0.950 . S
H475 C481 0.950 . S
H476 C482 0.949 . S
C477 H472 0.950 . S
C477 C479 1.327 . S
C477 C483 1.429 . S
C478 C470 1.574 . S
C478 H473 0.949 . S
C478 C484 1.368 . S
C479 C463 1.349 . S
C479 H471 0.950 . S
C479 C477 1.327 . S
C480 C468 1.349 . S
C480 H474 0.950 . S
C480 C481 1.327 . S
C481 H475 0.950 . S
C481 C480 1.327 . S
C481 C485 1.429 . S
C482 C465 1.574 . S
C482 H476 0.949 . S
C482 C486 1.368 . S
C483 C464 1.429 . S
C483 C477 1.429 . S
C483 C484 1.523 . S
C484 C465 1.368 . S
C484 C478 1.368 . S
C484 C483 1.523 . S
C485 C469 1.429 . S
C485 C481 1.429 . S
C485 C486 1.523 . S
C486 C470 1.368 . S
C486 C482 1.368 . S
C486 C485 1.523 . S
H487 C462 0.950 . S
H488 C464 0.950 . S
H489 C465 0.949 . S
H490 C467 0.950 . S
H491 C469 0.950 . S
C492 C493 1.349 . S
C492 C494 1.327 . S
C492 H517 0.950 . S
C493 C492 1.349 . S
C493 C509 1.349 . S
C494 C492 1.327 . S
C494 C513 1.429 . S
C494 H518 0.950 . S
C495 C512 1.574 . S
C495 C514 1.368 . S
C495 H519 0.949 . S
H496 C500 0.949 . S
C497 C498 1.349 . S
C497 C499 1.327 . S
C497 H520 0.950 . S
C498 C497 1.349 . S
C498 C510 1.349 . S
C499 C497 1.327 . S
C499 C515 1.429 . S
C499 H521 0.950 . S
C500 H496 0.949 . S
C500 C508 1.574 . S
C500 C516 1.368 . S
H501 C509 0.950 . S
H502 C507 0.950 . S
H503 C508 0.949 . S
H504 C510 0.950 . S
H505 C511 0.950 . S
H506 C512 0.949 . S
C507 H502 0.950 . S
C507 C509 1.327 . S
C507 C513 1.429 . S
C508 C500 1.574 . S
C508 H503 0.949 . S
C508 C514 1.368 . S
C509 C493 1.349 . S
C509 H501 0.950 . S
C509 C507 1.327 . S
C510 C498 1.349 . S
C510 H504 0.950 . S
C510 C511 1.327 . S
C511 H505 0.950 . S
C511 C510 1.327 . S
C511 C515 1.429 . S
C512 C495 1.574 . S
C512 H506 0.949 . S
C512 C516 1.368 . S
C513 C494 1.429 . S
C513 C507 1.429 . S
C513 C514 1.523 . S
C514 C495 1.368 . S
C514 C508 1.368 . S
C514 C513 1.523 . S
C515 C499 1.429 . S
C515 C511 1.429 . S
C515 C516 1.523 . S
C516 C500 1.368 . S
C516 C512 1.368 . S
C516 C515 1.523 . S
H517 C492 0.950 . S
H518 C494 0.950 . S
H519 C495 0.949 . S
H520 C497 0.950 . S
H521 C499 0.950 . S
C522 C523 1.349 . S
C522 C524 1.327 . S
C522 H547 0.950 . S
C523 C522 1.349 . S
C523 C539 1.349 . S
C524 C522 1.327 . S
C524 C543 1.429 . S
C524 H548 0.950 . S
C525 C542 1.574 . S
C525 C544 1.368 . S
C525 H549 0.949 . S
H526 C530 0.949 . S
C527 C528 1.349 . S
C527 C529 1.327 . S
C527 H550 0.950 . S
C528 C527 1.349 . S
C528 C540 1.349 . S
C529 C527 1.327 . S
C529 C545 1.429 . S
C529 H551 0.950 . S
C530 H526 0.949 . S
C530 C538 1.574 . S
C530 C546 1.368 . S
H531 C539 0.950 . S
H532 C537 0.950 . S
H533 C538 0.949 . S
H534 C540 0.950 . S
H535 C541 0.950 . S
H536 C542 0.949 . S
C537 H532 0.950 . S
C537 C539 1.327 . S
C537 C543 1.429 . S
C538 C530 1.574 . S
C538 H533 0.949 . S
C538 C544 1.368 . S
C539 C523 1.349 . S
C539 H531 0.950 . S
C539 C537 1.327 . S
C540 C528 1.349 . S
C540 H534 0.950 . S
C540 C541 1.327 . S
C541 H535 0.950 . S
C541 C540 1.327 . S
C541 C545 1.429 . S
C542 C525 1.574 . S
C542 H536 0.949 . S
C542 C546 1.368 . S
C543 C524 1.429 . S
C543 C537 1.429 . S
C543 C544 1.523 . S
C544 C525 1.368 . S
C544 C538 1.368 . S
C544 C543 1.523 . S
C545 C529 1.429 . S
C545 C541 1.429 . S
C545 C546 1.523 . S
C546 C530 1.368 . S
C546 C542 1.368 . S
C546 C545 1.523 . S
H547 C522 0.950 . S
H548 C524 0.950 . S
H549 C525 0.949 . S
H550 C527 0.950 . S
H551 C529 0.950 . S
C552 C553 1.349 . S
C552 C554 1.327 . S
C552 H577 0.950 . S
C553 C552 1.349 . S
C553 C569 1.349 . S
C554 C552 1.327 . S
C554 C573 1.429 . S
C554 H578 0.950 . S
C555 C572 1.574 . S
C555 C574 1.368 . S
C555 H579 0.949 . S
H556 C560 0.957 1_556 S
C557 C558 1.349 . S
C557 C559 1.327 . S
C557 H580 0.950 . S
C558 C557 1.349 . S
C558 C570 1.349 . S
C559 C557 1.327 . S
C559 C575 1.429 . S
C559 H581 0.950 . S
C560 H556 0.957 1_554 S
C560 C568 1.574 . S
C560 C576 1.368 1_554 S
H561 C569 0.950 . S
H562 C567 0.950 . S
H563 C568 0.949 . S
H564 C570 0.950 1_655 S
H565 C571 0.950 1_655 S
H566 C572 0.949 1_556 S
C567 H562 0.950 . S
C567 C569 1.327 . S
C567 C573 1.429 . S
C568 C560 1.574 . S
C568 H563 0.949 . S
C568 C574 1.368 . S
C569 C553 1.349 . S
C569 H561 0.950 . S
C569 C567 1.327 . S
C570 C558 1.349 . S
C570 H564 0.950 1_455 S
C570 C571 1.327 . S
C571 H565 0.950 1_455 S
C571 C570 1.327 . S
C571 C575 1.429 . S
C572 C555 1.574 . S
C572 H566 0.949 1_554 S
C572 C576 1.368 1_554 S
C573 C554 1.429 . S
C573 C567 1.429 . S
C573 C574 1.523 . S
C574 C555 1.368 . S
C574 C568 1.368 . S
C574 C573 1.523 . S
C575 C559 1.429 . S
C575 C571 1.429 . S
C575 C576 1.523 . S
C576 C560 1.368 1_556 S
C576 C572 1.368 1_556 S
C576 C575 1.523 . S
H577 C552 0.950 . S
H578 C554 0.950 . S
H579 C555 0.949 . S
H580 C557 0.950 . S
H581 C559 0.950 . S
C582 C583 1.349 . S
C582 C584 1.327 . S
C582 H607 0.950 . S
C583 C582 1.349 . S
C583 C599 1.349 1_545 S
C584 C582 1.327 . S
C584 C603 1.429 . S
C584 H608 0.950 . S
C585 C602 1.574 . S
C585 C604 1.368 . S
C585 H609 0.949 1_545 S
H586 C590 0.949 . S
C587 C588 1.349 . S
C587 C589 1.327 . S
C587 H610 0.950 1_545 S
C588 C587 1.349 . S
C588 C600 1.349 . S
C589 C587 1.327 . S
C589 C605 1.429 . S
C589 H611 0.950 1_545 S
C590 H586 0.949 . S
C590 C598 1.574 . S
C590 C606 1.368 . S
H591 C599 0.950 . S
H592 C597 0.950 1_565 S
H593 C598 0.949 . S
H594 C600 0.950 . S
H595 C601 0.950 . S
H596 C602 0.949 1_565 S
C597 H592 0.950 1_545 S
C597 C599 1.327 1_545 S
C597 C603 1.429 . S
C598 C590 1.574 . S
C598 H593 0.949 . S
C598 C604 1.368 . S
C599 C583 1.349 1_565 S
C599 H591 0.950 . S
C599 C597 1.327 1_565 S
C600 C588 1.349 . S
C600 H594 0.950 . S
C600 C601 1.327 . S
C601 H595 0.950 . S
C601 C600 1.327 . S
C601 C605 1.429 . S
C602 C585 1.574 . S
C602 H596 0.949 1_545 S
C602 C606 1.368 . S
C603 C584 1.429 . S
C603 C597 1.429 . S
C603 C604 1.523 . S
C604 C585 1.368 . S
C604 C598 1.368 . S
C604 C603 1.523 . S
C605 C589 1.429 . S
C605 C601 1.429 . S
C605 C606 1.523 . S
C606 C590 1.368 . S
C606 C602 1.368 . S
C606 C605 1.523 . S
H607 C582 0.950 . S
H608 C584 0.950 . S
H609 C585 0.949 1_565 S
H610 C587 0.950 1_565 S
H611 C589 0.950 1_565 S
C612 C613 1.349 . S
C612 C614 1.327 . S
C612 H637 0.950 . S
C613 C612 1.349 . S
C613 C629 1.349 . S
C614 C612 1.327 . S
C614 C633 1.429 . S
C614 H638 0.950 . S
C615 C632 1.574 . S
C615 C634 1.368 . S
C615 H639 0.949 . S
H616 C620 0.949 . S
C617 C618 1.349 . S
C617 C619 1.327 . S
C617 H640 0.950 . S
C618 C617 1.349 . S
C618 C630 1.349 . S
C619 C617 1.327 . S
C619 C635 1.429 . S
C619 H641 0.950 . S
C620 H616 0.949 . S
C620 C628 1.574 . S
C620 C636 1.368 . S
H621 C629 0.950 . S
H622 C627 0.950 . S
H623 C628 0.949 . S
H624 C630 0.950 . S
H625 C631 0.950 . S
H626 C632 0.949 . S
C627 H622 0.950 . S
C627 C629 1.327 . S
C627 C633 1.429 . S
C628 C620 1.574 . S
C628 H623 0.949 . S
C628 C634 1.368 . S
C629 C613 1.349 . S
C629 H621 0.950 . S
C629 C627 1.327 . S
C630 C618 1.349 . S
C630 H624 0.950 . S
C630 C631 1.327 . S
C631 H625 0.950 . S
C631 C630 1.327 . S
C631 C635 1.429 . S
C632 C615 1.574 . S
C632 H626 0.949 . S
C632 C636 1.368 . S
C633 C614 1.429 . S
C633 C627 1.429 . S
C633 C634 1.523 . S
C634 C615 1.368 . S
C634 C628 1.368 . S
C634 C633 1.523 . S
C635 C619 1.429 . S
C635 C631 1.429 . S
C635 C636 1.523 . S
C636 C620 1.368 . S
C636 C632 1.368 . S
C636 C635 1.523 . S
H637 C612 0.950 . S
H638 C614 0.950 . S
H639 C615 0.949 . S
H640 C617 0.950 . S
H641 C619 0.950 . S
C642 C643 1.349 1_565 S
C642 C644 1.327 . S
C642 H667 0.950 . S
C643 C642 1.349 1_545 S
C643 C659 1.349 . S
C644 C642 1.327 . S
C644 C663 1.429 1_565 S
C644 H668 0.950 . S
C645 C662 1.574 . S
C645 C664 1.368 . S
C645 H669 0.949 . S
H646 C650 0.949 . S
C647 C648 1.349 . S
C647 C649 1.327 . S
C647 H670 0.950 . S
C648 C647 1.349 . S
C648 C660 1.349 1_545 S
C649 C647 1.327 . S
C649 C665 1.429 . S
C649 H671 0.950 . S
C650 H646 0.949 . S
C650 C658 1.574 . S
C650 C666 1.368 1_565 S
H651 C659 0.950 . S
H652 C657 0.950 . S
H653 C658 0.949 . S
H654 C660 0.950 . S
H655 C661 0.950 . S
H656 C662 0.949 . S
C657 H652 0.950 . S
C657 C659 1.327 . S
C657 C663 1.429 . S
C658 C650 1.574 . S
C658 H653 0.949 . S
C658 C664 1.368 1_565 S
C659 C643 1.349 . S
C659 H651 0.950 . S
C659 C657 1.327 . S
C660 C648 1.349 1_565 S
C660 H654 0.950 . S
C660 C661 1.327 . S
C661 H655 0.950 . S
C661 C660 1.327 . S
C661 C665 1.429 1_565 S
C662 C645 1.574 . S
C662 H656 0.949 . S
C662 C666 1.368 . S
C663 C644 1.429 1_545 S
C663 C657 1.429 . S
C663 C664 1.523 . S
C664 C645 1.368 . S
C664 C658 1.368 1_545 S
C664 C663 1.523 . S
C665 C649 1.429 . S
C665 C661 1.429 1_545 S
C665 C666 1.523 . S
C666 C650 1.368 1_545 S
C666 C662 1.368 . S
C666 C665 1.523 . S
H667 C642 0.950 . S
H668 C644 0.950 . S
H669 C645 0.949 . S
H670 C647 0.950 . S
H671 C649 0.950 . S
C672 C673 1.349 . S
C672 C674 1.327 . S
C672 H697 0.950 . S
C673 C672 1.349 . S
C673 C689 1.349 . S
C674 C672 1.327 . S
C674 C693 1.429 . S
C674 H698 0.950 . S
C675 C692 1.574 . S
C675 C694 1.368 . S
C675 H699 0.949 . S
H676 C680 0.949 1_554 S
C677 C678 1.349 . S
C677 C679 1.327 . S
C677 H700 0.950 . S
C678 C677 1.349 . S
C678 C690 1.349 . S
C679 C677 1.327 . S
C679 C695 1.429 . S
C679 H701 0.950 . S
C680 H676 0.949 1_556 S
C680 C688 1.574 . S
C680 C696 1.368 1_556 S
H681 C689 0.950 . S
H682 C687 0.950 . S
H683 C688 0.949 . S
H684 C690 0.950 . S
H685 C691 0.950 . S
H686 C692 0.965 . S
C687 H682 0.950 . S
C687 C689 1.327 . S
C687 C693 1.429 . S
C688 C680 1.574 . S
C688 H683 0.949 . S
C688 C694 1.368 . S
C689 C673 1.349 . S
C689 H681 0.950 . S
C689 C687 1.327 . S
C690 C678 1.349 . S
C690 H684 0.950 . S
C690 C691 1.327 . S
C691 H685 0.950 . S
C691 C690 1.327 . S
C691 C695 1.429 . S
C692 C675 1.574 . S
C692 H686 0.965 . S
C692 C696 1.368 1_556 S
C693 C674 1.429 . S
C693 C687 1.429 . S
C693 C694 1.523 . S
C694 C675 1.368 . S
C694 C688 1.368 . S
C694 C693 1.523 . S
C695 C679 1.429 . S
C695 C691 1.429 . S
C695 C696 1.523 . S
C696 C680 1.368 1_554 S
C696 C692 1.368 1_554 S
C696 C695 1.523 . S
H697 C672 0.950 . S
H698 C674 0.950 . S
H699 C675 0.949 . S
H700 C677 0.950 . S
H701 C679 0.950 . S
C702 C703 1.349 . S
C702 C704 1.327 . S
C702 H727 0.950 . S
C703 C702 1.349 . S
C703 C719 1.349 . S
C704 C702 1.327 . S
C704 C723 1.429 . S
C704 H728 0.950 . S
C705 C722 1.574 . S
C705 C724 1.368 . S
C705 H729 0.949 . S
H706 C710 0.949 . S
C707 C708 1.349 . S
C707 C709 1.327 . S
C707 H730 0.950 . S
C708 C707 1.349 . S
C708 C720 1.349 . S
C709 C707 1.327 . S
C709 C725 1.429 . S
C709 H731 0.950 . S
C710 H706 0.949 . S
C710 C718 1.574 . S
C710 C726 1.368 . S
H711 C719 0.950 . S
H712 C717 0.950 . S
H713 C718 0.949 . S
H714 C720 0.950 . S
H715 C721 0.950 . S
H716 C722 0.949 . S
C717 H712 0.950 . S
C717 C719 1.327 . S
C717 C723 1.429 . S
C718 C710 1.574 . S
C718 H713 0.949 . S
C718 C724 1.368 . S
C719 C703 1.349 . S
C719 H711 0.950 . S
C719 C717 1.327 . S
C720 C708 1.349 . S
C720 H714 0.950 . S
C720 C721 1.327 . S
C721 H715 0.950 . S
C721 C720 1.327 . S
C721 C725 1.429 . S
C722 C705 1.574 . S
C722 H716 0.949 . S
C722 C726 1.368 . S
C723 C704 1.429 . S
C723 C717 1.429 . S
C723 C724 1.523 . S
C724 C705 1.368 . S
C724 C718 1.368 . S
C724 C723 1.523 . S
C725 C709 1.429 . S
C725 C721 1.429 . S
C725 C726 1.523 . S
C726 C710 1.368 . S
C726 C722 1.368 . S
C726 C725 1.523 . S
H727 C702 0.950 . S
H728 C704 0.950 . S
H729 C705 0.949 . S
H730 C707 0.950 . S
H731 C709 0.950 . S
C193 C7 0.747 . S
C198 C186 0.747 . S
C223 C51 1.935 . S
C228 C160 1.875 . S
C253 C87 1.239 . S
C258 C172 1.221 . S
C283 C16 0.299 . S
C288 C184 0.388 . S
C318 C162 1.820 . S
C313 C42 1.843 . S
C348 C174 1.101 . S
C343 C96 1.108 . S
C373 C47 1.266 . S
C378 C136 1.248 . S
C403 C91 3.399 . S
C408 C150 3.373 1_655 S
C433 C2 1.856 . S
C438 C126 1.844 1_565 S
C468 C138 1.106 . S
C463 C56 1.110 . S
C498 C148 2.591 . S
C493 C82 2.677 . S
C523 C11 1.935 . S
C528 C124 1.882 . S
C558 C153 1.748 . S
C553 C19 1.685 . S
C583 C50 1.433 . S
C588 C129 1.485 . S
C613 C99 1.510 . S
C618 C141 1.528 . S
C648 C177 1.537 . S
C643 C59 1.526 . S
C678 C189 1.282 . S
C673 C90 1.249 . S
C703 C10 1.419 . S
C708 C165 1.452 . S
