# Generated by pormake.
# Topology eea, (3,6)-cn, num edge types: 1
# Building blocks:
#     Node 0, Type 0, BuildingBlock: VETTIZ_charged_linker_0, # of connection points: 3
#     Node 1, Type 0, BuildingBlock: VETTIZ_charged_linker_0, # of connection points: 3
#     Node 2, Type 0, BuildingBlock: VETTIZ_charged_linker_0, # of connection points: 3
#     Node 3, Type 0, BuildingBlock: VETTIZ_charged_linker_0, # of connection points: 3
#     Node 4, Type 0, BuildingBlock: VETTIZ_charged_linker_0, # of connection points: 3
#     Node 5, Type 0, BuildingBlock: VETTIZ_charged_linker_0, # of connection points: 3
#     Node 6, Type 0, BuildingBlock: VETTIZ_charged_linker_0, # of connection points: 3
#     Node 7, Type 0, BuildingBlock: VETTIZ_charged_linker_0, # of connection points: 3
#     Node 8, Type 0, BuildingBlock: VETTIZ_charged_linker_0, # of connection points: 3
#     Node 9, Type 0, BuildingBlock: VETTIZ_charged_linker_0, # of connection points: 3
#     Node 10, Type 0, BuildingBlock: VETTIZ_charged_linker_0, # of connection points: 3
#     Node 11, Type 0, BuildingBlock: VETTIZ_charged_linker_0, # of connection points: 3
#     Node 12, Type 0, BuildingBlock: VETTIZ_charged_linker_0, # of connection points: 3
#     Node 13, Type 0, BuildingBlock: VETTIZ_charged_linker_0, # of connection points: 3
#     Node 14, Type 0, BuildingBlock: VETTIZ_charged_linker_0, # of connection points: 3
#     Node 15, Type 0, BuildingBlock: VETTIZ_charged_linker_0, # of connection points: 3
#     Node 16, Type 0, BuildingBlock: VETTIZ_charged_linker_0, # of connection points: 3
#     Node 17, Type 0, BuildingBlock: VETTIZ_charged_linker_0, # of connection points: 3
#     Node 18, Type 1, BuildingBlock: KUMBOL_clean_sbu_0, # of connection points: 6
#     Node 19, Type 1, BuildingBlock: KUMBOL_clean_sbu_0, # of connection points: 6
#     Node 20, Type 1, BuildingBlock: KUMBOL_clean_sbu_0, # of connection points: 6
#     Node 21, Type 1, BuildingBlock: KUMBOL_clean_sbu_0, # of connection points: 6
#     Node 22, Type 1, BuildingBlock: KUMBOL_clean_sbu_0, # of connection points: 6
#     Node 23, Type 1, BuildingBlock: KUMBOL_clean_sbu_0, # of connection points: 6
#     Node 24, Type 1, BuildingBlock: KUMBOL_clean_sbu_0, # of connection points: 6
#     Node 25, Type 1, BuildingBlock: KUMBOL_clean_sbu_0, # of connection points: 6
#     Node 26, Type 1, BuildingBlock: KUMBOL_clean_sbu_0, # of connection points: 6
#     Edge 27, Type (0, 1), BuildingBlock: TEMPAE_clean_linker_10, # of connection points: 2
#     Edge 28, Type (0, 1), BuildingBlock: TEMPAE_clean_linker_10, # of connection points: 2
#     Edge 29, Type (0, 1), BuildingBlock: TEMPAE_clean_linker_10, # of connection points: 2
#     Edge 30, Type (0, 1), BuildingBlock: TEMPAE_clean_linker_10, # of connection points: 2
#     Edge 31, Type (0, 1), BuildingBlock: TEMPAE_clean_linker_10, # of connection points: 2
#     Edge 32, Type (0, 1), BuildingBlock: TEMPAE_clean_linker_10, # of connection points: 2
#     Edge 33, Type (0, 1), BuildingBlock: TEMPAE_clean_linker_10, # of connection points: 2
#     Edge 34, Type (0, 1), BuildingBlock: TEMPAE_clean_linker_10, # of connection points: 2
#     Edge 35, Type (0, 1), BuildingBlock: TEMPAE_clean_linker_10, # of connection points: 2
#     Edge 36, Type (0, 1), BuildingBlock: TEMPAE_clean_linker_10, # of connection points: 2
#     Edge 37, Type (0, 1), BuildingBlock: TEMPAE_clean_linker_10, # of connection points: 2
#     Edge 38, Type (0, 1), BuildingBlock: TEMPAE_clean_linker_10, # of connection points: 2
#     Edge 39, Type (0, 1), BuildingBlock: TEMPAE_clean_linker_10, # of connection points: 2
#     Edge 40, Type (0, 1), BuildingBlock: TEMPAE_clean_linker_10, # of connection points: 2
#     Edge 41, Type (0, 1), BuildingBlock: TEMPAE_clean_linker_10, # of connection points: 2
#     Edge 42, Type (0, 1), BuildingBlock: TEMPAE_clean_linker_10, # of connection points: 2
#     Edge 43, Type (0, 1), BuildingBlock: TEMPAE_clean_linker_10, # of connection points: 2
#     Edge 44, Type (0, 1), BuildingBlock: TEMPAE_clean_linker_10, # of connection points: 2
#     Edge 45, Type (0, 1), BuildingBlock: TEMPAE_clean_linker_10, # of connection points: 2
#     Edge 46, Type (0, 1), BuildingBlock: TEMPAE_clean_linker_10, # of connection points: 2
#     Edge 47, Type (0, 1), BuildingBlock: TEMPAE_clean_linker_10, # of connection points: 2
#     Edge 48, Type (0, 1), BuildingBlock: TEMPAE_clean_linker_10, # of connection points: 2
#     Edge 49, Type (0, 1), BuildingBlock: TEMPAE_clean_linker_10, # of connection points: 2
#     Edge 50, Type (0, 1), BuildingBlock: TEMPAE_clean_linker_10, # of connection points: 2
#     Edge 51, Type (0, 1), BuildingBlock: TEMPAE_clean_linker_10, # of connection points: 2
#     Edge 52, Type (0, 1), BuildingBlock: TEMPAE_clean_linker_10, # of connection points: 2
#     Edge 53, Type (0, 1), BuildingBlock: TEMPAE_clean_linker_10, # of connection points: 2
#     Edge 54, Type (0, 1), BuildingBlock: TEMPAE_clean_linker_10, # of connection points: 2
#     Edge 55, Type (0, 1), BuildingBlock: TEMPAE_clean_linker_10, # of connection points: 2
#     Edge 56, Type (0, 1), BuildingBlock: TEMPAE_clean_linker_10, # of connection points: 2
#     Edge 57, Type (0, 1), BuildingBlock: TEMPAE_clean_linker_10, # of connection points: 2
#     Edge 58, Type (0, 1), BuildingBlock: TEMPAE_clean_linker_10, # of connection points: 2
#     Edge 59, Type (0, 1), BuildingBlock: TEMPAE_clean_linker_10, # of connection points: 2
#     Edge 60, Type (0, 1), BuildingBlock: TEMPAE_clean_linker_10, # of connection points: 2
#     Edge 61, Type (0, 1), BuildingBlock: TEMPAE_clean_linker_10, # of connection points: 2
#     Edge 62, Type (0, 1), BuildingBlock: TEMPAE_clean_linker_10, # of connection points: 2
#     Edge 63, Type (0, 1), BuildingBlock: TEMPAE_clean_linker_10, # of connection points: 2
#     Edge 64, Type (0, 1), BuildingBlock: TEMPAE_clean_linker_10, # of connection points: 2
#     Edge 65, Type (0, 1), BuildingBlock: TEMPAE_clean_linker_10, # of connection points: 2
#     Edge 66, Type (0, 1), BuildingBlock: TEMPAE_clean_linker_10, # of connection points: 2
#     Edge 67, Type (0, 1), BuildingBlock: TEMPAE_clean_linker_10, # of connection points: 2
#     Edge 68, Type (0, 1), BuildingBlock: TEMPAE_clean_linker_10, # of connection points: 2
#     Edge 69, Type (0, 1), BuildingBlock: TEMPAE_clean_linker_10, # of connection points: 2
#     Edge 70, Type (0, 1), BuildingBlock: TEMPAE_clean_linker_10, # of connection points: 2
#     Edge 71, Type (0, 1), BuildingBlock: TEMPAE_clean_linker_10, # of connection points: 2
#     Edge 72, Type (0, 1), BuildingBlock: TEMPAE_clean_linker_10, # of connection points: 2
#     Edge 73, Type (0, 1), BuildingBlock: TEMPAE_clean_linker_10, # of connection points: 2
#     Edge 74, Type (0, 1), BuildingBlock: TEMPAE_clean_linker_10, # of connection points: 2
#     Edge 75, Type (0, 1), BuildingBlock: TEMPAE_clean_linker_10, # of connection points: 2
#     Edge 76, Type (0, 1), BuildingBlock: TEMPAE_clean_linker_10, # of connection points: 2
#     Edge 77, Type (0, 1), BuildingBlock: TEMPAE_clean_linker_10, # of connection points: 2
#     Edge 78, Type (0, 1), BuildingBlock: TEMPAE_clean_linker_10, # of connection points: 2
#     Edge 79, Type (0, 1), BuildingBlock: TEMPAE_clean_linker_10, # of connection points: 2
#     Edge 80, Type (0, 1), BuildingBlock: TEMPAE_clean_linker_10, # of connection points: 2
# Relax obj value: 0.009
# Max RMSD: 0.095
# Mean RMSD: 0.061
data_MOF--net-eea--node1-KUMBOL_clean_sbu_0--node2-VETTIZ_charged_linker_0--edge1-TEMPAE_clean_linker_10
_symmetry_space_group_name_H-M    P1
_symmetry_Int_Tables_number       1
_symmetry_cell_setting            triclinic
loop_
_symmetry_equiv_pos_as_xyz
'x, y, z'
_cell_length_a     62.647016
_cell_length_b     63.788299
_cell_length_c     89.565386
_cell_angle_alpha  90.207929
_cell_angle_beta   90.211737
_cell_angle_gamma 119.99372
loop_
_atom_site_label
_atom_site_type_symbol
_atom_site_fract_x
_atom_site_fract_y
_atom_site_fract_z
_atom_type_partial_charge
C0 C 0.22427 0.17258 0.39486 0.0
C1 C 0.22501 0.19237 0.40227 0.0
C2 C 0.23292 0.19707 0.41728 0.0
C3 C 0.23941 0.16267 0.41718 0.0
C4 C 0.2314 0.15798 0.40251 0.0
C5 C 0.23112 0.1359 0.39635 0.0
H6 H 0.24901 0.041 0.40717 0.0
C7 C 0.24535 0.14397 0.42186 0.0
C8 C 0.24038 0.12817 0.40972 0.0
H9 H 0.22318 0.05935 0.36717 0.0
H10 H 0.22712 0.0949 0.37938 0.0
H11 H 0.29271 0.09593 0.41433 0.0
H12 H 0.21835 0.05241 0.42991 0.0
H13 H 0.23625 0.06876 0.44541 0.0
H14 H 0.2429 0.04762 0.436 0.0
H15 H 0.28379 0.07123 0.427 0.0
H16 H 0.29315 0.10139 0.43358 0.0
C17 C 0.24938 0.14385 0.38312 0.0
C18 C 0.20414 0.11697 0.39221 0.0
C19 C 0.28019 0.14738 0.47374 0.0
C20 C 0.28746 0.13251 0.48116 0.0
C21 C 0.28443 0.11158 0.47384 0.0
C22 C 0.27487 0.10582 0.45931 0.0
C23 C 0.26813 0.12108 0.45196 0.0
C24 C 0.27057 0.14131 0.45922 0.0
C25 C 0.26201 0.15515 0.44974 0.0
C26 C 0.25455 0.14015 0.43547 0.0
C27 C 0.25824 0.12028 0.43685 0.0
C28 C 0.28419 0.18088 0.44727 0.0
C29 C 0.23966 0.15459 0.45751 0.0
C30 C 0.24455 0.05286 0.40096 0.0
C31 C 0.23576 0.04735 0.38618 0.0
C32 C 0.22975 0.06306 0.37861 0.0
C33 C 0.23211 0.08373 0.38572 0.0
C34 C 0.24053 0.08875 0.40058 0.0
C35 C 0.24679 0.07354 0.4079 0.0
C36 C 0.25543 0.08169 0.42364 0.0
C37 C 0.25305 0.10418 0.42463 0.0
C38 C 0.24429 0.10819 0.41112 0.0
C39 C 0.28262 0.08777 0.42486 0.0
C40 C 0.23753 0.06163 0.43439 0.0
H41 H 0.24616 0.18695 0.43615 0.0
H42 H 0.21793 0.16833 0.38339 0.0
H43 H 0.19099 0.11787 0.40015 0.0
H44 H 0.20032 0.09813 0.39293 0.0
H45 H 0.19931 0.12017 0.38083 0.0
H46 H 0.26575 0.16198 0.3853 0.0
H47 H 0.24055 0.14505 0.37262 0.0
H48 H 0.257 0.13175 0.38128 0.0
H49 H 0.28238 0.16367 0.47898 0.0
H50 H 0.28938 0.09953 0.47938 0.0
H51 H 0.27314 0.0897 0.45436 0.0
H52 H 0.30133 0.18014 0.44532 0.0
H53 H 0.28737 0.19262 0.45719 0.0
H54 H 0.28205 0.18985 0.43733 0.0
H55 H 0.22882 0.13755 0.4639 0.0
H56 H 0.2263 0.15479 0.4495 0.0
H57 H 0.24571 0.16993 0.46548 0.0
H58 H 0.2338 0.21235 0.42317 0.0
C59 C 0.24018 0.18237 0.42476 0.0
C60 C 0.95994 0.1718 0.39144 0.0
C61 C 0.98177 0.19057 0.39795 0.0
C62 C 0.98273 0.19293 0.41372 0.0
C63 C 0.94068 0.15995 0.41579 0.0
C64 C 0.94008 0.15648 0.40054 0.0
C65 C 0.91678 0.13424 0.39552 0.0
H66 H 0.80585 0.03813 0.4128 0.0
C67 C 0.91688 0.14127 0.42197 0.0
C68 C 0.90301 0.12582 0.41019 0.0
H69 H 0.84404 0.05416 0.37066 0.0
H70 H 0.87734 0.09126 0.38097 0.0
H71 H 0.85233 0.05156 0.43303 0.0
H72 H 0.81888 0.09351 0.42002 0.0
H73 H 0.82837 0.1011 0.43868 0.0
H74 H 0.80557 0.07033 0.43391 0.0
H75 H 0.82319 0.04595 0.44015 0.0
H76 H 0.85185 0.06765 0.44888 0.0
C77 C 0.92374 0.11581 0.38909 0.0
C78 C 0.90319 0.14201 0.38432 0.0
C79 C 0.89565 0.14661 0.47617 0.0
C80 C 0.87437 0.13273 0.48475 0.0
C81 C 0.8542 0.11231 0.47811 0.0
C82 C 0.85506 0.10598 0.46322 0.0
C83 C 0.87634 0.12017 0.45477 0.0
C84 C 0.89621 0.14007 0.46127 0.0
C85 C 0.91731 0.15295 0.45056 0.0
C86 C 0.90653 0.13783 0.43648 0.0
C87 C 0.88258 0.1186 0.43905 0.0
C88 C 0.93972 0.15141 0.45661 0.0
C89 C 0.92228 0.17911 0.44862 0.0
C90 C 0.8213 0.04982 0.40579 0.0
C91 C 0.82245 0.0433 0.39093 0.0
C92 C 0.84295 0.05876 0.38217 0.0
C93 C 0.86226 0.08022 0.3882 0.0
C94 C 0.86125 0.08615 0.4032 0.0
C95 C 0.84096 0.07113 0.41172 0.0
C96 C 0.84344 0.08002 0.42756 0.0
C97 C 0.86891 0.10239 0.42726 0.0
C98 C 0.87911 0.10599 0.41293 0.0
C99 C 0.84251 0.06033 0.43806 0.0
C100 C 0.82298 0.08647 0.43034 0.0
H101 H 0.96424 0.18105 0.43441 0.0
H102 H 0.95799 0.16889 0.3795 0.0
H103 H 0.90295 0.15832 0.38852 0.0
H104 H 0.88371 0.12801 0.38261 0.0
H105 H 0.91251 0.14652 0.37332 0.0
H106 H 0.94202 0.11938 0.39325 0.0
H107 H 0.9246 0.11651 0.3767 0.0
H108 H 0.91078 0.09701 0.39259 0.0
H109 H 0.91142 0.16251 0.48085 0.0
H110 H 0.83773 0.10105 0.4845 0.0
H111 H 0.8391 0.09025 0.45887 0.0
H112 H 0.93387 0.13564 0.46413 0.0
H113 H 0.9525 0.16794 0.46306 0.0
H114 H 0.95006 0.14854 0.4476 0.0
H115 H 0.90473 0.17903 0.44652 0.0
H116 H 0.9343 0.18853 0.43908 0.0
H117 H 0.93091 0.19008 0.45885 0.0
H118 H 0.99935 0.2061 0.41942 0.0
C119 C 0.96232 0.17804 0.42257 0.0
C120 C 0.96225 0.79891 0.39666 0.0
C121 C 0.97959 0.79299 0.40234 0.0
C122 C 0.97467 0.78088 0.41616 0.0
C123 C 0.93629 0.78129 0.41842 0.0
C124 C 0.94079 0.79276 0.40478 0.0
C125 C 0.92023 0.79715 0.40011 0.0
H126 H 0.80775 0.78397 0.41368 0.0
C127 C 0.9124 0.77754 0.424 0.0
C128 C 0.90281 0.78666 0.41326 0.0
H129 H 0.85493 0.81753 0.37563 0.0
H130 H 0.88564 0.80981 0.38625 0.0
H131 H 0.81833 0.73946 0.41749 0.0
H132 H 0.85095 0.81026 0.43769 0.0
H133 H 0.85007 0.79048 0.45155 0.0
H134 H 0.82159 0.78597 0.4435 0.0
H135 H 0.80225 0.74821 0.43038 0.0
H136 H 0.82148 0.73645 0.43678 0.0
C137 C 0.90869 0.7827 0.3855 0.0
C138 C 0.93088 0.82482 0.39874 0.0
C139 C 0.88124 0.73939 0.47497 0.0
C140 C 0.86007 0.73406 0.48327 0.0
C141 C 0.84262 0.73935 0.47698 0.0
C142 C 0.84613 0.74971 0.46277 0.0
C143 C 0.86739 0.75498 0.45465 0.0
C144 C 0.88453 0.74986 0.46079 0.0
C145 C 0.9061 0.75688 0.45059 0.0
C146 C 0.8992 0.76728 0.4374 0.0
C147 C 0.87643 0.76601 0.43981 0.0
C148 C 0.90669 0.73362 0.44626 0.0
C149 C 0.92967 0.77637 0.45867 0.0
C150 C 0.82475 0.78986 0.40766 0.0
C151 C 0.82858 0.80113 0.39363 0.0
C152 C 0.85106 0.80829 0.38624 0.0
C153 C 0.86904 0.80393 0.39248 0.0
C154 C 0.86475 0.79237 0.40637 0.0
C155 C 0.84302 0.7858 0.4138 0.0
C156 C 0.84202 0.77444 0.42869 0.0
C157 C 0.86646 0.77477 0.42879 0.0
C158 C 0.87965 0.78519 0.41565 0.0
C159 C 0.81981 0.7483 0.42848 0.0
C160 C 0.84092 0.79091 0.44108 0.0
H161 H 0.95075 0.76596 0.43463 0.0
H162 H 0.96533 0.80835 0.38617 0.0
H163 H 0.94535 0.83479 0.40737 0.0
H164 H 0.91696 0.83031 0.40069 0.0
H165 H 0.93938 0.83144 0.38764 0.0
H166 H 0.90813 0.76499 0.38571 0.0
H167 H 0.9196 0.7928 0.37562 0.0
H168 H 0.88935 0.77804 0.38383 0.0
H169 H 0.89512 0.73576 0.47949 0.0
H170 H 0.82598 0.73514 0.483 0.0
H171 H 0.83208 0.75314 0.45863 0.0
H172 H 0.88775 0.71765 0.44574 0.0
H173 H 0.91738 0.72961 0.45454 0.0
H174 H 0.91429 0.73458 0.43501 0.0
H175 H 0.9259 0.78938 0.46479 0.0
H176 H 0.94478 0.78757 0.45095 0.0
H177 H 0.93639 0.768 0.46692 0.0
H178 H 0.98724 0.77551 0.42073 0.0
C179 C 0.95328 0.77512 0.42421 0.0
C180 C 0.16501 0.21143 0.61529 0.0
C181 C 0.18431 0.20959 0.60832 0.0
C182 C 0.18592 0.21165 0.59255 0.0
C183 C 0.15129 0.21866 0.59138 0.0
C184 C 0.14848 0.21526 0.60661 0.0
C185 C 0.12563 0.21515 0.61204 0.0
H186 H 0.01885 0.21256 0.59481 0.0
C187 C 0.13118 0.22227 0.58559 0.0
C188 C 0.11559 0.21951 0.59758 0.0
H189 H 0.04653 0.20941 0.63877 0.0
H190 H 0.08358 0.21463 0.62782 0.0
H191 H 0.06761 0.25923 0.58741 0.0
H192 H 0.04101 0.18536 0.57435 0.0
H193 H 0.05223 0.20435 0.55852 0.0
H194 H 0.02723 0.2031 0.56901 0.0
H195 H 0.0488 0.24659 0.57107 0.0
H196 H 0.08198 0.26076 0.57035 0.0
C197 C 0.13352 0.23626 0.6233 0.0
C198 C 0.10813 0.18983 0.6186 0.0
C199 C 0.13412 0.25077 0.5321 0.0
C200 C 0.11883 0.25696 0.52389 0.0
C201 C 0.09654 0.25277 0.5304 0.0
C202 C 0.08997 0.24334 0.54486 0.0
C203 C 0.10586 0.23812 0.5531 0.0
C204 C 0.12738 0.24155 0.54664 0.0
C205 C 0.14185 0.23469 0.55706 0.0
C206 C 0.1263 0.22824 0.57114 0.0
C207 C 0.10508 0.22998 0.56869 0.0
C208 C 0.16769 0.25711 0.55947 0.0
C209 C 0.14234 0.21247 0.55035 0.0
C210 C 0.03263 0.21302 0.60229 0.0
C211 C 0.02848 0.20942 0.61785 0.0
C212 C 0.04787 0.21065 0.62675 0.0
C213 C 0.06982 0.21403 0.62038 0.0
C214 C 0.07314 0.21686 0.60488 0.0
C215 C 0.0551 0.21726 0.59619 0.0
C216 C 0.06329 0.22392 0.58024 0.0
C217 C 0.08834 0.22549 0.58059 0.0
C218 C 0.09386 0.22092 0.59504 0.0
C219 C 0.06544 0.2488 0.57697 0.0
C220 C 0.04497 0.2032 0.56989 0.0
H221 H 0.1725 0.21814 0.57233 0.0
H222 H 0.16255 0.21001 0.62724 0.0
H223 H 0.10761 0.1754 0.61132 0.0
H224 H 0.08886 0.18566 0.61936 0.0
H225 H 0.11445 0.18797 0.62987 0.0
H226 H 0.15142 0.25215 0.62004 0.0
H227 H 0.13575 0.23086 0.63472 0.0
H228 H 0.12043 0.24309 0.62365 0.0
H229 H 0.15134 0.25369 0.52748 0.0
H230 H 0.08411 0.25682 0.52427 0.0
H231 H 0.07277 0.24057 0.54913 0.0
H232 H 0.16609 0.27324 0.56235 0.0
H233 H 0.17892 0.26127 0.54918 0.0
H234 H 0.17807 0.25483 0.56868 0.0
H235 H 0.12736 0.20267 0.54198 0.0
H236 H 0.13915 0.19873 0.55891 0.0
H237 H 0.16008 0.21794 0.54466 0.0
H238 H 0.19929 0.20916 0.58639 0.0
C239 C 0.16992 0.2165 0.58418 0.0
C240 C 0.78002 0.83022 0.60821 0.0
C241 C 0.77461 0.80731 0.60291 0.0
C242 C 0.76228 0.79894 0.58911 0.0
C243 C 0.76158 0.83636 0.58594 0.0
C244 C 0.7732 0.84428 0.59964 0.0
C245 C 0.77688 0.8687 0.6039 0.0
H246 H 0.76643 0.96642 0.58667 0.0
C247 C 0.75743 0.85555 0.57977 0.0
C248 C 0.76623 0.87446 0.5903 0.0
H249 H 0.79335 0.95201 0.62765 0.0
H250 H 0.78599 0.91379 0.61771 0.0
H251 H 0.79296 0.94683 0.56435 0.0
H252 H 0.71992 0.91242 0.58288 0.0
H253 H 0.71723 0.90417 0.56393 0.0
H254 H 0.72999 0.93559 0.56896 0.0
H255 H 0.76987 0.95354 0.55794 0.0
H256 H 0.77245 0.92873 0.55021 0.0
C257 C 0.80492 0.88644 0.60561 0.0
C258 C 0.7617 0.86576 0.61818 0.0
C259 C 0.71907 0.84533 0.52814 0.0
C260 C 0.71398 0.86045 0.51923 0.0
C261 C 0.72005 0.88352 0.52475 0.0
C262 C 0.73076 0.89132 0.53893 0.0
C263 C 0.73559 0.87595 0.54775 0.0
C264 C 0.72994 0.85345 0.54226 0.0
C265 C 0.73691 0.83979 0.55304 0.0
C266 C 0.74744 0.85768 0.56596 0.0
C267 C 0.7465 0.87879 0.56282 0.0
C268 C 0.75674 0.83561 0.54556 0.0
C269 C 0.71314 0.81629 0.5575 0.0
C270 C 0.77087 0.95505 0.59343 0.0
C271 C 0.78045 0.9622 0.60797 0.0
C272 C 0.78571 0.94678 0.61649 0.0
C273 C 0.7815 0.92461 0.61067 0.0
C274 C 0.77177 0.91761 0.59618 0.0
C275 C 0.76652 0.93268 0.58783 0.0
C276 C 0.75564 0.92186 0.5728 0.0
C277 C 0.75514 0.89781 0.57356 0.0
C278 C 0.76479 0.89555 0.58725 0.0
C279 C 0.77343 0.93857 0.5606 0.0
C280 C 0.72937 0.9184 0.57194 0.0
H281 H 0.74662 0.80605 0.57012 0.0
H282 H 0.7891 0.83692 0.61891 0.0
H283 H 0.74548 0.84719 0.61898 0.0
H284 H 0.75371 0.87779 0.61831 0.0
H285 H 0.77303 0.86906 0.62843 0.0
H286 H 0.81526 0.88341 0.59659 0.0
H287 H 0.81188 0.88386 0.61647 0.0
H288 H 0.80995 0.90561 0.60464 0.0
H289 H 0.71492 0.82762 0.52415 0.0
H290 H 0.71611 0.89542 0.51817 0.0
H291 H 0.73477 0.90899 0.54251 0.0
H292 H 0.76971 0.85168 0.53894 0.0
H293 H 0.74816 0.81978 0.53786 0.0
H294 H 0.76849 0.83302 0.55368 0.0
H295 H 0.69717 0.81935 0.55811 0.0
H296 H 0.71438 0.80983 0.56872 0.0
H297 H 0.70849 0.80159 0.54922 0.0
H298 H 0.75797 0.78135 0.58481 0.0
C299 C 0.75582 0.81336 0.58057 0.0
C300 C 0.04254 0.82746 0.61106 0.0
C301 C 0.02104 0.80754 0.60497 0.0
C302 C 0.02055 0.80368 0.58932 0.0
C303 C 0.06207 0.83765 0.58667 0.0
C304 C 0.0623 0.84246 0.60173 0.0
C305 C 0.08503 0.86573 0.60622 0.0
H306 H 0.19248 0.96511 0.58683 0.0
C307 C 0.08545 0.85669 0.58011 0.0
C308 C 0.0987 0.87357 0.59146 0.0
H309 H 0.15628 0.94836 0.62971 0.0
H310 H 0.12407 0.91018 0.62005 0.0
H311 H 0.18383 0.9117 0.5811 0.0
H312 H 0.14347 0.94624 0.56645 0.0
H313 H 0.1464 0.93049 0.55114 0.0
H314 H 0.1737 0.95467 0.55978 0.0
H315 H 0.19464 0.93334 0.56625 0.0
H316 H 0.17376 0.90154 0.56281 0.0
C317 C 0.09945 0.8598 0.61792 0.0
C318 C 0.07686 0.8837 0.6118 0.0
C319 C 0.10846 0.84791 0.52672 0.0
C320 C 0.12926 0.86234 0.51785 0.0
C321 C 0.14794 0.88458 0.52375 0.0
C322 C 0.14624 0.89211 0.53822 0.0
C323 C 0.12559 0.87735 0.54702 0.0
C324 C 0.10698 0.85577 0.54119 0.0
C325 C 0.08608 0.84283 0.55207 0.0
C326 C 0.09586 0.85958 0.56562 0.0
C327 C 0.11899 0.87984 0.56255 0.0
C328 C 0.08309 0.81771 0.55533 0.0
C329 C 0.06268 0.84175 0.54539 0.0
C330 C 0.1775 0.9533 0.5941 0.0
C331 C 0.17696 0.95993 0.60907 0.0
C332 C 0.15734 0.94372 0.6182 0.0
C333 C 0.13848 0.9216 0.61253 0.0
C334 C 0.13906 0.91544 0.59751 0.0
C335 C 0.15849 0.93106 0.5886 0.0
C336 C 0.15632 0.92113 0.57303 0.0
C337 C 0.13189 0.89751 0.57389 0.0
C338 C 0.12188 0.89428 0.58827 0.0
C339 C 0.17828 0.91679 0.57051 0.0
C340 C 0.15506 0.93903 0.56191 0.0
H341 H 0.03928 0.81407 0.56859 0.0
H342 H 0.04434 0.83164 0.62285 0.0
H343 H 0.05919 0.87994 0.60649 0.0
H344 H 0.09002 0.90266 0.60881 0.0
H345 H 0.07409 0.88247 0.62407 0.0
H346 H 0.09979 0.84312 0.61466 0.0
H347 H 0.09071 0.85667 0.62908 0.0
H348 H 0.11896 0.87409 0.61895 0.0
H349 H 0.09359 0.83093 0.52246 0.0
H350 H 0.16426 0.89596 0.51729 0.0
H351 H 0.1612 0.90912 0.54204 0.0
H352 H 0.10123 0.8195 0.55817 0.0
H353 H 0.07554 0.80561 0.54542 0.0
H354 H 0.07089 0.80857 0.56485 0.0
H355 H 0.06741 0.85627 0.53703 0.0
H356 H 0.0518 0.84484 0.55393 0.0
H357 H 0.0507 0.82415 0.5397 0.0
H358 H 0.00434 0.78962 0.58376 0.0
C359 C 0.04091 0.81826 0.58029 0.0
C360 C 0.88594 0.50087 0.72887 0.0
C361 C 0.89223 0.52386 0.73451 0.0
C362 C 0.90488 0.53158 0.74826 0.0
C363 C 0.90432 0.49349 0.75069 0.0
C364 C 0.89233 0.48612 0.73706 0.0
C365 C 0.8877 0.46145 0.73251 0.0
H366 H 0.89916 0.36354 0.74792 0.0
C367 C 0.90803 0.47386 0.75642 0.0
C368 C 0.8985 0.45508 0.74577 0.0
H369 H 0.86681 0.37599 0.70866 0.0
H370 H 0.8749 0.41451 0.71877 0.0
H371 H 0.94561 0.41823 0.75104 0.0
H372 H 0.87369 0.38059 0.77078 0.0
H373 H 0.89329 0.40051 0.7846 0.0
H374 H 0.89862 0.37696 0.77755 0.0
H375 H 0.93656 0.39438 0.7644 0.0
H376 H 0.94909 0.42544 0.7702 0.0
C377 C 0.90219 0.46417 0.71798 0.0
C378 C 0.8595 0.44431 0.73109 0.0
C379 C 0.94652 0.48184 0.80773 0.0
C380 C 0.95136 0.46615 0.81621 0.0
C381 C 0.94575 0.44357 0.8101 0.0
C382 C 0.93542 0.43665 0.7958 0.0
C383 C 0.93053 0.45243 0.78749 0.0
C384 C 0.93603 0.47458 0.79348 0.0
C385 C 0.92914 0.48877 0.78309 0.0
C386 C 0.91843 0.47137 0.76995 0.0
C387 C 0.91943 0.45022 0.77258 0.0
C388 C 0.95299 0.51238 0.77885 0.0
C389 C 0.90944 0.49279 0.79091 0.0
C390 C 0.89404 0.37469 0.74145 0.0
C391 C 0.88252 0.36687 0.72745 0.0
C392 C 0.87563 0.38164 0.71951 0.0
C393 C 0.88045 0.40403 0.72537 0.0
C394 C 0.89218 0.41169 0.73935 0.0
C395 C 0.89859 0.39699 0.74718 0.0
C396 C 0.91024 0.40764 0.76203 0.0
C397 C 0.9103 0.43144 0.76172 0.0
C398 C 0.89978 0.43378 0.74841 0.0
C399 C 0.93673 0.41156 0.76208 0.0
C400 C 0.89332 0.3906 0.77446 0.0
H401 H 0.92036 0.52336 0.76682 0.0
H402 H 0.87653 0.49464 0.71822 0.0
H403 H 0.84958 0.4484 0.73988 0.0
H404 H 0.85389 0.4251 0.73272 0.0
H405 H 0.85255 0.44634 0.72007 0.0
H406 H 0.92013 0.48144 0.71806 0.0
H407 H 0.89165 0.46427 0.708 0.0
H408 H 0.90713 0.44992 0.71657 0.0
H409 H 0.95045 0.49924 0.81218 0.0
H410 H 0.94961 0.43131 0.81634 0.0
H411 H 0.93166 0.41927 0.79178 0.0
H412 H 0.96914 0.50956 0.77863 0.0
H413 H 0.95717 0.52711 0.78701 0.0
H414 H 0.95216 0.51868 0.76749 0.0
H415 H 0.89622 0.47633 0.79715 0.0
H416 H 0.89795 0.4962 0.78304 0.0
H417 H 0.91811 0.50804 0.79903 0.0
H418 H 0.90979 0.54918 0.75283 0.0
C419 C 0.91089 0.51651 0.75638 0.0
C420 C 0.62429 0.50175 0.72535 0.0
C421 C 0.64563 0.52129 0.7319 0.0
C422 C 0.64596 0.52387 0.74766 0.0
C423 C 0.6044 0.4899 0.74955 0.0
C424 C 0.60438 0.48606 0.73438 0.0
C425 C 0.58171 0.463 0.72946 0.0
H426 H 0.47323 0.36366 0.74786 0.0
C427 C 0.58092 0.47063 0.75575 0.0
C428 C 0.56776 0.45439 0.74409 0.0
H429 H 0.50983 0.38031 0.70512 0.0
H430 H 0.54227 0.41842 0.71496 0.0
H431 H 0.52133 0.38045 0.76789 0.0
H432 H 0.48208 0.41633 0.75401 0.0
H433 H 0.49278 0.4269 0.77214 0.0
H434 H 0.47151 0.39507 0.76905 0.0
H435 H 0.49155 0.37288 0.77494 0.0
H436 H 0.5195 0.3963 0.78348 0.0
C437 C 0.58997 0.44533 0.72348 0.0
C438 C 0.5675 0.46945 0.71793 0.0
C439 C 0.55702 0.47712 0.80928 0.0
C440 C 0.53591 0.46237 0.8178 0.0
C441 C 0.51717 0.44061 0.81147 0.0
C442 C 0.51914 0.4338 0.79689 0.0
C443 C 0.54012 0.44884 0.78843 0.0
C444 C 0.55876 0.46999 0.79467 0.0
C445 C 0.57996 0.4833 0.78405 0.0
C446 C 0.57031 0.46721 0.7702 0.0
C447 C 0.54703 0.44705 0.7729 0.0
C448 C 0.60309 0.48377 0.79073 0.0
C449 C 0.5833 0.50869 0.7813 0.0
C450 C 0.48834 0.37536 0.74064 0.0
C451 C 0.48899 0.36875 0.72572 0.0
C452 C 0.50874 0.38493 0.71663 0.0
C453 C 0.52772 0.40696 0.72241 0.0
C454 C 0.52709 0.41294 0.73747 0.0
C455 C 0.50746 0.39733 0.74624 0.0
C456 C 0.50957 0.40668 0.76192 0.0
C457 C 0.53418 0.43002 0.7613 0.0
C458 C 0.54438 0.4337 0.74695 0.0
C459 C 0.51038 0.38816 0.77273 0.0
C460 C 0.48785 0.41139 0.76457 0.0
H461 H 0.62697 0.51194 0.76818 0.0
H462 H 0.62274 0.49843 0.71345 0.0
H463 H 0.56651 0.48557 0.72172 0.0
H464 H 0.54822 0.45486 0.71636 0.0
H465 H 0.57682 0.47374 0.70692 0.0
H466 H 0.60725 0.4485 0.72904 0.0
H467 H 0.59348 0.44757 0.71128 0.0
H468 H 0.57649 0.42619 0.72582 0.0
H469 H 0.5719 0.49378 0.81391 0.0
H470 H 0.50061 0.42904 0.8177 0.0
H471 H 0.50411 0.41712 0.79274 0.0
H472 H 0.5981 0.46931 0.79917 0.0
H473 H 0.6155 0.50136 0.79631 0.0
H474 H 0.61362 0.48018 0.78218 0.0
H475 H 0.56533 0.50723 0.77838 0.0
H476 H 0.59587 0.5183 0.77201 0.0
H477 H 0.59058 0.5202 0.79147 0.0
H478 H 0.66212 0.53741 0.75353 0.0
C479 C 0.62549 0.50867 0.75638 0.0
C480 C 0.61962 0.12247 0.72616 0.0
C481 C 0.64126 0.12493 0.73287 0.0
C482 C 0.64191 0.12395 0.74867 0.0
C483 C 0.60024 0.11707 0.75043 0.0
C484 C 0.59979 0.11921 0.73512 0.0
C485 C 0.57659 0.11859 0.72985 0.0
H486 H 0.47296 0.1214 0.74725 0.0
C487 C 0.57679 0.11382 0.7565 0.0
C488 C 0.56308 0.11533 0.74451 0.0
H489 H 0.5015 0.12101 0.70323 0.0
H490 H 0.53408 0.11707 0.7143 0.0
H491 H 0.47576 0.07573 0.75648 0.0
H492 H 0.52413 0.15104 0.76659 0.0
H493 H 0.51739 0.13377 0.78313 0.0
H494 H 0.49273 0.13359 0.7727 0.0
H495 H 0.47018 0.09001 0.77205 0.0
H496 H 0.48942 0.07646 0.77375 0.0
C497 C 0.56242 0.0965 0.7193 0.0
C498 C 0.58415 0.14328 0.72253 0.0
C499 C 0.55527 0.09165 0.81119 0.0
C500 C 0.53443 0.08646 0.81984 0.0
C501 C 0.5156 0.0894 0.81324 0.0
C502 C 0.51719 0.09682 0.79833 0.0
C503 C 0.53777 0.10124 0.78976 0.0
C504 C 0.5565 0.09887 0.79625 0.0
C505 C 0.57709 0.10457 0.78545 0.0
C506 C 0.56689 0.10927 0.77119 0.0
C507 C 0.54397 0.10757 0.77383 0.0
C508 C 0.58007 0.082 0.78396 0.0
C509 C 0.60063 0.12757 0.79107 0.0
C510 C 0.48597 0.12041 0.73982 0.0
C511 C 0.48463 0.12264 0.72416 0.0
C512 C 0.50231 0.12079 0.71529 0.0
C513 C 0.52128 0.11817 0.72173 0.0
C514 C 0.52265 0.11678 0.7373 0.0
C515 C 0.50464 0.11697 0.74604 0.0
C516 C 0.50723 0.112 0.76221 0.0
C517 C 0.53082 0.11069 0.76184 0.0
C518 C 0.54001 0.11391 0.74722 0.0
C519 C 0.4845 0.0874 0.76647 0.0
C520 C 0.51043 0.13364 0.77176 0.0
H521 H 0.6233 0.11894 0.76924 0.0
H522 H 0.61782 0.12296 0.71418 0.0
H523 H 0.59879 0.15837 0.72925 0.0
H524 H 0.56898 0.14727 0.72183 0.0
H525 H 0.59151 0.14424 0.71113 0.0
H526 H 0.56508 0.08122 0.72276 0.0
H527 H 0.56892 0.10114 0.70762 0.0
H528 H 0.54226 0.08907 0.71958 0.0
H529 H 0.57008 0.08955 0.81583 0.0
H530 H 0.49957 0.08603 0.81965 0.0
H531 H 0.50229 0.09878 0.79402 0.0
H532 H 0.56184 0.06549 0.78204 0.0
H533 H 0.58823 0.07926 0.79428 0.0
H534 H 0.59174 0.08308 0.77447 0.0
H535 H 0.59614 0.13858 0.79873 0.0
H536 H 0.611 0.14002 0.78185 0.0
H537 H 0.61304 0.12284 0.79725 0.0
H538 H 0.65827 0.1268 0.75452 0.0
C539 C 0.62156 0.11974 0.75737 0.0
C540 C 0.83477 0.54366 0.9478 0.0
C541 C 0.85375 0.54137 0.94076 0.0
C542 C 0.85522 0.54336 0.92497 0.0
C543 C 0.82095 0.55092 0.92396 0.0
C544 C 0.81832 0.54765 0.9392 0.0
C545 C 0.79567 0.54777 0.94476 0.0
H546 H 0.68878 0.54492 0.92819 0.0
C547 C 0.80088 0.55468 0.91827 0.0
C548 C 0.78552 0.5521 0.93036 0.0
H549 H 0.71758 0.54282 0.97201 0.0
H550 H 0.75434 0.54792 0.9608 0.0
H551 H 0.73708 0.59164 0.9205 0.0
H552 H 0.71079 0.51781 0.90751 0.0
H553 H 0.72158 0.5368 0.89165 0.0
H554 H 0.69672 0.53538 0.90238 0.0
H555 H 0.71837 0.57895 0.90414 0.0
H556 H 0.75156 0.59325 0.90347 0.0
C557 C 0.80387 0.56901 0.95597 0.0
C558 C 0.77814 0.52252 0.95141 0.0
C559 C 0.80334 0.58337 0.8649 0.0
C560 C 0.788 0.58965 0.85682 0.0
C561 C 0.76575 0.58539 0.86342 0.0
C562 C 0.75928 0.57585 0.87787 0.0
C563 C 0.77525 0.57058 0.88599 0.0
C564 C 0.79671 0.57403 0.87942 0.0
C565 C 0.81122 0.56704 0.88972 0.0
C566 C 0.79584 0.56061 0.90387 0.0
C567 C 0.77461 0.56241 0.90154 0.0
C568 C 0.83715 0.58935 0.89208 0.0
C569 C 0.81151 0.54478 0.88291 0.0
C570 C 0.70272 0.54558 0.93561 0.0
C571 C 0.69892 0.54226 0.95122 0.0
C572 C 0.71857 0.54379 0.95998 0.0
C573 C 0.74038 0.54711 0.95345 0.0
C574 C 0.74331 0.54963 0.93792 0.0
C575 C 0.72508 0.54984 0.92935 0.0
C576 C 0.73299 0.55641 0.91334 0.0
C577 C 0.75806 0.55802 0.91354 0.0
C578 C 0.76382 0.55359 0.92794 0.0
C579 C 0.73501 0.58123 0.91007 0.0
C580 C 0.71454 0.5356 0.90309 0.0
H581 H 0.84177 0.55001 0.90481 0.0
H582 H 0.83244 0.54242 0.95976 0.0
H583 H 0.77737 0.50799 0.94413 0.0
H584 H 0.75893 0.51848 0.95232 0.0
H585 H 0.78462 0.52068 0.96263 0.0
H586 H 0.82197 0.58466 0.95276 0.0
H587 H 0.80582 0.56355 0.96742 0.0
H588 H 0.7911 0.57624 0.9562 0.0
H589 H 0.82052 0.58632 0.86021 0.0
H590 H 0.75327 0.58948 0.85739 0.0
H591 H 0.74212 0.57302 0.88222 0.0
H592 H 0.83569 0.6055 0.89514 0.0
H593 H 0.84821 0.59359 0.88171 0.0
H594 H 0.84763 0.58687 0.90114 0.0
H595 H 0.79645 0.53508 0.87457 0.0
H596 H 0.80832 0.53098 0.89144 0.0
H597 H 0.82919 0.55018 0.87716 0.0
H598 H 0.86837 0.54061 0.91876 0.0
C599 C 0.83933 0.54845 0.91667 0.0
C600 C 0.44592 0.16281 0.94371 0.0
C601 C 0.4431 0.1415 0.93723 0.0
C602 C 0.43372 0.13526 0.92255 0.0
C603 C 0.43009 0.17132 0.92114 0.0
C604 C 0.43948 0.17743 0.93549 0.0
C605 C 0.4422 0.20107 0.94062 0.0
H606 H 0.434 0.30059 0.92592 0.0
C607 C 0.42561 0.19064 0.91566 0.0
C608 C 0.43287 0.20819 0.92701 0.0
H609 H 0.45918 0.28299 0.96646 0.0
H610 H 0.45069 0.24485 0.95578 0.0
H611 H 0.45984 0.28128 0.90289 0.0
H612 H 0.38691 0.24784 0.92143 0.0
H613 H 0.38361 0.23827 0.90276 0.0
H614 H 0.39656 0.27006 0.90694 0.0
H615 H 0.43759 0.28986 0.89766 0.0
H616 H 0.43883 0.26536 0.8884 0.0
C617 C 0.46994 0.21889 0.94368 0.0
C618 C 0.42525 0.19608 0.95431 0.0
C619 C 0.38753 0.18369 0.8643 0.0
C620 C 0.38126 0.19883 0.85629 0.0
C621 C 0.38654 0.22117 0.8627 0.0
C622 C 0.39747 0.22814 0.87687 0.0
C623 C 0.40331 0.2127 0.88479 0.0
C624 C 0.3985 0.19096 0.87846 0.0
C625 C 0.40627 0.17703 0.88848 0.0
C626 C 0.41601 0.19376 0.90198 0.0
C627 C 0.41423 0.21462 0.89974 0.0
C628 C 0.42687 0.1746 0.88052 0.0
C629 C 0.38312 0.15259 0.89228 0.0
C630 C 0.43781 0.28853 0.93242 0.0
C631 C 0.44738 0.2948 0.94701 0.0
C632 C 0.45167 0.27847 0.95524 0.0
C633 C 0.44684 0.25638 0.94898 0.0
C634 C 0.43756 0.25046 0.93432 0.0
C635 C 0.43293 0.26628 0.92635 0.0
C636 C 0.42236 0.25656 0.9111 0.0
C637 C 0.42195 0.23255 0.91113 0.0
C638 C 0.431 0.2292 0.92473 0.0
C639 C 0.44038 0.27414 0.8993 0.0
C640 C 0.39605 0.25309 0.91036 0.0
H641 H 0.41997 0.14425 0.90341 0.0
H642 H 0.45342 0.16825 0.95489 0.0
H643 H 0.4082 0.1781 0.9533 0.0
H644 H 0.41858 0.20911 0.95537 0.0
H645 H 0.43472 0.19614 0.96483 0.0
H646 H 0.48166 0.21582 0.93567 0.0
H647 H 0.47529 0.21654 0.95512 0.0
H648 H 0.47519 0.23803 0.94214 0.0
H649 H 0.38362 0.16635 0.85978 0.0
H650 H 0.38238 0.23341 0.85669 0.0
H651 H 0.40095 0.24533 0.88109 0.0
H652 H 0.43818 0.19055 0.87333 0.0
H653 H 0.41899 0.15822 0.87328 0.0
H654 H 0.44022 0.17413 0.8884 0.0
H655 H 0.36714 0.15519 0.89456 0.0
H656 H 0.38542 0.1442 0.90245 0.0
H657 H 0.37795 0.13954 0.88286 0.0
H658 H 0.43125 0.11881 0.91738 0.0
C659 C 0.42712 0.15001 0.91449 0.0
C660 C 0.70479 0.16157 0.94552 0.0
C661 C 0.68725 0.13838 0.94021 0.0
C662 C 0.69125 0.13072 0.9262 0.0
C663 C 0.72942 0.16876 0.92317 0.0
C664 C 0.72566 0.1763 0.9369 0.0
C665 C 0.74632 0.20116 0.94108 0.0
H666 H 0.85804 0.29793 0.9252 0.0
C667 C 0.75304 0.1882 0.91713 0.0
C668 C 0.76309 0.20723 0.92763 0.0
H669 H 0.81272 0.28753 0.96381 0.0
H670 H 0.78123 0.24895 0.95395 0.0
H671 H 0.84739 0.24254 0.92268 0.0
H672 H 0.8148 0.28059 0.90186 0.0
H673 H 0.81453 0.26051 0.88833 0.0
H674 H 0.84361 0.28409 0.8957 0.0
H675 H 0.86309 0.26604 0.90919 0.0
H676 H 0.84349 0.23496 0.90357 0.0
C677 C 0.75867 0.19889 0.95553 0.0
C678 C 0.73557 0.2183 0.94249 0.0
C679 C 0.78301 0.17787 0.86622 0.0
C680 C 0.80426 0.19273 0.85782 0.0
C681 C 0.82185 0.21543 0.8638 0.0
C682 C 0.8185 0.22312 0.87783 0.0
C683 C 0.79728 0.20805 0.88609 0.0
C684 C 0.77992 0.18587 0.88026 0.0
C685 C 0.75854 0.17231 0.89068 0.0
C686 C 0.7658 0.19015 0.90363 0.0
C687 C 0.78857 0.211 0.90088 0.0
C688 C 0.7579 0.14863 0.89535 0.0
C689 C 0.73486 0.16841 0.88268 0.0
C690 C 0.8414 0.28721 0.93157 0.0
C691 C 0.83792 0.29567 0.94535 0.0
C692 C 0.81578 0.28143 0.95315 0.0
C693 C 0.79758 0.25898 0.94743 0.0
C694 C 0.80142 0.25065 0.9337 0.0
C695 C 0.82293 0.26486 0.92593 0.0
C696 C 0.82344 0.25362 0.91124 0.0
C697 C 0.79894 0.23008 0.9116 0.0
C698 C 0.78618 0.22832 0.92483 0.0
C699 C 0.84555 0.24912 0.91152 0.0
C700 C 0.82432 0.27052 0.89855 0.0
H701 H 0.714 0.13873 0.90717 0.0
H702 H 0.70233 0.16824 0.95614 0.0
H703 H 0.72037 0.21332 0.93428 0.0
H704 H 0.74919 0.23732 0.93995 0.0
H705 H 0.72798 0.21737 0.95381 0.0
H706 H 0.75997 0.18212 0.95524 0.0
H707 H 0.74785 0.19802 0.96554 0.0
H708 H 0.77781 0.21378 0.95703 0.0
H709 H 0.76923 0.16023 0.86207 0.0
H710 H 0.83818 0.22745 0.85753 0.0
H711 H 0.8326 0.24056 0.88168 0.0
H712 H 0.77684 0.15129 0.89602 0.0
H713 H 0.74726 0.13383 0.88718 0.0
H714 H 0.7502 0.14251 0.90661 0.0
H715 H 0.73861 0.18478 0.87624 0.0
H716 H 0.72001 0.1654 0.89048 0.0
H717 H 0.7278 0.15294 0.87472 0.0
H718 H 0.67845 0.11285 0.92189 0.0
C719 C 0.7121 0.14574 0.91768 0.0
C720 C 0.55284 0.83469 0.0631 0.0
C721 C 0.55617 0.85636 0.06933 0.0
C722 C 0.56613 0.86312 0.08384 0.0
C723 C 0.56944 0.82693 0.08561 0.0
C724 C 0.55945 0.82027 0.07142 0.0
C725 C 0.55638 0.79633 0.06659 0.0
H726 H 0.5708 0.70016 0.08107 0.0
C727 C 0.57424 0.8079 0.0912 0.0
C728 C 0.56651 0.78988 0.08013 0.0
H729 H 0.53717 0.71237 0.04237 0.0
H730 H 0.54493 0.75057 0.0527 0.0
H731 H 0.61649 0.75599 0.08465 0.0
H732 H 0.54467 0.7162 0.10448 0.0
H733 H 0.56467 0.73516 0.11851 0.0
H734 H 0.56982 0.71218 0.1103 0.0
H735 H 0.60853 0.73223 0.09793 0.0
H736 H 0.61975 0.76308 0.10381 0.0
C737 C 0.57251 0.80063 0.05261 0.0
C738 C 0.52849 0.77833 0.06414 0.0
C739 C 0.61355 0.81672 0.14234 0.0
C740 C 0.62031 0.80205 0.15043 0.0
C741 C 0.61613 0.78009 0.144 0.0
C742 C 0.60553 0.77291 0.12976 0.0
C743 C 0.5989 0.78777 0.12182 0.0
C744 C 0.6029 0.80925 0.12813 0.0
C745 C 0.59449 0.82261 0.11808 0.0
C746 C 0.58479 0.80558 0.10472 0.0
C747 C 0.58747 0.78524 0.10698 0.0
C748 C 0.61728 0.84721 0.11406 0.0
C749 C 0.57373 0.82465 0.12613 0.0
C750 C 0.56536 0.71125 0.07481 0.0
C751 C 0.55346 0.70342 0.0609 0.0
C752 C 0.54624 0.71806 0.05315 0.0
C753 C 0.55081 0.74023 0.05916 0.0
C754 C 0.56256 0.74777 0.07314 0.0
C755 C 0.56952 0.73332 0.08075 0.0
C756 C 0.58085 0.74382 0.09573 0.0
C757 C 0.57963 0.767 0.0958 0.0
C758 C 0.56909 0.76928 0.08249 0.0
C759 C 0.60778 0.74897 0.09569 0.0
C760 C 0.56439 0.72598 0.10797 0.0
H761 H 0.58043 0.85473 0.10296 0.0
H762 H 0.54486 0.82885 0.05206 0.0
H763 H 0.51697 0.78304 0.07127 0.0
H764 H 0.52309 0.75961 0.06735 0.0
H765 H 0.52297 0.7784 0.05235 0.0
H766 H 0.59059 0.81758 0.05386 0.0
H767 H 0.56336 0.80242 0.04243 0.0
H768 H 0.57707 0.78622 0.0507 0.0
H769 H 0.6167 0.83381 0.14687 0.0
H770 H 0.62079 0.76824 0.15006 0.0
H771 H 0.60283 0.756 0.12553 0.0
H772 H 0.63371 0.84516 0.11227 0.0
H773 H 0.62183 0.86069 0.12317 0.0
H774 H 0.61495 0.8548 0.10353 0.0
H775 H 0.56241 0.80842 0.1331 0.0
H776 H 0.56044 0.82536 0.11831 0.0
H777 H 0.58147 0.84077 0.1336 0.0
H778 H 0.56898 0.87984 0.08882 0.0
C779 C 0.57285 0.84857 0.092 0.0
C780 C 0.29381 0.83259 0.06213 0.0
C781 C 0.31092 0.85605 0.06724 0.0
C782 C 0.30694 0.86366 0.08128 0.0
C783 C 0.27015 0.82468 0.08497 0.0
C784 C 0.27364 0.81738 0.07109 0.0
C785 C 0.25356 0.79217 0.06714 0.0
H786 H 0.14601 0.69203 0.08514 0.0
C787 C 0.24779 0.80431 0.09161 0.0
C788 C 0.23797 0.78522 0.08116 0.0
H789 H 0.18691 0.70642 0.04413 0.0
H790 H 0.21883 0.74471 0.05411 0.0
H791 H 0.19011 0.70711 0.10576 0.0
H792 H 0.15597 0.7477 0.09156 0.0
H793 H 0.1597 0.74955 0.11121 0.0
H794 H 0.14151 0.72053 0.10248 0.0
H795 H 0.16542 0.70644 0.11616 0.0
H796 H 0.19722 0.72891 0.11985 0.0
C797 C 0.26543 0.77616 0.06477 0.0
C798 C 0.23947 0.79383 0.05334 0.0
C799 C 0.22033 0.81168 0.14404 0.0
C800 C 0.20222 0.79473 0.15378 0.0
C801 C 0.18764 0.77059 0.14863 0.0
C802 C 0.19016 0.7638 0.13415 0.0
C803 C 0.20791 0.781 0.12462 0.0
C804 C 0.22317 0.80429 0.12974 0.0
C805 C 0.2428 0.81933 0.11853 0.0
C806 C 0.23629 0.80131 0.10574 0.0
C807 C 0.21543 0.77909 0.10929 0.0
C808 C 0.26824 0.82666 0.12557 0.0
C809 C 0.23954 0.84096 0.11401 0.0
C810 C 0.16177 0.7036 0.07831 0.0
C811 C 0.16388 0.69647 0.06379 0.0
C812 C 0.18494 0.71162 0.05534 0.0
C813 C 0.20335 0.73388 0.06114 0.0
C814 C 0.20079 0.74102 0.07559 0.0
C815 C 0.18045 0.72576 0.08401 0.0
C816 C 0.18142 0.73571 0.09941 0.0
C817 C 0.20499 0.7601 0.09853 0.0
C818 C 0.21624 0.76312 0.08456 0.0
C819 C 0.18351 0.7187 0.11095 0.0
C820 C 0.15843 0.7385 0.10139 0.0
H821 H 0.28483 0.85509 0.10067 0.0
H822 H 0.29617 0.82598 0.05147 0.0
H823 H 0.23861 0.81083 0.05361 0.0
H824 H 0.22003 0.77923 0.05288 0.0
H825 H 0.24871 0.79371 0.0428 0.0
H826 H 0.28068 0.78105 0.07292 0.0
H827 H 0.27323 0.77851 0.05338 0.0
H828 H 0.25244 0.75674 0.06664 0.0
H829 H 0.23208 0.83038 0.1473 0.0
H830 H 0.17431 0.75661 0.1558 0.0
H831 H 0.17823 0.74529 0.13097 0.0
H832 H 0.26705 0.81211 0.13294 0.0
H833 H 0.27517 0.84336 0.13245 0.0
H834 H 0.28226 0.82933 0.1172 0.0
H835 H 0.21965 0.83511 0.11272 0.0
H836 H 0.24791 0.84873 0.10313 0.0
H837 H 0.24744 0.85549 0.12264 0.0
H838 H 0.31931 0.88179 0.0854 0.0
C839 C 0.28676 0.84815 0.09014 0.0
C840 C 0.29352 0.46406 0.05933 0.0
C841 C 0.31106 0.4581 0.06463 0.0
C842 C 0.30683 0.44641 0.07858 0.0
C843 C 0.269 0.44763 0.08179 0.0
C844 C 0.27272 0.45859 0.06801 0.0
C845 C 0.25212 0.46325 0.06388 0.0
H846 H 0.14132 0.45213 0.08037 0.0
C847 C 0.24592 0.44494 0.08813 0.0
C848 C 0.23592 0.45407 0.07765 0.0
H849 H 0.18438 0.48103 0.04025 0.0
H850 H 0.21653 0.47528 0.05064 0.0
H851 H 0.15363 0.40815 0.0867 0.0
H852 H 0.18519 0.48175 0.10206 0.0
H853 H 0.19122 0.46638 0.11622 0.0
H854 H 0.1597 0.45748 0.11151 0.0
H855 H 0.13774 0.41987 0.09751 0.0
H856 H 0.15646 0.40958 0.10641 0.0
C857 C 0.23901 0.4479 0.0498 0.0
C858 C 0.26315 0.49086 0.06184 0.0
C859 C 0.21707 0.40795 0.13976 0.0
C860 C 0.19828 0.40592 0.14943 0.0
C861 C 0.18311 0.41508 0.1443 0.0
C862 C 0.18582 0.42488 0.12996 0.0
C863 C 0.20434 0.42634 0.12053 0.0
C864 C 0.22008 0.41867 0.12565 0.0
C865 C 0.24045 0.42419 0.1147 0.0
C866 C 0.23386 0.43581 0.10203 0.0
C867 C 0.2123 0.43646 0.10537 0.0
C868 C 0.23848 0.4 0.10978 0.0
C869 C 0.26531 0.44227 0.12225 0.0
C870 C 0.15771 0.45742 0.07382 0.0
C871 C 0.15983 0.46661 0.05926 0.0
C872 C 0.1817 0.47323 0.05127 0.0
C873 C 0.20052 0.46999 0.05737 0.0
C874 C 0.19775 0.46014 0.07171 0.0
C875 C 0.17681 0.45445 0.0798 0.0
C876 C 0.17755 0.44516 0.09514 0.0
C877 C 0.20174 0.44498 0.09458 0.0
C878 C 0.2135 0.45378 0.08081 0.0
C879 C 0.15515 0.41933 0.09664 0.0
C880 C 0.17831 0.46345 0.1069 0.0
H881 H 0.28402 0.43229 0.0976 0.0
H882 H 0.296 0.47305 0.04872 0.0
H883 H 0.27788 0.50113 0.07028 0.0
H884 H 0.24951 0.49677 0.06355 0.0
H885 H 0.27145 0.49667 0.05061 0.0
H886 H 0.23869 0.43031 0.05 0.0
H887 H 0.24863 0.45747 0.03946 0.0
H888 H 0.21945 0.44291 0.049 0.0
H889 H 0.2293 0.40133 0.14291 0.0
H890 H 0.16918 0.41512 0.15136 0.0
H891 H 0.17346 0.43115 0.12679 0.0
H892 H 0.21885 0.38581 0.10809 0.0
H893 H 0.24648 0.39336 0.11837 0.0
H894 H 0.24749 0.40128 0.09899 0.0
H895 H 0.26307 0.45468 0.13001 0.0
H896 H 0.27935 0.45439 0.1142 0.0
H897 H 0.2728 0.43262 0.12882 0.0
H898 H 0.31947 0.44092 0.08286 0.0
C899 C 0.28605 0.44122 0.08714 0.0
C900 C 0.50317 0.88156 0.28236 0.0
C901 C 0.52444 0.88304 0.27598 0.0
C902 C 0.52912 0.88926 0.26073 0.0
C903 C 0.4922 0.89253 0.25872 0.0
C904 C 0.48732 0.88605 0.27355 0.0
C905 C 0.46344 0.88401 0.27852 0.0
H906 H 0.3587 0.88538 0.2618 0.0
C907 C 0.47193 0.89581 0.25273 0.0
C908 C 0.45488 0.89054 0.26427 0.0
H909 H 0.38189 0.87133 0.30442 0.0
H910 H 0.41984 0.87843 0.29363 0.0
H911 H 0.41097 0.93252 0.2558 0.0
H912 H 0.38047 0.8591 0.24002 0.0
H913 H 0.39367 0.8791 0.22488 0.0
H914 H 0.36843 0.8784 0.23484 0.0
H915 H 0.38892 0.92077 0.2408 0.0
H916 H 0.42157 0.934 0.23752 0.0
C917 C 0.46922 0.90289 0.29111 0.0
C918 C 0.44588 0.8574 0.28312 0.0
C919 C 0.47611 0.92611 0.19959 0.0
C920 C 0.46069 0.9319 0.1912 0.0
C921 C 0.43831 0.92767 0.1976 0.0
C922 C 0.43161 0.91825 0.21207 0.0
C923 C 0.44745 0.91308 0.22041 0.0
C924 C 0.46924 0.91691 0.21411 0.0
C925 C 0.48392 0.91059 0.22469 0.0
C926 C 0.46773 0.90302 0.23849 0.0
C927 C 0.44625 0.90432 0.2359 0.0
C928 C 0.50909 0.9337 0.22757 0.0
C929 C 0.4858 0.88923 0.21785 0.0
C930 C 0.37192 0.88392 0.26887 0.0
C931 C 0.36661 0.87705 0.284 0.0
C932 C 0.38474 0.87562 0.29265 0.0
C933 C 0.40705 0.88 0.28639 0.0
C934 C 0.41176 0.88622 0.27126 0.0
C935 C 0.39459 0.8886 0.26282 0.0
C936 C 0.40368 0.897 0.24717 0.0
C937 C 0.4286 0.89823 0.24749 0.0
C938 C 0.43309 0.89169 0.26162 0.0
C939 C 0.40632 0.9223 0.24506 0.0
C940 C 0.38563 0.87754 0.23604 0.0
H941 H 0.51799 0.89874 0.24065 0.0
H942 H 0.49888 0.87713 0.29402 0.0
H943 H 0.44803 0.84468 0.27558 0.0
H944 H 0.42621 0.85197 0.28225 0.0
H945 H 0.44988 0.85406 0.29469 0.0
H946 H 0.48752 0.91935 0.28942 0.0
H947 H 0.46958 0.89538 0.30222 0.0
H948 H 0.45606 0.90964 0.29136 0.0
H949 H 0.4935 0.92927 0.19511 0.0
H950 H 0.42589 0.93158 0.19136 0.0
H951 H 0.41435 0.91546 0.21624 0.0
H952 H 0.50664 0.94967 0.22918 0.0
H953 H 0.52167 0.93751 0.21797 0.0
H954 H 0.51839 0.93271 0.2378 0.0
H955 H 0.46915 0.87722 0.21105 0.0
H956 H 0.48662 0.87722 0.22642 0.0
H957 H 0.50207 0.89582 0.21046 0.0
H958 H 0.54489 0.89002 0.25527 0.0
C959 C 0.51328 0.8941 0.25214 0.0
C960 C 0.10906 0.49722 0.2801 0.0
C961 C 0.1049 0.47543 0.27356 0.0
C962 C 0.09358 0.46869 0.25938 0.0
C963 C 0.09148 0.50558 0.25827 0.0
C964 C 0.10205 0.51187 0.27233 0.0
C965 C 0.10448 0.53527 0.27785 0.0
H966 H 0.09318 0.63375 0.2647 0.0
C967 C 0.08693 0.525 0.25311 0.0
C968 C 0.09436 0.54237 0.26457 0.0
H969 H 0.11701 0.61502 0.30534 0.0
H970 H 0.11059 0.57792 0.29394 0.0
H971 H 0.12149 0.61704 0.24197 0.0
H972 H 0.04727 0.58042 0.25868 0.0
H973 H 0.04569 0.57334 0.2396 0.0
H974 H 0.05777 0.60441 0.24531 0.0
H975 H 0.09878 0.62454 0.23596 0.0
H976 H 0.10193 0.60089 0.22697 0.0
C977 C 0.13218 0.55345 0.28055 0.0
C978 C 0.08813 0.52986 0.29188 0.0
C979 C 0.05235 0.52059 0.20104 0.0
C980 C 0.04714 0.53633 0.1929 0.0
C981 C 0.05196 0.55838 0.19951 0.0
C982 C 0.06156 0.56453 0.21404 0.0
C983 C 0.06649 0.54853 0.22209 0.0
C984 C 0.06205 0.52706 0.21552 0.0
C985 C 0.06884 0.5125 0.22562 0.0
C986 C 0.07779 0.5286 0.23941 0.0
C987 C 0.07631 0.54965 0.23729 0.0
C988 C 0.08984 0.51023 0.21809 0.0
C989 C 0.04524 0.488 0.22875 0.0
C990 C 0.09711 0.62167 0.27109 0.0
C991 C 0.10568 0.62729 0.2859 0.0
C992 C 0.11022 0.61096 0.29395 0.0
C993 C 0.10659 0.58949 0.28729 0.0
C994 C 0.09816 0.58418 0.27243 0.0
C995 C 0.09332 0.60002 0.26464 0.0
C996 C 0.08368 0.59098 0.24915 0.0
C997 C 0.08361 0.56714 0.24892 0.0
C998 C 0.09235 0.56339 0.26253 0.0
C999 C 0.10222 0.60927 0.23783 0.0
C1000 C 0.05729 0.58718 0.24796 0.0
H1001 H 0.07857 0.47763 0.24088 0.0
H1002 H 0.11733 0.5026 0.2911 0.0
H1003 H 0.07227 0.51101 0.29166 0.0
H1004 H 0.07956 0.54135 0.29261 0.0
H1005 H 0.09879 0.53205 0.30228 0.0
H1006 H 0.14346 0.55243 0.27131 0.0
H1007 H 0.13869 0.5494 0.29113 0.0
H1008 H 0.13651 0.57246 0.28088 0.0
H1009 H 0.04915 0.50367 0.1962 0.0
H1010 H 0.04791 0.57071 0.19351 0.0
H1011 H 0.06466 0.58149 0.21847 0.0
H1012 H 0.10281 0.5273 0.21228 0.0
H1013 H 0.08237 0.49542 0.20964 0.0
H1014 H 0.10142 0.50722 0.22612 0.0
H1015 H 0.02871 0.4902 0.22915 0.0
H1016 H 0.04569 0.4804 0.23973 0.0
H1017 H 0.042 0.47447 0.21989 0.0
H1018 H 0.09025 0.45196 0.25416 0.0
C1019 C 0.08693 0.48367 0.25168 0.0
C1020 C 0.37877 0.49624 0.28205 0.0
C1021 C 0.35736 0.47743 0.27521 0.0
C1022 C 0.35778 0.4744 0.25954 0.0
C1023 C 0.40005 0.50736 0.25827 0.0
C1024 C 0.39937 0.51122 0.27339 0.0
C1025 C 0.42212 0.5336 0.27878 0.0
H1026 H 0.53342 0.63082 0.26406 0.0
C1027 C 0.42429 0.52615 0.25259 0.0
C1028 C 0.43703 0.5419 0.26452 0.0
H1029 H 0.49183 0.61352 0.305 0.0
H1030 H 0.45991 0.57633 0.29404 0.0
H1031 H 0.52187 0.57556 0.25727 0.0
H1032 H 0.48837 0.61651 0.24224 0.0
H1033 H 0.49022 0.6005 0.22676 0.0
H1034 H 0.51814 0.62261 0.23603 0.0
H1035 H 0.53617 0.5992 0.24372 0.0
H1036 H 0.51439 0.56842 0.23833 0.0
C1037 C 0.43489 0.52609 0.29074 0.0
C1038 C 0.41446 0.55197 0.2844 0.0
C1039 C 0.45081 0.5205 0.19965 0.0
C1040 C 0.4726 0.53495 0.19161 0.0
C1041 C 0.4916 0.55603 0.19845 0.0
C1042 C 0.48917 0.56245 0.21306 0.0
C1043 C 0.46746 0.54773 0.22101 0.0
C1044 C 0.44861 0.52725 0.21427 0.0
C1045 C 0.42663 0.5142 0.22436 0.0
C1046 C 0.43588 0.52966 0.23846 0.0
C1047 C 0.4598 0.54931 0.23638 0.0
C1048 C 0.42198 0.48829 0.22693 0.0
C1049 C 0.4045 0.51505 0.21721 0.0
C1050 C 0.51749 0.61885 0.27066 0.0
C1051 C 0.515 0.62507 0.28537 0.0
C1052 C 0.49396 0.60919 0.29359 0.0
C1053 C 0.47542 0.58765 0.28718 0.0
C1054 C 0.47774 0.582 0.27232 0.0
C1055 C 0.49858 0.59737 0.26433 0.0
C1056 C 0.49753 0.58854 0.24857 0.0
C1057 C 0.47229 0.56578 0.24832 0.0
C1058 C 0.46094 0.56201 0.26229 0.0
C1059 C 0.51862 0.58273 0.24672 0.0
C1060 C 0.49879 0.608 0.23773 0.0
H1061 H 0.37811 0.4855 0.23936 0.0
H1062 H 0.37983 0.49957 0.29394 0.0
H1063 H 0.39655 0.54827 0.27948 0.0
H1064 H 0.42763 0.57077 0.28103 0.0
H1065 H 0.41243 0.5513 0.29673 0.0
H1066 H 0.43511 0.50949 0.28713 0.0
H1067 H 0.42499 0.52214 0.30154 0.0
H1068 H 0.45436 0.53993 0.29266 0.0
H1069 H 0.43574 0.50439 0.19462 0.0
H1070 H 0.50864 0.56734 0.19258 0.0
H1071 H 0.50439 0.57861 0.21762 0.0
H1072 H 0.43945 0.48882 0.23006 0.0
H1073 H 0.4147 0.47714 0.21662 0.0
H1074 H 0.40893 0.47882 0.23604 0.0
H1075 H 0.41074 0.53086 0.20968 0.0
H1076 H 0.39296 0.5174 0.22563 0.0
H1077 H 0.39279 0.49848 0.21049 0.0
H1078 H 0.34165 0.46102 0.25354 0.0
C1079 C 0.379 0.48894 0.25114 0.0
Gd1080 Gd 0.51027 0.01759 0.02073 0.0
Gd1081 Gd 0.48686 0.97977 0.98664 0.0
C1082 C 0.40986 0.91292 0.9865 0.0
C1083 C 0.41926 0.88035 0.98512 0.0
C1084 C 0.45233 0.92234 0.98475 0.0
C1085 C 0.43529 0.93008 0.98603 0.0
C1086 C 0.44444 0.8974 0.98393 0.0
C1087 C 0.40201 0.88809 0.98638 0.0
C1088 C 0.39298 0.92117 0.98675 0.0
C1089 C 0.40151 0.94592 0.98623 0.0
N1090 N 0.44345 0.95428 0.98627 0.0
C1091 C 0.42684 0.96227 0.9858 0.0
H1092 H 0.4326 0.98116 0.98546 0.0
C1093 C 0.4936 0.93243 0.98031 0.0
N1094 N 0.47654 0.93917 0.98358 0.0
C1095 C 0.48667 0.90795 0.9795 0.0
C1096 C 0.46203 0.89034 0.98156 0.0
H1097 H 0.51273 0.94602 0.97884 0.0
H1098 H 0.38258 0.87471 0.98694 0.0
H1099 H 0.56547 0.02052 0.02091 0.0
H1100 H 0.37333 0.90857 0.98697 0.0
H1101 H 0.38856 0.95247 0.98618 0.0
H1102 H 0.41288 0.86113 0.9847 0.0
H1103 H 0.48011 0.04717 0.02848 0.0
H1104 H 0.62188 0.09491 0.02108 0.0
H1105 H 0.60938 0.05151 0.02057 0.0
H1106 H 0.57676 0.13712 0.02521 0.0
H1107 H 0.50034 0.90268 0.97735 0.0
H1108 H 0.45669 0.87137 0.98091 0.0
H1109 H 0.60952 0.12678 0.0224 0.0
H1110 H 0.48897 0.08935 0.03103 0.0
N1111 N 0.55284 0.04593 0.02118 0.0
C1112 C 0.60249 0.08136 0.02113 0.0
C1113 C 0.59551 0.05688 0.02093 0.0
C1114 C 0.58438 0.08803 0.02184 0.0
C1115 C 0.55941 0.06964 0.02202 0.0
C1116 C 0.57049 0.03932 0.02115 0.0
N1117 N 0.51743 0.05715 0.02441 0.0
C1118 C 0.54109 0.07545 0.02365 0.0
C1119 C 0.50381 0.0857 0.02891 0.0
C1120 C 0.52798 0.1048 0.02751 0.0
C1121 C 0.49887 0.06184 0.02752 0.0
C1122 C 0.54705 0.0998 0.02506 0.0
H1123 H 0.53177 0.12327 0.02861 0.0
O1124 O 0.49242 0.01283 0.04222 0.0
O1125 O 0.47967 0.98431 0.01029 0.0
O1126 O 0.47413 0.00734 0.98828 0.0
O1127 O 0.50399 0.0388 1.00291 0.0
O1128 O 0.46964 0.00424 0.02362 0.0
O1129 O 0.52484 0.00918 0.04049 0.0
O1130 O 0.49347 0.00426 0.96796 0.0
O1131 O 0.51802 0.01188 0.99729 0.0
O1132 O 0.52261 0.98975 0.02006 0.0
O1133 O 0.49536 0.95923 0.00392 0.0
O1134 O 0.52704 0.99054 0.98472 0.0
O1135 O 0.48576 0.96804 0.96364 0.0
C1136 C 0.46139 0.98474 0.01576 0.0
C1137 C 0.57181 0.11827 0.02428 0.0
C1138 C 0.59046 0.11239 0.02269 0.0
C1139 C 0.50815 0.00877 0.04934 0.0
C1140 C 0.51657 0.02055 0.06404 0.0
C1141 C 0.53179 0.04569 0.06519 0.0
C1142 C 0.50891 0.00646 0.07712 0.0
C1143 C 0.51633 0.0174 0.09137 0.0
C1144 C 0.5392 0.05669 0.0792 0.0
C1145 C 0.53152 0.04277 0.09217 0.0
C1146 C 0.48625 0.03034 0.99268 0.0
C1147 C 0.53599 0.01049 0.99219 0.0
C1148 C 0.49224 0.98903 0.95787 0.0
C1149 C 0.5122 0.99825 0.94664 0.0
C1150 C 0.533 0.99573 0.94889 0.0
C1151 C 0.51019 0.00892 0.93329 0.0
C1152 C 0.52873 0.01671 0.92228 0.0
C1153 C 0.55172 0.00417 0.93833 0.0
C1154 C 0.54965 0.01455 0.92514 0.0
C1155 C 0.51186 0.96731 0.01485 0.0
H1156 H 0.53781 0.05677 0.05526 0.0
H1157 H 0.49735 0.98699 0.07613 0.0
H1158 H 0.55082 0.07615 0.08003 0.0
H1159 H 0.53721 0.05198 0.10286 0.0
H1160 H 0.53475 0.98689 0.95868 0.0
H1161 H 0.49395 0.01044 0.93128 0.0
H1162 H 0.56779 0.00237 0.9403 0.0
H1163 H 0.56443 0.02081 0.9171 0.0
Gd1164 Gd 0.97997 0.4891 0.02114 0.0
Gd1165 Gd 0.0193 0.50595 0.98748 0.0
C1166 C 0.08601 0.49499 0.98596 0.0
C1167 C 0.12003 0.53633 0.98427 0.0
C1168 C 0.07781 0.52825 0.98563 0.0
C1169 C 0.06932 0.50372 0.98659 0.0
C1170 C 0.10321 0.5448 0.98407 0.0
C1171 C 0.11143 0.51145 0.98513 0.0
C1172 C 0.07661 0.46997 0.98571 0.0
C1173 C 0.0512 0.45434 0.9861 0.0
N1174 N 0.04463 0.48832 0.98728 0.0
C1175 C 0.03539 0.46385 0.98673 0.0
H1176 H 0.01583 0.45142 0.98697 0.0
C1177 C 0.06818 0.55908 0.9812 0.0
N1178 N 0.06102 0.53569 0.98488 0.0
C1179 C 0.09317 0.57631 0.97994 0.0
C1180 C 0.11082 0.56921 0.98162 0.0
H1181 H 0.05448 0.56449 0.9797 0.0
H1182 H 0.12454 0.50509 0.98476 0.0
H1183 H 0.9804 0.54204 0.02288 0.0
H1184 H 0.08877 0.46252 0.98487 0.0
H1185 H 0.04376 0.43495 0.98582 0.0
H1186 H 0.13963 0.54878 0.98321 0.0
H1187 H 0.94659 0.43086 0.03046 0.0
H1188 H 0.90616 0.52753 0.01984 0.0
H1189 H 0.95078 0.55666 0.02211 0.0
H1190 H 0.85864 0.441 0.02158 0.0
H1191 H 0.09879 0.59498 0.97756 0.0
H1192 H 0.13017 0.58251 0.98041 0.0
H1193 H 0.87183 0.48421 0.01907 0.0
H1194 H 0.90268 0.39895 0.03191 0.0
N1195 N 0.95299 0.50485 0.02066 0.0
C1196 C 0.91909 0.52096 0.02006 0.0
C1197 C 0.94425 0.53745 0.02147 0.0
C1198 C 0.91087 0.49615 0.01971 0.0
C1199 C 0.92851 0.48857 0.02023 0.0
C1200 C 0.96102 0.52903 0.02191 0.0
N1201 N 0.93867 0.45818 0.02373 0.0
C1202 C 0.92108 0.46437 0.02175 0.0
C1203 C 0.90759 0.41725 0.02895 0.0
C1204 C 0.88921 0.42298 0.02592 0.0
C1205 C 0.93237 0.43531 0.02815 0.0
C1206 C 0.89584 0.44693 0.02267 0.0
H1207 H 0.87002 0.40903 0.0267 0.0
O1208 O 0.98162 0.47415 0.04257 0.0
O1209 O 0.01403 0.49321 0.01091 0.0
O1210 O 0.98825 0.46671 0.98605 0.0
O1211 O 0.9586 0.45978 0.0042 0.0
O1212 O 0.9944 0.46315 0.02397 0.0
O1213 O 0.98762 0.51061 0.04136 0.0
O1214 O 0.01848 0.5225 0.9665 0.0
O1215 O 0.98534 0.50202 0.99774 0.0
O1216 O 0.01032 0.52871 0.02205 0.0
O1217 O 0.04079 0.53457 0.00475 0.0
O1218 O 0.00576 0.5327 0.98531 0.0
O1219 O 0.01113 0.48549 0.96678 0.0
C1220 C 0.01424 0.47505 0.01627 0.0
C1221 C 0.87814 0.45416 0.02108 0.0
C1222 C 0.88565 0.47876 0.01965 0.0
C1223 C 0.98525 0.49323 0.05003 0.0
C1224 C 0.97022 0.48889 0.06343 0.0
C1225 C 0.94457 0.47849 0.06241 0.0
C1226 C 0.98182 0.49534 0.07746 0.0
C1227 C 0.96791 0.49127 0.09054 0.0
C1228 C 0.93061 0.47433 0.07531 0.0
C1229 C 0.94213 0.48059 0.08929 0.0
C1230 C 0.9663 0.45339 0.99222 0.0
C1231 C 0.98573 0.52071 0.99282 0.0
C1232 C 0.01427 0.50364 0.95856 0.0
C1233 C 0.02935 0.50834 0.94514 0.0
C1234 C 0.05483 0.51749 0.94619 0.0
C1235 C 0.018 0.50353 0.93106 0.0
C1236 C 0.032 0.50798 0.91798 0.0
C1237 C 0.06887 0.52205 0.9333 0.0
C1238 C 0.0576 0.51739 0.91926 0.0
C1239 C 0.03272 0.54146 0.01633 0.0
H1240 H 0.93534 0.4736 0.0517 0.0
H1241 H 0.00172 0.50382 0.07813 0.0
H1242 H 0.91079 0.46617 0.07446 0.0
H1243 H 0.93082 0.47684 0.09913 0.0
H1244 H 0.06388 0.52111 0.95689 0.0
H1245 H 0.99821 0.496 0.93032 0.0
H1246 H 0.08856 0.52925 0.93419 0.0
H1247 H 0.06894 0.52135 0.90942 0.0
Gd1248 Gd 0.49152 0.50727 0.98678 0.0
Gd1249 Gd 0.51196 0.49099 0.02154 0.0
C1250 C 0.58654 0.49482 0.02472 0.0
C1251 C 0.57464 0.45228 0.02594 0.0
C1252 C 0.54335 0.46413 0.02454 0.0
C1253 C 0.56147 0.4882 0.02384 0.0
C1254 C 0.54969 0.44589 0.02587 0.0
C1255 C 0.59304 0.47671 0.02542 0.0
C1256 C 0.60427 0.51942 0.02542 0.0
C1257 C 0.59678 0.53667 0.02556 0.0
N1258 N 0.55452 0.5052 0.02326 0.0
C1259 C 0.57168 0.5292 0.0246 0.0
H1260 H 0.5662 0.54275 0.02466 0.0
C1261 C 0.50101 0.43546 0.02717 0.0
N1262 N 0.51948 0.45865 0.0247 0.0
C1263 C 0.50633 0.41669 0.02836 0.0
C1264 C 0.53077 0.42188 0.02753 0.0
H1265 H 0.48208 0.43136 0.02771 0.0
H1266 H 0.61223 0.48144 0.02593 0.0
H1267 H 0.43655 0.45556 0.98617 0.0
H1268 H 0.62371 0.52526 0.02629 0.0
H1269 H 0.61033 0.55574 0.02634 0.0
H1270 H 0.5799 0.43852 0.02683 0.0
H1271 H 0.52046 0.56483 0.976 0.0
H1272 H 0.37952 0.47369 0.98532 0.0
H1273 H 0.39252 0.44295 0.98614 0.0
H1274 H 0.42383 0.55991 0.97971 0.0
H1275 H 0.49161 0.39824 0.0299 0.0
H1276 H 0.53486 0.40733 0.02852 0.0
H1277 H 0.39141 0.51754 0.98348 0.0
H1278 H 0.51123 0.59786 0.97203 0.0
N1279 N 0.44879 0.49331 0.98593 0.0
C1280 C 0.39896 0.47939 0.98547 0.0
C1281 C 0.40623 0.46199 0.98583 0.0
C1282 C 0.41687 0.5039 0.98471 0.0
C1283 C 0.44193 0.51031 0.98479 0.0
C1284 C 0.43133 0.46928 0.98582 0.0
N1285 N 0.48368 0.539 0.98182 0.0
C1286 C 0.46003 0.53401 0.98271 0.0
C1287 C 0.49665 0.58002 0.97512 0.0
C1288 C 0.47259 0.57554 0.97693 0.0
C1289 C 0.50182 0.5613 0.97735 0.0
C1290 C 0.4538 0.55216 0.98045 0.0
H1291 H 0.46859 0.59001 0.97512 0.0
O1292 O 0.51095 0.51917 0.96572 0.0
O1293 O 0.52097 0.50398 0.99836 0.0
O1294 O 0.5231 0.53084 0.02141 0.0
O1295 O 0.4997 0.53708 0.00323 0.0
O1296 O 0.53261 0.53345 0.98477 0.0
O1297 O 0.47747 0.48449 0.96697 0.0
O1298 O 0.49283 0.47627 0.04239 0.0
O1299 O 0.48262 0.49522 0.01038 0.0
O1300 O 0.47932 0.4672 0.98822 0.0
O1301 O 0.50815 0.46481 0.00347 0.0
O1302 O 0.47113 0.46466 0.02313 0.0
O1303 O 0.52491 0.51228 0.04197 0.0
C1304 C 0.53998 0.5222 0.99344 0.0
C1305 C 0.42899 0.54618 0.98122 0.0
C1306 C 0.41054 0.52206 0.98335 0.0
C1307 C 0.49474 0.50019 0.95835 0.0
C1308 C 0.48689 0.50482 0.94385 0.0
C1309 C 0.47147 0.51483 0.94308 0.0
C1310 C 0.49528 0.4995 0.93062 0.0
C1311 C 0.48842 0.50423 0.91657 0.0
C1312 C 0.46465 0.51967 0.92923 0.0
C1313 C 0.47307 0.51449 0.91607 0.0
C1314 C 0.51443 0.54389 0.01508 0.0
C1315 C 0.46374 0.4768 0.01534 0.0
C1316 C 0.50812 0.49522 0.05021 0.0
C1317 C 0.51637 0.49048 0.06453 0.0
C1318 C 0.53095 0.47953 0.065 0.0
C1319 C 0.50917 0.49667 0.07792 0.0
C1320 C 0.51631 0.4918 0.09184 0.0
C1321 C 0.53811 0.47463 0.07872 0.0
C1322 C 0.53082 0.48061 0.09204 0.0
C1323 C 0.49114 0.45603 0.99285 0.0
H1324 H 0.46479 0.51897 0.95314 0.0
H1325 H 0.50692 0.49144 0.93131 0.0
H1326 H 0.45286 0.52755 0.92869 0.0
H1327 H 0.46775 0.51878 0.9055 0.0
H1328 H 0.53667 0.47468 0.05481 0.0
H1329 H 0.49819 0.50547 0.07744 0.0
H1330 H 0.54924 0.46602 0.07903 0.0
H1331 H 0.5363 0.47618 0.1025 0.0
Gd1332 Gd 0.17661 0.35399 0.35522 0.0
Gd1333 Gd 0.16098 0.31815 0.31986 0.0
C1334 C 0.08921 0.24605 0.31625 0.0
C1335 C 0.10388 0.21724 0.31574 0.0
C1336 C 0.13305 0.26047 0.3167 0.0
C1337 C 0.1138 0.2652 0.317 0.0
C1338 C 0.12835 0.23646 0.31578 0.0
C1339 C 0.08434 0.22202 0.31598 0.0
C1340 C 0.0703 0.25164 0.31534 0.0
C1341 C 0.07624 0.27583 0.31465 0.0
N1342 N 0.11917 0.2886 0.31728 0.0
C1343 C 0.10094 0.2942 0.31549 0.0
H1344 H 0.10531 0.31284 0.31516 0.0
C1345 C 0.17603 0.27584 0.31498 0.0
N1346 N 0.15645 0.27946 0.31683 0.0
C1347 C 0.1723 0.25235 0.31406 0.0
C1348 C 0.14838 0.23255 0.31465 0.0
H1349 H 0.19457 0.29107 0.31466 0.0
H1350 H 0.06555 0.20705 0.31559 0.0
H1351 H 0.23223 0.35837 0.35903 0.0
H1352 H 0.05116 0.23746 0.31476 0.0
H1353 H 0.0618 0.28036 0.31364 0.0
H1354 H 0.09987 0.19865 0.3152 0.0
H1355 H 0.14519 0.38138 0.36468 0.0
H1356 H 0.28746 0.43329 0.35916 0.0
H1357 H 0.27592 0.39012 0.35995 0.0
H1358 H 0.24012 0.4734 0.36209 0.0
H1359 H 0.18788 0.24951 0.31296 0.0
H1360 H 0.14555 0.21437 0.31396 0.0
H1361 H 0.27388 0.46437 0.35963 0.0
H1362 H 0.15254 0.423 0.36806 0.0
N1363 N 0.21888 0.38312 0.35741 0.0
C1364 C 0.26819 0.41939 0.35879 0.0
C1365 C 0.26174 0.39506 0.35931 0.0
C1366 C 0.24962 0.42548 0.35853 0.0
C1367 C 0.22484 0.40665 0.35802 0.0
C1368 C 0.23685 0.37706 0.3588 0.0
N1369 N 0.18268 0.39288 0.36003 0.0
C1370 C 0.20603 0.41172 0.35942 0.0
C1371 C 0.16776 0.4201 0.36557 0.0
C1372 C 0.19159 0.43983 0.36413 0.0
C1373 C 0.16367 0.39658 0.3637 0.0
C1374 C 0.21119 0.43575 0.36131 0.0
H1375 H 0.19475 0.45802 0.36564 0.0
O1376 O 0.15541 0.34636 0.37569 0.0
O1377 O 0.14929 0.32218 0.3424 0.0
O1378 O 0.14829 0.34591 0.31924 0.0
O1379 O 0.16909 0.37519 0.33801 0.0
O1380 O 0.13531 0.33883 0.35545 0.0
O1381 O 0.1882 0.34333 0.37535 0.0
O1382 O 0.18434 0.32848 0.30034 0.0
O1383 O 0.18804 0.35102 0.33222 0.0
O1384 O 0.19003 0.32675 0.35473 0.0
O1385 O 0.16433 0.29601 0.33818 0.0
O1386 O 0.20204 0.33288 0.32038 0.0
O1387 O 0.1471 0.32188 0.29818 0.0
C1388 C 0.12948 0.32083 0.34654 0.0
C1389 C 0.23575 0.45476 0.36086 0.0
C1390 C 0.25496 0.44962 0.35945 0.0
C1391 C 0.17028 0.34188 0.38344 0.0
C1392 C 0.17685 0.35259 0.39852 0.0
C1393 C 0.19089 0.37773 0.40041 0.0
C1394 C 0.16901 0.3375 0.41118 0.0
C1395 C 0.17518 0.34749 0.42573 0.0
C1396 C 0.19696 0.38777 0.41473 0.0
C1397 C 0.18918 0.37287 0.42728 0.0
C1398 C 0.15572 0.36735 0.32559 0.0
C1399 C 0.20781 0.35184 0.32841 0.0
C1400 C 0.16751 0.32736 0.29127 0.0
C1401 C 0.16569 0.31577 0.27667 0.0
C1402 C 0.16383 0.29299 0.27595 0.0
C1403 C 0.16821 0.32858 0.26337 0.0
C1404 C 0.17005 0.31924 0.24933 0.0
C1405 C 0.16552 0.28353 0.26226 0.0
C1406 C 0.16905 0.29661 0.24915 0.0
C1407 C 0.17961 0.30414 0.34973 0.0
H1408 H 0.19711 0.38957 0.39082 0.0
H1409 H 0.1584 0.31804 0.40965 0.0
H1410 H 0.20768 0.40723 0.41612 0.0
H1411 H 0.19387 0.3813 0.43822 0.0
H1412 H 0.16177 0.28282 0.286 0.0
H1413 H 0.16897 0.34587 0.26415 0.0
H1414 H 0.16467 0.26616 0.26184 0.0
H1415 H 0.17147 0.28895 0.23895 0.0
Gd1416 Gd 0.64955 0.82569 0.35725 0.0
Gd1417 Gd 0.68478 0.84247 0.3227 0.0
C1418 C 0.75205 0.83261 0.32169 0.0
C1419 C 0.78572 0.874 0.31925 0.0
C1420 C 0.74343 0.86559 0.32103 0.0
C1421 C 0.73523 0.84117 0.32229 0.0
C1422 C 0.76873 0.88227 0.31916 0.0
C1423 C 0.77737 0.8492 0.32037 0.0
C1424 C 0.74284 0.80761 0.32198 0.0
C1425 C 0.71748 0.79186 0.32299 0.0
N1426 N 0.71064 0.82566 0.32337 0.0
C1427 C 0.70154 0.80124 0.32359 0.0
H1428 H 0.682 0.78888 0.32426 0.0
C1429 C 0.73327 0.89596 0.31628 0.0
N1430 N 0.72643 0.87277 0.32031 0.0
C1431 C 0.75817 0.91334 0.31479 0.0
C1432 C 0.77605 0.90654 0.31647 0.0
H1433 H 0.71939 0.90106 0.31456 0.0
H1434 H 0.7906 0.843 0.31985 0.0
H1435 H 0.67322 0.85919 0.38796 0.0
H1436 H 0.75506 0.80027 0.32113 0.0
H1437 H 0.71018 0.77249 0.32319 0.0
H1438 H 0.80524 0.88654 0.31789 0.0
H1439 H 0.59862 0.79497 0.33631 0.0
H1440 H 0.63094 0.89308 0.39881 0.0
H1441 H 0.66601 0.88658 0.40414 0.0
H1442 H 0.56309 0.85572 0.36438 0.0
H1443 H 0.76353 0.93186 0.31213 0.0
H1444 H 0.79531 0.91992 0.31502 0.0
H1445 H 0.59261 0.88164 0.38375 0.0
H1446 H 0.55916 0.79375 0.33201 0.0
N1447 N 0.6439 0.85207 0.37302 0.0
C1448 C 0.63431 0.88141 0.39157 0.0
C1449 C 0.6541 0.87778 0.39463 0.0
C1450 C 0.61834 0.86891 0.37967 0.0
C1451 C 0.62356 0.85394 0.37059 0.0
C1452 C 0.65824 0.86243 0.38542 0.0
N1453 N 0.61198 0.82408 0.35194 0.0
C1454 C 0.60697 0.83933 0.35977 0.0
C1455 C 0.5725 0.80675 0.3398 0.0
C1456 C 0.56739 0.82281 0.34746 0.0
C1457 C 0.59492 0.80749 0.34228 0.0
C1458 C 0.58465 0.83932 0.35763 0.0
H1459 H 0.54983 0.82187 0.34576 0.0
O1460 O 0.61947 0.79337 0.36713 0.0
O1461 O 0.67939 0.82403 0.34454 0.0
O1462 O 0.65312 0.8044 0.31994 0.0
O1463 O 0.63527 0.79164 0.34335 0.0
O1464 O 0.68677 0.83622 0.36666 0.0
O1465 O 0.655 0.81139 0.378 0.0
O1466 O 0.68228 0.85823 0.30173 0.0
O1467 O 0.64973 0.83553 0.33338 0.0
O1468 O 0.67464 0.86641 0.35758 0.0
O1469 O 0.70406 0.87352 0.33914 0.0
O1470 O 0.6697 0.86776 0.32189 0.0
O1471 O 0.67986 0.82331 0.30172 0.0
C1472 C 0.69549 0.83156 0.35491 0.0
C1473 C 0.57997 0.85523 0.36602 0.0
C1474 C 0.59682 0.87003 0.37702 0.0
C1475 C 0.63183 0.79523 0.37926 0.0
C1476 C 0.61998 0.7945 0.3937 0.0
C1477 C 0.5943 0.78447 0.39449 0.0
C1478 C 0.63422 0.80372 0.40685 0.0
C1479 C 0.62304 0.8031 0.4206 0.0
C1480 C 0.58311 0.78379 0.40805 0.0
C1481 C 0.59729 0.79298 0.42101 0.0
C1482 C 0.63751 0.78765 0.32912 0.0
C1483 C 0.64968 0.8545 0.32916 0.0
C1484 C 0.68055 0.8405 0.29363 0.0
C1485 C 0.69581 0.84709 0.28016 0.0
C1486 C 0.72156 0.85835 0.28109 0.0
C1487 C 0.68429 0.84186 0.26611 0.0
C1488 C 0.69836 0.84793 0.25297 0.0
C1489 C 0.73566 0.86458 0.26813 0.0
C1490 C 0.72419 0.85946 0.25413 0.0
C1491 C 0.69586 0.88031 0.35076 0.0
H1492 H 0.5828 0.77711 0.38463 0.0
H1493 H 0.65406 0.81165 0.40635 0.0
H1494 H 0.56331 0.77598 0.40854 0.0
H1495 H 0.588 0.7918 0.43141 0.0
H1496 H 0.73077 0.86227 0.29177 0.0
H1497 H 0.66437 0.83321 0.26541 0.0
H1498 H 0.75554 0.87327 0.26893 0.0
H1499 H 0.73549 0.86412 0.24422 0.0
Gd1500 Gd 0.16003 0.84055 0.32378 0.0
Gd1501 Gd 0.18221 0.82858 0.35895 0.0
C1502 C 0.25251 0.87993 0.38483 0.0
C1503 C 0.2824 0.87058 0.37419 0.0
C1504 C 0.23979 0.84924 0.36553 0.0
C1505 C 0.23426 0.86267 0.37521 0.0
C1506 C 0.26378 0.85249 0.36526 0.0
C1507 C 0.27679 0.88434 0.38394 0.0
C1508 C 0.24557 0.89148 0.39548 0.0
C1509 C 0.22077 0.88475 0.39684 0.0
N1510 N 0.21054 0.8576 0.37595 0.0
C1511 C 0.20333 0.86724 0.38719 0.0
H1512 H 0.18415 0.8618 0.38856 0.0
C1513 C 0.22523 0.81592 0.349 0.0
N1514 N 0.22131 0.83182 0.35716 0.0
C1515 C 0.24863 0.81828 0.34846 0.0
C1516 C 0.26808 0.83683 0.35648 0.0
H1517 H 0.21049 0.8015 0.34272 0.0
H1518 H 0.29113 0.89771 0.39112 0.0
H1519 H 0.10085 0.79712 0.32668 0.0
H1520 H 0.25904 0.90487 0.40307 0.0
H1521 H 0.21504 0.8929 0.4054 0.0
H1522 H 0.30101 0.87356 0.37396 0.0
H1523 H 0.19743 0.89686 0.31022 0.0
H1524 H 0.0562 0.83038 0.32721 0.0
H1525 H 0.05999 0.79361 0.32818 0.0
H1526 H 0.11407 0.91405 0.31901 0.0
H1527 H 0.25159 0.8057 0.3419 0.0
H1528 H 0.28613 0.83848 0.35621 0.0
H1529 H 0.07666 0.87545 0.32462 0.0
H1530 H 0.19666 0.93471 0.30656 0.0
N1531 N 0.12029 0.83559 0.32534 0.0
C1532 C 0.07425 0.83205 0.32676 0.0
C1533 C 0.0763 0.81126 0.32721 0.0
C1534 C 0.09543 0.85468 0.32507 0.0
C1535 C 0.11847 0.85584 0.32413 0.0
C1536 C 0.09957 0.81335 0.32636 0.0
N1537 N 0.16089 0.87743 0.31884 0.0
C1538 C 0.13943 0.87747 0.32085 0.0
C1539 C 0.1805 0.91881 0.31073 0.0
C1540 C 0.15914 0.91963 0.31388 0.0
C1541 C 0.18089 0.89731 0.31291 0.0
C1542 C 0.13804 0.89864 0.3186 0.0
H1543 H 0.15884 0.93627 0.31207 0.0
O1544 O 0.17587 0.83607 0.30314 0.0
O1545 O 0.18877 0.83443 0.33454 0.0
O1546 O 0.19973 0.86913 0.35681 0.0
O1547 O 0.17548 0.874 0.33852 0.0
O1548 O 0.20075 0.86331 0.32001 0.0
O1549 O 0.13766 0.82532 0.30369 0.0
O1550 O 0.18257 0.79877 0.37049 0.0
O1551 O 0.14941 0.82519 0.34651 0.0
O1552 O 0.14091 0.80036 0.32859 0.0
O1553 O 0.17053 0.79767 0.34247 0.0
O1554 O 0.15635 0.8404 0.36772 0.0
O1555 O 0.15638 0.8094 0.37692 0.0
C1556 C 0.2078 0.85188 0.32873 0.0
C1557 C 0.11544 0.89792 0.32052 0.0
C1558 C 0.09414 0.87594 0.3237 0.0
C1559 C 0.15596 0.82878 0.29531 0.0
C1560 C 0.15884 0.84166 0.28112 0.0
C1561 C 0.15648 0.86237 0.28085 0.0
C1562 C 0.16485 0.83386 0.26786 0.0
C1563 C 0.16954 0.84728 0.2545 0.0
C1564 C 0.16176 0.87612 0.26796 0.0
C1565 C 0.16868 0.86898 0.255 0.0
C1566 C 0.19218 0.8822 0.34939 0.0
C1567 C 0.14178 0.83414 0.35637 0.0
C1568 C 0.16642 0.79656 0.38035 0.0
C1569 C 0.1728 0.79604 0.39629 0.0
C1570 C 0.18571 0.78408 0.40012 0.0
C1571 C 0.16588 0.80678 0.40778 0.0
C1572 C 0.17211 0.80573 0.42285 0.0
C1573 C 0.19184 0.78295 0.41494 0.0
C1574 C 0.18511 0.79361 0.42621 0.0
C1575 C 0.15138 0.78801 0.33328 0.0
H1576 H 0.15068 0.86804 0.29062 0.0
H1577 H 0.16551 0.81723 0.26805 0.0
H1578 H 0.16058 0.89248 0.26802 0.0
H1579 H 0.17337 0.88066 0.24539 0.0
H1580 H 0.19103 0.77547 0.39161 0.0
H1581 H 0.15594 0.81611 0.40502 0.0
H1582 H 0.20174 0.7736 0.41774 0.0
H1583 H 0.18977 0.79197 0.43764 0.0
Gd1584 Gd 0.84292 0.68517 0.68809 0.0
Gd1585 Gd 0.82493 0.64907 0.65291 0.0
C1586 C 0.74867 0.58117 0.65108 0.0
C1587 C 0.75893 0.54918 0.64953 0.0
C1588 C 0.79136 0.59138 0.65009 0.0
C1589 C 0.77402 0.59853 0.65128 0.0
C1590 C 0.78406 0.56667 0.64869 0.0
C1591 C 0.74125 0.55642 0.65073 0.0
C1592 C 0.73162 0.58921 0.65051 0.0
C1593 C 0.74004 0.61396 0.64949 0.0
N1594 N 0.78192 0.62258 0.65136 0.0
C1595 C 0.76539 0.63048 0.6498 0.0
H1596 H 0.77151 0.64953 0.64921 0.0
C1597 C 0.83281 0.60292 0.6452 0.0
N1598 N 0.81535 0.60878 0.64906 0.0
C1599 C 0.82657 0.57865 0.64384 0.0
C1600 C 0.80214 0.56041 0.64587 0.0
H1601 H 0.85174 0.61704 0.64374 0.0
H1602 H 0.72187 0.5428 0.6508 0.0
H1603 H 0.898 0.68799 0.69047 0.0
H1604 H 0.71199 0.57648 0.65031 0.0
H1605 H 0.72702 0.62037 0.64866 0.0
H1606 H 0.75295 0.53007 0.6487 0.0
H1607 H 0.81309 0.71392 0.69822 0.0
H1608 H 0.95455 0.76244 0.69023 0.0
H1609 H 0.942 0.719 0.69076 0.0
H1610 H 0.90928 0.80445 0.69466 0.0
H1611 H 0.84061 0.57405 0.64127 0.0
H1612 H 0.79731 0.54163 0.64473 0.0
H1613 H 0.94211 0.79432 0.69136 0.0
H1614 H 0.8218 0.75595 0.7019 0.0
N1615 N 0.88549 0.71347 0.68947 0.0
C1616 C 0.93515 0.74888 0.69014 0.0
C1617 C 0.92813 0.72439 0.69051 0.0
C1618 C 0.91703 0.75556 0.69037 0.0
C1619 C 0.89205 0.73717 0.69022 0.0
C1620 C 0.90308 0.70683 0.69036 0.0
N1621 N 0.85016 0.72445 0.69297 0.0
C1622 C 0.87373 0.74286 0.69209 0.0
C1623 C 0.83658 0.75254 0.69908 0.0
C1624 C 0.86059 0.77183 0.69736 0.0
C1625 C 0.83172 0.72879 0.69704 0.0
C1626 C 0.87963 0.7671 0.69411 0.0
H1627 H 0.86433 0.79021 0.69899 0.0
O1628 O 0.82244 0.67821 0.7088 0.0
O1629 O 0.81468 0.65265 0.67601 0.0
O1630 O 0.81454 0.67849 0.65247 0.0
O1631 O 0.83595 0.70732 0.67129 0.0
O1632 O 0.80185 0.67089 0.68869 0.0
O1633 O 0.85563 0.67584 0.70827 0.0
O1634 O 0.84468 0.6529 0.63226 0.0
O1635 O 0.85329 0.68173 0.66485 0.0
O1636 O 0.85505 0.65702 0.688 0.0
O1637 O 0.83193 0.62737 0.66998 0.0
O1638 O 0.86591 0.66313 0.65233 0.0
O1639 O 0.81367 0.65898 0.6324 0.0
C1640 C 0.7953 0.65209 0.68037 0.0
C1641 C 0.90436 0.78567 0.69333 0.0
C1642 C 0.92305 0.7799 0.69144 0.0
C1643 C 0.83777 0.67428 0.71648 0.0
C1644 C 0.8445 0.68525 0.73149 0.0
C1645 C 0.85842 0.71042 0.73325 0.0
C1646 C 0.83692 0.67032 0.7442 0.0
C1647 C 0.84319 0.68048 0.75871 0.0
C1648 C 0.8646 0.72064 0.74752 0.0
C1649 C 0.85706 0.70587 0.76014 0.0
C1650 C 0.82257 0.69997 0.65887 0.0
C1651 C 0.87264 0.68217 0.66046 0.0
C1652 C 0.83028 0.6578 0.62431 0.0
C1653 C 0.8219 0.64524 0.60985 0.0
C1654 C 0.8075 0.61996 0.60913 0.0
C1655 C 0.82827 0.65877 0.5966 0.0
C1656 C 0.82039 0.64714 0.5826 0.0
C1657 C 0.79972 0.60828 0.59533 0.0
C1658 C 0.80612 0.6217 0.58216 0.0
C1659 C 0.8463 0.6352 0.68197 0.0
H1660 H 0.86445 0.72214 0.72361 0.0
H1661 H 0.82643 0.65083 0.74276 0.0
H1662 H 0.87524 0.74011 0.74883 0.0
H1663 H 0.86183 0.71442 0.77105 0.0
H1664 H 0.80229 0.60928 0.61921 0.0
H1665 H 0.83906 0.67836 0.59725 0.0
H1666 H 0.78872 0.58874 0.59483 0.0
H1667 H 0.80009 0.61209 0.57161 0.0
Gd1668 Gd 0.31053 0.15406 0.6854 0.0
Gd1669 Gd 0.35149 0.17392 0.65271 0.0
C1670 C 0.42351 0.1724 0.65144 0.0
C1671 C 0.45419 0.21523 0.65207 0.0
C1672 C 0.41052 0.20229 0.65227 0.0
C1673 C 0.40468 0.17834 0.65218 0.0
C1674 C 0.43532 0.22103 0.65198 0.0
C1675 C 0.4483 0.19095 0.65171 0.0
C1676 C 0.41687 0.14805 0.64988 0.0
C1677 C 0.39201 0.13038 0.64896 0.0
N1678 N 0.38056 0.16088 0.6518 0.0
C1679 C 0.374 0.13717 0.64981 0.0
H1680 H 0.35488 0.12331 0.64905 0.0
C1681 C 0.39661 0.23047 0.65004 0.0
N1682 N 0.39183 0.20722 0.65176 0.0
C1683 C 0.42092 0.24971 0.64997 0.0
C1684 C 0.44037 0.245 0.65111 0.0
H1685 H 0.38164 0.23421 0.64922 0.0
H1686 H 0.46302 0.18672 0.65131 0.0
H1687 H 0.30763 0.20499 0.68926 0.0
H1688 H 0.43077 0.14277 0.64896 0.0
H1689 H 0.38669 0.11152 0.64758 0.0
H1690 H 0.47337 0.22937 0.65196 0.0
H1691 H 0.27976 0.094 0.68982 0.0
H1692 H 0.23203 0.18649 0.68703 0.0
H1693 H 0.27613 0.2173 0.6896 0.0
H1694 H 0.18871 0.0998 0.68466 0.0
H1695 H 0.42463 0.26815 0.64905 0.0
H1696 H 0.45918 0.25992 0.65095 0.0
H1697 H 0.19951 0.1426 0.68464 0.0
H1698 H 0.23658 0.06033 0.68977 0.0
N1699 N 0.28176 0.16754 0.68615 0.0
C1700 C 0.2458 0.18097 0.68676 0.0
C1701 C 0.27066 0.19839 0.68833 0.0
C1702 C 0.23894 0.15653 0.68546 0.0
C1703 C 0.2576 0.1503 0.68539 0.0
C1704 C 0.28849 0.1913 0.68814 0.0
N1705 N 0.27 0.12116 0.68656 0.0
C1706 C 0.25151 0.1263 0.68558 0.0
C1707 C 0.24052 0.0788 0.68855 0.0
C1708 C 0.22128 0.08373 0.68683 0.0
C1709 C 0.26492 0.09788 0.68863 0.0
C1710 C 0.22662 0.10774 0.68559 0.0
H1711 H 0.2024 0.06893 0.68682 0.0
O1712 O 0.3118 0.13785 0.70639 0.0
O1713 O 0.34476 0.15861 0.67539 0.0
O1714 O 0.32255 0.13363 0.65146 0.0
O1715 O 0.28993 0.12914 0.66619 0.0
O1716 O 0.325 0.1278 0.68754 0.0
O1717 O 0.31779 0.17443 0.70608 0.0
O1718 O 0.35012 0.19025 0.63182 0.0
O1719 O 0.31708 0.16919 0.66265 0.0
O1720 O 0.33976 0.1944 0.68652 0.0
O1721 O 0.37226 0.19793 0.67211 0.0
O1722 O 0.33714 0.20025 0.65073 0.0
O1723 O 0.34494 0.15394 0.63194 0.0
C1724 C 0.34489 0.14005 0.67997 0.0
C1725 C 0.20795 0.1138 0.68481 0.0
C1726 C 0.2141 0.13816 0.68479 0.0
C1727 C 0.31539 0.15655 0.7143 0.0
C1728 C 0.3004 0.15143 0.72778 0.0
C1729 C 0.27468 0.14057 0.72688 0.0
C1730 C 0.3121 0.15732 0.74178 0.0
C1731 C 0.29825 0.15232 0.75495 0.0
C1732 C 0.26079 0.13553 0.7399 0.0
C1733 C 0.27245 0.1413 0.75387 0.0
C1734 C 0.299 0.12162 0.65545 0.0
C1735 C 0.31713 0.18789 0.65817 0.0
C1736 C 0.34726 0.17188 0.62382 0.0
C1737 C 0.36287 0.17768 0.61058 0.0
C1738 C 0.38863 0.18971 0.61182 0.0
C1739 C 0.35173 0.1714 0.59644 0.0
C1740 C 0.36617 0.17725 0.5835 0.0
C1741 C 0.40311 0.19554 0.59902 0.0
C1742 C 0.392 0.18944 0.58491 0.0
C1743 C 0.36339 0.20594 0.68265 0.0
H1744 H 0.26538 0.13596 0.71618 0.0
H1745 H 0.33198 0.16551 0.74241 0.0
H1746 H 0.24094 0.12716 0.73916 0.0
H1747 H 0.26131 0.13744 0.7638 0.0
H1748 H 0.39753 0.19468 0.62262 0.0
H1749 H 0.3318 0.16232 0.59552 0.0
H1750 H 0.42299 0.20484 0.60004 0.0
H1751 H 0.40355 0.194 0.57512 0.0
Gd1752 Gd 0.82106 0.17302 0.65265 0.0
Gd1753 Gd 0.8374 0.15168 0.68659 0.0
C1754 C 0.91093 0.15328 0.6894 0.0
C1755 C 0.89804 0.11047 0.68832 0.0
C1756 C 0.86753 0.12339 0.68792 0.0
C1757 C 0.88606 0.14734 0.68841 0.0
C1758 C 0.87325 0.10465 0.68813 0.0
C1759 C 0.91685 0.13475 0.68901 0.0
C1760 C 0.92903 0.17758 0.69129 0.0
C1761 C 0.92208 0.19517 0.69242 0.0
N1762 N 0.87968 0.16477 0.68882 0.0
C1763 C 0.89716 0.18839 0.69131 0.0
H1764 H 0.89212 0.20222 0.69213 0.0
C1765 C 0.82485 0.09512 0.68916 0.0
N1766 N 0.84381 0.11843 0.68794 0.0
C1767 C 0.82957 0.07588 0.68922 0.0
C1768 C 0.85387 0.08065 0.68852 0.0
H1769 H 0.80603 0.0914 0.68954 0.0
H1770 H 0.93588 0.13898 0.68957 0.0
H1771 H 0.76634 0.12009 0.64625 0.0
H1772 H 0.94831 0.18287 0.6923 0.0
H1773 H 0.9359 0.21398 0.69411 0.0
H1774 H 0.90283 0.09633 0.68835 0.0
H1775 H 0.84735 0.23228 0.64491 0.0
H1776 H 0.70794 0.13518 0.65198 0.0
H1777 H 0.72236 0.10621 0.64703 0.0
H1778 H 0.74929 0.22148 0.65524 0.0
H1779 H 0.81448 0.05741 0.68976 0.0
H1780 H 0.85749 0.06572 0.68862 0.0
H1781 H 0.7182 0.1782 0.65548 0.0
H1782 H 0.83615 0.26439 0.64561 0.0
N1783 N 0.77779 0.15699 0.65147 0.0
C1784 C 0.72752 0.14153 0.65179 0.0
C1785 C 0.7356 0.12515 0.64892 0.0
C1786 C 0.74482 0.16608 0.65354 0.0
C1787 C 0.77014 0.17342 0.65307 0.0
C1788 C 0.76087 0.13323 0.64861 0.0
N1789 N 0.81151 0.20425 0.65085 0.0
C1790 C 0.78758 0.19782 0.65282 0.0
C1791 C 0.82233 0.24578 0.64777 0.0
C1792 C 0.79814 0.23975 0.651 0.0
C1793 C 0.8286 0.22761 0.64735 0.0
C1794 C 0.78026 0.21545 0.65312 0.0
H1795 H 0.79326 0.25382 0.65119 0.0
O1796 O 0.83233 0.15936 0.63368 0.0
O1797 O 0.84954 0.16829 0.66427 0.0
O1798 O 0.84922 0.19133 0.68968 0.0
O1799 O 0.83411 0.2033 0.66945 0.0
O1800 O 0.862 0.20025 0.65307 0.0
O1801 O 0.81955 0.1845 0.63 0.0
O1802 O 0.81739 0.13349 0.70663 0.0
O1803 O 0.80967 0.15874 0.67561 0.0
O1804 O 0.80675 0.13241 0.65196 0.0
O1805 O 0.83437 0.12792 0.66716 0.0
O1806 O 0.79612 0.12633 0.68654 0.0
O1807 O 0.84869 0.16998 0.70806 0.0
C1808 C 0.86885 0.18747 0.66069 0.0
C1809 C 0.75524 0.2082 0.65477 0.0
C1810 C 0.73754 0.18355 0.65493 0.0
C1811 C 0.82948 0.17288 0.62402 0.0
C1812 C 0.85017 0.1866 0.61373 0.0
C1813 C 0.86981 0.20948 0.61775 0.0
C1814 C 0.85027 0.17676 0.59967 0.0
C1815 C 0.86986 0.18967 0.58968 0.0
C1816 C 0.88959 0.22202 0.6081 0.0
C1817 C 0.88969 0.21222 0.59418 0.0
C1818 C 0.84503 0.20711 0.68261 0.0
C1819 C 0.79002 0.14011 0.67944 0.0
C1820 C 0.83179 0.15152 0.71539 0.0
C1821 C 0.83962 0.14542 0.72941 0.0
C1822 C 0.85393 0.13416 0.72932 0.0
C1823 C 0.83264 0.15101 0.74308 0.0
C1824 C 0.8398 0.14533 0.75673 0.0
C1825 C 0.86111 0.12846 0.74277 0.0
C1826 C 0.85412 0.13396 0.75638 0.0
C1827 C 0.818 0.12043 0.65619 0.0
H1828 H 0.86988 0.21786 0.62824 0.0
H1829 H 0.83483 0.15935 0.59641 0.0
H1830 H 0.9048 0.23951 0.61137 0.0
H1831 H 0.90529 0.22235 0.5869 0.0
H1832 H 0.85953 0.12981 0.7189 0.0
H1833 H 0.8214 0.15955 0.74308 0.0
H1834 H 0.87222 0.11982 0.74266 0.0
H1835 H 0.86026 0.12965 0.76664 0.0
C1836 C 0.33093 0.87309 0.04239 0.0
C1837 C 0.33275 0.87261 0.05803 0.0
C1838 C 0.35118 0.88921 0.03372 0.0
C1839 C 0.37378 0.90547 0.04081 0.0
C1840 C 0.37591 0.90474 0.05653 0.0
C1841 C 0.3555 0.88824 0.0649 0.0
C1842 C 0.34833 0.88906 0.01698 0.0
C1843 C 0.39963 0.92184 0.06457 0.0
C1844 C 0.43538 0.94037 0.02099 0.0
C1845 C 0.4376 0.96325 0.01959 0.0
C1846 C 0.41395 0.92082 0.02694 0.0
C1847 C 0.3947 0.92453 0.03208 0.0
C1848 C 0.39659 0.94744 0.03019 0.0
C1849 C 0.418 0.96648 0.02395 0.0
C1850 C 0.41248 0.89658 0.02837 0.0
C1851 C 0.37661 0.95226 0.03553 0.0
H1852 H 0.31347 0.86127 0.03692 0.0
H1853 H 0.35739 0.88767 0.0769 0.0
H1854 H 0.3526 0.90723 0.01308 0.0
H1855 H 0.36165 0.88482 0.01159 0.0
H1856 H 0.32945 0.87557 0.01316 0.0
H1857 H 0.39851 0.91853 0.07679 0.0
H1858 H 0.41505 0.91997 0.06004 0.0
H1859 H 0.40416 0.94081 0.06271 0.0
H1860 H 0.45071 0.93793 0.01791 0.0
H1861 H 0.41982 0.98425 0.02299 0.0
H1862 H 0.39426 0.88186 0.02445 0.0
H1863 H 0.4145 0.89314 0.04028 0.0
H1864 H 0.42713 0.89574 0.02188 0.0
H1865 H 0.35846 0.9385 0.03092 0.0
H1866 H 0.38011 0.97051 0.03229 0.0
H1867 H 0.37537 0.95088 0.04788 0.0
C1868 C 0.12451 0.47512 0.0608 0.0
C1869 C 0.13925 0.46881 0.05225 0.0
C1870 C 0.10476 0.47658 0.05432 0.0
C1871 C 0.09972 0.47196 0.03884 0.0
C1872 C 0.11467 0.46587 0.03014 0.0
C1873 C 0.13405 0.46423 0.03692 0.0
C1874 C 0.08908 0.48275 0.06411 0.0
C1875 C 0.11042 0.4613 0.01359 0.0
C1876 C 0.0345 0.45232 0.02536 0.0
C1877 C 0.03677 0.47417 0.02045 0.0
C1878 C 0.05486 0.4513 0.03115 0.0
C1879 C 0.07825 0.47265 0.03192 0.0
C1880 C 0.08078 0.49468 0.02659 0.0
C1881 C 0.05992 0.49527 0.02125 0.0
C1882 C 0.05118 0.42747 0.03683 0.0
C1883 C 0.10542 0.51774 0.02675 0.0
H1884 H 0.12845 0.47908 0.07259 0.0
H1885 H 0.14492 0.45894 0.03017 0.0
H1886 H 0.08961 0.49938 0.05999 0.0
H1887 H 0.06959 0.46793 0.06357 0.0
H1888 H 0.09525 0.48566 0.07596 0.0
H1889 H 0.12205 0.4545 0.00863 0.0
H1890 H 0.09079 0.44803 0.0112 0.0
H1891 H 0.11486 0.4785 0.00804 0.0
H1892 H 0.01657 0.43602 0.02498 0.0
H1893 H 0.06171 0.51236 0.0179 0.0
H1894 H 0.05598 0.42913 0.04888 0.0
H1895 H 0.06365 0.42262 0.03091 0.0
H1896 H 0.03191 0.41249 0.03532 0.0
H1897 H 0.11152 0.52338 0.03845 0.0
H1898 H 0.10473 0.53276 0.02095 0.0
H1899 H 0.11952 0.5147 0.02129 0.0
C1900 C 0.56698 0.67412 0.05341 0.0
C1901 C 0.54821 0.67989 0.05455 0.0
C1902 C 0.5623 0.65204 0.04711 0.0
C1903 C 0.53818 0.63525 0.04211 0.0
C1904 C 0.51908 0.64086 0.04346 0.0
C1905 C 0.52439 0.66324 0.04955 0.0
C1906 C 0.5832 0.64682 0.04561 0.0
C1907 C 0.49305 0.62323 0.03846 0.0
C1908 C 0.52849 0.58779 0.01311 0.0
C1909 C 0.52134 0.56738 0.02198 0.0
C1910 C 0.53443 0.61013 0.01954 0.0
C1911 C 0.53294 0.61193 0.03522 0.0
C1912 C 0.52597 0.59136 0.04426 0.0
C1913 C 0.52047 0.56932 0.03751 0.0
C1914 C 0.54223 0.63176 0.00956 0.0
C1915 C 0.52381 0.59249 0.06099 0.0
H1916 H 0.58544 0.68712 0.05719 0.0
H1917 H 0.50983 0.66764 0.05059 0.0
H1918 H 0.57876 0.62998 0.05165 0.0
H1919 H 0.58572 0.64385 0.03369 0.0
H1920 H 0.60088 0.6618 0.05006 0.0
H1921 H 0.48018 0.63007 0.04072 0.0
H1922 H 0.49269 0.61962 0.02631 0.0
H1923 H 0.48624 0.6057 0.04426 0.0
H1924 H 0.5299 0.58641 1.00117 0.0
H1925 H 0.51486 0.55343 0.04435 0.0
H1926 H 0.56063 0.64667 0.01307 0.0
H1927 H 0.52909 0.63855 0.01061 0.0
H1928 H 0.54307 0.62742 0.99762 0.0
H1929 H 0.54161 0.60653 0.06585 0.0
H1930 H 0.51843 0.57491 0.06642 0.0
H1931 H 0.50985 0.59776 0.06372 0.0
C1932 C 0.85128 0.33613 0.95717 0.0
C1933 C 0.85735 0.31918 0.95164 0.0
C1934 C 0.86944 0.35831 0.96328 0.0
C1935 C 0.89421 0.36351 0.9641 0.0
C1936 C 0.90044 0.34646 0.95851 0.0
C1937 C 0.88197 0.3246 0.95224 0.0
C1938 C 0.86211 0.37615 0.96891 0.0
C1939 C 0.92653 0.35112 0.95941 0.0
C1940 C 0.94527 0.42903 0.96943 0.0
C1941 C 0.94886 0.43023 0.98492 0.0
C1942 C 0.92755 0.40743 0.96247 0.0
C1943 C 0.91345 0.38649 0.97121 0.0
C1944 C 0.91755 0.38755 0.98683 0.0
C1945 C 0.93516 0.40944 0.99348 0.0
C1946 C 0.92352 0.40716 0.94582 0.0
C1947 C 0.90328 0.3656 0.99654 0.0
H1948 H 0.83232 0.33211 0.95658 0.0
H1949 H 0.88668 0.31144 0.9481 0.0
H1950 H 0.86592 0.37924 0.98107 0.0
H1951 H 0.87325 0.39386 0.96334 0.0
H1952 H 0.84228 0.36979 0.96693 0.0
H1953 H 0.92839 0.33616 0.9544 0.0
H1954 H 0.9392 0.36818 0.95358 0.0
H1955 H 0.9326 0.35342 0.97125 0.0
H1956 H 0.95584 0.44518 0.96281 0.0
H1957 H 0.93848 0.41018 0.00537 0.0
H1958 H 0.90425 0.40257 0.94349 0.0
H1959 H 0.92626 0.39301 0.94043 0.0
H1960 H 0.93619 0.42487 0.94061 0.0
H1961 H 0.88331 0.3594 0.99584 0.0
H1962 H 0.90912 0.36931 0.00844 0.0
H1963 H 0.90578 0.3505 0.99249 0.0
C1964 C 0.66818 0.52724 0.97268 0.0
C1965 C 0.67507 0.53769 0.95837 0.0
C1966 C 0.64668 0.52392 0.97976 0.0
C1967 C 0.6306 0.52986 0.97216 0.0
C1968 C 0.6366 0.53926 0.95752 0.0
C1969 C 0.65893 0.54375 0.95105 0.0
C1970 C 0.64194 0.5151 0.99568 0.0
C1971 C 0.61943 0.54473 0.94863 0.0
C1972 C 0.56383 0.50264 0.98488 0.0
C1973 C 0.56362 0.52314 0.99037 0.0
C1974 C 0.58556 0.50439 0.97916 0.0
C1975 C 0.60785 0.52698 0.97954 0.0
C1976 C 0.60792 0.54733 0.98601 0.0
C1977 C 0.58563 0.54538 0.99077 0.0
C1978 C 0.58432 0.48239 0.97194 0.0
C1979 C 0.63145 0.5713 0.98767 0.0
H1980 H 0.67949 0.52156 0.97857 0.0
H1981 H 0.6636 0.55233 0.94025 0.0
H1982 H 0.64721 0.53083 0.00319 0.0
H1983 H 0.62219 0.50199 0.99756 0.0
H1984 H 0.65292 0.50651 0.99892 0.0
H1985 H 0.625 0.54871 0.93675 0.0
H1986 H 0.60031 0.52918 0.94905 0.0
H1987 H 0.61923 0.56061 0.95353 0.0
H1988 H 0.54669 0.48556 0.98416 0.0
H1989 H 0.58541 0.56126 0.99492 0.0
H1990 H 0.59795 0.47838 0.97716 0.0
H1991 H 0.58912 0.48606 0.95995 0.0
H1992 H 0.56573 0.46608 0.97283 0.0
H1993 H 0.64627 0.56858 0.99241 0.0
H1994 H 0.62904 0.58405 0.99499 0.0
H1995 H 0.63765 0.57978 0.97656 0.0
C1996 C 0.4423 0.1198 0.96059 0.0
C1997 C 0.45004 0.12594 0.94578 0.0
C1998 C 0.44866 0.10506 0.96884 0.0
C1999 C 0.4633 0.09648 0.96216 0.0
C2000 C 0.47148 0.10292 0.94728 0.0
C2001 C 0.46461 0.11748 0.93923 0.0
C2002 C 0.43928 0.09825 0.9846 0.0
C2003 C 0.48732 0.09428 0.93983 0.0
C2004 C 0.49553 0.07249 0.987 0.0
C2005 C 0.47997 0.0474 0.98545 0.0
C2006 C 0.4903 0.08876 0.97956 0.0
C2007 C 0.46895 0.07969 0.97045 0.0
C2008 C 0.453 0.05441 0.96904 0.0
C2009 C 0.45879 0.03861 0.97647 0.0
C2010 C 0.50785 0.11561 0.98124 0.0
C2011 C 0.42987 0.04403 0.95957 0.0
H2012 H 0.43087 0.12618 0.96563 0.0
H2013 H 0.47087 0.12248 0.92784 0.0
H2014 H 0.42708 0.07835 0.98534 0.0
H2015 H 0.4549 0.10336 0.99244 0.0
H2016 H 0.4288 0.10712 0.98833 0.0
H2017 H 0.49309 0.10183 0.92845 0.0
H2018 H 0.50405 0.09949 0.94668 0.0
H2019 H 0.47704 0.07424 0.93898 0.0
H2020 H 0.51209 0.07947 0.99378 0.0
H2021 H 0.44668 0.01931 0.97514 0.0
H2022 H 0.49785 0.12476 0.98527 0.0
H2023 H 0.51576 0.12344 0.9702 0.0
H2024 H 0.5232 0.11971 0.98913 0.0
H2025 H 0.41807 0.05144 0.96329 0.0
H2026 H 0.41895 0.02396 0.9601 0.0
H2027 H 0.43477 0.04937 0.94776 0.0
C2028 C 0.64232 0.1069 0.94225 0.0
C2029 C 0.66512 0.12196 0.94925 0.0
C2030 C 0.62173 0.09025 0.95044 0.0
C2031 C 0.62378 0.08869 0.9661 0.0
C2032 C 0.64646 0.10432 0.97334 0.0
C2033 C 0.66684 0.12072 0.96484 0.0
C2034 C 0.59795 0.07379 0.94225 0.0
C2035 C 0.64926 0.10365 0.99004 0.0
C2036 C 0.56262 0.05467 0.98655 0.0
C2037 C 0.55977 0.03149 0.98771 0.0
C2038 C 0.584 0.07388 0.98032 0.0
C2039 C 0.60257 0.06959 0.97465 0.0
C2040 C 0.59998 0.04632 0.97614 0.0
C2041 C 0.57865 0.0276 0.98268 0.0
C2042 C 0.58619 0.09848 0.97926 0.0
C2043 C 0.61926 0.0409 0.97024 0.0
H2044 H 0.64056 0.10801 0.93028 0.0
H2045 H 0.68432 0.13212 0.97041 0.0
H2046 H 0.59348 0.05473 0.94347 0.0
H2047 H 0.58252 0.07524 0.94719 0.0
H2048 H 0.59898 0.07799 0.93016 0.0
H2049 H 0.6687 0.11507 0.99378 0.0
H2050 H 0.63799 0.11034 0.99558 0.0
H2051 H 0.64241 0.08483 0.99386 0.0
H2052 H 0.54785 0.05766 0.99009 0.0
H2053 H 0.57634 0.00962 0.98341 0.0
H2054 H 0.58494 0.10268 0.96739 0.0
H2055 H 0.60438 0.11265 0.98359 0.0
H2056 H 0.5715 0.09946 0.9856 0.0
H2057 H 0.62028 0.04278 0.95791 0.0
H2058 H 0.6152 0.02233 0.97307 0.0
H2059 H 0.63767 0.05409 0.97484 0.0
C2060 C 0.89454 0.542 0.94359 0.0
C2061 C 0.87165 0.53677 0.94963 0.0
C2062 C 0.91114 0.5373 0.95148 0.0
C2063 C 0.90583 0.52867 0.9663 0.0
C2064 C 0.88319 0.52379 0.9727 0.0
C2065 C 0.86622 0.52727 0.96422 0.0
C2066 C 0.93455 0.54176 0.94388 0.0
C2067 C 0.87721 0.51589 0.98873 0.0
C2068 C 0.94269 0.50118 0.98266 0.0
C2069 C 0.96358 0.5218 0.98826 0.0
C2070 C 0.92339 0.50294 0.97579 0.0
C2071 C 0.92453 0.52571 0.97512 0.0
C2072 C 0.9449 0.54623 0.98171 0.0
C2073 C 0.9646 0.54421 0.98763 0.0
C2074 C 0.90257 0.48074 0.96847 0.0
C2075 C 0.94619 0.57049 0.98222 0.0
H2076 H 0.9 0.55009 0.93269 0.0
H2077 H 0.84872 0.52248 0.96923 0.0
H2078 H 0.95063 0.55775 0.94898 0.0
H2079 H 0.9373 0.52601 0.9454 0.0
H2080 H 0.93434 0.5451 0.93173 0.0
H2081 H 0.85735 0.50843 0.99121 0.0
H2082 H 0.88238 0.50213 0.99159 0.0
H2083 H 0.88804 0.53181 0.9961 0.0
H2084 H 0.94211 0.48391 0.98284 0.0
H2085 H 0.98082 0.56018 0.9919 0.0
H2086 H 0.90258 0.48378 0.95627 0.0
H2087 H 0.88458 0.47733 0.97282 0.0
H2088 H 0.90408 0.46431 0.9703 0.0
H2089 H 0.96094 0.58339 0.98989 0.0
H2090 H 0.9283 0.56833 0.98592 0.0
H2091 H 0.94992 0.57849 0.9709 0.0
C2092 C 0.46673 0.33977 0.94547 0.0
C2093 C 0.45326 0.31841 0.95362 0.0
C2094 C 0.47313 0.36235 0.95176 0.0
C2095 C 0.46561 0.36349 0.96649 0.0
C2096 C 0.45177 0.34195 0.97471 0.0
C2097 C 0.44585 0.31965 0.96819 0.0
C2098 C 0.48812 0.38498 0.94272 0.0
C2099 C 0.44319 0.34247 0.99037 0.0
C2100 C 0.5002 0.4227 0.98797 0.0
C2101 C 0.48462 0.4324 0.9861 0.0
C2102 C 0.49425 0.40027 0.98165 0.0
C2103 C 0.47218 0.38725 0.97328 0.0
C2104 C 0.45638 0.39695 0.97134 0.0
C2105 C 0.46285 0.41947 0.97773 0.0
C2106 C 0.51163 0.39058 0.98389 0.0
C2107 C 0.43259 0.38348 0.96258 0.0
H2108 H 0.47271 0.33885 0.93426 0.0
H2109 H 0.43522 0.30311 0.97445 0.0
H2110 H 0.47789 0.3949 0.94141 0.0
H2111 H 0.5056 0.39724 0.94867 0.0
H2112 H 0.49258 0.38096 0.93145 0.0
H2113 H 0.43245 0.32407 0.99521 0.0
H2114 H 0.45929 0.35358 0.99773 0.0
H2115 H 0.43154 0.35104 0.99037 0.0
H2116 H 0.51724 0.43275 0.99425 0.0
H2117 H 0.45069 0.42682 0.97626 0.0
H2118 H 0.51803 0.38784 0.9729 0.0
H2119 H 0.50189 0.37271 0.98944 0.0
H2120 H 0.52799 0.40294 0.99076 0.0
H2121 H 0.43649 0.38043 0.95095 0.0
H2122 H 0.42224 0.39342 0.96226 0.0
H2123 H 0.42065 0.36544 0.96759 0.0
C2124 C 0.1495 0.65659 0.05104 0.0
C2125 C 0.14401 0.67344 0.05738 0.0
C2126 C 0.13082 0.63479 0.04485 0.0
C2127 C 0.10617 0.63003 0.0447 0.0
C2128 C 0.10057 0.64707 0.05104 0.0
C2129 C 0.11954 0.66847 0.05745 0.0
C2130 C 0.13746 0.61688 0.03844 0.0
C2131 C 0.07463 0.64291 0.05081 0.0
C2132 C 0.06377 0.58536 0.01531 0.0
C2133 C 0.05022 0.5644 0.02373 0.0
C2134 C 0.08171 0.60698 0.02204 0.0
C2135 C 0.08638 0.60749 0.03756 0.0
C2136 C 0.07242 0.58635 0.04616 0.0
C2137 C 0.05427 0.56508 0.03915 0.0
C2138 C 0.09578 0.62921 0.01251 0.0
C2139 C 0.07711 0.58603 0.06268 0.0
H2140 H 0.16841 0.66037 0.0511 0.0
H2141 H 0.11534 0.68162 0.06224 0.0
H2142 H 0.12631 0.59899 0.04382 0.0
H2143 H 0.1331 0.61431 0.02632 0.0
H2144 H 0.1573 0.62285 0.03999 0.0
H2145 H 0.07334 0.65791 0.05625 0.0
H2146 H 0.06803 0.64104 0.0391 0.0
H2147 H 0.062 0.62578 0.05658 0.0
H2148 H 0.06013 0.58494 0.00346 0.0
H2149 H 0.04381 0.54874 0.04562 0.0
H2150 H 0.11569 0.63504 0.01269 0.0
H2151 H 0.09387 0.64437 0.01711 0.0
H2152 H 0.08928 0.626 1.00072 0.0
H2153 H 0.09636 0.59018 0.06456 0.0
H2154 H 0.06441 0.56824 0.0678 0.0
H2155 H 0.07499 0.60023 0.06852 0.0
C2156 C 0.33252 0.4616 0.04009 0.0
C2157 C 0.33354 0.46373 0.05574 0.0
C2158 C 0.35325 0.46551 0.03178 0.0
C2159 C 0.37558 0.47153 0.03927 0.0
C2160 C 0.37696 0.47443 0.05499 0.0
C2161 C 0.35607 0.47068 0.06299 0.0
C2162 C 0.35118 0.4629 0.01501 0.0
C2163 C 0.40032 0.48075 0.06348 0.0
C2164 C 0.42012 0.45318 0.02342 0.0
C2165 C 0.44006 0.47546 0.0191 0.0
C2166 C 0.39863 0.45156 0.02935 0.0
C2167 C 0.39689 0.47276 0.03097 0.0
C2168 C 0.4165 0.49518 0.0259 0.0
C2169 C 0.43804 0.49634 0.02026 0.0
C2170 C 0.37826 0.42726 0.03457 0.0
C2171 C 0.41524 0.51813 0.02701 0.0
H2172 H 0.3153 0.45619 0.03431 0.0
H2173 H 0.35741 0.47306 0.075 0.0
H2174 H 0.36402 0.48055 0.00984 0.0
H2175 H 0.35663 0.44969 0.01117 0.0
H2176 H 0.33223 0.45693 0.01091 0.0
H2177 H 0.39872 0.48325 0.07562 0.0
H2178 H 0.40485 0.46613 0.06196 0.0
H2179 H 0.41597 0.49762 0.05901 0.0
H2180 H 0.42169 0.43704 0.02262 0.0
H2181 H 0.45356 0.51369 0.0172 0.0
H2182 H 0.36042 0.42322 0.02948 0.0
H2183 H 0.37633 0.4277 0.04686 0.0
H2184 H 0.38182 0.41232 0.03172 0.0
H2185 H 0.3971 0.515 0.02299 0.0
H2186 H 0.43 0.53305 0.02044 0.0
H2187 H 0.41728 0.52397 0.03886 0.0
C2188 C 0.53511 0.88076 0.06737 0.0
C2189 C 0.54919 0.87183 0.06072 0.0
C2190 C 0.52842 0.89548 0.05936 0.0
C2191 C 0.5363 0.90162 0.04441 0.0
C2192 C 0.55042 0.89255 0.03761 0.0
C2193 C 0.55659 0.87762 0.04583 0.0
C2194 C 0.5131 0.9046 0.06693 0.0
C2195 C 0.55941 0.89898 0.02176 0.0
C2196 C 0.50311 0.92533 0.02026 0.0
C2197 C 0.51868 0.95043 0.02169 0.0
C2198 C 0.50877 0.90916 0.02741 0.0
C2199 C 0.53056 0.91835 0.03613 0.0
C2200 C 0.5466 0.94365 0.03733 0.0
C2201 C 0.5404 0.95938 0.03017 0.0
C2202 C 0.49112 0.8823 0.02595 0.0
C2203 C 0.57015 0.95413 0.04638 0.0
H2204 H 0.52911 0.87602 0.07882 0.0
H2205 H 0.56766 0.87087 0.04072 0.0
H2206 H 0.52364 0.92466 0.06761 0.0
H2207 H 0.49619 0.89945 0.06027 0.0
H2208 H 0.50761 0.89734 0.0784 0.0
H2209 H 0.56962 0.88985 0.01797 0.0
H2210 H 0.54361 0.89387 0.01407 0.0
H2211 H 0.57175 0.91884 0.02086 0.0
H2212 H 0.48614 0.9183 0.01388 0.0
H2213 H 0.55258 0.97875 0.03126 0.0
H2214 H 0.48342 0.8747 0.03706 0.0
H2215 H 0.50097 0.87299 0.02191 0.0
H2216 H 0.47562 0.8781 0.01816 0.0
H2217 H 0.56579 0.94916 0.05829 0.0
H2218 H 0.58117 0.97417 0.04561 0.0
H2219 H 0.58164 0.94646 0.04251 0.0
C2220 C 0.0202 0.23099 0.39376 0.0
C2221 C 0.00327 0.20762 0.38849 0.0
C2222 C 0.04059 0.24707 0.38528 0.0
C2223 C 0.0435 0.24047 0.37066 0.0
C2224 C 0.02636 0.21732 0.36498 0.0
C2225 C 0.0069 0.20096 0.37409 0.0
C2226 C 0.05898 0.27131 0.39201 0.0
C2227 C 0.02821 0.21008 0.34917 0.0
C2228 C 0.084 0.2972 0.34882 0.0
C2229 C 0.10666 0.2979 0.34934 0.0
C2230 C 0.06259 0.27714 0.35425 0.0
C2231 C 0.06432 0.25825 0.36137 0.0
C2232 C 0.08707 0.2585 0.36142 0.0
C2233 C 0.10791 0.2782 0.35516 0.0
C2234 C 0.03843 0.2769 0.35314 0.0
C2235 C 0.09014 0.23935 0.36939 0.0
H2236 H 0.01758 0.23712 0.40451 0.0
H2237 H 0.99463 0.18298 0.36977 0.0
H2238 H 0.07803 0.27465 0.39062 0.0
H2239 H 0.0578 0.28599 0.38616 0.0
H2240 H 0.05571 0.27249 0.40409 0.0
H2241 H 0.01384 0.19115 0.34654 0.0
H2242 H 0.02622 0.22234 0.34125 0.0
H2243 H 0.04659 0.21204 0.3472 0.0
H2244 H 0.08315 0.31257 0.34438 0.0
H2245 H 0.12558 0.27906 0.35597 0.0
H2246 H 0.03405 0.28198 0.36408 0.0
H2247 H 0.0232 0.25852 0.3502 0.0
H2248 H 0.03912 0.28988 0.34465 0.0
H2249 H 0.09032 0.2423 0.38162 0.0
H2250 H 0.10763 0.23998 0.36632 0.0
H2251 H 0.07457 0.22098 0.3669 0.0
C2252 C 0.80529 0.80293 0.37114 0.0
C2253 C 0.8093 0.80533 0.38665 0.0
C2254 C 0.78755 0.80715 0.36434 0.0
C2255 C 0.77298 0.81352 0.37321 0.0
C2256 C 0.77667 0.81569 0.3889 0.0
C2257 C 0.79486 0.81177 0.39539 0.0
C2258 C 0.7844 0.80473 0.34764 0.0
C2259 C 0.76136 0.82213 0.39884 0.0
C2260 C 0.7401 0.84573 0.3581 0.0
C2261 C 0.71592 0.82655 0.35648 0.0
C2262 C 0.75921 0.84154 0.36253 0.0
C2263 C 0.75371 0.81775 0.36623 0.0
C2264 C 0.72927 0.79828 0.36435 0.0
C2265 C 0.71069 0.80293 0.35946 0.0
C2266 C 0.7851 0.86272 0.36381 0.0
C2267 C 0.7224 0.77272 0.36837 0.0
H2268 H 0.81588 0.79747 0.36426 0.0
H2269 H 0.79793 0.81402 0.40735 0.0
H2270 H 0.76591 0.78933 0.34484 0.0
H2271 H 0.78564 0.82135 0.343 0.0
H2272 H 0.79851 0.80165 0.34218 0.0
H2273 H 0.76596 0.82237 0.41086 0.0
H2274 H 0.76429 0.84024 0.39583 0.0
H2275 H 0.74149 0.80892 0.39716 0.0
H2276 H 0.74396 0.86407 0.35615 0.0
H2277 H 0.69177 0.78824 0.35866 0.0
H2278 H 0.79824 0.85847 0.35816 0.0
H2279 H 0.7906 0.86635 0.37574 0.0
H2280 H 0.78681 0.87941 0.35882 0.0
H2281 H 0.73486 0.76752 0.3628 0.0
H2282 H 0.70308 0.75942 0.36519 0.0
H2283 H 0.72457 0.77158 0.38059 0.0
C2284 C 0.2101 0.00997 0.37096 0.0
C2285 C 0.23185 0.02471 0.379 0.0
C2286 C 0.20512 0.98747 0.36524 0.0
C2287 C 0.22228 0.97954 0.36768 0.0
C2288 C 0.24466 0.99468 0.37532 0.0
C2289 C 0.2492 0.01712 0.38088 0.0
C2290 C 0.18104 0.97177 0.35713 0.0
C2291 C 0.26342 0.98682 0.37805 0.0
C2292 C 0.19583 0.91169 0.36858 0.0
C2293 C 0.20155 0.90717 0.35431 0.0
C2294 C 0.20303 0.9353 0.3732 0.0
C2295 C 0.21597 0.9547 0.36317 0.0
C2296 C 0.22206 0.95018 0.34877 0.0
C2297 C 0.21481 0.92635 0.34452 0.0
C2298 C 0.19617 0.93937 0.38866 0.0
C2299 C 0.23576 0.97039 0.33777 0.0
H2300 H 0.19651 0.01561 0.36961 0.0
H2301 H 0.26621 0.02863 0.38689 0.0
H2302 H 0.18441 0.9657 0.34622 0.0
H2303 H 0.1694 0.9553 0.36378 0.0
H2304 H 0.17057 0.98134 0.35517 0.0
H2305 H 0.28059 0.00136 0.3833 0.0
H2306 H 0.25547 0.97082 0.38548 0.0
H2307 H 0.26821 0.9813 0.36739 0.0
H2308 H 0.18502 0.89665 0.37595 0.0
H2309 H 0.21944 0.92268 0.33355 0.0
H2310 H 0.18336 0.94658 0.38782 0.0
H2311 H 0.21283 0.95302 0.39477 0.0
H2312 H 0.1872 0.92246 0.39531 0.0
H2313 H 0.22459 0.97895 0.33501 0.0
H2314 H 0.23993 0.96391 0.32725 0.0
H2315 H 0.25331 0.98462 0.3428 0.0
C2316 C 0.52631 0.66377 0.29861 0.0
C2317 C 0.5337 0.64848 0.29201 0.0
C2318 C 0.54367 0.68619 0.30477 0.0
C2319 C 0.569 0.69331 0.30454 0.0
C2320 C 0.57654 0.67778 0.29804 0.0
C2321 C 0.55879 0.65562 0.29171 0.0
C2322 C 0.53492 0.70243 0.31131 0.0
C2323 C 0.60334 0.68458 0.29781 0.0
C2324 C 0.61514 0.76054 0.30753 0.0
C2325 C 0.62083 0.76331 0.32283 0.0
C2326 C 0.59847 0.73783 0.30142 0.0
C2327 C 0.58757 0.71728 0.31078 0.0
C2328 C 0.5937 0.71986 0.32617 0.0
C2329 C 0.61006 0.74291 0.33205 0.0
C2330 C 0.59202 0.73594 0.28502 0.0
C2331 C 0.5828 0.6983 0.33644 0.0
H2332 H 0.50692 0.65836 0.2987 0.0
H2333 H 0.56446 0.6437 0.28669 0.0
H2334 H 0.54055 0.70637 0.32321 0.0
H2335 H 0.54366 0.71999 0.30536 0.0
H2336 H 0.51459 0.69424 0.31056 0.0
H2337 H 0.60606 0.67011 0.29284 0.0
H2338 H 0.61413 0.7014 0.29131 0.0
H2339 H 0.61095 0.68832 0.30934 0.0
H2340 H 0.62322 0.77628 0.30036 0.0
H2341 H 0.61453 0.74494 0.34387 0.0
H2342 H 0.57202 0.72924 0.28365 0.0
H2343 H 0.59593 0.72268 0.27943 0.0
H2344 H 0.60243 0.75359 0.27922 0.0
H2345 H 0.56254 0.69046 0.33705 0.0
H2346 H 0.59056 0.70312 0.34793 0.0
H2347 H 0.58622 0.684 0.33197 0.0
C2348 C 0.3302 0.88382 0.28654 0.0
C2349 C 0.34252 0.87147 0.2909 0.0
C2350 C 0.30793 0.87903 0.29327 0.0
C2351 C 0.29785 0.86187 0.30495 0.0
C2352 C 0.31001 0.84918 0.30929 0.0
C2353 C 0.33191 0.85392 0.30215 0.0
C2354 C 0.29518 0.89242 0.28791 0.0
C2355 C 0.30041 0.83108 0.32182 0.0
C2356 C 0.2534 0.87002 0.33006 0.0
C2357 C 0.23052 0.85163 0.32487 0.0
C2358 C 0.27549 0.87255 0.32437 0.0
C2359 C 0.27463 0.8573 0.31252 0.0
C2360 C 0.25142 0.83857 0.30734 0.0
C2361 C 0.22967 0.83577 0.31372 0.0
C2362 C 0.29972 0.8919 0.33079 0.0
C2363 C 0.2495 0.82226 0.29453 0.0
H2364 H 0.33813 0.89759 0.27801 0.0
H2365 H 0.34072 0.84373 0.30545 0.0
H2366 H 0.27579 0.87934 0.2848 0.0
H2367 H 0.29476 0.90401 0.29702 0.0
H2368 H 0.30449 0.90402 0.27811 0.0
H2369 H 0.30951 0.81996 0.32223 0.0
H2370 H 0.30404 0.84102 0.33255 0.0
H2371 H 0.28024 0.81881 0.32078 0.0
H2372 H 0.254 0.88258 0.33847 0.0
H2373 H 0.2119 0.82195 0.30945 0.0
H2374 H 0.30973 0.90613 0.32233 0.0
H2375 H 0.31149 0.88404 0.33371 0.0
H2376 H 0.2972 0.90049 0.34094 0.0
H2377 H 0.25742 0.83325 0.28433 0.0
H2378 H 0.23014 0.80812 0.29212 0.0
H2379 H 0.26033 0.81325 0.29701 0.0
C2380 C 0.1365 0.46955 0.28702 0.0
C2381 C 0.11244 0.45979 0.28143 0.0
C2382 C 0.14409 0.45484 0.2942 0.0
C2383 C 0.12703 0.42989 0.29609 0.0
C2384 C 0.1026 0.42003 0.29064 0.0
C2385 C 0.09566 0.43508 0.28324 0.0
C2386 C 0.1704 0.4659 0.29963 0.0
C2387 C 0.08377 0.39362 0.29269 0.0
C2388 C 0.15025 0.38589 0.3026 0.0
C2389 C 0.1486 0.38348 0.31815 0.0
C2390 C 0.14368 0.40127 0.29528 0.0
C2391 C 0.13474 0.41407 0.30372 0.0
C2392 C 0.13286 0.41148 0.31943 0.0
C2393 C 0.13997 0.39629 0.32646 0.0
C2394 C 0.14639 0.40389 0.27854 0.0
C2395 C 0.12298 0.42444 0.3288 0.0
H2396 H 0.14952 0.48864 0.28549 0.0
H2397 H 0.07699 0.4276 0.27903 0.0
H2398 H 0.17079 0.46345 0.31187 0.0
H2399 H 0.17935 0.45655 0.29432 0.0
H2400 H 0.18143 0.48554 0.29713 0.0
H2401 H 0.06539 0.38894 0.28813 0.0
H2402 H 0.09003 0.38215 0.28705 0.0
H2403 H 0.08183 0.38903 0.30473 0.0
H2404 H 0.15706 0.37601 0.29619 0.0
H2405 H 0.13807 0.39389 0.33842 0.0
H2406 H 0.15845 0.42322 0.27561 0.0
H2407 H 0.12816 0.3978 0.27326 0.0
H2408 H 0.15433 0.39325 0.27369 0.0
H2409 H 0.13423 0.44426 0.3271 0.0
H2410 H 0.12297 0.42067 0.3409 0.0
H2411 H 0.10386 0.4188 0.32525 0.0
C2412 C 0.31779 0.43774 0.27923 0.0
C2413 C 0.33493 0.46118 0.28431 0.0
C2414 C 0.29686 0.42232 0.28758 0.0
C2415 C 0.29354 0.4297 0.30188 0.0
C2416 C 0.31071 0.45302 0.30729 0.0
C2417 C 0.33068 0.4687 0.29828 0.0
C2418 C 0.27845 0.39789 0.28112 0.0
C2419 C 0.30843 0.46111 0.32279 0.0
C2420 C 0.22927 0.39355 0.31816 0.0
C2421 C 0.23057 0.37437 0.32478 0.0
C2422 C 0.24993 0.41236 0.3111 0.0
C2423 C 0.27259 0.41242 0.31131 0.0
C2424 C 0.27438 0.39413 0.31918 0.0
C2425 C 0.2531 0.3748 0.32529 0.0
C2426 C 0.24679 0.43075 0.30226 0.0
C2427 C 0.29847 0.39426 0.3205 0.0
H2428 H 0.3207 0.431 0.26879 0.0
H2429 H 0.34292 0.48682 0.30239 0.0
H2430 H 0.27944 0.38339 0.28732 0.0
H2431 H 0.25942 0.3947 0.28227 0.0
H2432 H 0.28187 0.39623 0.26912 0.0
H2433 H 0.32315 0.47995 0.32531 0.0
H2434 H 0.29027 0.45991 0.32417 0.0
H2435 H 0.30948 0.44887 0.33117 0.0
H2436 H 0.21164 0.39284 0.31742 0.0
H2437 H 0.25396 0.35979 0.33031 0.0
H2438 H 0.24693 0.42696 0.29016 0.0
H2439 H 0.26221 0.44933 0.30441 0.0
H2440 H 0.22916 0.43016 0.30484 0.0
H2441 H 0.30269 0.38851 0.30973 0.0
H2442 H 0.29782 0.38176 0.32933 0.0
H2443 H 0.31381 0.41276 0.32307 0.0
C2444 C 0.56695 0.89026 0.28239 0.0
C2445 C 0.54145 0.87789 0.28509 0.0
C2446 C 0.58303 0.88522 0.29059 0.0
C2447 C 0.57365 0.86773 0.3021 0.0
C2448 C 0.54805 0.85544 0.30507 0.0
C2449 C 0.5323 0.86049 0.29649 0.0
C2450 C 0.61013 0.89848 0.28683 0.0
C2451 C 0.53726 0.8372 0.31747 0.0
C2452 C 0.61338 0.84017 0.31238 0.0
C2453 C 0.62744 0.85502 0.32428 0.0
C2454 C 0.59512 0.84347 0.30545 0.0
C2455 C 0.59068 0.86198 0.31062 0.0
C2456 C 0.6041 0.87624 0.32314 0.0
C2457 C 0.62279 0.873 0.32958 0.0
C2458 C 0.58147 0.82796 0.2921 0.0
C2459 C 0.59934 0.89549 0.32941 0.0
H2460 H 0.57449 0.9041 0.27389 0.0
H2461 H 0.51268 0.85048 0.29865 0.0
H2462 H 0.62112 0.90893 0.29669 0.0
H2463 H 0.61611 0.88529 0.2839 0.0
H2464 H 0.61446 0.91115 0.27735 0.0
H2465 H 0.51679 0.82695 0.31714 0.0
H2466 H 0.54404 0.82415 0.31694 0.0
H2467 H 0.54323 0.84687 0.32834 0.0
H2468 H 0.61747 0.82666 0.30807 0.0
H2469 H 0.63402 0.88475 0.33862 0.0
H2470 H 0.5861 0.83947 0.28202 0.0
H2471 H 0.56129 0.81935 0.29376 0.0
H2472 H 0.58613 0.81354 0.28997 0.0
H2473 H 0.60908 0.90286 0.34022 0.0
H2474 H 0.5793 0.88803 0.33112 0.0
H2475 H 0.60562 0.91059 0.32136 0.0
C2476 C 0.12403 0.67223 0.28535 0.0
C2477 C 0.11031 0.65029 0.29291 0.0
C2478 C 0.12956 0.69429 0.29209 0.0
C2479 C 0.12086 0.69434 0.30666 0.0
C2480 C 0.10646 0.67217 0.31419 0.0
C2481 C 0.10151 0.6504 0.30726 0.0
C2482 C 0.14525 0.71757 0.28378 0.0
C2483 C 0.09655 0.67148 0.32963 0.0
C2484 C 0.15655 0.75197 0.32951 0.0
C2485 C 0.14255 0.76333 0.3273 0.0
C2486 C 0.14951 0.72939 0.323 0.0
C2487 C 0.12776 0.7177 0.31422 0.0
C2488 C 0.11314 0.7287 0.3123 0.0
C2489 C 0.12079 0.75147 0.31879 0.0
C2490 C 0.16573 0.71835 0.3252 0.0
C2491 C 0.08965 0.71662 0.30318 0.0
H2492 H 0.13103 0.67218 0.27431 0.0
H2493 H 0.09065 0.63341 0.31304 0.0
H2494 H 0.13544 0.72796 0.28281 0.0
H2495 H 0.16257 0.72904 0.29009 0.0
H2496 H 0.15004 0.71437 0.27239 0.0
H2497 H 0.08456 0.65268 0.33362 0.0
H2498 H 0.11206 0.68108 0.33764 0.0
H2499 H 0.08582 0.68101 0.32971 0.0
H2500 H 0.17341 0.76097 0.33604 0.0
H2501 H 0.10979 0.76006 0.31708 0.0
H2502 H 0.17264 0.7162 0.31424 0.0
H2503 H 0.15493 0.70005 0.33011 0.0
H2504 H 0.1818 0.72955 0.33259 0.0
H2505 H 0.09394 0.71489 0.29139 0.0
H2506 H 0.07964 0.7269 0.30349 0.0
H2507 H 0.07725 0.69806 0.30737 0.0
C2508 C 0.80919 0.00405 0.37785 0.0
C2509 C 0.80289 0.01993 0.38478 0.0
C2510 C 0.79095 0.98145 0.37241 0.0
C2511 C 0.76582 0.97476 0.37371 0.0
C2512 C 0.75935 0.99089 0.3805 0.0
C2513 C 0.77799 0.01322 0.3861 0.0
C2514 C 0.79855 0.96457 0.36547 0.0
C2515 C 0.73277 0.98453 0.38184 0.0
C2516 C 0.72183 0.92475 0.34747 0.0
C2517 C 0.71209 0.90464 0.35686 0.0
C2518 C 0.7388 0.94788 0.35291 0.0
C2519 C 0.74636 0.95076 0.36806 0.0
C2520 C 0.73618 0.93046 0.37765 0.0
C2521 C 0.71903 0.9076 0.37192 0.0
C2522 C 0.74897 0.96912 0.3424 0.0
C2523 C 0.74407 0.93269 0.3938 0.0
H2524 H 0.82845 0.00913 0.377 0.0
H2525 H 0.77315 0.02559 0.39138 0.0
H2526 H 0.79021 0.94729 0.3717 0.0
H2527 H 0.79164 0.96018 0.3538 0.0
H2528 H 0.81888 0.97246 0.3654 0.0
H2529 H 0.73087 0.99933 0.38708 0.0
H2530 H 0.72398 0.98057 0.37062 0.0
H2531 H 0.72245 0.96794 0.38862 0.0
H2532 H 0.71613 0.92238 0.33586 0.0
H2533 H 0.71183 0.89189 0.37906 0.0
H2534 H 0.76907 0.97656 0.341 0.0
H2535 H 0.74638 0.98378 0.34714 0.0
H2536 H 0.74003 0.96405 0.33121 0.0
H2537 H 0.76395 0.93846 0.39443 0.0
H2538 H 0.73349 0.91538 0.39992 0.0
H2539 H 0.74163 0.94678 0.39954 0.0
C2540 C 0.02483 0.80624 0.40158 0.0
C2541 C 0.00262 0.79923 0.39393 0.0
C2542 C 0.04649 0.81165 0.39389 0.0
C2543 C 0.04622 0.81048 0.37808 0.0
C2544 C 0.02397 0.80364 0.37027 0.0
C2545 C 0.00249 0.79805 0.37826 0.0
C2546 C 0.0697 0.81853 0.40273 0.0
C2547 C 0.02282 0.80268 0.35345 0.0
C2548 C 0.1103 0.84601 0.36132 0.0
C2549 C 0.11601 0.82772 0.35877 0.0
C2550 C 0.08691 0.84046 0.36652 0.0
C2551 C 0.06928 0.81616 0.36993 0.0
C2552 C 0.07483 0.79756 0.36693 0.0
C2553 C 0.09815 0.80358 0.36136 0.0
C2554 C 0.08148 0.86073 0.36899 0.0
C2555 C 0.05664 0.77145 0.37038 0.0
H2556 H 0.02541 0.80773 0.41365 0.0
H2557 H 0.98548 0.79242 0.37218 0.0
H2558 H 0.07663 0.80602 0.39996 0.0
H2559 H 0.08432 0.83705 0.39969 0.0
H2560 H 0.06672 0.81801 0.41498 0.0
H2561 H 0.00355 0.79269 0.3492 0.0
H2562 H 0.03162 0.82143 0.34915 0.0
H2563 H 0.03297 0.79401 0.3489 0.0
H2564 H 0.12435 0.86472 0.35954 0.0
H2565 H 0.10289 0.78954 0.35972 0.0
H2566 H 0.08035 0.86346 0.38114 0.0
H2567 H 0.06341 0.856 0.36395 0.0
H2568 H 0.09589 0.87805 0.36412 0.0
H2569 H 0.05374 0.76926 0.38262 0.0
H2570 H 0.06305 0.75901 0.36643 0.0
H2571 H 0.03854 0.76602 0.36511 0.0
C2572 C 0.20173 0.21475 0.40113 0.0
C2573 C 0.21762 0.20811 0.39435 0.0
C2574 C 0.19468 0.22971 0.39374 0.0
C2575 C 0.20398 0.23839 0.37931 0.0
C2576 C 0.21993 0.23164 0.37238 0.0
C2577 C 0.22649 0.21648 0.37997 0.0
C2578 C 0.17741 0.23634 0.4014 0.0
C2579 C 0.2304 0.24075 0.35707 0.0
C2580 C 0.17129 0.26226 0.3549 0.0
C2581 C 0.18588 0.28731 0.35721 0.0
C2582 C 0.17694 0.24608 0.36202 0.0
C2583 C 0.19767 0.2552 0.37166 0.0
C2584 C 0.21246 0.28046 0.37403 0.0
C2585 C 0.20633 0.29621 0.36682 0.0
C2586 C 0.16065 0.21924 0.35928 0.0
C2587 C 0.23481 0.29086 0.38416 0.0
H2588 H 0.19461 0.20802 0.41217 0.0
H2589 H 0.23897 0.21153 0.37477 0.0
H2590 H 0.18671 0.25623 0.4031 0.0
H2591 H 0.16098 0.23113 0.39425 0.0
H2592 H 0.17117 0.22741 0.41241 0.0
H2593 H 0.24207 0.23331 0.35309 0.0
H2594 H 0.21526 0.23582 0.34888 0.0
H2595 H 0.2417 0.2608 0.35728 0.0
H2596 H 0.15525 0.25523 0.34766 0.0
H2597 H 0.21771 0.31554 0.36865 0.0
H2598 H 0.15268 0.20996 0.36999 0.0
H2599 H 0.1717 0.21153 0.35473 0.0
H2600 H 0.14534 0.21515 0.35136 0.0
H2601 H 0.22926 0.28374 0.39563 0.0
H2602 H 0.24453 0.31095 0.38467 0.0
H2603 H 0.24794 0.28519 0.3802 0.0
C2604 C 0.68451 0.5619 0.72822 0.0
C2605 C 0.66739 0.53877 0.72259 0.0
C2606 C 0.7053 0.57816 0.72005 0.0
C2607 C 0.70847 0.57221 0.70531 0.0
C2608 C 0.6911 0.54944 0.69923 0.0
C2609 C 0.67127 0.53279 0.70804 0.0
C2610 C 0.72385 0.6019 0.72725 0.0
C2611 C 0.69305 0.54293 0.68326 0.0
C2612 C 0.74994 0.62963 0.68404 0.0
C2613 C 0.77226 0.62961 0.68391 0.0
C2614 C 0.72839 0.60979 0.68956 0.0
C2615 C 0.72965 0.59036 0.69628 0.0
C2616 C 0.75216 0.59009 0.69596 0.0
C2617 C 0.77308 0.60952 0.68947 0.0
C2618 C 0.70452 0.61018 0.68877 0.0
C2619 C 0.75481 0.57047 0.7036 0.0
H2620 H 0.68182 0.56778 0.73902 0.0
H2621 H 0.65893 0.51513 0.70335 0.0
H2622 H 0.74285 0.60518 0.72568 0.0
H2623 H 0.72283 0.61702 0.72191 0.0
H2624 H 0.72059 0.60234 0.7394 0.0
H2625 H 0.67864 0.52416 0.68031 0.0
H2626 H 0.69118 0.55561 0.67564 0.0
H2627 H 0.7114 0.5449 0.68119 0.0
H2628 H 0.7494 0.64529 0.67984 0.0
H2629 H 0.79051 0.60978 0.68974 0.0
H2630 H 0.70039 0.61499 0.69987 0.0
H2631 H 0.68901 0.59205 0.68564 0.0
H2632 H 0.70547 0.62362 0.68055 0.0
H2633 H 0.75396 0.57242 0.71588 0.0
H2634 H 0.77257 0.5714 0.7009 0.0
H2635 H 0.7395 0.55229 0.70045 0.0
C2636 C 0.4424 0.11945 0.72422 0.0
C2637 C 0.46499 0.12658 0.71705 0.0
C2638 C 0.42414 0.12324 0.71766 0.0
C2639 C 0.4277 0.13324 0.70317 0.0
C2640 C 0.45022 0.14034 0.6958 0.0
C2641 C 0.46867 0.1375 0.70292 0.0
C2642 C 0.40094 0.11649 0.72631 0.0
C2643 C 0.4546 0.14997 0.68009 0.0
C2644 C 0.36746 0.11734 0.68326 0.0
C2645 C 0.36742 0.13925 0.68399 0.0
C2646 C 0.38772 0.11561 0.68854 0.0
C2647 C 0.40763 0.1358 0.69573 0.0
C2648 C 0.40761 0.15801 0.69649 0.0
C2649 C 0.38773 0.15957 0.69037 0.0
C2650 C 0.38767 0.0921 0.68653 0.0
C2651 C 0.42801 0.17983 0.70439 0.0
H2652 H 0.43861 0.11057 0.73493 0.0
H2653 H 0.48602 0.14394 0.69723 0.0
H2654 H 0.39721 0.13177 0.72635 0.0
H2655 H 0.38497 0.10084 0.72087 0.0
H2656 H 0.40216 0.1116 0.73805 0.0
H2657 H 0.47442 0.15923 0.67707 0.0
H2658 H 0.44439 0.13452 0.67228 0.0
H2659 H 0.44769 0.16275 0.67844 0.0
H2660 H 0.35168 0.10159 0.67841 0.0
H2661 H 0.38747 0.17636 0.69134 0.0
H2662 H 0.38559 0.08333 0.69751 0.0
H2663 H 0.40548 0.09559 0.68176 0.0
H2664 H 0.37248 0.07927 0.67907 0.0
H2665 H 0.42897 0.17535 0.71625 0.0
H2666 H 0.42528 0.19574 0.70399 0.0
H2667 H 0.44605 0.18493 0.69928 0.0
C2668 C 0.89635 0.33723 0.7214 0.0
C2669 C 0.87775 0.34337 0.72118 0.0
C2670 C 0.89215 0.31504 0.71556 0.0
C2671 C 0.86872 0.29853 0.7095 0.0
C2672 C 0.84981 0.30456 0.70936 0.0
C2673 C 0.8546 0.32699 0.71513 0.0
C2674 C 0.91286 0.3094 0.71568 0.0
C2675 C 0.82452 0.28731 0.70308 0.0
C2676 C 0.86247 0.2516 0.68109 0.0
C2677 C 0.85303 0.23069 0.68979 0.0
C2678 C 0.86811 0.2739 0.68743 0.0
C2679 C 0.86416 0.27526 0.70286 0.0
C2680 C 0.85527 0.25429 0.71181 0.0
C2681 C 0.84996 0.23221 0.70516 0.0
C2682 C 0.87788 0.2959 0.67754 0.0
C2683 C 0.85066 0.25501 0.72828 0.0
H2684 H 0.91434 0.34999 0.72594 0.0
H2685 H 0.84013 0.3316 0.71512 0.0
H2686 H 0.90713 0.29229 0.72176 0.0
H2687 H 0.91721 0.30671 0.70408 0.0
H2688 H 0.92988 0.32404 0.72101 0.0
H2689 H 0.81165 0.29444 0.70421 0.0
H2690 H 0.82593 0.2838 0.69109 0.0
H2691 H 0.81655 0.26967 0.70891 0.0
H2692 H 0.86549 0.25053 0.66929 0.0
H2693 H 0.84256 0.21596 0.71186 0.0
H2694 H 0.89557 0.31065 0.68209 0.0
H2695 H 0.86469 0.30271 0.67732 0.0
H2696 H 0.88087 0.29194 0.66589 0.0
H2697 H 0.86762 0.26905 0.73395 0.0
H2698 H 0.8446 0.23733 0.73376 0.0
H2699 H 0.83623 0.26004 0.72991 0.0
C2700 C 0.20469 0.00499 0.6068 0.0
C2701 C 0.19641 0.98376 0.61515 0.0
C2702 C 0.22203 0.02773 0.61273 0.0
C2703 C 0.23147 0.02932 0.62735 0.0
C2704 C 0.22358 0.0079 0.63571 0.0
C2705 C 0.20615 0.98543 0.62953 0.0
C2706 C 0.22981 0.05012 0.60349 0.0
C2707 C 0.23331 0.00875 0.65129 0.0
C2708 C 0.29092 0.08605 0.63926 0.0
C2709 C 0.28191 0.09843 0.64778 0.0
C2710 C 0.27475 0.06364 0.63245 0.0
C2711 C 0.24894 0.05342 0.63412 0.0
C2712 C 0.23977 0.06606 0.6425 0.0
C2713 C 0.25632 0.08837 0.64918 0.0
C2714 C 0.28529 0.05074 0.62364 0.0
C2715 C 0.21244 0.05594 0.64456 0.0
H2716 H 0.19708 0.00393 0.59575 0.0
H2717 H 0.20014 0.9691 0.63599 0.0
H2718 H 0.22429 0.06216 0.60916 0.0
H2719 H 0.25017 0.06043 0.60241 0.0
H2720 H 0.22148 0.04577 0.59213 0.0
H2721 H 0.22594 0.99042 0.65614 0.0
H2722 H 0.25372 0.01783 0.65116 0.0
H2723 H 0.22828 0.01955 0.65871 0.0
H2724 H 0.31064 0.09365 0.6381 0.0
H2725 H 0.24912 0.09797 0.6555 0.0
H2726 H 0.27785 0.04722 0.61208 0.0
H2727 H 0.27966 0.03292 0.62877 0.0
H2728 H 0.30574 0.06129 0.62316 0.0
H2729 H 0.20313 0.05243 0.63352 0.0
H2730 H 0.20829 0.06835 0.65104 0.0
H2731 H 0.2044 0.03839 0.65047 0.0
C2732 C 0.98884 0.21157 0.61759 0.0
C2733 C 0.00449 0.20477 0.62482 0.0
C2734 C 0.96638 0.20703 0.62393 0.0
C2735 C 0.95973 0.19667 0.63832 0.0
C2736 C 0.97534 0.18999 0.64581 0.0
C2737 C 0.997 0.19348 0.63886 0.0
C2738 C 0.94975 0.21341 0.61519 0.0
C2739 C 0.96975 0.18003 0.66146 0.0
C2740 C 0.91455 0.21082 0.65809 0.0
C2741 C 0.89247 0.18871 0.65703 0.0
C2742 C 0.93683 0.21318 0.65294 0.0
C2743 C 0.93675 0.19341 0.64559 0.0
C2744 C 0.91439 0.17098 0.64452 0.0
C2745 C 0.89263 0.16878 0.65051 0.0
C2746 C 0.96038 0.23698 0.65515 0.0
C2747 C 0.91313 0.14965 0.63635 0.0
H2748 H 0.99403 0.22077 0.60699 0.0
H2749 H 0.00795 0.18724 0.64462 0.0
H2750 H 0.93061 0.19784 0.61495 0.0
H2751 H 0.94917 0.22873 0.62068 0.0
H2752 H 0.95603 0.21862 0.60351 0.0
H2753 H 0.98167 0.17262 0.66499 0.0
H2754 H 0.97287 0.19484 0.66928 0.0
H2755 H 0.95021 0.16563 0.66251 0.0
H2756 H 0.91437 0.22628 0.66303 0.0
H2757 H 0.87544 0.15183 0.64931 0.0
H2758 H 0.96689 0.24616 0.64426 0.0
H2759 H 0.97503 0.23387 0.65975 0.0
H2760 H 0.95788 0.24931 0.66282 0.0
H2761 H 0.91808 0.15444 0.62446 0.0
H2762 H 0.89449 0.13332 0.63683 0.0
H2763 H 0.92664 0.14509 0.64113 0.0
C2764 C 0.76471 0.76797 0.6147 0.0
C2765 C 0.7819 0.79222 0.61172 0.0
C2766 C 0.77142 0.75345 0.62293 0.0
C2767 C 0.79604 0.7633 0.62806 0.0
C2768 C 0.81347 0.78781 0.62508 0.0
C2769 C 0.80612 0.80204 0.61706 0.0
C2770 C 0.7522 0.72752 0.6261 0.0
C2771 C 0.83998 0.79884 0.63011 0.0
C2772 C 0.80933 0.73103 0.65928 0.0
C2773 C 0.81655 0.71681 0.65121 0.0
C2774 C 0.8027 0.74638 0.65191 0.0
C2775 C 0.80368 0.74771 0.63612 0.0
C2776 C 0.81148 0.7337 0.62796 0.0
C2777 C 0.81758 0.71824 0.6356 0.0
C2778 C 0.79411 0.76071 0.66101 0.0
C2779 C 0.81327 0.73495 0.61114 0.0
H2780 H 0.74591 0.76044 0.6107 0.0
H2781 H 0.81947 0.82076 0.61466 0.0
H2782 H 0.7575 0.71508 0.62075 0.0
H2783 H 0.75111 0.72415 0.63829 0.0
H2784 H 0.73364 0.72295 0.62193 0.0
H2785 H 0.85117 0.81824 0.62706 0.0
H2786 H 0.84091 0.79726 0.6424 0.0
H2787 H 0.84838 0.78883 0.62499 0.0
H2788 H 0.80804 0.72956 0.6713 0.0
H2789 H 0.82342 0.70741 0.62936 0.0
H2790 H 0.77476 0.75503 0.65799 0.0
H2791 H 0.80543 0.78026 0.65845 0.0
H2792 H 0.79515 0.75822 0.67321 0.0
H2793 H 0.79481 0.72873 0.60616 0.0
H2794 H 0.82063 0.72364 0.60653 0.0
H2795 H 0.82541 0.75395 0.60759 0.0
C2796 C 0.99586 0.7984 0.62893 0.0
C2797 C 0.99934 0.79104 0.61468 0.0
C2798 C 0.97622 0.7827 0.63821 0.0
C2799 C 0.95857 0.75945 0.63291 0.0
C2800 C 0.96129 0.75211 0.61845 0.0
C2801 C 0.98189 0.76751 0.60981 0.0
C2802 C 0.97472 0.79076 0.65387 0.0
C2803 C 0.94247 0.72777 0.61207 0.0
C2804 C 0.9179 0.70447 0.65647 0.0
C2805 C 0.89557 0.70449 0.65644 0.0
C2806 C 0.9392 0.72361 0.65016 0.0
C2807 C 0.93766 0.74223 0.64252 0.0
C2808 C 0.91517 0.74256 0.64272 0.0
C2809 C 0.89453 0.72393 0.64998 0.0
C2810 C 0.96306 0.72322 0.65108 0.0
C2811 C 0.91218 0.76126 0.63414 0.0
H2812 H 0.00838 0.81645 0.63303 0.0
H2813 H 0.9842 0.76065 0.59926 0.0
H2814 H 0.95689 0.79016 0.65553 0.0
H2815 H 0.9755 0.77814 0.66206 0.0
H2816 H 0.98991 0.80937 0.6564 0.0
H2817 H 0.94541 0.72611 0.59999 0.0
H2818 H 0.94351 0.71315 0.61808 0.0
H2819 H 0.92356 0.72478 0.61355 0.0
H2820 H 0.91862 0.68928 0.66133 0.0
H2821 H 0.87708 0.72361 0.64957 0.0
H2822 H 0.97873 0.7416 0.65353 0.0
H2823 H 0.96671 0.71727 0.64021 0.0
H2824 H 0.96244 0.71063 0.65983 0.0
H2825 H 0.92768 0.77973 0.63649 0.0
H2826 H 0.8946 0.76071 0.63681 0.0
H2827 H 0.91239 0.75784 0.622 0.0
C2828 C 0.22561 0.21135 0.61125 0.0
C2829 C 0.20244 0.20535 0.61721 0.0
C2830 C 0.24235 0.20669 0.61901 0.0
C2831 C 0.23686 0.19726 0.63365 0.0
C2832 C 0.21402 0.1918 0.64003 0.0
C2833 C 0.19695 0.19533 0.63167 0.0
C2834 C 0.26603 0.21195 0.61145 0.0
C2835 C 0.20789 0.18307 0.65592 0.0
C2836 C 0.27393 0.16892 0.64833 0.0
C2837 C 0.29482 0.18918 0.65427 0.0
C2838 C 0.25444 0.17101 0.64205 0.0
C2839 C 0.25545 0.19374 0.64221 0.0
C2840 C 0.27578 0.21381 0.6492 0.0
C2841 C 0.2956 0.2115 0.65463 0.0
C2842 C 0.23365 0.14927 0.63433 0.0
C2843 C 0.27697 0.23795 0.65057 0.0
H2844 H 0.23114 0.21998 0.60049 0.0
H2845 H 0.17928 0.19009 0.63662 0.0
H2846 H 0.2819 0.22753 0.617 0.0
H2847 H 0.26885 0.19615 0.6124 0.0
H2848 H 0.26617 0.21627 0.59943 0.0
H2849 H 0.18817 0.17618 0.65854 0.0
H2850 H 0.21232 0.16861 0.65822 0.0
H2851 H 0.21929 0.1984 0.66359 0.0
H2852 H 0.27351 0.15175 0.64773 0.0
H2853 H 0.31178 0.22718 0.6592 0.0
H2854 H 0.23423 0.15282 0.62217 0.0
H2855 H 0.21558 0.14598 0.63847 0.0
H2856 H 0.23477 0.13259 0.63601 0.0
H2857 H 0.29149 0.2502 0.65859 0.0
H2858 H 0.25897 0.23545 0.6543 0.0
H2859 H 0.28103 0.2469 0.63953 0.0
C2860 C 0.77715 0.98654 0.62888 0.0
C2861 C 0.78494 0.98558 0.61436 0.0
C2862 C 0.78197 0.00858 0.63532 0.0
C2863 C 0.79512 0.03024 0.62709 0.0
C2864 C 0.80283 0.02937 0.61236 0.0
C2865 C 0.7975 0.007 0.60614 0.0
C2866 C 0.77317 0.00873 0.65097 0.0
C2867 C 0.81715 0.05212 0.60331 0.0
C2868 C 0.7909 0.0851 0.63961 0.0
C2869 C 0.81233 0.09776 0.64831 0.0
C2870 C 0.78512 0.06317 0.63254 0.0
C2871 C 0.80133 0.05385 0.63407 0.0
C2872 C 0.82325 0.06681 0.64259 0.0
C2873 C 0.82846 0.08856 0.64961 0.0
C2874 C 0.76147 0.04976 0.62366 0.0
C2875 C 0.84112 0.05762 0.64443 0.0
H2876 H 0.76716 0.96996 0.6352 0.0
H2877 H 0.80373 0.00634 0.59496 0.0
H2878 H 0.78917 0.01978 0.65841 0.0
H2879 H 0.76139 0.01717 0.65104 0.0
H2880 H 0.76249 0.99023 0.65568 0.0
H2881 H 0.82134 0.0483 0.59191 0.0
H2882 H 0.80662 0.06178 0.60233 0.0
H2883 H 0.83477 0.06453 0.60908 0.0
H2884 H 0.77837 0.09205 0.63852 0.0
H2885 H 0.84529 0.09842 0.65609 0.0
H2886 H 0.74954 0.03165 0.6286 0.0
H2887 H 0.76549 0.04683 0.61204 0.0
H2888 H 0.75104 0.05963 0.62336 0.0
H2889 H 0.83193 0.03988 0.65015 0.0
H2890 H 0.85774 0.0703 0.651 0.0
H2891 H 0.84706 0.05476 0.63332 0.0
C2892 C 0.45977 0.34268 0.70538 0.0
C2893 C 0.46948 0.34483 0.71982 0.0
C2894 C 0.4417 0.32011 0.69966 0.0
C2895 C 0.4331 0.29914 0.70857 0.0
C2896 C 0.44264 0.30121 0.7232 0.0
C2897 C 0.46069 0.32398 0.72862 0.0
C2898 C 0.43198 0.31864 0.68401 0.0
C2899 C 0.43413 0.27929 0.73302 0.0
C2900 C 0.37253 0.24275 0.69788 0.0
C2901 C 0.38088 0.22922 0.69001 0.0
C2902 C 0.38929 0.2655 0.70407 0.0
C2903 C 0.41498 0.27487 0.70236 0.0
C2904 C 0.42346 0.26103 0.69468 0.0
C2905 C 0.40636 0.23839 0.68869 0.0
C2906 C 0.37954 0.27967 0.71224 0.0
C2907 C 0.45064 0.27025 0.6926 0.0
H2908 H 0.4662 0.35871 0.69856 0.0
H2909 H 0.46833 0.32537 0.7397 0.0
H2910 H 0.43618 0.30679 0.677 0.0
H2911 H 0.41164 0.3104 0.68419 0.0
H2912 H 0.44006 0.33669 0.67866 0.0
H2913 H 0.44259 0.28409 0.74434 0.0
H2914 H 0.41379 0.26972 0.73416 0.0
H2915 H 0.43894 0.26641 0.72778 0.0
H2916 H 0.3529 0.2358 0.69897 0.0
H2917 H 0.41304 0.2279 0.68287 0.0
H2918 H 0.38566 0.29719 0.70656 0.0
H2919 H 0.38711 0.28387 0.72377 0.0
H2920 H 0.35909 0.26971 0.71282 0.0
H2921 H 0.45901 0.28727 0.68609 0.0
H2922 H 0.45419 0.25697 0.68667 0.0
H2923 H 0.46013 0.27447 0.7036 0.0
C2924 C 0.66713 0.13863 0.70919 0.0
C2925 C 0.66301 0.12861 0.72363 0.0
C2926 C 0.687 0.14142 0.70039 0.0
C2927 C 0.70411 0.13528 0.70633 0.0
C2928 C 0.70063 0.1259 0.72098 0.0
C2929 C 0.6799 0.12203 0.7292 0.0
C2930 C 0.68941 0.15054 0.68461 0.0
C2931 C 0.71879 0.11979 0.72801 0.0
C2932 C 0.74473 0.1185 0.68375 0.0
C2933 C 0.76731 0.14019 0.68382 0.0
C2934 C 0.72351 0.11727 0.68987 0.0
C2935 C 0.72528 0.13781 0.69722 0.0
C2936 C 0.74804 0.15994 0.69709 0.0
C2937 C 0.76867 0.16097 0.69014 0.0
C2938 C 0.6994 0.0937 0.68892 0.0
C2939 C 0.75122 0.18205 0.70528 0.0
H2940 H 0.65494 0.14444 0.70463 0.0
H2941 H 0.677 0.11353 0.73999 0.0
H2942 H 0.70712 0.16766 0.68331 0.0
H2943 H 0.68956 0.13717 0.67672 0.0
H2944 H 0.67415 0.15378 0.68142 0.0
H2945 H 0.71508 0.11539 0.74005 0.0
H2946 H 0.71791 0.104 0.7222 0.0
H2947 H 0.73787 0.1352 0.72685 0.0
H2948 H 0.74373 0.10239 0.67895 0.0
H2949 H 0.78627 0.17766 0.69049 0.0
H2950 H 0.6842 0.097 0.68573 0.0
H2951 H 0.6949 0.08483 0.69999 0.0
H2952 H 0.70013 0.08101 0.68068 0.0
H2953 H 0.7362 0.18573 0.70238 0.0
H2954 H 0.76918 0.19842 0.7028 0.0
H2955 H 0.75022 0.17872 0.71748 0.0
C2956 C 0.86138 0.53084 0.72097 0.0
C2957 C 0.88554 0.53979 0.72618 0.0
C2958 C 0.85456 0.54599 0.71358 0.0
C2959 C 0.87246 0.57054 0.71116 0.0
C2960 C 0.897 0.57953 0.71616 0.0
C2961 C 0.9032 0.56407 0.72372 0.0
C2962 C 0.82814 0.53586 0.70859 0.0
C2963 C 0.91668 0.6055 0.71357 0.0
C2964 C 0.86028 0.60486 0.6809 0.0
C2965 C 0.8529 0.61862 0.68932 0.0
C2966 C 0.86667 0.58907 0.68785 0.0
C2967 C 0.86545 0.58695 0.7036 0.0
C2968 C 0.85788 0.60078 0.71215 0.0
C2969 C 0.85189 0.61663 0.70489 0.0
C2970 C 0.87504 0.57495 0.67836 0.0
C2971 C 0.85602 0.59879 0.72894 0.0
H2972 H 0.84767 0.5121 0.723 0.0
H2973 H 0.92195 0.57092 0.72762 0.0
H2974 H 0.82015 0.54598 0.71408 0.0
H2975 H 0.82733 0.53817 0.69637 0.0
H2976 H 0.81651 0.51634 0.71125 0.0
H2977 H 0.93506 0.60942 0.71772 0.0
H2978 H 0.91807 0.60963 0.70147 0.0
H2979 H 0.91166 0.61788 0.71928 0.0
H2980 H 0.86176 0.60696 0.66892 0.0
H2981 H 0.84603 0.62721 0.71139 0.0
H2982 H 0.86319 0.55527 0.68039 0.0
H2983 H 0.89415 0.5799 0.6815 0.0
H2984 H 0.87453 0.57835 0.66624 0.0
H2985 H 0.84332 0.57973 0.73216 0.0
H2986 H 0.84927 0.61038 0.7339 0.0
H2987 H 0.87433 0.60412 0.73386 0.0
C2988 C 0.47863 0.93423 0.16564 0.0
C2989 C 0.46812 0.94293 0.17604 0.0
C2990 C 0.486 0.94479 0.15143 0.0
C2991 C 0.48308 0.96473 0.14751 0.0
C2992 C 0.47238 0.97349 0.15793 0.0
C2993 C 0.46498 0.96247 0.172 0.0
C2994 C 0.49706 0.93469 0.14063 0.0
C2995 C 0.46914 0.99485 0.15434 0.0
C2996 C 0.5242 0.00901 0.11773 0.0
C2997 C 0.50814 0.00274 0.10541 0.0
C2998 C 0.51642 0.99657 0.13135 0.0
C2999 C 0.49198 0.97706 0.13276 0.0
C3000 C 0.47587 0.97008 0.12025 0.0
C3001 C 0.48408 0.98302 0.10678 0.0
C3002 C 0.53425 0.00468 0.14435 0.0
C3003 C 0.44974 0.94927 0.12119 0.0
H3004 H 0.48088 0.91898 0.16858 0.0
H3005 H 0.45721 0.96955 0.17999 0.0
H3006 H 0.48648 0.92952 0.12998 0.0
H3007 H 0.51624 0.94874 0.13798 0.0
H3008 H 0.49727 0.91859 0.14513 0.0
H3009 H 0.46002 0.99915 0.1635 0.0
H3010 H 0.48738 0.01105 0.15223 0.0
H3011 H 0.45797 0.99116 0.144 0.0
H3012 H 0.54298 0.02382 0.11678 0.0
H3013 H 0.47137 0.97806 0.09745 0.0
H3014 H 0.53617 0.98933 0.14848 0.0
H3015 H 0.52703 0.01074 0.1537 0.0
H3016 H 0.5528 0.01975 0.14136 0.0
H3017 H 0.4496 0.93284 0.12536 0.0
H3018 H 0.44006 0.94499 0.11023 0.0
H3019 H 0.43924 0.95377 0.12928 0.0
C3020 C 0.04547 0.54671 0.16611 0.0
C3021 C 0.03639 0.52966 0.17764 0.0
C3022 C 0.03513 0.54074 0.15172 0.0
C3023 C 0.01511 0.51721 0.14883 0.0
C3024 C 0.00599 0.49987 0.1604 0.0
C3025 C 0.01679 0.50629 0.17466 0.0
C3026 C 0.04552 0.55963 0.13962 0.0
C3027 C 0.98456 0.47466 0.15778 0.0
C3028 C 0.97231 0.50857 0.11633 0.0
C3029 C 0.98022 0.49814 0.10543 0.0
C3030 C 0.98353 0.51489 0.13048 0.0
C3031 C 0.0033 0.51087 0.1338 0.0
C3032 C 0.01157 0.50058 0.12283 0.0
C3033 C 0.99987 0.49424 0.10881 0.0
C3034 C 0.97416 0.52579 0.14189 0.0
C3035 C 0.03267 0.49611 0.12594 0.0
H3036 H 0.06082 0.5647 0.16833 0.0
H3037 H 0.00955 0.49314 0.18358 0.0
H3038 H 0.05139 0.55277 0.12999 0.0
H3039 H 0.03109 0.56343 0.1355 0.0
H3040 H 0.06155 0.57687 0.14359 0.0
H3041 H 0.98001 0.46316 0.16788 0.0
H3042 H 0.96802 0.47563 0.1544 0.0
H3043 H 0.9888 0.46574 0.14853 0.0
H3044 H 0.95743 0.51203 0.11375 0.0
H3045 H 0.0059 0.48589 0.10055 0.0
H3046 H 0.98924 0.54394 0.14536 0.0
H3047 H 0.96801 0.51435 0.15203 0.0
H3048 H 0.95855 0.52765 0.13757 0.0
H3049 H 0.04928 0.51324 0.12939 0.0
H3050 H 0.03734 0.48862 0.11607 0.0
H3051 H 0.02787 0.48324 0.13533 0.0
C3052 C 0.48622 0.54536 0.16502 0.0
C3053 C 0.47605 0.52794 0.17632 0.0
C3054 C 0.4914 0.53947 0.15087 0.0
C3055 C 0.4865 0.51563 0.14795 0.0
C3056 C 0.47561 0.4978 0.15918 0.0
C3057 C 0.4704 0.50414 0.1732 0.0
C3058 C 0.50268 0.55894 0.13915 0.0
C3059 C 0.47026 0.47222 0.15658 0.0
C3060 C 0.48492 0.49511 0.10772 0.0
C3061 C 0.50866 0.49826 0.10612 0.0
C3062 C 0.47748 0.50081 0.1212 0.0
C3063 C 0.49406 0.5097 0.13347 0.0
C3064 C 0.51803 0.51299 0.13193 0.0
C3065 C 0.52506 0.50736 0.1183 0.0
C3066 C 0.45181 0.49719 0.12235 0.0
C3067 C 0.5363 0.52242 0.14472 0.0
H3068 H 0.49032 0.56371 0.1673 0.0
H3069 H 0.46274 0.49066 0.18193 0.0
H3070 H 0.52153 0.56262 0.13652 0.0
H3071 H 0.4917 0.55275 0.12867 0.0
H3072 H 0.50383 0.57612 0.14284 0.0
H3073 H 0.46054 0.46019 0.16614 0.0
H3074 H 0.45883 0.46454 0.14637 0.0
H3075 H 0.48779 0.47226 0.15475 0.0
H3076 H 0.47197 0.4878 0.09848 0.0
H3077 H 0.54357 0.51031 0.11714 0.0
H3078 H 0.45277 0.51443 0.12565 0.0
H3079 H 0.44143 0.4838 0.13117 0.0
H3080 H 0.44137 0.49076 0.11168 0.0
H3081 H 0.53993 0.54065 0.14816 0.0
H3082 H 0.55411 0.52366 0.14179 0.0
H3083 H 0.52852 0.51039 0.15452 0.0
C3084 C 0.98255 0.4963 0.83404 0.0
C3085 C 0.96228 0.4732 0.83138 0.0
C3086 C 0.99372 0.50278 0.8482 0.0
C3087 C 0.98427 0.48578 0.85995 0.0
C3088 C 0.96345 0.46264 0.8574 0.0
C3089 C 0.95274 0.4566 0.84312 0.0
C3090 C 0.01599 0.52758 0.85049 0.0
C3091 C 0.95269 0.44413 0.8697 0.0
C3092 C 0.02689 0.49174 0.8919 0.0
C3093 C 0.01991 0.50259 0.90306 0.0
C3094 C 0.01557 0.48639 0.87779 0.0
C3095 C 0.9967 0.49185 0.87478 0.0
C3096 C 0.98954 0.50279 0.88596 0.0
C3097 C 1.00129 0.5081 0.89996 0.0
C3098 C 0.0237 0.47471 0.86613 0.0
C3099 C 0.96942 0.50881 0.88316 0.0
H3100 H 0.99008 0.50909 0.82495 0.0
H3101 H 0.93684 0.43886 0.84114 0.0
H3102 H 0.01283 0.53703 0.85991 0.0
H3103 H 0.03221 0.5258 0.85347 0.0
H3104 H 0.02045 0.53901 0.84037 0.0
H3105 H 0.93587 0.42731 0.86603 0.0
H3106 H 0.96654 0.43932 0.87356 0.0
H3107 H 0.94799 0.45182 0.87943 0.0
H3108 H 0.04098 0.48709 0.89428 0.0
H3109 H 0.99603 0.51678 0.90845 0.0
H3110 H 0.02978 0.486 0.85593 0.0
H3111 H 0.00797 0.4568 0.86287 0.0
H3112 H 0.03903 0.47215 0.87014 0.0
H3113 H 0.97445 0.52142 0.87362 0.0
H3114 H 0.96598 0.51722 0.89306 0.0
H3115 H 0.95202 0.49214 0.88009 0.0
C3116 C 0.52342 0.45271 0.84461 0.0
C3117 C 0.53274 0.46974 0.83305 0.0
C3118 C 0.51796 0.45868 0.85865 0.0
C3119 C 0.52175 0.48222 0.8612 0.0
C3120 C 0.53199 0.49976 0.84976 0.0
C3121 C 0.53745 0.49333 0.83584 0.0
C3122 C 0.50736 0.43952 0.87058 0.0
C3123 C 0.53622 0.52503 0.85201 0.0
C3124 C 0.48109 0.48869 0.89014 0.0
C3125 C 0.49708 0.49845 0.90245 0.0
C3126 C 0.48896 0.4835 0.87668 0.0
C3127 C 0.51341 0.48796 0.87546 0.0
C3128 C 0.52963 0.49761 0.88786 0.0
C3129 C 0.52131 0.5028 0.90118 0.0
C3130 C 0.47104 0.47318 0.86374 0.0
C3131 C 0.5558 0.50252 0.88703 0.0
H3132 H 0.52007 0.43454 0.84258 0.0
H3133 H 0.54445 0.50652 0.82694 0.0
H3134 H 0.51809 0.44646 0.8811 0.0
H3135 H 0.48815 0.43493 0.873 0.0
H3136 H 0.50727 0.4227 0.86722 0.0
H3137 H 0.54595 0.53703 0.84244 0.0
H3138 H 0.51825 0.52425 0.85344 0.0
H3139 H 0.54719 0.53324 0.86232 0.0
H3140 H 0.46223 0.48485 0.89106 0.0
H3141 H 0.53392 0.51061 0.91054 0.0
H3142 H 0.46832 0.45519 0.86055 0.0
H3143 H 0.47863 0.4851 0.85388 0.0
H3144 H 0.4528 0.47116 0.86641 0.0
H3145 H 0.55586 0.48563 0.88412 0.0
H3146 H 0.566 0.50974 0.89771 0.0
H3147 H 0.56583 0.51576 0.87806 0.0
C3148 C 0.55242 0.08711 0.84522 0.0
C3149 C 0.53202 0.07739 0.8355 0.0
C3150 C 0.55062 0.07795 0.85973 0.0
C3151 C 0.52787 0.0585 0.86472 0.0
C3152 C 0.50707 0.04898 0.85509 0.0
C3153 C 0.50938 0.05852 0.84065 0.0
C3154 C 0.57326 0.08874 0.86962 0.0
C3155 C 0.48252 0.02815 0.85987 0.0
C3156 C 0.53193 0.01801 0.89439 0.0
C3157 C 0.52642 0.02632 0.90755 0.0
C3158 C 0.53197 0.02799 0.88044 0.0
C3159 C 0.52642 0.04692 0.8795 0.0
C3160 C 0.52017 0.055 0.89269 0.0
C3161 C 0.52014 0.04453 0.90656 0.0
C3162 C 0.53844 0.01855 0.86671 0.0
C3163 C 0.51415 0.07512 0.89221 0.0
H3164 H 0.5699 0.10191 0.84147 0.0
H3165 H 0.49355 0.05064 0.83321 0.0
H3166 H 0.56919 0.0942 0.88054 0.0
H3167 H 0.57871 0.07495 0.87186 0.0
H3168 H 0.58912 0.10476 0.86449 0.0
H3169 H 0.4677 0.02399 0.85155 0.0
H3170 H 0.4841 0.01173 0.86141 0.0
H3171 H 0.47702 0.03228 0.87075 0.0
H3172 H 0.53644 0.00369 0.89503 0.0
H3173 H 0.51598 0.05113 0.91668 0.0
H3174 H 0.55547 0.03325 0.86163 0.0
H3175 H 0.52352 0.01252 0.85823 0.0
H3176 H 0.54141 0.00316 0.86924 0.0
H3177 H 0.53052 0.09206 0.88842 0.0
H3178 H 0.50848 0.07852 0.90329 0.0
H3179 H 0.49912 0.0707 0.88404 0.0
C3180 C 0.12294 0.288 0.50508 0.0
C3181 C 0.12635 0.2685 0.50884 0.0
C3182 C 0.13042 0.29955 0.49118 0.0
C3183 C 0.14158 0.29147 0.48063 0.0
C3184 C 0.14482 0.27161 0.48426 0.0
C3185 C 0.13727 0.26045 0.49831 0.0
C3186 C 0.12679 0.32076 0.48788 0.0
C3187 C 0.15646 0.26228 0.47334 0.0
C3188 C 0.14323 0.31158 0.44026 0.0
C3189 C 0.16703 0.33183 0.43935 0.0
C3190 C 0.13492 0.29785 0.45345 0.0
C3191 C 0.15071 0.3045 0.4661 0.0
C3192 C 0.17496 0.32447 0.4651 0.0
C3193 C 0.18282 0.33777 0.45178 0.0
C3194 C 0.10897 0.27663 0.45397 0.0
C3195 C 0.19248 0.33222 0.47825 0.0
H3196 H 0.1149 0.29464 0.51318 0.0
H3197 H 0.13975 0.24525 0.50102 0.0
H3198 H 0.14493 0.33726 0.48611 0.0
H3199 H 0.11591 0.31735 0.47745 0.0
H3200 H 0.11717 0.3244 0.49706 0.0
H3201 H 0.15688 0.24616 0.47761 0.0
H3202 H 0.14615 0.25742 0.4626 0.0
H3203 H 0.17561 0.27667 0.47095 0.0
H3204 H 0.13076 0.30688 0.43082 0.0
H3205 H 0.20141 0.35302 0.45115 0.0
H3206 H 0.098 0.28045 0.46209 0.0
H3207 H 0.10912 0.26021 0.45788 0.0
H3208 H 0.09962 0.27268 0.44292 0.0
H3209 H 0.18491 0.3378 0.48766 0.0
H3210 H 0.21103 0.34754 0.47551 0.0
H3211 H 0.1945 0.31683 0.48218 0.0
C3212 C 0.71063 0.86763 0.49199 0.0
C3213 C 0.70203 0.85213 0.50432 0.0
C3214 C 0.69905 0.86022 0.47796 0.0
C3215 C 0.67821 0.83681 0.47625 0.0
C3216 C 0.6696 0.82098 0.48863 0.0
C3217 C 0.68167 0.8288 0.50249 0.0
C3218 C 0.70897 0.87751 0.465 0.0
C3219 C 0.64732 0.79596 0.48731 0.0
C3220 C 0.63234 0.82557 0.44503 0.0
C3221 C 0.63802 0.8127 0.43454 0.0
C3222 C 0.64542 0.83369 0.45856 0.0
C3223 C 0.66487 0.82909 0.46166 0.0
C3224 C 0.67113 0.81666 0.45098 0.0
C3225 C 0.65758 0.80853 0.43759 0.0
C3226 C 0.63815 0.84689 0.46963 0.0
C3227 C 0.69188 0.81156 0.45383 0.0
H3228 H 0.72656 0.88557 0.4933 0.0
H3229 H 0.67478 0.81683 0.51202 0.0
H3230 H 0.71327 0.86898 0.45555 0.0
H3231 H 0.69478 0.88176 0.461 0.0
H3232 H 0.72587 0.89473 0.46803 0.0
H3233 H 0.64334 0.78565 0.49788 0.0
H3234 H 0.63091 0.79734 0.48417 0.0
H3235 H 0.65014 0.78557 0.47834 0.0
H3236 H 0.61759 0.82931 0.44267 0.0
H3237 H 0.66196 0.79839 0.42966 0.0
H3238 H 0.65417 0.86499 0.47218 0.0
H3239 H 0.63243 0.83672 0.48027 0.0
H3240 H 0.62278 0.84927 0.46546 0.0
H3241 H 0.70912 0.82863 0.45652 0.0
H3242 H 0.69528 0.80281 0.44409 0.0
H3243 H 0.68746 0.79951 0.46362 0.0
C3244 C 0.1271 0.83025 0.50044 0.0
C3245 C 0.13215 0.85408 0.50273 0.0
C3246 C 0.132 0.82286 0.48666 0.0
C3247 C 0.14203 0.83962 0.47477 0.0
C3248 C 0.14616 0.8634 0.47682 0.0
C3249 C 0.1413 0.87036 0.49076 0.0
C3250 C 0.12746 0.79738 0.48503 0.0
C3251 C 0.1565 0.88176 0.46443 0.0
C3252 C 0.1815 0.82866 0.44711 0.0
C3253 C 0.16496 0.8167 0.43528 0.0
C3254 C 0.17439 0.83661 0.45981 0.0
C3255 C 0.15015 0.83283 0.46074 0.0
C3256 C 0.13368 0.82181 0.44854 0.0
C3257 C 0.14125 0.81383 0.43598 0.0
C3258 C 0.19268 0.84841 0.47244 0.0
C3259 C 0.10779 0.8177 0.44897 0.0
H3260 H 0.12024 0.8176 0.50963 0.0
H3261 H 0.14492 0.88871 0.49234 0.0
H3262 H 0.11602 0.78857 0.47497 0.0
H3263 H 0.14528 0.79789 0.48352 0.0
H3264 H 0.11808 0.78608 0.49492 0.0
H3265 H 0.15645 0.8987 0.46729 0.0
H3266 H 0.17574 0.88637 0.46211 0.0
H3267 H 0.14571 0.87409 0.454 0.0
H3268 H 0.20003 0.83147 0.44656 0.0
H3269 H 0.12828 0.80454 0.42696 0.0
H3270 H 0.18564 0.83724 0.48265 0.0
H3271 H 0.19498 0.86644 0.47507 0.0
H3272 H 0.21104 0.85072 0.4698 0.0
H3273 H 0.09705 0.80403 0.45759 0.0
H3274 H 0.09812 0.81124 0.43806 0.0
H3275 H 0.10804 0.83466 0.45214 0.0
C3276 C 0.62277 0.8199 0.17584 0.0
C3277 C 0.63164 0.8095 0.16553 0.0
C3278 C 0.63316 0.82674 0.19019 0.0
C3279 C 0.65281 0.82298 0.19435 0.0
C3280 C 0.6619 0.81257 0.18399 0.0
C3281 C 0.65126 0.80603 0.1697 0.0
C3282 C 0.62301 0.83783 0.20093 0.0
C3283 C 0.68283 0.80827 0.18801 0.0
C3284 C 0.69531 0.85881 0.22651 0.0
C3285 C 0.68613 0.84188 0.2381 0.0
C3286 C 0.68435 0.85306 0.21227 0.0
C3287 C 0.66383 0.82977 0.20956 0.0
C3288 C 0.65429 0.81271 0.22127 0.0
C3289 C 0.66554 0.81899 0.23541 0.0
C3290 C 0.6949 0.8718 0.20009 0.0
C3291 C 0.63251 0.78765 0.21878 0.0
H3292 H 0.60741 0.82236 0.17278 0.0
H3293 H 0.65849 0.79838 0.16173 0.0
H3294 H 0.61568 0.8263 0.21097 0.0
H3295 H 0.63794 0.85583 0.20475 0.0
H3296 H 0.60805 0.84004 0.19586 0.0
H3297 H 0.68767 0.7999 0.17869 0.0
H3298 H 0.69942 0.82566 0.19112 0.0
H3299 H 0.67778 0.79625 0.19786 0.0
H3300 H 0.71102 0.87663 0.2286 0.0
H3301 H 0.65855 0.80575 0.24429 0.0
H3302 H 0.68035 0.87501 0.19544 0.0
H3303 H 0.7016 0.86508 0.19081 0.0
H3304 H 0.71041 0.88932 0.20416 0.0
H3305 H 0.61658 0.78885 0.2144 0.0
H3306 H 0.62684 0.77679 0.22918 0.0
H3307 H 0.63718 0.7779 0.21028 0.0
C3308 C 0.17525 0.78921 0.1761 0.0
C3309 C 0.1984 0.80192 0.16913 0.0
C3310 C 0.17135 0.79538 0.1905 0.0
C3311 C 0.19057 0.81571 0.19791 0.0
C3312 C 0.21384 0.82893 0.19098 0.0
C3313 C 0.21765 0.82155 0.17689 0.0
C3314 C 0.14645 0.78028 0.19766 0.0
C3315 C 0.23455 0.85132 0.19825 0.0
C3316 C 0.16899 0.84539 0.2263 0.0
C3317 C 0.17507 0.83894 0.24004 0.0
C3318 C 0.17483 0.83876 0.21263 0.0
C3319 C 0.18573 0.82398 0.21248 0.0
C3320 C 0.19123 0.81664 0.22618 0.0
C3321 C 0.18639 0.82464 0.23975 0.0
C3322 C 0.16927 0.84763 0.19831 0.0
C3323 C 0.20191 0.80003 0.2265 0.0
H3324 H 0.15982 0.77452 0.17031 0.0
H3325 H 0.23581 0.83134 0.17202 0.0
H3326 H 0.14866 0.77559 0.20927 0.0
H3327 H 0.13671 0.79075 0.19823 0.0
H3328 H 0.13465 0.76325 0.19136 0.0
H3329 H 0.25144 0.85983 0.19131 0.0
H3330 H 0.22858 0.8648 0.20023 0.0
H3331 H 0.23922 0.84678 0.20927 0.0
H3332 H 0.15941 0.85556 0.2261 0.0
H3333 H 0.19163 0.81969 0.25011 0.0
H3334 H 0.15451 0.83216 0.19199 0.0
H3335 H 0.18584 0.8561 0.19111 0.0
H3336 H 0.16321 0.86104 0.20037 0.0
H3337 H 0.18981 0.78322 0.2201 0.0
H3338 H 0.20405 0.79503 0.23805 0.0
H3339 H 0.22019 0.80885 0.22105 0.0
C3340 C 0.17141 0.38434 0.17181 0.0
C3341 C 0.19446 0.39448 0.16467 0.0
C3342 C 0.1676 0.37387 0.18606 0.0
C3343 C 0.18676 0.37196 0.19315 0.0
C3344 C 0.20993 0.3817 0.18605 0.0
C3345 C 0.21369 0.39338 0.17219 0.0
C3346 C 0.14288 0.36464 0.19345 0.0
C3347 C 0.23064 0.37929 0.19292 0.0
C3348 C 0.18482 0.35843 0.23487 0.0
C3349 C 0.17364 0.333 0.23499 0.0
C3350 C 0.18852 0.37127 0.22144 0.0
C3351 C 0.18215 0.35866 0.20762 0.0
C3352 C 0.17116 0.33316 0.20758 0.0
C3353 C 0.16635 0.32069 0.22117 0.0
C3354 C 0.19922 0.39836 0.22208 0.0
C3355 C 0.16474 0.31894 0.19312 0.0
H3356 H 0.15594 0.38415 0.16629 0.0
H3357 H 0.23185 0.40155 0.16732 0.0
H3358 H 0.13286 0.34458 0.19368 0.0
H3359 H 0.14539 0.37112 0.20519 0.0
H3360 H 0.13119 0.37054 0.18752 0.0
H3361 H 0.24717 0.38679 0.18568 0.0
H3362 H 0.23607 0.38881 0.20384 0.0
H3363 H 0.22435 0.35992 0.19503 0.0
H3364 H 0.19105 0.36858 0.24521 0.0
H3365 H 0.15681 0.30113 0.22081 0.0
H3366 H 0.18769 0.40362 0.21542 0.0
H3367 H 0.21791 0.40755 0.21715 0.0
H3368 H 0.2006 0.40511 0.2337 0.0
H3369 H 0.14994 0.32032 0.18718 0.0
H3370 H 0.1584 0.29948 0.19494 0.0
H3371 H 0.18102 0.32656 0.18568 0.0
C3372 C 0.79191 0.62082 0.83819 0.0
C3373 C 0.79543 0.60135 0.84182 0.0
C3374 C 0.79926 0.63249 0.82431 0.0
C3375 C 0.81043 0.62457 0.81367 0.0
C3376 C 0.81381 0.60476 0.81718 0.0
C3377 C 0.80636 0.59345 0.83119 0.0
C3378 C 0.79546 0.65364 0.82115 0.0
C3379 C 0.82547 0.59561 0.80615 0.0
C3380 C 0.8115 0.64462 0.77336 0.0
C3381 C 0.83523 0.66494 0.77237 0.0
C3382 C 0.80339 0.63091 0.78656 0.0
C3383 C 0.81932 0.63766 0.79915 0.0
C3384 C 0.84351 0.65773 0.79808 0.0
C3385 C 0.85116 0.67101 0.78475 0.0
C3386 C 0.7775 0.6096 0.78717 0.0
C3387 C 0.86117 0.66557 0.81116 0.0
H3388 H 0.78386 0.62735 0.84637 0.0
H3389 H 0.80893 0.57828 0.83379 0.0
H3390 H 0.81354 0.67021 0.81935 0.0
H3391 H 0.78448 0.65023 0.81076 0.0
H3392 H 0.78589 0.65717 0.8304 0.0
H3393 H 0.82611 0.57956 0.81035 0.0
H3394 H 0.81504 0.59069 0.79545 0.0
H3395 H 0.84455 0.61012 0.80369 0.0
H3396 H 0.79893 0.63982 0.76396 0.0
H3397 H 0.8697 0.68634 0.78405 0.0
H3398 H 0.76659 0.6133 0.7954 0.0
H3399 H 0.77781 0.59322 0.79098 0.0
H3400 H 0.76798 0.60565 0.77617 0.0
H3401 H 0.85362 0.67105 0.82063 0.0
H3402 H 0.87964 0.68099 0.80837 0.0
H3403 H 0.86337 0.65025 0.81502 0.0
C3404 C 0.37658 0.17995 0.83093 0.0
C3405 C 0.36909 0.19138 0.84139 0.0
C3406 C 0.36531 0.17304 0.81679 0.0
C3407 C 0.34617 0.17779 0.813 0.0
C3408 C 0.33848 0.18925 0.82351 0.0
C3409 C 0.34995 0.19581 0.83758 0.0
C3410 C 0.37398 0.16082 0.80589 0.0
C3411 C 0.31814 0.19463 0.81988 0.0
C3412 C 0.33201 0.18122 0.77208 0.0
C3413 C 0.31074 0.15866 0.76977 0.0
C3414 C 0.34386 0.18759 0.78605 0.0
C3415 C 0.33426 0.17097 0.79799 0.0
C3416 C 0.31295 0.14807 0.79569 0.0
C3417 C 0.3014 0.14222 0.78161 0.0
C3418 C 0.36645 0.21225 0.7881 0.0
C3419 C 0.30228 0.12979 0.80811 0.0
H3420 H 0.39154 0.17671 0.8337 0.0
H3421 H 0.34375 0.20425 0.84567 0.0
H3422 H 0.35829 0.14304 0.80239 0.0
H3423 H 0.38118 0.17197 0.79569 0.0
H3424 H 0.38868 0.15792 0.81068 0.0
H3425 H 0.3144 0.20374 0.82927 0.0
H3426 H 0.32315 0.20639 0.80991 0.0
H3427 H 0.30091 0.17758 0.81713 0.0
H3428 H 0.33916 0.1941 0.76301 0.0
H3429 H 0.28516 0.12464 0.77983 0.0
H3430 H 0.38217 0.21034 0.7921 0.0
H3431 H 0.36291 0.22265 0.79673 0.0
H3432 H 0.37191 0.22285 0.7776 0.0
H3433 H 0.31643 0.12573 0.81245 0.0
H3434 H 0.28595 0.11258 0.8044 0.0
H3435 H 0.29677 0.13738 0.81752 0.0
C3436 C 0.78884 0.17307 0.83263 0.0
C3437 C 0.8083 0.18477 0.84293 0.0
C3438 C 0.79268 0.16609 0.81842 0.0
C3439 C 0.81655 0.17089 0.81439 0.0
C3440 C 0.83621 0.18252 0.82478 0.0
C3441 C 0.83185 0.18925 0.83889 0.0
C3442 C 0.77123 0.15374 0.80767 0.0
C3443 C 0.86193 0.18789 0.82097 0.0
C3444 C 0.82498 0.13503 0.78318 0.0
C3445 C 0.83266 0.15144 0.77128 0.0
C3446 C 0.81917 0.14091 0.79715 0.0
C3447 C 0.82111 0.1638 0.79934 0.0
C3448 C 0.82838 0.18027 0.7873 0.0
C3449 C 0.83405 0.1739 0.77343 0.0
C3450 C 0.81134 0.12276 0.80965 0.0
C3451 C 0.83074 0.20488 0.78917 0.0
H3452 H 0.77065 0.16977 0.83557 0.0
H3453 H 0.84692 0.1979 0.84684 0.0
H3454 H 0.7751 0.16476 0.79742 0.0
H3455 H 0.7687 0.13591 0.80423 0.0
H3456 H 0.75374 0.15094 0.81258 0.0
H3457 H 0.87522 0.19711 0.83027 0.0
H3458 H 0.86175 0.17083 0.81823 0.0
H3459 H 0.8686 0.19957 0.81095 0.0
H3460 H 0.82346 0.11749 0.78155 0.0
H3461 H 0.8402 0.18681 0.76437 0.0
H3462 H 0.79326 0.11897 0.81411 0.0
H3463 H 0.82487 0.13034 0.81897 0.0
H3464 H 0.80983 0.10541 0.80598 0.0
H3465 H 0.81324 0.20297 0.79341 0.0
H3466 H 0.83547 0.21515 0.77855 0.0
H3467 H 0.84529 0.21562 0.79756 0.0
C3468 C 0.31863 0.13595 0.50007 0.0
C3469 C 0.29854 0.13895 0.49636 0.0
C3470 C 0.32941 0.142 0.51433 0.0
C3471 C 0.32004 0.15151 0.52511 0.0
C3472 C 0.29983 0.15468 0.52146 0.0
C3473 C 0.28925 0.14827 0.50714 0.0
C3474 C 0.3509 0.1383 0.51783 0.0
C3475 C 0.2894 0.16485 0.53268 0.0
C3476 C 0.33421 0.14749 0.56589 0.0
C3477 C 0.35427 0.17072 0.56857 0.0
C3478 C 0.32278 0.14103 0.55181 0.0
C3479 C 0.33154 0.15827 0.54019 0.0
C3480 C 0.35164 0.18183 0.54287 0.0
C3481 C 0.36285 0.18774 0.55703 0.0
C3482 C 0.30153 0.11566 0.54932 0.0
C3483 C 0.36132 0.20076 0.53079 0.0
H3484 H 0.3262 0.12917 0.49174 0.0
H3485 H 0.27354 0.15035 0.50443 0.0
H3486 H 0.36735 0.15587 0.5208 0.0
H3487 H 0.34656 0.12627 0.52763 0.0
H3488 H 0.35562 0.13021 0.5083 0.0
H3489 H 0.27378 0.16639 0.52803 0.0
H3490 H 0.28291 0.15311 0.54267 0.0
H3491 H 0.30399 0.18304 0.53646 0.0
H3492 H 0.3277 0.13424 0.57476 0.0
H3493 H 0.37815 0.2058 0.55914 0.0
H3494 H 0.30629 0.10653 0.54045 0.0
H3495 H 0.28503 0.11629 0.54543 0.0
H3496 H 0.29669 0.10455 0.5596 0.0
H3497 H 0.36787 0.19445 0.52121 0.0
H3498 H 0.37675 0.21838 0.53479 0.0
H3499 H 0.34631 0.20364 0.52657 0.0
C3500 C 0.89341 0.14785 0.51009 0.0
C3501 C 0.87301 0.13965 0.50047 0.0
C3502 C 0.89253 0.15499 0.52483 0.0
C3503 C 0.8707 0.15387 0.53011 0.0
C3504 C 0.84992 0.14527 0.52054 0.0
C3505 C 0.85134 0.13832 0.50585 0.0
C3506 C 0.91508 0.16408 0.53468 0.0
C3507 C 0.82633 0.14386 0.52573 0.0
C3508 C 0.86219 0.15569 0.5721 0.0
C3509 C 0.86952 0.18015 0.57443 0.0
C3510 C 0.86235 0.14681 0.55773 0.0
C3511 C 0.87 0.16276 0.54541 0.0
C3512 C 0.87716 0.18739 0.54768 0.0
C3513 C 0.8768 0.19575 0.56213 0.0
C3514 C 0.85455 0.12042 0.55574 0.0
C3515 C 0.88531 0.20497 0.53484 0.0
H3516 H 0.9101 0.1486 0.50611 0.0
H3517 H 0.8356 0.13233 0.49845 0.0
H3518 H 0.92173 0.18316 0.53798 0.0
H3519 H 0.91038 0.15332 0.54509 0.0
H3520 H 0.93034 0.16311 0.52905 0.0
H3521 H 0.81146 0.13567 0.51717 0.0
H3522 H 0.81978 0.133 0.53608 0.0
H3523 H 0.82977 0.16228 0.52845 0.0
H3524 H 0.85674 0.14358 0.58156 0.0
H3525 H 0.88205 0.21457 0.56378 0.0
H3526 H 0.87003 0.11873 0.55112 0.0
H3527 H 0.83908 0.11179 0.54761 0.0
H3528 H 0.84867 0.11029 0.56641 0.0
H3529 H 0.90157 0.20583 0.52933 0.0
H3530 H 0.89021 0.22352 0.53848 0.0
H3531 H 0.87041 0.19865 0.52633 0.0
C3532 C 0.84683 0.73071 0.51005 0.0
C3533 C 0.85595 0.7228 0.49833 0.0
C3534 C 0.84195 0.71964 0.52414 0.0
C3535 C 0.84618 0.70009 0.52659 0.0
C3536 C 0.85581 0.6923 0.51489 0.0
C3537 C 0.86061 0.70376 0.50093 0.0
C3538 C 0.83191 0.72864 0.53633 0.0
C3539 C 0.86048 0.67146 0.51701 0.0
C3540 C 0.85057 0.68135 0.56638 0.0
C3541 C 0.82691 0.66133 0.56846 0.0
C3542 C 0.85706 0.6943 0.5529 0.0
C3543 C 0.83951 0.68706 0.54116 0.0
C3544 C 0.81553 0.66708 0.54325 0.0
C3545 C 0.80952 0.65455 0.55685 0.0
C3546 C 0.88279 0.71554 0.55114 0.0
C3547 C 0.79622 0.6588 0.53106 0.0
H3548 H 0.84354 0.74565 0.50821 0.0
H3549 H 0.86742 0.69737 0.49191 0.0
H3550 H 0.81327 0.71406 0.53955 0.0
H3551 H 0.84381 0.7335 0.54642 0.0
H3552 H 0.83066 0.74469 0.53284 0.0
H3553 H 0.86898 0.66827 0.50703 0.0
H3554 H 0.8728 0.67497 0.52677 0.0
H3555 H 0.84285 0.65468 0.51936 0.0
H3556 H 0.86423 0.68661 0.5752 0.0
H3557 H 0.79107 0.63942 0.55841 0.0
H3558 H 0.88198 0.73197 0.5481 0.0
H3559 H 0.89229 0.71187 0.54193 0.0
H3560 H 0.89401 0.71939 0.56149 0.0
H3561 H 0.793 0.6738 0.52792 0.0
H3562 H 0.7784 0.64303 0.53447 0.0
H3563 H 0.80281 0.65373 0.52094 0.0
loop_
_geom_bond_atom_site_label_1
_geom_bond_atom_site_label_2
_geom_bond_distance
_geom_bond_site_symmetry_2
_ccdc_geom_bond_type
C0 C1 1.391 . S
C0 C4 1.391 . S
C0 H42 0.948 . S
C1 C0 1.391 . S
C1 C2 1.391 . S
C2 C1 1.391 . S
C2 H58 0.947 . S
C2 C59 1.392 . S
C3 C4 1.391 . S
C3 C7 1.397 . S
C3 C59 1.419 . S
C4 C0 1.391 . S
C4 C3 1.391 . S
C4 C5 1.399 . S
C5 C4 1.399 . S
C5 C8 1.396 . S
C5 C17 1.453 . S
C5 C18 1.684 . S
H6 C30 0.948 . S
C7 C3 1.397 . S
C7 C8 1.394 . S
C7 C26 1.723 . S
C8 C5 1.396 . S
C8 C7 1.394 . S
C8 C38 1.723 . S
H9 C32 0.947 . S
H10 C33 0.948 . S
H11 C39 0.982 . S
H12 C40 0.979 . S
H13 C40 0.980 . S
H14 C40 0.983 . S
H15 C39 0.979 . S
H16 C39 0.977 . S
C17 C5 1.453 . S
C17 H46 0.982 . S
C17 H47 0.979 . S
C17 H48 0.977 . S
C18 C5 1.684 . S
C18 H43 0.979 . S
C18 H44 0.980 . S
C18 H45 0.983 . S
C19 C20 1.391 . S
C19 C24 1.391 . S
C19 H49 0.948 . S
C20 C19 1.391 . S
C20 C21 1.391 . S
C21 C20 1.391 . S
C21 C22 1.392 . S
C21 H50 0.947 . S
C22 C21 1.392 . S
C22 C23 1.419 . S
C22 H51 0.948 . S
C23 C22 1.419 . S
C23 C24 1.391 . S
C23 C27 1.397 . S
C24 C19 1.391 . S
C24 C23 1.391 . S
C24 C25 1.399 . S
C25 C24 1.399 . S
C25 C26 1.396 . S
C25 C28 1.453 . S
C25 C29 1.684 . S
C26 C7 1.723 . S
C26 C25 1.396 . S
C26 C27 1.394 . S
C27 C23 1.397 . S
C27 C26 1.394 . S
C27 C37 1.723 . S
C28 C25 1.453 . S
C28 H52 0.982 . S
C28 H53 0.979 . S
C28 H54 0.977 . S
C29 C25 1.684 . S
C29 H55 0.979 . S
C29 H56 0.980 . S
C29 H57 0.983 . S
C30 H6 0.948 . S
C30 C31 1.391 . S
C30 C35 1.391 . S
C31 C30 1.391 . S
C31 C32 1.391 . S
C32 H9 0.947 . S
C32 C31 1.391 . S
C32 C33 1.392 . S
C33 H10 0.948 . S
C33 C32 1.392 . S
C33 C34 1.419 . S
C34 C33 1.419 . S
C34 C35 1.391 . S
C34 C38 1.397 . S
C35 C30 1.391 . S
C35 C34 1.391 . S
C35 C36 1.399 . S
C36 C35 1.399 . S
C36 C37 1.396 . S
C36 C39 1.453 . S
C36 C40 1.684 . S
C37 C27 1.723 . S
C37 C36 1.396 . S
C37 C38 1.394 . S
C38 C8 1.723 . S
C38 C34 1.397 . S
C38 C37 1.394 . S
C39 H11 0.982 . S
C39 H15 0.979 . S
C39 H16 0.977 . S
C39 C36 1.453 . S
C40 H12 0.979 . S
C40 H13 0.980 . S
C40 H14 0.983 . S
C40 C36 1.684 . S
H41 C59 0.948 . S
H42 C0 0.948 . S
H43 C18 0.979 . S
H44 C18 0.980 . S
H45 C18 0.983 . S
H46 C17 0.982 . S
H47 C17 0.979 . S
H48 C17 0.977 . S
H49 C19 0.948 . S
H50 C21 0.947 . S
H51 C22 0.948 . S
H52 C28 0.982 . S
H53 C28 0.979 . S
H54 C28 0.977 . S
H55 C29 0.979 . S
H56 C29 0.980 . S
H57 C29 0.983 . S
H58 C2 0.947 . S
C59 C2 1.392 . S
C59 C3 1.419 . S
C59 H41 0.948 . S
C60 C61 1.391 . S
C60 C64 1.391 . S
C60 H102 0.948 . S
C61 C60 1.391 . S
C61 C62 1.391 . S
C62 C61 1.391 . S
C62 H118 0.947 . S
C62 C119 1.392 . S
C63 C64 1.391 . S
C63 C67 1.397 . S
C63 C119 1.419 . S
C64 C60 1.391 . S
C64 C63 1.391 . S
C64 C65 1.399 . S
C65 C64 1.399 . S
C65 C68 1.396 . S
C65 C77 1.453 . S
C65 C78 1.684 . S
H66 C90 0.948 . S
C67 C63 1.397 . S
C67 C68 1.394 . S
C67 C86 1.723 . S
C68 C65 1.396 . S
C68 C67 1.394 . S
C68 C98 1.723 . S
H69 C92 0.947 . S
H70 C93 0.948 . S
H71 C99 0.982 . S
H72 C100 0.979 . S
H73 C100 0.980 . S
H74 C100 0.983 . S
H75 C99 0.979 . S
H76 C99 0.977 . S
C77 C65 1.453 . S
C77 H106 0.982 . S
C77 H107 0.979 . S
C77 H108 0.977 . S
C78 C65 1.684 . S
C78 H103 0.979 . S
C78 H104 0.980 . S
C78 H105 0.983 . S
C79 C80 1.391 . S
C79 C84 1.391 . S
C79 H109 0.948 . S
C80 C79 1.391 . S
C80 C81 1.391 . S
C81 C80 1.391 . S
C81 C82 1.392 . S
C81 H110 0.947 . S
C82 C81 1.392 . S
C82 C83 1.419 . S
C82 H111 0.948 . S
C83 C82 1.419 . S
C83 C84 1.391 . S
C83 C87 1.397 . S
C84 C79 1.391 . S
C84 C83 1.391 . S
C84 C85 1.399 . S
C85 C84 1.399 . S
C85 C86 1.396 . S
C85 C88 1.453 . S
C85 C89 1.684 . S
C86 C67 1.723 . S
C86 C85 1.396 . S
C86 C87 1.394 . S
C87 C83 1.397 . S
C87 C86 1.394 . S
C87 C97 1.723 . S
C88 C85 1.453 . S
C88 H112 0.982 . S
C88 H113 0.979 . S
C88 H114 0.977 . S
C89 C85 1.684 . S
C89 H115 0.979 . S
C89 H116 0.980 . S
C89 H117 0.983 . S
C90 H66 0.948 . S
C90 C91 1.391 . S
C90 C95 1.391 . S
C91 C90 1.391 . S
C91 C92 1.391 . S
C92 H69 0.947 . S
C92 C91 1.391 . S
C92 C93 1.392 . S
C93 H70 0.948 . S
C93 C92 1.392 . S
C93 C94 1.419 . S
C94 C93 1.419 . S
C94 C95 1.391 . S
C94 C98 1.397 . S
C95 C90 1.391 . S
C95 C94 1.391 . S
C95 C96 1.399 . S
C96 C95 1.399 . S
C96 C97 1.396 . S
C96 C99 1.453 . S
C96 C100 1.684 . S
C97 C87 1.723 . S
C97 C96 1.396 . S
C97 C98 1.394 . S
C98 C68 1.723 . S
C98 C94 1.397 . S
C98 C97 1.394 . S
C99 H71 0.982 . S
C99 H75 0.979 . S
C99 H76 0.977 . S
C99 C96 1.453 . S
C100 H72 0.979 . S
C100 H73 0.980 . S
C100 H74 0.983 . S
C100 C96 1.684 . S
H101 C119 0.948 . S
H102 C60 0.948 . S
H103 C78 0.979 . S
H104 C78 0.980 . S
H105 C78 0.983 . S
H106 C77 0.982 . S
H107 C77 0.979 . S
H108 C77 0.977 . S
H109 C79 0.948 . S
H110 C81 0.947 . S
H111 C82 0.948 . S
H112 C88 0.982 . S
H113 C88 0.979 . S
H114 C88 0.977 . S
H115 C89 0.979 . S
H116 C89 0.980 . S
H117 C89 0.983 . S
H118 C62 0.947 . S
C119 C62 1.392 . S
C119 C63 1.419 . S
C119 H101 0.948 . S
C120 C121 1.391 . S
C120 C124 1.391 . S
C120 H162 0.948 . S
C121 C120 1.391 . S
C121 C122 1.391 . S
C122 C121 1.391 . S
C122 H178 0.947 . S
C122 C179 1.392 . S
C123 C124 1.391 . S
C123 C127 1.397 . S
C123 C179 1.419 . S
C124 C120 1.391 . S
C124 C123 1.391 . S
C124 C125 1.399 . S
C125 C124 1.399 . S
C125 C128 1.396 . S
C125 C137 1.453 . S
C125 C138 1.684 . S
H126 C150 0.948 . S
C127 C123 1.397 . S
C127 C128 1.394 . S
C127 C146 1.723 . S
C128 C125 1.396 . S
C128 C127 1.394 . S
C128 C158 1.723 . S
H129 C152 0.947 . S
H130 C153 0.948 . S
H131 C159 0.982 . S
H132 C160 0.979 . S
H133 C160 0.980 . S
H134 C160 0.983 . S
H135 C159 0.979 . S
H136 C159 0.977 . S
C137 C125 1.453 . S
C137 H166 0.982 . S
C137 H167 0.979 . S
C137 H168 0.977 . S
C138 C125 1.684 . S
C138 H163 0.979 . S
C138 H164 0.980 . S
C138 H165 0.983 . S
C139 C140 1.391 . S
C139 C144 1.391 . S
C139 H169 0.948 . S
C140 C139 1.391 . S
C140 C141 1.391 . S
C141 C140 1.391 . S
C141 C142 1.392 . S
C141 H170 0.947 . S
C142 C141 1.392 . S
C142 C143 1.419 . S
C142 H171 0.948 . S
C143 C142 1.419 . S
C143 C144 1.391 . S
C143 C147 1.397 . S
C144 C139 1.391 . S
C144 C143 1.391 . S
C144 C145 1.399 . S
C145 C144 1.399 . S
C145 C146 1.396 . S
C145 C148 1.453 . S
C145 C149 1.684 . S
C146 C127 1.723 . S
C146 C145 1.396 . S
C146 C147 1.394 . S
C147 C143 1.397 . S
C147 C146 1.394 . S
C147 C157 1.723 . S
C148 C145 1.453 . S
C148 H172 0.982 . S
C148 H173 0.979 . S
C148 H174 0.977 . S
C149 C145 1.684 . S
C149 H175 0.979 . S
C149 H176 0.980 . S
C149 H177 0.983 . S
C150 H126 0.948 . S
C150 C151 1.391 . S
C150 C155 1.391 . S
C151 C150 1.391 . S
C151 C152 1.391 . S
C152 H129 0.947 . S
C152 C151 1.391 . S
C152 C153 1.392 . S
C153 H130 0.948 . S
C153 C152 1.392 . S
C153 C154 1.419 . S
C154 C153 1.419 . S
C154 C155 1.391 . S
C154 C158 1.397 . S
C155 C150 1.391 . S
C155 C154 1.391 . S
C155 C156 1.399 . S
C156 C155 1.399 . S
C156 C157 1.396 . S
C156 C159 1.453 . S
C156 C160 1.684 . S
C157 C147 1.723 . S
C157 C156 1.396 . S
C157 C158 1.394 . S
C158 C128 1.723 . S
C158 C154 1.397 . S
C158 C157 1.394 . S
C159 H131 0.982 . S
C159 H135 0.979 . S
C159 H136 0.977 . S
C159 C156 1.453 . S
C160 H132 0.979 . S
C160 H133 0.980 . S
C160 H134 0.983 . S
C160 C156 1.684 . S
H161 C179 0.948 . S
H162 C120 0.948 . S
H163 C138 0.979 . S
H164 C138 0.980 . S
H165 C138 0.983 . S
H166 C137 0.982 . S
H167 C137 0.979 . S
H168 C137 0.977 . S
H169 C139 0.948 . S
H170 C141 0.947 . S
H171 C142 0.948 . S
H172 C148 0.982 . S
H173 C148 0.979 . S
H174 C148 0.977 . S
H175 C149 0.979 . S
H176 C149 0.980 . S
H177 C149 0.983 . S
H178 C122 0.947 . S
C179 C122 1.392 . S
C179 C123 1.419 . S
C179 H161 0.948 . S
C180 C181 1.391 . S
C180 C184 1.391 . S
C180 H222 0.948 . S
C181 C180 1.391 . S
C181 C182 1.391 . S
C182 C181 1.391 . S
C182 H238 0.947 . S
C182 C239 1.392 . S
C183 C184 1.391 . S
C183 C187 1.397 . S
C183 C239 1.419 . S
C184 C180 1.391 . S
C184 C183 1.391 . S
C184 C185 1.399 . S
C185 C184 1.399 . S
C185 C188 1.396 . S
C185 C197 1.453 . S
C185 C198 1.684 . S
H186 C210 0.948 . S
C187 C183 1.397 . S
C187 C188 1.394 . S
C187 C206 1.723 . S
C188 C185 1.396 . S
C188 C187 1.394 . S
C188 C218 1.723 . S
H189 C212 0.947 . S
H190 C213 0.948 . S
H191 C219 0.982 . S
H192 C220 0.979 . S
H193 C220 0.980 . S
H194 C220 0.983 . S
H195 C219 0.979 . S
H196 C219 0.977 . S
C197 C185 1.453 . S
C197 H226 0.982 . S
C197 H227 0.979 . S
C197 H228 0.977 . S
C198 C185 1.684 . S
C198 H223 0.979 . S
C198 H224 0.980 . S
C198 H225 0.983 . S
C199 C200 1.391 . S
C199 C204 1.391 . S
C199 H229 0.948 . S
C200 C199 1.391 . S
C200 C201 1.391 . S
C201 C200 1.391 . S
C201 C202 1.392 . S
C201 H230 0.947 . S
C202 C201 1.392 . S
C202 C203 1.419 . S
C202 H231 0.948 . S
C203 C202 1.419 . S
C203 C204 1.391 . S
C203 C207 1.397 . S
C204 C199 1.391 . S
C204 C203 1.391 . S
C204 C205 1.399 . S
C205 C204 1.399 . S
C205 C206 1.396 . S
C205 C208 1.453 . S
C205 C209 1.684 . S
C206 C187 1.723 . S
C206 C205 1.396 . S
C206 C207 1.394 . S
C207 C203 1.397 . S
C207 C206 1.394 . S
C207 C217 1.723 . S
C208 C205 1.453 . S
C208 H232 0.982 . S
C208 H233 0.979 . S
C208 H234 0.977 . S
C209 C205 1.684 . S
C209 H235 0.979 . S
C209 H236 0.980 . S
C209 H237 0.983 . S
C210 H186 0.948 . S
C210 C211 1.391 . S
C210 C215 1.391 . S
C211 C210 1.391 . S
C211 C212 1.391 . S
C212 H189 0.947 . S
C212 C211 1.391 . S
C212 C213 1.392 . S
C213 H190 0.948 . S
C213 C212 1.392 . S
C213 C214 1.419 . S
C214 C213 1.419 . S
C214 C215 1.391 . S
C214 C218 1.397 . S
C215 C210 1.391 . S
C215 C214 1.391 . S
C215 C216 1.399 . S
C216 C215 1.399 . S
C216 C217 1.396 . S
C216 C219 1.453 . S
C216 C220 1.684 . S
C217 C207 1.723 . S
C217 C216 1.396 . S
C217 C218 1.394 . S
C218 C188 1.723 . S
C218 C214 1.397 . S
C218 C217 1.394 . S
C219 H191 0.982 . S
C219 H195 0.979 . S
C219 H196 0.977 . S
C219 C216 1.453 . S
C220 H192 0.979 . S
C220 H193 0.980 . S
C220 H194 0.983 . S
C220 C216 1.684 . S
H221 C239 0.948 . S
H222 C180 0.948 . S
H223 C198 0.979 . S
H224 C198 0.980 . S
H225 C198 0.983 . S
H226 C197 0.982 . S
H227 C197 0.979 . S
H228 C197 0.977 . S
H229 C199 0.948 . S
H230 C201 0.947 . S
H231 C202 0.948 . S
H232 C208 0.982 . S
H233 C208 0.979 . S
H234 C208 0.977 . S
H235 C209 0.979 . S
H236 C209 0.980 . S
H237 C209 0.983 . S
H238 C182 0.947 . S
C239 C182 1.392 . S
C239 C183 1.419 . S
C239 H221 0.948 . S
C240 C241 1.391 . S
C240 C244 1.391 . S
C240 H282 0.948 . S
C241 C240 1.391 . S
C241 C242 1.391 . S
C242 C241 1.391 . S
C242 H298 0.947 . S
C242 C299 1.392 . S
C243 C244 1.391 . S
C243 C247 1.397 . S
C243 C299 1.419 . S
C244 C240 1.391 . S
C244 C243 1.391 . S
C244 C245 1.399 . S
C245 C244 1.399 . S
C245 C248 1.396 . S
C245 C257 1.453 . S
C245 C258 1.684 . S
H246 C270 0.948 . S
C247 C243 1.397 . S
C247 C248 1.394 . S
C247 C266 1.723 . S
C248 C245 1.396 . S
C248 C247 1.394 . S
C248 C278 1.723 . S
H249 C272 0.947 . S
H250 C273 0.948 . S
H251 C279 0.982 . S
H252 C280 0.979 . S
H253 C280 0.980 . S
H254 C280 0.983 . S
H255 C279 0.979 . S
H256 C279 0.977 . S
C257 C245 1.453 . S
C257 H286 0.982 . S
C257 H287 0.979 . S
C257 H288 0.977 . S
C258 C245 1.684 . S
C258 H283 0.979 . S
C258 H284 0.980 . S
C258 H285 0.983 . S
C259 C260 1.391 . S
C259 C264 1.391 . S
C259 H289 0.948 . S
C260 C259 1.391 . S
C260 C261 1.391 . S
C261 C260 1.391 . S
C261 C262 1.392 . S
C261 H290 0.947 . S
C262 C261 1.392 . S
C262 C263 1.419 . S
C262 H291 0.948 . S
C263 C262 1.419 . S
C263 C264 1.391 . S
C263 C267 1.397 . S
C264 C259 1.391 . S
C264 C263 1.391 . S
C264 C265 1.399 . S
C265 C264 1.399 . S
C265 C266 1.396 . S
C265 C268 1.453 . S
C265 C269 1.684 . S
C266 C247 1.723 . S
C266 C265 1.396 . S
C266 C267 1.394 . S
C267 C263 1.397 . S
C267 C266 1.394 . S
C267 C277 1.723 . S
C268 C265 1.453 . S
C268 H292 0.982 . S
C268 H293 0.979 . S
C268 H294 0.977 . S
C269 C265 1.684 . S
C269 H295 0.979 . S
C269 H296 0.980 . S
C269 H297 0.983 . S
C270 H246 0.948 . S
C270 C271 1.391 . S
C270 C275 1.391 . S
C271 C270 1.391 . S
C271 C272 1.391 . S
C272 H249 0.947 . S
C272 C271 1.391 . S
C272 C273 1.392 . S
C273 H250 0.948 . S
C273 C272 1.392 . S
C273 C274 1.419 . S
C274 C273 1.419 . S
C274 C275 1.391 . S
C274 C278 1.397 . S
C275 C270 1.391 . S
C275 C274 1.391 . S
C275 C276 1.399 . S
C276 C275 1.399 . S
C276 C277 1.396 . S
C276 C279 1.453 . S
C276 C280 1.684 . S
C277 C267 1.723 . S
C277 C276 1.396 . S
C277 C278 1.394 . S
C278 C248 1.723 . S
C278 C274 1.397 . S
C278 C277 1.394 . S
C279 H251 0.982 . S
C279 H255 0.979 . S
C279 H256 0.977 . S
C279 C276 1.453 . S
C280 H252 0.979 . S
C280 H253 0.980 . S
C280 H254 0.983 . S
C280 C276 1.684 . S
H281 C299 0.948 . S
H282 C240 0.948 . S
H283 C258 0.979 . S
H284 C258 0.980 . S
H285 C258 0.983 . S
H286 C257 0.982 . S
H287 C257 0.979 . S
H288 C257 0.977 . S
H289 C259 0.948 . S
H290 C261 0.947 . S
H291 C262 0.948 . S
H292 C268 0.982 . S
H293 C268 0.979 . S
H294 C268 0.977 . S
H295 C269 0.979 . S
H296 C269 0.980 . S
H297 C269 0.983 . S
H298 C242 0.947 . S
C299 C242 1.392 . S
C299 C243 1.419 . S
C299 H281 0.948 . S
C300 C301 1.391 . S
C300 C304 1.391 . S
C300 H342 0.948 . S
C301 C300 1.391 . S
C301 C302 1.391 . S
C302 C301 1.391 . S
C302 H358 0.947 . S
C302 C359 1.392 . S
C303 C304 1.391 . S
C303 C307 1.397 . S
C303 C359 1.419 . S
C304 C300 1.391 . S
C304 C303 1.391 . S
C304 C305 1.399 . S
C305 C304 1.399 . S
C305 C308 1.396 . S
C305 C317 1.453 . S
C305 C318 1.684 . S
H306 C330 0.948 . S
C307 C303 1.397 . S
C307 C308 1.394 . S
C307 C326 1.723 . S
C308 C305 1.396 . S
C308 C307 1.394 . S
C308 C338 1.723 . S
H309 C332 0.947 . S
H310 C333 0.948 . S
H311 C339 0.982 . S
H312 C340 0.979 . S
H313 C340 0.980 . S
H314 C340 0.983 . S
H315 C339 0.979 . S
H316 C339 0.977 . S
C317 C305 1.453 . S
C317 H346 0.982 . S
C317 H347 0.979 . S
C317 H348 0.977 . S
C318 C305 1.684 . S
C318 H343 0.979 . S
C318 H344 0.980 . S
C318 H345 0.983 . S
C319 C320 1.391 . S
C319 C324 1.391 . S
C319 H349 0.948 . S
C320 C319 1.391 . S
C320 C321 1.391 . S
C321 C320 1.391 . S
C321 C322 1.392 . S
C321 H350 0.947 . S
C322 C321 1.392 . S
C322 C323 1.419 . S
C322 H351 0.948 . S
C323 C322 1.419 . S
C323 C324 1.391 . S
C323 C327 1.397 . S
C324 C319 1.391 . S
C324 C323 1.391 . S
C324 C325 1.399 . S
C325 C324 1.399 . S
C325 C326 1.396 . S
C325 C328 1.453 . S
C325 C329 1.684 . S
C326 C307 1.723 . S
C326 C325 1.396 . S
C326 C327 1.394 . S
C327 C323 1.397 . S
C327 C326 1.394 . S
C327 C337 1.723 . S
C328 C325 1.453 . S
C328 H352 0.982 . S
C328 H353 0.979 . S
C328 H354 0.977 . S
C329 C325 1.684 . S
C329 H355 0.979 . S
C329 H356 0.980 . S
C329 H357 0.983 . S
C330 H306 0.948 . S
C330 C331 1.391 . S
C330 C335 1.391 . S
C331 C330 1.391 . S
C331 C332 1.391 . S
C332 H309 0.947 . S
C332 C331 1.391 . S
C332 C333 1.392 . S
C333 H310 0.948 . S
C333 C332 1.392 . S
C333 C334 1.419 . S
C334 C333 1.419 . S
C334 C335 1.391 . S
C334 C338 1.397 . S
C335 C330 1.391 . S
C335 C334 1.391 . S
C335 C336 1.399 . S
C336 C335 1.399 . S
C336 C337 1.396 . S
C336 C339 1.453 . S
C336 C340 1.684 . S
C337 C327 1.723 . S
C337 C336 1.396 . S
C337 C338 1.394 . S
C338 C308 1.723 . S
C338 C334 1.397 . S
C338 C337 1.394 . S
C339 H311 0.982 . S
C339 H315 0.979 . S
C339 H316 0.977 . S
C339 C336 1.453 . S
C340 H312 0.979 . S
C340 H313 0.980 . S
C340 H314 0.983 . S
C340 C336 1.684 . S
H341 C359 0.948 . S
H342 C300 0.948 . S
H343 C318 0.979 . S
H344 C318 0.980 . S
H345 C318 0.983 . S
H346 C317 0.982 . S
H347 C317 0.979 . S
H348 C317 0.977 . S
H349 C319 0.948 . S
H350 C321 0.947 . S
H351 C322 0.948 . S
H352 C328 0.982 . S
H353 C328 0.979 . S
H354 C328 0.977 . S
H355 C329 0.979 . S
H356 C329 0.980 . S
H357 C329 0.983 . S
H358 C302 0.947 . S
C359 C302 1.392 . S
C359 C303 1.419 . S
C359 H341 0.948 . S
C360 C361 1.391 . S
C360 C364 1.391 . S
C360 H402 0.948 . S
C361 C360 1.391 . S
C361 C362 1.391 . S
C362 C361 1.391 . S
C362 H418 0.947 . S
C362 C419 1.392 . S
C363 C364 1.391 . S
C363 C367 1.397 . S
C363 C419 1.419 . S
C364 C360 1.391 . S
C364 C363 1.391 . S
C364 C365 1.399 . S
C365 C364 1.399 . S
C365 C368 1.396 . S
C365 C377 1.453 . S
C365 C378 1.684 . S
H366 C390 0.948 . S
C367 C363 1.397 . S
C367 C368 1.394 . S
C367 C386 1.723 . S
C368 C365 1.396 . S
C368 C367 1.394 . S
C368 C398 1.723 . S
H369 C392 0.947 . S
H370 C393 0.948 . S
H371 C399 0.982 . S
H372 C400 0.979 . S
H373 C400 0.980 . S
H374 C400 0.983 . S
H375 C399 0.979 . S
H376 C399 0.977 . S
C377 C365 1.453 . S
C377 H406 0.982 . S
C377 H407 0.979 . S
C377 H408 0.977 . S
C378 C365 1.684 . S
C378 H403 0.979 . S
C378 H404 0.980 . S
C378 H405 0.983 . S
C379 C380 1.391 . S
C379 C384 1.391 . S
C379 H409 0.948 . S
C380 C379 1.391 . S
C380 C381 1.391 . S
C381 C380 1.391 . S
C381 C382 1.392 . S
C381 H410 0.947 . S
C382 C381 1.392 . S
C382 C383 1.419 . S
C382 H411 0.948 . S
C383 C382 1.419 . S
C383 C384 1.391 . S
C383 C387 1.397 . S
C384 C379 1.391 . S
C384 C383 1.391 . S
C384 C385 1.399 . S
C385 C384 1.399 . S
C385 C386 1.396 . S
C385 C388 1.453 . S
C385 C389 1.684 . S
C386 C367 1.723 . S
C386 C385 1.396 . S
C386 C387 1.394 . S
C387 C383 1.397 . S
C387 C386 1.394 . S
C387 C397 1.723 . S
C388 C385 1.453 . S
C388 H412 0.982 . S
C388 H413 0.979 . S
C388 H414 0.977 . S
C389 C385 1.684 . S
C389 H415 0.979 . S
C389 H416 0.980 . S
C389 H417 0.983 . S
C390 H366 0.948 . S
C390 C391 1.391 . S
C390 C395 1.391 . S
C391 C390 1.391 . S
C391 C392 1.391 . S
C392 H369 0.947 . S
C392 C391 1.391 . S
C392 C393 1.392 . S
C393 H370 0.948 . S
C393 C392 1.392 . S
C393 C394 1.419 . S
C394 C393 1.419 . S
C394 C395 1.391 . S
C394 C398 1.397 . S
C395 C390 1.391 . S
C395 C394 1.391 . S
C395 C396 1.399 . S
C396 C395 1.399 . S
C396 C397 1.396 . S
C396 C399 1.453 . S
C396 C400 1.684 . S
C397 C387 1.723 . S
C397 C396 1.396 . S
C397 C398 1.394 . S
C398 C368 1.723 . S
C398 C394 1.397 . S
C398 C397 1.394 . S
C399 H371 0.982 . S
C399 H375 0.979 . S
C399 H376 0.977 . S
C399 C396 1.453 . S
C400 H372 0.979 . S
C400 H373 0.980 . S
C400 H374 0.983 . S
C400 C396 1.684 . S
H401 C419 0.948 . S
H402 C360 0.948 . S
H403 C378 0.979 . S
H404 C378 0.980 . S
H405 C378 0.983 . S
H406 C377 0.982 . S
H407 C377 0.979 . S
H408 C377 0.977 . S
H409 C379 0.948 . S
H410 C381 0.947 . S
H411 C382 0.948 . S
H412 C388 0.982 . S
H413 C388 0.979 . S
H414 C388 0.977 . S
H415 C389 0.979 . S
H416 C389 0.980 . S
H417 C389 0.983 . S
H418 C362 0.947 . S
C419 C362 1.392 . S
C419 C363 1.419 . S
C419 H401 0.948 . S
C420 C421 1.391 . S
C420 C424 1.391 . S
C420 H462 0.948 . S
C421 C420 1.391 . S
C421 C422 1.391 . S
C422 C421 1.391 . S
C422 H478 0.947 . S
C422 C479 1.392 . S
C423 C424 1.391 . S
C423 C427 1.397 . S
C423 C479 1.419 . S
C424 C420 1.391 . S
C424 C423 1.391 . S
C424 C425 1.399 . S
C425 C424 1.399 . S
C425 C428 1.396 . S
C425 C437 1.453 . S
C425 C438 1.684 . S
H426 C450 0.948 . S
C427 C423 1.397 . S
C427 C428 1.394 . S
C427 C446 1.723 . S
C428 C425 1.396 . S
C428 C427 1.394 . S
C428 C458 1.723 . S
H429 C452 0.947 . S
H430 C453 0.948 . S
H431 C459 0.982 . S
H432 C460 0.979 . S
H433 C460 0.980 . S
H434 C460 0.983 . S
H435 C459 0.979 . S
H436 C459 0.977 . S
C437 C425 1.453 . S
C437 H466 0.982 . S
C437 H467 0.979 . S
C437 H468 0.977 . S
C438 C425 1.684 . S
C438 H463 0.979 . S
C438 H464 0.980 . S
C438 H465 0.983 . S
C439 C440 1.391 . S
C439 C444 1.391 . S
C439 H469 0.948 . S
C440 C439 1.391 . S
C440 C441 1.391 . S
C441 C440 1.391 . S
C441 C442 1.392 . S
C441 H470 0.947 . S
C442 C441 1.392 . S
C442 C443 1.419 . S
C442 H471 0.948 . S
C443 C442 1.419 . S
C443 C444 1.391 . S
C443 C447 1.397 . S
C444 C439 1.391 . S
C444 C443 1.391 . S
C444 C445 1.399 . S
C445 C444 1.399 . S
C445 C446 1.396 . S
C445 C448 1.453 . S
C445 C449 1.684 . S
C446 C427 1.723 . S
C446 C445 1.396 . S
C446 C447 1.394 . S
C447 C443 1.397 . S
C447 C446 1.394 . S
C447 C457 1.723 . S
C448 C445 1.453 . S
C448 H472 0.982 . S
C448 H473 0.979 . S
C448 H474 0.977 . S
C449 C445 1.684 . S
C449 H475 0.979 . S
C449 H476 0.980 . S
C449 H477 0.983 . S
C450 H426 0.948 . S
C450 C451 1.391 . S
C450 C455 1.391 . S
C451 C450 1.391 . S
C451 C452 1.391 . S
C452 H429 0.947 . S
C452 C451 1.391 . S
C452 C453 1.392 . S
C453 H430 0.948 . S
C453 C452 1.392 . S
C453 C454 1.419 . S
C454 C453 1.419 . S
C454 C455 1.391 . S
C454 C458 1.397 . S
C455 C450 1.391 . S
C455 C454 1.391 . S
C455 C456 1.399 . S
C456 C455 1.399 . S
C456 C457 1.396 . S
C456 C459 1.453 . S
C456 C460 1.684 . S
C457 C447 1.723 . S
C457 C456 1.396 . S
C457 C458 1.394 . S
C458 C428 1.723 . S
C458 C454 1.397 . S
C458 C457 1.394 . S
C459 H431 0.982 . S
C459 H435 0.979 . S
C459 H436 0.977 . S
C459 C456 1.453 . S
C460 H432 0.979 . S
C460 H433 0.980 . S
C460 H434 0.983 . S
C460 C456 1.684 . S
H461 C479 0.948 . S
H462 C420 0.948 . S
H463 C438 0.979 . S
H464 C438 0.980 . S
H465 C438 0.983 . S
H466 C437 0.982 . S
H467 C437 0.979 . S
H468 C437 0.977 . S
H469 C439 0.948 . S
H470 C441 0.947 . S
H471 C442 0.948 . S
H472 C448 0.982 . S
H473 C448 0.979 . S
H474 C448 0.977 . S
H475 C449 0.979 . S
H476 C449 0.980 . S
H477 C449 0.983 . S
H478 C422 0.947 . S
C479 C422 1.392 . S
C479 C423 1.419 . S
C479 H461 0.948 . S
C480 C481 1.391 . S
C480 C484 1.391 . S
C480 H522 0.948 . S
C481 C480 1.391 . S
C481 C482 1.391 . S
C482 C481 1.391 . S
C482 H538 0.947 . S
C482 C539 1.392 . S
C483 C484 1.391 . S
C483 C487 1.397 . S
C483 C539 1.419 . S
C484 C480 1.391 . S
C484 C483 1.391 . S
C484 C485 1.399 . S
C485 C484 1.399 . S
C485 C488 1.396 . S
C485 C497 1.453 . S
C485 C498 1.684 . S
H486 C510 0.948 . S
C487 C483 1.397 . S
C487 C488 1.394 . S
C487 C506 1.723 . S
C488 C485 1.396 . S
C488 C487 1.394 . S
C488 C518 1.723 . S
H489 C512 0.947 . S
H490 C513 0.948 . S
H491 C519 0.982 . S
H492 C520 0.979 . S
H493 C520 0.980 . S
H494 C520 0.983 . S
H495 C519 0.979 . S
H496 C519 0.977 . S
C497 C485 1.453 . S
C497 H526 0.982 . S
C497 H527 0.979 . S
C497 H528 0.977 . S
C498 C485 1.684 . S
C498 H523 0.979 . S
C498 H524 0.980 . S
C498 H525 0.983 . S
C499 C500 1.391 . S
C499 C504 1.391 . S
C499 H529 0.948 . S
C500 C499 1.391 . S
C500 C501 1.391 . S
C501 C500 1.391 . S
C501 C502 1.392 . S
C501 H530 0.947 . S
C502 C501 1.392 . S
C502 C503 1.419 . S
C502 H531 0.948 . S
C503 C502 1.419 . S
C503 C504 1.391 . S
C503 C507 1.397 . S
C504 C499 1.391 . S
C504 C503 1.391 . S
C504 C505 1.399 . S
C505 C504 1.399 . S
C505 C506 1.396 . S
C505 C508 1.453 . S
C505 C509 1.684 . S
C506 C487 1.723 . S
C506 C505 1.396 . S
C506 C507 1.394 . S
C507 C503 1.397 . S
C507 C506 1.394 . S
C507 C517 1.723 . S
C508 C505 1.453 . S
C508 H532 0.982 . S
C508 H533 0.979 . S
C508 H534 0.977 . S
C509 C505 1.684 . S
C509 H535 0.979 . S
C509 H536 0.980 . S
C509 H537 0.983 . S
C510 H486 0.948 . S
C510 C511 1.391 . S
C510 C515 1.391 . S
C511 C510 1.391 . S
C511 C512 1.391 . S
C512 H489 0.947 . S
C512 C511 1.391 . S
C512 C513 1.392 . S
C513 H490 0.948 . S
C513 C512 1.392 . S
C513 C514 1.419 . S
C514 C513 1.419 . S
C514 C515 1.391 . S
C514 C518 1.397 . S
C515 C510 1.391 . S
C515 C514 1.391 . S
C515 C516 1.399 . S
C516 C515 1.399 . S
C516 C517 1.396 . S
C516 C519 1.453 . S
C516 C520 1.684 . S
C517 C507 1.723 . S
C517 C516 1.396 . S
C517 C518 1.394 . S
C518 C488 1.723 . S
C518 C514 1.397 . S
C518 C517 1.394 . S
C519 H491 0.982 . S
C519 H495 0.979 . S
C519 H496 0.977 . S
C519 C516 1.453 . S
C520 H492 0.979 . S
C520 H493 0.980 . S
C520 H494 0.983 . S
C520 C516 1.684 . S
H521 C539 0.948 . S
H522 C480 0.948 . S
H523 C498 0.979 . S
H524 C498 0.980 . S
H525 C498 0.983 . S
H526 C497 0.982 . S
H527 C497 0.979 . S
H528 C497 0.977 . S
H529 C499 0.948 . S
H530 C501 0.947 . S
H531 C502 0.948 . S
H532 C508 0.982 . S
H533 C508 0.979 . S
H534 C508 0.977 . S
H535 C509 0.979 . S
H536 C509 0.980 . S
H537 C509 0.983 . S
H538 C482 0.947 . S
C539 C482 1.392 . S
C539 C483 1.419 . S
C539 H521 0.948 . S
C540 C541 1.391 . S
C540 C544 1.391 . S
C540 H582 0.948 . S
C541 C540 1.391 . S
C541 C542 1.391 . S
C542 C541 1.391 . S
C542 H598 0.947 . S
C542 C599 1.392 . S
C543 C544 1.391 . S
C543 C547 1.397 . S
C543 C599 1.419 . S
C544 C540 1.391 . S
C544 C543 1.391 . S
C544 C545 1.399 . S
C545 C544 1.399 . S
C545 C548 1.396 . S
C545 C557 1.453 . S
C545 C558 1.684 . S
H546 C570 0.948 . S
C547 C543 1.397 . S
C547 C548 1.394 . S
C547 C566 1.723 . S
C548 C545 1.396 . S
C548 C547 1.394 . S
C548 C578 1.723 . S
H549 C572 0.947 . S
H550 C573 0.948 . S
H551 C579 0.982 . S
H552 C580 0.979 . S
H553 C580 0.980 . S
H554 C580 0.983 . S
H555 C579 0.979 . S
H556 C579 0.977 . S
C557 C545 1.453 . S
C557 H586 0.982 . S
C557 H587 0.979 . S
C557 H588 0.977 . S
C558 C545 1.684 . S
C558 H583 0.979 . S
C558 H584 0.980 . S
C558 H585 0.983 . S
C559 C560 1.391 . S
C559 C564 1.391 . S
C559 H589 0.948 . S
C560 C559 1.391 . S
C560 C561 1.391 . S
C561 C560 1.391 . S
C561 C562 1.392 . S
C561 H590 0.947 . S
C562 C561 1.392 . S
C562 C563 1.419 . S
C562 H591 0.948 . S
C563 C562 1.419 . S
C563 C564 1.391 . S
C563 C567 1.397 . S
C564 C559 1.391 . S
C564 C563 1.391 . S
C564 C565 1.399 . S
C565 C564 1.399 . S
C565 C566 1.396 . S
C565 C568 1.453 . S
C565 C569 1.684 . S
C566 C547 1.723 . S
C566 C565 1.396 . S
C566 C567 1.394 . S
C567 C563 1.397 . S
C567 C566 1.394 . S
C567 C577 1.723 . S
C568 C565 1.453 . S
C568 H592 0.982 . S
C568 H593 0.979 . S
C568 H594 0.977 . S
C569 C565 1.684 . S
C569 H595 0.979 . S
C569 H596 0.980 . S
C569 H597 0.983 . S
C570 H546 0.948 . S
C570 C571 1.391 . S
C570 C575 1.391 . S
C571 C570 1.391 . S
C571 C572 1.391 . S
C572 H549 0.947 . S
C572 C571 1.391 . S
C572 C573 1.392 . S
C573 H550 0.948 . S
C573 C572 1.392 . S
C573 C574 1.419 . S
C574 C573 1.419 . S
C574 C575 1.391 . S
C574 C578 1.397 . S
C575 C570 1.391 . S
C575 C574 1.391 . S
C575 C576 1.399 . S
C576 C575 1.399 . S
C576 C577 1.396 . S
C576 C579 1.453 . S
C576 C580 1.684 . S
C577 C567 1.723 . S
C577 C576 1.396 . S
C577 C578 1.394 . S
C578 C548 1.723 . S
C578 C574 1.397 . S
C578 C577 1.394 . S
C579 H551 0.982 . S
C579 H555 0.979 . S
C579 H556 0.977 . S
C579 C576 1.453 . S
C580 H552 0.979 . S
C580 H553 0.980 . S
C580 H554 0.983 . S
C580 C576 1.684 . S
H581 C599 0.948 . S
H582 C540 0.948 . S
H583 C558 0.979 . S
H584 C558 0.980 . S
H585 C558 0.983 . S
H586 C557 0.982 . S
H587 C557 0.979 . S
H588 C557 0.977 . S
H589 C559 0.948 . S
H590 C561 0.947 . S
H591 C562 0.948 . S
H592 C568 0.982 . S
H593 C568 0.979 . S
H594 C568 0.977 . S
H595 C569 0.979 . S
H596 C569 0.980 . S
H597 C569 0.983 . S
H598 C542 0.947 . S
C599 C542 1.392 . S
C599 C543 1.419 . S
C599 H581 0.948 . S
C600 C601 1.391 . S
C600 C604 1.391 . S
C600 H642 0.948 . S
C601 C600 1.391 . S
C601 C602 1.391 . S
C602 C601 1.391 . S
C602 H658 0.947 . S
C602 C659 1.392 . S
C603 C604 1.391 . S
C603 C607 1.397 . S
C603 C659 1.419 . S
C604 C600 1.391 . S
C604 C603 1.391 . S
C604 C605 1.399 . S
C605 C604 1.399 . S
C605 C608 1.396 . S
C605 C617 1.453 . S
C605 C618 1.684 . S
H606 C630 0.948 . S
C607 C603 1.397 . S
C607 C608 1.394 . S
C607 C626 1.723 . S
C608 C605 1.396 . S
C608 C607 1.394 . S
C608 C638 1.723 . S
H609 C632 0.947 . S
H610 C633 0.948 . S
H611 C639 0.982 . S
H612 C640 0.979 . S
H613 C640 0.980 . S
H614 C640 0.983 . S
H615 C639 0.979 . S
H616 C639 0.977 . S
C617 C605 1.453 . S
C617 H646 0.982 . S
C617 H647 0.979 . S
C617 H648 0.977 . S
C618 C605 1.684 . S
C618 H643 0.979 . S
C618 H644 0.980 . S
C618 H645 0.983 . S
C619 C620 1.391 . S
C619 C624 1.391 . S
C619 H649 0.948 . S
C620 C619 1.391 . S
C620 C621 1.391 . S
C621 C620 1.391 . S
C621 C622 1.392 . S
C621 H650 0.947 . S
C622 C621 1.392 . S
C622 C623 1.419 . S
C622 H651 0.948 . S
C623 C622 1.419 . S
C623 C624 1.391 . S
C623 C627 1.397 . S
C624 C619 1.391 . S
C624 C623 1.391 . S
C624 C625 1.399 . S
C625 C624 1.399 . S
C625 C626 1.396 . S
C625 C628 1.453 . S
C625 C629 1.684 . S
C626 C607 1.723 . S
C626 C625 1.396 . S
C626 C627 1.394 . S
C627 C623 1.397 . S
C627 C626 1.394 . S
C627 C637 1.723 . S
C628 C625 1.453 . S
C628 H652 0.982 . S
C628 H653 0.979 . S
C628 H654 0.977 . S
C629 C625 1.684 . S
C629 H655 0.979 . S
C629 H656 0.980 . S
C629 H657 0.983 . S
C630 H606 0.948 . S
C630 C631 1.391 . S
C630 C635 1.391 . S
C631 C630 1.391 . S
C631 C632 1.391 . S
C632 H609 0.947 . S
C632 C631 1.391 . S
C632 C633 1.392 . S
C633 H610 0.948 . S
C633 C632 1.392 . S
C633 C634 1.419 . S
C634 C633 1.419 . S
C634 C635 1.391 . S
C634 C638 1.397 . S
C635 C630 1.391 . S
C635 C634 1.391 . S
C635 C636 1.399 . S
C636 C635 1.399 . S
C636 C637 1.396 . S
C636 C639 1.453 . S
C636 C640 1.684 . S
C637 C627 1.723 . S
C637 C636 1.396 . S
C637 C638 1.394 . S
C638 C608 1.723 . S
C638 C634 1.397 . S
C638 C637 1.394 . S
C639 H611 0.982 . S
C639 H615 0.979 . S
C639 H616 0.977 . S
C639 C636 1.453 . S
C640 H612 0.979 . S
C640 H613 0.980 . S
C640 H614 0.983 . S
C640 C636 1.684 . S
H641 C659 0.948 . S
H642 C600 0.948 . S
H643 C618 0.979 . S
H644 C618 0.980 . S
H645 C618 0.983 . S
H646 C617 0.982 . S
H647 C617 0.979 . S
H648 C617 0.977 . S
H649 C619 0.948 . S
H650 C621 0.947 . S
H651 C622 0.948 . S
H652 C628 0.982 . S
H653 C628 0.979 . S
H654 C628 0.977 . S
H655 C629 0.979 . S
H656 C629 0.980 . S
H657 C629 0.983 . S
H658 C602 0.947 . S
C659 C602 1.392 . S
C659 C603 1.419 . S
C659 H641 0.948 . S
C660 C661 1.391 . S
C660 C664 1.391 . S
C660 H702 0.948 . S
C661 C660 1.391 . S
C661 C662 1.391 . S
C662 C661 1.391 . S
C662 H718 0.947 . S
C662 C719 1.392 . S
C663 C664 1.391 . S
C663 C667 1.397 . S
C663 C719 1.419 . S
C664 C660 1.391 . S
C664 C663 1.391 . S
C664 C665 1.399 . S
C665 C664 1.399 . S
C665 C668 1.396 . S
C665 C677 1.453 . S
C665 C678 1.684 . S
H666 C690 0.948 . S
C667 C663 1.397 . S
C667 C668 1.394 . S
C667 C686 1.723 . S
C668 C665 1.396 . S
C668 C667 1.394 . S
C668 C698 1.723 . S
H669 C692 0.947 . S
H670 C693 0.948 . S
H671 C699 0.982 . S
H672 C700 0.979 . S
H673 C700 0.980 . S
H674 C700 0.983 . S
H675 C699 0.979 . S
H676 C699 0.977 . S
C677 C665 1.453 . S
C677 H706 0.982 . S
C677 H707 0.979 . S
C677 H708 0.977 . S
C678 C665 1.684 . S
C678 H703 0.979 . S
C678 H704 0.980 . S
C678 H705 0.983 . S
C679 C680 1.391 . S
C679 C684 1.391 . S
C679 H709 0.948 . S
C680 C679 1.391 . S
C680 C681 1.391 . S
C681 C680 1.391 . S
C681 C682 1.392 . S
C681 H710 0.947 . S
C682 C681 1.392 . S
C682 C683 1.419 . S
C682 H711 0.948 . S
C683 C682 1.419 . S
C683 C684 1.391 . S
C683 C687 1.397 . S
C684 C679 1.391 . S
C684 C683 1.391 . S
C684 C685 1.399 . S
C685 C684 1.399 . S
C685 C686 1.396 . S
C685 C688 1.453 . S
C685 C689 1.684 . S
C686 C667 1.723 . S
C686 C685 1.396 . S
C686 C687 1.394 . S
C687 C683 1.397 . S
C687 C686 1.394 . S
C687 C697 1.723 . S
C688 C685 1.453 . S
C688 H712 0.982 . S
C688 H713 0.979 . S
C688 H714 0.977 . S
C689 C685 1.684 . S
C689 H715 0.979 . S
C689 H716 0.980 . S
C689 H717 0.983 . S
C690 H666 0.948 . S
C690 C691 1.391 . S
C690 C695 1.391 . S
C691 C690 1.391 . S
C691 C692 1.391 . S
C692 H669 0.947 . S
C692 C691 1.391 . S
C692 C693 1.392 . S
C693 H670 0.948 . S
C693 C692 1.392 . S
C693 C694 1.419 . S
C694 C693 1.419 . S
C694 C695 1.391 . S
C694 C698 1.397 . S
C695 C690 1.391 . S
C695 C694 1.391 . S
C695 C696 1.399 . S
C696 C695 1.399 . S
C696 C697 1.396 . S
C696 C699 1.453 . S
C696 C700 1.684 . S
C697 C687 1.723 . S
C697 C696 1.396 . S
C697 C698 1.394 . S
C698 C668 1.723 . S
C698 C694 1.397 . S
C698 C697 1.394 . S
C699 H671 0.982 . S
C699 H675 0.979 . S
C699 H676 0.977 . S
C699 C696 1.453 . S
C700 H672 0.979 . S
C700 H673 0.980 . S
C700 H674 0.983 . S
C700 C696 1.684 . S
H701 C719 0.948 . S
H702 C660 0.948 . S
H703 C678 0.979 . S
H704 C678 0.980 . S
H705 C678 0.983 . S
H706 C677 0.982 . S
H707 C677 0.979 . S
H708 C677 0.977 . S
H709 C679 0.948 . S
H710 C681 0.947 . S
H711 C682 0.948 . S
H712 C688 0.982 . S
H713 C688 0.979 . S
H714 C688 0.977 . S
H715 C689 0.979 . S
H716 C689 0.980 . S
H717 C689 0.983 . S
H718 C662 0.947 . S
C719 C662 1.392 . S
C719 C663 1.419 . S
C719 H701 0.948 . S
C720 C721 1.391 . S
C720 C724 1.391 . S
C720 H762 0.948 . S
C721 C720 1.391 . S
C721 C722 1.391 . S
C722 C721 1.391 . S
C722 H778 0.947 . S
C722 C779 1.392 . S
C723 C724 1.391 . S
C723 C727 1.397 . S
C723 C779 1.419 . S
C724 C720 1.391 . S
C724 C723 1.391 . S
C724 C725 1.399 . S
C725 C724 1.399 . S
C725 C728 1.396 . S
C725 C737 1.453 . S
C725 C738 1.684 . S
H726 C750 0.948 . S
C727 C723 1.397 . S
C727 C728 1.394 . S
C727 C746 1.723 . S
C728 C725 1.396 . S
C728 C727 1.394 . S
C728 C758 1.723 . S
H729 C752 0.947 . S
H730 C753 0.948 . S
H731 C759 0.982 . S
H732 C760 0.979 . S
H733 C760 0.980 . S
H734 C760 0.983 . S
H735 C759 0.979 . S
H736 C759 0.977 . S
C737 C725 1.453 . S
C737 H766 0.982 . S
C737 H767 0.979 . S
C737 H768 0.977 . S
C738 C725 1.684 . S
C738 H763 0.979 . S
C738 H764 0.980 . S
C738 H765 0.983 . S
C739 C740 1.391 . S
C739 C744 1.391 . S
C739 H769 0.948 . S
C740 C739 1.391 . S
C740 C741 1.391 . S
C741 C740 1.391 . S
C741 C742 1.392 . S
C741 H770 0.947 . S
C742 C741 1.392 . S
C742 C743 1.419 . S
C742 H771 0.948 . S
C743 C742 1.419 . S
C743 C744 1.391 . S
C743 C747 1.397 . S
C744 C739 1.391 . S
C744 C743 1.391 . S
C744 C745 1.399 . S
C745 C744 1.399 . S
C745 C746 1.396 . S
C745 C748 1.453 . S
C745 C749 1.684 . S
C746 C727 1.723 . S
C746 C745 1.396 . S
C746 C747 1.394 . S
C747 C743 1.397 . S
C747 C746 1.394 . S
C747 C757 1.723 . S
C748 C745 1.453 . S
C748 H772 0.982 . S
C748 H773 0.979 . S
C748 H774 0.977 . S
C749 C745 1.684 . S
C749 H775 0.979 . S
C749 H776 0.980 . S
C749 H777 0.983 . S
C750 H726 0.948 . S
C750 C751 1.391 . S
C750 C755 1.391 . S
C751 C750 1.391 . S
C751 C752 1.391 . S
C752 H729 0.947 . S
C752 C751 1.391 . S
C752 C753 1.392 . S
C753 H730 0.948 . S
C753 C752 1.392 . S
C753 C754 1.419 . S
C754 C753 1.419 . S
C754 C755 1.391 . S
C754 C758 1.397 . S
C755 C750 1.391 . S
C755 C754 1.391 . S
C755 C756 1.399 . S
C756 C755 1.399 . S
C756 C757 1.396 . S
C756 C759 1.453 . S
C756 C760 1.684 . S
C757 C747 1.723 . S
C757 C756 1.396 . S
C757 C758 1.394 . S
C758 C728 1.723 . S
C758 C754 1.397 . S
C758 C757 1.394 . S
C759 H731 0.982 . S
C759 H735 0.979 . S
C759 H736 0.977 . S
C759 C756 1.453 . S
C760 H732 0.979 . S
C760 H733 0.980 . S
C760 H734 0.983 . S
C760 C756 1.684 . S
H761 C779 0.948 . S
H762 C720 0.948 . S
H763 C738 0.979 . S
H764 C738 0.980 . S
H765 C738 0.983 . S
H766 C737 0.982 . S
H767 C737 0.979 . S
H768 C737 0.977 . S
H769 C739 0.948 . S
H770 C741 0.947 . S
H771 C742 0.948 . S
H772 C748 0.982 . S
H773 C748 0.979 . S
H774 C748 0.977 . S
H775 C749 0.979 . S
H776 C749 0.980 . S
H777 C749 0.983 . S
H778 C722 0.947 . S
C779 C722 1.392 . S
C779 C723 1.419 . S
C779 H761 0.948 . S
C780 C781 1.391 . S
C780 C784 1.391 . S
C780 H822 0.948 . S
C781 C780 1.391 . S
C781 C782 1.391 . S
C782 C781 1.391 . S
C782 H838 0.947 . S
C782 C839 1.392 . S
C783 C784 1.391 . S
C783 C787 1.397 . S
C783 C839 1.419 . S
C784 C780 1.391 . S
C784 C783 1.391 . S
C784 C785 1.399 . S
C785 C784 1.399 . S
C785 C788 1.396 . S
C785 C797 1.453 . S
C785 C798 1.684 . S
H786 C810 0.948 . S
C787 C783 1.397 . S
C787 C788 1.394 . S
C787 C806 1.723 . S
C788 C785 1.396 . S
C788 C787 1.394 . S
C788 C818 1.723 . S
H789 C812 0.947 . S
H790 C813 0.948 . S
H791 C819 0.982 . S
H792 C820 0.979 . S
H793 C820 0.980 . S
H794 C820 0.983 . S
H795 C819 0.979 . S
H796 C819 0.977 . S
C797 C785 1.453 . S
C797 H826 0.982 . S
C797 H827 0.979 . S
C797 H828 0.977 . S
C798 C785 1.684 . S
C798 H823 0.979 . S
C798 H824 0.980 . S
C798 H825 0.983 . S
C799 C800 1.391 . S
C799 C804 1.391 . S
C799 H829 0.948 . S
C800 C799 1.391 . S
C800 C801 1.391 . S
C801 C800 1.391 . S
C801 C802 1.392 . S
C801 H830 0.947 . S
C802 C801 1.392 . S
C802 C803 1.419 . S
C802 H831 0.948 . S
C803 C802 1.419 . S
C803 C804 1.391 . S
C803 C807 1.397 . S
C804 C799 1.391 . S
C804 C803 1.391 . S
C804 C805 1.399 . S
C805 C804 1.399 . S
C805 C806 1.396 . S
C805 C808 1.453 . S
C805 C809 1.684 . S
C806 C787 1.723 . S
C806 C805 1.396 . S
C806 C807 1.394 . S
C807 C803 1.397 . S
C807 C806 1.394 . S
C807 C817 1.723 . S
C808 C805 1.453 . S
C808 H832 0.982 . S
C808 H833 0.979 . S
C808 H834 0.977 . S
C809 C805 1.684 . S
C809 H835 0.979 . S
C809 H836 0.980 . S
C809 H837 0.983 . S
C810 H786 0.948 . S
C810 C811 1.391 . S
C810 C815 1.391 . S
C811 C810 1.391 . S
C811 C812 1.391 . S
C812 H789 0.947 . S
C812 C811 1.391 . S
C812 C813 1.392 . S
C813 H790 0.948 . S
C813 C812 1.392 . S
C813 C814 1.419 . S
C814 C813 1.419 . S
C814 C815 1.391 . S
C814 C818 1.397 . S
C815 C810 1.391 . S
C815 C814 1.391 . S
C815 C816 1.399 . S
C816 C815 1.399 . S
C816 C817 1.396 . S
C816 C819 1.453 . S
C816 C820 1.684 . S
C817 C807 1.723 . S
C817 C816 1.396 . S
C817 C818 1.394 . S
C818 C788 1.723 . S
C818 C814 1.397 . S
C818 C817 1.394 . S
C819 H791 0.982 . S
C819 H795 0.979 . S
C819 H796 0.977 . S
C819 C816 1.453 . S
C820 H792 0.979 . S
C820 H793 0.980 . S
C820 H794 0.983 . S
C820 C816 1.684 . S
H821 C839 0.948 . S
H822 C780 0.948 . S
H823 C798 0.979 . S
H824 C798 0.980 . S
H825 C798 0.983 . S
H826 C797 0.982 . S
H827 C797 0.979 . S
H828 C797 0.977 . S
H829 C799 0.948 . S
H830 C801 0.947 . S
H831 C802 0.948 . S
H832 C808 0.982 . S
H833 C808 0.979 . S
H834 C808 0.977 . S
H835 C809 0.979 . S
H836 C809 0.980 . S
H837 C809 0.983 . S
H838 C782 0.947 . S
C839 C782 1.392 . S
C839 C783 1.419 . S
C839 H821 0.948 . S
C840 C841 1.391 . S
C840 C844 1.391 . S
C840 H882 0.948 . S
C841 C840 1.391 . S
C841 C842 1.391 . S
C842 C841 1.391 . S
C842 H898 0.947 . S
C842 C899 1.392 . S
C843 C844 1.391 . S
C843 C847 1.397 . S
C843 C899 1.419 . S
C844 C840 1.391 . S
C844 C843 1.391 . S
C844 C845 1.399 . S
C845 C844 1.399 . S
C845 C848 1.396 . S
C845 C857 1.453 . S
C845 C858 1.684 . S
H846 C870 0.948 . S
C847 C843 1.397 . S
C847 C848 1.394 . S
C847 C866 1.723 . S
C848 C845 1.396 . S
C848 C847 1.394 . S
C848 C878 1.723 . S
H849 C872 0.947 . S
H850 C873 0.948 . S
H851 C879 0.982 . S
H852 C880 0.979 . S
H853 C880 0.980 . S
H854 C880 0.983 . S
H855 C879 0.979 . S
H856 C879 0.977 . S
C857 C845 1.453 . S
C857 H886 0.982 . S
C857 H887 0.979 . S
C857 H888 0.977 . S
C858 C845 1.684 . S
C858 H883 0.979 . S
C858 H884 0.980 . S
C858 H885 0.983 . S
C859 C860 1.391 . S
C859 C864 1.391 . S
C859 H889 0.948 . S
C860 C859 1.391 . S
C860 C861 1.391 . S
C861 C860 1.391 . S
C861 C862 1.392 . S
C861 H890 0.947 . S
C862 C861 1.392 . S
C862 C863 1.419 . S
C862 H891 0.948 . S
C863 C862 1.419 . S
C863 C864 1.391 . S
C863 C867 1.397 . S
C864 C859 1.391 . S
C864 C863 1.391 . S
C864 C865 1.399 . S
C865 C864 1.399 . S
C865 C866 1.396 . S
C865 C868 1.453 . S
C865 C869 1.684 . S
C866 C847 1.723 . S
C866 C865 1.396 . S
C866 C867 1.394 . S
C867 C863 1.397 . S
C867 C866 1.394 . S
C867 C877 1.723 . S
C868 C865 1.453 . S
C868 H892 0.982 . S
C868 H893 0.979 . S
C868 H894 0.977 . S
C869 C865 1.684 . S
C869 H895 0.979 . S
C869 H896 0.980 . S
C869 H897 0.983 . S
C870 H846 0.948 . S
C870 C871 1.391 . S
C870 C875 1.391 . S
C871 C870 1.391 . S
C871 C872 1.391 . S
C872 H849 0.947 . S
C872 C871 1.391 . S
C872 C873 1.392 . S
C873 H850 0.948 . S
C873 C872 1.392 . S
C873 C874 1.419 . S
C874 C873 1.419 . S
C874 C875 1.391 . S
C874 C878 1.397 . S
C875 C870 1.391 . S
C875 C874 1.391 . S
C875 C876 1.399 . S
C876 C875 1.399 . S
C876 C877 1.396 . S
C876 C879 1.453 . S
C876 C880 1.684 . S
C877 C867 1.723 . S
C877 C876 1.396 . S
C877 C878 1.394 . S
C878 C848 1.723 . S
C878 C874 1.397 . S
C878 C877 1.394 . S
C879 H851 0.982 . S
C879 H855 0.979 . S
C879 H856 0.977 . S
C879 C876 1.453 . S
C880 H852 0.979 . S
C880 H853 0.980 . S
C880 H854 0.983 . S
C880 C876 1.684 . S
H881 C899 0.948 . S
H882 C840 0.948 . S
H883 C858 0.979 . S
H884 C858 0.980 . S
H885 C858 0.983 . S
H886 C857 0.982 . S
H887 C857 0.979 . S
H888 C857 0.977 . S
H889 C859 0.948 . S
H890 C861 0.947 . S
H891 C862 0.948 . S
H892 C868 0.982 . S
H893 C868 0.979 . S
H894 C868 0.977 . S
H895 C869 0.979 . S
H896 C869 0.980 . S
H897 C869 0.983 . S
H898 C842 0.947 . S
C899 C842 1.392 . S
C899 C843 1.419 . S
C899 H881 0.948 . S
C900 C901 1.391 . S
C900 C904 1.391 . S
C900 H942 0.948 . S
C901 C900 1.391 . S
C901 C902 1.391 . S
C902 C901 1.391 . S
C902 H958 0.947 . S
C902 C959 1.392 . S
C903 C904 1.391 . S
C903 C907 1.397 . S
C903 C959 1.419 . S
C904 C900 1.391 . S
C904 C903 1.391 . S
C904 C905 1.399 . S
C905 C904 1.399 . S
C905 C908 1.396 . S
C905 C917 1.453 . S
C905 C918 1.684 . S
H906 C930 0.948 . S
C907 C903 1.397 . S
C907 C908 1.394 . S
C907 C926 1.723 . S
C908 C905 1.396 . S
C908 C907 1.394 . S
C908 C938 1.723 . S
H909 C932 0.947 . S
H910 C933 0.948 . S
H911 C939 0.982 . S
H912 C940 0.979 . S
H913 C940 0.980 . S
H914 C940 0.983 . S
H915 C939 0.979 . S
H916 C939 0.977 . S
C917 C905 1.453 . S
C917 H946 0.982 . S
C917 H947 0.979 . S
C917 H948 0.977 . S
C918 C905 1.684 . S
C918 H943 0.979 . S
C918 H944 0.980 . S
C918 H945 0.983 . S
C919 C920 1.391 . S
C919 C924 1.391 . S
C919 H949 0.948 . S
C920 C919 1.391 . S
C920 C921 1.391 . S
C921 C920 1.391 . S
C921 C922 1.392 . S
C921 H950 0.947 . S
C922 C921 1.392 . S
C922 C923 1.419 . S
C922 H951 0.948 . S
C923 C922 1.419 . S
C923 C924 1.391 . S
C923 C927 1.397 . S
C924 C919 1.391 . S
C924 C923 1.391 . S
C924 C925 1.399 . S
C925 C924 1.399 . S
C925 C926 1.396 . S
C925 C928 1.453 . S
C925 C929 1.684 . S
C926 C907 1.723 . S
C926 C925 1.396 . S
C926 C927 1.394 . S
C927 C923 1.397 . S
C927 C926 1.394 . S
C927 C937 1.723 . S
C928 C925 1.453 . S
C928 H952 0.982 . S
C928 H953 0.979 . S
C928 H954 0.977 . S
C929 C925 1.684 . S
C929 H955 0.979 . S
C929 H956 0.980 . S
C929 H957 0.983 . S
C930 H906 0.948 . S
C930 C931 1.391 . S
C930 C935 1.391 . S
C931 C930 1.391 . S
C931 C932 1.391 . S
C932 H909 0.947 . S
C932 C931 1.391 . S
C932 C933 1.392 . S
C933 H910 0.948 . S
C933 C932 1.392 . S
C933 C934 1.419 . S
C934 C933 1.419 . S
C934 C935 1.391 . S
C934 C938 1.397 . S
C935 C930 1.391 . S
C935 C934 1.391 . S
C935 C936 1.399 . S
C936 C935 1.399 . S
C936 C937 1.396 . S
C936 C939 1.453 . S
C936 C940 1.684 . S
C937 C927 1.723 . S
C937 C936 1.396 . S
C937 C938 1.394 . S
C938 C908 1.723 . S
C938 C934 1.397 . S
C938 C937 1.394 . S
C939 H911 0.982 . S
C939 H915 0.979 . S
C939 H916 0.977 . S
C939 C936 1.453 . S
C940 H912 0.979 . S
C940 H913 0.980 . S
C940 H914 0.983 . S
C940 C936 1.684 . S
H941 C959 0.948 . S
H942 C900 0.948 . S
H943 C918 0.979 . S
H944 C918 0.980 . S
H945 C918 0.983 . S
H946 C917 0.982 . S
H947 C917 0.979 . S
H948 C917 0.977 . S
H949 C919 0.948 . S
H950 C921 0.947 . S
H951 C922 0.948 . S
H952 C928 0.982 . S
H953 C928 0.979 . S
H954 C928 0.977 . S
H955 C929 0.979 . S
H956 C929 0.980 . S
H957 C929 0.983 . S
H958 C902 0.947 . S
C959 C902 1.392 . S
C959 C903 1.419 . S
C959 H941 0.948 . S
C960 C961 1.391 . S
C960 C964 1.391 . S
C960 H1002 0.948 . S
C961 C960 1.391 . S
C961 C962 1.391 . S
C962 C961 1.391 . S
C962 H1018 0.947 . S
C962 C1019 1.392 . S
C963 C964 1.391 . S
C963 C967 1.397 . S
C963 C1019 1.419 . S
C964 C960 1.391 . S
C964 C963 1.391 . S
C964 C965 1.399 . S
C965 C964 1.399 . S
C965 C968 1.396 . S
C965 C977 1.453 . S
C965 C978 1.684 . S
H966 C990 0.948 . S
C967 C963 1.397 . S
C967 C968 1.394 . S
C967 C986 1.723 . S
C968 C965 1.396 . S
C968 C967 1.394 . S
C968 C998 1.723 . S
H969 C992 0.947 . S
H970 C993 0.948 . S
H971 C999 0.982 . S
H972 C1000 0.979 . S
H973 C1000 0.980 . S
H974 C1000 0.983 . S
H975 C999 0.979 . S
H976 C999 0.977 . S
C977 C965 1.453 . S
C977 H1006 0.982 . S
C977 H1007 0.979 . S
C977 H1008 0.977 . S
C978 C965 1.684 . S
C978 H1003 0.979 . S
C978 H1004 0.980 . S
C978 H1005 0.983 . S
C979 C980 1.391 . S
C979 C984 1.391 . S
C979 H1009 0.948 . S
C980 C979 1.391 . S
C980 C981 1.391 . S
C981 C980 1.391 . S
C981 C982 1.392 . S
C981 H1010 0.947 . S
C982 C981 1.392 . S
C982 C983 1.419 . S
C982 H1011 0.948 . S
C983 C982 1.419 . S
C983 C984 1.391 . S
C983 C987 1.397 . S
C984 C979 1.391 . S
C984 C983 1.391 . S
C984 C985 1.399 . S
C985 C984 1.399 . S
C985 C986 1.396 . S
C985 C988 1.453 . S
C985 C989 1.684 . S
C986 C967 1.723 . S
C986 C985 1.396 . S
C986 C987 1.394 . S
C987 C983 1.397 . S
C987 C986 1.394 . S
C987 C997 1.723 . S
C988 C985 1.453 . S
C988 H1012 0.982 . S
C988 H1013 0.979 . S
C988 H1014 0.977 . S
C989 C985 1.684 . S
C989 H1015 0.979 . S
C989 H1016 0.980 . S
C989 H1017 0.983 . S
C990 H966 0.948 . S
C990 C991 1.391 . S
C990 C995 1.391 . S
C991 C990 1.391 . S
C991 C992 1.391 . S
C992 H969 0.947 . S
C992 C991 1.391 . S
C992 C993 1.392 . S
C993 H970 0.948 . S
C993 C992 1.392 . S
C993 C994 1.419 . S
C994 C993 1.419 . S
C994 C995 1.391 . S
C994 C998 1.397 . S
C995 C990 1.391 . S
C995 C994 1.391 . S
C995 C996 1.399 . S
C996 C995 1.399 . S
C996 C997 1.396 . S
C996 C999 1.453 . S
C996 C1000 1.684 . S
C997 C987 1.723 . S
C997 C996 1.396 . S
C997 C998 1.394 . S
C998 C968 1.723 . S
C998 C994 1.397 . S
C998 C997 1.394 . S
C999 H971 0.982 . S
C999 H975 0.979 . S
C999 H976 0.977 . S
C999 C996 1.453 . S
C1000 H972 0.979 . S
C1000 H973 0.980 . S
C1000 H974 0.983 . S
C1000 C996 1.684 . S
H1001 C1019 0.948 . S
H1002 C960 0.948 . S
H1003 C978 0.979 . S
H1004 C978 0.980 . S
H1005 C978 0.983 . S
H1006 C977 0.982 . S
H1007 C977 0.979 . S
H1008 C977 0.977 . S
H1009 C979 0.948 . S
H1010 C981 0.947 . S
H1011 C982 0.948 . S
H1012 C988 0.982 . S
H1013 C988 0.979 . S
H1014 C988 0.977 . S
H1015 C989 0.979 . S
H1016 C989 0.980 . S
H1017 C989 0.983 . S
H1018 C962 0.947 . S
C1019 C962 1.392 . S
C1019 C963 1.419 . S
C1019 H1001 0.948 . S
C1020 C1021 1.391 . S
C1020 C1024 1.391 . S
C1020 H1062 0.948 . S
C1021 C1020 1.391 . S
C1021 C1022 1.391 . S
C1022 C1021 1.391 . S
C1022 H1078 0.947 . S
C1022 C1079 1.392 . S
C1023 C1024 1.391 . S
C1023 C1027 1.397 . S
C1023 C1079 1.419 . S
C1024 C1020 1.391 . S
C1024 C1023 1.391 . S
C1024 C1025 1.399 . S
C1025 C1024 1.399 . S
C1025 C1028 1.396 . S
C1025 C1037 1.453 . S
C1025 C1038 1.684 . S
H1026 C1050 0.948 . S
C1027 C1023 1.397 . S
C1027 C1028 1.394 . S
C1027 C1046 1.723 . S
C1028 C1025 1.396 . S
C1028 C1027 1.394 . S
C1028 C1058 1.723 . S
H1029 C1052 0.947 . S
H1030 C1053 0.948 . S
H1031 C1059 0.982 . S
H1032 C1060 0.979 . S
H1033 C1060 0.980 . S
H1034 C1060 0.983 . S
H1035 C1059 0.979 . S
H1036 C1059 0.977 . S
C1037 C1025 1.453 . S
C1037 H1066 0.982 . S
C1037 H1067 0.979 . S
C1037 H1068 0.977 . S
C1038 C1025 1.684 . S
C1038 H1063 0.979 . S
C1038 H1064 0.980 . S
C1038 H1065 0.983 . S
C1039 C1040 1.391 . S
C1039 C1044 1.391 . S
C1039 H1069 0.948 . S
C1040 C1039 1.391 . S
C1040 C1041 1.391 . S
C1041 C1040 1.391 . S
C1041 C1042 1.392 . S
C1041 H1070 0.947 . S
C1042 C1041 1.392 . S
C1042 C1043 1.419 . S
C1042 H1071 0.948 . S
C1043 C1042 1.419 . S
C1043 C1044 1.391 . S
C1043 C1047 1.397 . S
C1044 C1039 1.391 . S
C1044 C1043 1.391 . S
C1044 C1045 1.399 . S
C1045 C1044 1.399 . S
C1045 C1046 1.396 . S
C1045 C1048 1.453 . S
C1045 C1049 1.684 . S
C1046 C1027 1.723 . S
C1046 C1045 1.396 . S
C1046 C1047 1.394 . S
C1047 C1043 1.397 . S
C1047 C1046 1.394 . S
C1047 C1057 1.723 . S
C1048 C1045 1.453 . S
C1048 H1072 0.982 . S
C1048 H1073 0.979 . S
C1048 H1074 0.977 . S
C1049 C1045 1.684 . S
C1049 H1075 0.979 . S
C1049 H1076 0.980 . S
C1049 H1077 0.983 . S
C1050 H1026 0.948 . S
C1050 C1051 1.391 . S
C1050 C1055 1.391 . S
C1051 C1050 1.391 . S
C1051 C1052 1.391 . S
C1052 H1029 0.947 . S
C1052 C1051 1.391 . S
C1052 C1053 1.392 . S
C1053 H1030 0.948 . S
C1053 C1052 1.392 . S
C1053 C1054 1.419 . S
C1054 C1053 1.419 . S
C1054 C1055 1.391 . S
C1054 C1058 1.397 . S
C1055 C1050 1.391 . S
C1055 C1054 1.391 . S
C1055 C1056 1.399 . S
C1056 C1055 1.399 . S
C1056 C1057 1.396 . S
C1056 C1059 1.453 . S
C1056 C1060 1.684 . S
C1057 C1047 1.723 . S
C1057 C1056 1.396 . S
C1057 C1058 1.394 . S
C1058 C1028 1.723 . S
C1058 C1054 1.397 . S
C1058 C1057 1.394 . S
C1059 H1031 0.982 . S
C1059 H1035 0.979 . S
C1059 H1036 0.977 . S
C1059 C1056 1.453 . S
C1060 H1032 0.979 . S
C1060 H1033 0.980 . S
C1060 H1034 0.983 . S
C1060 C1056 1.684 . S
H1061 C1079 0.948 . S
H1062 C1020 0.948 . S
H1063 C1038 0.979 . S
H1064 C1038 0.980 . S
H1065 C1038 0.983 . S
H1066 C1037 0.982 . S
H1067 C1037 0.979 . S
H1068 C1037 0.977 . S
H1069 C1039 0.948 . S
H1070 C1041 0.947 . S
H1071 C1042 0.948 . S
H1072 C1048 0.982 . S
H1073 C1048 0.979 . S
H1074 C1048 0.977 . S
H1075 C1049 0.979 . S
H1076 C1049 0.980 . S
H1077 C1049 0.983 . S
H1078 C1022 0.947 . S
C1079 C1022 1.392 . S
C1079 C1023 1.419 . S
C1079 H1061 0.948 . S
Gd1080 N1111 2.661 . S
Gd1080 N1117 2.601 . S
Gd1080 O1124 2.545 . S
Gd1080 O1125 2.606 1_545 S
Gd1080 O1127 2.429 . S
Gd1080 O1128 2.545 1_545 S
Gd1080 O1129 2.412 . S
Gd1080 O1131 2.362 1_554 S
Gd1080 O1132 2.324 1_545 S
Gd1080 C1139 2.828 . S
Gd1081 N1090 2.661 . S
Gd1081 N1094 2.601 . S
Gd1081 O1125 2.362 1_556 S
Gd1081 O1126 2.324 1_565 S
Gd1081 O1130 2.545 . S
Gd1081 O1131 2.606 1_565 S
Gd1081 O1133 2.429 . S
Gd1081 O1134 2.545 1_565 S
Gd1081 O1135 2.412 . S
Gd1081 C1148 2.828 . S
C1082 C1085 1.417 . S
C1082 C1087 1.431 . S
C1082 C1088 1.412 . S
C1083 C1086 1.437 . S
C1083 C1087 1.317 . S
C1083 H1102 0.929 . S
C1084 C1085 1.426 . S
C1084 C1086 1.413 . S
C1084 N1094 1.359 . S
C1085 C1082 1.417 . S
C1085 C1084 1.426 . S
C1085 N1090 1.350 . S
C1086 C1083 1.437 . S
C1086 C1084 1.413 . S
C1086 C1096 1.391 . S
C1087 C1082 1.431 . S
C1087 C1083 1.317 . S
C1087 H1098 0.930 . S
C1088 C1082 1.412 . S
C1088 C1089 1.355 . S
C1088 H1100 0.930 . S
C1089 C1088 1.355 . S
C1089 C1091 1.402 . S
C1089 H1101 0.930 . S
N1090 Gd1081 2.661 . S
N1090 C1085 1.350 . S
N1090 C1091 1.307 . S
C1091 C1089 1.402 . S
C1091 N1090 1.307 . S
C1091 H1092 0.930 . S
H1092 C1091 0.930 . S
C1093 N1094 1.334 . S
C1093 C1095 1.394 . S
C1093 H1097 0.930 . S
N1094 Gd1081 2.601 . S
N1094 C1084 1.359 . S
N1094 C1093 1.334 . S
C1095 C1093 1.394 . S
C1095 C1096 1.359 . S
C1095 H1107 0.930 . S
C1096 C1086 1.391 . S
C1096 C1095 1.359 . S
C1096 H1108 0.929 . S
H1097 C1093 0.930 . S
H1098 C1087 0.930 . S
H1099 C1116 0.930 . S
H1100 C1088 0.930 . S
H1101 C1089 0.930 . S
H1102 C1083 0.929 . S
H1103 C1121 0.930 . S
H1104 C1112 0.930 . S
H1105 C1113 0.930 . S
H1106 C1137 0.929 . S
H1107 C1095 0.930 . S
H1108 C1096 0.929 . S
H1109 C1138 0.930 . S
H1110 C1119 0.930 . S
N1111 Gd1080 2.661 . S
N1111 C1115 1.350 . S
N1111 C1116 1.307 . S
C1112 H1104 0.930 . S
C1112 C1113 1.355 . S
C1112 C1114 1.412 . S
C1113 H1105 0.930 . S
C1113 C1112 1.355 . S
C1113 C1116 1.402 . S
C1114 C1112 1.412 . S
C1114 C1115 1.417 . S
C1114 C1138 1.431 . S
C1115 N1111 1.350 . S
C1115 C1114 1.417 . S
C1115 C1118 1.426 . S
C1116 H1099 0.930 . S
C1116 N1111 1.307 . S
C1116 C1113 1.402 . S
N1117 Gd1080 2.601 . S
N1117 C1118 1.359 . S
N1117 C1121 1.334 . S
C1118 C1115 1.426 . S
C1118 N1117 1.359 . S
C1118 C1122 1.413 . S
C1119 H1110 0.930 . S
C1119 C1120 1.359 . S
C1119 C1121 1.394 . S
C1120 C1119 1.359 . S
C1120 C1122 1.391 . S
C1120 H1123 0.929 . S
C1121 H1103 0.930 . S
C1121 N1117 1.334 . S
C1121 C1119 1.394 . S
C1122 C1118 1.413 . S
C1122 C1120 1.391 . S
C1122 C1137 1.437 . S
H1123 C1120 0.929 . S
O1124 Gd1080 2.545 . S
O1124 C1139 1.258 . S
O1125 Gd1080 2.606 1_565 S
O1125 Gd1081 2.362 1_554 S
O1125 C1136 1.284 . S
O1126 Gd1081 2.324 1_545 S
O1126 C1146 1.254 . S
O1127 Gd1080 2.429 . S
O1127 C1146 1.268 1_554 S
O1128 Gd1080 2.545 1_565 S
O1128 C1136 1.250 . S
O1129 Gd1080 2.412 . S
O1129 C1139 1.252 . S
O1130 Gd1081 2.545 . S
O1130 C1148 1.258 . S
O1131 Gd1080 2.362 1_556 S
O1131 Gd1081 2.606 1_545 S
O1131 C1147 1.284 . S
O1132 Gd1080 2.324 1_565 S
O1132 C1155 1.254 . S
O1133 Gd1081 2.429 . S
O1133 C1155 1.268 1_556 S
O1134 Gd1081 2.545 1_545 S
O1134 C1147 1.250 . S
O1135 Gd1081 2.412 . S
O1135 C1148 1.252 . S
C1136 O1125 1.284 . S
C1136 O1128 1.250 . S
C1137 H1106 0.929 . S
C1137 C1122 1.437 . S
C1137 C1138 1.317 . S
C1138 H1109 0.930 . S
C1138 C1114 1.431 . S
C1138 C1137 1.317 . S
C1139 Gd1080 2.828 . S
C1139 O1124 1.258 . S
C1139 O1129 1.252 . S
C1139 C1140 1.497 . S
C1140 C1139 1.497 . S
C1140 C1141 1.395 . S
C1140 C1142 1.380 1_545 S
C1141 C1140 1.395 . S
C1141 C1144 1.398 . S
C1141 H1156 0.930 . S
C1142 C1140 1.380 1_565 S
C1142 C1143 1.391 . S
C1142 H1157 0.930 . S
C1143 C1142 1.391 . S
C1143 C1145 1.387 1_565 S
C1144 C1141 1.398 . S
C1144 C1145 1.380 . S
C1144 H1158 0.930 . S
C1145 C1143 1.387 1_545 S
C1145 C1144 1.380 . S
C1145 H1159 0.930 . S
C1146 O1126 1.254 . S
C1146 O1127 1.268 1_556 S
C1147 O1131 1.284 . S
C1147 O1134 1.250 . S
C1148 Gd1081 2.828 . S
C1148 O1130 1.258 . S
C1148 O1135 1.252 . S
C1148 C1149 1.497 . S
C1149 C1148 1.497 . S
C1149 C1150 1.395 . S
C1149 C1151 1.380 1_565 S
C1150 C1149 1.395 . S
C1150 C1153 1.398 . S
C1150 H1160 0.930 . S
C1151 C1149 1.380 1_545 S
C1151 C1152 1.391 . S
C1151 H1161 0.930 . S
C1152 C1151 1.391 . S
C1152 C1154 1.387 1_545 S
C1153 C1150 1.398 . S
C1153 C1154 1.380 . S
C1153 H1162 0.930 . S
C1154 C1152 1.387 1_565 S
C1154 C1153 1.380 . S
C1154 H1163 0.930 . S
C1155 O1132 1.254 . S
C1155 O1133 1.268 1_554 S
H1156 C1141 0.930 . S
H1157 C1142 0.930 . S
H1158 C1144 0.930 . S
H1159 C1145 0.930 . S
H1160 C1150 0.930 . S
H1161 C1151 0.930 . S
H1162 C1153 0.930 . S
H1163 C1154 0.930 . S
Gd1164 N1195 2.661 . S
Gd1164 N1201 2.601 . S
Gd1164 O1208 2.545 . S
Gd1164 O1209 2.606 1_655 S
Gd1164 O1211 2.429 . S
Gd1164 O1212 2.545 1_655 S
Gd1164 O1213 2.412 . S
Gd1164 O1215 2.362 1_554 S
Gd1164 O1216 2.324 1_655 S
Gd1164 C1223 2.828 . S
Gd1165 N1174 2.661 . S
Gd1165 N1178 2.601 . S
Gd1165 O1209 2.362 1_556 S
Gd1165 O1210 2.324 1_455 S
Gd1165 O1214 2.545 . S
Gd1165 O1215 2.606 1_455 S
Gd1165 O1217 2.429 . S
Gd1165 O1218 2.545 1_455 S
Gd1165 O1219 2.412 . S
Gd1165 C1232 2.828 . S
C1166 C1169 1.417 . S
C1166 C1171 1.431 . S
C1166 C1172 1.412 . S
C1167 C1170 1.437 . S
C1167 C1171 1.317 . S
C1167 H1186 0.929 . S
C1168 C1169 1.426 . S
C1168 C1170 1.413 . S
C1168 N1178 1.359 . S
C1169 C1166 1.417 . S
C1169 C1168 1.426 . S
C1169 N1174 1.350 . S
C1170 C1167 1.437 . S
C1170 C1168 1.413 . S
C1170 C1180 1.391 . S
C1171 C1166 1.431 . S
C1171 C1167 1.317 . S
C1171 H1182 0.930 . S
C1172 C1166 1.412 . S
C1172 C1173 1.355 . S
C1172 H1184 0.930 . S
C1173 C1172 1.355 . S
C1173 C1175 1.402 . S
C1173 H1185 0.930 . S
N1174 Gd1165 2.661 . S
N1174 C1169 1.350 . S
N1174 C1175 1.307 . S
C1175 C1173 1.402 . S
C1175 N1174 1.307 . S
C1175 H1176 0.930 . S
H1176 C1175 0.930 . S
C1177 N1178 1.334 . S
C1177 C1179 1.394 . S
C1177 H1181 0.930 . S
N1178 Gd1165 2.601 . S
N1178 C1168 1.359 . S
N1178 C1177 1.334 . S
C1179 C1177 1.394 . S
C1179 C1180 1.359 . S
C1179 H1191 0.930 . S
C1180 C1170 1.391 . S
C1180 C1179 1.359 . S
C1180 H1192 0.929 . S
H1181 C1177 0.930 . S
H1182 C1171 0.930 . S
H1183 C1200 0.930 . S
H1184 C1172 0.930 . S
H1185 C1173 0.930 . S
H1186 C1167 0.929 . S
H1187 C1205 0.930 . S
H1188 C1196 0.930 . S
H1189 C1197 0.930 . S
H1190 C1221 0.929 . S
H1191 C1179 0.930 . S
H1192 C1180 0.929 . S
H1193 C1222 0.930 . S
H1194 C1203 0.930 . S
N1195 Gd1164 2.661 . S
N1195 C1199 1.350 . S
N1195 C1200 1.307 . S
C1196 H1188 0.930 . S
C1196 C1197 1.355 . S
C1196 C1198 1.412 . S
C1197 H1189 0.930 . S
C1197 C1196 1.355 . S
C1197 C1200 1.402 . S
C1198 C1196 1.412 . S
C1198 C1199 1.417 . S
C1198 C1222 1.431 . S
C1199 N1195 1.350 . S
C1199 C1198 1.417 . S
C1199 C1202 1.426 . S
C1200 H1183 0.930 . S
C1200 N1195 1.307 . S
C1200 C1197 1.402 . S
N1201 Gd1164 2.601 . S
N1201 C1202 1.359 . S
N1201 C1205 1.334 . S
C1202 C1199 1.426 . S
C1202 N1201 1.359 . S
C1202 C1206 1.413 . S
C1203 H1194 0.930 . S
C1203 C1204 1.359 . S
C1203 C1205 1.394 . S
C1204 C1203 1.359 . S
C1204 C1206 1.391 . S
C1204 H1207 0.929 . S
C1205 H1187 0.930 . S
C1205 N1201 1.334 . S
C1205 C1203 1.394 . S
C1206 C1202 1.413 . S
C1206 C1204 1.391 . S
C1206 C1221 1.437 . S
H1207 C1204 0.929 . S
O1208 Gd1164 2.545 . S
O1208 C1223 1.258 . S
O1209 Gd1164 2.606 1_455 S
O1209 Gd1165 2.362 1_554 S
O1209 C1220 1.284 . S
O1210 Gd1165 2.324 1_655 S
O1210 C1230 1.254 . S
O1211 Gd1164 2.429 . S
O1211 C1230 1.268 1_554 S
O1212 Gd1164 2.545 1_455 S
O1212 C1220 1.250 . S
O1213 Gd1164 2.412 . S
O1213 C1223 1.252 . S
O1214 Gd1165 2.545 . S
O1214 C1232 1.258 . S
O1215 Gd1164 2.362 1_556 S
O1215 Gd1165 2.606 1_655 S
O1215 C1231 1.284 . S
O1216 Gd1164 2.324 1_455 S
O1216 C1239 1.254 . S
O1217 Gd1165 2.429 . S
O1217 C1239 1.268 1_556 S
O1218 Gd1165 2.545 1_655 S
O1218 C1231 1.250 . S
O1219 Gd1165 2.412 . S
O1219 C1232 1.252 . S
C1220 O1209 1.284 . S
C1220 O1212 1.250 . S
C1221 H1190 0.929 . S
C1221 C1206 1.437 . S
C1221 C1222 1.317 . S
C1222 H1193 0.930 . S
C1222 C1198 1.431 . S
C1222 C1221 1.317 . S
C1223 Gd1164 2.828 . S
C1223 O1208 1.258 . S
C1223 O1213 1.252 . S
C1223 C1224 1.497 . S
C1224 C1223 1.497 . S
C1224 C1225 1.395 . S
C1224 C1226 1.380 1_655 S
C1225 C1224 1.395 . S
C1225 C1228 1.398 . S
C1225 H1240 0.930 . S
C1226 C1224 1.380 1_455 S
C1226 C1227 1.391 . S
C1226 H1241 0.930 . S
C1227 C1226 1.391 . S
C1227 C1229 1.387 1_455 S
C1228 C1225 1.398 . S
C1228 C1229 1.380 . S
C1228 H1242 0.930 . S
C1229 C1227 1.387 1_655 S
C1229 C1228 1.380 . S
C1229 H1243 0.930 . S
C1230 O1210 1.254 . S
C1230 O1211 1.268 1_556 S
C1231 O1215 1.284 . S
C1231 O1218 1.250 . S
C1232 Gd1165 2.828 . S
C1232 O1214 1.258 . S
C1232 O1219 1.252 . S
C1232 C1233 1.497 . S
C1233 C1232 1.497 . S
C1233 C1234 1.395 . S
C1233 C1235 1.380 1_455 S
C1234 C1233 1.395 . S
C1234 C1237 1.398 . S
C1234 H1244 0.930 . S
C1235 C1233 1.380 1_655 S
C1235 C1236 1.391 . S
C1235 H1245 0.930 . S
C1236 C1235 1.391 . S
C1236 C1238 1.387 1_655 S
C1237 C1234 1.398 . S
C1237 C1238 1.380 . S
C1237 H1246 0.930 . S
C1238 C1236 1.387 1_455 S
C1238 C1237 1.380 . S
C1238 H1247 0.930 . S
C1239 O1216 1.254 . S
C1239 O1217 1.268 1_554 S
H1240 C1225 0.930 . S
H1241 C1226 0.930 . S
H1242 C1228 0.930 . S
H1243 C1229 0.930 . S
H1244 C1234 0.930 . S
H1245 C1235 0.930 . S
H1246 C1237 0.930 . S
H1247 C1238 0.930 . S
Gd1248 N1279 2.661 . S
Gd1248 N1285 2.601 . S
Gd1248 O1292 2.545 . S
Gd1248 O1293 2.606 . S
Gd1248 O1295 2.429 . S
Gd1248 O1296 2.545 . S
Gd1248 O1297 2.412 . S
Gd1248 O1299 2.362 1_556 S
Gd1248 O1300 2.324 . S
Gd1248 C1307 2.828 . S
Gd1249 N1258 2.661 . S
Gd1249 N1262 2.601 . S
Gd1249 O1293 2.362 1_554 S
Gd1249 O1294 2.324 . S
Gd1249 O1298 2.545 . S
Gd1249 O1299 2.606 . S
Gd1249 O1301 2.429 . S
Gd1249 O1302 2.545 . S
Gd1249 O1303 2.412 . S
Gd1249 C1316 2.828 . S
C1250 C1253 1.417 . S
C1250 C1255 1.431 . S
C1250 C1256 1.412 . S
C1251 C1254 1.437 . S
C1251 C1255 1.317 . S
C1251 H1270 0.929 . S
C1252 C1253 1.426 . S
C1252 C1254 1.413 . S
C1252 N1262 1.359 . S
C1253 C1250 1.417 . S
C1253 C1252 1.426 . S
C1253 N1258 1.350 . S
C1254 C1251 1.437 . S
C1254 C1252 1.413 . S
C1254 C1264 1.391 . S
C1255 C1250 1.431 . S
C1255 C1251 1.317 . S
C1255 H1266 0.930 . S
C1256 C1250 1.412 . S
C1256 C1257 1.355 . S
C1256 H1268 0.930 . S
C1257 C1256 1.355 . S
C1257 C1259 1.402 . S
C1257 H1269 0.930 . S
N1258 Gd1249 2.661 . S
N1258 C1253 1.350 . S
N1258 C1259 1.307 . S
C1259 C1257 1.402 . S
C1259 N1258 1.307 . S
C1259 H1260 0.930 . S
H1260 C1259 0.930 . S
C1261 N1262 1.334 . S
C1261 C1263 1.394 . S
C1261 H1265 0.930 . S
N1262 Gd1249 2.601 . S
N1262 C1252 1.359 . S
N1262 C1261 1.334 . S
C1263 C1261 1.394 . S
C1263 C1264 1.359 . S
C1263 H1275 0.930 . S
C1264 C1254 1.391 . S
C1264 C1263 1.359 . S
C1264 H1276 0.929 . S
H1265 C1261 0.930 . S
H1266 C1255 0.930 . S
H1267 C1284 0.930 . S
H1268 C1256 0.930 . S
H1269 C1257 0.930 . S
H1270 C1251 0.929 . S
H1271 C1289 0.930 . S
H1272 C1280 0.930 . S
H1273 C1281 0.930 . S
H1274 C1305 0.929 . S
H1275 C1263 0.930 . S
H1276 C1264 0.929 . S
H1277 C1306 0.930 . S
H1278 C1287 0.930 . S
N1279 Gd1248 2.661 . S
N1279 C1283 1.350 . S
N1279 C1284 1.307 . S
C1280 H1272 0.930 . S
C1280 C1281 1.355 . S
C1280 C1282 1.412 . S
C1281 H1273 0.930 . S
C1281 C1280 1.355 . S
C1281 C1284 1.402 . S
C1282 C1280 1.412 . S
C1282 C1283 1.417 . S
C1282 C1306 1.431 . S
C1283 N1279 1.350 . S
C1283 C1282 1.417 . S
C1283 C1286 1.426 . S
C1284 H1267 0.930 . S
C1284 N1279 1.307 . S
C1284 C1281 1.402 . S
N1285 Gd1248 2.601 . S
N1285 C1286 1.359 . S
N1285 C1289 1.334 . S
C1286 C1283 1.426 . S
C1286 N1285 1.359 . S
C1286 C1290 1.413 . S
C1287 H1278 0.930 . S
C1287 C1288 1.359 . S
C1287 C1289 1.394 . S
C1288 C1287 1.359 . S
C1288 C1290 1.391 . S
C1288 H1291 0.929 . S
C1289 H1271 0.930 . S
C1289 N1285 1.334 . S
C1289 C1287 1.394 . S
C1290 C1286 1.413 . S
C1290 C1288 1.391 . S
C1290 C1305 1.437 . S
H1291 C1288 0.929 . S
O1292 Gd1248 2.545 . S
O1292 C1307 1.258 . S
O1293 Gd1248 2.606 . S
O1293 Gd1249 2.362 1_556 S
O1293 C1304 1.284 . S
O1294 Gd1249 2.324 . S
O1294 C1314 1.254 . S
O1295 Gd1248 2.429 . S
O1295 C1314 1.268 1_556 S
O1296 Gd1248 2.545 . S
O1296 C1304 1.250 . S
O1297 Gd1248 2.412 . S
O1297 C1307 1.252 . S
O1298 Gd1249 2.545 . S
O1298 C1316 1.258 . S
O1299 Gd1248 2.362 1_554 S
O1299 Gd1249 2.606 . S
O1299 C1315 1.284 . S
O1300 Gd1248 2.324 . S
O1300 C1323 1.254 . S
O1301 Gd1249 2.429 . S
O1301 C1323 1.268 1_554 S
O1302 Gd1249 2.545 . S
O1302 C1315 1.250 . S
O1303 Gd1249 2.412 . S
O1303 C1316 1.252 . S
C1304 O1293 1.284 . S
C1304 O1296 1.250 . S
C1305 H1274 0.929 . S
C1305 C1290 1.437 . S
C1305 C1306 1.317 . S
C1306 H1277 0.930 . S
C1306 C1282 1.431 . S
C1306 C1305 1.317 . S
C1307 Gd1248 2.828 . S
C1307 O1292 1.258 . S
C1307 O1297 1.252 . S
C1307 C1308 1.497 . S
C1308 C1307 1.497 . S
C1308 C1309 1.395 . S
C1308 C1310 1.380 . S
C1309 C1308 1.395 . S
C1309 C1312 1.398 . S
C1309 H1324 0.930 . S
C1310 C1308 1.380 . S
C1310 C1311 1.391 . S
C1310 H1325 0.930 . S
C1311 C1310 1.391 . S
C1311 C1313 1.387 . S
C1312 C1309 1.398 . S
C1312 C1313 1.380 . S
C1312 H1326 0.930 . S
C1313 C1311 1.387 . S
C1313 C1312 1.380 . S
C1313 H1327 0.930 . S
C1314 O1294 1.254 . S
C1314 O1295 1.268 1_554 S
C1315 O1299 1.284 . S
C1315 O1302 1.250 . S
C1316 Gd1249 2.828 . S
C1316 O1298 1.258 . S
C1316 O1303 1.252 . S
C1316 C1317 1.497 . S
C1317 C1316 1.497 . S
C1317 C1318 1.395 . S
C1317 C1319 1.380 . S
C1318 C1317 1.395 . S
C1318 C1321 1.398 . S
C1318 H1328 0.930 . S
C1319 C1317 1.380 . S
C1319 C1320 1.391 . S
C1319 H1329 0.930 . S
C1320 C1319 1.391 . S
C1320 C1322 1.387 . S
C1321 C1318 1.398 . S
C1321 C1322 1.380 . S
C1321 H1330 0.930 . S
C1322 C1320 1.387 . S
C1322 C1321 1.380 . S
C1322 H1331 0.930 . S
C1323 O1300 1.254 . S
C1323 O1301 1.268 1_556 S
H1324 C1309 0.930 . S
H1325 C1310 0.930 . S
H1326 C1312 0.930 . S
H1327 C1313 0.930 . S
H1328 C1318 0.930 . S
H1329 C1319 0.930 . S
H1330 C1321 0.930 . S
H1331 C1322 0.930 . S
Gd1332 N1363 2.661 . S
Gd1332 N1369 2.601 . S
Gd1332 O1376 2.545 . S
Gd1332 O1377 2.606 . S
Gd1332 O1379 2.429 . S
Gd1332 O1380 2.545 . S
Gd1332 O1381 2.412 . S
Gd1332 O1383 2.362 . S
Gd1332 O1384 2.324 . S
Gd1332 C1391 2.828 . S
Gd1333 N1342 2.661 . S
Gd1333 N1346 2.601 . S
Gd1333 O1377 2.362 . S
Gd1333 O1378 2.324 . S
Gd1333 O1382 2.545 . S
Gd1333 O1383 2.606 . S
Gd1333 O1385 2.429 . S
Gd1333 O1386 2.545 . S
Gd1333 O1387 2.412 . S
Gd1333 C1400 2.828 . S
C1334 C1337 1.417 . S
C1334 C1339 1.431 . S
C1334 C1340 1.412 . S
C1335 C1338 1.437 . S
C1335 C1339 1.317 . S
C1335 H1354 0.929 . S
C1336 C1337 1.426 . S
C1336 C1338 1.413 . S
C1336 N1346 1.359 . S
C1337 C1334 1.417 . S
C1337 C1336 1.426 . S
C1337 N1342 1.350 . S
C1338 C1335 1.437 . S
C1338 C1336 1.413 . S
C1338 C1348 1.391 . S
C1339 C1334 1.431 . S
C1339 C1335 1.317 . S
C1339 H1350 0.930 . S
C1340 C1334 1.412 . S
C1340 C1341 1.355 . S
C1340 H1352 0.930 . S
C1341 C1340 1.355 . S
C1341 C1343 1.402 . S
C1341 H1353 0.930 . S
N1342 Gd1333 2.661 . S
N1342 C1337 1.350 . S
N1342 C1343 1.307 . S
C1343 C1341 1.402 . S
C1343 N1342 1.307 . S
C1343 H1344 0.930 . S
H1344 C1343 0.930 . S
C1345 N1346 1.334 . S
C1345 C1347 1.394 . S
C1345 H1349 0.930 . S
N1346 Gd1333 2.601 . S
N1346 C1336 1.359 . S
N1346 C1345 1.334 . S
C1347 C1345 1.394 . S
C1347 C1348 1.359 . S
C1347 H1359 0.930 . S
C1348 C1338 1.391 . S
C1348 C1347 1.359 . S
C1348 H1360 0.929 . S
H1349 C1345 0.930 . S
H1350 C1339 0.930 . S
H1351 C1368 0.930 . S
H1352 C1340 0.930 . S
H1353 C1341 0.930 . S
H1354 C1335 0.929 . S
H1355 C1373 0.930 . S
H1356 C1364 0.930 . S
H1357 C1365 0.930 . S
H1358 C1389 0.929 . S
H1359 C1347 0.930 . S
H1360 C1348 0.929 . S
H1361 C1390 0.930 . S
H1362 C1371 0.930 . S
N1363 Gd1332 2.661 . S
N1363 C1367 1.350 . S
N1363 C1368 1.307 . S
C1364 H1356 0.930 . S
C1364 C1365 1.355 . S
C1364 C1366 1.412 . S
C1365 H1357 0.930 . S
C1365 C1364 1.355 . S
C1365 C1368 1.402 . S
C1366 C1364 1.412 . S
C1366 C1367 1.417 . S
C1366 C1390 1.431 . S
C1367 N1363 1.350 . S
C1367 C1366 1.417 . S
C1367 C1370 1.426 . S
C1368 H1351 0.930 . S
C1368 N1363 1.307 . S
C1368 C1365 1.402 . S
N1369 Gd1332 2.601 . S
N1369 C1370 1.359 . S
N1369 C1373 1.334 . S
C1370 C1367 1.426 . S
C1370 N1369 1.359 . S
C1370 C1374 1.413 . S
C1371 H1362 0.930 . S
C1371 C1372 1.359 . S
C1371 C1373 1.394 . S
C1372 C1371 1.359 . S
C1372 C1374 1.391 . S
C1372 H1375 0.929 . S
C1373 H1355 0.930 . S
C1373 N1369 1.334 . S
C1373 C1371 1.394 . S
C1374 C1370 1.413 . S
C1374 C1372 1.391 . S
C1374 C1389 1.437 . S
H1375 C1372 0.929 . S
O1376 Gd1332 2.545 . S
O1376 C1391 1.258 . S
O1377 Gd1332 2.606 . S
O1377 Gd1333 2.362 . S
O1377 C1388 1.284 . S
O1378 Gd1333 2.324 . S
O1378 C1398 1.254 . S
O1379 Gd1332 2.429 . S
O1379 C1398 1.268 . S
O1380 Gd1332 2.545 . S
O1380 C1388 1.250 . S
O1381 Gd1332 2.412 . S
O1381 C1391 1.252 . S
O1382 Gd1333 2.545 . S
O1382 C1400 1.258 . S
O1383 Gd1332 2.362 . S
O1383 Gd1333 2.606 . S
O1383 C1399 1.284 . S
O1384 Gd1332 2.324 . S
O1384 C1407 1.254 . S
O1385 Gd1333 2.429 . S
O1385 C1407 1.268 . S
O1386 Gd1333 2.545 . S
O1386 C1399 1.250 . S
O1387 Gd1333 2.412 . S
O1387 C1400 1.252 . S
C1388 O1377 1.284 . S
C1388 O1380 1.250 . S
C1389 H1358 0.929 . S
C1389 C1374 1.437 . S
C1389 C1390 1.317 . S
C1390 H1361 0.930 . S
C1390 C1366 1.431 . S
C1390 C1389 1.317 . S
C1391 Gd1332 2.828 . S
C1391 O1376 1.258 . S
C1391 O1381 1.252 . S
C1391 C1392 1.497 . S
C1392 C1391 1.497 . S
C1392 C1393 1.395 . S
C1392 C1394 1.380 . S
C1393 C1392 1.395 . S
C1393 C1396 1.398 . S
C1393 H1408 0.930 . S
C1394 C1392 1.380 . S
C1394 C1395 1.391 . S
C1394 H1409 0.930 . S
C1395 C1394 1.391 . S
C1395 C1397 1.387 . S
C1396 C1393 1.398 . S
C1396 C1397 1.380 . S
C1396 H1410 0.930 . S
C1397 C1395 1.387 . S
C1397 C1396 1.380 . S
C1397 H1411 0.930 . S
C1398 O1378 1.254 . S
C1398 O1379 1.268 . S
C1399 O1383 1.284 . S
C1399 O1386 1.250 . S
C1400 Gd1333 2.828 . S
C1400 O1382 1.258 . S
C1400 O1387 1.252 . S
C1400 C1401 1.497 . S
C1401 C1400 1.497 . S
C1401 C1402 1.395 . S
C1401 C1403 1.380 . S
C1402 C1401 1.395 . S
C1402 C1405 1.398 . S
C1402 H1412 0.930 . S
C1403 C1401 1.380 . S
C1403 C1404 1.391 . S
C1403 H1413 0.930 . S
C1404 C1403 1.391 . S
C1404 C1406 1.387 . S
C1405 C1402 1.398 . S
C1405 C1406 1.380 . S
C1405 H1414 0.930 . S
C1406 C1404 1.387 . S
C1406 C1405 1.380 . S
C1406 H1415 0.930 . S
C1407 O1384 1.254 . S
C1407 O1385 1.268 . S
H1408 C1393 0.930 . S
H1409 C1394 0.930 . S
H1410 C1396 0.930 . S
H1411 C1397 0.930 . S
H1412 C1402 0.930 . S
H1413 C1403 0.930 . S
H1414 C1405 0.930 . S
H1415 C1406 0.930 . S
Gd1416 N1447 2.661 . S
Gd1416 N1453 2.601 . S
Gd1416 O1460 2.545 . S
Gd1416 O1461 2.606 . S
Gd1416 O1463 2.429 . S
Gd1416 O1464 2.545 . S
Gd1416 O1465 2.412 . S
Gd1416 O1467 2.362 . S
Gd1416 O1468 2.324 . S
Gd1416 C1475 2.828 . S
Gd1417 N1426 2.661 . S
Gd1417 N1430 2.601 . S
Gd1417 O1461 2.362 . S
Gd1417 O1462 2.324 . S
Gd1417 O1466 2.545 . S
Gd1417 O1467 2.606 . S
Gd1417 O1469 2.429 . S
Gd1417 O1470 2.545 . S
Gd1417 O1471 2.412 . S
Gd1417 C1484 2.828 . S
C1418 C1421 1.417 . S
C1418 C1423 1.431 . S
C1418 C1424 1.412 . S
C1419 C1422 1.437 . S
C1419 C1423 1.317 . S
C1419 H1438 0.929 . S
C1420 C1421 1.426 . S
C1420 C1422 1.413 . S
C1420 N1430 1.359 . S
C1421 C1418 1.417 . S
C1421 C1420 1.426 . S
C1421 N1426 1.350 . S
C1422 C1419 1.437 . S
C1422 C1420 1.413 . S
C1422 C1432 1.391 . S
C1423 C1418 1.431 . S
C1423 C1419 1.317 . S
C1423 H1434 0.930 . S
C1424 C1418 1.412 . S
C1424 C1425 1.355 . S
C1424 H1436 0.930 . S
C1425 C1424 1.355 . S
C1425 C1427 1.402 . S
C1425 H1437 0.930 . S
N1426 Gd1417 2.661 . S
N1426 C1421 1.350 . S
N1426 C1427 1.307 . S
C1427 C1425 1.402 . S
C1427 N1426 1.307 . S
C1427 H1428 0.930 . S
H1428 C1427 0.930 . S
C1429 N1430 1.334 . S
C1429 C1431 1.394 . S
C1429 H1433 0.930 . S
N1430 Gd1417 2.601 . S
N1430 C1420 1.359 . S
N1430 C1429 1.334 . S
C1431 C1429 1.394 . S
C1431 C1432 1.359 . S
C1431 H1443 0.930 . S
C1432 C1422 1.391 . S
C1432 C1431 1.359 . S
C1432 H1444 0.929 . S
H1433 C1429 0.930 . S
H1434 C1423 0.930 . S
H1435 C1452 0.930 . S
H1436 C1424 0.930 . S
H1437 C1425 0.930 . S
H1438 C1419 0.929 . S
H1439 C1457 0.930 . S
H1440 C1448 0.930 . S
H1441 C1449 0.930 . S
H1442 C1473 0.929 . S
H1443 C1431 0.930 . S
H1444 C1432 0.929 . S
H1445 C1474 0.930 . S
H1446 C1455 0.930 . S
N1447 Gd1416 2.661 . S
N1447 C1451 1.350 . S
N1447 C1452 1.307 . S
C1448 H1440 0.930 . S
C1448 C1449 1.355 . S
C1448 C1450 1.412 . S
C1449 H1441 0.930 . S
C1449 C1448 1.355 . S
C1449 C1452 1.402 . S
C1450 C1448 1.412 . S
C1450 C1451 1.417 . S
C1450 C1474 1.431 . S
C1451 N1447 1.350 . S
C1451 C1450 1.417 . S
C1451 C1454 1.426 . S
C1452 H1435 0.930 . S
C1452 N1447 1.307 . S
C1452 C1449 1.402 . S
N1453 Gd1416 2.601 . S
N1453 C1454 1.359 . S
N1453 C1457 1.334 . S
C1454 C1451 1.426 . S
C1454 N1453 1.359 . S
C1454 C1458 1.413 . S
C1455 H1446 0.930 . S
C1455 C1456 1.359 . S
C1455 C1457 1.394 . S
C1456 C1455 1.359 . S
C1456 C1458 1.391 . S
C1456 H1459 0.929 . S
C1457 H1439 0.930 . S
C1457 N1453 1.334 . S
C1457 C1455 1.394 . S
C1458 C1454 1.413 . S
C1458 C1456 1.391 . S
C1458 C1473 1.437 . S
H1459 C1456 0.929 . S
O1460 Gd1416 2.545 . S
O1460 C1475 1.258 . S
O1461 Gd1416 2.606 . S
O1461 Gd1417 2.362 . S
O1461 C1472 1.284 . S
O1462 Gd1417 2.324 . S
O1462 C1482 1.254 . S
O1463 Gd1416 2.429 . S
O1463 C1482 1.268 . S
O1464 Gd1416 2.545 . S
O1464 C1472 1.250 . S
O1465 Gd1416 2.412 . S
O1465 C1475 1.252 . S
O1466 Gd1417 2.545 . S
O1466 C1484 1.258 . S
O1467 Gd1416 2.362 . S
O1467 Gd1417 2.606 . S
O1467 C1483 1.284 . S
O1468 Gd1416 2.324 . S
O1468 C1491 1.254 . S
O1469 Gd1417 2.429 . S
O1469 C1491 1.268 . S
O1470 Gd1417 2.545 . S
O1470 C1483 1.250 . S
O1471 Gd1417 2.412 . S
O1471 C1484 1.252 . S
C1472 O1461 1.284 . S
C1472 O1464 1.250 . S
C1473 H1442 0.929 . S
C1473 C1458 1.437 . S
C1473 C1474 1.317 . S
C1474 H1445 0.930 . S
C1474 C1450 1.431 . S
C1474 C1473 1.317 . S
C1475 Gd1416 2.828 . S
C1475 O1460 1.258 . S
C1475 O1465 1.252 . S
C1475 C1476 1.497 . S
C1476 C1475 1.497 . S
C1476 C1477 1.395 . S
C1476 C1478 1.380 . S
C1477 C1476 1.395 . S
C1477 C1480 1.398 . S
C1477 H1492 0.930 . S
C1478 C1476 1.380 . S
C1478 C1479 1.391 . S
C1478 H1493 0.930 . S
C1479 C1478 1.391 . S
C1479 C1481 1.387 . S
C1480 C1477 1.398 . S
C1480 C1481 1.380 . S
C1480 H1494 0.930 . S
C1481 C1479 1.387 . S
C1481 C1480 1.380 . S
C1481 H1495 0.930 . S
C1482 O1462 1.254 . S
C1482 O1463 1.268 . S
C1483 O1467 1.284 . S
C1483 O1470 1.250 . S
C1484 Gd1417 2.828 . S
C1484 O1466 1.258 . S
C1484 O1471 1.252 . S
C1484 C1485 1.497 . S
C1485 C1484 1.497 . S
C1485 C1486 1.395 . S
C1485 C1487 1.380 . S
C1486 C1485 1.395 . S
C1486 C1489 1.398 . S
C1486 H1496 0.930 . S
C1487 C1485 1.380 . S
C1487 C1488 1.391 . S
C1487 H1497 0.930 . S
C1488 C1487 1.391 . S
C1488 C1490 1.387 . S
C1489 C1486 1.398 . S
C1489 C1490 1.380 . S
C1489 H1498 0.930 . S
C1490 C1488 1.387 . S
C1490 C1489 1.380 . S
C1490 H1499 0.930 . S
C1491 O1468 1.254 . S
C1491 O1469 1.268 . S
H1492 C1477 0.930 . S
H1493 C1478 0.930 . S
H1494 C1480 0.930 . S
H1495 C1481 0.930 . S
H1496 C1486 0.930 . S
H1497 C1487 0.930 . S
H1498 C1489 0.930 . S
H1499 C1490 0.930 . S
Gd1500 N1531 2.661 . S
Gd1500 N1537 2.601 . S
Gd1500 O1544 2.545 . S
Gd1500 O1545 2.606 . S
Gd1500 O1547 2.429 . S
Gd1500 O1548 2.545 . S
Gd1500 O1549 2.412 . S
Gd1500 O1551 2.362 . S
Gd1500 O1552 2.324 . S
Gd1500 C1559 2.828 . S
Gd1501 N1510 2.661 . S
Gd1501 N1514 2.601 . S
Gd1501 O1545 2.362 . S
Gd1501 O1546 2.324 . S
Gd1501 O1550 2.545 . S
Gd1501 O1551 2.606 . S
Gd1501 O1553 2.429 . S
Gd1501 O1554 2.545 . S
Gd1501 O1555 2.412 . S
Gd1501 C1568 2.828 . S
C1502 C1505 1.417 . S
C1502 C1507 1.431 . S
C1502 C1508 1.412 . S
C1503 C1506 1.437 . S
C1503 C1507 1.317 . S
C1503 H1522 0.929 . S
C1504 C1505 1.426 . S
C1504 C1506 1.413 . S
C1504 N1514 1.359 . S
C1505 C1502 1.417 . S
C1505 C1504 1.426 . S
C1505 N1510 1.350 . S
C1506 C1503 1.437 . S
C1506 C1504 1.413 . S
C1506 C1516 1.391 . S
C1507 C1502 1.431 . S
C1507 C1503 1.317 . S
C1507 H1518 0.930 . S
C1508 C1502 1.412 . S
C1508 C1509 1.355 . S
C1508 H1520 0.930 . S
C1509 C1508 1.355 . S
C1509 C1511 1.402 . S
C1509 H1521 0.930 . S
N1510 Gd1501 2.661 . S
N1510 C1505 1.350 . S
N1510 C1511 1.307 . S
C1511 C1509 1.402 . S
C1511 N1510 1.307 . S
C1511 H1512 0.930 . S
H1512 C1511 0.930 . S
C1513 N1514 1.334 . S
C1513 C1515 1.394 . S
C1513 H1517 0.930 . S
N1514 Gd1501 2.601 . S
N1514 C1504 1.359 . S
N1514 C1513 1.334 . S
C1515 C1513 1.394 . S
C1515 C1516 1.359 . S
C1515 H1527 0.930 . S
C1516 C1506 1.391 . S
C1516 C1515 1.359 . S
C1516 H1528 0.929 . S
H1517 C1513 0.930 . S
H1518 C1507 0.930 . S
H1519 C1536 0.930 . S
H1520 C1508 0.930 . S
H1521 C1509 0.930 . S
H1522 C1503 0.929 . S
H1523 C1541 0.930 . S
H1524 C1532 0.930 . S
H1525 C1533 0.930 . S
H1526 C1557 0.929 . S
H1527 C1515 0.930 . S
H1528 C1516 0.929 . S
H1529 C1558 0.930 . S
H1530 C1539 0.930 . S
N1531 Gd1500 2.661 . S
N1531 C1535 1.350 . S
N1531 C1536 1.307 . S
C1532 H1524 0.930 . S
C1532 C1533 1.355 . S
C1532 C1534 1.412 . S
C1533 H1525 0.930 . S
C1533 C1532 1.355 . S
C1533 C1536 1.402 . S
C1534 C1532 1.412 . S
C1534 C1535 1.417 . S
C1534 C1558 1.431 . S
C1535 N1531 1.350 . S
C1535 C1534 1.417 . S
C1535 C1538 1.426 . S
C1536 H1519 0.930 . S
C1536 N1531 1.307 . S
C1536 C1533 1.402 . S
N1537 Gd1500 2.601 . S
N1537 C1538 1.359 . S
N1537 C1541 1.334 . S
C1538 C1535 1.426 . S
C1538 N1537 1.359 . S
C1538 C1542 1.413 . S
C1539 H1530 0.930 . S
C1539 C1540 1.359 . S
C1539 C1541 1.394 . S
C1540 C1539 1.359 . S
C1540 C1542 1.391 . S
C1540 H1543 0.929 . S
C1541 H1523 0.930 . S
C1541 N1537 1.334 . S
C1541 C1539 1.394 . S
C1542 C1538 1.413 . S
C1542 C1540 1.391 . S
C1542 C1557 1.437 . S
H1543 C1540 0.929 . S
O1544 Gd1500 2.545 . S
O1544 C1559 1.258 . S
O1545 Gd1500 2.606 . S
O1545 Gd1501 2.362 . S
O1545 C1556 1.284 . S
O1546 Gd1501 2.324 . S
O1546 C1566 1.254 . S
O1547 Gd1500 2.429 . S
O1547 C1566 1.268 . S
O1548 Gd1500 2.545 . S
O1548 C1556 1.250 . S
O1549 Gd1500 2.412 . S
O1549 C1559 1.252 . S
O1550 Gd1501 2.545 . S
O1550 C1568 1.258 . S
O1551 Gd1500 2.362 . S
O1551 Gd1501 2.606 . S
O1551 C1567 1.284 . S
O1552 Gd1500 2.324 . S
O1552 C1575 1.254 . S
O1553 Gd1501 2.429 . S
O1553 C1575 1.268 . S
O1554 Gd1501 2.545 . S
O1554 C1567 1.250 . S
O1555 Gd1501 2.412 . S
O1555 C1568 1.252 . S
C1556 O1545 1.284 . S
C1556 O1548 1.250 . S
C1557 H1526 0.929 . S
C1557 C1542 1.437 . S
C1557 C1558 1.317 . S
C1558 H1529 0.930 . S
C1558 C1534 1.431 . S
C1558 C1557 1.317 . S
C1559 Gd1500 2.828 . S
C1559 O1544 1.258 . S
C1559 O1549 1.252 . S
C1559 C1560 1.497 . S
C1560 C1559 1.497 . S
C1560 C1561 1.395 . S
C1560 C1562 1.380 . S
C1561 C1560 1.395 . S
C1561 C1564 1.398 . S
C1561 H1576 0.930 . S
C1562 C1560 1.380 . S
C1562 C1563 1.391 . S
C1562 H1577 0.930 . S
C1563 C1562 1.391 . S
C1563 C1565 1.387 . S
C1564 C1561 1.398 . S
C1564 C1565 1.380 . S
C1564 H1578 0.930 . S
C1565 C1563 1.387 . S
C1565 C1564 1.380 . S
C1565 H1579 0.930 . S
C1566 O1546 1.254 . S
C1566 O1547 1.268 . S
C1567 O1551 1.284 . S
C1567 O1554 1.250 . S
C1568 Gd1501 2.828 . S
C1568 O1550 1.258 . S
C1568 O1555 1.252 . S
C1568 C1569 1.497 . S
C1569 C1568 1.497 . S
C1569 C1570 1.395 . S
C1569 C1571 1.380 . S
C1570 C1569 1.395 . S
C1570 C1573 1.398 . S
C1570 H1580 0.930 . S
C1571 C1569 1.380 . S
C1571 C1572 1.391 . S
C1571 H1581 0.930 . S
C1572 C1571 1.391 . S
C1572 C1574 1.387 . S
C1573 C1570 1.398 . S
C1573 C1574 1.380 . S
C1573 H1582 0.930 . S
C1574 C1572 1.387 . S
C1574 C1573 1.380 . S
C1574 H1583 0.930 . S
C1575 O1552 1.254 . S
C1575 O1553 1.268 . S
H1576 C1561 0.930 . S
H1577 C1562 0.930 . S
H1578 C1564 0.930 . S
H1579 C1565 0.930 . S
H1580 C1570 0.930 . S
H1581 C1571 0.930 . S
H1582 C1573 0.930 . S
H1583 C1574 0.930 . S
Gd1584 N1615 2.661 . S
Gd1584 N1621 2.601 . S
Gd1584 O1628 2.545 . S
Gd1584 O1629 2.606 . S
Gd1584 O1631 2.429 . S
Gd1584 O1632 2.545 . S
Gd1584 O1633 2.412 . S
Gd1584 O1635 2.362 . S
Gd1584 O1636 2.324 . S
Gd1584 C1643 2.828 . S
Gd1585 N1594 2.661 . S
Gd1585 N1598 2.601 . S
Gd1585 O1629 2.362 . S
Gd1585 O1630 2.324 . S
Gd1585 O1634 2.545 . S
Gd1585 O1635 2.606 . S
Gd1585 O1637 2.429 . S
Gd1585 O1638 2.545 . S
Gd1585 O1639 2.412 . S
Gd1585 C1652 2.828 . S
C1586 C1589 1.417 . S
C1586 C1591 1.431 . S
C1586 C1592 1.412 . S
C1587 C1590 1.437 . S
C1587 C1591 1.317 . S
C1587 H1606 0.929 . S
C1588 C1589 1.426 . S
C1588 C1590 1.413 . S
C1588 N1598 1.359 . S
C1589 C1586 1.417 . S
C1589 C1588 1.426 . S
C1589 N1594 1.350 . S
C1590 C1587 1.437 . S
C1590 C1588 1.413 . S
C1590 C1600 1.391 . S
C1591 C1586 1.431 . S
C1591 C1587 1.317 . S
C1591 H1602 0.930 . S
C1592 C1586 1.412 . S
C1592 C1593 1.355 . S
C1592 H1604 0.930 . S
C1593 C1592 1.355 . S
C1593 C1595 1.402 . S
C1593 H1605 0.930 . S
N1594 Gd1585 2.661 . S
N1594 C1589 1.350 . S
N1594 C1595 1.307 . S
C1595 C1593 1.402 . S
C1595 N1594 1.307 . S
C1595 H1596 0.930 . S
H1596 C1595 0.930 . S
C1597 N1598 1.334 . S
C1597 C1599 1.394 . S
C1597 H1601 0.930 . S
N1598 Gd1585 2.601 . S
N1598 C1588 1.359 . S
N1598 C1597 1.334 . S
C1599 C1597 1.394 . S
C1599 C1600 1.359 . S
C1599 H1611 0.930 . S
C1600 C1590 1.391 . S
C1600 C1599 1.359 . S
C1600 H1612 0.929 . S
H1601 C1597 0.930 . S
H1602 C1591 0.930 . S
H1603 C1620 0.930 . S
H1604 C1592 0.930 . S
H1605 C1593 0.930 . S
H1606 C1587 0.929 . S
H1607 C1625 0.930 . S
H1608 C1616 0.930 . S
H1609 C1617 0.930 . S
H1610 C1641 0.929 . S
H1611 C1599 0.930 . S
H1612 C1600 0.929 . S
H1613 C1642 0.930 . S
H1614 C1623 0.930 . S
N1615 Gd1584 2.661 . S
N1615 C1619 1.350 . S
N1615 C1620 1.307 . S
C1616 H1608 0.930 . S
C1616 C1617 1.355 . S
C1616 C1618 1.412 . S
C1617 H1609 0.930 . S
C1617 C1616 1.355 . S
C1617 C1620 1.402 . S
C1618 C1616 1.412 . S
C1618 C1619 1.417 . S
C1618 C1642 1.431 . S
C1619 N1615 1.350 . S
C1619 C1618 1.417 . S
C1619 C1622 1.426 . S
C1620 H1603 0.930 . S
C1620 N1615 1.307 . S
C1620 C1617 1.402 . S
N1621 Gd1584 2.601 . S
N1621 C1622 1.359 . S
N1621 C1625 1.334 . S
C1622 C1619 1.426 . S
C1622 N1621 1.359 . S
C1622 C1626 1.413 . S
C1623 H1614 0.930 . S
C1623 C1624 1.359 . S
C1623 C1625 1.394 . S
C1624 C1623 1.359 . S
C1624 C1626 1.391 . S
C1624 H1627 0.929 . S
C1625 H1607 0.930 . S
C1625 N1621 1.334 . S
C1625 C1623 1.394 . S
C1626 C1622 1.413 . S
C1626 C1624 1.391 . S
C1626 C1641 1.437 . S
H1627 C1624 0.929 . S
O1628 Gd1584 2.545 . S
O1628 C1643 1.258 . S
O1629 Gd1584 2.606 . S
O1629 Gd1585 2.362 . S
O1629 C1640 1.284 . S
O1630 Gd1585 2.324 . S
O1630 C1650 1.254 . S
O1631 Gd1584 2.429 . S
O1631 C1650 1.268 . S
O1632 Gd1584 2.545 . S
O1632 C1640 1.250 . S
O1633 Gd1584 2.412 . S
O1633 C1643 1.252 . S
O1634 Gd1585 2.545 . S
O1634 C1652 1.258 . S
O1635 Gd1584 2.362 . S
O1635 Gd1585 2.606 . S
O1635 C1651 1.284 . S
O1636 Gd1584 2.324 . S
O1636 C1659 1.254 . S
O1637 Gd1585 2.429 . S
O1637 C1659 1.268 . S
O1638 Gd1585 2.545 . S
O1638 C1651 1.250 . S
O1639 Gd1585 2.412 . S
O1639 C1652 1.252 . S
C1640 O1629 1.284 . S
C1640 O1632 1.250 . S
C1641 H1610 0.929 . S
C1641 C1626 1.437 . S
C1641 C1642 1.317 . S
C1642 H1613 0.930 . S
C1642 C1618 1.431 . S
C1642 C1641 1.317 . S
C1643 Gd1584 2.828 . S
C1643 O1628 1.258 . S
C1643 O1633 1.252 . S
C1643 C1644 1.497 . S
C1644 C1643 1.497 . S
C1644 C1645 1.395 . S
C1644 C1646 1.380 . S
C1645 C1644 1.395 . S
C1645 C1648 1.398 . S
C1645 H1660 0.930 . S
C1646 C1644 1.380 . S
C1646 C1647 1.391 . S
C1646 H1661 0.930 . S
C1647 C1646 1.391 . S
C1647 C1649 1.387 . S
C1648 C1645 1.398 . S
C1648 C1649 1.380 . S
C1648 H1662 0.930 . S
C1649 C1647 1.387 . S
C1649 C1648 1.380 . S
C1649 H1663 0.930 . S
C1650 O1630 1.254 . S
C1650 O1631 1.268 . S
C1651 O1635 1.284 . S
C1651 O1638 1.250 . S
C1652 Gd1585 2.828 . S
C1652 O1634 1.258 . S
C1652 O1639 1.252 . S
C1652 C1653 1.497 . S
C1653 C1652 1.497 . S
C1653 C1654 1.395 . S
C1653 C1655 1.380 . S
C1654 C1653 1.395 . S
C1654 C1657 1.398 . S
C1654 H1664 0.930 . S
C1655 C1653 1.380 . S
C1655 C1656 1.391 . S
C1655 H1665 0.930 . S
C1656 C1655 1.391 . S
C1656 C1658 1.387 . S
C1657 C1654 1.398 . S
C1657 C1658 1.380 . S
C1657 H1666 0.930 . S
C1658 C1656 1.387 . S
C1658 C1657 1.380 . S
C1658 H1667 0.930 . S
C1659 O1636 1.254 . S
C1659 O1637 1.268 . S
H1660 C1645 0.930 . S
H1661 C1646 0.930 . S
H1662 C1648 0.930 . S
H1663 C1649 0.930 . S
H1664 C1654 0.930 . S
H1665 C1655 0.930 . S
H1666 C1657 0.930 . S
H1667 C1658 0.930 . S
Gd1668 N1699 2.661 . S
Gd1668 N1705 2.601 . S
Gd1668 O1712 2.545 . S
Gd1668 O1713 2.606 . S
Gd1668 O1715 2.429 . S
Gd1668 O1716 2.545 . S
Gd1668 O1717 2.412 . S
Gd1668 O1719 2.362 . S
Gd1668 O1720 2.324 . S
Gd1668 C1727 2.828 . S
Gd1669 N1678 2.661 . S
Gd1669 N1682 2.601 . S
Gd1669 O1713 2.362 . S
Gd1669 O1714 2.324 . S
Gd1669 O1718 2.545 . S
Gd1669 O1719 2.606 . S
Gd1669 O1721 2.429 . S
Gd1669 O1722 2.545 . S
Gd1669 O1723 2.412 . S
Gd1669 C1736 2.828 . S
C1670 C1673 1.417 . S
C1670 C1675 1.431 . S
C1670 C1676 1.412 . S
C1671 C1674 1.437 . S
C1671 C1675 1.317 . S
C1671 H1690 0.929 . S
C1672 C1673 1.426 . S
C1672 C1674 1.413 . S
C1672 N1682 1.359 . S
C1673 C1670 1.417 . S
C1673 C1672 1.426 . S
C1673 N1678 1.350 . S
C1674 C1671 1.437 . S
C1674 C1672 1.413 . S
C1674 C1684 1.391 . S
C1675 C1670 1.431 . S
C1675 C1671 1.317 . S
C1675 H1686 0.930 . S
C1676 C1670 1.412 . S
C1676 C1677 1.355 . S
C1676 H1688 0.930 . S
C1677 C1676 1.355 . S
C1677 C1679 1.402 . S
C1677 H1689 0.930 . S
N1678 Gd1669 2.661 . S
N1678 C1673 1.350 . S
N1678 C1679 1.307 . S
C1679 C1677 1.402 . S
C1679 N1678 1.307 . S
C1679 H1680 0.930 . S
H1680 C1679 0.930 . S
C1681 N1682 1.334 . S
C1681 C1683 1.394 . S
C1681 H1685 0.930 . S
N1682 Gd1669 2.601 . S
N1682 C1672 1.359 . S
N1682 C1681 1.334 . S
C1683 C1681 1.394 . S
C1683 C1684 1.359 . S
C1683 H1695 0.930 . S
C1684 C1674 1.391 . S
C1684 C1683 1.359 . S
C1684 H1696 0.929 . S
H1685 C1681 0.930 . S
H1686 C1675 0.930 . S
H1687 C1704 0.930 . S
H1688 C1676 0.930 . S
H1689 C1677 0.930 . S
H1690 C1671 0.929 . S
H1691 C1709 0.930 . S
H1692 C1700 0.930 . S
H1693 C1701 0.930 . S
H1694 C1725 0.929 . S
H1695 C1683 0.930 . S
H1696 C1684 0.929 . S
H1697 C1726 0.930 . S
H1698 C1707 0.930 . S
N1699 Gd1668 2.661 . S
N1699 C1703 1.350 . S
N1699 C1704 1.307 . S
C1700 H1692 0.930 . S
C1700 C1701 1.355 . S
C1700 C1702 1.412 . S
C1701 H1693 0.930 . S
C1701 C1700 1.355 . S
C1701 C1704 1.402 . S
C1702 C1700 1.412 . S
C1702 C1703 1.417 . S
C1702 C1726 1.431 . S
C1703 N1699 1.350 . S
C1703 C1702 1.417 . S
C1703 C1706 1.426 . S
C1704 H1687 0.930 . S
C1704 N1699 1.307 . S
C1704 C1701 1.402 . S
N1705 Gd1668 2.601 . S
N1705 C1706 1.359 . S
N1705 C1709 1.334 . S
C1706 C1703 1.426 . S
C1706 N1705 1.359 . S
C1706 C1710 1.413 . S
C1707 H1698 0.930 . S
C1707 C1708 1.359 . S
C1707 C1709 1.394 . S
C1708 C1707 1.359 . S
C1708 C1710 1.391 . S
C1708 H1711 0.929 . S
C1709 H1691 0.930 . S
C1709 N1705 1.334 . S
C1709 C1707 1.394 . S
C1710 C1706 1.413 . S
C1710 C1708 1.391 . S
C1710 C1725 1.437 . S
H1711 C1708 0.929 . S
O1712 Gd1668 2.545 . S
O1712 C1727 1.258 . S
O1713 Gd1668 2.606 . S
O1713 Gd1669 2.362 . S
O1713 C1724 1.284 . S
O1714 Gd1669 2.324 . S
O1714 C1734 1.254 . S
O1715 Gd1668 2.429 . S
O1715 C1734 1.268 . S
O1716 Gd1668 2.545 . S
O1716 C1724 1.250 . S
O1717 Gd1668 2.412 . S
O1717 C1727 1.252 . S
O1718 Gd1669 2.545 . S
O1718 C1736 1.258 . S
O1719 Gd1668 2.362 . S
O1719 Gd1669 2.606 . S
O1719 C1735 1.284 . S
O1720 Gd1668 2.324 . S
O1720 C1743 1.254 . S
O1721 Gd1669 2.429 . S
O1721 C1743 1.268 . S
O1722 Gd1669 2.545 . S
O1722 C1735 1.250 . S
O1723 Gd1669 2.412 . S
O1723 C1736 1.252 . S
C1724 O1713 1.284 . S
C1724 O1716 1.250 . S
C1725 H1694 0.929 . S
C1725 C1710 1.437 . S
C1725 C1726 1.317 . S
C1726 H1697 0.930 . S
C1726 C1702 1.431 . S
C1726 C1725 1.317 . S
C1727 Gd1668 2.828 . S
C1727 O1712 1.258 . S
C1727 O1717 1.252 . S
C1727 C1728 1.497 . S
C1728 C1727 1.497 . S
C1728 C1729 1.395 . S
C1728 C1730 1.380 . S
C1729 C1728 1.395 . S
C1729 C1732 1.398 . S
C1729 H1744 0.930 . S
C1730 C1728 1.380 . S
C1730 C1731 1.391 . S
C1730 H1745 0.930 . S
C1731 C1730 1.391 . S
C1731 C1733 1.387 . S
C1732 C1729 1.398 . S
C1732 C1733 1.380 . S
C1732 H1746 0.930 . S
C1733 C1731 1.387 . S
C1733 C1732 1.380 . S
C1733 H1747 0.930 . S
C1734 O1714 1.254 . S
C1734 O1715 1.268 . S
C1735 O1719 1.284 . S
C1735 O1722 1.250 . S
C1736 Gd1669 2.828 . S
C1736 O1718 1.258 . S
C1736 O1723 1.252 . S
C1736 C1737 1.497 . S
C1737 C1736 1.497 . S
C1737 C1738 1.395 . S
C1737 C1739 1.380 . S
C1738 C1737 1.395 . S
C1738 C1741 1.398 . S
C1738 H1748 0.930 . S
C1739 C1737 1.380 . S
C1739 C1740 1.391 . S
C1739 H1749 0.930 . S
C1740 C1739 1.391 . S
C1740 C1742 1.387 . S
C1741 C1738 1.398 . S
C1741 C1742 1.380 . S
C1741 H1750 0.930 . S
C1742 C1740 1.387 . S
C1742 C1741 1.380 . S
C1742 H1751 0.930 . S
C1743 O1720 1.254 . S
C1743 O1721 1.268 . S
H1744 C1729 0.930 . S
H1745 C1730 0.930 . S
H1746 C1732 0.930 . S
H1747 C1733 0.930 . S
H1748 C1738 0.930 . S
H1749 C1739 0.930 . S
H1750 C1741 0.930 . S
H1751 C1742 0.930 . S
Gd1752 N1783 2.661 . S
Gd1752 N1789 2.601 . S
Gd1752 O1796 2.545 . S
Gd1752 O1797 2.606 . S
Gd1752 O1799 2.429 . S
Gd1752 O1800 2.545 . S
Gd1752 O1801 2.412 . S
Gd1752 O1803 2.362 . S
Gd1752 O1804 2.324 . S
Gd1752 C1811 2.828 . S
Gd1753 N1762 2.661 . S
Gd1753 N1766 2.601 . S
Gd1753 O1797 2.362 . S
Gd1753 O1798 2.324 . S
Gd1753 O1802 2.545 . S
Gd1753 O1803 2.606 . S
Gd1753 O1805 2.429 . S
Gd1753 O1806 2.545 . S
Gd1753 O1807 2.412 . S
Gd1753 C1820 2.828 . S
C1754 C1757 1.417 . S
C1754 C1759 1.431 . S
C1754 C1760 1.412 . S
C1755 C1758 1.437 . S
C1755 C1759 1.317 . S
C1755 H1774 0.929 . S
C1756 C1757 1.426 . S
C1756 C1758 1.413 . S
C1756 N1766 1.359 . S
C1757 C1754 1.417 . S
C1757 C1756 1.426 . S
C1757 N1762 1.350 . S
C1758 C1755 1.437 . S
C1758 C1756 1.413 . S
C1758 C1768 1.391 . S
C1759 C1754 1.431 . S
C1759 C1755 1.317 . S
C1759 H1770 0.930 . S
C1760 C1754 1.412 . S
C1760 C1761 1.355 . S
C1760 H1772 0.930 . S
C1761 C1760 1.355 . S
C1761 C1763 1.402 . S
C1761 H1773 0.930 . S
N1762 Gd1753 2.661 . S
N1762 C1757 1.350 . S
N1762 C1763 1.307 . S
C1763 C1761 1.402 . S
C1763 N1762 1.307 . S
C1763 H1764 0.930 . S
H1764 C1763 0.930 . S
C1765 N1766 1.334 . S
C1765 C1767 1.394 . S
C1765 H1769 0.930 . S
N1766 Gd1753 2.601 . S
N1766 C1756 1.359 . S
N1766 C1765 1.334 . S
C1767 C1765 1.394 . S
C1767 C1768 1.359 . S
C1767 H1779 0.930 . S
C1768 C1758 1.391 . S
C1768 C1767 1.359 . S
C1768 H1780 0.929 . S
H1769 C1765 0.930 . S
H1770 C1759 0.930 . S
H1771 C1788 0.930 . S
H1772 C1760 0.930 . S
H1773 C1761 0.930 . S
H1774 C1755 0.929 . S
H1775 C1793 0.930 . S
H1776 C1784 0.930 . S
H1777 C1785 0.930 . S
H1778 C1809 0.929 . S
H1779 C1767 0.930 . S
H1780 C1768 0.929 . S
H1781 C1810 0.930 . S
H1782 C1791 0.930 . S
N1783 Gd1752 2.661 . S
N1783 C1787 1.350 . S
N1783 C1788 1.307 . S
C1784 H1776 0.930 . S
C1784 C1785 1.355 . S
C1784 C1786 1.412 . S
C1785 H1777 0.930 . S
C1785 C1784 1.355 . S
C1785 C1788 1.402 . S
C1786 C1784 1.412 . S
C1786 C1787 1.417 . S
C1786 C1810 1.431 . S
C1787 N1783 1.350 . S
C1787 C1786 1.417 . S
C1787 C1790 1.426 . S
C1788 H1771 0.930 . S
C1788 N1783 1.307 . S
C1788 C1785 1.402 . S
N1789 Gd1752 2.601 . S
N1789 C1790 1.359 . S
N1789 C1793 1.334 . S
C1790 C1787 1.426 . S
C1790 N1789 1.359 . S
C1790 C1794 1.413 . S
C1791 H1782 0.930 . S
C1791 C1792 1.359 . S
C1791 C1793 1.394 . S
C1792 C1791 1.359 . S
C1792 C1794 1.391 . S
C1792 H1795 0.929 . S
C1793 H1775 0.930 . S
C1793 N1789 1.334 . S
C1793 C1791 1.394 . S
C1794 C1790 1.413 . S
C1794 C1792 1.391 . S
C1794 C1809 1.437 . S
H1795 C1792 0.929 . S
O1796 Gd1752 2.545 . S
O1796 C1811 1.258 . S
O1797 Gd1752 2.606 . S
O1797 Gd1753 2.362 . S
O1797 C1808 1.284 . S
O1798 Gd1753 2.324 . S
O1798 C1818 1.254 . S
O1799 Gd1752 2.429 . S
O1799 C1818 1.268 . S
O1800 Gd1752 2.545 . S
O1800 C1808 1.250 . S
O1801 Gd1752 2.412 . S
O1801 C1811 1.252 . S
O1802 Gd1753 2.545 . S
O1802 C1820 1.258 . S
O1803 Gd1752 2.362 . S
O1803 Gd1753 2.606 . S
O1803 C1819 1.284 . S
O1804 Gd1752 2.324 . S
O1804 C1827 1.254 . S
O1805 Gd1753 2.429 . S
O1805 C1827 1.268 . S
O1806 Gd1753 2.545 . S
O1806 C1819 1.250 . S
O1807 Gd1753 2.412 . S
O1807 C1820 1.252 . S
C1808 O1797 1.284 . S
C1808 O1800 1.250 . S
C1809 H1778 0.929 . S
C1809 C1794 1.437 . S
C1809 C1810 1.317 . S
C1810 H1781 0.930 . S
C1810 C1786 1.431 . S
C1810 C1809 1.317 . S
C1811 Gd1752 2.828 . S
C1811 O1796 1.258 . S
C1811 O1801 1.252 . S
C1811 C1812 1.497 . S
C1812 C1811 1.497 . S
C1812 C1813 1.395 . S
C1812 C1814 1.380 . S
C1813 C1812 1.395 . S
C1813 C1816 1.398 . S
C1813 H1828 0.930 . S
C1814 C1812 1.380 . S
C1814 C1815 1.391 . S
C1814 H1829 0.930 . S
C1815 C1814 1.391 . S
C1815 C1817 1.387 . S
C1816 C1813 1.398 . S
C1816 C1817 1.380 . S
C1816 H1830 0.930 . S
C1817 C1815 1.387 . S
C1817 C1816 1.380 . S
C1817 H1831 0.930 . S
C1818 O1798 1.254 . S
C1818 O1799 1.268 . S
C1819 O1803 1.284 . S
C1819 O1806 1.250 . S
C1820 Gd1753 2.828 . S
C1820 O1802 1.258 . S
C1820 O1807 1.252 . S
C1820 C1821 1.497 . S
C1821 C1820 1.497 . S
C1821 C1822 1.395 . S
C1821 C1823 1.380 . S
C1822 C1821 1.395 . S
C1822 C1825 1.398 . S
C1822 H1832 0.930 . S
C1823 C1821 1.380 . S
C1823 C1824 1.391 . S
C1823 H1833 0.930 . S
C1824 C1823 1.391 . S
C1824 C1826 1.387 . S
C1825 C1822 1.398 . S
C1825 C1826 1.380 . S
C1825 H1834 0.930 . S
C1826 C1824 1.387 . S
C1826 C1825 1.380 . S
C1826 H1835 0.930 . S
C1827 O1804 1.254 . S
C1827 O1805 1.268 . S
H1828 C1813 0.930 . S
H1829 C1814 0.930 . S
H1830 C1816 0.930 . S
H1831 C1817 0.930 . S
H1832 C1822 0.930 . S
H1833 C1823 0.930 . S
H1834 C1825 0.930 . S
H1835 C1826 0.930 . S
C1836 C1837 1.391 . S
C1836 C1838 1.394 . S
C1836 H1852 0.931 . S
C1837 C1836 1.391 . S
C1837 C1841 1.376 . S
C1838 C1836 1.394 . S
C1838 C1839 1.369 . S
C1838 C1842 1.531 . S
C1839 C1838 1.369 . S
C1839 C1840 1.410 . S
C1839 C1847 1.503 . S
C1840 C1839 1.410 . S
C1840 C1841 1.392 . S
C1840 C1843 1.511 . S
C1841 C1837 1.376 . S
C1841 C1840 1.392 . S
C1841 H1853 0.929 . S
C1842 C1838 1.531 . S
C1842 H1854 0.960 . S
C1842 H1855 0.962 . S
C1842 H1856 0.960 . S
C1843 C1840 1.511 . S
C1843 H1857 0.961 . S
C1843 H1858 0.961 . S
C1843 H1859 0.961 . S
C1844 C1845 1.370 . S
C1844 C1846 1.363 . S
C1844 H1860 0.931 . S
C1845 C1844 1.370 . S
C1845 C1849 1.408 . S
C1846 C1844 1.363 . S
C1846 C1847 1.370 . S
C1846 C1850 1.524 . S
C1847 C1839 1.503 . S
C1847 C1846 1.370 . S
C1847 C1848 1.403 . S
C1848 C1847 1.403 . S
C1848 C1849 1.404 . S
C1848 C1851 1.539 . S
C1849 C1845 1.408 . S
C1849 C1848 1.404 . S
C1849 H1861 0.930 . S
C1850 C1846 1.524 . S
C1850 H1862 0.956 . S
C1850 H1863 0.961 . S
C1850 H1864 0.961 . S
C1851 C1848 1.539 . S
C1851 H1865 0.958 . S
C1851 H1866 0.961 . S
C1851 H1867 0.960 . S
H1852 C1836 0.931 . S
H1853 C1841 0.929 . S
H1854 C1842 0.960 . S
H1855 C1842 0.962 . S
H1856 C1842 0.960 . S
H1857 C1843 0.961 . S
H1858 C1843 0.961 . S
H1859 C1843 0.961 . S
H1860 C1844 0.931 . S
H1861 C1849 0.930 . S
H1862 C1850 0.956 . S
H1863 C1850 0.961 . S
H1864 C1850 0.961 . S
H1865 C1851 0.958 . S
H1866 C1851 0.961 . S
H1867 C1851 0.960 . S
C1868 C1869 1.391 . S
C1868 C1870 1.394 . S
C1868 H1884 0.931 . S
C1869 C1868 1.391 . S
C1869 C1873 1.376 . S
C1870 C1868 1.394 . S
C1870 C1871 1.369 . S
C1870 C1874 1.531 . S
C1871 C1870 1.369 . S
C1871 C1872 1.410 . S
C1871 C1879 1.503 . S
C1872 C1871 1.410 . S
C1872 C1873 1.392 . S
C1872 C1875 1.511 . S
C1873 C1869 1.376 . S
C1873 C1872 1.392 . S
C1873 H1885 0.929 . S
C1874 C1870 1.531 . S
C1874 H1886 0.960 . S
C1874 H1887 0.962 . S
C1874 H1888 0.960 . S
C1875 C1872 1.511 . S
C1875 H1889 0.961 . S
C1875 H1890 0.961 . S
C1875 H1891 0.961 . S
C1876 C1877 1.370 . S
C1876 C1878 1.363 . S
C1876 H1892 0.931 . S
C1877 C1876 1.370 . S
C1877 C1881 1.408 . S
C1878 C1876 1.363 . S
C1878 C1879 1.370 . S
C1878 C1882 1.524 . S
C1879 C1871 1.503 . S
C1879 C1878 1.370 . S
C1879 C1880 1.403 . S
C1880 C1879 1.403 . S
C1880 C1881 1.404 . S
C1880 C1883 1.539 . S
C1881 C1877 1.408 . S
C1881 C1880 1.404 . S
C1881 H1893 0.930 . S
C1882 C1878 1.524 . S
C1882 H1894 0.956 . S
C1882 H1895 0.961 . S
C1882 H1896 0.961 . S
C1883 C1880 1.539 . S
C1883 H1897 0.958 . S
C1883 H1898 0.961 . S
C1883 H1899 0.960 . S
H1884 C1868 0.931 . S
H1885 C1873 0.929 . S
H1886 C1874 0.960 . S
H1887 C1874 0.962 . S
H1888 C1874 0.960 . S
H1889 C1875 0.961 . S
H1890 C1875 0.961 . S
H1891 C1875 0.961 . S
H1892 C1876 0.931 . S
H1893 C1881 0.930 . S
H1894 C1882 0.956 . S
H1895 C1882 0.961 . S
H1896 C1882 0.961 . S
H1897 C1883 0.958 . S
H1898 C1883 0.961 . S
H1899 C1883 0.960 . S
C1900 C1901 1.391 . S
C1900 C1902 1.394 . S
C1900 H1916 0.931 . S
C1901 C1900 1.391 . S
C1901 C1905 1.376 . S
C1902 C1900 1.394 . S
C1902 C1903 1.369 . S
C1902 C1906 1.531 . S
C1903 C1902 1.369 . S
C1903 C1904 1.410 . S
C1903 C1911 1.503 . S
C1904 C1903 1.410 . S
C1904 C1905 1.392 . S
C1904 C1907 1.511 . S
C1905 C1901 1.376 . S
C1905 C1904 1.392 . S
C1905 H1917 0.929 . S
C1906 C1902 1.531 . S
C1906 H1918 0.960 . S
C1906 H1919 0.962 . S
C1906 H1920 0.960 . S
C1907 C1904 1.511 . S
C1907 H1921 0.961 . S
C1907 H1922 0.961 . S
C1907 H1923 0.961 . S
C1908 C1909 1.370 . S
C1908 C1910 1.363 . S
C1908 H1924 0.931 1_554 S
C1909 C1908 1.370 . S
C1909 C1913 1.408 . S
C1910 C1908 1.363 . S
C1910 C1911 1.370 . S
C1910 C1914 1.524 . S
C1911 C1903 1.503 . S
C1911 C1910 1.370 . S
C1911 C1912 1.403 . S
C1912 C1911 1.403 . S
C1912 C1913 1.404 . S
C1912 C1915 1.539 . S
C1913 C1909 1.408 . S
C1913 C1912 1.404 . S
C1913 H1925 0.930 . S
C1914 C1910 1.524 . S
C1914 H1926 0.956 . S
C1914 H1927 0.961 . S
C1914 H1928 0.961 1_554 S
C1915 C1912 1.539 . S
C1915 H1929 0.958 . S
C1915 H1930 0.961 . S
C1915 H1931 0.960 . S
H1916 C1900 0.931 . S
H1917 C1905 0.929 . S
H1918 C1906 0.960 . S
H1919 C1906 0.962 . S
H1920 C1906 0.960 . S
H1921 C1907 0.961 . S
H1922 C1907 0.961 . S
H1923 C1907 0.961 . S
H1924 C1908 0.931 1_556 S
H1925 C1913 0.930 . S
H1926 C1914 0.956 . S
H1927 C1914 0.961 . S
H1928 C1914 0.961 1_556 S
H1929 C1915 0.958 . S
H1930 C1915 0.961 . S
H1931 C1915 0.960 . S
C1932 C1933 1.391 . S
C1932 C1934 1.394 . S
C1932 H1948 0.931 . S
C1933 C1932 1.391 . S
C1933 C1937 1.376 . S
C1934 C1932 1.394 . S
C1934 C1935 1.369 . S
C1934 C1938 1.531 . S
C1935 C1934 1.369 . S
C1935 C1936 1.410 . S
C1935 C1943 1.503 . S
C1936 C1935 1.410 . S
C1936 C1937 1.392 . S
C1936 C1939 1.511 . S
C1937 C1933 1.376 . S
C1937 C1936 1.392 . S
C1937 H1949 0.929 . S
C1938 C1934 1.531 . S
C1938 H1950 0.960 . S
C1938 H1951 0.962 . S
C1938 H1952 0.960 . S
C1939 C1936 1.511 . S
C1939 H1953 0.961 . S
C1939 H1954 0.961 . S
C1939 H1955 0.961 . S
C1940 C1941 1.370 . S
C1940 C1942 1.363 . S
C1940 H1956 0.931 . S
C1941 C1940 1.370 . S
C1941 C1945 1.408 . S
C1942 C1940 1.363 . S
C1942 C1943 1.370 . S
C1942 C1946 1.524 . S
C1943 C1935 1.503 . S
C1943 C1942 1.370 . S
C1943 C1944 1.403 . S
C1944 C1943 1.403 . S
C1944 C1945 1.404 . S
C1944 C1947 1.528 1_556 S
C1945 C1941 1.408 . S
C1945 C1944 1.404 . S
C1945 H1957 0.930 1_556 S
C1946 C1942 1.524 . S
C1946 H1958 0.956 . S
C1946 H1959 0.961 . S
C1946 H1960 0.961 . S
C1947 C1944 1.528 1_554 S
C1947 H1961 0.968 . S
C1947 H1962 0.972 . S
C1947 H1963 0.950 1_554 S
H1948 C1932 0.931 . S
H1949 C1937 0.929 . S
H1950 C1938 0.960 . S
H1951 C1938 0.962 . S
H1952 C1938 0.960 . S
H1953 C1939 0.961 . S
H1954 C1939 0.961 . S
H1955 C1939 0.961 . S
H1956 C1940 0.931 . S
H1957 C1945 0.930 1_554 S
H1958 C1946 0.956 . S
H1959 C1946 0.961 . S
H1960 C1946 0.961 . S
H1961 C1947 0.968 . S
H1962 C1947 0.972 . S
H1963 C1947 0.950 1_556 S
C1964 C1965 1.391 . S
C1964 C1966 1.394 . S
C1964 H1980 0.931 . S
C1965 C1964 1.391 . S
C1965 C1969 1.376 . S
C1966 C1964 1.394 . S
C1966 C1967 1.369 . S
C1966 C1970 1.531 . S
C1967 C1966 1.369 . S
C1967 C1968 1.410 . S
C1967 C1975 1.503 . S
C1968 C1967 1.410 . S
C1968 C1969 1.392 . S
C1968 C1971 1.511 . S
C1969 C1965 1.376 . S
C1969 C1968 1.392 . S
C1969 H1981 0.929 . S
C1970 C1966 1.531 . S
C1970 H1982 0.960 . S
C1970 H1983 0.962 . S
C1970 H1984 0.960 . S
C1971 C1968 1.511 . S
C1971 H1985 0.961 . S
C1971 H1986 0.961 . S
C1971 H1987 0.961 . S
C1972 C1973 1.370 . S
C1972 C1974 1.363 . S
C1972 H1988 0.931 . S
C1973 C1972 1.370 . S
C1973 C1977 1.408 . S
C1974 C1972 1.363 . S
C1974 C1975 1.370 . S
C1974 C1978 1.524 . S
C1975 C1967 1.503 . S
C1975 C1974 1.370 . S
C1975 C1976 1.403 . S
C1976 C1975 1.403 . S
C1976 C1977 1.404 . S
C1976 C1979 1.522 1_556 S
C1977 C1973 1.408 . S
C1977 C1976 1.404 . S
C1977 H1989 0.930 1_556 S
C1978 C1974 1.524 . S
C1978 H1990 0.956 . S
C1978 H1991 0.961 . S
C1978 H1992 0.961 . S
C1979 C1976 1.522 1_554 S
C1979 H1993 0.965 . S
C1979 H1994 0.984 . S
C1979 H1995 0.949 1_554 S
H1980 C1964 0.931 . S
H1981 C1969 0.929 . S
H1982 C1970 0.960 . S
H1983 C1970 0.962 . S
H1984 C1970 0.960 . S
H1985 C1971 0.961 . S
H1986 C1971 0.961 . S
H1987 C1971 0.961 . S
H1988 C1972 0.931 . S
H1989 C1977 0.930 1_554 S
H1990 C1978 0.956 . S
H1991 C1978 0.961 . S
H1992 C1978 0.961 . S
H1993 C1979 0.965 . S
H1994 C1979 0.984 . S
H1995 C1979 0.949 1_556 S
C1996 C1997 1.391 . S
C1996 C1998 1.394 . S
C1996 H2012 0.931 . S
C1997 C1996 1.391 . S
C1997 C2001 1.376 . S
C1998 C1996 1.394 . S
C1998 C1999 1.369 . S
C1998 C2002 1.531 . S
C1999 C1998 1.369 . S
C1999 C2000 1.410 . S
C1999 C2007 1.503 . S
C2000 C1999 1.410 . S
C2000 C2001 1.392 . S
C2000 C2003 1.511 . S
C2001 C1997 1.376 . S
C2001 C2000 1.392 . S
C2001 H2013 0.929 . S
C2002 C1998 1.531 . S
C2002 H2014 0.960 . S
C2002 H2015 0.962 . S
C2002 H2016 0.960 . S
C2003 C2000 1.511 . S
C2003 H2017 0.961 . S
C2003 H2018 0.961 . S
C2003 H2019 0.961 . S
C2004 C2005 1.370 . S
C2004 C2006 1.363 . S
C2004 H2020 0.931 . S
C2005 C2004 1.370 . S
C2005 C2009 1.408 . S
C2006 C2004 1.363 . S
C2006 C2007 1.370 . S
C2006 C2010 1.524 . S
C2007 C1999 1.503 . S
C2007 C2006 1.370 . S
C2007 C2008 1.403 . S
C2008 C2007 1.403 . S
C2008 C2009 1.404 . S
C2008 C2011 1.539 . S
C2009 C2005 1.408 . S
C2009 C2008 1.404 . S
C2009 H2021 0.930 . S
C2010 C2006 1.524 . S
C2010 H2022 0.956 . S
C2010 H2023 0.961 . S
C2010 H2024 0.961 . S
C2011 C2008 1.539 . S
C2011 H2025 0.958 . S
C2011 H2026 0.961 . S
C2011 H2027 0.960 . S
H2012 C1996 0.931 . S
H2013 C2001 0.929 . S
H2014 C2002 0.960 . S
H2015 C2002 0.962 . S
H2016 C2002 0.960 . S
H2017 C2003 0.961 . S
H2018 C2003 0.961 . S
H2019 C2003 0.961 . S
H2020 C2004 0.931 . S
H2021 C2009 0.930 . S
H2022 C2010 0.956 . S
H2023 C2010 0.961 . S
H2024 C2010 0.961 . S
H2025 C2011 0.958 . S
H2026 C2011 0.961 . S
H2027 C2011 0.960 . S
C2028 C2029 1.391 . S
C2028 C2030 1.394 . S
C2028 H2044 0.931 . S
C2029 C2028 1.391 . S
C2029 C2033 1.376 . S
C2030 C2028 1.394 . S
C2030 C2031 1.369 . S
C2030 C2034 1.531 . S
C2031 C2030 1.369 . S
C2031 C2032 1.410 . S
C2031 C2039 1.503 . S
C2032 C2031 1.410 . S
C2032 C2033 1.392 . S
C2032 C2035 1.511 . S
C2033 C2029 1.376 . S
C2033 C2032 1.392 . S
C2033 H2045 0.929 . S
C2034 C2030 1.531 . S
C2034 H2046 0.960 . S
C2034 H2047 0.962 . S
C2034 H2048 0.960 . S
C2035 C2032 1.511 . S
C2035 H2049 0.961 . S
C2035 H2050 0.961 . S
C2035 H2051 0.961 . S
C2036 C2037 1.370 . S
C2036 C2038 1.363 . S
C2036 H2052 0.931 1_556 S
C2037 C2036 1.370 . S
C2037 C2041 1.408 . S
C2038 C2036 1.363 . S
C2038 C2039 1.370 . S
C2038 C2042 1.524 . S
C2039 C2031 1.503 . S
C2039 C2038 1.370 . S
C2039 C2040 1.403 . S
C2040 C2039 1.403 . S
C2040 C2041 1.404 . S
C2040 C2043 1.539 . S
C2041 C2037 1.408 . S
C2041 C2040 1.404 . S
C2041 H2053 0.930 . S
C2042 C2038 1.524 . S
C2042 H2054 0.956 . S
C2042 H2055 0.961 . S
C2042 H2056 0.961 1_556 S
C2043 C2040 1.539 . S
C2043 H2057 0.958 . S
C2043 H2058 0.961 . S
C2043 H2059 0.960 . S
H2044 C2028 0.931 . S
H2045 C2033 0.929 . S
H2046 C2034 0.960 . S
H2047 C2034 0.962 . S
H2048 C2034 0.960 . S
H2049 C2035 0.961 . S
H2050 C2035 0.961 . S
H2051 C2035 0.961 . S
H2052 C2036 0.931 1_554 S
H2053 C2041 0.930 . S
H2054 C2042 0.956 . S
H2055 C2042 0.961 . S
H2056 C2042 0.961 1_554 S
H2057 C2043 0.958 . S
H2058 C2043 0.961 . S
H2059 C2043 0.960 . S
C2060 C2061 1.391 . S
C2060 C2062 1.394 . S
C2060 H2076 0.931 . S
C2061 C2060 1.391 . S
C2061 C2065 1.376 . S
C2062 C2060 1.394 . S
C2062 C2063 1.369 . S
C2062 C2066 1.531 . S
C2063 C2062 1.369 . S
C2063 C2064 1.410 . S
C2063 C2071 1.503 . S
C2064 C2063 1.410 . S
C2064 C2065 1.392 . S
C2064 C2067 1.511 . S
C2065 C2061 1.376 . S
C2065 C2064 1.392 . S
C2065 H2077 0.929 . S
C2066 C2062 1.531 . S
C2066 H2078 0.960 . S
C2066 H2079 0.962 . S
C2066 H2080 0.960 . S
C2067 C2064 1.511 . S
C2067 H2081 0.961 . S
C2067 H2082 0.961 . S
C2067 H2083 0.961 . S
C2068 C2069 1.370 . S
C2068 C2070 1.363 . S
C2068 H2084 0.931 . S
C2069 C2068 1.370 . S
C2069 C2073 1.408 . S
C2070 C2068 1.363 . S
C2070 C2071 1.370 . S
C2070 C2074 1.524 . S
C2071 C2063 1.503 . S
C2071 C2070 1.370 . S
C2071 C2072 1.403 . S
C2072 C2071 1.403 . S
C2072 C2073 1.404 . S
C2072 C2075 1.529 1_556 S
C2073 C2069 1.408 . S
C2073 C2072 1.404 . S
C2073 H2085 0.930 1_556 S
C2074 C2070 1.524 . S
C2074 H2086 0.956 . S
C2074 H2087 0.961 . S
C2074 H2088 0.961 . S
C2075 C2072 1.529 1_554 S
C2075 H2089 0.961 . S
C2075 H2090 0.975 . S
C2075 H2091 0.954 1_554 S
H2076 C2060 0.931 . S
H2077 C2065 0.929 . S
H2078 C2066 0.960 . S
H2079 C2066 0.962 . S
H2080 C2066 0.960 . S
H2081 C2067 0.961 . S
H2082 C2067 0.961 . S
H2083 C2067 0.961 . S
H2084 C2068 0.931 . S
H2085 C2073 0.930 1_554 S
H2086 C2074 0.956 . S
H2087 C2074 0.961 . S
H2088 C2074 0.961 . S
H2089 C2075 0.961 . S
H2090 C2075 0.975 . S
H2091 C2075 0.954 1_556 S
C2092 C2093 1.391 . S
C2092 C2094 1.394 . S
C2092 H2108 0.931 . S
C2093 C2092 1.391 . S
C2093 C2097 1.376 . S
C2094 C2092 1.394 . S
C2094 C2095 1.369 . S
C2094 C2098 1.531 . S
C2095 C2094 1.369 . S
C2095 C2096 1.410 . S
C2095 C2103 1.503 . S
C2096 C2095 1.410 . S
C2096 C2097 1.392 . S
C2096 C2099 1.511 . S
C2097 C2093 1.376 . S
C2097 C2096 1.392 . S
C2097 H2109 0.929 . S
C2098 C2094 1.531 . S
C2098 H2110 0.960 . S
C2098 H2111 0.962 . S
C2098 H2112 0.960 . S
C2099 C2096 1.511 . S
C2099 H2113 0.961 . S
C2099 H2114 0.961 . S
C2099 H2115 0.961 . S
C2100 C2101 1.370 . S
C2100 C2102 1.363 . S
C2100 H2116 0.887 1_556 S
C2101 C2100 1.370 . S
C2101 C2105 1.408 . S
C2102 C2100 1.363 . S
C2102 C2103 1.370 . S
C2102 C2106 1.524 . S
C2103 C2095 1.503 . S
C2103 C2102 1.370 . S
C2103 C2104 1.403 . S
C2104 C2103 1.403 . S
C2104 C2105 1.404 . S
C2104 C2107 1.539 . S
C2105 C2101 1.408 . S
C2105 C2104 1.404 . S
C2105 H2117 0.930 . S
C2106 C2102 1.524 . S
C2106 H2118 0.956 . S
C2106 H2119 0.961 . S
C2106 H2120 0.961 1_556 S
C2107 C2104 1.539 . S
C2107 H2121 0.958 . S
C2107 H2122 0.961 . S
C2107 H2123 0.960 . S
H2108 C2092 0.931 . S
H2109 C2097 0.929 . S
H2110 C2098 0.960 . S
H2111 C2098 0.962 . S
H2112 C2098 0.960 . S
H2113 C2099 0.961 . S
H2114 C2099 0.961 . S
H2115 C2099 0.961 . S
H2116 C2100 0.887 1_554 S
H2117 C2105 0.930 . S
H2118 C2106 0.956 . S
H2119 C2106 0.961 . S
H2120 C2106 0.961 1_554 S
H2121 C2107 0.958 . S
H2122 C2107 0.961 . S
H2123 C2107 0.960 . S
C2124 C2125 1.391 . S
C2124 C2126 1.394 . S
C2124 H2140 0.931 . S
C2125 C2124 1.391 . S
C2125 C2129 1.376 . S
C2126 C2124 1.394 . S
C2126 C2127 1.369 . S
C2126 C2130 1.531 . S
C2127 C2126 1.369 . S
C2127 C2128 1.410 . S
C2127 C2135 1.503 . S
C2128 C2127 1.410 . S
C2128 C2129 1.392 . S
C2128 C2131 1.511 . S
C2129 C2125 1.376 . S
C2129 C2128 1.392 . S
C2129 H2141 0.929 . S
C2130 C2126 1.531 . S
C2130 H2142 0.960 . S
C2130 H2143 0.962 . S
C2130 H2144 0.960 . S
C2131 C2128 1.511 . S
C2131 H2145 0.961 . S
C2131 H2146 0.961 . S
C2131 H2147 0.961 . S
C2132 C2133 1.370 . S
C2132 C2134 1.363 . S
C2132 H2148 0.887 1_554 S
C2133 C2132 1.370 . S
C2133 C2137 1.408 . S
C2134 C2132 1.363 . S
C2134 C2135 1.370 . S
C2134 C2138 1.524 . S
C2135 C2127 1.503 . S
C2135 C2134 1.370 . S
C2135 C2136 1.403 . S
C2136 C2135 1.403 . S
C2136 C2137 1.404 . S
C2136 C2139 1.539 . S
C2137 C2133 1.408 . S
C2137 C2136 1.404 . S
C2137 H2149 0.930 . S
C2138 C2134 1.524 . S
C2138 H2150 0.956 . S
C2138 H2151 0.961 . S
C2138 H2152 0.961 1_554 S
C2139 C2136 1.539 . S
C2139 H2153 0.958 . S
C2139 H2154 0.961 . S
C2139 H2155 0.960 . S
H2140 C2124 0.931 . S
H2141 C2129 0.929 . S
H2142 C2130 0.960 . S
H2143 C2130 0.962 . S
H2144 C2130 0.960 . S
H2145 C2131 0.961 . S
H2146 C2131 0.961 . S
H2147 C2131 0.961 . S
H2148 C2132 0.887 1_556 S
H2149 C2137 0.930 . S
H2150 C2138 0.956 . S
H2151 C2138 0.961 . S
H2152 C2138 0.961 1_556 S
H2153 C2139 0.958 . S
H2154 C2139 0.961 . S
H2155 C2139 0.960 . S
C2156 C2157 1.391 . S
C2156 C2158 1.394 . S
C2156 H2172 0.931 . S
C2157 C2156 1.391 . S
C2157 C2161 1.376 . S
C2158 C2156 1.394 . S
C2158 C2159 1.369 . S
C2158 C2162 1.531 . S
C2159 C2158 1.369 . S
C2159 C2160 1.410 . S
C2159 C2167 1.503 . S
C2160 C2159 1.410 . S
C2160 C2161 1.392 . S
C2160 C2163 1.511 . S
C2161 C2157 1.376 . S
C2161 C2160 1.392 . S
C2161 H2173 0.929 . S
C2162 C2158 1.531 . S
C2162 H2174 0.960 . S
C2162 H2175 0.962 . S
C2162 H2176 0.960 . S
C2163 C2160 1.511 . S
C2163 H2177 0.961 . S
C2163 H2178 0.961 . S
C2163 H2179 0.961 . S
C2164 C2165 1.370 . S
C2164 C2166 1.363 . S
C2164 H2180 0.931 . S
C2165 C2164 1.370 . S
C2165 C2169 1.408 . S
C2166 C2164 1.363 . S
C2166 C2167 1.370 . S
C2166 C2170 1.524 . S
C2167 C2159 1.503 . S
C2167 C2166 1.370 . S
C2167 C2168 1.403 . S
C2168 C2167 1.403 . S
C2168 C2169 1.404 . S
C2168 C2171 1.539 . S
C2169 C2165 1.408 . S
C2169 C2168 1.404 . S
C2169 H2181 0.930 . S
C2170 C2166 1.524 . S
C2170 H2182 0.956 . S
C2170 H2183 0.961 . S
C2170 H2184 0.961 . S
C2171 C2168 1.539 . S
C2171 H2185 0.958 . S
C2171 H2186 0.961 . S
C2171 H2187 0.960 . S
H2172 C2156 0.931 . S
H2173 C2161 0.929 . S
H2174 C2162 0.960 . S
H2175 C2162 0.962 . S
H2176 C2162 0.960 . S
H2177 C2163 0.961 . S
H2178 C2163 0.961 . S
H2179 C2163 0.961 . S
H2180 C2164 0.931 . S
H2181 C2169 0.930 . S
H2182 C2170 0.956 . S
H2183 C2170 0.961 . S
H2184 C2170 0.961 . S
H2185 C2171 0.958 . S
H2186 C2171 0.961 . S
H2187 C2171 0.960 . S
C2188 C2189 1.391 . S
C2188 C2190 1.394 . S
C2188 H2204 0.931 . S
C2189 C2188 1.391 . S
C2189 C2193 1.376 . S
C2190 C2188 1.394 . S
C2190 C2191 1.369 . S
C2190 C2194 1.531 . S
C2191 C2190 1.369 . S
C2191 C2192 1.410 . S
C2191 C2199 1.503 . S
C2192 C2191 1.410 . S
C2192 C2193 1.392 . S
C2192 C2195 1.511 . S
C2193 C2189 1.376 . S
C2193 C2192 1.392 . S
C2193 H2205 0.929 . S
C2194 C2190 1.531 . S
C2194 H2206 0.960 . S
C2194 H2207 0.962 . S
C2194 H2208 0.960 . S
C2195 C2192 1.511 . S
C2195 H2209 0.961 . S
C2195 H2210 0.961 . S
C2195 H2211 0.961 . S
C2196 C2197 1.370 . S
C2196 C2198 1.363 . S
C2196 H2212 0.931 . S
C2197 C2196 1.370 . S
C2197 C2201 1.408 . S
C2198 C2196 1.363 . S
C2198 C2199 1.370 . S
C2198 C2202 1.524 . S
C2199 C2191 1.503 . S
C2199 C2198 1.370 . S
C2199 C2200 1.403 . S
C2200 C2199 1.403 . S
C2200 C2201 1.404 . S
C2200 C2203 1.539 . S
C2201 C2197 1.408 . S
C2201 C2200 1.404 . S
C2201 H2213 0.930 . S
C2202 C2198 1.524 . S
C2202 H2214 0.956 . S
C2202 H2215 0.961 . S
C2202 H2216 0.961 . S
C2203 C2200 1.539 . S
C2203 H2217 0.958 . S
C2203 H2218 0.961 . S
C2203 H2219 0.960 . S
H2204 C2188 0.931 . S
H2205 C2193 0.929 . S
H2206 C2194 0.960 . S
H2207 C2194 0.962 . S
H2208 C2194 0.960 . S
H2209 C2195 0.961 . S
H2210 C2195 0.961 . S
H2211 C2195 0.961 . S
H2212 C2196 0.931 . S
H2213 C2201 0.930 . S
H2214 C2202 0.956 . S
H2215 C2202 0.961 . S
H2216 C2202 0.961 . S
H2217 C2203 0.958 . S
H2218 C2203 0.961 . S
H2219 C2203 0.960 . S
C2220 C2221 1.391 . S
C2220 C2222 1.394 1_655 S
C2220 H2236 0.931 . S
C2221 C2220 1.391 . S
C2221 C2225 1.376 1_655 S
C2222 C2220 1.394 1_455 S
C2222 C2223 1.369 . S
C2222 C2226 1.531 . S
C2223 C2222 1.369 . S
C2223 C2224 1.410 . S
C2223 C2231 1.503 . S
C2224 C2223 1.410 . S
C2224 C2225 1.392 . S
C2224 C2227 1.511 . S
C2225 C2221 1.376 1_455 S
C2225 C2224 1.392 . S
C2225 H2237 0.929 1_455 S
C2226 C2222 1.531 . S
C2226 H2238 0.960 . S
C2226 H2239 0.962 . S
C2226 H2240 0.960 . S
C2227 C2224 1.511 . S
C2227 H2241 0.961 . S
C2227 H2242 0.961 . S
C2227 H2243 0.961 . S
C2228 C2229 1.370 . S
C2228 C2230 1.363 . S
C2228 H2244 0.931 . S
C2229 C2228 1.370 . S
C2229 C2233 1.408 . S
C2230 C2228 1.363 . S
C2230 C2231 1.370 . S
C2230 C2234 1.524 . S
C2231 C2223 1.503 . S
C2231 C2230 1.370 . S
C2231 C2232 1.403 . S
C2232 C2231 1.403 . S
C2232 C2233 1.404 . S
C2232 C2235 1.539 . S
C2233 C2229 1.408 . S
C2233 C2232 1.404 . S
C2233 H2245 0.930 . S
C2234 C2230 1.524 . S
C2234 H2246 0.956 . S
C2234 H2247 0.961 . S
C2234 H2248 0.961 . S
C2235 C2232 1.539 . S
C2235 H2249 0.958 . S
C2235 H2250 0.961 . S
C2235 H2251 0.960 . S
H2236 C2220 0.931 . S
H2237 C2225 0.929 1_655 S
H2238 C2226 0.960 . S
H2239 C2226 0.962 . S
H2240 C2226 0.960 . S
H2241 C2227 0.961 . S
H2242 C2227 0.961 . S
H2243 C2227 0.961 . S
H2244 C2228 0.931 . S
H2245 C2233 0.930 . S
H2246 C2234 0.956 . S
H2247 C2234 0.961 . S
H2248 C2234 0.961 . S
H2249 C2235 0.958 . S
H2250 C2235 0.961 . S
H2251 C2235 0.960 . S
C2252 C2253 1.391 . S
C2252 C2254 1.394 . S
C2252 H2268 0.931 . S
C2253 C2252 1.391 . S
C2253 C2257 1.376 . S
C2254 C2252 1.394 . S
C2254 C2255 1.369 . S
C2254 C2258 1.531 . S
C2255 C2254 1.369 . S
C2255 C2256 1.410 . S
C2255 C2263 1.503 . S
C2256 C2255 1.410 . S
C2256 C2257 1.392 . S
C2256 C2259 1.511 . S
C2257 C2253 1.376 . S
C2257 C2256 1.392 . S
C2257 H2269 0.929 . S
C2258 C2254 1.531 . S
C2258 H2270 0.960 . S
C2258 H2271 0.962 . S
C2258 H2272 0.960 . S
C2259 C2256 1.511 . S
C2259 H2273 0.961 . S
C2259 H2274 0.961 . S
C2259 H2275 0.961 . S
C2260 C2261 1.370 . S
C2260 C2262 1.363 . S
C2260 H2276 0.931 . S
C2261 C2260 1.370 . S
C2261 C2265 1.408 . S
C2262 C2260 1.363 . S
C2262 C2263 1.370 . S
C2262 C2266 1.524 . S
C2263 C2255 1.503 . S
C2263 C2262 1.370 . S
C2263 C2264 1.403 . S
C2264 C2263 1.403 . S
C2264 C2265 1.404 . S
C2264 C2267 1.539 . S
C2265 C2261 1.408 . S
C2265 C2264 1.404 . S
C2265 H2277 0.930 . S
C2266 C2262 1.524 . S
C2266 H2278 0.956 . S
C2266 H2279 0.961 . S
C2266 H2280 0.961 . S
C2267 C2264 1.539 . S
C2267 H2281 0.958 . S
C2267 H2282 0.961 . S
C2267 H2283 0.960 . S
H2268 C2252 0.931 . S
H2269 C2257 0.929 . S
H2270 C2258 0.960 . S
H2271 C2258 0.962 . S
H2272 C2258 0.960 . S
H2273 C2259 0.961 . S
H2274 C2259 0.961 . S
H2275 C2259 0.961 . S
H2276 C2260 0.931 . S
H2277 C2265 0.930 . S
H2278 C2266 0.956 . S
H2279 C2266 0.961 . S
H2280 C2266 0.961 . S
H2281 C2267 0.958 . S
H2282 C2267 0.961 . S
H2283 C2267 0.960 . S
C2284 C2285 1.391 . S
C2284 C2286 1.394 1_545 S
C2284 H2300 0.931 . S
C2285 C2284 1.391 . S
C2285 C2289 1.376 . S
C2286 C2284 1.394 1_565 S
C2286 C2287 1.369 . S
C2286 C2290 1.531 . S
C2287 C2286 1.369 . S
C2287 C2288 1.410 . S
C2287 C2295 1.503 . S
C2288 C2287 1.410 . S
C2288 C2289 1.392 1_565 S
C2288 C2291 1.511 . S
C2289 C2285 1.376 . S
C2289 C2288 1.392 1_545 S
C2289 H2301 0.929 . S
C2290 C2286 1.531 . S
C2290 H2302 0.960 . S
C2290 H2303 0.962 . S
C2290 H2304 0.960 . S
C2291 C2288 1.511 . S
C2291 H2305 0.961 . S
C2291 H2306 0.961 . S
C2291 H2307 0.961 . S
C2292 C2293 1.370 . S
C2292 C2294 1.363 . S
C2292 H2308 0.931 . S
C2293 C2292 1.370 . S
C2293 C2297 1.408 . S
C2294 C2292 1.363 . S
C2294 C2295 1.370 . S
C2294 C2298 1.524 . S
C2295 C2287 1.503 . S
C2295 C2294 1.370 . S
C2295 C2296 1.403 . S
C2296 C2295 1.403 . S
C2296 C2297 1.404 . S
C2296 C2299 1.539 . S
C2297 C2293 1.408 . S
C2297 C2296 1.404 . S
C2297 H2309 0.930 . S
C2298 C2294 1.524 . S
C2298 H2310 0.956 . S
C2298 H2311 0.961 . S
C2298 H2312 0.961 . S
C2299 C2296 1.539 . S
C2299 H2313 0.958 . S
C2299 H2314 0.961 . S
C2299 H2315 0.960 . S
H2300 C2284 0.931 . S
H2301 C2289 0.929 . S
H2302 C2290 0.960 . S
H2303 C2290 0.962 . S
H2304 C2290 0.960 . S
H2305 C2291 0.961 . S
H2306 C2291 0.961 . S
H2307 C2291 0.961 . S
H2308 C2292 0.931 . S
H2309 C2297 0.930 . S
H2310 C2298 0.956 . S
H2311 C2298 0.961 . S
H2312 C2298 0.961 . S
H2313 C2299 0.958 . S
H2314 C2299 0.961 . S
H2315 C2299 0.960 . S
C2316 C2317 1.391 . S
C2316 C2318 1.394 . S
C2316 H2332 0.931 . S
C2317 C2316 1.391 . S
C2317 C2321 1.376 . S
C2318 C2316 1.394 . S
C2318 C2319 1.369 . S
C2318 C2322 1.531 . S
C2319 C2318 1.369 . S
C2319 C2320 1.410 . S
C2319 C2327 1.503 . S
C2320 C2319 1.410 . S
C2320 C2321 1.392 . S
C2320 C2323 1.511 . S
C2321 C2317 1.376 . S
C2321 C2320 1.392 . S
C2321 H2333 0.929 . S
C2322 C2318 1.531 . S
C2322 H2334 0.960 . S
C2322 H2335 0.962 . S
C2322 H2336 0.960 . S
C2323 C2320 1.511 . S
C2323 H2337 0.961 . S
C2323 H2338 0.961 . S
C2323 H2339 0.961 . S
C2324 C2325 1.370 . S
C2324 C2326 1.363 . S
C2324 H2340 0.931 . S
C2325 C2324 1.370 . S
C2325 C2329 1.408 . S
C2326 C2324 1.363 . S
C2326 C2327 1.370 . S
C2326 C2330 1.524 . S
C2327 C2319 1.503 . S
C2327 C2326 1.370 . S
C2327 C2328 1.403 . S
C2328 C2327 1.403 . S
C2328 C2329 1.404 . S
C2328 C2331 1.539 . S
C2329 C2325 1.408 . S
C2329 C2328 1.404 . S
C2329 H2341 0.930 . S
C2330 C2326 1.524 . S
C2330 H2342 0.956 . S
C2330 H2343 0.961 . S
C2330 H2344 0.961 . S
C2331 C2328 1.539 . S
C2331 H2345 0.958 . S
C2331 H2346 0.961 . S
C2331 H2347 0.960 . S
H2332 C2316 0.931 . S
H2333 C2321 0.929 . S
H2334 C2322 0.960 . S
H2335 C2322 0.962 . S
H2336 C2322 0.960 . S
H2337 C2323 0.961 . S
H2338 C2323 0.961 . S
H2339 C2323 0.961 . S
H2340 C2324 0.931 . S
H2341 C2329 0.930 . S
H2342 C2330 0.956 . S
H2343 C2330 0.961 . S
H2344 C2330 0.961 . S
H2345 C2331 0.958 . S
H2346 C2331 0.961 . S
H2347 C2331 0.960 . S
C2348 C2349 1.391 . S
C2348 C2350 1.394 . S
C2348 H2364 0.931 . S
C2349 C2348 1.391 . S
C2349 C2353 1.376 . S
C2350 C2348 1.394 . S
C2350 C2351 1.369 . S
C2350 C2354 1.531 . S
C2351 C2350 1.369 . S
C2351 C2352 1.410 . S
C2351 C2359 1.503 . S
C2352 C2351 1.410 . S
C2352 C2353 1.392 . S
C2352 C2355 1.511 . S
C2353 C2349 1.376 . S
C2353 C2352 1.392 . S
C2353 H2365 0.929 . S
C2354 C2350 1.531 . S
C2354 H2366 0.960 . S
C2354 H2367 0.962 . S
C2354 H2368 0.960 . S
C2355 C2352 1.511 . S
C2355 H2369 0.961 . S
C2355 H2370 0.961 . S
C2355 H2371 0.961 . S
C2356 C2357 1.370 . S
C2356 C2358 1.363 . S
C2356 H2372 0.931 . S
C2357 C2356 1.370 . S
C2357 C2361 1.408 . S
C2358 C2356 1.363 . S
C2358 C2359 1.370 . S
C2358 C2362 1.524 . S
C2359 C2351 1.503 . S
C2359 C2358 1.370 . S
C2359 C2360 1.403 . S
C2360 C2359 1.403 . S
C2360 C2361 1.404 . S
C2360 C2363 1.539 . S
C2361 C2357 1.408 . S
C2361 C2360 1.404 . S
C2361 H2373 0.930 . S
C2362 C2358 1.524 . S
C2362 H2374 0.956 . S
C2362 H2375 0.961 . S
C2362 H2376 0.961 . S
C2363 C2360 1.539 . S
C2363 H2377 0.958 . S
C2363 H2378 0.961 . S
C2363 H2379 0.960 . S
H2364 C2348 0.931 . S
H2365 C2353 0.929 . S
H2366 C2354 0.960 . S
H2367 C2354 0.962 . S
H2368 C2354 0.960 . S
H2369 C2355 0.961 . S
H2370 C2355 0.961 . S
H2371 C2355 0.961 . S
H2372 C2356 0.931 . S
H2373 C2361 0.930 . S
H2374 C2362 0.956 . S
H2375 C2362 0.961 . S
H2376 C2362 0.961 . S
H2377 C2363 0.958 . S
H2378 C2363 0.961 . S
H2379 C2363 0.960 . S
C2380 C2381 1.391 . S
C2380 C2382 1.394 . S
C2380 H2396 0.931 . S
C2381 C2380 1.391 . S
C2381 C2385 1.376 . S
C2382 C2380 1.394 . S
C2382 C2383 1.369 . S
C2382 C2386 1.531 . S
C2383 C2382 1.369 . S
C2383 C2384 1.410 . S
C2383 C2391 1.503 . S
C2384 C2383 1.410 . S
C2384 C2385 1.392 . S
C2384 C2387 1.511 . S
C2385 C2381 1.376 . S
C2385 C2384 1.392 . S
C2385 H2397 0.929 . S
C2386 C2382 1.531 . S
C2386 H2398 0.960 . S
C2386 H2399 0.962 . S
C2386 H2400 0.960 . S
C2387 C2384 1.511 . S
C2387 H2401 0.961 . S
C2387 H2402 0.961 . S
C2387 H2403 0.961 . S
C2388 C2389 1.370 . S
C2388 C2390 1.363 . S
C2388 H2404 0.931 . S
C2389 C2388 1.370 . S
C2389 C2393 1.408 . S
C2390 C2388 1.363 . S
C2390 C2391 1.370 . S
C2390 C2394 1.524 . S
C2391 C2383 1.503 . S
C2391 C2390 1.370 . S
C2391 C2392 1.403 . S
C2392 C2391 1.403 . S
C2392 C2393 1.404 . S
C2392 C2395 1.539 . S
C2393 C2389 1.408 . S
C2393 C2392 1.404 . S
C2393 H2405 0.930 . S
C2394 C2390 1.524 . S
C2394 H2406 0.956 . S
C2394 H2407 0.961 . S
C2394 H2408 0.961 . S
C2395 C2392 1.539 . S
C2395 H2409 0.958 . S
C2395 H2410 0.961 . S
C2395 H2411 0.960 . S
H2396 C2380 0.931 . S
H2397 C2385 0.929 . S
H2398 C2386 0.960 . S
H2399 C2386 0.962 . S
H2400 C2386 0.960 . S
H2401 C2387 0.961 . S
H2402 C2387 0.961 . S
H2403 C2387 0.961 . S
H2404 C2388 0.931 . S
H2405 C2393 0.930 . S
H2406 C2394 0.956 . S
H2407 C2394 0.961 . S
H2408 C2394 0.961 . S
H2409 C2395 0.958 . S
H2410 C2395 0.961 . S
H2411 C2395 0.960 . S
C2412 C2413 1.391 . S
C2412 C2414 1.394 . S
C2412 H2428 0.931 . S
C2413 C2412 1.391 . S
C2413 C2417 1.376 . S
C2414 C2412 1.394 . S
C2414 C2415 1.369 . S
C2414 C2418 1.531 . S
C2415 C2414 1.369 . S
C2415 C2416 1.410 . S
C2415 C2423 1.503 . S
C2416 C2415 1.410 . S
C2416 C2417 1.392 . S
C2416 C2419 1.511 . S
C2417 C2413 1.376 . S
C2417 C2416 1.392 . S
C2417 H2429 0.929 . S
C2418 C2414 1.531 . S
C2418 H2430 0.960 . S
C2418 H2431 0.962 . S
C2418 H2432 0.960 . S
C2419 C2416 1.511 . S
C2419 H2433 0.961 . S
C2419 H2434 0.961 . S
C2419 H2435 0.961 . S
C2420 C2421 1.370 . S
C2420 C2422 1.363 . S
C2420 H2436 0.931 . S
C2421 C2420 1.370 . S
C2421 C2425 1.408 . S
C2422 C2420 1.363 . S
C2422 C2423 1.370 . S
C2422 C2426 1.524 . S
C2423 C2415 1.503 . S
C2423 C2422 1.370 . S
C2423 C2424 1.403 . S
C2424 C2423 1.403 . S
C2424 C2425 1.404 . S
C2424 C2427 1.539 . S
C2425 C2421 1.408 . S
C2425 C2424 1.404 . S
C2425 H2437 0.930 . S
C2426 C2422 1.524 . S
C2426 H2438 0.956 . S
C2426 H2439 0.961 . S
C2426 H2440 0.961 . S
C2427 C2424 1.539 . S
C2427 H2441 0.958 . S
C2427 H2442 0.961 . S
C2427 H2443 0.960 . S
H2428 C2412 0.931 . S
H2429 C2417 0.929 . S
H2430 C2418 0.960 . S
H2431 C2418 0.962 . S
H2432 C2418 0.960 . S
H2433 C2419 0.961 . S
H2434 C2419 0.961 . S
H2435 C2419 0.961 . S
H2436 C2420 0.931 . S
H2437 C2425 0.930 . S
H2438 C2426 0.956 . S
H2439 C2426 0.961 . S
H2440 C2426 0.961 . S
H2441 C2427 0.958 . S
H2442 C2427 0.961 . S
H2443 C2427 0.960 . S
C2444 C2445 1.391 . S
C2444 C2446 1.394 . S
C2444 H2460 0.931 . S
C2445 C2444 1.391 . S
C2445 C2449 1.376 . S
C2446 C2444 1.394 . S
C2446 C2447 1.369 . S
C2446 C2450 1.531 . S
C2447 C2446 1.369 . S
C2447 C2448 1.410 . S
C2447 C2455 1.503 . S
C2448 C2447 1.410 . S
C2448 C2449 1.392 . S
C2448 C2451 1.511 . S
C2449 C2445 1.376 . S
C2449 C2448 1.392 . S
C2449 H2461 0.929 . S
C2450 C2446 1.531 . S
C2450 H2462 0.960 . S
C2450 H2463 0.962 . S
C2450 H2464 0.960 . S
C2451 C2448 1.511 . S
C2451 H2465 0.961 . S
C2451 H2466 0.961 . S
C2451 H2467 0.961 . S
C2452 C2453 1.370 . S
C2452 C2454 1.363 . S
C2452 H2468 0.931 . S
C2453 C2452 1.370 . S
C2453 C2457 1.408 . S
C2454 C2452 1.363 . S
C2454 C2455 1.370 . S
C2454 C2458 1.524 . S
C2455 C2447 1.503 . S
C2455 C2454 1.370 . S
C2455 C2456 1.403 . S
C2456 C2455 1.403 . S
C2456 C2457 1.404 . S
C2456 C2459 1.539 . S
C2457 C2453 1.408 . S
C2457 C2456 1.404 . S
C2457 H2469 0.930 . S
C2458 C2454 1.524 . S
C2458 H2470 0.956 . S
C2458 H2471 0.961 . S
C2458 H2472 0.961 . S
C2459 C2456 1.539 . S
C2459 H2473 0.958 . S
C2459 H2474 0.961 . S
C2459 H2475 0.960 . S
H2460 C2444 0.931 . S
H2461 C2449 0.929 . S
H2462 C2450 0.960 . S
H2463 C2450 0.962 . S
H2464 C2450 0.960 . S
H2465 C2451 0.961 . S
H2466 C2451 0.961 . S
H2467 C2451 0.961 . S
H2468 C2452 0.931 . S
H2469 C2457 0.930 . S
H2470 C2458 0.956 . S
H2471 C2458 0.961 . S
H2472 C2458 0.961 . S
H2473 C2459 0.958 . S
H2474 C2459 0.961 . S
H2475 C2459 0.960 . S
C2476 C2477 1.391 . S
C2476 C2478 1.394 . S
C2476 H2492 0.931 . S
C2477 C2476 1.391 . S
C2477 C2481 1.376 . S
C2478 C2476 1.394 . S
C2478 C2479 1.369 . S
C2478 C2482 1.531 . S
C2479 C2478 1.369 . S
C2479 C2480 1.410 . S
C2479 C2487 1.503 . S
C2480 C2479 1.410 . S
C2480 C2481 1.392 . S
C2480 C2483 1.511 . S
C2481 C2477 1.376 . S
C2481 C2480 1.392 . S
C2481 H2493 0.929 . S
C2482 C2478 1.531 . S
C2482 H2494 0.960 . S
C2482 H2495 0.962 . S
C2482 H2496 0.960 . S
C2483 C2480 1.511 . S
C2483 H2497 0.961 . S
C2483 H2498 0.961 . S
C2483 H2499 0.961 . S
C2484 C2485 1.370 . S
C2484 C2486 1.363 . S
C2484 H2500 0.931 . S
C2485 C2484 1.370 . S
C2485 C2489 1.408 . S
C2486 C2484 1.363 . S
C2486 C2487 1.370 . S
C2486 C2490 1.524 . S
C2487 C2479 1.503 . S
C2487 C2486 1.370 . S
C2487 C2488 1.403 . S
C2488 C2487 1.403 . S
C2488 C2489 1.404 . S
C2488 C2491 1.539 . S
C2489 C2485 1.408 . S
C2489 C2488 1.404 . S
C2489 H2501 0.930 . S
C2490 C2486 1.524 . S
C2490 H2502 0.956 . S
C2490 H2503 0.961 . S
C2490 H2504 0.961 . S
C2491 C2488 1.539 . S
C2491 H2505 0.958 . S
C2491 H2506 0.961 . S
C2491 H2507 0.960 . S
H2492 C2476 0.931 . S
H2493 C2481 0.929 . S
H2494 C2482 0.960 . S
H2495 C2482 0.962 . S
H2496 C2482 0.960 . S
H2497 C2483 0.961 . S
H2498 C2483 0.961 . S
H2499 C2483 0.961 . S
H2500 C2484 0.931 . S
H2501 C2489 0.930 . S
H2502 C2490 0.956 . S
H2503 C2490 0.961 . S
H2504 C2490 0.961 . S
H2505 C2491 0.958 . S
H2506 C2491 0.961 . S
H2507 C2491 0.960 . S
C2508 C2509 1.391 . S
C2508 C2510 1.394 1_545 S
C2508 H2524 0.931 . S
C2509 C2508 1.391 . S
C2509 C2513 1.376 1_545 S
C2510 C2508 1.394 1_565 S
C2510 C2511 1.369 . S
C2510 C2514 1.531 . S
C2511 C2510 1.369 . S
C2511 C2512 1.410 . S
C2511 C2519 1.503 . S
C2512 C2511 1.410 . S
C2512 C2513 1.392 . S
C2512 C2515 1.511 . S
C2513 C2509 1.376 1_565 S
C2513 C2512 1.392 . S
C2513 H2525 0.929 1_565 S
C2514 C2510 1.531 . S
C2514 H2526 0.960 . S
C2514 H2527 0.962 . S
C2514 H2528 0.960 . S
C2515 C2512 1.511 . S
C2515 H2529 0.961 . S
C2515 H2530 0.961 . S
C2515 H2531 0.961 . S
C2516 C2517 1.370 . S
C2516 C2518 1.363 . S
C2516 H2532 0.931 . S
C2517 C2516 1.370 . S
C2517 C2521 1.408 . S
C2518 C2516 1.363 . S
C2518 C2519 1.370 . S
C2518 C2522 1.524 . S
C2519 C2511 1.503 . S
C2519 C2518 1.370 . S
C2519 C2520 1.403 . S
C2520 C2519 1.403 . S
C2520 C2521 1.404 . S
C2520 C2523 1.539 . S
C2521 C2517 1.408 . S
C2521 C2520 1.404 . S
C2521 H2533 0.930 . S
C2522 C2518 1.524 . S
C2522 H2534 0.956 . S
C2522 H2535 0.961 . S
C2522 H2536 0.961 . S
C2523 C2520 1.539 . S
C2523 H2537 0.958 . S
C2523 H2538 0.961 . S
C2523 H2539 0.960 . S
H2524 C2508 0.931 . S
H2525 C2513 0.929 1_545 S
H2526 C2514 0.960 . S
H2527 C2514 0.962 . S
H2528 C2514 0.960 . S
H2529 C2515 0.961 . S
H2530 C2515 0.961 . S
H2531 C2515 0.961 . S
H2532 C2516 0.931 . S
H2533 C2521 0.930 . S
H2534 C2522 0.956 . S
H2535 C2522 0.961 . S
H2536 C2522 0.961 . S
H2537 C2523 0.958 . S
H2538 C2523 0.961 . S
H2539 C2523 0.960 . S
C2540 C2541 1.391 1_455 S
C2540 C2542 1.394 . S
C2540 H2556 0.931 . S
C2541 C2540 1.391 1_655 S
C2541 C2545 1.376 . S
C2542 C2540 1.394 . S
C2542 C2543 1.369 . S
C2542 C2546 1.531 . S
C2543 C2542 1.369 . S
C2543 C2544 1.410 . S
C2543 C2551 1.503 . S
C2544 C2543 1.410 . S
C2544 C2545 1.392 1_455 S
C2544 C2547 1.511 . S
C2545 C2541 1.376 . S
C2545 C2544 1.392 1_655 S
C2545 H2557 0.929 . S
C2546 C2542 1.531 . S
C2546 H2558 0.960 . S
C2546 H2559 0.962 . S
C2546 H2560 0.960 . S
C2547 C2544 1.511 . S
C2547 H2561 0.961 . S
C2547 H2562 0.961 . S
C2547 H2563 0.961 . S
C2548 C2549 1.370 . S
C2548 C2550 1.363 . S
C2548 H2564 0.931 . S
C2549 C2548 1.370 . S
C2549 C2553 1.408 . S
C2550 C2548 1.363 . S
C2550 C2551 1.370 . S
C2550 C2554 1.524 . S
C2551 C2543 1.503 . S
C2551 C2550 1.370 . S
C2551 C2552 1.403 . S
C2552 C2551 1.403 . S
C2552 C2553 1.404 . S
C2552 C2555 1.539 . S
C2553 C2549 1.408 . S
C2553 C2552 1.404 . S
C2553 H2565 0.930 . S
C2554 C2550 1.524 . S
C2554 H2566 0.956 . S
C2554 H2567 0.961 . S
C2554 H2568 0.961 . S
C2555 C2552 1.539 . S
C2555 H2569 0.958 . S
C2555 H2570 0.961 . S
C2555 H2571 0.960 . S
H2556 C2540 0.931 . S
H2557 C2545 0.929 . S
H2558 C2546 0.960 . S
H2559 C2546 0.962 . S
H2560 C2546 0.960 . S
H2561 C2547 0.961 . S
H2562 C2547 0.961 . S
H2563 C2547 0.961 . S
H2564 C2548 0.931 . S
H2565 C2553 0.930 . S
H2566 C2554 0.956 . S
H2567 C2554 0.961 . S
H2568 C2554 0.961 . S
H2569 C2555 0.958 . S
H2570 C2555 0.961 . S
H2571 C2555 0.960 . S
C2572 C2573 1.391 . S
C2572 C2574 1.394 . S
C2572 H2588 0.931 . S
C2573 C2572 1.391 . S
C2573 C2577 1.376 . S
C2574 C2572 1.394 . S
C2574 C2575 1.369 . S
C2574 C2578 1.531 . S
C2575 C2574 1.369 . S
C2575 C2576 1.410 . S
C2575 C2583 1.503 . S
C2576 C2575 1.410 . S
C2576 C2577 1.392 . S
C2576 C2579 1.511 . S
C2577 C2573 1.376 . S
C2577 C2576 1.392 . S
C2577 H2589 0.929 . S
C2578 C2574 1.531 . S
C2578 H2590 0.960 . S
C2578 H2591 0.962 . S
C2578 H2592 0.960 . S
C2579 C2576 1.511 . S
C2579 H2593 0.961 . S
C2579 H2594 0.961 . S
C2579 H2595 0.961 . S
C2580 C2581 1.370 . S
C2580 C2582 1.363 . S
C2580 H2596 0.931 . S
C2581 C2580 1.370 . S
C2581 C2585 1.408 . S
C2582 C2580 1.363 . S
C2582 C2583 1.370 . S
C2582 C2586 1.524 . S
C2583 C2575 1.503 . S
C2583 C2582 1.370 . S
C2583 C2584 1.403 . S
C2584 C2583 1.403 . S
C2584 C2585 1.404 . S
C2584 C2587 1.539 . S
C2585 C2581 1.408 . S
C2585 C2584 1.404 . S
C2585 H2597 0.930 . S
C2586 C2582 1.524 . S
C2586 H2598 0.956 . S
C2586 H2599 0.961 . S
C2586 H2600 0.961 . S
C2587 C2584 1.539 . S
C2587 H2601 0.958 . S
C2587 H2602 0.961 . S
C2587 H2603 0.960 . S
H2588 C2572 0.931 . S
H2589 C2577 0.929 . S
H2590 C2578 0.960 . S
H2591 C2578 0.962 . S
H2592 C2578 0.960 . S
H2593 C2579 0.961 . S
H2594 C2579 0.961 . S
H2595 C2579 0.961 . S
H2596 C2580 0.931 . S
H2597 C2585 0.930 . S
H2598 C2586 0.956 . S
H2599 C2586 0.961 . S
H2600 C2586 0.961 . S
H2601 C2587 0.958 . S
H2602 C2587 0.961 . S
H2603 C2587 0.960 . S
C2604 C2605 1.391 . S
C2604 C2606 1.394 . S
C2604 H2620 0.931 . S
C2605 C2604 1.391 . S
C2605 C2609 1.376 . S
C2606 C2604 1.394 . S
C2606 C2607 1.369 . S
C2606 C2610 1.531 . S
C2607 C2606 1.369 . S
C2607 C2608 1.410 . S
C2607 C2615 1.503 . S
C2608 C2607 1.410 . S
C2608 C2609 1.392 . S
C2608 C2611 1.511 . S
C2609 C2605 1.376 . S
C2609 C2608 1.392 . S
C2609 H2621 0.929 . S
C2610 C2606 1.531 . S
C2610 H2622 0.960 . S
C2610 H2623 0.962 . S
C2610 H2624 0.960 . S
C2611 C2608 1.511 . S
C2611 H2625 0.961 . S
C2611 H2626 0.961 . S
C2611 H2627 0.961 . S
C2612 C2613 1.370 . S
C2612 C2614 1.363 . S
C2612 H2628 0.931 . S
C2613 C2612 1.370 . S
C2613 C2617 1.408 . S
C2614 C2612 1.363 . S
C2614 C2615 1.370 . S
C2614 C2618 1.524 . S
C2615 C2607 1.503 . S
C2615 C2614 1.370 . S
C2615 C2616 1.403 . S
C2616 C2615 1.403 . S
C2616 C2617 1.404 . S
C2616 C2619 1.539 . S
C2617 C2613 1.408 . S
C2617 C2616 1.404 . S
C2617 H2629 0.930 . S
C2618 C2614 1.524 . S
C2618 H2630 0.956 . S
C2618 H2631 0.961 . S
C2618 H2632 0.961 . S
C2619 C2616 1.539 . S
C2619 H2633 0.958 . S
C2619 H2634 0.961 . S
C2619 H2635 0.960 . S
H2620 C2604 0.931 . S
H2621 C2609 0.929 . S
H2622 C2610 0.960 . S
H2623 C2610 0.962 . S
H2624 C2610 0.960 . S
H2625 C2611 0.961 . S
H2626 C2611 0.961 . S
H2627 C2611 0.961 . S
H2628 C2612 0.931 . S
H2629 C2617 0.930 . S
H2630 C2618 0.956 . S
H2631 C2618 0.961 . S
H2632 C2618 0.961 . S
H2633 C2619 0.958 . S
H2634 C2619 0.961 . S
H2635 C2619 0.960 . S
C2636 C2637 1.391 . S
C2636 C2638 1.394 . S
C2636 H2652 0.931 . S
C2637 C2636 1.391 . S
C2637 C2641 1.376 . S
C2638 C2636 1.394 . S
C2638 C2639 1.369 . S
C2638 C2642 1.531 . S
C2639 C2638 1.369 . S
C2639 C2640 1.410 . S
C2639 C2647 1.503 . S
C2640 C2639 1.410 . S
C2640 C2641 1.392 . S
C2640 C2643 1.511 . S
C2641 C2637 1.376 . S
C2641 C2640 1.392 . S
C2641 H2653 0.929 . S
C2642 C2638 1.531 . S
C2642 H2654 0.960 . S
C2642 H2655 0.962 . S
C2642 H2656 0.960 . S
C2643 C2640 1.511 . S
C2643 H2657 0.961 . S
C2643 H2658 0.961 . S
C2643 H2659 0.961 . S
C2644 C2645 1.370 . S
C2644 C2646 1.363 . S
C2644 H2660 0.931 . S
C2645 C2644 1.370 . S
C2645 C2649 1.408 . S
C2646 C2644 1.363 . S
C2646 C2647 1.370 . S
C2646 C2650 1.524 . S
C2647 C2639 1.503 . S
C2647 C2646 1.370 . S
C2647 C2648 1.403 . S
C2648 C2647 1.403 . S
C2648 C2649 1.404 . S
C2648 C2651 1.539 . S
C2649 C2645 1.408 . S
C2649 C2648 1.404 . S
C2649 H2661 0.930 . S
C2650 C2646 1.524 . S
C2650 H2662 0.956 . S
C2650 H2663 0.961 . S
C2650 H2664 0.961 . S
C2651 C2648 1.539 . S
C2651 H2665 0.958 . S
C2651 H2666 0.961 . S
C2651 H2667 0.960 . S
H2652 C2636 0.931 . S
H2653 C2641 0.929 . S
H2654 C2642 0.960 . S
H2655 C2642 0.962 . S
H2656 C2642 0.960 . S
H2657 C2643 0.961 . S
H2658 C2643 0.961 . S
H2659 C2643 0.961 . S
H2660 C2644 0.931 . S
H2661 C2649 0.930 . S
H2662 C2650 0.956 . S
H2663 C2650 0.961 . S
H2664 C2650 0.961 . S
H2665 C2651 0.958 . S
H2666 C2651 0.961 . S
H2667 C2651 0.960 . S
C2668 C2669 1.391 . S
C2668 C2670 1.394 . S
C2668 H2684 0.931 . S
C2669 C2668 1.391 . S
C2669 C2673 1.376 . S
C2670 C2668 1.394 . S
C2670 C2671 1.369 . S
C2670 C2674 1.531 . S
C2671 C2670 1.369 . S
C2671 C2672 1.410 . S
C2671 C2679 1.503 . S
C2672 C2671 1.410 . S
C2672 C2673 1.392 . S
C2672 C2675 1.511 . S
C2673 C2669 1.376 . S
C2673 C2672 1.392 . S
C2673 H2685 0.929 . S
C2674 C2670 1.531 . S
C2674 H2686 0.960 . S
C2674 H2687 0.962 . S
C2674 H2688 0.960 . S
C2675 C2672 1.511 . S
C2675 H2689 0.961 . S
C2675 H2690 0.961 . S
C2675 H2691 0.961 . S
C2676 C2677 1.370 . S
C2676 C2678 1.363 . S
C2676 H2692 0.931 . S
C2677 C2676 1.370 . S
C2677 C2681 1.408 . S
C2678 C2676 1.363 . S
C2678 C2679 1.370 . S
C2678 C2682 1.524 . S
C2679 C2671 1.503 . S
C2679 C2678 1.370 . S
C2679 C2680 1.403 . S
C2680 C2679 1.403 . S
C2680 C2681 1.404 . S
C2680 C2683 1.539 . S
C2681 C2677 1.408 . S
C2681 C2680 1.404 . S
C2681 H2693 0.930 . S
C2682 C2678 1.524 . S
C2682 H2694 0.956 . S
C2682 H2695 0.961 . S
C2682 H2696 0.961 . S
C2683 C2680 1.539 . S
C2683 H2697 0.958 . S
C2683 H2698 0.961 . S
C2683 H2699 0.960 . S
H2684 C2668 0.931 . S
H2685 C2673 0.929 . S
H2686 C2674 0.960 . S
H2687 C2674 0.962 . S
H2688 C2674 0.960 . S
H2689 C2675 0.961 . S
H2690 C2675 0.961 . S
H2691 C2675 0.961 . S
H2692 C2676 0.931 . S
H2693 C2681 0.930 . S
H2694 C2682 0.956 . S
H2695 C2682 0.961 . S
H2696 C2682 0.961 . S
H2697 C2683 0.958 . S
H2698 C2683 0.961 . S
H2699 C2683 0.960 . S
C2700 C2701 1.391 1_545 S
C2700 C2702 1.394 . S
C2700 H2716 0.937 . S
C2701 C2700 1.391 1_565 S
C2701 C2705 1.376 . S
C2702 C2700 1.394 . S
C2702 C2703 1.369 . S
C2702 C2706 1.531 . S
C2703 C2702 1.369 . S
C2703 C2704 1.410 . S
C2703 C2711 1.503 . S
C2704 C2703 1.410 . S
C2704 C2705 1.392 1_545 S
C2704 C2707 1.511 . S
C2705 C2701 1.376 . S
C2705 C2704 1.392 1_565 S
C2705 H2717 0.929 . S
C2706 C2702 1.531 . S
C2706 H2718 0.960 . S
C2706 H2719 0.962 . S
C2706 H2720 0.960 . S
C2707 C2704 1.511 . S
C2707 H2721 0.961 . S
C2707 H2722 0.961 . S
C2707 H2723 0.961 . S
C2708 C2709 1.370 . S
C2708 C2710 1.363 . S
C2708 H2724 0.931 . S
C2709 C2708 1.370 . S
C2709 C2713 1.408 . S
C2710 C2708 1.363 . S
C2710 C2711 1.370 . S
C2710 C2714 1.524 . S
C2711 C2703 1.503 . S
C2711 C2710 1.370 . S
C2711 C2712 1.403 . S
C2712 C2711 1.403 . S
C2712 C2713 1.404 . S
C2712 C2715 1.539 . S
C2713 C2709 1.408 . S
C2713 C2712 1.404 . S
C2713 H2725 0.930 . S
C2714 C2710 1.524 . S
C2714 H2726 0.956 . S
C2714 H2727 0.961 . S
C2714 H2728 0.961 . S
C2715 C2712 1.539 . S
C2715 H2729 0.958 . S
C2715 H2730 0.961 . S
C2715 H2731 0.960 . S
H2716 C2700 0.937 . S
H2717 C2705 0.929 . S
H2718 C2706 0.960 . S
H2719 C2706 0.962 . S
H2720 C2706 0.960 . S
H2721 C2707 0.961 . S
H2722 C2707 0.961 . S
H2723 C2707 0.961 . S
H2724 C2708 0.931 . S
H2725 C2713 0.930 . S
H2726 C2714 0.956 . S
H2727 C2714 0.961 . S
H2728 C2714 0.961 . S
H2729 C2715 0.958 . S
H2730 C2715 0.961 . S
H2731 C2715 0.960 . S
C2732 C2733 1.391 1_655 S
C2732 C2734 1.394 . S
C2732 H2748 0.931 . S
C2733 C2732 1.391 1_455 S
C2733 C2737 1.376 . S
C2734 C2732 1.394 . S
C2734 C2735 1.369 . S
C2734 C2738 1.531 . S
C2735 C2734 1.369 . S
C2735 C2736 1.410 . S
C2735 C2743 1.503 . S
C2736 C2735 1.410 . S
C2736 C2737 1.392 1_655 S
C2736 C2739 1.511 . S
C2737 C2733 1.376 . S
C2737 C2736 1.392 1_455 S
C2737 H2749 0.929 . S
C2738 C2734 1.531 . S
C2738 H2750 0.960 . S
C2738 H2751 0.962 . S
C2738 H2752 0.960 . S
C2739 C2736 1.511 . S
C2739 H2753 0.961 . S
C2739 H2754 0.961 . S
C2739 H2755 0.961 . S
C2740 C2741 1.370 . S
C2740 C2742 1.363 . S
C2740 H2756 0.931 . S
C2741 C2740 1.370 . S
C2741 C2745 1.408 . S
C2742 C2740 1.363 . S
C2742 C2743 1.370 . S
C2742 C2746 1.524 . S
C2743 C2735 1.503 . S
C2743 C2742 1.370 . S
C2743 C2744 1.403 . S
C2744 C2743 1.403 . S
C2744 C2745 1.404 . S
C2744 C2747 1.539 . S
C2745 C2741 1.408 . S
C2745 C2744 1.404 . S
C2745 H2757 0.930 . S
C2746 C2742 1.524 . S
C2746 H2758 0.956 . S
C2746 H2759 0.961 . S
C2746 H2760 0.961 . S
C2747 C2744 1.539 . S
C2747 H2761 0.958 . S
C2747 H2762 0.961 . S
C2747 H2763 0.960 . S
H2748 C2732 0.931 . S
H2749 C2737 0.929 . S
H2750 C2738 0.960 . S
H2751 C2738 0.962 . S
H2752 C2738 0.960 . S
H2753 C2739 0.961 . S
H2754 C2739 0.961 . S
H2755 C2739 0.961 . S
H2756 C2740 0.931 . S
H2757 C2745 0.930 . S
H2758 C2746 0.956 . S
H2759 C2746 0.961 . S
H2760 C2746 0.961 . S
H2761 C2747 0.958 . S
H2762 C2747 0.961 . S
H2763 C2747 0.960 . S
C2764 C2765 1.391 . S
C2764 C2766 1.394 . S
C2764 H2780 0.931 . S
C2765 C2764 1.391 . S
C2765 C2769 1.376 . S
C2766 C2764 1.394 . S
C2766 C2767 1.369 . S
C2766 C2770 1.531 . S
C2767 C2766 1.369 . S
C2767 C2768 1.410 . S
C2767 C2775 1.503 . S
C2768 C2767 1.410 . S
C2768 C2769 1.392 . S
C2768 C2771 1.511 . S
C2769 C2765 1.376 . S
C2769 C2768 1.392 . S
C2769 H2781 0.929 . S
C2770 C2766 1.531 . S
C2770 H2782 0.960 . S
C2770 H2783 0.962 . S
C2770 H2784 0.960 . S
C2771 C2768 1.511 . S
C2771 H2785 0.961 . S
C2771 H2786 0.961 . S
C2771 H2787 0.961 . S
C2772 C2773 1.370 . S
C2772 C2774 1.363 . S
C2772 H2788 0.931 . S
C2773 C2772 1.370 . S
C2773 C2777 1.408 . S
C2774 C2772 1.363 . S
C2774 C2775 1.370 . S
C2774 C2778 1.524 . S
C2775 C2767 1.503 . S
C2775 C2774 1.370 . S
C2775 C2776 1.403 . S
C2776 C2775 1.403 . S
C2776 C2777 1.404 . S
C2776 C2779 1.539 . S
C2777 C2773 1.408 . S
C2777 C2776 1.404 . S
C2777 H2789 0.930 . S
C2778 C2774 1.524 . S
C2778 H2790 0.956 . S
C2778 H2791 0.961 . S
C2778 H2792 0.961 . S
C2779 C2776 1.539 . S
C2779 H2793 0.958 . S
C2779 H2794 0.961 . S
C2779 H2795 0.960 . S
H2780 C2764 0.931 . S
H2781 C2769 0.929 . S
H2782 C2770 0.960 . S
H2783 C2770 0.962 . S
H2784 C2770 0.960 . S
H2785 C2771 0.961 . S
H2786 C2771 0.961 . S
H2787 C2771 0.961 . S
H2788 C2772 0.931 . S
H2789 C2777 0.930 . S
H2790 C2778 0.956 . S
H2791 C2778 0.961 . S
H2792 C2778 0.961 . S
H2793 C2779 0.958 . S
H2794 C2779 0.961 . S
H2795 C2779 0.960 . S
C2796 C2797 1.418 . S
C2796 C2798 1.366 1_455 S
C2796 H2812 0.933 . S
C2797 C2796 1.418 . S
C2797 C2801 1.376 1_455 S
C2798 C2796 1.366 1_655 S
C2798 C2799 1.369 . S
C2798 C2802 1.531 . S
C2799 C2798 1.369 . S
C2799 C2800 1.410 . S
C2799 C2807 1.503 . S
C2800 C2799 1.410 . S
C2800 C2801 1.392 . S
C2800 C2803 1.511 . S
C2801 C2797 1.376 1_655 S
C2801 C2800 1.392 . S
C2801 H2813 0.929 1_655 S
C2802 C2798 1.531 . S
C2802 H2814 0.960 . S
C2802 H2815 0.962 . S
C2802 H2816 0.960 . S
C2803 C2800 1.511 . S
C2803 H2817 0.961 . S
C2803 H2818 0.961 . S
C2803 H2819 0.961 . S
C2804 C2805 1.370 . S
C2804 C2806 1.363 . S
C2804 H2820 0.931 . S
C2805 C2804 1.370 . S
C2805 C2809 1.408 . S
C2806 C2804 1.363 . S
C2806 C2807 1.370 . S
C2806 C2810 1.524 . S
C2807 C2799 1.503 . S
C2807 C2806 1.370 . S
C2807 C2808 1.403 . S
C2808 C2807 1.403 . S
C2808 C2809 1.404 . S
C2808 C2811 1.539 . S
C2809 C2805 1.408 . S
C2809 C2808 1.404 . S
C2809 H2821 0.930 . S
C2810 C2806 1.524 . S
C2810 H2822 0.956 . S
C2810 H2823 0.961 . S
C2810 H2824 0.961 . S
C2811 C2808 1.539 . S
C2811 H2825 0.958 . S
C2811 H2826 0.961 . S
C2811 H2827 0.960 . S
H2812 C2796 0.933 . S
H2813 C2801 0.929 1_455 S
H2814 C2802 0.960 . S
H2815 C2802 0.962 . S
H2816 C2802 0.960 . S
H2817 C2803 0.961 . S
H2818 C2803 0.961 . S
H2819 C2803 0.961 . S
H2820 C2804 0.931 . S
H2821 C2809 0.930 . S
H2822 C2810 0.956 . S
H2823 C2810 0.961 . S
H2824 C2810 0.961 . S
H2825 C2811 0.958 . S
H2826 C2811 0.961 . S
H2827 C2811 0.960 . S
C2828 C2829 1.391 . S
C2828 C2830 1.394 . S
C2828 H2844 0.931 . S
C2829 C2828 1.391 . S
C2829 C2833 1.376 . S
C2830 C2828 1.394 . S
C2830 C2831 1.369 . S
C2830 C2834 1.531 . S
C2831 C2830 1.369 . S
C2831 C2832 1.410 . S
C2831 C2839 1.503 . S
C2832 C2831 1.410 . S
C2832 C2833 1.392 . S
C2832 C2835 1.511 . S
C2833 C2829 1.376 . S
C2833 C2832 1.392 . S
C2833 H2845 0.929 . S
C2834 C2830 1.531 . S
C2834 H2846 0.960 . S
C2834 H2847 0.962 . S
C2834 H2848 0.960 . S
C2835 C2832 1.511 . S
C2835 H2849 0.961 . S
C2835 H2850 0.961 . S
C2835 H2851 0.961 . S
C2836 C2837 1.370 . S
C2836 C2838 1.363 . S
C2836 H2852 0.931 . S
C2837 C2836 1.370 . S
C2837 C2841 1.408 . S
C2838 C2836 1.363 . S
C2838 C2839 1.370 . S
C2838 C2842 1.524 . S
C2839 C2831 1.503 . S
C2839 C2838 1.370 . S
C2839 C2840 1.403 . S
C2840 C2839 1.403 . S
C2840 C2841 1.404 . S
C2840 C2843 1.539 . S
C2841 C2837 1.408 . S
C2841 C2840 1.404 . S
C2841 H2853 0.930 . S
C2842 C2838 1.524 . S
C2842 H2854 0.956 . S
C2842 H2855 0.961 . S
C2842 H2856 0.961 . S
C2843 C2840 1.539 . S
C2843 H2857 0.958 . S
C2843 H2858 0.961 . S
C2843 H2859 0.960 . S
H2844 C2828 0.931 . S
H2845 C2833 0.929 . S
H2846 C2834 0.960 . S
H2847 C2834 0.962 . S
H2848 C2834 0.960 . S
H2849 C2835 0.961 . S
H2850 C2835 0.961 . S
H2851 C2835 0.961 . S
H2852 C2836 0.931 . S
H2853 C2841 0.930 . S
H2854 C2842 0.956 . S
H2855 C2842 0.961 . S
H2856 C2842 0.961 . S
H2857 C2843 0.958 . S
H2858 C2843 0.961 . S
H2859 C2843 0.960 . S
C2860 C2861 1.391 . S
C2860 C2862 1.394 1_565 S
C2860 H2876 0.931 . S
C2861 C2860 1.391 . S
C2861 C2865 1.376 1_565 S
C2862 C2860 1.394 1_545 S
C2862 C2863 1.369 . S
C2862 C2866 1.531 . S
C2863 C2862 1.369 . S
C2863 C2864 1.410 . S
C2863 C2871 1.503 . S
C2864 C2863 1.410 . S
C2864 C2865 1.392 . S
C2864 C2867 1.511 . S
C2865 C2861 1.376 1_545 S
C2865 C2864 1.392 . S
C2865 H2877 0.929 1_545 S
C2866 C2862 1.531 . S
C2866 H2878 0.960 . S
C2866 H2879 0.962 . S
C2866 H2880 0.960 . S
C2867 C2864 1.511 . S
C2867 H2881 0.961 . S
C2867 H2882 0.961 . S
C2867 H2883 0.961 . S
C2868 C2869 1.370 . S
C2868 C2870 1.363 . S
C2868 H2884 0.931 . S
C2869 C2868 1.370 . S
C2869 C2873 1.408 . S
C2870 C2868 1.363 . S
C2870 C2871 1.370 . S
C2870 C2874 1.524 . S
C2871 C2863 1.503 . S
C2871 C2870 1.370 . S
C2871 C2872 1.403 . S
C2872 C2871 1.403 . S
C2872 C2873 1.404 . S
C2872 C2875 1.539 . S
C2873 C2869 1.408 . S
C2873 C2872 1.404 . S
C2873 H2885 0.930 . S
C2874 C2870 1.524 . S
C2874 H2886 0.956 . S
C2874 H2887 0.961 . S
C2874 H2888 0.961 . S
C2875 C2872 1.539 . S
C2875 H2889 0.958 . S
C2875 H2890 0.961 . S
C2875 H2891 0.960 . S
H2876 C2860 0.931 . S
H2877 C2865 0.929 1_565 S
H2878 C2866 0.960 . S
H2879 C2866 0.962 . S
H2880 C2866 0.960 . S
H2881 C2867 0.961 . S
H2882 C2867 0.961 . S
H2883 C2867 0.961 . S
H2884 C2868 0.931 . S
H2885 C2873 0.930 . S
H2886 C2874 0.956 . S
H2887 C2874 0.961 . S
H2888 C2874 0.961 . S
H2889 C2875 0.958 . S
H2890 C2875 0.961 . S
H2891 C2875 0.960 . S
C2892 C2893 1.391 . S
C2892 C2894 1.394 . S
C2892 H2908 0.931 . S
C2893 C2892 1.391 . S
C2893 C2897 1.376 . S
C2894 C2892 1.394 . S
C2894 C2895 1.369 . S
C2894 C2898 1.531 . S
C2895 C2894 1.369 . S
C2895 C2896 1.410 . S
C2895 C2903 1.503 . S
C2896 C2895 1.410 . S
C2896 C2897 1.392 . S
C2896 C2899 1.511 . S
C2897 C2893 1.376 . S
C2897 C2896 1.392 . S
C2897 H2909 0.929 . S
C2898 C2894 1.531 . S
C2898 H2910 0.960 . S
C2898 H2911 0.962 . S
C2898 H2912 0.960 . S
C2899 C2896 1.511 . S
C2899 H2913 0.961 . S
C2899 H2914 0.961 . S
C2899 H2915 0.961 . S
C2900 C2901 1.370 . S
C2900 C2902 1.363 . S
C2900 H2916 0.931 . S
C2901 C2900 1.370 . S
C2901 C2905 1.408 . S
C2902 C2900 1.363 . S
C2902 C2903 1.370 . S
C2902 C2906 1.524 . S
C2903 C2895 1.503 . S
C2903 C2902 1.370 . S
C2903 C2904 1.403 . S
C2904 C2903 1.403 . S
C2904 C2905 1.404 . S
C2904 C2907 1.539 . S
C2905 C2901 1.408 . S
C2905 C2904 1.404 . S
C2905 H2917 0.930 . S
C2906 C2902 1.524 . S
C2906 H2918 0.956 . S
C2906 H2919 0.961 . S
C2906 H2920 0.961 . S
C2907 C2904 1.539 . S
C2907 H2921 0.958 . S
C2907 H2922 0.961 . S
C2907 H2923 0.960 . S
H2908 C2892 0.931 . S
H2909 C2897 0.929 . S
H2910 C2898 0.960 . S
H2911 C2898 0.962 . S
H2912 C2898 0.960 . S
H2913 C2899 0.961 . S
H2914 C2899 0.961 . S
H2915 C2899 0.961 . S
H2916 C2900 0.931 . S
H2917 C2905 0.930 . S
H2918 C2906 0.956 . S
H2919 C2906 0.961 . S
H2920 C2906 0.961 . S
H2921 C2907 0.958 . S
H2922 C2907 0.961 . S
H2923 C2907 0.960 . S
C2924 C2925 1.391 . S
C2924 C2926 1.394 . S
C2924 H2940 0.931 . S
C2925 C2924 1.391 . S
C2925 C2929 1.376 . S
C2926 C2924 1.394 . S
C2926 C2927 1.369 . S
C2926 C2930 1.531 . S
C2927 C2926 1.369 . S
C2927 C2928 1.410 . S
C2927 C2935 1.503 . S
C2928 C2927 1.410 . S
C2928 C2929 1.392 . S
C2928 C2931 1.511 . S
C2929 C2925 1.376 . S
C2929 C2928 1.392 . S
C2929 H2941 0.929 . S
C2930 C2926 1.531 . S
C2930 H2942 0.960 . S
C2930 H2943 0.962 . S
C2930 H2944 0.960 . S
C2931 C2928 1.511 . S
C2931 H2945 0.961 . S
C2931 H2946 0.961 . S
C2931 H2947 0.961 . S
C2932 C2933 1.370 . S
C2932 C2934 1.363 . S
C2932 H2948 0.931 . S
C2933 C2932 1.370 . S
C2933 C2937 1.408 . S
C2934 C2932 1.363 . S
C2934 C2935 1.370 . S
C2934 C2938 1.524 . S
C2935 C2927 1.503 . S
C2935 C2934 1.370 . S
C2935 C2936 1.403 . S
C2936 C2935 1.403 . S
C2936 C2937 1.404 . S
C2936 C2939 1.539 . S
C2937 C2933 1.408 . S
C2937 C2936 1.404 . S
C2937 H2949 0.930 . S
C2938 C2934 1.524 . S
C2938 H2950 0.956 . S
C2938 H2951 0.961 . S
C2938 H2952 0.961 . S
C2939 C2936 1.539 . S
C2939 H2953 0.958 . S
C2939 H2954 0.961 . S
C2939 H2955 0.960 . S
H2940 C2924 0.931 . S
H2941 C2929 0.929 . S
H2942 C2930 0.960 . S
H2943 C2930 0.962 . S
H2944 C2930 0.960 . S
H2945 C2931 0.961 . S
H2946 C2931 0.961 . S
H2947 C2931 0.961 . S
H2948 C2932 0.931 . S
H2949 C2937 0.930 . S
H2950 C2938 0.956 . S
H2951 C2938 0.961 . S
H2952 C2938 0.961 . S
H2953 C2939 0.958 . S
H2954 C2939 0.961 . S
H2955 C2939 0.960 . S
C2956 C2957 1.391 . S
C2956 C2958 1.394 . S
C2956 H2972 0.931 . S
C2957 C2956 1.391 . S
C2957 C2961 1.376 . S
C2958 C2956 1.394 . S
C2958 C2959 1.369 . S
C2958 C2962 1.531 . S
C2959 C2958 1.369 . S
C2959 C2960 1.410 . S
C2959 C2967 1.503 . S
C2960 C2959 1.410 . S
C2960 C2961 1.392 . S
C2960 C2963 1.511 . S
C2961 C2957 1.376 . S
C2961 C2960 1.392 . S
C2961 H2973 0.929 . S
C2962 C2958 1.531 . S
C2962 H2974 0.960 . S
C2962 H2975 0.962 . S
C2962 H2976 0.960 . S
C2963 C2960 1.511 . S
C2963 H2977 0.961 . S
C2963 H2978 0.961 . S
C2963 H2979 0.961 . S
C2964 C2965 1.370 . S
C2964 C2966 1.363 . S
C2964 H2980 0.931 . S
C2965 C2964 1.370 . S
C2965 C2969 1.408 . S
C2966 C2964 1.363 . S
C2966 C2967 1.370 . S
C2966 C2970 1.524 . S
C2967 C2959 1.503 . S
C2967 C2966 1.370 . S
C2967 C2968 1.403 . S
C2968 C2967 1.403 . S
C2968 C2969 1.404 . S
C2968 C2971 1.539 . S
C2969 C2965 1.408 . S
C2969 C2968 1.404 . S
C2969 H2981 0.930 . S
C2970 C2966 1.524 . S
C2970 H2982 0.956 . S
C2970 H2983 0.961 . S
C2970 H2984 0.961 . S
C2971 C2968 1.539 . S
C2971 H2985 0.958 . S
C2971 H2986 0.961 . S
C2971 H2987 0.960 . S
H2972 C2956 0.931 . S
H2973 C2961 0.929 . S
H2974 C2962 0.960 . S
H2975 C2962 0.962 . S
H2976 C2962 0.960 . S
H2977 C2963 0.961 . S
H2978 C2963 0.961 . S
H2979 C2963 0.961 . S
H2980 C2964 0.931 . S
H2981 C2969 0.930 . S
H2982 C2970 0.956 . S
H2983 C2970 0.961 . S
H2984 C2970 0.961 . S
H2985 C2971 0.958 . S
H2986 C2971 0.961 . S
H2987 C2971 0.960 . S
C2988 C2989 1.391 . S
C2988 C2990 1.394 . S
C2988 H3004 0.931 . S
C2989 C2988 1.391 . S
C2989 C2993 1.376 . S
C2990 C2988 1.394 . S
C2990 C2991 1.369 . S
C2990 C2994 1.531 . S
C2991 C2990 1.369 . S
C2991 C2992 1.410 . S
C2991 C2999 1.503 . S
C2992 C2991 1.410 . S
C2992 C2993 1.392 . S
C2992 C2995 1.511 . S
C2993 C2989 1.376 . S
C2993 C2992 1.392 . S
C2993 H3005 0.929 . S
C2994 C2990 1.531 . S
C2994 H3006 0.960 . S
C2994 H3007 0.962 . S
C2994 H3008 0.960 . S
C2995 C2992 1.511 . S
C2995 H3009 0.961 . S
C2995 H3010 0.961 . S
C2995 H3011 0.961 . S
C2996 C2997 1.370 . S
C2996 C2998 1.363 . S
C2996 H3012 0.931 . S
C2997 C2996 1.370 . S
C2997 C3001 1.408 . S
C2998 C2996 1.363 . S
C2998 C2999 1.370 . S
C2998 C3002 1.524 . S
C2999 C2991 1.503 . S
C2999 C2998 1.370 . S
C2999 C3000 1.403 . S
C3000 C2999 1.403 . S
C3000 C3001 1.404 . S
C3000 C3003 1.539 . S
C3001 C2997 1.408 . S
C3001 C3000 1.404 . S
C3001 H3013 0.930 . S
C3002 C2998 1.524 . S
C3002 H3014 0.956 . S
C3002 H3015 0.961 . S
C3002 H3016 0.961 1_565 S
C3003 C3000 1.539 . S
C3003 H3017 0.958 . S
C3003 H3018 0.961 . S
C3003 H3019 0.960 . S
H3004 C2988 0.931 . S
H3005 C2993 0.929 . S
H3006 C2994 0.960 . S
H3007 C2994 0.962 . S
H3008 C2994 0.960 . S
H3009 C2995 0.961 . S
H3010 C2995 0.961 . S
H3011 C2995 0.961 . S
H3012 C2996 0.931 . S
H3013 C3001 0.930 . S
H3014 C3002 0.956 . S
H3015 C3002 0.961 . S
H3016 C3002 0.961 1_545 S
H3017 C3003 0.958 . S
H3018 C3003 0.961 . S
H3019 C3003 0.960 . S
C3020 C3021 1.391 . S
C3020 C3022 1.394 . S
C3020 H3036 0.931 . S
C3021 C3020 1.391 . S
C3021 C3025 1.376 . S
C3022 C3020 1.394 . S
C3022 C3023 1.369 . S
C3022 C3026 1.531 . S
C3023 C3022 1.369 . S
C3023 C3024 1.410 . S
C3023 C3031 1.503 . S
C3024 C3023 1.410 . S
C3024 C3025 1.392 . S
C3024 C3027 1.511 . S
C3025 C3021 1.376 . S
C3025 C3024 1.392 . S
C3025 H3037 0.929 . S
C3026 C3022 1.531 . S
C3026 H3038 0.960 . S
C3026 H3039 0.962 . S
C3026 H3040 0.960 . S
C3027 C3024 1.511 . S
C3027 H3041 0.961 . S
C3027 H3042 0.961 . S
C3027 H3043 0.961 . S
C3028 C3029 1.370 . S
C3028 C3030 1.363 . S
C3028 H3044 0.931 1_455 S
C3029 C3028 1.370 . S
C3029 C3033 1.408 . S
C3030 C3028 1.363 . S
C3030 C3031 1.370 . S
C3030 C3034 1.524 1_455 S
C3031 C3023 1.503 . S
C3031 C3030 1.370 . S
C3031 C3032 1.403 . S
C3032 C3031 1.403 . S
C3032 C3033 1.404 . S
C3032 C3035 1.539 . S
C3033 C3029 1.408 . S
C3033 C3032 1.404 . S
C3033 H3045 0.930 . S
C3034 C3030 1.524 1_655 S
C3034 H3046 0.956 1_655 S
C3034 H3047 0.961 . S
C3034 H3048 0.961 . S
C3035 C3032 1.539 . S
C3035 H3049 0.958 . S
C3035 H3050 0.961 . S
C3035 H3051 0.960 . S
H3036 C3020 0.931 . S
H3037 C3025 0.929 . S
H3038 C3026 0.960 . S
H3039 C3026 0.962 . S
H3040 C3026 0.960 . S
H3041 C3027 0.961 . S
H3042 C3027 0.961 . S
H3043 C3027 0.961 . S
H3044 C3028 0.931 1_655 S
H3045 C3033 0.930 . S
H3046 C3034 0.956 1_455 S
H3047 C3034 0.961 . S
H3048 C3034 0.961 . S
H3049 C3035 0.958 . S
H3050 C3035 0.961 . S
H3051 C3035 0.960 . S
C3052 C3053 1.391 . S
C3052 C3054 1.394 . S
C3052 H3068 0.931 . S
C3053 C3052 1.391 . S
C3053 C3057 1.376 . S
C3054 C3052 1.394 . S
C3054 C3055 1.369 . S
C3054 C3058 1.531 . S
C3055 C3054 1.369 . S
C3055 C3056 1.410 . S
C3055 C3063 1.503 . S
C3056 C3055 1.410 . S
C3056 C3057 1.392 . S
C3056 C3059 1.511 . S
C3057 C3053 1.376 . S
C3057 C3056 1.392 . S
C3057 H3069 0.929 . S
C3058 C3054 1.531 . S
C3058 H3070 0.960 . S
C3058 H3071 0.962 . S
C3058 H3072 0.960 . S
C3059 C3056 1.511 . S
C3059 H3073 0.961 . S
C3059 H3074 0.961 . S
C3059 H3075 0.961 . S
C3060 C3061 1.370 . S
C3060 C3062 1.363 . S
C3060 H3076 0.931 . S
C3061 C3060 1.370 . S
C3061 C3065 1.408 . S
C3062 C3060 1.363 . S
C3062 C3063 1.370 . S
C3062 C3066 1.524 . S
C3063 C3055 1.503 . S
C3063 C3062 1.370 . S
C3063 C3064 1.403 . S
C3064 C3063 1.403 . S
C3064 C3065 1.404 . S
C3064 C3067 1.539 . S
C3065 C3061 1.408 . S
C3065 C3064 1.404 . S
C3065 H3077 0.930 . S
C3066 C3062 1.524 . S
C3066 H3078 0.956 . S
C3066 H3079 0.961 . S
C3066 H3080 0.961 . S
C3067 C3064 1.539 . S
C3067 H3081 0.958 . S
C3067 H3082 0.961 . S
C3067 H3083 0.960 . S
H3068 C3052 0.931 . S
H3069 C3057 0.929 . S
H3070 C3058 0.960 . S
H3071 C3058 0.962 . S
H3072 C3058 0.960 . S
H3073 C3059 0.961 . S
H3074 C3059 0.961 . S
H3075 C3059 0.961 . S
H3076 C3060 0.931 . S
H3077 C3065 0.930 . S
H3078 C3066 0.956 . S
H3079 C3066 0.961 . S
H3080 C3066 0.961 . S
H3081 C3067 0.958 . S
H3082 C3067 0.961 . S
H3083 C3067 0.960 . S
C3084 C3085 1.391 . S
C3084 C3086 1.394 . S
C3084 H3100 0.931 . S
C3085 C3084 1.391 . S
C3085 C3089 1.376 . S
C3086 C3084 1.394 . S
C3086 C3087 1.369 . S
C3086 C3090 1.531 1_655 S
C3087 C3086 1.369 . S
C3087 C3088 1.410 . S
C3087 C3095 1.503 . S
C3088 C3087 1.410 . S
C3088 C3089 1.392 . S
C3088 C3091 1.511 . S
C3089 C3085 1.376 . S
C3089 C3088 1.392 . S
C3089 H3101 0.929 . S
C3090 C3086 1.531 1_455 S
C3090 H3102 0.960 . S
C3090 H3103 0.962 . S
C3090 H3104 0.960 . S
C3091 C3088 1.511 . S
C3091 H3105 0.961 . S
C3091 H3106 0.961 . S
C3091 H3107 0.961 . S
C3092 C3093 1.370 . S
C3092 C3094 1.363 . S
C3092 H3108 0.931 . S
C3093 C3092 1.370 . S
C3093 C3097 1.408 . S
C3094 C3092 1.363 . S
C3094 C3095 1.370 . S
C3094 C3098 1.524 . S
C3095 C3087 1.503 . S
C3095 C3094 1.370 . S
C3095 C3096 1.403 . S
C3096 C3095 1.403 . S
C3096 C3097 1.404 . S
C3096 C3099 1.539 . S
C3097 C3093 1.408 . S
C3097 C3096 1.404 . S
C3097 H3109 0.930 . S
C3098 C3094 1.524 . S
C3098 H3110 0.956 . S
C3098 H3111 0.961 . S
C3098 H3112 0.961 . S
C3099 C3096 1.539 . S
C3099 H3113 0.958 . S
C3099 H3114 0.961 . S
C3099 H3115 0.960 . S
H3100 C3084 0.931 . S
H3101 C3089 0.929 . S
H3102 C3090 0.960 . S
H3103 C3090 0.962 . S
H3104 C3090 0.960 . S
H3105 C3091 0.961 . S
H3106 C3091 0.961 . S
H3107 C3091 0.961 . S
H3108 C3092 0.931 . S
H3109 C3097 0.930 . S
H3110 C3098 0.956 . S
H3111 C3098 0.961 . S
H3112 C3098 0.961 . S
H3113 C3099 0.958 . S
H3114 C3099 0.961 . S
H3115 C3099 0.960 . S
C3116 C3117 1.391 . S
C3116 C3118 1.394 . S
C3116 H3132 0.931 . S
C3117 C3116 1.391 . S
C3117 C3121 1.376 . S
C3118 C3116 1.394 . S
C3118 C3119 1.369 . S
C3118 C3122 1.531 . S
C3119 C3118 1.369 . S
C3119 C3120 1.410 . S
C3119 C3127 1.503 . S
C3120 C3119 1.410 . S
C3120 C3121 1.392 . S
C3120 C3123 1.511 . S
C3121 C3117 1.376 . S
C3121 C3120 1.392 . S
C3121 H3133 0.929 . S
C3122 C3118 1.531 . S
C3122 H3134 0.960 . S
C3122 H3135 0.962 . S
C3122 H3136 0.960 . S
C3123 C3120 1.511 . S
C3123 H3137 0.961 . S
C3123 H3138 0.961 . S
C3123 H3139 0.961 . S
C3124 C3125 1.370 . S
C3124 C3126 1.363 . S
C3124 H3140 0.931 . S
C3125 C3124 1.370 . S
C3125 C3129 1.408 . S
C3126 C3124 1.363 . S
C3126 C3127 1.370 . S
C3126 C3130 1.524 . S
C3127 C3119 1.503 . S
C3127 C3126 1.370 . S
C3127 C3128 1.403 . S
C3128 C3127 1.403 . S
C3128 C3129 1.404 . S
C3128 C3131 1.539 . S
C3129 C3125 1.408 . S
C3129 C3128 1.404 . S
C3129 H3141 0.930 . S
C3130 C3126 1.524 . S
C3130 H3142 0.956 . S
C3130 H3143 0.961 . S
C3130 H3144 0.961 . S
C3131 C3128 1.539 . S
C3131 H3145 0.958 . S
C3131 H3146 0.961 . S
C3131 H3147 0.960 . S
H3132 C3116 0.931 . S
H3133 C3121 0.929 . S
H3134 C3122 0.960 . S
H3135 C3122 0.962 . S
H3136 C3122 0.960 . S
H3137 C3123 0.961 . S
H3138 C3123 0.961 . S
H3139 C3123 0.961 . S
H3140 C3124 0.931 . S
H3141 C3129 0.930 . S
H3142 C3130 0.956 . S
H3143 C3130 0.961 . S
H3144 C3130 0.961 . S
H3145 C3131 0.958 . S
H3146 C3131 0.961 . S
H3147 C3131 0.960 . S
C3148 C3149 1.391 . S
C3148 C3150 1.394 . S
C3148 H3164 0.931 . S
C3149 C3148 1.391 . S
C3149 C3153 1.376 . S
C3150 C3148 1.394 . S
C3150 C3151 1.369 . S
C3150 C3154 1.531 . S
C3151 C3150 1.369 . S
C3151 C3152 1.410 . S
C3151 C3159 1.503 . S
C3152 C3151 1.410 . S
C3152 C3153 1.392 . S
C3152 C3155 1.511 . S
C3153 C3149 1.376 . S
C3153 C3152 1.392 . S
C3153 H3165 0.929 . S
C3154 C3150 1.531 . S
C3154 H3166 0.960 . S
C3154 H3167 0.962 . S
C3154 H3168 0.960 . S
C3155 C3152 1.511 . S
C3155 H3169 0.961 . S
C3155 H3170 0.961 . S
C3155 H3171 0.961 . S
C3156 C3157 1.370 . S
C3156 C3158 1.363 . S
C3156 H3172 0.931 1_545 S
C3157 C3156 1.370 . S
C3157 C3161 1.408 . S
C3158 C3156 1.363 . S
C3158 C3159 1.370 . S
C3158 C3162 1.524 . S
C3159 C3151 1.503 . S
C3159 C3158 1.370 . S
C3159 C3160 1.403 . S
C3160 C3159 1.403 . S
C3160 C3161 1.404 . S
C3160 C3163 1.539 . S
C3161 C3157 1.408 . S
C3161 C3160 1.404 . S
C3161 H3173 0.930 . S
C3162 C3158 1.524 . S
C3162 H3174 0.956 . S
C3162 H3175 0.961 . S
C3162 H3176 0.961 1_545 S
C3163 C3160 1.539 . S
C3163 H3177 0.958 . S
C3163 H3178 0.961 . S
C3163 H3179 0.960 . S
H3164 C3148 0.931 . S
H3165 C3153 0.929 . S
H3166 C3154 0.960 . S
H3167 C3154 0.962 . S
H3168 C3154 0.960 . S
H3169 C3155 0.961 . S
H3170 C3155 0.961 . S
H3171 C3155 0.961 . S
H3172 C3156 0.931 1_565 S
H3173 C3161 0.930 . S
H3174 C3162 0.956 . S
H3175 C3162 0.961 . S
H3176 C3162 0.961 1_565 S
H3177 C3163 0.958 . S
H3178 C3163 0.961 . S
H3179 C3163 0.960 . S
C3180 C3181 1.391 . S
C3180 C3182 1.394 . S
C3180 H3196 0.931 . S
C3181 C3180 1.391 . S
C3181 C3185 1.376 . S
C3182 C3180 1.394 . S
C3182 C3183 1.369 . S
C3182 C3186 1.531 . S
C3183 C3182 1.369 . S
C3183 C3184 1.410 . S
C3183 C3191 1.503 . S
C3184 C3183 1.410 . S
C3184 C3185 1.392 . S
C3184 C3187 1.511 . S
C3185 C3181 1.376 . S
C3185 C3184 1.392 . S
C3185 H3197 0.929 . S
C3186 C3182 1.531 . S
C3186 H3198 0.960 . S
C3186 H3199 0.962 . S
C3186 H3200 0.960 . S
C3187 C3184 1.511 . S
C3187 H3201 0.961 . S
C3187 H3202 0.961 . S
C3187 H3203 0.961 . S
C3188 C3189 1.370 . S
C3188 C3190 1.363 . S
C3188 H3204 0.931 . S
C3189 C3188 1.370 . S
C3189 C3193 1.408 . S
C3190 C3188 1.363 . S
C3190 C3191 1.370 . S
C3190 C3194 1.524 . S
C3191 C3183 1.503 . S
C3191 C3190 1.370 . S
C3191 C3192 1.403 . S
C3192 C3191 1.403 . S
C3192 C3193 1.404 . S
C3192 C3195 1.539 . S
C3193 C3189 1.408 . S
C3193 C3192 1.404 . S
C3193 H3205 0.930 . S
C3194 C3190 1.524 . S
C3194 H3206 0.956 . S
C3194 H3207 0.961 . S
C3194 H3208 0.961 . S
C3195 C3192 1.539 . S
C3195 H3209 0.958 . S
C3195 H3210 0.961 . S
C3195 H3211 0.960 . S
H3196 C3180 0.931 . S
H3197 C3185 0.929 . S
H3198 C3186 0.960 . S
H3199 C3186 0.962 . S
H3200 C3186 0.960 . S
H3201 C3187 0.961 . S
H3202 C3187 0.961 . S
H3203 C3187 0.961 . S
H3204 C3188 0.931 . S
H3205 C3193 0.930 . S
H3206 C3194 0.956 . S
H3207 C3194 0.961 . S
H3208 C3194 0.961 . S
H3209 C3195 0.958 . S
H3210 C3195 0.961 . S
H3211 C3195 0.960 . S
C3212 C3213 1.391 . S
C3212 C3214 1.394 . S
C3212 H3228 0.931 . S
C3213 C3212 1.391 . S
C3213 C3217 1.376 . S
C3214 C3212 1.394 . S
C3214 C3215 1.369 . S
C3214 C3218 1.531 . S
C3215 C3214 1.369 . S
C3215 C3216 1.410 . S
C3215 C3223 1.503 . S
C3216 C3215 1.410 . S
C3216 C3217 1.392 . S
C3216 C3219 1.511 . S
C3217 C3213 1.376 . S
C3217 C3216 1.392 . S
C3217 H3229 0.929 . S
C3218 C3214 1.531 . S
C3218 H3230 0.960 . S
C3218 H3231 0.962 . S
C3218 H3232 0.960 . S
C3219 C3216 1.511 . S
C3219 H3233 0.961 . S
C3219 H3234 0.961 . S
C3219 H3235 0.961 . S
C3220 C3221 1.370 . S
C3220 C3222 1.363 . S
C3220 H3236 0.931 . S
C3221 C3220 1.370 . S
C3221 C3225 1.408 . S
C3222 C3220 1.363 . S
C3222 C3223 1.370 . S
C3222 C3226 1.524 . S
C3223 C3215 1.503 . S
C3223 C3222 1.370 . S
C3223 C3224 1.403 . S
C3224 C3223 1.403 . S
C3224 C3225 1.404 . S
C3224 C3227 1.539 . S
C3225 C3221 1.408 . S
C3225 C3224 1.404 . S
C3225 H3237 0.930 . S
C3226 C3222 1.524 . S
C3226 H3238 0.956 . S
C3226 H3239 0.961 . S
C3226 H3240 0.961 . S
C3227 C3224 1.539 . S
C3227 H3241 0.958 . S
C3227 H3242 0.961 . S
C3227 H3243 0.960 . S
H3228 C3212 0.931 . S
H3229 C3217 0.929 . S
H3230 C3218 0.960 . S
H3231 C3218 0.962 . S
H3232 C3218 0.960 . S
H3233 C3219 0.961 . S
H3234 C3219 0.961 . S
H3235 C3219 0.961 . S
H3236 C3220 0.931 . S
H3237 C3225 0.930 . S
H3238 C3226 0.956 . S
H3239 C3226 0.961 . S
H3240 C3226 0.961 . S
H3241 C3227 0.958 . S
H3242 C3227 0.961 . S
H3243 C3227 0.960 . S
C3244 C3245 1.391 . S
C3244 C3246 1.394 . S
C3244 H3260 0.931 . S
C3245 C3244 1.391 . S
C3245 C3249 1.376 . S
C3246 C3244 1.394 . S
C3246 C3247 1.369 . S
C3246 C3250 1.531 . S
C3247 C3246 1.369 . S
C3247 C3248 1.410 . S
C3247 C3255 1.503 . S
C3248 C3247 1.410 . S
C3248 C3249 1.392 . S
C3248 C3251 1.511 . S
C3249 C3245 1.376 . S
C3249 C3248 1.392 . S
C3249 H3261 0.929 . S
C3250 C3246 1.531 . S
C3250 H3262 0.960 . S
C3250 H3263 0.962 . S
C3250 H3264 0.960 . S
C3251 C3248 1.511 . S
C3251 H3265 0.961 . S
C3251 H3266 0.961 . S
C3251 H3267 0.961 . S
C3252 C3253 1.370 . S
C3252 C3254 1.363 . S
C3252 H3268 0.931 . S
C3253 C3252 1.370 . S
C3253 C3257 1.408 . S
C3254 C3252 1.363 . S
C3254 C3255 1.370 . S
C3254 C3258 1.524 . S
C3255 C3247 1.503 . S
C3255 C3254 1.370 . S
C3255 C3256 1.403 . S
C3256 C3255 1.403 . S
C3256 C3257 1.404 . S
C3256 C3259 1.539 . S
C3257 C3253 1.408 . S
C3257 C3256 1.404 . S
C3257 H3269 0.930 . S
C3258 C3254 1.524 . S
C3258 H3270 0.956 . S
C3258 H3271 0.961 . S
C3258 H3272 0.961 . S
C3259 C3256 1.539 . S
C3259 H3273 0.958 . S
C3259 H3274 0.961 . S
C3259 H3275 0.960 . S
H3260 C3244 0.931 . S
H3261 C3249 0.929 . S
H3262 C3250 0.960 . S
H3263 C3250 0.962 . S
H3264 C3250 0.960 . S
H3265 C3251 0.961 . S
H3266 C3251 0.961 . S
H3267 C3251 0.961 . S
H3268 C3252 0.931 . S
H3269 C3257 0.930 . S
H3270 C3258 0.956 . S
H3271 C3258 0.961 . S
H3272 C3258 0.961 . S
H3273 C3259 0.958 . S
H3274 C3259 0.961 . S
H3275 C3259 0.960 . S
C3276 C3277 1.391 . S
C3276 C3278 1.394 . S
C3276 H3292 0.931 . S
C3277 C3276 1.391 . S
C3277 C3281 1.376 . S
C3278 C3276 1.394 . S
C3278 C3279 1.369 . S
C3278 C3282 1.531 . S
C3279 C3278 1.369 . S
C3279 C3280 1.410 . S
C3279 C3287 1.503 . S
C3280 C3279 1.410 . S
C3280 C3281 1.392 . S
C3280 C3283 1.511 . S
C3281 C3277 1.376 . S
C3281 C3280 1.392 . S
C3281 H3293 0.929 . S
C3282 C3278 1.531 . S
C3282 H3294 0.960 . S
C3282 H3295 0.962 . S
C3282 H3296 0.960 . S
C3283 C3280 1.511 . S
C3283 H3297 0.961 . S
C3283 H3298 0.961 . S
C3283 H3299 0.961 . S
C3284 C3285 1.370 . S
C3284 C3286 1.363 . S
C3284 H3300 0.931 . S
C3285 C3284 1.370 . S
C3285 C3289 1.408 . S
C3286 C3284 1.363 . S
C3286 C3287 1.370 . S
C3286 C3290 1.524 . S
C3287 C3279 1.503 . S
C3287 C3286 1.370 . S
C3287 C3288 1.403 . S
C3288 C3287 1.403 . S
C3288 C3289 1.404 . S
C3288 C3291 1.539 . S
C3289 C3285 1.408 . S
C3289 C3288 1.404 . S
C3289 H3301 0.930 . S
C3290 C3286 1.524 . S
C3290 H3302 0.956 . S
C3290 H3303 0.961 . S
C3290 H3304 0.961 . S
C3291 C3288 1.539 . S
C3291 H3305 0.958 . S
C3291 H3306 0.961 . S
C3291 H3307 0.960 . S
H3292 C3276 0.931 . S
H3293 C3281 0.929 . S
H3294 C3282 0.960 . S
H3295 C3282 0.962 . S
H3296 C3282 0.960 . S
H3297 C3283 0.961 . S
H3298 C3283 0.961 . S
H3299 C3283 0.961 . S
H3300 C3284 0.931 . S
H3301 C3289 0.930 . S
H3302 C3290 0.956 . S
H3303 C3290 0.961 . S
H3304 C3290 0.961 . S
H3305 C3291 0.958 . S
H3306 C3291 0.961 . S
H3307 C3291 0.960 . S
C3308 C3309 1.391 . S
C3308 C3310 1.394 . S
C3308 H3324 0.931 . S
C3309 C3308 1.391 . S
C3309 C3313 1.376 . S
C3310 C3308 1.394 . S
C3310 C3311 1.369 . S
C3310 C3314 1.531 . S
C3311 C3310 1.369 . S
C3311 C3312 1.410 . S
C3311 C3319 1.503 . S
C3312 C3311 1.410 . S
C3312 C3313 1.392 . S
C3312 C3315 1.511 . S
C3313 C3309 1.376 . S
C3313 C3312 1.392 . S
C3313 H3325 0.929 . S
C3314 C3310 1.531 . S
C3314 H3326 0.960 . S
C3314 H3327 0.962 . S
C3314 H3328 0.960 . S
C3315 C3312 1.511 . S
C3315 H3329 0.961 . S
C3315 H3330 0.961 . S
C3315 H3331 0.961 . S
C3316 C3317 1.370 . S
C3316 C3318 1.363 . S
C3316 H3332 0.931 . S
C3317 C3316 1.370 . S
C3317 C3321 1.408 . S
C3318 C3316 1.363 . S
C3318 C3319 1.370 . S
C3318 C3322 1.524 . S
C3319 C3311 1.503 . S
C3319 C3318 1.370 . S
C3319 C3320 1.403 . S
C3320 C3319 1.403 . S
C3320 C3321 1.404 . S
C3320 C3323 1.539 . S
C3321 C3317 1.408 . S
C3321 C3320 1.404 . S
C3321 H3333 0.930 . S
C3322 C3318 1.524 . S
C3322 H3334 0.956 . S
C3322 H3335 0.961 . S
C3322 H3336 0.961 . S
C3323 C3320 1.539 . S
C3323 H3337 0.958 . S
C3323 H3338 0.961 . S
C3323 H3339 0.960 . S
H3324 C3308 0.931 . S
H3325 C3313 0.929 . S
H3326 C3314 0.960 . S
H3327 C3314 0.962 . S
H3328 C3314 0.960 . S
H3329 C3315 0.961 . S
H3330 C3315 0.961 . S
H3331 C3315 0.961 . S
H3332 C3316 0.931 . S
H3333 C3321 0.930 . S
H3334 C3322 0.956 . S
H3335 C3322 0.961 . S
H3336 C3322 0.961 . S
H3337 C3323 0.958 . S
H3338 C3323 0.961 . S
H3339 C3323 0.960 . S
C3340 C3341 1.391 . S
C3340 C3342 1.394 . S
C3340 H3356 0.931 . S
C3341 C3340 1.391 . S
C3341 C3345 1.376 . S
C3342 C3340 1.394 . S
C3342 C3343 1.369 . S
C3342 C3346 1.531 . S
C3343 C3342 1.369 . S
C3343 C3344 1.410 . S
C3343 C3351 1.503 . S
C3344 C3343 1.410 . S
C3344 C3345 1.392 . S
C3344 C3347 1.511 . S
C3345 C3341 1.376 . S
C3345 C3344 1.392 . S
C3345 H3357 0.929 . S
C3346 C3342 1.531 . S
C3346 H3358 0.960 . S
C3346 H3359 0.962 . S
C3346 H3360 0.960 . S
C3347 C3344 1.511 . S
C3347 H3361 0.961 . S
C3347 H3362 0.961 . S
C3347 H3363 0.961 . S
C3348 C3349 1.370 . S
C3348 C3350 1.363 . S
C3348 H3364 0.931 . S
C3349 C3348 1.370 . S
C3349 C3353 1.408 . S
C3350 C3348 1.363 . S
C3350 C3351 1.370 . S
C3350 C3354 1.524 . S
C3351 C3343 1.503 . S
C3351 C3350 1.370 . S
C3351 C3352 1.403 . S
C3352 C3351 1.403 . S
C3352 C3353 1.404 . S
C3352 C3355 1.539 . S
C3353 C3349 1.408 . S
C3353 C3352 1.404 . S
C3353 H3365 0.930 . S
C3354 C3350 1.524 . S
C3354 H3366 0.956 . S
C3354 H3367 0.961 . S
C3354 H3368 0.961 . S
C3355 C3352 1.539 . S
C3355 H3369 0.958 . S
C3355 H3370 0.961 . S
C3355 H3371 0.960 . S
H3356 C3340 0.931 . S
H3357 C3345 0.929 . S
H3358 C3346 0.960 . S
H3359 C3346 0.962 . S
H3360 C3346 0.960 . S
H3361 C3347 0.961 . S
H3362 C3347 0.961 . S
H3363 C3347 0.961 . S
H3364 C3348 0.931 . S
H3365 C3353 0.930 . S
H3366 C3354 0.956 . S
H3367 C3354 0.961 . S
H3368 C3354 0.961 . S
H3369 C3355 0.958 . S
H3370 C3355 0.961 . S
H3371 C3355 0.960 . S
C3372 C3373 1.391 . S
C3372 C3374 1.394 . S
C3372 H3388 0.931 . S
C3373 C3372 1.391 . S
C3373 C3377 1.376 . S
C3374 C3372 1.394 . S
C3374 C3375 1.369 . S
C3374 C3378 1.531 . S
C3375 C3374 1.369 . S
C3375 C3376 1.410 . S
C3375 C3383 1.503 . S
C3376 C3375 1.410 . S
C3376 C3377 1.392 . S
C3376 C3379 1.511 . S
C3377 C3373 1.376 . S
C3377 C3376 1.392 . S
C3377 H3389 0.929 . S
C3378 C3374 1.531 . S
C3378 H3390 0.960 . S
C3378 H3391 0.962 . S
C3378 H3392 0.960 . S
C3379 C3376 1.511 . S
C3379 H3393 0.961 . S
C3379 H3394 0.961 . S
C3379 H3395 0.961 . S
C3380 C3381 1.370 . S
C3380 C3382 1.363 . S
C3380 H3396 0.931 . S
C3381 C3380 1.370 . S
C3381 C3385 1.408 . S
C3382 C3380 1.363 . S
C3382 C3383 1.370 . S
C3382 C3386 1.524 . S
C3383 C3375 1.503 . S
C3383 C3382 1.370 . S
C3383 C3384 1.403 . S
C3384 C3383 1.403 . S
C3384 C3385 1.404 . S
C3384 C3387 1.539 . S
C3385 C3381 1.408 . S
C3385 C3384 1.404 . S
C3385 H3397 0.930 . S
C3386 C3382 1.524 . S
C3386 H3398 0.956 . S
C3386 H3399 0.961 . S
C3386 H3400 0.961 . S
C3387 C3384 1.539 . S
C3387 H3401 0.958 . S
C3387 H3402 0.961 . S
C3387 H3403 0.960 . S
H3388 C3372 0.931 . S
H3389 C3377 0.929 . S
H3390 C3378 0.960 . S
H3391 C3378 0.962 . S
H3392 C3378 0.960 . S
H3393 C3379 0.961 . S
H3394 C3379 0.961 . S
H3395 C3379 0.961 . S
H3396 C3380 0.931 . S
H3397 C3385 0.930 . S
H3398 C3386 0.956 . S
H3399 C3386 0.961 . S
H3400 C3386 0.961 . S
H3401 C3387 0.958 . S
H3402 C3387 0.961 . S
H3403 C3387 0.960 . S
C3404 C3405 1.391 . S
C3404 C3406 1.394 . S
C3404 H3420 0.931 . S
C3405 C3404 1.391 . S
C3405 C3409 1.376 . S
C3406 C3404 1.394 . S
C3406 C3407 1.369 . S
C3406 C3410 1.531 . S
C3407 C3406 1.369 . S
C3407 C3408 1.410 . S
C3407 C3415 1.503 . S
C3408 C3407 1.410 . S
C3408 C3409 1.392 . S
C3408 C3411 1.511 . S
C3409 C3405 1.376 . S
C3409 C3408 1.392 . S
C3409 H3421 0.929 . S
C3410 C3406 1.531 . S
C3410 H3422 0.960 . S
C3410 H3423 0.962 . S
C3410 H3424 0.960 . S
C3411 C3408 1.511 . S
C3411 H3425 0.961 . S
C3411 H3426 0.961 . S
C3411 H3427 0.961 . S
C3412 C3413 1.370 . S
C3412 C3414 1.363 . S
C3412 H3428 0.931 . S
C3413 C3412 1.370 . S
C3413 C3417 1.408 . S
C3414 C3412 1.363 . S
C3414 C3415 1.370 . S
C3414 C3418 1.524 . S
C3415 C3407 1.503 . S
C3415 C3414 1.370 . S
C3415 C3416 1.403 . S
C3416 C3415 1.403 . S
C3416 C3417 1.404 . S
C3416 C3419 1.539 . S
C3417 C3413 1.408 . S
C3417 C3416 1.404 . S
C3417 H3429 0.930 . S
C3418 C3414 1.524 . S
C3418 H3430 0.956 . S
C3418 H3431 0.961 . S
C3418 H3432 0.961 . S
C3419 C3416 1.539 . S
C3419 H3433 0.958 . S
C3419 H3434 0.961 . S
C3419 H3435 0.960 . S
H3420 C3404 0.931 . S
H3421 C3409 0.929 . S
H3422 C3410 0.960 . S
H3423 C3410 0.962 . S
H3424 C3410 0.960 . S
H3425 C3411 0.961 . S
H3426 C3411 0.961 . S
H3427 C3411 0.961 . S
H3428 C3412 0.931 . S
H3429 C3417 0.930 . S
H3430 C3418 0.956 . S
H3431 C3418 0.961 . S
H3432 C3418 0.961 . S
H3433 C3419 0.958 . S
H3434 C3419 0.961 . S
H3435 C3419 0.960 . S
C3436 C3437 1.391 . S
C3436 C3438 1.394 . S
C3436 H3452 0.931 . S
C3437 C3436 1.391 . S
C3437 C3441 1.376 . S
C3438 C3436 1.394 . S
C3438 C3439 1.369 . S
C3438 C3442 1.531 . S
C3439 C3438 1.369 . S
C3439 C3440 1.410 . S
C3439 C3447 1.503 . S
C3440 C3439 1.410 . S
C3440 C3441 1.392 . S
C3440 C3443 1.511 . S
C3441 C3437 1.376 . S
C3441 C3440 1.392 . S
C3441 H3453 0.929 . S
C3442 C3438 1.531 . S
C3442 H3454 0.960 . S
C3442 H3455 0.962 . S
C3442 H3456 0.960 . S
C3443 C3440 1.511 . S
C3443 H3457 0.961 . S
C3443 H3458 0.961 . S
C3443 H3459 0.961 . S
C3444 C3445 1.370 . S
C3444 C3446 1.363 . S
C3444 H3460 0.931 . S
C3445 C3444 1.370 . S
C3445 C3449 1.408 . S
C3446 C3444 1.363 . S
C3446 C3447 1.370 . S
C3446 C3450 1.524 . S
C3447 C3439 1.503 . S
C3447 C3446 1.370 . S
C3447 C3448 1.403 . S
C3448 C3447 1.403 . S
C3448 C3449 1.404 . S
C3448 C3451 1.539 . S
C3449 C3445 1.408 . S
C3449 C3448 1.404 . S
C3449 H3461 0.930 . S
C3450 C3446 1.524 . S
C3450 H3462 0.956 . S
C3450 H3463 0.961 . S
C3450 H3464 0.961 . S
C3451 C3448 1.539 . S
C3451 H3465 0.958 . S
C3451 H3466 0.961 . S
C3451 H3467 0.960 . S
H3452 C3436 0.931 . S
H3453 C3441 0.929 . S
H3454 C3442 0.960 . S
H3455 C3442 0.962 . S
H3456 C3442 0.960 . S
H3457 C3443 0.961 . S
H3458 C3443 0.961 . S
H3459 C3443 0.961 . S
H3460 C3444 0.931 . S
H3461 C3449 0.930 . S
H3462 C3450 0.956 . S
H3463 C3450 0.961 . S
H3464 C3450 0.961 . S
H3465 C3451 0.958 . S
H3466 C3451 0.961 . S
H3467 C3451 0.960 . S
C3468 C3469 1.391 . S
C3468 C3470 1.394 . S
C3468 H3484 0.931 . S
C3469 C3468 1.391 . S
C3469 C3473 1.376 . S
C3470 C3468 1.394 . S
C3470 C3471 1.369 . S
C3470 C3474 1.531 . S
C3471 C3470 1.369 . S
C3471 C3472 1.410 . S
C3471 C3479 1.503 . S
C3472 C3471 1.410 . S
C3472 C3473 1.392 . S
C3472 C3475 1.511 . S
C3473 C3469 1.376 . S
C3473 C3472 1.392 . S
C3473 H3485 0.929 . S
C3474 C3470 1.531 . S
C3474 H3486 0.960 . S
C3474 H3487 0.962 . S
C3474 H3488 0.960 . S
C3475 C3472 1.511 . S
C3475 H3489 0.961 . S
C3475 H3490 0.961 . S
C3475 H3491 0.961 . S
C3476 C3477 1.370 . S
C3476 C3478 1.363 . S
C3476 H3492 0.931 . S
C3477 C3476 1.370 . S
C3477 C3481 1.408 . S
C3478 C3476 1.363 . S
C3478 C3479 1.370 . S
C3478 C3482 1.524 . S
C3479 C3471 1.503 . S
C3479 C3478 1.370 . S
C3479 C3480 1.403 . S
C3480 C3479 1.403 . S
C3480 C3481 1.404 . S
C3480 C3483 1.539 . S
C3481 C3477 1.408 . S
C3481 C3480 1.404 . S
C3481 H3493 0.930 . S
C3482 C3478 1.524 . S
C3482 H3494 0.956 . S
C3482 H3495 0.961 . S
C3482 H3496 0.961 . S
C3483 C3480 1.539 . S
C3483 H3497 0.958 . S
C3483 H3498 0.961 . S
C3483 H3499 0.960 . S
H3484 C3468 0.931 . S
H3485 C3473 0.929 . S
H3486 C3474 0.960 . S
H3487 C3474 0.962 . S
H3488 C3474 0.960 . S
H3489 C3475 0.961 . S
H3490 C3475 0.961 . S
H3491 C3475 0.961 . S
H3492 C3476 0.931 . S
H3493 C3481 0.930 . S
H3494 C3482 0.956 . S
H3495 C3482 0.961 . S
H3496 C3482 0.961 . S
H3497 C3483 0.958 . S
H3498 C3483 0.961 . S
H3499 C3483 0.960 . S
C3500 C3501 1.391 . S
C3500 C3502 1.394 . S
C3500 H3516 0.931 . S
C3501 C3500 1.391 . S
C3501 C3505 1.376 . S
C3502 C3500 1.394 . S
C3502 C3503 1.369 . S
C3502 C3506 1.531 . S
C3503 C3502 1.369 . S
C3503 C3504 1.410 . S
C3503 C3511 1.503 . S
C3504 C3503 1.410 . S
C3504 C3505 1.392 . S
C3504 C3507 1.511 . S
C3505 C3501 1.376 . S
C3505 C3504 1.392 . S
C3505 H3517 0.929 . S
C3506 C3502 1.531 . S
C3506 H3518 0.960 . S
C3506 H3519 0.962 . S
C3506 H3520 0.960 . S
C3507 C3504 1.511 . S
C3507 H3521 0.961 . S
C3507 H3522 0.961 . S
C3507 H3523 0.961 . S
C3508 C3509 1.370 . S
C3508 C3510 1.363 . S
C3508 H3524 0.931 . S
C3509 C3508 1.370 . S
C3509 C3513 1.408 . S
C3510 C3508 1.363 . S
C3510 C3511 1.370 . S
C3510 C3514 1.524 . S
C3511 C3503 1.503 . S
C3511 C3510 1.370 . S
C3511 C3512 1.403 . S
C3512 C3511 1.403 . S
C3512 C3513 1.404 . S
C3512 C3515 1.539 . S
C3513 C3509 1.408 . S
C3513 C3512 1.404 . S
C3513 H3525 0.930 . S
C3514 C3510 1.524 . S
C3514 H3526 0.956 . S
C3514 H3527 0.961 . S
C3514 H3528 0.961 . S
C3515 C3512 1.539 . S
C3515 H3529 0.958 . S
C3515 H3530 0.961 . S
C3515 H3531 0.960 . S
H3516 C3500 0.931 . S
H3517 C3505 0.929 . S
H3518 C3506 0.960 . S
H3519 C3506 0.962 . S
H3520 C3506 0.960 . S
H3521 C3507 0.961 . S
H3522 C3507 0.961 . S
H3523 C3507 0.961 . S
H3524 C3508 0.931 . S
H3525 C3513 0.930 . S
H3526 C3514 0.956 . S
H3527 C3514 0.961 . S
H3528 C3514 0.961 . S
H3529 C3515 0.958 . S
H3530 C3515 0.961 . S
H3531 C3515 0.960 . S
C3532 C3533 1.391 . S
C3532 C3534 1.394 . S
C3532 H3548 0.931 . S
C3533 C3532 1.391 . S
C3533 C3537 1.376 . S
C3534 C3532 1.394 . S
C3534 C3535 1.369 . S
C3534 C3538 1.531 . S
C3535 C3534 1.369 . S
C3535 C3536 1.410 . S
C3535 C3543 1.503 . S
C3536 C3535 1.410 . S
C3536 C3537 1.392 . S
C3536 C3539 1.511 . S
C3537 C3533 1.376 . S
C3537 C3536 1.392 . S
C3537 H3549 0.929 . S
C3538 C3534 1.531 . S
C3538 H3550 0.960 . S
C3538 H3551 0.962 . S
C3538 H3552 0.960 . S
C3539 C3536 1.511 . S
C3539 H3553 0.961 . S
C3539 H3554 0.961 . S
C3539 H3555 0.961 . S
C3540 C3541 1.370 . S
C3540 C3542 1.363 . S
C3540 H3556 0.931 . S
C3541 C3540 1.370 . S
C3541 C3545 1.408 . S
C3542 C3540 1.363 . S
C3542 C3543 1.370 . S
C3542 C3546 1.524 . S
C3543 C3535 1.503 . S
C3543 C3542 1.370 . S
C3543 C3544 1.403 . S
C3544 C3543 1.403 . S
C3544 C3545 1.404 . S
C3544 C3547 1.539 . S
C3545 C3541 1.408 . S
C3545 C3544 1.404 . S
C3545 H3557 0.930 . S
C3546 C3542 1.524 . S
C3546 H3558 0.956 . S
C3546 H3559 0.961 . S
C3546 H3560 0.961 . S
C3547 C3544 1.539 . S
C3547 H3561 0.958 . S
C3547 H3562 0.961 . S
C3547 H3563 0.960 . S
H3548 C3532 0.931 . S
H3549 C3537 0.929 . S
H3550 C3538 0.960 . S
H3551 C3538 0.962 . S
H3552 C3538 0.960 . S
H3553 C3539 0.961 . S
H3554 C3539 0.961 . S
H3555 C3539 0.961 . S
H3556 C3540 0.931 . S
H3557 C3545 0.930 . S
H3558 C3546 0.956 . S
H3559 C3546 0.961 . S
H3560 C3546 0.961 . S
H3561 C3547 0.958 . S
H3562 C3547 0.961 . S
H3563 C3547 0.960 . S
C1837 C781 1.400 . S
C1845 C1136 1.349 . S
C1869 C871 1.408 . S
C1877 C1220 1.403 . S
C1901 C751 1.439 . S
C1909 C1314 1.439 . S
C1933 C691 1.404 . S
C1941 C1230 1.382 . S
C1973 C1304 1.340 . S
C1965 C571 1.362 . S
C1997 C601 1.375 . S
C2005 C1146 1.367 . S
C2037 C1147 1.348 . S
C2029 C661 1.369 . S
C2069 C1231 1.404 . S
C2061 C541 1.451 . S
C2093 C631 1.483 . S
C2101 C1323 1.428 . S
C2125 C811 1.437 . S
C2133 C1239 1.395 . S
C2157 C841 1.366 . S
C2165 C1315 1.341 . S
C2197 C1155 1.359 . S
C2189 C721 1.374 . S
C2229 C1388 1.355 . S
C2221 C61 1.403 . S
C2253 C151 1.455 . S
C2261 C1472 1.375 . S
C2285 C31 1.458 . S
C2293 C1566 1.416 . S
C2317 C1051 1.417 . S
C2325 C1482 1.379 . S
C2349 C931 1.371 . S
C2357 C1556 1.320 . S
C2381 C961 1.416 . S
C2389 C1398 1.362 . S
C2413 C1021 1.425 . S
C2421 C1399 1.378 . S
C2445 C901 1.449 . S
C2453 C1483 1.404 . S
C2485 C1575 1.421 . S
C2477 C991 1.481 . S
C2509 C91 1.426 . S
C2517 C1491 1.405 . S
C2549 C1567 1.315 . S
C2541 C121 1.366 . S
C2573 C1 1.352 . S
C2581 C1407 1.365 . S
C2613 C1640 1.360 . S
C2605 C421 1.408 . S
C2637 C511 1.416 . S
C2645 C1724 1.396 . S
C2677 C1818 1.443 . S
C2669 C391 1.416 . S
C2709 C1734 1.403 . S
C2701 C331 1.374 . S
C2741 C1808 1.333 . S
C2733 C211 1.353 . S
C2765 C241 1.374 . S
C2773 C1650 1.377 . S
C2797 C301 1.366 . S
C2805 C1651 1.357 . S
C2829 C181 1.450 . S
C2837 C1735 1.400 . S
C2869 C1827 1.443 . S
C2861 C271 1.464 . S
C2893 C451 1.411 . S
C2901 C1743 1.400 . S
C2925 C481 1.341 . S
C2933 C1819 1.326 . S
C2957 C361 1.341 . S
C2965 C1659 1.370 . S
C2989 C920 1.406 . S
C2997 C1143 1.345 . S
C3029 C1227 1.373 . S
C3021 C980 1.498 . S
C3053 C1040 1.426 . S
C3061 C1320 1.348 . S
C3085 C380 1.486 . S
C3093 C1236 1.364 . S
C3117 C440 1.469 . S
C3125 C1311 1.349 . S
C3157 C1152 1.356 . S
C3149 C500 1.409 . S
C3181 C200 1.445 . S
C3189 C1395 1.328 . S
C3213 C260 1.493 . S
C3221 C1479 1.378 . S
C3245 C320 1.461 . S
C3253 C1572 1.342 . S
C3277 C740 1.452 . S
C3285 C1488 1.369 . S
C3317 C1563 1.361 . S
C3309 C800 1.457 . S
C3341 C860 1.443 . S
C3349 C1404 1.316 . S
C3373 C560 1.445 . S
C3381 C1647 1.329 . S
C3405 C620 1.495 . S
C3413 C1731 1.342 . S
C3445 C1824 1.349 . S
C3437 C680 1.425 . S
C3469 C20 1.492 . S
C3477 C1740 1.355 . S
C3501 C80 1.448 . S
C3509 C1815 1.322 . S
C3533 C140 1.411 . S
C3541 C1656 1.337 . S
