# Generated by pormake.
# Topology pyr, (3,6)-cn, num edge types: 1
# Building blocks:
#     Node 0, Type 0, BuildingBlock: QEWDON_clean_linker_0, # of connection points: 3
#     Node 1, Type 0, BuildingBlock: QEWDON_clean_linker_0, # of connection points: 3
#     Node 2, Type 0, BuildingBlock: QEWDON_clean_linker_0, # of connection points: 3
#     Node 3, Type 0, BuildingBlock: QEWDON_clean_linker_0, # of connection points: 3
#     Node 4, Type 0, BuildingBlock: QEWDON_clean_linker_0, # of connection points: 3
#     Node 5, Type 0, BuildingBlock: QEWDON_clean_linker_0, # of connection points: 3
#     Node 6, Type 0, BuildingBlock: QEWDON_clean_linker_0, # of connection points: 3
#     Node 7, Type 0, BuildingBlock: QEWDON_clean_linker_0, # of connection points: 3
#     Node 8, Type 1, BuildingBlock: JUFBIX_clean_sbu_0, # of connection points: 6
#     Node 9, Type 1, BuildingBlock: JUFBIX_clean_sbu_0, # of connection points: 6
#     Node 10, Type 1, BuildingBlock: JUFBIX_clean_sbu_0, # of connection points: 6
#     Node 11, Type 1, BuildingBlock: JUFBIX_clean_sbu_0, # of connection points: 6
#     Edge 12, Type (0, 1), BuildingBlock: AJUNOK_clean_linker_0, # of connection points: 2
#     Edge 13, Type (0, 1), BuildingBlock: AJUNOK_clean_linker_0, # of connection points: 2
#     Edge 14, Type (0, 1), BuildingBlock: AJUNOK_clean_linker_0, # of connection points: 2
#     Edge 15, Type (0, 1), BuildingBlock: AJUNOK_clean_linker_0, # of connection points: 2
#     Edge 16, Type (0, 1), BuildingBlock: AJUNOK_clean_linker_0, # of connection points: 2
#     Edge 17, Type (0, 1), BuildingBlock: AJUNOK_clean_linker_0, # of connection points: 2
#     Edge 18, Type (0, 1), BuildingBlock: AJUNOK_clean_linker_0, # of connection points: 2
#     Edge 19, Type (0, 1), BuildingBlock: AJUNOK_clean_linker_0, # of connection points: 2
#     Edge 20, Type (0, 1), BuildingBlock: AJUNOK_clean_linker_0, # of connection points: 2
#     Edge 21, Type (0, 1), BuildingBlock: AJUNOK_clean_linker_0, # of connection points: 2
#     Edge 22, Type (0, 1), BuildingBlock: AJUNOK_clean_linker_0, # of connection points: 2
#     Edge 23, Type (0, 1), BuildingBlock: AJUNOK_clean_linker_0, # of connection points: 2
#     Edge 24, Type (0, 1), BuildingBlock: AJUNOK_clean_linker_0, # of connection points: 2
#     Edge 25, Type (0, 1), BuildingBlock: AJUNOK_clean_linker_0, # of connection points: 2
#     Edge 26, Type (0, 1), BuildingBlock: AJUNOK_clean_linker_0, # of connection points: 2
#     Edge 27, Type (0, 1), BuildingBlock: AJUNOK_clean_linker_0, # of connection points: 2
#     Edge 28, Type (0, 1), BuildingBlock: AJUNOK_clean_linker_0, # of connection points: 2
#     Edge 29, Type (0, 1), BuildingBlock: AJUNOK_clean_linker_0, # of connection points: 2
#     Edge 30, Type (0, 1), BuildingBlock: AJUNOK_clean_linker_0, # of connection points: 2
#     Edge 31, Type (0, 1), BuildingBlock: AJUNOK_clean_linker_0, # of connection points: 2
#     Edge 32, Type (0, 1), BuildingBlock: AJUNOK_clean_linker_0, # of connection points: 2
#     Edge 33, Type (0, 1), BuildingBlock: AJUNOK_clean_linker_0, # of connection points: 2
#     Edge 34, Type (0, 1), BuildingBlock: AJUNOK_clean_linker_0, # of connection points: 2
#     Edge 35, Type (0, 1), BuildingBlock: AJUNOK_clean_linker_0, # of connection points: 2
# Relax obj value: 0.217
# Max RMSD: 0.295
# Mean RMSD: 0.182
data_MOF--net-pry--node1-JUFBIX_clean_sbu_0--node2-QEWDON_clean_linker_0--edge1-AJUNOK_clean_linker_0
_symmetry_space_group_name_H-M    P1
_symmetry_Int_Tables_number       1
_symmetry_cell_setting            triclinic
loop_
_symmetry_equiv_pos_as_xyz
'x, y, z'
_cell_length_a     27.328879
_cell_length_b     25.902619
_cell_length_c     29.079262
_cell_angle_alpha  81.738457
_cell_angle_beta   87.665536
_cell_angle_gamma 98.928021
loop_
_atom_site_label
_atom_site_type_symbol
_atom_site_fract_x
_atom_site_fract_y
_atom_site_fract_z
_atom_type_partial_charge
H0 H 0.34397 0.24437 0.18569 0.0
C1 C 0.32078 0.22241 0.21544 0.0
C2 C 0.33115 0.17278 0.23564 0.0
C3 C 0.28307 0.24593 0.23459 0.0
H4 H 0.30928 0.10798 0.29238 0.0
C5 C 0.30187 0.1461 0.27623 0.0
C6 C 0.26255 0.16818 0.29564 0.0
C7 C 0.25397 0.21832 0.27416 0.0
C8 C 0.28125 0.30312 0.21846 0.0
H9 H 0.22661 0.23761 0.28998 0.0
C10 C 0.23914 0.32204 0.19923 0.0
C11 C 0.24104 0.37698 0.18367 0.0
C12 C 0.32394 0.33973 0.22255 0.0
H13 H 0.35643 0.32652 0.2374 0.0
C14 C 0.32535 0.39359 0.20803 0.0
H15 H 0.20596 0.29446 0.19554 0.0
C16 C 0.28442 0.41205 0.18865 0.0
H17 H 0.2867 0.45411 0.17717 0.0
H18 H 0.35853 0.4212 0.21158 0.0
H19 H 0.39466 0.84682 0.88546 0.0
C20 C 0.41699 0.8315 0.86051 0.0
C21 C 0.4676 0.85211 0.85195 0.0
C22 C 0.39386 0.79485 0.83436 0.0
H23 H 0.53415 0.85248 0.80867 0.0
C24 C 0.49539 0.83549 0.81646 0.0
C25 C 0.47213 0.79798 0.79021 0.0
C26 C 0.42158 0.77728 0.80022 0.0
C27 C 0.3398 0.78743 0.83272 0.0
H28 H 0.4028 0.74977 0.77931 0.0
C29 C 0.31969 0.82699 0.80577 0.0
C30 C 0.26918 0.82027 0.79801 0.0
C31 C 0.30904 0.74085 0.85333 0.0
H32 H 0.32437 0.70964 0.87389 0.0
C33 C 0.25815 0.73426 0.84653 0.0
H34 H 0.3442 0.86213 0.7886 0.0
C35 C 0.2382 0.77347 0.81841 0.0
H36 H 0.19905 0.76715 0.81227 0.0
H37 H 0.23448 0.69823 0.86224 0.0
H38 H 0.80796 0.50918 0.95586 0.0
C39 C 0.78897 0.46914 0.96755 0.0
C40 C 0.81499 0.43153 0.99027 0.0
C41 C 0.73819 0.4566 0.96185 0.0
H42 H 0.8093 0.35154 1.02603 0.0
C43 C 0.78949 0.3804 1.00756 0.0
C44 C 0.73848 0.36663 1.00077 0.0
C45 C 0.71318 0.40532 0.97785 0.0
C46 C 0.71113 0.49904 0.94276 0.0
H47 H 0.67356 0.39632 0.97427 0.0
C48 C 0.69184 0.49993 0.89866 0.0
C49 C 0.67114 0.54376 0.87897 0.0
C50 C 0.70809 0.54127 0.96755 0.0
H51 H 0.72303 0.54125 1.0015 0.0
C52 C 0.68636 0.58409 0.94847 0.0
H53 H 0.69487 0.46792 0.87898 0.0
C54 C 0.66831 0.58562 0.9042 0.0
H55 H 0.65237 0.61961 0.88944 0.0
H56 H 0.68423 0.61656 0.96771 0.0
H57 H 0.99961 0.78413 0.39744 0.0
C58 C 0.97869 0.7588 0.42694 0.0
C59 C 0.9944 0.76028 0.47239 0.0
C60 C 0.93209 0.7315 0.42007 0.0
H61 H 0.97316 0.73285 0.54557 0.0
C62 C 0.96484 0.72861 0.51008 0.0
C63 C 0.91975 0.69784 0.50253 0.0
C64 C 0.90436 0.69868 0.45711 0.0
C65 C 0.90658 0.74694 0.37809 0.0
H66 H 0.86725 0.67981 0.45133 0.0
C67 C 0.90365 0.71575 0.34292 0.0
C68 C 0.87608 0.72779 0.30424 0.0
C69 C 0.88133 0.79045 0.37517 0.0
H70 H 0.88266 0.81455 0.40277 0.0
C71 C 0.85346 0.80244 0.33694 0.0
H72 H 0.92388 0.68268 0.34533 0.0
C73 C 0.85084 0.77127 0.30138 0.0
H74 H 0.82972 0.78132 0.2716 0.0
H75 H 0.834 0.83596 0.33482 0.0
H76 H 0.89956 0.85176 0.95035 0.0
C77 C 0.91861 0.87146 0.91764 0.0
C78 C 0.96256 0.85485 0.9015 0.0
C79 C 0.89674 0.91019 0.88997 0.0
H80 H 1.0185 0.86731 0.84439 0.0
C81 C 0.98507 0.8795 0.85714 0.0
C82 C 0.96437 0.91859 0.82848 0.0
C83 C 0.92051 0.93354 0.84592 0.0
C84 C 0.84454 0.91927 0.90146 0.0
H85 H 0.90374 0.96293 0.82446 0.0
C86 C 0.82767 0.93466 0.94403 0.0
C87 C 0.77736 0.94283 0.9508 0.0
C88 C 0.81035 0.91201 0.86714 0.0
H89 H 0.82133 0.89957 0.83477 0.0
C90 C 0.76167 0.92024 0.87368 0.0
H91 H 0.85309 0.94032 0.97114 0.0
C92 C 0.74544 0.93564 0.91474 0.0
H93 H 0.70731 0.94211 0.91834 0.0
H94 H 0.73621 0.91464 0.84659 0.0
H95 H 0.75938 0.23023 0.53714 0.0
C96 C 0.7441 0.22527 0.50392 0.0
C97 C 0.77173 0.2062 0.47019 0.0
C98 C 0.69612 0.23635 0.49557 0.0
H99 H 0.77055 0.18012 0.40311 0.0
C100 C 0.75074 0.19794 0.42813 0.0
C101 C 0.70257 0.20734 0.41972 0.0
C102 C 0.67542 0.22723 0.45335 0.0
C103 C 0.66534 0.24991 0.53373 0.0
H104 H 0.6375 0.23288 0.44775 0.0
C105 C 0.64828 0.29891 0.53033 0.0
C106 C 0.61934 0.31064 0.56763 0.0
C107 C 0.65327 0.21295 0.57442 0.0
H108 H 0.66601 0.17508 0.57764 0.0
C109 C 0.62448 0.22431 0.61116 0.0
H110 H 0.65781 0.32779 0.49915 0.0
C111 C 0.60774 0.27279 0.60793 0.0
H112 H 0.58644 0.28114 0.63744 0.0
H113 H 0.61545 0.1956 0.64244 0.0
H114 H 0.44231 0.74424 0.26313 0.0
C115 C 0.41205 0.73526 0.2412 0.0
C116 C 0.40678 0.7714 0.20125 0.0
C117 C 0.37862 0.68748 0.25282 0.0
H118 H 0.36311 0.78644 0.14174 0.0
C119 C 0.3674 0.75918 0.1727 0.0
C120 C 0.33267 0.71274 0.18426 0.0
C121 C 0.33824 0.67755 0.2246 0.0
C122 C 0.38686 0.64654 0.29263 0.0
H123 H 0.311 0.64199 0.23371 0.0
C124 C 0.40699 0.65991 0.33452 0.0
C125 C 0.4139 0.61983 0.37113 0.0
C126 C 0.37523 0.59264 0.28811 0.0
H127 H 0.36155 0.58052 0.25625 0.0
C128 C 0.38194 0.5533 0.32416 0.0
H129 H 0.41622 0.70094 0.33917 0.0
C130 C 0.40085 0.56665 0.36534 0.0
H131 H 0.40609 0.53517 0.39263 0.0
H132 H 0.37273 0.51211 0.32001 0.0
H133 H 0.14357 0.45229 0.70019 0.0
C134 C 0.13629 0.42439 0.67611 0.0
C135 C 0.17752 0.41438 0.65099 0.0
C136 C 0.08827 0.39582 0.67308 0.0
H137 H 0.20482 0.36494 0.60621 0.0
C138 C 0.17215 0.37484 0.6232 0.0
C139 C 0.12595 0.34377 0.62172 0.0
C140 C 0.08376 0.35595 0.64442 0.0
C141 C 0.0459 0.40203 0.70552 0.0
H142 H 0.04847 0.33144 0.64212 0.0
C143 C 0.05018 0.44572 0.72973 0.0
C144 C 1.02241 0.44316 0.77157 0.0
C145 C 1.0049 0.36114 0.71868 0.0
H146 H 0.9986 0.32653 0.70169 0.0
C147 C 0.97255 0.36238 0.75692 0.0
H148 H 0.07889 0.47965 0.71967 0.0
C149 C 0.9825 0.40204 0.7846 0.0
H150 H 0.96086 0.39928 0.81717 0.0
H151 H 0.94204 0.33021 0.76725 0.0
Co152 Co 0.06228 0.04812 0.54083 0.0
C153 C 0.08404 0.95041 0.53127 0.0
Co154 Co 0.13369 0.03445 0.56792 0.0
C155 C 0.97155 0.09154 0.52518 0.0
C156 C 0.99278 0.05077 0.47035 0.0
N157 N 1.005 0.06183 0.51277 0.0
N158 N 0.93985 0.10021 0.49164 0.0
C159 C 0.95283 0.07439 0.45725 0.0
H160 H 0.97227 0.10912 0.5568 0.0
H161 H 1.01322 0.02917 0.44924 0.0
C162 C 0.11086 0.13388 0.57348 0.0
N163 N 0.18974 0.02024 0.5966 0.0
C164 C 0.19048 0.97529 0.62604 0.0
C165 C 0.23272 0.05177 0.6016 0.0
N166 N 0.23123 0.97768 0.65032 0.0
C167 C 0.25843 0.02555 0.63492 0.0
C168 C 0.14805 0.07665 0.47472 0.0
O169 O 0.07189 0.11516 0.55585 0.0
O170 O 0.14369 0.10479 0.58323 0.0
O171 O 0.17117 0.06001 0.50954 0.0
O172 O 0.10114 0.07513 0.48086 0.0
O173 O 0.12319 0.96448 0.55137 0.0
H174 H 0.24318 0.09211 0.58435 0.0
H175 H 0.15966 0.94285 0.63239 0.0
O176 O 0.05248 0.9812 0.52491 0.0
O177 O 1.02473 0.02082 0.60169 0.0
O178 O 0.09672 0.00909 0.62684 0.0
C179 C 0.05037 0.00589 0.63552 0.0
H180 H 0.93548 0.07399 0.42446 0.0
H181 H 0.2934 0.04112 0.64787 0.0
Co182 Co 0.55969 0.06583 0.07966 0.0
C183 C 0.53442 0.97419 0.14408 0.0
Co184 Co 0.59936 0.06748 0.14385 0.0
C185 C 0.52983 0.01433 1.0043 0.0
C186 C 0.51266 0.09269 0.99228 0.0
N187 N 0.53104 0.0586 1.02386 0.0
N188 N 0.51196 0.01898 0.96177 0.0
C189 C 0.50069 0.06827 0.95394 0.0
H190 H 0.54335 0.97943 1.02056 0.0
H191 H 0.50905 0.13278 0.99647 0.0
C192 C 0.62452 0.15945 0.07823 0.0
N193 N 0.6284 0.07231 0.19978 0.0
C194 C 0.63112 0.11293 0.22452 0.0
C195 C 0.64543 0.0335 0.2275 0.0
N196 N 0.6483 0.1005 0.26677 0.0
C197 C 0.6575 0.0507 0.26888 0.0
C198 C 0.65309 0.02783 0.07806 0.0
O199 O 0.59382 0.13418 0.05448 0.0
O200 O 0.63141 0.13818 0.11927 0.0
O201 O 0.65611 0.03994 0.11894 0.0
O202 O 0.61457 0.03522 0.05664 0.0
O203 O 0.56723 0.99657 0.16767 0.0
H204 H 0.6473 0.99459 0.21882 0.0
H205 H 0.61871 0.15002 0.21265 0.0
O206 O 0.52544 0.99806 0.105 0.0
O207 O 0.5045 0.09593 0.10345 0.0
O208 O 0.54208 0.09427 0.16854 0.0
C209 C 0.5044 0.10335 0.14599 0.0
H210 H 0.48448 0.08527 0.92316 0.0
H211 H 0.67136 0.02828 0.29847 0.0
Co212 Co 0.58465 0.61921 0.60604 0.0
C213 C 0.50635 0.62326 0.54765 0.0
Co214 Co 0.51391 0.5768 0.63949 0.0
C215 C 0.68879 0.63734 0.58602 0.0
C216 C 0.65542 0.70247 0.55499 0.0
N217 N 0.64467 0.65326 0.5792 0.0
N218 N 0.72674 0.67502 0.56773 0.0
C219 C 0.70609 0.71603 0.54792 0.0
H220 H 0.69305 0.59976 0.60581 0.0
H221 H 0.62827 0.72746 0.54474 0.0
C222 C 0.59163 0.57249 0.69717 0.0
N223 N 0.45446 0.54414 0.66931 0.0
C224 C 0.41508 0.51713 0.65211 0.0
C225 C 0.43948 0.54769 0.71337 0.0
N226 N 0.37596 0.504 0.68367 0.0
C227 C 0.39115 0.5233 0.72222 0.0
C228 C 0.56461 0.51275 0.59419 0.0
O229 O 0.61601 0.59996 0.66166 0.0
O230 O 0.54566 0.55702 0.6948 0.0
O231 O 0.52484 0.51334 0.61827 0.0
O232 O 0.59595 0.55519 0.5845 0.0
O233 O 0.48203 0.59631 0.58377 0.0
H234 H 0.46156 0.56893 0.73683 0.0
H235 H 0.41467 0.5087 0.61672 0.0
O236 O 0.55269 0.63868 0.54971 0.0
O237 O 0.57431 0.68264 0.62864 0.0
O238 O 0.50321 0.6399 0.6611 0.0
C239 C 0.53501 0.68173 0.65357 0.0
H240 H 0.72628 0.75313 0.52977 0.0
H241 H 0.36823 0.52265 0.7536 0.0
Co242 Co 0.10313 0.59742 1.02072 0.0
C243 C 1.00543 0.54059 1.03126 0.0
Co244 Co 0.06142 0.60233 0.08501 0.0
C245 C 0.12319 0.55121 0.94215 0.0
C246 C 0.15352 0.63352 0.93058 0.0
N247 N 0.13447 0.59323 0.96432 0.0
N248 N 0.13095 0.56405 0.89566 0.0
C249 C 0.15073 0.61575 0.88814 0.0
H250 H 0.10222 0.51395 0.95911 0.0
H251 H 0.16208 0.67444 0.93565 0.0
C252 C 0.15908 0.6553 0.07923 0.0
N253 N 1.02807 0.60522 0.13983 0.0
C254 C 0.98338 0.62017 0.14465 0.0
C255 C 0.04145 0.59207 0.18352 0.0
N256 N 0.96839 0.61717 0.18959 0.0
C257 C 1.00465 0.59946 0.21432 0.0
C258 C 0.11629 0.51741 0.0917 0.0
O259 O 0.16183 0.63983 1.03954 0.0
O260 O 0.11746 0.64575 0.10243 0.0
O261 O 0.08746 0.54055 0.11416 0.0
O262 O 0.12725 0.5353 0.04885 0.0
O263 O 1.00541 0.55801 0.06963 0.0
H264 H 0.07623 0.57941 0.19235 0.0
H265 H 0.96267 0.63422 0.1158 0.0
O266 O 0.04394 0.55408 1.00365 0.0
O267 O 0.07895 0.65944 0.99175 0.0
O268 O 1.03542 0.66499 0.05467 0.0
C269 C 0.04823 0.6823 1.01187 0.0
H270 H 0.15742 0.64015 0.85431 0.0
H271 H 1.00573 0.59536 0.25184 0.0
C272 C 0.25514 0.12057 0.37942 0.0
C273 C 0.2321 0.14128 0.3399 0.0
C274 C 0.22784 0.09964 0.42227 0.0
C275 C 0.17589 0.09795 0.42796 0.0
H276 H 0.29499 0.12188 0.37771 0.0
H277 H 0.24797 0.08518 0.45143 0.0
S278 S 0.09659 0.14303 0.33435 0.0
N279 N 0.15318 0.15555 0.3089 0.0
N280 N 0.10242 0.1169 0.38867 0.0
C281 C 0.1522 0.11725 0.38831 0.0
C282 C 0.18002 0.13865 0.34473 0.0
C283 C 0.48332 0.8838 0.92739 0.0
C284 C 0.48833 0.89412 0.87853 0.0
C285 C 0.49173 0.92474 0.95405 0.0
C286 C 0.50519 0.9778 0.93297 0.0
H287 H 0.47071 0.84388 0.94508 0.0
H288 H 0.48577 0.91487 0.99152 0.0
S289 S 0.52667 0.02524 0.80611 0.0
N290 N 0.50978 0.96061 0.80991 0.0
N291 N 0.52656 0.03794 0.8602 0.0
C292 C 0.5122 0.9885 0.88411 0.0
C293 C 0.50374 0.94654 0.85687 0.0
C294 C 0.6106 0.51568 0.8218 0.0
C295 C 0.65427 0.54756 0.83126 0.0
C296 C 0.59123 0.52304 0.77782 0.0
C297 C 0.61536 0.56198 0.74171 0.0
H298 H 0.59045 0.48618 0.84901 0.0
H299 H 0.55664 0.49864 0.77236 0.0
S300 S 0.73285 0.65338 0.74903 0.0
N301 N 0.72218 0.61788 0.80138 0.0
N302 N 0.68678 0.63118 0.71834 0.0
C303 C 0.66027 0.59265 0.75051 0.0
C304 C 0.67943 0.58562 0.79545 0.0
C305 C 0.87521 0.64238 0.27552 0.0
C306 C 0.87983 0.69775 0.26535 0.0
C307 C 0.90049 0.6145 0.24738 0.0
C308 C 0.92966 0.64109 0.2078 0.0
H309 H 0.85711 0.62154 0.30829 0.0
H310 H 0.90109 0.57294 0.25881 0.0
S311 S 0.94326 0.7834 0.16011 0.0
N312 N 0.90809 0.77658 0.20883 0.0
N313 N 0.95431 0.72355 0.15495 0.0
C314 C 0.92815 0.69489 0.19345 0.0
C315 C 0.90313 0.7235 0.22249 0.0
C316 C 0.37923 0.15136 0.16574 0.0
C317 C 0.37407 0.15129 0.21436 0.0
C318 C 0.42085 0.13579 0.14417 0.0
C319 C 0.4602 0.12006 0.16986 0.0
H320 H 0.3507 0.1638 0.14394 0.0
H321 H 0.42233 0.13667 0.10679 0.0
S322 S 0.46593 0.11348 0.2983 0.0
N323 N 0.41272 0.13408 0.28744 0.0
N324 N 0.49053 0.10545 0.24751 0.0
C325 C 0.45545 0.11968 0.21863 0.0
C326 C 0.4127 0.13497 0.24062 0.0
C327 C 0.23279 0.84607 0.72284 0.0
C328 C 0.25168 0.86037 0.76421 0.0
C329 C 0.22637 0.88479 0.68574 0.0
C330 C 0.23893 0.93895 0.68873 0.0
H331 H 0.22526 0.80486 0.71829 0.0
H332 H 0.21276 0.87239 0.65394 0.0
S333 S 0.28315 0.99632 0.79211 0.0
N334 N 0.27839 0.9318 0.8079 0.0
N335 N 0.26594 0.00467 0.7381 0.0
C336 C 0.25558 0.95363 0.73072 0.0
C337 C 0.26191 0.91426 0.76853 0.0
C338 C 0.87917 0.4529 0.04597 0.0
C339 C 0.86731 0.4491 0.99996 0.0
C340 C 0.92476 0.48098 0.05561 0.0
C341 C 0.96049 0.50591 1.01964 0.0
H342 H 0.85185 0.43681 0.07453 0.0
H343 H 0.93134 0.48453 0.0916 0.0
S344 S 0.94921 0.50216 0.89341 0.0
N345 N 0.89594 0.46883 0.91822 0.0
N346 N 0.98227 0.52066 0.93629 0.0
C347 C 0.9503 0.49937 0.97361 0.0
C348 C 0.90351 0.47131 0.96379 0.0
C349 C 0.8627 0.72153 0.56019 0.0
C350 C 0.88031 0.68107 0.54016 0.0
C351 C 0.81238 0.71738 0.57334 0.0
C352 C 0.77868 0.67232 0.56779 0.0
H353 H 0.88621 0.75943 0.55955 0.0
H354 H 0.79901 0.75132 0.58405 0.0
S355 S 0.80923 0.55004 0.52962 0.0
N356 N 0.86281 0.59053 0.52504 0.0
N357 N 0.76781 0.58243 0.55024 0.0
C358 C 0.79721 0.62842 0.55509 0.0
C359 C 0.84848 0.63273 0.54154 0.0
C360 C 0.20326 0.4149 0.11205 0.0
C361 C 0.19985 0.40031 0.16073 0.0
C362 C 0.17414 0.45035 0.08996 0.0
C363 C 0.1406 0.47343 0.1156 0.0
H364 H 0.23081 0.40117 0.09106 0.0
H365 H 0.17984 0.46163 0.05256 0.0
S366 S 0.11575 0.44541 0.24418 0.0
N367 N 0.15878 0.40952 0.23381 0.0
N368 N 0.10376 0.47555 0.19285 0.0
C369 C 0.13509 0.45687 0.16426 0.0
C370 C 0.16481 0.42067 0.18664 0.0
C371 C 0.71415 0.29026 0.06586 0.0
C372 C 0.71068 0.31287 1.01934 0.0
C373 C 0.68601 0.24098 0.08467 0.0
C374 C 0.65331 0.21214 0.0577 0.0
H375 H 0.73807 0.3113 0.08823 0.0
H376 H 0.68985 0.22555 0.12076 0.0
S377 S 0.63336 0.25262 0.9328 0.0
N378 N 0.67395 0.30154 0.94605 0.0
N379 N 0.62091 0.20956 0.98108 0.0
C380 C 0.65019 0.2341 1.01081 0.0
C381 C 0.67885 0.28419 0.99176 0.0
C382 C 1.02863 0.85605 0.45552 0.0
C383 C 1.03092 0.80616 0.48127 0.0
C384 C 0.05054 0.9023 0.47019 0.0
C385 C 0.07498 0.90106 0.51164 0.0
H386 H 1.00597 0.86046 0.42599 0.0
H387 H 0.04503 0.93959 0.45053 0.0
S388 S 0.10164 0.78195 0.58651 0.0
N389 N 0.06814 0.75855 0.54573 0.0
N390 N 0.10779 0.84706 0.57454 0.0
C391 C 0.08253 0.85217 0.53532 0.0
C392 C 0.06061 0.80433 0.51992 0.0
C393 C 0.47503 0.78085 0.70796 0.0
C394 C 0.49812 0.78111 0.75047 0.0
C395 C 0.49004 0.75207 0.67418 0.0
C396 C 0.52966 0.72401 0.68111 0.0
H397 H 0.44271 0.79989 0.70225 0.0
H398 H 0.46867 0.74912 0.64382 0.0
S399 S 0.60578 0.71606 0.78369 0.0
N400 N 0.56485 0.75369 0.79589 0.0
N401 N 0.59427 0.70115 0.7314 0.0
C402 C 0.55586 0.72761 0.72143 0.0
C403 C 0.53998 0.7561 0.75633 0.0
C404 C 0.95655 0.95058 0.74158 0.0
C405 C 0.98689 0.94206 0.77952 0.0
C406 C 0.97669 0.97152 0.69563 0.0
C407 C 1.02837 0.98495 0.68489 0.0
H408 H 0.91662 0.94011 0.74719 0.0
H409 H 0.95143 0.97652 0.66819 0.0
S410 S 0.12472 0.97423 0.77145 0.0
N411 N 0.07185 0.95226 0.80261 0.0
N412 N 0.1094 0.98978 0.71752 0.0
C413 C 0.05908 0.97727 0.72264 0.0
C414 C 0.03858 0.95635 0.76931 0.0
C415 C 0.70198 0.20645 0.33387 0.0
C416 C 0.6795 0.18792 0.3789 0.0
C417 C 0.6892 0.17955 0.29633 0.0
C418 C 0.65449 0.1327 0.30301 0.0
H419 H 0.73146 0.24031 0.32825 0.0
H420 H 0.70872 0.19344 0.2626 0.0
S421 S 0.58241 0.07009 0.41268 0.0
N422 N 0.61826 0.12207 0.42698 0.0
N423 N 0.59517 0.0711 0.3565 0.0
C424 C 0.62998 0.11536 0.34709 0.0
C425 C 0.64223 0.14316 0.38506 0.0
C426 C 0.40918 0.60728 0.45829 0.0
C427 C 0.43499 0.63133 0.41584 0.0
C428 C 0.43173 0.60757 0.50079 0.0
C429 C 0.48145 0.63149 0.50284 0.0
H430 H 0.37174 0.58602 0.45841 0.0
H431 H 0.4105 0.58666 0.53203 0.0
S432 S 0.56392 0.70415 0.40173 0.0
N433 N 0.51168 0.68304 0.37863 0.0
N434 N 0.55446 0.68373 0.45834 0.0
C435 C 0.50682 0.65835 0.46082 0.0
C436 C 0.48353 0.65828 0.41743 0.0
C437 C 0.05022 0.52917 0.79945 0.0
C438 C 0.04524 0.47381 0.80621 0.0
C439 C 0.07956 0.5589 0.82792 0.0
C440 C 0.10574 0.53413 0.86318 0.0
H441 H 1.0317 0.54945 0.77178 0.0
H442 H 0.08107 0.60135 0.82279 0.0
S443 S 0.10869 0.39057 0.89112 0.0
N444 N 0.07065 0.39558 0.84861 0.0
N445 N 0.12698 0.45152 0.90112 0.0
C446 C 0.1018 0.4789 0.86931 0.0
C447 C 0.07129 0.44872 0.84107 0.0
C448 C 0.76771 0.01097 1.00415 0.0
C449 C 0.75502 0.95908 0.99384 0.0
C450 C 0.73666 0.03215 1.03447 0.0
C451 C 0.69154 1.00238 0.05546 0.0
H452 H 0.79987 0.03667 0.98604 0.0
H453 H 0.7464 0.07316 1.03905 0.0
S454 S 0.64304 0.86363 1.04317 0.0
N455 N 0.69563 0.87761 1.01045 0.0
N456 N 0.63764 0.9175 0.0659 0.0
C457 C 0.67996 0.94982 0.04741 0.0
C458 C 0.71157 0.92817 1.01721 0.0
C459 C 0.82284 0.15105 0.52022 0.0
C460 C 0.81964 0.18793 0.48023 0.0
C461 C 0.86386 0.12446 0.52525 0.0
C462 C 0.90252 0.13366 0.49029 0.0
H463 H 0.79214 0.14027 0.54634 0.0
H464 H 0.86401 0.09432 0.55517 0.0
S465 S 0.91627 0.23278 0.3834 0.0
N466 N 0.86211 0.23736 0.40849 0.0
N467 N 0.9385 0.18662 0.41775 0.0
C468 C 0.90149 0.17303 0.452 0.0
C469 C 0.86021 0.2004 0.44704 0.0
C470 C 0.24103 0.69137 0.17647 0.0
C471 C 0.28935 0.70173 0.15529 0.0
C472 C 0.19949 0.67929 0.15083 0.0
C473 C 0.20416 0.67614 0.10276 0.0
H474 H 0.23524 0.69234 0.2134 0.0
H475 H 0.16337 0.67065 0.16956 0.0
S476 S 0.32289 0.70155 1.0303 0.0
N477 N 0.33978 0.70995 0.083 0.0
N478 N 0.26172 0.68622 1.03484 0.0
C479 C 0.25236 0.68757 0.08085 0.0
C480 C 0.29483 0.70062 0.10703 0.0
C481 C 0.25867 0.47057 0.6241 0.0
C482 C 0.22765 0.43851 0.66011 0.0
C483 C 0.30735 0.4916 0.63195 0.0
C484 C 0.32649 0.48059 0.67587 0.0
H485 H 0.24508 0.47955 0.58985 0.0
H486 H 0.32988 0.51725 0.60366 0.0
S487 S 0.26069 0.39422 0.77996 0.0
N488 N 0.21933 0.39422 0.74014 0.0
N489 N 0.31143 0.43258 0.75475 0.0
C490 C 0.29588 0.44751 0.71179 0.0
C491 C 0.24625 0.42667 0.70391 0.0
C492 C 0.98563 0.80568 0.97873 0.0
C493 C 0.98364 0.80998 0.92972 0.0
C494 C 1.00594 0.76456 1.00527 0.0
C495 C 1.02586 0.72594 0.98412 0.0
H496 H 0.97195 0.83482 0.99683 0.0
H497 H 1.00668 0.76356 1.0426 0.0
S498 S 1.02429 0.71423 0.85815 0.0
N499 N 0.99912 0.76742 0.86242 0.0
N500 N 0.03854 0.69265 0.91129 0.0
C501 C 1.02305 0.72904 0.93541 0.0
C502 C 1.00177 0.7702 0.9086 0.0
C503 C 0.42119 0.86921 0.17459 0.0
C504 C 0.44099 0.82302 0.18961 0.0
C505 C 0.45192 0.91793 0.1608 0.0
C506 C 0.50366 0.9229 0.16254 0.0
H507 H 0.38146 0.86775 0.17314 0.0
H508 H 0.43499 0.95213 0.14856 0.0
S509 S 0.57504 0.8152 0.19836 0.0
N510 N 0.51651 0.78576 0.2042 0.0
N511 N 0.57392 0.87843 0.18029 0.0
C512 C 0.52424 0.87783 0.17854 0.0
C513 C 0.49299 0.82765 0.19167 0.0
C514 C 0.15561 0.25776 0.62381 0.0
C515 C 0.12405 0.29249 0.60522 0.0
C516 C 0.15215 0.20685 0.61242 0.0
C517 C 0.11675 0.18891 0.58233 0.0
H518 H 0.18219 0.26947 0.64856 0.0
H519 H 0.17633 0.18098 0.62838 0.0
S520 S 1.02846 0.2667 0.52125 0.0
N521 N 0.05873 0.30717 0.55329 0.0
N522 N 0.05173 0.21133 0.53137 0.0
C523 C 0.08601 0.22403 0.56225 0.0
C524 C 0.08968 0.27586 0.57394 0.0
C525 C 0.63821 0.40968 0.55883 0.0
C526 C 0.60309 0.363 0.56657 0.0
C527 C 0.62499 0.45845 0.56582 0.0
C528 C 0.57613 0.46234 0.58083 0.0
H529 H 0.67671 0.40807 0.54964 0.0
H530 H 0.65385 0.49286 0.56135 0.0
S531 S 0.46883 0.3527 0.59885 0.0
N532 N 0.51642 0.32456 0.5848 0.0
N533 N 0.49143 0.41578 0.59803 0.0
C534 C 0.54008 0.41637 0.58579 0.0
C535 C 0.55359 0.36686 0.57866 0.0
loop_
_geom_bond_atom_site_label_1
_geom_bond_atom_site_label_2
_geom_bond_distance
_geom_bond_site_symmetry_2
_ccdc_geom_bond_type
H0 C1 0.949 . S
C1 H0 0.949 . S
C1 C2 1.395 . S
C1 C3 1.391 . S
C2 C1 1.395 . S
C2 C5 1.390 . S
C3 C1 1.391 . S
C3 C7 1.387 . S
C3 C8 1.491 . S
H4 C5 0.950 . S
C5 C2 1.390 . S
C5 H4 0.950 . S
C5 C6 1.378 . S
C6 C5 1.378 . S
C6 C7 1.409 . S
C7 C3 1.387 . S
C7 C6 1.409 . S
C7 H9 0.951 . S
C8 C3 1.491 . S
C8 C10 1.382 . S
C8 C12 1.404 . S
H9 C7 0.951 . S
C10 C8 1.382 . S
C10 C11 1.390 . S
C10 H15 0.949 . S
C11 C10 1.390 . S
C11 C16 1.399 . S
C12 C8 1.404 . S
C12 H13 0.950 . S
C12 C14 1.375 . S
H13 C12 0.950 . S
C14 C12 1.375 . S
C14 C16 1.382 . S
C14 H18 0.950 . S
H15 C10 0.949 . S
C16 C11 1.399 . S
C16 C14 1.382 . S
C16 H17 0.952 . S
H17 C16 0.952 . S
H18 C14 0.950 . S
H19 C20 0.949 . S
C20 H19 0.949 . S
C20 C21 1.395 . S
C20 C22 1.391 . S
C21 C20 1.395 . S
C21 C24 1.390 . S
C22 C20 1.391 . S
C22 C26 1.387 . S
C22 C27 1.491 . S
H23 C24 0.950 . S
C24 C21 1.390 . S
C24 H23 0.950 . S
C24 C25 1.378 . S
C25 C24 1.378 . S
C25 C26 1.409 . S
C26 C22 1.387 . S
C26 C25 1.409 . S
C26 H28 0.951 . S
C27 C22 1.491 . S
C27 C29 1.382 . S
C27 C31 1.404 . S
H28 C26 0.951 . S
C29 C27 1.382 . S
C29 C30 1.390 . S
C29 H34 0.949 . S
C30 C29 1.390 . S
C30 C35 1.399 . S
C31 C27 1.404 . S
C31 H32 0.950 . S
C31 C33 1.375 . S
H32 C31 0.950 . S
C33 C31 1.375 . S
C33 C35 1.382 . S
C33 H37 0.950 . S
H34 C29 0.949 . S
C35 C30 1.399 . S
C35 C33 1.382 . S
C35 H36 0.952 . S
H36 C35 0.952 . S
H37 C33 0.950 . S
H38 C39 0.949 . S
C39 H38 0.949 . S
C39 C40 1.395 . S
C39 C41 1.391 . S
C40 C39 1.395 . S
C40 C43 1.390 . S
C41 C39 1.391 . S
C41 C45 1.387 . S
C41 C46 1.491 . S
H42 C43 0.950 1_554 S
C43 C40 1.390 . S
C43 H42 0.950 1_556 S
C43 C44 1.378 . S
C44 C43 1.378 . S
C44 C45 1.409 . S
C45 C41 1.387 . S
C45 C44 1.409 . S
C45 H47 0.951 . S
C46 C41 1.491 . S
C46 C48 1.382 . S
C46 C50 1.404 . S
H47 C45 0.951 . S
C48 C46 1.382 . S
C48 C49 1.390 . S
C48 H53 0.949 . S
C49 C48 1.390 . S
C49 C54 1.399 . S
C50 C46 1.404 . S
C50 H51 0.950 . S
C50 C52 1.375 . S
H51 C50 0.950 . S
C52 C50 1.375 . S
C52 C54 1.382 . S
C52 H56 0.950 . S
H53 C48 0.949 . S
C54 C49 1.399 . S
C54 C52 1.382 . S
C54 H55 0.952 . S
H55 C54 0.952 . S
H56 C52 0.950 . S
H57 C58 0.949 . S
C58 H57 0.949 . S
C58 C59 1.395 . S
C58 C60 1.391 . S
C59 C58 1.395 . S
C59 C62 1.390 . S
C60 C58 1.391 . S
C60 C64 1.387 . S
C60 C65 1.491 . S
H61 C62 0.950 . S
C62 C59 1.390 . S
C62 H61 0.950 . S
C62 C63 1.378 . S
C63 C62 1.378 . S
C63 C64 1.409 . S
C64 C60 1.387 . S
C64 C63 1.409 . S
C64 H66 0.951 . S
C65 C60 1.491 . S
C65 C67 1.382 . S
C65 C69 1.404 . S
H66 C64 0.951 . S
C67 C65 1.382 . S
C67 C68 1.390 . S
C67 H72 0.949 1_655 S
C68 C67 1.390 . S
C68 C73 1.399 . S
C69 C65 1.404 . S
C69 H70 0.950 . S
C69 C71 1.375 . S
H70 C69 0.950 . S
C71 C69 1.375 . S
C71 C73 1.382 . S
C71 H75 0.950 . S
H72 C67 0.949 1_455 S
C73 C68 1.399 . S
C73 C71 1.382 . S
C73 H74 0.952 . S
H74 C73 0.952 . S
H75 C71 0.950 . S
H76 C77 0.949 . S
C77 H76 0.949 . S
C77 C78 1.395 . S
C77 C79 1.391 . S
C78 C77 1.395 . S
C78 C81 1.390 . S
C79 C77 1.391 . S
C79 C83 1.387 . S
C79 C84 1.491 . S
H80 C81 0.950 1_455 S
C81 C78 1.390 . S
C81 H80 0.950 1_655 S
C81 C82 1.378 . S
C82 C81 1.378 . S
C82 C83 1.409 . S
C83 C79 1.387 . S
C83 C82 1.409 . S
C83 H85 0.951 . S
C84 C79 1.491 . S
C84 C86 1.382 . S
C84 C88 1.404 . S
H85 C83 0.951 . S
C86 C84 1.382 . S
C86 C87 1.390 . S
C86 H91 0.949 . S
C87 C86 1.390 . S
C87 C92 1.399 . S
C88 C84 1.404 . S
C88 H89 0.950 . S
C88 C90 1.375 . S
H89 C88 0.950 . S
C90 C88 1.375 . S
C90 C92 1.382 . S
C90 H94 0.950 . S
H91 C86 0.949 . S
C92 C87 1.399 . S
C92 C90 1.382 . S
C92 H93 0.951 . S
H93 C92 0.951 . S
H94 C90 0.950 . S
H95 C96 0.949 . S
C96 H95 0.949 . S
C96 C97 1.395 . S
C96 C98 1.391 . S
C97 C96 1.395 . S
C97 C100 1.390 . S
C98 C96 1.391 . S
C98 C102 1.387 . S
C98 C103 1.491 . S
H99 C100 0.950 . S
C100 C97 1.390 . S
C100 H99 0.950 . S
C100 C101 1.378 . S
C101 C100 1.378 . S
C101 C102 1.409 . S
C102 C98 1.387 . S
C102 C101 1.409 . S
C102 H104 0.951 . S
C103 C98 1.491 . S
C103 C105 1.382 . S
C103 C107 1.404 . S
H104 C102 0.951 . S
C105 C103 1.382 . S
C105 C106 1.390 . S
C105 H110 0.949 . S
C106 C105 1.390 . S
C106 C111 1.399 . S
C107 C103 1.404 . S
C107 H108 0.950 . S
C107 C109 1.375 . S
H108 C107 0.950 . S
C109 C107 1.375 . S
C109 C111 1.382 . S
C109 H113 0.950 . S
H110 C105 0.949 . S
C111 C106 1.399 . S
C111 C109 1.382 . S
C111 H112 0.952 . S
H112 C111 0.952 . S
H113 C109 0.950 . S
H114 C115 0.949 . S
C115 H114 0.949 . S
C115 C116 1.395 . S
C115 C117 1.391 . S
C116 C115 1.395 . S
C116 C119 1.390 . S
C117 C115 1.391 . S
C117 C121 1.387 . S
C117 C122 1.491 . S
H118 C119 0.950 . S
C119 C116 1.390 . S
C119 H118 0.950 . S
C119 C120 1.378 . S
C120 C119 1.378 . S
C120 C121 1.409 . S
C121 C117 1.387 . S
C121 C120 1.409 . S
C121 H123 0.951 . S
C122 C117 1.491 . S
C122 C124 1.382 . S
C122 C126 1.404 . S
H123 C121 0.951 . S
C124 C122 1.382 . S
C124 C125 1.390 . S
C124 H129 0.949 . S
C125 C124 1.390 . S
C125 C130 1.399 . S
C126 C122 1.404 . S
C126 H127 0.950 . S
C126 C128 1.375 . S
H127 C126 0.950 . S
C128 C126 1.375 . S
C128 C130 1.382 . S
C128 H132 0.950 . S
H129 C124 0.949 . S
C130 C125 1.399 . S
C130 C128 1.382 . S
C130 H131 0.952 . S
H131 C130 0.952 . S
H132 C128 0.950 . S
H133 C134 0.949 . S
C134 H133 0.949 . S
C134 C135 1.395 . S
C134 C136 1.391 . S
C135 C134 1.395 . S
C135 C138 1.390 . S
C136 C134 1.391 . S
C136 C140 1.387 . S
C136 C141 1.491 . S
H137 C138 0.950 . S
C138 C135 1.390 . S
C138 H137 0.950 . S
C138 C139 1.378 . S
C139 C138 1.378 . S
C139 C140 1.409 . S
C140 C136 1.387 . S
C140 C139 1.409 . S
C140 H142 0.951 . S
C141 C136 1.491 . S
C141 C143 1.382 . S
C141 C145 1.404 . S
H142 C140 0.951 . S
C143 C141 1.382 . S
C143 C144 1.390 . S
C143 H148 0.949 . S
C144 C143 1.390 . S
C144 C149 1.399 . S
C145 C141 1.404 . S
C145 H146 0.950 . S
C145 C147 1.375 . S
H146 C145 0.950 . S
C147 C145 1.375 . S
C147 C149 1.382 . S
C147 H151 0.950 . S
H148 C143 0.949 . S
C149 C144 1.399 . S
C149 C147 1.382 . S
C149 H150 0.952 . S
H150 C149 0.952 . S
H151 C147 0.950 . S
Co152 N157 2.057 . S
Co152 O169 2.024 . S
Co152 O172 2.059 1_655 S
Co152 O176 2.117 1_545 S
Co152 O177 2.020 . S
C153 O173 1.259 1_655 S
C153 O176 1.258 . S
Co154 N163 2.057 . S
Co154 O170 2.117 . S
Co154 O171 2.020 . S
Co154 O173 2.021 1_545 S
Co154 O178 2.062 . S
C155 N157 1.316 . S
C155 N158 1.347 . S
C155 H160 0.931 . S
C156 N157 1.375 . S
C156 C159 1.350 . S
C156 H161 0.930 1_545 S
N157 Co152 2.057 . S
N157 C155 1.316 . S
N157 C156 1.375 . S
N158 C155 1.347 . S
N158 C159 1.373 . S
C159 C156 1.350 . S
C159 N158 1.373 . S
C159 H180 0.931 . S
H160 C155 0.931 . S
H161 C156 0.930 1_565 S
C162 O169 1.241 1_455 S
C162 O170 1.258 . S
N163 Co154 2.057 . S
N163 C164 1.316 1_545 S
N163 C165 1.375 . S
C164 N163 1.316 1_565 S
C164 N166 1.347 1_565 S
C164 H175 0.931 . S
C165 N163 1.375 . S
C165 C167 1.350 . S
C165 H174 0.930 . S
N166 C164 1.347 1_545 S
N166 C167 1.373 . S
C167 C165 1.350 . S
C167 N166 1.373 . S
C167 H181 0.931 . S
C168 O171 1.256 . S
C168 O172 1.262 . S
O169 Co152 2.024 . S
O169 C162 1.241 1_655 S
O170 Co154 2.117 . S
O170 C162 1.258 . S
O171 Co154 2.020 . S
O171 C168 1.256 . S
O172 Co152 2.059 1_455 S
O172 C168 1.262 . S
O173 C153 1.259 1_455 S
O173 Co154 2.021 1_565 S
H174 C165 0.930 . S
H175 C164 0.931 . S
O176 Co152 2.117 1_565 S
O176 C153 1.258 . S
O177 Co152 2.020 . S
O177 C179 1.256 . S
O178 Co154 2.062 . S
O178 C179 1.255 1_455 S
C179 O177 1.256 . S
C179 O178 1.255 1_655 S
H180 C159 0.931 . S
H181 C167 0.931 . S
Co182 N187 2.057 1_544 S
Co182 O199 2.021 . S
Co182 O202 2.062 . S
Co182 O206 2.117 1_545 S
Co182 O207 2.020 . S
C183 O203 1.259 . S
C183 O206 1.258 . S
Co184 N193 2.057 . S
Co184 O200 2.117 . S
Co184 O201 2.020 . S
Co184 O203 2.021 1_545 S
Co184 O208 2.062 . S
C185 N187 1.316 1_545 S
C185 N188 1.347 1_545 S
C185 H190 0.931 . S
C186 N187 1.375 . S
C186 C189 1.350 . S
C186 H191 0.930 . S
N187 Co182 2.057 1_566 S
N187 C185 1.316 1_565 S
N187 C186 1.375 . S
N188 C185 1.347 1_565 S
N188 C189 1.373 . S
C189 C186 1.350 . S
C189 N188 1.373 . S
C189 H210 0.931 . S
H190 C185 0.931 . S
H191 C186 0.930 . S
C192 O199 1.259 . S
C192 O200 1.258 . S
N193 Co184 2.057 . S
N193 C194 1.316 . S
N193 C195 1.375 . S
C194 N193 1.316 . S
C194 N196 1.347 . S
C194 H205 0.931 . S
C195 N193 1.375 . S
C195 C197 1.350 . S
C195 H204 0.930 . S
N196 C194 1.347 . S
N196 C197 1.373 . S
C197 C195 1.350 . S
C197 N196 1.373 . S
C197 H211 0.931 . S
C198 O201 1.256 . S
C198 O202 1.255 . S
O199 Co182 2.021 . S
O199 C192 1.259 . S
O200 Co184 2.117 . S
O200 C192 1.258 . S
O201 Co184 2.020 . S
O201 C198 1.256 . S
O202 Co182 2.062 . S
O202 C198 1.255 . S
O203 C183 1.259 . S
O203 Co184 2.021 1_565 S
H204 C195 0.930 . S
H205 C194 0.931 . S
O206 Co182 2.117 1_565 S
O206 C183 1.258 . S
O207 Co182 2.020 . S
O207 C209 1.256 . S
O208 Co184 2.062 . S
O208 C209 1.255 . S
C209 O207 1.256 . S
C209 O208 1.255 . S
H210 C189 0.931 . S
H211 C197 0.931 . S
Co212 N217 2.057 . S
Co212 O229 2.021 . S
Co212 O232 2.062 . S
Co212 O236 2.117 . S
Co212 O237 2.020 . S
C213 O233 1.259 . S
C213 O236 1.258 . S
Co214 N223 2.057 . S
Co214 O230 2.117 . S
Co214 O231 2.020 . S
Co214 O233 2.021 . S
Co214 O238 2.062 . S
C215 N217 1.316 . S
C215 N218 1.347 . S
C215 H220 0.931 . S
C216 N217 1.375 . S
C216 C219 1.350 . S
C216 H221 0.930 . S
N217 Co212 2.057 . S
N217 C215 1.316 . S
N217 C216 1.375 . S
N218 C215 1.347 . S
N218 C219 1.373 . S
C219 C216 1.350 . S
C219 N218 1.373 . S
C219 H240 0.931 . S
H220 C215 0.931 . S
H221 C216 0.930 . S
C222 O229 1.259 . S
C222 O230 1.258 . S
N223 Co214 2.057 . S
N223 C224 1.316 . S
N223 C225 1.375 . S
C224 N223 1.316 . S
C224 N226 1.347 . S
C224 H235 0.931 . S
C225 N223 1.375 . S
C225 C227 1.350 . S
C225 H234 0.930 . S
N226 C224 1.347 . S
N226 C227 1.373 . S
C227 C225 1.350 . S
C227 N226 1.373 . S
C227 H241 0.931 . S
C228 O231 1.256 . S
C228 O232 1.255 . S
O229 Co212 2.021 . S
O229 C222 1.259 . S
O230 Co214 2.117 . S
O230 C222 1.258 . S
O231 Co214 2.020 . S
O231 C228 1.256 . S
O232 Co212 2.062 . S
O232 C228 1.255 . S
O233 C213 1.259 . S
O233 Co214 2.021 . S
H234 C225 0.930 . S
H235 C224 0.931 . S
O236 Co212 2.117 . S
O236 C213 1.258 . S
O237 Co212 2.020 . S
O237 C239 1.256 . S
O238 Co214 2.062 . S
O238 C239 1.255 . S
C239 O237 1.256 . S
C239 O238 1.255 . S
H240 C219 0.931 . S
H241 C227 0.931 . S
Co242 N247 2.057 . S
Co242 O259 2.023 . S
Co242 O262 2.062 1_556 S
Co242 O266 2.117 1_455 S
Co242 O267 2.020 . S
C243 O263 1.259 . S
C243 O266 1.258 1_554 S
Co244 N253 2.057 . S
Co244 O260 2.117 . S
Co244 O261 2.020 . S
Co244 O263 2.021 1_455 S
Co244 O268 2.062 . S
C245 N247 1.316 . S
C245 N248 1.347 . S
C245 H250 0.931 . S
C246 N247 1.375 . S
C246 C249 1.350 . S
C246 H251 0.930 1_455 S
N247 Co242 2.057 . S
N247 C245 1.316 . S
N247 C246 1.375 . S
N248 C245 1.347 . S
N248 C249 1.373 . S
C249 C246 1.350 . S
C249 N248 1.373 . S
C249 H270 0.931 . S
H250 C245 0.931 . S
H251 C246 0.930 1_655 S
C252 O259 1.251 1_554 S
C252 O260 1.258 . S
N253 Co244 2.057 . S
N253 C254 1.316 1_455 S
N253 C255 1.375 . S
C254 N253 1.316 1_655 S
C254 N256 1.347 . S
C254 H265 0.931 . S
C255 N253 1.375 . S
C255 C257 1.350 . S
C255 H264 0.930 . S
N256 C254 1.347 . S
N256 C257 1.373 1_655 S
C257 C255 1.350 . S
C257 N256 1.373 1_455 S
C257 H271 0.931 . S
C258 O261 1.256 . S
C258 O262 1.255 . S
O259 Co242 2.023 . S
O259 C252 1.251 1_556 S
O260 Co244 2.117 . S
O260 C252 1.258 . S
O261 Co244 2.020 . S
O261 C258 1.256 . S
O262 Co242 2.062 1_554 S
O262 C258 1.255 . S
O263 C243 1.259 . S
O263 Co244 2.021 1_655 S
H264 C255 0.930 . S
H265 C254 0.931 . S
O266 Co242 2.117 1_655 S
O266 C243 1.258 1_556 S
O267 Co242 2.020 . S
O267 C269 1.256 . S
O268 Co244 2.062 . S
O268 C269 1.255 1_554 S
C269 O267 1.256 . S
C269 O268 1.255 1_556 S
H270 C249 0.931 . S
H271 C257 0.931 . S
C272 C273 1.369 . S
C272 C274 1.419 . S
C272 H276 0.930 . S
C273 C272 1.369 . S
C273 C282 1.429 . S
C274 C272 1.419 . S
C274 C275 1.363 . S
C274 H277 0.929 . S
C275 C274 1.363 . S
C275 C281 1.428 . S
H276 C272 0.930 . S
H277 C274 0.929 . S
S278 N279 1.613 . S
S278 N280 1.610 . S
N279 S278 1.613 . S
N279 C282 1.350 . S
N280 S278 1.610 . S
N280 C281 1.351 . S
C281 C275 1.428 . S
C281 N280 1.351 . S
C281 C282 1.434 . S
C282 C273 1.429 . S
C282 N279 1.350 . S
C282 C281 1.434 . S
C283 C284 1.369 . S
C283 C285 1.419 . S
C283 H287 0.930 . S
C284 C283 1.369 . S
C284 C293 1.429 . S
C285 C283 1.419 . S
C285 C286 1.363 . S
C285 H288 0.929 . S
C286 C285 1.363 . S
C286 C292 1.422 1_565 S
H287 C283 0.930 . S
H288 C285 0.929 . S
S289 N290 1.613 . S
S289 N291 1.610 . S
N290 S289 1.613 . S
N290 C293 1.350 1_545 S
N291 S289 1.610 . S
N291 C292 1.363 . S
C292 C286 1.422 1_545 S
C292 N291 1.363 . S
C292 C293 1.428 1_545 S
C293 C284 1.429 . S
C293 N290 1.350 1_565 S
C293 C292 1.428 1_565 S
C294 C295 1.369 . S
C294 C296 1.419 . S
C294 H298 0.930 . S
C295 C294 1.369 . S
C295 C304 1.429 . S
C296 C294 1.419 . S
C296 C297 1.363 . S
C296 H299 0.929 . S
C297 C296 1.363 . S
C297 C303 1.428 . S
H298 C294 0.930 . S
H299 C296 0.929 . S
S300 N301 1.613 . S
S300 N302 1.610 . S
N301 S300 1.613 . S
N301 C304 1.350 . S
N302 S300 1.610 . S
N302 C303 1.351 . S
C303 C297 1.428 . S
C303 N302 1.351 . S
C303 C304 1.434 . S
C304 C295 1.429 . S
C304 N301 1.350 . S
C304 C303 1.434 . S
C305 C306 1.369 . S
C305 C307 1.419 . S
C305 H309 0.930 . S
C306 C305 1.369 . S
C306 C315 1.429 1_655 S
C307 C305 1.419 . S
C307 C308 1.363 . S
C307 H310 0.929 . S
C308 C307 1.363 . S
C308 C314 1.428 1_655 S
H309 C305 0.930 . S
H310 C307 0.929 . S
S311 N312 1.613 . S
S311 N313 1.610 . S
N312 S311 1.613 . S
N312 C315 1.350 . S
N313 S311 1.610 . S
N313 C314 1.351 . S
C314 C308 1.428 1_455 S
C314 N313 1.351 . S
C314 C315 1.434 . S
C315 C306 1.429 1_455 S
C315 N312 1.350 . S
C315 C314 1.434 . S
C316 C317 1.369 . S
C316 C318 1.419 . S
C316 H320 0.930 . S
C317 C316 1.369 . S
C317 C326 1.429 . S
C318 C316 1.419 . S
C318 C319 1.363 . S
C318 H321 0.929 . S
C319 C318 1.363 . S
C319 C325 1.428 . S
H320 C316 0.930 . S
H321 C318 0.929 . S
S322 N323 1.613 . S
S322 N324 1.610 . S
N323 S322 1.613 . S
N323 C326 1.350 . S
N324 S322 1.610 . S
N324 C325 1.351 . S
C325 C319 1.428 . S
C325 N324 1.351 . S
C325 C326 1.434 . S
C326 C317 1.429 . S
C326 N323 1.350 . S
C326 C325 1.434 . S
C327 C328 1.369 1_545 S
C327 C329 1.419 . S
C327 H331 0.930 . S
C328 C327 1.369 1_565 S
C328 C337 1.429 . S
C329 C327 1.419 . S
C329 C330 1.363 1_545 S
C329 H332 0.929 . S
C330 C329 1.363 1_565 S
C330 C336 1.428 . S
H331 C327 0.930 . S
H332 C329 0.929 . S
S333 N334 1.613 . S
S333 N335 1.610 . S
N334 S333 1.613 . S
N334 C337 1.350 . S
N335 S333 1.610 . S
N335 C336 1.351 . S
C336 C330 1.428 . S
C336 N335 1.351 . S
C336 C337 1.434 . S
C337 C328 1.429 . S
C337 N334 1.350 . S
C337 C336 1.434 . S
C338 C339 1.369 1_554 S
C338 C340 1.419 . S
C338 H342 0.930 . S
C339 C338 1.369 1_556 S
C339 C348 1.429 . S
C340 C338 1.419 . S
C340 C341 1.363 1_554 S
C340 H343 0.929 . S
C341 C340 1.363 1_556 S
C341 C347 1.428 . S
H342 C338 0.930 . S
H343 C340 0.929 . S
S344 N345 1.613 . S
S344 N346 1.610 . S
N345 S344 1.613 . S
N345 C348 1.350 . S
N346 S344 1.610 . S
N346 C347 1.351 . S
C347 C341 1.428 . S
C347 N346 1.351 . S
C347 C348 1.434 . S
C348 C339 1.429 . S
C348 N345 1.350 . S
C348 C347 1.434 . S
C349 C350 1.369 . S
C349 C351 1.419 . S
C349 H353 0.930 . S
C350 C349 1.369 . S
C350 C359 1.429 . S
C351 C349 1.419 . S
C351 C352 1.363 . S
C351 H354 0.929 . S
C352 C351 1.363 . S
C352 C358 1.428 . S
H353 C349 0.930 . S
H354 C351 0.929 . S
S355 N356 1.613 . S
S355 N357 1.610 . S
N356 S355 1.613 . S
N356 C359 1.350 . S
N357 S355 1.610 . S
N357 C358 1.351 . S
C358 C352 1.428 . S
C358 N357 1.351 . S
C358 C359 1.434 . S
C359 C350 1.429 . S
C359 N356 1.350 . S
C359 C358 1.434 . S
C360 C361 1.369 . S
C360 C362 1.419 . S
C360 H364 0.930 . S
C361 C360 1.369 . S
C361 C370 1.429 . S
C362 C360 1.419 . S
C362 C363 1.363 . S
C362 H365 0.929 . S
C363 C362 1.363 . S
C363 C369 1.428 . S
H364 C360 0.930 . S
H365 C362 0.929 . S
S366 N367 1.611 1_556 S
S366 N368 1.610 . S
N367 S366 1.611 1_554 S
N367 C370 1.353 . S
N368 S366 1.610 . S
N368 C369 1.351 1_556 S
C369 C363 1.428 . S
C369 N368 1.351 1_554 S
C369 C370 1.434 . S
C370 C361 1.429 . S
C370 N367 1.353 . S
C370 C369 1.434 . S
C371 C372 1.369 . S
C371 C373 1.419 . S
C371 H375 0.930 . S
C372 C371 1.369 . S
C372 C381 1.429 1_554 S
C373 C371 1.419 . S
C373 C374 1.363 . S
C373 H376 0.929 . S
C374 C373 1.363 . S
C374 C380 1.428 1_554 S
H375 C371 0.930 . S
H376 C373 0.929 . S
S377 N378 1.613 . S
S377 N379 1.610 . S
N378 S377 1.613 . S
N378 C381 1.350 . S
N379 S377 1.610 . S
N379 C380 1.351 . S
C380 C374 1.428 1_556 S
C380 N379 1.351 . S
C380 C381 1.434 . S
C381 C372 1.429 1_556 S
C381 N378 1.350 . S
C381 C380 1.434 . S
C382 C383 1.369 . S
C382 C384 1.419 . S
C382 H386 0.930 . S
C383 C382 1.369 . S
C383 C392 1.429 1_655 S
C384 C382 1.419 . S
C384 C385 1.363 . S
C384 H387 0.929 . S
C385 C384 1.363 . S
C385 C391 1.428 1_655 S
H386 C382 0.930 . S
H387 C384 0.929 . S
S388 N389 1.613 . S
S388 N390 1.610 . S
N389 S388 1.613 . S
N389 C392 1.350 . S
N390 S388 1.610 . S
N390 C391 1.351 . S
C391 C385 1.428 1_455 S
C391 N390 1.351 . S
C391 C392 1.434 . S
C392 C383 1.429 1_455 S
C392 N389 1.350 . S
C392 C391 1.434 . S
C393 C394 1.369 . S
C393 C395 1.419 . S
C393 H397 0.930 . S
C394 C393 1.369 . S
C394 C403 1.429 . S
C395 C393 1.419 . S
C395 C396 1.363 . S
C395 H398 0.929 . S
C396 C395 1.363 . S
C396 C402 1.428 . S
H397 C393 0.930 . S
H398 C395 0.929 . S
S399 N400 1.613 . S
S399 N401 1.610 . S
N400 S399 1.613 . S
N400 C403 1.350 . S
N401 S399 1.610 . S
N401 C402 1.351 . S
C402 C396 1.428 . S
C402 N401 1.351 . S
C402 C403 1.434 . S
C403 C394 1.429 . S
C403 N400 1.350 . S
C403 C402 1.434 . S
C404 C405 1.369 . S
C404 C406 1.419 . S
C404 H408 0.930 . S
C405 C404 1.369 . S
C405 C414 1.429 1_665 S
C406 C404 1.419 . S
C406 C407 1.363 . S
C406 H409 0.929 . S
C407 C406 1.363 . S
C407 C413 1.428 1_665 S
H408 C404 0.930 . S
H409 C406 0.929 . S
S410 N411 1.613 . S
S410 N412 1.610 . S
N411 S410 1.613 . S
N411 C414 1.350 . S
N412 S410 1.610 . S
N412 C413 1.351 . S
C413 C407 1.428 1_445 S
C413 N412 1.351 . S
C413 C414 1.434 . S
C414 C405 1.429 1_445 S
C414 N411 1.350 . S
C414 C413 1.434 . S
C415 C416 1.369 . S
C415 C417 1.419 . S
C415 H419 0.930 . S
C416 C415 1.369 . S
C416 C425 1.429 . S
C417 C415 1.419 . S
C417 C418 1.363 . S
C417 H420 0.929 . S
C418 C417 1.363 . S
C418 C424 1.428 . S
H419 C415 0.930 . S
H420 C417 0.929 . S
S421 N422 1.613 1_565 S
S421 N423 1.610 1_565 S
N422 S421 1.613 1_545 S
N422 C425 1.350 . S
N423 S421 1.610 1_545 S
N423 C424 1.351 . S
C424 C418 1.428 . S
C424 N423 1.351 . S
C424 C425 1.434 . S
C425 C416 1.429 . S
C425 N422 1.350 . S
C425 C424 1.434 . S
C426 C427 1.369 . S
C426 C428 1.419 . S
C426 H430 0.930 . S
C427 C426 1.369 . S
C427 C436 1.429 . S
C428 C426 1.419 . S
C428 C429 1.363 . S
C428 H431 0.929 . S
C429 C428 1.363 . S
C429 C435 1.428 . S
H430 C426 0.930 . S
H431 C428 0.929 . S
S432 N433 1.613 . S
S432 N434 1.610 . S
N433 S432 1.613 . S
N433 C436 1.350 . S
N434 S432 1.610 . S
N434 C435 1.351 . S
C435 C429 1.428 . S
C435 N434 1.351 . S
C435 C436 1.434 . S
C436 C427 1.429 . S
C436 N433 1.350 . S
C436 C435 1.434 . S
C437 C438 1.369 . S
C437 C439 1.419 . S
C437 H441 0.930 . S
C438 C437 1.369 . S
C438 C447 1.429 . S
C439 C437 1.419 . S
C439 C440 1.363 . S
C439 H442 0.929 . S
C440 C439 1.363 . S
C440 C446 1.428 . S
H441 C437 0.930 . S
H442 C439 0.929 . S
S443 N444 1.613 . S
S443 N445 1.610 . S
N444 S443 1.613 . S
N444 C447 1.350 . S
N445 S443 1.610 . S
N445 C446 1.351 . S
C446 C440 1.428 . S
C446 N445 1.351 . S
C446 C447 1.434 . S
C447 C438 1.429 . S
C447 N444 1.350 . S
C447 C446 1.434 . S
C448 C449 1.369 1_544 S
C448 C450 1.419 . S
C448 H452 0.930 . S
C449 C448 1.369 1_566 S
C449 C458 1.429 . S
C450 C448 1.419 . S
C450 C451 1.363 . S
C450 H453 0.929 . S
C451 C450 1.363 . S
C451 C457 1.428 1_545 S
H452 C448 0.930 . S
H453 C450 0.929 . S
S454 N455 1.613 . S
S454 N456 1.610 . S
N455 S454 1.613 . S
N455 C458 1.350 . S
N456 S454 1.610 . S
N456 C457 1.351 1_556 S
C457 C451 1.428 1_565 S
C457 N456 1.351 1_554 S
C457 C458 1.434 1_554 S
C458 C449 1.429 . S
C458 N455 1.350 . S
C458 C457 1.434 1_556 S
C459 C460 1.369 . S
C459 C461 1.419 . S
C459 H463 0.930 . S
C460 C459 1.369 . S
C460 C469 1.429 . S
C461 C459 1.419 . S
C461 C462 1.363 . S
C461 H464 0.929 . S
C462 C461 1.363 . S
C462 C468 1.428 . S
H463 C459 0.930 . S
H464 C461 0.929 . S
S465 N466 1.613 . S
S465 N467 1.610 . S
N466 S465 1.613 . S
N466 C469 1.350 . S
N467 S465 1.610 . S
N467 C468 1.351 . S
C468 C462 1.428 . S
C468 N467 1.351 . S
C468 C469 1.434 . S
C469 C460 1.429 . S
C469 N466 1.350 . S
C469 C468 1.434 . S
C470 C471 1.369 . S
C470 C472 1.419 . S
C470 H474 0.930 . S
C471 C470 1.369 . S
C471 C480 1.429 . S
C472 C470 1.419 . S
C472 C473 1.363 . S
C472 H475 0.929 . S
C473 C472 1.363 . S
C473 C479 1.428 . S
H474 C470 0.930 . S
H475 C472 0.929 . S
S476 N477 1.613 1_556 S
S476 N478 1.612 . S
N477 S476 1.613 1_554 S
N477 C480 1.350 . S
N478 S476 1.612 . S
N478 C479 1.341 1_556 S
C479 C473 1.428 . S
C479 N478 1.341 1_554 S
C479 C480 1.434 . S
C480 C471 1.429 . S
C480 N477 1.350 . S
C480 C479 1.434 . S
C481 C482 1.369 . S
C481 C483 1.419 . S
C481 H485 0.930 . S
C482 C481 1.369 . S
C482 C491 1.429 . S
C483 C481 1.419 . S
C483 C484 1.363 . S
C483 H486 0.929 . S
C484 C483 1.363 . S
C484 C490 1.428 . S
H485 C481 0.930 . S
H486 C483 0.929 . S
S487 N488 1.613 . S
S487 N489 1.610 . S
N488 S487 1.613 . S
N488 C491 1.350 . S
N489 S487 1.610 . S
N489 C490 1.351 . S
C490 C484 1.428 . S
C490 N489 1.351 . S
C490 C491 1.434 . S
C491 C482 1.429 . S
C491 N488 1.350 . S
C491 C490 1.434 . S
C492 C493 1.369 . S
C492 C494 1.419 . S
C492 H496 0.930 . S
C493 C492 1.369 . S
C493 C502 1.429 1_655 S
C494 C492 1.419 . S
C494 C495 1.363 1_655 S
C494 H497 0.929 . S
C495 C494 1.363 1_455 S
C495 C501 1.428 . S
H496 C492 0.930 . S
H497 C494 0.929 . S
S498 N499 1.613 . S
S498 N500 1.610 . S
N499 S498 1.613 . S
N499 C502 1.350 . S
N500 S498 1.610 . S
N500 C501 1.351 . S
C501 C495 1.428 . S
C501 N500 1.351 . S
C501 C502 1.434 . S
C502 C493 1.429 1_455 S
C502 N499 1.350 . S
C502 C501 1.434 . S
C503 C504 1.369 . S
C503 C505 1.419 . S
C503 H507 0.930 . S
C504 C503 1.369 . S
C504 C513 1.429 . S
C505 C503 1.419 . S
C505 C506 1.363 . S
C505 H508 0.929 . S
C506 C505 1.363 . S
C506 C512 1.428 . S
H507 C503 0.930 . S
H508 C505 0.929 . S
S509 N510 1.613 . S
S509 N511 1.610 . S
N510 S509 1.613 . S
N510 C513 1.350 . S
N511 S509 1.610 . S
N511 C512 1.351 . S
C512 C506 1.428 . S
C512 N511 1.351 . S
C512 C513 1.434 . S
C513 C504 1.429 . S
C513 N510 1.350 . S
C513 C512 1.434 . S
C514 C515 1.369 . S
C514 C516 1.419 . S
C514 H518 0.930 . S
C515 C514 1.369 . S
C515 C524 1.429 . S
C516 C514 1.419 . S
C516 C517 1.363 . S
C516 H519 0.929 . S
C517 C516 1.363 . S
C517 C523 1.428 . S
H518 C514 0.930 . S
H519 C516 0.929 . S
S520 N521 1.613 1_655 S
S520 N522 1.610 . S
N521 S520 1.613 1_455 S
N521 C524 1.350 . S
N522 S520 1.610 . S
N522 C523 1.351 1_655 S
C523 C517 1.428 . S
C523 N522 1.351 1_455 S
C523 C524 1.434 . S
C524 C515 1.429 . S
C524 N521 1.350 . S
C524 C523 1.434 . S
C525 C526 1.369 . S
C525 C527 1.419 . S
C525 H529 0.930 . S
C526 C525 1.369 . S
C526 C535 1.429 . S
C527 C525 1.419 . S
C527 C528 1.363 . S
C527 H530 0.929 . S
C528 C527 1.363 . S
C528 C534 1.428 . S
H529 C525 0.930 . S
H530 C527 0.929 . S
S531 N532 1.613 . S
S531 N533 1.610 . S
N532 S531 1.613 . S
N532 C535 1.350 . S
N533 S531 1.610 . S
N533 C534 1.351 . S
C534 C528 1.428 . S
C534 N533 1.351 . S
C534 C535 1.434 . S
C535 C526 1.429 . S
C535 N532 1.350 . S
C535 C534 1.434 . S
C273 C6 2.424 . S
C275 C168 2.466 . S
C284 C21 1.585 . S
C286 N188 1.604 . S
C297 C222 1.523 . S
C295 C49 1.453 . S
C306 C68 1.006 . S
C308 N256 1.151 . S
C319 C209 2.914 . S
C317 C2 2.889 . S
C330 N166 0.956 1_565 S
C328 C30 0.876 . S
C341 C243 1.868 1_556 S
C339 C40 1.861 . S
C352 N218 1.003 . S
C350 C63 0.999 . S
C361 C11 1.562 . S
C363 C258 1.856 . S
C374 C192 1.862 . S
C372 C44 1.825 1_554 S
C383 C59 1.051 . S
C385 C153 1.074 . S
C394 C25 1.695 . S
C396 C239 1.740 . S
C407 C179 2.551 1_565 S
C405 C82 2.529 . S
C416 C101 1.311 . S
C418 N196 1.300 . S
C427 C125 1.832 . S
C429 C213 1.864 . S
C438 C144 1.014 . S
C440 N248 1.012 . S
C449 C87 1.832 . S
C451 C198 2.048 . S
C462 N158 1.649 . S
C460 C97 1.627 . S
C473 C252 1.844 . S
C471 C120 1.841 . S
C484 N226 1.196 . S
C482 C135 1.167 . S
C493 C78 2.114 . S
C495 C269 2.125 . S
C506 C183 1.423 . S
C504 C116 1.408 . S
C517 C162 1.575 . S
C515 C139 1.538 . S
C526 C106 1.355 . S
C528 C228 1.448 . S
