# Generated by pormake.
# Topology zzz, (3,6)-cn, num edge types: 1
# Building blocks:
#     Node 0, Type 0, BuildingBlock: PAMTOO_clean_linker_0, # of connection points: 3
#     Node 1, Type 0, BuildingBlock: PAMTOO_clean_linker_0, # of connection points: 3
#     Node 2, Type 0, BuildingBlock: PAMTOO_clean_linker_0, # of connection points: 3
#     Node 3, Type 0, BuildingBlock: PAMTOO_clean_linker_0, # of connection points: 3
#     Node 4, Type 0, BuildingBlock: PAMTOO_clean_linker_0, # of connection points: 3
#     Node 5, Type 0, BuildingBlock: PAMTOO_clean_linker_0, # of connection points: 3
#     Node 6, Type 0, BuildingBlock: PAMTOO_clean_linker_0, # of connection points: 3
#     Node 7, Type 0, BuildingBlock: PAMTOO_clean_linker_0, # of connection points: 3
#     Node 8, Type 1, BuildingBlock: KUMJIN_clean_sbu_1, # of connection points: 6
#     Node 9, Type 1, BuildingBlock: KUMJIN_clean_sbu_1, # of connection points: 6
#     Node 10, Type 1, BuildingBlock: KUMJIN_clean_sbu_1, # of connection points: 6
#     Node 11, Type 1, BuildingBlock: KUMJIN_clean_sbu_1, # of connection points: 6
#     Edge 12, Type (0, 1), BuildingBlock: MIFKUJ_clean_linker_0, # of connection points: 2
#     Edge 13, Type (0, 1), BuildingBlock: MIFKUJ_clean_linker_0, # of connection points: 2
#     Edge 14, Type (0, 1), BuildingBlock: MIFKUJ_clean_linker_0, # of connection points: 2
#     Edge 15, Type (0, 1), BuildingBlock: MIFKUJ_clean_linker_0, # of connection points: 2
#     Edge 16, Type (0, 1), BuildingBlock: MIFKUJ_clean_linker_0, # of connection points: 2
#     Edge 17, Type (0, 1), BuildingBlock: MIFKUJ_clean_linker_0, # of connection points: 2
#     Edge 18, Type (0, 1), BuildingBlock: MIFKUJ_clean_linker_0, # of connection points: 2
#     Edge 19, Type (0, 1), BuildingBlock: MIFKUJ_clean_linker_0, # of connection points: 2
#     Edge 20, Type (0, 1), BuildingBlock: MIFKUJ_clean_linker_0, # of connection points: 2
#     Edge 21, Type (0, 1), BuildingBlock: MIFKUJ_clean_linker_0, # of connection points: 2
#     Edge 22, Type (0, 1), BuildingBlock: MIFKUJ_clean_linker_0, # of connection points: 2
#     Edge 23, Type (0, 1), BuildingBlock: MIFKUJ_clean_linker_0, # of connection points: 2
#     Edge 24, Type (0, 1), BuildingBlock: MIFKUJ_clean_linker_0, # of connection points: 2
#     Edge 25, Type (0, 1), BuildingBlock: MIFKUJ_clean_linker_0, # of connection points: 2
#     Edge 26, Type (0, 1), BuildingBlock: MIFKUJ_clean_linker_0, # of connection points: 2
#     Edge 27, Type (0, 1), BuildingBlock: MIFKUJ_clean_linker_0, # of connection points: 2
#     Edge 28, Type (0, 1), BuildingBlock: MIFKUJ_clean_linker_0, # of connection points: 2
#     Edge 29, Type (0, 1), BuildingBlock: MIFKUJ_clean_linker_0, # of connection points: 2
#     Edge 30, Type (0, 1), BuildingBlock: MIFKUJ_clean_linker_0, # of connection points: 2
#     Edge 31, Type (0, 1), BuildingBlock: MIFKUJ_clean_linker_0, # of connection points: 2
#     Edge 32, Type (0, 1), BuildingBlock: MIFKUJ_clean_linker_0, # of connection points: 2
#     Edge 33, Type (0, 1), BuildingBlock: MIFKUJ_clean_linker_0, # of connection points: 2
#     Edge 34, Type (0, 1), BuildingBlock: MIFKUJ_clean_linker_0, # of connection points: 2
#     Edge 35, Type (0, 1), BuildingBlock: MIFKUJ_clean_linker_0, # of connection points: 2
# Relax obj value: 0.145
# Max RMSD: 0.089
# Mean RMSD: 0.074
data_MOF--net-zzz--node1-KUMJIN_clean_sbu_1--node2-PAMTOO_clean_linker_0--edge1-MIFKUJ_clean_linker_0
_symmetry_space_group_name_H-M    P1
_symmetry_Int_Tables_number       1
_symmetry_cell_setting            triclinic
loop_
_symmetry_equiv_pos_as_xyz
'x, y, z'
_cell_length_a     65.459283
_cell_length_b     65.425668
_cell_length_c     20.546587
_cell_angle_alpha  89.826674
_cell_angle_beta   89.827023
_cell_angle_gamma 90.323573
loop_
_atom_site_label
_atom_site_type_symbol
_atom_site_fract_x
_atom_site_fract_y
_atom_site_fract_z
_atom_type_partial_charge
H0 H 0.79761 0.5618 0.25532 0.0
H1 H 0.74008 0.56211 0.1558 0.0
H2 H 0.74626 0.52935 0.33733 0.0
H3 H 0.71325 0.50973 0.21877 0.0
C4 C 0.71466 0.5244 0.19169 0.0
O5 O 0.72037 0.53947 0.23656 0.0
H6 H 0.72701 0.52225 0.15499 0.0
C7 C 0.78145 0.55801 0.25459 0.0
C8 C 0.77354 0.54605 0.30522 0.0
C9 C 0.76977 0.56334 0.20023 0.0
C10 C 0.7491 0.55799 0.19796 0.0
C11 C 0.74035 0.54546 0.24573 0.0
C12 C 0.75273 0.53916 0.30001 0.0
H13 H 0.97055 0.80192 0.24791 0.0
H14 H 0.97095 0.74356 0.15418 0.0
H15 H 1.00003 0.75097 0.3411 0.0
H16 H 0.02035 0.71519 0.2279 0.0
C17 C 1.00619 0.71724 0.199 0.0
O18 O 0.99096 0.72417 0.24154 0.0
H19 H 0.00984 0.72916 0.16187 0.0
C20 C 0.97401 0.78571 0.24985 0.0
C21 C 0.98479 0.77819 0.3033 0.0
C22 C 0.9694 0.7735 0.1961 0.0
C23 C 0.97441 0.75284 0.19637 0.0
C24 C 0.98567 0.7444 0.2472 0.0
C25 C 0.99123 0.75723 0.30133 0.0
H26 H 0.73555 0.96533 0.28681 0.0
H27 H 0.78598 0.97326 0.15454 0.0
H28 H 0.78199 1.0097 0.32727 0.0
H29 H 0.81364 0.02603 0.20115 0.0
C30 C 0.81223 0.01062 0.17898 0.0
O31 O 0.80695 0.99673 0.22816 0.0
H32 H 0.79969 0.01176 0.14265 0.0
C33 C 0.74941 0.97299 0.27185 0.0
C34 C 0.75652 0.98859 0.31201 0.0
C35 C 0.75765 0.97013 0.20934 0.0
C36 C 0.77777 0.97711 0.19842 0.0
C37 C 0.78725 0.99064 0.24167 0.0
C38 C 0.77584 0.99772 0.29673 0.0
H39 H 0.55784 0.73597 0.26035 0.0
H40 H 0.55976 0.79361 0.15988 0.0
H41 H 0.52471 0.78715 0.33694 0.0
H42 H 0.50666 0.82017 0.21416 0.0
C43 C 0.52176 0.81873 0.18982 0.0
O44 O 0.53602 0.81302 0.23712 0.0
H45 H 0.5199 0.80636 0.15315 0.0
C46 C 0.5542 0.75213 0.25861 0.0
C47 C 0.54177 0.76006 0.30765 0.0
C48 C 0.56018 0.76382 0.2045 0.0
C49 C 0.55501 0.7845 0.20145 0.0
C50 C 0.54189 0.79312 0.24731 0.0
C51 C 0.53496 0.78075 0.30106 0.0
H52 H 0.23132 0.48205 0.03596 0.0
H53 H 0.28862 0.48754 0.13297 0.0
H54 H 0.28403 0.50385 0.92937 0.0
H55 H 0.33304 0.48632 0.99583 0.0
C56 C 0.32532 0.48769 0.04383 0.0
O57 O 0.30934 0.50169 0.03666 0.0
H58 H 0.31917 0.47223 0.05589 0.0
C59 C 0.24759 0.48522 0.0327 0.0
C60 C 0.25577 0.49241 0.97401 0.0
C61 C 0.25935 0.48287 0.0886 0.0
C62 C 0.2798 0.48872 0.08857 0.0
C63 C 0.28915 0.49601 0.03191 0.0
C64 C 0.27707 0.49799 0.97352 0.0
H65 H 0.04091 0.23429 0.05409 0.0
H66 H 0.03949 0.2932 0.14062 0.0
H67 H 0.03326 0.28751 0.93155 0.0
H68 H 0.04989 0.33739 0.00637 0.0
C69 C 0.04681 0.32865 0.05178 0.0
O70 O 0.03185 0.31384 0.0377 0.0
H71 H 0.06145 0.32109 0.06488 0.0
C72 C 0.04027 0.25071 0.04668 0.0
C73 C 0.03813 0.25866 0.98386 0.0
C74 C 0.04217 0.26308 0.1012 0.0
C75 C 0.03893 0.28393 0.097 0.0
C76 C 0.03549 0.29314 0.03683 0.0
C77 C 0.03542 0.28052 0.97879 0.0
H78 H 0.29092 0.07709 0.03326 0.0
H79 H 0.2399 0.05283 0.13665 0.0
H80 H 0.25099 0.03303 0.94116 0.0
H81 H 0.1947 0.04044 0.99988 0.0
C82 C 0.2038 0.04541 0.04257 0.0
O83 O 0.22261 0.03529 0.04057 0.0
H84 H 0.20611 0.06218 0.03597 0.0
C85 C 0.27728 0.06765 0.03209 0.0
C86 C 0.27427 0.05379 0.98069 0.0
C87 C 0.26726 0.06428 0.09142 0.0
C88 C 0.2482 0.05486 0.0913 0.0
C89 C 0.2411 0.04515 0.03546 0.0
C90 C 0.25484 0.04328 0.98055 0.0
H91 H 0.46289 0.29655 0.01563 0.0
H92 H 0.48702 0.24872 0.13328 0.0
H93 H 0.49815 0.24844 0.92715 0.0
H94 H 0.48882 0.19732 0.00654 0.0
C95 C 0.48607 0.20752 0.04869 0.0
O96 O 0.49811 0.22517 0.04027 0.0
H97 H 0.46959 0.21166 0.04649 0.0
C98 C 0.47073 0.28201 0.01777 0.0
C99 C 0.48104 0.27487 0.96287 0.0
C100 C 0.47561 0.27453 0.07927 0.0
C101 C 0.48395 0.25507 0.08554 0.0
C102 C 0.49026 0.2444 0.03042 0.0
C103 C 0.49054 0.25512 0.9687 0.0
Eu104 Eu 0.99453 0.02907 0.57022 0.0
C105 C 0.06506 0.03632 0.76793 0.0
N106 N 0.06303 0.02741 0.70835 0.0
C107 C 0.0967 0.03889 0.6788 0.0
C108 C 0.08299 0.04719 0.78445 0.0
C109 C 0.07893 0.02784 0.66509 0.0
C110 C 0.0987 0.04875 0.73845 0.0
C111 C 0.05171 0.04208 0.87697 0.0
C112 C 0.04965 0.0337 0.81408 0.0
C113 C 0.06939 0.05315 0.89289 0.0
C114 C 0.08503 0.05556 0.84693 0.0
Eu115 Eu 0.0327 1.00798 0.69362 0.0
N116 N 0.03273 0.02276 0.79785 0.0
C117 C 0.03606 0.03876 0.92247 0.0
C118 C 0.01803 0.01847 0.84314 0.0
C119 C 0.01922 0.02677 0.90558 0.0
H120 H 0.07856 0.01905 0.62102 0.0
H121 H 1.00734 0.02357 0.94101 0.0
H122 H 0.94963 0.01725 0.63776 0.0
H123 H 0.02635 1.00712 0.33234 0.0
H124 H 1.0056 1.00824 0.83197 0.0
H125 H 0.03708 0.04498 0.97118 0.0
H126 H 0.02489 0.0267 0.4331 0.0
H127 H 0.10906 0.03935 0.64393 0.0
H128 H 0.0713 0.05959 0.94104 0.0
H129 H 0.09887 0.06352 0.86074 0.0
H130 H 0.91913 0.9966 0.61257 0.0
H131 H 0.11268 0.057 0.74927 0.0
H132 H 0.9983 0.98336 0.30434 0.0
N133 N 0.96593 1.00804 0.5533 0.0
C134 C 0.96513 0.9982 0.49519 0.0
C135 C 0.93206 0.99665 0.57961 0.0
C136 C 0.94785 0.9864 0.47837 0.0
C137 C 0.94953 1.00803 0.5944 0.0
C138 C 0.93126 0.98565 0.52157 0.0
N139 N 0.99792 0.01199 0.46887 0.0
C140 C 0.01333 0.01531 0.42503 0.0
C141 C 0.9814 0.98913 0.39306 0.0
C142 C 0.98175 0.99975 0.45275 0.0
C143 C 0.99797 0.99133 0.35047 0.0
C144 C 0.01388 1.00464 0.36625 0.0
H145 H 0.91767 0.97686 0.51017 0.0
H146 H 0.9345 0.96658 0.4056 0.0
H147 H 0.9639 0.9688 0.33125 0.0
O148 O 0.98311 0.04707 0.48913 0.0
O149 O 0.9943 0.99415 0.58973 0.0
O150 O 0.02803 0.98851 0.60285 0.0
O151 O 0.96964 0.05053 0.58483 0.0
O152 O 0.028 0.03673 0.54301 0.0
O153 O 0.04517 1.00985 0.58941 0.0
O154 O 0.02781 0.97958 0.74709 0.0
O155 O 0.02192 0.04103 0.7131 0.0
O156 O 0.01606 0.0536 0.61104 0.0
O157 O 0.05901 0.99056 0.72684 0.0
O158 O 0.99888 1.00111 0.71603 0.0
O159 O 0.98378 0.02996 0.67648 0.0
C160 C 0.01005 0.98183 0.5843 0.0
C161 C 0.96849 0.07884 0.51535 0.0
C162 C 0.98319 0.1112 0.4814 0.0
C163 C 0.96464 0.1209 0.4963 0.0
C164 C 0.95008 0.08861 0.53015 0.0
C165 C 0.9482 0.10962 0.52076 0.0
C166 C 0.9851 0.09015 0.49139 0.0
C167 C 0.04427 0.02487 0.54661 0.0
C168 C 0.96988 0.05681 0.52473 0.0
C169 C 0.94762 0.97577 0.41921 0.0
C170 C 0.96438 0.97702 0.37692 0.0
C171 C 0.02033 0.05671 0.67288 0.0
C172 C 0.05575 0.95896 0.78735 0.0
C173 C 0.04981 0.92804 0.85005 0.0
C174 C 0.071 0.92615 0.85941 0.0
C175 C 0.07687 0.95691 0.79651 0.0
C176 C 0.04238 0.94432 0.81301 0.0
C177 C 0.08444 0.94046 0.83218 0.0
C178 C 0.98398 0.01455 0.71773 0.0
C179 C 0.04741 0.97667 0.75349 0.0
H180 H 0.96274 0.13712 0.48777 0.0
H181 H 0.93714 0.07996 0.54871 0.0
H182 H 0.93392 0.11712 0.5318 0.0
H183 H 0.99945 0.08265 0.48045 0.0
H184 H 0.07719 0.91384 0.88846 0.0
H185 H 0.08748 0.9681 0.77681 0.0
H186 H 0.02612 0.94564 0.80418 0.0
H187 H 0.10072 0.93895 0.83954 0.0
Eu188 Eu 0.52468 0.03516 0.71124 0.0
C189 C 0.5134 0.955 0.55127 0.0
N190 N 0.52286 0.97281 0.53441 0.0
C191 C 0.54856 0.95437 0.47602 0.0
C192 C 0.52141 0.93605 0.53125 0.0
C193 C 0.54016 0.97276 0.4971 0.0
C194 C 0.53923 0.93591 0.49342 0.0
C195 C 0.48529 0.93737 0.60521 0.0
C196 C 0.4955 0.95569 0.58804 0.0
C197 C 0.49333 0.91852 0.58567 0.0
C198 C 0.51133 0.91786 0.54882 0.0
Eu199 Eu 0.50675 1.00307 0.5688 0.0
N200 N 0.48799 0.97417 0.60653 0.0
C201 C 0.46708 0.9385 0.64071 0.0
C202 C 0.46994 0.97524 0.63987 0.0
C203 C 0.45941 0.95752 0.6582 0.0
H204 H 0.5471 0.98692 0.48121 0.0
H205 H 0.44514 0.95856 0.68473 0.0
H206 H 0.48765 0.05348 0.8076 0.0
H207 H 0.58685 0.07661 0.58728 0.0
H208 H 0.46309 0.98954 0.65134 0.0
H209 H 0.45858 0.92483 0.65355 0.0
H210 H 0.56915 0.04666 0.6307 0.0
H211 H 0.56203 0.95449 0.44546 0.0
H212 H 0.48567 0.90434 0.5985 0.0
H213 H 0.51726 0.90318 0.53375 0.0
H214 H 0.47386 0.0867 0.84194 0.0
H215 H 0.54576 0.92167 0.47672 0.0
H216 H 0.57361 0.11114 0.61012 0.0
N217 N 0.51068 0.06634 0.74718 0.0
C218 C 0.52016 0.08369 0.72636 0.0
C219 C 0.48674 0.0861 0.80883 0.0
C220 C 0.51305 0.10307 0.74574 0.0
C221 C 0.49431 0.06728 0.78831 0.0
C222 C 0.49608 0.1041 0.78722 0.0
N223 N 0.54415 0.06318 0.67009 0.0
C224 C 0.5622 0.06122 0.63733 0.0
C225 C 0.54763 0.0999 0.66535 0.0
C226 C 0.5373 0.08209 0.68663 0.0
C227 C 0.56527 0.09784 0.62747 0.0
C228 C 0.57273 0.07839 0.61418 0.0
H229 H 0.49026 0.11869 0.8035 0.0
H230 H 0.51791 0.13577 0.73834 0.0
H231 H 0.54815 0.13301 0.66779 0.0
O232 O 0.55155 0.02595 0.76561 0.0
O233 O 0.51057 0.05339 0.62541 0.0
O234 O 0.52142 0.03367 0.54193 0.0
O235 O 0.52708 0.04193 0.81466 0.0
O236 O 0.54967 0.0158 0.65903 0.0
O237 O 0.53886 0.01519 0.55389 0.0
O238 O 0.48125 0.01325 0.51055 0.0
O239 O 0.52014 0.9849 0.65574 0.0
O240 O 0.5094 1.00499 0.73841 0.0
O241 O 0.5047 0.99448 0.46656 0.0
O242 O 0.48068 0.02049 0.62188 0.0
O243 O 0.4915 0.02543 0.72702 0.0
C244 C 0.51449 0.0512 0.5629 0.0
C245 C 0.56053 0.04603 0.85624 0.0
C246 C 0.59388 0.04621 0.90686 0.0
C247 C 0.5894 0.06487 0.93698 0.0
C248 C 0.55617 0.06495 0.88525 0.0
C249 C 0.57063 0.07431 0.92551 0.0
C250 C 0.57944 0.03692 0.86674 0.0
C251 C 0.55357 0.01319 0.59639 0.0
C252 C 0.54532 0.03444 0.81942 0.0
C253 C 0.52317 0.12077 0.7239 0.0
C254 C 0.54037 0.1192 0.68368 0.0
C255 C 0.51599 0.98725 0.71805 0.0
C256 C 0.47179 0.99379 0.4188 0.0
C257 C 0.4384 0.9964 0.36993 0.0
C258 C 0.4427 0.97969 0.32969 0.0
C259 C 0.4761 0.97684 0.37923 0.0
C260 C 0.45283 1.00326 0.41433 0.0
C261 C 0.46149 0.96979 0.33498 0.0
C262 C 0.47671 0.02476 0.68369 0.0
C263 C 0.48742 1.00373 0.45838 0.0
H264 H 0.60039 0.07209 0.96894 0.0
H265 H 0.54156 0.0723 0.8779 0.0
H266 H 0.56719 0.08874 0.94851 0.0
H267 H 0.5827 0.02212 0.84544 0.0
H268 H 0.43157 0.97436 0.29461 0.0
H269 H 0.49084 0.96942 0.38123 0.0
H270 H 0.44954 0.01668 0.44343 0.0
H271 H 0.46488 0.9569 0.30398 0.0
Eu272 Eu 0.53611 0.50922 0.57187 0.0
C273 C 0.46202 0.50786 0.7804 0.0
N274 N 0.46379 0.51741 0.72181 0.0
C275 C 0.428 0.5123 0.70225 0.0
C276 C 0.44314 0.49957 0.80125 0.0
C277 C 0.44699 0.52029 0.68386 0.0
C278 C 0.42611 0.50165 0.76087 0.0
C279 C 0.47736 0.49791 0.88302 0.0
C280 C 0.47891 0.50714 0.82098 0.0
C281 C 0.45877 0.48908 0.90297 0.0
C282 C 0.4417 0.48995 0.86226 0.0
Eu283 Eu 0.49654 0.53047 0.69432 0.0
N284 N 0.4967 0.51594 0.80053 0.0
C285 C 0.4944 0.49825 0.92389 0.0
C286 C 0.51277 0.51764 0.84241 0.0
C287 C 0.51209 0.5084 0.90376 0.0
H288 H 0.44799 0.52965 0.6411 0.0
H289 H 0.52511 0.50944 0.93591 0.0
H290 H 0.5817 0.51478 0.64589 0.0
H291 H 0.50671 0.54561 0.34977 0.0
H292 H 0.52597 0.5266 0.83023 0.0
H293 H 0.49383 0.49131 0.97181 0.0
H294 H 0.50457 0.52434 0.44698 0.0
H295 H 0.41476 0.51469 0.67177 0.0
H296 H 0.45734 0.4819 0.95036 0.0
H297 H 0.42734 0.48346 0.87891 0.0
H298 H 0.61466 0.53162 0.62427 0.0
H299 H 0.41132 0.49563 0.77536 0.0
H300 H 0.53905 0.56314 0.32161 0.0
N301 N 0.56715 0.52724 0.56239 0.0
C302 C 0.56943 0.53831 0.50659 0.0
C303 C 0.602 0.53386 0.59127 0.0
C304 C 0.58828 0.54781 0.49162 0.0
C305 C 0.58312 0.52469 0.60417 0.0
C306 C 0.60462 0.54546 0.53477 0.0
N307 N 0.53485 0.53067 0.47875 0.0
C308 C 0.51853 0.53236 0.43792 0.0
C309 C 0.55494 0.55205 0.40686 0.0
C310 C 0.55289 0.54021 0.4641 0.0
C311 C 0.53807 0.55412 0.36584 0.0
C312 C 0.51978 0.5443 0.38162 0.0
H313 H 0.61936 0.55238 0.52459 0.0
H314 H 0.60479 0.56639 0.42146 0.0
H315 H 0.57561 0.57029 0.34777 0.0
O316 O 0.5408 0.49143 0.48385 0.0
O317 O 0.5358 0.54384 0.59256 0.0
O318 O 0.50173 0.54706 0.59794 0.0
O319 O 0.56208 0.48877 0.5635 0.0
O320 O 0.50292 0.50201 0.54037 0.0
O321 O 0.48206 0.52485 0.59467 0.0
O322 O 0.50511 0.55951 0.73778 0.0
O323 O 0.50013 0.49569 0.70903 0.0
O324 O 0.52231 0.48289 0.63113 0.0
O325 O 0.47322 0.5527 0.71846 0.0
O326 O 0.53074 0.53539 0.71781 0.0
O327 O 0.54624 0.50687 0.67802 0.0
C328 C 0.51958 0.5553 0.58524 0.0
C329 C 0.55524 0.45911 0.50476 0.0
C330 C 0.53657 0.42786 0.48209 0.0
C331 C 0.55315 0.41641 0.5052 0.0
C332 C 0.57179 0.44755 0.52727 0.0
C333 C 0.57069 0.42627 0.52766 0.0
C334 C 0.53764 0.44916 0.4821 0.0
C335 C 0.48517 0.51147 0.54771 0.0
C336 C 0.55621 0.48143 0.50794 0.0
C337 C 0.59037 0.55917 0.43395 0.0
C338 C 0.57375 0.56136 0.39192 0.0
C339 C 0.50974 0.48031 0.68089 0.0
C340 C 0.48052 0.5755 0.80426 0.0
C341 C 0.48801 0.60231 0.88099 0.0
C342 C 0.46884 0.59955 0.91028 0.0
C343 C 0.46136 0.5724 0.83406 0.0
C344 C 0.49383 0.59029 0.8286 0.0
C345 C 0.45562 0.58441 0.88715 0.0
C346 C 0.54577 0.52203 0.71987 0.0
C347 C 0.4862 0.56548 0.74354 0.0
H348 H 0.55277 0.39986 0.50412 0.0
H349 H 0.58549 0.45501 0.54503 0.0
H350 H 0.5835 0.4174 0.54489 0.0
H351 H 0.52472 0.45786 0.46445 0.0
H352 H 0.46406 0.60925 0.95009 0.0
H353 H 0.45069 0.56114 0.81552 0.0
H354 H 0.50841 0.59317 0.80482 0.0
H355 H 0.44074 0.5823 0.90937 0.0
Eu356 Eu 0.02426 0.53734 0.58497 0.0
C357 C 0.03171 0.46613 0.77957 0.0
N358 N 0.0214 0.46752 0.72232 0.0
C359 C 0.0304 0.43306 0.69577 0.0
C360 C 0.04211 0.44805 0.79643 0.0
C361 C 0.02028 0.45122 0.6811 0.0
C362 C 0.04142 0.43148 0.75356 0.0
C363 C 0.0431 0.48193 0.88021 0.0
C364 C 0.0323 0.48302 0.82091 0.0
C365 C 0.05342 0.46392 0.89691 0.0
C366 C 0.05293 0.44706 0.8552 0.0
Eu367 Eu 1.00354 0.49824 0.7055 0.0
N368 N 0.02245 0.50047 0.80322 0.0
C369 C 0.04304 0.49889 0.92147 0.0
C370 C 0.02104 0.51634 0.84589 0.0
C371 C 0.03173 0.51607 0.90458 0.0
H372 H 0.01104 0.45185 0.63795 0.0
H373 H 0.03074 0.52889 0.93762 0.0
H374 H 0.01985 0.58348 0.65715 0.0
H375 H 0.99478 0.51063 0.35089 0.0
H376 H 0.01085 0.52877 0.83721 0.0
H377 H 0.05114 0.49863 0.96738 0.0
H378 H 0.01341 0.50786 0.45322 0.0
H379 H 0.02947 0.4202 0.66287 0.0
H380 H 0.06178 0.46286 0.94223 0.0
H381 H 0.06098 0.43328 0.86889 0.0
H382 H 1.00389 0.61664 0.63473 0.0
H383 H 0.0492 0.41734 0.76487 0.0
H384 H 0.97816 0.54312 0.32124 0.0
N385 N 0.00851 0.56938 0.57112 0.0
C386 C 0.9983 0.57199 0.51415 0.0
C387 C 1.00203 0.60417 0.60073 0.0
C388 C 0.98957 0.59103 0.49837 0.0
C389 C 0.01072 0.58517 0.61392 0.0
C390 C 0.99139 0.60712 0.54275 0.0
N391 N 1.00528 0.53739 0.48718 0.0
C392 C 1.00511 0.52158 0.44399 0.0
C393 C 0.98672 0.55824 0.41083 0.0
C394 C 0.99673 0.55564 0.471 0.0
C395 C 0.98567 0.54171 0.36794 0.0
C396 C 0.99495 0.52332 0.38459 0.0
H397 H 0.98492 0.62197 0.53225 0.0
H398 H 0.97317 0.60819 0.42505 0.0
H399 H 0.97154 0.57975 0.34754 0.0
O400 O 0.0494 0.53268 0.51723 0.0
O401 O 0.98903 0.53709 0.59387 0.0
O402 O 0.98127 0.50404 0.62177 0.0
O403 O 0.04394 0.56316 0.55815 0.0
O404 O 0.03002 0.50337 0.5588 0.0
O405 O 1.00259 0.48606 0.60144 0.0
O406 O 0.98082 0.50036 0.78239 0.0
O407 O 0.03883 0.49839 0.69283 0.0
O408 O 0.04564 0.53183 0.6704 0.0
O409 O 0.98465 0.47186 0.73108 0.0
O410 O 0.99628 0.53233 0.72704 0.0
O411 O 0.02514 0.54809 0.69007 0.0
C412 C 0.97593 0.5217 0.59624 0.0
C413 C 0.07242 0.55984 0.48377 0.0
C414 C 0.10431 0.55338 0.42791 0.0
C415 C 0.10769 0.57451 0.42187 0.0
C416 C 0.07576 0.58096 0.47748 0.0
C417 C 0.09335 0.58824 0.44631 0.0
C418 C 0.08662 0.54616 0.45845 0.0
C419 C 0.01763 0.48731 0.55886 0.0
C420 C 0.055 0.55183 0.52036 0.0
C421 C 0.97969 0.59359 0.43841 0.0
C422 C 0.97853 0.57733 0.39453 0.0
C423 C 0.05182 0.51389 0.69097 0.0
C424 C 0.95196 0.47848 0.77519 0.0
C425 C 0.9183 0.48942 0.81098 0.0
C426 C 0.91018 0.47047 0.79119 0.0
C427 C 0.94362 0.45968 0.75547 0.0
C428 C 0.93916 0.49338 0.80183 0.0
C429 C 0.92278 0.45581 0.76299 0.0
C430 C 0.00913 0.54796 0.72856 0.0
C431 C 0.97416 0.48173 0.77442 0.0
H432 H 0.12133 0.58035 0.39813 0.0
H433 H 0.06493 0.59179 0.49714 0.0
H434 H 0.09597 0.60453 0.44165 0.0
H435 H 0.08432 0.52983 0.46467 0.0
H436 H 0.89423 0.46673 0.79899 0.0
H437 H 0.95325 0.44782 0.73555 0.0
H438 H 0.94551 0.50796 0.81667 0.0
H439 H 0.91646 0.44121 0.74843 0.0
H440 H 0.18172 0.01079 0.07956 0.0
H441 H 0.15638 1.00704 0.16721 0.0
H442 H 0.16995 0.06822 0.2319 0.0
H443 H 0.19573 0.07163 0.14565 0.0
H444 H 0.16134 0.04877 0.33424 0.0
H445 H 0.12468 0.05361 0.13591 0.0
H446 H 0.114 0.04555 0.0238 0.0
H447 H 0.09721 0.98476 0.08352 0.0
H448 H 0.10794 0.99243 0.19592 0.0
H449 H 0.05907 0.05999 0.48634 0.0
H450 H 0.08754 0.06331 0.40797 0.0
H451 H 0.09677 0.99827 0.41567 0.0
H452 H 0.06896 0.99497 0.49563 0.0
H453 H 0.09318 0.02055 0.27845 0.0
H454 H 0.1318 0.01822 0.48065 0.0
H455 H 0.14124 0.02958 0.5909 0.0
H456 H 0.15126 0.09058 0.51946 0.0
H457 H 0.14215 0.07946 0.40847 0.0
C458 C 0.17965 0.02328 0.11337 0.0
C459 C 0.19097 0.0415 0.10495 0.0
C460 C 0.16478 0.02128 0.16325 0.0
C461 C 0.16041 0.03754 0.2063 0.0
C462 C 0.17255 0.05536 0.19996 0.0
C463 C 0.18749 0.0573 0.15032 0.0
C464 C 0.14315 0.03615 0.25664 0.0
C465 C 0.14644 0.04276 0.32117 0.0
C466 C 0.12333 0.02837 0.24169 0.0
C467 C 0.11734 0.02351 0.17404 0.0
C468 C 0.1189 0.03846 0.12494 0.0
C469 C 0.11278 0.03398 0.06142 0.0
C470 C 0.10499 0.01464 0.0465 0.0
C471 C 0.10328 0.99973 0.09512 0.0
C472 C 0.10936 1.00413 0.15874 0.0
C473 C 0.06717 0.04638 0.47149 0.0
C474 C 0.06154 0.0272 0.49772 0.0
C475 C 0.08357 0.04831 0.42663 0.0
C476 C 0.09453 0.03106 0.40527 0.0
C477 C 0.08875 0.01188 0.43093 0.0
C478 C 0.07277 1.01002 0.47697 0.0
C479 C 0.11161 0.03286 0.3553 0.0
C480 C 0.10817 0.02645 0.29097 0.0
C481 C 0.13107 0.04126 0.36999 0.0
C482 C 0.13605 0.04808 0.43663 0.0
C483 C 0.13582 0.0341 0.48863 0.0
C484 C 0.14121 0.04047 0.55115 0.0
C485 C 0.14665 0.06084 0.56234 0.0
C486 C 0.14694 0.07483 0.51082 0.0
C487 C 0.14177 0.06848 0.44804 0.0
H488 H 0.15074 0.06575 0.61087 0.0
H489 H 0.10022 0.01122 0.99731 0.0
H490 H 0.45786 0.18874 0.12868 0.0
H491 H 0.46273 0.16368 0.21504 0.0
H492 H 0.52798 0.17087 0.19722 0.0
H493 H 0.52298 0.1955 0.10764 0.0
H494 H 0.52128 0.13266 0.21359 0.0
H495 H 0.49348 0.1898 0.33546 0.0
H496 H 0.46774 0.21606 0.36058 0.0
H497 H 0.42178 0.16944 0.38304 0.0
H498 H 0.44718 0.14295 0.35722 0.0
H499 H 0.54412 0.07079 0.49049 0.0
H500 H 0.54029 0.09848 0.4111 0.0
H501 H 0.47509 0.0977 0.44306 0.0
H502 H 0.4794 0.07127 0.52692 0.0
H503 H 0.48186 0.13316 0.41977 0.0
H504 H 0.50556 0.07646 0.29556 0.0
H505 H 0.52848 0.04813 0.26608 0.0
H506 H 0.57818 0.09057 0.24061 0.0
H507 H 0.5556 0.11912 0.27075 0.0
C508 C 0.47332 0.18548 0.14404 0.0
C509 C 0.48998 0.19495 0.11176 0.0
C510 C 0.47613 0.17096 0.19425 0.0
C511 C 0.4958 0.16532 0.21556 0.0
C512 C 0.51255 0.1748 0.18335 0.0
C513 C 0.50971 0.18922 0.13226 0.0
C514 C 0.49881 0.14909 0.26887 0.0
C515 C 0.51284 0.1331 0.25906 0.0
C516 C 0.48735 0.14853 0.32801 0.0
C517 C 0.47218 0.16445 0.34393 0.0
C518 C 0.47786 0.18519 0.34545 0.0
C519 C 0.46333 0.2001 0.35982 0.0
C520 C 0.44313 0.19443 0.37327 0.0
C521 C 0.43742 0.17382 0.37255 0.0
C522 C 0.45188 0.15886 0.3581 0.0
C523 C 0.52899 0.07669 0.48101 0.0
C524 C 0.51211 0.06878 0.5157 0.0
C525 C 0.52668 0.09245 0.4343 0.0
C526 C 0.50723 0.10028 0.41781 0.0
C527 C 0.49037 0.09236 0.45338 0.0
C528 C 0.4928 0.07708 0.50175 0.0
C529 C 0.50443 0.11669 0.3648 0.0
C530 C 0.49039 0.13269 0.37449 0.0
C531 C 0.51545 0.11692 0.30476 0.0
C532 C 0.52896 0.09986 0.28597 0.0
C533 C 0.5214 0.07972 0.28394 0.0
C534 C 0.53433 0.06363 0.26712 0.0
C535 C 0.55479 0.06754 0.25164 0.0
C536 C 0.56234 0.08756 0.25271 0.0
C537 C 0.54949 0.1037 0.26959 0.0
H538 H 0.56478 0.05507 0.23869 0.0
H539 H 0.43191 0.206 0.38436 0.0
H540 H 0.32105 0.50707 0.16631 0.0
H541 H 0.34692 0.51091 0.25249 0.0
H542 H 0.39162 0.48222 0.12911 0.0
H543 H 0.36594 0.47837 0.04381 0.0
H544 H 0.39579 0.4672 0.24893 0.0
H545 H 0.39078 0.53618 0.16151 0.0
H546 H 0.37208 0.56752 0.13239 0.0
H547 H 0.35243 0.57413 0.33084 0.0
H548 H 0.37085 0.54269 0.36088 0.0
H549 H 0.48519 0.48745 0.4361 0.0
H550 H 0.45933 0.48509 0.35115 0.0
H551 H 0.42066 0.52615 0.4587 0.0
H552 H 0.44778 0.53116 0.53686 0.0
H553 H 0.41216 0.53413 0.34896 0.0
H554 H 0.41369 0.46642 0.44064 0.0
H555 H 0.43429 0.43756 0.48076 0.0
H556 H 0.4585 0.42837 0.28867 0.0
H557 H 0.43794 0.45715 0.24735 0.0
C558 C 0.33649 0.50199 0.15695 0.0
C559 C 0.34141 0.49305 0.09645 0.0
C560 C 0.35139 0.5041 0.20669 0.0
C561 C 0.37166 0.49708 0.19808 0.0
C562 C 0.37636 0.48791 0.13803 0.0
C563 C 0.36159 0.48593 0.08853 0.0
C564 C 0.38803 0.49917 0.25061 0.0
C565 C 0.39934 0.48192 0.27034 0.0
C566 C 0.39279 0.51807 0.2811 0.0
C567 C 0.38201 0.53705 0.26324 0.0
C568 C 0.38238 0.54429 0.19879 0.0
C569 C 0.37185 0.56206 0.18216 0.0
C570 C 0.36103 0.57279 0.2297 0.0
C571 C 0.36079 0.5658 0.29405 0.0
C572 C 0.37129 0.54803 0.31092 0.0
C573 C 0.47115 0.49593 0.44208 0.0
C574 C 0.46855 0.50877 0.49651 0.0
C575 C 0.45599 0.49432 0.39332 0.0
C576 C 0.43703 0.50457 0.39848 0.0
C577 C 0.43464 0.51761 0.45243 0.0
C578 C 0.45019 0.52002 0.49924 0.0
C579 C 0.41994 0.50215 0.34801 0.0
C580 C 0.4085 0.51932 0.32841 0.0
C581 C 0.41465 0.48308 0.31913 0.0
C582 C 0.42444 0.46397 0.34111 0.0
C583 C 0.42319 0.45803 0.40683 0.0
C584 C 0.43495 0.4418 0.42985 0.0
C585 C 0.44794 0.43139 0.3875 0.0
C586 C 0.44857 0.43661 0.32149 0.0
C587 C 0.43674 0.45277 0.29811 0.0
H588 H 0.4574 0.41916 0.40583 0.0
H589 H 0.35287 0.58653 0.21671 0.0
H590 H 0.01314 0.33129 0.14099 0.0
H591 H 1.00769 0.35684 0.22746 0.0
H592 H 0.06422 0.38664 0.17452 0.0
H593 H 0.06964 0.36126 0.08925 0.0
H594 H 0.06261 0.38686 0.30025 0.0
H595 H 0.01431 0.40657 0.13694 0.0
H596 H 0.98541 0.40174 0.06167 0.0
H597 H 0.94604 0.38669 0.22261 0.0
H598 H 0.97479 0.39121 0.29875 0.0
H599 H 0.04955 0.48142 0.4716 0.0
H600 H 0.05369 0.4547 0.3894 0.0
H601 H 0.99626 0.42782 0.44791 0.0
H602 H 0.99184 0.45482 0.52912 0.0
H603 H 0.99794 0.42527 0.32227 0.0
H604 H 0.04603 0.40694 0.48652 0.0
H605 H 0.07485 0.41228 0.56173 0.0
H606 H 0.11475 0.42472 0.39993 0.0
H607 H 0.08608 0.41976 0.32377 0.0
C608 C 0.02434 0.34335 0.14741 0.0
C609 C 0.04177 0.34418 0.10675 0.0
C610 C 0.0212 0.35814 0.19721 0.0
C611 C 0.0354 0.37423 0.2084 0.0
C612 C 0.05288 0.3747 0.16824 0.0
C613 C 0.05593 0.3601 0.11873 0.0
C614 C 0.03237 0.39054 0.26111 0.0
C615 C 0.04847 0.39532 0.30424 0.0
C616 C 0.01395 0.40174 0.26884 0.0
C617 C 0.99671 0.399 0.22335 0.0
C618 C 0.99951 0.40208 0.15616 0.0
C619 C 0.98317 0.39943 0.11338 0.0
C620 C 0.96392 0.39385 0.13732 0.0
C621 C 0.96096 0.39097 0.20413 0.0
C622 C 0.97727 0.39359 0.24711 0.0
C623 C 0.03777 0.46982 0.46737 0.0
C624 C 0.02041 0.47046 0.5084 0.0
C625 C 0.04022 0.45429 0.42008 0.0
C626 C 0.0255 0.4386 0.41188 0.0
C627 C 1.00803 0.43942 0.4523 0.0
C628 C 1.00556 0.45496 0.49953 0.0
C629 C 0.02816 0.42158 0.36137 0.0
C630 C 0.01204 0.41673 0.31854 0.0
C631 C 0.04657 0.41031 0.35399 0.0
C632 C 0.06388 0.41314 0.3995 0.0
C633 C 0.06093 0.41094 0.46701 0.0
C634 C 0.07723 0.41389 0.50981 0.0
C635 C 0.09661 0.41887 0.48563 0.0
C636 C 0.09972 0.42088 0.41858 0.0
C637 C 0.08346 0.41798 0.37557 0.0
H638 H 0.10922 0.42113 0.51884 0.0
H639 H 0.95127 0.39181 0.10411 0.0
H640 H 0.81841 0.98356 0.07635 0.0
H641 H 0.84811 0.9812 1.00315 0.0
H642 H 0.8807 0.02437 0.12275 0.0
H643 H 0.85104 0.02679 0.1953 0.0
H644 H 0.88344 0.03641 1.00224 0.0
H645 H 0.89396 0.97083 0.10449 0.0
H646 H 0.88535 0.93562 0.13851 0.0
H647 H 0.87448 0.91906 0.93945 0.0
H648 H 0.88277 0.95423 0.90437 0.0
H649 H 0.97625 0.03911 0.82279 0.0
H650 H 0.94973 0.03545 0.90602 0.0
H651 H 0.92559 0.98278 0.80541 0.0
H652 H 0.95381 0.98516 0.72681 0.0
H653 H 0.91788 0.97486 0.91654 0.0
H654 H 0.904 0.03907 0.81178 0.0
H655 H 0.91113 0.07406 0.77225 0.0
H656 H 0.92519 0.09315 0.96697 0.0
H657 H 0.91834 0.05823 0.00744 0.0
C658 C 0.83211 0.99212 0.08805 0.0
C659 C 0.83215 1.0054 0.14213 0.0
C660 C 0.84922 0.9908 0.04583 0.0
C661 C 0.867 1.00267 0.05635 0.0
C662 C 0.86735 0.01509 0.1124 0.0
C663 C 0.85033 0.01635 0.15455 0.0
C664 C 0.88448 1.00363 0.0071 0.0
C665 C 0.8911 0.02287 0.98436 0.0
C666 C 0.89426 0.98616 0.98063 0.0
C667 C 0.88874 0.96521 1.00195 0.0
C668 C 0.8895 0.95974 0.06809 0.0
C669 C 0.88474 0.93977 0.08753 0.0
C670 C 0.87931 0.92513 0.0412 0.0
C671 C 0.87864 0.93042 0.97531 0.0
C672 C 0.88337 0.95036 0.95564 0.0
C673 C 0.96532 0.02669 0.81868 0.0
C674 C 0.96719 0.0125 0.76774 0.0
C675 C 0.94975 0.02474 0.86607 0.0
C676 C 0.9346 1.00926 0.8622 0.0
C677 C 0.93666 0.995 0.81092 0.0
C678 C 0.95283 0.99642 0.76524 0.0
C679 C 0.91694 1.00776 0.91129 0.0
C680 C 0.91023 0.98844 0.93402 0.0
C681 C 0.90666 0.02516 0.93673 0.0
C682 C 0.91085 0.04606 0.91244 0.0
C683 C 0.90872 0.05073 0.84602 0.0
C684 C 0.9127 0.07054 0.82349 0.0
C685 C 0.91866 0.0858 0.86704 0.0
C686 C 0.9206 0.08131 0.93326 0.0
C687 C 0.91666 0.06153 0.95603 0.0
H688 H 0.92172 0.10113 0.8495 0.0
H689 H 0.87568 0.90967 0.05634 0.0
H690 H 0.55221 0.82648 0.09677 0.0
H691 H 0.55472 0.85543 0.02015 0.0
H692 H 0.5043 0.88453 0.11733 0.0
H693 H 0.50186 0.85581 0.1934 0.0
H694 H 0.49676 0.88462 0.99327 0.0
H695 H 0.55593 0.90381 0.1173 0.0
H696 H 0.59001 0.90052 0.16689 0.0
H697 H 0.61639 0.88955 0.9787 0.0
H698 H 0.58241 0.89252 0.92807 0.0
H699 H 0.49844 0.98282 0.83931 0.0
H700 H 0.50252 0.9551 0.91866 0.0
H701 H 0.54362 0.92441 0.78795 0.0
H702 H 0.53907 0.95192 0.70709 0.0
H703 H 0.55759 0.92477 0.92449 0.0
H704 H 0.50025 0.903 0.80117 0.0
H705 H 0.467 0.90586 0.74657 0.0
H706 H 0.4384 0.92113 0.92827 0.0
H707 H 0.47158 0.918 0.98433 0.0
C708 C 0.54209 0.83935 0.10314 0.0
C709 C 0.52692 0.83867 0.15224 0.0
C710 C 0.54346 0.856 0.0588 0.0
C711 C 0.52964 0.87252 0.0618 0.0
C712 C 0.51515 0.87218 0.11277 0.0
C713 C 0.51388 0.8557 0.15709 0.0
C714 C 0.52894 0.88922 0.00975 0.0
C715 C 0.51013 0.8935 0.97946 0.0
C716 C 0.54631 0.90067 0.98842 0.0
C717 C 0.56658 0.89809 0.01905 0.0
C718 C 0.56895 0.9004 0.08661 0.0
C719 C 0.58826 0.89867 0.11488 0.0
C720 C 0.60534 0.89472 0.07602 0.0
C721 C 0.60314 0.8925 0.00879 0.0
C722 C 0.58386 0.89421 0.98029 0.0
C723 C 0.50833 0.97019 0.82703 0.0
C724 C 0.51835 0.96979 0.7661 0.0
C725 C 0.51069 0.95425 0.87285 0.0
C726 C 0.52349 0.93745 0.86024 0.0
C727 C 0.53374 0.9371 0.79972 0.0
C728 C 0.53101 0.95286 0.75309 0.0
C729 C 0.52542 0.92013 0.90943 0.0
C730 C 0.54433 0.91579 0.93883 0.0
C731 C 0.50827 0.90841 0.92972 0.0
C732 C 0.48837 0.91054 0.89668 0.0
C733 C 0.48689 0.90716 0.82935 0.0
C734 C 0.46806 0.90881 0.79815 0.0
C735 C 0.45061 0.91397 0.83367 0.0
C736 C 0.45195 0.91725 0.90073 0.0
C737 C 0.47074 0.91544 0.93233 0.0
H738 H 0.43604 0.9153 0.80931 0.0
H739 H 0.62029 0.89349 0.09796 0.0
H740 H 0.69012 0.49576 0.13681 0.0
H741 H 0.66164 0.49933 0.06133 0.0
H742 H 0.66556 0.56481 0.07748 0.0
H743 H 0.69482 0.56123 0.1529 0.0
H744 H 0.62218 0.54748 0.07316 0.0
H745 H 0.68264 0.54904 0.94871 0.0
H746 H 0.71721 0.53864 0.91522 0.0
H747 H 0.69435 0.47933 0.8624 0.0
H748 H 0.65964 0.48929 0.89677 0.0
H749 H 0.55591 0.55605 0.79337 0.0
H750 H 0.58336 0.5603 0.87281 0.0
H751 H 0.60189 0.498 0.84089 0.0
H752 H 0.57492 0.49403 0.75938 0.0
H753 H 0.63462 0.51845 0.85394 0.0
H754 H 0.57271 0.51929 0.98898 0.0
H755 H 0.53898 0.53314 0.0192 0.0
H756 H 0.56559 0.59271 0.04459 0.0
H757 H 0.59947 0.57919 0.01482 0.0
C758 C 0.68471 0.51099 0.12578 0.0
C759 C 0.69466 0.52812 0.15315 0.0
C760 C 0.66835 0.51303 0.08192 0.0
C761 C 0.66104 0.53232 0.06309 0.0
C762 C 0.67054 0.54965 0.09127 0.0
C763 C 0.68733 0.5476 0.13484 0.0
C764 C 0.64464 0.53381 0.01064 0.0
C765 C 0.62504 0.54138 0.025 0.0
C766 C 0.64791 0.52593 0.94717 0.0
C767 C 0.66861 0.51982 0.92593 0.0
C768 C 0.68502 0.53371 0.9305 0.0
C769 C 0.70463 0.52792 0.91129 0.0
C770 C 0.70799 0.50831 0.88686 0.0
C771 C 0.69172 0.4945 0.88144 0.0
C772 C 0.67207 0.50021 0.90076 0.0
C773 C 0.56579 0.54319 0.80314 0.0
C774 C 0.56288 0.52463 0.76933 0.0
C775 C 0.58155 0.54558 0.84962 0.0
C776 C 0.59485 0.52936 0.86547 0.0
C777 C 0.59207 0.5109 0.83093 0.0
C778 C 0.57646 0.50858 0.78392 0.0
C779 C 0.61175 0.5315 0.91658 0.0
C780 C 0.6316 0.52455 0.90199 0.0
C781 C 0.60874 0.54038 0.97925 0.0
C782 C 0.58856 0.54826 0.99943 0.0
C783 C 0.57134 0.53532 1.00112 0.0
C784 C 0.55221 0.54312 0.01808 0.0
C785 C 0.55014 0.56379 0.03355 0.0
C786 C 0.56722 0.57669 0.03264 0.0
C787 C 0.5864 0.56897 0.01599 0.0
H788 H 0.53529 0.5698 0.04635 0.0
H789 H 0.72319 0.50385 0.87197 0.0
H790 H 0.97367 0.70801 0.11424 0.0
H791 H 0.97079 0.67907 0.03796 0.0
H792 H 0.0257 0.65324 0.11763 0.0
H793 H 0.02843 0.68174 0.19362 0.0
H794 H 0.02827 0.65591 0.98625 0.0
H795 H 0.97686 0.63106 0.13915 0.0
H796 H 0.94436 0.63212 0.20012 0.0
H797 H 0.91118 0.63782 0.02104 0.0
H798 H 0.9435 0.63706 0.95909 0.0
H799 H 0.03845 0.56446 0.80766 0.0
H800 H 0.03521 0.59095 0.89013 0.0
H801 H 0.97155 0.598 0.84111 0.0
H802 H 0.97448 0.56964 0.76355 0.0
H803 H 0.97141 0.60683 0.95332 0.0
H804 H 0.01812 0.63403 0.79792 0.0
H805 H 0.04845 0.63596 0.72661 0.0
H806 H 0.08765 0.63139 0.89324 0.0
H807 H 0.05754 0.62917 0.96543 0.0
C808 C 0.98475 0.69584 0.11702 0.0
C809 C 1.00111 0.69728 0.16163 0.0
C810 C 0.98317 0.67922 0.07281 0.0
C811 C 0.99805 0.66363 0.07108 0.0
C812 C 0.01394 0.66482 0.11704 0.0
C813 C 0.01539 0.6812 0.16133 0.0
C814 C 0.99835 0.647 0.01908 0.0
C815 C 0.01587 0.64505 0.97975 0.0
C816 C 0.98192 0.63323 0.00708 0.0
C817 C 0.96262 0.63426 0.0446 0.0
C818 C 0.96266 0.6328 0.11286 0.0
C819 C 0.94426 0.63328 0.14757 0.0
C820 C 0.92573 0.63512 0.11449 0.0
C821 C 0.92555 0.63646 0.04662 0.0
C822 C 0.94389 0.636 0.01171 0.0
C823 C 0.02373 0.57165 0.81448 0.0
C824 C 1.00677 0.56484 0.77832 0.0
C825 C 0.02188 0.58723 0.86149 0.0
C826 C 1.00327 0.59768 0.87173 0.0
C827 C 0.98624 0.5907 0.83542 0.0
C828 C 0.9879 0.5744 0.79034 0.0
C829 C 1.00159 0.61542 0.9204 0.0
C830 C 0.98384 0.61767 0.95913 0.0
C831 C 0.01749 0.63009 0.93016 0.0
C832 C 0.0356 0.63125 0.88693 0.0
C833 C 0.03321 0.63331 0.81925 0.0
C834 C 0.05036 0.63447 0.77871 0.0
C835 C 0.06997 0.63376 0.80536 0.0
C836 C 0.07246 0.63192 0.87264 0.0
C837 C 0.05537 0.63072 0.9134 0.0
H838 H 0.08323 0.63468 0.77389 0.0
H839 H 0.9115 0.63543 0.14145 0.0
H840 H 0.07602 0.24148 0.12655 0.0
H841 H 0.07679 0.21266 0.20234 0.0
H842 H 0.02004 0.23276 0.28732 0.0
H843 H 0.01874 0.26117 0.20954 0.0
H844 H 0.06651 0.20704 0.35493 0.0
H845 H 0.9977 0.20773 0.2225 0.0
H846 H 0.98259 0.21431 0.11447 0.0
H847 H 0.02959 0.17862 0.02411 0.0
H848 H 0.04516 0.17218 0.1317 0.0
H849 H 0.99819 0.14752 0.52261 0.0
H850 H 0.021 0.17026 0.46284 0.0
H851 H 0.02949 0.12403 0.31566 0.0
H852 H 1.00587 0.1014 0.37455 0.0
H853 H 0.01673 0.15751 0.26255 0.0
H854 H 0.07181 0.1428 0.39927 0.0
H855 H 0.09122 0.1356 0.49927 0.0
H856 H 0.07695 0.19528 0.57246 0.0
H857 H 0.05726 0.20275 0.47325 0.0
C858 C 0.06431 0.24031 0.16384 0.0
C859 C 0.04718 0.25314 0.16252 0.0
C860 C 0.06472 0.22386 0.2065 0.0
C861 C 0.04826 0.22065 0.2486 0.0
C862 C 0.03272 0.23519 0.25411 0.0
C863 C 0.0321 0.25147 0.21057 0.0
C864 C 0.04539 0.20061 0.27791 0.0
C865 C 0.05566 0.19609 0.33537 0.0
C866 C 0.03226 0.1861 0.24903 0.0
C867 C 0.02269 0.1897 0.1848 0.0
C868 C 1.00485 0.20141 0.17951 0.0
C869 C 0.99622 0.20512 0.11841 0.0
C870 C 1.00517 0.19695 0.06244 0.0
C871 C 0.02273 0.185 0.06748 0.0
C872 C 0.03149 0.18137 0.12845 0.0
C873 C 1.00524 0.1421 0.47817 0.0
C874 C 1.00008 0.12298 0.45242 0.0
C875 C 0.01853 0.15494 0.44454 0.0
C876 C 0.02706 0.14871 0.38512 0.0
C877 C 0.02311 0.12899 0.36168 0.0
C878 C 0.0097 0.11612 0.39532 0.0
C879 C 0.03683 0.16419 0.34329 0.0
C880 C 0.02801 0.16799 0.28228 0.0
C881 C 0.0517 0.1778 0.36832 0.0
C882 C 0.06305 0.17329 0.42887 0.0
C883 C 0.07268 0.15431 0.43695 0.0
C884 C 0.08376 0.15021 0.49344 0.0
C885 C 0.08532 0.16497 0.54221 0.0
C886 C 0.07576 0.18387 0.53462 0.0
C887 C 0.06467 0.18806 0.47819 0.0
H888 H 0.09394 0.16177 0.58587 0.0
H889 H 0.99848 0.19984 0.01521 0.0
H890 H 0.26515 0.07783 0.21935 0.0
H891 H 0.28786 0.06695 0.30891 0.0
H892 H 0.32135 0.02934 0.17272 0.0
H893 H 0.29729 0.03722 0.08992 0.0
H894 H 0.31977 1.01 0.2717 0.0
H895 H 0.33559 0.08365 0.22526 0.0
H896 H 0.32432 0.11962 0.22445 0.0
H897 H 0.30877 0.11523 0.42734 0.0
H898 H 0.31986 0.0792 0.42897 0.0
H899 H 0.42367 0.01583 0.26386 0.0
H900 H 0.39084 0.03348 0.25506 0.0
H901 H 0.37792 0.01999 0.45678 0.0
H902 H 0.41098 1.00277 0.46622 0.0
H903 H 0.36277 0.06342 0.37523 0.0
H904 H 0.36134 0.98411 0.38687 0.0
H905 H 0.38028 0.95409 0.34663 0.0
H906 H 0.37607 0.97684 0.15086 0.0
H907 H 0.35724 1.00697 0.1901 0.0
C908 C 0.27741 0.06721 0.2097 0.0
C909 C 0.28051 0.0595 0.14683 0.0
C910 C 0.29032 0.06102 0.26042 0.0
C911 C 0.30654 0.04753 0.2476 0.0
C912 C 0.30899 0.03963 0.18484 0.0
C913 C 0.29569 0.04486 0.13623 0.0
C914 C 0.32218 0.04204 0.29606 0.0
C915 C 0.32882 0.02166 0.29593 0.0
C916 C 0.33413 0.05713 0.32756 0.0
C917 C 0.3284 0.07887 0.32719 0.0
C918 C 0.32984 0.09045 0.26965 0.0
C919 C 0.32344 0.11079 0.26901 0.0
C920 C 0.3158 0.1197 0.32579 0.0
C921 C 0.31467 0.10832 0.38341 0.0
C922 C 0.32102 0.08796 0.38426 0.0
C923 C 0.41387 0.01692 0.30628 0.0
C924 C 0.41922 1.00753 0.36499 0.0
C925 C 0.39549 0.02735 0.30175 0.0
C926 C 0.38228 0.02802 0.35556 0.0
C927 C 0.38822 0.01983 0.4154 0.0
C928 C 0.40676 1.00969 0.42023 0.0
C929 C 0.36073 0.0321 0.34412 0.0
C930 C 0.35309 0.05177 0.35365 0.0
C931 C 0.34856 0.01688 0.31492 0.0
C932 C 0.35766 0.99756 0.29135 0.0
C933 C 0.36422 0.9825 0.33522 0.0
C934 C 0.37503 0.96555 0.31259 0.0
C935 C 0.3793 0.96352 0.24621 0.0
C936 C 0.37263 0.97834 0.20219 0.0
C937 C 0.3618 0.99529 0.22455 0.0
H938 H 0.38784 0.95049 0.22892 0.0
H939 H 0.31077 0.13542 0.32517 0.0
H940 H 0.4908 0.31263 0.06369 0.0
H941 H 0.4953 0.33858 0.14364 0.0
H942 H 0.47552 0.2968 0.29468 0.0
H943 H 0.46834 0.27063 0.21152 0.0
H944 H 0.45888 0.33379 0.30684 0.0
H945 H 0.52772 0.31014 0.27315 0.0
H946 H 0.55671 0.29932 0.20468 0.0
H947 H 0.55871 0.35853 0.11413 0.0
H948 H 0.52965 0.36966 0.18158 0.0
H949 H 0.51376 0.39699 0.53354 0.0
H950 H 0.49305 0.37295 0.47104 0.0
H951 H 0.49979 0.41107 0.30058 0.0
H952 H 0.52052 0.43517 0.36281 0.0
H953 H 0.52332 0.37409 0.30648 0.0
H954 H 0.44808 0.38893 0.29508 0.0
H955 H 0.41502 0.39929 0.34269 0.0
H956 H 0.4246 0.35863 0.50421 0.0
H957 H 0.45759 0.34793 0.45678 0.0
C958 C 0.48665 0.30889 0.11345 0.0
C959 C 0.47838 0.28973 0.13105 0.0
C960 C 0.48991 0.32368 0.15948 0.0
C961 C 0.48642 0.31931 0.225 0.0
C962 C 0.47853 0.30018 0.24389 0.0
C963 C 0.47447 0.28534 0.1968 0.0
C964 C 0.48994 0.33563 0.27198 0.0
C965 C 0.47318 0.34226 0.3084 0.0
C966 C 0.50833 0.34711 0.27115 0.0
C967 C 0.52653 0.34075 0.23277 0.0
C968 C 0.53438 0.32087 0.23879 0.0
C969 C 0.55081 0.31468 0.20005 0.0
C970 C 0.55956 0.32824 0.15517 0.0
C971 C 0.55197 0.34806 0.14911 0.0
C972 C 0.53558 0.35435 0.1878 0.0
C973 C 0.51002 0.40063 0.48352 0.0
C974 C 0.51908 0.41745 0.45218 0.0
C975 C 0.49794 0.38711 0.44821 0.0
C976 C 0.49513 0.3903 0.38144 0.0
C977 C 0.50178 0.40856 0.35235 0.0
C978 C 0.51371 0.42219 0.38777 0.0
C979 C 0.49213 0.37232 0.34058 0.0
C980 C 0.50916 0.36536 0.30576 0.0
C981 C 0.47407 0.36065 0.34223 0.0
C982 C 0.45532 0.36807 0.37347 0.0
C983 C 0.44316 0.38244 0.34115 0.0
C984 C 0.4244 0.38822 0.36775 0.0
C985 C 0.41779 0.37975 0.42673 0.0
C986 C 0.42983 0.36533 0.45889 0.0
C987 C 0.44853 0.35939 0.43216 0.0
H988 H 0.40327 0.38427 0.44732 0.0
H989 H 0.57222 0.32338 0.12504 0.0
H990 H 0.25931 0.50315 0.20295 0.0
H991 H 0.23129 0.50179 0.28124 0.0
H992 H 0.20618 0.44909 0.18365 0.0
H993 H 0.2347 0.44986 0.10652 0.0
H994 H 0.18416 0.48931 0.17722 0.0
H995 H 0.21136 0.44079 0.32691 0.0
H996 H 0.24026 0.42689 0.38919 0.0
H997 H 0.2441 0.48246 0.49937 0.0
H998 H 0.21543 0.49683 0.43685 0.0
H999 H 0.09721 0.51956 0.35461 0.0
H1000 H 0.12254 0.49523 0.31448 0.0
H1001 H 0.17036 0.52961 0.40944 0.0
H1002 H 0.14506 0.55372 0.45072 0.0
H1003 H 0.17666 0.48836 0.41769 0.0
H1004 H 0.15974 0.53982 0.26031 0.0
H1005 H 0.13718 0.56005 0.18952 0.0
H1006 H 0.11971 0.50567 0.08676 0.0
H1007 H 0.14184 0.48501 0.15816 0.0
C1008 C 0.2486 0.49048 0.20087 0.0
C1009 C 0.24883 0.47678 0.14864 0.0
C1010 C 0.23253 0.48981 0.24516 0.0
C1011 C 0.21675 0.47546 0.23712 0.0
C1012 C 0.21835 0.46018 0.19009 0.0
C1013 C 0.23461 0.46062 0.14653 0.0
C1014 C 0.1971 0.47942 0.26824 0.0
C1015 C 0.18199 0.48836 0.22957 0.0
C1016 C 0.19505 0.47888 0.33635 0.0
C1017 C 0.21119 0.46982 0.37749 0.0
C1018 C 0.21832 0.45 0.36464 0.0
C1019 C 0.2347 0.44207 0.3998 0.0
C1020 C 0.24399 0.45377 0.4483 0.0
C1021 C 0.23684 0.47339 0.46194 0.0
C1022 C 0.22048 0.48142 0.42677 0.0
C1023 C 0.11312 0.52173 0.36744 0.0
C1024 C 0.1194 0.53863 0.40453 0.0
C1025 C 0.12746 0.50783 0.34489 0.0
C1026 C 0.14818 0.51078 0.35909 0.0
C1027 C 0.15435 0.52713 0.39846 0.0
C1028 C 0.14003 0.54104 0.42092 0.0
C1029 C 0.16376 0.49846 0.32669 0.0
C1030 C 0.17817 0.48826 0.3651 0.0
C1031 C 0.16557 0.49846 0.25809 0.0
C1032 C 0.1521 0.5108 0.21548 0.0
C1033 C 0.15086 0.53212 0.22327 0.0
C1034 C 0.13819 0.54368 0.18294 0.0
C1035 C 0.12693 0.53413 0.1339 0.0
C1036 C 0.12836 0.51302 0.12502 0.0
C1037 C 0.14092 0.50137 0.1655 0.0
H1038 H 0.11716 0.54311 0.1026 0.0
H1039 H 0.25675 0.44764 0.47527 0.0
H1040 H 0.93933 0.80137 0.17339 0.0
H1041 H 0.94401 0.82993 0.09742 0.0
H1042 H 0.99466 0.79867 0.00843 0.0
H1043 H 0.99017 0.77026 0.08359 0.0
H1044 H 1.0003 0.83782 0.09742 0.0
H1045 H 0.96885 0.80818 0.90117 0.0
H1046 H 0.93889 0.79064 0.85406 0.0
H1047 H 0.90058 0.84064 0.91096 0.0
H1048 H 0.93038 0.85838 0.95872 0.0
H1049 H 0.05472 0.88688 0.86207 0.0
H1050 H 0.03103 0.86244 0.91068 0.0
H1051 H 0.98827 0.91075 0.95025 0.0
H1052 H 0.01208 0.93565 0.90305 0.0
H1053 H 0.97276 0.86807 0.89402 0.0
H1054 H 1.00609 0.90138 0.0737 0.0
H1055 H 0.03572 0.91742 0.1275 0.0
H1056 H 0.0687 0.86101 0.11498 0.0
H1057 H 0.0393 0.8447 0.06044 0.0
C1058 C 0.95057 0.80008 0.13484 0.0
C1059 C 0.96462 0.78391 0.13477 0.0
C1060 C 0.95332 0.8164 0.09206 0.0
C1061 C 0.96986 0.81627 0.04887 0.0
C1062 C 0.98183 0.79879 0.04193 0.0
C1063 C 0.97907 0.78248 0.08439 0.0
C1064 C 0.97753 0.83549 0.02217 0.0
C1065 C 0.99409 0.8447 0.05369 0.0
C1066 C 0.96917 0.8443 0.96596 0.0
C1067 C 0.95172 0.8346 0.93286 0.0
C1068 C 0.95403 0.81546 0.90304 0.0
C1069 C 0.9371 0.80547 0.87648 0.0
C1070 C 0.91784 0.81454 0.87939 0.0
C1071 C 0.91551 0.83368 0.90852 0.0
C1072 C 0.93242 0.84374 0.93513 0.0
C1073 C 0.04032 0.89239 0.88103 0.0
C1074 C 0.03531 0.91319 0.87863 0.0
C1075 C 0.02674 0.87839 0.90788 0.0
C1076 C 1.00803 0.88499 0.93313 0.0
C1077 C 1.0026 0.90556 0.92979 0.0
C1078 C 0.01625 0.91966 0.90301 0.0
C1079 C 0.99554 0.8704 0.96946 0.0
C1080 C 0.97828 0.86185 0.93967 0.0
C1081 C 1.003 0.86238 0.02849 0.0
C1082 C 0.02054 0.87186 0.06282 0.0
C1083 C 0.0197 0.89243 0.08221 0.0
C1084 C 0.03644 0.90156 0.11287 0.0
C1085 C 0.05409 0.89025 0.12459 0.0
C1086 C 0.055 0.86975 0.10592 0.0
C1087 C 0.03829 0.86053 0.07529 0.0
H1088 H 0.06706 0.89736 0.1482 0.0
H1089 H 0.90472 0.80672 0.85916 0.0
H1090 H 0.76592 0.96833 0.07466 0.0
H1091 H 0.74128 0.97427 0.98929 0.0
H1092 H 0.6922 0.96837 0.12834 0.0
H1093 H 0.71546 0.96147 0.21211 0.0
H1094 H 0.68054 0.95395 0.01966 0.0
H1095 H 0.71534 0.01464 0.098 0.0
H1096 H 0.74379 0.0388 0.11627 0.0
H1097 H 0.75486 0.04206 0.91034 0.0
H1098 H 0.7266 0.01768 0.89103 0.0
H1099 H 0.60874 0.03416 0.02353 0.0
H1100 H 0.639 0.01301 0.04268 0.0
H1101 H 0.65172 0.01246 0.83653 0.0
H1102 H 0.62127 0.03336 0.81702 0.0
H1103 H 0.68505 0.02495 0.93553 0.0
H1104 H 0.63558 0.97078 0.88285 0.0
H1105 H 0.60259 0.9528 0.89706 0.0
H1106 H 0.61503 0.94443 0.10044 0.0
H1107 H 0.64792 0.96256 0.08766 0.0
C1108 C 0.74998 0.9678 0.08804 0.0
C1109 C 0.74345 0.96563 0.15353 0.0
C1110 C 0.73587 0.97125 0.03828 0.0
C1111 C 0.71503 0.97233 0.05294 0.0
C1112 C 0.7083 0.9677 0.11579 0.0
C1113 C 0.72216 0.96397 0.16488 0.0
C1114 C 0.69996 0.98033 0.00656 0.0
C1115 C 0.68164 0.96934 1.00004 0.0
C1116 C 0.70144 1.00045 0.98135 0.0
C1117 C 0.71927 0.01393 0.99319 0.0
C1118 C 0.72411 0.0202 0.05675 0.0
C1119 C 0.74012 0.03402 0.06727 0.0
C1120 C 0.75123 0.04185 0.01453 0.0
C1121 C 0.74635 0.03587 0.95117 0.0
C1122 C 0.73038 0.02201 0.94042 0.0
C1123 C 0.61819 0.02972 0.98263 0.0
C1124 C 0.61307 0.0355 0.91909 0.0
C1125 C 0.63519 0.0175 0.99338 0.0
C1126 C 0.64722 0.01113 0.9407 0.0
C1127 C 0.64238 0.0172 0.87734 0.0
C1128 C 0.62521 0.02917 0.86646 0.0
C1129 C 0.66549 0.99899 0.95301 0.0
C1130 C 0.68432 1.00919 0.95211 0.0
C1131 C 0.66406 0.97879 0.97666 0.0
C1132 C 0.64419 0.96803 0.98418 0.0
C1133 C 0.6312 0.96522 0.93063 0.0
C1134 C 0.61254 0.95498 0.93846 0.0
C1135 C 0.60671 0.94753 0.99962 0.0
C1136 C 0.61955 0.95022 0.0531 0.0
C1137 C 0.63821 0.96044 0.04555 0.0
H1138 H 0.59223 0.93967 1.00557 0.0
H1139 H 0.76354 0.05264 0.02272 0.0
H1140 H 0.54655 0.76992 0.08134 0.0
H1141 H 0.54333 0.7429 1.00194 0.0
H1142 H 0.58327 0.70477 0.11577 0.0
H1143 H 0.58769 0.7324 0.19413 0.0
H1144 H 0.58266 0.69288 0.98906 0.0
H1145 H 0.535 0.70359 0.15963 0.0
H1146 H 0.51019 0.71987 0.23225 0.0
H1147 H 0.47331 0.73677 0.06857 0.0
H1148 H 0.49784 0.72007 0.99453 0.0
H1149 H 0.5209 0.60056 0.96032 0.0
H1150 H 0.54293 0.62939 0.99241 0.0
H1151 H 0.50771 0.66969 0.86989 0.0
H1152 H 0.48552 0.64104 0.83934 0.0
H1153 H 0.50801 0.67951 0.99975 0.0
H1154 H 0.55757 0.66047 0.8334 0.0
H1155 H 0.58163 0.63709 0.77921 0.0
H1156 H 0.61461 0.62979 0.95813 0.0
H1157 H 0.59065 0.65301 0.01341 0.0
C1158 C 0.55584 0.75642 0.08757 0.0
C1159 C 0.56678 0.75294 0.1453 0.0
C1160 C 0.55374 0.74084 0.04232 0.0
C1161 C 0.56236 0.72171 0.05491 0.0
C1162 C 0.57624 0.71942 0.1061 0.0
C1163 C 0.5787 0.73519 0.15084 0.0
C1164 C 0.55357 0.70354 0.02385 0.0
C1165 C 0.56635 0.6899 0.99109 0.0
C1166 C 0.53236 0.69948 0.02831 0.0
C1167 C 0.51848 0.71104 0.07153 0.0
C1168 C 0.52182 0.71113 0.13898 0.0
C1169 C 0.50773 0.72036 0.18048 0.0
C1170 C 0.49032 0.72971 0.15523 0.0
C1171 C 0.48689 0.7297 0.08813 0.0
C1172 C 0.50085 0.7203 0.04634 0.0
C1173 C 0.51805 0.61565 0.94057 0.0
C1174 C 0.50134 0.61911 0.89967 0.0
C1175 C 0.53077 0.6319 0.95769 0.0
C1176 C 0.52692 0.65149 0.93293 0.0
C1177 C 0.51086 0.65458 0.88903 0.0
C1178 C 0.49809 0.63843 0.87251 0.0
C1179 C 0.53688 0.66937 0.9617 0.0
C1180 C 0.52426 0.68275 0.99578 0.0
C1181 C 0.55822 0.67259 0.96041 0.0
C1182 C 0.57228 0.65834 0.92751 0.0
C1183 C 0.56985 0.65372 0.86126 0.0
C1184 C 0.5835 0.64055 0.83033 0.0
C1185 C 0.59962 0.63194 0.86522 0.0
C1186 C 0.60212 0.63647 0.93114 0.0
C1187 C 0.58854 0.64965 0.96224 0.0
H1188 H 0.6102 0.62178 0.84114 0.0
H1189 H 0.4794 0.73677 0.18767 0.0
H1190 H 0.80033 0.59192 0.18664 0.0
H1191 H 0.82848 0.58767 0.1097 0.0
H1192 H 0.79255 0.54391 1.00208 0.0
H1193 H 0.76492 0.54724 0.08004 0.0
H1194 H 0.82667 0.5275 0.06259 0.0
H1195 H 0.80974 0.58675 0.92805 0.0
H1196 H 0.80165 0.62344 0.91993 0.0
H1197 H 0.85977 0.63866 1.00404 0.0
H1198 H 0.86807 0.60201 0.01322 0.0
H1199 H 0.87864 0.49883 0.78424 0.0
H1200 H 0.85605 0.52067 0.84766 0.0
H1201 H 0.90602 0.5372 0.97341 0.0
H1202 H 0.92856 0.51439 0.91323 0.0
H1203 H 0.87009 0.57029 0.91708 0.0
H1204 H 0.88751 0.5127 0.05568 0.0
H1205 H 0.89554 0.47642 0.07529 0.0
H1206 H 0.83727 0.45877 0.99736 0.0
H1207 H 0.8291 0.49498 0.97613 0.0
C1208 C 0.7981 0.58215 0.14473 0.0
C1209 C 0.78077 0.56941 0.14046 0.0
C1210 C 0.81419 0.57972 0.10097 0.0
C1211 C 0.81261 0.5651 0.05157 0.0
C1212 C 0.79399 0.55506 0.04074 0.0
C1213 C 0.77808 0.55724 0.08491 0.0
C1214 C 0.83106 0.55735 0.01959 0.0
C1215 C 0.83608 0.53684 0.03047 0.0
C1216 C 0.84387 0.56984 0.98091 0.0
C1217 C 0.8395 0.59175 0.97126 0.0
C1218 C 0.82079 0.59796 0.94456 0.0
C1219 C 0.81616 0.61872 0.93992 0.0
C1220 C 0.83018 0.63338 0.96145 0.0
C1221 C 0.84894 0.6273 0.98726 0.0
C1222 C 0.85364 0.60654 0.99202 0.0
C1223 C 0.88488 0.50709 0.82529 0.0
C1224 C 0.90531 0.50462 0.84412 0.0
C1225 C 0.87206 0.51979 0.86066 0.0
C1226 C 0.87958 0.53046 0.91451 0.0
C1227 C 0.90018 0.52915 0.93131 0.0
C1228 C 0.91297 0.51612 0.89673 0.0
C1229 C 0.865 0.54031 0.95804 0.0
C1230 C 0.86078 0.56112 0.9499 0.0
C1231 C 0.85308 0.52823 1.00065 0.0
C1232 C 0.85784 0.50647 0.01344 0.0
C1233 C 0.87653 0.50105 0.04197 0.0
C1234 C 0.88109 0.48052 0.05354 0.0
C1235 C 0.86696 0.46529 0.03732 0.0
C1236 C 0.84823 0.47058 0.00969 0.0
C1237 C 0.84363 0.4911 0.99787 0.0
H1238 H 0.8705 0.4494 0.04636 0.0
H1239 H 0.82652 0.64946 0.95814 0.0
H1240 H 0.01509 0.25295 0.86748 0.0
H1241 H 0.01429 0.22241 0.799 0.0
H1242 H 0.0603 0.19503 0.92189 0.0
H1243 H 0.06482 0.22679 0.97536 0.0
H1244 H 0.06429 0.1733 0.84622 0.0
H1245 H 0.99142 0.18839 0.89348 0.0
H1246 H 0.96014 0.20924 0.88671 0.0
H1247 H 0.96541 0.21092 0.67826 0.0
H1248 H 0.99677 0.19023 0.68404 0.0
H1249 H 0.02903 0.06992 0.7982 0.0
H1250 H 0.03319 0.10473 0.83901 0.0
H1251 H 0.01993 0.12854 0.6482 0.0
H1252 H 0.01623 0.09356 0.60672 0.0
H1253 H 1.00003 0.15085 0.74271 0.0
H1254 H 0.07009 0.12637 0.71548 0.0
H1255 H 0.09865 0.10297 0.7385 0.0
H1256 H 0.09333 0.11562 0.94278 0.0
H1257 H 0.06453 0.13878 0.92115 0.0
C1258 C 0.02561 0.24066 0.8777 0.0
C1259 C 0.03954 0.24259 0.92956 0.0
C1260 C 0.02452 0.22235 0.83996 0.0
C1261 C 0.03606 0.20453 0.8559 0.0
C1262 C 0.05075 0.20739 0.90539 0.0
C1263 C 0.05312 0.22604 0.93823 0.0
C1264 C 0.03345 0.18312 0.82362 0.0
C1265 C 0.04967 0.16878 0.82653 0.0
C1266 C 0.01524 0.17585 0.79261 0.0
C1267 C 0.99647 0.18809 0.78928 0.0
C1268 C 0.98587 0.19328 0.84634 0.0
C1269 C 0.96816 0.20506 0.84265 0.0
C1270 C 0.96083 0.21147 0.78211 0.0
C1271 C 0.97113 0.20601 0.7251 0.0
C1272 C 0.98885 0.19428 0.72854 0.0
C1273 C 0.02733 0.08241 0.76431 0.0
C1274 C 0.02269 0.07846 0.69839 0.0
C1275 C 0.02964 0.10257 0.78803 0.0
C1276 C 0.0272 0.11974 0.74702 0.0
C1277 C 0.02207 0.11586 0.68148 0.0
C1278 C 0.02 0.09566 0.65754 0.0
C1279 C 0.02996 0.14154 0.77222 0.0
C1280 C 0.01407 0.15579 0.76592 0.0
C1281 C 0.04791 0.14831 0.80423 0.0
C1282 C 0.06517 0.13429 0.81666 0.0
C1283 C 0.07495 0.12407 0.7653 0.0
C1284 C 0.09118 0.11086 0.77812 0.0
C1285 C 0.09789 0.10796 0.84197 0.0
C1286 C 0.0882 0.11799 0.8933 0.0
C1287 C 0.07193 0.13114 0.8808 0.0
H1288 H 0.11066 0.098 0.85167 0.0
H1289 H 0.94714 0.22061 0.77935 0.0
H1290 H 0.31529 0.05547 0.0153 0.0
H1291 H 0.34549 0.05055 0.95293 0.0
H1292 H 0.3096 0.03439 0.78569 0.0
H1293 H 0.27781 0.03985 0.84945 0.0
H1294 H 0.34588 1.00898 0.80232 0.0
H1295 H 0.33283 0.08047 0.78742 0.0
H1296 H 0.32405 0.11486 0.82697 0.0
H1297 H 0.37647 0.11461 0.9521 0.0
H1298 H 0.38541 0.08007 0.91399 0.0
H1299 H 0.44063 0.02255 0.61221 0.0
H1300 H 0.40518 0.02623 0.65062 0.0
H1301 H 0.42686 0.03683 0.84515 0.0
H1302 H 0.4619 0.03145 0.80862 0.0
H1303 H 0.39586 0.06629 0.79946 0.0
H1304 H 0.40719 0.99471 0.82382 0.0
H1305 H 0.41691 0.96024 0.7874 0.0
H1306 H 0.36842 0.96074 0.64703 0.0
H1307 H 0.35867 0.99543 0.68185 0.0
C1308 C 0.31302 0.05121 0.96519 0.0
C1309 C 0.29313 0.04886 0.93827 0.0
C1310 C 0.33092 0.04824 0.92906 0.0
C1311 C 0.33033 0.04253 0.86356 0.0
C1312 C 0.31076 0.03906 0.83605 0.0
C1313 C 0.29243 0.0422 0.87279 0.0
C1314 C 0.35044 0.04066 0.8263 0.0
C1315 C 0.35651 0.02173 0.8002 0.0
C1316 C 0.36503 0.05691 0.8248 0.0
C1317 C 0.3597 0.07763 0.84813 0.0
C1318 C 0.3424 0.08768 0.82375 0.0
C1319 C 0.33741 0.10722 0.84585 0.0
C1320 C 0.34968 0.1169 0.8921 0.0
C1321 C 0.36698 0.10708 0.9163 0.0
C1322 C 0.37203 0.08754 0.8944 0.0
C1323 C 0.43795 0.02568 0.66324 0.0
C1324 C 0.45466 0.02732 0.70648 0.0
C1325 C 0.41752 0.02779 0.68527 0.0
C1326 C 0.41304 0.03212 0.75102 0.0
C1327 C 0.42964 0.03381 0.79408 0.0
C1328 C 0.44994 0.03101 0.7726 0.0
C1329 C 0.39123 0.03469 0.77546 0.0
C1330 C 0.38501 0.0537 0.80008 0.0
C1331 C 0.37662 0.01854 0.77572 0.0
C1332 C 0.3824 0.99775 0.75471 0.0
C1333 C 0.39876 0.98757 0.78463 0.0
C1334 C 0.40424 0.96798 0.76441 0.0
C1335 C 0.39334 0.95834 0.71473 0.0
C1336 C 0.37689 0.96825 0.68535 0.0
C1337 C 0.37138 0.98788 0.70529 0.0
H1338 H 0.39761 0.94316 0.69917 0.0
H1339 H 0.3458 0.13204 0.9091 0.0
H1340 H 0.4516 0.29881 0.9071 0.0
H1341 H 0.45603 0.33277 0.86512 0.0
H1342 H 0.52087 0.32255 0.84611 0.0
H1343 H 0.51659 0.28962 0.90225 0.0
H1344 H 0.52123 0.3571 0.86786 0.0
H1345 H 0.47238 0.33068 0.70787 0.0
H1346 H 0.44004 0.31476 0.67188 0.0
H1347 H 0.40593 0.36024 0.77541 0.0
H1348 H 0.43804 0.37632 0.8122 0.0
H1349 H 0.5335 0.44601 0.66048 0.0
H1350 H 0.52882 0.41117 0.70234 0.0
H1351 H 0.47414 0.42981 0.80232 0.0
H1352 H 0.47895 0.46486 0.76154 0.0
H1353 H 0.46852 0.39261 0.73812 0.0
H1354 H 0.51696 0.4202 0.88788 0.0
H1355 H 0.54895 0.43704 0.92211 0.0
H1356 H 0.58386 0.38953 0.83143 0.0
H1357 H 0.55206 0.37257 0.79582 0.0
C1358 C 0.46688 0.30347 0.89281 0.0
C1359 C 0.48366 0.29087 0.90877 0.0
C1360 C 0.46945 0.3233 0.86691 0.0
C1361 C 0.48881 0.33112 0.84858 0.0
C1362 C 0.50556 0.31773 0.85919 0.0
C1363 C 0.5031 0.29827 0.88977 0.0
C1364 C 0.49171 0.35325 0.82272 0.0
C1365 C 0.50973 0.36431 0.83796 0.0
C1366 C 0.47675 0.36417 0.78559 0.0
C1367 C 0.45756 0.35456 0.76302 0.0
C1368 C 0.45797 0.33722 0.72294 0.0
C1369 C 0.43969 0.32819 0.70246 0.0
C1370 C 0.42095 0.33646 0.72144 0.0
C1371 C 0.42044 0.35384 0.76075 0.0
C1372 C 0.43866 0.36293 0.78132 0.0
C1373 C 0.52047 0.44285 0.69158 0.0
C1374 C 0.50669 0.45868 0.70734 0.0
C1375 C 0.51783 0.42273 0.71591 0.0
C1376 C 0.50115 0.41743 0.75634 0.0
C1377 C 0.48721 0.43315 0.77156 0.0
C1378 C 0.49004 0.4534 0.7482 0.0
C1379 C 0.4981 0.39559 0.78151 0.0
C1380 C 0.48005 0.38488 0.76678 0.0
C1381 C 0.51307 0.38494 0.81803 0.0
C1382 C 0.53216 0.39524 0.83863 0.0
C1383 C 0.53147 0.41346 0.87467 0.0
C1384 C 0.54956 0.423 0.89444 0.0
C1385 C 0.56843 0.41439 0.87881 0.0
C1386 C 0.56924 0.39621 0.8434 0.0
C1387 C 0.55119 0.38662 0.82344 0.0
H1388 H 0.58242 0.42178 0.89427 0.0
H1389 H 0.40683 0.32942 0.70561 0.0
H1390 H 0.24583 0.52516 0.89068 0.0
H1391 H 0.2143 0.52877 0.82735 0.0
H1392 H 0.19669 0.46732 0.88202 0.0
H1393 H 0.22933 0.46276 0.93356 0.0
H1394 H 0.17706 0.47037 0.79307 0.0
H1395 H 0.18 0.52473 0.9556 0.0
H1396 H 0.19503 0.55542 0.00671 0.0
H1397 H 0.19099 0.58787 0.82514 0.0
H1398 H 0.17611 0.55731 0.773 0.0
H1399 H 0.06943 0.48223 0.76154 0.0
H1400 H 0.10381 0.47952 0.80408 0.0
H1401 H 0.1203 0.53576 0.70677 0.0
H1402 H 0.08486 0.53977 0.67139 0.0
H1403 H 0.14039 0.5361 0.80894 0.0
H1404 H 0.13237 0.47836 0.65669 0.0
H1405 H 0.11442 0.44699 0.62144 0.0
H1406 H 0.12507 0.4195 0.80828 0.0
H1407 H 0.1429 0.45072 0.84468 0.0
C1408 C 0.23565 0.51214 0.88634 0.0
C1409 C 0.2404 0.4937 0.91843 0.0
C1410 C 0.21693 0.51442 0.85199 0.0
C1411 C 0.20165 0.49884 0.85203 0.0
C1412 C 0.20735 0.48001 0.8801 0.0
C1413 C 0.22639 0.47736 0.91042 0.0
C1414 C 0.17982 0.5017 0.82523 0.0
C1415 C 0.16923 0.48482 0.79818 0.0
C1416 C 0.16869 0.52037 0.82881 0.0
C1417 C 0.17718 0.53876 0.86042 0.0
C1418 C 0.18235 0.53843 0.92673 0.0
C1419 C 0.19086 0.55578 0.9558 0.0
C1420 C 0.19402 0.57356 0.91915 0.0
C1421 C 0.18857 0.57408 0.85344 0.0
C1422 C 0.18009 0.55677 0.82413 0.0
C1423 C 0.08007 0.49432 0.75026 0.0
C1424 C 0.07376 0.51143 0.71381 0.0
C1425 C 0.10027 0.49249 0.77344 0.0
C1426 C 0.11555 0.50703 0.75746 0.0
C1427 C 0.10928 0.52411 0.72041 0.0
C1428 C 0.08881 0.52636 0.69964 0.0
C1429 C 0.13779 0.50469 0.77938 0.0
C1430 C 0.14839 0.52169 0.80479 0.0
C1431 C 0.14865 0.48591 0.77684 0.0
C1432 C 0.13892 0.46685 0.75332 0.0
C1433 C 0.13095 0.46557 0.69003 0.0
C1434 C 0.12075 0.44784 0.66996 0.0
C1435 C 0.1186 0.43127 0.71259 0.0
C1436 C 0.12676 0.43232 0.77526 0.0
C1437 C 0.13695 0.45 0.79557 0.0
H1438 H 0.11062 0.41761 0.69705 0.0
H1439 H 0.20065 0.58696 0.94169 0.0
H1440 H 0.95707 0.79964 0.37437 0.0
H1441 H 0.96198 0.83285 0.42645 0.0
H1442 H 0.02696 0.82783 0.39905 0.0
H1443 H 0.02198 0.79462 0.34438 0.0
H1444 H 0.01453 0.84707 0.52438 0.0
H1445 H 1.00232 0.85328 0.29578 0.0
H1446 H 0.98334 0.84694 0.19465 0.0
H1447 H 0.9314 0.8785 0.2719 0.0
H1448 H 0.94975 0.88427 0.375 0.0
H1449 H 0.03981 0.95282 0.5622 0.0
H1450 H 0.03608 0.91787 0.52161 0.0
H1451 H 0.97099 0.92599 0.50751 0.0
H1452 H 0.97464 0.9608 0.54977 0.0
H1453 H 0.98342 0.90481 0.40374 0.0
H1454 H 0.99397 0.89748 0.6324 0.0
H1455 H 0.01219 0.90418 0.73524 0.0
H1456 H 0.06582 0.87522 0.65887 0.0
H1457 H 0.04807 0.86867 0.55524 0.0
C1458 C 0.97255 0.80512 0.38166 0.0
C1459 C 0.98913 0.79392 0.35591 0.0
C1460 C 0.97532 0.82442 0.41086 0.0
C1461 C 0.99485 0.83331 0.41657 0.0
C1462 C 0.01168 0.82153 0.39565 0.0
C1463 C 0.00885 0.80225 0.36508 0.0
C1464 C 0.9973 0.85532 0.43951 0.0
C1465 C 1.00794 0.85966 0.49733 0.0
C1466 C 0.98829 0.87206 0.40595 0.0
C1467 C 0.97733 0.86896 0.34358 0.0
C1468 C 0.98677 0.85866 0.29163 0.0
C1469 C 0.97613 0.85518 0.23384 0.0
C1470 C 0.9562 0.86233 0.22671 0.0
C1471 C 0.94684 0.87294 0.27752 0.0
C1472 C 0.95732 0.87625 0.33578 0.0
C1473 C 0.02464 0.94728 0.55053 0.0
C1474 C 1.00758 0.96014 0.55882 0.0
C1475 C 0.02249 0.92706 0.52727 0.0
C1476 C 1.00318 0.91875 0.51141 0.0
C1477 C 0.98614 0.93167 0.51879 0.0
C1478 C 0.98827 0.95184 0.54278 0.0
C1479 C 1.0008 0.89664 0.48854 0.0
C1480 C 0.99005 0.89225 0.43083 0.0
C1481 C 0.0095 0.87982 0.52252 0.0
C1482 C 0.01979 0.88279 0.58586 0.0
C1483 C 0.00967 0.89258 0.63754 0.0
C1484 C 0.01991 0.89637 0.6959 0.0
C1485 C 0.04018 0.89025 0.70324 0.0
C1486 C 0.05015 0.88003 0.65285 0.0
C1487 C 0.04001 0.87626 0.59435 0.0
H1488 H 0.04826 0.89347 0.74774 0.0
H1489 H 0.94803 0.85967 0.18178 0.0
H1490 H 0.72966 0.01926 0.2916 0.0
H1491 H 0.69616 0.02305 0.34187 0.0
H1492 H 0.71168 0.97755 0.48534 0.0
H1493 H 0.74485 0.97278 0.43129 0.0
H1494 H 0.67529 0.96997 0.4562 0.0
H1495 H 0.70488 0.03478 0.51463 0.0
H1496 H 0.72324 0.06712 0.49265 0.0
H1497 H 0.6766 0.08491 0.35756 0.0
H1498 H 0.65809 0.05258 0.37832 0.0
H1499 H 0.58717 0.99647 0.65913 0.0
H1500 H 0.62224 0.99243 0.61694 0.0
H1501 H 0.60445 0.02066 0.43638 0.0
H1502 H 0.56945 0.02411 0.47727 0.0
H1503 H 0.64183 0.03695 0.48926 0.0
H1504 H 0.61264 0.97244 0.43 0.0
H1505 H 0.5949 0.93948 0.44677 0.0
H1506 H 0.64044 0.92142 0.58491 0.0
H1507 H 0.6586 0.95422 0.5686 0.0
C1508 C 0.72642 0.01084 0.33598 0.0
C1509 C 0.7407 0.99654 0.35918 0.0
C1510 C 0.70693 0.01285 0.36478 0.0
C1511 C 0.70097 1.00105 0.41944 0.0
C1512 C 0.71551 0.98714 0.44398 0.0
C1513 C 0.73488 0.98478 0.41402 0.0
C1514 C 0.67948 1.00262 0.44873 0.0
C1515 C 0.66831 0.98472 0.46452 0.0
C1516 C 0.66948 0.02163 0.45872 0.0
C1517 C 0.68019 0.04129 0.44779 0.0
C1518 C 0.69857 0.04562 0.48024 0.0
C1519 C 0.709 0.06392 0.46795 0.0
C1520 C 0.7011 0.07805 0.42368 0.0
C1521 C 0.68269 0.07396 0.39185 0.0
C1522 C 0.67221 0.05568 0.40396 0.0
C1523 C 0.5907 1.00174 0.61034 0.0
C1524 C 0.57525 0.01057 0.57183 0.0
C1525 C 0.61082 0.99937 0.58604 0.0
C1526 C 0.61628 1.00619 0.52303 0.0
C1527 C 0.6009 0.01521 0.48497 0.0
C1528 C 0.58074 0.01713 0.50855 0.0
C1529 C 0.63796 1.00442 0.49715 0.0
C1530 C 0.64904 0.02225 0.48172 0.0
C1531 C 0.64786 0.98539 0.48791 0.0
C1532 C 0.63681 0.96588 0.49879 0.0
C1533 C 0.61874 0.96154 0.46452 0.0
C1534 C 0.60864 0.94288 0.47381 0.0
C1535 C 0.6164 0.92848 0.51738 0.0
C1536 C 0.63439 0.93264 0.5514 0.0
C1537 C 0.64464 0.95122 0.542 0.0
H1538 H 0.60853 0.91404 0.52448 0.0
H1539 H 0.70923 0.09219 0.41409 0.0
H1540 H 0.56581 0.74444 0.40415 0.0
H1541 H 0.56149 0.71155 0.45935 0.0
H1542 H 0.50157 0.70534 0.37491 0.0
H1543 H 0.50526 0.73936 0.32522 0.0
H1544 H 0.49949 0.68606 0.47879 0.0
H1545 H 0.55265 0.68268 0.31401 0.0
H1546 H 0.58545 0.69259 0.26309 0.0
H1547 H 0.61728 0.67628 0.43808 0.0
H1548 H 0.58465 0.66659 0.4903 0.0
H1549 H 0.49099 0.57815 0.51924 0.0
H1550 H 0.49407 0.61292 0.47663 0.0
H1551 H 0.55518 0.61717 0.55371 0.0
H1552 H 0.55266 0.58162 0.59098 0.0
H1553 H 0.55698 0.63768 0.45538 0.0
H1554 H 0.50491 0.64171 0.62171 0.0
H1555 H 0.47252 0.63198 0.67558 0.0
H1556 H 0.43937 0.6473 0.50219 0.0
H1557 H 0.47158 0.65691 0.44719 0.0
C1558 C 0.55128 0.73655 0.39998 0.0
C1559 C 0.53583 0.74487 0.36026 0.0
C1560 C 0.54904 0.71722 0.43002 0.0
C1561 C 0.53157 0.70491 0.41934 0.0
C1562 C 0.51545 0.71395 0.38386 0.0
C1563 C 0.51748 0.73364 0.3555 0.0
C1564 C 0.53024 0.68275 0.44342 0.0
C1565 C 0.51208 0.67554 0.47272 0.0
C1566 C 0.54662 0.66854 0.43804 0.0
C1567 C 0.56621 0.67409 0.40618 0.0
C1568 C 0.56665 0.68129 0.34164 0.0
C1569 C 0.5852 0.68688 0.31259 0.0
C1570 C 0.60343 0.6851 0.34737 0.0
C1571 C 0.60315 0.67768 0.41122 0.0
C1572 C 0.58464 0.67214 0.44055 0.0
C1573 C 0.5051 0.58648 0.52725 0.0
C1574 C 0.52145 0.57695 0.55961 0.0
C1575 C 0.50681 0.60671 0.50339 0.0
C1576 C 0.52461 0.61865 0.51351 0.0
C1577 C 0.5411 0.60887 0.545 0.0
C1578 C 0.53962 0.58838 0.5669 0.0
C1579 C 0.5262 0.64098 0.49088 0.0
C1580 C 0.54441 0.64821 0.46171 0.0
C1581 C 0.50994 0.65527 0.49687 0.0
C1582 C 0.49061 0.64988 0.53032 0.0
C1583 C 0.4907 0.64295 0.59514 0.0
C1584 C 0.47238 0.63745 0.62582 0.0
C1585 C 0.4539 0.63899 0.59229 0.0
C1586 C 0.45369 0.64611 0.52809 0.0
C1587 C 0.47195 0.65161 0.49719 0.0
H1588 H 0.43974 0.63469 0.61608 0.0
H1589 H 0.61778 0.68944 0.32482 0.0
H1590 H 0.79204 0.50901 0.33459 0.0
H1591 H 0.82489 0.50448 0.39108 0.0
H1592 H 0.825 0.56816 0.44327 0.0
H1593 H 0.79215 0.57251 0.38856 0.0
H1594 H 0.86114 0.55823 0.38709 0.0
H1595 H 0.82071 0.53136 0.56112 0.0
H1596 H 0.79498 0.50891 0.61297 0.0
H1597 H 0.82933 0.45606 0.5566 0.0
H1598 H 0.85515 0.47822 0.50373 0.0
H1599 H 0.95539 0.55736 0.56456 0.0
H1600 H 0.92044 0.56143 0.52566 0.0
H1601 H 0.91279 0.49589 0.52353 0.0
H1602 H 0.94724 0.49196 0.56704 0.0
H1603 H 0.87945 0.50746 0.55605 0.0
H1604 H 0.91843 0.53414 0.37262 0.0
H1605 H 0.94222 0.55662 0.31217 0.0
H1606 H 0.91057 0.60951 0.38239 0.0
H1607 H 0.88635 0.5873 0.44228 0.0
C1608 C 0.79849 0.52178 0.36104 0.0
C1609 C 0.78882 0.541 0.35838 0.0
C1610 C 0.8176 0.51928 0.39265 0.0
C1611 C 0.82788 0.53599 0.42173 0.0
C1612 C 0.81775 0.55492 0.42154 0.0
C1613 C 0.79862 0.55732 0.39105 0.0
C1614 C 0.84953 0.53423 0.44865 0.0
C1615 C 0.86503 0.54722 0.42457 0.0
C1616 C 0.8552 0.51974 0.49673 0.0
C1617 C 0.83971 0.5064 0.52795 0.0
C1618 C 0.82266 0.51493 0.5593 0.0
C1619 C 0.8081 0.50227 0.58898 0.0
C1620 C 0.81049 0.48107 0.58792 0.0
C1621 C 0.82748 0.47248 0.55729 0.0
C1622 C 0.84209 0.48508 0.52752 0.0
C1623 C 0.94632 0.54376 0.55572 0.0
C1624 C 0.95449 0.52429 0.56927 0.0
C1625 C 0.92613 0.54609 0.53231 0.0
C1626 C 0.9134 0.52901 0.51919 0.0
C1627 C 0.92173 0.50955 0.53265 0.0
C1628 C 0.94172 0.50725 0.55752 0.0
C1629 C 0.89149 0.53119 0.49347 0.0
C1630 C 0.87579 0.51837 0.5181 0.0
C1631 C 0.88566 0.54579 0.44538 0.0
C1632 C 0.90074 0.5591 0.41223 0.0
C1633 C 0.91667 0.55057 0.37551 0.0
C1634 C 0.93015 0.56326 0.34114 0.0
C1635 C 0.92794 0.58449 0.34359 0.0
C1636 C 0.91225 0.59308 0.38051 0.0
C1637 C 0.89859 0.58045 0.4144 0.0
H1638 H 0.93833 0.59431 0.3167 0.0
H1639 H 0.7992 0.47129 0.61097 0.0
loop_
_geom_bond_atom_site_label_1
_geom_bond_atom_site_label_2
_geom_bond_distance
_geom_bond_site_symmetry_2
_ccdc_geom_bond_type
H0 C7 0.929 . S
H1 C10 0.930 . S
H2 C12 0.929 . S
H3 C4 0.969 . S
C4 H3 0.969 . S
C4 O5 1.550 . S
C4 H6 0.973 . S
O5 C4 1.550 . S
O5 C11 1.412 . S
H6 C4 0.973 . S
C7 H0 0.929 . S
C7 C8 1.400 . S
C7 C9 1.364 . S
C8 C7 1.400 . S
C8 C12 1.377 . S
C9 C7 1.364 . S
C9 C10 1.374 . S
C10 H1 0.930 . S
C10 C9 1.374 . S
C10 C11 1.383 . S
C11 O5 1.412 . S
C11 C10 1.383 . S
C11 C12 1.394 . S
C12 H2 0.929 . S
C12 C8 1.377 . S
C12 C11 1.394 . S
H13 C20 0.929 . S
H14 C23 0.930 . S
H15 C25 0.929 . S
H16 C17 0.969 . S
C17 H16 0.969 . S
C17 O18 1.550 . S
C17 H19 0.973 . S
O18 C17 1.550 . S
O18 C24 1.412 . S
H19 C17 0.973 . S
C20 H13 0.929 . S
C20 C21 1.400 . S
C20 C22 1.364 . S
C21 C20 1.400 . S
C21 C25 1.377 . S
C22 C20 1.364 . S
C22 C23 1.374 . S
C23 H14 0.930 . S
C23 C22 1.374 . S
C23 C24 1.383 . S
C24 O18 1.412 . S
C24 C23 1.383 . S
C24 C25 1.394 . S
C25 H15 0.929 . S
C25 C21 1.377 . S
C25 C24 1.394 . S
H26 C33 0.929 . S
H27 C36 0.930 . S
H28 C38 0.929 . S
H29 C30 0.969 . S
C30 H29 0.969 . S
C30 O31 1.550 . S
C30 H32 0.973 . S
O31 C30 1.550 . S
O31 C37 1.412 . S
H32 C30 0.973 . S
C33 H26 0.929 . S
C33 C34 1.400 . S
C33 C35 1.364 . S
C34 C33 1.400 . S
C34 C38 1.377 . S
C35 C33 1.364 . S
C35 C36 1.374 . S
C36 H27 0.930 . S
C36 C35 1.374 . S
C36 C37 1.383 . S
C37 O31 1.412 . S
C37 C36 1.383 . S
C37 C38 1.394 . S
C38 H28 0.929 . S
C38 C34 1.377 . S
C38 C37 1.394 . S
H39 C46 0.929 . S
H40 C49 0.930 . S
H41 C51 0.929 . S
H42 C43 0.969 . S
C43 H42 0.969 . S
C43 O44 1.550 . S
C43 H45 0.973 . S
O44 C43 1.550 . S
O44 C50 1.412 . S
H45 C43 0.973 . S
C46 H39 0.929 . S
C46 C47 1.400 . S
C46 C48 1.364 . S
C47 C46 1.400 . S
C47 C51 1.377 . S
C48 C46 1.364 . S
C48 C49 1.374 . S
C49 H40 0.930 . S
C49 C48 1.374 . S
C49 C50 1.383 . S
C50 O44 1.412 . S
C50 C49 1.383 . S
C50 C51 1.394 . S
C51 H41 0.929 . S
C51 C47 1.377 . S
C51 C50 1.394 . S
H52 C59 0.929 . S
H53 C62 0.930 . S
H54 C64 0.929 . S
H55 C56 0.969 . S
C56 H55 0.969 . S
C56 O57 1.550 . S
C56 H58 0.973 . S
O57 C56 1.550 . S
O57 C63 1.412 . S
H58 C56 0.973 . S
C59 H52 0.929 . S
C59 C60 1.400 1_554 S
C59 C61 1.364 . S
C60 C59 1.400 1_556 S
C60 C64 1.377 . S
C61 C59 1.364 . S
C61 C62 1.374 . S
C62 H53 0.930 . S
C62 C61 1.374 . S
C62 C63 1.383 . S
C63 O57 1.412 . S
C63 C62 1.383 . S
C63 C64 1.394 1_554 S
C64 H54 0.929 . S
C64 C60 1.377 . S
C64 C63 1.394 1_556 S
H65 C72 0.929 . S
H66 C75 0.930 . S
H67 C77 0.929 . S
H68 C69 0.969 . S
C69 H68 0.969 . S
C69 O70 1.550 . S
C69 H71 0.973 . S
O70 C69 1.550 . S
O70 C76 1.412 . S
H71 C69 0.973 . S
C72 H65 0.929 . S
C72 C73 1.400 1_554 S
C72 C74 1.364 . S
C73 C72 1.400 1_556 S
C73 C77 1.377 . S
C74 C72 1.364 . S
C74 C75 1.374 . S
C75 H66 0.930 . S
C75 C74 1.374 . S
C75 C76 1.383 . S
C76 O70 1.412 . S
C76 C75 1.383 . S
C76 C77 1.394 1_554 S
C77 H67 0.929 . S
C77 C73 1.377 . S
C77 C76 1.394 1_556 S
H78 C85 0.929 . S
H79 C88 0.930 . S
H80 C90 0.929 . S
H81 C82 0.969 . S
C82 H81 0.969 . S
C82 O83 1.550 . S
C82 H84 0.973 . S
O83 C82 1.550 . S
O83 C89 1.412 . S
H84 C82 0.973 . S
C85 H78 0.929 . S
C85 C86 1.400 1_554 S
C85 C87 1.364 . S
C86 C85 1.400 1_556 S
C86 C90 1.377 . S
C87 C85 1.364 . S
C87 C88 1.374 . S
C88 H79 0.930 . S
C88 C87 1.374 . S
C88 C89 1.383 . S
C89 O83 1.412 . S
C89 C88 1.383 . S
C89 C90 1.394 1_554 S
C90 H80 0.929 . S
C90 C86 1.377 . S
C90 C89 1.394 1_556 S
H91 C98 0.929 . S
H92 C101 0.930 . S
H93 C103 0.929 . S
H94 C95 0.969 . S
C95 H94 0.969 . S
C95 O96 1.550 . S
C95 H97 0.973 . S
O96 C95 1.550 . S
O96 C102 1.412 . S
H97 C95 0.973 . S
C98 H91 0.929 . S
C98 C99 1.400 1_554 S
C98 C100 1.364 . S
C99 C98 1.400 1_556 S
C99 C103 1.377 . S
C100 C98 1.364 . S
C100 C101 1.374 . S
C101 H92 0.930 . S
C101 C100 1.374 . S
C101 C102 1.383 . S
C102 O96 1.412 . S
C102 C101 1.383 . S
C102 C103 1.394 1_554 S
C103 H93 0.929 . S
C103 C99 1.377 . S
C103 C102 1.394 1_556 S
Eu104 N133 2.600 . S
Eu104 N139 2.562 . S
Eu104 O148 2.462 1_655 S
Eu104 O149 2.373 1_545 S
Eu104 O151 2.432 . S
Eu104 O152 2.291 1_655 S
Eu104 O156 2.335 1_655 S
Eu104 O159 2.372 . S
Eu104 C168 2.787 . S
C105 N106 1.365 . S
C105 C108 1.405 . S
C105 C112 1.448 . S
N106 C105 1.365 . S
N106 C109 1.322 . S
N106 Eu115 2.600 1_545 S
C107 C109 1.406 . S
C107 C110 1.367 . S
C107 H127 0.931 . S
C108 C105 1.405 . S
C108 C110 1.403 . S
C108 C114 1.439 . S
C109 N106 1.322 . S
C109 C107 1.406 . S
C109 H120 0.917 1_545 S
C110 C107 1.367 . S
C110 C108 1.403 . S
C110 H131 0.929 . S
C111 C112 1.430 . S
C111 C113 1.387 . S
C111 C117 1.404 . S
C112 C105 1.448 . S
C112 C111 1.430 . S
C112 N116 1.351 . S
C113 C111 1.387 . S
C113 C114 1.374 . S
C113 H128 0.931 . S
C114 C108 1.439 . S
C114 C113 1.374 . S
C114 H129 0.931 . S
Eu115 N106 2.600 1_565 S
Eu115 N116 2.562 1_565 S
Eu115 O150 2.335 . S
Eu115 O153 2.372 . S
Eu115 O154 2.462 . S
Eu115 O155 2.373 1_565 S
Eu115 O157 2.432 . S
Eu115 O158 2.291 1_465 S
Eu115 C179 2.787 . S
N116 C112 1.351 . S
N116 Eu115 2.562 1_545 S
N116 C118 1.325 . S
C117 C111 1.404 . S
C117 C119 1.366 . S
C117 H125 0.930 . S
C118 N116 1.325 . S
C118 C119 1.416 . S
C118 H124 0.929 1_455 S
C119 C117 1.366 . S
C119 C118 1.416 . S
C119 H121 0.930 1_455 S
H120 C109 0.917 1_565 S
H121 C119 0.930 1_655 S
H122 C137 0.930 . S
H123 C144 0.933 . S
H124 C118 0.929 1_655 S
H125 C117 0.930 . S
H126 C140 0.929 . S
H127 C107 0.931 . S
H128 C113 0.931 . S
H129 C114 0.931 . S
H130 C135 0.931 . S
H131 C110 0.929 . S
H132 C143 0.930 . S
N133 Eu104 2.600 . S
N133 C134 1.365 . S
N133 C137 1.319 . S
C134 N133 1.365 . S
C134 C136 1.405 1_545 S
C134 C142 1.448 . S
C135 H130 0.931 . S
C135 C137 1.397 . S
C135 C138 1.389 . S
C136 C134 1.405 1_565 S
C136 C138 1.398 1_565 S
C136 C169 1.439 . S
C137 H122 0.930 . S
C137 N133 1.319 . S
C137 C135 1.397 . S
C138 C135 1.389 . S
C138 C136 1.398 1_545 S
C138 H145 0.915 1_545 S
N139 Eu104 2.562 . S
N139 C140 1.325 1_655 S
N139 C142 1.351 . S
C140 H126 0.929 . S
C140 N139 1.325 1_455 S
C140 C144 1.403 1_545 S
C141 C142 1.430 1_565 S
C141 C143 1.404 . S
C141 C170 1.387 . S
C142 C134 1.448 . S
C142 N139 1.351 . S
C142 C141 1.430 1_545 S
C143 H132 0.930 . S
C143 C141 1.404 . S
C143 C144 1.376 1_655 S
C144 H123 0.933 . S
C144 C140 1.403 1_565 S
C144 C143 1.376 1_455 S
H145 C138 0.915 1_565 S
H146 C169 0.931 . S
H147 C170 0.931 . S
O148 Eu104 2.462 1_455 S
O148 C168 1.252 1_455 S
O149 Eu104 2.373 1_565 S
O149 C160 1.249 . S
O150 Eu115 2.335 . S
O150 C160 1.264 1_455 S
O151 Eu104 2.432 . S
O151 C168 1.268 . S
O152 Eu104 2.291 1_455 S
O152 C167 1.255 . S
O153 Eu115 2.372 . S
O153 C167 1.257 1_565 S
O154 Eu115 2.462 . S
O154 C179 1.252 . S
O155 Eu115 2.373 1_545 S
O155 C171 1.249 . S
O156 Eu104 2.335 1_455 S
O156 C171 1.264 . S
O157 Eu115 2.432 . S
O157 C179 1.268 . S
O158 Eu115 2.291 1_645 S
O158 C178 1.255 . S
O159 Eu104 2.372 . S
O159 C178 1.257 . S
C160 O149 1.249 . S
C160 O150 1.264 1_655 S
C161 C164 1.382 . S
C161 C166 1.390 1_655 S
C161 C168 1.506 . S
C162 C163 1.438 . S
C162 C166 1.388 1_655 S
C163 C162 1.438 . S
C163 C165 1.372 . S
C163 H180 0.931 . S
C164 C161 1.382 . S
C164 C165 1.390 . S
C164 H181 0.931 . S
C165 C163 1.372 . S
C165 C164 1.390 . S
C165 H182 0.929 . S
C166 C161 1.390 1_455 S
C166 C162 1.388 1_455 S
C166 H183 0.930 . S
C167 O152 1.255 . S
C167 O153 1.257 1_545 S
C168 Eu104 2.787 . S
C168 O148 1.252 1_655 S
C168 O151 1.268 . S
C168 C161 1.506 . S
C169 C136 1.439 . S
C169 H146 0.931 . S
C169 C170 1.374 . S
C170 C141 1.387 . S
C170 H147 0.931 . S
C170 C169 1.374 . S
C171 O155 1.249 . S
C171 O156 1.264 . S
C172 C175 1.382 . S
C172 C176 1.390 . S
C172 C179 1.506 . S
C173 C174 1.398 . S
C173 C176 1.392 . S
C174 C173 1.398 . S
C174 C177 1.372 . S
C174 H184 0.931 . S
C175 C172 1.382 . S
C175 C177 1.390 . S
C175 H185 0.931 . S
C176 C172 1.390 . S
C176 C173 1.392 . S
C176 H186 0.930 1_455 S
C177 C174 1.372 . S
C177 C175 1.390 . S
C177 H187 0.929 . S
C178 O158 1.255 . S
C178 O159 1.257 . S
C179 Eu115 2.787 . S
C179 O154 1.252 . S
C179 O157 1.268 . S
C179 C172 1.506 . S
H180 C163 0.931 . S
H181 C164 0.931 . S
H182 C165 0.929 . S
H183 C166 0.930 . S
H184 C174 0.931 . S
H185 C175 0.931 . S
H186 C176 0.930 1_655 S
H187 C177 0.929 . S
Eu188 N217 2.600 . S
Eu188 N223 2.562 . S
Eu188 O232 2.462 . S
Eu188 O233 2.373 . S
Eu188 O235 2.432 . S
Eu188 O236 2.291 . S
Eu188 O240 2.335 1_545 S
Eu188 O243 2.372 . S
Eu188 C252 2.787 . S
C189 N190 1.365 . S
C189 C192 1.405 . S
C189 C196 1.448 . S
N190 C189 1.365 . S
N190 C193 1.319 . S
N190 Eu199 2.600 . S
C191 C193 1.397 . S
C191 C194 1.367 . S
C191 H211 0.931 . S
C192 C189 1.405 . S
C192 C194 1.403 . S
C192 C198 1.439 . S
C193 N190 1.319 . S
C193 C191 1.397 . S
C193 H204 0.930 . S
C194 C191 1.367 . S
C194 C192 1.403 . S
C194 H215 0.929 . S
C195 C196 1.430 . S
C195 C197 1.387 . S
C195 C201 1.404 . S
C196 C189 1.448 . S
C196 C195 1.430 . S
C196 N200 1.351 . S
C197 C195 1.387 . S
C197 C198 1.374 . S
C197 H212 0.931 . S
C198 C192 1.439 . S
C198 C197 1.374 . S
C198 H213 0.931 . S
Eu199 N190 2.600 . S
Eu199 N200 2.562 . S
Eu199 O234 2.335 1_565 S
Eu199 O237 2.372 . S
Eu199 O238 2.466 . S
Eu199 O239 2.373 . S
Eu199 O241 2.432 . S
Eu199 O242 2.291 1_565 S
Eu199 C263 2.787 . S
N200 C196 1.351 . S
N200 Eu199 2.562 . S
N200 C202 1.325 . S
C201 C195 1.404 . S
C201 C203 1.366 . S
C201 H209 0.930 . S
C202 N200 1.325 . S
C202 C203 1.416 . S
C202 H208 0.929 . S
C203 C201 1.366 . S
C203 C202 1.416 . S
C203 H205 0.930 . S
H204 C193 0.930 . S
H205 C203 0.930 . S
H206 C221 0.930 . S
H207 C228 0.930 . S
H208 C202 0.929 . S
H209 C201 0.930 . S
H210 C224 0.929 . S
H211 C191 0.931 . S
H212 C197 0.931 . S
H213 C198 0.931 . S
H214 C219 0.931 . S
H215 C194 0.929 . S
H216 C227 0.930 . S
N217 Eu188 2.600 . S
N217 C218 1.365 . S
N217 C221 1.319 . S
C218 N217 1.365 . S
C218 C220 1.405 . S
C218 C226 1.448 . S
C219 H214 0.931 . S
C219 C221 1.397 . S
C219 C222 1.367 . S
C220 C218 1.405 . S
C220 C222 1.403 . S
C220 C253 1.439 . S
C221 H206 0.930 . S
C221 N217 1.319 . S
C221 C219 1.397 . S
C222 C219 1.367 . S
C222 C220 1.403 . S
C222 H229 0.929 . S
N223 Eu188 2.562 . S
N223 C224 1.325 . S
N223 C226 1.351 . S
C224 H210 0.929 . S
C224 N223 1.325 . S
C224 C228 1.416 . S
C225 C226 1.430 . S
C225 C227 1.404 . S
C225 C254 1.387 . S
C226 C218 1.448 . S
C226 N223 1.351 . S
C226 C225 1.430 . S
C227 H216 0.930 . S
C227 C225 1.404 . S
C227 C228 1.366 . S
C228 H207 0.930 . S
C228 C224 1.416 . S
C228 C227 1.366 . S
H229 C222 0.929 . S
H230 C253 0.931 . S
H231 C254 0.931 . S
O232 Eu188 2.462 . S
O232 C252 1.252 . S
O233 Eu188 2.373 . S
O233 C244 1.249 . S
O234 Eu199 2.335 1_545 S
O234 C244 1.264 . S
O235 Eu188 2.432 . S
O235 C252 1.268 . S
O236 Eu188 2.291 . S
O236 C251 1.255 . S
O237 Eu199 2.372 . S
O237 C251 1.257 1_565 S
O238 Eu199 2.466 . S
O238 C263 1.255 . S
O239 Eu199 2.373 . S
O239 C255 1.249 . S
O240 Eu188 2.335 1_565 S
O240 C255 1.264 . S
O241 Eu199 2.432 . S
O241 C263 1.268 . S
O242 Eu199 2.291 1_545 S
O242 C262 1.255 . S
O243 Eu188 2.372 . S
O243 C262 1.257 . S
C244 O233 1.249 . S
C244 O234 1.264 . S
C245 C248 1.382 . S
C245 C250 1.390 . S
C245 C252 1.506 . S
C246 C247 1.398 . S
C246 C250 1.392 . S
C247 C246 1.398 . S
C247 C249 1.372 . S
C247 H264 0.931 . S
C248 C245 1.382 . S
C248 C249 1.390 . S
C248 H265 0.931 . S
C249 C247 1.372 . S
C249 C248 1.390 . S
C249 H266 0.929 1_556 S
C250 C245 1.390 . S
C250 C246 1.392 . S
C250 H267 0.930 . S
C251 O236 1.255 . S
C251 O237 1.257 1_545 S
C252 Eu188 2.787 . S
C252 O232 1.252 . S
C252 O235 1.268 . S
C252 C245 1.506 . S
C253 C220 1.439 . S
C253 H230 0.931 . S
C253 C254 1.374 . S
C254 C225 1.387 . S
C254 H231 0.931 . S
C254 C253 1.374 . S
C255 O239 1.249 . S
C255 O240 1.264 . S
C256 C259 1.388 . S
C256 C260 1.382 1_565 S
C256 C263 1.509 . S
C257 C258 1.398 . S
C257 C260 1.392 . S
C258 C257 1.398 . S
C258 C261 1.372 1_545 S
C258 H268 0.931 . S
C259 C256 1.388 . S
C259 C261 1.390 . S
C259 H269 0.931 . S
C260 C256 1.382 1_545 S
C260 C257 1.392 . S
C260 H270 0.930 . S
C261 C258 1.372 1_565 S
C261 C259 1.390 . S
C261 H271 0.929 . S
C262 O242 1.255 . S
C262 O243 1.257 . S
C263 Eu199 2.787 . S
C263 O238 1.255 . S
C263 O241 1.268 . S
C263 C256 1.509 . S
H264 C247 0.931 . S
H265 C248 0.931 . S
H266 C249 0.929 1_554 S
H267 C250 0.930 . S
H268 C258 0.931 . S
H269 C259 0.931 . S
H270 C260 0.930 . S
H271 C261 0.929 . S
Eu272 N301 2.600 . S
Eu272 N307 2.562 . S
Eu272 O316 2.462 . S
Eu272 O317 2.373 . S
Eu272 O319 2.432 . S
Eu272 O320 2.291 . S
Eu272 O324 2.335 . S
Eu272 O327 2.372 . S
Eu272 C336 2.787 . S
C273 N274 1.365 . S
C273 C276 1.405 . S
C273 C280 1.448 . S
N274 C273 1.365 . S
N274 C277 1.319 . S
N274 Eu283 2.600 . S
C275 C277 1.397 . S
C275 C278 1.367 . S
C275 H295 0.931 . S
C276 C273 1.405 . S
C276 C278 1.403 . S
C276 C282 1.439 . S
C277 N274 1.319 . S
C277 C275 1.397 . S
C277 H288 0.930 . S
C278 C275 1.367 . S
C278 C276 1.403 . S
C278 H299 0.929 . S
C279 C280 1.430 . S
C279 C281 1.387 . S
C279 C285 1.404 . S
C280 C273 1.448 . S
C280 C279 1.430 . S
C280 N284 1.351 . S
C281 C279 1.387 . S
C281 C282 1.374 . S
C281 H296 0.931 . S
C282 C276 1.439 . S
C282 C281 1.374 . S
C282 H297 0.931 . S
Eu283 N274 2.600 . S
Eu283 N284 2.562 . S
Eu283 O318 2.335 . S
Eu283 O321 2.372 . S
Eu283 O322 2.462 . S
Eu283 O323 2.373 . S
Eu283 O325 2.432 . S
Eu283 O326 2.291 . S
Eu283 C347 2.787 . S
N284 C280 1.351 . S
N284 Eu283 2.562 . S
N284 C286 1.325 . S
C285 C279 1.404 . S
C285 C287 1.366 . S
C285 H293 0.930 . S
C286 N284 1.325 . S
C286 C287 1.416 . S
C286 H292 0.929 . S
C287 C285 1.366 . S
C287 C286 1.416 . S
C287 H289 0.930 . S
H288 C277 0.930 . S
H289 C287 0.930 . S
H290 C305 0.930 . S
H291 C312 0.930 . S
H292 C286 0.929 . S
H293 C285 0.930 . S
H294 C308 0.929 . S
H295 C275 0.931 . S
H296 C281 0.931 . S
H297 C282 0.931 . S
H298 C303 0.931 . S
H299 C278 0.929 . S
H300 C311 0.930 . S
N301 Eu272 2.600 . S
N301 C302 1.365 . S
N301 C305 1.319 . S
C302 N301 1.365 . S
C302 C304 1.405 . S
C302 C310 1.448 . S
C303 H298 0.931 . S
C303 C305 1.397 . S
C303 C306 1.367 . S
C304 C302 1.405 . S
C304 C306 1.403 . S
C304 C337 1.439 . S
C305 H290 0.930 . S
C305 N301 1.319 . S
C305 C303 1.397 . S
C306 C303 1.367 . S
C306 C304 1.403 . S
C306 H313 0.929 . S
N307 Eu272 2.562 . S
N307 C308 1.325 . S
N307 C310 1.351 . S
C308 H294 0.929 . S
C308 N307 1.325 . S
C308 C312 1.416 . S
C309 C310 1.430 . S
C309 C311 1.404 . S
C309 C338 1.387 . S
C310 C302 1.448 . S
C310 N307 1.351 . S
C310 C309 1.430 . S
C311 H300 0.930 . S
C311 C309 1.404 . S
C311 C312 1.366 . S
C312 H291 0.930 . S
C312 C308 1.416 . S
C312 C311 1.366 . S
H313 C306 0.929 . S
H314 C337 0.931 . S
H315 C338 0.931 . S
O316 Eu272 2.462 . S
O316 C336 1.252 . S
O317 Eu272 2.373 . S
O317 C328 1.249 . S
O318 Eu283 2.335 . S
O318 C328 1.264 . S
O319 Eu272 2.432 . S
O319 C336 1.268 . S
O320 Eu272 2.291 . S
O320 C335 1.255 . S
O321 Eu283 2.372 . S
O321 C335 1.257 . S
O322 Eu283 2.462 . S
O322 C347 1.252 . S
O323 Eu283 2.373 . S
O323 C339 1.249 . S
O324 Eu272 2.335 . S
O324 C339 1.264 . S
O325 Eu283 2.432 . S
O325 C347 1.268 . S
O326 Eu283 2.291 . S
O326 C346 1.255 . S
O327 Eu272 2.372 . S
O327 C346 1.257 . S
C328 O317 1.249 . S
C328 O318 1.264 . S
C329 C332 1.382 . S
C329 C334 1.390 . S
C329 C336 1.506 . S
C330 C331 1.398 . S
C330 C334 1.392 . S
C331 C330 1.398 . S
C331 C333 1.372 . S
C331 H348 0.931 . S
C332 C329 1.382 . S
C332 C333 1.390 . S
C332 H349 0.931 . S
C333 C331 1.372 . S
C333 C332 1.390 . S
C333 H350 0.929 . S
C334 C329 1.390 . S
C334 C330 1.392 . S
C334 H351 0.930 . S
C335 O320 1.255 . S
C335 O321 1.257 . S
C336 Eu272 2.787 . S
C336 O316 1.252 . S
C336 O319 1.268 . S
C336 C329 1.506 . S
C337 C304 1.439 . S
C337 H314 0.931 . S
C337 C338 1.374 . S
C338 C309 1.387 . S
C338 H315 0.931 . S
C338 C337 1.374 . S
C339 O323 1.249 . S
C339 O324 1.264 . S
C340 C343 1.382 . S
C340 C344 1.390 . S
C340 C347 1.506 . S
C341 C342 1.398 . S
C341 C344 1.392 . S
C342 C341 1.398 . S
C342 C345 1.372 . S
C342 H352 0.931 . S
C343 C340 1.382 . S
C343 C345 1.390 . S
C343 H353 0.931 . S
C344 C340 1.390 . S
C344 C341 1.392 . S
C344 H354 0.930 . S
C345 C342 1.372 . S
C345 C343 1.390 . S
C345 H355 0.929 . S
C346 O326 1.255 . S
C346 O327 1.257 . S
C347 Eu283 2.787 . S
C347 O322 1.252 . S
C347 O325 1.268 . S
C347 C340 1.506 . S
H348 C331 0.931 . S
H349 C332 0.931 . S
H350 C333 0.929 . S
H351 C334 0.930 . S
H352 C342 0.931 . S
H353 C343 0.931 . S
H354 C344 0.930 . S
H355 C345 0.929 . S
Eu356 N385 2.600 . S
Eu356 N391 2.562 . S
Eu356 O400 2.462 . S
Eu356 O401 2.373 1_455 S
Eu356 O403 2.432 . S
Eu356 O404 2.291 . S
Eu356 O408 2.335 . S
Eu356 O411 2.372 . S
Eu356 C420 2.787 . S
C357 N358 1.358 1_455 S
C357 C360 1.405 . S
C357 C364 1.448 . S
N358 C357 1.358 1_655 S
N358 C361 1.321 . S
N358 Eu367 2.604 . S
C359 C361 1.397 1_455 S
C359 C362 1.367 . S
C359 H379 0.931 . S
C360 C357 1.405 . S
C360 C362 1.403 . S
C360 C366 1.439 . S
C361 N358 1.321 . S
C361 C359 1.397 1_655 S
C361 H372 0.930 . S
C362 C359 1.367 . S
C362 C360 1.403 . S
C362 H383 0.929 . S
C363 C364 1.430 . S
C363 C365 1.387 . S
C363 C369 1.404 . S
C364 C357 1.448 . S
C364 C363 1.430 . S
C364 N368 1.351 . S
C365 C363 1.387 . S
C365 C366 1.374 . S
C365 H380 0.931 . S
C366 C360 1.439 . S
C366 C365 1.374 . S
C366 H381 0.931 . S
Eu367 N358 2.604 . S
Eu367 N368 2.562 1_655 S
Eu367 O402 2.335 . S
Eu367 O405 2.372 . S
Eu367 O406 2.462 . S
Eu367 O407 2.373 1_655 S
Eu367 O409 2.432 . S
Eu367 O410 2.291 1_655 S
Eu367 C431 2.787 . S
N368 C364 1.351 . S
N368 Eu367 2.562 1_455 S
N368 C370 1.325 . S
C369 C363 1.404 . S
C369 C371 1.366 . S
C369 H377 0.930 . S
C370 N368 1.325 . S
C370 C371 1.416 . S
C370 H376 0.947 . S
C371 C369 1.366 . S
C371 C370 1.416 . S
C371 H373 0.930 . S
H372 C361 0.930 . S
H373 C371 0.930 . S
H374 C389 0.930 . S
H375 C396 0.930 . S
H376 C370 0.947 . S
H377 C369 0.930 . S
H378 C392 0.929 . S
H379 C359 0.931 . S
H380 C365 0.931 . S
H381 C366 0.931 . S
H382 C387 0.931 . S
H383 C362 0.929 . S
H384 C395 0.930 . S
N385 Eu356 2.600 . S
N385 C386 1.365 . S
N385 C389 1.319 . S
C386 N385 1.365 . S
C386 C388 1.405 1_455 S
C386 C394 1.448 . S
C387 H382 0.931 . S
C387 C389 1.397 . S
C387 C390 1.355 1_455 S
C388 C386 1.405 1_655 S
C388 C390 1.407 . S
C388 C421 1.439 . S
C389 H374 0.930 . S
C389 N385 1.319 . S
C389 C387 1.397 . S
C390 C387 1.355 1_655 S
C390 C388 1.407 . S
C390 H397 0.938 . S
N391 Eu356 2.562 . S
N391 C392 1.325 . S
N391 C394 1.351 . S
C392 H378 0.929 . S
C392 N391 1.325 . S
C392 C396 1.416 1_455 S
C393 C394 1.430 1_655 S
C393 C395 1.404 . S
C393 C422 1.387 . S
C394 C386 1.448 . S
C394 N391 1.351 . S
C394 C393 1.430 1_455 S
C395 H384 0.930 . S
C395 C393 1.404 . S
C395 C396 1.366 . S
C396 H375 0.930 . S
C396 C392 1.416 1_655 S
C396 C395 1.366 . S
H397 C390 0.938 . S
H398 C421 0.931 . S
H399 C422 0.931 . S
O400 Eu356 2.462 . S
O400 C420 1.252 . S
O401 Eu356 2.373 1_655 S
O401 C412 1.249 . S
O402 Eu367 2.335 . S
O402 C412 1.264 . S
O403 Eu356 2.432 . S
O403 C420 1.268 . S
O404 Eu356 2.291 . S
O404 C419 1.255 . S
O405 Eu367 2.372 . S
O405 C419 1.257 1_655 S
O406 Eu367 2.462 . S
O406 C431 1.252 . S
O407 Eu367 2.373 1_455 S
O407 C423 1.249 . S
O408 Eu356 2.335 . S
O408 C423 1.264 . S
O409 Eu367 2.432 . S
O409 C431 1.268 . S
O410 Eu367 2.291 1_455 S
O410 C430 1.255 . S
O411 Eu356 2.372 . S
O411 C430 1.257 . S
C412 O401 1.249 . S
C412 O402 1.264 . S
C413 C416 1.382 . S
C413 C418 1.390 . S
C413 C420 1.506 . S
C414 C415 1.398 . S
C414 C418 1.392 . S
C415 C414 1.398 . S
C415 C417 1.372 . S
C415 H432 0.931 . S
C416 C413 1.382 . S
C416 C417 1.390 . S
C416 H433 0.931 . S
C417 C415 1.372 . S
C417 C416 1.390 . S
C417 H434 0.929 . S
C418 C413 1.390 . S
C418 C414 1.392 . S
C418 H435 0.930 . S
C419 O404 1.255 . S
C419 O405 1.257 1_455 S
C420 Eu356 2.787 . S
C420 O400 1.252 . S
C420 O403 1.268 . S
C420 C413 1.506 . S
C421 C388 1.439 . S
C421 H398 0.931 . S
C421 C422 1.374 . S
C422 C393 1.387 . S
C422 H399 0.931 . S
C422 C421 1.374 . S
C423 O407 1.249 . S
C423 O408 1.264 . S
C424 C427 1.382 . S
C424 C428 1.390 . S
C424 C431 1.506 . S
C425 C426 1.398 . S
C425 C428 1.392 . S
C426 C425 1.398 . S
C426 C429 1.372 . S
C426 H436 0.931 . S
C427 C424 1.382 . S
C427 C429 1.390 . S
C427 H437 0.931 . S
C428 C424 1.390 . S
C428 C425 1.392 . S
C428 H438 0.930 . S
C429 C426 1.372 . S
C429 C427 1.390 . S
C429 H439 0.929 . S
C430 O410 1.255 . S
C430 O411 1.257 . S
C431 Eu367 2.787 . S
C431 O406 1.252 . S
C431 O409 1.268 . S
C431 C424 1.506 . S
H432 C415 0.931 . S
H433 C416 0.931 . S
H434 C417 0.929 . S
H435 C418 0.930 . S
H436 C426 0.931 . S
H437 C427 0.931 . S
H438 C428 0.930 . S
H439 C429 0.929 . S
H440 C458 0.951 . S
H441 C460 0.951 . S
H442 C462 0.950 . S
H443 C463 0.950 . S
H444 C465 0.950 . S
H445 C468 0.950 . S
H446 C469 0.950 . S
H447 C471 0.950 . S
H448 C472 0.950 . S
H449 C473 0.951 . S
H450 C475 0.951 . S
H451 C477 0.950 1_565 S
H452 C478 0.907 1_565 S
H453 C480 0.950 . S
H454 C483 0.950 . S
H455 C484 0.950 . S
H456 C486 0.950 . S
H457 C487 0.950 . S
C458 H440 0.951 . S
C458 C459 1.366 . S
C458 C460 1.388 . S
C459 C458 1.366 . S
C459 C463 1.385 . S
C460 H441 0.951 . S
C460 C458 1.388 . S
C460 C461 1.366 . S
C461 C460 1.366 . S
C461 C462 1.414 . S
C461 C464 1.499 . S
C462 H442 0.950 . S
C462 C461 1.414 . S
C462 C463 1.374 . S
C463 H443 0.950 . S
C463 C459 1.385 . S
C463 C462 1.374 . S
C464 C461 1.499 . S
C464 C465 1.373 . S
C464 C466 1.389 . S
C465 H444 0.950 . S
C465 C464 1.373 . S
C465 C481 1.377 . S
C466 C464 1.389 . S
C466 C467 1.524 . S
C466 C480 1.377 . S
C467 C466 1.524 . S
C467 C468 1.397 . S
C467 C472 1.363 1_545 S
C468 H445 0.950 . S
C468 C467 1.397 . S
C468 C469 1.334 . S
C469 H446 0.950 . S
C469 C468 1.334 . S
C469 C470 1.287 . S
C470 C469 1.287 . S
C470 C471 1.524 1_545 S
C470 H489 0.913 . S
C471 H447 0.950 . S
C471 C470 1.524 1_565 S
C471 C472 1.415 . S
C472 H448 0.950 . S
C472 C467 1.363 1_565 S
C472 C471 1.415 . S
C473 H449 0.951 . S
C473 C474 1.366 . S
C473 C475 1.388 . S
C474 C473 1.366 . S
C474 C478 1.422 . S
C475 H450 0.951 . S
C475 C473 1.388 . S
C475 C476 1.366 . S
C476 C475 1.366 . S
C476 C477 1.414 . S
C476 C479 1.499 . S
C477 H451 0.950 1_545 S
C477 C476 1.414 . S
C477 C478 1.380 . S
C478 H452 0.907 1_545 S
C478 C474 1.422 . S
C478 C477 1.380 . S
C479 C476 1.499 . S
C479 C480 1.373 . S
C479 C481 1.389 . S
C480 H453 0.950 . S
C480 C466 1.377 . S
C480 C479 1.373 . S
C481 C465 1.377 . S
C481 C479 1.389 . S
C481 C482 1.524 . S
C482 C481 1.524 . S
C482 C483 1.397 . S
C482 C487 1.363 . S
C483 H454 0.950 . S
C483 C482 1.397 . S
C483 C484 1.334 . S
C484 H455 0.950 . S
C484 C483 1.334 . S
C484 C485 1.287 . S
C485 C484 1.287 . S
C485 C486 1.524 . S
C485 H488 0.999 . S
C486 H456 0.950 . S
C486 C485 1.524 . S
C486 C487 1.415 . S
C487 H457 0.950 . S
C487 C482 1.363 . S
C487 C486 1.415 . S
H488 C485 0.999 . S
H489 C470 0.913 . S
H490 C508 0.951 . S
H491 C510 0.951 . S
H492 C512 0.950 . S
H493 C513 0.950 . S
H494 C515 0.950 . S
H495 C518 0.950 . S
H496 C519 0.950 . S
H497 C521 0.950 . S
H498 C522 0.950 . S
H499 C523 0.951 . S
H500 C525 0.951 . S
H501 C527 0.950 . S
H502 C528 0.950 . S
H503 C530 0.950 . S
H504 C533 0.950 . S
H505 C534 0.950 . S
H506 C536 0.950 . S
H507 C537 0.950 . S
C508 H490 0.951 . S
C508 C509 1.366 . S
C508 C510 1.388 . S
C509 C508 1.366 . S
C509 C513 1.385 . S
C510 H491 0.951 . S
C510 C508 1.388 . S
C510 C511 1.366 . S
C511 C510 1.366 . S
C511 C512 1.414 . S
C511 C514 1.499 . S
C512 H492 0.950 . S
C512 C511 1.414 . S
C512 C513 1.374 . S
C513 H493 0.950 . S
C513 C509 1.385 . S
C513 C512 1.374 . S
C514 C511 1.499 . S
C514 C515 1.373 . S
C514 C516 1.389 . S
C515 H494 0.950 . S
C515 C514 1.373 . S
C515 C531 1.377 . S
C516 C514 1.389 . S
C516 C517 1.524 . S
C516 C530 1.377 . S
C517 C516 1.524 . S
C517 C518 1.397 . S
C517 C522 1.363 . S
C518 H495 0.950 . S
C518 C517 1.397 . S
C518 C519 1.334 . S
C519 H496 0.950 . S
C519 C518 1.334 . S
C519 C520 1.287 . S
C520 C519 1.287 . S
C520 C521 1.524 . S
C520 H539 0.913 . S
C521 H497 0.950 . S
C521 C520 1.524 . S
C521 C522 1.415 . S
C522 H498 0.950 . S
C522 C517 1.363 . S
C522 C521 1.415 . S
C523 H499 0.951 . S
C523 C524 1.366 . S
C523 C525 1.388 . S
C524 C523 1.366 . S
C524 C528 1.385 . S
C525 H500 0.951 . S
C525 C523 1.388 . S
C525 C526 1.366 . S
C526 C525 1.366 . S
C526 C527 1.414 . S
C526 C529 1.499 . S
C527 H501 0.950 . S
C527 C526 1.414 . S
C527 C528 1.374 . S
C528 H502 0.950 . S
C528 C524 1.385 . S
C528 C527 1.374 . S
C529 C526 1.499 . S
C529 C530 1.373 . S
C529 C531 1.389 . S
C530 H503 0.950 . S
C530 C516 1.377 . S
C530 C529 1.373 . S
C531 C515 1.377 . S
C531 C529 1.389 . S
C531 C532 1.524 . S
C532 C531 1.524 . S
C532 C533 1.397 . S
C532 C537 1.363 . S
C533 H504 0.950 . S
C533 C532 1.397 . S
C533 C534 1.334 . S
C534 H505 0.950 . S
C534 C533 1.334 . S
C534 C535 1.287 . S
C535 C534 1.287 . S
C535 C536 1.524 . S
C535 H538 0.999 . S
C536 H506 0.950 . S
C536 C535 1.524 . S
C536 C537 1.415 . S
C537 H507 0.950 . S
C537 C532 1.363 . S
C537 C536 1.415 . S
H538 C535 0.999 . S
H539 C520 0.913 . S
H540 C558 0.951 . S
H541 C560 0.951 . S
H542 C562 0.950 . S
H543 C563 0.950 . S
H544 C565 0.950 . S
H545 C568 0.950 . S
H546 C569 0.950 . S
H547 C571 0.950 . S
H548 C572 0.950 . S
H549 C573 0.951 . S
H550 C575 0.951 . S
H551 C577 0.950 . S
H552 C578 0.950 . S
H553 C580 0.950 . S
H554 C583 0.950 . S
H555 C584 0.950 . S
H556 C586 0.950 . S
H557 C587 0.950 . S
C558 H540 0.951 . S
C558 C559 1.366 . S
C558 C560 1.388 . S
C559 C558 1.366 . S
C559 C563 1.385 . S
C560 H541 0.951 . S
C560 C558 1.388 . S
C560 C561 1.366 . S
C561 C560 1.366 . S
C561 C562 1.414 . S
C561 C564 1.499 . S
C562 H542 0.950 . S
C562 C561 1.414 . S
C562 C563 1.374 . S
C563 H543 0.950 . S
C563 C559 1.385 . S
C563 C562 1.374 . S
C564 C561 1.499 . S
C564 C565 1.373 . S
C564 C566 1.389 . S
C565 H544 0.950 . S
C565 C564 1.373 . S
C565 C581 1.377 . S
C566 C564 1.389 . S
C566 C567 1.524 . S
C566 C580 1.377 . S
C567 C566 1.524 . S
C567 C568 1.397 . S
C567 C572 1.363 . S
C568 H545 0.950 . S
C568 C567 1.397 . S
C568 C569 1.334 . S
C569 H546 0.950 . S
C569 C568 1.334 . S
C569 C570 1.287 . S
C570 C569 1.287 . S
C570 C571 1.524 . S
C570 H589 0.913 . S
C571 H547 0.950 . S
C571 C570 1.524 . S
C571 C572 1.415 . S
C572 H548 0.950 . S
C572 C567 1.363 . S
C572 C571 1.415 . S
C573 H549 0.951 . S
C573 C574 1.366 . S
C573 C575 1.388 . S
C574 C573 1.366 . S
C574 C578 1.385 . S
C575 H550 0.951 . S
C575 C573 1.388 . S
C575 C576 1.366 . S
C576 C575 1.366 . S
C576 C577 1.414 . S
C576 C579 1.499 . S
C577 H551 0.950 . S
C577 C576 1.414 . S
C577 C578 1.374 . S
C578 H552 0.950 . S
C578 C574 1.385 . S
C578 C577 1.374 . S
C579 C576 1.499 . S
C579 C580 1.373 . S
C579 C581 1.389 . S
C580 H553 0.950 . S
C580 C566 1.377 . S
C580 C579 1.373 . S
C581 C565 1.377 . S
C581 C579 1.389 . S
C581 C582 1.524 . S
C582 C581 1.524 . S
C582 C583 1.397 . S
C582 C587 1.363 . S
C583 H554 0.950 . S
C583 C582 1.397 . S
C583 C584 1.334 . S
C584 H555 0.950 . S
C584 C583 1.334 . S
C584 C585 1.287 . S
C585 C584 1.287 . S
C585 C586 1.524 . S
C585 H588 0.999 . S
C586 H556 0.950 . S
C586 C585 1.524 . S
C586 C587 1.415 . S
C587 H557 0.950 . S
C587 C582 1.363 . S
C587 C586 1.415 . S
H588 C585 0.999 . S
H589 C570 0.913 . S
H590 C608 0.951 . S
H591 C610 0.951 . S
H592 C612 0.950 . S
H593 C613 0.950 . S
H594 C615 0.950 . S
H595 C618 0.950 1_455 S
H596 C619 0.950 . S
H597 C621 0.950 . S
H598 C622 0.950 . S
H599 C623 0.951 . S
H600 C625 0.951 . S
H601 C627 0.950 1_655 S
H602 C628 0.930 1_655 S
H603 C630 0.950 1_655 S
H604 C633 0.950 . S
H605 C634 0.950 . S
H606 C636 0.950 . S
H607 C637 0.950 . S
C608 H590 0.951 . S
C608 C609 1.366 . S
C608 C610 1.388 . S
C609 C608 1.366 . S
C609 C613 1.385 . S
C610 H591 0.951 . S
C610 C608 1.388 . S
C610 C611 1.366 . S
C611 C610 1.366 . S
C611 C612 1.414 . S
C611 C614 1.499 . S
C612 H592 0.950 . S
C612 C611 1.414 . S
C612 C613 1.374 . S
C613 H593 0.950 . S
C613 C609 1.385 . S
C613 C612 1.374 . S
C614 C611 1.499 . S
C614 C615 1.373 . S
C614 C616 1.389 . S
C615 H594 0.950 . S
C615 C614 1.373 . S
C615 C631 1.377 . S
C616 C614 1.389 . S
C616 C617 1.524 1_455 S
C616 C630 1.377 . S
C617 C616 1.524 1_655 S
C617 C618 1.397 . S
C617 C622 1.363 . S
C618 H595 0.950 1_655 S
C618 C617 1.397 . S
C618 C619 1.334 . S
C619 H596 0.950 . S
C619 C618 1.334 . S
C619 C620 1.287 . S
C620 C619 1.287 . S
C620 C621 1.524 . S
C620 H639 0.913 . S
C621 H597 0.950 . S
C621 C620 1.524 . S
C621 C622 1.415 . S
C622 H598 0.950 . S
C622 C617 1.363 . S
C622 C621 1.415 . S
C623 H599 0.951 . S
C623 C624 1.366 . S
C623 C625 1.388 . S
C624 C623 1.366 . S
C624 C628 1.401 . S
C625 H600 0.951 . S
C625 C623 1.388 . S
C625 C626 1.366 . S
C626 C625 1.366 . S
C626 C627 1.414 . S
C626 C629 1.499 . S
C627 H601 0.950 1_455 S
C627 C626 1.414 . S
C627 C628 1.377 . S
C628 H602 0.930 1_455 S
C628 C624 1.401 . S
C628 C627 1.377 . S
C629 C626 1.499 . S
C629 C630 1.373 . S
C629 C631 1.389 . S
C630 H603 0.950 1_455 S
C630 C616 1.377 . S
C630 C629 1.373 . S
C631 C615 1.377 . S
C631 C629 1.389 . S
C631 C632 1.524 . S
C632 C631 1.524 . S
C632 C633 1.397 . S
C632 C637 1.363 . S
C633 H604 0.950 . S
C633 C632 1.397 . S
C633 C634 1.334 . S
C634 H605 0.950 . S
C634 C633 1.334 . S
C634 C635 1.287 . S
C635 C634 1.287 . S
C635 C636 1.524 . S
C635 H638 0.999 . S
C636 H606 0.950 . S
C636 C635 1.524 . S
C636 C637 1.415 . S
C637 H607 0.950 . S
C637 C632 1.363 . S
C637 C636 1.415 . S
H638 C635 0.999 . S
H639 C620 0.913 . S
H640 C658 0.951 . S
H641 C660 0.951 1_556 S
H642 C662 0.951 1_545 S
H643 C663 0.950 . S
H644 C665 0.950 1_554 S
H645 C668 0.950 . S
H646 C669 0.950 . S
H647 C671 0.950 . S
H648 C672 0.950 . S
H649 C673 0.951 . S
H650 C675 0.951 . S
H651 C677 0.950 . S
H652 C678 0.950 . S
H653 C680 0.950 . S
H654 C683 0.950 . S
H655 C684 0.950 . S
H656 C686 0.950 . S
H657 C687 0.950 1_554 S
C658 H640 0.951 . S
C658 C659 1.366 . S
C658 C660 1.388 . S
C659 C658 1.366 . S
C659 C663 1.385 . S
C660 H641 0.951 1_554 S
C660 C658 1.388 . S
C660 C661 1.366 . S
C661 C660 1.366 . S
C661 C662 1.414 . S
C661 C664 1.507 . S
C662 H642 0.951 1_565 S
C662 C661 1.414 . S
C662 C663 1.374 . S
C663 H643 0.950 . S
C663 C659 1.385 . S
C663 C662 1.374 . S
C664 C661 1.507 . S
C664 C665 1.370 1_564 S
C664 C666 1.383 1_554 S
C665 H644 0.950 1_556 S
C665 C664 1.370 1_546 S
C665 C681 1.377 . S
C666 C664 1.383 1_556 S
C666 C667 1.524 . S
C666 C680 1.377 . S
C667 C666 1.524 . S
C667 C668 1.397 1_556 S
C667 C672 1.363 . S
C668 H645 0.950 . S
C668 C667 1.397 1_554 S
C668 C669 1.334 . S
C669 H646 0.950 . S
C669 C668 1.334 . S
C669 C670 1.287 . S
C670 C669 1.287 . S
C670 C671 1.524 1_554 S
C670 H689 0.913 . S
C671 H647 0.950 . S
C671 C670 1.524 1_556 S
C671 C672 1.415 . S
C672 H648 0.950 . S
C672 C667 1.363 . S
C672 C671 1.415 . S
C673 H649 0.951 . S
C673 C674 1.371 . S
C673 C675 1.388 . S
C674 C673 1.371 . S
C674 C678 1.378 1_545 S
C675 H650 0.951 . S
C675 C673 1.388 . S
C675 C676 1.366 1_545 S
C676 C675 1.366 1_565 S
C676 C677 1.414 . S
C676 C679 1.499 . S
C677 H651 0.950 . S
C677 C676 1.414 . S
C677 C678 1.374 . S
C678 H652 0.950 . S
C678 C674 1.378 1_565 S
C678 C677 1.374 . S
C679 C676 1.499 . S
C679 C680 1.373 . S
C679 C681 1.389 1_565 S
C680 H653 0.950 . S
C680 C666 1.377 . S
C680 C679 1.373 . S
C681 C665 1.377 . S
C681 C679 1.389 1_545 S
C681 C682 1.524 . S
C682 C681 1.524 . S
C682 C683 1.397 . S
C682 C687 1.363 . S
C683 H654 0.950 . S
C683 C682 1.397 . S
C683 C684 1.334 . S
C684 H655 0.950 . S
C684 C683 1.334 . S
C684 C685 1.287 . S
C685 C684 1.287 . S
C685 C686 1.524 . S
C685 H688 0.999 . S
C686 H656 0.950 . S
C686 C685 1.524 . S
C686 C687 1.415 . S
C687 H657 0.950 1_556 S
C687 C682 1.363 . S
C687 C686 1.415 . S
H688 C685 0.999 . S
H689 C670 0.913 . S
H690 C708 0.951 . S
H691 C710 0.951 . S
H692 C712 0.950 . S
H693 C713 0.950 . S
H694 C715 0.950 . S
H695 C718 0.950 . S
H696 C719 0.950 . S
H697 C721 0.950 . S
H698 C722 0.950 . S
H699 C723 0.951 . S
H700 C725 0.951 . S
H701 C727 0.950 . S
H702 C728 0.950 . S
H703 C730 0.950 . S
H704 C733 0.950 . S
H705 C734 0.950 . S
H706 C736 0.950 . S
H707 C737 0.950 . S
C708 H690 0.951 . S
C708 C709 1.366 . S
C708 C710 1.388 . S
C709 C708 1.366 . S
C709 C713 1.385 . S
C710 H691 0.951 . S
C710 C708 1.388 . S
C710 C711 1.366 . S
C711 C710 1.366 . S
C711 C712 1.414 . S
C711 C714 1.499 . S
C712 H692 0.950 . S
C712 C711 1.414 . S
C712 C713 1.374 . S
C713 H693 0.950 . S
C713 C709 1.385 . S
C713 C712 1.374 . S
C714 C711 1.499 . S
C714 C715 1.373 1_554 S
C714 C716 1.389 1_554 S
C715 H694 0.950 . S
C715 C714 1.373 1_556 S
C715 C731 1.377 . S
C716 C714 1.389 1_556 S
C716 C717 1.524 1_556 S
C716 C730 1.377 . S
C717 C716 1.524 1_554 S
C717 C718 1.397 . S
C717 C722 1.363 1_554 S
C718 H695 0.950 . S
C718 C717 1.397 . S
C718 C719 1.334 . S
C719 H696 0.950 . S
C719 C718 1.334 . S
C719 C720 1.287 . S
C720 C719 1.287 . S
C720 C721 1.523 1_554 S
C720 H739 0.913 . S
C721 H697 0.950 . S
C721 C720 1.523 1_556 S
C721 C722 1.415 . S
C722 H698 0.950 . S
C722 C717 1.363 1_556 S
C722 C721 1.415 . S
C723 H699 0.951 . S
C723 C724 1.366 . S
C723 C725 1.388 . S
C724 C723 1.366 . S
C724 C728 1.385 . S
C725 H700 0.951 . S
C725 C723 1.388 . S
C725 C726 1.366 . S
C726 C725 1.366 . S
C726 C727 1.414 . S
C726 C729 1.499 . S
C727 H701 0.950 . S
C727 C726 1.414 . S
C727 C728 1.374 . S
C728 H702 0.950 . S
C728 C724 1.385 . S
C728 C727 1.374 . S
C729 C726 1.499 . S
C729 C730 1.373 . S
C729 C731 1.389 . S
C730 H703 0.950 . S
C730 C716 1.377 . S
C730 C729 1.373 . S
C731 C715 1.377 . S
C731 C729 1.389 . S
C731 C732 1.524 . S
C732 C731 1.524 . S
C732 C733 1.397 . S
C732 C737 1.363 . S
C733 H704 0.950 . S
C733 C732 1.397 . S
C733 C734 1.334 . S
C734 H705 0.950 . S
C734 C733 1.334 . S
C734 C735 1.287 . S
C735 C734 1.287 . S
C735 C736 1.524 . S
C735 H738 0.999 . S
C736 H706 0.950 . S
C736 C735 1.524 . S
C736 C737 1.415 . S
C737 H707 0.950 . S
C737 C732 1.363 . S
C737 C736 1.415 . S
H738 C735 0.999 . S
H739 C720 0.913 . S
H740 C758 0.951 . S
H741 C760 0.951 . S
H742 C762 0.950 . S
H743 C763 0.950 . S
H744 C765 0.950 . S
H745 C768 0.950 . S
H746 C769 0.950 . S
H747 C771 0.950 . S
H748 C772 0.950 . S
H749 C773 0.951 . S
H750 C775 0.951 . S
H751 C777 0.950 . S
H752 C778 0.950 . S
H753 C780 0.950 . S
H754 C783 0.950 . S
H755 C784 0.950 . S
H756 C786 0.950 . S
H757 C787 0.950 . S
C758 H740 0.951 . S
C758 C759 1.366 . S
C758 C760 1.388 . S
C759 C758 1.366 . S
C759 C763 1.385 . S
C760 H741 0.951 . S
C760 C758 1.388 . S
C760 C761 1.366 . S
C761 C760 1.366 . S
C761 C762 1.414 . S
C761 C764 1.499 1_554 S
C762 H742 0.950 . S
C762 C761 1.414 . S
C762 C763 1.374 . S
C763 H743 0.950 . S
C763 C759 1.385 . S
C763 C762 1.374 . S
C764 C761 1.499 1_556 S
C764 C765 1.373 1_556 S
C764 C766 1.389 . S
C765 H744 0.950 . S
C765 C764 1.373 1_554 S
C765 C781 1.377 1_554 S
C766 C764 1.389 . S
C766 C767 1.524 . S
C766 C780 1.377 . S
C767 C766 1.524 . S
C767 C768 1.397 . S
C767 C772 1.363 . S
C768 H745 0.950 . S
C768 C767 1.397 . S
C768 C769 1.334 . S
C769 H746 0.950 . S
C769 C768 1.334 . S
C769 C770 1.287 . S
C770 C769 1.287 . S
C770 C771 1.524 . S
C770 H789 0.913 . S
C771 H747 0.950 . S
C771 C770 1.524 . S
C771 C772 1.415 . S
C772 H748 0.950 . S
C772 C767 1.363 . S
C772 C771 1.415 . S
C773 H749 0.951 . S
C773 C774 1.366 . S
C773 C775 1.388 . S
C774 C773 1.366 . S
C774 C778 1.385 . S
C775 H750 0.951 . S
C775 C773 1.388 . S
C775 C776 1.366 . S
C776 C775 1.366 . S
C776 C777 1.414 . S
C776 C779 1.499 . S
C777 H751 0.950 . S
C777 C776 1.414 . S
C777 C778 1.374 . S
C778 H752 0.950 . S
C778 C774 1.385 . S
C778 C777 1.374 . S
C779 C776 1.499 . S
C779 C780 1.373 . S
C779 C781 1.389 . S
C780 H753 0.950 . S
C780 C766 1.377 . S
C780 C779 1.373 . S
C781 C765 1.377 1_556 S
C781 C779 1.389 . S
C781 C782 1.524 . S
C782 C781 1.524 . S
C782 C783 1.397 . S
C782 C787 1.363 1_556 S
C783 H754 0.950 . S
C783 C782 1.397 . S
C783 C784 1.334 1_556 S
C784 H755 0.950 . S
C784 C783 1.334 1_554 S
C784 C785 1.287 . S
C785 C784 1.287 . S
C785 C786 1.524 . S
C785 H788 0.999 . S
C786 H756 0.950 . S
C786 C785 1.524 . S
C786 C787 1.415 . S
C787 H757 0.950 . S
C787 C782 1.363 1_554 S
C787 C786 1.415 . S
H788 C785 0.999 . S
H789 C770 0.913 . S
H790 C808 0.951 . S
H791 C810 0.951 . S
H792 C812 0.950 1_455 S
H793 C813 0.950 1_455 S
H794 C815 0.950 . S
H795 C818 0.950 . S
H796 C819 0.950 . S
H797 C821 0.950 1_556 S
H798 C822 0.950 . S
H799 C823 0.951 . S
H800 C825 0.951 . S
H801 C827 0.950 . S
H802 C828 0.950 . S
H803 C830 0.950 . S
H804 C833 0.950 . S
H805 C834 0.950 . S
H806 C836 0.950 . S
H807 C837 0.950 . S
C808 H790 0.951 . S
C808 C809 1.366 . S
C808 C810 1.388 . S
C809 C808 1.366 . S
C809 C813 1.385 . S
C810 H791 0.951 . S
C810 C808 1.388 . S
C810 C811 1.366 . S
C811 C810 1.366 . S
C811 C812 1.414 . S
C811 C814 1.508 . S
C812 H792 0.950 1_655 S
C812 C811 1.414 . S
C812 C813 1.374 . S
C813 H793 0.950 1_655 S
C813 C809 1.385 . S
C813 C812 1.374 . S
C814 C811 1.508 . S
C814 C815 1.367 1_654 S
C814 C816 1.385 1_554 S
C815 H794 0.950 . S
C815 C814 1.367 1_456 S
C815 C831 1.377 . S
C816 C814 1.385 1_556 S
C816 C817 1.524 1_556 S
C816 C830 1.377 . S
C817 C816 1.524 1_554 S
C817 C818 1.397 . S
C817 C822 1.363 1_554 S
C818 H795 0.950 . S
C818 C817 1.397 . S
C818 C819 1.334 . S
C819 H796 0.950 . S
C819 C818 1.334 . S
C819 C820 1.287 . S
C820 C819 1.287 . S
C820 C821 1.524 . S
C820 H839 0.913 . S
C821 H797 0.950 1_554 S
C821 C820 1.524 . S
C821 C822 1.415 1_554 S
C822 H798 0.950 . S
C822 C817 1.363 1_556 S
C822 C821 1.415 1_556 S
C823 H799 0.951 . S
C823 C824 1.366 1_455 S
C823 C825 1.388 . S
C824 C823 1.366 1_655 S
C824 C828 1.385 . S
C825 H800 0.951 . S
C825 C823 1.388 . S
C825 C826 1.366 1_455 S
C826 C825 1.366 1_655 S
C826 C827 1.414 . S
C826 C829 1.499 . S
C827 H801 0.950 . S
C827 C826 1.414 . S
C827 C828 1.374 . S
C828 H802 0.950 . S
C828 C824 1.385 . S
C828 C827 1.374 . S
C829 C826 1.499 . S
C829 C830 1.373 . S
C829 C831 1.389 1_655 S
C830 H803 0.950 . S
C830 C816 1.377 . S
C830 C829 1.373 . S
C831 C815 1.377 . S
C831 C829 1.389 1_455 S
C831 C832 1.524 . S
C832 C831 1.524 . S
C832 C833 1.397 . S
C832 C837 1.363 . S
C833 H804 0.950 . S
C833 C832 1.397 . S
C833 C834 1.334 . S
C834 H805 0.950 . S
C834 C833 1.334 . S
C834 C835 1.287 . S
C835 C834 1.287 . S
C835 C836 1.524 . S
C835 H838 0.999 . S
C836 H806 0.950 . S
C836 C835 1.524 . S
C836 C837 1.415 . S
C837 H807 0.950 . S
C837 C832 1.363 . S
C837 C836 1.415 . S
H838 C835 0.999 . S
H839 C820 0.913 . S
H840 C858 0.951 . S
H841 C860 0.951 . S
H842 C862 0.950 . S
H843 C863 0.950 . S
H844 C865 0.950 . S
H845 C868 0.950 . S
H846 C869 0.950 . S
H847 C871 0.950 1_556 S
H848 C872 0.950 . S
H849 C873 0.962 . S
H850 C875 0.951 . S
H851 C877 0.950 . S
H852 C878 0.950 . S
H853 C880 0.950 . S
H854 C883 0.950 . S
H855 C884 0.950 . S
H856 C886 0.950 . S
H857 C887 0.950 . S
C858 H840 0.951 . S
C858 C859 1.366 . S
C858 C860 1.388 . S
C859 C858 1.366 . S
C859 C863 1.385 . S
C860 H841 0.951 . S
C860 C858 1.388 . S
C860 C861 1.366 . S
C861 C860 1.366 . S
C861 C862 1.414 . S
C861 C864 1.499 . S
C862 H842 0.950 . S
C862 C861 1.414 . S
C862 C863 1.374 . S
C863 H843 0.950 . S
C863 C859 1.385 . S
C863 C862 1.374 . S
C864 C861 1.499 . S
C864 C865 1.373 . S
C864 C866 1.389 . S
C865 H844 0.950 . S
C865 C864 1.373 . S
C865 C881 1.377 . S
C866 C864 1.389 . S
C866 C867 1.524 . S
C866 C880 1.377 . S
C867 C866 1.524 . S
C867 C868 1.397 1_455 S
C867 C872 1.363 . S
C868 H845 0.950 . S
C868 C867 1.397 1_655 S
C868 C869 1.334 . S
C869 H846 0.950 . S
C869 C868 1.334 . S
C869 C870 1.287 . S
C870 C869 1.287 . S
C870 C871 1.524 . S
C870 H889 0.913 1_554 S
C871 H847 0.950 1_554 S
C871 C870 1.524 . S
C871 C872 1.415 1_655 S
C872 H848 0.950 . S
C872 C867 1.363 . S
C872 C871 1.415 1_455 S
C873 H849 0.962 . S
C873 C874 1.366 . S
C873 C875 1.388 . S
C874 C873 1.366 . S
C874 C878 1.385 . S
C875 H850 0.951 . S
C875 C873 1.388 . S
C875 C876 1.366 . S
C876 C875 1.366 . S
C876 C877 1.414 . S
C876 C879 1.499 . S
C877 H851 0.950 . S
C877 C876 1.414 . S
C877 C878 1.374 . S
C878 H852 0.950 . S
C878 C874 1.385 . S
C878 C877 1.374 . S
C879 C876 1.499 . S
C879 C880 1.373 . S
C879 C881 1.389 . S
C880 H853 0.950 . S
C880 C866 1.377 . S
C880 C879 1.373 . S
C881 C865 1.377 . S
C881 C879 1.389 . S
C881 C882 1.524 . S
C882 C881 1.524 . S
C882 C883 1.397 . S
C882 C887 1.363 . S
C883 H854 0.950 . S
C883 C882 1.397 . S
C883 C884 1.334 . S
C884 H855 0.950 . S
C884 C883 1.334 . S
C884 C885 1.287 . S
C885 C884 1.287 . S
C885 C886 1.524 . S
C885 H888 0.999 . S
C886 H856 0.950 . S
C886 C885 1.524 . S
C886 C887 1.415 . S
C887 H857 0.950 . S
C887 C882 1.363 . S
C887 C886 1.415 . S
H888 C885 0.999 . S
H889 C870 0.913 1_556 S
H890 C908 0.951 . S
H891 C910 0.951 . S
H892 C912 0.950 . S
H893 C913 0.950 . S
H894 C915 0.950 . S
H895 C918 0.950 . S
H896 C919 0.950 . S
H897 C921 0.950 . S
H898 C922 0.950 . S
H899 C923 0.951 . S
H900 C925 0.951 . S
H901 C927 0.950 . S
H902 C928 0.950 . S
H903 C930 0.950 . S
H904 C933 0.950 . S
H905 C934 0.950 . S
H906 C936 0.950 . S
H907 C937 0.950 . S
C908 H890 0.951 . S
C908 C909 1.366 . S
C908 C910 1.388 . S
C909 C908 1.366 . S
C909 C913 1.385 . S
C910 H891 0.951 . S
C910 C908 1.388 . S
C910 C911 1.366 . S
C911 C910 1.366 . S
C911 C912 1.414 . S
C911 C914 1.499 . S
C912 H892 0.950 . S
C912 C911 1.414 . S
C912 C913 1.374 . S
C913 H893 0.950 . S
C913 C909 1.385 . S
C913 C912 1.374 . S
C914 C911 1.499 . S
C914 C915 1.373 . S
C914 C916 1.389 . S
C915 H894 0.950 . S
C915 C914 1.373 . S
C915 C931 1.377 . S
C916 C914 1.389 . S
C916 C917 1.524 . S
C916 C930 1.377 . S
C917 C916 1.524 . S
C917 C918 1.397 . S
C917 C922 1.363 . S
C918 H895 0.950 . S
C918 C917 1.397 . S
C918 C919 1.334 . S
C919 H896 0.950 . S
C919 C918 1.334 . S
C919 C920 1.287 . S
C920 C919 1.287 . S
C920 C921 1.524 . S
C920 H939 0.913 . S
C921 H897 0.950 . S
C921 C920 1.524 . S
C921 C922 1.415 . S
C922 H898 0.950 . S
C922 C917 1.363 . S
C922 C921 1.415 . S
C923 H899 0.951 . S
C923 C924 1.366 . S
C923 C925 1.388 . S
C924 C923 1.366 . S
C924 C928 1.385 . S
C925 H900 0.951 . S
C925 C923 1.388 . S
C925 C926 1.366 . S
C926 C925 1.366 . S
C926 C927 1.414 . S
C926 C929 1.499 . S
C927 H901 0.950 . S
C927 C926 1.414 . S
C927 C928 1.374 . S
C928 H902 0.950 . S
C928 C924 1.385 . S
C928 C927 1.374 . S
C929 C926 1.499 . S
C929 C930 1.373 . S
C929 C931 1.389 . S
C930 H903 0.950 . S
C930 C916 1.377 . S
C930 C929 1.373 . S
C931 C915 1.377 . S
C931 C929 1.389 . S
C931 C932 1.524 1_545 S
C932 C931 1.524 1_565 S
C932 C933 1.397 . S
C932 C937 1.363 . S
C933 H904 0.950 . S
C933 C932 1.397 . S
C933 C934 1.334 . S
C934 H905 0.950 . S
C934 C933 1.334 . S
C934 C935 1.287 . S
C935 C934 1.287 . S
C935 C936 1.524 . S
C935 H938 0.999 . S
C936 H906 0.950 . S
C936 C935 1.524 . S
C936 C937 1.415 . S
C937 H907 0.950 . S
C937 C932 1.363 . S
C937 C936 1.415 . S
H938 C935 0.999 . S
H939 C920 0.913 . S
H940 C958 0.951 . S
H941 C960 0.951 . S
H942 C962 0.950 . S
H943 C963 0.950 . S
H944 C965 0.950 . S
H945 C968 0.950 . S
H946 C969 0.950 . S
H947 C971 0.950 . S
H948 C972 0.950 . S
H949 C973 0.951 . S
H950 C975 0.951 . S
H951 C977 0.950 . S
H952 C978 0.950 . S
H953 C980 0.950 . S
H954 C983 0.950 . S
H955 C984 0.950 . S
H956 C986 0.950 . S
H957 C987 0.950 . S
C958 H940 0.951 . S
C958 C959 1.366 . S
C958 C960 1.388 . S
C959 C958 1.366 . S
C959 C963 1.385 . S
C960 H941 0.951 . S
C960 C958 1.388 . S
C960 C961 1.366 . S
C961 C960 1.366 . S
C961 C962 1.414 . S
C961 C964 1.499 . S
C962 H942 0.950 . S
C962 C961 1.414 . S
C962 C963 1.374 . S
C963 H943 0.950 . S
C963 C959 1.385 . S
C963 C962 1.374 . S
C964 C961 1.499 . S
C964 C965 1.373 . S
C964 C966 1.389 . S
C965 H944 0.950 . S
C965 C964 1.373 . S
C965 C981 1.377 . S
C966 C964 1.389 . S
C966 C967 1.524 . S
C966 C980 1.377 . S
C967 C966 1.524 . S
C967 C968 1.397 . S
C967 C972 1.363 . S
C968 H945 0.950 . S
C968 C967 1.397 . S
C968 C969 1.334 . S
C969 H946 0.950 . S
C969 C968 1.334 . S
C969 C970 1.287 . S
C970 C969 1.287 . S
C970 C971 1.524 . S
C970 H989 0.913 . S
C971 H947 0.950 . S
C971 C970 1.524 . S
C971 C972 1.415 . S
C972 H948 0.950 . S
C972 C967 1.363 . S
C972 C971 1.415 . S
C973 H949 0.951 . S
C973 C974 1.366 . S
C973 C975 1.388 . S
C974 C973 1.366 . S
C974 C978 1.385 . S
C975 H950 0.951 . S
C975 C973 1.388 . S
C975 C976 1.366 . S
C976 C975 1.366 . S
C976 C977 1.414 . S
C976 C979 1.499 . S
C977 H951 0.950 . S
C977 C976 1.414 . S
C977 C978 1.374 . S
C978 H952 0.950 . S
C978 C974 1.385 . S
C978 C977 1.374 . S
C979 C976 1.499 . S
C979 C980 1.373 . S
C979 C981 1.389 . S
C980 H953 0.950 . S
C980 C966 1.377 . S
C980 C979 1.373 . S
C981 C965 1.377 . S
C981 C979 1.389 . S
C981 C982 1.524 . S
C982 C981 1.524 . S
C982 C983 1.397 . S
C982 C987 1.363 . S
C983 H954 0.950 . S
C983 C982 1.397 . S
C983 C984 1.334 . S
C984 H955 0.950 . S
C984 C983 1.334 . S
C984 C985 1.287 . S
C985 C984 1.287 . S
C985 C986 1.524 . S
C985 H988 0.999 . S
C986 H956 0.950 . S
C986 C985 1.524 . S
C986 C987 1.415 . S
C987 H957 0.950 . S
C987 C982 1.363 . S
C987 C986 1.415 . S
H988 C985 0.999 . S
H989 C970 0.913 . S
H990 C1008 0.951 . S
H991 C1010 0.951 . S
H992 C1012 0.950 . S
H993 C1013 0.950 . S
H994 C1015 0.950 . S
H995 C1018 0.950 . S
H996 C1019 0.950 . S
H997 C1021 0.950 . S
H998 C1022 0.950 . S
H999 C1023 0.951 . S
H1000 C1025 0.951 . S
H1001 C1027 0.950 . S
H1002 C1028 0.950 . S
H1003 C1030 0.950 . S
H1004 C1033 0.950 . S
H1005 C1034 0.950 . S
H1006 C1036 0.950 . S
H1007 C1037 0.950 . S
C1008 H990 0.951 . S
C1008 C1009 1.366 . S
C1008 C1010 1.388 . S
C1009 C1008 1.366 . S
C1009 C1013 1.385 . S
C1010 H991 0.951 . S
C1010 C1008 1.388 . S
C1010 C1011 1.366 . S
C1011 C1010 1.366 . S
C1011 C1012 1.414 . S
C1011 C1014 1.499 . S
C1012 H992 0.950 . S
C1012 C1011 1.414 . S
C1012 C1013 1.374 . S
C1013 H993 0.950 . S
C1013 C1009 1.385 . S
C1013 C1012 1.374 . S
C1014 C1011 1.499 . S
C1014 C1015 1.373 . S
C1014 C1016 1.389 . S
C1015 H994 0.950 . S
C1015 C1014 1.373 . S
C1015 C1031 1.377 . S
C1016 C1014 1.389 . S
C1016 C1017 1.524 . S
C1016 C1030 1.377 . S
C1017 C1016 1.524 . S
C1017 C1018 1.397 . S
C1017 C1022 1.363 . S
C1018 H995 0.950 . S
C1018 C1017 1.397 . S
C1018 C1019 1.334 . S
C1019 H996 0.950 . S
C1019 C1018 1.334 . S
C1019 C1020 1.287 . S
C1020 C1019 1.287 . S
C1020 C1021 1.524 . S
C1020 H1039 0.913 . S
C1021 H997 0.950 . S
C1021 C1020 1.524 . S
C1021 C1022 1.415 . S
C1022 H998 0.950 . S
C1022 C1017 1.363 . S
C1022 C1021 1.415 . S
C1023 H999 0.951 . S
C1023 C1024 1.366 . S
C1023 C1025 1.388 . S
C1024 C1023 1.366 . S
C1024 C1028 1.385 . S
C1025 H1000 0.951 . S
C1025 C1023 1.388 . S
C1025 C1026 1.366 . S
C1026 C1025 1.366 . S
C1026 C1027 1.414 . S
C1026 C1029 1.499 . S
C1027 H1001 0.950 . S
C1027 C1026 1.414 . S
C1027 C1028 1.374 . S
C1028 H1002 0.950 . S
C1028 C1024 1.385 . S
C1028 C1027 1.374 . S
C1029 C1026 1.499 . S
C1029 C1030 1.373 . S
C1029 C1031 1.389 . S
C1030 H1003 0.950 . S
C1030 C1016 1.377 . S
C1030 C1029 1.373 . S
C1031 C1015 1.377 . S
C1031 C1029 1.389 . S
C1031 C1032 1.524 . S
C1032 C1031 1.524 . S
C1032 C1033 1.397 . S
C1032 C1037 1.363 . S
C1033 H1004 0.950 . S
C1033 C1032 1.397 . S
C1033 C1034 1.334 . S
C1034 H1005 0.950 . S
C1034 C1033 1.334 . S
C1034 C1035 1.287 . S
C1035 C1034 1.287 . S
C1035 C1036 1.524 . S
C1035 H1038 0.999 . S
C1036 H1006 0.950 . S
C1036 C1035 1.524 . S
C1036 C1037 1.415 . S
C1037 H1007 0.950 . S
C1037 C1032 1.363 . S
C1037 C1036 1.415 . S
H1038 C1035 0.999 . S
H1039 C1020 0.913 . S
H1040 C1058 0.951 . S
H1041 C1060 0.951 . S
H1042 C1062 0.950 1_455 S
H1043 C1063 0.950 1_455 S
H1044 C1065 0.950 . S
H1045 C1068 0.950 . S
H1046 C1069 0.950 . S
H1047 C1071 0.950 . S
H1048 C1072 0.950 . S
H1049 C1073 0.951 . S
H1050 C1075 0.951 . S
H1051 C1077 0.950 . S
H1052 C1078 0.950 . S
H1053 C1080 0.950 . S
H1054 C1083 0.950 . S
H1055 C1084 0.950 . S
H1056 C1086 0.950 . S
H1057 C1087 0.950 . S
C1058 H1040 0.951 . S
C1058 C1059 1.366 . S
C1058 C1060 1.388 . S
C1059 C1058 1.366 . S
C1059 C1063 1.385 . S
C1060 H1041 0.951 . S
C1060 C1058 1.388 . S
C1060 C1061 1.366 . S
C1061 C1060 1.366 . S
C1061 C1062 1.414 . S
C1061 C1064 1.499 . S
C1062 H1042 0.950 1_655 S
C1062 C1061 1.414 . S
C1062 C1063 1.374 . S
C1063 H1043 0.950 1_655 S
C1063 C1059 1.385 . S
C1063 C1062 1.374 . S
C1064 C1061 1.499 . S
C1064 C1065 1.373 1_655 S
C1064 C1066 1.389 . S
C1065 H1044 0.950 . S
C1065 C1064 1.373 1_455 S
C1065 C1081 1.377 . S
C1066 C1064 1.389 . S
C1066 C1067 1.524 1_554 S
C1066 C1080 1.377 1_554 S
C1067 C1066 1.524 1_556 S
C1067 C1068 1.397 . S
C1067 C1072 1.363 . S
C1068 H1045 0.950 . S
C1068 C1067 1.397 . S
C1068 C1069 1.334 . S
C1069 H1046 0.950 . S
C1069 C1068 1.334 . S
C1069 C1070 1.287 . S
C1070 C1069 1.287 . S
C1070 C1071 1.524 . S
C1070 H1089 0.913 . S
C1071 H1047 0.950 . S
C1071 C1070 1.524 . S
C1071 C1072 1.415 . S
C1072 H1048 0.950 . S
C1072 C1067 1.363 . S
C1072 C1071 1.415 . S
C1073 H1049 0.951 . S
C1073 C1074 1.366 . S
C1073 C1075 1.388 . S
C1074 C1073 1.366 . S
C1074 C1078 1.385 1_455 S
C1075 H1050 0.951 . S
C1075 C1073 1.388 . S
C1075 C1076 1.366 1_455 S
C1076 C1075 1.366 1_655 S
C1076 C1077 1.414 . S
C1076 C1079 1.499 . S
C1077 H1051 0.950 . S
C1077 C1076 1.414 . S
C1077 C1078 1.374 . S
C1078 H1052 0.950 . S
C1078 C1074 1.385 1_655 S
C1078 C1077 1.374 . S
C1079 C1076 1.499 . S
C1079 C1080 1.373 . S
C1079 C1081 1.389 1_656 S
C1080 H1053 0.950 . S
C1080 C1066 1.377 1_556 S
C1080 C1079 1.373 . S
C1081 C1065 1.377 . S
C1081 C1079 1.389 1_454 S
C1081 C1082 1.524 . S
C1082 C1081 1.524 . S
C1082 C1083 1.397 . S
C1082 C1087 1.363 . S
C1083 H1054 0.950 . S
C1083 C1082 1.397 . S
C1083 C1084 1.334 . S
C1084 H1055 0.950 . S
C1084 C1083 1.334 . S
C1084 C1085 1.287 . S
C1085 C1084 1.287 . S
C1085 C1086 1.524 . S
C1085 H1088 0.999 . S
C1086 H1056 0.950 . S
C1086 C1085 1.524 . S
C1086 C1087 1.415 . S
C1087 H1057 0.950 . S
C1087 C1082 1.363 . S
C1087 C1086 1.415 . S
H1088 C1085 0.999 . S
H1089 C1070 0.913 . S
H1090 C1108 0.951 . S
H1091 C1110 0.951 . S
H1092 C1112 0.950 . S
H1093 C1113 0.950 . S
H1094 C1115 0.950 . S
H1095 C1118 0.950 . S
H1096 C1119 0.950 . S
H1097 C1121 0.950 . S
H1098 C1122 0.950 . S
H1099 C1123 0.951 . S
H1100 C1125 0.951 1_564 S
H1101 C1127 0.952 . S
H1102 C1128 0.950 . S
H1103 C1130 0.950 . S
H1104 C1133 0.950 . S
H1105 C1134 0.950 . S
H1106 C1136 0.950 . S
H1107 C1137 0.950 . S
C1108 H1090 0.951 . S
C1108 C1109 1.366 . S
C1108 C1110 1.388 . S
C1109 C1108 1.366 . S
C1109 C1113 1.385 . S
C1110 H1091 0.951 . S
C1110 C1108 1.388 . S
C1110 C1111 1.366 . S
C1111 C1110 1.366 . S
C1111 C1112 1.414 . S
C1111 C1114 1.499 . S
C1112 H1092 0.950 . S
C1112 C1111 1.414 . S
C1112 C1113 1.374 . S
C1113 H1093 0.950 . S
C1113 C1109 1.385 . S
C1113 C1112 1.374 . S
C1114 C1111 1.499 . S
C1114 C1115 1.373 . S
C1114 C1116 1.389 1_565 S
C1115 H1094 0.950 . S
C1115 C1114 1.373 . S
C1115 C1131 1.377 . S
C1116 C1114 1.389 1_545 S
C1116 C1117 1.524 . S
C1116 C1130 1.377 1_554 S
C1117 C1116 1.524 . S
C1117 C1118 1.397 . S
C1117 C1122 1.363 1_554 S
C1118 H1095 0.950 . S
C1118 C1117 1.397 . S
C1118 C1119 1.334 . S
C1119 H1096 0.950 . S
C1119 C1118 1.334 . S
C1119 C1120 1.287 . S
C1120 C1119 1.287 . S
C1120 C1121 1.524 1_554 S
C1120 H1139 0.913 . S
C1121 H1097 0.950 . S
C1121 C1120 1.524 1_556 S
C1121 C1122 1.415 . S
C1122 H1098 0.950 . S
C1122 C1117 1.363 1_556 S
C1122 C1121 1.415 . S
C1123 H1099 0.951 . S
C1123 C1124 1.366 . S
C1123 C1125 1.387 . S
C1124 C1123 1.366 . S
C1124 C1128 1.385 . S
C1125 H1100 0.951 1_546 S
C1125 C1123 1.387 . S
C1125 C1126 1.366 1_545 S
C1126 C1125 1.366 1_565 S
C1126 C1127 1.414 1_565 S
C1126 C1129 1.499 . S
C1127 H1101 0.952 . S
C1127 C1126 1.414 1_545 S
C1127 C1128 1.374 . S
C1128 H1102 0.950 . S
C1128 C1124 1.385 . S
C1128 C1127 1.374 . S
C1129 C1126 1.499 . S
C1129 C1130 1.373 1_565 S
C1129 C1131 1.389 1_556 S
C1130 H1103 0.950 . S
C1130 C1116 1.377 1_556 S
C1130 C1129 1.373 1_545 S
C1131 C1115 1.377 . S
C1131 C1129 1.389 1_554 S
C1131 C1132 1.524 . S
C1132 C1131 1.524 . S
C1132 C1133 1.397 1_554 S
C1132 C1137 1.363 . S
C1133 H1104 0.950 . S
C1133 C1132 1.397 1_556 S
C1133 C1134 1.334 . S
C1134 H1105 0.950 . S
C1134 C1133 1.334 . S
C1134 C1135 1.287 1_556 S
C1135 C1134 1.287 1_554 S
C1135 C1136 1.524 . S
C1135 H1138 0.999 . S
C1136 H1106 0.950 . S
C1136 C1135 1.524 . S
C1136 C1137 1.415 . S
C1137 H1107 0.950 . S
C1137 C1132 1.363 . S
C1137 C1136 1.415 . S
H1138 C1135 0.999 . S
H1139 C1120 0.913 . S
H1140 C1158 0.951 . S
H1141 C1160 0.951 . S
H1142 C1162 0.950 . S
H1143 C1163 0.950 . S
H1144 C1165 0.950 . S
H1145 C1168 0.950 . S
H1146 C1169 0.950 . S
H1147 C1171 0.950 . S
H1148 C1172 0.950 . S
H1149 C1173 0.951 . S
H1150 C1175 0.951 . S
H1151 C1177 0.950 . S
H1152 C1178 0.950 . S
H1153 C1180 0.950 . S
H1154 C1183 0.950 . S
H1155 C1184 0.950 . S
H1156 C1186 0.950 . S
H1157 C1187 0.950 . S
C1158 H1140 0.951 . S
C1158 C1159 1.366 . S
C1158 C1160 1.388 . S
C1159 C1158 1.366 . S
C1159 C1163 1.385 . S
C1160 H1141 0.951 . S
C1160 C1158 1.388 . S
C1160 C1161 1.366 . S
C1161 C1160 1.366 . S
C1161 C1162 1.414 . S
C1161 C1164 1.499 . S
C1162 H1142 0.950 . S
C1162 C1161 1.414 . S
C1162 C1163 1.374 . S
C1163 H1143 0.950 . S
C1163 C1159 1.385 . S
C1163 C1162 1.374 . S
C1164 C1161 1.499 . S
C1164 C1165 1.373 . S
C1164 C1166 1.389 . S
C1165 H1144 0.950 . S
C1165 C1164 1.373 . S
C1165 C1181 1.377 1_554 S
C1166 C1164 1.389 . S
C1166 C1167 1.524 . S
C1166 C1180 1.377 . S
C1167 C1166 1.524 . S
C1167 C1168 1.397 . S
C1167 C1172 1.363 . S
C1168 H1145 0.950 . S
C1168 C1167 1.397 . S
C1168 C1169 1.334 . S
C1169 H1146 0.950 . S
C1169 C1168 1.334 . S
C1169 C1170 1.287 . S
C1170 C1169 1.287 . S
C1170 C1171 1.524 . S
C1170 H1189 0.913 . S
C1171 H1147 0.950 . S
C1171 C1170 1.524 . S
C1171 C1172 1.415 . S
C1172 H1148 0.950 . S
C1172 C1167 1.363 . S
C1172 C1171 1.415 . S
C1173 H1149 0.951 . S
C1173 C1174 1.366 . S
C1173 C1175 1.388 . S
C1174 C1173 1.366 . S
C1174 C1178 1.385 . S
C1175 H1150 0.951 . S
C1175 C1173 1.388 . S
C1175 C1176 1.366 . S
C1176 C1175 1.366 . S
C1176 C1177 1.414 . S
C1176 C1179 1.499 . S
C1177 H1151 0.950 . S
C1177 C1176 1.414 . S
C1177 C1178 1.374 . S
C1178 H1152 0.950 . S
C1178 C1174 1.385 . S
C1178 C1177 1.374 . S
C1179 C1176 1.499 . S
C1179 C1180 1.373 1_556 S
C1179 C1181 1.389 . S
C1180 H1153 0.950 . S
C1180 C1166 1.377 . S
C1180 C1179 1.373 1_554 S
C1181 C1165 1.377 1_556 S
C1181 C1179 1.389 . S
C1181 C1182 1.524 . S
C1182 C1181 1.524 . S
C1182 C1183 1.397 . S
C1182 C1187 1.363 1_556 S
C1183 H1154 0.950 . S
C1183 C1182 1.397 . S
C1183 C1184 1.334 . S
C1184 H1155 0.950 . S
C1184 C1183 1.334 . S
C1184 C1185 1.287 . S
C1185 C1184 1.287 . S
C1185 C1186 1.524 . S
C1185 H1188 0.999 . S
C1186 H1156 0.950 . S
C1186 C1185 1.524 . S
C1186 C1187 1.415 1_556 S
C1187 H1157 0.950 . S
C1187 C1182 1.363 1_554 S
C1187 C1186 1.415 1_554 S
H1188 C1185 0.999 . S
H1189 C1170 0.913 . S
H1190 C1208 0.951 . S
H1191 C1210 0.951 . S
H1192 C1212 0.950 . S
H1193 C1213 0.950 . S
H1194 C1215 0.950 . S
H1195 C1218 0.946 1_556 S
H1196 C1219 0.950 . S
H1197 C1221 0.950 . S
H1198 C1222 0.950 . S
H1199 C1223 0.951 . S
H1200 C1225 0.951 . S
H1201 C1227 0.950 . S
H1202 C1228 0.950 . S
H1203 C1230 0.950 . S
H1204 C1233 0.950 . S
H1205 C1234 0.950 . S
H1206 C1236 0.950 1_556 S
H1207 C1237 0.950 1_556 S
C1208 H1190 0.951 . S
C1208 C1209 1.366 . S
C1208 C1210 1.388 . S
C1209 C1208 1.366 . S
C1209 C1213 1.385 . S
C1210 H1191 0.951 . S
C1210 C1208 1.388 . S
C1210 C1211 1.366 . S
C1211 C1210 1.366 . S
C1211 C1212 1.414 . S
C1211 C1214 1.499 . S
C1212 H1192 0.950 . S
C1212 C1211 1.414 . S
C1212 C1213 1.374 . S
C1213 H1193 0.950 . S
C1213 C1209 1.385 . S
C1213 C1212 1.374 . S
C1214 C1211 1.499 . S
C1214 C1215 1.373 . S
C1214 C1216 1.389 . S
C1215 H1194 0.950 . S
C1215 C1214 1.373 . S
C1215 C1231 1.377 . S
C1216 C1214 1.389 . S
C1216 C1217 1.524 . S
C1216 C1230 1.377 1_554 S
C1217 C1216 1.524 . S
C1217 C1218 1.402 . S
C1217 C1222 1.363 . S
C1218 H1195 0.946 1_554 S
C1218 C1217 1.402 . S
C1218 C1219 1.333 1_554 S
C1219 H1196 0.950 . S
C1219 C1218 1.333 1_556 S
C1219 C1220 1.287 1_556 S
C1220 C1219 1.287 1_554 S
C1220 C1221 1.524 . S
C1220 H1239 0.913 . S
C1221 H1197 0.950 . S
C1221 C1220 1.524 . S
C1221 C1222 1.415 . S
C1222 H1198 0.950 . S
C1222 C1217 1.363 . S
C1222 C1221 1.415 . S
C1223 H1199 0.951 . S
C1223 C1224 1.366 . S
C1223 C1225 1.388 . S
C1224 C1223 1.366 . S
C1224 C1228 1.385 . S
C1225 H1200 0.951 . S
C1225 C1223 1.388 . S
C1225 C1226 1.366 . S
C1226 C1225 1.366 . S
C1226 C1227 1.414 . S
C1226 C1229 1.499 . S
C1227 H1201 0.950 . S
C1227 C1226 1.414 . S
C1227 C1228 1.374 . S
C1228 H1202 0.950 . S
C1228 C1224 1.385 . S
C1228 C1227 1.374 . S
C1229 C1226 1.499 . S
C1229 C1230 1.373 . S
C1229 C1231 1.389 1_556 S
C1230 H1203 0.950 . S
C1230 C1216 1.377 1_556 S
C1230 C1229 1.373 . S
C1231 C1215 1.377 . S
C1231 C1229 1.389 1_554 S
C1231 C1232 1.524 . S
C1232 C1231 1.524 . S
C1232 C1233 1.397 . S
C1232 C1237 1.363 . S
C1233 H1204 0.950 . S
C1233 C1232 1.397 . S
C1233 C1234 1.334 . S
C1234 H1205 0.950 . S
C1234 C1233 1.334 . S
C1234 C1235 1.287 . S
C1235 C1234 1.287 . S
C1235 C1236 1.524 . S
C1235 H1238 0.999 . S
C1236 H1206 0.950 1_554 S
C1236 C1235 1.524 . S
C1236 C1237 1.415 . S
C1237 H1207 0.950 1_554 S
C1237 C1232 1.363 . S
C1237 C1236 1.415 . S
H1238 C1235 0.999 . S
H1239 C1220 0.913 . S
H1240 C1258 0.951 . S
H1241 C1260 0.951 . S
H1242 C1262 0.950 . S
H1243 C1263 0.950 . S
H1244 C1265 0.950 . S
H1245 C1268 0.950 . S
H1246 C1269 0.950 . S
H1247 C1271 0.950 . S
H1248 C1272 0.950 . S
H1249 C1273 0.951 . S
H1250 C1275 0.951 . S
H1251 C1277 0.950 . S
H1252 C1278 0.950 . S
H1253 C1280 0.950 . S
H1254 C1283 0.950 . S
H1255 C1284 0.950 . S
H1256 C1286 0.950 . S
H1257 C1287 0.950 . S
C1258 H1240 0.951 . S
C1258 C1259 1.366 . S
C1258 C1260 1.388 . S
C1259 C1258 1.366 . S
C1259 C1263 1.385 . S
C1260 H1241 0.951 . S
C1260 C1258 1.388 . S
C1260 C1261 1.366 . S
C1261 C1260 1.366 . S
C1261 C1262 1.414 . S
C1261 C1264 1.499 . S
C1262 H1242 0.950 . S
C1262 C1261 1.414 . S
C1262 C1263 1.374 . S
C1263 H1243 0.950 . S
C1263 C1259 1.385 . S
C1263 C1262 1.374 . S
C1264 C1261 1.499 . S
C1264 C1265 1.373 . S
C1264 C1266 1.389 . S
C1265 H1244 0.950 . S
C1265 C1264 1.373 . S
C1265 C1281 1.377 . S
C1266 C1264 1.389 . S
C1266 C1267 1.524 1_455 S
C1266 C1280 1.377 . S
C1267 C1266 1.524 1_655 S
C1267 C1268 1.397 . S
C1267 C1272 1.363 . S
C1268 H1245 0.950 . S
C1268 C1267 1.397 . S
C1268 C1269 1.334 . S
C1269 H1246 0.950 . S
C1269 C1268 1.334 . S
C1269 C1270 1.287 . S
C1270 C1269 1.287 . S
C1270 C1271 1.524 . S
C1270 H1289 0.913 . S
C1271 H1247 0.950 . S
C1271 C1270 1.524 . S
C1271 C1272 1.415 . S
C1272 H1248 0.950 . S
C1272 C1267 1.363 . S
C1272 C1271 1.415 . S
C1273 H1249 0.951 . S
C1273 C1274 1.366 . S
C1273 C1275 1.388 . S
C1274 C1273 1.366 . S
C1274 C1278 1.385 . S
C1275 H1250 0.951 . S
C1275 C1273 1.388 . S
C1275 C1276 1.366 . S
C1276 C1275 1.366 . S
C1276 C1277 1.414 . S
C1276 C1279 1.499 . S
C1277 H1251 0.950 . S
C1277 C1276 1.414 . S
C1277 C1278 1.374 . S
C1278 H1252 0.950 . S
C1278 C1274 1.385 . S
C1278 C1277 1.374 . S
C1279 C1276 1.499 . S
C1279 C1280 1.373 . S
C1279 C1281 1.389 . S
C1280 H1253 0.950 . S
C1280 C1266 1.377 . S
C1280 C1279 1.373 . S
C1281 C1265 1.377 . S
C1281 C1279 1.389 . S
C1281 C1282 1.524 . S
C1282 C1281 1.524 . S
C1282 C1283 1.397 . S
C1282 C1287 1.363 . S
C1283 H1254 0.950 . S
C1283 C1282 1.397 . S
C1283 C1284 1.334 . S
C1284 H1255 0.950 . S
C1284 C1283 1.334 . S
C1284 C1285 1.287 . S
C1285 C1284 1.287 . S
C1285 C1286 1.524 . S
C1285 H1288 0.999 . S
C1286 H1256 0.950 . S
C1286 C1285 1.524 . S
C1286 C1287 1.415 . S
C1287 H1257 0.950 . S
C1287 C1282 1.363 . S
C1287 C1286 1.415 . S
H1288 C1285 0.999 . S
H1289 C1270 0.913 . S
H1290 C1308 0.951 . S
H1291 C1310 0.951 . S
H1292 C1312 0.950 . S
H1293 C1313 0.950 . S
H1294 C1315 0.950 . S
H1295 C1318 0.950 . S
H1296 C1319 0.950 . S
H1297 C1321 0.950 . S
H1298 C1322 0.950 . S
H1299 C1323 0.951 . S
H1300 C1325 0.951 . S
H1301 C1327 0.950 . S
H1302 C1328 0.950 . S
H1303 C1330 0.950 . S
H1304 C1333 0.950 . S
H1305 C1334 0.950 . S
H1306 C1336 0.950 . S
H1307 C1337 0.950 . S
C1308 H1290 0.951 . S
C1308 C1309 1.366 . S
C1308 C1310 1.388 . S
C1309 C1308 1.366 . S
C1309 C1313 1.385 . S
C1310 H1291 0.951 . S
C1310 C1308 1.388 . S
C1310 C1311 1.366 . S
C1311 C1310 1.366 . S
C1311 C1312 1.414 . S
C1311 C1314 1.499 . S
C1312 H1292 0.950 . S
C1312 C1311 1.414 . S
C1312 C1313 1.374 . S
C1313 H1293 0.950 . S
C1313 C1309 1.385 . S
C1313 C1312 1.374 . S
C1314 C1311 1.499 . S
C1314 C1315 1.373 . S
C1314 C1316 1.389 . S
C1315 H1294 0.950 . S
C1315 C1314 1.373 . S
C1315 C1331 1.377 . S
C1316 C1314 1.389 . S
C1316 C1317 1.524 . S
C1316 C1330 1.377 . S
C1317 C1316 1.524 . S
C1317 C1318 1.397 . S
C1317 C1322 1.363 . S
C1318 H1295 0.950 . S
C1318 C1317 1.397 . S
C1318 C1319 1.334 . S
C1319 H1296 0.950 . S
C1319 C1318 1.334 . S
C1319 C1320 1.287 . S
C1320 C1319 1.287 . S
C1320 C1321 1.524 . S
C1320 H1339 0.913 . S
C1321 H1297 0.950 . S
C1321 C1320 1.524 . S
C1321 C1322 1.415 . S
C1322 H1298 0.950 . S
C1322 C1317 1.363 . S
C1322 C1321 1.415 . S
C1323 H1299 0.951 . S
C1323 C1324 1.366 . S
C1323 C1325 1.388 . S
C1324 C1323 1.366 . S
C1324 C1328 1.385 . S
C1325 H1300 0.951 . S
C1325 C1323 1.388 . S
C1325 C1326 1.366 . S
C1326 C1325 1.366 . S
C1326 C1327 1.414 . S
C1326 C1329 1.499 . S
C1327 H1301 0.950 . S
C1327 C1326 1.414 . S
C1327 C1328 1.374 . S
C1328 H1302 0.950 . S
C1328 C1324 1.385 . S
C1328 C1327 1.374 . S
C1329 C1326 1.499 . S
C1329 C1330 1.373 . S
C1329 C1331 1.389 . S
C1330 H1303 0.950 . S
C1330 C1316 1.377 . S
C1330 C1329 1.373 . S
C1331 C1315 1.377 . S
C1331 C1329 1.389 . S
C1331 C1332 1.524 1_545 S
C1332 C1331 1.524 1_565 S
C1332 C1333 1.397 . S
C1332 C1337 1.363 . S
C1333 H1304 0.950 . S
C1333 C1332 1.397 . S
C1333 C1334 1.334 . S
C1334 H1305 0.950 . S
C1334 C1333 1.334 . S
C1334 C1335 1.287 . S
C1335 C1334 1.287 . S
C1335 C1336 1.524 . S
C1335 H1338 0.999 . S
C1336 H1306 0.950 . S
C1336 C1335 1.524 . S
C1336 C1337 1.415 . S
C1337 H1307 0.950 . S
C1337 C1332 1.363 . S
C1337 C1336 1.415 . S
H1338 C1335 0.999 . S
H1339 C1320 0.913 . S
H1340 C1358 0.951 . S
H1341 C1360 0.951 . S
H1342 C1362 0.950 . S
H1343 C1363 0.950 . S
H1344 C1365 0.950 . S
H1345 C1368 0.950 . S
H1346 C1369 0.950 . S
H1347 C1371 0.950 . S
H1348 C1372 0.950 . S
H1349 C1373 0.951 . S
H1350 C1375 0.951 . S
H1351 C1377 0.950 . S
H1352 C1378 0.950 . S
H1353 C1380 0.950 . S
H1354 C1383 0.950 . S
H1355 C1384 0.950 . S
H1356 C1386 0.950 . S
H1357 C1387 0.950 . S
C1358 H1340 0.951 . S
C1358 C1359 1.366 . S
C1358 C1360 1.388 . S
C1359 C1358 1.366 . S
C1359 C1363 1.385 . S
C1360 H1341 0.951 . S
C1360 C1358 1.388 . S
C1360 C1361 1.366 . S
C1361 C1360 1.366 . S
C1361 C1362 1.414 . S
C1361 C1364 1.499 . S
C1362 H1342 0.950 . S
C1362 C1361 1.414 . S
C1362 C1363 1.374 . S
C1363 H1343 0.950 . S
C1363 C1359 1.385 . S
C1363 C1362 1.374 . S
C1364 C1361 1.499 . S
C1364 C1365 1.373 . S
C1364 C1366 1.389 . S
C1365 H1344 0.950 . S
C1365 C1364 1.373 . S
C1365 C1381 1.377 . S
C1366 C1364 1.389 . S
C1366 C1367 1.524 . S
C1366 C1380 1.377 . S
C1367 C1366 1.524 . S
C1367 C1368 1.397 . S
C1367 C1372 1.363 . S
C1368 H1345 0.950 . S
C1368 C1367 1.397 . S
C1368 C1369 1.334 . S
C1369 H1346 0.950 . S
C1369 C1368 1.334 . S
C1369 C1370 1.287 . S
C1370 C1369 1.287 . S
C1370 C1371 1.524 . S
C1370 H1389 0.913 . S
C1371 H1347 0.950 . S
C1371 C1370 1.524 . S
C1371 C1372 1.415 . S
C1372 H1348 0.950 . S
C1372 C1367 1.363 . S
C1372 C1371 1.415 . S
C1373 H1349 0.951 . S
C1373 C1374 1.366 . S
C1373 C1375 1.388 . S
C1374 C1373 1.366 . S
C1374 C1378 1.385 . S
C1375 H1350 0.951 . S
C1375 C1373 1.388 . S
C1375 C1376 1.366 . S
C1376 C1375 1.366 . S
C1376 C1377 1.414 . S
C1376 C1379 1.499 . S
C1377 H1351 0.950 . S
C1377 C1376 1.414 . S
C1377 C1378 1.374 . S
C1378 H1352 0.950 . S
C1378 C1374 1.385 . S
C1378 C1377 1.374 . S
C1379 C1376 1.499 . S
C1379 C1380 1.373 . S
C1379 C1381 1.389 . S
C1380 H1353 0.950 . S
C1380 C1366 1.377 . S
C1380 C1379 1.373 . S
C1381 C1365 1.377 . S
C1381 C1379 1.389 . S
C1381 C1382 1.524 . S
C1382 C1381 1.524 . S
C1382 C1383 1.397 . S
C1382 C1387 1.363 . S
C1383 H1354 0.950 . S
C1383 C1382 1.397 . S
C1383 C1384 1.334 . S
C1384 H1355 0.950 . S
C1384 C1383 1.334 . S
C1384 C1385 1.287 . S
C1385 C1384 1.287 . S
C1385 C1386 1.524 . S
C1385 H1388 0.999 . S
C1386 H1356 0.950 . S
C1386 C1385 1.524 . S
C1386 C1387 1.415 . S
C1387 H1357 0.950 . S
C1387 C1382 1.363 . S
C1387 C1386 1.415 . S
H1388 C1385 0.999 . S
H1389 C1370 0.913 . S
H1390 C1408 0.951 . S
H1391 C1410 0.951 . S
H1392 C1412 0.950 . S
H1393 C1413 0.950 . S
H1394 C1415 0.950 . S
H1395 C1418 0.950 . S
H1396 C1419 0.950 . S
H1397 C1421 0.950 . S
H1398 C1422 0.950 . S
H1399 C1423 0.951 . S
H1400 C1425 0.951 . S
H1401 C1427 0.950 . S
H1402 C1428 0.950 . S
H1403 C1430 0.950 . S
H1404 C1433 0.950 . S
H1405 C1434 0.950 . S
H1406 C1436 0.950 . S
H1407 C1437 0.950 . S
C1408 H1390 0.951 . S
C1408 C1409 1.366 . S
C1408 C1410 1.388 . S
C1409 C1408 1.366 . S
C1409 C1413 1.385 . S
C1410 H1391 0.951 . S
C1410 C1408 1.388 . S
C1410 C1411 1.366 . S
C1411 C1410 1.366 . S
C1411 C1412 1.414 . S
C1411 C1414 1.499 . S
C1412 H1392 0.950 . S
C1412 C1411 1.414 . S
C1412 C1413 1.374 . S
C1413 H1393 0.950 . S
C1413 C1409 1.385 . S
C1413 C1412 1.374 . S
C1414 C1411 1.499 . S
C1414 C1415 1.373 . S
C1414 C1416 1.389 . S
C1415 H1394 0.950 . S
C1415 C1414 1.373 . S
C1415 C1431 1.377 . S
C1416 C1414 1.389 . S
C1416 C1417 1.524 . S
C1416 C1430 1.377 . S
C1417 C1416 1.524 . S
C1417 C1418 1.397 . S
C1417 C1422 1.363 . S
C1418 H1395 0.950 . S
C1418 C1417 1.397 . S
C1418 C1419 1.334 . S
C1419 H1396 0.950 . S
C1419 C1418 1.334 . S
C1419 C1420 1.287 . S
C1420 C1419 1.287 . S
C1420 C1421 1.524 . S
C1420 H1439 0.913 . S
C1421 H1397 0.950 . S
C1421 C1420 1.524 . S
C1421 C1422 1.415 . S
C1422 H1398 0.950 . S
C1422 C1417 1.363 . S
C1422 C1421 1.415 . S
C1423 H1399 0.951 . S
C1423 C1424 1.366 . S
C1423 C1425 1.388 . S
C1424 C1423 1.366 . S
C1424 C1428 1.385 . S
C1425 H1400 0.951 . S
C1425 C1423 1.388 . S
C1425 C1426 1.366 . S
C1426 C1425 1.366 . S
C1426 C1427 1.414 . S
C1426 C1429 1.499 . S
C1427 H1401 0.950 . S
C1427 C1426 1.414 . S
C1427 C1428 1.374 . S
C1428 H1402 0.950 . S
C1428 C1424 1.385 . S
C1428 C1427 1.374 . S
C1429 C1426 1.499 . S
C1429 C1430 1.373 . S
C1429 C1431 1.389 . S
C1430 H1403 0.950 . S
C1430 C1416 1.377 . S
C1430 C1429 1.373 . S
C1431 C1415 1.377 . S
C1431 C1429 1.389 . S
C1431 C1432 1.524 . S
C1432 C1431 1.524 . S
C1432 C1433 1.397 . S
C1432 C1437 1.363 . S
C1433 H1404 0.950 . S
C1433 C1432 1.397 . S
C1433 C1434 1.334 . S
C1434 H1405 0.950 . S
C1434 C1433 1.334 . S
C1434 C1435 1.287 . S
C1435 C1434 1.287 . S
C1435 C1436 1.524 . S
C1435 H1438 0.999 . S
C1436 H1406 0.950 . S
C1436 C1435 1.524 . S
C1436 C1437 1.415 . S
C1437 H1407 0.950 . S
C1437 C1432 1.363 . S
C1437 C1436 1.415 . S
H1438 C1435 0.999 . S
H1439 C1420 0.913 . S
H1440 C1458 0.951 . S
H1441 C1460 0.951 . S
H1442 C1462 0.950 1_455 S
H1443 C1463 0.950 1_455 S
H1444 C1465 0.950 . S
H1445 C1468 0.950 . S
H1446 C1469 0.950 . S
H1447 C1471 0.950 . S
H1448 C1472 0.950 . S
H1449 C1473 0.951 . S
H1450 C1475 0.951 . S
H1451 C1477 0.950 . S
H1452 C1478 0.950 . S
H1453 C1480 0.950 . S
H1454 C1483 0.950 . S
H1455 C1484 0.950 . S
H1456 C1486 0.950 . S
H1457 C1487 0.950 . S
C1458 H1440 0.951 . S
C1458 C1459 1.366 . S
C1458 C1460 1.388 . S
C1459 C1458 1.366 . S
C1459 C1463 1.385 . S
C1460 H1441 0.951 . S
C1460 C1458 1.388 . S
C1460 C1461 1.366 . S
C1461 C1460 1.366 . S
C1461 C1462 1.414 . S
C1461 C1464 1.499 . S
C1462 H1442 0.950 1_655 S
C1462 C1461 1.414 . S
C1462 C1463 1.374 . S
C1463 H1443 0.950 1_655 S
C1463 C1459 1.385 . S
C1463 C1462 1.374 . S
C1464 C1461 1.499 . S
C1464 C1465 1.373 . S
C1464 C1466 1.389 . S
C1465 H1444 0.950 . S
C1465 C1464 1.373 . S
C1465 C1481 1.377 . S
C1466 C1464 1.389 . S
C1466 C1467 1.524 . S
C1466 C1480 1.377 . S
C1467 C1466 1.524 . S
C1467 C1468 1.397 . S
C1467 C1472 1.363 . S
C1468 H1445 0.950 . S
C1468 C1467 1.397 . S
C1468 C1469 1.334 . S
C1469 H1446 0.950 . S
C1469 C1468 1.334 . S
C1469 C1470 1.287 . S
C1470 C1469 1.287 . S
C1470 C1471 1.524 . S
C1470 H1489 0.913 . S
C1471 H1447 0.950 . S
C1471 C1470 1.524 . S
C1471 C1472 1.415 . S
C1472 H1448 0.950 . S
C1472 C1467 1.363 . S
C1472 C1471 1.415 . S
C1473 H1449 0.951 . S
C1473 C1474 1.366 1_455 S
C1473 C1475 1.388 . S
C1474 C1473 1.366 1_655 S
C1474 C1478 1.385 . S
C1475 H1450 0.951 . S
C1475 C1473 1.388 . S
C1475 C1476 1.366 1_455 S
C1476 C1475 1.366 1_655 S
C1476 C1477 1.414 . S
C1476 C1479 1.499 . S
C1477 H1451 0.950 . S
C1477 C1476 1.414 . S
C1477 C1478 1.374 . S
C1478 H1452 0.950 . S
C1478 C1474 1.385 . S
C1478 C1477 1.374 . S
C1479 C1476 1.499 . S
C1479 C1480 1.373 . S
C1479 C1481 1.389 . S
C1480 H1453 0.950 . S
C1480 C1466 1.377 . S
C1480 C1479 1.373 . S
C1481 C1465 1.377 . S
C1481 C1479 1.389 . S
C1481 C1482 1.524 1_655 S
C1482 C1481 1.524 1_455 S
C1482 C1483 1.397 1_455 S
C1482 C1487 1.363 . S
C1483 H1454 0.950 . S
C1483 C1482 1.397 1_655 S
C1483 C1484 1.334 . S
C1484 H1455 0.950 . S
C1484 C1483 1.334 . S
C1484 C1485 1.287 1_655 S
C1485 C1484 1.287 1_455 S
C1485 C1486 1.524 . S
C1485 H1488 0.999 . S
C1486 H1456 0.950 . S
C1486 C1485 1.524 . S
C1486 C1487 1.415 . S
C1487 H1457 0.950 . S
C1487 C1482 1.363 . S
C1487 C1486 1.415 . S
H1488 C1485 0.999 . S
H1489 C1470 0.913 . S
H1490 C1508 0.951 . S
H1491 C1510 0.951 . S
H1492 C1512 0.950 . S
H1493 C1513 0.950 . S
H1494 C1515 0.950 . S
H1495 C1518 0.950 . S
H1496 C1519 0.950 . S
H1497 C1521 0.950 . S
H1498 C1522 0.950 . S
H1499 C1523 0.951 . S
H1500 C1525 0.951 . S
H1501 C1527 0.950 . S
H1502 C1528 0.950 . S
H1503 C1530 0.950 . S
H1504 C1533 0.950 . S
H1505 C1534 0.950 . S
H1506 C1536 0.950 . S
H1507 C1537 0.950 . S
C1508 H1490 0.951 . S
C1508 C1509 1.366 . S
C1508 C1510 1.388 . S
C1509 C1508 1.366 . S
C1509 C1513 1.385 . S
C1510 H1491 0.951 . S
C1510 C1508 1.388 . S
C1510 C1511 1.366 . S
C1511 C1510 1.366 . S
C1511 C1512 1.414 . S
C1511 C1514 1.499 . S
C1512 H1492 0.950 . S
C1512 C1511 1.414 . S
C1512 C1513 1.374 . S
C1513 H1493 0.950 . S
C1513 C1509 1.385 . S
C1513 C1512 1.374 . S
C1514 C1511 1.499 . S
C1514 C1515 1.373 . S
C1514 C1516 1.389 1_565 S
C1515 H1494 0.950 . S
C1515 C1514 1.373 . S
C1515 C1531 1.377 . S
C1516 C1514 1.389 1_545 S
C1516 C1517 1.524 . S
C1516 C1530 1.377 . S
C1517 C1516 1.524 . S
C1517 C1518 1.397 . S
C1517 C1522 1.363 . S
C1518 H1495 0.950 . S
C1518 C1517 1.397 . S
C1518 C1519 1.334 . S
C1519 H1496 0.950 . S
C1519 C1518 1.334 . S
C1519 C1520 1.287 . S
C1520 C1519 1.287 . S
C1520 C1521 1.524 . S
C1520 H1539 0.913 . S
C1521 H1497 0.950 . S
C1521 C1520 1.524 . S
C1521 C1522 1.415 . S
C1522 H1498 0.950 . S
C1522 C1517 1.363 . S
C1522 C1521 1.415 . S
C1523 H1499 0.951 . S
C1523 C1524 1.366 . S
C1523 C1525 1.388 . S
C1524 C1523 1.366 . S
C1524 C1528 1.385 1_565 S
C1525 H1500 0.951 . S
C1525 C1523 1.388 . S
C1525 C1526 1.366 . S
C1526 C1525 1.366 . S
C1526 C1527 1.414 1_565 S
C1526 C1529 1.499 . S
C1527 H1501 0.950 . S
C1527 C1526 1.414 1_545 S
C1527 C1528 1.374 . S
C1528 H1502 0.950 . S
C1528 C1524 1.385 1_545 S
C1528 C1527 1.374 . S
C1529 C1526 1.499 . S
C1529 C1530 1.373 1_565 S
C1529 C1531 1.389 . S
C1530 H1503 0.950 . S
C1530 C1516 1.377 . S
C1530 C1529 1.373 1_545 S
C1531 C1515 1.377 . S
C1531 C1529 1.389 . S
C1531 C1532 1.524 . S
C1532 C1531 1.524 . S
C1532 C1533 1.397 . S
C1532 C1537 1.363 . S
C1533 H1504 0.950 . S
C1533 C1532 1.397 . S
C1533 C1534 1.334 . S
C1534 H1505 0.950 . S
C1534 C1533 1.334 . S
C1534 C1535 1.287 . S
C1535 C1534 1.287 . S
C1535 C1536 1.524 . S
C1535 H1538 0.999 . S
C1536 H1506 0.950 . S
C1536 C1535 1.524 . S
C1536 C1537 1.415 . S
C1537 H1507 0.950 . S
C1537 C1532 1.363 . S
C1537 C1536 1.415 . S
H1538 C1535 0.999 . S
H1539 C1520 0.913 . S
H1540 C1558 0.951 . S
H1541 C1560 0.951 . S
H1542 C1562 0.950 . S
H1543 C1563 0.950 . S
H1544 C1565 0.950 . S
H1545 C1568 0.950 . S
H1546 C1569 0.950 . S
H1547 C1571 0.950 . S
H1548 C1572 0.950 . S
H1549 C1573 0.951 . S
H1550 C1575 0.951 . S
H1551 C1577 0.950 . S
H1552 C1578 0.950 . S
H1553 C1580 0.950 . S
H1554 C1583 0.950 . S
H1555 C1584 0.950 . S
H1556 C1586 0.950 . S
H1557 C1587 0.950 . S
C1558 H1540 0.951 . S
C1558 C1559 1.366 . S
C1558 C1560 1.388 . S
C1559 C1558 1.366 . S
C1559 C1563 1.385 . S
C1560 H1541 0.951 . S
C1560 C1558 1.388 . S
C1560 C1561 1.366 . S
C1561 C1560 1.366 . S
C1561 C1562 1.414 . S
C1561 C1564 1.499 . S
C1562 H1542 0.950 . S
C1562 C1561 1.414 . S
C1562 C1563 1.374 . S
C1563 H1543 0.950 . S
C1563 C1559 1.385 . S
C1563 C1562 1.374 . S
C1564 C1561 1.499 . S
C1564 C1565 1.373 . S
C1564 C1566 1.389 . S
C1565 H1544 0.950 . S
C1565 C1564 1.373 . S
C1565 C1581 1.377 . S
C1566 C1564 1.389 . S
C1566 C1567 1.524 . S
C1566 C1580 1.377 . S
C1567 C1566 1.524 . S
C1567 C1568 1.397 . S
C1567 C1572 1.363 . S
C1568 H1545 0.950 . S
C1568 C1567 1.397 . S
C1568 C1569 1.334 . S
C1569 H1546 0.950 . S
C1569 C1568 1.334 . S
C1569 C1570 1.287 . S
C1570 C1569 1.287 . S
C1570 C1571 1.524 . S
C1570 H1589 0.913 . S
C1571 H1547 0.950 . S
C1571 C1570 1.524 . S
C1571 C1572 1.415 . S
C1572 H1548 0.950 . S
C1572 C1567 1.363 . S
C1572 C1571 1.415 . S
C1573 H1549 0.951 . S
C1573 C1574 1.366 . S
C1573 C1575 1.388 . S
C1574 C1573 1.366 . S
C1574 C1578 1.385 . S
C1575 H1550 0.951 . S
C1575 C1573 1.388 . S
C1575 C1576 1.366 . S
C1576 C1575 1.366 . S
C1576 C1577 1.414 . S
C1576 C1579 1.499 . S
C1577 H1551 0.950 . S
C1577 C1576 1.414 . S
C1577 C1578 1.374 . S
C1578 H1552 0.950 . S
C1578 C1574 1.385 . S
C1578 C1577 1.374 . S
C1579 C1576 1.499 . S
C1579 C1580 1.373 . S
C1579 C1581 1.389 . S
C1580 H1553 0.950 . S
C1580 C1566 1.377 . S
C1580 C1579 1.373 . S
C1581 C1565 1.377 . S
C1581 C1579 1.389 . S
C1581 C1582 1.524 . S
C1582 C1581 1.524 . S
C1582 C1583 1.397 . S
C1582 C1587 1.363 . S
C1583 H1554 0.950 . S
C1583 C1582 1.397 . S
C1583 C1584 1.334 . S
C1584 H1555 0.950 . S
C1584 C1583 1.334 . S
C1584 C1585 1.287 . S
C1585 C1584 1.287 . S
C1585 C1586 1.524 . S
C1585 H1588 0.999 . S
C1586 H1556 0.950 . S
C1586 C1585 1.524 . S
C1586 C1587 1.415 . S
C1587 H1557 0.950 . S
C1587 C1582 1.363 . S
C1587 C1586 1.415 . S
H1588 C1585 0.999 . S
H1589 C1570 0.913 . S
H1590 C1608 0.951 . S
H1591 C1610 0.951 . S
H1592 C1612 0.950 . S
H1593 C1613 0.950 . S
H1594 C1615 0.950 . S
H1595 C1618 0.950 . S
H1596 C1619 0.950 . S
H1597 C1621 0.950 . S
H1598 C1622 0.950 . S
H1599 C1623 0.951 . S
H1600 C1625 0.951 . S
H1601 C1627 0.950 . S
H1602 C1628 0.950 . S
H1603 C1630 0.950 . S
H1604 C1633 0.950 . S
H1605 C1634 0.950 . S
H1606 C1636 0.950 . S
H1607 C1637 0.950 . S
C1608 H1590 0.951 . S
C1608 C1609 1.366 . S
C1608 C1610 1.388 . S
C1609 C1608 1.366 . S
C1609 C1613 1.385 . S
C1610 H1591 0.951 . S
C1610 C1608 1.388 . S
C1610 C1611 1.366 . S
C1611 C1610 1.366 . S
C1611 C1612 1.414 . S
C1611 C1614 1.499 . S
C1612 H1592 0.950 . S
C1612 C1611 1.414 . S
C1612 C1613 1.374 . S
C1613 H1593 0.950 . S
C1613 C1609 1.385 . S
C1613 C1612 1.374 . S
C1614 C1611 1.499 . S
C1614 C1615 1.373 . S
C1614 C1616 1.389 . S
C1615 H1594 0.950 . S
C1615 C1614 1.373 . S
C1615 C1631 1.377 . S
C1616 C1614 1.389 . S
C1616 C1617 1.524 . S
C1616 C1630 1.377 . S
C1617 C1616 1.524 . S
C1617 C1618 1.397 . S
C1617 C1622 1.363 . S
C1618 H1595 0.950 . S
C1618 C1617 1.397 . S
C1618 C1619 1.334 . S
C1619 H1596 0.950 . S
C1619 C1618 1.334 . S
C1619 C1620 1.287 . S
C1620 C1619 1.287 . S
C1620 C1621 1.524 . S
C1620 H1639 0.913 . S
C1621 H1597 0.950 . S
C1621 C1620 1.524 . S
C1621 C1622 1.415 . S
C1622 H1598 0.950 . S
C1622 C1617 1.363 . S
C1622 C1621 1.415 . S
C1623 H1599 0.951 . S
C1623 C1624 1.366 . S
C1623 C1625 1.388 . S
C1624 C1623 1.366 . S
C1624 C1628 1.385 . S
C1625 H1600 0.951 . S
C1625 C1623 1.388 . S
C1625 C1626 1.366 . S
C1626 C1625 1.366 . S
C1626 C1627 1.414 . S
C1626 C1629 1.499 . S
C1627 H1601 0.950 . S
C1627 C1626 1.414 . S
C1627 C1628 1.374 . S
C1628 H1602 0.950 . S
C1628 C1624 1.385 . S
C1628 C1627 1.374 . S
C1629 C1626 1.499 . S
C1629 C1630 1.373 . S
C1629 C1631 1.389 . S
C1630 H1603 0.950 . S
C1630 C1616 1.377 . S
C1630 C1629 1.373 . S
C1631 C1615 1.377 . S
C1631 C1629 1.389 . S
C1631 C1632 1.524 . S
C1632 C1631 1.524 . S
C1632 C1633 1.397 . S
C1632 C1637 1.363 . S
C1633 H1604 0.950 . S
C1633 C1632 1.397 . S
C1633 C1634 1.334 . S
C1634 H1605 0.950 . S
C1634 C1633 1.334 . S
C1634 C1635 1.287 . S
C1635 C1634 1.287 . S
C1635 C1636 1.524 . S
C1635 H1638 0.999 . S
C1636 H1606 0.950 . S
C1636 C1635 1.524 . S
C1636 C1637 1.415 . S
C1637 H1607 0.950 . S
C1637 C1632 1.363 . S
C1637 C1636 1.415 . S
H1638 C1635 0.999 . S
H1639 C1620 0.913 . S
C459 C82 1.728 . S
C474 C167 1.926 . S
C524 C244 1.942 . S
C509 C95 1.731 . S
C574 C335 1.917 . S
C559 C56 1.718 . S
C624 C419 1.909 . S
C609 C69 1.712 . S
C674 C178 1.930 . S
C659 C30 1.690 . S
C709 C43 1.690 . S
C724 C255 1.941 . S
C759 C4 1.681 . S
C774 C346 1.917 . S
C809 C17 1.674 . S
C824 C430 1.910 1_655 S
C874 C162 0.514 1_455 S
C859 C74 0.481 . S
C924 C257 0.557 . S
C909 C87 0.455 . S
C974 C330 0.552 . S
C959 C100 0.480 . S
C1009 C61 0.462 . S
C1024 C414 0.547 . S
C1059 C22 0.481 . S
C1074 C173 0.556 . S
C1124 C246 0.556 . S
C1109 C35 0.459 . S
C1174 C341 0.553 . S
C1159 C48 0.484 . S
C1209 C9 0.465 . S
C1224 C425 0.547 . S
C1259 C73 1.853 . S
C1274 C171 1.999 . S
C1309 C86 1.854 . S
C1324 C262 1.999 . S
C1374 C339 2.015 . S
C1359 C99 1.867 . S
C1424 C423 2.022 . S
C1409 C60 1.875 . S
C1459 C21 1.851 . S
C1474 C160 2.000 . S
C1524 C251 1.999 1_565 S
C1509 C34 1.851 . S
C1574 C328 2.015 . S
C1559 C47 1.864 . S
C1609 C8 1.870 . S
C1624 C412 2.021 . S
