# Generated by pormake.
# Topology ptr, (4,4)-cn, num edge types: 1
# Building blocks:
#     Node 0, Type 0, BuildingBlock: TATPOV_clean_sbu_0, # of connection points: 4
#     Node 1, Type 0, BuildingBlock: TATPOV_clean_sbu_0, # of connection points: 4
#     Node 2, Type 0, BuildingBlock: TATPOV_clean_sbu_0, # of connection points: 4
#     Node 3, Type 0, BuildingBlock: TATPOV_clean_sbu_0, # of connection points: 4
#     Node 4, Type 0, BuildingBlock: TATPOV_clean_sbu_0, # of connection points: 4
#     Node 5, Type 0, BuildingBlock: TATPOV_clean_sbu_0, # of connection points: 4
#     Node 6, Type 0, BuildingBlock: TATPOV_clean_sbu_0, # of connection points: 4
#     Node 7, Type 0, BuildingBlock: TATPOV_clean_sbu_0, # of connection points: 4
#     Node 8, Type 0, BuildingBlock: TATPOV_clean_sbu_0, # of connection points: 4
#     Node 9, Type 0, BuildingBlock: TATPOV_clean_sbu_0, # of connection points: 4
#     Node 10, Type 0, BuildingBlock: TATPOV_clean_sbu_0, # of connection points: 4
#     Node 11, Type 0, BuildingBlock: TATPOV_clean_sbu_0, # of connection points: 4
#     Node 12, Type 0, BuildingBlock: TATPOV_clean_sbu_0, # of connection points: 4
#     Node 13, Type 0, BuildingBlock: TATPOV_clean_sbu_0, # of connection points: 4
#     Node 14, Type 0, BuildingBlock: TATPOV_clean_sbu_0, # of connection points: 4
#     Node 15, Type 0, BuildingBlock: TATPOV_clean_sbu_0, # of connection points: 4
#     Node 16, Type 0, BuildingBlock: TATPOV_clean_sbu_0, # of connection points: 4
#     Node 17, Type 0, BuildingBlock: TATPOV_clean_sbu_0, # of connection points: 4
#     Node 18, Type 1, BuildingBlock: GIZVER_clean_linker_0, # of connection points: 4
#     Node 19, Type 1, BuildingBlock: GIZVER_clean_linker_0, # of connection points: 4
#     Node 20, Type 1, BuildingBlock: GIZVER_clean_linker_0, # of connection points: 4
#     Node 21, Type 1, BuildingBlock: GIZVER_clean_linker_0, # of connection points: 4
#     Node 22, Type 1, BuildingBlock: GIZVER_clean_linker_0, # of connection points: 4
#     Node 23, Type 1, BuildingBlock: GIZVER_clean_linker_0, # of connection points: 4
#     Node 24, Type 1, BuildingBlock: GIZVER_clean_linker_0, # of connection points: 4
#     Node 25, Type 1, BuildingBlock: GIZVER_clean_linker_0, # of connection points: 4
#     Node 26, Type 1, BuildingBlock: GIZVER_clean_linker_0, # of connection points: 4
#     Node 27, Type 1, BuildingBlock: GIZVER_clean_linker_0, # of connection points: 4
#     Node 28, Type 1, BuildingBlock: GIZVER_clean_linker_0, # of connection points: 4
#     Node 29, Type 1, BuildingBlock: GIZVER_clean_linker_0, # of connection points: 4
#     Node 30, Type 1, BuildingBlock: GIZVER_clean_linker_0, # of connection points: 4
#     Node 31, Type 1, BuildingBlock: GIZVER_clean_linker_0, # of connection points: 4
#     Node 32, Type 1, BuildingBlock: GIZVER_clean_linker_0, # of connection points: 4
#     Node 33, Type 1, BuildingBlock: GIZVER_clean_linker_0, # of connection points: 4
#     Node 34, Type 1, BuildingBlock: GIZVER_clean_linker_0, # of connection points: 4
#     Node 35, Type 1, BuildingBlock: GIZVER_clean_linker_0, # of connection points: 4
#     Edge 36, Type (0, 1), BuildingBlock: AJUNOK_clean_linker_0, # of connection points: 2
#     Edge 37, Type (0, 1), BuildingBlock: AJUNOK_clean_linker_0, # of connection points: 2
#     Edge 38, Type (0, 1), BuildingBlock: AJUNOK_clean_linker_0, # of connection points: 2
#     Edge 39, Type (0, 1), BuildingBlock: AJUNOK_clean_linker_0, # of connection points: 2
#     Edge 40, Type (0, 1), BuildingBlock: AJUNOK_clean_linker_0, # of connection points: 2
#     Edge 41, Type (0, 1), BuildingBlock: AJUNOK_clean_linker_0, # of connection points: 2
#     Edge 42, Type (0, 1), BuildingBlock: AJUNOK_clean_linker_0, # of connection points: 2
#     Edge 43, Type (0, 1), BuildingBlock: AJUNOK_clean_linker_0, # of connection points: 2
#     Edge 44, Type (0, 1), BuildingBlock: AJUNOK_clean_linker_0, # of connection points: 2
#     Edge 45, Type (0, 1), BuildingBlock: AJUNOK_clean_linker_0, # of connection points: 2
#     Edge 46, Type (0, 1), BuildingBlock: AJUNOK_clean_linker_0, # of connection points: 2
#     Edge 47, Type (0, 1), BuildingBlock: AJUNOK_clean_linker_0, # of connection points: 2
#     Edge 48, Type (0, 1), BuildingBlock: AJUNOK_clean_linker_0, # of connection points: 2
#     Edge 49, Type (0, 1), BuildingBlock: AJUNOK_clean_linker_0, # of connection points: 2
#     Edge 50, Type (0, 1), BuildingBlock: AJUNOK_clean_linker_0, # of connection points: 2
#     Edge 51, Type (0, 1), BuildingBlock: AJUNOK_clean_linker_0, # of connection points: 2
#     Edge 52, Type (0, 1), BuildingBlock: AJUNOK_clean_linker_0, # of connection points: 2
#     Edge 53, Type (0, 1), BuildingBlock: AJUNOK_clean_linker_0, # of connection points: 2
#     Edge 54, Type (0, 1), BuildingBlock: AJUNOK_clean_linker_0, # of connection points: 2
#     Edge 55, Type (0, 1), BuildingBlock: AJUNOK_clean_linker_0, # of connection points: 2
#     Edge 56, Type (0, 1), BuildingBlock: AJUNOK_clean_linker_0, # of connection points: 2
#     Edge 57, Type (0, 1), BuildingBlock: AJUNOK_clean_linker_0, # of connection points: 2
#     Edge 58, Type (0, 1), BuildingBlock: AJUNOK_clean_linker_0, # of connection points: 2
#     Edge 59, Type (0, 1), BuildingBlock: AJUNOK_clean_linker_0, # of connection points: 2
#     Edge 60, Type (0, 1), BuildingBlock: AJUNOK_clean_linker_0, # of connection points: 2
#     Edge 61, Type (0, 1), BuildingBlock: AJUNOK_clean_linker_0, # of connection points: 2
#     Edge 62, Type (0, 1), BuildingBlock: AJUNOK_clean_linker_0, # of connection points: 2
#     Edge 63, Type (0, 1), BuildingBlock: AJUNOK_clean_linker_0, # of connection points: 2
#     Edge 64, Type (0, 1), BuildingBlock: AJUNOK_clean_linker_0, # of connection points: 2
#     Edge 65, Type (0, 1), BuildingBlock: AJUNOK_clean_linker_0, # of connection points: 2
#     Edge 66, Type (0, 1), BuildingBlock: AJUNOK_clean_linker_0, # of connection points: 2
#     Edge 67, Type (0, 1), BuildingBlock: AJUNOK_clean_linker_0, # of connection points: 2
#     Edge 68, Type (0, 1), BuildingBlock: AJUNOK_clean_linker_0, # of connection points: 2
#     Edge 69, Type (0, 1), BuildingBlock: AJUNOK_clean_linker_0, # of connection points: 2
#     Edge 70, Type (0, 1), BuildingBlock: AJUNOK_clean_linker_0, # of connection points: 2
#     Edge 71, Type (0, 1), BuildingBlock: AJUNOK_clean_linker_0, # of connection points: 2
#     Edge 72, Type (0, 1), BuildingBlock: AJUNOK_clean_linker_0, # of connection points: 2
#     Edge 73, Type (0, 1), BuildingBlock: AJUNOK_clean_linker_0, # of connection points: 2
#     Edge 74, Type (0, 1), BuildingBlock: AJUNOK_clean_linker_0, # of connection points: 2
#     Edge 75, Type (0, 1), BuildingBlock: AJUNOK_clean_linker_0, # of connection points: 2
#     Edge 76, Type (0, 1), BuildingBlock: AJUNOK_clean_linker_0, # of connection points: 2
#     Edge 77, Type (0, 1), BuildingBlock: AJUNOK_clean_linker_0, # of connection points: 2
#     Edge 78, Type (0, 1), BuildingBlock: AJUNOK_clean_linker_0, # of connection points: 2
#     Edge 79, Type (0, 1), BuildingBlock: AJUNOK_clean_linker_0, # of connection points: 2
#     Edge 80, Type (0, 1), BuildingBlock: AJUNOK_clean_linker_0, # of connection points: 2
#     Edge 81, Type (0, 1), BuildingBlock: AJUNOK_clean_linker_0, # of connection points: 2
#     Edge 82, Type (0, 1), BuildingBlock: AJUNOK_clean_linker_0, # of connection points: 2
#     Edge 83, Type (0, 1), BuildingBlock: AJUNOK_clean_linker_0, # of connection points: 2
#     Edge 84, Type (0, 1), BuildingBlock: AJUNOK_clean_linker_0, # of connection points: 2
#     Edge 85, Type (0, 1), BuildingBlock: AJUNOK_clean_linker_0, # of connection points: 2
#     Edge 86, Type (0, 1), BuildingBlock: AJUNOK_clean_linker_0, # of connection points: 2
#     Edge 87, Type (0, 1), BuildingBlock: AJUNOK_clean_linker_0, # of connection points: 2
#     Edge 88, Type (0, 1), BuildingBlock: AJUNOK_clean_linker_0, # of connection points: 2
#     Edge 89, Type (0, 1), BuildingBlock: AJUNOK_clean_linker_0, # of connection points: 2
#     Edge 90, Type (0, 1), BuildingBlock: AJUNOK_clean_linker_0, # of connection points: 2
#     Edge 91, Type (0, 1), BuildingBlock: AJUNOK_clean_linker_0, # of connection points: 2
#     Edge 92, Type (0, 1), BuildingBlock: AJUNOK_clean_linker_0, # of connection points: 2
#     Edge 93, Type (0, 1), BuildingBlock: AJUNOK_clean_linker_0, # of connection points: 2
#     Edge 94, Type (0, 1), BuildingBlock: AJUNOK_clean_linker_0, # of connection points: 2
#     Edge 95, Type (0, 1), BuildingBlock: AJUNOK_clean_linker_0, # of connection points: 2
#     Edge 96, Type (0, 1), BuildingBlock: AJUNOK_clean_linker_0, # of connection points: 2
#     Edge 97, Type (0, 1), BuildingBlock: AJUNOK_clean_linker_0, # of connection points: 2
#     Edge 98, Type (0, 1), BuildingBlock: AJUNOK_clean_linker_0, # of connection points: 2
#     Edge 99, Type (0, 1), BuildingBlock: AJUNOK_clean_linker_0, # of connection points: 2
#     Edge 100, Type (0, 1), BuildingBlock: AJUNOK_clean_linker_0, # of connection points: 2
#     Edge 101, Type (0, 1), BuildingBlock: AJUNOK_clean_linker_0, # of connection points: 2
#     Edge 102, Type (0, 1), BuildingBlock: AJUNOK_clean_linker_0, # of connection points: 2
#     Edge 103, Type (0, 1), BuildingBlock: AJUNOK_clean_linker_0, # of connection points: 2
#     Edge 104, Type (0, 1), BuildingBlock: AJUNOK_clean_linker_0, # of connection points: 2
#     Edge 105, Type (0, 1), BuildingBlock: AJUNOK_clean_linker_0, # of connection points: 2
#     Edge 106, Type (0, 1), BuildingBlock: AJUNOK_clean_linker_0, # of connection points: 2
#     Edge 107, Type (0, 1), BuildingBlock: AJUNOK_clean_linker_0, # of connection points: 2
# Relax obj value: 0.070
# Max RMSD: 0.191
# Mean RMSD: 0.115
data_MOF--net-ptr--node1-TATPOV_clean_sbu_0--node2-GIZVER_clean_linker_0--edge1-AJUNOK_clean_linker_0
_symmetry_space_group_name_H-M    P1
_symmetry_Int_Tables_number       1
_symmetry_cell_setting            triclinic
loop_
_symmetry_equiv_pos_as_xyz
'x, y, z'
_cell_length_a     59.162849
_cell_length_b     60.042561
_cell_length_c     35.323533
_cell_angle_alpha  89.565208
_cell_angle_beta   91.990471
_cell_angle_gamma 121.36741
loop_
_atom_site_label
_atom_site_type_symbol
_atom_site_fract_x
_atom_site_fract_y
_atom_site_fract_z
_atom_type_partial_charge
Zn0 Zn 0.95152 0.39742 0.02924 0.0
Zn1 Zn 0.99387 0.39092 0.02483 0.0
O2 O 0.96159 0.35341 0.02457 0.0
O3 O 0.92699 0.35775 0.02789 0.0
O4 O 0.02535 0.38577 0.02412 0.0
O5 O 0.96692 0.41756 0.07886 0.0
O6 O 1.00082 0.41233 0.07385 0.0
C7 C 0.93655 0.34323 0.02539 0.0
C8 C 0.98147 0.41867 0.96113 0.0
O9 O 0.99535 0.40987 0.97541 0.0
O10 O 0.96214 0.41638 0.97896 0.0
C11 C 0.04922 0.40482 0.02391 0.0
O12 O 0.05368 0.42865 0.02267 0.0
C13 C 0.98895 0.42142 0.09177 0.0
Zn14 Zn 0.6058 0.56562 0.00682 0.0
Zn15 Zn 0.62451 0.61728 0.01507 0.0
O16 O 0.65923 0.61892 0.00639 0.0
O17 O 0.64458 0.57713 -0.00109 0.0
O18 O 0.63342 0.65397 0.02352 0.0
O19 O 0.59122 0.55804 0.05896 0.0
O20 O 0.60752 0.60028 0.06508 0.0
C21 C 0.66368 0.60069 0.00021 0.0
C22 C 0.5843 0.58527 0.95117 0.0
O23 O 0.6005 0.60691 0.96747 0.0
O24 O 0.58211 0.56431 0.96306 0.0
C25 C 0.64699 0.6735 0.00257 0.0
O26 O 0.65811 0.67097 0.9727 0.0
C27 C 0.59526 0.57738 0.0786 0.0
Zn28 Zn 0.39509 0.96584 -0.00067 0.0
Zn29 Zn 0.40283 0.01211 0.01356 0.0
O30 O 0.36204 0.98728 0.01456 0.0
O31 O 0.35553 0.94927 -0.0026 0.0
O32 O 0.407 0.04781 0.01569 0.0
O33 O 0.41552 0.9763 0.95207 0.0
O34 O 0.42116 0.01484 0.9629 0.0
C35 C 0.34625 0.9631 0.00717 0.0
C36 C 0.42275 0.98815 0.07164 0.0
O37 O 0.42111 0.00782 0.06195 0.0
O38 O 0.41338 0.96856 0.04956 0.0
C39 C 0.39211 0.05296 0.03408 0.0
O40 O 0.37504 0.03529 0.05689 0.0
C41 C 0.42492 0.99972 0.94237 0.0
Zn42 Zn 0.0686 0.63133 0.98817 0.0
Zn43 Zn 0.02046 0.62564 -0.00169 0.0
O44 O 0.04542 0.66527 -0.00472 0.0
O45 O 0.08421 0.6702 0.985 0.0
O46 O 0.98394 0.62057 0.00054 0.0
O47 O 0.05511 0.60917 0.94094 0.0
O48 O 0.01658 0.60514 0.95001 0.0
C49 C 0.07004 0.68005 0.9896 0.0
C50 C 0.04498 0.60756 0.05947 0.0
O51 O 0.02606 0.61033 0.04726 0.0
O52 O 0.06496 0.61478 0.03947 0.0
C53 C 0.9789 0.63723 0.01326 0.0
O54 O 0.99821 0.65906 0.02855 0.0
C55 C 0.03116 0.60009 0.93064 0.0
Zn56 Zn 0.39128 0.43893 0.00451 0.0
Zn57 Zn 0.38442 0.39032 0.00812 0.0
O58 O 0.34603 0.383 0.00914 0.0
O59 O 0.35117 0.42201 0.00612 0.0
O60 O 0.3815 0.35481 0.00783 0.0
O61 O 0.40967 0.4455 0.95475 0.0
O62 O 0.40427 0.40648 0.95902 0.0
C63 C 0.33606 0.39746 0.00823 0.0
C64 C 0.41727 0.43157 0.07038 0.0
O65 O 0.40696 0.40861 0.05647 0.0
O66 O 0.41357 0.44819 0.05354 0.0
C67 C 0.36124 0.33252 0.01426 0.0
O68 O 0.33902 0.33091 0.02284 0.0
C69 C 0.41306 0.42795 0.9415 0.0
Zn70 Zn 0.61007 0.03555 -0.00088 0.0
Zn71 Zn 0.61398 0.99238 0.99408 0.0
O72 O 0.65263 0.02223 0.99027 0.0
O73 O 0.65008 0.05736 -0.00458 0.0
O74 O 0.61545 0.9595 -0.00199 0.0
O75 O 0.5945 0.02567 0.05057 0.0
O76 O 0.59859 0.9915 0.04539 0.0
C77 C 0.66388 0.047 0.99186 0.0
C78 C 0.58073 1.0013 0.93465 0.0
O79 O 0.5904 0.98781 0.94682 0.0
O80 O 0.58607 0.02196 0.95205 0.0
C81 C 0.62907 0.95287 0.97936 0.0
O82 O 0.64384 0.9681 0.9523 0.0
C83 C 0.59206 0.00507 0.06442 0.0
Zn84 Zn 0.61976 0.73557 0.34912 0.0
Zn85 Zn 0.66239 0.72931 0.34888 0.0
O86 O 0.63097 0.69142 0.34697 0.0
O87 O 0.59613 0.6956 0.34676 0.0
O88 O 0.69519 0.72655 0.3518 0.0
O89 O 0.63298 0.7552 0.39987 0.0
O90 O 0.66681 0.74965 0.39792 0.0
C91 C 0.60588 0.68114 0.34584 0.0
C92 C 0.65241 0.7578 0.28352 0.0
O93 O 0.66559 0.74875 0.29946 0.0
O94 O 0.63227 0.75527 0.29931 0.0
C95 C 0.69929 0.7112 0.33262 0.0
O96 O 0.68099 0.6951 0.30791 0.0
C97 C 0.65439 0.75861 0.41468 0.0
Zn98 Zn 0.30202 0.90499 0.36522 0.0
Zn99 Zn 0.30603 0.95127 0.36223 0.0
O100 O 0.34464 0.96002 0.36065 0.0
O101 O 0.34162 0.92212 0.36629 0.0
O102 O 0.31088 0.98716 0.36311 0.0
O103 O 0.28263 0.89591 0.41349 0.0
O104 O 0.2856 0.93398 0.41101 0.0
C105 C 0.3557 0.94662 0.36271 0.0
C106 C 0.27761 0.91229 0.29738 0.0
O107 O 0.28529 0.93448 0.31233 0.0
O108 O 0.28212 0.89636 0.31466 0.0
C109 C 0.29285 0.99198 0.35426 0.0
O110 O 0.26913 0.97262 0.34393 0.0
C111 C 0.27796 0.91233 0.42759 0.0
Zn112 Zn 0.08149 0.31399 0.3533 0.0
Zn113 Zn 0.07663 0.35614 0.36069 0.0
O114 O 0.03776 0.32654 0.36207 0.0
O115 O 0.04104 0.29203 0.35415 0.0
O116 O 0.07581 0.3896 0.36016 0.0
O117 O 0.10045 0.32627 0.30446 0.0
O118 O 0.09395 0.35907 0.30944 0.0
C119 C 0.02685 0.30188 0.35904 0.0
C120 C 0.10585 0.34284 0.42236 0.0
O121 O 0.09677 0.3569 0.41039 0.0
O122 O 0.10266 0.3238 0.40274 0.0
C123 C 0.05794 0.39258 0.37392 0.0
O124 O 0.03888 0.37329 0.39251 0.0
C125 C 0.10261 0.3469 0.29136 0.0
Zn126 Zn 0.74307 0.95948 0.32992 0.0
Zn127 Zn 0.69668 0.95913 0.33003 0.0
O128 O 0.72408 0.99799 0.32977 0.0
O129 O 0.76178 0.99896 0.33135 0.0
O130 O 0.66179 0.95761 0.32918 0.0
O131 O 0.73247 0.94102 0.27969 0.0
O132 O 0.69476 0.94 0.28101 0.0
C133 C 0.74927 0.01086 0.33063 0.0
C134 C 0.71244 0.93512 0.39505 0.0
O135 O 0.69746 0.94238 0.38015 0.0
O136 O 0.73293 0.93915 0.37873 0.0
C137 C 0.6582 0.9736 0.34754 0.0
O138 O 0.67763 0.99151 0.36916 0.0
C139 C 0.71027 0.93477 0.26439 0.0
Zn140 Zn 0.05313 0.77785 0.32894 0.0
Zn141 Zn 0.05101 0.73116 0.3298 0.0
O142 O 0.01183 0.7205 0.33224 0.0
O143 O 0.01303 0.75775 0.33128 0.0
O144 O 0.05091 0.69698 0.32725 0.0
O145 O 0.07072 0.78685 0.27873 0.0
O146 O 0.06895 0.74934 0.28027 0.0
C147 C 0.99985 0.73307 0.33267 0.0
C148 C 0.08098 0.77204 0.39356 0.0
O149 O 0.07256 0.74958 0.37884 0.0
O150 O 0.07564 0.78776 0.37746 0.0
C151 C 0.03198 0.67445 0.33627 0.0
O152 O 0.01045 0.67216 0.34965 0.0
C153 C 0.07545 0.77071 0.26366 0.0
Zn154 Zn 0.28316 0.37234 0.33902 0.0
Zn155 Zn 0.28722 0.32938 0.33259 0.0
O156 O 0.32583 0.3602 0.33142 0.0
O157 O 0.32308 0.39511 0.33806 0.0
O158 O 0.29063 0.29738 0.33205 0.0
O159 O 0.26573 0.36023 0.38872 0.0
O160 O 0.2699 0.32608 0.38329 0.0
C161 C 0.33703 0.38493 0.33451 0.0
C162 C 0.25542 0.34004 0.27269 0.0
O163 O 0.26437 0.32598 0.285 0.0
O164 O 0.26071 0.36047 0.2907 0.0
C165 C 0.27199 0.27515 0.34248 0.0
O166 O 0.2495 0.27264 0.35193 0.0
C167 C 0.26256 0.33918 0.40189 0.0
Zn168 Zn 0.28143 0.06317 0.69371 0.0
Zn169 Zn 0.32596 0.06027 0.68866 0.0
O170 O 0.29587 0.02185 0.68737 0.0
O171 O 0.25953 0.02315 0.69145 0.0
O172 O 0.35989 0.05935 0.68916 0.0
O173 O 0.29554 0.08316 0.74399 0.0
O174 O 0.33081 0.08031 0.73828 0.0
C175 C 0.2707 0.01008 0.68835 0.0
C176 C 0.31095 0.08635 0.62555 0.0
O177 O 0.32604 0.07884 0.63952 0.0
O178 O 0.29109 0.08259 0.64355 0.0
C179 C 0.36351 0.04276 0.67256 0.0
O180 O 0.34402 0.0242 0.65177 0.0
C181 C 0.31797 0.08805 0.75675 0.0
Zn182 Zn 0.98044 0.24596 0.71337 0.0
Zn183 Zn 0.98223 0.29094 0.70454 0.0
O184 O 0.02161 0.30183 0.70687 0.0
O185 O 0.0201 0.26496 0.71706 0.0
O186 O 0.98414 0.32535 0.70051 0.0
O187 O 0.95949 0.23762 0.75988 0.0
O188 O 0.96055 0.27456 0.7523 0.0
C189 C 0.03349 0.28937 0.71219 0.0
C190 C 0.95642 0.24933 0.64257 0.0
O191 O 0.96302 0.2718 0.65524 0.0
O192 O 0.96162 0.23469 0.66216 0.0
C193 C 0.96355 0.32678 0.69555 0.0
O194 O 0.94025 0.30513 0.69281 0.0
C195 C 0.95307 0.25357 0.77057 0.0
Zn196 Zn 0.72273 0.62792 0.66387 0.0
Zn197 Zn 0.73193 0.67604 0.67299 0.0
O198 O 0.69144 0.65112 0.67727 0.0
O199 O 0.68312 0.61184 0.6632 0.0
O200 O 0.73634 0.71201 0.67292 0.0
O201 O 0.74166 0.63659 0.61559 0.0
O202 O 0.74856 0.67603 0.62202 0.0
C203 C 0.67496 0.62682 0.67171 0.0
C204 C 0.75446 0.65523 0.7321 0.0
O205 O 0.75229 0.67423 0.72041 0.0
O206 O 0.74351 0.63403 0.71326 0.0
C207 C 0.72102 0.71746 0.68954 0.0
O208 O 0.70234 0.69961 0.71044 0.0
C209 C 0.75123 0.65948 0.6033 0.0
Zn210 Zn 0.40725 0.28591 0.66629 0.0
Zn211 Zn 0.36294 0.29024 0.66866 0.0
O212 O 0.39247 0.32811 0.66836 0.0
O213 O 0.4284 0.32592 0.66627 0.0
O214 O 0.32914 0.29087 0.66871 0.0
O215 O 0.39301 0.26513 0.61757 0.0
O216 O 0.35888 0.27054 0.61955 0.0
C217 C 0.41754 0.33939 0.66748 0.0
C218 C 0.37708 0.2645 0.73312 0.0
O219 O 0.36303 0.27293 0.71846 0.0
O220 O 0.39677 0.26693 0.71628 0.0
C221 C 0.32675 0.30864 0.68394 0.0
O222 O 0.34736 0.32833 0.70145 0.0
C223 C 0.37154 0.26174 0.60321 0.0
Zn224 Zn 0.72424 0.10814 0.66442 0.0
Zn225 Zn 0.7201 0.06063 0.66676 0.0
O226 O 0.68125 0.05169 0.66922 0.0
O227 O 0.6841 0.0897 0.66695 0.0
O228 O 0.71805 0.02547 0.66493 0.0
O229 O 0.74232 0.11617 0.61438 0.0
O230 O 0.73922 0.07808 0.61745 0.0
C231 C 0.6701 0.06507 0.66915 0.0
C232 C 0.75181 0.1018 0.72933 0.0
O233 O 0.74247 0.079 0.71527 0.0
O234 O 0.74691 0.11775 0.71293 0.0
C235 C 0.69906 1.00365 0.67611 0.0
O236 O 0.6788 1.00278 0.69169 0.0
C237 C 0.74677 0.09953 0.60038 0.0
Zn238 Zn 0.93511 0.69234 0.66213 0.0
Zn239 Zn 0.94361 0.65234 0.65534 0.0
O240 O 0.98128 0.68505 0.6547 0.0
O241 O 0.97497 0.7178 0.66117 0.0
O242 O 0.94982 0.62213 0.65507 0.0
O243 O 0.91733 0.67846 0.7117 0.0
O244 O 0.92478 0.64646 0.70557 0.0
C245 C 0.99062 0.70953 0.65754 0.0
C246 C 0.90979 0.65993 0.59488 0.0
O247 O 0.92062 0.64753 0.60722 0.0
O248 O 0.91293 0.67946 0.61325 0.0
C249 C 0.93107 0.59927 0.66286 0.0
O250 O 0.90737 0.5954 0.66763 0.0
C251 C 0.91551 0.65781 0.72424 0.0
H252 H 0.15327 0.34547 0.1382 0.0
H253 H 0.13862 0.36566 0.02655 0.0
H254 H 0.11795 0.39173 0.12492 0.0
H255 H 0.14361 0.31809 0.06853 0.0
H256 H 0.15824 0.34012 0.03085 0.0
H257 H 0.17201 0.32356 0.12929 0.0
H258 H 0.25246 0.34901 0.1069 0.0
H259 H 0.20545 0.36104 0.02345 0.0
C260 C 0.14797 0.35658 0.11996 0.0
C261 C 0.13629 0.36933 0.13625 0.0
C262 C 0.15023 0.35605 0.08032 0.0
C263 C 0.13928 0.36768 0.05709 0.0
C264 C 0.12771 0.38061 0.07323 0.0
C265 C 0.12738 0.38221 0.11263 0.0
C266 C 0.15881 0.33866 0.06224 0.0
C267 C 0.1857 0.34316 0.07563 0.0
C268 C 0.18857 0.33354 0.11093 0.0
C269 C 0.21273 0.3361 0.12258 0.0
C270 C 0.23362 0.34668 0.09782 0.0
C271 C 0.23105 0.35524 0.06196 0.0
C272 C 0.20735 0.35421 0.05117 0.0
H273 H 0.67815 0.82796 0.12799 0.0
H274 H 0.67048 0.79503 0.01625 0.0
H275 H 0.65444 0.74817 0.11561 0.0
H276 H 0.70899 0.85176 0.05577 0.0
H277 H 0.68409 0.83928 0.01931 0.0
H278 H 0.70127 0.86904 0.11693 0.0
H279 H 0.65881 0.90836 0.10029 0.0
H280 H 0.65685 0.85803 0.01244 0.0
C281 C 0.67314 0.81194 0.10919 0.0
C282 C 0.666 0.78796 0.12576 0.0
C283 C 0.67494 0.815 0.06936 0.0
C284 C 0.66877 0.79313 0.04671 0.0
C285 C 0.6611 0.76896 0.06324 0.0
C286 C 0.65975 0.76664 0.10263 0.0
C287 C 0.68719 0.84164 0.05062 0.0
C288 C 0.67808 0.85945 0.06459 0.0
C289 C 0.68751 0.87201 0.09996 0.0
C290 C 0.6795 0.88854 0.11364 0.0
C291 C 0.66373 0.89438 0.0904 0.0
C292 C 0.65603 0.88403 0.05356 0.0
C293 C 0.66274 0.86607 0.04092 0.0
H294 H 0.16223 0.82604 0.13839 0.0
H295 H 0.15825 0.80404 0.02152 0.0
H296 H 0.08952 0.76472 0.08924 0.0
H297 H 0.19964 0.8209 0.09654 0.0
H298 H 0.19961 0.83011 0.04912 0.0
H299 H 0.20455 0.85127 0.14999 0.0
H300 H 0.26784 0.92795 0.12515 0.0
H301 H 0.22129 0.87467 0.03424 0.0
C302 C 0.15101 0.81545 0.11327 0.0
C303 C 0.12418 0.79632 0.11676 0.0
C304 C 0.16364 0.81852 0.07887 0.0
C305 C 0.14852 0.80285 0.04755 0.0
C306 C 0.12187 0.78307 0.05104 0.0
C307 C 0.10968 0.78061 0.08544 0.0
C308 C 0.19353 0.83199 0.07782 0.0
C309 C 0.20929 0.86028 0.09057 0.0
C310 C 0.2146 0.8664 0.12936 0.0
C311 C 0.23522 0.89101 0.14193 0.0
C312 C 0.25044 0.90991 0.11527 0.0
C313 C 0.24578 0.90414 0.07623 0.0
C314 C 0.22434 0.87965 0.06417 0.0
H315 H 0.39246 0.21724 0.88531 0.0
H316 H 0.3785 0.22898 -0.00031 0.0
H317 H 0.35205 0.25762 0.90731 0.0
H318 H 0.41667 0.2128 0.94359 0.0
H319 H 0.40183 0.20751 0.98844 0.0
H320 H 0.36729 0.17468 0.89278 0.0
H321 H 0.35868 0.10198 0.92465 0.0
H322 H 0.3981 0.16709 0.00176 0.0
C323 C 0.38246 0.22278 0.9048 0.0
C324 C 0.37017 0.23606 0.89117 0.0
C325 C 0.38325 0.21777 0.94362 0.0
C326 C 0.37527 0.23001 0.9695 0.0
C327 C 0.36486 0.24518 0.95629 0.0
C328 C 0.36071 0.24647 0.9173 0.0
C329 C 0.39731 0.20387 0.95747 0.0
C330 C 0.38294 0.17451 0.94942 0.0
C331 C 0.36985 0.16329 0.91417 0.0
C332 C 0.36118 0.13722 0.905 0.0
C333 C 0.36505 0.12203 0.93161 0.0
C334 C 0.37804 0.13263 0.9665 0.0
C335 C 0.38702 0.15877 0.97532 0.0
H336 H 0.87199 0.18487 0.89686 0.0
H337 H 0.85519 0.20965 0.00086 0.0
H338 H 0.90643 0.26617 0.9208 0.0
H339 H 0.85645 0.1565 0.95552 0.0
H340 H 0.84239 0.16482 0.99255 0.0
H341 H 0.83165 0.15397 0.88425 0.0
H342 H 0.74954 0.09674 0.89416 0.0
H343 H 0.79644 0.13598 0.99419 0.0
C344 C 0.87299 0.20004 0.91442 0.0
C345 C 0.88898 0.22609 0.90347 0.0
C346 C 0.85952 0.19361 0.94859 0.0
C347 C 0.86389 0.21404 0.97327 0.0
C348 C 0.88098 0.24021 0.96317 0.0
C349 C 0.89276 0.24597 0.92797 0.0
C350 C 0.84447 0.16541 0.96131 0.0
C351 C 0.81743 0.1483 0.94162 0.0
C352 C 0.81482 0.1439 0.90195 0.0
C353 C 0.79035 0.12541 0.88476 0.0
C354 C 0.76855 0.11094 0.90729 0.0
C355 C 0.77067 0.11461 0.94647 0.0
C356 C 0.79492 0.13352 0.96366 0.0
H357 H 0.83308 0.61036 0.86128 0.0
H358 H 0.85506 0.61647 0.98015 0.0
H359 H 0.91384 0.63943 0.89618 0.0
H360 H 0.79998 0.58486 0.91348 0.0
H361 H 0.80956 0.59552 0.96148 0.0
H362 H 0.81723 0.63523 0.87155 0.0
H363 H 0.75457 0.6467 0.90053 0.0
H364 H 0.77793 0.60588 0.97691 0.0
C365 C 0.84808 0.61676 0.88388 0.0
C366 C 0.87441 0.62658 0.87451 0.0
C367 C 0.84099 0.6145 0.922 0.0
C368 C 0.86042 0.61985 0.95073 0.0
C369 C 0.88654 0.62828 0.94128 0.0
C370 C 0.89352 0.63237 0.90334 0.0
C371 C 0.81215 0.60245 0.93175 0.0
C372 C 0.80052 0.6198 0.92617 0.0
C373 C 0.80353 0.63352 0.89225 0.0
C374 C 0.78721 0.64349 0.88289 0.0
C375 C 0.76849 0.64075 0.90865 0.0
C376 C 0.7651 0.62736 0.94263 0.0
C377 C 0.78135 0.61721 0.95142 0.0
H378 H 0.81861 0.66959 0.45362 0.0
H379 H 0.7953 0.68288 0.34258 0.0
H380 H 0.76786 0.70012 0.44261 0.0
H381 H 0.80478 0.63872 0.38002 0.0
H382 H 0.8213 0.66317 0.34594 0.0
H383 H 0.82967 0.6409 0.44347 0.0
H384 H 0.91275 0.67256 0.43177 0.0
H385 H 0.86862 0.68546 0.34456 0.0
C386 C 0.80872 0.67652 0.43538 0.0
C387 C 0.79321 0.68479 0.45239 0.0
C388 C 0.80957 0.67532 0.39566 0.0
C389 C 0.79585 0.68447 0.37318 0.0
C390 C 0.78176 0.69456 0.39014 0.0
C391 C 0.78055 0.69449 0.42966 0.0
C392 C 0.82001 0.65972 0.377 0.0
C393 C 0.8462 0.66395 0.39306 0.0
C394 C 0.84738 0.65257 0.42766 0.0
C395 C 0.87149 0.65629 0.44226 0.0
C396 C 0.89395 0.66928 0.42044 0.0
C397 C 0.89297 0.67926 0.38494 0.0
C398 C 0.86929 0.67735 0.37179 0.0
H399 H 0.32733 0.15046 0.46671 0.0
H400 H 0.31919 0.11641 0.35586 0.0
H401 H 0.30461 0.07071 0.45605 0.0
H402 H 0.35633 0.17321 0.39109 0.0
H403 H 0.32903 0.1602 0.35842 0.0
H404 H 0.35377 0.19249 0.45399 0.0
H405 H 0.30745 0.22865 0.44874 0.0
H406 H 0.30253 0.1798 0.35681 0.0
C407 C 0.32219 0.1342 0.44841 0.0
C408 C 0.31568 0.11054 0.46559 0.0
C409 C 0.32334 0.1368 0.40854 0.0
C410 C 0.3175 0.11482 0.38634 0.0
C411 C 0.31045 0.09098 0.40351 0.0
C412 C 0.3095 0.08902 0.4429 0.0
C413 C 0.33437 0.16318 0.38925 0.0
C414 C 0.32654 0.18142 0.40579 0.0
C415 C 0.33831 0.19456 0.44033 0.0
C416 C 0.3306 0.2106 0.45702 0.0
C417 C 0.31299 0.21565 0.43678 0.0
C418 C 0.30385 0.20569 0.40007 0.0
C419 C 0.30989 0.18782 0.38503 0.0
H420 H 0.84214 0.15277 0.48573 0.0
H421 H 0.84227 0.13278 0.36894 0.0
H422 H 0.77005 0.09569 0.42931 0.0
H423 H 0.88077 0.14876 0.44947 0.0
H424 H 0.88261 0.15609 0.40078 0.0
H425 H 0.88436 0.18097 0.4979 0.0
H426 H 0.9455 0.25815 0.47001 0.0
H427 H 0.90498 0.20042 0.38179 0.0
C428 C 0.8317 0.14316 0.4596 0.0
C429 C 0.8043 0.12525 0.46037 0.0
C430 C 0.84569 0.14633 0.42646 0.0
C431 C 0.83158 0.13171 0.39388 0.0
C432 C 0.80441 0.11304 0.3948 0.0
C433 C 0.79079 0.11072 0.4277 0.0
C434 C 0.87557 0.15915 0.42795 0.0
C435 C 0.89096 0.18786 0.43823 0.0
C436 C 0.8947 0.19543 0.47649 0.0
C437 C 0.9142 0.22076 0.48801 0.0
C438 C 0.92923 0.23913 0.46074 0.0
C439 C 0.92608 0.23201 0.42228 0.0
C440 C 0.90651 0.20643 0.41109 0.0
H441 H 0.06073 0.55315 0.2118 0.0
H442 H 0.04973 0.57078 0.32521 0.0
H443 H 0.03066 0.60332 0.22957 0.0
H444 H 0.08559 0.55015 0.27186 0.0
H445 H 0.07129 0.54728 0.31651 0.0
H446 H 0.03692 0.51181 0.22183 0.0
H447 H 0.02472 0.4392 0.26155 0.0
H448 H 0.06436 0.50648 0.33476 0.0
C449 C 0.05306 0.56142 0.23092 0.0
C450 C 0.04373 0.57702 0.21608 0.0
C451 C 0.05366 0.55741 0.27019 0.0
C452 C 0.0472 0.57166 0.29482 0.0
C453 C 0.03918 0.58845 0.28006 0.0
C454 C 0.0365 0.59011 0.24086 0.0
C455 C 0.0664 0.54259 0.28579 0.0
C456 C 0.05088 0.51294 0.28011 0.0
C457 C 0.0385 0.50087 0.24489 0.0
C458 C 0.02952 0.47447 0.238 0.0
C459 C 0.03148 0.45954 0.26698 0.0
C460 C 0.04375 0.47089 0.30193 0.0
C461 C 0.05363 0.49754 0.30832 0.0
H462 H 0.54232 0.51887 0.22933 0.0
H463 H 0.52876 0.54698 0.33261 0.0
H464 H 0.56807 0.59971 0.24176 0.0
H465 H 0.52946 0.49279 0.28994 0.0
H466 H 0.51613 0.5019 0.32713 0.0
H467 H 0.502 0.48713 0.21961 0.0
H468 H 0.42065 0.43016 0.23541 0.0
H469 H 0.47032 0.47276 0.3319 0.0
C470 C 0.54254 0.53429 0.24524 0.0
C471 C 0.55543 0.55954 0.2305 0.0
C472 C 0.53099 0.52904 0.28083 0.0
C473 C 0.53546 0.55024 0.30382 0.0
C474 C 0.54969 0.57585 0.28997 0.0
C475 C 0.55821 0.58006 0.25274 0.0
C476 C 0.51722 0.5014 0.2958 0.0
C477 C 0.4897 0.48322 0.27799 0.0
C478 C 0.48588 0.47752 0.23859 0.0
C479 C 0.46103 0.45836 0.22331 0.0
C480 C 0.43999 0.44468 0.2473 0.0
C481 C 0.44321 0.44969 0.28623 0.0
C482 C 0.46792 0.46916 0.30159 0.0
H483 H 0.51879 0.96481 0.20468 0.0
H484 H 0.53669 0.95984 0.32254 0.0
H485 H 0.59831 0.99209 0.24171 0.0
H486 H 0.48455 0.93204 0.25401 0.0
H487 H 0.49171 0.94147 0.30254 0.0
H488 H 0.48459 0.96659 0.20618 0.0
H489 H 0.43453 0.9912 0.24811 0.0
H490 H 0.4724 0.96395 0.32572 0.0
C491 C 0.53282 0.96983 0.22804 0.0
C492 C 0.55941 0.98072 0.21964 0.0
C493 C 0.52437 0.9635 0.26541 0.0
C494 C 0.54303 0.96652 0.2941 0.0
C495 C 0.56965 0.97664 0.28543 0.0
C496 C 0.57782 0.9845 0.24849 0.0
C497 C 0.49507 0.94932 0.27329 0.0
C498 C 0.48224 0.9655 0.26715 0.0
C499 C 0.47744 0.97155 0.23031 0.0
C500 C 0.46103 0.98167 0.22348 0.0
C501 C 0.44906 0.98569 0.25399 0.0
C502 C 0.45269 0.97897 0.29098 0.0
C503 C 0.47016 0.96988 0.29747 0.0
H504 H 0.49011 0.01057 0.79166 0.0
H505 H 0.46358 0.02002 0.6807 0.0
H506 H 0.43752 0.03883 0.78069 0.0
H507 H 0.47624 0.97875 0.71727 0.0
H508 H 0.49275 1.00376 0.68402 0.0
H509 H 0.50094 0.98191 0.78211 0.0
H510 H 0.5839 0.01269 0.77054 0.0
H511 H 0.53982 0.02426 0.68176 0.0
C512 C 0.47978 0.0169 0.77338 0.0
C513 C 0.46464 0.02557 0.79057 0.0
C514 C 0.47988 0.01477 0.73365 0.0
C515 C 0.46485 0.02247 0.71121 0.0
C516 C 0.4504 0.03218 0.72813 0.0
C517 C 0.45044 0.03353 0.76769 0.0
C518 C 0.49121 0.99989 0.71496 0.0
C519 C 0.5175 1.00433 0.73127 0.0
C520 C 0.51871 0.99351 0.76637 0.0
C521 C 0.54287 0.99771 0.78165 0.0
C522 C 0.56517 0.00963 0.75931 0.0
C523 C 0.56401 0.01847 0.72299 0.0
C524 C 0.5405 0.01683 0.70956 0.0
H525 H 0.99852 0.4848 0.80373 0.0
H526 H 0.98392 0.44925 0.69244 0.0
H527 H 0.97096 0.40389 0.79268 0.0
H528 H 0.02429 0.50755 0.73168 0.0
H529 H 0.99949 0.49415 0.69495 0.0
H530 H 0.01636 0.52552 0.79159 0.0
H531 H 0.97024 0.56095 0.77366 0.0
H532 H 0.96967 0.51017 0.68802 0.0
C533 C 0.99147 0.46812 0.78535 0.0
C534 C 0.98447 0.44428 0.8023 0.0
C535 C 0.9909 0.47032 0.74543 0.0
C536 C 0.98321 0.4479 0.72303 0.0
C537 C 0.97576 0.42393 0.74009 0.0
C538 C 0.97607 0.42227 0.77954 0.0
C539 C 1.00247 0.49674 0.72625 0.0
C540 C 0.99225 0.51374 0.73981 0.0
C541 C 1.0016 0.52703 0.77479 0.0
C542 C 0.9925 0.54279 0.78805 0.0
C543 C 0.97585 0.54731 0.76458 0.0
C544 C 0.96798 0.53609 0.72832 0.0
C545 C 0.9757 0.51881 0.71615 0.0
H546 H 0.50961 0.48088 0.82938 0.0
H547 H 0.51262 0.46189 0.71294 0.0
H548 H 0.44038 0.4189 0.77291 0.0
H549 H 0.55308 0.49372 0.79686 0.0
H550 H 0.55281 0.49109 0.74658 0.0
H551 H 0.53696 0.52275 0.8235 0.0
H552 H 0.5715 0.59649 0.76828 0.0
H553 H 0.57162 0.53155 0.71722 0.0
C554 C 0.49981 0.47026 0.80347 0.0
C555 C 0.47308 0.45027 0.80432 0.0
C556 C 0.51412 0.4753 0.77014 0.0
C557 C 0.50149 0.45927 0.73805 0.0
C558 C 0.47497 0.4388 0.73902 0.0
C559 C 0.46076 0.43494 0.77185 0.0
C560 C 0.54353 0.49532 0.77013 0.0
C561 C 0.54943 0.52306 0.76749 0.0
C562 C 0.54441 0.53416 0.7983 0.0
C563 C 0.55258 0.56069 0.79924 0.0
C564 C 0.56514 0.576 0.76767 0.0
C565 C 0.57355 0.56629 0.73865 0.0
C566 C 0.56463 0.53941 0.73815 0.0
H567 H 0.72714 0.88629 0.54654 0.0
H568 H 0.71408 0.89858 0.66116 0.0
H569 H 0.68851 0.92832 0.56927 0.0
H570 H 0.75091 0.88098 0.60509 0.0
H571 H 0.73569 0.87541 0.64965 0.0
H572 H 0.70164 0.84396 0.55304 0.0
H573 H 0.69123 0.77033 0.58331 0.0
H574 H 0.7312 0.83449 0.66194 0.0
C575 C 0.71744 0.8921 0.56616 0.0
C576 C 0.70576 0.906 0.55275 0.0
C577 C 0.71809 0.88688 0.60495 0.0
C578 C 0.71081 0.89967 0.63101 0.0
C579 C 0.70092 0.91531 0.61795 0.0
C580 C 0.69678 0.91678 0.57904 0.0
C581 C 0.73143 0.87221 0.61859 0.0
C582 C 0.71664 0.84289 0.60981 0.0
C583 C 0.70375 0.83219 0.57423 0.0
C584 C 0.69479 0.80615 0.56445 0.0
C585 C 0.69786 0.79036 0.59083 0.0
C586 C 0.71068 0.80039 0.62597 0.0
C587 C 0.7202 0.82659 0.63533 0.0
H588 H 0.19899 0.84739 0.56194 0.0
H589 H 0.18662 0.87823 0.66374 0.0
H590 H 0.24106 0.92988 0.58195 0.0
H591 H 0.18124 0.82079 0.6225 0.0
H592 H 0.16909 0.83235 0.65808 0.0
H593 H 0.15708 0.82243 0.54981 0.0
H594 H 0.07482 0.7662 0.5604 0.0
H595 H 0.12323 0.80248 0.66058 0.0
C596 C 0.20203 0.86376 0.57873 0.0
C597 C 0.22016 0.88914 0.56676 0.0
C598 C 0.18862 0.85942 0.61275 0.0
C599 C 0.19528 0.88113 0.63626 0.0
C600 C 0.21457 0.90648 0.62533 0.0
C601 C 0.22613 0.9103 0.59017 0.0
C602 C 0.17108 0.83173 0.62696 0.0
C603 C 0.14365 0.81592 0.60763 0.0
C604 C 0.14047 0.81233 0.56785 0.0
C605 C 0.11574 0.79444 0.55078 0.0
C606 C 0.094 0.78004 0.57347 0.0
C607 C 0.09655 0.78294 0.6128 0.0
C608 C 0.12127 0.80091 0.62995 0.0
H609 H 0.18629 0.30204 0.54289 0.0
H610 H 0.20664 0.29819 0.66016 0.0
H611 H 0.26561 0.32427 0.57576 0.0
H612 H 0.15223 0.27303 0.59161 0.0
H613 H 0.16107 0.2795 0.64066 0.0
H614 H 0.15544 0.31114 0.55018 0.0
H615 H 0.11829 0.34594 0.60601 0.0
H616 H 0.14839 0.30543 0.67085 0.0
C617 C 0.20089 0.30602 0.56524 0.0
C618 C 0.22684 0.31463 0.55542 0.0
C619 C 0.19347 0.3009 0.60314 0.0
C620 C 0.21238 0.30358 0.63115 0.0
C621 C 0.23841 0.31197 0.62121 0.0
C622 C 0.24559 0.31805 0.58354 0.0
C623 C 0.1647 0.28893 0.61246 0.0
C624 C 0.15538 0.3082 0.61113 0.0
C625 C 0.15083 0.31696 0.57622 0.0
C626 C 0.13794 0.3311 0.57421 0.0
C627 C 0.1292 0.33607 0.60776 0.0
C628 C 0.13151 0.32565 0.64246 0.0
C629 C 0.14634 0.31341 0.64422 0.0
C630 C 0.9882 0.44768 0.14641 0.0
C631 C 1.00057 0.4362 0.12805 0.0
C632 C 0.99809 0.46082 0.1814 0.0
C633 C 0.02054 0.46274 0.19949 0.0
H634 H 0.97053 0.44629 0.13393 0.0
H635 H 0.98769 0.46888 0.19487 0.0
S636 S 0.06162 0.43812 0.16275 0.0
N637 N 0.03764 0.42919 0.13022 0.0
N638 N 0.05592 0.45369 0.19583 0.0
C639 C 0.03357 0.4521 0.18112 0.0
C640 C 0.02368 0.43889 0.14547 0.0
C641 C 0.56087 0.55146 0.12536 0.0
C642 C 0.58568 0.57329 0.11737 0.0
C643 C 0.55125 0.54724 0.16199 0.0
C644 C 0.56635 0.56443 0.19207 0.0
H645 H 0.5486 0.5378 0.10299 0.0
H646 H 0.5317 0.53054 0.16667 0.0
S647 S 0.63399 0.62292 0.18623 0.0
N648 N 0.62576 0.61158 0.14231 0.0
N649 N 0.60841 0.60298 0.21171 0.0
C650 C 0.5916 0.58595 0.18451 0.0
C651 C 0.60108 0.59054 0.14701 0.0
C652 C 0.44466 0.00824 0.13509 0.0
C653 C 0.43404 0.98697 0.10947 0.0
C654 C 0.45376 0.00663 0.17175 0.0
C655 C 0.45271 0.98377 0.18406 0.0
H656 H 0.44564 0.02614 0.12702 0.0
H657 H 0.46156 0.02334 0.19071 0.0
S658 S 0.42578 0.92213 0.12908 0.0
N659 N 0.4228 0.94205 0.09981 0.0
N660 N 0.43928 0.93912 0.16854 0.0
C661 C 0.44216 0.96241 0.15887 0.0
C662 C 0.43303 0.96401 0.12166 0.0
C663 C 0.44193 0.99101 0.884 0.0
C664 C 0.43886 0.00866 0.90608 0.0
C665 C 0.45194 0.99736 0.84765 0.0
C666 C 0.45946 0.02169 0.83175 0.0
H667 H 0.43559 0.97163 0.89416 0.0
H668 H 0.45239 0.98246 0.83112 0.0
S669 S 0.45939 0.07646 0.87956 0.0
N670 N 0.44692 0.05269 0.91071 0.0
N671 N 0.46614 0.06469 0.84238 0.0
C672 C 0.45825 0.04022 0.85436 0.0
C673 C 0.44791 0.03371 0.89148 0.0
C674 C 0.97085 0.43948 0.90697 0.0
C675 C 0.98598 0.42924 0.92202 0.0
C676 C 0.97162 0.44589 0.86853 0.0
C677 C 0.9874 0.44215 0.84376 0.0
H678 H 0.95751 0.44166 0.92463 0.0
H679 H 0.9588 0.45256 0.85776 0.0
S680 S 0.03326 0.41927 0.86904 0.0
N681 N 0.01927 0.41825 0.90918 0.0
N682 N 0.02041 0.43014 0.83708 0.0
C683 C 1.0038 0.4335 0.85867 0.0
C684 C 1.0032 0.42713 0.89777 0.0
C685 C 0.58817 0.60115 0.8857 0.0
C686 C 0.57196 0.58489 0.91422 0.0
C687 C 0.58011 0.59532 0.84755 0.0
C688 C 0.55537 0.57324 0.83681 0.0
H689 H 0.60833 0.61664 0.89255 0.0
H690 H 0.59473 0.60646 0.82673 0.0
S691 S 0.50241 0.53048 0.9021 0.0
N692 N 0.52815 0.54975 0.93032 0.0
N693 N 0.51206 0.53986 0.85848 0.0
C694 C 0.53735 0.55978 0.86555 0.0
C695 C 0.54594 0.5652 0.90437 0.0
C696 C 0.03802 0.58365 0.87003 0.0
C697 C 0.02049 0.58428 0.89538 0.0
C698 C 0.02877 0.56982 0.83571 0.0
C699 C 1.00165 0.55599 0.82549 0.0
H700 H 0.05916 0.59436 0.8763 0.0
H701 H 0.04306 0.57052 0.81662 0.0
S702 S 0.94723 0.54948 0.88291 0.0
N703 N 0.97446 0.56868 0.90856 0.0
N704 N 0.95712 0.54231 0.8442 0.0
C705 C 0.98379 0.55581 0.85092 0.0
C706 C 0.9932 0.57002 0.88582 0.0
C707 C 0.4412 0.45813 0.8906 0.0
C708 C 0.42815 0.43296 0.90638 0.0
C709 C 0.45604 0.46368 0.85799 0.0
C710 C 0.45827 0.44427 0.83971 0.0
H711 H 0.44006 0.47379 0.90355 0.0
H712 H 0.46547 0.48318 0.84659 0.0
S713 S 0.42884 0.37552 0.8695 0.0
N714 N 0.41903 0.38856 0.90109 0.0
N715 N 0.44698 0.39916 0.83995 0.0
C716 C 0.44556 0.41912 0.85513 0.0
C717 C 0.43052 0.41343 0.88841 0.0
C718 C 0.57048 0.98192 0.86923 0.0
C719 C 0.56555 0.99476 0.89798 0.0
C720 C 0.56106 0.98087 0.83187 0.0
C721 C 0.54618 0.99241 0.82202 0.0
H722 H 0.58323 0.97424 0.87497 0.0
H723 H 0.56677 0.97232 0.81009 0.0
S724 S 0.52391 0.02424 0.88829 0.0
N725 N 0.54167 0.01594 0.9152 0.0
N726 N 0.52437 0.0143 0.84506 0.0
C727 C 0.53908 1.00313 0.85121 0.0
C728 C 0.54872 1.00428 0.88917 0.0
C729 C 0.57063 0.00924 0.12143 0.0
C730 C 0.58286 0.99757 0.10346 0.0
C731 C 0.56288 1.0035 0.15897 0.0
C732 C 0.56748 0.98623 0.18 0.0
H733 H 0.56703 0.02298 0.10645 0.0
H734 H 0.55358 0.01292 0.17185 0.0
S735 S 0.59769 0.94962 0.14624 0.0
N736 N 0.59837 0.96715 0.10958 0.0
N737 N 0.5839 0.95666 0.1803 0.0
C738 C 0.57931 0.97414 0.16245 0.0
C739 C 0.58695 0.97971 0.12411 0.0
C740 C 0.02138 0.58736 0.11918 0.0
C741 C 0.04437 0.59728 0.09804 0.0
C742 C 0.02104 0.57982 0.15688 0.0
C743 C 0.04363 0.58188 0.17491 0.0
H744 H 1.00363 0.5859 0.10687 0.0
H745 H 1.0031 0.57285 0.17235 0.0
S746 S 0.10871 0.60608 0.13232 0.0
N747 N 0.09019 0.60797 0.09795 0.0
N748 N 0.08949 0.59422 0.16897 0.0
C749 C 0.0665 0.59102 0.15393 0.0
C750 C 0.06688 0.59862 0.11548 0.0
C751 C 0.44541 0.46477 0.12081 0.0
C752 C 0.43249 0.43876 0.10729 0.0
C753 C 0.4569 0.47158 0.15754 0.0
C754 C 0.45581 0.45262 0.18214 0.0
H755 H 0.44574 0.47989 0.10348 0.0
H756 H 0.46514 0.49144 0.16756 0.0
S757 S 0.42782 0.38267 0.15961 0.0
N758 N 0.42204 0.39456 0.12066 0.0
N759 N 0.44345 0.4075 0.18967 0.0
C760 C 0.4447 0.42701 0.16829 0.0
C761 C 0.4331 0.42003 0.13088 0.0
C762 C 0.6868 0.77284 0.46986 0.0
C763 C 0.66484 0.77226 0.45201 0.0
C764 C 0.69651 0.78428 0.50573 0.0
C765 C 0.68482 0.79581 0.52538 0.0
H766 H 0.69645 0.764 0.45636 0.0
H767 H 0.71328 0.78394 0.51837 0.0
S768 S 0.62773 0.8008 0.49114 0.0
N769 N 0.63225 0.78527 0.45659 0.0
N770 N 0.65069 0.80676 0.5242 0.0
C771 C 0.66336 0.79612 0.50769 0.0
C772 C 0.6533 0.78431 0.47106 0.0
C773 C 0.25009 0.91897 0.47255 0.0
C774 C 0.2633 0.90604 0.46314 0.0
C775 C 0.23576 0.91298 0.50572 0.0
C776 C 0.23422 0.89395 0.53083 0.0
H777 H 0.2506 0.93367 0.45402 0.0
H778 H 0.22578 0.92334 0.51177 0.0
S779 S 0.2668 0.85579 0.52075 0.0
N780 N 0.27466 0.87391 0.48246 0.0
N781 N 0.2482 0.86317 0.54507 0.0
C782 C 0.24753 0.88106 0.52201 0.0
C783 C 0.26197 0.887 0.48813 0.0
C784 C 0.14109 0.35 0.47027 0.0
C785 C 0.11546 0.34498 0.46192 0.0
C786 C 0.1486 0.34666 0.50706 0.0
C787 C 0.13046 0.33741 0.53652 0.0
H788 H 0.15515 0.3558 0.44797 0.0
H789 H 0.16852 0.3506 0.51219 0.0
S790 S 0.06005 0.31947 0.52743 0.0
N791 N 0.07185 0.33014 0.48512 0.0
N792 N 0.08503 0.32206 0.55349 0.0
C793 C 0.10468 0.3324 0.52817 0.0
C794 C 0.09741 0.33658 0.49105 0.0
C795 C 0.09545 0.35405 0.22401 0.0
C796 C 0.11267 0.35516 0.25318 0.0
C797 C 0.10346 0.35895 0.18652 0.0
C798 C 0.12922 0.36573 0.17688 0.0
H799 H 0.0753 0.34835 0.23 0.0
H800 H 0.08901 0.35667 0.16478 0.0
S801 S 0.18261 0.37424 0.24449 0.0
N802 N 0.1568 0.36478 0.2711 0.0
N803 N 0.17253 0.3754 0.20069 0.0
C804 C 0.14694 0.36787 0.20629 0.0
C805 C 0.1385 0.36229 0.24444 0.0
C806 C 0.64429 0.77905 0.2273 0.0
C807 C 0.65913 0.76929 0.245 0.0
C808 C 0.64774 0.78671 0.18922 0.0
C809 C 0.66604 0.78478 0.16742 0.0
H810 H 0.62917 0.7799 0.24251 0.0
H811 H 0.63509 0.79292 0.17623 0.0
S812 S 0.71207 0.7637 0.20064 0.0
N813 N 0.69471 0.76061 0.23803 0.0
N814 N 0.70085 0.77483 0.16662 0.0
C815 C 0.68205 0.77656 0.18514 0.0
C816 C 0.6787 0.76889 0.22387 0.0
C817 C 0.2589 0.92266 0.23958 0.0
C818 C 0.26493 0.9056 0.25875 0.0
C819 C 0.24878 0.91762 0.20203 0.0
C820 C 0.24419 0.89529 0.18238 0.0
H821 H 0.26239 0.94027 0.25343 0.0
H822 H 0.24473 0.93139 0.18813 0.0
S823 S 0.25741 0.84485 0.21877 0.0
N824 N 0.26562 0.86543 0.2546 0.0
N825 N 0.24723 0.85646 0.18413 0.0
C826 C 0.24999 0.87803 0.20115 0.0
C827 C 0.26016 0.88304 0.2393 0.0
C828 C 0.67627 0.90947 0.21316 0.0
C829 C 0.70287 0.92245 0.22633 0.0
C830 C 0.66891 0.89847 0.17672 0.0
C831 C 0.68789 0.90016 0.15208 0.0
H832 H 0.66097 0.90772 0.23113 0.0
H833 H 0.64818 0.88845 0.16778 0.0
S834 S 0.76034 0.93346 0.17171 0.0
N835 N 0.7484 0.93704 0.21122 0.0
N836 N 0.73446 0.91675 0.14248 0.0
C837 C 0.71456 0.91323 0.16466 0.0
C838 C 0.72207 0.92428 0.20185 0.0
C839 C 0.09905 0.80208 0.2114 0.0
C840 C 0.08842 0.77687 0.22657 0.0
C841 C 0.11095 0.80842 0.17613 0.0
C842 C 0.11237 0.78971 0.15453 0.0
H843 H 0.09818 0.81712 0.22682 0.0
H844 H 0.11872 0.82795 0.1654 0.0
S845 S 0.089 0.72144 0.18162 0.0
N846 N 0.08113 0.7334 0.21731 0.0
N847 N 0.10349 0.74544 0.15115 0.0
C848 C 0.10231 0.76463 0.16946 0.0
C849 C 0.09034 0.75818 0.20542 0.0
C850 C 0.22583 0.34632 0.22774 0.0
C851 C 0.24009 0.33394 0.23617 0.0
C852 C 0.21486 0.34486 0.19145 0.0
C853 C 0.21781 0.33107 0.16214 0.0
H854 H 0.22419 0.35833 0.24888 0.0
H855 H 0.20575 0.3562 0.18555 0.0
S856 S 0.24996 0.29215 0.17023 0.0
N857 N 0.25397 0.30498 0.21295 0.0
N858 N 0.23334 0.30239 0.14453 0.0
C859 C 0.23024 0.31697 0.1707 0.0
C860 C 0.24133 0.31832 0.20781 0.0
C861 C 0.23951 0.34288 0.45716 0.0
C862 C 0.25153 0.33074 0.43984 0.0
C863 C 0.23085 0.33698 0.49426 0.0
C864 C 0.23418 0.31899 0.51544 0.0
H865 H 0.2371 0.35737 0.44221 0.0
H866 H 0.22219 0.34712 0.50684 0.0
S867 S 0.26226 0.28014 0.48275 0.0
N868 N 0.26469 0.29854 0.44629 0.0
N869 N 0.24845 0.28767 0.5162 0.0
C870 C 0.24527 0.30602 0.49827 0.0
C871 C 0.25389 0.31182 0.46037 0.0
C872 C 0.71341 0.94422 0.46308 0.0
C873 C 0.70864 0.92625 0.43427 0.0
C874 C 0.71236 0.93742 0.50114 0.0
C875 C 0.70581 0.91212 0.51182 0.0
H876 H 0.71888 0.964 0.45615 0.0
H877 H 0.71742 0.95242 0.52227 0.0
S878 S 0.68982 0.85746 0.44594 0.0
N879 N 0.69677 0.88222 0.41789 0.0
N880 N 0.69302 0.86858 0.48965 0.0
C881 C 0.70027 0.89371 0.48288 0.0
C882 C 0.70207 0.90097 0.44402 0.0
C883 C 0.09078 0.75891 0.45643 0.0
C884 C 0.09455 0.77887 0.43154 0.0
C885 C 0.0992 0.76436 0.49459 0.0
C886 C 0.11196 0.79 0.50921 0.0
H887 H 0.07993 0.73872 0.447 0.0
H888 H 0.09469 0.74825 0.51322 0.0
S889 S 0.13018 0.84971 0.45484 0.0
N890 N 0.11464 0.82571 0.4234 0.0
N891 N 0.13039 0.8358 0.49526 0.0
C892 C 0.11768 0.81035 0.48413 0.0
C893 C 0.10894 0.80482 0.44527 0.0
C894 C 0.35122 0.1025 0.81093 0.0
C895 C 0.32911 0.10199 0.79373 0.0
C896 C 0.36155 0.11426 0.84649 0.0
C897 C 0.3504 0.12623 0.86641 0.0
H898 H 0.36045 0.09333 0.79717 0.0
H899 H 0.37843 0.11389 0.85862 0.0
S900 S 0.29325 0.13161 0.83365 0.0
N901 N 0.297 0.11553 0.7991 0.0
N902 N 0.3166 0.13763 0.86607 0.0
C903 C 0.32879 0.12656 0.84932 0.0
C904 C 0.31807 0.11441 0.81305 0.0
C905 C 0.93479 0.22822 0.82944 0.0
C906 C 0.93657 0.24724 0.80409 0.0
C907 C 0.91901 0.22121 0.86105 0.0
C908 C 0.90421 0.23279 0.86847 0.0
H909 H 0.94594 0.21881 0.82514 0.0
H910 H 0.91885 0.20697 0.88025 0.0
S911 S 0.9005 0.2824 0.80981 0.0
N912 N 0.9214 0.27693 0.7879 0.0
N913 N 0.89129 0.26335 0.84719 0.0
C914 C 0.90543 0.25156 0.84315 0.0
C915 C 0.92171 0.25888 0.81101 0.0
C916 C 0.77401 0.63706 0.77706 0.0
C917 C 0.76808 0.65651 0.76888 0.0
C918 C 0.78233 0.6344 0.81342 0.0
C919 C 0.78515 0.65111 0.84329 0.0
H920 H 0.77099 0.62286 0.75562 0.0
H921 H 0.78477 0.61795 0.81863 0.0
S922 S 0.77654 0.70795 0.83568 0.0
N923 N 0.76874 0.69478 0.79273 0.0
N924 N 0.78477 0.68991 0.86125 0.0
C925 C 0.78144 0.67198 0.8349 0.0
C926 C 0.77289 0.6747 0.79767 0.0
C927 C 0.77498 0.69174 0.55189 0.0
C928 C 0.76463 0.66648 0.56651 0.0
C929 C 0.78562 0.69803 0.51576 0.0
C930 C 0.78636 0.67935 0.49286 0.0
H931 H 0.77426 0.70661 0.568 0.0
H932 H 0.79263 0.71748 0.50518 0.0
S933 S 0.76289 0.61071 0.51825 0.0
N934 N 0.75712 0.62302 0.55568 0.0
N935 N 0.77634 0.63471 0.48768 0.0
C936 C 0.77697 0.65431 0.50763 0.0
C937 C 0.76628 0.64793 0.54442 0.0
C938 C 0.33144 0.09337 0.56242 0.0
C939 C 0.31477 0.09662 0.58631 0.0
C940 C 0.33234 0.09892 0.52374 0.0
C941 C 0.31684 0.10822 0.50737 0.0
H942 H 0.34306 0.08535 0.57323 0.0
H943 H 0.34474 0.09523 0.50621 0.0
S944 S 0.27222 0.12302 0.55771 0.0
N945 N 0.28406 0.11197 0.59101 0.0
N946 N 0.28591 0.12235 0.51812 0.0
C947 C 0.30128 0.11304 0.53108 0.0
C948 C 0.30019 0.10724 0.57056 0.0
C949 C 0.93642 0.25609 0.58308 0.0
C950 C 0.94376 0.24069 0.60423 0.0
C951 C 0.9261 0.24919 0.54581 0.0
C952 C 0.92261 0.22657 0.52848 0.0
H953 H 0.93905 0.27387 0.59512 0.0
H954 H 0.92114 0.26178 0.53024 0.0
S955 S 0.93922 0.17986 0.57082 0.0
N956 N 0.94673 0.20167 0.60463 0.0
N957 N 0.92787 0.18915 0.53459 0.0
C958 C 0.92959 0.21087 0.54932 0.0
C959 C 0.94 0.21779 0.58719 0.0
C960 C 0.35819 0.26158 0.53603 0.0
C961 C 0.36164 0.24843 0.56648 0.0
C962 C 0.34885 0.24941 0.50058 0.0
C963 C 0.34182 0.22333 0.49462 0.0
H964 H 0.36313 0.28156 0.53953 0.0
H965 H 0.34721 0.26062 0.47766 0.0
S966 S 0.3462 0.18028 0.5669 0.0
N967 N 0.35759 0.20838 0.58932 0.0
N968 N 0.33825 0.18461 0.52333 0.0
C969 C 0.34505 0.20995 0.52531 0.0
C970 C 0.35532 0.2227 0.56113 0.0
C971 C 0.77466 0.13124 0.55067 0.0
C972 C 0.76149 0.10557 0.56474 0.0
C973 C 0.78894 0.13767 0.51734 0.0
C974 C 0.79031 0.11861 0.49657 0.0
H975 H 0.77406 0.14661 0.56557 0.0
H976 H 0.7986 0.15757 0.5074 0.0
S977 S 0.76041 0.04886 0.52129 0.0
N978 N 0.75153 0.06117 0.55528 0.0
N979 N 0.77831 0.07332 0.49279 0.0
C980 C 0.77759 0.09299 0.51039 0.0
C981 C 0.7632 0.08645 0.5444 0.0
C982 C 0.87907 0.6636 0.54835 0.0
C983 C 0.89513 0.65323 0.55765 0.0
C984 C 0.869 0.66203 0.51133 0.0
C985 C 0.87479 0.65023 0.48213 0.0
H986 H 0.87533 0.67422 0.56939 0.0
H987 H 0.8584 0.67195 0.50498 0.0
S988 S 0.91189 0.61616 0.49243 0.0
N989 N 0.91327 0.62763 0.53534 0.0
N990 N 0.89443 0.62492 0.46567 0.0
C991 C 0.88876 0.63776 0.4916 0.0
C992 C 0.8989 0.63918 0.52939 0.0
C993 C 0.88833 0.65689 0.77753 0.0
C994 C 0.90315 0.64743 0.76113 0.0
C995 C 0.87799 0.64901 0.81354 0.0
C996 C 0.88236 0.63163 0.83468 0.0
H997 H 0.88501 0.67087 0.76274 0.0
H998 H 0.86738 0.65736 0.82554 0.0
S999 S 0.91769 0.59928 0.80388 0.0
N1000 N 0.92 0.61815 0.76812 0.0
N1001 N 0.90078 0.6037 0.8361 0.0
C1002 C 0.89624 0.62123 0.81828 0.0
C1003 C 0.90655 0.629 0.78139 0.0
C1004 C 0.37706 0.27361 0.801 0.0
C1005 C 0.37309 0.25575 0.77243 0.0
C1006 C 0.37596 0.26698 0.83915 0.0
C1007 C 0.37008 0.24193 0.85016 0.0
H1008 H 0.38206 0.29321 0.79383 0.0
H1009 H 0.38049 0.28194 0.8601 0.0
S1010 S 0.35583 0.18747 0.785 0.0
N1011 N 0.36241 0.212 0.75666 0.0
N1012 N 0.35845 0.19863 0.82854 0.0
C1013 C 0.36518 0.22358 0.82145 0.0
C1014 C 0.3671 0.2307 0.78253 0.0
C1015 C 0.76402 0.08939 0.79111 0.0
C1016 C 0.76647 0.10905 0.76658 0.0
C1017 C 0.77372 0.09519 0.82873 0.0
C1018 C 0.78649 0.12087 0.84318 0.0
H1019 H 0.75319 0.06915 0.78194 0.0
H1020 H 0.77 0.07924 0.84726 0.0
S1021 S 0.80182 0.17999 0.78927 0.0
N1022 N 0.78561 0.15578 0.75832 0.0
N1023 N 0.80366 0.16645 0.8292 0.0
C1024 C 0.79103 0.14097 0.81827 0.0
C1025 C 0.78102 0.13511 0.77994 0.0
C1026 C 0.06701 0.3748 0.02512 0.0
C1027 C 0.07157 0.40018 0.02929 0.0
C1028 C 0.08661 0.36911 0.0355 0.0
C1029 C 0.11144 0.38852 0.05066 0.0
H1030 H 0.04775 0.35892 0.01536 0.0
H1031 H 0.08158 0.34899 0.03435 0.0
S1032 S 0.13464 0.45844 0.06391 0.0
N1033 N 0.10401 0.44537 0.04653 0.0
N1034 N 0.14038 0.43434 0.06662 0.0
C1035 C 0.1169 0.41421 0.05269 0.0
C1036 C 0.0971 0.42012 0.04183 0.0
C1037 C 0.6299 0.69855 0.03366 0.0
C1038 C 0.64957 0.69866 0.01227 0.0
C1039 C 0.6329 0.72172 0.0474 0.0
C1040 C 0.65582 0.74594 0.04065 0.0
H1041 H 0.6123 0.68031 0.04081 0.0
H1042 H 0.61772 0.72059 0.06504 0.0
S1043 S 0.71232 0.75717 0.98392 0.0
N1044 N 0.6919 0.7252 0.98254 0.0
N1045 N 0.69785 0.76892 0.00934 0.0
C1046 C 0.67499 0.74656 0.0175 0.0
C1047 C 0.6718 0.72286 0.00311 0.0
C1048 C 0.3016 0.9227 0.01049 0.0
C1049 C 0.31769 0.9499 0.01589 0.0
C1050 C 0.27704 0.90829 0.02724 0.0
C1051 C 0.26733 0.92045 0.04987 0.0
H1052 H 0.30879 0.91205 -0.00449 0.0
H1053 H 0.26673 0.88722 0.02495 0.0
S1054 S 0.29841 0.99172 0.06497 0.0
N1055 N 0.31983 0.98893 0.03978 0.0
N1056 N 0.27335 0.96168 0.071 0.0
C1057 C 0.28173 0.94787 0.05192 0.0
C1058 C 0.30692 0.96264 0.0349 0.0
C1059 C 0.41011 0.09565 0.00084 0.0
C1060 C 0.39078 0.07639 0.02401 0.0
C1061 C 0.40687 0.11529 0.98475 0.0
C1062 C 0.38426 0.11648 0.99135 0.0
H1063 H 0.42729 0.09483 0.99347 0.0
H1064 H 0.42138 0.12871 0.96524 0.0
S1065 S 0.32895 0.07268 0.05221 0.0
N1066 N 0.3491 0.06134 0.05499 0.0
N1067 N 0.34312 0.09817 0.02414 0.0
C1068 C 0.36558 0.09849 0.01609 0.0
C1069 C 0.36886 0.07851 0.0327 0.0
C1070 C 0.92898 0.29814 0.02265 0.0
C1071 C 0.91877 0.31465 0.01857 0.0
C1072 C 0.91483 0.27243 0.00861 0.0
C1073 C 0.88998 0.26228 0.98992 0.0
H1074 H 0.94875 0.30559 0.03473 0.0
H1075 H 0.92435 0.26114 0.00955 0.0
S1076 S 0.85292 0.29597 0.97547 0.0
N1077 N 0.88077 0.31775 -0.00221 0.0
N1078 N 0.85467 0.26957 0.97077 0.0
C1079 C 0.8786 0.27771 0.98822 0.0
C1080 C 0.89285 0.30386 0.0028 0.0
C1081 C 0.7112 0.63335 0.98729 0.0
C1082 C 0.6909 0.60712 0.99169 0.0
C1083 C 0.73594 0.63987 0.97399 0.0
C1084 C 0.74148 0.62048 0.96482 0.0
H1085 H 0.70764 0.649 0.99249 0.0
H1086 H 0.75048 0.66022 0.96919 0.0
S1087 S 0.6963 0.54906 0.9747 0.0
N1088 N 0.67901 0.56172 0.98883 0.0
N1089 N 0.72533 0.57408 0.96326 0.0
C1090 C 0.72203 0.5943 0.97124 0.0
C1091 C 0.69679 0.58761 0.98478 0.0
C1092 C 0.95128 0.6566 -0.00309 0.0
C1093 C 0.95287 0.63429 0.00368 0.0
C1094 C 0.92852 0.65451 0.9796 0.0
C1095 C 0.9064 0.63004 0.9695 0.0
H1096 H 0.9684 0.67591 0.00229 0.0
H1097 H 0.92883 0.67217 0.97188 0.0
S1098 S 0.89906 0.56564 0.98571 0.0
N1099 N 0.92928 0.58686 0.00227 0.0
N1100 N 0.88642 0.58309 0.97041 0.0
C1101 C 0.9069 0.60757 0.97893 0.0
C1102 C 0.93017 0.60965 -0.00408 0.0
C1103 C 0.33835 0.28519 -0.00434 0.0
C1104 C 0.36179 0.30841 0.00711 0.0
C1105 C 0.33899 0.26352 0.9824 0.0
C1106 C 0.36298 0.264 0.98105 0.0
H1107 H 0.31957 0.2843 0.99452 0.0
H1108 H 0.32085 0.24685 0.97099 0.0
S1109 S 0.42933 0.31864 0.01233 0.0
N1110 N 0.4093 0.32954 0.01953 0.0
N1111 N 0.41034 0.28869 -0.00479 0.0
C1112 C 0.38619 0.28628 -0.00482 0.0
C1113 C 0.38565 0.30851 0.00802 0.0
C1114 C 0.70498 0.09141 0.98937 0.0
C1115 C 0.69294 0.06402 0.98743 0.0
C1116 C 0.73143 0.1081 0.97977 0.0
C1117 C 0.74677 0.09801 0.96811 0.0
H1118 H 0.69357 0.1001 -0.00347 0.0
H1119 H 0.73931 0.12892 0.9789 0.0
S1120 S 0.72638 0.02837 0.96289 0.0
N1121 N 0.69976 0.0279 0.97672 0.0
N1122 N 0.74934 0.05947 0.95841 0.0
C1123 C 0.73577 0.07091 0.9687 0.0
C1124 C 0.70889 0.05386 0.97848 0.0
C1125 C 0.65209 0.92755 0.97951 0.0
C1126 C 0.63157 0.93058 0.99252 0.0
C1127 C 0.65824 0.91013 -0.00304 0.0
C1128 C 0.64405 0.89511 0.02794 0.0
H1129 H 0.66465 0.93989 0.95733 0.0
H1130 H 0.67552 0.90999 0.98812 0.0
S1131 S 0.58555 0.892 0.06845 0.0
N1132 N 0.59468 0.91408 0.03494 0.0
N1133 N 0.60651 0.88167 0.06761 0.0
C1134 C 0.62204 0.89616 0.03891 0.0
C1135 C 0.61573 0.91381 0.02124 0.0
C1136 C 0.1109 0.72376 -0.00098 0.0
C1137 C 0.08313 0.70871 0.99446 0.0
C1138 C 0.12367 0.74915 0.01366 0.0
C1139 C 0.10923 0.76067 0.02393 0.0
H1140 H 0.12284 0.71524 0.99427 0.0
H1141 H 0.14474 0.75877 0.02017 0.0
S1142 S 0.03706 0.73237 0.0074 0.0
N1143 N 0.04215 0.70908 0.99405 0.0
N1144 N 0.06639 0.75719 0.02117 0.0
C1145 C 0.08189 0.74712 0.01496 0.0
C1146 C 0.06877 0.72106 0.00027 0.0
C1147 C 0.29757 0.40254 0.02249 0.0
C1148 C 0.30714 0.38608 0.01351 0.0
C1149 C 0.27157 0.39235 0.03438 0.0
C1150 C 0.2541 0.36535 0.03734 0.0
H1151 H 0.3107 0.42354 0.02268 0.0
H1152 H 0.26578 0.4057 0.04402 0.0
S1153 S 0.26745 0.31365 0.01158 0.0
N1154 N 0.2955 0.34117 0.00391 0.0
N1155 N 0.24692 0.32225 0.02662 0.0
C1156 C 0.26259 0.34867 0.02553 0.0
C1157 C 0.28901 0.35896 0.0135 0.0
C1158 C 0.72348 0.68702 0.33109 0.0
C1159 C 0.72317 0.70952 0.34131 0.0
C1160 C 0.74392 0.6832 0.34423 0.0
C1161 C 0.76484 0.70182 0.3678 0.0
H1162 H 0.70708 0.67153 0.31466 0.0
H1163 H 0.74236 0.6648 0.33804 0.0
S1164 S 0.77594 0.76601 0.39718 0.0
N1165 N 0.7476 0.75216 0.37239 0.0
N1166 N 0.78586 0.74491 0.39676 0.0
C1167 C 0.7659 0.72527 0.37557 0.0
C1168 C 0.74511 0.72914 0.36243 0.0
C1169 C 0.27634 0.02226 0.36482 0.0
C1170 C 0.29778 0.01868 0.35981 0.0
C1171 C 0.28055 0.04656 0.37603 0.0
C1172 C 0.3063 0.0682 0.38173 0.0
H1173 H 0.25615 0.00587 0.36229 0.0
H1174 H 0.26361 0.04809 0.38228 0.0
S1175 S 0.36909 0.0702 0.36815 0.0
N1176 N 0.34576 0.03968 0.35824 0.0
N1177 N 0.35342 0.08527 0.37901 0.0
C1178 C 0.32783 0.06541 0.3744 0.0
C1179 C 0.32364 0.04066 0.36345 0.0
C1180 C 0.98696 0.25704 0.36479 0.0
C1181 C 0.99817 0.28428 0.36629 0.0
C1182 C 0.96214 0.23991 0.37964 0.0
C1183 C 0.94751 0.24932 0.39657 0.0
H1184 H 0.99811 0.24884 0.35428 0.0
H1185 H 0.9554 0.21934 0.3806 0.0
S1186 S 0.96508 0.31821 0.40067 0.0
N1187 N 0.99051 0.31941 0.38069 0.0
N1188 N 0.94394 0.28706 0.40887 0.0
C1189 C 0.95718 0.27619 0.39492 0.0
C1190 C 0.98245 0.2937 0.37965 0.0
C1191 C 0.03112 0.41341 0.36177 0.0
C1192 C 0.056 0.4155 0.36293 0.0
C1193 C 0.02763 0.43264 0.34462 0.0
C1194 C 0.04899 0.45494 0.32887 0.0
H1195 H 0.01382 0.39601 0.37188 0.0
H1196 H 0.00783 0.42936 0.34176 0.0
S1197 S 0.11864 0.47147 0.32858 0.0
N1198 N 0.10279 0.44296 0.34978 0.0
N1199 N 0.09612 0.47915 0.31808 0.0
C1200 C 0.07426 0.45825 0.33231 0.0
C1201 C 0.0778 0.43852 0.34923 0.0
C1202 C 0.59861 0.63608 0.34499 0.0
C1203 C 0.58832 0.65245 0.33955 0.0
C1204 C 0.58435 0.60994 0.33268 0.0
C1205 C 0.5593 0.59919 0.3144 0.0
H1206 H 0.61844 0.64384 0.35704 0.0
H1207 H 0.59386 0.59865 0.33482 0.0
S1208 S 0.52213 0.63246 0.29638 0.0
N1209 N 0.55016 0.65491 0.31757 0.0
N1210 N 0.52388 0.60595 0.29376 0.0
C1211 C 0.54798 0.61464 0.31101 0.0
C1212 C 0.56233 0.64121 0.32385 0.0
C1213 C 0.39508 0.94255 0.35448 0.0
C1214 C 0.3842 0.95856 0.35474 0.0
C1215 C 0.41899 0.95054 0.33719 0.0
C1216 C 0.43316 0.97498 0.31971 0.0
H1217 H 0.38411 0.92282 0.36508 0.0
H1218 H 0.42503 0.93643 0.33458 0.0
S1219 S 0.41703 0.02695 0.32149 0.0
N1220 N 0.39206 1.00197 0.34238 0.0
N1221 N 0.4374 0.01713 0.31042 0.0
C1222 C 0.42426 0.99244 0.32398 0.0
C1223 C 0.39972 0.98423 0.34143 0.0
C1224 C 0.61034 0.95096 0.32766 0.0
C1225 C 0.63353 0.97388 0.34044 0.0
C1226 C 0.58816 0.95154 0.31387 0.0
C1227 C 0.58854 0.9751 0.31201 0.0
H1228 H 0.60977 0.93265 0.32652 0.0
H1229 H 0.57144 0.93384 0.30174 0.0
S1230 S 0.64312 0.04003 0.34506 0.0
N1231 N 0.65443 0.0204 0.35362 0.0
N1232 N 0.6129 0.02143 0.32639 0.0
C1233 C 0.6108 0.9978 0.32691 0.0
C1234 C 0.63327 0.99719 0.34157 0.0
C1235 C 0.05822 0.65352 0.32258 0.0
C1236 C 0.03351 0.65087 0.32857 0.0
C1237 C 0.06003 0.63227 0.31054 0.0
C1238 C 0.03722 0.60757 0.30385 0.0
H1239 H 0.07631 0.6724 0.32584 0.0
H1240 H 0.07931 0.63558 0.30402 0.0
S1241 S 0.96795 0.58952 0.31721 0.0
N1242 N 0.98574 0.62077 0.32904 0.0
N1243 N 0.98939 0.58121 0.30549 0.0
C1244 C 0.01255 0.60425 0.31135 0.0
C1245 C 0.01063 0.62578 0.32404 0.0
C1246 C 0.3808 0.39098 0.31884 0.0
C1247 C 0.36615 0.40193 0.33071 0.0
C1248 C 0.40708 0.40682 0.30819 0.0
C1249 C 0.41978 0.43416 0.30938 0.0
H1250 H 0.37148 0.37005 0.31541 0.0
H1251 H 0.41695 0.39764 0.29638 0.0
S1252 S 0.39209 0.47271 0.34418 0.0
N1253 N 0.36774 0.44204 0.34777 0.0
N1254 N 0.41717 0.4716 0.32727 0.0
C1255 C 0.40635 0.44539 0.32437 0.0
C1256 C 0.3795 0.42932 0.33513 0.0
C1257 C 0.26151 0.23416 0.37619 0.0
C1258 C 0.27704 0.25367 0.3501 0.0
C1259 C 0.26877 0.21661 0.38963 0.0
C1260 C 0.2915 0.21754 0.37692 0.0
H1261 H 0.24464 0.23353 0.38839 0.0
H1262 H 0.25756 0.20337 0.41199 0.0
S1263 S 0.33676 0.26225 0.30492 0.0
N1264 N 0.31464 0.27092 0.30911 0.0
N1265 N 0.32803 0.23773 0.33422 0.0
C1266 C 0.30589 0.23541 0.34855 0.0
C1267 C 0.29875 0.25355 0.33521 0.0
C1268 C 0.7916 0.05269 0.34422 0.0
C1269 C 0.76412 0.03955 0.33631 0.0
C1270 C 0.80526 0.07797 0.35934 0.0
C1271 C 0.79203 0.09121 0.36686 0.0
H1272 H 0.80238 0.04275 0.3416 0.0
H1273 H 0.82578 0.08612 0.36845 0.0
S1274 S 0.72191 0.06836 0.34152 0.0
N1275 N 0.72528 0.04365 0.33003 0.0
N1276 N 0.75129 0.09151 0.3582 0.0
C1277 C 0.76537 0.07963 0.35462 0.0
C1278 C 0.75133 0.05372 0.33937 0.0
C1279 C 0.95691 0.69193 0.34498 0.0
C1280 C 0.97082 0.71898 0.33862 0.0
C1281 C 0.93084 0.67882 0.35713 0.0
C1282 C 0.91751 0.69215 0.36316 0.0
H1283 H 0.9666 0.68092 0.34245 0.0
H1284 H 0.92146 0.6583 0.36378 0.0
S1285 S 0.94336 0.76214 0.34596 0.0
N1286 N 0.96799 0.75808 0.33546 0.0
N1287 N 0.91898 0.73319 0.35867 0.0
C1288 C 0.93028 0.71868 0.35424 0.0
C1289 C 0.95694 0.73216 0.34191 0.0
C1290 C 0.38925 0.02008 0.67194 0.0
C1291 C 0.38828 0.04248 0.68053 0.0
C1292 C 0.41072 0.01771 0.68454 0.0
C1293 C 0.43203 0.03768 0.70602 0.0
H1294 H 0.37268 1.00362 0.65721 0.0
H1295 H 0.40975 0.99943 0.67965 0.0
S1296 S 0.44142 0.10192 0.73082 0.0
N1297 N 0.41235 0.08631 0.70792 0.0
N1298 N 0.45245 0.0817 0.73142 0.0
C1299 C 0.4323 0.06091 0.71219 0.0
C1300 C 0.4105 0.06335 0.69952 0.0
C1301 C 0.94376 0.35354 0.71056 0.0
C1302 C 0.96556 0.35237 0.69852 0.0
C1303 C 0.9465 0.3774 0.72063 0.0
C1304 C 0.97096 0.40092 0.7182 0.0
H1305 H 0.9249 0.33581 0.71479 0.0
H1306 H 0.92987 0.3773 0.73273 0.0
S1307 S 0.03307 0.40897 0.68333 0.0
N1308 N 0.01169 0.37721 0.6809 0.0
N1309 N 0.01662 0.422 0.69959 0.0
C1310 C 0.99227 0.40028 0.70327 0.0
C1311 C 0.98964 0.376 0.69349 0.0
C1312 C 0.64205 0.62288 0.71686 0.0
C1313 C 0.6472 0.61514 0.68251 0.0
C1314 C 0.61746 0.60795 0.73339 0.0
C1315 C 0.59664 0.58496 0.71574 0.0
H1316 H 0.65782 0.63933 0.73279 0.0
H1317 H 0.61572 0.61359 0.76164 0.0
S1318 S 0.59855 0.5603 0.62051 0.0
N1319 N 0.62886 0.58548 0.62847 0.0
N1320 N 0.58176 0.55835 0.65808 0.0
C1321 C 0.6008 0.57876 0.67921 0.0
C1322 C 0.62625 0.59359 0.66296 0.0
C1323 C 0.69832 0.74296 0.6856 0.0
C1324 C 0.72113 0.74172 0.67997 0.0
C1325 C 0.69583 0.76334 0.6706 0.0
C1326 C 0.71628 0.78352 0.65024 0.0
H1327 H 0.68152 0.72726 0.69962 0.0
H1328 H 0.67724 0.76257 0.67314 0.0
S1329 S 0.78119 0.79137 0.63127 0.0
N1330 N 0.7655 0.76397 0.65524 0.0
N1331 N 0.76072 0.80229 0.62754 0.0
C1332 C 0.73984 0.78356 0.64663 0.0
C1333 C 0.74231 0.76268 0.66144 0.0
C1334 C 0.22787 0.96999 0.66715 0.0
C1335 C 0.25438 0.98145 0.68084 0.0
C1336 C 0.21379 0.94442 0.65226 0.0
C1337 C 0.22556 0.92932 0.65119 0.0
H1338 H 0.2185 0.98141 0.66544 0.0
H1339 H 0.1943 0.9371 0.6392 0.0
S1340 S 0.29269 0.94837 0.68823 0.0
N1341 N 0.29055 0.97429 0.69603 0.0
N1342 N 0.26397 0.92637 0.6682 0.0
C1343 C 0.25112 0.93968 0.66748 0.0
C1344 C 0.26555 0.9657 0.68233 0.0
C1345 C 0.07326 0.28618 0.70363 0.0
C1346 C 0.06229 0.30201 0.70596 0.0
C1347 C 0.09751 0.29516 0.68691 0.0
C1348 C 0.11215 0.32055 0.67231 0.0
H1349 H 0.06205 0.26586 0.71162 0.0
H1350 H 0.10327 0.28102 0.68213 0.0
S1351 S 0.09642 0.37244 0.68324 0.0
N1352 N 0.07064 0.34608 0.70025 0.0
N1353 N 0.11707 0.3634 0.67031 0.0
C1354 C 0.10334 0.33779 0.67978 0.0
C1355 C 0.07823 0.32844 0.69625 0.0
C1356 C 0.30359 0.33304 0.67184 0.0
C1357 C 0.30219 0.30906 0.67662 0.0
C1358 C 0.28175 0.33396 0.65714 0.0
C1359 C 0.25765 0.31093 0.64776 0.0
H1360 H 0.3222 0.35125 0.67674 0.0
H1361 H 0.28422 0.35276 0.6507 0.0
S1362 S 0.24261 0.2433 0.66005 0.0
N1363 N 0.27393 0.26177 0.67451 0.0
N1364 N 0.23282 0.26363 0.64757 0.0
C1365 C 0.25533 0.2869 0.65546 0.0
C1366 C 0.27765 0.28592 0.66973 0.0
C1367 C 0.72288 0.98005 0.66409 0.0
C1368 C 0.69886 0.9792 0.6683 0.0
C1369 C 0.72325 0.95805 0.65178 0.0
C1370 C 0.69963 0.93444 0.6427 0.0
H1371 H 0.7416 0.99815 0.669 0.0
H1372 H 0.74218 0.96008 0.64665 0.0
S1373 S 0.6315 0.92126 0.65078 0.0
N1374 N 0.65073 0.95198 0.66473 0.0
N1375 N 0.65165 0.91104 0.64034 0.0
C1376 C 0.6755 0.9329 0.64847 0.0
C1377 C 0.67506 0.95515 0.66164 0.0
C1378 C 0.02889 0.75559 0.65191 0.0
C1379 C 0.01949 0.72864 0.65369 0.0
C1380 C 0.05503 0.77376 0.64231 0.0
C1381 C 0.07284 0.76574 0.63464 0.0
H1382 H 0.0156 0.76264 0.6559 0.0
H1383 H 0.06081 0.79395 0.63841 0.0
S1384 S 0.05979 0.69844 0.63979 0.0
N1385 N 0.0314 0.69549 0.65049 0.0
N1386 N 0.08039 0.7298 0.6323 0.0
C1387 C 0.06445 0.73931 0.63886 0.0
C1388 C 0.03784 0.72073 0.64849 0.0
C1389 C 0.96076 0.58101 0.66142 0.0
C1390 C 0.93698 0.57864 0.6727 0.0
C1391 C 0.96928 0.5647 0.67622 0.0
C1392 C 0.95443 0.5456 0.70299 0.0
H1393 H 0.97359 0.59648 0.64259 0.0
H1394 H 0.98865 0.56853 0.66909 0.0
S1395 S 0.88975 0.52957 0.73931 0.0
N1396 N 0.8976 0.55383 0.70986 0.0
N1397 N 0.91409 0.52376 0.73802 0.0
C1398 C 0.92982 0.54176 0.71244 0.0
C1399 C 0.92097 0.55813 0.69718 0.0
C1400 C 0.46108 0.37926 0.68502 0.0
C1401 C 0.43409 0.36794 0.67444 0.0
C1402 C 0.47537 0.40398 0.70225 0.0
C1403 C 0.46317 0.41822 0.70934 0.0
H1404 H 0.47072 0.36815 0.68299 0.0
H1405 H 0.49529 0.41085 0.71325 0.0
S1406 S 0.39535 0.40056 0.67821 0.0
N1407 N 0.39746 0.37532 0.66539 0.0
N1408 N 0.42442 0.4217 0.69826 0.0
C1409 C 0.43733 0.40862 0.69475 0.0
C1410 C 0.42275 0.38349 0.6771 0.0
C1411 C 0.63017 0.06773 0.68344 0.0
C1412 C 0.64114 0.05231 0.6755 0.0
C1413 C 0.60413 0.05649 0.69574 0.0
C1414 C 0.58807 0.02943 0.70034 0.0
H1415 H 0.6422 0.08879 0.68216 0.0
H1416 H 0.59714 0.06915 0.704 0.0
S1417 S 0.60533 0.97994 0.6782 0.0
N1418 N 0.63228 0.00808 0.66896 0.0
N1419 N 0.58365 0.98723 0.69257 0.0
C1420 C 0.59798 0.01366 0.68999 0.0
C1421 C 0.62441 0.02501 0.6774 0.0
loop_
_geom_bond_atom_site_label_1
_geom_bond_atom_site_label_2
_geom_bond_distance
_geom_bond_site_symmetry_2
_ccdc_geom_bond_type
Zn0 O3 2.031 1_554 S
Zn0 O5 2.049 . S
Zn0 O10 2.067 1_554 S
Zn1 O2 1.962 1_455 S
Zn1 O4 1.986 . S
Zn1 O6 1.996 1_455 S
Zn1 O9 1.943 1_554 S
O2 Zn1 1.962 1_655 S
O2 C7 1.254 1_554 S
O3 Zn0 2.031 1_556 S
O3 C7 1.269 . S
O4 Zn1 1.986 . S
O4 C11 1.262 . S
O5 Zn0 2.049 . S
O5 C13 1.260 . S
O6 Zn1 1.996 1_655 S
O6 C13 1.257 . S
C7 O2 1.254 1_556 S
C7 O3 1.269 . S
C8 O9 1.249 . S
C8 O10 1.270 1_455 S
O9 Zn1 1.943 1_556 S
O9 C8 1.249 . S
O10 Zn0 2.067 1_556 S
O10 C8 1.270 1_655 S
C11 O4 1.262 . S
C11 O12 1.232 . S
O12 C11 1.232 . S
C13 O5 1.260 . S
C13 O6 1.257 . S
Zn14 O17 2.031 1_554 S
Zn14 O19 2.049 . S
Zn14 O24 2.067 1_554 S
Zn15 O16 1.962 . S
Zn15 O18 1.986 . S
Zn15 O20 1.996 . S
Zn15 O23 1.943 1_554 S
O16 Zn15 1.962 . S
O16 C21 1.254 1_554 S
O17 Zn14 2.031 1_556 S
O17 C21 1.269 . S
O18 Zn15 1.986 . S
O18 C25 1.262 . S
O19 Zn14 2.049 . S
O19 C27 1.260 . S
O20 Zn15 1.996 . S
O20 C27 1.257 . S
C21 O16 1.254 1_556 S
C21 O17 1.269 . S
C22 O23 1.249 . S
C22 O24 1.270 . S
O23 Zn15 1.943 1_556 S
O23 C22 1.249 . S
O24 Zn14 2.067 1_556 S
O24 C22 1.270 . S
C25 O18 1.262 . S
C25 O26 1.232 . S
O26 C25 1.232 . S
C27 O19 1.260 . S
C27 O20 1.257 . S
Zn28 O31 2.031 . S
Zn28 O33 2.049 1_554 S
Zn28 O38 2.067 . S
Zn29 O30 1.962 1_545 S
Zn29 O32 1.986 1_554 S
Zn29 O34 1.996 1_544 S
Zn29 O37 1.943 . S
O30 Zn29 1.962 1_565 S
O30 C35 1.254 . S
O31 Zn28 2.031 . S
O31 C35 1.269 . S
O32 Zn29 1.986 1_556 S
O32 C39 1.262 . S
O33 Zn28 2.049 1_556 S
O33 C41 1.260 . S
O34 Zn29 1.996 1_566 S
O34 C41 1.257 . S
C35 O30 1.254 . S
C35 O31 1.269 . S
C36 O37 1.249 . S
C36 O38 1.270 1_545 S
O37 Zn29 1.943 . S
O37 C36 1.249 . S
O38 Zn28 2.067 . S
O38 C36 1.270 1_565 S
C39 O32 1.262 . S
C39 O40 1.232 1_556 S
O40 C39 1.232 1_554 S
C41 O33 1.260 . S
C41 O34 1.257 . S
Zn42 O45 2.031 . S
Zn42 O47 2.049 1_554 S
Zn42 O52 2.067 . S
Zn43 O44 1.962 1_655 S
Zn43 O46 1.986 1_554 S
Zn43 O48 1.996 1_654 S
Zn43 O51 1.943 . S
O44 Zn43 1.962 1_455 S
O44 C49 1.254 . S
O45 Zn42 2.031 . S
O45 C49 1.269 . S
O46 Zn43 1.986 1_556 S
O46 C53 1.262 . S
O47 Zn42 2.049 1_556 S
O47 C55 1.260 . S
O48 Zn43 1.996 1_456 S
O48 C55 1.257 . S
C49 O44 1.254 . S
C49 O45 1.269 . S
C50 O51 1.249 . S
C50 O52 1.270 1_655 S
O51 Zn43 1.943 . S
O51 C50 1.249 . S
O52 Zn42 2.067 . S
O52 C50 1.270 1_455 S
C53 O46 1.262 . S
C53 O54 1.232 1_556 S
O54 C53 1.232 1_554 S
C55 O47 1.260 . S
C55 O48 1.257 . S
Zn56 O59 2.031 . S
Zn56 O61 2.049 1_554 S
Zn56 O66 2.067 . S
Zn57 O58 1.962 . S
Zn57 O60 1.986 1_554 S
Zn57 O62 1.996 1_554 S
Zn57 O65 1.943 . S
O58 Zn57 1.962 . S
O58 C63 1.254 . S
O59 Zn56 2.031 . S
O59 C63 1.269 . S
O60 Zn57 1.986 1_556 S
O60 C67 1.262 . S
O61 Zn56 2.049 1_556 S
O61 C69 1.260 . S
O62 Zn57 1.996 1_556 S
O62 C69 1.257 . S
C63 O58 1.254 . S
C63 O59 1.269 . S
C64 O65 1.249 . S
C64 O66 1.270 . S
O65 Zn57 1.943 . S
O65 C64 1.249 . S
O66 Zn56 2.067 . S
O66 C64 1.270 . S
C67 O60 1.262 . S
C67 O68 1.232 1_556 S
O68 C67 1.232 1_554 S
C69 O61 1.260 . S
C69 O62 1.257 . S
Zn70 O73 2.031 1_554 S
Zn70 O75 2.049 . S
Zn70 O80 2.067 1_554 S
Zn71 O72 1.962 1_565 S
Zn71 O74 1.986 . S
Zn71 O76 1.996 1_565 S
Zn71 O79 1.943 1_554 S
O72 Zn71 1.962 1_545 S
O72 C77 1.254 1_554 S
O73 Zn70 2.031 1_556 S
O73 C77 1.269 . S
O74 Zn71 1.986 . S
O74 C81 1.262 . S
O75 Zn70 2.049 . S
O75 C83 1.260 . S
O76 Zn71 1.996 1_545 S
O76 C83 1.257 . S
C77 O72 1.254 1_556 S
C77 O73 1.269 . S
C78 O79 1.249 . S
C78 O80 1.270 1_565 S
O79 Zn71 1.943 1_556 S
O79 C78 1.249 . S
O80 Zn70 2.067 1_556 S
O80 C78 1.270 1_545 S
C81 O74 1.262 . S
C81 O82 1.232 . S
O82 C81 1.232 . S
C83 O75 1.260 . S
C83 O76 1.257 . S
Zn84 O87 2.031 . S
Zn84 O89 2.049 . S
Zn84 O94 2.067 . S
Zn85 O86 1.962 . S
Zn85 O88 1.986 . S
Zn85 O90 1.996 . S
Zn85 O93 1.943 . S
O86 Zn85 1.962 . S
O86 C91 1.254 . S
O87 Zn84 2.031 . S
O87 C91 1.269 . S
O88 Zn85 1.986 . S
O88 C95 1.262 . S
O89 Zn84 2.049 . S
O89 C97 1.260 . S
O90 Zn85 1.996 . S
O90 C97 1.257 . S
C91 O86 1.254 . S
C91 O87 1.269 . S
C92 O93 1.249 . S
C92 O94 1.270 . S
O93 Zn85 1.943 . S
O93 C92 1.249 . S
O94 Zn84 2.067 . S
O94 C92 1.270 . S
C95 O88 1.262 . S
C95 O96 1.232 . S
O96 C95 1.232 . S
C97 O89 1.260 . S
C97 O90 1.257 . S
Zn98 O101 2.031 . S
Zn98 O103 2.049 . S
Zn98 O108 2.067 . S
Zn99 O100 1.962 . S
Zn99 O102 1.986 1_565 S
Zn99 O104 1.996 . S
Zn99 O107 1.943 . S
O100 Zn99 1.962 . S
O100 C105 1.254 . S
O101 Zn98 2.031 . S
O101 C105 1.269 . S
O102 Zn99 1.986 1_545 S
O102 C109 1.262 . S
O103 Zn98 2.049 . S
O103 C111 1.260 . S
O104 Zn99 1.996 . S
O104 C111 1.257 . S
C105 O100 1.254 . S
C105 O101 1.269 . S
C106 O107 1.249 . S
C106 O108 1.270 . S
O107 Zn99 1.943 . S
O107 C106 1.249 . S
O108 Zn98 2.067 . S
O108 C106 1.270 . S
C109 O102 1.262 . S
C109 O110 1.232 . S
O110 C109 1.232 . S
C111 O103 1.260 . S
C111 O104 1.257 . S
Zn112 O115 2.031 1_455 S
Zn112 O117 2.049 . S
Zn112 O122 2.067 . S
Zn113 O114 1.962 1_455 S
Zn113 O116 1.986 . S
Zn113 O118 1.996 . S
Zn113 O121 1.943 . S
O114 Zn113 1.962 1_655 S
O114 C119 1.254 . S
O115 Zn112 2.031 1_655 S
O115 C119 1.269 . S
O116 Zn113 1.986 . S
O116 C123 1.262 . S
O117 Zn112 2.049 . S
O117 C125 1.260 . S
O118 Zn113 1.996 . S
O118 C125 1.257 . S
C119 O114 1.254 . S
C119 O115 1.269 . S
C120 O121 1.249 . S
C120 O122 1.270 . S
O121 Zn113 1.943 . S
O121 C120 1.249 . S
O122 Zn112 2.067 . S
O122 C120 1.270 . S
C123 O116 1.262 . S
C123 O124 1.232 . S
O124 C123 1.232 . S
C125 O117 1.260 . S
C125 O118 1.257 . S
Zn126 O129 2.031 1_565 S
Zn126 O131 2.049 . S
Zn126 O136 2.067 . S
Zn127 O128 1.962 1_565 S
Zn127 O130 1.986 . S
Zn127 O132 1.996 . S
Zn127 O135 1.943 . S
O128 Zn127 1.962 1_545 S
O128 C133 1.254 . S
O129 Zn126 2.031 1_545 S
O129 C133 1.269 . S
O130 Zn127 1.986 . S
O130 C137 1.262 . S
O131 Zn126 2.049 . S
O131 C139 1.260 . S
O132 Zn127 1.996 . S
O132 C139 1.257 . S
C133 O128 1.254 . S
C133 O129 1.269 . S
C134 O135 1.249 . S
C134 O136 1.270 . S
O135 Zn127 1.943 . S
O135 C134 1.249 . S
O136 Zn126 2.067 . S
O136 C134 1.270 . S
C137 O130 1.262 . S
C137 O138 1.232 . S
O138 C137 1.232 . S
C139 O131 1.260 . S
C139 O132 1.257 . S
Zn140 O143 2.031 1_455 S
Zn140 O145 2.049 . S
Zn140 O150 2.067 . S
Zn141 O142 1.962 1_455 S
Zn141 O144 1.986 . S
Zn141 O146 1.996 . S
Zn141 O149 1.943 . S
O142 Zn141 1.962 1_655 S
O142 C147 1.254 . S
O143 Zn140 2.031 1_655 S
O143 C147 1.269 . S
O144 Zn141 1.986 . S
O144 C151 1.262 . S
O145 Zn140 2.049 . S
O145 C153 1.260 . S
O146 Zn141 1.996 . S
O146 C153 1.257 . S
C147 O142 1.254 . S
C147 O143 1.269 . S
C148 O149 1.249 . S
C148 O150 1.270 . S
O149 Zn141 1.943 . S
O149 C148 1.249 . S
O150 Zn140 2.067 . S
O150 C148 1.270 . S
C151 O144 1.262 . S
C151 O152 1.232 . S
O152 C151 1.232 . S
C153 O145 1.260 . S
C153 O146 1.257 . S
Zn154 O157 2.031 . S
Zn154 O159 2.049 . S
Zn154 O164 2.067 . S
Zn155 O156 1.962 . S
Zn155 O158 1.986 . S
Zn155 O160 1.996 . S
Zn155 O163 1.943 . S
O156 Zn155 1.962 . S
O156 C161 1.254 . S
O157 Zn154 2.031 . S
O157 C161 1.269 . S
O158 Zn155 1.986 . S
O158 C165 1.262 . S
O159 Zn154 2.049 . S
O159 C167 1.260 . S
O160 Zn155 1.996 . S
O160 C167 1.257 . S
C161 O156 1.254 . S
C161 O157 1.269 . S
C162 O163 1.249 . S
C162 O164 1.270 . S
O163 Zn155 1.943 . S
O163 C162 1.249 . S
O164 Zn154 2.067 . S
O164 C162 1.270 . S
C165 O158 1.262 . S
C165 O166 1.232 . S
O166 C165 1.232 . S
C167 O159 1.260 . S
C167 O160 1.257 . S
Zn168 O171 2.031 1_545 S
Zn168 O173 2.049 . S
Zn168 O178 2.067 . S
Zn169 O170 1.962 1_545 S
Zn169 O172 1.986 . S
Zn169 O174 1.996 . S
Zn169 O177 1.943 . S
O170 Zn169 1.962 1_565 S
O170 C175 1.254 . S
O171 Zn168 2.031 1_565 S
O171 C175 1.269 . S
O172 Zn169 1.986 . S
O172 C179 1.262 . S
O173 Zn168 2.049 . S
O173 C181 1.260 . S
O174 Zn169 1.996 . S
O174 C181 1.257 . S
C175 O170 1.254 . S
C175 O171 1.269 . S
C176 O177 1.249 . S
C176 O178 1.270 . S
O177 Zn169 1.943 . S
O177 C176 1.249 . S
O178 Zn168 2.067 . S
O178 C176 1.270 . S
C179 O172 1.262 . S
C179 O180 1.232 . S
O180 C179 1.232 . S
C181 O173 1.260 . S
C181 O174 1.257 . S
Zn182 O185 2.031 1_655 S
Zn182 O187 2.049 . S
Zn182 O192 2.067 . S
Zn183 O184 1.962 1_655 S
Zn183 O186 1.986 . S
Zn183 O188 1.996 . S
Zn183 O191 1.943 . S
O184 Zn183 1.962 1_455 S
O184 C189 1.254 . S
O185 Zn182 2.031 1_455 S
O185 C189 1.269 . S
O186 Zn183 1.986 . S
O186 C193 1.262 . S
O187 Zn182 2.049 . S
O187 C195 1.260 . S
O188 Zn183 1.996 . S
O188 C195 1.257 . S
C189 O184 1.254 . S
C189 O185 1.269 . S
C190 O191 1.249 . S
C190 O192 1.270 . S
O191 Zn183 1.943 . S
O191 C190 1.249 . S
O192 Zn182 2.067 . S
O192 C190 1.270 . S
C193 O186 1.262 . S
C193 O194 1.232 . S
O194 C193 1.232 . S
C195 O187 1.260 . S
C195 O188 1.257 . S
Zn196 O199 2.031 . S
Zn196 O201 2.049 . S
Zn196 O206 2.067 . S
Zn197 O198 1.962 . S
Zn197 O200 1.986 . S
Zn197 O202 1.996 . S
Zn197 O205 1.943 . S
O198 Zn197 1.962 . S
O198 C203 1.254 . S
O199 Zn196 2.031 . S
O199 C203 1.269 . S
O200 Zn197 1.986 . S
O200 C207 1.262 . S
O201 Zn196 2.049 . S
O201 C209 1.260 . S
O202 Zn197 1.996 . S
O202 C209 1.257 . S
C203 O198 1.254 . S
C203 O199 1.269 . S
C204 O205 1.249 . S
C204 O206 1.270 . S
O205 Zn197 1.943 . S
O205 C204 1.249 . S
O206 Zn196 2.067 . S
O206 C204 1.270 . S
C207 O200 1.262 . S
C207 O208 1.232 . S
O208 C207 1.232 . S
C209 O201 1.260 . S
C209 O202 1.257 . S
Zn210 O213 2.031 . S
Zn210 O215 2.049 . S
Zn210 O220 2.067 . S
Zn211 O212 1.962 . S
Zn211 O214 1.986 . S
Zn211 O216 1.996 . S
Zn211 O219 1.943 . S
O212 Zn211 1.962 . S
O212 C217 1.254 . S
O213 Zn210 2.031 . S
O213 C217 1.269 . S
O214 Zn211 1.986 . S
O214 C221 1.262 . S
O215 Zn210 2.049 . S
O215 C223 1.260 . S
O216 Zn211 1.996 . S
O216 C223 1.257 . S
C217 O212 1.254 . S
C217 O213 1.269 . S
C218 O219 1.249 . S
C218 O220 1.270 . S
O219 Zn211 1.943 . S
O219 C218 1.249 . S
O220 Zn210 2.067 . S
O220 C218 1.270 . S
C221 O214 1.262 . S
C221 O222 1.232 . S
O222 C221 1.232 . S
C223 O215 1.260 . S
C223 O216 1.257 . S
Zn224 O227 2.031 . S
Zn224 O229 2.049 . S
Zn224 O234 2.067 . S
Zn225 O226 1.962 . S
Zn225 O228 1.986 1_545 S
Zn225 O230 1.996 . S
Zn225 O233 1.943 . S
O226 Zn225 1.962 . S
O226 C231 1.254 . S
O227 Zn224 2.031 . S
O227 C231 1.269 . S
O228 Zn225 1.986 1_565 S
O228 C235 1.262 . S
O229 Zn224 2.049 . S
O229 C237 1.260 . S
O230 Zn225 1.996 . S
O230 C237 1.257 . S
C231 O226 1.254 . S
C231 O227 1.269 . S
C232 O233 1.249 . S
C232 O234 1.270 . S
O233 Zn225 1.943 . S
O233 C232 1.249 . S
O234 Zn224 2.067 . S
O234 C232 1.270 . S
C235 O228 1.262 . S
C235 O236 1.232 . S
O236 C235 1.232 . S
C237 O229 1.260 . S
C237 O230 1.257 . S
Zn238 O241 2.031 1_655 S
Zn238 O243 2.049 . S
Zn238 O248 2.067 . S
Zn239 O240 1.962 1_655 S
Zn239 O242 1.986 . S
Zn239 O244 1.996 . S
Zn239 O247 1.943 . S
O240 Zn239 1.962 1_455 S
O240 C245 1.254 . S
O241 Zn238 2.031 1_455 S
O241 C245 1.269 . S
O242 Zn239 1.986 . S
O242 C249 1.262 . S
O243 Zn238 2.049 . S
O243 C251 1.260 . S
O244 Zn239 1.996 . S
O244 C251 1.257 . S
C245 O240 1.254 . S
C245 O241 1.269 . S
C246 O247 1.249 . S
C246 O248 1.270 . S
O247 Zn239 1.943 . S
O247 C246 1.249 . S
O248 Zn238 2.067 . S
O248 C246 1.270 . S
C249 O242 1.262 . S
C249 O250 1.232 . S
O250 C249 1.232 . S
C251 O243 1.260 . S
C251 O244 1.257 . S
H252 C260 0.930 . S
H253 C263 0.930 . S
H254 C265 0.930 . S
H255 C266 0.970 . S
H256 C266 0.970 . S
H257 C268 0.930 . S
H258 C270 0.930 . S
H259 C272 0.930 . S
C260 H252 0.930 . S
C260 C261 1.382 . S
C260 C262 1.426 . S
C261 C260 1.382 . S
C261 C265 1.389 . S
C262 C260 1.426 . S
C262 C263 1.375 . S
C262 C266 1.532 . S
C263 H253 0.930 . S
C263 C262 1.375 . S
C263 C264 1.416 . S
C264 C263 1.416 . S
C264 C265 1.371 . S
C265 H254 0.930 . S
C265 C261 1.389 . S
C265 C264 1.371 . S
C266 H255 0.970 . S
C266 H256 0.970 . S
C266 C262 1.532 . S
C266 C267 1.499 . S
C267 C266 1.499 . S
C267 C268 1.370 . S
C267 C272 1.415 . S
C268 H257 0.930 . S
C268 C267 1.370 . S
C268 C269 1.407 . S
C269 C268 1.407 . S
C269 C270 1.365 . S
C270 H258 0.930 . S
C270 C269 1.365 . S
C270 C271 1.393 . S
C271 C270 1.393 . S
C271 C272 1.387 . S
C272 H259 0.930 . S
C272 C267 1.415 . S
C272 C271 1.387 . S
H273 C281 0.930 . S
H274 C284 0.930 . S
H275 C286 0.930 . S
H276 C287 0.970 . S
H277 C287 0.970 . S
H278 C289 0.930 . S
H279 C291 0.930 . S
H280 C293 0.930 . S
C281 H273 0.930 . S
C281 C282 1.382 . S
C281 C283 1.426 . S
C282 C281 1.382 . S
C282 C286 1.389 . S
C283 C281 1.426 . S
C283 C284 1.375 . S
C283 C287 1.532 . S
C284 H274 0.930 . S
C284 C283 1.375 . S
C284 C285 1.416 . S
C285 C284 1.416 . S
C285 C286 1.371 . S
C286 H275 0.930 . S
C286 C282 1.389 . S
C286 C285 1.371 . S
C287 H276 0.970 . S
C287 H277 0.970 . S
C287 C283 1.532 . S
C287 C288 1.499 . S
C288 C287 1.499 . S
C288 C289 1.370 . S
C288 C293 1.415 . S
C289 H278 0.930 . S
C289 C288 1.370 . S
C289 C290 1.407 . S
C290 C289 1.407 . S
C290 C291 1.365 . S
C291 H279 0.930 . S
C291 C290 1.365 . S
C291 C292 1.393 . S
C292 C291 1.393 . S
C292 C293 1.387 . S
C293 H280 0.930 . S
C293 C288 1.415 . S
C293 C292 1.387 . S
H294 C302 0.930 . S
H295 C305 0.930 . S
H296 C307 0.930 . S
H297 C308 0.970 . S
H298 C308 0.970 . S
H299 C310 0.930 . S
H300 C312 0.930 . S
H301 C314 0.930 . S
C302 H294 0.930 . S
C302 C303 1.382 . S
C302 C304 1.426 . S
C303 C302 1.382 . S
C303 C307 1.389 . S
C304 C302 1.426 . S
C304 C305 1.375 . S
C304 C308 1.532 . S
C305 H295 0.930 . S
C305 C304 1.375 . S
C305 C306 1.416 . S
C306 C305 1.416 . S
C306 C307 1.371 . S
C307 H296 0.930 . S
C307 C303 1.389 . S
C307 C306 1.371 . S
C308 H297 0.970 . S
C308 H298 0.970 . S
C308 C304 1.532 . S
C308 C309 1.499 . S
C309 C308 1.499 . S
C309 C310 1.370 . S
C309 C314 1.415 . S
C310 H299 0.930 . S
C310 C309 1.370 . S
C310 C311 1.407 . S
C311 C310 1.407 . S
C311 C312 1.365 . S
C312 H300 0.930 . S
C312 C311 1.365 . S
C312 C313 1.393 . S
C313 C312 1.393 . S
C313 C314 1.387 . S
C314 H301 0.930 . S
C314 C309 1.415 . S
C314 C313 1.387 . S
H315 C323 0.930 . S
H316 C326 0.930 . S
H317 C328 0.930 . S
H318 C329 0.970 . S
H319 C329 0.970 . S
H320 C331 0.930 . S
H321 C333 0.930 . S
H322 C335 0.930 . S
C323 H315 0.930 . S
C323 C324 1.382 . S
C323 C325 1.426 . S
C324 C323 1.382 . S
C324 C328 1.389 . S
C325 C323 1.426 . S
C325 C326 1.375 . S
C325 C329 1.532 . S
C326 H316 0.930 . S
C326 C325 1.375 . S
C326 C327 1.416 . S
C327 C326 1.416 . S
C327 C328 1.371 . S
C328 H317 0.930 . S
C328 C324 1.389 . S
C328 C327 1.371 . S
C329 H318 0.970 . S
C329 H319 0.970 . S
C329 C325 1.532 . S
C329 C330 1.499 . S
C330 C329 1.499 . S
C330 C331 1.370 . S
C330 C335 1.415 . S
C331 H320 0.930 . S
C331 C330 1.370 . S
C331 C332 1.407 . S
C332 C331 1.407 . S
C332 C333 1.365 . S
C333 H321 0.930 . S
C333 C332 1.365 . S
C333 C334 1.393 . S
C334 C333 1.393 . S
C334 C335 1.387 . S
C335 H322 0.930 . S
C335 C330 1.415 . S
C335 C334 1.387 . S
H336 C344 0.930 . S
H337 C347 0.930 . S
H338 C349 0.930 . S
H339 C350 0.970 . S
H340 C350 0.970 . S
H341 C352 0.930 . S
H342 C354 0.930 . S
H343 C356 0.930 . S
C344 H336 0.930 . S
C344 C345 1.382 . S
C344 C346 1.426 . S
C345 C344 1.382 . S
C345 C349 1.389 . S
C346 C344 1.426 . S
C346 C347 1.375 . S
C346 C350 1.532 . S
C347 H337 0.930 . S
C347 C346 1.375 . S
C347 C348 1.416 . S
C348 C347 1.416 . S
C348 C349 1.371 . S
C349 H338 0.930 . S
C349 C345 1.389 . S
C349 C348 1.371 . S
C350 H339 0.970 . S
C350 H340 0.970 . S
C350 C346 1.532 . S
C350 C351 1.499 . S
C351 C350 1.499 . S
C351 C352 1.370 . S
C351 C356 1.415 . S
C352 H341 0.930 . S
C352 C351 1.370 . S
C352 C353 1.407 . S
C353 C352 1.407 . S
C353 C354 1.365 . S
C354 H342 0.930 . S
C354 C353 1.365 . S
C354 C355 1.393 . S
C355 C354 1.393 . S
C355 C356 1.387 . S
C356 H343 0.930 . S
C356 C351 1.415 . S
C356 C355 1.387 . S
H357 C365 0.930 . S
H358 C368 0.930 . S
H359 C370 0.930 . S
H360 C371 0.970 . S
H361 C371 0.970 . S
H362 C373 0.930 . S
H363 C375 0.930 . S
H364 C377 0.930 . S
C365 H357 0.930 . S
C365 C366 1.382 . S
C365 C367 1.426 . S
C366 C365 1.382 . S
C366 C370 1.389 . S
C367 C365 1.426 . S
C367 C368 1.375 . S
C367 C371 1.532 . S
C368 H358 0.930 . S
C368 C367 1.375 . S
C368 C369 1.416 . S
C369 C368 1.416 . S
C369 C370 1.371 . S
C370 H359 0.930 . S
C370 C366 1.389 . S
C370 C369 1.371 . S
C371 H360 0.970 . S
C371 H361 0.970 . S
C371 C367 1.532 . S
C371 C372 1.499 . S
C372 C371 1.499 . S
C372 C373 1.370 . S
C372 C377 1.415 . S
C373 H362 0.930 . S
C373 C372 1.370 . S
C373 C374 1.407 . S
C374 C373 1.407 . S
C374 C375 1.365 . S
C375 H363 0.930 . S
C375 C374 1.365 . S
C375 C376 1.393 . S
C376 C375 1.393 . S
C376 C377 1.387 . S
C377 H364 0.930 . S
C377 C372 1.415 . S
C377 C376 1.387 . S
H378 C386 0.930 . S
H379 C389 0.930 . S
H380 C391 0.930 . S
H381 C392 0.970 . S
H382 C392 0.970 . S
H383 C394 0.930 . S
H384 C396 0.930 . S
H385 C398 0.930 . S
C386 H378 0.930 . S
C386 C387 1.382 . S
C386 C388 1.426 . S
C387 C386 1.382 . S
C387 C391 1.389 . S
C388 C386 1.426 . S
C388 C389 1.375 . S
C388 C392 1.532 . S
C389 H379 0.930 . S
C389 C388 1.375 . S
C389 C390 1.416 . S
C390 C389 1.416 . S
C390 C391 1.371 . S
C391 H380 0.930 . S
C391 C387 1.389 . S
C391 C390 1.371 . S
C392 H381 0.970 . S
C392 H382 0.970 . S
C392 C388 1.532 . S
C392 C393 1.499 . S
C393 C392 1.499 . S
C393 C394 1.370 . S
C393 C398 1.415 . S
C394 H383 0.930 . S
C394 C393 1.370 . S
C394 C395 1.407 . S
C395 C394 1.407 . S
C395 C396 1.365 . S
C396 H384 0.930 . S
C396 C395 1.365 . S
C396 C397 1.393 . S
C397 C396 1.393 . S
C397 C398 1.387 . S
C398 H385 0.930 . S
C398 C393 1.415 . S
C398 C397 1.387 . S
H399 C407 0.930 . S
H400 C410 0.930 . S
H401 C412 0.930 . S
H402 C413 0.970 . S
H403 C413 0.970 . S
H404 C415 0.930 . S
H405 C417 0.930 . S
H406 C419 0.930 . S
C407 H399 0.930 . S
C407 C408 1.382 . S
C407 C409 1.426 . S
C408 C407 1.382 . S
C408 C412 1.389 . S
C409 C407 1.426 . S
C409 C410 1.375 . S
C409 C413 1.532 . S
C410 H400 0.930 . S
C410 C409 1.375 . S
C410 C411 1.416 . S
C411 C410 1.416 . S
C411 C412 1.371 . S
C412 H401 0.930 . S
C412 C408 1.389 . S
C412 C411 1.371 . S
C413 H402 0.970 . S
C413 H403 0.970 . S
C413 C409 1.532 . S
C413 C414 1.499 . S
C414 C413 1.499 . S
C414 C415 1.370 . S
C414 C419 1.415 . S
C415 H404 0.930 . S
C415 C414 1.370 . S
C415 C416 1.407 . S
C416 C415 1.407 . S
C416 C417 1.365 . S
C417 H405 0.930 . S
C417 C416 1.365 . S
C417 C418 1.393 . S
C418 C417 1.393 . S
C418 C419 1.387 . S
C419 H406 0.930 . S
C419 C414 1.415 . S
C419 C418 1.387 . S
H420 C428 0.930 . S
H421 C431 0.930 . S
H422 C433 0.930 . S
H423 C434 0.970 . S
H424 C434 0.970 . S
H425 C436 0.930 . S
H426 C438 0.930 . S
H427 C440 0.930 . S
C428 H420 0.930 . S
C428 C429 1.382 . S
C428 C430 1.426 . S
C429 C428 1.382 . S
C429 C433 1.389 . S
C430 C428 1.426 . S
C430 C431 1.375 . S
C430 C434 1.532 . S
C431 H421 0.930 . S
C431 C430 1.375 . S
C431 C432 1.416 . S
C432 C431 1.416 . S
C432 C433 1.371 . S
C433 H422 0.930 . S
C433 C429 1.389 . S
C433 C432 1.371 . S
C434 H423 0.970 . S
C434 H424 0.970 . S
C434 C430 1.532 . S
C434 C435 1.499 . S
C435 C434 1.499 . S
C435 C436 1.370 . S
C435 C440 1.415 . S
C436 H425 0.930 . S
C436 C435 1.370 . S
C436 C437 1.407 . S
C437 C436 1.407 . S
C437 C438 1.365 . S
C438 H426 0.930 . S
C438 C437 1.365 . S
C438 C439 1.393 . S
C439 C438 1.393 . S
C439 C440 1.387 . S
C440 H427 0.930 . S
C440 C435 1.415 . S
C440 C439 1.387 . S
H441 C449 0.930 . S
H442 C452 0.930 . S
H443 C454 0.930 . S
H444 C455 0.970 . S
H445 C455 0.970 . S
H446 C457 0.930 . S
H447 C459 0.930 . S
H448 C461 0.930 . S
C449 H441 0.930 . S
C449 C450 1.382 . S
C449 C451 1.426 . S
C450 C449 1.382 . S
C450 C454 1.389 1_455 S
C451 C449 1.426 . S
C451 C452 1.375 . S
C451 C455 1.532 . S
C452 H442 0.930 . S
C452 C451 1.375 . S
C452 C453 1.416 . S
C453 C452 1.416 . S
C453 C454 1.371 1_455 S
C454 H443 0.930 . S
C454 C450 1.389 1_655 S
C454 C453 1.371 1_655 S
C455 H444 0.970 . S
C455 H445 0.970 . S
C455 C451 1.532 . S
C455 C456 1.499 . S
C456 C455 1.499 . S
C456 C457 1.370 . S
C456 C461 1.415 . S
C457 H446 0.930 . S
C457 C456 1.370 . S
C457 C458 1.409 . S
C458 C457 1.409 . S
C458 C459 1.369 1_455 S
C459 H447 0.930 . S
C459 C458 1.369 1_655 S
C459 C460 1.393 1_655 S
C460 C459 1.393 1_455 S
C460 C461 1.387 . S
C461 H448 0.930 . S
C461 C456 1.415 . S
C461 C460 1.387 . S
H462 C470 0.930 . S
H463 C473 0.930 . S
H464 C475 0.930 . S
H465 C476 0.970 . S
H466 C476 0.970 . S
H467 C478 0.930 . S
H468 C480 0.930 . S
H469 C482 0.930 . S
C470 H462 0.930 . S
C470 C471 1.382 . S
C470 C472 1.426 . S
C471 C470 1.382 . S
C471 C475 1.389 . S
C472 C470 1.426 . S
C472 C473 1.375 . S
C472 C476 1.532 . S
C473 H463 0.930 . S
C473 C472 1.375 . S
C473 C474 1.416 . S
C474 C473 1.416 . S
C474 C475 1.371 . S
C475 H464 0.930 . S
C475 C471 1.389 . S
C475 C474 1.371 . S
C476 H465 0.970 . S
C476 H466 0.970 . S
C476 C472 1.532 . S
C476 C477 1.499 . S
C477 C476 1.499 . S
C477 C478 1.370 . S
C477 C482 1.415 . S
C478 H467 0.930 . S
C478 C477 1.370 . S
C478 C479 1.407 . S
C479 C478 1.407 . S
C479 C480 1.365 . S
C480 H468 0.930 . S
C480 C479 1.365 . S
C480 C481 1.393 . S
C481 C480 1.393 . S
C481 C482 1.387 . S
C482 H469 0.930 . S
C482 C477 1.415 . S
C482 C481 1.387 . S
H483 C491 0.930 . S
H484 C494 0.930 . S
H485 C496 0.930 . S
H486 C497 0.970 . S
H487 C497 0.970 . S
H488 C499 0.930 . S
H489 C501 0.930 . S
H490 C503 0.930 . S
C491 H483 0.930 . S
C491 C492 1.382 . S
C491 C493 1.426 . S
C492 C491 1.382 . S
C492 C496 1.389 1_565 S
C493 C491 1.426 . S
C493 C494 1.375 . S
C493 C497 1.532 . S
C494 H484 0.930 . S
C494 C493 1.375 . S
C494 C495 1.416 . S
C495 C494 1.416 . S
C495 C496 1.371 1_565 S
C496 H485 0.930 . S
C496 C492 1.389 1_545 S
C496 C495 1.371 1_545 S
C497 H486 0.970 . S
C497 H487 0.970 . S
C497 C493 1.532 . S
C497 C498 1.499 . S
C498 C497 1.499 . S
C498 C499 1.370 . S
C498 C503 1.415 . S
C499 H488 0.930 . S
C499 C498 1.370 . S
C499 C500 1.402 . S
C500 C499 1.402 . S
C500 C501 1.366 1_565 S
C501 H489 0.930 . S
C501 C500 1.366 1_545 S
C501 C502 1.393 1_545 S
C502 C501 1.393 1_565 S
C502 C503 1.387 . S
C503 H490 0.930 . S
C503 C498 1.415 . S
C503 C502 1.387 . S
H504 C512 0.930 . S
H505 C515 0.930 . S
H506 C517 0.930 . S
H507 C518 0.970 . S
H508 C518 0.970 . S
H509 C520 0.930 . S
H510 C522 0.930 . S
H511 C524 0.930 . S
C512 H504 0.930 . S
C512 C513 1.382 . S
C512 C514 1.426 . S
C513 C512 1.382 . S
C513 C517 1.389 1_565 S
C514 C512 1.426 . S
C514 C515 1.375 . S
C514 C518 1.532 . S
C515 H505 0.930 . S
C515 C514 1.375 . S
C515 C516 1.462 . S
C516 C515 1.462 . S
C516 C517 1.354 1_565 S
C517 H506 0.930 . S
C517 C513 1.389 1_545 S
C517 C516 1.354 1_545 S
C518 H507 0.970 . S
C518 H508 0.970 . S
C518 C514 1.532 . S
C518 C519 1.499 . S
C519 C518 1.499 . S
C519 C520 1.370 . S
C519 C524 1.415 . S
C520 H509 0.930 . S
C520 C519 1.370 . S
C520 C521 1.407 . S
C521 C520 1.407 . S
C521 C522 1.365 1_565 S
C522 H510 0.930 . S
C522 C521 1.365 1_545 S
C522 C523 1.393 1_545 S
C523 C522 1.393 1_565 S
C523 C524 1.387 . S
C524 H511 0.930 . S
C524 C519 1.415 . S
C524 C523 1.387 . S
H525 C533 0.930 . S
H526 C536 0.930 . S
H527 C538 0.930 . S
H528 C539 0.970 . S
H529 C539 0.970 . S
H530 C541 0.930 . S
H531 C543 0.930 . S
H532 C545 0.930 . S
C533 H525 0.930 . S
C533 C534 1.382 . S
C533 C535 1.426 . S
C534 C533 1.382 . S
C534 C538 1.389 1_455 S
C535 C533 1.426 . S
C535 C536 1.375 . S
C535 C539 1.532 . S
C536 H526 0.930 . S
C536 C535 1.375 . S
C536 C537 1.416 . S
C537 C536 1.416 . S
C537 C538 1.371 1_455 S
C538 H527 0.930 . S
C538 C534 1.389 1_655 S
C538 C537 1.371 1_655 S
C539 H528 0.970 . S
C539 H529 0.970 . S
C539 C535 1.532 . S
C539 C540 1.499 . S
C540 C539 1.499 . S
C540 C541 1.370 . S
C540 C545 1.415 . S
C541 H530 0.930 . S
C541 C540 1.370 . S
C541 C542 1.407 . S
C542 C541 1.407 . S
C542 C543 1.365 1_455 S
C543 H531 0.930 . S
C543 C542 1.365 1_655 S
C543 C544 1.393 1_655 S
C544 C543 1.393 1_455 S
C544 C545 1.387 . S
C545 H532 0.930 . S
C545 C540 1.415 . S
C545 C544 1.387 . S
H546 C554 0.930 . S
H547 C557 0.930 . S
H548 C559 0.930 . S
H549 C560 0.970 . S
H550 C560 0.970 . S
H551 C562 0.930 . S
H552 C564 0.930 . S
H553 C566 0.930 . S
C554 H546 0.930 . S
C554 C555 1.382 . S
C554 C556 1.426 . S
C555 C554 1.382 . S
C555 C559 1.389 . S
C556 C554 1.426 . S
C556 C557 1.375 . S
C556 C560 1.532 . S
C557 H547 0.930 . S
C557 C556 1.375 . S
C557 C558 1.416 . S
C558 C557 1.416 . S
C558 C559 1.371 . S
C559 H548 0.930 . S
C559 C555 1.389 . S
C559 C558 1.371 . S
C560 H549 0.970 . S
C560 H550 0.970 . S
C560 C556 1.532 . S
C560 C561 1.499 . S
C561 C560 1.499 . S
C561 C562 1.370 . S
C561 C566 1.415 . S
C562 H551 0.930 . S
C562 C561 1.370 . S
C562 C563 1.407 . S
C563 C562 1.407 . S
C563 C564 1.365 . S
C564 H552 0.930 . S
C564 C563 1.365 . S
C564 C565 1.393 . S
C565 C564 1.393 . S
C565 C566 1.387 . S
C566 H553 0.930 . S
C566 C561 1.415 . S
C566 C565 1.387 . S
H567 C575 0.930 . S
H568 C578 0.930 . S
H569 C580 0.930 . S
H570 C581 0.970 . S
H571 C581 0.970 . S
H572 C583 0.930 . S
H573 C585 0.930 . S
H574 C587 0.930 . S
C575 H567 0.930 . S
C575 C576 1.382 . S
C575 C577 1.426 . S
C576 C575 1.382 . S
C576 C580 1.389 . S
C577 C575 1.426 . S
C577 C578 1.375 . S
C577 C581 1.532 . S
C578 H568 0.930 . S
C578 C577 1.375 . S
C578 C579 1.416 . S
C579 C578 1.416 . S
C579 C580 1.371 . S
C580 H569 0.930 . S
C580 C576 1.389 . S
C580 C579 1.371 . S
C581 H570 0.970 . S
C581 H571 0.970 . S
C581 C577 1.532 . S
C581 C582 1.499 . S
C582 C581 1.499 . S
C582 C583 1.370 . S
C582 C587 1.415 . S
C583 H572 0.930 . S
C583 C582 1.370 . S
C583 C584 1.407 . S
C584 C583 1.407 . S
C584 C585 1.365 . S
C585 H573 0.930 . S
C585 C584 1.365 . S
C585 C586 1.393 . S
C586 C585 1.393 . S
C586 C587 1.387 . S
C587 H574 0.930 . S
C587 C582 1.415 . S
C587 C586 1.387 . S
H588 C596 0.930 . S
H589 C599 0.930 . S
H590 C601 0.930 . S
H591 C602 0.970 . S
H592 C602 0.970 . S
H593 C604 0.930 . S
H594 C606 0.930 . S
H595 C608 0.930 . S
C596 H588 0.930 . S
C596 C597 1.382 . S
C596 C598 1.426 . S
C597 C596 1.382 . S
C597 C601 1.389 . S
C598 C596 1.426 . S
C598 C599 1.375 . S
C598 C602 1.532 . S
C599 H589 0.930 . S
C599 C598 1.375 . S
C599 C600 1.416 . S
C600 C599 1.416 . S
C600 C601 1.371 . S
C601 H590 0.930 . S
C601 C597 1.389 . S
C601 C600 1.371 . S
C602 H591 0.970 . S
C602 H592 0.970 . S
C602 C598 1.532 . S
C602 C603 1.499 . S
C603 C602 1.499 . S
C603 C604 1.370 . S
C603 C608 1.415 . S
C604 H593 0.930 . S
C604 C603 1.370 . S
C604 C605 1.407 . S
C605 C604 1.407 . S
C605 C606 1.365 . S
C606 H594 0.930 . S
C606 C605 1.365 . S
C606 C607 1.393 . S
C607 C606 1.393 . S
C607 C608 1.387 . S
C608 H595 0.930 . S
C608 C603 1.415 . S
C608 C607 1.387 . S
H609 C617 0.930 . S
H610 C620 0.930 . S
H611 C622 0.930 . S
H612 C623 0.970 . S
H613 C623 0.970 . S
H614 C625 0.930 . S
H615 C627 0.930 . S
H616 C629 0.930 . S
C617 H609 0.930 . S
C617 C618 1.382 . S
C617 C619 1.426 . S
C618 C617 1.382 . S
C618 C622 1.389 . S
C619 C617 1.426 . S
C619 C620 1.375 . S
C619 C623 1.532 . S
C620 H610 0.930 . S
C620 C619 1.375 . S
C620 C621 1.416 . S
C621 C620 1.416 . S
C621 C622 1.371 . S
C622 H611 0.930 . S
C622 C618 1.389 . S
C622 C621 1.371 . S
C623 H612 0.970 . S
C623 H613 0.970 . S
C623 C619 1.532 . S
C623 C624 1.499 . S
C624 C623 1.499 . S
C624 C625 1.370 . S
C624 C629 1.415 . S
C625 H614 0.930 . S
C625 C624 1.370 . S
C625 C626 1.407 . S
C626 C625 1.407 . S
C626 C627 1.365 . S
C627 H615 0.930 . S
C627 C626 1.365 . S
C627 C628 1.393 . S
C628 C627 1.393 . S
C628 C629 1.387 . S
C629 H616 0.930 . S
C629 C624 1.415 . S
C629 C628 1.387 . S
C630 C631 1.369 . S
C630 C632 1.419 . S
C630 H634 0.930 . S
C631 C630 1.369 . S
C631 C640 1.429 . S
C632 C630 1.419 . S
C632 C633 1.363 . S
C632 H635 0.929 . S
C633 C632 1.363 . S
C633 C639 1.428 . S
H634 C630 0.930 . S
H635 C632 0.929 . S
S636 N637 1.612 . S
S636 N638 1.594 . S
N637 S636 1.612 . S
N637 C640 1.350 . S
N638 S636 1.594 . S
N638 C639 1.359 . S
C639 C633 1.428 . S
C639 N638 1.359 . S
C639 C640 1.434 . S
C640 C631 1.429 . S
C640 N637 1.350 . S
C640 C639 1.434 . S
C641 C642 1.369 . S
C641 C643 1.419 . S
C641 H645 0.930 . S
C642 C641 1.369 . S
C642 C651 1.429 . S
C643 C641 1.419 . S
C643 C644 1.363 . S
C643 H646 0.929 . S
C644 C643 1.363 . S
C644 C650 1.428 . S
H645 C641 0.930 . S
H646 C643 0.929 . S
S647 N648 1.613 . S
S647 N649 1.610 . S
N648 S647 1.613 . S
N648 C651 1.350 . S
N649 S647 1.610 . S
N649 C650 1.351 . S
C650 C644 1.428 . S
C650 N649 1.351 . S
C650 C651 1.434 . S
C651 C642 1.429 . S
C651 N648 1.350 . S
C651 C650 1.434 . S
C652 C653 1.369 . S
C652 C654 1.419 . S
C652 H656 0.930 . S
C653 C652 1.369 . S
C653 C662 1.429 1_545 S
C654 C652 1.419 . S
C654 C655 1.363 . S
C654 H657 0.929 . S
C655 C654 1.363 . S
C655 C661 1.428 1_545 S
H656 C652 0.930 . S
H657 C654 0.929 . S
S658 N659 1.613 . S
S658 N660 1.610 . S
N659 S658 1.613 . S
N659 C662 1.350 . S
N660 S658 1.610 . S
N660 C661 1.351 . S
C661 C655 1.428 1_565 S
C661 N660 1.351 . S
C661 C662 1.434 . S
C662 C653 1.429 1_565 S
C662 N659 1.350 . S
C662 C661 1.434 . S
C663 C664 1.369 . S
C663 C665 1.419 . S
C663 H667 0.930 . S
C664 C663 1.369 . S
C664 C673 1.429 1_565 S
C665 C663 1.419 . S
C665 C666 1.363 . S
C665 H668 0.929 . S
C666 C665 1.363 . S
C666 C672 1.428 1_565 S
H667 C663 0.930 . S
H668 C665 0.929 . S
S669 N670 1.613 . S
S669 N671 1.610 . S
N670 S669 1.613 . S
N670 C673 1.350 . S
N671 S669 1.610 . S
N671 C672 1.351 . S
C672 C666 1.428 1_545 S
C672 N671 1.351 . S
C672 C673 1.434 . S
C673 C664 1.429 1_545 S
C673 N670 1.350 . S
C673 C672 1.434 . S
C674 C675 1.369 1_655 S
C674 C676 1.419 . S
C674 H678 0.930 . S
C675 C674 1.369 1_455 S
C675 C684 1.429 . S
C676 C674 1.419 . S
C676 C677 1.363 1_655 S
C676 H679 0.929 . S
C677 C676 1.363 1_455 S
C677 C683 1.428 . S
H678 C674 0.930 . S
H679 C676 0.929 . S
S680 N681 1.613 . S
S680 N682 1.610 . S
N681 S680 1.613 . S
N681 C684 1.350 . S
N682 S680 1.610 . S
N682 C683 1.351 . S
C683 C677 1.428 . S
C683 N682 1.351 . S
C683 C684 1.434 . S
C684 C675 1.429 . S
C684 N681 1.350 . S
C684 C683 1.434 . S
C685 C686 1.369 . S
C685 C687 1.419 . S
C685 H689 0.930 . S
C686 C685 1.369 . S
C686 C695 1.429 . S
C687 C685 1.419 . S
C687 C688 1.363 . S
C687 H690 0.929 . S
C688 C687 1.363 . S
C688 C694 1.428 . S
H689 C685 0.930 . S
H690 C687 0.929 . S
S691 N692 1.613 . S
S691 N693 1.610 . S
N692 S691 1.613 . S
N692 C695 1.350 . S
N693 S691 1.610 . S
N693 C694 1.351 . S
C694 C688 1.428 . S
C694 N693 1.351 . S
C694 C695 1.434 . S
C695 C686 1.429 . S
C695 N692 1.350 . S
C695 C694 1.434 . S
C696 C697 1.369 . S
C696 C698 1.419 . S
C696 H700 0.930 . S
C697 C696 1.369 . S
C697 C706 1.429 1_455 S
C698 C696 1.419 . S
C698 C699 1.363 . S
C698 H701 0.929 . S
C699 C698 1.363 . S
C699 C705 1.428 1_455 S
H700 C696 0.930 . S
H701 C698 0.929 . S
S702 N703 1.613 . S
S702 N704 1.610 . S
N703 S702 1.613 . S
N703 C706 1.350 . S
N704 S702 1.610 . S
N704 C705 1.351 . S
C705 C699 1.428 1_655 S
C705 N704 1.351 . S
C705 C706 1.434 . S
C706 C697 1.429 1_655 S
C706 N703 1.350 . S
C706 C705 1.434 . S
C707 C708 1.369 . S
C707 C709 1.419 . S
C707 H711 0.930 . S
C708 C707 1.369 . S
C708 C717 1.429 . S
C709 C707 1.419 . S
C709 C710 1.363 . S
C709 H712 0.929 . S
C710 C709 1.363 . S
C710 C716 1.428 . S
H711 C707 0.930 . S
H712 C709 0.929 . S
S713 N714 1.613 . S
S713 N715 1.610 . S
N714 S713 1.613 . S
N714 C717 1.350 . S
N715 S713 1.610 . S
N715 C716 1.351 . S
C716 C710 1.428 . S
C716 N715 1.351 . S
C716 C717 1.434 . S
C717 C708 1.429 . S
C717 N714 1.350 . S
C717 C716 1.434 . S
C718 C719 1.369 . S
C718 C720 1.439 . S
C718 H722 0.914 . S
C719 C718 1.369 . S
C719 C728 1.429 . S
C720 C718 1.439 . S
C720 C721 1.345 . S
C720 H723 0.929 1_565 S
C721 C720 1.345 . S
C721 C727 1.428 . S
H722 C718 0.914 . S
H723 C720 0.929 1_545 S
S724 N725 1.613 . S
S724 N726 1.610 . S
N725 S724 1.613 . S
N725 C728 1.350 . S
N726 S724 1.610 . S
N726 C727 1.351 . S
C727 C721 1.428 . S
C727 N726 1.351 . S
C727 C728 1.434 . S
C728 C719 1.429 . S
C728 N725 1.350 . S
C728 C727 1.434 . S
C729 C730 1.369 . S
C729 C731 1.419 . S
C729 H733 0.930 . S
C730 C729 1.369 . S
C730 C739 1.429 . S
C731 C729 1.419 . S
C731 C732 1.363 . S
C731 H734 0.929 . S
C732 C731 1.363 . S
C732 C738 1.428 . S
H733 C729 0.930 . S
H734 C731 0.929 . S
S735 N736 1.613 1_565 S
S735 N737 1.610 . S
N736 S735 1.613 1_545 S
N736 C739 1.350 . S
N737 S735 1.610 . S
N737 C738 1.351 1_565 S
C738 C732 1.428 . S
C738 N737 1.351 1_545 S
C738 C739 1.434 . S
C739 C730 1.429 . S
C739 N736 1.350 . S
C739 C738 1.434 . S
C740 C741 1.369 . S
C740 C742 1.419 . S
C740 H744 0.930 . S
C741 C740 1.369 . S
C741 C750 1.429 1_655 S
C742 C740 1.419 . S
C742 C743 1.363 . S
C742 H745 0.929 . S
C743 C742 1.363 . S
C743 C749 1.428 1_655 S
H744 C740 0.930 . S
H745 C742 0.929 . S
S746 N747 1.613 . S
S746 N748 1.610 . S
N747 S746 1.613 . S
N747 C750 1.350 . S
N748 S746 1.610 . S
N748 C749 1.351 . S
C749 C743 1.428 1_455 S
C749 N748 1.351 . S
C749 C750 1.434 . S
C750 C741 1.429 1_455 S
C750 N747 1.350 . S
C750 C749 1.434 . S
C751 C752 1.369 . S
C751 C753 1.419 . S
C751 H755 0.930 . S
C752 C751 1.369 . S
C752 C761 1.429 . S
C753 C751 1.419 . S
C753 C754 1.363 . S
C753 H756 0.929 . S
C754 C753 1.363 . S
C754 C760 1.428 . S
H755 C751 0.930 . S
H756 C753 0.929 . S
S757 N758 1.613 . S
S757 N759 1.610 . S
N758 S757 1.613 . S
N758 C761 1.350 . S
N759 S757 1.610 . S
N759 C760 1.351 . S
C760 C754 1.428 . S
C760 N759 1.351 . S
C760 C761 1.434 . S
C761 C752 1.429 . S
C761 N758 1.350 . S
C761 C760 1.434 . S
C762 C763 1.369 . S
C762 C764 1.419 . S
C762 H766 0.930 . S
C763 C762 1.369 . S
C763 C772 1.429 . S
C764 C762 1.419 . S
C764 C765 1.363 . S
C764 H767 0.929 . S
C765 C764 1.363 . S
C765 C771 1.428 . S
H766 C762 0.930 . S
H767 C764 0.929 . S
S768 N769 1.613 . S
S768 N770 1.610 . S
N769 S768 1.613 . S
N769 C772 1.350 . S
N770 S768 1.610 . S
N770 C771 1.351 . S
C771 C765 1.428 . S
C771 N770 1.351 . S
C771 C772 1.434 . S
C772 C763 1.429 . S
C772 N769 1.350 . S
C772 C771 1.434 . S
C773 C774 1.369 . S
C773 C775 1.419 . S
C773 H777 0.930 . S
C774 C773 1.369 . S
C774 C783 1.429 . S
C775 C773 1.419 . S
C775 C776 1.363 . S
C775 H778 0.929 . S
C776 C775 1.363 . S
C776 C782 1.428 . S
H777 C773 0.930 . S
H778 C775 0.929 . S
S779 N780 1.613 . S
S779 N781 1.610 . S
N780 S779 1.613 . S
N780 C783 1.350 . S
N781 S779 1.610 . S
N781 C782 1.351 . S
C782 C776 1.428 . S
C782 N781 1.351 . S
C782 C783 1.434 . S
C783 C774 1.429 . S
C783 N780 1.350 . S
C783 C782 1.434 . S
C784 C785 1.369 . S
C784 C786 1.419 . S
C784 H788 0.930 . S
C785 C784 1.369 . S
C785 C794 1.429 . S
C786 C784 1.419 . S
C786 C787 1.363 . S
C786 H789 0.929 . S
C787 C786 1.363 . S
C787 C793 1.428 . S
H788 C784 0.930 . S
H789 C786 0.929 . S
S790 N791 1.613 . S
S790 N792 1.610 . S
N791 S790 1.613 . S
N791 C794 1.350 . S
N792 S790 1.610 . S
N792 C793 1.351 . S
C793 C787 1.428 . S
C793 N792 1.351 . S
C793 C794 1.434 . S
C794 C785 1.429 . S
C794 N791 1.350 . S
C794 C793 1.434 . S
C795 C796 1.369 . S
C795 C797 1.419 . S
C795 H799 0.930 . S
C796 C795 1.369 . S
C796 C805 1.429 . S
C797 C795 1.419 . S
C797 C798 1.363 . S
C797 H800 0.929 . S
C798 C797 1.363 . S
C798 C804 1.428 . S
H799 C795 0.930 . S
H800 C797 0.929 . S
S801 N802 1.613 . S
S801 N803 1.610 . S
N802 S801 1.613 . S
N802 C805 1.350 . S
N803 S801 1.610 . S
N803 C804 1.351 . S
C804 C798 1.428 . S
C804 N803 1.351 . S
C804 C805 1.434 . S
C805 C796 1.429 . S
C805 N802 1.350 . S
C805 C804 1.434 . S
C806 C807 1.369 . S
C806 C808 1.419 . S
C806 H810 0.930 . S
C807 C806 1.369 . S
C807 C816 1.429 . S
C808 C806 1.419 . S
C808 C809 1.363 . S
C808 H811 0.929 . S
C809 C808 1.363 . S
C809 C815 1.428 . S
H810 C806 0.930 . S
H811 C808 0.929 . S
S812 N813 1.613 . S
S812 N814 1.610 . S
N813 S812 1.613 . S
N813 C816 1.350 . S
N814 S812 1.610 . S
N814 C815 1.351 . S
C815 C809 1.428 . S
C815 N814 1.351 . S
C815 C816 1.434 . S
C816 C807 1.429 . S
C816 N813 1.350 . S
C816 C815 1.434 . S
C817 C818 1.369 . S
C817 C819 1.419 . S
C817 H821 0.930 . S
C818 C817 1.369 . S
C818 C827 1.429 . S
C819 C817 1.419 . S
C819 C820 1.363 . S
C819 H822 0.929 . S
C820 C819 1.363 . S
C820 C826 1.428 . S
H821 C817 0.930 . S
H822 C819 0.929 . S
S823 N824 1.613 . S
S823 N825 1.610 . S
N824 S823 1.613 . S
N824 C827 1.350 . S
N825 S823 1.610 . S
N825 C826 1.351 . S
C826 C820 1.428 . S
C826 N825 1.351 . S
C826 C827 1.434 . S
C827 C818 1.429 . S
C827 N824 1.350 . S
C827 C826 1.434 . S
C828 C829 1.369 . S
C828 C830 1.419 . S
C828 H832 0.930 . S
C829 C828 1.369 . S
C829 C838 1.429 . S
C830 C828 1.419 . S
C830 C831 1.363 . S
C830 H833 0.929 . S
C831 C830 1.363 . S
C831 C837 1.428 . S
H832 C828 0.930 . S
H833 C830 0.929 . S
S834 N835 1.613 . S
S834 N836 1.610 . S
N835 S834 1.613 . S
N835 C838 1.350 . S
N836 S834 1.610 . S
N836 C837 1.351 . S
C837 C831 1.428 . S
C837 N836 1.351 . S
C837 C838 1.434 . S
C838 C829 1.429 . S
C838 N835 1.350 . S
C838 C837 1.434 . S
C839 C840 1.369 . S
C839 C841 1.419 . S
C839 H843 0.930 . S
C840 C839 1.369 . S
C840 C849 1.429 . S
C841 C839 1.419 . S
C841 C842 1.363 . S
C841 H844 0.929 . S
C842 C841 1.363 . S
C842 C848 1.428 . S
H843 C839 0.930 . S
H844 C841 0.929 . S
S845 N846 1.613 . S
S845 N847 1.610 . S
N846 S845 1.613 . S
N846 C849 1.350 . S
N847 S845 1.610 . S
N847 C848 1.351 . S
C848 C842 1.428 . S
C848 N847 1.351 . S
C848 C849 1.434 . S
C849 C840 1.429 . S
C849 N846 1.350 . S
C849 C848 1.434 . S
C850 C851 1.369 . S
C850 C852 1.419 . S
C850 H854 0.930 . S
C851 C850 1.369 . S
C851 C860 1.429 . S
C852 C850 1.419 . S
C852 C853 1.363 . S
C852 H855 0.929 . S
C853 C852 1.363 . S
C853 C859 1.428 . S
H854 C850 0.930 . S
H855 C852 0.929 . S
S856 N857 1.613 . S
S856 N858 1.610 . S
N857 S856 1.613 . S
N857 C860 1.350 . S
N858 S856 1.610 . S
N858 C859 1.351 . S
C859 C853 1.428 . S
C859 N858 1.351 . S
C859 C860 1.434 . S
C860 C851 1.429 . S
C860 N857 1.350 . S
C860 C859 1.434 . S
C861 C862 1.369 . S
C861 C863 1.419 . S
C861 H865 0.930 . S
C862 C861 1.369 . S
C862 C871 1.429 . S
C863 C861 1.419 . S
C863 C864 1.363 . S
C863 H866 0.929 . S
C864 C863 1.363 . S
C864 C870 1.428 . S
H865 C861 0.930 . S
H866 C863 0.929 . S
S867 N868 1.613 . S
S867 N869 1.610 . S
N868 S867 1.613 . S
N868 C871 1.350 . S
N869 S867 1.610 . S
N869 C870 1.351 . S
C870 C864 1.428 . S
C870 N869 1.351 . S
C870 C871 1.434 . S
C871 C862 1.429 . S
C871 N868 1.350 . S
C871 C870 1.434 . S
C872 C873 1.369 . S
C872 C874 1.419 . S
C872 H876 0.930 . S
C873 C872 1.369 . S
C873 C882 1.429 . S
C874 C872 1.419 . S
C874 C875 1.363 . S
C874 H877 0.929 . S
C875 C874 1.363 . S
C875 C881 1.428 . S
H876 C872 0.930 . S
H877 C874 0.929 . S
S878 N879 1.613 . S
S878 N880 1.610 . S
N879 S878 1.613 . S
N879 C882 1.350 . S
N880 S878 1.610 . S
N880 C881 1.351 . S
C881 C875 1.428 . S
C881 N880 1.351 . S
C881 C882 1.434 . S
C882 C873 1.429 . S
C882 N879 1.350 . S
C882 C881 1.434 . S
C883 C884 1.369 . S
C883 C885 1.419 . S
C883 H887 0.930 . S
C884 C883 1.369 . S
C884 C893 1.429 . S
C885 C883 1.419 . S
C885 C886 1.363 . S
C885 H888 0.929 . S
C886 C885 1.363 . S
C886 C892 1.428 . S
H887 C883 0.930 . S
H888 C885 0.929 . S
S889 N890 1.613 . S
S889 N891 1.610 . S
N890 S889 1.613 . S
N890 C893 1.350 . S
N891 S889 1.610 . S
N891 C892 1.351 . S
C892 C886 1.428 . S
C892 N891 1.351 . S
C892 C893 1.434 . S
C893 C884 1.429 . S
C893 N890 1.350 . S
C893 C892 1.434 . S
C894 C895 1.369 . S
C894 C896 1.419 . S
C894 H898 0.930 . S
C895 C894 1.369 . S
C895 C904 1.429 . S
C896 C894 1.419 . S
C896 C897 1.363 . S
C896 H899 0.929 . S
C897 C896 1.363 . S
C897 C903 1.428 . S
H898 C894 0.930 . S
H899 C896 0.929 . S
S900 N901 1.613 . S
S900 N902 1.610 . S
N901 S900 1.613 . S
N901 C904 1.350 . S
N902 S900 1.610 . S
N902 C903 1.351 . S
C903 C897 1.428 . S
C903 N902 1.351 . S
C903 C904 1.434 . S
C904 C895 1.429 . S
C904 N901 1.350 . S
C904 C903 1.434 . S
C905 C906 1.369 . S
C905 C907 1.419 . S
C905 H909 0.930 . S
C906 C905 1.369 . S
C906 C915 1.429 . S
C907 C905 1.419 . S
C907 C908 1.363 . S
C907 H910 0.929 . S
C908 C907 1.363 . S
C908 C914 1.428 . S
H909 C905 0.930 . S
H910 C907 0.929 . S
S911 N912 1.613 . S
S911 N913 1.610 . S
N912 S911 1.613 . S
N912 C915 1.350 . S
N913 S911 1.610 . S
N913 C914 1.351 . S
C914 C908 1.428 . S
C914 N913 1.351 . S
C914 C915 1.434 . S
C915 C906 1.429 . S
C915 N912 1.350 . S
C915 C914 1.434 . S
C916 C917 1.369 . S
C916 C918 1.419 . S
C916 H920 0.930 . S
C917 C916 1.369 . S
C917 C926 1.429 . S
C918 C916 1.419 . S
C918 C919 1.363 . S
C918 H921 0.929 . S
C919 C918 1.363 . S
C919 C925 1.428 . S
H920 C916 0.930 . S
H921 C918 0.929 . S
S922 N923 1.613 . S
S922 N924 1.610 . S
N923 S922 1.613 . S
N923 C926 1.350 . S
N924 S922 1.610 . S
N924 C925 1.351 . S
C925 C919 1.428 . S
C925 N924 1.351 . S
C925 C926 1.434 . S
C926 C917 1.429 . S
C926 N923 1.350 . S
C926 C925 1.434 . S
C927 C928 1.369 . S
C927 C929 1.419 . S
C927 H931 0.930 . S
C928 C927 1.369 . S
C928 C937 1.429 . S
C929 C927 1.419 . S
C929 C930 1.363 . S
C929 H932 0.929 . S
C930 C929 1.363 . S
C930 C936 1.428 . S
H931 C927 0.930 . S
H932 C929 0.929 . S
S933 N934 1.613 . S
S933 N935 1.610 . S
N934 S933 1.613 . S
N934 C937 1.350 . S
N935 S933 1.610 . S
N935 C936 1.351 . S
C936 C930 1.428 . S
C936 N935 1.351 . S
C936 C937 1.434 . S
C937 C928 1.429 . S
C937 N934 1.350 . S
C937 C936 1.434 . S
C938 C939 1.369 . S
C938 C940 1.419 . S
C938 H942 0.930 . S
C939 C938 1.369 . S
C939 C948 1.429 . S
C940 C938 1.419 . S
C940 C941 1.363 . S
C940 H943 0.929 . S
C941 C940 1.363 . S
C941 C947 1.428 . S
H942 C938 0.930 . S
H943 C940 0.929 . S
S944 N945 1.613 . S
S944 N946 1.610 . S
N945 S944 1.613 . S
N945 C948 1.350 . S
N946 S944 1.610 . S
N946 C947 1.351 . S
C947 C941 1.428 . S
C947 N946 1.351 . S
C947 C948 1.434 . S
C948 C939 1.429 . S
C948 N945 1.350 . S
C948 C947 1.434 . S
C949 C950 1.369 . S
C949 C951 1.419 . S
C949 H953 0.930 . S
C950 C949 1.369 . S
C950 C959 1.429 . S
C951 C949 1.419 . S
C951 C952 1.363 . S
C951 H954 0.929 . S
C952 C951 1.363 . S
C952 C958 1.428 . S
H953 C949 0.930 . S
H954 C951 0.929 . S
S955 N956 1.613 . S
S955 N957 1.610 . S
N956 S955 1.613 . S
N956 C959 1.350 . S
N957 S955 1.610 . S
N957 C958 1.351 . S
C958 C952 1.428 . S
C958 N957 1.351 . S
C958 C959 1.434 . S
C959 C950 1.429 . S
C959 N956 1.350 . S
C959 C958 1.434 . S
C960 C961 1.369 . S
C960 C962 1.419 . S
C960 H964 0.930 . S
C961 C960 1.369 . S
C961 C970 1.429 . S
C962 C960 1.419 . S
C962 C963 1.363 . S
C962 H965 0.929 . S
C963 C962 1.363 . S
C963 C969 1.428 . S
H964 C960 0.930 . S
H965 C962 0.929 . S
S966 N967 1.613 . S
S966 N968 1.610 . S
N967 S966 1.613 . S
N967 C970 1.350 . S
N968 S966 1.610 . S
N968 C969 1.351 . S
C969 C963 1.428 . S
C969 N968 1.351 . S
C969 C970 1.434 . S
C970 C961 1.429 . S
C970 N967 1.350 . S
C970 C969 1.434 . S
C971 C972 1.369 . S
C971 C973 1.419 . S
C971 H975 0.930 . S
C972 C971 1.369 . S
C972 C981 1.429 . S
C973 C971 1.419 . S
C973 C974 1.363 . S
C973 H976 0.929 . S
C974 C973 1.363 . S
C974 C980 1.428 . S
H975 C971 0.930 . S
H976 C973 0.929 . S
S977 N978 1.613 . S
S977 N979 1.610 . S
N978 S977 1.613 . S
N978 C981 1.350 . S
N979 S977 1.610 . S
N979 C980 1.351 . S
C980 C974 1.428 . S
C980 N979 1.351 . S
C980 C981 1.434 . S
C981 C972 1.429 . S
C981 N978 1.350 . S
C981 C980 1.434 . S
C982 C983 1.369 . S
C982 C984 1.419 . S
C982 H986 0.930 . S
C983 C982 1.369 . S
C983 C992 1.429 . S
C984 C982 1.419 . S
C984 C985 1.363 . S
C984 H987 0.929 . S
C985 C984 1.363 . S
C985 C991 1.428 . S
H986 C982 0.930 . S
H987 C984 0.929 . S
S988 N989 1.613 . S
S988 N990 1.610 . S
N989 S988 1.613 . S
N989 C992 1.350 . S
N990 S988 1.610 . S
N990 C991 1.351 . S
C991 C985 1.428 . S
C991 N990 1.351 . S
C991 C992 1.434 . S
C992 C983 1.429 . S
C992 N989 1.350 . S
C992 C991 1.434 . S
C993 C994 1.369 . S
C993 C995 1.419 . S
C993 H997 0.930 . S
C994 C993 1.369 . S
C994 C1003 1.429 . S
C995 C993 1.419 . S
C995 C996 1.363 . S
C995 H998 0.929 . S
C996 C995 1.363 . S
C996 C1002 1.428 . S
H997 C993 0.930 . S
H998 C995 0.929 . S
S999 N1000 1.613 . S
S999 N1001 1.610 . S
N1000 S999 1.613 . S
N1000 C1003 1.350 . S
N1001 S999 1.610 . S
N1001 C1002 1.351 . S
C1002 C996 1.428 . S
C1002 N1001 1.351 . S
C1002 C1003 1.434 . S
C1003 C994 1.429 . S
C1003 N1000 1.350 . S
C1003 C1002 1.434 . S
C1004 C1005 1.369 . S
C1004 C1006 1.419 . S
C1004 H1008 0.930 . S
C1005 C1004 1.369 . S
C1005 C1014 1.429 . S
C1006 C1004 1.419 . S
C1006 C1007 1.363 . S
C1006 H1009 0.929 . S
C1007 C1006 1.363 . S
C1007 C1013 1.428 . S
H1008 C1004 0.930 . S
H1009 C1006 0.929 . S
S1010 N1011 1.613 . S
S1010 N1012 1.610 . S
N1011 S1010 1.613 . S
N1011 C1014 1.350 . S
N1012 S1010 1.610 . S
N1012 C1013 1.351 . S
C1013 C1007 1.428 . S
C1013 N1012 1.351 . S
C1013 C1014 1.434 . S
C1014 C1005 1.429 . S
C1014 N1011 1.350 . S
C1014 C1013 1.434 . S
C1015 C1016 1.369 . S
C1015 C1017 1.419 . S
C1015 H1019 0.930 . S
C1016 C1015 1.369 . S
C1016 C1025 1.429 . S
C1017 C1015 1.419 . S
C1017 C1018 1.363 . S
C1017 H1020 0.929 . S
C1018 C1017 1.363 . S
C1018 C1024 1.428 . S
H1019 C1015 0.930 . S
H1020 C1017 0.929 . S
S1021 N1022 1.613 . S
S1021 N1023 1.610 . S
N1022 S1021 1.613 . S
N1022 C1025 1.350 . S
N1023 S1021 1.610 . S
N1023 C1024 1.351 . S
C1024 C1018 1.428 . S
C1024 N1023 1.351 . S
C1024 C1025 1.434 . S
C1025 C1016 1.429 . S
C1025 N1022 1.350 . S
C1025 C1024 1.434 . S
C1026 C1027 1.369 . S
C1026 C1028 1.419 . S
C1026 H1030 0.930 . S
C1027 C1026 1.369 . S
C1027 C1036 1.429 . S
C1028 C1026 1.419 . S
C1028 C1029 1.363 . S
C1028 H1031 0.929 . S
C1029 C1028 1.363 . S
C1029 C1035 1.428 . S
H1030 C1026 0.930 . S
H1031 C1028 0.929 . S
S1032 N1033 1.613 . S
S1032 N1034 1.610 1_556 S
N1033 S1032 1.613 . S
N1033 C1036 1.350 1_556 S
N1034 S1032 1.610 1_554 S
N1034 C1035 1.351 . S
C1035 C1029 1.428 . S
C1035 N1034 1.351 . S
C1035 C1036 1.434 . S
C1036 C1027 1.429 . S
C1036 N1033 1.350 1_554 S
C1036 C1035 1.434 . S
C1037 C1038 1.369 . S
C1037 C1039 1.419 . S
C1037 H1041 0.930 . S
C1038 C1037 1.369 . S
C1038 C1047 1.429 . S
C1039 C1037 1.419 . S
C1039 C1040 1.363 . S
C1039 H1042 0.929 . S
C1040 C1039 1.363 . S
C1040 C1046 1.428 . S
H1041 C1037 0.930 . S
H1042 C1039 0.929 . S
S1043 N1044 1.613 . S
S1043 N1045 1.610 . S
N1044 S1043 1.613 . S
N1044 C1047 1.350 . S
N1045 S1043 1.610 . S
N1045 C1046 1.351 . S
C1046 C1040 1.428 . S
C1046 N1045 1.351 . S
C1046 C1047 1.434 . S
C1047 C1038 1.429 . S
C1047 N1044 1.350 . S
C1047 C1046 1.434 . S
C1048 C1049 1.369 . S
C1048 C1050 1.419 . S
C1048 H1052 0.930 . S
C1049 C1048 1.369 . S
C1049 C1058 1.429 . S
C1050 C1048 1.419 . S
C1050 C1051 1.363 . S
C1050 H1053 0.929 . S
C1051 C1050 1.363 . S
C1051 C1057 1.428 . S
H1052 C1048 0.930 . S
H1053 C1050 0.929 . S
S1054 N1055 1.613 . S
S1054 N1056 1.610 . S
N1055 S1054 1.613 . S
N1055 C1058 1.350 . S
N1056 S1054 1.610 . S
N1056 C1057 1.351 . S
C1057 C1051 1.428 . S
C1057 N1056 1.351 . S
C1057 C1058 1.434 . S
C1058 C1049 1.429 . S
C1058 N1055 1.350 . S
C1058 C1057 1.434 . S
C1059 C1060 1.369 . S
C1059 C1061 1.419 . S
C1059 H1063 0.930 . S
C1060 C1059 1.369 . S
C1060 C1069 1.429 . S
C1061 C1059 1.419 . S
C1061 C1062 1.363 . S
C1061 H1064 0.929 . S
C1062 C1061 1.363 . S
C1062 C1068 1.428 . S
H1063 C1059 0.930 . S
H1064 C1061 0.929 . S
S1065 N1066 1.613 . S
S1065 N1067 1.610 . S
N1066 S1065 1.613 . S
N1066 C1069 1.350 . S
N1067 S1065 1.610 . S
N1067 C1068 1.351 . S
C1068 C1062 1.428 . S
C1068 N1067 1.351 . S
C1068 C1069 1.434 . S
C1069 C1060 1.429 . S
C1069 N1066 1.350 . S
C1069 C1068 1.434 . S
C1070 C1071 1.369 . S
C1070 C1072 1.419 . S
C1070 H1074 0.943 . S
C1071 C1070 1.369 . S
C1071 C1080 1.429 . S
C1072 C1070 1.419 . S
C1072 C1073 1.363 . S
C1072 H1075 0.929 . S
C1073 C1072 1.363 . S
C1073 C1079 1.428 . S
H1074 C1070 0.943 . S
H1075 C1072 0.929 . S
S1076 N1077 1.613 . S
S1076 N1078 1.610 . S
N1077 S1076 1.613 . S
N1077 C1080 1.350 . S
N1078 S1076 1.610 . S
N1078 C1079 1.351 . S
C1079 C1073 1.428 . S
C1079 N1078 1.351 . S
C1079 C1080 1.434 . S
C1080 C1071 1.429 . S
C1080 N1077 1.350 . S
C1080 C1079 1.434 . S
C1081 C1082 1.369 . S
C1081 C1083 1.419 . S
C1081 H1085 0.930 . S
C1082 C1081 1.369 . S
C1082 C1091 1.429 . S
C1083 C1081 1.419 . S
C1083 C1084 1.363 . S
C1083 H1086 0.929 . S
C1084 C1083 1.363 . S
C1084 C1090 1.428 . S
H1085 C1081 0.930 . S
H1086 C1083 0.929 . S
S1087 N1088 1.613 . S
S1087 N1089 1.610 1_554 S
N1088 S1087 1.613 . S
N1088 C1091 1.350 1_554 S
N1089 S1087 1.610 1_556 S
N1089 C1090 1.351 . S
C1090 C1084 1.428 . S
C1090 N1089 1.351 . S
C1090 C1091 1.434 . S
C1091 C1082 1.429 . S
C1091 N1088 1.350 1_556 S
C1091 C1090 1.434 . S
C1092 C1093 1.385 . S
C1092 C1094 1.429 . S
C1092 H1096 0.903 1_556 S
C1093 C1092 1.385 . S
C1093 C1102 1.429 . S
C1094 C1092 1.429 . S
C1094 C1095 1.363 . S
C1094 H1097 0.935 . S
C1095 C1094 1.363 . S
C1095 C1101 1.428 . S
H1096 C1092 0.903 1_554 S
H1097 C1094 0.935 . S
S1098 N1099 1.613 . S
S1098 N1100 1.610 . S
N1099 S1098 1.613 . S
N1099 C1102 1.350 . S
N1100 S1098 1.610 . S
N1100 C1101 1.351 . S
C1101 C1095 1.428 . S
C1101 N1100 1.351 . S
C1101 C1102 1.434 . S
C1102 C1093 1.429 . S
C1102 N1099 1.350 . S
C1102 C1101 1.434 . S
C1103 C1104 1.369 . S
C1103 C1105 1.419 . S
C1103 H1107 0.930 1_556 S
C1104 C1103 1.369 . S
C1104 C1113 1.429 . S
C1105 C1103 1.419 . S
C1105 C1106 1.363 . S
C1105 H1108 0.929 . S
C1106 C1105 1.363 . S
C1106 C1112 1.428 . S
H1107 C1103 0.930 1_554 S
H1108 C1105 0.929 . S
S1109 N1110 1.613 . S
S1109 N1111 1.610 . S
N1110 S1109 1.613 . S
N1110 C1113 1.350 . S
N1111 S1109 1.610 . S
N1111 C1112 1.351 . S
C1112 C1106 1.428 . S
C1112 N1111 1.351 . S
C1112 C1113 1.434 . S
C1113 C1104 1.429 . S
C1113 N1110 1.350 . S
C1113 C1112 1.434 . S
C1114 C1115 1.369 . S
C1114 C1116 1.419 . S
C1114 H1118 0.930 . S
C1115 C1114 1.369 . S
C1115 C1124 1.429 . S
C1116 C1114 1.419 . S
C1116 C1117 1.363 . S
C1116 H1119 0.929 . S
C1117 C1116 1.363 . S
C1117 C1123 1.428 . S
H1118 C1114 0.930 . S
H1119 C1116 0.929 . S
S1120 N1121 1.613 . S
S1120 N1122 1.610 1_554 S
N1121 S1120 1.613 . S
N1121 C1124 1.350 1_554 S
N1122 S1120 1.610 1_556 S
N1122 C1123 1.351 . S
C1123 C1117 1.428 . S
C1123 N1122 1.351 . S
C1123 C1124 1.434 . S
C1124 C1115 1.429 . S
C1124 N1121 1.350 1_556 S
C1124 C1123 1.434 . S
C1125 C1126 1.369 . S
C1125 C1127 1.419 . S
C1125 H1129 0.930 . S
C1126 C1125 1.369 . S
C1126 C1135 1.429 . S
C1127 C1125 1.419 . S
C1127 C1128 1.363 . S
C1127 H1130 0.929 . S
C1128 C1127 1.363 . S
C1128 C1134 1.428 . S
H1129 C1125 0.930 . S
H1130 C1127 0.929 . S
S1131 N1132 1.613 . S
S1131 N1133 1.610 . S
N1132 S1131 1.613 . S
N1132 C1135 1.350 . S
N1133 S1131 1.610 . S
N1133 C1134 1.351 . S
C1134 C1128 1.428 . S
C1134 N1133 1.351 . S
C1134 C1135 1.434 . S
C1135 C1126 1.429 . S
C1135 N1132 1.350 . S
C1135 C1134 1.434 . S
C1136 C1137 1.369 . S
C1136 C1138 1.419 . S
C1136 H1140 0.930 . S
C1137 C1136 1.369 . S
C1137 C1146 1.429 . S
C1138 C1136 1.419 . S
C1138 C1139 1.363 . S
C1138 H1141 0.929 . S
C1139 C1138 1.363 . S
C1139 C1145 1.428 . S
H1140 C1136 0.930 . S
H1141 C1138 0.929 . S
S1142 N1143 1.613 . S
S1142 N1144 1.610 . S
N1143 S1142 1.613 . S
N1143 C1146 1.350 . S
N1144 S1142 1.610 . S
N1144 C1145 1.351 . S
C1145 C1139 1.428 . S
C1145 N1144 1.351 . S
C1145 C1146 1.434 . S
C1146 C1137 1.429 . S
C1146 N1143 1.350 . S
C1146 C1145 1.434 . S
C1147 C1148 1.369 . S
C1147 C1149 1.419 . S
C1147 H1151 0.930 . S
C1148 C1147 1.369 . S
C1148 C1157 1.429 . S
C1149 C1147 1.419 . S
C1149 C1150 1.363 . S
C1149 H1152 0.929 . S
C1150 C1149 1.363 . S
C1150 C1156 1.428 . S
H1151 C1147 0.930 . S
H1152 C1149 0.929 . S
S1153 N1154 1.613 . S
S1153 N1155 1.610 . S
N1154 S1153 1.613 . S
N1154 C1157 1.350 . S
N1155 S1153 1.610 . S
N1155 C1156 1.351 . S
C1156 C1150 1.428 . S
C1156 N1155 1.351 . S
C1156 C1157 1.434 . S
C1157 C1148 1.429 . S
C1157 N1154 1.350 . S
C1157 C1156 1.434 . S
C1158 C1159 1.369 . S
C1158 C1160 1.419 . S
C1158 H1162 0.930 . S
C1159 C1158 1.369 . S
C1159 C1168 1.429 . S
C1160 C1158 1.419 . S
C1160 C1161 1.363 . S
C1160 H1163 0.929 . S
C1161 C1160 1.363 . S
C1161 C1167 1.428 . S
H1162 C1158 0.930 . S
H1163 C1160 0.929 . S
S1164 N1165 1.613 . S
S1164 N1166 1.610 . S
N1165 S1164 1.613 . S
N1165 C1168 1.350 . S
N1166 S1164 1.610 . S
N1166 C1167 1.351 . S
C1167 C1161 1.428 . S
C1167 N1166 1.351 . S
C1167 C1168 1.434 . S
C1168 C1159 1.429 . S
C1168 N1165 1.350 . S
C1168 C1167 1.434 . S
C1169 C1170 1.369 . S
C1169 C1171 1.419 . S
C1169 H1173 0.930 . S
C1170 C1169 1.369 . S
C1170 C1179 1.429 . S
C1171 C1169 1.419 . S
C1171 C1172 1.363 . S
C1171 H1174 0.929 . S
C1172 C1171 1.363 . S
C1172 C1178 1.428 . S
H1173 C1169 0.930 . S
H1174 C1171 0.929 . S
S1175 N1176 1.613 . S
S1175 N1177 1.610 . S
N1176 S1175 1.613 . S
N1176 C1179 1.350 . S
N1177 S1175 1.610 . S
N1177 C1178 1.351 . S
C1178 C1172 1.428 . S
C1178 N1177 1.351 . S
C1178 C1179 1.434 . S
C1179 C1170 1.429 . S
C1179 N1176 1.350 . S
C1179 C1178 1.434 . S
C1180 C1181 1.369 . S
C1180 C1182 1.419 . S
C1180 H1184 0.930 . S
C1181 C1180 1.369 . S
C1181 C1190 1.429 . S
C1182 C1180 1.419 . S
C1182 C1183 1.363 . S
C1182 H1185 0.929 . S
C1183 C1182 1.363 . S
C1183 C1189 1.428 . S
H1184 C1180 0.930 . S
H1185 C1182 0.929 . S
S1186 N1187 1.613 . S
S1186 N1188 1.610 . S
N1187 S1186 1.613 . S
N1187 C1190 1.350 . S
N1188 S1186 1.610 . S
N1188 C1189 1.351 . S
C1189 C1183 1.428 . S
C1189 N1188 1.351 . S
C1189 C1190 1.434 . S
C1190 C1181 1.429 . S
C1190 N1187 1.350 . S
C1190 C1189 1.434 . S
C1191 C1192 1.369 . S
C1191 C1193 1.419 . S
C1191 H1195 0.930 . S
C1192 C1191 1.369 . S
C1192 C1201 1.429 . S
C1193 C1191 1.419 . S
C1193 C1194 1.363 . S
C1193 H1196 0.929 . S
C1194 C1193 1.363 . S
C1194 C1200 1.428 . S
H1195 C1191 0.930 . S
H1196 C1193 0.929 . S
S1197 N1198 1.613 . S
S1197 N1199 1.610 . S
N1198 S1197 1.613 . S
N1198 C1201 1.350 . S
N1199 S1197 1.610 . S
N1199 C1200 1.351 . S
C1200 C1194 1.428 . S
C1200 N1199 1.351 . S
C1200 C1201 1.434 . S
C1201 C1192 1.429 . S
C1201 N1198 1.350 . S
C1201 C1200 1.434 . S
C1202 C1203 1.369 . S
C1202 C1204 1.419 . S
C1202 H1206 0.930 . S
C1203 C1202 1.369 . S
C1203 C1212 1.429 . S
C1204 C1202 1.419 . S
C1204 C1205 1.363 . S
C1204 H1207 0.929 . S
C1205 C1204 1.363 . S
C1205 C1211 1.428 . S
H1206 C1202 0.930 . S
H1207 C1204 0.929 . S
S1208 N1209 1.613 . S
S1208 N1210 1.610 . S
N1209 S1208 1.613 . S
N1209 C1212 1.350 . S
N1210 S1208 1.610 . S
N1210 C1211 1.351 . S
C1211 C1205 1.428 . S
C1211 N1210 1.351 . S
C1211 C1212 1.434 . S
C1212 C1203 1.429 . S
C1212 N1209 1.350 . S
C1212 C1211 1.434 . S
C1213 C1214 1.369 . S
C1213 C1215 1.419 . S
C1213 H1217 0.930 . S
C1214 C1213 1.369 . S
C1214 C1223 1.429 1_565 S
C1215 C1213 1.419 . S
C1215 C1216 1.363 . S
C1215 H1218 0.929 . S
C1216 C1215 1.363 . S
C1216 C1222 1.428 1_565 S
H1217 C1213 0.930 . S
H1218 C1215 0.929 . S
S1219 N1220 1.613 . S
S1219 N1221 1.610 . S
N1220 S1219 1.613 . S
N1220 C1223 1.350 . S
N1221 S1219 1.610 . S
N1221 C1222 1.351 . S
C1222 C1216 1.428 1_545 S
C1222 N1221 1.351 . S
C1222 C1223 1.434 . S
C1223 C1214 1.429 1_545 S
C1223 N1220 1.350 . S
C1223 C1222 1.434 . S
C1224 C1225 1.369 . S
C1224 C1226 1.419 . S
C1224 H1228 0.930 . S
C1225 C1224 1.369 . S
C1225 C1234 1.429 1_565 S
C1226 C1224 1.419 . S
C1226 C1227 1.363 . S
C1226 H1229 0.929 . S
C1227 C1226 1.363 . S
C1227 C1233 1.428 1_565 S
H1228 C1224 0.930 . S
H1229 C1226 0.929 . S
S1230 N1231 1.613 . S
S1230 N1232 1.610 . S
N1231 S1230 1.613 . S
N1231 C1234 1.350 . S
N1232 S1230 1.610 . S
N1232 C1233 1.351 . S
C1233 C1227 1.428 1_545 S
C1233 N1232 1.351 . S
C1233 C1234 1.434 . S
C1234 C1225 1.429 1_545 S
C1234 N1231 1.350 . S
C1234 C1233 1.434 . S
C1235 C1236 1.369 . S
C1235 C1237 1.419 . S
C1235 H1239 0.930 . S
C1236 C1235 1.369 . S
C1236 C1245 1.429 1_455 S
C1237 C1235 1.419 . S
C1237 C1238 1.363 . S
C1237 H1240 0.929 . S
C1238 C1237 1.363 . S
C1238 C1244 1.428 1_455 S
H1239 C1235 0.930 . S
H1240 C1237 0.929 . S
S1241 N1242 1.613 . S
S1241 N1243 1.610 . S
N1242 S1241 1.613 . S
N1242 C1245 1.350 . S
N1243 S1241 1.610 . S
N1243 C1244 1.351 . S
C1244 C1238 1.428 1_655 S
C1244 N1243 1.351 . S
C1244 C1245 1.434 . S
C1245 C1236 1.429 1_655 S
C1245 N1242 1.350 . S
C1245 C1244 1.434 . S
C1246 C1247 1.369 . S
C1246 C1248 1.419 . S
C1246 H1250 0.930 . S
C1247 C1246 1.369 . S
C1247 C1256 1.429 . S
C1248 C1246 1.419 . S
C1248 C1249 1.363 . S
C1248 H1251 0.929 . S
C1249 C1248 1.363 . S
C1249 C1255 1.428 . S
H1250 C1246 0.930 . S
H1251 C1248 0.929 . S
S1252 N1253 1.613 . S
S1252 N1254 1.610 . S
N1253 S1252 1.613 . S
N1253 C1256 1.350 . S
N1254 S1252 1.610 . S
N1254 C1255 1.351 . S
C1255 C1249 1.428 . S
C1255 N1254 1.351 . S
C1255 C1256 1.434 . S
C1256 C1247 1.429 . S
C1256 N1253 1.350 . S
C1256 C1255 1.434 . S
C1257 C1258 1.369 . S
C1257 C1259 1.419 . S
C1257 H1261 0.930 . S
C1258 C1257 1.369 . S
C1258 C1267 1.429 . S
C1259 C1257 1.419 . S
C1259 C1260 1.363 . S
C1259 H1262 0.929 . S
C1260 C1259 1.363 . S
C1260 C1266 1.428 . S
H1261 C1257 0.930 . S
H1262 C1259 0.929 . S
S1263 N1264 1.613 . S
S1263 N1265 1.610 . S
N1264 S1263 1.613 . S
N1264 C1267 1.350 . S
N1265 S1263 1.610 . S
N1265 C1266 1.351 . S
C1266 C1260 1.428 . S
C1266 N1265 1.351 . S
C1266 C1267 1.434 . S
C1267 C1258 1.429 . S
C1267 N1264 1.350 . S
C1267 C1266 1.434 . S
C1268 C1269 1.369 . S
C1268 C1270 1.419 . S
C1268 H1272 0.930 . S
C1269 C1268 1.369 . S
C1269 C1278 1.429 . S
C1270 C1268 1.419 . S
C1270 C1271 1.363 . S
C1270 H1273 0.929 . S
C1271 C1270 1.363 . S
C1271 C1277 1.428 . S
H1272 C1268 0.930 . S
H1273 C1270 0.929 . S
S1274 N1275 1.613 . S
S1274 N1276 1.610 . S
N1275 S1274 1.613 . S
N1275 C1278 1.350 . S
N1276 S1274 1.610 . S
N1276 C1277 1.351 . S
C1277 C1271 1.428 . S
C1277 N1276 1.351 . S
C1277 C1278 1.434 . S
C1278 C1269 1.429 . S
C1278 N1275 1.350 . S
C1278 C1277 1.434 . S
C1279 C1280 1.369 . S
C1279 C1281 1.419 . S
C1279 H1283 0.930 . S
C1280 C1279 1.369 . S
C1280 C1289 1.429 . S
C1281 C1279 1.419 . S
C1281 C1282 1.363 . S
C1281 H1284 0.929 . S
C1282 C1281 1.363 . S
C1282 C1288 1.428 . S
H1283 C1279 0.930 . S
H1284 C1281 0.929 . S
S1285 N1286 1.613 . S
S1285 N1287 1.610 . S
N1286 S1285 1.613 . S
N1286 C1289 1.350 . S
N1287 S1285 1.610 . S
N1287 C1288 1.351 . S
C1288 C1282 1.428 . S
C1288 N1287 1.351 . S
C1288 C1289 1.434 . S
C1289 C1280 1.429 . S
C1289 N1286 1.350 . S
C1289 C1288 1.434 . S
C1290 C1291 1.369 1_565 S
C1290 C1292 1.419 . S
C1290 H1294 0.930 . S
C1291 C1290 1.369 1_545 S
C1291 C1300 1.429 . S
C1292 C1290 1.419 . S
C1292 C1293 1.363 1_565 S
C1292 H1295 0.929 . S
C1293 C1292 1.363 1_545 S
C1293 C1299 1.428 . S
H1294 C1290 0.930 . S
H1295 C1292 0.929 . S
S1296 N1297 1.613 . S
S1296 N1298 1.610 . S
N1297 S1296 1.613 . S
N1297 C1300 1.350 . S
N1298 S1296 1.610 . S
N1298 C1299 1.351 . S
C1299 C1293 1.428 . S
C1299 N1298 1.351 . S
C1299 C1300 1.434 . S
C1300 C1291 1.429 . S
C1300 N1297 1.350 . S
C1300 C1299 1.434 . S
C1301 C1302 1.369 . S
C1301 C1303 1.419 . S
C1301 H1305 0.930 . S
C1302 C1301 1.369 . S
C1302 C1311 1.429 . S
C1303 C1301 1.419 . S
C1303 C1304 1.363 . S
C1303 H1306 0.929 . S
C1304 C1303 1.363 . S
C1304 C1310 1.428 1_655 S
H1305 C1301 0.930 . S
H1306 C1303 0.929 . S
S1307 N1308 1.613 . S
S1307 N1309 1.610 . S
N1308 S1307 1.613 . S
N1308 C1311 1.350 1_455 S
N1309 S1307 1.610 . S
N1309 C1310 1.351 . S
C1310 C1304 1.428 1_455 S
C1310 N1309 1.351 . S
C1310 C1311 1.434 1_455 S
C1311 C1302 1.429 . S
C1311 N1308 1.350 1_655 S
C1311 C1310 1.434 1_655 S
C1312 C1313 1.369 . S
C1312 C1314 1.419 . S
C1312 H1316 0.930 . S
C1313 C1312 1.369 . S
C1313 C1322 1.429 . S
C1314 C1312 1.419 . S
C1314 C1315 1.363 . S
C1314 H1317 0.929 . S
C1315 C1314 1.363 . S
C1315 C1321 1.428 . S
H1316 C1312 0.930 . S
H1317 C1314 0.929 . S
S1318 N1319 1.613 . S
S1318 N1320 1.610 . S
N1319 S1318 1.613 . S
N1319 C1322 1.350 . S
N1320 S1318 1.610 . S
N1320 C1321 1.351 . S
C1321 C1315 1.428 . S
C1321 N1320 1.351 . S
C1321 C1322 1.434 . S
C1322 C1313 1.429 . S
C1322 N1319 1.350 . S
C1322 C1321 1.434 . S
C1323 C1324 1.369 . S
C1323 C1325 1.419 . S
C1323 H1327 0.930 . S
C1324 C1323 1.369 . S
C1324 C1333 1.429 . S
C1325 C1323 1.419 . S
C1325 C1326 1.363 . S
C1325 H1328 0.929 . S
C1326 C1325 1.363 . S
C1326 C1332 1.428 . S
H1327 C1323 0.930 . S
H1328 C1325 0.929 . S
S1329 N1330 1.613 . S
S1329 N1331 1.610 . S
N1330 S1329 1.613 . S
N1330 C1333 1.350 . S
N1331 S1329 1.610 . S
N1331 C1332 1.351 . S
C1332 C1326 1.428 . S
C1332 N1331 1.351 . S
C1332 C1333 1.434 . S
C1333 C1324 1.429 . S
C1333 N1330 1.350 . S
C1333 C1332 1.434 . S
C1334 C1335 1.369 . S
C1334 C1336 1.419 . S
C1334 H1338 0.930 . S
C1335 C1334 1.369 . S
C1335 C1344 1.429 . S
C1336 C1334 1.419 . S
C1336 C1337 1.363 . S
C1336 H1339 0.929 . S
C1337 C1336 1.363 . S
C1337 C1343 1.428 . S
H1338 C1334 0.930 . S
H1339 C1336 0.929 . S
S1340 N1341 1.613 . S
S1340 N1342 1.610 . S
N1341 S1340 1.613 . S
N1341 C1344 1.350 . S
N1342 S1340 1.610 . S
N1342 C1343 1.351 . S
C1343 C1337 1.428 . S
C1343 N1342 1.351 . S
C1343 C1344 1.434 . S
C1344 C1335 1.429 . S
C1344 N1341 1.350 . S
C1344 C1343 1.434 . S
C1345 C1346 1.369 . S
C1345 C1347 1.419 . S
C1345 H1349 0.930 . S
C1346 C1345 1.369 . S
C1346 C1355 1.429 . S
C1347 C1345 1.419 . S
C1347 C1348 1.363 . S
C1347 H1350 0.929 . S
C1348 C1347 1.363 . S
C1348 C1354 1.428 . S
H1349 C1345 0.930 . S
H1350 C1347 0.929 . S
S1351 N1352 1.613 . S
S1351 N1353 1.610 . S
N1352 S1351 1.613 . S
N1352 C1355 1.350 . S
N1353 S1351 1.610 . S
N1353 C1354 1.351 . S
C1354 C1348 1.428 . S
C1354 N1353 1.351 . S
C1354 C1355 1.434 . S
C1355 C1346 1.429 . S
C1355 N1352 1.350 . S
C1355 C1354 1.434 . S
C1356 C1357 1.369 . S
C1356 C1358 1.419 . S
C1356 H1360 0.930 . S
C1357 C1356 1.369 . S
C1357 C1366 1.429 . S
C1358 C1356 1.419 . S
C1358 C1359 1.363 . S
C1358 H1361 0.929 . S
C1359 C1358 1.363 . S
C1359 C1365 1.428 . S
H1360 C1356 0.930 . S
H1361 C1358 0.929 . S
S1362 N1363 1.613 . S
S1362 N1364 1.610 . S
N1363 S1362 1.613 . S
N1363 C1366 1.350 . S
N1364 S1362 1.610 . S
N1364 C1365 1.351 . S
C1365 C1359 1.428 . S
C1365 N1364 1.351 . S
C1365 C1366 1.434 . S
C1366 C1357 1.429 . S
C1366 N1363 1.350 . S
C1366 C1365 1.434 . S
C1367 C1368 1.369 . S
C1367 C1369 1.419 . S
C1367 H1371 0.930 . S
C1368 C1367 1.369 . S
C1368 C1377 1.429 . S
C1369 C1367 1.419 . S
C1369 C1370 1.363 . S
C1369 H1372 0.929 . S
C1370 C1369 1.363 . S
C1370 C1376 1.428 . S
H1371 C1367 0.930 . S
H1372 C1369 0.929 . S
S1373 N1374 1.613 . S
S1373 N1375 1.610 . S
N1374 S1373 1.613 . S
N1374 C1377 1.350 . S
N1375 S1373 1.610 . S
N1375 C1376 1.351 . S
C1376 C1370 1.428 . S
C1376 N1375 1.351 . S
C1376 C1377 1.434 . S
C1377 C1368 1.429 . S
C1377 N1374 1.350 . S
C1377 C1376 1.434 . S
C1378 C1379 1.369 . S
C1378 C1380 1.419 . S
C1378 H1382 0.930 . S
C1379 C1378 1.369 . S
C1379 C1388 1.429 . S
C1380 C1378 1.419 . S
C1380 C1381 1.363 . S
C1380 H1383 0.929 . S
C1381 C1380 1.363 . S
C1381 C1387 1.428 . S
H1382 C1378 0.930 . S
H1383 C1380 0.929 . S
S1384 N1385 1.613 . S
S1384 N1386 1.610 . S
N1385 S1384 1.613 . S
N1385 C1388 1.350 . S
N1386 S1384 1.610 . S
N1386 C1387 1.351 . S
C1387 C1381 1.428 . S
C1387 N1386 1.351 . S
C1387 C1388 1.434 . S
C1388 C1379 1.429 . S
C1388 N1385 1.350 . S
C1388 C1387 1.434 . S
C1389 C1390 1.369 1_455 S
C1389 C1391 1.419 . S
C1389 H1393 0.930 . S
C1390 C1389 1.369 1_655 S
C1390 C1399 1.429 . S
C1391 C1389 1.419 . S
C1391 C1392 1.363 1_455 S
C1391 H1394 0.929 . S
C1392 C1391 1.363 1_655 S
C1392 C1398 1.428 . S
H1393 C1389 0.930 . S
H1394 C1391 0.929 . S
S1395 N1396 1.613 . S
S1395 N1397 1.610 . S
N1396 S1395 1.613 . S
N1396 C1399 1.350 . S
N1397 S1395 1.610 . S
N1397 C1398 1.351 . S
C1398 C1392 1.428 . S
C1398 N1397 1.351 . S
C1398 C1399 1.434 . S
C1399 C1390 1.429 . S
C1399 N1396 1.350 . S
C1399 C1398 1.434 . S
C1400 C1401 1.369 . S
C1400 C1402 1.419 . S
C1400 H1404 0.930 . S
C1401 C1400 1.369 . S
C1401 C1410 1.429 . S
C1402 C1400 1.419 . S
C1402 C1403 1.363 . S
C1402 H1405 0.929 . S
C1403 C1402 1.363 . S
C1403 C1409 1.428 . S
H1404 C1400 0.930 . S
H1405 C1402 0.929 . S
S1406 N1407 1.613 . S
S1406 N1408 1.610 . S
N1407 S1406 1.613 . S
N1407 C1410 1.350 . S
N1408 S1406 1.610 . S
N1408 C1409 1.351 . S
C1409 C1403 1.428 . S
C1409 N1408 1.351 . S
C1409 C1410 1.434 . S
C1410 C1401 1.429 . S
C1410 N1407 1.350 . S
C1410 C1409 1.434 . S
C1411 C1412 1.369 . S
C1411 C1413 1.419 . S
C1411 H1415 0.930 . S
C1412 C1411 1.369 . S
C1412 C1421 1.429 1_545 S
C1413 C1411 1.419 . S
C1413 C1414 1.363 . S
C1413 H1416 0.929 . S
C1414 C1413 1.363 . S
C1414 C1420 1.428 1_545 S
H1415 C1411 0.930 . S
H1416 C1413 0.929 . S
S1417 N1418 1.613 . S
S1417 N1419 1.610 . S
N1418 S1417 1.613 . S
N1418 C1421 1.350 . S
N1419 S1417 1.610 . S
N1419 C1420 1.351 . S
C1420 C1414 1.428 1_565 S
C1420 N1419 1.351 . S
C1420 C1421 1.434 . S
C1421 C1412 1.429 1_565 S
C1421 N1418 1.350 . S
C1421 C1420 1.434 . S
C631 C13 1.504 . S
C633 C458 1.534 1_655 S
C642 C27 1.420 . S
C644 C471 1.451 . S
C655 C500 1.517 1_545 S
C653 C36 1.470 . S
C664 C41 1.463 . S
C666 C513 1.508 . S
C675 C8 1.549 . S
C677 C534 1.614 . S
C686 C22 1.459 . S
C688 C563 1.501 . S
C697 C55 1.510 . S
C699 C542 1.524 . S
C710 C555 1.458 . S
C708 C69 1.422 . S
C721 C521 1.525 . S
C719 C78 1.469 . S
C730 C83 1.482 . S
C732 C492 1.508 1_545 S
C743 C450 1.602 1_655 S
C741 C50 1.548 . S
C752 C64 1.461 . S
C754 C479 1.501 . S
C763 C97 1.506 . S
C765 C584 1.538 . S
C774 C111 1.426 . S
C776 C597 1.472 . S
C787 C626 1.521 . S
C785 C120 1.519 . S
C796 C125 1.471 . S
C798 C261 1.538 . S
C807 C92 1.616 . S
C809 C282 1.661 . S
C818 C106 1.483 . S
C820 C311 1.511 . S
C829 C139 1.497 . S
C831 C290 1.543 . S
C840 C153 1.443 . S
C842 C303 1.462 . S
C853 C269 1.546 . S
C851 C162 1.500 . S
C864 C618 1.514 . S
C862 C167 1.485 . S
C875 C576 1.603 . S
C873 C134 1.588 . S
C886 C605 1.525 . S
C884 C148 1.474 . S
C895 C181 1.499 . S
C897 C332 1.527 . S
C906 C195 1.436 . S
C908 C345 1.467 . S
C917 C204 1.518 . S
C919 C374 1.530 . S
C928 C209 1.479 . S
C930 C387 1.544 . S
C941 C408 1.666 . S
C939 C176 1.618 . S
C952 C437 1.509 . S
C950 C190 1.490 . S
C963 C416 1.566 . S
C961 C223 1.501 . S
C974 C429 1.470 . S
C972 C237 1.430 . S
C983 C246 1.495 . S
C985 C395 1.539 . S
C996 C366 1.501 . S
C994 C251 1.474 . S
C1005 C218 1.581 . S
C1007 C324 1.604 . S
C1018 C353 1.528 . S
C1016 C232 1.473 . S
C1029 C264 1.354 . S
C1027 C11 1.436 . S
C1038 C25 1.337 . S
C1040 C285 1.270 . S
C1051 C313 1.303 . S
C1049 C35 1.415 . S
C1062 C334 1.301 . S
C1060 C39 1.408 . S
C1073 C348 1.380 . S
C1071 C7 1.495 . S
C1084 C376 1.288 . S
C1082 C21 1.408 . S
C1093 C53 1.458 . S
C1095 C369 1.298 . S
C1104 C67 1.360 . S
C1106 C327 1.210 . S
C1115 C77 1.426 . S
C1117 C355 1.351 . S
C1126 C81 1.443 . S
C1128 C292 1.382 . S
C1139 C306 1.334 . S
C1137 C49 1.514 . S
C1148 C63 1.434 . S
C1150 C271 1.348 . S
C1161 C390 1.329 . S
C1159 C95 1.432 . S
C1170 C109 1.365 . S
C1172 C411 1.287 . S
C1181 C119 1.444 . S
C1183 C439 1.335 . S
C1194 C460 1.258 . S
C1192 C123 1.365 . S
C1203 C91 1.484 . S
C1205 C474 1.365 . S
C1214 C105 1.371 . S
C1216 C502 1.275 . S
C1225 C137 1.412 . S
C1227 C495 1.267 . S
C1236 C151 1.309 . S
C1238 C453 1.199 . S
C1249 C481 1.346 . S
C1247 C161 1.428 . S
C1258 C165 1.434 . S
C1260 C418 1.366 . S
C1269 C133 1.525 . S
C1271 C432 1.342 . S
C1282 C397 1.379 . S
C1280 C147 1.461 . S
C1293 C516 1.269 1_545 S
C1291 C179 1.412 . S
C1302 C193 1.302 . S
C1304 C537 1.201 1_655 S
C1313 C203 1.408 . S
C1315 C565 1.307 . S
C1326 C586 1.286 . S
C1324 C207 1.410 . S
C1337 C600 1.383 . S
C1335 C175 1.508 . S
C1346 C189 1.440 . S
C1348 C628 1.323 . S
C1357 C221 1.451 . S
C1359 C621 1.277 . S
C1368 C235 1.383 . S
C1370 C579 1.242 . S
C1381 C607 1.371 . S
C1379 C245 1.457 . S
C1392 C544 1.290 1_655 S
C1390 C249 1.368 . S
C1403 C558 1.330 . S
C1401 C217 1.503 . S
C1412 C231 1.393 . S
C1414 C523 1.313 1_545 S
