# Generated by pormake.
# Topology ssa, (4,4)-cn, num edge types: 1
# Building blocks:
#     Node 0, Type 0, BuildingBlock: ESEHIV_clean_sbu_0, # of connection points: 4
#     Node 1, Type 0, BuildingBlock: ESEHIV_clean_sbu_0, # of connection points: 4
#     Node 2, Type 0, BuildingBlock: ESEHIV_clean_sbu_0, # of connection points: 4
#     Node 3, Type 0, BuildingBlock: ESEHIV_clean_sbu_0, # of connection points: 4
#     Node 4, Type 0, BuildingBlock: ESEHIV_clean_sbu_0, # of connection points: 4
#     Node 5, Type 0, BuildingBlock: ESEHIV_clean_sbu_0, # of connection points: 4
#     Node 6, Type 1, BuildingBlock: NAHDIM_clean_linker_0, # of connection points: 4
#     Node 7, Type 1, BuildingBlock: NAHDIM_clean_linker_0, # of connection points: 4
#     Node 8, Type 1, BuildingBlock: NAHDIM_clean_linker_0, # of connection points: 4
#     Node 9, Type 1, BuildingBlock: NAHDIM_clean_linker_0, # of connection points: 4
#     Node 10, Type 1, BuildingBlock: NAHDIM_clean_linker_0, # of connection points: 4
#     Node 11, Type 1, BuildingBlock: NAHDIM_clean_linker_0, # of connection points: 4
#     Edge 12, Type (0, 1), BuildingBlock: UVAHIK_clean_linker_0, # of connection points: 2
#     Edge 13, Type (0, 1), BuildingBlock: UVAHIK_clean_linker_0, # of connection points: 2
#     Edge 14, Type (0, 1), BuildingBlock: UVAHIK_clean_linker_0, # of connection points: 2
#     Edge 15, Type (0, 1), BuildingBlock: UVAHIK_clean_linker_0, # of connection points: 2
#     Edge 16, Type (0, 1), BuildingBlock: UVAHIK_clean_linker_0, # of connection points: 2
#     Edge 17, Type (0, 1), BuildingBlock: UVAHIK_clean_linker_0, # of connection points: 2
#     Edge 18, Type (0, 1), BuildingBlock: UVAHIK_clean_linker_0, # of connection points: 2
#     Edge 19, Type (0, 1), BuildingBlock: UVAHIK_clean_linker_0, # of connection points: 2
#     Edge 20, Type (0, 1), BuildingBlock: UVAHIK_clean_linker_0, # of connection points: 2
#     Edge 21, Type (0, 1), BuildingBlock: UVAHIK_clean_linker_0, # of connection points: 2
#     Edge 22, Type (0, 1), BuildingBlock: UVAHIK_clean_linker_0, # of connection points: 2
#     Edge 23, Type (0, 1), BuildingBlock: UVAHIK_clean_linker_0, # of connection points: 2
#     Edge 24, Type (0, 1), BuildingBlock: UVAHIK_clean_linker_0, # of connection points: 2
#     Edge 25, Type (0, 1), BuildingBlock: UVAHIK_clean_linker_0, # of connection points: 2
#     Edge 26, Type (0, 1), BuildingBlock: UVAHIK_clean_linker_0, # of connection points: 2
#     Edge 27, Type (0, 1), BuildingBlock: UVAHIK_clean_linker_0, # of connection points: 2
#     Edge 28, Type (0, 1), BuildingBlock: UVAHIK_clean_linker_0, # of connection points: 2
#     Edge 29, Type (0, 1), BuildingBlock: UVAHIK_clean_linker_0, # of connection points: 2
#     Edge 30, Type (0, 1), BuildingBlock: UVAHIK_clean_linker_0, # of connection points: 2
#     Edge 31, Type (0, 1), BuildingBlock: UVAHIK_clean_linker_0, # of connection points: 2
#     Edge 32, Type (0, 1), BuildingBlock: UVAHIK_clean_linker_0, # of connection points: 2
#     Edge 33, Type (0, 1), BuildingBlock: UVAHIK_clean_linker_0, # of connection points: 2
#     Edge 34, Type (0, 1), BuildingBlock: UVAHIK_clean_linker_0, # of connection points: 2
#     Edge 35, Type (0, 1), BuildingBlock: UVAHIK_clean_linker_0, # of connection points: 2
# Relax obj value: 0.016
# Max RMSD: 0.105
# Mean RMSD: 0.070
data_MOF--net-ssa--node1-ESEHIV_clean_sbu_0--node2-NAHDIM_clean_linker_0--edge1-UVAHIK_clean_linker_0
_symmetry_space_group_name_H-M    P1
_symmetry_Int_Tables_number       1
_symmetry_cell_setting            triclinic
loop_
_symmetry_equiv_pos_as_xyz
'x, y, z'
_cell_length_a     74.71577
_cell_length_b     78.203753
_cell_length_c     66.039261
_cell_angle_alpha  88.748484
_cell_angle_beta   90.96449
_cell_angle_gamma 121.57548
loop_
_atom_site_label
_atom_site_type_symbol
_atom_site_fract_x
_atom_site_fract_y
_atom_site_fract_z
_atom_type_partial_charge
Cu0 Cu 0.04389 0.511 0.99367 0.0
N1 N 0.04362 0.49675 0.97121 0.0
N2 N 0.03089 0.4718 0.94909 0.0
C3 C 0.02703 0.4789 0.96582 0.0
C4 C 0.05071 0.48575 0.94369 0.0
C5 C 0.0586 0.50111 0.95746 0.0
O6 O 0.02078 0.51551 0.98991 0.0
C7 C 0.05221 0.48702 0.01886 0.0
O8 O 0.06225 0.48729 0.00261 0.0
H9 H 0.01235 0.47134 0.974 0.0
H10 H 0.07423 0.51428 0.95758 0.0
N11 N 0.06842 0.53616 0.99601 0.0
N12 N 0.0906 0.56552 0.01051 0.0
C13 C 0.07432 0.54656 0.0133 0.0
C14 C 0.08151 0.54895 0.98171 0.0
C15 C 0.09523 0.56709 0.99063 0.0
C16 C 0.02209 0.52552 0.97394 0.0
O17 O 0.03813 0.53137 0.96186 0.0
H18 H 0.06583 0.54071 0.02737 0.0
H19 H 0.08042 0.54581 0.96575 0.0
O20 O 0.04209 0.49602 0.01832 0.0
H21 H 0.05906 0.4847 0.93101 0.0
H22 H 0.10714 0.58058 0.98294 0.0
Cu23 Cu 0.50461 0.98843 0.52995 0.0
N24 N 0.5104 0.96798 0.5283 0.0
N25 N 0.52056 0.94844 0.51478 0.0
C26 C 0.51096 0.95887 0.51143 0.0
C27 C 0.52603 0.95094 0.53455 0.0
C28 C 0.51992 0.96309 0.54277 0.0
O29 O 0.48604 0.98642 0.50811 0.0
C30 C 0.535 0.03067 0.53218 0.0
O31 O 0.51902 0.03328 0.53201 0.0
H32 H 0.50607 0.96119 0.49665 0.0
H33 H 0.52372 0.96925 0.55782 0.0
N34 N 0.49131 0.98675 0.55432 0.0
N35 N 0.47683 0.99506 0.5786 0.0
C36 C 0.48382 0.99844 0.55936 0.0
C37 C 0.48851 0.97523 0.57085 0.0
C38 C 0.47971 0.98041 0.58589 0.0
C39 C 0.49067 0.98934 0.48942 0.0
O40 O 0.50988 0.9953 0.48378 0.0
H41 H 0.48408 0.00966 0.5493 0.0
H42 H 0.49277 0.96403 0.57208 0.0
O43 O 0.53177 0.01318 0.52986 0.0
H44 H 0.53485 0.94531 0.54229 0.0
H45 H 0.47585 0.97399 0.60103 0.0
Cu46 Cu 0.50535 0.50261 0.01566 0.0
N47 N 0.48946 0.49014 0.99266 0.0
N48 N 0.47358 0.4672 0.96862 0.0
C49 C 0.4889 0.47496 0.98283 0.0
C50 C 0.46423 0.47798 0.96949 0.0
C51 C 0.4741 0.49216 0.98434 0.0
O52 O 0.5318 0.50381 0.01315 0.0
C53 C 0.49382 0.48911 0.05707 0.0
O54 O 0.51293 0.50314 0.06237 0.0
H55 H 0.49869 0.46896 0.98685 0.0
H56 H 0.46983 0.50263 0.98933 0.0
N57 N 0.51038 0.52862 0.01712 0.0
N58 N 0.51876 0.55818 0.02995 0.0
C59 C 0.51184 0.53868 0.03398 0.0
C60 C 0.51626 0.54212 0.00183 0.0
C61 C 0.52146 0.56037 0.00969 0.0
C62 C 0.54906 0.51832 0.01988 0.0
O63 O 0.54884 0.53186 0.0311 0.0
H64 H 0.50915 0.53217 0.04904 0.0
H65 H 0.51754 0.53908 0.98619 0.0
O66 O 0.48862 0.48656 0.03845 0.0
H67 H 0.45087 0.47543 0.96042 0.0
H68 H 0.52731 0.57427 0.00119 0.0
Cu69 Cu 0.01771 0.50798 0.51997 0.0
N70 N 0.03826 0.50129 0.5209 0.0
N71 N 0.05865 0.49046 0.50992 0.0
C72 C 0.04365 0.49452 0.50502 0.0
C73 C 0.06271 0.49466 0.5298 0.0
C74 C 0.05009 0.50139 0.53654 0.0
O75 O 0.0203 0.52194 0.49432 0.0
C76 C 0.9883 0.47595 0.54249 0.0
O77 O 0.00274 0.48614 0.55627 0.0
H78 H 0.03646 0.49241 0.49019 0.0
H79 H 0.04952 0.50598 0.55173 0.0
N80 N 0.02157 0.52572 0.5404 0.0
N81 N 0.01351 0.54091 0.56358 0.0
C82 C 0.00603 0.5261 0.54994 0.0
C83 C 0.03957 0.54095 0.54811 0.0
C84 C 0.03462 0.55041 0.56244 0.0
C85 C 0.03908 0.53546 0.48971 0.0
O86 O 0.05443 0.53841 0.50199 0.0
H87 H 0.98953 0.51578 0.54678 0.0
H88 H 0.05514 0.54489 0.54362 0.0
O89 O 0.99113 0.48288 0.52441 0.0
H90 H 0.07413 0.4932 0.53874 0.0
H91 H 0.04565 0.56303 0.57154 0.0
Cu92 Cu 0.52976 0.02556 0.03454 0.0
N93 N 0.52738 0.04811 0.03264 0.0
N94 N 0.51922 0.06981 0.0196 0.0
C95 C 0.52361 0.05553 0.01563 0.0
C96 C 0.52039 0.0715 0.03995 0.0
C97 C 0.52536 0.05805 0.04794 0.0
O98 O 0.54477 0.02485 0.01124 0.0
C99 C 0.49612 0.98423 0.03736 0.0
O100 O 0.50991 0.97955 0.03218 0.0
H101 H 0.5227 0.04964 0.00074 0.0
H102 H 0.52632 0.05499 0.06384 0.0
N103 N 0.54545 0.02693 0.05739 0.0
N104 N 0.56061 0.01744 0.08082 0.0
C105 C 0.54693 0.01166 0.06515 0.0
C106 C 0.55876 0.04302 0.06844 0.0
C107 C 0.56811 0.03721 0.08295 0.0
C108 C 0.53815 0.02143 0.99305 0.0
O109 O 0.51872 0.01634 0.98893 0.0
H110 H 0.5388 0.99681 0.05885 0.0
H111 H 0.56188 0.05804 0.06582 0.0
O112 O 0.50153 0.00257 0.03779 0.0
H113 H 0.51715 0.08122 0.0485 0.0
H114 H 0.57969 0.04685 0.09402 0.0
Cu115 Cu 0.51687 0.49633 0.51672 0.0
N116 N 0.53765 0.51119 0.49772 0.0
N117 N 0.55709 0.53548 0.47531 0.0
C118 C 0.53857 0.52533 0.48508 0.0
C119 C 0.56821 0.52732 0.482 0.0
C120 C 0.55612 0.51228 0.49583 0.0
O121 O 0.49182 0.49654 0.50879 0.0
C122 C 0.53983 0.52615 0.54583 0.0
O123 O 0.54216 0.53854 0.53093 0.0
H124 H 0.52641 0.52892 0.48404 0.0
H125 H 0.56077 0.50335 0.50456 0.0
N126 N 0.5104 0.46992 0.51692 0.0
N127 N 0.49961 0.43912 0.52877 0.0
C128 C 0.5073 0.45845 0.53351 0.0
C129 C 0.50469 0.45753 0.50109 0.0
C130 C 0.49794 0.43844 0.50838 0.0
C131 C 0.47369 0.48249 0.51437 0.0
O132 O 0.47221 0.46912 0.52774 0.0
H133 H 0.50928 0.46392 0.5488 0.0
H134 H 0.50448 0.46191 0.48548 0.0
O135 O 0.52807 0.50735 0.54319 0.0
H136 H 0.5841 0.53221 0.4776 0.0
H137 H 0.4917 0.42502 0.49945 0.0
C138 C 0.11476 0.39346 0.35196 0.0
C139 C 0.13364 0.40819 0.36492 0.0
C140 C 0.16459 0.42426 0.34266 0.0
C141 C 0.18003 0.44268 0.33439 0.0
C142 C 0.19701 0.44451 0.32367 0.0
C143 C 0.19829 0.42731 0.32081 0.0
C144 C 0.1826 0.40854 0.32892 0.0
C145 C 0.16597 0.4072 0.33989 0.0
C146 C 0.21357 0.46481 0.31539 0.0
C147 C 0.18338 0.38986 0.32595 0.0
C148 C 0.3314 0.43633 0.39336 0.0
C149 C 0.31352 0.42808 0.37869 0.0
C150 C 0.29987 0.43876 0.35046 0.0
C151 C 0.28162 0.41984 0.34745 0.0
C152 C 0.2658 0.41754 0.33398 0.0
C153 C 0.26797 0.43457 0.32365 0.0
C154 C 0.28633 0.45364 0.3266 0.0
C155 C 0.30219 0.4554 0.33974 0.0
C156 C 0.24659 0.39692 0.33109 0.0
C157 C 0.28904 0.47223 0.31623 0.0
C158 C 0.30439 0.43624 0.19464 0.0
C159 C 0.28665 0.41741 0.19952 0.0
C160 C 0.26919 0.41598 0.20893 0.0
C161 C 0.2695 0.43369 0.21363 0.0
C162 C 0.28714 0.45264 0.20838 0.0
C163 C 0.30435 0.45364 0.19891 0.0
C164 C 0.25052 0.39554 0.21419 0.0
C165 C 0.28794 0.47181 0.21312 0.0
C166 C 0.12149 0.41696 0.20055 0.0
C167 C 0.13819 0.43384 0.18715 0.0
C168 C 0.16781 0.42901 0.18941 0.0
C169 C 0.16942 0.41201 0.19046 0.0
C170 C 0.18578 0.41215 0.20141 0.0
C171 C 0.20122 0.42997 0.21101 0.0
C172 C 0.20025 0.44755 0.20904 0.0
C173 C 0.18344 0.44683 0.19839 0.0
C174 C 0.18634 0.39316 0.20303 0.0
C175 C 0.21687 0.46707 0.21832 0.0
C176 C 0.21609 0.42897 0.30939 0.0
C177 C 0.23321 0.43102 0.32042 0.0
C178 C 0.25048 0.43254 0.31071 0.0
C179 C 0.25077 0.43208 0.2893 0.0
C180 C 0.26764 0.43316 0.27899 0.0
C181 C 0.26799 0.43318 0.25792 0.0
C182 C 0.25143 0.43205 0.24633 0.0
C183 C 0.2518 0.43241 0.22491 0.0
C184 C 0.23526 0.43164 0.21385 0.0
C185 C 0.21799 0.43011 0.22362 0.0
C186 C 0.2171 0.42918 0.24504 0.0
C187 C 0.19965 0.42691 0.25539 0.0
C188 C 0.19918 0.42662 0.27644 0.0
C189 C 0.21617 0.42867 0.28799 0.0
C190 C 0.23366 0.43041 0.27792 0.0
C191 C 0.23405 0.43052 0.25641 0.0
C192 C 0.34458 0.42963 0.16987 0.0
C193 C 0.32499 0.42286 0.18147 0.0
O194 O 0.14868 0.42371 0.35295 0.0
O195 O 0.15123 0.42792 0.17937 0.0
O196 O 0.3218 0.43831 0.18595 0.0
O197 O 0.31537 0.4416 0.36367 0.0
H198 H 0.14043 0.39999 0.37252 0.0
H199 H 0.11963 0.38656 0.34048 0.0
H200 H 0.1078 0.40126 0.34389 0.0
H201 H 0.10257 0.38124 0.36165 0.0
H202 H 0.17881 0.45573 0.33655 0.0
H203 H 0.15409 0.39277 0.34602 0.0
H204 H 0.2294 0.46841 0.32045 0.0
H205 H 0.21115 0.47696 0.32027 0.0
H206 H 0.21326 0.46452 0.29859 0.0
H207 H 0.16906 0.37611 0.33165 0.0
H208 H 0.19724 0.39138 0.33409 0.0
H209 H 0.18521 0.38802 0.30963 0.0
H210 H 0.30886 0.41306 0.37271 0.0
H211 H 0.3389 0.42721 0.39121 0.0
H212 H 0.31775 0.43644 0.42067 0.0
H213 H 0.34466 0.45038 0.38612 0.0
H214 H 0.27956 0.40675 0.35553 0.0
H215 H 0.31629 0.46993 0.34213 0.0
H216 H 0.24247 0.39411 0.31476 0.0
H217 H 0.2331 0.396 0.33894 0.0
H218 H 0.24887 0.38488 0.33734 0.0
H219 H 0.30323 0.48615 0.32169 0.0
H220 H 0.27503 0.47334 0.31881 0.0
H221 H 0.29046 0.47128 0.29966 0.0
H222 H 0.32256 0.41282 0.19476 0.0
H223 H 0.28635 0.40378 0.19615 0.0
H224 H 0.31803 0.46809 0.195 0.0
H225 H 0.24844 0.394 0.23087 0.0
H226 H 0.2523 0.38316 0.20877 0.0
H227 H 0.23602 0.39393 0.20742 0.0
H228 H 0.30258 0.48535 0.2076 0.0
H229 H 0.2869 0.4729 0.22975 0.0
H230 H 0.27424 0.47163 0.20609 0.0
H231 H 0.14739 0.44737 0.19663 0.0
H232 H 0.11092 0.42145 0.20694 0.0
H233 H 0.12916 0.4137 0.21334 0.0
H234 H 0.11198 0.40304 0.19169 0.0
H235 H 0.15743 0.39843 0.18316 0.0
H236 H 0.18268 0.46025 0.19686 0.0
H237 H 0.18733 0.38948 0.21919 0.0
H238 H 0.20058 0.39549 0.19536 0.0
H239 H 0.17229 0.38018 0.19604 0.0
H240 H 0.21566 0.47997 0.21282 0.0
H241 H 0.23279 0.47015 0.21483 0.0
H242 H 0.21514 0.46595 0.23503 0.0
H243 H 0.23307 0.4314 0.33683 0.0
H244 H 0.28084 0.4341 0.28711 0.0
H245 H 0.28149 0.4342 0.25084 0.0
H246 H 0.23586 0.43227 0.19743 0.0
H247 H 0.18617 0.42537 0.24732 0.0
H248 H 0.18537 0.42491 0.28355 0.0
H249 H 0.3547 0.42654 0.18026 0.0
H250 H 0.35457 0.44644 0.17139 0.0
H251 H 0.33357 0.41562 0.1419 0.0
C252 C 0.87535 0.26714 0.87937 0.0
C253 C 0.88567 0.28087 0.86084 0.0
C254 C 0.8563 0.26616 0.83632 0.0
C255 C 0.85734 0.2492 0.83177 0.0
C256 C 0.84213 0.23408 0.81931 0.0
C257 C 0.82542 0.2358 0.8114 0.0
C258 C 0.82434 0.25284 0.81589 0.0
C259 C 0.83994 0.26789 0.82814 0.0
C260 C 0.84386 0.21618 0.81468 0.0
C261 C 0.80661 0.25505 0.80787 0.0
C262 C 0.70406 0.08956 0.83306 0.0
C263 C 0.70698 0.10493 0.84886 0.0
C264 C 0.72547 0.13718 0.82993 0.0
C265 C 0.72326 0.15247 0.82136 0.0
C266 C 0.7399 0.16881 0.81102 0.0
C267 C 0.75921 0.16974 0.80899 0.0
C268 C 0.76167 0.15441 0.81775 0.0
C269 C 0.74484 0.13835 0.82823 0.0
C270 C 0.73678 0.18503 0.80217 0.0
C271 C 0.78207 0.15496 0.81591 0.0
C272 C 0.73439 0.13758 0.67859 0.0
C273 C 0.73007 0.15229 0.68409 0.0
C274 C 0.74512 0.16948 0.69445 0.0
C275 C 0.76484 0.17195 0.69932 0.0
C276 C 0.76957 0.15761 0.69292 0.0
C277 C 0.75429 0.14067 0.68242 0.0
C278 C 0.73982 0.18479 0.70055 0.0
C279 C 0.79056 0.15993 0.69764 0.0
C280 C 0.9043 0.30325 0.67055 0.0
C281 C 0.88546 0.29621 0.65615 0.0
C282 C 0.85467 0.27525 0.67787 0.0
C283 C 0.83713 0.27402 0.68662 0.0
C284 C 0.82279 0.25712 0.69811 0.0
C285 C 0.82633 0.24116 0.70122 0.0
C286 C 0.84414 0.24233 0.69258 0.0
C287 C 0.85804 0.25927 0.68085 0.0
C288 C 0.80376 0.25625 0.70676 0.0
C289 C 0.84844 0.22563 0.6957 0.0
C290 C 0.80896 0.21958 0.79868 0.0
C291 C 0.79237 0.20289 0.80851 0.0
C292 C 0.77675 0.18668 0.79757 0.0
C293 C 0.77775 0.18698 0.77617 0.0
C294 C 0.76279 0.17061 0.76471 0.0
C295 C 0.7637 0.17116 0.74366 0.0
C296 C 0.77945 0.1882 0.73324 0.0
C297 C 0.78022 0.18908 0.71184 0.0
C298 C 0.79574 0.20642 0.70195 0.0
C299 C 0.81094 0.22294 0.71286 0.0
C300 C 0.81087 0.2221 0.7343 0.0
C301 C 0.8264 0.23809 0.74578 0.0
C302 C 0.82598 0.23721 0.76686 0.0
C303 C 0.80982 0.22045 0.77728 0.0
C304 C 0.79415 0.20406 0.766 0.0
C305 C 0.79484 0.20478 0.7445 0.0
C306 C 0.69229 0.08846 0.68188 0.0
C307 C 0.69848 0.10946 0.6742 0.0
O308 O 0.87052 0.28106 0.84855 0.0
O309 O 0.86778 0.29209 0.66685 0.0
O310 O 0.71971 0.12023 0.66969 0.0
O311 O 0.70849 0.12167 0.83945 0.0
H312 H 0.89429 0.27544 0.85213 0.0
H313 H 0.86418 0.25149 0.87462 0.0
H314 H 0.8666 0.27235 0.8882 0.0
H315 H 0.88745 0.26706 0.88931 0.0
H316 H 0.86988 0.24754 0.83784 0.0
H317 H 0.83925 0.281 0.83168 0.0
H318 H 0.83033 0.20243 0.82141 0.0
H319 H 0.85861 0.21776 0.82073 0.0
H320 H 0.84323 0.21408 0.79805 0.0
H321 H 0.80743 0.26869 0.81361 0.0
H322 H 0.79128 0.24167 0.81227 0.0
H323 H 0.80712 0.2559 0.79108 0.0
H324 H 0.72154 0.10952 0.85778 0.0
H325 H 0.70244 0.07601 0.84068 0.0
H326 H 0.71783 0.09596 0.82287 0.0
H327 H 0.68984 0.08501 0.82363 0.0
H328 H 0.70834 0.15153 0.82278 0.0
H329 H 0.74699 0.12678 0.83485 0.0
H330 H 0.7374 0.18492 0.78539 0.0
H331 H 0.74963 0.2 0.80724 0.0
H332 H 0.72148 0.183 0.80656 0.0
H333 H 0.78102 0.14118 0.82223 0.0
H334 H 0.79467 0.16812 0.82412 0.0
H335 H 0.78673 0.15674 0.79976 0.0
H336 H 0.69498 0.11641 0.68688 0.0
H337 H 0.71495 0.15036 0.68035 0.0
H338 H 0.75757 0.12938 0.67777 0.0
H339 H 0.73926 0.18508 0.71733 0.0
H340 H 0.72444 0.18146 0.6943 0.0
H341 H 0.75224 0.19999 0.69529 0.0
H342 H 0.79172 0.14735 0.69174 0.0
H343 H 0.79315 0.16069 0.71429 0.0
H344 H 0.80332 0.17422 0.69091 0.0
H345 H 0.88238 0.28246 0.6483 0.0
H346 H 0.91853 0.3069 0.66188 0.0
H347 H 0.90127 0.29133 0.68183 0.0
H348 H 0.90749 0.31677 0.67888 0.0
H349 H 0.8346 0.28636 0.68424 0.0
H350 H 0.87146 0.25984 0.67418 0.0
H351 H 0.80451 0.25591 0.72355 0.0
H352 H 0.78924 0.24226 0.70197 0.0
H353 H 0.80258 0.26932 0.7019 0.0
H354 H 0.86399 0.22962 0.6897 0.0
H355 H 0.83608 0.21197 0.68792 0.0
H356 H 0.84784 0.22185 0.71208 0.0
H357 H 0.79165 0.20249 0.82493 0.0
H358 H 0.75021 0.15716 0.77188 0.0
H359 H 0.75176 0.15809 0.73567 0.0
H360 H 0.79595 0.2071 0.68551 0.0
H361 H 0.83909 0.25145 0.73857 0.0
H362 H 0.83837 0.24995 0.7749 0.0
H363 H 0.69623 0.08059 0.67065 0.0
H364 H 0.67517 0.07936 0.68506 0.0
H365 H 0.70094 0.08969 0.69616 0.0
C366 C 0.6311 0.71169 0.33493 0.0
C367 C 0.62175 0.71372 0.35459 0.0
C368 C 0.60418 0.7313 0.34209 0.0
C369 C 0.58467 0.72844 0.33663 0.0
C370 C 0.58305 0.74384 0.32725 0.0
C371 C 0.60149 0.76262 0.32333 0.0
C372 C 0.62128 0.76585 0.32932 0.0
C373 C 0.62246 0.75016 0.33866 0.0
C374 C 0.56167 0.73994 0.32119 0.0
C375 C 0.64121 0.78581 0.32553 0.0
C376 C 0.58247 0.8752 0.39378 0.0
C377 C 0.59247 0.86755 0.38037 0.0
C378 C 0.58329 0.84285 0.35389 0.0
C379 C 0.60407 0.84825 0.34994 0.0
C380 C 0.60827 0.83696 0.33672 0.0
C381 C 0.5914 0.81998 0.32726 0.0
C382 C 0.5705 0.81477 0.33087 0.0
C383 C 0.56675 0.82638 0.34406 0.0
C384 C 0.63074 0.84305 0.33298 0.0
C385 C 0.55211 0.79674 0.32105 0.0
C386 C 0.59784 0.86328 0.19855 0.0
C387 C 0.61704 0.8657 0.20509 0.0
C388 C 0.61769 0.8498 0.21458 0.0
C389 C 0.59878 0.83117 0.2177 0.0
C390 C 0.57949 0.8286 0.21089 0.0
C391 C 0.5793 0.84472 0.20134 0.0
C392 C 0.63855 0.85294 0.22148 0.0
C393 C 0.55907 0.80892 0.21398 0.0
C394 C 0.61356 0.70478 0.19543 0.0
C395 C 0.59553 0.70631 0.18619 0.0
C396 C 0.60224 0.73998 0.19052 0.0
C397 C 0.62043 0.75887 0.19272 0.0
C398 C 0.62042 0.77364 0.20444 0.0
C399 C 0.60156 0.7695 0.21367 0.0
C400 C 0.58285 0.75069 0.21065 0.0
C401 C 0.58343 0.73608 0.19917 0.0
C402 C 0.64062 0.79354 0.20724 0.0
C403 C 0.56227 0.74597 0.21961 0.0
C404 C 0.60009 0.77864 0.31236 0.0
C405 C 0.59733 0.79196 0.32368 0.0
C406 C 0.59548 0.80715 0.31424 0.0
C407 C 0.59675 0.80936 0.2929 0.0
C408 C 0.59548 0.82476 0.28293 0.0
C409 C 0.59644 0.82662 0.26191 0.0
C410 C 0.59849 0.81302 0.25003 0.0
C411 C 0.59918 0.8146 0.22864 0.0
C412 C 0.60036 0.80036 0.21726 0.0
C413 C 0.60137 0.78469 0.22668 0.0
C414 C 0.60159 0.78336 0.24808 0.0
C415 C 0.60349 0.76832 0.25809 0.0
C416 C 0.6032 0.76685 0.27913 0.0
C417 C 0.60089 0.7803 0.29099 0.0
C418 C 0.59923 0.79573 0.28124 0.0
C419 C 0.59982 0.7974 0.25977 0.0
C420 C 0.60699 0.91043 0.17431 0.0
C421 C 0.61299 0.89797 0.18652 0.0
O422 O 0.60448 0.71539 0.35037 0.0
O423 O 0.60317 0.72592 0.17968 0.0
O424 O 0.59649 0.87839 0.18957 0.0
O425 O 0.57851 0.85295 0.36713 0.0
H426 H 0.63384 0.7272 0.36288 0.0
H427 H 0.63674 0.72524 0.32514 0.0
H428 H 0.6191 0.69842 0.32636 0.0
H429 H 0.64469 0.70998 0.33839 0.0
H430 H 0.57065 0.7139 0.33946 0.0
H431 H 0.63768 0.75275 0.34304 0.0
H432 H 0.55897 0.75111 0.32833 0.0
H433 H 0.54881 0.72463 0.32567 0.0
H434 H 0.56102 0.74176 0.30452 0.0
H435 H 0.65535 0.78617 0.33161 0.0
H436 H 0.64008 0.79796 0.33262 0.0
H437 H 0.64321 0.78905 0.30899 0.0
H438 H 0.60303 0.86345 0.38834 0.0
H439 H 0.58426 0.87049 0.40955 0.0
H440 H 0.565 0.86417 0.39296 0.0
H441 H 0.5963 0.90532 0.38484 0.0
H442 H 0.61708 0.8612 0.35715 0.0
H443 H 0.5508 0.82241 0.34707 0.0
H444 H 0.63333 0.83107 0.33877 0.0
H445 H 0.64217 0.85735 0.34046 0.0
H446 H 0.63387 0.84475 0.31645 0.0
H447 H 0.53679 0.7945 0.32569 0.0
H448 H 0.55238 0.78303 0.32513 0.0
H449 H 0.55339 0.79858 0.30432 0.0
H450 H 0.62201 0.90505 0.20067 0.0
H451 H 0.63155 0.87994 0.20289 0.0
H452 H 0.56459 0.84296 0.19617 0.0
H453 H 0.63867 0.85145 0.23823 0.0
H454 H 0.65197 0.86794 0.21693 0.0
H455 H 0.64082 0.84121 0.21505 0.0
H456 H 0.54535 0.80939 0.20795 0.0
H457 H 0.55668 0.80505 0.23039 0.0
H458 H 0.55974 0.79677 0.20634 0.0
H459 H 0.58356 0.70186 0.19823 0.0
H460 H 0.60777 0.68918 0.20081 0.0
H461 H 0.62034 0.71491 0.20859 0.0
H462 H 0.62617 0.70921 0.18413 0.0
H463 H 0.63479 0.76181 0.18568 0.0
H464 H 0.56916 0.7217 0.19678 0.0
H465 H 0.64385 0.79679 0.22363 0.0
H466 H 0.63902 0.80569 0.20018 0.0
H467 H 0.65425 0.79385 0.20033 0.0
H468 H 0.54876 0.73175 0.21378 0.0
H469 H 0.55949 0.75837 0.21621 0.0
H470 H 0.56293 0.74457 0.23633 0.0
H471 H 0.59634 0.79033 0.34005 0.0
H472 H 0.59376 0.83557 0.29129 0.0
H473 H 0.59535 0.83876 0.25507 0.0
H474 H 0.60043 0.80145 0.20085 0.0
H475 H 0.60522 0.7575 0.24977 0.0
H476 H 0.60466 0.75493 0.28597 0.0
H477 H 0.62458 0.91703 0.14784 0.0
H478 H 0.60897 0.9224 0.1849 0.0
H479 H 0.58929 0.90218 0.17424 0.0
C480 C 0.74984 0.58286 0.91233 0.0
C481 C 0.73198 0.58214 0.89976 0.0
C482 C 0.74049 0.57353 0.86717 0.0
C483 C 0.75762 0.59269 0.86216 0.0
C484 C 0.77168 0.59518 0.8469 0.0
C485 C 0.76862 0.57819 0.83656 0.0
C486 C 0.75084 0.55903 0.84092 0.0
C487 C 0.73684 0.55703 0.85602 0.0
C488 C 0.79023 0.61589 0.84232 0.0
C489 C 0.74713 0.54055 0.83028 0.0
C490 C 0.87396 0.58999 0.90492 0.0
C491 C 0.87344 0.57365 0.89211 0.0
C492 C 0.86519 0.58031 0.85841 0.0
C493 C 0.84686 0.56231 0.85322 0.0
C494 C 0.83198 0.56231 0.83998 0.0
C495 C 0.83547 0.58076 0.83197 0.0
C496 C 0.85442 0.59887 0.83656 0.0
C497 C 0.86924 0.59835 0.84951 0.0
C498 C 0.8122 0.54267 0.83508 0.0
C499 C 0.85858 0.61883 0.8285 0.0
C500 C 0.86337 0.58521 0.70207 0.0
C501 C 0.84528 0.56688 0.70737 0.0
C502 C 0.82862 0.56641 0.71737 0.0
C503 C 0.83008 0.58467 0.72208 0.0
C504 C 0.84773 0.60313 0.71563 0.0
C505 C 0.86412 0.60314 0.70551 0.0
C506 C 0.80973 0.54644 0.7235 0.0
C507 C 0.8496 0.62283 0.72013 0.0
C508 C 0.69856 0.59759 0.71506 0.0
C509 C 0.70519 0.59291 0.69509 0.0
C510 C 0.72768 0.58026 0.70716 0.0
C511 C 0.7282 0.56286 0.71087 0.0
C512 C 0.74546 0.56364 0.72057 0.0
C513 C 0.76278 0.58238 0.72655 0.0
C514 C 0.76263 0.60013 0.72249 0.0
C515 C 0.74507 0.59892 0.7129 0.0
C516 C 0.74511 0.5444 0.72462 0.0
C517 C 0.78097 0.62038 0.72847 0.0
C518 C 0.78523 0.5801 0.82302 0.0
C519 C 0.80228 0.58025 0.8322 0.0
C520 C 0.81833 0.58125 0.82074 0.0
C521 C 0.81748 0.5822 0.79937 0.0
C522 C 0.8332 0.58296 0.78732 0.0
C523 C 0.8322 0.58389 0.7663 0.0
C524 C 0.8153 0.58386 0.75649 0.0
C525 C 0.81397 0.58445 0.73511 0.0
C526 C 0.79687 0.58421 0.72585 0.0
C527 C 0.78087 0.58332 0.73739 0.0
C528 C 0.78197 0.58282 0.75881 0.0
C529 C 0.76618 0.58196 0.77091 0.0
C530 C 0.7673 0.58127 0.79195 0.0
C531 C 0.78415 0.58122 0.80169 0.0
C532 C 0.80033 0.58223 0.78982 0.0
C533 C 0.79923 0.58305 0.76836 0.0
C534 C 0.9042 0.58737 0.71941 0.0
C535 C 0.88951 0.57574 0.70176 0.0
O536 O 0.72749 0.5702 0.88291 0.0
O537 O 0.71012 0.57822 0.6982 0.0
O538 O 0.88038 0.58603 0.69396 0.0
O539 O 0.87891 0.58061 0.87231 0.0
H540 H 0.73663 0.59759 0.89478 0.0
H541 H 0.76459 0.58996 0.9035 0.0
H542 H 0.74569 0.56745 0.91692 0.0
H543 H 0.75291 0.59189 0.92615 0.0
H544 H 0.76034 0.60571 0.8703 0.0
H545 H 0.72345 0.54236 0.85983 0.0
H546 H 0.80483 0.61689 0.84797 0.0
H547 H 0.78884 0.62783 0.84954 0.0
H548 H 0.79183 0.6187 0.8257 0.0
H549 H 0.73265 0.52671 0.83557 0.0
H550 H 0.76074 0.53868 0.83291 0.0
H551 H 0.74579 0.54232 0.81371 0.0
H552 H 0.85719 0.56025 0.89256 0.0
H553 H 0.86968 0.58466 0.92085 0.0
H554 H 0.86247 0.59377 0.89885 0.0
H555 H 0.88987 0.60381 0.90467 0.0
H556 H 0.84412 0.5483 0.85972 0.0
H557 H 0.8836 0.61213 0.8535 0.0
H558 H 0.80883 0.5418 0.81857 0.0
H559 H 0.79874 0.54174 0.84303 0.0
H560 H 0.81332 0.52954 0.83985 0.0
H561 H 0.87387 0.63158 0.83388 0.0
H562 H 0.84584 0.62116 0.83328 0.0
H563 H 0.8586 0.6189 0.81169 0.0
H564 H 0.87733 0.56082 0.70793 0.0
H565 H 0.84418 0.55291 0.7038 0.0
H566 H 0.878 0.6172 0.70101 0.0
H567 H 0.80904 0.54502 0.74028 0.0
H568 H 0.8102 0.53359 0.7173 0.0
H569 H 0.7951 0.54557 0.71818 0.0
H570 H 0.86394 0.63585 0.71343 0.0
H571 H 0.85005 0.62474 0.73678 0.0
H572 H 0.8356 0.62279 0.71414 0.0
H573 H 0.71911 0.60679 0.68895 0.0
H574 H 0.69435 0.60915 0.7125 0.0
H575 H 0.71161 0.60349 0.72627 0.0
H576 H 0.68482 0.58383 0.72157 0.0
H577 H 0.7148 0.54855 0.70634 0.0
H578 H 0.74511 0.6126 0.71009 0.0
H579 H 0.74718 0.54272 0.74109 0.0
H580 H 0.75843 0.54499 0.71671 0.0
H581 H 0.73023 0.53098 0.71948 0.0
H582 H 0.77894 0.6329 0.72337 0.0
H583 H 0.79568 0.62269 0.7219 0.0
H584 H 0.78284 0.62091 0.7452 0.0
H585 H 0.80295 0.57935 0.8486 0.0
H586 H 0.84648 0.58288 0.79403 0.0
H587 H 0.84482 0.58453 0.75783 0.0
H588 H 0.79589 0.58446 0.70945 0.0
H589 H 0.75276 0.5818 0.76424 0.0
H590 H 0.75474 0.58066 0.80051 0.0
H591 H 0.91219 0.57962 0.72527 0.0
H592 H 0.89498 0.58823 0.73194 0.0
H593 H 0.91624 0.60291 0.71463 0.0
C594 C 0.13584 0.72837 0.38303 0.0
C595 C 0.12988 0.71326 0.36593 0.0
C596 C 0.16131 0.73241 0.34432 0.0
C597 C 0.15727 0.7472 0.33732 0.0
C598 C 0.17225 0.76373 0.32575 0.0
C599 C 0.19142 0.76532 0.32082 0.0
C600 C 0.19527 0.7502 0.32743 0.0
C601 C 0.18014 0.73396 0.33909 0.0
C602 C 0.16765 0.77956 0.31882 0.0
C603 C 0.21544 0.75126 0.32228 0.0
C604 C 0.3116 0.9123 0.33986 0.0
C605 C 0.30984 0.89807 0.35718 0.0
C606 C 0.29076 0.8649 0.34096 0.0
C607 C 0.29284 0.84932 0.33392 0.0
C608 C 0.27617 0.83279 0.3241 0.0
C609 C 0.25699 0.83204 0.32087 0.0
C610 C 0.25452 0.84746 0.32845 0.0
C611 C 0.27135 0.86364 0.33861 0.0
C612 C 0.27922 0.81632 0.31683 0.0
C613 C 0.23422 0.84702 0.32544 0.0
C614 C 0.29793 0.85804 0.18972 0.0
C615 C 0.29804 0.84183 0.19921 0.0
C616 C 0.28064 0.82727 0.21031 0.0
C617 C 0.26266 0.8288 0.21177 0.0
C618 C 0.26225 0.84476 0.20176 0.0
C619 C 0.27987 0.85911 0.19072 0.0
C620 C 0.2814 0.81013 0.22037 0.0
C621 C 0.24322 0.84668 0.20285 0.0
C622 C 0.11802 0.70499 0.17376 0.0
C623 C 0.13874 0.71246 0.16262 0.0
C624 C 0.16733 0.73053 0.18746 0.0
C625 C 0.18376 0.73032 0.19762 0.0
C626 C 0.19827 0.74657 0.20939 0.0
C627 C 0.19605 0.76335 0.21127 0.0
C628 C 0.17928 0.76358 0.2013 0.0
C629 C 0.1651 0.7472 0.18945 0.0
C630 C 0.21607 0.74588 0.2197 0.0
C631 C 0.17639 0.78119 0.20318 0.0
C632 C 0.20755 0.78274 0.30874 0.0
C633 C 0.22344 0.79925 0.31918 0.0
C634 C 0.23992 0.81556 0.30883 0.0
C635 C 0.24058 0.81555 0.28742 0.0
C636 C 0.25689 0.83173 0.2765 0.0
C637 C 0.25801 0.83115 0.25554 0.0
C638 C 0.24274 0.81446 0.24466 0.0
C639 C 0.24418 0.81338 0.22345 0.0
C640 C 0.22855 0.79671 0.21306 0.0
C641 C 0.21155 0.78084 0.2233 0.0
C642 C 0.20999 0.78149 0.24455 0.0
C643 C 0.19327 0.76563 0.25536 0.0
C644 C 0.19233 0.76606 0.27637 0.0
C645 C 0.20798 0.78245 0.28735 0.0
C646 C 0.22467 0.79885 0.27668 0.0
C647 C 0.22571 0.79833 0.25527 0.0
C648 C 0.34264 0.89852 0.19836 0.0
C649 C 0.33566 0.88083 0.18418 0.0
O650 O 0.14775 0.71651 0.35619 0.0
O651 O 0.15407 0.71433 0.17609 0.0
O652 O 0.31464 0.87255 0.17907 0.0
O653 O 0.30795 0.88081 0.34957 0.0
H654 H 0.11942 0.71475 0.3548 0.0
H655 H 0.14667 0.72732 0.39402 0.0
H656 H 0.14373 0.74396 0.37696 0.0
H657 H 0.12154 0.72535 0.39115 0.0
H658 H 0.14257 0.746 0.34086 0.0
H659 H 0.18304 0.72241 0.3444 0.0
H660 H 0.18008 0.79445 0.3245 0.0
H661 H 0.15216 0.77637 0.32417 0.0
H662 H 0.16787 0.78054 0.30202 0.0
H663 H 0.21579 0.73801 0.32812 0.0
H664 H 0.22898 0.76502 0.32882 0.0
H665 H 0.21748 0.75229 0.3056 0.0
H666 H 0.29585 0.89402 0.3665 0.0
H667 H 0.31388 0.92639 0.3461 0.0
H668 H 0.2971 0.90533 0.33047 0.0
H669 H 0.32503 0.91605 0.32986 0.0
H670 H 0.30776 0.85027 0.33599 0.0
H671 H 0.26924 0.87532 0.34433 0.0
H672 H 0.26559 0.80138 0.32115 0.0
H673 H 0.29378 0.81766 0.3231 0.0
H674 H 0.28024 0.81704 0.30005 0.0
H675 H 0.23506 0.86059 0.33144 0.0
H676 H 0.22128 0.83356 0.33319 0.0
H677 H 0.2302 0.84586 0.30906 0.0
H678 H 0.33822 0.86984 0.19256 0.0
H679 H 0.31141 0.84013 0.19768 0.0
H680 H 0.27977 0.87146 0.18307 0.0
H681 H 0.27952 0.81038 0.23698 0.0
H682 H 0.29638 0.81084 0.21746 0.0
H683 H 0.26817 0.79561 0.21479 0.0
H684 H 0.24559 0.8603 0.19474 0.0
H685 H 0.23948 0.84727 0.21892 0.0
H686 H 0.22944 0.83325 0.19611 0.0
H687 H 0.14375 0.72725 0.15532 0.0
H688 H 0.10564 0.70313 0.16288 0.0
H689 H 0.11273 0.69038 0.18157 0.0
H690 H 0.12 0.71595 0.1853 0.0
H691 H 0.18531 0.71738 0.19608 0.0
H692 H 0.15234 0.74757 0.18195 0.0
H693 H 0.21483 0.74649 0.23636 0.0
H694 H 0.23134 0.75918 0.21504 0.0
H695 H 0.21608 0.73208 0.21607 0.0
H696 H 0.16191 0.77865 0.1954 0.0
H697 H 0.19013 0.79484 0.19654 0.0
H698 H 0.17563 0.78416 0.21942 0.0
H699 H 0.22323 0.7992 0.33561 0.0
H700 H 0.26914 0.84496 0.28406 0.0
H701 H 0.27107 0.84391 0.24798 0.0
H702 H 0.22986 0.79589 0.19681 0.0
H703 H 0.18083 0.75259 0.24773 0.0
H704 H 0.17923 0.75332 0.2839 0.0
H705 H 0.33972 0.90989 0.19138 0.0
H706 H 0.35964 0.90573 0.20202 0.0
H707 H 0.3337 0.89307 0.21273 0.0
C708 C 0.39216 0.09211 0.70437 0.0
C709 C 0.40857 0.10739 0.68944 0.0
C710 C 0.42521 0.13926 0.70798 0.0
C711 C 0.44376 0.15386 0.71734 0.0
C712 C 0.44524 0.17066 0.72633 0.0
C713 C 0.4275 0.17269 0.7263 0.0
C714 C 0.40865 0.15802 0.7168 0.0
C715 C 0.40775 0.14157 0.70756 0.0
C716 C 0.46577 0.18623 0.73589 0.0
C717 C 0.38942 0.15969 0.71642 0.0
C718 C 0.43528 0.29789 0.6468 0.0
C719 C 0.42781 0.28018 0.66024 0.0
C720 C 0.43989 0.26811 0.6885 0.0
C721 C 0.41988 0.25169 0.69343 0.0
C722 C 0.41754 0.2373 0.70795 0.0
C723 C 0.43557 0.23921 0.71753 0.0
C724 C 0.4557 0.25584 0.71279 0.0
C725 C 0.45755 0.27022 0.69848 0.0
C726 C 0.3958 0.21993 0.71289 0.0
C727 C 0.47525 0.25826 0.72263 0.0
C728 C 0.43457 0.28015 0.84547 0.0
C729 C 0.41536 0.26561 0.83669 0.0
C730 C 0.41318 0.24854 0.8276 0.0
C731 C 0.43068 0.24617 0.82682 0.0
C732 C 0.45002 0.26076 0.83566 0.0
C733 C 0.45162 0.27745 0.84505 0.0
C734 C 0.39215 0.23302 0.81886 0.0
C735 C 0.46902 0.25875 0.83508 0.0
C736 C 0.39724 0.09351 0.85989 0.0
C737 C 0.41514 0.11509 0.8635 0.0
C738 C 0.41142 0.14398 0.85765 0.0
C739 C 0.39534 0.14773 0.8538 0.0
C740 C 0.39902 0.16454 0.84228 0.0
C741 C 0.41949 0.1782 0.83498 0.0
C742 C 0.43615 0.17518 0.84002 0.0
C743 C 0.4319 0.15798 0.85119 0.0
C744 C 0.38092 0.16736 0.83736 0.0
C745 C 0.45832 0.18986 0.83319 0.0
C746 C 0.42871 0.19023 0.73607 0.0
C747 C 0.43182 0.20626 0.72368 0.0
C748 C 0.43333 0.22332 0.73184 0.0
C749 C 0.43221 0.22475 0.75305 0.0
C750 C 0.43416 0.24188 0.76181 0.0
C751 C 0.43325 0.2432 0.78273 0.0
C752 C 0.42991 0.22727 0.79566 0.0
C753 C 0.42872 0.22836 0.81693 0.0
C754 C 0.42547 0.21224 0.82931 0.0
C755 C 0.42317 0.19489 0.82104 0.0
C756 C 0.42414 0.19346 0.79981 0.0
C757 C 0.42152 0.17608 0.79096 0.0
C758 C 0.42295 0.17495 0.77011 0.0
C759 C 0.4269 0.19111 0.75726 0.0
C760 C 0.42897 0.20856 0.76579 0.0
C761 C 0.42769 0.20978 0.7871 0.0
C762 C 0.42974 0.32155 0.86578 0.0
C763 C 0.42343 0.30362 0.8532 0.0
O764 O 0.42493 0.12329 0.69978 0.0
O765 O 0.40663 0.12671 0.86752 0.0
O766 O 0.43725 0.29683 0.85449 0.0
O767 O 0.44279 0.28207 0.67419 0.0
H768 H 0.40092 0.11309 0.67902 0.0
H769 H 0.38502 0.09899 0.71307 0.0
H770 H 0.39946 0.08653 0.71532 0.0
H771 H 0.37937 0.07917 0.69603 0.0
H772 H 0.45719 0.15206 0.71753 0.0
H773 H 0.39329 0.1306 0.70023 0.0
H774 H 0.47037 0.20146 0.73022 0.0
H775 H 0.47867 0.18358 0.73273 0.0
H776 H 0.46385 0.18595 0.75254 0.0
H777 H 0.37528 0.14587 0.71072 0.0
H778 H 0.39235 0.17248 0.70642 0.0
H779 H 0.38612 0.16274 0.73183 0.0
H780 H 0.42002 0.2657 0.65204 0.0
H781 H 0.41759 0.30989 0.65373 0.0
H782 H 0.4525 0.30566 0.6435 0.0
H783 H 0.4525 0.30566 0.6435 0.0
H784 H 0.40603 0.25 0.68601 0.0
H785 H 0.4729 0.28298 0.69467 0.0
H786 H 0.39412 0.2058 0.70755 0.0
H787 H 0.38329 0.22165 0.70566 0.0
H788 H 0.39343 0.21845 0.72954 0.0
H789 H 0.48981 0.27166 0.71676 0.0
H790 H 0.47608 0.24471 0.71998 0.0
H791 H 0.4746 0.25967 0.73925 0.0
H792 H 0.41889 0.30469 0.83725 0.0
H793 H 0.40194 0.26738 0.83703 0.0
H794 H 0.46634 0.28866 0.85191 0.0
H795 H 0.39335 0.23285 0.80214 0.0
H796 H 0.37959 0.23603 0.82247 0.0
H797 H 0.38749 0.21784 0.82476 0.0
H798 H 0.48332 0.27215 0.84119 0.0
H799 H 0.47207 0.25647 0.81926 0.0
H800 H 0.46594 0.24537 0.84414 0.0
H801 H 0.42449 0.12035 0.84929 0.0
H802 H 0.40361 0.08388 0.85638 0.0
H803 H 0.38748 0.09316 0.84684 0.0
H804 H 0.38705 0.08726 0.87346 0.0
H805 H 0.37967 0.13697 0.85919 0.0
H806 H 0.44454 0.15547 0.85484 0.0
H807 H 0.37937 0.16837 0.82069 0.0
H808 H 0.38405 0.18166 0.84382 0.0
H809 H 0.36578 0.1549 0.84345 0.0
H810 H 0.4699 0.18702 0.84085 0.0
H811 H 0.46263 0.20548 0.83623 0.0
H812 H 0.45939 0.18859 0.8166 0.0
H813 H 0.43295 0.20539 0.70741 0.0
H814 H 0.4366 0.25454 0.75261 0.0
H815 H 0.4351 0.25685 0.78862 0.0
H816 H 0.4246 0.21317 0.8456 0.0
H817 H 0.41841 0.16312 0.80004 0.0
H818 H 0.42089 0.16123 0.7642 0.0
H819 H 0.43322 0.33394 0.85456 0.0
H820 H 0.44669 0.32792 0.87021 0.0
H821 H 0.40569 0.31098 0.887 0.0
C822 C 0.05371 0.4853 0.05686 0.0
C823 C 0.05494 0.47825 0.03786 0.0
C824 C 0.05961 0.47909 0.07448 0.0
C825 C 0.0698 0.44058 0.09531 0.0
H826 H 0.11119 0.48351 0.12907 0.0
C827 C 0.12203 0.42843 0.15182 0.0
C828 C 0.12768 0.43884 0.17017 0.0
C829 C 0.11143 0.43259 0.13671 0.0
C830 C 0.09938 0.47126 0.12006 0.0
H831 H 0.06212 0.45834 0.0225 0.0
H832 H 0.07203 0.44731 0.05312 0.0
H833 H 0.09414 0.49111 0.10159 0.0
H834 H 0.12564 0.46095 0.18748 0.0
H835 H 0.1068 0.46797 0.16133 0.0
H836 H 0.07501 0.4207 0.11367 0.0
C837 C 0.06664 0.45768 0.05449 0.0
C838 C 0.0896 0.47564 0.1043 0.0
C839 C 0.06106 0.46408 0.03693 0.0
C840 C 0.12196 0.45307 0.17328 0.0
C841 C 0.1112 0.45711 0.15825 0.0
C842 C 0.07944 0.43616 0.11118 0.0
C843 C 0.06649 0.46547 0.0734 0.0
C844 C 0.07497 0.46041 0.09154 0.0
C845 C 0.10584 0.44697 0.13973 0.0
C846 C 0.09464 0.45149 0.12356 0.0
H847 H 0.04916 0.49631 0.05801 0.0
H848 H 0.05919 0.48522 0.08888 0.0
H849 H 0.05841 0.42849 0.08585 0.0
H850 H 0.12579 0.41706 0.14913 0.0
H851 H 0.1078 0.42463 0.12258 0.0
C852 C 0.55795 0.063 0.55022 0.0
C853 C 0.55584 0.04663 0.53965 0.0
C854 C 0.57627 0.0755 0.56125 0.0
C855 C 0.63121 0.089 0.57119 0.0
H856 H 0.61745 0.09096 0.62709 0.0
C857 C 0.68675 0.09937 0.63784 0.0
C858 C 0.68572 0.10831 0.65566 0.0
C859 C 0.67325 0.09636 0.62156 0.0
C860 C 0.62178 0.09107 0.61151 0.0
H861 H 0.57203 0.03168 0.5308 0.0
H862 H 0.60398 0.05353 0.54991 0.0
H863 H 0.59005 0.07861 0.60144 0.0
H864 H 0.671 0.12258 0.66978 0.0
H865 H 0.64798 0.11802 0.64115 0.0
H866 H 0.66292 0.10116 0.58136 0.0
C867 C 0.59148 0.05668 0.54978 0.0
C868 C 0.60599 0.08393 0.59676 0.0
C869 C 0.57311 0.04409 0.5389 0.0
C870 C 0.67189 0.11535 0.65636 0.0
C871 C 0.6586 0.1126 0.63999 0.0
C872 C 0.6471 0.09636 0.58594 0.0
C873 C 0.59291 0.07199 0.56174 0.0
C874 C 0.61041 0.0824 0.57653 0.0
C875 C 0.65865 0.10253 0.6226 0.0
C876 C 0.64249 0.09705 0.60639 0.0
H877 H 0.54497 0.06542 0.55108 0.0
H878 H 0.57707 0.08736 0.57014 0.0
H879 H 0.63509 0.08811 0.55568 0.0
H880 H 0.69748 0.09406 0.63679 0.0
H881 H 0.67369 0.08841 0.60854 0.0
C882 C 0.5148 0.56901 0.06362 0.0
C883 C 0.52455 0.5737 0.04459 0.0
C884 C 0.52135 0.58374 0.07835 0.0
C885 C 0.55182 0.63893 0.08584 0.0
H886 H 0.55608 0.62382 0.14121 0.0
C887 C 0.59516 0.69681 0.14951 0.0
C888 C 0.58569 0.69198 0.1687 0.0
C889 C 0.58688 0.68279 0.13395 0.0
C890 C 0.55475 0.62824 0.12587 0.0
H891 H 0.54879 0.59769 0.02613 0.0
H892 H 0.5603 0.62333 0.0518 0.0
H893 H 0.54303 0.59868 0.11488 0.0
H894 H 0.56041 0.66859 0.1867 0.0
H895 H 0.54582 0.64417 0.15953 0.0
H896 H 0.56385 0.66861 0.0969 0.0
C897 C 0.54734 0.60832 0.05526 0.0
C898 C 0.54722 0.61381 0.11076 0.0
C899 C 0.54072 0.5936 0.0405 0.0
C900 C 0.56784 0.67282 0.17199 0.0
C901 C 0.55962 0.65879 0.15648 0.0
C902 C 0.55942 0.6534 0.10097 0.0
C903 C 0.53789 0.60353 0.07446 0.0
C904 C 0.54564 0.61894 0.09054 0.0
C905 C 0.56914 0.66353 0.13733 0.0
C906 C 0.56094 0.64821 0.12117 0.0
H907 H 0.50208 0.55392 0.06716 0.0
H908 H 0.51343 0.57959 0.09282 0.0
H909 H 0.55057 0.64337 0.07049 0.0
H910 H 0.60919 0.71132 0.14667 0.0
H911 H 0.59476 0.68681 0.11946 0.0
C912 C 0.00833 0.56491 0.58251 0.0
C913 C 0.00129 0.54513 0.5769 0.0
C914 C 0.99622 0.5689 0.59528 0.0
C915 C 0.95621 0.54549 0.63462 0.0
H916 H 0.94385 0.58679 0.62124 0.0
C917 C 0.89674 0.55325 0.681 0.0
C918 C 0.90138 0.57267 0.6853 0.0
C919 C 0.90859 0.55034 0.66693 0.0
C920 C 0.94737 0.57538 0.62535 0.0
H921 H 0.97632 0.51401 0.58049 0.0
H922 H 0.95529 0.52092 0.6029 0.0
H923 H 0.96592 0.58126 0.59871 0.0
H924 H 0.92155 0.60422 0.67766 0.0
H925 H 0.94277 0.59925 0.6535 0.0
H926 H 0.9382 0.5398 0.66139 0.0
C927 C 0.97008 0.53335 0.59735 0.0
C928 C 0.95998 0.57221 0.61242 0.0
C929 C 0.98202 0.52941 0.5844 0.0
C930 C 0.91774 0.5891 0.67474 0.0
C931 C 0.92978 0.58621 0.66079 0.0
C932 C 0.94384 0.54879 0.64763 0.0
C933 C 0.97704 0.55312 0.60291 0.0
C934 C 0.96434 0.5571 0.61686 0.0
C935 C 0.92554 0.56679 0.65694 0.0
C936 C 0.93906 0.56364 0.64309 0.0
H937 H 0.02304 0.5773 0.57681 0.0
H938 H 0.00198 0.58427 0.59943 0.0
H939 H 0.9596 0.53395 0.63857 0.0
H940 H 0.8841 0.54028 0.68875 0.0
H941 H 0.90449 0.53513 0.66398 0.0
C942 C 0.46027 0.97357 0.0499 0.0
C943 C 0.47572 0.9689 0.0463 0.0
C944 C 0.44256 0.96063 0.06143 0.0
C945 C 0.42763 0.92444 0.10297 0.0
H946 H 0.37155 0.91423 0.09323 0.0
C947 C 0.36216 0.88028 0.16125 0.0
C948 C 0.34888 0.88751 0.16518 0.0
C949 C 0.37555 0.88744 0.14457 0.0
C950 C 0.38716 0.91708 0.09627 0.0
H951 H 0.48407 0.9464 0.05103 0.0
H952 H 0.45313 0.92381 0.07126 0.0
H953 H 0.39847 0.9314 0.06728 0.0
H954 H 0.33857 0.90728 0.15419 0.0
H955 H 0.36248 0.92037 0.12543 0.0
H956 H 0.41683 0.91102 0.13219 0.0
C957 C 0.45483 0.93758 0.06523 0.0
C958 C 0.40254 0.92682 0.08134 0.0
C959 C 0.47247 0.95045 0.05351 0.0
C960 C 0.34878 0.90157 0.15163 0.0
C961 C 0.36235 0.90891 0.13504 0.0
C962 C 0.41235 0.91489 0.11793 0.0
C963 C 0.43998 0.9428 0.06976 0.0
C964 C 0.423 0.93077 0.08462 0.0
C965 C 0.37618 0.90218 0.13148 0.0
C966 C 0.39195 0.91123 0.11489 0.0
H967 H 0.46226 0.98765 0.0445 0.0
H968 H 0.43148 0.96515 0.06475 0.0
H969 H 0.44334 0.92761 0.10613 0.0
H970 H 0.36245 0.86928 0.17129 0.0
H971 H 0.38559 0.88153 0.14208 0.0
C972 C 0.47401 0.40389 0.53835 0.0
C973 C 0.49205 0.42247 0.54283 0.0
C974 C 0.46568 0.38825 0.55269 0.0
C975 C 0.46637 0.37899 0.60802 0.0
H976 H 0.4386 0.3234 0.59183 0.0
C977 C 0.43467 0.31197 0.67708 0.0
C978 C 0.41462 0.28671 0.66747 0.0
C979 C 0.44655 0.3315 0.65801 0.0
C980 C 0.44621 0.33886 0.59656 0.0
H981 H 0.51603 0.43904 0.56545 0.0
H982 H 0.50196 0.41159 0.59032 0.0
H983 H 0.45543 0.35004 0.5663 0.0
H984 H 0.38421 0.26678 0.64247 0.0
H985 H 0.40329 0.29141 0.63229 0.0
H986 H 0.45729 0.36774 0.63829 0.0
C987 C 0.4938 0.40922 0.57598 0.0
C988 C 0.45582 0.35415 0.58193 0.0
C989 C 0.50196 0.42492 0.56172 0.0
C990 C 0.39924 0.28287 0.64356 0.0
C991 C 0.41291 0.30402 0.62476 0.0
C992 C 0.457 0.36369 0.62267 0.0
C993 C 0.47536 0.39076 0.57178 0.0
C994 C 0.46589 0.37444 0.58743 0.0
C995 C 0.43625 0.3273 0.63234 0.0
C996 C 0.44674 0.34351 0.61704 0.0
H997 H 0.46586 0.40168 0.52403 0.0
H998 H 0.45127 0.37441 0.549 0.0
H999 H 0.47355 0.39438 0.61282 0.0
H1000 H 0.44174 0.3139 0.69194 0.0
H1001 H 0.4602 0.34579 0.66199 0.0
C1002 C 0.51513 0.93145 0.48204 0.0
C1003 C 0.52711 0.93978 0.49971 0.0
C1004 C 0.52203 0.9238 0.46709 0.0
C1005 C 0.56041 0.90779 0.45847 0.0
H1006 H 0.55349 0.91767 0.40195 0.0
C1007 C 0.61768 0.90035 0.39493 0.0
C1008 C 0.60213 0.88704 0.37205 0.0
C1009 C 0.60361 0.90545 0.41329 0.0
C1010 C 0.55529 0.91455 0.41765 0.0
H1011 H 0.55595 0.94699 0.51531 0.0
H1012 H 0.56812 0.93411 0.48933 0.0
H1013 H 0.53814 0.92757 0.42808 0.0
H1014 H 0.57129 0.88196 0.34875 0.0
H1015 H 0.55108 0.89209 0.37925 0.0
H1016 H 0.57815 0.89539 0.448 0.0
C1017 C 0.55307 0.93282 0.48716 0.0
C1018 C 0.54645 0.92019 0.43267 0.0
C1019 C 0.54609 0.94027 0.50212 0.0
C1020 C 0.57893 0.88812 0.3631 0.0
C1021 C 0.56609 0.89364 0.38252 0.0
C1022 C 0.56943 0.9024 0.44348 0.0
C1023 C 0.54117 0.92449 0.46942 0.0
C1024 C 0.54915 0.91714 0.45331 0.0
C1025 C 0.57795 0.90145 0.40736 0.0
C1026 C 0.56718 0.90595 0.42297 0.0
H1027 H 0.50038 0.93077 0.47983 0.0
H1028 H 0.51231 0.91728 0.45377 0.0
H1029 H 0.56238 0.90471 0.47415 0.0
H1030 H 0.63216 0.90105 0.39892 0.0
H1031 H 0.61068 0.91102 0.42797 0.0
C1032 C 0.58767 0.54076 0.01417 0.0
C1033 C 0.56918 0.52191 0.01195 0.0
C1034 C 0.60593 0.54538 0.00394 0.0
C1035 C 0.62226 0.52999 0.95872 0.0
H1036 H 0.67819 0.56776 0.979 0.0
C1037 C 0.69814 0.55299 0.91444 0.0
C1038 C 0.71262 0.57379 0.91285 0.0
C1039 C 0.68093 0.54544 0.9274 0.0
C1040 C 0.66264 0.55724 0.97314 0.0
H1041 H 0.55573 0.49263 0.99839 0.0
H1042 H 0.58779 0.50046 0.9811 0.0
H1043 H 0.64799 0.55587 0.00118 0.0
H1044 H 0.72101 0.60282 0.92429 0.0
H1045 H 0.69096 0.58962 0.94706 0.0
H1046 H 0.63705 0.53134 0.93072 0.0
C1047 C 0.58802 0.51192 0.99021 0.0
C1048 C 0.64532 0.55045 0.98581 0.0
C1049 C 0.56969 0.50736 1.00027 0.0
C1050 C 0.70985 0.58678 0.92492 0.0
C1051 C 0.6928 0.57922 0.93806 0.0
C1052 C 0.63961 0.53661 0.94615 0.0
C1053 C 0.6062 0.53119 0.99143 0.0
C1054 C 0.62486 0.53698 0.97867 0.0
C1055 C 0.67815 0.55848 0.93939 0.0
C1056 C 0.65992 0.55054 0.95313 0.0
H1057 H 0.58782 0.55234 0.023 0.0
H1058 H 0.6195 0.56045 0.00511 0.0
H1059 H 0.60676 0.51992 0.95252 0.0
H1060 H 0.70017 0.54253 0.90577 0.0
H1061 H 0.67 0.52937 0.92833 0.0
C1062 C 0.06453 0.55828 0.46389 0.0
C1063 C 0.04421 0.54898 0.47193 0.0
C1064 C 0.07146 0.57398 0.44985 0.0
C1065 C 0.05688 0.6017 0.41444 0.0
H1066 H 0.11115 0.64664 0.43077 0.0
C1067 C 0.09627 0.68174 0.37729 0.0
C1068 C 0.11821 0.69219 0.37497 0.0
C1069 C 0.08571 0.66318 0.38756 0.0
C1070 C 0.09614 0.63419 0.42576 0.0
H1071 H 0.01462 0.54785 0.47051 0.0
H1072 H 0.0269 0.57573 0.44579 0.0
H1073 H 0.095 0.61571 0.45058 0.0
H1074 H 0.14626 0.69137 0.3818 0.0
H1075 H 0.1279 0.65887 0.39893 0.0
H1076 H 0.05823 0.62036 0.38943 0.0
C1077 C 0.03739 0.57069 0.45041 0.0
C1078 C 0.08684 0.61644 0.43718 0.0
C1079 C 0.03036 0.55476 0.46451 0.0
C1080 C 0.12932 0.68359 0.38299 0.0
C1081 C 0.11879 0.66504 0.39306 0.0
C1082 C 0.0663 0.61954 0.40285 0.0
C1083 C 0.0583 0.58093 0.44358 0.0
C1084 C 0.06728 0.59989 0.43152 0.0
C1085 C 0.09691 0.65476 0.39584 0.0
C1086 C 0.08622 0.6359 0.40825 0.0
H1087 H 0.07545 0.55393 0.46909 0.0
H1088 H 0.08747 0.58124 0.44447 0.0
H1089 H 0.04176 0.58918 0.40976 0.0
H1090 H 0.08738 0.6882 0.3716 0.0
H1091 H 0.0689 0.6558 0.38962 0.0
C1092 C 0.49738 0.08425 0.01118 0.0
C1093 C 0.51178 0.07891 0.00527 0.0
C1094 C 0.48865 0.0913 0.99687 0.0
C1095 C 0.49517 0.11257 0.94502 0.0
H1096 H 0.43465 0.08762 0.94672 0.0
C1097 C 0.44659 0.1145 0.87711 0.0
C1098 C 0.4288 0.11562 0.88095 0.0
C1099 C 0.45803 0.11269 0.89307 0.0
C1100 C 0.4516 0.09504 0.9462 0.0
H1101 H 0.52903 0.07767 0.97987 0.0
H1102 H 0.5137 0.08982 0.95485 0.0
H1103 H 0.45248 0.07993 0.97324 0.0
H1104 H 0.40898 0.11564 0.9045 0.0
H1105 H 0.42925 0.11302 0.93246 0.0
H1106 H 0.49426 0.12753 0.91784 0.0
C1107 C 0.50919 0.0886 0.97056 0.0
C1108 C 0.46182 0.0906 0.96141 0.0
C1109 C 0.51782 0.08146 0.98485 0.0
C1110 C 0.42282 0.11513 0.90111 0.0
C1111 C 0.4343 0.1134 0.9171 0.0
C1112 C 0.48495 0.1171 0.92984 0.0
C1113 C 0.49423 0.09327 0.97635 0.0
C1114 C 0.48369 0.09913 0.96088 0.0
C1115 C 0.45187 0.11184 0.91326 0.0
C1116 C 0.46301 0.10821 0.93011 0.0
H1117 H 0.49224 0.08232 0.02673 0.0
H1118 H 0.47733 0.09496 0.00183 0.0
H1119 H 0.51207 0.11956 0.94434 0.0
H1120 H 0.4513 0.11447 0.8617 0.0
H1121 H 0.47123 0.11118 0.88952 0.0
C1122 C 0.43555 0.46079 0.50567 0.0
C1123 C 0.45467 0.47918 0.50342 0.0
C1124 C 0.41827 0.45636 0.49343 0.0
C1125 C 0.39391 0.47747 0.46148 0.0
H1126 H 0.36802 0.42631 0.43447 0.0
C1127 C 0.31732 0.45548 0.40177 0.0
C1128 C 0.30248 0.42823 0.39563 0.0
C1129 C 0.3411 0.46378 0.41625 0.0
C1130 C 0.37475 0.44049 0.44211 0.0
H1131 H 0.47027 0.50774 0.48718 0.0
H1132 H 0.43975 0.50008 0.46604 0.0
H1133 H 0.39803 0.43636 0.45674 0.0
H1134 H 0.29449 0.39329 0.40841 0.0
H1135 H 0.33196 0.40845 0.43277 0.0
H1136 H 0.37026 0.48136 0.44743 0.0
C1137 C 0.43833 0.48908 0.4772 0.0
C1138 C 0.39208 0.44629 0.4548 0.0
C1139 C 0.45577 0.49343 0.48929 0.0
C1140 C 0.30464 0.40921 0.411 0.0
C1141 C 0.32871 0.41892 0.42518 0.0
C1142 C 0.37634 0.47152 0.44897 0.0
C1143 C 0.41959 0.4703 0.47883 0.0
C1144 C 0.40169 0.46472 0.4648 0.0
C1145 C 0.34697 0.44575 0.42715 0.0
C1146 C 0.3664 0.45283 0.43934 0.0
H1147 H 0.43412 0.44946 0.51639 0.0
H1148 H 0.40391 0.44187 0.49518 0.0
H1149 H 0.40102 0.49175 0.46905 0.0
H1150 H 0.31444 0.46608 0.39386 0.0
H1151 H 0.35192 0.47969 0.41816 0.0
C1152 C 0.01722 0.45118 0.91835 0.0
C1153 C 0.01685 0.45299 0.93944 0.0
C1154 C 0.00331 0.43295 0.90901 0.0
C1155 C 0.97182 0.37878 0.91898 0.0
H1156 H 0.93955 0.37717 0.87163 0.0
C1157 C 0.92217 0.30705 0.87245 0.0
C1158 C 0.90152 0.30191 0.8678 0.0
C1159 C 0.93663 0.32583 0.88037 0.0
C1160 C 0.94845 0.37742 0.88486 0.0
H1161 H 0.00196 0.43707 0.96731 0.0
H1162 H 0.9778 0.40521 0.95106 0.0
H1163 H 0.96423 0.40943 0.88721 0.0
H1164 H 0.8797 0.31229 0.86837 0.0
H1165 H 0.90518 0.34534 0.8818 0.0
H1166 H 0.95605 0.34682 0.91669 0.0
C1167 C 0.98876 0.4179 0.94174 0.0
C1168 C 0.96266 0.39586 0.89366 0.0
C1169 C 0.00246 0.43617 0.95102 0.0
C1170 C 0.89563 0.31598 0.87132 0.0
C1171 C 0.91019 0.33487 0.87902 0.0
C1172 C 0.95782 0.3604 0.91004 0.0
C1173 C 0.98901 0.41611 0.92065 0.0
C1174 C 0.97438 0.39669 0.91089 0.0
C1175 C 0.93078 0.33991 0.88379 0.0
C1176 C 0.94592 0.35952 0.89295 0.0
H1177 H 0.02805 0.46395 0.90906 0.0
H1178 H 0.00391 0.43194 0.89273 0.0
H1179 H 0.98075 0.379 0.93217 0.0
H1180 H 0.92701 0.29637 0.87023 0.0
H1181 H 0.95242 0.32934 0.88384 0.0
C1182 C 0.01089 0.54548 0.95352 0.0
C1183 C 0.00619 0.53074 0.96856 0.0
C1184 C 0.99601 0.55018 0.94742 0.0
C1185 C 0.93957 0.52928 0.94368 0.0
H1186 H 0.95634 0.58478 0.93376 0.0
C1187 C 0.881 0.5521 0.91541 0.0
C1188 C 0.88834 0.5678 0.90102 0.0
C1189 C 0.89481 0.54743 0.92491 0.0
C1190 C 0.95143 0.56919 0.93621 0.0
H1191 H 0.98217 0.50948 0.98916 0.0
H1192 H 0.95583 0.51761 0.97825 0.0
H1193 H 0.98128 0.57706 0.94895 0.0
H1194 H 0.91607 0.59136 0.88574 0.0
H1195 H 0.94012 0.58284 0.90176 0.0
H1196 H 0.9099 0.52136 0.93045 0.0
C1197 C 0.97117 0.5255 0.97126 0.0
C1198 C 0.9657 0.56478 0.94504 0.0
C1199 C 0.98625 0.52093 0.97757 0.0
C1200 C 0.90987 0.57891 0.89647 0.0
C1201 C 0.92368 0.57418 0.90587 0.0
C1202 C 0.9253 0.53369 0.93472 0.0
C1203 C 0.97593 0.54017 0.95608 0.0
C1204 C 0.96003 0.54478 0.94861 0.0
C1205 C 0.91635 0.55845 0.92031 0.0
C1206 C 0.93116 0.5537 0.93062 0.0
H1207 H 0.02612 0.55339 0.94629 0.0
H1208 H 1.00008 0.56136 0.93552 0.0
H1209 H 0.93483 0.51372 0.94604 0.0
H1210 H 0.86456 0.5436 0.91956 0.0
H1211 H 0.88866 0.53547 0.93619 0.0
C1212 C 0.4767 0.98117 0.45384 0.0
C1213 C 0.47374 0.98376 0.47425 0.0
C1214 C 0.4599 0.97373 0.44007 0.0
C1215 C 0.40684 0.96553 0.432 0.0
H1216 H 0.39792 0.92157 0.39852 0.0
C1217 C 0.3285 0.91514 0.38978 0.0
C1218 C 0.32933 0.9085 0.37042 0.0
C1219 C 0.34664 0.92524 0.40176 0.0
C1220 C 0.40031 0.93402 0.40751 0.0
H1221 H 0.45108 0.9814 0.49601 0.0
H1222 H 0.42192 0.96856 0.47203 0.0
H1223 H 0.42912 0.9386 0.41997 0.0
H1224 H 0.34985 0.90756 0.34828 0.0
H1225 H 0.38159 0.92551 0.36896 0.0
H1226 H 0.37807 0.96099 0.41957 0.0
C1227 C 0.43717 0.97227 0.46663 0.0
C1228 C 0.41822 0.94379 0.41981 0.0
C1229 C 0.45388 0.97953 0.4804 0.0
C1230 C 0.34872 0.91234 0.36323 0.0
C1231 C 0.36687 0.92253 0.37514 0.0
C1232 C 0.38899 0.95585 0.4196 0.0
C1233 C 0.43988 0.96893 0.44641 0.0
C1234 C 0.42159 0.95953 0.43233 0.0
C1235 C 0.36607 0.92911 0.39457 0.0
C1236 C 0.38539 0.93984 0.40733 0.0
H1237 H 0.49179 0.98427 0.44862 0.0
H1238 H 0.4625 0.97151 0.42452 0.0
H1239 H 0.40913 0.97776 0.44131 0.0
H1240 H 0.3138 0.9125 0.39567 0.0
H1241 H 0.34536 0.92982 0.41675 0.0
C1242 C 0.48195 0.44561 0.94925 0.0
C1243 C 0.46708 0.44963 0.95675 0.0
C1244 C 0.47556 0.42829 0.93809 0.0
C1245 C 0.42894 0.38737 0.91069 0.0
H1246 H 0.46001 0.36046 0.91568 0.0
C1247 C 0.39421 0.30848 0.85996 0.0
C1248 C 0.4069 0.29415 0.86715 0.0
C1249 C 0.40529 0.33244 0.87195 0.0
C1250 C 0.45094 0.36757 0.91426 0.0
H1251 H 0.43386 0.4385 0.95895 0.0
H1252 H 0.42256 0.40799 0.94027 0.0
H1253 H 0.47193 0.3912 0.93397 0.0
H1254 H 0.42678 0.28804 0.89642 0.0
H1255 H 0.442 0.32617 0.91553 0.0
H1256 H 0.40723 0.36324 0.89216 0.0
C1257 C 0.43924 0.41848 0.9422 0.0
C1258 C 0.45803 0.38551 0.92452 0.0
C1259 C 0.44568 0.43595 0.95301 0.0
C1260 C 0.42143 0.29791 0.89145 0.0
C1261 C 0.43167 0.32221 0.90254 0.0
C1262 C 0.42166 0.36928 0.90075 0.0
C1263 C 0.45407 0.41439 0.93449 0.0
C1264 C 0.44705 0.39563 0.92299 0.0
C1265 C 0.42425 0.33944 0.89247 0.0
C1266 C 0.43249 0.35907 0.90245 0.0
H1267 H 0.49856 0.45602 0.95183 0.0
H1268 H 0.4875 0.42593 0.93215 0.0
H1269 H 0.42022 0.39482 0.90873 0.0
H1270 H 0.38442 0.30498 0.84657 0.0
H1271 H 0.40066 0.34266 0.86642 0.0
C1272 C 0.07542 0.47089 0.50384 0.0
C1273 C 0.06811 0.48317 0.49651 0.0
C1274 C 0.08375 0.46316 0.49054 0.0
C1275 C 0.10695 0.47118 0.4397 0.0
H1276 H 0.08844 0.41473 0.44363 0.0
C1277 C 0.12107 0.43104 0.37564 0.0
C1278 C 0.12673 0.417 0.38099 0.0
C1279 C 0.11472 0.43924 0.39041 0.0
C1280 C 0.09401 0.43058 0.44249 0.0
H1281 H 0.06447 0.49751 0.46962 0.0
H1282 H 0.07875 0.48392 0.44648 0.0
H1283 H 0.07652 0.42918 0.46851 0.0
H1284 H 0.12979 0.40023 0.40595 0.0
H1285 H 0.11902 0.41481 0.43188 0.0
H1286 H 0.12437 0.47263 0.41369 0.0
C1287 C 0.07811 0.48028 0.46247 0.0
C1288 C 0.08717 0.43886 0.45675 0.0
C1289 C 0.0697 0.48788 0.47571 0.0
C1290 C 0.12563 0.41112 0.40142 0.0
C1291 C 0.11934 0.41937 0.41623 0.0
C1292 C 0.11383 0.46293 0.4255 0.0
C1293 C 0.08511 0.46773 0.4697 0.0
C1294 C 0.09339 0.45919 0.45537 0.0
C1295 C 0.11388 0.43359 0.4109 0.0
C1296 C 0.10726 0.44249 0.42657 0.0
H1297 H 0.07428 0.4669 0.51976 0.0
H1298 H 0.08917 0.45365 0.49657 0.0
H1299 H 0.11228 0.48697 0.43842 0.0
H1300 H 0.12156 0.43567 0.35998 0.0
H1301 H 0.11024 0.44985 0.38572 0.0
C1302 C 0.5485 0.02806 0.95638 0.0
C1303 C 0.55327 0.02579 0.97657 0.0
C1304 C 0.56382 0.03461 0.94133 0.0
C1305 C 0.61533 0.0409 0.92966 0.0
H1306 H 0.62238 0.08433 0.89447 0.0
C1307 C 0.69048 0.08925 0.88277 0.0
C1308 C 0.68846 0.09548 0.8632 0.0
C1309 C 0.67322 0.07974 0.89573 0.0
C1310 C 0.62047 0.07201 0.90394 0.0
H1311 H 0.57758 0.02775 0.9966 0.0
H1312 H 0.60415 0.03905 0.97043 0.0
H1313 H 0.5931 0.06845 0.91806 0.0
H1314 H 0.66663 0.09618 0.84169 0.0
H1315 H 0.63637 0.07934 0.86422 0.0
H1316 H 0.64273 0.04448 0.91565 0.0
C1317 C 0.58861 0.03577 0.96617 0.0
C1318 C 0.60366 0.06289 0.91747 0.0
C1319 C 0.57338 0.02938 0.9812 0.0
C1320 C 0.66872 0.0918 0.85681 0.0
C1321 C 0.65142 0.08221 0.86974 0.0
C1322 C 0.63209 0.04995 0.91608 0.0
C1323 C 0.58415 0.03883 0.94613 0.0
C1324 C 0.60103 0.04739 0.93065 0.0
C1325 C 0.65343 0.07602 0.88937 0.0
C1326 C 0.63504 0.0658 0.90321 0.0
H1327 H 0.53317 0.02544 0.9523 0.0
H1328 H 0.55983 0.03661 0.92597 0.0
H1329 H 0.61358 0.02881 0.93942 0.0
H1330 H 0.70545 0.09171 0.88804 0.0
H1331 H 0.67546 0.07545 0.91083 0.0
C1332 C 0.54989 0.55473 0.44992 0.0
C1333 C 0.56421 0.55287 0.46236 0.0
C1334 C 0.55649 0.57206 0.43816 0.0
C1335 C 0.60421 0.61741 0.41765 0.0
H1336 H 0.56657 0.63741 0.41201 0.0
C1337 C 0.6291 0.69518 0.38218 0.0
C1338 C 0.61502 0.69538 0.36794 0.0
C1339 C 0.62329 0.67797 0.39394 0.0
C1340 C 0.57719 0.63193 0.41336 0.0
H1341 H 0.59666 0.56768 0.47231 0.0
H1342 H 0.60818 0.59814 0.45214 0.0
H1343 H 0.55579 0.60701 0.43197 0.0
H1344 H 0.58418 0.67736 0.35415 0.0
H1345 H 0.57389 0.6475 0.37498 0.0
H1346 H 0.62574 0.64267 0.39928 0.0
C1347 C 0.59193 0.58604 0.45104 0.0
C1348 C 0.57099 0.61445 0.42471 0.0
C1349 C 0.58534 0.56859 0.46263 0.0
C1350 C 0.59516 0.67787 0.3654 0.0
C1351 C 0.58927 0.66077 0.3773 0.0
C1352 C 0.61049 0.63502 0.40646 0.0
C1353 C 0.57754 0.58806 0.43876 0.0
C1354 C 0.58435 0.60686 0.42688 0.0
C1355 C 0.60327 0.66065 0.39167 0.0
C1356 C 0.59697 0.64236 0.40409 0.0
H1357 H 0.53356 0.54273 0.44924 0.0
H1358 H 0.54506 0.57287 0.42855 0.0
H1359 H 0.6148 0.61188 0.41875 0.0
H1360 H 0.64464 0.70834 0.38415 0.0
H1361 H 0.63437 0.67827 0.40493 0.0
C1362 C 0.45906 0.01428 0.57923 0.0
C1363 C 0.4695 0.006 0.58947 0.0
C1364 C 0.45263 0.02551 0.58964 0.0
C1365 C 0.46412 0.05582 0.6352 0.0
H1366 H 0.40828 0.04662 0.62674 0.0
C1367 C 0.43037 0.09138 0.68596 0.0
C1368 C 0.4172 0.09728 0.677 0.0
C1369 C 0.43723 0.08087 0.67485 0.0
C1370 C 0.42405 0.04963 0.62906 0.0
H1371 H 0.48147 0.00315 0.61866 0.0
H1372 H 0.47021 0.02273 0.63686 0.0
H1373 H 0.41911 0.02695 0.60816 0.0
H1374 H 0.40101 0.0969 0.64934 0.0
H1375 H 0.41346 0.07912 0.62973 0.0
H1376 H 0.46924 0.07865 0.65589 0.0
C1377 C 0.46703 0.02054 0.62076 0.0
C1378 C 0.43021 0.03829 0.61845 0.0
C1379 C 0.47327 0.00914 0.61038 0.0
C1380 C 0.41122 0.09263 0.65662 0.0
C1381 C 0.4182 0.08226 0.64546 0.0
C1382 C 0.45803 0.06729 0.64569 0.0
C1383 C 0.45669 0.02889 0.61049 0.0
C1384 C 0.45026 0.04117 0.6215 0.0
C1385 C 0.43114 0.07607 0.65448 0.0
C1386 C 0.43787 0.06427 0.64286 0.0
H1387 H 0.4558 0.012 0.56316 0.0
H1388 H 0.44479 0.03186 0.5813 0.0
H1389 H 0.47979 0.05859 0.63764 0.0
H1390 H 0.43506 0.0946 0.7017 0.0
H1391 H 0.44688 0.0761 0.68243 0.0
C1392 C 0.47923 0.48616 0.09178 0.0
C1393 C 0.47725 0.47821 0.07243 0.0
C1394 C 0.46211 0.47751 0.10501 0.0
C1395 C 0.40986 0.43199 0.11448 0.0
H1396 H 0.3956 0.46921 0.13565 0.0
C1397 C 0.32493 0.39557 0.16332 0.0
C1398 C 0.31537 0.41327 0.16326 0.0
C1399 C 0.3509 0.4059 0.15321 0.0
C1400 C 0.39937 0.45863 0.12984 0.0
H1401 H 0.45629 0.45428 0.05222 0.0
H1402 H 0.42664 0.43911 0.0753 0.0
H1403 H 0.42893 0.4821 0.11821 0.0
H1404 H 0.31825 0.44407 0.14412 0.0
H1405 H 0.35926 0.45811 0.12728 0.0
H1406 H 0.38002 0.40854 0.12542 0.0
C1407 C 0.44131 0.45203 0.08029 0.0
C1408 C 0.41858 0.46602 0.12009 0.0
C1409 C 0.45828 0.46079 0.06702 0.0
C1410 C 0.32543 0.43515 0.14545 0.0
C1411 C 0.35139 0.44422 0.13595 0.0
C1412 C 0.39074 0.42462 0.12438 0.0
C1413 C 0.44284 0.46059 0.09921 0.0
C1414 C 0.42383 0.45277 0.11193 0.0
C1415 C 0.36411 0.43012 0.14041 0.0
C1416 C 0.38513 0.43787 0.13176 0.0
H1417 H 0.49363 0.49962 0.09635 0.0
H1418 H 0.46377 0.48432 0.11957 0.0
H1419 H 0.41354 0.42142 0.10843 0.0
H1420 H 0.31771 0.38202 0.17256 0.0
H1421 H 0.35864 0.39752 0.15504 0.0
C1422 C 0.96168 0.45354 0.5677 0.0
C1423 C 0.97017 0.45618 0.54827 0.0
C1424 C 0.94744 0.43436 0.57525 0.0
C1425 C 0.93706 0.38398 0.57255 0.0
H1426 H 0.88948 0.37067 0.60649 0.0
C1427 C 0.89579 0.31073 0.62054 0.0
C1428 C 0.89043 0.31246 0.64037 0.0
C1429 C 0.90184 0.32636 0.60638 0.0
C1430 C 0.9028 0.37417 0.59715 0.0
H1431 H 0.96993 0.44104 0.52113 0.0
H1432 H 0.94517 0.40715 0.53457 0.0
H1433 H 0.90588 0.40158 0.58615 0.0
H1434 H 0.88735 0.33195 0.66094 0.0
H1435 H 0.89834 0.35938 0.63648 0.0
H1436 H 0.93486 0.35727 0.58432 0.0
C1437 C 0.9494 0.42003 0.54382 0.0
C1438 C 0.91207 0.3918 0.5854 0.0
C1439 C 0.96339 0.43936 0.53608 0.0
C1440 C 0.89113 0.3301 0.64569 0.0
C1441 C 0.8973 0.34576 0.63159 0.0
C1442 C 0.92793 0.36644 0.58445 0.0
C1443 C 0.94169 0.41735 0.56367 0.0
C1444 C 0.9296 0.39712 0.57333 0.0
C1445 C 0.90292 0.34419 0.61178 0.0
C1446 C 0.91099 0.36155 0.59731 0.0
H1447 H 0.96674 0.4663 0.5774 0.0
H1448 H 0.94195 0.4328 0.59065 0.0
H1449 H 0.95074 0.38783 0.56361 0.0
H1450 H 0.89554 0.29737 0.61606 0.0
H1451 H 0.90583 0.32451 0.59123 0.0
C1452 C 0.55341 0.98421 0.09267 0.0
C1453 C 0.56687 0.0052 0.09175 0.0
C1454 C 0.55991 0.97217 0.10205 0.0
C1455 C 0.59866 0.97304 0.13814 0.0
H1456 H 0.58723 0.92539 0.10982 0.0
C1457 C 0.64321 0.92802 0.17101 0.0
C1458 C 0.62497 0.90039 0.16932 0.0
C1459 C 0.63331 0.94273 0.15996 0.0
C1460 C 0.59027 0.93843 0.11814 0.0
H1461 H 0.59765 0.02996 0.1004 0.0
H1462 H 0.60895 0.00895 0.11689 0.0
H1463 H 0.57477 0.94628 0.09561 0.0
H1464 H 0.59491 0.87243 0.14758 0.0
H1465 H 0.58146 0.89794 0.12976 0.0
H1466 H 0.61411 0.96515 0.16067 0.0
C1467 C 0.59329 0.00184 0.11043 0.0
C1468 C 0.58316 0.95045 0.10994 0.0
C1469 C 0.58679 0.01389 0.10099 0.0
C1470 C 0.60407 0.88852 0.14956 0.0
C1471 C 0.59538 0.90447 0.13921 0.0
C1472 C 0.60574 0.96096 0.14636 0.0
C1473 C 0.58002 0.98083 0.11083 0.0
C1474 C 0.5873 0.96792 0.11982 0.0
C1475 C 0.60938 0.93098 0.14496 0.0
C1476 C 0.60166 0.94357 0.13641 0.0
H1477 H 0.5378 0.97702 0.08611 0.0
H1478 H 0.54917 0.95606 0.10244 0.0
H1479 H 0.60187 0.98625 0.14625 0.0
H1480 H 0.65643 0.93458 0.1814 0.0
H1481 H 0.64188 0.95874 0.16235 0.0
C1482 C 0.56886 0.55429 0.56559 0.0
C1483 C 0.55369 0.53373 0.56394 0.0
C1484 C 0.58404 0.56113 0.58098 0.0
C1485 C 0.59808 0.54715 0.63012 0.0
H1486 H 0.65516 0.58457 0.61259 0.0
C1487 C 0.67041 0.56583 0.67996 0.0
C1488 C 0.68745 0.5858 0.67976 0.0
C1489 C 0.65363 0.55968 0.66638 0.0
C1490 C 0.63931 0.57434 0.61785 0.0
H1491 H 0.54192 0.50438 0.57787 0.0
H1492 H 0.56842 0.51633 0.60467 0.0
H1493 H 0.62621 0.57394 0.58869 0.0
H1494 H 0.69976 0.61516 0.66582 0.0
H1495 H 0.67045 0.60453 0.64223 0.0
H1496 H 0.61123 0.54752 0.6593 0.0
C1497 C 0.56855 0.52717 0.5941 0.0
C1498 C 0.62268 0.56825 0.60413 0.0
C1499 C 0.55338 0.52032 0.57868 0.0
C1500 C 0.6871 0.59957 0.66599 0.0
C1501 C 0.67031 0.59345 0.65246 0.0
C1502 C 0.61473 0.5533 0.64389 0.0
C1503 C 0.58438 0.54759 0.59511 0.0
C1504 C 0.60187 0.55456 0.61007 0.0
C1505 C 0.65337 0.57342 0.65244 0.0
C1506 C 0.63557 0.56693 0.6379 0.0
H1507 H 0.56951 0.56506 0.55457 0.0
H1508 H 0.59578 0.57701 0.58157 0.0
H1509 H 0.58222 0.53673 0.63523 0.0
H1510 H 0.67005 0.55497 0.69068 0.0
H1511 H 0.64095 0.54411 0.66669 0.0
C1512 C 0.10601 0.6012 0.01913 0.0
C1513 C 0.09891 0.58131 0.02517 0.0
C1514 C 0.11219 0.61612 0.03356 0.0
C1515 C 0.12912 0.62881 0.08676 0.0
H1516 H 0.10607 0.66303 0.08091 0.0
C1517 C 0.13241 0.67889 0.15145 0.0
C1518 C 0.13575 0.69788 0.14629 0.0
C1519 C 0.12912 0.66524 0.13639 0.0
C1520 C 0.11293 0.65384 0.08264 0.0
H1521 H 0.09358 0.56167 0.051 0.0
H1522 H 0.10436 0.58773 0.07622 0.0
H1523 H 0.09896 0.63853 0.05498 0.0
H1524 H 0.13828 0.71745 0.12133 0.0
H1525 H 0.13305 0.69385 0.09498 0.0
H1526 H 0.14315 0.64413 0.11438 0.0
C1527 C 0.10514 0.59178 0.06033 0.0
C1528 C 0.10883 0.63978 0.06777 0.0
C1529 C 0.0988 0.57683 0.04591 0.0
C1530 C 0.13579 0.70294 0.12575 0.0
C1531 C 0.13263 0.68935 0.11067 0.0
C1532 C 0.13336 0.64298 0.10157 0.0
C1533 C 0.11157 0.61152 0.05433 0.0
C1534 C 0.11677 0.62703 0.06972 0.0
C1535 C 0.12916 0.67028 0.1158 0.0
C1536 C 0.1252 0.65559 0.09977 0.0
H1537 H 0.1061 0.6051 0.00329 0.0
H1538 H 0.11727 0.63126 0.02848 0.0
H1539 H 0.13564 0.61933 0.08856 0.0
H1540 H 0.13218 0.67456 0.16718 0.0
H1541 H 0.12616 0.6506 0.14092 0.0
loop_
_geom_bond_atom_site_label_1
_geom_bond_atom_site_label_2
_geom_bond_distance
_geom_bond_site_symmetry_2
_ccdc_geom_bond_type
Cu0 N1 1.999 1_554 S
Cu0 O6 1.974 1_554 S
Cu0 N11 1.985 . S
Cu0 O20 1.959 . S
N1 Cu0 1.999 1_556 S
N1 C3 1.263 . S
N1 C5 1.389 1_556 S
N2 C3 1.358 1_655 S
N2 C4 1.400 . S
C3 N1 1.263 . S
C3 N2 1.358 1_455 S
C3 H9 0.930 . S
C4 N2 1.400 . S
C4 C5 1.351 1_656 S
C4 H21 0.930 . S
C5 N1 1.389 1_554 S
C5 C4 1.351 1_454 S
C5 H10 0.930 . S
O6 Cu0 1.974 1_556 S
O6 C16 1.282 . S
C7 O8 1.261 . S
C7 O20 1.251 . S
O8 C7 1.261 . S
H9 C3 0.930 . S
H10 C5 0.930 . S
N11 Cu0 1.985 . S
N11 C13 1.335 . S
N11 C14 1.390 . S
N12 C13 1.345 . S
N12 C15 1.336 . S
C13 N11 1.335 . S
C13 N12 1.345 . S
C13 H18 0.930 . S
C14 N11 1.390 . S
C14 C15 1.346 . S
C14 H19 0.955 . S
C15 N12 1.336 . S
C15 C14 1.346 . S
C15 H22 0.929 . S
C16 O6 1.282 . S
C16 O17 1.216 . S
O17 C16 1.216 . S
H18 C13 0.930 . S
H19 C14 0.955 . S
O20 Cu0 1.959 . S
O20 C7 1.251 . S
H21 C4 0.930 . S
H22 C15 0.929 . S
Cu23 N24 1.999 . S
Cu23 O29 1.974 . S
Cu23 N34 1.985 1_565 S
Cu23 O43 1.959 1_565 S
N24 Cu23 1.999 . S
N24 C26 1.263 . S
N24 C28 1.389 . S
N25 C26 1.358 . S
N25 C27 1.400 . S
C26 N24 1.263 . S
C26 N25 1.358 . S
C26 H32 0.930 . S
C27 N25 1.400 . S
C27 C28 1.351 . S
C27 H44 0.930 . S
C28 N24 1.389 . S
C28 C27 1.351 . S
C28 H33 0.930 . S
O29 Cu23 1.974 . S
O29 C39 1.282 . S
C30 O31 1.261 . S
C30 O43 1.251 . S
O31 C30 1.261 . S
H32 C26 0.930 . S
H33 C28 0.930 . S
N34 Cu23 1.985 1_545 S
N34 C36 1.335 . S
N34 C37 1.390 . S
N35 C36 1.345 . S
N35 C38 1.336 . S
C36 N34 1.335 . S
C36 N35 1.345 . S
C36 H41 0.930 . S
C37 N34 1.390 . S
C37 C38 1.346 . S
C37 H42 0.930 . S
C38 N35 1.336 . S
C38 C37 1.346 . S
C38 H45 0.929 . S
C39 O29 1.282 . S
C39 O40 1.216 1_565 S
O40 C39 1.216 1_545 S
H41 C36 0.930 . S
H42 C37 0.930 . S
O43 Cu23 1.959 1_545 S
O43 C30 1.251 . S
H44 C27 0.930 . S
H45 C38 0.929 . S
Cu46 N47 1.999 . S
Cu46 O52 1.974 . S
Cu46 N57 1.985 . S
Cu46 O66 1.959 . S
N47 Cu46 1.999 . S
N47 C49 1.263 1_554 S
N47 C51 1.389 1_554 S
N48 C49 1.358 . S
N48 C50 1.400 . S
C49 N47 1.263 1_556 S
C49 N48 1.358 . S
C49 H55 0.930 . S
C50 N48 1.400 . S
C50 C51 1.351 . S
C50 H67 0.930 . S
C51 N47 1.389 1_556 S
C51 C50 1.351 . S
C51 H56 0.930 1_556 S
O52 Cu46 1.974 . S
O52 C62 1.282 . S
C53 O54 1.261 . S
C53 O66 1.251 . S
O54 C53 1.261 . S
H55 C49 0.930 . S
H56 C51 0.930 1_554 S
N57 Cu46 1.985 . S
N57 C59 1.335 . S
N57 C60 1.390 . S
N58 C59 1.345 . S
N58 C61 1.336 . S
C59 N57 1.335 . S
C59 N58 1.345 . S
C59 H64 0.930 . S
C60 N57 1.390 . S
C60 C61 1.346 . S
C60 H65 0.930 . S
C61 N58 1.336 . S
C61 C60 1.346 . S
C61 H68 0.929 . S
C62 O52 1.282 . S
C62 O63 1.216 . S
O63 C62 1.216 . S
H64 C59 0.930 . S
H65 C60 0.930 . S
O66 Cu46 1.959 . S
O66 C53 1.251 . S
H67 C50 0.930 . S
H68 C61 0.929 . S
Cu69 N70 1.999 1_655 S
Cu69 O75 1.974 1_655 S
Cu69 N80 1.985 . S
Cu69 O89 1.959 . S
N70 Cu69 1.999 1_455 S
N70 C72 1.263 . S
N70 C74 1.389 1_455 S
N71 C72 1.358 . S
N71 C73 1.400 . S
C72 N70 1.263 . S
C72 N71 1.358 . S
C72 H78 0.930 . S
C73 N71 1.400 . S
C73 C74 1.351 1_455 S
C73 H90 0.947 1_455 S
C74 N70 1.389 1_655 S
C74 C73 1.351 1_655 S
C74 H79 0.930 . S
O75 Cu69 1.974 1_455 S
O75 C85 1.282 . S
C76 O77 1.261 1_655 S
C76 O89 1.251 . S
O77 C76 1.261 1_455 S
H78 C72 0.930 . S
H79 C74 0.930 . S
N80 Cu69 1.985 . S
N80 C82 1.335 . S
N80 C83 1.390 . S
N81 C82 1.345 . S
N81 C84 1.336 . S
C82 N80 1.335 . S
C82 N81 1.345 . S
C82 H87 0.930 . S
C83 N80 1.390 . S
C83 C84 1.346 . S
C83 H88 0.930 1_655 S
C84 N81 1.336 . S
C84 C83 1.346 . S
C84 H91 0.929 . S
C85 O75 1.282 . S
C85 O86 1.216 . S
O86 C85 1.216 . S
H87 C82 0.930 . S
H88 C83 0.930 1_455 S
O89 Cu69 1.959 . S
O89 C76 1.251 . S
H90 C73 0.947 1_655 S
H91 C84 0.929 . S
Cu92 N93 1.999 . S
Cu92 O98 1.974 . S
Cu92 N103 1.998 . S
Cu92 O112 1.959 . S
N93 Cu92 1.999 . S
N93 C95 1.211 1_554 S
N93 C97 1.389 . S
N94 C95 1.369 . S
N94 C96 1.400 1_556 S
C95 N93 1.211 1_556 S
C95 N94 1.369 . S
C95 H101 0.968 . S
C96 N94 1.400 1_554 S
C96 C97 1.351 . S
C96 H113 0.930 . S
C97 N93 1.389 . S
C97 C96 1.351 . S
C97 H102 0.930 . S
O98 Cu92 1.974 . S
O98 C108 1.282 1_554 S
C99 O100 1.261 . S
C99 O112 1.251 1_565 S
O100 C99 1.261 . S
H101 C95 0.968 . S
H102 C97 0.930 . S
N103 Cu92 1.998 . S
N103 C105 1.330 1_545 S
N103 C106 1.381 1_545 S
N104 C105 1.345 . S
N104 C107 1.336 . S
C105 N103 1.330 1_565 S
C105 N104 1.345 . S
C105 H110 0.930 . S
C106 N103 1.381 1_565 S
C106 C107 1.346 . S
C106 H111 0.930 1_565 S
C107 N104 1.336 . S
C107 C106 1.346 . S
C107 H114 0.929 . S
C108 O98 1.282 1_556 S
C108 O109 1.216 . S
O109 C108 1.216 . S
H110 C105 0.930 . S
H111 C106 0.930 1_545 S
O112 Cu92 1.959 . S
O112 C99 1.251 1_545 S
H113 C96 0.930 . S
H114 C107 0.929 . S
Cu115 N116 1.999 . S
Cu115 O121 1.974 . S
Cu115 N126 1.985 . S
Cu115 O135 1.959 . S
N116 Cu115 1.999 . S
N116 C118 1.263 . S
N116 C120 1.389 . S
N117 C118 1.358 . S
N117 C119 1.400 . S
C118 N116 1.263 . S
C118 N117 1.358 . S
C118 H124 0.930 . S
C119 N117 1.400 . S
C119 C120 1.351 . S
C119 H136 0.930 . S
C120 N116 1.389 . S
C120 C119 1.351 . S
C120 H125 0.930 . S
O121 Cu115 1.974 . S
O121 C131 1.282 . S
C122 O123 1.261 . S
C122 O135 1.251 . S
O123 C122 1.261 . S
H124 C118 0.930 . S
H125 C120 0.930 . S
N126 Cu115 1.985 . S
N126 C128 1.335 . S
N126 C129 1.390 . S
N127 C128 1.345 . S
N127 C130 1.336 . S
C128 N126 1.335 . S
C128 N127 1.345 . S
C128 H133 0.930 . S
C129 N126 1.390 . S
C129 C130 1.346 . S
C129 H134 0.930 . S
C130 N127 1.336 . S
C130 C129 1.346 . S
C130 H137 0.929 . S
C131 O121 1.282 . S
C131 O132 1.216 . S
O132 C131 1.216 . S
H133 C128 0.930 . S
H134 C129 0.930 . S
O135 Cu115 1.959 . S
O135 C122 1.251 . S
H136 C119 0.930 . S
H137 C130 0.929 . S
C138 C139 1.560 . S
C138 H199 0.959 . S
C138 H200 0.959 . S
C138 H201 0.960 . S
C139 C138 1.560 . S
C139 O194 1.426 . S
C139 H198 0.980 . S
C140 C141 1.407 . S
C140 C145 1.418 . S
C140 O194 1.334 . S
C141 C140 1.407 . S
C141 C142 1.360 . S
C141 H202 0.929 . S
C142 C141 1.360 . S
C142 C143 1.401 . S
C142 C146 1.527 . S
C143 C142 1.401 . S
C143 C144 1.405 . S
C143 C176 1.587 . S
C144 C143 1.405 . S
C144 C145 1.332 . S
C144 C147 1.496 . S
C145 C140 1.418 . S
C145 C144 1.332 . S
C145 H203 0.929 . S
C146 C142 1.527 . S
C146 H204 0.959 . S
C146 H205 0.961 . S
C146 H206 0.961 . S
C147 C144 1.496 . S
C147 H207 0.960 . S
C147 H208 0.960 . S
C147 H209 0.961 . S
C148 C149 1.517 . S
C148 H211 0.961 . S
C148 H212 0.960 . S
C148 H213 0.959 . S
C149 C148 1.517 . S
C149 O197 1.468 . S
C149 H210 0.980 . S
C150 C151 1.349 . S
C150 C155 1.367 . S
C150 O197 1.408 . S
C151 C150 1.349 . S
C151 C152 1.407 . S
C151 H214 0.930 . S
C152 C151 1.407 . S
C152 C153 1.449 . S
C152 C156 1.535 . S
C153 C152 1.449 . S
C153 C154 1.384 . S
C153 C178 1.553 . S
C154 C153 1.384 . S
C154 C155 1.364 . S
C154 C157 1.450 . S
C155 C150 1.367 . S
C155 C154 1.364 . S
C155 H215 0.931 . S
C156 C152 1.535 . S
C156 H216 0.959 . S
C156 H217 0.961 . S
C156 H218 0.959 . S
C157 C154 1.450 . S
C157 H219 0.960 . S
C157 H220 0.960 . S
C157 H221 0.960 . S
C158 C159 1.309 . S
C158 C163 1.304 . S
C158 O196 1.435 . S
C159 C158 1.309 . S
C159 C160 1.476 . S
C159 H223 0.930 . S
C160 C159 1.476 . S
C160 C161 1.400 . S
C160 C164 1.567 . S
C161 C160 1.400 . S
C161 C162 1.373 . S
C161 C183 1.432 . S
C162 C161 1.373 . S
C162 C163 1.339 . S
C162 C165 1.530 . S
C163 C158 1.304 . S
C163 C162 1.339 . S
C163 H224 0.930 . S
C164 C160 1.567 . S
C164 H225 0.961 . S
C164 H226 0.960 . S
C164 H227 0.958 . S
C165 C162 1.530 . S
C165 H228 0.961 . S
C165 H229 0.960 . S
C165 H230 0.960 . S
C166 C167 1.530 . S
C166 H232 0.961 . S
C166 H233 0.961 . S
C166 H234 0.959 . S
C167 C166 1.530 . S
C167 O195 1.412 . S
C167 H231 0.980 . S
C168 C169 1.288 . S
C168 C173 1.377 . S
C168 O195 1.393 . S
C169 C168 1.288 . S
C169 C170 1.369 . S
C169 H235 0.932 . S
C170 C169 1.369 . S
C170 C171 1.398 . S
C170 C174 1.527 . S
C171 C170 1.398 . S
C171 C172 1.380 . S
C171 C185 1.497 . S
C172 C171 1.380 . S
C172 C173 1.383 . S
C172 C175 1.603 . S
C173 C168 1.377 . S
C173 C172 1.383 . S
C173 H236 0.929 . S
C174 C170 1.527 . S
C174 H237 0.961 . S
C174 H238 0.959 . S
C174 H239 0.959 . S
C175 C172 1.603 . S
C175 H240 0.960 . S
C175 H241 0.962 . S
C175 H242 0.961 . S
C176 C143 1.587 . S
C176 C177 1.360 . S
C176 C189 1.412 . S
C177 C176 1.360 . S
C177 C178 1.365 . S
C177 H243 0.929 . S
C178 C153 1.553 . S
C178 C177 1.365 . S
C178 C179 1.404 . S
C179 C178 1.404 . S
C179 C180 1.395 . S
C179 C190 1.451 . S
C180 C179 1.395 . S
C180 C181 1.322 . S
C180 H244 0.930 . S
C181 C180 1.322 . S
C181 C182 1.459 . S
C181 H245 0.929 . S
C182 C181 1.459 . S
C182 C183 1.445 . S
C182 C191 1.395 . S
C183 C161 1.432 . S
C183 C182 1.445 . S
C183 C184 1.370 . S
C184 C183 1.370 . S
C184 C185 1.438 . S
C184 H246 0.930 . S
C185 C171 1.497 . S
C185 C184 1.438 . S
C185 C186 1.360 . S
C186 C185 1.360 . S
C186 C187 1.401 . S
C186 C191 1.446 . S
C187 C186 1.401 . S
C187 C188 1.347 . S
C187 H247 0.929 . S
C188 C187 1.347 . S
C188 C189 1.455 . S
C188 H248 0.930 . S
C189 C176 1.412 . S
C189 C188 1.455 . S
C189 C190 1.331 . S
C190 C179 1.451 . S
C190 C189 1.331 . S
C190 C191 1.497 . S
C191 C182 1.395 . S
C191 C186 1.446 . S
C191 C190 1.497 . S
C192 C193 1.582 . S
C192 H249 0.962 . S
C192 H250 0.959 . S
C192 H251 0.958 . S
C193 C192 1.582 . S
C193 O196 1.458 . S
C193 H222 0.980 . S
O194 C139 1.426 . S
O194 C140 1.334 . S
O195 C167 1.412 . S
O195 C168 1.393 . S
O196 C158 1.435 . S
O196 C193 1.458 . S
O197 C149 1.468 . S
O197 C150 1.408 . S
H198 C139 0.980 . S
H199 C138 0.959 . S
H200 C138 0.959 . S
H201 C138 0.960 . S
H202 C141 0.929 . S
H203 C145 0.929 . S
H204 C146 0.959 . S
H205 C146 0.961 . S
H206 C146 0.961 . S
H207 C147 0.960 . S
H208 C147 0.960 . S
H209 C147 0.961 . S
H210 C149 0.980 . S
H211 C148 0.961 . S
H212 C148 0.960 . S
H213 C148 0.959 . S
H214 C151 0.930 . S
H215 C155 0.931 . S
H216 C156 0.959 . S
H217 C156 0.961 . S
H218 C156 0.959 . S
H219 C157 0.960 . S
H220 C157 0.960 . S
H221 C157 0.960 . S
H222 C193 0.980 . S
H223 C159 0.930 . S
H224 C163 0.930 . S
H225 C164 0.961 . S
H226 C164 0.960 . S
H227 C164 0.958 . S
H228 C165 0.961 . S
H229 C165 0.960 . S
H230 C165 0.960 . S
H231 C167 0.980 . S
H232 C166 0.961 . S
H233 C166 0.961 . S
H234 C166 0.959 . S
H235 C169 0.932 . S
H236 C173 0.929 . S
H237 C174 0.961 . S
H238 C174 0.959 . S
H239 C174 0.959 . S
H240 C175 0.960 . S
H241 C175 0.962 . S
H242 C175 0.961 . S
H243 C177 0.929 . S
H244 C180 0.930 . S
H245 C181 0.929 . S
H246 C184 0.930 . S
H247 C187 0.929 . S
H248 C188 0.930 . S
H249 C192 0.962 . S
H250 C192 0.959 . S
H251 C192 0.958 . S
C252 C253 1.560 . S
C252 H313 0.959 . S
C252 H314 0.959 . S
C252 H315 0.960 . S
C253 C252 1.560 . S
C253 O308 1.426 . S
C253 H312 0.980 . S
C254 C255 1.407 . S
C254 C259 1.418 . S
C254 O308 1.334 . S
C255 C254 1.407 . S
C255 C256 1.360 . S
C255 H316 0.929 . S
C256 C255 1.360 . S
C256 C257 1.401 . S
C256 C260 1.527 . S
C257 C256 1.401 . S
C257 C258 1.405 . S
C257 C290 1.587 . S
C258 C257 1.405 . S
C258 C259 1.332 . S
C258 C261 1.496 . S
C259 C254 1.418 . S
C259 C258 1.332 . S
C259 H317 0.929 . S
C260 C256 1.527 . S
C260 H318 0.959 . S
C260 H319 0.961 . S
C260 H320 0.961 . S
C261 C258 1.496 . S
C261 H321 0.960 . S
C261 H322 0.960 . S
C261 H323 0.961 . S
C262 C263 1.517 . S
C262 H325 0.961 . S
C262 H326 0.960 . S
C262 H327 0.959 . S
C263 C262 1.517 . S
C263 O311 1.468 . S
C263 H324 0.980 . S
C264 C265 1.349 . S
C264 C269 1.367 . S
C264 O311 1.408 . S
C265 C264 1.349 . S
C265 C266 1.407 . S
C265 H328 0.930 . S
C266 C265 1.407 . S
C266 C267 1.449 . S
C266 C270 1.535 . S
C267 C266 1.449 . S
C267 C268 1.384 . S
C267 C292 1.553 . S
C268 C267 1.384 . S
C268 C269 1.364 . S
C268 C271 1.450 . S
C269 C264 1.367 . S
C269 C268 1.364 . S
C269 H329 0.931 . S
C270 C266 1.535 . S
C270 H330 0.959 . S
C270 H331 0.961 . S
C270 H332 0.959 . S
C271 C268 1.450 . S
C271 H333 0.960 . S
C271 H334 0.960 . S
C271 H335 0.960 . S
C272 C273 1.309 . S
C272 C277 1.304 . S
C272 O310 1.435 . S
C273 C272 1.309 . S
C273 C274 1.476 . S
C273 H337 0.930 . S
C274 C273 1.476 . S
C274 C275 1.400 . S
C274 C278 1.567 . S
C275 C274 1.400 . S
C275 C276 1.373 . S
C275 C297 1.432 . S
C276 C275 1.373 . S
C276 C277 1.339 . S
C276 C279 1.530 . S
C277 C272 1.304 . S
C277 C276 1.339 . S
C277 H338 0.930 . S
C278 C274 1.567 . S
C278 H339 0.961 . S
C278 H340 0.960 . S
C278 H341 0.958 . S
C279 C276 1.530 . S
C279 H342 0.961 . S
C279 H343 0.960 . S
C279 H344 0.960 . S
C280 C281 1.530 . S
C280 H346 0.961 . S
C280 H347 0.961 . S
C280 H348 0.959 . S
C281 C280 1.530 . S
C281 O309 1.412 . S
C281 H345 0.980 . S
C282 C283 1.288 . S
C282 C287 1.377 . S
C282 O309 1.393 . S
C283 C282 1.288 . S
C283 C284 1.369 . S
C283 H349 0.932 . S
C284 C283 1.369 . S
C284 C285 1.398 . S
C284 C288 1.527 . S
C285 C284 1.398 . S
C285 C286 1.380 . S
C285 C299 1.497 . S
C286 C285 1.380 . S
C286 C287 1.383 . S
C286 C289 1.603 . S
C287 C282 1.377 . S
C287 C286 1.383 . S
C287 H350 0.929 . S
C288 C284 1.527 . S
C288 H351 0.961 . S
C288 H352 0.959 . S
C288 H353 0.959 . S
C289 C286 1.603 . S
C289 H354 0.960 . S
C289 H355 0.962 . S
C289 H356 0.961 . S
C290 C257 1.587 . S
C290 C291 1.360 . S
C290 C303 1.412 . S
C291 C290 1.360 . S
C291 C292 1.365 . S
C291 H357 0.929 . S
C292 C267 1.553 . S
C292 C291 1.365 . S
C292 C293 1.404 . S
C293 C292 1.404 . S
C293 C294 1.395 . S
C293 C304 1.451 . S
C294 C293 1.395 . S
C294 C295 1.322 . S
C294 H358 0.930 . S
C295 C294 1.322 . S
C295 C296 1.459 . S
C295 H359 0.929 . S
C296 C295 1.459 . S
C296 C297 1.445 . S
C296 C305 1.395 . S
C297 C275 1.432 . S
C297 C296 1.445 . S
C297 C298 1.370 . S
C298 C297 1.370 . S
C298 C299 1.438 . S
C298 H360 0.930 . S
C299 C285 1.497 . S
C299 C298 1.438 . S
C299 C300 1.360 . S
C300 C299 1.360 . S
C300 C301 1.401 . S
C300 C305 1.446 . S
C301 C300 1.401 . S
C301 C302 1.347 . S
C301 H361 0.929 . S
C302 C301 1.347 . S
C302 C303 1.455 . S
C302 H362 0.930 . S
C303 C290 1.412 . S
C303 C302 1.455 . S
C303 C304 1.331 . S
C304 C293 1.451 . S
C304 C303 1.331 . S
C304 C305 1.497 . S
C305 C296 1.395 . S
C305 C300 1.446 . S
C305 C304 1.497 . S
C306 C307 1.582 . S
C306 H363 0.962 . S
C306 H364 0.959 . S
C306 H365 0.958 . S
C307 C306 1.582 . S
C307 O310 1.458 . S
C307 H336 0.980 . S
O308 C253 1.426 . S
O308 C254 1.334 . S
O309 C281 1.412 . S
O309 C282 1.393 . S
O310 C272 1.435 . S
O310 C307 1.458 . S
O311 C263 1.468 . S
O311 C264 1.408 . S
H312 C253 0.980 . S
H313 C252 0.959 . S
H314 C252 0.959 . S
H315 C252 0.960 . S
H316 C255 0.929 . S
H317 C259 0.929 . S
H318 C260 0.959 . S
H319 C260 0.961 . S
H320 C260 0.961 . S
H321 C261 0.960 . S
H322 C261 0.960 . S
H323 C261 0.961 . S
H324 C263 0.980 . S
H325 C262 0.961 . S
H326 C262 0.960 . S
H327 C262 0.959 . S
H328 C265 0.930 . S
H329 C269 0.931 . S
H330 C270 0.959 . S
H331 C270 0.961 . S
H332 C270 0.959 . S
H333 C271 0.960 . S
H334 C271 0.960 . S
H335 C271 0.960 . S
H336 C307 0.980 . S
H337 C273 0.930 . S
H338 C277 0.930 . S
H339 C278 0.961 . S
H340 C278 0.960 . S
H341 C278 0.958 . S
H342 C279 0.961 . S
H343 C279 0.960 . S
H344 C279 0.960 . S
H345 C281 0.980 . S
H346 C280 0.961 . S
H347 C280 0.961 . S
H348 C280 0.959 . S
H349 C283 0.932 . S
H350 C287 0.929 . S
H351 C288 0.961 . S
H352 C288 0.959 . S
H353 C288 0.959 . S
H354 C289 0.960 . S
H355 C289 0.962 . S
H356 C289 0.961 . S
H357 C291 0.929 . S
H358 C294 0.930 . S
H359 C295 0.929 . S
H360 C298 0.930 . S
H361 C301 0.929 . S
H362 C302 0.930 . S
H363 C306 0.962 . S
H364 C306 0.959 . S
H365 C306 0.958 . S
C366 C367 1.560 . S
C366 H427 0.959 . S
C366 H428 0.959 . S
C366 H429 0.960 . S
C367 C366 1.560 . S
C367 O422 1.426 . S
C367 H426 0.980 . S
C368 C369 1.407 . S
C368 C373 1.418 . S
C368 O422 1.334 . S
C369 C368 1.407 . S
C369 C370 1.360 . S
C369 H430 0.929 . S
C370 C369 1.360 . S
C370 C371 1.401 . S
C370 C374 1.527 . S
C371 C370 1.401 . S
C371 C372 1.405 . S
C371 C404 1.587 . S
C372 C371 1.405 . S
C372 C373 1.332 . S
C372 C375 1.496 . S
C373 C368 1.418 . S
C373 C372 1.332 . S
C373 H431 0.929 . S
C374 C370 1.527 . S
C374 H432 0.959 . S
C374 H433 0.961 . S
C374 H434 0.961 . S
C375 C372 1.496 . S
C375 H435 0.960 . S
C375 H436 0.960 . S
C375 H437 0.961 . S
C376 C377 1.517 . S
C376 H439 0.961 . S
C376 H440 0.960 . S
C376 H441 0.959 . S
C377 C376 1.517 . S
C377 O425 1.468 . S
C377 H438 0.980 . S
C378 C379 1.349 . S
C378 C383 1.367 . S
C378 O425 1.408 . S
C379 C378 1.349 . S
C379 C380 1.407 . S
C379 H442 0.930 . S
C380 C379 1.407 . S
C380 C381 1.449 . S
C380 C384 1.535 . S
C381 C380 1.449 . S
C381 C382 1.384 . S
C381 C406 1.553 . S
C382 C381 1.384 . S
C382 C383 1.364 . S
C382 C385 1.450 . S
C383 C378 1.367 . S
C383 C382 1.364 . S
C383 H443 0.931 . S
C384 C380 1.535 . S
C384 H444 0.959 . S
C384 H445 0.961 . S
C384 H446 0.959 . S
C385 C382 1.450 . S
C385 H447 0.960 . S
C385 H448 0.960 . S
C385 H449 0.960 . S
C386 C387 1.309 . S
C386 C391 1.304 . S
C386 O424 1.435 . S
C387 C386 1.309 . S
C387 C388 1.476 . S
C387 H451 0.930 . S
C388 C387 1.476 . S
C388 C389 1.400 . S
C388 C392 1.567 . S
C389 C388 1.400 . S
C389 C390 1.373 . S
C389 C411 1.432 . S
C390 C389 1.373 . S
C390 C391 1.339 . S
C390 C393 1.530 . S
C391 C386 1.304 . S
C391 C390 1.339 . S
C391 H452 0.930 . S
C392 C388 1.567 . S
C392 H453 0.961 . S
C392 H454 0.960 . S
C392 H455 0.958 . S
C393 C390 1.530 . S
C393 H456 0.961 . S
C393 H457 0.960 . S
C393 H458 0.960 . S
C394 C395 1.530 . S
C394 H460 0.961 . S
C394 H461 0.961 . S
C394 H462 0.959 . S
C395 C394 1.530 . S
C395 O423 1.412 . S
C395 H459 0.980 . S
C396 C397 1.288 . S
C396 C401 1.377 . S
C396 O423 1.393 . S
C397 C396 1.288 . S
C397 C398 1.369 . S
C397 H463 0.932 . S
C398 C397 1.369 . S
C398 C399 1.398 . S
C398 C402 1.527 . S
C399 C398 1.398 . S
C399 C400 1.380 . S
C399 C413 1.497 . S
C400 C399 1.380 . S
C400 C401 1.383 . S
C400 C403 1.603 . S
C401 C396 1.377 . S
C401 C400 1.383 . S
C401 H464 0.929 . S
C402 C398 1.527 . S
C402 H465 0.961 . S
C402 H466 0.959 . S
C402 H467 0.959 . S
C403 C400 1.603 . S
C403 H468 0.960 . S
C403 H469 0.962 . S
C403 H470 0.961 . S
C404 C371 1.587 . S
C404 C405 1.360 . S
C404 C417 1.412 . S
C405 C404 1.360 . S
C405 C406 1.365 . S
C405 H471 0.929 . S
C406 C381 1.553 . S
C406 C405 1.365 . S
C406 C407 1.404 . S
C407 C406 1.404 . S
C407 C408 1.395 . S
C407 C418 1.451 . S
C408 C407 1.395 . S
C408 C409 1.322 . S
C408 H472 0.930 . S
C409 C408 1.322 . S
C409 C410 1.459 . S
C409 H473 0.929 . S
C410 C409 1.459 . S
C410 C411 1.445 . S
C410 C419 1.395 . S
C411 C389 1.432 . S
C411 C410 1.445 . S
C411 C412 1.370 . S
C412 C411 1.370 . S
C412 C413 1.438 . S
C412 H474 0.930 . S
C413 C399 1.497 . S
C413 C412 1.438 . S
C413 C414 1.360 . S
C414 C413 1.360 . S
C414 C415 1.401 . S
C414 C419 1.446 . S
C415 C414 1.401 . S
C415 C416 1.347 . S
C415 H475 0.929 . S
C416 C415 1.347 . S
C416 C417 1.455 . S
C416 H476 0.930 . S
C417 C404 1.412 . S
C417 C416 1.455 . S
C417 C418 1.331 . S
C418 C407 1.451 . S
C418 C417 1.331 . S
C418 C419 1.497 . S
C419 C410 1.395 . S
C419 C414 1.446 . S
C419 C418 1.497 . S
C420 C421 1.582 . S
C420 H477 0.962 . S
C420 H478 0.959 . S
C420 H479 0.958 . S
C421 C420 1.582 . S
C421 O424 1.458 . S
C421 H450 0.980 . S
O422 C367 1.426 . S
O422 C368 1.334 . S
O423 C395 1.412 . S
O423 C396 1.393 . S
O424 C386 1.435 . S
O424 C421 1.458 . S
O425 C377 1.468 . S
O425 C378 1.408 . S
H426 C367 0.980 . S
H427 C366 0.959 . S
H428 C366 0.959 . S
H429 C366 0.960 . S
H430 C369 0.929 . S
H431 C373 0.929 . S
H432 C374 0.959 . S
H433 C374 0.961 . S
H434 C374 0.961 . S
H435 C375 0.960 . S
H436 C375 0.960 . S
H437 C375 0.961 . S
H438 C377 0.980 . S
H439 C376 0.961 . S
H440 C376 0.960 . S
H441 C376 0.959 . S
H442 C379 0.930 . S
H443 C383 0.931 . S
H444 C384 0.959 . S
H445 C384 0.961 . S
H446 C384 0.959 . S
H447 C385 0.960 . S
H448 C385 0.960 . S
H449 C385 0.960 . S
H450 C421 0.980 . S
H451 C387 0.930 . S
H452 C391 0.930 . S
H453 C392 0.961 . S
H454 C392 0.960 . S
H455 C392 0.958 . S
H456 C393 0.961 . S
H457 C393 0.960 . S
H458 C393 0.960 . S
H459 C395 0.980 . S
H460 C394 0.961 . S
H461 C394 0.961 . S
H462 C394 0.959 . S
H463 C397 0.932 . S
H464 C401 0.929 . S
H465 C402 0.961 . S
H466 C402 0.959 . S
H467 C402 0.959 . S
H468 C403 0.960 . S
H469 C403 0.962 . S
H470 C403 0.961 . S
H471 C405 0.929 . S
H472 C408 0.930 . S
H473 C409 0.929 . S
H474 C412 0.930 . S
H475 C415 0.929 . S
H476 C416 0.930 . S
H477 C420 0.962 . S
H478 C420 0.959 . S
H479 C420 0.958 . S
C480 C481 1.560 . S
C480 H541 0.959 . S
C480 H542 0.959 . S
C480 H543 0.960 . S
C481 C480 1.560 . S
C481 O536 1.426 . S
C481 H540 0.980 . S
C482 C483 1.407 . S
C482 C487 1.418 . S
C482 O536 1.334 . S
C483 C482 1.407 . S
C483 C484 1.360 . S
C483 H544 0.929 . S
C484 C483 1.360 . S
C484 C485 1.401 . S
C484 C488 1.527 . S
C485 C484 1.401 . S
C485 C486 1.405 . S
C485 C518 1.587 . S
C486 C485 1.405 . S
C486 C487 1.332 . S
C486 C489 1.496 . S
C487 C482 1.418 . S
C487 C486 1.332 . S
C487 H545 0.929 . S
C488 C484 1.527 . S
C488 H546 0.959 . S
C488 H547 0.961 . S
C488 H548 0.961 . S
C489 C486 1.496 . S
C489 H549 0.960 . S
C489 H550 0.960 . S
C489 H551 0.961 . S
C490 C491 1.517 . S
C490 H553 0.961 . S
C490 H554 0.960 . S
C490 H555 0.959 . S
C491 C490 1.517 . S
C491 O539 1.468 . S
C491 H552 0.980 . S
C492 C493 1.349 . S
C492 C497 1.367 . S
C492 O539 1.408 . S
C493 C492 1.349 . S
C493 C494 1.407 . S
C493 H556 0.930 . S
C494 C493 1.407 . S
C494 C495 1.449 . S
C494 C498 1.535 . S
C495 C494 1.449 . S
C495 C496 1.384 . S
C495 C520 1.553 . S
C496 C495 1.384 . S
C496 C497 1.364 . S
C496 C499 1.450 . S
C497 C492 1.367 . S
C497 C496 1.364 . S
C497 H557 0.931 . S
C498 C494 1.535 . S
C498 H558 0.959 . S
C498 H559 0.961 . S
C498 H560 0.959 . S
C499 C496 1.450 . S
C499 H561 0.960 . S
C499 H562 0.960 . S
C499 H563 0.960 . S
C500 C501 1.309 . S
C500 C505 1.304 . S
C500 O538 1.435 . S
C501 C500 1.309 . S
C501 C502 1.476 . S
C501 H565 0.930 . S
C502 C501 1.476 . S
C502 C503 1.400 . S
C502 C506 1.567 . S
C503 C502 1.400 . S
C503 C504 1.373 . S
C503 C525 1.432 . S
C504 C503 1.373 . S
C504 C505 1.339 . S
C504 C507 1.530 . S
C505 C500 1.304 . S
C505 C504 1.339 . S
C505 H566 0.930 . S
C506 C502 1.567 . S
C506 H567 0.961 . S
C506 H568 0.960 . S
C506 H569 0.958 . S
C507 C504 1.530 . S
C507 H570 0.961 . S
C507 H571 0.960 . S
C507 H572 0.960 . S
C508 C509 1.530 . S
C508 H574 0.961 . S
C508 H575 0.961 . S
C508 H576 0.959 . S
C509 C508 1.530 . S
C509 O537 1.412 . S
C509 H573 0.980 . S
C510 C511 1.288 . S
C510 C515 1.377 . S
C510 O537 1.393 . S
C511 C510 1.288 . S
C511 C512 1.369 . S
C511 H577 0.932 . S
C512 C511 1.369 . S
C512 C513 1.398 . S
C512 C516 1.527 . S
C513 C512 1.398 . S
C513 C514 1.380 . S
C513 C527 1.497 . S
C514 C513 1.380 . S
C514 C515 1.383 . S
C514 C517 1.603 . S
C515 C510 1.377 . S
C515 C514 1.383 . S
C515 H578 0.929 . S
C516 C512 1.527 . S
C516 H579 0.961 . S
C516 H580 0.959 . S
C516 H581 0.959 . S
C517 C514 1.603 . S
C517 H582 0.960 . S
C517 H583 0.962 . S
C517 H584 0.961 . S
C518 C485 1.587 . S
C518 C519 1.360 . S
C518 C531 1.412 . S
C519 C518 1.360 . S
C519 C520 1.365 . S
C519 H585 0.929 . S
C520 C495 1.553 . S
C520 C519 1.365 . S
C520 C521 1.404 . S
C521 C520 1.404 . S
C521 C522 1.395 . S
C521 C532 1.451 . S
C522 C521 1.395 . S
C522 C523 1.322 . S
C522 H586 0.930 . S
C523 C522 1.322 . S
C523 C524 1.459 . S
C523 H587 0.929 . S
C524 C523 1.459 . S
C524 C525 1.445 . S
C524 C533 1.395 . S
C525 C503 1.432 . S
C525 C524 1.445 . S
C525 C526 1.370 . S
C526 C525 1.370 . S
C526 C527 1.438 . S
C526 H588 0.930 . S
C527 C513 1.497 . S
C527 C526 1.438 . S
C527 C528 1.360 . S
C528 C527 1.360 . S
C528 C529 1.401 . S
C528 C533 1.446 . S
C529 C528 1.401 . S
C529 C530 1.347 . S
C529 H589 0.929 . S
C530 C529 1.347 . S
C530 C531 1.455 . S
C530 H590 0.930 . S
C531 C518 1.412 . S
C531 C530 1.455 . S
C531 C532 1.331 . S
C532 C521 1.451 . S
C532 C531 1.331 . S
C532 C533 1.497 . S
C533 C524 1.395 . S
C533 C528 1.446 . S
C533 C532 1.497 . S
C534 C535 1.582 . S
C534 H591 0.962 . S
C534 H592 0.959 . S
C534 H593 0.958 . S
C535 C534 1.582 . S
C535 O538 1.458 . S
C535 H564 0.980 . S
O536 C481 1.426 . S
O536 C482 1.334 . S
O537 C509 1.412 . S
O537 C510 1.393 . S
O538 C500 1.435 . S
O538 C535 1.458 . S
O539 C491 1.468 . S
O539 C492 1.408 . S
H540 C481 0.980 . S
H541 C480 0.959 . S
H542 C480 0.959 . S
H543 C480 0.960 . S
H544 C483 0.929 . S
H545 C487 0.929 . S
H546 C488 0.959 . S
H547 C488 0.961 . S
H548 C488 0.961 . S
H549 C489 0.960 . S
H550 C489 0.960 . S
H551 C489 0.961 . S
H552 C491 0.980 . S
H553 C490 0.961 . S
H554 C490 0.960 . S
H555 C490 0.959 . S
H556 C493 0.930 . S
H557 C497 0.931 . S
H558 C498 0.959 . S
H559 C498 0.961 . S
H560 C498 0.959 . S
H561 C499 0.960 . S
H562 C499 0.960 . S
H563 C499 0.960 . S
H564 C535 0.980 . S
H565 C501 0.930 . S
H566 C505 0.930 . S
H567 C506 0.961 . S
H568 C506 0.960 . S
H569 C506 0.958 . S
H570 C507 0.961 . S
H571 C507 0.960 . S
H572 C507 0.960 . S
H573 C509 0.980 . S
H574 C508 0.961 . S
H575 C508 0.961 . S
H576 C508 0.959 . S
H577 C511 0.932 . S
H578 C515 0.929 . S
H579 C516 0.961 . S
H580 C516 0.959 . S
H581 C516 0.959 . S
H582 C517 0.960 . S
H583 C517 0.962 . S
H584 C517 0.961 . S
H585 C519 0.929 . S
H586 C522 0.930 . S
H587 C523 0.929 . S
H588 C526 0.930 . S
H589 C529 0.929 . S
H590 C530 0.930 . S
H591 C534 0.962 . S
H592 C534 0.959 . S
H593 C534 0.958 . S
C594 C595 1.560 . S
C594 H655 0.959 . S
C594 H656 0.959 . S
C594 H657 0.960 . S
C595 C594 1.560 . S
C595 O650 1.426 . S
C595 H654 0.980 . S
C596 C597 1.407 . S
C596 C601 1.418 . S
C596 O650 1.334 . S
C597 C596 1.407 . S
C597 C598 1.360 . S
C597 H658 0.929 . S
C598 C597 1.360 . S
C598 C599 1.401 . S
C598 C602 1.527 . S
C599 C598 1.401 . S
C599 C600 1.405 . S
C599 C632 1.587 . S
C600 C599 1.405 . S
C600 C601 1.332 . S
C600 C603 1.496 . S
C601 C596 1.418 . S
C601 C600 1.332 . S
C601 H659 0.929 . S
C602 C598 1.527 . S
C602 H660 0.959 . S
C602 H661 0.961 . S
C602 H662 0.961 . S
C603 C600 1.496 . S
C603 H663 0.960 . S
C603 H664 0.960 . S
C603 H665 0.961 . S
C604 C605 1.517 . S
C604 H667 0.961 . S
C604 H668 0.960 . S
C604 H669 0.959 . S
C605 C604 1.517 . S
C605 O653 1.468 . S
C605 H666 0.980 . S
C606 C607 1.349 . S
C606 C611 1.367 . S
C606 O653 1.408 . S
C607 C606 1.349 . S
C607 C608 1.407 . S
C607 H670 0.930 . S
C608 C607 1.407 . S
C608 C609 1.449 . S
C608 C612 1.535 . S
C609 C608 1.449 . S
C609 C610 1.384 . S
C609 C634 1.553 . S
C610 C609 1.384 . S
C610 C611 1.364 . S
C610 C613 1.450 . S
C611 C606 1.367 . S
C611 C610 1.364 . S
C611 H671 0.931 . S
C612 C608 1.535 . S
C612 H672 0.959 . S
C612 H673 0.961 . S
C612 H674 0.959 . S
C613 C610 1.450 . S
C613 H675 0.960 . S
C613 H676 0.960 . S
C613 H677 0.960 . S
C614 C615 1.309 . S
C614 C619 1.304 . S
C614 O652 1.435 . S
C615 C614 1.309 . S
C615 C616 1.476 . S
C615 H679 0.930 . S
C616 C615 1.476 . S
C616 C617 1.400 . S
C616 C620 1.567 . S
C617 C616 1.400 . S
C617 C618 1.373 . S
C617 C639 1.432 . S
C618 C617 1.373 . S
C618 C619 1.339 . S
C618 C621 1.530 . S
C619 C614 1.304 . S
C619 C618 1.339 . S
C619 H680 0.930 . S
C620 C616 1.567 . S
C620 H681 0.961 . S
C620 H682 0.960 . S
C620 H683 0.958 . S
C621 C618 1.530 . S
C621 H684 0.961 . S
C621 H685 0.960 . S
C621 H686 0.960 . S
C622 C623 1.530 . S
C622 H688 0.961 . S
C622 H689 0.961 . S
C622 H690 0.959 . S
C623 C622 1.530 . S
C623 O651 1.412 . S
C623 H687 0.980 . S
C624 C625 1.288 . S
C624 C629 1.377 . S
C624 O651 1.393 . S
C625 C624 1.288 . S
C625 C626 1.369 . S
C625 H691 0.932 . S
C626 C625 1.369 . S
C626 C627 1.398 . S
C626 C630 1.527 . S
C627 C626 1.398 . S
C627 C628 1.380 . S
C627 C641 1.497 . S
C628 C627 1.380 . S
C628 C629 1.383 . S
C628 C631 1.603 . S
C629 C624 1.377 . S
C629 C628 1.383 . S
C629 H692 0.929 . S
C630 C626 1.527 . S
C630 H693 0.961 . S
C630 H694 0.959 . S
C630 H695 0.959 . S
C631 C628 1.603 . S
C631 H696 0.960 . S
C631 H697 0.962 . S
C631 H698 0.961 . S
C632 C599 1.587 . S
C632 C633 1.360 . S
C632 C645 1.412 . S
C633 C632 1.360 . S
C633 C634 1.365 . S
C633 H699 0.929 . S
C634 C609 1.553 . S
C634 C633 1.365 . S
C634 C635 1.404 . S
C635 C634 1.404 . S
C635 C636 1.395 . S
C635 C646 1.451 . S
C636 C635 1.395 . S
C636 C637 1.322 . S
C636 H700 0.930 . S
C637 C636 1.322 . S
C637 C638 1.459 . S
C637 H701 0.929 . S
C638 C637 1.459 . S
C638 C639 1.445 . S
C638 C647 1.395 . S
C639 C617 1.432 . S
C639 C638 1.445 . S
C639 C640 1.370 . S
C640 C639 1.370 . S
C640 C641 1.438 . S
C640 H702 0.930 . S
C641 C627 1.497 . S
C641 C640 1.438 . S
C641 C642 1.360 . S
C642 C641 1.360 . S
C642 C643 1.401 . S
C642 C647 1.446 . S
C643 C642 1.401 . S
C643 C644 1.347 . S
C643 H703 0.929 . S
C644 C643 1.347 . S
C644 C645 1.455 . S
C644 H704 0.930 . S
C645 C632 1.412 . S
C645 C644 1.455 . S
C645 C646 1.331 . S
C646 C635 1.451 . S
C646 C645 1.331 . S
C646 C647 1.497 . S
C647 C638 1.395 . S
C647 C642 1.446 . S
C647 C646 1.497 . S
C648 C649 1.582 . S
C648 H705 0.962 . S
C648 H706 0.959 . S
C648 H707 0.958 . S
C649 C648 1.582 . S
C649 O652 1.458 . S
C649 H678 0.980 . S
O650 C595 1.426 . S
O650 C596 1.334 . S
O651 C623 1.412 . S
O651 C624 1.393 . S
O652 C614 1.435 . S
O652 C649 1.458 . S
O653 C605 1.468 . S
O653 C606 1.408 . S
H654 C595 0.980 . S
H655 C594 0.959 . S
H656 C594 0.959 . S
H657 C594 0.960 . S
H658 C597 0.929 . S
H659 C601 0.929 . S
H660 C602 0.959 . S
H661 C602 0.961 . S
H662 C602 0.961 . S
H663 C603 0.960 . S
H664 C603 0.960 . S
H665 C603 0.961 . S
H666 C605 0.980 . S
H667 C604 0.961 . S
H668 C604 0.960 . S
H669 C604 0.959 . S
H670 C607 0.930 . S
H671 C611 0.931 . S
H672 C612 0.959 . S
H673 C612 0.961 . S
H674 C612 0.959 . S
H675 C613 0.960 . S
H676 C613 0.960 . S
H677 C613 0.960 . S
H678 C649 0.980 . S
H679 C615 0.930 . S
H680 C619 0.930 . S
H681 C620 0.961 . S
H682 C620 0.960 . S
H683 C620 0.958 . S
H684 C621 0.961 . S
H685 C621 0.960 . S
H686 C621 0.960 . S
H687 C623 0.980 . S
H688 C622 0.961 . S
H689 C622 0.961 . S
H690 C622 0.959 . S
H691 C625 0.932 . S
H692 C629 0.929 . S
H693 C630 0.961 . S
H694 C630 0.959 . S
H695 C630 0.959 . S
H696 C631 0.960 . S
H697 C631 0.962 . S
H698 C631 0.961 . S
H699 C633 0.929 . S
H700 C636 0.930 . S
H701 C637 0.929 . S
H702 C640 0.930 . S
H703 C643 0.929 . S
H704 C644 0.930 . S
H705 C648 0.962 . S
H706 C648 0.959 . S
H707 C648 0.958 . S
C708 C709 1.560 . S
C708 H769 0.959 . S
C708 H770 0.959 . S
C708 H771 0.960 . S
C709 C708 1.560 . S
C709 O764 1.426 . S
C709 H768 0.980 . S
C710 C711 1.407 . S
C710 C715 1.418 . S
C710 O764 1.334 . S
C711 C710 1.407 . S
C711 C712 1.360 . S
C711 H772 0.929 . S
C712 C711 1.360 . S
C712 C713 1.401 . S
C712 C716 1.527 . S
C713 C712 1.401 . S
C713 C714 1.405 . S
C713 C746 1.587 . S
C714 C713 1.405 . S
C714 C715 1.332 . S
C714 C717 1.496 . S
C715 C710 1.418 . S
C715 C714 1.332 . S
C715 H773 0.929 . S
C716 C712 1.527 . S
C716 H774 0.959 . S
C716 H775 0.961 . S
C716 H776 0.961 . S
C717 C714 1.496 . S
C717 H777 0.960 . S
C717 H778 0.960 . S
C717 H779 0.961 . S
C718 C719 1.517 . S
C718 H781 0.961 . S
C718 H782 0.960 . S
C718 H783 0.959 . S
C719 C718 1.517 . S
C719 O767 1.468 . S
C719 H780 0.980 . S
C720 C721 1.349 . S
C720 C725 1.367 . S
C720 O767 1.408 . S
C721 C720 1.349 . S
C721 C722 1.407 . S
C721 H784 0.930 . S
C722 C721 1.407 . S
C722 C723 1.449 . S
C722 C726 1.535 . S
C723 C722 1.449 . S
C723 C724 1.384 . S
C723 C748 1.553 . S
C724 C723 1.384 . S
C724 C725 1.364 . S
C724 C727 1.450 . S
C725 C720 1.367 . S
C725 C724 1.364 . S
C725 H785 0.931 . S
C726 C722 1.535 . S
C726 H786 0.959 . S
C726 H787 0.961 . S
C726 H788 0.959 . S
C727 C724 1.450 . S
C727 H789 0.960 . S
C727 H790 0.960 . S
C727 H791 0.960 . S
C728 C729 1.309 . S
C728 C733 1.304 . S
C728 O766 1.435 . S
C729 C728 1.309 . S
C729 C730 1.476 . S
C729 H793 0.930 . S
C730 C729 1.476 . S
C730 C731 1.400 . S
C730 C734 1.567 . S
C731 C730 1.400 . S
C731 C732 1.373 . S
C731 C753 1.432 . S
C732 C731 1.373 . S
C732 C733 1.339 . S
C732 C735 1.530 . S
C733 C728 1.304 . S
C733 C732 1.339 . S
C733 H794 0.930 . S
C734 C730 1.567 . S
C734 H795 0.961 . S
C734 H796 0.960 . S
C734 H797 0.958 . S
C735 C732 1.530 . S
C735 H798 0.961 . S
C735 H799 0.960 . S
C735 H800 0.960 . S
C736 C737 1.530 . S
C736 H802 0.961 . S
C736 H803 0.961 . S
C736 H804 0.959 . S
C737 C736 1.530 . S
C737 O765 1.412 . S
C737 H801 0.980 . S
C738 C739 1.288 . S
C738 C743 1.377 . S
C738 O765 1.393 . S
C739 C738 1.288 . S
C739 C740 1.369 . S
C739 H805 0.932 . S
C740 C739 1.369 . S
C740 C741 1.398 . S
C740 C744 1.527 . S
C741 C740 1.398 . S
C741 C742 1.380 . S
C741 C755 1.497 . S
C742 C741 1.380 . S
C742 C743 1.383 . S
C742 C745 1.603 . S
C743 C738 1.377 . S
C743 C742 1.383 . S
C743 H806 0.929 . S
C744 C740 1.527 . S
C744 H807 0.961 . S
C744 H808 0.959 . S
C744 H809 0.959 . S
C745 C742 1.603 . S
C745 H810 0.960 . S
C745 H811 0.962 . S
C745 H812 0.961 . S
C746 C713 1.587 . S
C746 C747 1.360 . S
C746 C759 1.412 . S
C747 C746 1.360 . S
C747 C748 1.365 . S
C747 H813 0.929 . S
C748 C723 1.553 . S
C748 C747 1.365 . S
C748 C749 1.404 . S
C749 C748 1.404 . S
C749 C750 1.395 . S
C749 C760 1.451 . S
C750 C749 1.395 . S
C750 C751 1.322 . S
C750 H814 0.930 . S
C751 C750 1.322 . S
C751 C752 1.459 . S
C751 H815 0.929 . S
C752 C751 1.459 . S
C752 C753 1.445 . S
C752 C761 1.395 . S
C753 C731 1.432 . S
C753 C752 1.445 . S
C753 C754 1.370 . S
C754 C753 1.370 . S
C754 C755 1.438 . S
C754 H816 0.930 . S
C755 C741 1.497 . S
C755 C754 1.438 . S
C755 C756 1.360 . S
C756 C755 1.360 . S
C756 C757 1.401 . S
C756 C761 1.446 . S
C757 C756 1.401 . S
C757 C758 1.347 . S
C757 H817 0.929 . S
C758 C757 1.347 . S
C758 C759 1.455 . S
C758 H818 0.930 . S
C759 C746 1.412 . S
C759 C758 1.455 . S
C759 C760 1.331 . S
C760 C749 1.451 . S
C760 C759 1.331 . S
C760 C761 1.497 . S
C761 C752 1.395 . S
C761 C756 1.446 . S
C761 C760 1.497 . S
C762 C763 1.582 . S
C762 H819 0.962 . S
C762 H820 0.959 . S
C762 H821 0.958 . S
C763 C762 1.582 . S
C763 O766 1.458 . S
C763 H792 0.980 . S
O764 C709 1.426 . S
O764 C710 1.334 . S
O765 C737 1.412 . S
O765 C738 1.393 . S
O766 C728 1.435 . S
O766 C763 1.458 . S
O767 C719 1.468 . S
O767 C720 1.408 . S
H768 C709 0.980 . S
H769 C708 0.959 . S
H770 C708 0.959 . S
H771 C708 0.960 . S
H772 C711 0.929 . S
H773 C715 0.929 . S
H774 C716 0.959 . S
H775 C716 0.961 . S
H776 C716 0.961 . S
H777 C717 0.960 . S
H778 C717 0.960 . S
H779 C717 0.961 . S
H780 C719 0.980 . S
H781 C718 0.961 . S
H782 C718 0.960 . S
H783 C718 0.959 . S
H784 C721 0.930 . S
H785 C725 0.931 . S
H786 C726 0.959 . S
H787 C726 0.961 . S
H788 C726 0.959 . S
H789 C727 0.960 . S
H790 C727 0.960 . S
H791 C727 0.960 . S
H792 C763 0.980 . S
H793 C729 0.930 . S
H794 C733 0.930 . S
H795 C734 0.961 . S
H796 C734 0.960 . S
H797 C734 0.958 . S
H798 C735 0.961 . S
H799 C735 0.960 . S
H800 C735 0.960 . S
H801 C737 0.980 . S
H802 C736 0.961 . S
H803 C736 0.961 . S
H804 C736 0.959 . S
H805 C739 0.932 . S
H806 C743 0.929 . S
H807 C744 0.961 . S
H808 C744 0.959 . S
H809 C744 0.959 . S
H810 C745 0.960 . S
H811 C745 0.962 . S
H812 C745 0.961 . S
H813 C747 0.929 . S
H814 C750 0.930 . S
H815 C751 0.929 . S
H816 C754 0.930 . S
H817 C757 0.929 . S
H818 C758 0.930 . S
H819 C762 0.962 . S
H820 C762 0.959 . S
H821 C762 0.958 . S
C822 C823 1.349 . S
C822 C824 1.327 . S
C822 H847 0.950 . S
C823 C822 1.349 . S
C823 C839 1.349 . S
C824 C822 1.327 . S
C824 C843 1.429 . S
C824 H848 0.950 . S
C825 C842 1.574 . S
C825 C844 1.368 . S
C825 H849 0.949 . S
H826 C830 0.949 . S
C827 C828 1.349 . S
C827 C829 1.327 . S
C827 H850 0.950 . S
C828 C827 1.349 . S
C828 C840 1.349 . S
C829 C827 1.327 . S
C829 C845 1.429 . S
C829 H851 0.950 . S
C830 H826 0.949 . S
C830 C838 1.574 . S
C830 C846 1.368 . S
H831 C839 0.950 . S
H832 C837 0.950 . S
H833 C838 0.949 . S
H834 C840 0.950 . S
H835 C841 0.950 . S
H836 C842 0.949 . S
C837 H832 0.950 . S
C837 C839 1.327 . S
C837 C843 1.429 . S
C838 C830 1.574 . S
C838 H833 0.949 . S
C838 C844 1.368 . S
C839 C823 1.349 . S
C839 H831 0.950 . S
C839 C837 1.327 . S
C840 C828 1.349 . S
C840 H834 0.950 . S
C840 C841 1.327 . S
C841 H835 0.950 . S
C841 C840 1.327 . S
C841 C845 1.429 . S
C842 C825 1.574 . S
C842 H836 0.949 . S
C842 C846 1.368 . S
C843 C824 1.429 . S
C843 C837 1.429 . S
C843 C844 1.523 . S
C844 C825 1.368 . S
C844 C838 1.368 . S
C844 C843 1.523 . S
C845 C829 1.429 . S
C845 C841 1.429 . S
C845 C846 1.523 . S
C846 C830 1.368 . S
C846 C842 1.368 . S
C846 C845 1.523 . S
H847 C822 0.950 . S
H848 C824 0.950 . S
H849 C825 0.949 . S
H850 C827 0.950 . S
H851 C829 0.950 . S
C852 C853 1.349 . S
C852 C854 1.327 . S
C852 H877 0.950 . S
C853 C852 1.349 . S
C853 C869 1.349 . S
C854 C852 1.327 . S
C854 C873 1.429 . S
C854 H878 0.950 . S
C855 C872 1.574 . S
C855 C874 1.368 . S
C855 H879 0.949 . S
H856 C860 0.949 . S
C857 C858 1.349 . S
C857 C859 1.327 . S
C857 H880 0.950 . S
C858 C857 1.349 . S
C858 C870 1.349 . S
C859 C857 1.327 . S
C859 C875 1.429 . S
C859 H881 0.950 . S
C860 H856 0.949 . S
C860 C868 1.574 . S
C860 C876 1.368 . S
H861 C869 0.950 . S
H862 C867 0.950 . S
H863 C868 0.949 . S
H864 C870 0.950 . S
H865 C871 0.950 . S
H866 C872 0.949 . S
C867 H862 0.950 . S
C867 C869 1.327 . S
C867 C873 1.429 . S
C868 C860 1.574 . S
C868 H863 0.949 . S
C868 C874 1.368 . S
C869 C853 1.349 . S
C869 H861 0.950 . S
C869 C867 1.327 . S
C870 C858 1.349 . S
C870 H864 0.950 . S
C870 C871 1.327 . S
C871 H865 0.950 . S
C871 C870 1.327 . S
C871 C875 1.429 . S
C872 C855 1.574 . S
C872 H866 0.949 . S
C872 C876 1.368 . S
C873 C854 1.429 . S
C873 C867 1.429 . S
C873 C874 1.523 . S
C874 C855 1.368 . S
C874 C868 1.368 . S
C874 C873 1.523 . S
C875 C859 1.429 . S
C875 C871 1.429 . S
C875 C876 1.523 . S
C876 C860 1.368 . S
C876 C872 1.368 . S
C876 C875 1.523 . S
H877 C852 0.950 . S
H878 C854 0.950 . S
H879 C855 0.949 . S
H880 C857 0.950 . S
H881 C859 0.950 . S
C882 C883 1.349 . S
C882 C884 1.327 . S
C882 H907 0.950 . S
C883 C882 1.349 . S
C883 C899 1.349 . S
C884 C882 1.327 . S
C884 C903 1.429 . S
C884 H908 0.950 . S
C885 C902 1.574 . S
C885 C904 1.368 . S
C885 H909 0.949 . S
H886 C890 0.949 . S
C887 C888 1.349 . S
C887 C889 1.327 . S
C887 H910 0.950 . S
C888 C887 1.349 . S
C888 C900 1.349 . S
C889 C887 1.327 . S
C889 C905 1.429 . S
C889 H911 0.950 . S
C890 H886 0.949 . S
C890 C898 1.574 . S
C890 C906 1.368 . S
H891 C899 0.950 . S
H892 C897 0.950 . S
H893 C898 0.949 . S
H894 C900 0.950 . S
H895 C901 0.950 . S
H896 C902 0.949 . S
C897 H892 0.950 . S
C897 C899 1.327 . S
C897 C903 1.429 . S
C898 C890 1.574 . S
C898 H893 0.949 . S
C898 C904 1.368 . S
C899 C883 1.349 . S
C899 H891 0.950 . S
C899 C897 1.327 . S
C900 C888 1.349 . S
C900 H894 0.950 . S
C900 C901 1.327 . S
C901 H895 0.950 . S
C901 C900 1.327 . S
C901 C905 1.429 . S
C902 C885 1.574 . S
C902 H896 0.949 . S
C902 C906 1.368 . S
C903 C884 1.429 . S
C903 C897 1.429 . S
C903 C904 1.523 . S
C904 C885 1.368 . S
C904 C898 1.368 . S
C904 C903 1.523 . S
C905 C889 1.429 . S
C905 C901 1.429 . S
C905 C906 1.523 . S
C906 C890 1.368 . S
C906 C902 1.368 . S
C906 C905 1.523 . S
H907 C882 0.950 . S
H908 C884 0.950 . S
H909 C885 0.949 . S
H910 C887 0.950 . S
H911 C889 0.950 . S
C912 C913 1.349 . S
C912 C914 1.327 . S
C912 H937 0.950 . S
C913 C912 1.349 . S
C913 C929 1.349 . S
C914 C912 1.327 . S
C914 C933 1.429 . S
C914 H938 0.950 . S
C915 C932 1.574 . S
C915 C934 1.368 . S
C915 H939 0.949 . S
H916 C920 0.949 . S
C917 C918 1.349 . S
C917 C919 1.327 . S
C917 H940 0.950 . S
C918 C917 1.349 . S
C918 C930 1.349 . S
C919 C917 1.327 . S
C919 C935 1.429 . S
C919 H941 0.950 . S
C920 H916 0.949 . S
C920 C928 1.574 . S
C920 C936 1.368 . S
H921 C929 0.950 . S
H922 C927 0.950 . S
H923 C928 0.949 . S
H924 C930 0.950 . S
H925 C931 0.950 . S
H926 C932 0.949 . S
C927 H922 0.950 . S
C927 C929 1.327 . S
C927 C933 1.429 . S
C928 C920 1.574 . S
C928 H923 0.949 . S
C928 C934 1.368 . S
C929 C913 1.349 . S
C929 H921 0.950 . S
C929 C927 1.327 . S
C930 C918 1.349 . S
C930 H924 0.950 . S
C930 C931 1.327 . S
C931 H925 0.950 . S
C931 C930 1.327 . S
C931 C935 1.429 . S
C932 C915 1.574 . S
C932 H926 0.949 . S
C932 C936 1.368 . S
C933 C914 1.429 . S
C933 C927 1.429 . S
C933 C934 1.523 . S
C934 C915 1.368 . S
C934 C928 1.368 . S
C934 C933 1.523 . S
C935 C919 1.429 . S
C935 C931 1.429 . S
C935 C936 1.523 . S
C936 C920 1.368 . S
C936 C932 1.368 . S
C936 C935 1.523 . S
H937 C912 0.950 . S
H938 C914 0.950 . S
H939 C915 0.949 . S
H940 C917 0.950 . S
H941 C919 0.950 . S
C942 C943 1.349 . S
C942 C944 1.327 . S
C942 H967 0.950 . S
C943 C942 1.349 . S
C943 C959 1.349 . S
C944 C942 1.327 . S
C944 C963 1.429 . S
C944 H968 0.950 . S
C945 C962 1.574 . S
C945 C964 1.368 . S
C945 H969 0.949 . S
H946 C950 0.949 . S
C947 C948 1.349 . S
C947 C949 1.327 . S
C947 H970 0.950 . S
C948 C947 1.349 . S
C948 C960 1.349 . S
C949 C947 1.327 . S
C949 C965 1.429 . S
C949 H971 0.950 . S
C950 H946 0.949 . S
C950 C958 1.574 . S
C950 C966 1.368 . S
H951 C959 0.950 . S
H952 C957 0.950 . S
H953 C958 0.949 . S
H954 C960 0.950 . S
H955 C961 0.950 . S
H956 C962 0.949 . S
C957 H952 0.950 . S
C957 C959 1.327 . S
C957 C963 1.429 . S
C958 C950 1.574 . S
C958 H953 0.949 . S
C958 C964 1.368 . S
C959 C943 1.349 . S
C959 H951 0.950 . S
C959 C957 1.327 . S
C960 C948 1.349 . S
C960 H954 0.950 . S
C960 C961 1.327 . S
C961 H955 0.950 . S
C961 C960 1.327 . S
C961 C965 1.429 . S
C962 C945 1.574 . S
C962 H956 0.949 . S
C962 C966 1.368 . S
C963 C944 1.429 . S
C963 C957 1.429 . S
C963 C964 1.523 . S
C964 C945 1.368 . S
C964 C958 1.368 . S
C964 C963 1.523 . S
C965 C949 1.429 . S
C965 C961 1.429 . S
C965 C966 1.523 . S
C966 C950 1.368 . S
C966 C962 1.368 . S
C966 C965 1.523 . S
H967 C942 0.950 . S
H968 C944 0.950 . S
H969 C945 0.949 . S
H970 C947 0.950 . S
H971 C949 0.950 . S
C972 C973 1.349 . S
C972 C974 1.327 . S
C972 H997 0.950 . S
C973 C972 1.349 . S
C973 C989 1.349 . S
C974 C972 1.327 . S
C974 C993 1.429 . S
C974 H998 0.950 . S
C975 C992 1.574 . S
C975 C994 1.368 . S
C975 H999 0.949 . S
H976 C980 0.949 . S
C977 C978 1.349 . S
C977 C979 1.327 . S
C977 H1000 0.950 . S
C978 C977 1.349 . S
C978 C990 1.349 . S
C979 C977 1.327 . S
C979 C995 1.429 . S
C979 H1001 0.950 . S
C980 H976 0.949 . S
C980 C988 1.574 . S
C980 C996 1.368 . S
H981 C989 0.950 . S
H982 C987 0.950 . S
H983 C988 0.949 . S
H984 C990 0.950 . S
H985 C991 0.950 . S
H986 C992 0.949 . S
C987 H982 0.950 . S
C987 C989 1.327 . S
C987 C993 1.429 . S
C988 C980 1.574 . S
C988 H983 0.949 . S
C988 C994 1.368 . S
C989 C973 1.349 . S
C989 H981 0.950 . S
C989 C987 1.327 . S
C990 C978 1.349 . S
C990 H984 0.950 . S
C990 C991 1.327 . S
C991 H985 0.950 . S
C991 C990 1.327 . S
C991 C995 1.429 . S
C992 C975 1.574 . S
C992 H986 0.949 . S
C992 C996 1.368 . S
C993 C974 1.429 . S
C993 C987 1.429 . S
C993 C994 1.523 . S
C994 C975 1.368 . S
C994 C988 1.368 . S
C994 C993 1.523 . S
C995 C979 1.429 . S
C995 C991 1.429 . S
C995 C996 1.523 . S
C996 C980 1.368 . S
C996 C992 1.368 . S
C996 C995 1.523 . S
H997 C972 0.950 . S
H998 C974 0.950 . S
H999 C975 0.949 . S
H1000 C977 0.950 . S
H1001 C979 0.950 . S
C1002 C1003 1.349 . S
C1002 C1004 1.327 . S
C1002 H1027 0.950 . S
C1003 C1002 1.349 . S
C1003 C1019 1.349 . S
C1004 C1002 1.327 . S
C1004 C1023 1.429 . S
C1004 H1028 0.950 . S
C1005 C1022 1.574 . S
C1005 C1024 1.368 . S
C1005 H1029 0.949 . S
H1006 C1010 0.949 . S
C1007 C1008 1.349 . S
C1007 C1009 1.327 . S
C1007 H1030 0.950 . S
C1008 C1007 1.349 . S
C1008 C1020 1.349 . S
C1009 C1007 1.327 . S
C1009 C1025 1.429 . S
C1009 H1031 0.950 . S
C1010 H1006 0.949 . S
C1010 C1018 1.574 . S
C1010 C1026 1.368 . S
H1011 C1019 0.950 . S
H1012 C1017 0.950 . S
H1013 C1018 0.949 . S
H1014 C1020 0.950 . S
H1015 C1021 0.950 . S
H1016 C1022 0.949 . S
C1017 H1012 0.950 . S
C1017 C1019 1.327 . S
C1017 C1023 1.429 . S
C1018 C1010 1.574 . S
C1018 H1013 0.949 . S
C1018 C1024 1.368 . S
C1019 C1003 1.349 . S
C1019 H1011 0.950 . S
C1019 C1017 1.327 . S
C1020 C1008 1.349 . S
C1020 H1014 0.950 . S
C1020 C1021 1.327 . S
C1021 H1015 0.950 . S
C1021 C1020 1.327 . S
C1021 C1025 1.429 . S
C1022 C1005 1.574 . S
C1022 H1016 0.949 . S
C1022 C1026 1.368 . S
C1023 C1004 1.429 . S
C1023 C1017 1.429 . S
C1023 C1024 1.523 . S
C1024 C1005 1.368 . S
C1024 C1018 1.368 . S
C1024 C1023 1.523 . S
C1025 C1009 1.429 . S
C1025 C1021 1.429 . S
C1025 C1026 1.523 . S
C1026 C1010 1.368 . S
C1026 C1022 1.368 . S
C1026 C1025 1.523 . S
H1027 C1002 0.950 . S
H1028 C1004 0.950 . S
H1029 C1005 0.949 . S
H1030 C1007 0.950 . S
H1031 C1009 0.950 . S
C1032 C1033 1.349 . S
C1032 C1034 1.327 . S
C1032 H1057 0.950 1_556 S
C1033 C1032 1.349 . S
C1033 C1049 1.349 . S
C1034 C1032 1.327 . S
C1034 C1053 1.429 . S
C1034 H1058 0.950 . S
C1035 C1052 1.574 . S
C1035 C1054 1.368 . S
C1035 H1059 0.949 . S
H1036 C1040 0.949 . S
C1037 C1038 1.349 . S
C1037 C1039 1.327 . S
C1037 H1060 0.950 . S
C1038 C1037 1.349 . S
C1038 C1050 1.349 . S
C1039 C1037 1.327 . S
C1039 C1055 1.429 . S
C1039 H1061 0.950 . S
C1040 H1036 0.949 . S
C1040 C1048 1.574 . S
C1040 C1056 1.368 . S
H1041 C1049 0.950 . S
H1042 C1047 0.950 . S
H1043 C1048 0.949 . S
H1044 C1050 0.950 . S
H1045 C1051 0.950 . S
H1046 C1052 0.949 . S
C1047 H1042 0.950 . S
C1047 C1049 1.327 . S
C1047 C1053 1.429 . S
C1048 C1040 1.574 . S
C1048 H1043 0.949 . S
C1048 C1054 1.368 . S
C1049 C1033 1.349 . S
C1049 H1041 0.950 . S
C1049 C1047 1.327 . S
C1050 C1038 1.349 . S
C1050 H1044 0.950 . S
C1050 C1051 1.327 . S
C1051 H1045 0.950 . S
C1051 C1050 1.327 . S
C1051 C1055 1.429 . S
C1052 C1035 1.574 . S
C1052 H1046 0.949 . S
C1052 C1056 1.368 . S
C1053 C1034 1.429 . S
C1053 C1047 1.429 . S
C1053 C1054 1.523 . S
C1054 C1035 1.368 . S
C1054 C1048 1.368 . S
C1054 C1053 1.523 . S
C1055 C1039 1.429 . S
C1055 C1051 1.429 . S
C1055 C1056 1.523 . S
C1056 C1040 1.368 . S
C1056 C1052 1.368 . S
C1056 C1055 1.523 . S
H1057 C1032 0.950 1_554 S
H1058 C1034 0.950 . S
H1059 C1035 0.949 . S
H1060 C1037 0.950 . S
H1061 C1039 0.950 . S
C1062 C1063 1.349 . S
C1062 C1064 1.327 . S
C1062 H1087 0.950 . S
C1063 C1062 1.349 . S
C1063 C1079 1.349 . S
C1064 C1062 1.327 . S
C1064 C1083 1.429 . S
C1064 H1088 0.950 . S
C1065 C1082 1.574 . S
C1065 C1084 1.368 . S
C1065 H1089 0.949 . S
H1066 C1070 0.949 . S
C1067 C1068 1.349 . S
C1067 C1069 1.327 . S
C1067 H1090 0.950 . S
C1068 C1067 1.349 . S
C1068 C1080 1.349 . S
C1069 C1067 1.327 . S
C1069 C1085 1.429 . S
C1069 H1091 0.950 . S
C1070 H1066 0.949 . S
C1070 C1078 1.574 . S
C1070 C1086 1.368 . S
H1071 C1079 0.950 . S
H1072 C1077 0.950 . S
H1073 C1078 0.949 . S
H1074 C1080 0.950 . S
H1075 C1081 0.950 . S
H1076 C1082 0.949 . S
C1077 H1072 0.950 . S
C1077 C1079 1.327 . S
C1077 C1083 1.429 . S
C1078 C1070 1.574 . S
C1078 H1073 0.949 . S
C1078 C1084 1.368 . S
C1079 C1063 1.349 . S
C1079 H1071 0.950 . S
C1079 C1077 1.327 . S
C1080 C1068 1.349 . S
C1080 H1074 0.950 . S
C1080 C1081 1.327 . S
C1081 H1075 0.950 . S
C1081 C1080 1.327 . S
C1081 C1085 1.429 . S
C1082 C1065 1.574 . S
C1082 H1076 0.949 . S
C1082 C1086 1.368 . S
C1083 C1064 1.429 . S
C1083 C1077 1.429 . S
C1083 C1084 1.523 . S
C1084 C1065 1.368 . S
C1084 C1078 1.368 . S
C1084 C1083 1.523 . S
C1085 C1069 1.429 . S
C1085 C1081 1.429 . S
C1085 C1086 1.523 . S
C1086 C1070 1.368 . S
C1086 C1082 1.368 . S
C1086 C1085 1.523 . S
H1087 C1062 0.950 . S
H1088 C1064 0.950 . S
H1089 C1065 0.949 . S
H1090 C1067 0.950 . S
H1091 C1069 0.950 . S
C1092 C1093 1.349 . S
C1092 C1094 1.327 . S
C1092 H1117 0.950 . S
C1093 C1092 1.349 . S
C1093 C1109 1.349 . S
C1094 C1092 1.327 . S
C1094 C1113 1.429 . S
C1094 H1118 0.950 . S
C1095 C1112 1.574 . S
C1095 C1114 1.368 . S
C1095 H1119 0.949 . S
H1096 C1100 0.949 . S
C1097 C1098 1.349 . S
C1097 C1099 1.327 . S
C1097 H1120 0.950 . S
C1098 C1097 1.349 . S
C1098 C1110 1.349 . S
C1099 C1097 1.327 . S
C1099 C1115 1.429 . S
C1099 H1121 0.950 . S
C1100 H1096 0.949 . S
C1100 C1108 1.574 . S
C1100 C1116 1.368 . S
H1101 C1109 0.950 . S
H1102 C1107 0.950 . S
H1103 C1108 0.949 . S
H1104 C1110 0.950 . S
H1105 C1111 0.950 . S
H1106 C1112 0.949 . S
C1107 H1102 0.950 . S
C1107 C1109 1.327 . S
C1107 C1113 1.429 . S
C1108 C1100 1.574 . S
C1108 H1103 0.949 . S
C1108 C1114 1.368 . S
C1109 C1093 1.349 . S
C1109 H1101 0.950 . S
C1109 C1107 1.327 . S
C1110 C1098 1.349 . S
C1110 H1104 0.950 . S
C1110 C1111 1.327 . S
C1111 H1105 0.950 . S
C1111 C1110 1.327 . S
C1111 C1115 1.429 . S
C1112 C1095 1.574 . S
C1112 H1106 0.949 . S
C1112 C1116 1.368 . S
C1113 C1094 1.429 . S
C1113 C1107 1.429 . S
C1113 C1114 1.523 . S
C1114 C1095 1.368 . S
C1114 C1108 1.368 . S
C1114 C1113 1.523 . S
C1115 C1099 1.429 . S
C1115 C1111 1.429 . S
C1115 C1116 1.523 . S
C1116 C1100 1.368 . S
C1116 C1112 1.368 . S
C1116 C1115 1.523 . S
H1117 C1092 0.950 . S
H1118 C1094 0.950 . S
H1119 C1095 0.949 . S
H1120 C1097 0.950 . S
H1121 C1099 0.950 . S
C1122 C1123 1.349 . S
C1122 C1124 1.327 . S
C1122 H1147 0.950 . S
C1123 C1122 1.349 . S
C1123 C1139 1.349 . S
C1124 C1122 1.327 . S
C1124 C1143 1.429 . S
C1124 H1148 0.950 . S
C1125 C1142 1.574 . S
C1125 C1144 1.368 . S
C1125 H1149 0.949 . S
H1126 C1130 0.949 . S
C1127 C1128 1.349 . S
C1127 C1129 1.327 . S
C1127 H1150 0.950 . S
C1128 C1127 1.349 . S
C1128 C1140 1.349 . S
C1129 C1127 1.327 . S
C1129 C1145 1.429 . S
C1129 H1151 0.950 . S
C1130 H1126 0.949 . S
C1130 C1138 1.574 . S
C1130 C1146 1.368 . S
H1131 C1139 0.950 . S
H1132 C1137 0.950 . S
H1133 C1138 0.949 . S
H1134 C1140 0.950 . S
H1135 C1141 0.950 . S
H1136 C1142 0.949 . S
C1137 H1132 0.950 . S
C1137 C1139 1.327 . S
C1137 C1143 1.429 . S
C1138 C1130 1.574 . S
C1138 H1133 0.949 . S
C1138 C1144 1.368 . S
C1139 C1123 1.349 . S
C1139 H1131 0.950 . S
C1139 C1137 1.327 . S
C1140 C1128 1.349 . S
C1140 H1134 0.950 . S
C1140 C1141 1.327 . S
C1141 H1135 0.950 . S
C1141 C1140 1.327 . S
C1141 C1145 1.429 . S
C1142 C1125 1.574 . S
C1142 H1136 0.949 . S
C1142 C1146 1.368 . S
C1143 C1124 1.429 . S
C1143 C1137 1.429 . S
C1143 C1144 1.523 . S
C1144 C1125 1.368 . S
C1144 C1138 1.368 . S
C1144 C1143 1.523 . S
C1145 C1129 1.429 . S
C1145 C1141 1.429 . S
C1145 C1146 1.523 . S
C1146 C1130 1.368 . S
C1146 C1142 1.368 . S
C1146 C1145 1.523 . S
H1147 C1122 0.950 . S
H1148 C1124 0.950 . S
H1149 C1125 0.949 . S
H1150 C1127 0.950 . S
H1151 C1129 0.950 . S
C1152 C1153 1.349 . S
C1152 C1154 1.327 . S
C1152 H1177 0.950 . S
C1153 C1152 1.349 . S
C1153 C1169 1.349 . S
C1154 C1152 1.327 . S
C1154 C1173 1.429 . S
C1154 H1178 0.950 . S
C1155 C1172 1.574 . S
C1155 C1174 1.368 . S
C1155 H1179 0.949 . S
H1156 C1160 0.949 . S
C1157 C1158 1.349 . S
C1157 C1159 1.327 . S
C1157 H1180 0.950 . S
C1158 C1157 1.349 . S
C1158 C1170 1.349 . S
C1159 C1157 1.327 . S
C1159 C1175 1.429 . S
C1159 H1181 0.950 . S
C1160 H1156 0.949 . S
C1160 C1168 1.574 . S
C1160 C1176 1.368 . S
H1161 C1169 0.950 . S
H1162 C1167 0.950 . S
H1163 C1168 0.949 . S
H1164 C1170 0.950 . S
H1165 C1171 0.950 . S
H1166 C1172 0.949 . S
C1167 H1162 0.950 . S
C1167 C1169 1.327 . S
C1167 C1173 1.429 . S
C1168 C1160 1.574 . S
C1168 H1163 0.949 . S
C1168 C1174 1.368 . S
C1169 C1153 1.349 . S
C1169 H1161 0.950 . S
C1169 C1167 1.327 . S
C1170 C1158 1.349 . S
C1170 H1164 0.950 . S
C1170 C1171 1.327 . S
C1171 H1165 0.950 . S
C1171 C1170 1.327 . S
C1171 C1175 1.429 . S
C1172 C1155 1.574 . S
C1172 H1166 0.949 . S
C1172 C1176 1.368 . S
C1173 C1154 1.429 . S
C1173 C1167 1.429 . S
C1173 C1174 1.523 . S
C1174 C1155 1.368 . S
C1174 C1168 1.368 . S
C1174 C1173 1.523 . S
C1175 C1159 1.429 . S
C1175 C1171 1.429 . S
C1175 C1176 1.523 . S
C1176 C1160 1.368 . S
C1176 C1172 1.368 . S
C1176 C1175 1.523 . S
H1177 C1152 0.950 . S
H1178 C1154 0.950 . S
H1179 C1155 0.949 . S
H1180 C1157 0.950 . S
H1181 C1159 0.950 . S
C1182 C1183 1.359 . S
C1182 C1184 1.327 . S
C1182 H1207 0.950 . S
C1183 C1182 1.359 . S
C1183 C1199 1.297 1_455 S
C1184 C1182 1.327 . S
C1184 C1203 1.429 1_455 S
C1184 H1208 0.950 . S
C1185 C1202 1.574 . S
C1185 C1204 1.368 . S
C1185 H1209 0.949 . S
H1186 C1190 0.949 . S
C1187 C1188 1.349 . S
C1187 C1189 1.327 . S
C1187 H1210 0.950 . S
C1188 C1187 1.349 . S
C1188 C1200 1.349 . S
C1189 C1187 1.327 . S
C1189 C1205 1.429 . S
C1189 H1211 0.950 . S
C1190 H1186 0.949 . S
C1190 C1198 1.574 . S
C1190 C1206 1.368 . S
H1191 C1199 0.950 . S
H1192 C1197 0.950 . S
H1193 C1198 0.949 . S
H1194 C1200 0.950 . S
H1195 C1201 0.950 . S
H1196 C1202 0.949 . S
C1197 H1192 0.950 . S
C1197 C1199 1.327 . S
C1197 C1203 1.429 . S
C1198 C1190 1.574 . S
C1198 H1193 0.949 . S
C1198 C1204 1.368 . S
C1199 C1183 1.297 1_655 S
C1199 H1191 0.950 . S
C1199 C1197 1.327 . S
C1200 C1188 1.349 . S
C1200 H1194 0.950 . S
C1200 C1201 1.327 . S
C1201 H1195 0.950 . S
C1201 C1200 1.327 . S
C1201 C1205 1.429 . S
C1202 C1185 1.574 . S
C1202 H1196 0.949 . S
C1202 C1206 1.368 . S
C1203 C1184 1.429 1_655 S
C1203 C1197 1.429 . S
C1203 C1204 1.523 . S
C1204 C1185 1.368 . S
C1204 C1198 1.368 . S
C1204 C1203 1.523 . S
C1205 C1189 1.429 . S
C1205 C1201 1.429 . S
C1205 C1206 1.523 . S
C1206 C1190 1.368 . S
C1206 C1202 1.368 . S
C1206 C1205 1.523 . S
H1207 C1182 0.950 . S
H1208 C1184 0.950 . S
H1209 C1185 0.949 . S
H1210 C1187 0.950 . S
H1211 C1189 0.950 . S
C1212 C1213 1.349 . S
C1212 C1214 1.327 . S
C1212 H1237 0.950 . S
C1213 C1212 1.349 . S
C1213 C1229 1.349 . S
C1214 C1212 1.327 . S
C1214 C1233 1.429 . S
C1214 H1238 0.950 . S
C1215 C1232 1.574 . S
C1215 C1234 1.368 . S
C1215 H1239 0.949 . S
H1216 C1220 0.949 . S
C1217 C1218 1.349 . S
C1217 C1219 1.327 . S
C1217 H1240 0.950 . S
C1218 C1217 1.349 . S
C1218 C1230 1.349 . S
C1219 C1217 1.327 . S
C1219 C1235 1.429 . S
C1219 H1241 0.950 . S
C1220 H1216 0.949 . S
C1220 C1228 1.574 . S
C1220 C1236 1.368 . S
H1221 C1229 0.950 . S
H1222 C1227 0.950 . S
H1223 C1228 0.949 . S
H1224 C1230 0.950 . S
H1225 C1231 0.950 . S
H1226 C1232 0.949 . S
C1227 H1222 0.950 . S
C1227 C1229 1.327 . S
C1227 C1233 1.429 . S
C1228 C1220 1.574 . S
C1228 H1223 0.949 . S
C1228 C1234 1.368 . S
C1229 C1213 1.349 . S
C1229 H1221 0.950 . S
C1229 C1227 1.327 . S
C1230 C1218 1.349 . S
C1230 H1224 0.950 . S
C1230 C1231 1.327 . S
C1231 H1225 0.950 . S
C1231 C1230 1.327 . S
C1231 C1235 1.429 . S
C1232 C1215 1.574 . S
C1232 H1226 0.949 . S
C1232 C1236 1.368 . S
C1233 C1214 1.429 . S
C1233 C1227 1.429 . S
C1233 C1234 1.523 . S
C1234 C1215 1.368 . S
C1234 C1228 1.368 . S
C1234 C1233 1.523 . S
C1235 C1219 1.429 . S
C1235 C1231 1.429 . S
C1235 C1236 1.523 . S
C1236 C1220 1.368 . S
C1236 C1232 1.368 . S
C1236 C1235 1.523 . S
H1237 C1212 0.950 . S
H1238 C1214 0.950 . S
H1239 C1215 0.949 . S
H1240 C1217 0.950 . S
H1241 C1219 0.950 . S
C1242 C1243 1.349 . S
C1242 C1244 1.327 . S
C1242 H1267 0.950 . S
C1243 C1242 1.349 . S
C1243 C1259 1.349 . S
C1244 C1242 1.327 . S
C1244 C1263 1.429 . S
C1244 H1268 0.950 . S
C1245 C1262 1.574 . S
C1245 C1264 1.368 . S
C1245 H1269 0.949 . S
H1246 C1250 0.949 . S
C1247 C1248 1.349 . S
C1247 C1249 1.327 . S
C1247 H1270 0.950 . S
C1248 C1247 1.349 . S
C1248 C1260 1.349 . S
C1249 C1247 1.327 . S
C1249 C1265 1.429 . S
C1249 H1271 0.950 . S
C1250 H1246 0.949 . S
C1250 C1258 1.574 . S
C1250 C1266 1.368 . S
H1251 C1259 0.950 . S
H1252 C1257 0.950 . S
H1253 C1258 0.949 . S
H1254 C1260 0.950 . S
H1255 C1261 0.950 . S
H1256 C1262 0.949 . S
C1257 H1252 0.950 . S
C1257 C1259 1.327 . S
C1257 C1263 1.429 . S
C1258 C1250 1.574 . S
C1258 H1253 0.949 . S
C1258 C1264 1.368 . S
C1259 C1243 1.349 . S
C1259 H1251 0.950 . S
C1259 C1257 1.327 . S
C1260 C1248 1.349 . S
C1260 H1254 0.950 . S
C1260 C1261 1.327 . S
C1261 H1255 0.950 . S
C1261 C1260 1.327 . S
C1261 C1265 1.429 . S
C1262 C1245 1.574 . S
C1262 H1256 0.949 . S
C1262 C1266 1.368 . S
C1263 C1244 1.429 . S
C1263 C1257 1.429 . S
C1263 C1264 1.523 . S
C1264 C1245 1.368 . S
C1264 C1258 1.368 . S
C1264 C1263 1.523 . S
C1265 C1249 1.429 . S
C1265 C1261 1.429 . S
C1265 C1266 1.523 . S
C1266 C1250 1.368 . S
C1266 C1262 1.368 . S
C1266 C1265 1.523 . S
H1267 C1242 0.950 . S
H1268 C1244 0.950 . S
H1269 C1245 0.949 . S
H1270 C1247 0.950 . S
H1271 C1249 0.950 . S
C1272 C1273 1.349 . S
C1272 C1274 1.327 . S
C1272 H1297 0.950 . S
C1273 C1272 1.349 . S
C1273 C1289 1.349 . S
C1274 C1272 1.327 . S
C1274 C1293 1.429 . S
C1274 H1298 0.950 . S
C1275 C1292 1.574 . S
C1275 C1294 1.368 . S
C1275 H1299 0.949 . S
H1276 C1280 0.949 . S
C1277 C1278 1.349 . S
C1277 C1279 1.327 . S
C1277 H1300 0.950 . S
C1278 C1277 1.349 . S
C1278 C1290 1.349 . S
C1279 C1277 1.327 . S
C1279 C1295 1.429 . S
C1279 H1301 0.950 . S
C1280 H1276 0.949 . S
C1280 C1288 1.574 . S
C1280 C1296 1.368 . S
H1281 C1289 0.950 . S
H1282 C1287 0.950 . S
H1283 C1288 0.949 . S
H1284 C1290 0.950 . S
H1285 C1291 0.950 . S
H1286 C1292 0.949 . S
C1287 H1282 0.950 . S
C1287 C1289 1.327 . S
C1287 C1293 1.429 . S
C1288 C1280 1.574 . S
C1288 H1283 0.949 . S
C1288 C1294 1.368 . S
C1289 C1273 1.349 . S
C1289 H1281 0.950 . S
C1289 C1287 1.327 . S
C1290 C1278 1.349 . S
C1290 H1284 0.950 . S
C1290 C1291 1.327 . S
C1291 H1285 0.950 . S
C1291 C1290 1.327 . S
C1291 C1295 1.429 . S
C1292 C1275 1.574 . S
C1292 H1286 0.949 . S
C1292 C1296 1.368 . S
C1293 C1274 1.429 . S
C1293 C1287 1.429 . S
C1293 C1294 1.523 . S
C1294 C1275 1.368 . S
C1294 C1288 1.368 . S
C1294 C1293 1.523 . S
C1295 C1279 1.429 . S
C1295 C1291 1.429 . S
C1295 C1296 1.523 . S
C1296 C1280 1.368 . S
C1296 C1292 1.368 . S
C1296 C1295 1.523 . S
H1297 C1272 0.950 . S
H1298 C1274 0.950 . S
H1299 C1275 0.949 . S
H1300 C1277 0.950 . S
H1301 C1279 0.950 . S
C1302 C1303 1.349 . S
C1302 C1304 1.327 . S
C1302 H1327 0.950 . S
C1303 C1302 1.349 . S
C1303 C1319 1.349 . S
C1304 C1302 1.327 . S
C1304 C1323 1.429 . S
C1304 H1328 0.950 . S
C1305 C1322 1.574 . S
C1305 C1324 1.368 . S
C1305 H1329 0.949 . S
H1306 C1310 0.949 . S
C1307 C1308 1.349 . S
C1307 C1309 1.327 . S
C1307 H1330 0.950 . S
C1308 C1307 1.349 . S
C1308 C1320 1.349 . S
C1309 C1307 1.327 . S
C1309 C1325 1.429 . S
C1309 H1331 0.950 . S
C1310 H1306 0.949 . S
C1310 C1318 1.574 . S
C1310 C1326 1.368 . S
H1311 C1319 0.950 . S
H1312 C1317 0.950 . S
H1313 C1318 0.949 . S
H1314 C1320 0.950 . S
H1315 C1321 0.950 . S
H1316 C1322 0.949 . S
C1317 H1312 0.950 . S
C1317 C1319 1.327 . S
C1317 C1323 1.429 . S
C1318 C1310 1.574 . S
C1318 H1313 0.949 . S
C1318 C1324 1.368 . S
C1319 C1303 1.349 . S
C1319 H1311 0.950 . S
C1319 C1317 1.327 . S
C1320 C1308 1.349 . S
C1320 H1314 0.950 . S
C1320 C1321 1.327 . S
C1321 H1315 0.950 . S
C1321 C1320 1.327 . S
C1321 C1325 1.429 . S
C1322 C1305 1.574 . S
C1322 H1316 0.949 . S
C1322 C1326 1.368 . S
C1323 C1304 1.429 . S
C1323 C1317 1.429 . S
C1323 C1324 1.523 . S
C1324 C1305 1.368 . S
C1324 C1318 1.368 . S
C1324 C1323 1.523 . S
C1325 C1309 1.429 . S
C1325 C1321 1.429 . S
C1325 C1326 1.523 . S
C1326 C1310 1.368 . S
C1326 C1322 1.368 . S
C1326 C1325 1.523 . S
H1327 C1302 0.950 . S
H1328 C1304 0.950 . S
H1329 C1305 0.949 . S
H1330 C1307 0.950 . S
H1331 C1309 0.950 . S
C1332 C1333 1.349 . S
C1332 C1334 1.327 . S
C1332 H1357 0.950 . S
C1333 C1332 1.349 . S
C1333 C1349 1.349 . S
C1334 C1332 1.327 . S
C1334 C1353 1.429 . S
C1334 H1358 0.950 . S
C1335 C1352 1.574 . S
C1335 C1354 1.368 . S
C1335 H1359 0.949 . S
H1336 C1340 0.949 . S
C1337 C1338 1.349 . S
C1337 C1339 1.327 . S
C1337 H1360 0.950 . S
C1338 C1337 1.349 . S
C1338 C1350 1.349 . S
C1339 C1337 1.327 . S
C1339 C1355 1.429 . S
C1339 H1361 0.950 . S
C1340 H1336 0.949 . S
C1340 C1348 1.574 . S
C1340 C1356 1.368 . S
H1341 C1349 0.950 . S
H1342 C1347 0.950 . S
H1343 C1348 0.949 . S
H1344 C1350 0.950 . S
H1345 C1351 0.950 . S
H1346 C1352 0.949 . S
C1347 H1342 0.950 . S
C1347 C1349 1.327 . S
C1347 C1353 1.429 . S
C1348 C1340 1.574 . S
C1348 H1343 0.949 . S
C1348 C1354 1.368 . S
C1349 C1333 1.349 . S
C1349 H1341 0.950 . S
C1349 C1347 1.327 . S
C1350 C1338 1.349 . S
C1350 H1344 0.950 . S
C1350 C1351 1.327 . S
C1351 H1345 0.950 . S
C1351 C1350 1.327 . S
C1351 C1355 1.429 . S
C1352 C1335 1.574 . S
C1352 H1346 0.949 . S
C1352 C1356 1.368 . S
C1353 C1334 1.429 . S
C1353 C1347 1.429 . S
C1353 C1354 1.523 . S
C1354 C1335 1.368 . S
C1354 C1348 1.368 . S
C1354 C1353 1.523 . S
C1355 C1339 1.429 . S
C1355 C1351 1.429 . S
C1355 C1356 1.523 . S
C1356 C1340 1.368 . S
C1356 C1352 1.368 . S
C1356 C1355 1.523 . S
H1357 C1332 0.950 . S
H1358 C1334 0.950 . S
H1359 C1335 0.949 . S
H1360 C1337 0.950 . S
H1361 C1339 0.950 . S
C1362 C1363 1.349 . S
C1362 C1364 1.327 . S
C1362 H1387 0.950 . S
C1363 C1362 1.349 . S
C1363 C1379 1.349 . S
C1364 C1362 1.327 . S
C1364 C1383 1.429 . S
C1364 H1388 0.950 . S
C1365 C1382 1.574 . S
C1365 C1384 1.368 . S
C1365 H1389 0.949 . S
H1366 C1370 0.949 . S
C1367 C1368 1.349 . S
C1367 C1369 1.327 . S
C1367 H1390 0.950 . S
C1368 C1367 1.349 . S
C1368 C1380 1.349 . S
C1369 C1367 1.327 . S
C1369 C1385 1.429 . S
C1369 H1391 0.950 . S
C1370 H1366 0.949 . S
C1370 C1378 1.574 . S
C1370 C1386 1.368 . S
H1371 C1379 0.950 . S
H1372 C1377 0.950 . S
H1373 C1378 0.949 . S
H1374 C1380 0.950 . S
H1375 C1381 0.950 . S
H1376 C1382 0.949 . S
C1377 H1372 0.950 . S
C1377 C1379 1.327 . S
C1377 C1383 1.429 . S
C1378 C1370 1.574 . S
C1378 H1373 0.949 . S
C1378 C1384 1.368 . S
C1379 C1363 1.349 . S
C1379 H1371 0.950 . S
C1379 C1377 1.327 . S
C1380 C1368 1.349 . S
C1380 H1374 0.950 . S
C1380 C1381 1.327 . S
C1381 H1375 0.950 . S
C1381 C1380 1.327 . S
C1381 C1385 1.429 . S
C1382 C1365 1.574 . S
C1382 H1376 0.949 . S
C1382 C1386 1.368 . S
C1383 C1364 1.429 . S
C1383 C1377 1.429 . S
C1383 C1384 1.523 . S
C1384 C1365 1.368 . S
C1384 C1378 1.368 . S
C1384 C1383 1.523 . S
C1385 C1369 1.429 . S
C1385 C1381 1.429 . S
C1385 C1386 1.523 . S
C1386 C1370 1.368 . S
C1386 C1382 1.368 . S
C1386 C1385 1.523 . S
H1387 C1362 0.950 . S
H1388 C1364 0.950 . S
H1389 C1365 0.949 . S
H1390 C1367 0.950 . S
H1391 C1369 0.950 . S
C1392 C1393 1.349 . S
C1392 C1394 1.327 . S
C1392 H1417 0.950 . S
C1393 C1392 1.349 . S
C1393 C1409 1.349 . S
C1394 C1392 1.327 . S
C1394 C1413 1.429 . S
C1394 H1418 0.950 . S
C1395 C1412 1.574 . S
C1395 C1414 1.368 . S
C1395 H1419 0.949 . S
H1396 C1400 0.949 . S
C1397 C1398 1.349 . S
C1397 C1399 1.327 . S
C1397 H1420 0.950 . S
C1398 C1397 1.349 . S
C1398 C1410 1.349 . S
C1399 C1397 1.327 . S
C1399 C1415 1.429 . S
C1399 H1421 0.950 . S
C1400 H1396 0.949 . S
C1400 C1408 1.574 . S
C1400 C1416 1.368 . S
H1401 C1409 0.950 . S
H1402 C1407 0.950 . S
H1403 C1408 0.949 . S
H1404 C1410 0.950 . S
H1405 C1411 0.950 . S
H1406 C1412 0.949 . S
C1407 H1402 0.950 . S
C1407 C1409 1.327 . S
C1407 C1413 1.429 . S
C1408 C1400 1.574 . S
C1408 H1403 0.949 . S
C1408 C1414 1.368 . S
C1409 C1393 1.349 . S
C1409 H1401 0.950 . S
C1409 C1407 1.327 . S
C1410 C1398 1.349 . S
C1410 H1404 0.950 . S
C1410 C1411 1.327 . S
C1411 H1405 0.950 . S
C1411 C1410 1.327 . S
C1411 C1415 1.429 . S
C1412 C1395 1.574 . S
C1412 H1406 0.949 . S
C1412 C1416 1.368 . S
C1413 C1394 1.429 . S
C1413 C1407 1.429 . S
C1413 C1414 1.523 . S
C1414 C1395 1.368 . S
C1414 C1408 1.368 . S
C1414 C1413 1.523 . S
C1415 C1399 1.429 . S
C1415 C1411 1.429 . S
C1415 C1416 1.523 . S
C1416 C1400 1.368 . S
C1416 C1412 1.368 . S
C1416 C1415 1.523 . S
H1417 C1392 0.950 . S
H1418 C1394 0.950 . S
H1419 C1395 0.949 . S
H1420 C1397 0.950 . S
H1421 C1399 0.950 . S
C1422 C1423 1.349 . S
C1422 C1424 1.327 . S
C1422 H1447 0.950 . S
C1423 C1422 1.349 . S
C1423 C1439 1.349 . S
C1424 C1422 1.327 . S
C1424 C1443 1.429 . S
C1424 H1448 0.950 . S
C1425 C1442 1.574 . S
C1425 C1444 1.368 . S
C1425 H1449 0.949 . S
H1426 C1430 0.949 . S
C1427 C1428 1.349 . S
C1427 C1429 1.327 . S
C1427 H1450 0.950 . S
C1428 C1427 1.349 . S
C1428 C1440 1.349 . S
C1429 C1427 1.327 . S
C1429 C1445 1.429 . S
C1429 H1451 0.950 . S
C1430 H1426 0.949 . S
C1430 C1438 1.574 . S
C1430 C1446 1.368 . S
H1431 C1439 0.950 . S
H1432 C1437 0.950 . S
H1433 C1438 0.949 . S
H1434 C1440 0.950 . S
H1435 C1441 0.950 . S
H1436 C1442 0.949 . S
C1437 H1432 0.950 . S
C1437 C1439 1.327 . S
C1437 C1443 1.429 . S
C1438 C1430 1.574 . S
C1438 H1433 0.949 . S
C1438 C1444 1.368 . S
C1439 C1423 1.349 . S
C1439 H1431 0.950 . S
C1439 C1437 1.327 . S
C1440 C1428 1.349 . S
C1440 H1434 0.950 . S
C1440 C1441 1.327 . S
C1441 H1435 0.950 . S
C1441 C1440 1.327 . S
C1441 C1445 1.429 . S
C1442 C1425 1.574 . S
C1442 H1436 0.949 . S
C1442 C1446 1.368 . S
C1443 C1424 1.429 . S
C1443 C1437 1.429 . S
C1443 C1444 1.523 . S
C1444 C1425 1.368 . S
C1444 C1438 1.368 . S
C1444 C1443 1.523 . S
C1445 C1429 1.429 . S
C1445 C1441 1.429 . S
C1445 C1446 1.523 . S
C1446 C1430 1.368 . S
C1446 C1442 1.368 . S
C1446 C1445 1.523 . S
H1447 C1422 0.950 . S
H1448 C1424 0.950 . S
H1449 C1425 0.949 . S
H1450 C1427 0.950 . S
H1451 C1429 0.950 . S
C1452 C1453 1.349 . S
C1452 C1454 1.327 . S
C1452 H1477 0.950 . S
C1453 C1452 1.349 . S
C1453 C1469 1.349 . S
C1454 C1452 1.327 . S
C1454 C1473 1.429 . S
C1454 H1478 0.950 . S
C1455 C1472 1.574 . S
C1455 C1474 1.368 . S
C1455 H1479 0.949 . S
H1456 C1460 0.949 . S
C1457 C1458 1.349 . S
C1457 C1459 1.327 . S
C1457 H1480 0.950 . S
C1458 C1457 1.349 . S
C1458 C1470 1.349 . S
C1459 C1457 1.327 . S
C1459 C1475 1.429 . S
C1459 H1481 0.950 . S
C1460 H1456 0.949 . S
C1460 C1468 1.574 . S
C1460 C1476 1.368 . S
H1461 C1469 0.950 . S
H1462 C1467 0.950 . S
H1463 C1468 0.949 . S
H1464 C1470 0.950 . S
H1465 C1471 0.950 . S
H1466 C1472 0.949 . S
C1467 H1462 0.950 . S
C1467 C1469 1.327 . S
C1467 C1473 1.429 . S
C1468 C1460 1.574 . S
C1468 H1463 0.949 . S
C1468 C1474 1.368 . S
C1469 C1453 1.349 . S
C1469 H1461 0.950 . S
C1469 C1467 1.327 . S
C1470 C1458 1.349 . S
C1470 H1464 0.950 . S
C1470 C1471 1.327 . S
C1471 H1465 0.950 . S
C1471 C1470 1.327 . S
C1471 C1475 1.429 . S
C1472 C1455 1.574 . S
C1472 H1466 0.949 . S
C1472 C1476 1.368 . S
C1473 C1454 1.429 . S
C1473 C1467 1.429 . S
C1473 C1474 1.523 . S
C1474 C1455 1.368 . S
C1474 C1468 1.368 . S
C1474 C1473 1.523 . S
C1475 C1459 1.429 . S
C1475 C1471 1.429 . S
C1475 C1476 1.523 . S
C1476 C1460 1.368 . S
C1476 C1472 1.368 . S
C1476 C1475 1.523 . S
H1477 C1452 0.950 . S
H1478 C1454 0.950 . S
H1479 C1455 0.949 . S
H1480 C1457 0.950 . S
H1481 C1459 0.950 . S
C1482 C1483 1.349 . S
C1482 C1484 1.327 . S
C1482 H1507 0.950 . S
C1483 C1482 1.349 . S
C1483 C1499 1.349 . S
C1484 C1482 1.327 . S
C1484 C1503 1.429 . S
C1484 H1508 0.950 . S
C1485 C1502 1.574 . S
C1485 C1504 1.368 . S
C1485 H1509 0.949 . S
H1486 C1490 0.949 . S
C1487 C1488 1.349 . S
C1487 C1489 1.327 . S
C1487 H1510 0.950 . S
C1488 C1487 1.349 . S
C1488 C1500 1.349 . S
C1489 C1487 1.327 . S
C1489 C1505 1.429 . S
C1489 H1511 0.950 . S
C1490 H1486 0.949 . S
C1490 C1498 1.574 . S
C1490 C1506 1.368 . S
H1491 C1499 0.950 . S
H1492 C1497 0.950 . S
H1493 C1498 0.949 . S
H1494 C1500 0.950 . S
H1495 C1501 0.950 . S
H1496 C1502 0.949 . S
C1497 H1492 0.950 . S
C1497 C1499 1.327 . S
C1497 C1503 1.429 . S
C1498 C1490 1.574 . S
C1498 H1493 0.949 . S
C1498 C1504 1.368 . S
C1499 C1483 1.349 . S
C1499 H1491 0.950 . S
C1499 C1497 1.327 . S
C1500 C1488 1.349 . S
C1500 H1494 0.950 . S
C1500 C1501 1.327 . S
C1501 H1495 0.950 . S
C1501 C1500 1.327 . S
C1501 C1505 1.429 . S
C1502 C1485 1.574 . S
C1502 H1496 0.949 . S
C1502 C1506 1.368 . S
C1503 C1484 1.429 . S
C1503 C1497 1.429 . S
C1503 C1504 1.523 . S
C1504 C1485 1.368 . S
C1504 C1498 1.368 . S
C1504 C1503 1.523 . S
C1505 C1489 1.429 . S
C1505 C1501 1.429 . S
C1505 C1506 1.523 . S
C1506 C1490 1.368 . S
C1506 C1502 1.368 . S
C1506 C1505 1.523 . S
H1507 C1482 0.950 . S
H1508 C1484 0.950 . S
H1509 C1485 0.949 . S
H1510 C1487 0.950 . S
H1511 C1489 0.950 . S
C1512 C1513 1.349 . S
C1512 C1514 1.327 . S
C1512 H1537 0.950 . S
C1513 C1512 1.349 . S
C1513 C1529 1.349 . S
C1514 C1512 1.327 . S
C1514 C1533 1.429 . S
C1514 H1538 0.950 . S
C1515 C1532 1.574 . S
C1515 C1534 1.368 . S
C1515 H1539 0.949 . S
H1516 C1520 0.949 . S
C1517 C1518 1.349 . S
C1517 C1519 1.327 . S
C1517 H1540 0.950 . S
C1518 C1517 1.349 . S
C1518 C1530 1.349 . S
C1519 C1517 1.327 . S
C1519 C1535 1.429 . S
C1519 H1541 0.950 . S
C1520 H1516 0.949 . S
C1520 C1528 1.574 . S
C1520 C1536 1.368 . S
H1521 C1529 0.950 . S
H1522 C1527 0.950 . S
H1523 C1528 0.949 . S
H1524 C1530 0.950 . S
H1525 C1531 0.950 . S
H1526 C1532 0.949 . S
C1527 H1522 0.950 . S
C1527 C1529 1.327 . S
C1527 C1533 1.429 . S
C1528 C1520 1.574 . S
C1528 H1523 0.949 . S
C1528 C1534 1.368 . S
C1529 C1513 1.349 . S
C1529 H1521 0.950 . S
C1529 C1527 1.327 . S
C1530 C1518 1.349 . S
C1530 H1524 0.950 . S
C1530 C1531 1.327 . S
C1531 H1525 0.950 . S
C1531 C1530 1.327 . S
C1531 C1535 1.429 . S
C1532 C1515 1.574 . S
C1532 H1526 0.949 . S
C1532 C1536 1.368 . S
C1533 C1514 1.429 . S
C1533 C1527 1.429 . S
C1533 C1534 1.523 . S
C1534 C1515 1.368 . S
C1534 C1528 1.368 . S
C1534 C1533 1.523 . S
C1535 C1519 1.429 . S
C1535 C1531 1.429 . S
C1535 C1536 1.523 . S
C1536 C1520 1.368 . S
C1536 C1532 1.368 . S
C1536 C1535 1.523 . S
H1537 C1512 0.950 . S
H1538 C1514 0.950 . S
H1539 C1515 0.949 . S
H1540 C1517 0.950 . S
H1541 C1519 0.950 . S
C823 C7 1.992 . S
C828 C167 1.804 . S
C853 C30 1.823 . S
C858 C307 1.563 . S
C888 C395 1.616 . S
C883 N58 1.755 . S
C918 C535 1.420 . S
C913 N81 1.605 . S
C948 C649 1.650 . S
C943 C99 1.927 . S
C978 C719 0.853 . S
C973 N127 1.613 . S
C1003 N25 1.834 . S
C1008 C377 1.016 . S
C1033 C62 1.629 1_556 S
C1038 C481 1.148 . S
C1068 C595 1.355 . S
C1063 C85 1.847 . S
C1098 C737 1.441 . S
C1093 N94 1.565 . S
C1123 C131 2.074 . S
C1128 C149 1.132 . S
C1158 C253 1.061 . S
C1153 N2 1.429 . S
C1188 C491 1.542 . S
C1183 C16 2.076 . S
C1213 C39 1.822 . S
C1218 C605 1.364 . S
C1248 C763 1.314 . S
C1243 N48 1.987 . S
C1273 N71 1.559 . S
C1278 C139 1.369 . S
C1303 C108 2.144 . S
C1308 C263 1.604 . S
C1333 N117 1.529 . S
C1338 C367 1.384 . S
C1363 N35 1.815 . S
C1368 C709 1.625 . S
C1398 C193 1.211 . S
C1393 C53 1.886 . S
C1423 C76 1.991 . S
C1428 C281 1.433 . S
C1453 N104 1.711 . S
C1458 C421 1.065 . S
C1483 C122 1.887 . S
C1488 C509 1.396 . S
C1513 N12 1.602 . S
C1518 C623 1.195 . S
