# Generated by pormake.
# Topology nom, (4,4)-cn, num edge types: 1
# Building blocks:
#     Node 0, Type 0, BuildingBlock: GIZVER_clean_linker_0, # of connection points: 4
#     Node 1, Type 0, BuildingBlock: GIZVER_clean_linker_0, # of connection points: 4
#     Node 2, Type 0, BuildingBlock: GIZVER_clean_linker_0, # of connection points: 4
#     Node 3, Type 0, BuildingBlock: GIZVER_clean_linker_0, # of connection points: 4
#     Node 4, Type 0, BuildingBlock: GIZVER_clean_linker_0, # of connection points: 4
#     Node 5, Type 0, BuildingBlock: GIZVER_clean_linker_0, # of connection points: 4
#     Node 6, Type 1, BuildingBlock: QUQFOY_clean_sbu_3, # of connection points: 4
#     Node 7, Type 1, BuildingBlock: QUQFOY_clean_sbu_3, # of connection points: 4
#     Node 8, Type 1, BuildingBlock: QUQFOY_clean_sbu_3, # of connection points: 4
#     Node 9, Type 1, BuildingBlock: QUQFOY_clean_sbu_3, # of connection points: 4
#     Node 10, Type 1, BuildingBlock: QUQFOY_clean_sbu_3, # of connection points: 4
#     Node 11, Type 1, BuildingBlock: QUQFOY_clean_sbu_3, # of connection points: 4
#     Edge 12, Type (0, 1), BuildingBlock: XIVTED_clean_linker_0, # of connection points: 2
#     Edge 13, Type (0, 1), BuildingBlock: XIVTED_clean_linker_0, # of connection points: 2
#     Edge 14, Type (0, 1), BuildingBlock: XIVTED_clean_linker_0, # of connection points: 2
#     Edge 15, Type (0, 1), BuildingBlock: XIVTED_clean_linker_0, # of connection points: 2
#     Edge 16, Type (0, 1), BuildingBlock: XIVTED_clean_linker_0, # of connection points: 2
#     Edge 17, Type (0, 1), BuildingBlock: XIVTED_clean_linker_0, # of connection points: 2
#     Edge 18, Type (0, 1), BuildingBlock: XIVTED_clean_linker_0, # of connection points: 2
#     Edge 19, Type (0, 1), BuildingBlock: XIVTED_clean_linker_0, # of connection points: 2
#     Edge 20, Type (0, 1), BuildingBlock: XIVTED_clean_linker_0, # of connection points: 2
#     Edge 21, Type (0, 1), BuildingBlock: XIVTED_clean_linker_0, # of connection points: 2
#     Edge 22, Type (0, 1), BuildingBlock: XIVTED_clean_linker_0, # of connection points: 2
#     Edge 23, Type (0, 1), BuildingBlock: XIVTED_clean_linker_0, # of connection points: 2
#     Edge 24, Type (0, 1), BuildingBlock: XIVTED_clean_linker_0, # of connection points: 2
#     Edge 25, Type (0, 1), BuildingBlock: XIVTED_clean_linker_0, # of connection points: 2
#     Edge 26, Type (0, 1), BuildingBlock: XIVTED_clean_linker_0, # of connection points: 2
#     Edge 27, Type (0, 1), BuildingBlock: XIVTED_clean_linker_0, # of connection points: 2
#     Edge 28, Type (0, 1), BuildingBlock: XIVTED_clean_linker_0, # of connection points: 2
#     Edge 29, Type (0, 1), BuildingBlock: XIVTED_clean_linker_0, # of connection points: 2
#     Edge 30, Type (0, 1), BuildingBlock: XIVTED_clean_linker_0, # of connection points: 2
#     Edge 31, Type (0, 1), BuildingBlock: XIVTED_clean_linker_0, # of connection points: 2
#     Edge 32, Type (0, 1), BuildingBlock: XIVTED_clean_linker_0, # of connection points: 2
#     Edge 33, Type (0, 1), BuildingBlock: XIVTED_clean_linker_0, # of connection points: 2
#     Edge 34, Type (0, 1), BuildingBlock: XIVTED_clean_linker_0, # of connection points: 2
#     Edge 35, Type (0, 1), BuildingBlock: XIVTED_clean_linker_0, # of connection points: 2
# Relax obj value: 0.004
# Max RMSD: 0.069
# Mean RMSD: 0.046
data_MOF--net-nom--node1-QUQFOY_clean_sbu_3--node2-GIZVER_clean_linker_0--edge1-XIVTED_clean_linker_0
_symmetry_space_group_name_H-M    P1
_symmetry_Int_Tables_number       1
_symmetry_cell_setting            triclinic
loop_
_symmetry_equiv_pos_as_xyz
'x, y, z'
_cell_length_a     46.836114
_cell_length_b     47.8075
_cell_length_c     47.309481
_cell_angle_alpha  89.864137
_cell_angle_beta   90.082318
_cell_angle_gamma 120.08892
loop_
_atom_site_label
_atom_site_type_symbol
_atom_site_fract_x
_atom_site_fract_y
_atom_site_fract_z
_atom_type_partial_charge
H0 H 0.95012 0.54128 0.3557 0.0
H1 H 0.96743 0.55148 0.26604 0.0
H2 H 0.88078 0.46876 0.29926 0.0
H3 H 0.99213 0.59266 0.33546 0.0
H4 H 0.99736 0.59749 0.298 0.0
H5 H 0.00955 0.5534 0.35912 0.0
H6 H 0.10328 0.57135 0.32834 0.0
H7 H 0.04806 0.60496 0.28088 0.0
C8 C 0.94301 0.53161 0.33453 0.0
C9 C 0.91313 0.50264 0.33027 0.0
C10 C 0.96321 0.54878 0.31142 0.0
C11 C 0.95282 0.5372 0.28384 0.0
C12 C 0.92268 0.50861 0.27924 0.0
C13 C 0.90398 0.49087 0.30267 0.0
C14 C 0.99418 0.58098 0.31586 0.0
C15 C 0.02411 0.57705 0.3184 0.0
C16 C 0.02806 0.56216 0.34261 0.0
C17 C 0.05671 0.56021 0.34633 0.0
C18 C 0.08099 0.57255 0.3253 0.0
C19 C 0.07904 0.5901 0.30231 0.0
C20 C 0.0499 0.59131 0.2984 0.0
H21 H 0.40403 0.94501 0.51091 0.0
H22 H 0.42175 0.98016 0.4251 0.0
H23 H 0.41964 0.89171 0.44569 0.0
H24 H 0.39595 0.98944 0.49813 0.0
H25 H 0.39215 0.99633 0.46155 0.0
H26 H 0.44881 0.02084 0.52272 0.0
H27 H 0.52289 0.10761 0.48244 0.0
H28 H 0.43958 0.03811 0.43452 0.0
C29 C 0.40973 0.94279 0.48913 0.0
C30 C 0.41252 0.916 0.48087 0.0
C31 C 0.41352 0.96632 0.4691 0.0
C32 C 0.41977 0.96265 0.44071 0.0
C33 C 0.42256 0.93605 0.43224 0.0
C34 C 0.41929 0.91318 0.45248 0.0
C35 C 0.40855 0.99406 0.4773 0.0
C36 C 0.44106 0.02542 0.4783 0.0
C37 C 0.45868 0.03555 0.50387 0.0
C38 C 0.48835 0.06515 0.50541 0.0
C39 C 0.50079 0.08403 0.48097 0.0
C40 C 0.48352 0.0746 0.45534 0.0
C41 C 0.4535 0.04522 0.45408 0.0
H42 H 0.41408 0.44715 0.62567 0.0
H43 H 0.44238 0.45382 0.71292 0.0
H44 H 0.43033 0.5291 0.67527 0.0
H45 H 0.40272 0.39862 0.65238 0.0
H46 H 0.41295 0.40112 0.68895 0.0
H47 H 0.44155 0.40364 0.61641 0.0
H48 H 0.52947 0.40414 0.64289 0.0
H49 H 0.47032 0.41793 0.7043 0.0
C50 C 0.42149 0.46063 0.64528 0.0
C51 C 0.42268 0.49058 0.64719 0.0
C52 C 0.42837 0.44722 0.66902 0.0
C53 C 0.43747 0.46439 0.69458 0.0
C54 C 0.4387 0.49424 0.69692 0.0
C55 C 0.43152 0.50716 0.67307 0.0
C56 C 0.4223 0.41312 0.66812 0.0
C57 C 0.45332 0.41254 0.66092 0.0
C58 C 0.45912 0.40696 0.63284 0.0
C59 C 0.48618 0.40314 0.62646 0.0
C60 C 0.50862 0.40726 0.64785 0.0
C61 C 0.50317 0.41249 0.6759 0.0
C62 C 0.47535 0.41503 0.68248 0.0
H63 H 0.97667 0.41363 0.77079 0.0
H64 H 0.00334 0.45419 0.85437 0.0
H65 H 0.91135 0.43485 0.81773 0.0
H66 H 0.0217 0.41338 0.79535 0.0
H67 H 0.02736 0.42248 0.83223 0.0
H68 H 0.04272 0.4611 0.7604 0.0
H69 H 0.13733 0.54009 0.78476 0.0
H70 H 0.07381 0.47196 0.84724 0.0
C71 C 0.97147 0.42356 0.78935 0.0
C72 C 0.94169 0.42394 0.79107 0.0
C73 C 0.99399 0.43482 0.81204 0.0
C74 C 0.98659 0.44655 0.8365 0.0
C75 C 0.957 0.44708 0.83842 0.0
C76 C 0.93508 0.43627 0.8155 0.0
C77 C 0.02435 0.43153 0.81138 0.0
C78 C 0.05474 0.4634 0.80462 0.0
C79 C 0.06073 0.47473 0.77663 0.0
C80 C 0.09034 0.50272 0.76937 0.0
C81 C 0.11362 0.51969 0.79059 0.0
C82 C 0.10806 0.50895 0.81874 0.0
C83 C 0.07828 0.48084 0.82568 0.0
H84 H 0.6201 0.08758 0.00122 0.0
H85 H 0.57726 0.03393 0.92464 0.0
H86 H 0.58934 0.12822 0.93499 0.0
H87 H 0.61494 0.03565 -0.00372 0.0
H88 H 0.61933 0.02736 0.96034 0.0
H89 H 0.56135 0.00442 0.02064 0.0
H90 H 0.49027 0.91423 0.98323 0.0
H91 H 0.57378 0.98244 0.9347 0.0
C92 C 0.60806 0.08511 0.98106 0.0
C93 C 0.60603 0.11138 0.96996 0.0
C94 C 0.59677 0.05651 0.9651 0.0
C95 C 0.58388 0.05476 0.93784 0.0
C96 C 0.58093 0.08047 0.92696 0.0
C97 C 0.59083 0.10797 0.94364 0.0
C98 C 0.60238 0.02966 0.97536 0.0
C99 C 0.57051 0.99764 0.97713 0.0
C100 C 0.55234 0.98854 0.00245 0.0
C101 C 0.52328 0.95846 0.00469 0.0
C102 C 0.51192 0.93805 0.98113 0.0
C103 C 0.52981 0.94639 0.95581 0.0
C104 C 0.55934 0.97618 0.95395 0.0
H105 H 0.61447 0.58416 0.12825 0.0
H106 H 0.58654 0.57412 0.21583 0.0
H107 H 0.60009 0.50119 0.17547 0.0
H108 H 0.62403 0.63135 0.15588 0.0
H109 H 0.61446 0.62764 0.19266 0.0
H110 H 0.58197 0.62088 0.12015 0.0
H111 H 0.49464 0.62023 0.14853 0.0
H112 H 0.55921 0.6136 0.20918 0.0
C113 C 0.60739 0.57008 0.14759 0.0
C114 C 0.60683 0.5404 0.14858 0.0
C115 C 0.60018 0.58236 0.17185 0.0
C116 C 0.59166 0.56442 0.19707 0.0
C117 C 0.59116 0.53482 0.19849 0.0
C118 C 0.59846 0.52297 0.17407 0.0
C119 C 0.605 0.61601 0.17174 0.0
C120 C 0.57323 0.6155 0.16526 0.0
C121 C 0.56534 0.61854 0.13708 0.0
C122 C 0.5374 0.62108 0.13109 0.0
C123 C 0.51623 0.6182 0.15317 0.0
C124 C 0.5239 0.61582 0.18134 0.0
C125 C 0.55252 0.61444 0.18738 0.0
C126 C 0.69539 0.41547 0.41578 0.0
O127 O 0.68893 0.43358 0.43076 0.0
Cd128 Cd 0.63484 0.42482 0.43825 0.0
O129 O 0.67211 0.39003 0.40434 0.0
Cd130 Cd 0.60996 0.36066 0.40373 0.0
C131 C 0.60942 0.42195 0.36933 0.0
O132 O 0.60138 0.36983 0.45263 0.0
O133 O 0.55987 0.35641 0.42506 0.0
O134 O 0.61034 0.31013 0.4093 0.0
C135 C 0.57123 0.36141 0.44998 0.0
O136 O 0.61733 0.43642 0.39307 0.0
C137 C 0.58785 0.29414 0.39133 0.0
O138 O 0.6071 0.39439 0.36638 0.0
O139 O 0.57641 0.30945 0.37796 0.0
C140 C 0.29219 0.56536 0.54045 0.0
O141 O 0.26569 0.54385 0.52898 0.0
Cd142 Cd 0.21792 0.54734 0.51751 0.0
O143 O 0.29627 0.59326 0.54614 0.0
Cd144 Cd 0.26423 0.62217 0.53984 0.0
C145 C 0.20351 0.56887 0.58324 0.0
O146 O 0.23714 0.59799 0.49529 0.0
O147 O 0.21771 0.62385 0.51766 0.0
O148 O 0.31337 0.67277 0.52549 0.0
C149 C 0.21626 0.6074 0.49622 0.0
O150 O 0.19428 0.54849 0.56311 0.0
C151 C 0.3091 0.69051 0.54296 0.0
O152 O 0.2294 0.59661 0.58108 0.0
O153 O 0.28473 0.67629 0.55969 0.0
C154 C 0.72272 0.2793 0.70645 0.0
O155 O 0.71618 0.2532 0.69404 0.0
Cd156 Cd 0.66266 0.21017 0.68041 0.0
O157 O 0.69968 0.2849 0.71333 0.0
Cd158 Cd 0.63817 0.25777 0.70973 0.0
C159 C 0.62435 0.18961 0.74518 0.0
O160 O 0.63467 0.23645 0.66273 0.0
O161 O 0.58806 0.2209 0.68298 0.0
O162 O 0.6412 0.31007 0.70328 0.0
C163 C 0.60354 0.21944 0.66164 0.0
O164 O 0.63535 0.18175 0.72385 0.0
C165 C 0.62063 0.30576 0.72268 0.0
O166 O 0.62481 0.2165 0.74596 0.0
O167 O 0.60889 0.2795 0.73653 0.0
C168 C 0.32674 0.60132 0.91049 0.0
O169 O 0.33273 0.58328 0.92614 0.0
Cd170 Cd 0.38663 0.5934 0.93726 0.0
O171 O 0.35037 0.62767 0.90056 0.0
Cd172 Cd 0.41234 0.65889 0.90438 0.0
C173 C 0.41769 0.60037 0.86997 0.0
O174 O 0.41752 0.64777 0.95366 0.0
O175 O 0.46125 0.66347 0.92847 0.0
O176 O 0.41013 0.70847 0.91011 0.0
C177 C 0.44799 0.65703 0.9527 0.0
O178 O 0.40834 0.58473 0.89316 0.0
C179 C 0.43357 0.72551 0.8932 0.0
O180 O 0.41938 0.62769 0.86728 0.0
O181 O 0.44644 0.71124 0.88037 0.0
C182 C 0.73733 0.46707 0.04156 0.0
O183 O 0.76534 0.48857 0.03237 0.0
Cd184 Cd 0.81158 0.4818 0.02207 0.0
O185 O 0.73112 0.43812 0.04552 0.0
Cd186 Cd 0.76142 0.40778 0.03944 0.0
C187 C 0.81991 0.45473 0.08701 0.0
O188 O 0.79154 0.43319 -0.00394 0.0
O189 O 0.80866 0.4059 0.01979 0.0
O190 O 0.71444 0.36039 0.01892 0.0
C191 C 0.81086 0.42191 -0.00228 0.0
O192 O 0.83262 0.47614 0.06769 0.0
C193 C 0.71421 0.34005 0.03639 0.0
O194 O 0.79252 0.42873 0.08317 0.0
O195 O 0.73493 0.35138 0.05651 0.0
C196 C 0.2934 0.73538 0.20595 0.0
O197 O 0.29651 0.7593 0.19171 0.0
Cd198 Cd 0.34877 0.80617 0.18053 0.0
O199 O 0.31878 0.73414 0.21399 0.0
Cd200 Cd 0.38 0.76511 0.21 0.0
C201 C 0.38312 0.82749 0.247 0.0
O202 O 0.38367 0.78714 0.16296 0.0
O203 O 0.42929 0.80739 0.18616 0.0
O204 O 0.38255 0.71575 0.2025 0.0
C205 C 0.41438 0.80718 0.16374 0.0
O206 O 0.37108 0.83411 0.22553 0.0
C207 C 0.40252 0.72072 0.22267 0.0
O208 O 0.38699 0.80294 0.24718 0.0
O209 O 0.41158 0.74608 0.23725 0.0
H210 H 0.14206 0.62473 0.32207 0.0
H211 H 0.23273 0.72382 0.18717 0.0
H212 H 0.08588 0.60422 0.24473 0.0
H213 H 0.27839 0.68965 0.24675 0.0
H214 H 0.17861 0.68605 0.20786 0.0
H215 H 0.19243 0.65594 0.29549 0.0
C216 C 0.14021 0.62625 0.29936 0.0
C217 C 0.10949 0.61066 0.28553 0.0
C218 C 0.20052 0.68662 0.21599 0.0
C219 C 0.16772 0.648 0.25503 0.0
C220 C 0.23138 0.70818 0.20434 0.0
C221 C 0.26021 0.71015 0.21546 0.0
C222 C 0.19876 0.66757 0.23922 0.0
C223 C 0.25696 0.68916 0.23757 0.0
C224 C 0.16914 0.64436 0.28424 0.0
C225 C 0.10897 0.61546 0.25623 0.0
N226 N 0.22689 0.66916 0.24899 0.0
N227 N 0.13777 0.63385 0.24185 0.0
H228 H 0.4494 0.09763 0.42572 0.0
H229 H 0.52952 0.25035 0.36599 0.0
H230 H 0.54547 0.10683 0.43287 0.0
H231 H 0.61299 0.2572 0.41094 0.0
H232 H 0.50177 0.19135 0.3698 0.0
H233 H 0.47394 0.14844 0.39944 0.0
C234 C 0.47545 0.10966 0.42064 0.0
C235 C 0.49552 0.09827 0.43175 0.0
C236 C 0.52617 0.20571 0.37876 0.0
C237 C 0.52405 0.15672 0.40195 0.0
C238 C 0.5422 0.23942 0.37631 0.0
C239 C 0.57334 0.25873 0.38869 0.0
C240 C 0.54149 0.19135 0.39372 0.0
C241 C 0.58875 0.24329 0.40154 0.0
C242 C 0.48959 0.13886 0.40566 0.0
C243 C 0.52923 0.11506 0.42495 0.0
N244 N 0.57255 0.21059 0.40394 0.0
N245 N 0.54254 0.1438 0.41111 0.0
H246 H 0.44694 0.55349 0.62979 0.0
H247 H 0.29051 0.50801 0.53194 0.0
H248 H 0.37013 0.45583 0.61164 0.0
H249 H 0.35065 0.60237 0.56909 0.0
H250 H 0.32754 0.49108 0.55165 0.0
H251 H 0.41974 0.57367 0.59834 0.0
C252 C 0.42462 0.53625 0.61892 0.0
C253 C 0.41054 0.50286 0.62382 0.0
C254 C 0.33283 0.51559 0.55526 0.0
C255 C 0.37956 0.52589 0.58756 0.0
C256 C 0.31171 0.52536 0.54399 0.0
C257 C 0.31713 0.55658 0.54922 0.0
C258 C 0.35971 0.53714 0.57189 0.0
C259 C 0.34528 0.57799 0.56474 0.0
C260 C 0.40917 0.54783 0.60096 0.0
C261 C 0.38203 0.48171 0.60856 0.0
N262 N 0.36536 0.56776 0.57577 0.0
N263 N 0.36732 0.4936 0.59139 0.0
H264 H 0.90079 0.44419 0.76922 0.0
H265 H 0.77677 0.27175 0.70182 0.0
H266 H 0.92101 0.3656 0.76515 0.0
H267 H 0.74817 0.34105 0.72688 0.0
H268 H 0.83349 0.31002 0.7157 0.0
H269 H 0.8492 0.41108 0.74361 0.0
C270 C 0.89466 0.42016 0.76249 0.0
C271 C 0.91503 0.40747 0.76975 0.0
C272 C 0.81484 0.31691 0.71797 0.0
C273 C 0.85599 0.36946 0.74049 0.0
C274 C 0.7824 0.29509 0.71006 0.0
C275 C 0.7575 0.30303 0.71346 0.0
C276 C 0.82258 0.34705 0.7292 0.0
C277 C 0.76643 0.33373 0.72414 0.0
C278 C 0.86517 0.40127 0.74796 0.0
C279 C 0.90615 0.37642 0.76002 0.0
N280 N 0.79821 0.35456 0.73173 0.0
N281 N 0.87707 0.35831 0.74621 0.0
H282 H 0.56613 0.92419 0.92863 0.0
H283 H 0.49233 0.77102 0.86958 0.0
H284 H 0.46818 0.9109 0.93319 0.0
H285 H 0.40618 0.76061 0.91228 0.0
H286 H 0.51822 0.82983 0.87379 0.0
H287 H 0.54392 0.87293 0.90345 0.0
C288 C 0.54014 0.91109 0.92327 0.0
C289 C 0.51889 0.92156 0.93328 0.0
C290 C 0.49366 0.81473 0.88221 0.0
C291 C 0.49304 0.86263 0.90468 0.0
C292 C 0.4787 0.78113 0.87952 0.0
C293 C 0.44729 0.76087 0.8911 0.0
C294 C 0.47701 0.82804 0.89658 0.0
C295 C 0.43064 0.77527 0.90349 0.0
C296 C 0.52735 0.88166 0.9089 0.0
C297 C 0.48532 0.90341 0.92615 0.0
N298 N 0.44581 0.8079 0.9061 0.0
N299 N 0.47335 0.87452 0.91288 0.0
H300 H 0.58211 0.4785 0.12879 0.0
H301 H 0.74304 0.52673 0.03659 0.0
H302 H 0.66007 0.57661 0.1142 0.0
H303 H 0.67605 0.42962 0.06555 0.0
H304 H 0.7062 0.5441 0.05583 0.0
H305 H 0.60952 0.45945 0.09659 0.0
C306 C 0.60473 0.49608 0.11848 0.0
C307 C 0.61908 0.52919 0.12461 0.0
C308 C 0.69937 0.51892 0.05772 0.0
C309 C 0.6505 0.50751 0.08767 0.0
C310 C 0.7204 0.50891 0.04671 0.0
C311 C 0.71293 0.4767 0.04983 0.0
C312 C 0.67059 0.49661 0.072 0.0
C313 C 0.68302 0.45475 0.06291 0.0
C314 C 0.62034 0.48517 0.10011 0.0
C315 C 0.64803 0.5509 0.11016 0.0
N316 N 0.66311 0.46518 0.07378 0.0
N317 N 0.663 0.53964 0.09266 0.0
H318 H 0.44638 0.8836 0.48776 0.0
H319 H 0.29694 0.73512 0.56803 0.0
H320 H 0.36023 0.88528 0.51745 0.0
H321 H 0.36787 0.72725 0.51557 0.0
H322 H 0.32734 0.79381 0.56077 0.0
H323 H 0.42566 0.83061 0.50981 0.0
C324 C 0.42341 0.87309 0.49946 0.0
C325 C 0.40471 0.88862 0.50035 0.0
C326 C 0.33647 0.77925 0.5512 0.0
C327 C 0.38077 0.82787 0.5255 0.0
C328 C 0.31922 0.74577 0.55539 0.0
C329 C 0.3297 0.72621 0.54211 0.0
C330 C 0.36457 0.79329 0.53386 0.0
C331 C 0.35872 0.74135 0.52597 0.0
C332 C 0.41156 0.8428 0.51194 0.0
C333 C 0.37541 0.87415 0.51618 0.0
N334 N 0.37501 0.77393 0.52216 0.0
N335 N 0.36405 0.84431 0.52777 0.0
H336 H 0.57007 0.44789 0.68118 0.0
H337 H 0.56806 0.2973 0.7546 0.0
H338 H 0.48359 0.36817 0.71846 0.0
H339 H 0.64563 0.36656 0.70057 0.0
H340 H 0.54325 0.33182 0.75493 0.0
H341 H 0.60406 0.42823 0.70303 0.0
C342 C 0.55846 0.427 0.695 0.0
C343 C 0.524 0.40936 0.69779 0.0
C344 C 0.56604 0.33973 0.74345 0.0
C345 C 0.56245 0.38609 0.72199 0.0
C346 C 0.58024 0.32006 0.74325 0.0
C347 C 0.60863 0.32879 0.72707 0.0
C348 C 0.58041 0.36838 0.72747 0.0
C349 C 0.62345 0.35863 0.71295 0.0
C350 C 0.57778 0.41554 0.70718 0.0
C351 C 0.51009 0.38239 0.71578 0.0
N352 N 0.60895 0.37714 0.7132 0.0
N353 N 0.52928 0.37106 0.72666 0.0
H354 H 0.15081 0.57397 0.82591 0.0
H355 H 0.27133 0.54527 0.92605 0.0
H356 H 0.12835 0.48071 0.85851 0.0
H357 H 0.30279 0.63226 0.87707 0.0
H358 H 0.21503 0.52499 0.90958 0.0
H359 H 0.20228 0.59899 0.85292 0.0
C360 C 0.15645 0.55879 0.83906 0.0
C361 C 0.13542 0.52508 0.83955 0.0
C362 C 0.23418 0.54862 0.90261 0.0
C363 C 0.19423 0.55363 0.87061 0.0
C364 C 0.26642 0.5603 0.91202 0.0
C365 C 0.29204 0.59042 0.90265 0.0
C366 C 0.22733 0.56715 0.88373 0.0
C367 C 0.28394 0.6088 0.88464 0.0
C368 C 0.18584 0.57311 0.85445 0.0
C369 C 0.14367 0.50675 0.85747 0.0
N370 N 0.25232 0.59677 0.8756 0.0
N371 N 0.17261 0.52122 0.87201 0.0
H372 H 0.645 0.16862 0.94361 0.0
H373 H 0.70568 0.28948 0.07056 0.0
H374 H 0.60741 0.12885 0.02628 0.0
H375 H 0.67644 0.31034 -0.00974 0.0
H376 H 0.67806 0.23183 0.05744 0.0
H377 H 0.66784 0.22271 0.96274 0.0
C378 C 0.64138 0.17124 0.96585 0.0
C379 C 0.62322 0.14404 0.98317 0.0
C380 C 0.67738 0.24912 0.04303 0.0
C381 C 0.65037 0.20639 0.00538 0.0
C382 C 0.69307 0.28193 0.05042 0.0
C383 C 0.69361 0.30483 0.03135 0.0
C384 C 0.66293 0.23954 0.01621 0.0
C385 C 0.67687 0.2937 0.00558 0.0
C386 C 0.65452 0.20218 0.97673 0.0
C387 C 0.62084 0.14915 0.01213 0.0
N388 N 0.66274 0.26201 -0.00139 0.0
N389 N 0.63421 0.17989 0.02243 0.0
H390 H 0.54686 0.66328 0.22107 0.0
H391 H 0.45135 0.72916 0.25976 0.0
H392 H 0.45728 0.58208 0.18974 0.0
H393 H 0.38525 0.66329 0.19679 0.0
H394 H 0.47877 0.69715 0.26266 0.0
H395 H 0.5146 0.68517 0.24175 0.0
C396 C 0.52018 0.6492 0.21985 0.0
C397 C 0.50471 0.62105 0.20344 0.0
C398 C 0.45832 0.68967 0.24818 0.0
C399 C 0.46739 0.64618 0.22652 0.0
C400 C 0.44245 0.70782 0.24668 0.0
C401 C 0.41644 0.69931 0.22751 0.0
C402 C 0.44817 0.6629 0.23025 0.0
C403 C 0.4056 0.67113 0.21147 0.0
C404 C 0.50162 0.66185 0.23152 0.0
C405 C 0.47012 0.60403 0.20208 0.0
N406 N 0.42171 0.65417 0.213 0.0
N407 N 0.45271 0.61731 0.21273 0.0
H408 H 0.87355 0.43787 0.34173 0.0
H409 H 0.75053 0.47022 0.43397 0.0
H410 H 0.89513 0.53216 0.37025 0.0
H411 H 0.72032 0.38314 0.38581 0.0
H412 H 0.80776 0.48885 0.42136 0.0
H413 H 0.82238 0.41357 0.36916 0.0
C414 C 0.86793 0.45341 0.35431 0.0
C415 C 0.88833 0.48719 0.35319 0.0
C416 C 0.78865 0.46552 0.41381 0.0
C417 C 0.82985 0.45952 0.38454 0.0
C418 C 0.75589 0.45481 0.42097 0.0
C419 C 0.7304 0.42523 0.41055 0.0
C420 C 0.79614 0.44654 0.39617 0.0
C421 C 0.73906 0.40626 0.39403 0.0
C422 C 0.83867 0.43951 0.36985 0.0
C423 C 0.88017 0.50606 0.37037 0.0
N424 N 0.77119 0.41738 0.38714 0.0
N425 N 0.85128 0.49201 0.38496 0.0
H426 H 0.05239 0.58337 0.39772 0.0
H427 H 0.2007 0.56315 0.45386 0.0
H428 H 0.08362 0.52203 0.35806 0.0
H429 H 0.16611 0.62099 0.49526 0.0
H430 H 0.15271 0.54128 0.42263 0.0
H431 H 0.08602 0.5883 0.43883 0.0
C432 C 0.06528 0.56986 0.39812 0.0
C433 C 0.06574 0.55276 0.37423 0.0
C434 C 0.15547 0.55857 0.43868 0.0
C435 C 0.10535 0.55938 0.42071 0.0
C436 C 0.18302 0.57127 0.45636 0.0
C437 C 0.18764 0.59426 0.47692 0.0
C438 C 0.13245 0.56907 0.44146 0.0
C439 C 0.16371 0.60357 0.47948 0.0
C440 C 0.08495 0.57311 0.42145 0.0
C441 C 0.08313 0.53595 0.37588 0.0
N442 N 0.1373 0.59114 0.46181 0.0
N443 N 0.10291 0.54032 0.39842 0.0
H444 H 0.45943 0.0688 0.55431 0.0
H445 H 0.63166 0.20443 0.61804 0.0
H446 H 0.55407 0.09475 0.5182 0.0
H447 H 0.53738 0.17693 0.65595 0.0
H448 H 0.60374 0.16132 0.58336 0.0
H449 H 0.48756 0.10349 0.59485 0.0
C450 C 0.48612 0.08109 0.55531 0.0
C451 C 0.5045 0.07917 0.53279 0.0
C452 C 0.58913 0.16463 0.5993 0.0
C453 C 0.53683 0.11958 0.5786 0.0
C454 C 0.60505 0.1894 0.61899 0.0
C455 C 0.58678 0.19442 0.63978 0.0
C456 C 0.55465 0.14478 0.60031 0.0
C457 C 0.5524 0.17402 0.64017 0.0
C458 C 0.50219 0.10121 0.57828 0.0
C459 C 0.53903 0.09593 0.535 0.0
N460 N 0.53742 0.15015 0.62066 0.0
N461 N 0.55409 0.11577 0.55729 0.0
H462 H 0.41373 0.46566 0.74827 0.0
H463 H 0.44607 0.62916 0.81948 0.0
H464 H 0.47296 0.55916 0.70911 0.0
H465 H 0.4084 0.5393 0.8654 0.0
H466 H 0.45727 0.60428 0.77914 0.0
H467 H 0.41376 0.49239 0.79205 0.0
C468 C 0.42738 0.49182 0.749 0.0
C469 C 0.44314 0.51016 0.72481 0.0
C470 C 0.44682 0.59011 0.79814 0.0
C471 C 0.44239 0.54094 0.77477 0.0
C472 C 0.44026 0.60424 0.82114 0.0
C473 C 0.42601 0.58622 0.84579 0.0
C474 C 0.43874 0.5576 0.79969 0.0
C475 C 0.41926 0.5541 0.84679 0.0
C476 C 0.42713 0.50709 0.774 0.0
C477 C 0.45992 0.54403 0.72705 0.0
N478 N 0.4254 0.54074 0.82398 0.0
N479 N 0.45874 0.55832 0.75145 0.0
H480 H 0.9294 0.48494 0.84729 0.0
H481 H 0.85744 0.40339 -0.00278 0.0
H482 H 0.95793 0.4233 0.89072 0.0
H483 H 0.82507 0.4605 0.95106 0.0
H484 H 0.90054 0.41715 0.96192 0.0
H485 H 0.89855 0.48431 0.88914 0.0
C486 C 0.92974 0.47187 0.86592 0.0
C487 C 0.94588 0.45385 0.86549 0.0
C488 C 0.88416 0.42685 0.95961 0.0
C489 C 0.91021 0.45248 0.91318 0.0
C490 C 0.85946 0.4189 0.97969 0.0
C491 C 0.83742 0.43054 0.97688 0.0
C492 C 0.88677 0.44652 0.93652 0.0
C493 C 0.84134 0.45075 0.9539 0.0
C494 C 0.91202 0.47137 0.88973 0.0
C495 C 0.94585 0.43755 0.8902 0.0
N496 N 0.86541 0.45793 0.9345 0.0
N497 N 0.92777 0.43681 0.91291 0.0
H498 H 0.45735 0.92835 0.01658 0.0
H499 H 0.47941 0.85416 0.161 0.0
H500 H 0.55186 0.9577 0.0548 0.0
H501 H 0.3864 0.81883 0.1177 0.0
H502 H 0.50565 0.89723 0.12581 0.0
H503 H 0.43012 0.89462 0.05787 0.0
C504 C 0.47232 0.92825 0.03402 0.0
C505 C 0.50687 0.94555 0.03221 0.0
C506 C 0.47949 0.88013 0.12406 0.0
C507 C 0.476 0.90657 0.07921 0.0
C508 C 0.46451 0.85543 0.14405 0.0
C509 C 0.43072 0.83271 0.14212 0.0
C510 C 0.46052 0.88215 0.10199 0.0
C511 C 0.41258 0.83565 0.11986 0.0
C512 C 0.45681 0.90883 0.05748 0.0
C513 C 0.52516 0.94479 0.05541 0.0
N514 N 0.42774 0.85987 0.10062 0.0
N515 N 0.5095 0.92517 0.07779 0.0
H516 H 0.61617 0.56169 0.25031 0.0
H517 H 0.58339 0.39555 0.31762 0.0
H518 H 0.55782 0.46949 0.2091 0.0
H519 H 0.62039 0.48373 0.36568 0.0
H520 H 0.57375 0.42219 0.2776 0.0
H521 H 0.61664 0.53355 0.29321 0.0
C522 C 0.60285 0.53551 0.25041 0.0
C523 C 0.58714 0.51797 0.22591 0.0
C524 C 0.58378 0.43563 0.29697 0.0
C525 C 0.58844 0.4856 0.27482 0.0
C526 C 0.58946 0.42049 0.31979 0.0
C527 C 0.60291 0.43747 0.34501 0.0
C528 C 0.59191 0.4681 0.29927 0.0
C529 C 0.61006 0.46969 0.34664 0.0
C530 C 0.60339 0.51945 0.27489 0.0
C531 C 0.57078 0.48404 0.2273 0.0
N532 N 0.60471 0.48401 0.32402 0.0
N533 N 0.5722 0.46899 0.2512 0.0
H534 H 0.46175 0.91525 0.40834 0.0
H535 H 0.36849 0.87496 0.25949 0.0
H536 H 0.38836 0.94132 0.38748 0.0
H537 H 0.42126 0.8289 0.29131 0.0
H538 H 0.38435 0.90864 0.30199 0.0
H539 H 0.45685 0.89385 0.36064 0.0
C540 C 0.44497 0.91691 0.39355 0.0
C541 C 0.42504 0.92959 0.40199 0.0
C542 C 0.39258 0.89128 0.29951 0.0
C543 C 0.41921 0.90506 0.3475 0.0
C544 C 0.38353 0.87204 0.27531 0.0
C545 C 0.39323 0.8488 0.27201 0.0
C546 C 0.41171 0.88745 0.32037 0.0
C547 C 0.41285 0.84619 0.29312 0.0
C548 C 0.44214 0.90464 0.36638 0.0
C549 C 0.40417 0.93173 0.38185 0.0
N550 N 0.42136 0.86521 0.31641 0.0
N551 N 0.40146 0.91915 0.3556 0.0
H552 H 0.49618 0.35298 0.61648 0.0
H553 H 0.52159 0.37605 0.45002 0.0
H554 H 0.48408 0.42592 0.57321 0.0
H555 H 0.57846 0.35031 0.50493 0.0
H556 H 0.49406 0.3824 0.49188 0.0
H557 H 0.51126 0.33851 0.57187 0.0
C558 C 0.49649 0.36581 0.59746 0.0
C559 C 0.48983 0.39131 0.59858 0.0
C560 C 0.51236 0.37509 0.49456 0.0
C561 C 0.50664 0.37452 0.54746 0.0
C562 C 0.52789 0.37131 0.47083 0.0
C563 C 0.55234 0.36276 0.47421 0.0
C564 C 0.52086 0.36941 0.52154 0.0
C565 C 0.55988 0.35711 0.5015 0.0
C566 C 0.50503 0.35749 0.57207 0.0
C567 C 0.48949 0.40639 0.5732 0.0
N568 N 0.5441 0.36042 0.52412 0.0
N569 N 0.49824 0.39801 0.54853 0.0
H570 H 0.07968 0.46345 0.72373 0.0
H571 H 0.20973 0.608 0.62792 0.0
H572 H 0.1222 0.56388 0.74682 0.0
H573 H 0.1515 0.50983 0.59797 0.0
H574 H 0.17683 0.59253 0.67116 0.0
H575 H 0.10321 0.48007 0.67657 0.0
C576 C 0.09332 0.489 0.71872 0.0
C577 C 0.09927 0.51232 0.73939 0.0
C578 C 0.17111 0.57443 0.65503 0.0
C579 C 0.12711 0.53152 0.68564 0.0
C580 C 0.19002 0.58321 0.63041 0.0
C581 C 0.18356 0.56012 0.60937 0.0
C582 C 0.14575 0.54228 0.65878 0.0
C583 C 0.1575 0.52842 0.61366 0.0
C584 C 0.10703 0.49849 0.69182 0.0
C585 C 0.11757 0.54509 0.73171 0.0
N586 N 0.13973 0.52038 0.63797 0.0
N587 N 0.13123 0.55373 0.70558 0.0
H588 H 0.60598 0.06505 0.88131 0.0
H589 H 0.58658 0.19105 0.78858 0.0
H590 H 0.54118 0.10127 0.90365 0.0
H591 H 0.62971 0.13614 0.75633 0.0
H592 H 0.56552 0.15462 0.82908 0.0
H593 H 0.60881 0.08462 0.83315 0.0
C594 C 0.59138 0.07608 0.87585 0.0
C595 C 0.57385 0.08215 0.89665 0.0
C596 C 0.57926 0.15028 0.813 0.0
C597 C 0.57796 0.10564 0.84189 0.0
C598 C 0.59157 0.17128 0.78998 0.0
C599 C 0.61038 0.16695 0.76925 0.0
C600 C 0.58622 0.12502 0.81558 0.0
C601 C 0.61559 0.14058 0.77195 0.0
C602 C 0.59331 0.08761 0.84838 0.0
C603 C 0.55561 0.09679 0.88837 0.0
N604 N 0.60397 0.12087 0.79491 0.0
N605 N 0.55876 0.10874 0.86179 0.0
H606 H 0.53941 0.59619 0.07888 0.0
H607 H 0.43534 0.66407 0.00723 0.0
H608 H 0.52248 0.6677 0.11875 0.0
H609 H 0.49966 0.64541 0.95539 0.0
H610 H 0.46229 0.65856 0.04939 0.0
H611 H 0.52186 0.6082 0.0334 0.0
C612 C 0.53242 0.6146 0.07799 0.0
C613 C 0.53148 0.63033 0.10268 0.0
C614 C 0.47068 0.65591 0.02878 0.0
C615 C 0.51122 0.6437 0.05141 0.0
C616 C 0.45525 0.65893 0.00478 0.0
C617 C 0.46543 0.6553 0.97793 0.0
C618 C 0.49595 0.64844 0.02593 0.0
C619 C 0.49135 0.64862 0.97583 0.0
C620 C 0.52242 0.62138 0.05217 0.0
C621 C 0.52248 0.65419 0.10041 0.0
N622 N 0.50555 0.64496 -0.00037 0.0
N623 N 0.51218 0.65974 0.07538 0.0
H624 H 0.85811 0.48318 0.26356 0.0
H625 H 0.88478 0.49744 0.09907 0.0
H626 H 0.95455 0.51334 0.22865 0.0
H627 H 0.79358 0.42557 0.13756 0.0
H628 H 0.91141 0.50885 0.14561 0.0
H629 H 0.83442 0.46733 0.21678 0.0
C630 C 0.87436 0.48597 0.2462 0.0
C631 C 0.90845 0.49899 0.25036 0.0
C632 C 0.88567 0.49041 0.14371 0.0
C633 C 0.88123 0.48199 0.19621 0.0
C634 C 0.8704 0.484 0.11727 0.0
C635 C 0.83684 0.46067 0.11452 0.0
C636 C 0.86702 0.47384 0.16752 0.0
C637 C 0.81946 0.44377 0.13872 0.0
C638 C 0.86072 0.4771 0.21939 0.0
C639 C 0.9282 0.50344 0.22653 0.0
N640 N 0.83465 0.45098 0.16427 0.0
N641 N 0.91431 0.4951 0.20036 0.0
loop_
_geom_bond_atom_site_label_1
_geom_bond_atom_site_label_2
_geom_bond_distance
_geom_bond_site_symmetry_2
_ccdc_geom_bond_type
H0 C8 0.930 . S
H1 C11 0.930 . S
H2 C13 0.930 . S
H3 C14 0.970 . S
H4 C14 0.970 . S
H5 C16 0.930 . S
H6 C18 0.930 . S
H7 C20 0.930 . S
C8 H0 0.930 . S
C8 C9 1.382 . S
C8 C10 1.426 . S
C9 C8 1.382 . S
C9 C13 1.389 . S
C10 C8 1.426 . S
C10 C11 1.375 . S
C10 C14 1.532 1_655 S
C11 H1 0.930 . S
C11 C10 1.375 . S
C11 C12 1.416 . S
C12 C11 1.416 . S
C12 C13 1.371 . S
C13 H2 0.930 . S
C13 C9 1.389 . S
C13 C12 1.371 . S
C14 H3 0.970 . S
C14 H4 0.970 . S
C14 C10 1.532 1_455 S
C14 C15 1.499 . S
C15 C14 1.499 . S
C15 C16 1.370 . S
C15 C20 1.415 . S
C16 H5 0.930 . S
C16 C15 1.370 . S
C16 C17 1.407 . S
C17 C16 1.407 . S
C17 C18 1.365 . S
C18 H6 0.930 . S
C18 C17 1.365 . S
C18 C19 1.393 . S
C19 C18 1.393 . S
C19 C20 1.387 . S
C20 H7 0.930 . S
C20 C15 1.415 . S
C20 C19 1.387 . S
H21 C29 0.930 . S
H22 C32 0.930 . S
H23 C34 0.930 . S
H24 C35 0.970 . S
H25 C35 0.970 . S
H26 C37 0.930 . S
H27 C39 0.930 . S
H28 C41 0.930 . S
C29 H21 0.930 . S
C29 C30 1.382 . S
C29 C31 1.426 . S
C30 C29 1.382 . S
C30 C34 1.389 . S
C31 C29 1.426 . S
C31 C32 1.375 . S
C31 C35 1.532 1_565 S
C32 H22 0.930 . S
C32 C31 1.375 . S
C32 C33 1.416 . S
C33 C32 1.416 . S
C33 C34 1.371 . S
C34 H23 0.930 . S
C34 C30 1.389 . S
C34 C33 1.371 . S
C35 H24 0.970 . S
C35 H25 0.970 . S
C35 C31 1.532 1_545 S
C35 C36 1.499 . S
C36 C35 1.499 . S
C36 C37 1.370 . S
C36 C41 1.415 . S
C37 H26 0.930 . S
C37 C36 1.370 . S
C37 C38 1.407 . S
C38 C37 1.407 . S
C38 C39 1.365 . S
C39 H27 0.930 . S
C39 C38 1.365 . S
C39 C40 1.393 . S
C40 C39 1.393 . S
C40 C41 1.387 . S
C41 H28 0.930 . S
C41 C36 1.415 . S
C41 C40 1.387 . S
H42 C50 0.930 . S
H43 C53 0.930 . S
H44 C55 0.930 . S
H45 C56 0.970 . S
H46 C56 0.970 . S
H47 C58 0.930 . S
H48 C60 0.930 . S
H49 C62 0.930 . S
C50 H42 0.930 . S
C50 C51 1.382 . S
C50 C52 1.426 . S
C51 C50 1.382 . S
C51 C55 1.389 . S
C52 C50 1.426 . S
C52 C53 1.375 . S
C52 C56 1.532 . S
C53 H43 0.930 . S
C53 C52 1.375 . S
C53 C54 1.416 . S
C54 C53 1.416 . S
C54 C55 1.371 . S
C55 H44 0.930 . S
C55 C51 1.389 . S
C55 C54 1.371 . S
C56 H45 0.970 . S
C56 H46 0.970 . S
C56 C52 1.532 . S
C56 C57 1.499 . S
C57 C56 1.499 . S
C57 C58 1.370 . S
C57 C62 1.415 . S
C58 H47 0.930 . S
C58 C57 1.370 . S
C58 C59 1.407 . S
C59 C58 1.407 . S
C59 C60 1.365 . S
C60 H48 0.930 . S
C60 C59 1.365 . S
C60 C61 1.393 . S
C61 C60 1.393 . S
C61 C62 1.387 . S
C62 H49 0.930 . S
C62 C57 1.415 . S
C62 C61 1.387 . S
H63 C71 0.930 . S
H64 C74 0.930 . S
H65 C76 0.930 . S
H66 C77 0.970 . S
H67 C77 0.970 . S
H68 C79 0.930 . S
H69 C81 0.930 . S
H70 C83 0.930 . S
C71 H63 0.930 . S
C71 C72 1.382 . S
C71 C73 1.426 . S
C72 C71 1.382 . S
C72 C76 1.389 . S
C73 C71 1.426 . S
C73 C74 1.375 . S
C73 C77 1.532 1_655 S
C74 H64 0.930 . S
C74 C73 1.375 . S
C74 C75 1.416 . S
C75 C74 1.416 . S
C75 C76 1.371 . S
C76 H65 0.930 . S
C76 C72 1.389 . S
C76 C75 1.371 . S
C77 H66 0.970 . S
C77 H67 0.970 . S
C77 C73 1.532 1_455 S
C77 C78 1.499 . S
C78 C77 1.499 . S
C78 C79 1.370 . S
C78 C83 1.415 . S
C79 H68 0.930 . S
C79 C78 1.370 . S
C79 C80 1.407 . S
C80 C79 1.407 . S
C80 C81 1.365 . S
C81 H69 0.930 . S
C81 C80 1.365 . S
C81 C82 1.393 . S
C82 C81 1.393 . S
C82 C83 1.387 . S
C83 H70 0.930 . S
C83 C78 1.415 . S
C83 C82 1.387 . S
H84 C92 0.930 . S
H85 C95 0.930 . S
H86 C97 0.930 . S
H87 C98 0.970 1_554 S
H88 C98 0.984 . S
H89 C100 0.930 . S
H90 C102 0.930 . S
H91 C104 0.930 . S
C92 H84 0.930 . S
C92 C93 1.382 1_554 S
C92 C94 1.426 1_554 S
C93 C92 1.382 1_556 S
C93 C97 1.389 . S
C94 C92 1.426 1_556 S
C94 C95 1.375 . S
C94 C98 1.532 . S
C95 H85 0.930 . S
C95 C94 1.375 . S
C95 C96 1.416 . S
C96 C95 1.416 . S
C96 C97 1.371 . S
C97 H86 0.930 . S
C97 C93 1.389 . S
C97 C96 1.371 . S
C98 H87 0.970 1_556 S
C98 H88 0.984 . S
C98 C94 1.532 . S
C98 C99 1.503 1_545 S
C99 C98 1.503 1_565 S
C99 C100 1.354 1_556 S
C99 C104 1.427 . S
C100 H89 0.930 . S
C100 C99 1.354 1_554 S
C100 C101 1.407 . S
C101 C100 1.407 . S
C101 C102 1.365 . S
C102 H90 0.930 . S
C102 C101 1.365 . S
C102 C103 1.393 1_554 S
C103 C102 1.393 1_556 S
C103 C104 1.387 . S
C104 H91 0.930 . S
C104 C99 1.427 . S
C104 C103 1.387 . S
H105 C113 0.930 . S
H106 C116 0.930 . S
H107 C118 0.930 . S
H108 C119 0.970 . S
H109 C119 0.970 . S
H110 C121 0.930 . S
H111 C123 0.930 . S
H112 C125 0.930 . S
C113 H105 0.930 . S
C113 C114 1.382 . S
C113 C115 1.426 . S
C114 C113 1.382 . S
C114 C118 1.389 . S
C115 C113 1.426 . S
C115 C116 1.375 . S
C115 C119 1.532 . S
C116 H106 0.930 . S
C116 C115 1.375 . S
C116 C117 1.416 . S
C117 C116 1.416 . S
C117 C118 1.371 . S
C118 H107 0.930 . S
C118 C114 1.389 . S
C118 C117 1.371 . S
C119 H108 0.970 . S
C119 H109 0.970 . S
C119 C115 1.532 . S
C119 C120 1.499 . S
C120 C119 1.499 . S
C120 C121 1.370 . S
C120 C125 1.415 . S
C121 H110 0.930 . S
C121 C120 1.370 . S
C121 C122 1.407 . S
C122 C121 1.407 . S
C122 C123 1.365 . S
C123 H111 0.930 . S
C123 C122 1.365 . S
C123 C124 1.393 . S
C124 C123 1.393 . S
C124 C125 1.387 . S
C125 H112 0.930 . S
C125 C120 1.415 . S
C125 C124 1.387 . S
C126 O127 1.306 . S
C126 O129 1.160 . S
O127 C126 1.306 . S
O127 Cd128 2.228 . S
Cd128 O127 2.228 . S
Cd128 O132 2.273 . S
Cd128 O136 2.277 . S
O129 C126 1.160 . S
O129 Cd130 2.203 . S
Cd130 O129 2.203 . S
Cd130 O132 2.411 . S
Cd130 O133 2.333 . S
Cd130 O134 2.352 . S
Cd130 O138 2.277 . S
Cd130 O139 2.356 . S
C131 O136 1.209 . S
C131 O138 1.226 . S
O132 Cd128 2.273 . S
O132 Cd130 2.411 . S
O132 C135 1.320 . S
O133 Cd130 2.333 . S
O133 C135 1.214 . S
O134 Cd130 2.352 . S
O134 C137 1.258 . S
C135 O132 1.320 . S
C135 O133 1.214 . S
O136 Cd128 2.277 . S
O136 C131 1.209 . S
C137 O134 1.258 . S
C137 O139 1.282 . S
O138 Cd130 2.277 . S
O138 C131 1.226 . S
O139 Cd130 2.356 . S
O139 C137 1.282 . S
C140 O141 1.306 . S
C140 O143 1.160 . S
O141 C140 1.306 . S
O141 Cd142 2.228 . S
Cd142 O141 2.228 . S
Cd142 O146 2.273 . S
Cd142 O150 2.277 . S
O143 C140 1.160 . S
O143 Cd144 2.203 . S
Cd144 O143 2.203 . S
Cd144 O146 2.411 . S
Cd144 O147 2.333 . S
Cd144 O148 2.352 . S
Cd144 O152 2.277 . S
Cd144 O153 2.356 . S
C145 O150 1.209 . S
C145 O152 1.226 . S
O146 Cd142 2.273 . S
O146 Cd144 2.411 . S
O146 C149 1.320 . S
O147 Cd144 2.333 . S
O147 C149 1.214 . S
O148 Cd144 2.352 . S
O148 C151 1.258 . S
C149 O146 1.320 . S
C149 O147 1.214 . S
O150 Cd142 2.277 . S
O150 C145 1.209 . S
C151 O148 1.258 . S
C151 O153 1.282 . S
O152 Cd144 2.277 . S
O152 C145 1.226 . S
O153 Cd144 2.356 . S
O153 C151 1.282 . S
C154 O155 1.306 . S
C154 O157 1.160 . S
O155 C154 1.306 . S
O155 Cd156 2.228 . S
Cd156 O155 2.228 . S
Cd156 O160 2.273 . S
Cd156 O164 2.277 . S
O157 C154 1.160 . S
O157 Cd158 2.203 . S
Cd158 O157 2.203 . S
Cd158 O160 2.411 . S
Cd158 O161 2.333 . S
Cd158 O162 2.352 . S
Cd158 O166 2.277 . S
Cd158 O167 2.356 . S
C159 O164 1.209 . S
C159 O166 1.226 . S
O160 Cd156 2.273 . S
O160 Cd158 2.411 . S
O160 C163 1.320 . S
O161 Cd158 2.333 . S
O161 C163 1.214 . S
O162 Cd158 2.352 . S
O162 C165 1.258 . S
C163 O160 1.320 . S
C163 O161 1.214 . S
O164 Cd156 2.277 . S
O164 C159 1.209 . S
C165 O162 1.258 . S
C165 O167 1.282 . S
O166 Cd158 2.277 . S
O166 C159 1.226 . S
O167 Cd158 2.356 . S
O167 C165 1.282 . S
C168 O169 1.306 . S
C168 O171 1.160 . S
O169 C168 1.306 . S
O169 Cd170 2.228 . S
Cd170 O169 2.228 . S
Cd170 O174 2.273 . S
Cd170 O178 2.277 . S
O171 C168 1.160 . S
O171 Cd172 2.203 . S
Cd172 O171 2.203 . S
Cd172 O174 2.411 . S
Cd172 O175 2.333 . S
Cd172 O176 2.352 . S
Cd172 O180 2.277 . S
Cd172 O181 2.356 . S
C173 O178 1.209 . S
C173 O180 1.226 . S
O174 Cd170 2.273 . S
O174 Cd172 2.411 . S
O174 C177 1.320 . S
O175 Cd172 2.333 . S
O175 C177 1.214 . S
O176 Cd172 2.352 . S
O176 C179 1.258 . S
C177 O174 1.320 . S
C177 O175 1.214 . S
O178 Cd170 2.277 . S
O178 C173 1.209 . S
C179 O176 1.258 . S
C179 O181 1.282 . S
O180 Cd172 2.277 . S
O180 C173 1.226 . S
O181 Cd172 2.356 . S
O181 C179 1.282 . S
C182 O183 1.306 . S
C182 O185 1.160 . S
O183 C182 1.306 . S
O183 Cd184 2.228 . S
Cd184 O183 2.228 . S
Cd184 O188 2.273 . S
Cd184 O192 2.277 . S
O185 C182 1.160 . S
O185 Cd186 2.203 . S
Cd186 O185 2.203 . S
Cd186 O188 2.411 . S
Cd186 O189 2.333 . S
Cd186 O190 2.352 . S
Cd186 O194 2.277 . S
Cd186 O195 2.356 . S
C187 O192 1.209 . S
C187 O194 1.226 . S
O188 Cd184 2.273 . S
O188 Cd186 2.411 . S
O188 C191 1.320 . S
O189 Cd186 2.333 . S
O189 C191 1.214 . S
O190 Cd186 2.352 . S
O190 C193 1.258 . S
C191 O188 1.320 . S
C191 O189 1.214 . S
O192 Cd184 2.277 . S
O192 C187 1.209 . S
C193 O190 1.258 . S
C193 O195 1.282 . S
O194 Cd186 2.277 . S
O194 C187 1.226 . S
O195 Cd186 2.356 . S
O195 C193 1.282 . S
C196 O197 1.306 . S
C196 O199 1.160 . S
O197 C196 1.306 . S
O197 Cd198 2.228 . S
Cd198 O197 2.228 . S
Cd198 O202 2.273 . S
Cd198 O206 2.277 . S
O199 C196 1.160 . S
O199 Cd200 2.203 . S
Cd200 O199 2.203 . S
Cd200 O202 2.411 . S
Cd200 O203 2.333 . S
Cd200 O204 2.352 . S
Cd200 O208 2.277 . S
Cd200 O209 2.356 . S
C201 O206 1.209 . S
C201 O208 1.226 . S
O202 Cd198 2.273 . S
O202 Cd200 2.411 . S
O202 C205 1.320 . S
O203 Cd200 2.333 . S
O203 C205 1.214 . S
O204 Cd200 2.352 . S
O204 C207 1.258 . S
C205 O202 1.320 . S
C205 O203 1.214 . S
O206 Cd198 2.277 . S
O206 C201 1.209 . S
C207 O204 1.258 . S
C207 O209 1.282 . S
O208 Cd200 2.277 . S
O208 C201 1.226 . S
O209 Cd200 2.356 . S
O209 C207 1.282 . S
H210 C216 0.930 . S
H211 C220 0.930 . S
H212 C225 0.929 . S
H213 C223 0.929 . S
H214 C218 0.929 . S
H215 C224 0.929 . S
C216 H210 0.930 . S
C216 C217 1.367 . S
C216 C224 1.378 . S
C217 C216 1.367 . S
C217 C225 1.433 . S
C218 H214 0.929 . S
C218 C220 1.378 . S
C218 C222 1.350 . S
C219 C222 1.463 . S
C219 C224 1.350 . S
C219 N227 1.427 . S
C220 H211 0.930 . S
C220 C218 1.378 . S
C220 C221 1.367 . S
C221 C220 1.367 . S
C221 C223 1.433 . S
C222 C218 1.350 . S
C222 C219 1.463 . S
C222 N226 1.427 . S
C223 H213 0.929 . S
C223 C221 1.433 . S
C223 N226 1.384 . S
C224 H215 0.929 . S
C224 C216 1.378 . S
C224 C219 1.350 . S
C225 H212 0.929 . S
C225 C217 1.433 . S
C225 N227 1.384 . S
N226 C222 1.427 . S
N226 C223 1.384 . S
N227 C219 1.427 . S
N227 C225 1.384 . S
H228 C234 0.930 . S
H229 C238 0.930 . S
H230 C243 0.929 . S
H231 C241 0.929 . S
H232 C236 0.929 . S
H233 C242 0.929 . S
C234 H228 0.930 . S
C234 C235 1.367 . S
C234 C242 1.378 . S
C235 C234 1.367 . S
C235 C243 1.433 . S
C236 H232 0.929 . S
C236 C238 1.378 . S
C236 C240 1.350 . S
C237 C240 1.463 . S
C237 C242 1.350 . S
C237 N245 1.427 . S
C238 H229 0.930 . S
C238 C236 1.378 . S
C238 C239 1.367 . S
C239 C238 1.367 . S
C239 C241 1.433 . S
C240 C236 1.350 . S
C240 C237 1.463 . S
C240 N244 1.427 . S
C241 H231 0.929 . S
C241 C239 1.433 . S
C241 N244 1.384 . S
C242 H233 0.929 . S
C242 C234 1.378 . S
C242 C237 1.350 . S
C243 H230 0.929 . S
C243 C235 1.433 . S
C243 N245 1.384 . S
N244 C240 1.427 . S
N244 C241 1.384 . S
N245 C237 1.427 . S
N245 C243 1.384 . S
H246 C252 0.930 . S
H247 C256 0.930 . S
H248 C261 0.929 . S
H249 C259 0.929 . S
H250 C254 0.929 . S
H251 C260 0.929 . S
C252 H246 0.930 . S
C252 C253 1.367 . S
C252 C260 1.378 . S
C253 C252 1.367 . S
C253 C261 1.433 . S
C254 H250 0.929 . S
C254 C256 1.378 . S
C254 C258 1.350 . S
C255 C258 1.463 . S
C255 C260 1.350 . S
C255 N263 1.427 . S
C256 H247 0.930 . S
C256 C254 1.378 . S
C256 C257 1.367 . S
C257 C256 1.367 . S
C257 C259 1.433 . S
C258 C254 1.350 . S
C258 C255 1.463 . S
C258 N262 1.427 . S
C259 H249 0.929 . S
C259 C257 1.433 . S
C259 N262 1.384 . S
C260 H251 0.929 . S
C260 C252 1.378 . S
C260 C255 1.350 . S
C261 H248 0.929 . S
C261 C253 1.433 . S
C261 N263 1.384 . S
N262 C258 1.427 . S
N262 C259 1.384 . S
N263 C255 1.427 . S
N263 C261 1.384 . S
H264 C270 0.930 . S
H265 C274 0.930 . S
H266 C279 0.929 . S
H267 C277 0.929 . S
H268 C272 0.929 . S
H269 C278 0.929 . S
C270 H264 0.930 . S
C270 C271 1.367 . S
C270 C278 1.378 . S
C271 C270 1.367 . S
C271 C279 1.433 . S
C272 H268 0.929 . S
C272 C274 1.378 . S
C272 C276 1.350 . S
C273 C276 1.463 . S
C273 C278 1.350 . S
C273 N281 1.427 . S
C274 H265 0.930 . S
C274 C272 1.378 . S
C274 C275 1.367 . S
C275 C274 1.367 . S
C275 C277 1.433 . S
C276 C272 1.350 . S
C276 C273 1.463 . S
C276 N280 1.427 . S
C277 H267 0.929 . S
C277 C275 1.433 . S
C277 N280 1.384 . S
C278 H269 0.929 . S
C278 C270 1.378 . S
C278 C273 1.350 . S
C279 H266 0.929 . S
C279 C271 1.433 . S
C279 N281 1.384 . S
N280 C276 1.427 . S
N280 C277 1.384 . S
N281 C273 1.427 . S
N281 C279 1.384 . S
H282 C288 0.930 1_554 S
H283 C292 0.930 . S
H284 C297 0.929 . S
H285 C295 0.929 . S
H286 C290 0.929 . S
H287 C296 0.929 . S
C288 H282 0.930 1_556 S
C288 C289 1.367 . S
C288 C296 1.378 . S
C289 C288 1.367 . S
C289 C297 1.433 . S
C290 H286 0.929 . S
C290 C292 1.378 . S
C290 C294 1.350 . S
C291 C294 1.463 . S
C291 C296 1.350 . S
C291 N299 1.427 . S
C292 H283 0.930 . S
C292 C290 1.378 . S
C292 C293 1.367 . S
C293 C292 1.367 . S
C293 C295 1.433 . S
C294 C290 1.350 . S
C294 C291 1.463 . S
C294 N298 1.427 . S
C295 H285 0.929 . S
C295 C293 1.433 . S
C295 N298 1.384 . S
C296 H287 0.929 . S
C296 C288 1.378 . S
C296 C291 1.350 . S
C297 H284 0.929 . S
C297 C289 1.433 . S
C297 N299 1.384 . S
N298 C294 1.427 . S
N298 C295 1.384 . S
N299 C291 1.427 . S
N299 C297 1.384 . S
H300 C306 0.930 . S
H301 C310 0.930 . S
H302 C315 0.929 . S
H303 C313 0.929 . S
H304 C308 0.929 . S
H305 C314 0.929 . S
C306 H300 0.930 . S
C306 C307 1.367 . S
C306 C314 1.378 . S
C307 C306 1.367 . S
C307 C315 1.433 . S
C308 H304 0.929 . S
C308 C310 1.378 . S
C308 C312 1.350 . S
C309 C312 1.463 . S
C309 C314 1.350 . S
C309 N317 1.427 . S
C310 H301 0.930 . S
C310 C308 1.378 . S
C310 C311 1.367 . S
C311 C310 1.367 . S
C311 C313 1.433 . S
C312 C308 1.350 . S
C312 C309 1.463 . S
C312 N316 1.427 . S
C313 H303 0.929 . S
C313 C311 1.433 . S
C313 N316 1.384 . S
C314 H305 0.929 . S
C314 C306 1.378 . S
C314 C309 1.350 . S
C315 H302 0.929 . S
C315 C307 1.433 . S
C315 N317 1.384 . S
N316 C312 1.427 . S
N316 C313 1.384 . S
N317 C309 1.427 . S
N317 C315 1.384 . S
H318 C324 0.930 . S
H319 C328 0.930 . S
H320 C333 0.929 . S
H321 C331 0.929 . S
H322 C326 0.929 . S
H323 C332 0.929 . S
C324 H318 0.930 . S
C324 C325 1.367 . S
C324 C332 1.378 . S
C325 C324 1.367 . S
C325 C333 1.433 . S
C326 H322 0.929 . S
C326 C328 1.378 . S
C326 C330 1.350 . S
C327 C330 1.463 . S
C327 C332 1.350 . S
C327 N335 1.427 . S
C328 H319 0.930 . S
C328 C326 1.378 . S
C328 C329 1.367 . S
C329 C328 1.367 . S
C329 C331 1.433 . S
C330 C326 1.350 . S
C330 C327 1.463 . S
C330 N334 1.427 . S
C331 H321 0.929 . S
C331 C329 1.433 . S
C331 N334 1.384 . S
C332 H323 0.929 . S
C332 C324 1.378 . S
C332 C327 1.350 . S
C333 H320 0.929 . S
C333 C325 1.433 . S
C333 N335 1.384 . S
N334 C330 1.427 . S
N334 C331 1.384 . S
N335 C327 1.427 . S
N335 C333 1.384 . S
H336 C342 0.930 . S
H337 C346 0.930 . S
H338 C351 0.929 . S
H339 C349 0.929 . S
H340 C344 0.929 . S
H341 C350 0.929 . S
C342 H336 0.930 . S
C342 C343 1.367 . S
C342 C350 1.378 . S
C343 C342 1.367 . S
C343 C351 1.433 . S
C344 H340 0.929 . S
C344 C346 1.378 . S
C344 C348 1.350 . S
C345 C348 1.463 . S
C345 C350 1.350 . S
C345 N353 1.427 . S
C346 H337 0.930 . S
C346 C344 1.378 . S
C346 C347 1.367 . S
C347 C346 1.367 . S
C347 C349 1.433 . S
C348 C344 1.350 . S
C348 C345 1.463 . S
C348 N352 1.427 . S
C349 H339 0.929 . S
C349 C347 1.433 . S
C349 N352 1.384 . S
C350 H341 0.929 . S
C350 C342 1.378 . S
C350 C345 1.350 . S
C351 H338 0.929 . S
C351 C343 1.433 . S
C351 N353 1.384 . S
N352 C348 1.427 . S
N352 C349 1.384 . S
N353 C345 1.427 . S
N353 C351 1.384 . S
H354 C360 0.930 . S
H355 C364 0.930 . S
H356 C369 0.929 . S
H357 C367 0.929 . S
H358 C362 0.929 . S
H359 C368 0.929 . S
C360 H354 0.930 . S
C360 C361 1.367 . S
C360 C368 1.378 . S
C361 C360 1.367 . S
C361 C369 1.433 . S
C362 H358 0.929 . S
C362 C364 1.378 . S
C362 C366 1.350 . S
C363 C366 1.463 . S
C363 C368 1.350 . S
C363 N371 1.427 . S
C364 H355 0.930 . S
C364 C362 1.378 . S
C364 C365 1.367 . S
C365 C364 1.367 . S
C365 C367 1.433 . S
C366 C362 1.350 . S
C366 C363 1.463 . S
C366 N370 1.427 . S
C367 H357 0.929 . S
C367 C365 1.433 . S
C367 N370 1.384 . S
C368 H359 0.929 . S
C368 C360 1.378 . S
C368 C363 1.350 . S
C369 H356 0.929 . S
C369 C361 1.433 . S
C369 N371 1.384 . S
N370 C366 1.427 . S
N370 C367 1.384 . S
N371 C363 1.427 . S
N371 C369 1.384 . S
H372 C378 0.930 . S
H373 C382 0.930 . S
H374 C387 0.929 . S
H375 C385 0.929 . S
H376 C380 0.929 . S
H377 C386 0.902 1_556 S
C378 H372 0.930 . S
C378 C379 1.367 1_556 S
C378 C386 1.369 1_556 S
C379 C378 1.367 1_554 S
C379 C387 1.433 . S
C380 H376 0.929 . S
C380 C382 1.378 . S
C380 C384 1.350 . S
C381 C384 1.463 . S
C381 C386 1.387 . S
C381 N389 1.427 . S
C382 H373 0.930 . S
C382 C380 1.378 . S
C382 C383 1.367 . S
C383 C382 1.367 . S
C383 C385 1.433 . S
C384 C380 1.350 . S
C384 C381 1.463 . S
C384 N388 1.427 . S
C385 H375 0.929 . S
C385 C383 1.433 . S
C385 N388 1.384 . S
C386 H377 0.902 1_554 S
C386 C378 1.369 1_554 S
C386 C381 1.387 . S
C387 H374 0.929 . S
C387 C379 1.433 . S
C387 N389 1.384 . S
N388 C384 1.427 . S
N388 C385 1.384 . S
N389 C381 1.427 . S
N389 C387 1.384 . S
H390 C396 0.930 . S
H391 C400 0.930 . S
H392 C405 0.929 . S
H393 C403 0.929 . S
H394 C398 0.929 . S
H395 C404 0.929 . S
C396 H390 0.930 . S
C396 C397 1.367 . S
C396 C404 1.378 . S
C397 C396 1.367 . S
C397 C405 1.433 . S
C398 H394 0.929 . S
C398 C400 1.378 . S
C398 C402 1.350 . S
C399 C402 1.463 . S
C399 C404 1.350 . S
C399 N407 1.427 . S
C400 H391 0.930 . S
C400 C398 1.378 . S
C400 C401 1.367 . S
C401 C400 1.367 . S
C401 C403 1.433 . S
C402 C398 1.350 . S
C402 C399 1.463 . S
C402 N406 1.427 . S
C403 H393 0.929 . S
C403 C401 1.433 . S
C403 N406 1.384 . S
C404 H395 0.929 . S
C404 C396 1.378 . S
C404 C399 1.350 . S
C405 H392 0.929 . S
C405 C397 1.433 . S
C405 N407 1.384 . S
N406 C402 1.427 . S
N406 C403 1.384 . S
N407 C399 1.427 . S
N407 C405 1.384 . S
H408 C414 0.930 . S
H409 C418 0.930 . S
H410 C423 0.929 . S
H411 C421 0.929 . S
H412 C416 0.929 . S
H413 C422 0.929 . S
C414 H408 0.930 . S
C414 C415 1.367 . S
C414 C422 1.378 . S
C415 C414 1.367 . S
C415 C423 1.433 . S
C416 H412 0.929 . S
C416 C418 1.378 . S
C416 C420 1.350 . S
C417 C420 1.463 . S
C417 C422 1.350 . S
C417 N425 1.427 . S
C418 H409 0.930 . S
C418 C416 1.378 . S
C418 C419 1.367 . S
C419 C418 1.367 . S
C419 C421 1.433 . S
C420 C416 1.350 . S
C420 C417 1.463 . S
C420 N424 1.427 . S
C421 H411 0.929 . S
C421 C419 1.433 . S
C421 N424 1.384 . S
C422 H413 0.929 . S
C422 C414 1.378 . S
C422 C417 1.350 . S
C423 H410 0.929 . S
C423 C415 1.433 . S
C423 N425 1.384 . S
N424 C420 1.427 . S
N424 C421 1.384 . S
N425 C417 1.427 . S
N425 C423 1.384 . S
H426 C432 0.930 . S
H427 C436 0.930 . S
H428 C441 0.929 . S
H429 C439 0.929 . S
H430 C434 0.929 . S
H431 C440 0.929 . S
C432 H426 0.930 . S
C432 C433 1.367 . S
C432 C440 1.378 . S
C433 C432 1.367 . S
C433 C441 1.433 . S
C434 H430 0.929 . S
C434 C436 1.378 . S
C434 C438 1.350 . S
C435 C438 1.463 . S
C435 C440 1.350 . S
C435 N443 1.427 . S
C436 H427 0.930 . S
C436 C434 1.378 . S
C436 C437 1.367 . S
C437 C436 1.367 . S
C437 C439 1.433 . S
C438 C434 1.350 . S
C438 C435 1.463 . S
C438 N442 1.427 . S
C439 H429 0.929 . S
C439 C437 1.433 . S
C439 N442 1.384 . S
C440 H431 0.929 . S
C440 C432 1.378 . S
C440 C435 1.350 . S
C441 H428 0.929 . S
C441 C433 1.433 . S
C441 N443 1.384 . S
N442 C438 1.427 . S
N442 C439 1.384 . S
N443 C435 1.427 . S
N443 C441 1.384 . S
H444 C450 0.930 . S
H445 C454 0.930 . S
H446 C459 0.929 . S
H447 C457 0.929 . S
H448 C452 0.929 . S
H449 C458 0.929 . S
C450 H444 0.930 . S
C450 C451 1.367 . S
C450 C458 1.378 . S
C451 C450 1.367 . S
C451 C459 1.433 . S
C452 H448 0.929 . S
C452 C454 1.378 . S
C452 C456 1.350 . S
C453 C456 1.463 . S
C453 C458 1.350 . S
C453 N461 1.427 . S
C454 H445 0.930 . S
C454 C452 1.378 . S
C454 C455 1.367 . S
C455 C454 1.367 . S
C455 C457 1.433 . S
C456 C452 1.350 . S
C456 C453 1.463 . S
C456 N460 1.427 . S
C457 H447 0.929 . S
C457 C455 1.433 . S
C457 N460 1.384 . S
C458 H449 0.929 . S
C458 C450 1.378 . S
C458 C453 1.350 . S
C459 H446 0.929 . S
C459 C451 1.433 . S
C459 N461 1.384 . S
N460 C456 1.427 . S
N460 C457 1.384 . S
N461 C453 1.427 . S
N461 C459 1.384 . S
H462 C468 0.930 . S
H463 C472 0.930 . S
H464 C477 0.929 . S
H465 C475 0.929 . S
H466 C470 0.929 . S
H467 C476 0.929 . S
C468 H462 0.930 . S
C468 C469 1.367 . S
C468 C476 1.378 . S
C469 C468 1.367 . S
C469 C477 1.433 . S
C470 H466 0.929 . S
C470 C472 1.378 . S
C470 C474 1.350 . S
C471 C474 1.463 . S
C471 C476 1.350 . S
C471 N479 1.427 . S
C472 H463 0.930 . S
C472 C470 1.378 . S
C472 C473 1.367 . S
C473 C472 1.367 . S
C473 C475 1.433 . S
C474 C470 1.350 . S
C474 C471 1.463 . S
C474 N478 1.427 . S
C475 H465 0.929 . S
C475 C473 1.433 . S
C475 N478 1.384 . S
C476 H467 0.929 . S
C476 C468 1.378 . S
C476 C471 1.350 . S
C477 H464 0.929 . S
C477 C469 1.433 . S
C477 N479 1.384 . S
N478 C474 1.427 . S
N478 C475 1.384 . S
N479 C471 1.427 . S
N479 C477 1.384 . S
H480 C486 0.930 . S
H481 C490 0.930 . S
H482 C495 0.929 . S
H483 C493 0.929 . S
H484 C488 0.929 . S
H485 C494 0.929 . S
C486 H480 0.930 . S
C486 C487 1.367 . S
C486 C494 1.378 . S
C487 C486 1.367 . S
C487 C495 1.433 . S
C488 H484 0.929 . S
C488 C490 1.378 . S
C488 C492 1.350 . S
C489 C492 1.463 . S
C489 C494 1.350 . S
C489 N497 1.427 . S
C490 H481 0.930 . S
C490 C488 1.378 . S
C490 C491 1.367 1_556 S
C491 C490 1.367 1_554 S
C491 C493 1.433 . S
C492 C488 1.350 . S
C492 C489 1.463 . S
C492 N496 1.427 . S
C493 H483 0.929 . S
C493 C491 1.433 . S
C493 N496 1.384 1_554 S
C494 H485 0.929 . S
C494 C486 1.378 . S
C494 C489 1.350 . S
C495 H482 0.929 . S
C495 C487 1.433 . S
C495 N497 1.384 . S
N496 C492 1.427 . S
N496 C493 1.384 1_556 S
N497 C489 1.427 . S
N497 C495 1.384 . S
H498 C504 0.930 . S
H499 C508 0.930 . S
H500 C513 0.929 . S
H501 C511 0.929 . S
H502 C506 0.929 . S
H503 C512 0.929 . S
C504 H498 0.930 . S
C504 C505 1.367 . S
C504 C512 1.378 . S
C505 C504 1.367 . S
C505 C513 1.433 . S
C506 H502 0.929 . S
C506 C508 1.378 . S
C506 C510 1.350 . S
C507 C510 1.463 . S
C507 C512 1.350 . S
C507 N515 1.427 . S
C508 H499 0.930 . S
C508 C506 1.378 . S
C508 C509 1.367 . S
C509 C508 1.367 . S
C509 C511 1.433 . S
C510 C506 1.350 . S
C510 C507 1.463 . S
C510 N514 1.427 . S
C511 H501 0.929 . S
C511 C509 1.433 . S
C511 N514 1.384 . S
C512 H503 0.929 . S
C512 C504 1.378 . S
C512 C507 1.350 . S
C513 H500 0.929 . S
C513 C505 1.433 . S
C513 N515 1.384 . S
N514 C510 1.427 . S
N514 C511 1.384 . S
N515 C507 1.427 . S
N515 C513 1.384 . S
H516 C522 0.930 . S
H517 C526 0.930 . S
H518 C531 0.929 . S
H519 C529 0.929 . S
H520 C524 0.929 . S
H521 C530 0.929 . S
C522 H516 0.930 . S
C522 C523 1.367 . S
C522 C530 1.378 . S
C523 C522 1.367 . S
C523 C531 1.433 . S
C524 H520 0.929 . S
C524 C526 1.378 . S
C524 C528 1.350 . S
C525 C528 1.463 . S
C525 C530 1.350 . S
C525 N533 1.427 . S
C526 H517 0.930 . S
C526 C524 1.378 . S
C526 C527 1.367 . S
C527 C526 1.367 . S
C527 C529 1.433 . S
C528 C524 1.350 . S
C528 C525 1.463 . S
C528 N532 1.427 . S
C529 H519 0.929 . S
C529 C527 1.433 . S
C529 N532 1.384 . S
C530 H521 0.929 . S
C530 C522 1.378 . S
C530 C525 1.350 . S
C531 H518 0.929 . S
C531 C523 1.433 . S
C531 N533 1.384 . S
N532 C528 1.427 . S
N532 C529 1.384 . S
N533 C525 1.427 . S
N533 C531 1.384 . S
H534 C540 0.930 . S
H535 C544 0.930 . S
H536 C549 0.929 . S
H537 C547 0.929 . S
H538 C542 0.929 . S
H539 C548 0.929 . S
C540 H534 0.930 . S
C540 C541 1.367 . S
C540 C548 1.378 . S
C541 C540 1.367 . S
C541 C549 1.433 . S
C542 H538 0.929 . S
C542 C544 1.378 . S
C542 C546 1.350 . S
C543 C546 1.463 . S
C543 C548 1.350 . S
C543 N551 1.427 . S
C544 H535 0.930 . S
C544 C542 1.378 . S
C544 C545 1.367 . S
C545 C544 1.367 . S
C545 C547 1.433 . S
C546 C542 1.350 . S
C546 C543 1.463 . S
C546 N550 1.427 . S
C547 H537 0.929 . S
C547 C545 1.433 . S
C547 N550 1.384 . S
C548 H539 0.929 . S
C548 C540 1.378 . S
C548 C543 1.350 . S
C549 H536 0.929 . S
C549 C541 1.433 . S
C549 N551 1.384 . S
N550 C546 1.427 . S
N550 C547 1.384 . S
N551 C543 1.427 . S
N551 C549 1.384 . S
H552 C558 0.930 . S
H553 C562 0.930 . S
H554 C567 0.929 . S
H555 C565 0.929 . S
H556 C560 0.929 . S
H557 C566 0.929 . S
C558 H552 0.930 . S
C558 C559 1.367 . S
C558 C566 1.378 . S
C559 C558 1.367 . S
C559 C567 1.433 . S
C560 H556 0.929 . S
C560 C562 1.378 . S
C560 C564 1.350 . S
C561 C564 1.463 . S
C561 C566 1.350 . S
C561 N569 1.427 . S
C562 H553 0.930 . S
C562 C560 1.378 . S
C562 C563 1.367 . S
C563 C562 1.367 . S
C563 C565 1.433 . S
C564 C560 1.350 . S
C564 C561 1.463 . S
C564 N568 1.427 . S
C565 H555 0.929 . S
C565 C563 1.433 . S
C565 N568 1.384 . S
C566 H557 0.929 . S
C566 C558 1.378 . S
C566 C561 1.350 . S
C567 H554 0.929 . S
C567 C559 1.433 . S
C567 N569 1.384 . S
N568 C564 1.427 . S
N568 C565 1.384 . S
N569 C561 1.427 . S
N569 C567 1.384 . S
H570 C576 0.930 . S
H571 C580 0.930 . S
H572 C585 0.929 . S
H573 C583 0.929 . S
H574 C578 0.929 . S
H575 C584 0.929 . S
C576 H570 0.930 . S
C576 C577 1.367 . S
C576 C584 1.378 . S
C577 C576 1.367 . S
C577 C585 1.433 . S
C578 H574 0.929 . S
C578 C580 1.378 . S
C578 C582 1.350 . S
C579 C582 1.463 . S
C579 C584 1.350 . S
C579 N587 1.427 . S
C580 H571 0.930 . S
C580 C578 1.378 . S
C580 C581 1.367 . S
C581 C580 1.367 . S
C581 C583 1.433 . S
C582 C578 1.350 . S
C582 C579 1.463 . S
C582 N586 1.427 . S
C583 H573 0.929 . S
C583 C581 1.433 . S
C583 N586 1.384 . S
C584 H575 0.929 . S
C584 C576 1.378 . S
C584 C579 1.350 . S
C585 H572 0.929 . S
C585 C577 1.433 . S
C585 N587 1.384 . S
N586 C582 1.427 . S
N586 C583 1.384 . S
N587 C579 1.427 . S
N587 C585 1.384 . S
H588 C594 0.930 . S
H589 C598 0.930 . S
H590 C603 0.929 . S
H591 C601 0.929 . S
H592 C596 0.929 . S
H593 C602 0.929 . S
C594 H588 0.930 . S
C594 C595 1.367 . S
C594 C602 1.378 . S
C595 C594 1.367 . S
C595 C603 1.433 . S
C596 H592 0.929 . S
C596 C598 1.378 . S
C596 C600 1.350 . S
C597 C600 1.463 . S
C597 C602 1.350 . S
C597 N605 1.427 . S
C598 H589 0.930 . S
C598 C596 1.378 . S
C598 C599 1.367 . S
C599 C598 1.367 . S
C599 C601 1.433 . S
C600 C596 1.350 . S
C600 C597 1.463 . S
C600 N604 1.427 . S
C601 H591 0.929 . S
C601 C599 1.433 . S
C601 N604 1.384 . S
C602 H593 0.929 . S
C602 C594 1.378 . S
C602 C597 1.350 . S
C603 H590 0.929 . S
C603 C595 1.433 . S
C603 N605 1.384 . S
N604 C600 1.427 . S
N604 C601 1.384 . S
N605 C597 1.427 . S
N605 C603 1.384 . S
H606 C612 0.930 . S
H607 C616 0.930 . S
H608 C621 0.929 . S
H609 C619 0.929 . S
H610 C614 0.929 . S
H611 C620 0.929 . S
C612 H606 0.930 . S
C612 C613 1.367 . S
C612 C620 1.378 . S
C613 C612 1.367 . S
C613 C621 1.433 . S
C614 H610 0.929 . S
C614 C616 1.378 . S
C614 C618 1.350 . S
C615 C618 1.463 . S
C615 C620 1.350 . S
C615 N623 1.427 . S
C616 H607 0.930 . S
C616 C614 1.378 . S
C616 C617 1.367 1_554 S
C617 C616 1.367 1_556 S
C617 C619 1.433 . S
C618 C614 1.350 . S
C618 C615 1.463 . S
C618 N622 1.427 1_554 S
C619 H609 0.929 . S
C619 C617 1.433 . S
C619 N622 1.384 . S
C620 H611 0.929 . S
C620 C612 1.378 . S
C620 C615 1.350 . S
C621 H608 0.929 . S
C621 C613 1.433 . S
C621 N623 1.384 . S
N622 C618 1.427 1_556 S
N622 C619 1.384 . S
N623 C615 1.427 . S
N623 C621 1.384 . S
H624 C630 0.930 . S
H625 C634 0.930 . S
H626 C639 0.929 . S
H627 C637 0.929 . S
H628 C632 0.929 . S
H629 C638 0.929 . S
C630 H624 0.930 . S
C630 C631 1.367 . S
C630 C638 1.378 . S
C631 C630 1.367 . S
C631 C639 1.433 . S
C632 H628 0.929 . S
C632 C634 1.378 . S
C632 C636 1.350 . S
C633 C636 1.463 . S
C633 C638 1.350 . S
C633 N641 1.427 . S
C634 H625 0.930 . S
C634 C632 1.378 . S
C634 C635 1.367 . S
C635 C634 1.367 . S
C635 C637 1.433 . S
C636 C632 1.350 . S
C636 C633 1.463 . S
C636 N640 1.427 . S
C637 H627 0.929 . S
C637 C635 1.433 . S
C637 N640 1.384 . S
C638 H629 0.929 . S
C638 C630 1.378 . S
C638 C633 1.350 . S
C639 H626 0.929 . S
C639 C631 1.433 . S
C639 N641 1.384 . S
N640 C636 1.427 . S
N640 C637 1.384 . S
N641 C633 1.427 . S
N641 C639 1.384 . S
C221 C196 1.594 . S
C217 C19 1.503 . S
C235 C40 1.493 . S
C239 C137 1.592 . S
C253 C51 1.494 . S
C257 C140 1.589 . S
C271 C72 1.499 . S
C275 C154 1.597 . S
C293 C179 1.590 . S
C289 C103 1.495 . S
C307 C114 1.486 . S
C311 C182 1.581 . S
C325 C30 1.470 . S
C329 C151 1.577 . S
C343 C61 1.497 . S
C347 C165 1.579 . S
C361 C82 1.487 . S
C365 C168 1.564 . S
C383 C193 1.571 . S
C379 C93 1.454 1_554 S
C401 C207 1.579 . S
C397 C124 1.484 . S
C419 C126 1.569 . S
C415 C9 1.482 . S
C433 C17 1.420 . S
C437 C149 1.509 . S
C451 C38 1.420 . S
C455 C163 1.518 . S
C473 C173 1.515 . S
C469 C54 1.415 . S
C487 C75 1.432 . S
C491 C191 1.505 . S
C509 C205 1.514 . S
C505 C101 1.430 . S
C527 C131 1.517 . S
C523 C117 1.426 . S
C545 C201 1.538 . S
C541 C33 1.446 . S
C559 C59 1.427 . S
C563 C135 1.526 . S
C581 C145 1.534 . S
C577 C80 1.440 . S
C595 C96 1.429 . S
C599 C159 1.539 . S
C613 C122 1.444 . S
C617 C177 1.524 . S
C631 C12 1.431 . S
C635 C187 1.532 . S
