# Generated by pormake.
# Topology ssa, (4,4)-cn, num edge types: 1
# Building blocks:
#     Node 0, Type 0, BuildingBlock: NAWXER_clean_sbu_0, # of connection points: 4
#     Node 1, Type 0, BuildingBlock: NAWXER_clean_sbu_0, # of connection points: 4
#     Node 2, Type 0, BuildingBlock: NAWXER_clean_sbu_0, # of connection points: 4
#     Node 3, Type 0, BuildingBlock: NAWXER_clean_sbu_0, # of connection points: 4
#     Node 4, Type 0, BuildingBlock: NAWXER_clean_sbu_0, # of connection points: 4
#     Node 5, Type 0, BuildingBlock: NAWXER_clean_sbu_0, # of connection points: 4
#     Node 6, Type 1, BuildingBlock: AZAVOO_clean_linker_0, # of connection points: 4
#     Node 7, Type 1, BuildingBlock: AZAVOO_clean_linker_0, # of connection points: 4
#     Node 8, Type 1, BuildingBlock: AZAVOO_clean_linker_0, # of connection points: 4
#     Node 9, Type 1, BuildingBlock: AZAVOO_clean_linker_0, # of connection points: 4
#     Node 10, Type 1, BuildingBlock: AZAVOO_clean_linker_0, # of connection points: 4
#     Node 11, Type 1, BuildingBlock: AZAVOO_clean_linker_0, # of connection points: 4
#     Edge 12, Type (0, 1), BuildingBlock: AJUNOK_clean_linker_0, # of connection points: 2
#     Edge 13, Type (0, 1), BuildingBlock: AJUNOK_clean_linker_0, # of connection points: 2
#     Edge 14, Type (0, 1), BuildingBlock: AJUNOK_clean_linker_0, # of connection points: 2
#     Edge 15, Type (0, 1), BuildingBlock: AJUNOK_clean_linker_0, # of connection points: 2
#     Edge 16, Type (0, 1), BuildingBlock: AJUNOK_clean_linker_0, # of connection points: 2
#     Edge 17, Type (0, 1), BuildingBlock: AJUNOK_clean_linker_0, # of connection points: 2
#     Edge 18, Type (0, 1), BuildingBlock: AJUNOK_clean_linker_0, # of connection points: 2
#     Edge 19, Type (0, 1), BuildingBlock: AJUNOK_clean_linker_0, # of connection points: 2
#     Edge 20, Type (0, 1), BuildingBlock: AJUNOK_clean_linker_0, # of connection points: 2
#     Edge 21, Type (0, 1), BuildingBlock: AJUNOK_clean_linker_0, # of connection points: 2
#     Edge 22, Type (0, 1), BuildingBlock: AJUNOK_clean_linker_0, # of connection points: 2
#     Edge 23, Type (0, 1), BuildingBlock: AJUNOK_clean_linker_0, # of connection points: 2
#     Edge 24, Type (0, 1), BuildingBlock: AJUNOK_clean_linker_0, # of connection points: 2
#     Edge 25, Type (0, 1), BuildingBlock: AJUNOK_clean_linker_0, # of connection points: 2
#     Edge 26, Type (0, 1), BuildingBlock: AJUNOK_clean_linker_0, # of connection points: 2
#     Edge 27, Type (0, 1), BuildingBlock: AJUNOK_clean_linker_0, # of connection points: 2
#     Edge 28, Type (0, 1), BuildingBlock: AJUNOK_clean_linker_0, # of connection points: 2
#     Edge 29, Type (0, 1), BuildingBlock: AJUNOK_clean_linker_0, # of connection points: 2
#     Edge 30, Type (0, 1), BuildingBlock: AJUNOK_clean_linker_0, # of connection points: 2
#     Edge 31, Type (0, 1), BuildingBlock: AJUNOK_clean_linker_0, # of connection points: 2
#     Edge 32, Type (0, 1), BuildingBlock: AJUNOK_clean_linker_0, # of connection points: 2
#     Edge 33, Type (0, 1), BuildingBlock: AJUNOK_clean_linker_0, # of connection points: 2
#     Edge 34, Type (0, 1), BuildingBlock: AJUNOK_clean_linker_0, # of connection points: 2
#     Edge 35, Type (0, 1), BuildingBlock: AJUNOK_clean_linker_0, # of connection points: 2
# Relax obj value: 0.094
# Max RMSD: 0.237
# Mean RMSD: 0.131
data_MOF--net-ssa--node1-NAWXER_clean_sbu_0--node2-AZAVOO_clean_linker_0--edge1-AJUNOK_clean_linker_0
_symmetry_space_group_name_H-M    P1
_symmetry_Int_Tables_number       1
_symmetry_cell_setting            triclinic
loop_
_symmetry_equiv_pos_as_xyz
'x, y, z'
_cell_length_a     37.906912
_cell_length_b     38.271502
_cell_length_c     35.810003
_cell_angle_alpha  89.766188
_cell_angle_beta   93.323267
_cell_angle_gamma 120.24731
loop_
_atom_site_label
_atom_site_type_symbol
_atom_site_fract_x
_atom_site_fract_y
_atom_site_fract_z
_atom_type_partial_charge
C0 C 0.16678 0.6284 0.03782 0.0
C1 C 0.10512 0.50678 0.9574 0.0
O2 O 0.13472 0.59866 0.05028 0.0
Zn3 Zn 0.09077 0.53778 0.03507 0.0
O4 O 0.17947 0.62451 0.00687 0.0
Zn5 Zn 0.13605 0.56888 0.99563 0.0
O6 O 0.0819 0.57344 0.98764 0.0
O7 O 0.04004 0.53794 0.03092 0.0
O8 O 0.13475 0.54125 0.94969 0.0
O9 O 0.087 0.50231 0.98765 0.0
O10 O 0.09995 0.50973 0.07542 0.0
O11 O 0.15054 0.53655 0.0373 0.0
C12 C 0.04777 0.56042 0.00281 0.0
C13 C 0.13427 0.51559 0.06593 0.0
C14 C 0.57904 0.02728 0.6042 0.0
C15 C 0.61285 0.94656 0.52655 0.0
O16 O 0.56963 0.99061 0.60746 0.0
Zn17 Zn 0.59606 0.98698 0.56506 0.0
O18 O 0.59987 0.04746 0.57684 0.0
Zn19 Zn 0.62663 0.03659 0.52988 0.0
O20 O 0.59882 0.04417 0.48679 0.0
O21 O 0.5592 0.98986 0.51832 0.0
O22 O 0.62616 0.98223 0.51409 0.0
O23 O 0.59413 0.93651 0.55648 0.0
O24 O 0.65974 0.02715 0.58053 0.0
O25 O 0.68401 0.07512 0.53904 0.0
C26 C 0.56409 0.01307 0.49074 0.0
C27 C 0.68978 0.05928 0.56827 0.0
C28 C 0.56155 0.42865 0.06068 0.0
C29 C 0.63828 0.53615 0.15466 0.0
O30 O 0.5581 0.45988 0.05468 0.0
Zn31 Zn 0.57792 0.51752 0.08121 0.0
O32 O 0.58069 0.42736 0.09051 0.0
Zn33 Zn 0.59754 0.48081 0.10992 0.0
O34 O 0.54249 0.47509 0.12875 0.0
O35 O 0.52793 0.51523 0.09566 0.0
O36 O 0.63382 0.50094 0.15466 0.0
O37 O 0.61948 0.54547 0.12923 0.0
O38 O 0.60903 0.55298 0.04195 0.0
O39 O 0.63597 0.51821 0.06701 0.0
C40 C 0.51913 0.48976 0.12146 0.0
C41 C 0.63712 0.54391 0.04325 0.0
C42 C 0.10908 0.57202 0.53201 0.0
C43 C 0.04136 0.45195 0.60624 0.0
O44 O 0.12364 0.56335 0.56105 0.0
Zn45 Zn 0.07516 0.51305 0.57059 0.0
O46 O 0.07202 0.54823 0.51968 0.0
Zn47 Zn 0.02165 0.49118 0.53391 0.0
O48 O 0.97991 0.50392 0.54477 0.0
O49 O 0.03194 0.52987 0.58695 0.0
O50 O 0.01837 0.45226 0.57867 0.0
O51 O 0.07736 0.48199 0.61209 0.0
O52 O 0.07145 0.47609 0.52417 0.0
O53 O 0.01432 0.45804 0.48984 0.0
C54 C 0.99686 0.52435 0.57499 0.0
C55 C 0.04723 0.45705 0.49566 0.0
C56 C 0.66447 0.02034 0.13984 0.0
C57 C 0.61596 0.10434 0.07927 0.0
O58 O 0.67367 0.05594 0.14987 0.0
Zn59 Zn 0.63993 0.06289 0.1111 0.0
O60 O 0.63881 0.0026 0.11178 0.0
Zn61 Zn 0.60257 0.01494 0.07171 0.0
O62 O 0.62297 0.00985 0.02533 0.0
O63 O 0.66839 0.06161 0.06129 0.0
O64 O 0.59989 0.06894 0.06407 0.0
O65 O 0.64144 0.11433 0.10743 0.0
O66 O 0.57914 0.02186 0.12722 0.0
O67 O 0.54749 0.97552 0.08205 0.0
C68 C 0.65883 0.04014 0.03098 0.0
C69 C 0.54702 0.98993 0.11379 0.0
C70 C 0.57496 0.55568 0.64578 0.0
C71 C 0.47508 0.47681 0.54429 0.0
O72 O 0.53878 0.54969 0.64135 0.0
Zn73 Zn 0.52359 0.51368 0.59795 0.0
O74 O 0.58719 0.538 0.62399 0.0
Zn75 Zn 0.56406 0.49692 0.57631 0.0
O76 O 0.60336 0.5293 0.54073 0.0
O77 O 0.56505 0.55402 0.55796 0.0
O78 O 0.50798 0.47526 0.54302 0.0
O79 O 0.47072 0.49435 0.57218 0.0
O80 O 0.52142 0.46206 0.62374 0.0
O81 O 0.56407 0.44965 0.59548 0.0
C82 C 0.59379 0.55675 0.53863 0.0
C83 C 0.53882 0.441 0.62058 0.0
H84 H 0.25549 0.43816 0.54955 0.0
H85 H 0.00803 0.34883 0.1808 0.0
H86 H 0.34042 0.49256 0.35082 0.0
H87 H 0.38836 0.50375 0.40436 0.0
H88 H 0.35477 0.37803 0.39816 0.0
H89 H 0.30687 0.36703 0.34411 0.0
H90 H 0.26082 0.47183 0.38987 0.0
H91 H 0.26179 0.46962 0.45824 0.0
H92 H 0.23982 0.34733 0.45225 0.0
H93 H 0.23837 0.3498 0.38386 0.0
H94 H 0.19509 0.46765 0.32799 0.0
H95 H 0.14518 0.46948 0.36691 0.0
H96 H 0.10735 0.34825 0.40213 0.0
H97 H 0.15684 0.34608 0.36196 0.0
H98 H 0.19748 0.47003 0.25543 0.0
H99 H 0.13519 0.46153 0.22229 0.0
H100 H 0.07953 0.33169 0.2289 0.0
H101 H 0.14161 0.34064 0.2629 0.0
H102 H 0.28848 0.49568 0.23766 0.0
H103 H 0.26885 0.52017 0.18176 0.0
H104 H 0.18507 0.39706 0.14379 0.0
H105 H 0.20522 0.37251 0.19977 0.0
H106 H 0.35465 0.49544 0.27941 0.0
H107 H 0.41168 0.51067 0.24036 0.0
H108 H 0.346 0.38787 0.19589 0.0
H109 H 0.2894 0.37279 0.23518 0.0
O110 O 0.25521 0.43846 0.52251 0.0
O111 O 0.24736 0.37695 0.51811 0.0
O112 O 0.06324 0.41998 0.19093 0.0
O113 O 0.03275 0.35303 0.19439 0.0
C114 C 0.28268 0.42019 0.32108 0.0
C115 C 0.24796 0.41215 0.34053 0.0
C116 C 0.21266 0.40793 0.32087 0.0
C117 C 0.21166 0.41085 0.28169 0.0
C118 C 0.24663 0.41982 0.26221 0.0
C119 C 0.28212 0.42408 0.2818 0.0
C120 C 0.32048 0.42909 0.34343 0.0
C121 C 0.34475 0.46785 0.3599 0.0
C122 C 0.37152 0.47402 0.39083 0.0
C123 C 0.37431 0.44147 0.40578 0.0
C124 C 0.35287 0.40348 0.38717 0.0
C125 C 0.32593 0.39728 0.35614 0.0
C126 C 0.24955 0.41099 0.38204 0.0
C127 C 0.25621 0.44461 0.40344 0.0
C128 C 0.25672 0.44324 0.44244 0.0
C129 C 0.25078 0.40825 0.46071 0.0
C130 C 0.24447 0.37473 0.43908 0.0
C131 C 0.24371 0.37607 0.40005 0.0
C132 C 0.17929 0.40658 0.34182 0.0
C133 C 0.17518 0.44098 0.34315 0.0
C134 C 0.14674 0.44202 0.36539 0.0
C135 C 0.12243 0.40896 0.38732 0.0
C136 C 0.12579 0.37407 0.38537 0.0
C137 C 0.15394 0.37281 0.36257 0.0
C138 C 0.17407 0.40591 0.26131 0.0
C139 C 0.17181 0.43979 0.24963 0.0
C140 C 0.13628 0.43486 0.23063 0.0
C141 C 0.10259 0.39592 0.22254 0.0
C142 C 0.10497 0.36208 0.23451 0.0
C143 C 0.14036 0.36707 0.2539 0.0
C144 C 0.24793 0.43235 0.22291 0.0
C145 C 0.26775 0.47392 0.21626 0.0
C146 C 0.25627 0.4879 0.18453 0.0
C147 C 0.22512 0.46041 0.15901 0.0
C148 C 0.20933 0.41873 0.16308 0.0
C149 C 0.22087 0.4047 0.19494 0.0
C150 C 0.31822 0.43276 0.26073 0.0
C151 C 0.35295 0.47165 0.26179 0.0
C152 C 0.38523 0.48042 0.23919 0.0
C153 C 0.38341 0.45035 0.21534 0.0
C154 C 0.34858 0.41143 0.21447 0.0
C155 C 0.31627 0.40277 0.23687 0.0
C156 C 0.25101 0.40679 0.50214 0.0
C157 C 0.06509 0.39055 0.2017 0.0
H158 H 0.92226 0.28249 0.05589 0.0
H159 H 0.70699 0.9451 0.75932 0.0
H160 H 0.92256 0.30592 0.83462 0.0
H161 H 0.97422 0.37376 0.85827 0.0
H162 H 0.06045 0.33265 0.87975 0.0
H163 H 0.00887 0.26486 0.85463 0.0
H164 H 0.86872 0.24156 0.8976 0.0
H165 H 0.8824 0.26197 0.96401 0.0
H166 H 0.97586 0.22856 0.97213 0.0
H167 H 0.96163 0.20806 0.90572 0.0
H168 H 0.79694 0.16403 0.84724 0.0
H169 H 0.74465 0.12436 0.89067 0.0
H170 H 0.82572 0.08949 0.94668 0.0
H171 H 0.87806 0.12879 0.90219 0.0
H172 H 0.78997 0.14553 0.77311 0.0
H173 H 0.73214 0.07911 0.75366 0.0
H174 H 0.80104 0.02313 0.79432 0.0
H175 H 0.85896 0.08991 0.81313 0.0
H176 H 0.84436 0.21667 0.73683 0.0
H177 H 0.80738 0.18766 0.67685 0.0
H178 H 0.86151 0.11192 0.67309 0.0
H179 H 0.89876 0.1414 0.73368 0.0
H180 H 0.8962 0.28157 0.76676 0.0
H181 H 0.92787 0.33411 0.72071 0.0
H182 H 0.02149 0.30282 0.70957 0.0
H183 H 0.98916 0.24955 0.75585 0.0
O184 O 0.91725 0.27411 0.02973 0.0
O185 O 0.96511 0.25667 0.03237 0.0
O186 O 0.69467 0.00191 0.74795 0.0
O187 O 0.72961 0.97179 0.76634 0.0
C188 C 0.92998 0.23938 0.83015 0.0
C189 C 0.90606 0.21141 0.85678 0.0
C190 C 0.87212 0.17373 0.84474 0.0
C191 C 0.86392 0.16288 0.80628 0.0
C192 C 0.88752 0.19112 0.77963 0.0
C193 C 0.91992 0.22968 0.79161 0.0
C194 C 0.96222 0.28074 0.84262 0.0
C195 C 0.95294 0.31183 0.84348 0.0
C196 C 0.98242 0.35048 0.85679 0.0
C197 C 0.02136 0.35836 0.87014 0.0
C198 C 0.03075 0.32726 0.86906 0.0
C199 C 0.00141 0.28871 0.85499 0.0
C200 C 0.91416 0.22331 0.89705 0.0
C201 C 0.89204 0.23859 0.91387 0.0
C202 C 0.89996 0.25026 0.95175 0.0
C203 C 0.93024 0.2469 0.97339 0.0
C204 C 0.95234 0.23153 0.95629 0.0
C205 C 0.94431 0.21981 0.91841 0.0
C206 C 0.84103 0.14882 0.87132 0.0
C207 C 0.80318 0.14721 0.86842 0.0
C208 C 0.77334 0.12448 0.89307 0.0
C209 C 0.78102 0.10335 0.92143 0.0
C210 C 0.81909 0.10524 0.92468 0.0
C211 C 0.8489 0.12767 0.89952 0.0
C212 C 0.82887 0.12256 0.79402 0.0
C213 C 0.79273 0.11895 0.77732 0.0
C214 C 0.75962 0.08094 0.76649 0.0
C215 C 0.76196 0.04578 0.77245 0.0
C216 C 0.79824 0.04957 0.78927 0.0
C217 C 0.83136 0.08765 0.80004 0.0
C218 C 0.87457 0.18146 0.73942 0.0
C219 C 0.84996 0.19538 0.72226 0.0
C220 C 0.8286 0.17854 0.68805 0.0
C221 C 0.83121 0.14719 0.67063 0.0
C222 C 0.85861 0.1357 0.68627 0.0
C223 C 0.88009 0.15267 0.7206 0.0
C224 C 0.94009 0.26149 0.76403 0.0
C225 C 0.92338 0.28585 0.75422 0.0
C226 C 0.94144 0.31575 0.72806 0.0
C227 C 0.97668 0.32193 0.71147 0.0
C228 C 0.99419 0.29831 0.72203 0.0
C229 C 0.97578 0.26798 0.74815 0.0
C230 C 0.9387 0.25947 0.01359 0.0
C231 C 0.72665 0.00527 0.76147 0.0
H232 H 0.74024 0.73703 0.09066 0.0
H233 H 0.72899 0.03866 0.38421 0.0
H234 H 0.64645 0.6959 0.30607 0.0
H235 H 0.63899 0.63491 0.27709 0.0
H236 H 0.76847 0.69725 0.26133 0.0
H237 H 0.77641 0.75807 0.2927 0.0
H238 H 0.67315 0.74389 0.23157 0.0
H239 H 0.68968 0.73185 0.16968 0.0
H240 H 0.8135 0.83145 0.1904 0.0
H241 H 0.79673 0.8427 0.25258 0.0
H242 H 0.66759 0.81893 0.23485 0.0
H243 H 0.66097 0.86762 0.19535 0.0
H244 H 0.77511 0.96399 0.24583 0.0
H245 H 0.78145 0.91475 0.28566 0.0
H246 H 0.64986 0.85442 0.30536 0.0
H247 H 0.64543 0.91509 0.31674 0.0
H248 H 0.76084 0.9684 0.38251 0.0
H249 H 0.76526 0.90787 0.37024 0.0
H250 H 0.62099 0.78563 0.36204 0.0
H251 H 0.59302 0.80876 0.4095 0.0
H252 H 0.71137 0.87044 0.46997 0.0
H253 H 0.73891 0.84569 0.42295 0.0
H254 H 0.62451 0.72304 0.3654 0.0
H255 H 0.60195 0.67179 0.41329 0.0
H256 H 0.72684 0.70126 0.43833 0.0
H257 H 0.74958 0.75355 0.39055 0.0
O258 O 0.73433 0.74247 0.1152 0.0
O259 O 0.7973 0.79465 0.12677 0.0
O260 O 0.67224 0.98677 0.34301 0.0
O261 O 0.72989 0.01427 0.37938 0.0
C262 C 0.7145 0.77019 0.31223 0.0
C263 C 0.72421 0.80018 0.28486 0.0
C264 C 0.72253 0.83534 0.2931 0.0
C265 C 0.71144 0.84072 0.32863 0.0
C266 C 0.70046 0.81035 0.35536 0.0
C267 C 0.70219 0.7752 0.34742 0.0
C268 C 0.71205 0.73142 0.30194 0.0
C269 C 0.67366 0.69591 0.29839 0.0
C270 C 0.66939 0.66108 0.28167 0.0
C271 C 0.70325 0.66145 0.2674 0.0
C272 C 0.74209 0.69624 0.27264 0.0
C273 C 0.74657 0.73088 0.29035 0.0
C274 C 0.73389 0.79386 0.24672 0.0
C275 C 0.70388 0.76294 0.22276 0.0
C276 C 0.71338 0.75621 0.18738 0.0
C277 C 0.75296 0.7806 0.17513 0.0
C278 C 0.78276 0.81204 0.199 0.0
C279 C 0.77326 0.8186 0.23448 0.0
C280 C 0.72503 0.86325 0.26305 0.0
C281 C 0.69194 0.85029 0.23647 0.0
C282 C 0.68807 0.87822 0.21412 0.0
C283 C 0.71716 0.9197 0.21802 0.0
C284 C 0.75182 0.93231 0.24282 0.0
C285 C 0.75577 0.90422 0.26516 0.0
C286 C 0.70797 0.87692 0.33685 0.0
C287 C 0.67415 0.87929 0.32216 0.0
C288 C 0.67171 0.91395 0.32871 0.0
C289 C 0.70287 0.94666 0.35046 0.0
C290 C 0.73637 0.94381 0.3656 0.0
C291 C 0.73894 0.90927 0.35874 0.0
C292 C 0.68185 0.8138 0.38929 0.0
C293 C 0.64034 0.80233 0.38654 0.0
C294 C 0.62455 0.81591 0.41337 0.0
C295 C 0.65034 0.84194 0.44281 0.0
C296 C 0.69095 0.85028 0.4475 0.0
C297 C 0.70667 0.8362 0.42078 0.0
C298 C 0.68879 0.74276 0.37521 0.0
C299 C 0.64713 0.71893 0.38154 0.0
C300 C 0.63427 0.68956 0.40869 0.0
C301 C 0.66281 0.6832 0.42979 0.0
C302 C 0.70439 0.70589 0.42249 0.0
C303 C 0.71734 0.73568 0.3954 0.0
C304 C 0.76302 0.77315 0.13761 0.0
C305 C 0.70059 0.98368 0.35731 0.0
H306 H 0.76555 0.6381 0.56772 0.0
H307 H 0.04445 0.54694 0.81176 0.0
H308 H 0.8014 0.6723 0.78157 0.0
H309 H 0.74073 0.67448 0.7574 0.0
H310 H 0.66686 0.54545 0.77143 0.0
H311 H 0.72701 0.54417 0.79756 0.0
H312 H 0.85457 0.66409 0.71357 0.0
H313 H 0.82605 0.66496 0.65063 0.0
H314 H 0.72556 0.54357 0.66435 0.0
H315 H 0.75474 0.54291 0.7269 0.0
H316 H 0.93217 0.65101 0.73693 0.0
H317 H 0.96454 0.63705 0.68612 0.0
H318 H 0.85842 0.51754 0.66977 0.0
H319 H 0.82624 0.53187 0.72017 0.0
H320 H 0.95273 0.65602 0.82433 0.0
H321 H 0.01476 0.65124 0.83136 0.0
H322 H 0.94466 0.52557 0.7945 0.0
H323 H 0.88282 0.53075 0.78779 0.0
H324 H 0.90391 0.65513 0.88683 0.0
H325 H 0.94751 0.64952 0.93713 0.0
H326 H 0.8905 0.52147 0.91186 0.0
H327 H 0.84691 0.52723 0.86211 0.0
H328 H 0.808 0.6575 0.86355 0.0
H329 H 0.76644 0.64886 0.91692 0.0
H330 H 0.73944 0.5254 0.92578 0.0
H331 H 0.78004 0.53384 0.87229 0.0
O332 O 0.7762 0.63723 0.59272 0.0
O333 O 0.72466 0.57522 0.6016 0.0
O334 O 0.05491 0.61418 0.82843 0.0
O335 O 0.02032 0.54954 0.80946 0.0
C336 C 0.80565 0.60457 0.79512 0.0
C337 C 0.8244 0.60275 0.76263 0.0
C338 C 0.85931 0.59855 0.76596 0.0
C339 C 0.87582 0.59684 0.80177 0.0
C340 C 0.85604 0.59683 0.8341 0.0
C341 C 0.82068 0.6004 0.83089 0.0
C342 C 0.76848 0.60796 0.79068 0.0
C343 C 0.77173 0.6449 0.78082 0.0
C344 C 0.73717 0.646 0.76676 0.0
C345 C 0.69929 0.60993 0.76136 0.0
C346 C 0.69553 0.5738 0.7752 0.0
C347 C 0.72991 0.5729 0.78998 0.0
C348 C 0.80653 0.6036 0.72484 0.0
C349 C 0.82637 0.63778 0.7029 0.0
C350 C 0.81002 0.63817 0.66699 0.0
C351 C 0.77356 0.60429 0.65242 0.0
C352 C 0.75368 0.57015 0.67468 0.0
C353 C 0.77016 0.56977 0.71049 0.0
C354 C 0.87679 0.59253 0.73209 0.0
C355 C 0.91565 0.62216 0.72182 0.0
C356 C 0.93409 0.61409 0.69294 0.0
C357 C 0.91389 0.57631 0.67376 0.0
C358 C 0.87438 0.54723 0.68338 0.0
C359 C 0.85601 0.55531 0.71225 0.0
C360 C 0.9134 0.59377 0.8055 0.0
C361 C 0.95088 0.6275 0.81782 0.0
C362 C 0.98623 0.62468 0.82179 0.0
C363 C 0.98466 0.58799 0.81351 0.0
C364 C 0.94695 0.55425 0.80112 0.0
C365 C 0.91162 0.55713 0.79716 0.0
C366 C 0.87244 0.59161 0.87088 0.0
C367 C 0.8997 0.62564 0.89327 0.0
C368 C 0.92478 0.62246 0.92164 0.0
C369 C 0.92276 0.58519 0.92779 0.0
C370 C 0.89257 0.55049 0.90774 0.0
C371 C 0.86763 0.55371 0.8794 0.0
C372 C 0.79754 0.59646 0.86433 0.0
C373 C 0.79324 0.62868 0.87717 0.0
C374 C 0.76952 0.62372 0.9075 0.0
C375 C 0.75026 0.58665 0.9257 0.0
C376 C 0.75466 0.55454 0.91273 0.0
C377 C 0.77791 0.55935 0.88227 0.0
C378 C 0.75657 0.60452 0.61408 0.0
C379 C 0.02214 0.58485 0.81766 0.0
H380 H 0.30057 0.87215 0.54817 0.0
H381 H 0.11833 0.54017 0.2487 0.0
H382 H 0.33308 0.9053 0.35164 0.0
H383 H 0.39197 0.96016 0.38776 0.0
H384 H 0.46631 0.90961 0.35843 0.0
H385 H 0.40754 0.85484 0.32293 0.0
H386 H 0.25448 0.82863 0.38921 0.0
H387 H 0.26325 0.84734 0.45578 0.0
H388 H 0.37485 0.84231 0.46501 0.0
H389 H 0.36557 0.82334 0.39849 0.0
H390 H 0.18835 0.73605 0.34723 0.0
H391 H 0.15014 0.68908 0.3956 0.0
H392 H 0.26267 0.70057 0.44463 0.0
H393 H 0.29944 0.74334 0.39368 0.0
H394 H 0.19228 0.7396 0.25829 0.0
H395 H 0.13861 0.67203 0.23602 0.0
H396 H 0.20496 0.62044 0.2926 0.0
H397 H 0.25868 0.68822 0.3142 0.0
H398 H 0.26033 0.81613 0.21678 0.0
H399 H 0.23786 0.78905 0.1523 0.0
H400 H 0.27482 0.70078 0.17493 0.0
H401 H 0.29772 0.72832 0.23905 0.0
H402 H 0.33893 0.8988 0.25899 0.0
H403 H 0.39026 0.94082 0.21493 0.0
H404 H 0.423 0.8485 0.20421 0.0
H405 H 0.3719 0.80685 0.24803 0.0
O406 O 0.29809 0.86542 0.52176 0.0
O407 O 0.35189 0.85667 0.5261 0.0
O408 O 0.10562 0.59514 0.22934 0.0
O409 O 0.13884 0.56719 0.25748 0.0
C410 C 0.32889 0.83748 0.32208 0.0
C411 C 0.30273 0.81156 0.34891 0.0
C412 C 0.27057 0.77231 0.33796 0.0
C413 C 0.26287 0.76001 0.29976 0.0
C414 C 0.2883 0.78648 0.2728 0.0
C415 C 0.32193 0.82468 0.28409 0.0
C416 C 0.366 0.87594 0.33496 0.0
C417 C 0.36245 0.90688 0.35206 0.0
C418 C 0.39594 0.938 0.37273 0.0
C419 C 0.43337 0.93865 0.3762 0.0
C420 C 0.43782 0.90986 0.35602 0.0
C421 C 0.40431 0.87861 0.33568 0.0
C422 C 0.30949 0.8249 0.38897 0.0
C423 C 0.28092 0.83183 0.40563 0.0
C424 C 0.286 0.84248 0.44365 0.0
C425 C 0.31969 0.8462 0.46574 0.0
C426 C 0.3485 0.83959 0.44882 0.0
C427 C 0.34343 0.82904 0.41078 0.0
C428 C 0.24679 0.74351 0.36708 0.0
C429 C 0.20457 0.72798 0.36819 0.0
C430 C 0.18295 0.70181 0.3964 0.0
C431 C 0.20346 0.69184 0.42478 0.0
C432 C 0.24578 0.70746 0.42333 0.0
C433 C 0.26699 0.73233 0.39443 0.0
C434 C 0.22928 0.71877 0.28795 0.0
C435 C 0.19508 0.71364 0.26592 0.0
C436 C 0.16449 0.67502 0.25325 0.0
C437 C 0.1675 0.6408 0.26254 0.0
C438 C 0.20166 0.6461 0.28495 0.0
C439 C 0.2323 0.68476 0.29747 0.0
C440 C 0.27999 0.77371 0.23264 0.0
C441 C 0.2643 0.79149 0.20752 0.0
C442 C 0.2515 0.77603 0.17085 0.0
C443 C 0.25434 0.74267 0.15888 0.0
C444 C 0.27254 0.72667 0.18342 0.0
C445 C 0.28526 0.74208 0.22006 0.0
C446 C 0.35167 0.84979 0.25654 0.0
C447 C 0.35714 0.8877 0.24697 0.0
C448 C 0.38643 0.91161 0.22199 0.0
C449 C 0.41059 0.89785 0.20636 0.0
C450 C 0.4045 0.8596 0.2156 0.0
C451 C 0.37542 0.83586 0.24059 0.0
C452 C 0.32437 0.85645 0.50633 0.0
C453 C 0.13537 0.59976 0.24875 0.0
H454 H 0.54949 0.2585 0.58169 0.0
H455 H 0.55381 0.00425 0.91169 0.0
H456 H 0.59357 0.31473 0.79356 0.0
H457 H 0.59405 0.36273 0.7481 0.0
H458 H 0.4621 0.30075 0.74374 0.0
H459 H 0.46188 0.25306 0.79008 0.0
H460 H 0.59033 0.25021 0.74033 0.0
H461 H 0.58559 0.25935 0.67287 0.0
H462 H 0.4541 0.20272 0.67496 0.0
H463 H 0.45932 0.19347 0.74236 0.0
H464 H 0.60439 0.18854 0.78433 0.0
H465 H 0.61274 0.14774 0.73684 0.0
H466 H 0.48213 0.0823 0.71067 0.0
H467 H 0.47395 0.12308 0.75852 0.0
H468 H 0.61176 0.19588 0.87346 0.0
H469 H 0.62749 0.14632 0.90097 0.0
H470 H 0.50538 0.05033 0.86626 0.0
H471 H 0.4898 0.10038 0.83944 0.0
H472 H 0.60135 0.26183 0.91227 0.0
H473 H 0.62018 0.24735 0.97459 0.0
H474 H 0.50741 0.13211 0.97004 0.0
H475 H 0.48792 0.14791 0.90912 0.0
H476 H 0.58557 0.32113 0.86386 0.0
H477 H 0.5863 0.36477 0.91413 0.0
H478 H 0.47359 0.26602 0.9509 0.0
H479 H 0.47204 0.22276 0.89961 0.0
O480 O 0.55063 0.25424 0.60829 0.0
O481 O 0.48349 0.22762 0.61137 0.0
O482 O 0.60995 0.07523 0.91981 0.0
O483 O 0.54848 0.02438 0.90061 0.0
C484 C 0.52771 0.24505 0.81193 0.0
C485 C 0.52831 0.21669 0.78718 0.0
C486 C 0.53429 0.18553 0.80126 0.0
C487 C 0.53953 0.18235 0.84011 0.0
C488 C 0.53699 0.20945 0.86514 0.0
C489 C 0.53093 0.24083 0.85106 0.0
C490 C 0.52773 0.2807 0.79552 0.0
C491 C 0.56484 0.3126 0.78415 0.0
C492 C 0.56503 0.33945 0.7576 0.0
C493 C 0.52806 0.33467 0.74169 0.0
C494 C 0.491 0.3049 0.75545 0.0
C495 C 0.49084 0.27798 0.78219 0.0
C496 C 0.52517 0.2212 0.74608 0.0
C497 C 0.56054 0.2396 0.72606 0.0
C498 C 0.55773 0.24483 0.68758 0.0
C499 C 0.51946 0.23178 0.66852 0.0
C500 C 0.48404 0.21315 0.68878 0.0
C501 C 0.48691 0.2078 0.72723 0.0
C502 C 0.53858 0.15847 0.77487 0.0
C503 C 0.57757 0.16498 0.76871 0.0
C504 C 0.58229 0.14193 0.74154 0.0
C505 C 0.54804 0.11193 0.72032 0.0
C506 C 0.50889 0.10492 0.72706 0.0
C507 C 0.5042 0.12815 0.75417 0.0
C508 C 0.54958 0.15172 0.85466 0.0
C509 C 0.58846 0.16412 0.87181 0.0
C510 C 0.59736 0.13576 0.88749 0.0
C511 C 0.56763 0.09435 0.88593 0.0
C512 C 0.52894 0.08197 0.868 0.0
C513 C 0.52 0.11044 0.85253 0.0
C514 C 0.54336 0.20579 0.90606 0.0
C515 C 0.5799 0.23434 0.92556 0.0
C516 C 0.59077 0.22584 0.96099 0.0
C517 C 0.56541 0.18853 0.97734 0.0
C518 C 0.52732 0.16152 0.95888 0.0
C519 C 0.51623 0.17031 0.92378 0.0
C520 C 0.52844 0.26894 0.87769 0.0
C521 C 0.56026 0.30929 0.88183 0.0
C522 C 0.56087 0.33401 0.91073 0.0
C523 C 0.53012 0.31846 0.9363 0.0
C524 C 0.49769 0.27846 0.93156 0.0
C525 C 0.4967 0.25395 0.90225 0.0
C526 C 0.5166 0.23768 0.6277 0.0
C527 C 0.57679 0.06421 0.90313 0.0
C528 C 0.16133 0.50667 0.12763 0.0
C529 C 0.15667 0.50022 0.08871 0.0
C530 C 0.18475 0.49471 0.14978 0.0
C531 C 0.20317 0.47477 0.13391 0.0
H532 H 0.14763 0.52194 0.14092 0.0
H533 H 0.18817 0.50076 0.17968 0.0
S534 S 0.19888 0.44967 0.03344 0.0
N535 N 0.17216 0.47288 0.03496 0.0
N536 N 0.21468 0.44847 0.07718 0.0
C537 C 0.19816 0.4675 0.09511 0.0
C538 C 0.17528 0.48077 0.07233 0.0
C539 C 0.75763 0.12074 0.58542 0.0
C540 C 0.72975 0.07941 0.59009 0.0
C541 C 0.79226 0.14213 0.61012 0.0
C542 C 0.80047 0.12283 0.64005 0.0
H543 H 0.75154 0.13729 0.56385 0.0
H544 H 0.81175 0.17439 0.60682 0.0
S545 S 0.73988 0.01399 0.66168 0.0
N546 N 0.71506 0.01909 0.62462 0.0
N547 N 0.77971 0.05944 0.6713 0.0
C548 C 0.77441 0.08097 0.64348 0.0
C549 C 0.73913 0.05922 0.61843 0.0
C550 C 0.68652 0.60719 0.17538 0.0
C551 C 0.66295 0.56632 0.1846 0.0
C552 C 0.70312 0.63788 0.20313 0.0
C553 C 0.69595 0.62868 0.24095 0.0
H554 H 0.6904 0.61561 0.14633 0.0
H555 H 0.71887 0.66909 0.19466 0.0
S556 S 0.63942 0.52639 0.27993 0.0
N557 N 0.63628 0.51801 0.23429 0.0
N558 N 0.66662 0.57603 0.28659 0.0
C559 C 0.67463 0.58789 0.25077 0.0
C560 C 0.65837 0.55654 0.22251 0.0
C561 C 0.99477 0.56033 0.63231 0.0
C562 C 0.9759 0.54003 0.5978 0.0
C563 C 0.97496 0.57295 0.65602 0.0
C564 C 0.93538 0.56587 0.64632 0.0
H565 H 0.02487 0.56581 0.64168 0.0
H566 H 0.9903 0.58723 0.68277 0.0
S567 S 0.87362 0.51737 0.55791 0.0
N568 N 0.91596 0.51566 0.55424 0.0
N569 N 0.87896 0.53979 0.59884 0.0
C570 C 0.91656 0.54686 0.61145 0.0
C571 C 0.93676 0.53394 0.58718 0.0
C572 C 0.47883 0.92971 0.12489 0.0
C573 C 0.51056 0.9688 0.13612 0.0
C574 C 0.44593 0.90745 0.14723 0.0
C575 C 0.44327 0.92355 0.18146 0.0
H576 H 0.47991 0.91559 0.09916 0.0
H577 H 0.42269 0.8771 0.13795 0.0
S578 S 0.51683 0.02515 0.22292 0.0
N579 N 0.53599 0.02336 0.18321 0.0
N580 N 0.47421 0.98116 0.22517 0.0
C581 C 0.47388 0.96304 0.19248 0.0
C582 C 0.50751 0.98573 0.16984 0.0
C583 C 0.50994 0.40599 0.68006 0.0
C584 C 0.53279 0.41015 0.64888 0.0
C585 C 0.50767 0.38083 0.70957 0.0
C586 C 0.52835 0.35903 0.70919 0.0
H587 H 0.49456 0.4232 0.68234 0.0
H588 H 0.49068 0.37942 0.73339 0.0
S589 S 0.58819 0.35511 0.63257 0.0
N590 N 0.57365 0.38729 0.61835 0.0
N591 N 0.56916 0.34003 0.67373 0.0
C592 C 0.54974 0.36139 0.67758 0.0
C593 C 0.552 0.38689 0.64746 0.0
C594 C 0.63097 0.89226 0.52397 0.0
C595 C 0.61897 0.91743 0.50541 0.0
C596 C 0.64048 0.86711 0.50366 0.0
C597 C 0.63717 0.86572 0.46432 0.0
H598 H 0.63445 0.89312 0.55425 0.0
H599 H 0.65085 0.84897 0.51871 0.0
S600 S 0.6042 0.92382 0.40296 0.0
N601 N 0.60249 0.93819 0.44589 0.0
N602 N 0.61979 0.89072 0.40771 0.0
C603 C 0.62387 0.88983 0.44562 0.0
C604 C 0.61489 0.91575 0.4662 0.0
C605 C 0.66429 0.57727 0.98251 0.0
C606 C 0.66929 0.55993 0.01574 0.0
C607 C 0.69161 0.58751 0.95401 0.0
C608 C 0.7248 0.5807 0.95773 0.0
H609 H 0.63821 0.58147 0.97776 0.0
H610 H 0.68573 0.59923 0.92828 0.0
S611 S 0.75518 0.54184 0.04105 0.0
N612 N 0.7129 0.54064 0.05206 0.0
N613 N 0.76374 0.55974 0.99848 0.0
C614 C 0.73146 0.56556 0.99151 0.0
C615 C 0.70387 0.55525 0.02052 0.0
C616 C 0.16878 0.60621 0.49337 0.0
C617 C 0.13571 0.60604 0.50914 0.0
C618 C 0.19068 0.63431 0.46647 0.0
C619 C 0.18083 0.66383 0.45492 0.0
H620 H 0.17647 0.58318 0.50048 0.0
H621 H 0.21463 0.63189 0.45375 0.0
S622 S 0.09943 0.67848 0.49191 0.0
N623 N 0.09508 0.63835 0.5134 0.0
N624 N 0.13792 0.69323 0.46468 0.0
C625 C 0.14887 0.66501 0.47209 0.0
C626 C 0.12591 0.63561 0.49877 0.0
C627 C 0.63317 0.15911 0.03449 0.0
C628 C 0.60705 0.13371 0.06111 0.0
C629 C 0.6205 0.1793 0.00922 0.0
C630 C 0.58123 0.17476 0.00975 0.0
H631 H 0.66239 0.16108 0.03142 0.0
H632 H 0.64054 0.19616 0.98742 0.0
S633 S 0.50388 0.11577 0.07795 0.0
N634 N 0.542 0.1076 0.08903 0.0
N635 N 0.51848 0.14674 0.0425 0.0
C636 C 0.55614 0.15177 0.03827 0.0
C637 C 0.56895 0.13086 0.06368 0.0
C638 C 0.45242 0.44571 0.4796 0.0
C639 C 0.44532 0.4628 0.51114 0.0
C640 C 0.42857 0.43766 0.44586 0.0
C641 C 0.39701 0.44672 0.44232 0.0
H642 H 0.47744 0.43965 0.4805 0.0
H643 H 0.43583 0.42566 0.42201 0.0
S644 S 0.36222 0.48678 0.51713 0.0
N645 N 0.40155 0.48491 0.53716 0.0
N646 N 0.35703 0.46981 0.4737 0.0
C647 C 0.38814 0.46179 0.47396 0.0
C648 C 0.41217 0.46977 0.50838 0.0
C649 C 0.0802 0.43368 0.94918 0.0
C650 C 0.09109 0.47095 0.93276 0.0
C651 C 0.06019 0.39753 0.92792 0.0
C652 C 0.04973 0.39736 0.88966 0.0
H653 H 0.08592 0.43232 0.97901 0.0
H654 H 0.05067 0.3693 0.94198 0.0
S655 S 0.07437 0.487 0.83277 0.0
N656 N 0.09285 0.50593 0.87552 0.0
N657 N 0.05414 0.43749 0.83551 0.0
C658 C 0.06218 0.43453 0.87248 0.0
C659 C 0.08327 0.47153 0.89406 0.0
C660 C 0.97588 0.54724 0.99544 0.0
C661 C 0.01705 0.57025 0.9865 0.0
C662 C 0.94559 0.55334 0.97754 0.0
C663 C 0.95549 0.58311 0.95055 0.0
H664 H 0.96665 0.5233 0.0154 0.0
H665 H 0.91404 0.53399 0.98417 0.0
S666 S 0.05883 0.65303 0.9185 0.0
N667 N 0.06624 0.62538 0.94999 0.0
N668 N 0.00928 0.63659 0.91644 0.0
C669 C 0.99666 0.60736 0.94239 0.0
C670 C 0.02744 0.60099 0.96034 0.0
C671 C 0.53852 0.00585 0.42385 0.0
C672 C 0.53032 0.001 0.46192 0.0
C673 C 0.50668 0.98757 0.39582 0.0
C674 C 0.46566 0.96467 0.40501 0.0
H675 H 0.5698 0.02164 0.41568 0.0
H676 H 0.51426 0.98992 0.36686 0.0
S677 S 0.4281 0.94706 0.50052 0.0
N678 N 0.47835 0.97463 0.50731 0.0
N679 N 0.41846 0.94076 0.45473 0.0
C680 C 0.45701 0.96198 0.44292 0.0
C681 C 0.4894 0.98001 0.47137 0.0
C682 C 0.54218 0.40707 0.99346 0.0
C683 C 0.54824 0.3974 0.03043 0.0
C684 C 0.53524 0.38087 0.96322 0.0
C685 C 0.5333 0.34368 0.96885 0.0
H686 H 0.54454 0.43592 0.98749 0.0
H687 H 0.53216 0.39008 0.93514 0.0
S688 S 0.54432 0.30244 0.05978 0.0
N689 N 0.54994 0.34691 0.07086 0.0
N690 N 0.53619 0.29736 0.01379 0.0
C691 C 0.53751 0.33269 0.00559 0.0
C692 C 0.54517 0.35963 0.03645 0.0
C693 C 0.05044 0.43695 0.43006 0.0
C694 C 0.06007 0.43715 0.46861 0.0
C695 C 0.06909 0.42562 0.40365 0.0
C696 C 0.09727 0.41332 0.41499 0.0
H697 H 0.03037 0.44798 0.42015 0.0
H698 H 0.06269 0.42798 0.37416 0.0
S699 S 0.12959 0.40458 0.51258 0.0
N700 N 0.09716 0.42097 0.5168 0.0
N701 N 0.13185 0.3995 0.46716 0.0
C702 C 0.1051 0.41092 0.45341 0.0
C703 C 0.08658 0.42289 0.48023 0.0
C704 C 0.73123 0.07883 0.01353 0.0
C705 C 0.68971 0.05183 0.00286 0.0
C706 C 0.76099 0.09365 0.98722 0.0
C707 C 0.75027 0.08232 0.94923 0.0
H708 H 0.74082 0.08937 0.04237 0.0
H709 H 0.7923 0.11553 0.99643 0.0
S710 S 0.64687 0.00993 0.90693 0.0
N711 N 0.64004 0.01225 0.9518 0.0
N712 N 0.69623 0.04058 0.9023 0.0
C713 C 0.70931 0.05414 0.93827 0.0
C714 C 0.67896 0.03871 0.96512 0.0
C715 C 0.63875 0.58991 0.48545 0.0
C716 C 0.61445 0.59109 0.51321 0.0
C717 C 0.65565 0.62057 0.4592 0.0
C718 C 0.64871 0.65332 0.4598 0.0
H719 H 0.64382 0.56458 0.48325 0.0
H720 H 0.67305 0.61793 0.43755 0.0
S721 S 0.59221 0.67381 0.52933 0.0
N722 N 0.58787 0.63026 0.54159 0.0
N723 N 0.61945 0.68736 0.49214 0.0
C724 C 0.62618 0.6559 0.48831 0.0
C725 C 0.60911 0.62493 0.51505 0.0
C726 C 0.58835 0.09016 0.63458 0.0
C727 C 0.56841 0.04761 0.63288 0.0
C728 C 0.58127 0.1106 0.66281 0.0
C729 C 0.55369 0.08931 0.69018 0.0
H730 H 0.61033 0.10801 0.61444 0.0
H731 H 0.5976 0.14339 0.66329 0.0
S732 S 0.49246 0.97793 0.69783 0.0
N733 N 0.51891 0.98486 0.6607 0.0
N734 N 0.50569 0.02363 0.71376 0.0
C735 C 0.5328 0.04686 0.68847 0.0
C736 C 0.54019 0.02593 0.65986 0.0
C737 C 0.46453 0.5019 0.14441 0.0
C738 C 0.48342 0.47824 0.14436 0.0
C739 C 0.43243 0.4929 0.16757 0.0
C740 C 0.4176 0.45959 0.1912 0.0
H741 H 0.47503 0.52802 0.12692 0.0
H742 H 0.41892 0.51201 0.16678 0.0
S743 S 0.45596 0.38782 0.20167 0.0
N744 N 0.48435 0.41967 0.17016 0.0
N745 N 0.42425 0.40303 0.21337 0.0
C746 C 0.43585 0.43548 0.1912 0.0
C747 C 0.46867 0.44474 0.16791 0.0
C748 C 0.04965 0.41734 0.66294 0.0
C749 C 0.02547 0.41701 0.63134 0.0
C750 C 0.03431 0.38564 0.68817 0.0
C751 C 0.99427 0.35273 0.68271 0.0
H752 H 0.08037 0.44261 0.6687 0.0
H753 H 0.05335 0.38752 0.71272 0.0
S754 S 0.91968 0.33488 0.60315 0.0
N755 N 0.96014 0.37894 0.59498 0.0
N756 N 0.93171 0.31983 0.64263 0.0
C757 C 0.97031 0.35117 0.65075 0.0
C758 C 0.98581 0.38319 0.62499 0.0
C759 C 0.68301 0.96646 0.14114 0.0
C760 C 0.68259 0.99854 0.15983 0.0
C761 C 0.69616 0.94243 0.15974 0.0
C762 C 0.70929 0.94933 0.19787 0.0
H763 H 0.67239 0.9593 0.11192 0.0
H764 H 0.69511 0.91758 0.14433 0.0
S765 S 0.71487 0.02984 0.25963 0.0
N766 N 0.6977 0.03674 0.21843 0.0
N767 N 0.72169 0.99093 0.25372 0.0
C768 C 0.71031 0.98208 0.21672 0.0
C769 C 0.69714 0.00684 0.19762 0.0
C770 C 0.59381 0.56916 0.71385 0.0
C771 C 0.60328 0.58078 0.67689 0.0
C772 C 0.62499 0.5824 0.74256 0.0
C773 C 0.66639 0.60761 0.73501 0.0
H774 H 0.56287 0.54674 0.71995 0.0
H775 H 0.617 0.57024 0.77016 0.0
S776 S 0.70508 0.65212 0.64339 0.0
N777 N 0.65517 0.62326 0.63496 0.0
N778 N 0.71399 0.64797 0.68838 0.0
C779 C 0.67536 0.62283 0.69874 0.0
C780 C 0.64366 0.60932 0.66974 0.0
C781 C 0.23296 0.68297 0.06783 0.0
C782 C 0.19025 0.66495 0.06216 0.0
C783 C 0.25427 0.71025 0.09808 0.0
C784 C 0.23359 0.72085 0.12304 0.0
H785 H 0.24952 0.67365 0.05061 0.0
H786 H 0.28678 0.72167 0.10303 0.0
S787 S 0.1225 0.68525 0.11758 0.0
N788 N 0.12863 0.6622 0.08178 0.0
N789 N 0.16857 0.71345 0.13836 0.0
C790 C 0.19138 0.70525 0.11592 0.0
C791 C 0.16974 0.6773 0.08549 0.0
loop_
_geom_bond_atom_site_label_1
_geom_bond_atom_site_label_2
_geom_bond_distance
_geom_bond_site_symmetry_2
_ccdc_geom_bond_type
C0 O2 1.247 . S
C0 O4 1.258 . S
C1 O8 1.247 . S
C1 O9 1.258 . S
O2 C0 1.247 . S
O2 Zn3 2.028 . S
Zn3 O2 2.028 . S
Zn3 O7 2.035 1_554 S
Zn3 O9 2.035 1_554 S
Zn3 O10 2.028 . S
O4 C0 1.258 . S
O4 Zn5 2.035 1_554 S
Zn5 O4 2.035 1_556 S
Zn5 O6 2.028 . S
Zn5 O8 2.028 . S
Zn5 O11 2.035 1_556 S
O6 Zn5 2.028 . S
O6 C12 1.247 . S
O7 Zn3 2.035 1_556 S
O7 C12 1.258 . S
O8 C1 1.247 . S
O8 Zn5 2.028 . S
O9 C1 1.258 . S
O9 Zn3 2.035 1_556 S
O10 Zn3 2.028 . S
O10 C13 1.247 . S
O11 Zn5 2.035 1_554 S
O11 C13 1.258 . S
C12 O6 1.247 . S
C12 O7 1.258 . S
C13 O10 1.247 . S
C13 O11 1.258 . S
C14 O16 1.247 1_545 S
C14 O18 1.258 . S
C15 O22 1.247 1_565 S
C15 O23 1.258 . S
O16 C14 1.247 1_565 S
O16 Zn17 2.028 . S
Zn17 O16 2.028 . S
Zn17 O21 2.035 . S
Zn17 O23 2.035 . S
Zn17 O24 2.028 . S
O18 C14 1.258 . S
O18 Zn19 2.035 . S
Zn19 O18 2.035 . S
Zn19 O20 2.028 . S
Zn19 O22 2.028 . S
Zn19 O25 2.035 . S
O20 Zn19 2.028 . S
O20 C26 1.247 1_545 S
O21 Zn17 2.035 . S
O21 C26 1.258 . S
O22 C15 1.247 1_545 S
O22 Zn19 2.028 . S
O23 C15 1.258 . S
O23 Zn17 2.035 . S
O24 Zn17 2.028 . S
O24 C27 1.247 1_565 S
O25 Zn19 2.035 . S
O25 C27 1.258 . S
C26 O20 1.247 1_565 S
C26 O21 1.258 . S
C27 O24 1.247 1_545 S
C27 O25 1.258 . S
C28 O30 1.247 . S
C28 O32 1.258 . S
C29 O36 1.247 . S
C29 O37 1.258 . S
O30 C28 1.247 . S
O30 Zn31 2.028 . S
Zn31 O30 2.028 . S
Zn31 O35 2.035 . S
Zn31 O37 2.035 . S
Zn31 O38 2.028 . S
O32 C28 1.258 . S
O32 Zn33 2.035 . S
Zn33 O32 2.035 . S
Zn33 O34 2.028 . S
Zn33 O36 2.028 . S
Zn33 O39 2.035 . S
O34 Zn33 2.028 . S
O34 C40 1.247 . S
O35 Zn31 2.035 . S
O35 C40 1.258 . S
O36 C29 1.247 . S
O36 Zn33 2.028 . S
O37 C29 1.258 . S
O37 Zn31 2.035 . S
O38 Zn31 2.028 . S
O38 C41 1.247 . S
O39 Zn33 2.035 . S
O39 C41 1.258 . S
C40 O34 1.247 . S
C40 O35 1.258 . S
C41 O38 1.247 . S
C41 O39 1.258 . S
C42 O44 1.247 . S
C42 O46 1.263 . S
C43 O50 1.247 . S
C43 O51 1.258 1_655 S
O44 C42 1.247 . S
O44 Zn45 2.028 . S
Zn45 O44 2.028 . S
Zn45 O49 2.035 . S
Zn45 O51 2.035 . S
Zn45 O52 2.028 . S
O46 C42 1.263 . S
O46 Zn47 2.034 1_455 S
Zn47 O46 2.034 1_655 S
Zn47 O48 2.028 . S
Zn47 O50 2.028 . S
Zn47 O53 2.035 1_655 S
O48 Zn47 2.028 . S
O48 C54 1.247 . S
O49 Zn45 2.035 . S
O49 C54 1.258 1_455 S
O50 C43 1.247 . S
O50 Zn47 2.028 . S
O51 C43 1.258 1_455 S
O51 Zn45 2.035 . S
O52 Zn45 2.028 . S
O52 C55 1.247 . S
O53 Zn47 2.035 1_455 S
O53 C55 1.258 . S
C54 O48 1.247 . S
C54 O49 1.258 1_655 S
C55 O52 1.247 . S
C55 O53 1.258 . S
C56 O58 1.247 . S
C56 O60 1.258 . S
C57 O64 1.247 . S
C57 O65 1.258 . S
O58 C56 1.247 . S
O58 Zn59 2.028 . S
Zn59 O58 2.028 . S
Zn59 O63 2.035 . S
Zn59 O65 2.035 . S
Zn59 O66 2.028 . S
O60 C56 1.258 . S
O60 Zn61 2.035 . S
Zn61 O60 2.035 . S
Zn61 O62 2.028 . S
Zn61 O64 2.028 . S
Zn61 O67 2.035 . S
O62 Zn61 2.028 . S
O62 C68 1.247 . S
O63 Zn59 2.035 . S
O63 C68 1.258 . S
O64 C57 1.247 . S
O64 Zn61 2.028 . S
O65 C57 1.258 . S
O65 Zn59 2.035 . S
O66 Zn59 2.028 . S
O66 C69 1.247 . S
O67 Zn61 2.035 . S
O67 C69 1.258 . S
C68 O62 1.247 . S
C68 O63 1.258 . S
C69 O66 1.247 . S
C69 O67 1.258 . S
C70 O72 1.247 . S
C70 O74 1.258 . S
C71 O78 1.247 . S
C71 O79 1.258 . S
O72 C70 1.247 . S
O72 Zn73 2.028 . S
Zn73 O72 2.028 . S
Zn73 O77 2.035 . S
Zn73 O79 2.035 . S
Zn73 O80 2.028 . S
O74 C70 1.258 . S
O74 Zn75 2.035 . S
Zn75 O74 2.035 . S
Zn75 O76 2.028 . S
Zn75 O78 2.028 . S
Zn75 O81 2.035 . S
O76 Zn75 2.028 . S
O76 C82 1.247 . S
O77 Zn73 2.035 . S
O77 C82 1.258 . S
O78 C71 1.247 . S
O78 Zn75 2.028 . S
O79 C71 1.258 . S
O79 Zn73 2.035 . S
O80 Zn73 2.028 . S
O80 C83 1.247 . S
O81 Zn75 2.035 . S
O81 C83 1.258 . S
C82 O76 1.247 . S
C82 O77 1.258 . S
C83 O80 1.247 . S
C83 O81 1.258 . S
H84 O110 0.856 . S
H85 O113 0.854 . S
H86 C121 0.930 . S
H87 C122 0.930 . S
H88 C124 0.930 . S
H89 C125 0.930 . S
H90 C127 0.931 . S
H91 C128 0.930 . S
H92 C130 0.930 . S
H93 C131 0.929 . S
H94 C133 0.930 . S
H95 C134 0.931 . S
H96 C136 0.930 . S
H97 C137 0.929 . S
H98 C139 0.931 . S
H99 C140 0.930 . S
H100 C142 0.930 . S
H101 C143 0.932 . S
H102 C145 0.930 . S
H103 C146 0.929 . S
H104 C148 0.931 . S
H105 C149 0.930 . S
H106 C151 0.929 . S
H107 C152 0.931 . S
H108 C154 0.930 . S
H109 C155 0.929 . S
O110 H84 0.856 . S
O110 C156 1.300 . S
O111 C156 1.209 . S
O112 C157 1.199 . S
O113 H85 0.854 . S
O113 C157 1.297 . S
C114 C115 1.404 . S
C114 C119 1.397 . S
C114 C120 1.492 . S
C115 C114 1.404 . S
C115 C116 1.396 . S
C115 C126 1.492 . S
C116 C115 1.396 . S
C116 C117 1.397 . S
C116 C132 1.509 . S
C117 C116 1.397 . S
C117 C118 1.412 . S
C117 C138 1.485 . S
C118 C117 1.412 . S
C118 C119 1.388 . S
C118 C144 1.490 . S
C119 C114 1.397 . S
C119 C118 1.388 . S
C119 C150 1.519 . S
C120 C114 1.492 . S
C120 C121 1.363 . S
C120 C125 1.390 . S
C121 H86 0.930 . S
C121 C120 1.363 . S
C121 C122 1.372 . S
C122 H87 0.930 . S
C122 C121 1.372 . S
C122 C123 1.383 . S
C123 C122 1.383 . S
C123 C124 1.395 . S
C124 H88 0.930 . S
C124 C123 1.395 . S
C124 C125 1.362 . S
C125 H89 0.930 . S
C125 C120 1.390 . S
C125 C124 1.362 . S
C126 C115 1.492 . S
C126 C127 1.377 . S
C126 C131 1.397 . S
C127 H90 0.931 . S
C127 C126 1.377 . S
C127 C128 1.376 . S
C128 H91 0.930 . S
C128 C127 1.376 . S
C128 C129 1.376 . S
C129 C128 1.376 . S
C129 C130 1.378 . S
C129 C156 1.486 . S
C130 H92 0.930 . S
C130 C129 1.378 . S
C130 C131 1.376 . S
C131 H93 0.929 . S
C131 C126 1.397 . S
C131 C130 1.376 . S
C132 C116 1.509 . S
C132 C133 1.391 . S
C132 C137 1.386 . S
C133 H94 0.930 . S
C133 C132 1.391 . S
C133 C134 1.375 . S
C134 H95 0.931 . S
C134 C133 1.375 . S
C134 C135 1.375 . S
C135 C134 1.375 . S
C135 C136 1.361 . S
C136 H96 0.930 . S
C136 C135 1.361 . S
C136 C137 1.399 . S
C137 H97 0.929 . S
C137 C132 1.386 . S
C137 C136 1.399 . S
C138 C117 1.485 . S
C138 C139 1.394 . S
C138 C143 1.360 . S
C139 H98 0.931 . S
C139 C138 1.394 . S
C139 C140 1.372 . S
C140 H99 0.930 . S
C140 C139 1.372 . S
C140 C141 1.397 . S
C141 C140 1.397 . S
C141 C142 1.390 . S
C141 C157 1.476 . S
C142 H100 0.930 . S
C142 C141 1.390 . S
C142 C143 1.366 . S
C143 H101 0.932 . S
C143 C138 1.360 . S
C143 C142 1.366 . S
C144 C118 1.490 . S
C144 C145 1.380 . S
C144 C149 1.386 . S
C145 H102 0.930 . S
C145 C144 1.380 . S
C145 C146 1.381 . S
C146 H103 0.929 . S
C146 C145 1.381 . S
C146 C147 1.371 . S
C147 C146 1.371 . S
C147 C148 1.380 . S
C148 H104 0.931 . S
C148 C147 1.380 . S
C148 C149 1.387 . S
C149 H105 0.930 . S
C149 C144 1.386 . S
C149 C148 1.387 . S
C150 C119 1.519 . S
C150 C151 1.377 . S
C150 C155 1.361 . S
C151 H106 0.929 . S
C151 C150 1.377 . S
C151 C152 1.386 . S
C152 H107 0.931 . S
C152 C151 1.386 . S
C152 C153 1.363 . S
C153 C152 1.363 . S
C153 C154 1.385 . S
C154 H108 0.930 . S
C154 C153 1.385 . S
C154 C155 1.396 . S
C155 H109 0.929 . S
C155 C150 1.361 . S
C155 C154 1.396 . S
C156 O110 1.300 . S
C156 O111 1.209 . S
C156 C129 1.486 . S
C157 O112 1.199 . S
C157 O113 1.297 . S
C157 C141 1.476 . S
H158 O184 0.856 . S
H159 O187 0.854 . S
H160 C195 0.930 . S
H161 C196 0.930 . S
H162 C198 0.930 . S
H163 C199 0.930 . S
H164 C201 0.931 . S
H165 C202 0.930 . S
H166 C204 0.930 1_455 S
H167 C205 0.929 . S
H168 C207 0.930 . S
H169 C208 0.931 . S
H170 C210 0.930 . S
H171 C211 0.929 . S
H172 C213 0.931 . S
H173 C214 0.930 . S
H174 C216 0.930 . S
H175 C217 0.932 . S
H176 C219 0.930 . S
H177 C220 0.929 . S
H178 C222 0.931 . S
H179 C223 0.930 . S
H180 C225 0.929 . S
H181 C226 0.931 . S
H182 C228 0.930 . S
H183 C229 0.929 . S
O184 H158 0.856 . S
O184 C230 1.300 . S
O185 C230 1.209 1_455 S
O186 C231 1.199 . S
O187 H159 0.854 . S
O187 C231 1.297 . S
C188 C189 1.404 . S
C188 C193 1.397 . S
C188 C194 1.492 . S
C189 C188 1.404 . S
C189 C190 1.396 . S
C189 C200 1.492 . S
C190 C189 1.396 . S
C190 C191 1.397 . S
C190 C206 1.509 . S
C191 C190 1.397 . S
C191 C192 1.412 . S
C191 C212 1.485 . S
C192 C191 1.412 . S
C192 C193 1.388 . S
C192 C218 1.490 . S
C193 C188 1.397 . S
C193 C192 1.388 . S
C193 C224 1.519 . S
C194 C188 1.492 . S
C194 C195 1.363 . S
C194 C199 1.390 1_655 S
C195 H160 0.930 . S
C195 C194 1.363 . S
C195 C196 1.372 . S
C196 H161 0.930 . S
C196 C195 1.372 . S
C196 C197 1.383 1_655 S
C197 C196 1.383 1_455 S
C197 C198 1.395 . S
C198 H162 0.930 . S
C198 C197 1.395 . S
C198 C199 1.362 . S
C199 H163 0.930 . S
C199 C194 1.390 1_455 S
C199 C198 1.362 . S
C200 C189 1.492 . S
C200 C201 1.377 . S
C200 C205 1.397 . S
C201 H164 0.931 . S
C201 C200 1.377 . S
C201 C202 1.376 . S
C202 H165 0.930 . S
C202 C201 1.376 . S
C202 C203 1.376 . S
C203 C202 1.376 . S
C203 C204 1.378 . S
C203 C230 1.486 1_556 S
C204 H166 0.930 1_655 S
C204 C203 1.378 . S
C204 C205 1.376 . S
C205 H167 0.929 . S
C205 C200 1.397 . S
C205 C204 1.376 . S
C206 C190 1.509 . S
C206 C207 1.391 . S
C206 C211 1.386 . S
C207 H168 0.930 . S
C207 C206 1.391 . S
C207 C208 1.375 . S
C208 H169 0.931 . S
C208 C207 1.375 . S
C208 C209 1.375 . S
C209 C208 1.375 . S
C209 C210 1.361 . S
C210 H170 0.930 . S
C210 C209 1.361 . S
C210 C211 1.399 . S
C211 H171 0.929 . S
C211 C206 1.386 . S
C211 C210 1.399 . S
C212 C191 1.485 . S
C212 C213 1.394 . S
C212 C217 1.360 . S
C213 H172 0.931 . S
C213 C212 1.394 . S
C213 C214 1.372 . S
C214 H173 0.930 . S
C214 C213 1.372 . S
C214 C215 1.397 . S
C215 C214 1.397 . S
C215 C216 1.390 . S
C215 C231 1.476 1_545 S
C216 H174 0.930 . S
C216 C215 1.390 . S
C216 C217 1.366 . S
C217 H175 0.932 . S
C217 C212 1.360 . S
C217 C216 1.366 . S
C218 C192 1.490 . S
C218 C219 1.380 . S
C218 C223 1.386 . S
C219 H176 0.930 . S
C219 C218 1.380 . S
C219 C220 1.381 . S
C220 H177 0.929 . S
C220 C219 1.381 . S
C220 C221 1.371 . S
C221 C220 1.371 . S
C221 C222 1.380 . S
C222 H178 0.931 . S
C222 C221 1.380 . S
C222 C223 1.387 . S
C223 H179 0.930 . S
C223 C218 1.386 . S
C223 C222 1.387 . S
C224 C193 1.519 . S
C224 C225 1.377 . S
C224 C229 1.361 . S
C225 H180 0.929 . S
C225 C224 1.377 . S
C225 C226 1.386 . S
C226 H181 0.931 . S
C226 C225 1.386 . S
C226 C227 1.363 . S
C227 C226 1.363 . S
C227 C228 1.385 . S
C228 H182 0.930 . S
C228 C227 1.385 . S
C228 C229 1.396 . S
C229 H183 0.929 . S
C229 C224 1.361 . S
C229 C228 1.396 . S
C230 O184 1.300 . S
C230 O185 1.209 1_655 S
C230 C203 1.486 1_554 S
C231 O186 1.199 . S
C231 O187 1.297 . S
C231 C215 1.476 1_565 S
H232 O258 0.856 . S
H233 O261 0.854 . S
H234 C269 0.930 . S
H235 C270 0.930 . S
H236 C272 0.930 . S
H237 C273 0.930 . S
H238 C275 0.931 . S
H239 C276 0.930 . S
H240 C278 0.930 . S
H241 C279 0.929 . S
H242 C281 0.930 . S
H243 C282 0.931 . S
H244 C284 0.930 . S
H245 C285 0.929 . S
H246 C287 0.931 . S
H247 C288 0.930 . S
H248 C290 0.930 . S
H249 C291 0.932 . S
H250 C293 0.930 . S
H251 C294 0.929 . S
H252 C296 0.931 . S
H253 C297 0.930 . S
H254 C299 0.929 . S
H255 C300 0.931 . S
H256 C302 0.930 . S
H257 C303 0.929 . S
O258 H232 0.856 . S
O258 C304 1.300 . S
O259 C304 1.209 . S
O260 C305 1.199 . S
O261 H233 0.854 . S
O261 C305 1.297 . S
C262 C263 1.404 . S
C262 C267 1.397 . S
C262 C268 1.492 . S
C263 C262 1.404 . S
C263 C264 1.396 . S
C263 C274 1.492 . S
C264 C263 1.396 . S
C264 C265 1.397 . S
C264 C280 1.509 . S
C265 C264 1.397 . S
C265 C266 1.412 . S
C265 C286 1.485 . S
C266 C265 1.412 . S
C266 C267 1.388 . S
C266 C292 1.490 . S
C267 C262 1.397 . S
C267 C266 1.388 . S
C267 C298 1.519 . S
C268 C262 1.492 . S
C268 C269 1.363 . S
C268 C273 1.390 . S
C269 H234 0.930 . S
C269 C268 1.363 . S
C269 C270 1.372 . S
C270 H235 0.930 . S
C270 C269 1.372 . S
C270 C271 1.383 . S
C271 C270 1.383 . S
C271 C272 1.395 . S
C272 H236 0.930 . S
C272 C271 1.395 . S
C272 C273 1.362 . S
C273 H237 0.930 . S
C273 C268 1.390 . S
C273 C272 1.362 . S
C274 C263 1.492 . S
C274 C275 1.377 . S
C274 C279 1.397 . S
C275 H238 0.931 . S
C275 C274 1.377 . S
C275 C276 1.376 . S
C276 H239 0.930 . S
C276 C275 1.376 . S
C276 C277 1.376 . S
C277 C276 1.376 . S
C277 C278 1.378 . S
C277 C304 1.486 . S
C278 H240 0.930 . S
C278 C277 1.378 . S
C278 C279 1.376 . S
C279 H241 0.929 . S
C279 C274 1.397 . S
C279 C278 1.376 . S
C280 C264 1.509 . S
C280 C281 1.391 . S
C280 C285 1.386 . S
C281 H242 0.930 . S
C281 C280 1.391 . S
C281 C282 1.375 . S
C282 H243 0.931 . S
C282 C281 1.375 . S
C282 C283 1.375 . S
C283 C282 1.375 . S
C283 C284 1.361 . S
C284 H244 0.930 . S
C284 C283 1.361 . S
C284 C285 1.399 . S
C285 H245 0.929 . S
C285 C280 1.386 . S
C285 C284 1.399 . S
C286 C265 1.485 . S
C286 C287 1.394 . S
C286 C291 1.360 . S
C287 H246 0.931 . S
C287 C286 1.394 . S
C287 C288 1.372 . S
C288 H247 0.930 . S
C288 C287 1.372 . S
C288 C289 1.397 1_565 S
C289 C288 1.397 1_545 S
C289 C290 1.390 . S
C289 C305 1.476 . S
C290 H248 0.930 . S
C290 C289 1.390 . S
C290 C291 1.366 1_545 S
C291 H249 0.932 . S
C291 C286 1.360 . S
C291 C290 1.366 1_565 S
C292 C266 1.490 . S
C292 C293 1.380 . S
C292 C297 1.386 . S
C293 H250 0.930 . S
C293 C292 1.380 . S
C293 C294 1.381 . S
C294 H251 0.929 . S
C294 C293 1.381 . S
C294 C295 1.371 . S
C295 C294 1.371 . S
C295 C296 1.380 . S
C296 H252 0.931 . S
C296 C295 1.380 . S
C296 C297 1.387 . S
C297 H253 0.930 . S
C297 C292 1.386 . S
C297 C296 1.387 . S
C298 C267 1.519 . S
C298 C299 1.377 . S
C298 C303 1.361 . S
C299 H254 0.929 . S
C299 C298 1.377 . S
C299 C300 1.386 . S
C300 H255 0.931 . S
C300 C299 1.386 . S
C300 C301 1.363 . S
C301 C300 1.363 . S
C301 C302 1.385 . S
C302 H256 0.930 . S
C302 C301 1.385 . S
C302 C303 1.396 . S
C303 H257 0.929 . S
C303 C298 1.361 . S
C303 C302 1.396 . S
C304 O258 1.300 . S
C304 O259 1.209 . S
C304 C277 1.486 . S
C305 O260 1.199 . S
C305 O261 1.297 . S
C305 C289 1.476 . S
H306 O332 0.856 . S
H307 O335 0.854 . S
H308 C343 0.930 . S
H309 C344 0.930 . S
H310 C346 0.930 . S
H311 C347 0.930 . S
H312 C349 0.931 . S
H313 C350 0.930 . S
H314 C352 0.930 . S
H315 C353 0.929 . S
H316 C355 0.930 1_455 S
H317 C356 0.931 . S
H318 C358 0.930 . S
H319 C359 0.929 . S
H320 C361 0.931 . S
H321 C362 0.930 . S
H322 C364 0.930 . S
H323 C365 0.932 . S
H324 C367 0.930 . S
H325 C368 0.929 1_455 S
H326 C370 0.931 . S
H327 C371 0.930 . S
H328 C373 0.929 . S
H329 C374 0.931 . S
H330 C376 0.930 . S
H331 C377 0.929 . S
O332 H306 0.856 . S
O332 C378 1.300 . S
O333 C378 1.209 . S
O334 C379 1.199 . S
O335 H307 0.854 . S
O335 C379 1.297 . S
C336 C337 1.404 . S
C336 C341 1.397 . S
C336 C342 1.492 . S
C337 C336 1.404 . S
C337 C338 1.396 . S
C337 C348 1.492 . S
C338 C337 1.396 . S
C338 C339 1.397 . S
C338 C354 1.509 . S
C339 C338 1.397 . S
C339 C340 1.412 . S
C339 C360 1.485 . S
C340 C339 1.412 . S
C340 C341 1.388 . S
C340 C366 1.490 . S
C341 C336 1.397 . S
C341 C340 1.388 . S
C341 C372 1.519 . S
C342 C336 1.492 . S
C342 C343 1.363 . S
C342 C347 1.390 . S
C343 H308 0.930 . S
C343 C342 1.363 . S
C343 C344 1.372 . S
C344 H309 0.930 . S
C344 C343 1.372 . S
C344 C345 1.383 . S
C345 C344 1.383 . S
C345 C346 1.395 . S
C346 H310 0.930 . S
C346 C345 1.395 . S
C346 C347 1.362 . S
C347 H311 0.930 . S
C347 C342 1.390 . S
C347 C346 1.362 . S
C348 C337 1.492 . S
C348 C349 1.377 . S
C348 C353 1.397 . S
C349 H312 0.931 . S
C349 C348 1.377 . S
C349 C350 1.376 . S
C350 H313 0.930 . S
C350 C349 1.376 . S
C350 C351 1.376 . S
C351 C350 1.376 . S
C351 C352 1.378 . S
C351 C378 1.486 . S
C352 H314 0.930 . S
C352 C351 1.378 . S
C352 C353 1.376 . S
C353 H315 0.929 . S
C353 C348 1.397 . S
C353 C352 1.376 . S
C354 C338 1.509 . S
C354 C355 1.391 . S
C354 C359 1.386 . S
C355 H316 0.930 1_655 S
C355 C354 1.391 . S
C355 C356 1.375 1_655 S
C356 H317 0.931 . S
C356 C355 1.375 1_455 S
C356 C357 1.375 1_455 S
C357 C356 1.375 1_655 S
C357 C358 1.361 . S
C358 H318 0.930 . S
C358 C357 1.361 . S
C358 C359 1.399 . S
C359 H319 0.929 . S
C359 C354 1.386 . S
C359 C358 1.399 . S
C360 C339 1.485 . S
C360 C361 1.394 1_655 S
C360 C365 1.360 . S
C361 H320 0.931 . S
C361 C360 1.394 1_455 S
C361 C362 1.372 . S
C362 H321 0.930 . S
C362 C361 1.372 . S
C362 C363 1.397 . S
C363 C362 1.397 . S
C363 C364 1.390 . S
C363 C379 1.476 . S
C364 H322 0.930 . S
C364 C363 1.390 . S
C364 C365 1.366 1_455 S
C365 H323 0.932 . S
C365 C360 1.360 . S
C365 C364 1.366 1_655 S
C366 C340 1.490 . S
C366 C367 1.380 . S
C366 C371 1.386 . S
C367 H324 0.930 . S
C367 C366 1.380 . S
C367 C368 1.381 . S
C368 H325 0.929 1_655 S
C368 C367 1.381 . S
C368 C369 1.371 1_655 S
C369 C368 1.371 1_455 S
C369 C370 1.380 1_455 S
C370 H326 0.931 . S
C370 C369 1.380 1_655 S
C370 C371 1.387 . S
C371 H327 0.930 . S
C371 C366 1.386 . S
C371 C370 1.387 . S
C372 C341 1.519 . S
C372 C373 1.377 . S
C372 C377 1.361 . S
C373 H328 0.929 . S
C373 C372 1.377 . S
C373 C374 1.386 . S
C374 H329 0.931 . S
C374 C373 1.386 . S
C374 C375 1.363 . S
C375 C374 1.363 . S
C375 C376 1.385 . S
C376 H330 0.930 . S
C376 C375 1.385 . S
C376 C377 1.396 . S
C377 H331 0.929 . S
C377 C372 1.361 . S
C377 C376 1.396 . S
C378 O332 1.300 . S
C378 O333 1.209 . S
C378 C351 1.486 . S
C379 O334 1.199 . S
C379 O335 1.297 . S
C379 C363 1.476 . S
H380 O406 0.856 . S
H381 O409 0.854 . S
H382 C417 0.930 . S
H383 C418 0.930 . S
H384 C420 0.930 . S
H385 C421 0.930 . S
H386 C423 0.931 . S
H387 C424 0.930 . S
H388 C426 0.930 . S
H389 C427 0.929 . S
H390 C429 0.930 . S
H391 C430 0.931 . S
H392 C432 0.930 . S
H393 C433 0.929 . S
H394 C435 0.931 . S
H395 C436 0.930 . S
H396 C438 0.930 . S
H397 C439 0.932 . S
H398 C441 0.930 . S
H399 C442 0.929 . S
H400 C444 0.931 . S
H401 C445 0.930 . S
H402 C447 0.929 . S
H403 C448 0.931 . S
H404 C450 0.930 . S
H405 C451 0.929 . S
O406 H380 0.856 . S
O406 C452 1.300 . S
O407 C452 1.209 . S
O408 C453 1.199 . S
O409 H381 0.854 . S
O409 C453 1.297 . S
C410 C411 1.404 . S
C410 C415 1.397 . S
C410 C416 1.492 . S
C411 C410 1.404 . S
C411 C412 1.396 . S
C411 C422 1.492 . S
C412 C411 1.396 . S
C412 C413 1.397 . S
C412 C428 1.509 . S
C413 C412 1.397 . S
C413 C414 1.412 . S
C413 C434 1.485 . S
C414 C413 1.412 . S
C414 C415 1.388 . S
C414 C440 1.490 . S
C415 C410 1.397 . S
C415 C414 1.388 . S
C415 C446 1.519 . S
C416 C410 1.492 . S
C416 C417 1.363 . S
C416 C421 1.390 . S
C417 H382 0.930 . S
C417 C416 1.363 . S
C417 C418 1.372 . S
C418 H383 0.930 . S
C418 C417 1.372 . S
C418 C419 1.383 . S
C419 C418 1.383 . S
C419 C420 1.395 . S
C420 H384 0.930 . S
C420 C419 1.395 . S
C420 C421 1.362 . S
C421 H385 0.930 . S
C421 C416 1.390 . S
C421 C420 1.362 . S
C422 C411 1.492 . S
C422 C423 1.377 . S
C422 C427 1.397 . S
C423 H386 0.931 . S
C423 C422 1.377 . S
C423 C424 1.376 . S
C424 H387 0.930 . S
C424 C423 1.376 . S
C424 C425 1.376 . S
C425 C424 1.376 . S
C425 C426 1.378 . S
C425 C452 1.486 . S
C426 H388 0.930 . S
C426 C425 1.378 . S
C426 C427 1.376 . S
C427 H389 0.929 . S
C427 C422 1.397 . S
C427 C426 1.376 . S
C428 C412 1.509 . S
C428 C429 1.391 . S
C428 C433 1.386 . S
C429 H390 0.930 . S
C429 C428 1.391 . S
C429 C430 1.375 . S
C430 H391 0.931 . S
C430 C429 1.375 . S
C430 C431 1.375 . S
C431 C430 1.375 . S
C431 C432 1.361 . S
C432 H392 0.930 . S
C432 C431 1.361 . S
C432 C433 1.399 . S
C433 H393 0.929 . S
C433 C428 1.386 . S
C433 C432 1.399 . S
C434 C413 1.485 . S
C434 C435 1.394 . S
C434 C439 1.360 . S
C435 H394 0.931 . S
C435 C434 1.394 . S
C435 C436 1.372 . S
C436 H395 0.930 . S
C436 C435 1.372 . S
C436 C437 1.397 . S
C437 C436 1.397 . S
C437 C438 1.390 . S
C437 C453 1.476 . S
C438 H396 0.930 . S
C438 C437 1.390 . S
C438 C439 1.366 . S
C439 H397 0.932 . S
C439 C434 1.360 . S
C439 C438 1.366 . S
C440 C414 1.490 . S
C440 C441 1.380 . S
C440 C445 1.386 . S
C441 H398 0.930 . S
C441 C440 1.380 . S
C441 C442 1.381 . S
C442 H399 0.929 . S
C442 C441 1.381 . S
C442 C443 1.371 . S
C443 C442 1.371 . S
C443 C444 1.380 . S
C444 H400 0.931 . S
C444 C443 1.380 . S
C444 C445 1.387 . S
C445 H401 0.930 . S
C445 C440 1.386 . S
C445 C444 1.387 . S
C446 C415 1.519 . S
C446 C447 1.377 . S
C446 C451 1.361 . S
C447 H402 0.929 . S
C447 C446 1.377 . S
C447 C448 1.386 . S
C448 H403 0.931 . S
C448 C447 1.386 . S
C448 C449 1.363 . S
C449 C448 1.363 . S
C449 C450 1.385 . S
C450 H404 0.930 . S
C450 C449 1.385 . S
C450 C451 1.396 . S
C451 H405 0.929 . S
C451 C446 1.361 . S
C451 C450 1.396 . S
C452 O406 1.300 . S
C452 O407 1.209 . S
C452 C425 1.486 . S
C453 O408 1.199 . S
C453 O409 1.297 . S
C453 C437 1.476 . S
H454 O480 0.856 . S
H455 O483 0.854 . S
H456 C491 0.930 . S
H457 C492 0.930 . S
H458 C494 0.930 . S
H459 C495 0.930 . S
H460 C497 0.931 . S
H461 C498 0.930 . S
H462 C500 0.930 . S
H463 C501 0.929 . S
H464 C503 0.930 . S
H465 C504 0.931 . S
H466 C506 0.930 . S
H467 C507 0.929 . S
H468 C509 0.931 . S
H469 C510 0.930 . S
H470 C512 0.930 . S
H471 C513 0.932 . S
H472 C515 0.930 . S
H473 C516 0.929 . S
H474 C518 0.931 . S
H475 C519 0.930 . S
H476 C521 0.929 . S
H477 C522 0.931 . S
H478 C524 0.930 . S
H479 C525 0.929 . S
O480 H454 0.856 . S
O480 C526 1.300 . S
O481 C526 1.209 . S
O482 C527 1.190 . S
O483 H455 0.854 . S
O483 C527 1.297 . S
C484 C485 1.404 . S
C484 C489 1.397 . S
C484 C490 1.492 . S
C485 C484 1.404 . S
C485 C486 1.396 . S
C485 C496 1.492 . S
C486 C485 1.396 . S
C486 C487 1.397 . S
C486 C502 1.509 . S
C487 C486 1.397 . S
C487 C488 1.412 . S
C487 C508 1.485 . S
C488 C487 1.412 . S
C488 C489 1.388 . S
C488 C514 1.490 . S
C489 C484 1.397 . S
C489 C488 1.388 . S
C489 C520 1.519 . S
C490 C484 1.492 . S
C490 C491 1.363 . S
C490 C495 1.390 . S
C491 H456 0.930 . S
C491 C490 1.363 . S
C491 C492 1.372 . S
C492 H457 0.930 . S
C492 C491 1.372 . S
C492 C493 1.383 . S
C493 C492 1.383 . S
C493 C494 1.395 . S
C494 H458 0.930 . S
C494 C493 1.395 . S
C494 C495 1.362 . S
C495 H459 0.930 . S
C495 C490 1.390 . S
C495 C494 1.362 . S
C496 C485 1.492 . S
C496 C497 1.377 . S
C496 C501 1.397 . S
C497 H460 0.931 . S
C497 C496 1.377 . S
C497 C498 1.376 . S
C498 H461 0.930 . S
C498 C497 1.376 . S
C498 C499 1.376 . S
C499 C498 1.376 . S
C499 C500 1.378 . S
C499 C526 1.486 . S
C500 H462 0.930 . S
C500 C499 1.378 . S
C500 C501 1.376 . S
C501 H463 0.929 . S
C501 C496 1.397 . S
C501 C500 1.376 . S
C502 C486 1.509 . S
C502 C503 1.391 . S
C502 C507 1.386 . S
C503 H464 0.930 . S
C503 C502 1.391 . S
C503 C504 1.375 . S
C504 H465 0.931 . S
C504 C503 1.375 . S
C504 C505 1.375 . S
C505 C504 1.375 . S
C505 C506 1.361 . S
C506 H466 0.930 . S
C506 C505 1.361 . S
C506 C507 1.399 . S
C507 H467 0.929 . S
C507 C502 1.386 . S
C507 C506 1.399 . S
C508 C487 1.485 . S
C508 C509 1.394 . S
C508 C513 1.360 . S
C509 H468 0.931 . S
C509 C508 1.394 . S
C509 C510 1.372 . S
C510 H469 0.930 . S
C510 C509 1.372 . S
C510 C511 1.397 . S
C511 C510 1.397 . S
C511 C512 1.390 . S
C511 C527 1.476 1_545 S
C512 H470 0.930 . S
C512 C511 1.390 . S
C512 C513 1.366 . S
C513 H471 0.932 . S
C513 C508 1.360 . S
C513 C512 1.366 . S
C514 C488 1.490 . S
C514 C515 1.380 . S
C514 C519 1.386 . S
C515 H472 0.930 . S
C515 C514 1.380 . S
C515 C516 1.381 . S
C516 H473 0.929 . S
C516 C515 1.381 . S
C516 C517 1.371 . S
C517 C516 1.371 . S
C517 C518 1.380 . S
C518 H474 0.931 . S
C518 C517 1.380 . S
C518 C519 1.387 . S
C519 H475 0.930 . S
C519 C514 1.386 . S
C519 C518 1.387 . S
C520 C489 1.519 . S
C520 C521 1.377 . S
C520 C525 1.361 . S
C521 H476 0.929 . S
C521 C520 1.377 . S
C521 C522 1.386 . S
C522 H477 0.931 . S
C522 C521 1.386 . S
C522 C523 1.363 . S
C523 C522 1.363 . S
C523 C524 1.385 . S
C524 H478 0.930 . S
C524 C523 1.385 . S
C524 C525 1.396 . S
C525 H479 0.929 . S
C525 C520 1.361 . S
C525 C524 1.396 . S
C526 O480 1.300 . S
C526 O481 1.209 . S
C526 C499 1.486 . S
C527 O482 1.190 . S
C527 O483 1.297 . S
C527 C511 1.476 1_565 S
C528 C529 1.369 . S
C528 C530 1.419 . S
C528 H532 0.930 . S
C529 C528 1.369 . S
C529 C538 1.429 . S
C530 C528 1.419 . S
C530 C531 1.363 . S
C530 H533 0.929 . S
C531 C530 1.363 . S
C531 C537 1.428 . S
H532 C528 0.930 . S
H533 C530 0.929 . S
S534 N535 1.613 . S
S534 N536 1.610 . S
N535 S534 1.613 . S
N535 C538 1.350 . S
N536 S534 1.610 . S
N536 C537 1.351 . S
C537 C531 1.428 . S
C537 N536 1.351 . S
C537 C538 1.434 . S
C538 C529 1.429 . S
C538 N535 1.350 . S
C538 C537 1.434 . S
C539 C540 1.369 . S
C539 C541 1.419 . S
C539 H543 0.930 . S
C540 C539 1.369 . S
C540 C549 1.429 . S
C541 C539 1.419 . S
C541 C542 1.363 . S
C541 H544 0.929 . S
C542 C541 1.363 . S
C542 C548 1.428 . S
H543 C539 0.930 . S
H544 C541 0.929 . S
S545 N546 1.613 . S
S545 N547 1.610 . S
N546 S545 1.613 . S
N546 C549 1.350 . S
N547 S545 1.610 . S
N547 C548 1.351 . S
C548 C542 1.428 . S
C548 N547 1.351 . S
C548 C549 1.434 . S
C549 C540 1.429 . S
C549 N546 1.350 . S
C549 C548 1.434 . S
C550 C551 1.369 . S
C550 C552 1.419 . S
C550 H554 0.930 . S
C551 C550 1.369 . S
C551 C560 1.429 . S
C552 C550 1.419 . S
C552 C553 1.363 . S
C552 H555 0.929 . S
C553 C552 1.363 . S
C553 C559 1.428 . S
H554 C550 0.930 . S
H555 C552 0.929 . S
S556 N557 1.613 . S
S556 N558 1.610 . S
N557 S556 1.613 . S
N557 C560 1.350 . S
N558 S556 1.610 . S
N558 C559 1.351 . S
C559 C553 1.428 . S
C559 N558 1.351 . S
C559 C560 1.434 . S
C560 C551 1.429 . S
C560 N557 1.350 . S
C560 C559 1.434 . S
C561 C562 1.369 1_455 S
C561 C563 1.419 . S
C561 H565 0.930 . S
C562 C561 1.369 1_655 S
C562 C571 1.429 . S
C563 C561 1.419 . S
C563 C564 1.363 1_455 S
C563 H566 0.929 . S
C564 C563 1.363 1_655 S
C564 C570 1.428 . S
H565 C561 0.930 . S
H566 C563 0.929 . S
S567 N568 1.613 . S
S567 N569 1.610 . S
N568 S567 1.613 . S
N568 C571 1.350 . S
N569 S567 1.610 . S
N569 C570 1.351 . S
C570 C564 1.428 . S
C570 N569 1.351 . S
C570 C571 1.434 . S
C571 C562 1.429 . S
C571 N568 1.350 . S
C571 C570 1.434 . S
C572 C573 1.338 1_565 S
C572 C574 1.419 . S
C572 H576 0.930 . S
C573 C572 1.338 1_545 S
C573 C582 1.453 . S
C574 C572 1.419 . S
C574 C575 1.363 . S
C574 H577 0.929 . S
C575 C574 1.363 . S
C575 C581 1.428 . S
H576 C572 0.930 . S
H577 C574 0.929 . S
S578 N579 1.613 . S
S578 N580 1.610 . S
N579 S578 1.613 . S
N579 C582 1.350 . S
N580 S578 1.610 . S
N580 C581 1.351 1_545 S
C581 C575 1.428 . S
C581 N580 1.351 1_565 S
C581 C582 1.434 1_565 S
C582 C573 1.453 . S
C582 N579 1.350 . S
C582 C581 1.434 1_545 S
C583 C584 1.369 . S
C583 C585 1.419 . S
C583 H587 0.930 . S
C584 C583 1.369 . S
C584 C593 1.429 . S
C585 C583 1.419 . S
C585 C586 1.363 . S
C585 H588 0.929 . S
C586 C585 1.363 . S
C586 C592 1.428 . S
H587 C583 0.930 . S
H588 C585 0.929 . S
S589 N590 1.613 . S
S589 N591 1.610 . S
N590 S589 1.613 . S
N590 C593 1.350 . S
N591 S589 1.610 . S
N591 C592 1.351 . S
C592 C586 1.428 . S
C592 N591 1.351 . S
C592 C593 1.434 . S
C593 C584 1.429 . S
C593 N590 1.350 . S
C593 C592 1.434 . S
C594 C595 1.369 . S
C594 C596 1.419 . S
C594 H598 0.930 . S
C595 C594 1.369 . S
C595 C604 1.429 . S
C596 C594 1.419 . S
C596 C597 1.363 . S
C596 H599 0.929 . S
C597 C596 1.363 . S
C597 C603 1.428 . S
H598 C594 0.930 . S
H599 C596 0.929 . S
S600 N601 1.613 . S
S600 N602 1.610 . S
N601 S600 1.613 . S
N601 C604 1.350 . S
N602 S600 1.610 . S
N602 C603 1.351 . S
C603 C597 1.428 . S
C603 N602 1.351 . S
C603 C604 1.434 . S
C604 C595 1.429 . S
C604 N601 1.350 . S
C604 C603 1.434 . S
C605 C606 1.369 1_556 S
C605 C607 1.419 . S
C605 H609 0.930 . S
C606 C605 1.369 1_554 S
C606 C615 1.429 . S
C607 C605 1.419 . S
C607 C608 1.363 . S
C607 H610 0.929 . S
C608 C607 1.363 . S
C608 C614 1.428 1_556 S
H609 C605 0.930 . S
H610 C607 0.929 . S
S611 N612 1.613 . S
S611 N613 1.610 . S
N612 S611 1.613 . S
N612 C615 1.350 . S
N613 S611 1.610 . S
N613 C614 1.351 . S
C614 C608 1.428 1_554 S
C614 N613 1.351 . S
C614 C615 1.434 . S
C615 C606 1.429 . S
C615 N612 1.350 . S
C615 C614 1.434 . S
C616 C617 1.369 . S
C616 C618 1.419 . S
C616 H620 0.930 . S
C617 C616 1.369 . S
C617 C626 1.429 . S
C618 C616 1.419 . S
C618 C619 1.363 . S
C618 H621 0.929 . S
C619 C618 1.363 . S
C619 C625 1.428 . S
H620 C616 0.930 . S
H621 C618 0.929 . S
S622 N623 1.613 . S
S622 N624 1.610 . S
N623 S622 1.613 . S
N623 C626 1.350 . S
N624 S622 1.610 . S
N624 C625 1.351 . S
C625 C619 1.428 . S
C625 N624 1.351 . S
C625 C626 1.434 . S
C626 C617 1.429 . S
C626 N623 1.350 . S
C626 C625 1.434 . S
C627 C628 1.369 . S
C627 C629 1.419 1_554 S
C627 H631 0.930 . S
C628 C627 1.369 . S
C628 C637 1.429 . S
C629 C627 1.419 1_556 S
C629 C630 1.363 . S
C629 H632 0.929 . S
C630 C629 1.363 . S
C630 C636 1.428 . S
H631 C627 0.930 . S
H632 C629 0.929 . S
S633 N634 1.613 . S
S633 N635 1.610 1_554 S
N634 S633 1.613 . S
N634 C637 1.350 . S
N635 S633 1.610 1_556 S
N635 C636 1.351 . S
C636 C630 1.428 . S
C636 N635 1.351 . S
C636 C637 1.434 1_556 S
C637 C628 1.429 . S
C637 N634 1.350 . S
C637 C636 1.434 1_554 S
C638 C639 1.369 . S
C638 C640 1.419 . S
C638 H642 0.930 . S
C639 C638 1.369 . S
C639 C648 1.429 . S
C640 C638 1.419 . S
C640 C641 1.363 . S
C640 H643 0.929 . S
C641 C640 1.363 . S
C641 C647 1.428 . S
H642 C638 0.930 . S
H643 C640 0.929 . S
S644 N645 1.613 . S
S644 N646 1.610 . S
N645 S644 1.613 . S
N645 C648 1.350 . S
N646 S644 1.610 . S
N646 C647 1.351 . S
C647 C641 1.428 . S
C647 N646 1.351 . S
C647 C648 1.434 . S
C648 C639 1.429 . S
C648 N645 1.350 . S
C648 C647 1.434 . S
C649 C650 1.369 . S
C649 C651 1.419 . S
C649 H653 0.930 . S
C650 C649 1.369 . S
C650 C659 1.429 . S
C651 C649 1.419 . S
C651 C652 1.363 . S
C651 H654 0.929 . S
C652 C651 1.363 . S
C652 C658 1.428 . S
H653 C649 0.930 . S
H654 C651 0.929 . S
S655 N656 1.613 . S
S655 N657 1.610 . S
N656 S655 1.613 . S
N656 C659 1.350 . S
N657 S655 1.610 . S
N657 C658 1.351 . S
C658 C652 1.428 . S
C658 N657 1.351 . S
C658 C659 1.434 . S
C659 C650 1.429 . S
C659 N656 1.350 . S
C659 C658 1.434 . S
C660 C661 1.369 . S
C660 C662 1.419 . S
C660 H664 0.930 . S
C661 C660 1.369 . S
C661 C670 1.429 . S
C662 C660 1.419 . S
C662 C663 1.363 . S
C662 H665 0.929 . S
C663 C662 1.363 . S
C663 C669 1.428 . S
H664 C660 0.930 . S
H665 C662 0.929 . S
S666 N667 1.613 . S
S666 N668 1.610 . S
N667 S666 1.613 . S
N667 C670 1.350 . S
N668 S666 1.610 . S
N668 C669 1.351 . S
C669 C663 1.428 . S
C669 N668 1.351 . S
C669 C670 1.434 . S
C670 C661 1.429 . S
C670 N667 1.350 . S
C670 C669 1.434 . S
C671 C672 1.369 . S
C671 C673 1.419 . S
C671 H675 0.930 . S
C672 C671 1.369 . S
C672 C681 1.429 . S
C673 C671 1.419 . S
C673 C674 1.363 . S
C673 H676 0.929 . S
C674 C673 1.363 . S
C674 C680 1.428 . S
H675 C671 0.930 . S
H676 C673 0.929 . S
S677 N678 1.613 . S
S677 N679 1.610 . S
N678 S677 1.613 . S
N678 C681 1.350 . S
N679 S677 1.610 . S
N679 C680 1.351 . S
C680 C674 1.428 . S
C680 N679 1.351 . S
C680 C681 1.434 . S
C681 C672 1.429 . S
C681 N678 1.350 . S
C681 C680 1.434 . S
C682 C683 1.369 1_556 S
C682 C684 1.419 . S
C682 H686 0.930 . S
C683 C682 1.369 1_554 S
C683 C692 1.429 . S
C684 C682 1.419 . S
C684 C685 1.363 . S
C684 H687 0.929 . S
C685 C684 1.363 . S
C685 C691 1.428 . S
H686 C682 0.930 . S
H687 C684 0.929 . S
S688 N689 1.613 . S
S688 N690 1.610 . S
N689 S688 1.613 . S
N689 C692 1.350 . S
N690 S688 1.610 . S
N690 C691 1.351 1_554 S
C691 C685 1.428 . S
C691 N690 1.351 1_556 S
C691 C692 1.434 1_556 S
C692 C683 1.429 . S
C692 N689 1.350 . S
C692 C691 1.434 1_554 S
C693 C694 1.369 . S
C693 C695 1.419 . S
C693 H697 0.930 . S
C694 C693 1.369 . S
C694 C703 1.429 . S
C695 C693 1.419 . S
C695 C696 1.363 . S
C695 H698 0.929 . S
C696 C695 1.363 . S
C696 C702 1.428 . S
H697 C693 0.930 . S
H698 C695 0.929 . S
S699 N700 1.613 . S
S699 N701 1.610 . S
N700 S699 1.613 . S
N700 C703 1.350 . S
N701 S699 1.610 . S
N701 C702 1.351 . S
C702 C696 1.428 . S
C702 N701 1.351 . S
C702 C703 1.434 . S
C703 C694 1.429 . S
C703 N700 1.350 . S
C703 C702 1.434 . S
C704 C705 1.369 . S
C704 C706 1.419 . S
C704 H708 0.930 . S
C705 C704 1.369 . S
C705 C714 1.429 1_554 S
C706 C704 1.419 . S
C706 C707 1.363 . S
C706 H709 0.929 . S
C707 C706 1.363 . S
C707 C713 1.428 1_554 S
H708 C704 0.930 . S
H709 C706 0.929 . S
S710 N711 1.613 . S
S710 N712 1.610 . S
N711 S710 1.613 . S
N711 C714 1.349 . S
N712 S710 1.610 . S
N712 C713 1.351 . S
C713 C707 1.428 1_556 S
C713 N712 1.351 . S
C713 C714 1.434 . S
C714 C705 1.429 1_556 S
C714 N711 1.349 . S
C714 C713 1.434 . S
C715 C716 1.369 . S
C715 C717 1.419 . S
C715 H719 0.930 . S
C716 C715 1.369 . S
C716 C725 1.429 . S
C717 C715 1.419 . S
C717 C718 1.363 . S
C717 H720 0.929 . S
C718 C717 1.363 . S
C718 C724 1.428 . S
H719 C715 0.930 . S
H720 C717 0.929 . S
S721 N722 1.613 . S
S721 N723 1.610 . S
N722 S721 1.613 . S
N722 C725 1.350 . S
N723 S721 1.610 . S
N723 C724 1.351 . S
C724 C718 1.428 . S
C724 N723 1.351 . S
C724 C725 1.434 . S
C725 C716 1.429 . S
C725 N722 1.350 . S
C725 C724 1.434 . S
C726 C727 1.369 . S
C726 C728 1.419 . S
C726 H730 0.930 . S
C727 C726 1.369 . S
C727 C736 1.429 . S
C728 C726 1.419 . S
C728 C729 1.363 . S
C728 H731 0.929 . S
C729 C728 1.363 . S
C729 C735 1.428 . S
H730 C726 0.930 . S
H731 C728 0.929 . S
S732 N733 1.613 . S
S732 N734 1.610 . S
N733 S732 1.613 . S
N733 C736 1.350 1_565 S
N734 S732 1.610 . S
N734 C735 1.351 1_565 S
C735 C729 1.428 . S
C735 N734 1.351 1_545 S
C735 C736 1.434 . S
C736 C727 1.429 . S
C736 N733 1.350 1_545 S
C736 C735 1.434 . S
C737 C738 1.369 . S
C737 C739 1.419 . S
C737 H741 0.930 . S
C738 C737 1.369 . S
C738 C747 1.429 . S
C739 C737 1.419 . S
C739 C740 1.363 . S
C739 H742 0.929 . S
C740 C739 1.363 . S
C740 C746 1.428 . S
H741 C737 0.930 . S
H742 C739 0.929 . S
S743 N744 1.613 . S
S743 N745 1.610 . S
N744 S743 1.613 . S
N744 C747 1.350 . S
N745 S743 1.610 . S
N745 C746 1.351 . S
C746 C740 1.428 . S
C746 N745 1.351 . S
C746 C747 1.434 . S
C747 C738 1.429 . S
C747 N744 1.350 . S
C747 C746 1.434 . S
C748 C749 1.369 . S
C748 C750 1.419 1_655 S
C748 H752 0.930 1_655 S
C749 C748 1.369 . S
C749 C758 1.429 . S
C750 C748 1.419 1_455 S
C750 C751 1.363 1_455 S
C750 H753 0.929 . S
C751 C750 1.363 1_655 S
C751 C757 1.428 . S
H752 C748 0.930 1_455 S
H753 C750 0.929 . S
S754 N755 1.613 . S
S754 N756 1.610 . S
N755 S754 1.613 . S
N755 C758 1.350 . S
N756 S754 1.610 . S
N756 C757 1.351 . S
C757 C751 1.428 . S
C757 N756 1.351 . S
C757 C758 1.434 . S
C758 C749 1.429 . S
C758 N755 1.350 . S
C758 C757 1.434 . S
C759 C760 1.369 1_565 S
C759 C761 1.419 . S
C759 H763 0.930 . S
C760 C759 1.369 1_545 S
C760 C769 1.429 . S
C761 C759 1.419 . S
C761 C762 1.363 . S
C761 H764 0.929 . S
C762 C761 1.363 . S
C762 C768 1.428 1_565 S
H763 C759 0.930 . S
H764 C761 0.929 . S
S765 N766 1.613 . S
S765 N767 1.610 . S
N766 S765 1.613 . S
N766 C769 1.350 . S
N767 S765 1.610 . S
N767 C768 1.351 . S
C768 C762 1.428 1_545 S
C768 N767 1.351 . S
C768 C769 1.434 . S
C769 C760 1.429 . S
C769 N766 1.350 . S
C769 C768 1.434 . S
C770 C771 1.369 . S
C770 C772 1.419 . S
C770 H774 0.930 . S
C771 C770 1.369 . S
C771 C780 1.429 . S
C772 C770 1.419 . S
C772 C773 1.363 . S
C772 H775 0.929 . S
C773 C772 1.363 . S
C773 C779 1.428 . S
H774 C770 0.930 . S
H775 C772 0.929 . S
S776 N777 1.613 . S
S776 N778 1.610 . S
N777 S776 1.613 . S
N777 C780 1.350 . S
N778 S776 1.610 . S
N778 C779 1.351 . S
C779 C773 1.428 . S
C779 N778 1.351 . S
C779 C780 1.434 . S
C780 C771 1.429 . S
C780 N777 1.350 . S
C780 C779 1.434 . S
C781 C782 1.369 . S
C781 C783 1.419 . S
C781 H785 0.930 . S
C782 C781 1.369 . S
C782 C791 1.429 . S
C783 C781 1.419 . S
C783 C784 1.363 . S
C783 H786 0.929 . S
C784 C783 1.363 . S
C784 C790 1.428 . S
H785 C781 0.930 . S
H786 C783 0.929 . S
S787 N788 1.613 . S
S787 N789 1.610 . S
N788 S787 1.613 . S
N788 C791 1.350 . S
N789 S787 1.610 . S
N789 C790 1.351 . S
C790 C784 1.428 . S
C790 N789 1.351 . S
C790 C791 1.434 . S
C791 C782 1.429 . S
C791 N788 1.350 . S
C791 C790 1.434 . S
C529 C13 2.226 . S
C531 C147 2.149 . S
C540 C27 1.464 . S
C542 C221 1.396 . S
C553 C271 1.765 . S
C551 C29 1.850 . S
C564 C357 1.460 . S
C562 C54 1.483 . S
C575 C449 1.835 . S
C573 C69 1.833 . S
C586 C493 1.790 . S
C584 C83 1.870 . S
C595 C15 1.497 . S
C597 C295 1.364 . S
C606 C41 2.413 . S
C608 C375 2.360 . S
C619 C431 1.442 . S
C617 C42 1.440 . S
C630 C517 1.518 . S
C628 C57 1.570 . S
C639 C71 2.232 . S
C641 C123 2.089 . S
C652 C197 1.824 . S
C650 C1 1.866 . S
C663 C369 2.042 . S
C661 C12 2.297 . S
C672 C26 2.326 . S
C674 C419 2.095 . S
C685 C523 2.268 . S
C683 C28 2.423 . S
C694 C55 1.580 . S
C696 C135 1.501 . S
C705 C68 2.175 . S
C707 C209 2.036 1_554 S
C716 C82 2.415 . S
C718 C301 2.261 . S
C727 C14 2.113 . S
C729 C505 1.973 . S
C740 C153 2.068 . S
C738 C40 2.115 . S
C749 C43 2.442 . S
C751 C227 2.270 . S
C760 C56 2.051 . S
C762 C283 1.884 . S
C771 C70 1.832 . S
C773 C345 1.584 . S
C782 C0 2.287 . S
C784 C443 2.079 . S
