# Generated by pormake.
# Topology pyr, (3,6)-cn, num edge types: 1
# Building blocks:
#     Node 0, Type 0, BuildingBlock: BELTOD_clean_linker_0, # of connection points: 3
#     Node 1, Type 0, BuildingBlock: BELTOD_clean_linker_0, # of connection points: 3
#     Node 2, Type 0, BuildingBlock: BELTOD_clean_linker_0, # of connection points: 3
#     Node 3, Type 0, BuildingBlock: BELTOD_clean_linker_0, # of connection points: 3
#     Node 4, Type 0, BuildingBlock: BELTOD_clean_linker_0, # of connection points: 3
#     Node 5, Type 0, BuildingBlock: BELTOD_clean_linker_0, # of connection points: 3
#     Node 6, Type 0, BuildingBlock: BELTOD_clean_linker_0, # of connection points: 3
#     Node 7, Type 0, BuildingBlock: BELTOD_clean_linker_0, # of connection points: 3
#     Node 8, Type 1, BuildingBlock: BETDEL_clean_sbu_0, # of connection points: 6
#     Node 9, Type 1, BuildingBlock: BETDEL_clean_sbu_0, # of connection points: 6
#     Node 10, Type 1, BuildingBlock: BETDEL_clean_sbu_0, # of connection points: 6
#     Node 11, Type 1, BuildingBlock: BETDEL_clean_sbu_0, # of connection points: 6
#     Edge 12, Type (0, 1), BuildingBlock: OJICUG_clean_linker_0, # of connection points: 2
#     Edge 13, Type (0, 1), BuildingBlock: OJICUG_clean_linker_0, # of connection points: 2
#     Edge 14, Type (0, 1), BuildingBlock: OJICUG_clean_linker_0, # of connection points: 2
#     Edge 15, Type (0, 1), BuildingBlock: OJICUG_clean_linker_0, # of connection points: 2
#     Edge 16, Type (0, 1), BuildingBlock: OJICUG_clean_linker_0, # of connection points: 2
#     Edge 17, Type (0, 1), BuildingBlock: OJICUG_clean_linker_0, # of connection points: 2
#     Edge 18, Type (0, 1), BuildingBlock: OJICUG_clean_linker_0, # of connection points: 2
#     Edge 19, Type (0, 1), BuildingBlock: OJICUG_clean_linker_0, # of connection points: 2
#     Edge 20, Type (0, 1), BuildingBlock: OJICUG_clean_linker_0, # of connection points: 2
#     Edge 21, Type (0, 1), BuildingBlock: OJICUG_clean_linker_0, # of connection points: 2
#     Edge 22, Type (0, 1), BuildingBlock: OJICUG_clean_linker_0, # of connection points: 2
#     Edge 23, Type (0, 1), BuildingBlock: OJICUG_clean_linker_0, # of connection points: 2
#     Edge 24, Type (0, 1), BuildingBlock: OJICUG_clean_linker_0, # of connection points: 2
#     Edge 25, Type (0, 1), BuildingBlock: OJICUG_clean_linker_0, # of connection points: 2
#     Edge 26, Type (0, 1), BuildingBlock: OJICUG_clean_linker_0, # of connection points: 2
#     Edge 27, Type (0, 1), BuildingBlock: OJICUG_clean_linker_0, # of connection points: 2
#     Edge 28, Type (0, 1), BuildingBlock: OJICUG_clean_linker_0, # of connection points: 2
#     Edge 29, Type (0, 1), BuildingBlock: OJICUG_clean_linker_0, # of connection points: 2
#     Edge 30, Type (0, 1), BuildingBlock: OJICUG_clean_linker_0, # of connection points: 2
#     Edge 31, Type (0, 1), BuildingBlock: OJICUG_clean_linker_0, # of connection points: 2
#     Edge 32, Type (0, 1), BuildingBlock: OJICUG_clean_linker_0, # of connection points: 2
#     Edge 33, Type (0, 1), BuildingBlock: OJICUG_clean_linker_0, # of connection points: 2
#     Edge 34, Type (0, 1), BuildingBlock: OJICUG_clean_linker_0, # of connection points: 2
#     Edge 35, Type (0, 1), BuildingBlock: OJICUG_clean_linker_0, # of connection points: 2
# Relax obj value: 0.034
# Max RMSD: 0.095
# Mean RMSD: 0.041
data_MOF--net-pyr--node1-BETDEL_clean_sbu_0--node2-BELTOD_clean_linker_0--edge1-OJICUG_clean_linker_0
_symmetry_space_group_name_H-M    P1
_symmetry_Int_Tables_number       1
_symmetry_cell_setting            triclinic
loop_
_symmetry_equiv_pos_as_xyz
'x, y, z'
_cell_length_a     31.928592
_cell_length_b     33.363399
_cell_length_c     30.235636
_cell_angle_alpha  91.009625
_cell_angle_beta   89.080966
_cell_angle_gamma 96.046128
loop_
_atom_site_label
_atom_site_type_symbol
_atom_site_fract_x
_atom_site_fract_y
_atom_site_fract_z
_atom_type_partial_charge
P0 P 0.26633 0.26684 0.23453 0.0
H1 H 0.35252 0.27391 0.19799 0.0
H2 H 0.39156 0.22656 0.15544 0.0
H3 H 0.28104 0.13958 0.15562 0.0
H4 H 0.24206 0.18746 0.19596 0.0
H5 H 0.22651 0.34091 0.24693 0.0
H6 H 0.17304 0.37054 0.20449 0.0
H7 H 0.17905 0.27757 0.10403 0.0
H8 H 0.232 0.24844 0.14585 0.0
H9 H 0.28394 0.1982 0.28608 0.0
H10 H 0.17787 0.26554 0.26579 0.0
O11 O 0.29921 0.29961 0.26281 0.0
H12 H 0.23777 0.1444 0.31889 0.0
H13 H 0.13189 0.21395 0.3031 0.0
C14 C 0.29493 0.23369 0.20113 0.0
C15 C 0.3368 0.24474 0.18858 0.0
C16 C 0.359 0.2176 0.16445 0.0
C17 C 0.33948 0.1791 0.1527 0.0
C18 C 0.29694 0.16898 0.16386 0.0
C19 C 0.27482 0.19616 0.18755 0.0
C20 C 0.23356 0.2927 0.19954 0.0
C21 C 0.2169 0.32747 0.21534 0.0
C22 C 0.18609 0.34401 0.1914 0.0
C23 C 0.17182 0.32601 0.15125 0.0
C24 C 0.18969 0.29209 0.13478 0.0
C25 C 0.2201 0.27541 0.15887 0.0
C26 C 0.23421 0.23518 0.27202 0.0
C27 C 0.25078 0.20197 0.28999 0.0
C28 C 0.22411 0.17114 0.30911 0.0
C29 C 0.18047 0.17396 0.31282 0.0
C30 C 0.16484 0.20959 0.29902 0.0
C31 C 0.1914 0.23971 0.27831 0.0
P32 P 0.30136 0.83632 0.65305 0.0
H33 H 0.37437 0.83649 0.70822 0.0
H34 H 0.38818 0.85622 0.78508 0.0
H35 H 0.25998 0.88511 0.80115 0.0
H36 H 0.24622 0.86506 0.72399 0.0
H37 H 0.29777 0.78645 0.57329 0.0
H38 H 0.32042 0.71953 0.55905 0.0
H39 H 0.33027 0.70251 0.69956 0.0
H40 H 0.30667 0.76871 0.71374 0.0
H41 H 0.29256 0.90985 0.60653 0.0
H42 H 0.21028 0.80906 0.65549 0.0
O43 O 0.34338 0.85737 0.62523 0.0
H44 H 0.23232 0.94186 0.58273 0.0
H45 H 0.14868 0.84204 0.63293 0.0
C46 C 0.30954 0.84985 0.71028 0.0
C47 C 0.34916 0.84686 0.72835 0.0
C48 C 0.35684 0.85767 0.7724 0.0
C49 C 0.32504 0.87197 0.79914 0.0
C50 C 0.28503 0.87424 0.78119 0.0
C51 C 0.27722 0.86292 0.73707 0.0
C52 C 0.30119 0.78288 0.64443 0.0
C53 C 0.30309 0.76763 0.60107 0.0
C54 C 0.31612 0.72944 0.59298 0.0
C55 C 0.32779 0.70629 0.62826 0.0
C56 C 0.32202 0.7201 0.67182 0.0
C57 C 0.30851 0.75803 0.67986 0.0
C58 C 0.25588 0.85684 0.63218 0.0
C59 C 0.26138 0.89442 0.61193 0.0
C60 C 0.22671 0.91303 0.5989 0.0
C61 C 0.18552 0.8949 0.60667 0.0
C62 C 0.17998 0.85676 0.62641 0.0
C63 C 0.21504 0.83788 0.63924 0.0
P64 P 0.67162 0.30113 0.81022 0.0
H65 H 0.75895 0.2869 0.82436 0.0
H66 H 0.81574 0.32293 0.8668 0.0
H67 H 0.73023 0.40618 0.91576 0.0
H68 H 0.67341 0.36998 0.87249 0.0
H69 H 0.61365 0.23267 0.78168 0.0
H70 H 0.57265 0.17813 0.82134 0.0
H71 H 0.62074 0.22813 0.9453 0.0
H72 H 0.66045 0.28375 0.90573 0.0
H73 H 0.69459 0.38375 0.78068 0.0
H74 H 0.5844 0.29692 0.77802 0.0
O75 O 0.69528 0.27752 0.76928 0.0
H76 H 0.65967 0.42767 0.73249 0.0
H77 H 0.55043 0.34004 0.72833 0.0
C78 C 0.71228 0.32638 0.84448 0.0
C79 C 0.75235 0.31287 0.84424 0.0
C80 C 0.78475 0.33334 0.86885 0.0
C81 C 0.77762 0.36763 0.89447 0.0
C82 C 0.73692 0.38029 0.89579 0.0
C83 C 0.70443 0.3596 0.87122 0.0
C84 C 0.63965 0.26272 0.84065 0.0
C85 C 0.61476 0.23245 0.81746 0.0
C86 C 0.59153 0.20118 0.84008 0.0
C87 C 0.59361 0.19899 0.88632 0.0
C88 C 0.61877 0.22912 0.90961 0.0
C89 C 0.6413 0.26099 0.88697 0.0
C90 C 0.64196 0.33716 0.78393 0.0
C91 C 0.66245 0.3746 0.77106 0.0
C92 C 0.64258 0.39971 0.74337 0.0
C93 C 0.60239 0.38722 0.72697 0.0
C94 C 0.58138 0.35038 0.74085 0.0
C95 C 0.6009 0.32568 0.76927 0.0
P96 P 0.801 0.69121 0.29623 0.0
H97 H 0.82203 0.77553 0.27215 0.0
H98 H 0.86168 0.83278 0.30896 0.0
H99 H 0.89437 0.75444 0.41244 0.0
H100 H 0.85378 0.69723 0.37553 0.0
H101 H 0.82464 0.69695 0.2029 0.0
H102 H 0.86297 0.65526 0.15277 0.0
H103 H 0.88595 0.57841 0.26136 0.0
H104 H 0.84726 0.62053 0.31155 0.0
H105 H 0.7636 0.71349 0.38086 0.0
H106 H 0.7635 0.60664 0.29866 0.0
O107 O 0.76693 0.71131 0.26412 0.0
H108 H 0.71105 0.67857 0.42972 0.0
H109 H 0.71212 0.57078 0.34841 0.0
C110 C 0.83418 0.73226 0.3216 0.0
C111 C 0.83783 0.77058 0.30269 0.0
C112 C 0.86086 0.80334 0.32366 0.0
C113 C 0.881 0.79846 0.36398 0.0
C114 C 0.87863 0.75953 0.3819 0.0
C115 C 0.85564 0.72671 0.36075 0.0
C116 C 0.83208 0.66124 0.26075 0.0
C117 C 0.83791 0.67115 0.21603 0.0
C118 C 0.86014 0.64739 0.18737 0.0
C119 C 0.87724 0.61319 0.20286 0.0
C120 C 0.87253 0.60409 0.24815 0.0
C121 C 0.85053 0.62819 0.27692 0.0
C122 C 0.76883 0.66238 0.33683 0.0
C123 C 0.75345 0.68201 0.37415 0.0
C124 C 0.72321 0.66187 0.40221 0.0
C125 C 0.7072 0.6216 0.39338 0.0
C126 C 0.7233 0.60182 0.35624 0.0
C127 C 0.75335 0.62215 0.32802 0.0
P128 P 0.83001 0.87724 0.93277 0.0
H129 H 0.76594 0.83287 0.98791 0.0
H130 H 0.69 0.83521 0.99521 0.0
H131 H 0.69509 0.92056 0.88877 0.0
H132 H 0.77025 0.91649 0.88023 0.0
H133 H 0.90858 0.85413 0.96603 0.0
H134 H 0.93652 0.7888 0.97139 0.0
H135 H 0.82011 0.72951 0.92012 0.0
H136 H 0.79265 0.79475 0.91408 0.0
H137 H 0.86576 0.95633 0.90189 0.0
H138 H 0.83624 0.83643 0.84745 0.0
O139 O 0.84833 0.90915 0.97276 0.0
H140 H 0.8918 0.97981 0.82912 0.0
H141 H 0.86231 0.85957 0.77509 0.0
C142 C 0.77363 0.87423 0.93336 0.0
C143 C 0.75041 0.85103 0.96522 0.0
C144 C 0.70705 0.85244 0.96937 0.0
C145 C 0.68654 0.87823 0.94272 0.0
C146 C 0.70967 0.89982 0.90929 0.0
C147 C 0.75292 0.89791 0.90476 0.0
C148 C 0.84811 0.82902 0.94117 0.0
C149 C 0.8889 0.82698 0.95661 0.0
C150 C 0.90493 0.78983 0.95922 0.0
C151 C 0.88027 0.75433 0.94633 0.0
C152 C 0.8394 0.75648 0.93085 0.0
C153 C 0.82362 0.79368 0.92776 0.0
C154 C 0.85022 0.89448 0.88015 0.0
C155 C 0.86527 0.93504 0.87442 0.0
C156 C 0.87978 0.94844 0.8329 0.0
C157 C 0.87938 0.92133 0.79679 0.0
C158 C 0.86365 0.88086 0.80264 0.0
C159 C 0.84884 0.86763 0.84396 0.0
P160 P 0.79713 0.25204 0.30365 0.0
H161 H 0.77899 0.3336 0.28577 0.0
H162 H 0.72755 0.37543 0.31789 0.0
H163 H 0.69681 0.28709 0.41926 0.0
H164 H 0.74871 0.24548 0.38709 0.0
H165 H 0.78944 0.1632 0.29986 0.0
H166 H 0.82018 0.11342 0.34305 0.0
H167 H 0.88206 0.20843 0.42504 0.0
H168 H 0.85089 0.25874 0.38133 0.0
H169 H 0.80483 0.22859 0.20988 0.0
H170 H 0.70986 0.21814 0.31338 0.0
O171 O 0.83715 0.27745 0.27658 0.0
H172 H 0.75677 0.18734 0.16058 0.0
H173 H 0.66183 0.17843 0.26447 0.0
C174 C 0.76824 0.28686 0.33455 0.0
C175 C 0.76221 0.32387 0.31577 0.0
C176 C 0.73261 0.34763 0.33399 0.0
C177 C 0.70797 0.33435 0.37088 0.0
C178 C 0.71511 0.29786 0.39057 0.0
C179 C 0.74516 0.27436 0.37262 0.0
C180 C 0.81747 0.2149 0.33765 0.0
C181 C 0.80906 0.17365 0.32741 0.0
C182 C 0.82664 0.14497 0.35224 0.0
C183 C 0.85344 0.15696 0.38749 0.0
C184 C 0.86173 0.19832 0.39783 0.0
C185 C 0.84381 0.22705 0.37309 0.0
C186 C 0.76064 0.22705 0.265 0.0
C187 C 0.77341 0.21824 0.22166 0.0
C188 C 0.74598 0.19473 0.19358 0.0
C189 C 0.70569 0.17945 0.20884 0.0
C190 C 0.69288 0.18927 0.25197 0.0
C191 C 0.72019 0.21254 0.27984 0.0
P192 P 0.36898 0.66187 0.14165 0.0
H193 H 0.3096 0.69404 0.08223 0.0
H194 H 0.23824 0.66887 0.05979 0.0
H195 H 0.23556 0.57535 0.15716 0.0
H196 H 0.30701 0.59964 0.17816 0.0
H197 H 0.44821 0.7031 0.11124 0.0
H198 H 0.47325 0.7737 0.10014 0.0
H199 H 0.35443 0.80836 0.14988 0.0
H200 H 0.32925 0.73685 0.16061 0.0
H201 H 0.44177 0.62134 0.16553 0.0
H202 H 0.33431 0.66356 0.23267 0.0
O203 O 0.39245 0.6373 0.1013 0.0
H204 H 0.46263 0.59173 0.23368 0.0
H205 H 0.35412 0.63255 0.30119 0.0
C206 C 0.31329 0.64967 0.13298 0.0
C207 C 0.29313 0.66891 0.0997 0.0
C208 C 0.25231 0.65441 0.0868 0.0
C209 C 0.23119 0.61997 0.10653 0.0
C210 C 0.25105 0.60167 0.1409 0.0
C211 C 0.29182 0.61603 0.15353 0.0
C212 C 0.38664 0.71469 0.13596 0.0
C213 C 0.42743 0.7258 0.11974 0.0
C214 C 0.44181 0.76629 0.11364 0.0
C215 C 0.41583 0.79676 0.12407 0.0
C216 C 0.37499 0.78559 0.141 0.0
C217 C 0.36065 0.74481 0.14731 0.0
C218 C 0.38585 0.64372 0.19372 0.0
C219 C 0.42247 0.62407 0.19498 0.0
C220 C 0.43421 0.60681 0.23405 0.0
C221 C 0.40955 0.60878 0.27289 0.0
C222 C 0.37387 0.6303 0.27201 0.0
C223 C 0.36235 0.64791 0.2328 0.0
P224 P 0.20092 0.31933 0.71663 0.0
H225 H 0.21883 0.26902 0.64038 0.0
H226 H 0.17785 0.21373 0.60162 0.0
H227 H 0.07074 0.22949 0.68681 0.0
H228 H 0.112 0.28509 0.72547 0.0
H229 H 0.28563 0.35845 0.73111 0.0
H230 H 0.33881 0.39282 0.68237 0.0
H231 H 0.24968 0.38334 0.57566 0.0
H232 H 0.19648 0.34843 0.62495 0.0
H233 H 0.16903 0.30719 0.80677 0.0
H234 H 0.16477 0.39653 0.70621 0.0
O235 O 0.23003 0.29329 0.74867 0.0
H236 H 0.12986 0.34729 0.8577 0.0
H237 H 0.12445 0.43669 0.75677 0.0
C238 C 0.1682 0.28213 0.68496 0.0
C239 C 0.18623 0.26128 0.6501 0.0
C240 C 0.16276 0.22952 0.62803 0.0
C241 C 0.12089 0.21731 0.64092 0.0
C242 C 0.10293 0.23806 0.67615 0.0
C243 C 0.12641 0.27017 0.698 0.0
C244 C 0.23735 0.35009 0.68149 0.0
C245 C 0.27733 0.36407 0.69735 0.0
C246 C 0.30773 0.38398 0.66938 0.0
C247 C 0.29879 0.39064 0.6248 0.0
C248 C 0.25795 0.37811 0.60952 0.0
C249 C 0.2274 0.35832 0.63774 0.0
C250 C 0.17056 0.34923 0.75296 0.0
C251 C 0.15958 0.33551 0.79561 0.0
C252 C 0.13675 0.35837 0.82465 0.0
C253 C 0.12401 0.39545 0.81161 0.0
C254 C 0.13432 0.40867 0.76832 0.0
C255 C 0.15724 0.38567 0.73923 0.0
Dy256 Dy 0.02449 0.02117 0.46565 0.0
C257 C 0.94028 0.97237 0.6249 0.0
C258 C 0.06653 0.04978 0.39192 0.0
Dy259 Dy 0.97055 0.99652 0.54416 0.0
O260 O 0.07898 0.02341 0.41832 0.0
O261 O 0.02951 0.05885 0.40443 0.0
O262 O 0.08124 0.01421 0.50538 0.0
O263 O 0.0267 0.97407 0.51518 0.0
C264 C 0.06371 0.98435 0.52814 0.0
C265 C 0.9331 0.03861 0.48437 0.0
O266 O 0.01414 0.04812 0.57284 0.0
O267 O 0.0359 0.07737 0.50661 0.0
O268 O 0.92815 1.00232 0.60342 0.0
O269 O 0.96865 0.95553 0.60224 0.0
O270 O 0.91299 0.00979 0.50716 0.0
O271 O 0.97063 0.04471 0.49677 0.0
O272 O 0.98318 0.96863 0.43618 0.0
O273 O 0.95368 0.94217 0.50145 0.0
C274 C 0.03374 0.07854 0.55032 0.0
C275 C 0.96001 0.93982 0.4581 0.0
Dy276 Dy 0.52711 0.02965 0.06022 0.0
C277 C 0.39614 0.94913 0.95393 0.0
C278 C 0.58764 0.07623 0.10546 0.0
Dy279 Dy 0.4563 0.99504 1.00102 0.0
O280 O 0.56134 0.04828 0.1226 0.0
O281 O 0.58088 0.07895 0.06349 0.0
O282 O 0.52682 0.97107 0.09441 0.0
O283 O 0.46959 0.98799 0.07059 0.0
C284 C 0.48717 0.95994 0.08796 0.0
C285 C 0.49945 0.0628 0.97064 0.0
O286 O 0.42022 0.02875 0.05078 0.0
O287 O 0.47833 0.07113 0.07302 0.0
O288 O 0.4001 0.98813 0.95683 0.0
O289 O 0.42482 0.93504 0.97736 0.0
O290 O 0.46002 0.05237 0.96288 0.0
O291 O 0.51476 0.03465 0.98999 0.0
O292 O 0.56374 0.99118 0.0181 0.0
O293 O 0.50675 0.95464 0.98373 0.0
C294 C 0.43722 0.0619 0.07111 0.0
C295 C 0.54726 0.96052 0.9936 0.0
Dy296 Dy 0.51731 0.46874 0.47651 0.0
C297 C 0.43258 0.58347 0.57615 0.0
C298 C 0.57507 0.42581 0.43525 0.0
Dy299 Dy 0.48688 0.53658 0.53537 0.0
O300 O 0.53569 0.41244 0.44195 0.0
O301 O 0.58229 0.46246 0.4503 0.0
O302 O 0.45174 0.43562 0.47661 0.0
O303 O 0.47249 0.47187 0.5309 0.0
C304 C 0.44095 0.45159 0.51429 0.0
C305 C 0.56309 0.55417 0.4976 0.0
O306 O 0.51189 0.49985 0.58873 0.0
O307 O 0.54813 0.45941 0.54149 0.0
O308 O 0.47321 0.58757 0.58134 0.0
O309 O 0.4218 0.55366 0.54914 0.0
O310 O 0.55215 0.56993 0.5352 0.0
O311 O 0.53156 0.53383 0.481 0.0
O312 O 0.48907 0.5021 0.42308 0.0
O313 O 0.45707 0.54678 0.46938 0.0
C314 C 0.53881 0.47254 0.58181 0.0
C315 C 0.46407 0.53112 0.42945 0.0
Dy316 Dy 0.00694 0.46382 0.03022 0.0
C317 C 0.94975 0.60405 0.96467 0.0
C318 C 0.04617 0.40164 0.06079 0.0
Dy319 Dy 0.98779 0.53817 0.98583 0.0
O320 O 0.01622 0.41797 0.08144 0.0
O321 O 0.05375 0.41846 0.02276 0.0
O322 O 0.95548 0.47123 0.08038 0.0
O323 O 0.99073 0.52244 0.05483 0.0
C324 C 0.95998 0.51033 0.07957 0.0
C325 C 0.03542 0.49312 0.9357 0.0
O326 O 0.04315 0.56484 0.02511 0.0
O327 O 0.0677 0.50361 0.03768 0.0
O328 O 0.9858 0.59557 0.94863 0.0
O329 O 0.93441 0.57643 0.99177 0.0
O330 O 0.03768 0.53215 0.93379 0.0
O331 O 0.00515 0.48011 0.96074 0.0
O332 O 0.95168 0.43558 0.99314 0.0
O333 O 0.92856 0.49618 0.97315 0.0
C334 C 0.07329 0.54344 0.03789 0.0
C335 C 0.92274 0.45628 0.97632 0.0
C336 C 0.16569 0.11333 0.36101 0.0
C337 C 0.15148 0.13971 0.33013 0.0
H338 H 0.15026 0.06304 0.40286 0.0
C339 C 0.10934 0.13293 0.31606 0.0
H340 H 0.19736 0.1177 0.37367 0.0
C341 C 0.0817 0.10216 0.33441 0.0
C342 C 0.0961 0.0767 0.36579 0.0
H343 H 0.09735 0.15161 0.29132 0.0
H344 H 0.04894 0.09885 0.32484 0.0
C345 C 0.13854 0.08179 0.37794 0.0
C346 C 0.36024 0.86722 0.87202 0.0
C347 C 0.33534 0.88787 0.8441 0.0
H348 H 0.39852 0.8704 0.92977 0.0
C349 C 0.32508 0.92633 0.85693 0.0
H350 H 0.36813 0.8373 0.86313 0.0
C351 C 0.34247 0.94523 0.89494 0.0
C352 C 0.37015 0.92584 0.92079 0.0
H353 H 0.30612 0.94301 0.83596 0.0
H354 H 0.3363 0.97593 0.90255 0.0
C355 C 0.3774 0.88603 0.91022 0.0
C356 C 0.57794 0.3905 0.64969 0.0
C357 C 0.58498 0.40962 0.69094 0.0
H358 H 0.55859 0.39563 0.58297 0.0
C359 C 0.57688 0.45003 0.69652 0.0
H360 H 0.58433 0.35948 0.64452 0.0
C361 C 0.56131 0.47075 0.6613 0.0
C362 C 0.55497 0.45165 0.61976 0.0
H363 H 0.5823 0.46537 0.7281 0.0
H364 H 0.55493 0.50176 0.66631 0.0
C365 C 0.56354 0.41136 0.61441 0.0
C366 C 0.92671 0.6036 0.13848 0.0
C367 C 0.89904 0.58681 0.1716 0.0
H368 H 0.9677 0.59267 0.08362 0.0
C369 C 0.89148 0.54457 0.17382 0.0
H370 H 0.93352 0.63598 0.13598 0.0
C371 C 0.9109 0.51979 0.14363 0.0
C372 C 0.93864 0.53664 0.11075 0.0
H373 H 0.86995 0.53061 0.19846 0.0
H374 H 0.90429 0.48739 0.14617 0.0
C375 C 0.94639 0.5788 0.10852 0.0
C376 C 0.34612 0.12202 0.09846 0.0
C377 C 0.36395 0.14869 0.13133 0.0
H378 H 0.3553 0.07294 0.05371 0.0
C379 C 0.40506 0.14515 0.14522 0.0
H380 H 0.31451 0.12419 0.08693 0.0
C381 C 0.42823 0.11627 0.12609 0.0
C382 C 0.41073 0.08997 0.0929 0.0
H383 H 0.41927 0.16441 0.17131 0.0
H384 H 0.46 0.11456 0.13744 0.0
C385 C 0.36931 0.09267 0.07952 0.0
C386 C 0.11397 0.89614 0.57251 0.0
C387 C 0.14921 0.91643 0.59375 0.0
H388 H 0.05813 0.90207 0.5353 0.0
C389 C 0.15157 0.95857 0.59907 0.0
H390 H 0.11118 0.86371 0.56794 0.0
C391 C 0.12191 0.98026 0.57981 0.0
C392 C 0.08859 0.9603 0.55584 0.0
H393 H 0.17748 0.97506 0.61652 0.0
H394 H 0.12599 0.0129 0.58215 0.0
C395 C 0.08363 0.918 0.55386 0.0
C396 C 0.81843 0.43299 0.91779 0.0
C397 C 0.813 0.39061 0.91841 0.0
H398 H 0.85725 0.487 0.93544 0.0
C399 C 0.84285 0.37026 0.94019 0.0
H400 H 0.79621 0.44957 0.90094 0.0
C401 C 0.87793 0.39165 0.95974 0.0
C402 C 0.88407 0.43396 0.95799 0.0
H403 H 0.83926 0.33768 0.94188 0.0
H404 H 0.90054 0.37486 0.97567 0.0
C405 C 0.85359 0.45443 0.93734 0.0
C406 C 0.66935 0.60944 0.46691 0.0
C407 C 0.67202 0.60147 0.42107 0.0
H408 H 0.63302 0.60067 0.52699 0.0
C409 C 0.63946 0.5757 0.40145 0.0
H410 H 0.69405 0.6285 0.48345 0.0
C411 C 0.6048 0.55937 0.42661 0.0
C412 C 0.6016 0.56854 0.47199 0.0
H413 H 0.63985 0.56922 0.36624 0.0
H414 H 0.57984 0.54053 0.41015 0.0
C415 C 0.6345 0.59329 0.492 0.0
C416 C 0.10126 0.35154 0.14975 0.0
C417 C 0.13765 0.34193 0.12705 0.0
H418 H 0.04279 0.37709 0.14591 0.0
C419 C 0.14132 0.34786 0.08123 0.0
H420 H 0.09739 0.34645 0.18494 0.0
C421 C 0.11002 0.36511 0.05887 0.0
C422 C 0.07459 0.37642 0.08203 0.0
H423 H 0.16911 0.34061 0.06303 0.0
H424 H 0.11441 0.37115 0.02392 0.0
C425 C 0.06985 0.36853 0.12735 0.0
C426 C 0.52616 0.15654 0.90296 0.0
C427 C 0.56957 0.16513 0.9098 0.0
H428 H 0.47002 0.11792 0.91754 0.0
C429 C 0.58993 0.14027 0.93767 0.0
H430 H 0.50975 0.17533 0.88173 0.0
C431 C 0.56735 0.10679 0.9575 0.0
C432 C 0.52388 0.09825 0.95062 0.0
H433 H 0.62349 0.14608 0.94307 0.0
H434 H 0.58398 0.08739 0.97769 0.0
C435 C 0.5035 0.12369 0.92348 0.0
C436 C 0.89858 0.83794 0.43422 0.0
C437 C 0.90275 0.83411 0.38801 0.0
H438 H 0.91293 0.87391 0.4923 0.0
C439 C 0.92651 0.8653 0.365 0.0
H440 H 0.88003 0.81492 0.45303 0.0
C441 C 0.94529 0.89949 0.38758 0.0
C442 C 0.9407 0.90343 0.43376 0.0
H443 H 0.93079 0.86324 0.32946 0.0
H444 H 0.96324 0.92288 0.36875 0.0
C445 C 0.91724 0.87208 0.45675 0.0
C446 C 0.391 0.66979 0.63913 0.0
C447 C 0.35163 0.67125 0.61935 0.0
H448 H 0.44776 0.64083 0.64059 0.0
C449 C 0.33773 0.64159 0.5879 0.0
H450 H 0.4027 0.69265 0.66305 0.0
C451 C 0.36334 0.61169 0.57546 0.0
C452 C 0.40357 0.61155 0.59362 0.0
H453 H 0.30753 0.64213 0.5722 0.0
H454 H 0.3524 0.58975 0.55025 0.0
C455 C 0.41689 0.64036 0.62612 0.0
C456 C 0.88279 0.97012 0.73476 0.0
C457 C 0.89538 0.93496 0.75301 0.0
H458 H 0.88695 0.00936 0.67919 0.0
C459 C 0.92294 0.9124 0.72893 0.0
H460 H 0.86126 0.98778 0.75262 0.0
C461 C 0.93764 0.92474 0.68721 0.0
C462 C 0.92474 0.95963 0.66882 0.0
H463 H 0.93339 0.88538 0.74255 0.0
H464 H 0.95897 0.90688 0.66931 0.0
C465 C 0.89723 0.98228 0.6928 0.0
C466 C 0.67162 0.16 0.13615 0.0
C467 C 0.67737 0.152 0.181 0.0
H468 H 0.63826 0.14202 0.07676 0.0
C469 C 0.65486 0.11788 0.19988 0.0
H470 H 0.68844 0.18617 0.12084 0.0
C471 C 0.62611 0.09306 0.17496 0.0
C472 C 0.61954 0.10162 0.13057 0.0
H473 H 0.65933 0.11043 0.23409 0.0
H474 H 0.60881 0.06729 0.1906 0.0
C475 C 0.64287 0.13492 0.11106 0.0
C476 C 0.41631 0.60526 0.35594 0.0
C477 C 0.421 0.5879 0.31363 0.0
H478 H 0.42587 0.60099 0.42562 0.0
C479 C 0.43753 0.55044 0.31032 0.0
H480 H 0.40399 0.63415 0.35985 0.0
C481 C 0.45045 0.53161 0.34796 0.0
C482 C 0.44686 0.54949 0.3901 0.0
H483 H 0.44066 0.53557 0.2785 0.0
H484 H 0.46369 0.50317 0.34387 0.0
C485 C 0.42899 0.58624 0.39372 0.0
C486 C 0.07031 0.40227 0.87305 0.0
C487 C 0.10082 0.42041 0.84334 0.0
H488 H 0.0258 0.41088 0.92552 0.0
C489 C 0.10963 0.46263 0.84485 0.0
H490 H 0.06229 0.36992 0.87261 0.0
C491 C 0.08856 0.48602 0.87504 0.0
C492 C 0.05809 0.46786 0.90453 0.0
H493 H 0.13336 0.47767 0.82313 0.0
H494 H 0.09622 0.51843 0.87531 0.0
C495 C 0.04923 0.42572 0.9033 0.0
C496 C 0.61554 0.89902 0.92347 0.0
C497 C 0.64425 0.88921 0.95548 0.0
H498 H 0.56091 0.92947 0.91072 0.0
C499 C 0.63572 0.897 1.00035 0.0
H500 H 0.62116 0.89296 0.88869 0.0
C501 C 0.60181 0.91771 0.01257 0.0
C502 C 0.57557 0.93075 0.98035 0.0
H503 H 0.65723 0.89036 0.02589 0.0
H504 H 0.59761 0.92578 0.04714 0.0
C505 C 0.58111 0.91964 0.93594 0.0
C506 C 0.85038 0.09032 0.42559 0.0
C507 C 0.87367 0.12638 0.4123 0.0
H508 H 0.85098 0.03411 0.45892 0.0
C509 C 0.91676 0.13267 0.42194 0.0
H510 H 0.81706 0.08474 0.41874 0.0
C511 C 0.93612 0.10366 0.44454 0.0
C512 C 0.91273 0.0679 0.45835 0.0
H513 H 0.93566 0.15983 0.41153 0.0
H514 H 0.96938 0.10948 0.45162 0.0
C515 C 0.86972 0.06139 0.44857 0.0
C516 C 0.18332 0.55892 0.08421 0.0
C517 C 0.1903 0.60105 0.08909 0.0
H518 H 0.14151 0.50799 0.06426 0.0
C519 C 0.15852 0.62445 0.07621 0.0
H520 H 0.20741 0.53996 0.09276 0.0
C521 C 0.12046 0.60599 0.05932 0.0
C522 C 0.11353 0.56377 0.05488 0.0
H523 H 0.16287 0.65698 0.07967 0.0
H524 H 0.09646 0.62475 0.05002 0.0
C525 C 0.1455 0.54056 0.06745 0.0
C526 C 0.3375 0.39379 0.55105 0.0
C527 C 0.33266 0.40904 0.5944 0.0
H528 H 0.37546 0.39527 0.49159 0.0
C529 C 0.36215 0.44043 0.60948 0.0
H530 H 0.31565 0.36942 0.5384 0.0
C531 C 0.39642 0.45496 0.58279 0.0
C532 C 0.40216 0.43863 0.54022 0.0
H533 H 0.3591 0.45346 0.64228 0.0
H534 H 0.41902 0.47845 0.596 0.0
C535 C 0.37189 0.40844 0.52425 0.0
C536 C 0.87366 0.68268 0.9696 0.0
C537 C 0.89724 0.71513 0.94888 0.0
H538 H 0.87218 0.62174 0.99093 0.0
C539 C 0.93735 0.71015 0.9313 0.0
H540 H 0.84272 0.68597 0.98355 0.0
C541 C 0.95398 0.67339 0.93508 0.0
C542 C 0.93088 0.64137 0.95696 0.0
H543 H 0.95584 0.73473 0.91476 0.0
H544 H 0.98526 0.67035 0.92188 0.0
C545 C 0.89049 0.6461 0.97385 0.0
C546 C 0.47373 0.85328 0.12919 0.0
C547 C 0.43212 0.83981 0.1176 0.0
H548 H 0.5233 0.90145 0.1289 0.0
C549 C 0.40748 0.86718 0.09809 0.0
H550 H 0.49335 0.8333 0.14499 0.0
C551 C 0.42474 0.90675 0.08903 0.0
C552 C 0.46683 0.9195 0.09948 0.0
H553 H 0.37537 0.85765 0.08858 0.0
H554 H 0.40553 0.92701 0.07311 0.0
C555 C 0.49085 0.89249 0.12015 0.0
C556 C 0.07219 0.15258 0.64198 0.0
C557 C 0.09663 0.1826 0.61797 0.0
H558 H 0.03338 0.096 0.6397 0.0
C559 C 0.09898 0.17858 0.57169 0.0
H560 H 0.07002 0.15461 0.67772 0.0
C561 C 0.07806 0.14516 0.54997 0.0
C562 C 0.05432 0.11465 0.57392 0.0
H563 H 0.11708 0.20137 0.55215 0.0
H564 H 0.081 0.14312 0.51429 0.0
C565 C 0.05139 0.11887 0.62021 0.0
C566 C 0.68087 0.39969 0.393 0.0
C567 C 0.67369 0.35768 0.38734 0.0
H568 H 0.65511 0.45407 0.4126 0.0
C569 C 0.63325 0.33825 0.39633 0.0
H570 H 0.71173 0.41542 0.38646 0.0
C571 C 0.60066 0.36045 0.41083 0.0
C572 C 0.60814 0.40234 0.41703 0.0
H573 H 0.6267 0.30595 0.39165 0.0
H574 H 0.56986 0.34478 0.41781 0.0
C575 C 0.64848 0.42176 0.40794 0.0
loop_
_geom_bond_atom_site_label_1
_geom_bond_atom_site_label_2
_geom_bond_distance
_geom_bond_site_symmetry_2
_ccdc_geom_bond_type
P0 O11 1.490 . S
P0 C14 1.812 . S
P0 C20 1.803 . S
P0 C26 1.819 . S
H1 C15 0.941 . S
H2 C16 0.939 . S
H3 C18 0.940 . S
H4 C19 0.940 . S
H5 C21 0.939 . S
H6 C22 0.942 . S
H7 C24 0.940 . S
H8 C25 0.939 . S
H9 C27 0.941 . S
H10 C31 0.939 . S
O11 P0 1.490 . S
H12 C28 0.939 . S
H13 C30 0.940 . S
C14 P0 1.812 . S
C14 C15 1.389 . S
C14 C19 1.391 . S
C15 H1 0.941 . S
C15 C14 1.389 . S
C15 C16 1.397 . S
C16 H2 0.939 . S
C16 C15 1.397 . S
C16 C17 1.378 . S
C17 C16 1.378 . S
C17 C18 1.378 . S
C18 H3 0.940 . S
C18 C17 1.378 . S
C18 C19 1.396 . S
C19 H4 0.940 . S
C19 C14 1.391 . S
C19 C18 1.396 . S
C20 P0 1.803 . S
C20 C21 1.378 . S
C20 C25 1.400 . S
C21 H5 0.939 . S
C21 C20 1.378 . S
C21 C22 1.361 . S
C22 H6 0.942 . S
C22 C21 1.361 . S
C22 C23 1.369 . S
C23 C22 1.369 . S
C23 C24 1.404 . S
C24 H7 0.940 . S
C24 C23 1.404 . S
C24 C25 1.389 . S
C25 H8 0.939 . S
C25 C20 1.400 . S
C25 C24 1.389 . S
C26 P0 1.819 . S
C26 C27 1.391 . S
C26 C31 1.391 . S
C27 H9 0.941 . S
C27 C26 1.391 . S
C27 C28 1.396 . S
C28 H12 0.939 . S
C28 C27 1.396 . S
C28 C29 1.397 . S
C29 C28 1.397 . S
C29 C30 1.385 . S
C30 H13 0.940 . S
C30 C29 1.385 . S
C30 C31 1.388 . S
C31 H10 0.939 . S
C31 C26 1.391 . S
C31 C30 1.388 . S
P32 O43 1.490 . S
P32 C46 1.812 . S
P32 C52 1.803 . S
P32 C58 1.819 . S
H33 C47 0.941 . S
H34 C48 0.939 . S
H35 C50 0.940 . S
H36 C51 0.940 . S
H37 C53 0.939 . S
H38 C54 0.942 . S
H39 C56 0.940 . S
H40 C57 0.939 . S
H41 C59 0.941 . S
H42 C63 0.939 . S
O43 P32 1.490 . S
H44 C60 0.939 . S
H45 C62 0.940 . S
C46 P32 1.812 . S
C46 C47 1.389 . S
C46 C51 1.391 . S
C47 H33 0.941 . S
C47 C46 1.389 . S
C47 C48 1.397 . S
C48 H34 0.939 . S
C48 C47 1.397 . S
C48 C49 1.378 . S
C49 C48 1.378 . S
C49 C50 1.378 . S
C50 H35 0.940 . S
C50 C49 1.378 . S
C50 C51 1.396 . S
C51 H36 0.940 . S
C51 C46 1.391 . S
C51 C50 1.396 . S
C52 P32 1.803 . S
C52 C53 1.378 . S
C52 C57 1.400 . S
C53 H37 0.939 . S
C53 C52 1.378 . S
C53 C54 1.361 . S
C54 H38 0.942 . S
C54 C53 1.361 . S
C54 C55 1.369 . S
C55 C54 1.369 . S
C55 C56 1.404 . S
C56 H39 0.940 . S
C56 C55 1.404 . S
C56 C57 1.389 . S
C57 H40 0.939 . S
C57 C52 1.400 . S
C57 C56 1.389 . S
C58 P32 1.819 . S
C58 C59 1.391 . S
C58 C63 1.391 . S
C59 H41 0.941 . S
C59 C58 1.391 . S
C59 C60 1.396 . S
C60 H44 0.939 . S
C60 C59 1.396 . S
C60 C61 1.397 . S
C61 C60 1.397 . S
C61 C62 1.385 . S
C62 H45 0.940 . S
C62 C61 1.385 . S
C62 C63 1.388 . S
C63 H42 0.939 . S
C63 C58 1.391 . S
C63 C62 1.388 . S
P64 O75 1.490 . S
P64 C78 1.812 . S
P64 C84 1.803 . S
P64 C90 1.819 . S
H65 C79 0.941 . S
H66 C80 0.939 . S
H67 C82 0.940 . S
H68 C83 0.940 . S
H69 C85 0.939 . S
H70 C86 0.942 . S
H71 C88 0.940 . S
H72 C89 0.939 . S
H73 C91 0.941 . S
H74 C95 0.939 . S
O75 P64 1.490 . S
H76 C92 0.939 . S
H77 C94 0.940 . S
C78 P64 1.812 . S
C78 C79 1.389 . S
C78 C83 1.391 . S
C79 H65 0.941 . S
C79 C78 1.389 . S
C79 C80 1.397 . S
C80 H66 0.939 . S
C80 C79 1.397 . S
C80 C81 1.378 . S
C81 C80 1.378 . S
C81 C82 1.378 . S
C82 H67 0.940 . S
C82 C81 1.378 . S
C82 C83 1.396 . S
C83 H68 0.940 . S
C83 C78 1.391 . S
C83 C82 1.396 . S
C84 P64 1.803 . S
C84 C85 1.378 . S
C84 C89 1.400 . S
C85 H69 0.939 . S
C85 C84 1.378 . S
C85 C86 1.361 . S
C86 H70 0.942 . S
C86 C85 1.361 . S
C86 C87 1.369 . S
C87 C86 1.369 . S
C87 C88 1.404 . S
C88 H71 0.940 . S
C88 C87 1.404 . S
C88 C89 1.389 . S
C89 H72 0.939 . S
C89 C84 1.400 . S
C89 C88 1.389 . S
C90 P64 1.819 . S
C90 C91 1.391 . S
C90 C95 1.391 . S
C91 H73 0.941 . S
C91 C90 1.391 . S
C91 C92 1.396 . S
C92 H76 0.939 . S
C92 C91 1.396 . S
C92 C93 1.397 . S
C93 C92 1.397 . S
C93 C94 1.385 . S
C94 H77 0.940 . S
C94 C93 1.385 . S
C94 C95 1.388 . S
C95 H74 0.939 . S
C95 C90 1.391 . S
C95 C94 1.388 . S
P96 O107 1.490 . S
P96 C110 1.812 . S
P96 C116 1.803 . S
P96 C122 1.819 . S
H97 C111 0.941 . S
H98 C112 0.939 . S
H99 C114 0.940 . S
H100 C115 0.940 . S
H101 C117 0.939 . S
H102 C118 0.942 . S
H103 C120 0.940 . S
H104 C121 0.939 . S
H105 C123 0.941 . S
H106 C127 0.939 . S
O107 P96 1.490 . S
H108 C124 0.939 . S
H109 C126 0.940 . S
C110 P96 1.812 . S
C110 C111 1.389 . S
C110 C115 1.391 . S
C111 H97 0.941 . S
C111 C110 1.389 . S
C111 C112 1.397 . S
C112 H98 0.939 . S
C112 C111 1.397 . S
C112 C113 1.378 . S
C113 C112 1.378 . S
C113 C114 1.378 . S
C114 H99 0.940 . S
C114 C113 1.378 . S
C114 C115 1.396 . S
C115 H100 0.940 . S
C115 C110 1.391 . S
C115 C114 1.396 . S
C116 P96 1.803 . S
C116 C117 1.378 . S
C116 C121 1.400 . S
C117 H101 0.939 . S
C117 C116 1.378 . S
C117 C118 1.361 . S
C118 H102 0.942 . S
C118 C117 1.361 . S
C118 C119 1.369 . S
C119 C118 1.369 . S
C119 C120 1.404 . S
C120 H103 0.940 . S
C120 C119 1.404 . S
C120 C121 1.389 . S
C121 H104 0.939 . S
C121 C116 1.400 . S
C121 C120 1.389 . S
C122 P96 1.819 . S
C122 C123 1.391 . S
C122 C127 1.391 . S
C123 H105 0.941 . S
C123 C122 1.391 . S
C123 C124 1.396 . S
C124 H108 0.939 . S
C124 C123 1.396 . S
C124 C125 1.397 . S
C125 C124 1.397 . S
C125 C126 1.385 . S
C126 H109 0.940 . S
C126 C125 1.385 . S
C126 C127 1.388 . S
C127 H106 0.939 . S
C127 C122 1.391 . S
C127 C126 1.388 . S
P128 O139 1.490 . S
P128 C142 1.812 . S
P128 C148 1.803 . S
P128 C154 1.819 . S
H129 C143 0.941 . S
H130 C144 0.939 . S
H131 C146 0.940 . S
H132 C147 0.940 . S
H133 C149 0.939 . S
H134 C150 0.942 . S
H135 C152 0.940 . S
H136 C153 0.939 . S
H137 C155 0.941 . S
H138 C159 0.939 . S
O139 P128 1.490 . S
H140 C156 0.939 . S
H141 C158 0.940 . S
C142 P128 1.812 . S
C142 C143 1.389 . S
C142 C147 1.391 . S
C143 H129 0.941 . S
C143 C142 1.389 . S
C143 C144 1.397 . S
C144 H130 0.939 . S
C144 C143 1.397 . S
C144 C145 1.378 . S
C145 C144 1.378 . S
C145 C146 1.378 . S
C146 H131 0.940 . S
C146 C145 1.378 . S
C146 C147 1.396 . S
C147 H132 0.940 . S
C147 C142 1.391 . S
C147 C146 1.396 . S
C148 P128 1.803 . S
C148 C149 1.378 . S
C148 C153 1.400 . S
C149 H133 0.939 . S
C149 C148 1.378 . S
C149 C150 1.361 . S
C150 H134 0.942 . S
C150 C149 1.361 . S
C150 C151 1.369 . S
C151 C150 1.369 . S
C151 C152 1.404 . S
C152 H135 0.940 . S
C152 C151 1.404 . S
C152 C153 1.389 . S
C153 H136 0.939 . S
C153 C148 1.400 . S
C153 C152 1.389 . S
C154 P128 1.819 . S
C154 C155 1.391 . S
C154 C159 1.391 . S
C155 H137 0.941 . S
C155 C154 1.391 . S
C155 C156 1.396 . S
C156 H140 0.939 . S
C156 C155 1.396 . S
C156 C157 1.397 . S
C157 C156 1.397 . S
C157 C158 1.385 . S
C158 H141 0.940 . S
C158 C157 1.385 . S
C158 C159 1.388 . S
C159 H138 0.939 . S
C159 C154 1.391 . S
C159 C158 1.388 . S
P160 O171 1.490 . S
P160 C174 1.812 . S
P160 C180 1.803 . S
P160 C186 1.819 . S
H161 C175 0.941 . S
H162 C176 0.939 . S
H163 C178 0.940 . S
H164 C179 0.940 . S
H165 C181 0.939 . S
H166 C182 0.942 . S
H167 C184 0.940 . S
H168 C185 0.939 . S
H169 C187 0.941 . S
H170 C191 0.939 . S
O171 P160 1.490 . S
H172 C188 0.939 . S
H173 C190 0.940 . S
C174 P160 1.812 . S
C174 C175 1.389 . S
C174 C179 1.391 . S
C175 H161 0.941 . S
C175 C174 1.389 . S
C175 C176 1.397 . S
C176 H162 0.939 . S
C176 C175 1.397 . S
C176 C177 1.378 . S
C177 C176 1.378 . S
C177 C178 1.378 . S
C178 H163 0.940 . S
C178 C177 1.378 . S
C178 C179 1.396 . S
C179 H164 0.940 . S
C179 C174 1.391 . S
C179 C178 1.396 . S
C180 P160 1.803 . S
C180 C181 1.378 . S
C180 C185 1.400 . S
C181 H165 0.939 . S
C181 C180 1.378 . S
C181 C182 1.361 . S
C182 H166 0.942 . S
C182 C181 1.361 . S
C182 C183 1.369 . S
C183 C182 1.369 . S
C183 C184 1.404 . S
C184 H167 0.940 . S
C184 C183 1.404 . S
C184 C185 1.389 . S
C185 H168 0.939 . S
C185 C180 1.400 . S
C185 C184 1.389 . S
C186 P160 1.819 . S
C186 C187 1.391 . S
C186 C191 1.391 . S
C187 H169 0.941 . S
C187 C186 1.391 . S
C187 C188 1.396 . S
C188 H172 0.939 . S
C188 C187 1.396 . S
C188 C189 1.397 . S
C189 C188 1.397 . S
C189 C190 1.385 . S
C190 H173 0.940 . S
C190 C189 1.385 . S
C190 C191 1.388 . S
C191 H170 0.939 . S
C191 C186 1.391 . S
C191 C190 1.388 . S
P192 O203 1.490 . S
P192 C206 1.812 . S
P192 C212 1.803 . S
P192 C218 1.819 . S
H193 C207 0.941 . S
H194 C208 0.939 . S
H195 C210 0.940 . S
H196 C211 0.940 . S
H197 C213 0.939 . S
H198 C214 0.942 . S
H199 C216 0.940 . S
H200 C217 0.939 . S
H201 C219 0.941 . S
H202 C223 0.939 . S
O203 P192 1.490 . S
H204 C220 0.939 . S
H205 C222 0.940 . S
C206 P192 1.812 . S
C206 C207 1.389 . S
C206 C211 1.391 . S
C207 H193 0.941 . S
C207 C206 1.389 . S
C207 C208 1.397 . S
C208 H194 0.939 . S
C208 C207 1.397 . S
C208 C209 1.378 . S
C209 C208 1.378 . S
C209 C210 1.378 . S
C210 H195 0.940 . S
C210 C209 1.378 . S
C210 C211 1.396 . S
C211 H196 0.940 . S
C211 C206 1.391 . S
C211 C210 1.396 . S
C212 P192 1.803 . S
C212 C213 1.378 . S
C212 C217 1.400 . S
C213 H197 0.939 . S
C213 C212 1.378 . S
C213 C214 1.361 . S
C214 H198 0.942 . S
C214 C213 1.361 . S
C214 C215 1.369 . S
C215 C214 1.369 . S
C215 C216 1.404 . S
C216 H199 0.940 . S
C216 C215 1.404 . S
C216 C217 1.389 . S
C217 H200 0.939 . S
C217 C212 1.400 . S
C217 C216 1.389 . S
C218 P192 1.819 . S
C218 C219 1.391 . S
C218 C223 1.391 . S
C219 H201 0.941 . S
C219 C218 1.391 . S
C219 C220 1.396 . S
C220 H204 0.939 . S
C220 C219 1.396 . S
C220 C221 1.397 . S
C221 C220 1.397 . S
C221 C222 1.385 . S
C222 H205 0.940 . S
C222 C221 1.385 . S
C222 C223 1.388 . S
C223 H202 0.939 . S
C223 C218 1.391 . S
C223 C222 1.388 . S
P224 O235 1.490 . S
P224 C238 1.812 . S
P224 C244 1.803 . S
P224 C250 1.819 . S
H225 C239 0.941 . S
H226 C240 0.939 . S
H227 C242 0.940 . S
H228 C243 0.940 . S
H229 C245 0.939 . S
H230 C246 0.942 . S
H231 C248 0.940 . S
H232 C249 0.939 . S
H233 C251 0.941 . S
H234 C255 0.939 . S
O235 P224 1.490 . S
H236 C252 0.939 . S
H237 C254 0.940 . S
C238 P224 1.812 . S
C238 C239 1.389 . S
C238 C243 1.391 . S
C239 H225 0.941 . S
C239 C238 1.389 . S
C239 C240 1.397 . S
C240 H226 0.939 . S
C240 C239 1.397 . S
C240 C241 1.378 . S
C241 C240 1.378 . S
C241 C242 1.378 . S
C242 H227 0.940 . S
C242 C241 1.378 . S
C242 C243 1.396 . S
C243 H228 0.940 . S
C243 C238 1.391 . S
C243 C242 1.396 . S
C244 P224 1.803 . S
C244 C245 1.378 . S
C244 C249 1.400 . S
C245 H229 0.939 . S
C245 C244 1.378 . S
C245 C246 1.361 . S
C246 H230 0.942 . S
C246 C245 1.361 . S
C246 C247 1.369 . S
C247 C246 1.369 . S
C247 C248 1.404 . S
C248 H231 0.940 . S
C248 C247 1.404 . S
C248 C249 1.389 . S
C249 H232 0.939 . S
C249 C244 1.400 . S
C249 C248 1.389 . S
C250 P224 1.819 . S
C250 C251 1.391 . S
C250 C255 1.391 . S
C251 H233 0.941 . S
C251 C250 1.391 . S
C251 C252 1.396 . S
C252 H236 0.939 . S
C252 C251 1.396 . S
C252 C253 1.397 . S
C253 C252 1.397 . S
C253 C254 1.385 . S
C254 H237 0.940 . S
C254 C253 1.385 . S
C254 C255 1.388 . S
C255 H234 0.939 . S
C255 C250 1.391 . S
C255 C254 1.388 . S
Dy256 O260 2.398 . S
Dy256 O261 2.491 . S
Dy256 O262 2.403 1_545 S
Dy256 O263 2.664 1_545 S
Dy256 O267 2.326 . S
Dy256 O271 2.310 1_455 S
Dy256 O272 2.351 1_445 S
C257 O268 1.185 . S
C257 O269 1.355 . S
C258 O260 1.185 . S
C258 O261 1.355 . S
Dy259 O263 2.310 1_655 S
Dy259 O266 2.351 1_665 S
Dy259 O268 2.398 . S
Dy259 O269 2.491 . S
Dy259 O270 2.403 1_565 S
Dy259 O271 2.664 1_565 S
Dy259 O273 2.326 . S
O260 Dy256 2.398 . S
O260 C258 1.185 . S
O261 Dy256 2.491 . S
O261 C258 1.355 . S
O262 Dy256 2.403 1_565 S
O262 C264 1.254 . S
O263 Dy256 2.664 1_565 S
O263 Dy259 2.310 1_455 S
O263 C264 1.268 . S
C264 O262 1.254 . S
C264 O263 1.268 . S
C265 O270 1.254 . S
C265 O271 1.268 . S
O266 Dy259 2.351 1_445 S
O266 C274 1.249 . S
O267 Dy256 2.326 . S
O267 C274 1.267 . S
O268 C257 1.185 . S
O268 Dy259 2.398 . S
O269 C257 1.355 . S
O269 Dy259 2.491 . S
O270 Dy259 2.403 1_545 S
O270 C265 1.254 . S
O271 Dy256 2.310 1_655 S
O271 Dy259 2.664 1_545 S
O271 C265 1.268 . S
O272 Dy256 2.351 1_665 S
O272 C275 1.249 . S
O273 Dy259 2.326 . S
O273 C275 1.267 . S
C274 O266 1.249 . S
C274 O267 1.267 . S
C275 O272 1.249 . S
C275 O273 1.267 . S
Dy276 O280 2.398 . S
Dy276 O281 2.491 . S
Dy276 O282 2.403 1_545 S
Dy276 O283 2.664 1_545 S
Dy276 O287 2.326 . S
Dy276 O291 2.310 . S
Dy276 O292 2.351 1_544 S
C277 O288 1.185 . S
C277 O289 1.355 . S
C278 O280 1.185 . S
C278 O281 1.355 . S
Dy279 O283 2.310 1_546 S
Dy279 O286 2.351 1_556 S
Dy279 O288 2.398 1_545 S
Dy279 O289 2.491 1_545 S
Dy279 O290 2.403 . S
Dy279 O291 2.664 1_556 S
Dy279 O293 2.326 1_545 S
O280 Dy276 2.398 . S
O280 C278 1.185 . S
O281 Dy276 2.491 . S
O281 C278 1.355 . S
O282 Dy276 2.403 1_565 S
O282 C284 1.254 . S
O283 Dy276 2.664 1_565 S
O283 Dy279 2.310 1_564 S
O283 C284 1.268 . S
C284 O282 1.254 . S
C284 O283 1.268 . S
C285 O290 1.254 . S
C285 O291 1.268 1_556 S
O286 Dy279 2.351 1_554 S
O286 C294 1.249 . S
O287 Dy276 2.326 . S
O287 C294 1.267 . S
O288 C277 1.185 . S
O288 Dy279 2.398 1_565 S
O289 C277 1.355 . S
O289 Dy279 2.491 1_565 S
O290 Dy279 2.403 . S
O290 C285 1.254 . S
O291 Dy276 2.310 . S
O291 Dy279 2.664 1_554 S
O291 C285 1.268 1_554 S
O292 Dy276 2.351 1_566 S
O292 C295 1.249 . S
O293 Dy279 2.326 1_565 S
O293 C295 1.267 . S
C294 O286 1.249 . S
C294 O287 1.267 . S
C295 O292 1.249 . S
C295 O293 1.267 . S
Dy296 O300 2.398 . S
Dy296 O301 2.491 . S
Dy296 O302 2.403 . S
Dy296 O303 2.664 . S
Dy296 O307 2.326 . S
Dy296 O311 2.310 . S
Dy296 O312 2.351 . S
C297 O308 1.185 . S
C297 O309 1.355 . S
C298 O300 1.185 . S
C298 O301 1.355 . S
Dy299 O303 2.310 . S
Dy299 O306 2.351 . S
Dy299 O308 2.398 . S
Dy299 O309 2.491 . S
Dy299 O310 2.403 . S
Dy299 O311 2.664 . S
Dy299 O313 2.326 . S
O300 Dy296 2.398 . S
O300 C298 1.185 . S
O301 Dy296 2.491 . S
O301 C298 1.355 . S
O302 Dy296 2.403 . S
O302 C304 1.254 . S
O303 Dy296 2.664 . S
O303 Dy299 2.310 . S
O303 C304 1.268 . S
C304 O302 1.254 . S
C304 O303 1.268 . S
C305 O310 1.254 . S
C305 O311 1.268 . S
O306 Dy299 2.351 . S
O306 C314 1.249 . S
O307 Dy296 2.326 . S
O307 C314 1.267 . S
O308 C297 1.185 . S
O308 Dy299 2.398 . S
O309 C297 1.355 . S
O309 Dy299 2.491 . S
O310 Dy299 2.403 . S
O310 C305 1.254 . S
O311 Dy296 2.310 . S
O311 Dy299 2.664 . S
O311 C305 1.268 . S
O312 Dy296 2.351 . S
O312 C315 1.249 . S
O313 Dy299 2.326 . S
O313 C315 1.267 . S
C314 O306 1.249 . S
C314 O307 1.267 . S
C315 O312 1.249 . S
C315 O313 1.267 . S
Dy316 O320 2.398 . S
Dy316 O321 2.491 . S
Dy316 O322 2.403 1_455 S
Dy316 O323 2.664 1_455 S
Dy316 O327 2.326 . S
Dy316 O331 2.310 1_554 S
Dy316 O332 2.351 1_455 S
C317 O328 1.185 . S
C317 O329 1.355 . S
C318 O320 1.185 . S
C318 O321 1.355 . S
Dy319 O323 2.310 1_556 S
Dy319 O326 2.351 1_656 S
Dy319 O328 2.398 . S
Dy319 O329 2.491 . S
Dy319 O330 2.403 1_655 S
Dy319 O331 2.664 1_655 S
Dy319 O333 2.326 . S
O320 Dy316 2.398 . S
O320 C318 1.185 . S
O321 Dy316 2.491 . S
O321 C318 1.355 . S
O322 Dy316 2.403 1_655 S
O322 C324 1.254 . S
O323 Dy316 2.664 1_655 S
O323 Dy319 2.310 1_554 S
O323 C324 1.268 . S
C324 O322 1.254 . S
C324 O323 1.268 . S
C325 O330 1.254 . S
C325 O331 1.268 . S
O326 Dy319 2.351 1_454 S
O326 C334 1.249 . S
O327 Dy316 2.326 . S
O327 C334 1.267 . S
O328 C317 1.185 . S
O328 Dy319 2.398 . S
O329 C317 1.355 . S
O329 Dy319 2.491 . S
O330 Dy319 2.403 1_455 S
O330 C325 1.254 . S
O331 Dy316 2.310 1_556 S
O331 Dy319 2.664 1_455 S
O331 C325 1.268 . S
O332 Dy316 2.351 1_655 S
O332 C335 1.249 1_554 S
O333 Dy319 2.326 . S
O333 C335 1.267 . S
C334 O326 1.249 . S
C334 O327 1.267 . S
C335 O332 1.249 1_556 S
C335 O333 1.267 . S
C336 C337 1.387 . S
C336 H340 0.950 . S
C336 C345 1.390 . S
C337 C336 1.387 . S
C337 C339 1.387 . S
H338 C345 0.950 . S
C339 C337 1.387 . S
C339 C341 1.390 . S
C339 H343 0.950 . S
H340 C336 0.950 . S
C341 C339 1.390 . S
C341 C342 1.387 . S
C341 H344 0.950 . S
C342 C341 1.387 . S
C342 C345 1.387 . S
H343 C339 0.950 . S
H344 C341 0.950 . S
C345 C336 1.390 . S
C345 H338 0.950 . S
C345 C342 1.387 . S
C346 C347 1.387 . S
C346 H350 0.950 . S
C346 C355 1.390 . S
C347 C346 1.387 . S
C347 C349 1.387 . S
H348 C355 0.950 . S
C349 C347 1.387 . S
C349 C351 1.390 . S
C349 H353 0.950 . S
H350 C346 0.950 . S
C351 C349 1.390 . S
C351 C352 1.387 . S
C351 H354 0.950 1_565 S
C352 C351 1.387 . S
C352 C355 1.387 . S
H353 C349 0.950 . S
H354 C351 0.950 1_545 S
C355 C346 1.390 . S
C355 H348 0.950 . S
C355 C352 1.387 . S
C356 C357 1.387 . S
C356 H360 0.950 . S
C356 C365 1.390 . S
C357 C356 1.387 . S
C357 C359 1.387 . S
H358 C365 0.950 . S
C359 C357 1.387 . S
C359 C361 1.390 . S
C359 H363 0.950 . S
H360 C356 0.950 . S
C361 C359 1.390 . S
C361 C362 1.387 . S
C361 H364 0.950 . S
C362 C361 1.387 . S
C362 C365 1.387 . S
H363 C359 0.950 . S
H364 C361 0.950 . S
C365 C356 1.390 . S
C365 H358 0.950 . S
C365 C362 1.387 . S
C366 C367 1.387 . S
C366 H370 0.950 . S
C366 C375 1.390 . S
C367 C366 1.387 . S
C367 C369 1.387 . S
H368 C375 0.950 . S
C369 C367 1.387 . S
C369 C371 1.390 . S
C369 H373 0.950 . S
H370 C366 0.950 . S
C371 C369 1.390 . S
C371 C372 1.387 . S
C371 H374 0.950 . S
C372 C371 1.387 . S
C372 C375 1.387 . S
H373 C369 0.950 . S
H374 C371 0.950 . S
C375 C366 1.390 . S
C375 H368 0.950 . S
C375 C372 1.387 . S
C376 C377 1.387 . S
C376 H380 0.950 . S
C376 C385 1.390 . S
C377 C376 1.387 . S
C377 C379 1.387 . S
H378 C385 0.950 . S
C379 C377 1.387 . S
C379 C381 1.390 . S
C379 H383 0.950 . S
H380 C376 0.950 . S
C381 C379 1.390 . S
C381 C382 1.387 . S
C381 H384 0.950 . S
C382 C381 1.387 . S
C382 C385 1.387 . S
H383 C379 0.950 . S
H384 C381 0.950 . S
C385 C376 1.390 . S
C385 H378 0.950 . S
C385 C382 1.387 . S
C386 C387 1.387 . S
C386 H390 0.950 . S
C386 C395 1.390 . S
C387 C386 1.387 . S
C387 C389 1.387 . S
H388 C395 0.950 . S
C389 C387 1.387 . S
C389 C391 1.390 . S
C389 H393 0.950 . S
H390 C386 0.950 . S
C391 C389 1.390 . S
C391 C392 1.387 . S
C391 H394 0.950 . S
C392 C391 1.387 . S
C392 C395 1.387 . S
H393 C389 0.950 . S
H394 C391 0.950 . S
C395 C386 1.390 . S
C395 H388 0.950 . S
C395 C392 1.387 . S
C396 C397 1.387 . S
C396 H400 0.950 . S
C396 C405 1.390 . S
C397 C396 1.387 . S
C397 C399 1.387 . S
H398 C405 0.950 . S
C399 C397 1.387 . S
C399 C401 1.390 . S
C399 H403 0.950 . S
H400 C396 0.950 . S
C401 C399 1.390 . S
C401 C402 1.387 . S
C401 H404 0.950 1_556 S
C402 C401 1.387 . S
C402 C405 1.387 . S
H403 C399 0.950 . S
H404 C401 0.950 1_554 S
C405 C396 1.390 . S
C405 H398 0.950 . S
C405 C402 1.387 . S
C406 C407 1.387 . S
C406 H410 0.950 . S
C406 C415 1.390 . S
C407 C406 1.387 . S
C407 C409 1.387 . S
H408 C415 0.950 . S
C409 C407 1.387 . S
C409 C411 1.390 . S
C409 H413 0.950 . S
H410 C406 0.950 . S
C411 C409 1.390 . S
C411 C412 1.387 . S
C411 H414 0.950 . S
C412 C411 1.387 . S
C412 C415 1.387 . S
H413 C409 0.950 . S
H414 C411 0.950 . S
C415 C406 1.390 . S
C415 H408 0.950 . S
C415 C412 1.387 . S
C416 C417 1.387 . S
C416 H420 0.950 . S
C416 C425 1.390 . S
C417 C416 1.387 . S
C417 C419 1.387 . S
H418 C425 0.950 . S
C419 C417 1.387 . S
C419 C421 1.390 . S
C419 H423 0.950 . S
H420 C416 0.950 . S
C421 C419 1.390 . S
C421 C422 1.387 . S
C421 H424 0.950 . S
C422 C421 1.387 . S
C422 C425 1.387 . S
H423 C419 0.950 . S
H424 C421 0.950 . S
C425 C416 1.390 . S
C425 H418 0.950 . S
C425 C422 1.387 . S
C426 C427 1.387 . S
C426 H430 0.950 . S
C426 C435 1.390 . S
C427 C426 1.387 . S
C427 C429 1.387 . S
H428 C435 0.950 . S
C429 C427 1.387 . S
C429 C431 1.390 . S
C429 H433 0.950 . S
H430 C426 0.950 . S
C431 C429 1.390 . S
C431 C432 1.387 . S
C431 H434 0.961 . S
C432 C431 1.387 . S
C432 C435 1.387 . S
H433 C429 0.950 . S
H434 C431 0.961 . S
C435 C426 1.390 . S
C435 H428 0.950 . S
C435 C432 1.387 . S
C436 C437 1.387 . S
C436 H440 0.950 . S
C436 C445 1.390 . S
C437 C436 1.387 . S
C437 C439 1.387 . S
H438 C445 0.950 . S
C439 C437 1.387 . S
C439 C441 1.390 . S
C439 H443 0.950 . S
H440 C436 0.950 . S
C441 C439 1.390 . S
C441 C442 1.387 . S
C441 H444 0.950 . S
C442 C441 1.387 . S
C442 C445 1.387 . S
H443 C439 0.950 . S
H444 C441 0.950 . S
C445 C436 1.390 . S
C445 H438 0.950 . S
C445 C442 1.387 . S
C446 C447 1.387 . S
C446 H450 0.950 . S
C446 C455 1.390 . S
C447 C446 1.387 . S
C447 C449 1.387 . S
H448 C455 0.950 . S
C449 C447 1.387 . S
C449 C451 1.390 . S
C449 H453 0.950 . S
H450 C446 0.950 . S
C451 C449 1.390 . S
C451 C452 1.387 . S
C451 H454 0.950 . S
C452 C451 1.387 . S
C452 C455 1.387 . S
H453 C449 0.950 . S
H454 C451 0.950 . S
C455 C446 1.390 . S
C455 H448 0.950 . S
C455 C452 1.387 . S
C456 C457 1.387 . S
C456 H460 0.950 . S
C456 C465 1.390 . S
C457 C456 1.387 . S
C457 C459 1.387 . S
H458 C465 0.950 . S
C459 C457 1.387 . S
C459 C461 1.390 . S
C459 H463 0.950 . S
H460 C456 0.950 . S
C461 C459 1.390 . S
C461 C462 1.387 . S
C461 H464 0.950 . S
C462 C461 1.387 . S
C462 C465 1.387 . S
H463 C459 0.950 . S
H464 C461 0.950 . S
C465 C456 1.390 . S
C465 H458 0.950 . S
C465 C462 1.387 . S
C466 C467 1.387 . S
C466 H470 0.950 . S
C466 C475 1.390 . S
C467 C466 1.387 . S
C467 C469 1.387 . S
H468 C475 0.950 . S
C469 C467 1.387 . S
C469 C471 1.390 . S
C469 H473 0.950 . S
H470 C466 0.950 . S
C471 C469 1.390 . S
C471 C472 1.387 . S
C471 H474 0.950 . S
C472 C471 1.387 . S
C472 C475 1.387 . S
H473 C469 0.950 . S
H474 C471 0.950 . S
C475 C466 1.390 . S
C475 H468 0.950 . S
C475 C472 1.387 . S
C476 C477 1.387 . S
C476 H480 0.950 . S
C476 C485 1.390 . S
C477 C476 1.387 . S
C477 C479 1.387 . S
H478 C485 0.950 . S
C479 C477 1.387 . S
C479 C481 1.390 . S
C479 H483 0.950 . S
H480 C476 0.950 . S
C481 C479 1.390 . S
C481 C482 1.387 . S
C481 H484 0.950 . S
C482 C481 1.387 . S
C482 C485 1.387 . S
H483 C479 0.950 . S
H484 C481 0.950 . S
C485 C476 1.390 . S
C485 H478 0.950 . S
C485 C482 1.387 . S
C486 C487 1.387 . S
C486 H490 0.950 . S
C486 C495 1.390 . S
C487 C486 1.387 . S
C487 C489 1.387 . S
H488 C495 0.950 . S
C489 C487 1.387 . S
C489 C491 1.390 . S
C489 H493 0.950 . S
H490 C486 0.950 . S
C491 C489 1.390 . S
C491 C492 1.387 . S
C491 H494 0.950 . S
C492 C491 1.387 . S
C492 C495 1.387 . S
H493 C489 0.950 . S
H494 C491 0.950 . S
C495 C486 1.390 . S
C495 H488 0.950 . S
C495 C492 1.387 . S
C496 C497 1.387 . S
C496 H500 0.950 . S
C496 C505 1.390 . S
C497 C496 1.387 . S
C497 C499 1.387 . S
H498 C505 0.950 . S
C499 C497 1.387 . S
C499 C501 1.390 . S
C499 H503 0.950 . S
H500 C496 0.950 . S
C501 C499 1.390 . S
C501 C502 1.387 . S
C501 H504 0.950 . S
C502 C501 1.387 . S
C502 C505 1.387 . S
H503 C499 0.950 . S
H504 C501 0.950 . S
C505 C496 1.390 . S
C505 H498 0.950 . S
C505 C502 1.387 . S
C506 C507 1.387 . S
C506 H510 0.950 . S
C506 C515 1.390 . S
C507 C506 1.387 . S
C507 C509 1.387 . S
H508 C515 0.950 . S
C509 C507 1.387 . S
C509 C511 1.390 . S
C509 H513 0.950 . S
H510 C506 0.950 . S
C511 C509 1.390 . S
C511 C512 1.387 . S
C511 H514 0.950 . S
C512 C511 1.387 . S
C512 C515 1.387 . S
H513 C509 0.950 . S
H514 C511 0.950 . S
C515 C506 1.390 . S
C515 H508 0.950 . S
C515 C512 1.387 . S
C516 C517 1.387 . S
C516 H520 0.950 . S
C516 C525 1.390 . S
C517 C516 1.387 . S
C517 C519 1.387 . S
H518 C525 0.950 . S
C519 C517 1.387 . S
C519 C521 1.390 . S
C519 H523 0.950 . S
H520 C516 0.950 . S
C521 C519 1.390 . S
C521 C522 1.387 . S
C521 H524 0.950 . S
C522 C521 1.387 . S
C522 C525 1.387 . S
H523 C519 0.950 . S
H524 C521 0.950 . S
C525 C516 1.390 . S
C525 H518 0.950 . S
C525 C522 1.387 . S
C526 C527 1.387 . S
C526 H530 0.950 . S
C526 C535 1.390 . S
C527 C526 1.387 . S
C527 C529 1.387 . S
H528 C535 0.950 . S
C529 C527 1.387 . S
C529 C531 1.390 . S
C529 H533 0.950 . S
H530 C526 0.950 . S
C531 C529 1.390 . S
C531 C532 1.387 . S
C531 H534 0.950 . S
C532 C531 1.387 . S
C532 C535 1.387 . S
H533 C529 0.950 . S
H534 C531 0.950 . S
C535 C526 1.390 . S
C535 H528 0.950 . S
C535 C532 1.387 . S
C536 C537 1.387 . S
C536 H540 0.950 . S
C536 C545 1.390 . S
C537 C536 1.387 . S
C537 C539 1.387 . S
H538 C545 0.950 . S
C539 C537 1.387 . S
C539 C541 1.390 . S
C539 H543 0.950 . S
H540 C536 0.950 . S
C541 C539 1.390 . S
C541 C542 1.387 . S
C541 H544 0.950 . S
C542 C541 1.387 . S
C542 C545 1.387 . S
H543 C539 0.950 . S
H544 C541 0.950 . S
C545 C536 1.390 . S
C545 H538 0.950 . S
C545 C542 1.387 . S
C546 C547 1.387 . S
C546 H550 0.950 . S
C546 C555 1.390 . S
C547 C546 1.387 . S
C547 C549 1.387 . S
H548 C555 0.950 . S
C549 C547 1.387 . S
C549 C551 1.390 . S
C549 H553 0.950 . S
H550 C546 0.950 . S
C551 C549 1.390 . S
C551 C552 1.387 . S
C551 H554 0.950 . S
C552 C551 1.387 . S
C552 C555 1.387 . S
H553 C549 0.950 . S
H554 C551 0.950 . S
C555 C546 1.390 . S
C555 H548 0.950 . S
C555 C552 1.387 . S
C556 C557 1.387 . S
C556 H560 0.950 . S
C556 C565 1.390 . S
C557 C556 1.387 . S
C557 C559 1.387 . S
H558 C565 0.950 . S
C559 C557 1.387 . S
C559 C561 1.390 . S
C559 H563 0.950 . S
H560 C556 0.950 . S
C561 C559 1.390 . S
C561 C562 1.387 . S
C561 H564 0.950 . S
C562 C561 1.387 . S
C562 C565 1.387 . S
H563 C559 0.950 . S
H564 C561 0.950 . S
C565 C556 1.390 . S
C565 H558 0.950 . S
C565 C562 1.387 . S
C566 C567 1.387 . S
C566 H570 0.950 . S
C566 C575 1.390 . S
C567 C566 1.387 . S
C567 C569 1.387 . S
H568 C575 0.950 . S
C569 C567 1.387 . S
C569 C571 1.390 . S
C569 H573 0.950 . S
H570 C566 0.950 . S
C571 C569 1.390 . S
C571 C572 1.387 . S
C571 H574 0.950 . S
C572 C571 1.387 . S
C572 C575 1.387 . S
H573 C569 0.950 . S
H574 C571 0.950 . S
C575 C566 1.390 . S
C575 H568 0.950 . S
C575 C572 1.387 . S
C337 C29 1.560 . S
C342 C258 1.548 . S
C347 C49 1.310 . S
C352 C277 1.284 . S
C362 C314 1.784 . S
C357 C93 1.768 . S
C367 C119 1.650 . S
C372 C324 1.657 . S
C382 C294 1.895 . S
C377 C17 1.885 . S
C392 C264 1.393 . S
C387 C61 1.492 . S
C402 C335 1.523 . S
C397 C81 1.532 . S
C412 C305 1.499 . S
C407 C125 1.470 . S
C417 C23 1.671 . S
C422 C318 1.674 . S
C432 C285 1.682 . S
C427 C87 1.708 . S
C437 C113 1.715 . S
C442 C275 1.772 . S
C447 C55 1.250 . S
C452 C297 1.287 . S
C462 C257 1.519 . S
C457 C157 1.345 . S
C467 C189 1.297 . S
C472 C278 1.309 . S
C477 C221 1.769 . S
C482 C315 1.760 . S
C487 C253 1.703 . S
C492 C325 1.724 . S
C497 C145 1.765 . S
C502 C295 1.950 . S
C512 C265 1.343 . S
C507 C183 1.363 . S
C522 C334 1.554 . S
C517 C209 1.550 . S
C532 C304 1.466 . S
C527 C247 1.431 . S
C537 C151 1.526 . S
C542 C317 1.684 . S
C552 C284 1.681 . S
C547 C215 1.720 . S
C562 C274 1.749 . S
C557 C241 1.686 . S
C567 C177 1.237 . S
C572 C298 1.269 . S
