# Generated by pormake.
# Topology zzz, (3,6)-cn, num edge types: 1
# Building blocks:
#     Node 0, Type 0, BuildingBlock: MIDCAF_clean_linker_0, # of connection points: 3
#     Node 1, Type 0, BuildingBlock: MIDCAF_clean_linker_0, # of connection points: 3
#     Node 2, Type 0, BuildingBlock: MIDCAF_clean_linker_0, # of connection points: 3
#     Node 3, Type 0, BuildingBlock: MIDCAF_clean_linker_0, # of connection points: 3
#     Node 4, Type 0, BuildingBlock: MIDCAF_clean_linker_0, # of connection points: 3
#     Node 5, Type 0, BuildingBlock: MIDCAF_clean_linker_0, # of connection points: 3
#     Node 6, Type 0, BuildingBlock: MIDCAF_clean_linker_0, # of connection points: 3
#     Node 7, Type 0, BuildingBlock: MIDCAF_clean_linker_0, # of connection points: 3
#     Node 8, Type 1, BuildingBlock: CUWYAW_clean_sbu_0, # of connection points: 6
#     Node 9, Type 1, BuildingBlock: CUWYAW_clean_sbu_0, # of connection points: 6
#     Node 10, Type 1, BuildingBlock: CUWYAW_clean_sbu_0, # of connection points: 6
#     Node 11, Type 1, BuildingBlock: CUWYAW_clean_sbu_0, # of connection points: 6
#     Edge 12, Type (0, 1), BuildingBlock: TEMPAE_clean_linker_10, # of connection points: 2
#     Edge 13, Type (0, 1), BuildingBlock: TEMPAE_clean_linker_10, # of connection points: 2
#     Edge 14, Type (0, 1), BuildingBlock: TEMPAE_clean_linker_10, # of connection points: 2
#     Edge 15, Type (0, 1), BuildingBlock: TEMPAE_clean_linker_10, # of connection points: 2
#     Edge 16, Type (0, 1), BuildingBlock: TEMPAE_clean_linker_10, # of connection points: 2
#     Edge 17, Type (0, 1), BuildingBlock: TEMPAE_clean_linker_10, # of connection points: 2
#     Edge 18, Type (0, 1), BuildingBlock: TEMPAE_clean_linker_10, # of connection points: 2
#     Edge 19, Type (0, 1), BuildingBlock: TEMPAE_clean_linker_10, # of connection points: 2
#     Edge 20, Type (0, 1), BuildingBlock: TEMPAE_clean_linker_10, # of connection points: 2
#     Edge 21, Type (0, 1), BuildingBlock: TEMPAE_clean_linker_10, # of connection points: 2
#     Edge 22, Type (0, 1), BuildingBlock: TEMPAE_clean_linker_10, # of connection points: 2
#     Edge 23, Type (0, 1), BuildingBlock: TEMPAE_clean_linker_10, # of connection points: 2
#     Edge 24, Type (0, 1), BuildingBlock: TEMPAE_clean_linker_10, # of connection points: 2
#     Edge 25, Type (0, 1), BuildingBlock: TEMPAE_clean_linker_10, # of connection points: 2
#     Edge 26, Type (0, 1), BuildingBlock: TEMPAE_clean_linker_10, # of connection points: 2
#     Edge 27, Type (0, 1), BuildingBlock: TEMPAE_clean_linker_10, # of connection points: 2
#     Edge 28, Type (0, 1), BuildingBlock: TEMPAE_clean_linker_10, # of connection points: 2
#     Edge 29, Type (0, 1), BuildingBlock: TEMPAE_clean_linker_10, # of connection points: 2
#     Edge 30, Type (0, 1), BuildingBlock: TEMPAE_clean_linker_10, # of connection points: 2
#     Edge 31, Type (0, 1), BuildingBlock: TEMPAE_clean_linker_10, # of connection points: 2
#     Edge 32, Type (0, 1), BuildingBlock: TEMPAE_clean_linker_10, # of connection points: 2
#     Edge 33, Type (0, 1), BuildingBlock: TEMPAE_clean_linker_10, # of connection points: 2
#     Edge 34, Type (0, 1), BuildingBlock: TEMPAE_clean_linker_10, # of connection points: 2
#     Edge 35, Type (0, 1), BuildingBlock: TEMPAE_clean_linker_10, # of connection points: 2
# Relax obj value: 0.429
# Max RMSD: 0.251
# Mean RMSD: 0.232
data_MOF--net-zzz--node1-CUWYAW_clean_sbu_0--node2-MIDCAF_clean_linker_0--edge1-TEMPAE_clean_linker_10
_symmetry_space_group_name_H-M    P1
_symmetry_Int_Tables_number       1
_symmetry_cell_setting            triclinic
loop_
_symmetry_equiv_pos_as_xyz
'x, y, z'
_cell_length_a     58.740238
_cell_length_b     58.676577
_cell_length_c     19.201631
_cell_angle_alpha  89.660267
_cell_angle_beta   90.066505
_cell_angle_gamma 90.012065
loop_
_atom_site_label
_atom_site_type_symbol
_atom_site_fract_x
_atom_site_fract_y
_atom_site_fract_z
_atom_type_partial_charge
C0 C 0.78561 0.53652 0.52175 0.0
C1 C 0.79506 0.5159 0.54661 0.0
C2 C 0.782 0.49589 0.53817 0.0
C3 C 0.76126 0.49623 0.50124 0.0
H4 H 0.67712 0.47691 0.32366 0.0
H5 H 0.64354 0.4767 0.24867 0.0
H6 H 0.6451 0.55027 0.24084 0.0
H7 H 0.67812 0.55018 0.31773 0.0
H8 H 0.72978 0.48757 0.17173 0.0
H9 H 0.75516 0.47923 0.07397 0.0
H10 H 0.80608 0.52375 0.16197 0.0
H11 H 0.78108 0.53177 0.25982 0.0
H12 H 0.75939 0.55262 0.46097 0.0
H13 H 0.79503 0.55232 0.52574 0.0
H14 H 0.78828 0.47967 0.55725 0.0
H15 H 0.75294 0.48018 0.48994 0.0
N16 N 0.71533 0.51507 0.40522 0.0
N17 N 0.71746 0.51183 0.28294 0.0
N18 N 0.75082 0.51417 0.34814 0.0
C19 C 0.70476 0.51335 0.34129 0.0
C20 C 0.74031 0.51239 0.28603 0.0
C21 C 0.73878 0.51537 0.40788 0.0
C22 C 0.67983 0.51358 0.32927 0.0
C23 C 0.66934 0.49304 0.30965 0.0
C24 C 0.65043 0.49296 0.26463 0.0
C25 C 0.64158 0.51346 0.23694 0.0
C26 C 0.65102 0.53407 0.26117 0.0
C27 C 0.66985 0.5341 0.30652 0.0
C28 C 0.75373 0.51014 0.22289 0.0
C29 C 0.74616 0.49601 0.16888 0.0
C30 C 0.76051 0.4913 0.11322 0.0
C31 C 0.78218 0.50116 0.11068 0.0
C32 C 0.78914 0.51639 0.16252 0.0
C33 C 0.77504 0.52074 0.21866 0.0
C34 C 0.75271 0.51659 0.4724 0.0
C35 C 0.76485 0.53681 0.48518 0.0
C36 C 0.98542 0.78773 0.51596 0.0
C37 C 1.00668 0.79775 0.53094 0.0
C38 C 0.02642 0.78537 0.51271 0.0
C39 C 0.02489 0.76466 0.47612 0.0
H40 H 0.97282 0.67273 0.33741 0.0
H41 H 0.97388 0.63849 0.26592 0.0
H42 H 0.04407 0.65271 0.21456 0.0
H43 H 0.04294 0.68632 0.28814 0.0
H44 H 0.01199 0.72852 0.14731 0.0
H45 H 0.01968 0.75426 0.0502 0.0
H46 H 0.98424 0.80824 0.15686 0.0
H47 H 0.97664 0.78269 0.25433 0.0
H48 H 0.96731 0.76105 0.46375 0.0
H49 H 0.96974 0.7966 0.52756 0.0
H50 H 0.04316 0.79212 0.524 0.0
H51 H 0.04038 0.7568 0.45735 0.0
N52 N 1.00575 0.71781 0.39354 0.0
N53 N 0.99935 0.71833 0.27225 0.0
N54 N 0.99676 0.75207 0.33483 0.0
C55 C 1.00415 0.70653 0.33101 0.0
C56 C 0.99557 0.74093 0.27369 0.0
C57 C 1.00176 0.74094 0.39481 0.0
C58 C 1.00803 0.68184 0.32088 0.0
C59 C 0.98888 0.66764 0.31459 0.0
C60 C 0.98935 0.64833 0.27159 0.0
C61 C 1.00895 0.64278 0.23272 0.0
C62 C 0.02868 0.65599 0.24378 0.0
C63 C 0.02819 0.67521 0.28712 0.0
C64 C 0.99406 0.75385 0.20859 0.0
C65 C 1.00497 0.74559 0.14875 0.0
C66 C 1.00939 0.76021 0.0932 0.0
C67 C 1.00257 0.78302 0.0967 0.0
C68 C 0.9894 0.79055 0.15295 0.0
C69 C 0.98525 0.77604 0.20889 0.0
C70 C 1.00361 0.75554 0.45752 0.0
C71 C 0.98395 0.76704 0.47981 0.0
C72 C 0.73342 0.9861 0.48464 0.0
C73 C 0.72678 1.00207 0.53547 0.0
C74 C 0.7429 0.01868 0.55519 0.0
C75 C 0.76401 0.02045 0.52118 0.0
H76 H 0.86126 0.03095 0.3683 0.0
H77 H 0.89327 0.0279 0.28675 0.0
H78 H 0.85819 0.97422 0.17847 0.0
H79 H 0.82659 0.97683 0.26106 0.0
H80 H 0.79888 0.03241 0.17182 0.0
H81 H 0.77048 0.03384 0.07946 0.0
H82 H 0.72171 0.0619 0.22328 0.0
H83 H 0.74984 0.06035 0.31624 0.0
H84 H 0.75822 0.97655 0.40797 0.0
H85 H 0.72162 0.97324 0.46671 0.0
H86 H 0.73887 0.03106 0.59487 0.0
H87 H 0.77497 0.03476 0.5331 0.0
N88 N 0.80723 1.00482 0.40144 0.0
N89 N 0.80992 0.0275 0.29999 0.0
N90 N 0.77688 0.02849 0.36648 0.0
C91 C 0.81954 0.01263 0.34523 0.0
C92 C 0.78869 0.03544 0.30996 0.0
C93 C 0.78582 0.01351 0.41273 0.0
C94 C 0.84178 1.00346 0.3231 0.0
C95 C 0.86114 0.0174 0.3302 0.0
C96 C 0.87927 0.01597 0.28264 0.0
C97 C 0.87815 1.00089 0.22611 0.0
C98 C 0.85954 0.98591 0.22173 0.0
C99 C 0.84167 0.98706 0.26998 0.0
C100 C 0.77626 0.0457 0.25161 0.0
C101 C 0.78249 0.03999 0.18308 0.0
C102 C 0.76629 0.04068 0.13017 0.0
C103 C 0.74406 0.04735 0.1457 0.0
C104 C 0.73885 0.05633 0.21125 0.0
C105 C 0.75493 0.05556 0.26411 0.0
C106 C 0.76995 1.00539 0.46753 0.0
C107 C 0.75467 0.98776 0.45126 0.0
C108 C 0.48389 0.73532 0.18516 0.0
C109 C 0.49833 0.73825 0.12767 0.0
C110 C 0.51009 0.75873 0.11777 0.0
C111 C 0.50931 0.77526 0.16938 0.0
H112 H 0.47444 0.84623 0.30999 0.0
H113 H 0.47602 0.87786 0.23086 0.0
H114 H 0.54917 0.88142 0.25976 0.0
H115 H 0.54719 0.84758 0.33347 0.0
H116 H 0.48274 0.77538 0.5188 0.0
H117 H 0.48399 0.73997 0.58615 0.0
H118 H 0.54963 0.7247 0.49592 0.0
H119 H 0.54871 0.76066 0.43351 0.0
H120 H 0.47366 0.74824 0.28381 0.0
H121 H 0.47435 0.71967 0.1925 0.0
H122 H 0.52121 0.76113 0.07335 0.0
H123 H 0.51992 0.79028 0.1642 0.0
N124 N 0.50394 0.80717 0.28686 0.0
N125 N 0.51369 0.80907 0.40606 0.0
N126 N 0.50491 0.77396 0.35349 0.0
C127 C 0.50972 0.81972 0.34292 0.0
C128 C 0.51113 0.78574 0.41057 0.0
C129 C 0.50132 0.78453 0.29209 0.0
C130 C 0.5106 0.8446 0.32969 0.0
C131 C 0.49075 0.8545 0.30203 0.0
C132 C 0.49182 0.87286 0.25528 0.0
C133 C 0.51284 0.88273 0.23587 0.0
C134 C 0.53256 0.87425 0.27002 0.0
C135 C 0.53148 0.8552 0.31507 0.0
C136 C 0.51605 0.77146 0.47296 0.0
C137 C 0.49806 0.76512 0.51723 0.0
C138 C 0.49852 0.74426 0.55409 0.0
C139 C 0.51675 0.72872 0.54639 0.0
C140 C 0.53537 0.73591 0.50525 0.0
C141 C 0.53503 0.7569 0.46965 0.0
C142 C 0.49698 0.77102 0.23068 0.0
C143 C 0.48343 0.75156 0.23696 0.0
C144 C 0.2353 0.53494 0.9197 0.0
C145 C 0.22617 0.51596 0.88453 0.0
C146 C 0.23924 0.49582 0.88348 0.0
C147 C 0.25977 0.49417 0.92101 0.0
H148 H 0.35 0.47775 0.09154 0.0
H149 H 0.3829 0.47943 0.16959 0.0
H150 H 0.36896 0.55021 0.20953 0.0
H151 H 0.33555 0.54832 0.13256 0.0
H152 H 0.29324 0.5067 0.27161 0.0
H153 H 0.26623 0.5116 0.36633 0.0
H154 H 0.21386 0.47953 0.24352 0.0
H155 H 0.24058 0.47503 0.14746 0.0
H156 H 0.26123 0.54754 0.98859 0.0
H157 H 0.22601 0.55086 0.92122 0.0
H158 H 0.23283 0.48071 0.858 0.0
H159 H 0.26816 0.47775 0.92459 0.0
N160 N 0.3052 0.51293 0.02739 0.0
N161 N 0.30439 0.50026 0.14412 0.0
N162 N 0.27121 0.4993 0.0779 0.0
C163 C 0.31622 0.50865 0.08942 0.0
C164 C 0.28204 0.49551 0.1389 0.0
C165 C 0.28239 0.50782 0.02196 0.0
C166 C 0.34061 0.51313 0.10339 0.0
C167 C 0.35477 0.49406 0.11337 0.0
C168 C 0.37337 0.49489 0.15922 0.0
C169 C 0.37851 0.51494 0.19563 0.0
C170 C 0.3656 0.53461 0.18139 0.0
C171 C 0.34671 0.53366 0.1362 0.0
C172 C 0.26877 0.49088 0.20184 0.0
C173 C 0.27629 0.49967 0.26584 0.0
C174 C 0.26096 0.50243 0.32022 0.0
C175 C 0.23829 0.49584 0.31147 0.0
C176 C 0.2315 0.48437 0.25111 0.0
C177 C 0.24669 0.48199 0.19618 0.0
C178 C 0.26805 0.51266 0.95987 0.0
C179 C 0.25588 0.53327 0.95698 0.0
C180 C 0.99788 0.23873 0.90428 0.0
C181 C 0.01779 0.22802 0.87954 0.0
C182 C 0.03857 0.23973 0.8875 0.0
C183 C 0.03968 0.26045 0.92369 0.0
H184 H 0.98198 0.33965 0.11312 0.0
H185 H 0.97849 0.37338 0.18638 0.0
H186 H 0.05124 0.3836 0.17229 0.0
H187 H 0.05411 0.35084 0.09645 0.0
H188 H 0.02312 0.29634 0.26803 0.0
H189 H 0.01429 0.26977 0.36218 0.0
H190 H 0.04039 0.21424 0.23976 0.0
H191 H 0.04921 0.24051 0.14504 0.0
H192 H 0.98378 0.26596 0.96543 0.0
H193 H 0.98156 0.23026 0.89995 0.0
H194 H 0.05426 0.23232 0.86862 0.0
H195 H 0.05627 0.26776 0.93418 0.0
N196 N 0.0187 0.30758 0.02039 0.0
N197 N 0.02899 0.30631 0.1392 0.0
N198 N 0.03017 0.27314 0.07363 0.0
C199 C 0.02207 0.31845 0.08306 0.0
C200 C 0.03311 0.28381 0.13501 0.0
C201 C 0.02313 0.28455 0.01619 0.0
C202 C 0.01818 0.34303 0.09624 0.0
C203 C 0.99693 0.35006 0.12199 0.0
C204 C 0.99512 0.36908 0.16615 0.0
C205 C 0.01462 0.38141 0.18717 0.0
C206 C 0.03563 0.37516 0.15724 0.0
C207 C 0.03732 0.35638 0.11253 0.0
C208 C 0.03622 0.27028 0.19857 0.0
C209 C 0.02805 0.27866 0.26235 0.0
C210 C 0.02304 0.26358 0.31637 0.0
C211 C 0.02653 0.24028 0.30686 0.0
C212 C 0.03767 0.23233 0.24733 0.0
C213 C 0.04257 0.24732 0.19326 0.0
C214 C 0.02009 0.27031 0.95294 0.0
C215 C 0.99906 0.25949 0.94097 0.0
C216 C 0.29105 0.99514 0.92942 0.0
C217 C 0.29701 1.01164 0.87874 0.0
C218 C 0.28082 0.02888 0.86415 0.0
C219 C 0.26044 0.03054 0.90249 0.0
H220 H 0.17106 0.05141 0.07949 0.0
H221 H 0.13823 0.04884 0.15682 0.0
H222 H 0.15578 0.97914 0.20559 0.0
H223 H 0.1886 0.98187 0.12744 0.0
H224 H 0.22795 0.02797 0.26187 0.0
H225 H 0.25533 0.0198 0.35389 0.0
H226 H 0.30912 0.04782 0.22693 0.0
H227 H 0.282 0.05582 0.1341 0.0
H228 H 0.26761 0.98474 1.00916 0.0
H229 H 0.30284 0.98183 0.94428 0.0
H230 H 0.2842 0.04175 0.82494 0.0
H231 H 0.24953 0.0452 0.89426 0.0
N232 N 0.21757 0.01617 0.01986 0.0
N233 N 0.2176 0.0319 0.13263 0.0
N234 N 0.25107 0.0316 0.06804 0.0
C235 C 0.20616 0.02197 0.07983 0.0
C236 C 0.23992 0.03679 0.1273 0.0
C237 C 0.2403 0.02158 0.01398 0.0
C238 C 0.18202 0.0166 0.09502 0.0
C239 C 0.16708 0.0351 0.10329 0.0
C240 C 0.14856 0.03378 0.14926 0.0
C241 C 0.14442 0.01389 0.18867 0.0
C242 C 0.15822 0.99469 0.1759 0.0
C243 C 0.17687 0.99609 0.12998 0.0
C244 C 0.2531 0.04184 0.19009 0.0
C245 C 0.24537 0.03358 0.25488 0.0
C246 C 0.26095 0.02889 0.30771 0.0
C247 C 0.28407 0.03284 0.29598 0.0
C248 C 0.2912 0.04458 0.23608 0.0
C249 C 0.27572 0.0491 0.18315 0.0
C250 C 0.25523 0.01469 0.95529 0.0
C251 C 0.27053 0.99663 0.9667 0.0
C252 C 0.49754 0.29273 0.24155 0.0
C253 C 0.50907 0.2853 0.30132 0.0
C254 C 0.51542 0.2625 0.30905 0.0
C255 C 0.51176 0.24745 0.25445 0.0
H256 H 0.47399 0.17838 0.10215 0.0
H257 H 0.47495 0.14537 0.17808 0.0
H258 H 0.54851 0.14508 0.16728 0.0
H259 H 0.54713 0.17938 0.0946 0.0
H260 H 0.47941 0.25091 0.90728 0.0
H261 H 0.48049 0.28553 0.83619 0.0
H262 H 0.5491 0.29835 0.90812 0.0
H263 H 0.54815 0.26313 0.97439 0.0
H264 H 0.48651 0.28425 0.13912 0.0
H265 H 0.49283 0.31049 0.23514 0.0
H266 H 0.52466 0.25682 0.35484 0.0
H267 H 0.5182 0.23021 0.25923 0.0
N268 N 0.50546 0.21881 0.13376 0.0
N269 N 0.51208 0.21643 0.01279 0.0
N270 N 0.50615 0.25193 0.06658 0.0
C271 C 0.50939 0.206 0.07677 0.0
C272 C 0.51027 0.23981 1.00836 0.0
C273 C 0.5037 0.24161 0.12901 0.0
C274 C 0.51042 0.18111 0.08996 0.0
C275 C 0.49032 0.1705 0.11288 0.0
C276 C 0.49097 0.15151 0.15758 0.0
C277 C 0.51185 0.1422 0.18057 0.0
C278 C 0.53201 0.15177 0.15269 0.0
C279 C 0.53129 0.1711 0.10879 0.0
C280 C 0.51401 0.25365 0.94435 0.0
C281 C 0.49518 0.26043 0.90407 0.0
C282 C 0.49563 0.28085 0.86498 0.0
C283 C 0.51476 0.2955 0.86644 0.0
C284 C 0.53408 0.2878 0.9036 0.0
C285 C 0.5337 0.26725 0.9415 0.0
C286 C 0.50213 0.25539 0.19178 0.0
C287 C 0.49411 0.27783 0.18681 0.0
C288 C 0.96164 0.02951 0.57435 0.0
Eu289 Eu 0.99053 0.01547 0.66594 0.0
C290 C 0.96458 0.05067 0.53574 0.0
C291 C 0.9459 0.06444 0.51898 0.0
C292 C 0.9495 0.08665 0.49498 0.0
C293 C 0.97179 0.09515 0.48867 0.0
C294 C 0.99036 0.08114 0.50514 0.0
C295 C 0.98677 0.05909 0.52796 0.0
C296 C 0.97907 1.00368 0.79832 0.0
C297 C 0.01519 0.06105 0.73136 0.0
C298 C 0.05244 0.99931 0.87178 0.0
Eu299 Eu 0.03 1.00954 0.7596 0.0
C300 C 0.05675 0.97718 0.90534 0.0
C301 C 0.07373 0.9625 0.88016 0.0
C302 C 0.07471 0.93998 0.90327 0.0
C303 C 0.05869 0.93184 0.95148 0.0
C304 C 0.04258 0.94691 0.97947 0.0
C305 C 0.0418 0.96942 0.9572 0.0
C306 C 0.04847 0.01386 0.62983 0.0
C307 C 1.0091 0.96495 0.67988 0.0
O308 O 0.97682 0.01383 0.56081 0.0
O309 O 0.95866 0.03254 0.64104 0.0
O310 O 0.97016 0.99448 0.7435 0.0
O311 O 0.99385 0.01815 0.78022 0.0
O312 O 1.00131 0.05265 0.68357 0.0
O313 O 0.02785 0.04765 0.77063 0.0
O314 O 0.03119 1.00585 0.87186 0.0
O315 O 0.06231 1.00293 0.81179 0.0
O316 O 0.05992 1.01214 0.68712 0.0
O317 O 0.02728 0.01445 0.64296 0.0
O318 O 0.02 0.97249 0.73578 0.0
O319 O 0.99825 0.97921 0.63844 0.0
H320 H 0.92869 0.05833 0.52687 0.0
H321 H 0.93496 0.09726 0.48252 0.0
H322 H 1.00768 0.08745 0.50288 0.0
H323 H 1.00141 0.04904 0.5433 0.0
H324 H 0.08559 0.96806 0.84038 0.0
H325 H 0.08748 0.92875 0.88161 0.0
H326 H 0.0297 0.94107 0.01575 0.0
H327 H 0.02857 0.98037 0.97764 0.0
C328 C 0.49699 0.96735 0.53622 0.0
Eu329 Eu 0.50779 0.98896 0.64729 0.0
C330 C 0.47698 0.97253 0.49473 0.0
C331 C 0.46349 0.95475 0.46945 0.0
C332 C 0.44107 0.95904 0.44964 0.0
C333 C 0.43203 0.9811 0.45585 0.0
C334 C 0.44595 0.999 0.47846 0.0
C335 C 0.46827 0.99477 0.49745 0.0
C336 C 0.51507 0.97166 0.77866 0.0
C337 C 0.46379 1.01243 0.72653 0.0
C338 C 0.52617 0.05287 0.86355 0.0
Eu339 Eu 0.51518 0.02978 0.75499 0.0
C340 C 0.54704 0.05118 0.90433 0.0
C341 C 0.5602 0.0708 0.91378 0.0
C342 C 0.58284 0.06886 0.93418 0.0
C343 C 0.59241 0.04725 0.94659 0.0
C344 C 0.57876 0.02776 0.94139 0.0
C345 C 0.55641 0.02969 0.91914 0.0
C346 C 0.50702 0.04683 0.62356 0.0
C347 C 0.55911 1.00649 0.67543 0.0
O348 O 0.51285 0.98312 0.53656 0.0
O349 O 0.49178 0.95987 0.59854 0.0
O350 O 0.51263 0.95939 0.72331 0.0
O351 O 0.51493 0.99232 0.75962 0.0
O352 O 0.47139 1.00076 0.67201 0.0
O353 O 0.47761 0.02348 0.76917 0.0
O354 O 0.51222 0.03541 0.8666 0.0
O355 O 0.52966 0.06022 0.80004 0.0
O356 O 0.50932 0.05923 0.67862 0.0
O357 O 0.50783 0.02626 0.643 0.0
O358 O 0.55161 0.01831 0.72974 0.0
O359 O 0.54533 0.99522 0.63336 0.0
H360 H 0.46981 0.93741 0.46932 0.0
H361 H 0.43061 0.94504 0.43177 0.0
H362 H 0.43926 0.01606 0.48521 0.0
H363 H 0.47811 1.0086 0.51947 0.0
H364 H 0.55346 0.08746 0.90047 0.0
H365 H 0.59309 0.08417 0.93686 0.0
H366 H 0.58555 1.01093 0.95194 0.0
H367 H 0.54709 0.01425 0.90951 0.0
C368 C 0.55791 0.50179 0.54781 0.0
Eu369 Eu 0.53391 0.51001 0.65675 0.0
C370 C 0.55506 0.48223 0.50217 0.0
C371 C 0.57343 0.46736 0.49257 0.0
C372 C 0.56946 0.44493 0.47256 0.0
C373 C 0.54707 0.43722 0.46249 0.0
C374 C 0.52891 0.45262 0.46697 0.0
C375 C 0.53293 0.475 0.48607 0.0
C376 C 0.5493 0.51805 0.78992 0.0
C377 C 0.51187 0.4639 0.72874 0.0
C378 C 0.46869 0.52109 0.87468 0.0
Eu379 Eu 0.49193 0.51409 0.7633 0.0
C380 C 0.46905 0.54188 0.91646 0.0
C381 C 0.45239 0.55855 0.90367 0.0
C382 C 0.45674 0.58118 0.91942 0.0
C383 C 0.47751 0.58728 0.95016 0.0
C384 C 0.49292 0.57028 0.97083 0.0
C385 C 0.48876 0.54769 0.95392 0.0
C386 C 0.47611 0.50766 0.63004 0.0
C387 C 0.51303 0.56011 0.68717 0.0
O388 O 0.54133 0.51683 0.5475 0.0
O389 O 0.56442 0.49596 0.61068 0.0
O390 O 0.56233 0.51692 0.73574 0.0
O391 O 0.52909 0.51608 0.76869 0.0
O392 O 0.52375 0.47274 0.67617 0.0
O393 O 0.4998 0.47655 0.77195 0.0
O394 O 0.48743 0.50892 0.87476 0.0
O395 O 0.46029 0.52397 0.81205 0.0
O396 O 0.46324 0.51004 0.68417 0.0
O397 O 0.49653 0.50808 0.65105 0.0
O398 O 0.50148 0.55155 0.74115 0.0
O399 O 0.52506 0.5472 0.64447 0.0
H400 H 0.59058 0.47253 0.50609 0.0
H401 H 0.58376 0.43337 0.46818 0.0
H402 H 0.51146 0.44706 0.46022 0.0
H403 H 0.51853 0.48612 0.49399 0.0
H404 H 0.43701 0.55449 0.87506 0.0
H405 H 0.44453 0.594 0.90321 0.0
H406 H 0.50871 0.57457 0.99689 0.0
H407 H 0.50184 0.53519 0.96524 0.0
C408 C 0.02358 0.55853 0.54321 0.0
Eu409 Eu 0.01449 0.53507 0.65358 0.0
C410 C 0.04383 0.55726 0.49916 0.0
C411 C 0.05921 0.57557 0.49936 0.0
C412 C 0.08136 0.57253 0.47556 0.0
C413 C 0.08818 0.55126 0.45031 0.0
C414 C 0.07236 0.53345 0.44523 0.0
C415 C 0.05034 0.53637 0.46977 0.0
C416 C 1.00772 0.55091 0.78609 0.0
C417 C 0.05983 0.51217 0.72873 0.0
C418 C 1.00013 0.46865 0.86662 0.0
Eu419 Eu 1.00897 0.49287 0.75764 0.0
C420 C 0.97964 0.4692 0.90868 0.0
C421 C 0.97069 0.44881 0.9353 0.0
C422 C 0.94837 0.44823 0.95977 0.0
C423 C 0.93521 0.46809 0.95803 0.0
C424 C 0.9444 0.48865 0.93414 0.0
C425 C 0.96644 0.48914 0.90869 0.0
C426 C 0.01709 0.47749 0.62514 0.0
C427 C 0.96356 0.51593 0.68333 0.0
O428 O 1.00984 0.54088 0.54241 0.0
O429 O 0.02777 0.56586 0.60617 0.0
O430 O 1.00951 0.56365 0.73108 0.0
O431 O 1.0082 0.53033 0.76648 0.0
O432 O 0.0515 0.5254 0.67819 0.0
O433 O 0.04667 0.49918 0.76839 0.0
O434 O 0.01299 0.48692 0.86893 0.0
O435 O 0.99637 0.46151 0.80326 0.0
O436 O 0.01536 0.46441 0.67938 0.0
O437 O 0.01563 0.49785 0.64569 0.0
O438 O 0.97192 0.50266 0.73373 0.0
O439 O 0.97673 0.52888 0.64356 0.0
H440 H 0.05461 0.59169 0.52269 0.0
H441 H 0.0934 0.58645 0.47955 0.0
H442 H 0.07744 0.51682 0.42653 0.0
H443 H 0.039 0.52181 0.46993 0.0
H444 H 0.98043 0.43316 0.93309 0.0
H445 H 0.9411 0.43224 0.97735 0.0
H446 H 0.93409 0.50396 0.93147 0.0
H447 H 0.97253 0.50468 0.88461 0.0
C448 C 0.11344 0.99508 0.26134 0.0
C449 C 0.12742 0.01401 0.24735 0.0
C450 C 0.0984 0.99477 0.3188 0.0
C451 C 0.09741 0.0137 0.36443 0.0
C452 C 0.11121 0.03297 0.34989 0.0
C453 C 0.1259 0.03291 0.29186 0.0
C454 C 0.08401 0.97388 0.33176 0.0
C455 C 0.11111 0.05342 0.39724 0.0
C456 C 0.04907 0.02045 0.49841 0.0
C457 C 0.05971 0.01304 0.55998 0.0
C458 C 0.06094 0.0206 0.43412 0.0
C459 C 0.08377 0.0126 0.43092 0.0
C460 C 0.09417 1.00436 0.4927 0.0
C461 C 0.08217 1.0049 0.556 0.0
C462 C 0.04923 0.02976 0.36989 0.0
C463 C 0.11823 0.99528 0.49238 0.0
H464 H 0.1143 0.98043 0.22736 0.0
H465 H 0.13686 0.04749 0.28281 0.0
H466 H 0.08955 0.96539 0.38071 0.0
H467 H 0.06591 0.97878 0.33846 0.0
H468 H 0.08524 0.96141 0.28861 0.0
H469 H 0.12157 0.06768 0.37638 0.0
H470 H 0.09344 0.05957 0.405 0.0
H471 H 0.1179 0.04851 0.44915 0.0
H472 H 0.03174 0.02661 0.50069 0.0
H473 H 0.09052 0.99884 0.60295 0.0
H474 H 0.04933 0.01673 0.32828 0.0
H475 H 0.05866 0.0448 0.34971 0.0
H476 H 0.03135 0.03488 0.3803 0.0
H477 H 0.11986 0.98143 0.45363 0.0
H478 H 0.12353 0.98856 0.54412 0.0
H479 H 0.1302 1.00902 0.47682 0.0
C480 C 0.49407 0.10892 0.24709 0.0
C481 C 0.51239 0.12415 0.23747 0.0
C482 C 0.49298 0.09401 0.30501 0.0
C483 C 0.51092 0.09357 0.35442 0.0
C484 C 0.53009 0.10783 0.34306 0.0
C485 C 0.53046 0.12304 0.28575 0.0
C486 C 0.47203 0.07946 0.31502 0.0
C487 C 0.54988 0.10776 0.39326 0.0
C488 C 0.49799 0.07935 0.54473 0.0
C489 C 0.50557 0.05676 0.55186 0.0
C490 C 0.49914 0.09111 0.48082 0.0
C491 C 0.5085 0.0803 0.42163 0.0
C492 C 0.51586 0.05727 0.42791 0.0
C493 C 0.51418 0.04571 0.49284 0.0
C494 C 0.49078 0.11544 0.47729 0.0
C495 C 0.52628 0.04516 0.36669 0.0
H496 H 0.4802 0.10884 0.20996 0.0
H497 H 0.54466 0.13469 0.28076 0.0
H498 H 0.47689 0.06141 0.32389 0.0
H499 H 0.46269 0.0852 0.36197 0.0
H500 H 0.46032 0.08038 0.26963 0.0
H501 H 0.56476 0.11731 0.37247 0.0
H502 H 0.54462 0.1157 0.44299 0.0
H503 H 0.55525 0.09003 0.40518 0.0
H504 H 0.49146 0.0881 0.59008 0.0
H505 H 0.52054 0.02845 0.4981 0.0
H506 H 0.47813 0.11739 0.43473 0.0
H507 H 0.50521 0.12702 0.46539 0.0
H508 H 0.48283 0.12099 0.52683 0.0
H509 H 0.5144 0.04547 0.32177 0.0
H510 H 0.53062 0.02716 0.37908 0.0
H511 H 0.542 0.05417 0.35015 0.0
C512 C 0.41558 0.52667 0.25223 0.0
C513 C 0.39515 0.51434 0.2546 0.0
C514 C 0.43124 0.52587 0.30824 0.0
C515 C 0.42607 0.51296 0.36905 0.0
C516 C 0.40526 0.50069 0.37158 0.0
C517 C 0.39028 0.50129 0.3142 0.0
C518 C 0.45332 0.53886 0.3024 0.0
C519 C 0.39852 0.48728 0.43567 0.0
C520 C 0.47018 0.49438 0.50621 0.0
C521 C 0.46709 0.51079 0.55805 0.0
C522 C 0.45797 0.49558 0.44265 0.0
C523 C 0.44165 0.51315 0.4316 0.0
C524 C 0.43886 0.52996 0.48359 0.0
C525 C 0.45159 0.52858 0.54568 0.0
C526 C 0.46175 0.47741 0.38871 0.0
C527 C 0.42148 0.54876 0.47548 0.0
H528 H 0.41942 0.53674 0.20621 0.0
H529 H 0.3744 0.49189 0.31642 0.0
H530 H 0.45391 0.55244 0.34229 0.0
H531 H 0.46789 0.52727 0.3126 0.0
H532 H 0.45553 0.54683 0.25021 0.0
H533 H 0.38182 0.47863 0.42943 0.0
H534 H 0.41162 0.47422 0.44768 0.0
H535 H 0.39752 0.49881 0.48116 0.0
H536 H 0.48105 0.47989 0.51693 0.0
H537 H 0.44873 0.54105 0.58622 0.0
H538 H 0.4638 0.48524 0.33634 0.0
H539 H 0.44668 0.46604 0.3866 0.0
H540 H 0.477 0.46688 0.40048 0.0
H541 H 0.42412 0.55803 0.42566 0.0
H542 H 0.42223 0.5612 0.51881 0.0
H543 H 0.40413 0.54128 0.47387 0.0
C544 C 0.0293 0.41735 0.24653 0.0
C545 C 0.01355 0.39923 0.24402 0.0
C546 C 0.03008 0.43259 0.30325 0.0
C547 C 0.01447 0.4302 0.3591 0.0
C548 C 0.99783 0.41271 0.35548 0.0
C549 C 0.99772 0.39742 0.29888 0.0
C550 C 0.0483 0.45072 0.3047 0.0
C551 C 0.98059 0.40954 0.41297 0.0
C552 C 0.03085 0.44768 0.54401 0.0
C553 C 0.01923 0.46835 0.55302 0.0
C554 C 0.03016 0.43577 0.48065 0.0
C555 C 0.01698 0.44427 0.42437 0.0
C556 C 1.00561 0.46552 0.43237 0.0
C557 C 1.00704 0.47743 0.49638 0.0
C558 C 0.04298 0.41355 0.47497 0.0
C559 C 0.99102 0.47508 0.37453 0.0
H560 H 0.04137 0.41955 0.20446 0.0
H561 H 0.98563 0.38349 0.29934 0.0
H562 H 0.04065 0.46766 0.3148 0.0
H563 H 0.06036 0.44708 0.34786 0.0
H564 H 0.05803 0.4516 0.25519 0.0
H565 H 0.96719 0.397 0.39899 0.0
H566 H 0.98929 0.40346 0.46091 0.0
H567 H 0.97233 0.42602 0.4254 0.0
H568 H 0.04014 0.44044 0.58768 0.0
H569 H 0.99759 0.49311 0.50332 0.0
H570 H 0.05397 0.41374 0.42801 0.0
H571 H 0.03077 0.39927 0.46919 0.0
H572 H 0.0538 0.41012 0.52135 0.0
H573 H 1.00092 0.47618 0.32548 0.0
H574 H 0.98427 0.49226 0.38704 0.0
H575 H 0.97646 0.46346 0.36487 0.0
C576 C 0.88719 1.00911 0.10107 0.0
C577 C 0.89474 1.00253 0.16753 0.0
C578 C 0.90228 1.01047 0.04427 0.0
C579 C 0.92549 1.00448 0.05337 0.0
C580 C 0.93326 0.99808 0.12078 0.0
C581 C 0.91786 0.9975 0.17723 0.0
C582 C 0.89328 0.01809 0.97422 0.0
C583 C 0.95769 0.99115 0.13282 0.0
C584 C 0.95467 0.98417 0.88715 0.0
C585 C 0.96751 1.00325 0.86727 0.0
C586 C 0.94182 0.98403 0.94904 0.0
C587 C 0.94115 1.00373 0.99145 0.0
C588 C 0.9544 0.02299 0.97209 0.0
C589 C 0.96767 0.02239 0.91082 0.0
C590 C 0.92851 0.9629 0.96818 0.0
C591 C 0.95376 0.04459 0.01431 0.0
H592 H 0.86937 0.01332 0.09364 0.0
H593 H 0.92374 0.99249 0.22861 0.0
H594 H 0.90392 0.03214 0.95309 0.0
H595 H 0.89422 1.00379 0.93681 0.0
H596 H 0.87534 0.024 0.97702 0.0
H597 H 0.96124 0.98728 0.18848 0.0
H598 H 0.96164 0.97583 0.10147 0.0
H599 H 0.96934 1.0049 0.1153 0.0
H600 H 0.95452 0.96933 0.85378 0.0
H601 H 0.97738 0.03731 0.89541 0.0
H602 H 0.91 0.96654 0.9652 0.0
H603 H 0.93236 0.95772 0.02261 0.0
H604 H 0.93236 0.94839 0.93322 0.0
H605 H 0.93632 0.05185 0.0129 0.0
H606 H 0.96586 0.05765 0.99445 0.0
H607 H 0.95786 0.04088 0.06961 0.0
C608 C 0.5345 0.90372 0.13906 0.0
C609 C 0.51415 0.90008 0.17658 0.0
C610 C 0.53536 0.91815 0.08 0.0
C611 C 0.51522 0.92854 0.05449 0.0
C612 C 0.49477 0.92553 0.09238 0.0
C613 C 0.49464 0.91206 0.15353 0.0
C614 C 0.55782 0.92163 0.0433 0.0
C615 C 0.47264 0.93557 0.06639 0.0
C616 C 0.51648 0.97474 0.91112 0.0
C617 C 0.5153 0.96161 0.85049 0.0
C618 C 0.51725 0.96436 0.9779 0.0
C619 C 0.5151 0.9403 0.98448 0.0
C620 C 0.51271 0.92715 0.92329 0.0
C621 C 0.51334 0.93785 0.85764 0.0
C622 C 0.52049 0.97913 0.04118 0.0
C623 C 0.50922 0.90166 0.92694 0.0
H624 H 0.54988 0.89481 0.1538 0.0
H625 H 0.47886 0.91072 0.18207 0.0
H626 H 0.55781 0.91222 0.99339 0.0
H627 H 0.5604 0.93995 0.03086 0.0
H628 H 0.57243 0.91554 0.07514 0.0
H629 H 0.45826 0.93224 0.10257 0.0
H630 H 0.47433 0.95423 0.05894 0.0
H631 H 0.46836 0.92818 0.01492 0.0
H632 H 0.51658 0.99304 0.90645 0.0
H633 H 0.51187 0.92744 0.81141 0.0
H634 H 0.53382 0.97182 0.07573 0.0
H635 H 0.50446 0.97977 0.07149 0.0
H636 H 0.52539 0.99683 0.02689 0.0
H637 H 0.52444 0.89337 0.94999 0.0
H638 H 0.50608 0.89411 0.87488 0.0
H639 H 0.49452 0.89759 0.96111 0.0
C640 C 0.62492 0.49649 0.1267 0.0
C641 C 0.62425 0.51335 0.17858 0.0
C642 C 0.61019 0.49714 0.06855 0.0
C643 C 0.59433 0.5152 0.06076 0.0
C644 C 0.59303 0.53188 0.11382 0.0
C645 C 0.60788 0.53075 0.17175 0.0
C646 C 0.61229 0.47888 0.01384 0.0
C647 C 0.57645 0.55143 0.10819 0.0
C648 C 0.57958 0.53031 0.87218 0.0
C649 C 0.55828 0.51997 0.86247 0.0
C650 C 0.59089 0.52963 0.93679 0.0
C651 C 0.58099 0.51788 0.99388 0.0
C652 C 0.5591 0.50789 0.98515 0.0
C653 C 0.54794 0.50915 0.91965 0.0
C654 C 0.61393 0.54087 0.94306 0.0
C655 C 0.54796 0.49493 0.04398 0.0
H656 H 0.63761 0.48314 0.12985 0.0
H657 H 0.60678 0.54373 0.21147 0.0
H658 H 0.59532 0.47158 1.0019 0.0
H659 H 0.619 0.48647 0.96494 0.0
H660 H 0.62383 0.46486 0.03036 0.0
H661 H 0.57606 0.5619 0.15619 0.0
H662 H 0.58126 0.56257 0.06368 0.0
H663 H 0.55903 0.54496 0.09775 0.0
H664 H 0.58777 0.5386 0.82823 0.0
H665 H 0.53175 0.50065 0.91234 0.0
H666 H 0.62716 0.52774 0.95279 0.0
H667 H 0.61411 0.55268 0.98798 0.0
H668 H 0.61862 0.55059 0.89537 0.0
H669 H 0.55764 0.47903 0.0544 0.0
H670 H 0.53005 0.49034 0.03182 0.0
H671 H 0.54828 0.50511 0.09247 0.0
C672 C 0.02752 0.61197 0.15915 0.0
C673 C 1.0082 0.62499 0.17612 0.0
C674 C 0.02764 0.59712 0.10144 0.0
C675 C 1.00793 0.59496 0.05916 0.0
C676 C 0.98808 0.60724 0.07778 0.0
C677 C 0.98848 0.62208 0.13531 0.0
C678 C 0.04927 0.58456 0.08383 0.0
C679 C 0.96664 0.60558 0.03472 0.0
C680 C 0.01425 0.58383 0.86466 0.0
C681 C 1.00843 0.56069 0.85803 0.0
C682 C 0.01483 0.59473 0.92955 0.0
C683 C 1.00889 0.58252 0.99065 0.0
C684 C 1.00323 0.55901 0.98492 0.0
C685 C 1.00349 0.54827 0.91883 0.0
C686 C 0.02156 0.61957 0.93232 0.0
C687 C 0.99658 0.54534 0.04843 0.0
H688 H 0.0428 0.61363 0.19036 0.0
H689 H 0.97349 0.63218 0.14626 0.0
H690 H 0.04567 0.56625 0.07509 0.0
H691 H 0.05647 0.59155 0.03476 0.0
H692 H 0.06231 0.58608 0.12549 0.0
H693 H 0.95192 0.61397 0.06023 0.0
H694 H 0.96943 0.61383 0.98328 0.0
H695 H 0.96228 0.58746 0.02511 0.0
H696 H 0.01852 0.59364 0.81848 0.0
H697 H 0.99953 0.53037 0.91481 0.0
H698 H 0.03587 0.62192 0.96934 0.0
H699 H 1.00706 0.62989 0.95146 0.0
H700 H 0.0268 0.62635 0.88062 0.0
H701 H 1.01092 0.54491 0.08602 0.0
H702 H 0.99177 0.52756 0.0353 0.0
H703 H 0.982 0.5536 0.07499 0.0
C704 C 0.02077 0.21765 0.41467 0.0
C705 C 0.0136 0.22404 0.34818 0.0
C706 C 1.01054 0.19906 0.44808 0.0
C707 C 0.99311 0.187 0.41308 0.0
C708 C 0.98445 0.19493 0.34872 0.0
C709 C 0.99492 0.21348 0.31683 0.0
C710 C 0.02 0.19093 0.51698 0.0
C711 C 0.96594 0.18235 0.30989 0.0
C712 C 0.99423 0.12333 0.42193 0.0
C713 C 0.97614 0.11876 0.46721 0.0
C714 C 1.00041 0.14562 0.40623 0.0
C715 C 0.98759 0.16369 0.43473 0.0
C716 C 0.96893 0.1593 0.47908 0.0
C717 C 0.9635 0.1367 0.49549 0.0
C718 C 0.02053 0.14976 0.35862 0.0
C719 C 0.95485 0.1784 0.50898 0.0
H720 H 0.03517 0.22622 0.4383 0.0
H721 H 0.98943 0.21892 0.26535 0.0
H722 H 1.00616 0.18526 0.55226 0.0
H723 H 0.03134 0.1761 0.50809 0.0
H724 H 0.03004 0.20445 0.54324 0.0
H725 H 0.95865 0.1928 0.26689 0.0
H726 H 0.97313 0.16657 0.28711 0.0
H727 H 0.95202 0.17722 0.34566 0.0
H728 H 1.00374 0.10939 0.3992 0.0
H729 H 0.94971 0.1331 0.53134 0.0
H730 H 0.03297 0.16128 0.38393 0.0
H731 H 0.01473 0.15819 0.30987 0.0
H732 H 0.02943 0.13372 0.34465 0.0
H733 H 0.96571 0.1894 0.54203 0.0
H734 H 0.94041 0.17198 0.54084 0.0
H735 H 0.948 0.18927 0.46639 0.0
C736 C 0.30584 0.02462 0.40422 0.0
C737 C 0.30092 0.01975 0.33483 0.0
C738 C 0.32467 0.01445 0.43642 0.0
C739 C 0.33846 0.99943 0.39735 0.0
C740 C 0.33188 0.99263 0.32982 0.0
C741 C 0.31306 1.00297 0.29924 0.0
C742 C 0.33118 0.02166 0.50905 0.0
C743 C 0.3462 0.97662 0.28665 0.0
C744 C 0.40172 1.00546 0.40634 0.0
C745 C 0.4079 0.98555 0.44189 0.0
C746 C 0.37895 1.01073 0.39515 0.0
C747 C 0.36204 0.99533 0.41866 0.0
C748 C 0.36806 0.97524 0.45498 0.0
C749 C 0.39109 0.97061 0.4667 0.0
C750 C 0.37308 0.03239 0.35592 0.0
C751 C 0.35025 0.95854 0.47994 0.0
H752 H 0.29593 0.03734 0.43147 0.0
H753 H 0.3086 0.99896 0.24582 0.0
H754 H 0.33813 1.0071 0.53943 0.0
H755 H 0.34465 0.03488 0.50588 0.0
H756 H 0.31643 0.02892 0.53745 0.0
H757 H 0.33676 0.97018 0.24061 0.0
H758 H 0.36156 0.98578 0.26777 0.0
H759 H 0.35206 0.96187 0.31824 0.0
H760 H 0.41477 0.01685 0.38655 0.0
H761 H 0.39594 0.95543 0.49553 0.0
H762 H 0.3605 0.04252 0.3856 0.0
H763 H 0.36526 0.0281 0.30502 0.0
H764 H 0.38827 0.04322 0.34605 0.0
H765 H 0.33773 0.96731 0.51365 0.0
H766 H 0.3578 0.94406 0.50952 0.0
H767 H 0.34072 0.95164 0.43481 0.0
C768 C 0.5377 0.31434 0.32374 0.0
C769 C 0.51855 0.30244 0.34695 0.0
C770 C 0.54403 0.33466 0.35525 0.0
C771 C 0.53081 0.34285 0.41125 0.0
C772 C 0.51278 0.32966 0.43906 0.0
C773 C 0.50663 0.30947 0.40571 0.0
C774 C 0.56318 0.34848 0.32369 0.0
C775 C 0.49874 0.3379 0.49961 0.0
C776 C 0.55365 0.39639 0.4918 0.0
C777 C 0.54238 0.41294 0.45163 0.0
C778 C 0.54928 0.37324 0.48178 0.0
C779 C 0.53322 0.36681 0.43087 0.0
C780 C 0.52113 0.38347 0.3922 0.0
C781 C 0.52601 0.4064 0.40276 0.0
C782 C 0.56238 0.35574 0.52357 0.0
C783 C 0.50375 0.3771 0.33746 0.0
H784 H 0.54663 0.30861 0.27756 0.0
H785 H 0.49175 0.30001 0.42259 0.0
H786 H 0.556 0.36341 0.2955 0.0
H787 H 0.57464 0.35506 0.36487 0.0
H788 H 0.57343 0.3384 0.2863 0.0
H789 H 0.48769 0.32421 0.52117 0.0
H790 H 0.50994 0.34431 0.54163 0.0
H791 H 0.48776 0.35225 0.48237 0.0
H792 H 0.56588 0.40153 0.531 0.0
H793 H 0.51736 0.41923 0.37166 0.0
H794 H 0.57492 0.34719 0.48937 0.0
H795 H 0.55078 0.34238 0.54409 0.0
H796 H 0.57168 0.36352 0.56788 0.0
H797 H 0.51235 0.36833 0.29371 0.0
H798 H 0.49462 0.39221 0.31628 0.0
H799 H 0.49102 0.36511 0.3595 0.0
C800 C 0.21624 0.52953 0.34303 0.0
C801 C 0.22074 0.50636 0.35388 0.0
C802 C 0.19605 0.53914 0.36706 0.0
C803 C 0.1805 0.52517 0.40363 0.0
C804 C 0.18604 0.5023 0.42032 0.0
C805 C 0.20607 0.49294 0.39376 0.0
C806 C 0.19043 0.56349 0.34759 0.0
C807 C 0.16998 0.48728 0.46123 0.0
C808 C 0.12877 0.55168 0.48571 0.0
C809 C 0.11218 0.54677 0.43547 0.0
C810 C 0.15137 0.54507 0.47573 0.0
C811 C 0.15717 0.53331 0.41436 0.0
C812 C 0.14059 0.52897 0.36254 0.0
C813 C 0.11818 0.53574 0.37395 0.0
C814 C 0.16874 0.54985 0.53183 0.0
C815 C 0.1464 0.51679 0.29573 0.0
H816 H 0.22763 0.53963 0.31084 0.0
H817 H 0.20974 0.47497 0.40106 0.0
H818 H 0.17678 0.56363 0.30753 0.0
H819 H 0.18392 0.57288 0.3934 0.0
H820 H 0.20541 0.57273 0.3263 0.0
H821 H 0.17819 0.47107 0.47778 0.0
H822 H 0.16377 0.4963 0.50814 0.0
H823 H 0.15493 0.48314 0.42869 0.0
H824 H 0.12389 0.55991 0.53383 0.0
H825 H 0.10521 0.5321 0.33533 0.0
H826 H 0.18502 0.55589 0.50908 0.0
H827 H 0.17239 0.53386 0.56089 0.0
H828 H 0.16258 0.56282 0.56923 0.0
H829 H 0.16037 0.52585 0.26826 0.0
H830 H 0.13158 0.51554 0.25994 0.0
H831 H 0.1525 0.4993 0.30765 0.0
C832 C 0.03715 0.80181 0.05284 0.0
C833 C 0.01336 0.80007 0.05191 0.0
C834 C 0.04788 0.8215 0.02857 0.0
C835 C 0.03434 0.8395 1.00255 0.0
C836 C 1.0105 0.83691 0.99539 0.0
C837 C 1.0002 0.81714 0.02094 0.0
C838 C 0.07333 0.8239 0.03738 0.0
C839 C 0.99568 0.85577 0.96656 0.0
C840 C 0.05092 0.90025 0.03472 0.0
C841 C 0.05696 0.90734 0.96751 0.0
C842 C 0.04442 0.87777 0.04758 0.0
C843 C 0.04451 0.86208 0.99201 0.0
C844 C 0.05256 0.86854 0.92566 0.0
C845 C 0.05853 0.89129 0.91384 0.0
C846 C 0.0362 0.87121 0.11953 0.0
C847 C 0.05347 0.85175 0.86642 0.0
H848 H 0.04723 0.78866 0.07813 0.0
H849 H 0.9818 0.81562 0.02087 0.0
H850 H 0.08112 0.8322 0.99118 0.0
H851 H 0.07691 0.83487 0.08299 0.0
H852 H 0.0817 0.80715 0.04616 0.0
H853 H 0.97796 0.84995 0.95688 0.0
H854 H 0.99514 0.87006 1.00413 0.0
H855 H 1.00286 0.86248 0.91711 0.0
H856 H 0.05027 0.91254 0.07662 0.0
H857 H 0.06317 0.8967 0.86171 0.0
H858 H 0.04513 0.85567 0.13817 0.0
H859 H 0.01774 0.86723 0.11762 0.0
H860 H 0.0389 0.88502 0.15801 0.0
H861 H 0.06078 0.83526 0.88387 0.0
H862 H 0.06377 0.85828 0.82214 0.0
H863 H 0.03592 0.84825 0.8479 0.0
C864 C 0.7081 0.02722 0.12537 0.0
C865 C 0.72542 0.04124 0.09935 0.0
C866 C 0.68808 0.02428 0.08792 0.0
C867 C 0.68562 0.03579 0.02359 0.0
C868 C 0.70418 0.04747 0.99314 0.0
C869 C 0.72413 0.05019 0.03197 0.0
C870 C 0.66877 1.01091 0.12039 0.0
C871 C 0.70216 0.05886 0.92282 0.0
C872 C 0.62942 0.02697 0.93419 0.0
C873 C 0.61674 0.04493 0.96259 0.0
C874 C 0.65227 0.02393 0.95197 0.0
C875 C 0.66259 0.0397 0.99719 0.0
C876 C 0.65012 0.05833 0.02396 0.0
C877 C 0.62721 0.06056 1.00684 0.0
C878 C 0.66512 1.0038 0.92299 0.0
C879 C 0.66066 0.07535 0.07329 0.0
H880 H 0.70974 0.01964 0.17681 0.0
H881 H 0.73799 0.06048 0.01177 0.0
H882 H 0.65544 0.02287 0.13869 0.0
H883 H 0.66082 0.99949 0.08145 0.0
H884 H 0.67454 1.00048 0.16553 0.0
H885 H 0.71906 0.06378 0.90161 0.0
H886 H 0.69356 0.04738 0.88533 0.0
H887 H 0.69159 0.07445 0.92758 0.0
H888 H 0.62141 0.01514 0.89868 0.0
H889 H 0.61735 0.07423 0.02965 0.0
H890 H 0.67772 0.9969 0.96065 0.0
H891 H 0.67453 1.00932 0.87576 0.0
H892 H 0.65339 0.98979 0.90827 0.0
H893 H 0.66537 0.06669 0.12278 0.0
H894 H 0.64893 0.08963 0.08555 0.0
H895 H 0.67645 0.08257 0.05046 0.0
C896 C 0.49988 0.71903 0.01305 0.0
C897 C 0.50337 0.71851 0.08496 0.0
C898 C 0.50002 0.69871 0.9755 0.0
C899 C 0.50327 0.67796 0.01198 0.0
C900 C 0.50931 0.67781 0.08324 0.0
C901 C 0.50961 0.6983 0.11874 0.0
C902 C 0.49444 0.69926 0.89883 0.0
C903 C 0.51269 0.65592 0.12412 0.0
C904 C 0.4672 0.62691 0.98038 0.0
C905 C 0.48356 0.61137 0.95768 0.0
C906 C 0.47303 0.64955 0.99196 0.0
C907 C 0.49585 0.65649 0.98134 0.0
C908 C 0.51215 0.64128 0.95464 0.0
C909 C 0.50574 0.61875 0.94255 0.0
C910 C 0.45526 0.66544 0.02144 0.0
C911 C 0.53652 0.64854 0.94259 0.0
H912 H 0.49551 0.73495 0.98734 0.0
H913 H 0.51301 0.69834 0.17431 0.0
H914 H 0.50375 0.68575 0.87045 0.0
H915 H 0.47595 0.69623 0.89164 0.0
H916 H 0.49865 0.71608 0.87528 0.0
H917 H 0.51954 0.65906 0.17717 0.0
H918 H 0.49612 0.64698 0.1295 0.0
H919 H 0.52448 0.64431 0.09662 0.0
H920 H 0.45009 0.62116 0.99223 0.0
H921 H 0.51818 0.60683 0.92253 0.0
H922 H 0.45492 0.6817 0.99179 0.0
H923 H 0.45956 0.6695 0.07629 0.0
H924 H 0.43792 0.65787 0.0203 0.0
H925 H 0.53697 0.66386 0.90844 0.0
H926 H 0.54686 0.63486 0.91846 0.0
H927 H 0.5446 0.65334 0.99264 0.0
C928 C 0.81234 0.50822 0.02421 0.0
C929 C 0.79926 0.49271 0.06239 0.0
C930 C 0.83315 0.50154 0.99611 0.0
C931 C 0.84083 0.47901 1.00803 0.0
C932 C 0.82663 0.46274 0.04067 0.0
C933 C 0.80575 0.46983 0.06735 0.0
C934 C 0.84787 0.51919 0.96047 0.0
C935 C 0.83454 0.43865 0.05457 0.0
C936 C 0.8956 0.46163 0.92252 0.0
C937 C 0.91117 0.46736 0.97462 0.0
C938 C 0.87231 0.46474 0.93323 0.0
C939 C 0.86492 0.47368 0.99739 0.0
C940 C 0.88068 0.47864 0.05112 0.0
C941 C 0.90383 0.47555 0.03867 0.0
C942 C 0.85578 0.4596 0.87513 0.0
C943 C 0.87322 0.48809 0.12051 0.0
H944 H 0.80711 0.52593 0.02111 0.0
H945 H 0.79561 0.45802 0.098 0.0
H946 H 0.86171 0.52449 0.99631 0.0
H947 H 0.85595 0.51204 0.9132 0.0
H948 H 0.83798 0.5346 0.94545 0.0
H949 H 0.82029 0.42734 0.07056 0.0
H950 H 0.84282 0.43138 1.00781 0.0
H951 H 0.84739 0.43874 0.09701 0.0
H952 H 0.90174 0.45574 0.87251 0.0
H953 H 0.91627 0.48023 0.07789 0.0
H954 H 0.84832 0.47575 0.85526 0.0
H955 H 0.84148 0.44899 0.8946 0.0
H956 H 0.86407 0.45063 0.83117 0.0
H957 H 0.86555 0.50521 0.11286 0.0
H958 H 0.88761 0.48966 0.1578 0.0
H959 H 0.86001 0.47697 0.14412 0.0
C960 C 0.03423 0.18823 0.8709 0.0
C961 C 0.01732 0.20402 0.85135 0.0
C962 C 0.03382 0.16544 0.84768 0.0
C963 C 0.01609 0.15788 0.80324 0.0
C964 C 0.99914 0.17377 0.78227 0.0
C965 C 0.99985 0.19648 0.80685 0.0
C966 C 0.05227 0.14931 0.87186 0.0
C967 C 0.98002 0.1667 0.73447 0.0
C968 C 0.02524 0.10192 0.70299 0.0
C969 C 0.01473 0.08591 0.74688 0.0
C970 C 0.02566 0.12536 0.72006 0.0
C971 C 0.01485 0.13313 0.78179 0.0
C972 C 1.00366 0.11693 0.82504 0.0
C973 C 1.00402 0.09359 0.8076 0.0
C974 C 0.03805 0.14176 0.67266 0.0
C975 C 0.99141 0.12423 0.89026 0.0
H976 H 0.04762 0.19352 0.90614 0.0
H977 H 0.98675 0.20841 0.79082 0.0
H978 H 0.04466 0.13533 0.90329 0.0
H979 H 0.06069 0.1414 0.8263 0.0
H980 H 0.06541 0.15796 0.90386 0.0
H981 H 0.96864 0.18116 0.72074 0.0
H982 H 0.98703 0.15948 0.68572 0.0
H983 H 0.96974 0.15313 0.7598 0.0
H984 H 0.03359 0.09602 0.65611 0.0
H985 H 0.99579 0.08126 0.84151 0.0
H986 H 0.05178 0.15048 0.70199 0.0
H987 H 0.02617 0.15512 0.65366 0.0
H988 H 0.04568 0.13311 0.62699 0.0
H989 H 1.00369 0.13188 0.92732 0.0
H990 H 0.98265 0.10978 0.91661 0.0
H991 H 0.97859 0.1375 0.87738 0.0
C992 C 0.33306 0.99137 0.83814 0.0
C993 C 0.3205 1.01169 0.84562 0.0
C994 C 0.35579 0.99141 0.81413 0.0
C995 C 0.36642 1.01218 0.79468 0.0
C996 C 0.3536 0.03261 0.79854 0.0
C997 C 0.33111 0.03218 0.82469 0.0
C998 C 0.36871 0.96919 0.81173 0.0
C999 C 0.36388 0.05511 0.77662 0.0
C1000 C 0.43128 0.01691 0.81061 0.0
C1001 C 0.43879 0.01277 0.74235 0.0
C1002 C 0.40797 0.01662 0.82797 0.0
C1003 C 0.39137 0.01273 0.77563 0.0
C1004 C 0.3988 1.00907 0.70612 0.0
C1005 C 0.42235 1.00875 0.69062 0.0
C1006 C 0.40114 0.02012 0.90296 0.0
C1007 C 0.38192 1.00542 0.64791 0.0
H1008 H 0.32527 0.97524 0.85176 0.0
H1009 H 0.32218 0.04818 0.83059 0.0
H1010 H 0.3751 0.96615 0.75828 0.0
H1011 H 0.38375 0.97009 0.84666 0.0
H1012 H 0.35807 0.95443 0.82783 0.0
H1013 H 0.35107 0.06904 0.77524 0.0
H1014 H 0.37759 0.05991 0.81348 0.0
H1015 H 0.3717 0.05362 0.72425 0.0
H1016 H 0.44374 0.01985 0.85127 0.0
H1017 H 0.42788 1.00564 0.63767 0.0
H1018 H 0.39119 1.00523 0.92176 0.0
H1019 H 0.39002 0.03532 0.90729 0.0
H1020 H 0.41606 0.02245 0.93779 0.0
H1021 H 0.37409 0.9883 0.65334 0.0
H1022 H 0.39006 1.00655 0.59578 0.0
H1023 H 0.368 0.01817 0.65048 0.0
C1024 C 0.53415 0.33048 0.8132 0.0
C1025 C 0.51408 0.31929 0.83473 0.0
C1026 C 0.53408 0.35349 0.791 0.0
C1027 C 0.51334 0.3658 0.78754 0.0
C1028 C 0.49286 0.35435 0.80526 0.0
C1029 C 0.4935 0.33158 0.82955 0.0
C1030 C 0.55642 0.36486 0.77337 0.0
C1031 C 0.4702 0.36638 0.80018 0.0
C1032 C 0.51295 0.43058 0.81102 0.0
C1033 C 0.51256 0.43879 0.7422 0.0
C1034 C 0.51379 0.40706 0.82603 0.0
C1035 C 0.51322 0.39101 0.77104 0.0
C1036 C 0.51242 0.39923 0.70123 0.0
C1037 C 0.51265 0.42297 0.68766 0.0
C1038 C 0.51559 0.39939 0.90106 0.0
C1039 C 0.51112 0.38302 0.6407 0.0
H1040 H 0.55018 0.32139 0.81442 0.0
H1041 H 0.47776 0.32374 0.84651 0.0
H1042 H 0.55629 0.37065 0.71832 0.0
H1043 H 0.55882 0.38018 0.80621 0.0
H1044 H 0.57119 0.35331 0.78119 0.0
H1045 H 0.45565 0.3545 0.80733 0.0
H1046 H 0.46915 0.37976 0.8406 0.0
H1047 H 0.46849 0.37494 0.74873 0.0
H1048 H 0.51314 0.44268 0.85351 0.0
H1049 H 0.51226 0.42915 0.63433 0.0
H1050 H 0.5306 0.3881 0.9078 0.0
H1051 H 0.50031 0.38938 0.9158 0.0
H1052 H 0.51723 0.41395 0.93746 0.0
H1053 H 0.52777 0.37443 0.63398 0.0
H1054 H 0.50681 0.3919 0.59113 0.0
H1055 H 0.4982 0.36959 0.65073 0.0
C1056 C 0.19684 0.50491 0.79296 0.0
C1057 C 0.20237 0.51651 0.85469 0.0
C1058 C 0.17428 0.50428 0.7672 0.0
C1059 C 0.15655 0.51538 0.80398 0.0
C1060 C 0.16207 0.5274 0.86561 0.0
C1061 C 0.18473 0.52779 0.89007 0.0
C1062 C 0.16936 0.49144 0.70097 0.0
C1063 C 0.14388 0.53948 0.90682 0.0
C1064 C 0.09929 0.52923 0.71621 0.0
C1065 C 0.08495 0.51221 0.74346 0.0
C1066 C 0.12262 0.53024 0.73425 0.0
C1067 C 0.13211 0.51371 0.7801 0.0
C1068 C 0.11786 0.49609 0.80596 0.0
C1069 C 0.09459 0.49564 0.78784 0.0
C1070 C 0.13697 0.54946 0.70583 0.0
C1071 C 0.12714 0.47784 0.85396 0.0
H1072 H 0.2102 0.4963 0.76454 0.0
H1073 H 0.18847 0.53645 0.93843 0.0
H1074 H 0.15708 0.47748 0.71167 0.0
H1075 H 0.16134 0.50298 0.66209 0.0
H1076 H 0.18498 0.48401 0.67774 0.0
H1077 H 0.151 0.549 0.95168 0.0
H1078 H 0.1345 0.5516 0.87274 0.0
H1079 H 0.13135 0.5269 0.92679 0.0
H1080 H 0.09218 0.54219 0.68212 0.0
H1081 H 0.08387 0.48227 0.80908 0.0
H1082 H 0.15268 0.54262 0.68184 0.0
H1083 H 0.14231 0.56072 0.74908 0.0
H1084 H 0.12769 0.55987 0.66654 0.0
H1085 H 0.14199 0.46939 0.82954 0.0
H1086 H 0.11421 0.46466 0.86688 0.0
H1087 H 0.13317 0.48566 0.9031 0.0
C1088 C 0.99135 0.82994 0.60604 0.0
C1089 C 1.00807 0.82163 0.56016 0.0
C1090 C 0.99147 0.85276 0.62919 0.0
C1091 C 1.00876 0.86794 0.6066 0.0
C1092 C 0.02616 0.85952 0.56261 0.0
C1093 C 0.02552 0.83671 0.53957 0.0
C1094 C 0.97303 0.86068 0.67803 0.0
C1095 C 0.04543 0.87476 0.53932 0.0
C1096 C 0.99749 0.93227 0.60252 0.0
C1097 C 1.0087 0.94002 0.66276 0.0
C1098 C 0.9972 0.909 0.58443 0.0
C1099 C 1.00836 0.89273 0.62734 0.0
C1100 C 0.01934 0.9004 0.68888 0.0
C1101 C 0.01949 0.92383 0.70555 0.0
C1102 C 0.98496 0.90183 0.51896 0.0
C1103 C 0.03138 0.88429 0.73769 0.0
H1104 H 0.97804 0.81859 0.62414 0.0
H1105 H 0.03847 0.83093 0.50368 0.0
H1106 H 0.98083 0.86702 0.72692 0.0
H1107 H 0.96354 0.87508 0.65408 0.0
H1108 H 0.96079 0.84688 0.69122 0.0
H1109 H 0.05816 0.86556 0.5073 0.0
H1110 H 0.0386 0.88926 0.50836 0.0
H1111 H 0.05415 0.882 0.58551 0.0
H1112 H 0.98896 0.94446 0.56883 0.0
H1113 H 0.02818 0.92938 0.75233 0.0
H1114 H 0.97178 0.88891 0.53179 0.0
H1115 H 0.99716 0.89377 0.48256 0.0
H1116 H 0.97664 0.91639 0.49189 0.0
H1117 H 0.02674 0.88836 0.79226 0.0
H1118 H 0.05002 0.88682 0.73231 0.0
H1119 H 0.02742 0.86611 0.72811 0.0
C1120 C 0.6919 0.02324 0.57941 0.0
C1121 C 0.70272 1.00247 0.56348 0.0
C1122 C 0.66902 0.02404 0.60164 0.0
C1123 C 0.65619 1.00367 0.60741 0.0
C1124 C 0.66706 0.98263 0.59324 0.0
C1125 C 0.69004 0.98227 0.57166 0.0
C1126 C 0.6584 0.04681 0.61797 0.0
C1127 C 0.65435 0.96041 0.60102 0.0
C1128 C 0.60043 1.00554 0.71213 0.0
C1129 C 0.58396 1.00607 0.65922 0.0
C1130 C 0.62388 1.00416 0.69632 0.0
C1131 C 0.63124 1.00443 0.62586 0.0
C1132 C 0.6146 1.00558 0.57237 0.0
C1133 C 0.59128 1.00592 0.58961 0.0
C1134 C 0.64053 1.0025 0.75583 0.0
C1135 C 0.62145 1.00667 0.49667 0.0
H1136 H 0.70109 0.0391 0.57268 0.0
H1137 H 0.69807 0.96602 0.56133 0.0
H1138 H 0.64354 0.04983 0.58338 0.0
H1139 H 0.65207 0.04676 0.6724 0.0
H1140 H 0.67059 0.06114 0.61155 0.0
H1141 H 0.66534 0.9454 0.5907 0.0
H1142 H 0.64738 0.95893 0.65457 0.0
H1143 H 0.63972 0.96006 0.56445 0.0
H1144 H 0.59498 1.00559 0.76609 0.0
H1145 H 0.5787 1.00657 0.54829 0.0
H1146 H 0.64424 0.0199 0.77513 0.0
H1147 H 0.65682 0.99436 0.74077 0.0
H1148 H 0.63301 0.99251 0.79934 0.0
H1149 H 0.63286 0.02148 0.48774 0.0
H1150 H 0.60654 1.00823 0.46132 0.0
H1151 H 0.63111 0.99112 0.48262 0.0
C1152 C 0.53578 0.69242 0.59212 0.0
C1153 C 0.51576 0.70467 0.57615 0.0
C1154 C 0.53517 0.66937 0.61389 0.0
C1155 C 0.51403 0.65796 0.62127 0.0
C1156 C 0.49374 0.67039 0.60876 0.0
C1157 C 0.49481 0.69329 0.58566 0.0
C1158 C 0.55724 0.65714 0.62896 0.0
C1159 C 0.4708 0.65932 0.61911 0.0
C1160 C 0.51424 0.59295 0.60256 0.0
C1161 C 0.51244 0.58519 0.67176 0.0
C1162 C 0.51427 0.61639 0.58578 0.0
C1163 C 0.51318 0.63285 0.63945 0.0
C1164 C 0.51136 0.62511 0.70957 0.0
C1165 C 0.51069 0.60147 0.72475 0.0
C1166 C 0.51539 0.62354 0.5102 0.0
C1167 C 0.51061 0.64138 0.76989 0.0
H1168 H 0.55214 0.70078 0.58767 0.0
H1169 H 0.47907 0.70199 0.57328 0.0
H1170 H 0.55699 0.65026 0.68294 0.0
H1171 H 0.55915 0.64246 0.59326 0.0
H1172 H 0.57229 0.66844 0.62287 0.0
H1173 H 0.45651 0.67131 0.60926 0.0
H1174 H 0.46904 0.64454 0.58369 0.0
H1175 H 0.46942 0.65275 0.67329 0.0
H1176 H 0.51536 0.58058 0.56097 0.0
H1177 H 0.50945 0.5958 0.77847 0.0
H1178 H 0.53108 0.63361 0.50071 0.0
H1179 H 0.50068 0.63466 0.49727 0.0
H1180 H 0.5153 0.60873 0.4744 0.0
H1181 H 0.51114 0.6596 0.75449 0.0
H1182 H 0.52538 0.63781 0.80419 0.0
H1183 H 0.49494 0.63827 0.80083 0.0
C1184 C 0.82819 0.53349 0.61336 0.0
C1185 C 0.81906 0.51511 0.57558 0.0
C1186 C 0.85113 0.53367 0.63577 0.0
C1187 C 0.86564 0.51503 0.62055 0.0
C1188 C 0.85642 0.49613 0.58447 0.0
C1189 C 0.83346 0.49643 0.56232 0.0
C1190 C 0.85997 0.55404 0.67509 0.0
C1191 C 0.87102 0.47575 0.56757 0.0
C1192 C 0.92995 0.52534 0.6064 0.0
C1193 C 0.93839 0.51612 0.66912 0.0
C1194 C 0.9065 0.52516 0.59044 0.0
C1195 C 0.8907 0.51583 0.63857 0.0
C1196 C 0.89903 0.50695 0.70272 0.0
C1197 C 0.92269 0.50692 0.71679 0.0
C1198 C 0.89866 0.53476 0.52133 0.0
C1199 C 0.88308 0.49702 0.7563 0.0
H1200 H 0.8174 0.5479 0.62545 0.0
H1201 H 0.82706 0.4822 0.53242 0.0
H1202 H 0.86751 0.54845 0.72538 0.0
H1203 H 0.87368 0.56247 0.64469 0.0
H1204 H 0.84642 0.56675 0.68567 0.0
H1205 H 0.86122 0.462 0.54165 0.0
H1206 H 0.88519 0.48101 0.53284 0.0
H1207 H 0.87873 0.46875 0.61594 0.0
H1208 H 0.94176 0.53242 0.56873 0.0
H1209 H 0.92886 0.49977 0.76547 0.0
H1210 H 0.88619 0.54866 0.52988 0.0
H1211 H 0.8899 0.5213 0.49102 0.0
H1212 H 0.91298 0.54156 0.4897 0.0
H1213 H 0.89124 0.49579 0.80838 0.0
H1214 H 0.878 0.47965 0.73992 0.0
H1215 H 0.86737 0.50739 0.76093 0.0
loop_
_geom_bond_atom_site_label_1
_geom_bond_atom_site_label_2
_geom_bond_distance
_geom_bond_site_symmetry_2
_ccdc_geom_bond_type
C0 C1 1.384 . S
C0 H13 0.947 . S
C0 C35 1.382 . S
C1 C0 1.384 . S
C1 C2 1.378 . S
C2 C1 1.378 . S
C2 C3 1.378 . S
C2 H14 0.952 . S
C3 C2 1.378 . S
C3 H15 0.950 . S
C3 C34 1.383 . S
H4 C23 0.947 . S
H5 C24 0.946 . S
H6 C26 0.953 . S
H7 C27 0.945 . S
H8 C29 0.952 . S
H9 C30 0.949 . S
H10 C32 0.950 . S
H11 C33 0.948 . S
H12 C35 0.951 . S
H13 C0 0.947 . S
H14 C2 0.952 . S
H15 C3 0.950 . S
N16 C19 1.382 . S
N16 C21 1.363 . S
N17 C19 1.371 . S
N17 C20 1.372 . S
N18 C20 1.361 . S
N18 C21 1.377 . S
C19 N16 1.382 . S
C19 N17 1.371 . S
C19 C22 1.480 . S
C20 N17 1.372 . S
C20 N18 1.361 . S
C20 C28 1.457 . S
C21 N16 1.363 . S
C21 N18 1.377 . S
C21 C34 1.479 . S
C22 C19 1.480 . S
C22 C23 1.383 . S
C22 C27 1.385 . S
C23 H4 0.947 . S
C23 C22 1.383 . S
C23 C24 1.388 . S
C24 H5 0.946 . S
C24 C23 1.388 . S
C24 C25 1.384 . S
C25 C24 1.384 . S
C25 C26 1.377 . S
C26 H6 0.953 . S
C26 C25 1.377 . S
C26 C27 1.369 . S
C27 H7 0.945 . S
C27 C22 1.385 . S
C27 C26 1.369 . S
C28 C20 1.457 . S
C28 C29 1.372 . S
C28 C33 1.364 . S
C29 H8 0.952 . S
C29 C28 1.372 . S
C29 C30 1.389 . S
C30 H9 0.949 . S
C30 C29 1.389 . S
C30 C31 1.387 . S
C31 C30 1.387 . S
C31 C32 1.372 . S
C32 H10 0.950 . S
C32 C31 1.372 . S
C32 C33 1.379 . S
C33 H11 0.948 . S
C33 C28 1.364 . S
C33 C32 1.379 . S
C34 C3 1.383 . S
C34 C21 1.479 . S
C34 C35 1.398 . S
C35 C0 1.382 . S
C35 H12 0.951 . S
C35 C34 1.398 . S
C36 C37 1.384 1_655 S
C36 H49 0.948 . S
C36 C71 1.382 1_655 S
C37 C36 1.384 1_455 S
C37 C38 1.378 . S
C38 C37 1.378 . S
C38 C39 1.378 . S
C38 H50 0.952 . S
C39 C38 1.378 . S
C39 H51 0.950 . S
C39 C70 1.383 . S
H40 C59 0.947 . S
H41 C60 0.952 . S
H42 C62 0.953 . S
H43 C63 0.945 . S
H44 C65 0.949 1_655 S
H45 C66 0.956 . S
H46 C68 0.950 . S
H47 C69 0.948 . S
H48 C71 0.951 1_655 S
H49 C36 0.948 . S
H50 C38 0.952 . S
H51 C39 0.950 . S
N52 C55 1.382 . S
N52 C57 1.363 . S
N53 C55 1.371 . S
N53 C56 1.372 . S
N54 C56 1.361 . S
N54 C57 1.377 . S
C55 N52 1.382 . S
C55 N53 1.371 . S
C55 C58 1.480 . S
C56 N53 1.372 . S
C56 N54 1.361 . S
C56 C64 1.457 . S
C57 N52 1.363 . S
C57 N54 1.377 . S
C57 C70 1.479 . S
C58 C55 1.480 . S
C58 C59 1.383 . S
C58 C63 1.385 . S
C59 H40 0.947 . S
C59 C58 1.383 . S
C59 C60 1.386 1_455 S
C60 H41 0.952 . S
C60 C59 1.386 1_655 S
C60 C61 1.381 1_655 S
C61 C60 1.381 1_455 S
C61 C62 1.377 . S
C62 H42 0.953 . S
C62 C61 1.377 . S
C62 C63 1.369 . S
C63 H43 0.945 . S
C63 C58 1.385 . S
C63 C62 1.369 . S
C64 C56 1.457 . S
C64 C65 1.376 . S
C64 C69 1.364 . S
C65 H44 0.949 1_455 S
C65 C64 1.376 . S
C65 C66 1.386 1_455 S
C66 H45 0.956 . S
C66 C65 1.386 1_655 S
C66 C67 1.383 1_655 S
C67 C66 1.383 1_455 S
C67 C68 1.372 . S
C68 H46 0.950 . S
C68 C67 1.372 . S
C68 C69 1.379 . S
C69 H47 0.948 . S
C69 C64 1.364 . S
C69 C68 1.379 . S
C70 C39 1.383 . S
C70 C57 1.479 . S
C70 C71 1.398 . S
C71 C36 1.382 1_455 S
C71 H48 0.951 1_455 S
C71 C70 1.398 . S
C72 C73 1.384 1_565 S
C72 H85 0.948 . S
C72 C107 1.382 1_565 S
C73 C72 1.384 1_545 S
C73 C74 1.378 . S
C74 C73 1.378 . S
C74 C75 1.378 . S
C74 H86 0.952 . S
C75 C74 1.378 . S
C75 H87 0.950 . S
C75 C106 1.383 . S
H76 C95 0.947 . S
H77 C96 0.952 . S
H78 C98 0.953 . S
H79 C99 0.945 . S
H80 C101 0.949 1_565 S
H81 C102 0.957 . S
H82 C104 0.950 . S
H83 C105 0.948 . S
H84 C107 0.951 1_565 S
H85 C72 0.948 . S
H86 C74 0.952 . S
H87 C75 0.950 . S
N88 C91 1.382 . S
N88 C93 1.363 . S
N89 C91 1.371 . S
N89 C92 1.372 . S
N90 C92 1.361 . S
N90 C93 1.377 . S
C91 N88 1.382 . S
C91 N89 1.371 . S
C91 C94 1.480 . S
C92 N89 1.372 . S
C92 N90 1.361 . S
C92 C100 1.457 . S
C93 N88 1.363 . S
C93 N90 1.377 . S
C93 C106 1.479 . S
C94 C91 1.480 . S
C94 C95 1.383 . S
C94 C99 1.385 . S
C95 H76 0.947 . S
C95 C94 1.383 . S
C95 C96 1.386 1_545 S
C96 H77 0.952 . S
C96 C95 1.386 1_565 S
C96 C97 1.382 1_565 S
C97 C96 1.382 1_545 S
C97 C98 1.377 . S
C98 H78 0.953 . S
C98 C97 1.377 . S
C98 C99 1.369 . S
C99 H79 0.945 . S
C99 C94 1.385 . S
C99 C98 1.369 . S
C100 C92 1.457 . S
C100 C101 1.376 . S
C100 C105 1.364 . S
C101 H80 0.949 1_545 S
C101 C100 1.376 . S
C101 C102 1.386 1_545 S
C102 H81 0.957 . S
C102 C101 1.386 1_565 S
C102 C103 1.383 1_565 S
C103 C102 1.383 1_545 S
C103 C104 1.372 . S
C104 H82 0.950 . S
C104 C103 1.372 . S
C104 C105 1.379 . S
C105 H83 0.948 . S
C105 C100 1.364 . S
C105 C104 1.379 . S
C106 C75 1.383 . S
C106 C93 1.479 . S
C106 C107 1.398 . S
C107 C72 1.382 1_545 S
C107 H84 0.951 1_545 S
C107 C106 1.398 . S
C108 C109 1.384 . S
C108 H121 0.947 . S
C108 C143 1.382 . S
C109 C108 1.384 . S
C109 C110 1.378 . S
C110 C109 1.378 . S
C110 C111 1.378 . S
C110 H122 0.952 . S
C111 C110 1.378 . S
C111 H123 0.950 . S
C111 C142 1.383 . S
H112 C131 0.947 . S
H113 C132 0.946 . S
H114 C134 0.953 . S
H115 C135 0.945 . S
H116 C137 0.952 . S
H117 C138 0.949 . S
H118 C140 0.950 . S
H119 C141 0.948 . S
H120 C143 0.951 . S
H121 C108 0.947 . S
H122 C110 0.952 . S
H123 C111 0.950 . S
N124 C127 1.382 . S
N124 C129 1.363 . S
N125 C127 1.371 . S
N125 C128 1.372 . S
N126 C128 1.361 . S
N126 C129 1.377 . S
C127 N124 1.382 . S
C127 N125 1.371 . S
C127 C130 1.480 . S
C128 N125 1.372 . S
C128 N126 1.361 . S
C128 C136 1.457 . S
C129 N124 1.363 . S
C129 N126 1.377 . S
C129 C142 1.479 . S
C130 C127 1.480 . S
C130 C131 1.383 . S
C130 C135 1.385 . S
C131 H112 0.947 . S
C131 C130 1.383 . S
C131 C132 1.388 . S
C132 H113 0.946 . S
C132 C131 1.388 . S
C132 C133 1.384 . S
C133 C132 1.384 . S
C133 C134 1.377 . S
C134 H114 0.953 . S
C134 C133 1.377 . S
C134 C135 1.369 . S
C135 H115 0.945 . S
C135 C130 1.385 . S
C135 C134 1.369 . S
C136 C128 1.457 . S
C136 C137 1.372 . S
C136 C141 1.364 . S
C137 H116 0.952 . S
C137 C136 1.372 . S
C137 C138 1.389 . S
C138 H117 0.949 . S
C138 C137 1.389 . S
C138 C139 1.387 . S
C139 C138 1.387 . S
C139 C140 1.372 . S
C140 H118 0.950 . S
C140 C139 1.372 . S
C140 C141 1.379 . S
C141 H119 0.948 . S
C141 C136 1.364 . S
C141 C140 1.379 . S
C142 C111 1.383 . S
C142 C129 1.479 . S
C142 C143 1.398 . S
C143 C108 1.382 . S
C143 H120 0.951 . S
C143 C142 1.398 . S
C144 C145 1.384 . S
C144 H157 0.947 . S
C144 C179 1.382 . S
C145 C144 1.384 . S
C145 C146 1.378 . S
C146 C145 1.378 . S
C146 C147 1.378 . S
C146 H158 0.952 . S
C147 C146 1.378 . S
C147 H159 0.950 . S
C147 C178 1.383 . S
H148 C167 0.947 1_556 S
H149 C168 0.946 . S
H150 C170 0.953 . S
H151 C171 0.945 . S
H152 C173 0.952 . S
H153 C174 0.949 . S
H154 C176 0.950 . S
H155 C177 0.948 . S
H156 C179 0.951 . S
H157 C144 0.947 . S
H158 C146 0.952 . S
H159 C147 0.950 . S
N160 C163 1.382 . S
N160 C165 1.363 1_554 S
N161 C163 1.371 . S
N161 C164 1.372 . S
N162 C164 1.361 . S
N162 C165 1.377 1_554 S
C163 N160 1.382 . S
C163 N161 1.371 . S
C163 C166 1.480 . S
C164 N161 1.372 . S
C164 N162 1.361 . S
C164 C172 1.457 . S
C165 N160 1.363 1_556 S
C165 N162 1.377 1_556 S
C165 C178 1.479 . S
C166 C163 1.480 . S
C166 C167 1.383 . S
C166 C171 1.385 . S
C167 H148 0.947 1_554 S
C167 C166 1.383 . S
C167 C168 1.388 . S
C168 H149 0.946 . S
C168 C167 1.388 . S
C168 C169 1.384 . S
C169 C168 1.384 . S
C169 C170 1.377 . S
C170 H150 0.953 . S
C170 C169 1.377 . S
C170 C171 1.369 . S
C171 H151 0.945 . S
C171 C166 1.385 . S
C171 C170 1.369 . S
C172 C164 1.457 . S
C172 C173 1.372 . S
C172 C177 1.364 . S
C173 H152 0.952 . S
C173 C172 1.372 . S
C173 C174 1.389 . S
C174 H153 0.949 . S
C174 C173 1.389 . S
C174 C175 1.387 . S
C175 C174 1.387 . S
C175 C176 1.372 . S
C176 H154 0.950 . S
C176 C175 1.372 . S
C176 C177 1.379 . S
C177 H155 0.948 . S
C177 C172 1.364 . S
C177 C176 1.379 . S
C178 C147 1.383 . S
C178 C165 1.479 . S
C178 C179 1.398 . S
C179 C144 1.382 . S
C179 H156 0.951 . S
C179 C178 1.398 . S
C180 C181 1.384 . S
C180 H193 0.948 1_455 S
C180 C215 1.382 . S
C181 C180 1.384 . S
C181 C182 1.378 . S
C182 C181 1.378 . S
C182 C183 1.378 . S
C182 H194 0.952 . S
C183 C182 1.378 . S
C183 H195 0.950 . S
C183 C214 1.383 . S
H184 C203 0.947 1_556 S
H185 C204 0.949 . S
H186 C206 0.953 . S
H187 C207 0.945 . S
H188 C209 0.947 1_655 S
H189 C210 0.954 . S
H190 C212 0.950 . S
H191 C213 0.948 . S
H192 C215 0.950 1_655 S
H193 C180 0.948 1_655 S
H194 C182 0.952 . S
H195 C183 0.950 . S
N196 C199 1.382 . S
N196 C201 1.363 1_554 S
N197 C199 1.371 . S
N197 C200 1.372 . S
N198 C200 1.361 . S
N198 C201 1.377 1_554 S
C199 N196 1.382 . S
C199 N197 1.371 . S
C199 C202 1.480 . S
C200 N197 1.372 . S
C200 N198 1.361 . S
C200 C208 1.457 . S
C201 N196 1.363 1_556 S
C201 N198 1.377 1_556 S
C201 C214 1.479 . S
C202 C199 1.480 . S
C202 C203 1.383 . S
C202 C207 1.385 . S
C203 H184 0.947 1_554 S
C203 C202 1.383 . S
C203 C204 1.387 1_455 S
C204 H185 0.949 . S
C204 C203 1.387 1_655 S
C204 C205 1.382 1_655 S
C205 C204 1.382 1_455 S
C205 C206 1.377 . S
C206 H186 0.953 . S
C206 C205 1.377 . S
C206 C207 1.369 . S
C207 H187 0.945 . S
C207 C202 1.385 . S
C207 C206 1.369 . S
C208 C200 1.457 . S
C208 C209 1.379 . S
C208 C213 1.364 . S
C209 H188 0.947 1_455 S
C209 C208 1.379 . S
C209 C210 1.387 1_455 S
C210 H189 0.954 . S
C210 C209 1.387 1_655 S
C210 C211 1.384 1_655 S
C211 C210 1.384 1_455 S
C211 C212 1.372 . S
C212 H190 0.950 . S
C212 C211 1.372 . S
C212 C213 1.379 . S
C213 H191 0.948 . S
C213 C208 1.364 . S
C213 C212 1.379 . S
C214 C183 1.383 . S
C214 C201 1.479 . S
C214 C215 1.399 . S
C215 C180 1.382 . S
C215 H192 0.950 1_455 S
C215 C214 1.399 . S
C216 C217 1.384 . S
C216 H229 0.948 1_545 S
C216 C251 1.382 . S
C217 C216 1.384 . S
C217 C218 1.378 . S
C218 C217 1.378 . S
C218 C219 1.378 . S
C218 H230 0.952 . S
C219 C218 1.378 . S
C219 H231 0.950 . S
C219 C250 1.383 . S
H220 C239 0.947 1_556 S
H221 C240 0.949 . S
H222 C242 0.953 . S
H223 C243 0.945 . S
H224 C245 0.947 1_565 S
H225 C246 0.954 . S
H226 C248 0.950 . S
H227 C249 0.948 . S
H228 C251 0.950 1_565 S
H229 C216 0.948 1_565 S
H230 C218 0.952 . S
H231 C219 0.950 . S
N232 C235 1.382 . S
N232 C237 1.363 1_554 S
N233 C235 1.371 . S
N233 C236 1.372 . S
N234 C236 1.361 . S
N234 C237 1.377 1_554 S
C235 N232 1.382 . S
C235 N233 1.371 . S
C235 C238 1.480 . S
C236 N233 1.372 . S
C236 N234 1.361 . S
C236 C244 1.457 . S
C237 N232 1.363 1_556 S
C237 N234 1.377 1_556 S
C237 C250 1.479 . S
C238 C235 1.480 . S
C238 C239 1.383 . S
C238 C243 1.385 . S
C239 H220 0.947 1_554 S
C239 C238 1.383 . S
C239 C240 1.387 1_545 S
C240 H221 0.949 . S
C240 C239 1.387 1_565 S
C240 C241 1.382 1_565 S
C241 C240 1.382 1_545 S
C241 C242 1.377 . S
C242 H222 0.953 . S
C242 C241 1.377 . S
C242 C243 1.369 . S
C243 H223 0.945 . S
C243 C238 1.385 . S
C243 C242 1.369 . S
C244 C236 1.457 . S
C244 C245 1.379 . S
C244 C249 1.364 . S
C245 H224 0.947 1_545 S
C245 C244 1.379 . S
C245 C246 1.387 1_545 S
C246 H225 0.954 . S
C246 C245 1.387 1_565 S
C246 C247 1.384 1_565 S
C247 C246 1.384 1_545 S
C247 C248 1.372 . S
C248 H226 0.950 . S
C248 C247 1.372 . S
C248 C249 1.379 . S
C249 H227 0.948 . S
C249 C244 1.364 . S
C249 C248 1.379 . S
C250 C219 1.383 . S
C250 C237 1.479 . S
C250 C251 1.399 . S
C251 C216 1.382 . S
C251 H228 0.950 1_545 S
C251 C250 1.399 . S
C252 C253 1.384 . S
C252 H265 0.947 . S
C252 C287 1.382 . S
C253 C252 1.384 . S
C253 C254 1.378 . S
C254 C253 1.378 . S
C254 C255 1.378 . S
C254 H266 0.952 . S
C255 C254 1.378 . S
C255 H267 0.950 . S
C255 C286 1.383 . S
H256 C275 0.947 . S
H257 C276 0.946 . S
H258 C278 0.953 . S
H259 C279 0.945 1_556 S
H260 C281 0.952 . S
H261 C282 0.949 . S
H262 C284 0.950 . S
H263 C285 0.948 . S
H264 C287 0.951 . S
H265 C252 0.947 . S
H266 C254 0.952 . S
H267 C255 0.950 . S
N268 C271 1.382 . S
N268 C273 1.363 . S
N269 C271 1.372 1_556 S
N269 C272 1.371 . S
N270 C272 1.361 1_554 S
N270 C273 1.377 . S
C271 N268 1.382 . S
C271 N269 1.372 1_554 S
C271 C274 1.480 . S
C272 N269 1.371 . S
C272 N270 1.361 1_556 S
C272 C280 1.457 . S
C273 N268 1.363 . S
C273 N270 1.377 . S
C273 C286 1.479 . S
C274 C271 1.480 . S
C274 C275 1.383 . S
C274 C279 1.385 . S
C275 H256 0.947 . S
C275 C274 1.383 . S
C275 C276 1.388 . S
C276 H257 0.946 . S
C276 C275 1.388 . S
C276 C277 1.384 . S
C277 C276 1.384 . S
C277 C278 1.377 . S
C278 H258 0.953 . S
C278 C277 1.377 . S
C278 C279 1.369 . S
C279 H259 0.945 1_554 S
C279 C274 1.385 . S
C279 C278 1.369 . S
C280 C272 1.457 . S
C280 C281 1.372 . S
C280 C285 1.364 . S
C281 H260 0.952 . S
C281 C280 1.372 . S
C281 C282 1.389 . S
C282 H261 0.949 . S
C282 C281 1.389 . S
C282 C283 1.387 . S
C283 C282 1.387 . S
C283 C284 1.372 . S
C284 H262 0.950 . S
C284 C283 1.372 . S
C284 C285 1.379 . S
C285 H263 0.948 . S
C285 C280 1.364 . S
C285 C284 1.379 . S
C286 C255 1.383 . S
C286 C273 1.479 . S
C286 C287 1.398 . S
C287 C252 1.382 . S
C287 H264 0.951 . S
C287 C286 1.398 . S
C288 Eu289 2.835 . S
C288 C290 1.500 . S
C288 O308 1.257 . S
C288 O309 1.260 . S
Eu289 C288 2.835 . S
Eu289 O308 2.473 . S
Eu289 O309 2.480 . S
Eu289 O310 2.430 . S
Eu289 O311 2.670 1_545 S
Eu289 O312 2.394 . S
Eu289 O317 2.355 1_655 S
Eu289 O319 2.374 1_545 S
C290 C288 1.500 . S
C290 C291 1.377 . S
C290 C295 1.377 . S
C291 C290 1.377 . S
C291 C292 1.395 . S
C291 H320 0.931 . S
C292 C291 1.395 . S
C292 C293 1.383 . S
C292 H321 0.931 . S
C293 C292 1.383 . S
C293 C294 1.394 . S
C294 C293 1.394 . S
C294 C295 1.378 . S
C294 H322 0.931 1_655 S
C295 C290 1.377 . S
C295 C294 1.378 . S
C295 H323 0.931 1_655 S
C296 O310 1.286 . S
C296 O311 1.251 1_545 S
C297 O312 1.251 1_455 S
C297 O313 1.251 . S
C298 Eu299 2.835 . S
C298 C300 1.500 . S
C298 O314 1.257 . S
C298 O315 1.260 . S
Eu299 C298 2.835 . S
Eu299 O311 2.355 1_455 S
Eu299 O313 2.374 1_565 S
Eu299 O314 2.473 . S
Eu299 O315 2.480 . S
Eu299 O316 2.430 . S
Eu299 O317 2.670 1_565 S
Eu299 O318 2.394 . S
C300 C298 1.500 . S
C300 C301 1.377 . S
C300 C305 1.377 . S
C301 C300 1.377 . S
C301 C302 1.395 . S
C301 H324 0.931 . S
C302 C301 1.395 . S
C302 C303 1.383 . S
C302 H325 0.931 . S
C303 C302 1.383 . S
C303 C304 1.394 . S
C304 C303 1.394 . S
C304 C305 1.378 . S
C304 H326 0.931 1_455 S
C305 C300 1.377 . S
C305 C304 1.378 . S
C305 H327 0.931 1_455 S
C306 O316 1.280 . S
C306 O317 1.255 1_565 S
C307 O318 1.251 1_655 S
C307 O319 1.251 . S
O308 C288 1.257 . S
O308 Eu289 2.473 . S
O309 C288 1.260 . S
O309 Eu289 2.480 . S
O310 Eu289 2.430 . S
O310 C296 1.286 . S
O311 Eu289 2.670 1_565 S
O311 C296 1.251 1_565 S
O311 Eu299 2.355 1_655 S
O312 Eu289 2.394 . S
O312 C297 1.251 1_655 S
O313 C297 1.251 . S
O313 Eu299 2.374 1_545 S
O314 C298 1.257 . S
O314 Eu299 2.473 . S
O315 C298 1.260 . S
O315 Eu299 2.480 . S
O316 Eu299 2.430 . S
O316 C306 1.280 . S
O317 Eu289 2.355 1_455 S
O317 Eu299 2.670 1_545 S
O317 C306 1.255 1_545 S
O318 Eu299 2.394 . S
O318 C307 1.251 1_455 S
O319 Eu289 2.374 1_565 S
O319 C307 1.251 . S
H320 C291 0.931 . S
H321 C292 0.931 . S
H322 C294 0.931 1_455 S
H323 C295 0.931 1_455 S
H324 C301 0.931 . S
H325 C302 0.931 . S
H326 C304 0.931 1_655 S
H327 C305 0.931 1_655 S
C328 Eu329 2.835 . S
C328 C330 1.500 . S
C328 O348 1.257 . S
C328 O349 1.260 . S
Eu329 C328 2.835 . S
Eu329 O348 2.473 . S
Eu329 O349 2.480 . S
Eu329 O350 2.430 . S
Eu329 O351 2.670 . S
Eu329 O352 2.394 . S
Eu329 O357 2.355 1_565 S
Eu329 O359 2.374 . S
C330 C328 1.500 . S
C330 C331 1.377 . S
C330 C335 1.377 . S
C331 C330 1.377 . S
C331 C332 1.395 . S
C331 H360 0.931 . S
C332 C331 1.395 . S
C332 C333 1.383 . S
C332 H361 0.931 . S
C333 C332 1.383 . S
C333 C334 1.394 . S
C334 C333 1.394 . S
C334 C335 1.378 . S
C334 H362 0.931 1_565 S
C335 C330 1.377 . S
C335 C334 1.378 . S
C335 H363 0.931 1_565 S
C336 O350 1.259 . S
C336 O351 1.270 . S
C337 O352 1.251 1_545 S
C337 O353 1.251 . S
C338 Eu339 2.835 . S
C338 C340 1.500 . S
C338 O354 1.257 . S
C338 O355 1.260 . S
Eu339 C338 2.835 . S
Eu339 O351 2.355 1_545 S
Eu339 O353 2.374 . S
Eu339 O354 2.473 . S
Eu339 O355 2.480 . S
Eu339 O356 2.430 . S
Eu339 O357 2.670 . S
Eu339 O358 2.394 . S
C340 C338 1.500 . S
C340 C341 1.377 . S
C340 C345 1.377 . S
C341 C340 1.377 . S
C341 C342 1.395 . S
C341 H364 0.931 . S
C342 C341 1.395 . S
C342 C343 1.383 . S
C342 H365 0.931 . S
C343 C342 1.383 . S
C343 C344 1.394 . S
C344 C343 1.394 . S
C344 C345 1.378 . S
C344 H366 0.931 1_545 S
C345 C340 1.377 . S
C345 C344 1.378 . S
C345 H367 0.931 1_545 S
C346 O356 1.259 . S
C346 O357 1.270 . S
C347 O358 1.251 1_565 S
C347 O359 1.251 . S
O348 C328 1.257 . S
O348 Eu329 2.473 . S
O349 C328 1.260 . S
O349 Eu329 2.480 . S
O350 Eu329 2.430 . S
O350 C336 1.259 . S
O351 Eu329 2.670 . S
O351 C336 1.270 . S
O351 Eu339 2.355 1_565 S
O352 Eu329 2.394 . S
O352 C337 1.251 1_565 S
O353 C337 1.251 . S
O353 Eu339 2.374 . S
O354 C338 1.257 . S
O354 Eu339 2.473 . S
O355 C338 1.260 . S
O355 Eu339 2.480 . S
O356 Eu339 2.430 . S
O356 C346 1.259 . S
O357 Eu329 2.355 1_545 S
O357 Eu339 2.670 . S
O357 C346 1.270 . S
O358 Eu339 2.394 . S
O358 C347 1.251 1_545 S
O359 Eu329 2.374 . S
O359 C347 1.251 . S
H360 C331 0.931 . S
H361 C332 0.931 . S
H362 C334 0.931 1_545 S
H363 C335 0.931 1_545 S
H364 C341 0.931 . S
H365 C342 0.931 . S
H366 C344 0.931 1_565 S
H367 C345 0.931 1_565 S
C368 Eu369 2.835 . S
C368 C370 1.500 . S
C368 O388 1.257 . S
C368 O389 1.260 . S
Eu369 C368 2.835 . S
Eu369 O388 2.473 . S
Eu369 O389 2.480 . S
Eu369 O390 2.430 . S
Eu369 O391 2.670 . S
Eu369 O392 2.394 . S
Eu369 O397 2.355 . S
Eu369 O399 2.374 . S
C370 C368 1.500 . S
C370 C371 1.377 . S
C370 C375 1.377 . S
C371 C370 1.377 . S
C371 C372 1.395 . S
C371 H400 0.931 . S
C372 C371 1.395 . S
C372 C373 1.383 . S
C372 H401 0.931 . S
C373 C372 1.383 . S
C373 C374 1.394 . S
C374 C373 1.394 . S
C374 C375 1.378 . S
C374 H402 0.931 . S
C375 C370 1.377 . S
C375 C374 1.378 . S
C375 H403 0.931 . S
C376 O390 1.259 . S
C376 O391 1.270 . S
C377 O392 1.251 . S
C377 O393 1.251 . S
C378 Eu379 2.835 . S
C378 C380 1.500 . S
C378 O394 1.257 . S
C378 O395 1.260 . S
Eu379 C378 2.835 . S
Eu379 O391 2.355 . S
Eu379 O393 2.374 . S
Eu379 O394 2.473 . S
Eu379 O395 2.480 . S
Eu379 O396 2.430 . S
Eu379 O397 2.670 . S
Eu379 O398 2.394 . S
C380 C378 1.500 . S
C380 C381 1.377 . S
C380 C385 1.377 . S
C381 C380 1.377 . S
C381 C382 1.395 . S
C381 H404 0.931 . S
C382 C381 1.395 . S
C382 C383 1.383 . S
C382 H405 0.931 . S
C383 C382 1.383 . S
C383 C384 1.394 . S
C384 C383 1.394 . S
C384 C385 1.378 . S
C384 H406 0.931 . S
C385 C380 1.377 . S
C385 C384 1.378 . S
C385 H407 0.931 . S
C386 O396 1.259 . S
C386 O397 1.270 . S
C387 O398 1.251 . S
C387 O399 1.251 . S
O388 C368 1.257 . S
O388 Eu369 2.473 . S
O389 C368 1.260 . S
O389 Eu369 2.480 . S
O390 Eu369 2.430 . S
O390 C376 1.259 . S
O391 Eu369 2.670 . S
O391 C376 1.270 . S
O391 Eu379 2.355 . S
O392 Eu369 2.394 . S
O392 C377 1.251 . S
O393 C377 1.251 . S
O393 Eu379 2.374 . S
O394 C378 1.257 . S
O394 Eu379 2.473 . S
O395 C378 1.260 . S
O395 Eu379 2.480 . S
O396 Eu379 2.430 . S
O396 C386 1.259 . S
O397 Eu369 2.355 . S
O397 Eu379 2.670 . S
O397 C386 1.270 . S
O398 Eu379 2.394 . S
O398 C387 1.251 . S
O399 Eu369 2.374 . S
O399 C387 1.251 . S
H400 C371 0.931 . S
H401 C372 0.931 . S
H402 C374 0.931 . S
H403 C375 0.931 . S
H404 C381 0.931 . S
H405 C382 0.931 . S
H406 C384 0.931 . S
H407 C385 0.931 . S
C408 Eu409 2.835 . S
C408 C410 1.500 . S
C408 O428 1.257 . S
C408 O429 1.260 . S
Eu409 C408 2.835 . S
Eu409 O428 2.473 . S
Eu409 O429 2.480 . S
Eu409 O430 2.430 . S
Eu409 O431 2.670 1_455 S
Eu409 O432 2.394 . S
Eu409 O437 2.355 . S
Eu409 O439 2.374 1_455 S
C410 C408 1.500 . S
C410 C411 1.377 . S
C410 C415 1.377 . S
C411 C410 1.377 . S
C411 C412 1.395 . S
C411 H440 0.931 . S
C412 C411 1.395 . S
C412 C413 1.383 . S
C412 H441 0.931 . S
C413 C412 1.383 . S
C413 C414 1.394 . S
C414 C413 1.394 . S
C414 C415 1.378 . S
C414 H442 0.931 . S
C415 C410 1.377 . S
C415 C414 1.378 . S
C415 H443 0.931 . S
C416 O430 1.267 . S
C416 O431 1.264 1_455 S
C417 O432 1.251 . S
C417 O433 1.251 . S
C418 Eu419 2.835 . S
C418 C420 1.500 . S
C418 O434 1.257 . S
C418 O435 1.260 . S
Eu419 C418 2.835 . S
Eu419 O431 2.355 . S
Eu419 O433 2.374 1_655 S
Eu419 O434 2.473 . S
Eu419 O435 2.480 . S
Eu419 O436 2.430 . S
Eu419 O437 2.670 1_655 S
Eu419 O438 2.394 . S
C420 C418 1.500 . S
C420 C421 1.377 . S
C420 C425 1.377 . S
C421 C420 1.377 . S
C421 C422 1.395 . S
C421 H444 0.931 . S
C422 C421 1.395 . S
C422 C423 1.383 . S
C422 H445 0.931 . S
C423 C422 1.383 . S
C423 C424 1.394 . S
C424 C423 1.394 . S
C424 C425 1.378 . S
C424 H446 0.931 . S
C425 C420 1.377 . S
C425 C424 1.378 . S
C425 H447 0.931 . S
C426 O436 1.261 . S
C426 O437 1.268 1_655 S
C427 O438 1.251 . S
C427 O439 1.251 . S
O428 C408 1.257 . S
O428 Eu409 2.473 . S
O429 C408 1.260 . S
O429 Eu409 2.480 . S
O430 Eu409 2.430 . S
O430 C416 1.267 . S
O431 Eu409 2.670 1_655 S
O431 C416 1.264 1_655 S
O431 Eu419 2.355 . S
O432 Eu409 2.394 . S
O432 C417 1.251 . S
O433 C417 1.251 . S
O433 Eu419 2.374 1_455 S
O434 C418 1.257 . S
O434 Eu419 2.473 . S
O435 C418 1.260 . S
O435 Eu419 2.480 . S
O436 Eu419 2.430 . S
O436 C426 1.261 . S
O437 Eu409 2.355 . S
O437 Eu419 2.670 1_455 S
O437 C426 1.268 1_455 S
O438 Eu419 2.394 . S
O438 C427 1.251 . S
O439 Eu409 2.374 1_655 S
O439 C427 1.251 . S
H440 C411 0.931 . S
H441 C412 0.931 . S
H442 C414 0.931 . S
H443 C415 0.931 . S
H444 C421 0.931 . S
H445 C422 0.931 . S
H446 C424 0.931 . S
H447 C425 0.931 . S
C448 C449 1.391 . S
C448 C450 1.394 . S
C448 H464 0.931 . S
C449 C448 1.391 . S
C449 C453 1.376 1_565 S
C450 C448 1.394 . S
C450 C451 1.369 . S
C450 C454 1.531 . S
C451 C450 1.369 . S
C451 C452 1.410 1_565 S
C451 C459 1.503 . S
C452 C451 1.410 1_545 S
C452 C453 1.392 . S
C452 C455 1.511 . S
C453 C449 1.376 1_545 S
C453 C452 1.392 . S
C453 H465 0.929 . S
C454 C450 1.531 . S
C454 H466 0.960 . S
C454 H467 0.962 . S
C454 H468 0.960 . S
C455 C452 1.511 . S
C455 H469 0.961 . S
C455 H470 0.961 . S
C455 H471 0.961 . S
C456 C457 1.369 . S
C456 C458 1.363 . S
C456 H472 0.931 . S
C457 C456 1.369 . S
C457 C461 1.410 1_545 S
C458 C456 1.363 . S
C458 C459 1.370 1_545 S
C458 C462 1.524 . S
C459 C451 1.503 . S
C459 C458 1.370 1_565 S
C459 C460 1.403 . S
C460 C459 1.403 . S
C460 C461 1.404 . S
C460 C463 1.539 . S
C461 C457 1.410 1_565 S
C461 C460 1.404 . S
C461 H473 0.930 . S
C462 C458 1.524 . S
C462 H474 0.956 . S
C462 H475 0.961 . S
C462 H476 0.961 . S
C463 C460 1.539 . S
C463 H477 0.958 . S
C463 H478 0.961 . S
C463 H479 0.960 . S
H464 C448 0.931 . S
H465 C453 0.929 . S
H466 C454 0.960 . S
H467 C454 0.962 . S
H468 C454 0.960 . S
H469 C455 0.961 . S
H470 C455 0.961 . S
H471 C455 0.961 . S
H472 C456 0.931 . S
H473 C461 0.930 . S
H474 C462 0.956 . S
H475 C462 0.961 . S
H476 C462 0.961 . S
H477 C463 0.958 . S
H478 C463 0.961 . S
H479 C463 0.960 . S
C480 C481 1.391 . S
C480 C482 1.394 . S
C480 H496 0.931 . S
C481 C480 1.391 . S
C481 C485 1.376 . S
C482 C480 1.394 . S
C482 C483 1.369 . S
C482 C486 1.531 . S
C483 C482 1.369 . S
C483 C484 1.410 . S
C483 C491 1.503 . S
C484 C483 1.410 . S
C484 C485 1.392 . S
C484 C487 1.511 . S
C485 C481 1.376 . S
C485 C484 1.392 . S
C485 H497 0.929 . S
C486 C482 1.531 . S
C486 H498 0.960 . S
C486 H499 0.962 . S
C486 H500 0.960 . S
C487 C484 1.511 . S
C487 H501 0.961 . S
C487 H502 0.961 . S
C487 H503 0.961 . S
C488 C489 1.370 . S
C488 C490 1.363 . S
C488 H504 0.931 . S
C489 C488 1.370 . S
C489 C493 1.408 . S
C490 C488 1.363 . S
C490 C491 1.370 . S
C490 C494 1.524 . S
C491 C483 1.503 . S
C491 C490 1.370 . S
C491 C492 1.403 . S
C492 C491 1.403 . S
C492 C493 1.404 . S
C492 C495 1.539 . S
C493 C489 1.408 . S
C493 C492 1.404 . S
C493 H505 0.930 . S
C494 C490 1.524 . S
C494 H506 0.956 . S
C494 H507 0.961 . S
C494 H508 0.961 . S
C495 C492 1.539 . S
C495 H509 0.958 . S
C495 H510 0.961 . S
C495 H511 0.960 . S
H496 C480 0.931 . S
H497 C485 0.929 . S
H498 C486 0.960 . S
H499 C486 0.962 . S
H500 C486 0.960 . S
H501 C487 0.961 . S
H502 C487 0.961 . S
H503 C487 0.961 . S
H504 C488 0.931 . S
H505 C493 0.930 . S
H506 C494 0.956 . S
H507 C494 0.961 . S
H508 C494 0.961 . S
H509 C495 0.958 . S
H510 C495 0.961 . S
H511 C495 0.960 . S
C512 C513 1.391 . S
C512 C514 1.394 . S
C512 H528 0.931 . S
C513 C512 1.391 . S
C513 C517 1.376 . S
C514 C512 1.394 . S
C514 C515 1.369 . S
C514 C518 1.531 . S
C515 C514 1.369 . S
C515 C516 1.410 . S
C515 C523 1.503 . S
C516 C515 1.410 . S
C516 C517 1.392 . S
C516 C519 1.511 . S
C517 C513 1.376 . S
C517 C516 1.392 . S
C517 H529 0.929 . S
C518 C514 1.531 . S
C518 H530 0.960 . S
C518 H531 0.962 . S
C518 H532 0.960 . S
C519 C516 1.511 . S
C519 H533 0.961 . S
C519 H534 0.961 . S
C519 H535 0.961 . S
C520 C521 1.370 . S
C520 C522 1.363 . S
C520 H536 0.931 . S
C521 C520 1.370 . S
C521 C525 1.408 . S
C522 C520 1.363 . S
C522 C523 1.370 . S
C522 C526 1.524 . S
C523 C515 1.503 . S
C523 C522 1.370 . S
C523 C524 1.403 . S
C524 C523 1.403 . S
C524 C525 1.404 . S
C524 C527 1.539 . S
C525 C521 1.408 . S
C525 C524 1.404 . S
C525 H537 0.930 . S
C526 C522 1.524 . S
C526 H538 0.956 . S
C526 H539 0.961 . S
C526 H540 0.961 . S
C527 C524 1.539 . S
C527 H541 0.958 . S
C527 H542 0.961 . S
C527 H543 0.960 . S
H528 C512 0.931 . S
H529 C517 0.929 . S
H530 C518 0.960 . S
H531 C518 0.962 . S
H532 C518 0.960 . S
H533 C519 0.961 . S
H534 C519 0.961 . S
H535 C519 0.961 . S
H536 C520 0.931 . S
H537 C525 0.930 . S
H538 C526 0.956 . S
H539 C526 0.961 . S
H540 C526 0.961 . S
H541 C527 0.958 . S
H542 C527 0.961 . S
H543 C527 0.960 . S
C544 C545 1.391 1_455 S
C544 C546 1.394 . S
C544 H560 0.931 . S
C545 C544 1.391 1_655 S
C545 C549 1.376 . S
C546 C544 1.394 . S
C546 C547 1.369 1_455 S
C546 C550 1.531 . S
C547 C546 1.369 1_655 S
C547 C548 1.410 . S
C547 C555 1.503 . S
C548 C547 1.410 . S
C548 C549 1.392 . S
C548 C551 1.511 . S
C549 C545 1.376 . S
C549 C548 1.392 . S
C549 H561 0.929 . S
C550 C546 1.531 . S
C550 H562 0.960 . S
C550 H563 0.962 . S
C550 H564 0.960 . S
C551 C548 1.511 . S
C551 H565 0.961 . S
C551 H566 0.961 . S
C551 H567 0.961 . S
C552 C553 1.379 . S
C552 C554 1.363 . S
C552 H568 0.931 . S
C553 C552 1.379 . S
C553 C557 1.399 1_455 S
C554 C552 1.363 . S
C554 C555 1.370 1_455 S
C554 C558 1.524 . S
C555 C547 1.503 . S
C555 C554 1.370 1_655 S
C555 C556 1.403 . S
C556 C555 1.403 . S
C556 C557 1.404 . S
C556 C559 1.539 . S
C557 C553 1.399 1_655 S
C557 C556 1.404 . S
C557 H569 0.930 . S
C558 C554 1.524 . S
C558 H570 0.956 . S
C558 H571 0.961 . S
C558 H572 0.961 . S
C559 C556 1.539 . S
C559 H573 0.958 . S
C559 H574 0.961 . S
C559 H575 0.960 . S
H560 C544 0.931 . S
H561 C549 0.929 . S
H562 C550 0.960 . S
H563 C550 0.962 . S
H564 C550 0.960 . S
H565 C551 0.961 . S
H566 C551 0.961 . S
H567 C551 0.961 . S
H568 C552 0.931 . S
H569 C557 0.930 . S
H570 C558 0.956 . S
H571 C558 0.961 . S
H572 C558 0.961 . S
H573 C559 0.958 . S
H574 C559 0.961 . S
H575 C559 0.960 . S
C576 C577 1.391 . S
C576 C578 1.394 . S
C576 H592 0.931 . S
C577 C576 1.391 . S
C577 C581 1.376 1_545 S
C578 C576 1.394 . S
C578 C579 1.369 . S
C578 C582 1.531 . S
C579 C578 1.369 . S
C579 C580 1.408 1_545 S
C579 C587 1.503 1_554 S
C580 C579 1.408 1_565 S
C580 C581 1.393 . S
C580 C583 1.512 . S
C581 C577 1.376 1_565 S
C581 C580 1.393 . S
C581 H593 0.929 . S
C582 C578 1.531 . S
C582 H594 0.960 1_554 S
C582 H595 0.962 1_554 S
C582 H596 0.960 . S
C583 C580 1.512 . S
C583 H597 0.961 . S
C583 H598 0.961 . S
C583 H599 0.961 1_565 S
C584 C585 1.353 1_565 S
C584 C586 1.363 . S
C584 H600 0.931 . S
C585 C584 1.353 1_545 S
C585 C589 1.428 . S
C586 C584 1.363 . S
C586 C587 1.370 1_565 S
C586 C590 1.524 . S
C587 C579 1.503 1_556 S
C587 C586 1.370 1_545 S
C587 C588 1.403 . S
C588 C587 1.403 . S
C588 C589 1.404 . S
C588 C591 1.539 1_556 S
C589 C585 1.428 . S
C589 C588 1.404 . S
C589 H601 0.930 . S
C590 C586 1.524 . S
C590 H602 0.956 . S
C590 H603 0.961 1_556 S
C590 H604 0.961 . S
C591 C588 1.539 1_554 S
C591 H605 0.958 1_554 S
C591 H606 0.961 1_554 S
C591 H607 0.960 . S
H592 C576 0.931 . S
H593 C581 0.929 . S
H594 C582 0.960 1_556 S
H595 C582 0.962 1_556 S
H596 C582 0.960 . S
H597 C583 0.961 . S
H598 C583 0.961 . S
H599 C583 0.961 1_545 S
H600 C584 0.931 . S
H601 C589 0.930 . S
H602 C590 0.956 . S
H603 C590 0.961 1_554 S
H604 C590 0.961 . S
H605 C591 0.958 1_556 S
H606 C591 0.961 1_556 S
H607 C591 0.960 . S
C608 C609 1.391 . S
C608 C610 1.394 . S
C608 H624 0.931 . S
C609 C608 1.391 . S
C609 C613 1.376 . S
C610 C608 1.394 . S
C610 C611 1.369 . S
C610 C614 1.531 . S
C611 C610 1.369 . S
C611 C612 1.410 . S
C611 C619 1.503 1_554 S
C612 C611 1.410 . S
C612 C613 1.392 . S
C612 C615 1.511 . S
C613 C609 1.376 . S
C613 C612 1.392 . S
C613 H625 0.929 . S
C614 C610 1.531 . S
C614 H626 0.960 . S
C614 H627 0.962 . S
C614 H628 0.960 . S
C615 C612 1.511 . S
C615 H629 0.961 . S
C615 H630 0.961 . S
C615 H631 0.961 . S
C616 C617 1.370 . S
C616 C618 1.363 . S
C616 H632 0.931 . S
C617 C616 1.370 . S
C617 C621 1.408 . S
C618 C616 1.363 . S
C618 C619 1.370 . S
C618 C622 1.524 1_556 S
C619 C611 1.503 1_556 S
C619 C618 1.370 . S
C619 C620 1.403 . S
C620 C619 1.403 . S
C620 C621 1.404 . S
C620 C623 1.539 . S
C621 C617 1.408 . S
C621 C620 1.404 . S
C621 H633 0.930 . S
C622 C618 1.524 1_554 S
C622 H634 0.956 . S
C622 H635 0.961 . S
C622 H636 0.961 . S
C623 C620 1.539 . S
C623 H637 0.958 . S
C623 H638 0.961 . S
C623 H639 0.960 . S
H624 C608 0.931 . S
H625 C613 0.929 . S
H626 C614 0.960 . S
H627 C614 0.962 . S
H628 C614 0.960 . S
H629 C615 0.961 . S
H630 C615 0.961 . S
H631 C615 0.961 . S
H632 C616 0.931 . S
H633 C621 0.930 . S
H634 C622 0.956 . S
H635 C622 0.961 . S
H636 C622 0.961 . S
H637 C623 0.958 . S
H638 C623 0.961 . S
H639 C623 0.960 . S
C640 C641 1.391 . S
C640 C642 1.394 . S
C640 H656 0.931 . S
C641 C640 1.391 . S
C641 C645 1.376 . S
C642 C640 1.394 . S
C642 C643 1.369 . S
C642 C646 1.531 . S
C643 C642 1.369 . S
C643 C644 1.410 . S
C643 C651 1.503 1_554 S
C644 C643 1.410 . S
C644 C645 1.392 . S
C644 C647 1.511 . S
C645 C641 1.376 . S
C645 C644 1.392 . S
C645 H657 0.929 . S
C646 C642 1.531 . S
C646 H658 0.960 1_554 S
C646 H659 0.962 1_554 S
C646 H660 0.960 . S
C647 C644 1.511 . S
C647 H661 0.961 . S
C647 H662 0.961 . S
C647 H663 0.961 . S
C648 C649 1.370 . S
C648 C650 1.363 . S
C648 H664 0.931 . S
C649 C648 1.370 . S
C649 C653 1.408 . S
C650 C648 1.363 . S
C650 C651 1.370 . S
C650 C654 1.524 . S
C651 C643 1.503 1_556 S
C651 C650 1.370 . S
C651 C652 1.403 . S
C652 C651 1.403 . S
C652 C653 1.404 . S
C652 C655 1.539 1_556 S
C653 C649 1.408 . S
C653 C652 1.404 . S
C653 H665 0.930 . S
C654 C650 1.524 . S
C654 H666 0.956 . S
C654 H667 0.961 1_556 S
C654 H668 0.961 . S
C655 C652 1.539 1_554 S
C655 H669 0.958 . S
C655 H670 0.961 . S
C655 H671 0.960 . S
H656 C640 0.931 . S
H657 C645 0.929 . S
H658 C646 0.960 1_556 S
H659 C646 0.962 1_556 S
H660 C646 0.960 . S
H661 C647 0.961 . S
H662 C647 0.961 . S
H663 C647 0.961 . S
H664 C648 0.931 . S
H665 C653 0.930 . S
H666 C654 0.956 . S
H667 C654 0.961 1_554 S
H668 C654 0.961 . S
H669 C655 0.958 . S
H670 C655 0.961 . S
H671 C655 0.960 . S
C672 C673 1.391 1_455 S
C672 C674 1.394 . S
C672 H688 0.931 . S
C673 C672 1.391 1_655 S
C673 C677 1.376 . S
C674 C672 1.394 . S
C674 C675 1.369 1_455 S
C674 C678 1.531 . S
C675 C674 1.369 1_655 S
C675 C676 1.410 . S
C675 C683 1.503 1_554 S
C676 C675 1.410 . S
C676 C677 1.392 . S
C676 C679 1.511 . S
C677 C673 1.376 . S
C677 C676 1.392 . S
C677 H689 0.929 . S
C678 C674 1.531 . S
C678 H690 0.960 . S
C678 H691 0.962 . S
C678 H692 0.960 . S
C679 C676 1.511 . S
C679 H693 0.961 . S
C679 H694 0.961 1_554 S
C679 H695 0.961 . S
C680 C681 1.370 1_455 S
C680 C682 1.363 . S
C680 H696 0.931 . S
C681 C680 1.370 1_655 S
C681 C685 1.408 . S
C682 C680 1.363 . S
C682 C683 1.370 1_455 S
C682 C686 1.524 . S
C683 C675 1.503 1_556 S
C683 C682 1.370 1_655 S
C683 C684 1.403 . S
C684 C683 1.403 . S
C684 C685 1.404 . S
C684 C687 1.539 1_556 S
C685 C681 1.408 . S
C685 C684 1.404 . S
C685 H697 0.930 . S
C686 C682 1.524 . S
C686 H698 0.956 . S
C686 H699 0.961 . S
C686 H700 0.961 . S
C687 C684 1.539 1_554 S
C687 H701 0.958 . S
C687 H702 0.961 . S
C687 H703 0.960 . S
H688 C672 0.931 . S
H689 C677 0.929 . S
H690 C678 0.960 . S
H691 C678 0.962 . S
H692 C678 0.960 . S
H693 C679 0.961 . S
H694 C679 0.961 1_556 S
H695 C679 0.961 . S
H696 C680 0.931 . S
H697 C685 0.930 . S
H698 C686 0.956 . S
H699 C686 0.961 . S
H700 C686 0.961 . S
H701 C687 0.958 . S
H702 C687 0.961 . S
H703 C687 0.960 . S
C704 C705 1.401 . S
C704 C706 1.394 1_455 S
C704 H720 0.931 . S
C705 C704 1.401 . S
C705 C709 1.351 1_455 S
C706 C704 1.394 1_655 S
C706 C707 1.369 . S
C706 C710 1.531 1_655 S
C707 C706 1.369 . S
C707 C708 1.410 . S
C707 C715 1.503 . S
C708 C707 1.410 . S
C708 C709 1.392 . S
C708 C711 1.511 . S
C709 C705 1.351 1_655 S
C709 C708 1.392 . S
C709 H721 0.929 . S
C710 C706 1.531 1_455 S
C710 H722 0.960 1_455 S
C710 H723 0.962 . S
C710 H724 0.960 . S
C711 C708 1.511 . S
C711 H725 0.961 . S
C711 H726 0.961 . S
C711 H727 0.961 . S
C712 C713 1.370 . S
C712 C714 1.363 . S
C712 H728 0.931 . S
C713 C712 1.370 . S
C713 C717 1.408 . S
C714 C712 1.363 . S
C714 C715 1.370 . S
C714 C718 1.524 1_655 S
C715 C707 1.503 . S
C715 C714 1.370 . S
C715 C716 1.403 . S
C716 C715 1.403 . S
C716 C717 1.404 . S
C716 C719 1.539 . S
C717 C713 1.408 . S
C717 C716 1.404 . S
C717 H729 0.930 . S
C718 C714 1.524 1_455 S
C718 H730 0.956 . S
C718 H731 0.961 . S
C718 H732 0.961 . S
C719 C716 1.539 . S
C719 H733 0.958 . S
C719 H734 0.961 . S
C719 H735 0.960 . S
H720 C704 0.931 . S
H721 C709 0.929 . S
H722 C710 0.960 1_655 S
H723 C710 0.962 . S
H724 C710 0.960 . S
H725 C711 0.961 . S
H726 C711 0.961 . S
H727 C711 0.961 . S
H728 C712 0.931 . S
H729 C717 0.930 . S
H730 C718 0.956 . S
H731 C718 0.961 . S
H732 C718 0.961 . S
H733 C719 0.958 . S
H734 C719 0.961 . S
H735 C719 0.960 . S
C736 C737 1.393 . S
C736 C738 1.394 1_545 S
C736 H752 0.931 . S
C737 C736 1.393 . S
C737 C741 1.365 1_545 S
C738 C736 1.394 1_565 S
C738 C739 1.369 . S
C738 C742 1.531 . S
C739 C738 1.369 . S
C739 C740 1.410 . S
C739 C747 1.503 . S
C740 C739 1.410 . S
C740 C741 1.392 . S
C740 C743 1.511 . S
C741 C737 1.365 1_565 S
C741 C740 1.392 . S
C741 H753 0.929 . S
C742 C738 1.531 . S
C742 H754 0.960 . S
C742 H755 0.962 1_565 S
C742 H756 0.960 . S
C743 C740 1.511 . S
C743 H757 0.961 . S
C743 H758 0.961 . S
C743 H759 0.961 . S
C744 C745 1.370 . S
C744 C746 1.363 . S
C744 H760 0.961 . S
C745 C744 1.370 . S
C745 C749 1.408 . S
C746 C744 1.363 . S
C746 C747 1.370 . S
C746 C750 1.524 1_565 S
C747 C739 1.503 . S
C747 C746 1.370 . S
C747 C748 1.403 . S
C748 C747 1.403 . S
C748 C749 1.404 . S
C748 C751 1.539 . S
C749 C745 1.408 . S
C749 C748 1.404 . S
C749 H761 0.930 . S
C750 C746 1.524 1_545 S
C750 H762 0.956 . S
C750 H763 0.961 . S
C750 H764 0.961 . S
C751 C748 1.539 . S
C751 H765 0.958 . S
C751 H766 0.961 . S
C751 H767 0.960 . S
H752 C736 0.931 . S
H753 C741 0.929 . S
H754 C742 0.960 . S
H755 C742 0.962 1_545 S
H756 C742 0.960 . S
H757 C743 0.961 . S
H758 C743 0.961 . S
H759 C743 0.961 . S
H760 C744 0.961 . S
H761 C749 0.930 . S
H762 C750 0.956 . S
H763 C750 0.961 . S
H764 C750 0.961 . S
H765 C751 0.958 . S
H766 C751 0.961 . S
H767 C751 0.960 . S
C768 C769 1.391 . S
C768 C770 1.394 . S
C768 H784 0.931 . S
C769 C768 1.391 . S
C769 C773 1.376 . S
C770 C768 1.394 . S
C770 C771 1.369 . S
C770 C774 1.531 . S
C771 C770 1.369 . S
C771 C772 1.410 . S
C771 C779 1.503 . S
C772 C771 1.410 . S
C772 C773 1.392 . S
C772 C775 1.511 . S
C773 C769 1.376 . S
C773 C772 1.392 . S
C773 H785 0.929 . S
C774 C770 1.531 . S
C774 H786 0.960 . S
C774 H787 0.962 . S
C774 H788 0.960 . S
C775 C772 1.511 . S
C775 H789 0.961 . S
C775 H790 0.961 . S
C775 H791 0.961 . S
C776 C777 1.370 . S
C776 C778 1.363 . S
C776 H792 0.931 . S
C777 C776 1.370 . S
C777 C781 1.408 . S
C778 C776 1.363 . S
C778 C779 1.370 . S
C778 C782 1.524 . S
C779 C771 1.503 . S
C779 C778 1.370 . S
C779 C780 1.403 . S
C780 C779 1.403 . S
C780 C781 1.404 . S
C780 C783 1.539 . S
C781 C777 1.408 . S
C781 C780 1.404 . S
C781 H793 0.930 . S
C782 C778 1.524 . S
C782 H794 0.956 . S
C782 H795 0.961 . S
C782 H796 0.961 . S
C783 C780 1.539 . S
C783 H797 0.958 . S
C783 H798 0.961 . S
C783 H799 0.960 . S
H784 C768 0.931 . S
H785 C773 0.929 . S
H786 C774 0.960 . S
H787 C774 0.962 . S
H788 C774 0.960 . S
H789 C775 0.961 . S
H790 C775 0.961 . S
H791 C775 0.961 . S
H792 C776 0.931 . S
H793 C781 0.930 . S
H794 C782 0.956 . S
H795 C782 0.961 . S
H796 C782 0.961 . S
H797 C783 0.958 . S
H798 C783 0.961 . S
H799 C783 0.960 . S
C800 C801 1.391 . S
C800 C802 1.394 . S
C800 H816 0.931 . S
C801 C800 1.391 . S
C801 C805 1.376 . S
C802 C800 1.394 . S
C802 C803 1.369 . S
C802 C806 1.531 . S
C803 C802 1.369 . S
C803 C804 1.410 . S
C803 C811 1.503 . S
C804 C803 1.410 . S
C804 C805 1.392 . S
C804 C807 1.511 . S
C805 C801 1.376 . S
C805 C804 1.392 . S
C805 H817 0.929 . S
C806 C802 1.531 . S
C806 H818 0.960 . S
C806 H819 0.962 . S
C806 H820 0.960 . S
C807 C804 1.511 . S
C807 H821 0.961 . S
C807 H822 0.961 . S
C807 H823 0.961 . S
C808 C809 1.370 . S
C808 C810 1.363 . S
C808 H824 0.931 . S
C809 C808 1.370 . S
C809 C813 1.408 . S
C810 C808 1.363 . S
C810 C811 1.370 . S
C810 C814 1.524 . S
C811 C803 1.503 . S
C811 C810 1.370 . S
C811 C812 1.403 . S
C812 C811 1.403 . S
C812 C813 1.404 . S
C812 C815 1.539 . S
C813 C809 1.408 . S
C813 C812 1.404 . S
C813 H825 0.930 . S
C814 C810 1.524 . S
C814 H826 0.956 . S
C814 H827 0.961 . S
C814 H828 0.961 . S
C815 C812 1.539 . S
C815 H829 0.958 . S
C815 H830 0.961 . S
C815 H831 0.960 . S
H816 C800 0.931 . S
H817 C805 0.929 . S
H818 C806 0.960 . S
H819 C806 0.962 . S
H820 C806 0.960 . S
H821 C807 0.961 . S
H822 C807 0.961 . S
H823 C807 0.961 . S
H824 C808 0.931 . S
H825 C813 0.930 . S
H826 C814 0.956 . S
H827 C814 0.961 . S
H828 C814 0.961 . S
H829 C815 0.958 . S
H830 C815 0.961 . S
H831 C815 0.960 . S
C832 C833 1.391 1_455 S
C832 C834 1.394 . S
C832 H848 0.931 . S
C833 C832 1.391 1_655 S
C833 C837 1.376 . S
C834 C832 1.394 . S
C834 C835 1.369 . S
C834 C838 1.531 . S
C835 C834 1.369 . S
C835 C836 1.410 1_455 S
C835 C843 1.503 . S
C836 C835 1.410 1_655 S
C836 C837 1.392 . S
C836 C839 1.511 . S
C837 C833 1.376 . S
C837 C836 1.392 . S
C837 H849 0.929 . S
C838 C834 1.531 . S
C838 H850 0.960 1_554 S
C838 H851 0.962 . S
C838 H852 0.960 . S
C839 C836 1.511 . S
C839 H853 0.961 . S
C839 H854 0.961 . S
C839 H855 0.961 1_554 S
C840 C841 1.370 1_554 S
C840 C842 1.363 . S
C840 H856 0.931 . S
C841 C840 1.370 1_556 S
C841 C845 1.408 . S
C842 C840 1.363 . S
C842 C843 1.370 . S
C842 C846 1.524 . S
C843 C835 1.503 . S
C843 C842 1.370 . S
C843 C844 1.403 1_554 S
C844 C843 1.403 1_556 S
C844 C845 1.404 . S
C844 C847 1.539 . S
C845 C841 1.408 . S
C845 C844 1.404 . S
C845 H857 0.930 . S
C846 C842 1.524 . S
C846 H858 0.956 . S
C846 H859 0.961 . S
C846 H860 0.961 . S
C847 C844 1.539 . S
C847 H861 0.958 . S
C847 H862 0.961 . S
C847 H863 0.960 1_455 S
H848 C832 0.931 . S
H849 C837 0.929 . S
H850 C838 0.960 1_556 S
H851 C838 0.962 . S
H852 C838 0.960 . S
H853 C839 0.961 . S
H854 C839 0.961 . S
H855 C839 0.961 1_556 S
H856 C840 0.931 . S
H857 C845 0.930 . S
H858 C846 0.956 . S
H859 C846 0.961 . S
H860 C846 0.961 . S
H861 C847 0.958 . S
H862 C847 0.961 . S
H863 C847 0.960 1_655 S
C864 C865 1.398 . S
C864 C866 1.394 1_565 S
C864 H880 0.931 . S
C865 C864 1.398 . S
C865 C869 1.360 1_565 S
C866 C864 1.394 1_545 S
C866 C867 1.369 . S
C866 C870 1.531 1_545 S
C867 C866 1.369 . S
C867 C868 1.410 . S
C867 C875 1.503 . S
C868 C867 1.410 . S
C868 C869 1.392 . S
C868 C871 1.511 1_554 S
C869 C865 1.360 1_545 S
C869 C868 1.392 . S
C869 H881 0.929 . S
C870 C866 1.531 1_565 S
C870 H882 0.960 1_565 S
C870 H883 0.962 . S
C870 H884 0.960 . S
C871 C868 1.511 1_556 S
C871 H885 0.961 . S
C871 H886 0.961 . S
C871 H887 0.961 . S
C872 C873 1.370 . S
C872 C874 1.363 . S
C872 H888 0.931 . S
C873 C872 1.370 . S
C873 C877 1.401 1_556 S
C874 C872 1.363 . S
C874 C875 1.370 1_556 S
C874 C878 1.524 1_545 S
C875 C867 1.503 . S
C875 C874 1.370 1_554 S
C875 C876 1.403 . S
C876 C875 1.403 . S
C876 C877 1.409 . S
C876 C879 1.539 . S
C877 C873 1.401 1_554 S
C877 C876 1.409 . S
C877 H889 0.932 . S
C878 C874 1.524 1_565 S
C878 H890 0.956 . S
C878 H891 0.961 . S
C878 H892 0.961 . S
C879 C876 1.539 . S
C879 H893 0.958 . S
C879 H894 0.961 . S
C879 H895 0.960 . S
H880 C864 0.931 . S
H881 C869 0.929 . S
H882 C870 0.960 1_545 S
H883 C870 0.962 . S
H884 C870 0.960 . S
H885 C871 0.961 . S
H886 C871 0.961 . S
H887 C871 0.961 . S
H888 C872 0.931 . S
H889 C877 0.932 . S
H890 C878 0.956 . S
H891 C878 0.961 . S
H892 C878 0.961 . S
H893 C879 0.958 . S
H894 C879 0.961 . S
H895 C879 0.960 . S
C896 C897 1.391 . S
C896 C898 1.394 . S
C896 H912 0.931 . S
C897 C896 1.391 . S
C897 C901 1.376 . S
C898 C896 1.394 . S
C898 C899 1.369 . S
C898 C902 1.531 1_554 S
C899 C898 1.369 . S
C899 C900 1.410 . S
C899 C907 1.503 . S
C900 C899 1.410 . S
C900 C901 1.392 . S
C900 C903 1.511 . S
C901 C897 1.376 . S
C901 C900 1.392 . S
C901 H913 0.929 . S
C902 C898 1.531 1_556 S
C902 H914 0.960 . S
C902 H915 0.962 . S
C902 H916 0.960 . S
C903 C900 1.511 . S
C903 H917 0.961 . S
C903 H918 0.961 . S
C903 H919 0.961 . S
C904 C905 1.370 . S
C904 C906 1.363 1_556 S
C904 H920 0.931 . S
C905 C904 1.370 . S
C905 C909 1.408 . S
C906 C904 1.363 1_554 S
C906 C907 1.370 . S
C906 C910 1.524 . S
C907 C899 1.503 . S
C907 C906 1.370 . S
C907 C908 1.403 1_554 S
C908 C907 1.403 1_556 S
C908 C909 1.404 . S
C908 C911 1.539 . S
C909 C905 1.408 . S
C909 C908 1.404 . S
C909 H921 0.930 . S
C910 C906 1.524 . S
C910 H922 0.956 . S
C910 H923 0.961 . S
C910 H924 0.961 . S
C911 C908 1.539 . S
C911 H925 0.958 . S
C911 H926 0.961 . S
C911 H927 0.960 1_556 S
H912 C896 0.931 . S
H913 C901 0.929 . S
H914 C902 0.960 . S
H915 C902 0.962 . S
H916 C902 0.960 . S
H917 C903 0.961 . S
H918 C903 0.961 . S
H919 C903 0.961 . S
H920 C904 0.931 . S
H921 C909 0.930 . S
H922 C910 0.956 . S
H923 C910 0.961 . S
H924 C910 0.961 . S
H925 C911 0.958 . S
H926 C911 0.961 . S
H927 C911 0.960 1_554 S
C928 C929 1.391 . S
C928 C930 1.394 . S
C928 H944 0.931 . S
C929 C928 1.391 . S
C929 C933 1.376 . S
C930 C928 1.394 . S
C930 C931 1.369 . S
C930 C934 1.531 . S
C931 C930 1.369 . S
C931 C932 1.410 . S
C931 C939 1.503 . S
C932 C931 1.410 . S
C932 C933 1.392 . S
C932 C935 1.511 . S
C933 C929 1.376 . S
C933 C932 1.392 . S
C933 H945 0.929 . S
C934 C930 1.531 . S
C934 H946 0.960 . S
C934 H947 0.962 1_554 S
C934 H948 0.960 . S
C935 C932 1.511 . S
C935 H949 0.961 . S
C935 H950 0.961 . S
C935 H951 0.961 . S
C936 C937 1.370 . S
C936 C938 1.363 . S
C936 H952 0.931 . S
C937 C936 1.370 . S
C937 C941 1.408 1_556 S
C938 C936 1.363 . S
C938 C939 1.370 1_556 S
C938 C942 1.524 . S
C939 C931 1.503 . S
C939 C938 1.370 1_554 S
C939 C940 1.403 . S
C940 C939 1.403 . S
C940 C941 1.404 . S
C940 C943 1.539 . S
C941 C937 1.408 1_554 S
C941 C940 1.404 . S
C941 H953 0.930 . S
C942 C938 1.524 . S
C942 H954 0.956 . S
C942 H955 0.961 . S
C942 H956 0.961 . S
C943 C940 1.539 . S
C943 H957 0.958 . S
C943 H958 0.961 . S
C943 H959 0.960 . S
H944 C928 0.931 . S
H945 C933 0.929 . S
H946 C934 0.960 . S
H947 C934 0.962 1_556 S
H948 C934 0.960 . S
H949 C935 0.961 . S
H950 C935 0.961 . S
H951 C935 0.961 . S
H952 C936 0.931 . S
H953 C941 0.930 . S
H954 C942 0.956 . S
H955 C942 0.961 . S
H956 C942 0.961 . S
H957 C943 0.958 . S
H958 C943 0.961 . S
H959 C943 0.960 . S
C960 C961 1.417 . S
C960 C962 1.394 . S
C960 H976 0.931 . S
C961 C960 1.417 . S
C961 C965 1.350 1_455 S
C962 C960 1.394 . S
C962 C963 1.369 . S
C962 C966 1.531 . S
C963 C962 1.369 . S
C963 C964 1.410 1_455 S
C963 C971 1.503 . S
C964 C963 1.410 1_655 S
C964 C965 1.392 . S
C964 C967 1.511 . S
C965 C961 1.350 1_655 S
C965 C964 1.392 . S
C965 H977 0.929 . S
C966 C962 1.531 . S
C966 H978 0.960 . S
C966 H979 0.962 . S
C966 H980 0.960 . S
C967 C964 1.511 . S
C967 H981 0.961 . S
C967 H982 0.961 . S
C967 H983 0.961 . S
C968 C969 1.370 . S
C968 C970 1.363 . S
C968 H984 0.931 . S
C969 C968 1.370 . S
C969 C973 1.408 1_455 S
C970 C968 1.363 . S
C970 C971 1.370 . S
C970 C974 1.524 . S
C971 C963 1.503 . S
C971 C970 1.370 . S
C971 C972 1.403 1_455 S
C972 C971 1.403 1_655 S
C972 C973 1.404 . S
C972 C975 1.539 . S
C973 C969 1.408 1_655 S
C973 C972 1.404 . S
C973 H985 0.930 . S
C974 C970 1.524 . S
C974 H986 0.956 . S
C974 H987 0.961 . S
C974 H988 0.961 . S
C975 C972 1.539 . S
C975 H989 0.958 . S
C975 H990 0.961 . S
C975 H991 0.960 . S
H976 C960 0.931 . S
H977 C965 0.929 . S
H978 C966 0.960 . S
H979 C966 0.962 . S
H980 C966 0.960 . S
H981 C967 0.961 . S
H982 C967 0.961 . S
H983 C967 0.961 . S
H984 C968 0.931 . S
H985 C973 0.930 . S
H986 C974 0.956 . S
H987 C974 0.961 . S
H988 C974 0.961 . S
H989 C975 0.958 . S
H990 C975 0.961 . S
H991 C975 0.960 . S
C992 C993 1.391 1_565 S
C992 C994 1.394 . S
C992 H1008 0.931 . S
C993 C992 1.391 1_545 S
C993 C997 1.376 . S
C994 C992 1.394 . S
C994 C995 1.369 1_565 S
C994 C998 1.531 . S
C995 C994 1.369 1_545 S
C995 C996 1.410 . S
C995 C1003 1.503 . S
C996 C995 1.410 . S
C996 C997 1.392 . S
C996 C999 1.511 . S
C997 C993 1.376 . S
C997 C996 1.392 . S
C997 H1009 0.929 . S
C998 C994 1.531 . S
C998 H1010 0.960 . S
C998 H1011 0.962 . S
C998 H1012 0.960 . S
C999 C996 1.511 . S
C999 H1013 0.961 . S
C999 H1014 0.961 . S
C999 H1015 0.961 . S
C1000 C1001 1.370 . S
C1000 C1002 1.363 . S
C1000 H1016 0.931 . S
C1001 C1000 1.370 . S
C1001 C1005 1.408 . S
C1002 C1000 1.363 . S
C1002 C1003 1.370 . S
C1002 C1006 1.524 . S
C1003 C995 1.503 . S
C1003 C1002 1.370 . S
C1003 C1004 1.403 . S
C1004 C1003 1.403 . S
C1004 C1005 1.404 . S
C1004 C1007 1.539 . S
C1005 C1001 1.408 . S
C1005 C1004 1.404 . S
C1005 H1017 0.930 . S
C1006 C1002 1.524 . S
C1006 H1018 0.956 1_545 S
C1006 H1019 0.961 . S
C1006 H1020 0.961 . S
C1007 C1004 1.539 . S
C1007 H1021 0.958 1_545 S
C1007 H1022 0.961 . S
C1007 H1023 0.960 . S
H1008 C992 0.931 . S
H1009 C997 0.929 . S
H1010 C998 0.960 . S
H1011 C998 0.962 . S
H1012 C998 0.960 . S
H1013 C999 0.961 . S
H1014 C999 0.961 . S
H1015 C999 0.961 . S
H1016 C1000 0.931 . S
H1017 C1005 0.930 . S
H1018 C1006 0.956 1_565 S
H1019 C1006 0.961 . S
H1020 C1006 0.961 . S
H1021 C1007 0.958 1_565 S
H1022 C1007 0.961 . S
H1023 C1007 0.960 . S
C1024 C1025 1.391 . S
C1024 C1026 1.394 . S
C1024 H1040 0.931 . S
C1025 C1024 1.391 . S
C1025 C1029 1.376 . S
C1026 C1024 1.394 . S
C1026 C1027 1.369 . S
C1026 C1030 1.531 . S
C1027 C1026 1.369 . S
C1027 C1028 1.410 . S
C1027 C1035 1.503 . S
C1028 C1027 1.410 . S
C1028 C1029 1.392 . S
C1028 C1031 1.511 . S
C1029 C1025 1.376 . S
C1029 C1028 1.392 . S
C1029 H1041 0.929 . S
C1030 C1026 1.531 . S
C1030 H1042 0.960 . S
C1030 H1043 0.962 . S
C1030 H1044 0.960 . S
C1031 C1028 1.511 . S
C1031 H1045 0.961 . S
C1031 H1046 0.961 . S
C1031 H1047 0.961 . S
C1032 C1033 1.370 . S
C1032 C1034 1.363 . S
C1032 H1048 0.931 . S
C1033 C1032 1.370 . S
C1033 C1037 1.408 . S
C1034 C1032 1.363 . S
C1034 C1035 1.370 . S
C1034 C1038 1.524 . S
C1035 C1027 1.503 . S
C1035 C1034 1.370 . S
C1035 C1036 1.403 . S
C1036 C1035 1.403 . S
C1036 C1037 1.404 . S
C1036 C1039 1.539 . S
C1037 C1033 1.408 . S
C1037 C1036 1.404 . S
C1037 H1049 0.930 . S
C1038 C1034 1.524 . S
C1038 H1050 0.956 . S
C1038 H1051 0.961 . S
C1038 H1052 0.961 . S
C1039 C1036 1.539 . S
C1039 H1053 0.958 . S
C1039 H1054 0.961 . S
C1039 H1055 0.960 . S
H1040 C1024 0.931 . S
H1041 C1029 0.929 . S
H1042 C1030 0.960 . S
H1043 C1030 0.962 . S
H1044 C1030 0.960 . S
H1045 C1031 0.961 . S
H1046 C1031 0.961 . S
H1047 C1031 0.961 . S
H1048 C1032 0.931 . S
H1049 C1037 0.930 . S
H1050 C1038 0.956 . S
H1051 C1038 0.961 . S
H1052 C1038 0.961 . S
H1053 C1039 0.958 . S
H1054 C1039 0.961 . S
H1055 C1039 0.960 . S
C1056 C1057 1.391 . S
C1056 C1058 1.394 . S
C1056 H1072 0.931 . S
C1057 C1056 1.391 . S
C1057 C1061 1.376 . S
C1058 C1056 1.394 . S
C1058 C1059 1.369 . S
C1058 C1062 1.531 . S
C1059 C1058 1.369 . S
C1059 C1060 1.410 . S
C1059 C1067 1.503 . S
C1060 C1059 1.410 . S
C1060 C1061 1.392 . S
C1060 C1063 1.511 . S
C1061 C1057 1.376 . S
C1061 C1060 1.392 . S
C1061 H1073 0.929 . S
C1062 C1058 1.531 . S
C1062 H1074 0.960 . S
C1062 H1075 0.962 . S
C1062 H1076 0.960 . S
C1063 C1060 1.511 . S
C1063 H1077 0.961 . S
C1063 H1078 0.961 . S
C1063 H1079 0.961 . S
C1064 C1065 1.370 . S
C1064 C1066 1.363 . S
C1064 H1080 0.931 . S
C1065 C1064 1.370 . S
C1065 C1069 1.408 . S
C1066 C1064 1.363 . S
C1066 C1067 1.370 . S
C1066 C1070 1.524 . S
C1067 C1059 1.503 . S
C1067 C1066 1.370 . S
C1067 C1068 1.403 . S
C1068 C1067 1.403 . S
C1068 C1069 1.404 . S
C1068 C1071 1.539 . S
C1069 C1065 1.408 . S
C1069 C1068 1.404 . S
C1069 H1081 0.930 . S
C1070 C1066 1.524 . S
C1070 H1082 0.956 . S
C1070 H1083 0.961 . S
C1070 H1084 0.961 . S
C1071 C1068 1.539 . S
C1071 H1085 0.958 . S
C1071 H1086 0.961 . S
C1071 H1087 0.960 . S
H1072 C1056 0.931 . S
H1073 C1061 0.929 . S
H1074 C1062 0.960 . S
H1075 C1062 0.962 . S
H1076 C1062 0.960 . S
H1077 C1063 0.961 . S
H1078 C1063 0.961 . S
H1079 C1063 0.961 . S
H1080 C1064 0.931 . S
H1081 C1069 0.930 . S
H1082 C1070 0.956 . S
H1083 C1070 0.961 . S
H1084 C1070 0.961 . S
H1085 C1071 0.958 . S
H1086 C1071 0.961 . S
H1087 C1071 0.960 . S
C1088 C1089 1.391 . S
C1088 C1090 1.394 . S
C1088 H1104 0.931 . S
C1089 C1088 1.391 . S
C1089 C1093 1.376 1_655 S
C1090 C1088 1.394 . S
C1090 C1091 1.369 . S
C1090 C1094 1.531 . S
C1091 C1090 1.369 . S
C1091 C1092 1.410 1_655 S
C1091 C1099 1.503 . S
C1092 C1091 1.410 1_455 S
C1092 C1093 1.392 . S
C1092 C1095 1.511 . S
C1093 C1089 1.376 1_455 S
C1093 C1092 1.392 . S
C1093 H1105 0.929 . S
C1094 C1090 1.531 . S
C1094 H1106 0.960 . S
C1094 H1107 0.962 . S
C1094 H1108 0.960 . S
C1095 C1092 1.511 . S
C1095 H1109 0.961 . S
C1095 H1110 0.961 . S
C1095 H1111 0.961 . S
C1096 C1097 1.370 . S
C1096 C1098 1.363 . S
C1096 H1112 0.931 . S
C1097 C1096 1.370 . S
C1097 C1101 1.408 1_655 S
C1098 C1096 1.363 . S
C1098 C1099 1.370 . S
C1098 C1102 1.524 . S
C1099 C1091 1.503 . S
C1099 C1098 1.370 . S
C1099 C1100 1.403 1_655 S
C1100 C1099 1.403 1_455 S
C1100 C1101 1.404 . S
C1100 C1103 1.539 . S
C1101 C1097 1.408 1_455 S
C1101 C1100 1.404 . S
C1101 H1113 0.930 . S
C1102 C1098 1.524 . S
C1102 H1114 0.956 . S
C1102 H1115 0.961 . S
C1102 H1116 0.961 . S
C1103 C1100 1.539 . S
C1103 H1117 0.958 . S
C1103 H1118 0.961 . S
C1103 H1119 0.960 . S
H1104 C1088 0.931 . S
H1105 C1093 0.929 . S
H1106 C1094 0.960 . S
H1107 C1094 0.962 . S
H1108 C1094 0.960 . S
H1109 C1095 0.961 . S
H1110 C1095 0.961 . S
H1111 C1095 0.961 . S
H1112 C1096 0.931 . S
H1113 C1101 0.930 . S
H1114 C1102 0.956 . S
H1115 C1102 0.961 . S
H1116 C1102 0.961 . S
H1117 C1103 0.958 . S
H1118 C1103 0.961 . S
H1119 C1103 0.960 . S
C1120 C1121 1.391 1_545 S
C1120 C1122 1.394 . S
C1120 H1136 0.931 . S
C1121 C1120 1.391 1_565 S
C1121 C1125 1.376 . S
C1122 C1120 1.394 . S
C1122 C1123 1.369 1_545 S
C1122 C1126 1.531 . S
C1123 C1122 1.369 1_565 S
C1123 C1124 1.410 . S
C1123 C1131 1.503 . S
C1124 C1123 1.410 . S
C1124 C1125 1.392 . S
C1124 C1127 1.511 . S
C1125 C1121 1.376 . S
C1125 C1124 1.392 . S
C1125 H1137 0.929 . S
C1126 C1122 1.531 . S
C1126 H1138 0.960 . S
C1126 H1139 0.962 . S
C1126 H1140 0.960 . S
C1127 C1124 1.511 . S
C1127 H1141 0.961 . S
C1127 H1142 0.961 . S
C1127 H1143 0.961 . S
C1128 C1129 1.370 . S
C1128 C1130 1.363 . S
C1128 H1144 0.931 . S
C1129 C1128 1.370 . S
C1129 C1133 1.420 . S
C1130 C1128 1.363 . S
C1130 C1131 1.370 . S
C1130 C1134 1.524 . S
C1131 C1123 1.503 . S
C1131 C1130 1.370 . S
C1131 C1132 1.403 1_565 S
C1132 C1131 1.403 1_545 S
C1132 C1133 1.401 1_545 S
C1132 C1135 1.539 . S
C1133 C1129 1.420 . S
C1133 C1132 1.401 1_565 S
C1133 H1145 0.922 1_565 S
C1134 C1130 1.524 . S
C1134 H1146 0.956 . S
C1134 H1147 0.961 . S
C1134 H1148 0.961 . S
C1135 C1132 1.539 . S
C1135 H1149 0.958 . S
C1135 H1150 0.961 . S
C1135 H1151 0.960 . S
H1136 C1120 0.931 . S
H1137 C1125 0.929 . S
H1138 C1126 0.960 . S
H1139 C1126 0.962 . S
H1140 C1126 0.960 . S
H1141 C1127 0.961 . S
H1142 C1127 0.961 . S
H1143 C1127 0.961 . S
H1144 C1128 0.931 . S
H1145 C1133 0.922 1_545 S
H1146 C1134 0.956 . S
H1147 C1134 0.961 . S
H1148 C1134 0.961 . S
H1149 C1135 0.958 . S
H1150 C1135 0.961 . S
H1151 C1135 0.960 . S
C1152 C1153 1.391 . S
C1152 C1154 1.394 . S
C1152 H1168 0.931 . S
C1153 C1152 1.391 . S
C1153 C1157 1.376 . S
C1154 C1152 1.394 . S
C1154 C1155 1.369 . S
C1154 C1158 1.531 . S
C1155 C1154 1.369 . S
C1155 C1156 1.410 . S
C1155 C1163 1.503 . S
C1156 C1155 1.410 . S
C1156 C1157 1.392 . S
C1156 C1159 1.511 . S
C1157 C1153 1.376 . S
C1157 C1156 1.392 . S
C1157 H1169 0.929 . S
C1158 C1154 1.531 . S
C1158 H1170 0.960 . S
C1158 H1171 0.962 . S
C1158 H1172 0.960 . S
C1159 C1156 1.511 . S
C1159 H1173 0.961 . S
C1159 H1174 0.961 . S
C1159 H1175 0.961 . S
C1160 C1161 1.370 . S
C1160 C1162 1.363 . S
C1160 H1176 0.931 . S
C1161 C1160 1.370 . S
C1161 C1165 1.408 . S
C1162 C1160 1.363 . S
C1162 C1163 1.370 . S
C1162 C1166 1.524 . S
C1163 C1155 1.503 . S
C1163 C1162 1.370 . S
C1163 C1164 1.403 . S
C1164 C1163 1.403 . S
C1164 C1165 1.404 . S
C1164 C1167 1.539 . S
C1165 C1161 1.408 . S
C1165 C1164 1.404 . S
C1165 H1177 0.930 . S
C1166 C1162 1.524 . S
C1166 H1178 0.956 . S
C1166 H1179 0.961 . S
C1166 H1180 0.961 . S
C1167 C1164 1.539 . S
C1167 H1181 0.958 . S
C1167 H1182 0.961 . S
C1167 H1183 0.960 . S
H1168 C1152 0.931 . S
H1169 C1157 0.929 . S
H1170 C1158 0.960 . S
H1171 C1158 0.962 . S
H1172 C1158 0.960 . S
H1173 C1159 0.961 . S
H1174 C1159 0.961 . S
H1175 C1159 0.961 . S
H1176 C1160 0.931 . S
H1177 C1165 0.930 . S
H1178 C1166 0.956 . S
H1179 C1166 0.961 . S
H1180 C1166 0.961 . S
H1181 C1167 0.958 . S
H1182 C1167 0.961 . S
H1183 C1167 0.960 . S
C1184 C1185 1.391 . S
C1184 C1186 1.394 . S
C1184 H1200 0.931 . S
C1185 C1184 1.391 . S
C1185 C1189 1.376 . S
C1186 C1184 1.394 . S
C1186 C1187 1.369 . S
C1186 C1190 1.531 . S
C1187 C1186 1.369 . S
C1187 C1188 1.410 . S
C1187 C1195 1.503 . S
C1188 C1187 1.410 . S
C1188 C1189 1.392 . S
C1188 C1191 1.511 . S
C1189 C1185 1.376 . S
C1189 C1188 1.392 . S
C1189 H1201 0.929 . S
C1190 C1186 1.531 . S
C1190 H1202 0.960 . S
C1190 H1203 0.962 . S
C1190 H1204 0.960 . S
C1191 C1188 1.511 . S
C1191 H1205 0.961 . S
C1191 H1206 0.961 . S
C1191 H1207 0.961 . S
C1192 C1193 1.370 . S
C1192 C1194 1.363 . S
C1192 H1208 0.931 . S
C1193 C1192 1.370 . S
C1193 C1197 1.408 . S
C1194 C1192 1.363 . S
C1194 C1195 1.370 . S
C1194 C1198 1.524 . S
C1195 C1187 1.503 . S
C1195 C1194 1.370 . S
C1195 C1196 1.403 . S
C1196 C1195 1.403 . S
C1196 C1197 1.404 . S
C1196 C1199 1.539 . S
C1197 C1193 1.408 . S
C1197 C1196 1.404 . S
C1197 H1209 0.930 . S
C1198 C1194 1.524 . S
C1198 H1210 0.956 . S
C1198 H1211 0.961 . S
C1198 H1212 0.961 . S
C1199 C1196 1.539 . S
C1199 H1213 0.958 . S
C1199 H1214 0.961 . S
C1199 H1215 0.960 . S
H1200 C1184 0.931 . S
H1201 C1189 0.929 . S
H1202 C1190 0.960 . S
H1203 C1190 0.962 . S
H1204 C1190 0.960 . S
H1205 C1191 0.961 . S
H1206 C1191 0.961 . S
H1207 C1191 0.961 . S
H1208 C1192 0.931 . S
H1209 C1197 0.930 . S
H1210 C1198 0.956 . S
H1211 C1198 0.961 . S
H1212 C1198 0.961 . S
H1213 C1199 0.958 . S
H1214 C1199 0.961 . S
H1215 C1199 0.960 . S
C449 C241 2.109 1_565 S
C457 C306 2.381 1_545 S
C489 C346 2.411 . S
C481 C277 2.244 . S
C521 C386 2.399 . S
C513 C169 2.132 . S
C553 C426 2.395 1_455 S
C545 C205 2.172 1_655 S
C585 C296 2.382 . S
C577 C97 2.138 . S
C609 C133 2.188 . S
C617 C336 2.417 . S
C641 C25 2.171 . S
C649 C376 2.397 . S
C673 C61 2.178 1_655 S
C681 C416 2.397 1_655 S
C713 C293 0.429 . S
C705 C211 0.393 . S
C745 C333 0.434 . S
C737 C247 0.385 . S
C777 C373 0.351 . S
C769 C253 0.420 . S
C801 C175 0.301 . S
C809 C413 0.369 . S
C833 C67 0.527 1_655 S
C841 C303 0.367 . S
C873 C343 0.435 . S
C865 C103 0.319 1_565 S
C905 C383 0.342 . S
C897 C109 0.380 . S
C929 C31 0.379 . S
C937 C423 0.395 . S
C961 C181 2.808 . S
C969 C297 3.166 . S
C993 C217 2.818 . S
C1001 C337 3.137 . S
C1033 C377 3.137 . S
C1025 C283 2.753 . S
C1065 C417 3.157 . S
C1057 C145 2.779 . S
C1089 C37 2.857 1_655 S
C1097 C307 3.177 . S
C1129 C347 3.139 . S
C1121 C73 2.766 1_565 S
C1161 C387 3.135 . S
C1153 C139 2.735 . S
C1185 C1 2.838 . S
C1193 C427 3.155 . S
