# Generated by pormake.
# Topology nom, (4,4)-cn, num edge types: 1
# Building blocks:
#     Node 0, Type 0, BuildingBlock: GIZVER_clean_linker_0, # of connection points: 4
#     Node 1, Type 0, BuildingBlock: GIZVER_clean_linker_0, # of connection points: 4
#     Node 2, Type 0, BuildingBlock: GIZVER_clean_linker_0, # of connection points: 4
#     Node 3, Type 0, BuildingBlock: GIZVER_clean_linker_0, # of connection points: 4
#     Node 4, Type 0, BuildingBlock: GIZVER_clean_linker_0, # of connection points: 4
#     Node 5, Type 0, BuildingBlock: GIZVER_clean_linker_0, # of connection points: 4
#     Node 6, Type 1, BuildingBlock: NAHDIM_clean_sbu_0, # of connection points: 4
#     Node 7, Type 1, BuildingBlock: NAHDIM_clean_sbu_0, # of connection points: 4
#     Node 8, Type 1, BuildingBlock: NAHDIM_clean_sbu_0, # of connection points: 4
#     Node 9, Type 1, BuildingBlock: NAHDIM_clean_sbu_0, # of connection points: 4
#     Node 10, Type 1, BuildingBlock: NAHDIM_clean_sbu_0, # of connection points: 4
#     Node 11, Type 1, BuildingBlock: NAHDIM_clean_sbu_0, # of connection points: 4
#     Edge 12, Type (0, 1), BuildingBlock: XUDNAN_clean_linker_2, # of connection points: 2
#     Edge 13, Type (0, 1), BuildingBlock: XUDNAN_clean_linker_2, # of connection points: 2
#     Edge 14, Type (0, 1), BuildingBlock: XUDNAN_clean_linker_2, # of connection points: 2
#     Edge 15, Type (0, 1), BuildingBlock: XUDNAN_clean_linker_2, # of connection points: 2
#     Edge 16, Type (0, 1), BuildingBlock: XUDNAN_clean_linker_2, # of connection points: 2
#     Edge 17, Type (0, 1), BuildingBlock: XUDNAN_clean_linker_2, # of connection points: 2
#     Edge 18, Type (0, 1), BuildingBlock: XUDNAN_clean_linker_2, # of connection points: 2
#     Edge 19, Type (0, 1), BuildingBlock: XUDNAN_clean_linker_2, # of connection points: 2
#     Edge 20, Type (0, 1), BuildingBlock: XUDNAN_clean_linker_2, # of connection points: 2
#     Edge 21, Type (0, 1), BuildingBlock: XUDNAN_clean_linker_2, # of connection points: 2
#     Edge 22, Type (0, 1), BuildingBlock: XUDNAN_clean_linker_2, # of connection points: 2
#     Edge 23, Type (0, 1), BuildingBlock: XUDNAN_clean_linker_2, # of connection points: 2
#     Edge 24, Type (0, 1), BuildingBlock: XUDNAN_clean_linker_2, # of connection points: 2
#     Edge 25, Type (0, 1), BuildingBlock: XUDNAN_clean_linker_2, # of connection points: 2
#     Edge 26, Type (0, 1), BuildingBlock: XUDNAN_clean_linker_2, # of connection points: 2
#     Edge 27, Type (0, 1), BuildingBlock: XUDNAN_clean_linker_2, # of connection points: 2
#     Edge 28, Type (0, 1), BuildingBlock: XUDNAN_clean_linker_2, # of connection points: 2
#     Edge 29, Type (0, 1), BuildingBlock: XUDNAN_clean_linker_2, # of connection points: 2
#     Edge 30, Type (0, 1), BuildingBlock: XUDNAN_clean_linker_2, # of connection points: 2
#     Edge 31, Type (0, 1), BuildingBlock: XUDNAN_clean_linker_2, # of connection points: 2
#     Edge 32, Type (0, 1), BuildingBlock: XUDNAN_clean_linker_2, # of connection points: 2
#     Edge 33, Type (0, 1), BuildingBlock: XUDNAN_clean_linker_2, # of connection points: 2
#     Edge 34, Type (0, 1), BuildingBlock: XUDNAN_clean_linker_2, # of connection points: 2
#     Edge 35, Type (0, 1), BuildingBlock: XUDNAN_clean_linker_2, # of connection points: 2
# Relax obj value: 0.022
# Max RMSD: 0.125
# Mean RMSD: 0.093
data_MOF--net-nom--node1-NAHDIM_clean_sbu_0--node2-GIZVER_clean_linker_0--edge1-XUDNAN_clean_linker_2
_symmetry_space_group_name_H-M    P1
_symmetry_Int_Tables_number       1
_symmetry_cell_setting            triclinic
loop_
_symmetry_equiv_pos_as_xyz
'x, y, z'
_cell_length_a     45.959113
_cell_length_b     47.354876
_cell_length_c     46.206597
_cell_angle_alpha  90.09491
_cell_angle_beta   90.518338
_cell_angle_gamma 120.97485
loop_
_atom_site_label
_atom_site_type_symbol
_atom_site_fract_x
_atom_site_fract_y
_atom_site_fract_z
_atom_type_partial_charge
H0 H 0.96703 0.57048 0.34509 0.0
H1 H 0.99759 0.56361 0.25877 0.0
H2 H 0.89878 0.49077 0.2891 0.0
H3 H 0.01482 0.61802 0.32316 0.0
H4 H 0.02319 0.61726 0.28564 0.0
H5 H 0.03256 0.58709 0.35828 0.0
H6 H 0.13247 0.60666 0.33906 0.0
H7 H 0.07146 0.6144 0.2721 0.0
C8 C 0.96207 0.55719 0.32479 0.0
C9 C 0.93036 0.52861 0.31986 0.0
C10 C 0.98642 0.56997 0.3027 0.0
C11 C 0.97914 0.55337 0.27596 0.0
C12 C 0.94761 0.52458 0.2709 0.0
C13 C 0.92366 0.51228 0.29312 0.0
C14 C 0.01822 0.60332 0.30617 0.0
C15 C 0.04853 0.60054 0.31423 0.0
C16 C 0.05246 0.59297 0.34282 0.0
C17 C 0.08252 0.59457 0.35182 0.0
C18 C 0.10838 0.60315 0.33166 0.0
C19 C 0.10479 0.61018 0.30277 0.0
C20 C 0.07448 0.60848 0.29414 0.0
H21 H 0.41875 0.97013 0.49837 0.0
H22 H 0.47294 0.00817 0.41877 0.0
H23 H 0.44891 0.91283 0.4491 0.0
H24 H 0.42055 0.01662 0.47614 0.0
H25 H 0.4334 0.02554 0.43937 0.0
H26 H 0.46816 0.03784 0.51543 0.0
H27 H 0.54615 0.13803 0.49895 0.0
H28 H 0.4832 0.07644 0.42899 0.0
C29 C 0.43248 0.96801 0.48037 0.0
C30 C 0.4329 0.93883 0.47644 0.0
C31 C 0.44719 0.99328 0.45966 0.0
C32 C 0.46294 0.98935 0.43529 0.0
C33 C 0.46372 0.96033 0.43126 0.0
C34 C 0.44956 0.93581 0.45244 0.0
C35 C 0.44154 0.02194 0.46112 0.0
C36 C 0.47302 0.05324 0.47095 0.0
C37 C 0.48242 0.05773 0.50038 0.0
C38 C 0.50904 0.08818 0.51061 0.0
C39 C 0.52644 0.11407 0.49104 0.0
C40 C 0.51726 0.11011 0.46163 0.0
C41 C 0.49099 0.07938 0.45154 0.0
H42 H 0.3997 0.47549 0.59667 0.0
H43 H 0.44279 0.47251 0.67908 0.0
H44 H 0.42692 0.55221 0.65973 0.0
H45 H 0.40216 0.42797 0.60853 0.0
H46 H 0.40318 0.42065 0.64628 0.0
H47 H 0.46092 0.46446 0.58354 0.0
H48 H 0.53129 0.43477 0.60943 0.0
H49 H 0.4468 0.41234 0.66346 0.0
C50 C 0.41116 0.48689 0.6173 0.0
C51 C 0.41208 0.51583 0.62586 0.0
C52 C 0.42272 0.47133 0.63627 0.0
C53 C 0.43545 0.48515 0.66381 0.0
C54 C 0.43747 0.51461 0.67202 0.0
C55 C 0.42635 0.53001 0.65284 0.0
C56 C 0.41771 0.43811 0.62864 0.0
C57 C 0.45109 0.43968 0.62462 0.0
C58 C 0.46985 0.45362 0.59931 0.0
C59 C 0.49901 0.45209 0.59368 0.0
C60 C 0.50949 0.43704 0.61397 0.0
C61 C 0.49067 0.42223 0.6389 0.0
C62 C 0.46188 0.42432 0.64454 0.0
H63 H 0.94418 0.40518 0.76551 0.0
H64 H 0.97333 0.41355 0.8554 0.0
H65 H 0.87247 0.38857 0.83259 0.0
H66 H 0.99426 0.40413 0.77871 0.0
H67 H 1.00133 0.39839 0.81566 0.0
H68 H 0.01208 0.46195 0.76143 0.0
H69 H 0.10553 0.53625 0.80038 0.0
H70 H 0.04563 0.44306 0.84258 0.0
C71 C 0.93794 0.4046 0.78813 0.0
C72 C 0.90506 0.39682 0.79601 0.0
C73 C 0.96264 0.41048 0.80943 0.0
C74 C 0.95477 0.40977 0.83884 0.0
C75 C 0.92246 0.40274 0.84685 0.0
C76 C 0.89788 0.39609 0.82561 0.0
C77 C 0.9959 0.41379 0.80101 0.0
C78 C 0.02481 0.44909 0.80252 0.0
C79 C 0.02977 0.47053 0.77957 0.0
C80 C 0.05857 0.5023 0.77917 0.0
C81 C 0.08216 0.51262 0.802 0.0
C82 C 0.07811 0.49151 0.82489 0.0
C83 C 0.04889 0.45985 0.82529 0.0
H84 H 0.60045 0.05221 0.02141 0.0
H85 H 0.56447 0.03102 0.93312 0.0
H86 H 0.57623 0.11676 0.97568 0.0
H87 H 0.60966 0.01475 0.99198 0.0
H88 H 0.59784 0.00843 0.95461 0.0
H89 H 0.56426 0.9864 0.03 0.0
H90 H 0.48488 0.88998 0.00434 0.0
H91 H 0.54534 0.96076 0.93947 0.0
C92 C 0.59069 0.05807 0.00237 0.0
C93 C 0.58835 0.08658 0.00216 0.0
C94 C 0.58197 0.03783 0.97755 0.0
C95 C 0.57024 0.04593 0.95255 0.0
C96 C 0.56741 0.07402 0.95216 0.0
C97 C 0.57624 0.09391 0.97696 0.0
C98 C 0.58886 0.00995 0.97653 0.0
C99 C 0.55774 0.97741 0.98387 0.0
C100 C 0.54926 0.96897 0.013 0.0
C101 C 0.52233 0.93767 0.02027 0.0
C102 C 0.50394 0.91482 -0.00174 0.0
C103 C 0.51184 0.92257 0.96896 0.0
C104 C 0.53859 0.95432 0.96191 0.0
H105 H 0.6049 0.55283 0.09213 0.0
H106 H 0.58686 0.5632 0.18152 0.0
H107 H 0.61524 0.49348 0.15702 0.0
H108 H 0.6017 0.59921 0.10609 0.0
H109 H 0.6139 0.61227 0.14251 0.0
H110 H 0.54564 0.58233 0.08951 0.0
H111 H 0.47733 0.5895 0.14783 0.0
H112 H 0.57089 0.60209 0.18012 0.0
C113 C 0.60274 0.54488 0.11438 0.0
C114 C 0.60962 0.51997 0.12165 0.0
C115 C 0.59473 0.56082 0.13593 0.0
C116 C 0.59243 0.55074 0.16481 0.0
C117 C 0.59903 0.52589 0.17252 0.0
C118 C 0.60765 0.51082 0.15082 0.0
C119 C 0.59421 0.59179 0.12892 0.0
C120 C 0.56036 0.58881 0.13466 0.0
C121 C 0.53834 0.58424 0.11133 0.0
C122 C 0.50902 0.58586 0.11579 0.0
C123 C 0.50008 0.58853 0.14415 0.0
C124 C 0.52235 0.59473 0.16735 0.0
C125 C 0.55267 0.5952 0.16254 0.0
C126 C 0.62255 0.33077 0.37718 0.0
O127 O 0.64345 0.34456 0.3555 0.0
O128 O 0.68736 0.42202 0.39245 0.0
Zn129 Zn 0.63619 0.39756 0.39093 0.0
O130 O 0.61478 0.41109 0.4216 0.0
C131 C 0.63539 0.44239 0.35447 0.0
O132 O 0.65323 0.45946 0.37718 0.0
O133 O 0.61622 0.34844 0.39366 0.0
C134 C 0.62808 0.43292 0.44137 0.0
O135 O 0.66112 0.44918 0.44546 0.0
C136 C 0.70793 0.42238 0.41123 0.0
O137 O 0.69619 0.40508 0.43498 0.0
O138 O 0.62404 0.41156 0.3538 0.0
C139 C 0.29182 0.71471 0.55058 0.0
O140 O 0.27856 0.69512 0.52799 0.0
O141 O 0.27667 0.62822 0.57858 0.0
Zn142 Zn 0.25168 0.65311 0.5783 0.0
O143 O 0.21759 0.63928 0.5457 0.0
C144 C 0.1997 0.61258 0.61636 0.0
O145 O 0.1964 0.59118 0.59653 0.0
O146 O 0.28453 0.70229 0.57574 0.0
C147 C 0.20704 0.61507 0.52831 0.0
O148 O 0.2198 0.59586 0.52964 0.0
C149 C 0.29416 0.62719 0.55786 0.0
O150 O 0.29649 0.6429 0.53378 0.0
O151 O 0.22372 0.64234 0.61421 0.0
C152 C 0.58191 0.28842 0.71056 0.0
O153 O 0.58986 0.27718 0.68781 0.0
O154 O 0.65859 0.27962 0.73779 0.0
Zn155 Zn 0.60724 0.2517 0.73829 0.0
O156 O 0.58726 0.21804 0.70589 0.0
C157 C 0.60182 0.20581 0.78089 0.0
O158 O 0.62319 0.20402 0.7634 0.0
O159 O 0.58749 0.28111 0.73563 0.0
C160 C 0.60056 0.20382 0.69291 0.0
O161 O 0.63157 0.21131 0.69961 0.0
C162 C 0.67695 0.28868 0.71531 0.0
O163 O 0.66268 0.27974 0.68956 0.0
O164 O 0.59198 0.22586 0.77518 0.0
C165 C 0.39592 0.69858 0.90229 0.0
O166 O 0.3769 0.68253 0.92446 0.0
O167 O 0.33489 0.60461 0.8857 0.0
Zn168 Zn 0.38603 0.63453 0.88815 0.0
O169 O 0.40171 0.62938 0.92746 0.0
C170 C 0.39533 0.59233 0.84854 0.0
O171 O 0.36625 0.56933 0.85912 0.0
O172 O 0.40212 0.6829 0.88337 0.0
C173 C 0.41032 0.60857 0.9339 0.0
O174 O 0.40906 0.58817 0.91396 0.0
C175 C 0.31347 0.61379 0.88253 0.0
O176 O 0.3243 0.64527 0.87983 0.0
O177 O 0.40832 0.62178 0.85763 0.0
C178 C 0.72721 0.41555 0.04549 0.0
O179 O 0.75485 0.42832 0.02994 0.0
O180 O 0.72604 0.32527 0.07892 0.0
Zn181 Zn 0.75114 0.37262 0.06565 0.0
O182 O 0.78873 0.4018 0.09343 0.0
C183 C 0.80181 0.3967 0.02027 0.0
O184 O 0.81577 0.42464 0.03474 0.0
O185 O 0.71981 0.39086 0.06138 0.0
C186 C 0.80085 0.39172 0.11289 0.0
O187 O 0.78751 0.35993 0.11673 0.0
C188 C 0.69461 0.30586 0.07367 0.0
O189 O 0.67708 0.31771 0.06172 0.0
O190 O 0.77372 0.37244 0.02856 0.0
C191 C 0.45603 0.73541 0.24495 0.0
O192 O 0.47739 0.76501 0.23516 0.0
O193 O 0.35845 0.73464 0.23309 0.0
Zn194 Zn 0.40946 0.75885 0.23906 0.0
O195 O 0.43341 0.7836 0.20332 0.0
C196 C 0.44595 0.80758 0.28647 0.0
O197 O 0.46537 0.79498 0.28997 0.0
O198 O 0.42551 0.7275 0.24961 0.0
C199 C 0.42225 0.79888 0.18881 0.0
O200 O 0.39299 0.7956 0.19566 0.0
C201 C 0.33855 0.70658 0.24403 0.0
O202 O 0.35149 0.69176 0.25866 0.0
O203 O 0.4216 0.79481 0.26824 0.0
H204 H 0.151 0.58998 0.29903 0.0
H205 H 0.12697 0.66037 0.26324 0.0
H206 H 0.18167 0.68791 0.23789 0.0
H207 H 0.2329 0.64695 0.31717 0.0
H208 H 0.25054 0.6215 0.30939 0.0
H209 H 0.20669 0.60274 0.31916 0.0
H210 H 0.18852 0.56816 0.2718 0.0
H211 H 0.23245 0.58666 0.26192 0.0
H212 H 0.20274 0.58858 0.23748 0.0
H213 H 0.24247 0.71301 0.22279 0.0
H214 H 0.30372 0.73336 0.21933 0.0
H215 H 0.28913 0.64835 0.26729 0.0
C216 C 0.15685 0.61076 0.28535 0.0
C217 C 0.13446 0.62285 0.28312 0.0
C218 C 0.14321 0.65012 0.26493 0.0
C219 C 0.17441 0.66609 0.25053 0.0
C220 C 0.19656 0.65446 0.25442 0.0
C221 C 0.18802 0.62723 0.27124 0.0
C222 C 0.2177 0.62199 0.27488 0.0
C223 C 0.22753 0.6234 0.30705 0.0
C224 C 0.20988 0.58941 0.26067 0.0
C225 C 0.24473 0.6513 0.25847 0.0
C226 C 0.23189 0.66938 0.24632 0.0
C227 C 0.25265 0.69874 0.2318 0.0
C228 C 0.28747 0.71016 0.23001 0.0
C229 C 0.3013 0.69245 0.243 0.0
C230 C 0.27937 0.66233 0.2569 0.0
H231 H 0.52224 0.16891 0.47185 0.0
H232 H 0.54682 0.11696 0.40855 0.0
H233 H 0.57523 0.16746 0.37851 0.0
H234 H 0.50511 0.2166 0.42019 0.0
H235 H 0.52288 0.25231 0.44355 0.0
H236 H 0.50366 0.21174 0.45893 0.0
H237 H 0.5592 0.22904 0.48759 0.0
H238 H 0.57862 0.2696 0.47226 0.0
H239 H 0.59859 0.24555 0.46838 0.0
H240 H 0.60403 0.22556 0.3572 0.0
H241 H 0.62822 0.28448 0.34557 0.0
H242 H 0.58285 0.2966 0.42302 0.0
C243 C 0.53358 0.16816 0.45162 0.0
C244 C 0.53272 0.13928 0.44254 0.0
C245 C 0.54728 0.13896 0.41578 0.0
C246 C 0.56347 0.16749 0.39869 0.0
C247 C 0.56434 0.19582 0.40856 0.0
C248 C 0.54942 0.19614 0.43431 0.0
C249 C 0.55385 0.22951 0.44041 0.0
C250 C 0.51932 0.2274 0.44078 0.0
C251 C 0.57376 0.24429 0.46884 0.0
C252 C 0.57432 0.24833 0.41442 0.0
C253 C 0.5801 0.22859 0.39619 0.0
C254 C 0.59936 0.24111 0.37122 0.0
C255 C 0.61304 0.27462 0.36481 0.0
C256 C 0.60735 0.29519 0.3833 0.0
C257 C 0.58755 0.2816 0.40829 0.0
H258 H 0.36734 0.5325 0.64553 0.0
H259 H 0.41772 0.52994 0.56756 0.0
H260 H 0.39108 0.55633 0.54047 0.0
H261 H 0.28871 0.51606 0.61121 0.0
H262 H 0.28397 0.5433 0.6354 0.0
H263 H 0.30552 0.52264 0.64761 0.0
H264 H 0.3583 0.57892 0.66169 0.0
H265 H 0.337 0.59976 0.64947 0.0
H266 H 0.3777 0.61075 0.63483 0.0
H267 H 0.36138 0.58666 0.5232 0.0
H268 H 0.33003 0.6159 0.51678 0.0
H269 H 0.29954 0.59749 0.60668 0.0
C270 C 0.37278 0.53745 0.62272 0.0
C271 C 0.39485 0.52954 0.60863 0.0
C272 C 0.40083 0.53582 0.57868 0.0
C273 C 0.3859 0.55085 0.56322 0.0
C274 C 0.36481 0.559 0.57804 0.0
C275 C 0.35809 0.5522 0.6071 0.0
C276 C 0.33527 0.56389 0.61839 0.0
C277 C 0.30136 0.53473 0.62875 0.0
C278 C 0.35315 0.58987 0.64251 0.0
C279 C 0.33052 0.57891 0.59127 0.0
C280 C 0.34762 0.57584 0.56816 0.0
C281 C 0.34769 0.58892 0.54112 0.0
C282 C 0.32986 0.60555 0.5377 0.0
C283 C 0.31222 0.60893 0.5612 0.0
C284 C 0.31253 0.59519 0.58821 0.0
H285 H 0.85001 0.40523 0.79827 0.0
H286 H 0.89521 0.36273 0.74463 0.0
H287 H 0.84411 0.33721 0.71349 0.0
H288 H 0.7727 0.33344 0.80159 0.0
H289 H 0.74762 0.35272 0.80232 0.0
H290 H 0.79054 0.37461 0.81589 0.0
H291 H 0.80527 0.42264 0.78074 0.0
H292 H 0.7622 0.40097 0.76714 0.0
H293 H 0.79702 0.4143 0.74251 0.0
H294 H 0.7851 0.31081 0.69132 0.0
H295 H 0.72304 0.28317 0.68266 0.0
H296 H 0.71459 0.33631 0.7554 0.0
C297 C 0.84956 0.39086 0.77986 0.0
C298 C 0.87702 0.38616 0.77416 0.0
C299 C 0.87512 0.36751 0.74937 0.0
C300 C 0.84596 0.35264 0.73155 0.0
C301 C 0.81873 0.35634 0.73888 0.0
C302 C 0.82031 0.37493 0.76256 0.0
C303 C 0.7862 0.37129 0.76848 0.0
C304 C 0.77353 0.35717 0.79886 0.0
C305 C 0.78778 0.40427 0.76447 0.0
C306 C 0.76484 0.34687 0.74501 0.0
C307 C 0.78422 0.33931 0.72755 0.0
C308 C 0.76977 0.31674 0.70475 0.0
C309 C 0.73457 0.30118 0.69998 0.0
C310 C 0.71422 0.30759 0.71847 0.0
C311 C 0.72966 0.33095 0.74103 0.0
H312 H 0.44535 0.87179 0.96762 0.0
H313 H 0.53997 0.91137 0.92108 0.0
H314 H 0.51528 0.86045 0.8919 0.0
H315 H 0.4369 0.79768 0.9786 0.0
H316 H 0.39126 0.77347 0.97589 0.0
H317 H 0.41184 0.81592 0.98688 0.0
H318 H 0.38176 0.82793 0.94516 0.0
H319 H 0.36068 0.78527 0.93415 0.0
H320 H 0.3855 0.81721 0.90849 0.0
H321 H 0.48437 0.80184 0.87401 0.0
H322 H 0.45128 0.74113 0.87035 0.0
H323 H 0.37956 0.73819 0.93244 0.0
C324 C 0.4607 0.87018 0.95082 0.0
C325 C 0.49471 0.89579 0.94678 0.0
C326 C 0.51369 0.89257 0.92436 0.0
C327 C 0.49989 0.86353 0.90772 0.0
C328 C 0.4671 0.83791 0.91371 0.0
C329 C 0.44769 0.84108 0.93469 0.0
C330 C 0.41557 0.80848 0.94042 0.0
C331 C 0.41383 0.79831 0.97232 0.0
C332 C 0.38401 0.80981 0.93151 0.0
C333 C 0.42069 0.78609 0.92043 0.0
C334 C 0.45 0.80366 0.90454 0.0
C335 C 0.4611 0.78794 0.88599 0.0
C336 C 0.44214 0.75342 0.88408 0.0
C337 C 0.41285 0.73493 0.90114 0.0
C338 C 0.40174 0.75165 0.91904 0.0
H339 H 0.59796 0.45684 0.11866 0.0
H340 H 0.6528 0.55185 0.07635 0.0
H341 H 0.68238 0.53154 0.04644 0.0
H342 H 0.6674 0.44907 0.1279 0.0
H343 H 0.64561 0.40507 0.12259 0.0
H344 H 0.62281 0.42389 0.13568 0.0
H345 H 0.57956 0.39766 0.09327 0.0
H346 H 0.60215 0.3785 0.08009 0.0
H347 H 0.59453 0.4044 0.05655 0.0
H348 H 0.71231 0.50414 0.02645 0.0
H349 H 0.7407 0.47256 0.01881 0.0
H350 H 0.66949 0.3969 0.07679 0.0
C351 C 0.61571 0.47328 0.10274 0.0
C352 C 0.6228 0.50601 0.09993 0.0
C353 C 0.64618 0.52649 0.07864 0.0
C354 C 0.66335 0.5152 0.0616 0.0
C355 C 0.65692 0.48337 0.06601 0.0
C356 C 0.63353 0.46264 0.08601 0.0
C357 C 0.63437 0.43123 0.08934 0.0
C358 C 0.64308 0.4271 0.12073 0.0
C359 C 0.60064 0.40117 0.0792 0.0
C360 C 0.66286 0.43808 0.06895 0.0
C361 C 0.67501 0.46794 0.05521 0.0
C362 C 0.70267 0.4805 0.03675 0.0
C363 C 0.71869 0.46236 0.03259 0.0
C364 C 0.70735 0.43219 0.04717 0.0
C365 C 0.67862 0.41971 0.06513 0.0
H366 H 0.38857 0.87702 0.45702 0.0
H367 H 0.42963 0.93396 0.53612 0.0
H368 H 0.39685 0.88273 0.56478 0.0
H369 H 0.30502 0.81938 0.48327 0.0
H370 H 0.30213 0.78549 0.46293 0.0
H371 H 0.32727 0.82688 0.44959 0.0
H372 H 0.37971 0.82009 0.44697 0.0
H373 H 0.3548 0.77875 0.46042 0.0
H374 H 0.39343 0.80819 0.47894 0.0
H375 H 0.36079 0.82345 0.58412 0.0
H376 H 0.32432 0.76336 0.59218 0.0
H377 H 0.30942 0.74745 0.49936 0.0
C378 C 0.39079 0.87881 0.48041 0.0
C379 C 0.41195 0.90932 0.49441 0.0
C380 C 0.41353 0.91074 0.52503 0.0
C381 C 0.39513 0.8818 0.54139 0.0
C382 C 0.3752 0.8519 0.5267 0.0
C383 C 0.37289 0.85044 0.49685 0.0
C384 C 0.3506 0.81559 0.48585 0.0
C385 C 0.31941 0.81161 0.46945 0.0
C386 C 0.37085 0.80505 0.46694 0.0
C387 C 0.34075 0.79733 0.51416 0.0
C388 C 0.35499 0.8185 0.53758 0.0
C389 C 0.34946 0.80676 0.56589 0.0
C390 C 0.32878 0.77261 0.57026 0.0
C391 C 0.314 0.75067 0.54641 0.0
C392 C 0.32026 0.76344 0.5181 0.0
H393 H 0.50503 0.37679 0.61918 0.0
H394 H 0.49629 0.4209 0.69842 0.0
H395 H 0.51643 0.38936 0.72655 0.0
H396 H 0.48007 0.29627 0.64785 0.0
H397 H 0.51022 0.29253 0.626 0.0
H398 H 0.49225 0.31626 0.61319 0.0
H399 H 0.55277 0.36693 0.60682 0.0
H400 H 0.57092 0.34346 0.61976 0.0
H401 H 0.58181 0.38177 0.63725 0.0
H402 H 0.54135 0.35488 0.74513 0.0
H403 H 0.56728 0.32066 0.75244 0.0
H404 H 0.56082 0.30198 0.65994 0.0
C405 C 0.50724 0.37982 0.64249 0.0
C406 C 0.49947 0.40153 0.65666 0.0
C407 C 0.50206 0.4043 0.68721 0.0
C408 C 0.51358 0.3866 0.70327 0.0
C409 C 0.5221 0.36619 0.68836 0.0
C410 C 0.51882 0.36268 0.65862 0.0
C411 C 0.53089 0.34057 0.64729 0.0
C412 C 0.50161 0.30957 0.63273 0.0
C413 C 0.56088 0.35931 0.62657 0.0
C414 C 0.542 0.33234 0.67525 0.0
C415 C 0.53658 0.34705 0.69881 0.0
C416 C 0.5455 0.34316 0.72682 0.0
C417 C 0.56025 0.32372 0.73075 0.0
C418 C 0.56614 0.30868 0.70676 0.0
C419 C 0.55675 0.31314 0.67875 0.0
H420 H 0.12046 0.55232 0.84922 0.0
H421 H 0.10333 0.45339 0.84413 0.0
H422 H 0.15985 0.47324 0.86581 0.0
H423 H 0.19974 0.58964 0.82334 0.0
H424 H 0.21753 0.62651 0.84522 0.0
H425 H 0.17282 0.60374 0.83721 0.0
H426 H 0.15921 0.59807 0.89192 0.0
H427 H 0.20402 0.62146 0.9002 0.0
H428 H 0.17775 0.58124 0.91567 0.0
H429 H 0.22179 0.50534 0.87874 0.0
H430 H 0.28287 0.5465 0.88395 0.0
H431 H 0.26077 0.62507 0.87767 0.0
C432 C 0.12813 0.5346 0.85357 0.0
C433 C 0.10731 0.50125 0.84503 0.0
C434 C 0.11839 0.4789 0.85097 0.0
C435 C 0.15066 0.49003 0.8631 0.0
C436 C 0.17146 0.52352 0.86934 0.0
C437 C 0.16043 0.54543 0.86515 0.0
C438 C 0.18903 0.58069 0.86972 0.0
C439 C 0.19513 0.60133 0.84224 0.0
C440 C 0.18209 0.59628 0.89594 0.0
C441 C 0.21825 0.57535 0.87579 0.0
C442 C 0.20751 0.54219 0.87606 0.0
C443 C 0.23037 0.53133 0.87915 0.0
C444 C 0.26506 0.55493 0.88194 0.0
C445 C 0.27665 0.58905 0.88126 0.0
C446 C 0.25275 0.59921 0.87849 0.0
H447 H 0.56451 0.1254 0.02246 0.0
H448 H 0.64619 0.10576 0.03458 0.0
H449 H 0.67726 0.15588 0.06456 0.0
H450 H 0.61535 0.20467 0.00664 0.0
H451 H 0.59103 0.22015 0.02349 0.0
H452 H 0.57024 0.17813 0.01132 0.0
H453 H 0.54679 0.15802 0.06275 0.0
H454 H 0.56733 0.2002 0.07512 0.0
H455 H 0.5756 0.17137 0.09332 0.0
H456 H 0.70489 0.2134 0.08378 0.0
H457 H 0.72676 0.27281 0.08943 0.0
H458 H 0.62912 0.25724 0.06152 0.0
C459 C 0.58847 0.13106 0.03214 0.0
C460 C 0.60277 0.11146 0.02608 0.0
C461 C 0.63421 0.11983 0.03925 0.0
C462 C 0.65221 0.14847 0.05627 0.0
C463 C 0.63843 0.16846 0.06007 0.0
C464 C 0.60705 0.15992 0.04855 0.0
C465 C 0.60038 0.18799 0.05129 0.0
C466 C 0.5939 0.19834 0.02142 0.0
C467 C 0.57077 0.17885 0.07185 0.0
C468 C 0.63373 0.21436 0.06449 0.0
C469 C 0.65493 0.20232 0.07026 0.0
C470 C 0.68824 0.22289 0.07994 0.0
C471 C 0.70048 0.25669 0.08302 0.0
C472 C 0.67966 0.26975 0.07592 0.0
C473 C 0.64555 0.24802 0.06744 0.0
H474 H 0.55828 0.65768 0.18565 0.0
H475 H 0.47074 0.56294 0.20569 0.0
H476 H 0.44964 0.59001 0.23799 0.0
H477 H 0.56391 0.70201 0.25808 0.0
H478 H 0.57492 0.73908 0.23858 0.0
H479 H 0.58873 0.71195 0.22564 0.0
H480 H 0.56066 0.70855 0.17591 0.0
H481 H 0.54605 0.73483 0.1887 0.0
H482 H 0.51604 0.69467 0.17415 0.0
H483 H 0.43115 0.62736 0.25721 0.0
H484 H 0.41765 0.67121 0.26276 0.0
H485 H 0.51646 0.74228 0.22887 0.0
C486 C 0.53594 0.64262 0.19849 0.0
C487 C 0.51666 0.60824 0.1941 0.0
C488 C 0.48633 0.5892 0.20964 0.0
C489 C 0.47413 0.60446 0.22789 0.0
C490 C 0.49257 0.63876 0.23027 0.0
C491 C 0.52319 0.65762 0.21631 0.0
C492 C 0.5349 0.69393 0.21783 0.0
C493 C 0.56755 0.71286 0.23613 0.0
C494 C 0.53965 0.70882 0.18735 0.0
C495 C 0.50511 0.69241 0.23307 0.0
C496 C 0.48136 0.66051 0.24076 0.0
C497 C 0.44999 0.65254 0.25203 0.0
C498 C 0.44246 0.67762 0.25498 0.0
C499 C 0.46605 0.71025 0.24637 0.0
C500 C 0.4981 0.71773 0.2361 0.0
H501 H 0.86712 0.51715 0.30914 0.0
H502 H 0.93051 0.51425 0.37763 0.0
H503 H 0.88097 0.48955 0.41052 0.0
H504 H 0.81444 0.53596 0.35489 0.0
H505 H 0.77691 0.51047 0.33329 0.0
H506 H 0.81808 0.53047 0.31674 0.0
H507 H 0.80635 0.47397 0.29764 0.0
H508 H 0.7653 0.4538 0.31424 0.0
H509 H 0.79508 0.44096 0.32283 0.0
H510 H 0.822 0.45995 0.43402 0.0
H511 H 0.76095 0.43111 0.44635 0.0
H512 H 0.73827 0.45504 0.36167 0.0
C513 C 0.87067 0.51166 0.33119 0.0
C514 C 0.90244 0.51735 0.34091 0.0
C515 C 0.90629 0.51013 0.36991 0.0
C516 C 0.87832 0.49605 0.38862 0.0
C517 C 0.84698 0.48987 0.378 0.0
C518 C 0.84327 0.49787 0.34999 0.0
C519 C 0.80697 0.48773 0.34312 0.0
C520 C 0.80393 0.51796 0.33664 0.0
C521 C 0.79259 0.46263 0.31799 0.0
C522 C 0.79044 0.47206 0.37142 0.0
C523 C 0.81375 0.47353 0.39142 0.0
C524 C 0.80368 0.45908 0.41862 0.0
C525 C 0.76894 0.44269 0.42541 0.0
C526 C 0.74478 0.44091 0.40506 0.0
C527 C 0.75599 0.45613 0.37788 0.0
H528 H 0.11521 0.56473 0.3748 0.0
H529 H 0.06678 0.61939 0.39876 0.0
H530 H 0.08733 0.62368 0.44888 0.0
H531 H 0.10496 0.5225 0.44615 0.0
H532 H 0.1463 0.52711 0.44349 0.0
H533 H 0.12181 0.52216 0.41115 0.0
H534 H 0.17203 0.57618 0.39092 0.0
H535 H 0.19649 0.58154 0.42322 0.0
H536 H 0.18901 0.61368 0.41183 0.0
H537 H 0.12112 0.63087 0.49336 0.0
H538 H 0.16332 0.63773 0.53029 0.0
H539 H 0.19102 0.57924 0.47778 0.0
C540 C 0.10818 0.57686 0.39078 0.0
C541 C 0.08919 0.59155 0.38285 0.0
C542 C 0.08066 0.60734 0.40436 0.0
C543 C 0.0924 0.61007 0.4329 0.0
C544 C 0.11241 0.59667 0.43964 0.0
C545 C 0.1199 0.57999 0.4193 0.0
C546 C 0.1449 0.57103 0.43126 0.0
C547 C 0.1285 0.53346 0.43313 0.0
C548 C 0.17753 0.58654 0.41324 0.0
C549 C 0.15145 0.58657 0.46108 0.0
C550 C 0.13211 0.60086 0.46557 0.0
C551 C 0.13585 0.61918 0.49038 0.0
C552 C 0.16008 0.62313 0.51113 0.0
C553 C 0.1803 0.60886 0.50693 0.0
C554 C 0.1755 0.58993 0.48177 0.0
H555 H 0.57113 0.12034 0.53796 0.0
H556 H 0.46309 0.07251 0.55374 0.0
H557 H 0.47506 0.09213 0.6044 0.0
H558 H 0.59606 0.10708 0.61212 0.0
H559 H 0.63461 0.14683 0.61207 0.0
H560 H 0.61745 0.12453 0.57855 0.0
H561 H 0.61701 0.17483 0.55712 0.0
H562 H 0.63374 0.19713 0.59058 0.0
H563 H 0.59461 0.19133 0.57572 0.0
H564 H 0.49847 0.12471 0.64998 0.0
H565 H 0.53192 0.16385 0.68927 0.0
H566 H 0.62498 0.18913 0.64497 0.0
C567 C 0.55003 0.11327 0.55235 0.0
C568 C 0.51619 0.09473 0.54203 0.0
C569 C 0.48918 0.08618 0.56134 0.0
C570 C 0.49574 0.09736 0.59011 0.0
C571 C 0.52942 0.11664 0.5993 0.0
C572 C 0.55615 0.12404 0.58117 0.0
C573 C 0.58996 0.14721 0.59575 0.0
C574 C 0.61074 0.1304 0.59987 0.0
C575 C 0.60999 0.17953 0.57878 0.0
C576 C 0.57803 0.15277 0.62447 0.0
C577 C 0.54301 0.13479 0.62611 0.0
C578 C 0.52591 0.13827 0.64929 0.0
C579 C 0.54509 0.16069 0.67138 0.0
C580 C 0.58096 0.17913 0.67023 0.0
C581 C 0.5976 0.17475 0.64666 0.0
H582 H 0.40037 0.4853 0.71946 0.0
H583 H 0.49047 0.57355 0.69048 0.0
H584 H 0.49462 0.60071 0.7374 0.0
H585 H 0.36366 0.52384 0.74788 0.0
H586 H 0.34413 0.49745 0.77855 0.0
H587 H 0.35327 0.48157 0.74682 0.0
H588 H 0.38901 0.46428 0.77737 0.0
H589 H 0.37939 0.47947 0.80949 0.0
H590 H 0.42292 0.49426 0.80025 0.0
H591 H 0.48257 0.62144 0.78257 0.0
H592 H 0.45636 0.63395 0.82311 0.0
H593 H 0.37252 0.5326 0.82206 0.0
C594 C 0.422 0.50965 0.72379 0.0
C595 C 0.44574 0.52714 0.70197 0.0
C596 C 0.47269 0.55963 0.70742 0.0
C597 C 0.47512 0.57519 0.73393 0.0
C598 C 0.45029 0.55787 0.7546 0.0
C599 C 0.42441 0.52563 0.74996 0.0
C600 C 0.39808 0.51424 0.77353 0.0
C601 C 0.36273 0.50368 0.76093 0.0
C602 C 0.39732 0.48642 0.79122 0.0
C603 C 0.41226 0.54554 0.79131 0.0
C604 C 0.44272 0.57021 0.7804 0.0
C605 C 0.45912 0.60212 0.7917 0.0
C606 C 0.44391 0.60903 0.81462 0.0
C607 C 0.41241 0.58423 0.82581 0.0
C608 C 0.39678 0.552 0.81422 0.0
H609 H 0.92059 0.44789 0.88205 0.0
H610 H 0.89804 0.34723 0.87832 0.0
H611 H 0.86721 0.33543 0.92456 0.0
H612 H 0.93006 0.45696 0.96344 0.0
H613 H 0.9107 0.48176 0.9643 0.0
H614 H 0.93509 0.48327 0.93338 0.0
H615 H 0.88352 0.46853 0.90002 0.0
H616 H 0.8587 0.46621 0.93079 0.0
H617 H 0.84348 0.43141 0.90659 0.0
H618 H 0.83111 0.3323 0.96582 0.0
H619 H 0.79849 0.3398 0.0041 0.0
H620 H 0.84689 0.44351 0.98305 0.0
C621 C 0.91038 0.42385 0.89177 0.0
C622 C 0.91216 0.39857 0.87731 0.0
C623 C 0.8975 0.36696 0.88972 0.0
C624 C 0.87981 0.36006 0.91577 0.0
C625 C 0.87743 0.3852 0.92913 0.0
C626 C 0.89298 0.4167 0.91797 0.0
C627 C 0.88482 0.43866 0.93569 0.0
C628 C 0.91709 0.46683 0.95007 0.0
C629 C 0.86654 0.45197 0.91716 0.0
C630 C 0.86129 0.41429 0.9579 0.0
C631 C 0.8573 0.38358 0.95364 0.0
C632 C 0.83463 0.35639 0.96983 0.0
C633 C 0.81598 0.36082 0.99131 0.0
C634 C 0.8204 0.39226 -0.00342 0.0
C635 C 0.84344 0.41932 0.9797 0.0
H636 H 0.46104 0.90714 0.04702 0.0
H637 H 0.56755 0.9413 0.06096 0.0
H638 H 0.55383 0.91172 0.10757 0.0
H639 H 0.43987 0.90914 0.12481 0.0
H640 H 0.3987 0.87246 0.12034 0.0
H641 H 0.41783 0.90027 0.09048 0.0
H642 H 0.41105 0.85188 0.05896 0.0
H643 H 0.39261 0.82406 0.08882 0.0
H644 H 0.42956 0.8284 0.07127 0.0
H645 H 0.52738 0.87137 0.14815 0.0
H646 H 0.49105 0.82918 0.18368 0.0
H647 H 0.40182 0.82272 0.14406 0.0
C648 C 0.48154 0.90921 0.0604 0.0
C649 C 0.51535 0.92662 0.05066 0.0
C650 C 0.54158 0.92852 0.06838 0.0
C651 C 0.53397 0.9116 0.09472 0.0
C652 C 0.50011 0.89339 0.10309 0.0
C653 C 0.4744 0.89271 0.08678 0.0
C654 C 0.43994 0.86982 0.0997 0.0
C655 C 0.4231 0.88908 0.10942 0.0
C656 C 0.41696 0.84189 0.07842 0.0
C657 C 0.45016 0.85691 0.12536 0.0
C658 C 0.48496 0.87074 0.1269 0.0
C659 C 0.50017 0.86088 0.14753 0.0
C660 C 0.47931 0.8367 0.16743 0.0
C661 C 0.44368 0.82286 0.16667 0.0
C662 C 0.42903 0.83318 0.14535 0.0
H663 H 0.57956 0.46541 0.19632 0.0
H664 H 0.62419 0.56892 0.2186 0.0
H665 H 0.63323 0.5572 0.26858 0.0
H666 H 0.53993 0.4311 0.26687 0.0
H667 H 0.55039 0.39929 0.26542 0.0
H668 H 0.54264 0.41473 0.23241 0.0
H669 H 0.60139 0.42855 0.21342 0.0
H670 H 0.60943 0.41341 0.24639 0.0
H671 H 0.63893 0.45478 0.23474 0.0
H672 H 0.64307 0.53604 0.31428 0.0
H673 H 0.65225 0.50649 0.35359 0.0
H674 H 0.60368 0.41677 0.30175 0.0
C675 C 0.59085 0.48558 0.21177 0.0
C676 C 0.60082 0.51807 0.20344 0.0
C677 C 0.61549 0.54369 0.22444 0.0
C678 C 0.621 0.53733 0.25292 0.0
C679 C 0.61178 0.50526 0.2601 0.0
C680 C 0.59689 0.47974 0.24023 0.0
C681 C 0.59187 0.44807 0.25298 0.0
C682 C 0.55395 0.42174 0.25451 0.0
C683 C 0.61159 0.43548 0.23586 0.0
C684 C 0.60708 0.46003 0.28292 0.0
C685 C 0.61805 0.49302 0.28658 0.0
C686 C 0.63427 0.51011 0.31183 0.0
C687 C 0.63949 0.49308 0.33399 0.0
C688 C 0.62867 0.45928 0.33078 0.0
C689 C 0.61203 0.44253 0.30492 0.0
H690 H 0.49779 0.9277 0.42145 0.0
H691 H 0.44721 0.97171 0.37731 0.0
H692 H 0.44587 0.94329 0.33233 0.0
H693 H 0.54433 0.92096 0.35589 0.0
H694 H 0.5365 0.8815 0.36799 0.0
H695 H 0.54268 0.91255 0.39407 0.0
H696 H 0.48523 0.87102 0.41729 0.0
H697 H 0.47833 0.84014 0.39099 0.0
H698 H 0.44718 0.85212 0.39523 0.0
H699 H 0.43694 0.90065 0.29659 0.0
H700 H 0.42668 0.85093 0.27048 0.0
H701 H 0.48165 0.83261 0.33745 0.0
C702 C 0.48769 0.93239 0.40199 0.0
C703 C 0.47272 0.95205 0.40295 0.0
C704 C 0.45947 0.95737 0.37711 0.0
C705 C 0.45834 0.94106 0.35142 0.0
C706 C 0.47087 0.9198 0.35185 0.0
C707 C 0.48597 0.91592 0.3763 0.0
C708 C 0.49305 0.88821 0.37232 0.0
C709 C 0.53143 0.90161 0.37257 0.0
C710 C 0.47485 0.8613 0.39531 0.0
C711 C 0.4778 0.87589 0.34248 0.0
C712 C 0.4656 0.89479 0.33092 0.0
C713 C 0.44721 0.88623 0.30503 0.0
C714 C 0.4412 0.85772 0.29052 0.0
C715 C 0.45352 0.83801 0.30191 0.0
C716 C 0.47246 0.84754 0.32802 0.0
H717 H 0.56703 0.48231 0.58215 0.0
H718 H 0.46809 0.43859 0.54041 0.0
H719 H 0.49343 0.43733 0.49409 0.0
H720 H 0.62036 0.52822 0.51666 0.0
H721 H 0.65199 0.51825 0.52677 0.0
H722 H 0.62832 0.52453 0.55434 0.0
H723 H 0.61006 0.46714 0.57529 0.0
H724 H 0.63286 0.46022 0.54753 0.0
H725 H 0.58822 0.43126 0.55221 0.0
H726 H 0.52571 0.42868 0.45603 0.0
H727 H 0.56394 0.41794 0.42736 0.0
H728 H 0.64217 0.46546 0.49371 0.0
C729 C 0.55095 0.47364 0.56299 0.0
C730 C 0.51557 0.46063 0.56493 0.0
C731 C 0.49532 0.44928 0.53945 0.0
C732 C 0.50949 0.44824 0.51302 0.0
C733 C 0.54397 0.45891 0.51238 0.0
C734 C 0.56463 0.472 0.53658 0.0
C735 C 0.59967 0.47742 0.53128 0.0
C736 C 0.62668 0.51431 0.53232 0.0
C737 C 0.60817 0.45783 0.55285 0.0
C738 C 0.59493 0.46371 0.50085 0.0
C739 C 0.56278 0.45365 0.49022 0.0
C740 C 0.55123 0.43722 0.4638 0.0
C741 C 0.57305 0.43095 0.44781 0.0
C742 C 0.6061 0.44098 0.45828 0.0
C743 C 0.61727 0.45799 0.48497 0.0
H744 H 0.06384 0.48423 0.72465 0.0
H745 H 0.07837 0.56732 0.7758 0.0
H746 H 0.11099 0.60496 0.73606 0.0
H747 H 0.14301 0.51934 0.70079 0.0
H748 H 0.13386 0.50222 0.66468 0.0
H749 H 0.10443 0.4808 0.69325 0.0
H750 H 0.05606 0.48083 0.66409 0.0
H751 H 0.08512 0.5015 0.63491 0.0
H752 H 0.06207 0.51909 0.65042 0.0
H753 H 0.15153 0.63394 0.69588 0.0
H754 H 0.19244 0.65184 0.65582 0.0
H755 H 0.15151 0.54971 0.63085 0.0
C756 C 0.07224 0.51012 0.72674 0.0
C757 C 0.06819 0.52292 0.75296 0.0
C758 C 0.08086 0.55712 0.75561 0.0
C759 C 0.09947 0.57863 0.73321 0.0
C760 C 0.10489 0.56546 0.70826 0.0
C761 C 0.09104 0.53189 0.70463 0.0
C762 C 0.10407 0.52436 0.67748 0.0
C763 C 0.12243 0.50559 0.6845 0.0
C764 C 0.0751 0.50532 0.65541 0.0
C765 C 0.12864 0.55891 0.66721 0.0
C766 C 0.12848 0.58229 0.68503 0.0
C767 C 0.15128 0.61587 0.68134 0.0
C768 C 0.17462 0.62579 0.6587 0.0
C769 C 0.17504 0.60218 0.64014 0.0
C770 C 0.15153 0.56838 0.64443 0.0
H771 H 0.5987 0.08351 0.90025 0.0
H772 H 0.52148 0.09355 0.94405 0.0
H773 H 0.51826 0.12469 0.90249 0.0
H774 H 0.64308 0.16199 0.87471 0.0
H775 H 0.65424 0.15246 0.84027 0.0
H776 H 0.64618 0.12576 0.8706 0.0
H777 H 0.5999 0.07594 0.84116 0.0
H778 H 0.60827 0.10237 0.81044 0.0
H779 H 0.56581 0.07848 0.82427 0.0
H780 H 0.52951 0.16134 0.8599 0.0
H781 H 0.55166 0.19794 0.81758 0.0
H782 H 0.62188 0.16422 0.8016 0.0
C783 C 0.58008 0.09104 0.90047 0.0
C784 C 0.55996 0.0858 0.92505 0.0
C785 C 0.53682 0.0971 0.92519 0.0
C786 C 0.53486 0.1148 0.90174 0.0
C787 C 0.55613 0.12083 0.87831 0.0
C788 C 0.57798 0.1089 0.8773 0.0
C789 C 0.60039 0.12145 0.85093 0.0
C790 C 0.63819 0.14161 0.85967 0.0
C791 C 0.59314 0.09285 0.83049 0.0
C792 C 0.58853 0.14312 0.83782 0.0
C793 C 0.56279 0.14221 0.85378 0.0
C794 C 0.54924 0.16181 0.84692 0.0
C795 C 0.56215 0.18268 0.82296 0.0
C796 C 0.58842 0.18387 0.80622 0.0
C797 C 0.60158 0.16367 0.81379 0.0
H798 H 0.49123 0.55539 0.06169 0.0
H799 H 0.48867 0.63055 0.11386 0.0
H800 H 0.46089 0.64198 0.074 0.0
H801 H 0.51154 0.60061 -0.00454 0.0
H802 H 0.48586 0.56509 0.97277 0.0
H803 H 0.50365 0.56069 0.00614 0.0
H804 H 0.4436 0.51642 0.02308 0.0
H805 H 0.42562 0.52068 0.98973 0.0
H806 H 0.41042 0.52604 0.02392 0.0
H807 H 0.43543 0.64725 0.02898 0.0
H808 H 0.41412 0.6466 0.97982 0.0
H809 H 0.43394 0.56951 0.95503 0.0
C810 C 0.48458 0.57405 0.06474 0.0
C811 C 0.49132 0.59134 0.0913 0.0
C812 C 0.48267 0.61599 0.09422 0.0
C813 C 0.46712 0.62296 0.07158 0.0
C814 C 0.46061 0.6054 0.04588 0.0
C815 C 0.46907 0.58154 0.04215 0.0
C816 C 0.46026 0.56738 0.01168 0.0
C817 C 0.49224 0.57384 -0.00444 0.0
C818 C 0.43337 0.53044 0.01214 0.0
C819 C 0.44587 0.58729 -0.00098 0.0
C820 C 0.44623 0.60892 0.01928 0.0
C821 C 0.43486 0.63035 0.01286 0.0
C822 C 0.42283 0.62981 0.98485 0.0
C823 C 0.42233 0.60801 0.96355 0.0
C824 C 0.43389 0.58638 0.97085 0.0
H825 H 0.91186 0.4589 0.25666 0.0
H826 H 0.95826 0.55644 0.21926 0.0
H827 H 0.93087 0.53185 0.17233 0.0
H828 H 0.91204 0.41395 0.18933 0.0
H829 H 0.87119 0.37878 0.19784 0.0
H830 H 0.89998 0.40347 0.22656 0.0
H831 H 0.85325 0.4121 0.2481 0.0
H832 H 0.82451 0.38796 0.21931 0.0
H833 H 0.834 0.42943 0.2258 0.0
H834 H 0.89071 0.49807 0.13268 0.0
H835 H 0.84387 0.45697 0.10177 0.0
H836 H 0.82294 0.38113 0.16482 0.0
C837 C 0.91703 0.475 0.23835 0.0
C838 C 0.93736 0.50958 0.24158 0.0
C839 C 0.94336 0.52988 0.21719 0.0
C840 C 0.92772 0.51612 0.19046 0.0
C841 C 0.90646 0.48205 0.18843 0.0
C842 C 0.90152 0.46168 0.21159 0.0
C843 C 0.87483 0.42625 0.20465 0.0
C844 C 0.89045 0.40432 0.20458 0.0
C845 C 0.84489 0.4132 0.22571 0.0
C846 C 0.86444 0.4301 0.17443 0.0
C847 C 0.88325 0.46242 0.16536 0.0
C848 C 0.87633 0.47256 0.13925 0.0
C849 C 0.8495 0.44908 0.12196 0.0
C850 C 0.8299 0.41583 0.13084 0.0
C851 C 0.83783 0.40625 0.15726 0.0
loop_
_geom_bond_atom_site_label_1
_geom_bond_atom_site_label_2
_geom_bond_distance
_geom_bond_site_symmetry_2
_ccdc_geom_bond_type
H0 C8 0.930 . S
H1 C11 0.930 . S
H2 C13 0.930 . S
H3 C14 0.970 1_655 S
H4 C14 0.970 . S
H5 C16 0.930 . S
H6 C18 0.930 . S
H7 C20 0.930 . S
C8 H0 0.930 . S
C8 C9 1.382 . S
C8 C10 1.426 . S
C9 C8 1.382 . S
C9 C13 1.389 . S
C10 C8 1.426 . S
C10 C11 1.375 . S
C10 C14 1.532 1_655 S
C11 H1 0.930 . S
C11 C10 1.375 . S
C11 C12 1.416 . S
C12 C11 1.416 . S
C12 C13 1.371 . S
C13 H2 0.930 . S
C13 C9 1.389 . S
C13 C12 1.371 . S
C14 H3 0.970 1_455 S
C14 H4 0.970 . S
C14 C10 1.532 1_455 S
C14 C15 1.499 . S
C15 C14 1.499 . S
C15 C16 1.370 . S
C15 C20 1.415 . S
C16 H5 0.930 . S
C16 C15 1.370 . S
C16 C17 1.407 . S
C17 C16 1.407 . S
C17 C18 1.365 . S
C18 H6 0.930 . S
C18 C17 1.365 . S
C18 C19 1.393 . S
C19 C18 1.393 . S
C19 C20 1.387 . S
C20 H7 0.930 . S
C20 C15 1.415 . S
C20 C19 1.387 . S
H21 C29 0.930 . S
H22 C32 0.930 . S
H23 C34 0.930 . S
H24 C35 0.970 . S
H25 C35 0.970 . S
H26 C37 0.930 . S
H27 C39 0.930 . S
H28 C41 0.930 . S
C29 H21 0.930 . S
C29 C30 1.382 . S
C29 C31 1.426 . S
C30 C29 1.382 . S
C30 C34 1.389 . S
C31 C29 1.426 . S
C31 C32 1.375 . S
C31 C35 1.532 1_565 S
C32 H22 0.930 . S
C32 C31 1.375 . S
C32 C33 1.416 . S
C33 C32 1.416 . S
C33 C34 1.371 . S
C34 H23 0.930 . S
C34 C30 1.389 . S
C34 C33 1.371 . S
C35 H24 0.970 . S
C35 H25 0.970 . S
C35 C31 1.532 1_545 S
C35 C36 1.499 . S
C36 C35 1.499 . S
C36 C37 1.370 . S
C36 C41 1.415 . S
C37 H26 0.930 . S
C37 C36 1.370 . S
C37 C38 1.407 . S
C38 C37 1.407 . S
C38 C39 1.365 . S
C39 H27 0.930 . S
C39 C38 1.365 . S
C39 C40 1.393 . S
C40 C39 1.393 . S
C40 C41 1.387 . S
C41 H28 0.930 . S
C41 C36 1.415 . S
C41 C40 1.387 . S
H42 C50 0.930 . S
H43 C53 0.930 . S
H44 C55 0.930 . S
H45 C56 0.970 . S
H46 C56 0.970 . S
H47 C58 0.930 . S
H48 C60 0.930 . S
H49 C62 0.930 . S
C50 H42 0.930 . S
C50 C51 1.382 . S
C50 C52 1.426 . S
C51 C50 1.382 . S
C51 C55 1.389 . S
C52 C50 1.426 . S
C52 C53 1.375 . S
C52 C56 1.532 . S
C53 H43 0.930 . S
C53 C52 1.375 . S
C53 C54 1.416 . S
C54 C53 1.416 . S
C54 C55 1.371 . S
C55 H44 0.930 . S
C55 C51 1.389 . S
C55 C54 1.371 . S
C56 H45 0.970 . S
C56 H46 0.970 . S
C56 C52 1.532 . S
C56 C57 1.499 . S
C57 C56 1.499 . S
C57 C58 1.370 . S
C57 C62 1.415 . S
C58 H47 0.930 . S
C58 C57 1.370 . S
C58 C59 1.407 . S
C59 C58 1.407 . S
C59 C60 1.365 . S
C60 H48 0.930 . S
C60 C59 1.365 . S
C60 C61 1.393 . S
C61 C60 1.393 . S
C61 C62 1.387 . S
C62 H49 0.930 . S
C62 C57 1.415 . S
C62 C61 1.387 . S
H63 C71 0.930 . S
H64 C74 0.930 . S
H65 C76 0.930 . S
H66 C77 0.970 1_655 S
H67 C77 0.970 . S
H68 C79 0.930 . S
H69 C81 0.930 . S
H70 C83 0.930 . S
C71 H63 0.930 . S
C71 C72 1.382 . S
C71 C73 1.426 . S
C72 C71 1.382 . S
C72 C76 1.389 . S
C73 C71 1.426 . S
C73 C74 1.375 . S
C73 C77 1.532 1_655 S
C74 H64 0.930 . S
C74 C73 1.375 . S
C74 C75 1.416 . S
C75 C74 1.416 . S
C75 C76 1.371 . S
C76 H65 0.930 . S
C76 C72 1.389 . S
C76 C75 1.371 . S
C77 H66 0.970 1_455 S
C77 H67 0.970 . S
C77 C73 1.532 1_455 S
C77 C78 1.499 . S
C78 C77 1.499 . S
C78 C79 1.370 . S
C78 C83 1.415 . S
C79 H68 0.930 . S
C79 C78 1.370 . S
C79 C80 1.407 . S
C80 C79 1.407 . S
C80 C81 1.365 . S
C81 H69 0.930 . S
C81 C80 1.365 . S
C81 C82 1.393 . S
C82 C81 1.393 . S
C82 C83 1.387 . S
C83 H70 0.930 . S
C83 C78 1.415 . S
C83 C82 1.387 . S
H84 C92 0.930 . S
H85 C95 0.930 . S
H86 C97 0.930 . S
H87 C98 0.970 1_554 S
H88 C98 0.970 . S
H89 C100 0.930 . S
H90 C102 0.930 . S
H91 C104 0.930 . S
C92 H84 0.930 . S
C92 C93 1.382 1_554 S
C92 C94 1.426 1_554 S
C93 C92 1.382 1_556 S
C93 C97 1.389 . S
C94 C92 1.426 1_556 S
C94 C95 1.375 . S
C94 C98 1.532 . S
C95 H85 0.930 . S
C95 C94 1.375 . S
C95 C96 1.416 . S
C96 C95 1.416 . S
C96 C97 1.371 . S
C97 H86 0.930 . S
C97 C93 1.389 . S
C97 C96 1.371 . S
C98 H87 0.970 1_556 S
C98 H88 0.970 . S
C98 C94 1.532 . S
C98 C99 1.499 1_545 S
C99 C98 1.499 1_565 S
C99 C100 1.370 1_556 S
C99 C104 1.415 . S
C100 H89 0.930 . S
C100 C99 1.370 1_554 S
C100 C101 1.407 . S
C101 C100 1.407 . S
C101 C102 1.365 . S
C102 H90 0.930 . S
C102 C101 1.365 . S
C102 C103 1.393 1_554 S
C103 C102 1.393 1_556 S
C103 C104 1.387 . S
C104 H91 0.930 . S
C104 C99 1.415 . S
C104 C103 1.387 . S
H105 C113 0.930 . S
H106 C116 0.930 . S
H107 C118 0.930 . S
H108 C119 0.970 . S
H109 C119 0.970 . S
H110 C121 0.930 . S
H111 C123 0.930 . S
H112 C125 0.930 . S
C113 H105 0.930 . S
C113 C114 1.382 . S
C113 C115 1.426 . S
C114 C113 1.382 . S
C114 C118 1.389 . S
C115 C113 1.426 . S
C115 C116 1.375 . S
C115 C119 1.532 . S
C116 H106 0.930 . S
C116 C115 1.375 . S
C116 C117 1.416 . S
C117 C116 1.416 . S
C117 C118 1.371 . S
C118 H107 0.930 . S
C118 C114 1.389 . S
C118 C117 1.371 . S
C119 H108 0.970 . S
C119 H109 0.970 . S
C119 C115 1.532 . S
C119 C120 1.499 . S
C120 C119 1.499 . S
C120 C121 1.370 . S
C120 C125 1.415 . S
C121 H110 0.930 . S
C121 C120 1.370 . S
C121 C122 1.407 . S
C122 C121 1.407 . S
C122 C123 1.365 . S
C123 H111 0.930 . S
C123 C122 1.365 . S
C123 C124 1.393 . S
C124 C123 1.393 . S
C124 C125 1.387 . S
C125 H112 0.930 . S
C125 C120 1.415 . S
C125 C124 1.387 . S
C126 O127 1.160 . S
C126 O133 1.185 . S
O127 C126 1.160 . S
O128 Zn129 1.899 . S
O128 C136 1.284 . S
Zn129 O128 1.899 . S
Zn129 O130 2.032 . S
Zn129 O133 2.086 . S
Zn129 O138 1.977 . S
O130 Zn129 2.032 . S
O130 C134 1.278 . S
C131 O132 1.203 . S
C131 O138 1.267 . S
O132 C131 1.203 . S
O133 C126 1.185 . S
O133 Zn129 2.086 . S
C134 O130 1.278 . S
C134 O135 1.211 . S
O135 C134 1.211 . S
C136 O128 1.284 . S
C136 O137 1.273 . S
O137 C136 1.273 . S
O138 Zn129 1.977 . S
O138 C131 1.267 . S
C139 O140 1.160 . S
C139 O146 1.185 . S
O140 C139 1.160 . S
O141 Zn142 1.899 . S
O141 C149 1.284 . S
Zn142 O141 1.899 . S
Zn142 O143 2.032 . S
Zn142 O146 2.086 . S
Zn142 O151 1.977 . S
O143 Zn142 2.032 . S
O143 C147 1.278 . S
C144 O145 1.203 . S
C144 O151 1.267 . S
O145 C144 1.203 . S
O146 C139 1.185 . S
O146 Zn142 2.086 . S
C147 O143 1.278 . S
C147 O148 1.211 . S
O148 C147 1.211 . S
C149 O141 1.284 . S
C149 O150 1.273 . S
O150 C149 1.273 . S
O151 Zn142 1.977 . S
O151 C144 1.267 . S
C152 O153 1.160 . S
C152 O159 1.185 . S
O153 C152 1.160 . S
O154 Zn155 1.899 . S
O154 C162 1.284 . S
Zn155 O154 1.899 . S
Zn155 O156 2.032 . S
Zn155 O159 2.086 . S
Zn155 O164 1.977 . S
O156 Zn155 2.032 . S
O156 C160 1.278 . S
C157 O158 1.203 . S
C157 O164 1.267 . S
O158 C157 1.203 . S
O159 C152 1.185 . S
O159 Zn155 2.086 . S
C160 O156 1.278 . S
C160 O161 1.211 . S
O161 C160 1.211 . S
C162 O154 1.284 . S
C162 O163 1.273 . S
O163 C162 1.273 . S
O164 Zn155 1.977 . S
O164 C157 1.267 . S
C165 O166 1.160 . S
C165 O172 1.185 . S
O166 C165 1.160 . S
O167 Zn168 1.899 . S
O167 C175 1.284 . S
Zn168 O167 1.899 . S
Zn168 O169 2.032 . S
Zn168 O172 2.086 . S
Zn168 O177 1.977 . S
O169 Zn168 2.032 . S
O169 C173 1.278 . S
C170 O171 1.203 . S
C170 O177 1.267 . S
O171 C170 1.203 . S
O172 C165 1.185 . S
O172 Zn168 2.086 . S
C173 O169 1.278 . S
C173 O174 1.211 . S
O174 C173 1.211 . S
C175 O167 1.284 . S
C175 O176 1.273 . S
O176 C175 1.273 . S
O177 Zn168 1.977 . S
O177 C170 1.267 . S
C178 O179 1.160 . S
C178 O185 1.185 . S
O179 C178 1.160 . S
O180 Zn181 1.899 . S
O180 C188 1.284 . S
Zn181 O180 1.899 . S
Zn181 O182 2.032 . S
Zn181 O185 2.086 . S
Zn181 O190 1.977 . S
O182 Zn181 2.032 . S
O182 C186 1.278 . S
C183 O184 1.203 . S
C183 O190 1.267 . S
O184 C183 1.203 . S
O185 C178 1.185 . S
O185 Zn181 2.086 . S
C186 O182 1.278 . S
C186 O187 1.211 . S
O187 C186 1.211 . S
C188 O180 1.284 . S
C188 O189 1.273 . S
O189 C188 1.273 . S
O190 Zn181 1.977 . S
O190 C183 1.267 . S
C191 O192 1.160 . S
C191 O198 1.185 . S
O192 C191 1.160 . S
O193 Zn194 1.899 . S
O193 C201 1.284 . S
Zn194 O193 1.899 . S
Zn194 O195 2.032 . S
Zn194 O198 2.086 . S
Zn194 O203 1.977 . S
O195 Zn194 2.032 . S
O195 C199 1.278 . S
C196 O197 1.203 . S
C196 O203 1.267 . S
O197 C196 1.203 . S
O198 C191 1.185 . S
O198 Zn194 2.086 . S
C199 O195 1.278 . S
C199 O200 1.211 . S
O200 C199 1.211 . S
C201 O193 1.284 . S
C201 O202 1.273 . S
O202 C201 1.273 . S
O203 Zn194 1.977 . S
O203 C196 1.267 . S
H204 C216 0.930 . S
H205 C218 0.930 . S
H206 C219 0.930 . S
H207 C223 0.959 . S
H208 C223 0.959 . S
H209 C223 0.961 . S
H210 C224 0.960 . S
H211 C224 0.961 . S
H212 C224 0.959 . S
H213 C227 0.929 . S
H214 C228 0.931 . S
H215 C230 0.930 . S
C216 H204 0.930 . S
C216 C217 1.399 . S
C216 C221 1.399 . S
C217 C216 1.399 . S
C217 C218 1.376 . S
C218 H205 0.930 . S
C218 C217 1.376 . S
C218 C219 1.388 . S
C219 H206 0.930 . S
C219 C218 1.388 . S
C219 C220 1.390 . S
C220 C219 1.390 . S
C220 C221 1.394 . S
C220 C226 1.465 . S
C221 C216 1.399 . S
C221 C220 1.394 . S
C221 C222 1.516 . S
C222 C221 1.516 . S
C222 C223 1.502 . S
C222 C224 1.561 . S
C222 C225 1.526 . S
C223 H207 0.959 . S
C223 H208 0.959 . S
C223 H209 0.961 . S
C223 C222 1.502 . S
C224 H210 0.960 . S
C224 H211 0.961 . S
C224 H212 0.959 . S
C224 C222 1.561 . S
C225 C222 1.526 . S
C225 C226 1.396 . S
C225 C230 1.390 . S
C226 C220 1.465 . S
C226 C225 1.396 . S
C226 C227 1.399 . S
C227 H213 0.929 . S
C227 C226 1.399 . S
C227 C228 1.385 . S
C228 H214 0.931 . S
C228 C227 1.385 . S
C228 C229 1.389 . S
C229 C228 1.389 . S
C229 C230 1.387 . S
C230 H215 0.930 . S
C230 C225 1.390 . S
C230 C229 1.387 . S
H231 C243 0.930 . S
H232 C245 0.930 . S
H233 C246 0.930 . S
H234 C250 0.959 . S
H235 C250 0.959 . S
H236 C250 0.961 . S
H237 C251 0.960 . S
H238 C251 0.961 . S
H239 C251 0.959 . S
H240 C254 0.929 . S
H241 C255 0.931 . S
H242 C257 0.930 . S
C243 H231 0.930 . S
C243 C244 1.399 . S
C243 C248 1.399 . S
C244 C243 1.399 . S
C244 C245 1.376 . S
C245 H232 0.930 . S
C245 C244 1.376 . S
C245 C246 1.388 . S
C246 H233 0.930 . S
C246 C245 1.388 . S
C246 C247 1.390 . S
C247 C246 1.390 . S
C247 C248 1.394 . S
C247 C253 1.465 . S
C248 C243 1.399 . S
C248 C247 1.394 . S
C248 C249 1.516 . S
C249 C248 1.516 . S
C249 C250 1.502 . S
C249 C251 1.561 . S
C249 C252 1.526 . S
C250 H234 0.959 . S
C250 H235 0.959 . S
C250 H236 0.961 . S
C250 C249 1.502 . S
C251 H237 0.960 . S
C251 H238 0.961 . S
C251 H239 0.959 . S
C251 C249 1.561 . S
C252 C249 1.526 . S
C252 C253 1.396 . S
C252 C257 1.390 . S
C253 C247 1.465 . S
C253 C252 1.396 . S
C253 C254 1.399 . S
C254 H240 0.929 . S
C254 C253 1.399 . S
C254 C255 1.385 . S
C255 H241 0.931 . S
C255 C254 1.385 . S
C255 C256 1.389 . S
C256 C255 1.389 . S
C256 C257 1.387 . S
C257 H242 0.930 . S
C257 C252 1.390 . S
C257 C256 1.387 . S
H258 C270 0.930 . S
H259 C272 0.930 . S
H260 C273 0.930 . S
H261 C277 0.959 . S
H262 C277 0.959 . S
H263 C277 0.961 . S
H264 C278 0.960 . S
H265 C278 0.961 . S
H266 C278 0.959 . S
H267 C281 0.929 . S
H268 C282 0.931 . S
H269 C284 0.930 . S
C270 H258 0.930 . S
C270 C271 1.399 . S
C270 C275 1.399 . S
C271 C270 1.399 . S
C271 C272 1.376 . S
C272 H259 0.930 . S
C272 C271 1.376 . S
C272 C273 1.388 . S
C273 H260 0.930 . S
C273 C272 1.388 . S
C273 C274 1.390 . S
C274 C273 1.390 . S
C274 C275 1.394 . S
C274 C280 1.465 . S
C275 C270 1.399 . S
C275 C274 1.394 . S
C275 C276 1.516 . S
C276 C275 1.516 . S
C276 C277 1.502 . S
C276 C278 1.561 . S
C276 C279 1.526 . S
C277 H261 0.959 . S
C277 H262 0.959 . S
C277 H263 0.961 . S
C277 C276 1.502 . S
C278 H264 0.960 . S
C278 H265 0.961 . S
C278 H266 0.959 . S
C278 C276 1.561 . S
C279 C276 1.526 . S
C279 C280 1.396 . S
C279 C284 1.390 . S
C280 C274 1.465 . S
C280 C279 1.396 . S
C280 C281 1.399 . S
C281 H267 0.929 . S
C281 C280 1.399 . S
C281 C282 1.385 . S
C282 H268 0.931 . S
C282 C281 1.385 . S
C282 C283 1.389 . S
C283 C282 1.389 . S
C283 C284 1.387 . S
C284 H269 0.930 . S
C284 C279 1.390 . S
C284 C283 1.387 . S
H285 C297 0.930 . S
H286 C299 0.930 . S
H287 C300 0.930 . S
H288 C304 0.959 . S
H289 C304 0.959 . S
H290 C304 0.961 . S
H291 C305 0.960 . S
H292 C305 0.961 . S
H293 C305 0.959 . S
H294 C308 0.929 . S
H295 C309 0.931 . S
H296 C311 0.930 . S
C297 H285 0.930 . S
C297 C298 1.399 . S
C297 C302 1.399 . S
C298 C297 1.399 . S
C298 C299 1.376 . S
C299 H286 0.930 . S
C299 C298 1.376 . S
C299 C300 1.388 . S
C300 H287 0.930 . S
C300 C299 1.388 . S
C300 C301 1.390 . S
C301 C300 1.390 . S
C301 C302 1.394 . S
C301 C307 1.465 . S
C302 C297 1.399 . S
C302 C301 1.394 . S
C302 C303 1.516 . S
C303 C302 1.516 . S
C303 C304 1.502 . S
C303 C305 1.561 . S
C303 C306 1.526 . S
C304 H288 0.959 . S
C304 H289 0.959 . S
C304 H290 0.961 . S
C304 C303 1.502 . S
C305 H291 0.960 . S
C305 H292 0.961 . S
C305 H293 0.959 . S
C305 C303 1.561 . S
C306 C303 1.526 . S
C306 C307 1.396 . S
C306 C311 1.390 . S
C307 C301 1.465 . S
C307 C306 1.396 . S
C307 C308 1.399 . S
C308 H294 0.929 . S
C308 C307 1.399 . S
C308 C309 1.385 . S
C309 H295 0.931 . S
C309 C308 1.385 . S
C309 C310 1.389 . S
C310 C309 1.389 . S
C310 C311 1.387 . S
C311 H296 0.930 . S
C311 C306 1.390 . S
C311 C310 1.387 . S
H312 C324 0.930 . S
H313 C326 0.930 . S
H314 C327 0.930 . S
H315 C331 0.959 . S
H316 C331 0.959 . S
H317 C331 0.961 . S
H318 C332 0.960 . S
H319 C332 0.961 . S
H320 C332 0.959 . S
H321 C335 0.929 . S
H322 C336 0.931 . S
H323 C338 0.930 . S
C324 H312 0.930 . S
C324 C325 1.399 . S
C324 C329 1.399 . S
C325 C324 1.399 . S
C325 C326 1.376 . S
C326 H313 0.930 . S
C326 C325 1.376 . S
C326 C327 1.388 . S
C327 H314 0.930 . S
C327 C326 1.388 . S
C327 C328 1.390 . S
C328 C327 1.390 . S
C328 C329 1.394 . S
C328 C334 1.465 . S
C329 C324 1.399 . S
C329 C328 1.394 . S
C329 C330 1.516 . S
C330 C329 1.516 . S
C330 C331 1.502 . S
C330 C332 1.561 . S
C330 C333 1.526 . S
C331 H315 0.959 . S
C331 H316 0.959 . S
C331 H317 0.961 . S
C331 C330 1.502 . S
C332 H318 0.960 . S
C332 H319 0.961 . S
C332 H320 0.959 . S
C332 C330 1.561 . S
C333 C330 1.526 . S
C333 C334 1.396 . S
C333 C338 1.390 . S
C334 C328 1.465 . S
C334 C333 1.396 . S
C334 C335 1.399 . S
C335 H321 0.929 . S
C335 C334 1.399 . S
C335 C336 1.385 . S
C336 H322 0.931 . S
C336 C335 1.385 . S
C336 C337 1.389 . S
C337 C336 1.389 . S
C337 C338 1.387 . S
C338 H323 0.930 . S
C338 C333 1.390 . S
C338 C337 1.387 . S
H339 C351 0.930 . S
H340 C353 0.930 . S
H341 C354 0.930 . S
H342 C358 0.959 . S
H343 C358 0.959 . S
H344 C358 0.961 . S
H345 C359 0.960 . S
H346 C359 0.961 . S
H347 C359 0.959 . S
H348 C362 0.929 . S
H349 C363 0.931 . S
H350 C365 0.930 . S
C351 H339 0.930 . S
C351 C352 1.399 . S
C351 C356 1.399 . S
C352 C351 1.399 . S
C352 C353 1.376 . S
C353 H340 0.930 . S
C353 C352 1.376 . S
C353 C354 1.388 . S
C354 H341 0.930 . S
C354 C353 1.388 . S
C354 C355 1.390 . S
C355 C354 1.390 . S
C355 C356 1.394 . S
C355 C361 1.465 . S
C356 C351 1.399 . S
C356 C355 1.394 . S
C356 C357 1.516 . S
C357 C356 1.516 . S
C357 C358 1.502 . S
C357 C359 1.561 . S
C357 C360 1.526 . S
C358 H342 0.959 . S
C358 H343 0.959 . S
C358 H344 0.961 . S
C358 C357 1.502 . S
C359 H345 0.960 . S
C359 H346 0.961 . S
C359 H347 0.959 . S
C359 C357 1.561 . S
C360 C357 1.526 . S
C360 C361 1.396 . S
C360 C365 1.390 . S
C361 C355 1.465 . S
C361 C360 1.396 . S
C361 C362 1.399 . S
C362 H348 0.929 . S
C362 C361 1.399 . S
C362 C363 1.385 . S
C363 H349 0.931 . S
C363 C362 1.385 . S
C363 C364 1.389 . S
C364 C363 1.389 . S
C364 C365 1.387 . S
C365 H350 0.930 . S
C365 C360 1.390 . S
C365 C364 1.387 . S
H366 C378 0.930 . S
H367 C380 0.930 . S
H368 C381 0.930 . S
H369 C385 0.959 . S
H370 C385 0.959 . S
H371 C385 0.961 . S
H372 C386 0.960 . S
H373 C386 0.961 . S
H374 C386 0.959 . S
H375 C389 0.929 . S
H376 C390 0.931 . S
H377 C392 0.930 . S
C378 H366 0.930 . S
C378 C379 1.399 . S
C378 C383 1.399 . S
C379 C378 1.399 . S
C379 C380 1.376 . S
C380 H367 0.930 . S
C380 C379 1.376 . S
C380 C381 1.388 . S
C381 H368 0.930 . S
C381 C380 1.388 . S
C381 C382 1.390 . S
C382 C381 1.390 . S
C382 C383 1.394 . S
C382 C388 1.465 . S
C383 C378 1.399 . S
C383 C382 1.394 . S
C383 C384 1.516 . S
C384 C383 1.516 . S
C384 C385 1.502 . S
C384 C386 1.561 . S
C384 C387 1.526 . S
C385 H369 0.959 . S
C385 H370 0.959 . S
C385 H371 0.961 . S
C385 C384 1.502 . S
C386 H372 0.960 . S
C386 H373 0.961 . S
C386 H374 0.959 . S
C386 C384 1.561 . S
C387 C384 1.526 . S
C387 C388 1.396 . S
C387 C392 1.390 . S
C388 C382 1.465 . S
C388 C387 1.396 . S
C388 C389 1.399 . S
C389 H375 0.929 . S
C389 C388 1.399 . S
C389 C390 1.385 . S
C390 H376 0.931 . S
C390 C389 1.385 . S
C390 C391 1.389 . S
C391 C390 1.389 . S
C391 C392 1.387 . S
C392 H377 0.930 . S
C392 C387 1.390 . S
C392 C391 1.387 . S
H393 C405 0.930 . S
H394 C407 0.930 . S
H395 C408 0.930 . S
H396 C412 0.959 . S
H397 C412 0.959 . S
H398 C412 0.961 . S
H399 C413 0.960 . S
H400 C413 0.961 . S
H401 C413 0.959 . S
H402 C416 0.929 . S
H403 C417 0.931 . S
H404 C419 0.930 . S
C405 H393 0.930 . S
C405 C406 1.399 . S
C405 C410 1.399 . S
C406 C405 1.399 . S
C406 C407 1.376 . S
C407 H394 0.930 . S
C407 C406 1.376 . S
C407 C408 1.388 . S
C408 H395 0.930 . S
C408 C407 1.388 . S
C408 C409 1.390 . S
C409 C408 1.390 . S
C409 C410 1.394 . S
C409 C415 1.465 . S
C410 C405 1.399 . S
C410 C409 1.394 . S
C410 C411 1.516 . S
C411 C410 1.516 . S
C411 C412 1.502 . S
C411 C413 1.561 . S
C411 C414 1.526 . S
C412 H396 0.959 . S
C412 H397 0.959 . S
C412 H398 0.961 . S
C412 C411 1.502 . S
C413 H399 0.960 . S
C413 H400 0.961 . S
C413 H401 0.959 . S
C413 C411 1.561 . S
C414 C411 1.526 . S
C414 C415 1.396 . S
C414 C419 1.390 . S
C415 C409 1.465 . S
C415 C414 1.396 . S
C415 C416 1.399 . S
C416 H402 0.929 . S
C416 C415 1.399 . S
C416 C417 1.385 . S
C417 H403 0.931 . S
C417 C416 1.385 . S
C417 C418 1.389 . S
C418 C417 1.389 . S
C418 C419 1.387 . S
C419 H404 0.930 . S
C419 C414 1.390 . S
C419 C418 1.387 . S
H420 C432 0.930 . S
H421 C434 0.930 . S
H422 C435 0.930 . S
H423 C439 0.959 . S
H424 C439 0.959 . S
H425 C439 0.961 . S
H426 C440 0.960 . S
H427 C440 0.961 . S
H428 C440 0.959 . S
H429 C443 0.929 . S
H430 C444 0.931 . S
H431 C446 0.930 . S
C432 H420 0.930 . S
C432 C433 1.399 . S
C432 C437 1.399 . S
C433 C432 1.399 . S
C433 C434 1.376 . S
C434 H421 0.930 . S
C434 C433 1.376 . S
C434 C435 1.388 . S
C435 H422 0.930 . S
C435 C434 1.388 . S
C435 C436 1.390 . S
C436 C435 1.390 . S
C436 C437 1.394 . S
C436 C442 1.465 . S
C437 C432 1.399 . S
C437 C436 1.394 . S
C437 C438 1.516 . S
C438 C437 1.516 . S
C438 C439 1.502 . S
C438 C440 1.561 . S
C438 C441 1.526 . S
C439 H423 0.959 . S
C439 H424 0.959 . S
C439 H425 0.961 . S
C439 C438 1.502 . S
C440 H426 0.960 . S
C440 H427 0.961 . S
C440 H428 0.959 . S
C440 C438 1.561 . S
C441 C438 1.526 . S
C441 C442 1.396 . S
C441 C446 1.390 . S
C442 C436 1.465 . S
C442 C441 1.396 . S
C442 C443 1.399 . S
C443 H429 0.929 . S
C443 C442 1.399 . S
C443 C444 1.385 . S
C444 H430 0.931 . S
C444 C443 1.385 . S
C444 C445 1.389 . S
C445 C444 1.389 . S
C445 C446 1.387 . S
C446 H431 0.930 . S
C446 C441 1.390 . S
C446 C445 1.387 . S
H447 C459 0.930 . S
H448 C461 0.930 . S
H449 C462 0.930 . S
H450 C466 0.959 . S
H451 C466 0.959 . S
H452 C466 0.961 . S
H453 C467 0.960 . S
H454 C467 0.961 . S
H455 C467 0.959 . S
H456 C470 0.929 1_556 S
H457 C471 0.931 . S
H458 C473 0.930 . S
C459 H447 0.930 . S
C459 C460 1.399 . S
C459 C464 1.399 . S
C460 C459 1.399 . S
C460 C461 1.376 1_554 S
C461 H448 0.930 . S
C461 C460 1.376 1_556 S
C461 C462 1.388 . S
C462 H449 0.930 . S
C462 C461 1.388 . S
C462 C463 1.390 1_556 S
C463 C462 1.390 1_554 S
C463 C464 1.394 . S
C463 C469 1.465 . S
C464 C459 1.399 . S
C464 C463 1.394 . S
C464 C465 1.516 . S
C465 C464 1.516 . S
C465 C466 1.502 . S
C465 C467 1.561 . S
C465 C468 1.526 . S
C466 H450 0.959 . S
C466 H451 0.959 . S
C466 H452 0.961 . S
C466 C465 1.502 . S
C467 H453 0.960 . S
C467 H454 0.961 . S
C467 H455 0.959 . S
C467 C465 1.561 . S
C468 C465 1.526 . S
C468 C469 1.396 . S
C468 C473 1.390 . S
C469 C463 1.465 . S
C469 C468 1.396 . S
C469 C470 1.399 . S
C470 H456 0.929 1_554 S
C470 C469 1.399 . S
C470 C471 1.385 . S
C471 H457 0.931 . S
C471 C470 1.385 . S
C471 C472 1.389 . S
C472 C471 1.389 . S
C472 C473 1.387 . S
C473 H458 0.930 . S
C473 C468 1.390 . S
C473 C472 1.387 . S
H474 C486 0.930 . S
H475 C488 0.930 . S
H476 C489 0.930 . S
H477 C493 0.959 . S
H478 C493 0.959 . S
H479 C493 0.961 . S
H480 C494 0.960 . S
H481 C494 0.961 . S
H482 C494 0.959 . S
H483 C497 0.929 . S
H484 C498 0.931 . S
H485 C500 0.930 . S
C486 H474 0.930 . S
C486 C487 1.399 . S
C486 C491 1.399 . S
C487 C486 1.399 . S
C487 C488 1.376 . S
C488 H475 0.930 . S
C488 C487 1.376 . S
C488 C489 1.388 . S
C489 H476 0.930 . S
C489 C488 1.388 . S
C489 C490 1.390 . S
C490 C489 1.390 . S
C490 C491 1.394 . S
C490 C496 1.465 . S
C491 C486 1.399 . S
C491 C490 1.394 . S
C491 C492 1.516 . S
C492 C491 1.516 . S
C492 C493 1.502 . S
C492 C494 1.561 . S
C492 C495 1.526 . S
C493 H477 0.959 . S
C493 H478 0.959 . S
C493 H479 0.961 . S
C493 C492 1.502 . S
C494 H480 0.960 . S
C494 H481 0.961 . S
C494 H482 0.959 . S
C494 C492 1.561 . S
C495 C492 1.526 . S
C495 C496 1.396 . S
C495 C500 1.390 . S
C496 C490 1.465 . S
C496 C495 1.396 . S
C496 C497 1.399 . S
C497 H483 0.929 . S
C497 C496 1.399 . S
C497 C498 1.385 . S
C498 H484 0.931 . S
C498 C497 1.385 . S
C498 C499 1.389 . S
C499 C498 1.389 . S
C499 C500 1.387 . S
C500 H485 0.930 . S
C500 C495 1.390 . S
C500 C499 1.387 . S
H501 C513 0.930 . S
H502 C515 0.930 . S
H503 C516 0.930 . S
H504 C520 0.959 . S
H505 C520 0.959 . S
H506 C520 0.961 . S
H507 C521 0.960 . S
H508 C521 0.961 . S
H509 C521 0.959 . S
H510 C524 0.929 . S
H511 C525 0.931 . S
H512 C527 0.930 . S
C513 H501 0.930 . S
C513 C514 1.399 . S
C513 C518 1.399 . S
C514 C513 1.399 . S
C514 C515 1.376 . S
C515 H502 0.930 . S
C515 C514 1.376 . S
C515 C516 1.388 . S
C516 H503 0.930 . S
C516 C515 1.388 . S
C516 C517 1.390 . S
C517 C516 1.390 . S
C517 C518 1.394 . S
C517 C523 1.465 . S
C518 C513 1.399 . S
C518 C517 1.394 . S
C518 C519 1.516 . S
C519 C518 1.516 . S
C519 C520 1.502 . S
C519 C521 1.561 . S
C519 C522 1.526 . S
C520 H504 0.959 . S
C520 H505 0.959 . S
C520 H506 0.961 . S
C520 C519 1.502 . S
C521 H507 0.960 . S
C521 H508 0.961 . S
C521 H509 0.959 . S
C521 C519 1.561 . S
C522 C519 1.526 . S
C522 C523 1.396 . S
C522 C527 1.390 . S
C523 C517 1.465 . S
C523 C522 1.396 . S
C523 C524 1.399 . S
C524 H510 0.929 . S
C524 C523 1.399 . S
C524 C525 1.385 . S
C525 H511 0.931 . S
C525 C524 1.385 . S
C525 C526 1.389 . S
C526 C525 1.389 . S
C526 C527 1.387 . S
C527 H512 0.930 . S
C527 C522 1.390 . S
C527 C526 1.387 . S
H528 C540 0.930 . S
H529 C542 0.930 . S
H530 C543 0.930 . S
H531 C547 0.959 . S
H532 C547 0.959 . S
H533 C547 0.961 . S
H534 C548 0.960 . S
H535 C548 0.961 . S
H536 C548 0.959 . S
H537 C551 0.929 . S
H538 C552 0.931 . S
H539 C554 0.930 . S
C540 H528 0.930 . S
C540 C541 1.399 . S
C540 C545 1.399 . S
C541 C540 1.399 . S
C541 C542 1.376 . S
C542 H529 0.930 . S
C542 C541 1.376 . S
C542 C543 1.388 . S
C543 H530 0.930 . S
C543 C542 1.388 . S
C543 C544 1.390 . S
C544 C543 1.390 . S
C544 C545 1.394 . S
C544 C550 1.465 . S
C545 C540 1.399 . S
C545 C544 1.394 . S
C545 C546 1.516 . S
C546 C545 1.516 . S
C546 C547 1.502 . S
C546 C548 1.561 . S
C546 C549 1.526 . S
C547 H531 0.959 . S
C547 H532 0.959 . S
C547 H533 0.961 . S
C547 C546 1.502 . S
C548 H534 0.960 . S
C548 H535 0.961 . S
C548 H536 0.959 . S
C548 C546 1.561 . S
C549 C546 1.526 . S
C549 C550 1.396 . S
C549 C554 1.390 . S
C550 C544 1.465 . S
C550 C549 1.396 . S
C550 C551 1.399 . S
C551 H537 0.929 . S
C551 C550 1.399 . S
C551 C552 1.385 . S
C552 H538 0.931 . S
C552 C551 1.385 . S
C552 C553 1.389 . S
C553 C552 1.389 . S
C553 C554 1.387 . S
C554 H539 0.930 . S
C554 C549 1.390 . S
C554 C553 1.387 . S
H555 C567 0.930 . S
H556 C569 0.930 . S
H557 C570 0.930 . S
H558 C574 0.959 . S
H559 C574 0.959 . S
H560 C574 0.961 . S
H561 C575 0.960 . S
H562 C575 0.961 . S
H563 C575 0.959 . S
H564 C578 0.929 . S
H565 C579 0.931 . S
H566 C581 0.930 . S
C567 H555 0.930 . S
C567 C568 1.399 . S
C567 C572 1.399 . S
C568 C567 1.399 . S
C568 C569 1.376 . S
C569 H556 0.930 . S
C569 C568 1.376 . S
C569 C570 1.388 . S
C570 H557 0.930 . S
C570 C569 1.388 . S
C570 C571 1.390 . S
C571 C570 1.390 . S
C571 C572 1.394 . S
C571 C577 1.465 . S
C572 C567 1.399 . S
C572 C571 1.394 . S
C572 C573 1.516 . S
C573 C572 1.516 . S
C573 C574 1.502 . S
C573 C575 1.561 . S
C573 C576 1.526 . S
C574 H558 0.959 . S
C574 H559 0.959 . S
C574 H560 0.961 . S
C574 C573 1.502 . S
C575 H561 0.960 . S
C575 H562 0.961 . S
C575 H563 0.959 . S
C575 C573 1.561 . S
C576 C573 1.526 . S
C576 C577 1.396 . S
C576 C581 1.390 . S
C577 C571 1.465 . S
C577 C576 1.396 . S
C577 C578 1.399 . S
C578 H564 0.929 . S
C578 C577 1.399 . S
C578 C579 1.385 . S
C579 H565 0.931 . S
C579 C578 1.385 . S
C579 C580 1.389 . S
C580 C579 1.389 . S
C580 C581 1.387 . S
C581 H566 0.930 . S
C581 C576 1.390 . S
C581 C580 1.387 . S
H582 C594 0.930 . S
H583 C596 0.930 . S
H584 C597 0.930 . S
H585 C601 0.959 . S
H586 C601 0.959 . S
H587 C601 0.961 . S
H588 C602 0.960 . S
H589 C602 0.961 . S
H590 C602 0.959 . S
H591 C605 0.929 . S
H592 C606 0.931 . S
H593 C608 0.930 . S
C594 H582 0.930 . S
C594 C595 1.399 . S
C594 C599 1.399 . S
C595 C594 1.399 . S
C595 C596 1.376 . S
C596 H583 0.930 . S
C596 C595 1.376 . S
C596 C597 1.388 . S
C597 H584 0.930 . S
C597 C596 1.388 . S
C597 C598 1.390 . S
C598 C597 1.390 . S
C598 C599 1.394 . S
C598 C604 1.465 . S
C599 C594 1.399 . S
C599 C598 1.394 . S
C599 C600 1.516 . S
C600 C599 1.516 . S
C600 C601 1.502 . S
C600 C602 1.561 . S
C600 C603 1.526 . S
C601 H585 0.959 . S
C601 H586 0.959 . S
C601 H587 0.961 . S
C601 C600 1.502 . S
C602 H588 0.960 . S
C602 H589 0.961 . S
C602 H590 0.959 . S
C602 C600 1.561 . S
C603 C600 1.526 . S
C603 C604 1.396 . S
C603 C608 1.390 . S
C604 C598 1.465 . S
C604 C603 1.396 . S
C604 C605 1.399 . S
C605 H591 0.929 . S
C605 C604 1.399 . S
C605 C606 1.385 . S
C606 H592 0.931 . S
C606 C605 1.385 . S
C606 C607 1.389 . S
C607 C606 1.389 . S
C607 C608 1.387 . S
C608 H593 0.930 . S
C608 C603 1.390 . S
C608 C607 1.387 . S
H609 C621 0.930 . S
H610 C623 0.930 . S
H611 C624 0.930 . S
H612 C628 0.959 . S
H613 C628 0.959 1_554 S
H614 C628 0.961 . S
H615 C629 0.960 . S
H616 C629 0.961 . S
H617 C629 0.959 . S
H618 C632 0.929 . S
H619 C633 0.931 . S
H620 C635 0.930 1_554 S
C621 H609 0.930 . S
C621 C622 1.399 . S
C621 C626 1.399 . S
C622 C621 1.399 . S
C622 C623 1.376 . S
C623 H610 0.930 . S
C623 C622 1.376 . S
C623 C624 1.388 . S
C624 H611 0.930 . S
C624 C623 1.388 . S
C624 C625 1.390 . S
C625 C624 1.390 . S
C625 C626 1.394 . S
C625 C631 1.465 . S
C626 C621 1.399 . S
C626 C625 1.394 . S
C626 C627 1.516 . S
C627 C626 1.516 . S
C627 C628 1.502 . S
C627 C629 1.561 . S
C627 C630 1.526 . S
C628 H612 0.959 . S
C628 H613 0.959 1_556 S
C628 H614 0.961 . S
C628 C627 1.502 . S
C629 H615 0.960 . S
C629 H616 0.961 . S
C629 H617 0.959 . S
C629 C627 1.561 . S
C630 C627 1.526 . S
C630 C631 1.396 . S
C630 C635 1.390 . S
C631 C625 1.465 . S
C631 C630 1.396 . S
C631 C632 1.399 . S
C632 H618 0.929 . S
C632 C631 1.399 . S
C632 C633 1.385 . S
C633 H619 0.931 . S
C633 C632 1.385 . S
C633 C634 1.389 . S
C634 C633 1.389 . S
C634 C635 1.387 . S
C635 H620 0.930 1_556 S
C635 C630 1.390 . S
C635 C634 1.387 . S
H636 C648 0.930 . S
H637 C650 0.930 . S
H638 C651 0.930 . S
H639 C655 0.959 . S
H640 C655 0.959 . S
H641 C655 0.961 . S
H642 C656 0.960 . S
H643 C656 0.961 . S
H644 C656 0.959 . S
H645 C659 0.929 . S
H646 C660 0.931 . S
H647 C662 0.930 . S
C648 H636 0.930 . S
C648 C649 1.399 . S
C648 C653 1.399 . S
C649 C648 1.399 . S
C649 C650 1.376 . S
C650 H637 0.930 . S
C650 C649 1.376 . S
C650 C651 1.388 . S
C651 H638 0.930 . S
C651 C650 1.388 . S
C651 C652 1.390 . S
C652 C651 1.390 . S
C652 C653 1.394 . S
C652 C658 1.465 . S
C653 C648 1.399 . S
C653 C652 1.394 . S
C653 C654 1.516 . S
C654 C653 1.516 . S
C654 C655 1.502 . S
C654 C656 1.561 . S
C654 C657 1.526 . S
C655 H639 0.959 . S
C655 H640 0.959 . S
C655 H641 0.961 . S
C655 C654 1.502 . S
C656 H642 0.960 . S
C656 H643 0.961 . S
C656 H644 0.959 . S
C656 C654 1.561 . S
C657 C654 1.526 . S
C657 C658 1.396 . S
C657 C662 1.390 . S
C658 C652 1.465 . S
C658 C657 1.396 . S
C658 C659 1.399 . S
C659 H645 0.929 . S
C659 C658 1.399 . S
C659 C660 1.385 . S
C660 H646 0.931 . S
C660 C659 1.385 . S
C660 C661 1.389 . S
C661 C660 1.389 . S
C661 C662 1.387 . S
C662 H647 0.930 . S
C662 C657 1.390 . S
C662 C661 1.387 . S
H663 C675 0.930 . S
H664 C677 0.930 . S
H665 C678 0.930 . S
H666 C682 0.959 . S
H667 C682 0.959 . S
H668 C682 0.961 . S
H669 C683 0.960 . S
H670 C683 0.961 . S
H671 C683 0.959 . S
H672 C686 0.929 . S
H673 C687 0.931 . S
H674 C689 0.930 . S
C675 H663 0.930 . S
C675 C676 1.399 . S
C675 C680 1.399 . S
C676 C675 1.399 . S
C676 C677 1.376 . S
C677 H664 0.930 . S
C677 C676 1.376 . S
C677 C678 1.388 . S
C678 H665 0.930 . S
C678 C677 1.388 . S
C678 C679 1.390 . S
C679 C678 1.390 . S
C679 C680 1.394 . S
C679 C685 1.465 . S
C680 C675 1.399 . S
C680 C679 1.394 . S
C680 C681 1.516 . S
C681 C680 1.516 . S
C681 C682 1.502 . S
C681 C683 1.561 . S
C681 C684 1.526 . S
C682 H666 0.959 . S
C682 H667 0.959 . S
C682 H668 0.961 . S
C682 C681 1.502 . S
C683 H669 0.960 . S
C683 H670 0.961 . S
C683 H671 0.959 . S
C683 C681 1.561 . S
C684 C681 1.526 . S
C684 C685 1.396 . S
C684 C689 1.390 . S
C685 C679 1.465 . S
C685 C684 1.396 . S
C685 C686 1.399 . S
C686 H672 0.929 . S
C686 C685 1.399 . S
C686 C687 1.385 . S
C687 H673 0.931 . S
C687 C686 1.385 . S
C687 C688 1.389 . S
C688 C687 1.389 . S
C688 C689 1.387 . S
C689 H674 0.930 . S
C689 C684 1.390 . S
C689 C688 1.387 . S
H690 C702 0.930 . S
H691 C704 0.930 . S
H692 C705 0.930 . S
H693 C709 0.959 . S
H694 C709 0.959 . S
H695 C709 0.961 . S
H696 C710 0.960 . S
H697 C710 0.961 . S
H698 C710 0.959 . S
H699 C713 0.929 . S
H700 C714 0.931 . S
H701 C716 0.930 . S
C702 H690 0.930 . S
C702 C703 1.399 . S
C702 C707 1.399 . S
C703 C702 1.399 . S
C703 C704 1.376 . S
C704 H691 0.930 . S
C704 C703 1.376 . S
C704 C705 1.388 . S
C705 H692 0.930 . S
C705 C704 1.388 . S
C705 C706 1.390 . S
C706 C705 1.390 . S
C706 C707 1.394 . S
C706 C712 1.465 . S
C707 C702 1.399 . S
C707 C706 1.394 . S
C707 C708 1.516 . S
C708 C707 1.516 . S
C708 C709 1.502 . S
C708 C710 1.561 . S
C708 C711 1.526 . S
C709 H693 0.959 . S
C709 H694 0.959 . S
C709 H695 0.961 . S
C709 C708 1.502 . S
C710 H696 0.960 . S
C710 H697 0.961 . S
C710 H698 0.959 . S
C710 C708 1.561 . S
C711 C708 1.526 . S
C711 C712 1.396 . S
C711 C716 1.390 . S
C712 C706 1.465 . S
C712 C711 1.396 . S
C712 C713 1.399 . S
C713 H699 0.929 . S
C713 C712 1.399 . S
C713 C714 1.385 . S
C714 H700 0.931 . S
C714 C713 1.385 . S
C714 C715 1.389 . S
C715 C714 1.389 . S
C715 C716 1.387 . S
C716 H701 0.930 . S
C716 C711 1.390 . S
C716 C715 1.387 . S
H717 C729 0.930 . S
H718 C731 0.930 . S
H719 C732 0.930 . S
H720 C736 0.959 . S
H721 C736 0.959 . S
H722 C736 0.961 . S
H723 C737 0.960 . S
H724 C737 0.961 . S
H725 C737 0.959 . S
H726 C740 0.929 . S
H727 C741 0.931 . S
H728 C743 0.930 . S
C729 H717 0.930 . S
C729 C730 1.399 . S
C729 C734 1.399 . S
C730 C729 1.399 . S
C730 C731 1.376 . S
C731 H718 0.930 . S
C731 C730 1.376 . S
C731 C732 1.388 . S
C732 H719 0.930 . S
C732 C731 1.388 . S
C732 C733 1.390 . S
C733 C732 1.390 . S
C733 C734 1.394 . S
C733 C739 1.465 . S
C734 C729 1.399 . S
C734 C733 1.394 . S
C734 C735 1.516 . S
C735 C734 1.516 . S
C735 C736 1.502 . S
C735 C737 1.561 . S
C735 C738 1.526 . S
C736 H720 0.959 . S
C736 H721 0.959 . S
C736 H722 0.961 . S
C736 C735 1.502 . S
C737 H723 0.960 . S
C737 H724 0.961 . S
C737 H725 0.959 . S
C737 C735 1.561 . S
C738 C735 1.526 . S
C738 C739 1.396 . S
C738 C743 1.390 . S
C739 C733 1.465 . S
C739 C738 1.396 . S
C739 C740 1.399 . S
C740 H726 0.929 . S
C740 C739 1.399 . S
C740 C741 1.385 . S
C741 H727 0.931 . S
C741 C740 1.385 . S
C741 C742 1.389 . S
C742 C741 1.389 . S
C742 C743 1.387 . S
C743 H728 0.930 . S
C743 C738 1.390 . S
C743 C742 1.387 . S
H744 C756 0.930 . S
H745 C758 0.930 . S
H746 C759 0.930 . S
H747 C763 0.959 . S
H748 C763 0.959 . S
H749 C763 0.961 . S
H750 C764 0.960 . S
H751 C764 0.961 . S
H752 C764 0.959 . S
H753 C767 0.929 . S
H754 C768 0.931 . S
H755 C770 0.930 . S
C756 H744 0.930 . S
C756 C757 1.399 . S
C756 C761 1.399 . S
C757 C756 1.399 . S
C757 C758 1.376 . S
C758 H745 0.930 . S
C758 C757 1.376 . S
C758 C759 1.388 . S
C759 H746 0.930 . S
C759 C758 1.388 . S
C759 C760 1.390 . S
C760 C759 1.390 . S
C760 C761 1.394 . S
C760 C766 1.465 . S
C761 C756 1.399 . S
C761 C760 1.394 . S
C761 C762 1.516 . S
C762 C761 1.516 . S
C762 C763 1.502 . S
C762 C764 1.561 . S
C762 C765 1.526 . S
C763 H747 0.959 . S
C763 H748 0.959 . S
C763 H749 0.961 . S
C763 C762 1.502 . S
C764 H750 0.960 . S
C764 H751 0.961 . S
C764 H752 0.959 . S
C764 C762 1.561 . S
C765 C762 1.526 . S
C765 C766 1.396 . S
C765 C770 1.390 . S
C766 C760 1.465 . S
C766 C765 1.396 . S
C766 C767 1.399 . S
C767 H753 0.929 . S
C767 C766 1.399 . S
C767 C768 1.385 . S
C768 H754 0.931 . S
C768 C767 1.385 . S
C768 C769 1.389 . S
C769 C768 1.389 . S
C769 C770 1.387 . S
C770 H755 0.930 . S
C770 C765 1.390 . S
C770 C769 1.387 . S
H771 C783 0.930 . S
H772 C785 0.930 . S
H773 C786 0.930 . S
H774 C790 0.959 . S
H775 C790 0.959 . S
H776 C790 0.961 . S
H777 C791 0.960 . S
H778 C791 0.961 . S
H779 C791 0.959 . S
H780 C794 0.929 . S
H781 C795 0.931 . S
H782 C797 0.930 . S
C783 H771 0.930 . S
C783 C784 1.399 . S
C783 C788 1.399 . S
C784 C783 1.399 . S
C784 C785 1.376 . S
C785 H772 0.930 . S
C785 C784 1.376 . S
C785 C786 1.388 . S
C786 H773 0.930 . S
C786 C785 1.388 . S
C786 C787 1.390 . S
C787 C786 1.390 . S
C787 C788 1.394 . S
C787 C793 1.465 . S
C788 C783 1.399 . S
C788 C787 1.394 . S
C788 C789 1.516 . S
C789 C788 1.516 . S
C789 C790 1.502 . S
C789 C791 1.561 . S
C789 C792 1.526 . S
C790 H774 0.959 . S
C790 H775 0.959 . S
C790 H776 0.961 . S
C790 C789 1.502 . S
C791 H777 0.960 . S
C791 H778 0.961 . S
C791 H779 0.959 . S
C791 C789 1.561 . S
C792 C789 1.526 . S
C792 C793 1.396 . S
C792 C797 1.390 . S
C793 C787 1.465 . S
C793 C792 1.396 . S
C793 C794 1.399 . S
C794 H780 0.929 . S
C794 C793 1.399 . S
C794 C795 1.385 . S
C795 H781 0.931 . S
C795 C794 1.385 . S
C795 C796 1.389 . S
C796 C795 1.389 . S
C796 C797 1.387 . S
C797 H782 0.930 . S
C797 C792 1.390 . S
C797 C796 1.387 . S
H798 C810 0.930 . S
H799 C812 0.930 . S
H800 C813 0.930 . S
H801 C817 0.959 . S
H802 C817 0.959 . S
H803 C817 0.961 . S
H804 C818 0.960 . S
H805 C818 0.961 . S
H806 C818 0.959 1_554 S
H807 C821 0.929 . S
H808 C822 0.931 . S
H809 C824 0.930 . S
C810 H798 0.930 . S
C810 C811 1.399 . S
C810 C815 1.399 . S
C811 C810 1.399 . S
C811 C812 1.376 . S
C812 H799 0.930 . S
C812 C811 1.376 . S
C812 C813 1.388 . S
C813 H800 0.930 . S
C813 C812 1.388 . S
C813 C814 1.390 . S
C814 C813 1.390 . S
C814 C815 1.394 . S
C814 C820 1.465 . S
C815 C810 1.399 . S
C815 C814 1.394 . S
C815 C816 1.516 1_554 S
C816 C815 1.516 1_556 S
C816 C817 1.502 . S
C816 C818 1.561 . S
C816 C819 1.526 . S
C817 H801 0.959 . S
C817 H802 0.959 . S
C817 H803 0.961 . S
C817 C816 1.502 . S
C818 H804 0.960 . S
C818 H805 0.961 . S
C818 H806 0.959 1_556 S
C818 C816 1.561 . S
C819 C816 1.526 . S
C819 C820 1.396 1_556 S
C819 C824 1.390 . S
C820 C814 1.465 . S
C820 C819 1.396 1_554 S
C820 C821 1.399 . S
C821 H807 0.929 . S
C821 C820 1.399 . S
C821 C822 1.385 1_554 S
C822 H808 0.931 . S
C822 C821 1.385 1_556 S
C822 C823 1.389 . S
C823 C822 1.389 . S
C823 C824 1.387 . S
C824 H809 0.930 . S
C824 C819 1.390 . S
C824 C823 1.387 . S
H825 C837 0.930 . S
H826 C839 0.930 . S
H827 C840 0.930 . S
H828 C844 0.959 . S
H829 C844 0.959 . S
H830 C844 0.961 . S
H831 C845 0.960 . S
H832 C845 0.961 . S
H833 C845 0.959 . S
H834 C848 0.929 . S
H835 C849 0.931 . S
H836 C851 0.930 . S
C837 H825 0.930 . S
C837 C838 1.399 . S
C837 C842 1.399 . S
C838 C837 1.399 . S
C838 C839 1.376 . S
C839 H826 0.930 . S
C839 C838 1.376 . S
C839 C840 1.388 . S
C840 H827 0.930 . S
C840 C839 1.388 . S
C840 C841 1.390 . S
C841 C840 1.390 . S
C841 C842 1.394 . S
C841 C847 1.465 . S
C842 C837 1.399 . S
C842 C841 1.394 . S
C842 C843 1.516 . S
C843 C842 1.516 . S
C843 C844 1.502 . S
C843 C845 1.561 . S
C843 C846 1.526 . S
C844 H828 0.959 . S
C844 H829 0.959 . S
C844 H830 0.961 . S
C844 C843 1.502 . S
C845 H831 0.960 . S
C845 H832 0.961 . S
C845 H833 0.959 . S
C845 C843 1.561 . S
C846 C843 1.526 . S
C846 C847 1.396 . S
C846 C851 1.390 . S
C847 C841 1.465 . S
C847 C846 1.396 . S
C847 C848 1.399 . S
C848 H834 0.929 . S
C848 C847 1.399 . S
C848 C849 1.385 . S
C849 H835 0.931 . S
C849 C848 1.385 . S
C849 C850 1.389 . S
C850 C849 1.389 . S
C850 C851 1.387 . S
C851 H836 0.930 . S
C851 C846 1.390 . S
C851 C850 1.387 . S
C229 C201 1.562 . S
C217 C19 1.426 . S
C244 C40 1.406 . S
C256 C126 1.473 . S
C271 C51 1.516 . S
C283 C149 1.579 . S
C298 C72 1.357 . S
C310 C162 1.473 . S
C337 C165 1.543 . S
C325 C103 1.467 . S
C352 C114 1.327 . S
C364 C178 1.452 . S
C379 C30 1.437 . S
C391 C139 1.461 . S
C406 C61 1.519 . S
C418 C152 1.496 . S
C433 C82 1.353 . S
C445 C175 1.477 . S
C472 C188 1.578 . S
C460 C93 1.406 1_554 S
C499 C191 1.466 . S
C487 C124 1.493 . S
C526 C136 1.559 . S
C514 C9 1.501 . S
C541 C17 1.383 . S
C553 C147 1.496 . S
C568 C38 1.351 . S
C580 C160 1.472 . S
C607 C170 1.498 . S
C595 C54 1.460 . S
C622 C75 1.369 . S
C634 C183 1.452 1_556 S
C661 C199 1.510 . S
C649 C101 1.389 . S
C688 C131 1.408 . S
C676 C117 1.372 . S
C715 C196 1.453 . S
C703 C33 1.358 . S
C730 C59 1.414 . S
C742 C134 1.458 . S
C769 C144 1.485 . S
C757 C80 1.415 . S
C784 C96 1.430 . S
C796 C157 1.501 . S
C811 C122 1.362 . S
C823 C173 1.479 . S
C838 C12 1.388 . S
C850 C186 1.458 . S
