# Generated by pormake.
# Topology nom, (4,4)-cn, num edge types: 1
# Building blocks:
#     Node 0, Type 0, BuildingBlock: AZAVOO_clean_linker_0, # of connection points: 4
#     Node 1, Type 0, BuildingBlock: AZAVOO_clean_linker_0, # of connection points: 4
#     Node 2, Type 0, BuildingBlock: AZAVOO_clean_linker_0, # of connection points: 4
#     Node 3, Type 0, BuildingBlock: AZAVOO_clean_linker_0, # of connection points: 4
#     Node 4, Type 0, BuildingBlock: AZAVOO_clean_linker_0, # of connection points: 4
#     Node 5, Type 0, BuildingBlock: AZAVOO_clean_linker_0, # of connection points: 4
#     Node 6, Type 1, BuildingBlock: QUQFOY_clean_sbu_1, # of connection points: 4
#     Node 7, Type 1, BuildingBlock: QUQFOY_clean_sbu_1, # of connection points: 4
#     Node 8, Type 1, BuildingBlock: QUQFOY_clean_sbu_1, # of connection points: 4
#     Node 9, Type 1, BuildingBlock: QUQFOY_clean_sbu_1, # of connection points: 4
#     Node 10, Type 1, BuildingBlock: QUQFOY_clean_sbu_1, # of connection points: 4
#     Node 11, Type 1, BuildingBlock: QUQFOY_clean_sbu_1, # of connection points: 4
#     Edge 12, Type (0, 1), BuildingBlock: MIFKUJ_clean_linker_0, # of connection points: 2
#     Edge 13, Type (0, 1), BuildingBlock: MIFKUJ_clean_linker_0, # of connection points: 2
#     Edge 14, Type (0, 1), BuildingBlock: MIFKUJ_clean_linker_0, # of connection points: 2
#     Edge 15, Type (0, 1), BuildingBlock: MIFKUJ_clean_linker_0, # of connection points: 2
#     Edge 16, Type (0, 1), BuildingBlock: MIFKUJ_clean_linker_0, # of connection points: 2
#     Edge 17, Type (0, 1), BuildingBlock: MIFKUJ_clean_linker_0, # of connection points: 2
#     Edge 18, Type (0, 1), BuildingBlock: MIFKUJ_clean_linker_0, # of connection points: 2
#     Edge 19, Type (0, 1), BuildingBlock: MIFKUJ_clean_linker_0, # of connection points: 2
#     Edge 20, Type (0, 1), BuildingBlock: MIFKUJ_clean_linker_0, # of connection points: 2
#     Edge 21, Type (0, 1), BuildingBlock: MIFKUJ_clean_linker_0, # of connection points: 2
#     Edge 22, Type (0, 1), BuildingBlock: MIFKUJ_clean_linker_0, # of connection points: 2
#     Edge 23, Type (0, 1), BuildingBlock: MIFKUJ_clean_linker_0, # of connection points: 2
#     Edge 24, Type (0, 1), BuildingBlock: MIFKUJ_clean_linker_0, # of connection points: 2
#     Edge 25, Type (0, 1), BuildingBlock: MIFKUJ_clean_linker_0, # of connection points: 2
#     Edge 26, Type (0, 1), BuildingBlock: MIFKUJ_clean_linker_0, # of connection points: 2
#     Edge 27, Type (0, 1), BuildingBlock: MIFKUJ_clean_linker_0, # of connection points: 2
#     Edge 28, Type (0, 1), BuildingBlock: MIFKUJ_clean_linker_0, # of connection points: 2
#     Edge 29, Type (0, 1), BuildingBlock: MIFKUJ_clean_linker_0, # of connection points: 2
#     Edge 30, Type (0, 1), BuildingBlock: MIFKUJ_clean_linker_0, # of connection points: 2
#     Edge 31, Type (0, 1), BuildingBlock: MIFKUJ_clean_linker_0, # of connection points: 2
#     Edge 32, Type (0, 1), BuildingBlock: MIFKUJ_clean_linker_0, # of connection points: 2
#     Edge 33, Type (0, 1), BuildingBlock: MIFKUJ_clean_linker_0, # of connection points: 2
#     Edge 34, Type (0, 1), BuildingBlock: MIFKUJ_clean_linker_0, # of connection points: 2
#     Edge 35, Type (0, 1), BuildingBlock: MIFKUJ_clean_linker_0, # of connection points: 2
# Relax obj value: 0.171
# Max RMSD: 0.245
# Mean RMSD: 0.189
data_MOF--net-nom--node1-QUQFOY_clean_sbu_1--node2-AZAVOO_clean_linker_0--edge1-MIFKUJ_clean_linker_0
_symmetry_space_group_name_H-M    P1
_symmetry_Int_Tables_number       1
_symmetry_cell_setting            triclinic
loop_
_symmetry_equiv_pos_as_xyz
'x, y, z'
_cell_length_a     61.701146
_cell_length_b     63.511601
_cell_length_c     71.895408
_cell_angle_alpha  90.148933
_cell_angle_beta   89.805022
_cell_angle_gamma 120.88236
loop_
_atom_site_label
_atom_site_type_symbol
_atom_site_fract_x
_atom_site_fract_y
_atom_site_fract_z
_atom_type_partial_charge
H0 H 0.06569 0.51281 0.19508 0.0
H1 H 0.15628 0.62225 0.39523 0.0
H2 H 0.00484 0.4705 0.28278 0.0
H3 H 0.97273 0.45189 0.25836 0.0
H4 H 0.94443 0.49916 0.27352 0.0
H5 H 0.97735 0.51863 0.29741 0.0
H6 H 0.06357 0.50424 0.27613 0.0
H7 H 0.06844 0.50431 0.24233 0.0
H8 H 0.02865 0.54353 0.23639 0.0
H9 H 0.02424 0.54365 0.27021 0.0
H10 H 0.1028 0.53167 0.31024 0.0
H11 H 0.14544 0.55958 0.29856 0.0
H12 H 0.11932 0.60439 0.27341 0.0
H13 H 0.07732 0.57734 0.28629 0.0
H14 H 0.08486 0.52002 0.34637 0.0
H15 H 0.11755 0.54234 0.36979 0.0
H16 H 0.11394 0.60742 0.35901 0.0
H17 H 0.08116 0.58481 0.33566 0.0
H18 H 0.03431 0.49071 0.35915 0.0
H19 H 0.04857 0.49973 0.39127 0.0
H20 H 0.04384 0.56534 0.3892 0.0
H21 H 0.03145 0.55698 0.35665 0.0
H22 H 0.97617 0.46164 0.32506 0.0
H23 H 0.93284 0.44353 0.33711 0.0
H24 H 0.94844 0.51573 0.35263 0.0
H25 H 0.9911 0.53365 0.34007 0.0
O26 O 0.0637 0.51313 0.20841 0.0
O27 O 0.04293 0.53309 0.2061 0.0
O28 O 0.14599 0.57964 0.38999 0.0
O29 O 0.14423 0.61335 0.38544 0.0
C30 C 0.01572 0.51004 0.30414 0.0
C31 C 0.04022 0.52341 0.29614 0.0
C32 C 0.06159 0.53682 0.30762 0.0
C33 C 0.05853 0.53638 0.32707 0.0
C34 C 0.03411 0.52324 0.33505 0.0
C35 C 0.01261 0.51047 0.32363 0.0
C36 C 0.99352 0.496 0.29181 0.0
C37 C 0.9915 0.47662 0.28102 0.0
C38 C 0.97324 0.46602 0.26714 0.0
C39 C 0.95631 0.47422 0.26418 0.0
C40 C 0.95726 0.49252 0.27571 0.0
C41 C 0.97593 0.50353 0.28935 0.0
C42 C 0.04348 0.52385 0.27561 0.0
C43 C 0.05604 0.51294 0.2675 0.0
C44 C 0.05873 0.51295 0.24819 0.0
C45 C 0.04888 0.52387 0.23665 0.0
C46 C 0.03642 0.53492 0.24486 0.0
C47 C 0.03383 0.53497 0.26417 0.0
C48 C 0.08702 0.5526 0.29928 0.0
C49 C 0.10639 0.54761 0.30229 0.0
C50 C 0.13069 0.56345 0.2954 0.0
C51 C 0.13596 0.5844 0.28511 0.0
C52 C 0.11617 0.58879 0.28161 0.0
C53 C 0.09204 0.57318 0.28877 0.0
C54 C 0.08073 0.55084 0.33933 0.0
C55 C 0.09145 0.53921 0.3489 0.0
C56 C 0.11003 0.55197 0.36232 0.0
C57 C 0.11825 0.57664 0.36636 0.0
C58 C 0.10799 0.58844 0.35628 0.0
C59 C 0.08941 0.57563 0.34285 0.0
C60 C 0.03191 0.5232 0.35557 0.0
C61 C 0.03528 0.50643 0.36592 0.0
C62 C 0.04356 0.51173 0.38433 0.0
C63 C 0.0481 0.53369 0.39273 0.0
C64 C 0.04137 0.5487 0.383 0.0
C65 C 0.03367 0.54367 0.36448 0.0
C66 C 0.98695 0.49895 0.33196 0.0
C67 C 0.97023 0.47347 0.33119 0.0
C68 C 0.94555 0.46318 0.33802 0.0
C69 C 0.93742 0.47822 0.34598 0.0
C70 C 0.95435 0.50365 0.34693 0.0
C71 C 0.97877 0.51391 0.33984 0.0
C72 C 0.0516 0.5237 0.21614 0.0
C73 C 0.13705 0.5899 0.38127 0.0
H74 H 0.4883 0.06117 0.37631 0.0
H75 H 0.45023 0.18741 0.54683 0.0
H76 H 0.46665 0.02259 0.47938 0.0
H77 H 0.46799 0.99237 0.45922 0.0
H78 H 0.39061 0.96542 0.443 0.0
H79 H 0.38912 0.99491 0.46423 0.0
H80 H 0.48416 0.07117 0.45698 0.0
H81 H 0.4936 0.07069 0.42391 0.0
H82 H 0.41419 0.03763 0.41118 0.0
H83 H 0.40509 0.03833 0.44428 0.0
H84 H 0.49116 0.11347 0.48589 0.0
H85 H 0.51153 0.15259 0.46935 0.0
H86 H 0.4425 0.12932 0.43891 0.0
H87 H 0.42202 0.09046 0.45608 0.0
H88 H 0.47616 0.09997 0.52673 0.0
H89 H 0.48548 0.13664 0.5444 0.0
H90 H 0.42451 0.13827 0.51629 0.0
H91 H 0.41511 0.10133 0.49893 0.0
H92 H 0.45416 0.04317 0.53749 0.0
H93 H 0.45873 0.05435 0.57038 0.0
H94 H 0.40281 0.07541 0.56452 0.0
H95 H 0.39732 0.06302 0.53171 0.0
H96 H 0.4458 0.00444 0.5108 0.0
H97 H 0.42623 0.96398 0.52507 0.0
H98 H 0.35711 0.9649 0.53267 0.0
H99 H 0.3764 0.00458 0.51697 0.0
O100 O 0.4842 0.06146 0.38927 0.0
O101 O 0.44332 0.04542 0.38339 0.0
O102 O 0.4779 0.17105 0.55421 0.0
O103 O 0.44711 0.17304 0.53988 0.0
C104 C 0.42895 0.03189 0.48301 0.0
C105 C 0.43816 0.05404 0.47307 0.0
C106 C 0.44303 0.07555 0.4824 0.0
C107 C 0.43835 0.07486 0.50169 0.0
C108 C 0.42827 0.05243 0.51159 0.0
C109 C 0.4235 0.03087 0.5022 0.0
C110 C 0.42773 0.01069 0.47338 0.0
C111 C 0.44975 0.00958 0.47193 0.0
C112 C 0.45056 0.99254 0.46018 0.0
C113 C 0.42955 0.97672 0.44922 0.0
C114 C 0.40706 0.97714 0.45136 0.0
C115 C 0.40615 0.99398 0.46344 0.0
C116 C 0.44398 0.05484 0.45295 0.0
C117 C 0.46889 0.06401 0.44698 0.0
C118 C 0.47419 0.06363 0.42811 0.0
C119 C 0.45464 0.05407 0.4149 0.0
C120 C 0.42969 0.04511 0.42098 0.0
C121 C 0.42444 0.04551 0.43985 0.0
C122 C 0.4551 0.09924 0.47225 0.0
C123 C 0.48042 0.11691 0.47572 0.0
C124 C 0.49208 0.13913 0.46611 0.0
C125 C 0.47868 0.14403 0.45272 0.0
C126 C 0.45327 0.12621 0.44925 0.0
C127 C 0.44158 0.10398 0.45895 0.0
C128 C 0.44485 0.09792 0.51165 0.0
C129 C 0.46485 0.10829 0.52442 0.0
C130 C 0.47014 0.12924 0.53447 0.0
C131 C 0.45568 0.14035 0.5318 0.0
C132 C 0.43597 0.13015 0.51872 0.0
C133 C 0.43061 0.10911 0.50873 0.0
C134 C 0.42557 0.05249 0.53214 0.0
C135 C 0.44195 0.04902 0.54347 0.0
C136 C 0.44464 0.05552 0.56224 0.0
C137 C 0.43129 0.06594 0.56983 0.0
C138 C 0.41334 0.06747 0.55889 0.0
C139 C 0.4102 0.06039 0.54022 0.0
C140 C 0.41231 0.00716 0.51234 0.0
C141 C 0.4263 0.9957 0.51526 0.0
C142 C 0.41516 0.9727 0.52376 0.0
C143 C 0.38992 0.9609 0.52995 0.0
C144 C 0.37634 0.97303 0.52769 0.0
C145 C 0.38739 0.99585 0.51888 0.0
C146 C 0.46027 0.05336 0.3949 0.0
C147 C 0.46099 0.1624 0.54266 0.0
H148 H 0.58198 0.55659 0.77466 0.0
H149 H 0.59554 0.486 0.56845 0.0
H150 H 0.56379 0.60757 0.68781 0.0
H151 H 0.54571 0.62026 0.71261 0.0
H152 H 0.47113 0.5607 0.69832 0.0
H153 H 0.48952 0.54793 0.67363 0.0
H154 H 0.59398 0.57861 0.69504 0.0
H155 H 0.59656 0.57417 0.72863 0.0
H156 H 0.51608 0.52258 0.7304 0.0
H157 H 0.51383 0.52695 0.69677 0.0
H158 H 0.61268 0.55866 0.66258 0.0
H159 H 0.629 0.53334 0.6747 0.0
H160 H 0.55266 0.4756 0.68721 0.0
H161 H 0.53675 0.50109 0.6754 0.0
H162 H 0.60713 0.57603 0.62339 0.0
H163 H 0.62416 0.56189 0.59878 0.0
H164 H 0.56085 0.48802 0.60568 0.0
H165 H 0.544 0.50247 0.63024 0.0
H166 H 0.57839 0.59936 0.61205 0.0
H167 H 0.58686 0.59656 0.57911 0.0
H168 H 0.52606 0.52079 0.57856 0.0
H169 H 0.51753 0.52403 0.61112 0.0
H170 H 0.54402 0.61501 0.64916 0.0
H171 H 0.51506 0.62827 0.63897 0.0
H172 H 0.46564 0.55615 0.61576 0.0
H173 H 0.49366 0.54273 0.62719 0.0
O174 O 0.58053 0.55805 0.76138 0.0
O175 O 0.53907 0.5318 0.76156 0.0
O176 O 0.62294 0.52976 0.57662 0.0
O177 O 0.58985 0.49183 0.57874 0.0
C178 C 0.53946 0.56731 0.66591 0.0
C179 C 0.55229 0.55595 0.67311 0.0
C180 C 0.5633 0.54663 0.66089 0.0
C181 C 0.5624 0.54955 0.64157 0.0
C182 C 0.54907 0.56038 0.63436 0.0
C183 C 0.5372 0.56893 0.64647 0.0
C184 C 0.52795 0.57686 0.67899 0.0
C185 C 0.54351 0.59757 0.68983 0.0
C186 C 0.53314 0.60483 0.70392 0.0
C187 C 0.50701 0.59141 0.70743 0.0
C188 C 0.49134 0.57123 0.69602 0.0
C189 C 0.50175 0.56404 0.68186 0.0
C190 C 0.55371 0.55324 0.69352 0.0
C191 C 0.57695 0.56635 0.70272 0.0
C192 C 0.57835 0.56379 0.7219 0.0
C193 C 0.55652 0.54806 0.73221 0.0
C194 C 0.53325 0.53489 0.72289 0.0
C195 C 0.53189 0.53742 0.7037 0.0
C196 C 0.57357 0.53172 0.66825 0.0
C197 C 0.59959 0.54055 0.668 0.0
C198 C 0.60883 0.52605 0.67484 0.0
C199 C 0.59214 0.50252 0.68204 0.0
C200 C 0.56608 0.4938 0.68213 0.0
C201 C 0.55692 0.50827 0.67531 0.0
C202 C 0.57439 0.54026 0.62858 0.0
C203 C 0.5972 0.55674 0.61976 0.0
C204 C 0.60681 0.54863 0.60565 0.0
C205 C 0.59375 0.52384 0.60016 0.0
C206 C 0.57131 0.50724 0.60951 0.0
C207 C 0.56174 0.51538 0.62363 0.0
C208 C 0.54744 0.56186 0.61392 0.0
C209 C 0.56608 0.58262 0.60449 0.0
C210 C 0.57111 0.58085 0.58577 0.0
C211 C 0.55752 0.55829 0.57634 0.0
C212 C 0.53683 0.53848 0.58531 0.0
C213 C 0.53182 0.5403 0.60396 0.0
C214 C 0.52102 0.57791 0.63887 0.0
C215 C 0.52691 0.60213 0.64186 0.0
C216 C 0.51041 0.60972 0.63589 0.0
C217 C 0.48784 0.59326 0.62661 0.0
C218 C 0.4825 0.56922 0.62319 0.0
C219 C 0.49875 0.56159 0.62943 0.0
C220 C 0.55807 0.54541 0.75259 0.0
C221 C 0.60318 0.5154 0.5845 0.0
H222 H 0.02449 0.43044 0.94789 0.0
H223 H 0.17068 0.48375 0.76197 0.0
H224 H 0.98581 0.43895 0.85375 0.0
H225 H 0.94917 0.4221 0.87425 0.0
H226 H 0.92808 0.34871 0.85706 0.0
H227 H 0.96541 0.36599 0.83661 0.0
H228 H 0.03856 0.45897 0.86952 0.0
H229 H 0.03576 0.45434 0.90337 0.0
H230 H 0.00613 0.3765 0.89705 0.0
H231 H 0.00923 0.38145 0.86321 0.0
H232 H 0.08122 0.48444 0.83843 0.0
H233 H 0.12061 0.50449 0.85584 0.0
H234 H 0.10788 0.43353 0.87228 0.0
H235 H 0.06896 0.41359 0.85387 0.0
H236 H 0.07249 0.48511 0.79983 0.0
H237 H 0.11144 0.50545 0.7815 0.0
H238 H 0.12004 0.44258 0.78905 0.0
H239 H 0.08075 0.42225 0.80707 0.0
H240 H 0.01719 0.46414 0.79023 0.0
H241 H 0.03259 0.4851 0.76055 0.0
H242 H 0.05455 0.43292 0.74465 0.0
H243 H 0.0396 0.41245 0.77474 0.0
H244 H 0.96976 0.43398 0.81587 0.0
H245 H 0.92909 0.41703 0.80022 0.0
H246 H 0.94263 0.3648 0.77168 0.0
H247 H 0.98274 0.38115 0.7882 0.0
O248 O 0.02577 0.43191 0.93449 0.0
O249 O 0.01052 0.39198 0.9305 0.0
O250 O 0.14971 0.50784 0.76553 0.0
O251 O 0.15538 0.47626 0.76938 0.0
C252 C 0.00231 0.41433 0.83337 0.0
C253 C 0.02507 0.4233 0.84339 0.0
C254 C 0.04847 0.4358 0.83399 0.0
C255 C 0.04906 0.43902 0.81454 0.0
C256 C 0.02626 0.43015 0.80453 0.0
C257 C 0.00285 0.41768 0.81391 0.0
C258 C 0.97818 0.40367 0.84375 0.0
C259 C 0.97303 0.41926 0.85416 0.0
C260 C 0.95198 0.40957 0.86576 0.0
C261 C 0.93562 0.38405 0.86717 0.0
C262 C 0.94041 0.36843 0.85627 0.0
C263 C 0.96155 0.37822 0.84454 0.0
C264 C 0.02427 0.42057 0.86395 0.0
C265 C 0.03171 0.44099 0.87549 0.0
C266 C 0.02998 0.43827 0.89481 0.0
C267 C 0.02073 0.41505 0.90292 0.0
C268 C 0.01336 0.39464 0.89127 0.0
C269 C 0.01513 0.3974 0.87195 0.0
C270 C 0.0724 0.44758 0.84471 0.0
C271 C 0.08709 0.47322 0.84562 0.0
C272 C 0.10943 0.48465 0.85582 0.0
C273 C 0.11738 0.47065 0.8656 0.0
C274 C 0.10248 0.44487 0.86476 0.0
C275 C 0.08019 0.43344 0.85435 0.0
C276 C 0.0737 0.45213 0.80462 0.0
C277 C 0.08281 0.47577 0.79749 0.0
C278 C 0.10508 0.48735 0.78706 0.0
C279 C 0.1188 0.47558 0.78373 0.0
C280 C 0.1099 0.45212 0.79129 0.0
C281 C 0.08753 0.4405 0.80164 0.0
C282 C 0.02754 0.43697 0.78468 0.0
C283 C 0.02437 0.45664 0.78003 0.0
C284 C 0.03327 0.46864 0.76302 0.0
C285 C 0.04533 0.46101 0.75037 0.0
C286 C 0.04591 0.4396 0.75429 0.0
C287 C 0.0371 0.42768 0.77135 0.0
C288 C 0.97898 0.40851 0.80342 0.0
C289 C 0.96384 0.41878 0.80632 0.0
C290 C 0.94074 0.40925 0.79716 0.0
C291 C 0.93247 0.38945 0.78472 0.0
C292 C 0.94816 0.37974 0.78141 0.0
C293 C 0.97117 0.38916 0.79072 0.0
C294 C 0.01869 0.41219 0.92345 0.0
C295 C 0.14222 0.48762 0.77235 0.0
H296 H 0.40947 0.00618 0.87076 0.0
H297 H 0.42439 0.86878 0.03556 0.0
H298 H 0.44469 0.05754 0.96244 0.0
H299 H 0.46524 0.0936 0.94211 0.0
H300 H 0.53749 0.10048 0.95303 0.0
H301 H 0.51687 0.06481 0.9734 0.0
H302 H 0.40905 0.99632 0.95166 0.0
H303 H 0.40158 0.99719 0.91833 0.0
H304 H 0.48173 0.03102 0.90795 0.0
H305 H 0.48888 0.02969 0.94124 0.0
H306 H 0.39899 0.94765 0.98068 0.0
H307 H 0.38691 0.90788 0.96702 0.0
H308 H 0.45697 0.94186 0.93588 0.0
H309 H 0.46997 0.98058 0.95125 0.0
H310 H 0.41006 0.9649 0.022 0.0
H311 H 0.39669 0.92574 0.03739 0.0
H312 H 0.45689 0.92198 0.0096 0.0
H313 H 0.4703 0.96133 0.99455 0.0
H314 H 0.43552 0.01646 0.03678 0.0
H315 H 0.43832 0.00803 0.06972 0.0
H316 H 0.4992 0.99552 0.05649 0.0
H317 H 0.49634 0.00411 0.02377 0.0
H318 H 0.45655 0.06776 0.00694 0.0
H319 H 0.48262 0.10821 0.02133 0.0
H320 H 0.54362 0.09384 0.02709 0.0
H321 H 0.51729 0.05347 0.0131 0.0
O322 O 0.41284 0.00595 0.88387 0.0
O323 O 0.45423 0.02353 0.87931 0.0
O324 O 0.39953 0.88778 0.04446 0.0
O325 O 0.42953 0.8845 0.02992 0.0
C326 C 0.46683 0.03484 0.97939 0.0
C327 C 0.45381 0.01267 0.96918 0.0
C328 C 0.4453 0.98999 0.97822 0.0
C329 C 0.44892 0.98951 0.99761 0.0
C330 C 0.46118 0.01164 0.00785 0.0
C331 C 0.4703 0.03429 0.99875 0.0
C332 C 0.47931 0.0586 0.96935 0.0
C333 C 0.46501 0.0672 0.9607 0.0
C334 C 0.47677 0.08767 0.94903 0.0
C335 C 0.50299 0.09981 0.94584 0.0
C336 C 0.51735 0.09181 0.95534 0.0
C337 C 0.50559 0.07139 0.96698 0.0
C338 C 0.44951 0.01316 0.94889 0.0
C339 C 0.42495 0.00388 0.94215 0.0
C340 C 0.42075 0.00443 0.92312 0.0
C341 C 0.44107 0.01427 0.91048 0.0
C342 C 0.46567 0.02341 0.9173 0.0
C343 C 0.46982 0.02278 0.93632 0.0
C344 C 0.43548 0.96704 0.96713 0.0
C345 C 0.41163 0.94644 0.97084 0.0
C346 C 0.40466 0.92372 0.96284 0.0
C347 C 0.42115 0.92138 0.95055 0.0
C348 C 0.4441 0.94262 0.94574 0.0
C349 C 0.45138 0.96503 0.95422 0.0
C350 C 0.44107 0.96588 0.00713 0.0
C351 C 0.4204 0.95565 0.01935 0.0
C352 C 0.41278 0.93326 0.02808 0.0
C353 C 0.42567 0.92068 0.02467 0.0
C354 C 0.44651 0.93113 0.0125 0.0
C355 C 0.45419 0.95359 0.00387 0.0
C356 C 0.4657 0.01083 0.02798 0.0
C357 C 0.44983 0.01248 0.04114 0.0
C358 C 0.45135 0.0075 0.05986 0.0
C359 C 0.4689 0.001 0.06565 0.0
C360 C 0.48569 0.00075 0.05252 0.0
C361 C 0.48405 0.00556 0.03383 0.0
C362 C 0.48497 0.05764 0.00917 0.0
C363 C 0.47541 0.07328 0.01163 0.0
C364 C 0.49039 0.09641 0.01971 0.0
C365 C 0.51522 0.10429 0.02539 0.0
C366 C 0.52444 0.08823 0.02324 0.0
C367 C 0.50945 0.06514 0.01522 0.0
C368 C 0.43655 0.0149 0.89028 0.0
C369 C 0.4174 0.89669 0.03366 0.0
H370 H 0.6463 0.65037 0.02169 0.0
H371 H 0.73893 0.59398 0.2142 0.0
H372 H 0.60459 0.64486 0.12902 0.0
H373 H 0.58224 0.65775 0.10864 0.0
H374 H 0.65196 0.72596 0.098 0.0
H375 H 0.67438 0.71236 0.1183 0.0
H376 H 0.62709 0.63132 0.10132 0.0
H377 H 0.62771 0.63404 0.06738 0.0
H378 H 0.70775 0.68741 0.06901 0.0
H379 H 0.70675 0.68479 0.10302 0.0
H380 H 0.64813 0.60358 0.1149 0.0
H381 H 0.66118 0.57685 0.10066 0.0
H382 H 0.73804 0.62679 0.11801 0.0
H383 H 0.72486 0.65386 0.13175 0.0
H384 H 0.6536 0.59453 0.15766 0.0
H385 H 0.66832 0.57164 0.1757 0.0
H386 H 0.73437 0.63998 0.19224 0.0
H387 H 0.71953 0.66259 0.17397 0.0
H388 H 0.62463 0.61522 0.18019 0.0
H389 H 0.62176 0.60084 0.21194 0.0
H390 H 0.6911 0.66798 0.22554 0.0
H391 H 0.69405 0.68188 0.19332 0.0
H392 H 0.60385 0.64467 0.16398 0.0
H393 H 0.58237 0.6631 0.17962 0.0
H394 H 0.65416 0.73049 0.18658 0.0
H395 H 0.6751 0.71218 0.1699 0.0
O396 O 0.64653 0.64948 0.03511 0.0
O397 O 0.68782 0.67624 0.03663 0.0
O398 O 0.69896 0.56789 0.19737 0.0
O399 O 0.73291 0.60254 0.20666 0.0
C400 C 0.65457 0.66781 0.13538 0.0
C401 C 0.66621 0.65713 0.12524 0.0
C402 C 0.67672 0.64505 0.13474 0.0
C403 C 0.67591 0.64402 0.15435 0.0
C404 C 0.66412 0.65457 0.16442 0.0
C405 C 0.65359 0.66657 0.15498 0.0
C406 C 0.64098 0.6778 0.12527 0.0
C407 C 0.61489 0.66289 0.12273 0.0
C408 C 0.60215 0.67038 0.11108 0.0
C409 C 0.61526 0.69301 0.10175 0.0
C410 C 0.64135 0.70837 0.10489 0.0
C411 C 0.65414 0.70076 0.11655 0.0
C412 C 0.66682 0.65808 0.1046 0.0
C413 C 0.6447 0.6437 0.09432 0.0
C414 C 0.64513 0.64523 0.07493 0.0
C415 C 0.66776 0.66102 0.06548 0.0
C416 C 0.68999 0.67512 0.07586 0.0
C417 C 0.6895 0.67363 0.09526 0.0
C418 C 0.68558 0.63071 0.12425 0.0
C419 C 0.66789 0.60903 0.11523 0.0
C420 C 0.67533 0.59365 0.10732 0.0
C421 C 0.7006 0.59959 0.10837 0.0
C422 C 0.71848 0.62181 0.11683 0.0
C423 C 0.711 0.63724 0.12474 0.0
C424 C 0.68558 0.63017 0.16447 0.0
C425 C 0.67137 0.60447 0.16504 0.0
C426 C 0.67977 0.59147 0.17542 0.0
C427 C 0.70252 0.60399 0.18546 0.0
C428 C 0.71679 0.62977 0.18469 0.0
C429 C 0.70839 0.64273 0.17426 0.0
C430 C 0.65956 0.64949 0.18454 0.0
C431 C 0.63874 0.62714 0.19021 0.0
C432 C 0.63714 0.61901 0.2084 0.0
C433 C 0.65634 0.63317 0.22128 0.0
C434 C 0.67621 0.65649 0.21588 0.0
C435 C 0.67782 0.66459 0.19758 0.0
C436 C 0.64091 0.67725 0.16558 0.0
C437 C 0.61484 0.66345 0.16883 0.0
C438 C 0.60267 0.67397 0.17796 0.0
C439 C 0.61646 0.6984 0.18433 0.0
C440 C 0.64281 0.71186 0.18153 0.0
C441 C 0.65488 0.7014 0.17215 0.0
C442 C 0.66809 0.66276 0.04489 0.0
C443 C 0.71128 0.5903 0.19681 0.0
O444 O 0.62113 0.44988 0.41711 0.0
Cd445 Cd 0.62463 0.43535 0.39253 0.0
Cd446 Cd 0.6737 0.46633 0.39881 0.0
O447 O 0.66158 0.47271 0.42388 0.0
O448 O 0.59253 0.40337 0.38976 0.0
O449 O 0.62984 0.4067 0.39316 0.0
C450 C 0.60562 0.39289 0.39153 0.0
C451 C 0.70693 0.45885 0.39726 0.0
C452 C 0.63856 0.46458 0.42801 0.0
C453 C 0.65046 0.47577 0.36535 0.0
O454 O 0.66968 0.48316 0.37571 0.0
O455 O 0.63008 0.45589 0.369 0.0
O456 O 0.7108 0.48045 0.40071 0.0
O457 O 0.68386 0.44107 0.39543 0.0
O458 O 0.22541 0.61975 0.60546 0.0
Cd459 Cd 0.24633 0.63018 0.58133 0.0
Cd460 Cd 0.23168 0.66429 0.58161 0.0
O461 O 0.21236 0.64623 0.60549 0.0
O462 O 0.26338 0.61081 0.58221 0.0
O463 O 0.28443 0.65132 0.5823 0.0
C464 C 0.28471 0.63114 0.58292 0.0
C465 C 0.25675 0.70697 0.58118 0.0
C466 C 0.21263 0.62816 0.61279 0.0
C467 C 0.21543 0.62967 0.54901 0.0
O468 O 0.21577 0.64793 0.55658 0.0
O469 O 0.22651 0.61971 0.55661 0.0
O470 O 0.23245 0.69596 0.58093 0.0
O471 O 0.26699 0.69364 0.58226 0.0
O472 O 0.61528 0.22572 0.76754 0.0
Cd473 Cd 0.62796 0.23934 0.74113 0.0
Cd474 Cd 0.60063 0.26011 0.74647 0.0
O475 O 0.60065 0.25017 0.77369 0.0
O476 O 0.65994 0.23935 0.73725 0.0
O477 O 0.65805 0.27322 0.73885 0.0
C478 C 0.67149 0.26301 0.7373 0.0
C479 C 0.61036 0.30003 0.74019 0.0
C480 C 0.60591 0.23424 0.77895 0.0
C481 C 0.58268 0.22072 0.7174 0.0
O482 O 0.57684 0.23313 0.72798 0.0
O483 O 0.60389 0.22215 0.7191 0.0
O484 O 0.58901 0.28409 0.74745 0.0
O485 O 0.62647 0.29334 0.73658 0.0
O486 O 0.463 0.6803 0.93636 0.0
Cd487 Cd 0.44106 0.67885 0.91432 0.0
Cd488 Cd 0.41622 0.63086 0.92256 0.0
O489 O 0.43959 0.64183 0.94548 0.0
O490 O 0.45072 0.7135 0.91033 0.0
O491 O 0.41223 0.68459 0.91866 0.0
C492 C 0.42793 0.70731 0.91467 0.0
C493 C 0.37265 0.60845 0.92566 0.0
C494 C 0.45851 0.6633 0.94778 0.0
C495 C 0.44075 0.64536 0.88499 0.0
O496 O 0.42983 0.62828 0.8969 0.0
O497 O 0.44614 0.66701 0.88896 0.0
O498 O 0.38587 0.59807 0.92726 0.0
O499 O 0.38441 0.6319 0.92307 0.0
O500 O 0.79728 0.35923 0.04467 0.0
Cd501 Cd 0.77689 0.35904 0.06769 0.0
Cd502 Cd 0.79885 0.40687 0.05967 0.0
O503 O 0.80825 0.39644 0.03537 0.0
O504 O 0.75096 0.32407 0.07206 0.0
O505 O 0.74155 0.35182 0.06321 0.0
C506 C 0.73411 0.32931 0.06736 0.0
C507 C 0.7804 0.43087 0.05902 0.0
C508 C 0.80733 0.37623 0.03261 0.0
C509 C 0.81279 0.39422 0.0958 0.0
O510 O 0.8191 0.41053 0.08337 0.0
O511 O 0.79475 0.37244 0.09295 0.0
O512 O 0.80401 0.44001 0.05523 0.0
O513 O 0.76693 0.40766 0.06255 0.0
O514 O 0.47123 0.86509 0.23516 0.0
Cd515 Cd 0.47173 0.8443 0.25683 0.0
Cd516 Cd 0.42038 0.82318 0.25542 0.0
O517 O 0.42981 0.84667 0.23301 0.0
O518 O 0.5039 0.84447 0.25448 0.0
O519 O 0.46616 0.81077 0.25195 0.0
C520 C 0.49049 0.82115 0.25147 0.0
C521 C 0.38292 0.78516 0.25276 0.0
C522 C 0.45169 0.86273 0.22732 0.0
C523 C 0.44787 0.84998 0.29076 0.0
O524 O 0.42726 0.83776 0.28191 0.0
O525 O 0.46865 0.85482 0.28333 0.0
O526 O 0.38291 0.80529 0.25472 0.0
O527 O 0.40451 0.7865 0.25198 0.0
H528 H 0.17207 0.5747 0.27216 0.0
H529 H 0.21549 0.6044 0.2627 0.0
H530 H 0.20223 0.66368 0.27342 0.0
H531 H 0.15941 0.63447 0.28363 0.0
H532 H 0.22638 0.66696 0.23868 0.0
H533 H 0.23224 0.65178 0.30443 0.0
H534 H 0.2268 0.62521 0.33115 0.0
H535 H 0.27401 0.60266 0.30448 0.0
H536 H 0.27942 0.62886 0.27746 0.0
H537 H 0.33573 0.77819 0.25446 0.0
H538 H 0.29568 0.73968 0.25525 0.0
H539 H 0.33461 0.69965 0.25029 0.0
H540 H 0.3753 0.73858 0.24988 0.0
H541 H 0.29925 0.68032 0.27687 0.0
H542 H 0.30001 0.70126 0.21373 0.0
H543 H 0.30574 0.72763 0.18682 0.0
H544 H 0.24652 0.73827 0.20712 0.0
H545 H 0.24066 0.71227 0.2343 0.0
C546 C 0.17844 0.59406 0.27267 0.0
C547 C 0.16211 0.60212 0.27864 0.0
C548 C 0.2032 0.61097 0.26714 0.0
C549 C 0.21197 0.63618 0.26733 0.0
C550 C 0.19569 0.64426 0.27301 0.0
C551 C 0.17113 0.62746 0.27875 0.0
C552 C 0.23829 0.65448 0.26214 0.0
C553 C 0.24237 0.66994 0.24699 0.0
C554 C 0.25914 0.65765 0.27258 0.0
C555 C 0.25595 0.642 0.28884 0.0
C556 C 0.24126 0.64097 0.30419 0.0
C557 C 0.23822 0.62602 0.3194 0.0
C558 C 0.24998 0.61218 0.31949 0.0
C559 C 0.26486 0.61334 0.30438 0.0
C560 C 0.26792 0.62823 0.28912 0.0
C561 C 0.3359 0.76126 0.25337 0.0
C562 C 0.35874 0.76147 0.25207 0.0
C563 C 0.31289 0.73919 0.2537 0.0
C564 C 0.31207 0.71675 0.2525 0.0
C565 C 0.33481 0.71678 0.2511 0.0
C566 C 0.358 0.739 0.25083 0.0
C567 C 0.28733 0.69351 0.25377 0.0
C568 C 0.28347 0.67705 0.26818 0.0
C569 C 0.26666 0.68928 0.24252 0.0
C570 C 0.26997 0.70486 0.22612 0.0
C571 C 0.2883 0.70934 0.21252 0.0
C572 C 0.29156 0.72421 0.19721 0.0
C573 C 0.27652 0.73464 0.19527 0.0
C574 C 0.25815 0.73017 0.20863 0.0
C575 C 0.25482 0.71532 0.22398 0.0
H576 H 0.27907 0.74615 0.1834 0.0
H577 H 0.24762 0.60063 0.33128 0.0
H578 H 0.52673 0.1691 0.43866 0.0
H579 H 0.54846 0.20982 0.42447 0.0
H580 H 0.4808 0.21347 0.42951 0.0
H581 H 0.45898 0.17287 0.44402 0.0
H582 H 0.50573 0.23172 0.39557 0.0
H583 H 0.52511 0.24114 0.46103 0.0
H584 H 0.54002 0.23273 0.49029 0.0
H585 H 0.61293 0.25824 0.4658 0.0
H586 H 0.59831 0.26646 0.43628 0.0
H587 H 0.55501 0.35992 0.39301 0.0
H588 H 0.53412 0.31608 0.39926 0.0
H589 H 0.60636 0.32065 0.39959 0.0
H590 H 0.62752 0.36484 0.39385 0.0
H591 H 0.58037 0.29713 0.42899 0.0
H592 H 0.56201 0.29099 0.36403 0.0
H593 H 0.54687 0.2993 0.33484 0.0
H594 H 0.47234 0.26789 0.35795 0.0
H595 H 0.4871 0.25968 0.38738 0.0
C596 C 0.51646 0.17857 0.43679 0.0
C597 C 0.4912 0.16785 0.44268 0.0
C598 C 0.52887 0.20176 0.42858 0.0
C599 C 0.5163 0.21473 0.42613 0.0
C600 C 0.4908 0.20371 0.43126 0.0
C601 C 0.47837 0.1805 0.43952 0.0
C602 C 0.53018 0.24032 0.41922 0.0
C603 C 0.52194 0.24612 0.40291 0.0
C604 C 0.55165 0.2589 0.42861 0.0
C605 C 0.56053 0.25416 0.44639 0.0
C606 C 0.54426 0.24477 0.46183 0.0
C607 C 0.55266 0.24007 0.47847 0.0
C608 C 0.57738 0.24488 0.47988 0.0
C609 C 0.59377 0.25448 0.46467 0.0
C610 C 0.58544 0.25918 0.44799 0.0
C611 C 0.56647 0.35157 0.39413 0.0
C612 C 0.59295 0.36588 0.39299 0.0
C613 C 0.55445 0.32642 0.3976 0.0
C614 C 0.56862 0.31496 0.39972 0.0
C615 C 0.59503 0.32909 0.39799 0.0
C616 C 0.6071 0.35432 0.39466 0.0
C617 C 0.55601 0.28875 0.40524 0.0
C618 C 0.56439 0.28278 0.42142 0.0
C619 C 0.5347 0.27007 0.39569 0.0
C620 C 0.52572 0.27489 0.37797 0.0
C621 C 0.54243 0.28601 0.36294 0.0
C622 C 0.53391 0.29068 0.34634 0.0
C623 C 0.50868 0.28417 0.34456 0.0
C624 C 0.49189 0.27293 0.35936 0.0
C625 C 0.50031 0.26824 0.37599 0.0
H626 H 0.50212 0.2878 0.33169 0.0
H627 H 0.58386 0.24123 0.49278 0.0
H628 H 0.49776 0.6381 0.61335 0.0
H629 H 0.46714 0.64968 0.6039 0.0
H630 H 0.40604 0.57687 0.61691 0.0
H631 H 0.43617 0.56544 0.62719 0.0
H632 H 0.40347 0.59502 0.58073 0.0
H633 H 0.41721 0.61937 0.64588 0.0
H634 H 0.44365 0.64253 0.67268 0.0
H635 H 0.46756 0.71035 0.64413 0.0
H636 H 0.44151 0.68753 0.61704 0.0
H637 H 0.28947 0.59133 0.58798 0.0
H638 H 0.32788 0.59029 0.59263 0.0
H639 H 0.3724 0.66904 0.58711 0.0
H640 H 0.33358 0.67031 0.58291 0.0
H641 H 0.3891 0.65446 0.6154 0.0
H642 H 0.37141 0.63136 0.55206 0.0
H643 H 0.34578 0.60912 0.5247 0.0
H644 H 0.33117 0.54086 0.54803 0.0
H645 H 0.3564 0.56263 0.57566 0.0
C646 C 0.47781 0.62463 0.61446 0.0
C647 C 0.46952 0.60073 0.62092 0.0
C648 C 0.46037 0.63126 0.60893 0.0
C649 C 0.43438 0.61407 0.60962 0.0
C650 C 0.42605 0.59032 0.6161 0.0
C651 C 0.44337 0.58378 0.62185 0.0
C652 C 0.41558 0.62049 0.60357 0.0
C653 C 0.40022 0.60795 0.58831 0.0
C654 C 0.4121 0.63807 0.61305 0.0
C655 C 0.42769 0.65175 0.62935 0.0
C656 C 0.4283 0.63921 0.64524 0.0
C657 C 0.44317 0.65227 0.6605 0.0
C658 C 0.45735 0.67789 0.66008 0.0
C659 C 0.45662 0.6905 0.64442 0.0
C660 C 0.4418 0.67751 0.62912 0.0
C661 C 0.30739 0.60848 0.58762 0.0
C662 C 0.30846 0.63091 0.58497 0.0
C663 C 0.32941 0.60783 0.59019 0.0
C664 C 0.35311 0.62953 0.58986 0.0
C665 C 0.35433 0.65204 0.5873 0.0
C666 C 0.33216 0.65273 0.58485 0.0
C667 C 0.3763 0.62836 0.59285 0.0
C668 C 0.39256 0.64189 0.60752 0.0
C669 C 0.38084 0.61187 0.58265 0.0
C670 C 0.36572 0.59865 0.566 0.0
C671 C 0.3626 0.61159 0.55142 0.0
C672 C 0.34816 0.59907 0.53585 0.0
C673 C 0.33683 0.5736 0.53464 0.0
C674 C 0.33996 0.5606 0.54898 0.0
C675 C 0.35437 0.57302 0.56459 0.0
H676 H 0.32565 0.56393 0.52258 0.0
H677 H 0.46885 0.68798 0.67191 0.0
H678 H 0.89855 0.34079 0.77821 0.0
H679 H 0.85619 0.32251 0.76519 0.0
H680 H 0.86613 0.39443 0.75867 0.0
H681 H 0.90891 0.41302 0.77121 0.0
H682 H 0.8218 0.36186 0.77675 0.0
H683 H 0.86527 0.36385 0.72098 0.0
H684 H 0.8938 0.35663 0.7015 0.0
H685 H 0.84675 0.27898 0.71011 0.0
H686 H 0.81812 0.28575 0.72988 0.0
H687 H 0.70156 0.31305 0.73571 0.0
H688 H 0.74752 0.33745 0.73891 0.0
H689 H 0.75031 0.27105 0.74213 0.0
H690 H 0.70457 0.24661 0.73843 0.0
H691 H 0.7896 0.30464 0.72306 0.0
H692 H 0.74986 0.30201 0.78153 0.0
H693 H 0.72144 0.30771 0.80238 0.0
H694 H 0.76166 0.38482 0.79019 0.0
H695 H 0.79013 0.3795 0.76906 0.0
C696 C 0.89202 0.35282 0.77364 0.0
C697 C 0.90721 0.37842 0.77578 0.0
C698 C 0.86773 0.34231 0.76624 0.0
C699 C 0.85809 0.35713 0.76086 0.0
C700 C 0.87324 0.38268 0.76275 0.0
C701 C 0.89762 0.39324 0.77003 0.0
C702 C 0.83166 0.34578 0.75433 0.0
C703 C 0.81485 0.34975 0.76477 0.0
C704 C 0.82253 0.3295 0.739 0.0
C705 C 0.83965 0.32534 0.72703 0.0
C706 C 0.86111 0.34524 0.71884 0.0
C707 C 0.87728 0.34123 0.70772 0.0
C708 C 0.87211 0.31737 0.7046 0.0
C709 C 0.85073 0.29746 0.71255 0.0
C710 C 0.83451 0.30138 0.7237 0.0
C711 C 0.71201 0.30366 0.73683 0.0
C712 C 0.6994 0.27789 0.73701 0.0
C713 C 0.73827 0.31762 0.73873 0.0
C714 C 0.75232 0.30607 0.74112 0.0
C715 C 0.73988 0.28038 0.74035 0.0
C716 C 0.71369 0.26642 0.73829 0.0
C717 C 0.77967 0.32052 0.74561 0.0
C718 C 0.79663 0.31706 0.73485 0.0
C719 C 0.78894 0.33706 0.76081 0.0
C720 C 0.77191 0.34031 0.77355 0.0
C721 C 0.75251 0.32015 0.78319 0.0
C722 C 0.73642 0.32331 0.79507 0.0
C723 C 0.73969 0.3466 0.79756 0.0
C724 C 0.75912 0.36678 0.78821 0.0
C725 C 0.77524 0.36371 0.77629 0.0
H726 H 0.72722 0.34902 0.80677 0.0
H727 H 0.88466 0.31429 0.69598 0.0
H728 H 0.3748 0.88031 0.94242 0.0
H729 H 0.3664 0.83948 0.93349 0.0
H730 H 0.44622 0.86621 0.93403 0.0
H731 H 0.45482 0.90623 0.94416 0.0
H732 H 0.415 0.83662 0.90028 0.0
H733 H 0.42095 0.839 0.9687 0.0
H734 H 0.40673 0.84368 -0.00028 0.0
H735 H 0.33169 0.78444 0.98788 0.0
H736 H 0.34543 0.77971 0.95664 0.0
H737 H 0.45803 0.75628 0.90879 0.0
H738 H 0.44701 0.78778 0.91138 0.0
H739 H 0.37012 0.73276 0.92483 0.0
H740 H 0.38126 0.70083 0.92264 0.0
H741 H 0.38694 0.77106 0.9478 0.0
H742 H 0.38384 0.76171 0.88253 0.0
H743 H 0.39742 0.7569 0.85132 0.0
H744 H 0.46436 0.82808 0.85579 0.0
H745 H 0.4514 0.8332 0.88714 0.0
C746 C 0.39059 0.8775 0.9408 0.0
C747 C 0.41556 0.89683 0.94391 0.0
C748 C 0.38571 0.85421 0.93554 0.0
C749 C 0.40574 0.85005 0.93299 0.0
C750 C 0.43057 0.86926 0.93571 0.0
C751 C 0.43543 0.89226 0.94135 0.0
C752 C 0.40129 0.82555 0.92819 0.0
C753 C 0.40872 0.82214 0.91056 0.0
C754 C 0.39226 0.80652 0.94147 0.0
C755 C 0.38411 0.80924 0.96027 0.0
C756 C 0.40136 0.82715 0.97264 0.0
C757 C 0.39341 0.82978 0.99028 0.0
C758 C 0.3683 0.81443 0.99574 0.0
C759 C 0.35112 0.79636 0.98361 0.0
C760 C 0.35897 0.7937 0.96594 0.0
C761 C 0.4387 0.75075 0.91215 0.0
C762 C 0.4205 0.72603 0.91546 0.0
C763 C 0.43237 0.76881 0.91351 0.0
C764 C 0.40761 0.76261 0.91794 0.0
C765 C 0.38929 0.73792 0.92124 0.0
C766 C 0.39567 0.71973 0.91997 0.0
C767 C 0.40171 0.78238 0.92002 0.0
C768 C 0.39239 0.78501 0.93718 0.0
C769 C 0.40877 0.80064 0.90619 0.0
C770 C 0.41664 0.7978 0.88724 0.0
C771 C 0.40152 0.77629 0.87691 0.0
C772 C 0.40911 0.77352 0.85918 0.0
C773 C 0.43174 0.79217 0.85158 0.0
C774 C 0.44681 0.81366 0.86168 0.0
C775 C 0.43933 0.81653 0.87942 0.0
H776 H 0.43759 0.78998 0.83785 0.0
H777 H 0.36217 0.81648 0.0094 0.0
H778 H 0.74289 0.60945 0.08856 0.0
H779 H 0.75512 0.58018 0.07825 0.0
H780 H 0.68694 0.52082 0.10233 0.0
H781 H 0.67498 0.54996 0.11311 0.0
H782 H 0.72758 0.51784 0.11137 0.0
H783 H 0.69245 0.52988 0.05558 0.0
H784 H 0.68818 0.55418 0.03073 0.0
H785 H 0.76528 0.58233 0.01445 0.0
H786 H 0.77012 0.55845 0.03939 0.0
H787 H 0.73385 0.41917 0.07218 0.0
H788 H 0.71868 0.44737 0.07831 0.0
H789 H 0.78784 0.50725 0.05585 0.0
H790 H 0.8031 0.47923 0.04961 0.0
H791 H 0.74633 0.50975 0.04544 0.0
H792 H 0.78245 0.49977 0.10125 0.0
H793 H 0.7881 0.47652 0.12625 0.0
H794 H 0.71067 0.44584 0.14271 0.0
H795 H 0.70446 0.46867 0.11761 0.0
C796 C 0.73056 0.59017 0.09169 0.0
C797 C 0.7079 0.582 0.10154 0.0
C798 C 0.73746 0.57345 0.08566 0.0
C799 C 0.72179 0.54829 0.08935 0.0
C800 C 0.69924 0.54013 0.09926 0.0
C801 C 0.69233 0.55679 0.10526 0.0
C802 C 0.72911 0.53045 0.08333 0.0
C803 C 0.7313 0.51582 0.09691 0.0
C804 C 0.73462 0.52829 0.06454 0.0
C805 C 0.73171 0.54255 0.04947 0.0
C806 C 0.70855 0.5414 0.04679 0.0
C807 C 0.70602 0.55507 0.03267 0.0
C808 C 0.72646 0.56984 0.02105 0.0
C809 C 0.74947 0.57091 0.02348 0.0
C810 C 0.75211 0.55729 0.03759 0.0
C811 C 0.74566 0.43826 0.06828 0.0
C812 C 0.76976 0.44701 0.06056 0.0
C813 C 0.73701 0.45436 0.07186 0.0
C814 C 0.7523 0.47944 0.06776 0.0
C815 C 0.77578 0.48797 0.05916 0.0
C816 C 0.78449 0.47193 0.05566 0.0
C817 C 0.74454 0.49705 0.07346 0.0
C818 C 0.74242 0.5117 0.05986 0.0
C819 C 0.73924 0.49938 0.09226 0.0
C820 C 0.74292 0.48571 0.10742 0.0
C821 C 0.76657 0.4879 0.1101 0.0
C822 C 0.76988 0.47483 0.12431 0.0
C823 C 0.74973 0.45965 0.13603 0.0
C824 C 0.72625 0.45757 0.1336 0.0
C825 C 0.72282 0.47058 0.11939 0.0
H826 H 0.75234 0.44955 0.14702 0.0
H827 H 0.72446 0.58042 0.01012 0.0
H828 H 0.34066 0.92346 0.52622 0.0
H829 H 0.3208 0.88211 0.53901 0.0
H830 H 0.39131 0.89909 0.56408 0.0
H831 H 0.4112 0.94104 0.55221 0.0
H832 H 0.36549 0.85389 0.5418 0.0
H833 H 0.3505 0.89473 0.59214 0.0
H834 H 0.33629 0.92109 0.60617 0.0
H835 H 0.26099 0.87227 0.58648 0.0
H836 H 0.27483 0.84581 0.57208 0.0
H837 H 0.30799 0.73692 0.58556 0.0
H838 H 0.33323 0.78137 0.58065 0.0
H839 H 0.26559 0.78208 0.56683 0.0
H840 H 0.24033 0.7381 0.5724 0.0
H841 H 0.29396 0.82027 0.58646 0.0
H842 H 0.30775 0.78258 0.53315 0.0
H843 H 0.32015 0.75627 0.51662 0.0
H844 H 0.39511 0.79865 0.53884 0.0
H845 H 0.38305 0.82503 0.5557 0.0
C846 C 0.35193 0.91872 0.53479 0.0
C847 C 0.37762 0.93579 0.53818 0.0
C848 C 0.34054 0.89496 0.54197 0.0
C849 C 0.35461 0.88763 0.5525 0.0
C850 C 0.38019 0.90444 0.55592 0.0
C851 C 0.39154 0.92837 0.549 0.0
C852 C 0.34258 0.86213 0.55945 0.0
C853 C 0.35017 0.84658 0.55184 0.0
C854 C 0.32219 0.85259 0.57216 0.0
C855 C 0.31376 0.86839 0.5809 0.0
C856 C 0.33096 0.88972 0.59067 0.0
C857 C 0.32296 0.90466 0.59871 0.0
C858 C 0.29776 0.89839 0.59718 0.0
C859 C 0.2805 0.87712 0.58764 0.0
C860 C 0.28841 0.86213 0.57955 0.0
C861 C 0.29853 0.74663 0.58163 0.0
C862 C 0.27218 0.73398 0.5793 0.0
C863 C 0.31297 0.77201 0.57873 0.0
C864 C 0.30138 0.78508 0.57307 0.0
C865 C 0.27501 0.77249 0.5712 0.0
C866 C 0.26058 0.74727 0.57435 0.0
C867 C 0.31652 0.8117 0.56857 0.0
C868 C 0.3095 0.82754 0.57661 0.0
C869 C 0.33713 0.8214 0.55596 0.0
C870 C 0.34442 0.80557 0.54586 0.0
C871 C 0.32682 0.78616 0.53462 0.0
C872 C 0.33379 0.77126 0.52518 0.0
C873 C 0.35838 0.77573 0.52673 0.0
C874 C 0.37606 0.79517 0.53769 0.0
C875 C 0.36917 0.8101 0.54718 0.0
H876 H 0.36374 0.76418 0.5194 0.0
H877 H 0.29161 0.90998 0.60342 0.0
H878 H 0.57623 0.47358 0.71302 0.0
H879 H 0.58859 0.44476 0.7233 0.0
H880 H 0.64241 0.46747 0.67827 0.0
H881 H 0.62922 0.49569 0.66735 0.0
H882 H 0.61574 0.41951 0.67992 0.0
H883 H 0.66201 0.48208 0.72414 0.0
H884 H 0.66988 0.51349 0.74769 0.0
H885 H 0.6145 0.45798 0.78372 0.0
H886 H 0.60601 0.42626 0.76027 0.0
H887 H 0.6479 0.33455 0.71791 0.0
H888 H 0.65405 0.37446 0.70868 0.0
H889 H 0.59097 0.36144 0.74312 0.0
H890 H 0.58461 0.32168 0.75226 0.0
H891 H 0.63244 0.4096 0.74582 0.0
H892 H 0.58176 0.34924 0.69841 0.0
H893 H 0.57409 0.31812 0.67462 0.0
H894 H 0.63991 0.37108 0.64453 0.0
H895 H 0.64815 0.40243 0.66831 0.0
C896 C 0.59071 0.47248 0.70528 0.0
C897 C 0.6016 0.48681 0.68927 0.0
C898 C 0.59803 0.45621 0.71133 0.0
C899 C 0.61671 0.45415 0.70172 0.0
C900 C 0.62807 0.46884 0.68597 0.0
C901 C 0.62064 0.48509 0.67983 0.0
C902 C 0.62277 0.4353 0.70742 0.0
C903 C 0.62006 0.41775 0.69425 0.0
C904 C 0.62818 0.4328 0.72614 0.0
C905 C 0.63329 0.45179 0.74038 0.0
C906 C 0.65139 0.47658 0.73703 0.0
C907 C 0.65598 0.49444 0.75037 0.0
C908 C 0.64268 0.48774 0.76718 0.0
C909 C 0.6248 0.46315 0.77069 0.0
C910 C 0.62012 0.44521 0.75739 0.0
C911 C 0.63554 0.34035 0.72365 0.0
C912 C 0.61565 0.32493 0.7357 0.0
C913 C 0.63906 0.3631 0.71836 0.0
C914 C 0.62288 0.3708 0.72517 0.0
C915 C 0.60369 0.35584 0.73775 0.0
C916 C 0.6 0.33307 0.74288 0.0
C917 C 0.62467 0.39365 0.71844 0.0
C918 C 0.6288 0.41185 0.73143 0.0
C919 C 0.62077 0.39687 0.69955 0.0
C920 C 0.61576 0.37806 0.68525 0.0
C921 C 0.59472 0.35417 0.68681 0.0
C922 C 0.59024 0.33651 0.67331 0.0
C923 C 0.60655 0.34259 0.65811 0.0
C924 C 0.62733 0.36638 0.65634 0.0
C925 C 0.63191 0.3841 0.66982 0.0
H926 H 0.60305 0.3289 0.64766 0.0
H927 H 0.64626 0.5016 0.77749 0.0
H928 H 0.15289 0.45708 0.86878 0.0
H929 H 0.19385 0.4795 0.88432 0.0
H930 H 0.17774 0.53517 0.90147 0.0
H931 H 0.1364 0.5125 0.88659 0.0
H932 H 0.22395 0.55309 0.8823 0.0
H933 H 0.17854 0.49954 0.93338 0.0
H934 H 0.15099 0.45951 0.94836 0.0
H935 H 0.20394 0.43702 0.93476 0.0
H936 H 0.23165 0.47679 0.91944 0.0
H937 H 0.33908 0.62428 0.92878 0.0
H938 H 0.2934 0.60009 0.92392 0.0
H939 H 0.29797 0.53516 0.91552 0.0
H940 H 0.34333 0.55897 0.92119 0.0
H941 H 0.25595 0.52259 0.93236 0.0
H942 H 0.29838 0.57132 0.87856 0.0
H943 H 0.32635 0.6094 0.8613 0.0
H944 H 0.27963 0.63851 0.87702 0.0
H945 H 0.25155 0.60069 0.89458 0.0
C946 C 0.15776 0.47378 0.87622 0.0
C947 C 0.1414 0.48308 0.87628 0.0
C948 C 0.18122 0.4866 0.88504 0.0
C949 C 0.18875 0.50895 0.89402 0.0
C950 C 0.17226 0.51798 0.89454 0.0
C951 C 0.14873 0.50507 0.8859 0.0
C952 C 0.21455 0.52382 0.90167 0.0
C953 C 0.23084 0.54667 0.8935 0.0
C954 C 0.22365 0.51497 0.91583 0.0
C955 C 0.20707 0.49108 0.92512 0.0
C956 C 0.18422 0.48599 0.93344 0.0
C957 C 0.16859 0.46335 0.94202 0.0
C958 C 0.17568 0.44571 0.94248 0.0
C959 C 0.19846 0.45069 0.93439 0.0
C960 C 0.21415 0.47329 0.92577 0.0
C961 C 0.33025 0.60477 0.92621 0.0
C962 C 0.3448 0.59357 0.92517 0.0
C963 C 0.30417 0.59098 0.92335 0.0
C964 C 0.29232 0.56591 0.91889 0.0
C965 C 0.30666 0.55447 0.91886 0.0
C966 C 0.33263 0.56814 0.92206 0.0
C967 C 0.26548 0.55194 0.91296 0.0
C968 C 0.24901 0.52921 0.92134 0.0
C969 C 0.25628 0.56061 0.89868 0.0
C970 C 0.27304 0.58331 0.88805 0.0
C971 C 0.29418 0.58591 0.87843 0.0
C972 C 0.31003 0.60744 0.86859 0.0
C973 C 0.30481 0.62639 0.86811 0.0
C974 C 0.28368 0.62383 0.87744 0.0
C975 C 0.26778 0.60235 0.88733 0.0
H976 H 0.31711 0.64304 0.86049 0.0
H977 H 0.16356 0.4282 0.94913 0.0
H978 H 0.51922 0.14703 0.01316 0.0
H979 H 0.55011 0.18888 0.02273 0.0
H980 H 0.58117 0.16075 0.06249 0.0
H981 H 0.54953 0.11889 0.05373 0.0
H982 H 0.58168 0.19975 0.07637 0.0
H983 H 0.60584 0.17883 0.01791 0.0
H984 H 0.59886 0.16536 0.98514 0.0
H985 H 0.59191 0.22707 0.97028 0.0
H986 H 0.59849 0.24071 0.00304 0.0
H987 H 0.71208 0.2833 0.08178 0.0
H988 H 0.66912 0.24932 0.0768 0.0
H989 H 0.65256 0.29636 0.04434 0.0
H990 H 0.69577 0.33073 0.04937 0.0
H991 H 0.6399 0.25262 0.0265 0.0
H992 H 0.62423 0.2773 0.085 0.0
H993 H 0.63203 0.29009 0.11788 0.0
H994 H 0.62423 0.22111 0.13284 0.0
H995 H 0.61675 0.20803 0.1 0.0
C996 C 0.53218 0.14971 0.02429 0.0
C997 C 0.53208 0.12958 0.03253 0.0
C998 C 0.55001 0.17368 0.02961 0.0
C999 C 0.56828 0.17797 0.04306 0.0
C1000 C 0.56735 0.15791 0.052 0.0
C1001 C 0.54942 0.13397 0.04682 0.0
C1002 C 0.58953 0.20315 0.04697 0.0
C1003 C 0.59444 0.21131 0.06548 0.0
C1004 C 0.60579 0.21854 0.03268 0.0
C1005 C 0.60236 0.21063 0.01294 0.0
C1006 C 0.60269 0.18945 0.00766 0.0
C1007 C 0.59881 0.18179 0.9891 0.0
C1008 C 0.59486 0.1953 0.97564 0.0
C1009 C 0.59491 0.21659 0.98072 0.0
C1010 C 0.59872 0.2243 -0.00072 0.0
C1011 C 0.69923 0.28656 0.07379 0.0
C1012 C 0.70731 0.30967 0.06593 0.0
C1013 C 0.67463 0.26713 0.07104 0.0
C1014 C 0.65761 0.27036 0.0603 0.0
C1015 C 0.6654 0.29355 0.05273 0.0
C1016 C 0.69003 0.31314 0.05567 0.0
C1017 C 0.63244 0.24888 0.05597 0.0
C1018 C 0.62682 0.24137 0.03735 0.0
C1019 C 0.61567 0.23401 0.07018 0.0
C1020 C 0.62005 0.24174 0.08999 0.0
C1021 C 0.62435 0.26492 0.09527 0.0
C1022 C 0.62869 0.27221 0.11392 0.0
C1023 C 0.62866 0.25643 0.12744 0.0
C1024 C 0.62424 0.23331 0.12235 0.0
C1025 C 0.61991 0.22593 0.10372 0.0
H1026 H 0.63202 0.26212 0.14186 0.0
H1027 H 0.59181 0.18931 0.96128 0.0
H1028 H 0.62745 0.74596 0.18117 0.0
H1029 H 0.60556 0.7647 0.1956 0.0
H1030 H 0.55304 0.69585 0.22161 0.0
H1031 H 0.57549 0.67709 0.20796 0.0
H1032 H 0.53069 0.71997 0.20186 0.0
H1033 H 0.59358 0.73674 0.24835 0.0
H1034 H 0.63687 0.75194 0.25954 0.0
H1035 H 0.65965 0.82432 0.24016 0.0
H1036 H 0.61656 0.80947 0.2286 0.0
H1037 H 0.47037 0.77143 0.25325 0.0
H1038 H 0.49099 0.74853 0.24473 0.0
H1039 H 0.5586 0.81632 0.22981 0.0
H1040 H 0.53856 0.83923 0.23919 0.0
H1041 H 0.57207 0.78963 0.24615 0.0
H1042 H 0.51319 0.77454 0.19693 0.0
H1043 H 0.47151 0.76119 0.18318 0.0
H1044 H 0.44301 0.68844 0.20437 0.0
H1045 H 0.48447 0.70145 0.21844 0.0
C1046 C 0.61157 0.73484 0.19024 0.0
C1047 C 0.60335 0.70996 0.19341 0.0
C1048 C 0.59897 0.74557 0.19837 0.0
C1049 C 0.57776 0.73165 0.20968 0.0
C1050 C 0.56935 0.70685 0.21285 0.0
C1051 C 0.58215 0.69615 0.20494 0.0
C1052 C 0.56413 0.743 0.21787 0.0
C1053 C 0.5395 0.73493 0.2118 0.0
C1054 C 0.57599 0.76292 0.23039 0.0
C1055 C 0.60188 0.77193 0.23747 0.0
C1056 C 0.60786 0.75585 0.24634 0.0
C1057 C 0.63236 0.76442 0.25278 0.0
C1058 C 0.65101 0.78907 0.25053 0.0
C1059 C 0.64518 0.80523 0.24188 0.0
C1060 C 0.62072 0.79675 0.2354 0.0
C1061 C 0.48967 0.78139 0.24824 0.0
C1062 C 0.50284 0.8071 0.24685 0.0
C1063 C 0.50141 0.7683 0.24327 0.0
C1064 C 0.52626 0.78062 0.23629 0.0
C1065 C 0.53946 0.80633 0.23517 0.0
C1066 C 0.52795 0.81943 0.2405 0.0
C1067 C 0.53859 0.76694 0.22994 0.0
C1068 C 0.56303 0.77454 0.23634 0.0
C1069 C 0.52674 0.74691 0.21739 0.0
C1070 C 0.50183 0.73904 0.20891 0.0
C1071 C 0.49798 0.75574 0.19877 0.0
C1072 C 0.47441 0.74823 0.1909 0.0
C1073 C 0.45461 0.724 0.19295 0.0
C1074 C 0.45836 0.70721 0.20283 0.0
C1075 C 0.48189 0.71464 0.21074 0.0
H1076 H 0.43637 0.71822 0.18685 0.0
H1077 H 0.66997 0.79566 0.25552 0.0
H1078 H 0.9216 0.48721 0.3789 0.0
H1079 H 0.87835 0.47455 0.38802 0.0
H1080 H 0.85056 0.43374 0.33688 0.0
H1081 H 0.89392 0.44646 0.32765 0.0
H1082 H 0.83389 0.46566 0.34255 0.0
H1083 H 0.83638 0.40296 0.37676 0.0
H1084 H 0.85395 0.38542 0.39831 0.0
H1085 H 0.85036 0.42847 0.44304 0.0
H1086 H 0.83311 0.44656 0.4217 0.0
H1087 H 0.70601 0.41546 0.39237 0.0
H1088 H 0.74178 0.41041 0.38413 0.0
H1089 H 0.79192 0.48882 0.38634 0.0
H1090 H 0.75665 0.49406 0.39478 0.0
H1091 H 0.7917 0.42869 0.40262 0.0
H1092 H 0.82588 0.50269 0.34546 0.0
H1093 H 0.80796 0.51994 0.3239 0.0
H1094 H 0.73713 0.45171 0.3242 0.0
H1095 H 0.75474 0.43394 0.34551 0.0
C1096 C 0.90621 0.47525 0.36974 0.0
C1097 C 0.91108 0.46787 0.35255 0.0
C1098 C 0.88152 0.46789 0.37501 0.0
C1099 C 0.86123 0.4531 0.36317 0.0
C1100 C 0.86595 0.44506 0.34625 0.0
C1101 C 0.89067 0.45222 0.34105 0.0
C1102 C 0.83559 0.44821 0.36771 0.0
C1103 C 0.82454 0.45729 0.35558 0.0
C1104 C 0.82329 0.43712 0.38465 0.0
C1105 C 0.83358 0.42623 0.39758 0.0
C1106 C 0.83951 0.40884 0.39116 0.0
C1107 C 0.84938 0.39877 0.40335 0.0
C1108 C 0.8533 0.40585 0.42202 0.0
C1109 C 0.84731 0.423 0.42856 0.0
C1110 C 0.83745 0.43314 0.41643 0.0
C1111 C 0.72472 0.43158 0.39135 0.0
C1112 C 0.72849 0.45517 0.39415 0.0
C1113 C 0.74509 0.42865 0.38669 0.0
C1114 C 0.76936 0.44927 0.38449 0.0
C1115 C 0.77326 0.47271 0.38787 0.0
C1116 C 0.75307 0.47564 0.39273 0.0
C1117 C 0.79061 0.44679 0.3777 0.0
C1118 C 0.80087 0.43655 0.38944 0.0
C1119 C 0.80219 0.4567 0.36035 0.0
C1120 C 0.79159 0.46706 0.3472 0.0
C1121 C 0.80653 0.49133 0.34084 0.0
C1122 C 0.79642 0.5012 0.32867 0.0
C1123 C 0.77141 0.48695 0.32272 0.0
C1124 C 0.75648 0.46276 0.32887 0.0
C1125 C 0.7665 0.45279 0.34101 0.0
H1126 H 0.7636 0.49464 0.31333 0.0
H1127 H 0.86095 0.39804 0.43144 0.0
H1128 H 0.04732 0.50679 0.42309 0.0
H1129 H 0.07628 0.52132 0.44943 0.0
H1130 H 0.11129 0.59542 0.42862 0.0
H1131 H 0.08403 0.58087 0.4016 0.0
H1132 H 0.146 0.58808 0.43838 0.0
H1133 H 0.06947 0.57279 0.46794 0.0
H1134 H 0.02459 0.54873 0.47708 0.0
H1135 H 0.03787 0.49688 0.50527 0.0
H1136 H 0.08279 0.52049 0.4961 0.0
H1137 H 0.20279 0.65281 0.52313 0.0
H1138 H 0.17509 0.63442 0.4962 0.0
H1139 H 0.16578 0.56414 0.50972 0.0
H1140 H 0.19403 0.58252 0.53647 0.0
H1141 H 0.11891 0.56716 0.50413 0.0
H1142 H 0.19783 0.58687 0.47528 0.0
H1143 H 0.24259 0.61416 0.46687 0.0
H1144 H 0.22397 0.66188 0.43801 0.0
H1145 H 0.17912 0.63507 0.4465 0.0
C1146 C 0.06118 0.52618 0.4241 0.0
C1147 C 0.06309 0.54261 0.41019 0.0
C1148 C 0.07758 0.53452 0.43932 0.0
C1149 C 0.09584 0.55955 0.44119 0.0
C1150 C 0.09737 0.57603 0.42756 0.0
C1151 C 0.08135 0.56767 0.41221 0.0
C1152 C 0.11411 0.5686 0.45686 0.0
C1153 C 0.13995 0.58368 0.45275 0.0
C1154 C 0.10642 0.5625 0.47564 0.0
C1155 C 0.07942 0.54826 0.48116 0.0
C1156 C 0.06277 0.55615 0.47596 0.0
C1157 C 0.03734 0.54262 0.48117 0.0
C1158 C 0.02837 0.52125 0.4917 0.0
C1159 C 0.04484 0.51341 0.49709 0.0
C1160 C 0.07029 0.52687 0.4919 0.0
C1161 C 0.19509 0.6335 0.52024 0.0
C1162 C 0.20057 0.61909 0.53188 0.0
C1163 C 0.17931 0.62306 0.50488 0.0
C1164 C 0.16844 0.59797 0.50107 0.0
C1165 C 0.17406 0.58355 0.5125 0.0
C1166 C 0.19027 0.5941 0.52767 0.0
C1167 C 0.15045 0.58676 0.48553 0.0
C1168 C 0.12477 0.57133 0.4897 0.0
C1169 C 0.15819 0.59296 0.46685 0.0
C1170 C 0.18515 0.60909 0.46171 0.0
C1171 C 0.20331 0.60331 0.46731 0.0
C1172 C 0.22869 0.61867 0.46248 0.0
C1173 C 0.23613 0.63978 0.45196 0.0
C1174 C 0.21818 0.64554 0.44619 0.0
C1175 C 0.19278 0.63026 0.45099 0.0
H1176 H 0.25579 0.65164 0.44823 0.0
H1177 H 0.00868 0.5108 0.49572 0.0
H1178 H 0.4345 0.04737 0.60329 0.0
H1179 H 0.45371 0.07056 0.63191 0.0
H1180 H 0.46765 0.13695 0.60466 0.0
H1181 H 0.44732 0.1136 0.57659 0.0
H1182 H 0.49863 0.10252 0.6378 0.0
H1183 H 0.47485 0.18044 0.63351 0.0
H1184 H 0.43884 0.18505 0.6249 0.0
H1185 H 0.38751 0.10867 0.63606 0.0
H1186 H 0.42315 0.10367 0.64498 0.0
H1187 H 0.59257 0.2056 0.6846 0.0
H1188 H 0.56207 0.17712 0.66198 0.0
H1189 H 0.50084 0.16825 0.69691 0.0
H1190 H 0.53138 0.19792 0.71896 0.0
H1191 H 0.48826 0.1691 0.66408 0.0
H1192 H 0.51998 0.12371 0.69369 0.0
H1193 H 0.55196 0.11492 0.70559 0.0
H1194 H 0.57949 0.11831 0.65009 0.0
H1195 H 0.54789 0.12744 0.63787 0.0
C1196 C 0.44105 0.06679 0.60371 0.0
C1197 C 0.43919 0.0787 0.58792 0.0
C1198 C 0.45214 0.08007 0.61997 0.0
C1199 C 0.46198 0.10554 0.62059 0.0
C1200 C 0.45961 0.11727 0.60484 0.0
C1201 C 0.44803 0.10392 0.58875 0.0
C1202 C 0.4768 0.12026 0.63693 0.0
C1203 C 0.49616 0.11691 0.64365 0.0
C1204 C 0.47332 0.13872 0.64494 0.0
C1205 C 0.45173 0.14166 0.63979 0.0
C1206 C 0.45587 0.16466 0.63423 0.0
C1207 C 0.43552 0.16733 0.62927 0.0
C1208 C 0.41091 0.14715 0.62989 0.0
C1209 C 0.40659 0.12427 0.63552 0.0
C1210 C 0.42686 0.1215 0.64051 0.0
C1211 C 0.57259 0.19761 0.68739 0.0
C1212 C 0.56432 0.20388 0.70354 0.0
C1213 C 0.55514 0.18117 0.67454 0.0
C1214 C 0.52905 0.16999 0.67791 0.0
C1215 C 0.52081 0.17653 0.69396 0.0
C1216 C 0.53828 0.19346 0.70658 0.0
C1217 C 0.51044 0.1517 0.66461 0.0
C1218 C 0.49045 0.15445 0.65842 0.0
C1219 C 0.51267 0.13202 0.65762 0.0
C1220 C 0.53167 0.12644 0.66489 0.0
C1221 C 0.53296 0.12273 0.68404 0.0
C1222 C 0.551 0.11767 0.69084 0.0
C1223 C 0.56777 0.1161 0.67861 0.0
C1224 C 0.56649 0.11954 0.65955 0.0
C1225 C 0.5485 0.12463 0.65267 0.0
H1226 H 0.58174 0.11219 0.6839 0.0
H1227 H 0.39518 0.14926 0.62603 0.0
H1228 H 0.47331 0.55956 0.73284 0.0
H1229 H 0.45974 0.56952 0.76179 0.0
H1230 H 0.50407 0.64658 0.74845 0.0
H1231 H 0.51781 0.6367 0.71942 0.0
H1232 H 0.51347 0.63826 0.78282 0.0
H1233 H 0.4393 0.61551 0.74723 0.0
H1234 H 0.40329 0.58921 0.72682 0.0
H1235 H 0.37348 0.53232 0.76809 0.0
H1236 H 0.40952 0.55815 0.78865 0.0
H1237 H 0.46723 0.678 0.85724 0.0
H1238 H 0.47669 0.66909 0.82621 0.0
H1239 H 0.43746 0.59188 0.83923 0.0
H1240 H 0.42775 0.60057 0.87033 0.0
H1241 H 0.4249 0.60124 0.80461 0.0
H1242 H 0.50005 0.62352 0.83947 0.0
H1243 H 0.53615 0.64984 0.85981 0.0
H1244 H 0.56402 0.70788 0.81954 0.0
H1245 H 0.52787 0.68201 0.79907 0.0
C1246 C 0.4797 0.57859 0.73586 0.0
C1247 C 0.4966 0.59737 0.72386 0.0
C1248 C 0.47196 0.58426 0.75243 0.0
C1249 C 0.48076 0.60879 0.75722 0.0
C1250 C 0.4971 0.62754 0.74502 0.0
C1251 C 0.50494 0.62188 0.72848 0.0
C1252 C 0.47427 0.61491 0.77552 0.0
C1253 C 0.49408 0.63052 0.78744 0.0
C1254 C 0.44899 0.60427 0.78173 0.0
C1255 C 0.42724 0.5887 0.76942 0.0
C1256 C 0.42518 0.59731 0.7519 0.0
C1257 C 0.40474 0.5825 0.74031 0.0
C1258 C 0.38614 0.55909 0.74614 0.0
C1259 C 0.38792 0.55046 0.76359 0.0
C1260 C 0.40833 0.56519 0.77522 0.0
C1261 C 0.46062 0.65911 0.85354 0.0
C1262 C 0.44682 0.64 0.86629 0.0
C1263 C 0.46609 0.65407 0.83581 0.0
C1264 C 0.45791 0.62985 0.8305 0.0
C1265 C 0.44393 0.6107 0.84309 0.0
C1266 C 0.43852 0.61572 0.86088 0.0
C1267 C 0.46409 0.62456 0.81182 0.0
C1268 C 0.44425 0.60908 0.79988 0.0
C1269 C 0.48933 0.63534 0.80555 0.0
C1270 C 0.51111 0.65092 0.81783 0.0
C1271 C 0.51376 0.64197 0.83502 0.0
C1272 C 0.53425 0.65679 0.84656 0.0
C1273 C 0.55232 0.68054 0.841 0.0
C1274 C 0.54998 0.68949 0.82385 0.0
C1275 C 0.5295 0.67475 0.81227 0.0
H1276 H 0.56818 0.69199 0.84995 0.0
H1277 H 0.37033 0.54765 0.73715 0.0
H1278 H 0.90315 0.4001 0.87476 0.0
H1279 H 0.87686 0.39095 0.90251 0.0
H1280 H 0.89503 0.33664 0.91908 0.0
H1281 H 0.9221 0.3462 0.89156 0.0
H1282 H 0.83986 0.32784 0.92665 0.0
H1283 H 0.92967 0.38109 0.93791 0.0
H1284 H 0.97177 0.41542 0.9292 0.0
H1285 H 0.9441 0.46512 0.93157 0.0
H1286 H 0.90162 0.43091 0.93987 0.0
H1287 H 0.81254 0.3372 0.02287 0.0
H1288 H 0.8311 0.33219 0.99425 0.0
H1289 H 0.84437 0.40193 0.97444 0.0
H1290 H 0.82642 0.4073 0.003 0.0
H1291 H 0.88496 0.39877 0.96954 0.0
H1292 H 0.79559 0.34657 0.95782 0.0
H1293 H 0.75238 0.31254 0.96437 0.0
H1294 H 0.77802 0.26122 0.96214 0.0
H1295 H 0.82147 0.29502 0.95582 0.0
C1296 C 0.90116 0.38586 0.88411 0.0
C1297 C 0.91505 0.3742 0.88119 0.0
C1298 C 0.88599 0.38052 0.89984 0.0
C1299 C 0.88426 0.36329 0.91282 0.0
C1300 C 0.8961 0.3499 0.9091 0.0
C1301 C 0.91152 0.35539 0.89339 0.0
C1302 C 0.87375 0.36259 0.93142 0.0
C1303 C 0.8498 0.34305 0.93625 0.0
C1304 C 0.88674 0.38266 0.94369 0.0
C1305 C 0.91243 0.40341 0.93933 0.0
C1306 C 0.93252 0.39931 0.93643 0.0
C1307 C 0.95645 0.41874 0.93158 0.0
C1308 C 0.96061 0.44244 0.9298 0.0
C1309 C 0.94084 0.44675 0.93293 0.0
C1310 C 0.91683 0.42734 0.93771 0.0
C1311 C 0.81937 0.35144 0.01239 0.0
C1312 C 0.81804 0.37268 0.01525 0.0
C1313 C 0.82987 0.34849 0.99602 0.0
C1314 C 0.83897 0.36662 0.98216 0.0
C1315 C 0.83754 0.38774 0.98497 0.0
C1316 C 0.82721 0.39075 0.00131 0.0
C1317 C 0.85063 0.36416 0.96484 0.0
C1318 C 0.87499 0.38325 0.96019 0.0
C1319 C 0.83792 0.34366 0.9528 0.0
C1320 C 0.81182 0.32335 0.95657 0.0
C1321 C 0.79205 0.32805 0.95889 0.0
C1322 C 0.76751 0.3088 0.96252 0.0
C1323 C 0.76247 0.28474 0.96373 0.0
C1324 C 0.78196 0.27987 0.96124 0.0
C1325 C 0.80654 0.29906 0.95762 0.0
H1326 H 0.74346 0.26986 0.96654 0.0
H1327 H 0.97916 0.45746 0.92603 0.0
H1328 H 0.4274 0.96906 0.08578 0.0
H1329 H 0.42631 0.95008 0.1155 0.0
H1330 H 0.50764 0.99326 0.11839 0.0
H1331 H 0.50884 0.01228 0.08852 0.0
H1332 H 0.49126 0.94624 0.12392 0.0
H1333 H 0.47018 0.0035 0.14838 0.0
H1334 H 0.44689 0.02542 0.15046 0.0
H1335 H 0.37796 0.95742 0.16085 0.0
H1336 H 0.40078 0.93503 0.15858 0.0
H1337 H 0.4953 0.90144 0.2134 0.0
H1338 H 0.49967 0.92862 0.18785 0.0
H1339 H 0.41888 0.88824 0.18023 0.0
H1340 H 0.41426 0.86123 0.20601 0.0
H1341 H 0.43747 0.93682 0.17842 0.0
H1342 H 0.45778 0.87949 0.1514 0.0
H1343 H 0.48069 0.85721 0.14893 0.0
H1344 H 0.55084 0.92545 0.14303 0.0
H1345 H 0.52837 0.94816 0.14571 0.0
C1346 C 0.44502 0.97501 0.09298 0.0
C1347 C 0.46821 0.99218 0.08484 0.0
C1348 C 0.44437 0.96411 0.10997 0.0
C1349 C 0.46689 0.97036 0.11924 0.0
C1350 C 0.49004 0.98815 0.11146 0.0
C1351 C 0.49071 0.99898 0.09441 0.0
C1352 C 0.46632 0.95681 0.13619 0.0
C1353 C 0.4799 0.94461 0.136 0.0
C1354 C 0.45096 0.95414 0.15173 0.0
C1355 C 0.43718 0.96756 0.15316 0.0
C1356 C 0.45002 0.99319 0.15097 0.0
C1357 C 0.43691 0.00571 0.15221 0.0
C1358 C 0.41095 0.99282 0.15575 0.0
C1359 C 0.39807 0.96738 0.1581 0.0
C1360 C 0.41109 0.95477 0.15686 0.0
C1361 C 0.47844 0.89829 0.20629 0.0
C1362 C 0.45443 0.87906 0.21169 0.0
C1363 C 0.48099 0.91384 0.19166 0.0
C1364 C 0.45962 0.9103 0.18202 0.0
C1365 C 0.43562 0.89131 0.1875 0.0
C1366 C 0.43303 0.87581 0.20218 0.0
C1367 C 0.46227 0.92618 0.16605 0.0
C1368 C 0.44904 0.93873 0.16641 0.0
C1369 C 0.47791 0.92917 0.15063 0.0
C1370 C 0.49143 0.91553 0.14895 0.0
C1371 C 0.47812 0.88975 0.14972 0.0
C1372 C 0.49102 0.87704 0.14826 0.0
C1373 C 0.51722 0.88991 0.14588 0.0
C1374 C 0.53056 0.91551 0.14491 0.0
C1375 C 0.51775 0.92831 0.14638 0.0
H1376 H 0.52717 0.88004 0.14475 0.0
H1377 H 0.40083 0.00254 0.1567 0.0
H1378 H 0.61674 0.60391 0.24447 0.0
H1379 H 0.61703 0.57939 0.27039 0.0
H1380 H 0.69788 0.61331 0.26516 0.0
H1381 H 0.69752 0.63669 0.23847 0.0
H1382 H 0.67788 0.56652 0.26625 0.0
H1383 H 0.66859 0.62376 0.30332 0.0
H1384 H 0.65032 0.64856 0.31328 0.0
H1385 H 0.57909 0.58293 0.32368 0.0
H1386 H 0.59684 0.55771 0.31353 0.0
H1387 H 0.69235 0.51453 0.34984 0.0
H1388 H 0.69387 0.54281 0.32618 0.0
H1389 H 0.61261 0.50139 0.32243 0.0
H1390 H 0.61086 0.47285 0.34607 0.0
H1391 H 0.63381 0.55278 0.32679 0.0
H1392 H 0.6446 0.4962 0.28864 0.0
H1393 H 0.66458 0.47261 0.27951 0.0
H1394 H 0.73568 0.53955 0.27232 0.0
H1395 H 0.71619 0.56354 0.28167 0.0
C1396 C 0.63462 0.60632 0.24894 0.0
C1397 C 0.65707 0.62216 0.23929 0.0
C1398 C 0.6348 0.59247 0.26392 0.0
C1399 C 0.6575 0.59456 0.2698 0.0
C1400 C 0.68013 0.61137 0.26085 0.0
C1401 C 0.67993 0.62498 0.24572 0.0
C1402 C 0.65733 0.57765 0.28409 0.0
C1403 C 0.66863 0.5639 0.27962 0.0
C1404 C 0.64476 0.57374 0.30137 0.0
C1405 C 0.634 0.58884 0.3075 0.0
C1406 C 0.64897 0.61461 0.30758 0.0
C1407 C 0.63872 0.62874 0.31329 0.0
C1408 C 0.61354 0.61733 0.31907 0.0
C1409 C 0.59858 0.59175 0.31918 0.0
C1410 C 0.60874 0.57752 0.31348 0.0
C1411 C 0.6748 0.51128 0.34387 0.0
C1412 C 0.65147 0.49145 0.34982 0.0
C1413 C 0.67572 0.52744 0.33035 0.0
C1414 C 0.65335 0.52414 0.32262 0.0
C1415 C 0.63005 0.50422 0.32831 0.0
C1416 C 0.62912 0.48786 0.3417 0.0
C1417 C 0.65432 0.54184 0.30885 0.0
C1418 C 0.64314 0.55563 0.31343 0.0
C1419 C 0.66728 0.54605 0.29177 0.0
C1420 C 0.67899 0.53165 0.28604 0.0
C1421 C 0.66454 0.50588 0.28527 0.0
C1422 C 0.67577 0.49244 0.28002 0.0
C1423 C 0.7014 0.50457 0.27539 0.0
C1424 C 0.71584 0.53018 0.27594 0.0
C1425 C 0.70471 0.5437 0.28119 0.0
H1426 H 0.71006 0.49413 0.27133 0.0
H1427 H 0.60564 0.62831 0.32348 0.0
H1428 H 0.47026 0.98917 0.42686 0.0
H1429 H 0.47404 0.96518 0.40208 0.0
H1430 H 0.3976 0.90652 0.41228 0.0
H1431 H 0.39414 0.92992 0.43807 0.0
H1432 H 0.42708 0.88831 0.40497 0.0
H1433 H 0.41182 0.94737 0.37666 0.0
H1434 H 0.41844 0.98842 0.37038 0.0
H1435 H 0.49308 0.01253 0.34997 0.0
H1436 H 0.48708 0.97173 0.35643 0.0
H1437 H 0.40748 0.8349 0.31395 0.0
H1438 H 0.40583 0.85422 0.34294 0.0
H1439 H 0.48548 0.90714 0.33828 0.0
H1440 H 0.4874 0.88776 0.30931 0.0
H1441 H 0.45424 0.92753 0.34293 0.0
H1442 H 0.46759 0.86646 0.37095 0.0
H1443 H 0.45879 0.82451 0.37658 0.0
H1444 H 0.38451 0.80301 0.39638 0.0
H1445 H 0.39274 0.84477 0.39061 0.0
C1446 C 0.45439 0.97094 0.4242 0.0
C1447 C 0.43189 0.96145 0.43456 0.0
C1448 C 0.45648 0.95737 0.4098 0.0
C1449 C 0.43596 0.93425 0.40509 0.0
C1450 C 0.41364 0.9244 0.41562 0.0
C1451 C 0.41161 0.93789 0.43024 0.0
C1452 C 0.43773 0.92078 0.38885 0.0
C1453 C 0.4327 0.89676 0.39135 0.0
C1454 C 0.44541 0.93196 0.37113 0.0
C1455 C 0.44907 0.95653 0.36718 0.0
C1456 C 0.42972 0.96147 0.37097 0.0
C1457 C 0.43335 0.98469 0.36736 0.0
C1458 C 0.45617 0.00307 0.35979 0.0
C1459 C 0.47541 0.99828 0.35584 0.0
C1460 C 0.47191 0.9751 0.35946 0.0
C1461 C 0.42474 0.85044 0.31922 0.0
C1462 C 0.44757 0.85989 0.30931 0.0
C1463 C 0.42376 0.86138 0.33581 0.0
C1464 C 0.44553 0.88205 0.34271 0.0
C1465 C 0.46849 0.89115 0.33315 0.0
C1466 C 0.46957 0.88001 0.31666 0.0
C1467 C 0.44385 0.89522 0.35912 0.0
C1468 C 0.44874 0.91915 0.35659 0.0
C1469 C 0.43568 0.88382 0.37668 0.0
C1470 C 0.4307 0.85869 0.38018 0.0
C1471 C 0.44929 0.85274 0.37634 0.0
C1472 C 0.44443 0.829 0.3796 0.0
C1473 C 0.42108 0.81108 0.38679 0.0
C1474 C 0.40257 0.81689 0.39079 0.0
C1475 C 0.40734 0.8406 0.38755 0.0
H1476 H 0.41735 0.79272 0.3893 0.0
H1477 H 0.45891 0.021 0.35693 0.0
H1478 H 0.60662 0.57462 0.56726 0.0
H1479 H 0.62214 0.56108 0.54138 0.0
H1480 H 0.54624 0.51711 0.52046 0.0
H1481 H 0.53052 0.53108 0.54611 0.0
H1482 H 0.57099 0.49099 0.52638 0.0
H1483 H 0.58699 0.56555 0.49664 0.0
H1484 H 0.6047 0.61019 0.49437 0.0
H1485 H 0.67965 0.62268 0.50026 0.0
H1486 H 0.66235 0.57811 0.50283 0.0
H1487 H 0.59135 0.45098 0.44042 0.0
H1488 H 0.58 0.46855 0.46605 0.0
H1489 H 0.65878 0.51609 0.4794 0.0
H1490 H 0.67044 0.49886 0.45337 0.0
H1491 H 0.63497 0.54126 0.47858 0.0
H1492 H 0.6203 0.46774 0.50749 0.0
H1493 H 0.60368 0.42338 0.51071 0.0
H1494 H 0.52779 0.4091 0.50782 0.0
H1495 H 0.54395 0.45336 0.50432 0.0
C1496 C 0.59329 0.5628 0.5568 0.0
C1497 C 0.56728 0.55394 0.55875 0.0
C1498 C 0.60221 0.55493 0.54209 0.0
C1499 C 0.58531 0.53806 0.52909 0.0
C1500 C 0.55953 0.53006 0.53045 0.0
C1501 C 0.5506 0.53805 0.54509 0.0
C1502 C 0.59423 0.52722 0.515 0.0
C1503 C 0.58469 0.50189 0.51573 0.0
C1504 C 0.61292 0.5417 0.5017 0.0
C1505 C 0.62335 0.5685 0.50012 0.0
C1506 C 0.60723 0.57782 0.49762 0.0
C1507 C 0.6172 0.60311 0.49624 0.0
C1508 C 0.64328 0.61927 0.49722 0.0
C1509 C 0.65945 0.61015 0.49953 0.0
C1510 C 0.64957 0.58488 0.50093 0.0
C1511 C 0.60633 0.46498 0.44889 0.0
C1512 C 0.63184 0.47353 0.44482 0.0
C1513 C 0.59977 0.47495 0.46362 0.0
C1514 C 0.61852 0.49349 0.47474 0.0
C1515 C 0.64401 0.50177 0.47098 0.0
C1516 C 0.65063 0.49182 0.45617 0.0
C1517 C 0.61134 0.50487 0.4897 0.0
C1518 C 0.6213 0.53032 0.48923 0.0
C1519 C 0.59319 0.49054 0.50339 0.0
C1520 C 0.58336 0.46387 0.50548 0.0
C1521 C 0.60007 0.45513 0.50739 0.0
C1522 C 0.59072 0.43 0.50929 0.0
C1523 C 0.56469 0.41342 0.50943 0.0
C1524 C 0.54795 0.42195 0.5077 0.0
C1525 C 0.55719 0.44707 0.50577 0.0
H1526 H 0.5575 0.39398 0.5109 0.0
H1527 H 0.65096 0.63884 0.49614 0.0
H1528 H 0.0331 0.4879 0.72733 0.0
H1529 H 0.06056 0.51883 0.7046 0.0
H1530 H 0.11853 0.50151 0.71498 0.0
H1531 H 0.09188 0.4717 0.73838 0.0
H1532 H 0.13826 0.54883 0.71558 0.0
H1533 H 0.08197 0.48383 0.67433 0.0
H1534 H 0.04069 0.45303 0.6613 0.0
H1535 H 0.0256 0.50995 0.64722 0.0
H1536 H 0.06668 0.54107 0.66038 0.0
H1537 H 0.21666 0.59683 0.63632 0.0
H1538 H 0.1872 0.5717 0.66075 0.0
H1539 H 0.1422 0.60455 0.65027 0.0
H1540 H 0.17179 0.63 0.62573 0.0
H1541 H 0.11438 0.553 0.65048 0.0
H1542 H 0.17372 0.6183 0.68932 0.0
H1543 H 0.21583 0.64822 0.7016 0.0
H1544 H 0.22602 0.58943 0.71952 0.0
H1545 H 0.18411 0.55914 0.7071 0.0
C1546 C 0.05165 0.49061 0.7247 0.0
C1547 C 0.06019 0.47719 0.73462 0.0
C1548 C 0.06726 0.50817 0.71159 0.0
C1549 C 0.09158 0.51241 0.70799 0.0
C1550 C 0.09985 0.49857 0.71751 0.0
C1551 C 0.0844 0.48122 0.73071 0.0
C1552 C 0.10894 0.53194 0.69492 0.0
C1553 C 0.1331 0.54956 0.70129 0.0
C1554 C 0.10196 0.53343 0.67645 0.0
C1555 C 0.07726 0.51474 0.66853 0.0
C1556 C 0.06975 0.48976 0.66859 0.0
C1557 C 0.04642 0.47225 0.66116 0.0
C1558 C 0.0305 0.47952 0.65349 0.0
C1559 C 0.03793 0.50433 0.65319 0.0
C1560 C 0.06124 0.52192 0.66063 0.0
C1561 C 0.2007 0.599 0.63937 0.0
C1562 C 0.19652 0.61537 0.62907 0.0
C1563 C 0.18393 0.58466 0.65337 0.0
C1564 C 0.16258 0.58632 0.65732 0.0
C1565 C 0.15861 0.60306 0.64741 0.0
C1566 C 0.17559 0.61766 0.6335 0.0
C1567 C 0.14379 0.56943 0.67106 0.0
C1568 C 0.11938 0.55236 0.66483 0.0
C1569 C 0.15062 0.56828 0.68961 0.0
C1570 C 0.17583 0.58645 0.69715 0.0
C1571 C 0.18502 0.61175 0.69575 0.0
C1572 C 0.20884 0.62877 0.70276 0.0
C1573 C 0.22361 0.62073 0.7113 0.0
C1574 C 0.21456 0.59563 0.71289 0.0
C1575 C 0.19076 0.57853 0.70588 0.0
H1576 H 0.24204 0.63394 0.71673 0.0
H1577 H 0.01244 0.46594 0.64774 0.0
H1578 H 0.54927 0.14244 0.94704 0.0
H1579 H 0.57077 0.17156 0.92161 0.0
H1580 H 0.50569 0.12978 0.88658 0.0
H1581 H 0.48434 0.10047 0.91165 0.0
H1582 H 0.58368 0.1622 0.88769 0.0
H1583 H 0.49927 0.16796 0.85777 0.0
H1584 H 0.4617 0.16812 0.8694 0.0
H1585 H 0.49764 0.19514 0.92228 0.0
H1586 H 0.53555 0.19548 0.9109 0.0
H1587 H 0.5994 0.19109 0.79212 0.0
H1588 H 0.58604 0.17403 0.82328 0.0
H1589 H 0.58643 0.23936 0.8406 0.0
H1590 H 0.59868 0.25602 0.80918 0.0
H1591 H 0.54585 0.20229 0.85221 0.0
H1592 H 0.63244 0.22505 0.85534 0.0
H1593 H 0.67168 0.22726 0.84491 0.0
H1594 H 0.63545 0.14884 0.84823 0.0
H1595 H 0.59589 0.14611 0.85845 0.0
C1596 C 0.53951 0.13955 0.93394 0.0
C1597 C 0.51506 0.11915 0.93139 0.0
C1598 C 0.5518 0.15621 0.91946 0.0
C1599 C 0.53976 0.15289 0.90227 0.0
C1600 C 0.51516 0.13291 0.89984 0.0
C1601 C 0.50292 0.11623 0.91424 0.0
C1602 C 0.5532 0.16939 0.88641 0.0
C1603 C 0.57558 0.17119 0.87999 0.0
C1604 C 0.54285 0.18146 0.87662 0.0
C1605 C 0.52019 0.18157 0.88351 0.0
C1606 C 0.49921 0.17406 0.87185 0.0
C1607 C 0.47784 0.17404 0.8784 0.0
C1608 C 0.47726 0.18158 0.89658 0.0
C1609 C 0.49807 0.18922 0.90823 0.0
C1610 C 0.5195 0.1893 0.90174 0.0
C1611 C 0.59691 0.20193 0.80263 0.0
C1612 C 0.60004 0.22487 0.79821 0.0
C1613 C 0.58941 0.19222 0.82049 0.0
C1614 C 0.58554 0.20553 0.83442 0.0
C1615 C 0.58926 0.22872 0.83011 0.0
C1616 C 0.59631 0.23824 0.81216 0.0
C1617 C 0.57606 0.1946 0.85308 0.0
C1618 C 0.55429 0.19372 0.86001 0.0
C1619 C 0.58729 0.1838 0.86352 0.0
C1620 C 0.61115 0.18538 0.85757 0.0
C1621 C 0.6328 0.20826 0.85376 0.0
C1622 C 0.65511 0.20961 0.84789 0.0
C1623 C 0.65605 0.1882 0.84589 0.0
C1624 C 0.6347 0.1654 0.8498 0.0
C1625 C 0.61234 0.16395 0.85566 0.0
H1626 H 0.67333 0.18928 0.84133 0.0
H1627 H 0.46069 0.18154 0.90163 0.0
H1628 H 0.56714 0.68479 0.1032 0.0
H1629 H 0.54234 0.68541 0.07702 0.0
H1630 H 0.60831 0.71604 0.04189 0.0
H1631 H 0.63308 0.71431 0.06767 0.0
H1632 H 0.56489 0.73269 0.03997 0.0
H1633 H 0.58509 0.66698 0.03318 0.0
H1634 H 0.58912 0.63376 0.04724 0.0
H1635 H 0.51156 0.59753 0.06472 0.0
H1636 H 0.50727 0.63085 0.05105 0.0
H1637 H 0.50719 0.70084 0.9513 0.0
H1638 H 0.53521 0.71014 0.97787 0.0
H1639 H 0.47579 0.64813 0.00745 0.0
H1640 H 0.44806 0.63807 0.98051 0.0
H1641 H 0.51705 0.64899 0.0128 0.0
H1642 H 0.49391 0.71023 0.01679 0.0
H1643 H 0.48836 0.74386 0.00568 0.0
H1644 H 0.56819 0.78878 0.99609 0.0
H1645 H 0.57418 0.75529 0.00693 0.0
C1646 C 0.57651 0.69197 0.08998 0.0
C1647 C 0.60198 0.69904 0.08744 0.0
C1648 C 0.56236 0.69255 0.07512 0.0
C1649 C 0.57357 0.70065 0.05762 0.0
C1650 C 0.59948 0.70987 0.0554 0.0
C1651 C 0.61359 0.70892 0.07019 0.0
C1652 C 0.55743 0.69575 0.04121 0.0
C1653 C 0.55465 0.71456 0.03377 0.0
C1654 C 0.54364 0.67189 0.03365 0.0
C1655 C 0.54593 0.65146 0.04127 0.0
C1656 C 0.56896 0.652 0.04014 0.0
C1657 C 0.57129 0.63316 0.04802 0.0
C1658 C 0.55062 0.61357 0.05691 0.0
C1659 C 0.52756 0.61273 0.05786 0.0
C1660 C 0.52517 0.63158 0.05004 0.0
C1661 C 0.5001 0.6892 0.96348 0.0
C1662 C 0.47541 0.66877 0.96387 0.0
C1663 C 0.51609 0.69463 0.97872 0.0
C1664 C 0.50748 0.68015 0.99484 0.0
C1665 C 0.48286 0.65962 0.99519 0.0
C1666 C 0.46701 0.65389 0.9798 0.0
C1667 C 0.52434 0.68602 0.01117 0.0
C1668 C 0.52726 0.66728 0.01875 0.0
C1669 C 0.53799 0.70995 0.01895 0.0
C1670 C 0.53446 0.73016 0.01251 0.0
C1671 C 0.51026 0.72722 0.01219 0.0
C1672 C 0.50704 0.74627 0.00596 0.0
C1673 C 0.5279 0.76842 0.00014 0.0
C1674 C 0.55204 0.7716 0.00058 0.0
C1675 C 0.55537 0.7526 0.00679 0.0
H1676 H 0.52537 0.78315 0.99531 0.0
H1677 H 0.55246 0.59901 0.06302 0.0
H1678 H 0.90474 0.44885 0.26395 0.0
H1679 H 0.87703 0.4338 0.23645 0.0
H1680 H 0.94253 0.46561 0.20068 0.0
H1681 H 0.97014 0.47993 0.22804 0.0
H1682 H 0.89876 0.47557 0.19324 0.0
H1683 H 0.92043 0.4121 0.20364 0.0
H1684 H 0.92217 0.38124 0.22329 0.0
H1685 H 0.84184 0.34392 0.23124 0.0
H1686 H 0.8397 0.37482 0.21184 0.0
H1687 H 0.86019 0.43227 0.10297 0.0
H1688 H 0.88163 0.44452 0.13292 0.0
H1689 H 0.81635 0.3845 0.15955 0.0
H1690 H 0.7953 0.37142 0.12934 0.0
H1691 H 0.85554 0.38805 0.17427 0.0
H1692 H 0.83067 0.44595 0.16248 0.0
H1693 H 0.82557 0.47635 0.14481 0.0
H1694 H 0.90611 0.52386 0.14218 0.0
H1695 H 0.91171 0.49359 0.15962 0.0
C1696 C 0.91307 0.45251 0.25018 0.0
C1697 C 0.9394 0.46531 0.24795 0.0
C1698 C 0.89734 0.44397 0.23457 0.0
C1699 C 0.90786 0.44866 0.21664 0.0
C1700 C 0.93416 0.46188 0.21444 0.0
C1701 C 0.94984 0.46991 0.23 0.0
C1702 C 0.89159 0.43959 0.20003 0.0
C1703 C 0.88939 0.45649 0.18895 0.0
C1704 C 0.87865 0.41456 0.195 0.0
C1705 C 0.87995 0.39592 0.2065 0.0
C1706 C 0.90318 0.39746 0.20974 0.0
C1707 C 0.90423 0.37993 0.22079 0.0
C1708 C 0.88214 0.36067 0.22856 0.0
C1709 C 0.85894 0.35887 0.22524 0.0
C1710 C 0.8578 0.37638 0.21422 0.0
C1711 C 0.85045 0.42164 0.1152 0.0
C1712 C 0.82604 0.40097 0.11385 0.0
C1713 C 0.86263 0.42876 0.13236 0.0
C1714 C 0.85038 0.41583 0.14862 0.0
C1715 C 0.82616 0.39486 0.14724 0.0
C1716 C 0.81415 0.38741 0.12998 0.0
C1717 C 0.86306 0.42415 0.16697 0.0
C1718 C 0.86458 0.40712 0.1785 0.0
C1719 C 0.87484 0.44903 0.17267 0.0
C1720 C 0.8716 0.4674 0.16225 0.0
C1721 C 0.8473 0.46281 0.15803 0.0
C1722 C 0.84432 0.48003 0.14807 0.0
C1723 C 0.8655 0.50199 0.14234 0.0
C1724 C 0.88971 0.50682 0.14661 0.0
C1725 C 0.89281 0.48966 0.15656 0.0
H1726 H 0.86315 0.5153 0.13462 0.0
H1727 H 0.88299 0.34712 0.23711 0.0
loop_
_geom_bond_atom_site_label_1
_geom_bond_atom_site_label_2
_geom_bond_distance
_geom_bond_site_symmetry_2
_ccdc_geom_bond_type
H0 O26 0.856 . S
H1 O29 0.854 . S
H2 C37 0.978 . S
H3 C38 0.930 . S
H4 C40 0.930 . S
H5 C41 0.930 . S
H6 C43 0.931 . S
H7 C44 0.930 . S
H8 C46 0.930 . S
H9 C47 0.929 . S
H10 C49 0.930 . S
H11 C50 0.931 . S
H12 C52 0.930 . S
H13 C53 0.929 . S
H14 C55 0.931 . S
H15 C56 0.930 . S
H16 C58 0.930 . S
H17 C59 0.932 . S
H18 C61 0.930 . S
H19 C62 0.929 . S
H20 C64 0.931 . S
H21 C65 0.930 . S
H22 C67 0.929 . S
H23 C68 0.931 . S
H24 C70 0.930 . S
H25 C71 0.929 1_455 S
O26 H0 0.856 . S
O26 C72 1.300 . S
O27 C72 1.209 . S
O28 C73 1.199 . S
O29 H1 0.854 . S
O29 C73 1.297 . S
C30 C31 1.404 . S
C30 C35 1.397 . S
C30 C36 1.492 . S
C31 C30 1.404 . S
C31 C32 1.396 . S
C31 C42 1.492 . S
C32 C31 1.396 . S
C32 C33 1.397 . S
C32 C48 1.509 . S
C33 C32 1.397 . S
C33 C34 1.412 . S
C33 C54 1.485 . S
C34 C33 1.412 . S
C34 C35 1.388 . S
C34 C60 1.490 . S
C35 C30 1.397 . S
C35 C34 1.388 . S
C35 C66 1.519 1_455 S
C36 C30 1.492 . S
C36 C37 1.348 . S
C36 C41 1.390 1_455 S
C37 H2 0.978 . S
C37 C36 1.348 . S
C37 C38 1.343 1_455 S
C38 H3 0.930 . S
C38 C37 1.343 1_655 S
C38 C39 1.383 . S
C39 C38 1.383 . S
C39 C40 1.395 . S
C40 H4 0.930 . S
C40 C39 1.395 . S
C40 C41 1.362 . S
C41 H5 0.930 . S
C41 C36 1.390 1_655 S
C41 C40 1.362 . S
C42 C31 1.492 . S
C42 C43 1.377 . S
C42 C47 1.397 . S
C43 H6 0.931 . S
C43 C42 1.377 . S
C43 C44 1.376 . S
C44 H7 0.930 . S
C44 C43 1.376 . S
C44 C45 1.376 . S
C45 C44 1.376 . S
C45 C46 1.378 . S
C45 C72 1.486 . S
C46 H8 0.930 . S
C46 C45 1.378 . S
C46 C47 1.376 . S
C47 H9 0.929 . S
C47 C42 1.397 . S
C47 C46 1.376 . S
C48 C32 1.509 . S
C48 C49 1.391 . S
C48 C53 1.386 . S
C49 H10 0.930 . S
C49 C48 1.391 . S
C49 C50 1.375 . S
C50 H11 0.931 . S
C50 C49 1.375 . S
C50 C51 1.375 . S
C51 C50 1.375 . S
C51 C52 1.361 . S
C52 H12 0.930 . S
C52 C51 1.361 . S
C52 C53 1.399 . S
C53 H13 0.929 . S
C53 C48 1.386 . S
C53 C52 1.399 . S
C54 C33 1.485 . S
C54 C55 1.394 . S
C54 C59 1.360 . S
C55 H14 0.931 . S
C55 C54 1.394 . S
C55 C56 1.372 . S
C56 H15 0.930 . S
C56 C55 1.372 . S
C56 C57 1.397 . S
C57 C56 1.397 . S
C57 C58 1.390 . S
C57 C73 1.476 . S
C58 H16 0.930 . S
C58 C57 1.390 . S
C58 C59 1.366 . S
C59 H17 0.932 . S
C59 C54 1.360 . S
C59 C58 1.366 . S
C60 C34 1.490 . S
C60 C61 1.380 . S
C60 C65 1.386 . S
C61 H18 0.930 . S
C61 C60 1.380 . S
C61 C62 1.381 . S
C62 H19 0.929 . S
C62 C61 1.381 . S
C62 C63 1.371 . S
C63 C62 1.371 . S
C63 C64 1.380 . S
C64 H20 0.931 . S
C64 C63 1.380 . S
C64 C65 1.387 . S
C65 H21 0.930 . S
C65 C60 1.386 . S
C65 C64 1.387 . S
C66 C35 1.519 1_655 S
C66 C67 1.377 . S
C66 C71 1.361 . S
C67 H22 0.929 . S
C67 C66 1.377 . S
C67 C68 1.386 . S
C68 H23 0.931 . S
C68 C67 1.386 . S
C68 C69 1.363 . S
C69 C68 1.363 . S
C69 C70 1.385 . S
C70 H24 0.930 . S
C70 C69 1.385 . S
C70 C71 1.396 . S
C71 H25 0.929 1_655 S
C71 C66 1.361 . S
C71 C70 1.396 . S
C72 O26 1.300 . S
C72 O27 1.209 . S
C72 C45 1.486 . S
C73 O28 1.199 . S
C73 O29 1.297 . S
C73 C57 1.476 . S
H74 O100 0.856 . S
H75 O103 0.854 . S
H76 C111 0.930 . S
H77 C112 0.930 . S
H78 C114 0.930 . S
H79 C115 0.930 . S
H80 C117 0.931 . S
H81 C118 0.930 . S
H82 C120 0.930 . S
H83 C121 0.929 . S
H84 C123 0.930 . S
H85 C124 0.931 . S
H86 C126 0.930 . S
H87 C127 0.929 . S
H88 C129 0.931 . S
H89 C130 0.930 . S
H90 C132 0.930 . S
H91 C133 0.932 . S
H92 C135 0.930 . S
H93 C136 0.929 . S
H94 C138 0.931 . S
H95 C139 0.930 . S
H96 C141 0.929 . S
H97 C142 0.931 . S
H98 C144 0.930 . S
H99 C145 0.929 . S
O100 H74 0.856 . S
O100 C146 1.300 . S
O101 C146 1.209 . S
O102 C147 1.199 . S
O103 H75 0.854 . S
O103 C147 1.297 . S
C104 C105 1.404 . S
C104 C109 1.397 . S
C104 C110 1.492 . S
C105 C104 1.404 . S
C105 C106 1.396 . S
C105 C116 1.492 . S
C106 C105 1.396 . S
C106 C107 1.397 . S
C106 C122 1.509 . S
C107 C106 1.397 . S
C107 C108 1.412 . S
C107 C128 1.485 . S
C108 C107 1.412 . S
C108 C109 1.388 . S
C108 C134 1.490 . S
C109 C104 1.397 . S
C109 C108 1.388 . S
C109 C140 1.519 . S
C110 C104 1.492 . S
C110 C111 1.363 . S
C110 C115 1.390 . S
C111 H76 0.930 . S
C111 C110 1.363 . S
C111 C112 1.372 . S
C112 H77 0.930 . S
C112 C111 1.372 . S
C112 C113 1.383 1_545 S
C113 C112 1.383 1_565 S
C113 C114 1.395 . S
C114 H78 0.930 . S
C114 C113 1.395 . S
C114 C115 1.362 1_565 S
C115 H79 0.930 . S
C115 C110 1.390 . S
C115 C114 1.362 1_545 S
C116 C105 1.492 . S
C116 C117 1.377 . S
C116 C121 1.397 . S
C117 H80 0.931 . S
C117 C116 1.377 . S
C117 C118 1.376 . S
C118 H81 0.930 . S
C118 C117 1.376 . S
C118 C119 1.376 . S
C119 C118 1.376 . S
C119 C120 1.378 . S
C119 C146 1.486 . S
C120 H82 0.930 . S
C120 C119 1.378 . S
C120 C121 1.376 . S
C121 H83 0.929 . S
C121 C116 1.397 . S
C121 C120 1.376 . S
C122 C106 1.509 . S
C122 C123 1.391 . S
C122 C127 1.386 . S
C123 H84 0.930 . S
C123 C122 1.391 . S
C123 C124 1.375 . S
C124 H85 0.931 . S
C124 C123 1.375 . S
C124 C125 1.375 . S
C125 C124 1.375 . S
C125 C126 1.361 . S
C126 H86 0.930 . S
C126 C125 1.361 . S
C126 C127 1.399 . S
C127 H87 0.929 . S
C127 C122 1.386 . S
C127 C126 1.399 . S
C128 C107 1.485 . S
C128 C129 1.394 . S
C128 C133 1.360 . S
C129 H88 0.931 . S
C129 C128 1.394 . S
C129 C130 1.372 . S
C130 H89 0.930 . S
C130 C129 1.372 . S
C130 C131 1.397 . S
C131 C130 1.397 . S
C131 C132 1.390 . S
C131 C147 1.476 . S
C132 H90 0.930 . S
C132 C131 1.390 . S
C132 C133 1.366 . S
C133 H91 0.932 . S
C133 C128 1.360 . S
C133 C132 1.366 . S
C134 C108 1.490 . S
C134 C135 1.380 . S
C134 C139 1.386 . S
C135 H92 0.930 . S
C135 C134 1.380 . S
C135 C136 1.381 . S
C136 H93 0.929 . S
C136 C135 1.381 . S
C136 C137 1.371 . S
C137 C136 1.371 . S
C137 C138 1.380 . S
C138 H94 0.931 . S
C138 C137 1.380 . S
C138 C139 1.387 . S
C139 H95 0.930 . S
C139 C134 1.386 . S
C139 C138 1.387 . S
C140 C109 1.519 . S
C140 C141 1.377 . S
C140 C145 1.361 . S
C141 H96 0.929 . S
C141 C140 1.377 . S
C141 C142 1.386 1_545 S
C142 H97 0.931 . S
C142 C141 1.386 1_565 S
C142 C143 1.363 . S
C143 C142 1.363 . S
C143 C144 1.385 . S
C144 H98 0.930 . S
C144 C143 1.385 . S
C144 C145 1.396 1_565 S
C145 H99 0.929 . S
C145 C140 1.361 . S
C145 C144 1.396 1_545 S
C146 O100 1.300 . S
C146 O101 1.209 . S
C146 C119 1.486 . S
C147 O102 1.199 . S
C147 O103 1.297 . S
C147 C131 1.476 . S
H148 O174 0.856 . S
H149 O177 0.854 . S
H150 C185 0.930 . S
H151 C186 0.930 . S
H152 C188 0.930 . S
H153 C189 0.930 . S
H154 C191 0.931 . S
H155 C192 0.930 . S
H156 C194 0.930 . S
H157 C195 0.929 . S
H158 C197 0.930 . S
H159 C198 0.931 . S
H160 C200 0.930 . S
H161 C201 0.929 . S
H162 C203 0.931 . S
H163 C204 0.930 . S
H164 C206 0.930 . S
H165 C207 0.932 . S
H166 C209 0.930 . S
H167 C210 0.929 . S
H168 C212 0.931 . S
H169 C213 0.930 . S
H170 C215 0.929 . S
H171 C216 0.931 . S
H172 C218 0.930 . S
H173 C219 0.929 . S
O174 H148 0.856 . S
O174 C220 1.300 . S
O175 C220 1.209 . S
O176 C221 1.199 . S
O177 H149 0.854 . S
O177 C221 1.297 . S
C178 C179 1.404 . S
C178 C183 1.397 . S
C178 C184 1.492 . S
C179 C178 1.404 . S
C179 C180 1.396 . S
C179 C190 1.492 . S
C180 C179 1.396 . S
C180 C181 1.397 . S
C180 C196 1.509 . S
C181 C180 1.397 . S
C181 C182 1.412 . S
C181 C202 1.485 . S
C182 C181 1.412 . S
C182 C183 1.388 . S
C182 C208 1.490 . S
C183 C178 1.397 . S
C183 C182 1.388 . S
C183 C214 1.519 . S
C184 C178 1.492 . S
C184 C185 1.363 . S
C184 C189 1.390 . S
C185 H150 0.930 . S
C185 C184 1.363 . S
C185 C186 1.372 . S
C186 H151 0.930 . S
C186 C185 1.372 . S
C186 C187 1.383 . S
C187 C186 1.383 . S
C187 C188 1.395 . S
C188 H152 0.930 . S
C188 C187 1.395 . S
C188 C189 1.362 . S
C189 H153 0.930 . S
C189 C184 1.390 . S
C189 C188 1.362 . S
C190 C179 1.492 . S
C190 C191 1.377 . S
C190 C195 1.397 . S
C191 H154 0.931 . S
C191 C190 1.377 . S
C191 C192 1.376 . S
C192 H155 0.930 . S
C192 C191 1.376 . S
C192 C193 1.376 . S
C193 C192 1.376 . S
C193 C194 1.378 . S
C193 C220 1.486 . S
C194 H156 0.930 . S
C194 C193 1.378 . S
C194 C195 1.376 . S
C195 H157 0.929 . S
C195 C190 1.397 . S
C195 C194 1.376 . S
C196 C180 1.509 . S
C196 C197 1.391 . S
C196 C201 1.386 . S
C197 H158 0.930 . S
C197 C196 1.391 . S
C197 C198 1.375 . S
C198 H159 0.931 . S
C198 C197 1.375 . S
C198 C199 1.375 . S
C199 C198 1.375 . S
C199 C200 1.361 . S
C200 H160 0.930 . S
C200 C199 1.361 . S
C200 C201 1.399 . S
C201 H161 0.929 . S
C201 C196 1.386 . S
C201 C200 1.399 . S
C202 C181 1.485 . S
C202 C203 1.394 . S
C202 C207 1.360 . S
C203 H162 0.931 . S
C203 C202 1.394 . S
C203 C204 1.372 . S
C204 H163 0.930 . S
C204 C203 1.372 . S
C204 C205 1.397 . S
C205 C204 1.397 . S
C205 C206 1.390 . S
C205 C221 1.476 . S
C206 H164 0.930 . S
C206 C205 1.390 . S
C206 C207 1.366 . S
C207 H165 0.932 . S
C207 C202 1.360 . S
C207 C206 1.366 . S
C208 C182 1.490 . S
C208 C209 1.380 . S
C208 C213 1.386 . S
C209 H166 0.930 . S
C209 C208 1.380 . S
C209 C210 1.381 . S
C210 H167 0.929 . S
C210 C209 1.381 . S
C210 C211 1.371 . S
C211 C210 1.371 . S
C211 C212 1.380 . S
C212 H168 0.931 . S
C212 C211 1.380 . S
C212 C213 1.387 . S
C213 H169 0.930 . S
C213 C208 1.386 . S
C213 C212 1.387 . S
C214 C183 1.519 . S
C214 C215 1.377 . S
C214 C219 1.361 . S
C215 H170 0.929 . S
C215 C214 1.377 . S
C215 C216 1.386 . S
C216 H171 0.931 . S
C216 C215 1.386 . S
C216 C217 1.363 . S
C217 C216 1.363 . S
C217 C218 1.385 . S
C218 H172 0.930 . S
C218 C217 1.385 . S
C218 C219 1.396 . S
C219 H173 0.929 . S
C219 C214 1.361 . S
C219 C218 1.396 . S
C220 O174 1.300 . S
C220 O175 1.209 . S
C220 C193 1.486 . S
C221 O176 1.199 . S
C221 O177 1.297 . S
C221 C205 1.476 . S
H222 O248 0.856 . S
H223 O251 0.854 . S
H224 C259 0.930 1_455 S
H225 C260 0.930 . S
H226 C262 0.930 . S
H227 C263 0.930 . S
H228 C265 0.931 . S
H229 C266 0.930 . S
H230 C268 0.930 . S
H231 C269 0.929 . S
H232 C271 0.930 . S
H233 C272 0.931 . S
H234 C274 0.930 . S
H235 C275 0.929 . S
H236 C277 0.931 . S
H237 C278 0.930 . S
H238 C280 0.930 . S
H239 C281 0.932 . S
H240 C283 0.930 . S
H241 C284 0.929 . S
H242 C286 0.931 . S
H243 C287 0.930 . S
H244 C289 0.929 . S
H245 C290 0.931 . S
H246 C292 0.930 . S
H247 C293 0.929 . S
O248 H222 0.856 . S
O248 C294 1.300 . S
O249 C294 1.209 . S
O250 C295 1.199 . S
O251 H223 0.854 . S
O251 C295 1.297 . S
C252 C253 1.404 . S
C252 C257 1.397 . S
C252 C258 1.491 . S
C253 C252 1.404 . S
C253 C254 1.396 . S
C253 C264 1.492 . S
C254 C253 1.396 . S
C254 C255 1.397 . S
C254 C270 1.509 . S
C255 C254 1.397 . S
C255 C256 1.412 . S
C255 C276 1.485 . S
C256 C255 1.412 . S
C256 C257 1.388 . S
C256 C282 1.490 . S
C257 C252 1.397 . S
C257 C256 1.388 . S
C257 C288 1.519 1_455 S
C258 C252 1.491 . S
C258 C259 1.364 1_455 S
C258 C263 1.390 1_455 S
C259 H224 0.930 1_655 S
C259 C258 1.364 1_655 S
C259 C260 1.372 . S
C260 H225 0.930 . S
C260 C259 1.372 . S
C260 C261 1.383 . S
C261 C260 1.383 . S
C261 C262 1.395 . S
C262 H226 0.930 . S
C262 C261 1.395 . S
C262 C263 1.362 . S
C263 H227 0.930 . S
C263 C258 1.390 1_655 S
C263 C262 1.362 . S
C264 C253 1.492 . S
C264 C265 1.377 . S
C264 C269 1.397 . S
C265 H228 0.931 . S
C265 C264 1.377 . S
C265 C266 1.376 . S
C266 H229 0.930 . S
C266 C265 1.376 . S
C266 C267 1.376 . S
C267 C266 1.376 . S
C267 C268 1.378 . S
C267 C294 1.486 . S
C268 H230 0.930 . S
C268 C267 1.378 . S
C268 C269 1.376 . S
C269 H231 0.929 . S
C269 C264 1.397 . S
C269 C268 1.376 . S
C270 C254 1.509 . S
C270 C271 1.391 . S
C270 C275 1.386 . S
C271 H232 0.930 . S
C271 C270 1.391 . S
C271 C272 1.375 . S
C272 H233 0.931 . S
C272 C271 1.375 . S
C272 C273 1.375 . S
C273 C272 1.375 . S
C273 C274 1.361 . S
C274 H234 0.930 . S
C274 C273 1.361 . S
C274 C275 1.399 . S
C275 H235 0.929 . S
C275 C270 1.386 . S
C275 C274 1.399 . S
C276 C255 1.485 . S
C276 C277 1.394 . S
C276 C281 1.360 . S
C277 H236 0.931 . S
C277 C276 1.394 . S
C277 C278 1.372 . S
C278 H237 0.930 . S
C278 C277 1.372 . S
C278 C279 1.397 . S
C279 C278 1.397 . S
C279 C280 1.390 . S
C279 C295 1.476 . S
C280 H238 0.930 . S
C280 C279 1.390 . S
C280 C281 1.366 . S
C281 H239 0.932 . S
C281 C276 1.360 . S
C281 C280 1.366 . S
C282 C256 1.490 . S
C282 C283 1.380 . S
C282 C287 1.386 . S
C283 H240 0.930 . S
C283 C282 1.380 . S
C283 C284 1.381 . S
C284 H241 0.929 . S
C284 C283 1.381 . S
C284 C285 1.371 . S
C285 C284 1.371 . S
C285 C286 1.380 . S
C286 H242 0.931 . S
C286 C285 1.380 . S
C286 C287 1.387 . S
C287 H243 0.930 . S
C287 C282 1.386 . S
C287 C286 1.387 . S
C288 C257 1.519 1_655 S
C288 C289 1.377 . S
C288 C293 1.361 . S
C289 H244 0.929 . S
C289 C288 1.377 . S
C289 C290 1.386 . S
C290 H245 0.931 . S
C290 C289 1.386 . S
C290 C291 1.363 . S
C291 C290 1.363 . S
C291 C292 1.385 . S
C292 H246 0.930 . S
C292 C291 1.385 . S
C292 C293 1.396 . S
C293 H247 0.929 . S
C293 C288 1.361 . S
C293 C292 1.396 . S
C294 O248 1.300 . S
C294 O249 1.209 . S
C294 C267 1.486 . S
C295 O250 1.199 . S
C295 O251 1.297 . S
C295 C279 1.476 . S
H296 O322 0.856 . S
H297 O325 0.854 . S
H298 C333 0.930 . S
H299 C334 0.930 . S
H300 C336 0.930 . S
H301 C337 0.930 . S
H302 C339 0.931 . S
H303 C340 0.930 . S
H304 C342 0.930 1_545 S
H305 C343 0.933 . S
H306 C345 0.930 . S
H307 C346 0.931 . S
H308 C348 0.930 . S
H309 C349 0.929 . S
H310 C351 0.931 . S
H311 C352 0.930 . S
H312 C354 0.930 . S
H313 C355 0.932 . S
H314 C357 0.930 . S
H315 C358 0.929 . S
H316 C360 0.931 1_565 S
H317 C361 0.930 . S
H318 C363 0.929 1_556 S
H319 C364 0.931 . S
H320 C366 0.930 . S
H321 C367 0.929 . S
O322 H296 0.856 . S
O322 C368 1.300 . S
O323 C368 1.209 . S
O324 C369 1.199 . S
O325 H297 0.854 . S
O325 C369 1.297 . S
C326 C327 1.404 1_545 S
C326 C331 1.397 . S
C326 C332 1.492 . S
C327 C326 1.404 1_565 S
C327 C328 1.396 . S
C327 C338 1.492 . S
C328 C327 1.396 . S
C328 C329 1.426 . S
C328 C344 1.509 . S
C329 C328 1.426 . S
C329 C330 1.435 1_556 S
C329 C350 1.468 1_556 S
C330 C329 1.435 1_554 S
C330 C331 1.362 1_564 S
C330 C356 1.485 1_565 S
C331 C326 1.397 . S
C331 C330 1.362 1_546 S
C331 C362 1.519 1_556 S
C332 C326 1.492 . S
C332 C333 1.363 . S
C332 C337 1.390 . S
C333 H298 0.930 . S
C333 C332 1.363 . S
C333 C334 1.372 . S
C334 H299 0.930 . S
C334 C333 1.372 . S
C334 C335 1.383 . S
C335 C334 1.383 . S
C335 C336 1.395 . S
C336 H300 0.930 . S
C336 C335 1.395 . S
C336 C337 1.362 . S
C337 H301 0.930 . S
C337 C332 1.390 . S
C337 C336 1.362 . S
C338 C327 1.492 . S
C338 C339 1.377 . S
C338 C343 1.399 1_565 S
C339 H302 0.931 . S
C339 C338 1.377 . S
C339 C340 1.376 . S
C340 H303 0.930 . S
C340 C339 1.376 . S
C340 C341 1.376 . S
C341 C340 1.376 . S
C341 C342 1.378 . S
C341 C368 1.486 . S
C342 H304 0.930 1_565 S
C342 C341 1.378 . S
C342 C343 1.373 1_565 S
C343 H305 0.933 . S
C343 C338 1.399 1_545 S
C343 C342 1.373 1_545 S
C344 C328 1.509 . S
C344 C345 1.391 . S
C344 C349 1.386 . S
C345 H306 0.930 . S
C345 C344 1.391 . S
C345 C346 1.375 . S
C346 H307 0.931 . S
C346 C345 1.375 . S
C346 C347 1.375 . S
C347 C346 1.375 . S
C347 C348 1.361 . S
C348 H308 0.930 . S
C348 C347 1.361 . S
C348 C349 1.399 . S
C349 H309 0.929 . S
C349 C344 1.386 . S
C349 C348 1.399 . S
C350 C329 1.468 1_554 S
C350 C351 1.394 . S
C350 C355 1.360 . S
C351 H310 0.931 . S
C351 C350 1.394 . S
C351 C352 1.372 . S
C352 H311 0.930 . S
C352 C351 1.372 . S
C352 C353 1.397 . S
C353 C352 1.397 . S
C353 C354 1.390 . S
C353 C369 1.476 . S
C354 H312 0.930 . S
C354 C353 1.390 . S
C354 C355 1.366 . S
C355 H313 0.932 . S
C355 C350 1.360 . S
C355 C354 1.366 . S
C356 C330 1.485 1_545 S
C356 C357 1.380 . S
C356 C361 1.386 1_545 S
C357 H314 0.930 . S
C357 C356 1.380 . S
C357 C358 1.381 . S
C358 H315 0.929 . S
C358 C357 1.381 . S
C358 C359 1.371 . S
C359 C358 1.371 . S
C359 C360 1.380 . S
C360 H316 0.931 1_545 S
C360 C359 1.380 . S
C360 C361 1.387 1_545 S
C361 H317 0.930 . S
C361 C356 1.386 1_565 S
C361 C360 1.387 1_565 S
C362 C331 1.519 1_554 S
C362 C363 1.377 . S
C362 C367 1.361 . S
C363 H318 0.929 1_554 S
C363 C362 1.377 . S
C363 C364 1.386 . S
C364 H319 0.931 . S
C364 C363 1.386 . S
C364 C365 1.363 . S
C365 C364 1.363 . S
C365 C366 1.385 . S
C366 H320 0.930 . S
C366 C365 1.385 . S
C366 C367 1.396 . S
C367 H321 0.929 . S
C367 C362 1.361 . S
C367 C366 1.396 . S
C368 O322 1.300 . S
C368 O323 1.209 . S
C368 C341 1.486 . S
C369 O324 1.199 . S
C369 O325 1.297 . S
C369 C353 1.476 . S
H370 O396 0.856 . S
H371 O399 0.854 . S
H372 C407 0.930 . S
H373 C408 0.930 . S
H374 C410 0.930 . S
H375 C411 0.930 . S
H376 C413 0.931 . S
H377 C414 0.930 . S
H378 C416 0.930 . S
H379 C417 0.929 . S
H380 C419 0.930 . S
H381 C420 0.931 . S
H382 C422 0.930 . S
H383 C423 0.929 . S
H384 C425 0.931 . S
H385 C426 0.930 . S
H386 C428 0.930 . S
H387 C429 0.932 . S
H388 C431 0.930 . S
H389 C432 0.929 . S
H390 C434 0.931 . S
H391 C435 0.930 . S
H392 C437 0.929 . S
H393 C438 0.931 . S
H394 C440 0.930 . S
H395 C441 0.929 . S
O396 H370 0.856 . S
O396 C442 1.300 . S
O397 C442 1.209 . S
O398 C443 1.199 . S
O399 H371 0.854 . S
O399 C443 1.297 . S
C400 C401 1.404 . S
C400 C405 1.397 . S
C400 C406 1.492 . S
C401 C400 1.404 . S
C401 C402 1.396 . S
C401 C412 1.492 . S
C402 C401 1.396 . S
C402 C403 1.397 . S
C402 C418 1.509 . S
C403 C402 1.397 . S
C403 C404 1.412 . S
C403 C424 1.485 . S
C404 C403 1.412 . S
C404 C405 1.388 . S
C404 C430 1.490 . S
C405 C400 1.397 . S
C405 C404 1.388 . S
C405 C436 1.519 . S
C406 C400 1.492 . S
C406 C407 1.363 . S
C406 C411 1.390 . S
C407 H372 0.930 . S
C407 C406 1.363 . S
C407 C408 1.372 . S
C408 H373 0.930 . S
C408 C407 1.372 . S
C408 C409 1.383 . S
C409 C408 1.383 . S
C409 C410 1.395 . S
C410 H374 0.930 . S
C410 C409 1.395 . S
C410 C411 1.362 . S
C411 H375 0.930 . S
C411 C406 1.390 . S
C411 C410 1.362 . S
C412 C401 1.492 . S
C412 C413 1.377 . S
C412 C417 1.397 . S
C413 H376 0.931 . S
C413 C412 1.377 . S
C413 C414 1.376 . S
C414 H377 0.930 . S
C414 C413 1.376 . S
C414 C415 1.376 . S
C415 C414 1.376 . S
C415 C416 1.378 . S
C415 C442 1.486 . S
C416 H378 0.930 . S
C416 C415 1.378 . S
C416 C417 1.376 . S
C417 H379 0.929 . S
C417 C412 1.397 . S
C417 C416 1.376 . S
C418 C402 1.509 . S
C418 C419 1.391 . S
C418 C423 1.386 . S
C419 H380 0.930 . S
C419 C418 1.391 . S
C419 C420 1.375 . S
C420 H381 0.931 . S
C420 C419 1.375 . S
C420 C421 1.375 . S
C421 C420 1.375 . S
C421 C422 1.361 . S
C422 H382 0.930 . S
C422 C421 1.361 . S
C422 C423 1.399 . S
C423 H383 0.929 . S
C423 C418 1.386 . S
C423 C422 1.399 . S
C424 C403 1.485 . S
C424 C425 1.394 . S
C424 C429 1.360 . S
C425 H384 0.931 . S
C425 C424 1.394 . S
C425 C426 1.372 . S
C426 H385 0.930 . S
C426 C425 1.372 . S
C426 C427 1.397 . S
C427 C426 1.397 . S
C427 C428 1.390 . S
C427 C443 1.476 . S
C428 H386 0.930 . S
C428 C427 1.390 . S
C428 C429 1.366 . S
C429 H387 0.932 . S
C429 C424 1.360 . S
C429 C428 1.366 . S
C430 C404 1.490 . S
C430 C431 1.380 . S
C430 C435 1.386 . S
C431 H388 0.930 . S
C431 C430 1.380 . S
C431 C432 1.381 . S
C432 H389 0.929 . S
C432 C431 1.381 . S
C432 C433 1.371 . S
C433 C432 1.371 . S
C433 C434 1.380 . S
C434 H390 0.931 . S
C434 C433 1.380 . S
C434 C435 1.387 . S
C435 H391 0.930 . S
C435 C430 1.386 . S
C435 C434 1.387 . S
C436 C405 1.519 . S
C436 C437 1.377 . S
C436 C441 1.361 . S
C437 H392 0.929 . S
C437 C436 1.377 . S
C437 C438 1.386 . S
C438 H393 0.931 . S
C438 C437 1.386 . S
C438 C439 1.363 . S
C439 C438 1.363 . S
C439 C440 1.385 . S
C440 H394 0.930 . S
C440 C439 1.385 . S
C440 C441 1.396 . S
C441 H395 0.929 . S
C441 C436 1.361 . S
C441 C440 1.396 . S
C442 O396 1.300 . S
C442 O397 1.209 . S
C442 C415 1.486 . S
C443 O398 1.199 . S
C443 O399 1.297 . S
C443 C427 1.476 . S
O444 Cd445 2.223 . S
O444 C452 1.315 . S
Cd445 O444 2.223 . S
Cd445 O448 2.297 . S
Cd445 O449 2.439 . S
Cd445 O455 2.240 . S
Cd446 O447 2.240 . S
Cd446 O454 2.223 . S
Cd446 O456 2.297 . S
Cd446 O457 2.439 . S
O447 Cd446 2.240 . S
O447 C452 1.279 . S
O448 Cd445 2.297 . S
O448 C450 1.247 . S
O449 Cd445 2.439 . S
O449 C450 1.208 . S
C450 O448 1.247 . S
C450 O449 1.208 . S
C451 O456 1.247 . S
C451 O457 1.208 . S
C452 O444 1.315 . S
C452 O447 1.279 . S
C453 O454 1.315 . S
C453 O455 1.279 . S
O454 Cd446 2.223 . S
O454 C453 1.315 . S
O455 Cd445 2.240 . S
O455 C453 1.279 . S
O456 Cd446 2.297 . S
O456 C451 1.247 . S
O457 Cd446 2.439 . S
O457 C451 1.208 . S
O458 Cd459 2.223 . S
O458 C466 1.315 . S
Cd459 O458 2.223 . S
Cd459 O462 2.297 . S
Cd459 O463 2.439 . S
Cd459 O469 2.240 . S
Cd460 O461 2.240 . S
Cd460 O468 2.223 . S
Cd460 O470 2.297 . S
Cd460 O471 2.439 . S
O461 Cd460 2.240 . S
O461 C466 1.279 . S
O462 Cd459 2.297 . S
O462 C464 1.247 . S
O463 Cd459 2.439 . S
O463 C464 1.208 . S
C464 O462 1.247 . S
C464 O463 1.208 . S
C465 O470 1.247 . S
C465 O471 1.208 . S
C466 O458 1.315 . S
C466 O461 1.279 . S
C467 O468 1.315 . S
C467 O469 1.279 . S
O468 Cd460 2.223 . S
O468 C467 1.315 . S
O469 Cd459 2.240 . S
O469 C467 1.279 . S
O470 Cd460 2.297 . S
O470 C465 1.247 . S
O471 Cd460 2.439 . S
O471 C465 1.208 . S
O472 Cd473 2.223 . S
O472 C480 1.315 . S
Cd473 O472 2.223 . S
Cd473 O476 2.297 . S
Cd473 O477 2.439 . S
Cd473 O483 2.240 . S
Cd474 O475 2.240 . S
Cd474 O482 2.223 . S
Cd474 O484 2.297 . S
Cd474 O485 2.439 . S
O475 Cd474 2.240 . S
O475 C480 1.279 . S
O476 Cd473 2.297 . S
O476 C478 1.247 . S
O477 Cd473 2.439 . S
O477 C478 1.208 . S
C478 O476 1.247 . S
C478 O477 1.208 . S
C479 O484 1.247 . S
C479 O485 1.208 . S
C480 O472 1.315 . S
C480 O475 1.279 . S
C481 O482 1.315 . S
C481 O483 1.279 . S
O482 Cd474 2.223 . S
O482 C481 1.315 . S
O483 Cd473 2.240 . S
O483 C481 1.279 . S
O484 Cd474 2.297 . S
O484 C479 1.247 . S
O485 Cd474 2.439 . S
O485 C479 1.208 . S
O486 Cd487 2.223 . S
O486 C494 1.315 . S
Cd487 O486 2.223 . S
Cd487 O490 2.297 . S
Cd487 O491 2.439 . S
Cd487 O497 2.240 . S
Cd488 O489 2.240 . S
Cd488 O496 2.223 . S
Cd488 O498 2.297 . S
Cd488 O499 2.439 . S
O489 Cd488 2.240 . S
O489 C494 1.279 . S
O490 Cd487 2.297 . S
O490 C492 1.247 . S
O491 Cd487 2.439 . S
O491 C492 1.208 . S
C492 O490 1.247 . S
C492 O491 1.208 . S
C493 O498 1.247 . S
C493 O499 1.208 . S
C494 O486 1.315 . S
C494 O489 1.279 . S
C495 O496 1.315 . S
C495 O497 1.279 . S
O496 Cd488 2.223 . S
O496 C495 1.315 . S
O497 Cd487 2.240 . S
O497 C495 1.279 . S
O498 Cd488 2.297 . S
O498 C493 1.247 . S
O499 Cd488 2.439 . S
O499 C493 1.208 . S
O500 Cd501 2.223 . S
O500 C508 1.315 . S
Cd501 O500 2.223 . S
Cd501 O504 2.297 . S
Cd501 O505 2.439 . S
Cd501 O511 2.240 . S
Cd502 O503 2.240 . S
Cd502 O510 2.223 . S
Cd502 O512 2.297 . S
Cd502 O513 2.439 . S
O503 Cd502 2.240 . S
O503 C508 1.279 . S
O504 Cd501 2.297 . S
O504 C506 1.247 . S
O505 Cd501 2.439 . S
O505 C506 1.208 . S
C506 O504 1.247 . S
C506 O505 1.208 . S
C507 O512 1.247 . S
C507 O513 1.208 . S
C508 O500 1.315 . S
C508 O503 1.279 . S
C509 O510 1.315 . S
C509 O511 1.279 . S
O510 Cd502 2.223 . S
O510 C509 1.315 . S
O511 Cd501 2.240 . S
O511 C509 1.279 . S
O512 Cd502 2.297 . S
O512 C507 1.247 . S
O513 Cd502 2.439 . S
O513 C507 1.208 . S
O514 Cd515 2.223 . S
O514 C522 1.315 . S
Cd515 O514 2.223 . S
Cd515 O518 2.297 . S
Cd515 O519 2.439 . S
Cd515 O525 2.240 . S
Cd516 O517 2.240 . S
Cd516 O524 2.223 . S
Cd516 O526 2.297 . S
Cd516 O527 2.439 . S
O517 Cd516 2.240 . S
O517 C522 1.279 . S
O518 Cd515 2.297 . S
O518 C520 1.247 . S
O519 Cd515 2.439 . S
O519 C520 1.208 . S
C520 O518 1.247 . S
C520 O519 1.208 . S
C521 O526 1.247 . S
C521 O527 1.208 . S
C522 O514 1.315 . S
C522 O517 1.279 . S
C523 O524 1.315 . S
C523 O525 1.279 . S
O524 Cd516 2.223 . S
O524 C523 1.315 . S
O525 Cd515 2.240 . S
O525 C523 1.279 . S
O526 Cd516 2.297 . S
O526 C521 1.247 . S
O527 Cd516 2.439 . S
O527 C521 1.208 . S
H528 C546 0.951 . S
H529 C548 0.951 . S
H530 C550 0.950 . S
H531 C551 0.950 . S
H532 C553 0.950 . S
H533 C556 0.950 . S
H534 C557 0.950 . S
H535 C559 0.950 . S
H536 C560 0.950 . S
H537 C561 0.951 . S
H538 C563 0.951 . S
H539 C565 0.950 . S
H540 C566 0.950 . S
H541 C568 0.950 . S
H542 C571 0.950 . S
H543 C572 0.950 . S
H544 C574 0.950 . S
H545 C575 0.950 . S
C546 H528 0.951 . S
C546 C547 1.366 . S
C546 C548 1.388 . S
C547 C546 1.366 . S
C547 C551 1.385 . S
C548 H529 0.951 . S
C548 C546 1.388 . S
C548 C549 1.366 . S
C549 C548 1.366 . S
C549 C550 1.414 . S
C549 C552 1.499 . S
C550 H530 0.950 . S
C550 C549 1.414 . S
C550 C551 1.374 . S
C551 H531 0.950 . S
C551 C547 1.385 . S
C551 C550 1.374 . S
C552 C549 1.499 . S
C552 C553 1.373 . S
C552 C554 1.389 . S
C553 H532 0.950 . S
C553 C552 1.373 . S
C553 C569 1.377 . S
C554 C552 1.389 . S
C554 C555 1.524 . S
C554 C568 1.377 . S
C555 C554 1.524 . S
C555 C556 1.397 . S
C555 C560 1.363 . S
C556 H533 0.950 . S
C556 C555 1.397 . S
C556 C557 1.334 . S
C557 H534 0.950 . S
C557 C556 1.334 . S
C557 C558 1.287 . S
C558 C557 1.287 . S
C558 C559 1.524 . S
C558 H577 0.913 . S
C559 H535 0.950 . S
C559 C558 1.524 . S
C559 C560 1.415 . S
C560 H536 0.950 . S
C560 C555 1.363 . S
C560 C559 1.415 . S
C561 H537 0.951 . S
C561 C562 1.366 . S
C561 C563 1.388 . S
C562 C561 1.366 . S
C562 C566 1.385 . S
C563 H538 0.951 . S
C563 C561 1.388 . S
C563 C564 1.366 . S
C564 C563 1.366 . S
C564 C565 1.414 . S
C564 C567 1.499 . S
C565 H539 0.950 . S
C565 C564 1.414 . S
C565 C566 1.374 . S
C566 H540 0.950 . S
C566 C562 1.385 . S
C566 C565 1.374 . S
C567 C564 1.499 . S
C567 C568 1.373 . S
C567 C569 1.389 . S
C568 H541 0.950 . S
C568 C554 1.377 . S
C568 C567 1.373 . S
C569 C553 1.377 . S
C569 C567 1.389 . S
C569 C570 1.524 . S
C570 C569 1.524 . S
C570 C571 1.397 . S
C570 C575 1.363 . S
C571 H542 0.950 . S
C571 C570 1.397 . S
C571 C572 1.334 . S
C572 H543 0.950 . S
C572 C571 1.334 . S
C572 C573 1.287 . S
C573 C572 1.287 . S
C573 C574 1.524 . S
C573 H576 0.999 . S
C574 H544 0.950 . S
C574 C573 1.524 . S
C574 C575 1.415 . S
C575 H545 0.950 . S
C575 C570 1.363 . S
C575 C574 1.415 . S
H576 C573 0.999 . S
H577 C558 0.913 . S
H578 C596 0.951 . S
H579 C598 0.951 . S
H580 C600 0.950 . S
H581 C601 0.950 . S
H582 C603 0.950 . S
H583 C606 0.950 . S
H584 C607 0.950 . S
H585 C609 0.950 . S
H586 C610 0.950 . S
H587 C611 0.951 . S
H588 C613 0.951 . S
H589 C615 0.950 . S
H590 C616 0.950 . S
H591 C618 0.950 . S
H592 C621 0.950 . S
H593 C622 0.950 . S
H594 C624 0.950 . S
H595 C625 0.950 . S
C596 H578 0.951 . S
C596 C597 1.366 . S
C596 C598 1.388 . S
C597 C596 1.366 . S
C597 C601 1.385 . S
C598 H579 0.951 . S
C598 C596 1.388 . S
C598 C599 1.366 . S
C599 C598 1.366 . S
C599 C600 1.414 . S
C599 C602 1.499 . S
C600 H580 0.950 . S
C600 C599 1.414 . S
C600 C601 1.374 . S
C601 H581 0.950 . S
C601 C597 1.385 . S
C601 C600 1.374 . S
C602 C599 1.499 . S
C602 C603 1.373 . S
C602 C604 1.389 . S
C603 H582 0.950 . S
C603 C602 1.373 . S
C603 C619 1.377 . S
C604 C602 1.389 . S
C604 C605 1.524 . S
C604 C618 1.377 . S
C605 C604 1.524 . S
C605 C606 1.397 . S
C605 C610 1.363 . S
C606 H583 0.950 . S
C606 C605 1.397 . S
C606 C607 1.334 . S
C607 H584 0.950 . S
C607 C606 1.334 . S
C607 C608 1.287 . S
C608 C607 1.287 . S
C608 C609 1.524 . S
C608 H627 0.913 . S
C609 H585 0.950 . S
C609 C608 1.524 . S
C609 C610 1.415 . S
C610 H586 0.950 . S
C610 C605 1.363 . S
C610 C609 1.415 . S
C611 H587 0.951 . S
C611 C612 1.366 . S
C611 C613 1.388 . S
C612 C611 1.366 . S
C612 C616 1.385 . S
C613 H588 0.951 . S
C613 C611 1.388 . S
C613 C614 1.366 . S
C614 C613 1.366 . S
C614 C615 1.414 . S
C614 C617 1.499 . S
C615 H589 0.950 . S
C615 C614 1.414 . S
C615 C616 1.374 . S
C616 H590 0.950 . S
C616 C612 1.385 . S
C616 C615 1.374 . S
C617 C614 1.499 . S
C617 C618 1.373 . S
C617 C619 1.389 . S
C618 H591 0.950 . S
C618 C604 1.377 . S
C618 C617 1.373 . S
C619 C603 1.377 . S
C619 C617 1.389 . S
C619 C620 1.524 . S
C620 C619 1.524 . S
C620 C621 1.397 . S
C620 C625 1.363 . S
C621 H592 0.950 . S
C621 C620 1.397 . S
C621 C622 1.334 . S
C622 H593 0.950 . S
C622 C621 1.334 . S
C622 C623 1.287 . S
C623 C622 1.287 . S
C623 C624 1.524 . S
C623 H626 0.999 . S
C624 H594 0.950 . S
C624 C623 1.524 . S
C624 C625 1.415 . S
C625 H595 0.950 . S
C625 C620 1.363 . S
C625 C624 1.415 . S
H626 C623 0.999 . S
H627 C608 0.913 . S
H628 C646 0.951 . S
H629 C648 0.951 . S
H630 C650 0.950 . S
H631 C651 0.950 . S
H632 C653 0.950 . S
H633 C656 0.950 . S
H634 C657 0.950 . S
H635 C659 0.950 . S
H636 C660 0.950 . S
H637 C661 0.951 . S
H638 C663 0.951 . S
H639 C665 0.950 . S
H640 C666 0.950 . S
H641 C668 0.950 . S
H642 C671 0.950 . S
H643 C672 0.950 . S
H644 C674 0.950 . S
H645 C675 0.950 . S
C646 H628 0.951 . S
C646 C647 1.366 . S
C646 C648 1.388 . S
C647 C646 1.366 . S
C647 C651 1.385 . S
C648 H629 0.951 . S
C648 C646 1.388 . S
C648 C649 1.366 . S
C649 C648 1.366 . S
C649 C650 1.414 . S
C649 C652 1.499 . S
C650 H630 0.950 . S
C650 C649 1.414 . S
C650 C651 1.374 . S
C651 H631 0.950 . S
C651 C647 1.385 . S
C651 C650 1.374 . S
C652 C649 1.499 . S
C652 C653 1.373 . S
C652 C654 1.389 . S
C653 H632 0.950 . S
C653 C652 1.373 . S
C653 C669 1.377 . S
C654 C652 1.389 . S
C654 C655 1.524 . S
C654 C668 1.377 . S
C655 C654 1.524 . S
C655 C656 1.397 . S
C655 C660 1.363 . S
C656 H633 0.950 . S
C656 C655 1.397 . S
C656 C657 1.334 . S
C657 H634 0.950 . S
C657 C656 1.334 . S
C657 C658 1.287 . S
C658 C657 1.287 . S
C658 C659 1.524 . S
C658 H677 0.913 . S
C659 H635 0.950 . S
C659 C658 1.524 . S
C659 C660 1.415 . S
C660 H636 0.950 . S
C660 C655 1.363 . S
C660 C659 1.415 . S
C661 H637 0.951 . S
C661 C662 1.366 . S
C661 C663 1.388 . S
C662 C661 1.366 . S
C662 C666 1.385 . S
C663 H638 0.951 . S
C663 C661 1.388 . S
C663 C664 1.366 . S
C664 C663 1.366 . S
C664 C665 1.414 . S
C664 C667 1.499 . S
C665 H639 0.950 . S
C665 C664 1.414 . S
C665 C666 1.374 . S
C666 H640 0.950 . S
C666 C662 1.385 . S
C666 C665 1.374 . S
C667 C664 1.499 . S
C667 C668 1.373 . S
C667 C669 1.389 . S
C668 H641 0.950 . S
C668 C654 1.377 . S
C668 C667 1.373 . S
C669 C653 1.377 . S
C669 C667 1.389 . S
C669 C670 1.524 . S
C670 C669 1.524 . S
C670 C671 1.397 . S
C670 C675 1.363 . S
C671 H642 0.950 . S
C671 C670 1.397 . S
C671 C672 1.334 . S
C672 H643 0.950 . S
C672 C671 1.334 . S
C672 C673 1.287 . S
C673 C672 1.287 . S
C673 C674 1.524 . S
C673 H676 0.999 . S
C674 H644 0.950 . S
C674 C673 1.524 . S
C674 C675 1.415 . S
C675 H645 0.950 . S
C675 C670 1.363 . S
C675 C674 1.415 . S
H676 C673 0.999 . S
H677 C658 0.913 . S
H678 C696 0.951 . S
H679 C698 0.951 . S
H680 C700 0.950 . S
H681 C701 0.950 . S
H682 C703 0.950 . S
H683 C706 0.950 . S
H684 C707 0.950 . S
H685 C709 0.950 . S
H686 C710 0.950 . S
H687 C711 0.951 . S
H688 C713 0.951 . S
H689 C715 0.950 . S
H690 C716 0.950 . S
H691 C718 0.950 . S
H692 C721 0.950 . S
H693 C722 0.950 . S
H694 C724 0.950 . S
H695 C725 0.950 . S
C696 H678 0.951 . S
C696 C697 1.366 . S
C696 C698 1.388 . S
C697 C696 1.366 . S
C697 C701 1.385 . S
C698 H679 0.951 . S
C698 C696 1.388 . S
C698 C699 1.366 . S
C699 C698 1.366 . S
C699 C700 1.414 . S
C699 C702 1.499 . S
C700 H680 0.950 . S
C700 C699 1.414 . S
C700 C701 1.374 . S
C701 H681 0.950 . S
C701 C697 1.385 . S
C701 C700 1.374 . S
C702 C699 1.499 . S
C702 C703 1.373 . S
C702 C704 1.389 . S
C703 H682 0.950 . S
C703 C702 1.373 . S
C703 C719 1.377 . S
C704 C702 1.389 . S
C704 C705 1.524 . S
C704 C718 1.377 . S
C705 C704 1.524 . S
C705 C706 1.397 . S
C705 C710 1.363 . S
C706 H683 0.950 . S
C706 C705 1.397 . S
C706 C707 1.334 . S
C707 H684 0.950 . S
C707 C706 1.334 . S
C707 C708 1.287 . S
C708 C707 1.287 . S
C708 C709 1.524 . S
C708 H727 0.913 . S
C709 H685 0.950 . S
C709 C708 1.524 . S
C709 C710 1.415 . S
C710 H686 0.950 . S
C710 C705 1.363 . S
C710 C709 1.415 . S
C711 H687 0.951 . S
C711 C712 1.366 . S
C711 C713 1.388 . S
C712 C711 1.366 . S
C712 C716 1.385 . S
C713 H688 0.951 . S
C713 C711 1.388 . S
C713 C714 1.366 . S
C714 C713 1.366 . S
C714 C715 1.414 . S
C714 C717 1.499 . S
C715 H689 0.950 . S
C715 C714 1.414 . S
C715 C716 1.374 . S
C716 H690 0.950 . S
C716 C712 1.385 . S
C716 C715 1.374 . S
C717 C714 1.499 . S
C717 C718 1.373 . S
C717 C719 1.389 . S
C718 H691 0.950 . S
C718 C704 1.377 . S
C718 C717 1.373 . S
C719 C703 1.377 . S
C719 C717 1.389 . S
C719 C720 1.524 . S
C720 C719 1.524 . S
C720 C721 1.397 . S
C720 C725 1.363 . S
C721 H692 0.950 . S
C721 C720 1.397 . S
C721 C722 1.334 . S
C722 H693 0.950 . S
C722 C721 1.334 . S
C722 C723 1.287 . S
C723 C722 1.287 . S
C723 C724 1.524 . S
C723 H726 0.999 . S
C724 H694 0.950 . S
C724 C723 1.524 . S
C724 C725 1.415 . S
C725 H695 0.950 . S
C725 C720 1.363 . S
C725 C724 1.415 . S
H726 C723 0.999 . S
H727 C708 0.913 . S
H728 C746 0.951 . S
H729 C748 0.951 . S
H730 C750 0.950 . S
H731 C751 0.950 . S
H732 C753 0.950 . S
H733 C756 0.950 . S
H734 C757 0.950 . S
H735 C759 0.950 . S
H736 C760 0.950 . S
H737 C761 0.951 . S
H738 C763 0.951 . S
H739 C765 0.950 . S
H740 C766 0.950 . S
H741 C768 0.950 . S
H742 C771 0.950 . S
H743 C772 0.950 . S
H744 C774 0.950 . S
H745 C775 0.950 . S
C746 H728 0.951 . S
C746 C747 1.366 . S
C746 C748 1.388 . S
C747 C746 1.366 . S
C747 C751 1.385 . S
C748 H729 0.951 . S
C748 C746 1.388 . S
C748 C749 1.366 . S
C749 C748 1.366 . S
C749 C750 1.414 . S
C749 C752 1.499 . S
C750 H730 0.950 . S
C750 C749 1.414 . S
C750 C751 1.374 . S
C751 H731 0.950 . S
C751 C747 1.385 . S
C751 C750 1.374 . S
C752 C749 1.499 . S
C752 C753 1.373 . S
C752 C754 1.389 . S
C753 H732 0.950 . S
C753 C752 1.373 . S
C753 C769 1.377 . S
C754 C752 1.389 . S
C754 C755 1.524 . S
C754 C768 1.377 . S
C755 C754 1.524 . S
C755 C756 1.397 . S
C755 C760 1.363 . S
C756 H733 0.950 . S
C756 C755 1.397 . S
C756 C757 1.334 1_556 S
C757 H734 0.950 . S
C757 C756 1.334 1_554 S
C757 C758 1.287 . S
C758 C757 1.287 . S
C758 C759 1.524 1_554 S
C758 H777 0.913 . S
C759 H735 0.950 . S
C759 C758 1.524 1_556 S
C759 C760 1.415 . S
C760 H736 0.950 . S
C760 C755 1.363 . S
C760 C759 1.415 . S
C761 H737 0.951 . S
C761 C762 1.366 . S
C761 C763 1.388 . S
C762 C761 1.366 . S
C762 C766 1.385 . S
C763 H738 0.951 . S
C763 C761 1.388 . S
C763 C764 1.366 . S
C764 C763 1.366 . S
C764 C765 1.414 . S
C764 C767 1.499 . S
C765 H739 0.950 . S
C765 C764 1.414 . S
C765 C766 1.374 . S
C766 H740 0.950 . S
C766 C762 1.385 . S
C766 C765 1.374 . S
C767 C764 1.499 . S
C767 C768 1.373 . S
C767 C769 1.389 . S
C768 H741 0.950 . S
C768 C754 1.377 . S
C768 C767 1.373 . S
C769 C753 1.377 . S
C769 C767 1.389 . S
C769 C770 1.524 . S
C770 C769 1.524 . S
C770 C771 1.397 . S
C770 C775 1.363 . S
C771 H742 0.950 . S
C771 C770 1.397 . S
C771 C772 1.334 . S
C772 H743 0.950 . S
C772 C771 1.334 . S
C772 C773 1.287 . S
C773 C772 1.287 . S
C773 C774 1.524 . S
C773 H776 0.999 . S
C774 H744 0.950 . S
C774 C773 1.524 . S
C774 C775 1.415 . S
C775 H745 0.950 . S
C775 C770 1.363 . S
C775 C774 1.415 . S
H776 C773 0.999 . S
H777 C758 0.913 . S
H778 C796 0.951 . S
H779 C798 0.951 . S
H780 C800 0.950 . S
H781 C801 0.950 . S
H782 C803 0.950 . S
H783 C806 0.950 . S
H784 C807 0.950 . S
H785 C809 0.950 . S
H786 C810 0.950 . S
H787 C811 0.951 . S
H788 C813 0.951 . S
H789 C815 0.950 . S
H790 C816 0.950 . S
H791 C818 0.950 . S
H792 C821 0.950 . S
H793 C822 0.950 . S
H794 C824 0.950 . S
H795 C825 0.950 . S
C796 H778 0.951 . S
C796 C797 1.366 . S
C796 C798 1.388 . S
C797 C796 1.366 . S
C797 C801 1.385 . S
C798 H779 0.951 . S
C798 C796 1.388 . S
C798 C799 1.366 . S
C799 C798 1.366 . S
C799 C800 1.414 . S
C799 C802 1.499 . S
C800 H780 0.950 . S
C800 C799 1.414 . S
C800 C801 1.374 . S
C801 H781 0.950 . S
C801 C797 1.385 . S
C801 C800 1.374 . S
C802 C799 1.499 . S
C802 C803 1.373 . S
C802 C804 1.389 . S
C803 H782 0.950 . S
C803 C802 1.373 . S
C803 C819 1.377 . S
C804 C802 1.389 . S
C804 C805 1.524 . S
C804 C818 1.377 . S
C805 C804 1.524 . S
C805 C806 1.397 . S
C805 C810 1.363 . S
C806 H783 0.950 . S
C806 C805 1.397 . S
C806 C807 1.334 . S
C807 H784 0.950 . S
C807 C806 1.334 . S
C807 C808 1.287 . S
C808 C807 1.287 . S
C808 C809 1.524 . S
C808 H827 0.913 . S
C809 H785 0.950 . S
C809 C808 1.524 . S
C809 C810 1.415 . S
C810 H786 0.950 . S
C810 C805 1.363 . S
C810 C809 1.415 . S
C811 H787 0.951 . S
C811 C812 1.366 . S
C811 C813 1.388 . S
C812 C811 1.366 . S
C812 C816 1.385 . S
C813 H788 0.951 . S
C813 C811 1.388 . S
C813 C814 1.366 . S
C814 C813 1.366 . S
C814 C815 1.414 . S
C814 C817 1.499 . S
C815 H789 0.950 . S
C815 C814 1.414 . S
C815 C816 1.374 . S
C816 H790 0.950 . S
C816 C812 1.385 . S
C816 C815 1.374 . S
C817 C814 1.499 . S
C817 C818 1.373 . S
C817 C819 1.389 . S
C818 H791 0.950 . S
C818 C804 1.377 . S
C818 C817 1.373 . S
C819 C803 1.377 . S
C819 C817 1.389 . S
C819 C820 1.524 . S
C820 C819 1.524 . S
C820 C821 1.397 . S
C820 C825 1.363 . S
C821 H792 0.950 . S
C821 C820 1.397 . S
C821 C822 1.334 . S
C822 H793 0.950 . S
C822 C821 1.334 . S
C822 C823 1.287 . S
C823 C822 1.287 . S
C823 C824 1.524 . S
C823 H826 0.999 . S
C824 H794 0.950 . S
C824 C823 1.524 . S
C824 C825 1.415 . S
C825 H795 0.950 . S
C825 C820 1.363 . S
C825 C824 1.415 . S
H826 C823 0.999 . S
H827 C808 0.913 . S
H828 C846 0.951 . S
H829 C848 0.951 . S
H830 C850 0.950 . S
H831 C851 0.950 . S
H832 C853 0.950 . S
H833 C856 0.950 . S
H834 C857 0.950 . S
H835 C859 0.950 . S
H836 C860 0.950 . S
H837 C861 0.951 . S
H838 C863 0.951 . S
H839 C865 0.950 . S
H840 C866 0.950 . S
H841 C868 0.950 . S
H842 C871 0.950 . S
H843 C872 0.950 . S
H844 C874 0.950 . S
H845 C875 0.950 . S
C846 H828 0.951 . S
C846 C847 1.366 . S
C846 C848 1.388 . S
C847 C846 1.366 . S
C847 C851 1.385 . S
C848 H829 0.951 . S
C848 C846 1.388 . S
C848 C849 1.366 . S
C849 C848 1.366 . S
C849 C850 1.414 . S
C849 C852 1.499 . S
C850 H830 0.950 . S
C850 C849 1.414 . S
C850 C851 1.374 . S
C851 H831 0.950 . S
C851 C847 1.385 . S
C851 C850 1.374 . S
C852 C849 1.499 . S
C852 C853 1.373 . S
C852 C854 1.389 . S
C853 H832 0.950 . S
C853 C852 1.373 . S
C853 C869 1.377 . S
C854 C852 1.389 . S
C854 C855 1.524 . S
C854 C868 1.377 . S
C855 C854 1.524 . S
C855 C856 1.397 . S
C855 C860 1.363 . S
C856 H833 0.950 . S
C856 C855 1.397 . S
C856 C857 1.334 . S
C857 H834 0.950 . S
C857 C856 1.334 . S
C857 C858 1.287 . S
C858 C857 1.287 . S
C858 C859 1.524 . S
C858 H877 0.913 . S
C859 H835 0.950 . S
C859 C858 1.524 . S
C859 C860 1.415 . S
C860 H836 0.950 . S
C860 C855 1.363 . S
C860 C859 1.415 . S
C861 H837 0.951 . S
C861 C862 1.366 . S
C861 C863 1.388 . S
C862 C861 1.366 . S
C862 C866 1.385 . S
C863 H838 0.951 . S
C863 C861 1.388 . S
C863 C864 1.366 . S
C864 C863 1.366 . S
C864 C865 1.414 . S
C864 C867 1.499 . S
C865 H839 0.950 . S
C865 C864 1.414 . S
C865 C866 1.374 . S
C866 H840 0.950 . S
C866 C862 1.385 . S
C866 C865 1.374 . S
C867 C864 1.499 . S
C867 C868 1.373 . S
C867 C869 1.389 . S
C868 H841 0.950 . S
C868 C854 1.377 . S
C868 C867 1.373 . S
C869 C853 1.377 . S
C869 C867 1.389 . S
C869 C870 1.524 . S
C870 C869 1.524 . S
C870 C871 1.397 . S
C870 C875 1.363 . S
C871 H842 0.950 . S
C871 C870 1.397 . S
C871 C872 1.334 . S
C872 H843 0.950 . S
C872 C871 1.334 . S
C872 C873 1.287 . S
C873 C872 1.287 . S
C873 C874 1.524 . S
C873 H876 0.999 . S
C874 H844 0.950 . S
C874 C873 1.524 . S
C874 C875 1.415 . S
C875 H845 0.950 . S
C875 C870 1.363 . S
C875 C874 1.415 . S
H876 C873 0.999 . S
H877 C858 0.913 . S
H878 C896 0.951 . S
H879 C898 0.951 . S
H880 C900 0.950 . S
H881 C901 0.950 . S
H882 C903 0.950 . S
H883 C906 0.950 . S
H884 C907 0.950 . S
H885 C909 0.950 . S
H886 C910 0.950 . S
H887 C911 0.951 . S
H888 C913 0.951 . S
H889 C915 0.950 . S
H890 C916 0.950 . S
H891 C918 0.950 . S
H892 C921 0.950 . S
H893 C922 0.950 . S
H894 C924 0.950 . S
H895 C925 0.950 . S
C896 H878 0.951 . S
C896 C897 1.366 . S
C896 C898 1.388 . S
C897 C896 1.366 . S
C897 C901 1.385 . S
C898 H879 0.951 . S
C898 C896 1.388 . S
C898 C899 1.366 . S
C899 C898 1.366 . S
C899 C900 1.414 . S
C899 C902 1.499 . S
C900 H880 0.950 . S
C900 C899 1.414 . S
C900 C901 1.374 . S
C901 H881 0.950 . S
C901 C897 1.385 . S
C901 C900 1.374 . S
C902 C899 1.499 . S
C902 C903 1.373 . S
C902 C904 1.389 . S
C903 H882 0.950 . S
C903 C902 1.373 . S
C903 C919 1.377 . S
C904 C902 1.389 . S
C904 C905 1.524 . S
C904 C918 1.377 . S
C905 C904 1.524 . S
C905 C906 1.397 . S
C905 C910 1.363 . S
C906 H883 0.950 . S
C906 C905 1.397 . S
C906 C907 1.334 . S
C907 H884 0.950 . S
C907 C906 1.334 . S
C907 C908 1.287 . S
C908 C907 1.287 . S
C908 C909 1.524 . S
C908 H927 0.913 . S
C909 H885 0.950 . S
C909 C908 1.524 . S
C909 C910 1.415 . S
C910 H886 0.950 . S
C910 C905 1.363 . S
C910 C909 1.415 . S
C911 H887 0.951 . S
C911 C912 1.366 . S
C911 C913 1.388 . S
C912 C911 1.366 . S
C912 C916 1.385 . S
C913 H888 0.951 . S
C913 C911 1.388 . S
C913 C914 1.366 . S
C914 C913 1.366 . S
C914 C915 1.414 . S
C914 C917 1.499 . S
C915 H889 0.950 . S
C915 C914 1.414 . S
C915 C916 1.374 . S
C916 H890 0.950 . S
C916 C912 1.385 . S
C916 C915 1.374 . S
C917 C914 1.499 . S
C917 C918 1.373 . S
C917 C919 1.389 . S
C918 H891 0.950 . S
C918 C904 1.377 . S
C918 C917 1.373 . S
C919 C903 1.377 . S
C919 C917 1.389 . S
C919 C920 1.524 . S
C920 C919 1.524 . S
C920 C921 1.397 . S
C920 C925 1.363 . S
C921 H892 0.950 . S
C921 C920 1.397 . S
C921 C922 1.334 . S
C922 H893 0.950 . S
C922 C921 1.334 . S
C922 C923 1.287 . S
C923 C922 1.287 . S
C923 C924 1.524 . S
C923 H926 0.999 . S
C924 H894 0.950 . S
C924 C923 1.524 . S
C924 C925 1.415 . S
C925 H895 0.950 . S
C925 C920 1.363 . S
C925 C924 1.415 . S
H926 C923 0.999 . S
H927 C908 0.913 . S
H928 C946 0.951 . S
H929 C948 0.951 . S
H930 C950 0.950 . S
H931 C951 0.950 . S
H932 C953 0.950 . S
H933 C956 0.950 . S
H934 C957 0.950 . S
H935 C959 0.950 . S
H936 C960 0.950 . S
H937 C961 0.951 . S
H938 C963 0.951 . S
H939 C965 0.950 . S
H940 C966 0.950 . S
H941 C968 0.950 . S
H942 C971 0.950 . S
H943 C972 0.950 . S
H944 C974 0.950 . S
H945 C975 0.950 . S
C946 H928 0.951 . S
C946 C947 1.366 . S
C946 C948 1.388 . S
C947 C946 1.366 . S
C947 C951 1.385 . S
C948 H929 0.951 . S
C948 C946 1.388 . S
C948 C949 1.366 . S
C949 C948 1.366 . S
C949 C950 1.414 . S
C949 C952 1.499 . S
C950 H930 0.950 . S
C950 C949 1.414 . S
C950 C951 1.374 . S
C951 H931 0.950 . S
C951 C947 1.385 . S
C951 C950 1.374 . S
C952 C949 1.499 . S
C952 C953 1.373 . S
C952 C954 1.389 . S
C953 H932 0.950 . S
C953 C952 1.373 . S
C953 C969 1.377 . S
C954 C952 1.389 . S
C954 C955 1.524 . S
C954 C968 1.377 . S
C955 C954 1.524 . S
C955 C956 1.397 . S
C955 C960 1.363 . S
C956 H933 0.950 . S
C956 C955 1.397 . S
C956 C957 1.334 . S
C957 H934 0.950 . S
C957 C956 1.334 . S
C957 C958 1.287 . S
C958 C957 1.287 . S
C958 C959 1.524 . S
C958 H977 0.913 . S
C959 H935 0.950 . S
C959 C958 1.524 . S
C959 C960 1.415 . S
C960 H936 0.950 . S
C960 C955 1.363 . S
C960 C959 1.415 . S
C961 H937 0.951 . S
C961 C962 1.366 . S
C961 C963 1.388 . S
C962 C961 1.366 . S
C962 C966 1.385 . S
C963 H938 0.951 . S
C963 C961 1.388 . S
C963 C964 1.366 . S
C964 C963 1.366 . S
C964 C965 1.414 . S
C964 C967 1.499 . S
C965 H939 0.950 . S
C965 C964 1.414 . S
C965 C966 1.374 . S
C966 H940 0.950 . S
C966 C962 1.385 . S
C966 C965 1.374 . S
C967 C964 1.499 . S
C967 C968 1.373 . S
C967 C969 1.389 . S
C968 H941 0.950 . S
C968 C954 1.377 . S
C968 C967 1.373 . S
C969 C953 1.377 . S
C969 C967 1.389 . S
C969 C970 1.524 . S
C970 C969 1.524 . S
C970 C971 1.397 . S
C970 C975 1.363 . S
C971 H942 0.950 . S
C971 C970 1.397 . S
C971 C972 1.334 . S
C972 H943 0.950 . S
C972 C971 1.334 . S
C972 C973 1.287 . S
C973 C972 1.287 . S
C973 C974 1.524 . S
C973 H976 0.999 . S
C974 H944 0.950 . S
C974 C973 1.524 . S
C974 C975 1.415 . S
C975 H945 0.950 . S
C975 C970 1.363 . S
C975 C974 1.415 . S
H976 C973 0.999 . S
H977 C958 0.913 . S
H978 C996 0.951 . S
H979 C998 0.951 . S
H980 C1000 0.950 . S
H981 C1001 0.950 . S
H982 C1003 0.950 . S
H983 C1006 0.950 . S
H984 C1007 0.950 . S
H985 C1009 0.950 . S
H986 C1010 0.950 1_554 S
H987 C1011 0.951 . S
H988 C1013 0.951 . S
H989 C1015 0.950 . S
H990 C1016 0.950 . S
H991 C1018 0.950 . S
H992 C1021 0.950 . S
H993 C1022 0.950 . S
H994 C1024 0.950 . S
H995 C1025 0.950 . S
C996 H978 0.951 . S
C996 C997 1.366 . S
C996 C998 1.388 . S
C997 C996 1.366 . S
C997 C1001 1.385 . S
C998 H979 0.951 . S
C998 C996 1.388 . S
C998 C999 1.366 . S
C999 C998 1.366 . S
C999 C1000 1.414 . S
C999 C1002 1.499 . S
C1000 H980 0.950 . S
C1000 C999 1.414 . S
C1000 C1001 1.374 . S
C1001 H981 0.950 . S
C1001 C997 1.385 . S
C1001 C1000 1.374 . S
C1002 C999 1.499 . S
C1002 C1003 1.373 . S
C1002 C1004 1.389 . S
C1003 H982 0.950 . S
C1003 C1002 1.373 . S
C1003 C1019 1.377 . S
C1004 C1002 1.389 . S
C1004 C1005 1.582 . S
C1004 C1018 1.377 . S
C1005 C1004 1.582 . S
C1005 C1006 1.359 1_554 S
C1005 C1010 1.345 1_554 S
C1006 H983 0.950 . S
C1006 C1005 1.359 1_556 S
C1006 C1007 1.334 . S
C1007 H984 0.950 . S
C1007 C1006 1.334 . S
C1007 C1008 1.287 . S
C1008 C1007 1.287 . S
C1008 C1009 1.524 . S
C1008 H1027 0.913 . S
C1009 H985 0.950 . S
C1009 C1008 1.524 . S
C1009 C1010 1.415 . S
C1010 H986 0.950 1_556 S
C1010 C1005 1.345 1_556 S
C1010 C1009 1.415 . S
C1011 H987 0.951 . S
C1011 C1012 1.366 . S
C1011 C1013 1.388 . S
C1012 C1011 1.366 . S
C1012 C1016 1.385 . S
C1013 H988 0.951 . S
C1013 C1011 1.388 . S
C1013 C1014 1.366 . S
C1014 C1013 1.366 . S
C1014 C1015 1.414 . S
C1014 C1017 1.499 . S
C1015 H989 0.950 . S
C1015 C1014 1.414 . S
C1015 C1016 1.374 . S
C1016 H990 0.950 . S
C1016 C1012 1.385 . S
C1016 C1015 1.374 . S
C1017 C1014 1.499 . S
C1017 C1018 1.373 . S
C1017 C1019 1.389 . S
C1018 H991 0.950 . S
C1018 C1004 1.377 . S
C1018 C1017 1.373 . S
C1019 C1003 1.377 . S
C1019 C1017 1.389 . S
C1019 C1020 1.524 . S
C1020 C1019 1.524 . S
C1020 C1021 1.397 . S
C1020 C1025 1.363 . S
C1021 H992 0.950 . S
C1021 C1020 1.397 . S
C1021 C1022 1.334 . S
C1022 H993 0.950 . S
C1022 C1021 1.334 . S
C1022 C1023 1.287 . S
C1023 C1022 1.287 . S
C1023 C1024 1.524 . S
C1023 H1026 0.999 . S
C1024 H994 0.950 . S
C1024 C1023 1.524 . S
C1024 C1025 1.415 . S
C1025 H995 0.950 . S
C1025 C1020 1.363 . S
C1025 C1024 1.415 . S
H1026 C1023 0.999 . S
H1027 C1008 0.913 . S
H1028 C1046 0.951 . S
H1029 C1048 0.951 . S
H1030 C1050 0.950 . S
H1031 C1051 0.950 . S
H1032 C1053 0.950 . S
H1033 C1056 0.950 . S
H1034 C1057 0.950 . S
H1035 C1059 0.950 . S
H1036 C1060 0.950 . S
H1037 C1061 0.951 . S
H1038 C1063 0.951 . S
H1039 C1065 0.950 . S
H1040 C1066 0.950 . S
H1041 C1068 0.950 . S
H1042 C1071 0.950 . S
H1043 C1072 0.950 . S
H1044 C1074 0.950 . S
H1045 C1075 0.950 . S
C1046 H1028 0.951 . S
C1046 C1047 1.366 . S
C1046 C1048 1.388 . S
C1047 C1046 1.366 . S
C1047 C1051 1.385 . S
C1048 H1029 0.951 . S
C1048 C1046 1.388 . S
C1048 C1049 1.366 . S
C1049 C1048 1.366 . S
C1049 C1050 1.414 . S
C1049 C1052 1.499 . S
C1050 H1030 0.950 . S
C1050 C1049 1.414 . S
C1050 C1051 1.374 . S
C1051 H1031 0.950 . S
C1051 C1047 1.385 . S
C1051 C1050 1.374 . S
C1052 C1049 1.499 . S
C1052 C1053 1.373 . S
C1052 C1054 1.389 . S
C1053 H1032 0.950 . S
C1053 C1052 1.373 . S
C1053 C1069 1.377 . S
C1054 C1052 1.389 . S
C1054 C1055 1.524 . S
C1054 C1068 1.377 . S
C1055 C1054 1.524 . S
C1055 C1056 1.397 . S
C1055 C1060 1.363 . S
C1056 H1033 0.950 . S
C1056 C1055 1.397 . S
C1056 C1057 1.334 . S
C1057 H1034 0.950 . S
C1057 C1056 1.334 . S
C1057 C1058 1.287 . S
C1058 C1057 1.287 . S
C1058 C1059 1.524 . S
C1058 H1077 0.913 . S
C1059 H1035 0.950 . S
C1059 C1058 1.524 . S
C1059 C1060 1.415 . S
C1060 H1036 0.950 . S
C1060 C1055 1.363 . S
C1060 C1059 1.415 . S
C1061 H1037 0.951 . S
C1061 C1062 1.366 . S
C1061 C1063 1.388 . S
C1062 C1061 1.366 . S
C1062 C1066 1.385 . S
C1063 H1038 0.951 . S
C1063 C1061 1.388 . S
C1063 C1064 1.366 . S
C1064 C1063 1.366 . S
C1064 C1065 1.414 . S
C1064 C1067 1.499 . S
C1065 H1039 0.950 . S
C1065 C1064 1.414 . S
C1065 C1066 1.374 . S
C1066 H1040 0.950 . S
C1066 C1062 1.385 . S
C1066 C1065 1.374 . S
C1067 C1064 1.499 . S
C1067 C1068 1.373 . S
C1067 C1069 1.389 . S
C1068 H1041 0.950 . S
C1068 C1054 1.377 . S
C1068 C1067 1.373 . S
C1069 C1053 1.377 . S
C1069 C1067 1.389 . S
C1069 C1070 1.524 . S
C1070 C1069 1.524 . S
C1070 C1071 1.397 . S
C1070 C1075 1.363 . S
C1071 H1042 0.950 . S
C1071 C1070 1.397 . S
C1071 C1072 1.334 . S
C1072 H1043 0.950 . S
C1072 C1071 1.334 . S
C1072 C1073 1.287 . S
C1073 C1072 1.287 . S
C1073 C1074 1.524 . S
C1073 H1076 0.999 . S
C1074 H1044 0.950 . S
C1074 C1073 1.524 . S
C1074 C1075 1.415 . S
C1075 H1045 0.950 . S
C1075 C1070 1.363 . S
C1075 C1074 1.415 . S
H1076 C1073 0.999 . S
H1077 C1058 0.913 . S
H1078 C1096 0.951 . S
H1079 C1098 0.951 . S
H1080 C1100 0.950 . S
H1081 C1101 0.950 . S
H1082 C1103 0.950 . S
H1083 C1106 0.950 . S
H1084 C1107 0.950 . S
H1085 C1109 0.950 . S
H1086 C1110 0.950 . S
H1087 C1111 0.951 . S
H1088 C1113 0.951 . S
H1089 C1115 0.950 . S
H1090 C1116 0.950 . S
H1091 C1118 0.950 . S
H1092 C1121 0.950 . S
H1093 C1122 0.950 . S
H1094 C1124 0.950 . S
H1095 C1125 0.950 . S
C1096 H1078 0.951 . S
C1096 C1097 1.366 . S
C1096 C1098 1.388 . S
C1097 C1096 1.366 . S
C1097 C1101 1.385 . S
C1098 H1079 0.951 . S
C1098 C1096 1.388 . S
C1098 C1099 1.366 . S
C1099 C1098 1.366 . S
C1099 C1100 1.414 . S
C1099 C1102 1.499 . S
C1100 H1080 0.950 . S
C1100 C1099 1.414 . S
C1100 C1101 1.374 . S
C1101 H1081 0.950 . S
C1101 C1097 1.385 . S
C1101 C1100 1.374 . S
C1102 C1099 1.499 . S
C1102 C1103 1.373 . S
C1102 C1104 1.389 . S
C1103 H1082 0.950 . S
C1103 C1102 1.373 . S
C1103 C1119 1.377 . S
C1104 C1102 1.389 . S
C1104 C1105 1.524 . S
C1104 C1118 1.377 . S
C1105 C1104 1.524 . S
C1105 C1106 1.397 . S
C1105 C1110 1.363 . S
C1106 H1083 0.950 . S
C1106 C1105 1.397 . S
C1106 C1107 1.334 . S
C1107 H1084 0.950 . S
C1107 C1106 1.334 . S
C1107 C1108 1.287 . S
C1108 C1107 1.287 . S
C1108 C1109 1.524 . S
C1108 H1127 0.913 . S
C1109 H1085 0.950 . S
C1109 C1108 1.524 . S
C1109 C1110 1.415 . S
C1110 H1086 0.950 . S
C1110 C1105 1.363 . S
C1110 C1109 1.415 . S
C1111 H1087 0.951 . S
C1111 C1112 1.366 . S
C1111 C1113 1.388 . S
C1112 C1111 1.366 . S
C1112 C1116 1.385 . S
C1113 H1088 0.951 . S
C1113 C1111 1.388 . S
C1113 C1114 1.366 . S
C1114 C1113 1.366 . S
C1114 C1115 1.414 . S
C1114 C1117 1.499 . S
C1115 H1089 0.950 . S
C1115 C1114 1.414 . S
C1115 C1116 1.374 . S
C1116 H1090 0.950 . S
C1116 C1112 1.385 . S
C1116 C1115 1.374 . S
C1117 C1114 1.499 . S
C1117 C1118 1.373 . S
C1117 C1119 1.389 . S
C1118 H1091 0.950 . S
C1118 C1104 1.377 . S
C1118 C1117 1.373 . S
C1119 C1103 1.377 . S
C1119 C1117 1.389 . S
C1119 C1120 1.524 . S
C1120 C1119 1.524 . S
C1120 C1121 1.397 . S
C1120 C1125 1.363 . S
C1121 H1092 0.950 . S
C1121 C1120 1.397 . S
C1121 C1122 1.334 . S
C1122 H1093 0.950 . S
C1122 C1121 1.334 . S
C1122 C1123 1.287 . S
C1123 C1122 1.287 . S
C1123 C1124 1.524 . S
C1123 H1126 0.999 . S
C1124 H1094 0.950 . S
C1124 C1123 1.524 . S
C1124 C1125 1.415 . S
C1125 H1095 0.950 . S
C1125 C1120 1.363 . S
C1125 C1124 1.415 . S
H1126 C1123 0.999 . S
H1127 C1108 0.913 . S
H1128 C1146 0.951 . S
H1129 C1148 0.951 . S
H1130 C1150 0.950 . S
H1131 C1151 0.950 . S
H1132 C1153 0.950 . S
H1133 C1156 0.950 . S
H1134 C1157 0.950 1_655 S
H1135 C1159 0.950 . S
H1136 C1160 0.950 . S
H1137 C1161 0.951 . S
H1138 C1163 0.951 . S
H1139 C1165 0.950 . S
H1140 C1166 0.950 . S
H1141 C1168 0.950 . S
H1142 C1171 0.950 . S
H1143 C1172 0.950 . S
H1144 C1174 0.950 . S
H1145 C1175 0.950 . S
C1146 H1128 0.951 . S
C1146 C1147 1.366 . S
C1146 C1148 1.388 . S
C1147 C1146 1.366 . S
C1147 C1151 1.385 . S
C1148 H1129 0.951 . S
C1148 C1146 1.388 . S
C1148 C1149 1.366 . S
C1149 C1148 1.366 . S
C1149 C1150 1.414 . S
C1149 C1152 1.499 . S
C1150 H1130 0.950 . S
C1150 C1149 1.414 . S
C1150 C1151 1.374 . S
C1151 H1131 0.950 . S
C1151 C1147 1.385 . S
C1151 C1150 1.374 . S
C1152 C1149 1.499 . S
C1152 C1153 1.373 . S
C1152 C1154 1.389 . S
C1153 H1132 0.950 . S
C1153 C1152 1.373 . S
C1153 C1169 1.377 . S
C1154 C1152 1.389 . S
C1154 C1155 1.524 . S
C1154 C1168 1.377 . S
C1155 C1154 1.524 . S
C1155 C1156 1.397 . S
C1155 C1160 1.363 . S
C1156 H1133 0.950 . S
C1156 C1155 1.397 . S
C1156 C1157 1.334 . S
C1157 H1134 0.950 1_455 S
C1157 C1156 1.334 . S
C1157 C1158 1.287 1_455 S
C1158 C1157 1.287 1_655 S
C1158 C1159 1.524 1_655 S
C1158 H1177 0.913 . S
C1159 H1135 0.950 . S
C1159 C1158 1.524 1_455 S
C1159 C1160 1.415 . S
C1160 H1136 0.950 . S
C1160 C1155 1.363 . S
C1160 C1159 1.415 . S
C1161 H1137 0.951 . S
C1161 C1162 1.366 . S
C1161 C1163 1.388 . S
C1162 C1161 1.366 . S
C1162 C1166 1.385 . S
C1163 H1138 0.951 . S
C1163 C1161 1.388 . S
C1163 C1164 1.366 . S
C1164 C1163 1.366 . S
C1164 C1165 1.414 . S
C1164 C1167 1.499 . S
C1165 H1139 0.950 . S
C1165 C1164 1.414 . S
C1165 C1166 1.374 . S
C1166 H1140 0.950 . S
C1166 C1162 1.385 . S
C1166 C1165 1.374 . S
C1167 C1164 1.499 . S
C1167 C1168 1.373 . S
C1167 C1169 1.389 . S
C1168 H1141 0.950 . S
C1168 C1154 1.377 . S
C1168 C1167 1.373 . S
C1169 C1153 1.377 . S
C1169 C1167 1.389 . S
C1169 C1170 1.524 . S
C1170 C1169 1.524 . S
C1170 C1171 1.397 . S
C1170 C1175 1.363 . S
C1171 H1142 0.950 . S
C1171 C1170 1.397 . S
C1171 C1172 1.334 . S
C1172 H1143 0.950 . S
C1172 C1171 1.334 . S
C1172 C1173 1.287 . S
C1173 C1172 1.287 . S
C1173 C1174 1.524 . S
C1173 H1176 0.999 . S
C1174 H1144 0.950 . S
C1174 C1173 1.524 . S
C1174 C1175 1.415 . S
C1175 H1145 0.950 . S
C1175 C1170 1.363 . S
C1175 C1174 1.415 . S
H1176 C1173 0.999 . S
H1177 C1158 0.913 . S
H1178 C1196 0.951 . S
H1179 C1198 0.951 . S
H1180 C1200 0.950 . S
H1181 C1201 0.950 . S
H1182 C1203 0.950 . S
H1183 C1206 0.950 . S
H1184 C1207 0.950 . S
H1185 C1209 0.950 . S
H1186 C1210 0.950 . S
H1187 C1211 0.951 . S
H1188 C1213 0.951 . S
H1189 C1215 0.950 . S
H1190 C1216 0.950 . S
H1191 C1218 0.950 . S
H1192 C1221 0.950 . S
H1193 C1222 0.950 . S
H1194 C1224 0.950 . S
H1195 C1225 0.950 . S
C1196 H1178 0.951 . S
C1196 C1197 1.366 . S
C1196 C1198 1.388 . S
C1197 C1196 1.366 . S
C1197 C1201 1.385 . S
C1198 H1179 0.951 . S
C1198 C1196 1.388 . S
C1198 C1199 1.366 . S
C1199 C1198 1.366 . S
C1199 C1200 1.414 . S
C1199 C1202 1.499 . S
C1200 H1180 0.950 . S
C1200 C1199 1.414 . S
C1200 C1201 1.374 . S
C1201 H1181 0.950 . S
C1201 C1197 1.385 . S
C1201 C1200 1.374 . S
C1202 C1199 1.499 . S
C1202 C1203 1.373 . S
C1202 C1204 1.389 . S
C1203 H1182 0.950 . S
C1203 C1202 1.373 . S
C1203 C1219 1.377 . S
C1204 C1202 1.389 . S
C1204 C1205 1.524 . S
C1204 C1218 1.377 . S
C1205 C1204 1.524 . S
C1205 C1206 1.397 . S
C1205 C1210 1.363 . S
C1206 H1183 0.950 . S
C1206 C1205 1.397 . S
C1206 C1207 1.334 . S
C1207 H1184 0.950 . S
C1207 C1206 1.334 . S
C1207 C1208 1.287 . S
C1208 C1207 1.287 . S
C1208 C1209 1.524 . S
C1208 H1227 0.913 . S
C1209 H1185 0.950 . S
C1209 C1208 1.524 . S
C1209 C1210 1.415 . S
C1210 H1186 0.950 . S
C1210 C1205 1.363 . S
C1210 C1209 1.415 . S
C1211 H1187 0.951 . S
C1211 C1212 1.366 . S
C1211 C1213 1.388 . S
C1212 C1211 1.366 . S
C1212 C1216 1.385 . S
C1213 H1188 0.951 . S
C1213 C1211 1.388 . S
C1213 C1214 1.366 . S
C1214 C1213 1.366 . S
C1214 C1215 1.414 . S
C1214 C1217 1.499 . S
C1215 H1189 0.950 . S
C1215 C1214 1.414 . S
C1215 C1216 1.374 . S
C1216 H1190 0.950 . S
C1216 C1212 1.385 . S
C1216 C1215 1.374 . S
C1217 C1214 1.499 . S
C1217 C1218 1.373 . S
C1217 C1219 1.389 . S
C1218 H1191 0.950 . S
C1218 C1204 1.377 . S
C1218 C1217 1.373 . S
C1219 C1203 1.377 . S
C1219 C1217 1.389 . S
C1219 C1220 1.524 . S
C1220 C1219 1.524 . S
C1220 C1221 1.397 . S
C1220 C1225 1.363 . S
C1221 H1192 0.950 . S
C1221 C1220 1.397 . S
C1221 C1222 1.334 . S
C1222 H1193 0.950 . S
C1222 C1221 1.334 . S
C1222 C1223 1.287 . S
C1223 C1222 1.287 . S
C1223 C1224 1.524 . S
C1223 H1226 0.999 . S
C1224 H1194 0.950 . S
C1224 C1223 1.524 . S
C1224 C1225 1.415 . S
C1225 H1195 0.950 . S
C1225 C1220 1.363 . S
C1225 C1224 1.415 . S
H1226 C1223 0.999 . S
H1227 C1208 0.913 . S
H1228 C1246 0.951 . S
H1229 C1248 0.951 . S
H1230 C1250 0.950 . S
H1231 C1251 0.950 . S
H1232 C1253 0.950 . S
H1233 C1256 0.950 . S
H1234 C1257 0.950 . S
H1235 C1259 0.950 . S
H1236 C1260 0.950 . S
H1237 C1261 0.951 . S
H1238 C1263 0.951 . S
H1239 C1265 0.950 . S
H1240 C1266 0.950 . S
H1241 C1268 0.950 . S
H1242 C1271 0.950 . S
H1243 C1272 0.950 . S
H1244 C1274 0.950 . S
H1245 C1275 0.950 . S
C1246 H1228 0.951 . S
C1246 C1247 1.366 . S
C1246 C1248 1.388 . S
C1247 C1246 1.366 . S
C1247 C1251 1.385 . S
C1248 H1229 0.951 . S
C1248 C1246 1.388 . S
C1248 C1249 1.366 . S
C1249 C1248 1.366 . S
C1249 C1250 1.414 . S
C1249 C1252 1.499 . S
C1250 H1230 0.950 . S
C1250 C1249 1.414 . S
C1250 C1251 1.374 . S
C1251 H1231 0.950 . S
C1251 C1247 1.385 . S
C1251 C1250 1.374 . S
C1252 C1249 1.499 . S
C1252 C1253 1.373 . S
C1252 C1254 1.389 . S
C1253 H1232 0.950 . S
C1253 C1252 1.373 . S
C1253 C1269 1.377 . S
C1254 C1252 1.389 . S
C1254 C1255 1.524 . S
C1254 C1268 1.377 . S
C1255 C1254 1.524 . S
C1255 C1256 1.397 . S
C1255 C1260 1.363 . S
C1256 H1233 0.950 . S
C1256 C1255 1.397 . S
C1256 C1257 1.334 . S
C1257 H1234 0.950 . S
C1257 C1256 1.334 . S
C1257 C1258 1.287 . S
C1258 C1257 1.287 . S
C1258 C1259 1.524 . S
C1258 H1277 0.913 . S
C1259 H1235 0.950 . S
C1259 C1258 1.524 . S
C1259 C1260 1.415 . S
C1260 H1236 0.950 . S
C1260 C1255 1.363 . S
C1260 C1259 1.415 . S
C1261 H1237 0.951 . S
C1261 C1262 1.366 . S
C1261 C1263 1.388 . S
C1262 C1261 1.366 . S
C1262 C1266 1.385 . S
C1263 H1238 0.951 . S
C1263 C1261 1.388 . S
C1263 C1264 1.366 . S
C1264 C1263 1.366 . S
C1264 C1265 1.414 . S
C1264 C1267 1.499 . S
C1265 H1239 0.950 . S
C1265 C1264 1.414 . S
C1265 C1266 1.374 . S
C1266 H1240 0.950 . S
C1266 C1262 1.385 . S
C1266 C1265 1.374 . S
C1267 C1264 1.499 . S
C1267 C1268 1.373 . S
C1267 C1269 1.389 . S
C1268 H1241 0.950 . S
C1268 C1254 1.377 . S
C1268 C1267 1.373 . S
C1269 C1253 1.377 . S
C1269 C1267 1.389 . S
C1269 C1270 1.524 . S
C1270 C1269 1.524 . S
C1270 C1271 1.397 . S
C1270 C1275 1.363 . S
C1271 H1242 0.950 . S
C1271 C1270 1.397 . S
C1271 C1272 1.334 . S
C1272 H1243 0.950 . S
C1272 C1271 1.334 . S
C1272 C1273 1.287 . S
C1273 C1272 1.287 . S
C1273 C1274 1.524 . S
C1273 H1276 0.999 . S
C1274 H1244 0.950 . S
C1274 C1273 1.524 . S
C1274 C1275 1.415 . S
C1275 H1245 0.950 . S
C1275 C1270 1.363 . S
C1275 C1274 1.415 . S
H1276 C1273 0.999 . S
H1277 C1258 0.913 . S
H1278 C1296 0.951 . S
H1279 C1298 0.951 . S
H1280 C1300 0.950 . S
H1281 C1301 0.950 . S
H1282 C1303 0.950 . S
H1283 C1306 0.950 . S
H1284 C1307 0.950 . S
H1285 C1309 0.950 . S
H1286 C1310 0.950 . S
H1287 C1311 0.951 . S
H1288 C1313 0.951 . S
H1289 C1315 0.950 . S
H1290 C1316 0.950 . S
H1291 C1318 0.950 . S
H1292 C1321 0.950 . S
H1293 C1322 0.950 . S
H1294 C1324 0.950 . S
H1295 C1325 0.950 . S
C1296 H1278 0.951 . S
C1296 C1297 1.366 . S
C1296 C1298 1.388 . S
C1297 C1296 1.366 . S
C1297 C1301 1.385 . S
C1298 H1279 0.951 . S
C1298 C1296 1.388 . S
C1298 C1299 1.366 . S
C1299 C1298 1.366 . S
C1299 C1300 1.414 . S
C1299 C1302 1.499 . S
C1300 H1280 0.950 . S
C1300 C1299 1.414 . S
C1300 C1301 1.374 . S
C1301 H1281 0.950 . S
C1301 C1297 1.385 . S
C1301 C1300 1.374 . S
C1302 C1299 1.499 . S
C1302 C1303 1.373 . S
C1302 C1304 1.389 . S
C1303 H1282 0.950 . S
C1303 C1302 1.373 . S
C1303 C1319 1.377 . S
C1304 C1302 1.389 . S
C1304 C1305 1.524 . S
C1304 C1318 1.377 . S
C1305 C1304 1.524 . S
C1305 C1306 1.397 . S
C1305 C1310 1.363 . S
C1306 H1283 0.950 . S
C1306 C1305 1.397 . S
C1306 C1307 1.334 . S
C1307 H1284 0.950 . S
C1307 C1306 1.334 . S
C1307 C1308 1.287 . S
C1308 C1307 1.287 . S
C1308 C1309 1.524 . S
C1308 H1327 0.913 . S
C1309 H1285 0.950 . S
C1309 C1308 1.524 . S
C1309 C1310 1.415 . S
C1310 H1286 0.950 . S
C1310 C1305 1.363 . S
C1310 C1309 1.415 . S
C1311 H1287 0.951 . S
C1311 C1312 1.366 . S
C1311 C1313 1.388 . S
C1312 C1311 1.366 . S
C1312 C1316 1.385 . S
C1313 H1288 0.951 . S
C1313 C1311 1.388 . S
C1313 C1314 1.366 1_554 S
C1314 C1313 1.366 1_556 S
C1314 C1315 1.414 . S
C1314 C1317 1.499 . S
C1315 H1289 0.950 . S
C1315 C1314 1.414 . S
C1315 C1316 1.374 1_556 S
C1316 H1290 0.950 . S
C1316 C1312 1.385 . S
C1316 C1315 1.374 1_554 S
C1317 C1314 1.499 . S
C1317 C1318 1.373 . S
C1317 C1319 1.389 . S
C1318 H1291 0.950 . S
C1318 C1304 1.377 . S
C1318 C1317 1.373 . S
C1319 C1303 1.377 . S
C1319 C1317 1.389 . S
C1319 C1320 1.524 . S
C1320 C1319 1.524 . S
C1320 C1321 1.397 . S
C1320 C1325 1.363 . S
C1321 H1292 0.950 . S
C1321 C1320 1.397 . S
C1321 C1322 1.334 . S
C1322 H1293 0.950 . S
C1322 C1321 1.334 . S
C1322 C1323 1.287 . S
C1323 C1322 1.287 . S
C1323 C1324 1.524 . S
C1323 H1326 0.999 . S
C1324 H1294 0.950 . S
C1324 C1323 1.524 . S
C1324 C1325 1.415 . S
C1325 H1295 0.950 . S
C1325 C1320 1.363 . S
C1325 C1324 1.415 . S
H1326 C1323 0.999 . S
H1327 C1308 0.913 . S
H1328 C1346 0.951 . S
H1329 C1348 0.951 . S
H1330 C1350 0.950 . S
H1331 C1351 0.950 . S
H1332 C1353 0.950 . S
H1333 C1356 0.950 . S
H1334 C1357 0.950 . S
H1335 C1359 0.950 . S
H1336 C1360 0.950 . S
H1337 C1361 0.951 . S
H1338 C1363 0.951 . S
H1339 C1365 0.950 . S
H1340 C1366 0.950 . S
H1341 C1368 0.950 . S
H1342 C1371 0.950 . S
H1343 C1372 0.950 . S
H1344 C1374 0.950 1_545 S
H1345 C1375 0.950 . S
C1346 H1328 0.951 . S
C1346 C1347 1.366 1_565 S
C1346 C1348 1.388 . S
C1347 C1346 1.366 1_545 S
C1347 C1351 1.385 . S
C1348 H1329 0.951 . S
C1348 C1346 1.388 . S
C1348 C1349 1.366 . S
C1349 C1348 1.366 . S
C1349 C1350 1.414 1_565 S
C1349 C1352 1.499 . S
C1350 H1330 0.950 . S
C1350 C1349 1.414 1_545 S
C1350 C1351 1.374 . S
C1351 H1331 0.950 . S
C1351 C1347 1.385 . S
C1351 C1350 1.374 . S
C1352 C1349 1.499 . S
C1352 C1353 1.373 . S
C1352 C1354 1.389 . S
C1353 H1332 0.950 . S
C1353 C1352 1.373 . S
C1353 C1369 1.377 . S
C1354 C1352 1.389 . S
C1354 C1355 1.524 . S
C1354 C1368 1.377 . S
C1355 C1354 1.524 . S
C1355 C1356 1.397 . S
C1355 C1360 1.363 . S
C1356 H1333 0.950 . S
C1356 C1355 1.397 . S
C1356 C1357 1.334 . S
C1357 H1334 0.950 . S
C1357 C1356 1.334 . S
C1357 C1358 1.287 . S
C1358 C1357 1.287 . S
C1358 C1359 1.524 . S
C1358 H1377 0.913 . S
C1359 H1335 0.950 . S
C1359 C1358 1.524 . S
C1359 C1360 1.415 . S
C1360 H1336 0.950 . S
C1360 C1355 1.363 . S
C1360 C1359 1.415 . S
C1361 H1337 0.951 . S
C1361 C1362 1.366 . S
C1361 C1363 1.388 . S
C1362 C1361 1.366 . S
C1362 C1366 1.385 . S
C1363 H1338 0.951 . S
C1363 C1361 1.388 . S
C1363 C1364 1.366 . S
C1364 C1363 1.366 . S
C1364 C1365 1.414 . S
C1364 C1367 1.499 . S
C1365 H1339 0.950 . S
C1365 C1364 1.414 . S
C1365 C1366 1.374 . S
C1366 H1340 0.950 . S
C1366 C1362 1.385 . S
C1366 C1365 1.374 . S
C1367 C1364 1.499 . S
C1367 C1368 1.373 . S
C1367 C1369 1.389 . S
C1368 H1341 0.950 . S
C1368 C1354 1.377 . S
C1368 C1367 1.373 . S
C1369 C1353 1.377 . S
C1369 C1367 1.389 . S
C1369 C1370 1.524 . S
C1370 C1369 1.524 . S
C1370 C1371 1.397 . S
C1370 C1375 1.363 . S
C1371 H1342 0.950 . S
C1371 C1370 1.397 . S
C1371 C1372 1.334 . S
C1372 H1343 0.950 . S
C1372 C1371 1.334 . S
C1372 C1373 1.287 . S
C1373 C1372 1.287 . S
C1373 C1374 1.524 . S
C1373 H1376 0.999 . S
C1374 H1344 0.950 1_565 S
C1374 C1373 1.524 . S
C1374 C1375 1.415 . S
C1375 H1345 0.950 . S
C1375 C1370 1.363 . S
C1375 C1374 1.415 . S
H1376 C1373 0.999 . S
H1377 C1358 0.913 . S
H1378 C1396 0.951 . S
H1379 C1398 0.951 . S
H1380 C1400 0.950 . S
H1381 C1401 0.950 . S
H1382 C1403 0.950 . S
H1383 C1406 0.950 . S
H1384 C1407 0.950 . S
H1385 C1409 0.950 . S
H1386 C1410 0.950 . S
H1387 C1411 0.951 . S
H1388 C1413 0.951 . S
H1389 C1415 0.950 . S
H1390 C1416 0.950 . S
H1391 C1418 0.950 . S
H1392 C1421 0.950 . S
H1393 C1422 0.950 . S
H1394 C1424 0.950 . S
H1395 C1425 0.950 . S
C1396 H1378 0.951 . S
C1396 C1397 1.366 . S
C1396 C1398 1.388 . S
C1397 C1396 1.366 . S
C1397 C1401 1.385 . S
C1398 H1379 0.951 . S
C1398 C1396 1.388 . S
C1398 C1399 1.366 . S
C1399 C1398 1.366 . S
C1399 C1400 1.414 . S
C1399 C1402 1.499 . S
C1400 H1380 0.950 . S
C1400 C1399 1.414 . S
C1400 C1401 1.374 . S
C1401 H1381 0.950 . S
C1401 C1397 1.385 . S
C1401 C1400 1.374 . S
C1402 C1399 1.499 . S
C1402 C1403 1.373 . S
C1402 C1404 1.389 . S
C1403 H1382 0.950 . S
C1403 C1402 1.373 . S
C1403 C1419 1.377 . S
C1404 C1402 1.389 . S
C1404 C1405 1.524 . S
C1404 C1418 1.377 . S
C1405 C1404 1.524 . S
C1405 C1406 1.397 . S
C1405 C1410 1.363 . S
C1406 H1383 0.950 . S
C1406 C1405 1.397 . S
C1406 C1407 1.334 . S
C1407 H1384 0.950 . S
C1407 C1406 1.334 . S
C1407 C1408 1.287 . S
C1408 C1407 1.287 . S
C1408 C1409 1.524 . S
C1408 H1427 0.913 . S
C1409 H1385 0.950 . S
C1409 C1408 1.524 . S
C1409 C1410 1.415 . S
C1410 H1386 0.950 . S
C1410 C1405 1.363 . S
C1410 C1409 1.415 . S
C1411 H1387 0.951 . S
C1411 C1412 1.366 . S
C1411 C1413 1.388 . S
C1412 C1411 1.366 . S
C1412 C1416 1.385 . S
C1413 H1388 0.951 . S
C1413 C1411 1.388 . S
C1413 C1414 1.366 . S
C1414 C1413 1.366 . S
C1414 C1415 1.414 . S
C1414 C1417 1.499 . S
C1415 H1389 0.950 . S
C1415 C1414 1.414 . S
C1415 C1416 1.374 . S
C1416 H1390 0.950 . S
C1416 C1412 1.385 . S
C1416 C1415 1.374 . S
C1417 C1414 1.499 . S
C1417 C1418 1.373 . S
C1417 C1419 1.389 . S
C1418 H1391 0.950 . S
C1418 C1404 1.377 . S
C1418 C1417 1.373 . S
C1419 C1403 1.377 . S
C1419 C1417 1.389 . S
C1419 C1420 1.524 . S
C1420 C1419 1.524 . S
C1420 C1421 1.397 . S
C1420 C1425 1.363 . S
C1421 H1392 0.950 . S
C1421 C1420 1.397 . S
C1421 C1422 1.334 . S
C1422 H1393 0.950 . S
C1422 C1421 1.334 . S
C1422 C1423 1.287 . S
C1423 C1422 1.287 . S
C1423 C1424 1.524 . S
C1423 H1426 0.999 . S
C1424 H1394 0.950 . S
C1424 C1423 1.524 . S
C1424 C1425 1.415 . S
C1425 H1395 0.950 . S
C1425 C1420 1.363 . S
C1425 C1424 1.415 . S
H1426 C1423 0.999 . S
H1427 C1408 0.913 . S
H1428 C1446 0.951 1_545 S
H1429 C1448 0.951 . S
H1430 C1450 0.950 . S
H1431 C1451 0.950 . S
H1432 C1453 0.950 . S
H1433 C1456 0.950 . S
H1434 C1457 0.950 . S
H1435 C1459 0.950 . S
H1436 C1460 0.950 . S
H1437 C1461 0.951 . S
H1438 C1463 0.951 . S
H1439 C1465 0.950 . S
H1440 C1466 0.950 . S
H1441 C1468 0.950 . S
H1442 C1471 0.950 . S
H1443 C1472 0.950 . S
H1444 C1474 0.950 . S
H1445 C1475 0.950 . S
C1446 H1428 0.951 1_565 S
C1446 C1447 1.366 . S
C1446 C1448 1.388 . S
C1447 C1446 1.366 . S
C1447 C1451 1.385 . S
C1448 H1429 0.951 . S
C1448 C1446 1.388 . S
C1448 C1449 1.366 . S
C1449 C1448 1.366 . S
C1449 C1450 1.414 . S
C1449 C1452 1.499 . S
C1450 H1430 0.950 . S
C1450 C1449 1.414 . S
C1450 C1451 1.374 . S
C1451 H1431 0.950 . S
C1451 C1447 1.385 . S
C1451 C1450 1.374 . S
C1452 C1449 1.499 . S
C1452 C1453 1.373 . S
C1452 C1454 1.389 . S
C1453 H1432 0.950 . S
C1453 C1452 1.373 . S
C1453 C1469 1.377 . S
C1454 C1452 1.389 . S
C1454 C1455 1.524 . S
C1454 C1468 1.377 . S
C1455 C1454 1.524 . S
C1455 C1456 1.397 . S
C1455 C1460 1.363 . S
C1456 H1433 0.950 . S
C1456 C1455 1.397 . S
C1456 C1457 1.334 . S
C1457 H1434 0.950 . S
C1457 C1456 1.334 . S
C1457 C1458 1.287 1_565 S
C1458 C1457 1.287 1_545 S
C1458 C1459 1.524 . S
C1458 H1477 0.913 . S
C1459 H1435 0.950 . S
C1459 C1458 1.524 . S
C1459 C1460 1.415 1_545 S
C1460 H1436 0.950 . S
C1460 C1455 1.363 . S
C1460 C1459 1.415 1_565 S
C1461 H1437 0.951 . S
C1461 C1462 1.366 . S
C1461 C1463 1.388 . S
C1462 C1461 1.366 . S
C1462 C1466 1.385 . S
C1463 H1438 0.951 . S
C1463 C1461 1.388 . S
C1463 C1464 1.366 . S
C1464 C1463 1.366 . S
C1464 C1465 1.414 . S
C1464 C1467 1.499 . S
C1465 H1439 0.950 . S
C1465 C1464 1.414 . S
C1465 C1466 1.374 . S
C1466 H1440 0.950 . S
C1466 C1462 1.385 . S
C1466 C1465 1.374 . S
C1467 C1464 1.499 . S
C1467 C1468 1.373 . S
C1467 C1469 1.389 . S
C1468 H1441 0.950 . S
C1468 C1454 1.377 . S
C1468 C1467 1.373 . S
C1469 C1453 1.377 . S
C1469 C1467 1.389 . S
C1469 C1470 1.524 . S
C1470 C1469 1.524 . S
C1470 C1471 1.397 . S
C1470 C1475 1.363 . S
C1471 H1442 0.950 . S
C1471 C1470 1.397 . S
C1471 C1472 1.334 . S
C1472 H1443 0.950 . S
C1472 C1471 1.334 . S
C1472 C1473 1.287 . S
C1473 C1472 1.287 . S
C1473 C1474 1.524 . S
C1473 H1476 0.999 . S
C1474 H1444 0.950 . S
C1474 C1473 1.524 . S
C1474 C1475 1.415 . S
C1475 H1445 0.950 . S
C1475 C1470 1.363 . S
C1475 C1474 1.415 . S
H1476 C1473 0.999 . S
H1477 C1458 0.913 . S
H1478 C1496 0.951 . S
H1479 C1498 0.951 . S
H1480 C1500 0.950 . S
H1481 C1501 0.950 . S
H1482 C1503 0.950 . S
H1483 C1506 0.950 . S
H1484 C1507 0.950 . S
H1485 C1509 0.950 . S
H1486 C1510 0.950 . S
H1487 C1511 0.951 . S
H1488 C1513 0.951 . S
H1489 C1515 0.950 . S
H1490 C1516 0.950 . S
H1491 C1518 0.950 . S
H1492 C1521 0.950 . S
H1493 C1522 0.950 . S
H1494 C1524 0.950 . S
H1495 C1525 0.950 . S
C1496 H1478 0.951 . S
C1496 C1497 1.366 . S
C1496 C1498 1.388 . S
C1497 C1496 1.366 . S
C1497 C1501 1.385 . S
C1498 H1479 0.951 . S
C1498 C1496 1.388 . S
C1498 C1499 1.366 . S
C1499 C1498 1.366 . S
C1499 C1500 1.414 . S
C1499 C1502 1.499 . S
C1500 H1480 0.950 . S
C1500 C1499 1.414 . S
C1500 C1501 1.374 . S
C1501 H1481 0.950 . S
C1501 C1497 1.385 . S
C1501 C1500 1.374 . S
C1502 C1499 1.499 . S
C1502 C1503 1.373 . S
C1502 C1504 1.389 . S
C1503 H1482 0.950 . S
C1503 C1502 1.373 . S
C1503 C1519 1.377 . S
C1504 C1502 1.389 . S
C1504 C1505 1.524 . S
C1504 C1518 1.377 . S
C1505 C1504 1.524 . S
C1505 C1506 1.397 . S
C1505 C1510 1.363 . S
C1506 H1483 0.950 . S
C1506 C1505 1.397 . S
C1506 C1507 1.334 . S
C1507 H1484 0.950 . S
C1507 C1506 1.334 . S
C1507 C1508 1.287 . S
C1508 C1507 1.287 . S
C1508 C1509 1.524 . S
C1508 H1527 0.913 . S
C1509 H1485 0.950 . S
C1509 C1508 1.524 . S
C1509 C1510 1.415 . S
C1510 H1486 0.950 . S
C1510 C1505 1.363 . S
C1510 C1509 1.415 . S
C1511 H1487 0.951 . S
C1511 C1512 1.366 . S
C1511 C1513 1.388 . S
C1512 C1511 1.366 . S
C1512 C1516 1.385 . S
C1513 H1488 0.951 . S
C1513 C1511 1.388 . S
C1513 C1514 1.366 . S
C1514 C1513 1.366 . S
C1514 C1515 1.414 . S
C1514 C1517 1.499 . S
C1515 H1489 0.950 . S
C1515 C1514 1.414 . S
C1515 C1516 1.374 . S
C1516 H1490 0.950 . S
C1516 C1512 1.385 . S
C1516 C1515 1.374 . S
C1517 C1514 1.499 . S
C1517 C1518 1.373 . S
C1517 C1519 1.389 . S
C1518 H1491 0.950 . S
C1518 C1504 1.377 . S
C1518 C1517 1.373 . S
C1519 C1503 1.377 . S
C1519 C1517 1.389 . S
C1519 C1520 1.524 . S
C1520 C1519 1.524 . S
C1520 C1521 1.397 . S
C1520 C1525 1.363 . S
C1521 H1492 0.950 . S
C1521 C1520 1.397 . S
C1521 C1522 1.334 . S
C1522 H1493 0.950 . S
C1522 C1521 1.334 . S
C1522 C1523 1.287 . S
C1523 C1522 1.287 . S
C1523 C1524 1.524 . S
C1523 H1526 0.999 . S
C1524 H1494 0.950 . S
C1524 C1523 1.524 . S
C1524 C1525 1.415 . S
C1525 H1495 0.950 . S
C1525 C1520 1.363 . S
C1525 C1524 1.415 . S
H1526 C1523 0.999 . S
H1527 C1508 0.913 . S
H1528 C1546 0.951 . S
H1529 C1548 0.951 . S
H1530 C1550 0.950 . S
H1531 C1551 0.950 . S
H1532 C1553 0.950 . S
H1533 C1556 0.950 . S
H1534 C1557 0.950 1_655 S
H1535 C1559 0.950 1_655 S
H1536 C1560 0.950 . S
H1537 C1561 0.951 . S
H1538 C1563 0.951 . S
H1539 C1565 0.950 . S
H1540 C1566 0.950 . S
H1541 C1568 0.950 . S
H1542 C1571 0.950 . S
H1543 C1572 0.950 . S
H1544 C1574 0.950 . S
H1545 C1575 0.950 . S
C1546 H1528 0.951 . S
C1546 C1547 1.366 . S
C1546 C1548 1.388 . S
C1547 C1546 1.366 . S
C1547 C1551 1.385 . S
C1548 H1529 0.951 . S
C1548 C1546 1.388 . S
C1548 C1549 1.366 . S
C1549 C1548 1.366 . S
C1549 C1550 1.414 . S
C1549 C1552 1.499 . S
C1550 H1530 0.950 . S
C1550 C1549 1.414 . S
C1550 C1551 1.374 . S
C1551 H1531 0.950 . S
C1551 C1547 1.385 . S
C1551 C1550 1.374 . S
C1552 C1549 1.499 . S
C1552 C1553 1.373 . S
C1552 C1554 1.389 . S
C1553 H1532 0.950 . S
C1553 C1552 1.373 . S
C1553 C1569 1.377 . S
C1554 C1552 1.389 . S
C1554 C1555 1.524 . S
C1554 C1568 1.377 . S
C1555 C1554 1.524 . S
C1555 C1556 1.397 . S
C1555 C1560 1.363 . S
C1556 H1533 0.950 . S
C1556 C1555 1.397 . S
C1556 C1557 1.334 . S
C1557 H1534 0.950 1_455 S
C1557 C1556 1.334 . S
C1557 C1558 1.287 1_455 S
C1558 C1557 1.287 1_655 S
C1558 C1559 1.524 1_655 S
C1558 H1577 0.913 . S
C1559 H1535 0.950 1_455 S
C1559 C1558 1.524 1_455 S
C1559 C1560 1.415 . S
C1560 H1536 0.950 . S
C1560 C1555 1.363 . S
C1560 C1559 1.415 . S
C1561 H1537 0.951 . S
C1561 C1562 1.366 . S
C1561 C1563 1.388 . S
C1562 C1561 1.366 . S
C1562 C1566 1.385 . S
C1563 H1538 0.951 . S
C1563 C1561 1.388 . S
C1563 C1564 1.366 . S
C1564 C1563 1.366 . S
C1564 C1565 1.414 . S
C1564 C1567 1.499 . S
C1565 H1539 0.950 . S
C1565 C1564 1.414 . S
C1565 C1566 1.374 . S
C1566 H1540 0.950 . S
C1566 C1562 1.385 . S
C1566 C1565 1.374 . S
C1567 C1564 1.499 . S
C1567 C1568 1.373 . S
C1567 C1569 1.389 . S
C1568 H1541 0.950 . S
C1568 C1554 1.377 . S
C1568 C1567 1.373 . S
C1569 C1553 1.377 . S
C1569 C1567 1.389 . S
C1569 C1570 1.524 . S
C1570 C1569 1.524 . S
C1570 C1571 1.397 . S
C1570 C1575 1.363 . S
C1571 H1542 0.950 . S
C1571 C1570 1.397 . S
C1571 C1572 1.334 . S
C1572 H1543 0.950 . S
C1572 C1571 1.334 . S
C1572 C1573 1.287 . S
C1573 C1572 1.287 . S
C1573 C1574 1.524 . S
C1573 H1576 0.999 . S
C1574 H1544 0.950 . S
C1574 C1573 1.524 . S
C1574 C1575 1.415 . S
C1575 H1545 0.950 . S
C1575 C1570 1.363 . S
C1575 C1574 1.415 . S
H1576 C1573 0.999 . S
H1577 C1558 0.913 . S
H1578 C1596 0.951 . S
H1579 C1598 0.951 . S
H1580 C1600 0.950 . S
H1581 C1601 0.950 . S
H1582 C1603 0.950 . S
H1583 C1606 0.950 . S
H1584 C1607 0.950 . S
H1585 C1609 0.950 . S
H1586 C1610 0.950 . S
H1587 C1611 0.951 . S
H1588 C1613 0.951 . S
H1589 C1615 0.950 . S
H1590 C1616 0.950 . S
H1591 C1618 0.950 . S
H1592 C1621 0.950 . S
H1593 C1622 0.950 . S
H1594 C1624 0.950 . S
H1595 C1625 0.950 . S
C1596 H1578 0.951 . S
C1596 C1597 1.366 . S
C1596 C1598 1.388 . S
C1597 C1596 1.366 . S
C1597 C1601 1.385 . S
C1598 H1579 0.951 . S
C1598 C1596 1.388 . S
C1598 C1599 1.366 . S
C1599 C1598 1.366 . S
C1599 C1600 1.414 . S
C1599 C1602 1.499 . S
C1600 H1580 0.950 . S
C1600 C1599 1.414 . S
C1600 C1601 1.374 . S
C1601 H1581 0.950 . S
C1601 C1597 1.385 . S
C1601 C1600 1.374 . S
C1602 C1599 1.499 . S
C1602 C1603 1.373 . S
C1602 C1604 1.389 . S
C1603 H1582 0.950 . S
C1603 C1602 1.373 . S
C1603 C1619 1.377 . S
C1604 C1602 1.389 . S
C1604 C1605 1.524 . S
C1604 C1618 1.377 . S
C1605 C1604 1.524 . S
C1605 C1606 1.397 . S
C1605 C1610 1.363 . S
C1606 H1583 0.950 . S
C1606 C1605 1.397 . S
C1606 C1607 1.334 . S
C1607 H1584 0.950 . S
C1607 C1606 1.334 . S
C1607 C1608 1.287 . S
C1608 C1607 1.287 . S
C1608 C1609 1.524 . S
C1608 H1627 0.913 . S
C1609 H1585 0.950 . S
C1609 C1608 1.524 . S
C1609 C1610 1.415 . S
C1610 H1586 0.950 . S
C1610 C1605 1.363 . S
C1610 C1609 1.415 . S
C1611 H1587 0.951 . S
C1611 C1612 1.366 . S
C1611 C1613 1.388 . S
C1612 C1611 1.366 . S
C1612 C1616 1.385 . S
C1613 H1588 0.951 . S
C1613 C1611 1.388 . S
C1613 C1614 1.366 . S
C1614 C1613 1.366 . S
C1614 C1615 1.414 . S
C1614 C1617 1.499 . S
C1615 H1589 0.950 . S
C1615 C1614 1.414 . S
C1615 C1616 1.374 . S
C1616 H1590 0.950 . S
C1616 C1612 1.385 . S
C1616 C1615 1.374 . S
C1617 C1614 1.499 . S
C1617 C1618 1.373 . S
C1617 C1619 1.389 . S
C1618 H1591 0.950 . S
C1618 C1604 1.377 . S
C1618 C1617 1.373 . S
C1619 C1603 1.377 . S
C1619 C1617 1.389 . S
C1619 C1620 1.524 . S
C1620 C1619 1.524 . S
C1620 C1621 1.397 . S
C1620 C1625 1.363 . S
C1621 H1592 0.950 . S
C1621 C1620 1.397 . S
C1621 C1622 1.334 . S
C1622 H1593 0.950 . S
C1622 C1621 1.334 . S
C1622 C1623 1.287 . S
C1623 C1622 1.287 . S
C1623 C1624 1.524 . S
C1623 H1626 0.999 . S
C1624 H1594 0.950 . S
C1624 C1623 1.524 . S
C1624 C1625 1.415 . S
C1625 H1595 0.950 . S
C1625 C1620 1.363 . S
C1625 C1624 1.415 . S
H1626 C1623 0.999 . S
H1627 C1608 0.913 . S
H1628 C1646 0.951 . S
H1629 C1648 0.951 . S
H1630 C1650 0.950 . S
H1631 C1651 0.950 . S
H1632 C1653 0.950 . S
H1633 C1656 0.950 . S
H1634 C1657 0.950 . S
H1635 C1659 0.950 . S
H1636 C1660 0.950 . S
H1637 C1661 0.951 . S
H1638 C1663 0.951 . S
H1639 C1665 0.950 . S
H1640 C1666 0.950 . S
H1641 C1668 0.950 . S
H1642 C1671 0.950 . S
H1643 C1672 0.950 . S
H1644 C1674 0.950 . S
H1645 C1675 0.950 . S
C1646 H1628 0.951 . S
C1646 C1647 1.366 . S
C1646 C1648 1.388 . S
C1647 C1646 1.366 . S
C1647 C1651 1.385 . S
C1648 H1629 0.951 . S
C1648 C1646 1.388 . S
C1648 C1649 1.366 . S
C1649 C1648 1.366 . S
C1649 C1650 1.414 . S
C1649 C1652 1.499 . S
C1650 H1630 0.950 . S
C1650 C1649 1.414 . S
C1650 C1651 1.374 . S
C1651 H1631 0.950 . S
C1651 C1647 1.385 . S
C1651 C1650 1.374 . S
C1652 C1649 1.499 . S
C1652 C1653 1.373 . S
C1652 C1654 1.389 . S
C1653 H1632 0.950 . S
C1653 C1652 1.373 . S
C1653 C1669 1.426 . S
C1654 C1652 1.389 . S
C1654 C1655 1.524 . S
C1654 C1668 1.377 . S
C1655 C1654 1.524 . S
C1655 C1656 1.397 . S
C1655 C1660 1.363 . S
C1656 H1633 0.950 . S
C1656 C1655 1.397 . S
C1656 C1657 1.334 . S
C1657 H1634 0.950 . S
C1657 C1656 1.334 . S
C1657 C1658 1.287 . S
C1658 C1657 1.287 . S
C1658 C1659 1.524 . S
C1658 H1677 0.913 . S
C1659 H1635 0.950 . S
C1659 C1658 1.524 . S
C1659 C1660 1.415 . S
C1660 H1636 0.950 . S
C1660 C1655 1.363 . S
C1660 C1659 1.415 . S
C1661 H1637 0.951 . S
C1661 C1662 1.366 . S
C1661 C1663 1.388 . S
C1662 C1661 1.366 . S
C1662 C1666 1.385 . S
C1663 H1638 0.951 . S
C1663 C1661 1.388 . S
C1663 C1664 1.366 . S
C1664 C1663 1.366 . S
C1664 C1665 1.414 . S
C1664 C1667 1.488 1_556 S
C1665 H1639 0.950 . S
C1665 C1664 1.414 . S
C1665 C1666 1.374 . S
C1666 H1640 0.950 . S
C1666 C1662 1.385 . S
C1666 C1665 1.374 . S
C1667 C1664 1.488 1_554 S
C1667 C1668 1.383 . S
C1667 C1669 1.388 . S
C1668 H1641 0.950 . S
C1668 C1654 1.377 . S
C1668 C1667 1.383 . S
C1669 C1653 1.426 . S
C1669 C1667 1.388 . S
C1669 C1670 1.481 1_554 S
C1670 C1669 1.481 1_556 S
C1670 C1671 1.397 . S
C1670 C1675 1.363 . S
C1671 H1642 0.950 . S
C1671 C1670 1.397 . S
C1671 C1672 1.334 . S
C1672 H1643 0.950 . S
C1672 C1671 1.334 . S
C1672 C1673 1.287 . S
C1673 C1672 1.287 . S
C1673 C1674 1.524 . S
C1673 H1676 0.999 . S
C1674 H1644 0.950 . S
C1674 C1673 1.524 . S
C1674 C1675 1.415 . S
C1675 H1645 0.950 . S
C1675 C1670 1.363 . S
C1675 C1674 1.415 . S
H1676 C1673 0.999 . S
H1677 C1658 0.913 . S
H1678 C1696 0.951 . S
H1679 C1698 0.951 . S
H1680 C1700 0.950 . S
H1681 C1701 0.950 . S
H1682 C1703 0.950 . S
H1683 C1706 0.950 . S
H1684 C1707 0.950 . S
H1685 C1709 0.950 . S
H1686 C1710 0.950 . S
H1687 C1711 0.951 . S
H1688 C1713 0.951 . S
H1689 C1715 0.950 . S
H1690 C1716 0.950 . S
H1691 C1718 0.950 . S
H1692 C1721 0.950 . S
H1693 C1722 0.950 . S
H1694 C1724 0.950 . S
H1695 C1725 0.950 . S
C1696 H1678 0.951 . S
C1696 C1697 1.366 . S
C1696 C1698 1.388 . S
C1697 C1696 1.366 . S
C1697 C1701 1.385 . S
C1698 H1679 0.951 . S
C1698 C1696 1.388 . S
C1698 C1699 1.366 . S
C1699 C1698 1.366 . S
C1699 C1700 1.414 . S
C1699 C1702 1.499 . S
C1700 H1680 0.950 . S
C1700 C1699 1.414 . S
C1700 C1701 1.374 . S
C1701 H1681 0.950 . S
C1701 C1697 1.385 . S
C1701 C1700 1.374 . S
C1702 C1699 1.499 . S
C1702 C1703 1.373 . S
C1702 C1704 1.389 . S
C1703 H1682 0.950 . S
C1703 C1702 1.373 . S
C1703 C1719 1.377 . S
C1704 C1702 1.389 . S
C1704 C1705 1.524 . S
C1704 C1718 1.377 . S
C1705 C1704 1.524 . S
C1705 C1706 1.397 . S
C1705 C1710 1.363 . S
C1706 H1683 0.950 . S
C1706 C1705 1.397 . S
C1706 C1707 1.334 . S
C1707 H1684 0.950 . S
C1707 C1706 1.334 . S
C1707 C1708 1.287 . S
C1708 C1707 1.287 . S
C1708 C1709 1.524 . S
C1708 H1727 0.913 . S
C1709 H1685 0.950 . S
C1709 C1708 1.524 . S
C1709 C1710 1.415 . S
C1710 H1686 0.950 . S
C1710 C1705 1.363 . S
C1710 C1709 1.415 . S
C1711 H1687 0.951 . S
C1711 C1712 1.366 . S
C1711 C1713 1.388 . S
C1712 C1711 1.366 . S
C1712 C1716 1.385 . S
C1713 H1688 0.951 . S
C1713 C1711 1.388 . S
C1713 C1714 1.366 . S
C1714 C1713 1.366 . S
C1714 C1715 1.414 . S
C1714 C1717 1.499 . S
C1715 H1689 0.950 . S
C1715 C1714 1.414 . S
C1715 C1716 1.374 . S
C1716 H1690 0.950 . S
C1716 C1712 1.385 . S
C1716 C1715 1.374 . S
C1717 C1714 1.499 . S
C1717 C1718 1.373 . S
C1717 C1719 1.389 . S
C1718 H1691 0.950 . S
C1718 C1704 1.377 . S
C1718 C1717 1.373 . S
C1719 C1703 1.377 . S
C1719 C1717 1.389 . S
C1719 C1720 1.524 . S
C1720 C1719 1.524 . S
C1720 C1721 1.397 . S
C1720 C1725 1.363 . S
C1721 H1692 0.950 . S
C1721 C1720 1.397 . S
C1721 C1722 1.334 . S
C1722 H1693 0.950 . S
C1722 C1721 1.334 . S
C1722 C1723 1.287 . S
C1723 C1722 1.287 . S
C1723 C1724 1.524 . S
C1723 H1726 0.999 . S
C1724 H1694 0.950 . S
C1724 C1723 1.524 . S
C1724 C1725 1.415 . S
C1725 H1695 0.950 . S
C1725 C1720 1.363 . S
C1725 C1724 1.415 . S
H1726 C1723 0.999 . S
H1727 C1708 0.913 . S
C562 C521 1.363 . S
C547 C51 1.365 . S
C597 C125 1.389 . S
C612 C450 1.384 . S
C647 C217 2.767 . S
C662 C464 2.763 . S
C697 C291 1.537 . S
C712 C478 1.518 . S
C762 C492 0.829 . S
C747 C347 0.827 . S
C797 C421 1.031 . S
C812 C507 1.017 . S
C847 C143 2.288 . S
C862 C465 2.272 . S
C897 C199 1.537 . S
C912 C479 1.538 . S
C947 C273 0.537 . S
C962 C493 0.543 . S
C1012 C506 1.706 . S
C997 C365 1.702 . S
C1062 C520 1.794 . S
C1047 C439 1.802 . S
C1112 C451 2.654 . S
C1097 C69 2.634 . S
C1147 C63 1.387 . S
C1162 C467 1.470 . S
C1197 C137 1.877 . S
C1212 C481 1.927 . S
C1262 C495 1.315 . S
C1247 C187 1.284 . S
C1297 C261 1.816 . S
C1312 C508 1.817 . S
C1362 C522 1.460 . S
C1347 C359 1.349 . S
C1412 C453 1.366 . S
C1397 C433 1.341 . S
C1462 C523 1.919 . S
C1447 C113 1.955 . S
C1497 C211 1.259 . S
C1512 C452 1.317 . S
C1562 C466 1.877 . S
C1547 C285 1.832 . S
C1597 C335 1.295 . S
C1612 C480 1.342 . S
C1647 C409 1.647 . S
C1662 C494 1.636 . S
C1697 C39 1.604 . S
C1712 C509 1.613 . S
