# Generated by pormake.
# Topology anh, (6,3)-cn, num edge types: 1
# Building blocks:
#     Node 0, Type 0, BuildingBlock: MIFKUJ_clean_sbu_0, # of connection points: 6
#     Node 1, Type 0, BuildingBlock: MIFKUJ_clean_sbu_0, # of connection points: 6
#     Node 2, Type 0, BuildingBlock: MIFKUJ_clean_sbu_0, # of connection points: 6
#     Node 3, Type 1, BuildingBlock: MIDCAF_clean_linker_0, # of connection points: 3
#     Node 4, Type 1, BuildingBlock: MIDCAF_clean_linker_0, # of connection points: 3
#     Node 5, Type 1, BuildingBlock: MIDCAF_clean_linker_0, # of connection points: 3
#     Node 6, Type 1, BuildingBlock: MIDCAF_clean_linker_0, # of connection points: 3
#     Node 7, Type 1, BuildingBlock: MIDCAF_clean_linker_0, # of connection points: 3
#     Node 8, Type 1, BuildingBlock: MIDCAF_clean_linker_0, # of connection points: 3
#     Edge 9, Type (0, 1), BuildingBlock: MIFKUJ_clean_linker_0, # of connection points: 2
#     Edge 10, Type (0, 1), BuildingBlock: MIFKUJ_clean_linker_0, # of connection points: 2
#     Edge 11, Type (0, 1), BuildingBlock: MIFKUJ_clean_linker_0, # of connection points: 2
#     Edge 12, Type (0, 1), BuildingBlock: MIFKUJ_clean_linker_0, # of connection points: 2
#     Edge 13, Type (0, 1), BuildingBlock: MIFKUJ_clean_linker_0, # of connection points: 2
#     Edge 14, Type (0, 1), BuildingBlock: MIFKUJ_clean_linker_0, # of connection points: 2
#     Edge 15, Type (0, 1), BuildingBlock: MIFKUJ_clean_linker_0, # of connection points: 2
#     Edge 16, Type (0, 1), BuildingBlock: MIFKUJ_clean_linker_0, # of connection points: 2
#     Edge 17, Type (0, 1), BuildingBlock: MIFKUJ_clean_linker_0, # of connection points: 2
#     Edge 18, Type (0, 1), BuildingBlock: MIFKUJ_clean_linker_0, # of connection points: 2
#     Edge 19, Type (0, 1), BuildingBlock: MIFKUJ_clean_linker_0, # of connection points: 2
#     Edge 20, Type (0, 1), BuildingBlock: MIFKUJ_clean_linker_0, # of connection points: 2
#     Edge 21, Type (0, 1), BuildingBlock: MIFKUJ_clean_linker_0, # of connection points: 2
#     Edge 22, Type (0, 1), BuildingBlock: MIFKUJ_clean_linker_0, # of connection points: 2
#     Edge 23, Type (0, 1), BuildingBlock: MIFKUJ_clean_linker_0, # of connection points: 2
#     Edge 24, Type (0, 1), BuildingBlock: MIFKUJ_clean_linker_0, # of connection points: 2
#     Edge 25, Type (0, 1), BuildingBlock: MIFKUJ_clean_linker_0, # of connection points: 2
#     Edge 26, Type (0, 1), BuildingBlock: MIFKUJ_clean_linker_0, # of connection points: 2
# Relax obj value: 0.136
# Max RMSD: 0.183
# Mean RMSD: 0.141
data_MOF--net-anh--node1-MIFKUJ_clean_sbu_0--node2-MIDCAF_clean_linker_0--edge1-MIFKUJ_clean_linker_0
_symmetry_space_group_name_H-M    P1
_symmetry_Int_Tables_number       1
_symmetry_cell_setting            triclinic
loop_
_symmetry_equiv_pos_as_xyz
'x, y, z'
_cell_length_a     45.524283
_cell_length_b     45.514918
_cell_length_c     79.60869
_cell_angle_alpha  93.751266
_cell_angle_beta   90.827767
_cell_angle_gamma 119.91692
loop_
_atom_site_label
_atom_site_type_symbol
_atom_site_fract_x
_atom_site_fract_y
_atom_site_fract_z
_atom_type_partial_charge
Zn0 Zn 0.03038 0.55908 0.16543 0.0
Zn1 Zn 0.96293 0.48646 0.16368 0.0
C2 C 0.08143 0.54094 0.17296 0.0
O3 O 0.08004 0.55316 0.18816 0.0
C4 C 0.91393 0.50356 0.15252 0.0
O5 O 0.91345 0.48451 0.13926 0.0
O6 O 0.06145 0.60889 0.16408 0.0
O7 O 0.99677 0.54621 0.1459 0.0
O8 O 0.98797 0.49446 0.14235 0.0
C9 C 0.07667 0.61661 0.15041 0.0
O10 O 0.07079 0.59219 0.13877 0.0
O11 O 0.06115 0.53905 0.1612 0.0
C12 C 0.90614 0.43045 0.1738 0.0
O13 O 0.91168 0.45431 0.18572 0.0
O14 O 0.92684 0.43754 0.16216 0.0
O15 O 0.98872 0.49501 0.18584 0.0
O16 O 0.01333 0.55101 0.18885 0.0
O17 O 0.93528 0.51047 0.16475 0.0
C18 C 0.99372 0.52164 0.13613 0.0
C19 C 0.00194 0.52267 0.19523 0.0
Zn20 Zn 0.54085 0.05521 0.50011 0.0
Zn21 Zn 0.53553 0.9784 0.50092 0.0
C22 C 0.60731 0.10553 0.51057 0.0
O23 O 0.58898 0.11028 0.52186 0.0
C24 C 0.47322 0.92116 0.48792 0.0
O25 O 0.49456 0.91929 0.47756 0.0
O26 O 0.53017 0.09226 0.49708 0.0
O27 O 0.51763 0.02252 0.47979 0.0
O28 O 0.5512 0.00083 0.47933 0.0
C29 C 0.54129 0.10794 0.48392 0.0
O30 O 0.55712 0.09799 0.47334 0.0
O31 O 0.59237 0.08029 0.49954 0.0
C32 C 0.54302 0.92557 0.51277 0.0
O33 O 0.52085 0.92574 0.52311 0.0
O34 O 0.55447 0.94725 0.50187 0.0
O35 O 0.54839 0.00479 0.52373 0.0
O36 O 0.52725 0.03926 0.52309 0.0
O37 O 0.48443 0.94635 0.49898 0.0
C38 C 0.53275 0.00972 0.47158 0.0
C39 C 0.53813 0.02324 0.53126 0.0
Zn40 Zn 0.56512 0.53305 0.83576 0.0
Zn41 Zn 0.49012 0.52357 0.83065 0.0
C42 C 0.55796 0.47061 0.8443 0.0
O43 O 0.58097 0.49263 0.85566 0.0
C44 C 0.49628 0.58499 0.81938 0.0
O45 O 0.47698 0.56294 0.80693 0.0
O46 O 0.61525 0.55017 0.83648 0.0
O47 O 0.5572 0.55047 0.81472 0.0
O48 O 0.50547 0.50775 0.81008 0.0
C49 C 0.62474 0.53662 0.82491 0.0
O50 O 0.60214 0.51457 0.8134 0.0
O51 O 0.54431 0.48127 0.83403 0.0
C52 C 0.41689 0.48183 0.83527 0.0
O53 O 0.42541 0.47171 0.84864 0.0
O54 O 0.43987 0.50242 0.82633 0.0
O55 O 0.49829 0.51219 0.85381 0.0
O56 O 0.55342 0.5479 0.85763 0.0
O57 O 0.50713 0.57464 0.83118 0.0
C58 C 0.53335 0.52931 0.80447 0.0
C59 C 0.52458 0.53 0.8636 0.0
C60 C 0.37172 0.9214 0.20097 0.0
C61 C 0.36792 0.92596 0.18396 0.0
C62 C 0.39511 0.95246 0.17644 0.0
C63 C 0.42542 0.97421 0.18585 0.0
H64 H 0.52144 0.05845 0.18285 0.0
H65 H 0.56818 0.10824 0.17148 0.0
H66 H 0.62012 0.14026 0.22075 0.0
H67 H 0.57391 0.09138 0.23214 0.0
H68 H 0.53704 0.05692 0.26339 0.0
H69 H 0.54086 0.05065 0.29335 0.0
H70 H 0.45867 0.94677 0.28599 0.0
H71 H 0.45448 0.9529 0.25587 0.0
H72 H 0.40381 0.9386 0.22341 0.0
H73 H 0.35147 0.90072 0.20701 0.0
H74 H 0.39283 0.95656 0.16335 0.0
H75 H 0.44585 0.99454 0.17972 0.0
N76 N 0.48688 0.01959 0.2062 0.0
N77 N 0.51808 0.03638 0.23213 0.0
N78 N 0.46394 0.98812 0.22956 0.0
C79 C 0.51561 0.04141 0.21568 0.0
C80 C 0.49248 0.00981 0.23916 0.0
C81 C 0.46089 0.99287 0.21308 0.0
C82 C 0.54379 0.07094 0.20844 0.0
C83 C 0.54282 0.07617 0.19125 0.0
C84 C 0.56957 0.10455 0.18471 0.0
C85 C 0.5975 0.12825 0.19528 0.0
C86 C 0.59856 0.12278 0.21237 0.0
C87 C 0.57209 0.09453 0.21887 0.0
C88 C 0.49536 0.00542 0.25724 0.0
C89 C 0.51984 0.03264 0.26808 0.0
C90 C 0.52196 0.02917 0.28526 0.0
C91 C 0.49999 0.99829 0.29192 0.0
C92 C 0.47599 0.97079 0.2811 0.0
C93 C 0.47351 0.97439 0.26391 0.0
C94 C 0.42913 0.96971 0.20292 0.0
C95 C 0.40192 0.943 0.21034 0.0
C96 C 0.60714 0.43849 0.53734 0.0
C97 C 0.59941 0.43518 0.51995 0.0
C98 C 0.60197 0.46316 0.51221 0.0
C99 C 0.61062 0.49345 0.52189 0.0
H100 H 0.61924 0.58886 0.51963 0.0
H101 H 0.61058 0.63309 0.50846 0.0
H102 H 0.6262 0.68192 0.55869 0.0
H103 H 0.63503 0.63853 0.56989 0.0
H104 H 0.63516 0.60333 0.60103 0.0
H105 H 0.62462 0.59846 0.63084 0.0
H106 H 0.60157 0.49396 0.62532 0.0
H107 H 0.61163 0.4985 0.59536 0.0
H108 H 0.62097 0.46987 0.5604 0.0
H109 H 0.60614 0.41757 0.54357 0.0
H110 H 0.59617 0.46125 0.4988 0.0
H111 H 0.61137 0.51426 0.51566 0.0
N112 N 0.62482 0.55411 0.54311 0.0
N113 N 0.6288 0.58024 0.57008 0.0
N114 N 0.62346 0.52638 0.56718 0.0
C115 C 0.62807 0.58111 0.55307 0.0
C116 C 0.62655 0.55307 0.57725 0.0
C117 C 0.62279 0.52673 0.55013 0.0
C118 C 0.62729 0.60978 0.54571 0.0
C119 C 0.62131 0.6093 0.52826 0.0
C120 C 0.61639 0.63455 0.52183 0.0
C121 C 0.61713 0.66037 0.53279 0.0
C122 C 0.62486 0.66182 0.55004 0.0
C123 C 0.63 0.63693 0.55643 0.0
C124 C 0.62397 0.55122 0.59572 0.0
C125 C 0.62816 0.57936 0.60615 0.0
C126 C 0.6223 0.57666 0.62328 0.0
C127 C 0.61204 0.54576 0.63038 0.0
C128 C 0.60898 0.51796 0.62012 0.0
C129 C 0.61499 0.52068 0.60298 0.0
C130 C 0.61697 0.49623 0.53945 0.0
C131 C 0.61582 0.46861 0.54697 0.0
C132 C 0.96235 0.59182 0.87574 0.0
C133 C 0.95237 0.57905 0.85884 0.0
C134 C 0.97154 0.56764 0.84973 0.0
C135 C 0.99975 0.56843 0.8575 0.0
H136 H 0.07868 0.54631 0.84962 0.0
H137 H 0.11396 0.52623 0.83582 0.0
H138 H 0.17453 0.55053 0.8823 0.0
H139 H 0.13961 0.57009 0.89606 0.0
H140 H 0.10692 0.57008 0.92975 0.0
H141 H 0.10637 0.56858 0.96026 0.0
H142 H 0.0267 0.59387 0.96111 0.0
H143 H 0.02736 0.59583 0.93064 0.0
H144 H 0.9968 0.60198 0.89664 0.0
H145 H 0.94788 0.60037 0.88319 0.0
H146 H 0.96459 0.55791 0.83663 0.0
H147 H 0.01366 0.55894 0.85023 0.0
N148 N 0.05844 0.57129 0.87471 0.0
N149 N 0.08621 0.57333 0.90019 0.0
N150 N 0.04061 0.58329 0.9005 0.0
C151 C 0.08327 0.5688 0.88309 0.0
C152 C 0.06505 0.58057 0.909 0.0
C153 C 0.03714 0.57882 0.88339 0.0
C154 C 0.10597 0.55939 0.87402 0.0
C155 C 0.09969 0.54759 0.85683 0.0
C156 C 0.11989 0.53614 0.84892 0.0
C157 C 0.14658 0.53626 0.85808 0.0
C158 C 0.1536 0.54932 0.87502 0.0
C159 C 0.13358 0.5607 0.88289 0.0
C160 C 0.06697 0.58282 0.92767 0.0
C161 C 0.0895 0.57571 0.93642 0.0
C162 C 0.08912 0.57467 0.9539 0.0
C163 C 0.06638 0.58091 0.96305 0.0
C164 C 0.04474 0.58926 0.95442 0.0
C165 C 0.045 0.59017 0.93692 0.0
C166 C 0.00911 0.58036 0.87457 0.0
C167 C 0.99032 0.59246 0.8835 0.0
C168 C 0.15329 0.59706 0.4611 0.0
C169 C 0.1552 0.61092 0.47764 0.0
C170 C 0.12622 0.59548 0.48722 0.0
C171 C 0.09585 0.5673 0.48018 0.0
H172 H 1.00013 0.46503 0.48717 0.0
H173 H 0.95365 0.41535 0.49904 0.0
H174 H 0.90372 0.37834 0.44947 0.0
H175 H 0.94926 0.42686 0.4377 0.0
H176 H 0.97384 0.46638 0.40695 0.0
H177 H 0.96907 0.46919 0.37664 0.0
H178 H 0.07297 0.55149 0.37824 0.0
H179 H 0.07759 0.54934 0.40851 0.0
H180 H 0.12281 0.5601 0.44118 0.0
H181 H 0.17472 0.60847 0.45319 0.0
H182 H 0.12688 0.60546 0.50003 0.0
H183 H 0.07364 0.5565 0.48761 0.0
N184 N 0.03581 0.50312 0.46259 0.0
N185 N 0.00404 0.48114 0.43669 0.0
N186 N 0.0578 0.52933 0.43768 0.0
C187 C 0.00689 0.4792 0.45357 0.0
C188 C 0.02925 0.50609 0.42867 0.0
C189 C 0.06147 0.52827 0.45454 0.0
C190 C 0.97877 0.45011 0.46144 0.0
C191 C 0.9792 0.44628 0.47884 0.0
C192 C 0.95256 0.41788 0.48565 0.0
C193 C 0.92521 0.39264 0.47515 0.0
C194 C 0.92469 0.39685 0.45787 0.0
C195 C 0.95092 0.42504 0.45114 0.0
C196 C 0.02608 0.50766 0.41022 0.0
C197 C 0.99567 0.48513 0.40086 0.0
C198 C 0.99297 0.48661 0.38345 0.0
C199 C 0.02063 0.51058 0.37501 0.0
C200 C 0.051 0.53308 0.38438 0.0
C201 C 0.05368 0.53168 0.40176 0.0
C202 C 0.09392 0.55452 0.46339 0.0
C203 C 0.12324 0.56936 0.45412 0.0
C204 C 0.50406 0.12036 0.80039 0.0
C205 C 0.52147 0.13738 0.81583 0.0
C206 C 0.53867 0.12398 0.82464 0.0
C207 C 0.53951 0.0951 0.81778 0.0
H208 H 0.51587 0.97818 0.82126 0.0
H209 H 0.51238 0.92569 0.83016 0.0
H210 H 0.56307 0.91937 0.78588 0.0
H211 H 0.56699 0.9711 0.77715 0.0
H212 H 0.56519 0.00436 0.74486 0.0
H213 H 0.5683 0.00638 0.71444 0.0
H214 H 0.51683 0.06463 0.71536 0.0
H215 H 0.51504 0.06381 0.74583 0.0
H216 H 0.49237 0.08039 0.78131 0.0
H217 H 0.49091 0.12996 0.79307 0.0
H218 H 0.55207 0.13622 0.83666 0.0
H219 H 0.55411 0.08622 0.82446 0.0
N220 N 0.53303 0.02952 0.80039 0.0
N221 N 0.54143 0.00892 0.77405 0.0
N222 N 0.53159 0.05456 0.77564 0.0
C223 C 0.53897 0.00688 0.79098 0.0
C224 C 0.53776 0.03254 0.76629 0.0
C225 C 0.52939 0.05357 0.79261 0.0
C226 C 0.54118 0.97868 0.79834 0.0
C227 C 0.52683 0.96591 0.81363 0.0
C228 C 0.52476 0.93585 0.81871 0.0
C229 C 0.53682 0.91807 0.80851 0.0
C230 C 0.55287 0.93203 0.79381 0.0
C231 C 0.55512 0.96185 0.78884 0.0
C232 C 0.53986 0.03391 0.74779 0.0
C233 C 0.55461 0.01767 0.73857 0.0
C234 C 0.55623 0.01868 0.72109 0.0
C235 C 0.54273 0.03559 0.71237 0.0
C236 C 0.52805 0.05189 0.72164 0.0
C237 C 0.52682 0.05124 0.73914 0.0
C238 C 0.52352 0.07941 0.8019 0.0
C239 C 0.50509 0.09191 0.79355 0.0
C240 C 0.61546 0.55374 0.13359 0.0
C241 C 0.61383 0.53088 0.14506 0.0
C242 C 0.58247 0.50958 0.15191 0.0
C243 C 0.55284 0.50927 0.14625 0.0
H244 H 0.45846 0.53762 0.15336 0.0
H245 H 0.40722 0.53786 0.16258 0.0
H246 H 0.35321 0.48 0.11617 0.0
H247 H 0.40373 0.48 0.107 0.0
H248 H 0.44995 0.51548 0.07444 0.0
H249 H 0.45318 0.51656 0.04397 0.0
H250 H 0.55069 0.52221 0.04773 0.0
H251 H 0.54798 0.52207 0.07819 0.0
H252 H 0.58812 0.57002 0.11838 0.0
H253 H 0.63932 0.57104 0.12839 0.0
H254 H 0.58048 0.49175 0.1608 0.0
H255 H 0.52862 0.49102 0.15077 0.0
N256 N 0.49465 0.51915 0.13172 0.0
N257 N 0.46873 0.51354 0.10496 0.0
N258 N 0.52439 0.52432 0.10711 0.0
C259 C 0.46705 0.5137 0.122 0.0
C260 C 0.49719 0.51878 0.09741 0.0
C261 C 0.5235 0.52449 0.12415 0.0
C262 C 0.43538 0.50926 0.12934 0.0
C263 C 0.43541 0.52443 0.14532 0.0
C264 C 0.4061 0.52462 0.15057 0.0
C265 C 0.37634 0.50961 0.13993 0.0
C266 C 0.37591 0.49263 0.12448 0.0
C267 C 0.40494 0.4925 0.11926 0.0
C268 C 0.49874 0.51878 0.07882 0.0
C269 C 0.47209 0.51693 0.06879 0.0
C270 C 0.47384 0.51736 0.05129 0.0
C271 C 0.5022 0.5195 0.0434 0.0
C272 C 0.52872 0.5211 0.05342 0.0
C273 C 0.52705 0.52082 0.07091 0.0
C274 C 0.55434 0.53023 0.13369 0.0
C275 C 0.58613 0.55333 0.12795 0.0
H276 H 0.10911 0.54058 0.14269 0.0
H277 H 0.15844 0.5341 0.13751 0.0
H278 H 0.16487 0.517 0.18981 0.0
H279 H 0.11665 0.52528 0.1952 0.0
H280 H 0.22476 0.55759 0.18121 0.0
H281 H 0.13431 0.45095 0.15506 0.0
H282 H 0.08408 0.41528 0.1358 0.0
H283 H 0.1417 0.46263 0.09349 0.0
H284 H 0.19216 0.49886 0.11252 0.0
H285 H 0.34602 0.50198 0.17031 0.0
H286 H 0.29502 0.50532 0.17648 0.0
H287 H 0.28819 0.52853 0.12538 0.0
H288 H 0.33864 0.52497 0.11917 0.0
H289 H 0.22783 0.48294 0.13387 0.0
H290 H 0.31722 0.59 0.1594 0.0
H291 H 0.3676 0.62763 0.1782 0.0
H292 H 0.31225 0.58099 0.2212 0.0
H293 H 0.26164 0.54276 0.20262 0.0
C294 C 0.12077 0.53499 0.15303 0.0
C295 C 0.10887 0.53326 0.16934 0.0
C296 C 0.14899 0.53117 0.15005 0.0
C297 C 0.1653 0.52451 0.16321 0.0
C298 C 0.15291 0.52215 0.17943 0.0
C299 C 0.12519 0.52669 0.18249 0.0
C300 C 0.19595 0.52123 0.16027 0.0
C301 C 0.22514 0.54077 0.17103 0.0
C302 C 0.19706 0.50006 0.14672 0.0
C303 C 0.16694 0.47774 0.13523 0.0
C304 C 0.13623 0.45382 0.14166 0.0
C305 C 0.10771 0.43352 0.13078 0.0
C306 C 0.10968 0.43675 0.11344 0.0
C307 C 0.14021 0.46017 0.10692 0.0
C308 C 0.16878 0.48055 0.11775 0.0
C309 C 0.33376 0.50805 0.16046 0.0
C310 C 0.34627 0.51293 0.14421 0.0
C311 C 0.30459 0.50996 0.16398 0.0
C312 C 0.28769 0.51729 0.15141 0.0
C313 C 0.30048 0.52255 0.13527 0.0
C314 C 0.32937 0.52046 0.13173 0.0
C315 C 0.25651 0.51921 0.15484 0.0
C316 C 0.22728 0.4995 0.14415 0.0
C317 C 0.2554 0.54029 0.16841 0.0
C318 C 0.28577 0.56328 0.1796 0.0
C319 C 0.31588 0.58759 0.17285 0.0
C320 C 0.34446 0.60906 0.18347 0.0
C321 C 0.34316 0.60664 0.20088 0.0
C322 C 0.31324 0.5828 0.20771 0.0
C323 C 0.28459 0.56124 0.19714 0.0
H324 H 0.36531 0.62328 0.20908 0.0
H325 H 0.08756 0.42107 0.10504 0.0
H326 H 0.65226 0.10837 0.48704 0.0
H327 H 0.7097 0.15573 0.48382 0.0
H328 H 0.70125 0.21008 0.5282 0.0
H329 H 0.64418 0.16313 0.53152 0.0
H330 H 0.72193 0.24927 0.50183 0.0
H331 H 0.75317 0.17763 0.52933 0.0
H332 H 0.7535 0.12464 0.53362 0.0
H333 H 0.79541 0.1277 0.48535 0.0
H334 H 0.79488 0.18049 0.48066 0.0
H335 H 0.89043 0.38877 0.50366 0.0
H336 H 0.83975 0.33876 0.51255 0.0
H337 H 0.84482 0.27737 0.4703 0.0
H338 H 0.89575 0.32683 0.46167 0.0
H339 H 0.82673 0.24202 0.49733 0.0
H340 H 0.79176 0.31044 0.4688 0.0
H341 H 0.79008 0.36243 0.46364 0.0
H342 H 0.75384 0.36431 0.51298 0.0
H343 H 0.75569 0.31254 0.51851 0.0
C344 C 0.66284 0.13017 0.49626 0.0
C345 C 0.6435 0.13194 0.5095 0.0
C346 C 0.69571 0.15723 0.49442 0.0
C347 C 0.70982 0.18651 0.50577 0.0
C348 C 0.69089 0.18785 0.51925 0.0
C349 C 0.65823 0.16084 0.52115 0.0
C350 C 0.7434 0.21663 0.50311 0.0
C351 C 0.74496 0.2478 0.50114 0.0
C352 C 0.7733 0.21458 0.5018 0.0
C353 C 0.77367 0.18285 0.50458 0.0
C354 C 0.76218 0.16685 0.51956 0.0
C355 C 0.76246 0.13688 0.52208 0.0
C356 C 0.77438 0.12276 0.50975 0.0
C357 C 0.78613 0.13864 0.49489 0.0
C358 C 0.78588 0.16861 0.4923 0.0
C359 C 0.88109 0.36447 0.49647 0.0
C360 C 0.89689 0.36189 0.48184 0.0
C361 C 0.85194 0.33595 0.50146 0.0
C362 C 0.83806 0.30435 0.49192 0.0
C363 C 0.85485 0.30143 0.47783 0.0
C364 C 0.88386 0.32983 0.47283 0.0
C365 C 0.80524 0.27467 0.49603 0.0
C366 C 0.80377 0.24355 0.4982 0.0
C367 C 0.77529 0.27666 0.49742 0.0
C368 C 0.7743 0.30788 0.49415 0.0
C369 C 0.78373 0.32212 0.47861 0.0
C370 C 0.78267 0.35151 0.4756 0.0
C371 C 0.77198 0.36674 0.48799 0.0
C372 C 0.7622 0.35254 0.5034 0.0
C373 C 0.76323 0.32317 0.50648 0.0
H374 H 0.7712 0.3895 0.48563 0.0
H375 H 0.77459 0.09956 0.51172 0.0
H376 H 0.52654 0.63568 0.84531 0.0
H377 H 0.53546 0.69362 0.84617 0.0
H378 H 0.48991 0.67256 0.79576 0.0
H379 H 0.48116 0.61507 0.79477 0.0
H380 H 0.5476 0.73323 0.7992 0.0
H381 H 0.44501 0.67612 0.83048 0.0
H382 H 0.41133 0.64289 0.85342 0.0
H383 H 0.48558 0.71702 0.89019 0.0
H384 H 0.51957 0.75075 0.86747 0.0
H385 H 0.50953 0.86067 0.78724 0.0
H386 H 0.50496 0.80613 0.79183 0.0
H387 H 0.5476 0.8437 0.84264 0.0
H388 H 0.55146 0.89856 0.83815 0.0
H389 H 0.49838 0.77828 0.84181 0.0
H390 H 0.59661 0.83982 0.81094 0.0
H391 H 0.6303 0.87405 0.78834 0.0
H392 H 0.56749 0.79237 0.75123 0.0
H393 H 0.53307 0.75782 0.77359 0.0
C394 C 0.51856 0.64346 0.83439 0.0
C395 C 0.50319 0.62067 0.81995 0.0
C396 C 0.52344 0.67653 0.83494 0.0
C397 C 0.5131 0.68747 0.82108 0.0
C398 C 0.49812 0.66482 0.80663 0.0
C399 C 0.49311 0.63185 0.80609 0.0
C400 C 0.51835 0.72261 0.82127 0.0
C401 C 0.53658 0.74294 0.80844 0.0
C402 C 0.50518 0.73597 0.83368 0.0
C403 C 0.48497 0.71565 0.8473 0.0
C404 C 0.45425 0.68511 0.84346 0.0
C405 C 0.43509 0.66625 0.85641 0.0
C406 C 0.44644 0.67768 0.87323 0.0
C407 C 0.47687 0.70813 0.87715 0.0
C408 C 0.49603 0.72718 0.86425 0.0
C409 C 0.51782 0.85731 0.79943 0.0
C410 C 0.53131 0.88408 0.81226 0.0
C411 C 0.51532 0.82611 0.80203 0.0
C412 C 0.5268 0.82096 0.81743 0.0
C413 C 0.53885 0.8471 0.83058 0.0
C414 C 0.54102 0.87841 0.82803 0.0
C415 C 0.52675 0.78849 0.8194 0.0
C416 C 0.5097 0.76876 0.83265 0.0
C417 C 0.54131 0.77573 0.80744 0.0
C418 C 0.56211 0.79632 0.79395 0.0
C419 C 0.58984 0.82923 0.79795 0.0
C420 C 0.60908 0.84869 0.78518 0.0
C421 C 0.601 0.83542 0.76836 0.0
C422 C 0.5737 0.80263 0.76427 0.0
C423 C 0.55434 0.78308 0.77699 0.0
H424 H 0.61593 0.85052 0.75849 0.0
H425 H 0.43159 0.66302 0.88323 0.0
H426 H 0.8905 0.51978 0.18119 0.0
H427 H 0.84112 0.5278 0.18321 0.0
H428 H 0.82701 0.51551 0.12901 0.0
H429 H 0.87587 0.50707 0.1269 0.0
H430 H 0.82007 0.56956 0.14409 0.0
H431 H 0.78081 0.45054 0.15008 0.0
H432 H 0.7819 0.4038 0.16357 0.0
H433 H 0.75782 0.43636 0.21062 0.0
H434 H 0.75722 0.48371 0.19746 0.0
H435 H 0.65469 0.52599 0.12193 0.0
H436 H 0.70674 0.5243 0.1267 0.0
H437 H 0.69448 0.52623 0.18031 0.0
H438 H 0.64153 0.52754 0.17552 0.0
H439 H 0.71743 0.48268 0.17002 0.0
H440 H 0.75075 0.59825 0.16342 0.0
H441 H 0.75108 0.64589 0.15019 0.0
H442 H 0.7877 0.6214 0.10505 0.0
H443 H 0.78712 0.57328 0.11792 0.0
C444 C 0.87718 0.51934 0.1697 0.0
C445 C 0.88704 0.51277 0.15387 0.0
C446 C 0.84886 0.52371 0.17089 0.0
C447 C 0.83025 0.52199 0.15626 0.0
C448 C 0.84098 0.5169 0.14045 0.0
C449 C 0.86889 0.51204 0.13927 0.0
C450 C 0.79879 0.52415 0.15725 0.0
C451 C 0.79759 0.55053 0.14971 0.0
C452 C 0.76979 0.49983 0.16502 0.0
C453 C 0.76937 0.47092 0.17284 0.0
C454 C 0.77601 0.4479 0.16333 0.0
C455 C 0.77651 0.42127 0.17091 0.0
C456 C 0.77004 0.41718 0.18795 0.0
C457 C 0.7629 0.43961 0.19742 0.0
C458 C 0.76247 0.46634 0.18991 0.0
C459 C 0.66306 0.52619 0.13477 0.0
C460 C 0.64433 0.52761 0.14838 0.0
C461 C 0.69286 0.52519 0.13748 0.0
C462 C 0.70507 0.52599 0.15389 0.0
C463 C 0.68573 0.52589 0.16753 0.0
C464 C 0.65552 0.52665 0.1648 0.0
C465 C 0.73842 0.52772 0.15647 0.0
C466 C 0.74004 0.50209 0.16467 0.0
C467 C 0.76799 0.55287 0.14937 0.0
C468 C 0.7687 0.58201 0.14161 0.0
C469 C 0.75868 0.60289 0.15064 0.0
C470 C 0.75893 0.63 0.1432 0.0
C471 C 0.76936 0.63664 0.12678 0.0
C472 C 0.77963 0.61622 0.11777 0.0
C473 C 0.77939 0.58905 0.12514 0.0
H474 H 0.76952 0.65763 0.12104 0.0
H475 H 0.77049 0.39658 0.1938 0.0
H476 H 0.42239 0.91423 0.50848 0.0
H477 H 0.36566 0.86431 0.50946 0.0
H478 H 0.38805 0.81252 0.4687 0.0
H479 H 0.4441 0.8623 0.46738 0.0
H480 H 0.32632 0.80032 0.46387 0.0
H481 H 0.39216 0.79742 0.51083 0.0
H482 H 0.42814 0.81988 0.53719 0.0
H483 H 0.34871 0.82697 0.56223 0.0
H484 H 0.31241 0.805 0.53592 0.0
H485 H 0.22086 0.62666 0.47335 0.0
H486 H 0.27193 0.68238 0.47833 0.0
H487 H 0.21341 0.7229 0.50171 0.0
H488 H 0.16156 0.6673 0.49615 0.0
H489 H 0.28866 0.7437 0.51693 0.0
H490 H 0.22225 0.74299 0.46819 0.0
H491 H 0.18811 0.71655 0.4415 0.0
H492 H 0.27201 0.71291 0.4196 0.0
H493 H 0.30644 0.7388 0.44628 0.0
C494 C 0.41507 0.89232 0.49962 0.0
C495 C 0.43787 0.89229 0.48788 0.0
C496 C 0.3827 0.86369 0.50027 0.0
C497 C 0.37264 0.83437 0.48931 0.0
C498 C 0.3951 0.83474 0.47731 0.0
C499 C 0.42726 0.8633 0.47659 0.0
C500 C 0.33907 0.80297 0.49033 0.0
C501 C 0.31823 0.78807 0.47551 0.0
C502 C 0.32805 0.78694 0.50552 0.0
C503 C 0.34973 0.79997 0.52136 0.0
C504 C 0.38247 0.80402 0.52193 0.0
C505 C 0.4029 0.81663 0.53686 0.0
C506 C 0.39076 0.82495 0.55136 0.0
C507 C 0.35811 0.82058 0.55097 0.0
C508 C 0.33759 0.80805 0.53606 0.0
C509 C 0.21876 0.64727 0.4797 0.0
C510 C 0.18691 0.64259 0.48405 0.0
C511 C 0.24807 0.67904 0.48264 0.0
C512 C 0.24635 0.70675 0.49025 0.0
C513 C 0.2152 0.70173 0.49585 0.0
C514 C 0.18563 0.6699 0.49271 0.0
C515 C 0.27646 0.74135 0.4905 0.0
C516 C 0.29662 0.75656 0.50545 0.0
C517 C 0.28721 0.75753 0.47541 0.0
C518 C 0.26678 0.74251 0.45927 0.0
C519 C 0.2333 0.73626 0.45773 0.0
C520 C 0.21392 0.72143 0.44259 0.0
C521 C 0.22785 0.71297 0.42887 0.0
C522 C 0.26123 0.71943 0.43024 0.0
C523 C 0.2807 0.73421 0.44536 0.0
H524 H 0.21281 0.70149 0.41717 0.0
H525 H 0.40661 0.8347 0.56291 0.0
H526 H 0.59796 0.44734 0.85657 0.0
H527 H 0.58978 0.39006 0.85265 0.0
H528 H 0.49557 0.35599 0.82411 0.0
H529 H 0.50396 0.41386 0.82769 0.0
H530 H 0.49421 0.31143 0.84982 0.0
H531 H 0.55732 0.36976 0.80354 0.0
H532 H 0.60416 0.41684 0.79024 0.0
H533 H 0.67592 0.39647 0.81474 0.0
H534 H 0.62968 0.35033 0.82894 0.0
H535 H 0.471 0.15369 0.8142 0.0
H536 H 0.47611 0.2093 0.8201 0.0
H537 H 0.58069 0.2512 0.83737 0.0
H538 H 0.57623 0.19581 0.83065 0.0
H539 H 0.57636 0.29233 0.81743 0.0
H540 H 0.51561 0.23691 0.86483 0.0
H541 H 0.47012 0.19159 0.87972 0.0
H542 H 0.39577 0.20668 0.85396 0.0
H543 H 0.44079 0.2518 0.83873 0.0
C544 C 0.57532 0.42769 0.84955 0.0
C545 C 0.55154 0.43518 0.84245 0.0
C546 C 0.57076 0.39494 0.84729 0.0
C547 C 0.54213 0.36878 0.83806 0.0
C548 C 0.51783 0.37584 0.8313 0.0
C549 C 0.52269 0.40889 0.8333 0.0
C550 C 0.53831 0.3344 0.83515 0.0
C551 C 0.51183 0.30707 0.84254 0.0
C552 C 0.562 0.32906 0.82607 0.0
C553 C 0.58997 0.35683 0.81753 0.0
C554 C 0.58312 0.37567 0.80636 0.0
C555 C 0.6096 0.40225 0.79868 0.0
C556 C 0.64304 0.40987 0.80179 0.0
C557 C 0.65003 0.39079 0.81253 0.0
C558 C 0.6237 0.36449 0.82044 0.0
C559 C 0.49514 0.17466 0.81929 0.0
C560 C 0.52326 0.17013 0.82184 0.0
C561 C 0.49792 0.20651 0.82283 0.0
C562 C 0.52874 0.23463 0.82931 0.0
C563 C 0.55661 0.22999 0.83237 0.0
C564 C 0.55391 0.19813 0.82871 0.0
C565 C 0.53221 0.26906 0.83218 0.0
C566 C 0.55868 0.29653 0.82476 0.0
C567 C 0.5087 0.27462 0.84137 0.0
C568 C 0.48156 0.24752 0.85052 0.0
C569 C 0.48953 0.23038 0.86224 0.0
C570 C 0.46384 0.20477 0.87076 0.0
C571 C 0.43006 0.1962 0.86776 0.0
C572 C 0.42193 0.21331 0.85626 0.0
C573 C 0.44754 0.23893 0.84769 0.0
H574 H 0.4102 0.17636 0.87437 0.0
H575 H 0.6635 0.43041 0.7958 0.0
H576 H 0.58588 0.91615 0.49224 0.0
H577 H 0.60106 0.87164 0.49277 0.0
H578 H 0.53753 0.8311 0.53459 0.0
H579 H 0.52249 0.87555 0.53428 0.0
H580 H 0.59892 0.83666 0.53978 0.0
H581 H 0.51117 0.79341 0.49507 0.0
H582 H 0.48492 0.79572 0.46825 0.0
H583 H 0.57022 0.80434 0.44194 0.0
H584 H 0.59723 0.80259 0.46868 0.0
H585 H 0.56995 0.67416 0.54507 0.0
H586 H 0.55963 0.71975 0.5381 0.0
H587 H 0.63353 0.74786 0.50009 0.0
H588 H 0.64375 0.70159 0.50698 0.0
H589 H 0.57459 0.75266 0.49097 0.0
H590 H 0.6599 0.79105 0.53596 0.0
H591 H 0.68419 0.78677 0.56296 0.0
H592 H 0.60207 0.78662 0.58889 0.0
H593 H 0.57697 0.79032 0.562 0.0
C594 C 0.57522 0.89781 0.50158 0.0
C595 C 0.55301 0.89937 0.51325 0.0
C596 C 0.5838 0.87233 0.5018 0.0
C597 C 0.5702 0.84799 0.51363 0.0
C598 C 0.5483 0.8497 0.52537 0.0
C599 C 0.53971 0.8751 0.52516 0.0
C600 C 0.57895 0.82083 0.51406 0.0
C601 C 0.59343 0.81821 0.52914 0.0
C602 C 0.5727 0.79741 0.49998 0.0
C603 C 0.5564 0.79828 0.4839 0.0
C604 C 0.52447 0.7961 0.48359 0.0
C605 C 0.50942 0.79725 0.4684 0.0
C606 C 0.52594 0.80029 0.45341 0.0
C607 C 0.55749 0.80206 0.45357 0.0
C608 C 0.57267 0.80097 0.46874 0.0
C609 C 0.58371 0.68982 0.53509 0.0
C610 C 0.60806 0.68491 0.52674 0.0
C611 C 0.57775 0.71574 0.5311 0.0
C612 C 0.59632 0.73749 0.51883 0.0
C613 C 0.61911 0.73135 0.50966 0.0
C614 C 0.62494 0.70507 0.51359 0.0
C615 C 0.59366 0.76811 0.51682 0.0
C616 C 0.58051 0.77146 0.50149 0.0
C617 C 0.60105 0.79228 0.53068 0.0
C618 C 0.61646 0.79078 0.54694 0.0
C619 C 0.64692 0.78992 0.54741 0.0
C620 C 0.66084 0.7876 0.56269 0.0
C621 C 0.64466 0.78638 0.57763 0.0
C622 C 0.61457 0.78757 0.57731 0.0
C623 C 0.60051 0.78982 0.56206 0.0
H624 H 0.65546 0.78456 0.58945 0.0
H625 H 0.51425 0.80117 0.44166 0.0
H626 H 0.64715 0.49686 0.80947 0.0
H627 H 0.70423 0.50453 0.81179 0.0
H628 H 0.73842 0.59758 0.84339 0.0
H629 H 0.68115 0.58983 0.84136 0.0
H630 H 0.78386 0.60054 0.81765 0.0
H631 H 0.71826 0.5315 0.86107 0.0
H632 H 0.66932 0.48243 0.87205 0.0
H633 H 0.69515 0.41448 0.84501 0.0
H634 H 0.74323 0.46303 0.83307 0.0
H635 H 0.93149 0.62589 0.86169 0.0
H636 H 0.87683 0.61843 0.85215 0.0
H637 H 0.8478 0.51865 0.82897 0.0
H638 H 0.90215 0.52553 0.83901 0.0
H639 H 0.79904 0.51658 0.84779 0.0
H640 H 0.8652 0.58451 0.80489 0.0
H641 H 0.91332 0.633 0.793 0.0
H642 H 0.88725 0.70187 0.81893 0.0
H643 H 0.83924 0.65384 0.83119 0.0
C644 C 0.66691 0.51918 0.81675 0.0
C645 C 0.65975 0.54274 0.82529 0.0
C646 C 0.69943 0.52345 0.81808 0.0
C647 C 0.72536 0.55154 0.8278 0.0
C648 C 0.71865 0.57579 0.83581 0.0
C649 C 0.68597 0.57125 0.83471 0.0
C650 C 0.75901 0.55466 0.83042 0.0
C651 C 0.78733 0.58238 0.82434 0.0
C652 C 0.76309 0.5303 0.83875 0.0
C653 C 0.73408 0.50098 0.84591 0.0
C654 C 0.71317 0.50608 0.85717 0.0
C655 C 0.68551 0.47833 0.86355 0.0
C656 C 0.6789 0.44532 0.85907 0.0
C657 C 0.70004 0.44003 0.84827 0.0
C658 C 0.72741 0.46766 0.84163 0.0
C659 C 0.91354 0.60243 0.85448 0.0
C660 C 0.92106 0.57623 0.85118 0.0
C661 C 0.88243 0.59832 0.84889 0.0
C662 C 0.8583 0.56806 0.83974 0.0
C663 C 0.8661 0.54223 0.83599 0.0
C664 C 0.89726 0.54632 0.8416 0.0
C665 C 0.8242 0.5627 0.83512 0.0
C666 C 0.79567 0.53455 0.84088 0.0
C667 C 0.81989 0.58656 0.82642 0.0
C668 C 0.84876 0.61557 0.81907 0.0
C669 C 0.86988 0.61002 0.80817 0.0
C670 C 0.89712 0.63742 0.80134 0.0
C671 C 0.90339 0.6705 0.80523 0.0
C672 C 0.88238 0.67624 0.81594 0.0
C673 C 0.85512 0.64892 0.82282 0.0
H674 H 0.92448 0.69168 0.79993 0.0
H675 H 0.65755 0.42386 0.86406 0.0
H676 H 0.09229 0.67365 0.17083 0.0
H677 H 0.13856 0.73147 0.16819 0.0
H678 H 0.16546 0.6977 0.12207 0.0
H679 H 0.11922 0.63971 0.12459 0.0
H680 H 0.21859 0.73102 0.14516 0.0
H681 H 0.13615 0.75156 0.12013 0.0
H682 H 0.08164 0.75044 0.11705 0.0
H683 H 0.10477 0.81265 0.16366 0.0
H684 H 0.15921 0.81374 0.16717 0.0
H685 H 0.36033 0.89587 0.15205 0.0
H686 H 0.30794 0.84946 0.13796 0.0
H687 H 0.25143 0.85499 0.17992 0.0
H688 H 0.30331 0.90207 0.19371 0.0
H689 H 0.21353 0.8376 0.15084 0.0
H690 H 0.28595 0.80343 0.17921 0.0
H691 H 0.33921 0.80276 0.18418 0.0
H692 H 0.33308 0.76431 0.13275 0.0
H693 H 0.27997 0.7652 0.12743 0.0
C694 C 0.10772 0.67861 0.15999 0.0
C695 C 0.10233 0.65211 0.14801 0.0
C696 C 0.13396 0.7117 0.15842 0.0
C697 C 0.15521 0.71885 0.14485 0.0
C698 C 0.14919 0.69267 0.13257 0.0
C699 C 0.12281 0.65958 0.13407 0.0
C700 C 0.18597 0.75268 0.14473 0.0
C701 C 0.21754 0.75437 0.14588 0.0
C702 C 0.18445 0.78302 0.146 0.0
C703 C 0.15176 0.7826 0.14394 0.0
C704 C 0.12953 0.76481 0.12979 0.0
C705 C 0.09865 0.76421 0.12795 0.0
C706 C 0.08973 0.78143 0.14016 0.0
C707 C 0.11172 0.79933 0.15421 0.0
C708 C 0.14263 0.8 0.15611 0.0
C709 C 0.33657 0.88786 0.15801 0.0
C710 C 0.33594 0.90208 0.17412 0.0
C711 C 0.30671 0.86127 0.14999 0.0
C712 C 0.27596 0.8484 0.15805 0.0
C713 C 0.27491 0.86443 0.1735 0.0
C714 C 0.30463 0.89105 0.18146 0.0
C715 C 0.2459 0.81574 0.15176 0.0
C716 C 0.21454 0.81426 0.1495 0.0
C717 C 0.24746 0.78543 0.14967 0.0
C718 C 0.27931 0.78483 0.15286 0.0
C719 C 0.29612 0.79509 0.16893 0.0
C720 C 0.32625 0.79463 0.17182 0.0
C721 C 0.33959 0.78361 0.15877 0.0
C722 C 0.32277 0.77293 0.14283 0.0
C723 C 0.29267 0.77342 0.13987 0.0
H724 H 0.36291 0.78326 0.16103 0.0
H725 H 0.06581 0.78093 0.13872 0.0
H726 H 0.51043 0.13546 0.50319 0.0
H727 H 0.51431 0.19052 0.50107 0.0
H728 H 0.57328 0.20628 0.45717 0.0
H729 H 0.56966 0.15123 0.45923 0.0
H730 H 0.60426 0.25881 0.48103 0.0
H731 H 0.49534 0.19686 0.45283 0.0
H732 H 0.43573 0.15117 0.44791 0.0
H733 H 0.41021 0.18529 0.49406 0.0
H734 H 0.46978 0.23089 0.4994 0.0
H735 H 0.61989 0.4229 0.48932 0.0
H736 H 0.6042 0.36717 0.475 0.0
H737 H 0.53757 0.31762 0.51464 0.0
H738 H 0.55238 0.37282 0.52865 0.0
H739 H 0.50998 0.28365 0.48451 0.0
H740 H 0.61955 0.33444 0.5157 0.0
H741 H 0.67928 0.37886 0.52214 0.0
H742 H 0.70327 0.36389 0.47147 0.0
H743 H 0.64349 0.3197 0.46466 0.0
C744 C 0.52373 0.15035 0.49291 0.0
C745 C 0.53995 0.13911 0.48146 0.0
C746 C 0.52574 0.18172 0.49164 0.0
C747 C 0.54388 0.20234 0.47888 0.0
C748 C 0.55906 0.19066 0.46706 0.0
C749 C 0.55694 0.1592 0.46827 0.0
C750 C 0.55 0.23749 0.47914 0.0
C751 C 0.58366 0.26433 0.4813 0.0
C752 C 0.52309 0.24456 0.47972 0.0
C753 C 0.48712 0.21726 0.47654 0.0
C754 C 0.47708 0.1945 0.46199 0.0
C755 C 0.44327 0.16863 0.45912 0.0
C756 C 0.4192 0.16531 0.47067 0.0
C757 C 0.42888 0.18791 0.48511 0.0
C758 C 0.46266 0.21382 0.48805 0.0
C759 C 0.60141 0.40005 0.49476 0.0
C760 C 0.58776 0.40208 0.51023 0.0
C761 C 0.59258 0.36831 0.48662 0.0
C762 C 0.57004 0.33831 0.49389 0.0
C763 C 0.55502 0.34042 0.50882 0.0
C764 C 0.5638 0.37197 0.51692 0.0
C765 C 0.56412 0.30467 0.48703 0.0
C766 C 0.53054 0.27815 0.48366 0.0
C767 C 0.59108 0.29778 0.48549 0.0
C768 C 0.62698 0.32422 0.4896 0.0
C769 C 0.6375 0.34086 0.50589 0.0
C770 C 0.67136 0.36595 0.50961 0.0
C771 C 0.69499 0.37435 0.49719 0.0
C772 C 0.68488 0.35749 0.48105 0.0
C773 C 0.65102 0.33244 0.47725 0.0
H774 H 0.72115 0.39387 0.50008 0.0
H775 H 0.39305 0.14526 0.46843 0.0
H776 H 0.38978 0.49176 0.8069 0.0
H777 H 0.33521 0.48941 0.80364 0.0
H778 H 0.31005 0.45281 0.85299 0.0
H779 H 0.3643 0.4544 0.85623 0.0
H780 H 0.2534 0.42574 0.83058 0.0
H781 H 0.35184 0.53639 0.84865 0.0
H782 H 0.40955 0.58306 0.84434 0.0
H783 H 0.37417 0.60035 0.79778 0.0
H784 H 0.31637 0.55317 0.8016 0.0
H785 H 0.16477 0.49419 0.87181 0.0
H786 H 0.20302 0.47564 0.86091 0.0
H787 H 0.21195 0.52674 0.81586 0.0
H788 H 0.17419 0.54647 0.82707 0.0
H789 H 0.27275 0.54292 0.82889 0.0
H790 H 0.17108 0.43938 0.81401 0.0
H791 H 0.11406 0.391 0.81767 0.0
H792 H 0.15441 0.3597 0.85739 0.0
H793 H 0.21161 0.40817 0.85415 0.0
C794 C 0.37229 0.48243 0.8169 0.0
C795 C 0.38158 0.47391 0.83198 0.0
C796 C 0.34111 0.48104 0.81499 0.0
C797 C 0.31898 0.47162 0.82821 0.0
C798 C 0.32687 0.46026 0.84266 0.0
C799 C 0.35796 0.46133 0.84453 0.0
C800 C 0.29025 0.47818 0.82814 0.0
C801 C 0.25747 0.45128 0.8302 0.0
C802 C 0.29561 0.51145 0.82713 0.0
C803 C 0.32989 0.54102 0.82531 0.0
C804 C 0.35639 0.55008 0.83747 0.0
C805 C 0.38913 0.57654 0.83509 0.0
C806 C 0.39554 0.59454 0.82075 0.0
C807 C 0.36917 0.5863 0.80884 0.0
C808 C 0.33643 0.55967 0.8111 0.0
C809 C 0.17473 0.50138 0.85954 0.0
C810 C 0.16681 0.5221 0.85037 0.0
C811 C 0.19627 0.49037 0.85321 0.0
C812 C 0.21005 0.49943 0.83746 0.0
C813 C 0.20142 0.5193 0.828 0.0
C814 C 0.17976 0.5304 0.83437 0.0
C815 C 0.23577 0.49055 0.83184 0.0
C816 C 0.26821 0.51713 0.82879 0.0
C817 C 0.23002 0.45696 0.83191 0.0
C818 C 0.19567 0.42755 0.83386 0.0
C819 C 0.16778 0.42231 0.82359 0.0
C820 C 0.13542 0.39484 0.82559 0.0
C821 C 0.13061 0.37231 0.83777 0.0
C822 C 0.15818 0.37716 0.84795 0.0
C823 C 0.1906 0.4046 0.84602 0.0
H824 H 0.10554 0.35107 0.8393 0.0
H825 H 0.42093 0.6149 0.8189 0.0
H826 H 0.85695 0.4092 0.19644 0.0
H827 H 0.80505 0.35429 0.19586 0.0
H828 H 0.83257 0.32069 0.1499 0.0
H829 H 0.88488 0.37606 0.15027 0.0
H830 H 0.76372 0.30416 0.14956 0.0
H831 H 0.8419 0.29043 0.18369 0.0
H832 H 0.88642 0.30613 0.20607 0.0
H833 H 0.81935 0.30606 0.24346 0.0
H834 H 0.77457 0.29085 0.22128 0.0
H835 H 0.63084 0.13193 0.16638 0.0
H836 H 0.68335 0.18113 0.15825 0.0
H837 H 0.68087 0.24162 0.20165 0.0
H838 H 0.62846 0.19309 0.20965 0.0
H839 H 0.74094 0.23806 0.19968 0.0
H840 H 0.66539 0.25801 0.16466 0.0
H841 H 0.62136 0.24264 0.14205 0.0
H842 H 0.68403 0.2296 0.10598 0.0
H843 H 0.72828 0.24445 0.12845 0.0
C844 C 0.85215 0.39017 0.18622 0.0
C845 C 0.87518 0.39682 0.17349 0.0
C846 C 0.82246 0.35881 0.18592 0.0
C847 C 0.81529 0.33343 0.17294 0.0
C848 C 0.83784 0.34003 0.16003 0.0
C849 C 0.86772 0.37153 0.16033 0.0
C850 C 0.78426 0.29997 0.17326 0.0
C851 C 0.75891 0.28922 0.16032 0.0
C852 C 0.77814 0.28074 0.18735 0.0
C853 C 0.80493 0.28968 0.20079 0.0
C854 C 0.83671 0.29399 0.19667 0.0
C855 C 0.86199 0.30277 0.20933 0.0
C856 C 0.85574 0.30714 0.22618 0.0
C857 C 0.82416 0.30267 0.23041 0.0
C858 C 0.7988 0.29392 0.21779 0.0
C859 C 0.64112 0.15599 0.17392 0.0
C860 C 0.62597 0.15865 0.18879 0.0
C861 C 0.67107 0.18395 0.1693 0.0
C862 C 0.68599 0.21474 0.17948 0.0
C863 C 0.66982 0.21789 0.19376 0.0
C864 C 0.64 0.19017 0.19833 0.0
C865 C 0.7199 0.24299 0.17634 0.0
C866 C 0.74592 0.25261 0.18875 0.0
C867 C 0.72657 0.26092 0.16173 0.0
C868 C 0.69993 0.25187 0.14827 0.0
C869 C 0.66963 0.25149 0.15194 0.0
C870 C 0.64467 0.24297 0.13915 0.0
C871 C 0.64983 0.23502 0.1226 0.0
C872 C 0.68002 0.23567 0.11881 0.0
C873 C 0.70505 0.24416 0.13157 0.0
H874 H 0.63049 0.22845 0.11271 0.0
H875 H 0.87534 0.31393 0.23596 0.0
H876 H 0.99991 0.47886 0.1125 0.0
H877 H 0.01346 0.48856 0.08299 0.0
H878 H 0.01509 0.5842 0.08964 0.0
H879 H 0.00135 0.57468 0.11902 0.0
H880 H 0.98078 0.54669 0.0602 0.0
H881 H 0.08751 0.58366 0.09052 0.0
H882 H 0.12521 0.57555 0.10985 0.0
H883 H 0.11609 0.49341 0.07618 0.0
H884 H 0.07781 0.50064 0.05678 0.0
H885 H 0.06106 0.62245 0.98772 0.0
H886 H 0.05107 0.61247 0.01746 0.0
H887 H 0.0553 0.52001 0.00944 0.0
H888 H 0.06543 0.52991 0.9797 0.0
H889 H 0.08652 0.55422 0.03954 0.0
H890 H 0.97991 0.51639 0.00946 0.0
H891 H 0.93957 0.52167 0.99065 0.0
H892 H 0.94671 0.60311 0.02415 0.0
H893 H 0.9875 0.59865 0.04305 0.0
C894 C 0.00289 0.50181 0.10763 0.0
C895 C 0.99973 0.52608 0.11808 0.0
C896 C 0.01078 0.50737 0.09082 0.0
C897 C 0.01561 0.53725 0.08425 0.0
C898 C 0.0115 0.56101 0.09452 0.0
C899 C 0.00374 0.55555 0.1113 0.0
C900 C 0.02548 0.54419 0.06674 0.0
C901 C 0.00409 0.54875 0.05572 0.0
C902 C 0.05552 0.54605 0.06089 0.0
C903 C 0.07954 0.5425 0.07225 0.0
C904 C 0.09341 0.56376 0.08726 0.0
C905 C 0.11488 0.55932 0.09824 0.0
C906 C 0.12298 0.53392 0.09427 0.0
C907 C 0.10976 0.51305 0.07926 0.0
C908 C 0.0882 0.51732 0.06825 0.0
C909 C 0.06003 0.6001 0.99233 0.0
C910 C 0.06374 0.57682 0.98137 0.0
C911 C 0.0544 0.59446 0.0093 0.0
C912 C 0.05194 0.56522 0.01557 0.0
C913 C 0.05713 0.54272 0.00484 0.0
C914 C 0.06295 0.54844 0.98788 0.0
C915 C 0.04194 0.55711 0.03302 0.0
C916 C 0.06325 0.55222 0.04402 0.0
C917 C 0.0117 0.55479 0.03888 0.0
C918 C 0.98702 0.55741 0.02758 0.0
C919 C 0.97307 0.5356 0.01275 0.0
C920 C 0.9501 0.53842 0.00209 0.0
C921 C 0.94065 0.56277 0.00618 0.0
C922 C 0.95409 0.5843 0.02098 0.0
C923 C 0.97712 0.58162 0.03168 0.0
H924 H 0.92285 0.56491 0.99791 0.0
H925 H 0.13953 0.53046 0.10281 0.0
H926 H 0.54517 0.968 0.45027 0.0
H927 H 0.53759 0.96037 0.41949 0.0
H928 H 0.50495 0.03469 0.42029 0.0
H929 H 0.51098 0.04122 0.45098 0.0
H930 H 0.466 0.98467 0.39912 0.0
H931 H 0.58711 0.05213 0.40958 0.0
H932 H 0.64322 0.06579 0.42153 0.0
H933 H 0.63287 0.97545 0.39517 0.0
H934 H 0.57647 0.96103 0.38323 0.0
H935 H 0.5001 0.04128 0.31726 0.0
H936 H 0.50363 0.03711 0.34764 0.0
H937 H 0.50758 0.94476 0.33828 0.0
H938 H 0.50374 0.94866 0.30774 0.0
H939 H 0.55869 0.99671 0.36301 0.0
H940 H 0.43808 0.93423 0.35039 0.0
H941 H 0.3841 0.92548 0.33797 0.0
H942 H 0.39641 0.01289 0.36826 0.0
H943 H 0.45075 0.02247 0.38068 0.0
C944 C 0.53643 0.98272 0.44385 0.0
C945 C 0.52882 0.00532 0.45301 0.0
C946 C 0.53223 0.97844 0.42626 0.0
C947 C 0.52113 0.9973 0.41754 0.0
C948 C 0.51347 0.0198 0.42672 0.0
C949 C 0.51706 0.02361 0.44427 0.0
C950 C 0.5172 0.99365 0.39886 0.0
C951 C 0.48642 0.98757 0.39127 0.0
C952 C 0.54351 0.99665 0.38854 0.0
C953 C 0.57742 0.0053 0.39568 0.0
C954 C 0.59669 0.03504 0.40644 0.0
C955 C 0.62856 0.04295 0.41319 0.0
C956 C 0.64155 0.02144 0.40915 0.0
C957 C 0.62274 0.99205 0.39832 0.0
C958 C 0.59084 0.984 0.39155 0.0
C959 C 0.50177 0.02013 0.3217 0.0
C960 C 0.50167 0.99528 0.31023 0.0
C961 C 0.50364 0.01771 0.339 0.0
C962 C 0.50572 0.99057 0.34511 0.0
C963 C 0.50593 0.96583 0.33372 0.0
C964 C 0.50356 0.96798 0.31636 0.0
C965 C 0.50789 0.98847 0.36347 0.0
C966 C 0.53825 0.99342 0.37094 0.0
C967 C 0.48147 0.98509 0.37371 0.0
C968 C 0.44863 0.9792 0.36637 0.0
C969 C 0.42942 0.95174 0.35431 0.0
C970 C 0.39872 0.9466 0.34728 0.0
C971 C 0.38686 0.96865 0.3523 0.0
C972 C 0.40563 0.99583 0.36438 0.0
C973 C 0.43636 0.0011 0.37143 0.0
H974 H 0.3631 0.96464 0.34684 0.0
H975 H 0.66623 0.02761 0.41439 0.0
H976 H 0.58736 0.57635 0.7886 0.0
H977 H 0.59661 0.57685 0.75851 0.0
H978 H 0.50076 0.48385 0.74882 0.0
H979 H 0.49115 0.4831 0.77906 0.0
H980 H 0.55452 0.48336 0.7323 0.0
H981 H 0.50509 0.55418 0.73926 0.0
H982 H 0.49858 0.60088 0.75262 0.0
H983 H 0.59914 0.67356 0.73969 0.0
H984 H 0.60651 0.62722 0.72652 0.0
H985 H 0.55719 0.49322 0.6433 0.0
H986 H 0.54091 0.48852 0.67255 0.0
H987 H 0.62991 0.58568 0.68699 0.0
H988 H 0.64627 0.59058 0.65772 0.0
H989 H 0.57472 0.58162 0.70066 0.0
H990 H 0.62581 0.51113 0.69563 0.0
H991 H 0.63363 0.46468 0.68307 0.0
H992 H 0.53091 0.39177 0.69278 0.0
H993 H 0.52233 0.43788 0.70519 0.0
C994 C 0.56814 0.55601 0.7801 0.0
C995 C 0.53846 0.52971 0.7862 0.0
C996 C 0.57345 0.55642 0.76291 0.0
C997 C 0.54923 0.53055 0.75148 0.0
C998 C 0.51968 0.50407 0.75749 0.0
C999 C 0.5142 0.50376 0.77472 0.0
C1000 C 0.5553 0.53113 0.7333 0.0
C1001 C 0.55833 0.5045 0.72526 0.0
C1002 C 0.56095 0.55913 0.72432 0.0
C1003 C 0.55645 0.58716 0.73202 0.0
C1004 C 0.52592 0.58009 0.73937 0.0
C1005 C 0.52207 0.60651 0.7469 0.0
C1006 C 0.54846 0.64016 0.74703 0.0
C1007 C 0.57873 0.64747 0.73959 0.0
C1008 C 0.58275 0.62114 0.73208 0.0
C1009 C 0.57353 0.51335 0.65275 0.0
C1010 C 0.6031 0.54221 0.64825 0.0
C1011 C 0.56415 0.51068 0.66944 0.0
C1012 C 0.58434 0.53663 0.68196 0.0
C1013 C 0.61392 0.56541 0.6775 0.0
C1014 C 0.62323 0.56818 0.6608 0.0
C1015 C 0.57446 0.53405 0.69967 0.0
C1016 C 0.57066 0.56032 0.70763 0.0
C1017 C 0.56819 0.50575 0.70859 0.0
C1018 C 0.57333 0.47799 0.70117 0.0
C1019 C 0.60481 0.48523 0.69496 0.0
C1020 C 0.60939 0.45896 0.68789 0.0
C1021 C 0.58276 0.42531 0.68708 0.0
C1022 C 0.5515 0.41785 0.69338 0.0
C1023 C 0.54677 0.44404 0.70045 0.0
H1024 H 0.58636 0.405 0.68161 0.0
H1025 H 0.54543 0.66057 0.75287 0.0
H1026 H 0.53577 0.07189 0.55238 0.0
H1027 H 0.53704 0.07558 0.58328 0.0
H1028 H 0.54251 0.98365 0.58299 0.0
H1029 H 0.54167 0.97994 0.55221 0.0
H1030 H 0.49304 0.98549 0.60415 0.0
H1031 H 0.61134 0.05395 0.59244 0.0
H1032 H 0.65945 0.10033 0.57936 0.0
H1033 H 0.63908 0.17349 0.60526 0.0
H1034 H 0.59048 0.12744 0.6183 0.0
H1035 H 0.53409 0.98407 0.68927 0.0
H1036 H 0.53443 0.98402 0.65869 0.0
H1037 H 0.55092 0.08621 0.66229 0.0
H1038 H 0.55292 0.08736 0.693 0.0
H1039 H 0.58797 0.08079 0.63915 0.0
H1040 H 0.47129 0.01502 0.65135 0.0
H1041 H 0.42126 0.96995 0.66398 0.0
H1042 H 0.43552 0.89365 0.63689 0.0
H1043 H 0.48594 0.9383 0.62428 0.0
C1044 C 0.5372 0.05246 0.55891 0.0
C1045 C 0.53867 0.02566 0.54987 0.0
C1046 C 0.53803 0.05467 0.57653 0.0
C1047 C 0.53997 0.02993 0.58535 0.0
C1048 C 0.54101 0.00296 0.57637 0.0
C1049 C 0.54067 0.00099 0.5588 0.0
C1050 C 0.54085 0.03201 0.60397 0.0
C1051 C 0.51393 0.0061 0.61185 0.0
C1052 C 0.56764 0.05949 0.6139 0.0
C1053 C 0.59705 0.08721 0.6062 0.0
C1054 C 0.61693 0.07989 0.59523 0.0
C1055 C 0.64432 0.10613 0.58784 0.0
C1056 C 0.65225 0.13983 0.59143 0.0
C1057 C 0.63287 0.14737 0.60247 0.0
C1058 C 0.60542 0.12122 0.60987 0.0
C1059 C 0.53837 0.0068 0.68363 0.0
C1060 C 0.54334 0.03568 0.69368 0.0
C1061 C 0.53806 0.00653 0.66608 0.0
C1062 C 0.54198 0.03485 0.65815 0.0
C1063 C 0.54758 0.06396 0.66811 0.0
C1064 C 0.54834 0.06442 0.68569 0.0
C1065 C 0.5402 0.03402 0.63947 0.0
C1066 C 0.56694 0.06019 0.63154 0.0
C1067 C 0.51295 0.00697 0.62946 0.0
C1068 C 0.48258 0.98003 0.63699 0.0
C1069 C 0.46391 0.98864 0.64818 0.0
C1070 C 0.43546 0.96317 0.65532 0.0
C1071 C 0.42527 0.92896 0.65127 0.0
C1072 C 0.44347 0.92016 0.64004 0.0
C1073 C 0.47196 0.94554 0.63288 0.0
H1074 H 0.40323 0.90928 0.65681 0.0
H1075 H 0.67346 0.16011 0.5857 0.0
H1076 H 0.5752 0.56468 0.88824 0.0
H1077 H 0.57058 0.56233 0.91869 0.0
H1078 H 0.46329 0.49072 0.91131 0.0
H1079 H 0.46751 0.49331 0.88082 0.0
H1080 H 0.47588 0.53851 0.93643 0.0
H1081 H 0.51858 0.46406 0.9207 0.0
H1082 H 0.55745 0.4479 0.90718 0.0
H1083 H 0.64098 0.52573 0.93872 0.0
H1084 H 0.60269 0.54274 0.95225 0.0
H1085 H 0.45129 0.4823 0.01908 0.0
H1086 H 0.45471 0.48415 0.98852 0.0
H1087 H 0.56104 0.55951 0.99502 0.0
H1088 H 0.55776 0.55833 0.0256 0.0
H1089 H 0.54825 0.5088 0.97033 0.0
H1090 H 0.50498 0.58345 0.98571 0.0
H1091 H 0.46569 0.59931 -0.00101 0.0
H1092 H 0.38242 0.51981 0.96797 0.0
H1093 H 0.42117 0.50316 0.95466 0.0
C1094 C 0.55058 0.54845 0.89306 0.0
C1095 C 0.52174 0.52907 0.88207 0.0
C1096 C 0.54802 0.54705 0.91048 0.0
C1097 C 0.51667 0.52601 0.91724 0.0
C1098 C 0.48774 0.50706 0.90634 0.0
C1099 C 0.49024 0.50851 0.88891 0.0
C1100 C 0.5141 0.52378 0.9357 0.0
C1101 C 0.49135 0.53154 0.94381 0.0
C1102 C 0.53477 0.51531 0.94535 0.0
C1103 C 0.55781 0.50488 0.93738 0.0
C1104 C 0.54528 0.4779 0.92467 0.0
C1105 C 0.56721 0.46856 0.91701 0.0
C1106 C 0.60168 0.48583 0.92206 0.0
C1107 C 0.61428 0.51241 0.93481 0.0
C1108 C 0.59247 0.52189 0.94248 0.0
C1109 C 0.47533 0.49954 0.01403 0.0
C1110 C 0.50424 0.52025 0.0248 0.0
C1111 C 0.47726 0.50046 0.99656 0.0
C1112 C 0.50808 0.52214 0.98954 0.0
C1113 C 0.53705 0.54253 0.00021 0.0
C1114 C 0.53514 0.54172 0.01768 0.0
C1115 C 0.51011 0.52362 0.97104 0.0
C1116 C 0.53275 0.5157 0.96292 0.0
C1117 C 0.48924 0.53179 0.96138 0.0
C1118 C 0.46592 0.54184 0.96932 0.0
C1119 C 0.47824 0.56917 0.98182 0.0
C1120 C 0.45608 0.57833 0.98933 0.0
C1121 C 0.42157 0.56052 0.98436 0.0
C1122 C 0.40916 0.53355 0.97183 0.0
C1123 C 0.43121 0.52426 0.96429 0.0
H1124 H 0.40445 0.56765 0.99019 0.0
H1125 H 0.61862 0.47858 0.91611 0.0
H1126 H 0.03321 0.5765 0.21922 0.0
H1127 H 0.03622 0.57447 0.24978 0.0
H1128 H 0.97879 0.46482 0.24368 0.0
H1129 H 0.97529 0.46656 0.21316 0.0
H1130 H 0.95573 0.4899 0.26866 0.0
H1131 H 0.06296 0.50539 0.2521 0.0
H1132 H 0.1172 0.5331 0.23814 0.0
H1133 H 0.14873 0.62568 0.26923 0.0
H1134 H 0.09439 0.59867 0.28318 0.0
H1135 H 0.98991 0.45729 0.35071 0.0
H1136 H 0.98628 0.45986 0.32023 0.0
H1137 H 0.04231 0.56949 0.32684 0.0
H1138 H 0.04563 0.56719 0.35736 0.0
H1139 H 0.06613 0.54469 0.30163 0.0
H1140 H 0.95837 0.52855 0.31819 0.0
H1141 H 0.90391 0.50034 0.33194 0.0
H1142 H 0.87346 0.40813 0.30074 0.0
H1143 H 0.92797 0.43565 0.28696 0.0
C1144 C 0.02122 0.55195 0.22437 0.0
C1145 C 0.00411 0.52169 0.21373 0.0
C1146 C 0.02307 0.55083 0.24183 0.0
C1147 C 0.00798 0.51948 0.24897 0.0
C1148 C 0.99062 0.48927 0.23841 0.0
C1149 C 0.9888 0.49034 0.22096 0.0
C1150 C 0.01012 0.51813 0.26746 0.0
C1151 C 0.97987 0.5015 0.27585 0.0
C1152 C 0.04163 0.53387 0.27685 0.0
C1153 C 0.07445 0.5501 0.26857 0.0
C1154 C 0.08134 0.53174 0.25587 0.0
C1155 C 0.11212 0.54731 0.24797 0.0
C1156 C 0.13636 0.58115 0.25277 0.0
C1157 C 0.1299 0.59947 0.26551 0.0
C1158 C 0.09912 0.58405 0.27342 0.0
C1159 C 1.00109 0.48196 0.34571 0.0
C1160 C 0.018 0.51203 0.35649 0.0
C1161 C 0.9991 0.48337 0.32828 0.0
C1162 C 0.01384 0.51487 0.3213 0.0
C1163 C 0.03086 0.54493 0.33199 0.0
C1164 C 0.03282 0.54354 0.34942 0.0
C1165 C 0.01173 0.51647 0.30283 0.0
C1166 C 0.042 0.53313 0.29444 0.0
C1167 C 0.98024 0.50066 0.29343 0.0
C1168 C 0.9474 0.48407 0.30166 0.0
C1169 C 0.94018 0.50217 0.31436 0.0
C1170 C 0.90928 0.48632 0.32214 0.0
C1171 C 0.88528 0.45244 0.31725 0.0
C1172 C 0.89209 0.43436 0.30453 0.0
C1173 C 0.92298 0.45008 0.29672 0.0
H1174 H 0.86137 0.44021 0.32328 0.0
H1175 H 0.16018 0.59316 0.24664 0.0
loop_
_geom_bond_atom_site_label_1
_geom_bond_atom_site_label_2
_geom_bond_distance
_geom_bond_site_symmetry_2
_ccdc_geom_bond_type
Zn0 O6 1.969 . S
Zn0 O7 1.965 . S
Zn0 O11 2.024 . S
Zn0 O16 1.969 . S
Zn1 O8 1.969 . S
Zn1 O14 1.969 . S
Zn1 O15 1.965 . S
Zn1 O17 2.024 . S
C2 O3 1.229 . S
C2 O11 1.058 . S
O3 C2 1.229 . S
C4 O5 1.229 . S
C4 O17 1.058 . S
O5 C4 1.229 . S
O6 Zn0 1.969 . S
O6 C9 1.267 . S
O7 Zn0 1.965 . S
O7 C18 1.254 1_455 S
O8 Zn1 1.969 . S
O8 C18 1.270 . S
C9 O6 1.267 . S
C9 O10 1.228 . S
O10 C9 1.228 . S
O11 Zn0 2.024 . S
O11 C2 1.058 . S
C12 O13 1.228 . S
C12 O14 1.267 . S
O13 C12 1.228 . S
O14 Zn1 1.969 . S
O14 C12 1.267 . S
O15 Zn1 1.965 . S
O15 C19 1.260 1_655 S
O16 Zn0 1.969 . S
O16 C19 1.258 . S
O17 Zn1 2.024 . S
O17 C4 1.058 . S
C18 O7 1.254 1_655 S
C18 O8 1.270 . S
C19 O15 1.260 1_455 S
C19 O16 1.258 . S
Zn20 O26 1.969 . S
Zn20 O27 1.965 . S
Zn20 O31 2.024 . S
Zn20 O36 1.969 . S
Zn21 O28 1.969 . S
Zn21 O34 1.969 . S
Zn21 O35 1.965 . S
Zn21 O37 2.024 . S
C22 O23 1.229 . S
C22 O31 1.058 . S
O23 C22 1.229 . S
C24 O25 1.229 . S
C24 O37 1.058 . S
O25 C24 1.229 . S
O26 Zn20 1.969 . S
O26 C29 1.267 . S
O27 Zn20 1.965 . S
O27 C38 1.260 . S
O28 Zn21 1.969 . S
O28 C38 1.258 1_565 S
C29 O26 1.267 . S
C29 O30 1.228 . S
O30 C29 1.228 . S
O31 Zn20 2.024 . S
O31 C22 1.058 . S
C32 O33 1.228 . S
C32 O34 1.267 . S
O33 C32 1.228 . S
O34 Zn21 1.969 . S
O34 C32 1.267 . S
O35 Zn21 1.965 . S
O35 C39 1.260 1_565 S
O36 Zn20 1.969 . S
O36 C39 1.258 . S
O37 Zn21 2.024 . S
O37 C24 1.058 . S
C38 O27 1.260 . S
C38 O28 1.258 1_545 S
C39 O35 1.260 1_545 S
C39 O36 1.258 . S
Zn40 O46 1.969 . S
Zn40 O47 1.965 . S
Zn40 O51 2.024 . S
Zn40 O56 1.969 . S
Zn41 O48 1.969 . S
Zn41 O54 1.969 . S
Zn41 O55 1.965 . S
Zn41 O57 2.024 . S
C42 O43 1.229 . S
C42 O51 1.058 . S
O43 C42 1.229 . S
C44 O45 1.229 . S
C44 O57 1.058 . S
O45 C44 1.229 . S
O46 Zn40 1.969 . S
O46 C49 1.267 . S
O47 Zn40 1.965 . S
O47 C58 1.260 . S
O48 Zn41 1.969 . S
O48 C58 1.258 . S
C49 O46 1.267 . S
C49 O50 1.228 . S
O50 C49 1.228 . S
O51 Zn40 2.024 . S
O51 C42 1.058 . S
C52 O53 1.228 . S
C52 O54 1.267 . S
O53 C52 1.228 . S
O54 Zn41 1.969 . S
O54 C52 1.267 . S
O55 Zn41 1.965 . S
O55 C59 1.260 . S
O56 Zn40 1.969 . S
O56 C59 1.258 . S
O57 Zn41 2.024 . S
O57 C44 1.058 . S
C58 O47 1.260 . S
C58 O48 1.258 . S
C59 O55 1.260 . S
C59 O56 1.258 . S
C60 C61 1.384 . S
C60 H73 0.947 . S
C60 C95 1.382 . S
C61 C60 1.384 . S
C61 C62 1.378 . S
C62 C61 1.378 . S
C62 C63 1.378 . S
C62 H74 0.952 . S
C63 C62 1.378 . S
C63 H75 0.950 . S
C63 C94 1.383 . S
H64 C83 0.947 . S
H65 C84 0.946 . S
H66 C86 0.953 . S
H67 C87 0.945 . S
H68 C89 0.952 . S
H69 C90 0.949 . S
H70 C92 0.950 1_565 S
H71 C93 0.939 1_565 S
H72 C95 0.951 . S
H73 C60 0.947 . S
H74 C62 0.952 . S
H75 C63 0.950 . S
N76 C79 1.382 . S
N76 C81 1.363 . S
N77 C79 1.371 . S
N77 C80 1.372 . S
N78 C80 1.361 . S
N78 C81 1.377 . S
C79 N76 1.382 . S
C79 N77 1.371 . S
C79 C82 1.480 . S
C80 N77 1.372 . S
C80 N78 1.361 . S
C80 C88 1.457 . S
C81 N76 1.363 . S
C81 N78 1.377 . S
C81 C94 1.479 1_545 S
C82 C79 1.480 . S
C82 C83 1.383 . S
C82 C87 1.385 . S
C83 H64 0.947 . S
C83 C82 1.383 . S
C83 C84 1.388 . S
C84 H65 0.946 . S
C84 C83 1.388 . S
C84 C85 1.384 . S
C85 C84 1.384 . S
C85 C86 1.377 . S
C86 H66 0.953 . S
C86 C85 1.377 . S
C86 C87 1.369 . S
C87 H67 0.945 . S
C87 C82 1.385 . S
C87 C86 1.369 . S
C88 C80 1.457 . S
C88 C89 1.372 . S
C88 C93 1.375 . S
C89 H68 0.952 . S
C89 C88 1.372 . S
C89 C90 1.389 . S
C90 H69 0.949 . S
C90 C89 1.389 . S
C90 C91 1.387 . S
C91 C90 1.387 . S
C91 C92 1.372 . S
C92 H70 0.950 1_545 S
C92 C91 1.372 . S
C92 C93 1.378 . S
C93 H71 0.939 1_545 S
C93 C88 1.375 . S
C93 C92 1.378 . S
C94 C63 1.383 . S
C94 C81 1.479 1_565 S
C94 C95 1.398 . S
C95 C60 1.382 . S
C95 H72 0.951 . S
C95 C94 1.398 . S
C96 C97 1.384 . S
C96 H109 0.947 . S
C96 C131 1.382 . S
C97 C96 1.384 . S
C97 C98 1.378 . S
C98 C97 1.378 . S
C98 C99 1.378 . S
C98 H110 0.952 . S
C99 C98 1.378 . S
C99 H111 0.950 . S
C99 C130 1.383 . S
H100 C119 0.947 . S
H101 C120 0.946 . S
H102 C122 0.953 . S
H103 C123 0.945 . S
H104 C125 0.952 . S
H105 C126 0.949 . S
H106 C128 0.950 . S
H107 C129 0.948 . S
H108 C131 0.951 . S
H109 C96 0.947 . S
H110 C98 0.952 . S
H111 C99 0.950 . S
N112 C115 1.382 . S
N112 C117 1.363 . S
N113 C115 1.371 . S
N113 C116 1.372 . S
N114 C116 1.361 . S
N114 C117 1.377 . S
C115 N112 1.382 . S
C115 N113 1.371 . S
C115 C118 1.480 . S
C116 N113 1.372 . S
C116 N114 1.361 . S
C116 C124 1.457 . S
C117 N112 1.363 . S
C117 N114 1.377 . S
C117 C130 1.479 . S
C118 C115 1.480 . S
C118 C119 1.383 . S
C118 C123 1.385 . S
C119 H100 0.947 . S
C119 C118 1.383 . S
C119 C120 1.388 . S
C120 H101 0.946 . S
C120 C119 1.388 . S
C120 C121 1.384 . S
C121 C120 1.384 . S
C121 C122 1.377 . S
C122 H102 0.953 . S
C122 C121 1.377 . S
C122 C123 1.369 . S
C123 H103 0.945 . S
C123 C118 1.385 . S
C123 C122 1.369 . S
C124 C116 1.457 . S
C124 C125 1.372 . S
C124 C129 1.364 . S
C125 H104 0.952 . S
C125 C124 1.372 . S
C125 C126 1.389 . S
C126 H105 0.949 . S
C126 C125 1.389 . S
C126 C127 1.387 . S
C127 C126 1.387 . S
C127 C128 1.372 . S
C128 H106 0.950 . S
C128 C127 1.372 . S
C128 C129 1.379 . S
C129 H107 0.948 . S
C129 C124 1.364 . S
C129 C128 1.379 . S
C130 C99 1.383 . S
C130 C117 1.479 . S
C130 C131 1.398 . S
C131 C96 1.382 . S
C131 H108 0.951 . S
C131 C130 1.398 . S
C132 C133 1.384 . S
C132 H145 0.947 . S
C132 C167 1.382 . S
C133 C132 1.384 . S
C133 C134 1.378 . S
C134 C133 1.378 . S
C134 C135 1.378 . S
C134 H146 0.952 . S
C135 C134 1.378 . S
C135 H147 0.950 . S
C135 C166 1.383 . S
H136 C155 0.947 . S
H137 C156 0.946 . S
H138 C158 0.953 . S
H139 C159 0.945 . S
H140 C161 0.952 . S
H141 C162 0.949 . S
H142 C164 0.950 1_655 S
H143 C165 0.948 1_655 S
H144 C167 0.951 . S
H145 C132 0.947 . S
H146 C134 0.952 . S
H147 C135 0.950 . S
N148 C151 1.382 . S
N148 C153 1.363 . S
N149 C151 1.371 . S
N149 C152 1.372 . S
N150 C152 1.361 . S
N150 C153 1.377 . S
C151 N148 1.382 . S
C151 N149 1.371 . S
C151 C154 1.480 . S
C152 N149 1.372 . S
C152 N150 1.361 . S
C152 C160 1.457 . S
C153 N148 1.363 . S
C153 N150 1.377 . S
C153 C166 1.479 1_455 S
C154 C151 1.480 . S
C154 C155 1.383 . S
C154 C159 1.385 . S
C155 H136 0.947 . S
C155 C154 1.383 . S
C155 C156 1.388 . S
C156 H137 0.946 . S
C156 C155 1.388 . S
C156 C157 1.384 . S
C157 C156 1.384 . S
C157 C158 1.377 . S
C158 H138 0.953 . S
C158 C157 1.377 . S
C158 C159 1.369 . S
C159 H139 0.945 . S
C159 C154 1.385 . S
C159 C158 1.369 . S
C160 C152 1.457 . S
C160 C161 1.372 . S
C160 C165 1.364 . S
C161 H140 0.952 . S
C161 C160 1.372 . S
C161 C162 1.389 . S
C162 H141 0.949 . S
C162 C161 1.389 . S
C162 C163 1.387 . S
C163 C162 1.387 . S
C163 C164 1.372 . S
C164 H142 0.950 1_455 S
C164 C163 1.372 . S
C164 C165 1.379 . S
C165 H143 0.948 1_455 S
C165 C160 1.364 . S
C165 C164 1.379 . S
C166 C135 1.383 . S
C166 C153 1.479 1_655 S
C166 C167 1.398 . S
C167 C132 1.382 . S
C167 H144 0.951 . S
C167 C166 1.398 . S
C168 C169 1.384 . S
C168 H181 0.947 . S
C168 C203 1.382 . S
C169 C168 1.384 . S
C169 C170 1.378 . S
C170 C169 1.378 . S
C170 C171 1.378 . S
C170 H182 0.952 . S
C171 C170 1.378 . S
C171 H183 0.950 . S
C171 C202 1.383 . S
H172 C191 0.947 . S
H173 C192 0.946 . S
H174 C194 0.953 . S
H175 C195 0.945 . S
H176 C197 0.952 . S
H177 C198 0.949 . S
H178 C200 0.950 . S
H179 C201 0.948 . S
H180 C203 0.951 . S
H181 C168 0.947 . S
H182 C170 0.952 . S
H183 C171 0.950 . S
N184 C187 1.382 . S
N184 C189 1.363 . S
N185 C187 1.371 1_655 S
N185 C188 1.372 1_655 S
N186 C188 1.361 . S
N186 C189 1.377 . S
C187 N184 1.382 . S
C187 N185 1.371 1_455 S
C187 C190 1.480 1_455 S
C188 N185 1.372 1_455 S
C188 N186 1.361 . S
C188 C196 1.457 . S
C189 N184 1.363 . S
C189 N186 1.377 . S
C189 C202 1.479 . S
C190 C187 1.480 1_655 S
C190 C191 1.383 . S
C190 C195 1.385 . S
C191 H172 0.947 . S
C191 C190 1.383 . S
C191 C192 1.388 . S
C192 H173 0.946 . S
C192 C191 1.388 . S
C192 C193 1.384 . S
C193 C192 1.384 . S
C193 C194 1.377 . S
C194 H174 0.953 . S
C194 C193 1.377 . S
C194 C195 1.369 . S
C195 H175 0.945 . S
C195 C190 1.385 . S
C195 C194 1.369 . S
C196 C188 1.457 . S
C196 C197 1.372 1_455 S
C196 C201 1.364 . S
C197 H176 0.952 . S
C197 C196 1.372 1_655 S
C197 C198 1.389 . S
C198 H177 0.949 . S
C198 C197 1.389 . S
C198 C199 1.387 1_655 S
C199 C198 1.387 1_455 S
C199 C200 1.372 . S
C200 H178 0.950 . S
C200 C199 1.372 . S
C200 C201 1.379 . S
C201 H179 0.948 . S
C201 C196 1.364 . S
C201 C200 1.379 . S
C202 C171 1.383 . S
C202 C189 1.479 . S
C202 C203 1.398 . S
C203 C168 1.382 . S
C203 H180 0.951 . S
C203 C202 1.398 . S
C204 C205 1.384 . S
C204 H217 0.947 . S
C204 C239 1.382 . S
C205 C204 1.384 . S
C205 C206 1.378 . S
C206 C205 1.378 . S
C206 C207 1.378 . S
C206 H218 0.952 . S
C207 C206 1.378 . S
C207 H219 0.950 . S
C207 C238 1.383 . S
H208 C227 0.947 . S
H209 C228 0.946 . S
H210 C230 0.953 . S
H211 C231 0.945 . S
H212 C233 0.952 . S
H213 C234 0.949 . S
H214 C236 0.950 . S
H215 C237 0.948 . S
H216 C239 0.951 . S
H217 C204 0.947 . S
H218 C206 0.952 . S
H219 C207 0.950 . S
N220 C223 1.408 . S
N220 C225 1.363 . S
N221 C223 1.370 1_565 S
N221 C224 1.372 1_565 S
N222 C224 1.361 . S
N222 C225 1.377 . S
C223 N220 1.408 . S
C223 N221 1.370 1_545 S
C223 C226 1.454 1_545 S
C224 N221 1.372 1_545 S
C224 N222 1.361 . S
C224 C232 1.457 . S
C225 N220 1.363 . S
C225 N222 1.377 . S
C225 C238 1.479 . S
C226 C223 1.454 1_565 S
C226 C227 1.383 . S
C226 C231 1.385 . S
C227 H208 0.947 . S
C227 C226 1.383 . S
C227 C228 1.388 . S
C228 H209 0.946 . S
C228 C227 1.388 . S
C228 C229 1.384 . S
C229 C228 1.384 . S
C229 C230 1.377 . S
C230 H210 0.953 . S
C230 C229 1.377 . S
C230 C231 1.369 . S
C231 H211 0.945 . S
C231 C226 1.385 . S
C231 C230 1.369 . S
C232 C224 1.457 . S
C232 C233 1.372 1_545 S
C232 C237 1.364 . S
C233 H212 0.952 . S
C233 C232 1.372 1_565 S
C233 C234 1.389 . S
C234 H213 0.949 . S
C234 C233 1.389 . S
C234 C235 1.387 1_565 S
C235 C234 1.387 1_545 S
C235 C236 1.372 . S
C236 H214 0.950 . S
C236 C235 1.372 . S
C236 C237 1.379 . S
C237 H215 0.948 . S
C237 C232 1.364 . S
C237 C236 1.379 . S
C238 C207 1.383 . S
C238 C225 1.479 . S
C238 C239 1.398 . S
C239 C204 1.382 . S
C239 H216 0.951 . S
C239 C238 1.398 . S
C240 C241 1.384 . S
C240 H253 0.947 . S
C240 C275 1.382 . S
C241 C240 1.384 . S
C241 C242 1.378 . S
C242 C241 1.378 . S
C242 C243 1.378 . S
C242 H254 0.952 . S
C243 C242 1.378 . S
C243 H255 0.950 . S
C243 C274 1.383 . S
H244 C263 0.947 . S
H245 C264 0.946 . S
H246 C266 0.953 . S
H247 C267 0.945 . S
H248 C269 0.952 . S
H249 C270 0.949 . S
H250 C272 0.950 . S
H251 C273 0.948 . S
H252 C275 0.951 . S
H253 C240 0.947 . S
H254 C242 0.952 . S
H255 C243 0.950 . S
N256 C259 1.382 . S
N256 C261 1.363 . S
N257 C259 1.371 . S
N257 C260 1.372 . S
N258 C260 1.361 . S
N258 C261 1.377 . S
C259 N256 1.382 . S
C259 N257 1.371 . S
C259 C262 1.480 . S
C260 N257 1.372 . S
C260 N258 1.361 . S
C260 C268 1.457 . S
C261 N256 1.363 . S
C261 N258 1.377 . S
C261 C274 1.479 . S
C262 C259 1.480 . S
C262 C263 1.383 . S
C262 C267 1.385 . S
C263 H244 0.947 . S
C263 C262 1.383 . S
C263 C264 1.388 . S
C264 H245 0.946 . S
C264 C263 1.388 . S
C264 C265 1.384 . S
C265 C264 1.384 . S
C265 C266 1.377 . S
C266 H246 0.953 . S
C266 C265 1.377 . S
C266 C267 1.369 . S
C267 H247 0.945 . S
C267 C262 1.385 . S
C267 C266 1.369 . S
C268 C260 1.457 . S
C268 C269 1.372 . S
C268 C273 1.364 . S
C269 H248 0.952 . S
C269 C268 1.372 . S
C269 C270 1.389 . S
C270 H249 0.949 . S
C270 C269 1.389 . S
C270 C271 1.387 . S
C271 C270 1.387 . S
C271 C272 1.372 . S
C272 H250 0.950 . S
C272 C271 1.372 . S
C272 C273 1.379 . S
C273 H251 0.948 . S
C273 C268 1.364 . S
C273 C272 1.379 . S
C274 C243 1.383 . S
C274 C261 1.479 . S
C274 C275 1.398 . S
C275 C240 1.382 . S
C275 H252 0.951 . S
C275 C274 1.398 . S
H276 C294 0.951 . S
H277 C296 0.951 . S
H278 C298 0.950 . S
H279 C299 0.950 . S
H280 C301 0.950 . S
H281 C304 0.950 . S
H282 C305 0.950 . S
H283 C307 0.950 . S
H284 C308 0.950 . S
H285 C309 0.951 . S
H286 C311 0.951 . S
H287 C313 0.950 . S
H288 C314 0.950 . S
H289 C316 0.950 . S
H290 C319 0.950 . S
H291 C320 0.950 . S
H292 C322 0.950 . S
H293 C323 0.950 . S
C294 H276 0.951 . S
C294 C295 1.366 . S
C294 C296 1.388 . S
C295 C294 1.366 . S
C295 C299 1.385 . S
C296 H277 0.951 . S
C296 C294 1.388 . S
C296 C297 1.366 . S
C297 C296 1.366 . S
C297 C298 1.414 . S
C297 C300 1.499 . S
C298 H278 0.950 . S
C298 C297 1.414 . S
C298 C299 1.374 . S
C299 H279 0.950 . S
C299 C295 1.385 . S
C299 C298 1.374 . S
C300 C297 1.499 . S
C300 C301 1.373 . S
C300 C302 1.389 . S
C301 H280 0.950 . S
C301 C300 1.373 . S
C301 C317 1.377 . S
C302 C300 1.389 . S
C302 C303 1.524 . S
C302 C316 1.377 . S
C303 C302 1.524 . S
C303 C304 1.397 . S
C303 C308 1.363 . S
C304 H281 0.950 . S
C304 C303 1.397 . S
C304 C305 1.334 . S
C305 H282 0.950 . S
C305 C304 1.334 . S
C305 C306 1.287 . S
C306 C305 1.287 . S
C306 C307 1.524 . S
C306 H325 0.913 . S
C307 H283 0.950 . S
C307 C306 1.524 . S
C307 C308 1.415 . S
C308 H284 0.950 . S
C308 C303 1.363 . S
C308 C307 1.415 . S
C309 H285 0.951 . S
C309 C310 1.366 . S
C309 C311 1.388 . S
C310 C309 1.366 . S
C310 C314 1.385 . S
C311 H286 0.951 . S
C311 C309 1.388 . S
C311 C312 1.366 . S
C312 C311 1.366 . S
C312 C313 1.414 . S
C312 C315 1.499 . S
C313 H287 0.950 . S
C313 C312 1.414 . S
C313 C314 1.374 . S
C314 H288 0.950 . S
C314 C310 1.385 . S
C314 C313 1.374 . S
C315 C312 1.499 . S
C315 C316 1.373 . S
C315 C317 1.389 . S
C316 H289 0.950 . S
C316 C302 1.377 . S
C316 C315 1.373 . S
C317 C301 1.377 . S
C317 C315 1.389 . S
C317 C318 1.524 . S
C318 C317 1.524 . S
C318 C319 1.397 . S
C318 C323 1.363 . S
C319 H290 0.950 . S
C319 C318 1.397 . S
C319 C320 1.334 . S
C320 H291 0.950 . S
C320 C319 1.334 . S
C320 C321 1.287 . S
C321 C320 1.287 . S
C321 C322 1.524 . S
C321 H324 0.999 . S
C322 H292 0.950 . S
C322 C321 1.524 . S
C322 C323 1.415 . S
C323 H293 0.950 . S
C323 C318 1.363 . S
C323 C322 1.415 . S
H324 C321 0.999 . S
H325 C306 0.913 . S
H326 C344 0.951 . S
H327 C346 0.951 . S
H328 C348 0.950 . S
H329 C349 0.950 . S
H330 C351 0.950 . S
H331 C354 0.950 . S
H332 C355 0.950 . S
H333 C357 0.950 . S
H334 C358 0.950 . S
H335 C359 0.951 . S
H336 C361 0.951 . S
H337 C363 0.950 . S
H338 C364 0.950 . S
H339 C366 0.950 . S
H340 C369 0.950 . S
H341 C370 0.950 . S
H342 C372 0.950 . S
H343 C373 0.950 . S
C344 H326 0.951 . S
C344 C345 1.366 . S
C344 C346 1.388 . S
C345 C344 1.366 . S
C345 C349 1.385 . S
C346 H327 0.951 . S
C346 C344 1.388 . S
C346 C347 1.366 . S
C347 C346 1.366 . S
C347 C348 1.414 . S
C347 C350 1.499 . S
C348 H328 0.950 . S
C348 C347 1.414 . S
C348 C349 1.374 . S
C349 H329 0.950 . S
C349 C345 1.385 . S
C349 C348 1.374 . S
C350 C347 1.499 . S
C350 C351 1.373 . S
C350 C352 1.389 . S
C351 H330 0.950 . S
C351 C350 1.373 . S
C351 C367 1.377 . S
C352 C350 1.389 . S
C352 C353 1.524 . S
C352 C366 1.377 . S
C353 C352 1.524 . S
C353 C354 1.397 . S
C353 C358 1.363 . S
C354 H331 0.950 . S
C354 C353 1.397 . S
C354 C355 1.334 . S
C355 H332 0.950 . S
C355 C354 1.334 . S
C355 C356 1.287 . S
C356 C355 1.287 . S
C356 C357 1.524 . S
C356 H375 0.913 . S
C357 H333 0.950 . S
C357 C356 1.524 . S
C357 C358 1.415 . S
C358 H334 0.950 . S
C358 C353 1.363 . S
C358 C357 1.415 . S
C359 H335 0.951 . S
C359 C360 1.366 . S
C359 C361 1.388 . S
C360 C359 1.366 . S
C360 C364 1.385 . S
C361 H336 0.951 . S
C361 C359 1.388 . S
C361 C362 1.366 . S
C362 C361 1.366 . S
C362 C363 1.414 . S
C362 C365 1.499 . S
C363 H337 0.950 . S
C363 C362 1.414 . S
C363 C364 1.374 . S
C364 H338 0.950 . S
C364 C360 1.385 . S
C364 C363 1.374 . S
C365 C362 1.499 . S
C365 C366 1.373 . S
C365 C367 1.389 . S
C366 H339 0.950 . S
C366 C352 1.377 . S
C366 C365 1.373 . S
C367 C351 1.377 . S
C367 C365 1.389 . S
C367 C368 1.524 . S
C368 C367 1.524 . S
C368 C369 1.397 . S
C368 C373 1.363 . S
C369 H340 0.950 . S
C369 C368 1.397 . S
C369 C370 1.334 . S
C370 H341 0.950 . S
C370 C369 1.334 . S
C370 C371 1.287 . S
C371 C370 1.287 . S
C371 C372 1.524 . S
C371 H374 0.999 . S
C372 H342 0.950 . S
C372 C371 1.524 . S
C372 C373 1.415 . S
C373 H343 0.950 . S
C373 C368 1.363 . S
C373 C372 1.415 . S
H374 C371 0.999 . S
H375 C356 0.913 . S
H376 C394 0.951 . S
H377 C396 0.951 . S
H378 C398 0.950 . S
H379 C399 0.950 . S
H380 C401 0.950 . S
H381 C404 0.950 . S
H382 C405 0.950 . S
H383 C407 0.950 . S
H384 C408 0.950 . S
H385 C409 0.951 . S
H386 C411 0.951 . S
H387 C413 0.950 . S
H388 C414 0.950 . S
H389 C416 0.950 . S
H390 C419 0.950 . S
H391 C420 0.950 . S
H392 C422 0.950 . S
H393 C423 0.950 . S
C394 H376 0.951 . S
C394 C395 1.366 . S
C394 C396 1.388 . S
C395 C394 1.366 . S
C395 C399 1.385 . S
C396 H377 0.951 . S
C396 C394 1.388 . S
C396 C397 1.366 . S
C397 C396 1.366 . S
C397 C398 1.414 . S
C397 C400 1.499 . S
C398 H378 0.950 . S
C398 C397 1.414 . S
C398 C399 1.374 . S
C399 H379 0.950 . S
C399 C395 1.385 . S
C399 C398 1.374 . S
C400 C397 1.499 . S
C400 C401 1.373 . S
C400 C402 1.389 . S
C401 H380 0.950 . S
C401 C400 1.373 . S
C401 C417 1.377 . S
C402 C400 1.389 . S
C402 C403 1.524 . S
C402 C416 1.377 . S
C403 C402 1.524 . S
C403 C404 1.397 . S
C403 C408 1.363 . S
C404 H381 0.950 . S
C404 C403 1.397 . S
C404 C405 1.334 . S
C405 H382 0.950 . S
C405 C404 1.334 . S
C405 C406 1.287 . S
C406 C405 1.287 . S
C406 C407 1.524 . S
C406 H425 0.913 . S
C407 H383 0.950 . S
C407 C406 1.524 . S
C407 C408 1.415 . S
C408 H384 0.950 . S
C408 C403 1.363 . S
C408 C407 1.415 . S
C409 H385 0.951 . S
C409 C410 1.366 . S
C409 C411 1.388 . S
C410 C409 1.366 . S
C410 C414 1.385 . S
C411 H386 0.951 . S
C411 C409 1.388 . S
C411 C412 1.366 . S
C412 C411 1.366 . S
C412 C413 1.414 . S
C412 C415 1.499 . S
C413 H387 0.950 . S
C413 C412 1.414 . S
C413 C414 1.374 . S
C414 H388 0.950 . S
C414 C410 1.385 . S
C414 C413 1.374 . S
C415 C412 1.499 . S
C415 C416 1.373 . S
C415 C417 1.389 . S
C416 H389 0.950 . S
C416 C402 1.377 . S
C416 C415 1.373 . S
C417 C401 1.377 . S
C417 C415 1.389 . S
C417 C418 1.524 . S
C418 C417 1.524 . S
C418 C419 1.397 . S
C418 C423 1.363 . S
C419 H390 0.950 . S
C419 C418 1.397 . S
C419 C420 1.334 . S
C420 H391 0.950 . S
C420 C419 1.334 . S
C420 C421 1.287 . S
C421 C420 1.287 . S
C421 C422 1.524 . S
C421 H424 0.999 . S
C422 H392 0.950 . S
C422 C421 1.524 . S
C422 C423 1.415 . S
C423 H393 0.950 . S
C423 C418 1.363 . S
C423 C422 1.415 . S
H424 C421 0.999 . S
H425 C406 0.913 . S
H426 C444 0.951 . S
H427 C446 0.951 . S
H428 C448 0.950 . S
H429 C449 0.950 . S
H430 C451 0.950 . S
H431 C454 0.950 . S
H432 C455 0.950 . S
H433 C457 0.950 . S
H434 C458 0.950 . S
H435 C459 0.951 . S
H436 C461 0.951 . S
H437 C463 0.950 . S
H438 C464 0.950 . S
H439 C466 0.950 . S
H440 C469 0.950 . S
H441 C470 0.950 . S
H442 C472 0.950 . S
H443 C473 0.950 . S
C444 H426 0.951 . S
C444 C445 1.366 . S
C444 C446 1.388 . S
C445 C444 1.366 . S
C445 C449 1.385 . S
C446 H427 0.951 . S
C446 C444 1.388 . S
C446 C447 1.366 . S
C447 C446 1.366 . S
C447 C448 1.414 . S
C447 C450 1.499 . S
C448 H428 0.950 . S
C448 C447 1.414 . S
C448 C449 1.374 . S
C449 H429 0.950 . S
C449 C445 1.385 . S
C449 C448 1.374 . S
C450 C447 1.499 . S
C450 C451 1.373 . S
C450 C452 1.389 . S
C451 H430 0.950 . S
C451 C450 1.373 . S
C451 C467 1.377 . S
C452 C450 1.389 . S
C452 C453 1.524 . S
C452 C466 1.377 . S
C453 C452 1.524 . S
C453 C454 1.397 . S
C453 C458 1.363 . S
C454 H431 0.950 . S
C454 C453 1.397 . S
C454 C455 1.334 . S
C455 H432 0.950 . S
C455 C454 1.334 . S
C455 C456 1.287 . S
C456 C455 1.287 . S
C456 C457 1.524 . S
C456 H475 0.913 . S
C457 H433 0.950 . S
C457 C456 1.524 . S
C457 C458 1.415 . S
C458 H434 0.950 . S
C458 C453 1.363 . S
C458 C457 1.415 . S
C459 H435 0.951 . S
C459 C460 1.366 . S
C459 C461 1.388 . S
C460 C459 1.366 . S
C460 C464 1.385 . S
C461 H436 0.951 . S
C461 C459 1.388 . S
C461 C462 1.366 . S
C462 C461 1.366 . S
C462 C463 1.414 . S
C462 C465 1.499 . S
C463 H437 0.950 . S
C463 C462 1.414 . S
C463 C464 1.374 . S
C464 H438 0.950 . S
C464 C460 1.385 . S
C464 C463 1.374 . S
C465 C462 1.499 . S
C465 C466 1.373 . S
C465 C467 1.389 . S
C466 H439 0.950 . S
C466 C452 1.377 . S
C466 C465 1.373 . S
C467 C451 1.377 . S
C467 C465 1.389 . S
C467 C468 1.524 . S
C468 C467 1.524 . S
C468 C469 1.397 . S
C468 C473 1.363 . S
C469 H440 0.950 . S
C469 C468 1.397 . S
C469 C470 1.334 . S
C470 H441 0.950 . S
C470 C469 1.334 . S
C470 C471 1.287 . S
C471 C470 1.287 . S
C471 C472 1.524 . S
C471 H474 0.999 . S
C472 H442 0.950 . S
C472 C471 1.524 . S
C472 C473 1.415 . S
C473 H443 0.950 . S
C473 C468 1.363 . S
C473 C472 1.415 . S
H474 C471 0.999 . S
H475 C456 0.913 . S
H476 C494 0.951 . S
H477 C496 0.951 . S
H478 C498 0.950 . S
H479 C499 0.950 . S
H480 C501 0.950 . S
H481 C504 0.950 . S
H482 C505 0.950 . S
H483 C507 0.950 . S
H484 C508 0.950 . S
H485 C509 0.951 . S
H486 C511 0.951 . S
H487 C513 0.950 . S
H488 C514 0.950 . S
H489 C516 0.950 . S
H490 C519 0.950 . S
H491 C520 0.950 . S
H492 C522 0.950 . S
H493 C523 0.950 . S
C494 H476 0.951 . S
C494 C495 1.366 . S
C494 C496 1.388 . S
C495 C494 1.366 . S
C495 C499 1.385 . S
C496 H477 0.951 . S
C496 C494 1.388 . S
C496 C497 1.366 . S
C497 C496 1.366 . S
C497 C498 1.414 . S
C497 C500 1.499 . S
C498 H478 0.950 . S
C498 C497 1.414 . S
C498 C499 1.374 . S
C499 H479 0.950 . S
C499 C495 1.385 . S
C499 C498 1.374 . S
C500 C497 1.499 . S
C500 C501 1.373 . S
C500 C502 1.389 . S
C501 H480 0.950 . S
C501 C500 1.373 . S
C501 C517 1.377 . S
C502 C500 1.389 . S
C502 C503 1.524 . S
C502 C516 1.377 . S
C503 C502 1.524 . S
C503 C504 1.397 . S
C503 C508 1.363 . S
C504 H481 0.950 . S
C504 C503 1.397 . S
C504 C505 1.334 . S
C505 H482 0.950 . S
C505 C504 1.334 . S
C505 C506 1.287 . S
C506 C505 1.287 . S
C506 C507 1.524 . S
C506 H525 0.913 . S
C507 H483 0.950 . S
C507 C506 1.524 . S
C507 C508 1.415 . S
C508 H484 0.950 . S
C508 C503 1.363 . S
C508 C507 1.415 . S
C509 H485 0.951 . S
C509 C510 1.366 . S
C509 C511 1.388 . S
C510 C509 1.366 . S
C510 C514 1.385 . S
C511 H486 0.951 . S
C511 C509 1.388 . S
C511 C512 1.366 . S
C512 C511 1.366 . S
C512 C513 1.414 . S
C512 C515 1.499 . S
C513 H487 0.950 . S
C513 C512 1.414 . S
C513 C514 1.374 . S
C514 H488 0.950 . S
C514 C510 1.385 . S
C514 C513 1.374 . S
C515 C512 1.499 . S
C515 C516 1.373 . S
C515 C517 1.389 . S
C516 H489 0.950 . S
C516 C502 1.377 . S
C516 C515 1.373 . S
C517 C501 1.377 . S
C517 C515 1.389 . S
C517 C518 1.524 . S
C518 C517 1.524 . S
C518 C519 1.397 . S
C518 C523 1.363 . S
C519 H490 0.950 . S
C519 C518 1.397 . S
C519 C520 1.334 . S
C520 H491 0.950 . S
C520 C519 1.334 . S
C520 C521 1.287 . S
C521 C520 1.287 . S
C521 C522 1.524 . S
C521 H524 0.999 . S
C522 H492 0.950 . S
C522 C521 1.524 . S
C522 C523 1.415 . S
C523 H493 0.950 . S
C523 C518 1.363 . S
C523 C522 1.415 . S
H524 C521 0.999 . S
H525 C506 0.913 . S
H526 C544 0.951 . S
H527 C546 0.951 . S
H528 C548 0.950 . S
H529 C549 0.950 . S
H530 C551 0.950 . S
H531 C554 0.950 . S
H532 C555 0.950 . S
H533 C557 0.950 . S
H534 C558 0.950 . S
H535 C559 0.951 . S
H536 C561 0.951 . S
H537 C563 0.950 . S
H538 C564 0.950 . S
H539 C566 0.950 . S
H540 C569 0.950 . S
H541 C570 0.950 . S
H542 C572 0.950 . S
H543 C573 0.950 . S
C544 H526 0.951 . S
C544 C545 1.366 . S
C544 C546 1.388 . S
C545 C544 1.366 . S
C545 C549 1.385 . S
C546 H527 0.951 . S
C546 C544 1.388 . S
C546 C547 1.366 . S
C547 C546 1.366 . S
C547 C548 1.414 . S
C547 C550 1.499 . S
C548 H528 0.950 . S
C548 C547 1.414 . S
C548 C549 1.374 . S
C549 H529 0.950 . S
C549 C545 1.385 . S
C549 C548 1.374 . S
C550 C547 1.499 . S
C550 C551 1.373 . S
C550 C552 1.389 . S
C551 H530 0.950 . S
C551 C550 1.373 . S
C551 C567 1.377 . S
C552 C550 1.389 . S
C552 C553 1.524 . S
C552 C566 1.377 . S
C553 C552 1.524 . S
C553 C554 1.397 . S
C553 C558 1.363 . S
C554 H531 0.950 . S
C554 C553 1.397 . S
C554 C555 1.334 . S
C555 H532 0.950 . S
C555 C554 1.334 . S
C555 C556 1.287 . S
C556 C555 1.287 . S
C556 C557 1.524 . S
C556 H575 0.913 . S
C557 H533 0.950 . S
C557 C556 1.524 . S
C557 C558 1.415 . S
C558 H534 0.950 . S
C558 C553 1.363 . S
C558 C557 1.415 . S
C559 H535 0.951 . S
C559 C560 1.366 . S
C559 C561 1.388 . S
C560 C559 1.366 . S
C560 C564 1.385 . S
C561 H536 0.951 . S
C561 C559 1.388 . S
C561 C562 1.366 . S
C562 C561 1.366 . S
C562 C563 1.414 . S
C562 C565 1.499 . S
C563 H537 0.950 . S
C563 C562 1.414 . S
C563 C564 1.374 . S
C564 H538 0.950 . S
C564 C560 1.385 . S
C564 C563 1.374 . S
C565 C562 1.499 . S
C565 C566 1.373 . S
C565 C567 1.389 . S
C566 H539 0.950 . S
C566 C552 1.377 . S
C566 C565 1.373 . S
C567 C551 1.377 . S
C567 C565 1.389 . S
C567 C568 1.524 . S
C568 C567 1.524 . S
C568 C569 1.397 . S
C568 C573 1.363 . S
C569 H540 0.950 . S
C569 C568 1.397 . S
C569 C570 1.334 . S
C570 H541 0.950 . S
C570 C569 1.334 . S
C570 C571 1.287 . S
C571 C570 1.287 . S
C571 C572 1.524 . S
C571 H574 0.999 . S
C572 H542 0.950 . S
C572 C571 1.524 . S
C572 C573 1.415 . S
C573 H543 0.950 . S
C573 C568 1.363 . S
C573 C572 1.415 . S
H574 C571 0.999 . S
H575 C556 0.913 . S
H576 C594 0.951 . S
H577 C596 0.951 . S
H578 C598 0.950 . S
H579 C599 0.950 . S
H580 C601 0.950 . S
H581 C604 0.950 . S
H582 C605 0.950 . S
H583 C607 0.950 . S
H584 C608 0.950 . S
H585 C609 0.951 . S
H586 C611 0.951 . S
H587 C613 0.950 . S
H588 C614 0.950 . S
H589 C616 0.950 . S
H590 C619 0.950 . S
H591 C620 0.950 . S
H592 C622 0.950 . S
H593 C623 0.950 . S
C594 H576 0.951 . S
C594 C595 1.366 . S
C594 C596 1.388 . S
C595 C594 1.366 . S
C595 C599 1.385 . S
C596 H577 0.951 . S
C596 C594 1.388 . S
C596 C597 1.366 . S
C597 C596 1.366 . S
C597 C598 1.414 . S
C597 C600 1.499 . S
C598 H578 0.950 . S
C598 C597 1.414 . S
C598 C599 1.374 . S
C599 H579 0.950 . S
C599 C595 1.385 . S
C599 C598 1.374 . S
C600 C597 1.499 . S
C600 C601 1.373 . S
C600 C602 1.389 . S
C601 H580 0.950 . S
C601 C600 1.373 . S
C601 C617 1.377 . S
C602 C600 1.389 . S
C602 C603 1.524 . S
C602 C616 1.377 . S
C603 C602 1.524 . S
C603 C604 1.397 . S
C603 C608 1.363 . S
C604 H581 0.950 . S
C604 C603 1.397 . S
C604 C605 1.334 . S
C605 H582 0.950 . S
C605 C604 1.334 . S
C605 C606 1.287 . S
C606 C605 1.287 . S
C606 C607 1.524 . S
C606 H625 0.913 . S
C607 H583 0.950 . S
C607 C606 1.524 . S
C607 C608 1.415 . S
C608 H584 0.950 . S
C608 C603 1.363 . S
C608 C607 1.415 . S
C609 H585 0.951 . S
C609 C610 1.366 . S
C609 C611 1.388 . S
C610 C609 1.366 . S
C610 C614 1.385 . S
C611 H586 0.951 . S
C611 C609 1.388 . S
C611 C612 1.366 . S
C612 C611 1.366 . S
C612 C613 1.414 . S
C612 C615 1.499 . S
C613 H587 0.950 . S
C613 C612 1.414 . S
C613 C614 1.374 . S
C614 H588 0.950 . S
C614 C610 1.385 . S
C614 C613 1.374 . S
C615 C612 1.499 . S
C615 C616 1.373 . S
C615 C617 1.389 . S
C616 H589 0.950 . S
C616 C602 1.377 . S
C616 C615 1.373 . S
C617 C601 1.377 . S
C617 C615 1.389 . S
C617 C618 1.524 . S
C618 C617 1.524 . S
C618 C619 1.397 . S
C618 C623 1.363 . S
C619 H590 0.950 . S
C619 C618 1.397 . S
C619 C620 1.334 . S
C620 H591 0.950 . S
C620 C619 1.334 . S
C620 C621 1.287 . S
C621 C620 1.287 . S
C621 C622 1.524 . S
C621 H624 0.999 . S
C622 H592 0.950 . S
C622 C621 1.524 . S
C622 C623 1.415 . S
C623 H593 0.950 . S
C623 C618 1.363 . S
C623 C622 1.415 . S
H624 C621 0.999 . S
H625 C606 0.913 . S
H626 C644 0.951 . S
H627 C646 0.951 . S
H628 C648 0.950 . S
H629 C649 0.950 . S
H630 C651 0.950 . S
H631 C654 0.950 . S
H632 C655 0.950 . S
H633 C657 0.950 . S
H634 C658 0.950 . S
H635 C659 0.951 . S
H636 C661 0.951 . S
H637 C663 0.950 . S
H638 C664 0.950 . S
H639 C666 0.950 . S
H640 C669 0.950 . S
H641 C670 0.950 . S
H642 C672 0.950 . S
H643 C673 0.950 . S
C644 H626 0.951 . S
C644 C645 1.366 . S
C644 C646 1.388 . S
C645 C644 1.366 . S
C645 C649 1.385 . S
C646 H627 0.951 . S
C646 C644 1.388 . S
C646 C647 1.366 . S
C647 C646 1.366 . S
C647 C648 1.414 . S
C647 C650 1.499 . S
C648 H628 0.950 . S
C648 C647 1.414 . S
C648 C649 1.374 . S
C649 H629 0.950 . S
C649 C645 1.385 . S
C649 C648 1.374 . S
C650 C647 1.499 . S
C650 C651 1.373 . S
C650 C652 1.389 . S
C651 H630 0.950 . S
C651 C650 1.373 . S
C651 C667 1.377 . S
C652 C650 1.389 . S
C652 C653 1.524 . S
C652 C666 1.377 . S
C653 C652 1.524 . S
C653 C654 1.397 . S
C653 C658 1.363 . S
C654 H631 0.950 . S
C654 C653 1.397 . S
C654 C655 1.334 . S
C655 H632 0.950 . S
C655 C654 1.334 . S
C655 C656 1.287 . S
C656 C655 1.287 . S
C656 C657 1.524 . S
C656 H675 0.913 . S
C657 H633 0.950 . S
C657 C656 1.524 . S
C657 C658 1.415 . S
C658 H634 0.950 . S
C658 C653 1.363 . S
C658 C657 1.415 . S
C659 H635 0.951 . S
C659 C660 1.366 . S
C659 C661 1.388 . S
C660 C659 1.366 . S
C660 C664 1.385 . S
C661 H636 0.951 . S
C661 C659 1.388 . S
C661 C662 1.366 . S
C662 C661 1.366 . S
C662 C663 1.414 . S
C662 C665 1.499 . S
C663 H637 0.950 . S
C663 C662 1.414 . S
C663 C664 1.374 . S
C664 H638 0.950 . S
C664 C660 1.385 . S
C664 C663 1.374 . S
C665 C662 1.499 . S
C665 C666 1.373 . S
C665 C667 1.389 . S
C666 H639 0.950 . S
C666 C652 1.377 . S
C666 C665 1.373 . S
C667 C651 1.377 . S
C667 C665 1.389 . S
C667 C668 1.524 . S
C668 C667 1.524 . S
C668 C669 1.397 . S
C668 C673 1.363 . S
C669 H640 0.950 . S
C669 C668 1.397 . S
C669 C670 1.334 . S
C670 H641 0.950 . S
C670 C669 1.334 . S
C670 C671 1.287 . S
C671 C670 1.287 . S
C671 C672 1.524 . S
C671 H674 0.999 . S
C672 H642 0.950 . S
C672 C671 1.524 . S
C672 C673 1.415 . S
C673 H643 0.950 . S
C673 C668 1.363 . S
C673 C672 1.415 . S
H674 C671 0.999 . S
H675 C656 0.913 . S
H676 C694 0.951 . S
H677 C696 0.951 . S
H678 C698 0.950 . S
H679 C699 0.950 . S
H680 C701 0.950 . S
H681 C704 0.950 . S
H682 C705 0.950 . S
H683 C707 0.950 . S
H684 C708 0.950 . S
H685 C709 0.951 . S
H686 C711 0.951 . S
H687 C713 0.950 . S
H688 C714 0.950 . S
H689 C716 0.950 . S
H690 C719 0.950 . S
H691 C720 0.950 . S
H692 C722 0.950 . S
H693 C723 0.950 . S
C694 H676 0.951 . S
C694 C695 1.366 . S
C694 C696 1.388 . S
C695 C694 1.366 . S
C695 C699 1.385 . S
C696 H677 0.951 . S
C696 C694 1.388 . S
C696 C697 1.366 . S
C697 C696 1.366 . S
C697 C698 1.414 . S
C697 C700 1.499 . S
C698 H678 0.950 . S
C698 C697 1.414 . S
C698 C699 1.374 . S
C699 H679 0.950 . S
C699 C695 1.385 . S
C699 C698 1.374 . S
C700 C697 1.499 . S
C700 C701 1.373 . S
C700 C702 1.389 . S
C701 H680 0.950 . S
C701 C700 1.373 . S
C701 C717 1.377 . S
C702 C700 1.389 . S
C702 C703 1.524 . S
C702 C716 1.377 . S
C703 C702 1.524 . S
C703 C704 1.397 . S
C703 C708 1.363 . S
C704 H681 0.950 . S
C704 C703 1.397 . S
C704 C705 1.334 . S
C705 H682 0.950 . S
C705 C704 1.334 . S
C705 C706 1.287 . S
C706 C705 1.287 . S
C706 C707 1.524 . S
C706 H725 0.913 . S
C707 H683 0.950 . S
C707 C706 1.524 . S
C707 C708 1.415 . S
C708 H684 0.950 . S
C708 C703 1.363 . S
C708 C707 1.415 . S
C709 H685 0.951 . S
C709 C710 1.366 . S
C709 C711 1.388 . S
C710 C709 1.366 . S
C710 C714 1.385 . S
C711 H686 0.951 . S
C711 C709 1.388 . S
C711 C712 1.366 . S
C712 C711 1.366 . S
C712 C713 1.414 . S
C712 C715 1.499 . S
C713 H687 0.950 . S
C713 C712 1.414 . S
C713 C714 1.374 . S
C714 H688 0.950 . S
C714 C710 1.385 . S
C714 C713 1.374 . S
C715 C712 1.499 . S
C715 C716 1.373 . S
C715 C717 1.389 . S
C716 H689 0.950 . S
C716 C702 1.377 . S
C716 C715 1.373 . S
C717 C701 1.377 . S
C717 C715 1.389 . S
C717 C718 1.524 . S
C718 C717 1.524 . S
C718 C719 1.397 . S
C718 C723 1.363 . S
C719 H690 0.950 . S
C719 C718 1.397 . S
C719 C720 1.334 . S
C720 H691 0.950 . S
C720 C719 1.334 . S
C720 C721 1.287 . S
C721 C720 1.287 . S
C721 C722 1.524 . S
C721 H724 0.999 . S
C722 H692 0.950 . S
C722 C721 1.524 . S
C722 C723 1.415 . S
C723 H693 0.950 . S
C723 C718 1.363 . S
C723 C722 1.415 . S
H724 C721 0.999 . S
H725 C706 0.913 . S
H726 C744 0.951 . S
H727 C746 0.951 . S
H728 C748 0.950 . S
H729 C749 0.950 . S
H730 C751 0.950 . S
H731 C754 0.950 . S
H732 C755 0.950 . S
H733 C757 0.950 . S
H734 C758 0.950 . S
H735 C759 0.951 . S
H736 C761 0.951 . S
H737 C763 0.950 . S
H738 C764 0.950 . S
H739 C766 0.950 . S
H740 C769 0.950 . S
H741 C770 0.950 . S
H742 C772 0.950 . S
H743 C773 0.950 . S
C744 H726 0.951 . S
C744 C745 1.366 . S
C744 C746 1.388 . S
C745 C744 1.366 . S
C745 C749 1.385 . S
C746 H727 0.951 . S
C746 C744 1.388 . S
C746 C747 1.366 . S
C747 C746 1.366 . S
C747 C748 1.414 . S
C747 C750 1.499 . S
C748 H728 0.950 . S
C748 C747 1.414 . S
C748 C749 1.374 . S
C749 H729 0.950 . S
C749 C745 1.385 . S
C749 C748 1.374 . S
C750 C747 1.499 . S
C750 C751 1.373 . S
C750 C752 1.389 . S
C751 H730 0.950 . S
C751 C750 1.373 . S
C751 C767 1.377 . S
C752 C750 1.389 . S
C752 C753 1.524 . S
C752 C766 1.377 . S
C753 C752 1.524 . S
C753 C754 1.397 . S
C753 C758 1.363 . S
C754 H731 0.950 . S
C754 C753 1.397 . S
C754 C755 1.334 . S
C755 H732 0.950 . S
C755 C754 1.334 . S
C755 C756 1.287 . S
C756 C755 1.287 . S
C756 C757 1.524 . S
C756 H775 0.913 . S
C757 H733 0.950 . S
C757 C756 1.524 . S
C757 C758 1.415 . S
C758 H734 0.950 . S
C758 C753 1.363 . S
C758 C757 1.415 . S
C759 H735 0.951 . S
C759 C760 1.366 . S
C759 C761 1.388 . S
C760 C759 1.366 . S
C760 C764 1.385 . S
C761 H736 0.951 . S
C761 C759 1.388 . S
C761 C762 1.366 . S
C762 C761 1.366 . S
C762 C763 1.414 . S
C762 C765 1.499 . S
C763 H737 0.950 . S
C763 C762 1.414 . S
C763 C764 1.374 . S
C764 H738 0.950 . S
C764 C760 1.385 . S
C764 C763 1.374 . S
C765 C762 1.499 . S
C765 C766 1.373 . S
C765 C767 1.389 . S
C766 H739 0.950 . S
C766 C752 1.377 . S
C766 C765 1.373 . S
C767 C751 1.377 . S
C767 C765 1.389 . S
C767 C768 1.524 . S
C768 C767 1.524 . S
C768 C769 1.397 . S
C768 C773 1.363 . S
C769 H740 0.950 . S
C769 C768 1.397 . S
C769 C770 1.334 . S
C770 H741 0.950 . S
C770 C769 1.334 . S
C770 C771 1.287 . S
C771 C770 1.287 . S
C771 C772 1.524 . S
C771 H774 0.999 . S
C772 H742 0.950 . S
C772 C771 1.524 . S
C772 C773 1.415 . S
C773 H743 0.950 . S
C773 C768 1.363 . S
C773 C772 1.415 . S
H774 C771 0.999 . S
H775 C756 0.913 . S
H776 C794 0.951 . S
H777 C796 0.951 . S
H778 C798 0.950 . S
H779 C799 0.950 . S
H780 C801 0.950 . S
H781 C804 0.950 . S
H782 C805 0.950 . S
H783 C807 0.950 . S
H784 C808 0.950 . S
H785 C809 0.951 . S
H786 C811 0.951 . S
H787 C813 0.950 . S
H788 C814 0.950 . S
H789 C816 0.950 . S
H790 C819 0.950 . S
H791 C820 0.950 . S
H792 C822 0.950 . S
H793 C823 0.950 . S
C794 H776 0.951 . S
C794 C795 1.366 . S
C794 C796 1.388 . S
C795 C794 1.366 . S
C795 C799 1.385 . S
C796 H777 0.951 . S
C796 C794 1.388 . S
C796 C797 1.366 . S
C797 C796 1.366 . S
C797 C798 1.414 . S
C797 C800 1.499 . S
C798 H778 0.950 . S
C798 C797 1.414 . S
C798 C799 1.374 . S
C799 H779 0.950 . S
C799 C795 1.385 . S
C799 C798 1.374 . S
C800 C797 1.499 . S
C800 C801 1.373 . S
C800 C802 1.389 . S
C801 H780 0.950 . S
C801 C800 1.373 . S
C801 C817 1.377 . S
C802 C800 1.389 . S
C802 C803 1.524 . S
C802 C816 1.377 . S
C803 C802 1.524 . S
C803 C804 1.397 . S
C803 C808 1.363 . S
C804 H781 0.950 . S
C804 C803 1.397 . S
C804 C805 1.334 . S
C805 H782 0.950 . S
C805 C804 1.334 . S
C805 C806 1.287 . S
C806 C805 1.287 . S
C806 C807 1.524 . S
C806 H825 0.913 . S
C807 H783 0.950 . S
C807 C806 1.524 . S
C807 C808 1.415 . S
C808 H784 0.950 . S
C808 C803 1.363 . S
C808 C807 1.415 . S
C809 H785 0.951 . S
C809 C810 1.366 . S
C809 C811 1.388 . S
C810 C809 1.366 . S
C810 C814 1.385 . S
C811 H786 0.951 . S
C811 C809 1.388 . S
C811 C812 1.366 . S
C812 C811 1.366 . S
C812 C813 1.414 . S
C812 C815 1.499 . S
C813 H787 0.950 . S
C813 C812 1.414 . S
C813 C814 1.374 . S
C814 H788 0.950 . S
C814 C810 1.385 . S
C814 C813 1.374 . S
C815 C812 1.499 . S
C815 C816 1.373 . S
C815 C817 1.389 . S
C816 H789 0.950 . S
C816 C802 1.377 . S
C816 C815 1.373 . S
C817 C801 1.377 . S
C817 C815 1.389 . S
C817 C818 1.524 . S
C818 C817 1.524 . S
C818 C819 1.397 . S
C818 C823 1.363 . S
C819 H790 0.950 . S
C819 C818 1.397 . S
C819 C820 1.334 . S
C820 H791 0.950 . S
C820 C819 1.334 . S
C820 C821 1.287 . S
C821 C820 1.287 . S
C821 C822 1.524 . S
C821 H824 0.999 . S
C822 H792 0.950 . S
C822 C821 1.524 . S
C822 C823 1.415 . S
C823 H793 0.950 . S
C823 C818 1.363 . S
C823 C822 1.415 . S
H824 C821 0.999 . S
H825 C806 0.913 . S
H826 C844 0.951 . S
H827 C846 0.951 . S
H828 C848 0.950 . S
H829 C849 0.950 . S
H830 C851 0.950 . S
H831 C854 0.950 . S
H832 C855 0.950 . S
H833 C857 0.950 . S
H834 C858 0.950 . S
H835 C859 0.951 . S
H836 C861 0.951 . S
H837 C863 0.950 . S
H838 C864 0.950 . S
H839 C866 0.950 . S
H840 C869 0.950 . S
H841 C870 0.950 . S
H842 C872 0.950 . S
H843 C873 0.950 . S
C844 H826 0.951 . S
C844 C845 1.366 . S
C844 C846 1.388 . S
C845 C844 1.366 . S
C845 C849 1.385 . S
C846 H827 0.951 . S
C846 C844 1.388 . S
C846 C847 1.366 . S
C847 C846 1.366 . S
C847 C848 1.414 . S
C847 C850 1.499 . S
C848 H828 0.950 . S
C848 C847 1.414 . S
C848 C849 1.374 . S
C849 H829 0.950 . S
C849 C845 1.385 . S
C849 C848 1.374 . S
C850 C847 1.499 . S
C850 C851 1.373 . S
C850 C852 1.389 . S
C851 H830 0.950 . S
C851 C850 1.373 . S
C851 C867 1.377 . S
C852 C850 1.389 . S
C852 C853 1.524 . S
C852 C866 1.377 . S
C853 C852 1.524 . S
C853 C854 1.397 . S
C853 C858 1.363 . S
C854 H831 0.950 . S
C854 C853 1.397 . S
C854 C855 1.334 . S
C855 H832 0.950 . S
C855 C854 1.334 . S
C855 C856 1.287 . S
C856 C855 1.287 . S
C856 C857 1.524 . S
C856 H875 0.913 . S
C857 H833 0.950 . S
C857 C856 1.524 . S
C857 C858 1.415 . S
C858 H834 0.950 . S
C858 C853 1.363 . S
C858 C857 1.415 . S
C859 H835 0.951 . S
C859 C860 1.366 . S
C859 C861 1.388 . S
C860 C859 1.366 . S
C860 C864 1.385 . S
C861 H836 0.951 . S
C861 C859 1.388 . S
C861 C862 1.366 . S
C862 C861 1.366 . S
C862 C863 1.414 . S
C862 C865 1.499 . S
C863 H837 0.950 . S
C863 C862 1.414 . S
C863 C864 1.374 . S
C864 H838 0.950 . S
C864 C860 1.385 . S
C864 C863 1.374 . S
C865 C862 1.499 . S
C865 C866 1.373 . S
C865 C867 1.389 . S
C866 H839 0.950 . S
C866 C852 1.377 . S
C866 C865 1.373 . S
C867 C851 1.377 . S
C867 C865 1.389 . S
C867 C868 1.524 . S
C868 C867 1.524 . S
C868 C869 1.397 . S
C868 C873 1.363 . S
C869 H840 0.950 . S
C869 C868 1.397 . S
C869 C870 1.334 . S
C870 H841 0.950 . S
C870 C869 1.334 . S
C870 C871 1.287 . S
C871 C870 1.287 . S
C871 C872 1.524 . S
C871 H874 0.999 . S
C872 H842 0.950 . S
C872 C871 1.524 . S
C872 C873 1.415 . S
C873 H843 0.950 . S
C873 C868 1.363 . S
C873 C872 1.415 . S
H874 C871 0.999 . S
H875 C856 0.913 . S
H876 C894 0.951 . S
H877 C896 0.951 . S
H878 C898 0.950 . S
H879 C899 0.950 . S
H880 C901 0.950 . S
H881 C904 0.950 . S
H882 C905 0.950 . S
H883 C907 0.950 . S
H884 C908 0.950 . S
H885 C909 0.951 . S
H886 C911 0.951 . S
H887 C913 0.950 . S
H888 C914 0.950 . S
H889 C916 0.950 . S
H890 C919 0.950 . S
H891 C920 0.950 . S
H892 C922 0.950 . S
H893 C923 0.950 . S
C894 H876 0.951 . S
C894 C895 1.366 . S
C894 C896 1.388 . S
C895 C894 1.366 . S
C895 C899 1.385 . S
C896 H877 0.951 . S
C896 C894 1.388 . S
C896 C897 1.366 . S
C897 C896 1.366 . S
C897 C898 1.414 . S
C897 C900 1.499 . S
C898 H878 0.950 . S
C898 C897 1.414 . S
C898 C899 1.374 . S
C899 H879 0.950 . S
C899 C895 1.385 . S
C899 C898 1.374 . S
C900 C897 1.499 . S
C900 C901 1.373 1_455 S
C900 C902 1.389 . S
C901 H880 0.950 . S
C901 C900 1.373 1_655 S
C901 C917 1.377 . S
C902 C900 1.389 . S
C902 C903 1.524 . S
C902 C916 1.377 . S
C903 C902 1.524 . S
C903 C904 1.397 . S
C903 C908 1.363 . S
C904 H881 0.950 . S
C904 C903 1.397 . S
C904 C905 1.334 . S
C905 H882 0.950 . S
C905 C904 1.334 . S
C905 C906 1.287 . S
C906 C905 1.287 . S
C906 C907 1.524 . S
C906 H925 0.913 . S
C907 H883 0.950 . S
C907 C906 1.524 . S
C907 C908 1.415 . S
C908 H884 0.950 . S
C908 C903 1.363 . S
C908 C907 1.415 . S
C909 H885 0.951 . S
C909 C910 1.366 . S
C909 C911 1.388 1_556 S
C910 C909 1.366 . S
C910 C914 1.385 . S
C911 H886 0.951 . S
C911 C909 1.388 1_554 S
C911 C912 1.366 . S
C912 C911 1.366 . S
C912 C913 1.414 . S
C912 C915 1.499 . S
C913 H887 0.950 . S
C913 C912 1.414 . S
C913 C914 1.374 1_554 S
C914 H888 0.950 . S
C914 C910 1.385 . S
C914 C913 1.374 1_556 S
C915 C912 1.499 . S
C915 C916 1.373 . S
C915 C917 1.389 1_455 S
C916 H889 0.950 . S
C916 C902 1.377 . S
C916 C915 1.373 . S
C917 C901 1.377 . S
C917 C915 1.389 1_655 S
C917 C918 1.524 . S
C918 C917 1.524 . S
C918 C919 1.397 . S
C918 C923 1.363 . S
C919 H890 0.950 . S
C919 C918 1.397 . S
C919 C920 1.334 . S
C920 H891 0.950 . S
C920 C919 1.334 . S
C920 C921 1.287 . S
C921 C920 1.287 . S
C921 C922 1.524 . S
C921 H924 0.999 . S
C922 H892 0.950 . S
C922 C921 1.524 . S
C922 C923 1.415 . S
C923 H893 0.950 . S
C923 C918 1.363 . S
C923 C922 1.415 . S
H924 C921 0.999 . S
H925 C906 0.913 . S
H926 C944 0.951 . S
H927 C946 0.951 . S
H928 C948 0.950 . S
H929 C949 0.950 . S
H930 C951 0.950 . S
H931 C954 0.950 . S
H932 C955 0.950 1_545 S
H933 C957 0.950 . S
H934 C958 0.950 . S
H935 C959 0.951 . S
H936 C961 0.951 . S
H937 C963 0.980 . S
H938 C964 0.950 1_565 S
H939 C966 0.950 1_565 S
H940 C969 0.950 . S
H941 C970 0.950 . S
H942 C972 0.950 . S
H943 C973 0.950 . S
C944 H926 0.951 . S
C944 C945 1.366 1_565 S
C944 C946 1.388 . S
C945 C944 1.366 1_545 S
C945 C949 1.385 . S
C946 H927 0.951 . S
C946 C944 1.388 . S
C946 C947 1.366 1_565 S
C947 C946 1.366 1_545 S
C947 C948 1.414 . S
C947 C950 1.499 . S
C948 H928 0.950 . S
C948 C947 1.414 . S
C948 C949 1.374 . S
C949 H929 0.950 . S
C949 C945 1.385 . S
C949 C948 1.374 . S
C950 C947 1.499 . S
C950 C951 1.373 . S
C950 C952 1.389 . S
C951 H930 0.950 . S
C951 C950 1.373 . S
C951 C967 1.377 . S
C952 C950 1.389 . S
C952 C953 1.524 1_545 S
C952 C966 1.377 . S
C953 C952 1.524 1_565 S
C953 C954 1.397 1_565 S
C953 C958 1.363 . S
C954 H931 0.950 . S
C954 C953 1.397 1_545 S
C954 C955 1.334 1_545 S
C955 H932 0.950 1_565 S
C955 C954 1.334 1_565 S
C955 C956 1.287 . S
C956 C955 1.287 . S
C956 C957 1.524 . S
C956 H975 0.913 . S
C957 H933 0.950 . S
C957 C956 1.524 . S
C957 C958 1.415 . S
C958 H934 0.950 . S
C958 C953 1.363 . S
C958 C957 1.415 . S
C959 H935 0.951 . S
C959 C960 1.366 . S
C959 C961 1.388 . S
C960 C959 1.366 . S
C960 C964 1.385 . S
C961 H936 0.951 . S
C961 C959 1.388 . S
C961 C962 1.366 . S
C962 C961 1.366 . S
C962 C963 1.391 1_545 S
C962 C965 1.499 . S
C963 H937 0.980 . S
C963 C962 1.391 1_565 S
C963 C964 1.368 1_565 S
C964 H938 0.950 1_545 S
C964 C960 1.385 . S
C964 C963 1.368 1_545 S
C965 C962 1.499 . S
C965 C966 1.373 . S
C965 C967 1.389 . S
C966 H939 0.950 1_545 S
C966 C952 1.377 . S
C966 C965 1.373 . S
C967 C951 1.377 . S
C967 C965 1.389 . S
C967 C968 1.524 . S
C968 C967 1.524 . S
C968 C969 1.397 . S
C968 C973 1.363 . S
C969 H940 0.950 . S
C969 C968 1.397 . S
C969 C970 1.334 . S
C970 H941 0.950 . S
C970 C969 1.334 . S
C970 C971 1.287 . S
C971 C970 1.287 . S
C971 C972 1.524 . S
C971 H974 0.999 . S
C972 H942 0.950 . S
C972 C971 1.524 . S
C972 C973 1.415 . S
C973 H943 0.950 . S
C973 C968 1.363 . S
C973 C972 1.415 . S
H974 C971 0.999 . S
H975 C956 0.913 . S
H976 C994 0.951 . S
H977 C996 0.951 . S
H978 C998 0.950 . S
H979 C999 0.950 . S
H980 C1001 0.950 . S
H981 C1004 0.950 . S
H982 C1005 0.950 . S
H983 C1007 0.950 . S
H984 C1008 0.950 . S
H985 C1009 0.951 . S
H986 C1011 0.951 . S
H987 C1013 0.950 . S
H988 C1014 0.950 . S
H989 C1016 0.950 . S
H990 C1019 0.950 . S
H991 C1020 0.950 . S
H992 C1022 0.950 . S
H993 C1023 0.950 . S
C994 H976 0.951 . S
C994 C995 1.366 . S
C994 C996 1.388 . S
C995 C994 1.366 . S
C995 C999 1.385 . S
C996 H977 0.951 . S
C996 C994 1.388 . S
C996 C997 1.366 . S
C997 C996 1.366 . S
C997 C998 1.414 . S
C997 C1000 1.499 . S
C998 H978 0.950 . S
C998 C997 1.414 . S
C998 C999 1.374 . S
C999 H979 0.950 . S
C999 C995 1.385 . S
C999 C998 1.374 . S
C1000 C997 1.499 . S
C1000 C1001 1.373 . S
C1000 C1002 1.389 . S
C1001 H980 0.950 . S
C1001 C1000 1.373 . S
C1001 C1017 1.377 . S
C1002 C1000 1.389 . S
C1002 C1003 1.524 . S
C1002 C1016 1.377 . S
C1003 C1002 1.524 . S
C1003 C1004 1.397 . S
C1003 C1008 1.363 . S
C1004 H981 0.950 . S
C1004 C1003 1.397 . S
C1004 C1005 1.334 . S
C1005 H982 0.950 . S
C1005 C1004 1.334 . S
C1005 C1006 1.287 . S
C1006 C1005 1.287 . S
C1006 C1007 1.524 . S
C1006 H1025 0.913 . S
C1007 H983 0.950 . S
C1007 C1006 1.524 . S
C1007 C1008 1.415 . S
C1008 H984 0.950 . S
C1008 C1003 1.363 . S
C1008 C1007 1.415 . S
C1009 H985 0.951 . S
C1009 C1010 1.366 . S
C1009 C1011 1.388 . S
C1010 C1009 1.366 . S
C1010 C1014 1.385 . S
C1011 H986 0.951 . S
C1011 C1009 1.388 . S
C1011 C1012 1.366 . S
C1012 C1011 1.366 . S
C1012 C1013 1.414 . S
C1012 C1015 1.499 . S
C1013 H987 0.950 . S
C1013 C1012 1.414 . S
C1013 C1014 1.374 . S
C1014 H988 0.950 . S
C1014 C1010 1.385 . S
C1014 C1013 1.374 . S
C1015 C1012 1.499 . S
C1015 C1016 1.373 . S
C1015 C1017 1.389 . S
C1016 H989 0.950 . S
C1016 C1002 1.377 . S
C1016 C1015 1.373 . S
C1017 C1001 1.377 . S
C1017 C1015 1.389 . S
C1017 C1018 1.524 . S
C1018 C1017 1.524 . S
C1018 C1019 1.397 . S
C1018 C1023 1.363 . S
C1019 H990 0.950 . S
C1019 C1018 1.397 . S
C1019 C1020 1.334 . S
C1020 H991 0.950 . S
C1020 C1019 1.334 . S
C1020 C1021 1.287 . S
C1021 C1020 1.287 . S
C1021 C1022 1.524 . S
C1021 H1024 0.999 . S
C1022 H992 0.950 . S
C1022 C1021 1.524 . S
C1022 C1023 1.415 . S
C1023 H993 0.950 . S
C1023 C1018 1.363 . S
C1023 C1022 1.415 . S
H1024 C1021 0.999 . S
H1025 C1006 0.913 . S
H1026 C1044 0.951 . S
H1027 C1046 0.951 . S
H1028 C1048 0.950 . S
H1029 C1049 0.950 . S
H1030 C1051 0.950 . S
H1031 C1054 0.950 . S
H1032 C1055 0.950 . S
H1033 C1057 0.950 . S
H1034 C1058 0.950 . S
H1035 C1059 0.951 . S
H1036 C1061 0.951 . S
H1037 C1063 0.950 . S
H1038 C1064 0.950 . S
H1039 C1066 0.950 . S
H1040 C1069 0.950 1_545 S
H1041 C1070 0.950 . S
H1042 C1072 0.950 . S
H1043 C1073 0.950 . S
C1044 H1026 0.951 . S
C1044 C1045 1.366 . S
C1044 C1046 1.388 . S
C1045 C1044 1.366 . S
C1045 C1049 1.385 1_545 S
C1046 H1027 0.951 . S
C1046 C1044 1.388 . S
C1046 C1047 1.366 . S
C1047 C1046 1.366 . S
C1047 C1048 1.414 1_545 S
C1047 C1050 1.499 . S
C1048 H1028 0.950 . S
C1048 C1047 1.414 1_565 S
C1048 C1049 1.374 . S
C1049 H1029 0.950 . S
C1049 C1045 1.385 1_565 S
C1049 C1048 1.374 . S
C1050 C1047 1.499 . S
C1050 C1051 1.373 1_545 S
C1050 C1052 1.389 . S
C1051 H1030 0.950 . S
C1051 C1050 1.373 1_565 S
C1051 C1067 1.377 . S
C1052 C1050 1.389 . S
C1052 C1053 1.524 . S
C1052 C1066 1.377 . S
C1053 C1052 1.524 . S
C1053 C1054 1.397 . S
C1053 C1058 1.363 . S
C1054 H1031 0.950 . S
C1054 C1053 1.397 . S
C1054 C1055 1.334 . S
C1055 H1032 0.950 . S
C1055 C1054 1.334 . S
C1055 C1056 1.287 . S
C1056 C1055 1.287 . S
C1056 C1057 1.524 . S
C1056 H1075 0.913 . S
C1057 H1033 0.950 . S
C1057 C1056 1.524 . S
C1057 C1058 1.415 . S
C1058 H1034 0.950 . S
C1058 C1053 1.363 . S
C1058 C1057 1.415 . S
C1059 H1035 0.951 . S
C1059 C1060 1.366 1_565 S
C1059 C1061 1.388 . S
C1060 C1059 1.366 1_545 S
C1060 C1064 1.385 . S
C1061 H1036 0.951 . S
C1061 C1059 1.388 . S
C1061 C1062 1.366 1_565 S
C1062 C1061 1.366 1_545 S
C1062 C1063 1.414 . S
C1062 C1065 1.499 . S
C1063 H1037 0.950 . S
C1063 C1062 1.414 . S
C1063 C1064 1.374 . S
C1064 H1038 0.950 . S
C1064 C1060 1.385 . S
C1064 C1063 1.374 . S
C1065 C1062 1.499 . S
C1065 C1066 1.373 . S
C1065 C1067 1.389 1_545 S
C1066 H1039 0.950 . S
C1066 C1052 1.377 . S
C1066 C1065 1.373 . S
C1067 C1051 1.377 . S
C1067 C1065 1.389 1_565 S
C1067 C1068 1.524 . S
C1068 C1067 1.524 . S
C1068 C1069 1.397 . S
C1068 C1073 1.363 . S
C1069 H1040 0.950 1_565 S
C1069 C1068 1.397 . S
C1069 C1070 1.334 . S
C1070 H1041 0.950 . S
C1070 C1069 1.334 . S
C1070 C1071 1.287 . S
C1071 C1070 1.287 . S
C1071 C1072 1.524 . S
C1071 H1074 0.999 . S
C1072 H1042 0.950 . S
C1072 C1071 1.524 . S
C1072 C1073 1.415 . S
C1073 H1043 0.950 . S
C1073 C1068 1.363 . S
C1073 C1072 1.415 . S
H1074 C1071 0.999 . S
H1075 C1056 0.913 . S
H1076 C1094 0.951 . S
H1077 C1096 0.951 . S
H1078 C1098 0.950 . S
H1079 C1099 0.950 . S
H1080 C1101 0.950 . S
H1081 C1104 0.950 . S
H1082 C1105 0.950 . S
H1083 C1107 0.950 . S
H1084 C1108 0.950 . S
H1085 C1109 0.951 . S
H1086 C1111 0.951 . S
H1087 C1113 0.950 . S
H1088 C1114 0.950 . S
H1089 C1116 0.950 . S
H1090 C1119 0.950 . S
H1091 C1120 0.950 . S
H1092 C1122 0.950 . S
H1093 C1123 0.950 . S
C1094 H1076 0.951 . S
C1094 C1095 1.366 . S
C1094 C1096 1.388 . S
C1095 C1094 1.366 . S
C1095 C1099 1.385 . S
C1096 H1077 0.951 . S
C1096 C1094 1.388 . S
C1096 C1097 1.366 . S
C1097 C1096 1.366 . S
C1097 C1098 1.414 . S
C1097 C1100 1.499 . S
C1098 H1078 0.950 . S
C1098 C1097 1.414 . S
C1098 C1099 1.374 . S
C1099 H1079 0.950 . S
C1099 C1095 1.385 . S
C1099 C1098 1.374 . S
C1100 C1097 1.499 . S
C1100 C1101 1.373 . S
C1100 C1102 1.389 . S
C1101 H1080 0.950 . S
C1101 C1100 1.373 . S
C1101 C1117 1.377 . S
C1102 C1100 1.389 . S
C1102 C1103 1.524 . S
C1102 C1116 1.377 . S
C1103 C1102 1.524 . S
C1103 C1104 1.397 . S
C1103 C1108 1.363 . S
C1104 H1081 0.950 . S
C1104 C1103 1.397 . S
C1104 C1105 1.334 . S
C1105 H1082 0.950 . S
C1105 C1104 1.334 . S
C1105 C1106 1.287 . S
C1106 C1105 1.287 . S
C1106 C1107 1.524 . S
C1106 H1125 0.913 . S
C1107 H1083 0.950 . S
C1107 C1106 1.524 . S
C1107 C1108 1.415 . S
C1108 H1084 0.950 . S
C1108 C1103 1.363 . S
C1108 C1107 1.415 . S
C1109 H1085 0.951 . S
C1109 C1110 1.366 . S
C1109 C1111 1.388 1_554 S
C1110 C1109 1.366 . S
C1110 C1114 1.385 . S
C1111 H1086 0.951 . S
C1111 C1109 1.388 1_556 S
C1111 C1112 1.366 . S
C1112 C1111 1.366 . S
C1112 C1113 1.414 . S
C1112 C1115 1.499 . S
C1113 H1087 0.950 . S
C1113 C1112 1.414 . S
C1113 C1114 1.374 1_556 S
C1114 H1088 0.950 . S
C1114 C1110 1.385 . S
C1114 C1113 1.374 1_554 S
C1115 C1112 1.499 . S
C1115 C1116 1.373 . S
C1115 C1117 1.389 . S
C1116 H1089 0.950 . S
C1116 C1102 1.377 . S
C1116 C1115 1.373 . S
C1117 C1101 1.377 . S
C1117 C1115 1.389 . S
C1117 C1118 1.524 . S
C1118 C1117 1.524 . S
C1118 C1119 1.397 . S
C1118 C1123 1.363 . S
C1119 H1090 0.950 . S
C1119 C1118 1.397 . S
C1119 C1120 1.334 . S
C1120 H1091 0.950 . S
C1120 C1119 1.334 . S
C1120 C1121 1.287 . S
C1121 C1120 1.287 . S
C1121 C1122 1.524 . S
C1121 H1124 0.999 . S
C1122 H1092 0.950 . S
C1122 C1121 1.524 . S
C1122 C1123 1.415 . S
C1123 H1093 0.950 . S
C1123 C1118 1.363 . S
C1123 C1122 1.415 . S
H1124 C1121 0.999 . S
H1125 C1106 0.913 . S
H1126 C1144 0.951 . S
H1127 C1146 0.951 . S
H1128 C1148 0.950 . S
H1129 C1149 0.950 . S
H1130 C1151 0.950 . S
H1131 C1154 0.950 . S
H1132 C1155 0.950 . S
H1133 C1157 0.950 . S
H1134 C1158 0.950 . S
H1135 C1159 0.951 . S
H1136 C1161 0.951 . S
H1137 C1163 0.950 . S
H1138 C1164 0.950 . S
H1139 C1166 0.950 . S
H1140 C1169 0.950 . S
H1141 C1170 0.950 . S
H1142 C1172 0.950 . S
H1143 C1173 0.950 . S
C1144 H1126 0.951 . S
C1144 C1145 1.366 . S
C1144 C1146 1.388 . S
C1145 C1144 1.366 . S
C1145 C1149 1.385 1_455 S
C1146 H1127 0.951 . S
C1146 C1144 1.388 . S
C1146 C1147 1.366 . S
C1147 C1146 1.366 . S
C1147 C1148 1.414 1_455 S
C1147 C1150 1.499 . S
C1148 H1128 0.950 . S
C1148 C1147 1.414 1_655 S
C1148 C1149 1.374 . S
C1149 H1129 0.950 . S
C1149 C1145 1.385 1_655 S
C1149 C1148 1.374 . S
C1150 C1147 1.499 . S
C1150 C1151 1.373 1_455 S
C1150 C1152 1.389 . S
C1151 H1130 0.950 . S
C1151 C1150 1.373 1_655 S
C1151 C1167 1.377 . S
C1152 C1150 1.389 . S
C1152 C1153 1.524 . S
C1152 C1166 1.377 . S
C1153 C1152 1.524 . S
C1153 C1154 1.397 . S
C1153 C1158 1.363 . S
C1154 H1131 0.950 . S
C1154 C1153 1.397 . S
C1154 C1155 1.334 . S
C1155 H1132 0.950 . S
C1155 C1154 1.334 . S
C1155 C1156 1.287 . S
C1156 C1155 1.287 . S
C1156 C1157 1.524 . S
C1156 H1175 0.913 . S
C1157 H1133 0.950 . S
C1157 C1156 1.524 . S
C1157 C1158 1.415 . S
C1158 H1134 0.950 . S
C1158 C1153 1.363 . S
C1158 C1157 1.415 . S
C1159 H1135 0.951 . S
C1159 C1160 1.366 1_655 S
C1159 C1161 1.388 . S
C1160 C1159 1.366 1_455 S
C1160 C1164 1.385 . S
C1161 H1136 0.951 . S
C1161 C1159 1.388 . S
C1161 C1162 1.366 1_655 S
C1162 C1161 1.366 1_455 S
C1162 C1163 1.414 . S
C1162 C1165 1.499 . S
C1163 H1137 0.950 . S
C1163 C1162 1.414 . S
C1163 C1164 1.374 . S
C1164 H1138 0.950 . S
C1164 C1160 1.385 . S
C1164 C1163 1.374 . S
C1165 C1162 1.499 . S
C1165 C1166 1.373 . S
C1165 C1167 1.389 1_455 S
C1166 H1139 0.950 . S
C1166 C1152 1.377 . S
C1166 C1165 1.373 . S
C1167 C1151 1.377 . S
C1167 C1165 1.389 1_655 S
C1167 C1168 1.524 . S
C1168 C1167 1.524 . S
C1168 C1169 1.397 . S
C1168 C1173 1.363 . S
C1169 H1140 0.950 . S
C1169 C1168 1.397 . S
C1169 C1170 1.334 . S
C1170 H1141 0.950 . S
C1170 C1169 1.334 . S
C1170 C1171 1.287 . S
C1171 C1170 1.287 . S
C1171 C1172 1.524 . S
C1171 H1174 0.999 . S
C1172 H1142 0.950 . S
C1172 C1171 1.524 . S
C1172 C1173 1.415 . S
C1173 H1143 0.950 . S
C1173 C1168 1.363 . S
C1173 C1172 1.415 . S
H1174 C1171 0.999 . S
H1175 C1156 0.913 . S
C295 C2 1.277 . S
C310 C265 1.329 . S
C345 C22 1.250 . S
C360 C193 1.312 . S
C395 C44 1.314 . S
C410 C229 1.372 . S
C445 C4 1.494 . S
C460 C241 1.579 . S
C510 C169 1.610 . S
C495 C24 1.538 . S
C560 C205 1.531 . S
C545 C42 1.450 . S
C595 C32 1.268 . S
C610 C121 1.270 . S
C645 C49 1.205 . S
C660 C133 1.212 . S
C695 C9 1.189 . S
C710 C61 1.202 . S
C760 C97 1.194 . S
C745 C29 1.159 . S
C810 C157 1.230 . S
C795 C52 1.209 . S
C845 C12 1.201 . S
C860 C85 1.219 . S
C910 C163 1.430 . S
C895 C18 1.422 1_455 S
C945 C38 1.421 . S
C960 C91 1.432 . S
C995 C58 1.418 . S
C1010 C127 1.439 . S
C1060 C235 1.494 . S
C1045 C39 1.482 . S
C1110 C271 1.484 . S
C1095 C59 1.463 . S
C1145 C19 1.465 . S
C1160 C199 1.485 . S
