# Generated by pormake.
# Topology bpr, (3,3)-cn, num edge types: 1
# Building blocks:
#     Node 0, Type 0, BuildingBlock: OLANEW_clean_sbu_2, # of connection points: 3
#     Node 1, Type 0, BuildingBlock: OLANEW_clean_sbu_2, # of connection points: 3
#     Node 2, Type 0, BuildingBlock: OLANEW_clean_sbu_2, # of connection points: 3
#     Node 3, Type 0, BuildingBlock: OLANEW_clean_sbu_2, # of connection points: 3
#     Node 4, Type 0, BuildingBlock: OLANEW_clean_sbu_2, # of connection points: 3
#     Node 5, Type 0, BuildingBlock: OLANEW_clean_sbu_2, # of connection points: 3
#     Node 6, Type 0, BuildingBlock: OLANEW_clean_sbu_2, # of connection points: 3
#     Node 7, Type 0, BuildingBlock: OLANEW_clean_sbu_2, # of connection points: 3
#     Node 8, Type 0, BuildingBlock: OLANEW_clean_sbu_2, # of connection points: 3
#     Node 9, Type 0, BuildingBlock: OLANEW_clean_sbu_2, # of connection points: 3
#     Node 10, Type 0, BuildingBlock: OLANEW_clean_sbu_2, # of connection points: 3
#     Node 11, Type 0, BuildingBlock: OLANEW_clean_sbu_2, # of connection points: 3
#     Node 12, Type 0, BuildingBlock: OLANEW_clean_sbu_2, # of connection points: 3
#     Node 13, Type 0, BuildingBlock: OLANEW_clean_sbu_2, # of connection points: 3
#     Node 14, Type 0, BuildingBlock: OLANEW_clean_sbu_2, # of connection points: 3
#     Node 15, Type 0, BuildingBlock: OLANEW_clean_sbu_2, # of connection points: 3
#     Node 16, Type 0, BuildingBlock: OLANEW_clean_sbu_2, # of connection points: 3
#     Node 17, Type 0, BuildingBlock: OLANEW_clean_sbu_2, # of connection points: 3
#     Node 18, Type 0, BuildingBlock: OLANEW_clean_sbu_2, # of connection points: 3
#     Node 19, Type 0, BuildingBlock: OLANEW_clean_sbu_2, # of connection points: 3
#     Node 20, Type 0, BuildingBlock: OLANEW_clean_sbu_2, # of connection points: 3
#     Node 21, Type 0, BuildingBlock: OLANEW_clean_sbu_2, # of connection points: 3
#     Node 22, Type 0, BuildingBlock: OLANEW_clean_sbu_2, # of connection points: 3
#     Node 23, Type 0, BuildingBlock: OLANEW_clean_sbu_2, # of connection points: 3
#     Node 24, Type 0, BuildingBlock: OLANEW_clean_sbu_2, # of connection points: 3
#     Node 25, Type 0, BuildingBlock: OLANEW_clean_sbu_2, # of connection points: 3
#     Node 26, Type 0, BuildingBlock: OLANEW_clean_sbu_2, # of connection points: 3
#     Node 27, Type 0, BuildingBlock: OLANEW_clean_sbu_2, # of connection points: 3
#     Node 28, Type 0, BuildingBlock: OLANEW_clean_sbu_2, # of connection points: 3
#     Node 29, Type 0, BuildingBlock: OLANEW_clean_sbu_2, # of connection points: 3
#     Node 30, Type 0, BuildingBlock: OLANEW_clean_sbu_2, # of connection points: 3
#     Node 31, Type 0, BuildingBlock: OLANEW_clean_sbu_2, # of connection points: 3
#     Node 32, Type 0, BuildingBlock: OLANEW_clean_sbu_2, # of connection points: 3
#     Node 33, Type 0, BuildingBlock: OLANEW_clean_sbu_2, # of connection points: 3
#     Node 34, Type 0, BuildingBlock: OLANEW_clean_sbu_2, # of connection points: 3
#     Node 35, Type 0, BuildingBlock: OLANEW_clean_sbu_2, # of connection points: 3
#     Node 36, Type 0, BuildingBlock: OLANEW_clean_sbu_2, # of connection points: 3
#     Node 37, Type 0, BuildingBlock: OLANEW_clean_sbu_2, # of connection points: 3
#     Node 38, Type 0, BuildingBlock: OLANEW_clean_sbu_2, # of connection points: 3
#     Node 39, Type 0, BuildingBlock: OLANEW_clean_sbu_2, # of connection points: 3
#     Node 40, Type 0, BuildingBlock: OLANEW_clean_sbu_2, # of connection points: 3
#     Node 41, Type 0, BuildingBlock: OLANEW_clean_sbu_2, # of connection points: 3
#     Node 42, Type 0, BuildingBlock: OLANEW_clean_sbu_2, # of connection points: 3
#     Node 43, Type 0, BuildingBlock: OLANEW_clean_sbu_2, # of connection points: 3
#     Node 44, Type 0, BuildingBlock: OLANEW_clean_sbu_2, # of connection points: 3
#     Node 45, Type 0, BuildingBlock: OLANEW_clean_sbu_2, # of connection points: 3
#     Node 46, Type 0, BuildingBlock: OLANEW_clean_sbu_2, # of connection points: 3
#     Node 47, Type 0, BuildingBlock: OLANEW_clean_sbu_2, # of connection points: 3
#     Node 48, Type 1, BuildingBlock: ESEHIV_clean_linker_0, # of connection points: 3
#     Node 49, Type 1, BuildingBlock: ESEHIV_clean_linker_0, # of connection points: 3
#     Node 50, Type 1, BuildingBlock: ESEHIV_clean_linker_0, # of connection points: 3
#     Node 51, Type 1, BuildingBlock: ESEHIV_clean_linker_0, # of connection points: 3
#     Node 52, Type 1, BuildingBlock: ESEHIV_clean_linker_0, # of connection points: 3
#     Node 53, Type 1, BuildingBlock: ESEHIV_clean_linker_0, # of connection points: 3
#     Node 54, Type 1, BuildingBlock: ESEHIV_clean_linker_0, # of connection points: 3
#     Node 55, Type 1, BuildingBlock: ESEHIV_clean_linker_0, # of connection points: 3
#     Node 56, Type 1, BuildingBlock: ESEHIV_clean_linker_0, # of connection points: 3
#     Node 57, Type 1, BuildingBlock: ESEHIV_clean_linker_0, # of connection points: 3
#     Node 58, Type 1, BuildingBlock: ESEHIV_clean_linker_0, # of connection points: 3
#     Node 59, Type 1, BuildingBlock: ESEHIV_clean_linker_0, # of connection points: 3
#     Node 60, Type 1, BuildingBlock: ESEHIV_clean_linker_0, # of connection points: 3
#     Node 61, Type 1, BuildingBlock: ESEHIV_clean_linker_0, # of connection points: 3
#     Node 62, Type 1, BuildingBlock: ESEHIV_clean_linker_0, # of connection points: 3
#     Node 63, Type 1, BuildingBlock: ESEHIV_clean_linker_0, # of connection points: 3
#     Node 64, Type 1, BuildingBlock: ESEHIV_clean_linker_0, # of connection points: 3
#     Node 65, Type 1, BuildingBlock: ESEHIV_clean_linker_0, # of connection points: 3
#     Node 66, Type 1, BuildingBlock: ESEHIV_clean_linker_0, # of connection points: 3
#     Node 67, Type 1, BuildingBlock: ESEHIV_clean_linker_0, # of connection points: 3
#     Node 68, Type 1, BuildingBlock: ESEHIV_clean_linker_0, # of connection points: 3
#     Node 69, Type 1, BuildingBlock: ESEHIV_clean_linker_0, # of connection points: 3
#     Node 70, Type 1, BuildingBlock: ESEHIV_clean_linker_0, # of connection points: 3
#     Node 71, Type 1, BuildingBlock: ESEHIV_clean_linker_0, # of connection points: 3
#     Node 72, Type 1, BuildingBlock: ESEHIV_clean_linker_0, # of connection points: 3
#     Node 73, Type 1, BuildingBlock: ESEHIV_clean_linker_0, # of connection points: 3
#     Node 74, Type 1, BuildingBlock: ESEHIV_clean_linker_0, # of connection points: 3
#     Node 75, Type 1, BuildingBlock: ESEHIV_clean_linker_0, # of connection points: 3
#     Node 76, Type 1, BuildingBlock: ESEHIV_clean_linker_0, # of connection points: 3
#     Node 77, Type 1, BuildingBlock: ESEHIV_clean_linker_0, # of connection points: 3
#     Node 78, Type 1, BuildingBlock: ESEHIV_clean_linker_0, # of connection points: 3
#     Node 79, Type 1, BuildingBlock: ESEHIV_clean_linker_0, # of connection points: 3
#     Node 80, Type 1, BuildingBlock: ESEHIV_clean_linker_0, # of connection points: 3
#     Node 81, Type 1, BuildingBlock: ESEHIV_clean_linker_0, # of connection points: 3
#     Node 82, Type 1, BuildingBlock: ESEHIV_clean_linker_0, # of connection points: 3
#     Node 83, Type 1, BuildingBlock: ESEHIV_clean_linker_0, # of connection points: 3
#     Node 84, Type 1, BuildingBlock: ESEHIV_clean_linker_0, # of connection points: 3
#     Node 85, Type 1, BuildingBlock: ESEHIV_clean_linker_0, # of connection points: 3
#     Node 86, Type 1, BuildingBlock: ESEHIV_clean_linker_0, # of connection points: 3
#     Node 87, Type 1, BuildingBlock: ESEHIV_clean_linker_0, # of connection points: 3
#     Node 88, Type 1, BuildingBlock: ESEHIV_clean_linker_0, # of connection points: 3
#     Node 89, Type 1, BuildingBlock: ESEHIV_clean_linker_0, # of connection points: 3
#     Node 90, Type 1, BuildingBlock: ESEHIV_clean_linker_0, # of connection points: 3
#     Node 91, Type 1, BuildingBlock: ESEHIV_clean_linker_0, # of connection points: 3
#     Node 92, Type 1, BuildingBlock: ESEHIV_clean_linker_0, # of connection points: 3
#     Node 93, Type 1, BuildingBlock: ESEHIV_clean_linker_0, # of connection points: 3
#     Node 94, Type 1, BuildingBlock: ESEHIV_clean_linker_0, # of connection points: 3
#     Node 95, Type 1, BuildingBlock: ESEHIV_clean_linker_0, # of connection points: 3
#     Edge 96, Type (0, 1), BuildingBlock: XIVTED_clean_linker_0, # of connection points: 2
#     Edge 97, Type (0, 1), BuildingBlock: XIVTED_clean_linker_0, # of connection points: 2
#     Edge 98, Type (0, 1), BuildingBlock: XIVTED_clean_linker_0, # of connection points: 2
#     Edge 99, Type (0, 1), BuildingBlock: XIVTED_clean_linker_0, # of connection points: 2
#     Edge 100, Type (0, 1), BuildingBlock: XIVTED_clean_linker_0, # of connection points: 2
#     Edge 101, Type (0, 1), BuildingBlock: XIVTED_clean_linker_0, # of connection points: 2
#     Edge 102, Type (0, 1), BuildingBlock: XIVTED_clean_linker_0, # of connection points: 2
#     Edge 103, Type (0, 1), BuildingBlock: XIVTED_clean_linker_0, # of connection points: 2
#     Edge 104, Type (0, 1), BuildingBlock: XIVTED_clean_linker_0, # of connection points: 2
#     Edge 105, Type (0, 1), BuildingBlock: XIVTED_clean_linker_0, # of connection points: 2
#     Edge 106, Type (0, 1), BuildingBlock: XIVTED_clean_linker_0, # of connection points: 2
#     Edge 107, Type (0, 1), BuildingBlock: XIVTED_clean_linker_0, # of connection points: 2
#     Edge 108, Type (0, 1), BuildingBlock: XIVTED_clean_linker_0, # of connection points: 2
#     Edge 109, Type (0, 1), BuildingBlock: XIVTED_clean_linker_0, # of connection points: 2
#     Edge 110, Type (0, 1), BuildingBlock: XIVTED_clean_linker_0, # of connection points: 2
#     Edge 111, Type (0, 1), BuildingBlock: XIVTED_clean_linker_0, # of connection points: 2
#     Edge 112, Type (0, 1), BuildingBlock: XIVTED_clean_linker_0, # of connection points: 2
#     Edge 113, Type (0, 1), BuildingBlock: XIVTED_clean_linker_0, # of connection points: 2
#     Edge 114, Type (0, 1), BuildingBlock: XIVTED_clean_linker_0, # of connection points: 2
#     Edge 115, Type (0, 1), BuildingBlock: XIVTED_clean_linker_0, # of connection points: 2
#     Edge 116, Type (0, 1), BuildingBlock: XIVTED_clean_linker_0, # of connection points: 2
#     Edge 117, Type (0, 1), BuildingBlock: XIVTED_clean_linker_0, # of connection points: 2
#     Edge 118, Type (0, 1), BuildingBlock: XIVTED_clean_linker_0, # of connection points: 2
#     Edge 119, Type (0, 1), BuildingBlock: XIVTED_clean_linker_0, # of connection points: 2
#     Edge 120, Type (0, 1), BuildingBlock: XIVTED_clean_linker_0, # of connection points: 2
#     Edge 121, Type (0, 1), BuildingBlock: XIVTED_clean_linker_0, # of connection points: 2
#     Edge 122, Type (0, 1), BuildingBlock: XIVTED_clean_linker_0, # of connection points: 2
#     Edge 123, Type (0, 1), BuildingBlock: XIVTED_clean_linker_0, # of connection points: 2
#     Edge 124, Type (0, 1), BuildingBlock: XIVTED_clean_linker_0, # of connection points: 2
#     Edge 125, Type (0, 1), BuildingBlock: XIVTED_clean_linker_0, # of connection points: 2
#     Edge 126, Type (0, 1), BuildingBlock: XIVTED_clean_linker_0, # of connection points: 2
#     Edge 127, Type (0, 1), BuildingBlock: XIVTED_clean_linker_0, # of connection points: 2
#     Edge 128, Type (0, 1), BuildingBlock: XIVTED_clean_linker_0, # of connection points: 2
#     Edge 129, Type (0, 1), BuildingBlock: XIVTED_clean_linker_0, # of connection points: 2
#     Edge 130, Type (0, 1), BuildingBlock: XIVTED_clean_linker_0, # of connection points: 2
#     Edge 131, Type (0, 1), BuildingBlock: XIVTED_clean_linker_0, # of connection points: 2
#     Edge 132, Type (0, 1), BuildingBlock: XIVTED_clean_linker_0, # of connection points: 2
#     Edge 133, Type (0, 1), BuildingBlock: XIVTED_clean_linker_0, # of connection points: 2
#     Edge 134, Type (0, 1), BuildingBlock: XIVTED_clean_linker_0, # of connection points: 2
#     Edge 135, Type (0, 1), BuildingBlock: XIVTED_clean_linker_0, # of connection points: 2
#     Edge 136, Type (0, 1), BuildingBlock: XIVTED_clean_linker_0, # of connection points: 2
#     Edge 137, Type (0, 1), BuildingBlock: XIVTED_clean_linker_0, # of connection points: 2
#     Edge 138, Type (0, 1), BuildingBlock: XIVTED_clean_linker_0, # of connection points: 2
#     Edge 139, Type (0, 1), BuildingBlock: XIVTED_clean_linker_0, # of connection points: 2
#     Edge 140, Type (0, 1), BuildingBlock: XIVTED_clean_linker_0, # of connection points: 2
#     Edge 141, Type (0, 1), BuildingBlock: XIVTED_clean_linker_0, # of connection points: 2
#     Edge 142, Type (0, 1), BuildingBlock: XIVTED_clean_linker_0, # of connection points: 2
#     Edge 143, Type (0, 1), BuildingBlock: XIVTED_clean_linker_0, # of connection points: 2
#     Edge 144, Type (0, 1), BuildingBlock: XIVTED_clean_linker_0, # of connection points: 2
#     Edge 145, Type (0, 1), BuildingBlock: XIVTED_clean_linker_0, # of connection points: 2
#     Edge 146, Type (0, 1), BuildingBlock: XIVTED_clean_linker_0, # of connection points: 2
#     Edge 147, Type (0, 1), BuildingBlock: XIVTED_clean_linker_0, # of connection points: 2
#     Edge 148, Type (0, 1), BuildingBlock: XIVTED_clean_linker_0, # of connection points: 2
#     Edge 149, Type (0, 1), BuildingBlock: XIVTED_clean_linker_0, # of connection points: 2
#     Edge 150, Type (0, 1), BuildingBlock: XIVTED_clean_linker_0, # of connection points: 2
#     Edge 151, Type (0, 1), BuildingBlock: XIVTED_clean_linker_0, # of connection points: 2
#     Edge 152, Type (0, 1), BuildingBlock: XIVTED_clean_linker_0, # of connection points: 2
#     Edge 153, Type (0, 1), BuildingBlock: XIVTED_clean_linker_0, # of connection points: 2
#     Edge 154, Type (0, 1), BuildingBlock: XIVTED_clean_linker_0, # of connection points: 2
#     Edge 155, Type (0, 1), BuildingBlock: XIVTED_clean_linker_0, # of connection points: 2
#     Edge 156, Type (0, 1), BuildingBlock: XIVTED_clean_linker_0, # of connection points: 2
#     Edge 157, Type (0, 1), BuildingBlock: XIVTED_clean_linker_0, # of connection points: 2
#     Edge 158, Type (0, 1), BuildingBlock: XIVTED_clean_linker_0, # of connection points: 2
#     Edge 159, Type (0, 1), BuildingBlock: XIVTED_clean_linker_0, # of connection points: 2
#     Edge 160, Type (0, 1), BuildingBlock: XIVTED_clean_linker_0, # of connection points: 2
#     Edge 161, Type (0, 1), BuildingBlock: XIVTED_clean_linker_0, # of connection points: 2
#     Edge 162, Type (0, 1), BuildingBlock: XIVTED_clean_linker_0, # of connection points: 2
#     Edge 163, Type (0, 1), BuildingBlock: XIVTED_clean_linker_0, # of connection points: 2
#     Edge 164, Type (0, 1), BuildingBlock: XIVTED_clean_linker_0, # of connection points: 2
#     Edge 165, Type (0, 1), BuildingBlock: XIVTED_clean_linker_0, # of connection points: 2
#     Edge 166, Type (0, 1), BuildingBlock: XIVTED_clean_linker_0, # of connection points: 2
#     Edge 167, Type (0, 1), BuildingBlock: XIVTED_clean_linker_0, # of connection points: 2
#     Edge 168, Type (0, 1), BuildingBlock: XIVTED_clean_linker_0, # of connection points: 2
#     Edge 169, Type (0, 1), BuildingBlock: XIVTED_clean_linker_0, # of connection points: 2
#     Edge 170, Type (0, 1), BuildingBlock: XIVTED_clean_linker_0, # of connection points: 2
#     Edge 171, Type (0, 1), BuildingBlock: XIVTED_clean_linker_0, # of connection points: 2
#     Edge 172, Type (0, 1), BuildingBlock: XIVTED_clean_linker_0, # of connection points: 2
#     Edge 173, Type (0, 1), BuildingBlock: XIVTED_clean_linker_0, # of connection points: 2
#     Edge 174, Type (0, 1), BuildingBlock: XIVTED_clean_linker_0, # of connection points: 2
#     Edge 175, Type (0, 1), BuildingBlock: XIVTED_clean_linker_0, # of connection points: 2
#     Edge 176, Type (0, 1), BuildingBlock: XIVTED_clean_linker_0, # of connection points: 2
#     Edge 177, Type (0, 1), BuildingBlock: XIVTED_clean_linker_0, # of connection points: 2
#     Edge 178, Type (0, 1), BuildingBlock: XIVTED_clean_linker_0, # of connection points: 2
#     Edge 179, Type (0, 1), BuildingBlock: XIVTED_clean_linker_0, # of connection points: 2
#     Edge 180, Type (0, 1), BuildingBlock: XIVTED_clean_linker_0, # of connection points: 2
#     Edge 181, Type (0, 1), BuildingBlock: XIVTED_clean_linker_0, # of connection points: 2
#     Edge 182, Type (0, 1), BuildingBlock: XIVTED_clean_linker_0, # of connection points: 2
#     Edge 183, Type (0, 1), BuildingBlock: XIVTED_clean_linker_0, # of connection points: 2
#     Edge 184, Type (0, 1), BuildingBlock: XIVTED_clean_linker_0, # of connection points: 2
#     Edge 185, Type (0, 1), BuildingBlock: XIVTED_clean_linker_0, # of connection points: 2
#     Edge 186, Type (0, 1), BuildingBlock: XIVTED_clean_linker_0, # of connection points: 2
#     Edge 187, Type (0, 1), BuildingBlock: XIVTED_clean_linker_0, # of connection points: 2
#     Edge 188, Type (0, 1), BuildingBlock: XIVTED_clean_linker_0, # of connection points: 2
#     Edge 189, Type (0, 1), BuildingBlock: XIVTED_clean_linker_0, # of connection points: 2
#     Edge 190, Type (0, 1), BuildingBlock: XIVTED_clean_linker_0, # of connection points: 2
#     Edge 191, Type (0, 1), BuildingBlock: XIVTED_clean_linker_0, # of connection points: 2
#     Edge 192, Type (0, 1), BuildingBlock: XIVTED_clean_linker_0, # of connection points: 2
#     Edge 193, Type (0, 1), BuildingBlock: XIVTED_clean_linker_0, # of connection points: 2
#     Edge 194, Type (0, 1), BuildingBlock: XIVTED_clean_linker_0, # of connection points: 2
#     Edge 195, Type (0, 1), BuildingBlock: XIVTED_clean_linker_0, # of connection points: 2
#     Edge 196, Type (0, 1), BuildingBlock: XIVTED_clean_linker_0, # of connection points: 2
#     Edge 197, Type (0, 1), BuildingBlock: XIVTED_clean_linker_0, # of connection points: 2
#     Edge 198, Type (0, 1), BuildingBlock: XIVTED_clean_linker_0, # of connection points: 2
#     Edge 199, Type (0, 1), BuildingBlock: XIVTED_clean_linker_0, # of connection points: 2
#     Edge 200, Type (0, 1), BuildingBlock: XIVTED_clean_linker_0, # of connection points: 2
#     Edge 201, Type (0, 1), BuildingBlock: XIVTED_clean_linker_0, # of connection points: 2
#     Edge 202, Type (0, 1), BuildingBlock: XIVTED_clean_linker_0, # of connection points: 2
#     Edge 203, Type (0, 1), BuildingBlock: XIVTED_clean_linker_0, # of connection points: 2
#     Edge 204, Type (0, 1), BuildingBlock: XIVTED_clean_linker_0, # of connection points: 2
#     Edge 205, Type (0, 1), BuildingBlock: XIVTED_clean_linker_0, # of connection points: 2
#     Edge 206, Type (0, 1), BuildingBlock: XIVTED_clean_linker_0, # of connection points: 2
#     Edge 207, Type (0, 1), BuildingBlock: XIVTED_clean_linker_0, # of connection points: 2
#     Edge 208, Type (0, 1), BuildingBlock: XIVTED_clean_linker_0, # of connection points: 2
#     Edge 209, Type (0, 1), BuildingBlock: XIVTED_clean_linker_0, # of connection points: 2
#     Edge 210, Type (0, 1), BuildingBlock: XIVTED_clean_linker_0, # of connection points: 2
#     Edge 211, Type (0, 1), BuildingBlock: XIVTED_clean_linker_0, # of connection points: 2
#     Edge 212, Type (0, 1), BuildingBlock: XIVTED_clean_linker_0, # of connection points: 2
#     Edge 213, Type (0, 1), BuildingBlock: XIVTED_clean_linker_0, # of connection points: 2
#     Edge 214, Type (0, 1), BuildingBlock: XIVTED_clean_linker_0, # of connection points: 2
#     Edge 215, Type (0, 1), BuildingBlock: XIVTED_clean_linker_0, # of connection points: 2
#     Edge 216, Type (0, 1), BuildingBlock: XIVTED_clean_linker_0, # of connection points: 2
#     Edge 217, Type (0, 1), BuildingBlock: XIVTED_clean_linker_0, # of connection points: 2
#     Edge 218, Type (0, 1), BuildingBlock: XIVTED_clean_linker_0, # of connection points: 2
#     Edge 219, Type (0, 1), BuildingBlock: XIVTED_clean_linker_0, # of connection points: 2
#     Edge 220, Type (0, 1), BuildingBlock: XIVTED_clean_linker_0, # of connection points: 2
#     Edge 221, Type (0, 1), BuildingBlock: XIVTED_clean_linker_0, # of connection points: 2
#     Edge 222, Type (0, 1), BuildingBlock: XIVTED_clean_linker_0, # of connection points: 2
#     Edge 223, Type (0, 1), BuildingBlock: XIVTED_clean_linker_0, # of connection points: 2
#     Edge 224, Type (0, 1), BuildingBlock: XIVTED_clean_linker_0, # of connection points: 2
#     Edge 225, Type (0, 1), BuildingBlock: XIVTED_clean_linker_0, # of connection points: 2
#     Edge 226, Type (0, 1), BuildingBlock: XIVTED_clean_linker_0, # of connection points: 2
#     Edge 227, Type (0, 1), BuildingBlock: XIVTED_clean_linker_0, # of connection points: 2
#     Edge 228, Type (0, 1), BuildingBlock: XIVTED_clean_linker_0, # of connection points: 2
#     Edge 229, Type (0, 1), BuildingBlock: XIVTED_clean_linker_0, # of connection points: 2
#     Edge 230, Type (0, 1), BuildingBlock: XIVTED_clean_linker_0, # of connection points: 2
#     Edge 231, Type (0, 1), BuildingBlock: XIVTED_clean_linker_0, # of connection points: 2
#     Edge 232, Type (0, 1), BuildingBlock: XIVTED_clean_linker_0, # of connection points: 2
#     Edge 233, Type (0, 1), BuildingBlock: XIVTED_clean_linker_0, # of connection points: 2
#     Edge 234, Type (0, 1), BuildingBlock: XIVTED_clean_linker_0, # of connection points: 2
#     Edge 235, Type (0, 1), BuildingBlock: XIVTED_clean_linker_0, # of connection points: 2
#     Edge 236, Type (0, 1), BuildingBlock: XIVTED_clean_linker_0, # of connection points: 2
#     Edge 237, Type (0, 1), BuildingBlock: XIVTED_clean_linker_0, # of connection points: 2
#     Edge 238, Type (0, 1), BuildingBlock: XIVTED_clean_linker_0, # of connection points: 2
#     Edge 239, Type (0, 1), BuildingBlock: XIVTED_clean_linker_0, # of connection points: 2
# Relax obj value: 0.034
# Max RMSD: 0.085
# Mean RMSD: 0.047
data_MOF--net-bpr--node1-OLANEW_clean_sbu_2--node2-ESEHIV_clean_linker_0--edge1-XIVTED_clean_linker_0
_symmetry_space_group_name_H-M    P1
_symmetry_Int_Tables_number       1
_symmetry_cell_setting            triclinic
loop_
_symmetry_equiv_pos_as_xyz
'x, y, z'
_cell_length_a     78.587285
_cell_length_b     88.509271
_cell_length_c     83.803352
_cell_angle_alpha  90.184193
_cell_angle_beta   90.178622
_cell_angle_gamma 90.023832
loop_
_atom_site_label
_atom_site_type_symbol
_atom_site_fract_x
_atom_site_fract_y
_atom_site_fract_z
_atom_type_partial_charge
O0 O 0.05419 0.36844 0.27457 0.0
Cd1 Cd 0.03313 0.37264 0.25352 0.0
O2 O 0.04917 0.34412 0.27699 0.0
Cd3 Cd 0.0253 0.3466 0.26384 0.0
O4 O -0.00177 0.35233 0.2642 0.0
C5 C -0.00589 0.36504 0.27015 0.0
O6 O 0.00622 0.3743 0.27483 0.0
C7 C 0.05794 0.35571 0.28064 0.0
C8 C 0.04887 0.3732 0.22378 0.0
O9 O 0.04807 0.38507 0.23253 0.0
O10 O 0.04205 0.36103 0.229 0.0
O11 O 0.83464 0.77456 0.51956 0.0
Cd12 Cd 0.84592 0.75796 0.49882 0.0
O13 O 0.83135 0.75749 0.53834 0.0
Cd14 Cd 0.83859 0.73815 0.52364 0.0
O15 O 0.84256 0.71388 0.52088 0.0
C16 C 0.82991 0.70534 0.52368 0.0
O17 O 0.81512 0.71157 0.52686 0.0
C18 C 0.83054 0.77114 0.53375 0.0
C19 C 0.85538 0.7765 0.47351 0.0
O20 O 0.841 0.76967 0.47342 0.0
O21 O 0.8655 0.77414 0.48525 0.0
O22 O 0.43277 0.63176 0.78508 0.0
Cd23 Cd 0.45272 0.63217 0.76278 0.0
O24 O 0.41056 0.62457 0.77092 0.0
Cd25 Cd 0.42309 0.62505 0.74775 0.0
O26 O 0.42219 0.62467 0.72173 0.0
C27 C 0.41516 0.63574 0.71469 0.0
O28 O 0.40986 0.64726 0.72326 0.0
C29 C 0.41718 0.62803 0.7843 0.0
C30 C 0.48558 0.63129 0.77543 0.0
O31 O 0.47816 0.6439 0.77262 0.0
O32 O 0.47764 0.61909 0.77181 0.0
O33 O 0.63353 0.2286 0.02468 0.0
Cd34 Cd 0.6218 0.24477 0.00381 0.0
O35 O 0.65041 0.21641 0.00821 0.0
Cd36 Cd 0.63669 0.22353 0.98685 0.0
O37 O 0.62217 0.21304 0.9675 0.0
C38 C 0.61122 0.20332 0.97184 0.0
O39 O 0.60861 0.20137 0.98718 0.0
C40 C 0.64551 0.21922 0.02235 0.0
C41 C 0.62083 0.27402 0.01618 0.0
O42 O 0.60775 0.26539 0.01681 0.0
O43 O 0.63418 0.26901 0.0092 0.0
O44 O 0.03598 0.6206 0.21032 0.0
Cd45 Cd 0.01697 0.61037 0.23059 0.0
O46 O 0.01889 0.63924 0.20377 0.0
Cd47 Cd -0.00205 0.63035 0.21799 0.0
O48 O 0.9727 0.62014 0.21751 0.0
C49 C 0.97115 0.60626 0.21382 0.0
O50 O 0.98495 0.59806 0.21199 0.0
C51 C 0.03302 0.63242 0.2022 0.0
C52 C 0.03202 0.61326 0.26057 0.0
O53 O 0.0351 0.60184 0.25159 0.0
O54 O 0.02157 0.62327 0.25547 0.0
O55 O 0.62153 0.7634 0.44227 0.0
Cd56 Cd 0.61975 0.74983 0.4676 0.0
O57 O 0.64948 0.76395 0.44342 0.0
Cd58 Cd 0.64866 0.7602 0.46914 0.0
O59 O 0.64025 0.7712 0.49113 0.0
C60 C 0.62872 0.78104 0.48887 0.0
O61 O 0.62287 0.78299 0.47431 0.0
C62 C 0.63575 0.76612 0.43566 0.0
C63 C 0.62423 0.71934 0.46046 0.0
O64 O 0.60931 0.72508 0.46165 0.0
O65 O 0.63705 0.72791 0.46325 0.0
O66 O 0.42965 0.36144 0.72565 0.0
Cd67 Cd 0.45316 0.36397 0.74476 0.0
O68 O 0.43538 0.33765 0.72027 0.0
Cd69 Cd 0.46042 0.34014 0.73127 0.0
O70 O 0.4837 0.35188 0.72433 0.0
C71 C 0.48095 0.36286 0.71492 0.0
O72 O 0.46512 0.36625 0.71131 0.0
C73 C 0.42584 0.34914 0.71857 0.0
C74 C 0.44201 0.36231 0.77625 0.0
O75 O 0.44369 0.37507 0.76923 0.0
O76 O 0.44562 0.3503 0.76837 0.0
O77 O 0.84593 0.22556 0.94952 0.0
Cd78 Cd 0.84715 0.24317 0.97206 0.0
O79 O 0.82172 0.21568 0.9574 0.0
Cd80 Cd 0.82461 0.22431 0.98168 0.0
O81 O 0.83025 0.21543 0.0054 0.0
C82 C 0.81846 0.2081 0.01225 0.0
O83 O 0.80336 0.20762 0.00549 0.0
C84 C 0.83332 0.21687 0.94694 0.0
C85 C 0.84813 0.27266 0.9604 0.0
O86 O 0.86185 0.26535 0.9634 0.0
O87 O 0.83391 0.26613 0.96324 0.0
O88 O 0.25863 0.03397 0.35605 0.0
Cd89 Cd 0.23924 0.01236 0.35486 0.0
O90 O 0.2547 0.03895 0.38148 0.0
Cd91 Cd 0.23133 0.02561 0.3812 0.0
O92 O 0.20393 0.02711 0.37705 0.0
C93 C 0.19887 0.03089 0.3632 0.0
O94 O 0.21018 0.03242 0.3518 0.0
C95 C 0.26262 0.04138 0.36854 0.0
C96 C 0.25797 0.98581 0.35852 0.0
O97 O 0.25696 -0.00751 0.34501 0.0
O98 O 0.24985 -0.00851 0.37034 0.0
O99 O 0.2071 0.01933 0.61888 0.0
Cd100 Cd 0.22873 -0.00046 0.62003 0.0
O101 O 0.20526 0.01809 0.59273 0.0
Cd102 Cd 0.22994 0.0069 0.59127 0.0
O103 O 0.25615 0.01496 0.59177 0.0
C104 C 0.26747 0.01123 0.60189 0.0
O105 O 0.26413 0.0006 0.61232 0.0
C106 C 0.19977 0.02317 0.60596 0.0
C107 C 0.21253 0.97169 0.6165 0.0
O108 O 0.21515 0.97743 0.63035 0.0
O109 O 0.21798 0.97894 0.60433 0.0
O110 O 0.20038 0.95159 0.85931 0.0
Cd111 Cd 0.22429 0.9691 0.86173 0.0
O112 O 0.18003 0.96866 0.8591 0.0
Cd113 Cd 0.19642 0.98847 0.86144 0.0
O114 O 0.1985 0.01295 0.86409 0.0
C115 C 0.19566 0.01887 0.87766 0.0
O116 O 0.19297 0.00997 0.88992 0.0
C117 C 0.18467 0.95492 0.85859 0.0
C118 C 0.2538 0.95179 0.85954 0.0
O119 O 0.24613 0.95363 0.87288 0.0
O120 O 0.24788 0.95863 0.84725 0.0
O121 O 0.29351 0.95726 0.12467 0.0
Cd122 Cd 0.27235 0.97753 0.12436 0.0
O123 O 0.28808 0.95027 0.09998 0.0
Cd124 Cd 0.26415 0.96277 0.10002 0.0
O125 O 0.23707 0.96262 0.1058 0.0
C126 C 0.23294 0.95944 0.12006 0.0
O127 O 0.24505 0.9575 0.1307 0.0
C128 C 0.29706 0.94916 0.11256 0.0
C129 C 0.28875 0.00543 0.12306 0.0
O130 O 0.28497 -0.00066 0.13644 0.0
O131 O 0.28452 -0.00156 0.11023 0.0
O132 O 0.3475 0.26533 0.03553 0.0
Cd133 Cd 0.35177 0.24807 0.01309 0.0
O134 O 0.37472 0.26517 0.04158 0.0
Cd135 Cd 0.37787 0.24333 0.02982 0.0
O136 O 0.37552 0.21984 0.03741 0.0
C137 C 0.37004 0.21883 0.05163 0.0
O138 O 0.36633 0.23134 0.05937 0.0
C139 C 0.35995 0.27076 0.04341 0.0
C140 C 0.35795 0.26603 0.9864 0.0
O141 O 0.34282 0.26192 0.99007 0.0
O142 O 0.37027 0.26121 -0.00495 0.0
O143 O 0.9424 0.8793 0.22119 0.0
Cd144 Cd 0.96357 0.88387 0.24206 0.0
O145 O 0.94894 0.85519 0.21971 0.0
Cd146 Cd 0.97337 0.85896 0.23153 0.0
O147 O 0.0001 0.86459 0.22754 0.0
C148 C 0.00374 0.87781 0.22273 0.0
O149 O -0.00848 0.88788 0.22161 0.0
C150 C 0.93932 0.86613 0.21579 0.0
C151 C 0.94806 0.8817 0.27182 0.0
O152 O 0.9497 0.89449 0.26486 0.0
O153 O 0.95402 0.86995 0.26482 0.0
O154 O 0.12367 0.72311 0.53624 0.0
Cd155 Cd 0.11736 0.73947 0.51353 0.0
O156 O 0.14612 0.71322 0.52462 0.0
Cd157 Cd 0.1391 0.722 0.50122 0.0
O158 O 0.12775 0.71531 0.47849 0.0
C159 C 0.11476 0.70683 0.47963 0.0
O160 O 0.1087 0.70394 0.4939 0.0
C161 C 0.13669 0.71461 0.53684 0.0
C162 C 0.11748 0.76932 0.52416 0.0
O163 O 0.1036 0.76173 0.52333 0.0
O164 O 0.13124 0.7629 0.51957 0.0
O165 O 0.97015 0.59393 0.67717 0.0
Cd166 Cd -0.01159 0.59459 0.70087 0.0
O167 O 0.9651 0.61837 0.6779 0.0
Cd168 Cd 0.9761 0.62111 0.70165 0.0
O169 O 0.97382 0.62296 0.72753 0.0
C170 C 0.96861 0.61146 0.73512 0.0
O171 O 0.9659 0.59881 0.72726 0.0
C172 C 0.96346 0.60564 0.671 0.0
C173 C 0.02187 0.60156 0.6927 0.0
O174 O 0.01671 0.58782 0.69315 0.0
O175 O 0.01123 0.612 0.69626 0.0
O176 O 0.10735 0.20675 0.4557 0.0
Cd177 Cd 0.11457 0.22366 0.47786 0.0
O178 O 0.13155 0.19465 0.45904 0.0
Cd179 Cd 0.14303 0.21493 0.46928 0.0
O180 O 0.15044 0.23776 0.46243 0.0
C181 C 0.15607 0.2388 0.44827 0.0
O182 O 0.15774 0.22639 0.43977 0.0
C183 C 0.11681 0.19541 0.45277 0.0
C184 C 0.11296 0.20641 0.50566 0.0
O185 O 0.10038 0.21472 0.50146 0.0
O186 O 0.12641 0.20669 0.49707 0.0
O187 O 0.51389 0.35284 0.20132 0.0
Cd188 Cd 0.49285 0.34968 0.22244 0.0
O189 O 0.51319 0.37764 0.20306 0.0
Cd190 Cd 0.48911 0.37723 0.21593 0.0
O191 O 0.46145 0.37599 0.21403 0.0
C192 C 0.45347 0.38774 0.2096 0.0
O193 O 0.46199 0.40039 0.20776 0.0
C194 C 0.51985 0.36567 0.19743 0.0
C195 C 0.51034 0.3516 0.25137 0.0
O196 O 0.50793 0.33882 0.24448 0.0
O197 O 0.50398 0.36339 0.24484 0.0
O198 O 0.34244 0.77591 0.95854 0.0
Cd199 Cd 0.3408 0.75992 0.98223 0.0
O200 O 0.37037 0.77488 0.95728 0.0
Cd201 Cd 0.37219 0.76602 0.98148 0.0
O202 O 0.37368 0.77073 0.007 0.0
C203 C 0.38795 0.77457 0.01292 0.0
O204 O 0.40148 0.77435 0.00375 0.0
C205 C 0.35621 0.77891 0.95127 0.0
C206 C 0.33987 0.72987 0.97219 0.0
O207 O 0.32611 0.73738 0.97427 0.0
O208 O 0.35403 0.73646 0.97527 0.0
O209 O 0.95852 0.37779 0.77437 0.0
Cd210 Cd 0.98165 0.37913 0.75499 0.0
O211 O 0.96923 0.3578 0.78623 0.0
Cd212 Cd -0.00697 0.35863 0.77295 0.0
O213 O 0.02054 0.36144 0.77168 0.0
C214 C 0.03014 0.3499 0.7714 0.0
O215 O 0.02318 0.33642 0.77058 0.0
C216 C 0.9574 0.3675 0.78487 0.0
C217 C 0.96828 0.37528 0.72446 0.0
O218 O 0.97315 0.3639 0.7327 0.0
O219 O 0.97008 0.38849 0.73055 0.0
O220 O 0.36513 0.19881 0.52648 0.0
Cd221 Cd 0.36392 0.21905 0.50679 0.0
O222 O 0.39302 0.19707 0.52574 0.0
Cd223 Cd 0.39346 0.20898 0.503 0.0
O224 O 0.38914 0.20611 0.47743 0.0
C225 C 0.40098 0.20044 0.46905 0.0
O226 O 0.41581 0.19782 0.47579 0.0
C227 C 0.37892 0.1934 0.53203 0.0
C228 C 0.36059 0.24623 0.52338 0.0
O229 O 0.34746 0.23901 0.51839 0.0
O230 O 0.3753 0.24081 0.52013 0.0
O231 O 0.50704 0.62837 0.29746 0.0
Cd232 Cd 0.48472 0.63073 0.27737 0.0
O233 O 0.51125 0.60437 0.29173 0.0
Cd234 Cd 0.48562 0.60221 0.28172 0.0
O235 O 0.45811 0.59941 0.28417 0.0
C236 C 0.4473 0.60899 0.27917 0.0
O237 O 0.45258 0.6208 0.27114 0.0
C238 C 0.51589 0.61642 0.29883 0.0
C239 C 0.49977 0.62797 0.24735 0.0
O240 O 0.49838 0.64089 0.25417 0.0
O241 O 0.49362 0.61645 0.25452 0.0
O242 O 0.11557 0.80684 0.02528 0.0
Cd243 Cd 0.11434 0.78786 0.00411 0.0
O244 O 0.08768 0.8068 0.02756 0.0
Cd245 Cd 0.0844 0.7958 0.00443 0.0
O246 O 0.0849 0.79661 0.97842 0.0
C247 C 0.07134 0.79965 0.97078 0.0
O248 O 0.05702 0.80107 0.9787 0.0
C249 C 0.10222 0.81098 0.03266 0.0
C250 C 0.11474 0.75981 0.01899 0.0
O251 O 0.12829 0.76517 0.01269 0.0
O252 O 0.10096 0.76745 0.0178 0.0
O253 O 0.65669 -0.00809 0.52798 0.0
Cd254 Cd 0.67251 0.01378 0.51846 0.0
O255 O 0.67524 0.99027 0.54743 0.0
Cd256 Cd 0.68855 0.97886 0.56693 0.0
O257 O 0.70571 0.96462 0.58082 0.0
C258 C 0.72015 0.96209 0.5746 0.0
O259 O 0.72375 0.9684 0.56084 0.0
C260 C 0.66204 0.98521 0.5404 0.0
C261 C 0.66187 0.0401 0.53365 0.0
O262 O 0.6551 0.03581 0.52045 0.0
O263 O 0.67375 0.03195 0.53963 0.0
O264 O 0.78497 0.98274 0.4234 0.0
Cd265 Cd 0.76631 0.00407 0.42925 0.0
O266 O 0.7689 0.97777 0.40266 0.0
Cd267 Cd 0.75938 0.9635 0.38325 0.0
O268 O 0.7467 0.94565 0.36975 0.0
C269 C 0.74639 0.9327 0.37622 0.0
O270 O 0.75414 0.93085 0.39 0.0
C271 C 0.78173 0.97454 0.4113 0.0
C272 C 0.78182 0.03125 0.42118 0.0
O273 O 0.78338 0.02573 0.43523 0.0
O274 O 0.77279 0.02395 0.41098 0.0
O275 O 0.78794 -0.00607 0.04519 0.0
Cd276 Cd 0.76981 0.97193 0.04049 0.0
O277 O 0.77943 -0.00577 0.07013 0.0
Cd278 Cd 0.77669 0.00708 0.09233 0.0
O279 O 0.76888 0.02782 0.10445 0.0
C280 C 0.76931 0.03954 0.09574 0.0
O281 O 0.77477 0.03821 0.08101 0.0
C282 C 0.78833 -0.00013 0.05899 0.0
C283 C 0.7841 0.94585 0.05326 0.0
O284 O 0.78721 0.94986 0.03888 0.0
O285 O 0.77415 0.95416 0.0616 0.0
O286 O 0.68511 0.00494 0.89211 0.0
Cd287 Cd 0.71047 0.98977 0.88653 0.0
O288 O 0.69902 0.01952 0.90898 0.0
Cd289 Cd 0.72416 0.0113 0.90224 0.0
O290 O 0.74784 0.01963 0.89197 0.0
C291 C 0.75856 0.02595 0.90121 0.0
O292 O 0.75572 0.02584 0.91665 0.0
C293 C 0.68516 0.01568 0.90224 0.0
C294 C 0.70232 0.95984 0.87929 0.0
O295 O 0.70485 0.96406 0.89375 0.0
O296 O 0.70366 0.96977 0.86826 0.0
O297 O 0.5717 0.70154 0.97985 0.0
Cd298 Cd 0.56505 0.71523 0.00437 0.0
O299 O 0.59237 0.71709 0.97381 0.0
Cd300 Cd 0.61133 0.72781 0.95851 0.0
O301 O 0.62566 0.74408 0.9444 0.0
C302 C 0.63054 0.74119 0.93028 0.0
O303 O 0.62738 0.72779 0.92413 0.0
C304 C 0.58343 0.70554 0.97035 0.0
C305 C 0.56639 0.69584 0.0304 0.0
O306 O 0.55309 0.69657 0.02155 0.0
O307 O 0.57903 0.70441 0.02706 0.0
O308 O 0.03169 0.12932 0.76928 0.0
Cd309 Cd 0.00896 0.12743 0.74936 0.0
O310 O 0.01352 0.13274 0.78887 0.0
Cd311 Cd -0.00972 0.12922 0.77504 0.0
O312 O 0.9633 0.12352 0.77591 0.0
C313 C 0.95206 0.13382 0.77522 0.0
O314 O 0.95686 0.14779 0.77248 0.0
C315 C 0.02878 0.13181 0.78397 0.0
C316 C 0.02243 0.12603 0.71865 0.0
O317 O 0.01913 0.13877 0.72527 0.0
O318 O 0.01919 0.11397 0.7265 0.0
O319 O 0.85537 0.29455 0.44693 0.0
Cd320 Cd 0.85295 0.27765 0.4698 0.0
O321 O 0.8832 0.29216 0.44571 0.0
Cd322 Cd 0.88438 0.28235 0.46951 0.0
O323 O 0.884 0.28495 0.49538 0.0
C324 C 0.89754 0.28915 0.50244 0.0
O325 O 0.91156 0.2906 0.49408 0.0
C326 C 0.86935 0.2971 0.43981 0.0
C327 C 0.85316 0.24811 0.45819 0.0
O328 O 0.83914 0.25521 0.46032 0.0
O329 O 0.86704 0.25483 0.462 0.0
O330 O 0.54315 0.86013 0.74916 0.0
Cd331 Cd 0.52007 0.86646 0.73084 0.0
O332 O 0.52706 0.84835 0.7666 0.0
Cd333 Cd 0.50268 0.85392 0.75554 0.0
O334 O 0.4757 0.85858 0.75942 0.0
C335 C 0.46565 0.84748 0.76127 0.0
O336 O 0.47157 0.83371 0.75941 0.0
C337 C 0.54168 0.85263 0.76198 0.0
C338 C 0.53364 0.86834 0.70022 0.0
O339 O 0.53366 0.87978 0.70963 0.0
O340 O 0.52679 0.85606 0.70513 0.0
O341 O 0.93676 0.14573 0.26393 0.0
Cd342 Cd 0.95906 0.14515 0.24371 0.0
O343 O 0.93712 0.12097 0.2655 0.0
Cd344 Cd 0.946 0.11929 0.2409 0.0
O345 O 0.93743 0.11832 0.21609 0.0
C346 C 0.92324 0.11164 0.21421 0.0
O347 O 0.91585 0.10568 0.22675 0.0
C348 C 0.93264 0.13369 0.27119 0.0
C349 C -0.01146 0.13827 0.2608 0.0
O350 O 0.98324 0.1519 0.25951 0.0
O351 O 0.98041 0.12788 0.25329 0.0
O352 O 0.54255 0.1162 0.71093 0.0
Cd353 Cd 0.52151 0.10505 0.72879 0.0
O354 O 0.52957 0.13816 0.70959 0.0
Cd355 Cd 0.50701 0.12981 0.72185 0.0
O356 O 0.48075 0.12242 0.71857 0.0
C357 C 0.47786 0.10932 0.71292 0.0
O358 O 0.49073 0.10009 0.71065 0.0
C359 C 0.54208 0.12974 0.70593 0.0
C360 C 0.53284 0.10563 0.76029 0.0
O361 O 0.53678 0.09475 0.75088 0.0
O362 O 0.5234 0.11624 0.75484 0.0
O363 O 0.13215 0.279 0.95475 0.0
Cd364 Cd 0.12915 0.26228 0.97771 0.0
O365 O 0.15979 0.28129 0.95801 0.0
Cd366 Cd 0.15733 0.27434 0.98286 0.0
O367 O 0.14848 0.28272 0.00594 0.0
C368 C 0.13594 0.29175 0.00502 0.0
O369 O 0.12915 0.29432 0.99093 0.0
C370 C 0.14651 0.28346 0.94962 0.0
C371 C 0.12996 0.23293 0.96561 0.0
O372 O 0.11581 0.23986 0.96771 0.0
O373 O 0.14369 0.23968 0.96983 0.0
O374 O 0.32165 0.72428 0.4281 0.0
Cd375 Cd 0.32483 0.74363 0.44887 0.0
O376 O 0.31076 0.70846 0.44548 0.0
Cd377 Cd 0.31723 0.7211 0.46704 0.0
O378 O 0.32875 0.71412 0.48957 0.0
C379 C 0.33977 0.70372 0.48798 0.0
O380 O 0.34381 0.6993 0.47349 0.0
C381 C 0.31479 0.71162 0.4312 0.0
C382 C 0.32796 0.77263 0.43625 0.0
O383 O 0.34111 0.76454 0.43927 0.0
O384 O 0.31328 0.76699 0.43919 0.0
O385 O 0.78821 0.53318 0.87428 0.0
Cd386 Cd 0.76475 0.51506 0.87539 0.0
O387 O 0.77289 0.55364 0.87849 0.0
Cd388 Cd 0.74788 0.54299 0.8795 0.0
O389 O 0.72077 0.54809 0.87764 0.0
C390 C 0.71571 0.55385 0.86459 0.0
O391 O 0.7266 0.55518 0.8528 0.0
C392 C 0.78722 0.54743 0.876 0.0
C393 C 0.77853 0.48606 0.87729 0.0
O394 O 0.77683 0.4928 0.86387 0.0
O395 O 0.7733 0.49285 0.88988 0.0
O396 O 0.69326 0.52256 0.12762 0.0
Cd397 Cd 0.71823 0.50633 0.12498 0.0
O398 O 0.68926 0.52363 0.10166 0.0
Cd399 Cd 0.71498 0.51541 0.0969 0.0
O400 O 0.74195 0.52101 0.0949 0.0
C401 C 0.75395 0.51474 0.10265 0.0
O402 O 0.75054 0.50321 0.11194 0.0
C403 C 0.68422 0.52656 0.11575 0.0
C404 C 0.70724 0.4768 0.11951 0.0
O405 O 0.71024 0.4816 0.13369 0.0
O406 O 0.70987 0.48585 0.10787 0.0
O407 O 0.71342 0.46073 0.35746 0.0
Cd408 Cd 0.73488 0.48075 0.35701 0.0
O409 O 0.70555 0.46472 0.33264 0.0
Cd410 Cd 0.71708 0.48715 0.33331 0.0
O411 O 0.71473 0.51088 0.34022 0.0
C412 C 0.71127 0.51388 0.3547 0.0
O413 O 0.71039 0.50273 0.36498 0.0
C414 C 0.70489 0.45676 0.34523 0.0
C415 C 0.76641 0.46733 0.35162 0.0
O416 O 0.76104 0.46977 0.36582 0.0
O417 O 0.75707 0.47164 0.33993 0.0
O418 O 0.76966 0.45119 0.62484 0.0
Cd419 Cd 0.74911 0.47191 0.62478 0.0
O420 O 0.76568 0.44637 0.59934 0.0
Cd421 Cd 0.74169 0.45877 0.59944 0.0
O422 O 0.71446 0.45936 0.60448 0.0
C423 C 0.70969 0.45501 0.6182 0.0
O424 O 0.72131 0.45137 0.62882 0.0
C425 C 0.77392 0.44415 0.61221 0.0
C426 C 0.76625 0.4981 0.61578 0.0
O427 O 0.76481 0.49443 0.6305 0.0
O428 O 0.75916 0.48958 0.6053 0.0
O429 O 0.50969 0.09338 0.19206 0.0
Cd430 Cd 0.53511 0.09153 0.20877 0.0
O431 O 0.49841 0.10671 0.21131 0.0
Cd432 Cd 0.47795 0.11763 0.22464 0.0
O433 O 0.45972 0.1233 0.24328 0.0
C434 C 0.45372 0.11227 0.25113 0.0
O435 O 0.45844 0.0985 0.24728 0.0
C436 C 0.49709 0.10068 0.19756 0.0
C437 C 0.56424 0.1003 0.19243 0.0
O438 O 0.55926 0.08651 0.19233 0.0
O439 O 0.55544 0.10996 0.2003 0.0
O440 O 0.00242 0.87384 0.6969 0.0
Cd441 Cd 0.97934 0.87197 0.71622 0.0
O442 O 0.98602 0.87956 0.67648 0.0
Cd443 Cd 0.96214 0.87944 0.68971 0.0
O444 O 0.93446 0.88113 0.69066 0.0
C445 C 0.92518 0.86957 0.69288 0.0
O446 O 0.93249 0.85653 0.69588 0.0
C447 C 0.00072 0.87697 0.68219 0.0
C448 C -0.00604 0.86937 0.74641 0.0
O449 O -0.00946 0.85761 0.73804 0.0
O450 O -0.01001 0.88231 0.74068 0.0
O451 O 0.46656 0.85804 0.28241 0.0
Cd452 Cd 0.48962 0.85248 0.26371 0.0
O453 O 0.46406 0.88188 0.27537 0.0
Cd454 Cd 0.48922 0.88086 0.26451 0.0
O455 O 0.51639 0.87592 0.2659 0.0
C456 C 0.52592 0.8853 0.27319 0.0
O457 O 0.51925 0.89797 0.27846 0.0
C458 C 0.45862 0.87055 0.28315 0.0
C459 C 0.47607 0.85121 0.23289 0.0
O460 O 0.47671 0.83938 0.24165 0.0
O461 O 0.48223 0.86352 0.23854 0.0
O462 O 0.89519 0.69271 0.03622 0.0
Cd463 Cd 0.89782 0.71373 0.0176 0.0
O464 O 0.91004 0.67685 0.02157 0.0
Cd465 Cd 0.91316 0.6921 0.00141 0.0
O466 O 0.91339 0.69362 0.97547 0.0
C467 C 0.92645 0.68888 0.96809 0.0
O468 O 0.93985 0.68472 0.9764 0.0
C469 C 0.90174 0.67972 0.03421 0.0
C470 C 0.88944 0.74053 0.03325 0.0
O471 O 0.87806 0.7328 0.02587 0.0
O472 O 0.90481 0.7357 0.03298 0.0
O473 O 0.60261 0.30317 0.52294 0.0
Cd474 Cd 0.60783 0.28403 0.50255 0.0
O475 O 0.57479 0.3005 0.52354 0.0
Cd476 Cd 0.57577 0.2883 0.50092 0.0
O477 O 0.58158 0.29242 0.47587 0.0
C478 C 0.59052 0.30424 0.47398 0.0
O479 O 0.59541 0.31182 0.48671 0.0
C480 C 0.58832 0.30632 0.52921 0.0
C481 C 0.61047 0.25639 0.51809 0.0
O482 O 0.62337 0.26515 0.51678 0.0
O483 O 0.59641 0.26049 0.51163 0.0
O484 O 0.17679 0.49567 0.05252 0.0
Cd485 Cd 0.19506 0.51627 0.04353 0.0
O486 O 0.19709 0.49013 0.06941 0.0
Cd487 Cd 0.211 0.47583 0.08621 0.0
O488 O 0.22913 0.46052 0.09745 0.0
C489 C 0.24038 0.45497 0.0883 0.0
O490 O 0.24025 0.45874 0.07314 0.0
C491 C 0.18248 0.48726 0.06357 0.0
C492 C 0.18274 0.54433 0.05311 0.0
O493 O 0.17862 0.53866 0.03955 0.0
O494 O 0.19273 0.53672 0.06214 0.0
O495 O 0.27646 0.46328 0.91019 0.0
Cd496 Cd 0.25271 0.481 0.90705 0.0
O497 O 0.28862 0.46929 0.88747 0.0
Cd498 Cd 0.26437 0.47713 0.87799 0.0
O499 O 0.24381 0.46442 0.86668 0.0
C500 C 0.24889 0.45179 0.86124 0.0
O501 O 0.26515 0.44848 0.86237 0.0
C502 C 0.28907 0.46238 0.90074 0.0
C503 C 0.26436 0.51083 0.90626 0.0
O504 O 0.26146 0.50426 0.91958 0.0
O505 O 0.26154 0.50339 0.8934 0.0
O506 O 0.28559 0.50597 0.5557 0.0
Cd507 Cd 0.2678 0.48386 0.5504 0.0
O508 O 0.27452 0.50728 0.57963 0.0
Cd509 Cd 0.26865 0.51963 0.60155 0.0
O510 O 0.25404 0.53475 0.61686 0.0
C511 C 0.25755 0.54875 0.61753 0.0
O512 O 0.2708 0.55384 0.60967 0.0
C513 C 0.28452 0.51255 0.56915 0.0
C514 C 0.28235 0.45714 0.56138 0.0
O515 O 0.28521 0.46193 0.54722 0.0
O516 O 0.27264 0.46504 0.57039 0.0
O517 O 0.18585 0.50977 0.39008 0.0
Cd518 Cd 0.20995 0.49283 0.38569 0.0
O519 O 0.19707 0.51974 0.41179 0.0
Cd520 Cd 0.21278 0.49962 0.41469 0.0
O521 O 0.21119 0.47503 0.41497 0.0
C522 C 0.1964 0.47035 0.41856 0.0
O523 O 0.1847 0.48036 0.42227 0.0
C524 C 0.18577 0.51991 0.40088 0.0
C525 C 0.23672 0.51125 0.37583 0.0
O526 O 0.22661 0.50522 0.36561 0.0
O527 O 0.23459 0.50804 0.39058 0.0
H528 H 0.12733 0.38244 0.07537 0.0
H529 H 0.11293 0.40092 0.12078 0.0
H530 H 0.10249 0.35418 0.10969 0.0
C531 C 0.1214 0.38113 0.08695 0.0
C532 C 0.11457 0.36706 0.09117 0.0
C533 C 0.12121 0.3933 0.0977 0.0
C534 C 0.11373 0.39134 0.11274 0.0
C535 C 0.10686 0.37729 0.11728 0.0
C536 C 0.10753 0.36513 0.10641 0.0
H537 H 0.84993 0.87254 0.40957 0.0
H538 H 0.8677 0.89559 0.36772 0.0
H539 H 0.88703 0.85142 0.37935 0.0
C540 C 0.85805 0.87298 0.39915 0.0
C541 C 0.8685 0.86058 0.39556 0.0
C542 C 0.85755 0.88562 0.38908 0.0
C543 C 0.86797 0.88583 0.37549 0.0
C544 C 0.87874 0.87361 0.37184 0.0
C545 C 0.87873 0.8609 0.38188 0.0
H546 H 0.34694 0.61668 0.56305 0.0
H547 H 0.35794 0.60276 0.61119 0.0
H548 H 0.37619 0.64547 0.59397 0.0
C549 C 0.35275 0.61872 0.5746 0.0
C550 C 0.36139 0.63239 0.57723 0.0
C551 C 0.35129 0.60787 0.58675 0.0
C552 C 0.35927 0.61075 0.60152 0.0
C553 C 0.36845 0.62417 0.60418 0.0
C554 C 0.36921 0.63505 0.59204 0.0
H555 H 0.59898 0.10597 0.91478 0.0
H556 H 0.58895 0.08348 0.87021 0.0
H557 H 0.57207 0.1292 0.87752 0.0
C558 C 0.59334 0.10593 0.90296 0.0
C559 C 0.5851 0.11899 0.89739 0.0
C560 C 0.59503 0.0931 0.89317 0.0
C561 C 0.58769 0.09329 0.87786 0.0
C562 C 0.57931 0.10621 0.87208 0.0
C563 C 0.57811 0.11904 0.88195 0.0
H564 H 0.10961 0.61837 0.40974 0.0
H565 H 0.09971 0.59883 0.36365 0.0
H566 H 0.08065 0.64318 0.37505 0.0
C567 C 0.10391 0.61904 0.39797 0.0
C568 C 0.0948 0.63205 0.39367 0.0
C569 C 0.10596 0.60707 0.38714 0.0
C570 C 0.09831 0.60809 0.37202 0.0
C571 C 0.08904 0.621 0.3675 0.0
C572 C 0.08749 0.63304 0.3784 0.0
H573 H 0.61545 0.87645 0.55324 0.0
H574 H 0.59765 0.89629 0.59691 0.0
H575 H 0.59057 0.84868 0.588 0.0
C576 C 0.60904 0.87539 0.56462 0.0
C577 C 0.60283 0.86123 0.56931 0.0
C578 C 0.60753 0.88804 0.57464 0.0
C579 C 0.59946 0.88641 0.58945 0.0
C580 C 0.59326 0.87228 0.59448 0.0
C581 C 0.59516 0.85967 0.58433 0.0
H582 H 0.36084 0.36388 0.92274 0.0
H583 H 0.38004 0.38424 0.87992 0.0
H584 H 0.39486 0.33903 0.89236 0.0
C585 C 0.36853 0.36329 0.91205 0.0
C586 C 0.37744 0.34991 0.9086 0.0
C587 C 0.36951 0.37586 0.9019 0.0
C588 C 0.37984 0.37493 0.88828 0.0
C589 C 0.3892 0.3618 0.88479 0.0
C590 C 0.38794 0.34931 0.89506 0.0
H591 H 0.83531 0.11008 0.06957 0.0
H592 H 0.85627 0.08772 0.11069 0.0
H593 H 0.86227 0.13568 0.10519 0.0
C594 C 0.8421 0.11045 0.08083 0.0
C595 C 0.84816 0.12442 0.08649 0.0
C596 C 0.84491 0.09706 0.0894 0.0
C597 C 0.8542 0.09785 0.10376 0.0
C598 C 0.86075 0.11166 0.10942 0.0
C599 C 0.85775 0.12491 0.10066 0.0
H600 H 0.06898 0.13097 0.35686 0.0
H601 H 0.10834 0.10363 0.37745 0.0
H602 H 0.08297 0.08869 0.33484 0.0
C603 C 0.07655 0.12076 0.35672 0.0
C604 C 0.07439 0.1102 0.34425 0.0
C605 C 0.08854 0.11842 0.36894 0.0
C606 C 0.09851 0.10528 0.36854 0.0
C607 C 0.0966 0.09456 0.35629 0.0
C608 C 0.08454 0.09707 0.34417 0.0
H609 H 0.09406 0.85672 0.59848 0.0
H610 H 0.11597 0.89541 0.62166 0.0
H611 H 0.14243 0.87392 0.58283 0.0
C612 C 0.10418 0.86501 0.59933 0.0
C613 C 0.11821 0.86405 0.58903 0.0
C614 C 0.10334 0.87621 0.61117 0.0
C615 C 0.11678 0.88653 0.61275 0.0
C616 C 0.13095 0.88582 0.60257 0.0
C617 C 0.13155 0.87455 0.59071 0.0
H618 H 0.37448 0.83796 0.84298 0.0
H619 H 0.33563 0.8617 0.86856 0.0
H620 H 0.35244 0.87813 0.82291 0.0
C621 C 0.36552 0.84723 0.84371 0.0
C622 C 0.36495 0.85807 0.8315 0.0
C623 C 0.35472 0.84833 0.85696 0.0
C624 C 0.34337 0.86051 0.85797 0.0
C625 C 0.34227 0.87134 0.84576 0.0
C626 C 0.35322 0.87004 0.83255 0.0
H627 H 0.38178 0.08485 0.1363 0.0
H628 H 0.3982 0.12877 0.12099 0.0
H629 H 0.35178 0.10986 0.10235 0.0
C630 C 0.37983 0.09485 0.12909 0.0
C631 C 0.36533 0.09589 0.11927 0.0
C632 C 0.39174 0.10665 0.12981 0.0
C633 C 0.389 0.11964 0.12062 0.0
C634 C 0.37471 0.12082 0.1106 0.0
C635 C 0.36301 0.10883 0.10981 0.0
H636 H 0.0926 0.87195 0.13986 0.0
H637 H 0.13206 0.89512 0.11439 0.0
H638 H 0.11545 0.91195 0.15998 0.0
C639 C 0.10169 0.88113 0.13908 0.0
C640 C 0.10274 0.8918 0.15152 0.0
C641 C 0.1122 0.88225 0.12564 0.0
C642 C 0.12386 0.89422 0.12472 0.0
C643 C 0.12515 0.90497 0.13703 0.0
C644 C 0.11453 0.90371 0.15042 0.0
H645 H 0.34969 0.90288 0.34774 0.0
H646 H 0.36218 0.85896 0.36578 0.0
H647 H 0.32093 0.88383 0.38655 0.0
C648 C 0.34733 0.89381 0.35607 0.0
C649 C 0.33379 0.89498 0.36701 0.0
C650 C 0.35794 0.88104 0.35579 0.0
C651 C 0.3546 0.86917 0.36638 0.0
C652 C 0.34132 0.87008 0.37749 0.0
C653 C 0.33094 0.88301 0.37774 0.0
H654 H 0.35349 0.0996 0.60024 0.0
H655 H 0.39101 0.12038 0.63036 0.0
H656 H 0.36831 0.07823 0.64429 0.0
C657 C 0.36086 0.09956 0.61119 0.0
C658 C 0.35919 0.08751 0.62198 0.0
C659 C 0.37214 0.11151 0.61419 0.0
C660 C 0.38222 0.1112 0.628 0.0
C661 C 0.38103 0.09914 0.6388 0.0
C662 C 0.36954 0.0873 0.63572 0.0
H663 H 0.11291 0.15481 0.87895 0.0
H664 H 0.13222 0.11394 0.85805 0.0
H665 H 0.15437 0.13122 0.90144 0.0
C666 C 0.12169 0.14538 0.87924 0.0
C667 C 0.13359 0.14428 0.89175 0.0
C668 C 0.12116 0.13455 0.86698 0.0
C669 C 0.13294 0.12263 0.86717 0.0
C670 C 0.14498 0.12134 0.87952 0.0
C671 C 0.14524 0.13224 0.89178 0.0
H672 H 0.85747 0.39488 0.85914 0.0
H673 H 0.8714 0.35222 0.87943 0.0
H674 H 0.83489 0.38034 0.90332 0.0
C675 C 0.85616 0.3866 0.86853 0.0
C676 C 0.84481 0.38931 0.8812 0.0
C677 C 0.86608 0.37343 0.86794 0.0
C678 C 0.86422 0.36265 0.88003 0.0
C679 C 0.85297 0.36503 0.89278 0.0
C680 C 0.84324 0.37835 0.89328 0.0
H681 H 0.85818 0.58742 0.09763 0.0
H682 H 0.89292 0.60647 0.13174 0.0
H683 H 0.86355 0.56737 0.1443 0.0
C684 C 0.86399 0.58716 0.10937 0.0
C685 C 0.85909 0.57606 0.12046 0.0
C686 C 0.87596 0.59828 0.11344 0.0
C687 C 0.88346 0.59803 0.12859 0.0
C688 C 0.87926 0.58675 0.13961 0.0
C689 C 0.86714 0.57574 0.13552 0.0
H690 H 0.60931 0.63567 0.38522 0.0
H691 H 0.63021 0.59786 0.35962 0.0
H692 H 0.65699 0.61637 0.39998 0.0
C693 C 0.61906 0.62713 0.38377 0.0
C694 C 0.63295 0.62697 0.39438 0.0
C695 C 0.61785 0.61671 0.37115 0.0
C696 C 0.63111 0.60628 0.36899 0.0
C697 C 0.64536 0.60622 0.37917 0.0
C698 C 0.64615 0.61651 0.39196 0.0
H699 H 0.89128 0.35889 0.33471 0.0
H700 H 0.85066 0.3823 0.35837 0.0
H701 H 0.87406 0.40183 0.31691 0.0
C702 C 0.8827 0.36845 0.33543 0.0
C703 C 0.88401 0.38017 0.32423 0.0
C704 C 0.87076 0.36913 0.34781 0.0
C705 C 0.85987 0.38165 0.34879 0.0
C706 C 0.86094 0.39349 0.33771 0.0
C707 C 0.87303 0.39267 0.32541 0.0
H708 H 0.57507 0.64833 0.86091 0.0
H709 H 0.61939 0.62884 0.88282 0.0
H710 H 0.60107 0.61156 0.83786 0.0
C711 C 0.58539 0.64021 0.86068 0.0
C712 C 0.58672 0.63008 0.84781 0.0
C713 C 0.59707 0.63982 0.87339 0.0
C714 C 0.61033 0.6292 0.87305 0.0
C715 C 0.61189 0.61894 0.86028 0.0
C716 C 0.60002 0.61947 0.8477 0.0
H717 H 0.88632 0.62542 0.88025 0.0
H718 H 0.89667 0.60284 0.8359 0.0
H719 H 0.92905 0.63917 0.85191 0.0
C720 C 0.89387 0.62429 0.86951 0.0
C721 C 0.90795 0.63381 0.86725 0.0
C722 C 0.88983 0.61297 0.85838 0.0
C723 C 0.90005 0.61126 0.84478 0.0
C724 C 0.91421 0.62069 0.84227 0.0
C725 C 0.91811 0.6319 0.85364 0.0
H726 H 0.12415 0.11699 0.58464 0.0
H727 H 0.10065 0.09963 0.62687 0.0
H728 H 0.08119 0.14008 0.60525 0.0
C729 C 0.11419 0.11771 0.59351 0.0
C730 C 0.10267 0.12989 0.59324 0.0
C731 C 0.1134 0.10666 0.60546 0.0
C732 C 0.10115 0.10802 0.6175 0.0
C733 C 0.08966 0.12017 0.61766 0.0
C734 C 0.0904 0.13098 0.60541 0.0
H735 H 0.60798 0.37734 0.32878 0.0
H736 H 0.62977 0.36352 0.3735 0.0
H737 H 0.5833 0.3432 0.35681 0.0
C738 C 0.60771 0.37025 0.33929 0.0
C739 C 0.5945 0.35968 0.34112 0.0
C740 C 0.62037 0.37192 0.35104 0.0
C741 C 0.61977 0.36267 0.36461 0.0
C742 C 0.60638 0.35239 0.36694 0.0
C743 C 0.59391 0.35083 0.35501 0.0
H744 H 0.3729 0.85378 0.09817 0.0
H745 H 0.39481 0.8733 0.14057 0.0
H746 H 0.41338 0.83081 0.12273 0.0
C747 C 0.38197 0.85331 0.10792 0.0
C748 C 0.39311 0.84094 0.10906 0.0
C749 C 0.38248 0.86509 0.1192 0.0
C750 C 0.3943 0.8643 0.1318 0.0
C751 C 0.40543 0.85194 0.13323 0.0
C752 C 0.40478 0.84033 0.12177 0.0
H753 H 0.86272 0.35707 0.59307 0.0
H754 H 0.88119 0.37964 0.63517 0.0
H755 H 0.90906 0.34221 0.61554 0.0
C756 C 0.87208 0.35814 0.60252 0.0
C757 C 0.88608 0.34826 0.6029 0.0
C758 C 0.87019 0.36951 0.61411 0.0
C759 C 0.8825 0.37087 0.62621 0.0
C760 C 0.89654 0.36107 0.62685 0.0
C761 C 0.89822 0.34976 0.61516 0.0
H762 H 0.34914 0.13279 0.38334 0.0
H763 H 0.36133 0.1111 0.33885 0.0
H764 H 0.39257 0.14743 0.35625 0.0
C765 C 0.3571 0.13189 0.37285 0.0
C766 C 0.37125 0.1415 0.37119 0.0
C767 C 0.35335 0.12091 0.36119 0.0
C768 C 0.36395 0.11967 0.34779 0.0
C769 C 0.3781 0.12916 0.3459 0.0
C770 C 0.38159 0.14013 0.35759 0.0
H771 H 0.59403 0.60892 0.10815 0.0
H772 H 0.58001 0.59329 0.15493 0.0
H773 H 0.5577 0.63382 0.13576 0.0
C774 C 0.58652 0.61003 0.11892 0.0
C775 C 0.57562 0.62245 0.12057 0.0
C776 C 0.58836 0.59949 0.13132 0.0
C777 C 0.57876 0.60139 0.14533 0.0
C778 C 0.56768 0.61377 0.1471 0.0
C779 C 0.56633 0.62432 0.13468 0.0
H780 H 0.0853 0.88094 0.83203 0.0
H781 H 0.10432 0.86232 0.87585 0.0
H782 H 0.0597 0.84328 0.85362 0.0
C783 C 0.0843 0.87277 0.84159 0.0
C784 C 0.07099 0.86218 0.84139 0.0
C785 C 0.09645 0.87283 0.85389 0.0
C786 C 0.09532 0.86198 0.86603 0.0
C787 C 0.08207 0.85129 0.86608 0.0
C788 C 0.07002 0.8514 0.85363 0.0
H789 H 0.78792 0.86708 0.5967 0.0
H790 H 0.82624 0.84737 0.62669 0.0
H791 H 0.80476 0.89072 0.63872 0.0
C792 C 0.79582 0.86752 0.60732 0.0
C793 C 0.79506 0.88025 0.61731 0.0
C794 C 0.80687 0.85552 0.61073 0.0
C795 C 0.81704 0.85625 0.62451 0.0
C796 C 0.81645 0.8689 0.63472 0.0
C797 C 0.80517 0.88078 0.63114 0.0
H798 H 0.85557 0.11467 0.37013 0.0
H799 H 0.87345 0.15979 0.37952 0.0
H800 H 0.83858 0.13852 0.41189 0.0
C801 C 0.85573 0.12471 0.37756 0.0
C802 C 0.84597 0.12507 0.39156 0.0
C803 C 0.86572 0.13716 0.3731 0.0
C804 C 0.86578 0.15012 0.38284 0.0
C805 C 0.85597 0.15073 0.39682 0.0
C806 C 0.84613 0.13814 0.4011 0.0
H807 H 0.65415 0.15224 0.12044 0.0
H808 H 0.70448 0.14381 0.10256 0.0
H809 H 0.68214 0.11365 0.13678 0.0
C810 C 0.66586 0.14578 0.12067 0.0
C811 C 0.66693 0.13292 0.13039 0.0
C812 C 0.67922 0.14964 0.11034 0.0
C813 C 0.69399 0.14069 0.11024 0.0
C814 C 0.69513 0.12751 0.11951 0.0
C815 C 0.68159 0.12386 0.12972 0.0
H816 H 0.64534 0.86503 0.83511 0.0
H817 H 0.63478 0.81854 0.84557 0.0
H818 H 0.67192 0.84282 0.87339 0.0
C819 C 0.64815 0.85489 0.84182 0.0
C820 C 0.66005 0.85549 0.85438 0.0
C821 C 0.63898 0.84161 0.83856 0.0
C822 C 0.64203 0.82874 0.84787 0.0
C823 C 0.65375 0.82909 0.86055 0.0
C824 C 0.66279 0.84249 0.86368 0.0
H825 H 0.82056 0.12235 0.87879 0.0
H826 H 0.85319 0.14643 0.84668 0.0
H827 H 0.84252 0.09929 0.83862 0.0
C828 C 0.82833 0.12257 0.86814 0.0
C829 C 0.83048 0.10926 0.8592 0.0
C830 C 0.8364 0.13606 0.86368 0.0
C831 C 0.84667 0.13613 0.85 0.0
C832 C 0.84902 0.12293 0.84087 0.0
C833 C 0.84071 0.10956 0.84549 0.0
H834 H 0.6164 0.12532 0.60875 0.0
H835 H 0.6075 0.17332 0.60625 0.0
H836 H 0.62648 0.14939 0.56538 0.0
C837 C 0.61702 0.1359 0.60231 0.0
C838 C 0.62247 0.13581 0.58637 0.0
C839 C 0.61142 0.14934 0.60964 0.0
C840 C 0.61171 0.16285 0.60082 0.0
C841 C 0.61687 0.16285 0.5848 0.0
C842 C 0.62226 0.14933 0.57769 0.0
H843 H 0.62188 0.83136 0.32997 0.0
H844 H 0.67021 0.83857 0.35278 0.0
H845 H 0.65011 0.87207 0.32087 0.0
C846 C 0.63324 0.83814 0.33158 0.0
C847 C 0.63469 0.85211 0.32374 0.0
C848 C 0.64598 0.8332 0.34215 0.0
C849 C 0.66046 0.84224 0.34449 0.0
C850 C 0.66202 0.85638 0.33707 0.0
C851 C 0.64917 0.86111 0.32651 0.0
H852 H 0.87577 0.82656 0.11787 0.0
H853 H 0.85002 0.86928 0.12183 0.0
H854 H 0.84375 0.84206 0.07965 0.0
C855 C 0.86715 0.83494 0.11303 0.0
C856 C 0.85999 0.83263 0.09784 0.0
C857 C 0.86362 0.84812 0.12183 0.0
C858 C 0.85267 0.85901 0.11524 0.0
C859 C 0.84553 0.85697 0.09999 0.0
C860 C 0.84913 0.84367 0.09145 0.0
H861 H 0.12022 0.62983 0.11202 0.0
H862 H 0.10219 0.67504 0.10456 0.0
H863 H 0.13785 0.65503 0.07173 0.0
C864 C 0.1205 0.64027 0.1053 0.0
C865 C 0.13009 0.64101 0.09124 0.0
C866 C 0.11056 0.65257 0.1103 0.0
C867 C 0.11018 0.6657 0.10091 0.0
C868 C 0.11985 0.66677 0.08682 0.0
C869 C 0.12994 0.65436 0.08225 0.0
H870 H 0.1322 0.33693 0.83855 0.0
H871 H 0.17472 0.35965 0.86032 0.0
H872 H 0.15278 0.37708 0.8171 0.0
C873 C 0.14156 0.34593 0.83846 0.0
C874 C 0.14108 0.3568 0.82627 0.0
C875 C 0.15362 0.34683 0.85082 0.0
C876 C 0.16563 0.35858 0.85063 0.0
C877 C 0.16538 0.36952 0.83853 0.0
C878 C 0.15301 0.36864 0.82644 0.0
H879 H 0.36069 0.32567 0.61506 0.0
H880 H 0.34112 0.37026 0.62447 0.0
H881 H 0.33126 0.34869 0.57939 0.0
C882 C 0.3534 0.33545 0.61139 0.0
C883 C 0.34592 0.33561 0.59614 0.0
C884 C 0.35173 0.34788 0.6218 0.0
C885 C 0.34245 0.36057 0.61665 0.0
C886 C 0.33521 0.36105 0.60131 0.0
C887 C 0.33685 0.34844 0.59122 0.0
H888 H 0.12507 0.64646 0.63516 0.0
H889 H 0.17698 0.63615 0.62346 0.0
H890 H 0.15097 0.61032 0.65926 0.0
C891 C 0.1366 0.6401 0.63739 0.0
C892 C 0.13636 0.62827 0.64854 0.0
C893 C 0.15121 0.64306 0.62828 0.0
C894 C 0.16577 0.63411 0.63062 0.0
C895 C 0.16574 0.62211 0.64157 0.0
C896 C 0.15104 0.61942 0.65064 0.0
H897 H 0.32213 0.36527 0.106 0.0
H898 H 0.36238 0.35075 0.13716 0.0
H899 H 0.33656 0.39282 0.14614 0.0
C900 C 0.32992 0.36702 0.11655 0.0
C901 C 0.32776 0.38022 0.12565 0.0
C902 C 0.34233 0.3563 0.12061 0.0
C903 C 0.35256 0.35885 0.13412 0.0
C904 C 0.35061 0.37199 0.14343 0.0
C905 C 0.33804 0.38256 0.13918 0.0
H906 H 0.60267 0.35256 0.10171 0.0
H907 H 0.62516 0.39033 0.12613 0.0
H908 H 0.64664 0.37463 0.08194 0.0
C909 C 0.61233 0.36129 0.10233 0.0
C910 C 0.62458 0.36236 0.09019 0.0
C911 C 0.6124 0.37135 0.1153 0.0
C912 C 0.62504 0.38252 0.11615 0.0
C913 C 0.63749 0.38375 0.10422 0.0
C914 C 0.63713 0.37368 0.09122 0.0
H915 H 0.86393 0.57405 0.6006 0.0
H916 H 0.87704 0.61423 0.57484 0.0
H917 H 0.82938 0.59186 0.56552 0.0
C918 C 0.86098 0.58232 0.59149 0.0
C919 C 0.84538 0.58143 0.5833 0.0
C920 C 0.87249 0.5941 0.5885 0.0
C921 C 0.86837 0.60493 0.57693 0.0
C922 C 0.85284 0.60427 0.56856 0.0
C923 C 0.84149 0.59236 0.57171 0.0
H924 H 0.56259 0.37481 0.62899 0.0
H925 H 0.60653 0.39546 0.60781 0.0
H926 H 0.58688 0.41246 0.65229 0.0
C927 C 0.57236 0.38346 0.62906 0.0
C928 C 0.57318 0.39373 0.64183 0.0
C929 C 0.58451 0.38382 0.61686 0.0
C930 C 0.59717 0.39501 0.61727 0.0
C931 C 0.59814 0.40542 0.62994 0.0
C932 C 0.58623 0.40455 0.64239 0.0
H933 H 0.33602 0.60176 0.87752 0.0
H934 H 0.35491 0.64468 0.89368 0.0
H935 H 0.3177 0.62082 0.92153 0.0
C936 C 0.33591 0.61088 0.88618 0.0
C937 C 0.32537 0.60985 0.89965 0.0
C938 C 0.34665 0.62335 0.88396 0.0
C939 C 0.34698 0.63483 0.89553 0.0
C940 C 0.33661 0.63402 0.90915 0.0
C941 C 0.3258 0.62148 0.91112 0.0
H942 H 0.1472 0.37615 0.37037 0.0
H943 H 0.13929 0.32828 0.37529 0.0
H944 H 0.17122 0.3522 0.40872 0.0
C945 C 0.14944 0.36562 0.3766 0.0
C946 C 0.1598 0.36572 0.39025 0.0
C947 C 0.14197 0.35219 0.37099 0.0
C948 C 0.14544 0.33864 0.37909 0.0
C949 C 0.15604 0.3385 0.39267 0.0
C950 C 0.16325 0.35211 0.39814 0.0
H951 H 0.29776 0.61297 0.36448 0.0
H952 H 0.3405 0.63386 0.34139 0.0
H953 H 0.32668 0.58802 0.32997 0.0
C954 C 0.30819 0.61247 0.35607 0.0
C955 C 0.31113 0.59899 0.34766 0.0
C956 C 0.31865 0.62518 0.3539 0.0
C957 C 0.33189 0.62438 0.34268 0.0
C958 C 0.33486 0.61104 0.33393 0.0
C959 C 0.32431 0.59844 0.33641 0.0
H960 H 0.16008 0.47052 0.04599 0.0
H961 H 0.14118 0.41175 0.11626 0.0
H962 H 0.18168 0.4742 0.09322 0.0
H963 H 0.11942 0.40819 0.06905 0.0
H964 H 0.1552 0.4352 0.1084 0.0
H965 H 0.14416 0.44824 0.05454 0.0
C966 C 0.16151 0.4666 0.05816 0.0
C967 C 0.17258 0.47397 0.06879 0.0
C968 C 0.14732 0.42933 0.09977 0.0
C969 C 0.15435 0.44853 0.0787 0.0
C970 C 0.13921 0.41598 0.10429 0.0
C971 C 0.12914 0.40795 0.09329 0.0
C972 C 0.14535 0.43472 0.08412 0.0
C973 C 0.12726 0.41388 0.07785 0.0
C974 C 0.15245 0.45387 0.06303 0.0
C975 C 0.17384 0.46851 0.08444 0.0
N976 N 0.13532 0.42687 0.07373 0.0
N977 N 0.16488 0.45609 0.08892 0.0
H978 H 0.78943 0.96223 0.38213 0.0
H979 H 0.851 0.89877 0.41814 0.0
H980 H 0.79922 0.95706 0.43248 0.0
H981 H 0.83792 0.90191 0.36819 0.0
H982 H 0.83217 0.92011 0.42367 0.0
H983 H 0.80716 0.94017 0.37679 0.0
C984 C 0.79499 0.95625 0.3921 0.0
C985 C 0.79244 0.96122 0.40781 0.0
C986 C 0.83341 0.91613 0.4115 0.0
C987 C 0.81334 0.93628 0.40175 0.0
C988 C 0.8441 0.90389 0.40834 0.0
C989 C 0.84609 0.89854 0.39266 0.0
C990 C 0.82463 0.92311 0.39889 0.0
C991 C 0.83699 0.90578 0.38042 0.0
C992 C 0.80533 0.94376 0.38902 0.0
C993 C 0.80076 0.95352 0.42019 0.0
N994 N 0.82668 0.91768 0.3838 0.0
N995 N 0.81082 0.94142 0.4169 0.0
H996 H 0.30081 0.5211 0.59655 0.0
H997 H 0.32237 0.604 0.56843 0.0
H998 H 0.29022 0.53569 0.54849 0.0
H999 H 0.35677 0.5794 0.59923 0.0
H1000 H 0.3063 0.58078 0.56403 0.0
H1001 H 0.31712 0.54444 0.60108 0.0
C1002 C 0.3018 0.52929 0.58703 0.0
C1003 C 0.29412 0.52658 0.57217 0.0
C1004 C 0.31739 0.58054 0.57173 0.0
C1005 C 0.31254 0.55313 0.57727 0.0
C1006 C 0.32671 0.59377 0.57418 0.0
C1007 C 0.34116 0.59378 0.58414 0.0
C1008 C 0.32224 0.56727 0.57958 0.0
C1009 C 0.34563 0.58013 0.59165 0.0
C1010 C 0.31118 0.54249 0.58957 0.0
C1011 C 0.296 0.53739 0.56011 0.0
N1012 N 0.33614 0.56746 0.5893 0.0
N1013 N 0.30489 0.5503 0.56297 0.0
H1014 H 0.68146 0.04007 0.92204 0.0
H1015 H 0.59002 0.06266 0.88756 0.0
H1016 H 0.65358 0.01244 0.88838 0.0
H1017 H 0.62496 0.09386 0.91009 0.0
H1018 H 0.61015 0.04213 0.89272 0.0
H1019 H 0.65751 0.05754 0.92305 0.0
C1020 C 0.67021 0.03754 0.91502 0.0
C1021 C 0.66966 0.02487 0.9049 0.0
C1022 C 0.61326 0.05346 0.8967 0.0
C1023 C 0.6422 0.04494 0.90596 0.0
C1024 C 0.60182 0.06521 0.89369 0.0
C1025 C 0.60583 0.08011 0.89821 0.0
C1026 C 0.62876 0.05659 0.90439 0.0
C1027 C 0.62116 0.0826 0.90649 0.0
C1028 C 0.65656 0.04757 0.91557 0.0
C1029 C 0.65464 0.02214 0.89621 0.0
N1030 N 0.63209 0.07101 0.90919 0.0
N1031 N 0.64157 0.0322 0.89681 0.0
H1032 H 0.15675 0.52096 0.38286 0.0
H1033 H 0.13614 0.6067 0.40375 0.0
H1034 H 0.18541 0.54655 0.4177 0.0
H1035 H 0.10041 0.57713 0.3799 0.0
H1036 H 0.15456 0.58503 0.40878 0.0
H1037 H 0.13632 0.54165 0.3811 0.0
C1038 C 0.15872 0.53091 0.39019 0.0
C1039 C 0.17286 0.53206 0.40039 0.0
C1040 C 0.14262 0.58327 0.40256 0.0
C1041 C 0.14955 0.55584 0.39835 0.0
C1042 C 0.13203 0.59563 0.39975 0.0
C1043 C 0.11669 0.59379 0.39129 0.0
C1044 C 0.13798 0.56897 0.39673 0.0
C1045 C 0.11224 0.57918 0.38617 0.0
C1046 C 0.14701 0.54271 0.38922 0.0
C1047 C 0.17469 0.54519 0.40967 0.0
N1048 N 0.12289 0.56736 0.38886 0.0
N1049 N 0.16325 0.55664 0.40833 0.0
H1050 H 0.65906 0.97461 0.57102 0.0
H1051 H 0.60612 0.90117 0.54504 0.0
H1052 H 0.64468 0.96461 0.52241 0.0
H1053 H 0.62494 0.90875 0.59285 0.0
H1054 H 0.61885 0.92507 0.53683 0.0
H1055 H 0.64543 0.95118 0.57956 0.0
C1056 C 0.65333 0.96734 0.5621 0.0
C1057 C 0.65347 0.97132 0.54592 0.0
C1058 C 0.62017 0.92153 0.54913 0.0
C1059 C 0.63729 0.94476 0.55566 0.0
C1060 C 0.61297 0.90784 0.55381 0.0
C1061 C 0.61453 0.90289 0.56965 0.0
C1062 C 0.62902 0.93038 0.56035 0.0
C1063 C 0.62327 0.91217 0.58055 0.0
C1064 C 0.64534 0.95406 0.56701 0.0
C1065 C 0.645 0.96189 0.535 0.0
N1066 N 0.63023 0.92544 0.57569 0.0
N1067 N 0.63733 0.94901 0.54005 0.0
H1068 H 0.32037 0.46098 0.88648 0.0
H1069 H 0.33722 0.3776 0.91441 0.0
H1070 H 0.28968 0.43942 0.92248 0.0
H1071 H 0.37772 0.40564 0.89615 0.0
H1072 H 0.31948 0.4 0.9172 0.0
H1073 H 0.34156 0.4409 0.88942 0.0
C1074 C 0.3182 0.45215 0.89516 0.0
C1075 C 0.30317 0.45181 0.90416 0.0
C1076 C 0.33232 0.40126 0.91276 0.0
C1077 C 0.32718 0.42871 0.90735 0.0
C1078 C 0.34254 0.38846 0.91122 0.0
C1079 C 0.35904 0.38962 0.90491 0.0
C1080 C 0.33847 0.41533 0.90769 0.0
C1081 C 0.36497 0.40407 0.9007 0.0
C1082 C 0.33031 0.44071 0.89685 0.0
C1083 C 0.30106 0.44013 0.91528 0.0
N1084 N 0.35463 0.41631 0.90196 0.0
N1085 N 0.31279 0.4289 0.91637 0.0
H1086 H 0.78966 0.02517 0.04051 0.0
H1087 H 0.85845 0.06842 0.09268 0.0
H1088 H 0.80934 0.00598 0.08403 0.0
H1089 H 0.81502 0.09187 0.07284 0.0
H1090 H 0.84565 0.04447 0.08446 0.0
H1091 H 0.8045 0.04897 0.04684 0.0
C1092 C 0.79727 0.02594 0.05127 0.0
C1093 C 0.79818 0.01376 0.06189 0.0
C1094 C 0.83906 0.05493 0.08187 0.0
C1095 C 0.81529 0.04057 0.06897 0.0
C1096 C 0.84625 0.06863 0.08666 0.0
C1097 C 0.8378 0.08235 0.08363 0.0
C1098 C 0.82354 0.0549 0.07361 0.0
C1099 C 0.82223 0.08173 0.07527 0.0
C1100 C 0.80562 0.03947 0.0549 0.0
C1101 C 0.80818 0.01524 0.07569 0.0
N1102 N 0.81565 0.06825 0.0705 0.0
N1103 N 0.81643 0.02842 0.07883 0.0
H1104 H 0.12769 0.16615 0.451 0.0
H1105 H 0.0866 0.14949 0.3669 0.0
H1106 H 0.09323 0.19779 0.42887 0.0
H1107 H 0.09642 0.11359 0.40056 0.0
H1108 H 0.09169 0.16791 0.38811 0.0
H1109 H 0.11937 0.1471 0.43117 0.0
C1110 C 0.11833 0.16905 0.442 0.0
C1111 C 0.11114 0.18355 0.44154 0.0
C1112 C 0.09261 0.15598 0.39081 0.0
C1113 C 0.10183 0.16196 0.41876 0.0
C1114 C 0.08961 0.14541 0.37874 0.0
C1115 C 0.09107 0.12986 0.38185 0.0
C1116 C 0.09746 0.15103 0.40603 0.0
C1117 C 0.09548 0.12541 0.39743 0.0
C1118 C 0.11355 0.15818 0.43076 0.0
C1119 C 0.09902 0.18672 0.42967 0.0
N1120 N 0.09868 0.13594 0.40889 0.0
N1121 N 0.0949 0.17606 0.41861 0.0
H1122 H 0.0014 0.87973 0.64968 0.0
H1123 H 0.103 0.87999 0.64364 0.0
H1124 H 0.03444 0.87534 0.69067 0.0
H1125 H 0.06967 0.87433 0.60305 0.0
H1126 H 0.07807 0.88077 0.66111 0.0
H1127 H 0.02637 0.88015 0.63244 0.0
C1128 C 0.0139 0.87889 0.65507 0.0
C1129 C 0.0158 0.87746 0.67166 0.0
C1130 C 0.07622 0.87936 0.64838 0.0
C1131 C 0.04448 0.87797 0.65196 0.0
C1132 C 0.09042 0.87901 0.63841 0.0
C1133 C 0.08838 0.87705 0.62189 0.0
C1134 C 0.05986 0.87789 0.64175 0.0
C1135 C 0.07182 0.87568 0.61574 0.0
C1136 C 0.02816 0.87909 0.64521 0.0
C1137 C 0.03235 0.8764 0.67795 0.0
N1138 N 0.0582 0.87616 0.62567 0.0
N1139 N 0.04605 0.8767 0.66809 0.0
H1140 H 0.32829 0.78922 0.93496 0.0
H1141 H 0.38281 0.83531 0.87087 0.0
H1142 H 0.38321 0.7887 0.93337 0.0
H1143 H 0.32792 0.83524 0.87244 0.0
H1144 H 0.38328 0.81714 0.89281 0.0
H1145 H 0.32795 0.80502 0.91116 0.0
C1146 C 0.34029 0.79235 0.92957 0.0
C1147 C 0.35581 0.78768 0.93625 0.0
C1148 C 0.37113 0.82106 0.88831 0.0
C1149 C 0.35551 0.80586 0.90898 0.0
C1150 C 0.37085 0.83137 0.87573 0.0
C1151 C 0.3553 0.83687 0.86987 0.0
C1152 C 0.35574 0.8162 0.89508 0.0
C1153 C 0.34021 0.8315 0.87676 0.0
C1154 C 0.34008 0.8014 0.91597 0.0
C1155 C 0.37094 0.79207 0.92868 0.0
N1156 N 0.34081 0.82151 0.88901 0.0
N1157 N 0.37041 0.80097 0.9155 0.0
H1158 H 0.47373 0.12369 0.19697 0.0
H1159 H 0.4129 0.08233 0.13358 0.0
H1160 H 0.48456 0.08003 0.17641 0.0
H1161 H 0.40537 0.1282 0.14966 0.0
H1162 H 0.43818 0.08064 0.15055 0.0
H1163 H 0.4476 0.12492 0.18111 0.0
C1164 C 0.47044 0.11424 0.18936 0.0
C1165 C 0.48113 0.1016 0.18826 0.0
C1166 C 0.431 0.09108 0.15038 0.0
C1167 C 0.4515 0.10308 0.16974 0.0
C1168 C 0.41651 0.09202 0.14076 0.0
C1169 C 0.40702 0.10543 0.14019 0.0
C1170 C 0.43602 0.10362 0.15957 0.0
C1171 C 0.41242 0.1177 0.14959 0.0
C1172 C 0.45563 0.11502 0.18014 0.0
C1173 C 0.47662 0.08996 0.17766 0.0
N1174 N 0.42654 0.11649 0.15891 0.0
N1175 N 0.46212 0.09095 0.16885 0.0
H1176 H 0.07633 0.8222 0.05101 0.0
H1177 H 0.13821 0.86875 0.10919 0.0
H1178 H 0.13109 0.82216 0.04688 0.0
H1179 H 0.08341 0.87015 0.11213 0.0
H1180 H 0.1359 0.85093 0.08698 0.0
H1181 H 0.07872 0.83892 0.07412 0.0
C1182 C 0.08887 0.82567 0.05497 0.0
C1183 C 0.10353 0.8208 0.04694 0.0
C1184 C 0.12437 0.85511 0.09249 0.0
C1185 C 0.10635 0.83998 0.07342 0.0
C1186 C 0.12568 0.86534 0.10513 0.0
C1187 C 0.11098 0.87101 0.11249 0.0
C1188 C 0.10823 0.85049 0.08714 0.0
C1189 C 0.09509 0.86597 0.10691 0.0
C1190 C 0.09022 0.83524 0.06818 0.0
C1191 C 0.11943 0.82566 0.05266 0.0
N1192 N 0.09414 0.85604 0.09454 0.0
N1193 N 0.12041 0.835 0.06553 0.0
H1194 H 0.44932 0.85229 0.30777 0.0
H1195 H 0.3603 0.8914 0.32477 0.0
H1196 H 0.43344 0.89203 0.28197 0.0
H1197 H 0.38931 0.86843 0.36126 0.0
H1198 H 0.38473 0.88924 0.30683 0.0
H1199 H 0.42467 0.85509 0.32523 0.0
C1200 C 0.44059 0.86156 0.30572 0.0
C1201 C 0.44345 0.87197 0.29343 0.0
C1202 C 0.38566 0.88471 0.31879 0.0
C1203 C 0.41519 0.87516 0.3133 0.0
C1204 C 0.37177 0.886 0.32909 0.0
C1205 C 0.37263 0.88003 0.34461 0.0
C1206 C 0.40038 0.87718 0.32393 0.0
C1207 C 0.38781 0.8729 0.34934 0.0
C1208 C 0.4266 0.86319 0.31574 0.0
C1209 C 0.43175 0.8838 0.29137 0.0
N1210 N 0.401 0.87158 0.33902 0.0
N1211 N 0.41804 0.88504 0.30117 0.0
H1212 H 0.40576 0.17949 0.54702 0.0
H1213 H 0.34586 0.1266 0.6 0.0
H1214 H 0.3509 0.18215 0.54721 0.0
H1215 H 0.40069 0.12576 0.60284 0.0
H1216 H 0.34762 0.14727 0.58088 0.0
H1217 H 0.40436 0.16025 0.56786 0.0
C1218 C 0.39343 0.1761 0.55149 0.0
C1219 C 0.37842 0.18241 0.54529 0.0
C1220 C 0.35928 0.14262 0.5857 0.0
C1221 C 0.37673 0.16035 0.56909 0.0
C1222 C 0.35828 0.13075 0.59655 0.0
C1223 C 0.37316 0.12439 0.60293 0.0
C1224 C 0.37528 0.14816 0.58111 0.0
C1225 C 0.3889 0.1304 0.59827 0.0
C1226 C 0.39264 0.16511 0.56339 0.0
C1227 C 0.3628 0.17759 0.55158 0.0
N1228 N 0.38956 0.1419 0.58757 0.0
N1229 N 0.36237 0.16681 0.56306 0.0
H1230 H 0.06311 0.12828 0.77872 0.0
H1231 H 0.08747 0.1415 0.87062 0.0
H1232 H 0.02678 0.13863 0.81572 0.0
H1233 H 0.12428 0.12907 0.83478 0.0
H1234 H 0.06542 0.14192 0.85013 0.0
H1235 H 0.08601 0.1298 0.79857 0.0
C1236 C 0.05994 0.13093 0.79098 0.0
C1237 C 0.04297 0.13327 0.79555 0.0
C1238 C 0.07832 0.13915 0.8467 0.0
C1239 C 0.06909 0.13502 0.8183 0.0
C1240 C 0.09096 0.13901 0.8584 0.0
C1241 C 0.10778 0.13527 0.85443 0.0
C1242 C 0.08245 0.1355 0.83086 0.0
C1243 C 0.11145 0.13186 0.83841 0.0
C1244 C 0.07302 0.13178 0.8023 0.0
C1245 C 0.03964 0.13668 0.81162 0.0
N1246 N 0.09888 0.13204 0.82721 0.0
N1247 N 0.05255 0.13741 0.82238 0.0
H1248 H 0.92763 0.38364 0.78316 0.0
H1249 H 0.89795 0.36099 0.87043 0.0
H1250 H 0.95407 0.35083 0.81209 0.0
H1251 H 0.86363 0.38093 0.83607 0.0
H1252 H 0.91922 0.35827 0.84956 0.0
H1253 H 0.90458 0.38404 0.80276 0.0
C1254 C 0.92856 0.37647 0.79358 0.0
C1255 C 0.94284 0.36723 0.79602 0.0
C1256 C 0.90699 0.36315 0.84656 0.0
C1257 C 0.91662 0.36776 0.81851 0.0
C1258 C 0.89476 0.36464 0.85847 0.0
C1259 C 0.87889 0.3712 0.85507 0.0
C1260 C 0.90349 0.36845 0.83114 0.0
C1261 C 0.87576 0.37604 0.83936 0.0
C1262 C 0.91538 0.37668 0.80473 0.0
C1263 C 0.94332 0.35813 0.80971 0.0
N1264 N 0.88799 0.37466 0.82801 0.0
N1265 N 0.93048 0.35873 0.8205 0.0
H1266 H 0.90881 0.64956 0.03133 0.0
H1267 H 0.87781 0.62861 0.11923 0.0
H1268 H 0.88859 0.68248 0.06435 0.0
H1269 H 0.88403 0.59554 0.08178 0.0
H1270 H 0.88497 0.64859 0.10027 0.0
H1271 H 0.90311 0.6297 0.05076 0.0
C1272 C 0.90327 0.65264 0.0427 0.0
C1273 C 0.89913 0.66772 0.0462 0.0
C1274 C 0.88476 0.63696 0.0962 0.0
C1275 C 0.89259 0.64501 0.06848 0.0
C1276 C 0.88078 0.62557 0.10702 0.0
C1277 C 0.88034 0.61042 0.10204 0.0
C1278 C 0.88851 0.63317 0.08032 0.0
C1279 C 0.8841 0.6071 0.08606 0.0
C1280 C 0.89995 0.64127 0.05375 0.0
C1281 C 0.89193 0.67101 0.06112 0.0
N1282 N 0.88809 0.61838 0.07577 0.0
N1283 N 0.8889 0.65974 0.07173 0.0
H1284 H 0.54381 0.59808 0.29657 0.0
H1285 H 0.58456 0.62334 0.37861 0.0
H1286 H 0.52282 0.63478 0.32422 0.0
H1287 H 0.61632 0.60987 0.33898 0.0
H1288 H 0.56008 0.62372 0.36067 0.0
H1289 H 0.56902 0.59822 0.31398 0.0
C1290 C 0.54451 0.60613 0.30631 0.0
C1291 C 0.53126 0.61645 0.30897 0.0
C1292 C 0.57245 0.62071 0.35596 0.0
C1293 C 0.55975 0.61647 0.32895 0.0
C1294 C 0.5865 0.62058 0.36615 0.0
C1295 C 0.6027 0.61668 0.36036 0.0
C1296 C 0.57446 0.61657 0.33993 0.0
C1297 C 0.60413 0.61273 0.34413 0.0
C1298 C 0.55888 0.60624 0.31615 0.0
C1299 C 0.5328 0.6267 0.32171 0.0
N1300 N 0.59017 0.61268 0.33451 0.0
N1301 N 0.54672 0.62634 0.33135 0.0
H1302 H 0.89701 0.30569 0.4222 0.0
H1303 H 0.84264 0.35603 0.36138 0.0
H1304 H 0.84226 0.30952 0.42387 0.0
H1305 H 0.89755 0.35503 0.36255 0.0
H1306 H 0.84208 0.33743 0.38287 0.0
H1307 H 0.89726 0.32204 0.39882 0.0
C1308 C 0.88502 0.3099 0.41761 0.0
C1309 C 0.86959 0.30629 0.42509 0.0
C1310 C 0.85425 0.34123 0.37837 0.0
C1311 C 0.86981 0.32508 0.3983 0.0
C1312 C 0.85458 0.35189 0.36614 0.0
C1313 C 0.87016 0.35715 0.36018 0.0
C1314 C 0.86962 0.33577 0.38471 0.0
C1315 C 0.88523 0.35119 0.36664 0.0
C1316 C 0.88518 0.31926 0.40426 0.0
C1317 C 0.85446 0.31206 0.41855 0.0
N1318 N 0.88458 0.34088 0.37859 0.0
N1319 N 0.85496 0.32121 0.40557 0.0
H1320 H 0.61297 0.70119 0.9533 0.0
H1321 H 0.5677 0.64734 0.88892 0.0
H1322 H 0.55957 0.68989 0.95362 0.0
H1323 H 0.62178 0.65584 0.88948 0.0
H1324 H 0.56444 0.6642 0.91174 0.0
H1325 H 0.61641 0.68605 0.92901 0.0
C1326 C 0.60191 0.6958 0.94809 0.0
C1327 C 0.58589 0.69702 0.95533 0.0
C1328 C 0.57704 0.66242 0.90688 0.0
C1329 C 0.58982 0.67934 0.92784 0.0
C1330 C 0.57889 0.65285 0.89377 0.0
C1331 C 0.59503 0.65019 0.88724 0.0
C1332 C 0.59143 0.66943 0.91359 0.0
C1333 C 0.60911 0.65745 0.89423 0.0
C1334 C 0.60392 0.68699 0.93433 0.0
C1335 C 0.57214 0.68927 0.94841 0.0
N1336 N 0.60699 0.66675 0.90703 0.0
N1337 N 0.57442 0.68078 0.93508 0.0
H1338 H 0.78991 0.57798 0.88045 0.0
H1339 H 0.88755 0.5823 0.8538 0.0
H1340 H 0.81961 0.53871 0.86779 0.0
H1341 H 0.85813 0.62088 0.86899 0.0
H1342 H 0.86286 0.5661 0.85859 0.0
H1343 H 0.81492 0.59377 0.87642 0.0
C1344 C 0.80171 0.57264 0.87688 0.0
C1345 C 0.80262 0.55697 0.87442 0.0
C1346 C 0.86182 0.57811 0.86089 0.0
C1347 C 0.83138 0.57507 0.86969 0.0
C1348 C 0.87587 0.58737 0.85806 0.0
C1349 C 0.87491 0.60298 0.86101 0.0
C1350 C 0.84666 0.58449 0.86666 0.0
C1351 C 0.85952 0.6089 0.86674 0.0
C1352 C 0.81601 0.58169 0.87457 0.0
C1353 C 0.8183 0.55073 0.86983 0.0
N1354 N 0.84602 0.59966 0.86934 0.0
N1355 N 0.83205 0.55981 0.86755 0.0
H1356 H 0.18576 0.03726 0.63195 0.0
H1357 H 0.124 0.08972 0.57991 0.0
H1358 H 0.18175 0.03451 0.58062 0.0
H1359 H 0.1303 0.09411 0.6309 0.0
H1360 H 0.14406 0.06863 0.58005 0.0
H1361 H 0.16405 0.05698 0.63196 0.0
C1362 C 0.18024 0.04072 0.62068 0.0
C1363 C 0.18566 0.03425 0.60625 0.0
C1364 C 0.14103 0.07418 0.59121 0.0
C1365 C 0.16083 0.05692 0.60618 0.0
C1366 C 0.12966 0.08629 0.59113 0.0
C1367 C 0.12548 0.09373 0.60541 0.0
C1368 C 0.14832 0.06946 0.60568 0.0
C1369 C 0.13299 0.08862 0.61963 0.0
C1370 C 0.16786 0.05202 0.62069 0.0
C1371 C 0.17801 0.03919 0.59203 0.0
N1372 N 0.14406 0.07683 0.6194 0.0
N1373 N 0.16604 0.05027 0.59235 0.0
H1374 H 0.69617 0.4402 0.37145 0.0
H1375 H 0.63736 0.38145 0.32409 0.0
H1376 H 0.68801 0.44273 0.32055 0.0
H1377 H 0.6338 0.38967 0.37481 0.0
H1378 H 0.65871 0.40154 0.32232 0.0
H1379 H 0.67644 0.41893 0.37261 0.0
C1380 C 0.69032 0.43623 0.36049 0.0
C1381 C 0.69369 0.44333 0.34589 0.0
C1382 C 0.65326 0.39887 0.33382 0.0
C1383 C 0.67108 0.41895 0.34716 0.0
C1384 C 0.64101 0.38746 0.33484 0.0
C1385 C 0.63374 0.38378 0.34964 0.0
C1386 C 0.65839 0.40657 0.34769 0.0
C1387 C 0.63923 0.39184 0.36319 0.0
C1388 C 0.679 0.42412 0.36118 0.0
C1389 C 0.68571 0.43766 0.33208 0.0
N1390 N 0.65121 0.4028 0.36189 0.0
N1391 N 0.67476 0.4258 0.33305 0.0
H1392 H 0.31525 0.94043 0.13888 0.0
H1393 H 0.37198 0.8799 0.09209 0.0
H1394 H 0.31046 0.9321 0.08827 0.0
H1395 H 0.36593 0.88019 0.1433 0.0
H1396 H 0.35202 0.90099 0.09023 0.0
H1397 H 0.33679 0.92059 0.14041 0.0
C1398 C 0.31881 0.93452 0.12806 0.0
C1399 C 0.31096 0.9379 0.11343 0.0
C1400 C 0.3551 0.89643 0.10187 0.0
C1401 C 0.33562 0.91515 0.11513 0.0
C1402 C 0.36642 0.88433 0.10295 0.0
C1403 C 0.37064 0.87817 0.11788 0.0
C1404 C 0.34802 0.90254 0.11582 0.0
C1405 C 0.36328 0.88466 0.13154 0.0
C1406 C 0.33106 0.92314 0.12897 0.0
C1407 C 0.3161 0.92983 0.09982 0.0
N1408 N 0.35235 0.89647 0.13018 0.0
N1409 N 0.32809 0.91882 0.101 0.0
H1410 H 0.79162 0.43404 0.63825 0.0
H1411 H 0.85584 0.38289 0.58775 0.0
H1412 H 0.78869 0.42934 0.58701 0.0
H1413 H 0.85122 0.38053 0.63901 0.0
H1414 H 0.83226 0.40087 0.58713 0.0
H1415 H 0.81479 0.41567 0.63866 0.0
C1416 C 0.79587 0.42918 0.62707 0.0
C1417 C 0.78818 0.43324 0.61257 0.0
C1418 C 0.83639 0.39638 0.5985 0.0
C1419 C 0.81473 0.41219 0.61297 0.0
C1420 C 0.84979 0.38604 0.59887 0.0
C1421 C 0.85557 0.38017 0.61346 0.0
C1422 C 0.82876 0.40099 0.61284 0.0
C1423 C 0.84741 0.38492 0.6275 0.0
C1424 C 0.80907 0.41865 0.62733 0.0
C1425 C 0.79421 0.42653 0.59847 0.0
N1426 N 0.83447 0.39507 0.62684 0.0
N1427 N 0.80716 0.41636 0.59902 0.0
H1428 H 0.27791 0.0527 0.34192 0.0
H1429 H 0.34248 0.10669 0.38852 0.0
H1430 H 0.27759 0.05708 0.39325 0.0
H1431 H 0.33115 0.11075 0.33826 0.0
H1432 H 0.31994 0.08771 0.39078 0.0
H1433 H 0.29917 0.0727 0.34054 0.0
C1434 C 0.28236 0.05782 0.35293 0.0
C1435 C 0.27594 0.05318 0.36774 0.0
C1436 C 0.32236 0.09284 0.37929 0.0
C1437 C 0.30034 0.07617 0.36621 0.0
C1438 C 0.33514 0.10375 0.378 0.0
C1439 C 0.33884 0.11027 0.36314 0.0
C1440 C 0.3133 0.08833 0.36561 0.0
C1441 C 0.32903 0.10582 0.34989 0.0
C1442 C 0.29444 0.06931 0.35212 0.0
C1443 C 0.28216 0.06031 0.38158 0.0
N1444 N 0.31683 0.09507 0.35142 0.0
N1445 N 0.29407 0.07142 0.38049 0.0
H1446 H 0.66091 0.53567 0.09335 0.0
H1447 H 0.61004 0.58839 0.1542 0.0
H1448 H 0.67156 0.53763 0.14389 0.0
H1449 H 0.59528 0.58201 0.10497 0.0
H1450 H 0.63184 0.569 0.15093 0.0
H1451 H 0.63617 0.55188 0.09754 0.0
C1452 C 0.65799 0.53942 0.10535 0.0
C1453 C 0.66842 0.53535 0.11827 0.0
C1454 C 0.62375 0.57176 0.14087 0.0
C1455 C 0.64014 0.55402 0.12314 0.0
C1456 C 0.61121 0.58278 0.14275 0.0
C1457 C 0.60083 0.58692 0.12981 0.0
C1458 C 0.62604 0.56486 0.12591 0.0
C1459 C 0.60317 0.57939 0.1152 0.0
C1460 C 0.64384 0.54867 0.10774 0.0
C1461 C 0.66394 0.54051 0.13356 0.0
N1462 N 0.61558 0.56881 0.11362 0.0
N1463 N 0.65022 0.54966 0.13555 0.0
H1464 H 0.1503 0.958 0.85431 0.0
H1465 H 0.13043 0.86951 0.86078 0.0
H1466 H 0.18943 0.92423 0.8603 0.0
H1467 H 0.09294 0.90307 0.84825 0.0
H1468 H 0.15215 0.88937 0.86173 0.0
H1469 H 0.12903 0.93797 0.85297 0.0
C1470 C 0.15444 0.94637 0.85532 0.0
C1471 C 0.17171 0.94281 0.85742 0.0
C1472 C 0.13918 0.89237 0.85872 0.0
C1473 C 0.14733 0.91977 0.85596 0.0
C1474 C 0.12678 0.88106 0.85827 0.0
C1475 C 0.10987 0.88464 0.85438 0.0
C1476 C 0.13461 0.90738 0.8554 0.0
C1477 C 0.10586 0.89977 0.85108 0.0
C1478 C 0.14227 0.93493 0.85454 0.0
C1479 C 0.17628 0.92751 0.85865 0.0
N1480 N 0.11811 0.91057 0.85171 0.0
N1481 N 0.16415 0.91656 0.85795 0.0
H1482 H 0.8233 0.76839 0.56563 0.0
H1483 H 0.80861 0.85712 0.57819 0.0
H1484 H 0.82621 0.80131 0.52781 0.0
H1485 H 0.80989 0.82517 0.61698 0.0
H1486 H 0.81285 0.83642 0.55937 0.0
H1487 H 0.8163 0.78865 0.58438 0.0
C1488 C 0.82238 0.77986 0.56123 0.0
C1489 C 0.82542 0.78315 0.54511 0.0
C1490 C 0.81214 0.8339 0.57198 0.0
C1491 C 0.81743 0.80639 0.56654 0.0
C1492 C 0.80959 0.84571 0.58274 0.0
C1493 C 0.80883 0.84287 0.5992 0.0
C1494 C 0.81398 0.81908 0.57767 0.0
C1495 C 0.81054 0.82788 0.60441 0.0
C1496 C 0.81841 0.79142 0.57197 0.0
C1497 C 0.82404 0.79823 0.54012 0.0
N1498 N 0.81305 0.81654 0.59368 0.0
N1499 N 0.82019 0.80927 0.5508 0.0
H1500 H 0.91848 0.15865 0.2853 0.0
H1501 H 0.8844 0.11345 0.3613 0.0
H1502 H 0.9245 0.11052 0.29138 0.0
H1503 H 0.87055 0.15962 0.351 0.0
H1504 H 0.90064 0.11259 0.33654 0.0
H1505 H 0.90244 0.15966 0.31022 0.0
C1506 C 0.91644 0.14829 0.29187 0.0
C1507 C 0.92283 0.13447 0.28622 0.0
C1508 C 0.89404 0.1229 0.3397 0.0
C1509 C 0.90453 0.13557 0.31479 0.0
C1510 C 0.88469 0.12339 0.3538 0.0
C1511 C 0.87601 0.13661 0.35824 0.0
C1512 C 0.89483 0.13575 0.32994 0.0
C1513 C 0.87718 0.14924 0.34818 0.0
C1514 C 0.90726 0.14888 0.30609 0.0
C1515 C 0.91978 0.12142 0.29524 0.0
N1516 N 0.8864 0.14849 0.33451 0.0
N1517 N 0.91088 0.12229 0.30909 0.0
H1518 H 0.67059 0.1978 0.02145 0.0
H1519 H 0.66353 0.1773 0.11416 0.0
H1520 H 0.63766 0.22154 0.05419 0.0
H1521 H 0.68932 0.14981 0.07909 0.0
H1522 H 0.65724 0.19584 0.09333 0.0
H1523 H 0.68109 0.18252 0.04353 0.0
C1524 C 0.66565 0.19989 0.0333 0.0
C1525 C 0.65308 0.21088 0.03592 0.0
C1526 C 0.66443 0.18581 0.09027 0.0
C1527 C 0.66504 0.19333 0.0613 0.0
C1528 C 0.66798 0.1752 0.10214 0.0
C1529 C 0.67693 0.16191 0.09841 0.0
C1530 C 0.66989 0.18314 0.07457 0.0
C1531 C 0.6826 0.15994 0.08265 0.0
C1532 C 0.67164 0.19113 0.04592 0.0
C1533 C 0.64726 0.21312 0.05159 0.0
N1534 N 0.6789 0.17037 0.07134 0.0
N1535 N 0.6532 0.20435 0.06367 0.0
H1536 H 0.57473 0.86149 0.75701 0.0
H1537 H 0.60725 0.82901 0.84069 0.0
H1538 H 0.54317 0.83659 0.78982 0.0
H1539 H 0.63927 0.85435 0.80867 0.0
H1540 H 0.58431 0.83011 0.82114 0.0
H1541 H 0.59909 0.85753 0.77474 0.0
C1542 C 0.57293 0.85511 0.76788 0.0
C1543 C 0.55683 0.84945 0.77197 0.0
C1544 C 0.59637 0.83536 0.81832 0.0
C1545 C 0.58466 0.84492 0.79233 0.0
C1546 C 0.60955 0.83464 0.82945 0.0
C1547 C 0.62526 0.84157 0.82632 0.0
C1548 C 0.59882 0.84314 0.80393 0.0
C1549 C 0.62732 0.84898 0.81165 0.0
C1550 C 0.58685 0.85287 0.778 0.0
C1551 C 0.55529 0.84124 0.7862 0.0
N1552 N 0.61423 0.84962 0.80102 0.0
N1553 N 0.56899 0.83929 0.79588 0.0
H1554 H 0.85803 0.21317 0.92421 0.0
H1555 H 0.80788 0.14709 0.87857 0.0
H1556 H 0.80744 0.19844 0.93676 0.0
H1557 H 0.86137 0.15629 0.87215 0.0
H1558 H 0.80619 0.16839 0.89712 0.0
H1559 H 0.85801 0.19507 0.90211 0.0
C1560 C 0.84684 0.20626 0.92222 0.0
C1561 C 0.83277 0.20723 0.93247 0.0
C1562 C 0.81827 0.16581 0.89156 0.0
C1563 C 0.8327 0.18646 0.90721 0.0
C1564 C 0.81926 0.1536 0.88102 0.0
C1565 C 0.83483 0.14978 0.87387 0.0
C1566 C 0.83294 0.17431 0.89499 0.0
C1567 C 0.84907 0.15886 0.87725 0.0
C1568 C 0.84686 0.19589 0.90963 0.0
C1569 C 0.81862 0.198 0.92927 0.0
N1570 N 0.84781 0.17063 0.88763 0.0
N1571 N 0.81899 0.18795 0.91699 0.0
H1572 H 0.54215 0.15618 0.68903 0.0
H1573 H 0.622 0.13263 0.6355 0.0
H1574 H 0.57151 0.1156 0.69666 0.0
H1575 H 0.58384 0.16498 0.62109 0.0
H1576 H 0.60737 0.12975 0.66103 0.0
H1577 H 0.56139 0.16312 0.66742 0.0
C1578 C 0.55278 0.14883 0.68634 0.0
C1579 C 0.55508 0.13517 0.69455 0.0
C1580 C 0.60234 0.1376 0.65232 0.0
C1581 C 0.5771 0.14306 0.66977 0.0
C1582 C 0.61063 0.1392 0.63771 0.0
C1583 C 0.60405 0.14893 0.62598 0.0
C1584 C 0.58743 0.14584 0.65531 0.0
C1585 C 0.5895 0.15743 0.62974 0.0
C1586 C 0.56372 0.15279 0.67395 0.0
C1587 C 0.56914 0.12615 0.69055 0.0
N1588 N 0.58162 0.1556 0.64401 0.0
N1589 N 0.57954 0.13019 0.67835 0.0
H1590 H 0.60904 0.77605 0.41739 0.0
H1591 H 0.66934 0.8115 0.35053 0.0
H1592 H 0.66372 0.7713 0.41699 0.0
H1593 H 0.61684 0.82424 0.35734 0.0
H1594 H 0.66619 0.79234 0.37127 0.0
H1595 H 0.61057 0.78937 0.39193 0.0
C1596 C 0.62136 0.77765 0.41187 0.0
C1597 C 0.63631 0.77272 0.41946 0.0
C1598 C 0.6553 0.7992 0.36806 0.0
C1599 C 0.63811 0.78795 0.3903 0.0
C1600 C 0.65709 0.81014 0.35624 0.0
C1601 C 0.64341 0.81966 0.35233 0.0
C1602 C 0.63971 0.79772 0.37604 0.0
C1603 C 0.62773 0.81716 0.35989 0.0
C1604 C 0.62221 0.78528 0.39735 0.0
C1605 C 0.65189 0.77505 0.41168 0.0
N1606 N 0.62637 0.80656 0.37151 0.0
N1607 N 0.65239 0.7826 0.39759 0.0
H1608 H 0.92031 0.88753 0.20033 0.0
H1609 H 0.8705 0.82771 0.14572 0.0
H1610 H 0.92683 0.83925 0.20439 0.0
H1611 H 0.87654 0.87479 0.13356 0.0
H1612 H 0.88686 0.83214 0.17016 0.0
H1613 H 0.89964 0.88335 0.17891 0.0
C1614 C 0.91726 0.87604 0.19686 0.0
C1615 C 0.92545 0.86372 0.20407 0.0
C1616 C 0.88447 0.84151 0.16217 0.0
C1617 C 0.90181 0.85888 0.17956 0.0
C1618 C 0.87521 0.83898 0.14817 0.0
C1619 C 0.87222 0.85086 0.13744 0.0
C1620 C 0.89071 0.85603 0.16555 0.0
C1621 C 0.87832 0.8653 0.1415 0.0
C1622 C 0.90551 0.87368 0.18458 0.0
C1623 C 0.92095 0.84909 0.19907 0.0
N1624 N 0.88733 0.86746 0.15518 0.0
N1625 N 0.90949 0.84708 0.18708 0.0
H1626 H 0.02879 0.65428 0.17943 0.0
H1627 H 0.11934 0.63956 0.13884 0.0
H1628 H 0.06551 0.6222 0.19733 0.0
H1629 H 0.07798 0.66283 0.11543 0.0
H1630 H 0.10138 0.6362 0.1623 0.0
H1631 H 0.04846 0.66083 0.15801 0.0
C1632 C 0.04105 0.64872 0.17897 0.0
C1633 C 0.04544 0.63757 0.19014 0.0
C1634 C 0.09628 0.64211 0.15205 0.0
C1635 C 0.06799 0.64502 0.16561 0.0
C1636 C 0.10649 0.64397 0.13862 0.0
C1637 C 0.10014 0.65139 0.12505 0.0
C1638 C 0.07959 0.64776 0.152 0.0
C1639 C 0.0835 0.65717 0.12563 0.0
C1640 C 0.05224 0.65243 0.16669 0.0
C1641 C 0.06153 0.63077 0.18892 0.0
N1642 N 0.07379 0.65517 0.13885 0.0
N1643 N 0.07219 0.63456 0.17684 0.0
H1644 H 0.12043 0.29134 0.92959 0.0
H1645 H 0.18035 0.33354 0.86674 0.0
H1646 H 0.17507 0.29401 0.93448 0.0
H1647 H 0.12548 0.33587 0.86618 0.0
H1648 H 0.1789 0.31717 0.89017 0.0
H1649 H 0.1223 0.30561 0.90482 0.0
C1650 C 0.13285 0.29487 0.92543 0.0
C1651 C 0.14761 0.29153 0.9342 0.0
C1652 C 0.16718 0.32121 0.88485 0.0
C1653 C 0.14984 0.30793 0.90578 0.0
C1654 C 0.168 0.3306 0.87151 0.0
C1655 C 0.15302 0.33612 0.86445 0.0
C1656 C 0.15126 0.31729 0.89119 0.0
C1657 C 0.13736 0.33174 0.87104 0.0
C1658 C 0.1339 0.30305 0.91128 0.0
C1659 C 0.16334 0.29638 0.92817 0.0
N1660 N 0.13691 0.32263 0.88404 0.0
N1661 N 0.16404 0.30437 0.91435 0.0
H1662 H 0.40735 0.37297 0.70712 0.0
H1663 H 0.3559 0.32412 0.64268 0.0
H1664 H 0.41221 0.32451 0.70316 0.0
H1665 H 0.36726 0.37161 0.63733 0.0
H1666 H 0.37163 0.32418 0.66792 0.0
H1667 H 0.3871 0.37262 0.68496 0.0
C1668 C 0.40397 0.36222 0.70178 0.0
C1669 C 0.41164 0.34875 0.70692 0.0
C1670 C 0.37054 0.33458 0.66123 0.0
C1671 C 0.3885 0.34833 0.68149 0.0
C1672 C 0.36166 0.33456 0.64676 0.0
C1673 C 0.36029 0.34787 0.63771 0.0
C1674 C 0.37794 0.34803 0.66682 0.0
C1675 C 0.36771 0.36111 0.6439 0.0
C1676 C 0.39248 0.36205 0.68906 0.0
C1677 C 0.40672 0.33517 0.69951 0.0
N1678 N 0.37621 0.36084 0.65802 0.0
N1679 N 0.39553 0.33531 0.6871 0.0
H1680 H 0.12092 0.71616 0.566 0.0
H1681 H 0.16543 0.64153 0.59844 0.0
H1682 H 0.16065 0.69249 0.54071 0.0
H1683 H 0.13573 0.671 0.62865 0.0
H1684 H 0.16353 0.66005 0.57714 0.0
H1685 H 0.12575 0.69976 0.58903 0.0
C1686 C 0.13074 0.7076 0.56532 0.0
C1687 C 0.14033 0.70565 0.55135 0.0
C1688 C 0.15754 0.66254 0.58847 0.0
C1689 C 0.1458 0.68678 0.57761 0.0
C1690 C 0.15872 0.65199 0.60073 0.0
C1691 C 0.15079 0.65468 0.61546 0.0
C1692 C 0.14818 0.67586 0.59081 0.0
C1693 C 0.14187 0.66832 0.61745 0.0
C1694 C 0.13349 0.69825 0.57848 0.0
C1695 C 0.15291 0.69439 0.55118 0.0
N1696 N 0.14072 0.67836 0.60523 0.0
N1697 N 0.15517 0.68531 0.56405 0.0
H1698 H 0.32977 0.28393 0.05193 0.0
H1699 H 0.37273 0.34401 0.11113 0.0
H1700 H 0.38381 0.28598 0.0612 0.0
H1701 H 0.31842 0.33824 0.1061 0.0
H1702 H 0.3771 0.32289 0.09278 0.0
H1703 H 0.32543 0.30421 0.0713 0.0
C1704 C 0.34074 0.28866 0.05801 0.0
C1705 C 0.35719 0.28324 0.0549 0.0
C1706 C 0.36423 0.3262 0.09575 0.0
C1707 C 0.35229 0.30648 0.07715 0.0
C1708 C 0.36171 0.33819 0.10633 0.0
C1709 C 0.34517 0.34293 0.11018 0.0
C1710 C 0.35011 0.3189 0.08889 0.0
C1711 C 0.3314 0.33513 0.10331 0.0
C1712 C 0.33824 0.30022 0.06911 0.0
C1713 C 0.3709 0.28979 0.06319 0.0
N1714 N 0.33418 0.32354 0.09297 0.0
N1715 N 0.36815 0.30108 0.07391 0.0
H1716 H 0.53501 0.39118 0.18565 0.0
H1717 H 0.59975 0.34584 0.12953 0.0
H1718 H 0.53732 0.34248 0.18318 0.0
H1719 H 0.59499 0.39442 0.1298 0.0
H1720 H 0.57768 0.34438 0.14995 0.0
H1721 H 0.55795 0.39259 0.16614 0.0
C1722 C 0.54037 0.38078 0.18105 0.0
C1723 C 0.53417 0.36669 0.18604 0.0
C1724 C 0.58148 0.35536 0.14556 0.0
C1725 C 0.56046 0.36823 0.16364 0.0
C1726 C 0.59401 0.3562 0.13384 0.0
C1727 C 0.59921 0.37028 0.12791 0.0
C1728 C 0.57406 0.36869 0.15142 0.0
C1729 C 0.59153 0.38334 0.13414 0.0
C1730 C 0.55346 0.38159 0.16989 0.0
C1731 C 0.54165 0.35359 0.17966 0.0
N1732 N 0.57933 0.38223 0.14553 0.0
N1733 N 0.55437 0.35469 0.16878 0.0
H1734 H 0.94757 0.62832 0.65459 0.0
H1735 H 0.89468 0.57198 0.5984 0.0
H1736 H 0.95457 0.57993 0.65453 0.0
H1737 H 0.88574 0.62002 0.60147 0.0
H1738 H 0.91883 0.57486 0.61667 0.0
H1739 H 0.92735 0.6257 0.63264 0.0
C1740 C 0.94498 0.61714 0.64987 0.0
C1741 C 0.95267 0.60431 0.65654 0.0
C1742 C 0.91167 0.58478 0.61322 0.0
C1743 C 0.92937 0.60122 0.63141 0.0
C1744 C 0.89784 0.58313 0.60285 0.0
C1745 C 0.88811 0.59576 0.59842 0.0
C1746 C 0.91578 0.59916 0.61926 0.0
C1747 C 0.89296 0.60998 0.60437 0.0
C1748 C 0.93339 0.61565 0.63733 0.0
C1749 C 0.94888 0.59013 0.64983 0.0
N1750 N 0.90637 0.61127 0.61455 0.0
N1751 N 0.93738 0.58896 0.63773 0.0
H1752 H 0.61499 0.31892 0.54542 0.0
H1753 H 0.55714 0.37196 0.60051 0.0
H1754 H 0.56006 0.31833 0.5438 0.0
H1755 H 0.61184 0.36894 0.60422 0.0
H1756 H 0.55768 0.35249 0.57969 0.0
H1757 H 0.61383 0.33743 0.56692 0.0
C1758 C 0.60266 0.32265 0.54961 0.0
C1759 C 0.58759 0.31707 0.54275 0.0
C1760 C 0.56955 0.35611 0.58507 0.0
C1761 C 0.58618 0.33839 0.56742 0.0
C1762 C 0.56925 0.36718 0.59699 0.0
C1763 C 0.58448 0.37217 0.60406 0.0
C1764 C 0.58519 0.34998 0.5802 0.0
C1765 C 0.59981 0.36567 0.59891 0.0
C1766 C 0.602 0.33324 0.56192 0.0
C1767 C 0.572 0.32231 0.54874 0.0
N1768 N 0.59976 0.35495 0.5873 0.0
N1769 N 0.57169 0.33274 0.5607 0.0
H1770 H 0.38365 0.6201 0.78694 0.0
H1771 H 0.37991 0.63262 0.88157 0.0
H1772 H 0.4267 0.63498 0.81503 0.0
H1773 H 0.33763 0.61665 0.85316 0.0
H1774 H 0.39714 0.63418 0.85735 0.0
H1775 H 0.36653 0.61925 0.81112 0.0
C1776 C 0.38952 0.6232 0.79819 0.0
C1777 C 0.40667 0.6276 0.79893 0.0
C1778 C 0.3841 0.63033 0.85643 0.0
C1779 C 0.38707 0.62665 0.82675 0.0
C1780 C 0.37423 0.62951 0.87023 0.0
C1781 C 0.35731 0.62445 0.8694 0.0
C1782 C 0.37699 0.62609 0.84167 0.0
C1783 C 0.35068 0.6204 0.85441 0.0
C1784 C 0.37972 0.62271 0.81202 0.0
C1785 C 0.41355 0.6315 0.81388 0.0
N1786 N 0.36052 0.62131 0.84116 0.0
N1787 N 0.40373 0.63093 0.8272 0.0
H1788 H 0.07343 0.33024 0.29253 0.0
H1789 H 0.11891 0.37429 0.36325 0.0
H1790 H 0.0735 0.37889 0.29649 0.0
H1791 H 0.13727 0.3308 0.34725 0.0
H1792 H 0.09976 0.37506 0.34043 0.0
H1793 H 0.09466 0.32909 0.31406 0.0
C1794 C 0.07797 0.34067 0.29784 0.0
C1795 C 0.07165 0.35469 0.29273 0.0
C1796 C 0.10805 0.36539 0.34187 0.0
C1797 C 0.09564 0.35341 0.31742 0.0
C1798 C 0.11911 0.36495 0.35487 0.0
C1799 C 0.12998 0.35254 0.35716 0.0
C1800 C 0.10754 0.35321 0.33114 0.0
C1801 C 0.12907 0.34056 0.34611 0.0
C1802 C 0.09009 0.33999 0.31008 0.0
C1803 C 0.07801 0.36784 0.30001 0.0
N1804 N 0.11799 0.34116 0.3336 0.0
N1805 N 0.08951 0.36686 0.31208 0.0
H1806 H 0.30001 0.68389 0.43416 0.0
H1807 H 0.32251 0.6553 0.34606 0.0
H1808 H 0.32488 0.71252 0.3997 0.0
H1809 H 0.31027 0.62609 0.38559 0.0
H1810 H 0.3199 0.67719 0.36394 0.0
H1811 H 0.29938 0.66357 0.41459 0.0
C1812 C 0.30523 0.68597 0.42242 0.0
C1813 C 0.31268 0.69993 0.41865 0.0
C1814 C 0.31769 0.66596 0.36861 0.0
C1815 C 0.31208 0.67652 0.39612 0.0
C1816 C 0.31925 0.65346 0.35845 0.0
C1817 C 0.31652 0.63877 0.36426 0.0
C1818 C 0.31327 0.66376 0.38466 0.0
C1819 C 0.31213 0.63714 0.3804 0.0
C1820 C 0.30491 0.67431 0.41125 0.0
C1821 C 0.3191 0.70193 0.40316 0.0
N1822 N 0.31065 0.64944 0.38998 0.0
N1823 N 0.31875 0.6903 0.39247 0.0
H1824 H 0.14743 0.2901 0.03604 0.0
H1825 H 0.1032 0.36744 0.06052 0.0
H1826 H 0.11175 0.31382 0.0059 0.0
H1827 H 0.1269 0.33833 0.09523 0.0
H1828 H 0.10615 0.34756 0.04044 0.0
H1829 H 0.13998 0.30708 0.05812 0.0
C1830 C 0.13791 0.29876 0.0341 0.0
C1831 C 0.13034 0.30064 0.01904 0.0
C1832 C 0.11056 0.34542 0.05247 0.0
C1833 C 0.1219 0.32013 0.04416 0.0
C1834 C 0.10893 0.35678 0.0639 0.0
C1835 C 0.11491 0.3545 0.07948 0.0
C1836 C 0.11849 0.33174 0.05656 0.0
C1837 C 0.1221 0.34047 0.08333 0.0
C1838 C 0.13366 0.30843 0.04671 0.0
C1839 C 0.11803 0.312 0.01725 0.0
N1840 N 0.12391 0.32965 0.07187 0.0
N1841 N 0.11435 0.3214 0.02958 0.0
H1842 H 0.93757 0.90464 0.29139 0.0
H1843 H 0.88659 0.8508 0.35071 0.0
H1844 H 0.93796 0.85601 0.28732 0.0
H1845 H 0.89669 0.89789 0.36051 0.0
H1846 H 0.90457 0.85245 0.32702 0.0
H1847 H 0.92161 0.90246 0.31624 0.0
C1848 C 0.93435 0.8935 0.29575 0.0
C1849 C 0.93908 0.88049 0.28725 0.0
C1850 C 0.90289 0.8624 0.3344 0.0
C1851 C 0.9207 0.87791 0.31565 0.0
C1852 C 0.89268 0.86145 0.34798 0.0
C1853 C 0.89 0.87425 0.35761 0.0
C1854 C 0.9104 0.87627 0.33034 0.0
C1855 C 0.89807 0.8878 0.3533 0.0
C1856 C 0.92526 0.89226 0.30996 0.0
C1857 C 0.93459 0.86634 0.2935 0.0
N1858 N 0.90781 0.88847 0.33996 0.0
N1859 N 0.92555 0.86543 0.30727 0.0
H1860 H 0.33344 0.70891 0.5198 0.0
H1861 H 0.36957 0.62875 0.5458 0.0
H1862 H 0.36066 0.6791 0.48798 0.0
H1863 H 0.3536 0.66241 0.57992 0.0
H1864 H 0.36711 0.64749 0.52456 0.0
H1865 H 0.34151 0.69269 0.54221 0.0
C1866 C 0.34127 0.69907 0.51754 0.0
C1867 C 0.34622 0.69527 0.50196 0.0
C1868 C 0.36431 0.65086 0.53671 0.0
C1869 C 0.35534 0.67661 0.52749 0.0
C1870 C 0.36566 0.64014 0.54881 0.0
C1871 C 0.36167 0.64404 0.56458 0.0
C1872 C 0.35869 0.66553 0.54037 0.0
C1873 C 0.35684 0.65899 0.56789 0.0
C1874 C 0.34588 0.68981 0.53034 0.0
C1875 C 0.35642 0.68242 0.49976 0.0
N1876 N 0.35527 0.66916 0.55584 0.0
N1877 N 0.36046 0.67347 0.51234 0.0
H1878 H 0.52294 0.12431 0.78474 0.0
H1879 H 0.59366 0.09404 0.84514 0.0
H1880 H 0.55737 0.08779 0.77363 0.0
H1881 H 0.54966 0.11911 0.86098 0.0
H1882 H 0.58209 0.09385 0.81815 0.0
H1883 H 0.53412 0.12476 0.81208 0.0
C1884 C 0.53284 0.11639 0.78805 0.0
C1885 C 0.53923 0.10599 0.7769 0.0
C1886 C 0.57494 0.09936 0.82754 0.0
C1887 C 0.55213 0.10654 0.80804 0.0
C1888 C 0.58148 0.0994 0.84301 0.0
C1889 C 0.57253 0.10644 0.85547 0.0
C1890 C 0.5594 0.10656 0.82437 0.0
C1891 C 0.55707 0.11363 0.85177 0.0
C1892 C 0.53917 0.11664 0.80365 0.0
C1893 C 0.55203 0.09598 0.78184 0.0
N1894 N 0.55099 0.11351 0.83655 0.0
N1895 N 0.55811 0.09655 0.79701 0.0
H1896 H 0.12431 0.70959 0.44824 0.0
H1897 H 0.08333 0.63109 0.42425 0.0
H1898 H 0.09039 0.68483 0.47904 0.0
H1899 H 0.10387 0.66157 0.38922 0.0
H1900 H 0.0849 0.65122 0.44424 0.0
H1901 H 0.11613 0.69298 0.42608 0.0
C1902 C 0.11498 0.70081 0.4503 0.0
C1903 C 0.1082 0.69847 0.46558 0.0
C1904 C 0.08885 0.65362 0.43214 0.0
C1905 C 0.09895 0.67937 0.44035 0.0
C1906 C 0.08798 0.64212 0.42077 0.0
C1907 C 0.09356 0.64471 0.40515 0.0
C1908 C 0.09567 0.66773 0.42795 0.0
C1909 C 0.09941 0.65918 0.40116 0.0
C1910 C 0.1103 0.69134 0.43764 0.0
C1911 C 0.09608 0.68697 0.46752 0.0
N1912 N 0.10057 0.67012 0.41257 0.0
N1913 N 0.09204 0.67773 0.45512 0.0
H1914 H 0.55467 0.89042 0.68899 0.0
H1915 H 0.56542 0.85483 0.60214 0.0
H1916 H 0.53151 0.84801 0.67551 0.0
H1917 H 0.60109 0.88659 0.6227 0.0
H1918 H 0.55073 0.8536 0.62779 0.0
H1919 H 0.56926 0.89104 0.6633 0.0
C1920 C 0.55257 0.88128 0.68059 0.0
C1921 C 0.54187 0.86913 0.6844 0.0
C1922 C 0.56181 0.8608 0.62665 0.0
C1923 C 0.55853 0.86979 0.65498 0.0
C1924 C 0.57029 0.86144 0.61204 0.0
C1925 C 0.58452 0.87088 0.61016 0.0
C1926 C 0.56746 0.86978 0.63943 0.0
C1927 C 0.58999 0.87939 0.62341 0.0
C1928 C 0.56098 0.8816 0.66597 0.0
C1929 C 0.53968 0.85757 0.67307 0.0
N1930 N 0.5814 0.87871 0.63743 0.0
N1931 N 0.54791 0.8582 0.65882 0.0
H1932 H 0.33426 0.27977 0.96741 0.0
H1933 H 0.40186 0.33069 0.92045 0.0
H1934 H 0.38846 0.2769 0.97539 0.0
H1935 H 0.34766 0.33838 0.91995 0.0
H1936 H 0.39742 0.30894 0.93806 0.0
H1937 H 0.3392 0.29914 0.9473 0.0
C1938 C 0.34722 0.28312 0.96484 0.0
C1939 C 0.36096 0.27676 0.97318 0.0
C1940 C 0.38652 0.31538 0.93406 0.0
C1941 C 0.36671 0.29904 0.95018 0.0
C1942 C 0.38904 0.32774 0.92397 0.0
C1943 C 0.37512 0.33643 0.91886 0.0
C1944 C 0.36995 0.31161 0.93891 0.0
C1945 C 0.35878 0.33215 0.92382 0.0
C1946 C 0.35003 0.29423 0.95339 0.0
C1947 C 0.37748 0.28154 0.96931 0.0
N1948 N 0.35665 0.32008 0.93356 0.0
N1949 N 0.3799 0.29244 0.95813 0.0
H1950 H 0.89368 0.09718 0.20654 0.0
H1951 H 0.89026 0.12703 0.11643 0.0
H1952 H 0.93291 0.12522 0.18614 0.0
H1953 H 0.85283 0.09751 0.13739 0.0
H1954 H 0.90599 0.12703 0.14177 0.0
H1955 H 0.87869 0.09737 0.1811 0.0
C1956 C 0.89919 0.10335 0.19668 0.0
C1957 C 0.91459 0.11122 0.1985 0.0
C1958 C 0.89434 0.12054 0.14079 0.0
C1959 C 0.89735 0.11154 0.16922 0.0
C1960 C 0.88531 0.12062 0.12638 0.0
C1961 C 0.87026 0.11218 0.12476 0.0
C1962 C 0.88821 0.11204 0.15369 0.0
C1963 C 0.86451 0.10397 0.13799 0.0
C1964 C 0.89059 0.10347 0.18213 0.0
C1965 C 0.92109 0.11899 0.18526 0.0
N1966 N 0.87348 0.10411 0.15186 0.0
N1967 N 0.91241 0.119 0.17118 0.0
H1968 H 7e-05 0.15494 0.28592 0.0
H1969 H 0.07646 0.10284 0.31218 0.0
H1970 H 0.00879 0.11296 0.26092 0.0
H1971 H 0.04331 0.12439 0.34648 0.0
H1972 H 0.05613 0.10931 0.29103 0.0
H1973 H 0.02124 0.14751 0.30586 0.0
C1974 C 0.00662 0.14426 0.28449 0.0
C1975 C 0.00265 0.13452 0.27178 0.0
C1976 C 0.05342 0.11256 0.30323 0.0
C1977 C 0.02689 0.12605 0.29448 0.0
C1978 C 0.06492 0.1088 0.31536 0.0
C1979 C 0.06179 0.11319 0.33125 0.0
C1980 C 0.03893 0.12107 0.30695 0.0
C1981 C 0.04666 0.12113 0.33444 0.0
C1982 C 0.01858 0.14 0.29593 0.0
C1983 C 0.01146 0.12075 0.27059 0.0
N1984 N 0.03594 0.12497 0.3224 0.0
N1985 N 0.02327 0.11692 0.28179 0.0
H1986 H 0.09029 0.78726 0.53162 0.0
H1987 H 0.14587 0.84696 0.58024 0.0
H1988 H 0.1452 0.78637 0.53256 0.0
H1989 H 0.09237 0.85296 0.57027 0.0
H1990 H 0.14617 0.82525 0.56215 0.0
H1991 H 0.0909 0.81168 0.54525 0.0
C1992 C 0.10248 0.79226 0.53458 0.0
C1993 C 0.11771 0.78472 0.53104 0.0
C1994 C 0.1344 0.83141 0.56382 0.0
C1995 C 0.11851 0.81263 0.54678 0.0
C1996 C 0.13424 0.84387 0.57409 0.0
C1997 C 0.11903 0.85173 0.57694 0.0
C1998 C 0.11923 0.8267 0.55643 0.0
C1999 C 0.10431 0.84705 0.56874 0.0
C2000 C 0.10283 0.80623 0.54234 0.0
C2001 C 0.13315 0.79177 0.53509 0.0
N2002 N 0.10474 0.83477 0.55899 0.0
N2003 N 0.13315 0.80526 0.5429 0.0
H2004 H 0.45054 0.87425 0.76985 0.0
H2005 H 0.3738 0.83292 0.81428 0.0
H2006 H 0.44147 0.82617 0.76792 0.0
H2007 H 0.3837 0.88076 0.81795 0.0
H2008 H 0.3962 0.83084 0.79427 0.0
H2009 H 0.42376 0.87745 0.78423 0.0
C2010 C 0.44282 0.86438 0.77225 0.0
C2011 C 0.44839 0.84989 0.76785 0.0
C2012 C 0.39339 0.84182 0.79933 0.0
C2013 C 0.41777 0.85347 0.78442 0.0
C2014 C 0.38064 0.84301 0.8108 0.0
C2015 C 0.37703 0.857 0.81795 0.0
C2016 C 0.40271 0.85471 0.795 0.0
C2017 C 0.38605 0.86975 0.81273 0.0
C2018 C 0.42754 0.86622 0.78051 0.0
C2019 C 0.43779 0.83754 0.77122 0.0
N2020 N 0.39861 0.86828 0.80171 0.0
N2021 N 0.4231 0.8396 0.77944 0.0
H2022 H 0.36291 0.21388 0.08295 0.0
H2023 H 0.36818 0.12377 0.07856 0.0
H2024 H 0.37421 0.19024 0.0391 0.0
H2025 H 0.37505 0.14968 0.12177 0.0
H2026 H 0.36546 0.14751 0.06351 0.0
H2027 H 0.36225 0.18981 0.09692 0.0
C2028 C 0.36517 0.20361 0.07622 0.0
C2029 C 0.36876 0.2041 0.05983 0.0
C2030 C 0.3675 0.14794 0.07629 0.0
C2031 C 0.36797 0.17643 0.07583 0.0
C2032 C 0.36895 0.13446 0.08486 0.0
C2033 C 0.37195 0.13484 0.10137 0.0
C2034 C 0.36877 0.16183 0.08439 0.0
C2035 C 0.37293 0.14893 0.10901 0.0
C2036 C 0.36484 0.18987 0.08423 0.0
C2037 C 0.37152 0.19039 0.05176 0.0
N2038 N 0.37133 0.16185 0.10047 0.0
N2039 N 0.37109 0.17707 0.05985 0.0
H2040 H 0.01573 0.90482 0.21155 0.0
H2041 H 0.09534 0.86662 0.16898 0.0
H2042 H 0.03051 0.85833 0.21858 0.0
H2043 H 0.08353 0.91407 0.16533 0.0
H2044 H 0.07343 0.86401 0.1894 0.0
H2045 H 0.04218 0.90916 0.19706 0.0
C2046 C 0.02463 0.89556 0.21023 0.0
C2047 C 0.02077 0.88113 0.21611 0.0
C2048 C 0.07573 0.87504 0.18429 0.0
C2049 C 0.05104 0.886 0.19938 0.0
C2050 C 0.0882 0.87652 0.1726 0.0
C2051 C 0.09109 0.89055 0.16534 0.0
C2052 C 0.06593 0.88766 0.18866 0.0
C2053 C 0.0817 0.90306 0.17064 0.0
C2054 C 0.03975 0.89805 0.20194 0.0
C2055 C 0.03287 0.86961 0.21414 0.0
N2056 N 0.06937 0.90128 0.18184 0.0
N2057 N 0.04735 0.87225 0.20577 0.0
H2058 H 0.35727 0.78843 0.43085 0.0
H2059 H 0.31105 0.85669 0.38584 0.0
H2060 H 0.30269 0.7917 0.42598 0.0
H2061 H 0.36515 0.85432 0.39441 0.0
H2062 H 0.30729 0.83381 0.40188 0.0
H2063 H 0.36008 0.81323 0.41857 0.0
C2064 C 0.34586 0.79438 0.42724 0.0
C2065 C 0.32972 0.78792 0.42936 0.0
C2066 C 0.31997 0.83838 0.40034 0.0
C2067 C 0.33285 0.8164 0.41523 0.0
C2068 C 0.3221 0.85148 0.39127 0.0
C2069 C 0.33846 0.8573 0.38862 0.0
C2070 C 0.3343 0.83107 0.40678 0.0
C2071 C 0.35234 0.85004 0.39587 0.0
C2072 C 0.34747 0.80859 0.42025 0.0
C2073 C 0.31539 0.79623 0.42452 0.0
N2074 N 0.34996 0.83727 0.40449 0.0
N2075 N 0.31729 0.81 0.41758 0.0
H2076 H 0.46763 0.08301 0.69844 0.0
H2077 H 0.38628 0.12207 0.66011 0.0
H2078 H 0.44949 0.12728 0.71191 0.0
H2079 H 0.40088 0.07607 0.65004 0.0
H2080 H 0.40734 0.12297 0.68157 0.0
H2081 H 0.44137 0.0789 0.68337 0.0
C2082 C 0.45802 0.09178 0.69844 0.0
C2083 C 0.46091 0.10562 0.70623 0.0
C2084 C 0.40583 0.1126 0.67483 0.0
C2085 C 0.43088 0.10103 0.68886 0.0
C2086 C 0.39385 0.11211 0.66255 0.0
C2087 C 0.39204 0.09904 0.65318 0.0
C2088 C 0.41626 0.09999 0.67766 0.0
C2089 C 0.40194 0.08637 0.65698 0.0
C2090 C 0.44302 0.08942 0.68981 0.0
C2091 C 0.44792 0.1165 0.70593 0.0
N2092 N 0.41382 0.08722 0.66879 0.0
N2093 N 0.4336 0.11406 0.69718 0.0
H2094 H 0.10308 0.21542 0.95605 0.0
H2095 H 0.16099 0.15813 0.90607 0.0
H2096 H 0.15799 0.21672 0.9564 0.0
H2097 H 0.10613 0.15643 0.90716 0.0
H2098 H 0.16038 0.17815 0.92629 0.0
H2099 H 0.10413 0.1924 0.93999 0.0
C2100 C 0.11537 0.21078 0.95289 0.0
C2101 C 0.13047 0.21808 0.95748 0.0
C2102 C 0.14848 0.17333 0.92217 0.0
C2103 C 0.13177 0.19176 0.93892 0.0
C2104 C 0.14883 0.16185 0.91068 0.0
C2105 C 0.13358 0.15571 0.90478 0.0
C2106 C 0.13277 0.17871 0.92779 0.0
C2107 C 0.11818 0.16106 0.91111 0.0
C2108 C 0.11597 0.19763 0.94368 0.0
C2109 C 0.14603 0.2115 0.95307 0.0
N2110 N 0.11817 0.17229 0.92218 0.0
N2111 N 0.14628 0.19879 0.94392 0.0
H2112 H 0.29984 0.02264 0.14817 0.0
H2113 H 0.34898 0.08271 0.09373 0.0
H2114 H 0.29947 0.02104 0.09667 0.0
H2115 H 0.35233 0.08118 0.1451 0.0
H2116 H 0.32878 0.06159 0.0944 0.0
H2117 H 0.31704 0.04554 0.14711 0.0
C2118 C 0.3033 0.02715 0.13662 0.0
C2119 C 0.29828 0.01985 0.12249 0.0
C2120 C 0.33391 0.06591 0.10552 0.0
C2121 C 0.31808 0.04611 0.12118 0.0
C2122 C 0.34537 0.078 0.10514 0.0
C2123 C 0.35248 0.08359 0.11937 0.0
C2124 C 0.32947 0.05946 0.12024 0.0
C2125 C 0.34742 0.07703 0.13382 0.0
C2126 C 0.31316 0.04023 0.13602 0.0
C2127 C 0.30311 0.02626 0.10787 0.0
N2128 N 0.33628 0.06531 0.13388 0.0
N2129 N 0.31281 0.03899 0.10759 0.0
H2130 H 0.7756 0.46442 0.90053 0.0
H2131 H 0.85504 0.4176 0.87169 0.0
H2132 H 0.8013 0.4742 0.85632 0.0
H2133 H 0.81215 0.39424 0.89237 0.0
H2134 H 0.83815 0.4406 0.87068 0.0
H2135 H 0.79137 0.44042 0.90219 0.0
C2136 C 0.78451 0.4615 0.89118 0.0
C2137 C 0.78715 0.47126 0.87825 0.0
C2138 C 0.83248 0.43041 0.87543 0.0
C2139 C 0.80536 0.44423 0.8803 0.0
C2140 C 0.84205 0.41719 0.87592 0.0
C2141 C 0.83495 0.40373 0.88179 0.0
C2142 C 0.81579 0.43039 0.88123 0.0
C2143 C 0.81824 0.40428 0.88777 0.0
C2144 C 0.79342 0.44784 0.89212 0.0
C2145 C 0.79881 0.46696 0.86644 0.0
N2146 N 0.80921 0.41742 0.88737 0.0
N2147 N 0.80764 0.45385 0.86785 0.0
H2148 H 0.76479 0.53894 0.08529 0.0
H2149 H 0.85537 0.54595 0.12856 0.0
H2150 H 0.78199 0.50684 0.12052 0.0
H2151 H 0.82999 0.58227 0.10371 0.0
H2152 H 0.83097 0.52952 0.12266 0.0
H2153 H 0.7915 0.5526 0.0882 0.0
C2154 C 0.77425 0.53466 0.09354 0.0
C2155 C 0.77102 0.52182 0.10284 0.0
C2156 C 0.83088 0.54106 0.11843 0.0
C2157 C 0.8017 0.53754 0.1063 0.0
C2158 C 0.84474 0.55048 0.12186 0.0
C2159 C 0.84484 0.56555 0.11658 0.0
C2160 C 0.81709 0.54673 0.10959 0.0
C2161 C 0.83076 0.57069 0.10775 0.0
C2162 C 0.7895 0.54251 0.09524 0.0
C2163 C 0.78388 0.51676 0.11321 0.0
N2164 N 0.81753 0.56132 0.10456 0.0
N2165 N 0.79863 0.52471 0.11477 0.0
H2166 H 0.7028 0.52402 0.38454 0.0
H2167 H 0.66128 0.59962 0.35116 0.0
H2168 H 0.70733 0.5388 0.33569 0.0
H2169 H 0.66034 0.58725 0.40087 0.0
H2170 H 0.68092 0.57883 0.34593 0.0
H2171 H 0.69016 0.54838 0.39146 0.0
C2172 C 0.70134 0.53245 0.3753 0.0
C2173 C 0.70591 0.52928 0.35946 0.0
C2174 C 0.67661 0.58074 0.35803 0.0
C2175 C 0.69132 0.55716 0.36729 0.0
C2176 C 0.66537 0.59258 0.361 0.0
C2177 C 0.65905 0.59501 0.37643 0.0
C2178 C 0.68144 0.57111 0.37055 0.0
C2179 C 0.66493 0.58573 0.38881 0.0
C2180 C 0.69411 0.54637 0.37927 0.0
C2181 C 0.70385 0.54069 0.34803 0.0
N2182 N 0.67562 0.57404 0.38556 0.0
N2183 N 0.69651 0.55404 0.35213 0.0
H2184 H 0.2201 0.95125 0.14909 0.0
H2185 H 0.13241 0.92294 0.11145 0.0
H2186 H 0.20514 0.95892 0.10017 0.0
H2187 H 0.1477 0.91428 0.16004 0.0
H2188 H 0.15684 0.93975 0.10841 0.0
H2189 H 0.1917 0.94141 0.15459 0.0
C2190 C 0.21078 0.95106 0.13954 0.0
C2191 C 0.21511 0.9557 0.12407 0.0
C2192 C 0.15476 0.93434 0.11981 0.0
C2193 C 0.18257 0.94434 0.13028 0.0
C2194 C 0.14084 0.92472 0.12153 0.0
C2195 C 0.13819 0.91704 0.13594 0.0
C2196 C 0.16623 0.93622 0.13255 0.0
C2197 C 0.14929 0.91997 0.14872 0.0
C2198 C 0.19455 0.94542 0.1427 0.0
C2199 C 0.20244 0.95532 0.11223 0.0
N2200 N 0.16297 0.92917 0.14666 0.0
N2201 N 0.18682 0.94954 0.11554 0.0
H2202 H 0.19958 0.95356 0.63991 0.0
H2203 H 0.14809 0.9008 0.5789 0.0
H2204 H 0.20295 0.95764 0.5887 0.0
H2205 H 0.14559 0.89645 0.63012 0.0
H2206 H 0.16983 0.92036 0.58213 0.0
H2207 H 0.18139 0.93142 0.63647 0.0
C2208 C 0.1966 0.94974 0.62793 0.0
C2209 C 0.20272 0.95753 0.61457 0.0
C2210 C 0.16459 0.91506 0.59266 0.0
C2211 C 0.18178 0.93221 0.61053 0.0
C2212 C 0.15225 0.90383 0.59082 0.0
C2213 C 0.14491 0.89705 0.60426 0.0
C2214 C 0.16965 0.91956 0.60806 0.0
C2215 C 0.15066 0.90157 0.61942 0.0
C2216 C 0.1862 0.93709 0.62597 0.0
C2217 C 0.19848 0.95202 0.59934 0.0
N2218 N 0.16261 0.91258 0.62091 0.0
N2219 N 0.18818 0.93976 0.59774 0.0
H2220 H 0.78 0.45819 0.32306 0.0
H2221 H 0.85307 0.40924 0.36479 0.0
H2222 H 0.78925 0.45726 0.37386 0.0
H2223 H 0.84262 0.40779 0.31424 0.0
H2224 H 0.83189 0.42918 0.36778 0.0
H2225 H 0.80499 0.44216 0.31907 0.0
C2226 C 0.78738 0.45475 0.33337 0.0
C2227 C 0.78244 0.45897 0.34884 0.0
C2228 C 0.83428 0.42459 0.356 0.0
C2229 C 0.811 0.44057 0.34435 0.0
C2230 C 0.84633 0.41317 0.3543 0.0
C2231 C 0.84942 0.4067 0.33928 0.0
C2232 C 0.82515 0.4296 0.34259 0.0
C2233 C 0.84061 0.41247 0.32604 0.0
C2234 C 0.80163 0.44557 0.33107 0.0
C2235 C 0.79251 0.4542 0.36173 0.0
N2236 N 0.82874 0.42349 0.32803 0.0
N2237 N 0.80622 0.44519 0.3592 0.0
H2238 H 0.69129 0.55638 0.8878 0.0
H2239 H 0.63205 0.61051 0.83513 0.0
H2240 H 0.70133 0.5675 0.83859 0.0
H2241 H 0.62365 0.60169 0.88511 0.0
H2242 H 0.65578 0.59268 0.83545 0.0
H2243 H 0.66473 0.57068 0.88626 0.0
C2244 C 0.68783 0.56168 0.87662 0.0
C2245 C 0.69865 0.56085 0.86335 0.0
C2246 C 0.6487 0.59459 0.84634 0.0
C2247 C 0.66831 0.57734 0.86154 0.0
C2248 C 0.6351 0.60472 0.84614 0.0
C2249 C 0.62591 0.60769 0.86014 0.0
C2250 C 0.65318 0.58733 0.86064 0.0
C2251 C 0.63056 0.59995 0.87411 0.0
C2252 C 0.67268 0.56989 0.87577 0.0
C2253 C 0.69347 0.56792 0.84917 0.0
N2254 N 0.64389 0.59018 0.87401 0.0
N2255 N 0.67875 0.57595 0.84868 0.0
H2256 H 0.89944 0.69327 0.94785 0.0
H2257 H 0.93918 0.64046 0.88014 0.0
H2258 H 0.95086 0.67612 0.94907 0.0
H2259 H 0.88633 0.65344 0.88219 0.0
H2260 H 0.94521 0.65754 0.90248 0.0
H2261 H 0.89613 0.68304 0.92094 0.0
C2262 C 0.91014 0.68757 0.94238 0.0
C2263 C 0.92535 0.6853 0.95086 0.0
C2264 C 0.93233 0.65678 0.89792 0.0
C2265 C 0.92157 0.67344 0.92009 0.0
C2266 C 0.9289 0.64709 0.88513 0.0
C2267 C 0.91219 0.64539 0.87947 0.0
C2268 C 0.91894 0.66483 0.90507 0.0
C2269 C 0.89933 0.6542 0.88641 0.0
C2270 C 0.90821 0.68168 0.92702 0.0
C2271 C 0.93882 0.67795 0.94307 0.0
N2272 N 0.90295 0.66344 0.89894 0.0
N2273 N 0.93654 0.6721 0.9282 0.0
H2274 H 0.02895 0.10086 0.70062 0.0
H2275 H 0.08052 0.14588 0.6339 0.0
H2276 H 0.03372 0.14945 0.70016 0.0
H2277 H 0.07069 0.09792 0.63183 0.0
H2278 H 0.06224 0.14768 0.65738 0.0
H2279 H 0.04328 0.09973 0.67485 0.0
C2280 C 0.03294 0.11131 0.69507 0.0
C2281 C 0.03022 0.12527 0.70261 0.0
C2282 C 0.06398 0.13678 0.65172 0.0
C2283 C 0.04672 0.12406 0.67309 0.0
C2284 C 0.07434 0.13576 0.63824 0.0
C2285 C 0.07729 0.1217 0.63096 0.0
C2286 C 0.05656 0.12365 0.658 0.0
C2287 C 0.06907 0.10895 0.63724 0.0
C2288 C 0.04111 0.11066 0.68032 0.0
C2289 C 0.0356 0.13843 0.6948 0.0
N2290 N 0.0592 0.11021 0.65045 0.0
N2291 N 0.0437 0.1375 0.68052 0.0
H2292 H 0.60888 0.32935 0.46669 0.0
H2293 H 0.59585 0.32304 0.37218 0.0
H2294 H 0.58109 0.29266 0.44468 0.0
H2295 H 0.61328 0.36306 0.39692 0.0
H2296 H 0.5929 0.31029 0.39799 0.0
H2297 H 0.61372 0.34016 0.44048 0.0
C2298 C 0.60385 0.3235 0.45632 0.0
C2299 C 0.59444 0.31013 0.45791 0.0
C2300 C 0.59745 0.32184 0.39769 0.0
C2301 C 0.59991 0.32255 0.42772 0.0
C2302 C 0.59906 0.32915 0.38299 0.0
C2303 C 0.60492 0.34414 0.38232 0.0
C2304 C 0.60178 0.32958 0.41179 0.0
C2305 C 0.60906 0.35142 0.39673 0.0
C2306 C 0.60659 0.32972 0.44133 0.0
C2307 C 0.58834 0.30304 0.444 0.0
N2308 N 0.60742 0.34408 0.41081 0.0
N2309 N 0.59112 0.30938 0.42945 0.0
H2310 H 0.47262 0.87443 0.21166 0.0
H2311 H 0.4132 0.82738 0.15173 0.0
H2312 H 0.46035 0.8273 0.21807 0.0
H2313 H 0.42515 0.87462 0.14582 0.0
H2314 H 0.43207 0.8266 0.17496 0.0
H2315 H 0.45694 0.8742 0.18648 0.0
C2316 C 0.46673 0.864 0.20772 0.0
C2317 C 0.46773 0.85088 0.21704 0.0
C2318 C 0.43063 0.83712 0.16854 0.0
C2319 C 0.44964 0.85056 0.18822 0.0
C2320 C 0.41993 0.83755 0.15522 0.0
C2321 C 0.41751 0.85111 0.14687 0.0
C2322 C 0.439 0.85034 0.17356 0.0
C2323 C 0.42641 0.86399 0.15206 0.0
C2324 C 0.45775 0.86388 0.19334 0.0
C2325 C 0.45987 0.83768 0.2113 0.0
N2326 N 0.4367 0.8633 0.16509 0.0
N2327 N 0.45107 0.83788 0.19731 0.0
H2328 H 0.92371 0.30031 0.52063 0.0
H2329 H 0.86188 0.32974 0.58957 0.0
H2330 H 0.86994 0.29045 0.52233 0.0
H2331 H 0.9153 0.34075 0.58698 0.0
H2332 H 0.86528 0.31276 0.56675 0.0
H2333 H 0.92163 0.31233 0.54681 0.0
C2334 C 0.9115 0.3005 0.52658 0.0
C2335 C 0.89693 0.29452 0.51917 0.0
C2336 C 0.8763 0.31878 0.57126 0.0
C2337 C 0.89444 0.3084 0.54912 0.0
C2338 C 0.87435 0.32853 0.58423 0.0
C2339 C 0.88829 0.3368 0.59009 0.0
C2340 C 0.89231 0.31731 0.564 0.0
C2341 C 0.90422 0.33456 0.58291 0.0
C2342 C 0.91031 0.30741 0.54153 0.0
C2343 C 0.88147 0.29502 0.52752 0.0
N2344 N 0.90575 0.32514 0.57016 0.0
N2345 N 0.8806 0.30199 0.54197 0.0
H2346 H 0.43888 0.09106 0.27013 0.0
H2347 H 0.39232 0.15104 0.32692 0.0
H2348 H 0.44233 0.13929 0.26332 0.0
H2349 H 0.38989 0.10271 0.33316 0.0
H2350 H 0.41067 0.14722 0.30366 0.0
H2351 H 0.4206 0.09533 0.29312 0.0
C2352 C 0.43577 0.10256 0.27344 0.0
C2353 C 0.44218 0.11483 0.26478 0.0
C2354 C 0.40609 0.13746 0.31012 0.0
C2355 C 0.42123 0.11983 0.29121 0.0
C2356 C 0.39571 0.13964 0.32344 0.0
C2357 C 0.38948 0.12717 0.33194 0.0
C2358 C 0.41032 0.12271 0.30531 0.0
C2359 C 0.39414 0.11264 0.32682 0.0
C2360 C 0.42532 0.105 0.28661 0.0
C2361 C 0.43768 0.12949 0.26965 0.0
N2362 N 0.40425 0.11083 0.31386 0.0
N2363 N 0.42749 0.13159 0.28257 0.0
H2364 H 0.54773 0.67017 0.03466 0.0
H2365 H 0.58127 0.65281 0.12208 0.0
H2366 H 0.58694 0.6973 0.05677 0.0
H2367 H 0.56641 0.61723 0.08968 0.0
H2368 H 0.57888 0.67108 0.10014 0.0
H2369 H 0.5498 0.65226 0.05682 0.0
C2370 C 0.55669 0.67239 0.04422 0.0
C2371 C 0.56721 0.6852 0.04389 0.0
C2372 C 0.57616 0.65927 0.09787 0.0
C2373 C 0.56946 0.66492 0.06926 0.0
C2374 C 0.57744 0.64891 0.11034 0.0
C2375 C 0.57405 0.63357 0.10757 0.0
C2376 C 0.57108 0.65425 0.08269 0.0
C2377 C 0.5692 0.62898 0.09219 0.0
C2378 C 0.55792 0.66215 0.05679 0.0
C2379 C 0.57867 0.68752 0.05654 0.0
N2380 N 0.56771 0.63931 0.08032 0.0
N2381 N 0.57941 0.67751 0.06881 0.0
H2382 H 0.00305 0.89219 0.76681 0.0
H2383 H 0.05711 0.83847 0.82458 0.0
H2384 H 0.00584 0.84377 0.76102 0.0
H2385 H 0.05516 0.88703 0.82899 0.0
H2386 H 0.03652 0.83984 0.80263 0.0
H2387 H 0.02026 0.89019 0.79098 0.0
C2388 C 0.00717 0.88112 0.77069 0.0
C2389 C 0.00308 0.86814 0.76181 0.0
C2390 C 0.04055 0.85019 0.80845 0.0
C2391 C 0.02293 0.86576 0.78947 0.0
C2392 C 0.05224 0.8494 0.82102 0.0
C2393 C 0.05797 0.86266 0.82853 0.0
C2394 C 0.03452 0.86434 0.80339 0.0
C2395 C 0.05134 0.87654 0.82335 0.0
C2396 C 0.01704 0.87998 0.78449 0.0
C2397 C 0.00874 0.85408 0.76746 0.0
N2398 N 0.04003 0.87701 0.81108 0.0
N2399 N 0.01847 0.85328 0.78087 0.0
H2400 H 0.90182 0.84653 0.69344 0.0
H2401 H 0.83441 0.8941 0.64382 0.0
H2402 H 0.90645 0.89431 0.68416 0.0
H2403 H 0.82775 0.84697 0.6554 0.0
H2404 H 0.85838 0.89527 0.66225 0.0
H2405 H 0.87266 0.84727 0.68326 0.0
C2406 C 0.89663 0.85723 0.6895 0.0
C2407 C 0.90672 0.87032 0.68939 0.0
C2408 C 0.85154 0.88471 0.66095 0.0
C2409 C 0.87338 0.87122 0.67759 0.0
C2410 C 0.83771 0.88406 0.6505 0.0
C2411 C 0.82913 0.87035 0.64787 0.0
C2412 C 0.85699 0.87153 0.66874 0.0
C2413 C 0.83422 0.85769 0.65676 0.0
C2414 C 0.87997 0.85764 0.68366 0.0
C2415 C 0.89924 0.88388 0.68426 0.0
N2416 N 0.84796 0.85853 0.66662 0.0
N2417 N 0.88313 0.88393 0.67837 0.0
H2418 H 0.82595 0.23044 0.44973 0.0
H2419 H 0.88316 0.16807 0.40613 0.0
H2420 H 0.88088 0.23128 0.44958 0.0
H2421 H 0.82858 0.16486 0.41038 0.0
H2422 H 0.88261 0.19119 0.42217 0.0
H2423 H 0.82665 0.20619 0.43572 0.0
C2424 C 0.83817 0.22548 0.44685 0.0
C2425 C 0.85338 0.23293 0.45078 0.0
C2426 C 0.87075 0.1854 0.41966 0.0
C2427 C 0.85427 0.20522 0.43464 0.0
C2428 C 0.87106 0.17226 0.41042 0.0
C2429 C 0.85589 0.16456 0.40688 0.0
C2430 C 0.85515 0.19095 0.42533 0.0
C2431 C 0.84059 0.17036 0.41294 0.0
C2432 C 0.83855 0.21163 0.43884 0.0
C2433 C 0.86883 0.22595 0.44676 0.0
N2434 N 0.8406 0.18325 0.42181 0.0
N2435 N 0.86888 0.21254 0.43883 0.0
H2436 H 0.58563 0.0825 0.17483 0.0
H2437 H 0.64651 0.15078 0.14908 0.0
H2438 H 0.57802 0.12866 0.19002 0.0
H2439 H 0.65354 0.10455 0.13397 0.0
H2440 H 0.62164 0.14295 0.16451 0.0
H2441 H 0.61089 0.09039 0.1602 0.0
C2442 C 0.58928 0.0943 0.17511 0.0
C2443 C 0.57967 0.10494 0.18365 0.0
C2444 C 0.62867 0.13451 0.15787 0.0
C2445 C 0.60863 0.11407 0.1669 0.0
C2446 C 0.64283 0.13899 0.14902 0.0
C2447 C 0.65217 0.1283 0.14027 0.0
C2448 C 0.62378 0.11924 0.15793 0.0
C2449 C 0.64691 0.11315 0.14073 0.0
C2450 C 0.60372 0.09881 0.16675 0.0
C2451 C 0.58503 0.12007 0.18358 0.0
N2452 N 0.63307 0.10909 0.14937 0.0
N2453 N 0.59914 0.12419 0.17532 0.0
H2454 H 0.63991 0.73985 0.8988 0.0
H2455 H 0.65526 0.8289 0.89321 0.0
H2456 H 0.63839 0.77014 0.93926 0.0
H2457 H 0.65528 0.79905 0.85239 0.0
H2458 H 0.65342 0.80696 0.9107 0.0
H2459 H 0.64952 0.76078 0.88213 0.0
C2460 C 0.64175 0.75086 0.90422 0.0
C2461 C 0.63812 0.75328 0.92041 0.0
C2462 C 0.65402 0.80518 0.89793 0.0
C2463 C 0.64907 0.7773 0.90138 0.0
C2464 C 0.65522 0.81771 0.88793 0.0
C2465 C 0.65524 0.81582 0.87129 0.0
C2466 C 0.65278 0.79063 0.89126 0.0
C2467 C 0.65496 0.80104 0.86514 0.0
C2468 C 0.64724 0.76281 0.89469 0.0
C2469 C 0.64086 0.76777 0.9268 0.0
N2470 N 0.65357 0.78903 0.87511 0.0
N2471 N 0.64602 0.77925 0.91724 0.0
H2472 H 0.93879 0.10679 0.78509 0.0
H2473 H 0.85363 0.1448 0.81807 0.0
H2474 H 0.92514 0.15342 0.77716 0.0
H2475 H 0.87241 0.10121 0.83292 0.0
H2476 H 0.87657 0.14622 0.79849 0.0
H2477 H 0.91124 0.10269 0.79774 0.0
C2478 C 0.92991 0.11612 0.78578 0.0
C2479 C 0.93442 0.13055 0.7803 0.0
C2480 C 0.87553 0.13626 0.80591 0.0
C2481 C 0.90288 0.12593 0.79488 0.0
C2482 C 0.86248 0.13547 0.81713 0.0
C2483 C 0.86122 0.12297 0.82735 0.0
C2484 C 0.88742 0.12447 0.80485 0.0
C2485 C 0.87281 0.11105 0.8253 0.0
C2486 C 0.91419 0.11377 0.79306 0.0
C2487 C 0.9223 0.14216 0.7814 0.0
N2488 N 0.88552 0.11217 0.81442 0.0
N2489 N 0.90717 0.13964 0.78874 0.0
H2490 H 0.58879 0.23221 0.5173 0.0
H2491 H 0.63048 0.19056 0.5918 0.0
H2492 H 0.63457 0.24855 0.54012 0.0
H2493 H 0.60129 0.16675 0.55604 0.0
H2494 H 0.6292 0.21342 0.57526 0.0
H2495 H 0.59037 0.20932 0.53361 0.0
C2496 C 0.59919 0.23096 0.52571 0.0
C2497 C 0.6116 0.24225 0.52734 0.0
C2498 C 0.62311 0.20316 0.57105 0.0
C2499 C 0.61331 0.21629 0.54615 0.0
C2500 C 0.62376 0.1902 0.5805 0.0
C2501 C 0.61603 0.17681 0.5752 0.0
C2502 C 0.6144 0.20276 0.5564 0.0
C2503 C 0.60753 0.17685 0.56045 0.0
C2504 C 0.60009 0.21791 0.53497 0.0
C2505 C 0.6248 0.24007 0.53842 0.0
N2506 N 0.60684 0.18966 0.55159 0.0
N2507 N 0.62524 0.22739 0.54751 0.0
H2508 H 0.54271 0.85869 0.26719 0.0
H2509 H 0.62153 0.88077 0.3231 0.0
H2510 H 0.54933 0.90243 0.2893 0.0
H2511 H 0.61496 0.83656 0.30206 0.0
H2512 H 0.59675 0.88963 0.30834 0.0
H2513 H 0.57065 0.85117 0.27735 0.0
C2514 C 0.55011 0.86678 0.27402 0.0
C2515 C 0.54358 0.88117 0.27753 0.0
C2516 C 0.60078 0.87802 0.30683 0.0
C2517 C 0.57551 0.87259 0.28928 0.0
C2518 C 0.61504 0.87297 0.31518 0.0
C2519 C 0.62036 0.85787 0.31385 0.0
C2520 C 0.59165 0.86791 0.2971 0.0
C2521 C 0.61119 0.84823 0.30362 0.0
C2522 C 0.56605 0.86246 0.27985 0.0
C2523 C 0.55377 0.89118 0.2864 0.0
N2524 N 0.59723 0.85339 0.29571 0.0
N2525 N 0.56915 0.88666 0.29207 0.0
H2526 H 0.858 0.75359 0.03637 0.0
H2527 H 0.89136 0.81963 0.09409 0.0
H2528 H 0.91051 0.759 0.05056 0.0
H2529 H 0.83884 0.8147 0.07978 0.0
H2530 H 0.89854 0.79739 0.07822 0.0
H2531 H 0.85071 0.77606 0.05195 0.0
C2532 C 0.86801 0.75953 0.04272 0.0
C2533 C 0.8849 0.7544 0.04217 0.0
C2534 C 0.88544 0.80115 0.07854 0.0
C2535 C 0.87662 0.78009 0.06008 0.0
C2536 C 0.8813 0.81379 0.08771 0.0
C2537 C 0.86445 0.819 0.08833 0.0
C2538 C 0.87264 0.7936 0.06991 0.0
C2539 C 0.85202 0.81115 0.07954 0.0
C2540 C 0.86383 0.77235 0.05163 0.0
C2541 C 0.89733 0.76254 0.05064 0.0
N2542 N 0.85636 0.79884 0.07071 0.0
N2543 N 0.89294 0.77495 0.05927 0.0
H2544 H 0.69795 0.947 0.84978 0.0
H2545 H 0.66623 0.86766 0.88403 0.0
H2546 H 0.69623 0.9366 0.90005 0.0
H2547 H 0.67316 0.87657 0.83385 0.0
H2548 H 0.67815 0.89249 0.89019 0.0
H2549 H 0.68949 0.92105 0.84374 0.0
C2550 C 0.69584 0.93925 0.85956 0.0
C2551 C 0.69773 0.94401 0.87545 0.0
C2552 C 0.67717 0.88898 0.87783 0.0
C2553 C 0.68799 0.91425 0.86861 0.0
C2554 C 0.67048 0.87474 0.8743 0.0
C2555 C 0.66861 0.87001 0.85837 0.0
C2556 C 0.68198 0.89863 0.86536 0.0
C2557 C 0.67409 0.87982 0.84628 0.0
C2558 C 0.69103 0.92441 0.85609 0.0
C2559 C 0.69488 0.93344 0.88762 0.0
N2560 N 0.68042 0.89368 0.85002 0.0
N2561 N 0.69007 0.91909 0.88394 0.0
H2562 H 0.16323 0.56406 0.03591 0.0
H2563 H 0.15002 0.62159 0.10862 0.0
H2564 H 0.18687 0.55835 0.08206 0.0
H2565 H 0.13141 0.62963 0.0609 0.0
H2566 H 0.1638 0.59846 0.09917 0.0
H2567 H 0.1516 0.5882 0.04487 0.0
C2568 C 0.16601 0.5679 0.04792 0.0
C2569 C 0.176 0.55915 0.05827 0.0
C2570 C 0.1568 0.60534 0.09074 0.0
C2571 C 0.16268 0.58678 0.06863 0.0
C2572 C 0.14888 0.6185 0.09614 0.0
C2573 C 0.13953 0.62753 0.08553 0.0
C2574 C 0.15524 0.6011 0.07463 0.0
C2575 C 0.13863 0.62309 0.06946 0.0
C2576 C 0.15938 0.5817 0.05303 0.0
C2577 C 0.17922 0.56471 0.07369 0.0
N2578 N 0.14629 0.61015 0.06452 0.0
N2579 N 0.17251 0.57815 0.07843 0.0
H2580 H 0.25599 0.42315 0.85123 0.0
H2581 H 0.159 0.39982 0.83556 0.0
H2582 H 0.2142 0.45428 0.8573 0.0
H2583 H 0.19974 0.36793 0.84287 0.0
H2584 H 0.17945 0.4206 0.83881 0.0
H2585 H 0.23586 0.40357 0.84335 0.0
C2586 C 0.24258 0.42593 0.85079 0.0
C2587 C 0.23677 0.44036 0.8551 0.0
C2588 C 0.1839 0.40905 0.83958 0.0
C2589 C 0.2136 0.4179 0.84606 0.0
C2590 C 0.17229 0.39721 0.83764 0.0
C2591 C 0.17772 0.38217 0.83904 0.0
C2592 C 0.20106 0.40577 0.84277 0.0
C2593 C 0.19502 0.37938 0.84187 0.0
C2594 C 0.23108 0.4147 0.84632 0.0
C2595 C 0.21922 0.44328 0.8542 0.0
N2596 N 0.20607 0.39106 0.84367 0.0
N2597 N 0.20823 0.4321 0.84984 0.0
H2598 H 0.30336 0.4379 0.54511 0.0
H2599 H 0.31294 0.37949 0.61744 0.0
H2600 H 0.27869 0.44382 0.59066 0.0
H2601 H 0.33814 0.37443 0.57205 0.0
H2602 H 0.29987 0.40286 0.60782 0.0
H2603 H 0.31578 0.41435 0.55471 0.0
C2604 C 0.30055 0.43425 0.55714 0.0
C2605 C 0.28998 0.44286 0.5671 0.0
C2606 C 0.30822 0.3966 0.59995 0.0
C2607 C 0.30417 0.41586 0.57819 0.0
C2608 C 0.31574 0.3833 0.60546 0.0
C2609 C 0.32665 0.37497 0.59553 0.0
C2610 C 0.31166 0.40164 0.58441 0.0
C2611 C 0.32964 0.38035 0.58005 0.0
C2612 C 0.30765 0.42079 0.56262 0.0
C2613 C 0.28679 0.43755 0.58258 0.0
N2614 N 0.32223 0.39334 0.57499 0.0
N2615 N 0.29386 0.42439 0.58765 0.0
H2616 H 0.78324 0.04138 0.91758 0.0
H2617 H 0.81331 0.08819 0.84118 0.0
H2618 H 0.76513 0.03238 0.86979 0.0
H2619 H 0.82929 0.09786 0.88945 0.0
H2620 H 0.79838 0.06569 0.85081 0.0
H2621 H 0.8031 0.0599 0.90686 0.0
C2622 C 0.78357 0.04316 0.9048 0.0
C2623 C 0.77234 0.03544 0.8946 0.0
C2624 C 0.80525 0.07268 0.85927 0.0
C2625 C 0.79497 0.05679 0.88223 0.0
C2626 C 0.81382 0.08549 0.85377 0.0
C2627 C 0.82235 0.09502 0.86456 0.0
C2628 C 0.80528 0.06937 0.87567 0.0
C2629 C 0.82256 0.09101 0.88076 0.0
C2630 C 0.79491 0.05378 0.89868 0.0
C2631 C 0.77347 0.03815 0.87812 0.0
N2632 N 0.81407 0.07856 0.88582 0.0
N2633 N 0.78444 0.04872 0.87247 0.0
H2634 H 0.78199 0.04533 0.39212 0.0
H2635 H 0.8429 0.11262 0.42129 0.0
H2636 H 0.80123 0.04964 0.44024 0.0
H2637 H 0.82585 0.10708 0.37262 0.0
H2638 H 0.82654 0.09026 0.42875 0.0
H2639 H 0.79692 0.06856 0.385 0.0
C2640 C 0.78931 0.05118 0.40121 0.0
C2641 C 0.7904 0.04551 0.4168 0.0
C2642 C 0.82634 0.09394 0.41644 0.0
C2643 C 0.80753 0.07211 0.40872 0.0
C2644 C 0.8356 0.10676 0.4122 0.0
C2645 C 0.83576 0.11171 0.3963 0.0
C2646 C 0.81713 0.08601 0.40471 0.0
C2647 C 0.82626 0.10355 0.38497 0.0
C2648 C 0.79785 0.06444 0.39713 0.0
C2649 C 0.80007 0.05357 0.42807 0.0
N2650 N 0.81735 0.0911 0.38939 0.0
N2651 N 0.80827 0.06645 0.4238 0.0
H2652 H 0.2275 0.54221 0.63248 0.0
H2653 H 0.19993 0.62888 0.64045 0.0
H2654 H 0.26013 0.57958 0.61997 0.0
H2655 H 0.1652 0.59124 0.6441 0.0
H2656 H 0.22354 0.61105 0.63785 0.0
H2657 H 0.20617 0.56014 0.64191 0.0
C2658 C 0.23028 0.55419 0.63188 0.0
C2659 C 0.24555 0.5594 0.62521 0.0
C2660 C 0.21076 0.60672 0.6394 0.0
C2661 C 0.2211 0.58 0.63593 0.0
C2662 C 0.19727 0.61688 0.64083 0.0
C2663 C 0.18049 0.61158 0.64231 0.0
C2664 C 0.20749 0.59112 0.63948 0.0
C2665 C 0.17789 0.5959 0.64309 0.0
C2666 C 0.21806 0.56442 0.63724 0.0
C2667 C 0.24847 0.57505 0.62487 0.0
N2668 N 0.19121 0.58624 0.64152 0.0
N2669 N 0.23628 0.58481 0.63001 0.0
H2670 H 0.24494 0.44496 0.11905 0.0
H2671 H 0.32267 0.39093 0.09554 0.0
H2672 H 0.26552 0.44086 0.07152 0.0
H2673 H 0.30474 0.39603 0.14386 0.0
H2674 H 0.30165 0.40934 0.08675 0.0
H2675 H 0.26658 0.42721 0.12861 0.0
C2676 C 0.254 0.44035 0.11063 0.0
C2677 C 0.25339 0.44439 0.09444 0.0
C2678 C 0.30228 0.40648 0.09929 0.0
C2679 C 0.27814 0.42411 0.10531 0.0
C2680 C 0.31423 0.39589 0.1043 0.0
C2681 C 0.31534 0.39183 0.12044 0.0
C2682 C 0.29127 0.4131 0.11047 0.0
C2683 C 0.30433 0.39888 0.13132 0.0
C2684 C 0.26636 0.43024 0.11611 0.0
C2685 C 0.26547 0.43808 0.08409 0.0
N2686 N 0.29268 0.40913 0.12612 0.0
N2687 N 0.2773 0.42825 0.08969 0.0
H2688 H 0.63846 0.78105 0.52048 0.0
H2689 H 0.59354 0.86003 0.53807 0.0
H2690 H 0.60587 0.80412 0.4869 0.0
H2691 H 0.61564 0.83296 0.57545 0.0
H2692 H 0.59806 0.83934 0.51925 0.0
H2693 H 0.63032 0.79948 0.54102 0.0
C2694 C 0.6295 0.7899 0.51746 0.0
C2695 C 0.62296 0.79112 0.5019 0.0
C2696 C 0.60182 0.83782 0.53158 0.0
C2697 C 0.61371 0.81224 0.52526 0.0
C2698 C 0.59929 0.84966 0.5423 0.0
C2699 C 0.60433 0.8482 0.55827 0.0
C2700 C 0.60965 0.82445 0.5368 0.0
C2701 C 0.61155 0.83448 0.56321 0.0
C2702 C 0.62486 0.80039 0.52919 0.0
C2703 C 0.61135 0.80277 0.49868 0.0
N2704 N 0.61418 0.82316 0.55246 0.0
N2705 N 0.60723 0.81293 0.5102 0.0
H2706 H 0.43245 0.33718 0.79306 0.0
H2707 H 0.40945 0.38385 0.87205 0.0
H2708 H 0.43764 0.38557 0.79739 0.0
H2709 H 0.39232 0.33817 0.86357 0.0
H2710 H 0.42372 0.38355 0.84623 0.0
H2711 H 0.42142 0.33632 0.82035 0.0
C2712 C 0.43135 0.34761 0.79977 0.0
C2713 C 0.43588 0.36149 0.7929 0.0
C2714 C 0.41692 0.37356 0.85005 0.0
C2715 C 0.42338 0.36055 0.82412 0.0
C2716 C 0.40873 0.37373 0.86478 0.0
C2717 C 0.39948 0.36108 0.86994 0.0
C2718 C 0.41597 0.36062 0.84037 0.0
C2719 C 0.39935 0.34815 0.86015 0.0
C2720 C 0.42503 0.3471 0.81532 0.0
C2721 C 0.4342 0.37464 0.80216 0.0
N2722 N 0.40738 0.34829 0.84579 0.0
N2723 N 0.42809 0.37385 0.81727 0.0
H2724 H 0.79627 0.19062 0.02912 0.0
H2725 H 0.86917 0.14809 0.0786 0.0
H2726 H 0.84934 0.20302 0.02679 0.0
H2727 H 0.81721 0.13277 0.07472 0.0
H2728 H 0.86169 0.17049 0.06284 0.0
H2729 H 0.80324 0.17181 0.04928 0.0
C2730 C 0.80938 0.18952 0.03297 0.0
C2731 C 0.82227 0.1983 0.02609 0.0
C2732 C 0.85192 0.16225 0.06553 0.0
C2733 C 0.83038 0.17662 0.04913 0.0
C2734 C 0.85617 0.14952 0.07455 0.0
C2735 C 0.84384 0.13849 0.07778 0.0
C2736 C 0.83519 0.16399 0.05984 0.0
C2737 C 0.82719 0.14086 0.07223 0.0
C2738 C 0.81337 0.17872 0.04447 0.0
C2739 C 0.83901 0.19643 0.03169 0.0
N2740 N 0.82338 0.1533 0.0635 0.0
N2741 N 0.84262 0.18568 0.04277 0.0
H2742 H 0.05946 0.5976 0.27172 0.0
H2743 H 0.05772 0.63256 0.35924 0.0
H2744 H 0.0241 0.63274 0.28498 0.0
H2745 H 0.10198 0.61096 0.339 0.0
H2746 H 0.04396 0.6316 0.33298 0.0
H2747 H 0.07373 0.60062 0.29744 0.0
C2748 C 0.05466 0.60593 0.28007 0.0
C2749 C 0.04056 0.61493 0.27621 0.0
C2750 C 0.05672 0.62715 0.33432 0.0
C2751 C 0.05683 0.61842 0.30571 0.0
C2752 C 0.06463 0.62777 0.34928 0.0
C2753 C 0.08098 0.62167 0.35142 0.0
C2754 C 0.06515 0.62026 0.32148 0.0
C2755 C 0.08921 0.61545 0.33806 0.0
C2756 C 0.06288 0.60771 0.29471 0.0
C2757 C 0.03496 0.62559 0.28747 0.0
N2758 N 0.08116 0.61478 0.32373 0.0
N2759 N 0.04305 0.62699 0.30178 0.0
H2760 H 0.5895 0.17988 0.97773 0.0
H2761 H 0.59328 0.14781 0.88845 0.0
H2762 H 0.61527 0.20269 0.93927 0.0
H2763 H 0.57718 0.12168 0.92906 0.0
H2764 H 0.59638 0.16996 0.90581 0.0
H2765 H 0.57988 0.16058 0.95891 0.0
C2766 C 0.59298 0.18095 0.96529 0.0
C2767 C 0.60342 0.19283 0.96012 0.0
C2768 C 0.592 0.15942 0.91089 0.0
C2769 C 0.59247 0.17068 0.9385 0.0
C2770 C 0.59011 0.14681 0.90097 0.0
C2771 C 0.58507 0.13287 0.90737 0.0
C2772 C 0.58874 0.15809 0.92729 0.0
C2773 C 0.58131 0.13217 0.9237 0.0
C2774 C 0.58751 0.16988 0.95455 0.0
C2775 C 0.60738 0.19365 0.94381 0.0
N2776 N 0.58331 0.14457 0.93311 0.0
N2777 N 0.60203 0.18264 0.9336 0.0
H2778 H 0.07082 0.39463 0.21271 0.0
H2779 H 0.07853 0.36056 0.12519 0.0
H2780 H 0.04684 0.35254 0.19939 0.0
H2781 H 0.11654 0.39005 0.14586 0.0
H2782 H 0.06477 0.35889 0.15126 0.0
H2783 H 0.0854 0.39495 0.18699 0.0
C2784 C 0.06859 0.38547 0.20436 0.0
C2785 C 0.05761 0.37353 0.20819 0.0
C2786 C 0.07617 0.36566 0.15005 0.0
C2787 C 0.07418 0.37389 0.17872 0.0
C2788 C 0.08412 0.36657 0.13519 0.0
C2789 C 0.09873 0.37554 0.13321 0.0
C2790 C 0.08271 0.37395 0.16298 0.0
C2791 C 0.10512 0.38327 0.14664 0.0
C2792 C 0.07698 0.38563 0.18972 0.0
C2793 C 0.05525 0.36193 0.19693 0.0
N2794 N 0.09701 0.38239 0.16089 0.0
N2795 N 0.06339 0.36245 0.18263 0.0
H2796 H 0.87896 0.79912 0.47504 0.0
H2797 H 0.86146 0.83127 0.38774 0.0
H2798 H 0.8414 0.77928 0.44366 0.0
H2799 H 0.87555 0.85983 0.42739 0.0
H2800 H 0.8599 0.80961 0.40602 0.0
H2801 H 0.88387 0.819 0.45532 0.0
C2802 C 0.87192 0.79882 0.46391 0.0
C2803 C 0.85968 0.78759 0.461 0.0
C2804 C 0.86343 0.82061 0.41065 0.0
C2805 C 0.86534 0.81019 0.43843 0.0
C2806 C 0.8644 0.83289 0.40026 0.0
C2807 C 0.86856 0.84727 0.40616 0.0
C2808 C 0.86703 0.82272 0.42692 0.0
C2809 C 0.87219 0.8489 0.42246 0.0
C2810 C 0.87466 0.81021 0.45273 0.0
C2811 C 0.85087 0.7878 0.44641 0.0
N2812 N 0.8714 0.83674 0.43229 0.0
N2813 N 0.85388 0.79893 0.43563 0.0
H2814 H 0.42133 0.61236 0.69395 0.0
H2815 H 0.36934 0.65019 0.62209 0.0
H2816 H 0.39951 0.65708 0.69618 0.0
H2817 H 0.38729 0.60412 0.62165 0.0
H2818 H 0.38293 0.65388 0.64811 0.0
H2819 H 0.4117 0.61017 0.66629 0.0
C2820 C 0.41466 0.62179 0.68858 0.0
C2821 C 0.41109 0.63488 0.69746 0.0
C2822 C 0.38395 0.64298 0.64229 0.0
C2823 C 0.39994 0.6324 0.66581 0.0
C2824 C 0.37626 0.64089 0.6274 0.0
C2825 C 0.37709 0.62679 0.61973 0.0
C2826 C 0.39257 0.6309 0.64955 0.0
C2827 C 0.38609 0.6151 0.62726 0.0
C2828 C 0.40912 0.62051 0.6728 0.0
C2829 C 0.40245 0.64673 0.68984 0.0
N2830 N 0.39344 0.6174 0.64176 0.0
N2831 N 0.39707 0.64517 0.6745 0.0
H2832 H 0.50399 0.60638 0.78427 0.0
H2833 H 0.57315 0.65471 0.83268 0.0
H2834 H 0.50528 0.65514 0.78517 0.0
H2835 H 0.57077 0.60601 0.83346 0.0
H2836 H 0.55007 0.65499 0.81309 0.0
H2837 H 0.53027 0.60592 0.79994 0.0
C2838 C 0.50988 0.61699 0.78763 0.0
C2839 C 0.50234 0.63082 0.78351 0.0
C2840 C 0.55467 0.64423 0.81745 0.0
C2841 C 0.53238 0.63038 0.80153 0.0
C2842 C 0.5678 0.64407 0.82869 0.0
C2843 C 0.5738 0.63032 0.83483 0.0
C2844 C 0.54739 0.63054 0.81233 0.0
C2845 C 0.56661 0.61687 0.82899 0.0
C2846 C 0.52488 0.61672 0.79661 0.0
C2847 C 0.51058 0.64421 0.78815 0.0
N2848 N 0.5537 0.61732 0.81817 0.0
N2849 N 0.52508 0.64365 0.79701 0.0
H2850 H 0.59377 0.28928 0.02889 0.0
H2851 H 0.65173 0.34832 0.0758 0.0
H2852 H 0.64806 0.29255 0.02209 0.0
H2853 H 0.59693 0.35125 0.07386 0.0
H2854 H 0.65078 0.32855 0.0554 0.0
H2855 H 0.59463 0.31247 0.04474 0.0
C2856 C 0.60585 0.29496 0.0306 0.0
C2857 C 0.62088 0.28891 0.02425 0.0
C2858 C 0.63897 0.33362 0.05933 0.0
C2859 C 0.622 0.31539 0.04254 0.0
C2860 C 0.63951 0.34497 0.07094 0.0
C2861 C 0.62437 0.35136 0.07673 0.0
C2862 C 0.62318 0.32852 0.05354 0.0
C2863 C 0.6089 0.34641 0.07006 0.0
C2864 C 0.60634 0.30821 0.03964 0.0
C2865 C 0.63617 0.29679 0.02679 0.0
N2866 N 0.6087 0.3352 0.05896 0.0
N2867 N 0.63637 0.30953 0.0359 0.0
H2868 H 0.96612 0.34676 0.26655 0.0
H2869 H 0.90595 0.40277 0.3157 0.0
H2870 H 0.98112 0.39135 0.28219 0.0
H2871 H 0.89347 0.35628 0.30539 0.0
H2872 H 0.93118 0.40044 0.29884 0.0
H2873 H 0.93731 0.35172 0.27617 0.0
C2874 C 0.96331 0.35767 0.2718 0.0
C2875 C 0.97613 0.36857 0.27378 0.0
C2876 C 0.92281 0.3908 0.3001 0.0
C2877 C 0.9432 0.3743 0.28488 0.0
C2878 C 0.90834 0.39217 0.30963 0.0
C2879 C 0.89772 0.37965 0.3121 0.0
C2880 C 0.92668 0.37682 0.29299 0.0
C2881 C 0.9015 0.36613 0.30404 0.0
C2882 C 0.94686 0.36048 0.27733 0.0
C2883 C 0.9717 0.38253 0.2806 0.0
N2884 N 0.91575 0.36503 0.29497 0.0
N2885 N 0.95566 0.38494 0.28604 0.0
H2886 H 0.85903 0.68873 0.51933 0.0
H2887 H 0.82169 0.61798 0.56568 0.0
H2888 H 0.80632 0.68444 0.53298 0.0
H2889 H 0.87284 0.61959 0.54712 0.0
H2890 H 0.81496 0.64091 0.55097 0.0
H2891 H 0.86359 0.66233 0.52667 0.0
C2892 C 0.84836 0.68219 0.52367 0.0
C2893 C 0.83233 0.68888 0.52576 0.0
C2894 C 0.82761 0.63616 0.54993 0.0
C2895 C 0.83749 0.65869 0.53432 0.0
C2896 C 0.83143 0.62296 0.55826 0.0
C2897 C 0.84793 0.6169 0.55781 0.0
C2898 C 0.8404 0.64347 0.54119 0.0
C2899 C 0.86006 0.62404 0.54811 0.0
C2900 C 0.85097 0.66711 0.52786 0.0
C2901 C 0.81895 0.67982 0.53132 0.0
N2902 N 0.85612 0.63704 0.54036 0.0
N2903 N 0.82188 0.66526 0.5356 0.0
H2904 H 0.47855 0.38442 0.69187 0.0
H2905 H 0.57827 0.38773 0.67347 0.0
H2906 H 0.51547 0.35882 0.71883 0.0
H2907 H 0.53903 0.39706 0.63886 0.0
H2908 H 0.55613 0.38263 0.6935 0.0
H2909 H 0.50152 0.39483 0.67583 0.0
C2910 C 0.49151 0.3811 0.69456 0.0
C2911 C 0.49506 0.37055 0.70658 0.0
C2912 C 0.55242 0.386 0.68158 0.0
C2913 C 0.52143 0.38249 0.68821 0.0
C2914 C 0.56499 0.38899 0.67023 0.0
C2915 C 0.56034 0.39276 0.65459 0.0
C2916 C 0.53519 0.38705 0.6772 0.0
C2917 C 0.54304 0.39413 0.65083 0.0
C2918 C 0.50461 0.38704 0.68535 0.0
C2919 C 0.51215 0.3668 0.70957 0.0
N2920 N 0.53108 0.39124 0.66205 0.0
N2921 N 0.52473 0.37269 0.70035 0.0
H2922 H 0.87626 0.28963 0.95359 0.0
H2923 H 0.82414 0.35315 0.90634 0.0
H2924 H 0.82142 0.29032 0.95053 0.0
H2925 H 0.87892 0.35053 0.90809 0.0
H2926 H 0.8226 0.33201 0.92517 0.0
H2927 H 0.8772 0.31368 0.93951 0.0
C2928 C 0.86439 0.29489 0.95006 0.0
C2929 C 0.84874 0.28787 0.95313 0.0
C2930 C 0.83495 0.33615 0.92152 0.0
C2931 C 0.84972 0.31544 0.93687 0.0
C2932 C 0.83583 0.34826 0.91086 0.0
C2933 C 0.85168 0.35345 0.9055 0.0
C2934 C 0.85004 0.32927 0.92688 0.0
C2935 C 0.86643 0.34668 0.91168 0.0
C2936 C 0.86494 0.30864 0.942 0.0
C2937 C 0.83378 0.29529 0.94834 0.0
N2938 N 0.86525 0.3349 0.92193 0.0
N2939 N 0.83464 0.30861 0.94034 0.0
H2940 H 0.96376 0.57829 0.20139 0.0
H2941 H 0.87935 0.60915 0.16181 0.0
H2942 H 0.94045 0.62091 0.21367 0.0
H2943 H 0.89927 0.56467 0.15248 0.0
H2944 H 0.8986 0.61153 0.18462 0.0
H2945 H 0.9377 0.57095 0.18741 0.0
C2946 C 0.95306 0.586 0.20143 0.0
C2947 C 0.95445 0.60039 0.20841 0.0
C2948 C 0.89858 0.6011 0.17783 0.0
C2949 C 0.92463 0.5921 0.19229 0.0
C2950 C 0.88757 0.59975 0.16485 0.0
C2951 C 0.88791 0.58676 0.15527 0.0
C2952 C 0.9103 0.5895 0.18103 0.0
C2953 C 0.8987 0.57487 0.15963 0.0
C2954 C 0.93817 0.58179 0.19341 0.0
C2955 C 0.94009 0.60981 0.20822 0.0
N2956 N 0.90974 0.57663 0.17204 0.0
N2957 N 0.9259 0.60561 0.20004 0.0
H2958 H 0.59995 0.69748 0.45675 0.0
H2959 H 0.65984 0.64451 0.40437 0.0
H2960 H 0.65373 0.70557 0.45088 0.0
H2961 H 0.60721 0.63475 0.41458 0.0
H2962 H 0.65896 0.66523 0.42383 0.0
H2963 H 0.60329 0.67294 0.44384 0.0
C2964 C 0.61251 0.69402 0.45291 0.0
C2965 C 0.62655 0.70366 0.45474 0.0
C2966 C 0.64767 0.65843 0.42196 0.0
C2967 C 0.63045 0.67561 0.43973 0.0
C2968 C 0.6482 0.64656 0.41091 0.0
C2969 C 0.6335 0.63808 0.40767 0.0
C2970 C 0.63231 0.66182 0.42976 0.0
C2971 C 0.61873 0.64125 0.41645 0.0
C2972 C 0.61442 0.67998 0.44553 0.0
C2973 C 0.64255 0.69852 0.44964 0.0
N2974 N 0.61846 0.65295 0.42694 0.0
N2975 N 0.64403 0.68493 0.44216 0.0
H2976 H 0.78282 0.5182 0.63519 0.0
H2977 H 0.82555 0.56403 0.56335 0.0
H2978 H 0.77306 0.50822 0.58554 0.0
H2979 H 0.83628 0.57219 0.61317 0.0
H2980 H 0.80503 0.54452 0.57104 0.0
H2981 H 0.80115 0.53905 0.62717 0.0
C2982 C 0.78445 0.52045 0.62259 0.0
C2983 C 0.77644 0.5114 0.61102 0.0
C2984 C 0.81188 0.55059 0.58028 0.0
C2985 C 0.79754 0.53526 0.60172 0.0
C2986 C 0.82354 0.56175 0.57589 0.0
C2987 C 0.83276 0.56965 0.58763 0.0
C2988 C 0.80936 0.54736 0.59651 0.0
C2989 C 0.82971 0.56619 0.6037 0.0
C2990 C 0.79496 0.53235 0.618 0.0
C2991 C 0.77901 0.51488 0.59486 0.0
N2992 N 0.81832 0.55531 0.60766 0.0
N2993 N 0.7894 0.5265 0.59069 0.0
H2994 H 0.25453 0.96298 0.38033 0.0
H2995 H 0.34277 0.92452 0.36085 0.0
H2996 H 0.28583 0.97788 0.3412 0.0
H2997 H 0.2994 0.89705 0.37358 0.0
H2998 H 0.32407 0.94639 0.35897 0.0
H2999 H 0.27294 0.94066 0.38328 0.0
C3000 C 0.26528 0.96156 0.3724 0.0
C3001 C 0.26866 0.97222 0.36046 0.0
C3002 C 0.31872 0.93554 0.3622 0.0
C3003 C 0.28981 0.94709 0.36402 0.0
C3004 C 0.32935 0.92298 0.36317 0.0
C3005 C 0.3227 0.9087 0.3671 0.0
C3006 C 0.30137 0.93402 0.36557 0.0
C3007 C 0.30522 0.90775 0.37062 0.0
C3008 C 0.27569 0.94885 0.37407 0.0
C3009 C 0.28271 0.96986 0.35048 0.0
N3010 N 0.29516 0.92025 0.36981 0.0
N3011 N 0.29289 0.95762 0.35259 0.0
H3012 H 0.29475 0.00737 0.62221 0.0
H3013 H 0.32739 0.09084 0.60907 0.0
H3014 H 0.2754 0.03673 0.58531 0.0
H3015 H 0.36116 0.05685 0.62819 0.0
H3016 H 0.30672 0.07128 0.60295 0.0
H3017 H 0.31822 0.02525 0.62679 0.0
C3018 C 0.29553 0.01745 0.61495 0.0
C3019 C 0.28298 0.02062 0.60346 0.0
C3020 C 0.3187 0.06807 0.6084 0.0
C3021 C 0.3095 0.0411 0.60883 0.0
C3022 C 0.33059 0.07925 0.61185 0.0
C3023 C 0.34626 0.07553 0.61892 0.0
C3024 C 0.32222 0.05301 0.61231 0.0
C3025 C 0.34926 0.06029 0.6228 0.0
C3026 C 0.3089 0.02762 0.61758 0.0
C3027 C 0.28467 0.03383 0.59437 0.0
N3028 N 0.33731 0.04956 0.61948 0.0
N3029 N 0.29752 0.04365 0.5974 0.0
H3030 H 0.18741 0.03503 0.90448 0.0
H3031 H 0.16295 0.10877 0.85489 0.0
H3032 H 0.19697 0.04025 0.8541 0.0
H3033 H 0.15305 0.10355 0.90518 0.0
H3034 H 0.17891 0.08509 0.85516 0.0
H3035 H 0.17849 0.06143 0.9058 0.0
C3036 C 0.18785 0.04177 0.89373 0.0
C3037 C 0.19272 0.03534 0.8791 0.0
C3038 C 0.17342 0.08919 0.86618 0.0
C3039 C 0.18239 0.06557 0.88051 0.0
C3040 C 0.16425 0.10268 0.86602 0.0
C3041 C 0.15649 0.10805 0.87999 0.0
C3042 C 0.17475 0.08091 0.88041 0.0
C3043 C 0.15885 0.09985 0.89414 0.0
C3044 C 0.18273 0.05686 0.89449 0.0
C3045 C 0.19315 0.04468 0.8656 0.0
N3046 N 0.1676 0.0866 0.89395 0.0
N3047 N 0.18786 0.05926 0.8666 0.0
H3048 H 0.68247 0.45863 0.59801 0.0
H3049 H 0.61942 0.4128 0.65475 0.0
H3050 H 0.69546 0.44431 0.64572 0.0
H3051 H 0.6087 0.42351 0.60556 0.0
H3052 H 0.64507 0.4285 0.65343 0.0
H3053 H 0.65332 0.45003 0.60236 0.0
C3054 C 0.67915 0.45386 0.60948 0.0
C3055 C 0.69151 0.45196 0.62143 0.0
C3056 C 0.63698 0.42758 0.64299 0.0
C3057 C 0.65816 0.442 0.62645 0.0
C3058 C 0.6223 0.4187 0.64377 0.0
C3059 C 0.61209 0.4167 0.63017 0.0
C3060 C 0.64143 0.4345 0.6285 0.0
C3061 C 0.61643 0.42453 0.61623 0.0
C3062 C 0.6625 0.44892 0.61194 0.0
C3063 C 0.68642 0.44582 0.63609 0.0
N3064 N 0.63085 0.43296 0.61571 0.0
N3065 N 0.67019 0.4409 0.63812 0.0
H3066 H 0.70134 0.45464 0.1415 0.0
H3067 H 0.64907 0.40253 0.08059 0.0
H3068 H 0.69648 0.46434 0.09124 0.0
H3069 H 0.6557 0.39245 0.13057 0.0
H3070 H 0.66865 0.42388 0.08358 0.0
H3071 H 0.68683 0.4306 0.13713 0.0
C3072 C 0.69735 0.45166 0.12951 0.0
C3073 C 0.7 0.46158 0.11674 0.0
C3074 C 0.66592 0.41692 0.09387 0.0
C3075 C 0.68324 0.43408 0.11166 0.0
C3076 C 0.65482 0.40468 0.09214 0.0
C3077 C 0.65059 0.3958 0.1054 0.0
C3078 C 0.67283 0.4203 0.10896 0.0
C3079 C 0.65833 0.39919 0.12011 0.0
C3080 C 0.68905 0.43791 0.12702 0.0
C3081 C 0.69463 0.45707 0.10145 0.0
N3082 N 0.66895 0.41122 0.12151 0.0
N3083 N 0.68636 0.44371 0.09936 0.0
H3084 H 0.26252 0.92931 0.88009 0.0
H3085 H 0.34522 0.90092 0.83542 0.0
H3086 H 0.27771 0.94997 0.83577 0.0
H3087 H 0.31028 0.87052 0.85885 0.0
H3088 H 0.3244 0.92133 0.83867 0.0
H3089 H 0.28463 0.9102 0.87647 0.0
C3090 C 0.27065 0.92995 0.8697 0.0
C3091 C 0.26823 0.94119 0.85816 0.0
C3092 C 0.32142 0.91015 0.84307 0.0
C3093 C 0.29356 0.91942 0.85404 0.0
C3094 C 0.33321 0.89845 0.84114 0.0
C3095 C 0.32967 0.8839 0.847 0.0
C3096 C 0.30617 0.90736 0.85119 0.0
C3097 C 0.31392 0.88156 0.85454 0.0
C3098 C 0.28317 0.91898 0.8676 0.0
C3099 C 0.27911 0.94142 0.84489 0.0
N3100 N 0.30287 0.89318 0.85655 0.0
N3101 N 0.29138 0.93068 0.84319 0.0
H3102 H 0.18428 0.0409 0.33546 0.0
H3103 H 0.10442 0.07556 0.38086 0.0
H3104 H 0.17304 0.03267 0.38507 0.0
H3105 H 0.11499 0.08347 0.33112 0.0
H3106 H 0.1269 0.05651 0.38144 0.0
H3107 H 0.15659 0.05307 0.33246 0.0
C3108 C 0.1759 0.04145 0.34568 0.0
C3109 C 0.18113 0.03597 0.36061 0.0
C3110 C 0.12417 0.06224 0.37032 0.0
C3111 C 0.14942 0.05002 0.35727 0.0
C3112 C 0.11136 0.07312 0.37 0.0
C3113 C 0.10802 0.08123 0.35597 0.0
C3114 C 0.13388 0.05954 0.35656 0.0
C3115 C 0.11718 0.07748 0.34218 0.0
C3116 C 0.16007 0.04843 0.34395 0.0
C3117 C 0.16964 0.03688 0.37337 0.0
N3118 N 0.12988 0.06706 0.34288 0.0
N3119 N 0.15443 0.04397 0.37146 0.0
H3120 H 0.42326 0.18747 0.44804 0.0
H3121 H 0.3499 0.16 0.38829 0.0
H3122 H 0.37048 0.20012 0.45302 0.0
H3123 H 0.40281 0.14779 0.3835 0.0
H3124 H 0.35746 0.17657 0.41064 0.0
H3125 H 0.41639 0.17506 0.42279 0.0
C3126 C 0.41025 0.18779 0.44374 0.0
C3127 C 0.3974 0.19472 0.45276 0.0
C3128 C 0.36744 0.17036 0.40461 0.0
C3129 C 0.38939 0.18036 0.42389 0.0
C3130 C 0.36311 0.16083 0.39191 0.0
C3131 C 0.37572 0.15242 0.38405 0.0
C3132 C 0.38449 0.17143 0.40957 0.0
C3133 C 0.39268 0.15415 0.38909 0.0
C3134 C 0.40632 0.18066 0.42932 0.0
C3135 C 0.38078 0.19484 0.44653 0.0
N3136 N 0.39654 0.16336 0.40158 0.0
N3137 N 0.37723 0.18763 0.43256 0.0
H3138 H 0.51512 0.65 0.22956 0.0
H3139 H 0.55061 0.59204 0.16398 0.0
H3140 H 0.50526 0.60202 0.23029 0.0
H3141 H 0.56138 0.63987 0.1638 0.0
H3142 H 0.53358 0.59553 0.18806 0.0
H3143 H 0.5314 0.64664 0.205 0.0
C3144 C 0.51629 0.63877 0.22451 0.0
C3145 C 0.50883 0.62627 0.23201 0.0
C3146 C 0.53966 0.60527 0.18275 0.0
C3147 C 0.52753 0.62232 0.20394 0.0
C3148 C 0.54948 0.60326 0.16906 0.0
C3149 C 0.55746 0.61568 0.16186 0.0
C3150 C 0.53778 0.61979 0.18933 0.0
C3151 C 0.5553 0.63 0.16883 0.0
C3152 C 0.52563 0.63685 0.2105 0.0
C3153 C 0.5108 0.61198 0.22493 0.0
N3154 N 0.54569 0.63166 0.18217 0.0
N3155 N 0.51999 0.61039 0.21132 0.0
H3156 H 0.0451 0.80802 0.95113 0.0
H3157 H 0.10709 0.8353 0.88149 0.0
H3158 H 0.09944 0.80083 0.95149 0.0
H3159 H 0.05292 0.84331 0.88183 0.0
H3160 H 0.10412 0.82 0.90556 0.0
H3161 H 0.04725 0.81804 0.9241 0.0
C3162 C 0.05747 0.80838 0.94547 0.0
C3163 C 0.07214 0.80375 0.95368 0.0
C3164 C 0.09285 0.82498 0.90028 0.0
C3165 C 0.07471 0.81534 0.92275 0.0
C3166 C 0.09456 0.83377 0.88658 0.0
C3167 C 0.08026 0.84071 0.8797 0.0
C3168 C 0.07674 0.82315 0.90723 0.0
C3169 C 0.06429 0.83811 0.88665 0.0
C3170 C 0.05869 0.81413 0.93003 0.0
C3171 C 0.0878 0.80439 0.94568 0.0
N3172 N 0.06299 0.82966 0.9001 0.0
N3173 N 0.08869 0.81023 0.93073 0.0
H3174 H 0.9575 0.39715 0.70378 0.0
H3175 H 0.91158 0.33877 0.64466 0.0
H3176 H 0.9602 0.34873 0.70931 0.0
H3177 H 0.9106 0.38716 0.63859 0.0
H3178 H 0.93111 0.34199 0.66721 0.0
H3179 H 0.94194 0.39356 0.67881 0.0
C3180 C 0.95492 0.38575 0.69969 0.0
C3181 C 0.96006 0.37323 0.70871 0.0
C3182 C 0.9267 0.3519 0.66088 0.0
C3183 C 0.94214 0.36902 0.68014 0.0
C3184 C 0.91562 0.35006 0.64796 0.0
C3185 C 0.90932 0.36272 0.63982 0.0
C3186 C 0.9315 0.36651 0.66571 0.0
C3187 C 0.91487 0.37709 0.64471 0.0
C3188 C 0.94603 0.38371 0.68542 0.0
C3189 C 0.95643 0.35872 0.70277 0.0
N3190 N 0.92555 0.3786 0.65738 0.0
N3191 N 0.94758 0.35702 0.68892 0.0
H3192 H 0.36178 0.78006 0.03372 0.0
H3193 H 0.42017 0.82743 0.09423 0.0
H3194 H 0.41622 0.78465 0.02891 0.0
H3195 H 0.36529 0.82702 0.09574 0.0
H3196 H 0.41927 0.80883 0.07261 0.0
H3197 H 0.36321 0.79419 0.05877 0.0
C3198 C 0.37407 0.78387 0.03802 0.0
C3199 C 0.38889 0.7813 0.02909 0.0
C3200 C 0.40743 0.81273 0.07774 0.0
C3201 C 0.39059 0.79759 0.05773 0.0
C3202 C 0.40793 0.82329 0.09014 0.0
C3203 C 0.39277 0.82888 0.09671 0.0
C3204 C 0.39165 0.80769 0.07187 0.0
C3205 C 0.37728 0.82321 0.09083 0.0
C3206 C 0.37486 0.79199 0.05231 0.0
C3207 C 0.40445 0.78647 0.03531 0.0
N3208 N 0.37711 0.81299 0.0787 0.0
N3209 N 0.40488 0.79447 0.04918 0.0
H3210 H 0.968 0.63687 0.75395 0.0
H3211 H 0.92451 0.59451 0.82759 0.0
H3212 H 0.95786 0.58894 0.75496 0.0
H3213 H 0.92765 0.64303 0.82347 0.0
H3214 H 0.94002 0.59202 0.80251 0.0
H3215 H 0.95688 0.63902 0.78107 0.0
C3216 C 0.96361 0.62677 0.75992 0.0
C3217 C 0.96372 0.61272 0.7521 0.0
C3218 C 0.93739 0.60321 0.80714 0.0
C3219 C 0.9509 0.61513 0.78312 0.0
C3220 C 0.92846 0.60464 0.82142 0.0
C3221 C 0.92462 0.61901 0.8276 0.0
C3222 C 0.94258 0.61623 0.79894 0.0
C3223 C 0.93041 0.63173 0.81924 0.0
C3224 C 0.9572 0.62802 0.77539 0.0
C3225 C 0.95789 0.60002 0.76046 0.0
N3226 N 0.93901 0.63005 0.8053 0.0
N3227 N 0.95163 0.60154 0.77547 0.0
H3228 H 0.09118 0.20807 0.53116 0.0
H3229 H 0.11138 0.12565 0.56176 0.0
H3230 H 0.13165 0.18107 0.51123 0.0
H3231 H 0.09601 0.16055 0.59493 0.0
H3232 H 0.11442 0.14476 0.54113 0.0
H3233 H 0.08846 0.18971 0.55298 0.0
C3234 C 0.09952 0.19832 0.53141 0.0
C3235 C 0.11169 0.19608 0.51941 0.0
C3236 C 0.1104 0.14819 0.55295 0.0
C3237 C 0.10837 0.17502 0.54398 0.0
C3238 C 0.10875 0.1373 0.56481 0.0
C3239 C 0.10364 0.14142 0.5803 0.0
C3240 C 0.10655 0.16331 0.55639 0.0
C3241 C 0.09981 0.15673 0.58319 0.0
C3242 C 0.09797 0.18791 0.54384 0.0
C3243 C 0.12217 0.18328 0.52029 0.0
N3244 N 0.10128 0.16711 0.57133 0.0
N3245 N 0.12014 0.17314 0.53226 0.0
H3246 H 0.51944 0.37722 0.26767 0.0
H3247 H 0.58048 0.33372 0.32894 0.0
H3248 H 0.52563 0.32876 0.26813 0.0
H3249 H 0.57774 0.38228 0.32524 0.0
H3250 H 0.5586 0.33156 0.30822 0.0
H3251 H 0.53889 0.37915 0.29036 0.0
C3252 C 0.52478 0.36697 0.27262 0.0
C3253 C 0.52095 0.35281 0.26593 0.0
C3254 C 0.56277 0.34269 0.31195 0.0
C3255 C 0.54333 0.35495 0.29188 0.0
C3256 C 0.5752 0.34393 0.32383 0.0
C3257 C 0.58102 0.3582 0.32875 0.0
C3258 C 0.55604 0.35582 0.30499 0.0
C3259 C 0.57384 0.37104 0.32162 0.0
C3260 C 0.53593 0.36809 0.28555 0.0
C3261 C 0.52826 0.33991 0.27286 0.0
N3262 N 0.56175 0.36955 0.3101 0.0
N3263 N 0.53915 0.3413 0.28541 0.0
H3264 H 0.43342 0.41017 0.19728 0.0
H3265 H 0.36266 0.35229 0.16606 0.0
H3266 H 0.43291 0.36268 0.2089 0.0
H3267 H 0.36625 0.39877 0.15099 0.0
H3268 H 0.38542 0.35689 0.18543 0.0
H3269 H 0.40581 0.40721 0.1842 0.0
C3270 C 0.4274 0.39915 0.19728 0.0
C3271 C 0.43563 0.3866 0.20398 0.0
C3272 C 0.38109 0.36613 0.17802 0.0
C3273 C 0.40405 0.38312 0.1889 0.0
C3274 C 0.36814 0.3635 0.16692 0.0
C3275 C 0.36267 0.37511 0.15674 0.0
C3276 C 0.38869 0.38048 0.17893 0.0
C3277 C 0.36999 0.38949 0.15861 0.0
C3278 C 0.41164 0.39747 0.18977 0.0
C3279 C 0.42713 0.37264 0.20373 0.0
N3280 N 0.38274 0.39171 0.16935 0.0
N3281 N 0.41191 0.37124 0.19614 0.0
H3282 H 0.36687 0.71148 0.96528 0.0
H3283 H 0.3094 0.64784 0.92353 0.0
H3284 H 0.31197 0.71295 0.96383 0.0
H3285 H 0.36424 0.64885 0.9215 0.0
H3286 H 0.31003 0.66995 0.94115 0.0
H3287 H 0.36605 0.68687 0.95206 0.0
C3288 C 0.35463 0.70657 0.96231 0.0
C3289 C 0.33947 0.71436 0.96555 0.0
C3290 C 0.32193 0.66527 0.93694 0.0
C3291 C 0.33845 0.68618 0.95033 0.0
C3292 C 0.32158 0.65259 0.92696 0.0
C3293 C 0.33679 0.64657 0.92094 0.0
C3294 C 0.3376 0.67194 0.94095 0.0
C3295 C 0.3522 0.65328 0.92566 0.0
C3296 C 0.35417 0.69252 0.95473 0.0
C3297 C 0.32398 0.7074 0.96147 0.0
N3298 N 0.35221 0.66563 0.93531 0.0
N3299 N 0.32387 0.69375 0.95398 0.0
H3300 H 0.04727 0.58203 0.6841 0.0
H3301 H 0.11322 0.6477 0.66204 0.0
H3302 H 0.03655 0.62953 0.69014 0.0
H3303 H 0.12286 0.60024 0.65423 0.0
H3304 H 0.08589 0.64123 0.67411 0.0
H3305 H 0.07583 0.58845 0.67493 0.0
C3306 C 0.05094 0.59381 0.68357 0.0
C3307 C 0.03946 0.60526 0.68782 0.0
C3308 C 0.09403 0.63223 0.66984 0.0
C3309 C 0.07217 0.6127 0.67729 0.0
C3310 C 0.10962 0.63592 0.66291 0.0
C3311 C 0.12035 0.62451 0.65706 0.0
C3312 C 0.08909 0.61701 0.67091 0.0
C3313 C 0.11511 0.60942 0.65872 0.0
C3314 C 0.06726 0.59747 0.67832 0.0
C3315 C 0.04495 0.62033 0.68693 0.0
N3316 N 0.09983 0.60612 0.6654 0.0
N3317 N 0.06089 0.62362 0.6817 0.0
H3318 H 0.16695 0.24453 0.41797 0.0
H3319 H 0.15491 0.33408 0.42502 0.0
H3320 H 0.15187 0.26704 0.46147 0.0
H3321 H 0.16309 0.31042 0.38062 0.0
H3322 H 0.1574 0.3101 0.43929 0.0
H3323 H 0.16926 0.26901 0.40493 0.0
C3324 C 0.16425 0.25463 0.42484 0.0
C3325 C 0.15905 0.25371 0.44082 0.0
C3326 C 0.15876 0.31017 0.42644 0.0
C3327 C 0.16162 0.28184 0.42588 0.0
C3328 C 0.15745 0.32387 0.4183 0.0
C3329 C 0.15872 0.32423 0.40159 0.0
C3330 C 0.16143 0.29675 0.41783 0.0
C3331 C 0.1618 0.31062 0.39347 0.0
C3332 C 0.16554 0.26862 0.41736 0.0
C3333 C 0.15582 0.26721 0.44911 0.0
N3334 N 0.163 0.29744 0.40166 0.0
N3335 N 0.15705 0.28073 0.44151 0.0
H3336 H 0.4319 0.58557 0.29474 0.0
H3337 H 0.34688 0.63207 0.3127 0.0
H3338 H 0.42176 0.62981 0.27534 0.0
H3339 H 0.35725 0.58749 0.33105 0.0
H3340 H 0.37305 0.63067 0.29699 0.0
H3341 H 0.40329 0.58513 0.30589 0.0
C3342 C 0.4236 0.59514 0.29269 0.0
C3343 C 0.42932 0.60782 0.28423 0.0
C3344 C 0.3695 0.62114 0.30434 0.0
C3345 C 0.39652 0.60744 0.29712 0.0
C3346 C 0.35461 0.62196 0.31336 0.0
C3347 C 0.34988 0.60991 0.32326 0.0
C3348 C 0.37981 0.6082 0.30529 0.0
C3349 C 0.36026 0.597 0.32348 0.0
C3350 C 0.40724 0.59489 0.29908 0.0
C3351 C 0.41793 0.61983 0.28186 0.0
N3352 N 0.37478 0.59654 0.31474 0.0
N3353 N 0.40213 0.61942 0.28841 0.0
H3354 H 0.1356 0.73541 0.0146 0.0
H3355 H 0.11543 0.69645 0.09633 0.0
H3356 H 0.0951 0.7522 0.04441 0.0
H3357 H 0.12267 0.66903 0.05405 0.0
H3358 H 0.11342 0.71876 0.07939 0.0
H3359 H 0.13672 0.71238 0.03094 0.0
C3360 C 0.12695 0.73422 0.02455 0.0
C3361 C 0.11518 0.74563 0.02815 0.0
C3362 C 0.11547 0.7078 0.07393 0.0
C3363 C 0.11674 0.71973 0.04698 0.0
C3364 C 0.1165 0.695 0.08355 0.0
C3365 C 0.11915 0.68065 0.07672 0.0
C3366 C 0.11756 0.70637 0.0574 0.0
C3367 C 0.12098 0.67978 0.06002 0.0
C3368 C 0.12758 0.72113 0.0338 0.0
C3369 C 0.10425 0.74359 0.04118 0.0
N3370 N 0.12029 0.69247 0.05095 0.0
N3371 N 0.10544 0.73095 0.05028 0.0
H3372 H 0.04826 0.37602 0.77608 0.0
H3373 H 0.12921 0.33203 0.80997 0.0
H3374 H 0.05399 0.32753 0.77448 0.0
H3375 H 0.12167 0.38011 0.81484 0.0
H3376 H 0.10408 0.33069 0.79278 0.0
H3377 H 0.07747 0.37821 0.78583 0.0
C3378 C 0.05573 0.36584 0.77756 0.0
C3379 C 0.04856 0.35154 0.77471 0.0
C3380 C 0.10803 0.34157 0.79745 0.0
C3381 C 0.08198 0.35398 0.78599 0.0
C3382 C 0.12234 0.34233 0.80731 0.0
C3383 C 0.1274 0.35617 0.81403 0.0
C3384 C 0.09864 0.35474 0.79434 0.0
C3385 C 0.11824 0.36921 0.8099 0.0
C3386 C 0.07241 0.3671 0.78316 0.0
C3387 C 0.05891 0.33877 0.7767 0.0
N3388 N 0.10418 0.36814 0.80048 0.0
N3389 N 0.07503 0.34027 0.78241 0.0
H3390 H 0.38574 0.26258 0.53813 0.0
H3391 H 0.32153 0.32214 0.57752 0.0
H3392 H 0.33131 0.26131 0.53114 0.0
H3393 H 0.37484 0.31943 0.58964 0.0
H3394 H 0.32516 0.30092 0.55909 0.0
H3395 H 0.3823 0.28456 0.55555 0.0
C3396 C 0.37307 0.26698 0.54018 0.0
C3397 C 0.35879 0.26007 0.53319 0.0
C3398 C 0.33606 0.30495 0.56579 0.0
C3399 C 0.35476 0.28521 0.55317 0.0
C3400 C 0.33401 0.3171 0.57626 0.0
C3401 C 0.3479 0.32254 0.58515 0.0
C3402 C 0.35215 0.29822 0.5641 0.0
C3403 C 0.36375 0.31548 0.58318 0.0
C3404 C 0.37111 0.2795 0.55018 0.0
C3405 C 0.34268 0.26625 0.5363 0.0
N3406 N 0.36545 0.30371 0.57284 0.0
N3407 N 0.3411 0.27845 0.54607 0.0
H3408 H 0.16532 0.4576 0.42346 0.0
H3409 H 0.19254 0.37379 0.39817 0.0
H3410 H 0.21688 0.44629 0.41037 0.0
H3411 H 0.14109 0.39068 0.39689 0.0
H3412 H 0.20233 0.39884 0.40727 0.0
H3413 H 0.15698 0.43149 0.41869 0.0
C3414 C 0.17494 0.4496 0.4197 0.0
C3415 C 0.1918 0.45419 0.41714 0.0
C3416 C 0.1889 0.39699 0.40506 0.0
C3417 C 0.18227 0.42419 0.41162 0.0
C3418 C 0.18333 0.38274 0.39995 0.0
C3419 C 0.16603 0.38029 0.39666 0.0
C3420 C 0.17701 0.40869 0.40711 0.0
C3421 C 0.15457 0.3922 0.39911 0.0
C3422 C 0.17014 0.43468 0.41694 0.0
C3423 C 0.20372 0.44326 0.41237 0.0
N3424 N 0.16026 0.40586 0.40418 0.0
N3425 N 0.1987 0.42874 0.40967 0.0
H3426 H 0.67217 0.05132 0.56262 0.0
H3427 H 0.61406 0.12535 0.55661 0.0
H3428 H 0.63847 0.06067 0.52309 0.0
H3429 H 0.64328 0.11378 0.59851 0.0
H3430 H 0.62362 0.10204 0.54383 0.0
H3431 H 0.66245 0.07448 0.57569 0.0
C3432 C 0.66273 0.05824 0.55668 0.0
C3433 C 0.65613 0.05406 0.54173 0.0
C3434 C 0.62794 0.10457 0.55583 0.0
C3435 C 0.64496 0.08057 0.55661 0.0
C3436 C 0.62256 0.11792 0.56309 0.0
C3437 C 0.62795 0.12154 0.57862 0.0
C3438 C 0.63885 0.09476 0.5641 0.0
C3439 C 0.63873 0.11137 0.58656 0.0
C3440 C 0.65716 0.07145 0.56417 0.0
C3441 C 0.6439 0.06345 0.53461 0.0
N3442 N 0.64388 0.09847 0.57919 0.0
N3443 N 0.63875 0.07627 0.5421 0.0
H3444 H 0.73928 0.90527 0.38941 0.0
H3445 H 0.67979 0.87635 0.31804 0.0
H3446 H 0.73013 0.93187 0.34714 0.0
H3447 H 0.67643 0.8604 0.36662 0.0
H3448 H 0.7019 0.89424 0.32653 0.0
H3449 H 0.72033 0.8858 0.37889 0.0
C3450 C 0.73341 0.90698 0.37785 0.0
C3451 C 0.73616 0.9203 0.36922 0.0
C3452 C 0.69636 0.88671 0.33524 0.0
C3453 C 0.71443 0.89801 0.35711 0.0
C3454 C 0.6837 0.87653 0.33044 0.0
C3455 C 0.67621 0.86674 0.34159 0.0
C3456 C 0.70168 0.88698 0.35124 0.0
C3457 C 0.68201 0.86741 0.35746 0.0
C3458 C 0.72254 0.89586 0.37188 0.0
C3459 C 0.72824 0.92183 0.35426 0.0
N3460 N 0.69436 0.87732 0.36178 0.0
N3461 N 0.71766 0.91082 0.34868 0.0
H3462 H 0.78034 0.93438 0.08339 0.0
H3463 H 0.84684 0.86723 0.06923 0.0
H3464 H 0.80584 0.92606 0.03866 0.0
H3465 H 0.82092 0.87467 0.11391 0.0
H3466 H 0.83088 0.88808 0.05756 0.0
H3467 H 0.79421 0.91205 0.09457 0.0
C3468 C 0.78882 0.92784 0.07591 0.0
C3469 C 0.79198 0.93213 0.06008 0.0
C3470 C 0.82861 0.88512 0.0699 0.0
C3471 C 0.80791 0.90657 0.07281 0.0
C3472 C 0.83763 0.87313 0.07655 0.0
C3473 C 0.83521 0.86917 0.09259 0.0
C3474 C 0.81708 0.8933 0.07934 0.0
C3475 C 0.82334 0.87744 0.10155 0.0
C3476 C 0.79673 0.91508 0.0823 0.0
C3477 C 0.80306 0.92321 0.05093 0.0
N3478 N 0.81475 0.88914 0.09482 0.0
N3479 N 0.81065 0.91089 0.05744 0.0
H3480 H 0.24435 0.52093 0.34558 0.0
H3481 H 0.30347 0.58815 0.37716 0.0
H3482 H 0.25831 0.52738 0.395 0.0
H3483 H 0.29648 0.57843 0.32708 0.0
H3484 H 0.28688 0.56575 0.38369 0.0
H3485 H 0.26364 0.5415 0.33826 0.0
C3486 C 0.2516 0.52655 0.35487 0.0
C3487 C 0.24964 0.52247 0.37094 0.0
C3488 C 0.28898 0.56846 0.37126 0.0
C3489 C 0.27156 0.5461 0.36267 0.0
C3490 C 0.29834 0.58132 0.36752 0.0
C3491 C 0.3012 0.58524 0.35155 0.0
C3492 C 0.28228 0.55943 0.35895 0.0
C3493 C 0.29457 0.5758 0.33955 0.0
C3494 C 0.26258 0.53831 0.35068 0.0
C3495 C 0.25935 0.53015 0.38247 0.0
N3496 N 0.2853 0.56337 0.3435 0.0
N3497 N 0.26977 0.54165 0.37812 0.0
H3498 H 0.26874 0.52861 0.88002 0.0
H3499 H 0.31909 0.59353 0.92688 0.0
H3500 H 0.27576 0.52844 0.93112 0.0
H3501 H 0.30605 0.59569 0.87687 0.0
H3502 H 0.30235 0.57029 0.92912 0.0
H3503 H 0.28165 0.55363 0.87895 0.0
C3504 C 0.27292 0.53387 0.89104 0.0
C3505 C 0.27124 0.52638 0.90567 0.0
C3506 C 0.30306 0.57591 0.91768 0.0
C3507 C 0.28617 0.55506 0.90453 0.0
C3508 C 0.31254 0.58922 0.91642 0.0
C3509 C 0.31413 0.59648 0.90162 0.0
C3510 C 0.29516 0.56981 0.90405 0.0
C3511 C 0.30548 0.59031 0.88844 0.0
C3512 C 0.28029 0.54819 0.89043 0.0
C3513 C 0.27683 0.53379 0.91958 0.0
N3514 N 0.29649 0.5773 0.88994 0.0
N3515 N 0.28417 0.54768 0.91865 0.0
H3516 H 0.75458 0.04616 0.12468 0.0
H3517 H 0.71187 0.12066 0.09174 0.0
H3518 H 0.76721 0.06595 0.0792 0.0
H3519 H 0.71098 0.10932 0.14185 0.0
H3520 H 0.73299 0.10112 0.08742 0.0
H3521 H 0.73934 0.06937 0.13181 0.0
C3522 C 0.75433 0.05544 0.11627 0.0
C3523 C 0.76195 0.05402 0.10121 0.0
C3524 C 0.72835 0.10301 0.09941 0.0
C3525 C 0.74448 0.08048 0.10925 0.0
C3526 C 0.71633 0.11431 0.10195 0.0
C3527 C 0.70948 0.11671 0.11721 0.0
C3528 C 0.73343 0.09378 0.11214 0.0
C3529 C 0.71558 0.10772 0.12981 0.0
C3530 C 0.74565 0.06868 0.12037 0.0
C3531 C 0.76133 0.06644 0.09085 0.0
N3532 N 0.72704 0.09652 0.12696 0.0
N3533 N 0.75255 0.07905 0.09498 0.0
H3534 H 0.75062 0.95255 0.56279 0.0
H3535 H 0.77189 0.89649 0.63493 0.0
H3536 H 0.71743 0.94742 0.60338 0.0
H3537 H 0.79513 0.89407 0.58844 0.0
H3538 H 0.75432 0.91774 0.62559 0.0
H3539 H 0.76973 0.93379 0.5742 0.0
C3540 C 0.74738 0.94754 0.57416 0.0
C3541 C 0.73231 0.95147 0.58206 0.0
C3542 C 0.76331 0.91255 0.61749 0.0
C3543 C 0.7542 0.92992 0.59522 0.0
C3544 C 0.77334 0.9005 0.62281 0.0
C3545 C 0.78479 0.89346 0.61236 0.0
C3546 C 0.765 0.91766 0.6017 0.0
C3547 C 0.78624 0.89905 0.59679 0.0
C3548 C 0.7583 0.93679 0.58065 0.0
C3549 C 0.72886 0.94464 0.59682 0.0
N3550 N 0.77647 0.9108 0.59194 0.0
N3551 N 0.73971 0.93414 0.60292 0.0
loop_
_geom_bond_atom_site_label_1
_geom_bond_atom_site_label_2
_geom_bond_distance
_geom_bond_site_symmetry_2
_ccdc_geom_bond_type
O0 Cd1 2.300 . S
O0 C7 1.275 . S
Cd1 O0 2.300 . S
Cd1 O9 2.381 . S
Cd1 O10 2.378 . S
O2 Cd3 2.385 . S
O2 C7 1.255 . S
Cd3 O2 2.385 . S
Cd3 O4 2.317 1_455 S
O4 Cd3 2.317 1_655 S
O4 C5 1.232 . S
C5 O4 1.232 . S
C5 O6 1.218 . S
O6 C5 1.218 . S
C7 O0 1.275 . S
C7 O2 1.255 . S
C8 O9 1.258 . S
C8 O10 1.256 . S
O9 Cd1 2.381 . S
O9 C8 1.258 . S
O10 Cd1 2.378 . S
O10 C8 1.256 . S
O11 Cd12 2.300 . S
O11 C18 1.275 . S
Cd12 O11 2.300 . S
Cd12 O20 2.381 . S
Cd12 O21 2.378 . S
O13 Cd14 2.385 . S
O13 C18 1.255 . S
Cd14 O13 2.385 . S
Cd14 O15 2.317 . S
O15 Cd14 2.317 . S
O15 C16 1.232 . S
C16 O15 1.232 . S
C16 O17 1.218 . S
O17 C16 1.218 . S
C18 O11 1.275 . S
C18 O13 1.255 . S
C19 O20 1.258 . S
C19 O21 1.256 . S
O20 Cd12 2.381 . S
O20 C19 1.258 . S
O21 Cd12 2.378 . S
O21 C19 1.256 . S
O22 Cd23 2.300 . S
O22 C29 1.275 . S
Cd23 O22 2.300 . S
Cd23 O31 2.381 . S
Cd23 O32 2.378 . S
O24 Cd25 2.385 . S
O24 C29 1.255 . S
Cd25 O24 2.385 . S
Cd25 O26 2.317 . S
O26 Cd25 2.317 . S
O26 C27 1.232 . S
C27 O26 1.232 . S
C27 O28 1.218 . S
O28 C27 1.218 . S
C29 O22 1.275 . S
C29 O24 1.255 . S
C30 O31 1.258 . S
C30 O32 1.256 . S
O31 Cd23 2.381 . S
O31 C30 1.258 . S
O32 Cd23 2.378 . S
O32 C30 1.256 . S
O33 Cd34 2.300 . S
O33 C40 1.275 . S
Cd34 O33 2.300 . S
Cd34 O42 2.381 . S
Cd34 O43 2.378 . S
O35 Cd36 2.385 1_554 S
O35 C40 1.255 . S
Cd36 O35 2.385 1_556 S
Cd36 O37 2.317 . S
O37 Cd36 2.317 . S
O37 C38 1.232 . S
C38 O37 1.232 . S
C38 O39 1.218 . S
O39 C38 1.218 . S
C40 O33 1.275 . S
C40 O35 1.255 . S
C41 O42 1.258 . S
C41 O43 1.256 . S
O42 Cd34 2.381 . S
O42 C41 1.258 . S
O43 Cd34 2.378 . S
O43 C41 1.256 . S
O44 Cd45 2.300 . S
O44 C51 1.275 . S
Cd45 O44 2.300 . S
Cd45 O53 2.381 . S
Cd45 O54 2.378 . S
O46 Cd47 2.327 1_455 S
O46 C51 1.255 . S
Cd47 O46 2.327 1_655 S
Cd47 O48 2.347 . S
O48 Cd47 2.347 . S
O48 C49 1.232 . S
C49 O48 1.232 . S
C49 O50 1.218 . S
O50 C49 1.218 . S
C51 O44 1.275 . S
C51 O46 1.255 . S
C52 O53 1.258 . S
C52 O54 1.256 . S
O53 Cd45 2.381 . S
O53 C52 1.258 . S
O54 Cd45 2.378 . S
O54 C52 1.256 . S
O55 Cd56 2.300 . S
O55 C62 1.275 . S
Cd56 O55 2.300 . S
Cd56 O64 2.381 . S
Cd56 O65 2.378 . S
O57 Cd58 2.385 . S
O57 C62 1.255 . S
Cd58 O57 2.385 . S
Cd58 O59 2.317 . S
O59 Cd58 2.317 . S
O59 C60 1.232 . S
C60 O59 1.232 . S
C60 O61 1.218 . S
O61 C60 1.218 . S
C62 O55 1.275 . S
C62 O57 1.255 . S
C63 O64 1.258 . S
C63 O65 1.256 . S
O64 Cd56 2.381 . S
O64 C63 1.258 . S
O65 Cd56 2.378 . S
O65 C63 1.256 . S
O66 Cd67 2.300 . S
O66 C73 1.275 . S
Cd67 O66 2.300 . S
Cd67 O75 2.381 . S
Cd67 O76 2.378 . S
O68 Cd69 2.385 . S
O68 C73 1.255 . S
Cd69 O68 2.385 . S
Cd69 O70 2.317 . S
O70 Cd69 2.317 . S
O70 C71 1.232 . S
C71 O70 1.232 . S
C71 O72 1.218 . S
O72 C71 1.218 . S
C73 O66 1.275 . S
C73 O68 1.255 . S
C74 O75 1.258 . S
C74 O76 1.256 . S
O75 Cd67 2.381 . S
O75 C74 1.258 . S
O76 Cd67 2.378 . S
O76 C74 1.256 . S
O77 Cd78 2.300 . S
O77 C84 1.275 . S
Cd78 O77 2.300 . S
Cd78 O86 2.381 . S
Cd78 O87 2.378 . S
O79 Cd80 2.385 . S
O79 C84 1.255 . S
Cd80 O79 2.385 . S
Cd80 O81 2.317 1_556 S
O81 Cd80 2.317 1_554 S
O81 C82 1.232 . S
C82 O81 1.232 . S
C82 O83 1.218 . S
O83 C82 1.218 . S
C84 O77 1.275 . S
C84 O79 1.255 . S
C85 O86 1.258 . S
C85 O87 1.256 . S
O86 Cd78 2.381 . S
O86 C85 1.258 . S
O87 Cd78 2.378 . S
O87 C85 1.256 . S
O88 Cd89 2.300 . S
O88 C95 1.275 . S
Cd89 O88 2.300 . S
Cd89 O97 2.381 1_545 S
Cd89 O98 2.378 1_545 S
O90 Cd91 2.385 . S
O90 C95 1.255 . S
Cd91 O90 2.385 . S
Cd91 O92 2.317 . S
O92 Cd91 2.317 . S
O92 C93 1.232 . S
C93 O92 1.232 . S
C93 O94 1.218 . S
O94 C93 1.218 . S
C95 O88 1.275 . S
C95 O90 1.255 . S
C96 O97 1.258 . S
C96 O98 1.256 . S
O97 Cd89 2.381 1_565 S
O97 C96 1.258 . S
O98 Cd89 2.378 1_565 S
O98 C96 1.256 . S
O99 Cd100 2.300 . S
O99 C106 1.275 . S
Cd100 O99 2.300 . S
Cd100 O108 2.381 1_545 S
Cd100 O109 2.378 1_545 S
O101 Cd102 2.385 . S
O101 C106 1.255 . S
Cd102 O101 2.385 . S
Cd102 O103 2.317 . S
O103 Cd102 2.317 . S
O103 C104 1.232 . S
C104 O103 1.232 . S
C104 O105 1.218 . S
O105 C104 1.218 . S
C106 O99 1.275 . S
C106 O101 1.255 . S
C107 O108 1.258 . S
C107 O109 1.256 . S
O108 Cd100 2.381 1_565 S
O108 C107 1.258 . S
O109 Cd100 2.378 1_565 S
O109 C107 1.256 . S
O110 Cd111 2.300 . S
O110 C117 1.275 . S
Cd111 O110 2.300 . S
Cd111 O119 2.381 . S
Cd111 O120 2.378 . S
O112 Cd113 2.399 . S
O112 C117 1.255 . S
Cd113 O112 2.399 . S
Cd113 O114 2.309 1_565 S
O114 Cd113 2.309 1_545 S
O114 C115 1.232 . S
C115 O114 1.232 . S
C115 O116 1.218 . S
O116 C115 1.218 . S
C117 O110 1.275 . S
C117 O112 1.255 . S
C118 O119 1.258 . S
C118 O120 1.256 . S
O119 Cd111 2.381 . S
O119 C118 1.258 . S
O120 Cd111 2.378 . S
O120 C118 1.256 . S
O121 Cd122 2.250 1_565 S
O121 C128 1.275 . S
Cd122 O121 2.250 1_545 S
Cd122 O130 2.426 . S
Cd122 O131 2.448 . S
O123 Cd124 2.385 . S
O123 C128 1.255 . S
Cd124 O123 2.385 . S
Cd124 O125 2.317 . S
O125 Cd124 2.317 . S
O125 C126 1.232 . S
C126 O125 1.232 . S
C126 O127 1.218 . S
O127 C126 1.218 . S
C128 O121 1.275 . S
C128 O123 1.255 . S
C129 O130 1.258 . S
C129 O131 1.256 . S
O130 Cd122 2.426 . S
O130 C129 1.258 . S
O131 Cd122 2.448 . S
O131 C129 1.256 . S
O132 Cd133 2.300 . S
O132 C139 1.275 . S
Cd133 O132 2.300 . S
Cd133 O141 2.381 1_554 S
Cd133 O142 2.378 1_554 S
O134 Cd135 2.385 . S
O134 C139 1.255 . S
Cd135 O134 2.385 . S
Cd135 O136 2.317 . S
O136 Cd135 2.317 . S
O136 C137 1.232 . S
C137 O136 1.232 . S
C137 O138 1.218 . S
O138 C137 1.218 . S
C139 O132 1.275 . S
C139 O134 1.255 . S
C140 O141 1.258 . S
C140 O142 1.256 . S
O141 Cd133 2.381 1_556 S
O141 C140 1.258 . S
O142 Cd133 2.378 1_556 S
O142 C140 1.256 . S
O143 Cd144 2.300 . S
O143 C150 1.275 . S
Cd144 O143 2.300 . S
Cd144 O152 2.381 . S
Cd144 O153 2.378 . S
O145 Cd146 2.385 1_655 S
O145 C150 1.255 . S
Cd146 O145 2.385 1_455 S
Cd146 O147 2.317 . S
O147 Cd146 2.317 . S
O147 C148 1.232 . S
C148 O147 1.232 . S
C148 O149 1.218 . S
O149 C148 1.218 . S
C150 O143 1.275 . S
C150 O145 1.255 . S
C151 O152 1.258 . S
C151 O153 1.256 . S
O152 Cd144 2.381 . S
O152 C151 1.258 . S
O153 Cd144 2.378 . S
O153 C151 1.256 . S
O154 Cd155 2.300 . S
O154 C161 1.275 . S
Cd155 O154 2.300 . S
Cd155 O163 2.381 . S
Cd155 O164 2.378 . S
O156 Cd157 2.385 . S
O156 C161 1.255 . S
Cd157 O156 2.385 . S
Cd157 O158 2.317 . S
O158 Cd157 2.317 . S
O158 C159 1.232 . S
C159 O158 1.232 . S
C159 O160 1.218 . S
O160 C159 1.218 . S
C161 O154 1.275 . S
C161 O156 1.255 . S
C162 O163 1.258 . S
C162 O164 1.256 . S
O163 Cd155 2.381 . S
O163 C162 1.258 . S
O164 Cd155 2.378 . S
O164 C162 1.256 . S
O165 Cd166 2.300 1_655 S
O165 C172 1.275 . S
Cd166 O165 2.300 1_455 S
Cd166 O174 2.381 . S
Cd166 O175 2.378 . S
O167 Cd168 2.385 . S
O167 C172 1.255 . S
Cd168 O167 2.385 . S
Cd168 O169 2.317 . S
O169 Cd168 2.317 . S
O169 C170 1.232 . S
C170 O169 1.232 . S
C170 O171 1.218 . S
O171 C170 1.218 . S
C172 O165 1.275 . S
C172 O167 1.255 . S
C173 O174 1.258 . S
C173 O175 1.256 . S
O174 Cd166 2.381 . S
O174 C173 1.258 . S
O175 Cd166 2.378 . S
O175 C173 1.256 . S
O176 Cd177 2.300 . S
O176 C183 1.275 . S
Cd177 O176 2.300 . S
Cd177 O185 2.381 . S
Cd177 O186 2.378 . S
O178 Cd179 2.385 . S
O178 C183 1.255 . S
Cd179 O178 2.385 . S
Cd179 O180 2.317 . S
O180 Cd179 2.317 . S
O180 C181 1.232 . S
C181 O180 1.232 . S
C181 O182 1.218 . S
O182 C181 1.218 . S
C183 O176 1.275 . S
C183 O178 1.255 . S
C184 O185 1.258 . S
C184 O186 1.256 . S
O185 Cd177 2.381 . S
O185 C184 1.258 . S
O186 Cd177 2.378 . S
O186 C184 1.256 . S
O187 Cd188 2.300 . S
O187 C194 1.275 . S
Cd188 O187 2.300 . S
Cd188 O196 2.381 . S
Cd188 O197 2.378 . S
O189 Cd190 2.385 . S
O189 C194 1.255 . S
Cd190 O189 2.385 . S
Cd190 O191 2.317 . S
O191 Cd190 2.317 . S
O191 C192 1.232 . S
C192 O191 1.232 . S
C192 O193 1.218 . S
O193 C192 1.218 . S
C194 O187 1.275 . S
C194 O189 1.255 . S
C195 O196 1.258 . S
C195 O197 1.256 . S
O196 Cd188 2.381 . S
O196 C195 1.258 . S
O197 Cd188 2.378 . S
O197 C195 1.256 . S
O198 Cd199 2.300 . S
O198 C205 1.275 . S
Cd199 O198 2.300 . S
Cd199 O207 2.381 . S
Cd199 O208 2.378 . S
O200 Cd201 2.385 . S
O200 C205 1.255 . S
Cd201 O200 2.385 . S
Cd201 O202 2.317 1_556 S
O202 Cd201 2.317 1_554 S
O202 C203 1.232 . S
C203 O202 1.232 . S
C203 O204 1.218 . S
O204 C203 1.218 . S
C205 O198 1.275 . S
C205 O200 1.255 . S
C206 O207 1.258 . S
C206 O208 1.256 . S
O207 Cd199 2.381 . S
O207 C206 1.258 . S
O208 Cd199 2.378 . S
O208 C206 1.256 . S
O209 Cd210 2.300 . S
O209 C216 1.275 . S
Cd210 O209 2.300 . S
Cd210 O218 2.381 . S
Cd210 O219 2.378 . S
O211 Cd212 2.385 1_655 S
O211 C216 1.255 . S
Cd212 O211 2.385 1_455 S
Cd212 O213 2.317 . S
O213 Cd212 2.317 . S
O213 C214 1.232 . S
C214 O213 1.232 . S
C214 O215 1.218 . S
O215 C214 1.218 . S
C216 O209 1.275 . S
C216 O211 1.255 . S
C217 O218 1.258 . S
C217 O219 1.256 . S
O218 Cd210 2.381 . S
O218 C217 1.258 . S
O219 Cd210 2.378 . S
O219 C217 1.256 . S
O220 Cd221 2.300 . S
O220 C227 1.275 . S
Cd221 O220 2.300 . S
Cd221 O229 2.381 . S
Cd221 O230 2.378 . S
O222 Cd223 2.385 . S
O222 C227 1.255 . S
Cd223 O222 2.385 . S
Cd223 O224 2.317 . S
O224 Cd223 2.317 . S
O224 C225 1.232 . S
C225 O224 1.232 . S
C225 O226 1.218 . S
O226 C225 1.218 . S
C227 O220 1.275 . S
C227 O222 1.255 . S
C228 O229 1.258 . S
C228 O230 1.256 . S
O229 Cd221 2.381 . S
O229 C228 1.258 . S
O230 Cd221 2.378 . S
O230 C228 1.256 . S
O231 Cd232 2.300 . S
O231 C238 1.275 . S
Cd232 O231 2.300 . S
Cd232 O240 2.381 . S
Cd232 O241 2.378 . S
O233 Cd234 2.385 . S
O233 C238 1.255 . S
Cd234 O233 2.385 . S
Cd234 O235 2.317 . S
O235 Cd234 2.317 . S
O235 C236 1.232 . S
C236 O235 1.232 . S
C236 O237 1.218 . S
O237 C236 1.218 . S
C238 O231 1.275 . S
C238 O233 1.255 . S
C239 O240 1.258 . S
C239 O241 1.256 . S
O240 Cd232 2.381 . S
O240 C239 1.258 . S
O241 Cd232 2.378 . S
O241 C239 1.256 . S
O242 Cd243 2.300 . S
O242 C249 1.275 . S
Cd243 O242 2.300 . S
Cd243 O251 2.381 . S
Cd243 O252 2.378 . S
O244 Cd245 2.385 1_554 S
O244 C249 1.255 . S
Cd245 O244 2.385 1_556 S
Cd245 O246 2.317 . S
O246 Cd245 2.317 . S
O246 C247 1.232 . S
C247 O246 1.232 . S
C247 O248 1.218 . S
O248 C247 1.218 . S
C249 O242 1.275 . S
C249 O244 1.255 . S
C250 O251 1.258 . S
C250 O252 1.256 . S
O251 Cd243 2.381 . S
O251 C250 1.258 . S
O252 Cd243 2.378 . S
O252 C250 1.256 . S
O253 Cd254 2.300 1_565 S
O253 C260 1.275 . S
Cd254 O253 2.300 1_545 S
Cd254 O262 2.381 . S
Cd254 O263 2.378 . S
O255 Cd256 2.385 . S
O255 C260 1.255 . S
Cd256 O255 2.385 . S
Cd256 O257 2.317 . S
O257 Cd256 2.317 . S
O257 C258 1.232 . S
C258 O257 1.232 . S
C258 O259 1.218 . S
O259 C258 1.218 . S
C260 O253 1.275 . S
C260 O255 1.255 . S
C261 O262 1.258 . S
C261 O263 1.256 . S
O262 Cd254 2.381 . S
O262 C261 1.258 . S
O263 Cd254 2.378 . S
O263 C261 1.256 . S
O264 Cd265 2.300 1_565 S
O264 C271 1.275 . S
Cd265 O264 2.300 1_545 S
Cd265 O273 2.381 . S
Cd265 O274 2.378 . S
O266 Cd267 2.385 . S
O266 C271 1.255 . S
Cd267 O266 2.385 . S
Cd267 O268 2.317 . S
O268 Cd267 2.317 . S
O268 C269 1.232 . S
C269 O268 1.232 . S
C269 O270 1.218 . S
O270 C269 1.218 . S
C271 O264 1.275 . S
C271 O266 1.255 . S
C272 O273 1.258 . S
C272 O274 1.256 . S
O273 Cd265 2.381 . S
O273 C272 1.258 . S
O274 Cd265 2.378 . S
O274 C272 1.256 . S
O275 Cd276 2.300 1_545 S
O275 C282 1.275 . S
Cd276 O275 2.300 1_565 S
Cd276 O284 2.381 . S
Cd276 O285 2.378 . S
O277 Cd278 2.385 . S
O277 C282 1.255 . S
Cd278 O277 2.385 . S
Cd278 O279 2.317 . S
O279 Cd278 2.317 . S
O279 C280 1.232 . S
C280 O279 1.232 . S
C280 O281 1.218 . S
O281 C280 1.218 . S
C282 O275 1.275 . S
C282 O277 1.255 . S
C283 O284 1.258 . S
C283 O285 1.256 . S
O284 Cd276 2.381 . S
O284 C283 1.258 . S
O285 Cd276 2.378 . S
O285 C283 1.256 . S
O286 Cd287 2.300 1_545 S
O286 C293 1.275 . S
Cd287 O286 2.300 1_565 S
Cd287 O295 2.381 . S
Cd287 O296 2.378 . S
O288 Cd289 2.385 . S
O288 C293 1.255 . S
Cd289 O288 2.385 . S
Cd289 O290 2.317 . S
O290 Cd289 2.317 . S
O290 C291 1.232 . S
C291 O290 1.232 . S
C291 O292 1.218 . S
O292 C291 1.218 . S
C293 O286 1.275 . S
C293 O288 1.255 . S
C294 O295 1.258 . S
C294 O296 1.256 . S
O295 Cd287 2.381 . S
O295 C294 1.258 . S
O296 Cd287 2.378 . S
O296 C294 1.256 . S
O297 Cd298 2.300 . S
O297 C304 1.275 . S
Cd298 O297 2.300 . S
Cd298 O306 2.381 1_556 S
Cd298 O307 2.378 1_556 S
O299 Cd300 2.385 . S
O299 C304 1.255 . S
Cd300 O299 2.385 . S
Cd300 O301 2.317 . S
O301 Cd300 2.317 . S
O301 C302 1.232 . S
C302 O301 1.232 . S
C302 O303 1.218 . S
O303 C302 1.218 . S
C304 O297 1.275 . S
C304 O299 1.255 . S
C305 O306 1.258 . S
C305 O307 1.256 . S
O306 Cd298 2.381 1_554 S
O306 C305 1.258 . S
O307 Cd298 2.378 1_554 S
O307 C305 1.256 . S
O308 Cd309 2.300 . S
O308 C315 1.275 . S
Cd309 O308 2.300 . S
Cd309 O317 2.381 . S
Cd309 O318 2.378 . S
O310 Cd311 2.385 1_455 S
O310 C315 1.255 . S
Cd311 O310 2.385 1_655 S
Cd311 O312 2.317 . S
O312 Cd311 2.317 . S
O312 C313 1.232 . S
C313 O312 1.232 . S
C313 O314 1.218 . S
O314 C313 1.218 . S
C315 O308 1.275 . S
C315 O310 1.255 . S
C316 O317 1.258 . S
C316 O318 1.256 . S
O317 Cd309 2.381 . S
O317 C316 1.258 . S
O318 Cd309 2.378 . S
O318 C316 1.256 . S
O319 Cd320 2.300 . S
O319 C326 1.275 . S
Cd320 O319 2.300 . S
Cd320 O328 2.381 . S
Cd320 O329 2.378 . S
O321 Cd322 2.385 . S
O321 C326 1.255 . S
Cd322 O321 2.385 . S
Cd322 O323 2.317 . S
O323 Cd322 2.317 . S
O323 C324 1.232 . S
C324 O323 1.232 . S
C324 O325 1.218 . S
O325 C324 1.218 . S
C326 O319 1.275 . S
C326 O321 1.255 . S
C327 O328 1.258 . S
C327 O329 1.256 . S
O328 Cd320 2.381 . S
O328 C327 1.258 . S
O329 Cd320 2.378 . S
O329 C327 1.256 . S
O330 Cd331 2.300 . S
O330 C337 1.275 . S
Cd331 O330 2.300 . S
Cd331 O339 2.381 . S
Cd331 O340 2.378 . S
O332 Cd333 2.385 . S
O332 C337 1.255 . S
Cd333 O332 2.385 . S
Cd333 O334 2.317 . S
O334 Cd333 2.317 . S
O334 C335 1.232 . S
C335 O334 1.232 . S
C335 O336 1.218 . S
O336 C335 1.218 . S
C337 O330 1.275 . S
C337 O332 1.255 . S
C338 O339 1.258 . S
C338 O340 1.256 . S
O339 Cd331 2.381 . S
O339 C338 1.258 . S
O340 Cd331 2.378 . S
O340 C338 1.256 . S
O341 Cd342 2.300 . S
O341 C348 1.275 . S
Cd342 O341 2.300 . S
Cd342 O350 2.381 1_655 S
Cd342 O351 2.378 1_655 S
O343 Cd344 2.385 . S
O343 C348 1.255 . S
Cd344 O343 2.385 . S
Cd344 O345 2.317 . S
O345 Cd344 2.317 . S
O345 C346 1.232 . S
C346 O345 1.232 . S
C346 O347 1.218 . S
O347 C346 1.218 . S
C348 O341 1.275 . S
C348 O343 1.255 . S
C349 O350 1.258 . S
C349 O351 1.256 . S
O350 Cd342 2.381 1_455 S
O350 C349 1.258 . S
O351 Cd342 2.378 1_455 S
O351 C349 1.256 . S
O352 Cd353 2.300 . S
O352 C359 1.275 . S
Cd353 O352 2.300 . S
Cd353 O361 2.381 . S
Cd353 O362 2.378 . S
O354 Cd355 2.385 . S
O354 C359 1.255 . S
Cd355 O354 2.385 . S
Cd355 O356 2.317 . S
O356 Cd355 2.317 . S
O356 C357 1.232 . S
C357 O356 1.232 . S
C357 O358 1.218 . S
O358 C357 1.218 . S
C359 O352 1.275 . S
C359 O354 1.255 . S
C360 O361 1.258 . S
C360 O362 1.256 . S
O361 Cd353 2.381 . S
O361 C360 1.258 . S
O362 Cd353 2.378 . S
O362 C360 1.256 . S
O363 Cd364 2.300 . S
O363 C370 1.275 . S
Cd364 O363 2.300 . S
Cd364 O372 2.381 . S
Cd364 O373 2.378 . S
O365 Cd366 2.385 . S
O365 C370 1.255 . S
Cd366 O365 2.385 . S
Cd366 O367 2.317 1_556 S
O367 Cd366 2.317 1_554 S
O367 C368 1.232 . S
C368 O367 1.232 . S
C368 O369 1.218 . S
O369 C368 1.218 . S
C370 O363 1.275 . S
C370 O365 1.255 . S
C371 O372 1.258 . S
C371 O373 1.256 . S
O372 Cd364 2.381 . S
O372 C371 1.258 . S
O373 Cd364 2.378 . S
O373 C371 1.256 . S
O374 Cd375 2.300 . S
O374 C381 1.275 . S
Cd375 O374 2.300 . S
Cd375 O383 2.381 . S
Cd375 O384 2.378 . S
O376 Cd377 2.385 . S
O376 C381 1.255 . S
Cd377 O376 2.385 . S
Cd377 O378 2.317 . S
O378 Cd377 2.317 . S
O378 C379 1.232 . S
C379 O378 1.232 . S
C379 O380 1.218 . S
O380 C379 1.218 . S
C381 O374 1.275 . S
C381 O376 1.255 . S
C382 O383 1.258 . S
C382 O384 1.256 . S
O383 Cd375 2.381 . S
O383 C382 1.258 . S
O384 Cd375 2.378 . S
O384 C382 1.256 . S
O385 Cd386 2.300 . S
O385 C392 1.275 . S
Cd386 O385 2.300 . S
Cd386 O394 2.381 . S
Cd386 O395 2.378 . S
O387 Cd388 2.385 . S
O387 C392 1.255 . S
Cd388 O387 2.385 . S
Cd388 O389 2.317 . S
O389 Cd388 2.317 . S
O389 C390 1.232 . S
C390 O389 1.232 . S
C390 O391 1.218 . S
O391 C390 1.218 . S
C392 O385 1.275 . S
C392 O387 1.255 . S
C393 O394 1.258 . S
C393 O395 1.256 . S
O394 Cd386 2.381 . S
O394 C393 1.258 . S
O395 Cd386 2.378 . S
O395 C393 1.256 . S
O396 Cd397 2.300 . S
O396 C403 1.275 . S
Cd397 O396 2.300 . S
Cd397 O405 2.381 . S
Cd397 O406 2.378 . S
O398 Cd399 2.385 . S
O398 C403 1.255 . S
Cd399 O398 2.385 . S
Cd399 O400 2.317 . S
O400 Cd399 2.317 . S
O400 C401 1.232 . S
C401 O400 1.232 . S
C401 O402 1.218 . S
O402 C401 1.218 . S
C403 O396 1.275 . S
C403 O398 1.255 . S
C404 O405 1.258 . S
C404 O406 1.256 . S
O405 Cd397 2.381 . S
O405 C404 1.258 . S
O406 Cd397 2.378 . S
O406 C404 1.256 . S
O407 Cd408 2.300 . S
O407 C414 1.275 . S
Cd408 O407 2.300 . S
Cd408 O416 2.381 . S
Cd408 O417 2.378 . S
O409 Cd410 2.385 . S
O409 C414 1.255 . S
Cd410 O409 2.385 . S
Cd410 O411 2.317 . S
O411 Cd410 2.317 . S
O411 C412 1.232 . S
C412 O411 1.232 . S
C412 O413 1.218 . S
O413 C412 1.218 . S
C414 O407 1.275 . S
C414 O409 1.255 . S
C415 O416 1.258 . S
C415 O417 1.256 . S
O416 Cd408 2.381 . S
O416 C415 1.258 . S
O417 Cd408 2.378 . S
O417 C415 1.256 . S
O418 Cd419 2.300 . S
O418 C425 1.275 . S
Cd419 O418 2.300 . S
Cd419 O427 2.381 . S
Cd419 O428 2.378 . S
O420 Cd421 2.385 . S
O420 C425 1.255 . S
Cd421 O420 2.385 . S
Cd421 O422 2.317 . S
O422 Cd421 2.317 . S
O422 C423 1.232 . S
C423 O422 1.232 . S
C423 O424 1.218 . S
O424 C423 1.218 . S
C425 O418 1.275 . S
C425 O420 1.255 . S
C426 O427 1.258 . S
C426 O428 1.256 . S
O427 Cd419 2.381 . S
O427 C426 1.258 . S
O428 Cd419 2.378 . S
O428 C426 1.256 . S
O429 Cd430 2.300 . S
O429 C436 1.275 . S
Cd430 O429 2.300 . S
Cd430 O438 2.381 . S
Cd430 O439 2.378 . S
O431 Cd432 2.385 . S
O431 C436 1.255 . S
Cd432 O431 2.385 . S
Cd432 O433 2.317 . S
O433 Cd432 2.317 . S
O433 C434 1.232 . S
C434 O433 1.232 . S
C434 O435 1.218 . S
O435 C434 1.218 . S
C436 O429 1.275 . S
C436 O431 1.255 . S
C437 O438 1.258 . S
C437 O439 1.256 . S
O438 Cd430 2.381 . S
O438 C437 1.258 . S
O439 Cd430 2.378 . S
O439 C437 1.256 . S
O440 Cd441 2.300 . S
O440 C447 1.275 . S
Cd441 O440 2.300 . S
Cd441 O449 2.381 . S
Cd441 O450 2.378 . S
O442 Cd443 2.385 1_455 S
O442 C447 1.255 . S
Cd443 O442 2.385 1_655 S
Cd443 O444 2.317 . S
O444 Cd443 2.317 . S
O444 C445 1.232 . S
C445 O444 1.232 . S
C445 O446 1.218 . S
O446 C445 1.218 . S
C447 O440 1.275 . S
C447 O442 1.255 . S
C448 O449 1.258 . S
C448 O450 1.256 . S
O449 Cd441 2.381 . S
O449 C448 1.258 . S
O450 Cd441 2.378 . S
O450 C448 1.256 . S
O451 Cd452 2.300 . S
O451 C458 1.275 . S
Cd452 O451 2.300 . S
Cd452 O460 2.381 . S
Cd452 O461 2.378 . S
O453 Cd454 2.385 . S
O453 C458 1.255 . S
Cd454 O453 2.385 . S
Cd454 O455 2.317 . S
O455 Cd454 2.317 . S
O455 C456 1.232 . S
C456 O455 1.232 . S
C456 O457 1.218 . S
O457 C456 1.218 . S
C458 O451 1.275 . S
C458 O453 1.255 . S
C459 O460 1.258 . S
C459 O461 1.256 . S
O460 Cd452 2.381 . S
O460 C459 1.258 . S
O461 Cd452 2.378 . S
O461 C459 1.256 . S
O462 Cd463 2.300 . S
O462 C469 1.275 . S
Cd463 O462 2.300 . S
Cd463 O471 2.381 . S
Cd463 O472 2.378 . S
O464 Cd465 2.385 1_554 S
O464 C469 1.255 . S
Cd465 O464 2.385 1_556 S
Cd465 O466 2.317 . S
O466 Cd465 2.317 . S
O466 C467 1.232 . S
C467 O466 1.232 . S
C467 O468 1.218 . S
O468 C467 1.218 . S
C469 O462 1.275 . S
C469 O464 1.255 . S
C470 O471 1.258 . S
C470 O472 1.256 . S
O471 Cd463 2.381 . S
O471 C470 1.258 . S
O472 Cd463 2.378 . S
O472 C470 1.256 . S
O473 Cd474 2.300 . S
O473 C480 1.275 . S
Cd474 O473 2.300 . S
Cd474 O482 2.381 . S
Cd474 O483 2.378 . S
O475 Cd476 2.385 . S
O475 C480 1.255 . S
Cd476 O475 2.385 . S
Cd476 O477 2.317 . S
O477 Cd476 2.317 . S
O477 C478 1.232 . S
C478 O477 1.232 . S
C478 O479 1.218 . S
O479 C478 1.218 . S
C480 O473 1.275 . S
C480 O475 1.255 . S
C481 O482 1.258 . S
C481 O483 1.256 . S
O482 Cd474 2.381 . S
O482 C481 1.258 . S
O483 Cd474 2.378 . S
O483 C481 1.256 . S
O484 Cd485 2.300 . S
O484 C491 1.275 . S
Cd485 O484 2.300 . S
Cd485 O493 2.381 . S
Cd485 O494 2.378 . S
O486 Cd487 2.385 . S
O486 C491 1.255 . S
Cd487 O486 2.385 . S
Cd487 O488 2.317 . S
O488 Cd487 2.317 . S
O488 C489 1.232 . S
C489 O488 1.232 . S
C489 O490 1.218 . S
O490 C489 1.218 . S
C491 O484 1.275 . S
C491 O486 1.255 . S
C492 O493 1.258 . S
C492 O494 1.256 . S
O493 Cd485 2.381 . S
O493 C492 1.258 . S
O494 Cd485 2.378 . S
O494 C492 1.256 . S
O495 Cd496 2.300 . S
O495 C502 1.275 . S
Cd496 O495 2.300 . S
Cd496 O504 2.381 . S
Cd496 O505 2.378 . S
O497 Cd498 2.385 . S
O497 C502 1.255 . S
Cd498 O497 2.385 . S
Cd498 O499 2.317 . S
O499 Cd498 2.317 . S
O499 C500 1.232 . S
C500 O499 1.232 . S
C500 O501 1.218 . S
O501 C500 1.218 . S
C502 O495 1.275 . S
C502 O497 1.255 . S
C503 O504 1.258 . S
C503 O505 1.256 . S
O504 Cd496 2.381 . S
O504 C503 1.258 . S
O505 Cd496 2.378 . S
O505 C503 1.256 . S
O506 Cd507 2.300 . S
O506 C513 1.275 . S
Cd507 O506 2.300 . S
Cd507 O515 2.381 . S
Cd507 O516 2.378 . S
O508 Cd509 2.385 . S
O508 C513 1.255 . S
Cd509 O508 2.385 . S
Cd509 O510 2.317 . S
O510 Cd509 2.317 . S
O510 C511 1.232 . S
C511 O510 1.232 . S
C511 O512 1.218 . S
O512 C511 1.218 . S
C513 O506 1.275 . S
C513 O508 1.255 . S
C514 O515 1.258 . S
C514 O516 1.256 . S
O515 Cd507 2.381 . S
O515 C514 1.258 . S
O516 Cd507 2.378 . S
O516 C514 1.256 . S
O517 Cd518 2.300 . S
O517 C524 1.275 . S
Cd518 O517 2.300 . S
Cd518 O526 2.381 . S
Cd518 O527 2.378 . S
O519 Cd520 2.385 . S
O519 C524 1.255 . S
Cd520 O519 2.385 . S
Cd520 O521 2.317 . S
O521 Cd520 2.317 . S
O521 C522 1.232 . S
C522 O521 1.232 . S
C522 O523 1.218 . S
O523 C522 1.218 . S
C524 O517 1.275 . S
C524 O519 1.255 . S
C525 O526 1.258 . S
C525 O527 1.256 . S
O526 Cd518 2.381 . S
O526 C525 1.258 . S
O527 Cd518 2.378 . S
O527 C525 1.256 . S
H528 C531 0.931 . S
H529 C534 0.928 . S
H530 C536 0.930 . S
C531 H528 0.931 . S
C531 C532 1.413 . S
C531 C533 1.360 . S
C532 C531 1.413 . S
C532 C536 1.429 . S
C533 C531 1.360 . S
C533 C534 1.372 . S
C534 H529 0.928 . S
C534 C533 1.372 . S
C534 C535 1.404 . S
C535 C534 1.404 . S
C535 C536 1.391 . S
C536 H530 0.930 . S
C536 C532 1.429 . S
C536 C535 1.391 . S
H537 C540 0.931 . S
H538 C543 0.928 . S
H539 C545 0.930 . S
C540 H537 0.931 . S
C540 C541 1.413 . S
C540 C542 1.360 . S
C541 C540 1.413 . S
C541 C545 1.429 . S
C542 C540 1.360 . S
C542 C543 1.372 . S
C543 H538 0.928 . S
C543 C542 1.372 . S
C543 C544 1.404 . S
C544 C543 1.404 . S
C544 C545 1.391 . S
C545 H539 0.930 . S
C545 C541 1.429 . S
C545 C544 1.391 . S
H546 C549 0.931 . S
H547 C552 0.928 . S
H548 C554 0.930 . S
C549 H546 0.931 . S
C549 C550 1.413 . S
C549 C551 1.360 . S
C550 C549 1.413 . S
C550 C554 1.429 . S
C551 C549 1.360 . S
C551 C552 1.372 . S
C552 H547 0.928 . S
C552 C551 1.372 . S
C552 C553 1.404 . S
C553 C552 1.404 . S
C553 C554 1.391 . S
C554 H548 0.930 . S
C554 C550 1.429 . S
C554 C553 1.391 . S
H555 C558 0.931 . S
H556 C561 0.928 . S
H557 C563 0.930 . S
C558 H555 0.931 . S
C558 C559 1.413 . S
C558 C560 1.360 . S
C559 C558 1.413 . S
C559 C563 1.429 . S
C560 C558 1.360 . S
C560 C561 1.372 . S
C561 H556 0.928 . S
C561 C560 1.372 . S
C561 C562 1.404 . S
C562 C561 1.404 . S
C562 C563 1.391 . S
C563 H557 0.930 . S
C563 C559 1.429 . S
C563 C562 1.391 . S
H564 C567 0.931 . S
H565 C570 0.928 . S
H566 C572 0.930 . S
C567 H564 0.931 . S
C567 C568 1.413 . S
C567 C569 1.360 . S
C568 C567 1.413 . S
C568 C572 1.429 . S
C569 C567 1.360 . S
C569 C570 1.372 . S
C570 H565 0.928 . S
C570 C569 1.372 . S
C570 C571 1.404 . S
C571 C570 1.404 . S
C571 C572 1.391 . S
C572 H566 0.930 . S
C572 C568 1.429 . S
C572 C571 1.391 . S
H573 C576 0.931 . S
H574 C579 0.928 . S
H575 C581 0.930 . S
C576 H573 0.931 . S
C576 C577 1.413 . S
C576 C578 1.360 . S
C577 C576 1.413 . S
C577 C581 1.429 . S
C578 C576 1.360 . S
C578 C579 1.372 . S
C579 H574 0.928 . S
C579 C578 1.372 . S
C579 C580 1.404 . S
C580 C579 1.404 . S
C580 C581 1.391 . S
C581 H575 0.930 . S
C581 C577 1.429 . S
C581 C580 1.391 . S
H582 C585 0.931 . S
H583 C588 0.928 . S
H584 C590 0.930 . S
C585 H582 0.931 . S
C585 C586 1.413 . S
C585 C587 1.360 . S
C586 C585 1.413 . S
C586 C590 1.429 . S
C587 C585 1.360 . S
C587 C588 1.372 . S
C588 H583 0.928 . S
C588 C587 1.372 . S
C588 C589 1.404 . S
C589 C588 1.404 . S
C589 C590 1.391 . S
C590 H584 0.930 . S
C590 C586 1.429 . S
C590 C589 1.391 . S
H591 C594 0.931 . S
H592 C597 0.928 . S
H593 C599 0.930 . S
C594 H591 0.931 . S
C594 C595 1.413 . S
C594 C596 1.360 . S
C595 C594 1.413 . S
C595 C599 1.429 . S
C596 C594 1.360 . S
C596 C597 1.372 . S
C597 H592 0.928 . S
C597 C596 1.372 . S
C597 C598 1.404 . S
C598 C597 1.404 . S
C598 C599 1.391 . S
C599 H593 0.930 . S
C599 C595 1.429 . S
C599 C598 1.391 . S
H600 C603 0.931 . S
H601 C606 0.928 . S
H602 C608 0.930 . S
C603 H600 0.931 . S
C603 C604 1.413 . S
C603 C605 1.360 . S
C604 C603 1.413 . S
C604 C608 1.429 . S
C605 C603 1.360 . S
C605 C606 1.372 . S
C606 H601 0.928 . S
C606 C605 1.372 . S
C606 C607 1.404 . S
C607 C606 1.404 . S
C607 C608 1.391 . S
C608 H602 0.930 . S
C608 C604 1.429 . S
C608 C607 1.391 . S
H609 C612 0.931 . S
H610 C615 0.928 . S
H611 C617 0.930 . S
C612 H609 0.931 . S
C612 C613 1.413 . S
C612 C614 1.360 . S
C613 C612 1.413 . S
C613 C617 1.429 . S
C614 C612 1.360 . S
C614 C615 1.372 . S
C615 H610 0.928 . S
C615 C614 1.372 . S
C615 C616 1.404 . S
C616 C615 1.404 . S
C616 C617 1.391 . S
C617 H611 0.930 . S
C617 C613 1.429 . S
C617 C616 1.391 . S
H618 C621 0.931 . S
H619 C624 0.928 . S
H620 C626 0.930 . S
C621 H618 0.931 . S
C621 C622 1.413 . S
C621 C623 1.360 . S
C622 C621 1.413 . S
C622 C626 1.429 . S
C623 C621 1.360 . S
C623 C624 1.372 . S
C624 H619 0.928 . S
C624 C623 1.372 . S
C624 C625 1.404 . S
C625 C624 1.404 . S
C625 C626 1.391 . S
C626 H620 0.930 . S
C626 C622 1.429 . S
C626 C625 1.391 . S
H627 C630 0.931 . S
H628 C633 0.928 . S
H629 C635 0.930 . S
C630 H627 0.931 . S
C630 C631 1.413 . S
C630 C632 1.360 . S
C631 C630 1.413 . S
C631 C635 1.429 . S
C632 C630 1.360 . S
C632 C633 1.372 . S
C633 H628 0.928 . S
C633 C632 1.372 . S
C633 C634 1.404 . S
C634 C633 1.404 . S
C634 C635 1.391 . S
C635 H629 0.930 . S
C635 C631 1.429 . S
C635 C634 1.391 . S
H636 C639 0.931 . S
H637 C642 0.928 . S
H638 C644 0.930 . S
C639 H636 0.931 . S
C639 C640 1.413 . S
C639 C641 1.360 . S
C640 C639 1.413 . S
C640 C644 1.429 . S
C641 C639 1.360 . S
C641 C642 1.372 . S
C642 H637 0.928 . S
C642 C641 1.372 . S
C642 C643 1.404 . S
C643 C642 1.404 . S
C643 C644 1.391 . S
C644 H638 0.930 . S
C644 C640 1.429 . S
C644 C643 1.391 . S
H645 C648 0.931 . S
H646 C651 0.928 . S
H647 C653 0.930 . S
C648 H645 0.931 . S
C648 C649 1.413 . S
C648 C650 1.360 . S
C649 C648 1.413 . S
C649 C653 1.429 . S
C650 C648 1.360 . S
C650 C651 1.372 . S
C651 H646 0.928 . S
C651 C650 1.372 . S
C651 C652 1.404 . S
C652 C651 1.404 . S
C652 C653 1.391 . S
C653 H647 0.930 . S
C653 C649 1.429 . S
C653 C652 1.391 . S
H654 C657 0.931 . S
H655 C660 0.928 . S
H656 C662 0.930 . S
C657 H654 0.931 . S
C657 C658 1.413 . S
C657 C659 1.360 . S
C658 C657 1.413 . S
C658 C662 1.429 . S
C659 C657 1.360 . S
C659 C660 1.372 . S
C660 H655 0.928 . S
C660 C659 1.372 . S
C660 C661 1.404 . S
C661 C660 1.404 . S
C661 C662 1.391 . S
C662 H656 0.930 . S
C662 C658 1.429 . S
C662 C661 1.391 . S
H663 C666 0.931 . S
H664 C669 0.928 . S
H665 C671 0.930 . S
C666 H663 0.931 . S
C666 C667 1.413 . S
C666 C668 1.360 . S
C667 C666 1.413 . S
C667 C671 1.429 . S
C668 C666 1.360 . S
C668 C669 1.372 . S
C669 H664 0.928 . S
C669 C668 1.372 . S
C669 C670 1.404 . S
C670 C669 1.404 . S
C670 C671 1.391 . S
C671 H665 0.930 . S
C671 C667 1.429 . S
C671 C670 1.391 . S
H672 C675 0.931 . S
H673 C678 0.928 . S
H674 C680 0.930 . S
C675 H672 0.931 . S
C675 C676 1.413 . S
C675 C677 1.360 . S
C676 C675 1.413 . S
C676 C680 1.429 . S
C677 C675 1.360 . S
C677 C678 1.372 . S
C678 H673 0.928 . S
C678 C677 1.372 . S
C678 C679 1.404 . S
C679 C678 1.404 . S
C679 C680 1.391 . S
C680 H674 0.930 . S
C680 C676 1.429 . S
C680 C679 1.391 . S
H681 C684 0.931 . S
H682 C687 0.928 . S
H683 C689 0.930 . S
C684 H681 0.931 . S
C684 C685 1.413 . S
C684 C686 1.360 . S
C685 C684 1.413 . S
C685 C689 1.429 . S
C686 C684 1.360 . S
C686 C687 1.372 . S
C687 H682 0.928 . S
C687 C686 1.372 . S
C687 C688 1.404 . S
C688 C687 1.404 . S
C688 C689 1.391 . S
C689 H683 0.930 . S
C689 C685 1.429 . S
C689 C688 1.391 . S
H690 C693 0.931 . S
H691 C696 0.928 . S
H692 C698 0.930 . S
C693 H690 0.931 . S
C693 C694 1.413 . S
C693 C695 1.360 . S
C694 C693 1.413 . S
C694 C698 1.429 . S
C695 C693 1.360 . S
C695 C696 1.372 . S
C696 H691 0.928 . S
C696 C695 1.372 . S
C696 C697 1.404 . S
C697 C696 1.404 . S
C697 C698 1.391 . S
C698 H692 0.930 . S
C698 C694 1.429 . S
C698 C697 1.391 . S
H699 C702 0.931 . S
H700 C705 0.928 . S
H701 C707 0.930 . S
C702 H699 0.931 . S
C702 C703 1.413 . S
C702 C704 1.360 . S
C703 C702 1.413 . S
C703 C707 1.429 . S
C704 C702 1.360 . S
C704 C705 1.372 . S
C705 H700 0.928 . S
C705 C704 1.372 . S
C705 C706 1.404 . S
C706 C705 1.404 . S
C706 C707 1.391 . S
C707 H701 0.930 . S
C707 C703 1.429 . S
C707 C706 1.391 . S
H708 C711 0.931 . S
H709 C714 0.928 . S
H710 C716 0.930 . S
C711 H708 0.931 . S
C711 C712 1.413 . S
C711 C713 1.360 . S
C712 C711 1.413 . S
C712 C716 1.429 . S
C713 C711 1.360 . S
C713 C714 1.372 . S
C714 H709 0.928 . S
C714 C713 1.372 . S
C714 C715 1.404 . S
C715 C714 1.404 . S
C715 C716 1.391 . S
C716 H710 0.930 . S
C716 C712 1.429 . S
C716 C715 1.391 . S
H717 C720 0.931 . S
H718 C723 0.928 . S
H719 C725 0.930 . S
C720 H717 0.931 . S
C720 C721 1.413 . S
C720 C722 1.360 . S
C721 C720 1.413 . S
C721 C725 1.429 . S
C722 C720 1.360 . S
C722 C723 1.372 . S
C723 H718 0.928 . S
C723 C722 1.372 . S
C723 C724 1.404 . S
C724 C723 1.404 . S
C724 C725 1.391 . S
C725 H719 0.930 . S
C725 C721 1.429 . S
C725 C724 1.391 . S
H726 C729 0.931 . S
H727 C732 0.928 . S
H728 C734 0.930 . S
C729 H726 0.931 . S
C729 C730 1.413 . S
C729 C731 1.360 . S
C730 C729 1.413 . S
C730 C734 1.429 . S
C731 C729 1.360 . S
C731 C732 1.372 . S
C732 H727 0.928 . S
C732 C731 1.372 . S
C732 C733 1.404 . S
C733 C732 1.404 . S
C733 C734 1.391 . S
C734 H728 0.930 . S
C734 C730 1.429 . S
C734 C733 1.391 . S
H735 C738 0.931 . S
H736 C741 0.928 . S
H737 C743 0.930 . S
C738 H735 0.931 . S
C738 C739 1.413 . S
C738 C740 1.360 . S
C739 C738 1.413 . S
C739 C743 1.429 . S
C740 C738 1.360 . S
C740 C741 1.372 . S
C741 H736 0.928 . S
C741 C740 1.372 . S
C741 C742 1.404 . S
C742 C741 1.404 . S
C742 C743 1.391 . S
C743 H737 0.930 . S
C743 C739 1.429 . S
C743 C742 1.391 . S
H744 C747 0.931 . S
H745 C750 0.928 . S
H746 C752 0.930 . S
C747 H744 0.931 . S
C747 C748 1.413 . S
C747 C749 1.360 . S
C748 C747 1.413 . S
C748 C752 1.429 . S
C749 C747 1.360 . S
C749 C750 1.372 . S
C750 H745 0.928 . S
C750 C749 1.372 . S
C750 C751 1.404 . S
C751 C750 1.404 . S
C751 C752 1.391 . S
C752 H746 0.930 . S
C752 C748 1.429 . S
C752 C751 1.391 . S
H753 C756 0.931 . S
H754 C759 0.928 . S
H755 C761 0.930 . S
C756 H753 0.931 . S
C756 C757 1.413 . S
C756 C758 1.360 . S
C757 C756 1.413 . S
C757 C761 1.429 . S
C758 C756 1.360 . S
C758 C759 1.372 . S
C759 H754 0.928 . S
C759 C758 1.372 . S
C759 C760 1.404 . S
C760 C759 1.404 . S
C760 C761 1.391 . S
C761 H755 0.930 . S
C761 C757 1.429 . S
C761 C760 1.391 . S
H762 C765 0.931 . S
H763 C768 0.928 . S
H764 C770 0.930 . S
C765 H762 0.931 . S
C765 C766 1.413 . S
C765 C767 1.360 . S
C766 C765 1.413 . S
C766 C770 1.429 . S
C767 C765 1.360 . S
C767 C768 1.372 . S
C768 H763 0.928 . S
C768 C767 1.372 . S
C768 C769 1.404 . S
C769 C768 1.404 . S
C769 C770 1.391 . S
C770 H764 0.930 . S
C770 C766 1.429 . S
C770 C769 1.391 . S
H771 C774 0.931 . S
H772 C777 0.928 . S
H773 C779 0.930 . S
C774 H771 0.931 . S
C774 C775 1.413 . S
C774 C776 1.360 . S
C775 C774 1.413 . S
C775 C779 1.429 . S
C776 C774 1.360 . S
C776 C777 1.372 . S
C777 H772 0.928 . S
C777 C776 1.372 . S
C777 C778 1.404 . S
C778 C777 1.404 . S
C778 C779 1.391 . S
C779 H773 0.930 . S
C779 C775 1.429 . S
C779 C778 1.391 . S
H780 C783 0.931 . S
H781 C786 0.928 . S
H782 C788 0.930 . S
C783 H780 0.931 . S
C783 C784 1.413 . S
C783 C785 1.360 . S
C784 C783 1.413 . S
C784 C788 1.429 . S
C785 C783 1.360 . S
C785 C786 1.372 . S
C786 H781 0.928 . S
C786 C785 1.372 . S
C786 C787 1.404 . S
C787 C786 1.404 . S
C787 C788 1.391 . S
C788 H782 0.930 . S
C788 C784 1.429 . S
C788 C787 1.391 . S
H789 C792 0.931 . S
H790 C795 0.928 . S
H791 C797 0.930 . S
C792 H789 0.931 . S
C792 C793 1.413 . S
C792 C794 1.360 . S
C793 C792 1.413 . S
C793 C797 1.429 . S
C794 C792 1.360 . S
C794 C795 1.372 . S
C795 H790 0.928 . S
C795 C794 1.372 . S
C795 C796 1.404 . S
C796 C795 1.404 . S
C796 C797 1.391 . S
C797 H791 0.930 . S
C797 C793 1.429 . S
C797 C796 1.391 . S
H798 C801 0.931 . S
H799 C804 0.928 . S
H800 C806 0.930 . S
C801 H798 0.931 . S
C801 C802 1.413 . S
C801 C803 1.360 . S
C802 C801 1.413 . S
C802 C806 1.429 . S
C803 C801 1.360 . S
C803 C804 1.372 . S
C804 H799 0.928 . S
C804 C803 1.372 . S
C804 C805 1.404 . S
C805 C804 1.404 . S
C805 C806 1.391 . S
C806 H800 0.930 . S
C806 C802 1.429 . S
C806 C805 1.391 . S
H807 C810 0.931 . S
H808 C813 0.928 . S
H809 C815 0.930 . S
C810 H807 0.931 . S
C810 C811 1.413 . S
C810 C812 1.360 . S
C811 C810 1.413 . S
C811 C815 1.429 . S
C812 C810 1.360 . S
C812 C813 1.372 . S
C813 H808 0.928 . S
C813 C812 1.372 . S
C813 C814 1.404 . S
C814 C813 1.404 . S
C814 C815 1.391 . S
C815 H809 0.930 . S
C815 C811 1.429 . S
C815 C814 1.391 . S
H816 C819 0.931 . S
H817 C822 0.928 . S
H818 C824 0.930 . S
C819 H816 0.931 . S
C819 C820 1.413 . S
C819 C821 1.360 . S
C820 C819 1.413 . S
C820 C824 1.429 . S
C821 C819 1.360 . S
C821 C822 1.372 . S
C822 H817 0.928 . S
C822 C821 1.372 . S
C822 C823 1.404 . S
C823 C822 1.404 . S
C823 C824 1.391 . S
C824 H818 0.930 . S
C824 C820 1.429 . S
C824 C823 1.391 . S
H825 C828 0.931 . S
H826 C831 0.928 . S
H827 C833 0.930 . S
C828 H825 0.931 . S
C828 C829 1.413 . S
C828 C830 1.360 . S
C829 C828 1.413 . S
C829 C833 1.429 . S
C830 C828 1.360 . S
C830 C831 1.372 . S
C831 H826 0.928 . S
C831 C830 1.372 . S
C831 C832 1.404 . S
C832 C831 1.404 . S
C832 C833 1.391 . S
C833 H827 0.930 . S
C833 C829 1.429 . S
C833 C832 1.391 . S
H834 C837 0.931 . S
H835 C840 0.928 . S
H836 C842 0.930 . S
C837 H834 0.931 . S
C837 C838 1.413 . S
C837 C839 1.360 . S
C838 C837 1.413 . S
C838 C842 1.429 . S
C839 C837 1.360 . S
C839 C840 1.372 . S
C840 H835 0.928 . S
C840 C839 1.372 . S
C840 C841 1.404 . S
C841 C840 1.404 . S
C841 C842 1.391 . S
C842 H836 0.930 . S
C842 C838 1.429 . S
C842 C841 1.391 . S
H843 C846 0.931 . S
H844 C849 0.928 . S
H845 C851 0.930 . S
C846 H843 0.931 . S
C846 C847 1.413 . S
C846 C848 1.360 . S
C847 C846 1.413 . S
C847 C851 1.429 . S
C848 C846 1.360 . S
C848 C849 1.372 . S
C849 H844 0.928 . S
C849 C848 1.372 . S
C849 C850 1.404 . S
C850 C849 1.404 . S
C850 C851 1.391 . S
C851 H845 0.930 . S
C851 C847 1.429 . S
C851 C850 1.391 . S
H852 C855 0.931 . S
H853 C858 0.928 . S
H854 C860 0.930 . S
C855 H852 0.931 . S
C855 C856 1.413 . S
C855 C857 1.360 . S
C856 C855 1.413 . S
C856 C860 1.429 . S
C857 C855 1.360 . S
C857 C858 1.372 . S
C858 H853 0.928 . S
C858 C857 1.372 . S
C858 C859 1.404 . S
C859 C858 1.404 . S
C859 C860 1.391 . S
C860 H854 0.930 . S
C860 C856 1.429 . S
C860 C859 1.391 . S
H861 C864 0.931 . S
H862 C867 0.928 . S
H863 C869 0.930 . S
C864 H861 0.931 . S
C864 C865 1.413 . S
C864 C866 1.360 . S
C865 C864 1.413 . S
C865 C869 1.429 . S
C866 C864 1.360 . S
C866 C867 1.372 . S
C867 H862 0.928 . S
C867 C866 1.372 . S
C867 C868 1.404 . S
C868 C867 1.404 . S
C868 C869 1.391 . S
C869 H863 0.930 . S
C869 C865 1.429 . S
C869 C868 1.391 . S
H870 C873 0.931 . S
H871 C876 0.928 . S
H872 C878 0.930 . S
C873 H870 0.931 . S
C873 C874 1.413 . S
C873 C875 1.360 . S
C874 C873 1.413 . S
C874 C878 1.429 . S
C875 C873 1.360 . S
C875 C876 1.372 . S
C876 H871 0.928 . S
C876 C875 1.372 . S
C876 C877 1.404 . S
C877 C876 1.404 . S
C877 C878 1.391 . S
C878 H872 0.930 . S
C878 C874 1.429 . S
C878 C877 1.391 . S
H879 C882 0.931 . S
H880 C885 0.928 . S
H881 C887 0.930 . S
C882 H879 0.931 . S
C882 C883 1.413 . S
C882 C884 1.360 . S
C883 C882 1.413 . S
C883 C887 1.429 . S
C884 C882 1.360 . S
C884 C885 1.372 . S
C885 H880 0.928 . S
C885 C884 1.372 . S
C885 C886 1.404 . S
C886 C885 1.404 . S
C886 C887 1.391 . S
C887 H881 0.930 . S
C887 C883 1.429 . S
C887 C886 1.391 . S
H888 C891 0.931 . S
H889 C894 0.928 . S
H890 C896 0.930 . S
C891 H888 0.931 . S
C891 C892 1.413 . S
C891 C893 1.360 . S
C892 C891 1.413 . S
C892 C896 1.429 . S
C893 C891 1.360 . S
C893 C894 1.372 . S
C894 H889 0.928 . S
C894 C893 1.372 . S
C894 C895 1.404 . S
C895 C894 1.404 . S
C895 C896 1.391 . S
C896 H890 0.930 . S
C896 C892 1.429 . S
C896 C895 1.391 . S
H897 C900 0.931 . S
H898 C903 0.928 . S
H899 C905 0.930 . S
C900 H897 0.931 . S
C900 C901 1.413 . S
C900 C902 1.360 . S
C901 C900 1.413 . S
C901 C905 1.429 . S
C902 C900 1.360 . S
C902 C903 1.372 . S
C903 H898 0.928 . S
C903 C902 1.372 . S
C903 C904 1.404 . S
C904 C903 1.404 . S
C904 C905 1.391 . S
C905 H899 0.930 . S
C905 C901 1.429 . S
C905 C904 1.391 . S
H906 C909 0.931 . S
H907 C912 0.928 . S
H908 C914 0.930 . S
C909 H906 0.931 . S
C909 C910 1.413 . S
C909 C911 1.360 . S
C910 C909 1.413 . S
C910 C914 1.429 . S
C911 C909 1.360 . S
C911 C912 1.372 . S
C912 H907 0.928 . S
C912 C911 1.372 . S
C912 C913 1.404 . S
C913 C912 1.404 . S
C913 C914 1.391 . S
C914 H908 0.930 . S
C914 C910 1.429 . S
C914 C913 1.391 . S
H915 C918 0.931 . S
H916 C921 0.928 . S
H917 C923 0.930 . S
C918 H915 0.931 . S
C918 C919 1.413 . S
C918 C920 1.360 . S
C919 C918 1.413 . S
C919 C923 1.429 . S
C920 C918 1.360 . S
C920 C921 1.372 . S
C921 H916 0.928 . S
C921 C920 1.372 . S
C921 C922 1.404 . S
C922 C921 1.404 . S
C922 C923 1.391 . S
C923 H917 0.930 . S
C923 C919 1.429 . S
C923 C922 1.391 . S
H924 C927 0.931 . S
H925 C930 0.928 . S
H926 C932 0.930 . S
C927 H924 0.931 . S
C927 C928 1.413 . S
C927 C929 1.360 . S
C928 C927 1.413 . S
C928 C932 1.429 . S
C929 C927 1.360 . S
C929 C930 1.372 . S
C930 H925 0.928 . S
C930 C929 1.372 . S
C930 C931 1.404 . S
C931 C930 1.404 . S
C931 C932 1.391 . S
C932 H926 0.930 . S
C932 C928 1.429 . S
C932 C931 1.391 . S
H933 C936 0.931 . S
H934 C939 0.928 . S
H935 C941 0.930 . S
C936 H933 0.931 . S
C936 C937 1.413 . S
C936 C938 1.360 . S
C937 C936 1.413 . S
C937 C941 1.429 . S
C938 C936 1.360 . S
C938 C939 1.372 . S
C939 H934 0.928 . S
C939 C938 1.372 . S
C939 C940 1.404 . S
C940 C939 1.404 . S
C940 C941 1.391 . S
C941 H935 0.930 . S
C941 C937 1.429 . S
C941 C940 1.391 . S
H942 C945 0.931 . S
H943 C948 0.928 . S
H944 C950 0.930 . S
C945 H942 0.931 . S
C945 C946 1.413 . S
C945 C947 1.360 . S
C946 C945 1.413 . S
C946 C950 1.429 . S
C947 C945 1.360 . S
C947 C948 1.372 . S
C948 H943 0.928 . S
C948 C947 1.372 . S
C948 C949 1.404 . S
C949 C948 1.404 . S
C949 C950 1.391 . S
C950 H944 0.930 . S
C950 C946 1.429 . S
C950 C949 1.391 . S
H951 C954 0.931 . S
H952 C957 0.928 . S
H953 C959 0.930 . S
C954 H951 0.931 . S
C954 C955 1.413 . S
C954 C956 1.360 . S
C955 C954 1.413 . S
C955 C959 1.429 . S
C956 C954 1.360 . S
C956 C957 1.372 . S
C957 H952 0.928 . S
C957 C956 1.372 . S
C957 C958 1.404 . S
C958 C957 1.404 . S
C958 C959 1.391 . S
C959 H953 0.930 . S
C959 C955 1.429 . S
C959 C958 1.391 . S
H960 C966 0.930 . S
H961 C970 0.930 . S
H962 C975 0.929 . S
H963 C973 0.929 . S
H964 C968 0.929 . S
H965 C974 0.929 . S
C966 H960 0.930 . S
C966 C967 1.367 . S
C966 C974 1.378 . S
C967 C966 1.367 . S
C967 C975 1.433 . S
C968 H964 0.929 . S
C968 C970 1.378 . S
C968 C972 1.350 . S
C969 C972 1.463 . S
C969 C974 1.350 . S
C969 N977 1.427 . S
C970 H961 0.930 . S
C970 C968 1.378 . S
C970 C971 1.367 . S
C971 C970 1.367 . S
C971 C973 1.433 . S
C972 C968 1.350 . S
C972 C969 1.463 . S
C972 N976 1.427 . S
C973 H963 0.929 . S
C973 C971 1.433 . S
C973 N976 1.384 . S
C974 H965 0.929 . S
C974 C966 1.378 . S
C974 C969 1.350 . S
C975 H962 0.929 . S
C975 C967 1.433 . S
C975 N977 1.384 . S
N976 C972 1.427 . S
N976 C973 1.384 . S
N977 C969 1.427 . S
N977 C975 1.384 . S
H978 C984 0.930 . S
H979 C988 0.930 . S
H980 C993 0.929 . S
H981 C991 0.929 . S
H982 C986 0.929 . S
H983 C992 0.929 . S
C984 H978 0.930 . S
C984 C985 1.367 . S
C984 C992 1.378 . S
C985 C984 1.367 . S
C985 C993 1.433 . S
C986 H982 0.929 . S
C986 C988 1.378 . S
C986 C990 1.350 . S
C987 C990 1.463 . S
C987 C992 1.350 . S
C987 N995 1.427 . S
C988 H979 0.930 . S
C988 C986 1.378 . S
C988 C989 1.367 . S
C989 C988 1.367 . S
C989 C991 1.433 . S
C990 C986 1.350 . S
C990 C987 1.463 . S
C990 N994 1.427 . S
C991 H981 0.929 . S
C991 C989 1.433 . S
C991 N994 1.384 . S
C992 H983 0.929 . S
C992 C984 1.378 . S
C992 C987 1.350 . S
C993 H980 0.929 . S
C993 C985 1.433 . S
C993 N995 1.384 . S
N994 C990 1.427 . S
N994 C991 1.384 . S
N995 C987 1.427 . S
N995 C993 1.384 . S
H996 C1002 0.930 . S
H997 C1006 0.930 . S
H998 C1011 0.929 . S
H999 C1009 0.929 . S
H1000 C1004 0.929 . S
H1001 C1010 0.929 . S
C1002 H996 0.930 . S
C1002 C1003 1.367 . S
C1002 C1010 1.378 . S
C1003 C1002 1.367 . S
C1003 C1011 1.433 . S
C1004 H1000 0.929 . S
C1004 C1006 1.378 . S
C1004 C1008 1.350 . S
C1005 C1008 1.463 . S
C1005 C1010 1.350 . S
C1005 N1013 1.427 . S
C1006 H997 0.930 . S
C1006 C1004 1.378 . S
C1006 C1007 1.367 . S
C1007 C1006 1.367 . S
C1007 C1009 1.433 . S
C1008 C1004 1.350 . S
C1008 C1005 1.463 . S
C1008 N1012 1.427 . S
C1009 H999 0.929 . S
C1009 C1007 1.433 . S
C1009 N1012 1.384 . S
C1010 H1001 0.929 . S
C1010 C1002 1.378 . S
C1010 C1005 1.350 . S
C1011 H998 0.929 . S
C1011 C1003 1.433 . S
C1011 N1013 1.384 . S
N1012 C1008 1.427 . S
N1012 C1009 1.384 . S
N1013 C1005 1.427 . S
N1013 C1011 1.384 . S
H1014 C1020 0.930 . S
H1015 C1024 0.930 . S
H1016 C1029 0.929 . S
H1017 C1027 0.929 . S
H1018 C1022 0.929 . S
H1019 C1028 0.929 . S
C1020 H1014 0.930 . S
C1020 C1021 1.367 . S
C1020 C1028 1.378 . S
C1021 C1020 1.367 . S
C1021 C1029 1.433 . S
C1022 H1018 0.929 . S
C1022 C1024 1.378 . S
C1022 C1026 1.350 . S
C1023 C1026 1.463 . S
C1023 C1028 1.350 . S
C1023 N1031 1.427 . S
C1024 H1015 0.930 . S
C1024 C1022 1.378 . S
C1024 C1025 1.367 . S
C1025 C1024 1.367 . S
C1025 C1027 1.433 . S
C1026 C1022 1.350 . S
C1026 C1023 1.463 . S
C1026 N1030 1.427 . S
C1027 H1017 0.929 . S
C1027 C1025 1.433 . S
C1027 N1030 1.384 . S
C1028 H1019 0.929 . S
C1028 C1020 1.378 . S
C1028 C1023 1.350 . S
C1029 H1016 0.929 . S
C1029 C1021 1.433 . S
C1029 N1031 1.384 . S
N1030 C1026 1.427 . S
N1030 C1027 1.384 . S
N1031 C1023 1.427 . S
N1031 C1029 1.384 . S
H1032 C1038 0.930 . S
H1033 C1042 0.930 . S
H1034 C1047 0.929 . S
H1035 C1045 0.929 . S
H1036 C1040 0.929 . S
H1037 C1046 0.929 . S
C1038 H1032 0.930 . S
C1038 C1039 1.367 . S
C1038 C1046 1.378 . S
C1039 C1038 1.367 . S
C1039 C1047 1.433 . S
C1040 H1036 0.929 . S
C1040 C1042 1.378 . S
C1040 C1044 1.350 . S
C1041 C1044 1.463 . S
C1041 C1046 1.350 . S
C1041 N1049 1.427 . S
C1042 H1033 0.930 . S
C1042 C1040 1.378 . S
C1042 C1043 1.367 . S
C1043 C1042 1.367 . S
C1043 C1045 1.433 . S
C1044 C1040 1.350 . S
C1044 C1041 1.463 . S
C1044 N1048 1.427 . S
C1045 H1035 0.929 . S
C1045 C1043 1.433 . S
C1045 N1048 1.384 . S
C1046 H1037 0.929 . S
C1046 C1038 1.378 . S
C1046 C1041 1.350 . S
C1047 H1034 0.929 . S
C1047 C1039 1.433 . S
C1047 N1049 1.384 . S
N1048 C1044 1.427 . S
N1048 C1045 1.384 . S
N1049 C1041 1.427 . S
N1049 C1047 1.384 . S
H1050 C1056 0.930 . S
H1051 C1060 0.930 . S
H1052 C1065 0.929 . S
H1053 C1063 0.929 . S
H1054 C1058 0.929 . S
H1055 C1064 0.929 . S
C1056 H1050 0.930 . S
C1056 C1057 1.367 . S
C1056 C1064 1.378 . S
C1057 C1056 1.367 . S
C1057 C1065 1.433 . S
C1058 H1054 0.929 . S
C1058 C1060 1.378 . S
C1058 C1062 1.350 . S
C1059 C1062 1.463 . S
C1059 C1064 1.350 . S
C1059 N1067 1.427 . S
C1060 H1051 0.930 . S
C1060 C1058 1.378 . S
C1060 C1061 1.367 . S
C1061 C1060 1.367 . S
C1061 C1063 1.433 . S
C1062 C1058 1.350 . S
C1062 C1059 1.463 . S
C1062 N1066 1.427 . S
C1063 H1053 0.929 . S
C1063 C1061 1.433 . S
C1063 N1066 1.384 . S
C1064 H1055 0.929 . S
C1064 C1056 1.378 . S
C1064 C1059 1.350 . S
C1065 H1052 0.929 . S
C1065 C1057 1.433 . S
C1065 N1067 1.384 . S
N1066 C1062 1.427 . S
N1066 C1063 1.384 . S
N1067 C1059 1.427 . S
N1067 C1065 1.384 . S
H1068 C1074 0.930 . S
H1069 C1078 0.930 . S
H1070 C1083 0.929 . S
H1071 C1081 0.929 . S
H1072 C1076 0.929 . S
H1073 C1082 0.929 . S
C1074 H1068 0.930 . S
C1074 C1075 1.367 . S
C1074 C1082 1.378 . S
C1075 C1074 1.367 . S
C1075 C1083 1.433 . S
C1076 H1072 0.929 . S
C1076 C1078 1.378 . S
C1076 C1080 1.350 . S
C1077 C1080 1.463 . S
C1077 C1082 1.350 . S
C1077 N1085 1.427 . S
C1078 H1069 0.930 . S
C1078 C1076 1.378 . S
C1078 C1079 1.367 . S
C1079 C1078 1.367 . S
C1079 C1081 1.433 . S
C1080 C1076 1.350 . S
C1080 C1077 1.463 . S
C1080 N1084 1.427 . S
C1081 H1071 0.929 . S
C1081 C1079 1.433 . S
C1081 N1084 1.384 . S
C1082 H1073 0.929 . S
C1082 C1074 1.378 . S
C1082 C1077 1.350 . S
C1083 H1070 0.929 . S
C1083 C1075 1.433 . S
C1083 N1085 1.384 . S
N1084 C1080 1.427 . S
N1084 C1081 1.384 . S
N1085 C1077 1.427 . S
N1085 C1083 1.384 . S
H1086 C1092 0.930 . S
H1087 C1096 0.930 . S
H1088 C1101 0.929 . S
H1089 C1099 0.929 . S
H1090 C1094 0.929 . S
H1091 C1100 0.929 . S
C1092 H1086 0.930 . S
C1092 C1093 1.367 . S
C1092 C1100 1.378 . S
C1093 C1092 1.367 . S
C1093 C1101 1.433 . S
C1094 H1090 0.929 . S
C1094 C1096 1.378 . S
C1094 C1098 1.350 . S
C1095 C1098 1.463 . S
C1095 C1100 1.350 . S
C1095 N1103 1.427 . S
C1096 H1087 0.930 . S
C1096 C1094 1.378 . S
C1096 C1097 1.367 . S
C1097 C1096 1.367 . S
C1097 C1099 1.433 . S
C1098 C1094 1.350 . S
C1098 C1095 1.463 . S
C1098 N1102 1.427 . S
C1099 H1089 0.929 . S
C1099 C1097 1.433 . S
C1099 N1102 1.384 . S
C1100 H1091 0.929 . S
C1100 C1092 1.378 . S
C1100 C1095 1.350 . S
C1101 H1088 0.929 . S
C1101 C1093 1.433 . S
C1101 N1103 1.384 . S
N1102 C1098 1.427 . S
N1102 C1099 1.384 . S
N1103 C1095 1.427 . S
N1103 C1101 1.384 . S
H1104 C1110 0.930 . S
H1105 C1114 0.930 . S
H1106 C1119 0.929 . S
H1107 C1117 0.929 . S
H1108 C1112 0.929 . S
H1109 C1118 0.929 . S
C1110 H1104 0.930 . S
C1110 C1111 1.367 . S
C1110 C1118 1.378 . S
C1111 C1110 1.367 . S
C1111 C1119 1.433 . S
C1112 H1108 0.929 . S
C1112 C1114 1.378 . S
C1112 C1116 1.350 . S
C1113 C1116 1.463 . S
C1113 C1118 1.350 . S
C1113 N1121 1.427 . S
C1114 H1105 0.930 . S
C1114 C1112 1.378 . S
C1114 C1115 1.367 . S
C1115 C1114 1.367 . S
C1115 C1117 1.433 . S
C1116 C1112 1.350 . S
C1116 C1113 1.463 . S
C1116 N1120 1.427 . S
C1117 H1107 0.929 . S
C1117 C1115 1.433 . S
C1117 N1120 1.384 . S
C1118 H1109 0.929 . S
C1118 C1110 1.378 . S
C1118 C1113 1.350 . S
C1119 H1106 0.929 . S
C1119 C1111 1.433 . S
C1119 N1121 1.384 . S
N1120 C1116 1.427 . S
N1120 C1117 1.384 . S
N1121 C1113 1.427 . S
N1121 C1119 1.384 . S
H1122 C1128 0.930 . S
H1123 C1132 0.930 . S
H1124 C1137 0.929 . S
H1125 C1135 0.929 . S
H1126 C1130 0.929 . S
H1127 C1136 0.929 . S
C1128 H1122 0.930 . S
C1128 C1129 1.367 . S
C1128 C1136 1.378 . S
C1129 C1128 1.367 . S
C1129 C1137 1.433 . S
C1130 H1126 0.929 . S
C1130 C1132 1.378 . S
C1130 C1134 1.350 . S
C1131 C1134 1.463 . S
C1131 C1136 1.350 . S
C1131 N1139 1.427 . S
C1132 H1123 0.930 . S
C1132 C1130 1.378 . S
C1132 C1133 1.367 . S
C1133 C1132 1.367 . S
C1133 C1135 1.433 . S
C1134 C1130 1.350 . S
C1134 C1131 1.463 . S
C1134 N1138 1.427 . S
C1135 H1125 0.929 . S
C1135 C1133 1.433 . S
C1135 N1138 1.384 . S
C1136 H1127 0.929 . S
C1136 C1128 1.378 . S
C1136 C1131 1.350 . S
C1137 H1124 0.929 . S
C1137 C1129 1.433 . S
C1137 N1139 1.384 . S
N1138 C1134 1.427 . S
N1138 C1135 1.384 . S
N1139 C1131 1.427 . S
N1139 C1137 1.384 . S
H1140 C1146 0.930 . S
H1141 C1150 0.930 . S
H1142 C1155 0.929 . S
H1143 C1153 0.929 . S
H1144 C1148 0.929 . S
H1145 C1154 0.929 . S
C1146 H1140 0.930 . S
C1146 C1147 1.367 . S
C1146 C1154 1.378 . S
C1147 C1146 1.367 . S
C1147 C1155 1.433 . S
C1148 H1144 0.929 . S
C1148 C1150 1.378 . S
C1148 C1152 1.350 . S
C1149 C1152 1.463 . S
C1149 C1154 1.350 . S
C1149 N1157 1.427 . S
C1150 H1141 0.930 . S
C1150 C1148 1.378 . S
C1150 C1151 1.367 . S
C1151 C1150 1.367 . S
C1151 C1153 1.433 . S
C1152 C1148 1.350 . S
C1152 C1149 1.463 . S
C1152 N1156 1.427 . S
C1153 H1143 0.929 . S
C1153 C1151 1.433 . S
C1153 N1156 1.384 . S
C1154 H1145 0.929 . S
C1154 C1146 1.378 . S
C1154 C1149 1.350 . S
C1155 H1142 0.929 . S
C1155 C1147 1.433 . S
C1155 N1157 1.384 . S
N1156 C1152 1.427 . S
N1156 C1153 1.384 . S
N1157 C1149 1.427 . S
N1157 C1155 1.384 . S
H1158 C1164 0.930 . S
H1159 C1168 0.930 . S
H1160 C1173 0.929 . S
H1161 C1171 0.929 . S
H1162 C1166 0.929 . S
H1163 C1172 0.929 . S
C1164 H1158 0.930 . S
C1164 C1165 1.367 . S
C1164 C1172 1.378 . S
C1165 C1164 1.367 . S
C1165 C1173 1.433 . S
C1166 H1162 0.929 . S
C1166 C1168 1.378 . S
C1166 C1170 1.350 . S
C1167 C1170 1.463 . S
C1167 C1172 1.350 . S
C1167 N1175 1.427 . S
C1168 H1159 0.930 . S
C1168 C1166 1.378 . S
C1168 C1169 1.367 . S
C1169 C1168 1.367 . S
C1169 C1171 1.433 . S
C1170 C1166 1.350 . S
C1170 C1167 1.463 . S
C1170 N1174 1.427 . S
C1171 H1161 0.929 . S
C1171 C1169 1.433 . S
C1171 N1174 1.384 . S
C1172 H1163 0.929 . S
C1172 C1164 1.378 . S
C1172 C1167 1.350 . S
C1173 H1160 0.929 . S
C1173 C1165 1.433 . S
C1173 N1175 1.384 . S
N1174 C1170 1.427 . S
N1174 C1171 1.384 . S
N1175 C1167 1.427 . S
N1175 C1173 1.384 . S
H1176 C1182 0.930 . S
H1177 C1186 0.930 . S
H1178 C1191 0.929 . S
H1179 C1189 0.929 . S
H1180 C1184 0.929 . S
H1181 C1190 0.929 . S
C1182 H1176 0.930 . S
C1182 C1183 1.367 . S
C1182 C1190 1.378 . S
C1183 C1182 1.367 . S
C1183 C1191 1.433 . S
C1184 H1180 0.929 . S
C1184 C1186 1.378 . S
C1184 C1188 1.350 . S
C1185 C1188 1.463 . S
C1185 C1190 1.350 . S
C1185 N1193 1.427 . S
C1186 H1177 0.930 . S
C1186 C1184 1.378 . S
C1186 C1187 1.367 . S
C1187 C1186 1.367 . S
C1187 C1189 1.433 . S
C1188 C1184 1.350 . S
C1188 C1185 1.463 . S
C1188 N1192 1.427 . S
C1189 H1179 0.929 . S
C1189 C1187 1.433 . S
C1189 N1192 1.384 . S
C1190 H1181 0.929 . S
C1190 C1182 1.378 . S
C1190 C1185 1.350 . S
C1191 H1178 0.929 . S
C1191 C1183 1.433 . S
C1191 N1193 1.384 . S
N1192 C1188 1.427 . S
N1192 C1189 1.384 . S
N1193 C1185 1.427 . S
N1193 C1191 1.384 . S
H1194 C1200 0.930 . S
H1195 C1204 0.930 . S
H1196 C1209 0.929 . S
H1197 C1207 0.929 . S
H1198 C1202 0.929 . S
H1199 C1208 0.929 . S
C1200 H1194 0.930 . S
C1200 C1201 1.367 . S
C1200 C1208 1.378 . S
C1201 C1200 1.367 . S
C1201 C1209 1.433 . S
C1202 H1198 0.929 . S
C1202 C1204 1.378 . S
C1202 C1206 1.350 . S
C1203 C1206 1.463 . S
C1203 C1208 1.350 . S
C1203 N1211 1.427 . S
C1204 H1195 0.930 . S
C1204 C1202 1.378 . S
C1204 C1205 1.367 . S
C1205 C1204 1.367 . S
C1205 C1207 1.433 . S
C1206 C1202 1.350 . S
C1206 C1203 1.463 . S
C1206 N1210 1.427 . S
C1207 H1197 0.929 . S
C1207 C1205 1.433 . S
C1207 N1210 1.384 . S
C1208 H1199 0.929 . S
C1208 C1200 1.378 . S
C1208 C1203 1.350 . S
C1209 H1196 0.929 . S
C1209 C1201 1.433 . S
C1209 N1211 1.384 . S
N1210 C1206 1.427 . S
N1210 C1207 1.384 . S
N1211 C1203 1.427 . S
N1211 C1209 1.384 . S
H1212 C1218 0.930 . S
H1213 C1222 0.930 . S
H1214 C1227 0.929 . S
H1215 C1225 0.929 . S
H1216 C1220 0.929 . S
H1217 C1226 0.929 . S
C1218 H1212 0.930 . S
C1218 C1219 1.367 . S
C1218 C1226 1.378 . S
C1219 C1218 1.367 . S
C1219 C1227 1.433 . S
C1220 H1216 0.929 . S
C1220 C1222 1.378 . S
C1220 C1224 1.350 . S
C1221 C1224 1.463 . S
C1221 C1226 1.350 . S
C1221 N1229 1.427 . S
C1222 H1213 0.930 . S
C1222 C1220 1.378 . S
C1222 C1223 1.367 . S
C1223 C1222 1.367 . S
C1223 C1225 1.433 . S
C1224 C1220 1.350 . S
C1224 C1221 1.463 . S
C1224 N1228 1.427 . S
C1225 H1215 0.929 . S
C1225 C1223 1.433 . S
C1225 N1228 1.384 . S
C1226 H1217 0.929 . S
C1226 C1218 1.378 . S
C1226 C1221 1.350 . S
C1227 H1214 0.929 . S
C1227 C1219 1.433 . S
C1227 N1229 1.384 . S
N1228 C1224 1.427 . S
N1228 C1225 1.384 . S
N1229 C1221 1.427 . S
N1229 C1227 1.384 . S
H1230 C1236 0.930 . S
H1231 C1240 0.930 . S
H1232 C1245 0.929 . S
H1233 C1243 0.929 . S
H1234 C1238 0.929 . S
H1235 C1244 0.929 . S
C1236 H1230 0.930 . S
C1236 C1237 1.367 . S
C1236 C1244 1.378 . S
C1237 C1236 1.367 . S
C1237 C1245 1.433 . S
C1238 H1234 0.929 . S
C1238 C1240 1.378 . S
C1238 C1242 1.350 . S
C1239 C1242 1.463 . S
C1239 C1244 1.350 . S
C1239 N1247 1.427 . S
C1240 H1231 0.930 . S
C1240 C1238 1.378 . S
C1240 C1241 1.367 . S
C1241 C1240 1.367 . S
C1241 C1243 1.433 . S
C1242 C1238 1.350 . S
C1242 C1239 1.463 . S
C1242 N1246 1.427 . S
C1243 H1233 0.929 . S
C1243 C1241 1.433 . S
C1243 N1246 1.384 . S
C1244 H1235 0.929 . S
C1244 C1236 1.378 . S
C1244 C1239 1.350 . S
C1245 H1232 0.929 . S
C1245 C1237 1.433 . S
C1245 N1247 1.384 . S
N1246 C1242 1.427 . S
N1246 C1243 1.384 . S
N1247 C1239 1.427 . S
N1247 C1245 1.384 . S
H1248 C1254 0.930 . S
H1249 C1258 0.930 . S
H1250 C1263 0.929 . S
H1251 C1261 0.929 . S
H1252 C1256 0.929 . S
H1253 C1262 0.929 . S
C1254 H1248 0.930 . S
C1254 C1255 1.367 . S
C1254 C1262 1.378 . S
C1255 C1254 1.367 . S
C1255 C1263 1.433 . S
C1256 H1252 0.929 . S
C1256 C1258 1.378 . S
C1256 C1260 1.350 . S
C1257 C1260 1.463 . S
C1257 C1262 1.350 . S
C1257 N1265 1.427 . S
C1258 H1249 0.930 . S
C1258 C1256 1.378 . S
C1258 C1259 1.367 . S
C1259 C1258 1.367 . S
C1259 C1261 1.433 . S
C1260 C1256 1.350 . S
C1260 C1257 1.463 . S
C1260 N1264 1.427 . S
C1261 H1251 0.929 . S
C1261 C1259 1.433 . S
C1261 N1264 1.384 . S
C1262 H1253 0.929 . S
C1262 C1254 1.378 . S
C1262 C1257 1.350 . S
C1263 H1250 0.929 . S
C1263 C1255 1.433 . S
C1263 N1265 1.384 . S
N1264 C1260 1.427 . S
N1264 C1261 1.384 . S
N1265 C1257 1.427 . S
N1265 C1263 1.384 . S
H1266 C1272 0.930 . S
H1267 C1276 0.930 . S
H1268 C1281 0.929 . S
H1269 C1279 0.929 . S
H1270 C1274 0.929 . S
H1271 C1280 0.929 . S
C1272 H1266 0.930 . S
C1272 C1273 1.367 . S
C1272 C1280 1.378 . S
C1273 C1272 1.367 . S
C1273 C1281 1.433 . S
C1274 H1270 0.929 . S
C1274 C1276 1.378 . S
C1274 C1278 1.350 . S
C1275 C1278 1.463 . S
C1275 C1280 1.350 . S
C1275 N1283 1.427 . S
C1276 H1267 0.930 . S
C1276 C1274 1.378 . S
C1276 C1277 1.367 . S
C1277 C1276 1.367 . S
C1277 C1279 1.433 . S
C1278 C1274 1.350 . S
C1278 C1275 1.463 . S
C1278 N1282 1.427 . S
C1279 H1269 0.929 . S
C1279 C1277 1.433 . S
C1279 N1282 1.384 . S
C1280 H1271 0.929 . S
C1280 C1272 1.378 . S
C1280 C1275 1.350 . S
C1281 H1268 0.929 . S
C1281 C1273 1.433 . S
C1281 N1283 1.384 . S
N1282 C1278 1.427 . S
N1282 C1279 1.384 . S
N1283 C1275 1.427 . S
N1283 C1281 1.384 . S
H1284 C1290 0.930 . S
H1285 C1294 0.930 . S
H1286 C1299 0.929 . S
H1287 C1297 0.929 . S
H1288 C1292 0.929 . S
H1289 C1298 0.929 . S
C1290 H1284 0.930 . S
C1290 C1291 1.367 . S
C1290 C1298 1.378 . S
C1291 C1290 1.367 . S
C1291 C1299 1.433 . S
C1292 H1288 0.929 . S
C1292 C1294 1.378 . S
C1292 C1296 1.350 . S
C1293 C1296 1.463 . S
C1293 C1298 1.350 . S
C1293 N1301 1.427 . S
C1294 H1285 0.930 . S
C1294 C1292 1.378 . S
C1294 C1295 1.367 . S
C1295 C1294 1.367 . S
C1295 C1297 1.433 . S
C1296 C1292 1.350 . S
C1296 C1293 1.463 . S
C1296 N1300 1.427 . S
C1297 H1287 0.929 . S
C1297 C1295 1.433 . S
C1297 N1300 1.384 . S
C1298 H1289 0.929 . S
C1298 C1290 1.378 . S
C1298 C1293 1.350 . S
C1299 H1286 0.929 . S
C1299 C1291 1.433 . S
C1299 N1301 1.384 . S
N1300 C1296 1.427 . S
N1300 C1297 1.384 . S
N1301 C1293 1.427 . S
N1301 C1299 1.384 . S
H1302 C1308 0.930 . S
H1303 C1312 0.930 . S
H1304 C1317 0.929 . S
H1305 C1315 0.929 . S
H1306 C1310 0.929 . S
H1307 C1316 0.929 . S
C1308 H1302 0.930 . S
C1308 C1309 1.367 . S
C1308 C1316 1.378 . S
C1309 C1308 1.367 . S
C1309 C1317 1.433 . S
C1310 H1306 0.929 . S
C1310 C1312 1.378 . S
C1310 C1314 1.350 . S
C1311 C1314 1.463 . S
C1311 C1316 1.350 . S
C1311 N1319 1.427 . S
C1312 H1303 0.930 . S
C1312 C1310 1.378 . S
C1312 C1313 1.367 . S
C1313 C1312 1.367 . S
C1313 C1315 1.433 . S
C1314 C1310 1.350 . S
C1314 C1311 1.463 . S
C1314 N1318 1.427 . S
C1315 H1305 0.929 . S
C1315 C1313 1.433 . S
C1315 N1318 1.384 . S
C1316 H1307 0.929 . S
C1316 C1308 1.378 . S
C1316 C1311 1.350 . S
C1317 H1304 0.929 . S
C1317 C1309 1.433 . S
C1317 N1319 1.384 . S
N1318 C1314 1.427 . S
N1318 C1315 1.384 . S
N1319 C1311 1.427 . S
N1319 C1317 1.384 . S
H1320 C1326 0.930 . S
H1321 C1330 0.930 . S
H1322 C1335 0.929 . S
H1323 C1333 0.929 . S
H1324 C1328 0.929 . S
H1325 C1334 0.929 . S
C1326 H1320 0.930 . S
C1326 C1327 1.367 . S
C1326 C1334 1.378 . S
C1327 C1326 1.367 . S
C1327 C1335 1.433 . S
C1328 H1324 0.929 . S
C1328 C1330 1.378 . S
C1328 C1332 1.350 . S
C1329 C1332 1.463 . S
C1329 C1334 1.350 . S
C1329 N1337 1.427 . S
C1330 H1321 0.930 . S
C1330 C1328 1.378 . S
C1330 C1331 1.367 . S
C1331 C1330 1.367 . S
C1331 C1333 1.433 . S
C1332 C1328 1.350 . S
C1332 C1329 1.463 . S
C1332 N1336 1.427 . S
C1333 H1323 0.929 . S
C1333 C1331 1.433 . S
C1333 N1336 1.384 . S
C1334 H1325 0.929 . S
C1334 C1326 1.378 . S
C1334 C1329 1.350 . S
C1335 H1322 0.929 . S
C1335 C1327 1.433 . S
C1335 N1337 1.384 . S
N1336 C1332 1.427 . S
N1336 C1333 1.384 . S
N1337 C1329 1.427 . S
N1337 C1335 1.384 . S
H1338 C1344 0.930 . S
H1339 C1348 0.930 . S
H1340 C1353 0.929 . S
H1341 C1351 0.929 . S
H1342 C1346 0.929 . S
H1343 C1352 0.929 . S
C1344 H1338 0.930 . S
C1344 C1345 1.367 . S
C1344 C1352 1.378 . S
C1345 C1344 1.367 . S
C1345 C1353 1.433 . S
C1346 H1342 0.929 . S
C1346 C1348 1.378 . S
C1346 C1350 1.350 . S
C1347 C1350 1.463 . S
C1347 C1352 1.350 . S
C1347 N1355 1.427 . S
C1348 H1339 0.930 . S
C1348 C1346 1.378 . S
C1348 C1349 1.367 . S
C1349 C1348 1.367 . S
C1349 C1351 1.433 . S
C1350 C1346 1.350 . S
C1350 C1347 1.463 . S
C1350 N1354 1.427 . S
C1351 H1341 0.929 . S
C1351 C1349 1.433 . S
C1351 N1354 1.384 . S
C1352 H1343 0.929 . S
C1352 C1344 1.378 . S
C1352 C1347 1.350 . S
C1353 H1340 0.929 . S
C1353 C1345 1.433 . S
C1353 N1355 1.384 . S
N1354 C1350 1.427 . S
N1354 C1351 1.384 . S
N1355 C1347 1.427 . S
N1355 C1353 1.384 . S
H1356 C1362 0.930 . S
H1357 C1366 0.930 . S
H1358 C1371 0.929 . S
H1359 C1369 0.929 . S
H1360 C1364 0.929 . S
H1361 C1370 0.929 . S
C1362 H1356 0.930 . S
C1362 C1363 1.367 . S
C1362 C1370 1.378 . S
C1363 C1362 1.367 . S
C1363 C1371 1.433 . S
C1364 H1360 0.929 . S
C1364 C1366 1.378 . S
C1364 C1368 1.350 . S
C1365 C1368 1.463 . S
C1365 C1370 1.350 . S
C1365 N1373 1.427 . S
C1366 H1357 0.930 . S
C1366 C1364 1.378 . S
C1366 C1367 1.367 . S
C1367 C1366 1.367 . S
C1367 C1369 1.433 . S
C1368 C1364 1.350 . S
C1368 C1365 1.463 . S
C1368 N1372 1.427 . S
C1369 H1359 0.929 . S
C1369 C1367 1.433 . S
C1369 N1372 1.384 . S
C1370 H1361 0.929 . S
C1370 C1362 1.378 . S
C1370 C1365 1.350 . S
C1371 H1358 0.929 . S
C1371 C1363 1.433 . S
C1371 N1373 1.384 . S
N1372 C1368 1.427 . S
N1372 C1369 1.384 . S
N1373 C1365 1.427 . S
N1373 C1371 1.384 . S
H1374 C1380 0.930 . S
H1375 C1384 0.930 . S
H1376 C1389 0.929 . S
H1377 C1387 0.929 . S
H1378 C1382 0.929 . S
H1379 C1388 0.929 . S
C1380 H1374 0.930 . S
C1380 C1381 1.367 . S
C1380 C1388 1.378 . S
C1381 C1380 1.367 . S
C1381 C1389 1.433 . S
C1382 H1378 0.929 . S
C1382 C1384 1.378 . S
C1382 C1386 1.350 . S
C1383 C1386 1.463 . S
C1383 C1388 1.350 . S
C1383 N1391 1.427 . S
C1384 H1375 0.930 . S
C1384 C1382 1.378 . S
C1384 C1385 1.367 . S
C1385 C1384 1.367 . S
C1385 C1387 1.433 . S
C1386 C1382 1.350 . S
C1386 C1383 1.463 . S
C1386 N1390 1.427 . S
C1387 H1377 0.929 . S
C1387 C1385 1.433 . S
C1387 N1390 1.384 . S
C1388 H1379 0.929 . S
C1388 C1380 1.378 . S
C1388 C1383 1.350 . S
C1389 H1376 0.929 . S
C1389 C1381 1.433 . S
C1389 N1391 1.384 . S
N1390 C1386 1.427 . S
N1390 C1387 1.384 . S
N1391 C1383 1.427 . S
N1391 C1389 1.384 . S
H1392 C1398 0.930 . S
H1393 C1402 0.930 . S
H1394 C1407 0.929 . S
H1395 C1405 0.929 . S
H1396 C1400 0.929 . S
H1397 C1406 0.929 . S
C1398 H1392 0.930 . S
C1398 C1399 1.367 . S
C1398 C1406 1.378 . S
C1399 C1398 1.367 . S
C1399 C1407 1.433 . S
C1400 H1396 0.929 . S
C1400 C1402 1.378 . S
C1400 C1404 1.350 . S
C1401 C1404 1.463 . S
C1401 C1406 1.350 . S
C1401 N1409 1.427 . S
C1402 H1393 0.930 . S
C1402 C1400 1.378 . S
C1402 C1403 1.367 . S
C1403 C1402 1.367 . S
C1403 C1405 1.433 . S
C1404 C1400 1.350 . S
C1404 C1401 1.463 . S
C1404 N1408 1.427 . S
C1405 H1395 0.929 . S
C1405 C1403 1.433 . S
C1405 N1408 1.384 . S
C1406 H1397 0.929 . S
C1406 C1398 1.378 . S
C1406 C1401 1.350 . S
C1407 H1394 0.929 . S
C1407 C1399 1.433 . S
C1407 N1409 1.384 . S
N1408 C1404 1.427 . S
N1408 C1405 1.384 . S
N1409 C1401 1.427 . S
N1409 C1407 1.384 . S
H1410 C1416 0.930 . S
H1411 C1420 0.930 . S
H1412 C1425 0.929 . S
H1413 C1423 0.929 . S
H1414 C1418 0.929 . S
H1415 C1424 0.929 . S
C1416 H1410 0.930 . S
C1416 C1417 1.367 . S
C1416 C1424 1.378 . S
C1417 C1416 1.367 . S
C1417 C1425 1.433 . S
C1418 H1414 0.929 . S
C1418 C1420 1.378 . S
C1418 C1422 1.350 . S
C1419 C1422 1.463 . S
C1419 C1424 1.350 . S
C1419 N1427 1.427 . S
C1420 H1411 0.930 . S
C1420 C1418 1.378 . S
C1420 C1421 1.367 . S
C1421 C1420 1.367 . S
C1421 C1423 1.433 . S
C1422 C1418 1.350 . S
C1422 C1419 1.463 . S
C1422 N1426 1.427 . S
C1423 H1413 0.929 . S
C1423 C1421 1.433 . S
C1423 N1426 1.384 . S
C1424 H1415 0.929 . S
C1424 C1416 1.378 . S
C1424 C1419 1.350 . S
C1425 H1412 0.929 . S
C1425 C1417 1.433 . S
C1425 N1427 1.384 . S
N1426 C1422 1.427 . S
N1426 C1423 1.384 . S
N1427 C1419 1.427 . S
N1427 C1425 1.384 . S
H1428 C1434 0.930 . S
H1429 C1438 0.930 . S
H1430 C1443 0.929 . S
H1431 C1441 0.929 . S
H1432 C1436 0.929 . S
H1433 C1442 0.929 . S
C1434 H1428 0.930 . S
C1434 C1435 1.367 . S
C1434 C1442 1.378 . S
C1435 C1434 1.367 . S
C1435 C1443 1.433 . S
C1436 H1432 0.929 . S
C1436 C1438 1.378 . S
C1436 C1440 1.350 . S
C1437 C1440 1.463 . S
C1437 C1442 1.350 . S
C1437 N1445 1.427 . S
C1438 H1429 0.930 . S
C1438 C1436 1.378 . S
C1438 C1439 1.367 . S
C1439 C1438 1.367 . S
C1439 C1441 1.433 . S
C1440 C1436 1.350 . S
C1440 C1437 1.463 . S
C1440 N1444 1.427 . S
C1441 H1431 0.929 . S
C1441 C1439 1.433 . S
C1441 N1444 1.384 . S
C1442 H1433 0.929 . S
C1442 C1434 1.378 . S
C1442 C1437 1.350 . S
C1443 H1430 0.929 . S
C1443 C1435 1.433 . S
C1443 N1445 1.384 . S
N1444 C1440 1.427 . S
N1444 C1441 1.384 . S
N1445 C1437 1.427 . S
N1445 C1443 1.384 . S
H1446 C1452 0.930 . S
H1447 C1456 0.930 . S
H1448 C1461 0.929 . S
H1449 C1459 0.929 . S
H1450 C1454 0.929 . S
H1451 C1460 0.929 . S
C1452 H1446 0.930 . S
C1452 C1453 1.367 . S
C1452 C1460 1.378 . S
C1453 C1452 1.367 . S
C1453 C1461 1.433 . S
C1454 H1450 0.929 . S
C1454 C1456 1.378 . S
C1454 C1458 1.350 . S
C1455 C1458 1.463 . S
C1455 C1460 1.350 . S
C1455 N1463 1.427 . S
C1456 H1447 0.930 . S
C1456 C1454 1.378 . S
C1456 C1457 1.367 . S
C1457 C1456 1.367 . S
C1457 C1459 1.433 . S
C1458 C1454 1.350 . S
C1458 C1455 1.463 . S
C1458 N1462 1.427 . S
C1459 H1449 0.929 . S
C1459 C1457 1.433 . S
C1459 N1462 1.384 . S
C1460 H1451 0.929 . S
C1460 C1452 1.378 . S
C1460 C1455 1.350 . S
C1461 H1448 0.929 . S
C1461 C1453 1.433 . S
C1461 N1463 1.384 . S
N1462 C1458 1.427 . S
N1462 C1459 1.384 . S
N1463 C1455 1.427 . S
N1463 C1461 1.384 . S
H1464 C1470 0.930 . S
H1465 C1474 0.930 . S
H1466 C1479 0.929 . S
H1467 C1477 0.929 . S
H1468 C1472 0.929 . S
H1469 C1478 0.929 . S
C1470 H1464 0.930 . S
C1470 C1471 1.367 . S
C1470 C1478 1.378 . S
C1471 C1470 1.367 . S
C1471 C1479 1.433 . S
C1472 H1468 0.929 . S
C1472 C1474 1.378 . S
C1472 C1476 1.350 . S
C1473 C1476 1.463 . S
C1473 C1478 1.350 . S
C1473 N1481 1.427 . S
C1474 H1465 0.930 . S
C1474 C1472 1.378 . S
C1474 C1475 1.367 . S
C1475 C1474 1.367 . S
C1475 C1477 1.433 . S
C1476 C1472 1.350 . S
C1476 C1473 1.463 . S
C1476 N1480 1.427 . S
C1477 H1467 0.929 . S
C1477 C1475 1.433 . S
C1477 N1480 1.384 . S
C1478 H1469 0.929 . S
C1478 C1470 1.378 . S
C1478 C1473 1.350 . S
C1479 H1466 0.929 . S
C1479 C1471 1.433 . S
C1479 N1481 1.384 . S
N1480 C1476 1.427 . S
N1480 C1477 1.384 . S
N1481 C1473 1.427 . S
N1481 C1479 1.384 . S
H1482 C1488 0.930 . S
H1483 C1492 0.930 . S
H1484 C1497 0.929 . S
H1485 C1495 0.929 . S
H1486 C1490 0.929 . S
H1487 C1496 0.929 . S
C1488 H1482 0.930 . S
C1488 C1489 1.367 . S
C1488 C1496 1.378 . S
C1489 C1488 1.367 . S
C1489 C1497 1.433 . S
C1490 H1486 0.929 . S
C1490 C1492 1.378 . S
C1490 C1494 1.350 . S
C1491 C1494 1.463 . S
C1491 C1496 1.350 . S
C1491 N1499 1.427 . S
C1492 H1483 0.930 . S
C1492 C1490 1.378 . S
C1492 C1493 1.367 . S
C1493 C1492 1.367 . S
C1493 C1495 1.433 . S
C1494 C1490 1.350 . S
C1494 C1491 1.463 . S
C1494 N1498 1.427 . S
C1495 H1485 0.929 . S
C1495 C1493 1.433 . S
C1495 N1498 1.384 . S
C1496 H1487 0.929 . S
C1496 C1488 1.378 . S
C1496 C1491 1.350 . S
C1497 H1484 0.929 . S
C1497 C1489 1.433 . S
C1497 N1499 1.384 . S
N1498 C1494 1.427 . S
N1498 C1495 1.384 . S
N1499 C1491 1.427 . S
N1499 C1497 1.384 . S
H1500 C1506 0.930 . S
H1501 C1510 0.930 . S
H1502 C1515 0.929 . S
H1503 C1513 0.929 . S
H1504 C1508 0.929 . S
H1505 C1514 0.929 . S
C1506 H1500 0.930 . S
C1506 C1507 1.367 . S
C1506 C1514 1.378 . S
C1507 C1506 1.367 . S
C1507 C1515 1.433 . S
C1508 H1504 0.929 . S
C1508 C1510 1.378 . S
C1508 C1512 1.350 . S
C1509 C1512 1.463 . S
C1509 C1514 1.350 . S
C1509 N1517 1.427 . S
C1510 H1501 0.930 . S
C1510 C1508 1.378 . S
C1510 C1511 1.367 . S
C1511 C1510 1.367 . S
C1511 C1513 1.433 . S
C1512 C1508 1.350 . S
C1512 C1509 1.463 . S
C1512 N1516 1.427 . S
C1513 H1503 0.929 . S
C1513 C1511 1.433 . S
C1513 N1516 1.384 . S
C1514 H1505 0.929 . S
C1514 C1506 1.378 . S
C1514 C1509 1.350 . S
C1515 H1502 0.929 . S
C1515 C1507 1.433 . S
C1515 N1517 1.384 . S
N1516 C1512 1.427 . S
N1516 C1513 1.384 . S
N1517 C1509 1.427 . S
N1517 C1515 1.384 . S
H1518 C1524 0.930 . S
H1519 C1528 0.930 . S
H1520 C1533 0.929 . S
H1521 C1531 0.929 . S
H1522 C1526 0.929 . S
H1523 C1532 0.929 . S
C1524 H1518 0.930 . S
C1524 C1525 1.367 . S
C1524 C1532 1.378 . S
C1525 C1524 1.367 . S
C1525 C1533 1.433 . S
C1526 H1522 0.929 . S
C1526 C1528 1.378 . S
C1526 C1530 1.350 . S
C1527 C1530 1.463 . S
C1527 C1532 1.350 . S
C1527 N1535 1.427 . S
C1528 H1519 0.930 . S
C1528 C1526 1.378 . S
C1528 C1529 1.367 . S
C1529 C1528 1.367 . S
C1529 C1531 1.433 . S
C1530 C1526 1.350 . S
C1530 C1527 1.463 . S
C1530 N1534 1.427 . S
C1531 H1521 0.929 . S
C1531 C1529 1.433 . S
C1531 N1534 1.384 . S
C1532 H1523 0.929 . S
C1532 C1524 1.378 . S
C1532 C1527 1.350 . S
C1533 H1520 0.929 . S
C1533 C1525 1.433 . S
C1533 N1535 1.384 . S
N1534 C1530 1.427 . S
N1534 C1531 1.384 . S
N1535 C1527 1.427 . S
N1535 C1533 1.384 . S
H1536 C1542 0.930 . S
H1537 C1546 0.930 . S
H1538 C1551 0.929 . S
H1539 C1549 0.929 . S
H1540 C1544 0.929 . S
H1541 C1550 0.929 . S
C1542 H1536 0.930 . S
C1542 C1543 1.367 . S
C1542 C1550 1.378 . S
C1543 C1542 1.367 . S
C1543 C1551 1.433 . S
C1544 H1540 0.929 . S
C1544 C1546 1.378 . S
C1544 C1548 1.350 . S
C1545 C1548 1.463 . S
C1545 C1550 1.350 . S
C1545 N1553 1.427 . S
C1546 H1537 0.930 . S
C1546 C1544 1.378 . S
C1546 C1547 1.367 . S
C1547 C1546 1.367 . S
C1547 C1549 1.433 . S
C1548 C1544 1.350 . S
C1548 C1545 1.463 . S
C1548 N1552 1.427 . S
C1549 H1539 0.929 . S
C1549 C1547 1.433 . S
C1549 N1552 1.384 . S
C1550 H1541 0.929 . S
C1550 C1542 1.378 . S
C1550 C1545 1.350 . S
C1551 H1538 0.929 . S
C1551 C1543 1.433 . S
C1551 N1553 1.384 . S
N1552 C1548 1.427 . S
N1552 C1549 1.384 . S
N1553 C1545 1.427 . S
N1553 C1551 1.384 . S
H1554 C1560 0.930 . S
H1555 C1564 0.930 . S
H1556 C1569 0.929 . S
H1557 C1567 0.929 . S
H1558 C1562 0.929 . S
H1559 C1568 0.929 . S
C1560 H1554 0.930 . S
C1560 C1561 1.367 . S
C1560 C1568 1.378 . S
C1561 C1560 1.367 . S
C1561 C1569 1.433 . S
C1562 H1558 0.929 . S
C1562 C1564 1.378 . S
C1562 C1566 1.350 . S
C1563 C1566 1.463 . S
C1563 C1568 1.350 . S
C1563 N1571 1.427 . S
C1564 H1555 0.930 . S
C1564 C1562 1.378 . S
C1564 C1565 1.367 . S
C1565 C1564 1.367 . S
C1565 C1567 1.433 . S
C1566 C1562 1.350 . S
C1566 C1563 1.463 . S
C1566 N1570 1.427 . S
C1567 H1557 0.929 . S
C1567 C1565 1.433 . S
C1567 N1570 1.384 . S
C1568 H1559 0.929 . S
C1568 C1560 1.378 . S
C1568 C1563 1.350 . S
C1569 H1556 0.929 . S
C1569 C1561 1.433 . S
C1569 N1571 1.384 . S
N1570 C1566 1.427 . S
N1570 C1567 1.384 . S
N1571 C1563 1.427 . S
N1571 C1569 1.384 . S
H1572 C1578 0.930 . S
H1573 C1582 0.930 . S
H1574 C1587 0.929 . S
H1575 C1585 0.929 . S
H1576 C1580 0.929 . S
H1577 C1586 0.929 . S
C1578 H1572 0.930 . S
C1578 C1579 1.367 . S
C1578 C1586 1.378 . S
C1579 C1578 1.367 . S
C1579 C1587 1.433 . S
C1580 H1576 0.929 . S
C1580 C1582 1.378 . S
C1580 C1584 1.350 . S
C1581 C1584 1.463 . S
C1581 C1586 1.350 . S
C1581 N1589 1.427 . S
C1582 H1573 0.930 . S
C1582 C1580 1.378 . S
C1582 C1583 1.367 . S
C1583 C1582 1.367 . S
C1583 C1585 1.433 . S
C1584 C1580 1.350 . S
C1584 C1581 1.463 . S
C1584 N1588 1.427 . S
C1585 H1575 0.929 . S
C1585 C1583 1.433 . S
C1585 N1588 1.384 . S
C1586 H1577 0.929 . S
C1586 C1578 1.378 . S
C1586 C1581 1.350 . S
C1587 H1574 0.929 . S
C1587 C1579 1.433 . S
C1587 N1589 1.384 . S
N1588 C1584 1.427 . S
N1588 C1585 1.384 . S
N1589 C1581 1.427 . S
N1589 C1587 1.384 . S
H1590 C1596 0.930 . S
H1591 C1600 0.930 . S
H1592 C1605 0.929 . S
H1593 C1603 0.929 . S
H1594 C1598 0.929 . S
H1595 C1604 0.929 . S
C1596 H1590 0.930 . S
C1596 C1597 1.367 . S
C1596 C1604 1.378 . S
C1597 C1596 1.367 . S
C1597 C1605 1.433 . S
C1598 H1594 0.929 . S
C1598 C1600 1.378 . S
C1598 C1602 1.350 . S
C1599 C1602 1.463 . S
C1599 C1604 1.350 . S
C1599 N1607 1.427 . S
C1600 H1591 0.930 . S
C1600 C1598 1.378 . S
C1600 C1601 1.367 . S
C1601 C1600 1.367 . S
C1601 C1603 1.433 . S
C1602 C1598 1.350 . S
C1602 C1599 1.463 . S
C1602 N1606 1.427 . S
C1603 H1593 0.929 . S
C1603 C1601 1.433 . S
C1603 N1606 1.384 . S
C1604 H1595 0.929 . S
C1604 C1596 1.378 . S
C1604 C1599 1.350 . S
C1605 H1592 0.929 . S
C1605 C1597 1.433 . S
C1605 N1607 1.384 . S
N1606 C1602 1.427 . S
N1606 C1603 1.384 . S
N1607 C1599 1.427 . S
N1607 C1605 1.384 . S
H1608 C1614 0.930 . S
H1609 C1618 0.930 . S
H1610 C1623 0.929 . S
H1611 C1621 0.929 . S
H1612 C1616 0.929 . S
H1613 C1622 0.929 . S
C1614 H1608 0.930 . S
C1614 C1615 1.367 . S
C1614 C1622 1.378 . S
C1615 C1614 1.367 . S
C1615 C1623 1.433 . S
C1616 H1612 0.929 . S
C1616 C1618 1.378 . S
C1616 C1620 1.350 . S
C1617 C1620 1.463 . S
C1617 C1622 1.350 . S
C1617 N1625 1.427 . S
C1618 H1609 0.930 . S
C1618 C1616 1.378 . S
C1618 C1619 1.367 . S
C1619 C1618 1.367 . S
C1619 C1621 1.433 . S
C1620 C1616 1.350 . S
C1620 C1617 1.463 . S
C1620 N1624 1.427 . S
C1621 H1611 0.929 . S
C1621 C1619 1.433 . S
C1621 N1624 1.384 . S
C1622 H1613 0.929 . S
C1622 C1614 1.378 . S
C1622 C1617 1.350 . S
C1623 H1610 0.929 . S
C1623 C1615 1.433 . S
C1623 N1625 1.384 . S
N1624 C1620 1.427 . S
N1624 C1621 1.384 . S
N1625 C1617 1.427 . S
N1625 C1623 1.384 . S
H1626 C1632 0.930 . S
H1627 C1636 0.930 . S
H1628 C1641 0.929 . S
H1629 C1639 0.929 . S
H1630 C1634 0.929 . S
H1631 C1640 0.929 . S
C1632 H1626 0.930 . S
C1632 C1633 1.367 . S
C1632 C1640 1.378 . S
C1633 C1632 1.367 . S
C1633 C1641 1.433 . S
C1634 H1630 0.929 . S
C1634 C1636 1.378 . S
C1634 C1638 1.350 . S
C1635 C1638 1.463 . S
C1635 C1640 1.350 . S
C1635 N1643 1.427 . S
C1636 H1627 0.930 . S
C1636 C1634 1.378 . S
C1636 C1637 1.367 . S
C1637 C1636 1.367 . S
C1637 C1639 1.433 . S
C1638 C1634 1.350 . S
C1638 C1635 1.463 . S
C1638 N1642 1.427 . S
C1639 H1629 0.929 . S
C1639 C1637 1.433 . S
C1639 N1642 1.384 . S
C1640 H1631 0.929 . S
C1640 C1632 1.378 . S
C1640 C1635 1.350 . S
C1641 H1628 0.929 . S
C1641 C1633 1.433 . S
C1641 N1643 1.384 . S
N1642 C1638 1.427 . S
N1642 C1639 1.384 . S
N1643 C1635 1.427 . S
N1643 C1641 1.384 . S
H1644 C1650 0.930 . S
H1645 C1654 0.930 . S
H1646 C1659 0.929 . S
H1647 C1657 0.929 . S
H1648 C1652 0.929 . S
H1649 C1658 0.929 . S
C1650 H1644 0.930 . S
C1650 C1651 1.367 . S
C1650 C1658 1.378 . S
C1651 C1650 1.367 . S
C1651 C1659 1.433 . S
C1652 H1648 0.929 . S
C1652 C1654 1.378 . S
C1652 C1656 1.350 . S
C1653 C1656 1.463 . S
C1653 C1658 1.350 . S
C1653 N1661 1.427 . S
C1654 H1645 0.930 . S
C1654 C1652 1.378 . S
C1654 C1655 1.367 . S
C1655 C1654 1.367 . S
C1655 C1657 1.433 . S
C1656 C1652 1.350 . S
C1656 C1653 1.463 . S
C1656 N1660 1.427 . S
C1657 H1647 0.929 . S
C1657 C1655 1.433 . S
C1657 N1660 1.384 . S
C1658 H1649 0.929 . S
C1658 C1650 1.378 . S
C1658 C1653 1.350 . S
C1659 H1646 0.929 . S
C1659 C1651 1.433 . S
C1659 N1661 1.384 . S
N1660 C1656 1.427 . S
N1660 C1657 1.384 . S
N1661 C1653 1.427 . S
N1661 C1659 1.384 . S
H1662 C1668 0.930 . S
H1663 C1672 0.930 . S
H1664 C1677 0.929 . S
H1665 C1675 0.929 . S
H1666 C1670 0.929 . S
H1667 C1676 0.929 . S
C1668 H1662 0.930 . S
C1668 C1669 1.367 . S
C1668 C1676 1.378 . S
C1669 C1668 1.367 . S
C1669 C1677 1.433 . S
C1670 H1666 0.929 . S
C1670 C1672 1.378 . S
C1670 C1674 1.350 . S
C1671 C1674 1.463 . S
C1671 C1676 1.350 . S
C1671 N1679 1.427 . S
C1672 H1663 0.930 . S
C1672 C1670 1.378 . S
C1672 C1673 1.367 . S
C1673 C1672 1.367 . S
C1673 C1675 1.433 . S
C1674 C1670 1.350 . S
C1674 C1671 1.463 . S
C1674 N1678 1.427 . S
C1675 H1665 0.929 . S
C1675 C1673 1.433 . S
C1675 N1678 1.384 . S
C1676 H1667 0.929 . S
C1676 C1668 1.378 . S
C1676 C1671 1.350 . S
C1677 H1664 0.929 . S
C1677 C1669 1.433 . S
C1677 N1679 1.384 . S
N1678 C1674 1.427 . S
N1678 C1675 1.384 . S
N1679 C1671 1.427 . S
N1679 C1677 1.384 . S
H1680 C1686 0.930 . S
H1681 C1690 0.930 . S
H1682 C1695 0.929 . S
H1683 C1693 0.929 . S
H1684 C1688 0.929 . S
H1685 C1694 0.929 . S
C1686 H1680 0.930 . S
C1686 C1687 1.367 . S
C1686 C1694 1.378 . S
C1687 C1686 1.367 . S
C1687 C1695 1.433 . S
C1688 H1684 0.929 . S
C1688 C1690 1.378 . S
C1688 C1692 1.350 . S
C1689 C1692 1.463 . S
C1689 C1694 1.350 . S
C1689 N1697 1.427 . S
C1690 H1681 0.930 . S
C1690 C1688 1.378 . S
C1690 C1691 1.367 . S
C1691 C1690 1.367 . S
C1691 C1693 1.433 . S
C1692 C1688 1.350 . S
C1692 C1689 1.463 . S
C1692 N1696 1.427 . S
C1693 H1683 0.929 . S
C1693 C1691 1.433 . S
C1693 N1696 1.384 . S
C1694 H1685 0.929 . S
C1694 C1686 1.378 . S
C1694 C1689 1.350 . S
C1695 H1682 0.929 . S
C1695 C1687 1.433 . S
C1695 N1697 1.384 . S
N1696 C1692 1.427 . S
N1696 C1693 1.384 . S
N1697 C1689 1.427 . S
N1697 C1695 1.384 . S
H1698 C1704 0.930 . S
H1699 C1708 0.930 . S
H1700 C1713 0.929 . S
H1701 C1711 0.929 . S
H1702 C1706 0.929 . S
H1703 C1712 0.929 . S
C1704 H1698 0.930 . S
C1704 C1705 1.367 . S
C1704 C1712 1.378 . S
C1705 C1704 1.367 . S
C1705 C1713 1.433 . S
C1706 H1702 0.929 . S
C1706 C1708 1.378 . S
C1706 C1710 1.350 . S
C1707 C1710 1.463 . S
C1707 C1712 1.350 . S
C1707 N1715 1.427 . S
C1708 H1699 0.930 . S
C1708 C1706 1.378 . S
C1708 C1709 1.367 . S
C1709 C1708 1.367 . S
C1709 C1711 1.433 . S
C1710 C1706 1.350 . S
C1710 C1707 1.463 . S
C1710 N1714 1.427 . S
C1711 H1701 0.929 . S
C1711 C1709 1.433 . S
C1711 N1714 1.384 . S
C1712 H1703 0.929 . S
C1712 C1704 1.378 . S
C1712 C1707 1.350 . S
C1713 H1700 0.929 . S
C1713 C1705 1.433 . S
C1713 N1715 1.384 . S
N1714 C1710 1.427 . S
N1714 C1711 1.384 . S
N1715 C1707 1.427 . S
N1715 C1713 1.384 . S
H1716 C1722 0.930 . S
H1717 C1726 0.930 . S
H1718 C1731 0.929 . S
H1719 C1729 0.929 . S
H1720 C1724 0.929 . S
H1721 C1730 0.929 . S
C1722 H1716 0.930 . S
C1722 C1723 1.367 . S
C1722 C1730 1.378 . S
C1723 C1722 1.367 . S
C1723 C1731 1.433 . S
C1724 H1720 0.929 . S
C1724 C1726 1.378 . S
C1724 C1728 1.350 . S
C1725 C1728 1.463 . S
C1725 C1730 1.350 . S
C1725 N1733 1.427 . S
C1726 H1717 0.930 . S
C1726 C1724 1.378 . S
C1726 C1727 1.367 . S
C1727 C1726 1.367 . S
C1727 C1729 1.433 . S
C1728 C1724 1.350 . S
C1728 C1725 1.463 . S
C1728 N1732 1.427 . S
C1729 H1719 0.929 . S
C1729 C1727 1.433 . S
C1729 N1732 1.384 . S
C1730 H1721 0.929 . S
C1730 C1722 1.378 . S
C1730 C1725 1.350 . S
C1731 H1718 0.929 . S
C1731 C1723 1.433 . S
C1731 N1733 1.384 . S
N1732 C1728 1.427 . S
N1732 C1729 1.384 . S
N1733 C1725 1.427 . S
N1733 C1731 1.384 . S
H1734 C1740 0.930 . S
H1735 C1744 0.930 . S
H1736 C1749 0.929 . S
H1737 C1747 0.929 . S
H1738 C1742 0.929 . S
H1739 C1748 0.929 . S
C1740 H1734 0.930 . S
C1740 C1741 1.367 . S
C1740 C1748 1.378 . S
C1741 C1740 1.367 . S
C1741 C1749 1.433 . S
C1742 H1738 0.929 . S
C1742 C1744 1.378 . S
C1742 C1746 1.350 . S
C1743 C1746 1.463 . S
C1743 C1748 1.350 . S
C1743 N1751 1.427 . S
C1744 H1735 0.930 . S
C1744 C1742 1.378 . S
C1744 C1745 1.367 . S
C1745 C1744 1.367 . S
C1745 C1747 1.433 . S
C1746 C1742 1.350 . S
C1746 C1743 1.463 . S
C1746 N1750 1.427 . S
C1747 H1737 0.929 . S
C1747 C1745 1.433 . S
C1747 N1750 1.384 . S
C1748 H1739 0.929 . S
C1748 C1740 1.378 . S
C1748 C1743 1.350 . S
C1749 H1736 0.929 . S
C1749 C1741 1.433 . S
C1749 N1751 1.384 . S
N1750 C1746 1.427 . S
N1750 C1747 1.384 . S
N1751 C1743 1.427 . S
N1751 C1749 1.384 . S
H1752 C1758 0.930 . S
H1753 C1762 0.930 . S
H1754 C1767 0.929 . S
H1755 C1765 0.929 . S
H1756 C1760 0.929 . S
H1757 C1766 0.929 . S
C1758 H1752 0.930 . S
C1758 C1759 1.367 . S
C1758 C1766 1.378 . S
C1759 C1758 1.367 . S
C1759 C1767 1.433 . S
C1760 H1756 0.929 . S
C1760 C1762 1.378 . S
C1760 C1764 1.350 . S
C1761 C1764 1.463 . S
C1761 C1766 1.350 . S
C1761 N1769 1.427 . S
C1762 H1753 0.930 . S
C1762 C1760 1.378 . S
C1762 C1763 1.367 . S
C1763 C1762 1.367 . S
C1763 C1765 1.433 . S
C1764 C1760 1.350 . S
C1764 C1761 1.463 . S
C1764 N1768 1.427 . S
C1765 H1755 0.929 . S
C1765 C1763 1.433 . S
C1765 N1768 1.384 . S
C1766 H1757 0.929 . S
C1766 C1758 1.378 . S
C1766 C1761 1.350 . S
C1767 H1754 0.929 . S
C1767 C1759 1.433 . S
C1767 N1769 1.384 . S
N1768 C1764 1.427 . S
N1768 C1765 1.384 . S
N1769 C1761 1.427 . S
N1769 C1767 1.384 . S
H1770 C1776 0.930 . S
H1771 C1780 0.930 . S
H1772 C1785 0.929 . S
H1773 C1783 0.929 . S
H1774 C1778 0.929 . S
H1775 C1784 0.929 . S
C1776 H1770 0.930 . S
C1776 C1777 1.367 . S
C1776 C1784 1.378 . S
C1777 C1776 1.367 . S
C1777 C1785 1.433 . S
C1778 H1774 0.929 . S
C1778 C1780 1.378 . S
C1778 C1782 1.350 . S
C1779 C1782 1.463 . S
C1779 C1784 1.350 . S
C1779 N1787 1.427 . S
C1780 H1771 0.930 . S
C1780 C1778 1.378 . S
C1780 C1781 1.367 . S
C1781 C1780 1.367 . S
C1781 C1783 1.433 . S
C1782 C1778 1.350 . S
C1782 C1779 1.463 . S
C1782 N1786 1.427 . S
C1783 H1773 0.929 . S
C1783 C1781 1.433 . S
C1783 N1786 1.384 . S
C1784 H1775 0.929 . S
C1784 C1776 1.378 . S
C1784 C1779 1.350 . S
C1785 H1772 0.929 . S
C1785 C1777 1.433 . S
C1785 N1787 1.384 . S
N1786 C1782 1.427 . S
N1786 C1783 1.384 . S
N1787 C1779 1.427 . S
N1787 C1785 1.384 . S
H1788 C1794 0.930 . S
H1789 C1798 0.930 . S
H1790 C1803 0.929 . S
H1791 C1801 0.929 . S
H1792 C1796 0.929 . S
H1793 C1802 0.929 . S
C1794 H1788 0.930 . S
C1794 C1795 1.367 . S
C1794 C1802 1.378 . S
C1795 C1794 1.367 . S
C1795 C1803 1.433 . S
C1796 H1792 0.929 . S
C1796 C1798 1.378 . S
C1796 C1800 1.350 . S
C1797 C1800 1.463 . S
C1797 C1802 1.350 . S
C1797 N1805 1.427 . S
C1798 H1789 0.930 . S
C1798 C1796 1.378 . S
C1798 C1799 1.367 . S
C1799 C1798 1.367 . S
C1799 C1801 1.433 . S
C1800 C1796 1.350 . S
C1800 C1797 1.463 . S
C1800 N1804 1.427 . S
C1801 H1791 0.929 . S
C1801 C1799 1.433 . S
C1801 N1804 1.384 . S
C1802 H1793 0.929 . S
C1802 C1794 1.378 . S
C1802 C1797 1.350 . S
C1803 H1790 0.929 . S
C1803 C1795 1.433 . S
C1803 N1805 1.384 . S
N1804 C1800 1.427 . S
N1804 C1801 1.384 . S
N1805 C1797 1.427 . S
N1805 C1803 1.384 . S
H1806 C1812 0.930 . S
H1807 C1816 0.930 . S
H1808 C1821 0.929 . S
H1809 C1819 0.929 . S
H1810 C1814 0.929 . S
H1811 C1820 0.929 . S
C1812 H1806 0.930 . S
C1812 C1813 1.367 . S
C1812 C1820 1.378 . S
C1813 C1812 1.367 . S
C1813 C1821 1.433 . S
C1814 H1810 0.929 . S
C1814 C1816 1.378 . S
C1814 C1818 1.350 . S
C1815 C1818 1.463 . S
C1815 C1820 1.350 . S
C1815 N1823 1.427 . S
C1816 H1807 0.930 . S
C1816 C1814 1.378 . S
C1816 C1817 1.367 . S
C1817 C1816 1.367 . S
C1817 C1819 1.433 . S
C1818 C1814 1.350 . S
C1818 C1815 1.463 . S
C1818 N1822 1.427 . S
C1819 H1809 0.929 . S
C1819 C1817 1.433 . S
C1819 N1822 1.384 . S
C1820 H1811 0.929 . S
C1820 C1812 1.378 . S
C1820 C1815 1.350 . S
C1821 H1808 0.929 . S
C1821 C1813 1.433 . S
C1821 N1823 1.384 . S
N1822 C1818 1.427 . S
N1822 C1819 1.384 . S
N1823 C1815 1.427 . S
N1823 C1821 1.384 . S
H1824 C1830 0.930 . S
H1825 C1834 0.930 . S
H1826 C1839 0.950 . S
H1827 C1837 0.929 . S
H1828 C1832 0.929 . S
H1829 C1838 0.929 . S
C1830 H1824 0.930 . S
C1830 C1831 1.367 . S
C1830 C1838 1.378 . S
C1831 C1830 1.367 . S
C1831 C1839 1.433 . S
C1832 H1828 0.929 . S
C1832 C1834 1.378 . S
C1832 C1836 1.350 . S
C1833 C1836 1.463 . S
C1833 C1838 1.350 . S
C1833 N1841 1.427 . S
C1834 H1825 0.930 . S
C1834 C1832 1.378 . S
C1834 C1835 1.367 . S
C1835 C1834 1.367 . S
C1835 C1837 1.433 . S
C1836 C1832 1.350 . S
C1836 C1833 1.463 . S
C1836 N1840 1.427 . S
C1837 H1827 0.929 . S
C1837 C1835 1.433 . S
C1837 N1840 1.384 . S
C1838 H1829 0.929 . S
C1838 C1830 1.378 . S
C1838 C1833 1.350 . S
C1839 H1826 0.950 . S
C1839 C1831 1.433 . S
C1839 N1841 1.384 . S
N1840 C1836 1.427 . S
N1840 C1837 1.384 . S
N1841 C1833 1.427 . S
N1841 C1839 1.384 . S
H1842 C1848 0.930 . S
H1843 C1852 0.930 . S
H1844 C1857 0.929 . S
H1845 C1855 0.929 . S
H1846 C1850 0.929 . S
H1847 C1856 0.929 . S
C1848 H1842 0.930 . S
C1848 C1849 1.367 . S
C1848 C1856 1.378 . S
C1849 C1848 1.367 . S
C1849 C1857 1.433 . S
C1850 H1846 0.929 . S
C1850 C1852 1.378 . S
C1850 C1854 1.350 . S
C1851 C1854 1.463 . S
C1851 C1856 1.350 . S
C1851 N1859 1.427 . S
C1852 H1843 0.930 . S
C1852 C1850 1.378 . S
C1852 C1853 1.367 . S
C1853 C1852 1.367 . S
C1853 C1855 1.433 . S
C1854 C1850 1.350 . S
C1854 C1851 1.463 . S
C1854 N1858 1.427 . S
C1855 H1845 0.929 . S
C1855 C1853 1.433 . S
C1855 N1858 1.384 . S
C1856 H1847 0.929 . S
C1856 C1848 1.378 . S
C1856 C1851 1.350 . S
C1857 H1844 0.929 . S
C1857 C1849 1.433 . S
C1857 N1859 1.384 . S
N1858 C1854 1.427 . S
N1858 C1855 1.384 . S
N1859 C1851 1.427 . S
N1859 C1857 1.384 . S
H1860 C1866 0.930 . S
H1861 C1870 0.930 . S
H1862 C1875 0.929 . S
H1863 C1873 0.929 . S
H1864 C1868 0.929 . S
H1865 C1874 0.929 . S
C1866 H1860 0.930 . S
C1866 C1867 1.367 . S
C1866 C1874 1.378 . S
C1867 C1866 1.367 . S
C1867 C1875 1.433 . S
C1868 H1864 0.929 . S
C1868 C1870 1.378 . S
C1868 C1872 1.350 . S
C1869 C1872 1.463 . S
C1869 C1874 1.350 . S
C1869 N1877 1.427 . S
C1870 H1861 0.930 . S
C1870 C1868 1.378 . S
C1870 C1871 1.367 . S
C1871 C1870 1.367 . S
C1871 C1873 1.433 . S
C1872 C1868 1.350 . S
C1872 C1869 1.463 . S
C1872 N1876 1.427 . S
C1873 H1863 0.929 . S
C1873 C1871 1.433 . S
C1873 N1876 1.384 . S
C1874 H1865 0.929 . S
C1874 C1866 1.378 . S
C1874 C1869 1.350 . S
C1875 H1862 0.929 . S
C1875 C1867 1.433 . S
C1875 N1877 1.384 . S
N1876 C1872 1.427 . S
N1876 C1873 1.384 . S
N1877 C1869 1.427 . S
N1877 C1875 1.384 . S
H1878 C1884 0.930 . S
H1879 C1888 0.930 . S
H1880 C1893 0.929 . S
H1881 C1891 0.929 . S
H1882 C1886 0.929 . S
H1883 C1892 0.929 . S
C1884 H1878 0.930 . S
C1884 C1885 1.367 . S
C1884 C1892 1.378 . S
C1885 C1884 1.367 . S
C1885 C1893 1.433 . S
C1886 H1882 0.929 . S
C1886 C1888 1.378 . S
C1886 C1890 1.350 . S
C1887 C1890 1.463 . S
C1887 C1892 1.350 . S
C1887 N1895 1.427 . S
C1888 H1879 0.930 . S
C1888 C1886 1.378 . S
C1888 C1889 1.367 . S
C1889 C1888 1.367 . S
C1889 C1891 1.433 . S
C1890 C1886 1.350 . S
C1890 C1887 1.463 . S
C1890 N1894 1.427 . S
C1891 H1881 0.929 . S
C1891 C1889 1.433 . S
C1891 N1894 1.384 . S
C1892 H1883 0.929 . S
C1892 C1884 1.378 . S
C1892 C1887 1.350 . S
C1893 H1880 0.929 . S
C1893 C1885 1.433 . S
C1893 N1895 1.384 . S
N1894 C1890 1.427 . S
N1894 C1891 1.384 . S
N1895 C1887 1.427 . S
N1895 C1893 1.384 . S
H1896 C1902 0.930 . S
H1897 C1906 0.930 . S
H1898 C1911 0.929 . S
H1899 C1909 0.929 . S
H1900 C1904 0.929 . S
H1901 C1910 0.929 . S
C1902 H1896 0.930 . S
C1902 C1903 1.367 . S
C1902 C1910 1.378 . S
C1903 C1902 1.367 . S
C1903 C1911 1.433 . S
C1904 H1900 0.929 . S
C1904 C1906 1.378 . S
C1904 C1908 1.350 . S
C1905 C1908 1.463 . S
C1905 C1910 1.350 . S
C1905 N1913 1.427 . S
C1906 H1897 0.930 . S
C1906 C1904 1.378 . S
C1906 C1907 1.367 . S
C1907 C1906 1.367 . S
C1907 C1909 1.433 . S
C1908 C1904 1.350 . S
C1908 C1905 1.463 . S
C1908 N1912 1.427 . S
C1909 H1899 0.929 . S
C1909 C1907 1.433 . S
C1909 N1912 1.384 . S
C1910 H1901 0.929 . S
C1910 C1902 1.378 . S
C1910 C1905 1.350 . S
C1911 H1898 0.929 . S
C1911 C1903 1.433 . S
C1911 N1913 1.384 . S
N1912 C1908 1.427 . S
N1912 C1909 1.384 . S
N1913 C1905 1.427 . S
N1913 C1911 1.384 . S
H1914 C1920 0.930 . S
H1915 C1924 0.930 . S
H1916 C1929 0.929 . S
H1917 C1927 0.929 . S
H1918 C1922 0.929 . S
H1919 C1928 0.929 . S
C1920 H1914 0.930 . S
C1920 C1921 1.367 . S
C1920 C1928 1.378 . S
C1921 C1920 1.367 . S
C1921 C1929 1.433 . S
C1922 H1918 0.929 . S
C1922 C1924 1.378 . S
C1922 C1926 1.350 . S
C1923 C1926 1.463 . S
C1923 C1928 1.350 . S
C1923 N1931 1.427 . S
C1924 H1915 0.930 . S
C1924 C1922 1.378 . S
C1924 C1925 1.367 . S
C1925 C1924 1.367 . S
C1925 C1927 1.433 . S
C1926 C1922 1.350 . S
C1926 C1923 1.463 . S
C1926 N1930 1.427 . S
C1927 H1917 0.929 . S
C1927 C1925 1.433 . S
C1927 N1930 1.384 . S
C1928 H1919 0.929 . S
C1928 C1920 1.378 . S
C1928 C1923 1.350 . S
C1929 H1916 0.929 . S
C1929 C1921 1.433 . S
C1929 N1931 1.384 . S
N1930 C1926 1.427 . S
N1930 C1927 1.384 . S
N1931 C1923 1.427 . S
N1931 C1929 1.384 . S
H1932 C1938 0.930 . S
H1933 C1942 0.930 . S
H1934 C1947 0.929 . S
H1935 C1945 0.929 . S
H1936 C1940 0.929 . S
H1937 C1946 0.929 . S
C1938 H1932 0.930 . S
C1938 C1939 1.367 . S
C1938 C1946 1.378 . S
C1939 C1938 1.367 . S
C1939 C1947 1.433 . S
C1940 H1936 0.929 . S
C1940 C1942 1.378 . S
C1940 C1944 1.350 . S
C1941 C1944 1.463 . S
C1941 C1946 1.350 . S
C1941 N1949 1.427 . S
C1942 H1933 0.930 . S
C1942 C1940 1.378 . S
C1942 C1943 1.367 . S
C1943 C1942 1.367 . S
C1943 C1945 1.433 . S
C1944 C1940 1.350 . S
C1944 C1941 1.463 . S
C1944 N1948 1.427 . S
C1945 H1935 0.929 . S
C1945 C1943 1.433 . S
C1945 N1948 1.384 . S
C1946 H1937 0.929 . S
C1946 C1938 1.378 . S
C1946 C1941 1.350 . S
C1947 H1934 0.929 . S
C1947 C1939 1.433 . S
C1947 N1949 1.384 . S
N1948 C1944 1.427 . S
N1948 C1945 1.384 . S
N1949 C1941 1.427 . S
N1949 C1947 1.384 . S
H1950 C1956 0.930 . S
H1951 C1960 0.930 . S
H1952 C1965 0.929 . S
H1953 C1963 0.929 . S
H1954 C1958 0.929 . S
H1955 C1964 0.929 . S
C1956 H1950 0.930 . S
C1956 C1957 1.367 . S
C1956 C1964 1.378 . S
C1957 C1956 1.367 . S
C1957 C1965 1.433 . S
C1958 H1954 0.929 . S
C1958 C1960 1.378 . S
C1958 C1962 1.350 . S
C1959 C1962 1.463 . S
C1959 C1964 1.350 . S
C1959 N1967 1.427 . S
C1960 H1951 0.930 . S
C1960 C1958 1.378 . S
C1960 C1961 1.367 . S
C1961 C1960 1.367 . S
C1961 C1963 1.433 . S
C1962 C1958 1.350 . S
C1962 C1959 1.463 . S
C1962 N1966 1.427 . S
C1963 H1953 0.929 . S
C1963 C1961 1.433 . S
C1963 N1966 1.384 . S
C1964 H1955 0.929 . S
C1964 C1956 1.378 . S
C1964 C1959 1.350 . S
C1965 H1952 0.929 . S
C1965 C1957 1.433 . S
C1965 N1967 1.384 . S
N1966 C1962 1.427 . S
N1966 C1963 1.384 . S
N1967 C1959 1.427 . S
N1967 C1965 1.384 . S
H1968 C1974 0.930 . S
H1969 C1978 0.930 . S
H1970 C1983 0.929 . S
H1971 C1981 0.929 . S
H1972 C1976 0.929 . S
H1973 C1982 0.929 . S
C1974 H1968 0.930 . S
C1974 C1975 1.367 . S
C1974 C1982 1.378 . S
C1975 C1974 1.367 . S
C1975 C1983 1.433 . S
C1976 H1972 0.929 . S
C1976 C1978 1.378 . S
C1976 C1980 1.350 . S
C1977 C1980 1.463 . S
C1977 C1982 1.350 . S
C1977 N1985 1.427 . S
C1978 H1969 0.930 . S
C1978 C1976 1.378 . S
C1978 C1979 1.367 . S
C1979 C1978 1.367 . S
C1979 C1981 1.433 . S
C1980 C1976 1.350 . S
C1980 C1977 1.463 . S
C1980 N1984 1.427 . S
C1981 H1971 0.929 . S
C1981 C1979 1.433 . S
C1981 N1984 1.384 . S
C1982 H1973 0.929 . S
C1982 C1974 1.378 . S
C1982 C1977 1.350 . S
C1983 H1970 0.929 . S
C1983 C1975 1.433 . S
C1983 N1985 1.384 . S
N1984 C1980 1.427 . S
N1984 C1981 1.384 . S
N1985 C1977 1.427 . S
N1985 C1983 1.384 . S
H1986 C1992 0.930 . S
H1987 C1996 0.930 . S
H1988 C2001 0.929 . S
H1989 C1999 0.929 . S
H1990 C1994 0.929 . S
H1991 C2000 0.929 . S
C1992 H1986 0.930 . S
C1992 C1993 1.367 . S
C1992 C2000 1.378 . S
C1993 C1992 1.367 . S
C1993 C2001 1.433 . S
C1994 H1990 0.929 . S
C1994 C1996 1.378 . S
C1994 C1998 1.350 . S
C1995 C1998 1.463 . S
C1995 C2000 1.350 . S
C1995 N2003 1.427 . S
C1996 H1987 0.930 . S
C1996 C1994 1.378 . S
C1996 C1997 1.367 . S
C1997 C1996 1.367 . S
C1997 C1999 1.433 . S
C1998 C1994 1.350 . S
C1998 C1995 1.463 . S
C1998 N2002 1.427 . S
C1999 H1989 0.929 . S
C1999 C1997 1.433 . S
C1999 N2002 1.384 . S
C2000 H1991 0.929 . S
C2000 C1992 1.378 . S
C2000 C1995 1.350 . S
C2001 H1988 0.929 . S
C2001 C1993 1.433 . S
C2001 N2003 1.384 . S
N2002 C1998 1.427 . S
N2002 C1999 1.384 . S
N2003 C1995 1.427 . S
N2003 C2001 1.384 . S
H2004 C2010 0.930 . S
H2005 C2014 0.930 . S
H2006 C2019 0.929 . S
H2007 C2017 0.929 . S
H2008 C2012 0.929 . S
H2009 C2018 0.929 . S
C2010 H2004 0.930 . S
C2010 C2011 1.367 . S
C2010 C2018 1.378 . S
C2011 C2010 1.367 . S
C2011 C2019 1.433 . S
C2012 H2008 0.929 . S
C2012 C2014 1.378 . S
C2012 C2016 1.350 . S
C2013 C2016 1.463 . S
C2013 C2018 1.350 . S
C2013 N2021 1.427 . S
C2014 H2005 0.930 . S
C2014 C2012 1.378 . S
C2014 C2015 1.367 . S
C2015 C2014 1.367 . S
C2015 C2017 1.433 . S
C2016 C2012 1.350 . S
C2016 C2013 1.463 . S
C2016 N2020 1.427 . S
C2017 H2007 0.929 . S
C2017 C2015 1.433 . S
C2017 N2020 1.384 . S
C2018 H2009 0.929 . S
C2018 C2010 1.378 . S
C2018 C2013 1.350 . S
C2019 H2006 0.929 . S
C2019 C2011 1.433 . S
C2019 N2021 1.384 . S
N2020 C2016 1.427 . S
N2020 C2017 1.384 . S
N2021 C2013 1.427 . S
N2021 C2019 1.384 . S
H2022 C2028 0.930 . S
H2023 C2032 0.930 . S
H2024 C2037 0.929 . S
H2025 C2035 0.929 . S
H2026 C2030 0.929 . S
H2027 C2036 0.929 . S
C2028 H2022 0.930 . S
C2028 C2029 1.367 . S
C2028 C2036 1.378 . S
C2029 C2028 1.367 . S
C2029 C2037 1.433 . S
C2030 H2026 0.929 . S
C2030 C2032 1.378 . S
C2030 C2034 1.350 . S
C2031 C2034 1.463 . S
C2031 C2036 1.350 . S
C2031 N2039 1.427 . S
C2032 H2023 0.930 . S
C2032 C2030 1.378 . S
C2032 C2033 1.367 . S
C2033 C2032 1.367 . S
C2033 C2035 1.433 . S
C2034 C2030 1.350 . S
C2034 C2031 1.463 . S
C2034 N2038 1.427 . S
C2035 H2025 0.929 . S
C2035 C2033 1.433 . S
C2035 N2038 1.384 . S
C2036 H2027 0.929 . S
C2036 C2028 1.378 . S
C2036 C2031 1.350 . S
C2037 H2024 0.929 . S
C2037 C2029 1.433 . S
C2037 N2039 1.384 . S
N2038 C2034 1.427 . S
N2038 C2035 1.384 . S
N2039 C2031 1.427 . S
N2039 C2037 1.384 . S
H2040 C2046 0.930 . S
H2041 C2050 0.930 . S
H2042 C2055 0.929 . S
H2043 C2053 0.929 . S
H2044 C2048 0.929 . S
H2045 C2054 0.929 . S
C2046 H2040 0.930 . S
C2046 C2047 1.367 . S
C2046 C2054 1.378 . S
C2047 C2046 1.367 . S
C2047 C2055 1.433 . S
C2048 H2044 0.929 . S
C2048 C2050 1.378 . S
C2048 C2052 1.350 . S
C2049 C2052 1.463 . S
C2049 C2054 1.350 . S
C2049 N2057 1.427 . S
C2050 H2041 0.930 . S
C2050 C2048 1.378 . S
C2050 C2051 1.367 . S
C2051 C2050 1.367 . S
C2051 C2053 1.433 . S
C2052 C2048 1.350 . S
C2052 C2049 1.463 . S
C2052 N2056 1.427 . S
C2053 H2043 0.929 . S
C2053 C2051 1.433 . S
C2053 N2056 1.384 . S
C2054 H2045 0.929 . S
C2054 C2046 1.378 . S
C2054 C2049 1.350 . S
C2055 H2042 0.929 . S
C2055 C2047 1.433 . S
C2055 N2057 1.384 . S
N2056 C2052 1.427 . S
N2056 C2053 1.384 . S
N2057 C2049 1.427 . S
N2057 C2055 1.384 . S
H2058 C2064 0.930 . S
H2059 C2068 0.930 . S
H2060 C2073 0.929 . S
H2061 C2071 0.929 . S
H2062 C2066 0.929 . S
H2063 C2072 0.929 . S
C2064 H2058 0.930 . S
C2064 C2065 1.367 . S
C2064 C2072 1.378 . S
C2065 C2064 1.367 . S
C2065 C2073 1.433 . S
C2066 H2062 0.929 . S
C2066 C2068 1.378 . S
C2066 C2070 1.350 . S
C2067 C2070 1.463 . S
C2067 C2072 1.350 . S
C2067 N2075 1.427 . S
C2068 H2059 0.930 . S
C2068 C2066 1.378 . S
C2068 C2069 1.367 . S
C2069 C2068 1.367 . S
C2069 C2071 1.433 . S
C2070 C2066 1.350 . S
C2070 C2067 1.463 . S
C2070 N2074 1.427 . S
C2071 H2061 0.929 . S
C2071 C2069 1.433 . S
C2071 N2074 1.384 . S
C2072 H2063 0.929 . S
C2072 C2064 1.378 . S
C2072 C2067 1.350 . S
C2073 H2060 0.929 . S
C2073 C2065 1.433 . S
C2073 N2075 1.384 . S
N2074 C2070 1.427 . S
N2074 C2071 1.384 . S
N2075 C2067 1.427 . S
N2075 C2073 1.384 . S
H2076 C2082 0.930 . S
H2077 C2086 0.930 . S
H2078 C2091 0.929 . S
H2079 C2089 0.929 . S
H2080 C2084 0.929 . S
H2081 C2090 0.929 . S
C2082 H2076 0.930 . S
C2082 C2083 1.367 . S
C2082 C2090 1.378 . S
C2083 C2082 1.367 . S
C2083 C2091 1.433 . S
C2084 H2080 0.929 . S
C2084 C2086 1.378 . S
C2084 C2088 1.350 . S
C2085 C2088 1.463 . S
C2085 C2090 1.350 . S
C2085 N2093 1.427 . S
C2086 H2077 0.930 . S
C2086 C2084 1.378 . S
C2086 C2087 1.367 . S
C2087 C2086 1.367 . S
C2087 C2089 1.433 . S
C2088 C2084 1.350 . S
C2088 C2085 1.463 . S
C2088 N2092 1.427 . S
C2089 H2079 0.929 . S
C2089 C2087 1.433 . S
C2089 N2092 1.384 . S
C2090 H2081 0.929 . S
C2090 C2082 1.378 . S
C2090 C2085 1.350 . S
C2091 H2078 0.929 . S
C2091 C2083 1.433 . S
C2091 N2093 1.384 . S
N2092 C2088 1.427 . S
N2092 C2089 1.384 . S
N2093 C2085 1.427 . S
N2093 C2091 1.384 . S
H2094 C2100 0.930 . S
H2095 C2104 0.930 . S
H2096 C2109 0.929 . S
H2097 C2107 0.929 . S
H2098 C2102 0.929 . S
H2099 C2108 0.929 . S
C2100 H2094 0.930 . S
C2100 C2101 1.367 . S
C2100 C2108 1.378 . S
C2101 C2100 1.367 . S
C2101 C2109 1.433 . S
C2102 H2098 0.929 . S
C2102 C2104 1.378 . S
C2102 C2106 1.350 . S
C2103 C2106 1.463 . S
C2103 C2108 1.350 . S
C2103 N2111 1.427 . S
C2104 H2095 0.930 . S
C2104 C2102 1.378 . S
C2104 C2105 1.367 . S
C2105 C2104 1.367 . S
C2105 C2107 1.433 . S
C2106 C2102 1.350 . S
C2106 C2103 1.463 . S
C2106 N2110 1.427 . S
C2107 H2097 0.929 . S
C2107 C2105 1.433 . S
C2107 N2110 1.384 . S
C2108 H2099 0.929 . S
C2108 C2100 1.378 . S
C2108 C2103 1.350 . S
C2109 H2096 0.929 . S
C2109 C2101 1.433 . S
C2109 N2111 1.384 . S
N2110 C2106 1.427 . S
N2110 C2107 1.384 . S
N2111 C2103 1.427 . S
N2111 C2109 1.384 . S
H2112 C2118 0.930 . S
H2113 C2122 0.930 . S
H2114 C2127 0.929 . S
H2115 C2125 0.929 . S
H2116 C2120 0.929 . S
H2117 C2126 0.929 . S
C2118 H2112 0.930 . S
C2118 C2119 1.367 . S
C2118 C2126 1.378 . S
C2119 C2118 1.367 . S
C2119 C2127 1.433 . S
C2120 H2116 0.929 . S
C2120 C2122 1.378 . S
C2120 C2124 1.350 . S
C2121 C2124 1.463 . S
C2121 C2126 1.350 . S
C2121 N2129 1.427 . S
C2122 H2113 0.930 . S
C2122 C2120 1.378 . S
C2122 C2123 1.367 . S
C2123 C2122 1.367 . S
C2123 C2125 1.433 . S
C2124 C2120 1.350 . S
C2124 C2121 1.463 . S
C2124 N2128 1.427 . S
C2125 H2115 0.929 . S
C2125 C2123 1.433 . S
C2125 N2128 1.384 . S
C2126 H2117 0.929 . S
C2126 C2118 1.378 . S
C2126 C2121 1.350 . S
C2127 H2114 0.929 . S
C2127 C2119 1.433 . S
C2127 N2129 1.384 . S
N2128 C2124 1.427 . S
N2128 C2125 1.384 . S
N2129 C2121 1.427 . S
N2129 C2127 1.384 . S
H2130 C2136 0.930 . S
H2131 C2140 0.930 . S
H2132 C2145 0.929 . S
H2133 C2143 0.929 . S
H2134 C2138 0.929 . S
H2135 C2144 0.929 . S
C2136 H2130 0.930 . S
C2136 C2137 1.367 . S
C2136 C2144 1.378 . S
C2137 C2136 1.367 . S
C2137 C2145 1.433 . S
C2138 H2134 0.929 . S
C2138 C2140 1.378 . S
C2138 C2142 1.350 . S
C2139 C2142 1.463 . S
C2139 C2144 1.350 . S
C2139 N2147 1.427 . S
C2140 H2131 0.930 . S
C2140 C2138 1.378 . S
C2140 C2141 1.367 . S
C2141 C2140 1.367 . S
C2141 C2143 1.433 . S
C2142 C2138 1.350 . S
C2142 C2139 1.463 . S
C2142 N2146 1.427 . S
C2143 H2133 0.929 . S
C2143 C2141 1.433 . S
C2143 N2146 1.384 . S
C2144 H2135 0.929 . S
C2144 C2136 1.378 . S
C2144 C2139 1.350 . S
C2145 H2132 0.929 . S
C2145 C2137 1.433 . S
C2145 N2147 1.384 . S
N2146 C2142 1.427 . S
N2146 C2143 1.384 . S
N2147 C2139 1.427 . S
N2147 C2145 1.384 . S
H2148 C2154 0.930 . S
H2149 C2158 0.930 . S
H2150 C2163 0.929 . S
H2151 C2161 0.929 . S
H2152 C2156 0.929 . S
H2153 C2162 0.929 . S
C2154 H2148 0.930 . S
C2154 C2155 1.367 . S
C2154 C2162 1.378 . S
C2155 C2154 1.367 . S
C2155 C2163 1.433 . S
C2156 H2152 0.929 . S
C2156 C2158 1.378 . S
C2156 C2160 1.350 . S
C2157 C2160 1.463 . S
C2157 C2162 1.350 . S
C2157 N2165 1.427 . S
C2158 H2149 0.930 . S
C2158 C2156 1.378 . S
C2158 C2159 1.367 . S
C2159 C2158 1.367 . S
C2159 C2161 1.433 . S
C2160 C2156 1.350 . S
C2160 C2157 1.463 . S
C2160 N2164 1.427 . S
C2161 H2151 0.929 . S
C2161 C2159 1.433 . S
C2161 N2164 1.384 . S
C2162 H2153 0.929 . S
C2162 C2154 1.378 . S
C2162 C2157 1.350 . S
C2163 H2150 0.929 . S
C2163 C2155 1.433 . S
C2163 N2165 1.384 . S
N2164 C2160 1.427 . S
N2164 C2161 1.384 . S
N2165 C2157 1.427 . S
N2165 C2163 1.384 . S
H2166 C2172 0.930 . S
H2167 C2176 0.930 . S
H2168 C2181 0.929 . S
H2169 C2179 0.929 . S
H2170 C2174 0.929 . S
H2171 C2180 0.929 . S
C2172 H2166 0.930 . S
C2172 C2173 1.367 . S
C2172 C2180 1.378 . S
C2173 C2172 1.367 . S
C2173 C2181 1.433 . S
C2174 H2170 0.929 . S
C2174 C2176 1.378 . S
C2174 C2178 1.350 . S
C2175 C2178 1.463 . S
C2175 C2180 1.350 . S
C2175 N2183 1.427 . S
C2176 H2167 0.930 . S
C2176 C2174 1.378 . S
C2176 C2177 1.367 . S
C2177 C2176 1.367 . S
C2177 C2179 1.433 . S
C2178 C2174 1.350 . S
C2178 C2175 1.463 . S
C2178 N2182 1.427 . S
C2179 H2169 0.929 . S
C2179 C2177 1.433 . S
C2179 N2182 1.384 . S
C2180 H2171 0.929 . S
C2180 C2172 1.378 . S
C2180 C2175 1.350 . S
C2181 H2168 0.929 . S
C2181 C2173 1.433 . S
C2181 N2183 1.384 . S
N2182 C2178 1.427 . S
N2182 C2179 1.384 . S
N2183 C2175 1.427 . S
N2183 C2181 1.384 . S
H2184 C2190 0.930 . S
H2185 C2194 0.930 . S
H2186 C2199 0.929 . S
H2187 C2197 0.929 . S
H2188 C2192 0.929 . S
H2189 C2198 0.929 . S
C2190 H2184 0.930 . S
C2190 C2191 1.367 . S
C2190 C2198 1.378 . S
C2191 C2190 1.367 . S
C2191 C2199 1.433 . S
C2192 H2188 0.929 . S
C2192 C2194 1.378 . S
C2192 C2196 1.350 . S
C2193 C2196 1.463 . S
C2193 C2198 1.350 . S
C2193 N2201 1.427 . S
C2194 H2185 0.930 . S
C2194 C2192 1.378 . S
C2194 C2195 1.367 . S
C2195 C2194 1.367 . S
C2195 C2197 1.433 . S
C2196 C2192 1.350 . S
C2196 C2193 1.463 . S
C2196 N2200 1.427 . S
C2197 H2187 0.929 . S
C2197 C2195 1.433 . S
C2197 N2200 1.384 . S
C2198 H2189 0.929 . S
C2198 C2190 1.378 . S
C2198 C2193 1.350 . S
C2199 H2186 0.929 . S
C2199 C2191 1.433 . S
C2199 N2201 1.384 . S
N2200 C2196 1.427 . S
N2200 C2197 1.384 . S
N2201 C2193 1.427 . S
N2201 C2199 1.384 . S
H2202 C2208 0.930 . S
H2203 C2212 0.930 . S
H2204 C2217 0.929 . S
H2205 C2215 0.929 . S
H2206 C2210 0.929 . S
H2207 C2216 0.929 . S
C2208 H2202 0.930 . S
C2208 C2209 1.367 . S
C2208 C2216 1.378 . S
C2209 C2208 1.367 . S
C2209 C2217 1.433 . S
C2210 H2206 0.929 . S
C2210 C2212 1.378 . S
C2210 C2214 1.350 . S
C2211 C2214 1.463 . S
C2211 C2216 1.350 . S
C2211 N2219 1.427 . S
C2212 H2203 0.930 . S
C2212 C2210 1.378 . S
C2212 C2213 1.367 . S
C2213 C2212 1.367 . S
C2213 C2215 1.433 . S
C2214 C2210 1.350 . S
C2214 C2211 1.463 . S
C2214 N2218 1.427 . S
C2215 H2205 0.929 . S
C2215 C2213 1.433 . S
C2215 N2218 1.384 . S
C2216 H2207 0.929 . S
C2216 C2208 1.378 . S
C2216 C2211 1.350 . S
C2217 H2204 0.929 . S
C2217 C2209 1.433 . S
C2217 N2219 1.384 . S
N2218 C2214 1.427 . S
N2218 C2215 1.384 . S
N2219 C2211 1.427 . S
N2219 C2217 1.384 . S
H2220 C2226 0.930 . S
H2221 C2230 0.930 . S
H2222 C2235 0.929 . S
H2223 C2233 0.929 . S
H2224 C2228 0.929 . S
H2225 C2234 0.929 . S
C2226 H2220 0.930 . S
C2226 C2227 1.367 . S
C2226 C2234 1.378 . S
C2227 C2226 1.367 . S
C2227 C2235 1.433 . S
C2228 H2224 0.929 . S
C2228 C2230 1.378 . S
C2228 C2232 1.350 . S
C2229 C2232 1.463 . S
C2229 C2234 1.350 . S
C2229 N2237 1.427 . S
C2230 H2221 0.930 . S
C2230 C2228 1.378 . S
C2230 C2231 1.367 . S
C2231 C2230 1.367 . S
C2231 C2233 1.433 . S
C2232 C2228 1.350 . S
C2232 C2229 1.463 . S
C2232 N2236 1.427 . S
C2233 H2223 0.929 . S
C2233 C2231 1.433 . S
C2233 N2236 1.384 . S
C2234 H2225 0.929 . S
C2234 C2226 1.378 . S
C2234 C2229 1.350 . S
C2235 H2222 0.929 . S
C2235 C2227 1.433 . S
C2235 N2237 1.384 . S
N2236 C2232 1.427 . S
N2236 C2233 1.384 . S
N2237 C2229 1.427 . S
N2237 C2235 1.384 . S
H2238 C2244 0.930 . S
H2239 C2248 0.930 . S
H2240 C2253 0.929 . S
H2241 C2251 0.929 . S
H2242 C2246 0.929 . S
H2243 C2252 0.929 . S
C2244 H2238 0.930 . S
C2244 C2245 1.367 . S
C2244 C2252 1.378 . S
C2245 C2244 1.367 . S
C2245 C2253 1.433 . S
C2246 H2242 0.929 . S
C2246 C2248 1.378 . S
C2246 C2250 1.350 . S
C2247 C2250 1.463 . S
C2247 C2252 1.350 . S
C2247 N2255 1.427 . S
C2248 H2239 0.930 . S
C2248 C2246 1.378 . S
C2248 C2249 1.367 . S
C2249 C2248 1.367 . S
C2249 C2251 1.433 . S
C2250 C2246 1.350 . S
C2250 C2247 1.463 . S
C2250 N2254 1.427 . S
C2251 H2241 0.929 . S
C2251 C2249 1.433 . S
C2251 N2254 1.384 . S
C2252 H2243 0.929 . S
C2252 C2244 1.378 . S
C2252 C2247 1.350 . S
C2253 H2240 0.929 . S
C2253 C2245 1.433 . S
C2253 N2255 1.384 . S
N2254 C2250 1.427 . S
N2254 C2251 1.384 . S
N2255 C2247 1.427 . S
N2255 C2253 1.384 . S
H2256 C2262 0.930 . S
H2257 C2266 0.930 . S
H2258 C2271 0.929 . S
H2259 C2269 0.929 . S
H2260 C2264 0.929 . S
H2261 C2270 0.929 . S
C2262 H2256 0.930 . S
C2262 C2263 1.367 . S
C2262 C2270 1.378 . S
C2263 C2262 1.367 . S
C2263 C2271 1.433 . S
C2264 H2260 0.929 . S
C2264 C2266 1.378 . S
C2264 C2268 1.350 . S
C2265 C2268 1.463 . S
C2265 C2270 1.350 . S
C2265 N2273 1.427 . S
C2266 H2257 0.930 . S
C2266 C2264 1.378 . S
C2266 C2267 1.367 . S
C2267 C2266 1.367 . S
C2267 C2269 1.433 . S
C2268 C2264 1.350 . S
C2268 C2265 1.463 . S
C2268 N2272 1.427 . S
C2269 H2259 0.929 . S
C2269 C2267 1.433 . S
C2269 N2272 1.384 . S
C2270 H2261 0.929 . S
C2270 C2262 1.378 . S
C2270 C2265 1.350 . S
C2271 H2258 0.929 . S
C2271 C2263 1.433 . S
C2271 N2273 1.384 . S
N2272 C2268 1.427 . S
N2272 C2269 1.384 . S
N2273 C2265 1.427 . S
N2273 C2271 1.384 . S
H2274 C2280 0.930 . S
H2275 C2284 0.930 . S
H2276 C2289 0.929 . S
H2277 C2287 0.929 . S
H2278 C2282 0.929 . S
H2279 C2288 0.929 . S
C2280 H2274 0.930 . S
C2280 C2281 1.367 . S
C2280 C2288 1.378 . S
C2281 C2280 1.367 . S
C2281 C2289 1.433 . S
C2282 H2278 0.929 . S
C2282 C2284 1.378 . S
C2282 C2286 1.350 . S
C2283 C2286 1.463 . S
C2283 C2288 1.350 . S
C2283 N2291 1.427 . S
C2284 H2275 0.930 . S
C2284 C2282 1.378 . S
C2284 C2285 1.367 . S
C2285 C2284 1.367 . S
C2285 C2287 1.433 . S
C2286 C2282 1.350 . S
C2286 C2283 1.463 . S
C2286 N2290 1.427 . S
C2287 H2277 0.929 . S
C2287 C2285 1.433 . S
C2287 N2290 1.384 . S
C2288 H2279 0.929 . S
C2288 C2280 1.378 . S
C2288 C2283 1.350 . S
C2289 H2276 0.929 . S
C2289 C2281 1.433 . S
C2289 N2291 1.384 . S
N2290 C2286 1.427 . S
N2290 C2287 1.384 . S
N2291 C2283 1.427 . S
N2291 C2289 1.384 . S
H2292 C2298 0.930 . S
H2293 C2302 0.930 . S
H2294 C2307 0.929 . S
H2295 C2305 0.929 . S
H2296 C2300 0.929 . S
H2297 C2306 0.929 . S
C2298 H2292 0.930 . S
C2298 C2299 1.367 . S
C2298 C2306 1.378 . S
C2299 C2298 1.367 . S
C2299 C2307 1.433 . S
C2300 H2296 0.929 . S
C2300 C2302 1.378 . S
C2300 C2304 1.350 . S
C2301 C2304 1.463 . S
C2301 C2306 1.350 . S
C2301 N2309 1.427 . S
C2302 H2293 0.930 . S
C2302 C2300 1.378 . S
C2302 C2303 1.367 . S
C2303 C2302 1.367 . S
C2303 C2305 1.433 . S
C2304 C2300 1.350 . S
C2304 C2301 1.463 . S
C2304 N2308 1.427 . S
C2305 H2295 0.929 . S
C2305 C2303 1.433 . S
C2305 N2308 1.384 . S
C2306 H2297 0.929 . S
C2306 C2298 1.378 . S
C2306 C2301 1.350 . S
C2307 H2294 0.929 . S
C2307 C2299 1.433 . S
C2307 N2309 1.384 . S
N2308 C2304 1.427 . S
N2308 C2305 1.384 . S
N2309 C2301 1.427 . S
N2309 C2307 1.384 . S
H2310 C2316 0.930 . S
H2311 C2320 0.930 . S
H2312 C2325 0.929 . S
H2313 C2323 0.929 . S
H2314 C2318 0.929 . S
H2315 C2324 0.929 . S
C2316 H2310 0.930 . S
C2316 C2317 1.367 . S
C2316 C2324 1.378 . S
C2317 C2316 1.367 . S
C2317 C2325 1.433 . S
C2318 H2314 0.929 . S
C2318 C2320 1.378 . S
C2318 C2322 1.350 . S
C2319 C2322 1.463 . S
C2319 C2324 1.350 . S
C2319 N2327 1.427 . S
C2320 H2311 0.930 . S
C2320 C2318 1.378 . S
C2320 C2321 1.367 . S
C2321 C2320 1.367 . S
C2321 C2323 1.433 . S
C2322 C2318 1.350 . S
C2322 C2319 1.463 . S
C2322 N2326 1.427 . S
C2323 H2313 0.929 . S
C2323 C2321 1.433 . S
C2323 N2326 1.384 . S
C2324 H2315 0.929 . S
C2324 C2316 1.378 . S
C2324 C2319 1.350 . S
C2325 H2312 0.929 . S
C2325 C2317 1.433 . S
C2325 N2327 1.384 . S
N2326 C2322 1.427 . S
N2326 C2323 1.384 . S
N2327 C2319 1.427 . S
N2327 C2325 1.384 . S
H2328 C2334 0.930 . S
H2329 C2338 0.930 . S
H2330 C2343 0.929 . S
H2331 C2341 0.929 . S
H2332 C2336 0.929 . S
H2333 C2342 0.929 . S
C2334 H2328 0.930 . S
C2334 C2335 1.367 . S
C2334 C2342 1.378 . S
C2335 C2334 1.367 . S
C2335 C2343 1.433 . S
C2336 H2332 0.929 . S
C2336 C2338 1.378 . S
C2336 C2340 1.350 . S
C2337 C2340 1.463 . S
C2337 C2342 1.350 . S
C2337 N2345 1.427 . S
C2338 H2329 0.930 . S
C2338 C2336 1.378 . S
C2338 C2339 1.367 . S
C2339 C2338 1.367 . S
C2339 C2341 1.433 . S
C2340 C2336 1.350 . S
C2340 C2337 1.463 . S
C2340 N2344 1.427 . S
C2341 H2331 0.929 . S
C2341 C2339 1.433 . S
C2341 N2344 1.384 . S
C2342 H2333 0.929 . S
C2342 C2334 1.378 . S
C2342 C2337 1.350 . S
C2343 H2330 0.929 . S
C2343 C2335 1.433 . S
C2343 N2345 1.384 . S
N2344 C2340 1.427 . S
N2344 C2341 1.384 . S
N2345 C2337 1.427 . S
N2345 C2343 1.384 . S
H2346 C2352 0.930 . S
H2347 C2356 0.930 . S
H2348 C2361 0.929 . S
H2349 C2359 0.929 . S
H2350 C2354 0.929 . S
H2351 C2360 0.929 . S
C2352 H2346 0.930 . S
C2352 C2353 1.367 . S
C2352 C2360 1.378 . S
C2353 C2352 1.367 . S
C2353 C2361 1.433 . S
C2354 H2350 0.929 . S
C2354 C2356 1.378 . S
C2354 C2358 1.350 . S
C2355 C2358 1.463 . S
C2355 C2360 1.350 . S
C2355 N2363 1.427 . S
C2356 H2347 0.930 . S
C2356 C2354 1.378 . S
C2356 C2357 1.367 . S
C2357 C2356 1.367 . S
C2357 C2359 1.433 . S
C2358 C2354 1.350 . S
C2358 C2355 1.463 . S
C2358 N2362 1.427 . S
C2359 H2349 0.929 . S
C2359 C2357 1.433 . S
C2359 N2362 1.384 . S
C2360 H2351 0.929 . S
C2360 C2352 1.378 . S
C2360 C2355 1.350 . S
C2361 H2348 0.929 . S
C2361 C2353 1.433 . S
C2361 N2363 1.384 . S
N2362 C2358 1.427 . S
N2362 C2359 1.384 . S
N2363 C2355 1.427 . S
N2363 C2361 1.384 . S
H2364 C2370 0.930 . S
H2365 C2374 0.930 . S
H2366 C2379 0.929 . S
H2367 C2377 0.929 . S
H2368 C2372 0.929 . S
H2369 C2378 0.929 . S
C2370 H2364 0.930 . S
C2370 C2371 1.367 . S
C2370 C2378 1.378 . S
C2371 C2370 1.367 . S
C2371 C2379 1.433 . S
C2372 H2368 0.929 . S
C2372 C2374 1.378 . S
C2372 C2376 1.350 . S
C2373 C2376 1.463 . S
C2373 C2378 1.350 . S
C2373 N2381 1.427 . S
C2374 H2365 0.930 . S
C2374 C2372 1.378 . S
C2374 C2375 1.367 . S
C2375 C2374 1.367 . S
C2375 C2377 1.433 . S
C2376 C2372 1.350 . S
C2376 C2373 1.463 . S
C2376 N2380 1.427 . S
C2377 H2367 0.929 . S
C2377 C2375 1.433 . S
C2377 N2380 1.384 . S
C2378 H2369 0.929 . S
C2378 C2370 1.378 . S
C2378 C2373 1.350 . S
C2379 H2366 0.929 . S
C2379 C2371 1.433 . S
C2379 N2381 1.384 . S
N2380 C2376 1.427 . S
N2380 C2377 1.384 . S
N2381 C2373 1.427 . S
N2381 C2379 1.384 . S
H2382 C2388 0.930 . S
H2383 C2392 0.930 . S
H2384 C2397 0.929 . S
H2385 C2395 0.929 . S
H2386 C2390 0.929 . S
H2387 C2396 0.929 . S
C2388 H2382 0.930 . S
C2388 C2389 1.367 . S
C2388 C2396 1.378 . S
C2389 C2388 1.367 . S
C2389 C2397 1.433 . S
C2390 H2386 0.929 . S
C2390 C2392 1.378 . S
C2390 C2394 1.350 . S
C2391 C2394 1.463 . S
C2391 C2396 1.350 . S
C2391 N2399 1.427 . S
C2392 H2383 0.930 . S
C2392 C2390 1.378 . S
C2392 C2393 1.367 . S
C2393 C2392 1.367 . S
C2393 C2395 1.433 . S
C2394 C2390 1.350 . S
C2394 C2391 1.463 . S
C2394 N2398 1.427 . S
C2395 H2385 0.929 . S
C2395 C2393 1.433 . S
C2395 N2398 1.384 . S
C2396 H2387 0.929 . S
C2396 C2388 1.378 . S
C2396 C2391 1.350 . S
C2397 H2384 0.929 . S
C2397 C2389 1.433 . S
C2397 N2399 1.384 . S
N2398 C2394 1.427 . S
N2398 C2395 1.384 . S
N2399 C2391 1.427 . S
N2399 C2397 1.384 . S
H2400 C2406 0.930 . S
H2401 C2410 0.930 . S
H2402 C2415 0.929 . S
H2403 C2413 0.929 . S
H2404 C2408 0.929 . S
H2405 C2414 0.929 . S
C2406 H2400 0.930 . S
C2406 C2407 1.367 . S
C2406 C2414 1.378 . S
C2407 C2406 1.367 . S
C2407 C2415 1.433 . S
C2408 H2404 0.929 . S
C2408 C2410 1.378 . S
C2408 C2412 1.350 . S
C2409 C2412 1.463 . S
C2409 C2414 1.350 . S
C2409 N2417 1.427 . S
C2410 H2401 0.930 . S
C2410 C2408 1.378 . S
C2410 C2411 1.367 . S
C2411 C2410 1.367 . S
C2411 C2413 1.433 . S
C2412 C2408 1.350 . S
C2412 C2409 1.463 . S
C2412 N2416 1.427 . S
C2413 H2403 0.929 . S
C2413 C2411 1.433 . S
C2413 N2416 1.384 . S
C2414 H2405 0.929 . S
C2414 C2406 1.378 . S
C2414 C2409 1.350 . S
C2415 H2402 0.929 . S
C2415 C2407 1.433 . S
C2415 N2417 1.384 . S
N2416 C2412 1.427 . S
N2416 C2413 1.384 . S
N2417 C2409 1.427 . S
N2417 C2415 1.384 . S
H2418 C2424 0.930 . S
H2419 C2428 0.930 . S
H2420 C2433 0.929 . S
H2421 C2431 0.929 . S
H2422 C2426 0.929 . S
H2423 C2432 0.929 . S
C2424 H2418 0.930 . S
C2424 C2425 1.367 . S
C2424 C2432 1.378 . S
C2425 C2424 1.367 . S
C2425 C2433 1.433 . S
C2426 H2422 0.929 . S
C2426 C2428 1.378 . S
C2426 C2430 1.350 . S
C2427 C2430 1.463 . S
C2427 C2432 1.350 . S
C2427 N2435 1.427 . S
C2428 H2419 0.930 . S
C2428 C2426 1.378 . S
C2428 C2429 1.367 . S
C2429 C2428 1.367 . S
C2429 C2431 1.433 . S
C2430 C2426 1.350 . S
C2430 C2427 1.463 . S
C2430 N2434 1.427 . S
C2431 H2421 0.929 . S
C2431 C2429 1.433 . S
C2431 N2434 1.384 . S
C2432 H2423 0.929 . S
C2432 C2424 1.378 . S
C2432 C2427 1.350 . S
C2433 H2420 0.929 . S
C2433 C2425 1.433 . S
C2433 N2435 1.384 . S
N2434 C2430 1.427 . S
N2434 C2431 1.384 . S
N2435 C2427 1.427 . S
N2435 C2433 1.384 . S
H2436 C2442 0.930 . S
H2437 C2446 0.930 . S
H2438 C2451 0.929 . S
H2439 C2449 0.929 . S
H2440 C2444 0.929 . S
H2441 C2450 0.929 . S
C2442 H2436 0.930 . S
C2442 C2443 1.367 . S
C2442 C2450 1.378 . S
C2443 C2442 1.367 . S
C2443 C2451 1.433 . S
C2444 H2440 0.929 . S
C2444 C2446 1.378 . S
C2444 C2448 1.350 . S
C2445 C2448 1.463 . S
C2445 C2450 1.350 . S
C2445 N2453 1.427 . S
C2446 H2437 0.930 . S
C2446 C2444 1.378 . S
C2446 C2447 1.367 . S
C2447 C2446 1.367 . S
C2447 C2449 1.433 . S
C2448 C2444 1.350 . S
C2448 C2445 1.463 . S
C2448 N2452 1.427 . S
C2449 H2439 0.929 . S
C2449 C2447 1.433 . S
C2449 N2452 1.384 . S
C2450 H2441 0.929 . S
C2450 C2442 1.378 . S
C2450 C2445 1.350 . S
C2451 H2438 0.929 . S
C2451 C2443 1.433 . S
C2451 N2453 1.384 . S
N2452 C2448 1.427 . S
N2452 C2449 1.384 . S
N2453 C2445 1.427 . S
N2453 C2451 1.384 . S
H2454 C2460 0.930 . S
H2455 C2464 0.930 . S
H2456 C2469 0.929 . S
H2457 C2467 0.929 . S
H2458 C2462 0.929 . S
H2459 C2468 0.929 . S
C2460 H2454 0.930 . S
C2460 C2461 1.367 . S
C2460 C2468 1.378 . S
C2461 C2460 1.367 . S
C2461 C2469 1.433 . S
C2462 H2458 0.929 . S
C2462 C2464 1.378 . S
C2462 C2466 1.350 . S
C2463 C2466 1.463 . S
C2463 C2468 1.350 . S
C2463 N2471 1.427 . S
C2464 H2455 0.930 . S
C2464 C2462 1.378 . S
C2464 C2465 1.367 . S
C2465 C2464 1.367 . S
C2465 C2467 1.433 . S
C2466 C2462 1.350 . S
C2466 C2463 1.463 . S
C2466 N2470 1.427 . S
C2467 H2457 0.929 . S
C2467 C2465 1.433 . S
C2467 N2470 1.384 . S
C2468 H2459 0.929 . S
C2468 C2460 1.378 . S
C2468 C2463 1.350 . S
C2469 H2456 0.929 . S
C2469 C2461 1.433 . S
C2469 N2471 1.384 . S
N2470 C2466 1.427 . S
N2470 C2467 1.384 . S
N2471 C2463 1.427 . S
N2471 C2469 1.384 . S
H2472 C2478 0.930 . S
H2473 C2482 0.930 . S
H2474 C2487 0.929 . S
H2475 C2485 0.929 . S
H2476 C2480 0.929 . S
H2477 C2486 0.929 . S
C2478 H2472 0.930 . S
C2478 C2479 1.367 . S
C2478 C2486 1.378 . S
C2479 C2478 1.367 . S
C2479 C2487 1.433 . S
C2480 H2476 0.929 . S
C2480 C2482 1.378 . S
C2480 C2484 1.350 . S
C2481 C2484 1.463 . S
C2481 C2486 1.350 . S
C2481 N2489 1.427 . S
C2482 H2473 0.930 . S
C2482 C2480 1.378 . S
C2482 C2483 1.367 . S
C2483 C2482 1.367 . S
C2483 C2485 1.433 . S
C2484 C2480 1.350 . S
C2484 C2481 1.463 . S
C2484 N2488 1.427 . S
C2485 H2475 0.929 . S
C2485 C2483 1.433 . S
C2485 N2488 1.384 . S
C2486 H2477 0.929 . S
C2486 C2478 1.378 . S
C2486 C2481 1.350 . S
C2487 H2474 0.929 . S
C2487 C2479 1.433 . S
C2487 N2489 1.384 . S
N2488 C2484 1.427 . S
N2488 C2485 1.384 . S
N2489 C2481 1.427 . S
N2489 C2487 1.384 . S
H2490 C2496 0.930 . S
H2491 C2500 0.930 . S
H2492 C2505 0.929 . S
H2493 C2503 0.929 . S
H2494 C2498 0.929 . S
H2495 C2504 0.929 . S
C2496 H2490 0.930 . S
C2496 C2497 1.367 . S
C2496 C2504 1.378 . S
C2497 C2496 1.367 . S
C2497 C2505 1.433 . S
C2498 H2494 0.929 . S
C2498 C2500 1.378 . S
C2498 C2502 1.350 . S
C2499 C2502 1.463 . S
C2499 C2504 1.350 . S
C2499 N2507 1.427 . S
C2500 H2491 0.930 . S
C2500 C2498 1.378 . S
C2500 C2501 1.367 . S
C2501 C2500 1.367 . S
C2501 C2503 1.433 . S
C2502 C2498 1.350 . S
C2502 C2499 1.463 . S
C2502 N2506 1.427 . S
C2503 H2493 0.929 . S
C2503 C2501 1.433 . S
C2503 N2506 1.384 . S
C2504 H2495 0.929 . S
C2504 C2496 1.378 . S
C2504 C2499 1.350 . S
C2505 H2492 0.929 . S
C2505 C2497 1.433 . S
C2505 N2507 1.384 . S
N2506 C2502 1.427 . S
N2506 C2503 1.384 . S
N2507 C2499 1.427 . S
N2507 C2505 1.384 . S
H2508 C2514 0.930 . S
H2509 C2518 0.930 . S
H2510 C2523 0.929 . S
H2511 C2521 0.929 . S
H2512 C2516 0.929 . S
H2513 C2522 0.929 . S
C2514 H2508 0.930 . S
C2514 C2515 1.367 . S
C2514 C2522 1.378 . S
C2515 C2514 1.367 . S
C2515 C2523 1.433 . S
C2516 H2512 0.929 . S
C2516 C2518 1.378 . S
C2516 C2520 1.350 . S
C2517 C2520 1.463 . S
C2517 C2522 1.350 . S
C2517 N2525 1.427 . S
C2518 H2509 0.930 . S
C2518 C2516 1.378 . S
C2518 C2519 1.367 . S
C2519 C2518 1.367 . S
C2519 C2521 1.433 . S
C2520 C2516 1.350 . S
C2520 C2517 1.463 . S
C2520 N2524 1.427 . S
C2521 H2511 0.929 . S
C2521 C2519 1.433 . S
C2521 N2524 1.384 . S
C2522 H2513 0.929 . S
C2522 C2514 1.378 . S
C2522 C2517 1.350 . S
C2523 H2510 0.929 . S
C2523 C2515 1.433 . S
C2523 N2525 1.384 . S
N2524 C2520 1.427 . S
N2524 C2521 1.384 . S
N2525 C2517 1.427 . S
N2525 C2523 1.384 . S
H2526 C2532 0.930 . S
H2527 C2536 0.930 . S
H2528 C2541 0.929 . S
H2529 C2539 0.929 . S
H2530 C2534 0.929 . S
H2531 C2540 0.929 . S
C2532 H2526 0.930 . S
C2532 C2533 1.367 . S
C2532 C2540 1.378 . S
C2533 C2532 1.367 . S
C2533 C2541 1.433 . S
C2534 H2530 0.929 . S
C2534 C2536 1.378 . S
C2534 C2538 1.350 . S
C2535 C2538 1.463 . S
C2535 C2540 1.350 . S
C2535 N2543 1.427 . S
C2536 H2527 0.930 . S
C2536 C2534 1.378 . S
C2536 C2537 1.367 . S
C2537 C2536 1.367 . S
C2537 C2539 1.433 . S
C2538 C2534 1.350 . S
C2538 C2535 1.463 . S
C2538 N2542 1.427 . S
C2539 H2529 0.929 . S
C2539 C2537 1.433 . S
C2539 N2542 1.384 . S
C2540 H2531 0.929 . S
C2540 C2532 1.378 . S
C2540 C2535 1.350 . S
C2541 H2528 0.929 . S
C2541 C2533 1.433 . S
C2541 N2543 1.384 . S
N2542 C2538 1.427 . S
N2542 C2539 1.384 . S
N2543 C2535 1.427 . S
N2543 C2541 1.384 . S
H2544 C2550 0.930 . S
H2545 C2554 0.930 . S
H2546 C2559 0.929 . S
H2547 C2557 0.929 . S
H2548 C2552 0.929 . S
H2549 C2558 0.929 . S
C2550 H2544 0.930 . S
C2550 C2551 1.367 . S
C2550 C2558 1.378 . S
C2551 C2550 1.367 . S
C2551 C2559 1.433 . S
C2552 H2548 0.929 . S
C2552 C2554 1.378 . S
C2552 C2556 1.350 . S
C2553 C2556 1.463 . S
C2553 C2558 1.350 . S
C2553 N2561 1.427 . S
C2554 H2545 0.930 . S
C2554 C2552 1.378 . S
C2554 C2555 1.367 . S
C2555 C2554 1.367 . S
C2555 C2557 1.433 . S
C2556 C2552 1.350 . S
C2556 C2553 1.463 . S
C2556 N2560 1.427 . S
C2557 H2547 0.929 . S
C2557 C2555 1.433 . S
C2557 N2560 1.384 . S
C2558 H2549 0.929 . S
C2558 C2550 1.378 . S
C2558 C2553 1.350 . S
C2559 H2546 0.929 . S
C2559 C2551 1.433 . S
C2559 N2561 1.384 . S
N2560 C2556 1.427 . S
N2560 C2557 1.384 . S
N2561 C2553 1.427 . S
N2561 C2559 1.384 . S
H2562 C2568 0.930 . S
H2563 C2572 0.930 . S
H2564 C2577 0.929 . S
H2565 C2575 0.929 . S
H2566 C2570 0.929 . S
H2567 C2576 0.929 . S
C2568 H2562 0.930 . S
C2568 C2569 1.367 . S
C2568 C2576 1.378 . S
C2569 C2568 1.367 . S
C2569 C2577 1.433 . S
C2570 H2566 0.929 . S
C2570 C2572 1.378 . S
C2570 C2574 1.350 . S
C2571 C2574 1.463 . S
C2571 C2576 1.350 . S
C2571 N2579 1.427 . S
C2572 H2563 0.930 . S
C2572 C2570 1.378 . S
C2572 C2573 1.367 . S
C2573 C2572 1.367 . S
C2573 C2575 1.433 . S
C2574 C2570 1.350 . S
C2574 C2571 1.463 . S
C2574 N2578 1.427 . S
C2575 H2565 0.929 . S
C2575 C2573 1.433 . S
C2575 N2578 1.384 . S
C2576 H2567 0.929 . S
C2576 C2568 1.378 . S
C2576 C2571 1.350 . S
C2577 H2564 0.929 . S
C2577 C2569 1.433 . S
C2577 N2579 1.384 . S
N2578 C2574 1.427 . S
N2578 C2575 1.384 . S
N2579 C2571 1.427 . S
N2579 C2577 1.384 . S
H2580 C2586 0.930 . S
H2581 C2590 0.930 . S
H2582 C2595 0.929 . S
H2583 C2593 0.929 . S
H2584 C2588 0.929 . S
H2585 C2594 0.929 . S
C2586 H2580 0.930 . S
C2586 C2587 1.367 . S
C2586 C2594 1.378 . S
C2587 C2586 1.367 . S
C2587 C2595 1.433 . S
C2588 H2584 0.929 . S
C2588 C2590 1.378 . S
C2588 C2592 1.350 . S
C2589 C2592 1.463 . S
C2589 C2594 1.350 . S
C2589 N2597 1.427 . S
C2590 H2581 0.930 . S
C2590 C2588 1.378 . S
C2590 C2591 1.367 . S
C2591 C2590 1.367 . S
C2591 C2593 1.433 . S
C2592 C2588 1.350 . S
C2592 C2589 1.463 . S
C2592 N2596 1.427 . S
C2593 H2583 0.929 . S
C2593 C2591 1.433 . S
C2593 N2596 1.384 . S
C2594 H2585 0.929 . S
C2594 C2586 1.378 . S
C2594 C2589 1.350 . S
C2595 H2582 0.929 . S
C2595 C2587 1.433 . S
C2595 N2597 1.384 . S
N2596 C2592 1.427 . S
N2596 C2593 1.384 . S
N2597 C2589 1.427 . S
N2597 C2595 1.384 . S
H2598 C2604 0.930 . S
H2599 C2608 0.930 . S
H2600 C2613 0.929 . S
H2601 C2611 0.929 . S
H2602 C2606 0.929 . S
H2603 C2612 0.929 . S
C2604 H2598 0.930 . S
C2604 C2605 1.367 . S
C2604 C2612 1.378 . S
C2605 C2604 1.367 . S
C2605 C2613 1.433 . S
C2606 H2602 0.929 . S
C2606 C2608 1.378 . S
C2606 C2610 1.350 . S
C2607 C2610 1.463 . S
C2607 C2612 1.350 . S
C2607 N2615 1.427 . S
C2608 H2599 0.930 . S
C2608 C2606 1.378 . S
C2608 C2609 1.367 . S
C2609 C2608 1.367 . S
C2609 C2611 1.433 . S
C2610 C2606 1.350 . S
C2610 C2607 1.463 . S
C2610 N2614 1.427 . S
C2611 H2601 0.929 . S
C2611 C2609 1.433 . S
C2611 N2614 1.384 . S
C2612 H2603 0.929 . S
C2612 C2604 1.378 . S
C2612 C2607 1.350 . S
C2613 H2600 0.929 . S
C2613 C2605 1.433 . S
C2613 N2615 1.384 . S
N2614 C2610 1.427 . S
N2614 C2611 1.384 . S
N2615 C2607 1.427 . S
N2615 C2613 1.384 . S
H2616 C2622 0.930 . S
H2617 C2626 0.930 . S
H2618 C2631 0.929 . S
H2619 C2629 0.929 . S
H2620 C2624 0.929 . S
H2621 C2630 0.929 . S
C2622 H2616 0.930 . S
C2622 C2623 1.367 . S
C2622 C2630 1.378 . S
C2623 C2622 1.367 . S
C2623 C2631 1.433 . S
C2624 H2620 0.929 . S
C2624 C2626 1.378 . S
C2624 C2628 1.350 . S
C2625 C2628 1.463 . S
C2625 C2630 1.350 . S
C2625 N2633 1.427 . S
C2626 H2617 0.930 . S
C2626 C2624 1.378 . S
C2626 C2627 1.367 . S
C2627 C2626 1.367 . S
C2627 C2629 1.433 . S
C2628 C2624 1.350 . S
C2628 C2625 1.463 . S
C2628 N2632 1.427 . S
C2629 H2619 0.929 . S
C2629 C2627 1.433 . S
C2629 N2632 1.384 . S
C2630 H2621 0.929 . S
C2630 C2622 1.378 . S
C2630 C2625 1.350 . S
C2631 H2618 0.929 . S
C2631 C2623 1.433 . S
C2631 N2633 1.384 . S
N2632 C2628 1.427 . S
N2632 C2629 1.384 . S
N2633 C2625 1.427 . S
N2633 C2631 1.384 . S
H2634 C2640 0.930 . S
H2635 C2644 0.930 . S
H2636 C2649 0.929 . S
H2637 C2647 0.929 . S
H2638 C2642 0.929 . S
H2639 C2648 0.929 . S
C2640 H2634 0.930 . S
C2640 C2641 1.367 . S
C2640 C2648 1.378 . S
C2641 C2640 1.367 . S
C2641 C2649 1.433 . S
C2642 H2638 0.929 . S
C2642 C2644 1.378 . S
C2642 C2646 1.350 . S
C2643 C2646 1.463 . S
C2643 C2648 1.350 . S
C2643 N2651 1.427 . S
C2644 H2635 0.930 . S
C2644 C2642 1.378 . S
C2644 C2645 1.367 . S
C2645 C2644 1.367 . S
C2645 C2647 1.433 . S
C2646 C2642 1.350 . S
C2646 C2643 1.463 . S
C2646 N2650 1.427 . S
C2647 H2637 0.929 . S
C2647 C2645 1.433 . S
C2647 N2650 1.384 . S
C2648 H2639 0.929 . S
C2648 C2640 1.378 . S
C2648 C2643 1.350 . S
C2649 H2636 0.929 . S
C2649 C2641 1.433 . S
C2649 N2651 1.384 . S
N2650 C2646 1.427 . S
N2650 C2647 1.384 . S
N2651 C2643 1.427 . S
N2651 C2649 1.384 . S
H2652 C2658 0.930 . S
H2653 C2662 0.930 . S
H2654 C2667 0.929 . S
H2655 C2665 0.929 . S
H2656 C2660 0.929 . S
H2657 C2666 0.929 . S
C2658 H2652 0.930 . S
C2658 C2659 1.367 . S
C2658 C2666 1.378 . S
C2659 C2658 1.367 . S
C2659 C2667 1.433 . S
C2660 H2656 0.929 . S
C2660 C2662 1.378 . S
C2660 C2664 1.350 . S
C2661 C2664 1.463 . S
C2661 C2666 1.350 . S
C2661 N2669 1.427 . S
C2662 H2653 0.930 . S
C2662 C2660 1.378 . S
C2662 C2663 1.367 . S
C2663 C2662 1.367 . S
C2663 C2665 1.433 . S
C2664 C2660 1.350 . S
C2664 C2661 1.463 . S
C2664 N2668 1.427 . S
C2665 H2655 0.929 . S
C2665 C2663 1.433 . S
C2665 N2668 1.384 . S
C2666 H2657 0.929 . S
C2666 C2658 1.378 . S
C2666 C2661 1.350 . S
C2667 H2654 0.929 . S
C2667 C2659 1.433 . S
C2667 N2669 1.384 . S
N2668 C2664 1.427 . S
N2668 C2665 1.384 . S
N2669 C2661 1.427 . S
N2669 C2667 1.384 . S
H2670 C2676 0.930 . S
H2671 C2680 0.930 . S
H2672 C2685 0.929 . S
H2673 C2683 0.929 . S
H2674 C2678 0.929 . S
H2675 C2684 0.929 . S
C2676 H2670 0.930 . S
C2676 C2677 1.367 . S
C2676 C2684 1.378 . S
C2677 C2676 1.367 . S
C2677 C2685 1.433 . S
C2678 H2674 0.929 . S
C2678 C2680 1.378 . S
C2678 C2682 1.350 . S
C2679 C2682 1.463 . S
C2679 C2684 1.350 . S
C2679 N2687 1.427 . S
C2680 H2671 0.930 . S
C2680 C2678 1.378 . S
C2680 C2681 1.367 . S
C2681 C2680 1.367 . S
C2681 C2683 1.433 . S
C2682 C2678 1.350 . S
C2682 C2679 1.463 . S
C2682 N2686 1.427 . S
C2683 H2673 0.929 . S
C2683 C2681 1.433 . S
C2683 N2686 1.384 . S
C2684 H2675 0.929 . S
C2684 C2676 1.378 . S
C2684 C2679 1.350 . S
C2685 H2672 0.929 . S
C2685 C2677 1.433 . S
C2685 N2687 1.384 . S
N2686 C2682 1.427 . S
N2686 C2683 1.384 . S
N2687 C2679 1.427 . S
N2687 C2685 1.384 . S
H2688 C2694 0.930 . S
H2689 C2698 0.930 . S
H2690 C2703 0.929 . S
H2691 C2701 0.929 . S
H2692 C2696 0.929 . S
H2693 C2702 0.929 . S
C2694 H2688 0.930 . S
C2694 C2695 1.367 . S
C2694 C2702 1.378 . S
C2695 C2694 1.367 . S
C2695 C2703 1.433 . S
C2696 H2692 0.929 . S
C2696 C2698 1.378 . S
C2696 C2700 1.350 . S
C2697 C2700 1.463 . S
C2697 C2702 1.350 . S
C2697 N2705 1.427 . S
C2698 H2689 0.930 . S
C2698 C2696 1.378 . S
C2698 C2699 1.367 . S
C2699 C2698 1.367 . S
C2699 C2701 1.433 . S
C2700 C2696 1.350 . S
C2700 C2697 1.463 . S
C2700 N2704 1.427 . S
C2701 H2691 0.929 . S
C2701 C2699 1.433 . S
C2701 N2704 1.384 . S
C2702 H2693 0.929 . S
C2702 C2694 1.378 . S
C2702 C2697 1.350 . S
C2703 H2690 0.929 . S
C2703 C2695 1.433 . S
C2703 N2705 1.384 . S
N2704 C2700 1.427 . S
N2704 C2701 1.384 . S
N2705 C2697 1.427 . S
N2705 C2703 1.384 . S
H2706 C2712 0.930 . S
H2707 C2716 0.930 . S
H2708 C2721 0.929 . S
H2709 C2719 0.929 . S
H2710 C2714 0.929 . S
H2711 C2720 0.929 . S
C2712 H2706 0.930 . S
C2712 C2713 1.367 . S
C2712 C2720 1.378 . S
C2713 C2712 1.367 . S
C2713 C2721 1.433 . S
C2714 H2710 0.929 . S
C2714 C2716 1.378 . S
C2714 C2718 1.350 . S
C2715 C2718 1.463 . S
C2715 C2720 1.350 . S
C2715 N2723 1.427 . S
C2716 H2707 0.930 . S
C2716 C2714 1.378 . S
C2716 C2717 1.367 . S
C2717 C2716 1.367 . S
C2717 C2719 1.433 . S
C2718 C2714 1.350 . S
C2718 C2715 1.463 . S
C2718 N2722 1.427 . S
C2719 H2709 0.929 . S
C2719 C2717 1.433 . S
C2719 N2722 1.384 . S
C2720 H2711 0.929 . S
C2720 C2712 1.378 . S
C2720 C2715 1.350 . S
C2721 H2708 0.929 . S
C2721 C2713 1.433 . S
C2721 N2723 1.384 . S
N2722 C2718 1.427 . S
N2722 C2719 1.384 . S
N2723 C2715 1.427 . S
N2723 C2721 1.384 . S
H2724 C2730 0.930 . S
H2725 C2734 0.930 . S
H2726 C2739 0.929 . S
H2727 C2737 0.929 . S
H2728 C2732 0.929 . S
H2729 C2738 0.929 . S
C2730 H2724 0.930 . S
C2730 C2731 1.367 . S
C2730 C2738 1.378 . S
C2731 C2730 1.367 . S
C2731 C2739 1.433 . S
C2732 H2728 0.929 . S
C2732 C2734 1.378 . S
C2732 C2736 1.350 . S
C2733 C2736 1.463 . S
C2733 C2738 1.350 . S
C2733 N2741 1.427 . S
C2734 H2725 0.930 . S
C2734 C2732 1.378 . S
C2734 C2735 1.367 . S
C2735 C2734 1.367 . S
C2735 C2737 1.433 . S
C2736 C2732 1.350 . S
C2736 C2733 1.463 . S
C2736 N2740 1.427 . S
C2737 H2727 0.929 . S
C2737 C2735 1.433 . S
C2737 N2740 1.384 . S
C2738 H2729 0.929 . S
C2738 C2730 1.378 . S
C2738 C2733 1.350 . S
C2739 H2726 0.929 . S
C2739 C2731 1.433 . S
C2739 N2741 1.384 . S
N2740 C2736 1.427 . S
N2740 C2737 1.384 . S
N2741 C2733 1.427 . S
N2741 C2739 1.384 . S
H2742 C2748 0.930 . S
H2743 C2752 0.930 . S
H2744 C2757 0.929 . S
H2745 C2755 0.929 . S
H2746 C2750 0.929 . S
H2747 C2756 0.929 . S
C2748 H2742 0.930 . S
C2748 C2749 1.367 . S
C2748 C2756 1.378 . S
C2749 C2748 1.367 . S
C2749 C2757 1.433 . S
C2750 H2746 0.929 . S
C2750 C2752 1.378 . S
C2750 C2754 1.350 . S
C2751 C2754 1.463 . S
C2751 C2756 1.350 . S
C2751 N2759 1.427 . S
C2752 H2743 0.930 . S
C2752 C2750 1.378 . S
C2752 C2753 1.367 . S
C2753 C2752 1.367 . S
C2753 C2755 1.433 . S
C2754 C2750 1.350 . S
C2754 C2751 1.463 . S
C2754 N2758 1.427 . S
C2755 H2745 0.929 . S
C2755 C2753 1.433 . S
C2755 N2758 1.384 . S
C2756 H2747 0.929 . S
C2756 C2748 1.378 . S
C2756 C2751 1.350 . S
C2757 H2744 0.929 . S
C2757 C2749 1.433 . S
C2757 N2759 1.384 . S
N2758 C2754 1.427 . S
N2758 C2755 1.384 . S
N2759 C2751 1.427 . S
N2759 C2757 1.384 . S
H2760 C2766 0.930 . S
H2761 C2770 0.930 . S
H2762 C2775 0.929 . S
H2763 C2773 0.929 . S
H2764 C2768 0.929 . S
H2765 C2774 0.929 . S
C2766 H2760 0.930 . S
C2766 C2767 1.367 . S
C2766 C2774 1.378 . S
C2767 C2766 1.367 . S
C2767 C2775 1.433 . S
C2768 H2764 0.929 . S
C2768 C2770 1.378 . S
C2768 C2772 1.350 . S
C2769 C2772 1.463 . S
C2769 C2774 1.350 . S
C2769 N2777 1.427 . S
C2770 H2761 0.930 . S
C2770 C2768 1.378 . S
C2770 C2771 1.367 . S
C2771 C2770 1.367 . S
C2771 C2773 1.433 . S
C2772 C2768 1.350 . S
C2772 C2769 1.463 . S
C2772 N2776 1.427 . S
C2773 H2763 0.929 . S
C2773 C2771 1.433 . S
C2773 N2776 1.384 . S
C2774 H2765 0.929 . S
C2774 C2766 1.378 . S
C2774 C2769 1.350 . S
C2775 H2762 0.929 . S
C2775 C2767 1.433 . S
C2775 N2777 1.384 . S
N2776 C2772 1.427 . S
N2776 C2773 1.384 . S
N2777 C2769 1.427 . S
N2777 C2775 1.384 . S
H2778 C2784 0.930 . S
H2779 C2788 0.930 . S
H2780 C2793 0.929 . S
H2781 C2791 0.929 . S
H2782 C2786 0.929 . S
H2783 C2792 0.929 . S
C2784 H2778 0.930 . S
C2784 C2785 1.367 . S
C2784 C2792 1.378 . S
C2785 C2784 1.367 . S
C2785 C2793 1.433 . S
C2786 H2782 0.929 . S
C2786 C2788 1.378 . S
C2786 C2790 1.350 . S
C2787 C2790 1.463 . S
C2787 C2792 1.350 . S
C2787 N2795 1.427 . S
C2788 H2779 0.930 . S
C2788 C2786 1.378 . S
C2788 C2789 1.367 . S
C2789 C2788 1.367 . S
C2789 C2791 1.433 . S
C2790 C2786 1.350 . S
C2790 C2787 1.463 . S
C2790 N2794 1.427 . S
C2791 H2781 0.929 . S
C2791 C2789 1.433 . S
C2791 N2794 1.384 . S
C2792 H2783 0.929 . S
C2792 C2784 1.378 . S
C2792 C2787 1.350 . S
C2793 H2780 0.929 . S
C2793 C2785 1.433 . S
C2793 N2795 1.384 . S
N2794 C2790 1.427 . S
N2794 C2791 1.384 . S
N2795 C2787 1.427 . S
N2795 C2793 1.384 . S
H2796 C2802 0.930 . S
H2797 C2806 0.930 . S
H2798 C2811 0.929 . S
H2799 C2809 0.929 . S
H2800 C2804 0.929 . S
H2801 C2810 0.929 . S
C2802 H2796 0.930 . S
C2802 C2803 1.367 . S
C2802 C2810 1.378 . S
C2803 C2802 1.367 . S
C2803 C2811 1.433 . S
C2804 H2800 0.929 . S
C2804 C2806 1.378 . S
C2804 C2808 1.350 . S
C2805 C2808 1.463 . S
C2805 C2810 1.350 . S
C2805 N2813 1.427 . S
C2806 H2797 0.930 . S
C2806 C2804 1.378 . S
C2806 C2807 1.367 . S
C2807 C2806 1.367 . S
C2807 C2809 1.433 . S
C2808 C2804 1.350 . S
C2808 C2805 1.463 . S
C2808 N2812 1.427 . S
C2809 H2799 0.929 . S
C2809 C2807 1.433 . S
C2809 N2812 1.384 . S
C2810 H2801 0.929 . S
C2810 C2802 1.378 . S
C2810 C2805 1.350 . S
C2811 H2798 0.929 . S
C2811 C2803 1.433 . S
C2811 N2813 1.384 . S
N2812 C2808 1.427 . S
N2812 C2809 1.384 . S
N2813 C2805 1.427 . S
N2813 C2811 1.384 . S
H2814 C2820 0.930 . S
H2815 C2824 0.930 . S
H2816 C2829 0.929 . S
H2817 C2827 0.929 . S
H2818 C2822 0.929 . S
H2819 C2828 0.929 . S
C2820 H2814 0.930 . S
C2820 C2821 1.367 . S
C2820 C2828 1.378 . S
C2821 C2820 1.367 . S
C2821 C2829 1.433 . S
C2822 H2818 0.929 . S
C2822 C2824 1.378 . S
C2822 C2826 1.350 . S
C2823 C2826 1.463 . S
C2823 C2828 1.350 . S
C2823 N2831 1.427 . S
C2824 H2815 0.930 . S
C2824 C2822 1.378 . S
C2824 C2825 1.367 . S
C2825 C2824 1.367 . S
C2825 C2827 1.433 . S
C2826 C2822 1.350 . S
C2826 C2823 1.463 . S
C2826 N2830 1.427 . S
C2827 H2817 0.929 . S
C2827 C2825 1.433 . S
C2827 N2830 1.384 . S
C2828 H2819 0.929 . S
C2828 C2820 1.378 . S
C2828 C2823 1.350 . S
C2829 H2816 0.929 . S
C2829 C2821 1.433 . S
C2829 N2831 1.384 . S
N2830 C2826 1.427 . S
N2830 C2827 1.384 . S
N2831 C2823 1.427 . S
N2831 C2829 1.384 . S
H2832 C2838 0.930 . S
H2833 C2842 0.930 . S
H2834 C2847 0.929 . S
H2835 C2845 0.929 . S
H2836 C2840 0.929 . S
H2837 C2846 0.929 . S
C2838 H2832 0.930 . S
C2838 C2839 1.367 . S
C2838 C2846 1.378 . S
C2839 C2838 1.367 . S
C2839 C2847 1.433 . S
C2840 H2836 0.929 . S
C2840 C2842 1.378 . S
C2840 C2844 1.350 . S
C2841 C2844 1.463 . S
C2841 C2846 1.350 . S
C2841 N2849 1.427 . S
C2842 H2833 0.930 . S
C2842 C2840 1.378 . S
C2842 C2843 1.367 . S
C2843 C2842 1.367 . S
C2843 C2845 1.433 . S
C2844 C2840 1.350 . S
C2844 C2841 1.463 . S
C2844 N2848 1.427 . S
C2845 H2835 0.929 . S
C2845 C2843 1.433 . S
C2845 N2848 1.384 . S
C2846 H2837 0.929 . S
C2846 C2838 1.378 . S
C2846 C2841 1.350 . S
C2847 H2834 0.929 . S
C2847 C2839 1.433 . S
C2847 N2849 1.384 . S
N2848 C2844 1.427 . S
N2848 C2845 1.384 . S
N2849 C2841 1.427 . S
N2849 C2847 1.384 . S
H2850 C2856 0.930 . S
H2851 C2860 0.930 . S
H2852 C2865 0.929 . S
H2853 C2863 0.929 . S
H2854 C2858 0.929 . S
H2855 C2864 0.929 . S
C2856 H2850 0.930 . S
C2856 C2857 1.367 . S
C2856 C2864 1.378 . S
C2857 C2856 1.367 . S
C2857 C2865 1.433 . S
C2858 H2854 0.929 . S
C2858 C2860 1.378 . S
C2858 C2862 1.350 . S
C2859 C2862 1.463 . S
C2859 C2864 1.350 . S
C2859 N2867 1.427 . S
C2860 H2851 0.930 . S
C2860 C2858 1.378 . S
C2860 C2861 1.367 . S
C2861 C2860 1.367 . S
C2861 C2863 1.433 . S
C2862 C2858 1.350 . S
C2862 C2859 1.463 . S
C2862 N2866 1.427 . S
C2863 H2853 0.929 . S
C2863 C2861 1.433 . S
C2863 N2866 1.384 . S
C2864 H2855 0.929 . S
C2864 C2856 1.378 . S
C2864 C2859 1.350 . S
C2865 H2852 0.929 . S
C2865 C2857 1.433 . S
C2865 N2867 1.384 . S
N2866 C2862 1.427 . S
N2866 C2863 1.384 . S
N2867 C2859 1.427 . S
N2867 C2865 1.384 . S
H2868 C2874 0.930 . S
H2869 C2878 0.930 . S
H2870 C2883 0.929 . S
H2871 C2881 0.929 . S
H2872 C2876 0.929 . S
H2873 C2882 0.929 . S
C2874 H2868 0.930 . S
C2874 C2875 1.367 . S
C2874 C2882 1.378 . S
C2875 C2874 1.367 . S
C2875 C2883 1.433 . S
C2876 H2872 0.929 . S
C2876 C2878 1.378 . S
C2876 C2880 1.350 . S
C2877 C2880 1.463 . S
C2877 C2882 1.350 . S
C2877 N2885 1.427 . S
C2878 H2869 0.930 . S
C2878 C2876 1.378 . S
C2878 C2879 1.367 . S
C2879 C2878 1.367 . S
C2879 C2881 1.433 . S
C2880 C2876 1.350 . S
C2880 C2877 1.463 . S
C2880 N2884 1.427 . S
C2881 H2871 0.929 . S
C2881 C2879 1.433 . S
C2881 N2884 1.384 . S
C2882 H2873 0.929 . S
C2882 C2874 1.378 . S
C2882 C2877 1.350 . S
C2883 H2870 0.929 . S
C2883 C2875 1.433 . S
C2883 N2885 1.384 . S
N2884 C2880 1.427 . S
N2884 C2881 1.384 . S
N2885 C2877 1.427 . S
N2885 C2883 1.384 . S
H2886 C2892 0.930 . S
H2887 C2896 0.930 . S
H2888 C2901 0.929 . S
H2889 C2899 0.929 . S
H2890 C2894 0.929 . S
H2891 C2900 0.929 . S
C2892 H2886 0.930 . S
C2892 C2893 1.367 . S
C2892 C2900 1.378 . S
C2893 C2892 1.367 . S
C2893 C2901 1.433 . S
C2894 H2890 0.929 . S
C2894 C2896 1.378 . S
C2894 C2898 1.350 . S
C2895 C2898 1.463 . S
C2895 C2900 1.350 . S
C2895 N2903 1.427 . S
C2896 H2887 0.930 . S
C2896 C2894 1.378 . S
C2896 C2897 1.367 . S
C2897 C2896 1.367 . S
C2897 C2899 1.433 . S
C2898 C2894 1.350 . S
C2898 C2895 1.463 . S
C2898 N2902 1.427 . S
C2899 H2889 0.929 . S
C2899 C2897 1.433 . S
C2899 N2902 1.384 . S
C2900 H2891 0.929 . S
C2900 C2892 1.378 . S
C2900 C2895 1.350 . S
C2901 H2888 0.929 . S
C2901 C2893 1.433 . S
C2901 N2903 1.384 . S
N2902 C2898 1.427 . S
N2902 C2899 1.384 . S
N2903 C2895 1.427 . S
N2903 C2901 1.384 . S
H2904 C2910 0.930 . S
H2905 C2914 0.930 . S
H2906 C2919 0.929 . S
H2907 C2917 0.929 . S
H2908 C2912 0.929 . S
H2909 C2918 0.929 . S
C2910 H2904 0.930 . S
C2910 C2911 1.367 . S
C2910 C2918 1.378 . S
C2911 C2910 1.367 . S
C2911 C2919 1.433 . S
C2912 H2908 0.929 . S
C2912 C2914 1.378 . S
C2912 C2916 1.350 . S
C2913 C2916 1.463 . S
C2913 C2918 1.350 . S
C2913 N2921 1.427 . S
C2914 H2905 0.930 . S
C2914 C2912 1.378 . S
C2914 C2915 1.367 . S
C2915 C2914 1.367 . S
C2915 C2917 1.433 . S
C2916 C2912 1.350 . S
C2916 C2913 1.463 . S
C2916 N2920 1.427 . S
C2917 H2907 0.929 . S
C2917 C2915 1.433 . S
C2917 N2920 1.384 . S
C2918 H2909 0.929 . S
C2918 C2910 1.378 . S
C2918 C2913 1.350 . S
C2919 H2906 0.929 . S
C2919 C2911 1.433 . S
C2919 N2921 1.384 . S
N2920 C2916 1.427 . S
N2920 C2917 1.384 . S
N2921 C2913 1.427 . S
N2921 C2919 1.384 . S
H2922 C2928 0.930 . S
H2923 C2932 0.930 . S
H2924 C2937 0.929 . S
H2925 C2935 0.929 . S
H2926 C2930 0.929 . S
H2927 C2936 0.929 . S
C2928 H2922 0.930 . S
C2928 C2929 1.367 . S
C2928 C2936 1.378 . S
C2929 C2928 1.367 . S
C2929 C2937 1.433 . S
C2930 H2926 0.929 . S
C2930 C2932 1.378 . S
C2930 C2934 1.350 . S
C2931 C2934 1.463 . S
C2931 C2936 1.350 . S
C2931 N2939 1.427 . S
C2932 H2923 0.930 . S
C2932 C2930 1.378 . S
C2932 C2933 1.367 . S
C2933 C2932 1.367 . S
C2933 C2935 1.433 . S
C2934 C2930 1.350 . S
C2934 C2931 1.463 . S
C2934 N2938 1.427 . S
C2935 H2925 0.929 . S
C2935 C2933 1.433 . S
C2935 N2938 1.384 . S
C2936 H2927 0.929 . S
C2936 C2928 1.378 . S
C2936 C2931 1.350 . S
C2937 H2924 0.929 . S
C2937 C2929 1.433 . S
C2937 N2939 1.384 . S
N2938 C2934 1.427 . S
N2938 C2935 1.384 . S
N2939 C2931 1.427 . S
N2939 C2937 1.384 . S
H2940 C2946 0.930 . S
H2941 C2950 0.930 . S
H2942 C2955 0.929 . S
H2943 C2953 0.929 . S
H2944 C2948 0.929 . S
H2945 C2954 0.929 . S
C2946 H2940 0.930 . S
C2946 C2947 1.367 . S
C2946 C2954 1.378 . S
C2947 C2946 1.367 . S
C2947 C2955 1.433 . S
C2948 H2944 0.929 . S
C2948 C2950 1.378 . S
C2948 C2952 1.350 . S
C2949 C2952 1.463 . S
C2949 C2954 1.350 . S
C2949 N2957 1.427 . S
C2950 H2941 0.930 . S
C2950 C2948 1.378 . S
C2950 C2951 1.367 . S
C2951 C2950 1.367 . S
C2951 C2953 1.433 . S
C2952 C2948 1.350 . S
C2952 C2949 1.463 . S
C2952 N2956 1.427 . S
C2953 H2943 0.929 . S
C2953 C2951 1.433 . S
C2953 N2956 1.384 . S
C2954 H2945 0.929 . S
C2954 C2946 1.378 . S
C2954 C2949 1.350 . S
C2955 H2942 0.929 . S
C2955 C2947 1.433 . S
C2955 N2957 1.384 . S
N2956 C2952 1.427 . S
N2956 C2953 1.384 . S
N2957 C2949 1.427 . S
N2957 C2955 1.384 . S
H2958 C2964 0.930 . S
H2959 C2968 0.930 . S
H2960 C2973 0.929 . S
H2961 C2971 0.929 . S
H2962 C2966 0.929 . S
H2963 C2972 0.929 . S
C2964 H2958 0.930 . S
C2964 C2965 1.367 . S
C2964 C2972 1.378 . S
C2965 C2964 1.367 . S
C2965 C2973 1.433 . S
C2966 H2962 0.929 . S
C2966 C2968 1.378 . S
C2966 C2970 1.350 . S
C2967 C2970 1.463 . S
C2967 C2972 1.350 . S
C2967 N2975 1.427 . S
C2968 H2959 0.930 . S
C2968 C2966 1.378 . S
C2968 C2969 1.367 . S
C2969 C2968 1.367 . S
C2969 C2971 1.433 . S
C2970 C2966 1.350 . S
C2970 C2967 1.463 . S
C2970 N2974 1.427 . S
C2971 H2961 0.929 . S
C2971 C2969 1.433 . S
C2971 N2974 1.384 . S
C2972 H2963 0.929 . S
C2972 C2964 1.378 . S
C2972 C2967 1.350 . S
C2973 H2960 0.929 . S
C2973 C2965 1.433 . S
C2973 N2975 1.384 . S
N2974 C2970 1.427 . S
N2974 C2971 1.384 . S
N2975 C2967 1.427 . S
N2975 C2973 1.384 . S
H2976 C2982 0.930 . S
H2977 C2986 0.930 . S
H2978 C2991 0.929 . S
H2979 C2989 0.929 . S
H2980 C2984 0.929 . S
H2981 C2990 0.929 . S
C2982 H2976 0.930 . S
C2982 C2983 1.367 . S
C2982 C2990 1.378 . S
C2983 C2982 1.367 . S
C2983 C2991 1.433 . S
C2984 H2980 0.929 . S
C2984 C2986 1.378 . S
C2984 C2988 1.350 . S
C2985 C2988 1.463 . S
C2985 C2990 1.350 . S
C2985 N2993 1.427 . S
C2986 H2977 0.930 . S
C2986 C2984 1.378 . S
C2986 C2987 1.367 . S
C2987 C2986 1.367 . S
C2987 C2989 1.433 . S
C2988 C2984 1.350 . S
C2988 C2985 1.463 . S
C2988 N2992 1.427 . S
C2989 H2979 0.929 . S
C2989 C2987 1.433 . S
C2989 N2992 1.384 . S
C2990 H2981 0.929 . S
C2990 C2982 1.378 . S
C2990 C2985 1.350 . S
C2991 H2978 0.929 . S
C2991 C2983 1.433 . S
C2991 N2993 1.384 . S
N2992 C2988 1.427 . S
N2992 C2989 1.384 . S
N2993 C2985 1.427 . S
N2993 C2991 1.384 . S
H2994 C3000 0.930 . S
H2995 C3004 0.930 . S
H2996 C3009 0.929 . S
H2997 C3007 0.929 . S
H2998 C3002 0.929 . S
H2999 C3008 0.929 . S
C3000 H2994 0.930 . S
C3000 C3001 1.367 . S
C3000 C3008 1.378 . S
C3001 C3000 1.367 . S
C3001 C3009 1.433 . S
C3002 H2998 0.929 . S
C3002 C3004 1.378 . S
C3002 C3006 1.350 . S
C3003 C3006 1.463 . S
C3003 C3008 1.350 . S
C3003 N3011 1.427 . S
C3004 H2995 0.930 . S
C3004 C3002 1.378 . S
C3004 C3005 1.367 . S
C3005 C3004 1.367 . S
C3005 C3007 1.433 . S
C3006 C3002 1.350 . S
C3006 C3003 1.463 . S
C3006 N3010 1.427 . S
C3007 H2997 0.929 . S
C3007 C3005 1.433 . S
C3007 N3010 1.384 . S
C3008 H2999 0.929 . S
C3008 C3000 1.378 . S
C3008 C3003 1.350 . S
C3009 H2996 0.929 . S
C3009 C3001 1.433 . S
C3009 N3011 1.384 . S
N3010 C3006 1.427 . S
N3010 C3007 1.384 . S
N3011 C3003 1.427 . S
N3011 C3009 1.384 . S
H3012 C3018 0.930 . S
H3013 C3022 0.930 . S
H3014 C3027 0.929 . S
H3015 C3025 0.929 . S
H3016 C3020 0.929 . S
H3017 C3026 0.929 . S
C3018 H3012 0.930 . S
C3018 C3019 1.367 . S
C3018 C3026 1.378 . S
C3019 C3018 1.367 . S
C3019 C3027 1.433 . S
C3020 H3016 0.929 . S
C3020 C3022 1.378 . S
C3020 C3024 1.350 . S
C3021 C3024 1.463 . S
C3021 C3026 1.350 . S
C3021 N3029 1.427 . S
C3022 H3013 0.930 . S
C3022 C3020 1.378 . S
C3022 C3023 1.367 . S
C3023 C3022 1.367 . S
C3023 C3025 1.433 . S
C3024 C3020 1.350 . S
C3024 C3021 1.463 . S
C3024 N3028 1.427 . S
C3025 H3015 0.929 . S
C3025 C3023 1.433 . S
C3025 N3028 1.384 . S
C3026 H3017 0.929 . S
C3026 C3018 1.378 . S
C3026 C3021 1.350 . S
C3027 H3014 0.929 . S
C3027 C3019 1.433 . S
C3027 N3029 1.384 . S
N3028 C3024 1.427 . S
N3028 C3025 1.384 . S
N3029 C3021 1.427 . S
N3029 C3027 1.384 . S
H3030 C3036 0.930 . S
H3031 C3040 0.930 . S
H3032 C3045 0.929 . S
H3033 C3043 0.929 . S
H3034 C3038 0.929 . S
H3035 C3044 0.929 . S
C3036 H3030 0.930 . S
C3036 C3037 1.367 . S
C3036 C3044 1.378 . S
C3037 C3036 1.367 . S
C3037 C3045 1.433 . S
C3038 H3034 0.929 . S
C3038 C3040 1.378 . S
C3038 C3042 1.350 . S
C3039 C3042 1.463 . S
C3039 C3044 1.350 . S
C3039 N3047 1.427 . S
C3040 H3031 0.930 . S
C3040 C3038 1.378 . S
C3040 C3041 1.367 . S
C3041 C3040 1.367 . S
C3041 C3043 1.433 . S
C3042 C3038 1.350 . S
C3042 C3039 1.463 . S
C3042 N3046 1.427 . S
C3043 H3033 0.929 . S
C3043 C3041 1.433 . S
C3043 N3046 1.384 . S
C3044 H3035 0.929 . S
C3044 C3036 1.378 . S
C3044 C3039 1.350 . S
C3045 H3032 0.929 . S
C3045 C3037 1.433 . S
C3045 N3047 1.384 . S
N3046 C3042 1.427 . S
N3046 C3043 1.384 . S
N3047 C3039 1.427 . S
N3047 C3045 1.384 . S
H3048 C3054 0.930 . S
H3049 C3058 0.930 . S
H3050 C3063 0.929 . S
H3051 C3061 0.929 . S
H3052 C3056 0.929 . S
H3053 C3062 0.929 . S
C3054 H3048 0.930 . S
C3054 C3055 1.367 . S
C3054 C3062 1.378 . S
C3055 C3054 1.367 . S
C3055 C3063 1.433 . S
C3056 H3052 0.929 . S
C3056 C3058 1.378 . S
C3056 C3060 1.350 . S
C3057 C3060 1.463 . S
C3057 C3062 1.350 . S
C3057 N3065 1.427 . S
C3058 H3049 0.930 . S
C3058 C3056 1.378 . S
C3058 C3059 1.367 . S
C3059 C3058 1.367 . S
C3059 C3061 1.433 . S
C3060 C3056 1.350 . S
C3060 C3057 1.463 . S
C3060 N3064 1.427 . S
C3061 H3051 0.929 . S
C3061 C3059 1.433 . S
C3061 N3064 1.384 . S
C3062 H3053 0.929 . S
C3062 C3054 1.378 . S
C3062 C3057 1.350 . S
C3063 H3050 0.929 . S
C3063 C3055 1.433 . S
C3063 N3065 1.384 . S
N3064 C3060 1.427 . S
N3064 C3061 1.384 . S
N3065 C3057 1.427 . S
N3065 C3063 1.384 . S
H3066 C3072 0.930 . S
H3067 C3076 0.930 . S
H3068 C3081 0.929 . S
H3069 C3079 0.929 . S
H3070 C3074 0.929 . S
H3071 C3080 0.929 . S
C3072 H3066 0.930 . S
C3072 C3073 1.367 . S
C3072 C3080 1.378 . S
C3073 C3072 1.367 . S
C3073 C3081 1.433 . S
C3074 H3070 0.929 . S
C3074 C3076 1.378 . S
C3074 C3078 1.350 . S
C3075 C3078 1.463 . S
C3075 C3080 1.350 . S
C3075 N3083 1.427 . S
C3076 H3067 0.930 . S
C3076 C3074 1.378 . S
C3076 C3077 1.367 . S
C3077 C3076 1.367 . S
C3077 C3079 1.433 . S
C3078 C3074 1.350 . S
C3078 C3075 1.463 . S
C3078 N3082 1.427 . S
C3079 H3069 0.929 . S
C3079 C3077 1.433 . S
C3079 N3082 1.384 . S
C3080 H3071 0.929 . S
C3080 C3072 1.378 . S
C3080 C3075 1.350 . S
C3081 H3068 0.929 . S
C3081 C3073 1.433 . S
C3081 N3083 1.384 . S
N3082 C3078 1.427 . S
N3082 C3079 1.384 . S
N3083 C3075 1.427 . S
N3083 C3081 1.384 . S
H3084 C3090 0.930 . S
H3085 C3094 0.930 . S
H3086 C3099 0.929 . S
H3087 C3097 0.929 . S
H3088 C3092 0.929 . S
H3089 C3098 0.929 . S
C3090 H3084 0.930 . S
C3090 C3091 1.367 . S
C3090 C3098 1.378 . S
C3091 C3090 1.367 . S
C3091 C3099 1.433 . S
C3092 H3088 0.929 . S
C3092 C3094 1.378 . S
C3092 C3096 1.350 . S
C3093 C3096 1.463 . S
C3093 C3098 1.350 . S
C3093 N3101 1.427 . S
C3094 H3085 0.930 . S
C3094 C3092 1.378 . S
C3094 C3095 1.367 . S
C3095 C3094 1.367 . S
C3095 C3097 1.433 . S
C3096 C3092 1.350 . S
C3096 C3093 1.463 . S
C3096 N3100 1.427 . S
C3097 H3087 0.929 . S
C3097 C3095 1.433 . S
C3097 N3100 1.384 . S
C3098 H3089 0.929 . S
C3098 C3090 1.378 . S
C3098 C3093 1.350 . S
C3099 H3086 0.929 . S
C3099 C3091 1.433 . S
C3099 N3101 1.384 . S
N3100 C3096 1.427 . S
N3100 C3097 1.384 . S
N3101 C3093 1.427 . S
N3101 C3099 1.384 . S
H3102 C3108 0.930 . S
H3103 C3112 0.930 . S
H3104 C3117 0.929 . S
H3105 C3115 0.929 . S
H3106 C3110 0.929 . S
H3107 C3116 0.929 . S
C3108 H3102 0.930 . S
C3108 C3109 1.367 . S
C3108 C3116 1.378 . S
C3109 C3108 1.367 . S
C3109 C3117 1.433 . S
C3110 H3106 0.929 . S
C3110 C3112 1.378 . S
C3110 C3114 1.350 . S
C3111 C3114 1.463 . S
C3111 C3116 1.350 . S
C3111 N3119 1.427 . S
C3112 H3103 0.930 . S
C3112 C3110 1.378 . S
C3112 C3113 1.367 . S
C3113 C3112 1.367 . S
C3113 C3115 1.433 . S
C3114 C3110 1.350 . S
C3114 C3111 1.463 . S
C3114 N3118 1.427 . S
C3115 H3105 0.929 . S
C3115 C3113 1.433 . S
C3115 N3118 1.384 . S
C3116 H3107 0.929 . S
C3116 C3108 1.378 . S
C3116 C3111 1.350 . S
C3117 H3104 0.929 . S
C3117 C3109 1.433 . S
C3117 N3119 1.384 . S
N3118 C3114 1.427 . S
N3118 C3115 1.384 . S
N3119 C3111 1.427 . S
N3119 C3117 1.384 . S
H3120 C3126 0.930 . S
H3121 C3130 0.930 . S
H3122 C3135 0.929 . S
H3123 C3133 0.929 . S
H3124 C3128 0.929 . S
H3125 C3134 0.929 . S
C3126 H3120 0.930 . S
C3126 C3127 1.367 . S
C3126 C3134 1.378 . S
C3127 C3126 1.367 . S
C3127 C3135 1.433 . S
C3128 H3124 0.929 . S
C3128 C3130 1.378 . S
C3128 C3132 1.350 . S
C3129 C3132 1.463 . S
C3129 C3134 1.350 . S
C3129 N3137 1.427 . S
C3130 H3121 0.930 . S
C3130 C3128 1.378 . S
C3130 C3131 1.367 . S
C3131 C3130 1.367 . S
C3131 C3133 1.433 . S
C3132 C3128 1.350 . S
C3132 C3129 1.463 . S
C3132 N3136 1.427 . S
C3133 H3123 0.929 . S
C3133 C3131 1.433 . S
C3133 N3136 1.384 . S
C3134 H3125 0.929 . S
C3134 C3126 1.378 . S
C3134 C3129 1.350 . S
C3135 H3122 0.929 . S
C3135 C3127 1.433 . S
C3135 N3137 1.384 . S
N3136 C3132 1.427 . S
N3136 C3133 1.384 . S
N3137 C3129 1.427 . S
N3137 C3135 1.384 . S
H3138 C3144 0.930 . S
H3139 C3148 0.930 . S
H3140 C3153 0.929 . S
H3141 C3151 0.929 . S
H3142 C3146 0.929 . S
H3143 C3152 0.929 . S
C3144 H3138 0.930 . S
C3144 C3145 1.367 . S
C3144 C3152 1.378 . S
C3145 C3144 1.367 . S
C3145 C3153 1.433 . S
C3146 H3142 0.929 . S
C3146 C3148 1.378 . S
C3146 C3150 1.350 . S
C3147 C3150 1.463 . S
C3147 C3152 1.350 . S
C3147 N3155 1.427 . S
C3148 H3139 0.930 . S
C3148 C3146 1.378 . S
C3148 C3149 1.367 . S
C3149 C3148 1.367 . S
C3149 C3151 1.433 . S
C3150 C3146 1.350 . S
C3150 C3147 1.463 . S
C3150 N3154 1.427 . S
C3151 H3141 0.929 . S
C3151 C3149 1.433 . S
C3151 N3154 1.384 . S
C3152 H3143 0.929 . S
C3152 C3144 1.378 . S
C3152 C3147 1.350 . S
C3153 H3140 0.929 . S
C3153 C3145 1.433 . S
C3153 N3155 1.384 . S
N3154 C3150 1.427 . S
N3154 C3151 1.384 . S
N3155 C3147 1.427 . S
N3155 C3153 1.384 . S
H3156 C3162 0.930 . S
H3157 C3166 0.930 . S
H3158 C3171 0.929 . S
H3159 C3169 0.929 . S
H3160 C3164 0.929 . S
H3161 C3170 0.929 . S
C3162 H3156 0.930 . S
C3162 C3163 1.367 . S
C3162 C3170 1.378 . S
C3163 C3162 1.367 . S
C3163 C3171 1.433 . S
C3164 H3160 0.929 . S
C3164 C3166 1.378 . S
C3164 C3168 1.350 . S
C3165 C3168 1.463 . S
C3165 C3170 1.350 . S
C3165 N3173 1.427 . S
C3166 H3157 0.930 . S
C3166 C3164 1.378 . S
C3166 C3167 1.367 . S
C3167 C3166 1.367 . S
C3167 C3169 1.433 . S
C3168 C3164 1.350 . S
C3168 C3165 1.463 . S
C3168 N3172 1.427 . S
C3169 H3159 0.929 . S
C3169 C3167 1.433 . S
C3169 N3172 1.384 . S
C3170 H3161 0.929 . S
C3170 C3162 1.378 . S
C3170 C3165 1.350 . S
C3171 H3158 0.929 . S
C3171 C3163 1.433 . S
C3171 N3173 1.384 . S
N3172 C3168 1.427 . S
N3172 C3169 1.384 . S
N3173 C3165 1.427 . S
N3173 C3171 1.384 . S
H3174 C3180 0.930 . S
H3175 C3184 0.930 . S
H3176 C3189 0.929 . S
H3177 C3187 0.929 . S
H3178 C3182 0.929 . S
H3179 C3188 0.929 . S
C3180 H3174 0.930 . S
C3180 C3181 1.367 . S
C3180 C3188 1.378 . S
C3181 C3180 1.367 . S
C3181 C3189 1.433 . S
C3182 H3178 0.929 . S
C3182 C3184 1.378 . S
C3182 C3186 1.350 . S
C3183 C3186 1.463 . S
C3183 C3188 1.350 . S
C3183 N3191 1.427 . S
C3184 H3175 0.930 . S
C3184 C3182 1.378 . S
C3184 C3185 1.367 . S
C3185 C3184 1.367 . S
C3185 C3187 1.433 . S
C3186 C3182 1.350 . S
C3186 C3183 1.463 . S
C3186 N3190 1.427 . S
C3187 H3177 0.929 . S
C3187 C3185 1.433 . S
C3187 N3190 1.384 . S
C3188 H3179 0.929 . S
C3188 C3180 1.378 . S
C3188 C3183 1.350 . S
C3189 H3176 0.929 . S
C3189 C3181 1.433 . S
C3189 N3191 1.384 . S
N3190 C3186 1.427 . S
N3190 C3187 1.384 . S
N3191 C3183 1.427 . S
N3191 C3189 1.384 . S
H3192 C3198 0.930 . S
H3193 C3202 0.930 . S
H3194 C3207 0.929 . S
H3195 C3205 0.929 . S
H3196 C3200 0.929 . S
H3197 C3206 0.929 . S
C3198 H3192 0.930 . S
C3198 C3199 1.367 . S
C3198 C3206 1.378 . S
C3199 C3198 1.367 . S
C3199 C3207 1.433 . S
C3200 H3196 0.929 . S
C3200 C3202 1.378 . S
C3200 C3204 1.350 . S
C3201 C3204 1.463 . S
C3201 C3206 1.350 . S
C3201 N3209 1.427 . S
C3202 H3193 0.930 . S
C3202 C3200 1.378 . S
C3202 C3203 1.367 . S
C3203 C3202 1.367 . S
C3203 C3205 1.433 . S
C3204 C3200 1.350 . S
C3204 C3201 1.463 . S
C3204 N3208 1.427 . S
C3205 H3195 0.929 . S
C3205 C3203 1.433 . S
C3205 N3208 1.384 . S
C3206 H3197 0.929 . S
C3206 C3198 1.378 . S
C3206 C3201 1.350 . S
C3207 H3194 0.929 . S
C3207 C3199 1.433 . S
C3207 N3209 1.384 . S
N3208 C3204 1.427 . S
N3208 C3205 1.384 . S
N3209 C3201 1.427 . S
N3209 C3207 1.384 . S
H3210 C3216 0.930 . S
H3211 C3220 0.930 . S
H3212 C3225 0.929 . S
H3213 C3223 0.929 . S
H3214 C3218 0.929 . S
H3215 C3224 0.929 . S
C3216 H3210 0.930 . S
C3216 C3217 1.367 . S
C3216 C3224 1.378 . S
C3217 C3216 1.367 . S
C3217 C3225 1.433 . S
C3218 H3214 0.929 . S
C3218 C3220 1.378 . S
C3218 C3222 1.350 . S
C3219 C3222 1.463 . S
C3219 C3224 1.350 . S
C3219 N3227 1.427 . S
C3220 H3211 0.930 . S
C3220 C3218 1.378 . S
C3220 C3221 1.367 . S
C3221 C3220 1.367 . S
C3221 C3223 1.433 . S
C3222 C3218 1.350 . S
C3222 C3219 1.463 . S
C3222 N3226 1.427 . S
C3223 H3213 0.929 . S
C3223 C3221 1.433 . S
C3223 N3226 1.384 . S
C3224 H3215 0.929 . S
C3224 C3216 1.378 . S
C3224 C3219 1.350 . S
C3225 H3212 0.929 . S
C3225 C3217 1.433 . S
C3225 N3227 1.384 . S
N3226 C3222 1.427 . S
N3226 C3223 1.384 . S
N3227 C3219 1.427 . S
N3227 C3225 1.384 . S
H3228 C3234 0.930 . S
H3229 C3238 0.930 . S
H3230 C3243 0.929 . S
H3231 C3241 0.929 . S
H3232 C3236 0.929 . S
H3233 C3242 0.929 . S
C3234 H3228 0.930 . S
C3234 C3235 1.367 . S
C3234 C3242 1.378 . S
C3235 C3234 1.367 . S
C3235 C3243 1.433 . S
C3236 H3232 0.929 . S
C3236 C3238 1.378 . S
C3236 C3240 1.350 . S
C3237 C3240 1.463 . S
C3237 C3242 1.350 . S
C3237 N3245 1.427 . S
C3238 H3229 0.930 . S
C3238 C3236 1.378 . S
C3238 C3239 1.367 . S
C3239 C3238 1.367 . S
C3239 C3241 1.433 . S
C3240 C3236 1.350 . S
C3240 C3237 1.463 . S
C3240 N3244 1.427 . S
C3241 H3231 0.929 . S
C3241 C3239 1.433 . S
C3241 N3244 1.384 . S
C3242 H3233 0.929 . S
C3242 C3234 1.378 . S
C3242 C3237 1.350 . S
C3243 H3230 0.929 . S
C3243 C3235 1.433 . S
C3243 N3245 1.384 . S
N3244 C3240 1.427 . S
N3244 C3241 1.384 . S
N3245 C3237 1.427 . S
N3245 C3243 1.384 . S
H3246 C3252 0.930 . S
H3247 C3256 0.930 . S
H3248 C3261 0.929 . S
H3249 C3259 0.929 . S
H3250 C3254 0.929 . S
H3251 C3260 0.929 . S
C3252 H3246 0.930 . S
C3252 C3253 1.367 . S
C3252 C3260 1.378 . S
C3253 C3252 1.367 . S
C3253 C3261 1.433 . S
C3254 H3250 0.929 . S
C3254 C3256 1.378 . S
C3254 C3258 1.350 . S
C3255 C3258 1.463 . S
C3255 C3260 1.350 . S
C3255 N3263 1.427 . S
C3256 H3247 0.930 . S
C3256 C3254 1.378 . S
C3256 C3257 1.367 . S
C3257 C3256 1.367 . S
C3257 C3259 1.433 . S
C3258 C3254 1.350 . S
C3258 C3255 1.463 . S
C3258 N3262 1.427 . S
C3259 H3249 0.929 . S
C3259 C3257 1.433 . S
C3259 N3262 1.384 . S
C3260 H3251 0.929 . S
C3260 C3252 1.378 . S
C3260 C3255 1.350 . S
C3261 H3248 0.929 . S
C3261 C3253 1.433 . S
C3261 N3263 1.384 . S
N3262 C3258 1.427 . S
N3262 C3259 1.384 . S
N3263 C3255 1.427 . S
N3263 C3261 1.384 . S
H3264 C3270 0.930 . S
H3265 C3274 0.930 . S
H3266 C3279 0.929 . S
H3267 C3277 0.929 . S
H3268 C3272 0.929 . S
H3269 C3278 0.929 . S
C3270 H3264 0.930 . S
C3270 C3271 1.367 . S
C3270 C3278 1.378 . S
C3271 C3270 1.367 . S
C3271 C3279 1.433 . S
C3272 H3268 0.929 . S
C3272 C3274 1.378 . S
C3272 C3276 1.350 . S
C3273 C3276 1.463 . S
C3273 C3278 1.350 . S
C3273 N3281 1.427 . S
C3274 H3265 0.930 . S
C3274 C3272 1.378 . S
C3274 C3275 1.367 . S
C3275 C3274 1.367 . S
C3275 C3277 1.433 . S
C3276 C3272 1.350 . S
C3276 C3273 1.463 . S
C3276 N3280 1.427 . S
C3277 H3267 0.929 . S
C3277 C3275 1.433 . S
C3277 N3280 1.384 . S
C3278 H3269 0.929 . S
C3278 C3270 1.378 . S
C3278 C3273 1.350 . S
C3279 H3266 0.929 . S
C3279 C3271 1.433 . S
C3279 N3281 1.384 . S
N3280 C3276 1.427 . S
N3280 C3277 1.384 . S
N3281 C3273 1.427 . S
N3281 C3279 1.384 . S
H3282 C3288 0.930 . S
H3283 C3292 0.930 . S
H3284 C3297 0.929 . S
H3285 C3295 0.929 . S
H3286 C3290 0.929 . S
H3287 C3296 0.929 . S
C3288 H3282 0.930 . S
C3288 C3289 1.367 . S
C3288 C3296 1.378 . S
C3289 C3288 1.367 . S
C3289 C3297 1.433 . S
C3290 H3286 0.929 . S
C3290 C3292 1.378 . S
C3290 C3294 1.350 . S
C3291 C3294 1.463 . S
C3291 C3296 1.350 . S
C3291 N3299 1.427 . S
C3292 H3283 0.930 . S
C3292 C3290 1.378 . S
C3292 C3293 1.367 . S
C3293 C3292 1.367 . S
C3293 C3295 1.433 . S
C3294 C3290 1.350 . S
C3294 C3291 1.463 . S
C3294 N3298 1.427 . S
C3295 H3285 0.929 . S
C3295 C3293 1.433 . S
C3295 N3298 1.384 . S
C3296 H3287 0.929 . S
C3296 C3288 1.378 . S
C3296 C3291 1.350 . S
C3297 H3284 0.929 . S
C3297 C3289 1.433 . S
C3297 N3299 1.384 . S
N3298 C3294 1.427 . S
N3298 C3295 1.384 . S
N3299 C3291 1.427 . S
N3299 C3297 1.384 . S
H3300 C3306 0.930 . S
H3301 C3310 0.930 . S
H3302 C3315 0.929 . S
H3303 C3313 0.929 . S
H3304 C3308 0.929 . S
H3305 C3314 0.929 . S
C3306 H3300 0.930 . S
C3306 C3307 1.367 . S
C3306 C3314 1.378 . S
C3307 C3306 1.367 . S
C3307 C3315 1.433 . S
C3308 H3304 0.929 . S
C3308 C3310 1.378 . S
C3308 C3312 1.350 . S
C3309 C3312 1.463 . S
C3309 C3314 1.350 . S
C3309 N3317 1.427 . S
C3310 H3301 0.930 . S
C3310 C3308 1.378 . S
C3310 C3311 1.367 . S
C3311 C3310 1.367 . S
C3311 C3313 1.433 . S
C3312 C3308 1.350 . S
C3312 C3309 1.463 . S
C3312 N3316 1.427 . S
C3313 H3303 0.929 . S
C3313 C3311 1.433 . S
C3313 N3316 1.384 . S
C3314 H3305 0.929 . S
C3314 C3306 1.378 . S
C3314 C3309 1.350 . S
C3315 H3302 0.929 . S
C3315 C3307 1.433 . S
C3315 N3317 1.384 . S
N3316 C3312 1.427 . S
N3316 C3313 1.384 . S
N3317 C3309 1.427 . S
N3317 C3315 1.384 . S
H3318 C3324 0.930 . S
H3319 C3328 0.930 . S
H3320 C3333 0.929 . S
H3321 C3331 0.929 . S
H3322 C3326 0.929 . S
H3323 C3332 0.929 . S
C3324 H3318 0.930 . S
C3324 C3325 1.367 . S
C3324 C3332 1.378 . S
C3325 C3324 1.367 . S
C3325 C3333 1.433 . S
C3326 H3322 0.929 . S
C3326 C3328 1.378 . S
C3326 C3330 1.350 . S
C3327 C3330 1.463 . S
C3327 C3332 1.350 . S
C3327 N3335 1.427 . S
C3328 H3319 0.930 . S
C3328 C3326 1.378 . S
C3328 C3329 1.367 . S
C3329 C3328 1.367 . S
C3329 C3331 1.433 . S
C3330 C3326 1.350 . S
C3330 C3327 1.463 . S
C3330 N3334 1.427 . S
C3331 H3321 0.929 . S
C3331 C3329 1.433 . S
C3331 N3334 1.384 . S
C3332 H3323 0.929 . S
C3332 C3324 1.378 . S
C3332 C3327 1.350 . S
C3333 H3320 0.929 . S
C3333 C3325 1.433 . S
C3333 N3335 1.384 . S
N3334 C3330 1.427 . S
N3334 C3331 1.384 . S
N3335 C3327 1.427 . S
N3335 C3333 1.384 . S
H3336 C3342 0.930 . S
H3337 C3346 0.930 . S
H3338 C3351 0.929 . S
H3339 C3349 0.929 . S
H3340 C3344 0.929 . S
H3341 C3350 0.929 . S
C3342 H3336 0.930 . S
C3342 C3343 1.367 . S
C3342 C3350 1.378 . S
C3343 C3342 1.367 . S
C3343 C3351 1.433 . S
C3344 H3340 0.929 . S
C3344 C3346 1.378 . S
C3344 C3348 1.350 . S
C3345 C3348 1.463 . S
C3345 C3350 1.350 . S
C3345 N3353 1.427 . S
C3346 H3337 0.930 . S
C3346 C3344 1.378 . S
C3346 C3347 1.367 . S
C3347 C3346 1.367 . S
C3347 C3349 1.433 . S
C3348 C3344 1.350 . S
C3348 C3345 1.463 . S
C3348 N3352 1.427 . S
C3349 H3339 0.929 . S
C3349 C3347 1.433 . S
C3349 N3352 1.384 . S
C3350 H3341 0.929 . S
C3350 C3342 1.378 . S
C3350 C3345 1.350 . S
C3351 H3338 0.929 . S
C3351 C3343 1.433 . S
C3351 N3353 1.384 . S
N3352 C3348 1.427 . S
N3352 C3349 1.384 . S
N3353 C3345 1.427 . S
N3353 C3351 1.384 . S
H3354 C3360 0.930 . S
H3355 C3364 0.930 . S
H3356 C3369 0.929 . S
H3357 C3367 0.929 . S
H3358 C3362 0.929 . S
H3359 C3368 0.929 . S
C3360 H3354 0.930 . S
C3360 C3361 1.367 . S
C3360 C3368 1.378 . S
C3361 C3360 1.367 . S
C3361 C3369 1.433 . S
C3362 H3358 0.929 . S
C3362 C3364 1.378 . S
C3362 C3366 1.350 . S
C3363 C3366 1.463 . S
C3363 C3368 1.350 . S
C3363 N3371 1.427 . S
C3364 H3355 0.930 . S
C3364 C3362 1.378 . S
C3364 C3365 1.367 . S
C3365 C3364 1.367 . S
C3365 C3367 1.433 . S
C3366 C3362 1.350 . S
C3366 C3363 1.463 . S
C3366 N3370 1.427 . S
C3367 H3357 0.929 . S
C3367 C3365 1.433 . S
C3367 N3370 1.384 . S
C3368 H3359 0.929 . S
C3368 C3360 1.378 . S
C3368 C3363 1.350 . S
C3369 H3356 0.929 . S
C3369 C3361 1.433 . S
C3369 N3371 1.384 . S
N3370 C3366 1.427 . S
N3370 C3367 1.384 . S
N3371 C3363 1.427 . S
N3371 C3369 1.384 . S
H3372 C3378 0.930 . S
H3373 C3382 0.930 . S
H3374 C3387 0.929 . S
H3375 C3385 0.929 . S
H3376 C3380 0.929 . S
H3377 C3386 0.929 . S
C3378 H3372 0.930 . S
C3378 C3379 1.367 . S
C3378 C3386 1.378 . S
C3379 C3378 1.367 . S
C3379 C3387 1.433 . S
C3380 H3376 0.929 . S
C3380 C3382 1.378 . S
C3380 C3384 1.350 . S
C3381 C3384 1.463 . S
C3381 C3386 1.350 . S
C3381 N3389 1.427 . S
C3382 H3373 0.930 . S
C3382 C3380 1.378 . S
C3382 C3383 1.367 . S
C3383 C3382 1.367 . S
C3383 C3385 1.433 . S
C3384 C3380 1.350 . S
C3384 C3381 1.463 . S
C3384 N3388 1.427 . S
C3385 H3375 0.929 . S
C3385 C3383 1.433 . S
C3385 N3388 1.384 . S
C3386 H3377 0.929 . S
C3386 C3378 1.378 . S
C3386 C3381 1.350 . S
C3387 H3374 0.929 . S
C3387 C3379 1.433 . S
C3387 N3389 1.384 . S
N3388 C3384 1.427 . S
N3388 C3385 1.384 . S
N3389 C3381 1.427 . S
N3389 C3387 1.384 . S
H3390 C3396 0.930 . S
H3391 C3400 0.930 . S
H3392 C3405 0.929 . S
H3393 C3403 0.929 . S
H3394 C3398 0.929 . S
H3395 C3404 0.929 . S
C3396 H3390 0.930 . S
C3396 C3397 1.367 . S
C3396 C3404 1.378 . S
C3397 C3396 1.367 . S
C3397 C3405 1.433 . S
C3398 H3394 0.929 . S
C3398 C3400 1.378 . S
C3398 C3402 1.350 . S
C3399 C3402 1.463 . S
C3399 C3404 1.350 . S
C3399 N3407 1.427 . S
C3400 H3391 0.930 . S
C3400 C3398 1.378 . S
C3400 C3401 1.367 . S
C3401 C3400 1.367 . S
C3401 C3403 1.433 . S
C3402 C3398 1.350 . S
C3402 C3399 1.463 . S
C3402 N3406 1.427 . S
C3403 H3393 0.929 . S
C3403 C3401 1.433 . S
C3403 N3406 1.384 . S
C3404 H3395 0.929 . S
C3404 C3396 1.378 . S
C3404 C3399 1.350 . S
C3405 H3392 0.929 . S
C3405 C3397 1.433 . S
C3405 N3407 1.384 . S
N3406 C3402 1.427 . S
N3406 C3403 1.384 . S
N3407 C3399 1.427 . S
N3407 C3405 1.384 . S
H3408 C3414 0.930 . S
H3409 C3418 0.930 . S
H3410 C3423 0.929 . S
H3411 C3421 0.929 . S
H3412 C3416 0.929 . S
H3413 C3422 0.929 . S
C3414 H3408 0.930 . S
C3414 C3415 1.367 . S
C3414 C3422 1.378 . S
C3415 C3414 1.367 . S
C3415 C3423 1.433 . S
C3416 H3412 0.929 . S
C3416 C3418 1.378 . S
C3416 C3420 1.350 . S
C3417 C3420 1.463 . S
C3417 C3422 1.350 . S
C3417 N3425 1.427 . S
C3418 H3409 0.930 . S
C3418 C3416 1.378 . S
C3418 C3419 1.367 . S
C3419 C3418 1.367 . S
C3419 C3421 1.433 . S
C3420 C3416 1.350 . S
C3420 C3417 1.463 . S
C3420 N3424 1.427 . S
C3421 H3411 0.929 . S
C3421 C3419 1.433 . S
C3421 N3424 1.384 . S
C3422 H3413 0.929 . S
C3422 C3414 1.378 . S
C3422 C3417 1.350 . S
C3423 H3410 0.929 . S
C3423 C3415 1.433 . S
C3423 N3425 1.384 . S
N3424 C3420 1.427 . S
N3424 C3421 1.384 . S
N3425 C3417 1.427 . S
N3425 C3423 1.384 . S
H3426 C3432 0.930 . S
H3427 C3436 0.930 . S
H3428 C3441 0.929 . S
H3429 C3439 0.929 . S
H3430 C3434 0.929 . S
H3431 C3440 0.929 . S
C3432 H3426 0.930 . S
C3432 C3433 1.367 . S
C3432 C3440 1.378 . S
C3433 C3432 1.367 . S
C3433 C3441 1.433 . S
C3434 H3430 0.929 . S
C3434 C3436 1.378 . S
C3434 C3438 1.350 . S
C3435 C3438 1.463 . S
C3435 C3440 1.350 . S
C3435 N3443 1.427 . S
C3436 H3427 0.930 . S
C3436 C3434 1.378 . S
C3436 C3437 1.367 . S
C3437 C3436 1.367 . S
C3437 C3439 1.433 . S
C3438 C3434 1.350 . S
C3438 C3435 1.463 . S
C3438 N3442 1.427 . S
C3439 H3429 0.929 . S
C3439 C3437 1.433 . S
C3439 N3442 1.384 . S
C3440 H3431 0.929 . S
C3440 C3432 1.378 . S
C3440 C3435 1.350 . S
C3441 H3428 0.929 . S
C3441 C3433 1.433 . S
C3441 N3443 1.384 . S
N3442 C3438 1.427 . S
N3442 C3439 1.384 . S
N3443 C3435 1.427 . S
N3443 C3441 1.384 . S
H3444 C3450 0.930 . S
H3445 C3454 0.930 . S
H3446 C3459 0.929 . S
H3447 C3457 0.929 . S
H3448 C3452 0.929 . S
H3449 C3458 0.929 . S
C3450 H3444 0.930 . S
C3450 C3451 1.367 . S
C3450 C3458 1.378 . S
C3451 C3450 1.367 . S
C3451 C3459 1.433 . S
C3452 H3448 0.929 . S
C3452 C3454 1.378 . S
C3452 C3456 1.350 . S
C3453 C3456 1.463 . S
C3453 C3458 1.350 . S
C3453 N3461 1.427 . S
C3454 H3445 0.930 . S
C3454 C3452 1.378 . S
C3454 C3455 1.367 . S
C3455 C3454 1.367 . S
C3455 C3457 1.433 . S
C3456 C3452 1.350 . S
C3456 C3453 1.463 . S
C3456 N3460 1.427 . S
C3457 H3447 0.929 . S
C3457 C3455 1.433 . S
C3457 N3460 1.384 . S
C3458 H3449 0.929 . S
C3458 C3450 1.378 . S
C3458 C3453 1.350 . S
C3459 H3446 0.929 . S
C3459 C3451 1.433 . S
C3459 N3461 1.384 . S
N3460 C3456 1.427 . S
N3460 C3457 1.384 . S
N3461 C3453 1.427 . S
N3461 C3459 1.384 . S
H3462 C3468 0.930 . S
H3463 C3472 0.930 . S
H3464 C3477 0.929 . S
H3465 C3475 0.929 . S
H3466 C3470 0.929 . S
H3467 C3476 0.929 . S
C3468 H3462 0.930 . S
C3468 C3469 1.367 . S
C3468 C3476 1.378 . S
C3469 C3468 1.367 . S
C3469 C3477 1.433 . S
C3470 H3466 0.929 . S
C3470 C3472 1.378 . S
C3470 C3474 1.350 . S
C3471 C3474 1.463 . S
C3471 C3476 1.350 . S
C3471 N3479 1.427 . S
C3472 H3463 0.930 . S
C3472 C3470 1.378 . S
C3472 C3473 1.367 . S
C3473 C3472 1.367 . S
C3473 C3475 1.433 . S
C3474 C3470 1.350 . S
C3474 C3471 1.463 . S
C3474 N3478 1.427 . S
C3475 H3465 0.929 . S
C3475 C3473 1.433 . S
C3475 N3478 1.384 . S
C3476 H3467 0.929 . S
C3476 C3468 1.378 . S
C3476 C3471 1.350 . S
C3477 H3464 0.929 . S
C3477 C3469 1.433 . S
C3477 N3479 1.384 . S
N3478 C3474 1.427 . S
N3478 C3475 1.384 . S
N3479 C3471 1.427 . S
N3479 C3477 1.384 . S
H3480 C3486 0.930 . S
H3481 C3490 0.930 . S
H3482 C3495 0.929 . S
H3483 C3493 0.929 . S
H3484 C3488 0.929 . S
H3485 C3494 0.929 . S
C3486 H3480 0.930 . S
C3486 C3487 1.367 . S
C3486 C3494 1.378 . S
C3487 C3486 1.367 . S
C3487 C3495 1.433 . S
C3488 H3484 0.929 . S
C3488 C3490 1.378 . S
C3488 C3492 1.350 . S
C3489 C3492 1.463 . S
C3489 C3494 1.350 . S
C3489 N3497 1.427 . S
C3490 H3481 0.930 . S
C3490 C3488 1.378 . S
C3490 C3491 1.367 . S
C3491 C3490 1.367 . S
C3491 C3493 1.433 . S
C3492 C3488 1.350 . S
C3492 C3489 1.463 . S
C3492 N3496 1.427 . S
C3493 H3483 0.929 . S
C3493 C3491 1.433 . S
C3493 N3496 1.384 . S
C3494 H3485 0.929 . S
C3494 C3486 1.378 . S
C3494 C3489 1.350 . S
C3495 H3482 0.929 . S
C3495 C3487 1.433 . S
C3495 N3497 1.384 . S
N3496 C3492 1.427 . S
N3496 C3493 1.384 . S
N3497 C3489 1.427 . S
N3497 C3495 1.384 . S
H3498 C3504 0.930 . S
H3499 C3508 0.930 . S
H3500 C3513 0.929 . S
H3501 C3511 0.929 . S
H3502 C3506 0.929 . S
H3503 C3512 0.929 . S
C3504 H3498 0.930 . S
C3504 C3505 1.367 . S
C3504 C3512 1.378 . S
C3505 C3504 1.367 . S
C3505 C3513 1.433 . S
C3506 H3502 0.929 . S
C3506 C3508 1.378 . S
C3506 C3510 1.350 . S
C3507 C3510 1.463 . S
C3507 C3512 1.350 . S
C3507 N3515 1.427 . S
C3508 H3499 0.930 . S
C3508 C3506 1.378 . S
C3508 C3509 1.367 . S
C3509 C3508 1.367 . S
C3509 C3511 1.433 . S
C3510 C3506 1.350 . S
C3510 C3507 1.463 . S
C3510 N3514 1.427 . S
C3511 H3501 0.929 . S
C3511 C3509 1.433 . S
C3511 N3514 1.384 . S
C3512 H3503 0.929 . S
C3512 C3504 1.378 . S
C3512 C3507 1.350 . S
C3513 H3500 0.929 . S
C3513 C3505 1.433 . S
C3513 N3515 1.384 . S
N3514 C3510 1.427 . S
N3514 C3511 1.384 . S
N3515 C3507 1.427 . S
N3515 C3513 1.384 . S
H3516 C3522 0.930 . S
H3517 C3526 0.930 . S
H3518 C3531 0.929 . S
H3519 C3529 0.929 . S
H3520 C3524 0.929 . S
H3521 C3530 0.929 . S
C3522 H3516 0.930 . S
C3522 C3523 1.367 . S
C3522 C3530 1.378 . S
C3523 C3522 1.367 . S
C3523 C3531 1.433 . S
C3524 H3520 0.929 . S
C3524 C3526 1.378 . S
C3524 C3528 1.350 . S
C3525 C3528 1.463 . S
C3525 C3530 1.350 . S
C3525 N3533 1.427 . S
C3526 H3517 0.930 . S
C3526 C3524 1.378 . S
C3526 C3527 1.367 . S
C3527 C3526 1.367 . S
C3527 C3529 1.433 . S
C3528 C3524 1.350 . S
C3528 C3525 1.463 . S
C3528 N3532 1.427 . S
C3529 H3519 0.929 . S
C3529 C3527 1.433 . S
C3529 N3532 1.384 . S
C3530 H3521 0.929 . S
C3530 C3522 1.378 . S
C3530 C3525 1.350 . S
C3531 H3518 0.929 . S
C3531 C3523 1.433 . S
C3531 N3533 1.384 . S
N3532 C3528 1.427 . S
N3532 C3529 1.384 . S
N3533 C3525 1.427 . S
N3533 C3531 1.384 . S
H3534 C3540 0.930 . S
H3535 C3544 0.930 . S
H3536 C3549 0.929 . S
H3537 C3547 0.929 . S
H3538 C3542 0.929 . S
H3539 C3548 0.929 . S
C3540 H3534 0.930 . S
C3540 C3541 1.367 . S
C3540 C3548 1.378 . S
C3541 C3540 1.367 . S
C3541 C3549 1.433 . S
C3542 H3538 0.929 . S
C3542 C3544 1.378 . S
C3542 C3546 1.350 . S
C3543 C3546 1.463 . S
C3543 C3548 1.350 . S
C3543 N3551 1.427 . S
C3544 H3535 0.930 . S
C3544 C3542 1.378 . S
C3544 C3545 1.367 . S
C3545 C3544 1.367 . S
C3545 C3547 1.433 . S
C3546 C3542 1.350 . S
C3546 C3543 1.463 . S
C3546 N3550 1.427 . S
C3547 H3537 0.929 . S
C3547 C3545 1.433 . S
C3547 N3550 1.384 . S
C3548 H3539 0.929 . S
C3548 C3540 1.378 . S
C3548 C3543 1.350 . S
C3549 H3536 0.929 . S
C3549 C3541 1.433 . S
C3549 N3551 1.384 . S
N3550 C3546 1.427 . S
N3550 C3547 1.384 . S
N3551 C3543 1.427 . S
N3551 C3549 1.384 . S
C967 C491 1.494 . S
C971 C533 1.577 . S
C985 C271 1.525 . S
C989 C542 1.608 . S
C1007 C551 1.523 . S
C1003 C513 1.430 . S
C1021 C293 1.569 . S
C1025 C560 1.653 . S
C1039 C524 1.675 . S
C1043 C569 1.682 . S
C1057 C260 1.478 . S
C1061 C578 1.572 . S
C1075 C502 1.516 . S
C1079 C587 1.603 . S
C1093 C282 1.448 . S
C1097 C596 1.521 . S
C1111 C183 1.534 . S
C1115 C605 1.616 . S
C1129 C447 1.666 . S
C1133 C614 1.691 . S
C1147 C205 1.556 . S
C1151 C623 1.568 . S
C1165 C436 1.479 . S
C1169 C632 1.541 . S
C1183 C249 1.469 . S
C1187 C641 1.491 . S
C1205 C650 1.533 . S
C1201 C458 1.514 . S
C1223 C659 1.658 . S
C1219 C227 1.634 . S
C1237 C315 1.574 . S
C1241 C668 1.601 . S
C1259 C677 1.549 . S
C1255 C216 1.516 . S
C1277 C686 1.647 . S
C1273 C469 1.631 . S
C1291 C238 1.480 . S
C1295 C695 1.500 . S
C1309 C326 1.547 . S
C1313 C704 1.548 . S
C1331 C713 1.540 . S
C1327 C304 1.453 . S
C1345 C392 1.397 . S
C1349 C722 1.423 . S
C1367 C731 1.584 . S
C1363 C106 1.552 . S
C1385 C740 1.538 . S
C1381 C414 1.508 . S
C1403 C749 1.630 . S
C1399 C128 1.603 . S
C1421 C758 1.638 . S
C1417 C425 1.618 . S
C1435 C95 1.363 . S
C1439 C767 1.384 . S
C1457 C776 1.544 . S
C1453 C403 1.504 . S
C1471 C117 1.527 . S
C1475 C785 1.555 . S
C1493 C794 1.492 . S
C1489 C18 1.438 . S
C1511 C803 1.625 . S
C1507 C348 1.599 . S
C1525 C40 1.550 . S
C1529 C812 1.569 . S
C1547 C821 1.597 . S
C1543 C337 1.583 . S
C1565 C830 1.589 . S
C1561 C84 1.563 . S
C1579 C359 1.530 . S
C1583 C839 1.554 . S
C1601 C848 1.660 . S
C1597 C62 1.640 . S
C1619 C857 1.518 . S
C1615 C150 1.494 . S
C1633 C51 1.568 . S
C1637 C866 1.586 . S
C1655 C875 1.659 . S
C1651 C370 1.637 . S
C1669 C73 1.477 . S
C1673 C884 1.501 . S
C1691 C893 1.514 . S
C1687 C161 1.493 . S
C1705 C139 1.434 . S
C1709 C902 1.478 . S
C1723 C194 1.646 . S
C1727 C911 1.680 . S
C1745 C920 1.531 . S
C1741 C172 1.478 . S
C1759 C480 1.466 . S
C1763 C929 1.491 . S
C1777 C29 1.591 . S
C1781 C938 1.618 . S
C1799 C947 1.500 . S
C1795 C7 1.479 . S
C1817 C956 1.534 . S
C1813 C381 1.508 . S
C1831 C368 1.489 . S
C1835 C532 1.618 . S
C1849 C151 1.433 . S
C1853 C544 1.436 . S
C1867 C379 1.329 . S
C1871 C550 1.491 . S
C1889 C562 1.560 . S
C1885 C360 1.555 . S
C1903 C159 1.650 . S
C1907 C568 1.770 . S
C1921 C338 1.569 . S
C1925 C580 1.571 . S
C1943 C586 1.541 . S
C1939 C140 1.483 . S
C1957 C346 1.243 . S
C1961 C598 1.466 . S
C1975 C349 1.427 . S
C1979 C604 1.455 . S
C1997 C613 1.612 . S
C1993 C162 1.609 . S
C2011 C335 1.539 . S
C2015 C622 1.639 . S
C2033 C634 1.483 . S
C2029 C137 1.189 . S
C2047 C148 1.408 . S
C2051 C640 1.532 . S
C2065 C382 1.452 . S
C2069 C652 1.454 . S
C2087 C661 1.633 . S
C2083 C357 1.482 . S
C2105 C667 1.604 . S
C2101 C371 1.615 . S
C2119 C129 1.495 . S
C2123 C631 1.502 . S
C2137 C393 1.490 . S
C2141 C676 1.518 . S
C2155 C401 1.221 . S
C2159 C685 1.480 . S
C2177 C697 1.511 . S
C2173 C412 1.368 . S
C2195 C643 1.466 . S
C2191 C126 1.287 . S
C2209 C107 1.607 . S
C2213 C616 1.637 . S
C2227 C415 1.444 . S
C2231 C706 1.446 . S
C2249 C715 1.376 . S
C2245 C390 1.127 . S
C2267 C721 1.416 . S
C2263 C467 1.281 . S
C2281 C316 1.617 . S
C2285 C733 1.612 . S
C2303 C742 1.423 . S
C2299 C478 1.224 . S
C2321 C751 1.568 . S
C2317 C459 1.551 . S
C2335 C324 1.326 . S
C2339 C757 1.503 . S
C2353 C434 1.197 . S
C2357 C769 1.454 . S
C2371 C305 1.453 . S
C2375 C775 1.498 . S
C2393 C784 1.466 . S
C2389 C448 1.452 . S
C2411 C796 1.489 . S
C2407 C445 1.336 . S
C2425 C327 1.714 . S
C2429 C805 1.694 . S
C2447 C811 1.456 . S
C2443 C437 1.436 . S
C2461 C302 1.206 . S
C2465 C823 1.548 . S
C2483 C832 1.518 . S
C2479 C313 1.320 . S
C2497 C481 1.532 . S
C2501 C841 1.543 . S
C2519 C847 1.495 . S
C2515 C456 1.305 . S
C2533 C470 1.496 . S
C2537 C856 1.498 . S
C2551 C294 1.525 . S
C2555 C820 1.566 . S
C2569 C492 1.516 . S
C2573 C865 1.570 . S
C2587 C500 1.242 . S
C2591 C877 1.606 . S
C2609 C886 1.513 . S
C2605 C514 1.464 . S
C2623 C291 1.273 . S
C2627 C829 1.630 . S
C2641 C272 1.545 . S
C2645 C802 1.576 . S
C2663 C895 1.531 . S
C2659 C511 1.163 . S
C2677 C489 1.282 . S
C2681 C901 1.711 . S
C2699 C577 1.609 . S
C2695 C60 1.489 . S
C2717 C589 1.428 . S
C2713 C74 1.417 . S
C2735 C595 1.563 . S
C2731 C82 1.423 . S
C2753 C571 1.591 . S
C2749 C52 1.603 . S
C2771 C559 1.626 . S
C2767 C38 1.515 . S
C2785 C8 1.534 . S
C2789 C535 1.541 . S
C2803 C19 1.494 . S
C2807 C541 1.556 . S
C2821 C27 1.194 . S
C2825 C553 1.415 . S
C2839 C30 1.378 . S
C2843 C712 1.408 . S
C2857 C41 1.582 . S
C2861 C910 1.578 . S
C2875 C5 1.412 . S
C2879 C703 1.539 . S
C2893 C16 1.200 . S
C2897 C922 1.500 . S
C2911 C71 1.365 . S
C2915 C928 1.512 . S
C2933 C679 1.502 . S
C2929 C85 1.507 . S
C2947 C49 1.448 . S
C2951 C688 1.594 . S
C2965 C63 1.571 . S
C2969 C694 1.562 . S
C2987 C919 1.491 . S
C2983 C426 1.486 . S
C3001 C96 1.506 . S
C3005 C649 1.542 . S
C3019 C104 1.306 . S
C3023 C658 1.537 . S
C3037 C115 1.467 . S
C3041 C670 1.609 . S
C3059 C931 1.456 . S
C3055 C423 1.278 . S
C3077 C913 1.587 . S
C3073 C404 1.560 . S
C3095 C625 1.528 . S
C3091 C118 1.522 . S
C3109 C93 1.229 . S
C3113 C607 1.455 . S
C3127 C225 1.219 . S
C3131 C766 1.391 . S
C3145 C239 1.592 . S
C3149 C778 1.586 . S
C3163 C247 1.223 . S
C3167 C787 1.443 . S
C3181 C217 1.556 . S
C3185 C760 1.572 . S
C3203 C748 1.486 . S
C3199 C203 1.334 . S
C3221 C724 1.449 . S
C3217 C170 1.158 . S
C3239 C730 1.508 . S
C3235 C184 1.483 . S
C3253 C195 1.438 . S
C3257 C739 1.454 . S
C3275 C904 1.487 . S
C3271 C192 1.306 . S
C3289 C206 1.715 . S
C3293 C940 1.701 . S
C3307 C173 1.413 . S
C3311 C892 1.435 . S
C3329 C949 1.551 . S
C3325 C181 1.232 . S
C3343 C236 1.193 . S
C3347 C958 1.380 . S
C3365 C868 1.581 . S
C3361 C250 1.575 . S
C3379 C214 1.261 . S
C3383 C874 1.486 . S
C3397 C228 1.471 . S
C3401 C883 1.479 . S
C3415 C522 1.427 . S
C3419 C946 1.556 . S
C3437 C838 1.538 . S
C3433 C261 1.479 . S
C3451 C269 1.266 . S
C3455 C850 1.611 . S
C3469 C283 1.455 . S
C3473 C859 1.511 . S
C3487 C525 1.532 . S
C3491 C955 1.542 . S
C3505 C503 1.554 . S
C3509 C937 1.582 . S
C3527 C814 1.537 . S
C3523 C280 1.162 . S
C3545 C793 1.723 . S
C3541 C258 1.315 . S
