# Generated by pormake.
# Topology ctn, (3,4)-cn, num edge types: 1
# Building blocks:
#     Node 0, Type 0, BuildingBlock: KAKCAD_clean_linker_0, # of connection points: 3
#     Node 1, Type 0, BuildingBlock: KAKCAD_clean_linker_0, # of connection points: 3
#     Node 2, Type 0, BuildingBlock: KAKCAD_clean_linker_0, # of connection points: 3
#     Node 3, Type 0, BuildingBlock: KAKCAD_clean_linker_0, # of connection points: 3
#     Node 4, Type 0, BuildingBlock: KAKCAD_clean_linker_0, # of connection points: 3
#     Node 5, Type 0, BuildingBlock: KAKCAD_clean_linker_0, # of connection points: 3
#     Node 6, Type 0, BuildingBlock: KAKCAD_clean_linker_0, # of connection points: 3
#     Node 7, Type 0, BuildingBlock: KAKCAD_clean_linker_0, # of connection points: 3
#     Node 8, Type 0, BuildingBlock: KAKCAD_clean_linker_0, # of connection points: 3
#     Node 9, Type 0, BuildingBlock: KAKCAD_clean_linker_0, # of connection points: 3
#     Node 10, Type 0, BuildingBlock: KAKCAD_clean_linker_0, # of connection points: 3
#     Node 11, Type 0, BuildingBlock: KAKCAD_clean_linker_0, # of connection points: 3
#     Node 12, Type 0, BuildingBlock: KAKCAD_clean_linker_0, # of connection points: 3
#     Node 13, Type 0, BuildingBlock: KAKCAD_clean_linker_0, # of connection points: 3
#     Node 14, Type 0, BuildingBlock: KAKCAD_clean_linker_0, # of connection points: 3
#     Node 15, Type 0, BuildingBlock: KAKCAD_clean_linker_0, # of connection points: 3
#     Node 16, Type 1, BuildingBlock: AZAVOO_clean_sbu_0, # of connection points: 4
#     Node 17, Type 1, BuildingBlock: AZAVOO_clean_sbu_0, # of connection points: 4
#     Node 18, Type 1, BuildingBlock: AZAVOO_clean_sbu_0, # of connection points: 4
#     Node 19, Type 1, BuildingBlock: AZAVOO_clean_sbu_0, # of connection points: 4
#     Node 20, Type 1, BuildingBlock: AZAVOO_clean_sbu_0, # of connection points: 4
#     Node 21, Type 1, BuildingBlock: AZAVOO_clean_sbu_0, # of connection points: 4
#     Node 22, Type 1, BuildingBlock: AZAVOO_clean_sbu_0, # of connection points: 4
#     Node 23, Type 1, BuildingBlock: AZAVOO_clean_sbu_0, # of connection points: 4
#     Node 24, Type 1, BuildingBlock: AZAVOO_clean_sbu_0, # of connection points: 4
#     Node 25, Type 1, BuildingBlock: AZAVOO_clean_sbu_0, # of connection points: 4
#     Node 26, Type 1, BuildingBlock: AZAVOO_clean_sbu_0, # of connection points: 4
#     Node 27, Type 1, BuildingBlock: AZAVOO_clean_sbu_0, # of connection points: 4
#     Edge 28, Type (0, 1), BuildingBlock: XUDNAN_clean_linker_2, # of connection points: 2
#     Edge 29, Type (0, 1), BuildingBlock: XUDNAN_clean_linker_2, # of connection points: 2
#     Edge 30, Type (0, 1), BuildingBlock: XUDNAN_clean_linker_2, # of connection points: 2
#     Edge 31, Type (0, 1), BuildingBlock: XUDNAN_clean_linker_2, # of connection points: 2
#     Edge 32, Type (0, 1), BuildingBlock: XUDNAN_clean_linker_2, # of connection points: 2
#     Edge 33, Type (0, 1), BuildingBlock: XUDNAN_clean_linker_2, # of connection points: 2
#     Edge 34, Type (0, 1), BuildingBlock: XUDNAN_clean_linker_2, # of connection points: 2
#     Edge 35, Type (0, 1), BuildingBlock: XUDNAN_clean_linker_2, # of connection points: 2
#     Edge 36, Type (0, 1), BuildingBlock: XUDNAN_clean_linker_2, # of connection points: 2
#     Edge 37, Type (0, 1), BuildingBlock: XUDNAN_clean_linker_2, # of connection points: 2
#     Edge 38, Type (0, 1), BuildingBlock: XUDNAN_clean_linker_2, # of connection points: 2
#     Edge 39, Type (0, 1), BuildingBlock: XUDNAN_clean_linker_2, # of connection points: 2
#     Edge 40, Type (0, 1), BuildingBlock: XUDNAN_clean_linker_2, # of connection points: 2
#     Edge 41, Type (0, 1), BuildingBlock: XUDNAN_clean_linker_2, # of connection points: 2
#     Edge 42, Type (0, 1), BuildingBlock: XUDNAN_clean_linker_2, # of connection points: 2
#     Edge 43, Type (0, 1), BuildingBlock: XUDNAN_clean_linker_2, # of connection points: 2
#     Edge 44, Type (0, 1), BuildingBlock: XUDNAN_clean_linker_2, # of connection points: 2
#     Edge 45, Type (0, 1), BuildingBlock: XUDNAN_clean_linker_2, # of connection points: 2
#     Edge 46, Type (0, 1), BuildingBlock: XUDNAN_clean_linker_2, # of connection points: 2
#     Edge 47, Type (0, 1), BuildingBlock: XUDNAN_clean_linker_2, # of connection points: 2
#     Edge 48, Type (0, 1), BuildingBlock: XUDNAN_clean_linker_2, # of connection points: 2
#     Edge 49, Type (0, 1), BuildingBlock: XUDNAN_clean_linker_2, # of connection points: 2
#     Edge 50, Type (0, 1), BuildingBlock: XUDNAN_clean_linker_2, # of connection points: 2
#     Edge 51, Type (0, 1), BuildingBlock: XUDNAN_clean_linker_2, # of connection points: 2
#     Edge 52, Type (0, 1), BuildingBlock: XUDNAN_clean_linker_2, # of connection points: 2
#     Edge 53, Type (0, 1), BuildingBlock: XUDNAN_clean_linker_2, # of connection points: 2
#     Edge 54, Type (0, 1), BuildingBlock: XUDNAN_clean_linker_2, # of connection points: 2
#     Edge 55, Type (0, 1), BuildingBlock: XUDNAN_clean_linker_2, # of connection points: 2
#     Edge 56, Type (0, 1), BuildingBlock: XUDNAN_clean_linker_2, # of connection points: 2
#     Edge 57, Type (0, 1), BuildingBlock: XUDNAN_clean_linker_2, # of connection points: 2
#     Edge 58, Type (0, 1), BuildingBlock: XUDNAN_clean_linker_2, # of connection points: 2
#     Edge 59, Type (0, 1), BuildingBlock: XUDNAN_clean_linker_2, # of connection points: 2
#     Edge 60, Type (0, 1), BuildingBlock: XUDNAN_clean_linker_2, # of connection points: 2
#     Edge 61, Type (0, 1), BuildingBlock: XUDNAN_clean_linker_2, # of connection points: 2
#     Edge 62, Type (0, 1), BuildingBlock: XUDNAN_clean_linker_2, # of connection points: 2
#     Edge 63, Type (0, 1), BuildingBlock: XUDNAN_clean_linker_2, # of connection points: 2
#     Edge 64, Type (0, 1), BuildingBlock: XUDNAN_clean_linker_2, # of connection points: 2
#     Edge 65, Type (0, 1), BuildingBlock: XUDNAN_clean_linker_2, # of connection points: 2
#     Edge 66, Type (0, 1), BuildingBlock: XUDNAN_clean_linker_2, # of connection points: 2
#     Edge 67, Type (0, 1), BuildingBlock: XUDNAN_clean_linker_2, # of connection points: 2
#     Edge 68, Type (0, 1), BuildingBlock: XUDNAN_clean_linker_2, # of connection points: 2
#     Edge 69, Type (0, 1), BuildingBlock: XUDNAN_clean_linker_2, # of connection points: 2
#     Edge 70, Type (0, 1), BuildingBlock: XUDNAN_clean_linker_2, # of connection points: 2
#     Edge 71, Type (0, 1), BuildingBlock: XUDNAN_clean_linker_2, # of connection points: 2
#     Edge 72, Type (0, 1), BuildingBlock: XUDNAN_clean_linker_2, # of connection points: 2
#     Edge 73, Type (0, 1), BuildingBlock: XUDNAN_clean_linker_2, # of connection points: 2
#     Edge 74, Type (0, 1), BuildingBlock: XUDNAN_clean_linker_2, # of connection points: 2
#     Edge 75, Type (0, 1), BuildingBlock: XUDNAN_clean_linker_2, # of connection points: 2
# Relax obj value: 0.001
# Max RMSD: 0.042
# Mean RMSD: 0.022
data_MOF--net-ctn--node1-AZAVOO_clean_sbu_0--node2-KAKCAD_clean_linker_0--edge1-XUDNAN_clean_linker_2
_symmetry_space_group_name_H-M    P1
_symmetry_Int_Tables_number       1
_symmetry_cell_setting            triclinic
loop_
_symmetry_equiv_pos_as_xyz
'x, y, z'
_cell_length_a     66.705593
_cell_length_b     67.654242
_cell_length_c     67.552542
_cell_angle_alpha  90.220706
_cell_angle_beta   92.953118
_cell_angle_gamma 93.162196
loop_
_atom_site_label
_atom_site_type_symbol
_atom_site_fract_x
_atom_site_fract_y
_atom_site_fract_z
_atom_type_partial_charge
C0 C 0.03458 0.07887 0.96575 0.0
C1 C 0.02573 0.09617 0.97177 0.0
C2 C 0.03613 0.06274 0.97849 0.0
C3 C 0.02944 0.0636 0.99789 0.0
C4 C 0.02034 0.08079 0.00382 0.0
C5 C 0.01825 0.09668 0.99087 0.0
C6 C 0.03255 0.04695 0.01202 0.0
C7 C 0.0495 0.03553 0.01102 0.0
C8 C 0.05295 0.02021 0.02453 0.0
C9 C 0.03936 0.01636 0.03942 0.0
C10 C 0.02254 0.02774 0.04085 0.0
C11 C 0.0191 0.0428 0.02705 0.0
C12 C 0.00897 0.02461 0.05729 0.0
C13 C 0.99829 0.00637 0.0596 0.0
C14 C 0.00653 0.04009 0.0707 0.0
C15 C 0.99364 0.03738 0.08623 0.0
C16 C 0.98264 0.01928 0.08835 0.0
C17 C 0.0714 0.00906 0.02355 0.0
C18 C 0.07715 0.00169 0.00533 0.0
C19 C 0.08398 0.00673 0.0406 0.0
C20 C 0.10226 0.99778 0.03933 0.0
C21 C 0.10821 0.99077 0.02104 0.0
C22 C 0.09532 0.99251 0.0041 0.0
C23 C 0.985 0.0038 0.07488 0.0
H24 H 0.0408 0.07781 0.95134 0.0
H25 H 0.04277 0.04966 0.97307 0.0
H26 H 0.0152 0.08229 0.01865 0.0
H27 H 0.01086 0.10944 0.99602 0.0
H28 H 0.06059 0.03902 1.00022 0.0
H29 H 0.00579 0.05113 0.02808 0.0
H30 H 0.04204 0.00476 0.05012 0.0
H31 H 0.99996 0.99427 0.04937 0.0
H32 H 0.0147 0.05425 0.0692 0.0
H33 H 0.99195 0.04955 0.09637 0.0
H34 H 0.06766 0.00321 0.99197 0.0
H35 H 0.07998 0.0124 0.0548 0.0
H36 H 0.97667 0.98972 0.07629 0.0
H37 H 0.09956 0.98731 0.98981 0.0
H38 H 0.11184 0.99644 0.05266 0.0
C39 C 0.37566 0.74309 0.2567 0.0
C40 C 0.38448 0.7268 0.26567 0.0
C41 C 0.35838 0.74041 0.24423 0.0
C42 C 0.34963 0.72132 0.24014 0.0
C43 C 0.35842 0.705 0.24925 0.0
C44 C 0.37561 0.70773 0.26198 0.0
C45 C 0.3314 0.71869 0.22645 0.0
C46 C 0.32924 0.73099 0.20985 0.0
C47 C 0.31146 0.73015 0.19773 0.0
C48 C 0.29611 0.71588 0.20172 0.0
C49 C 0.29813 0.70295 0.21789 0.0
C50 C 0.3158 0.70459 0.23027 0.0
C51 C 0.28153 0.68815 0.22215 0.0
C52 C 0.26132 0.69299 0.21958 0.0
C53 C 0.28572 0.66905 0.22873 0.0
C54 C 0.27012 0.65516 0.23265 0.0
C55 C 0.24991 0.65999 0.22999 0.0
C56 C 0.30852 0.74501 0.18173 0.0
C57 C 0.31592 0.76474 0.18465 0.0
C58 C 0.2977 0.73993 0.16384 0.0
C59 C 0.29387 0.75434 0.14954 0.0
C60 C 0.30096 0.77414 0.15268 0.0
C61 C 0.31236 0.77904 0.17027 0.0
C62 C 0.24574 0.67908 0.22334 0.0
H63 H 0.38194 0.75799 0.2596 0.0
H64 H 0.35176 0.75341 0.23798 0.0
H65 H 0.35223 0.69008 0.24632 0.0
H66 H 0.38218 0.69491 0.26867 0.0
H67 H 0.34147 0.74137 0.20637 0.0
H68 H 0.31706 0.6954 0.24331 0.0
H69 H 0.28239 0.71503 0.1924 0.0
H70 H 0.25747 0.70764 0.21483 0.0
H71 H 0.30109 0.66473 0.2307 0.0
H72 H 0.27395 0.64072 0.23802 0.0
H73 H 0.32406 0.76936 0.19832 0.0
H74 H 0.29201 0.72485 0.16091 0.0
H75 H 0.23038 0.68329 0.22089 0.0
H76 H 0.3184 0.79403 0.17308 0.0
H77 H 0.28488 0.75001 0.13626 0.0
C78 C 0.00478 0.49183 0.11882 0.0
C79 C 0.02504 0.48701 0.11925 0.0
C80 C 0.99271 0.49003 0.1013 0.0
C81 C 1.00059 0.48349 0.08365 0.0
C82 C 0.02085 0.47866 0.08405 0.0
C83 C 0.03291 0.48037 0.10163 0.0
C84 C 0.98769 0.48174 0.06494 0.0
C85 C 0.97344 0.49585 0.0604 0.0
C86 C 0.9607 0.49404 0.0432 0.0
C87 C 0.96275 0.47818 0.03013 0.0
C88 C 0.97664 0.46367 0.03441 0.0
C89 C 0.98909 0.46565 0.05188 0.0
C90 C 0.9772 0.4459 0.02125 0.0
C91 C 0.95937 0.43765 0.0118 0.0
C92 C 0.99529 0.43677 0.01828 0.0
C93 C 0.99542 0.41962 0.00657 0.0
C94 C 0.97748 0.41128 0.99738 0.0
C95 C 0.94433 0.50789 0.03947 0.0
C96 C 0.93271 0.51367 0.05506 0.0
C97 C 0.93941 0.5145 0.0202 0.0
C98 C 0.92298 0.52619 0.01655 0.0
C99 C 0.91113 0.53163 0.03209 0.0
C100 C 0.91633 0.5254 0.05142 0.0
C101 C 0.95956 0.42081 0.99986 0.0
H102 H 0.99823 0.49723 0.13201 0.0
H103 H 0.97711 0.49361 0.10167 0.0
H104 H 0.02749 0.47374 0.07072 0.0
H105 H 0.04837 0.47629 0.10141 0.0
H106 H 0.97232 0.5084 0.07022 0.0
H107 H 0.99932 0.45423 0.05577 0.0
H108 H 0.95303 0.47686 0.0168 0.0
H109 H 0.94503 0.44388 0.01392 0.0
H110 H 0.00939 0.44281 0.02504 0.0
H111 H 0.00951 0.41266 0.00516 0.0
H112 H 0.93584 0.50858 0.07003 0.0
H113 H 0.94822 0.51057 0.00789 0.0
H114 H 0.94548 0.41518 0.99271 0.0
H115 H 0.90738 0.52911 0.0637 0.0
H116 H 0.91957 0.53102 0.00154 0.0
C117 C 0.70536 0.7636 0.16549 0.0
C118 C 0.72161 0.75124 0.1672 0.0
C119 C 0.70391 0.77916 0.17899 0.0
C120 C 0.71894 0.78288 0.1941 0.0
C121 C 0.73525 0.77061 0.19568 0.0
C122 C 0.73647 0.75483 0.18248 0.0
C123 C 0.71789 0.79972 0.20803 0.0
C124 C 0.70101 0.80151 0.21934 0.0
C125 C 0.7003 0.8171 0.23315 0.0
C126 C 0.71655 0.83135 0.2349 0.0
C127 C 0.73359 0.82959 0.22378 0.0
C128 C 0.73418 0.81366 0.21049 0.0
C129 C 0.75113 0.84398 0.22634 0.0
C130 C 0.74883 0.86443 0.22472 0.0
C131 C 0.77048 0.83717 0.22984 0.0
C132 C 0.78725 0.85047 0.23122 0.0
C133 C 0.78518 0.87093 0.22877 0.0
C134 C 0.68325 0.81775 0.24656 0.0
C135 C 0.66347 0.81199 0.23977 0.0
C136 C 0.6868 0.82326 0.26661 0.0
C137 C 0.67109 0.82275 0.27955 0.0
C138 C 0.65145 0.81657 0.27285 0.0
C139 C 0.64778 0.81132 0.25278 0.0
C140 C 0.76569 0.87778 0.22579 0.0
H141 H 0.69371 0.76107 0.15384 0.0
H142 H 0.69125 0.78849 0.17745 0.0
H143 H 0.74698 0.77316 0.20725 0.0
H144 H 0.7492 0.74558 0.18403 0.0
H145 H 0.68886 0.7902 0.21798 0.0
H146 H 0.74726 0.81227 0.2018 0.0
H147 H 0.71619 0.8436 0.24523 0.0
H148 H 0.73404 0.87003 0.22195 0.0
H149 H 0.77262 0.8215 0.23149 0.0
H150 H 0.8019 0.84464 0.23411 0.0
H151 H 0.66009 0.80794 0.22439 0.0
H152 H 0.70185 0.82738 0.27252 0.0
H153 H 0.76347 0.89337 0.22366 0.0
H154 H 0.63275 0.80671 0.24713 0.0
H155 H 0.67448 0.82658 0.29499 0.0
C156 C 0.99413 0.99281 0.42685 0.0
C157 C 1.00141 0.9983 0.40837 0.0
C158 C 0.00742 0.98954 0.44305 0.0
C159 C 0.02833 0.99166 0.44121 0.0
C160 C 0.03563 0.99712 0.42273 0.0
C161 C 0.02233 1.00037 0.4065 0.0
C162 C 0.04242 0.98835 0.45858 0.0
C163 C 0.03848 0.97268 0.4717 0.0
C164 C 0.05125 0.96979 0.48852 0.0
C165 C 0.06822 0.98281 0.49215 0.0
C166 C 0.07244 0.99859 0.47926 0.0
C167 C 0.05954 0.00115 0.46243 0.0
C168 C 0.0895 0.01321 0.48404 0.0
C169 C 0.09253 0.02109 0.5033 0.0
C170 C 0.10223 0.02012 0.46928 0.0
C171 C 0.1173 0.035 0.47359 0.0
C172 C 0.11973 0.04342 0.49267 0.0
C173 C 0.0467 0.95331 0.50239 0.0
C174 C 0.02697 0.94928 0.50827 0.0
C175 C 0.06197 0.94139 0.50972 0.0
C176 C 0.05755 0.92559 0.52237 0.0
C177 C 0.03779 0.92145 0.52811 0.0
C178 C 0.02258 0.93358 0.52103 0.0
C179 C 0.10741 0.03607 0.50754 0.0
H180 H 0.97813 0.99087 0.42878 0.0
H181 H 1.00126 0.98559 0.45712 0.0
H182 H 0.05164 0.99873 0.42075 0.0
H183 H 0.02846 0.00477 0.39255 0.0
H184 H 0.02558 0.96248 0.46863 0.0
H185 H 0.06237 0.01365 0.45279 0.0
H186 H 0.07801 0.98083 0.50522 0.0
H187 H 0.0829 0.0162 0.51496 0.0
H188 H 0.10035 0.01421 0.45433 0.0
H189 H 0.12651 0.04047 0.46183 0.0
H190 H 0.01491 0.95833 0.50304 0.0
H191 H 0.07729 0.94404 0.50538 0.0
H192 H 0.10902 0.04222 0.52241 0.0
H193 H 0.00718 0.93067 0.52501 0.0
H194 H 0.06963 0.91661 0.52769 0.0
C195 C 0.14841 0.69731 0.72489 0.0
C196 C 0.14204 0.71577 0.71846 0.0
C197 C 0.16293 0.69609 0.74044 0.0
C198 C 0.17169 0.71333 0.74977 0.0
C199 C 0.16499 0.73181 0.74351 0.0
C200 C 0.15022 0.733 0.72813 0.0
C201 C 0.18796 0.71206 0.76569 0.0
C202 C 0.20233 0.6976 0.76478 0.0
C203 C 0.21778 0.69641 0.77962 0.0
C204 C 0.21887 0.70997 0.79548 0.0
C205 C 0.20477 0.72454 0.79669 0.0
C206 C 0.18934 0.72542 0.7818 0.0
C207 C 0.20627 0.73887 0.8135 0.0
C208 C 0.21059 0.73244 0.83294 0.0
C209 C 0.2038 0.75911 0.8102 0.0
C210 C 0.20586 0.77266 0.82596 0.0
C211 C 0.2104 0.76626 0.84538 0.0
C212 C 0.2328 0.681 0.7787 0.0
C213 C 0.22671 0.66128 0.77381 0.0
C214 C 0.25331 0.6858 0.78323 0.0
C215 C 0.26736 0.67121 0.78311 0.0
C216 C 0.26123 0.65143 0.77852 0.0
C217 C 0.24075 0.64665 0.77379 0.0
C218 C 0.2126 0.74597 0.84869 0.0
H219 H 0.14218 0.68378 0.7178 0.0
H220 H 0.16729 0.68158 0.74511 0.0
H221 H 0.17153 0.74545 0.75008 0.0
H222 H 0.14574 0.74743 0.7233 0.0
H223 H 0.20187 0.68755 0.75222 0.0
H224 H 0.17812 0.73628 0.78306 0.0
H225 H 0.23077 0.70919 0.80694 0.0
H226 H 0.21225 0.7169 0.83601 0.0
H227 H 0.20071 0.76455 0.79536 0.0
H228 H 0.20431 0.78821 0.82286 0.0
H229 H 0.211 0.65707 0.77039 0.0
H230 H 0.25853 0.70088 0.78686 0.0
H231 H 0.2157 0.74047 0.8635 0.0
H232 H 0.23557 0.6316 0.76996 0.0
H233 H 0.28299 0.67537 0.78696 0.0
C234 C 0.98626 0.59615 0.48914 0.0
C235 C 0.98311 0.5961 0.50955 0.0
C236 C 0.98127 0.57931 0.47752 0.0
C237 C 0.97312 0.56191 0.48601 0.0
C238 C 0.96981 0.56191 0.50644 0.0
C239 C 0.97468 0.57886 0.51806 0.0
C240 C 0.96796 0.54398 0.47348 0.0
C241 C 0.9804 0.53893 0.45823 0.0
C242 C 0.97526 0.52262 0.44562 0.0
C243 C 0.95744 0.51116 0.44859 0.0
C244 C 0.94512 0.51566 0.46406 0.0
C245 C 0.95045 0.53206 0.4764 0.0
C246 C 0.92662 0.50324 0.46737 0.0
C247 C 0.91221 0.49919 0.45178 0.0
C248 C 0.92328 0.49539 0.48621 0.0
C249 C 0.90592 0.48351 0.48936 0.0
C250 C 0.89142 0.4796 0.47383 0.0
C251 C 0.98865 0.51754 0.42953 0.0
C252 C 0.99849 0.53253 0.41869 0.0
C253 C 0.99199 0.49768 0.42511 0.0
C254 C 0.005 0.49298 0.4104 0.0
C255 C 0.01511 0.508 0.39979 0.0
C256 C 0.01159 0.52784 0.40409 0.0
C257 C 0.89465 0.48762 0.45503 0.0
H258 H 0.99238 0.60934 0.48207 0.0
H259 H 0.98359 0.58004 0.46178 0.0
H260 H 0.96377 0.54872 0.51354 0.0
H261 H 0.97223 0.57834 0.53378 0.0
H262 H 0.99436 0.54753 0.45644 0.0
H263 H 0.94057 0.53583 0.48792 0.0
H264 H 0.95312 0.49865 0.43894 0.0
H265 H 0.91442 0.50516 0.43715 0.0
H266 H 0.93422 0.49824 0.49844 0.0
H267 H 0.90372 0.47756 0.50401 0.0
H268 H 0.99608 0.54798 0.42146 0.0
H269 H 0.98485 0.48573 0.43327 0.0
H270 H 0.88373 0.48472 0.44279 0.0
H271 H 0.01926 0.53984 0.39644 0.0
H272 H 0.00711 0.47753 0.40735 0.0
C273 C 0.79828 0.76276 0.8629 0.0
C274 C 0.80089 0.74227 0.86216 0.0
C275 C 0.80081 0.7745 0.84612 0.0
C276 C 0.80617 0.76609 0.82823 0.0
C277 C 0.80893 0.74567 0.82746 0.0
C278 C 0.80623 0.73388 0.8442 0.0
C279 C 0.80867 0.77858 0.81037 0.0
C280 C 0.82537 0.77694 0.79876 0.0
C281 C 0.82794 0.78887 0.78196 0.0
C282 C 0.81335 0.80246 0.77669 0.0
C283 C 0.79644 0.80421 0.78812 0.0
C284 C 0.79434 0.79226 0.80495 0.0
C285 C 0.78102 0.81869 0.78296 0.0
C286 C 0.78667 0.83835 0.7782 0.0
C287 C 0.76047 0.81319 0.78397 0.0
C288 C 0.74594 0.82714 0.78101 0.0
C289 C 0.75158 0.847 0.77701 0.0
C290 C 0.84593 0.78693 0.77007 0.0
C291 C 0.86503 0.78558 0.77961 0.0
C292 C 0.84411 0.7855 0.74928 0.0
C293 C 0.86089 0.78198 0.73835 0.0
C294 C 0.87988 0.77992 0.74799 0.0
C295 C 0.88177 0.78219 0.76872 0.0
C296 C 0.77212 0.85237 0.7753 0.0
H297 H 0.79456 0.76984 0.87653 0.0
H298 H 0.79884 0.79024 0.84723 0.0
H299 H 0.81281 0.73873 0.81381 0.0
H300 H 0.80805 0.71813 0.84294 0.0
H301 H 0.83645 0.76636 0.80288 0.0
H302 H 0.78147 0.79363 0.81393 0.0
H303 H 0.81517 0.81169 0.76376 0.0
H304 H 0.8024 0.84309 0.77749 0.0
H305 H 0.7556 0.79807 0.78725 0.0
H306 H 0.73026 0.82237 0.78199 0.0
H307 H 0.86701 0.78701 0.79558 0.0
H308 H 0.82957 0.78636 0.74151 0.0
H309 H 0.77704 0.86756 0.77243 0.0
H310 H 0.89622 0.78119 0.77663 0.0
H311 H 0.8588 0.78016 0.72244 0.0
C312 C 0.31491 0.24236 0.33341 0.0
C313 C 0.29565 0.23542 0.33864 0.0
C314 C 0.3172 0.25582 0.3179 0.0
C315 C 0.30028 0.26263 0.30725 0.0
C316 C 0.28106 0.25508 0.31201 0.0
C317 C 0.27878 0.24168 0.32753 0.0
C318 C 0.30262 0.27839 0.29208 0.0
C319 C 0.31808 0.27816 0.27868 0.0
C320 C 0.3211 0.29367 0.26501 0.0
C321 C 0.30823 0.30954 0.26521 0.0
C322 C 0.29209 0.30942 0.27773 0.0
C323 C 0.28949 0.29393 0.29121 0.0
C324 C 0.27724 0.32491 0.27593 0.0
C325 C 0.28347 0.34509 0.27644 0.0
C326 C 0.25669 0.31946 0.27273 0.0
C327 C 0.2427 0.33389 0.26949 0.0
C328 C 0.24894 0.35405 0.26976 0.0
C329 C 0.33696 0.29291 0.25004 0.0
C330 C 0.35442 0.28238 0.25369 0.0
C331 C 0.33453 0.30235 0.23158 0.0
C332 C 0.34896 0.30138 0.21741 0.0
C333 C 0.36597 0.29015 0.22067 0.0
C334 C 0.3685 0.28075 0.23914 0.0
C335 C 0.2694 0.35956 0.27359 0.0
H336 H 0.3282 0.23801 0.3418 0.0
H337 H 0.3322 0.26148 0.31476 0.0
H338 H 0.26773 0.2597 0.30386 0.0
H339 H 0.26375 0.23634 0.33096 0.0
H340 H 0.32733 0.26552 0.27863 0.0
H341 H 0.27739 0.29426 0.30131 0.0
H342 H 0.31031 0.32193 0.2553 0.0
H343 H 0.29923 0.34965 0.27892 0.0
H344 H 0.25153 0.30399 0.27213 0.0
H345 H 0.227 0.32929 0.26662 0.0
H346 H 0.35734 0.27524 0.26776 0.0
H347 H 0.32128 0.31028 0.22768 0.0
H348 H 0.27457 0.37502 0.27374 0.0
H349 H 0.38114 0.27174 0.24241 0.0
H350 H 0.34652 0.30948 0.20381 0.0
C351 C 0.50631 0.99052 0.61215 0.0
C352 C 0.5259 0.9838 0.61213 0.0
C353 C 0.49357 0.98921 0.59505 0.0
C354 C 0.50009 0.98124 0.57739 0.0
C355 C 0.51985 0.97495 0.57722 0.0
C356 C 0.53258 0.97619 0.59437 0.0
C357 C 0.48609 0.9789 0.55946 0.0
C358 C 0.47239 0.99344 0.55454 0.0
C359 C 0.45836 0.99083 0.5383 0.0
C360 C 0.45864 0.97356 0.52665 0.0
C361 C 0.47234 0.95892 0.5311 0.0
C362 C 0.4859 0.96172 0.54763 0.0
C363 C 0.47201 0.94046 0.51883 0.0
C364 C 0.45372 0.93175 0.51081 0.0
C365 C 0.4899 0.93131 0.51508 0.0
C366 C 0.48945 0.91379 0.5039 0.0
C367 C 0.47112 0.90506 0.49599 0.0
C368 C 0.44301 0.00573 0.53378 0.0
C369 C 0.43446 0.01606 0.5491 0.0
C370 C 0.43618 0.00924 0.51412 0.0
C371 C 0.42089 0.02214 0.50993 0.0
C372 C 0.41225 0.03242 0.52523 0.0
C373 C 0.41946 0.02933 0.54488 0.0
C374 C 0.45331 0.91447 0.4994 0.0
H375 H 0.50073 0.99678 0.62545 0.0
H376 H 0.47841 0.99403 0.59584 0.0
H377 H 0.52549 0.96897 0.56382 0.0
H378 H 0.5475 0.97074 0.5938 0.0
H379 H 0.47281 0.00692 0.56327 0.0
H380 H 0.49586 0.95014 0.55177 0.0
H381 H 0.44797 0.97136 0.51413 0.0
H382 H 0.43956 0.93807 0.51357 0.0
H383 H 0.50432 0.93768 0.52074 0.0
H384 H 0.50348 0.90693 0.50182 0.0
H385 H 0.43905 0.01365 0.56447 0.0
H386 H 0.44258 0.00197 0.50181 0.0
H387 H 0.43891 0.9085 0.49327 0.0
H388 H 0.41358 0.03718 0.55711 0.0
H389 H 0.41567 0.02374 0.49462 0.0
C390 C 0.20738 0.2643 0.66027 0.0
C391 C 0.22621 0.25981 0.6535 0.0
C392 C 0.20599 0.27773 0.67583 0.0
C393 C 0.22338 0.28686 0.68529 0.0
C394 C 0.24226 0.2818 0.67903 0.0
C395 C 0.24365 0.26848 0.6633 0.0
C396 C 0.2217 0.30222 0.70096 0.0
C397 C 0.20624 0.30047 0.7144 0.0
C398 C 0.20349 0.31563 0.72815 0.0
C399 C 0.21663 0.3326 0.72854 0.0
C400 C 0.23237 0.33446 0.71556 0.0
C401 C 0.23488 0.31923 0.70188 0.0
C402 C 0.24593 0.35257 0.71615 0.0
C403 C 0.23793 0.3713 0.71508 0.0
C404 C 0.26686 0.35128 0.71832 0.0
C405 C 0.27953 0.36847 0.72004 0.0
C406 C 0.27155 0.38733 0.71928 0.0
C407 C 0.18678 0.3139 0.74193 0.0
C408 C 0.17538 0.33027 0.74569 0.0
C409 C 0.18212 0.29593 0.75149 0.0
C410 C 0.16654 0.2944 0.76458 0.0
C411 C 0.15521 0.3108 0.76842 0.0
C412 C 0.15979 0.32873 0.75876 0.0
C413 C 0.25057 0.38846 0.71642 0.0
H414 H 0.19362 0.25765 0.65335 0.0
H415 H 0.19117 0.28136 0.67999 0.0
H416 H 0.256 0.28828 0.68614 0.0
H417 H 0.25841 0.2655 0.65843 0.0
H418 H 0.19608 0.2874 0.71398 0.0
H419 H 0.24662 0.3211 0.69144 0.0
H420 H 0.21488 0.34427 0.73926 0.0
H421 H 0.22184 0.37266 0.71314 0.0
H422 H 0.27336 0.33697 0.7193 0.0
H423 H 0.29552 0.3669 0.72252 0.0
H424 H 0.17841 0.34427 0.7384 0.0
H425 H 0.1907 0.28309 0.74906 0.0
H426 H 0.24383 0.40263 0.71522 0.0
H427 H 0.1515 0.3417 0.7615 0.0
H428 H 0.16328 0.2803 0.77159 0.0
C429 C 0.86203 0.24072 0.77938 0.0
C430 C 0.87617 0.22609 0.77959 0.0
C431 C 0.84462 0.23871 0.76693 0.0
C432 C 0.84087 0.22182 0.75488 0.0
C433 C 0.85474 0.20693 0.7555 0.0
C434 C 0.87238 0.20916 0.7676 0.0
C435 C 0.82301 0.22017 0.74097 0.0
C436 C 0.82025 0.23471 0.72644 0.0
C437 C 0.80399 0.2328 0.71241 0.0
C438 C 0.78988 0.21674 0.71364 0.0
C439 C 0.79231 0.20231 0.72828 0.0
C440 C 0.80912 0.20384 0.74168 0.0
C441 C 0.77712 0.18571 0.72942 0.0
C442 C 0.75745 0.1894 0.73408 0.0
C443 C 0.78196 0.16632 0.72513 0.0
C444 C 0.76715 0.15082 0.7251 0.0
C445 C 0.74729 0.1544 0.72975 0.0
C446 C 0.80263 0.24661 0.69553 0.0
C447 C 0.80377 0.26722 0.69857 0.0
C448 C 0.80093 0.23908 0.67609 0.0
C449 C 0.80076 0.25188 0.65996 0.0
C450 C 0.80197 0.27246 0.66294 0.0
C451 C 0.80319 0.28007 0.68236 0.0
C452 C 0.74275 0.1739 0.73448 0.0
H453 H 0.86472 0.25393 0.78846 0.0
H454 H 0.83411 0.25036 0.76665 0.0
H455 H 0.85218 0.19385 0.74622 0.0
H456 H 0.88309 0.19768 0.76759 0.0
H457 H 0.83132 0.24698 0.72546 0.0
H458 H 0.81115 0.19258 0.75287 0.0
H459 H 0.77714 0.21529 0.70299 0.0
H460 H 0.75348 0.2043 0.73752 0.0
H461 H 0.79706 0.16324 0.72132 0.0
H462 H 0.77125 0.13614 0.72105 0.0
H463 H 0.80507 0.27334 0.71345 0.0
H464 H 0.80021 0.22325 0.67337 0.0
H465 H 0.72787 0.17728 0.73867 0.0
H466 H 0.80414 0.29591 0.68496 0.0
H467 H 0.79966 0.24569 0.6451 0.0
C468 C 0.52889 0.57394 0.4674 0.0
C469 C 0.53277 0.5939 0.47283 0.0
C470 C 0.53156 0.55898 0.48141 0.0
C471 C 0.53764 0.56386 0.50112 0.0
C472 C 0.54146 0.58381 0.50652 0.0
C473 C 0.53923 0.59869 0.49246 0.0
C474 C 0.53997 0.5483 0.51623 0.0
C475 C 0.55362 0.53362 0.51393 0.0
C476 C 0.55699 0.51963 0.52892 0.0
C477 C 0.54656 0.52077 0.54651 0.0
C478 C 0.53258 0.5354 0.54902 0.0
C479 C 0.52924 0.54884 0.53346 0.0
C480 C 0.52177 0.53715 0.56784 0.0
C481 C 0.51727 0.52057 0.57973 0.0
C482 C 0.51568 0.55566 0.57406 0.0
C483 C 0.5049 0.55748 0.59103 0.0
C484 C 0.50065 0.54106 0.60317 0.0
C485 C 0.57175 0.5042 0.52616 0.0
C486 C 0.57338 0.49551 0.5074 0.0
C487 C 0.58469 0.49843 0.54194 0.0
C488 C 0.599 0.48448 0.53897 0.0
C489 C 0.60084 0.47606 0.5201 0.0
C490 C 0.58781 0.48179 0.50438 0.0
C491 C 0.50713 0.52254 0.59727 0.0
H492 H 0.52388 0.56994 0.45233 0.0
H493 H 0.52853 0.54366 0.47698 0.0
H494 H 0.54625 0.58787 0.52163 0.0
H495 H 0.54214 0.614 0.49702 0.0
H496 H 0.56214 0.5336 0.5007 0.0
H497 H 0.51817 0.55987 0.5345 0.0
H498 H 0.54947 0.51031 0.55824 0.0
H499 H 0.52136 0.50595 0.5755 0.0
H500 H 0.51923 0.56903 0.56592 0.0
H501 H 0.4998 0.57196 0.59437 0.0
H502 H 0.5635 0.49934 0.49495 0.0
H503 H 0.58405 0.50495 0.55654 0.0
H504 H 0.50453 0.50948 0.60616 0.0
H505 H 0.58891 0.47592 0.48957 0.0
H506 H 0.60856 0.48025 0.5515 0.0
C507 C 0.49056 0.46958 0.92658 0.0
C508 C 0.49505 0.47906 0.90878 0.0
C509 C 0.50514 0.469 0.94221 0.0
C510 C 0.52469 0.47752 0.94022 0.0
C511 C 0.529 0.48715 0.92234 0.0
C512 C 0.5143 0.48806 0.90691 0.0
C513 C 0.54077 0.47576 0.9563 0.0
C514 C 0.54142 0.45868 0.96808 0.0
C515 C 0.55717 0.45643 0.98234 0.0
C516 C 0.57268 0.47129 0.98471 0.0
C517 C 0.57224 0.48866 0.97335 0.0
C518 C 0.55603 0.49083 0.95944 0.0
C519 C 0.58858 0.50462 0.9758 0.0
C520 C 0.59731 0.50986 0.99465 0.0
C521 C 0.59516 0.51518 0.95922 0.0
C522 C 0.60937 0.53108 0.96149 0.0
C523 C 0.61758 0.53671 0.98036 0.0
C524 C 0.55751 0.43823 0.99442 0.0
C525 C 0.54131 0.43279 0.00607 0.0
C526 C 0.57366 0.42587 0.99386 0.0
C527 C 0.57343 0.40812 0.00443 0.0
C528 C 0.55721 0.40252 0.01619 0.0
C529 C 0.54126 0.41528 0.01701 0.0
C530 C 0.61174 0.52569 0.99689 0.0
H531 H 0.47575 0.46263 0.92841 0.0
H532 H 0.50103 0.46181 0.95582 0.0
H533 H 0.54391 0.49351 0.91994 0.0
H534 H 0.51821 0.49524 0.89321 0.0
H535 H 0.53007 0.4467 0.96578 0.0
H536 H 0.55519 0.50446 0.95117 0.0
H537 H 0.58507 0.46923 0.99539 0.0
H538 H 0.59253 0.50219 0.00778 0.0
H539 H 0.58923 0.51127 0.94441 0.0
H540 H 0.61384 0.53911 0.94844 0.0
H541 H 0.52874 0.4422 0.0068 0.0
H542 H 0.58622 0.42968 0.98478 0.0
H543 H 0.61773 0.5298 0.01163 0.0
H544 H 0.5287 0.41185 0.02617 0.0
H545 H 0.5858 0.39862 0.00296 0.0
C546 C 0.64237 0.19693 0.23315 0.0
C547 C 0.63585 0.21608 0.2297 0.0
C548 C 0.65907 0.19402 0.24603 0.0
C549 C 0.66975 0.21023 0.25553 0.0
C550 C 0.66341 0.2294 0.25159 0.0
C551 C 0.64659 0.23226 0.23898 0.0
C552 C 0.68726 0.20738 0.26968 0.0
C553 C 0.70105 0.19286 0.26632 0.0
C554 C 0.71787 0.1907 0.27945 0.0
C555 C 0.72107 0.20376 0.29573 0.0
C556 C 0.7075 0.21837 0.29945 0.0
C557 C 0.69037 0.21958 0.28659 0.0
C558 C 0.71132 0.23257 0.31649 0.0
C559 C 0.722 0.22714 0.33397 0.0
C560 C 0.70462 0.25194 0.31528 0.0
C561 C 0.70822 0.26528 0.33107 0.0
C562 C 0.71931 0.26001 0.34836 0.0
C563 C 0.73199 0.17465 0.27653 0.0
C564 C 0.72478 0.15569 0.26986 0.0
C565 C 0.75269 0.17784 0.28147 0.0
C566 C 0.7656 0.16231 0.28075 0.0
C567 C 0.75824 0.14331 0.27467 0.0
C568 C 0.73781 0.14021 0.26879 0.0
C569 C 0.72624 0.24072 0.34947 0.0
H570 H 0.63429 0.18419 0.22622 0.0
H571 H 0.66336 0.17904 0.24883 0.0
H572 H 0.67152 0.24231 0.25816 0.0
H573 H 0.64213 0.24722 0.23628 0.0
H574 H 0.69897 0.18354 0.25322 0.0
H575 H 0.67917 0.22995 0.28982 0.0
H576 H 0.73421 0.20246 0.30558 0.0
H577 H 0.72712 0.21234 0.33586 0.0
H578 H 0.69673 0.25704 0.30204 0.0
H579 H 0.70213 0.27972 0.32959 0.0
H580 H 0.70894 0.15257 0.26611 0.0
H581 H 0.75898 0.19232 0.28609 0.0
H582 H 0.73519 0.23598 0.3622 0.0
H583 H 0.7318 0.12565 0.26408 0.0
H584 H 0.78138 0.16514 0.28504 0.0
C585 C 0.48691 0.08275 0.99615 0.0
C586 C 0.48803 0.07898 0.01666 0.0
C587 C 0.48413 0.06716 0.98244 0.0
C588 C 0.48216 0.04748 0.98891 0.0
C589 C 0.48383 0.04363 0.00932 0.0
C590 C 0.48689 0.05917 0.02302 0.0
C591 C 0.47723 0.03111 0.9745 0.0
C592 C 0.48802 0.02953 0.95729 0.0
C593 C 0.48285 0.0144 0.94332 0.0
C594 C 0.4664 0.0011 0.94647 0.0
C595 C 0.45524 0.00273 0.96343 0.0
C596 C 0.461 0.01753 0.97754 0.0
C597 C 0.43673 0.98994 0.9658 0.0
C598 C 0.42202 0.98786 0.95017 0.0
C599 C 0.43312 0.98065 0.98394 0.0
C600 C 0.41503 0.9697 0.98648 0.0
C601 C 0.40008 0.96813 0.97103 0.0
C602 C 0.49413 0.01288 0.92507 0.0
C603 C 0.49775 0.02964 0.9133 0.0
C604 C 0.50094 0.99461 0.91905 0.0
C605 C 0.51109 0.99312 0.90152 0.0
C606 C 0.51427 0.0098 0.88953 0.0
C607 C 0.50759 0.02808 0.89564 0.0
C608 C 0.40382 0.97719 0.95281 0.0
H609 H 0.48741 0.09776 0.99065 0.0
H610 H 0.48271 0.07055 0.96679 0.0
H611 H 0.48261 0.02856 0.01468 0.0
H612 H 0.48816 0.05562 0.03863 0.0
H613 H 0.50061 0.03993 0.9549 0.0
H614 H 0.45219 0.01912 0.99044 0.0
H615 H 0.46201 0.98973 0.93551 0.0
H616 H 0.42432 0.99502 0.93609 0.0
H617 H 0.44425 0.98199 0.99621 0.0
H618 H 0.41248 0.96294 1.00071 0.0
H619 H 0.49256 0.04387 0.91754 0.0
H620 H 0.49844 0.98149 0.92793 0.0
H621 H 0.39261 0.97608 0.94061 0.0
H622 H 0.50999 0.0412 0.88673 0.0
H623 H 0.51603 0.97884 0.8971 0.0
Mg624 Mg 0.23621 0.86569 0.00937 0.0
O625 O 0.26565 0.88265 0.00193 0.0
O626 O 0.29005 0.86129 0.00209 0.0
Mg627 Mg 0.27595 0.83054 0.00881 0.0
C628 C 0.28398 0.87878 1.0 0.0
C629 C 0.22346 0.90872 0.00984 0.0
O630 O 0.24019 0.90983 0.02104 0.0
O631 O 0.23324 0.85305 0.97806 0.0
O632 O 0.25683 0.83079 0.97922 0.0
O633 O 0.24333 0.87016 0.04153 0.0
O634 O 0.25228 0.84434 0.02465 0.0
C635 C 0.24252 0.83936 0.97 0.0
C636 C 0.25271 0.85394 0.0412 0.0
O637 O 0.218 0.89237 0.00132 0.0
Mg638 Mg 0.15124 0.50977 0.27273 0.0
O639 O 0.12923 0.50655 0.24526 0.0
O640 O 0.14686 0.51137 0.2183 0.0
Mg641 Mg 0.17996 0.51695 0.22828 0.0
C642 C 0.13022 0.50766 0.22644 0.0
C643 C 0.11115 0.50698 0.29442 0.0
O644 O 0.10868 0.52271 0.28341 0.0
O645 O 0.16272 0.47923 0.26684 0.0
O646 O 0.18031 0.48488 0.23982 0.0
O647 O 0.14828 0.54242 0.27359 0.0
O648 O 0.17121 0.52793 0.25714 0.0
C649 C 0.17377 0.4734 0.25332 0.0
C650 C 0.16316 0.54399 0.26203 0.0
O651 O 0.12693 0.49747 0.2928 0.0
Mg652 Mg 0.76864 0.65181 0.02765 0.0
O653 O 0.73772 0.63717 0.01717 0.0
O654 O 0.71717 0.66214 0.01377 0.0
Mg655 Mg 0.73364 0.69137 0.02363 0.0
C656 C 0.7205 0.64377 0.0125 0.0
C657 C 0.80097 0.62252 0.03126 0.0
O658 O 0.8051 0.63551 0.04562 0.0
O659 O 0.77279 0.66467 0.99694 0.0
O660 O 0.75271 0.69005 0.996 0.0
O661 O 0.76146 0.64774 0.0592 0.0
O662 O 0.75478 0.67441 0.0419 0.0
C663 C 0.76569 0.67965 0.98817 0.0
C664 C 0.75372 0.66488 0.05834 0.0
O665 O 0.78532 0.62444 0.02002 0.0
Mg666 Mg 0.89679 0.02741 0.24437 0.0
O667 O 0.88409 0.99496 0.24135 0.0
O668 O 0.91009 0.97739 0.23369 0.0
Mg669 Mg 0.93873 0.99744 0.23274 0.0
C670 C 0.8915 0.97854 0.23702 0.0
C671 C 0.85373 0.04314 0.24788 0.0
O672 O 0.85388 0.04116 0.22854 0.0
O673 O 0.91182 0.02078 0.27464 0.0
O674 O 0.93784 0.00364 0.26631 0.0
O675 O 0.89087 0.03135 0.21178 0.0
O676 O 0.91958 0.0219 0.22535 0.0
C677 C 0.92768 0.01174 0.27936 0.0
C678 C 0.90868 0.02527 0.20958 0.0
O679 O 0.86855 0.0374 0.25857 0.0
Mg680 Mg 0.27616 0.16019 0.51256 0.0
O681 O 0.24459 0.14377 0.50801 0.0
O682 O 0.22333 0.16817 0.50403 0.0
Mg683 Mg 0.23985 0.19858 0.50489 0.0
C684 C 0.22677 0.14982 0.50539 0.0
C685 C 0.30008 0.12143 0.52128 0.0
O686 O 0.29549 0.12485 0.53961 0.0
O687 O 0.27659 0.16719 0.47945 0.0
O688 O 0.25548 0.19158 0.47638 0.0
O689 O 0.27243 0.16256 0.54553 0.0
O690 O 0.26265 0.18462 0.52367 0.0
C691 C 0.26786 0.1802 0.46902 0.0
C692 C 0.26327 0.17859 0.54171 0.0
O693 O 0.29322 0.13228 0.50746 0.0
Mg694 Mg 0.40274 0.53379 0.7533 0.0
O695 O 0.38039 0.50852 0.74281 0.0
O696 O 0.39694 0.4837 0.73089 0.0
Mg697 Mg 0.43043 0.49341 0.73365 0.0
C698 C 0.38058 0.49125 0.73516 0.0
C699 C 0.37463 0.56641 0.76386 0.0
O700 O 0.3876 0.57578 0.75273 0.0
O701 O 0.41179 0.51627 0.78082 0.0
O702 O 0.42927 0.49243 0.76784 0.0
O703 O 0.40257 0.54736 0.72342 0.0
O704 O 0.42382 0.52507 0.73346 0.0
C705 C 0.42227 0.50107 0.78267 0.0
C706 C 0.41731 0.53652 0.71965 0.0
O707 O 0.37711 0.54836 0.76806 0.0
Mg708 Mg 0.74346 0.35532 0.51404 0.0
O709 O 0.76935 0.3777 0.50705 0.0
O710 O 0.79657 0.36011 0.50433 0.0
Mg711 Mg 0.78863 0.32737 0.51052 0.0
C712 C 0.78798 0.37655 0.50379 0.0
C713 C 0.71699 0.39261 0.51682 0.0
O714 O 0.7296 0.39713 0.53195 0.0
O715 O 0.74235 0.34452 0.48196 0.0
O716 O 0.7683 0.32486 0.48192 0.0
O717 O 0.75019 0.35837 0.5469 0.0
O718 O 0.76395 0.33707 0.52768 0.0
C719 C 0.75285 0.33214 0.47341 0.0
C720 C 0.76282 0.34471 0.54502 0.0
O721 O 0.71953 0.37728 0.50649 0.0
Mg722 Mg 0.64832 0.00286 0.76726 0.0
O723 O 0.62936 0.99686 0.73843 0.0
O724 O 0.64891 0.99824 0.71263 0.0
Mg725 Mg 0.6813 0.00429 0.72556 0.0
C726 C 0.63162 0.99586 0.71983 0.0
C727 C 0.60505 0.00294 0.7806 0.0
O728 O 0.60501 0.01479 0.76524 0.0
O729 O 0.65955 0.97148 0.76643 0.0
O730 O 0.68064 0.97426 0.74175 0.0
O731 O 0.64581 0.03531 0.76332 0.0
O732 O 0.67054 0.01872 0.75204 0.0
C733 C 0.67255 0.96425 0.75557 0.0
C734 C 0.66205 0.03524 0.75365 0.0
O735 O 0.621 0.99419 0.78533 0.0
Mg736 Mg 0.03099 0.26336 0.90081 0.0
O737 O 0.00331 0.25528 0.88009 0.0
O738 O 0.97985 0.23977 0.89781 0.0
Mg739 Mg 0.99251 0.23797 0.92984 0.0
C740 C 0.98591 0.24665 0.88145 0.0
C741 C 0.06328 0.27944 0.87448 0.0
O742 O 0.07232 0.26748 0.88689 0.0
O743 O 0.015 0.28918 0.91433 0.0
O744 O 0.99266 0.27176 0.93184 0.0
O745 O 0.04221 0.23351 0.89486 0.0
O746 O 0.02323 0.24009 0.91968 0.0
C747 C 1.00057 0.28827 0.92613 0.0
C748 C 0.03221 0.22729 0.90973 0.0
O749 O 0.0448 0.28227 0.8765 0.0
Mg750 Mg 0.52752 0.75862 0.402 0.0
O751 O 0.50256 0.75148 0.37774 0.0
O752 O 0.47713 0.73483 0.39173 0.0
Mg753 Mg 0.48537 0.73143 0.42472 0.0
C754 C 0.48512 0.74258 0.37661 0.0
C755 C 0.54917 0.77239 0.36461 0.0
O756 O 0.54343 0.75397 0.36006 0.0
O757 O 0.50926 0.7833 0.41434 0.0
O758 O 0.4851 0.76515 0.42875 0.0
O759 O 0.54088 0.7293 0.39726 0.0
O760 O 0.51708 0.73426 0.418 0.0
C761 C 0.49365 0.7819 0.4246 0.0
C762 C 0.5282 0.72217 0.40959 0.0
O763 O 0.54427 0.7795 0.38104 0.0
Mg764 Mg 0.99017 0.75166 0.60625 0.0
O765 O 0.02157 0.74522 0.62068 0.0
O766 O 0.04114 0.74104 0.59517 0.0
Mg767 Mg 0.02398 0.74565 0.56566 0.0
C768 C 0.03845 0.74131 0.61376 0.0
C769 C 0.97968 0.75037 0.65111 0.0
O770 O 0.99002 0.73444 0.65026 0.0
O771 O 1.00125 0.78353 0.59908 0.0
O772 O 0.02031 0.77813 0.57359 0.0
O773 O 0.98183 0.71895 0.60407 0.0
O774 O 0.99709 0.73606 0.58096 0.0
C775 C 0.01242 0.78991 0.58538 0.0
C776 C 0.99063 0.71915 0.58745 0.0
O777 O 0.97798 0.76116 0.63581 0.0
Mg778 Mg 0.49365 0.24317 0.09452 0.0
O779 O 0.5186 0.23836 0.11882 0.0
O780 O 0.54367 0.22443 0.10416 0.0
Mg781 Mg 0.53583 0.22198 0.07096 0.0
C782 C 0.53587 0.23097 0.11959 0.0
C783 C 0.47405 0.25922 0.13351 0.0
O784 O 0.48518 0.24646 0.1429 0.0
O785 O 0.51156 0.27021 0.08335 0.0
O786 O 0.537 0.25623 0.06928 0.0
O787 O 0.48069 0.21269 0.09881 0.0
O788 O 0.50384 0.22025 0.07744 0.0
C789 C 0.52777 0.27148 0.07405 0.0
C790 C 0.49271 0.20687 0.0858 0.0
O791 O 0.47562 0.2617 0.11498 0.0
H792 H 0.23853 0.76676 0.87654 0.0
H793 H 0.18797 0.79824 0.85228 0.0
H794 H 0.19188 0.82165 0.88056 0.0
H795 H 0.22631 0.77006 0.92696 0.0
H796 H 0.25209 0.77318 0.93634 0.0
H797 H 0.24602 0.75975 0.91358 0.0
H798 H 0.27086 0.78324 0.89537 0.0
H799 H 0.27697 0.79679 0.91809 0.0
H800 H 0.26811 0.80958 0.89626 0.0
H801 H 0.20042 0.84072 0.91242 0.0
H802 H 0.21265 0.85367 0.94534 0.0
H803 H 0.25728 0.80924 0.9487 0.0
C804 C 0.22822 0.77853 0.87717 0.0
C805 C 0.21295 0.78065 0.86215 0.0
C806 C 0.19996 0.79645 0.86345 0.0
C807 C 0.20201 0.80978 0.8795 0.0
C808 C 0.21715 0.80715 0.8941 0.0
C809 C 0.23004 0.79192 0.89305 0.0
C810 C 0.24468 0.79194 0.91093 0.0
C811 C 0.24211 0.77259 0.92264 0.0
C812 C 0.26644 0.79561 0.90479 0.0
C813 C 0.23782 0.80939 0.92237 0.0
C814 C 0.22202 0.81806 0.91238 0.0
C815 C 0.21287 0.83411 0.92032 0.0
C816 C 0.21993 0.84136 0.93905 0.0
C817 C 0.23596 0.83252 0.94967 0.0
C818 C 0.24508 0.81644 0.94101 0.0
H819 H 0.02155 0.52659 0.36423 0.0
H820 H 0.0419 0.47849 0.40117 0.0
H821 H 0.06679 0.47116 0.37679 0.0
H822 H 0.02836 0.50357 0.31637 0.0
H823 H 0.03725 0.52644 0.3054 0.0
H824 H 0.01982 0.52679 0.32489 0.0
H825 H 0.0445 0.5508 0.3454 0.0
H826 H 0.06194 0.55058 0.32596 0.0
H827 H 0.06994 0.54399 0.35084 0.0
H828 H 0.09097 0.47035 0.34928 0.0
H829 H 0.11296 0.47675 0.32139 0.0
H830 H 0.07734 0.52593 0.30303 0.0
C831 C 0.0312 0.51449 0.36724 0.0
C832 C 0.0296 0.50306 0.38465 0.0
C833 C 0.04249 0.48725 0.38782 0.0
C834 C 0.05677 0.48301 0.37408 0.0
C835 C 0.05804 0.4947 0.35721 0.0
C836 C 0.0456 0.51013 0.35376 0.0
C837 C 0.05069 0.52111 0.33501 0.0
C838 C 0.03298 0.51936 0.3195 0.0
C839 C 0.05716 0.5429 0.33958 0.0
C840 C 0.06818 0.50967 0.32863 0.0
C841 C 0.07207 0.49438 0.34151 0.0
C842 C 0.08797 0.4822 0.33902 0.0
C843 C 0.10037 0.48595 0.32312 0.0
C844 C 0.09688 0.50181 0.30997 0.0
C845 C 0.08036 0.5136 0.3127 0.0
H846 H 0.77281 0.7453 0.89043 0.0
H847 H 0.82281 0.71095 0.87465 0.0
H848 H 0.81834 0.69036 0.90433 0.0
H849 H 0.78509 0.74633 0.94267 0.0
H850 H 0.75925 0.74456 0.94939 0.0
H851 H 0.76576 0.75593 0.92636 0.0
H852 H 0.74037 0.73153 0.90721 0.0
H853 H 0.73383 0.72003 0.93018 0.0
H854 H 0.74239 0.70525 0.91037 0.0
H855 H 0.80884 0.67388 0.93618 0.0
H856 H 0.79565 0.66335 0.96816 0.0
H857 H 0.75264 0.70927 0.96367 0.0
C858 C 0.78294 0.73355 0.89322 0.0
C859 C 0.79813 0.72975 0.88005 0.0
C860 C 0.81083 0.71399 0.88425 0.0
C861 C 0.80849 0.70226 0.90115 0.0
C862 C 0.79342 0.70648 0.9138 0.0
C863 C 0.7809 0.72178 0.91008 0.0
C864 C 0.76622 0.72356 0.92629 0.0
C865 C 0.76927 0.7438 0.9368 0.0
C866 C 0.74441 0.71987 0.91801 0.0
C867 C 0.77253 0.70695 0.9398 0.0
C868 C 0.78815 0.69719 0.93228 0.0
C869 C 0.79659 0.6814 0.94221 0.0
C870 C 0.78896 0.67552 0.96038 0.0
C871 C 0.77309 0.68547 0.96853 0.0
C872 C 0.76477 0.70133 0.95794 0.0
H873 H 0.00452 0.98733 0.36942 0.0
H874 H 0.9662 0.01753 0.40834 0.0
H875 H 0.94262 0.02345 0.37986 0.0
H876 H 0.99817 0.01979 0.32796 0.0
H877 H 0.99826 1.00024 0.30975 0.0
H878 H 0.01177 0.99797 0.33333 0.0
H879 H 0.99201 0.96465 0.3393 0.0
H880 H 0.97838 0.96685 0.31576 0.0
H881 H 0.96491 0.96369 0.33809 0.0
H882 H 0.92347 0.02664 0.3468 0.0
H883 H 0.91048 0.02698 0.31189 0.0
H884 H 0.96164 0.99497 0.29476 0.0
C885 C 0.99125 0.99531 0.37197 0.0
C886 C 0.98722 0.00192 0.39118 0.0
C887 C 0.9695 0.01207 0.39384 0.0
C888 C 0.95605 0.0156 0.37773 0.0
C889 C 0.9605 0.00887 0.35902 0.0
C890 C 0.97767 0.99895 0.35607 0.0
C891 C 0.97907 0.99342 0.33446 0.0
C892 C 0.99794 0.00346 0.32587 0.0
C893 C 0.97856 0.97081 0.33175 0.0
C894 C 0.96006 0.00189 0.32568 0.0
C895 C 0.94951 0.01071 0.34007 0.0
C896 C 0.93159 0.01974 0.33542 0.0
C897 C 0.92433 0.01985 0.31552 0.0
C898 C 0.93498 0.011 0.30049 0.0
C899 C 0.95304 0.00184 0.30581 0.0
H900 H 0.25408 0.23207 0.64629 0.0
H901 H 0.20158 0.25906 0.61978 0.0
H902 H 0.20387 0.23895 0.58969 0.0
H903 H 0.28118 0.23193 0.60242 0.0
H904 H 0.29213 0.20855 0.60725 0.0
H905 H 0.28543 0.22372 0.62757 0.0
H906 H 0.26321 0.19447 0.6406 0.0
H907 H 0.2698 0.17921 0.62025 0.0
H908 H 0.24375 0.18271 0.62439 0.0
H909 H 0.21268 0.21774 0.5618 0.0
H910 H 0.22807 0.19708 0.53736 0.0
H911 H 0.2755 0.18406 0.5809 0.0
C912 C 0.24301 0.23372 0.63419 0.0
C913 C 0.22747 0.24703 0.63561 0.0
C914 C 0.21332 0.24865 0.61938 0.0
C915 C 0.21454 0.23736 0.60212 0.0
C916 C 0.23002 0.22447 0.60121 0.0
C917 C 0.24404 0.22256 0.61676 0.0
C918 C 0.25976 0.20831 0.61145 0.0
C919 C 0.28087 0.21876 0.61222 0.0
C920 C 0.25908 0.19009 0.62498 0.0
C921 C 0.25258 0.20285 0.59036 0.0
C922 C 0.2353 0.21227 0.58487 0.0
C923 C 0.22619 0.21027 0.56592 0.0
C924 C 0.23517 0.19865 0.55205 0.0
C925 C 0.2531 0.18919 0.55714 0.0
C926 C 0.26168 0.191 0.57668 0.0
H927 H 0.4765 0.51311 0.62281 0.0
H928 H 0.50001 0.57445 0.6268 0.0
H929 H 0.47943 0.57977 0.65499 0.0
H930 H 0.42715 0.51935 0.63812 0.0
H931 H 0.42607 0.4977 0.65359 0.0
H932 H 0.44162 0.49848 0.63255 0.0
H933 H 0.47272 0.49104 0.65526 0.0
H934 H 0.45722 0.48999 0.67634 0.0
H935 H 0.47932 0.50659 0.6766 0.0
H936 H 0.45463 0.57957 0.68103 0.0
H937 H 0.4321 0.57207 0.7082 0.0
H938 H 0.42897 0.50988 0.69191 0.0
C939 C 0.47766 0.52764 0.62964 0.0
C940 C 0.48952 0.54351 0.62171 0.0
C941 C 0.49038 0.56218 0.63155 0.0
C942 C 0.47886 0.56538 0.64786 0.0
C943 C 0.46703 0.54963 0.65481 0.0
C944 C 0.46682 0.53097 0.64649 0.0
C945 C 0.45386 0.51631 0.65797 0.0
C946 C 0.43612 0.50744 0.64476 0.0
C947 C 0.46654 0.50002 0.66709 0.0
C948 C 0.44669 0.52981 0.67384 0.0
C949 C 0.45417 0.54905 0.67137 0.0
C950 C 0.44892 0.56452 0.68335 0.0
C951 C 0.43603 0.56016 0.69862 0.0
C952 C 0.42896 0.54045 0.70207 0.0
C953 C 0.43433 0.52504 0.68955 0.0
H954 H 0.77628 0.30162 0.6536 0.0
H955 H 0.82761 0.2724 0.63301 0.0
H956 H 0.826 0.29185 0.60215 0.0
H957 H 0.74919 0.30012 0.60865 0.0
H958 H 0.73842 0.32382 0.61098 0.0
H959 H 0.74566 0.31033 0.63284 0.0
H960 H 0.76846 0.34046 0.64554 0.0
H961 H 0.76124 0.3541 0.62366 0.0
H962 H 0.78745 0.35095 0.63002 0.0
H963 H 0.81649 0.31096 0.57228 0.0
H964 H 0.79909 0.3278 0.54473 0.0
H965 H 0.75338 0.34461 0.58396 0.0
C966 C 0.78751 0.29984 0.6428 0.0
C967 C 0.80221 0.28574 0.64564 0.0
C968 C 0.81632 0.28324 0.63104 0.0
C969 C 0.81558 0.29428 0.61356 0.0
C970 C 0.80063 0.30776 0.61094 0.0
C971 C 0.78684 0.31063 0.62514 0.0
C972 C 0.77097 0.32439 0.61766 0.0
C973 C 0.74982 0.31404 0.61752 0.0
C974 C 0.77211 0.34362 0.62995 0.0
C975 C 0.77757 0.32819 0.5968 0.0
C976 C 0.79491 0.31871 0.5934 0.0
C977 C 0.80306 0.31868 0.57484 0.0
C978 C 0.79297 0.32817 0.55921 0.0
C979 C 0.77488 0.33749 0.56218 0.0
C980 C 0.76741 0.33793 0.58136 0.0
H981 H 0.56684 0.99276 0.61651 0.0
H982 H 0.51479 0.97559 0.64988 0.0
H983 H 0.53618 0.97658 0.68074 0.0
H984 H 0.60204 0.96362 0.64489 0.0
H985 H 0.62263 0.9819 0.64351 0.0
H986 H 0.60321 0.98 0.62394 0.0
H987 H 0.59666 0.01708 0.62858 0.0
H988 H 0.61604 0.01909 0.64817 0.0
H989 H 0.59098 0.02606 0.65271 0.0
H990 H 0.56295 0.97988 0.70807 0.0
H991 H 0.59343 0.98493 0.73008 0.0
H992 H 0.62855 0.99887 0.67903 0.0
C993 C 0.55995 0.98902 0.63026 0.0
C994 C 0.53903 0.98424 0.6307 0.0
C995 C 0.53065 0.97968 0.64912 0.0
C996 C 0.54272 0.98005 0.66675 0.0
C997 C 0.56321 0.98488 0.66578 0.0
C998 C 0.5718 0.98923 0.64803 0.0
C999 C 0.59423 0.99401 0.65115 0.0
C1000 C 0.60623 0.97898 0.64022 0.0
C1001 C 0.5998 0.01533 0.64478 0.0
C1002 C 0.59687 0.99174 0.67345 0.0
C1003 C 0.57876 0.98648 0.68156 0.0
C1004 C 0.57724 0.98391 0.70188 0.0
C1005 C 0.59468 0.98685 0.71427 0.0
C1006 C 0.61347 0.99224 0.70633 0.0
C1007 C 0.61449 0.99461 0.68559 0.0
H1008 H 0.88065 0.23211 0.81966 0.0
H1009 H 0.91427 0.22612 0.76696 0.0
H1010 H 0.94619 0.23158 0.78715 0.0
H1011 H 0.91314 0.26979 0.84424 0.0
H1012 H 0.91056 0.25947 0.8686 0.0
H1013 H 0.89045 0.25568 0.84991 0.0
H1014 H 0.89133 0.21771 0.85446 0.0
H1015 H 0.9114 0.22139 0.8732 0.0
H1016 H 0.91465 0.20588 0.85198 0.0
H1017 H 0.97427 0.23896 0.81299 0.0
H1018 H 0.99671 0.24444 0.84303 0.0
H1019 H 0.94474 0.24328 0.87918 0.0
C1020 C 0.89478 0.232 0.81244 0.0
C1021 C 0.89515 0.22882 0.79182 0.0
C1022 C 0.91381 0.22851 0.78279 0.0
C1023 C 0.93194 0.23167 0.79411 0.0
C1024 C 0.9311 0.23483 0.81445 0.0
C1025 C 0.91301 0.23475 0.82358 0.0
C1026 C 0.91628 0.23771 0.84577 0.0
C1027 C 0.90706 0.2568 0.85252 0.0
C1028 C 0.90792 0.21959 0.85701 0.0
C1029 C 0.93902 0.23957 0.84768 0.0
C1030 C 0.94728 0.23812 0.82942 0.0
C1031 C 0.96799 0.23996 0.82739 0.0
C1032 C 0.9806 0.24314 0.84451 0.0
C1033 C 0.97246 0.24414 0.86342 0.0
C1034 C 0.95139 0.24236 0.86494 0.0
H1035 H 0.49877 0.89143 0.47053 0.0
H1036 H 0.44203 0.87479 0.49652 0.0
H1037 H 0.44039 0.84322 0.47833 0.0
H1038 H 0.48782 0.86764 0.42238 0.0
H1039 H 0.51285 0.85922 0.42068 0.0
H1040 H 0.50895 0.88153 0.4343 0.0
H1041 H 0.52704 0.8673 0.46552 0.0
H1042 H 0.53111 0.84503 0.45197 0.0
H1043 H 0.51836 0.84357 0.47485 0.0
H1044 H 0.44522 0.813 0.45884 0.0
H1045 H 0.45736 0.78477 0.44086 0.0
H1046 H 0.51188 0.81962 0.42837 0.0
C1047 C 0.48598 0.88119 0.47244 0.0
C1048 C 0.47035 0.88593 0.4848 0.0
C1049 C 0.45392 0.87195 0.48675 0.0
C1050 C 0.45288 0.85385 0.47655 0.0
C1051 C 0.46845 0.84974 0.46451 0.0
C1052 C 0.48478 0.86289 0.4625 0.0
C1053 C 0.50007 0.85416 0.44955 0.0
C1054 C 0.50256 0.86637 0.4306 0.0
C1055 C 0.52034 0.85241 0.46117 0.0
C1056 C 0.48987 0.83394 0.4449 0.0
C1057 C 0.47153 0.83189 0.45351 0.0
C1058 C 0.45952 0.81443 0.45196 0.0
C1059 C 0.4666 0.79845 0.44171 0.0
C1060 C 0.48561 0.7999 0.43318 0.0
C1061 C 0.49721 0.81807 0.43452 0.0
H1062 H 0.15529 0.29166 0.80418 0.0
H1063 H 0.11798 0.32634 0.76465 0.0
H1064 H 0.09076 0.32353 0.78814 0.0
H1065 H 0.11602 0.25766 0.81876 0.0
H1066 H 0.12601 0.25591 0.84396 0.0
H1067 H 0.14268 0.26141 0.82434 0.0
H1068 H 0.15645 0.29328 0.84299 0.0
H1069 H 0.13975 0.28792 0.86263 0.0
H1070 H 0.13922 0.31135 0.85006 0.0
H1071 H 0.06708 0.31584 0.81576 0.0
H1072 H 0.04908 0.30368 0.84487 0.0
H1073 H 0.10216 0.27403 0.8658 0.0
C1074 C 0.14137 0.29859 0.80038 0.0
C1075 C 0.1388 0.30923 0.78255 0.0
C1076 C 0.12041 0.31831 0.77832 0.0
C1077 C 0.10483 0.31673 0.79154 0.0
C1078 C 0.10787 0.30608 0.80895 0.0
C1079 C 0.1257 0.29718 0.81337 0.0
C1080 C 0.12512 0.28626 0.83285 0.0
C1081 C 0.1276 0.26399 0.82978 0.0
C1082 C 0.14108 0.29525 0.84803 0.0
C1083 C 0.1041 0.29023 0.83864 0.0
C1084 C 0.09437 0.30174 0.82474 0.0
C1085 C 0.07461 0.3069 0.82678 0.0
C1086 C 0.06451 0.29995 0.84337 0.0
C1087 C 0.07419 0.28795 0.85766 0.0
C1088 C 0.09431 0.28326 0.85524 0.0
H1089 H 0.5594 0.62397 0.46316 0.0
H1090 H 0.4984 0.60016 0.45071 0.0
H1091 H 0.49137 0.62929 0.4299 0.0
H1092 H 0.54876 0.67303 0.46824 0.0
H1093 H 0.57053 0.68325 0.45632 0.0
H1094 H 0.57136 0.65958 0.46826 0.0
H1095 H 0.5815 0.64356 0.4356 0.0
H1096 H 0.58078 0.66726 0.42353 0.0
H1097 H 0.56599 0.64623 0.41321 0.0
H1098 H 0.48961 0.66325 0.41518 0.0
H1099 H 0.49419 0.69825 0.40489 0.0
H1100 H 0.55705 0.69882 0.4245 0.0
C1101 C 0.54472 0.62475 0.45567 0.0
C1102 C 0.52942 0.60991 0.45841 0.0
C1103 C 0.51033 0.61134 0.44856 0.0
C1104 C 0.50622 0.62782 0.43678 0.0
C1105 C 0.52151 0.64246 0.43471 0.0
C1106 C 0.5405 0.64089 0.44358 0.0
C1107 C 0.55403 0.65904 0.43974 0.0
C1108 C 0.5616 0.66933 0.4593 0.0
C1109 C 0.57162 0.6537 0.42728 0.0
C1110 C 0.53946 0.67144 0.42802 0.0
C1111 C 0.52077 0.66161 0.42527 0.0
C1112 C 0.5043 0.67088 0.41674 0.0
C1113 C 0.50699 0.69072 0.41102 0.0
C1114 C 0.52604 0.70088 0.41358 0.0
C1115 C 0.54251 0.69105 0.42186 0.0
H1116 H 0.89083 0.7929 0.71102 0.0
H1117 H 0.90856 0.75412 0.75914 0.0
H1118 H 0.93729 0.74435 0.74059 0.0
H1119 H 0.90203 0.76041 0.67193 0.0
H1120 H 0.91121 0.77984 0.65601 0.0
H1121 H 0.89274 0.78485 0.67362 0.0
H1122 H 0.91616 0.81348 0.68867 0.0
H1123 H 0.93475 0.80849 0.67115 0.0
H1124 H 0.94141 0.80861 0.69735 0.0
H1125 H 0.96306 0.7373 0.71627 0.0
H1126 H 0.98382 0.73313 0.68751 0.0
H1127 H 0.94954 0.77622 0.65486 0.0
C1128 C 0.90076 0.78237 0.71768 0.0
C1129 C 0.89746 0.77447 0.7367 0.0
C1130 C 0.91093 0.76076 0.74484 0.0
C1131 C 0.92727 0.75501 0.73436 0.0
C1132 C 0.93006 0.76307 0.7157 0.0
C1133 C 0.9172 0.77645 0.7074 0.0
C1134 C 0.92322 0.78231 0.68678 0.0
C1135 C 0.9063 0.7765 0.67117 0.0
C1136 C 0.92925 0.80454 0.68595 0.0
C1137 C 0.94127 0.7699 0.6847 0.0
C1138 C 0.945 0.759 0.70161 0.0
C1139 C 0.96038 0.74587 0.70299 0.0
C1140 C 0.97209 0.7436 0.68656 0.0
C1141 C 0.96841 0.7544 0.66894 0.0
C1142 C 0.95293 0.76792 0.66818 0.0
H1143 H 0.05095 0.884 0.52506 0.0
H1144 H 0.01329 0.91964 0.55965 0.0
H1145 H 0.00416 0.89031 0.57978 0.0
H1146 H 0.01851 0.8411 0.52299 0.0
H1147 H 0.0384 0.82411 0.52473 0.0
H1148 H 0.04288 0.84819 0.5141 0.0
H1149 H 0.073 0.85534 0.53939 0.0
H1150 H 0.0686 0.83125 0.55011 0.0
H1151 H 0.06924 0.85309 0.56554 0.0
H1152 H 0.99812 0.85629 0.59525 0.0
H1153 H 0.99489 0.8207 0.60371 0.0
H1154 H 0.03677 0.80809 0.55879 0.0
C1155 C 0.04109 0.88575 0.53711 0.0
C1156 C 0.03293 0.90414 0.54086 0.0
C1157 C 0.01964 0.90566 0.55645 0.0
C1158 C 0.01447 0.88912 0.56804 0.0
C1159 C 0.02271 0.87116 0.56385 0.0
C1160 C 0.03573 0.86943 0.54873 0.0
C1161 C 0.04174 0.84834 0.54649 0.0
C1162 C 0.03497 0.83995 0.52586 0.0
C1163 C 0.0645 0.84693 0.55064 0.0
C1164 C 0.02994 0.8384 0.56258 0.0
C1165 C 0.01915 0.85176 0.57256 0.0
C1166 C 0.00663 0.84573 0.58761 0.0
C1167 C 0.00491 0.82548 0.59234 0.0
C1168 C 0.01556 0.81152 0.58196 0.0
C1169 C 0.02843 0.81828 0.56711 0.0
H1170 H 0.10752 0.73643 0.7146 0.0
H1171 H 0.14491 0.69814 0.68262 0.0
H1172 H 0.12233 0.70058 0.65274 0.0
H1173 H 0.05982 0.71628 0.69236 0.0
H1174 H 0.04843 0.73983 0.6914 0.0
H1175 H 0.06754 0.73525 0.71041 0.0
H1176 H 0.08848 0.76636 0.69957 0.0
H1177 H 0.06945 0.77102 0.68053 0.0
H1178 H 0.09511 0.76865 0.67411 0.0
H1179 H 0.09704 0.70813 0.62619 0.0
H1180 H 0.06889 0.71851 0.60451 0.0
H1181 H 0.04614 0.7508 0.65354 0.0
C1182 C 0.11088 0.72859 0.70127 0.0
C1183 C 0.12793 0.71705 0.70087 0.0
C1184 C 0.13183 0.70687 0.68326 0.0
C1185 C 0.11915 0.70825 0.66621 0.0
C1186 C 0.1025 0.71971 0.66706 0.0
C1187 C 0.09816 0.72956 0.68414 0.0
C1188 C 0.07901 0.74057 0.68098 0.0
C1189 C 0.06274 0.7325 0.6946 0.0
C1190 C 0.08328 0.76298 0.68397 0.0
C1191 C 0.07344 0.73551 0.6594 0.0
C1192 C 0.08734 0.72358 0.65172 0.0
C1193 C 0.08597 0.71737 0.63204 0.0
C1194 C 0.06994 0.72345 0.61982 0.0
C1195 C 0.05528 0.73548 0.6273 0.0
C1196 C 0.05702 0.7415 0.64744 0.0
H1197 H 0.96122 0.61345 0.53773 0.0
H1198 H 0.01781 0.61935 0.50879 0.0
H1199 H 0.02673 0.65029 0.5274 0.0
H1200 H 0.95127 0.66404 0.5369 0.0
H1201 H 0.94055 0.66444 0.56084 0.0
H1202 H 0.9392 0.64187 0.54653 0.0
H1203 H 0.9566 0.62375 0.57584 0.0
H1204 H 0.95797 0.64628 0.59029 0.0
H1205 H 0.9805 0.63359 0.58635 0.0
H1206 H 0.02873 0.68135 0.54732 0.0
H1207 H 0.02365 0.71093 0.56733 0.0
H1208 H 0.96583 0.68546 0.58377 0.0
C1209 C 0.97564 0.62108 0.53562 0.0
C1210 C 0.98883 0.61401 0.52179 0.0
C1211 C 0.00741 0.6246 0.51915 0.0
C1212 C 0.01267 0.64211 0.52975 0.0
C1213 C 0.99923 0.64883 0.54302 0.0
C1214 C 0.98112 0.63866 0.54607 0.0
C1215 C 0.96899 0.64974 0.56047 0.0
C1216 C 0.94881 0.65535 0.55058 0.0
C1217 C 0.96584 0.63761 0.57936 0.0
C1218 C 0.98295 0.66789 0.5647 0.0
C1219 C 1.00035 0.66694 0.55456 0.0
C1220 C 0.01519 0.68225 0.55536 0.0
C1221 C 0.01206 0.69913 0.5666 0.0
C1222 C 0.99423 0.70064 0.57685 0.0
C1223 C 0.97967 0.68463 0.57618 0.0
H1224 H 0.79028 0.9094 0.24335 0.0
H1225 H 0.82131 0.86416 0.21316 0.0
H1226 H 0.85169 0.88637 0.21313 0.0
H1227 H 0.8118 0.95052 0.21592 0.0
H1228 H 0.81359 0.96726 0.23685 0.0
H1229 H 0.79427 0.94756 0.23527 0.0
H1230 H 0.80659 0.93491 0.26969 0.0
H1231 H 0.826 0.95453 0.27134 0.0
H1232 H 0.83253 0.92913 0.27386 0.0
H1233 H 0.87878 0.91294 0.21642 0.0
H1234 H 0.90068 0.94316 0.22125 0.0
H1235 H 0.85209 0.97242 0.24771 0.0
C1236 C 0.8034 0.90418 0.23661 0.0
C1237 C 0.80337 0.8848 0.22855 0.0
C1238 C 0.82099 0.87864 0.21996 0.0
C1239 C 0.83834 0.89123 0.21971 0.0
C1240 C 0.83788 0.91009 0.22789 0.0
C1241 C 0.82087 0.91667 0.23604 0.0
C1242 C 0.82439 0.93788 0.24339 0.0
C1243 C 0.81017 0.95161 0.23218 0.0
C1244 C 0.82225 0.93918 0.26591 0.0
C1245 C 0.84603 0.94212 0.23809 0.0
C1246 C 0.85349 0.92579 0.22929 0.0
C1247 C 0.87311 0.92586 0.22324 0.0
C1248 C 0.88547 0.94314 0.22612 0.0
C1249 C 0.87817 0.96025 0.23486 0.0
C1250 C 0.85814 0.95965 0.24094 0.0
H1251 H 0.76521 0.11775 0.24446 0.0
H1252 H 0.78218 0.13184 0.30591 0.0
H1253 H 0.806 0.10508 0.30673 0.0
H1254 H 0.76985 0.06375 0.24753 0.0
H1255 H 0.78043 0.0623 0.22358 0.0
H1256 H 0.76314 0.08108 0.22842 0.0
H1257 H 0.78947 0.10828 0.21828 0.0
H1258 H 0.80677 0.08961 0.21335 0.0
H1259 H 0.81421 0.10951 0.23045 0.0
H1260 H 0.8292 0.07809 0.30039 0.0
H1261 H 0.85202 0.05465 0.28671 0.0
H1262 H 0.82084 0.05877 0.22896 0.0
C1263 C 0.77371 0.1149 0.25815 0.0
C1264 C 0.77182 0.12669 0.27517 0.0
C1265 C 0.78347 0.12293 0.29273 0.0
C1266 C 0.79692 0.1077 0.29336 0.0
C1267 C 0.79861 0.09644 0.27627 0.0
C1268 C 0.78742 0.09992 0.25895 0.0
C1269 C 0.79335 0.08681 0.24222 0.0
C1270 C 0.77563 0.07265 0.23502 0.0
C1271 C 0.80143 0.0993 0.22507 0.0
C1272 C 0.80985 0.07568 0.25275 0.0
C1273 C 0.81241 0.08122 0.27246 0.0
C1274 C 0.82725 0.07353 0.28501 0.0
C1275 C 0.84013 0.06019 0.27709 0.0
C1276 C 0.83825 0.05483 0.25675 0.0
C1277 C 0.82261 0.06243 0.24459 0.0
H1278 H 0.39289 0.93119 0.9867 0.0
H1279 H 0.36285 0.98155 0.96224 0.0
H1280 H 0.32984 0.96445 0.96751 0.0
H1281 H 0.35801 0.89395 0.96475 0.0
H1282 H 0.35939 0.8777 0.98581 0.0
H1283 H 0.3806 0.89414 0.98061 0.0
H1284 H 0.38053 0.90899 0.01603 0.0
H1285 H 0.3593 0.8926 0.02133 0.0
H1286 H 0.35789 0.91896 0.02438 0.0
H1287 H 0.30016 0.94215 0.9761 0.0
H1288 H 0.27584 0.91539 0.98542 0.0
H1289 H 0.32525 0.87898 0.00308 0.0
C1290 C 0.37934 0.93862 0.98257 0.0
C1291 C 0.38036 0.95769 0.9741 0.0
C1292 C 0.36234 0.96688 0.96862 0.0
C1293 C 0.34356 0.95733 0.97165 0.0
C1294 C 0.34306 0.93853 0.98002 0.0
C1295 C 0.36046 0.9292 0.98526 0.0
C1296 C 0.35573 0.90875 0.99344 0.0
C1297 C 0.36392 0.89269 0.98037 0.0
C1298 C 0.36384 0.90725 0.01508 0.0
C1299 C 0.33296 0.90805 0.99201 0.0
C1300 C 0.32595 0.92545 0.9844 0.0
C1301 C 0.30547 0.92842 0.98199 0.0
C1302 C 0.29177 0.91314 0.98738 0.0
C1303 C 0.2986 0.89502 0.99489 0.0
C1304 C 0.31951 0.89257 0.99724 0.0
H1305 H 0.24207 0.38721 0.29137 0.0
H1306 H 0.22304 0.35513 0.23736 0.0
H1307 H 0.19975 0.38121 0.22825 0.0
H1308 H 0.19223 0.40476 0.30111 0.0
H1309 H 0.20239 0.42833 0.31069 0.0
H1310 H 0.21693 0.40673 0.31333 0.0
H1311 H 0.24624 0.42494 0.29586 0.0
H1312 H 0.23183 0.44657 0.2932 0.0
H1313 H 0.24155 0.43541 0.27167 0.0
H1314 H 0.18146 0.41243 0.22335 0.0
H1315 H 0.16746 0.44559 0.22425 0.0
H1316 H 0.19597 0.45611 0.28268 0.0
C1317 C 0.23285 0.38567 0.27772 0.0
C1318 C 0.23429 0.36923 0.26503 0.0
C1319 C 0.222 0.36758 0.24732 0.0
C1320 C 0.20878 0.38231 0.24203 0.0
C1321 C 0.20778 0.39841 0.25479 0.0
C1322 C 0.21927 0.40006 0.27241 0.0
C1323 C 0.2155 0.41898 0.28336 0.0
C1324 C 0.20621 0.41442 0.3033 0.0
C1325 C 0.23493 0.43226 0.28617 0.0
C1326 C 0.20049 0.42797 0.2689 0.0
C1327 C 0.19631 0.4159 0.25247 0.0
C1328 C 0.18424 0.4218 0.23633 0.0
C1329 C 0.17636 0.44059 0.23694 0.0
C1330 C 0.18029 0.453 0.25372 0.0
C1331 C 0.19228 0.44653 0.26998 0.0
H1332 H 0.15975 0.04865 0.48394 0.0
H1333 H 0.11121 0.07781 0.51036 0.0
H1334 H 0.13364 0.10755 0.51681 0.0
H1335 H 0.19952 0.06905 0.51844 0.0
H1336 H 0.21793 0.07186 0.4999 0.0
H1337 H 0.19818 0.05261 0.49729 0.0
H1338 H 0.18754 0.06595 0.46266 0.0
H1339 H 0.20725 0.08524 0.46516 0.0
H1340 H 0.18158 0.09152 0.46013 0.0
H1341 H 0.16015 0.13441 0.51902 0.0
H1342 H 0.19031 0.15693 0.5187 0.0
H1343 H 0.22315 0.11068 0.4924 0.0
C1344 C 0.15393 0.06133 0.49109 0.0
C1345 C 0.13376 0.06093 0.49674 0.0
C1346 C 0.12666 0.07772 0.50615 0.0
C1347 C 0.13925 0.09471 0.50979 0.0
C1348 C 0.15901 0.09464 0.5041 0.0
C1349 C 0.16645 0.07841 0.49511 0.0
C1350 C 0.18844 0.08239 0.49073 0.0
C1351 C 0.2018 0.06813 0.50228 0.0
C1352 C 0.19136 0.08121 0.46834 0.0
C1353 C 0.19204 0.10348 0.49847 0.0
C1354 C 0.17474 0.11018 0.50598 0.0
C1355 C 0.17384 0.12932 0.51332 0.0
C1356 C 0.19106 0.14203 0.51298 0.0
C1357 C 0.20909 0.13558 0.50554 0.0
C1358 C 0.20963 0.11594 0.49834 0.0
H1359 H 0.75146 0.11522 0.73988 0.0
H1360 H 0.70685 0.15605 0.71948 0.0
H1361 H 0.68032 0.12952 0.72164 0.0
H1362 H 0.72823 0.07221 0.71199 0.0
H1363 H 0.73499 0.05514 0.73132 0.0
H1364 H 0.75062 0.07729 0.72769 0.0
H1365 H 0.74735 0.08726 0.76442 0.0
H1366 H 0.73171 0.06521 0.76815 0.0
H1367 H 0.72269 0.08911 0.77379 0.0
H1368 H 0.6582 0.09942 0.72925 0.0
H1369 H 0.64265 0.06721 0.73948 0.0
H1370 H 0.70189 0.04519 0.75111 0.0
C1371 C 0.73623 0.11859 0.7354 0.0
C1372 C 0.73139 0.13795 0.72974 0.0
C1373 C 0.71105 0.14157 0.7244 0.0
C1374 C 0.69583 0.12651 0.72535 0.0
C1375 C 0.70115 0.10774 0.73123 0.0
C1376 C 0.7209 0.10364 0.73586 0.0
C1377 C 0.72259 0.08227 0.742 0.0
C1378 C 0.73483 0.07107 0.72738 0.0
C1379 C 0.73161 0.0809 0.76336 0.0
C1380 C 0.70065 0.07512 0.74057 0.0
C1381 C 0.68849 0.09006 0.73441 0.0
C1382 C 0.66758 0.08748 0.73366 0.0
C1383 C 0.65888 0.06919 0.73951 0.0
C1384 C 0.67111 0.0537 0.74568 0.0
C1385 C 0.69222 0.05664 0.7459 0.0
H1386 H 0.38034 0.04098 0.54804 0.0
H1387 H 0.40685 0.05569 0.49211 0.0
H1388 H 0.37935 0.07744 0.48399 0.0
H1389 H 0.32823 0.04255 0.53159 0.0
H1390 H 0.32099 0.05435 0.55389 0.0
H1391 H 0.34187 0.03852 0.55483 0.0
H1392 H 0.36505 0.06695 0.57062 0.0
H1393 H 0.34421 0.08279 0.56991 0.0
H1394 H 0.36705 0.09051 0.55829 0.0
H1395 H 0.34911 0.09786 0.48181 0.0
H1396 H 0.32048 0.11836 0.48739 0.0
H1397 H 0.3152 0.09286 0.54592 0.0
C1398 C 0.38058 0.04884 0.53413 0.0
C1399 C 0.39582 0.04618 0.52063 0.0
C1400 C 0.39518 0.0568 0.50253 0.0
C1401 C 0.37963 0.06937 0.49779 0.0
C1402 C 0.36489 0.07149 0.51137 0.0
C1403 C 0.36538 0.06176 0.5293 0.0
C1404 C 0.3484 0.06763 0.54182 0.0
C1405 C 0.33402 0.04969 0.54575 0.0
C1406 C 0.35668 0.07756 0.56131 0.0
C1407 C 0.33839 0.08231 0.52816 0.0
C1408 C 0.34795 0.08403 0.51053 0.0
C1409 C 0.34152 0.09667 0.49557 0.0
C1410 C 0.32516 0.1082 0.49886 0.0
C1411 C 0.31558 0.10728 0.51712 0.0
C1412 C 0.32218 0.09392 0.53181 0.0
H1413 H 0.63941 0.47539 0.53706 0.0
H1414 H 0.59735 0.44343 0.49552 0.0
H1415 H 0.62321 0.42008 0.48877 0.0
H1416 H 0.68422 0.46932 0.51089 0.0
H1417 H 0.69983 0.46555 0.53298 0.0
H1418 H 0.67834 0.48045 0.53403 0.0
H1419 H 0.66434 0.45824 0.56187 0.0
H1420 H 0.68586 0.44338 0.56103 0.0
H1421 H 0.66087 0.43189 0.55784 0.0
H1422 H 0.65348 0.40017 0.48638 0.0
H1423 H 0.68526 0.38338 0.49053 0.0
H1424 H 0.70715 0.427 0.535 0.0
C1425 C 0.63551 0.4634 0.52667 0.0
C1426 C 0.61631 0.46149 0.51666 0.0
C1427 C 0.61204 0.44561 0.50305 0.0
C1428 C 0.62661 0.43216 0.49917 0.0
C1429 C 0.64537 0.43461 0.50914 0.0
C1430 C 0.64981 0.44969 0.52277 0.0
C1431 C 0.67091 0.44853 0.53201 0.0
C1432 C 0.6841 0.46707 0.52718 0.0
C1433 C 0.67046 0.44531 0.55452 0.0
C1434 C 0.67758 0.43038 0.5215 0.0
C1435 C 0.66268 0.42273 0.50821 0.0
C1436 C 0.66525 0.40599 0.49676 0.0
C1437 C 0.68341 0.39659 0.4992 0.0
C1438 C 0.69872 0.40383 0.51313 0.0
C1439 C 0.69577 0.42109 0.52424 0.0
H1440 H 0.72556 0.25234 0.38847 0.0
H1441 H 0.7235 0.30098 0.34656 0.0
H1442 H 0.72976 0.32465 0.37411 0.0
H1443 H 0.70432 0.27541 0.42926 0.0
H1444 H 0.72141 0.26524 0.44756 0.0
H1445 H 0.71498 0.252 0.42473 0.0
H1446 H 0.75274 0.25124 0.41756 0.0
H1447 H 0.7593 0.26435 0.44043 0.0
H1448 H 0.76793 0.27412 0.41739 0.0
H1449 H 0.73538 0.34332 0.40675 0.0
H1450 H 0.7442 0.35498 0.44117 0.0
H1451 H 0.74752 0.29416 0.46037 0.0
C1452 C 0.72666 0.26789 0.38481 0.0
C1453 C 0.72364 0.27453 0.36507 0.0
C1454 C 0.72499 0.29524 0.36145 0.0
C1455 C 0.72876 0.30892 0.37704 0.0
C1456 C 0.73164 0.30176 0.3962 0.0
C1457 C 0.73103 0.28172 0.40006 0.0
C1458 C 0.73597 0.27778 0.42176 0.0
C1459 C 0.7181 0.26697 0.43139 0.0
C1460 C 0.75512 0.26619 0.42443 0.0
C1461 C 0.73942 0.29875 0.42951 0.0
C1462 C 0.73645 0.31242 0.41464 0.0
C1463 C 0.73797 0.33275 0.41847 0.0
C1464 C 0.7429 0.33924 0.43799 0.0
C1465 C 0.74672 0.32542 0.45317 0.0
C1466 C 0.74492 0.30498 0.44887 0.0
H1467 H 0.5498 0.9929 0.88254 0.0
H1468 H 0.50089 0.02325 0.85354 0.0
H1469 H 0.51749 0.02175 0.82176 0.0
H1470 H 0.58858 0.01799 0.85736 0.0
H1471 H 0.6038 0.99692 0.85554 0.0
H1472 H 0.58718 0.99861 0.87556 0.0
H1473 H 0.57009 0.96445 0.86557 0.0
H1474 H 0.58665 0.96268 0.84545 0.0
H1475 H 0.55979 0.96047 0.84059 0.0
H1476 H 0.53998 0.01874 0.79379 0.0
H1477 H 0.56787 0.01614 0.7716 0.0
H1478 H 0.60287 0.98815 0.81852 0.0
C1479 C 0.54247 0.99891 0.86939 0.0
C1480 C 0.52404 0.00812 0.87041 0.0
C1481 C 0.51506 0.01621 0.85305 0.0
C1482 C 0.5243 0.0153 0.83493 0.0
C1483 C 0.54255 0.00629 0.83443 0.0
C1484 C 0.55162 0.9983 0.85118 0.0
C1485 C 0.57195 0.99076 0.84683 0.0
C1486 C 0.58887 0.00173 0.85958 0.0
C1487 C 0.57212 0.96825 0.84979 0.0
C1488 C 0.57304 0.9961 0.82511 0.0
C1489 C 0.55577 0.0048 0.81823 0.0
C1490 C 0.55351 0.01181 0.79895 0.0
C1491 C 0.56947 0.01028 0.78645 0.0
C1492 C 0.58756 0.00191 0.79328 0.0
C1493 C 0.58915 0.99438 0.81278 0.0
H1494 H 0.26837 0.23866 0.36719 0.0
H1495 H 0.3175 0.20376 0.35039 0.0
H1496 H 0.3143 0.18403 0.38096 0.0
H1497 H 0.28198 0.2415 0.41793 0.0
H1498 H 0.25656 0.23985 0.42587 0.0
H1499 H 0.26176 0.25003 0.40199 0.0
H1500 H 0.23598 0.22438 0.38512 0.0
H1501 H 0.23067 0.21412 0.40898 0.0
H1502 H 0.2385 0.19836 0.38958 0.0
H1503 H 0.30667 0.16928 0.41451 0.0
H1504 H 0.29604 0.16157 0.44828 0.0
H1505 H 0.25185 0.20627 0.44245 0.0
C1506 C 0.27817 0.22658 0.36968 0.0
C1507 C 0.29309 0.22266 0.35631 0.0
C1508 C 0.30601 0.20708 0.36046 0.0
C1509 C 0.30421 0.19572 0.37772 0.0
C1510 C 0.28942 0.20011 0.39066 0.0
C1511 C 0.27662 0.21518 0.3868 0.0
C1512 C 0.26273 0.21771 0.40352 0.0
C1513 C 0.26597 0.2385 0.41288 0.0
C1514 C 0.24066 0.21338 0.39637 0.0
C1515 C 0.2699 0.20193 0.41758 0.0
C1516 C 0.28517 0.19179 0.40988 0.0
C1517 C 0.29461 0.17703 0.4206 0.0
C1518 C 0.28845 0.17274 0.43979 0.0
C1519 C 0.27307 0.18327 0.4481 0.0
C1520 C 0.26357 0.19784 0.4366 0.0
H1521 H 0.48257 0.51052 0.88687 0.0
H1522 H 0.47437 0.44679 0.89206 0.0
H1523 H 0.45203 0.44565 0.86161 0.0
H1524 H 0.4305 0.51847 0.86765 0.0
H1525 H 0.43868 0.53806 0.85141 0.0
H1526 H 0.45269 0.53393 0.87442 0.0
H1527 H 0.48501 0.53046 0.85529 0.0
H1528 H 0.47113 0.53455 0.83227 0.0
H1529 H 0.48493 0.51252 0.83547 0.0
H1530 H 0.43471 0.45108 0.82823 0.0
H1531 H 0.42114 0.46303 0.79588 0.0
H1532 H 0.43802 0.52346 0.81383 0.0
C1533 C 0.47578 0.49639 0.88172 0.0
C1534 C 0.48011 0.47873 0.89175 0.0
C1535 C 0.47104 0.46048 0.88464 0.0
C1536 C 0.4584 0.45971 0.86736 0.0
C1537 C 0.45466 0.47736 0.85762 0.0
C1538 C 0.46281 0.49541 0.86473 0.0
C1539 C 0.45691 0.51214 0.85116 0.0
C1540 C 0.44392 0.5265 0.8618 0.0
C1541 C 0.47561 0.52305 0.84307 0.0
C1542 C 0.44474 0.50064 0.83497 0.0
C1543 C 0.44366 0.48058 0.83894 0.0
C1544 C 0.43497 0.46678 0.8252 0.0
C1545 C 0.42734 0.47366 0.80689 0.0
C1546 C 0.42813 0.49414 0.80268 0.0
C1547 C 0.43664 0.50778 0.81702 0.0
H1548 H 0.7211 0.75279 0.12664 0.0
H1549 H 0.72659 0.71255 0.17615 0.0
H1550 H 0.73175 0.68511 0.15298 0.0
H1551 H 0.69618 0.717 0.09032 0.0
H1552 H 0.7101 0.72693 0.0701 0.0
H1553 H 0.70436 0.74284 0.09027 0.0
H1554 H 0.74223 0.753 0.09619 0.0
H1555 H 0.74806 0.73717 0.07606 0.0
H1556 H 0.75994 0.73407 0.10034 0.0
H1557 H 0.73863 0.66276 0.12494 0.0
H1558 H 0.74877 0.6473 0.09419 0.0
H1559 H 0.73992 0.7022 0.06267 0.0
C1560 C 0.72293 0.73808 0.13249 0.0
C1561 C 0.72325 0.73465 0.15311 0.0
C1562 C 0.72625 0.71539 0.16037 0.0
C1563 C 0.72908 0.69973 0.14733 0.0
C1564 C 0.72896 0.70362 0.12707 0.0
C1565 C 0.72605 0.72233 0.11966 0.0
C1566 C 0.72841 0.72289 0.09745 0.0
C1567 C 0.70858 0.7277 0.08638 0.0
C1568 C 0.74569 0.73765 0.09222 0.0
C1569 C 0.73353 0.7017 0.09362 0.0
C1570 C 0.73344 0.69078 0.11087 0.0
C1571 C 0.73856 0.6711 0.1113 0.0
C1572 C 0.74431 0.66245 0.09373 0.0
C1573 C 0.74507 0.67349 0.07598 0.0
C1574 C 0.73925 0.69328 0.07592 0.0
H1575 H 0.99077 0.02469 0.12808 0.0
H1576 H 0.94257 0.00875 0.08453 0.0
H1577 H 0.9182 0.0073 0.11106 0.0
H1578 H 0.97174 0.99261 0.16746 0.0
H1579 H 0.97995 0.01008 0.18681 0.0
H1580 H 0.9935 0.00914 0.16446 0.0
H1581 H 0.98885 0.04654 0.15895 0.0
H1582 H 0.97524 0.04758 0.18121 0.0
H1583 H 0.96389 0.05555 0.15801 0.0
H1584 H 0.89884 0.01086 0.14197 0.0
H1585 H 0.88634 0.01596 0.1754 0.0
H1586 H 0.94763 0.02706 0.199 0.0
C1587 C 0.9751 0.02072 0.12423 0.0
C1588 C 0.96843 0.01686 0.10436 0.0
C1589 C 0.94789 0.01163 0.09974 0.0
C1590 C 0.93399 0.01083 0.11467 0.0
C1591 C 0.941 0.01496 0.13414 0.0
C1592 C 0.96113 0.01948 0.13898 0.0
C1593 C 0.9648 0.02332 0.161 0.0
C1594 C 0.97829 0.00786 0.17049 0.0
C1595 C 0.97372 0.0445 0.16502 0.0
C1596 C 0.94353 0.02072 0.16775 0.0
C1597 C 0.92999 0.01603 0.15203 0.0
C1598 C 0.90933 0.01419 0.15444 0.0
C1599 C 0.90237 0.01719 0.17343 0.0
C1600 C 0.91605 0.02167 0.18974 0.0
C1601 C 0.93688 0.02328 0.18683 0.0
H1602 H 0.29766 0.77143 0.11177 0.0
H1603 H 0.29187 0.81232 0.16066 0.0
H1604 H 0.28244 0.83812 0.13698 0.0
H1605 H 0.31634 0.80768 0.07608 0.0
H1606 H 0.30187 0.79618 0.05545 0.0
H1607 H 0.31032 0.78137 0.07604 0.0
H1608 H 0.27364 0.76833 0.08083 0.0
H1609 H 0.26511 0.78299 0.06022 0.0
H1610 H 0.25455 0.78576 0.08404 0.0
H1611 H 0.27145 0.85884 0.10851 0.0
H1612 H 0.2581 0.87261 0.0771 0.0
H1613 H 0.26964 0.8181 0.04661 0.0
C1614 C 0.29448 0.78581 0.11754 0.0
C1615 C 0.29581 0.78983 0.13816 0.0
C1616 C 0.29153 0.80893 0.14497 0.0
C1617 C 0.28604 0.82371 0.13163 0.0
C1618 C 0.2848 0.81921 0.11147 0.0
C1619 C 0.28881 0.80072 0.10442 0.0
C1620 C 0.28501 0.79937 0.08213 0.0
C1621 C 0.30455 0.79595 0.07182 0.0
C1622 C 0.2686 0.78315 0.07648 0.0
C1623 C 0.27782 0.81985 0.07785 0.0
C1624 C 0.27808 0.83112 0.09496 0.0
C1625 C 0.27133 0.85023 0.09496 0.0
C1626 C 0.26376 0.85792 0.07704 0.0
C1627 C 0.26289 0.84647 0.05939 0.0
C1628 C 0.27034 0.82731 0.0598 0.0
H1629 H 0.06495 0.49993 0.1239 0.0
H1630 H 0.01428 0.47838 0.15716 0.0
H1631 H 0.03527 0.48218 0.18823 0.0
H1632 H 0.10255 0.47492 0.1529 0.0
H1633 H 0.12143 0.49486 0.15116 0.0
H1634 H 0.1022 0.49093 0.13162 0.0
H1635 H 0.0922 0.52716 0.13555 0.0
H1636 H 0.11134 0.53118 0.15516 0.0
H1637 H 0.08558 0.53588 0.15948 0.0
H1638 H 0.06195 0.48836 0.21584 0.0
H1639 H 0.09248 0.49537 0.23757 0.0
H1640 H 0.12585 0.51176 0.18601 0.0
C1641 C 0.05826 0.49581 0.13766 0.0
C1642 C 0.03786 0.48894 0.138 0.0
C1643 C 0.02973 0.48401 0.15646 0.0
C1644 C 0.04158 0.48601 0.17422 0.0
C1645 C 0.06158 0.49288 0.17332 0.0
C1646 C 0.06989 0.49761 0.1555 0.0
C1647 C 0.09185 0.50441 0.15856 0.0
C1648 C 0.1053 0.49044 0.14793 0.0
C1649 C 0.09544 0.52594 0.15179 0.0
C1650 C 0.09462 0.50272 0.18087 0.0
C1651 C 0.07698 0.49614 0.18914 0.0
C1652 C 0.07587 0.4935 0.20952 0.0
C1653 C 0.0933 0.49755 0.22175 0.0
C1654 C 0.11164 0.50409 0.21355 0.0
C1655 C 0.11214 0.50675 0.19281 0.0
H1656 H 0.39125 0.71163 0.3028 0.0
H1657 H 0.41861 0.74939 0.25877 0.0
H1658 H 0.44825 0.75631 0.28176 0.0
H1659 H 0.40664 0.74188 0.34413 0.0
H1660 H 0.41109 0.72163 0.36076 0.0
H1661 H 0.39283 0.71839 0.34029 0.0
H1662 H 0.41121 0.68834 0.32779 0.0
H1663 H 0.42951 0.69144 0.34829 0.0
H1664 H 0.4376 0.69123 0.32325 0.0
H1665 H 0.47433 0.76006 0.31007 0.0
H1666 H 0.49443 0.7611 0.34185 0.0
H1667 H 0.44952 0.72143 0.36753 0.0
C1668 C 0.40366 0.72106 0.2979 0.0
C1669 C 0.40274 0.72991 0.279 0.0
C1670 C 0.41904 0.74253 0.27324 0.0
C1671 C 0.43595 0.74647 0.28614 0.0
C1672 C 0.43628 0.73772 0.30478 0.0
C1673 C 0.42056 0.72529 0.31066 0.0
C1674 C 0.42415 0.71864 0.33186 0.0
C1675 C 0.4077 0.72556 0.34503 0.0
C1676 C 0.42571 0.69607 0.33285 0.0
C1677 C 0.44423 0.72943 0.33705 0.0
C1678 C 0.45108 0.7402 0.32119 0.0
C1679 C 0.46915 0.75162 0.32258 0.0
C1680 C 0.48047 0.75212 0.3407 0.0
C1681 C 0.47357 0.7414 0.35725 0.0
C1682 C 0.45524 0.72984 0.35523 0.0
H1683 H 0.00636 0.39742 0.97333 0.0
H1684 H 0.94793 0.3815 0.9962 0.0
H1685 H 0.94649 0.35029 0.97751 0.0
H1686 H 0.99727 0.37455 0.92439 0.0
H1687 H 0.02215 0.36553 0.92373 0.0
H1688 H 0.01817 0.38774 0.93747 0.0
H1689 H 0.03433 0.37256 0.96919 0.0
H1690 H 0.0385 0.35039 0.95552 0.0
H1691 H 0.02458 0.34888 0.9777 0.0
H1692 H 0.95145 0.32044 0.95799 0.0
H1693 H 0.96372 0.29204 0.94042 0.0
H1694 H 0.01977 0.32556 0.9308 0.0
C1695 C 0.99325 0.38741 0.97442 0.0
C1696 C 0.97706 0.39229 0.986 0.0
C1697 C 0.96025 0.37859 0.98698 0.0
C1698 C 0.95931 0.36069 0.97648 0.0
C1699 C 0.97537 0.35646 0.96515 0.0
C1700 C 0.99213 0.36926 0.96414 0.0
C1701 C 0.00783 0.36033 0.95181 0.0
C1702 C 0.01157 0.37278 0.93325 0.0
C1703 C 0.02747 0.35789 0.9643 0.0
C1704 C 0.99733 0.3404 0.94637 0.0
C1705 C 0.97852 0.33871 0.95408 0.0
C1706 C 0.96612 0.32158 0.95181 0.0
C1707 C 0.97327 0.3055 0.94182 0.0
C1708 C 0.99273 0.30653 0.93424 0.0
C1709 C 0.00475 0.32441 0.9362 0.0
H1710 H 0.62316 0.78597 0.27623 0.0
H1711 H 0.64312 0.84307 0.30175 0.0
H1712 H 0.61739 0.83912 0.32673 0.0
H1713 H 0.56932 0.78941 0.28409 0.0
H1714 H 0.56596 0.76354 0.29007 0.0
H1715 H 0.58482 0.77168 0.27328 0.0
H1716 H 0.61205 0.75524 0.29536 0.0
H1717 H 0.59332 0.7471 0.31221 0.0
H1718 H 0.61524 0.76184 0.32126 0.0
H1719 H 0.59071 0.82796 0.35015 0.0
H1720 H 0.56586 0.81016 0.3705 0.0
H1721 H 0.56353 0.7604 0.32951 0.0
C1722 C 0.62182 0.79784 0.2868 0.0
C1723 C 0.63507 0.81488 0.28698 0.0
C1724 C 0.63318 0.82985 0.30139 0.0
C1725 C 0.61854 0.82779 0.31556 0.0
C1726 C 0.60589 0.81068 0.31512 0.0
C1727 C 0.60737 0.79597 0.30108 0.0
C1728 C 0.59279 0.77852 0.30451 0.0
C1729 C 0.5773 0.77563 0.28694 0.0
C1730 C 0.60403 0.75956 0.30858 0.0
C1731 C 0.58309 0.78554 0.32286 0.0
C1732 C 0.59069 0.8042 0.32866 0.0
C1733 C 0.58452 0.81341 0.34564 0.0
C1734 C 0.5704 0.80318 0.35711 0.0
C1735 C 0.56269 0.78389 0.35161 0.0
C1736 C 0.569 0.77517 0.33409 0.0
H1737 H 0.02746 0.1357 0.98254 0.0
H1738 H 0.0223 0.09701 0.93074 0.0
H1739 H 0.02365 0.12624 0.90916 0.0
H1740 H 0.99444 0.17219 0.96124 0.0
H1741 H 0.00862 0.19259 0.97346 0.0
H1742 H 0.00765 0.16851 0.98478 0.0
H1743 H 0.04659 0.16912 0.98668 0.0
H1744 H 0.0477 0.1931 0.97523 0.0
H1745 H 0.05999 0.17292 0.96438 0.0
H1746 H 0.0281 0.16 0.89324 0.0
H1747 H 0.03138 0.19554 0.8844 0.0
H1748 H 0.02924 0.21154 0.94643 0.0
C1749 C 0.02614 0.13316 0.96669 0.0
C1750 C 0.025 0.1138 0.95852 0.0
C1751 C 0.02375 0.11154 0.93757 0.0
C1752 C 0.02432 0.12809 0.92511 0.0
C1753 C 0.02566 0.14687 0.93375 0.0
C1754 C 0.02614 0.14945 0.95406 0.0
C1755 C 0.02714 0.17117 0.95968 0.0
C1756 C 0.00834 0.17642 0.97042 0.0
C1757 C 0.04651 0.1769 0.97223 0.0
C1758 C 0.02746 0.18042 0.93936 0.0
C1759 C 0.02684 0.16619 0.92457 0.0
C1760 C 0.02825 0.17126 0.90467 0.0
C1761 C 0.0302 0.19142 0.89979 0.0
C1762 C 0.03032 0.20614 0.91474 0.0
C1763 C 0.02883 0.20053 0.93471 0.0
H1764 H 0.40675 0.2826 0.22437 0.0
H1765 H 0.3584 0.29158 0.18007 0.0
H1766 H 0.38197 0.28861 0.15385 0.0
H1767 H 0.44797 0.30596 0.19873 0.0
H1768 H 0.46526 0.28734 0.20573 0.0
H1769 H 0.44533 0.29268 0.22163 0.0
H1770 H 0.43272 0.25576 0.22059 0.0
H1771 H 0.4527 0.25028 0.20486 0.0
H1772 H 0.42696 0.24373 0.19697 0.0
H1773 H 0.41035 0.2843 0.13204 0.0
H1774 H 0.44043 0.27407 0.11592 0.0
H1775 H 0.46945 0.26345 0.17364 0.0
C1776 C 0.40091 0.28388 0.20923 0.0
C1777 C 0.38053 0.28794 0.20467 0.0
C1778 C 0.37395 0.28943 0.18439 0.0
C1779 C 0.38725 0.28756 0.16921 0.0
C1780 C 0.40709 0.28371 0.17431 0.0
C1781 C 0.41385 0.28146 0.19378 0.0
C1782 C 0.43546 0.27543 0.19504 0.0
C1783 C 0.44932 0.2913 0.20593 0.0
C1784 C 0.43704 0.25509 0.20495 0.0
C1785 C 0.43966 0.27445 0.1732 0.0
C1786 C 0.42321 0.27975 0.16157 0.0
C1787 C 0.42333 0.28006 0.14097 0.0
C1788 C 0.44055 0.2743 0.13196 0.0
C1789 C 0.4573 0.26791 0.1435 0.0
C1790 C 0.45689 0.26826 0.16442 0.0
H1791 H 0.52414 0.37796 0.02455 0.0
H1792 H 0.58928 0.38333 0.03308 0.0
H1793 H 0.58871 0.35085 0.04936 0.0
H1794 H 0.51578 0.35524 0.0728 0.0
H1795 H 0.49471 0.33964 0.06318 0.0
H1796 H 0.50022 0.36339 0.05213 0.0
H1797 H 0.50192 0.34646 0.01784 0.0
H1798 H 0.49651 0.32267 0.02877 0.0
H1799 H 0.51878 0.32683 0.01502 0.0
H1800 H 0.5813 0.31656 0.06241 0.0
H1801 H 0.56722 0.2842 0.0738 0.0
H1802 H 0.5069 0.30277 0.06019 0.0
C1803 C 0.53832 0.37263 0.03015 0.0
C1804 C 0.55679 0.38335 0.0272 0.0
C1805 C 0.57493 0.37536 0.03457 0.0
C1806 C 0.57477 0.35694 0.04406 0.0
C1807 C 0.55635 0.34678 0.04649 0.0
C1808 C 0.53843 0.35447 0.04003 0.0
C1809 C 0.52066 0.34059 0.04457 0.0
C1810 C 0.50704 0.3503 0.05903 0.0
C1811 C 0.50877 0.33373 0.02541 0.0
C1812 C 0.53141 0.32371 0.05428 0.0
C1813 C 0.55201 0.32752 0.0551 0.0
C1814 C 0.56518 0.31356 0.06217 0.0
C1815 C 0.55708 0.29523 0.06854 0.0
C1816 C 0.53601 0.29117 0.06812 0.0
C1817 C 0.52305 0.30569 0.06107 0.0
H1818 H 0.62731 0.20116 0.19226 0.0
H1819 H 0.60431 0.23871 0.23702 0.0
H1820 H 0.57524 0.24552 0.21432 0.0
H1821 H 0.61471 0.2315 0.15135 0.0
H1822 H 0.60806 0.21118 0.13451 0.0
H1823 H 0.62619 0.20816 0.15478 0.0
H1824 H 0.6049 0.17787 0.16706 0.0
H1825 H 0.58671 0.18076 0.14677 0.0
H1826 H 0.57884 0.18046 0.1719 0.0
H1827 H 0.54909 0.24886 0.18626 0.0
H1828 H 0.5287 0.24949 0.15467 0.0
H1829 H 0.5695 0.21042 0.12813 0.0
C1830 C 0.61597 0.21055 0.19736 0.0
C1831 C 0.61795 0.21933 0.2164 0.0
C1832 C 0.60306 0.23189 0.22244 0.0
C1833 C 0.58648 0.23577 0.2097 0.0
C1834 C 0.58507 0.22704 0.19092 0.0
C1835 C 0.59945 0.21474 0.18475 0.0
C1836 C 0.59497 0.20804 0.1635 0.0
C1837 C 0.61199 0.21515 0.15026 0.0
C1838 C 0.59112 0.18544 0.16225 0.0
C1839 C 0.57593 0.21861 0.15863 0.0
C1840 C 0.57033 0.22935 0.17467 0.0
C1841 C 0.55331 0.24046 0.1736 0.0
C1842 C 0.5418 0.24071 0.1556 0.0
C1843 C 0.54748 0.23006 0.13887 0.0
C1844 C 0.56474 0.2188 0.14057 0.0
H1845 H 0.50842 0.11561 0.01434 0.0
H1846 H 0.46966 0.08041 0.05204 0.0
H1847 H 0.46987 0.10829 0.07551 0.0
H1848 H 0.53753 0.14343 0.054 0.0
H1849 H 0.53826 0.16614 0.04013 0.0
H1850 H 0.53715 0.14266 0.0273 0.0
H1851 H 0.50525 0.1524 0.00694 0.0
H1852 H 0.5063 0.17589 0.01963 0.0
H1853 H 0.48381 0.15985 0.01974 0.0
H1854 H 0.47173 0.1406 0.09351 0.0
H1855 H 0.47447 0.17552 0.10437 0.0
H1856 H 0.51114 0.19037 0.05471 0.0
C1857 C 0.50005 0.11367 0.02757 0.0
C1858 C 0.48921 0.0956 0.03135 0.0
C1859 C 0.47853 0.09382 0.04894 0.0
C1860 C 0.47845 0.10965 0.06237 0.0
C1861 C 0.48909 0.12725 0.05806 0.0
C1862 C 0.49969 0.12939 0.04109 0.0
C1863 C 0.50869 0.15035 0.03931 0.0
C1864 C 0.53178 0.15065 0.04025 0.0
C1865 C 0.50052 0.1602 0.02028 0.0
C1866 C 0.50106 0.15976 0.05768 0.0
C1867 C 0.48998 0.14609 0.06839 0.0
C1868 C 0.48054 0.15141 0.08537 0.0
C1869 C 0.48217 0.1713 0.09141 0.0
C1870 C 0.4931 0.18567 0.08045 0.0
C1871 C 0.50293 0.17969 0.06355 0.0
H1872 H 0.31037 0.39453 0.70731 0.0
H1873 H 0.26329 0.42182 0.73815 0.0
H1874 H 0.28517 0.45206 0.74313 0.0
H1875 H 0.35055 0.41342 0.74018 0.0
H1876 H 0.36823 0.41692 0.72104 0.0
H1877 H 0.34825 0.39795 0.7183 0.0
H1878 H 0.33654 0.41298 0.68471 0.0
H1879 H 0.35644 0.43206 0.6874 0.0
H1880 H 0.33072 0.43868 0.68364 0.0
H1881 H 0.31234 0.47906 0.74576 0.0
H1882 H 0.34368 0.50017 0.74765 0.0
H1883 H 0.37393 0.45477 0.71692 0.0
C1884 C 0.3046 0.40679 0.71516 0.0
C1885 C 0.28488 0.40572 0.72207 0.0
C1886 C 0.27806 0.42231 0.73218 0.0
C1887 C 0.29044 0.43958 0.73522 0.0
C1888 C 0.30973 0.44007 0.72825 0.0
C1889 C 0.31686 0.42408 0.71857 0.0
C1890 C 0.3386 0.4281 0.71354 0.0
C1891 C 0.35221 0.41321 0.72389 0.0
C1892 C 0.34069 0.42795 0.69098 0.0
C1893 C 0.34261 0.44876 0.72212 0.0
C1894 C 0.32568 0.45546 0.73032 0.0
C1895 C 0.32571 0.474 0.73935 0.0
C1896 C 0.34361 0.48591 0.74031 0.0
C1897 C 0.36135 0.47918 0.73245 0.0
C1898 C 0.36068 0.4604 0.72306 0.0
H1899 H 0.29904 0.6537 0.76408 0.0
H1900 H 0.25719 0.61391 0.79369 0.0
H1901 H 0.28204 0.58809 0.79431 0.0
H1902 H 0.31871 0.61728 0.7333 0.0
H1903 H 0.34401 0.62818 0.73506 0.0
H1904 H 0.32307 0.64355 0.7374 0.0
H1905 H 0.33826 0.65637 0.77145 0.0
H1906 H 0.35924 0.64099 0.76924 0.0
H1907 H 0.34423 0.63889 0.79064 0.0
H1908 H 0.3116 0.56646 0.79141 0.0
H1909 H 0.34285 0.55045 0.78401 0.0
H1910 H 0.36518 0.60467 0.75655 0.0
C1911 C 0.29516 0.63963 0.77088 0.0
C1912 C 0.27616 0.63585 0.77886 0.0
C1913 C 0.27156 0.61709 0.7873 0.0
C1914 C 0.28563 0.60238 0.78785 0.0
C1915 C 0.30424 0.60663 0.7799 0.0
C1916 C 0.30899 0.62479 0.77152 0.0
C1917 C 0.3298 0.62549 0.76353 0.0
C1918 C 0.32883 0.62882 0.74098 0.0
C1919 C 0.3437 0.64138 0.77437 0.0
C1920 C 0.33602 0.60485 0.76863 0.0
C1921 C 0.32114 0.59422 0.77816 0.0
C1922 C 0.32338 0.57468 0.78401 0.0
C1923 C 0.34121 0.56572 0.77978 0.0
C1924 C 0.35651 0.57629 0.76974 0.0
C1925 C 0.35384 0.59617 0.76431 0.0
H1926 H 0.88906 0.44279 0.49033 0.0
H1927 H 0.85242 0.4881 0.46474 0.0
H1928 H 0.82166 0.46715 0.47059 0.0
H1929 H 0.85939 0.40159 0.46901 0.0
H1930 H 0.86303 0.38594 0.49028 0.0
H1931 H 0.88193 0.4049 0.48485 0.0
H1932 H 0.87982 0.41971 0.52008 0.0
H1933 H 0.86088 0.4008 0.52561 0.0
H1934 H 0.85585 0.42655 0.52831 0.0
H1935 H 0.7949 0.44128 0.47989 0.0
H1936 H 0.77442 0.41154 0.48937 0.0
H1937 H 0.82893 0.38267 0.50725 0.0
C1938 C 0.87453 0.44833 0.48611 0.0
C1939 C 0.87302 0.46707 0.47722 0.0
C1940 C 0.85382 0.47373 0.47154 0.0
C1941 C 0.83631 0.462 0.47489 0.0
C1942 C 0.83832 0.44356 0.48372 0.0
C1943 C 0.85696 0.43669 0.48906 0.0
C1944 C 0.85508 0.41602 0.49751 0.0
C1945 C 0.86547 0.40124 0.48464 0.0
C1946 C 0.8634 0.41577 0.51916 0.0
C1947 C 0.83247 0.41231 0.4961 0.0
C1948 C 0.82303 0.42844 0.48833 0.0
C1949 C 0.80215 0.42853 0.48591 0.0
C1950 C 0.79064 0.4116 0.49139 0.0
C1951 C 0.80007 0.39474 0.49894 0.0
C1952 C 0.82127 0.39524 0.50136 0.0
H1953 H 0.74951 0.87838 0.75115 0.0
H1954 H 0.71894 0.85022 0.79969 0.0
H1955 H 0.69391 0.87574 0.79796 0.0
H1956 H 0.74388 0.92783 0.76676 0.0
H1957 H 0.74009 0.9373 0.74203 0.0
H1958 H 0.75474 0.91601 0.74621 0.0
H1959 H 0.73149 0.89594 0.72059 0.0
H1960 H 0.71671 0.91717 0.71639 0.0
H1961 H 0.70476 0.89397 0.72366 0.0
H1962 H 0.67322 0.90556 0.7922 0.0
H1963 H 0.65889 0.9374 0.78304 0.0
H1964 H 0.70314 0.94601 0.73844 0.0
C1965 C 0.73755 0.87754 0.76141 0.0
C1966 C 0.73617 0.86215 0.77547 0.0
C1967 C 0.72015 0.8616 0.78853 0.0
C1968 C 0.70589 0.87611 0.78773 0.0
C1969 C 0.70775 0.89109 0.77376 0.0
C1970 C 0.72317 0.89189 0.76082 0.0
C1971 C 0.72222 0.90994 0.74769 0.0
C1972 C 0.74137 0.92358 0.75087 0.0
C1973 C 0.71857 0.90388 0.72578 0.0
C1974 C 0.70407 0.91934 0.75549 0.0
C1975 C 0.69585 0.9082 0.77044 0.0
C1976 C 0.67944 0.91433 0.78039 0.0
C1977 C 0.67139 0.93245 0.77508 0.0
C1978 C 0.67978 0.94426 0.75996 0.0
C1979 C 0.69618 0.93734 0.74993 0.0
H1980 H 0.65398 0.54129 0.00175 0.0
H1981 H 0.6118 0.57295 0.96446 0.0
H1982 H 0.63384 0.60336 0.96826 0.0
H1983 H 0.66832 0.58128 0.03577 0.0
H1984 H 0.69441 0.57559 0.03819 0.0
H1985 H 0.67538 0.55617 0.03258 0.0
H1986 H 0.69367 0.54675 0.00127 0.0
H1987 H 0.71275 0.56617 0.00677 0.0
H1988 H 0.6991 0.56541 0.98303 0.0
H1989 H 0.65943 0.63049 0.97697 0.0
H1990 H 0.68801 0.65274 0.98889 0.0
H1991 H 0.71489 0.60365 0.01955 0.0
C1992 C 0.64943 0.55466 0.99444 0.0
C1993 C 0.6312 0.55478 0.98276 0.0
C1994 C 0.62579 0.57249 0.97329 0.0
C1995 C 0.63816 0.58985 0.97543 0.0
C1996 C 0.65603 0.58925 0.98696 0.0
C1997 C 0.66178 0.57213 0.99621 0.0
C1998 C 0.68192 0.57559 0.00757 0.0
C1999 C 0.67988 0.57194 0.02985 0.0
C2000 C 0.6978 0.56271 0.99915 0.0
C2001 C 0.68646 0.59737 0.00338 0.0
C2002 C 0.67122 0.60491 0.99154 0.0
C2003 C 0.67153 0.62475 0.98614 0.0
C2004 C 0.68782 0.63728 0.99304 0.0
C2005 C 0.70374 0.62994 0.00509 0.0
C2006 C 0.70307 0.60965 0.01018 0.0
H2007 H 0.24767 0.61969 0.22308 0.0
H2008 H 0.21451 0.66691 0.24723 0.0
H2009 H 0.18719 0.64263 0.25503 0.0
H2010 H 0.20453 0.58972 0.20224 0.0
H2011 H 0.2152 0.56665 0.20907 0.0
H2012 H 0.23143 0.58794 0.20373 0.0
H2013 H 0.25011 0.58502 0.23812 0.0
H2014 H 0.23404 0.56368 0.24349 0.0
H2015 H 0.23592 0.58466 0.26014 0.0
H2016 H 0.16435 0.61304 0.26207 0.0
H2017 H 0.14843 0.58017 0.26909 0.0
H2018 H 0.19688 0.55217 0.24124 0.0
C2019 C 0.23469 0.62498 0.23001 0.0
C2020 C 0.23326 0.64532 0.23438 0.0
C2021 C 0.21586 0.65152 0.24333 0.0
C2022 C 0.20026 0.63782 0.24791 0.0
C2023 C 0.20222 0.61792 0.24347 0.0
C2024 C 0.21902 0.6115 0.23478 0.0
C2025 C 0.21794 0.58916 0.23256 0.0
C2026 C 0.21723 0.58301 0.21059 0.0
C2027 C 0.23554 0.5801 0.24428 0.0
C2028 C 0.19808 0.58401 0.24173 0.0
C2029 C 0.18915 0.60082 0.24772 0.0
C2030 C 0.17112 0.59977 0.2573 0.0
C2031 C 0.16218 0.58103 0.26121 0.0
C2032 C 0.17133 0.56359 0.25563 0.0
C2033 C 0.18935 0.56519 0.24547 0.0
H2034 H 0.89893 0.56255 0.05407 0.0
H2035 H 0.88266 0.52726 0.00131 0.0
H2036 H 0.85241 0.54637 0.99529 0.0
H2037 H 0.84882 0.5663 0.0702 0.0
H2038 H 0.85332 0.59141 0.07904 0.0
H2039 H 0.87373 0.57507 0.07896 0.0
H2040 H 0.89401 0.60025 0.05789 0.0
H2041 H 0.87369 0.61669 0.05795 0.0
H2042 H 0.88293 0.60875 0.03477 0.0
H2043 H 0.82346 0.56928 0.99544 0.0
H2044 H 0.79909 0.59477 0.00118 0.0
H2045 H 0.83462 0.61454 0.05393 0.0
C2046 C 0.88896 0.55874 0.04131 0.0
C2047 C 0.89318 0.5434 0.02817 0.0
C2048 C 0.87987 0.53911 0.01146 0.0
C2049 C 0.86258 0.54979 0.00799 0.0
C2050 C 0.85882 0.56474 0.02133 0.0
C2051 C 0.8717 0.56925 0.03761 0.0
C2052 C 0.8644 0.58609 0.04963 0.0
C2053 C 0.85979 0.5793 0.0707 0.0
C2054 C 0.87967 0.604 0.05007 0.0
C2055 C 0.84538 0.59035 0.03761 0.0
C2056 C 0.84234 0.57788 0.02136 0.0
C2057 C 0.82571 0.57913 0.00812 0.0
C2058 C 0.81193 0.59362 0.01151 0.0
C2059 C 0.81493 0.60667 0.02799 0.0
C2060 C 0.83186 0.60484 0.04118 0.0
H2061 H 0.11676 0.9564 0.00227 0.0
H2062 H 0.14444 0.00594 0.03654 0.0
H2063 H 0.17762 0.99172 0.03456 0.0
H2064 H 0.14566 0.91978 0.02507 0.0
H2065 H 0.14746 0.90535 0.00281 0.0
H2066 H 0.12624 0.92025 0.00553 0.0
H2067 H 0.13384 0.93813 0.97267 0.0
H2068 H 0.15519 0.92333 0.96991 0.0
H2069 H 0.1584 0.94996 0.96978 0.0
H2070 H 0.20735 0.97153 0.03024 0.0
H2071 H 0.23136 0.94564 0.02583 0.0
H2072 H 0.18441 0.9089 0.99459 0.0
C2073 C 0.12987 0.96437 0.0091 0.0
C2074 C 0.12809 0.98228 0.01953 0.0
C2075 C 0.14549 0.99212 0.02861 0.0
C2076 C 0.1644 0.98425 0.02742 0.0
C2077 C 0.16564 0.96653 0.0171 0.0
C2078 C 0.14885 0.95664 0.00818 0.0
C2079 C 0.15413 0.93718 0.99915 0.0
C2080 C 0.1427 0.91961 0.00872 0.0
C2081 C 0.15016 0.93716 0.97653 0.0
C2082 C 0.17645 0.93751 0.0047 0.0
C2083 C 0.18281 0.95471 0.01482 0.0
C2084 C 0.20259 0.95806 0.02221 0.0
C2085 C 0.21612 0.94326 0.01962 0.0
C2086 C 0.2098 0.92524 0.00984 0.0
C2087 C 0.18978 0.92258 0.00193 0.0
loop_
_geom_bond_atom_site_label_1
_geom_bond_atom_site_label_2
_geom_bond_distance
_geom_bond_site_symmetry_2
_ccdc_geom_bond_type
C0 C1 1.386 . S
C0 C2 1.397 . S
C0 H24 0.931 . S
C1 C0 1.386 . S
C1 C5 1.397 . S
C2 C0 1.397 . S
C2 C3 1.384 1_556 S
C2 H25 0.930 . S
C3 C2 1.384 1_554 S
C3 C4 1.377 . S
C3 C6 1.481 . S
C4 C3 1.377 . S
C4 C5 1.389 1_554 S
C4 H26 0.929 . S
C5 C1 1.397 . S
C5 C4 1.389 1_556 S
C5 H27 0.931 1_556 S
C6 C3 1.481 . S
C6 C7 1.387 . S
C6 C11 1.390 . S
C7 C6 1.387 . S
C7 C8 1.401 . S
C7 H28 0.930 . S
C8 C7 1.401 . S
C8 C9 1.376 . S
C8 C17 1.511 . S
C9 C8 1.376 . S
C9 C10 1.392 . S
C9 H30 0.931 . S
C10 C9 1.392 . S
C10 C11 1.361 . S
C10 C12 1.500 . S
C11 C6 1.390 . S
C11 C10 1.361 . S
C11 H29 0.931 . S
C12 C10 1.500 . S
C12 C13 1.371 . S
C12 C14 1.365 . S
C13 C12 1.371 . S
C13 C23 1.386 1_455 S
C13 H31 0.931 . S
C14 C12 1.365 . S
C14 C15 1.409 1_455 S
C14 H32 0.929 . S
C15 C14 1.409 1_655 S
C15 C16 1.380 . S
C15 H33 0.930 . S
C16 C15 1.380 . S
C16 C23 1.357 . S
C17 C8 1.511 . S
C17 C18 1.341 . S
C17 C19 1.371 1_545 S
C18 C17 1.341 . S
C18 C22 1.394 1_545 S
C18 H34 0.930 1_554 S
C19 C17 1.371 1_565 S
C19 C20 1.392 . S
C19 H35 0.931 . S
C20 C19 1.392 . S
C20 C21 1.331 . S
C20 H38 0.932 . S
C21 C20 1.331 . S
C21 C22 1.336 . S
C22 C18 1.394 1_565 S
C22 C21 1.336 . S
C22 H37 0.929 1_554 S
C23 C13 1.386 1_655 S
C23 C16 1.357 . S
C23 H36 0.890 1_545 S
H24 C0 0.931 . S
H25 C2 0.930 . S
H26 C4 0.929 . S
H27 C5 0.931 1_554 S
H28 C7 0.930 . S
H29 C11 0.931 . S
H30 C9 0.931 . S
H31 C13 0.931 . S
H32 C14 0.929 . S
H33 C15 0.930 . S
H34 C18 0.930 1_556 S
H35 C19 0.931 . S
H36 C23 0.890 1_565 S
H37 C22 0.929 1_556 S
H38 C20 0.932 . S
C39 C40 1.386 . S
C39 C41 1.397 . S
C39 H63 0.931 . S
C40 C39 1.386 . S
C40 C44 1.397 . S
C41 C39 1.397 . S
C41 C42 1.384 . S
C41 H64 0.930 . S
C42 C41 1.384 . S
C42 C43 1.377 . S
C42 C45 1.481 . S
C43 C42 1.377 . S
C43 C44 1.389 . S
C43 H65 0.929 . S
C44 C40 1.397 . S
C44 C43 1.389 . S
C44 H66 0.931 . S
C45 C42 1.481 . S
C45 C46 1.387 . S
C45 C50 1.390 . S
C46 C45 1.387 . S
C46 C47 1.401 . S
C46 H67 0.930 . S
C47 C46 1.401 . S
C47 C48 1.376 . S
C47 C56 1.511 . S
C48 C47 1.376 . S
C48 C49 1.392 . S
C48 H69 0.931 . S
C49 C48 1.392 . S
C49 C50 1.361 . S
C49 C51 1.500 . S
C50 C45 1.390 . S
C50 C49 1.361 . S
C50 H68 0.931 . S
C51 C49 1.500 . S
C51 C52 1.371 . S
C51 C53 1.365 . S
C52 C51 1.371 . S
C52 C62 1.386 . S
C52 H70 0.931 . S
C53 C51 1.365 . S
C53 C54 1.409 . S
C53 H71 0.929 . S
C54 C53 1.409 . S
C54 C55 1.380 . S
C54 H72 0.930 . S
C55 C54 1.380 . S
C55 C62 1.357 . S
C56 C47 1.511 . S
C56 C57 1.341 . S
C56 C58 1.371 . S
C57 C56 1.341 . S
C57 C61 1.394 . S
C57 H73 0.930 . S
C58 C56 1.371 . S
C58 C59 1.392 . S
C58 H74 0.931 . S
C59 C58 1.392 . S
C59 C60 1.331 . S
C59 H77 0.932 . S
C60 C59 1.331 . S
C60 C61 1.336 . S
C61 C57 1.394 . S
C61 C60 1.336 . S
C61 H76 0.929 . S
C62 C52 1.386 . S
C62 C55 1.357 . S
C62 H75 0.928 . S
H63 C39 0.931 . S
H64 C41 0.930 . S
H65 C43 0.929 . S
H66 C44 0.931 . S
H67 C46 0.930 . S
H68 C50 0.931 . S
H69 C48 0.931 . S
H70 C52 0.931 . S
H71 C53 0.929 . S
H72 C54 0.930 . S
H73 C57 0.930 . S
H74 C58 0.931 . S
H75 C62 0.928 . S
H76 C61 0.929 . S
H77 C59 0.932 . S
C78 C79 1.386 . S
C78 C80 1.397 1_455 S
C78 H102 0.931 . S
C79 C78 1.386 . S
C79 C83 1.397 . S
C80 C78 1.397 1_655 S
C80 C81 1.384 1_655 S
C80 H103 0.930 . S
C81 C80 1.384 1_455 S
C81 C82 1.377 . S
C81 C84 1.481 1_455 S
C82 C81 1.377 . S
C82 C83 1.389 . S
C82 H104 0.929 . S
C83 C79 1.397 . S
C83 C82 1.389 . S
C83 H105 0.931 . S
C84 C81 1.481 1_655 S
C84 C85 1.387 . S
C84 C89 1.390 . S
C85 C84 1.387 . S
C85 C86 1.401 . S
C85 H106 0.930 . S
C86 C85 1.401 . S
C86 C87 1.376 . S
C86 C95 1.511 . S
C87 C86 1.376 . S
C87 C88 1.392 . S
C87 H108 0.931 . S
C88 C87 1.392 . S
C88 C89 1.361 . S
C88 C90 1.500 . S
C89 C84 1.390 . S
C89 C88 1.361 . S
C89 H107 0.931 1_655 S
C90 C88 1.500 . S
C90 C91 1.371 . S
C90 C92 1.365 1_655 S
C91 C90 1.371 . S
C91 C101 1.386 1_554 S
C91 H109 0.931 . S
C92 C90 1.365 1_455 S
C92 C93 1.409 . S
C92 H110 0.929 . S
C93 C92 1.409 . S
C93 C94 1.380 1_454 S
C93 H111 0.930 . S
C94 C93 1.380 1_656 S
C94 C101 1.357 . S
C95 C86 1.511 . S
C95 C96 1.341 . S
C95 C97 1.371 . S
C96 C95 1.341 . S
C96 C100 1.394 . S
C96 H112 0.930 . S
C97 C95 1.371 . S
C97 C98 1.392 . S
C97 H113 0.931 . S
C98 C97 1.392 . S
C98 C99 1.331 . S
C98 H116 0.932 . S
C99 C98 1.331 . S
C99 C100 1.336 . S
C100 C96 1.394 . S
C100 C99 1.336 . S
C100 H115 0.929 . S
C101 C91 1.386 1_556 S
C101 C94 1.357 . S
C101 H114 0.928 . S
H102 C78 0.931 . S
H103 C80 0.930 . S
H104 C82 0.929 . S
H105 C83 0.931 . S
H106 C85 0.930 . S
H107 C89 0.931 1_455 S
H108 C87 0.931 . S
H109 C91 0.931 . S
H110 C92 0.929 . S
H111 C93 0.930 . S
H112 C96 0.930 . S
H113 C97 0.931 . S
H114 C101 0.928 . S
H115 C100 0.929 . S
H116 C98 0.932 . S
C117 C118 1.386 . S
C117 C119 1.397 . S
C117 H141 0.931 . S
C118 C117 1.386 . S
C118 C122 1.397 . S
C119 C117 1.397 . S
C119 C120 1.384 . S
C119 H142 0.930 . S
C120 C119 1.384 . S
C120 C121 1.377 . S
C120 C123 1.481 . S
C121 C120 1.377 . S
C121 C122 1.389 . S
C121 H143 0.929 . S
C122 C118 1.397 . S
C122 C121 1.389 . S
C122 H144 0.931 . S
C123 C120 1.481 . S
C123 C124 1.387 . S
C123 C128 1.390 . S
C124 C123 1.387 . S
C124 C125 1.401 . S
C124 H145 0.930 . S
C125 C124 1.401 . S
C125 C126 1.376 . S
C125 C134 1.511 . S
C126 C125 1.376 . S
C126 C127 1.392 . S
C126 H147 0.931 . S
C127 C126 1.392 . S
C127 C128 1.361 . S
C127 C129 1.500 . S
C128 C123 1.390 . S
C128 C127 1.361 . S
C128 H146 0.931 . S
C129 C127 1.500 . S
C129 C130 1.371 . S
C129 C131 1.365 . S
C130 C129 1.371 . S
C130 C140 1.386 . S
C130 H148 0.931 . S
C131 C129 1.365 . S
C131 C132 1.409 . S
C131 H149 0.929 . S
C132 C131 1.409 . S
C132 C133 1.380 . S
C132 H150 0.930 . S
C133 C132 1.380 . S
C133 C140 1.357 . S
C134 C125 1.511 . S
C134 C135 1.341 . S
C134 C136 1.371 . S
C135 C134 1.341 . S
C135 C139 1.394 . S
C135 H151 0.930 . S
C136 C134 1.371 . S
C136 C137 1.392 . S
C136 H152 0.931 . S
C137 C136 1.392 . S
C137 C138 1.331 . S
C137 H155 0.932 . S
C138 C137 1.331 . S
C138 C139 1.336 . S
C139 C135 1.394 . S
C139 C138 1.336 . S
C139 H154 0.929 . S
C140 C130 1.386 . S
C140 C133 1.357 . S
C140 H153 0.928 . S
H141 C117 0.931 . S
H142 C119 0.930 . S
H143 C121 0.929 . S
H144 C122 0.931 . S
H145 C124 0.930 . S
H146 C128 0.931 . S
H147 C126 0.931 . S
H148 C130 0.931 . S
H149 C131 0.929 . S
H150 C132 0.930 . S
H151 C135 0.930 . S
H152 C136 0.931 . S
H153 C140 0.928 . S
H154 C139 0.929 . S
H155 C137 0.932 . S
C156 C157 1.389 . S
C156 C158 1.397 1_655 S
C156 H180 0.931 . S
C157 C156 1.389 . S
C157 C161 1.391 1_655 S
C158 C156 1.397 1_455 S
C158 C159 1.384 . S
C158 H181 0.918 1_455 S
C159 C158 1.384 . S
C159 C160 1.377 . S
C159 C162 1.481 . S
C160 C159 1.377 . S
C160 C161 1.389 . S
C160 H182 0.929 . S
C161 C157 1.391 1_455 S
C161 C160 1.389 . S
C161 H183 0.931 . S
C162 C159 1.481 . S
C162 C163 1.387 . S
C162 C167 1.390 . S
C163 C162 1.387 . S
C163 C164 1.401 . S
C163 H184 0.930 . S
C164 C163 1.401 . S
C164 C165 1.376 . S
C164 C173 1.511 . S
C165 C164 1.376 . S
C165 C166 1.392 . S
C165 H186 0.931 . S
C166 C165 1.392 . S
C166 C167 1.361 . S
C166 C168 1.500 . S
C167 C162 1.390 . S
C167 C166 1.361 . S
C167 H185 0.931 . S
C168 C166 1.500 . S
C168 C169 1.371 1_565 S
C168 C170 1.365 1_565 S
C169 C168 1.371 1_545 S
C169 C179 1.386 . S
C169 H187 0.931 1_545 S
C170 C168 1.365 1_545 S
C170 C171 1.409 . S
C170 H188 0.929 . S
C171 C170 1.409 . S
C171 C172 1.380 . S
C171 H189 0.930 . S
C172 C171 1.380 . S
C172 C179 1.357 . S
C173 C164 1.511 . S
C173 C174 1.341 . S
C173 C175 1.371 . S
C174 C173 1.341 . S
C174 C178 1.394 . S
C174 H190 0.930 . S
C175 C173 1.371 . S
C175 C176 1.392 . S
C175 H191 0.931 . S
C176 C175 1.392 . S
C176 C177 1.331 . S
C176 H194 0.932 . S
C177 C176 1.331 . S
C177 C178 1.336 . S
C178 C174 1.394 . S
C178 C177 1.336 . S
C178 H193 0.929 . S
C179 C169 1.386 . S
C179 C172 1.357 . S
C179 H192 0.928 . S
H180 C156 0.931 . S
H181 C158 0.918 1_655 S
H182 C160 0.929 . S
H183 C161 0.931 . S
H184 C163 0.930 . S
H185 C167 0.931 . S
H186 C165 0.931 . S
H187 C169 0.931 1_565 S
H188 C170 0.929 . S
H189 C171 0.930 . S
H190 C174 0.930 . S
H191 C175 0.931 . S
H192 C179 0.928 . S
H193 C178 0.929 . S
H194 C176 0.932 . S
C195 C196 1.386 . S
C195 C197 1.397 . S
C195 H219 0.931 . S
C196 C195 1.386 . S
C196 C200 1.397 . S
C197 C195 1.397 . S
C197 C198 1.384 . S
C197 H220 0.930 . S
C198 C197 1.384 . S
C198 C199 1.377 . S
C198 C201 1.481 . S
C199 C198 1.377 . S
C199 C200 1.389 . S
C199 H221 0.929 . S
C200 C196 1.397 . S
C200 C199 1.389 . S
C200 H222 0.931 . S
C201 C198 1.481 . S
C201 C202 1.387 . S
C201 C206 1.390 . S
C202 C201 1.387 . S
C202 C203 1.401 . S
C202 H223 0.930 . S
C203 C202 1.401 . S
C203 C204 1.376 . S
C203 C212 1.511 . S
C204 C203 1.376 . S
C204 C205 1.392 . S
C204 H225 0.931 . S
C205 C204 1.392 . S
C205 C206 1.361 . S
C205 C207 1.500 . S
C206 C201 1.390 . S
C206 C205 1.361 . S
C206 H224 0.931 . S
C207 C205 1.500 . S
C207 C208 1.371 . S
C207 C209 1.365 . S
C208 C207 1.371 . S
C208 C218 1.386 . S
C208 H226 0.931 . S
C209 C207 1.365 . S
C209 C210 1.409 . S
C209 H227 0.929 . S
C210 C209 1.409 . S
C210 C211 1.380 . S
C210 H228 0.930 . S
C211 C210 1.380 . S
C211 C218 1.357 . S
C212 C203 1.511 . S
C212 C213 1.341 . S
C212 C214 1.371 . S
C213 C212 1.341 . S
C213 C217 1.394 . S
C213 H229 0.930 . S
C214 C212 1.371 . S
C214 C215 1.392 . S
C214 H230 0.931 . S
C215 C214 1.392 . S
C215 C216 1.331 . S
C215 H233 0.932 . S
C216 C215 1.331 . S
C216 C217 1.336 . S
C217 C213 1.394 . S
C217 C216 1.336 . S
C217 H232 0.929 . S
C218 C208 1.386 . S
C218 C211 1.357 . S
C218 H231 0.928 . S
H219 C195 0.931 . S
H220 C197 0.930 . S
H221 C199 0.929 . S
H222 C200 0.931 . S
H223 C202 0.930 . S
H224 C206 0.931 . S
H225 C204 0.931 . S
H226 C208 0.931 . S
H227 C209 0.929 . S
H228 C210 0.930 . S
H229 C213 0.930 . S
H230 C214 0.931 . S
H231 C218 0.928 . S
H232 C217 0.929 . S
H233 C215 0.932 . S
C234 C235 1.386 . S
C234 C236 1.397 . S
C234 H258 0.931 . S
C235 C234 1.386 . S
C235 C239 1.397 . S
C236 C234 1.397 . S
C236 C237 1.384 . S
C236 H259 0.930 . S
C237 C236 1.384 . S
C237 C238 1.377 . S
C237 C240 1.481 . S
C238 C237 1.377 . S
C238 C239 1.389 . S
C238 H260 0.929 . S
C239 C235 1.397 . S
C239 C238 1.389 . S
C239 H261 0.931 . S
C240 C237 1.481 . S
C240 C241 1.387 . S
C240 C245 1.390 . S
C241 C240 1.387 . S
C241 C242 1.401 . S
C241 H262 0.930 . S
C242 C241 1.401 . S
C242 C243 1.376 . S
C242 C251 1.511 . S
C243 C242 1.376 . S
C243 C244 1.392 . S
C243 H264 0.931 . S
C244 C243 1.392 . S
C244 C245 1.361 . S
C244 C246 1.500 . S
C245 C240 1.390 . S
C245 C244 1.361 . S
C245 H263 0.931 . S
C246 C244 1.500 . S
C246 C247 1.371 . S
C246 C248 1.365 . S
C247 C246 1.371 . S
C247 C257 1.386 . S
C247 H265 0.931 . S
C248 C246 1.365 . S
C248 C249 1.409 . S
C248 H266 0.929 . S
C249 C248 1.409 . S
C249 C250 1.380 . S
C249 H267 0.930 . S
C250 C249 1.380 . S
C250 C257 1.357 . S
C251 C242 1.511 . S
C251 C252 1.341 1_655 S
C251 C253 1.371 . S
C252 C251 1.341 1_455 S
C252 C256 1.394 . S
C252 H268 0.930 . S
C253 C251 1.371 . S
C253 C254 1.392 1_655 S
C253 H269 0.931 . S
C254 C253 1.392 1_455 S
C254 C255 1.331 . S
C254 H272 0.932 . S
C255 C254 1.331 . S
C255 C256 1.336 . S
C256 C252 1.394 . S
C256 C255 1.336 . S
C256 H271 0.929 . S
C257 C247 1.386 . S
C257 C250 1.357 . S
C257 H270 0.928 . S
H258 C234 0.931 . S
H259 C236 0.930 . S
H260 C238 0.929 . S
H261 C239 0.931 . S
H262 C241 0.930 . S
H263 C245 0.931 . S
H264 C243 0.931 . S
H265 C247 0.931 . S
H266 C248 0.929 . S
H267 C249 0.930 . S
H268 C252 0.930 . S
H269 C253 0.931 . S
H270 C257 0.928 . S
H271 C256 0.929 . S
H272 C254 0.932 . S
C273 C274 1.386 . S
C273 C275 1.397 . S
C273 H297 0.931 . S
C274 C273 1.386 . S
C274 C278 1.397 . S
C275 C273 1.397 . S
C275 C276 1.384 . S
C275 H298 0.930 . S
C276 C275 1.384 . S
C276 C277 1.377 . S
C276 C279 1.481 . S
C277 C276 1.377 . S
C277 C278 1.389 . S
C277 H299 0.929 . S
C278 C274 1.397 . S
C278 C277 1.389 . S
C278 H300 0.931 . S
C279 C276 1.481 . S
C279 C280 1.387 . S
C279 C284 1.390 . S
C280 C279 1.387 . S
C280 C281 1.401 . S
C280 H301 0.930 . S
C281 C280 1.401 . S
C281 C282 1.376 . S
C281 C290 1.511 . S
C282 C281 1.376 . S
C282 C283 1.392 . S
C282 H303 0.931 . S
C283 C282 1.392 . S
C283 C284 1.361 . S
C283 C285 1.500 . S
C284 C279 1.390 . S
C284 C283 1.361 . S
C284 H302 0.931 . S
C285 C283 1.500 . S
C285 C286 1.371 . S
C285 C287 1.365 . S
C286 C285 1.371 . S
C286 C296 1.386 . S
C286 H304 0.931 . S
C287 C285 1.365 . S
C287 C288 1.409 . S
C287 H305 0.929 . S
C288 C287 1.409 . S
C288 C289 1.380 . S
C288 H306 0.930 . S
C289 C288 1.380 . S
C289 C296 1.357 . S
C290 C281 1.511 . S
C290 C291 1.341 . S
C290 C292 1.371 . S
C291 C290 1.341 . S
C291 C295 1.394 . S
C291 H307 0.930 . S
C292 C290 1.371 . S
C292 C293 1.392 . S
C292 H308 0.931 . S
C293 C292 1.392 . S
C293 C294 1.331 . S
C293 H311 0.932 . S
C294 C293 1.331 . S
C294 C295 1.336 . S
C295 C291 1.394 . S
C295 C294 1.336 . S
C295 H310 0.929 . S
C296 C286 1.386 . S
C296 C289 1.357 . S
C296 H309 0.928 . S
H297 C273 0.931 . S
H298 C275 0.930 . S
H299 C277 0.929 . S
H300 C278 0.931 . S
H301 C280 0.930 . S
H302 C284 0.931 . S
H303 C282 0.931 . S
H304 C286 0.931 . S
H305 C287 0.929 . S
H306 C288 0.930 . S
H307 C291 0.930 . S
H308 C292 0.931 . S
H309 C296 0.928 . S
H310 C295 0.929 . S
H311 C293 0.932 . S
C312 C313 1.386 . S
C312 C314 1.397 . S
C312 H336 0.931 . S
C313 C312 1.386 . S
C313 C317 1.397 . S
C314 C312 1.397 . S
C314 C315 1.384 . S
C314 H337 0.930 . S
C315 C314 1.384 . S
C315 C316 1.377 . S
C315 C318 1.481 . S
C316 C315 1.377 . S
C316 C317 1.389 . S
C316 H338 0.929 . S
C317 C313 1.397 . S
C317 C316 1.389 . S
C317 H339 0.931 . S
C318 C315 1.481 . S
C318 C319 1.387 . S
C318 C323 1.390 . S
C319 C318 1.387 . S
C319 C320 1.401 . S
C319 H340 0.930 . S
C320 C319 1.401 . S
C320 C321 1.376 . S
C320 C329 1.511 . S
C321 C320 1.376 . S
C321 C322 1.392 . S
C321 H342 0.931 . S
C322 C321 1.392 . S
C322 C323 1.361 . S
C322 C324 1.500 . S
C323 C318 1.390 . S
C323 C322 1.361 . S
C323 H341 0.931 . S
C324 C322 1.500 . S
C324 C325 1.371 . S
C324 C326 1.365 . S
C325 C324 1.371 . S
C325 C335 1.386 . S
C325 H343 0.931 . S
C326 C324 1.365 . S
C326 C327 1.409 . S
C326 H344 0.929 . S
C327 C326 1.409 . S
C327 C328 1.380 . S
C327 H345 0.930 . S
C328 C327 1.380 . S
C328 C335 1.357 . S
C329 C320 1.511 . S
C329 C330 1.341 . S
C329 C331 1.371 . S
C330 C329 1.341 . S
C330 C334 1.394 . S
C330 H346 0.930 . S
C331 C329 1.371 . S
C331 C332 1.392 . S
C331 H347 0.931 . S
C332 C331 1.392 . S
C332 C333 1.331 . S
C332 H350 0.932 . S
C333 C332 1.331 . S
C333 C334 1.336 . S
C334 C330 1.394 . S
C334 C333 1.336 . S
C334 H349 0.929 . S
C335 C325 1.386 . S
C335 C328 1.357 . S
C335 H348 0.928 . S
H336 C312 0.931 . S
H337 C314 0.930 . S
H338 C316 0.929 . S
H339 C317 0.931 . S
H340 C319 0.930 . S
H341 C323 0.931 . S
H342 C321 0.931 . S
H343 C325 0.931 . S
H344 C326 0.929 . S
H345 C327 0.930 . S
H346 C330 0.930 . S
H347 C331 0.931 . S
H348 C335 0.928 . S
H349 C334 0.929 . S
H350 C332 0.932 . S
C351 C352 1.386 . S
C351 C353 1.397 . S
C351 H375 0.931 . S
C352 C351 1.386 . S
C352 C356 1.397 . S
C353 C351 1.397 . S
C353 C354 1.384 . S
C353 H376 0.930 . S
C354 C353 1.384 . S
C354 C355 1.377 . S
C354 C357 1.481 . S
C355 C354 1.377 . S
C355 C356 1.389 . S
C355 H377 0.929 . S
C356 C352 1.397 . S
C356 C355 1.389 . S
C356 H378 0.931 . S
C357 C354 1.481 . S
C357 C358 1.387 . S
C357 C362 1.390 . S
C358 C357 1.387 . S
C358 C359 1.401 . S
C358 H379 0.930 . S
C359 C358 1.401 . S
C359 C360 1.376 . S
C359 C368 1.511 . S
C360 C359 1.376 . S
C360 C361 1.392 . S
C360 H381 0.931 . S
C361 C360 1.392 . S
C361 C362 1.361 . S
C361 C363 1.500 . S
C362 C357 1.390 . S
C362 C361 1.361 . S
C362 H380 0.931 . S
C363 C361 1.500 . S
C363 C364 1.371 . S
C363 C365 1.365 . S
C364 C363 1.371 . S
C364 C374 1.386 . S
C364 H382 0.931 . S
C365 C363 1.365 . S
C365 C366 1.409 . S
C365 H383 0.929 . S
C366 C365 1.409 . S
C366 C367 1.380 . S
C366 H384 0.930 . S
C367 C366 1.380 . S
C367 C374 1.357 . S
C368 C359 1.511 . S
C368 C369 1.341 1_565 S
C368 C370 1.371 . S
C369 C368 1.341 1_545 S
C369 C373 1.394 . S
C369 H385 0.930 . S
C370 C368 1.371 . S
C370 C371 1.392 1_565 S
C370 H386 0.931 . S
C371 C370 1.392 1_545 S
C371 C372 1.331 . S
C371 H389 0.932 . S
C372 C371 1.331 . S
C372 C373 1.336 . S
C373 C369 1.394 . S
C373 C372 1.336 . S
C373 H388 0.929 . S
C374 C364 1.386 . S
C374 C367 1.357 . S
C374 H387 0.928 . S
H375 C351 0.931 . S
H376 C353 0.930 . S
H377 C355 0.929 . S
H378 C356 0.931 . S
H379 C358 0.930 . S
H380 C362 0.931 . S
H381 C360 0.931 . S
H382 C364 0.931 . S
H383 C365 0.929 . S
H384 C366 0.930 . S
H385 C369 0.930 . S
H386 C370 0.931 . S
H387 C374 0.928 . S
H388 C373 0.929 . S
H389 C371 0.932 . S
C390 C391 1.386 . S
C390 C392 1.397 . S
C390 H414 0.931 . S
C391 C390 1.386 . S
C391 C395 1.397 . S
C392 C390 1.397 . S
C392 C393 1.384 . S
C392 H415 0.930 . S
C393 C392 1.384 . S
C393 C394 1.377 . S
C393 C396 1.481 . S
C394 C393 1.377 . S
C394 C395 1.389 . S
C394 H416 0.929 . S
C395 C391 1.397 . S
C395 C394 1.389 . S
C395 H417 0.931 . S
C396 C393 1.481 . S
C396 C397 1.387 . S
C396 C401 1.390 . S
C397 C396 1.387 . S
C397 C398 1.401 . S
C397 H418 0.930 . S
C398 C397 1.401 . S
C398 C399 1.376 . S
C398 C407 1.511 . S
C399 C398 1.376 . S
C399 C400 1.392 . S
C399 H420 0.931 . S
C400 C399 1.392 . S
C400 C401 1.361 . S
C400 C402 1.500 . S
C401 C396 1.390 . S
C401 C400 1.361 . S
C401 H419 0.931 . S
C402 C400 1.500 . S
C402 C403 1.371 . S
C402 C404 1.365 . S
C403 C402 1.371 . S
C403 C413 1.386 . S
C403 H421 0.931 . S
C404 C402 1.365 . S
C404 C405 1.409 . S
C404 H422 0.929 . S
C405 C404 1.409 . S
C405 C406 1.380 . S
C405 H423 0.930 . S
C406 C405 1.380 . S
C406 C413 1.357 . S
C407 C398 1.511 . S
C407 C408 1.341 . S
C407 C409 1.371 . S
C408 C407 1.341 . S
C408 C412 1.394 . S
C408 H424 0.930 . S
C409 C407 1.371 . S
C409 C410 1.392 . S
C409 H425 0.931 . S
C410 C409 1.392 . S
C410 C411 1.331 . S
C410 H428 0.932 . S
C411 C410 1.331 . S
C411 C412 1.336 . S
C412 C408 1.394 . S
C412 C411 1.336 . S
C412 H427 0.929 . S
C413 C403 1.386 . S
C413 C406 1.357 . S
C413 H426 0.928 . S
H414 C390 0.931 . S
H415 C392 0.930 . S
H416 C394 0.929 . S
H417 C395 0.931 . S
H418 C397 0.930 . S
H419 C401 0.931 . S
H420 C399 0.931 . S
H421 C403 0.931 . S
H422 C404 0.929 . S
H423 C405 0.930 . S
H424 C408 0.930 . S
H425 C409 0.931 . S
H426 C413 0.928 . S
H427 C412 0.929 . S
H428 C410 0.932 . S
C429 C430 1.386 . S
C429 C431 1.397 . S
C429 H453 0.931 . S
C430 C429 1.386 . S
C430 C434 1.397 . S
C431 C429 1.397 . S
C431 C432 1.384 . S
C431 H454 0.930 . S
C432 C431 1.384 . S
C432 C433 1.377 . S
C432 C435 1.481 . S
C433 C432 1.377 . S
C433 C434 1.389 . S
C433 H455 0.929 . S
C434 C430 1.397 . S
C434 C433 1.389 . S
C434 H456 0.931 . S
C435 C432 1.481 . S
C435 C436 1.387 . S
C435 C440 1.390 . S
C436 C435 1.387 . S
C436 C437 1.401 . S
C436 H457 0.930 . S
C437 C436 1.401 . S
C437 C438 1.376 . S
C437 C446 1.511 . S
C438 C437 1.376 . S
C438 C439 1.392 . S
C438 H459 0.931 . S
C439 C438 1.392 . S
C439 C440 1.361 . S
C439 C441 1.500 . S
C440 C435 1.390 . S
C440 C439 1.361 . S
C440 H458 0.931 . S
C441 C439 1.500 . S
C441 C442 1.371 . S
C441 C443 1.365 . S
C442 C441 1.371 . S
C442 C452 1.386 . S
C442 H460 0.931 . S
C443 C441 1.365 . S
C443 C444 1.409 . S
C443 H461 0.929 . S
C444 C443 1.409 . S
C444 C445 1.380 . S
C444 H462 0.930 . S
C445 C444 1.380 . S
C445 C452 1.357 . S
C446 C437 1.511 . S
C446 C447 1.341 . S
C446 C448 1.371 . S
C447 C446 1.341 . S
C447 C451 1.394 . S
C447 H463 0.930 . S
C448 C446 1.371 . S
C448 C449 1.392 . S
C448 H464 0.931 . S
C449 C448 1.392 . S
C449 C450 1.331 . S
C449 H467 0.932 . S
C450 C449 1.331 . S
C450 C451 1.336 . S
C451 C447 1.394 . S
C451 C450 1.336 . S
C451 H466 0.929 . S
C452 C442 1.386 . S
C452 C445 1.357 . S
C452 H465 0.928 . S
H453 C429 0.931 . S
H454 C431 0.930 . S
H455 C433 0.929 . S
H456 C434 0.931 . S
H457 C436 0.930 . S
H458 C440 0.931 . S
H459 C438 0.931 . S
H460 C442 0.931 . S
H461 C443 0.929 . S
H462 C444 0.930 . S
H463 C447 0.930 . S
H464 C448 0.931 . S
H465 C452 0.928 . S
H466 C451 0.929 . S
H467 C449 0.932 . S
C468 C469 1.386 . S
C468 C470 1.397 . S
C468 H492 0.931 . S
C469 C468 1.386 . S
C469 C473 1.397 . S
C470 C468 1.397 . S
C470 C471 1.384 . S
C470 H493 0.930 . S
C471 C470 1.384 . S
C471 C472 1.377 . S
C471 C474 1.481 . S
C472 C471 1.377 . S
C472 C473 1.389 . S
C472 H494 0.929 . S
C473 C469 1.397 . S
C473 C472 1.389 . S
C473 H495 0.931 . S
C474 C471 1.481 . S
C474 C475 1.387 . S
C474 C479 1.390 . S
C475 C474 1.387 . S
C475 C476 1.401 . S
C475 H496 0.930 . S
C476 C475 1.401 . S
C476 C477 1.376 . S
C476 C485 1.511 . S
C477 C476 1.376 . S
C477 C478 1.392 . S
C477 H498 0.931 . S
C478 C477 1.392 . S
C478 C479 1.361 . S
C478 C480 1.500 . S
C479 C474 1.390 . S
C479 C478 1.361 . S
C479 H497 0.931 . S
C480 C478 1.500 . S
C480 C481 1.371 . S
C480 C482 1.365 . S
C481 C480 1.371 . S
C481 C491 1.386 . S
C481 H499 0.931 . S
C482 C480 1.365 . S
C482 C483 1.409 . S
C482 H500 0.929 . S
C483 C482 1.409 . S
C483 C484 1.380 . S
C483 H501 0.930 . S
C484 C483 1.380 . S
C484 C491 1.357 . S
C485 C476 1.511 . S
C485 C486 1.341 . S
C485 C487 1.371 . S
C486 C485 1.341 . S
C486 C490 1.394 . S
C486 H502 0.930 . S
C487 C485 1.371 . S
C487 C488 1.392 . S
C487 H503 0.931 . S
C488 C487 1.392 . S
C488 C489 1.331 . S
C488 H506 0.932 . S
C489 C488 1.331 . S
C489 C490 1.336 . S
C490 C486 1.394 . S
C490 C489 1.336 . S
C490 H505 0.929 . S
C491 C481 1.386 . S
C491 C484 1.357 . S
C491 H504 0.928 . S
H492 C468 0.931 . S
H493 C470 0.930 . S
H494 C472 0.929 . S
H495 C473 0.931 . S
H496 C475 0.930 . S
H497 C479 0.931 . S
H498 C477 0.931 . S
H499 C481 0.931 . S
H500 C482 0.929 . S
H501 C483 0.930 . S
H502 C486 0.930 . S
H503 C487 0.931 . S
H504 C491 0.928 . S
H505 C490 0.929 . S
H506 C488 0.932 . S
C507 C508 1.386 . S
C507 C509 1.397 . S
C507 H531 0.931 . S
C508 C507 1.386 . S
C508 C512 1.397 . S
C509 C507 1.397 . S
C509 C510 1.384 . S
C509 H532 0.930 . S
C510 C509 1.384 . S
C510 C511 1.377 . S
C510 C513 1.481 . S
C511 C510 1.377 . S
C511 C512 1.389 . S
C511 H533 0.929 . S
C512 C508 1.397 . S
C512 C511 1.389 . S
C512 H534 0.931 . S
C513 C510 1.481 . S
C513 C514 1.387 . S
C513 C518 1.390 . S
C514 C513 1.387 . S
C514 C515 1.401 . S
C514 H535 0.930 . S
C515 C514 1.401 . S
C515 C516 1.376 . S
C515 C524 1.511 . S
C516 C515 1.376 . S
C516 C517 1.392 . S
C516 H537 0.931 . S
C517 C516 1.392 . S
C517 C518 1.361 . S
C517 C519 1.500 . S
C518 C513 1.390 . S
C518 C517 1.361 . S
C518 H536 0.931 . S
C519 C517 1.500 . S
C519 C520 1.371 . S
C519 C521 1.365 . S
C520 C519 1.371 . S
C520 C530 1.386 . S
C520 H538 0.931 1_556 S
C521 C519 1.365 . S
C521 C522 1.409 . S
C521 H539 0.929 . S
C522 C521 1.409 . S
C522 C523 1.380 . S
C522 H540 0.930 . S
C523 C522 1.380 . S
C523 C530 1.357 . S
C524 C515 1.511 . S
C524 C525 1.341 . S
C524 C526 1.371 1_556 S
C525 C524 1.341 . S
C525 C529 1.394 1_556 S
C525 H541 0.930 . S
C526 C524 1.371 1_554 S
C526 C527 1.392 . S
C526 H542 0.931 . S
C527 C526 1.392 . S
C527 C528 1.331 . S
C527 H545 0.932 . S
C528 C527 1.331 . S
C528 C529 1.336 . S
C529 C525 1.394 1_554 S
C529 C528 1.336 . S
C529 H544 0.929 . S
C530 C520 1.386 . S
C530 C523 1.357 . S
C530 H543 0.928 1_556 S
H531 C507 0.931 . S
H532 C509 0.930 . S
H533 C511 0.929 . S
H534 C512 0.931 . S
H535 C514 0.930 . S
H536 C518 0.931 . S
H537 C516 0.931 . S
H538 C520 0.931 1_554 S
H539 C521 0.929 . S
H540 C522 0.930 . S
H541 C525 0.930 . S
H542 C526 0.931 . S
H543 C530 0.928 1_554 S
H544 C529 0.929 . S
H545 C527 0.932 . S
C546 C547 1.386 . S
C546 C548 1.397 . S
C546 H570 0.931 . S
C547 C546 1.386 . S
C547 C551 1.397 . S
C548 C546 1.397 . S
C548 C549 1.384 . S
C548 H571 0.930 . S
C549 C548 1.384 . S
C549 C550 1.377 . S
C549 C552 1.481 . S
C550 C549 1.377 . S
C550 C551 1.389 . S
C550 H572 0.929 . S
C551 C547 1.397 . S
C551 C550 1.389 . S
C551 H573 0.931 . S
C552 C549 1.481 . S
C552 C553 1.387 . S
C552 C557 1.390 . S
C553 C552 1.387 . S
C553 C554 1.401 . S
C553 H574 0.930 . S
C554 C553 1.401 . S
C554 C555 1.376 . S
C554 C563 1.511 . S
C555 C554 1.376 . S
C555 C556 1.392 . S
C555 H576 0.931 . S
C556 C555 1.392 . S
C556 C557 1.361 . S
C556 C558 1.500 . S
C557 C552 1.390 . S
C557 C556 1.361 . S
C557 H575 0.931 . S
C558 C556 1.500 . S
C558 C559 1.371 . S
C558 C560 1.365 . S
C559 C558 1.371 . S
C559 C569 1.386 . S
C559 H577 0.931 . S
C560 C558 1.365 . S
C560 C561 1.409 . S
C560 H578 0.929 . S
C561 C560 1.409 . S
C561 C562 1.380 . S
C561 H579 0.930 . S
C562 C561 1.380 . S
C562 C569 1.357 . S
C563 C554 1.511 . S
C563 C564 1.341 . S
C563 C565 1.371 . S
C564 C563 1.341 . S
C564 C568 1.394 . S
C564 H580 0.930 . S
C565 C563 1.371 . S
C565 C566 1.392 . S
C565 H581 0.931 . S
C566 C565 1.392 . S
C566 C567 1.331 . S
C566 H584 0.932 . S
C567 C566 1.331 . S
C567 C568 1.336 . S
C568 C564 1.394 . S
C568 C567 1.336 . S
C568 H583 0.929 . S
C569 C559 1.386 . S
C569 C562 1.357 . S
C569 H582 0.928 . S
H570 C546 0.931 . S
H571 C548 0.930 . S
H572 C550 0.929 . S
H573 C551 0.931 . S
H574 C553 0.930 . S
H575 C557 0.931 . S
H576 C555 0.931 . S
H577 C559 0.931 . S
H578 C560 0.929 . S
H579 C561 0.930 . S
H580 C564 0.930 . S
H581 C565 0.931 . S
H582 C569 0.928 . S
H583 C568 0.929 . S
H584 C566 0.932 . S
C585 C586 1.386 . S
C585 C587 1.397 1_554 S
C585 H609 0.931 1_554 S
C586 C585 1.386 . S
C586 C590 1.397 . S
C587 C585 1.397 1_556 S
C587 C588 1.384 . S
C587 H610 0.930 . S
C588 C587 1.384 . S
C588 C589 1.377 1_556 S
C588 C591 1.481 . S
C589 C588 1.377 1_554 S
C589 C590 1.389 . S
C589 H611 0.929 . S
C590 C586 1.397 . S
C590 C589 1.389 . S
C590 H612 0.931 . S
C591 C588 1.481 . S
C591 C592 1.387 . S
C591 C596 1.390 . S
C592 C591 1.387 . S
C592 C593 1.401 . S
C592 H613 0.930 . S
C593 C592 1.401 . S
C593 C594 1.376 . S
C593 C602 1.511 . S
C594 C593 1.376 . S
C594 C595 1.392 . S
C594 H615 0.931 . S
C595 C594 1.392 . S
C595 C596 1.361 . S
C595 C597 1.500 . S
C596 C591 1.390 . S
C596 C595 1.361 . S
C596 H614 0.931 . S
C597 C595 1.500 . S
C597 C598 1.371 1_545 S
C597 C599 1.365 . S
C598 C597 1.371 1_565 S
C598 C608 1.386 . S
C598 H616 0.931 . S
C599 C597 1.365 . S
C599 C600 1.414 1_545 S
C599 H617 0.929 1_556 S
C600 C599 1.414 1_565 S
C600 C601 1.396 . S
C600 H618 0.910 1_556 S
C601 C600 1.396 . S
C601 C608 1.357 . S
C602 C593 1.511 . S
C602 C603 1.341 . S
C602 C604 1.371 . S
C603 C602 1.341 . S
C603 C607 1.394 . S
C603 H619 0.930 . S
C604 C602 1.371 . S
C604 C605 1.392 . S
C604 H620 0.931 1_545 S
C605 C604 1.392 . S
C605 C606 1.331 . S
C605 H623 0.932 1_545 S
C606 C605 1.331 . S
C606 C607 1.336 . S
C607 C603 1.394 . S
C607 C606 1.336 . S
C607 H622 0.929 . S
C608 C598 1.386 . S
C608 C601 1.357 . S
C608 H621 0.928 . S
H609 C585 0.931 1_556 S
H610 C587 0.930 . S
H611 C589 0.929 . S
H612 C590 0.931 . S
H613 C592 0.930 . S
H614 C596 0.931 . S
H615 C594 0.931 . S
H616 C598 0.931 . S
H617 C599 0.929 1_554 S
H618 C600 0.910 1_554 S
H619 C603 0.930 . S
H620 C604 0.931 1_565 S
H621 C608 0.928 . S
H622 C607 0.929 . S
H623 C605 0.932 1_565 S
Mg624 O625 2.035 . S
Mg624 O631 1.986 1_554 S
Mg624 O633 2.114 . S
Mg624 O634 2.251 . S
Mg624 O637 2.010 . S
O625 Mg624 2.035 . S
O625 C628 1.245 1_554 S
O626 Mg627 2.028 . S
O626 C628 1.248 . S
Mg627 O626 2.028 . S
Mg627 O632 2.032 . S
Mg627 O634 2.079 1_556 S
C628 O625 1.245 1_556 S
C628 O626 1.248 . S
C629 O630 1.264 . S
C629 O637 1.249 . S
O630 C629 1.264 . S
O631 Mg624 1.986 1_556 S
O631 C635 1.246 . S
O632 Mg627 2.032 . S
O632 C635 1.259 . S
O633 Mg624 2.114 . S
O633 C636 1.252 . S
O634 Mg624 2.251 . S
O634 Mg627 2.079 1_554 S
O634 C636 1.273 . S
C635 O631 1.246 . S
C635 O632 1.259 . S
C636 O633 1.252 . S
C636 O634 1.273 . S
O637 Mg624 2.010 . S
O637 C629 1.249 . S
Mg638 O639 2.028 . S
Mg638 O645 1.986 . S
Mg638 O647 2.114 . S
Mg638 O648 2.251 . S
Mg638 O651 2.010 . S
O639 Mg638 2.028 . S
O639 C642 1.250 . S
O640 Mg641 2.028 . S
O640 C642 1.248 . S
Mg641 O640 2.028 . S
Mg641 O646 2.032 . S
Mg641 O648 2.079 . S
C642 O639 1.250 . S
C642 O640 1.248 . S
C643 O644 1.264 . S
C643 O651 1.249 . S
O644 C643 1.264 . S
O645 Mg638 1.986 . S
O645 C649 1.246 . S
O646 Mg641 2.032 . S
O646 C649 1.259 . S
O647 Mg638 2.114 . S
O647 C650 1.252 . S
O648 Mg638 2.251 . S
O648 Mg641 2.079 . S
O648 C650 1.273 . S
C649 O645 1.246 . S
C649 O646 1.259 . S
C650 O647 1.252 . S
C650 O648 1.273 . S
O651 Mg638 2.010 . S
O651 C643 1.249 . S
Mg652 O653 2.028 . S
Mg652 O659 1.986 1_554 S
Mg652 O661 2.114 . S
Mg652 O662 2.251 . S
Mg652 O665 2.010 . S
O653 Mg652 2.028 . S
O653 C656 1.257 . S
O654 Mg655 2.028 . S
O654 C656 1.245 1_556 S
Mg655 O654 2.028 . S
Mg655 O660 2.032 . S
Mg655 O662 2.079 1_556 S
C656 O653 1.257 . S
C656 O654 1.245 1_554 S
C657 O658 1.264 . S
C657 O665 1.249 . S
O658 C657 1.264 . S
O659 Mg652 1.986 1_556 S
O659 C663 1.246 . S
O660 Mg655 2.032 . S
O660 C663 1.259 . S
O661 Mg652 2.114 . S
O661 C664 1.252 . S
O662 Mg652 2.251 . S
O662 Mg655 2.079 1_554 S
O662 C664 1.273 . S
C663 O659 1.246 . S
C663 O660 1.259 . S
C664 O661 1.252 . S
C664 O662 1.273 . S
O665 Mg652 2.010 . S
O665 C657 1.249 . S
Mg666 O667 2.028 . S
Mg666 O673 1.986 . S
Mg666 O675 2.114 . S
Mg666 O676 2.251 . S
Mg666 O679 2.010 . S
O667 Mg666 2.028 . S
O667 C670 1.250 1_545 S
O668 Mg669 2.028 . S
O668 C670 1.248 . S
Mg669 O668 2.028 . S
Mg669 O674 2.032 . S
Mg669 O676 2.079 1_565 S
C670 O667 1.250 1_565 S
C670 O668 1.248 . S
C671 O672 1.264 . S
C671 O679 1.249 . S
O672 C671 1.264 . S
O673 Mg666 1.986 . S
O673 C677 1.246 . S
O674 Mg669 2.032 . S
O674 C677 1.259 1_565 S
O675 Mg666 2.114 . S
O675 C678 1.252 . S
O676 Mg666 2.251 . S
O676 Mg669 2.079 1_545 S
O676 C678 1.273 . S
C677 O673 1.246 . S
C677 O674 1.259 1_545 S
C678 O675 1.252 . S
C678 O676 1.273 . S
O679 Mg666 2.010 . S
O679 C671 1.249 . S
Mg680 O681 2.028 . S
Mg680 O687 1.986 . S
Mg680 O689 2.114 . S
Mg680 O690 2.251 . S
Mg680 O693 2.010 . S
O681 Mg680 2.028 . S
O681 C684 1.250 . S
O682 Mg683 2.028 . S
O682 C684 1.248 . S
Mg683 O682 2.028 . S
Mg683 O688 2.032 . S
Mg683 O690 2.079 . S
C684 O681 1.250 . S
C684 O682 1.248 . S
C685 O686 1.264 . S
C685 O693 1.249 . S
O686 C685 1.264 . S
O687 Mg680 1.986 . S
O687 C691 1.246 . S
O688 Mg683 2.032 . S
O688 C691 1.259 . S
O689 Mg680 2.114 . S
O689 C692 1.252 . S
O690 Mg680 2.251 . S
O690 Mg683 2.079 . S
O690 C692 1.273 . S
C691 O687 1.246 . S
C691 O688 1.259 . S
C692 O689 1.252 . S
C692 O690 1.273 . S
O693 Mg680 2.010 . S
O693 C685 1.249 . S
Mg694 O695 2.028 . S
Mg694 O701 1.986 . S
Mg694 O703 2.114 . S
Mg694 O704 2.251 . S
Mg694 O707 2.010 . S
O695 Mg694 2.028 . S
O695 C698 1.250 . S
O696 Mg697 2.028 . S
O696 C698 1.248 . S
Mg697 O696 2.028 . S
Mg697 O702 2.032 . S
Mg697 O704 2.079 . S
C698 O695 1.250 . S
C698 O696 1.248 . S
C699 O700 1.264 . S
C699 O707 1.249 . S
O700 C699 1.264 . S
O701 Mg694 1.986 . S
O701 C705 1.246 . S
O702 Mg697 2.032 . S
O702 C705 1.259 . S
O703 Mg694 2.114 . S
O703 C706 1.252 . S
O704 Mg694 2.251 . S
O704 Mg697 2.079 . S
O704 C706 1.273 . S
C705 O701 1.246 . S
C705 O702 1.259 . S
C706 O703 1.252 . S
C706 O704 1.273 . S
O707 Mg694 2.010 . S
O707 C699 1.249 . S
Mg708 O709 2.028 . S
Mg708 O715 1.986 . S
Mg708 O717 2.114 . S
Mg708 O718 2.251 . S
Mg708 O721 2.010 . S
O709 Mg708 2.028 . S
O709 C712 1.250 . S
O710 Mg711 2.028 . S
O710 C712 1.248 . S
Mg711 O710 2.028 . S
Mg711 O716 2.032 . S
Mg711 O718 2.079 . S
C712 O709 1.250 . S
C712 O710 1.248 . S
C713 O714 1.264 . S
C713 O721 1.249 . S
O714 C713 1.264 . S
O715 Mg708 1.986 . S
O715 C719 1.246 . S
O716 Mg711 2.032 . S
O716 C719 1.259 . S
O717 Mg708 2.114 . S
O717 C720 1.252 . S
O718 Mg708 2.251 . S
O718 Mg711 2.079 . S
O718 C720 1.273 . S
C719 O715 1.246 . S
C719 O716 1.259 . S
C720 O717 1.252 . S
C720 O718 1.273 . S
O721 Mg708 2.010 . S
O721 C713 1.249 . S
Mg722 O723 2.028 1_545 S
Mg722 O729 1.986 1_545 S
Mg722 O731 2.114 . S
Mg722 O732 2.251 . S
Mg722 O735 2.010 . S
O723 Mg722 2.028 1_565 S
O723 C726 1.250 . S
O724 Mg725 2.028 . S
O724 C726 1.248 . S
Mg725 O724 2.028 . S
Mg725 O730 2.032 . S
Mg725 O732 2.079 1_565 S
C726 O723 1.250 . S
C726 O724 1.248 . S
C727 O728 1.264 . S
C727 O735 1.249 . S
O728 C727 1.264 . S
O729 Mg722 1.986 1_565 S
O729 C733 1.246 . S
O730 Mg725 2.032 . S
O730 C733 1.259 . S
O731 Mg722 2.114 . S
O731 C734 1.252 . S
O732 Mg722 2.251 . S
O732 Mg725 2.079 1_545 S
O732 C734 1.273 . S
C733 O729 1.246 . S
C733 O730 1.259 . S
C734 O731 1.252 . S
C734 O732 1.273 . S
O735 Mg722 2.010 . S
O735 C727 1.249 . S
Mg736 O737 2.028 . S
Mg736 O743 1.986 . S
Mg736 O745 2.114 . S
Mg736 O746 2.251 . S
Mg736 O749 2.010 . S
O737 Mg736 2.028 . S
O737 C740 1.250 1_455 S
O738 Mg739 2.028 . S
O738 C740 1.248 . S
Mg739 O738 2.028 . S
Mg739 O744 2.032 . S
Mg739 O746 2.079 1_655 S
C740 O737 1.250 1_655 S
C740 O738 1.248 . S
C741 O742 1.264 . S
C741 O749 1.249 . S
O742 C741 1.264 . S
O743 Mg736 1.986 . S
O743 C747 1.246 . S
O744 Mg739 2.032 . S
O744 C747 1.259 1_655 S
O745 Mg736 2.114 . S
O745 C748 1.252 . S
O746 Mg736 2.251 . S
O746 Mg739 2.079 1_455 S
O746 C748 1.273 . S
C747 O743 1.246 . S
C747 O744 1.259 1_455 S
C748 O745 1.252 . S
C748 O746 1.273 . S
O749 Mg736 2.010 . S
O749 C741 1.249 . S
Mg750 O751 2.028 . S
Mg750 O757 1.986 . S
Mg750 O759 2.114 . S
Mg750 O760 2.251 . S
Mg750 O763 2.010 . S
O751 Mg750 2.028 . S
O751 C754 1.250 . S
O752 Mg753 2.028 . S
O752 C754 1.248 . S
Mg753 O752 2.028 . S
Mg753 O758 2.032 . S
Mg753 O760 2.079 . S
C754 O751 1.250 . S
C754 O752 1.248 . S
C755 O756 1.264 . S
C755 O763 1.249 . S
O756 C755 1.264 . S
O757 Mg750 1.986 . S
O757 C761 1.246 . S
O758 Mg753 2.032 . S
O758 C761 1.259 . S
O759 Mg750 2.114 . S
O759 C762 1.252 . S
O760 Mg750 2.251 . S
O760 Mg753 2.079 . S
O760 C762 1.273 . S
C761 O757 1.246 . S
C761 O758 1.259 . S
C762 O759 1.252 . S
C762 O760 1.273 . S
O763 Mg750 2.010 . S
O763 C755 1.249 . S
Mg764 O765 2.028 1_655 S
Mg764 O771 2.001 . S
Mg764 O773 2.114 . S
Mg764 O774 2.251 1_655 S
Mg764 O777 2.010 . S
O765 Mg764 2.028 1_455 S
O765 C768 1.250 . S
O766 Mg767 2.028 . S
O766 C768 1.248 . S
Mg767 O766 2.028 . S
Mg767 O772 2.032 . S
Mg767 O774 2.079 . S
C768 O765 1.250 . S
C768 O766 1.248 . S
C769 O770 1.264 . S
C769 O777 1.249 . S
O770 C769 1.264 . S
O771 Mg764 2.001 . S
O771 C775 1.206 1_655 S
O772 Mg767 2.032 . S
O772 C775 1.259 . S
O773 Mg764 2.114 . S
O773 C776 1.252 . S
O774 Mg764 2.251 1_455 S
O774 Mg767 2.079 . S
O774 C776 1.273 1_455 S
C775 O771 1.206 1_455 S
C775 O772 1.259 . S
C776 O773 1.252 . S
C776 O774 1.273 1_655 S
O777 Mg764 2.010 . S
O777 C769 1.249 . S
Mg778 O779 2.028 . S
Mg778 O785 1.986 . S
Mg778 O787 2.114 . S
Mg778 O788 2.251 . S
Mg778 O791 2.010 . S
O779 Mg778 2.028 . S
O779 C782 1.250 . S
O780 Mg781 2.028 . S
O780 C782 1.248 . S
Mg781 O780 2.028 . S
Mg781 O786 2.032 . S
Mg781 O788 2.079 . S
C782 O779 1.250 . S
C782 O780 1.248 . S
C783 O784 1.264 . S
C783 O791 1.249 . S
O784 C783 1.264 . S
O785 Mg778 1.986 . S
O785 C789 1.246 . S
O786 Mg781 2.032 . S
O786 C789 1.259 . S
O787 Mg778 2.114 . S
O787 C790 1.252 . S
O788 Mg778 2.251 . S
O788 Mg781 2.079 . S
O788 C790 1.273 . S
C789 O785 1.246 . S
C789 O786 1.259 . S
C790 O787 1.252 . S
C790 O788 1.273 . S
O791 Mg778 2.010 . S
O791 C783 1.249 . S
H792 C804 0.930 . S
H793 C806 0.930 . S
H794 C807 0.930 . S
H795 C811 0.959 . S
H796 C811 0.959 . S
H797 C811 0.961 . S
H798 C812 0.960 . S
H799 C812 0.961 . S
H800 C812 0.959 . S
H801 C815 0.929 . S
H802 C816 0.931 . S
H803 C818 0.930 . S
C804 H792 0.930 . S
C804 C805 1.399 . S
C804 C809 1.399 . S
C805 C804 1.399 . S
C805 C806 1.376 . S
C806 H793 0.930 . S
C806 C805 1.376 . S
C806 C807 1.388 . S
C807 H794 0.930 . S
C807 C806 1.388 . S
C807 C808 1.390 . S
C808 C807 1.390 . S
C808 C809 1.394 . S
C808 C814 1.465 . S
C809 C804 1.399 . S
C809 C808 1.394 . S
C809 C810 1.516 . S
C810 C809 1.516 . S
C810 C811 1.502 . S
C810 C812 1.561 . S
C810 C813 1.526 . S
C811 H795 0.959 . S
C811 H796 0.959 . S
C811 H797 0.961 . S
C811 C810 1.502 . S
C812 H798 0.960 . S
C812 H799 0.961 . S
C812 H800 0.959 . S
C812 C810 1.561 . S
C813 C810 1.526 . S
C813 C814 1.396 . S
C813 C818 1.390 . S
C814 C808 1.465 . S
C814 C813 1.396 . S
C814 C815 1.399 . S
C815 H801 0.929 . S
C815 C814 1.399 . S
C815 C816 1.385 . S
C816 H802 0.931 . S
C816 C815 1.385 . S
C816 C817 1.389 . S
C817 C816 1.389 . S
C817 C818 1.387 . S
C818 H803 0.930 . S
C818 C813 1.390 . S
C818 C817 1.387 . S
H819 C831 0.930 . S
H820 C833 0.930 . S
H821 C834 0.930 . S
H822 C838 0.959 . S
H823 C838 0.959 . S
H824 C838 0.961 . S
H825 C839 0.960 . S
H826 C839 0.961 . S
H827 C839 0.959 . S
H828 C842 0.929 . S
H829 C843 0.931 . S
H830 C845 0.930 . S
C831 H819 0.930 . S
C831 C832 1.399 . S
C831 C836 1.399 . S
C832 C831 1.399 . S
C832 C833 1.376 . S
C833 H820 0.930 . S
C833 C832 1.376 . S
C833 C834 1.388 . S
C834 H821 0.930 . S
C834 C833 1.388 . S
C834 C835 1.390 . S
C835 C834 1.390 . S
C835 C836 1.394 . S
C835 C841 1.465 . S
C836 C831 1.399 . S
C836 C835 1.394 . S
C836 C837 1.516 . S
C837 C836 1.516 . S
C837 C838 1.502 . S
C837 C839 1.561 . S
C837 C840 1.526 . S
C838 H822 0.959 . S
C838 H823 0.959 . S
C838 H824 0.961 . S
C838 C837 1.502 . S
C839 H825 0.960 . S
C839 H826 0.961 . S
C839 H827 0.959 . S
C839 C837 1.561 . S
C840 C837 1.526 . S
C840 C841 1.396 . S
C840 C845 1.390 . S
C841 C835 1.465 . S
C841 C840 1.396 . S
C841 C842 1.399 . S
C842 H828 0.929 . S
C842 C841 1.399 . S
C842 C843 1.385 . S
C843 H829 0.931 . S
C843 C842 1.385 . S
C843 C844 1.389 . S
C844 C843 1.389 . S
C844 C845 1.387 . S
C845 H830 0.930 . S
C845 C840 1.390 . S
C845 C844 1.387 . S
H846 C858 0.930 . S
H847 C860 0.930 . S
H848 C861 0.930 . S
H849 C865 0.959 . S
H850 C865 0.959 . S
H851 C865 0.961 . S
H852 C866 0.960 . S
H853 C866 0.961 . S
H854 C866 0.959 . S
H855 C869 0.929 . S
H856 C870 0.931 . S
H857 C872 0.930 . S
C858 H846 0.930 . S
C858 C859 1.399 . S
C858 C863 1.399 . S
C859 C858 1.399 . S
C859 C860 1.376 . S
C860 H847 0.930 . S
C860 C859 1.376 . S
C860 C861 1.388 . S
C861 H848 0.930 . S
C861 C860 1.388 . S
C861 C862 1.390 . S
C862 C861 1.390 . S
C862 C863 1.394 . S
C862 C868 1.465 . S
C863 C858 1.399 . S
C863 C862 1.394 . S
C863 C864 1.516 . S
C864 C863 1.516 . S
C864 C865 1.502 . S
C864 C866 1.561 . S
C864 C867 1.526 . S
C865 H849 0.959 . S
C865 H850 0.959 . S
C865 H851 0.961 . S
C865 C864 1.502 . S
C866 H852 0.960 . S
C866 H853 0.961 . S
C866 H854 0.959 . S
C866 C864 1.561 . S
C867 C864 1.526 . S
C867 C868 1.396 . S
C867 C872 1.390 . S
C868 C862 1.465 . S
C868 C867 1.396 . S
C868 C869 1.399 . S
C869 H855 0.929 . S
C869 C868 1.399 . S
C869 C870 1.385 . S
C870 H856 0.931 . S
C870 C869 1.385 . S
C870 C871 1.389 . S
C871 C870 1.389 . S
C871 C872 1.387 . S
C872 H857 0.930 . S
C872 C867 1.390 . S
C872 C871 1.387 . S
H873 C885 0.930 . S
H874 C887 0.930 . S
H875 C888 0.930 . S
H876 C892 0.959 . S
H877 C892 0.959 . S
H878 C892 0.961 . S
H879 C893 0.960 . S
H880 C893 0.961 . S
H881 C893 0.959 . S
H882 C896 0.929 . S
H883 C897 0.931 . S
H884 C899 0.930 . S
C885 H873 0.930 . S
C885 C886 1.399 . S
C885 C890 1.399 . S
C886 C885 1.399 . S
C886 C887 1.376 1_565 S
C887 H874 0.930 . S
C887 C886 1.376 1_545 S
C887 C888 1.388 . S
C888 H875 0.930 . S
C888 C887 1.388 . S
C888 C889 1.390 . S
C889 C888 1.390 . S
C889 C890 1.394 1_545 S
C889 C895 1.465 . S
C890 C885 1.399 . S
C890 C889 1.394 1_565 S
C890 C891 1.516 . S
C891 C890 1.516 . S
C891 C892 1.502 . S
C891 C893 1.561 . S
C891 C894 1.526 . S
C892 H876 0.959 . S
C892 H877 0.959 . S
C892 H878 0.961 . S
C892 C891 1.502 . S
C893 H879 0.960 . S
C893 H880 0.961 . S
C893 H881 0.959 . S
C893 C891 1.561 . S
C894 C891 1.526 . S
C894 C895 1.396 1_565 S
C894 C899 1.390 . S
C895 C889 1.465 . S
C895 C894 1.396 1_545 S
C895 C896 1.399 . S
C896 H882 0.929 . S
C896 C895 1.399 . S
C896 C897 1.385 . S
C897 H883 0.931 . S
C897 C896 1.385 . S
C897 C898 1.389 . S
C898 C897 1.389 . S
C898 C899 1.387 1_545 S
C899 H884 0.930 . S
C899 C894 1.390 . S
C899 C898 1.387 1_565 S
H900 C912 0.930 . S
H901 C914 0.930 . S
H902 C915 0.930 . S
H903 C919 0.959 . S
H904 C919 0.959 . S
H905 C919 0.961 . S
H906 C920 0.960 . S
H907 C920 0.961 . S
H908 C920 0.959 . S
H909 C923 0.929 . S
H910 C924 0.931 . S
H911 C926 0.930 . S
C912 H900 0.930 . S
C912 C913 1.399 . S
C912 C917 1.399 . S
C913 C912 1.399 . S
C913 C914 1.376 . S
C914 H901 0.930 . S
C914 C913 1.376 . S
C914 C915 1.388 . S
C915 H902 0.930 . S
C915 C914 1.388 . S
C915 C916 1.390 . S
C916 C915 1.390 . S
C916 C917 1.394 . S
C916 C922 1.465 . S
C917 C912 1.399 . S
C917 C916 1.394 . S
C917 C918 1.516 . S
C918 C917 1.516 . S
C918 C919 1.502 . S
C918 C920 1.561 . S
C918 C921 1.526 . S
C919 H903 0.959 . S
C919 H904 0.959 . S
C919 H905 0.961 . S
C919 C918 1.502 . S
C920 H906 0.960 . S
C920 H907 0.961 . S
C920 H908 0.959 . S
C920 C918 1.561 . S
C921 C918 1.526 . S
C921 C922 1.396 . S
C921 C926 1.390 . S
C922 C916 1.465 . S
C922 C921 1.396 . S
C922 C923 1.399 . S
C923 H909 0.929 . S
C923 C922 1.399 . S
C923 C924 1.385 . S
C924 H910 0.931 . S
C924 C923 1.385 . S
C924 C925 1.389 . S
C925 C924 1.389 . S
C925 C926 1.387 . S
C926 H911 0.930 . S
C926 C921 1.390 . S
C926 C925 1.387 . S
H927 C939 0.930 . S
H928 C941 0.930 . S
H929 C942 0.930 . S
H930 C946 0.959 . S
H931 C946 0.959 . S
H932 C946 0.961 . S
H933 C947 0.960 . S
H934 C947 0.961 . S
H935 C947 0.959 . S
H936 C950 0.929 . S
H937 C951 0.931 . S
H938 C953 0.930 . S
C939 H927 0.930 . S
C939 C940 1.399 . S
C939 C944 1.399 . S
C940 C939 1.399 . S
C940 C941 1.376 . S
C941 H928 0.930 . S
C941 C940 1.376 . S
C941 C942 1.388 . S
C942 H929 0.930 . S
C942 C941 1.388 . S
C942 C943 1.390 . S
C943 C942 1.390 . S
C943 C944 1.394 . S
C943 C949 1.465 . S
C944 C939 1.399 . S
C944 C943 1.394 . S
C944 C945 1.516 . S
C945 C944 1.516 . S
C945 C946 1.502 . S
C945 C947 1.561 . S
C945 C948 1.526 . S
C946 H930 0.959 . S
C946 H931 0.959 . S
C946 H932 0.961 . S
C946 C945 1.502 . S
C947 H933 0.960 . S
C947 H934 0.961 . S
C947 H935 0.959 . S
C947 C945 1.561 . S
C948 C945 1.526 . S
C948 C949 1.396 . S
C948 C953 1.390 . S
C949 C943 1.465 . S
C949 C948 1.396 . S
C949 C950 1.399 . S
C950 H936 0.929 . S
C950 C949 1.399 . S
C950 C951 1.385 . S
C951 H937 0.931 . S
C951 C950 1.385 . S
C951 C952 1.389 . S
C952 C951 1.389 . S
C952 C953 1.387 . S
C953 H938 0.930 . S
C953 C948 1.390 . S
C953 C952 1.387 . S
H954 C966 0.930 . S
H955 C968 0.930 . S
H956 C969 0.930 . S
H957 C973 0.959 . S
H958 C973 0.959 . S
H959 C973 0.961 . S
H960 C974 0.960 . S
H961 C974 0.961 . S
H962 C974 0.959 . S
H963 C977 0.929 . S
H964 C978 0.931 . S
H965 C980 0.930 . S
C966 H954 0.930 . S
C966 C967 1.399 . S
C966 C971 1.399 . S
C967 C966 1.399 . S
C967 C968 1.376 . S
C968 H955 0.930 . S
C968 C967 1.376 . S
C968 C969 1.388 . S
C969 H956 0.930 . S
C969 C968 1.388 . S
C969 C970 1.390 . S
C970 C969 1.390 . S
C970 C971 1.394 . S
C970 C976 1.465 . S
C971 C966 1.399 . S
C971 C970 1.394 . S
C971 C972 1.516 . S
C972 C971 1.516 . S
C972 C973 1.502 . S
C972 C974 1.561 . S
C972 C975 1.526 . S
C973 H957 0.959 . S
C973 H958 0.959 . S
C973 H959 0.961 . S
C973 C972 1.502 . S
C974 H960 0.960 . S
C974 H961 0.961 . S
C974 H962 0.959 . S
C974 C972 1.561 . S
C975 C972 1.526 . S
C975 C976 1.396 . S
C975 C980 1.390 . S
C976 C970 1.465 . S
C976 C975 1.396 . S
C976 C977 1.399 . S
C977 H963 0.929 . S
C977 C976 1.399 . S
C977 C978 1.385 . S
C978 H964 0.931 . S
C978 C977 1.385 . S
C978 C979 1.389 . S
C979 C978 1.389 . S
C979 C980 1.387 . S
C980 H965 0.930 . S
C980 C975 1.390 . S
C980 C979 1.387 . S
H981 C993 0.930 . S
H982 C995 0.930 . S
H983 C996 0.930 . S
H984 C1000 0.959 . S
H985 C1000 0.959 . S
H986 C1000 0.961 . S
H987 C1001 0.960 . S
H988 C1001 0.961 . S
H989 C1001 0.959 . S
H990 C1004 0.929 . S
H991 C1005 0.931 . S
H992 C1007 0.918 1_545 S
C993 H981 0.930 . S
C993 C994 1.399 . S
C993 C998 1.399 . S
C994 C993 1.399 . S
C994 C995 1.376 . S
C995 H982 0.930 . S
C995 C994 1.376 . S
C995 C996 1.388 . S
C996 H983 0.930 . S
C996 C995 1.388 . S
C996 C997 1.390 . S
C997 C996 1.390 . S
C997 C998 1.394 . S
C997 C1003 1.465 . S
C998 C993 1.399 . S
C998 C997 1.394 . S
C998 C999 1.516 . S
C999 C998 1.516 . S
C999 C1000 1.502 . S
C999 C1001 1.561 1_565 S
C999 C1002 1.526 . S
C1000 H984 0.959 . S
C1000 H985 0.959 . S
C1000 H986 0.961 . S
C1000 C999 1.502 . S
C1001 H987 0.960 . S
C1001 H988 0.961 . S
C1001 H989 0.959 . S
C1001 C999 1.561 1_545 S
C1002 C999 1.526 . S
C1002 C1003 1.396 . S
C1002 C1007 1.390 . S
C1003 C997 1.465 . S
C1003 C1002 1.396 . S
C1003 C1004 1.399 . S
C1004 H990 0.929 . S
C1004 C1003 1.399 . S
C1004 C1005 1.385 . S
C1005 H991 0.931 . S
C1005 C1004 1.385 . S
C1005 C1006 1.389 . S
C1006 C1005 1.389 . S
C1006 C1007 1.387 . S
C1007 H992 0.918 1_565 S
C1007 C1002 1.390 . S
C1007 C1006 1.387 . S
H1008 C1020 0.930 . S
H1009 C1022 0.930 . S
H1010 C1023 0.930 . S
H1011 C1027 0.959 . S
H1012 C1027 0.959 . S
H1013 C1027 0.961 . S
H1014 C1028 0.960 . S
H1015 C1028 0.961 . S
H1016 C1028 0.959 . S
H1017 C1031 0.929 . S
H1018 C1032 0.931 . S
H1019 C1034 0.930 . S
C1020 H1008 0.930 . S
C1020 C1021 1.399 . S
C1020 C1025 1.399 . S
C1021 C1020 1.399 . S
C1021 C1022 1.376 . S
C1022 H1009 0.930 . S
C1022 C1021 1.376 . S
C1022 C1023 1.388 . S
C1023 H1010 0.930 . S
C1023 C1022 1.388 . S
C1023 C1024 1.390 . S
C1024 C1023 1.390 . S
C1024 C1025 1.394 . S
C1024 C1030 1.465 . S
C1025 C1020 1.399 . S
C1025 C1024 1.394 . S
C1025 C1026 1.516 . S
C1026 C1025 1.516 . S
C1026 C1027 1.502 . S
C1026 C1028 1.561 . S
C1026 C1029 1.526 . S
C1027 H1011 0.959 . S
C1027 H1012 0.959 . S
C1027 H1013 0.961 . S
C1027 C1026 1.502 . S
C1028 H1014 0.960 . S
C1028 H1015 0.961 . S
C1028 H1016 0.959 . S
C1028 C1026 1.561 . S
C1029 C1026 1.526 . S
C1029 C1030 1.396 . S
C1029 C1034 1.390 . S
C1030 C1024 1.465 . S
C1030 C1029 1.396 . S
C1030 C1031 1.399 . S
C1031 H1017 0.929 . S
C1031 C1030 1.399 . S
C1031 C1032 1.385 . S
C1032 H1018 0.931 . S
C1032 C1031 1.385 . S
C1032 C1033 1.389 . S
C1033 C1032 1.389 . S
C1033 C1034 1.387 . S
C1034 H1019 0.930 . S
C1034 C1029 1.390 . S
C1034 C1033 1.387 . S
H1035 C1047 0.930 . S
H1036 C1049 0.930 . S
H1037 C1050 0.930 . S
H1038 C1054 0.959 . S
H1039 C1054 0.959 . S
H1040 C1054 0.961 . S
H1041 C1055 0.960 . S
H1042 C1055 0.961 . S
H1043 C1055 0.959 . S
H1044 C1058 0.929 . S
H1045 C1059 0.931 . S
H1046 C1061 0.930 . S
C1047 H1035 0.930 . S
C1047 C1048 1.399 . S
C1047 C1052 1.399 . S
C1048 C1047 1.399 . S
C1048 C1049 1.376 . S
C1049 H1036 0.930 . S
C1049 C1048 1.376 . S
C1049 C1050 1.388 . S
C1050 H1037 0.930 . S
C1050 C1049 1.388 . S
C1050 C1051 1.390 . S
C1051 C1050 1.390 . S
C1051 C1052 1.394 . S
C1051 C1057 1.465 . S
C1052 C1047 1.399 . S
C1052 C1051 1.394 . S
C1052 C1053 1.516 . S
C1053 C1052 1.516 . S
C1053 C1054 1.502 . S
C1053 C1055 1.561 . S
C1053 C1056 1.526 . S
C1054 H1038 0.959 . S
C1054 H1039 0.959 . S
C1054 H1040 0.961 . S
C1054 C1053 1.502 . S
C1055 H1041 0.960 . S
C1055 H1042 0.961 . S
C1055 H1043 0.959 . S
C1055 C1053 1.561 . S
C1056 C1053 1.526 . S
C1056 C1057 1.396 . S
C1056 C1061 1.390 . S
C1057 C1051 1.465 . S
C1057 C1056 1.396 . S
C1057 C1058 1.399 . S
C1058 H1044 0.929 . S
C1058 C1057 1.399 . S
C1058 C1059 1.385 . S
C1059 H1045 0.931 . S
C1059 C1058 1.385 . S
C1059 C1060 1.389 . S
C1060 C1059 1.389 . S
C1060 C1061 1.387 . S
C1061 H1046 0.930 . S
C1061 C1056 1.390 . S
C1061 C1060 1.387 . S
H1062 C1074 0.930 . S
H1063 C1076 0.930 . S
H1064 C1077 0.930 . S
H1065 C1081 0.959 . S
H1066 C1081 0.959 . S
H1067 C1081 0.961 . S
H1068 C1082 0.960 . S
H1069 C1082 0.961 . S
H1070 C1082 0.959 . S
H1071 C1085 0.929 . S
H1072 C1086 0.931 . S
H1073 C1088 0.930 . S
C1074 H1062 0.930 . S
C1074 C1075 1.399 . S
C1074 C1079 1.399 . S
C1075 C1074 1.399 . S
C1075 C1076 1.376 . S
C1076 H1063 0.930 . S
C1076 C1075 1.376 . S
C1076 C1077 1.388 . S
C1077 H1064 0.930 . S
C1077 C1076 1.388 . S
C1077 C1078 1.390 . S
C1078 C1077 1.390 . S
C1078 C1079 1.394 . S
C1078 C1084 1.465 . S
C1079 C1074 1.399 . S
C1079 C1078 1.394 . S
C1079 C1080 1.516 . S
C1080 C1079 1.516 . S
C1080 C1081 1.502 . S
C1080 C1082 1.561 . S
C1080 C1083 1.526 . S
C1081 H1065 0.959 . S
C1081 H1066 0.959 . S
C1081 H1067 0.961 . S
C1081 C1080 1.502 . S
C1082 H1068 0.960 . S
C1082 H1069 0.961 . S
C1082 H1070 0.959 . S
C1082 C1080 1.561 . S
C1083 C1080 1.526 . S
C1083 C1084 1.396 . S
C1083 C1088 1.390 . S
C1084 C1078 1.465 . S
C1084 C1083 1.396 . S
C1084 C1085 1.399 . S
C1085 H1071 0.929 . S
C1085 C1084 1.399 . S
C1085 C1086 1.385 . S
C1086 H1072 0.931 . S
C1086 C1085 1.385 . S
C1086 C1087 1.389 . S
C1087 C1086 1.389 . S
C1087 C1088 1.387 . S
C1088 H1073 0.930 . S
C1088 C1083 1.390 . S
C1088 C1087 1.387 . S
H1089 C1101 0.930 . S
H1090 C1103 0.930 . S
H1091 C1104 0.930 . S
H1092 C1108 0.959 . S
H1093 C1108 0.959 . S
H1094 C1108 0.961 . S
H1095 C1109 0.960 . S
H1096 C1109 0.961 . S
H1097 C1109 0.959 . S
H1098 C1112 0.929 . S
H1099 C1113 0.931 . S
H1100 C1115 0.930 . S
C1101 H1089 0.930 . S
C1101 C1102 1.399 . S
C1101 C1106 1.399 . S
C1102 C1101 1.399 . S
C1102 C1103 1.376 . S
C1103 H1090 0.930 . S
C1103 C1102 1.376 . S
C1103 C1104 1.388 . S
C1104 H1091 0.930 . S
C1104 C1103 1.388 . S
C1104 C1105 1.390 . S
C1105 C1104 1.390 . S
C1105 C1106 1.394 . S
C1105 C1111 1.465 . S
C1106 C1101 1.399 . S
C1106 C1105 1.394 . S
C1106 C1107 1.516 . S
C1107 C1106 1.516 . S
C1107 C1108 1.502 . S
C1107 C1109 1.561 . S
C1107 C1110 1.526 . S
C1108 H1092 0.959 . S
C1108 H1093 0.959 . S
C1108 H1094 0.961 . S
C1108 C1107 1.502 . S
C1109 H1095 0.960 . S
C1109 H1096 0.961 . S
C1109 H1097 0.959 . S
C1109 C1107 1.561 . S
C1110 C1107 1.526 . S
C1110 C1111 1.396 . S
C1110 C1115 1.390 . S
C1111 C1105 1.465 . S
C1111 C1110 1.396 . S
C1111 C1112 1.399 . S
C1112 H1098 0.929 . S
C1112 C1111 1.399 . S
C1112 C1113 1.385 . S
C1113 H1099 0.931 . S
C1113 C1112 1.385 . S
C1113 C1114 1.389 . S
C1114 C1113 1.389 . S
C1114 C1115 1.387 . S
C1115 H1100 0.930 . S
C1115 C1110 1.390 . S
C1115 C1114 1.387 . S
H1116 C1128 0.930 . S
H1117 C1130 0.930 . S
H1118 C1131 0.930 . S
H1119 C1135 0.959 . S
H1120 C1135 0.959 . S
H1121 C1135 0.961 . S
H1122 C1136 0.960 . S
H1123 C1136 0.961 . S
H1124 C1136 0.959 . S
H1125 C1139 0.929 . S
H1126 C1140 0.931 . S
H1127 C1142 0.930 . S
C1128 H1116 0.930 . S
C1128 C1129 1.399 . S
C1128 C1133 1.399 . S
C1129 C1128 1.399 . S
C1129 C1130 1.376 . S
C1130 H1117 0.930 . S
C1130 C1129 1.376 . S
C1130 C1131 1.388 . S
C1131 H1118 0.930 . S
C1131 C1130 1.388 . S
C1131 C1132 1.390 . S
C1132 C1131 1.390 . S
C1132 C1133 1.394 . S
C1132 C1138 1.465 . S
C1133 C1128 1.399 . S
C1133 C1132 1.394 . S
C1133 C1134 1.516 . S
C1134 C1133 1.516 . S
C1134 C1135 1.502 . S
C1134 C1136 1.561 . S
C1134 C1137 1.526 . S
C1135 H1119 0.959 . S
C1135 H1120 0.959 . S
C1135 H1121 0.961 . S
C1135 C1134 1.502 . S
C1136 H1122 0.960 . S
C1136 H1123 0.961 . S
C1136 H1124 0.959 . S
C1136 C1134 1.561 . S
C1137 C1134 1.526 . S
C1137 C1138 1.396 . S
C1137 C1142 1.390 . S
C1138 C1132 1.465 . S
C1138 C1137 1.396 . S
C1138 C1139 1.399 . S
C1139 H1125 0.929 . S
C1139 C1138 1.399 . S
C1139 C1140 1.385 . S
C1140 H1126 0.931 . S
C1140 C1139 1.385 . S
C1140 C1141 1.389 . S
C1141 C1140 1.389 . S
C1141 C1142 1.387 . S
C1142 H1127 0.930 . S
C1142 C1137 1.390 . S
C1142 C1141 1.387 . S
H1143 C1155 0.930 . S
H1144 C1157 0.930 . S
H1145 C1158 0.930 . S
H1146 C1162 0.959 . S
H1147 C1162 0.959 . S
H1148 C1162 0.961 . S
H1149 C1163 0.960 . S
H1150 C1163 0.950 1_655 S
H1151 C1163 0.959 . S
H1152 C1166 0.929 . S
H1153 C1167 0.931 . S
H1154 C1169 0.930 1_655 S
C1155 H1143 0.930 . S
C1155 C1156 1.399 . S
C1155 C1160 1.399 . S
C1156 C1155 1.399 . S
C1156 C1157 1.376 . S
C1157 H1144 0.930 . S
C1157 C1156 1.376 . S
C1157 C1158 1.388 . S
C1158 H1145 0.930 . S
C1158 C1157 1.388 . S
C1158 C1159 1.390 . S
C1159 C1158 1.390 . S
C1159 C1160 1.394 . S
C1159 C1165 1.465 . S
C1160 C1155 1.399 . S
C1160 C1159 1.394 . S
C1160 C1161 1.516 . S
C1161 C1160 1.516 . S
C1161 C1162 1.502 1_455 S
C1161 C1163 1.561 . S
C1161 C1164 1.526 . S
C1162 H1146 0.959 . S
C1162 H1147 0.959 . S
C1162 H1148 0.961 . S
C1162 C1161 1.502 1_655 S
C1163 H1149 0.960 . S
C1163 H1150 0.950 1_455 S
C1163 H1151 0.959 . S
C1163 C1161 1.561 . S
C1164 C1161 1.526 . S
C1164 C1165 1.396 . S
C1164 C1169 1.390 . S
C1165 C1159 1.465 . S
C1165 C1164 1.396 . S
C1165 C1166 1.399 . S
C1166 H1152 0.929 . S
C1166 C1165 1.399 . S
C1166 C1167 1.385 . S
C1167 H1153 0.931 . S
C1167 C1166 1.385 . S
C1167 C1168 1.389 . S
C1168 C1167 1.389 . S
C1168 C1169 1.387 . S
C1169 H1154 0.930 1_455 S
C1169 C1164 1.390 . S
C1169 C1168 1.387 . S
H1170 C1182 0.930 . S
H1171 C1184 0.930 . S
H1172 C1185 0.930 . S
H1173 C1189 0.959 . S
H1174 C1189 0.959 . S
H1175 C1189 0.961 . S
H1176 C1190 0.960 . S
H1177 C1190 0.961 . S
H1178 C1190 0.959 . S
H1179 C1193 0.929 . S
H1180 C1194 0.931 . S
H1181 C1196 0.930 . S
C1182 H1170 0.930 . S
C1182 C1183 1.399 . S
C1182 C1187 1.399 . S
C1183 C1182 1.399 . S
C1183 C1184 1.376 . S
C1184 H1171 0.930 . S
C1184 C1183 1.376 . S
C1184 C1185 1.388 . S
C1185 H1172 0.930 . S
C1185 C1184 1.388 . S
C1185 C1186 1.390 . S
C1186 C1185 1.390 . S
C1186 C1187 1.394 . S
C1186 C1192 1.465 . S
C1187 C1182 1.399 . S
C1187 C1186 1.394 . S
C1187 C1188 1.516 . S
C1188 C1187 1.516 . S
C1188 C1189 1.502 . S
C1188 C1190 1.561 . S
C1188 C1191 1.526 . S
C1189 H1173 0.959 . S
C1189 H1174 0.959 . S
C1189 H1175 0.961 . S
C1189 C1188 1.502 . S
C1190 H1176 0.960 . S
C1190 H1177 0.961 . S
C1190 H1178 0.959 . S
C1190 C1188 1.561 . S
C1191 C1188 1.526 . S
C1191 C1192 1.396 . S
C1191 C1196 1.390 . S
C1192 C1186 1.465 . S
C1192 C1191 1.396 . S
C1192 C1193 1.399 . S
C1193 H1179 0.929 . S
C1193 C1192 1.399 . S
C1193 C1194 1.385 . S
C1194 H1180 0.931 . S
C1194 C1193 1.385 . S
C1194 C1195 1.389 . S
C1195 C1194 1.389 . S
C1195 C1196 1.387 . S
C1196 H1181 0.930 . S
C1196 C1191 1.390 . S
C1196 C1195 1.387 . S
H1197 C1209 0.930 . S
H1198 C1211 0.925 1_455 S
H1199 C1212 0.945 . S
H1200 C1216 0.959 . S
H1201 C1216 0.959 . S
H1202 C1216 0.961 . S
H1203 C1217 0.960 . S
H1204 C1217 0.961 . S
H1205 C1217 0.959 1_455 S
H1206 C1220 0.929 . S
H1207 C1221 0.931 . S
H1208 C1223 0.930 . S
C1209 H1197 0.930 . S
C1209 C1210 1.399 . S
C1209 C1214 1.399 . S
C1210 C1209 1.399 . S
C1210 C1211 1.376 . S
C1211 H1198 0.925 1_655 S
C1211 C1210 1.376 . S
C1211 C1212 1.384 1_655 S
C1212 H1199 0.945 . S
C1212 C1211 1.384 1_455 S
C1212 C1213 1.380 1_455 S
C1213 C1212 1.380 1_655 S
C1213 C1214 1.394 . S
C1213 C1219 1.465 . S
C1214 C1209 1.399 . S
C1214 C1213 1.394 . S
C1214 C1215 1.516 . S
C1215 C1214 1.516 . S
C1215 C1216 1.502 . S
C1215 C1217 1.561 . S
C1215 C1218 1.526 . S
C1216 H1200 0.959 . S
C1216 H1201 0.959 . S
C1216 H1202 0.961 . S
C1216 C1215 1.502 . S
C1217 H1203 0.960 . S
C1217 H1204 0.961 . S
C1217 H1205 0.959 1_655 S
C1217 C1215 1.561 . S
C1218 C1215 1.526 . S
C1218 C1219 1.396 . S
C1218 C1223 1.390 . S
C1219 C1213 1.465 . S
C1219 C1218 1.396 . S
C1219 C1220 1.399 1_655 S
C1220 H1206 0.929 . S
C1220 C1219 1.399 1_455 S
C1220 C1221 1.385 . S
C1221 H1207 0.931 . S
C1221 C1220 1.385 . S
C1221 C1222 1.389 1_455 S
C1222 C1221 1.389 1_655 S
C1222 C1223 1.387 . S
C1223 H1208 0.930 . S
C1223 C1218 1.390 . S
C1223 C1222 1.387 . S
H1224 C1236 0.930 . S
H1225 C1238 0.930 . S
H1226 C1239 0.930 . S
H1227 C1243 0.959 . S
H1228 C1243 0.959 . S
H1229 C1243 0.961 . S
H1230 C1244 0.960 . S
H1231 C1244 0.961 . S
H1232 C1244 0.959 . S
H1233 C1247 0.929 . S
H1234 C1248 0.931 . S
H1235 C1250 0.930 . S
C1236 H1224 0.930 . S
C1236 C1237 1.399 . S
C1236 C1241 1.399 . S
C1237 C1236 1.399 . S
C1237 C1238 1.376 . S
C1238 H1225 0.930 . S
C1238 C1237 1.376 . S
C1238 C1239 1.388 . S
C1239 H1226 0.930 . S
C1239 C1238 1.388 . S
C1239 C1240 1.390 . S
C1240 C1239 1.390 . S
C1240 C1241 1.394 . S
C1240 C1246 1.465 . S
C1241 C1236 1.399 . S
C1241 C1240 1.394 . S
C1241 C1242 1.516 . S
C1242 C1241 1.516 . S
C1242 C1243 1.502 . S
C1242 C1244 1.561 . S
C1242 C1245 1.526 . S
C1243 H1227 0.959 . S
C1243 H1228 0.959 . S
C1243 H1229 0.961 . S
C1243 C1242 1.502 . S
C1244 H1230 0.960 . S
C1244 H1231 0.961 . S
C1244 H1232 0.959 . S
C1244 C1242 1.561 . S
C1245 C1242 1.526 . S
C1245 C1246 1.396 . S
C1245 C1250 1.390 . S
C1246 C1240 1.465 . S
C1246 C1245 1.396 . S
C1246 C1247 1.399 . S
C1247 H1233 0.929 . S
C1247 C1246 1.399 . S
C1247 C1248 1.385 . S
C1248 H1234 0.931 . S
C1248 C1247 1.385 . S
C1248 C1249 1.389 . S
C1249 C1248 1.389 . S
C1249 C1250 1.387 . S
C1250 H1235 0.930 . S
C1250 C1245 1.390 . S
C1250 C1249 1.387 . S
H1251 C1263 0.930 . S
H1252 C1265 0.930 . S
H1253 C1266 0.930 . S
H1254 C1270 0.959 . S
H1255 C1270 0.959 . S
H1256 C1270 0.961 . S
H1257 C1271 0.960 . S
H1258 C1271 0.961 . S
H1259 C1271 0.959 . S
H1260 C1274 0.929 . S
H1261 C1275 0.931 . S
H1262 C1277 0.930 . S
C1263 H1251 0.930 . S
C1263 C1264 1.399 . S
C1263 C1268 1.399 . S
C1264 C1263 1.399 . S
C1264 C1265 1.376 . S
C1265 H1252 0.930 . S
C1265 C1264 1.376 . S
C1265 C1266 1.388 . S
C1266 H1253 0.930 . S
C1266 C1265 1.388 . S
C1266 C1267 1.390 . S
C1267 C1266 1.390 . S
C1267 C1268 1.394 . S
C1267 C1273 1.465 . S
C1268 C1263 1.399 . S
C1268 C1267 1.394 . S
C1268 C1269 1.516 . S
C1269 C1268 1.516 . S
C1269 C1270 1.502 . S
C1269 C1271 1.561 . S
C1269 C1272 1.526 . S
C1270 H1254 0.959 . S
C1270 H1255 0.959 . S
C1270 H1256 0.961 . S
C1270 C1269 1.502 . S
C1271 H1257 0.960 . S
C1271 H1258 0.961 . S
C1271 H1259 0.959 . S
C1271 C1269 1.561 . S
C1272 C1269 1.526 . S
C1272 C1273 1.396 . S
C1272 C1277 1.390 . S
C1273 C1267 1.465 . S
C1273 C1272 1.396 . S
C1273 C1274 1.399 . S
C1274 H1260 0.929 . S
C1274 C1273 1.399 . S
C1274 C1275 1.385 . S
C1275 H1261 0.931 . S
C1275 C1274 1.385 . S
C1275 C1276 1.389 . S
C1276 C1275 1.389 . S
C1276 C1277 1.387 . S
C1277 H1262 0.930 . S
C1277 C1272 1.390 . S
C1277 C1276 1.387 . S
H1278 C1290 0.930 1_554 S
H1279 C1292 0.930 . S
H1280 C1293 0.930 . S
H1281 C1297 0.959 1_556 S
H1282 C1297 0.959 . S
H1283 C1297 0.961 . S
H1284 C1298 0.960 . S
H1285 C1298 0.961 . S
H1286 C1298 0.959 . S
H1287 C1301 0.929 . S
H1288 C1302 0.931 . S
H1289 C1304 0.930 . S
C1290 H1278 0.930 1_556 S
C1290 C1291 1.399 . S
C1290 C1295 1.399 . S
C1291 C1290 1.399 . S
C1291 C1292 1.376 . S
C1292 H1279 0.930 . S
C1292 C1291 1.376 . S
C1292 C1293 1.388 . S
C1293 H1280 0.930 . S
C1293 C1292 1.388 . S
C1293 C1294 1.390 . S
C1294 C1293 1.390 . S
C1294 C1295 1.394 . S
C1294 C1300 1.465 . S
C1295 C1290 1.399 . S
C1295 C1294 1.394 . S
C1295 C1296 1.516 1_556 S
C1296 C1295 1.516 1_554 S
C1296 C1297 1.502 . S
C1296 C1298 1.561 . S
C1296 C1299 1.525 . S
C1297 H1281 0.959 1_554 S
C1297 H1282 0.959 . S
C1297 H1283 0.961 . S
C1297 C1296 1.502 . S
C1298 H1284 0.960 . S
C1298 H1285 0.961 . S
C1298 H1286 0.959 . S
C1298 C1296 1.561 . S
C1299 C1296 1.525 . S
C1299 C1300 1.398 1_554 S
C1299 C1304 1.389 . S
C1300 C1294 1.465 . S
C1300 C1299 1.398 1_556 S
C1300 C1301 1.399 . S
C1301 H1287 0.929 . S
C1301 C1300 1.399 . S
C1301 C1302 1.385 . S
C1302 H1288 0.931 . S
C1302 C1301 1.385 . S
C1302 C1303 1.389 . S
C1303 C1302 1.389 . S
C1303 C1304 1.387 1_556 S
C1304 H1289 0.930 . S
C1304 C1299 1.389 . S
C1304 C1303 1.387 1_554 S
H1305 C1317 0.930 . S
H1306 C1319 0.930 . S
H1307 C1320 0.930 . S
H1308 C1324 0.959 . S
H1309 C1324 0.959 . S
H1310 C1324 0.961 . S
H1311 C1325 0.960 . S
H1312 C1325 0.961 . S
H1313 C1325 0.959 . S
H1314 C1328 0.929 . S
H1315 C1329 0.931 . S
H1316 C1331 0.930 . S
C1317 H1305 0.930 . S
C1317 C1318 1.399 . S
C1317 C1322 1.399 . S
C1318 C1317 1.399 . S
C1318 C1319 1.376 . S
C1319 H1306 0.930 . S
C1319 C1318 1.376 . S
C1319 C1320 1.388 . S
C1320 H1307 0.930 . S
C1320 C1319 1.388 . S
C1320 C1321 1.390 . S
C1321 C1320 1.390 . S
C1321 C1322 1.394 . S
C1321 C1327 1.465 . S
C1322 C1317 1.399 . S
C1322 C1321 1.394 . S
C1322 C1323 1.516 . S
C1323 C1322 1.516 . S
C1323 C1324 1.502 . S
C1323 C1325 1.561 . S
C1323 C1326 1.526 . S
C1324 H1308 0.959 . S
C1324 H1309 0.959 . S
C1324 H1310 0.961 . S
C1324 C1323 1.502 . S
C1325 H1311 0.960 . S
C1325 H1312 0.961 . S
C1325 H1313 0.959 . S
C1325 C1323 1.561 . S
C1326 C1323 1.526 . S
C1326 C1327 1.396 . S
C1326 C1331 1.390 . S
C1327 C1321 1.465 . S
C1327 C1326 1.396 . S
C1327 C1328 1.399 . S
C1328 H1314 0.929 . S
C1328 C1327 1.399 . S
C1328 C1329 1.385 . S
C1329 H1315 0.931 . S
C1329 C1328 1.385 . S
C1329 C1330 1.389 . S
C1330 C1329 1.389 . S
C1330 C1331 1.387 . S
C1331 H1316 0.930 . S
C1331 C1326 1.390 . S
C1331 C1330 1.387 . S
H1332 C1344 0.930 . S
H1333 C1346 0.930 . S
H1334 C1347 0.930 . S
H1335 C1351 0.959 . S
H1336 C1351 0.959 . S
H1337 C1351 0.961 . S
H1338 C1352 0.960 . S
H1339 C1352 0.961 . S
H1340 C1352 0.959 . S
H1341 C1355 0.929 . S
H1342 C1356 0.931 . S
H1343 C1358 0.930 . S
C1344 H1332 0.930 . S
C1344 C1345 1.399 . S
C1344 C1349 1.399 . S
C1345 C1344 1.399 . S
C1345 C1346 1.376 . S
C1346 H1333 0.930 . S
C1346 C1345 1.376 . S
C1346 C1347 1.388 . S
C1347 H1334 0.930 . S
C1347 C1346 1.388 . S
C1347 C1348 1.390 . S
C1348 C1347 1.390 . S
C1348 C1349 1.394 . S
C1348 C1354 1.465 . S
C1349 C1344 1.399 . S
C1349 C1348 1.394 . S
C1349 C1350 1.516 . S
C1350 C1349 1.516 . S
C1350 C1351 1.502 . S
C1350 C1352 1.561 . S
C1350 C1353 1.526 . S
C1351 H1335 0.959 . S
C1351 H1336 0.959 . S
C1351 H1337 0.961 . S
C1351 C1350 1.502 . S
C1352 H1338 0.960 . S
C1352 H1339 0.961 . S
C1352 H1340 0.959 . S
C1352 C1350 1.561 . S
C1353 C1350 1.526 . S
C1353 C1354 1.396 . S
C1353 C1358 1.390 . S
C1354 C1348 1.465 . S
C1354 C1353 1.396 . S
C1354 C1355 1.399 . S
C1355 H1341 0.929 . S
C1355 C1354 1.399 . S
C1355 C1356 1.385 . S
C1356 H1342 0.931 . S
C1356 C1355 1.385 . S
C1356 C1357 1.389 . S
C1357 C1356 1.389 . S
C1357 C1358 1.387 . S
C1358 H1343 0.930 . S
C1358 C1353 1.390 . S
C1358 C1357 1.387 . S
H1359 C1371 0.930 . S
H1360 C1373 0.930 . S
H1361 C1374 0.930 . S
H1362 C1378 0.959 . S
H1363 C1378 0.959 . S
H1364 C1378 0.961 . S
H1365 C1379 0.960 . S
H1366 C1379 0.961 . S
H1367 C1379 0.959 . S
H1368 C1382 0.929 . S
H1369 C1383 0.931 . S
H1370 C1385 0.930 . S
C1371 H1359 0.930 . S
C1371 C1372 1.399 . S
C1371 C1376 1.399 . S
C1372 C1371 1.399 . S
C1372 C1373 1.376 . S
C1373 H1360 0.930 . S
C1373 C1372 1.376 . S
C1373 C1374 1.388 . S
C1374 H1361 0.930 . S
C1374 C1373 1.388 . S
C1374 C1375 1.390 . S
C1375 C1374 1.390 . S
C1375 C1376 1.394 . S
C1375 C1381 1.465 . S
C1376 C1371 1.399 . S
C1376 C1375 1.394 . S
C1376 C1377 1.516 . S
C1377 C1376 1.516 . S
C1377 C1378 1.502 . S
C1377 C1379 1.561 . S
C1377 C1380 1.526 . S
C1378 H1362 0.959 . S
C1378 H1363 0.959 . S
C1378 H1364 0.961 . S
C1378 C1377 1.502 . S
C1379 H1365 0.960 . S
C1379 H1366 0.961 . S
C1379 H1367 0.959 . S
C1379 C1377 1.561 . S
C1380 C1377 1.526 . S
C1380 C1381 1.396 . S
C1380 C1385 1.390 . S
C1381 C1375 1.465 . S
C1381 C1380 1.396 . S
C1381 C1382 1.399 . S
C1382 H1368 0.929 . S
C1382 C1381 1.399 . S
C1382 C1383 1.385 . S
C1383 H1369 0.931 . S
C1383 C1382 1.385 . S
C1383 C1384 1.389 . S
C1384 C1383 1.389 . S
C1384 C1385 1.387 . S
C1385 H1370 0.930 . S
C1385 C1380 1.390 . S
C1385 C1384 1.387 . S
H1386 C1398 0.930 . S
H1387 C1400 0.930 . S
H1388 C1401 0.930 . S
H1389 C1405 0.959 . S
H1390 C1405 0.959 . S
H1391 C1405 0.961 . S
H1392 C1406 0.960 . S
H1393 C1406 0.961 . S
H1394 C1406 0.959 . S
H1395 C1409 0.929 . S
H1396 C1410 0.931 . S
H1397 C1412 0.930 . S
C1398 H1386 0.930 . S
C1398 C1399 1.399 . S
C1398 C1403 1.399 . S
C1399 C1398 1.399 . S
C1399 C1400 1.376 . S
C1400 H1387 0.930 . S
C1400 C1399 1.376 . S
C1400 C1401 1.388 . S
C1401 H1388 0.930 . S
C1401 C1400 1.388 . S
C1401 C1402 1.390 . S
C1402 C1401 1.390 . S
C1402 C1403 1.394 . S
C1402 C1408 1.465 . S
C1403 C1398 1.399 . S
C1403 C1402 1.394 . S
C1403 C1404 1.516 . S
C1404 C1403 1.516 . S
C1404 C1405 1.502 . S
C1404 C1406 1.561 . S
C1404 C1407 1.526 . S
C1405 H1389 0.959 . S
C1405 H1390 0.959 . S
C1405 H1391 0.961 . S
C1405 C1404 1.502 . S
C1406 H1392 0.960 . S
C1406 H1393 0.961 . S
C1406 H1394 0.959 . S
C1406 C1404 1.561 . S
C1407 C1404 1.526 . S
C1407 C1408 1.396 . S
C1407 C1412 1.390 . S
C1408 C1402 1.465 . S
C1408 C1407 1.396 . S
C1408 C1409 1.399 . S
C1409 H1395 0.929 . S
C1409 C1408 1.399 . S
C1409 C1410 1.385 . S
C1410 H1396 0.931 . S
C1410 C1409 1.385 . S
C1410 C1411 1.389 . S
C1411 C1410 1.389 . S
C1411 C1412 1.387 . S
C1412 H1397 0.930 . S
C1412 C1407 1.390 . S
C1412 C1411 1.387 . S
H1413 C1425 0.930 . S
H1414 C1427 0.930 . S
H1415 C1428 0.930 . S
H1416 C1432 0.959 . S
H1417 C1432 0.959 . S
H1418 C1432 0.961 . S
H1419 C1433 0.960 . S
H1420 C1433 0.961 . S
H1421 C1433 0.959 . S
H1422 C1436 0.929 . S
H1423 C1437 0.931 . S
H1424 C1439 0.930 . S
C1425 H1413 0.930 . S
C1425 C1426 1.399 . S
C1425 C1430 1.399 . S
C1426 C1425 1.399 . S
C1426 C1427 1.376 . S
C1427 H1414 0.930 . S
C1427 C1426 1.376 . S
C1427 C1428 1.388 . S
C1428 H1415 0.930 . S
C1428 C1427 1.388 . S
C1428 C1429 1.390 . S
C1429 C1428 1.390 . S
C1429 C1430 1.394 . S
C1429 C1435 1.465 . S
C1430 C1425 1.399 . S
C1430 C1429 1.394 . S
C1430 C1431 1.516 . S
C1431 C1430 1.516 . S
C1431 C1432 1.502 . S
C1431 C1433 1.561 . S
C1431 C1434 1.526 . S
C1432 H1416 0.959 . S
C1432 H1417 0.959 . S
C1432 H1418 0.961 . S
C1432 C1431 1.502 . S
C1433 H1419 0.960 . S
C1433 H1420 0.961 . S
C1433 H1421 0.959 . S
C1433 C1431 1.561 . S
C1434 C1431 1.526 . S
C1434 C1435 1.396 . S
C1434 C1439 1.390 . S
C1435 C1429 1.465 . S
C1435 C1434 1.396 . S
C1435 C1436 1.399 . S
C1436 H1422 0.929 . S
C1436 C1435 1.399 . S
C1436 C1437 1.385 . S
C1437 H1423 0.931 . S
C1437 C1436 1.385 . S
C1437 C1438 1.389 . S
C1438 C1437 1.389 . S
C1438 C1439 1.387 . S
C1439 H1424 0.930 . S
C1439 C1434 1.390 . S
C1439 C1438 1.387 . S
H1440 C1452 0.930 . S
H1441 C1454 0.930 . S
H1442 C1455 0.930 . S
H1443 C1459 0.959 . S
H1444 C1459 0.959 . S
H1445 C1459 0.961 . S
H1446 C1460 0.960 . S
H1447 C1460 0.961 . S
H1448 C1460 0.959 . S
H1449 C1463 0.929 . S
H1450 C1464 0.931 . S
H1451 C1466 0.930 . S
C1452 H1440 0.930 . S
C1452 C1453 1.399 . S
C1452 C1457 1.399 . S
C1453 C1452 1.399 . S
C1453 C1454 1.376 . S
C1454 H1441 0.930 . S
C1454 C1453 1.376 . S
C1454 C1455 1.388 . S
C1455 H1442 0.930 . S
C1455 C1454 1.388 . S
C1455 C1456 1.390 . S
C1456 C1455 1.390 . S
C1456 C1457 1.394 . S
C1456 C1462 1.465 . S
C1457 C1452 1.399 . S
C1457 C1456 1.394 . S
C1457 C1458 1.516 . S
C1458 C1457 1.516 . S
C1458 C1459 1.502 . S
C1458 C1460 1.561 . S
C1458 C1461 1.526 . S
C1459 H1443 0.959 . S
C1459 H1444 0.959 . S
C1459 H1445 0.961 . S
C1459 C1458 1.502 . S
C1460 H1446 0.960 . S
C1460 H1447 0.961 . S
C1460 H1448 0.959 . S
C1460 C1458 1.561 . S
C1461 C1458 1.526 . S
C1461 C1462 1.396 . S
C1461 C1466 1.390 . S
C1462 C1456 1.465 . S
C1462 C1461 1.396 . S
C1462 C1463 1.399 . S
C1463 H1449 0.929 . S
C1463 C1462 1.399 . S
C1463 C1464 1.385 . S
C1464 H1450 0.931 . S
C1464 C1463 1.385 . S
C1464 C1465 1.389 . S
C1465 C1464 1.389 . S
C1465 C1466 1.387 . S
C1466 H1451 0.930 . S
C1466 C1461 1.390 . S
C1466 C1465 1.387 . S
H1467 C1479 0.930 1_565 S
H1468 C1481 0.930 . S
H1469 C1482 0.930 . S
H1470 C1486 0.959 . S
H1471 C1486 0.959 . S
H1472 C1486 0.961 . S
H1473 C1487 0.960 . S
H1474 C1487 0.961 . S
H1475 C1487 0.959 . S
H1476 C1490 0.929 . S
H1477 C1491 0.931 . S
H1478 C1493 0.930 . S
C1479 H1467 0.930 1_545 S
C1479 C1480 1.399 . S
C1479 C1484 1.399 . S
C1480 C1479 1.399 . S
C1480 C1481 1.376 . S
C1481 H1468 0.930 . S
C1481 C1480 1.376 . S
C1481 C1482 1.388 . S
C1482 H1469 0.930 . S
C1482 C1481 1.388 . S
C1482 C1483 1.390 . S
C1483 C1482 1.390 . S
C1483 C1484 1.394 . S
C1483 C1489 1.465 . S
C1484 C1479 1.399 . S
C1484 C1483 1.394 . S
C1484 C1485 1.516 1_545 S
C1485 C1484 1.516 1_565 S
C1485 C1486 1.502 . S
C1485 C1487 1.561 . S
C1485 C1488 1.499 1_565 S
C1486 H1470 0.959 . S
C1486 H1471 0.959 . S
C1486 H1472 0.961 . S
C1486 C1485 1.502 . S
C1487 H1473 0.960 . S
C1487 H1474 0.961 . S
C1487 H1475 0.959 . S
C1487 C1485 1.561 . S
C1488 C1485 1.499 1_545 S
C1488 C1489 1.444 . S
C1488 C1493 1.376 1_545 S
C1489 C1483 1.465 . S
C1489 C1488 1.444 . S
C1489 C1490 1.399 . S
C1490 H1476 0.929 . S
C1490 C1489 1.399 . S
C1490 C1491 1.385 . S
C1491 H1477 0.931 . S
C1491 C1490 1.385 . S
C1491 C1492 1.389 . S
C1492 C1491 1.389 . S
C1492 C1493 1.387 1_545 S
C1493 H1478 0.930 . S
C1493 C1488 1.376 1_565 S
C1493 C1492 1.387 1_565 S
H1494 C1506 0.930 . S
H1495 C1508 0.930 . S
H1496 C1509 0.930 . S
H1497 C1513 0.959 . S
H1498 C1513 0.959 . S
H1499 C1513 0.961 . S
H1500 C1514 0.960 . S
H1501 C1514 0.961 . S
H1502 C1514 0.959 . S
H1503 C1517 0.929 . S
H1504 C1518 0.931 . S
H1505 C1520 0.930 . S
C1506 H1494 0.930 . S
C1506 C1507 1.399 . S
C1506 C1511 1.399 . S
C1507 C1506 1.399 . S
C1507 C1508 1.376 . S
C1508 H1495 0.930 . S
C1508 C1507 1.376 . S
C1508 C1509 1.388 . S
C1509 H1496 0.930 . S
C1509 C1508 1.388 . S
C1509 C1510 1.390 . S
C1510 C1509 1.390 . S
C1510 C1511 1.394 . S
C1510 C1516 1.465 . S
C1511 C1506 1.399 . S
C1511 C1510 1.394 . S
C1511 C1512 1.516 . S
C1512 C1511 1.516 . S
C1512 C1513 1.502 . S
C1512 C1514 1.561 . S
C1512 C1515 1.526 . S
C1513 H1497 0.959 . S
C1513 H1498 0.959 . S
C1513 H1499 0.961 . S
C1513 C1512 1.502 . S
C1514 H1500 0.960 . S
C1514 H1501 0.961 . S
C1514 H1502 0.959 . S
C1514 C1512 1.561 . S
C1515 C1512 1.526 . S
C1515 C1516 1.396 . S
C1515 C1520 1.390 . S
C1516 C1510 1.465 . S
C1516 C1515 1.396 . S
C1516 C1517 1.399 . S
C1517 H1503 0.929 . S
C1517 C1516 1.399 . S
C1517 C1518 1.385 . S
C1518 H1504 0.931 . S
C1518 C1517 1.385 . S
C1518 C1519 1.389 . S
C1519 C1518 1.389 . S
C1519 C1520 1.387 . S
C1520 H1505 0.930 . S
C1520 C1515 1.390 . S
C1520 C1519 1.387 . S
H1521 C1533 0.930 . S
H1522 C1535 0.930 . S
H1523 C1536 0.930 . S
H1524 C1540 0.959 . S
H1525 C1540 0.959 . S
H1526 C1540 0.961 . S
H1527 C1541 0.960 . S
H1528 C1541 0.961 . S
H1529 C1541 0.959 . S
H1530 C1544 0.929 . S
H1531 C1545 0.931 . S
H1532 C1547 0.930 . S
C1533 H1521 0.930 . S
C1533 C1534 1.399 . S
C1533 C1538 1.399 . S
C1534 C1533 1.399 . S
C1534 C1535 1.376 . S
C1535 H1522 0.930 . S
C1535 C1534 1.376 . S
C1535 C1536 1.388 . S
C1536 H1523 0.930 . S
C1536 C1535 1.388 . S
C1536 C1537 1.390 . S
C1537 C1536 1.390 . S
C1537 C1538 1.394 . S
C1537 C1543 1.465 . S
C1538 C1533 1.399 . S
C1538 C1537 1.394 . S
C1538 C1539 1.516 . S
C1539 C1538 1.516 . S
C1539 C1540 1.502 . S
C1539 C1541 1.561 . S
C1539 C1542 1.526 . S
C1540 H1524 0.959 . S
C1540 H1525 0.959 . S
C1540 H1526 0.961 . S
C1540 C1539 1.502 . S
C1541 H1527 0.960 . S
C1541 H1528 0.961 . S
C1541 H1529 0.959 . S
C1541 C1539 1.561 . S
C1542 C1539 1.526 . S
C1542 C1543 1.396 . S
C1542 C1547 1.390 . S
C1543 C1537 1.465 . S
C1543 C1542 1.396 . S
C1543 C1544 1.399 . S
C1544 H1530 0.929 . S
C1544 C1543 1.399 . S
C1544 C1545 1.385 . S
C1545 H1531 0.931 . S
C1545 C1544 1.385 . S
C1545 C1546 1.389 . S
C1546 C1545 1.389 . S
C1546 C1547 1.387 . S
C1547 H1532 0.930 . S
C1547 C1542 1.390 . S
C1547 C1546 1.387 . S
H1548 C1560 0.930 . S
H1549 C1562 0.930 . S
H1550 C1563 0.930 . S
H1551 C1567 0.959 . S
H1552 C1567 0.959 . S
H1553 C1567 0.961 . S
H1554 C1568 0.960 . S
H1555 C1568 0.961 . S
H1556 C1568 0.959 . S
H1557 C1571 0.929 . S
H1558 C1572 0.931 . S
H1559 C1574 0.930 . S
C1560 H1548 0.930 . S
C1560 C1561 1.399 . S
C1560 C1565 1.399 . S
C1561 C1560 1.399 . S
C1561 C1562 1.376 . S
C1562 H1549 0.930 . S
C1562 C1561 1.376 . S
C1562 C1563 1.388 . S
C1563 H1550 0.930 . S
C1563 C1562 1.388 . S
C1563 C1564 1.390 . S
C1564 C1563 1.390 . S
C1564 C1565 1.394 . S
C1564 C1570 1.465 . S
C1565 C1560 1.399 . S
C1565 C1564 1.394 . S
C1565 C1566 1.516 . S
C1566 C1565 1.516 . S
C1566 C1567 1.502 . S
C1566 C1568 1.561 . S
C1566 C1569 1.526 . S
C1567 H1551 0.959 . S
C1567 H1552 0.959 . S
C1567 H1553 0.961 . S
C1567 C1566 1.502 . S
C1568 H1554 0.960 . S
C1568 H1555 0.961 . S
C1568 H1556 0.959 . S
C1568 C1566 1.561 . S
C1569 C1566 1.526 . S
C1569 C1570 1.396 . S
C1569 C1574 1.390 . S
C1570 C1564 1.465 . S
C1570 C1569 1.396 . S
C1570 C1571 1.399 . S
C1571 H1557 0.929 . S
C1571 C1570 1.399 . S
C1571 C1572 1.385 . S
C1572 H1558 0.931 . S
C1572 C1571 1.385 . S
C1572 C1573 1.389 . S
C1573 C1572 1.389 . S
C1573 C1574 1.387 . S
C1574 H1559 0.930 . S
C1574 C1569 1.390 . S
C1574 C1573 1.387 . S
H1575 C1587 0.930 . S
H1576 C1589 0.930 1_565 S
H1577 C1590 0.930 1_565 S
H1578 C1594 0.959 . S
H1579 C1594 0.959 . S
H1580 C1594 0.961 . S
H1581 C1595 0.960 . S
H1582 C1595 0.961 . S
H1583 C1595 0.959 . S
H1584 C1598 0.929 . S
H1585 C1599 0.931 1_565 S
H1586 C1601 0.930 . S
C1587 H1575 0.930 . S
C1587 C1588 1.399 . S
C1587 C1592 1.399 . S
C1588 C1587 1.399 . S
C1588 C1589 1.376 . S
C1589 H1576 0.930 1_545 S
C1589 C1588 1.376 . S
C1589 C1590 1.388 . S
C1590 H1577 0.930 1_545 S
C1590 C1589 1.388 . S
C1590 C1591 1.390 . S
C1591 C1590 1.390 . S
C1591 C1592 1.394 . S
C1591 C1597 1.465 . S
C1592 C1587 1.399 . S
C1592 C1591 1.394 . S
C1592 C1593 1.516 . S
C1593 C1592 1.516 . S
C1593 C1594 1.502 . S
C1593 C1595 1.561 . S
C1593 C1596 1.526 . S
C1594 H1578 0.959 . S
C1594 H1579 0.959 . S
C1594 H1580 0.961 . S
C1594 C1593 1.502 . S
C1595 H1581 0.960 . S
C1595 H1582 0.961 . S
C1595 H1583 0.959 . S
C1595 C1593 1.561 . S
C1596 C1593 1.526 . S
C1596 C1597 1.396 . S
C1596 C1601 1.390 . S
C1597 C1591 1.465 . S
C1597 C1596 1.396 . S
C1597 C1598 1.399 1_545 S
C1598 H1584 0.929 . S
C1598 C1597 1.399 1_565 S
C1598 C1599 1.385 1_565 S
C1599 H1585 0.931 1_545 S
C1599 C1598 1.385 1_545 S
C1599 C1600 1.389 . S
C1600 C1599 1.389 . S
C1600 C1601 1.387 . S
C1601 H1586 0.930 . S
C1601 C1596 1.390 . S
C1601 C1600 1.387 . S
H1602 C1614 0.930 . S
H1603 C1616 0.930 . S
H1604 C1617 0.930 . S
H1605 C1621 0.959 . S
H1606 C1621 0.959 . S
H1607 C1621 0.961 . S
H1608 C1622 0.960 . S
H1609 C1622 0.961 . S
H1610 C1622 0.959 . S
H1611 C1625 0.929 . S
H1612 C1626 0.931 . S
H1613 C1628 0.930 . S
C1614 H1602 0.930 . S
C1614 C1615 1.399 . S
C1614 C1619 1.399 . S
C1615 C1614 1.399 . S
C1615 C1616 1.376 . S
C1616 H1603 0.930 . S
C1616 C1615 1.376 . S
C1616 C1617 1.388 . S
C1617 H1604 0.930 . S
C1617 C1616 1.388 . S
C1617 C1618 1.390 . S
C1618 C1617 1.390 . S
C1618 C1619 1.394 . S
C1618 C1624 1.465 . S
C1619 C1614 1.399 . S
C1619 C1618 1.394 . S
C1619 C1620 1.516 . S
C1620 C1619 1.516 . S
C1620 C1621 1.502 . S
C1620 C1622 1.561 . S
C1620 C1623 1.526 . S
C1621 H1605 0.959 . S
C1621 H1606 0.959 . S
C1621 H1607 0.961 . S
C1621 C1620 1.502 . S
C1622 H1608 0.960 . S
C1622 H1609 0.961 . S
C1622 H1610 0.959 . S
C1622 C1620 1.561 . S
C1623 C1620 1.526 . S
C1623 C1624 1.396 . S
C1623 C1628 1.390 . S
C1624 C1618 1.465 . S
C1624 C1623 1.396 . S
C1624 C1625 1.399 . S
C1625 H1611 0.929 . S
C1625 C1624 1.399 . S
C1625 C1626 1.385 . S
C1626 H1612 0.931 . S
C1626 C1625 1.385 . S
C1626 C1627 1.389 . S
C1627 C1626 1.389 . S
C1627 C1628 1.387 . S
C1628 H1613 0.930 . S
C1628 C1623 1.390 . S
C1628 C1627 1.387 . S
H1629 C1641 0.930 . S
H1630 C1643 0.930 . S
H1631 C1644 0.930 . S
H1632 C1648 0.959 . S
H1633 C1648 0.959 . S
H1634 C1648 0.961 . S
H1635 C1649 0.960 . S
H1636 C1649 0.961 . S
H1637 C1649 0.959 . S
H1638 C1652 0.929 . S
H1639 C1653 0.931 . S
H1640 C1655 0.930 . S
C1641 H1629 0.930 . S
C1641 C1642 1.399 . S
C1641 C1646 1.399 . S
C1642 C1641 1.399 . S
C1642 C1643 1.376 . S
C1643 H1630 0.930 . S
C1643 C1642 1.376 . S
C1643 C1644 1.388 . S
C1644 H1631 0.930 . S
C1644 C1643 1.388 . S
C1644 C1645 1.390 . S
C1645 C1644 1.390 . S
C1645 C1646 1.394 . S
C1645 C1651 1.465 . S
C1646 C1641 1.399 . S
C1646 C1645 1.394 . S
C1646 C1647 1.516 . S
C1647 C1646 1.516 . S
C1647 C1648 1.502 . S
C1647 C1649 1.561 . S
C1647 C1650 1.526 . S
C1648 H1632 0.959 . S
C1648 H1633 0.959 . S
C1648 H1634 0.961 . S
C1648 C1647 1.502 . S
C1649 H1635 0.960 . S
C1649 H1636 0.961 . S
C1649 H1637 0.959 . S
C1649 C1647 1.561 . S
C1650 C1647 1.526 . S
C1650 C1651 1.396 . S
C1650 C1655 1.390 . S
C1651 C1645 1.465 . S
C1651 C1650 1.396 . S
C1651 C1652 1.399 . S
C1652 H1638 0.929 . S
C1652 C1651 1.399 . S
C1652 C1653 1.385 . S
C1653 H1639 0.931 . S
C1653 C1652 1.385 . S
C1653 C1654 1.389 . S
C1654 C1653 1.389 . S
C1654 C1655 1.387 . S
C1655 H1640 0.930 . S
C1655 C1650 1.390 . S
C1655 C1654 1.387 . S
H1656 C1668 0.930 . S
H1657 C1670 0.930 . S
H1658 C1671 0.930 . S
H1659 C1675 0.959 . S
H1660 C1675 0.959 . S
H1661 C1675 0.961 . S
H1662 C1676 0.960 . S
H1663 C1676 0.961 . S
H1664 C1676 0.959 . S
H1665 C1679 0.929 . S
H1666 C1680 0.931 . S
H1667 C1682 0.930 . S
C1668 H1656 0.930 . S
C1668 C1669 1.399 . S
C1668 C1673 1.399 . S
C1669 C1668 1.399 . S
C1669 C1670 1.376 . S
C1670 H1657 0.930 . S
C1670 C1669 1.376 . S
C1670 C1671 1.388 . S
C1671 H1658 0.930 . S
C1671 C1670 1.388 . S
C1671 C1672 1.390 . S
C1672 C1671 1.390 . S
C1672 C1673 1.394 . S
C1672 C1678 1.465 . S
C1673 C1668 1.399 . S
C1673 C1672 1.394 . S
C1673 C1674 1.516 . S
C1674 C1673 1.516 . S
C1674 C1675 1.502 . S
C1674 C1676 1.561 . S
C1674 C1677 1.526 . S
C1675 H1659 0.959 . S
C1675 H1660 0.959 . S
C1675 H1661 0.961 . S
C1675 C1674 1.502 . S
C1676 H1662 0.960 . S
C1676 H1663 0.961 . S
C1676 H1664 0.959 . S
C1676 C1674 1.561 . S
C1677 C1674 1.526 . S
C1677 C1678 1.396 . S
C1677 C1682 1.390 . S
C1678 C1672 1.465 . S
C1678 C1677 1.396 . S
C1678 C1679 1.399 . S
C1679 H1665 0.929 . S
C1679 C1678 1.399 . S
C1679 C1680 1.385 . S
C1680 H1666 0.931 . S
C1680 C1679 1.385 . S
C1680 C1681 1.389 . S
C1681 C1680 1.389 . S
C1681 C1682 1.387 . S
C1682 H1667 0.930 . S
C1682 C1677 1.390 . S
C1682 C1681 1.387 . S
H1683 C1695 0.930 . S
H1684 C1697 0.930 1_554 S
H1685 C1698 0.930 . S
H1686 C1702 0.959 1_655 S
H1687 C1702 0.959 . S
H1688 C1702 0.961 . S
H1689 C1703 0.960 . S
H1690 C1703 0.961 . S
H1691 C1703 0.959 . S
H1692 C1706 0.929 . S
H1693 C1707 0.931 . S
H1694 C1709 0.930 . S
C1695 H1683 0.930 . S
C1695 C1696 1.399 1_455 S
C1695 C1700 1.399 . S
C1696 C1695 1.399 1_655 S
C1696 C1697 1.376 . S
C1697 H1684 0.930 1_556 S
C1697 C1696 1.376 . S
C1697 C1698 1.388 . S
C1698 H1685 0.930 . S
C1698 C1697 1.388 . S
C1698 C1699 1.390 . S
C1699 C1698 1.390 . S
C1699 C1700 1.394 1_655 S
C1699 C1705 1.465 . S
C1700 C1695 1.399 . S
C1700 C1699 1.394 1_455 S
C1700 C1701 1.516 . S
C1701 C1700 1.516 . S
C1701 C1702 1.502 . S
C1701 C1703 1.561 . S
C1701 C1704 1.526 . S
C1702 H1686 0.959 1_455 S
C1702 H1687 0.959 . S
C1702 H1688 0.961 . S
C1702 C1701 1.502 . S
C1703 H1689 0.960 . S
C1703 H1690 0.961 . S
C1703 H1691 0.959 . S
C1703 C1701 1.561 . S
C1704 C1701 1.526 . S
C1704 C1705 1.396 1_455 S
C1704 C1709 1.390 . S
C1705 C1699 1.465 . S
C1705 C1704 1.396 1_655 S
C1705 C1706 1.399 . S
C1706 H1692 0.929 . S
C1706 C1705 1.399 . S
C1706 C1707 1.385 . S
C1707 H1693 0.931 . S
C1707 C1706 1.385 . S
C1707 C1708 1.389 1_655 S
C1708 C1707 1.389 1_455 S
C1708 C1709 1.387 . S
C1709 H1694 0.930 . S
C1709 C1704 1.390 . S
C1709 C1708 1.387 . S
H1710 C1722 0.930 . S
H1711 C1724 0.930 . S
H1712 C1725 0.930 . S
H1713 C1729 0.959 . S
H1714 C1729 0.959 . S
H1715 C1729 0.961 . S
H1716 C1730 0.960 . S
H1717 C1730 0.961 . S
H1718 C1730 0.959 . S
H1719 C1733 0.929 . S
H1720 C1734 0.931 . S
H1721 C1736 0.930 . S
C1722 H1710 0.930 . S
C1722 C1723 1.399 . S
C1722 C1727 1.399 . S
C1723 C1722 1.399 . S
C1723 C1724 1.376 . S
C1724 H1711 0.930 . S
C1724 C1723 1.376 . S
C1724 C1725 1.388 . S
C1725 H1712 0.930 . S
C1725 C1724 1.388 . S
C1725 C1726 1.390 . S
C1726 C1725 1.390 . S
C1726 C1727 1.394 . S
C1726 C1732 1.465 . S
C1727 C1722 1.399 . S
C1727 C1726 1.394 . S
C1727 C1728 1.516 . S
C1728 C1727 1.516 . S
C1728 C1729 1.502 . S
C1728 C1730 1.561 . S
C1728 C1731 1.526 . S
C1729 H1713 0.959 . S
C1729 H1714 0.959 . S
C1729 H1715 0.961 . S
C1729 C1728 1.502 . S
C1730 H1716 0.960 . S
C1730 H1717 0.961 . S
C1730 H1718 0.959 . S
C1730 C1728 1.561 . S
C1731 C1728 1.526 . S
C1731 C1732 1.396 . S
C1731 C1736 1.390 . S
C1732 C1726 1.465 . S
C1732 C1731 1.396 . S
C1732 C1733 1.399 . S
C1733 H1719 0.929 . S
C1733 C1732 1.399 . S
C1733 C1734 1.385 . S
C1734 H1720 0.931 . S
C1734 C1733 1.385 . S
C1734 C1735 1.389 . S
C1735 C1734 1.389 . S
C1735 C1736 1.387 . S
C1736 H1721 0.930 . S
C1736 C1731 1.390 . S
C1736 C1735 1.387 . S
H1737 C1749 0.930 . S
H1738 C1751 0.930 . S
H1739 C1752 0.930 . S
H1740 C1756 0.959 1_655 S
H1741 C1756 0.959 . S
H1742 C1756 0.961 . S
H1743 C1757 0.960 . S
H1744 C1757 0.961 . S
H1745 C1757 0.959 . S
H1746 C1760 0.929 . S
H1747 C1761 0.931 . S
H1748 C1763 0.930 . S
C1749 H1737 0.930 . S
C1749 C1750 1.399 . S
C1749 C1754 1.399 . S
C1750 C1749 1.399 . S
C1750 C1751 1.376 . S
C1751 H1738 0.930 . S
C1751 C1750 1.376 . S
C1751 C1752 1.388 . S
C1752 H1739 0.930 . S
C1752 C1751 1.388 . S
C1752 C1753 1.390 . S
C1753 C1752 1.390 . S
C1753 C1754 1.394 . S
C1753 C1759 1.465 . S
C1754 C1749 1.399 . S
C1754 C1753 1.394 . S
C1754 C1755 1.516 . S
C1755 C1754 1.516 . S
C1755 C1756 1.502 . S
C1755 C1757 1.561 . S
C1755 C1758 1.526 . S
C1756 H1740 0.959 1_455 S
C1756 H1741 0.959 . S
C1756 H1742 0.961 . S
C1756 C1755 1.502 . S
C1757 H1743 0.960 . S
C1757 H1744 0.961 . S
C1757 H1745 0.959 . S
C1757 C1755 1.561 . S
C1758 C1755 1.526 . S
C1758 C1759 1.396 . S
C1758 C1763 1.390 . S
C1759 C1753 1.465 . S
C1759 C1758 1.396 . S
C1759 C1760 1.399 . S
C1760 H1746 0.929 . S
C1760 C1759 1.399 . S
C1760 C1761 1.385 . S
C1761 H1747 0.931 . S
C1761 C1760 1.385 . S
C1761 C1762 1.389 . S
C1762 C1761 1.389 . S
C1762 C1763 1.387 . S
C1763 H1748 0.930 . S
C1763 C1758 1.390 . S
C1763 C1762 1.387 . S
H1764 C1776 0.930 . S
H1765 C1778 0.930 . S
H1766 C1779 0.930 . S
H1767 C1783 0.959 . S
H1768 C1783 0.959 . S
H1769 C1783 0.961 . S
H1770 C1784 0.960 . S
H1771 C1784 0.961 . S
H1772 C1784 0.959 . S
H1773 C1787 0.929 . S
H1774 C1788 0.931 . S
H1775 C1790 0.930 . S
C1776 H1764 0.930 . S
C1776 C1777 1.399 . S
C1776 C1781 1.399 . S
C1777 C1776 1.399 . S
C1777 C1778 1.376 . S
C1778 H1765 0.930 . S
C1778 C1777 1.376 . S
C1778 C1779 1.388 . S
C1779 H1766 0.930 . S
C1779 C1778 1.388 . S
C1779 C1780 1.390 . S
C1780 C1779 1.390 . S
C1780 C1781 1.394 . S
C1780 C1786 1.465 . S
C1781 C1776 1.399 . S
C1781 C1780 1.394 . S
C1781 C1782 1.516 . S
C1782 C1781 1.516 . S
C1782 C1783 1.502 . S
C1782 C1784 1.561 . S
C1782 C1785 1.526 . S
C1783 H1767 0.959 . S
C1783 H1768 0.959 . S
C1783 H1769 0.961 . S
C1783 C1782 1.502 . S
C1784 H1770 0.960 . S
C1784 H1771 0.961 . S
C1784 H1772 0.959 . S
C1784 C1782 1.561 . S
C1785 C1782 1.526 . S
C1785 C1786 1.396 . S
C1785 C1790 1.390 . S
C1786 C1780 1.465 . S
C1786 C1785 1.396 . S
C1786 C1787 1.399 . S
C1787 H1773 0.929 . S
C1787 C1786 1.399 . S
C1787 C1788 1.385 . S
C1788 H1774 0.931 . S
C1788 C1787 1.385 . S
C1788 C1789 1.389 . S
C1789 C1788 1.389 . S
C1789 C1790 1.387 . S
C1790 H1775 0.930 . S
C1790 C1785 1.390 . S
C1790 C1789 1.387 . S
H1791 C1803 0.930 . S
H1792 C1805 0.930 . S
H1793 C1806 0.930 . S
H1794 C1810 0.959 . S
H1795 C1810 0.959 . S
H1796 C1810 0.961 . S
H1797 C1811 0.960 . S
H1798 C1811 0.961 . S
H1799 C1811 0.959 . S
H1800 C1814 0.929 . S
H1801 C1815 0.931 . S
H1802 C1817 0.930 . S
C1803 H1791 0.930 . S
C1803 C1804 1.399 . S
C1803 C1808 1.399 . S
C1804 C1803 1.399 . S
C1804 C1805 1.376 . S
C1805 H1792 0.930 . S
C1805 C1804 1.376 . S
C1805 C1806 1.388 . S
C1806 H1793 0.930 . S
C1806 C1805 1.388 . S
C1806 C1807 1.390 . S
C1807 C1806 1.390 . S
C1807 C1808 1.394 . S
C1807 C1813 1.465 . S
C1808 C1803 1.399 . S
C1808 C1807 1.394 . S
C1808 C1809 1.516 . S
C1809 C1808 1.516 . S
C1809 C1810 1.502 . S
C1809 C1811 1.561 . S
C1809 C1812 1.526 . S
C1810 H1794 0.959 . S
C1810 H1795 0.959 . S
C1810 H1796 0.961 . S
C1810 C1809 1.502 . S
C1811 H1797 0.960 . S
C1811 H1798 0.961 . S
C1811 H1799 0.959 . S
C1811 C1809 1.561 . S
C1812 C1809 1.526 . S
C1812 C1813 1.396 . S
C1812 C1817 1.390 . S
C1813 C1807 1.465 . S
C1813 C1812 1.396 . S
C1813 C1814 1.399 . S
C1814 H1800 0.929 . S
C1814 C1813 1.399 . S
C1814 C1815 1.385 . S
C1815 H1801 0.931 . S
C1815 C1814 1.385 . S
C1815 C1816 1.389 . S
C1816 C1815 1.389 . S
C1816 C1817 1.387 . S
C1817 H1802 0.930 . S
C1817 C1812 1.390 . S
C1817 C1816 1.387 . S
H1818 C1830 0.930 . S
H1819 C1832 0.930 . S
H1820 C1833 0.930 . S
H1821 C1837 0.959 . S
H1822 C1837 0.959 . S
H1823 C1837 0.961 . S
H1824 C1838 0.960 . S
H1825 C1838 0.961 . S
H1826 C1838 0.959 . S
H1827 C1841 0.929 . S
H1828 C1842 0.931 . S
H1829 C1844 0.930 . S
C1830 H1818 0.930 . S
C1830 C1831 1.399 . S
C1830 C1835 1.399 . S
C1831 C1830 1.399 . S
C1831 C1832 1.376 . S
C1832 H1819 0.930 . S
C1832 C1831 1.376 . S
C1832 C1833 1.388 . S
C1833 H1820 0.930 . S
C1833 C1832 1.388 . S
C1833 C1834 1.390 . S
C1834 C1833 1.390 . S
C1834 C1835 1.394 . S
C1834 C1840 1.465 . S
C1835 C1830 1.399 . S
C1835 C1834 1.394 . S
C1835 C1836 1.516 . S
C1836 C1835 1.516 . S
C1836 C1837 1.502 . S
C1836 C1838 1.561 . S
C1836 C1839 1.526 . S
C1837 H1821 0.959 . S
C1837 H1822 0.959 . S
C1837 H1823 0.961 . S
C1837 C1836 1.502 . S
C1838 H1824 0.960 . S
C1838 H1825 0.961 . S
C1838 H1826 0.959 . S
C1838 C1836 1.561 . S
C1839 C1836 1.526 . S
C1839 C1840 1.396 . S
C1839 C1844 1.390 . S
C1840 C1834 1.465 . S
C1840 C1839 1.396 . S
C1840 C1841 1.399 . S
C1841 H1827 0.929 . S
C1841 C1840 1.399 . S
C1841 C1842 1.385 . S
C1842 H1828 0.931 . S
C1842 C1841 1.385 . S
C1842 C1843 1.389 . S
C1843 C1842 1.389 . S
C1843 C1844 1.387 . S
C1844 H1829 0.930 . S
C1844 C1839 1.390 . S
C1844 C1843 1.387 . S
H1845 C1857 0.930 . S
H1846 C1859 0.930 . S
H1847 C1860 0.930 . S
H1848 C1864 0.959 . S
H1849 C1864 0.959 . S
H1850 C1864 0.961 . S
H1851 C1865 0.960 . S
H1852 C1865 0.961 . S
H1853 C1865 0.959 . S
H1854 C1868 0.929 . S
H1855 C1869 0.931 . S
H1856 C1871 0.930 . S
C1857 H1845 0.930 . S
C1857 C1858 1.399 . S
C1857 C1862 1.399 . S
C1858 C1857 1.399 . S
C1858 C1859 1.376 . S
C1859 H1846 0.930 . S
C1859 C1858 1.376 . S
C1859 C1860 1.388 . S
C1860 H1847 0.930 . S
C1860 C1859 1.388 . S
C1860 C1861 1.390 . S
C1861 C1860 1.390 . S
C1861 C1862 1.394 . S
C1861 C1867 1.465 . S
C1862 C1857 1.399 . S
C1862 C1861 1.394 . S
C1862 C1863 1.516 . S
C1863 C1862 1.516 . S
C1863 C1864 1.502 . S
C1863 C1865 1.561 . S
C1863 C1866 1.526 . S
C1864 H1848 0.959 . S
C1864 H1849 0.959 . S
C1864 H1850 0.961 . S
C1864 C1863 1.502 . S
C1865 H1851 0.960 . S
C1865 H1852 0.961 . S
C1865 H1853 0.959 . S
C1865 C1863 1.561 . S
C1866 C1863 1.526 . S
C1866 C1867 1.396 . S
C1866 C1871 1.390 . S
C1867 C1861 1.465 . S
C1867 C1866 1.396 . S
C1867 C1868 1.399 . S
C1868 H1854 0.929 . S
C1868 C1867 1.399 . S
C1868 C1869 1.385 . S
C1869 H1855 0.931 . S
C1869 C1868 1.385 . S
C1869 C1870 1.389 . S
C1870 C1869 1.389 . S
C1870 C1871 1.387 . S
C1871 H1856 0.930 . S
C1871 C1866 1.390 . S
C1871 C1870 1.387 . S
H1872 C1884 0.930 . S
H1873 C1886 0.930 . S
H1874 C1887 0.930 . S
H1875 C1891 0.959 . S
H1876 C1891 0.959 . S
H1877 C1891 0.961 . S
H1878 C1892 0.960 . S
H1879 C1892 0.961 . S
H1880 C1892 0.959 . S
H1881 C1895 0.929 . S
H1882 C1896 0.931 . S
H1883 C1898 0.930 . S
C1884 H1872 0.930 . S
C1884 C1885 1.399 . S
C1884 C1889 1.399 . S
C1885 C1884 1.399 . S
C1885 C1886 1.376 . S
C1886 H1873 0.930 . S
C1886 C1885 1.376 . S
C1886 C1887 1.388 . S
C1887 H1874 0.930 . S
C1887 C1886 1.388 . S
C1887 C1888 1.390 . S
C1888 C1887 1.390 . S
C1888 C1889 1.394 . S
C1888 C1894 1.465 . S
C1889 C1884 1.399 . S
C1889 C1888 1.394 . S
C1889 C1890 1.516 . S
C1890 C1889 1.516 . S
C1890 C1891 1.502 . S
C1890 C1892 1.561 . S
C1890 C1893 1.526 . S
C1891 H1875 0.959 . S
C1891 H1876 0.959 . S
C1891 H1877 0.961 . S
C1891 C1890 1.502 . S
C1892 H1878 0.960 . S
C1892 H1879 0.961 . S
C1892 H1880 0.959 . S
C1892 C1890 1.561 . S
C1893 C1890 1.526 . S
C1893 C1894 1.396 . S
C1893 C1898 1.390 . S
C1894 C1888 1.465 . S
C1894 C1893 1.396 . S
C1894 C1895 1.399 . S
C1895 H1881 0.929 . S
C1895 C1894 1.399 . S
C1895 C1896 1.385 . S
C1896 H1882 0.931 . S
C1896 C1895 1.385 . S
C1896 C1897 1.389 . S
C1897 C1896 1.389 . S
C1897 C1898 1.387 . S
C1898 H1883 0.930 . S
C1898 C1893 1.390 . S
C1898 C1897 1.387 . S
H1899 C1911 0.930 . S
H1900 C1913 0.930 . S
H1901 C1914 0.930 . S
H1902 C1918 0.959 . S
H1903 C1918 0.959 . S
H1904 C1918 0.961 . S
H1905 C1919 0.960 . S
H1906 C1919 0.961 . S
H1907 C1919 0.959 . S
H1908 C1922 0.929 . S
H1909 C1923 0.931 . S
H1910 C1925 0.930 . S
C1911 H1899 0.930 . S
C1911 C1912 1.399 . S
C1911 C1916 1.399 . S
C1912 C1911 1.399 . S
C1912 C1913 1.376 . S
C1913 H1900 0.930 . S
C1913 C1912 1.376 . S
C1913 C1914 1.388 . S
C1914 H1901 0.930 . S
C1914 C1913 1.388 . S
C1914 C1915 1.390 . S
C1915 C1914 1.390 . S
C1915 C1916 1.394 . S
C1915 C1921 1.465 . S
C1916 C1911 1.399 . S
C1916 C1915 1.394 . S
C1916 C1917 1.516 . S
C1917 C1916 1.516 . S
C1917 C1918 1.502 . S
C1917 C1919 1.561 . S
C1917 C1920 1.526 . S
C1918 H1902 0.959 . S
C1918 H1903 0.959 . S
C1918 H1904 0.961 . S
C1918 C1917 1.502 . S
C1919 H1905 0.960 . S
C1919 H1906 0.961 . S
C1919 H1907 0.959 . S
C1919 C1917 1.561 . S
C1920 C1917 1.526 . S
C1920 C1921 1.396 . S
C1920 C1925 1.390 . S
C1921 C1915 1.465 . S
C1921 C1920 1.396 . S
C1921 C1922 1.399 . S
C1922 H1908 0.929 . S
C1922 C1921 1.399 . S
C1922 C1923 1.385 . S
C1923 H1909 0.931 . S
C1923 C1922 1.385 . S
C1923 C1924 1.389 . S
C1924 C1923 1.389 . S
C1924 C1925 1.387 . S
C1925 H1910 0.930 . S
C1925 C1920 1.390 . S
C1925 C1924 1.387 . S
H1926 C1938 0.930 . S
H1927 C1940 0.930 . S
H1928 C1941 0.930 . S
H1929 C1945 0.959 . S
H1930 C1945 0.959 . S
H1931 C1945 0.961 . S
H1932 C1946 0.960 . S
H1933 C1946 0.961 . S
H1934 C1946 0.959 . S
H1935 C1949 0.929 . S
H1936 C1950 0.931 . S
H1937 C1952 0.930 . S
C1938 H1926 0.930 . S
C1938 C1939 1.399 . S
C1938 C1943 1.399 . S
C1939 C1938 1.399 . S
C1939 C1940 1.376 . S
C1940 H1927 0.930 . S
C1940 C1939 1.376 . S
C1940 C1941 1.388 . S
C1941 H1928 0.930 . S
C1941 C1940 1.388 . S
C1941 C1942 1.390 . S
C1942 C1941 1.390 . S
C1942 C1943 1.394 . S
C1942 C1948 1.465 . S
C1943 C1938 1.399 . S
C1943 C1942 1.394 . S
C1943 C1944 1.516 . S
C1944 C1943 1.516 . S
C1944 C1945 1.502 . S
C1944 C1946 1.561 . S
C1944 C1947 1.526 . S
C1945 H1929 0.959 . S
C1945 H1930 0.959 . S
C1945 H1931 0.961 . S
C1945 C1944 1.502 . S
C1946 H1932 0.960 . S
C1946 H1933 0.961 . S
C1946 H1934 0.959 . S
C1946 C1944 1.561 . S
C1947 C1944 1.526 . S
C1947 C1948 1.396 . S
C1947 C1952 1.390 . S
C1948 C1942 1.465 . S
C1948 C1947 1.396 . S
C1948 C1949 1.399 . S
C1949 H1935 0.929 . S
C1949 C1948 1.399 . S
C1949 C1950 1.385 . S
C1950 H1936 0.931 . S
C1950 C1949 1.385 . S
C1950 C1951 1.389 . S
C1951 C1950 1.389 . S
C1951 C1952 1.387 . S
C1952 H1937 0.930 . S
C1952 C1947 1.390 . S
C1952 C1951 1.387 . S
H1953 C1965 0.930 . S
H1954 C1967 0.930 . S
H1955 C1968 0.930 . S
H1956 C1972 0.959 . S
H1957 C1972 0.959 . S
H1958 C1972 0.961 . S
H1959 C1973 0.960 . S
H1960 C1973 0.961 . S
H1961 C1973 0.959 . S
H1962 C1976 0.929 . S
H1963 C1977 0.931 . S
H1964 C1979 0.930 . S
C1965 H1953 0.930 . S
C1965 C1966 1.399 . S
C1965 C1970 1.399 . S
C1966 C1965 1.399 . S
C1966 C1967 1.376 . S
C1967 H1954 0.930 . S
C1967 C1966 1.376 . S
C1967 C1968 1.388 . S
C1968 H1955 0.930 . S
C1968 C1967 1.388 . S
C1968 C1969 1.390 . S
C1969 C1968 1.390 . S
C1969 C1970 1.394 . S
C1969 C1975 1.465 . S
C1970 C1965 1.399 . S
C1970 C1969 1.394 . S
C1970 C1971 1.516 . S
C1971 C1970 1.516 . S
C1971 C1972 1.502 . S
C1971 C1973 1.561 . S
C1971 C1974 1.526 . S
C1972 H1956 0.959 . S
C1972 H1957 0.959 . S
C1972 H1958 0.961 . S
C1972 C1971 1.502 . S
C1973 H1959 0.960 . S
C1973 H1960 0.961 . S
C1973 H1961 0.959 . S
C1973 C1971 1.561 . S
C1974 C1971 1.526 . S
C1974 C1975 1.396 . S
C1974 C1979 1.390 . S
C1975 C1969 1.465 . S
C1975 C1974 1.396 . S
C1975 C1976 1.399 . S
C1976 H1962 0.929 . S
C1976 C1975 1.399 . S
C1976 C1977 1.385 . S
C1977 H1963 0.931 . S
C1977 C1976 1.385 . S
C1977 C1978 1.389 . S
C1978 C1977 1.389 . S
C1978 C1979 1.387 . S
C1979 H1964 0.930 . S
C1979 C1974 1.390 . S
C1979 C1978 1.387 . S
H1980 C1992 0.930 1_554 S
H1981 C1994 0.930 . S
H1982 C1995 0.930 . S
H1983 C1999 0.959 . S
H1984 C1999 0.959 . S
H1985 C1999 0.961 . S
H1986 C2000 0.960 . S
H1987 C2000 0.961 . S
H1988 C2000 0.959 . S
H1989 C2003 0.929 . S
H1990 C2004 0.931 . S
H1991 C2006 0.930 . S
C1992 H1980 0.930 1_556 S
C1992 C1993 1.399 . S
C1992 C1997 1.399 . S
C1993 C1992 1.399 . S
C1993 C1994 1.376 . S
C1994 H1981 0.930 . S
C1994 C1993 1.376 . S
C1994 C1995 1.388 . S
C1995 H1982 0.930 . S
C1995 C1994 1.388 . S
C1995 C1996 1.390 . S
C1996 C1995 1.390 . S
C1996 C1997 1.394 . S
C1996 C2002 1.465 . S
C1997 C1992 1.399 . S
C1997 C1996 1.394 . S
C1997 C1998 1.516 1_556 S
C1998 C1997 1.516 1_554 S
C1998 C1999 1.502 . S
C1998 C2000 1.561 . S
C1998 C2001 1.526 . S
C1999 H1983 0.959 . S
C1999 H1984 0.959 . S
C1999 H1985 0.961 . S
C1999 C1998 1.502 . S
C2000 H1986 0.960 . S
C2000 H1987 0.961 . S
C2000 H1988 0.959 . S
C2000 C1998 1.561 . S
C2001 C1998 1.526 . S
C2001 C2002 1.396 1_554 S
C2001 C2006 1.390 . S
C2002 C1996 1.465 . S
C2002 C2001 1.396 1_556 S
C2002 C2003 1.399 . S
C2003 H1989 0.929 . S
C2003 C2002 1.399 . S
C2003 C2004 1.385 . S
C2004 H1990 0.931 . S
C2004 C2003 1.385 . S
C2004 C2005 1.389 . S
C2005 C2004 1.389 . S
C2005 C2006 1.387 1_556 S
C2006 H1991 0.930 . S
C2006 C2001 1.390 . S
C2006 C2005 1.387 1_554 S
H2007 C2019 0.930 . S
H2008 C2021 0.930 . S
H2009 C2022 0.930 . S
H2010 C2026 0.959 . S
H2011 C2026 0.959 . S
H2012 C2026 0.961 . S
H2013 C2027 0.960 . S
H2014 C2027 0.961 . S
H2015 C2027 0.959 . S
H2016 C2030 0.929 . S
H2017 C2031 0.931 . S
H2018 C2033 0.930 . S
C2019 H2007 0.930 . S
C2019 C2020 1.399 . S
C2019 C2024 1.399 . S
C2020 C2019 1.399 . S
C2020 C2021 1.376 . S
C2021 H2008 0.930 . S
C2021 C2020 1.376 . S
C2021 C2022 1.388 . S
C2022 H2009 0.930 . S
C2022 C2021 1.388 . S
C2022 C2023 1.390 . S
C2023 C2022 1.390 . S
C2023 C2024 1.394 . S
C2023 C2029 1.465 . S
C2024 C2019 1.399 . S
C2024 C2023 1.394 . S
C2024 C2025 1.516 . S
C2025 C2024 1.516 . S
C2025 C2026 1.502 . S
C2025 C2027 1.561 . S
C2025 C2028 1.526 . S
C2026 H2010 0.959 . S
C2026 H2011 0.959 . S
C2026 H2012 0.961 . S
C2026 C2025 1.502 . S
C2027 H2013 0.960 . S
C2027 H2014 0.961 . S
C2027 H2015 0.959 . S
C2027 C2025 1.561 . S
C2028 C2025 1.526 . S
C2028 C2029 1.396 . S
C2028 C2033 1.390 . S
C2029 C2023 1.465 . S
C2029 C2028 1.396 . S
C2029 C2030 1.399 . S
C2030 H2016 0.929 . S
C2030 C2029 1.399 . S
C2030 C2031 1.385 . S
C2031 H2017 0.931 . S
C2031 C2030 1.385 . S
C2031 C2032 1.389 . S
C2032 C2031 1.389 . S
C2032 C2033 1.387 . S
C2033 H2018 0.930 . S
C2033 C2028 1.390 . S
C2033 C2032 1.387 . S
H2034 C2046 0.930 . S
H2035 C2048 0.930 . S
H2036 C2049 0.930 1_556 S
H2037 C2053 0.959 . S
H2038 C2053 0.959 . S
H2039 C2053 0.961 . S
H2040 C2054 0.960 . S
H2041 C2054 0.961 . S
H2042 C2054 0.959 . S
H2043 C2057 0.929 . S
H2044 C2058 0.946 . S
H2045 C2060 0.930 . S
C2046 H2034 0.930 . S
C2046 C2047 1.399 . S
C2046 C2051 1.399 . S
C2047 C2046 1.399 . S
C2047 C2048 1.376 . S
C2048 H2035 0.930 . S
C2048 C2047 1.376 . S
C2048 C2049 1.388 . S
C2049 H2036 0.930 1_554 S
C2049 C2048 1.388 . S
C2049 C2050 1.390 . S
C2050 C2049 1.390 . S
C2050 C2051 1.394 . S
C2050 C2056 1.465 . S
C2051 C2046 1.399 . S
C2051 C2050 1.394 . S
C2051 C2052 1.516 . S
C2052 C2051 1.516 . S
C2052 C2053 1.502 . S
C2052 C2054 1.561 . S
C2052 C2055 1.526 . S
C2053 H2037 0.959 . S
C2053 H2038 0.959 . S
C2053 H2039 0.961 . S
C2053 C2052 1.502 . S
C2054 H2040 0.960 . S
C2054 H2041 0.961 . S
C2054 H2042 0.959 . S
C2054 C2052 1.561 . S
C2055 C2052 1.526 . S
C2055 C2056 1.396 . S
C2055 C2060 1.390 . S
C2056 C2050 1.465 . S
C2056 C2055 1.396 . S
C2056 C2057 1.399 1_554 S
C2057 H2043 0.929 . S
C2057 C2056 1.399 1_556 S
C2057 C2058 1.388 . S
C2058 H2044 0.946 . S
C2058 C2057 1.388 . S
C2058 C2059 1.372 1_556 S
C2059 C2058 1.372 1_554 S
C2059 C2060 1.387 . S
C2060 H2045 0.930 . S
C2060 C2055 1.390 . S
C2060 C2059 1.387 . S
H2061 C2073 0.948 . S
H2062 C2075 0.930 . S
H2063 C2076 0.930 . S
H2064 C2080 0.959 . S
H2065 C2080 0.959 . S
H2066 C2080 0.961 . S
H2067 C2081 0.960 . S
H2068 C2081 0.961 . S
H2069 C2081 0.959 . S
H2070 C2084 0.929 . S
H2071 C2085 0.931 . S
H2072 C2087 0.930 . S
C2073 H2061 0.948 . S
C2073 C2074 1.383 1_556 S
C2073 C2078 1.397 1_556 S
C2074 C2073 1.383 1_554 S
C2074 C2075 1.376 . S
C2075 H2062 0.930 . S
C2075 C2074 1.376 . S
C2075 C2076 1.388 . S
C2076 H2063 0.930 . S
C2076 C2075 1.388 . S
C2076 C2077 1.390 . S
C2077 C2076 1.390 . S
C2077 C2078 1.394 . S
C2077 C2083 1.465 . S
C2078 C2073 1.397 1_554 S
C2078 C2077 1.394 . S
C2078 C2079 1.516 1_554 S
C2079 C2078 1.516 1_556 S
C2079 C2080 1.502 . S
C2079 C2081 1.561 . S
C2079 C2082 1.505 1_556 S
C2080 H2064 0.959 . S
C2080 H2065 0.959 . S
C2080 H2066 0.961 . S
C2080 C2079 1.502 . S
C2081 H2067 0.960 . S
C2081 H2068 0.961 . S
C2081 H2069 0.959 . S
C2081 C2079 1.561 . S
C2082 C2079 1.505 1_554 S
C2082 C2083 1.432 . S
C2082 C2087 1.380 1_554 S
C2083 C2077 1.465 . S
C2083 C2082 1.432 . S
C2083 C2084 1.399 . S
C2084 H2070 0.929 . S
C2084 C2083 1.399 . S
C2084 C2085 1.385 . S
C2085 H2071 0.931 . S
C2085 C2084 1.385 . S
C2085 C2086 1.389 . S
C2086 C2085 1.389 . S
C2086 C2087 1.387 1_554 S
C2087 H2072 0.930 . S
C2087 C2082 1.380 1_556 S
C2087 C2086 1.387 1_556 S
C817 C635 1.440 . S
C805 C211 1.449 . S
C844 C643 1.280 . S
C832 C255 1.540 . S
C859 C274 1.441 . S
C871 C663 1.402 . S
C898 C677 1.521 . S
C886 C157 1.525 . S
C925 C692 1.532 . S
C913 C391 1.527 . S
C952 C706 1.510 . S
C940 C484 1.495 . S
C967 C450 1.557 . S
C979 C720 1.559 . S
C1006 C726 1.471 . S
C994 C352 1.473 . S
C1021 C430 1.512 . S
C1033 C740 1.479 . S
C1060 C761 1.509 . S
C1048 C367 1.555 . S
C1075 C411 1.481 . S
C1087 C741 1.288 . S
C1114 C762 1.532 . S
C1102 C469 1.535 . S
C1129 C294 1.472 . S
C1141 C769 1.244 . S
C1156 C177 1.507 . S
C1168 C775 1.479 . S
C1183 C196 1.504 . S
C1195 C768 1.436 . S
C1210 C235 1.467 . S
C1222 C776 1.477 . S
C1237 C133 1.497 . S
C1249 C670 1.429 . S
C1264 C567 1.480 . S
C1276 C671 1.203 . S
C1303 C628 1.532 . S
C1291 C601 1.544 . S
C1330 C649 1.405 . S
C1318 C328 1.459 . S
C1345 C172 1.484 . S
C1357 C684 1.413 . S
C1384 C734 1.525 . S
C1372 C445 1.524 . S
C1411 C685 1.207 . S
C1399 C372 1.466 . S
C1438 C713 1.247 . S
C1426 C489 1.550 . S
C1465 C719 1.426 . S
C1453 C562 1.457 . S
C1480 C606 1.522 . S
C1492 C727 1.298 . S
C1507 C313 1.440 . S
C1519 C691 1.394 . S
C1546 C705 1.474 . S
C1534 C508 1.517 . S
C1561 C118 1.532 . S
C1573 C664 1.528 . S
C1600 C678 1.508 . S
C1588 C16 1.516 . S
C1627 C636 1.551 . S
C1615 C60 1.553 . S
C1654 C642 1.444 . S
C1642 C79 1.476 . S
C1669 C40 1.513 . S
C1681 C754 1.506 . S
C1696 C94 1.556 . S
C1708 C747 1.511 . S
C1723 C138 1.470 . S
C1735 C755 1.213 . S
C1750 C1 1.530 . S
C1762 C748 1.529 . S
C1789 C783 1.134 . S
C1777 C333 1.481 . S
C1816 C789 1.481 . S
C1804 C528 1.507 . S
C1843 C782 1.484 . S
C1831 C547 1.497 . S
C1858 C586 1.471 . S
C1870 C790 1.468 . S
C1885 C406 1.492 . S
C1897 C698 1.466 . S
C1924 C699 1.248 . S
C1912 C216 1.476 . S
C1951 C712 1.517 . S
C1939 C250 1.545 . S
C1978 C733 1.430 . S
C1966 C289 1.451 . S
C1993 C523 1.480 . S
C2005 C656 1.427 1_556 S
C2032 C650 1.521 . S
C2020 C55 1.523 . S
C2047 C99 1.462 . S
C2059 C657 1.273 . S
C2086 C629 1.291 . S
C2074 C21 1.532 . S
