# Generated by pormake.
# Topology the, (3,8)-cn, num edge types: 1
# Building blocks:
#     Node 0, Type 0, BuildingBlock: BETDAH_clean_linker_0, # of connection points: 3
#     Node 1, Type 0, BuildingBlock: BETDAH_clean_linker_0, # of connection points: 3
#     Node 2, Type 0, BuildingBlock: BETDAH_clean_linker_0, # of connection points: 3
#     Node 3, Type 0, BuildingBlock: BETDAH_clean_linker_0, # of connection points: 3
#     Node 4, Type 0, BuildingBlock: BETDAH_clean_linker_0, # of connection points: 3
#     Node 5, Type 0, BuildingBlock: BETDAH_clean_linker_0, # of connection points: 3
#     Node 6, Type 0, BuildingBlock: BETDAH_clean_linker_0, # of connection points: 3
#     Node 7, Type 0, BuildingBlock: BETDAH_clean_linker_0, # of connection points: 3
#     Node 8, Type 1, BuildingBlock: GIZVER_clean_sbu_0, # of connection points: 8
#     Node 9, Type 1, BuildingBlock: GIZVER_clean_sbu_0, # of connection points: 8
#     Node 10, Type 1, BuildingBlock: GIZVER_clean_sbu_0, # of connection points: 8
#     Edge 11, Type (0, 1), BuildingBlock: UVAHIK_clean_linker_0, # of connection points: 2
#     Edge 12, Type (0, 1), BuildingBlock: UVAHIK_clean_linker_0, # of connection points: 2
#     Edge 13, Type (0, 1), BuildingBlock: UVAHIK_clean_linker_0, # of connection points: 2
#     Edge 14, Type (0, 1), BuildingBlock: UVAHIK_clean_linker_0, # of connection points: 2
#     Edge 15, Type (0, 1), BuildingBlock: UVAHIK_clean_linker_0, # of connection points: 2
#     Edge 16, Type (0, 1), BuildingBlock: UVAHIK_clean_linker_0, # of connection points: 2
#     Edge 17, Type (0, 1), BuildingBlock: UVAHIK_clean_linker_0, # of connection points: 2
#     Edge 18, Type (0, 1), BuildingBlock: UVAHIK_clean_linker_0, # of connection points: 2
#     Edge 19, Type (0, 1), BuildingBlock: UVAHIK_clean_linker_0, # of connection points: 2
#     Edge 20, Type (0, 1), BuildingBlock: UVAHIK_clean_linker_0, # of connection points: 2
#     Edge 21, Type (0, 1), BuildingBlock: UVAHIK_clean_linker_0, # of connection points: 2
#     Edge 22, Type (0, 1), BuildingBlock: UVAHIK_clean_linker_0, # of connection points: 2
#     Edge 23, Type (0, 1), BuildingBlock: UVAHIK_clean_linker_0, # of connection points: 2
#     Edge 24, Type (0, 1), BuildingBlock: UVAHIK_clean_linker_0, # of connection points: 2
#     Edge 25, Type (0, 1), BuildingBlock: UVAHIK_clean_linker_0, # of connection points: 2
#     Edge 26, Type (0, 1), BuildingBlock: UVAHIK_clean_linker_0, # of connection points: 2
#     Edge 27, Type (0, 1), BuildingBlock: UVAHIK_clean_linker_0, # of connection points: 2
#     Edge 28, Type (0, 1), BuildingBlock: UVAHIK_clean_linker_0, # of connection points: 2
#     Edge 29, Type (0, 1), BuildingBlock: UVAHIK_clean_linker_0, # of connection points: 2
#     Edge 30, Type (0, 1), BuildingBlock: UVAHIK_clean_linker_0, # of connection points: 2
#     Edge 31, Type (0, 1), BuildingBlock: UVAHIK_clean_linker_0, # of connection points: 2
#     Edge 32, Type (0, 1), BuildingBlock: UVAHIK_clean_linker_0, # of connection points: 2
#     Edge 33, Type (0, 1), BuildingBlock: UVAHIK_clean_linker_0, # of connection points: 2
#     Edge 34, Type (0, 1), BuildingBlock: UVAHIK_clean_linker_0, # of connection points: 2
# Relax obj value: 0.072
# Max RMSD: 0.193
# Mean RMSD: 0.136
data_MOF--net-the--node1-GIZVER_clean_sbu_0--node2-BETDAH_clean_linker_0--edge1-UVAHIK_clean_linker_0
_symmetry_space_group_name_H-M    P1
_symmetry_Int_Tables_number       1
_symmetry_cell_setting            triclinic
loop_
_symmetry_equiv_pos_as_xyz
'x, y, z'
_cell_length_a     51.94303
_cell_length_b     49.049128
_cell_length_c     46.625393
_cell_angle_alpha  86.922705
_cell_angle_beta   94.805172
_cell_angle_gamma 107.55037
loop_
_atom_site_label
_atom_site_type_symbol
_atom_site_fract_x
_atom_site_fract_y
_atom_site_fract_z
_atom_type_partial_charge
H0 H 0.39034 0.30979 0.3522 0.0
H1 H 0.32792 0.2725 0.41001 0.0
H2 H 0.32129 0.34136 0.35196 0.0
C3 C 0.37159 0.30944 0.36105 0.0
C4 C 0.35723 0.32821 0.34959 0.0
C5 C 0.36101 0.28902 0.38263 0.0
C6 C 0.33627 0.288 0.39318 0.0
C7 C 0.32215 0.30698 0.38271 0.0
C8 C 0.33252 0.32708 0.36072 0.0
N9 N 0.29709 0.30418 0.39425 0.0
C10 C 0.2843 0.32531 0.3934 0.0
H11 H 0.75348 0.27883 0.34749 0.0
H12 H 0.78466 0.33716 0.27778 0.0
H13 H 0.71082 0.26889 0.26344 0.0
C14 C 0.75172 0.28584 0.32516 0.0
C15 C 0.72991 0.27046 0.30671 0.0
C16 C 0.77155 0.30993 0.31503 0.0
C17 C 0.76946 0.31866 0.28601 0.0
C18 C 0.74729 0.30451 0.26764 0.0
C19 C 0.72739 0.28046 0.27801 0.0
N20 N 0.74634 0.31422 0.23851 0.0
C21 C 0.72281 0.3157 0.22285 0.0
H22 H 0.75042 0.65227 0.31866 0.0
H23 H 0.78182 0.72922 0.36688 0.0
H24 H 0.71866 0.72355 0.30017 0.0
C25 C 0.74997 0.67351 0.32337 0.0
C26 C 0.73209 0.68575 0.30677 0.0
C27 C 0.76788 0.68881 0.3454 0.0
C28 C 0.76746 0.71658 0.35088 0.0
C29 C 0.74949 0.72887 0.33497 0.0
C30 C 0.7319 0.71351 0.31294 0.0
N31 N 0.75239 0.75823 0.33813 0.0
C32 C 0.73446 0.76807 0.35215 0.0
H33 H 0.30427 0.71917 0.35405 0.0
H34 H 0.3668 0.7021 0.30922 0.0
H35 H 0.28729 0.64206 0.3067 0.0
C36 C 0.31052 0.70583 0.33998 0.0
C37 C 0.29227 0.67954 0.33146 0.0
C38 C 0.33742 0.71422 0.33197 0.0
C39 C 0.34601 0.6961 0.31498 0.0
C40 C 0.32766 0.66999 0.30602 0.0
C41 C 0.30111 0.66216 0.3141 0.0
N42 N 0.33495 0.64998 0.2901 0.0
C43 C 0.35785 0.65505 0.2749 0.0
H44 H 0.34033 0.73317 0.69233 0.0
H45 H 0.30964 0.67814 0.76431 0.0
H46 H 0.38829 0.73975 0.77336 0.0
C47 C 0.34334 0.72576 0.7143 0.0
C48 C 0.36717 0.73936 0.73112 0.0
C49 C 0.32264 0.70338 0.72583 0.0
C50 C 0.32554 0.69513 0.75489 0.0
C51 C 0.34924 0.70789 0.77185 0.0
C52 C 0.37016 0.7298 0.75994 0.0
N53 N 0.35069 0.69965 0.80138 0.0
C54 C 0.37203 0.69122 0.81494 0.0
H55 H 0.40693 0.28147 0.72783 0.0
H56 H 0.34583 0.32506 0.71465 0.0
H57 H 0.34655 0.26001 0.657 0.0
C58 C 0.38925 0.2846 0.71571 0.0
C59 C 0.37813 0.26808 0.69141 0.0
C60 C 0.3777 0.30519 0.7244 0.0
C61 C 0.35493 0.3094 0.70815 0.0
C62 C 0.3436 0.29277 0.68396 0.0
C63 C 0.35523 0.27232 0.67597 0.0
N64 N 0.32042 0.2954 0.66695 0.0
C65 C 0.30693 0.31562 0.66945 0.0
H66 H 0.78255 0.29723 0.67978 0.0
H67 H 0.79521 0.33819 0.76144 0.0
H68 H 0.72999 0.26089 0.74759 0.0
C69 C 0.77647 0.29815 0.70131 0.0
C70 C 0.75421 0.27655 0.71127 0.0
C71 C 0.79172 0.32018 0.71942 0.0
C72 C 0.78379 0.32117 0.74736 0.0
C73 C 0.76142 0.29983 0.75736 0.0
C74 C 0.74718 0.27731 0.73958 0.0
N75 N 0.75333 0.30012 0.78556 0.0
C76 C 0.74833 0.32385 0.7961 0.0
H77 H 0.76935 0.64405 0.69075 0.0
H78 H 0.79845 0.71758 0.63455 0.0
H79 H 0.73956 0.71679 0.69403 0.0
C80 C 0.76875 0.66498 0.68257 0.0
C81 C 0.75231 0.67865 0.69488 0.0
C82 C 0.78572 0.67901 0.661 0.0
C83 C 0.78563 0.70654 0.65138 0.0
C84 C 0.76881 0.71998 0.6627 0.0
C85 C 0.75214 0.7061 0.6846 0.0
N86 N 0.76996 0.74788 0.65214 0.0
C87 C 0.74869 0.75941 0.65219 0.0
Co88 Co 0.09572 0.48822 0.53849 0.0
Co89 Co 0.06372 0.47124 0.49252 0.0
Co90 Co 0.04094 0.51278 0.5236 0.0
O91 O 0.05751 0.4808 0.52879 0.0
H92 H 0.04646 0.46434 0.53902 0.0
O93 O 0.02426 0.54462 0.51813 0.0
Co94 Co 0.98595 0.53691 0.50831 0.0
Co95 Co 0.01859 0.55505 0.55438 0.0
H96 H 0.03515 0.56096 0.50761 0.0
O97 O 0.0692 0.43679 0.48581 0.0
O98 O 0.10079 0.47769 0.49918 0.0
O99 O 0.05868 0.49579 0.46012 0.0
O100 O 0.06164 0.531 0.48924 0.0
O101 O 0.01145 0.48816 0.49775 0.0
O102 O 0.95135 0.53329 0.49808 0.0
O103 O 0.98715 0.57274 0.49505 0.0
O104 O 0.97953 0.49798 0.51952 0.0
O105 O 0.01986 0.49489 0.55805 0.0
O106 O 0.02453 0.53096 0.58671 0.0
O107 O 0.98127 0.54632 0.54776 0.0
O108 O 0.01031 0.58861 0.56082 0.0
C109 C 0.12046 0.46528 0.55678 0.0
C110 C 0.09555 0.54241 0.54412 0.0
C111 C 0.06356 0.52221 0.46447 0.0
C112 C 0.09446 0.45168 0.49004 0.0
C113 C 0.96116 0.56018 0.49069 0.0
C114 C 0.98658 0.48261 0.50248 0.0
C115 C 0.0179 0.50432 0.58259 0.0
C116 C 0.98565 0.57221 0.55623 0.0
O117 O 0.13024 0.49204 0.54892 0.0
O118 O 0.09449 0.4526 0.5524 0.0
O119 O 0.07078 0.53736 0.54929 0.0
O120 O 0.10193 0.52689 0.52665 0.0
Co121 Co 0.56527 0.95218 0.5006 0.0
Co122 Co 0.58148 0.98147 0.54734 0.0
Co123 Co 0.53933 0.00642 0.51328 0.0
O124 O 0.57041 0.99095 0.5102 0.0
H125 H 0.5853 0.00437 0.50099 0.0
O126 O 0.50879 0.02281 0.51685 0.0
Co127 Co 0.51653 0.06167 0.52949 0.0
Co128 Co 0.49749 0.03566 0.48118 0.0
H129 H 0.49374 0.00954 0.52595 0.0
O130 O 0.61515 0.97693 0.55641 0.0
O131 O 0.57703 0.9433 0.54079 0.0
O132 O 0.55901 0.98184 0.57832 0.0
O133 O 0.5242 0.98018 0.54686 0.0
O134 O 0.56345 0.03514 0.5401 0.0
O135 O 0.52077 0.09612 0.54253 0.0
O136 O 0.48371 0.05778 0.54317 0.0
O137 O 0.55234 0.07113 0.51819 0.0
O138 O 0.55435 0.03246 0.47939 0.0
O139 O 0.51969 0.03671 0.44991 0.0
O140 O 0.50409 0.07353 0.49098 0.0
O141 O 0.46444 0.04335 0.47438 0.0
C142 C 0.58816 0.92969 0.48421 0.0
C143 C 0.51262 0.95014 0.49165 0.0
C144 C 0.53371 0.97537 0.57216 0.0
C145 C 0.60198 0.9503 0.55175 0.0
C146 C 0.49612 0.08436 0.54974 0.0
C147 C 0.56858 0.0619 0.53497 0.0
C148 C 0.54479 0.03993 0.45502 0.0
C149 C 0.47894 0.06894 0.4815 0.0
O150 O 0.56328 0.91715 0.49031 0.0
O151 O 0.59898 0.95687 0.48929 0.0
O152 O 0.51544 0.97675 0.48669 0.0
O153 O 0.52901 0.94258 0.50986 0.0
Co154 Co 0.51662 0.50612 0.07576 0.0
Co155 Co 0.49816 0.45637 0.05223 0.0
Co156 Co 0.5467 0.49879 0.01692 0.0
O157 O 0.51294 0.49315 0.03722 0.0
H158 H 0.4993 0.49903 0.0253 0.0
O159 O 0.58061 0.50485 0.99713 0.0
Co160 Co 0.58018 0.49263 0.959 0.0
Co161 Co 0.59441 0.54204 0.98285 0.0
H162 H 0.59437 0.49995 1.00975 0.0
O163 O 0.46254 0.4425 0.0645 0.0
O164 O 0.49989 0.46692 0.09024 0.0
O165 O 0.52112 0.43217 0.05187 0.0
O166 O 0.55786 0.46697 0.0395 0.0
O167 O 0.52491 0.47062 0.98753 0.0
O168 O 0.583 0.48022 0.92453 0.0
O169 O 0.61329 0.48773 0.96297 0.0
O170 O 0.54479 0.49539 0.95031 0.0
O171 O 0.53508 0.53012 0.99412 0.0
O172 O 0.57107 0.56584 0.98229 0.0
O173 O 0.59531 0.53272 0.94499 0.0
O174 O 0.63026 0.55806 0.97384 0.0
C175 C 0.49457 0.52315 0.09989 0.0
C176 C 0.56973 0.52016 0.07282 0.0
C177 C 0.54649 0.44165 0.04947 0.0
C178 C 0.47434 0.45286 0.08887 0.0
C179 C 0.60627 0.47929 0.93662 0.0
C180 C 0.52506 0.47616 0.96044 0.0
C181 C 0.54573 0.55554 0.98415 0.0
C182 C 0.62028 0.54879 0.94849 0.0
O183 O 0.5173 0.51947 0.1105 0.0
O184 O 0.48503 0.51445 0.07406 0.0
O185 O 0.56884 0.52712 0.0461 0.0
O186 O 0.55054 0.49992 0.0822 0.0
C187 C 0.2399 0.3332 0.39024 0.0
C188 C 0.26775 0.34338 0.39747 0.0
C189 C 0.22259 0.3473 0.39953 0.0
C190 C 0.21796 0.41372 0.42849 0.0
H191 H 0.1571 0.36237 0.46601 0.0
C192 C 0.1434 0.4549 0.4872 0.0
C193 C 0.11583 0.43967 0.48241 0.0
C194 C 0.16336 0.44405 0.4783 0.0
C195 C 0.1738 0.37702 0.45536 0.0
H196 H 0.2999 0.37646 0.41887 0.0
H197 H 0.26954 0.40162 0.43491 0.0
H198 H 0.18897 0.34307 0.44499 0.0
H199 H 0.08766 0.40094 0.46485 0.0
H200 H 0.12219 0.38245 0.44887 0.0
H201 H 0.20242 0.44765 0.43838 0.0
C202 C 0.26108 0.38288 0.42198 0.0
C203 C 0.19206 0.36594 0.44332 0.0
C204 C 0.27841 0.3686 0.41279 0.0
C205 C 0.10869 0.4132 0.46901 0.0
C206 C 0.12856 0.40248 0.45997 0.0
C207 C 0.19949 0.42484 0.44035 0.0
C208 C 0.23292 0.37177 0.41624 0.0
C209 C 0.21411 0.3841 0.42943 0.0
C210 C 0.15614 0.41781 0.46433 0.0
C211 C 0.17699 0.40653 0.4536 0.0
H212 H 0.23137 0.31356 0.37866 0.0
H213 H 0.201 0.33851 0.39448 0.0
H214 H 0.23483 0.42817 0.41792 0.0
H215 H 0.14959 0.47533 0.49757 0.0
H216 H 0.18443 0.45621 0.48234 0.0
C217 C 0.72029 0.22436 0.3356 0.0
C218 C 0.71059 0.24357 0.31758 0.0
C219 C 0.70243 0.19998 0.34754 0.0
C220 C 0.63275 0.1511 0.34101 0.0
H221 H 0.64663 0.13677 0.42258 0.0
C222 C 0.55436 0.07178 0.41075 0.0
C223 C 0.56383 0.05735 0.43426 0.0
C224 C 0.57251 0.09192 0.39397 0.0
C225 C 0.64267 0.14004 0.39969 0.0
H226 H 0.6744 0.25156 0.29713 0.0
H227 H 0.64303 0.20865 0.31797 0.0
H228 H 0.67733 0.17698 0.39812 0.0
H229 H 0.59993 0.05145 0.45725 0.0
H230 H 0.63154 0.08596 0.42753 0.0
H231 H 0.59799 0.11409 0.34265 0.0
C232 C 0.66458 0.2126 0.32278 0.0
C233 C 0.66026 0.16323 0.38567 0.0
C234 C 0.68253 0.23716 0.31086 0.0
C235 C 0.5919 0.06231 0.43948 0.0
C236 C 0.61004 0.08232 0.42257 0.0
C237 C 0.61517 0.12772 0.35503 0.0
C238 C 0.67436 0.19402 0.34167 0.0
C239 C 0.65551 0.16909 0.3562 0.0
C240 C 0.60061 0.09802 0.40014 0.0
C241 C 0.61988 0.12193 0.3846 0.0
H242 H 0.74181 0.2282 0.34062 0.0
H243 H 0.71064 0.18579 0.36149 0.0
H244 H 0.6287 0.15491 0.31822 0.0
H245 H 0.53289 0.06858 0.40606 0.0
H246 H 0.56445 0.10369 0.37705 0.0
C247 C 0.80223 0.66167 0.34734 0.0
C248 C 0.788 0.6765 0.36166 0.0
C249 C 0.82169 0.65088 0.36242 0.0
C250 C 0.84341 0.62946 0.43557 0.0
H251 H 0.90997 0.63441 0.40074 0.0
C252 C 0.91432 0.5634 0.47828 0.0
C253 C 0.94248 0.57614 0.47825 0.0
C254 C 0.89637 0.57757 0.4657 0.0
C255 C 0.89163 0.63311 0.41092 0.0
H256 H 0.78296 0.69125 0.40324 0.0
H257 H 0.81706 0.67263 0.42951 0.0
H258 H 0.87705 0.65536 0.37548 0.0
H259 H 0.97381 0.61419 0.46552 0.0
H260 H 0.94235 0.63902 0.44335 0.0
H261 H 0.85802 0.60729 0.47105 0.0
C262 C 0.81305 0.66921 0.40661 0.0
C263 C 0.87259 0.64482 0.39627 0.0
C264 C 0.79366 0.6801 0.3915 0.0
C265 C 0.95225 0.60372 0.46579 0.0
C266 C 0.93422 0.61787 0.45297 0.0
C267 C 0.8624 0.61766 0.45016 0.0
C268 C 0.82741 0.65455 0.39225 0.0
C269 C 0.84811 0.64293 0.40829 0.0
C270 C 0.90604 0.60487 0.45261 0.0
C271 C 0.88665 0.6191 0.43792 0.0
H272 H 0.79866 0.6588 0.32433 0.0
H273 H 0.8321 0.63942 0.35071 0.0
H274 H 0.82474 0.62744 0.44541 0.0
H275 H 0.90602 0.54226 0.48785 0.0
H276 H 0.87484 0.56676 0.46559 0.0
C277 C 0.38074 0.74012 0.3592 0.0
C278 C 0.3567 0.74089 0.34348 0.0
C279 C 0.39705 0.76426 0.3736 0.0
C280 C 0.41507 0.84202 0.37744 0.0
H281 H 0.43061 0.82862 0.45884 0.0
C282 C 0.47374 0.93419 0.45384 0.0
C283 C 0.49228 0.92766 0.47477 0.0
C284 C 0.45562 0.91247 0.43735 0.0
C285 C 0.42684 0.83278 0.43608 0.0
H286 H 0.3315 0.76776 0.32924 0.0
H287 H 0.3605 0.81034 0.35386 0.0
H288 H 0.40407 0.78902 0.42939 0.0
H289 H 0.50616 0.89305 0.49472 0.0
H290 H 0.4757 0.85596 0.46577 0.0
H291 H 0.43864 0.88565 0.38388 0.0
C292 C 0.36653 0.79097 0.35524 0.0
C293 C 0.41154 0.81004 0.41925 0.0
C294 C 0.34995 0.76666 0.34126 0.0
C295 C 0.49214 0.89901 0.47893 0.0
C296 C 0.47438 0.87752 0.46239 0.0
C297 C 0.43084 0.86481 0.39423 0.0
C298 C 0.38986 0.78976 0.37214 0.0
C299 C 0.40575 0.81433 0.38973 0.0
C300 C 0.45579 0.88382 0.4414 0.0
C301 C 0.43724 0.86038 0.42373 0.0
H302 H 0.38628 0.72047 0.36146 0.0
H303 H 0.41505 0.76286 0.38636 0.0
H304 H 0.4108 0.84587 0.3547 0.0
H305 H 0.47331 0.95604 0.4501 0.0
H306 H 0.44142 0.91811 0.42157 0.0
C307 C 0.30107 0.68058 0.67944 0.0
C308 C 0.29826 0.68845 0.70729 0.0
C309 C 0.2784 0.66596 0.66207 0.0
C310 C 0.2044 0.65054 0.65094 0.0
H311 H 0.20921 0.58613 0.60931 0.0
C312 C 0.11228 0.57357 0.58707 0.0
C313 C 0.11741 0.56284 0.56148 0.0
C314 C 0.13368 0.59025 0.60489 0.0
C315 C 0.2076 0.6043 0.62043 0.0
H316 H 0.26935 0.6876 0.73852 0.0
H317 H 0.22961 0.66187 0.70809 0.0
H318 H 0.24766 0.61234 0.64041 0.0
H319 H 0.14885 0.56256 0.53374 0.0
H320 H 0.18585 0.59206 0.56427 0.0
H321 H 0.16433 0.64259 0.63068 0.0
C322 C 0.24942 0.66713 0.69975 0.0
C323 C 0.22966 0.61928 0.63834 0.0
C324 C 0.27218 0.68161 0.71725 0.0
C325 C 0.1442 0.57019 0.55348 0.0
C326 C 0.16548 0.58695 0.57113 0.0
C327 C 0.1823 0.63561 0.63283 0.0
C328 C 0.25233 0.65894 0.67204 0.0
C329 C 0.22842 0.64269 0.65365 0.0
C330 C 0.16061 0.59665 0.5974 0.0
C331 C 0.18373 0.61243 0.61716 0.0
H332 H 0.32089 0.68531 0.67122 0.0
H333 H 0.28129 0.66022 0.64072 0.0
H334 H 0.20291 0.66863 0.66231 0.0
H335 H 0.09187 0.56824 0.59386 0.0
H336 H 0.12918 0.59724 0.62502 0.0
C337 C 0.41856 0.25433 0.67843 0.0
C338 C 0.39054 0.24695 0.68122 0.0
C339 C 0.4297 0.23567 0.66561 0.0
C340 C 0.41634 0.16033 0.64476 0.0
H341 H 0.46818 0.19416 0.58807 0.0
C342 C 0.45518 0.09162 0.57029 0.0
C343 C 0.48273 0.10174 0.56484 0.0
C344 C 0.44318 0.10861 0.58466 0.0
C345 C 0.45399 0.18431 0.60408 0.0
H346 H 0.35247 0.21354 0.6741 0.0
H347 H 0.37185 0.18106 0.65178 0.0
H348 H 0.44981 0.2247 0.6144 0.0
H349 H 0.51923 0.13763 0.5705 0.0
H350 H 0.49865 0.16663 0.59574 0.0
H351 H 0.42071 0.11992 0.63455 0.0
C352 C 0.38525 0.20126 0.65941 0.0
C353 C 0.44346 0.20189 0.61922 0.0
C354 C 0.37411 0.21998 0.67202 0.0
C355 C 0.49791 0.12912 0.57411 0.0
C356 C 0.48602 0.14594 0.58849 0.0
C357 C 0.42701 0.14271 0.6297 0.0
C358 C 0.41311 0.20909 0.6555 0.0
C359 C 0.42458 0.19018 0.63984 0.0
C360 C 0.45847 0.13605 0.59391 0.0
C361 C 0.44612 0.15448 0.60925 0.0
H362 H 0.43175 0.27498 0.68514 0.0
H363 H 0.4513 0.24221 0.66329 0.0
H364 H 0.40195 0.15062 0.66063 0.0
H365 H 0.44288 0.07069 0.56333 0.0
H366 H 0.42183 0.10038 0.58818 0.0
C367 C 0.8413 0.34593 0.72607 0.0
C368 C 0.81659 0.3412 0.70944 0.0
C369 C 0.86522 0.364 0.71563 0.0
C370 C 0.91278 0.38664 0.67648 0.0
H371 H 0.91534 0.46207 0.64475 0.0
C372 C 0.99177 0.45494 0.59937 0.0
C373 C 1.00163 0.48451 0.60405 0.0
C374 C 0.97197 0.43716 0.61627 0.0
C375 C 0.91501 0.44115 0.65377 0.0
H376 H 0.7973 0.35213 0.66934 0.0
H377 H 0.83905 0.38432 0.65136 0.0
H378 H 0.87437 0.43225 0.66604 0.0
H379 H 0.99973 0.51811 0.63162 0.0
H380 H 0.96512 0.4871 0.66072 0.0
H381 H 0.9532 0.3953 0.66337 0.0
C382 C 0.83993 0.37386 0.67233 0.0
C383 C 0.89151 0.42405 0.66573 0.0
C384 C 0.8161 0.35542 0.68254 0.0
C385 C 0.99257 0.49549 0.62725 0.0
C386 C 0.97259 0.47779 0.64386 0.0
C387 C 0.93616 0.4036 0.66405 0.0
C388 C 0.86476 0.37804 0.68862 0.0
C389 C 0.89012 0.39659 0.67709 0.0
C390 C 0.96151 0.44865 0.63796 0.0
C391 C 0.93746 0.431 0.65254 0.0
H392 H 0.84222 0.33501 0.74677 0.0
H393 H 0.88408 0.367 0.72865 0.0
H394 H 0.91213 0.36545 0.68493 0.0
H395 H 0.99832 0.44575 0.58175 0.0
H396 H 0.96373 0.41474 0.61126 0.0
C397 C 0.70366 0.76075 0.63275 0.0
C398 C 0.7282 0.77365 0.64832 0.0
C399 C 0.68562 0.77644 0.62482 0.0
C400 C 0.67096 0.84421 0.63796 0.0
H401 H 0.64383 0.8393 0.55769 0.0
C402 C 0.63941 0.93498 0.57794 0.0
C403 C 0.6146 0.92781 0.56133 0.0
C404 C 0.65036 0.91369 0.58923 0.0
C405 C 0.65095 0.84061 0.58024 0.0
H406 H 0.7533 0.81218 0.66864 0.0
H407 H 0.72203 0.83984 0.65474 0.0
H408 H 0.66714 0.80557 0.57819 0.0
H409 H 0.58231 0.89271 0.54261 0.0
H410 H 0.60186 0.85543 0.56207 0.0
H411 H 0.65566 0.87995 0.63965 0.0
C412 C 0.71625 0.81759 0.649 0.0
C413 C 0.66418 0.82124 0.59205 0.0
C414 C 0.7342 0.80187 0.65691 0.0
C415 C 0.60143 0.89892 0.5554 0.0
C416 C 0.61259 0.87758 0.56649 0.0
C417 C 0.65791 0.86365 0.62612 0.0
C418 C 0.69203 0.80527 0.63229 0.0
C419 C 0.67486 0.82325 0.62088 0.0
C420 C 0.6369 0.88479 0.58396 0.0
C421 C 0.64833 0.86242 0.597 0.0
H422 H 0.69892 0.73894 0.62581 0.0
H423 H 0.667 0.76627 0.61225 0.0
H424 H 0.67848 0.84597 0.66038 0.0
H425 H 0.65014 0.95702 0.58284 0.0
H426 H 0.66941 0.91985 0.60219 0.0
C427 C 0.36025 0.23904 0.39721 0.0
C428 C 0.37506 0.26799 0.39375 0.0
C429 C 0.3728 0.21927 0.40926 0.0
C430 C 0.43928 0.20697 0.42478 0.0
H431 H 0.39905 0.14751 0.47631 0.0
C432 C 0.48422 0.12148 0.48002 0.0
C433 C 0.46749 0.09315 0.47694 0.0
C434 C 0.47388 0.14443 0.47327 0.0
C435 C 0.41049 0.16396 0.46192 0.0
H436 H 0.41476 0.29891 0.39969 0.0
H437 H 0.43684 0.26426 0.42105 0.0
H438 H 0.3797 0.18488 0.4573 0.0
H439 H 0.42653 0.06671 0.4657 0.0
H440 H 0.40852 0.10674 0.45402 0.0
H441 H 0.47 0.18581 0.42933 0.0
C442 C 0.4155 0.25684 0.4142 0.0
C443 C 0.3994 0.18531 0.45093 0.0
C444 C 0.40291 0.27668 0.40197 0.0
C445 C 0.43999 0.08826 0.46814 0.0
C446 C 0.42962 0.1112 0.46162 0.0
C447 C 0.45045 0.18567 0.43591 0.0
C448 C 0.40048 0.22796 0.41828 0.0
C449 C 0.4134 0.20673 0.43176 0.0
C450 C 0.44657 0.13951 0.46361 0.0
C451 C 0.43594 0.16365 0.45416 0.0
H452 H 0.33886 0.23163 0.39055 0.0
H453 H 0.36077 0.19708 0.41135 0.0
H454 H 0.4505 0.223 0.40989 0.0
H455 H 0.50548 0.12598 0.48694 0.0
H456 H 0.48732 0.16605 0.47533 0.0
C457 C 0.78919 0.33323 0.3622 0.0
C458 C 0.79424 0.32611 0.33486 0.0
C459 C 0.81038 0.34889 0.38076 0.0
C460 C 0.88414 0.36828 0.39653 0.0
H461 H 0.8741 0.43194 0.43527 0.0
C462 C 0.97171 0.44986 0.46069 0.0
C463 C 0.96545 0.46125 0.4853 0.0
C464 C 0.95117 0.43194 0.44295 0.0
C465 C 0.87715 0.41396 0.42502 0.0
H466 H 0.8255 0.32937 0.30573 0.0
H467 H 0.86263 0.35679 0.33825 0.0
H468 H 0.83766 0.40357 0.40316 0.0
H469 H 0.93287 0.46161 0.51136 0.0
H470 H 0.89727 0.42984 0.48102 0.0
H471 H 0.92355 0.37848 0.41863 0.0
C472 C 0.84224 0.3502 0.34528 0.0
C473 C 0.85625 0.39777 0.40652 0.0
C474 C 0.82099 0.33474 0.32659 0.0
C475 C 0.93836 0.45344 0.49241 0.0
C476 C 0.9179 0.43537 0.47484 0.0
C477 C 0.90502 0.38437 0.41525 0.0
C478 C 0.83713 0.3576 0.3725 0.0
C479 C 0.85949 0.37474 0.39208 0.0
C480 C 0.92393 0.42485 0.44957 0.0
C481 C 0.90177 0.40741 0.42978 0.0
H482 H 0.76876 0.32707 0.36908 0.0
H483 H 0.80583 0.35407 0.40169 0.0
H484 H 0.88711 0.35047 0.3859 0.0
H485 H 0.99238 0.45554 0.45457 0.0
H486 H 0.95657 0.42445 0.42356 0.0
C487 C 0.73258 0.81035 0.3768 0.0
C488 C 0.7194 0.78281 0.36691 0.0
C489 C 0.71843 0.82544 0.39052 0.0
C490 C 0.64899 0.82862 0.39877 0.0
H491 H 0.68408 0.87696 0.46261 0.0
C492 C 0.59099 0.88406 0.46491 0.0
C493 C 0.60382 0.91271 0.47211 0.0
C494 C 0.6052 0.86791 0.45292 0.0
C495 C 0.67408 0.86379 0.44463 0.0
H496 H 0.68136 0.74908 0.3635 0.0
H497 H 0.65639 0.77527 0.38789 0.0
H498 H 0.7082 0.84871 0.44066 0.0
H499 H 0.64193 0.94664 0.47279 0.0
H500 H 0.66682 0.91837 0.45176 0.0
H501 H 0.61484 0.84367 0.40282 0.0
C502 C 0.67761 0.78547 0.38479 0.0
C503 C 0.68791 0.84756 0.43201 0.0
C504 C 0.69186 0.77037 0.371 0.0
C505 C 0.6314 0.92468 0.46741 0.0
C506 C 0.6457 0.90841 0.45552 0.0
C507 C 0.63514 0.84478 0.41146 0.0
C508 C 0.69071 0.81328 0.39468 0.0
C509 C 0.67561 0.82983 0.4088 0.0
C510 C 0.63269 0.87988 0.4479 0.0
C511 C 0.64753 0.86265 0.4345 0.0
H512 H 0.75385 0.82035 0.37368 0.0
H513 H 0.72914 0.84691 0.39735 0.0
H514 H 0.63899 0.81565 0.38066 0.0
H515 H 0.5698 0.87403 0.46835 0.0
H516 H 0.59463 0.84589 0.44776 0.0
C517 C 0.24908 0.6881 0.34453 0.0
C518 C 0.26443 0.66924 0.34162 0.0
C519 C 0.22268 0.67775 0.35349 0.0
C520 C 0.16408 0.61594 0.35252 0.0
H521 H 0.15097 0.63094 0.42988 0.0
C522 C 0.08826 0.53455 0.4195 0.0
C523 C 0.07712 0.54336 0.44246 0.0
C524 C 0.10582 0.55464 0.40223 0.0
C525 C 0.15379 0.62705 0.4079 0.0
H526 H 0.26426 0.62488 0.34731 0.0
H527 H 0.2181 0.60699 0.36151 0.0
H528 H 0.19275 0.65876 0.40897 0.0
H529 H 0.07358 0.58032 0.46354 0.0
H530 H 0.10358 0.61545 0.43279 0.0
H531 H 0.12557 0.58392 0.35136 0.0
C532 C 0.22647 0.62966 0.35661 0.0
C533 C 0.17782 0.64298 0.39604 0.0
C534 C 0.25286 0.63996 0.34829 0.0
C535 C 0.08213 0.57281 0.44624 0.0
C536 C 0.09948 0.59296 0.42873 0.0
C537 C 0.13986 0.60036 0.36413 0.0
C538 C 0.21115 0.64839 0.35915 0.0
C539 C 0.18353 0.63672 0.36875 0.0
C540 C 0.11241 0.58409 0.40725 0.0
C541 C 0.13495 0.6048 0.39249 0.0
H542 H 0.25726 0.71072 0.33946 0.0
H543 H 0.21114 0.69252 0.35559 0.0
H544 H 0.16816 0.6109 0.33134 0.0
H545 H 0.08487 0.51205 0.41596 0.0
H546 H 0.11554 0.54684 0.38619 0.0
C547 C 0.39276 0.76543 0.6893 0.0
C548 C 0.38787 0.7644 0.71867 0.0
C549 C 0.40928 0.79026 0.67656 0.0
C550 C 0.46564 0.8516 0.68368 0.0
H551 H 0.42771 0.89096 0.62894 0.0
C552 C 0.52397 0.95385 0.62171 0.0
C553 C 0.51527 0.95667 0.59264 0.0
C554 C 0.50797 0.9331 0.63992 0.0
C555 C 0.43877 0.88015 0.64386 0.0
H556 H 0.39795 0.78859 0.75788 0.0
H557 H 0.42792 0.83158 0.73561 0.0
H558 H 0.4023 0.84816 0.65499 0.0
H559 H 0.48257 0.94031 0.56011 0.0
H560 H 0.45532 0.90375 0.59124 0.0
H561 H 0.50227 0.8823 0.67155 0.0
C562 C 0.41836 0.8131 0.7226 0.0
C563 C 0.42411 0.85578 0.65892 0.0
C564 C 0.40137 0.78839 0.73531 0.0
C565 C 0.4898 0.93898 0.58247 0.0
C566 C 0.47405 0.91796 0.60049 0.0
C567 C 0.48043 0.87569 0.66818 0.0
C568 C 0.42186 0.81439 0.693 0.0
C569 C 0.43745 0.8412 0.67872 0.0
C570 C 0.48307 0.91434 0.62938 0.0
C571 C 0.46722 0.89014 0.64774 0.0
H572 H 0.38339 0.7472 0.67591 0.0
H573 H 0.412 0.79076 0.65373 0.0
H574 H 0.47629 0.84051 0.6988 0.0
H575 H 0.54344 0.96725 0.63025 0.0
H576 H 0.51539 0.93151 0.66216 0.0
C577 C 0.26131 0.32093 0.66784 0.0
C578 C 0.28918 0.33342 0.66577 0.0
C579 C 0.24315 0.33625 0.65883 0.0
C580 C 0.23829 0.39592 0.60897 0.0
H581 H 0.17149 0.38753 0.64483 0.0
C582 C 0.16728 0.46325 0.57152 0.0
C583 C 0.13919 0.44964 0.5698 0.0
C584 C 0.18529 0.44917 0.58407 0.0
C585 C 0.18993 0.38984 0.63439 0.0
H586 H 0.32033 0.37169 0.65363 0.0
H587 H 0.28875 0.39899 0.63853 0.0
H588 H 0.20401 0.36431 0.66713 0.0
H589 H 0.10807 0.41034 0.57977 0.0
H590 H 0.13967 0.38559 0.60174 0.0
H591 H 0.22424 0.42137 0.57624 0.0
C592 C 0.28073 0.37723 0.64671 0.0
C593 C 0.20862 0.37659 0.64721 0.0
C594 C 0.29887 0.36181 0.65568 0.0
C595 C 0.12956 0.42145 0.58083 0.0
C596 C 0.14766 0.40735 0.59356 0.0
C597 C 0.21967 0.4092 0.59623 0.0
C598 C 0.25257 0.36438 0.64744 0.0
C599 C 0.23307 0.37945 0.63466 0.0
C600 C 0.17577 0.42107 0.59531 0.0
C601 C 0.19525 0.40636 0.60875 0.0
H602 H 0.25344 0.29882 0.67513 0.0
H603 H 0.22167 0.32551 0.65944 0.0
H604 H 0.25655 0.39808 0.59827 0.0
H605 H 0.17549 0.48494 0.56323 0.0
H606 H 0.20674 0.46052 0.58535 0.0
C607 C 0.73088 0.22468 0.70211 0.0
C608 C 0.73819 0.25332 0.69211 0.0
C609 C 0.71506 0.2029 0.68434 0.0
C610 C 0.68998 0.18723 0.60782 0.0
H611 H 0.63466 0.12554 0.64251 0.0
C612 C 0.59885 0.11172 0.54312 0.0
C613 C 0.59141 0.08246 0.55098 0.0
C614 C 0.61907 0.1315 0.55941 0.0
C615 C 0.65024 0.14243 0.63257 0.0
H616 H 0.7347 0.28165 0.65571 0.0
H617 H 0.70652 0.24384 0.62491 0.0
H618 H 0.66524 0.16221 0.67281 0.0
H619 H 0.59986 0.05093 0.58175 0.0
H620 H 0.63501 0.08562 0.61041 0.0
H621 H 0.67415 0.16777 0.5674 0.0
C622 C 0.71353 0.23798 0.6462 0.0
C623 C 0.66786 0.16345 0.64993 0.0
C624 C 0.7296 0.25971 0.66388 0.0
C625 C 0.6051 0.07332 0.57513 0.0
C626 C 0.62511 0.09317 0.59163 0.0
C627 C 0.67215 0.16634 0.59042 0.0
C628 C 0.70591 0.20928 0.65624 0.0
C629 C 0.68788 0.18625 0.63779 0.0
C630 C 0.63211 0.12249 0.5841 0.0
C631 C 0.65201 0.14382 0.6026 0.0
H632 H 0.73754 0.2191 0.72366 0.0
H633 H 0.71009 0.18103 0.69265 0.0
H634 H 0.70544 0.20412 0.59773 0.0
H635 H 0.58876 0.11945 0.52459 0.0
H636 H 0.6239 0.15398 0.55321 0.0
C637 C 0.83109 0.68192 0.64495 0.0
C638 C 0.80425 0.66564 0.64888 0.0
C639 C 0.84829 0.67028 0.6318 0.0
C640 C 0.85917 0.60268 0.61511 0.0
H641 H 0.90716 0.65105 0.56096 0.0
C642 C 0.93604 0.56377 0.5594 0.0
C643 C 0.96257 0.58254 0.56129 0.0
C644 C 0.91437 0.57295 0.56607 0.0
C645 C 0.89389 0.63733 0.57605 0.0
H646 H 0.77447 0.6242 0.64281 0.0
H647 H 0.80476 0.60364 0.61975 0.0
H648 H 0.87337 0.66835 0.58116 0.0
H649 H 0.98706 0.62592 0.57049 0.0
H650 H 0.94924 0.64188 0.58235 0.0
H651 H 0.8801 0.57187 0.61039 0.0
C652 C 0.81242 0.62544 0.62693 0.0
C653 C 0.87461 0.64722 0.58765 0.0
C654 C 0.79514 0.63714 0.64015 0.0
C655 C 0.96688 0.61093 0.56898 0.0
C656 C 0.94519 0.62012 0.57555 0.0
C657 C 0.87845 0.59275 0.60345 0.0
C658 C 0.83906 0.64207 0.62228 0.0
C659 C 0.85749 0.63027 0.60782 0.0
C660 C 0.9188 0.60109 0.57463 0.0
C661 C 0.89638 0.61025 0.5843 0.0
H662 H 0.83882 0.70376 0.65203 0.0
H663 H 0.86892 0.68337 0.62923 0.0
H664 H 0.84637 0.58923 0.63075 0.0
H665 H 0.93202 0.54178 0.55336 0.0
H666 H 0.89417 0.55796 0.56486 0.0
C667 C 0.35053 0.34724 0.29948 0.0
C668 C 0.36736 0.34744 0.32471 0.0
C669 C 0.36101 0.3625 0.2747 0.0
C670 C 0.42678 0.39283 0.24203 0.0
H671 H 0.38468 0.42527 0.18506 0.0
C672 C 0.47405 0.45501 0.1423 0.0
C673 C 0.45995 0.44605 0.11572 0.0
C674 C 0.46167 0.44625 0.16805 0.0
C675 C 0.3966 0.41622 0.20078 0.0
H676 H 0.40786 0.36503 0.34445 0.0
H677 H 0.42601 0.39258 0.3017 0.0
H678 H 0.36535 0.40484 0.23032 0.0
H679 H 0.42121 0.42212 0.09533 0.0
H680 H 0.3995 0.40685 0.14055 0.0
H681 H 0.45805 0.40437 0.21264 0.0
C682 C 0.40493 0.37987 0.30055 0.0
C683 C 0.38554 0.40443 0.22669 0.0
C684 C 0.39453 0.36429 0.32515 0.0
C685 C 0.43268 0.42927 0.11544 0.0
C686 C 0.42021 0.42063 0.14131 0.0
C687 C 0.43789 0.40488 0.21638 0.0
C688 C 0.38852 0.37857 0.27472 0.0
C689 C 0.40046 0.39244 0.24762 0.0
C690 C 0.43482 0.42846 0.16789 0.0
C691 C 0.42292 0.41659 0.19542 0.0
H692 H 0.32955 0.33418 0.29849 0.0
H693 H 0.34779 0.36066 0.25522 0.0
H694 H 0.43869 0.38318 0.25716 0.0
H695 H 0.495 0.46813 0.14338 0.0
H696 H 0.4733 0.45298 0.18819 0.0
C697 C 0.38005 0.65222 0.84585 0.0
C698 C 0.39048 0.67867 0.83164 0.0
C699 C 0.39721 0.63989 0.86296 0.0
C700 C 0.4645 0.65705 0.90289 0.0
H701 H 0.45172 0.57504 0.90136 0.0
C702 C 0.53885 0.59929 0.95804 0.0
C703 C 0.5278 0.57209 0.97096 0.0
C704 C 0.52215 0.61338 0.9425 0.0
C705 C 0.45536 0.59792 0.90237 0.0
H706 H 0.42667 0.71326 0.82378 0.0
H707 H 0.45709 0.69155 0.85354 0.0
H708 H 0.42325 0.59731 0.87034 0.0
H709 H 0.49023 0.53903 0.97863 0.0
H710 H 0.46115 0.56377 0.95185 0.0
H711 H 0.49677 0.65756 0.93488 0.0
C712 C 0.4356 0.6804 0.85177 0.0
C713 C 0.43904 0.61072 0.88451 0.0
C714 C 0.41832 0.69275 0.8346 0.0
C715 C 0.49951 0.55988 0.96891 0.0
C716 C 0.48283 0.57397 0.95333 0.0
C717 C 0.48088 0.64421 0.92077 0.0
C718 C 0.42522 0.65378 0.86617 0.0
C719 C 0.44329 0.64043 0.88461 0.0
C720 C 0.49398 0.60063 0.93945 0.0
C721 C 0.47642 0.61445 0.92082 0.0
H722 H 0.35853 0.64117 0.84396 0.0
H723 H 0.38841 0.61966 0.87406 0.0
H724 H 0.46812 0.67993 0.90381 0.0
H725 H 0.56054 0.60939 0.95912 0.0
H726 H 0.53145 0.63379 0.93195 0.0
C727 C 0.39488 0.35196 0.74986 0.0
C728 C 0.38944 0.32209 0.75054 0.0
C729 C 0.40681 0.36786 0.7742 0.0
C730 C 0.44556 0.36259 0.84474 0.0
H731 H 0.43023 0.43315 0.8587 0.0
C732 C 0.49067 0.42961 0.94615 0.0
C733 C 0.50409 0.45852 0.93982 0.0
C734 C 0.47386 0.4122 0.92485 0.0
C735 C 0.43469 0.41347 0.85509 0.0
H736 H 0.39136 0.28539 0.77762 0.0
H737 H 0.41119 0.31279 0.82029 0.0
H738 H 0.40636 0.40412 0.81828 0.0
H739 H 0.50933 0.49213 0.90672 0.0
H740 H 0.47955 0.46205 0.87002 0.0
H741 H 0.47367 0.37196 0.88191 0.0
C742 C 0.4072 0.32425 0.80076 0.0
C743 C 0.42116 0.39686 0.83174 0.0
C744 C 0.39567 0.30843 0.7763 0.0
C745 C 0.49931 0.46993 0.91227 0.0
C746 C 0.48217 0.45272 0.89124 0.0
C747 C 0.45877 0.37899 0.86833 0.0
C748 C 0.41324 0.35427 0.80007 0.0
C749 C 0.42664 0.37133 0.82591 0.0
C750 C 0.46971 0.42351 0.89705 0.0
C751 C 0.45378 0.40482 0.87356 0.0
H752 H 0.39055 0.36312 0.73024 0.0
H753 H 0.41152 0.39091 0.77243 0.0
H754 H 0.45084 0.34344 0.84087 0.0
H755 H 0.49408 0.42016 0.9671 0.0
H756 H 0.46439 0.38979 0.93001 0.0
C757 C 0.7218 0.35789 0.79067 0.0
C758 C 0.73959 0.34607 0.8075 0.0
C759 C 0.71027 0.37655 0.80276 0.0
C760 C 0.71524 0.42166 0.86567 0.0
H761 H 0.63771 0.40455 0.84904 0.0
C762 C 0.64709 0.46238 0.93432 0.0
C763 C 0.62456 0.46891 0.92031 0.0
C764 C 0.66317 0.45067 0.91915 0.0
C765 C 0.65943 0.41004 0.85358 0.0
H766 H 0.7601 0.34459 0.84959 0.0
H767 H 0.73997 0.37726 0.87095 0.0
H768 H 0.66253 0.37891 0.82475 0.0
H769 H 0.60209 0.46971 0.87907 0.0
H770 H 0.63035 0.4499 0.85256 0.0
H771 H 0.71201 0.45265 0.89478 0.0
C772 C 0.73508 0.37251 0.84837 0.0
C773 C 0.67368 0.39528 0.83963 0.0
C774 C 0.74655 0.35379 0.83624 0.0
C775 C 0.61906 0.46452 0.89061 0.0
C776 C 0.63522 0.45303 0.87542 0.0
C777 C 0.70097 0.43656 0.87958 0.0
C778 C 0.71633 0.3836 0.83193 0.0
C779 C 0.70171 0.40074 0.84564 0.0
C780 C 0.65717 0.44542 0.88958 0.0
C781 C 0.67282 0.43077 0.87387 0.0
H782 H 0.71614 0.35202 0.76843 0.0
H783 H 0.69619 0.38501 0.78941 0.0
H784 H 0.73687 0.42656 0.87057 0.0
H785 H 0.65187 0.46553 0.95719 0.0
H786 H 0.67973 0.44484 0.93084 0.0
C787 C 0.74009 0.68019 0.74529 0.0
C788 C 0.737 0.66507 0.7199 0.0
C789 C 0.72747 0.66685 0.76978 0.0
C790 C 0.69525 0.5946 0.80202 0.0
H791 H 0.67124 0.6385 0.85516 0.0
C792 C 0.62707 0.54665 0.89619 0.0
C793 C 0.63599 0.55935 0.923 0.0
C794 C 0.64045 0.55824 0.87154 0.0
C795 C 0.67805 0.62607 0.84058 0.0
H796 H 0.71776 0.62449 0.69978 0.0
H797 H 0.69463 0.6014 0.74214 0.0
H798 H 0.69059 0.66152 0.81104 0.0
H799 H 0.66629 0.59388 0.94504 0.0
H800 H 0.68918 0.61456 0.90174 0.0
H801 H 0.68157 0.55887 0.8314 0.0
C802 C 0.70751 0.62329 0.74357 0.0
C803 C 0.68925 0.63925 0.81532 0.0
C804 C 0.72054 0.63654 0.7192 0.0
C805 C 0.65895 0.58353 0.92475 0.0
C806 C 0.67197 0.59546 0.89999 0.0
C807 C 0.68357 0.58131 0.82707 0.0
C808 C 0.71107 0.63816 0.76933 0.0
C809 C 0.69823 0.62378 0.79577 0.0
C810 C 0.66263 0.58312 0.87314 0.0
C811 C 0.6751 0.59701 0.84665 0.0
H812 H 0.75305 0.70209 0.7465 0.0
H813 H 0.73121 0.67889 0.78928 0.0
H814 H 0.70233 0.58206 0.78784 0.0
H815 H 0.60939 0.52811 0.89405 0.0
H816 H 0.63282 0.54842 0.85104 0.0
C817 C 0.71252 0.68413 0.2553 0.0
C818 C 0.71479 0.67006 0.28209 0.0
C819 C 0.69737 0.66906 0.23173 0.0
C820 C 0.64288 0.60267 0.21309 0.0
H821 H 0.67143 0.61517 0.13764 0.0
C822 C 0.59314 0.52624 0.12201 0.0
C823 C 0.58995 0.53775 0.09414 0.0
C824 C 0.60938 0.54316 0.14368 0.0
C825 C 0.663 0.61165 0.15847 0.0
H826 H 0.70243 0.62916 0.30512 0.0
H827 H 0.67613 0.60289 0.26408 0.0
H828 H 0.69701 0.64344 0.17803 0.0
H829 H 0.60228 0.57597 0.06691 0.0
H830 H 0.63062 0.60588 0.10507 0.0
H831 H 0.60886 0.57111 0.19376 0.0
C832 C 0.68598 0.62562 0.26129 0.0
C833 C 0.67768 0.62787 0.18165 0.0
C834 C 0.70125 0.64063 0.28478 0.0
C835 C 0.60438 0.56644 0.08814 0.0
C836 C 0.62062 0.58356 0.11003 0.0
C837 C 0.6282 0.5866 0.18999 0.0
C838 C 0.68394 0.63959 0.2344 0.0
C839 C 0.66793 0.62333 0.20934 0.0
C840 C 0.6228 0.57225 0.13828 0.0
C841 C 0.63819 0.59055 0.16242 0.0
H842 H 0.72293 0.70671 0.25237 0.0
H843 H 0.69605 0.68054 0.21143 0.0
H844 H 0.63447 0.59901 0.23394 0.0
H845 H 0.58261 0.50411 0.12731 0.0
H846 H 0.61116 0.53342 0.16487 0.0
C847 C 0.37042 0.65205 0.22609 0.0
C848 C 0.37726 0.65239 0.25578 0.0
C849 C 0.38518 0.64217 0.20754 0.0
C850 C 0.44794 0.62261 0.20146 0.0
H851 H 0.40202 0.56529 0.15007 0.0
C852 C 0.48927 0.54414 0.14591 0.0
C853 C 0.48014 0.53756 0.11714 0.0
C854 C 0.47716 0.55963 0.16177 0.0
C855 C 0.41519 0.58153 0.16393 0.0
H856 H 0.40514 0.64394 0.28966 0.0
H857 H 0.43142 0.62699 0.2572 0.0
H858 H 0.38174 0.59225 0.17887 0.0
H859 H 0.45072 0.54163 0.08263 0.0
H860 H 0.42968 0.56898 0.11027 0.0
H861 H 0.48141 0.61181 0.18661 0.0
C862 C 0.41485 0.63456 0.24811 0.0
C863 C 0.40357 0.59702 0.18044 0.0
C864 C 0.39993 0.64432 0.26668 0.0
C865 C 0.45817 0.54627 0.10478 0.0
C866 C 0.44609 0.56191 0.12066 0.0
C867 C 0.45961 0.60723 0.18481 0.0
C868 C 0.40699 0.6324 0.21847 0.0
C869 C 0.41978 0.61757 0.19956 0.0
C870 C 0.45565 0.56906 0.14926 0.0
C871 C 0.44334 0.58627 0.16607 0.0
H872 H 0.35269 0.65782 0.2174 0.0
H873 H 0.37887 0.64111 0.18478 0.0
H874 H 0.46096 0.63848 0.21581 0.0
H875 H 0.50601 0.53754 0.15619 0.0
H876 H 0.48464 0.56417 0.18393 0.0
C877 C 0.68511 0.33657 0.21578 0.0
C878 C 0.70106 0.32163 0.20485 0.0
C879 C 0.66659 0.34595 0.1974 0.0
C880 C 0.65438 0.36521 0.12101 0.0
H881 H 0.58502 0.36614 0.1451 0.0
C882 C 0.59211 0.43531 0.06417 0.0
C883 C 0.56372 0.42412 0.06212 0.0
C884 C 0.60813 0.42019 0.07935 0.0
C885 C 0.60419 0.36577 0.13786 0.0
H886 H 0.71023 0.30413 0.16674 0.0
H887 H 0.67751 0.32007 0.1345 0.0
H888 H 0.61312 0.34341 0.17629 0.0
H889 H 0.53008 0.38745 0.07333 0.0
H890 H 0.55799 0.3611 0.09943 0.0
H891 H 0.6454 0.38757 0.08256 0.0
C892 C 0.67937 0.32484 0.15713 0.0
C893 C 0.62043 0.35301 0.15591 0.0
C894 C 0.69786 0.31546 0.17555 0.0
C895 C 0.55185 0.39688 0.07458 0.0
C896 C 0.56785 0.38182 0.08976 0.0
C897 C 0.63815 0.37805 0.10298 0.0
C898 C 0.66383 0.34065 0.16774 0.0
C899 C 0.64583 0.35276 0.14783 0.0
C900 C 0.59615 0.39353 0.09285 0.0
C901 C 0.61293 0.37867 0.11127 0.0
H902 H 0.68763 0.34185 0.23832 0.0
H903 H 0.65523 0.35835 0.20625 0.0
H904 H 0.67396 0.36571 0.11423 0.0
H905 H 0.60199 0.45622 0.05491 0.0
H906 H 0.62986 0.42994 0.08146 0.0
loop_
_geom_bond_atom_site_label_1
_geom_bond_atom_site_label_2
_geom_bond_distance
_geom_bond_site_symmetry_2
_ccdc_geom_bond_type
H0 C3 0.929 . S
H1 C6 0.929 . S
H2 C8 0.930 . S
C3 H0 0.929 . S
C3 C4 1.398 . S
C3 C5 1.396 . S
C4 C3 1.398 . S
C4 C8 1.407 . S
C5 C3 1.396 . S
C5 C6 1.394 . S
C6 H1 0.929 . S
C6 C5 1.394 . S
C6 C7 1.382 . S
C7 C6 1.382 . S
C7 C8 1.392 . S
C7 N9 1.420 . S
C8 H2 0.930 . S
C8 C4 1.407 . S
C8 C7 1.392 . S
N9 C7 1.420 . S
N9 C10 1.244 . S
C10 N9 1.244 . S
H11 C14 0.929 . S
H12 C17 0.929 . S
H13 C19 0.930 . S
C14 H11 0.929 . S
C14 C15 1.398 . S
C14 C16 1.396 . S
C15 C14 1.398 . S
C15 C19 1.407 . S
C16 C14 1.396 . S
C16 C17 1.394 . S
C17 H12 0.929 . S
C17 C16 1.394 . S
C17 C18 1.382 . S
C18 C17 1.382 . S
C18 C19 1.392 . S
C18 N20 1.420 . S
C19 H13 0.930 . S
C19 C15 1.407 . S
C19 C18 1.392 . S
N20 C18 1.420 . S
N20 C21 1.244 . S
C21 N20 1.244 . S
H22 C25 0.929 . S
H23 C28 0.929 . S
H24 C30 0.930 . S
C25 H22 0.929 . S
C25 C26 1.398 . S
C25 C27 1.396 . S
C26 C25 1.398 . S
C26 C30 1.407 . S
C27 C25 1.396 . S
C27 C28 1.394 . S
C28 H23 0.929 . S
C28 C27 1.394 . S
C28 C29 1.382 . S
C29 C28 1.382 . S
C29 C30 1.392 . S
C29 N31 1.420 . S
C30 H24 0.930 . S
C30 C26 1.407 . S
C30 C29 1.392 . S
N31 C29 1.420 . S
N31 C32 1.244 . S
C32 N31 1.244 . S
H33 C36 0.929 . S
H34 C39 0.929 . S
H35 C41 0.930 . S
C36 H33 0.929 . S
C36 C37 1.398 . S
C36 C38 1.396 . S
C37 C36 1.398 . S
C37 C41 1.407 . S
C38 C36 1.396 . S
C38 C39 1.394 . S
C39 H34 0.929 . S
C39 C38 1.394 . S
C39 C40 1.382 . S
C40 C39 1.382 . S
C40 C41 1.392 . S
C40 N42 1.420 . S
C41 H35 0.930 . S
C41 C37 1.407 . S
C41 C40 1.392 . S
N42 C40 1.420 . S
N42 C43 1.244 . S
C43 N42 1.244 . S
H44 C47 0.929 . S
H45 C50 0.929 . S
H46 C52 0.930 . S
C47 H44 0.929 . S
C47 C48 1.398 . S
C47 C49 1.396 . S
C48 C47 1.398 . S
C48 C52 1.407 . S
C49 C47 1.396 . S
C49 C50 1.394 . S
C50 H45 0.929 . S
C50 C49 1.394 . S
C50 C51 1.382 . S
C51 C50 1.382 . S
C51 C52 1.392 . S
C51 N53 1.420 . S
C52 H46 0.930 . S
C52 C48 1.407 . S
C52 C51 1.392 . S
N53 C51 1.420 . S
N53 C54 1.244 . S
C54 N53 1.244 . S
H55 C58 0.929 . S
H56 C61 0.929 . S
H57 C63 0.930 . S
C58 H55 0.929 . S
C58 C59 1.398 . S
C58 C60 1.396 . S
C59 C58 1.398 . S
C59 C63 1.407 . S
C60 C58 1.396 . S
C60 C61 1.394 . S
C61 H56 0.929 . S
C61 C60 1.394 . S
C61 C62 1.382 . S
C62 C61 1.382 . S
C62 C63 1.392 . S
C62 N64 1.420 . S
C63 H57 0.930 . S
C63 C59 1.407 . S
C63 C62 1.392 . S
N64 C62 1.420 . S
N64 C65 1.244 . S
C65 N64 1.244 . S
H66 C69 0.929 . S
H67 C72 0.929 . S
H68 C74 0.930 . S
C69 H66 0.929 . S
C69 C70 1.398 . S
C69 C71 1.396 . S
C70 C69 1.398 . S
C70 C74 1.407 . S
C71 C69 1.396 . S
C71 C72 1.394 . S
C72 H67 0.929 . S
C72 C71 1.394 . S
C72 C73 1.382 . S
C73 C72 1.382 . S
C73 C74 1.392 . S
C73 N75 1.420 . S
C74 H68 0.930 . S
C74 C70 1.407 . S
C74 C73 1.392 . S
N75 C73 1.420 . S
N75 C76 1.244 . S
C76 N75 1.244 . S
H77 C80 0.929 . S
H78 C83 0.929 . S
H79 C85 0.930 . S
C80 H77 0.929 . S
C80 C81 1.398 . S
C80 C82 1.396 . S
C81 C80 1.398 . S
C81 C85 1.407 . S
C82 C80 1.396 . S
C82 C83 1.394 . S
C83 H78 0.929 . S
C83 C82 1.394 . S
C83 C84 1.382 . S
C84 C83 1.382 . S
C84 C85 1.392 . S
C84 N86 1.420 . S
C85 H79 0.930 . S
C85 C81 1.407 . S
C85 C84 1.392 . S
N86 C84 1.420 . S
N86 C87 1.244 . S
C87 N86 1.244 . S
Co88 O91 2.042 . S
Co88 O98 2.264 . S
Co88 O117 2.286 . S
Co88 O118 2.069 . S
Co88 O120 2.015 . S
Co89 O91 2.122 . S
Co89 O97 2.073 . S
Co89 O98 2.327 . S
Co89 O99 1.976 . S
Co90 O91 2.087 . S
Co90 O93 2.087 . S
Co90 O100 2.111 . S
Co90 O101 2.143 1_455 S
Co90 O105 2.111 . S
Co90 O119 2.143 . S
O91 Co88 2.042 . S
O91 Co89 2.122 . S
O91 Co90 2.087 . S
O91 H92 0.980 . S
H92 O91 0.980 . S
O93 Co90 2.087 . S
O93 Co94 2.042 1_455 S
O93 Co95 2.122 1_455 S
O93 H96 0.980 . S
Co94 O93 2.042 1_655 S
Co94 O102 2.286 . S
Co94 O103 2.069 . S
Co94 O104 2.015 . S
Co94 O107 2.264 . S
Co95 O93 2.122 1_655 S
Co95 O106 1.976 . S
Co95 O107 2.327 . S
Co95 O108 2.073 . S
H96 O93 0.980 . S
O97 Co89 2.073 . S
O97 C112 1.245 . S
O98 Co88 2.264 . S
O98 Co89 2.327 . S
O98 C112 1.257 . S
O99 Co89 1.976 . S
O99 C111 1.251 . S
O100 Co90 2.111 . S
O100 C111 1.274 . S
O101 Co90 2.143 1_655 S
O101 C114 1.246 . S
O102 Co94 2.286 . S
O102 C113 1.259 . S
O103 Co94 2.069 . S
O103 C113 1.289 . S
O104 Co94 2.015 . S
O104 C114 1.257 . S
O105 Co90 2.111 . S
O105 C115 1.274 1_455 S
O106 Co95 1.976 . S
O106 C115 1.251 . S
O107 Co94 2.264 . S
O107 Co95 2.327 . S
O107 C116 1.257 . S
O108 Co95 2.073 . S
O108 C116 1.245 . S
C109 O117 1.259 . S
C109 O118 1.289 . S
C110 O119 1.246 . S
C110 O120 1.257 . S
C111 O99 1.251 . S
C111 O100 1.274 . S
C112 O97 1.245 . S
C112 O98 1.257 . S
C113 O102 1.259 . S
C113 O103 1.289 . S
C114 O101 1.246 . S
C114 O104 1.257 . S
C115 O105 1.274 1_655 S
C115 O106 1.251 . S
C116 O107 1.257 . S
C116 O108 1.245 . S
O117 Co88 2.286 . S
O117 C109 1.259 . S
O118 Co88 2.069 . S
O118 C109 1.289 . S
O119 Co90 2.143 . S
O119 C110 1.246 . S
O120 Co88 2.015 . S
O120 C110 1.257 . S
Co121 O124 2.042 . S
Co121 O131 2.264 . S
Co121 O150 2.286 . S
Co121 O151 2.069 . S
Co121 O153 2.015 . S
Co122 O124 2.122 . S
Co122 O130 2.073 . S
Co122 O131 2.327 . S
Co122 O132 1.976 . S
Co123 O124 2.087 1_545 S
Co123 O126 2.087 . S
Co123 O133 2.111 1_545 S
Co123 O134 2.143 . S
Co123 O138 2.111 . S
Co123 O152 2.143 1_545 S
O124 Co121 2.042 . S
O124 Co122 2.122 . S
O124 Co123 2.087 1_565 S
O124 H125 0.980 1_565 S
H125 O124 0.980 1_545 S
O126 Co123 2.087 . S
O126 Co127 2.042 . S
O126 Co128 2.122 . S
O126 H129 0.980 . S
Co127 O126 2.042 . S
Co127 O135 2.286 . S
Co127 O136 2.069 . S
Co127 O137 2.015 . S
Co127 O140 2.264 . S
Co128 O126 2.122 . S
Co128 O139 1.976 . S
Co128 O140 2.327 . S
Co128 O141 2.073 . S
H129 O126 0.980 . S
O130 Co122 2.073 . S
O130 C145 1.245 . S
O131 Co121 2.264 . S
O131 Co122 2.327 . S
O131 C145 1.257 . S
O132 Co122 1.976 . S
O132 C144 1.251 . S
O133 Co123 2.111 1_565 S
O133 C144 1.274 . S
O134 Co123 2.143 . S
O134 C147 1.246 . S
O135 Co127 2.286 . S
O135 C146 1.259 . S
O136 Co127 2.069 . S
O136 C146 1.289 . S
O137 Co127 2.015 . S
O137 C147 1.257 . S
O138 Co123 2.111 . S
O138 C148 1.274 . S
O139 Co128 1.976 . S
O139 C148 1.251 . S
O140 Co127 2.264 . S
O140 Co128 2.327 . S
O140 C149 1.257 . S
O141 Co128 2.073 . S
O141 C149 1.245 . S
C142 O150 1.259 . S
C142 O151 1.289 . S
C143 O152 1.246 . S
C143 O153 1.257 . S
C144 O132 1.251 . S
C144 O133 1.274 . S
C145 O130 1.245 . S
C145 O131 1.257 . S
C146 O135 1.259 . S
C146 O136 1.289 . S
C147 O134 1.246 . S
C147 O137 1.257 . S
C148 O138 1.274 . S
C148 O139 1.251 . S
C149 O140 1.257 . S
C149 O141 1.245 . S
O150 Co121 2.286 . S
O150 C142 1.259 . S
O151 Co121 2.069 . S
O151 C142 1.289 . S
O152 Co123 2.143 1_565 S
O152 C143 1.246 . S
O153 Co121 2.015 . S
O153 C143 1.257 . S
Co154 O157 2.042 . S
Co154 O164 2.264 . S
Co154 O183 2.286 . S
Co154 O184 2.069 . S
Co154 O186 2.015 . S
Co155 O157 2.122 . S
Co155 O163 2.073 . S
Co155 O164 2.327 . S
Co155 O165 1.976 . S
Co156 O157 2.087 . S
Co156 O159 2.087 1_554 S
Co156 O166 2.111 . S
Co156 O167 2.143 1_554 S
Co156 O171 2.111 1_554 S
Co156 O185 2.143 . S
O157 Co154 2.042 . S
O157 Co155 2.122 . S
O157 Co156 2.087 . S
O157 H158 0.980 . S
H158 O157 0.980 . S
O159 Co156 2.087 1_556 S
O159 Co160 2.042 . S
O159 Co161 2.122 . S
O159 H162 0.980 . S
Co160 O159 2.042 . S
Co160 O168 2.286 . S
Co160 O169 2.069 . S
Co160 O170 2.015 . S
Co160 O173 2.264 . S
Co161 O159 2.122 . S
Co161 O172 1.976 . S
Co161 O173 2.327 . S
Co161 O174 2.073 . S
H162 O159 0.980 . S
O163 Co155 2.073 . S
O163 C178 1.245 . S
O164 Co154 2.264 . S
O164 Co155 2.327 . S
O164 C178 1.257 . S
O165 Co155 1.976 . S
O165 C177 1.251 . S
O166 Co156 2.111 . S
O166 C177 1.274 . S
O167 Co156 2.143 1_556 S
O167 C180 1.246 . S
O168 Co160 2.286 . S
O168 C179 1.259 . S
O169 Co160 2.069 . S
O169 C179 1.289 . S
O170 Co160 2.015 . S
O170 C180 1.257 . S
O171 Co156 2.111 1_556 S
O171 C181 1.274 . S
O172 Co161 1.976 . S
O172 C181 1.251 . S
O173 Co160 2.264 . S
O173 Co161 2.327 . S
O173 C182 1.257 . S
O174 Co161 2.073 . S
O174 C182 1.245 . S
C175 O183 1.259 . S
C175 O184 1.289 . S
C176 O185 1.246 . S
C176 O186 1.257 . S
C177 O165 1.251 . S
C177 O166 1.274 . S
C178 O163 1.245 . S
C178 O164 1.257 . S
C179 O168 1.259 . S
C179 O169 1.289 . S
C180 O167 1.246 . S
C180 O170 1.257 . S
C181 O171 1.274 . S
C181 O172 1.251 . S
C182 O173 1.257 . S
C182 O174 1.245 . S
O183 Co154 2.286 . S
O183 C175 1.259 . S
O184 Co154 2.069 . S
O184 C175 1.289 . S
O185 Co156 2.143 . S
O185 C176 1.246 . S
O186 Co154 2.015 . S
O186 C176 1.257 . S
C187 C188 1.349 . S
C187 C189 1.327 . S
C187 H212 0.950 . S
C188 C187 1.349 . S
C188 C204 1.349 . S
C189 C187 1.327 . S
C189 C208 1.429 . S
C189 H213 0.950 . S
C190 C207 1.574 . S
C190 C209 1.368 . S
C190 H214 0.949 . S
H191 C195 0.949 . S
C192 C193 1.349 . S
C192 C194 1.327 . S
C192 H215 0.950 . S
C193 C192 1.349 . S
C193 C205 1.349 . S
C194 C192 1.327 . S
C194 C210 1.429 . S
C194 H216 0.950 . S
C195 H191 0.949 . S
C195 C203 1.574 . S
C195 C211 1.368 . S
H196 C204 0.950 . S
H197 C202 0.950 . S
H198 C203 0.949 . S
H199 C205 0.950 . S
H200 C206 0.950 . S
H201 C207 0.949 . S
C202 H197 0.950 . S
C202 C204 1.327 . S
C202 C208 1.429 . S
C203 C195 1.574 . S
C203 H198 0.949 . S
C203 C209 1.368 . S
C204 C188 1.349 . S
C204 H196 0.950 . S
C204 C202 1.327 . S
C205 C193 1.349 . S
C205 H199 0.950 . S
C205 C206 1.327 . S
C206 H200 0.950 . S
C206 C205 1.327 . S
C206 C210 1.429 . S
C207 C190 1.574 . S
C207 H201 0.949 . S
C207 C211 1.368 . S
C208 C189 1.429 . S
C208 C202 1.429 . S
C208 C209 1.523 . S
C209 C190 1.368 . S
C209 C203 1.368 . S
C209 C208 1.523 . S
C210 C194 1.429 . S
C210 C206 1.429 . S
C210 C211 1.523 . S
C211 C195 1.368 . S
C211 C207 1.368 . S
C211 C210 1.523 . S
H212 C187 0.950 . S
H213 C189 0.950 . S
H214 C190 0.949 . S
H215 C192 0.950 . S
H216 C194 0.950 . S
C217 C218 1.349 . S
C217 C219 1.327 . S
C217 H242 0.950 . S
C218 C217 1.349 . S
C218 C234 1.349 . S
C219 C217 1.327 . S
C219 C238 1.429 . S
C219 H243 0.950 . S
C220 C237 1.574 . S
C220 C239 1.368 . S
C220 H244 0.949 . S
H221 C225 0.949 . S
C222 C223 1.349 . S
C222 C224 1.327 . S
C222 H245 0.950 . S
C223 C222 1.349 . S
C223 C235 1.349 . S
C224 C222 1.327 . S
C224 C240 1.429 . S
C224 H246 0.950 . S
C225 H221 0.949 . S
C225 C233 1.574 . S
C225 C241 1.368 . S
H226 C234 0.950 . S
H227 C232 0.950 . S
H228 C233 0.949 . S
H229 C235 0.950 . S
H230 C236 0.950 . S
H231 C237 0.949 . S
C232 H227 0.950 . S
C232 C234 1.327 . S
C232 C238 1.429 . S
C233 C225 1.574 . S
C233 H228 0.949 . S
C233 C239 1.368 . S
C234 C218 1.349 . S
C234 H226 0.950 . S
C234 C232 1.327 . S
C235 C223 1.349 . S
C235 H229 0.950 . S
C235 C236 1.327 . S
C236 H230 0.950 . S
C236 C235 1.327 . S
C236 C240 1.429 . S
C237 C220 1.574 . S
C237 H231 0.949 . S
C237 C241 1.368 . S
C238 C219 1.429 . S
C238 C232 1.429 . S
C238 C239 1.523 . S
C239 C220 1.368 . S
C239 C233 1.368 . S
C239 C238 1.523 . S
C240 C224 1.429 . S
C240 C236 1.429 . S
C240 C241 1.523 . S
C241 C225 1.368 . S
C241 C237 1.368 . S
C241 C240 1.523 . S
H242 C217 0.950 . S
H243 C219 0.950 . S
H244 C220 0.949 . S
H245 C222 0.950 . S
H246 C224 0.950 . S
C247 C248 1.349 . S
C247 C249 1.327 . S
C247 H272 0.950 . S
C248 C247 1.349 . S
C248 C264 1.349 . S
C249 C247 1.327 . S
C249 C268 1.429 . S
C249 H273 0.950 . S
C250 C267 1.574 . S
C250 C269 1.368 . S
C250 H274 0.949 . S
H251 C255 0.949 . S
C252 C253 1.349 . S
C252 C254 1.327 . S
C252 H275 0.950 . S
C253 C252 1.349 . S
C253 C265 1.349 . S
C254 C252 1.327 . S
C254 C270 1.429 . S
C254 H276 0.950 . S
C255 H251 0.949 . S
C255 C263 1.574 . S
C255 C271 1.368 . S
H256 C264 0.950 . S
H257 C262 0.950 . S
H258 C263 0.949 . S
H259 C265 0.950 . S
H260 C266 0.950 . S
H261 C267 0.949 . S
C262 H257 0.950 . S
C262 C264 1.327 . S
C262 C268 1.429 . S
C263 C255 1.574 . S
C263 H258 0.949 . S
C263 C269 1.368 . S
C264 C248 1.349 . S
C264 H256 0.950 . S
C264 C262 1.327 . S
C265 C253 1.349 . S
C265 H259 0.950 . S
C265 C266 1.327 . S
C266 H260 0.950 . S
C266 C265 1.327 . S
C266 C270 1.429 . S
C267 C250 1.574 . S
C267 H261 0.949 . S
C267 C271 1.368 . S
C268 C249 1.429 . S
C268 C262 1.429 . S
C268 C269 1.523 . S
C269 C250 1.368 . S
C269 C263 1.368 . S
C269 C268 1.523 . S
C270 C254 1.429 . S
C270 C266 1.429 . S
C270 C271 1.523 . S
C271 C255 1.368 . S
C271 C267 1.368 . S
C271 C270 1.523 . S
H272 C247 0.950 . S
H273 C249 0.950 . S
H274 C250 0.949 . S
H275 C252 0.950 . S
H276 C254 0.950 . S
C277 C278 1.349 . S
C277 C279 1.327 . S
C277 H302 0.950 . S
C278 C277 1.349 . S
C278 C294 1.349 . S
C279 C277 1.327 . S
C279 C298 1.429 . S
C279 H303 0.950 . S
C280 C297 1.574 . S
C280 C299 1.368 . S
C280 H304 0.949 . S
H281 C285 0.949 . S
C282 C283 1.349 . S
C282 C284 1.327 . S
C282 H305 0.950 . S
C283 C282 1.349 . S
C283 C295 1.349 . S
C284 C282 1.327 . S
C284 C300 1.429 . S
C284 H306 0.950 . S
C285 H281 0.949 . S
C285 C293 1.574 . S
C285 C301 1.368 . S
H286 C294 0.950 . S
H287 C292 0.950 . S
H288 C293 0.949 . S
H289 C295 0.950 . S
H290 C296 0.950 . S
H291 C297 0.949 . S
C292 H287 0.950 . S
C292 C294 1.327 . S
C292 C298 1.429 . S
C293 C285 1.574 . S
C293 H288 0.949 . S
C293 C299 1.368 . S
C294 C278 1.349 . S
C294 H286 0.950 . S
C294 C292 1.327 . S
C295 C283 1.349 . S
C295 H289 0.950 . S
C295 C296 1.327 . S
C296 H290 0.950 . S
C296 C295 1.327 . S
C296 C300 1.429 . S
C297 C280 1.574 . S
C297 H291 0.949 . S
C297 C301 1.368 . S
C298 C279 1.429 . S
C298 C292 1.429 . S
C298 C299 1.523 . S
C299 C280 1.368 . S
C299 C293 1.368 . S
C299 C298 1.523 . S
C300 C284 1.429 . S
C300 C296 1.429 . S
C300 C301 1.523 . S
C301 C285 1.368 . S
C301 C297 1.368 . S
C301 C300 1.523 . S
H302 C277 0.950 . S
H303 C279 0.950 . S
H304 C280 0.949 . S
H305 C282 0.950 . S
H306 C284 0.950 . S
C307 C308 1.349 . S
C307 C309 1.327 . S
C307 H332 0.950 . S
C308 C307 1.349 . S
C308 C324 1.349 . S
C309 C307 1.327 . S
C309 C328 1.429 . S
C309 H333 0.950 . S
C310 C327 1.574 . S
C310 C329 1.368 . S
C310 H334 0.949 . S
H311 C315 0.949 . S
C312 C313 1.349 . S
C312 C314 1.327 . S
C312 H335 0.950 . S
C313 C312 1.349 . S
C313 C325 1.349 . S
C314 C312 1.327 . S
C314 C330 1.429 . S
C314 H336 0.950 . S
C315 H311 0.949 . S
C315 C323 1.574 . S
C315 C331 1.368 . S
H316 C324 0.950 . S
H317 C322 0.950 . S
H318 C323 0.949 . S
H319 C325 0.950 . S
H320 C326 0.950 . S
H321 C327 0.949 . S
C322 H317 0.950 . S
C322 C324 1.327 . S
C322 C328 1.429 . S
C323 C315 1.574 . S
C323 H318 0.949 . S
C323 C329 1.368 . S
C324 C308 1.349 . S
C324 H316 0.950 . S
C324 C322 1.327 . S
C325 C313 1.349 . S
C325 H319 0.950 . S
C325 C326 1.327 . S
C326 H320 0.950 . S
C326 C325 1.327 . S
C326 C330 1.429 . S
C327 C310 1.574 . S
C327 H321 0.949 . S
C327 C331 1.368 . S
C328 C309 1.429 . S
C328 C322 1.429 . S
C328 C329 1.523 . S
C329 C310 1.368 . S
C329 C323 1.368 . S
C329 C328 1.523 . S
C330 C314 1.429 . S
C330 C326 1.429 . S
C330 C331 1.523 . S
C331 C315 1.368 . S
C331 C327 1.368 . S
C331 C330 1.523 . S
H332 C307 0.950 . S
H333 C309 0.950 . S
H334 C310 0.949 . S
H335 C312 0.950 . S
H336 C314 0.950 . S
C337 C338 1.349 . S
C337 C339 1.327 . S
C337 H362 0.950 . S
C338 C337 1.349 . S
C338 C354 1.349 . S
C339 C337 1.327 . S
C339 C358 1.429 . S
C339 H363 0.950 . S
C340 C357 1.574 . S
C340 C359 1.368 . S
C340 H364 0.949 . S
H341 C345 0.949 . S
C342 C343 1.349 . S
C342 C344 1.327 . S
C342 H365 0.950 . S
C343 C342 1.349 . S
C343 C355 1.349 . S
C344 C342 1.327 . S
C344 C360 1.429 . S
C344 H366 0.950 . S
C345 H341 0.949 . S
C345 C353 1.574 . S
C345 C361 1.368 . S
H346 C354 0.950 . S
H347 C352 0.950 . S
H348 C353 0.949 . S
H349 C355 0.950 . S
H350 C356 0.950 . S
H351 C357 0.949 . S
C352 H347 0.950 . S
C352 C354 1.327 . S
C352 C358 1.429 . S
C353 C345 1.574 . S
C353 H348 0.949 . S
C353 C359 1.368 . S
C354 C338 1.349 . S
C354 H346 0.950 . S
C354 C352 1.327 . S
C355 C343 1.349 . S
C355 H349 0.950 . S
C355 C356 1.327 . S
C356 H350 0.950 . S
C356 C355 1.327 . S
C356 C360 1.429 . S
C357 C340 1.574 . S
C357 H351 0.949 . S
C357 C361 1.368 . S
C358 C339 1.429 . S
C358 C352 1.429 . S
C358 C359 1.523 . S
C359 C340 1.368 . S
C359 C353 1.368 . S
C359 C358 1.523 . S
C360 C344 1.429 . S
C360 C356 1.429 . S
C360 C361 1.523 . S
C361 C345 1.368 . S
C361 C357 1.368 . S
C361 C360 1.523 . S
H362 C337 0.950 . S
H363 C339 0.950 . S
H364 C340 0.949 . S
H365 C342 0.950 . S
H366 C344 0.950 . S
C367 C368 1.349 . S
C367 C369 1.327 . S
C367 H392 0.950 . S
C368 C367 1.349 . S
C368 C384 1.349 . S
C369 C367 1.327 . S
C369 C388 1.429 . S
C369 H393 0.950 . S
C370 C387 1.574 . S
C370 C389 1.368 . S
C370 H394 0.949 . S
H371 C375 0.949 . S
C372 C373 1.349 . S
C372 C374 1.327 . S
C372 H395 0.950 . S
C373 C372 1.349 . S
C373 C385 1.349 . S
C374 C372 1.327 . S
C374 C390 1.429 . S
C374 H396 0.950 . S
C375 H371 0.949 . S
C375 C383 1.574 . S
C375 C391 1.368 . S
H376 C384 0.950 . S
H377 C382 0.950 . S
H378 C383 0.949 . S
H379 C385 0.950 . S
H380 C386 0.950 . S
H381 C387 0.949 . S
C382 H377 0.950 . S
C382 C384 1.327 . S
C382 C388 1.429 . S
C383 C375 1.574 . S
C383 H378 0.949 . S
C383 C389 1.368 . S
C384 C368 1.349 . S
C384 H376 0.950 . S
C384 C382 1.327 . S
C385 C373 1.349 . S
C385 H379 0.950 . S
C385 C386 1.327 . S
C386 H380 0.950 . S
C386 C385 1.327 . S
C386 C390 1.429 . S
C387 C370 1.574 . S
C387 H381 0.949 . S
C387 C391 1.368 . S
C388 C369 1.429 . S
C388 C382 1.429 . S
C388 C389 1.523 . S
C389 C370 1.368 . S
C389 C383 1.368 . S
C389 C388 1.523 . S
C390 C374 1.429 . S
C390 C386 1.429 . S
C390 C391 1.523 . S
C391 C375 1.368 . S
C391 C387 1.368 . S
C391 C390 1.523 . S
H392 C367 0.950 . S
H393 C369 0.950 . S
H394 C370 0.949 . S
H395 C372 0.950 . S
H396 C374 0.950 . S
C397 C398 1.349 . S
C397 C399 1.327 . S
C397 H422 0.950 . S
C398 C397 1.349 . S
C398 C414 1.349 . S
C399 C397 1.327 . S
C399 C418 1.429 . S
C399 H423 0.950 . S
C400 C417 1.574 . S
C400 C419 1.368 . S
C400 H424 0.949 . S
H401 C405 0.949 . S
C402 C403 1.349 . S
C402 C404 1.327 . S
C402 H425 0.950 . S
C403 C402 1.349 . S
C403 C415 1.349 . S
C404 C402 1.327 . S
C404 C420 1.429 . S
C404 H426 0.950 . S
C405 H401 0.949 . S
C405 C413 1.574 . S
C405 C421 1.368 . S
H406 C414 0.950 . S
H407 C412 0.950 . S
H408 C413 0.949 . S
H409 C415 0.950 . S
H410 C416 0.950 . S
H411 C417 0.949 . S
C412 H407 0.950 . S
C412 C414 1.327 . S
C412 C418 1.429 . S
C413 C405 1.574 . S
C413 H408 0.949 . S
C413 C419 1.368 . S
C414 C398 1.349 . S
C414 H406 0.950 . S
C414 C412 1.327 . S
C415 C403 1.349 . S
C415 H409 0.950 . S
C415 C416 1.327 . S
C416 H410 0.950 . S
C416 C415 1.327 . S
C416 C420 1.429 . S
C417 C400 1.574 . S
C417 H411 0.949 . S
C417 C421 1.368 . S
C418 C399 1.429 . S
C418 C412 1.429 . S
C418 C419 1.523 . S
C419 C400 1.368 . S
C419 C413 1.368 . S
C419 C418 1.523 . S
C420 C404 1.429 . S
C420 C416 1.429 . S
C420 C421 1.523 . S
C421 C405 1.368 . S
C421 C417 1.368 . S
C421 C420 1.523 . S
H422 C397 0.950 . S
H423 C399 0.950 . S
H424 C400 0.949 . S
H425 C402 0.950 . S
H426 C404 0.950 . S
C427 C428 1.349 . S
C427 C429 1.327 . S
C427 H452 0.950 . S
C428 C427 1.349 . S
C428 C444 1.349 . S
C429 C427 1.327 . S
C429 C448 1.429 . S
C429 H453 0.950 . S
C430 C447 1.574 . S
C430 C449 1.368 . S
C430 H454 0.949 . S
H431 C435 0.949 . S
C432 C433 1.349 . S
C432 C434 1.327 . S
C432 H455 0.950 . S
C433 C432 1.349 . S
C433 C445 1.349 . S
C434 C432 1.327 . S
C434 C450 1.429 . S
C434 H456 0.950 . S
C435 H431 0.949 . S
C435 C443 1.574 . S
C435 C451 1.368 . S
H436 C444 0.950 . S
H437 C442 0.950 . S
H438 C443 0.949 . S
H439 C445 0.950 . S
H440 C446 0.950 . S
H441 C447 0.949 . S
C442 H437 0.950 . S
C442 C444 1.327 . S
C442 C448 1.429 . S
C443 C435 1.574 . S
C443 H438 0.949 . S
C443 C449 1.368 . S
C444 C428 1.349 . S
C444 H436 0.950 . S
C444 C442 1.327 . S
C445 C433 1.349 . S
C445 H439 0.950 . S
C445 C446 1.327 . S
C446 H440 0.950 . S
C446 C445 1.327 . S
C446 C450 1.429 . S
C447 C430 1.574 . S
C447 H441 0.949 . S
C447 C451 1.368 . S
C448 C429 1.429 . S
C448 C442 1.429 . S
C448 C449 1.523 . S
C449 C430 1.368 . S
C449 C443 1.368 . S
C449 C448 1.523 . S
C450 C434 1.429 . S
C450 C446 1.429 . S
C450 C451 1.523 . S
C451 C435 1.368 . S
C451 C447 1.368 . S
C451 C450 1.523 . S
H452 C427 0.950 . S
H453 C429 0.950 . S
H454 C430 0.949 . S
H455 C432 0.950 . S
H456 C434 0.950 . S
C457 C458 1.349 . S
C457 C459 1.327 . S
C457 H482 0.950 . S
C458 C457 1.349 . S
C458 C474 1.349 . S
C459 C457 1.327 . S
C459 C478 1.429 . S
C459 H483 0.950 . S
C460 C477 1.574 . S
C460 C479 1.368 . S
C460 H484 0.949 . S
H461 C465 0.949 . S
C462 C463 1.349 . S
C462 C464 1.327 . S
C462 H485 0.950 . S
C463 C462 1.349 . S
C463 C475 1.349 . S
C464 C462 1.327 . S
C464 C480 1.429 . S
C464 H486 0.950 . S
C465 H461 0.949 . S
C465 C473 1.574 . S
C465 C481 1.368 . S
H466 C474 0.950 . S
H467 C472 0.950 . S
H468 C473 0.949 . S
H469 C475 0.950 . S
H470 C476 0.950 . S
H471 C477 0.949 . S
C472 H467 0.950 . S
C472 C474 1.327 . S
C472 C478 1.429 . S
C473 C465 1.574 . S
C473 H468 0.949 . S
C473 C479 1.368 . S
C474 C458 1.349 . S
C474 H466 0.950 . S
C474 C472 1.327 . S
C475 C463 1.349 . S
C475 H469 0.950 . S
C475 C476 1.327 . S
C476 H470 0.950 . S
C476 C475 1.327 . S
C476 C480 1.429 . S
C477 C460 1.574 . S
C477 H471 0.949 . S
C477 C481 1.368 . S
C478 C459 1.429 . S
C478 C472 1.429 . S
C478 C479 1.523 . S
C479 C460 1.368 . S
C479 C473 1.368 . S
C479 C478 1.523 . S
C480 C464 1.429 . S
C480 C476 1.429 . S
C480 C481 1.523 . S
C481 C465 1.368 . S
C481 C477 1.368 . S
C481 C480 1.523 . S
H482 C457 0.950 . S
H483 C459 0.950 . S
H484 C460 0.949 . S
H485 C462 0.950 . S
H486 C464 0.950 . S
C487 C488 1.349 . S
C487 C489 1.327 . S
C487 H512 0.950 . S
C488 C487 1.349 . S
C488 C504 1.349 . S
C489 C487 1.327 . S
C489 C508 1.429 . S
C489 H513 0.950 . S
C490 C507 1.574 . S
C490 C509 1.368 . S
C490 H514 0.949 . S
H491 C495 0.949 . S
C492 C493 1.349 . S
C492 C494 1.327 . S
C492 H515 0.950 . S
C493 C492 1.349 . S
C493 C505 1.349 . S
C494 C492 1.327 . S
C494 C510 1.429 . S
C494 H516 0.950 . S
C495 H491 0.949 . S
C495 C503 1.574 . S
C495 C511 1.368 . S
H496 C504 0.950 . S
H497 C502 0.950 . S
H498 C503 0.949 . S
H499 C505 0.950 . S
H500 C506 0.950 . S
H501 C507 0.949 . S
C502 H497 0.950 . S
C502 C504 1.327 . S
C502 C508 1.429 . S
C503 C495 1.574 . S
C503 H498 0.949 . S
C503 C509 1.368 . S
C504 C488 1.349 . S
C504 H496 0.950 . S
C504 C502 1.327 . S
C505 C493 1.349 . S
C505 H499 0.950 . S
C505 C506 1.327 . S
C506 H500 0.950 . S
C506 C505 1.327 . S
C506 C510 1.429 . S
C507 C490 1.574 . S
C507 H501 0.949 . S
C507 C511 1.368 . S
C508 C489 1.429 . S
C508 C502 1.429 . S
C508 C509 1.523 . S
C509 C490 1.368 . S
C509 C503 1.368 . S
C509 C508 1.523 . S
C510 C494 1.429 . S
C510 C506 1.429 . S
C510 C511 1.523 . S
C511 C495 1.368 . S
C511 C507 1.368 . S
C511 C510 1.523 . S
H512 C487 0.950 . S
H513 C489 0.950 . S
H514 C490 0.949 . S
H515 C492 0.950 . S
H516 C494 0.950 . S
C517 C518 1.349 . S
C517 C519 1.327 . S
C517 H542 0.950 . S
C518 C517 1.349 . S
C518 C534 1.349 . S
C519 C517 1.327 . S
C519 C538 1.429 . S
C519 H543 0.950 . S
C520 C537 1.574 . S
C520 C539 1.368 . S
C520 H544 0.949 . S
H521 C525 0.949 . S
C522 C523 1.349 . S
C522 C524 1.327 . S
C522 H545 0.950 . S
C523 C522 1.349 . S
C523 C535 1.349 . S
C524 C522 1.327 . S
C524 C540 1.429 . S
C524 H546 0.950 . S
C525 H521 0.949 . S
C525 C533 1.574 . S
C525 C541 1.368 . S
H526 C534 0.950 . S
H527 C532 0.950 . S
H528 C533 0.949 . S
H529 C535 0.950 . S
H530 C536 0.950 . S
H531 C537 0.949 . S
C532 H527 0.950 . S
C532 C534 1.327 . S
C532 C538 1.429 . S
C533 C525 1.574 . S
C533 H528 0.949 . S
C533 C539 1.368 . S
C534 C518 1.349 . S
C534 H526 0.950 . S
C534 C532 1.327 . S
C535 C523 1.349 . S
C535 H529 0.950 . S
C535 C536 1.327 . S
C536 H530 0.950 . S
C536 C535 1.327 . S
C536 C540 1.429 . S
C537 C520 1.574 . S
C537 H531 0.949 . S
C537 C541 1.368 . S
C538 C519 1.429 . S
C538 C532 1.429 . S
C538 C539 1.523 . S
C539 C520 1.368 . S
C539 C533 1.368 . S
C539 C538 1.523 . S
C540 C524 1.429 . S
C540 C536 1.429 . S
C540 C541 1.523 . S
C541 C525 1.368 . S
C541 C537 1.368 . S
C541 C540 1.523 . S
H542 C517 0.950 . S
H543 C519 0.950 . S
H544 C520 0.949 . S
H545 C522 0.950 . S
H546 C524 0.950 . S
C547 C548 1.349 . S
C547 C549 1.327 . S
C547 H572 0.950 . S
C548 C547 1.349 . S
C548 C564 1.349 . S
C549 C547 1.327 . S
C549 C568 1.429 . S
C549 H573 0.950 . S
C550 C567 1.574 . S
C550 C569 1.368 . S
C550 H574 0.949 . S
H551 C555 0.949 . S
C552 C553 1.349 . S
C552 C554 1.327 . S
C552 H575 0.950 . S
C553 C552 1.349 . S
C553 C565 1.349 . S
C554 C552 1.327 . S
C554 C570 1.429 . S
C554 H576 0.950 . S
C555 H551 0.949 . S
C555 C563 1.574 . S
C555 C571 1.368 . S
H556 C564 0.950 . S
H557 C562 0.950 . S
H558 C563 0.949 . S
H559 C565 0.950 . S
H560 C566 0.950 . S
H561 C567 0.949 . S
C562 H557 0.950 . S
C562 C564 1.327 . S
C562 C568 1.429 . S
C563 C555 1.574 . S
C563 H558 0.949 . S
C563 C569 1.368 . S
C564 C548 1.349 . S
C564 H556 0.950 . S
C564 C562 1.327 . S
C565 C553 1.349 . S
C565 H559 0.950 . S
C565 C566 1.327 . S
C566 H560 0.950 . S
C566 C565 1.327 . S
C566 C570 1.429 . S
C567 C550 1.574 . S
C567 H561 0.949 . S
C567 C571 1.368 . S
C568 C549 1.429 . S
C568 C562 1.429 . S
C568 C569 1.523 . S
C569 C550 1.368 . S
C569 C563 1.368 . S
C569 C568 1.523 . S
C570 C554 1.429 . S
C570 C566 1.429 . S
C570 C571 1.523 . S
C571 C555 1.368 . S
C571 C567 1.368 . S
C571 C570 1.523 . S
H572 C547 0.950 . S
H573 C549 0.950 . S
H574 C550 0.949 . S
H575 C552 0.950 . S
H576 C554 0.950 . S
C577 C578 1.349 . S
C577 C579 1.327 . S
C577 H602 0.950 . S
C578 C577 1.349 . S
C578 C594 1.349 . S
C579 C577 1.327 . S
C579 C598 1.429 . S
C579 H603 0.950 . S
C580 C597 1.574 . S
C580 C599 1.368 . S
C580 H604 0.949 . S
H581 C585 0.949 . S
C582 C583 1.349 . S
C582 C584 1.327 . S
C582 H605 0.950 . S
C583 C582 1.349 . S
C583 C595 1.349 . S
C584 C582 1.327 . S
C584 C600 1.429 . S
C584 H606 0.950 . S
C585 H581 0.949 . S
C585 C593 1.574 . S
C585 C601 1.368 . S
H586 C594 0.950 . S
H587 C592 0.950 . S
H588 C593 0.949 . S
H589 C595 0.950 . S
H590 C596 0.950 . S
H591 C597 0.949 . S
C592 H587 0.950 . S
C592 C594 1.327 . S
C592 C598 1.429 . S
C593 C585 1.574 . S
C593 H588 0.949 . S
C593 C599 1.368 . S
C594 C578 1.349 . S
C594 H586 0.950 . S
C594 C592 1.327 . S
C595 C583 1.349 . S
C595 H589 0.950 . S
C595 C596 1.327 . S
C596 H590 0.950 . S
C596 C595 1.327 . S
C596 C600 1.429 . S
C597 C580 1.574 . S
C597 H591 0.949 . S
C597 C601 1.368 . S
C598 C579 1.429 . S
C598 C592 1.429 . S
C598 C599 1.523 . S
C599 C580 1.368 . S
C599 C593 1.368 . S
C599 C598 1.523 . S
C600 C584 1.429 . S
C600 C596 1.429 . S
C600 C601 1.523 . S
C601 C585 1.368 . S
C601 C597 1.368 . S
C601 C600 1.523 . S
H602 C577 0.950 . S
H603 C579 0.950 . S
H604 C580 0.949 . S
H605 C582 0.950 . S
H606 C584 0.950 . S
C607 C608 1.349 . S
C607 C609 1.327 . S
C607 H632 0.950 . S
C608 C607 1.349 . S
C608 C624 1.349 . S
C609 C607 1.327 . S
C609 C628 1.429 . S
C609 H633 0.950 . S
C610 C627 1.574 . S
C610 C629 1.368 . S
C610 H634 0.949 . S
H611 C615 0.949 . S
C612 C613 1.349 . S
C612 C614 1.327 . S
C612 H635 0.950 . S
C613 C612 1.349 . S
C613 C625 1.349 . S
C614 C612 1.327 . S
C614 C630 1.429 . S
C614 H636 0.950 . S
C615 H611 0.949 . S
C615 C623 1.574 . S
C615 C631 1.368 . S
H616 C624 0.950 . S
H617 C622 0.950 . S
H618 C623 0.949 . S
H619 C625 0.950 . S
H620 C626 0.950 . S
H621 C627 0.949 . S
C622 H617 0.950 . S
C622 C624 1.327 . S
C622 C628 1.429 . S
C623 C615 1.574 . S
C623 H618 0.949 . S
C623 C629 1.368 . S
C624 C608 1.349 . S
C624 H616 0.950 . S
C624 C622 1.327 . S
C625 C613 1.349 . S
C625 H619 0.950 . S
C625 C626 1.327 . S
C626 H620 0.950 . S
C626 C625 1.327 . S
C626 C630 1.429 . S
C627 C610 1.574 . S
C627 H621 0.949 . S
C627 C631 1.368 . S
C628 C609 1.429 . S
C628 C622 1.429 . S
C628 C629 1.523 . S
C629 C610 1.368 . S
C629 C623 1.368 . S
C629 C628 1.523 . S
C630 C614 1.429 . S
C630 C626 1.429 . S
C630 C631 1.523 . S
C631 C615 1.368 . S
C631 C627 1.368 . S
C631 C630 1.523 . S
H632 C607 0.950 . S
H633 C609 0.950 . S
H634 C610 0.949 . S
H635 C612 0.950 . S
H636 C614 0.950 . S
C637 C638 1.349 . S
C637 C639 1.327 . S
C637 H662 0.950 . S
C638 C637 1.349 . S
C638 C654 1.349 . S
C639 C637 1.327 . S
C639 C658 1.429 . S
C639 H663 0.950 . S
C640 C657 1.574 . S
C640 C659 1.368 . S
C640 H664 0.949 . S
H641 C645 0.949 . S
C642 C643 1.349 . S
C642 C644 1.327 . S
C642 H665 0.950 . S
C643 C642 1.349 . S
C643 C655 1.349 . S
C644 C642 1.327 . S
C644 C660 1.429 . S
C644 H666 0.950 . S
C645 H641 0.949 . S
C645 C653 1.574 . S
C645 C661 1.368 . S
H646 C654 0.950 . S
H647 C652 0.950 . S
H648 C653 0.949 . S
H649 C655 0.950 . S
H650 C656 0.950 . S
H651 C657 0.949 . S
C652 H647 0.950 . S
C652 C654 1.327 . S
C652 C658 1.429 . S
C653 C645 1.574 . S
C653 H648 0.949 . S
C653 C659 1.368 . S
C654 C638 1.349 . S
C654 H646 0.950 . S
C654 C652 1.327 . S
C655 C643 1.349 . S
C655 H649 0.950 . S
C655 C656 1.327 . S
C656 H650 0.950 . S
C656 C655 1.327 . S
C656 C660 1.429 . S
C657 C640 1.574 . S
C657 H651 0.949 . S
C657 C661 1.368 . S
C658 C639 1.429 . S
C658 C652 1.429 . S
C658 C659 1.523 . S
C659 C640 1.368 . S
C659 C653 1.368 . S
C659 C658 1.523 . S
C660 C644 1.429 . S
C660 C656 1.429 . S
C660 C661 1.523 . S
C661 C645 1.368 . S
C661 C657 1.368 . S
C661 C660 1.523 . S
H662 C637 0.950 . S
H663 C639 0.950 . S
H664 C640 0.949 . S
H665 C642 0.950 . S
H666 C644 0.950 . S
C667 C668 1.349 . S
C667 C669 1.327 . S
C667 H692 0.950 . S
C668 C667 1.349 . S
C668 C684 1.349 . S
C669 C667 1.327 . S
C669 C688 1.429 . S
C669 H693 0.950 . S
C670 C687 1.574 . S
C670 C689 1.368 . S
C670 H694 0.949 . S
H671 C675 0.949 . S
C672 C673 1.349 . S
C672 C674 1.327 . S
C672 H695 0.950 . S
C673 C672 1.349 . S
C673 C685 1.349 . S
C674 C672 1.327 . S
C674 C690 1.429 . S
C674 H696 0.950 . S
C675 H671 0.949 . S
C675 C683 1.574 . S
C675 C691 1.368 . S
H676 C684 0.950 . S
H677 C682 0.950 . S
H678 C683 0.949 . S
H679 C685 0.950 . S
H680 C686 0.950 . S
H681 C687 0.949 . S
C682 H677 0.950 . S
C682 C684 1.327 . S
C682 C688 1.429 . S
C683 C675 1.574 . S
C683 H678 0.949 . S
C683 C689 1.368 . S
C684 C668 1.349 . S
C684 H676 0.950 . S
C684 C682 1.327 . S
C685 C673 1.349 . S
C685 H679 0.950 . S
C685 C686 1.327 . S
C686 H680 0.950 . S
C686 C685 1.327 . S
C686 C690 1.429 . S
C687 C670 1.574 . S
C687 H681 0.949 . S
C687 C691 1.368 . S
C688 C669 1.429 . S
C688 C682 1.429 . S
C688 C689 1.523 . S
C689 C670 1.368 . S
C689 C683 1.368 . S
C689 C688 1.523 . S
C690 C674 1.429 . S
C690 C686 1.429 . S
C690 C691 1.523 . S
C691 C675 1.368 . S
C691 C687 1.368 . S
C691 C690 1.523 . S
H692 C667 0.950 . S
H693 C669 0.950 . S
H694 C670 0.949 . S
H695 C672 0.950 . S
H696 C674 0.950 . S
C697 C698 1.349 . S
C697 C699 1.327 . S
C697 H722 0.950 . S
C698 C697 1.349 . S
C698 C714 1.349 . S
C699 C697 1.327 . S
C699 C718 1.429 . S
C699 H723 0.950 . S
C700 C717 1.574 . S
C700 C719 1.368 . S
C700 H724 0.949 . S
H701 C705 0.949 . S
C702 C703 1.349 . S
C702 C704 1.327 . S
C702 H725 0.950 . S
C703 C702 1.349 . S
C703 C715 1.349 . S
C704 C702 1.327 . S
C704 C720 1.429 . S
C704 H726 0.950 . S
C705 H701 0.949 . S
C705 C713 1.574 . S
C705 C721 1.368 . S
H706 C714 0.950 . S
H707 C712 0.950 . S
H708 C713 0.949 . S
H709 C715 0.950 . S
H710 C716 0.950 . S
H711 C717 0.949 . S
C712 H707 0.950 . S
C712 C714 1.327 . S
C712 C718 1.429 . S
C713 C705 1.574 . S
C713 H708 0.949 . S
C713 C719 1.368 . S
C714 C698 1.349 . S
C714 H706 0.950 . S
C714 C712 1.327 . S
C715 C703 1.349 . S
C715 H709 0.950 . S
C715 C716 1.327 . S
C716 H710 0.950 . S
C716 C715 1.327 . S
C716 C720 1.429 . S
C717 C700 1.574 . S
C717 H711 0.949 . S
C717 C721 1.368 . S
C718 C699 1.429 . S
C718 C712 1.429 . S
C718 C719 1.523 . S
C719 C700 1.368 . S
C719 C713 1.368 . S
C719 C718 1.523 . S
C720 C704 1.429 . S
C720 C716 1.429 . S
C720 C721 1.523 . S
C721 C705 1.368 . S
C721 C717 1.368 . S
C721 C720 1.523 . S
H722 C697 0.950 . S
H723 C699 0.950 . S
H724 C700 0.949 . S
H725 C702 0.950 . S
H726 C704 0.950 . S
C727 C728 1.349 . S
C727 C729 1.327 . S
C727 H752 0.950 . S
C728 C727 1.349 . S
C728 C744 1.349 . S
C729 C727 1.327 . S
C729 C748 1.429 . S
C729 H753 0.950 . S
C730 C747 1.574 . S
C730 C749 1.368 . S
C730 H754 0.949 . S
H731 C735 0.949 . S
C732 C733 1.349 . S
C732 C734 1.327 . S
C732 H755 0.950 . S
C733 C732 1.349 . S
C733 C745 1.349 . S
C734 C732 1.327 . S
C734 C750 1.429 . S
C734 H756 0.950 . S
C735 H731 0.949 . S
C735 C743 1.574 . S
C735 C751 1.368 . S
H736 C744 0.950 . S
H737 C742 0.950 . S
H738 C743 0.949 . S
H739 C745 0.950 . S
H740 C746 0.950 . S
H741 C747 0.949 . S
C742 H737 0.950 . S
C742 C744 1.327 . S
C742 C748 1.429 . S
C743 C735 1.574 . S
C743 H738 0.949 . S
C743 C749 1.368 . S
C744 C728 1.349 . S
C744 H736 0.950 . S
C744 C742 1.327 . S
C745 C733 1.349 . S
C745 H739 0.950 . S
C745 C746 1.327 . S
C746 H740 0.950 . S
C746 C745 1.327 . S
C746 C750 1.429 . S
C747 C730 1.574 . S
C747 H741 0.949 . S
C747 C751 1.368 . S
C748 C729 1.429 . S
C748 C742 1.429 . S
C748 C749 1.523 . S
C749 C730 1.368 . S
C749 C743 1.368 . S
C749 C748 1.523 . S
C750 C734 1.429 . S
C750 C746 1.429 . S
C750 C751 1.523 . S
C751 C735 1.368 . S
C751 C747 1.368 . S
C751 C750 1.523 . S
H752 C727 0.950 . S
H753 C729 0.950 . S
H754 C730 0.949 . S
H755 C732 0.950 . S
H756 C734 0.950 . S
C757 C758 1.349 . S
C757 C759 1.327 . S
C757 H782 0.950 . S
C758 C757 1.349 . S
C758 C774 1.349 . S
C759 C757 1.327 . S
C759 C778 1.429 . S
C759 H783 0.950 . S
C760 C777 1.574 . S
C760 C779 1.368 . S
C760 H784 0.949 . S
H761 C765 0.949 . S
C762 C763 1.349 . S
C762 C764 1.327 . S
C762 H785 0.950 . S
C763 C762 1.349 . S
C763 C775 1.349 . S
C764 C762 1.327 . S
C764 C780 1.429 . S
C764 H786 0.950 . S
C765 H761 0.949 . S
C765 C773 1.574 . S
C765 C781 1.368 . S
H766 C774 0.950 . S
H767 C772 0.950 . S
H768 C773 0.949 . S
H769 C775 0.950 . S
H770 C776 0.950 . S
H771 C777 0.949 . S
C772 H767 0.950 . S
C772 C774 1.327 . S
C772 C778 1.429 . S
C773 C765 1.574 . S
C773 H768 0.949 . S
C773 C779 1.368 . S
C774 C758 1.349 . S
C774 H766 0.950 . S
C774 C772 1.327 . S
C775 C763 1.349 . S
C775 H769 0.950 . S
C775 C776 1.327 . S
C776 H770 0.950 . S
C776 C775 1.327 . S
C776 C780 1.429 . S
C777 C760 1.574 . S
C777 H771 0.949 . S
C777 C781 1.368 . S
C778 C759 1.429 . S
C778 C772 1.429 . S
C778 C779 1.523 . S
C779 C760 1.368 . S
C779 C773 1.368 . S
C779 C778 1.523 . S
C780 C764 1.429 . S
C780 C776 1.429 . S
C780 C781 1.523 . S
C781 C765 1.368 . S
C781 C777 1.368 . S
C781 C780 1.523 . S
H782 C757 0.950 . S
H783 C759 0.950 . S
H784 C760 0.949 . S
H785 C762 0.950 . S
H786 C764 0.950 . S
C787 C788 1.349 . S
C787 C789 1.327 . S
C787 H812 0.950 . S
C788 C787 1.349 . S
C788 C804 1.349 . S
C789 C787 1.327 . S
C789 C808 1.429 . S
C789 H813 0.950 . S
C790 C807 1.574 . S
C790 C809 1.368 . S
C790 H814 0.949 . S
H791 C795 0.949 . S
C792 C793 1.349 . S
C792 C794 1.327 . S
C792 H815 0.950 . S
C793 C792 1.349 . S
C793 C805 1.349 . S
C794 C792 1.327 . S
C794 C810 1.429 . S
C794 H816 0.950 . S
C795 H791 0.949 . S
C795 C803 1.574 . S
C795 C811 1.368 . S
H796 C804 0.950 . S
H797 C802 0.950 . S
H798 C803 0.949 . S
H799 C805 0.950 . S
H800 C806 0.950 . S
H801 C807 0.949 . S
C802 H797 0.950 . S
C802 C804 1.327 . S
C802 C808 1.429 . S
C803 C795 1.574 . S
C803 H798 0.949 . S
C803 C809 1.368 . S
C804 C788 1.349 . S
C804 H796 0.950 . S
C804 C802 1.327 . S
C805 C793 1.349 . S
C805 H799 0.950 . S
C805 C806 1.327 . S
C806 H800 0.950 . S
C806 C805 1.327 . S
C806 C810 1.429 . S
C807 C790 1.574 . S
C807 H801 0.949 . S
C807 C811 1.368 . S
C808 C789 1.429 . S
C808 C802 1.429 . S
C808 C809 1.523 . S
C809 C790 1.368 . S
C809 C803 1.368 . S
C809 C808 1.523 . S
C810 C794 1.429 . S
C810 C806 1.429 . S
C810 C811 1.523 . S
C811 C795 1.368 . S
C811 C807 1.368 . S
C811 C810 1.523 . S
H812 C787 0.950 . S
H813 C789 0.950 . S
H814 C790 0.949 . S
H815 C792 0.950 . S
H816 C794 0.950 . S
C817 C818 1.349 . S
C817 C819 1.327 . S
C817 H842 0.950 . S
C818 C817 1.349 . S
C818 C834 1.349 . S
C819 C817 1.327 . S
C819 C838 1.429 . S
C819 H843 0.950 . S
C820 C837 1.574 . S
C820 C839 1.368 . S
C820 H844 0.949 . S
H821 C825 0.949 . S
C822 C823 1.349 . S
C822 C824 1.327 . S
C822 H845 0.950 . S
C823 C822 1.349 . S
C823 C835 1.349 . S
C824 C822 1.327 . S
C824 C840 1.429 . S
C824 H846 0.950 . S
C825 H821 0.949 . S
C825 C833 1.574 . S
C825 C841 1.368 . S
H826 C834 0.950 . S
H827 C832 0.950 . S
H828 C833 0.949 . S
H829 C835 0.950 . S
H830 C836 0.950 . S
H831 C837 0.949 . S
C832 H827 0.950 . S
C832 C834 1.327 . S
C832 C838 1.429 . S
C833 C825 1.574 . S
C833 H828 0.949 . S
C833 C839 1.368 . S
C834 C818 1.349 . S
C834 H826 0.950 . S
C834 C832 1.327 . S
C835 C823 1.349 . S
C835 H829 0.950 . S
C835 C836 1.327 . S
C836 H830 0.950 . S
C836 C835 1.327 . S
C836 C840 1.429 . S
C837 C820 1.574 . S
C837 H831 0.949 . S
C837 C841 1.368 . S
C838 C819 1.429 . S
C838 C832 1.429 . S
C838 C839 1.523 . S
C839 C820 1.368 . S
C839 C833 1.368 . S
C839 C838 1.523 . S
C840 C824 1.429 . S
C840 C836 1.429 . S
C840 C841 1.523 . S
C841 C825 1.368 . S
C841 C837 1.368 . S
C841 C840 1.523 . S
H842 C817 0.950 . S
H843 C819 0.950 . S
H844 C820 0.949 . S
H845 C822 0.950 . S
H846 C824 0.950 . S
C847 C848 1.349 . S
C847 C849 1.327 . S
C847 H872 0.950 . S
C848 C847 1.349 . S
C848 C864 1.349 . S
C849 C847 1.327 . S
C849 C868 1.429 . S
C849 H873 0.950 . S
C850 C867 1.574 . S
C850 C869 1.368 . S
C850 H874 0.949 . S
H851 C855 0.949 . S
C852 C853 1.349 . S
C852 C854 1.327 . S
C852 H875 0.950 . S
C853 C852 1.349 . S
C853 C865 1.349 . S
C854 C852 1.327 . S
C854 C870 1.429 . S
C854 H876 0.950 . S
C855 H851 0.949 . S
C855 C863 1.574 . S
C855 C871 1.368 . S
H856 C864 0.950 . S
H857 C862 0.950 . S
H858 C863 0.949 . S
H859 C865 0.950 . S
H860 C866 0.950 . S
H861 C867 0.949 . S
C862 H857 0.950 . S
C862 C864 1.327 . S
C862 C868 1.429 . S
C863 C855 1.574 . S
C863 H858 0.949 . S
C863 C869 1.368 . S
C864 C848 1.349 . S
C864 H856 0.950 . S
C864 C862 1.327 . S
C865 C853 1.349 . S
C865 H859 0.950 . S
C865 C866 1.327 . S
C866 H860 0.950 . S
C866 C865 1.327 . S
C866 C870 1.429 . S
C867 C850 1.574 . S
C867 H861 0.949 . S
C867 C871 1.368 . S
C868 C849 1.429 . S
C868 C862 1.429 . S
C868 C869 1.523 . S
C869 C850 1.368 . S
C869 C863 1.368 . S
C869 C868 1.523 . S
C870 C854 1.429 . S
C870 C866 1.429 . S
C870 C871 1.523 . S
C871 C855 1.368 . S
C871 C867 1.368 . S
C871 C870 1.523 . S
H872 C847 0.950 . S
H873 C849 0.950 . S
H874 C850 0.949 . S
H875 C852 0.950 . S
H876 C854 0.950 . S
C877 C878 1.349 . S
C877 C879 1.327 . S
C877 H902 0.950 . S
C878 C877 1.349 . S
C878 C894 1.349 . S
C879 C877 1.327 . S
C879 C898 1.429 . S
C879 H903 0.950 . S
C880 C897 1.574 . S
C880 C899 1.368 . S
C880 H904 0.949 . S
H881 C885 0.949 . S
C882 C883 1.349 . S
C882 C884 1.327 . S
C882 H905 0.950 . S
C883 C882 1.349 . S
C883 C895 1.349 . S
C884 C882 1.327 . S
C884 C900 1.429 . S
C884 H906 0.950 . S
C885 H881 0.949 . S
C885 C893 1.574 . S
C885 C901 1.368 . S
H886 C894 0.950 . S
H887 C892 0.950 . S
H888 C893 0.949 . S
H889 C895 0.950 . S
H890 C896 0.950 . S
H891 C897 0.949 . S
C892 H887 0.950 . S
C892 C894 1.327 . S
C892 C898 1.429 . S
C893 C885 1.574 . S
C893 H888 0.949 . S
C893 C899 1.368 . S
C894 C878 1.349 . S
C894 H886 0.950 . S
C894 C892 1.327 . S
C895 C883 1.349 . S
C895 H889 0.950 . S
C895 C896 1.327 . S
C896 H890 0.950 . S
C896 C895 1.327 . S
C896 C900 1.429 . S
C897 C880 1.574 . S
C897 H891 0.949 . S
C897 C901 1.368 . S
C898 C879 1.429 . S
C898 C892 1.429 . S
C898 C899 1.523 . S
C899 C880 1.368 . S
C899 C893 1.368 . S
C899 C898 1.523 . S
C900 C884 1.429 . S
C900 C896 1.429 . S
C900 C901 1.523 . S
C901 C885 1.368 . S
C901 C897 1.368 . S
C901 C900 1.523 . S
H902 C877 0.950 . S
H903 C879 0.950 . S
H904 C880 0.949 . S
H905 C882 0.950 . S
H906 C884 0.950 . S
C193 C112 1.317 . S
C188 C10 1.392 . S
C223 C148 1.249 . S
C218 C15 1.335 . S
C253 C113 1.701 . S
C248 C27 1.712 . S
C283 C143 1.541 . S
C278 C38 1.608 . S
C313 C110 1.398 . S
C308 C49 1.461 . S
C338 C59 1.953 . S
C343 C146 1.956 . S
C368 C71 0.610 . S
C373 C115 0.664 . S
C403 C145 1.460 . S
C398 C87 1.513 . S
C433 C149 1.823 . S
C428 C5 1.860 . S
C463 C114 1.049 . S
C458 C16 1.083 . S
C493 C142 1.634 . S
C488 C32 1.629 . S
C523 C111 1.084 . S
C518 C37 1.196 . S
C553 C144 1.679 . S
C548 C48 1.801 . S
C578 C65 1.318 . S
C583 C109 1.308 . S
C608 C70 1.072 . S
C613 C147 1.045 . S
C643 C116 1.440 . S
C638 C82 1.505 . S
C673 C178 2.002 . S
C668 C4 2.091 . S
C698 C54 1.918 . S
C703 C181 1.786 . S
C733 C180 2.032 . S
C728 C60 2.092 . S
C758 C76 1.242 . S
C763 C179 1.229 . S
C793 C182 2.050 . S
C788 C81 2.180 . S
C818 C26 1.983 . S
C823 C176 1.889 . S
C853 C175 2.018 . S
C848 C43 2.037 . S
C878 C21 1.035 . S
C883 C177 0.980 . S
