# Generated by pormake.
# Topology pyr, (3,6)-cn, num edge types: 1
# Building blocks:
#     Node 0, Type 0, BuildingBlock: VETTIZ_charged_linker_0, # of connection points: 3
#     Node 1, Type 0, BuildingBlock: VETTIZ_charged_linker_0, # of connection points: 3
#     Node 2, Type 0, BuildingBlock: VETTIZ_charged_linker_0, # of connection points: 3
#     Node 3, Type 0, BuildingBlock: VETTIZ_charged_linker_0, # of connection points: 3
#     Node 4, Type 0, BuildingBlock: VETTIZ_charged_linker_0, # of connection points: 3
#     Node 5, Type 0, BuildingBlock: VETTIZ_charged_linker_0, # of connection points: 3
#     Node 6, Type 0, BuildingBlock: VETTIZ_charged_linker_0, # of connection points: 3
#     Node 7, Type 0, BuildingBlock: VETTIZ_charged_linker_0, # of connection points: 3
#     Node 8, Type 1, BuildingBlock: VOLQOD_clean_sbu_1, # of connection points: 6
#     Node 9, Type 1, BuildingBlock: VOLQOD_clean_sbu_1, # of connection points: 6
#     Node 10, Type 1, BuildingBlock: VOLQOD_clean_sbu_1, # of connection points: 6
#     Node 11, Type 1, BuildingBlock: VOLQOD_clean_sbu_1, # of connection points: 6
#     Edge 12, Type (0, 1), BuildingBlock: KIFKEQ_clean_linker_1, # of connection points: 2
#     Edge 13, Type (0, 1), BuildingBlock: KIFKEQ_clean_linker_1, # of connection points: 2
#     Edge 14, Type (0, 1), BuildingBlock: KIFKEQ_clean_linker_1, # of connection points: 2
#     Edge 15, Type (0, 1), BuildingBlock: KIFKEQ_clean_linker_1, # of connection points: 2
#     Edge 16, Type (0, 1), BuildingBlock: KIFKEQ_clean_linker_1, # of connection points: 2
#     Edge 17, Type (0, 1), BuildingBlock: KIFKEQ_clean_linker_1, # of connection points: 2
#     Edge 18, Type (0, 1), BuildingBlock: KIFKEQ_clean_linker_1, # of connection points: 2
#     Edge 19, Type (0, 1), BuildingBlock: KIFKEQ_clean_linker_1, # of connection points: 2
#     Edge 20, Type (0, 1), BuildingBlock: KIFKEQ_clean_linker_1, # of connection points: 2
#     Edge 21, Type (0, 1), BuildingBlock: KIFKEQ_clean_linker_1, # of connection points: 2
#     Edge 22, Type (0, 1), BuildingBlock: KIFKEQ_clean_linker_1, # of connection points: 2
#     Edge 23, Type (0, 1), BuildingBlock: KIFKEQ_clean_linker_1, # of connection points: 2
#     Edge 24, Type (0, 1), BuildingBlock: KIFKEQ_clean_linker_1, # of connection points: 2
#     Edge 25, Type (0, 1), BuildingBlock: KIFKEQ_clean_linker_1, # of connection points: 2
#     Edge 26, Type (0, 1), BuildingBlock: KIFKEQ_clean_linker_1, # of connection points: 2
#     Edge 27, Type (0, 1), BuildingBlock: KIFKEQ_clean_linker_1, # of connection points: 2
#     Edge 28, Type (0, 1), BuildingBlock: KIFKEQ_clean_linker_1, # of connection points: 2
#     Edge 29, Type (0, 1), BuildingBlock: KIFKEQ_clean_linker_1, # of connection points: 2
#     Edge 30, Type (0, 1), BuildingBlock: KIFKEQ_clean_linker_1, # of connection points: 2
#     Edge 31, Type (0, 1), BuildingBlock: KIFKEQ_clean_linker_1, # of connection points: 2
#     Edge 32, Type (0, 1), BuildingBlock: KIFKEQ_clean_linker_1, # of connection points: 2
#     Edge 33, Type (0, 1), BuildingBlock: KIFKEQ_clean_linker_1, # of connection points: 2
#     Edge 34, Type (0, 1), BuildingBlock: KIFKEQ_clean_linker_1, # of connection points: 2
#     Edge 35, Type (0, 1), BuildingBlock: KIFKEQ_clean_linker_1, # of connection points: 2
# Relax obj value: 0.035
# Max RMSD: 0.119
# Mean RMSD: 0.042
data_MOF--net-pry--node1-VOLQOD_clean_sbu_1--node2-VETTIZ_charged_linker_0--edge1-KIFKEQ_clean_linker_1
_symmetry_space_group_name_H-M    P1
_symmetry_Int_Tables_number       1
_symmetry_cell_setting            triclinic
loop_
_symmetry_equiv_pos_as_xyz
'x, y, z'
_cell_length_a     45.888947
_cell_length_b     45.897488
_cell_length_c     46.105348
_cell_angle_alpha  90.032143
_cell_angle_beta   90.021946
_cell_angle_gamma 90.105936
loop_
_atom_site_label
_atom_site_type_symbol
_atom_site_fract_x
_atom_site_fract_y
_atom_site_fract_z
_atom_type_partial_charge
C0 C 0.10598 0.0858 0.22829 0.0
C1 C 0.07985 0.09533 0.24086 0.0
C2 C 0.06331 0.11694 0.22685 0.0
C3 C 0.09995 0.12054 0.18907 0.0
C4 C 0.1154 0.0984 0.20231 0.0
C5 C 0.14233 0.09022 0.18571 0.0
H6 H 0.23476 0.11608 0.07457 0.0
C7 C 0.11636 0.12965 0.16301 0.0
C8 C 0.14093 0.1116 0.16068 0.0
H9 H 0.2398 0.04849 0.13972 0.0
H10 H 0.19467 0.06491 0.16066 0.0
H11 H 0.21464 0.16607 0.11743 0.0
H12 H 0.16591 0.10876 0.06167 0.0
H13 H 0.14947 0.14321 0.05938 0.0
H14 H 0.18683 0.13881 0.04795 0.0
H15 H 0.21385 0.17039 0.07876 0.0
H16 H 0.18681 0.18697 0.10181 0.0
C17 C 0.16906 0.09589 0.20548 0.0
C18 C 0.13904 0.0582 0.17537 0.0
C19 C 0.08572 0.22015 0.10723 0.0
C20 C 0.09814 0.23502 0.08358 0.0
C21 C 0.12257 0.22286 0.06957 0.0
C22 C 0.13505 0.19693 0.07951 0.0
C23 C 0.12312 0.18293 0.10385 0.0
C24 C 0.09857 0.19426 0.11701 0.0
C25 C 0.0889 0.17625 0.14255 0.0
C26 C 0.11217 0.15273 0.14293 0.0
C27 C 0.13219 0.15687 0.12026 0.0
C28 C 0.09019 0.19573 0.16996 0.0
C29 C 0.05829 0.1636 0.13588 0.0
C30 C 0.22593 0.10459 0.09312 0.0
C31 C 0.24098 0.08104 0.10558 0.0
C32 C 0.22889 0.06696 0.12996 0.0
C33 C 0.20257 0.07644 0.14202 0.0
C34 C 0.18809 0.10036 0.1297 0.0
C35 C 0.19966 0.11385 0.10551 0.0
C36 C 0.18135 0.13909 0.09554 0.0
C37 C 0.15674 0.13827 0.11756 0.0
C38 C 0.16096 0.11568 0.13759 0.0
C39 C 0.19997 0.16719 0.09824 0.0
C40 C 0.17037 0.13244 0.06444 0.0
H41 H 0.06005 0.14642 0.19155 0.0
H42 H 0.11879 0.06884 0.23849 0.0
H43 H 0.11573 0.05221 0.17229 0.0
H44 H 0.14914 0.05434 0.15393 0.0
H45 H 0.14843 0.04277 0.19138 0.0
H46 H 0.16632 0.11656 0.21782 0.0
H47 H 0.17186 0.07801 0.22146 0.0
H48 H 0.18958 0.09861 0.19332 0.0
H49 H 0.06699 0.22894 0.11851 0.0
H50 H 0.13219 0.23354 0.05094 0.0
H51 H 0.15379 0.18903 0.06808 0.0
H52 H 0.11067 0.20874 0.17025 0.0
H53 H 0.0716 0.21118 0.17046 0.0
H54 H 0.0902 0.18323 0.19036 0.0
H55 H 0.05507 0.16044 0.11216 0.0
H56 H 0.05501 0.14171 0.14536 0.0
H57 H 0.04081 0.17838 0.14366 0.0
H58 H 0.04305 0.12444 0.2363 0.0
C59 C 0.07328 0.1297 0.20103 0.0
C60 C 0.29177 0.91051 0.59528 0.0
C61 C 0.27672 0.93364 0.60844 0.0
C62 C 0.28873 0.947 0.63327 0.0
C63 C 0.32953 0.91355 0.63206 0.0
C64 C 0.31794 0.90079 0.60747 0.0
C65 C 0.33581 0.87547 0.59702 0.0
H66 H 0.44786 0.78259 0.61843 0.0
C67 C 0.35626 0.89744 0.63987 0.0
C68 C 0.36007 0.87513 0.61939 0.0
H69 H 0.38393 0.78192 0.54948 0.0
H70 H 0.36263 0.82597 0.56819 0.0
H71 H 0.46041 0.85226 0.61559 0.0
H72 H 0.40417 0.79979 0.6691 0.0
H73 H 0.42123 0.8256 0.69161 0.0
H74 H 0.44315 0.7994 0.67244 0.0
H75 H 0.47423 0.8304 0.64475 0.0
H76 H 0.46158 0.86717 0.65065 0.0
C77 C 0.34738 0.88279 0.56629 0.0
C78 C 0.31656 0.84769 0.59861 0.0
C79 C 0.41258 0.9252 0.73067 0.0
C80 C 0.4374 0.91349 0.74418 0.0
C81 C 0.45189 0.88991 0.73092 0.0
C82 C 0.44156 0.87788 0.70493 0.0
C83 C 0.41636 0.88941 0.69204 0.0
C84 C 0.40249 0.91287 0.70475 0.0
C85 C 0.37591 0.92216 0.68809 0.0
C86 C 0.37617 0.90045 0.66325 0.0
C87 C 0.39981 0.88122 0.66577 0.0
C88 C 0.38082 0.95378 0.67737 0.0
C89 C 0.34895 0.91814 0.70797 0.0
C90 C 0.42951 0.79217 0.60717 0.0
C91 C 0.41737 0.77857 0.58261 0.0
C92 C 0.39335 0.79166 0.56873 0.0
C93 C 0.38105 0.81732 0.57959 0.0
C94 C 0.39275 0.83008 0.60472 0.0
C95 C 0.41686 0.81779 0.61783 0.0
C96 C 0.42628 0.83447 0.64436 0.0
C97 C 0.40357 0.8585 0.64518 0.0
C98 C 0.38393 0.85568 0.622 0.0
C99 C 0.45731 0.84663 0.63886 0.0
C100 C 0.42385 0.81389 0.67088 0.0
H101 H 0.32298 0.94812 0.66408 0.0
H102 H 0.2829 0.89951 0.57644 0.0
H103 H 0.30175 0.84852 0.6177 0.0
H104 H 0.32925 0.82753 0.60162 0.0
H105 H 0.3028 0.84543 0.57892 0.0
H106 H 0.35204 0.90649 0.56416 0.0
H107 H 0.33118 0.87692 0.54935 0.0
H108 H 0.36831 0.87201 0.56135 0.0
H109 H 0.40073 0.94308 0.74043 0.0
H110 H 0.47131 0.88076 0.74066 0.0
H111 H 0.45346 0.85987 0.69605 0.0
H112 H 0.40399 0.95729 0.67113 0.0
H113 H 0.37543 0.96981 0.6946 0.0
H114 H 0.3682 0.95899 0.65766 0.0
H115 H 0.35165 0.89888 0.72238 0.0
H116 H 0.32871 0.91372 0.6958 0.0
H117 H 0.34563 0.9375 0.72204 0.0
H118 H 0.27765 0.96505 0.64361 0.0
C119 C 0.31508 0.93717 0.64507 0.0
C120 C 0.60077 0.29905 0.9341 0.0
C121 C 0.58004 0.28113 0.92019 0.0
C122 C 0.5686 0.29038 0.89325 0.0
C123 C 0.59894 0.33366 0.89436 0.0
C124 C 0.61025 0.32469 0.92062 0.0
C125 C 0.63452 0.34417 0.93098 0.0
H126 H 0.72576 0.45684 0.9044 0.0
C127 C 0.61432 0.36059 0.88568 0.0
C128 C 0.63544 0.36667 0.9069 0.0
H129 H 0.7284 0.39568 0.97568 0.0
H130 H 0.68377 0.37351 0.95889 0.0
H131 H 0.65673 0.46829 0.90697 0.0
H132 H 0.7096 0.41061 0.85571 0.0
H133 H 0.68402 0.42703 0.83251 0.0
H134 H 0.70987 0.44951 0.85154 0.0
H135 H 0.67659 0.48095 0.87593 0.0
H136 H 0.64013 0.46634 0.87272 0.0
C137 C 0.62528 0.35787 0.96024 0.0
C138 C 0.6629 0.32584 0.93244 0.0
C139 C 0.58611 0.41257 0.79246 0.0
C140 C 0.5966 0.4379 0.77876 0.0
C141 C 0.61915 0.45393 0.79214 0.0
C142 C 0.63129 0.44473 0.81846 0.0
C143 C 0.62094 0.41911 0.83159 0.0
C144 C 0.59849 0.40367 0.81877 0.0
C145 C 0.59023 0.37703 0.83593 0.0
C146 C 0.61121 0.37926 0.86132 0.0
C147 C 0.62931 0.40377 0.85848 0.0
C148 C 0.55813 0.38037 0.84568 0.0
C149 C 0.5962 0.34974 0.81698 0.0
C150 C 0.71677 0.43862 0.91636 0.0
C151 C 0.73087 0.42781 0.94122 0.0
C152 C 0.71798 0.40453 0.95655 0.0
C153 C 0.69221 0.39147 0.94658 0.0
C154 C 0.67923 0.40161 0.92088 0.0
C155 C 0.6912 0.42519 0.90657 0.0
C156 C 0.67454 0.43297 0.87957 0.0
C157 C 0.65124 0.40946 0.87947 0.0
C158 C 0.65411 0.39116 0.90368 0.0
C159 C 0.66139 0.46379 0.88371 0.0
C160 C 0.69545 0.43013 0.85333 0.0
H161 H 0.56833 0.32213 0.8599 0.0
H162 H 0.60998 0.29318 0.95489 0.0
H163 H 0.66248 0.30762 0.91651 0.0
H164 H 0.68255 0.33848 0.9266 0.0
H165 H 0.66597 0.31617 0.9543 0.0
H166 H 0.60198 0.36449 0.95959 0.0
H167 H 0.62794 0.34209 0.97831 0.0
H168 H 0.63752 0.37793 0.96547 0.0
H169 H 0.56906 0.39954 0.78263 0.0
H170 H 0.62733 0.47375 0.78231 0.0
H171 H 0.64846 0.45781 0.82742 0.0
H172 H 0.55388 0.403 0.85322 0.0
H173 H 0.54296 0.37571 0.82747 0.0
H174 H 0.55238 0.36625 0.86417 0.0
H175 H 0.61421 0.35375 0.80133 0.0
H176 H 0.60358 0.33083 0.82985 0.0
H177 H 0.57661 0.34346 0.80425 0.0
H178 H 0.5532 0.27702 0.88142 0.0
C179 C 0.57772 0.31656 0.88047 0.0
C180 C 0.93407 0.71043 0.41698 0.0
C181 C 0.92158 0.72598 0.44014 0.0
C182 C 0.89669 0.71442 0.45396 0.0
C183 C 0.89616 0.67365 0.42049 0.0
C184 C 0.92099 0.68457 0.40748 0.0
C185 C 0.93055 0.66649 0.38202 0.0
H186 H 0.90411 0.55512 0.28969 0.0
C187 C 0.88716 0.6473 0.40434 0.0
C188 C 0.9073 0.64294 0.38184 0.0
H189 H 0.97416 0.61829 0.2867 0.0
H190 H 0.95757 0.63936 0.33154 0.0
H191 H 0.90741 0.54273 0.35857 0.0
H192 H 0.85515 0.60046 0.30674 0.0
H193 H 0.83212 0.58498 0.33293 0.0
H194 H 0.84992 0.5617 0.30697 0.0
H195 H 0.87744 0.52988 0.33705 0.0
H196 H 0.87232 0.54263 0.37377 0.0
C197 C 0.96111 0.65393 0.38882 0.0
C198 C 0.92922 0.68588 0.35449 0.0
C199 C 0.79313 0.59505 0.431 0.0
C200 C 0.77843 0.57104 0.41886 0.0
C201 C 0.79153 0.55578 0.39576 0.0
C202 C 0.81838 0.56471 0.3844 0.0
C203 C 0.83232 0.58933 0.39609 0.0
C204 C 0.81993 0.60379 0.4193 0.0
C205 C 0.83787 0.62954 0.42883 0.0
C206 C 0.86292 0.62826 0.40737 0.0
C207 C 0.85942 0.60478 0.38814 0.0
C208 C 0.84821 0.62404 0.46034 0.0
C209 C 0.81919 0.65738 0.42489 0.0
C210 C 0.91585 0.57354 0.29863 0.0
C211 C 0.94044 0.58507 0.28444 0.0
C212 C 0.95536 0.60872 0.29723 0.0
C213 C 0.9455 0.62115 0.32319 0.0
C214 C 0.92028 0.61005 0.33649 0.0
C215 C 0.90614 0.58638 0.32441 0.0
C216 C 0.87944 0.57778 0.34129 0.0
C217 C 0.87972 0.60042 0.36531 0.0
C218 C 0.90363 0.61929 0.36232 0.0
C219 C 0.88408 0.54657 0.35322 0.0
C220 C 0.85263 0.58113 0.32109 0.0
H221 H 0.86483 0.68096 0.45546 0.0
H222 H 0.95341 0.71841 0.4061 0.0
H223 H 0.91099 0.70177 0.3559 0.0
H224 H 0.9248 0.67341 0.33449 0.0
H225 H 0.94971 0.69849 0.35167 0.0
H226 H 0.96303 0.64822 0.4122 0.0
H227 H 0.9785 0.67 0.38377 0.0
H228 H 0.96562 0.63342 0.37712 0.0
H229 H 0.78358 0.60739 0.44862 0.0
H230 H 0.7809 0.53691 0.38636 0.0
H231 H 0.82704 0.55233 0.36666 0.0
H232 H 0.85298 0.60054 0.46387 0.0
H233 H 0.83125 0.63055 0.47625 0.0
H234 H 0.86879 0.6354 0.46557 0.0
H235 H 0.80527 0.65568 0.4052 0.0
H236 H 0.83237 0.67721 0.42146 0.0
H237 H 0.80459 0.66084 0.44378 0.0
H238 H 0.88638 0.72603 0.47163 0.0
C239 C 0.884 0.68833 0.44434 0.0
C240 C 0.93686 0.81458 0.95138 0.0
C241 C 0.95891 0.7991 0.93695 0.0
C242 C 0.97294 0.81209 0.91301 0.0
C243 C 0.94089 0.85392 0.91648 0.0
C244 C 0.92823 0.84179 0.94084 0.0
C245 C 0.90394 0.86017 0.9527 0.0
H246 H 0.80792 0.96881 0.93218 0.0
C247 C 0.92515 0.88118 0.90976 0.0
C248 C 0.90372 0.88513 0.93113 0.0
H249 H 0.81232 0.90775 0.00347 0.0
H250 H 0.85775 0.88906 0.98517 0.0
H251 H 0.82779 0.92542 0.8825 0.0
H252 H 0.87628 0.98637 0.93459 0.0
H253 H 0.89319 0.98588 0.90044 0.0
H254 H 0.85583 0.99793 0.90352 0.0
H255 H 0.82371 0.96426 0.88001 0.0
H256 H 0.85109 0.94537 0.85957 0.0
C257 C 0.87553 0.84185 0.95137 0.0
C258 C 0.91255 0.87048 0.98357 0.0
C259 C 0.94539 0.93426 0.81519 0.0
C260 C 0.9327 0.95877 0.80191 0.0
C261 C 0.91132 0.97458 0.81722 0.0
C262 C 0.90197 0.96553 0.8447 0.0
C263 C 0.91396 0.94028 0.85706 0.0
C264 C 0.93581 0.92553 0.84267 0.0
C265 C 0.94631 0.8994 0.85934 0.0
C266 C 0.92692 0.90077 0.88598 0.0
C267 C 0.90772 0.92451 0.88429 0.0
C268 C 0.94021 0.87192 0.84073 0.0
C269 C 0.97884 0.90414 0.86708 0.0
C270 C 0.81892 0.95177 0.94414 0.0
C271 C 0.80616 0.93935 0.969 0.0
C272 C 0.82127 0.91719 0.98387 0.0
C273 C 0.84769 0.90638 0.97323 0.0
C274 C 0.85909 0.91763 0.94728 0.0
C275 C 0.84532 0.94064 0.93374 0.0
C276 C 0.86103 0.95017 0.9067 0.0
C277 C 0.88594 0.92842 0.90581 0.0
C278 C 0.88437 0.90916 0.92939 0.0
C279 C 0.83994 0.94635 0.8807 0.0
C280 C 0.87206 0.98178 0.91126 0.0
H281 H 0.9751 0.8479 0.88403 0.0
H282 H 0.92604 0.80538 0.97015 0.0
H283 H 0.93663 0.87219 0.98595 0.0
H284 H 0.90441 0.89261 0.98853 0.0
H285 H 0.90461 0.85507 0.00038 0.0
H286 H 0.87436 0.82935 0.9307 0.0
H287 H 0.8746 0.82594 0.9695 0.0
H288 H 0.85554 0.85507 0.95178 0.0
H289 H 0.96174 0.92146 0.80406 0.0
H290 H 0.90162 0.9939 0.80784 0.0
H291 H 0.88535 0.97823 0.85503 0.0
H292 H 0.91868 0.87364 0.82975 0.0
H293 H 0.95707 0.8692 0.82366 0.0
H294 H 0.93897 0.8517 0.85354 0.0
H295 H 0.98369 0.92765 0.87056 0.0
H296 H 0.98508 0.8935 0.88767 0.0
H297 H 0.99329 0.89625 0.84944 0.0
H298 H 0.98997 0.80058 0.90151 0.0
C299 C 0.96409 0.83945 0.90276 0.0
C300 C 0.69652 0.08397 0.46332 0.0
C301 C 0.71342 0.06173 0.45082 0.0
C302 C 0.70251 0.04684 0.42633 0.0
C303 C 0.66003 0.0781 0.42564 0.0
C304 C 0.67008 0.09181 0.45038 0.0
C305 C 0.65062 0.1164 0.45971 0.0
H306 H 0.54019 0.20783 0.42813 0.0
C307 C 0.6332 0.09312 0.41622 0.0
C308 C 0.62743 0.11542 0.43625 0.0
H309 H 0.59863 0.21054 0.50164 0.0
H310 H 0.61993 0.16483 0.4869 0.0
H311 H 0.52663 0.137 0.43187 0.0
H312 H 0.58635 0.19007 0.38298 0.0
H313 H 0.57271 0.16348 0.35924 0.0
H314 H 0.54796 0.18907 0.37556 0.0
H315 H 0.51508 0.1588 0.4017 0.0
H316 H 0.52832 0.12207 0.39682 0.0
C317 C 0.63795 0.1089 0.48995 0.0
C318 C 0.66872 0.14497 0.45869 0.0
C319 C 0.58722 0.06729 0.3193 0.0
C320 C 0.5641 0.0795 0.30343 0.0
C321 C 0.54718 0.10163 0.31626 0.0
C322 C 0.55378 0.11213 0.34402 0.0
C323 C 0.57779 0.10065 0.35906 0.0
C324 C 0.5937 0.0782 0.34692 0.0
C325 C 0.61873 0.06901 0.36587 0.0
C326 C 0.61535 0.08981 0.39126 0.0
C327 C 0.59148 0.10842 0.38702 0.0
C328 C 0.61372 0.03692 0.37504 0.0
C329 C 0.64738 0.07443 0.34886 0.0
C330 C 0.55713 0.19822 0.44139 0.0
C331 C 0.56794 0.21285 0.46593 0.0
C332 C 0.59025 0.19982 0.48241 0.0
C333 C 0.6026 0.17332 0.47379 0.0
C334 C 0.59283 0.15987 0.44817 0.0
C335 C 0.56993 0.17191 0.43287 0.0
C336 C 0.56286 0.15491 0.40587 0.0
C337 C 0.58561 0.13098 0.40726 0.0
C338 C 0.60325 0.13417 0.43195 0.0
C339 C 0.53154 0.14263 0.40891 0.0
C340 C 0.56744 0.17527 0.3794 0.0
H341 H 0.6691 0.04306 0.39482 0.0
H342 H 0.70402 0.09555 0.4824 0.0
H343 H 0.68416 0.14475 0.44008 0.0
H344 H 0.65536 0.16461 0.45529 0.0
H345 H 0.68175 0.1478 0.47881 0.0
H346 H 0.63436 0.08502 0.49222 0.0
H347 H 0.65298 0.1158 0.50756 0.0
H348 H 0.61628 0.1187 0.49367 0.0
H349 H 0.60078 0.05043 0.30995 0.0
H350 H 0.52896 0.11104 0.30464 0.0
H351 H 0.54034 0.12926 0.35241 0.0
H352 H 0.5901 0.03229 0.378 0.0
H353 H 0.6221 0.02162 0.35836 0.0
H354 H 0.62373 0.03168 0.3962 0.0
H355 H 0.6458 0.09459 0.33557 0.0
H356 H 0.66643 0.07805 0.363 0.0
H357 H 0.65215 0.05605 0.33392 0.0
H358 H 0.71511 0.02976 0.41609 0.0
C359 C 0.67587 0.0548 0.41379 0.0
C360 C 0.44638 0.58004 0.2026 0.0
C361 C 0.43304 0.55629 0.21659 0.0
C362 C 0.41047 0.54117 0.20226 0.0
C363 C 0.413 0.57512 0.16205 0.0
C364 C 0.43607 0.58903 0.17549 0.0
C365 C 0.44684 0.61483 0.15849 0.0
H366 H 0.42495 0.71109 0.05016 0.0
C367 C 0.40615 0.5913 0.13519 0.0
C368 C 0.42615 0.61438 0.1328 0.0
H369 H 0.49254 0.71215 0.11549 0.0
H370 H 0.47664 0.66514 0.13288 0.0
H371 H 0.37422 0.68806 0.09155 0.0
H372 H 0.43219 0.64407 0.03288 0.0
H373 H 0.39913 0.6248 0.03152 0.0
H374 H 0.4002 0.66249 0.02019 0.0
H375 H 0.37282 0.69214 0.05284 0.0
H376 H 0.35351 0.66334 0.07091 0.0
C377 C 0.44278 0.64238 0.17754 0.0
C378 C 0.47874 0.60891 0.14919 0.0
C379 C 0.31443 0.56672 0.07824 0.0
C380 C 0.30113 0.57961 0.05392 0.0
C381 C 0.31602 0.602 0.03908 0.0
C382 C 0.3429 0.61237 0.0491 0.0
C383 C 0.35505 0.60043 0.07439 0.0
C384 C 0.34131 0.57741 0.08803 0.0
C385 C 0.35775 0.56723 0.11439 0.0
C386 C 0.38327 0.58837 0.11461 0.0
C387 C 0.38129 0.60801 0.09136 0.0
C388 C 0.33774 0.57124 0.14116 0.0
C389 C 0.36774 0.53544 0.1091 0.0
C390 C 0.43632 0.70114 0.0682 0.0
C391 C 0.45975 0.7155 0.08174 0.0
C392 C 0.47445 0.70152 0.10467 0.0
C393 C 0.46501 0.67434 0.11491 0.0
C394 C 0.4405 0.66105 0.10222 0.0
C395 C 0.42712 0.67406 0.07873 0.0
C396 C 0.40158 0.65669 0.06777 0.0
C397 C 0.40142 0.63141 0.089 0.0
C398 C 0.42401 0.6343 0.10935 0.0
C399 C 0.37398 0.67591 0.07066 0.0
C400 C 0.40834 0.64656 0.0364 0.0
H401 H 0.38276 0.53843 0.16555 0.0
H402 H 0.46412 0.59179 0.21283 0.0
H403 H 0.48254 0.58523 0.14568 0.0
H404 H 0.48431 0.61919 0.12822 0.0
H405 H 0.49437 0.61642 0.16602 0.0
H406 H 0.42178 0.64136 0.18956 0.0
H407 H 0.46057 0.64436 0.19377 0.0
H408 H 0.44169 0.66274 0.16494 0.0
H409 H 0.30359 0.54953 0.0902 0.0
H410 H 0.30661 0.61185 0.0199 0.0
H411 H 0.35283 0.6298 0.03716 0.0
H412 H 0.32567 0.5922 0.13976 0.0
H413 H 0.32141 0.5534 0.14257 0.0
H414 H 0.34975 0.57234 0.16183 0.0
H415 H 0.37202 0.53142 0.08568 0.0
H416 H 0.38859 0.53036 0.12001 0.0
H417 H 0.35086 0.51962 0.11623 0.0
H418 H 0.39977 0.52287 0.2126 0.0
C419 C 0.40044 0.55041 0.17504 0.0
C420 C 0.06259 0.30814 0.58691 0.0
C421 C 0.07555 0.29302 0.56375 0.0
C422 C 0.09876 0.30616 0.54857 0.0
C423 C 0.0974 0.3476 0.58108 0.0
C424 C 0.07388 0.33526 0.59522 0.0
C425 C 0.064 0.35328 0.62062 0.0
H426 H 0.08946 0.4651 0.71255 0.0
C427 C 0.10531 0.37471 0.5965 0.0
C428 C 0.08567 0.3783 0.61955 0.0
H429 H 0.02091 0.40051 0.71679 0.0
H430 H 0.03638 0.3805 0.6709 0.0
H431 H 0.08269 0.47856 0.64254 0.0
H432 H 0.13813 0.4228 0.69324 0.0
H433 H 0.15994 0.43832 0.66611 0.0
H434 H 0.1426 0.46164 0.69234 0.0
H435 H 0.11233 0.49244 0.66389 0.0
H436 H 0.11762 0.48025 0.62701 0.0
C437 C 0.03247 0.36367 0.61463 0.0
C438 C 0.0675 0.33463 0.64845 0.0
C439 C 0.1977 0.42891 0.56861 0.0
C440 C 0.21233 0.45286 0.5809 0.0
C441 C 0.19899 0.46828 0.60375 0.0
C442 C 0.17203 0.45934 0.61491 0.0
C443 C 0.15836 0.43449 0.60335 0.0
C444 C 0.1709 0.42009 0.58019 0.0
C445 C 0.15356 0.39381 0.57106 0.0
C446 C 0.12871 0.39463 0.59277 0.0
C447 C 0.13177 0.41838 0.61175 0.0
C448 C 0.14271 0.39877 0.53962 0.0
C449 C 0.17306 0.36653 0.57504 0.0
C450 C 0.07742 0.44702 0.70328 0.0
C451 C 0.05406 0.43423 0.71835 0.0
C452 C 0.03922 0.41047 0.70575 0.0
C453 C 0.04825 0.3989 0.67911 0.0
C454 C 0.0726 0.41097 0.66504 0.0
C455 C 0.08635 0.43503 0.67683 0.0
C456 C 0.11223 0.44456 0.65921 0.0
C457 C 0.11191 0.42207 0.63506 0.0
C458 C 0.08879 0.40233 0.63872 0.0
C459 C 0.10621 0.47565 0.64762 0.0
C460 C 0.13976 0.44198 0.67856 0.0
H461 H 0.12762 0.34202 0.54485 0.0
H462 H 0.04489 0.29852 0.59917 0.0
H463 H 0.08732 0.32075 0.64712 0.0
H464 H 0.07062 0.34776 0.66825 0.0
H465 H 0.04847 0.31998 0.65159 0.0
H466 H 0.0291 0.36793 0.5911 0.0
H467 H 0.01629 0.34697 0.62138 0.0
H468 H 0.02734 0.38455 0.62539 0.0
H469 H 0.2075 0.41643 0.55123 0.0
H470 H 0.20966 0.48706 0.61328 0.0
H471 H 0.16325 0.4717 0.6326 0.0
H472 H 0.13793 0.4222 0.5357 0.0
H473 H 0.15937 0.3919 0.52355 0.0
H474 H 0.12198 0.38738 0.53499 0.0
H475 H 0.18707 0.36876 0.59463 0.0
H476 H 0.16056 0.34633 0.57869 0.0
H477 H 0.18764 0.36338 0.55608 0.0
H478 H 0.10878 0.29514 0.53035 0.0
C479 C 0.10963 0.33341 0.55699 0.0
O480 O 0.99498 0.07324 0.53828 0.0
Zn481 Zn 0.97738 0.03286 0.53775 0.0
O482 O 0.00116 0.00611 0.51449 0.0
Zn483 Zn 0.97915 0.99386 0.4804 0.0
Zn484 Zn 0.03669 0.02557 0.50158 0.0
Zn485 Zn 0.01157 0.97207 0.53772 0.0
O486 O 0.97688 0.95021 0.47831 0.0
O487 O 0.99733 0.93478 0.51916 0.0
O488 O 0.93636 0.03558 0.52199 0.0
O489 O 0.93799 0.00811 0.48241 0.0
O490 O 0.99705 0.00888 0.44328 0.0
O491 O 0.03993 0.02574 0.45812 0.0
O492 O 0.07269 0.00691 0.5182 0.0
O493 O 0.9741 0.01873 0.57904 0.0
O494 O 0.05501 0.96924 0.54273 0.0
O495 O 0.99511 0.9752 0.57804 0.0
C496 C 0.01855 0.08355 0.52784 0.0
C497 C 0.98431 0.92962 0.49528 0.0
C498 C 0.02196 0.01988 0.43791 0.0
C499 C 0.92398 0.02431 0.49992 0.0
C500 C 0.07648 0.98457 0.53412 0.0
C501 C 0.98157 0.99519 0.59162 0.0
O502 O 0.03626 0.06755 0.51379 0.0
O503 O 0.50642 0.06723 0.98697 0.0
Zn504 Zn 0.49057 0.02653 0.99311 0.0
O505 O 0.51683 0.00363 0.01793 0.0
Zn506 Zn 0.5326 0.9706 0.9964 0.0
Zn507 Zn 0.54909 0.02807 0.03133 0.0
Zn508 Zn 0.49525 0.9889 0.05126 0.0
O509 O 0.52093 0.93226 0.01428 0.0
O510 O 0.49431 0.94514 0.05229 0.0
O511 O 0.4863 0.00746 0.95364 0.0
O512 O 0.51744 0.9705 0.95565 0.0
O513 O 0.57635 0.97159 0.99519 0.0
O514 O 0.58799 0.0105 0.02131 0.0
O515 O 0.54782 0.03352 0.07478 0.0
O516 O 0.45052 0.03036 0.01109 0.0
O517 O 0.51263 0.0033 0.08857 0.0
O518 O 0.45397 0.003 0.05061 0.0
C519 C 0.5296 0.07993 0.9955 0.0
C520 C 0.50558 0.92557 0.03629 0.0
C521 C 0.59539 0.98835 0.00643 0.0
C522 C 0.4989 0.98573 0.94183 0.0
C523 C 0.53269 0.02151 0.09464 0.0
C524 C 0.43927 0.01943 0.03389 0.0
O525 O 0.54782 0.06731 0.01209 0.0
O526 O 0.53075 0.51164 0.5663 0.0
Zn527 Zn 0.52433 0.52738 0.52591 0.0
O528 O 0.49847 0.50165 0.50354 0.0
Zn529 Zn 0.51972 0.48494 0.4708 0.0
Zn530 Zn 0.4841 0.47029 0.52845 0.0
Zn531 Zn 0.46544 0.52388 0.48879 0.0
O532 O 0.50108 0.49532 0.43249 0.0
O533 O 0.46431 0.52389 0.44523 0.0
O534 O 0.56379 0.53092 0.50672 0.0
O535 O 0.56076 0.50014 0.46967 0.0
O536 O 0.52168 0.44131 0.4738 0.0
O537 O 0.49504 0.43089 0.51262 0.0
O538 O 0.44048 0.4717 0.53261 0.0
O539 O 0.5072 0.56775 0.52971 0.0
O540 O 0.42734 0.5077 0.50331 0.0
O541 O 0.46747 0.56537 0.50232 0.0
C542 C 0.52013 0.49005 0.5801 0.0
C543 C 0.47949 0.51137 0.42579 0.0
C544 C 0.51055 0.42284 0.49119 0.0
C545 C 0.57515 0.51838 0.48481 0.0
C546 C 0.42083 0.4874 0.52098 0.0
C547 C 0.4847 0.57963 0.51869 0.0
O548 O 0.5018 0.4729 0.56827 0.0
O549 O 0.9859 0.50361 0.06951 0.0
Zn550 Zn 0.98878 0.48623 0.02945 0.0
O551 O 0.01244 0.51118 0.00407 0.0
Zn552 Zn 0.98846 0.52563 0.97214 0.0
Zn553 Zn 0.02776 0.54427 0.02608 0.0
Zn554 Zn 0.04496 0.48875 0.98835 0.0
O555 O 0.00354 0.5118 0.93349 0.0
O556 O 0.04231 0.48537 0.94496 0.0
O557 O 0.94777 0.48184 0.01397 0.0
O558 O 0.94732 0.51102 0.97559 0.0
O559 O 0.98745 0.5694 0.97138 0.0
O560 O 0.01528 0.58251 0.00855 0.0
O561 O 0.07155 0.54417 0.02661 0.0
O562 O 0.00643 0.44604 0.03347 0.0
O563 O 0.08375 0.50676 0.99867 0.0
O564 O 0.04498 0.44821 0.00448 0.0
C565 C 0.99702 0.52606 0.08146 0.0
C566 C 0.02488 0.49573 0.92612 0.0
C567 C 0.99924 0.58906 0.98698 0.0
C568 C 0.93439 0.4935 0.99272 0.0
C569 C 0.09083 0.52841 0.01448 0.0
C570 C 0.02876 0.43422 0.02203 0.0
O571 O 0.01358 0.54329 0.06738 0.0
H572 H 0.10924 0.09815 0.29158 0.0
H573 H 0.02981 0.0658 0.25334 0.0
H574 H 0.09463 0.07883 0.33851 0.0
H575 H 0.01568 0.0445 0.29987 0.0
H576 H 0.98545 0.03617 0.39415 0.0
H577 H 0.99888 0.05401 0.34623 0.0
H578 H 0.08961 0.03714 0.36554 0.0
H579 H 0.07611 0.02129 0.41402 0.0
C580 C 0.08874 0.08653 0.29332 0.0
C581 C 0.07059 0.0834 0.26908 0.0
C582 C 0.08042 0.07514 0.32012 0.0
C583 C 0.05402 0.05971 0.32316 0.0
C584 C 0.03592 0.05657 0.29863 0.0
C585 C 0.04401 0.06859 0.27192 0.0
C586 C 0.00823 0.03614 0.38797 0.0
C587 C 0.02977 0.02758 0.40782 0.0
C588 C 0.01598 0.04624 0.36041 0.0
C589 C 0.04544 0.0474 0.35188 0.0
C590 C 0.0668 0.0375 0.37148 0.0
C591 C 0.05908 0.0281 0.39922 0.0
H592 H 0.45575 0.8827 0.79135 0.0
H593 H 0.4417 0.97061 0.76107 0.0
H594 H 0.47139 0.90146 0.83821 0.0
H595 H 0.45754 0.98949 0.80807 0.0
H596 H 0.45587 0.00804 0.90694 0.0
H597 H 0.44177 0.99144 0.85861 0.0
H598 H 0.51117 0.92797 0.86017 0.0
H599 H 0.52484 0.94399 0.90853 0.0
C600 C 0.45638 0.90607 0.79458 0.0
C601 C 0.4476 0.92516 0.77246 0.0
C602 C 0.46535 0.91684 0.82146 0.0
C603 C 0.46583 0.947 0.82686 0.0
C604 C 0.45709 0.96614 0.80472 0.0
C605 C 0.44805 0.95533 0.7778 0.0
C606 C 0.46821 0.99065 0.8969 0.0
C607 C 0.49134 0.97721 0.91174 0.0
C608 C 0.46021 0.98123 0.86914 0.0
C609 C 0.4752 0.95822 0.85563 0.0
C610 C 0.4988 0.94536 0.87018 0.0
C611 C 0.50673 0.95468 0.89789 0.0
H612 H 0.53951 0.43819 0.76139 0.0
H613 H 0.62651 0.45856 0.73179 0.0
H614 H 0.52003 0.45232 0.7142 0.0
H615 H 0.60706 0.47268 0.68469 0.0
H616 H 0.55985 0.52076 0.61241 0.0
H617 H 0.57726 0.50974 0.66114 0.0
H618 H 0.5205 0.43461 0.66436 0.0
H619 H 0.50267 0.44585 0.61594 0.0
C620 C 0.55448 0.44557 0.74477 0.0
C621 C 0.58456 0.44724 0.75034 0.0
C622 C 0.54332 0.45368 0.71775 0.0
C623 C 0.56199 0.46363 0.69569 0.0
C624 C 0.59203 0.46557 0.70137 0.0
C625 C 0.60318 0.45746 0.72837 0.0
C626 C 0.55094 0.50198 0.62356 0.0
C627 C 0.5299 0.48416 0.61018 0.0
C628 C 0.56105 0.49558 0.65143 0.0
C629 C 0.55034 0.47124 0.66659 0.0
C630 C 0.52896 0.45372 0.65342 0.0
C631 C 0.51886 0.46009 0.62556 0.0
H632 H 0.90556 0.56783 0.23946 0.0
H633 H 0.99604 0.57664 0.26415 0.0
H634 H 0.92032 0.55143 0.19147 0.0
H635 H 0.01074 0.56068 0.2158 0.0
H636 H 0.0206 0.56866 0.11581 0.0
H637 H 0.00777 0.58071 0.16567 0.0
H638 H 0.94518 0.51034 0.16666 0.0
H639 H 0.95776 0.49834 0.11667 0.0
C640 C 0.92861 0.56584 0.23484 0.0
C641 C 0.94961 0.57357 0.25571 0.0
C642 C 0.93705 0.5565 0.20728 0.0
C643 C 0.96668 0.55483 0.19987 0.0
C644 C 0.98773 0.56212 0.2208 0.0
C645 C 0.97929 0.5713 0.24846 0.0
C646 C 0.00418 0.55566 0.12665 0.0
C647 C 0.99011 0.53261 0.11216 0.0
C648 C 0.99699 0.56246 0.1553 0.0
C649 C 0.97546 0.54649 0.17004 0.0
C650 C 0.96166 0.52321 0.15573 0.0
C651 C 0.96898 0.51627 0.12714 0.0
H652 H 0.25683 0.07442 0.04862 0.0
H653 H 0.28979 0.0667 0.13604 0.0
H654 H 0.30395 0.0585 0.02967 0.0
H655 H 0.33672 0.05105 0.11722 0.0
H656 H 0.40674 0.99564 0.0774 0.0
H657 H 0.35826 0.00967 0.09317 0.0
H658 H 0.35464 0.07445 0.02532 0.0
H659 H 0.4031 0.05993 0.009 0.0
C660 C 0.27419 0.0695 0.06376 0.0
C661 C 0.26954 0.0716 0.09383 0.0
C662 C 0.30116 0.06041 0.05292 0.0
C663 C 0.32402 0.05329 0.07194 0.0
C664 C 0.31939 0.05573 0.10198 0.0
C665 C 0.29248 0.06472 0.11278 0.0
C666 C 0.39561 0.01277 0.06568 0.0
C667 C 0.40894 0.0268 0.04204 0.0
C668 C 0.36784 0.02093 0.07486 0.0
C669 C 0.35271 0.04342 0.06074 0.0
C670 C 0.36563 0.05691 0.03655 0.0
C671 C 0.39346 0.04866 0.02727 0.0
H672 H 0.22735 0.94479 0.63934 0.0
H673 H 0.2611 0.94281 0.55192 0.0
H674 H 0.17928 0.9576 0.62067 0.0
H675 H 0.2128 0.95516 0.53318 0.0
H676 H 0.12831 0.00816 0.51609 0.0
H677 H 0.17716 0.99673 0.53376 0.0
H678 H 0.14087 0.93227 0.59165 0.0
H679 H 0.0921 0.94365 0.57422 0.0
C680 C 0.22453 0.94737 0.61616 0.0
C681 C 0.24796 0.94283 0.59708 0.0
C682 C 0.19697 0.95438 0.60546 0.0
C683 C 0.19228 0.9572 0.57547 0.0
C684 C 0.21583 0.95326 0.55641 0.0
C685 C 0.24338 0.946 0.5671 0.0
C686 C 0.13075 0.99148 0.53251 0.0
C687 C 0.10627 0.97687 0.54378 0.0
C688 C 0.15873 0.98488 0.54253 0.0
C689 C 0.16276 0.96374 0.56419 0.0
C690 C 0.13836 0.94894 0.57522 0.0
C691 C 0.11044 0.95535 0.56506 0.0
H692 H 0.77634 0.4423 0.906 0.0
H693 H 0.75102 0.43924 0.99621 0.0
H694 H 0.82438 0.45975 0.91986 0.0
H695 H 0.7994 0.45677 0.01015 0.0
H696 H 0.90011 0.4541 0.02176 0.0
H697 H 0.85013 0.43983 0.01042 0.0
H698 H 0.84852 0.50211 0.94022 0.0
H699 H 0.8985 0.51598 0.95109 0.0
C700 C 0.78087 0.44581 0.9288 0.0
C701 C 0.75976 0.43953 0.94999 0.0
C702 C 0.80846 0.4558 0.93675 0.0
C703 C 0.8157 0.45977 0.96611 0.0
C704 C 0.79459 0.45364 0.98736 0.0
C705 C 0.76689 0.44362 0.97938 0.0
C706 C 0.88904 0.46487 0.004 0.0
C707 C 0.90345 0.48601 0.98719 0.0
C708 C 0.86033 0.4568 0.99762 0.0
C709 C 0.84542 0.4697 0.97429 0.0
C710 C 0.85957 0.49139 0.95802 0.0
C711 C 0.88822 0.49943 0.96436 0.0
H712 H 0.73107 0.55609 0.38638 0.0
H713 H 0.75929 0.56734 0.47507 0.0
H714 H 0.68254 0.543 0.40318 0.0
H715 H 0.71062 0.55394 0.49201 0.0
H716 H 0.61147 0.55979 0.5081 0.0
H717 H 0.66087 0.57209 0.49282 0.0
H718 H 0.65728 0.50429 0.42785 0.0
H719 H 0.60781 0.49248 0.44255 0.0
C720 C 0.72699 0.55539 0.40951 0.0
C721 C 0.74906 0.56259 0.4294 0.0
C722 C 0.69916 0.54787 0.41915 0.0
C723 C 0.69271 0.54729 0.44896 0.0
C724 C 0.71478 0.55453 0.46889 0.0
C725 C 0.74265 0.56214 0.45921 0.0
C726 C 0.62125 0.54747 0.4906 0.0
C727 C 0.60557 0.52527 0.47644 0.0
C728 C 0.64964 0.55442 0.48195 0.0
C729 C 0.66299 0.53928 0.45901 0.0
C730 C 0.64747 0.51675 0.44524 0.0
C731 C 0.61911 0.50987 0.4538 0.0
H732 H 0.04102 0.25175 0.07752 0.0
H733 H 0.12933 0.28337 0.06899 0.0
H734 H 0.02265 0.29923 0.06189 0.0
H735 H 0.1111 0.33056 0.05357 0.0
H736 H 0.07175 0.40089 0.99827 0.0
H737 H 0.08685 0.35224 0.01238 0.0
H738 H 0.01957 0.35021 0.07787 0.0
H739 H 0.00392 0.39891 0.06331 0.0
C740 C 0.05648 0.26886 0.07245 0.0
C741 C 0.08663 0.26372 0.07421 0.0
C742 C 0.04597 0.29604 0.06353 0.0
C743 C 0.06542 0.3186 0.05625 0.0
C744 C 0.09553 0.31348 0.05838 0.0
C745 C 0.10599 0.2864 0.06722 0.0
C746 C 0.06003 0.3901 0.0156 0.0
C747 C 0.03674 0.40394 0.0298 0.0
C748 C 0.06881 0.36222 0.02379 0.0
C749 C 0.05463 0.34747 0.04647 0.0
C750 C 0.03082 0.36093 0.06019 0.0
C751 C 0.02195 0.38888 0.05193 0.0
H752 H 0.52753 0.25196 0.91537 0.0
H753 H 0.61315 0.24438 0.954 0.0
H754 H 0.51545 0.20366 0.93259 0.0
H755 H 0.59971 0.198 0.97435 0.0
H756 H 0.58256 0.10211 0.98178 0.0
H757 H 0.5939 0.15037 0.96355 0.0
H758 H 0.50274 0.17382 0.97001 0.0
H759 H 0.49141 0.12443 0.98592 0.0
C760 C 0.54379 0.24023 0.92768 0.0
C761 C 0.5715 0.25238 0.9329 0.0
C762 C 0.53658 0.21254 0.93817 0.0
C763 C 0.55656 0.19647 0.95489 0.0
C764 C 0.58386 0.2091 0.96097 0.0
C765 C 0.59138 0.23633 0.94977 0.0
C766 C 0.56501 0.11766 0.97923 0.0
C767 C 0.53615 0.10963 0.98524 0.0
C768 C 0.57149 0.14554 0.96902 0.0
C769 C 0.54936 0.1665 0.96545 0.0
C770 C 0.52041 0.15836 0.97185 0.0
C771 C 0.51385 0.1301 0.98122 0.0
H772 H 0.92749 0.74867 0.49498 0.0
H773 H 0.94221 0.76898 0.40463 0.0
H774 H 0.94374 0.7975 0.50839 0.0
H775 H 0.95984 0.81704 0.41813 0.0
H776 H 0.9528 0.91108 0.44852 0.0
H777 H 0.93926 0.86154 0.43587 0.0
H778 H 0.98591 0.82941 0.5107 0.0
H779 H 0.99892 0.87928 0.52389 0.0
C780 C 0.93435 0.76345 0.47801 0.0
C781 C 0.93342 0.7549 0.44873 0.0
C782 C 0.94401 0.79132 0.48572 0.0
C783 C 0.95297 0.81124 0.46433 0.0
C784 C 0.95269 0.80241 0.43513 0.0
C785 C 0.94295 0.77465 0.42743 0.0
C786 C 0.9603 0.89351 0.46228 0.0
C787 C 0.97697 0.89922 0.48724 0.0
C788 C 0.95266 0.86502 0.4549 0.0
C789 C 0.9616 0.84146 0.47219 0.0
C790 C 0.97841 0.8471 0.49709 0.0
C791 C 0.98599 0.87568 0.50455 0.0
H792 H 0.38593 0.73119 0.56561 0.0
H793 H 0.47438 0.76167 0.57649 0.0
H794 H 0.40394 0.68433 0.54895 0.0
H795 H 0.49255 0.71459 0.55949 0.0
H796 H 0.51018 0.61476 0.5597 0.0
H797 H 0.49516 0.66362 0.57424 0.0
H798 H 0.4284 0.66272 0.50813 0.0
H799 H 0.44282 0.61379 0.49411 0.0
C800 C 0.40926 0.72799 0.56405 0.0
C801 C 0.42873 0.7502 0.57216 0.0
C802 C 0.41961 0.70112 0.55446 0.0
C803 C 0.4497 0.69577 0.55265 0.0
C804 C 0.46924 0.71793 0.56088 0.0
C805 C 0.45885 0.74488 0.57058 0.0
C806 C 0.49244 0.62509 0.54813 0.0
C807 C 0.47751 0.61023 0.52594 0.0
C808 C 0.48392 0.65315 0.55638 0.0
C809 C 0.46038 0.66695 0.54255 0.0
C810 C 0.44621 0.65247 0.51966 0.0
C811 C 0.4546 0.62444 0.51152 0.0
H812 H 0.89655 0.97764 0.75863 0.0
H813 H 0.98684 0.95794 0.77666 0.0
H814 H 0.90897 0.98805 0.70834 0.0
H815 H 0.9991 0.9679 0.72613 0.0
H816 H -0.00012 0.95131 0.6273 0.0
H817 H 0.98875 0.94448 0.6785 0.0
H818 H 0.93708 0.02302 0.67793 0.0
H819 H 0.94798 0.02985 0.62657 0.0
C820 C 0.91913 0.97597 0.75202 0.0
C821 C 0.94069 0.9669 0.77173 0.0
C822 C 0.92621 0.98186 0.72315 0.0
C823 C 0.95497 0.97865 0.71327 0.0
C824 C 0.97665 0.97013 0.73304 0.0
C825 C 0.96962 0.9644 0.76197 0.0
C826 C 0.98613 0.96715 0.63803 0.0
C827 C 0.97477 0.9911 0.62277 0.0
C828 C 0.97995 0.96334 0.66744 0.0
C829 C 0.96212 0.98326 0.68224 0.0
C830 C 0.95072 0.00719 0.66703 0.0
C831 C 0.95706 0.01114 0.63764 0.0
H832 H 0.55361 0.11439 0.2568 0.0
H833 H 0.56284 0.02409 0.28145 0.0
H834 H 0.54626 0.09979 0.20645 0.0
H835 H 0.55604 0.00949 0.23087 0.0
H836 H 0.50919 0.99599 0.14287 0.0
H837 H 0.51668 0.00961 0.19343 0.0
H838 H 0.57579 0.07782 0.16675 0.0
H839 H 0.56821 0.06442 0.11608 0.0
C840 C 0.55384 0.0914 0.25147 0.0
C841 C 0.55867 0.07036 0.27307 0.0
C842 C 0.54999 0.08308 0.2226 0.0
C843 C 0.55071 0.05352 0.21472 0.0
C844 C 0.55521 0.03243 0.23635 0.0
C845 C 0.55929 0.04078 0.26523 0.0
C846 C 0.52385 0.01386 0.14774 0.0
C847 C 0.53804 0.02918 0.12539 0.0
C848 C 0.52824 0.02153 0.17673 0.0
C849 C 0.54674 0.04481 0.18401 0.0
C850 C 0.56113 0.05999 0.16173 0.0
C851 C 0.55691 0.05219 0.13273 0.0
H852 H 0.44168 0.50195 0.23985 0.0
H853 H 0.44251 0.59351 0.26161 0.0
H854 H 0.45278 0.48989 0.29041 0.0
H855 H 0.45414 0.58152 0.31173 0.0
H856 H 0.43878 0.54848 0.40348 0.0
H857 H 0.4281 0.55814 0.3527 0.0
H858 H 0.49326 0.4955 0.32697 0.0
H859 H 0.50395 0.48554 0.37794 0.0
C860 C 0.44433 0.51945 0.2554 0.0
C861 C 0.44126 0.54866 0.24677 0.0
C862 C 0.45089 0.51257 0.28424 0.0
C863 C 0.45417 0.53476 0.30502 0.0
C864 C 0.4514 0.56394 0.29627 0.0
C865 C 0.44507 0.57081 0.26749 0.0
C866 C 0.4508 0.53663 0.38707 0.0
C867 C 0.47233 0.51631 0.39483 0.0
C868 C 0.44477 0.54231 0.35795 0.0
C869 C 0.45999 0.52773 0.33588 0.0
C870 C 0.48108 0.50695 0.34354 0.0
C871 C 0.48728 0.50137 0.37273 0.0
H872 H 0.04389 0.40036 0.76572 0.0
H873 H 0.04862 0.49022 0.73827 0.0
H874 H 0.0359 0.41611 0.81559 0.0
H875 H 0.041 0.50601 0.78845 0.0
H876 H 0.99703 0.51884 0.87884 0.0
H877 H 0.00252 0.50456 0.82805 0.0
H878 H 0.06725 0.44106 0.85272 0.0
H879 H 0.06184 0.45514 0.90336 0.0
C880 C 0.04282 0.42349 0.77029 0.0
C881 C 0.04683 0.44407 0.74811 0.0
C882 C 0.03857 0.43249 0.79888 0.0
C883 C 0.03807 0.46226 0.80589 0.0
C884 C 0.0412 0.48291 0.78361 0.0
C885 C 0.04572 0.47389 0.75499 0.0
C886 C 0.01249 0.50189 0.87342 0.0
C887 C 0.02894 0.48808 0.89519 0.0
C888 C 0.01569 0.49382 0.84434 0.0
C889 C 0.03515 0.47158 0.83652 0.0
C890 C 0.05179 0.45801 0.8582 0.0
C891 C 0.04881 0.46623 0.88719 0.0
H892 H 0.78173 0.99395 0.97045 0.0
H893 H 0.76257 0.90324 0.98703 0.0
H894 H 0.73093 0.0063 0.98045 0.0
H895 H 0.71233 0.91573 0.99807 0.0
H896 H 0.6192 0.94261 0.97689 0.0
H897 H 0.67051 0.93174 0.96974 0.0
H898 H 0.69406 0.00809 0.01939 0.0
H899 H 0.64254 0.01936 0.02622 0.0
C900 C 0.76677 0.97671 0.97648 0.0
C901 C 0.7762 0.94761 0.97788 0.0
C902 C 0.73776 0.98382 0.98246 0.0
C903 C 0.71759 0.96195 0.98983 0.0
C904 C 0.72725 0.93301 0.99204 0.0
C905 C 0.75617 0.92593 0.9861 0.0
C906 C 0.63524 0.95713 0.98631 0.0
C907 C 0.6267 0.98184 0.00216 0.0
C908 C 0.66469 0.95078 0.98237 0.0
C909 C 0.68634 0.96896 0.99416 0.0
C910 C 0.67787 0.99379 0.00987 0.0
C911 C 0.64835 0.00014 0.01387 0.0
H912 H 0.73985 0.00857 0.45721 0.0
H913 H 0.75447 0.10088 0.46904 0.0
H914 H 0.79024 0.999 0.47123 0.0
H915 H 0.80462 0.09124 0.48329 0.0
H916 H 0.88701 0.06018 0.53008 0.0
H917 H 0.83517 0.06824 0.52118 0.0
H918 H 0.83823 0.00839 0.44893 0.0
H919 H 0.88974 4e-05 0.45789 0.0
C920 C 0.75376 0.02679 0.46288 0.0
C921 C 0.74315 0.05548 0.4619 0.0
C922 C 0.7826 0.02132 0.47092 0.0
C923 C 0.80141 0.0444 0.47821 0.0
C924 C 0.79055 0.07298 0.47814 0.0
C925 C 0.76177 0.07847 0.47001 0.0
C926 C 0.87661 0.0487 0.51233 0.0
C927 C 0.89258 0.02952 0.49466 0.0
C928 C 0.84695 0.05339 0.5072 0.0
C929 C 0.83262 0.03886 0.48443 0.0
C930 C 0.84855 0.01957 0.46691 0.0
C931 C 0.87817 0.015 0.47192 0.0
H932 H 0.25703 0.61569 0.03732 0.0
H933 H 0.27702 0.52484 0.05152 0.0
H934 H 0.2069 0.60285 0.02586 0.0
H935 H 0.22636 0.51208 0.04104 0.0
H936 H 0.13857 0.49896 0.99397 0.0
H937 H 0.18989 0.5109 0.00158 0.0
H938 H 0.16493 0.58533 0.05321 0.0
H939 H 0.11383 0.5738 0.04532 0.0
C940 C 0.25082 0.59292 0.03768 0.0
C941 C 0.27106 0.57128 0.0453 0.0
C942 C 0.22196 0.58561 0.03149 0.0
C943 C 0.2126 0.55648 0.03279 0.0
C944 C 0.23296 0.5347 0.0397 0.0
C945 C 0.26189 0.54204 0.04596 0.0
C946 C 0.14403 0.51791 0.00689 0.0
C947 C 0.12204 0.53545 0.01898 0.0
C948 C 0.17344 0.52465 0.01137 0.0
C949 C 0.18146 0.54911 0.0279 0.0
C950 C 0.15947 0.56659 0.03998 0.0
C951 C 0.13014 0.55985 0.03559 0.0
H952 H 0.2332 0.45659 0.52536 0.0
H953 H 0.25917 0.46539 0.61501 0.0
H954 H 0.28357 0.46522 0.51017 0.0
H955 H 0.30925 0.47451 0.59983 0.0
H956 H 0.3992 0.45171 0.56328 0.0
H957 H 0.34844 0.44463 0.57706 0.0
H958 H 0.32157 0.50487 0.51035 0.0
H959 H 0.37241 0.51196 0.49634 0.0
C960 C 0.24963 0.46056 0.54177 0.0
C961 C 0.24226 0.46034 0.57135 0.0
C962 C 0.27838 0.46568 0.53308 0.0
C963 C 0.30033 0.47037 0.55384 0.0
C964 C 0.29284 0.47064 0.58338 0.0
C965 C 0.26411 0.46576 0.59204 0.0
C966 C 0.38252 0.4634 0.55145 0.0
C967 C 0.38991 0.48246 0.52874 0.0
C968 C 0.35345 0.45947 0.55949 0.0
C969 C 0.33109 0.47433 0.54488 0.0
C970 C 0.33836 0.49302 0.52188 0.0
C971 C 0.36749 0.49715 0.51397 0.0
H972 H 0.01261 0.77374 0.94337 0.0
H973 H 0.92037 0.75584 0.94951 0.0
H974 H 0.0231 0.72289 0.9557 0.0
H975 H 0.93083 0.70541 0.96221 0.0
H976 H 0.96039 0.61134 0.94798 0.0
H977 H 0.9516 0.66234 0.93643 0.0
H978 H 0.01752 0.68822 0.99816 0.0
H979 H 0.02653 0.63708 0.00978 0.0
C980 C 0.99464 0.75897 0.94744 0.0
C981 C 0.9657 0.76875 0.94556 0.0
C982 C 0.00062 0.72998 0.95468 0.0
C983 C 0.97776 0.71022 0.95981 0.0
C984 C 0.94887 0.72009 0.9581 0.0
C985 C 0.94291 0.74904 0.95113 0.0
C986 C 0.97308 0.62784 0.9591 0.0
C987 C 0.99411 0.6201 0.97988 0.0
C988 C 0.96792 0.65707 0.95257 0.0
C989 C 0.98381 0.67923 0.96648 0.0
C990 C 0.0051 0.67156 0.98698 0.0
C991 C 0.0101 0.64229 0.99373 0.0
H992 H 0.4225 0.76043 0.07175 0.0
H993 H 0.51412 0.73902 0.07348 0.0
H994 H 0.43451 0.81085 0.06028 0.0
H995 H 0.52618 0.78984 0.06244 0.0
H996 H 0.53081 0.87756 0.01142 0.0
H997 H 0.5205 0.82636 0.02173 0.0
H998 H 0.45796 0.8521 0.08679 0.0
H999 H 0.46805 0.90317 0.07653 0.0
C1000 C 0.44522 0.76645 0.06939 0.0
C1001 C 0.46738 0.74576 0.07342 0.0
C1002 C 0.45209 0.79539 0.06315 0.0
C1003 C 0.48127 0.80429 0.06066 0.0
C1004 C 0.50349 0.78353 0.06412 0.0
C1005 C 0.49661 0.75454 0.07062 0.0
C1006 C 0.5149 0.87231 0.02797 0.0
C1007 C 0.50017 0.89449 0.04308 0.0
C1008 C 0.50913 0.84299 0.03396 0.0
C1009 C 0.48833 0.83528 0.05494 0.0
C1010 C 0.47384 0.85742 0.07023 0.0
C1011 C 0.47976 0.88668 0.06445 0.0
H1012 H 0.11028 0.24623 0.55323 0.0
H1013 H 0.01992 0.27169 0.55903 0.0
H1014 H 0.09562 0.19616 0.54395 0.0
H1015 H 0.00508 0.22147 0.54915 0.0
H1016 H 0.99172 0.12297 0.56365 0.0
H1017 H 0.00476 0.17394 0.57131 0.0
H1018 H 0.07378 0.16587 0.50805 0.0
H1019 H 0.0614 0.11487 0.50111 0.0
C1020 C 0.08724 0.24118 0.55201 0.0
C1021 C 0.06624 0.2629 0.55669 0.0
C1022 C 0.07881 0.21246 0.54667 0.0
C1023 C 0.04915 0.20476 0.54569 0.0
C1024 C 0.0281 0.22657 0.55015 0.0
C1025 C 0.03658 0.25533 0.55569 0.0
C1026 C 0.00965 0.13211 0.55136 0.0
C1027 C 0.02566 0.11477 0.53195 0.0
C1028 C 0.01701 0.16139 0.55561 0.0
C1029 C 0.04042 0.174 0.5404 0.0
C1030 C 0.056 0.15675 0.52056 0.0
C1031 C 0.0488 0.12749 0.51649 0.0
H1032 H 0.60183 0.2598 0.47843 0.0
H1033 H 0.51201 0.23368 0.46749 0.0
H1034 H 0.58653 0.3102 0.48502 0.0
H1035 H 0.49667 0.28444 0.4739 0.0
H1036 H 0.48451 0.37624 0.51792 0.0
H1037 H 0.49726 0.32474 0.51308 0.0
H1038 H 0.56383 0.34722 0.45083 0.0
H1039 H 0.5512 0.39853 0.45546 0.0
C1040 C 0.57877 0.26478 0.47789 0.0
C1041 C 0.55809 0.24283 0.47253 0.0
C1042 C 0.57006 0.29366 0.48133 0.0
C1043 C 0.54046 0.30118 0.47972 0.0
C1044 C 0.51963 0.27915 0.4753 0.0
C1045 C 0.52839 0.25022 0.47152 0.0
C1046 C 0.50176 0.37018 0.50308 0.0
C1047 C 0.51692 0.39151 0.48716 0.0
C1048 C 0.50895 0.34071 0.50027 0.0
C1049 C 0.53167 0.33211 0.48178 0.0
C1050 C 0.54647 0.35334 0.46552 0.0
C1051 C 0.53909 0.3827 0.46806 0.0
loop_
_geom_bond_atom_site_label_1
_geom_bond_atom_site_label_2
_geom_bond_distance
_geom_bond_site_symmetry_2
_ccdc_geom_bond_type
C0 C1 1.391 . S
C0 C4 1.391 . S
C0 H42 0.948 . S
C1 C0 1.391 . S
C1 C2 1.391 . S
C2 C1 1.391 . S
C2 H58 0.947 . S
C2 C59 1.392 . S
C3 C4 1.391 . S
C3 C7 1.397 . S
C3 C59 1.419 . S
C4 C0 1.391 . S
C4 C3 1.391 . S
C4 C5 1.399 . S
C5 C4 1.399 . S
C5 C8 1.396 . S
C5 C17 1.453 . S
C5 C18 1.684 . S
H6 C30 0.948 . S
C7 C3 1.397 . S
C7 C8 1.394 . S
C7 C26 1.723 . S
C8 C5 1.396 . S
C8 C7 1.394 . S
C8 C38 1.723 . S
H9 C32 0.947 . S
H10 C33 0.948 . S
H11 C39 0.982 . S
H12 C40 0.979 . S
H13 C40 0.980 . S
H14 C40 0.983 . S
H15 C39 0.979 . S
H16 C39 0.977 . S
C17 C5 1.453 . S
C17 H46 0.982 . S
C17 H47 0.979 . S
C17 H48 0.977 . S
C18 C5 1.684 . S
C18 H43 0.979 . S
C18 H44 0.980 . S
C18 H45 0.983 . S
C19 C20 1.391 . S
C19 C24 1.391 . S
C19 H49 0.948 . S
C20 C19 1.391 . S
C20 C21 1.391 . S
C21 C20 1.391 . S
C21 C22 1.392 . S
C21 H50 0.947 . S
C22 C21 1.392 . S
C22 C23 1.419 . S
C22 H51 0.948 . S
C23 C22 1.419 . S
C23 C24 1.391 . S
C23 C27 1.397 . S
C24 C19 1.391 . S
C24 C23 1.391 . S
C24 C25 1.399 . S
C25 C24 1.399 . S
C25 C26 1.396 . S
C25 C28 1.453 . S
C25 C29 1.684 . S
C26 C7 1.723 . S
C26 C25 1.396 . S
C26 C27 1.394 . S
C27 C23 1.397 . S
C27 C26 1.394 . S
C27 C37 1.723 . S
C28 C25 1.453 . S
C28 H52 0.982 . S
C28 H53 0.979 . S
C28 H54 0.977 . S
C29 C25 1.684 . S
C29 H55 0.979 . S
C29 H56 0.980 . S
C29 H57 0.983 . S
C30 H6 0.948 . S
C30 C31 1.391 . S
C30 C35 1.391 . S
C31 C30 1.391 . S
C31 C32 1.391 . S
C32 H9 0.947 . S
C32 C31 1.391 . S
C32 C33 1.392 . S
C33 H10 0.948 . S
C33 C32 1.392 . S
C33 C34 1.419 . S
C34 C33 1.419 . S
C34 C35 1.391 . S
C34 C38 1.397 . S
C35 C30 1.391 . S
C35 C34 1.391 . S
C35 C36 1.399 . S
C36 C35 1.399 . S
C36 C37 1.396 . S
C36 C39 1.453 . S
C36 C40 1.684 . S
C37 C27 1.723 . S
C37 C36 1.396 . S
C37 C38 1.394 . S
C38 C8 1.723 . S
C38 C34 1.397 . S
C38 C37 1.394 . S
C39 H11 0.982 . S
C39 H15 0.979 . S
C39 H16 0.977 . S
C39 C36 1.453 . S
C40 H12 0.979 . S
C40 H13 0.980 . S
C40 H14 0.983 . S
C40 C36 1.684 . S
H41 C59 0.948 . S
H42 C0 0.948 . S
H43 C18 0.979 . S
H44 C18 0.980 . S
H45 C18 0.983 . S
H46 C17 0.982 . S
H47 C17 0.979 . S
H48 C17 0.977 . S
H49 C19 0.948 . S
H50 C21 0.947 . S
H51 C22 0.948 . S
H52 C28 0.982 . S
H53 C28 0.979 . S
H54 C28 0.977 . S
H55 C29 0.979 . S
H56 C29 0.980 . S
H57 C29 0.983 . S
H58 C2 0.947 . S
C59 C2 1.392 . S
C59 C3 1.419 . S
C59 H41 0.948 . S
C60 C61 1.391 . S
C60 C64 1.391 . S
C60 H102 0.948 . S
C61 C60 1.391 . S
C61 C62 1.391 . S
C62 C61 1.391 . S
C62 H118 0.947 . S
C62 C119 1.392 . S
C63 C64 1.391 . S
C63 C67 1.397 . S
C63 C119 1.419 . S
C64 C60 1.391 . S
C64 C63 1.391 . S
C64 C65 1.399 . S
C65 C64 1.399 . S
C65 C68 1.396 . S
C65 C77 1.453 . S
C65 C78 1.684 . S
H66 C90 0.948 . S
C67 C63 1.397 . S
C67 C68 1.394 . S
C67 C86 1.723 . S
C68 C65 1.396 . S
C68 C67 1.394 . S
C68 C98 1.723 . S
H69 C92 0.947 . S
H70 C93 0.948 . S
H71 C99 0.982 . S
H72 C100 0.979 . S
H73 C100 0.980 . S
H74 C100 0.983 . S
H75 C99 0.979 . S
H76 C99 0.977 . S
C77 C65 1.453 . S
C77 H106 0.982 . S
C77 H107 0.979 . S
C77 H108 0.977 . S
C78 C65 1.684 . S
C78 H103 0.979 . S
C78 H104 0.980 . S
C78 H105 0.983 . S
C79 C80 1.391 . S
C79 C84 1.391 . S
C79 H109 0.948 . S
C80 C79 1.391 . S
C80 C81 1.391 . S
C81 C80 1.391 . S
C81 C82 1.392 . S
C81 H110 0.947 . S
C82 C81 1.392 . S
C82 C83 1.419 . S
C82 H111 0.948 . S
C83 C82 1.419 . S
C83 C84 1.391 . S
C83 C87 1.397 . S
C84 C79 1.391 . S
C84 C83 1.391 . S
C84 C85 1.399 . S
C85 C84 1.399 . S
C85 C86 1.396 . S
C85 C88 1.453 . S
C85 C89 1.684 . S
C86 C67 1.723 . S
C86 C85 1.396 . S
C86 C87 1.394 . S
C87 C83 1.397 . S
C87 C86 1.394 . S
C87 C97 1.723 . S
C88 C85 1.453 . S
C88 H112 0.982 . S
C88 H113 0.979 . S
C88 H114 0.977 . S
C89 C85 1.684 . S
C89 H115 0.979 . S
C89 H116 0.980 . S
C89 H117 0.983 . S
C90 H66 0.948 . S
C90 C91 1.391 . S
C90 C95 1.391 . S
C91 C90 1.391 . S
C91 C92 1.391 . S
C92 H69 0.947 . S
C92 C91 1.391 . S
C92 C93 1.392 . S
C93 H70 0.948 . S
C93 C92 1.392 . S
C93 C94 1.419 . S
C94 C93 1.419 . S
C94 C95 1.391 . S
C94 C98 1.397 . S
C95 C90 1.391 . S
C95 C94 1.391 . S
C95 C96 1.399 . S
C96 C95 1.399 . S
C96 C97 1.396 . S
C96 C99 1.453 . S
C96 C100 1.684 . S
C97 C87 1.723 . S
C97 C96 1.396 . S
C97 C98 1.394 . S
C98 C68 1.723 . S
C98 C94 1.397 . S
C98 C97 1.394 . S
C99 H71 0.982 . S
C99 H75 0.979 . S
C99 H76 0.977 . S
C99 C96 1.453 . S
C100 H72 0.979 . S
C100 H73 0.980 . S
C100 H74 0.983 . S
C100 C96 1.684 . S
H101 C119 0.948 . S
H102 C60 0.948 . S
H103 C78 0.979 . S
H104 C78 0.980 . S
H105 C78 0.983 . S
H106 C77 0.982 . S
H107 C77 0.979 . S
H108 C77 0.977 . S
H109 C79 0.948 . S
H110 C81 0.947 . S
H111 C82 0.948 . S
H112 C88 0.982 . S
H113 C88 0.979 . S
H114 C88 0.977 . S
H115 C89 0.979 . S
H116 C89 0.980 . S
H117 C89 0.983 . S
H118 C62 0.947 . S
C119 C62 1.392 . S
C119 C63 1.419 . S
C119 H101 0.948 . S
C120 C121 1.391 . S
C120 C124 1.391 . S
C120 H162 0.948 . S
C121 C120 1.391 . S
C121 C122 1.391 . S
C122 C121 1.391 . S
C122 H178 0.947 . S
C122 C179 1.392 . S
C123 C124 1.391 . S
C123 C127 1.397 . S
C123 C179 1.419 . S
C124 C120 1.391 . S
C124 C123 1.391 . S
C124 C125 1.399 . S
C125 C124 1.399 . S
C125 C128 1.396 . S
C125 C137 1.453 . S
C125 C138 1.684 . S
H126 C150 0.948 . S
C127 C123 1.397 . S
C127 C128 1.394 . S
C127 C146 1.723 . S
C128 C125 1.396 . S
C128 C127 1.394 . S
C128 C158 1.723 . S
H129 C152 0.947 . S
H130 C153 0.948 . S
H131 C159 0.982 . S
H132 C160 0.979 . S
H133 C160 0.980 . S
H134 C160 0.983 . S
H135 C159 0.979 . S
H136 C159 0.977 . S
C137 C125 1.453 . S
C137 H166 0.982 . S
C137 H167 0.979 . S
C137 H168 0.977 . S
C138 C125 1.684 . S
C138 H163 0.979 . S
C138 H164 0.980 . S
C138 H165 0.983 . S
C139 C140 1.391 . S
C139 C144 1.391 . S
C139 H169 0.948 . S
C140 C139 1.391 . S
C140 C141 1.391 . S
C141 C140 1.391 . S
C141 C142 1.392 . S
C141 H170 0.947 . S
C142 C141 1.392 . S
C142 C143 1.419 . S
C142 H171 0.948 . S
C143 C142 1.419 . S
C143 C144 1.391 . S
C143 C147 1.397 . S
C144 C139 1.391 . S
C144 C143 1.391 . S
C144 C145 1.399 . S
C145 C144 1.399 . S
C145 C146 1.396 . S
C145 C148 1.453 . S
C145 C149 1.684 . S
C146 C127 1.723 . S
C146 C145 1.396 . S
C146 C147 1.394 . S
C147 C143 1.397 . S
C147 C146 1.394 . S
C147 C157 1.723 . S
C148 C145 1.453 . S
C148 H172 0.982 . S
C148 H173 0.979 . S
C148 H174 0.977 . S
C149 C145 1.684 . S
C149 H175 0.979 . S
C149 H176 0.980 . S
C149 H177 0.983 . S
C150 H126 0.948 . S
C150 C151 1.391 . S
C150 C155 1.391 . S
C151 C150 1.391 . S
C151 C152 1.391 . S
C152 H129 0.947 . S
C152 C151 1.391 . S
C152 C153 1.392 . S
C153 H130 0.948 . S
C153 C152 1.392 . S
C153 C154 1.419 . S
C154 C153 1.419 . S
C154 C155 1.391 . S
C154 C158 1.397 . S
C155 C150 1.391 . S
C155 C154 1.391 . S
C155 C156 1.399 . S
C156 C155 1.399 . S
C156 C157 1.396 . S
C156 C159 1.453 . S
C156 C160 1.684 . S
C157 C147 1.723 . S
C157 C156 1.396 . S
C157 C158 1.394 . S
C158 C128 1.723 . S
C158 C154 1.397 . S
C158 C157 1.394 . S
C159 H131 0.982 . S
C159 H135 0.979 . S
C159 H136 0.977 . S
C159 C156 1.453 . S
C160 H132 0.979 . S
C160 H133 0.980 . S
C160 H134 0.983 . S
C160 C156 1.684 . S
H161 C179 0.948 . S
H162 C120 0.948 . S
H163 C138 0.979 . S
H164 C138 0.980 . S
H165 C138 0.983 . S
H166 C137 0.982 . S
H167 C137 0.979 . S
H168 C137 0.977 . S
H169 C139 0.948 . S
H170 C141 0.947 . S
H171 C142 0.948 . S
H172 C148 0.982 . S
H173 C148 0.979 . S
H174 C148 0.977 . S
H175 C149 0.979 . S
H176 C149 0.980 . S
H177 C149 0.983 . S
H178 C122 0.947 . S
C179 C122 1.392 . S
C179 C123 1.419 . S
C179 H161 0.948 . S
C180 C181 1.391 . S
C180 C184 1.391 . S
C180 H222 0.948 . S
C181 C180 1.391 . S
C181 C182 1.391 . S
C182 C181 1.391 . S
C182 H238 0.947 . S
C182 C239 1.392 . S
C183 C184 1.391 . S
C183 C187 1.397 . S
C183 C239 1.419 . S
C184 C180 1.391 . S
C184 C183 1.391 . S
C184 C185 1.399 . S
C185 C184 1.399 . S
C185 C188 1.396 . S
C185 C197 1.453 . S
C185 C198 1.684 . S
H186 C210 0.948 . S
C187 C183 1.397 . S
C187 C188 1.394 . S
C187 C206 1.723 . S
C188 C185 1.396 . S
C188 C187 1.394 . S
C188 C218 1.723 . S
H189 C212 0.947 . S
H190 C213 0.948 . S
H191 C219 0.982 . S
H192 C220 0.979 . S
H193 C220 0.980 . S
H194 C220 0.983 . S
H195 C219 0.979 . S
H196 C219 0.977 . S
C197 C185 1.453 . S
C197 H226 0.982 . S
C197 H227 0.979 . S
C197 H228 0.977 . S
C198 C185 1.684 . S
C198 H223 0.979 . S
C198 H224 0.980 . S
C198 H225 0.983 . S
C199 C200 1.391 . S
C199 C204 1.391 . S
C199 H229 0.948 . S
C200 C199 1.391 . S
C200 C201 1.391 . S
C201 C200 1.391 . S
C201 C202 1.392 . S
C201 H230 0.947 . S
C202 C201 1.392 . S
C202 C203 1.419 . S
C202 H231 0.948 . S
C203 C202 1.419 . S
C203 C204 1.391 . S
C203 C207 1.397 . S
C204 C199 1.391 . S
C204 C203 1.391 . S
C204 C205 1.399 . S
C205 C204 1.399 . S
C205 C206 1.396 . S
C205 C208 1.453 . S
C205 C209 1.684 . S
C206 C187 1.723 . S
C206 C205 1.396 . S
C206 C207 1.394 . S
C207 C203 1.397 . S
C207 C206 1.394 . S
C207 C217 1.723 . S
C208 C205 1.453 . S
C208 H232 0.982 . S
C208 H233 0.979 . S
C208 H234 0.977 . S
C209 C205 1.684 . S
C209 H235 0.979 . S
C209 H236 0.980 . S
C209 H237 0.983 . S
C210 H186 0.948 . S
C210 C211 1.391 . S
C210 C215 1.391 . S
C211 C210 1.391 . S
C211 C212 1.391 . S
C212 H189 0.947 . S
C212 C211 1.391 . S
C212 C213 1.392 . S
C213 H190 0.948 . S
C213 C212 1.392 . S
C213 C214 1.419 . S
C214 C213 1.419 . S
C214 C215 1.391 . S
C214 C218 1.397 . S
C215 C210 1.391 . S
C215 C214 1.391 . S
C215 C216 1.399 . S
C216 C215 1.399 . S
C216 C217 1.396 . S
C216 C219 1.453 . S
C216 C220 1.684 . S
C217 C207 1.723 . S
C217 C216 1.396 . S
C217 C218 1.394 . S
C218 C188 1.723 . S
C218 C214 1.397 . S
C218 C217 1.394 . S
C219 H191 0.982 . S
C219 H195 0.979 . S
C219 H196 0.977 . S
C219 C216 1.453 . S
C220 H192 0.979 . S
C220 H193 0.980 . S
C220 H194 0.983 . S
C220 C216 1.684 . S
H221 C239 0.948 . S
H222 C180 0.948 . S
H223 C198 0.979 . S
H224 C198 0.980 . S
H225 C198 0.983 . S
H226 C197 0.982 . S
H227 C197 0.979 . S
H228 C197 0.977 . S
H229 C199 0.948 . S
H230 C201 0.947 . S
H231 C202 0.948 . S
H232 C208 0.982 . S
H233 C208 0.979 . S
H234 C208 0.977 . S
H235 C209 0.979 . S
H236 C209 0.980 . S
H237 C209 0.983 . S
H238 C182 0.947 . S
C239 C182 1.392 . S
C239 C183 1.419 . S
C239 H221 0.948 . S
C240 C241 1.391 . S
C240 C244 1.391 . S
C240 H282 0.948 . S
C241 C240 1.391 . S
C241 C242 1.391 . S
C242 C241 1.391 . S
C242 H298 0.947 . S
C242 C299 1.392 . S
C243 C244 1.391 . S
C243 C247 1.397 . S
C243 C299 1.419 . S
C244 C240 1.391 . S
C244 C243 1.391 . S
C244 C245 1.399 . S
C245 C244 1.399 . S
C245 C248 1.396 . S
C245 C257 1.453 . S
C245 C258 1.684 . S
H246 C270 0.948 1_545 S
C247 C243 1.397 . S
C247 C248 1.394 . S
C247 C266 1.723 . S
C248 C245 1.396 . S
C248 C247 1.394 . S
C248 C278 1.723 . S
H249 C272 0.947 . S
H250 C273 0.948 . S
H251 C279 0.982 . S
H252 C280 0.979 . S
H253 C280 0.980 . S
H254 C280 0.983 . S
H255 C279 0.979 . S
H256 C279 0.977 . S
C257 C245 1.453 . S
C257 H286 0.982 . S
C257 H287 0.979 . S
C257 H288 0.977 . S
C258 C245 1.684 . S
C258 H283 0.979 1_556 S
C258 H284 0.981 . S
C258 H285 0.983 1_556 S
C259 C260 1.391 . S
C259 C264 1.391 . S
C259 H289 0.948 . S
C260 C259 1.391 . S
C260 C261 1.391 . S
C261 C260 1.391 . S
C261 C262 1.392 . S
C261 H290 0.947 1_565 S
C262 C261 1.392 . S
C262 C263 1.419 . S
C262 H291 0.948 . S
C263 C262 1.419 . S
C263 C264 1.391 . S
C263 C267 1.397 . S
C264 C259 1.391 . S
C264 C263 1.391 . S
C264 C265 1.399 . S
C265 C264 1.399 . S
C265 C266 1.396 . S
C265 C268 1.453 . S
C265 C269 1.684 . S
C266 C247 1.723 . S
C266 C265 1.396 . S
C266 C267 1.394 . S
C267 C263 1.397 . S
C267 C266 1.394 . S
C267 C277 1.723 . S
C268 C265 1.453 . S
C268 H292 0.982 . S
C268 H293 0.979 . S
C268 H294 0.977 . S
C269 C265 1.684 . S
C269 H295 0.979 . S
C269 H296 0.980 . S
C269 H297 0.983 . S
C270 H246 0.948 1_565 S
C270 C271 1.391 . S
C270 C275 1.391 . S
C271 C270 1.391 . S
C271 C272 1.391 . S
C272 H249 0.947 . S
C272 C271 1.391 . S
C272 C273 1.392 . S
C273 H250 0.948 . S
C273 C272 1.392 . S
C273 C274 1.419 . S
C274 C273 1.419 . S
C274 C275 1.391 . S
C274 C278 1.397 . S
C275 C270 1.391 . S
C275 C274 1.391 . S
C275 C276 1.399 . S
C276 C275 1.399 . S
C276 C277 1.396 . S
C276 C279 1.453 . S
C276 C280 1.684 1_565 S
C277 C267 1.723 . S
C277 C276 1.396 . S
C277 C278 1.394 . S
C278 C248 1.723 . S
C278 C274 1.397 . S
C278 C277 1.394 . S
C279 H251 0.982 . S
C279 H255 0.979 . S
C279 H256 0.977 . S
C279 C276 1.453 . S
C280 H252 0.979 . S
C280 H253 0.980 . S
C280 H254 0.983 . S
C280 C276 1.684 1_545 S
H281 C299 0.948 . S
H282 C240 0.948 . S
H283 C258 0.979 1_554 S
H284 C258 0.981 . S
H285 C258 0.983 1_554 S
H286 C257 0.982 . S
H287 C257 0.979 . S
H288 C257 0.977 . S
H289 C259 0.948 . S
H290 C261 0.947 1_545 S
H291 C262 0.948 . S
H292 C268 0.982 . S
H293 C268 0.979 . S
H294 C268 0.977 . S
H295 C269 0.979 . S
H296 C269 0.980 . S
H297 C269 0.983 . S
H298 C242 0.947 . S
C299 C242 1.392 . S
C299 C243 1.419 . S
C299 H281 0.948 . S
C300 C301 1.391 . S
C300 C304 1.391 . S
C300 H342 0.948 . S
C301 C300 1.391 . S
C301 C302 1.391 . S
C302 C301 1.391 . S
C302 H358 0.947 . S
C302 C359 1.392 . S
C303 C304 1.391 . S
C303 C307 1.397 . S
C303 C359 1.419 . S
C304 C300 1.391 . S
C304 C303 1.391 . S
C304 C305 1.399 . S
C305 C304 1.399 . S
C305 C308 1.396 . S
C305 C317 1.453 . S
C305 C318 1.684 . S
H306 C330 0.948 . S
C307 C303 1.397 . S
C307 C308 1.394 . S
C307 C326 1.723 . S
C308 C305 1.396 . S
C308 C307 1.394 . S
C308 C338 1.723 . S
H309 C332 0.947 . S
H310 C333 0.948 . S
H311 C339 0.982 . S
H312 C340 0.979 . S
H313 C340 0.980 . S
H314 C340 0.983 . S
H315 C339 0.979 . S
H316 C339 0.977 . S
C317 C305 1.453 . S
C317 H346 0.982 . S
C317 H347 0.979 . S
C317 H348 0.977 . S
C318 C305 1.684 . S
C318 H343 0.979 . S
C318 H344 0.980 . S
C318 H345 0.983 . S
C319 C320 1.391 . S
C319 C324 1.391 . S
C319 H349 0.948 . S
C320 C319 1.391 . S
C320 C321 1.391 . S
C321 C320 1.391 . S
C321 C322 1.392 . S
C321 H350 0.947 . S
C322 C321 1.392 . S
C322 C323 1.419 . S
C322 H351 0.948 . S
C323 C322 1.419 . S
C323 C324 1.391 . S
C323 C327 1.397 . S
C324 C319 1.391 . S
C324 C323 1.391 . S
C324 C325 1.399 . S
C325 C324 1.399 . S
C325 C326 1.396 . S
C325 C328 1.453 . S
C325 C329 1.684 . S
C326 C307 1.723 . S
C326 C325 1.396 . S
C326 C327 1.394 . S
C327 C323 1.397 . S
C327 C326 1.394 . S
C327 C337 1.723 . S
C328 C325 1.453 . S
C328 H352 0.982 . S
C328 H353 0.979 1_545 S
C328 H354 0.977 . S
C329 C325 1.684 . S
C329 H355 0.979 . S
C329 H356 0.980 . S
C329 H357 0.983 . S
C330 H306 0.948 . S
C330 C331 1.391 . S
C330 C335 1.391 . S
C331 C330 1.391 . S
C331 C332 1.391 . S
C332 H309 0.947 . S
C332 C331 1.391 . S
C332 C333 1.392 . S
C333 H310 0.948 . S
C333 C332 1.392 . S
C333 C334 1.419 . S
C334 C333 1.419 . S
C334 C335 1.391 . S
C334 C338 1.397 . S
C335 C330 1.391 . S
C335 C334 1.391 . S
C335 C336 1.399 . S
C336 C335 1.399 . S
C336 C337 1.396 . S
C336 C339 1.453 . S
C336 C340 1.684 . S
C337 C327 1.723 . S
C337 C336 1.396 . S
C337 C338 1.394 . S
C338 C308 1.723 . S
C338 C334 1.397 . S
C338 C337 1.394 . S
C339 H311 0.982 . S
C339 H315 0.979 . S
C339 H316 0.977 . S
C339 C336 1.453 . S
C340 H312 0.979 . S
C340 H313 0.980 . S
C340 H314 0.983 . S
C340 C336 1.684 . S
H341 C359 0.948 . S
H342 C300 0.948 . S
H343 C318 0.979 . S
H344 C318 0.980 . S
H345 C318 0.983 . S
H346 C317 0.982 . S
H347 C317 0.979 . S
H348 C317 0.977 . S
H349 C319 0.948 . S
H350 C321 0.947 . S
H351 C322 0.948 . S
H352 C328 0.982 . S
H353 C328 0.979 1_565 S
H354 C328 0.977 . S
H355 C329 0.979 . S
H356 C329 0.980 . S
H357 C329 0.983 . S
H358 C302 0.947 . S
C359 C302 1.392 . S
C359 C303 1.419 . S
C359 H341 0.948 . S
C360 C361 1.391 . S
C360 C364 1.391 . S
C360 H402 0.948 . S
C361 C360 1.391 . S
C361 C362 1.391 . S
C362 C361 1.391 . S
C362 H418 0.947 . S
C362 C419 1.392 . S
C363 C364 1.391 . S
C363 C367 1.397 . S
C363 C419 1.419 . S
C364 C360 1.391 . S
C364 C363 1.391 . S
C364 C365 1.399 . S
C365 C364 1.399 . S
C365 C368 1.396 . S
C365 C377 1.453 . S
C365 C378 1.684 . S
H366 C390 0.948 . S
C367 C363 1.397 . S
C367 C368 1.394 . S
C367 C386 1.723 . S
C368 C365 1.396 . S
C368 C367 1.394 . S
C368 C398 1.723 . S
H369 C392 0.947 . S
H370 C393 0.948 . S
H371 C399 0.982 . S
H372 C400 0.979 . S
H373 C400 0.980 . S
H374 C400 0.983 . S
H375 C399 0.979 . S
H376 C399 0.977 . S
C377 C365 1.453 . S
C377 H406 0.982 . S
C377 H407 0.979 . S
C377 H408 0.977 . S
C378 C365 1.684 . S
C378 H403 0.979 . S
C378 H404 0.980 . S
C378 H405 0.983 . S
C379 C380 1.391 . S
C379 C384 1.391 . S
C379 H409 0.948 . S
C380 C379 1.391 . S
C380 C381 1.391 . S
C381 C380 1.391 . S
C381 C382 1.392 . S
C381 H410 0.947 . S
C382 C381 1.392 . S
C382 C383 1.419 . S
C382 H411 0.948 . S
C383 C382 1.419 . S
C383 C384 1.391 . S
C383 C387 1.397 . S
C384 C379 1.391 . S
C384 C383 1.391 . S
C384 C385 1.399 . S
C385 C384 1.399 . S
C385 C386 1.396 . S
C385 C388 1.453 . S
C385 C389 1.684 . S
C386 C367 1.723 . S
C386 C385 1.396 . S
C386 C387 1.394 . S
C387 C383 1.397 . S
C387 C386 1.394 . S
C387 C397 1.723 . S
C388 C385 1.453 . S
C388 H412 0.982 . S
C388 H413 0.979 . S
C388 H414 0.977 . S
C389 C385 1.684 . S
C389 H415 0.979 . S
C389 H416 0.980 . S
C389 H417 0.983 . S
C390 H366 0.948 . S
C390 C391 1.391 . S
C390 C395 1.391 . S
C391 C390 1.391 . S
C391 C392 1.391 . S
C392 H369 0.947 . S
C392 C391 1.391 . S
C392 C393 1.392 . S
C393 H370 0.948 . S
C393 C392 1.392 . S
C393 C394 1.419 . S
C394 C393 1.419 . S
C394 C395 1.391 . S
C394 C398 1.397 . S
C395 C390 1.391 . S
C395 C394 1.391 . S
C395 C396 1.399 . S
C396 C395 1.399 . S
C396 C397 1.396 . S
C396 C399 1.453 . S
C396 C400 1.684 . S
C397 C387 1.723 . S
C397 C396 1.396 . S
C397 C398 1.394 . S
C398 C368 1.723 . S
C398 C394 1.397 . S
C398 C397 1.394 . S
C399 H371 0.982 . S
C399 H375 0.979 . S
C399 H376 0.977 . S
C399 C396 1.453 . S
C400 H372 0.979 . S
C400 H373 0.980 . S
C400 H374 0.983 . S
C400 C396 1.684 . S
H401 C419 0.948 . S
H402 C360 0.948 . S
H403 C378 0.979 . S
H404 C378 0.980 . S
H405 C378 0.983 . S
H406 C377 0.982 . S
H407 C377 0.979 . S
H408 C377 0.977 . S
H409 C379 0.948 . S
H410 C381 0.947 . S
H411 C382 0.948 . S
H412 C388 0.982 . S
H413 C388 0.979 . S
H414 C388 0.977 . S
H415 C389 0.979 . S
H416 C389 0.980 . S
H417 C389 0.983 . S
H418 C362 0.947 . S
C419 C362 1.392 . S
C419 C363 1.419 . S
C419 H401 0.948 . S
C420 C421 1.391 . S
C420 C424 1.391 . S
C420 H462 0.948 . S
C421 C420 1.391 . S
C421 C422 1.391 . S
C422 C421 1.391 . S
C422 H478 0.947 . S
C422 C479 1.392 . S
C423 C424 1.391 . S
C423 C427 1.397 . S
C423 C479 1.419 . S
C424 C420 1.391 . S
C424 C423 1.391 . S
C424 C425 1.399 . S
C425 C424 1.399 . S
C425 C428 1.396 . S
C425 C437 1.453 . S
C425 C438 1.684 . S
H426 C450 0.948 . S
C427 C423 1.397 . S
C427 C428 1.394 . S
C427 C446 1.723 . S
C428 C425 1.396 . S
C428 C427 1.394 . S
C428 C458 1.723 . S
H429 C452 0.947 . S
H430 C453 0.948 . S
H431 C459 0.982 . S
H432 C460 0.979 . S
H433 C460 0.980 . S
H434 C460 0.983 . S
H435 C459 0.979 . S
H436 C459 0.977 . S
C437 C425 1.453 . S
C437 H466 0.982 . S
C437 H467 0.979 . S
C437 H468 0.977 . S
C438 C425 1.684 . S
C438 H463 0.979 . S
C438 H464 0.980 . S
C438 H465 0.983 . S
C439 C440 1.391 . S
C439 C444 1.391 . S
C439 H469 0.948 . S
C440 C439 1.391 . S
C440 C441 1.391 . S
C441 C440 1.391 . S
C441 C442 1.392 . S
C441 H470 0.947 . S
C442 C441 1.392 . S
C442 C443 1.419 . S
C442 H471 0.948 . S
C443 C442 1.419 . S
C443 C444 1.391 . S
C443 C447 1.397 . S
C444 C439 1.391 . S
C444 C443 1.391 . S
C444 C445 1.399 . S
C445 C444 1.399 . S
C445 C446 1.396 . S
C445 C448 1.453 . S
C445 C449 1.684 . S
C446 C427 1.723 . S
C446 C445 1.396 . S
C446 C447 1.394 . S
C447 C443 1.397 . S
C447 C446 1.394 . S
C447 C457 1.723 . S
C448 C445 1.453 . S
C448 H472 0.982 . S
C448 H473 0.979 . S
C448 H474 0.977 . S
C449 C445 1.684 . S
C449 H475 0.979 . S
C449 H476 0.980 . S
C449 H477 0.983 . S
C450 H426 0.948 . S
C450 C451 1.391 . S
C450 C455 1.391 . S
C451 C450 1.391 . S
C451 C452 1.391 . S
C452 H429 0.947 . S
C452 C451 1.391 . S
C452 C453 1.392 . S
C453 H430 0.948 . S
C453 C452 1.392 . S
C453 C454 1.419 . S
C454 C453 1.419 . S
C454 C455 1.391 . S
C454 C458 1.397 . S
C455 C450 1.391 . S
C455 C454 1.391 . S
C455 C456 1.399 . S
C456 C455 1.399 . S
C456 C457 1.396 . S
C456 C459 1.453 . S
C456 C460 1.684 . S
C457 C447 1.723 . S
C457 C456 1.396 . S
C457 C458 1.394 . S
C458 C428 1.723 . S
C458 C454 1.397 . S
C458 C457 1.394 . S
C459 H431 0.982 . S
C459 H435 0.979 . S
C459 H436 0.977 . S
C459 C456 1.453 . S
C460 H432 0.979 . S
C460 H433 0.980 . S
C460 H434 0.983 . S
C460 C456 1.684 . S
H461 C479 0.948 . S
H462 C420 0.948 . S
H463 C438 0.979 . S
H464 C438 0.980 . S
H465 C438 0.983 . S
H466 C437 0.982 . S
H467 C437 0.979 . S
H468 C437 0.977 . S
H469 C439 0.948 . S
H470 C441 0.947 . S
H471 C442 0.948 . S
H472 C448 0.982 . S
H473 C448 0.979 . S
H474 C448 0.977 . S
H475 C449 0.979 . S
H476 C449 0.980 . S
H477 C449 0.983 . S
H478 C422 0.947 . S
C479 C422 1.392 . S
C479 C423 1.419 . S
C479 H461 0.948 . S
O480 Zn481 1.953 . S
O480 C496 1.225 1_655 S
Zn481 O480 1.953 . S
Zn481 O482 1.949 1_655 S
Zn481 O488 1.919 . S
Zn481 O493 1.924 . S
O482 Zn481 1.949 1_455 S
O482 Zn483 1.923 1_445 S
O482 Zn484 1.950 . S
O482 Zn485 1.945 1_545 S
Zn483 O482 1.923 1_665 S
Zn483 O486 1.933 . S
Zn483 O489 1.941 1_565 S
Zn483 O490 1.965 1_665 S
Zn484 O482 1.950 . S
Zn484 O491 1.938 . S
Zn484 O492 1.906 1_545 S
Zn484 O502 1.953 . S
Zn485 O482 1.945 1_565 S
Zn485 O487 1.932 1_455 S
Zn485 O494 1.977 . S
Zn485 O495 1.910 1_455 S
O486 Zn483 1.933 . S
O486 C497 1.226 . S
O487 Zn485 1.932 1_655 S
O487 C497 1.307 . S
O488 Zn481 1.919 . S
O488 C499 1.253 . S
O489 Zn483 1.941 1_545 S
O489 C499 1.283 . S
O490 Zn483 1.965 1_445 S
O490 C498 1.303 . S
O491 Zn484 1.938 . S
O491 C498 1.247 . S
O492 Zn484 1.906 1_565 S
O492 C500 1.304 . S
O493 Zn481 1.924 . S
O493 C501 1.311 1_545 S
O494 Zn485 1.977 . S
O494 C500 1.272 . S
O495 Zn485 1.910 1_655 S
O495 C501 1.231 . S
C496 O480 1.225 1_455 S
C496 O502 1.298 . S
C497 O486 1.226 . S
C497 O487 1.307 . S
C498 O490 1.303 . S
C498 O491 1.247 . S
C499 O488 1.253 . S
C499 O489 1.283 . S
C500 O492 1.304 . S
C500 O494 1.272 . S
C501 O493 1.311 1_565 S
C501 O495 1.231 . S
O502 Zn484 1.953 . S
O502 C496 1.298 . S
O503 Zn504 1.953 . S
O503 C519 1.225 . S
Zn504 O503 1.953 . S
Zn504 O505 1.949 1_556 S
Zn504 O511 1.919 . S
Zn504 O516 1.924 1_556 S
O505 Zn504 1.949 1_554 S
O505 Zn506 1.923 1_545 S
O505 Zn507 1.950 . S
O505 Zn508 1.945 1_545 S
Zn506 O505 1.923 1_565 S
Zn506 O509 1.933 . S
Zn506 O512 1.941 1_554 S
Zn506 O513 1.965 1_554 S
Zn507 O505 1.950 . S
Zn507 O514 1.938 . S
Zn507 O515 1.906 . S
Zn507 O525 1.953 . S
Zn508 O505 1.945 1_565 S
Zn508 O510 1.932 . S
Zn508 O517 1.977 1_565 S
Zn508 O518 1.910 1_565 S
O509 Zn506 1.933 . S
O509 C520 1.226 . S
O510 Zn508 1.932 . S
O510 C520 1.307 . S
O511 Zn504 1.919 . S
O511 C522 1.253 1_545 S
O512 Zn506 1.941 1_556 S
O512 C522 1.283 . S
O513 Zn506 1.965 1_556 S
O513 C521 1.305 . S
O514 Zn507 1.938 . S
O514 C521 1.229 1_544 S
O515 Zn507 1.906 . S
O515 C523 1.304 . S
O516 Zn504 1.924 1_554 S
O516 C524 1.311 . S
O517 Zn508 1.977 1_545 S
O517 C523 1.272 . S
O518 Zn508 1.910 1_545 S
O518 C524 1.231 . S
C519 O503 1.225 . S
C519 O525 1.298 1_556 S
C520 O509 1.226 . S
C520 O510 1.307 . S
C521 O513 1.305 . S
C521 O514 1.229 1_566 S
C522 O511 1.253 1_565 S
C522 O512 1.283 . S
C523 O515 1.304 . S
C523 O517 1.272 . S
C524 O516 1.311 . S
C524 O518 1.231 . S
O525 Zn507 1.953 . S
O525 C519 1.298 1_554 S
O526 Zn527 1.953 . S
O526 C542 1.225 . S
Zn527 O526 1.953 . S
Zn527 O528 1.949 . S
Zn527 O534 1.919 . S
Zn527 O539 1.924 . S
O528 Zn527 1.949 . S
O528 Zn529 1.923 . S
O528 Zn530 1.950 . S
O528 Zn531 1.945 . S
Zn529 O528 1.923 . S
Zn529 O532 1.933 . S
Zn529 O535 1.941 . S
Zn529 O536 1.965 . S
Zn530 O528 1.950 . S
Zn530 O537 1.938 . S
Zn530 O538 1.906 . S
Zn530 O548 1.953 . S
Zn531 O528 1.945 . S
Zn531 O533 1.932 . S
Zn531 O540 1.977 . S
Zn531 O541 1.910 . S
O532 Zn529 1.933 . S
O532 C543 1.226 . S
O533 Zn531 1.932 . S
O533 C543 1.307 . S
O534 Zn527 1.919 . S
O534 C545 1.253 . S
O535 Zn529 1.941 . S
O535 C545 1.283 . S
O536 Zn529 1.965 . S
O536 C544 1.303 . S
O537 Zn530 1.938 . S
O537 C544 1.247 . S
O538 Zn530 1.906 . S
O538 C546 1.304 . S
O539 Zn527 1.924 . S
O539 C547 1.311 . S
O540 Zn531 1.977 . S
O540 C546 1.272 . S
O541 Zn531 1.910 . S
O541 C547 1.231 . S
C542 O526 1.225 . S
C542 O548 1.298 . S
C543 O532 1.226 . S
C543 O533 1.307 . S
C544 O536 1.303 . S
C544 O537 1.247 . S
C545 O534 1.253 . S
C545 O535 1.283 . S
C546 O538 1.304 . S
C546 O540 1.272 . S
C547 O539 1.311 . S
C547 O541 1.231 . S
O548 Zn530 1.953 . S
O548 C542 1.298 . S
O549 Zn550 1.953 . S
O549 C565 1.225 . S
Zn550 O549 1.953 . S
Zn550 O551 1.949 1_655 S
Zn550 O557 1.919 . S
Zn550 O562 1.924 . S
O551 Zn550 1.949 1_455 S
O551 Zn552 1.923 1_454 S
O551 Zn553 1.950 . S
O551 Zn554 1.945 1_554 S
Zn552 O551 1.923 1_656 S
Zn552 O555 1.933 1_655 S
Zn552 O558 1.941 . S
Zn552 O559 1.965 . S
Zn553 O551 1.950 . S
Zn553 O560 1.938 . S
Zn553 O561 1.906 . S
Zn553 O571 1.953 . S
Zn554 O551 1.945 1_556 S
Zn554 O556 1.932 . S
Zn554 O563 1.977 1_556 S
Zn554 O564 1.910 1_556 S
O555 Zn552 1.933 1_455 S
O555 C566 1.226 . S
O556 Zn554 1.932 . S
O556 C566 1.307 . S
O557 Zn550 1.919 . S
O557 C568 1.253 1_554 S
O558 Zn552 1.941 . S
O558 C568 1.283 . S
O559 Zn552 1.965 . S
O559 C567 1.303 . S
O560 Zn553 1.938 . S
O560 C567 1.247 1_454 S
O561 Zn553 1.906 . S
O561 C569 1.304 . S
O562 Zn550 1.924 . S
O562 C570 1.311 1_655 S
O563 Zn554 1.977 1_554 S
O563 C569 1.272 . S
O564 Zn554 1.910 1_554 S
O564 C570 1.231 . S
C565 O549 1.225 . S
C565 O571 1.298 1_655 S
C566 O555 1.226 . S
C566 O556 1.307 . S
C567 O559 1.303 . S
C567 O560 1.247 1_656 S
C568 O557 1.253 1_556 S
C568 O558 1.283 . S
C569 O561 1.304 . S
C569 O563 1.272 . S
C570 O562 1.311 1_455 S
C570 O564 1.231 . S
O571 Zn553 1.953 . S
O571 C565 1.298 1_455 S
H572 C580 0.950 . S
H573 C585 0.950 . S
H574 C582 0.950 . S
H575 C584 0.950 . S
H576 C586 0.950 . S
H577 C588 0.950 . S
H578 C590 0.950 . S
H579 C591 0.950 . S
C580 H572 0.950 . S
C580 C581 1.386 . S
C580 C582 1.391 . S
C581 C580 1.386 . S
C581 C585 1.393 . S
C582 H574 0.950 . S
C582 C580 1.391 . S
C582 C583 1.400 . S
C583 C582 1.400 . S
C583 C584 1.398 . S
C583 C589 1.491 . S
C584 H575 0.950 . S
C584 C583 1.398 . S
C584 C585 1.391 . S
C585 H573 0.950 . S
C585 C581 1.393 . S
C585 C584 1.391 . S
C586 H576 0.950 . S
C586 C587 1.386 . S
C586 C588 1.391 . S
C587 C586 1.386 . S
C587 C591 1.393 . S
C588 H577 0.950 . S
C588 C586 1.391 . S
C588 C589 1.400 . S
C589 C583 1.491 . S
C589 C588 1.400 . S
C589 C590 1.398 . S
C590 H578 0.950 . S
C590 C589 1.398 . S
C590 C591 1.391 . S
C591 H579 0.950 . S
C591 C587 1.393 . S
C591 C590 1.391 . S
H592 C600 0.950 . S
H593 C605 0.950 . S
H594 C602 0.950 . S
H595 C604 0.950 . S
H596 C606 0.950 . S
H597 C608 0.950 . S
H598 C610 0.950 . S
H599 C611 0.950 . S
C600 H592 0.950 . S
C600 C601 1.386 . S
C600 C602 1.391 . S
C601 C600 1.386 . S
C601 C605 1.393 . S
C602 H594 0.950 . S
C602 C600 1.391 . S
C602 C603 1.400 . S
C603 C602 1.400 . S
C603 C604 1.398 . S
C603 C609 1.491 . S
C604 H595 0.950 . S
C604 C603 1.398 . S
C604 C605 1.391 . S
C605 H593 0.950 . S
C605 C601 1.393 . S
C605 C604 1.391 . S
C606 H596 0.950 . S
C606 C607 1.386 . S
C606 C608 1.391 . S
C607 C606 1.386 . S
C607 C611 1.393 . S
C608 H597 0.950 . S
C608 C606 1.391 . S
C608 C609 1.400 . S
C609 C603 1.491 . S
C609 C608 1.400 . S
C609 C610 1.398 . S
C610 H598 0.950 . S
C610 C609 1.398 . S
C610 C611 1.391 . S
C611 H599 0.950 . S
C611 C607 1.393 . S
C611 C610 1.391 . S
H612 C620 0.950 . S
H613 C625 0.950 . S
H614 C622 0.950 . S
H615 C624 0.950 . S
H616 C626 0.950 . S
H617 C628 0.950 . S
H618 C630 0.950 . S
H619 C631 0.950 . S
C620 H612 0.950 . S
C620 C621 1.386 . S
C620 C622 1.391 . S
C621 C620 1.386 . S
C621 C625 1.393 . S
C622 H614 0.950 . S
C622 C620 1.391 . S
C622 C623 1.400 . S
C623 C622 1.400 . S
C623 C624 1.398 . S
C623 C629 1.491 . S
C624 H615 0.950 . S
C624 C623 1.398 . S
C624 C625 1.391 . S
C625 H613 0.950 . S
C625 C621 1.393 . S
C625 C624 1.391 . S
C626 H616 0.950 . S
C626 C627 1.386 . S
C626 C628 1.391 . S
C627 C626 1.386 . S
C627 C631 1.393 . S
C628 H617 0.950 . S
C628 C626 1.391 . S
C628 C629 1.400 . S
C629 C623 1.491 . S
C629 C628 1.400 . S
C629 C630 1.398 . S
C630 H618 0.950 . S
C630 C629 1.398 . S
C630 C631 1.391 . S
C631 H619 0.950 . S
C631 C627 1.393 . S
C631 C630 1.391 . S
H632 C640 0.950 . S
H633 C645 0.950 . S
H634 C642 0.950 . S
H635 C644 0.950 . S
H636 C646 0.950 1_455 S
H637 C648 0.950 1_455 S
H638 C650 0.950 . S
H639 C651 0.950 . S
C640 H632 0.950 . S
C640 C641 1.386 . S
C640 C642 1.391 . S
C641 C640 1.386 . S
C641 C645 1.393 . S
C642 H634 0.950 . S
C642 C640 1.391 . S
C642 C643 1.400 . S
C643 C642 1.400 . S
C643 C644 1.398 . S
C643 C649 1.491 . S
C644 H635 0.950 . S
C644 C643 1.398 . S
C644 C645 1.391 . S
C645 H633 0.950 . S
C645 C641 1.393 . S
C645 C644 1.391 . S
C646 H636 0.950 1_655 S
C646 C647 1.386 . S
C646 C648 1.391 . S
C647 C646 1.386 . S
C647 C651 1.393 . S
C648 H637 0.950 1_655 S
C648 C646 1.391 . S
C648 C649 1.400 . S
C649 C643 1.491 . S
C649 C648 1.400 . S
C649 C650 1.398 . S
C650 H638 0.950 . S
C650 C649 1.398 . S
C650 C651 1.391 . S
C651 H639 0.950 . S
C651 C647 1.393 . S
C651 C650 1.391 . S
H652 C660 0.950 . S
H653 C665 0.950 . S
H654 C662 0.950 . S
H655 C664 0.950 . S
H656 C666 0.950 . S
H657 C668 0.950 . S
H658 C670 0.950 . S
H659 C671 0.950 . S
C660 H652 0.950 . S
C660 C661 1.386 . S
C660 C662 1.391 . S
C661 C660 1.386 . S
C661 C665 1.393 . S
C662 H654 0.950 . S
C662 C660 1.391 . S
C662 C663 1.400 . S
C663 C662 1.400 . S
C663 C664 1.398 . S
C663 C669 1.491 . S
C664 H655 0.950 . S
C664 C663 1.398 . S
C664 C665 1.391 . S
C665 H653 0.950 . S
C665 C661 1.393 . S
C665 C664 1.391 . S
C666 H656 0.950 . S
C666 C667 1.386 . S
C666 C668 1.391 . S
C667 C666 1.386 . S
C667 C671 1.393 . S
C668 H657 0.950 . S
C668 C666 1.391 . S
C668 C669 1.400 . S
C669 C663 1.491 . S
C669 C668 1.400 . S
C669 C670 1.398 . S
C670 H658 0.950 . S
C670 C669 1.398 . S
C670 C671 1.391 . S
C671 H659 0.950 . S
C671 C667 1.393 . S
C671 C670 1.391 . S
H672 C680 0.950 . S
H673 C685 0.950 . S
H674 C682 0.950 . S
H675 C684 0.950 . S
H676 C686 0.950 . S
H677 C688 0.950 . S
H678 C690 0.950 . S
H679 C691 0.950 . S
C680 H672 0.950 . S
C680 C681 1.386 . S
C680 C682 1.391 . S
C681 C680 1.386 . S
C681 C685 1.393 . S
C682 H674 0.950 . S
C682 C680 1.391 . S
C682 C683 1.400 . S
C683 C682 1.400 . S
C683 C684 1.398 . S
C683 C689 1.491 . S
C684 H675 0.950 . S
C684 C683 1.398 . S
C684 C685 1.391 . S
C685 H673 0.950 . S
C685 C681 1.393 . S
C685 C684 1.391 . S
C686 H676 0.950 . S
C686 C687 1.386 . S
C686 C688 1.391 . S
C687 C686 1.386 . S
C687 C691 1.393 . S
C688 H677 0.950 . S
C688 C686 1.391 . S
C688 C689 1.400 . S
C689 C683 1.491 . S
C689 C688 1.400 . S
C689 C690 1.398 . S
C690 H678 0.950 . S
C690 C689 1.398 . S
C690 C691 1.391 . S
C691 H679 0.950 . S
C691 C687 1.393 . S
C691 C690 1.391 . S
H692 C700 0.950 . S
H693 C705 0.950 . S
H694 C702 0.950 . S
H695 C704 0.950 . S
H696 C706 0.950 1_554 S
H697 C708 0.950 . S
H698 C710 0.950 . S
H699 C711 0.950 . S
C700 H692 0.950 . S
C700 C701 1.386 . S
C700 C702 1.391 . S
C701 C700 1.386 . S
C701 C705 1.393 . S
C702 H694 0.950 . S
C702 C700 1.391 . S
C702 C703 1.400 . S
C703 C702 1.400 . S
C703 C704 1.398 . S
C703 C709 1.491 . S
C704 H695 0.950 . S
C704 C703 1.398 . S
C704 C705 1.391 . S
C705 H693 0.950 . S
C705 C701 1.393 . S
C705 C704 1.391 . S
C706 H696 0.950 1_556 S
C706 C707 1.386 . S
C706 C708 1.391 . S
C707 C706 1.386 . S
C707 C711 1.393 . S
C708 H697 0.950 . S
C708 C706 1.391 . S
C708 C709 1.400 . S
C709 C703 1.491 . S
C709 C708 1.400 . S
C709 C710 1.398 . S
C710 H698 0.950 . S
C710 C709 1.398 . S
C710 C711 1.391 . S
C711 H699 0.950 . S
C711 C707 1.393 . S
C711 C710 1.391 . S
H712 C720 0.950 . S
H713 C725 0.950 . S
H714 C722 0.950 . S
H715 C724 0.950 . S
H716 C726 0.950 . S
H717 C728 0.950 . S
H718 C730 0.950 . S
H719 C731 0.950 . S
C720 H712 0.950 . S
C720 C721 1.386 . S
C720 C722 1.391 . S
C721 C720 1.386 . S
C721 C725 1.393 . S
C722 H714 0.950 . S
C722 C720 1.391 . S
C722 C723 1.400 . S
C723 C722 1.400 . S
C723 C724 1.398 . S
C723 C729 1.491 . S
C724 H715 0.950 . S
C724 C723 1.398 . S
C724 C725 1.391 . S
C725 H713 0.950 . S
C725 C721 1.393 . S
C725 C724 1.391 . S
C726 H716 0.950 . S
C726 C727 1.386 . S
C726 C728 1.391 . S
C727 C726 1.386 . S
C727 C731 1.393 . S
C728 H717 0.950 . S
C728 C726 1.391 . S
C728 C729 1.400 . S
C729 C723 1.491 . S
C729 C728 1.400 . S
C729 C730 1.398 . S
C730 H718 0.950 . S
C730 C729 1.398 . S
C730 C731 1.391 . S
C731 H719 0.950 . S
C731 C727 1.393 . S
C731 C730 1.391 . S
H732 C740 0.950 . S
H733 C745 0.950 . S
H734 C742 0.950 . S
H735 C744 0.950 . S
H736 C746 0.950 . S
H737 C748 0.950 . S
H738 C750 0.950 . S
H739 C751 0.950 1_655 S
C740 H732 0.950 . S
C740 C741 1.386 . S
C740 C742 1.391 . S
C741 C740 1.386 . S
C741 C745 1.393 . S
C742 H734 0.950 . S
C742 C740 1.391 . S
C742 C743 1.400 . S
C743 C742 1.400 . S
C743 C744 1.398 . S
C743 C749 1.491 . S
C744 H735 0.950 . S
C744 C743 1.398 . S
C744 C745 1.391 . S
C745 H733 0.950 . S
C745 C741 1.393 . S
C745 C744 1.391 . S
C746 H736 0.950 . S
C746 C747 1.386 . S
C746 C748 1.391 . S
C747 C746 1.386 . S
C747 C751 1.393 . S
C748 H737 0.950 . S
C748 C746 1.391 . S
C748 C749 1.400 . S
C749 C743 1.491 . S
C749 C748 1.400 . S
C749 C750 1.398 . S
C750 H738 0.950 . S
C750 C749 1.398 . S
C750 C751 1.391 . S
C751 H739 0.950 1_455 S
C751 C747 1.393 . S
C751 C750 1.391 . S
H752 C760 0.950 . S
H753 C765 0.950 . S
H754 C762 0.950 . S
H755 C764 0.950 . S
H756 C766 0.950 . S
H757 C768 0.950 . S
H758 C770 0.950 . S
H759 C771 0.962 . S
C760 H752 0.950 . S
C760 C761 1.386 . S
C760 C762 1.391 . S
C761 C760 1.386 . S
C761 C765 1.393 . S
C762 H754 0.950 . S
C762 C760 1.391 . S
C762 C763 1.400 . S
C763 C762 1.400 . S
C763 C764 1.398 . S
C763 C769 1.491 . S
C764 H755 0.950 . S
C764 C763 1.398 . S
C764 C765 1.391 . S
C765 H753 0.950 . S
C765 C761 1.393 . S
C765 C764 1.391 . S
C766 H756 0.950 . S
C766 C767 1.386 . S
C766 C768 1.391 . S
C767 C766 1.386 . S
C767 C771 1.393 . S
C768 H757 0.950 . S
C768 C766 1.391 . S
C768 C769 1.400 . S
C769 C763 1.491 . S
C769 C768 1.400 . S
C769 C770 1.398 . S
C770 H758 0.950 . S
C770 C769 1.398 . S
C770 C771 1.391 . S
C771 H759 0.962 . S
C771 C767 1.393 . S
C771 C770 1.391 . S
H772 C780 0.950 . S
H773 C785 0.950 . S
H774 C782 0.950 . S
H775 C784 0.950 . S
H776 C786 0.950 . S
H777 C788 0.950 . S
H778 C790 0.950 . S
H779 C791 0.950 . S
C780 H772 0.950 . S
C780 C781 1.386 . S
C780 C782 1.391 . S
C781 C780 1.386 . S
C781 C785 1.393 . S
C782 H774 0.950 . S
C782 C780 1.391 . S
C782 C783 1.400 . S
C783 C782 1.400 . S
C783 C784 1.398 . S
C783 C789 1.491 . S
C784 H775 0.950 . S
C784 C783 1.398 . S
C784 C785 1.391 . S
C785 H773 0.950 . S
C785 C781 1.393 . S
C785 C784 1.391 . S
C786 H776 0.950 . S
C786 C787 1.386 . S
C786 C788 1.391 . S
C787 C786 1.386 . S
C787 C791 1.393 . S
C788 H777 0.950 . S
C788 C786 1.391 . S
C788 C789 1.400 . S
C789 C783 1.491 . S
C789 C788 1.400 . S
C789 C790 1.398 . S
C790 H778 0.950 . S
C790 C789 1.398 . S
C790 C791 1.391 . S
C791 H779 0.950 . S
C791 C787 1.393 . S
C791 C790 1.391 . S
H792 C800 0.950 . S
H793 C805 0.950 . S
H794 C802 0.950 . S
H795 C804 0.950 . S
H796 C806 0.950 . S
H797 C808 0.950 . S
H798 C810 0.950 . S
H799 C811 0.950 . S
C800 H792 0.950 . S
C800 C801 1.386 . S
C800 C802 1.391 . S
C801 C800 1.386 . S
C801 C805 1.393 . S
C802 H794 0.950 . S
C802 C800 1.391 . S
C802 C803 1.400 . S
C803 C802 1.400 . S
C803 C804 1.398 . S
C803 C809 1.491 . S
C804 H795 0.950 . S
C804 C803 1.398 . S
C804 C805 1.391 . S
C805 H793 0.950 . S
C805 C801 1.393 . S
C805 C804 1.391 . S
C806 H796 0.950 . S
C806 C807 1.386 . S
C806 C808 1.391 . S
C807 C806 1.386 . S
C807 C811 1.393 . S
C808 H797 0.950 . S
C808 C806 1.391 . S
C808 C809 1.400 . S
C809 C803 1.491 . S
C809 C808 1.400 . S
C809 C810 1.398 . S
C810 H798 0.950 . S
C810 C809 1.398 . S
C810 C811 1.391 . S
C811 H799 0.950 . S
C811 C807 1.393 . S
C811 C810 1.391 . S
H812 C820 0.950 . S
H813 C825 0.950 . S
H814 C822 0.950 . S
H815 C824 0.950 1_455 S
H816 C826 0.939 1_455 S
H817 C828 0.950 1_455 S
H818 C830 0.950 . S
H819 C831 0.950 . S
C820 H812 0.950 . S
C820 C821 1.385 1_545 S
C820 C822 1.391 . S
C821 C820 1.385 1_565 S
C821 C825 1.393 . S
C822 H814 0.950 . S
C822 C820 1.391 . S
C822 C823 1.400 1_545 S
C823 C822 1.400 1_565 S
C823 C824 1.398 . S
C823 C829 1.491 . S
C824 H815 0.950 1_655 S
C824 C823 1.398 . S
C824 C825 1.391 . S
C825 H813 0.950 . S
C825 C821 1.393 . S
C825 C824 1.391 . S
C826 H816 0.939 1_655 S
C826 C827 1.394 . S
C826 C828 1.393 . S
C827 C826 1.394 . S
C827 C831 1.393 1_565 S
C828 H817 0.950 1_655 S
C828 C826 1.393 . S
C828 C829 1.400 . S
C829 C823 1.491 . S
C829 C828 1.400 . S
C829 C830 1.398 1_565 S
C830 H818 0.950 . S
C830 C829 1.398 1_545 S
C830 C831 1.391 . S
C831 H819 0.950 . S
C831 C827 1.393 1_545 S
C831 C830 1.391 . S
H832 C840 0.950 . S
H833 C845 0.950 1_565 S
H834 C842 0.950 . S
H835 C844 0.959 . S
H836 C846 0.950 . S
H837 C848 0.950 . S
H838 C850 0.950 . S
H839 C851 0.950 . S
C840 H832 0.950 . S
C840 C841 1.386 . S
C840 C842 1.391 . S
C841 C840 1.386 . S
C841 C845 1.393 . S
C842 H834 0.950 . S
C842 C840 1.391 . S
C842 C843 1.400 . S
C843 C842 1.400 . S
C843 C844 1.390 1_545 S
C843 C849 1.491 . S
C844 H835 0.959 . S
C844 C843 1.390 1_565 S
C844 C845 1.390 1_565 S
C845 H833 0.950 1_545 S
C845 C841 1.393 . S
C845 C844 1.390 1_545 S
C846 H836 0.950 . S
C846 C847 1.386 1_565 S
C846 C848 1.391 . S
C847 C846 1.386 1_545 S
C847 C851 1.393 . S
C848 H837 0.950 . S
C848 C846 1.391 . S
C848 C849 1.400 1_565 S
C849 C843 1.491 . S
C849 C848 1.400 1_545 S
C849 C850 1.398 . S
C850 H838 0.950 . S
C850 C849 1.398 . S
C850 C851 1.391 . S
C851 H839 0.950 . S
C851 C847 1.393 . S
C851 C850 1.391 . S
H852 C860 0.950 . S
H853 C865 0.950 . S
H854 C862 0.950 . S
H855 C864 0.950 . S
H856 C866 0.950 . S
H857 C868 0.950 . S
H858 C870 0.950 . S
H859 C871 0.950 . S
C860 H852 0.950 . S
C860 C861 1.386 . S
C860 C862 1.391 . S
C861 C860 1.386 . S
C861 C865 1.393 . S
C862 H854 0.950 . S
C862 C860 1.391 . S
C862 C863 1.400 . S
C863 C862 1.400 . S
C863 C864 1.398 . S
C863 C869 1.491 . S
C864 H855 0.950 . S
C864 C863 1.398 . S
C864 C865 1.391 . S
C865 H853 0.950 . S
C865 C861 1.393 . S
C865 C864 1.391 . S
C866 H856 0.950 . S
C866 C867 1.386 . S
C866 C868 1.391 . S
C867 C866 1.386 . S
C867 C871 1.393 . S
C868 H857 0.950 . S
C868 C866 1.391 . S
C868 C869 1.400 . S
C869 C863 1.491 . S
C869 C868 1.400 . S
C869 C870 1.398 . S
C870 H858 0.950 . S
C870 C869 1.398 . S
C870 C871 1.391 . S
C871 H859 0.950 . S
C871 C867 1.393 . S
C871 C870 1.391 . S
H872 C880 0.950 . S
H873 C885 0.950 . S
H874 C882 0.950 . S
H875 C884 0.950 . S
H876 C886 0.950 . S
H877 C888 0.950 . S
H878 C890 0.950 . S
H879 C891 0.950 . S
C880 H872 0.950 . S
C880 C881 1.386 . S
C880 C882 1.391 . S
C881 C880 1.386 . S
C881 C885 1.393 . S
C882 H874 0.950 . S
C882 C880 1.391 . S
C882 C883 1.400 . S
C883 C882 1.400 . S
C883 C884 1.398 . S
C883 C889 1.491 . S
C884 H875 0.950 . S
C884 C883 1.398 . S
C884 C885 1.391 . S
C885 H873 0.950 . S
C885 C881 1.393 . S
C885 C884 1.391 . S
C886 H876 0.950 . S
C886 C887 1.386 . S
C886 C888 1.391 . S
C887 C886 1.386 . S
C887 C891 1.393 . S
C888 H877 0.950 . S
C888 C886 1.391 . S
C888 C889 1.400 . S
C889 C883 1.491 . S
C889 C888 1.400 . S
C889 C890 1.398 . S
C890 H878 0.950 . S
C890 C889 1.398 . S
C890 C891 1.391 . S
C891 H879 0.950 . S
C891 C887 1.393 . S
C891 C890 1.391 . S
H892 C900 0.950 . S
H893 C905 0.950 . S
H894 C902 0.950 . S
H895 C904 0.950 . S
H896 C906 0.950 . S
H897 C908 0.950 . S
H898 C910 0.950 . S
H899 C911 0.950 . S
C900 H892 0.950 . S
C900 C901 1.386 1_545 S
C900 C902 1.391 . S
C901 C900 1.386 1_565 S
C901 C905 1.393 . S
C902 H894 0.950 . S
C902 C900 1.391 . S
C902 C903 1.400 1_545 S
C903 C902 1.400 1_565 S
C903 C904 1.398 . S
C903 C909 1.491 . S
C904 H895 0.950 . S
C904 C903 1.398 . S
C904 C905 1.391 . S
C905 H893 0.950 . S
C905 C901 1.393 . S
C905 C904 1.391 . S
C906 H896 0.950 . S
C906 C907 1.386 . S
C906 C908 1.391 . S
C907 C906 1.386 . S
C907 C911 1.393 1_565 S
C908 H897 0.950 . S
C908 C906 1.391 . S
C908 C909 1.400 . S
C909 C903 1.491 . S
C909 C908 1.400 . S
C909 C910 1.398 1_565 S
C910 H898 0.950 . S
C910 C909 1.398 1_545 S
C910 C911 1.391 . S
C911 H899 0.950 . S
C911 C907 1.393 1_545 S
C911 C910 1.391 . S
H912 C920 0.950 1_565 S
H913 C925 0.950 . S
H914 C922 0.950 1_565 S
H915 C924 0.950 . S
H916 C926 0.950 . S
H917 C928 0.950 . S
H918 C930 0.950 . S
H919 C931 0.950 . S
C920 H912 0.950 1_545 S
C920 C921 1.386 . S
C920 C922 1.391 . S
C921 C920 1.386 . S
C921 C925 1.393 . S
C922 H914 0.950 1_545 S
C922 C920 1.391 . S
C922 C923 1.400 . S
C923 C922 1.400 . S
C923 C924 1.398 . S
C923 C929 1.491 . S
C924 H915 0.950 . S
C924 C923 1.398 . S
C924 C925 1.391 . S
C925 H913 0.950 . S
C925 C921 1.393 . S
C925 C924 1.391 . S
C926 H916 0.950 . S
C926 C927 1.386 . S
C926 C928 1.391 . S
C927 C926 1.386 . S
C927 C931 1.393 1_545 S
C928 H917 0.950 . S
C928 C926 1.391 . S
C928 C929 1.400 . S
C929 C923 1.491 . S
C929 C928 1.400 . S
C929 C930 1.398 1_545 S
C930 H918 0.950 . S
C930 C929 1.398 1_565 S
C930 C931 1.391 . S
C931 H919 0.950 . S
C931 C927 1.393 1_565 S
C931 C930 1.391 . S
H932 C940 0.950 . S
H933 C945 0.950 . S
H934 C942 0.950 . S
H935 C944 0.950 1_556 S
H936 C946 0.950 . S
H937 C948 0.950 . S
H938 C950 0.950 . S
H939 C951 0.950 . S
C940 H932 0.950 . S
C940 C941 1.386 . S
C940 C942 1.391 . S
C941 C940 1.386 . S
C941 C945 1.393 . S
C942 H934 0.950 . S
C942 C940 1.391 . S
C942 C943 1.400 . S
C943 C942 1.400 . S
C943 C944 1.398 . S
C943 C949 1.491 . S
C944 H935 0.950 1_554 S
C944 C943 1.398 . S
C944 C945 1.391 . S
C945 H933 0.950 . S
C945 C941 1.393 . S
C945 C944 1.391 . S
C946 H936 0.950 . S
C946 C947 1.386 1_556 S
C946 C948 1.391 . S
C947 C946 1.386 1_554 S
C947 C951 1.393 . S
C948 H937 0.950 . S
C948 C946 1.391 . S
C948 C949 1.400 1_556 S
C949 C943 1.491 . S
C949 C948 1.400 1_554 S
C949 C950 1.398 . S
C950 H938 0.950 . S
C950 C949 1.398 . S
C950 C951 1.391 . S
C951 H939 0.950 . S
C951 C947 1.393 . S
C951 C950 1.391 . S
H952 C960 0.950 . S
H953 C965 0.950 . S
H954 C962 0.950 . S
H955 C964 0.950 . S
H956 C966 0.950 . S
H957 C968 0.950 . S
H958 C970 0.950 . S
H959 C971 0.950 . S
C960 H952 0.950 . S
C960 C961 1.386 . S
C960 C962 1.391 . S
C961 C960 1.386 . S
C961 C965 1.393 . S
C962 H954 0.950 . S
C962 C960 1.391 . S
C962 C963 1.400 . S
C963 C962 1.400 . S
C963 C964 1.398 . S
C963 C969 1.491 . S
C964 H955 0.950 . S
C964 C963 1.398 . S
C964 C965 1.391 . S
C965 H953 0.950 . S
C965 C961 1.393 . S
C965 C964 1.391 . S
C966 H956 0.950 . S
C966 C967 1.386 . S
C966 C968 1.391 . S
C967 C966 1.386 . S
C967 C971 1.393 . S
C968 H957 0.950 . S
C968 C966 1.391 . S
C968 C969 1.400 . S
C969 C963 1.491 . S
C969 C968 1.400 . S
C969 C970 1.398 . S
C970 H958 0.950 . S
C970 C969 1.398 . S
C970 C971 1.391 . S
C971 H959 0.950 . S
C971 C967 1.393 . S
C971 C970 1.391 . S
H972 C980 0.950 1_455 S
H973 C985 0.950 . S
H974 C982 0.950 1_455 S
H975 C984 0.950 . S
H976 C986 0.950 . S
H977 C988 0.950 . S
H978 C990 0.950 1_455 S
H979 C991 0.950 . S
C980 H972 0.950 1_655 S
C980 C981 1.386 . S
C980 C982 1.391 . S
C981 C980 1.386 . S
C981 C985 1.393 . S
C982 H974 0.950 1_655 S
C982 C980 1.391 . S
C982 C983 1.400 . S
C983 C982 1.400 . S
C983 C984 1.398 . S
C983 C989 1.491 . S
C984 H975 0.950 . S
C984 C983 1.398 . S
C984 C985 1.391 . S
C985 H973 0.950 . S
C985 C981 1.393 . S
C985 C984 1.391 . S
C986 H976 0.950 . S
C986 C987 1.386 . S
C986 C988 1.391 . S
C987 C986 1.386 . S
C987 C991 1.393 1_655 S
C988 H977 0.950 . S
C988 C986 1.391 . S
C988 C989 1.400 . S
C989 C983 1.491 . S
C989 C988 1.400 . S
C989 C990 1.398 . S
C990 H978 0.950 1_655 S
C990 C989 1.398 . S
C990 C991 1.391 1_655 S
C991 H979 0.950 . S
C991 C987 1.393 1_455 S
C991 C990 1.391 1_455 S
H992 C1000 0.950 . S
H993 C1005 0.950 . S
H994 C1002 0.950 . S
H995 C1004 0.950 . S
H996 C1006 0.950 . S
H997 C1008 0.950 . S
H998 C1010 0.950 . S
H999 C1011 0.950 . S
C1000 H992 0.950 . S
C1000 C1001 1.386 . S
C1000 C1002 1.391 . S
C1001 C1000 1.386 . S
C1001 C1005 1.393 . S
C1002 H994 0.950 . S
C1002 C1000 1.391 . S
C1002 C1003 1.400 . S
C1003 C1002 1.400 . S
C1003 C1004 1.398 . S
C1003 C1009 1.491 . S
C1004 H995 0.950 . S
C1004 C1003 1.398 . S
C1004 C1005 1.391 . S
C1005 H993 0.950 . S
C1005 C1001 1.393 . S
C1005 C1004 1.391 . S
C1006 H996 0.950 . S
C1006 C1007 1.386 . S
C1006 C1008 1.391 . S
C1007 C1006 1.386 . S
C1007 C1011 1.393 . S
C1008 H997 0.950 . S
C1008 C1006 1.391 . S
C1008 C1009 1.400 . S
C1009 C1003 1.491 . S
C1009 C1008 1.400 . S
C1009 C1010 1.398 . S
C1010 H998 0.950 . S
C1010 C1009 1.398 . S
C1010 C1011 1.391 . S
C1011 H999 0.950 . S
C1011 C1007 1.393 . S
C1011 C1010 1.391 . S
H1012 C1020 0.950 . S
H1013 C1025 0.950 . S
H1014 C1022 0.950 . S
H1015 C1024 0.950 . S
H1016 C1026 0.950 1_655 S
H1017 C1028 0.947 1_655 S
H1018 C1030 0.950 . S
H1019 C1031 0.950 . S
C1020 H1012 0.950 . S
C1020 C1021 1.386 . S
C1020 C1022 1.391 . S
C1021 C1020 1.386 . S
C1021 C1025 1.393 . S
C1022 H1014 0.950 . S
C1022 C1020 1.391 . S
C1022 C1023 1.400 . S
C1023 C1022 1.400 . S
C1023 C1024 1.398 . S
C1023 C1029 1.491 . S
C1024 H1015 0.950 . S
C1024 C1023 1.398 . S
C1024 C1025 1.391 . S
C1025 H1013 0.950 . S
C1025 C1021 1.393 . S
C1025 C1024 1.391 . S
C1026 H1016 0.950 1_455 S
C1026 C1027 1.386 . S
C1026 C1028 1.391 . S
C1027 C1026 1.386 . S
C1027 C1031 1.393 . S
C1028 H1017 0.947 1_455 S
C1028 C1026 1.391 . S
C1028 C1029 1.400 . S
C1029 C1023 1.491 . S
C1029 C1028 1.400 . S
C1029 C1030 1.398 . S
C1030 H1018 0.950 . S
C1030 C1029 1.398 . S
C1030 C1031 1.391 . S
C1031 H1019 0.950 . S
C1031 C1027 1.393 . S
C1031 C1030 1.391 . S
H1032 C1040 0.950 . S
H1033 C1045 0.950 . S
H1034 C1042 0.950 . S
H1035 C1044 0.950 . S
H1036 C1046 0.950 . S
H1037 C1048 0.950 . S
H1038 C1050 0.950 . S
H1039 C1051 0.950 . S
C1040 H1032 0.950 . S
C1040 C1041 1.386 . S
C1040 C1042 1.391 . S
C1041 C1040 1.386 . S
C1041 C1045 1.393 . S
C1042 H1034 0.950 . S
C1042 C1040 1.391 . S
C1042 C1043 1.400 . S
C1043 C1042 1.400 . S
C1043 C1044 1.398 . S
C1043 C1049 1.491 . S
C1044 H1035 0.950 . S
C1044 C1043 1.398 . S
C1044 C1045 1.391 . S
C1045 H1033 0.950 . S
C1045 C1041 1.393 . S
C1045 C1044 1.391 . S
C1046 H1036 0.950 . S
C1046 C1047 1.386 . S
C1046 C1048 1.391 . S
C1047 C1046 1.386 . S
C1047 C1051 1.393 . S
C1048 H1037 0.950 . S
C1048 C1046 1.391 . S
C1048 C1049 1.400 . S
C1049 C1043 1.491 . S
C1049 C1048 1.400 . S
C1049 C1050 1.398 . S
C1050 H1038 0.950 . S
C1050 C1049 1.398 . S
C1050 C1051 1.391 . S
C1051 H1039 0.950 . S
C1051 C1047 1.393 . S
C1051 C1050 1.391 . S
C581 C1 1.597 . S
C587 C498 1.576 . S
C601 C80 1.577 . S
C607 C522 1.579 . S
C627 C542 1.445 . S
C621 C140 1.382 . S
C641 C211 1.388 . S
C647 C565 1.459 . S
C667 C524 1.655 . S
C661 C31 1.699 . S
C687 C500 1.658 . S
C681 C61 1.653 . S
C707 C568 1.596 . S
C701 C151 1.593 . S
C727 C545 1.580 . S
C721 C200 1.563 . S
C741 C20 1.388 . S
C747 C570 1.346 . S
C767 C519 1.658 . S
C761 C121 1.582 . S
C781 C181 1.598 . S
C787 C497 1.651 . S
C801 C91 1.350 . S
C807 C547 1.361 . S
C827 C501 1.704 . S
C821 C260 1.697 . S
C841 C320 1.580 . S
C847 C523 1.655 . S
C861 C361 1.811 . S
C867 C543 1.832 . S
C881 C451 1.749 . S
C887 C566 1.830 . S
C901 C271 1.619 . S
C907 C521 1.593 . S
C927 C499 1.636 . S
C921 C301 1.524 . S
C947 C569 1.513 . S
C941 C380 1.522 . S
C967 C546 1.564 . S
C961 C440 1.527 . S
C981 C241 1.944 . S
C987 C567 1.900 . S
C1007 C520 1.614 . S
C1001 C391 1.586 . S
C1027 C496 1.617 . S
C1021 C421 1.533 . S
C1041 C331 1.835 . S
C1047 C544 1.888 . S
