# Generated by pormake.
# Topology cml, (3,6)-cn, num edge types: 1
# Building blocks:
#     Node 0, Type 0, BuildingBlock: QEWDON_clean_linker_0, # of connection points: 3
#     Node 1, Type 0, BuildingBlock: QEWDON_clean_linker_0, # of connection points: 3
#     Node 2, Type 0, BuildingBlock: QEWDON_clean_linker_0, # of connection points: 3
#     Node 3, Type 0, BuildingBlock: QEWDON_clean_linker_0, # of connection points: 3
#     Node 4, Type 0, BuildingBlock: QEWDON_clean_linker_0, # of connection points: 3
#     Node 5, Type 0, BuildingBlock: QEWDON_clean_linker_0, # of connection points: 3
#     Node 6, Type 0, BuildingBlock: QEWDON_clean_linker_0, # of connection points: 3
#     Node 7, Type 0, BuildingBlock: QEWDON_clean_linker_0, # of connection points: 3
#     Node 8, Type 1, BuildingBlock: IZENUY_clean_sbu_0, # of connection points: 6
#     Node 9, Type 1, BuildingBlock: IZENUY_clean_sbu_0, # of connection points: 6
#     Node 10, Type 1, BuildingBlock: IZENUY_clean_sbu_0, # of connection points: 6
#     Node 11, Type 1, BuildingBlock: IZENUY_clean_sbu_0, # of connection points: 6
#     Edge 12, Type (0, 1), BuildingBlock: KIFKEQ_clean_linker_1, # of connection points: 2
#     Edge 13, Type (0, 1), BuildingBlock: KIFKEQ_clean_linker_1, # of connection points: 2
#     Edge 14, Type (0, 1), BuildingBlock: KIFKEQ_clean_linker_1, # of connection points: 2
#     Edge 15, Type (0, 1), BuildingBlock: KIFKEQ_clean_linker_1, # of connection points: 2
#     Edge 16, Type (0, 1), BuildingBlock: KIFKEQ_clean_linker_1, # of connection points: 2
#     Edge 17, Type (0, 1), BuildingBlock: KIFKEQ_clean_linker_1, # of connection points: 2
#     Edge 18, Type (0, 1), BuildingBlock: KIFKEQ_clean_linker_1, # of connection points: 2
#     Edge 19, Type (0, 1), BuildingBlock: KIFKEQ_clean_linker_1, # of connection points: 2
#     Edge 20, Type (0, 1), BuildingBlock: KIFKEQ_clean_linker_1, # of connection points: 2
#     Edge 21, Type (0, 1), BuildingBlock: KIFKEQ_clean_linker_1, # of connection points: 2
#     Edge 22, Type (0, 1), BuildingBlock: KIFKEQ_clean_linker_1, # of connection points: 2
#     Edge 23, Type (0, 1), BuildingBlock: KIFKEQ_clean_linker_1, # of connection points: 2
#     Edge 24, Type (0, 1), BuildingBlock: KIFKEQ_clean_linker_1, # of connection points: 2
#     Edge 25, Type (0, 1), BuildingBlock: KIFKEQ_clean_linker_1, # of connection points: 2
#     Edge 26, Type (0, 1), BuildingBlock: KIFKEQ_clean_linker_1, # of connection points: 2
#     Edge 27, Type (0, 1), BuildingBlock: KIFKEQ_clean_linker_1, # of connection points: 2
#     Edge 28, Type (0, 1), BuildingBlock: KIFKEQ_clean_linker_1, # of connection points: 2
#     Edge 29, Type (0, 1), BuildingBlock: KIFKEQ_clean_linker_1, # of connection points: 2
#     Edge 30, Type (0, 1), BuildingBlock: KIFKEQ_clean_linker_1, # of connection points: 2
#     Edge 31, Type (0, 1), BuildingBlock: KIFKEQ_clean_linker_1, # of connection points: 2
#     Edge 32, Type (0, 1), BuildingBlock: KIFKEQ_clean_linker_1, # of connection points: 2
#     Edge 33, Type (0, 1), BuildingBlock: KIFKEQ_clean_linker_1, # of connection points: 2
#     Edge 34, Type (0, 1), BuildingBlock: KIFKEQ_clean_linker_1, # of connection points: 2
#     Edge 35, Type (0, 1), BuildingBlock: KIFKEQ_clean_linker_1, # of connection points: 2
# Relax obj value: 0.010
# Max RMSD: 0.128
# Mean RMSD: 0.094
data_MOF--net-cml--node1-IZENUY_clean_sbu_0--node2-QEWDON_clean_linker_0--edge1-KIFKEQ_clean_linker_1
_symmetry_space_group_name_H-M    P1
_symmetry_Int_Tables_number       1
_symmetry_cell_setting            triclinic
loop_
_symmetry_equiv_pos_as_xyz
'x, y, z'
_cell_length_a     39.734075
_cell_length_b     42.684224
_cell_length_c     37.14956
_cell_angle_alpha  89.875966
_cell_angle_beta   89.921867
_cell_angle_gamma 90.127579
loop_
_atom_site_label
_atom_site_type_symbol
_atom_site_fract_x
_atom_site_fract_y
_atom_site_fract_z
_atom_type_partial_charge
H0 H 0.28289 0.43342 0.98256 0.0
C1 C 0.29602 0.4226 1.00493 0.0
C2 C 0.32912 0.43159 0.01272 0.0
C3 C 0.27894 0.40147 0.02752 0.0
H4 H 0.37055 0.4267 0.04928 0.0
C5 C 0.34535 0.41875 0.0428 0.0
C6 C 0.32887 0.39709 0.06543 0.0
C7 C 0.29543 0.38859 0.05754 0.0
C8 C 0.24242 0.39704 0.02287 0.0
H9 H 0.28185 0.37275 0.07522 0.0
C10 C 0.22933 0.37134 1.0038 0.0
C11 C 0.19441 0.36895 0.99773 0.0
C12 C 0.22055 0.41991 0.03643 0.0
H13 H 0.23033 0.43987 0.05109 0.0
C14 C 0.18597 0.41736 0.03094 0.0
H15 H 0.24626 0.35384 0.99297 0.0
C16 C 0.17294 0.39216 0.0116 0.0
H17 H 0.14597 0.39066 0.0077 0.0
H18 H 0.16923 0.43508 0.04152 0.0
H19 H 0.74562 0.58684 0.48506 0.0
C20 C 0.73181 0.59686 0.50742 0.0
C21 C 0.69798 0.58844 0.51316 0.0
C22 C 0.7481 0.61768 0.53098 0.0
H23 H 0.65505 0.59366 0.54806 0.0
C24 C 0.68072 0.60103 0.54277 0.0
C25 C 0.69693 0.62113 0.56712 0.0
C26 C 0.73069 0.62949 0.56095 0.0
C27 C 0.78457 0.62359 0.52723 0.0
H28 H 0.74369 0.64455 0.57988 0.0
C29 C 0.79709 0.64945 0.50763 0.0
C30 C 0.83217 0.65419 0.50425 0.0
C31 C 0.80706 0.60284 0.54376 0.0
H32 H 0.79778 0.58292 0.55899 0.0
C33 C 0.84165 0.60762 0.54087 0.0
H34 H 0.77968 0.66537 0.49465 0.0
C35 C 0.85416 0.63303 0.5213 0.0
H36 H 0.88117 0.63628 0.5198 0.0
H37 H 0.85887 0.59157 0.55386 0.0
H38 H 0.7003 0.40223 0.95649 0.0
C39 C 0.69771 0.40105 0.98553 0.0
C40 C 0.68424 0.42659 1.00438 0.0
C41 C 0.70621 0.3733 1.00358 0.0
H42 H 0.6665 0.44291 0.05551 0.0
C43 C 0.67919 0.42399 0.0417 0.0
C44 C 0.68713 0.39617 0.06036 0.0
C45 C 0.70162 0.37118 0.04096 0.0
C46 C 0.71286 0.34475 0.98234 0.0
H47 H 0.70759 0.34934 0.05437 0.0
C48 C 0.74555 0.33262 0.97793 0.0
C49 C 0.75085 0.30635 0.95562 0.0
C50 C 0.6856 0.33006 0.96527 0.0
H51 H 0.6603 0.3391 0.96845 0.0
C52 C 0.6907 0.30373 0.94389 0.0
H53 H 0.76672 0.34412 0.99074 0.0
C54 C 0.72307 0.29201 0.93892 0.0
H55 H 0.72643 0.27162 0.92198 0.0
H56 H 0.66951 0.29251 0.93088 0.0
H57 H 0.32643 0.63226 0.45151 0.0
C58 C 0.3297 0.63355 0.48043 0.0
C59 C 0.34316 0.60788 0.49938 0.0
C60 C 0.32156 0.66141 0.49843 0.0
H61 H 0.36013 0.59155 0.55122 0.0
C62 C 0.34812 0.61054 0.53675 0.0
C63 C 0.34056 0.63848 0.55507 0.0
C64 C 0.3269 0.66373 0.53566 0.0
C65 C 0.31301 0.68977 0.47758 0.0
H66 H 0.32168 0.68568 0.54918 0.0
C67 C 0.27951 0.69999 0.47381 0.0
C68 C 0.27249 0.72807 0.45519 0.0
C69 C 0.33923 0.70738 0.46229 0.0
H70 H 0.36512 0.69981 0.46502 0.0
C71 C 0.33234 0.73507 0.4438 0.0
H72 H 0.2592 0.68648 0.48568 0.0
C73 C 0.29925 0.74546 0.44038 0.0
H74 H 0.29448 0.76697 0.42571 0.0
H75 H 0.35272 0.74858 0.43216 0.0
H76 H 0.78754 0.92613 0.97384 0.0
C77 C 0.80029 0.91694 0.99736 0.0
C78 C 0.83399 0.92507 1.00412 0.0
C79 C 0.7824 0.89782 0.02152 0.0
H80 H 0.87489 0.92078 0.04181 0.0
C81 C 0.84957 0.91327 0.0353 0.0
C82 C 0.83219 0.89366 0.05956 0.0
C83 C 0.79837 0.88612 0.05243 0.0
C84 C 0.74578 0.89394 0.01695 0.0
H85 H 0.7842 0.87175 0.07119 0.0
C86 C 0.73227 0.86915 0.99664 0.0
C87 C 0.69723 0.86713 0.99103 0.0
C88 C 0.72425 0.91636 0.03202 0.0
H89 H 0.73436 0.93562 0.04763 0.0
C90 C 0.6896 0.91429 0.02678 0.0
H91 H 0.74893 0.85195 0.98475 0.0
C92 C 0.67613 0.88995 1.00633 0.0
H93 H 0.64909 0.88873 1.00283 0.0
H94 H 0.67312 0.93167 0.0385 0.0
H95 H 0.24074 0.08594 0.4859 0.0
C96 C 0.22747 0.09743 0.50769 0.0
C97 C 0.1942 0.08859 0.51591 0.0
C98 C 0.24452 0.11957 0.52901 0.0
H99 H 0.15242 0.09596 0.55196 0.0
C100 C 0.17796 0.10282 0.54522 0.0
C101 C 0.19481 0.12451 0.56715 0.0
C102 C 0.22815 0.13289 0.55882 0.0
C103 C 0.28107 0.12442 0.52398 0.0
H104 H 0.24177 0.14886 0.57621 0.0
C105 C 0.29419 0.15154 0.50724 0.0
C106 C 0.32929 0.15481 0.50209 0.0
C107 C 0.30308 0.10108 0.53616 0.0
H108 H 0.29338 0.08017 0.54917 0.0
C109 C 0.33771 0.10455 0.53191 0.0
H110 H 0.27719 0.16944 0.49744 0.0
C111 C 0.35075 0.13112 0.51501 0.0
H112 H 0.3778 0.13317 0.51215 0.0
H113 H 0.35452 0.0865 0.54162 0.0
H114 H 0.20034 0.90015 0.95576 0.0
C115 C 0.19695 0.89868 0.98468 0.0
C116 C 0.18448 0.92463 1.00373 0.0
C117 C 0.20322 0.8702 1.00233 0.0
H118 H 0.16785 0.94128 0.05551 0.0
C119 C 0.17907 0.92191 0.041 0.0
C120 C 0.18451 0.89331 0.05892 0.0
C121 C 0.19697 0.8676 0.03939 0.0
C122 C 0.20978 0.84183 0.98081 0.0
H123 H 0.20022 0.84514 0.0526 0.0
C124 C 0.24264 0.83051 0.97513 0.0
C125 C 0.24797 0.80428 0.95278 0.0
C126 C 0.18239 0.82649 0.96479 0.0
H127 H 0.15698 0.83495 0.96892 0.0
C128 C 0.18754 0.80029 0.9432 0.0
H129 H 0.26387 0.84251 0.98719 0.0
C130 C 0.22005 0.7893 0.93708 0.0
H131 H 0.2234 0.7689 0.92015 0.0
H132 H 0.16626 0.78856 0.93097 0.0
H133 H 0.82976 0.13573 0.45126 0.0
C134 C 0.83288 0.13632 0.48023 0.0
C135 C 0.84673 0.11037 0.49827 0.0
C136 C 0.82593 0.16416 0.49911 0.0
H137 H 0.86144 0.09196 0.54987 0.0
C138 C 0.85176 0.11221 0.53562 0.0
C139 C 0.84703 0.14034 0.55443 0.0
C140 C 0.83338 0.16614 0.53606 0.0
C141 C 0.81763 0.19304 0.47908 0.0
H142 H 0.83057 0.18836 0.5498 0.0
C143 C 0.78433 0.20039 0.46923 0.0
C144 C 0.77738 0.22838 0.45028 0.0
C145 C 0.84382 0.21372 0.47014 0.0
H146 H 0.86954 0.20842 0.47764 0.0
C147 C 0.8371 0.24135 0.45153 0.0
H148 H 0.7641 0.18437 0.47608 0.0
C149 C 0.8042 0.24869 0.44168 0.0
H150 H 0.7997 0.2706 0.42775 0.0
H151 H 0.85745 0.25724 0.44485 0.0
Fe152 Fe 1.00954 0.84224 0.329 0.0
Fe153 Fe 1.00804 0.87688 0.40156 0.0
O154 O 1.00874 0.87776 0.35377 0.0
Fe155 Fe 1.00893 0.91424 0.33063 0.0
O156 O 0.98542 0.89986 0.29157 0.0
O157 O 0.97053 0.8518 0.30576 0.0
O158 O 0.98414 0.81991 0.36148 0.0
C159 C 0.96491 0.82824 0.38692 0.0
C160 C 0.0544 0.88175 0.29006 0.0
O161 O 0.96926 0.85415 0.40259 0.0
C162 C 0.05143 0.92606 0.39047 0.0
O163 O 0.04857 0.8302 0.35009 0.0
O164 O 0.03419 0.84155 0.40572 0.0
O165 O 0.04891 0.90563 0.30915 0.0
O166 O 0.03537 0.85795 0.29205 0.0
C167 C 0.96351 0.92706 0.38388 0.0
O168 O 0.04682 0.89944 0.40447 0.0
O169 O 0.03266 0.93554 0.36524 0.0
C170 C 0.05383 0.82844 0.3835 0.0
O171 O 0.98196 0.91221 0.40592 0.0
O172 O 0.96897 0.9256 0.35044 0.0
C173 C 0.96672 0.87617 0.28689 0.0
Fe174 Fe 0.01238 0.14805 0.90389 0.0
Fe175 Fe 0.01334 0.11278 0.83188 0.0
O176 O 0.01174 0.14845 0.85608 0.0
Fe177 Fe 1.00952 0.18462 0.83244 0.0
O178 O 0.04854 0.19813 0.85246 0.0
O179 O 0.03558 0.18515 0.90807 0.0
O180 O 0.05277 0.12816 0.90517 0.0
C181 C 0.05882 0.10244 0.88976 0.0
C182 C 0.96529 0.19365 0.89148 0.0
O183 O 0.04015 0.09254 0.86461 0.0
C184 C 0.96653 0.14923 0.79187 0.0
O185 O 0.98962 0.11078 0.90841 0.0
O186 O 0.97507 0.09836 0.85321 0.0
O187 O 0.98402 0.20446 0.86676 0.0
O188 O 0.97187 0.16769 0.9062 0.0
C189 C 0.05481 0.1489 0.78994 0.0
O190 O 0.98688 0.12655 0.79472 0.0
O191 O 0.97034 0.17367 0.81051 0.0
C192 C 0.97136 0.09544 0.88678 0.0
O193 O 0.05171 0.12445 0.8088 0.0
O194 O 0.03453 0.1715 0.79368 0.0
C195 C 0.05401 0.19985 0.88584 0.0
Fe196 Fe 0.50892 0.34204 0.3305 0.0
Fe197 Fe 0.51221 0.37632 0.40344 0.0
O198 O 0.51043 0.37732 0.35565 0.0
Fe199 Fe 0.51049 0.41373 0.33258 0.0
O200 O 0.48515 0.39995 0.29454 0.0
O201 O 0.46895 0.3526 0.30978 0.0
O202 O 0.48486 0.31997 0.3642 0.0
C203 C 0.46722 0.32846 0.39082 0.0
C204 C 0.55304 0.38057 0.28953 0.0
O205 O 0.47322 0.35395 0.40676 0.0
C206 C 0.55549 0.42523 0.3902 0.0
O207 O 0.54866 0.3291 0.34904 0.0
O208 O 0.53824 0.34066 0.40571 0.0
O209 O 0.54958 0.40425 0.30949 0.0
O210 O 0.53297 0.35756 0.29209 0.0
C211 C 0.46751 0.42703 0.38798 0.0
O212 O 0.55142 0.39862 0.40443 0.0
O213 O 0.53568 0.43467 0.36597 0.0
C214 C 0.55597 0.32707 0.382 0.0
O215 O 0.48659 0.41195 0.40927 0.0
O216 O 0.47163 0.42554 0.35429 0.0
C217 C 0.46529 0.37696 0.29088 0.0
Fe218 Fe 0.51126 0.64879 0.90136 0.0
Fe219 Fe 0.51068 0.61149 0.83073 0.0
O220 O 0.50981 0.6479 0.8536 0.0
Fe221 Fe 0.50747 0.68345 0.82876 0.0
O222 O 0.54672 0.6976 0.84785 0.0
O223 O 0.53459 0.68586 0.90399 0.0
O224 O 0.55158 0.62876 0.90252 0.0
C225 C 0.55707 0.60253 0.88803 0.0
C226 C 0.46391 0.69404 0.88808 0.0
O227 O 0.53775 0.592 0.8638 0.0
C228 C 0.46401 0.64721 0.78962 0.0
O229 O 0.48843 0.61186 0.90758 0.0
O230 O 0.47254 0.59797 0.85329 0.0
O231 O 0.48219 0.70421 0.86261 0.0
O232 O 0.47089 0.6686 0.90374 0.0
C233 C 0.55215 0.64623 0.78715 0.0
O234 O 0.48394 0.62433 0.7933 0.0
O235 O 0.46811 0.67199 0.8076 0.0
C236 C 0.46941 0.59618 0.88706 0.0
O237 O 0.54883 0.62219 0.80666 0.0
O238 O 0.53221 0.66918 0.79034 0.0
C239 C 0.55269 0.70005 0.88107 0.0
H240 H 0.14979 0.37244 0.94242 0.0
H241 H 0.20577 0.30615 1.00645 0.0
H242 H 0.12035 0.32946 0.91283 0.0
H243 H 0.17637 0.26284 0.97655 0.0
H244 H 0.0889 0.24476 0.84816 0.0
H245 H 0.128 0.28372 0.87205 0.0
H246 H 0.11648 0.24408 0.97839 0.0
H247 H 0.07756 0.20507 0.95465 0.0
C248 C 0.15605 0.34859 0.94983 0.0
C249 C 0.17983 0.34259 0.97692 0.0
C250 C 0.1394 0.32397 0.93268 0.0
C251 C 0.14594 0.29276 0.94245 0.0
C252 C 0.17062 0.28668 0.96868 0.0
C253 C 0.1876 0.31139 0.98559 0.0
C254 C 0.09495 0.24414 0.87657 0.0
C255 C 0.07978 0.22199 0.89956 0.0
C256 C 0.11728 0.26652 0.89025 0.0
C257 C 0.12522 0.26703 0.92712 0.0
C258 C 0.11112 0.24412 0.94981 0.0
C259 C 0.08857 0.22193 0.93622 0.0
H260 H 0.81285 0.71614 0.50416 0.0
H261 H 0.88422 0.65235 0.45652 0.0
H262 H 0.84038 0.76006 0.47311 0.0
H263 H 0.91218 0.69585 0.42668 0.0
H264 H 0.94334 0.77427 0.35507 0.0
H265 H 0.9067 0.73403 0.38005 0.0
H266 H 0.89324 0.78948 0.47611 0.0
H267 H 0.92938 0.8303 0.45061 0.0
C268 C 0.83415 0.71146 0.48678 0.0
C269 C 0.84648 0.68077 0.48302 0.0
C270 C 0.85015 0.73664 0.46929 0.0
C271 C 0.87861 0.7316 0.44741 0.0
C272 C 0.89014 0.70072 0.44289 0.0
C273 C 0.87429 0.67572 0.46036 0.0
C274 C 0.93236 0.77809 0.3814 0.0
C275 C 0.93973 0.80541 0.40099 0.0
C276 C 0.91141 0.75489 0.39582 0.0
C277 C 0.89735 0.75819 0.43038 0.0
C278 C 0.90343 0.78617 0.44934 0.0
C279 C 0.92433 0.80955 0.43478 0.0
H280 H 0.79956 0.28948 1.00426 0.0
H281 H 0.77888 0.29477 0.89043 0.0
H282 H 0.85367 0.264 0.99126 0.0
H283 H 0.83238 0.26941 0.87744 0.0
H284 H 0.94272 0.24897 0.8636 0.0
H285 H 0.89362 0.27904 0.8816 0.0
H286 H 0.87234 0.21169 0.96548 0.0
H287 H 0.92186 0.18143 0.94764 0.0
C288 C 0.80683 0.28558 0.97652 0.0
C289 C 0.78507 0.29399 0.94834 0.0
C290 C 0.83757 0.27077 0.96909 0.0
C291 C 0.84727 0.26464 0.93332 0.0
C292 C 0.82585 0.27404 0.90524 0.0
C293 C 0.79512 0.28841 0.91267 0.0
C294 C 0.92781 0.24057 0.88607 0.0
C295 C 0.93622 0.2126 0.90401 0.0
C296 C 0.89956 0.25783 0.89631 0.0
C297 C 0.87899 0.24769 0.92485 0.0
C298 C 0.88786 0.22025 0.94357 0.0
C299 C 0.91611 0.20281 0.93317 0.0
H300 H 0.21829 0.69652 0.42781 0.0
H301 H 0.24834 0.78595 0.47123 0.0
H302 H 0.16278 0.71817 0.41298 0.0
H303 H 0.19309 0.80751 0.45671 0.0
H304 H 0.081 0.82925 0.45113 0.0
H305 H 0.13136 0.80219 0.47229 0.0
H306 H 0.14346 0.75968 0.36778 0.0
H307 H 0.0932 0.7868 0.34643 0.0
C308 C 0.21276 0.72059 0.43478 0.0
C309 C 0.23755 0.7396 0.45057 0.0
C310 C 0.18117 0.73305 0.42605 0.0
C311 C 0.17364 0.76457 0.43357 0.0
C312 C 0.19802 0.7831 0.45082 0.0
C313 C 0.22968 0.77082 0.45899 0.0
C314 C 0.09416 0.81388 0.43274 0.0
C315 C 0.08308 0.81029 0.39703 0.0
C316 C 0.12308 0.79848 0.44485 0.0
C317 C 0.14136 0.77881 0.42171 0.0
C318 C 0.12972 0.77443 0.38636 0.0
C319 C 0.10104 0.79015 0.37407 0.0
H320 H 0.65108 0.87194 0.93717 0.0
H321 H 0.70884 0.80417 0.99721 0.0
H322 H 0.62054 0.82964 0.90747 0.0
H323 H 0.67836 0.7616 0.96722 0.0
H324 H 0.57879 0.7046 0.94875 0.0
H325 H 0.61859 0.74327 0.97141 0.0
H326 H 0.62599 0.78433 0.86537 0.0
H327 H 0.58596 0.74559 0.84254 0.0
C328 C 0.65752 0.84793 0.94364 0.0
C329 C 0.68212 0.84132 0.9697 0.0
C330 C 0.64022 0.8237 0.92643 0.0
C331 C 0.64691 0.79228 0.93513 0.0
C332 C 0.67246 0.78561 0.96019 0.0
C333 C 0.69007 0.80992 0.97714 0.0
C334 C 0.58906 0.7217 0.93014 0.0
C335 C 0.57889 0.72218 0.89389 0.0
C336 C 0.61213 0.7437 0.9431 0.0
C337 C 0.6254 0.76689 0.92021 0.0
C338 C 0.61598 0.76688 0.88372 0.0
C339 C 0.59313 0.74463 0.87063 0.0
H340 H 0.37775 0.15371 0.45036 0.0
H341 H 0.31495 0.21764 0.51005 0.0
H342 H 0.40709 0.19753 0.42291 0.0
H343 H 0.34386 0.26211 0.4814 0.0
H344 H 0.43653 0.32832 0.45746 0.0
H345 H 0.39898 0.28817 0.48232 0.0
H346 H 0.40129 0.23912 0.38076 0.0
H347 H 0.43932 0.27848 0.35645 0.0
C348 C 0.36999 0.17724 0.45739 0.0
C349 C 0.34421 0.18214 0.48268 0.0
C350 C 0.38662 0.20247 0.44131 0.0
C351 C 0.37791 0.23351 0.44982 0.0
C352 C 0.35145 0.23854 0.47445 0.0
C353 C 0.33465 0.21309 0.49058 0.0
C354 C 0.42873 0.30911 0.44038 0.0
C355 C 0.44144 0.30637 0.40515 0.0
C356 C 0.40704 0.28615 0.45457 0.0
C357 C 0.39744 0.26007 0.43375 0.0
C358 C 0.40877 0.25839 0.39792 0.0
C359 C 0.43055 0.28109 0.3839 0.0
H360 H 0.27463 0.7911 0.88718 0.0
H361 H 0.29845 0.79017 1.00047 0.0
H362 H 0.32852 0.76663 0.87367 0.0
H363 H 0.35291 0.76569 0.98693 0.0
H364 H 0.42216 0.6834 0.94596 0.0
H365 H 0.37226 0.7132 0.96341 0.0
H366 H 0.38965 0.7773 0.87526 0.0
H367 H 0.43923 0.74761 0.85763 0.0
C368 C 0.29161 0.78588 0.90918 0.0
C369 C 0.28231 0.79241 0.94488 0.0
C370 C 0.32258 0.77204 0.90144 0.0
C371 C 0.345 0.76415 0.92923 0.0
C372 C 0.33605 0.77128 0.96497 0.0
C373 C 0.30508 0.78552 0.9727 0.0
C374 C 0.41549 0.70399 0.93045 0.0
C375 C 0.43468 0.71296 0.90025 0.0
C376 C 0.38702 0.72118 0.94062 0.0
C377 C 0.37693 0.74755 0.92064 0.0
C378 C 0.39654 0.7569 0.89098 0.0
C379 C 0.42507 0.7399 0.88097 0.0
H380 H 0.7566 0.25234 0.38596 0.0
H381 H 0.71937 0.22478 0.49059 0.0
H382 H 0.70159 0.27305 0.37053 0.0
H383 H 0.66352 0.2446 0.47462 0.0
H384 H 0.58507 0.32277 0.44885 0.0
H385 H 0.63639 0.29492 0.46532 0.0
H386 H 0.64478 0.2599 0.35667 0.0
H387 H 0.59415 0.28833 0.33999 0.0
C388 C 0.73649 0.2504 0.40557 0.0
C389 C 0.7425 0.23718 0.43965 0.0
C390 C 0.70476 0.262 0.39657 0.0
C391 C 0.67799 0.26063 0.42134 0.0
C392 C 0.68365 0.24641 0.45504 0.0
C393 C 0.71554 0.23471 0.46406 0.0
C394 C 0.5977 0.3089 0.42855 0.0
C395 C 0.58556 0.30805 0.393 0.0
C396 C 0.62707 0.29275 0.43806 0.0
C397 C 0.64496 0.27529 0.41229 0.0
C398 C 0.63208 0.27357 0.37708 0.0
C399 C 0.60288 0.2898 0.36755 0.0
H400 H 0.34595 0.4321 0.94121 0.0
H401 H 0.34943 0.48785 0.03773 0.0
H402 H 0.37807 0.47254 0.90893 0.0
H403 H 0.37972 0.52888 1.00557 0.0
H404 H 0.46974 0.57567 0.95628 0.0
H405 H 0.43419 0.53663 0.98415 0.0
H406 H 0.3805 0.52442 0.88399 0.0
H407 H 0.41758 0.56312 0.85532 0.0
C408 C 0.3532 0.45328 0.95525 0.0
C409 C 0.34579 0.45683 0.99196 0.0
C410 C 0.37139 0.47653 0.93681 0.0
C411 C 0.38204 0.50388 0.95473 0.0
C412 C 0.37294 0.50782 0.99109 0.0
C413 C 0.35538 0.48445 0.00954 0.0
C414 C 0.45029 0.56488 0.94006 0.0
C415 C 0.44644 0.57273 0.90354 0.0
C416 C 0.42962 0.5425 0.95621 0.0
C417 C 0.404 0.52755 0.93658 0.0
C418 C 0.40009 0.53529 0.89992 0.0
C419 C 0.4212 0.55758 0.88352 0.0
H420 H 0.6361 0.5931 0.48233 0.0
H421 H 0.72063 0.53049 0.49299 0.0
H422 H 0.6048 0.5526 0.45037 0.0
H423 H 0.68928 0.48974 0.46064 0.0
H424 H 0.60001 0.41684 0.44639 0.0
H425 H 0.63763 0.45614 0.47275 0.0
H426 H 0.60584 0.52339 0.39286 0.0
H427 H 0.56842 0.4846 0.36671 0.0
C428 C 0.6481 0.57075 0.47741 0.0
C429 C 0.6808 0.56497 0.49007 0.0
C430 C 0.63026 0.54758 0.45899 0.0
C431 C 0.64455 0.51792 0.45301 0.0
C432 C 0.67753 0.51228 0.46506 0.0
C433 C 0.69559 0.53568 0.48319 0.0
C434 C 0.60131 0.43992 0.43425 0.0
C435 C 0.58082 0.4476 0.40468 0.0
C436 C 0.62298 0.46237 0.44925 0.0
C437 C 0.62444 0.49297 0.43509 0.0
C438 C 0.6049 0.5002 0.40476 0.0
C439 C 0.58348 0.47784 0.3897 0.0
H440 H 0.69355 0.48864 0.02053 0.0
H441 H 0.64482 0.42725 0.94451 0.0
H442 H 0.66856 0.53403 0.99055 0.0
H443 H 0.61898 0.47206 0.91535 0.0
H444 H 0.59039 0.55616 0.8531 0.0
H445 H 0.62659 0.51615 0.87903 0.0
H446 H 0.61628 0.55951 0.98357 0.0
H447 H 0.5814 0.60043 0.95699 0.0
C448 C 0.67759 0.48492 0.9973 0.0
C449 C 0.67134 0.45443 0.9847 0.0
C450 C 0.6631 0.51088 0.98022 0.0
C451 C 0.64168 0.5069 0.95039 0.0
C452 C 0.63591 0.47631 0.93762 0.0
C453 C 0.65068 0.45048 0.95442 0.0
C454 C 0.59637 0.5574 0.88152 0.0
C455 C 0.58286 0.58126 0.90307 0.0
C456 C 0.6169 0.5343 0.8965 0.0
C457 C 0.62392 0.53407 0.93363 0.0
C458 C 0.61173 0.55893 0.95486 0.0
C459 C 0.59161 0.58241 0.93967 0.0
H460 H 0.33692 0.54632 0.51979 0.0
H461 H 0.37762 0.60515 0.43552 0.0
H462 H 0.36235 0.50049 0.49156 0.0
H463 H 0.40292 0.55945 0.40733 0.0
H464 H 0.45339 0.43864 0.45888 0.0
H465 H 0.41913 0.48057 0.48368 0.0
H466 H 0.39269 0.51023 0.37616 0.0
H467 H 0.42748 0.46854 0.35121 0.0
C468 C 0.35112 0.54946 0.49512 0.0
C469 C 0.35529 0.57947 0.48003 0.0
C470 C 0.36573 0.52319 0.47897 0.0
C471 C 0.38487 0.52626 0.44726 0.0
C472 C 0.38798 0.55611 0.43145 0.0
C473 C 0.3734 0.58237 0.44762 0.0
C474 C 0.44001 0.45385 0.44045 0.0
C475 C 0.44351 0.4503 0.403 0.0
C476 C 0.42016 0.47784 0.45473 0.0
C477 C 0.40327 0.49894 0.43194 0.0
C478 C 0.40575 0.49469 0.39449 0.0
C479 C 0.42556 0.47064 0.38019 0.0
H480 H 0.80933 0.97756 0.96989 0.0
H481 H 0.90069 0.92426 0.98499 0.0
H482 H 0.84129 0.0177 0.93746 0.0
H483 H 0.93254 0.96517 0.95411 0.0
H484 H 0.97577 0.067 0.95213 0.0
H485 H 0.94157 0.02421 0.9757 0.0
H486 H 0.88226 0.02428 0.87852 0.0
H487 H 0.91717 0.06705 0.8542 0.0
C488 C 0.83603 0.97402 0.96578 0.0
C489 C 0.85243 0.94772 0.98054 0.0
C490 C 0.8543 0.99713 0.94733 0.0
C491 C 0.88935 0.99462 0.9437 0.0
C492 C 0.90556 0.96781 0.95699 0.0
C493 C 0.88729 0.9445 0.97486 0.0
C494 C 0.95539 0.05808 0.93573 0.0
C495 C 0.94917 0.07046 0.90127 0.0
C496 C 0.93598 0.03341 0.94917 0.0
C497 C 0.9095 0.02087 0.9288 0.0
C498 C 0.90262 0.03359 0.89468 0.0
C499 C 0.92257 0.05796 0.88081 0.0
H500 H 0.15775 0.04007 0.54395 0.0
H501 H 0.19193 0.07877 0.4428 0.0
H502 H 0.12644 0.99986 0.512 0.0
H503 H 0.1613 0.03763 0.41057 0.0
H504 H 0.06555 0.98616 0.36943 0.0
H505 H 0.10304 0.02368 0.3981 0.0
H506 H 0.13215 0.95333 0.47573 0.0
H507 H 0.09405 0.91585 0.44746 0.0
C508 C 0.15863 0.03995 0.51481 0.0
C509 C 0.17696 0.06295 0.4959 0.0
C510 C 0.14102 0.01658 0.49647 0.0
C511 C 0.14127 0.01545 0.45866 0.0
C512 C 0.16026 0.03801 0.43969 0.0
C513 C 0.17803 0.06143 0.45813 0.0
C514 C 0.08008 0.97855 0.39247 0.0
C515 C 0.07644 0.94801 0.40633 0.0
C516 C 0.10182 1.00007 0.40878 0.0
C517 C 0.12052 0.99165 0.43938 0.0
C518 C 0.11772 0.96079 0.45255 0.0
C519 C 0.09597 0.93923 0.43622 0.0
H520 H 0.14629 0.92657 0.94303 0.0
H521 H 0.19447 0.9865 0.02101 0.0
H522 H 0.12115 0.97191 0.91444 0.0
H523 H 0.17002 0.03247 0.99163 0.0
H524 H 0.08254 0.09908 0.95891 0.0
H525 H 0.11756 0.05792 0.98477 0.0
H526 H 0.12912 0.01669 0.87926 0.0
H527 H 0.09281 0.05693 0.85399 0.0
C528 C 0.15226 0.94959 0.95348 0.0
C529 C 0.17253 0.95294 0.98417 0.0
C530 C 0.13785 0.97574 0.93701 0.0
C531 C 0.14354 1.00609 0.95054 0.0
C532 C 0.16465 1.0095 0.98071 0.0
C533 C 0.17883 0.9832 0.99745 0.0
C534 C 0.09304 0.08148 0.94122 0.0
C535 C 0.08459 0.08099 0.90452 0.0
C536 C 0.11325 0.05787 0.956 0.0
C537 C 0.12584 0.03353 0.93427 0.0
C538 C 0.11913 0.03443 0.89709 0.0
C539 C 0.09852 0.05766 0.88249 0.0
H540 H 0.90651 0.08131 0.50986 0.0
H541 H 0.81919 0.07791 0.44074 0.0
H542 H 0.92901 0.03516 0.48088 0.0
H543 H 0.84263 0.03136 0.41071 0.0
H544 H 0.92791 0.97209 0.34668 0.0
H545 H 0.89551 0.01548 0.37232 0.0
H546 H 0.91197 0.97822 0.4789 0.0
H547 H 0.94426 0.93521 0.4537 0.0
C548 C 0.89181 0.07047 0.48872 0.0
C549 C 0.86049 0.08288 0.47837 0.0
C550 C 0.90485 0.044 0.472 0.0
C551 C 0.88727 0.02923 0.44405 0.0
C552 C 0.85659 0.0422 0.43241 0.0
C553 C 0.84324 0.0688 0.44952 0.0
C554 C 0.92409 0.97285 0.37553 0.0
C555 C 0.93924 0.95042 0.39817 0.0
C556 C 0.90543 0.99765 0.39015 0.0
C557 C 0.90171 1.0005 0.42763 0.0
C558 C 0.91495 0.97695 0.44995 0.0
C559 C 0.93343 0.95224 0.43544 0.0
H560 H 0.3946 0.37948 0.07287 0.0
H561 H 0.30239 0.38977 0.13351 0.0
H562 H 0.42545 0.37101 0.12872 0.0
H563 H 0.33343 0.38016 0.18941 0.0
H564 H 0.41167 0.33742 0.277 0.0
H565 H 0.37611 0.33681 0.22269 0.0
H566 H 0.43219 0.41503 0.17967 0.0
H567 H 0.46689 0.41624 0.23332 0.0
C568 C 0.38079 0.37946 0.09803 0.0
C569 C 0.3461 0.38591 0.09869 0.0
C570 C 0.39846 0.37444 0.12996 0.0
C571 C 0.38182 0.37525 0.16329 0.0
C572 C 0.34677 0.37929 0.16398 0.0
C573 C 0.32904 0.38471 0.13195 0.0
C574 C 0.41617 0.35458 0.256 0.0
C575 C 0.44213 0.37686 0.25955 0.0
C576 C 0.39586 0.35422 0.22506 0.0
C577 C 0.40177 0.37565 0.19695 0.0
C578 C 0.4274 0.39801 0.20076 0.0
C579 C 0.44712 0.39878 0.23171 0.0
H580 H 0.63348 0.64493 0.57284 0.0
H581 H 0.71966 0.61833 0.63647 0.0
H582 H 0.60116 0.65392 0.62777 0.0
H583 H 0.68743 0.62769 0.69161 0.0
H584 H 0.60101 0.60264 0.7729 0.0
H585 H 0.6387 0.6007 0.72101 0.0
H586 H 0.5973 0.68774 0.68178 0.0
H587 H 0.55947 0.68968 0.73342 0.0
C588 C 0.64564 0.64148 0.59863 0.0
C589 C 0.67905 0.63088 0.60038 0.0
C590 C 0.62721 0.64678 0.63009 0.0
C591 C 0.64169 0.64136 0.66405 0.0
C592 C 0.6755 0.63178 0.66583 0.0
C593 C 0.69405 0.62676 0.6343 0.0
C594 C 0.60011 0.6215 0.75338 0.0
C595 C 0.57697 0.64616 0.75723 0.0
C596 C 0.62189 0.6205 0.72376 0.0
C597 C 0.62088 0.64401 0.69721 0.0
C598 C 0.59841 0.66909 0.70157 0.0
C599 C 0.57683 0.67023 0.73128 0.0
H600 H 0.66424 0.34231 0.09336 0.0
H601 H 0.68344 0.44036 0.11448 0.0
H602 H 0.6385 0.33694 0.15189 0.0
H603 H 0.65413 0.43568 0.1716 0.0
H604 H 0.61 0.41673 0.28206 0.0
H605 H 0.64859 0.41833 0.23073 0.0
H606 H 0.58727 0.34925 0.17632 0.0
H607 H 0.5504 0.34649 0.22798 0.0
C608 C 0.66347 0.36276 0.1105 0.0
C609 C 0.67572 0.39195 0.09852 0.0
C610 C 0.64786 0.35979 0.14404 0.0
C611 C 0.6431 0.38605 0.16632 0.0
C612 C 0.65713 0.41484 0.15538 0.0
C613 C 0.67354 0.41765 0.12214 0.0
C614 C 0.60512 0.40172 0.25917 0.0
C615 C 0.57723 0.38142 0.25915 0.0
C616 C 0.62712 0.40272 0.22962 0.0
C617 C 0.62137 0.38381 0.19915 0.0
C618 C 0.59337 0.36354 0.19945 0.0
C619 C 0.57188 0.36214 0.22911 0.0
H620 H 0.37266 0.68824 0.58626 0.0
H621 H 0.33203 0.59667 0.61044 0.0
H622 H 0.39651 0.69114 0.6465 0.0
H623 H 0.35564 0.59965 0.67099 0.0
H624 H 0.44724 0.59722 0.74766 0.0
H625 H 0.41182 0.59663 0.69456 0.0
H626 H 0.3878 0.69422 0.71109 0.0
H627 H 0.42409 0.69503 0.76418 0.0
C628 C 0.36803 0.66907 0.60477 0.0
C629 C 0.35062 0.64212 0.59344 0.0
C630 C 0.38173 0.67073 0.6394 0.0
C631 C 0.3783 0.6455 0.66357 0.0
C632 C 0.35933 0.61926 0.65285 0.0
C633 C 0.34573 0.61756 0.61819 0.0
C634 C 0.43417 0.61853 0.74031 0.0
C635 C 0.43888 0.64627 0.76006 0.0
C636 C 0.41356 0.61811 0.7099 0.0
C637 C 0.39699 0.64541 0.69836 0.0
C638 C 0.40055 0.67288 0.71895 0.0
C639 C 0.42119 0.67329 0.74952 0.0
H640 H 0.80569 0.89016 0.12808 0.0
H641 H 0.89726 0.87423 0.06793 0.0
H642 H 0.83639 0.88128 0.18434 0.0
H643 H 0.92784 0.86665 0.12413 0.0
H644 H 0.97066 0.9136 0.22789 0.0
H645 H 0.93635 0.91212 0.17384 0.0
H646 H 0.87727 0.83666 0.21877 0.0
H647 H 0.91242 0.83752 0.27337 0.0
C648 C 0.8321 0.88408 0.12672 0.0
C649 C 0.84911 0.88342 0.09342 0.0
C650 C 0.84964 0.87909 0.15897 0.0
C651 C 0.88447 0.87366 0.15845 0.0
C652 C 0.90103 0.87116 0.1252 0.0
C653 C 0.88352 0.8757 0.09307 0.0
C654 C 0.95032 0.8967 0.22654 0.0
C655 C 0.94429 0.87565 0.25502 0.0
C656 C 0.93083 0.89576 0.19541 0.0
C657 C 0.9044 0.87414 0.19211 0.0
C658 C 0.89761 0.8535 0.22076 0.0
C659 C 0.9177 0.85398 0.25186 0.0
H660 H 0.21992 0.12335 0.63554 0.0
H661 H 0.13184 0.149 0.57447 0.0
H662 H 0.18921 0.13305 0.69162 0.0
H663 H 0.10107 0.15846 0.63032 0.0
H664 H 0.0611 0.19316 0.73695 0.0
H665 H 0.09821 0.19219 0.68468 0.0
H666 H 0.14132 0.10527 0.72205 0.0
H667 H 0.10431 0.10621 0.77456 0.0
C668 C 0.19426 0.13177 0.63413 0.0
C669 C 0.17823 0.13543 0.60068 0.0
C670 C 0.17658 0.13698 0.66619 0.0
C671 C 0.14266 0.1463 0.66541 0.0
C672 C 0.12724 0.15151 0.63188 0.0
C673 C 0.14478 0.14599 0.59989 0.0
C674 C 0.07871 0.17397 0.7343 0.0
C675 C 0.07948 0.1496 0.75987 0.0
C676 C 0.0999 0.17339 0.70423 0.0
C677 C 0.12259 0.1486 0.69913 0.0
C678 C 0.12432 0.12485 0.72537 0.0
C679 C 0.10293 0.12529 0.75535 0.0
H680 H 0.19545 0.93168 0.11686 0.0
H681 H 0.145 0.84646 0.08533 0.0
H682 H 0.16975 0.92797 0.17655 0.0
H683 H 0.11839 0.8432 0.14404 0.0
H684 H 0.08564 0.83265 0.25751 0.0
H685 H 0.12313 0.83404 0.20565 0.0
H686 H 0.11704 0.93519 0.20407 0.0
H687 H 0.08092 0.93368 0.25707 0.0
C688 C 0.17907 0.91203 0.12286 0.0
C689 C 0.17238 0.88929 0.09651 0.0
C690 C 0.16412 0.90998 0.15695 0.0
C691 C 0.14175 0.88535 0.16531 0.0
C692 C 0.13593 0.86217 0.13911 0.0
C693 C 0.15118 0.86403 0.10527 0.0
C694 C 0.09272 0.85519 0.24633 0.0
C695 C 0.08009 0.88303 0.26117 0.0
C696 C 0.11405 0.85601 0.2164 0.0
C697 C 0.12282 0.8847 0.20009 0.0
C698 C 0.11125 0.91264 0.21596 0.0
C699 C 0.09034 0.91181 0.24632 0.0
H700 H 0.90648 0.1176 0.57918 0.0
H701 H 0.81996 0.1711 0.61334 0.0
H702 H 0.92942 0.12017 0.63939 0.0
H703 H 0.84385 0.1743 0.67438 0.0
H704 H 0.93093 0.19835 0.76224 0.0
H705 H 0.89748 0.19725 0.70675 0.0
H706 H 0.91236 0.09735 0.69941 0.0
H707 H 0.94568 0.09831 0.75419 0.0
C708 C 0.89203 0.12957 0.59969 0.0
C709 C 0.86084 0.14339 0.59156 0.0
C710 C 0.90533 0.13114 0.63425 0.0
C711 C 0.88812 0.14689 0.66177 0.0
C712 C 0.85752 0.16184 0.65365 0.0
C713 C 0.84391 0.16003 0.61879 0.0
C714 C 0.92648 0.17608 0.74913 0.0
C715 C 0.94156 0.1485 0.76224 0.0
C716 C 0.90726 0.17548 0.71745 0.0
C717 C 0.90287 0.14731 0.69847 0.0
C718 C 0.9159 0.1195 0.7131 0.0
C719 C 0.93499 0.12008 0.74453 0.0
loop_
_geom_bond_atom_site_label_1
_geom_bond_atom_site_label_2
_geom_bond_distance
_geom_bond_site_symmetry_2
_ccdc_geom_bond_type
H0 C1 0.949 . S
C1 H0 0.949 . S
C1 C2 1.397 . S
C1 C3 1.391 1_556 S
C2 C1 1.397 . S
C2 C5 1.375 1_556 S
C3 C1 1.391 1_554 S
C3 C7 1.387 . S
C3 C8 1.491 . S
H4 C5 0.950 . S
C5 C2 1.375 1_554 S
C5 H4 0.950 . S
C5 C6 1.378 . S
C6 C5 1.378 . S
C6 C7 1.409 . S
C7 C3 1.387 . S
C7 C6 1.409 . S
C7 H9 0.951 . S
C8 C3 1.491 . S
C8 C10 1.382 1_554 S
C8 C12 1.404 . S
H9 C7 0.951 . S
C10 C8 1.382 1_556 S
C10 C11 1.390 . S
C10 H15 0.949 . S
C11 C10 1.390 . S
C11 C16 1.399 1_556 S
C12 C8 1.404 . S
C12 H13 0.950 . S
C12 C14 1.375 . S
H13 C12 0.950 . S
C14 C12 1.375 . S
C14 C16 1.382 . S
C14 H18 0.950 . S
H15 C10 0.949 . S
C16 C11 1.399 1_554 S
C16 C14 1.382 . S
C16 H17 0.952 . S
H17 C16 0.952 . S
H18 C14 0.950 . S
H19 C20 0.949 . S
C20 H19 0.949 . S
C20 C21 1.395 . S
C20 C22 1.391 . S
C21 C20 1.395 . S
C21 C24 1.390 . S
C22 C20 1.391 . S
C22 C26 1.387 . S
C22 C27 1.491 . S
H23 C24 0.950 . S
C24 C21 1.390 . S
C24 H23 0.950 . S
C24 C25 1.378 . S
C25 C24 1.378 . S
C25 C26 1.409 . S
C26 C22 1.387 . S
C26 C25 1.409 . S
C26 H28 0.951 . S
C27 C22 1.491 . S
C27 C29 1.382 . S
C27 C31 1.404 . S
H28 C26 0.951 . S
C29 C27 1.382 . S
C29 C30 1.390 . S
C29 H34 0.949 . S
C30 C29 1.390 . S
C30 C35 1.399 . S
C31 C27 1.404 . S
C31 H32 0.950 . S
C31 C33 1.375 . S
H32 C31 0.950 . S
C33 C31 1.375 . S
C33 C35 1.382 . S
C33 H37 0.950 . S
H34 C29 0.949 . S
C35 C30 1.399 . S
C35 C33 1.382 . S
C35 H36 0.952 . S
H36 C35 0.952 . S
H37 C33 0.950 . S
H38 C39 0.949 . S
C39 H38 0.949 . S
C39 C40 1.395 . S
C39 C41 1.391 1_556 S
C40 C39 1.395 . S
C40 C43 1.390 1_556 S
C41 C39 1.391 1_554 S
C41 C45 1.387 . S
C41 C46 1.491 . S
H42 C43 0.950 . S
C43 C40 1.390 1_554 S
C43 H42 0.950 . S
C43 C44 1.378 . S
C44 C43 1.378 . S
C44 C45 1.409 . S
C45 C41 1.387 . S
C45 C44 1.409 . S
C45 H47 0.951 . S
C46 C41 1.491 . S
C46 C48 1.382 1_554 S
C46 C50 1.404 . S
H47 C45 0.951 . S
C48 C46 1.382 1_556 S
C48 C49 1.390 . S
C48 H53 0.949 . S
C49 C48 1.390 . S
C49 C54 1.399 . S
C50 C46 1.404 . S
C50 H51 0.950 . S
C50 C52 1.375 . S
H51 C50 0.950 . S
C52 C50 1.375 . S
C52 C54 1.382 1_554 S
C52 H56 0.950 . S
H53 C48 0.949 . S
C54 C49 1.399 . S
C54 C52 1.382 1_556 S
C54 H55 0.952 . S
H55 C54 0.952 . S
H56 C52 0.950 . S
H57 C58 0.949 . S
C58 H57 0.949 . S
C58 C59 1.395 . S
C58 C60 1.391 . S
C59 C58 1.395 . S
C59 C62 1.390 . S
C60 C58 1.391 . S
C60 C64 1.387 . S
C60 C65 1.491 . S
H61 C62 0.950 . S
C62 C59 1.390 . S
C62 H61 0.950 . S
C62 C63 1.378 . S
C63 C62 1.378 . S
C63 C64 1.409 . S
C64 C60 1.387 . S
C64 C63 1.409 . S
C64 H66 0.951 . S
C65 C60 1.491 . S
C65 C67 1.382 . S
C65 C69 1.404 . S
H66 C64 0.951 . S
C67 C65 1.382 . S
C67 C68 1.390 . S
C67 H72 0.949 . S
C68 C67 1.390 . S
C68 C73 1.399 . S
C69 C65 1.404 . S
C69 H70 0.950 . S
C69 C71 1.375 . S
H70 C69 0.950 . S
C71 C69 1.375 . S
C71 C73 1.382 . S
C71 H75 0.950 . S
H72 C67 0.949 . S
C73 C68 1.399 . S
C73 C71 1.382 . S
C73 H74 0.952 . S
H74 C73 0.952 . S
H75 C71 0.950 . S
H76 C77 0.949 . S
C77 H76 0.949 . S
C77 C78 1.397 . S
C77 C79 1.391 1_556 S
C78 C77 1.397 . S
C78 C81 1.375 1_556 S
C79 C77 1.391 1_554 S
C79 C83 1.387 . S
C79 C84 1.491 . S
H80 C81 0.950 . S
C81 C78 1.375 1_554 S
C81 H80 0.950 . S
C81 C82 1.378 . S
C82 C81 1.378 . S
C82 C83 1.409 . S
C83 C79 1.387 . S
C83 C82 1.409 . S
C83 H85 0.951 . S
C84 C79 1.491 . S
C84 C86 1.382 1_554 S
C84 C88 1.404 . S
H85 C83 0.951 . S
C86 C84 1.382 1_556 S
C86 C87 1.390 . S
C86 H91 0.949 . S
C87 C86 1.390 . S
C87 C92 1.399 1_556 S
C88 C84 1.404 . S
C88 H89 0.950 . S
C88 C90 1.375 . S
H89 C88 0.950 . S
C90 C88 1.375 . S
C90 C92 1.382 . S
C90 H94 0.950 . S
H91 C86 0.949 . S
C92 C87 1.399 1_554 S
C92 C90 1.382 . S
C92 H93 0.952 . S
H93 C92 0.952 . S
H94 C90 0.950 . S
H95 C96 0.949 . S
C96 H95 0.949 . S
C96 C97 1.395 . S
C96 C98 1.391 . S
C97 C96 1.395 . S
C97 C100 1.390 . S
C98 C96 1.391 . S
C98 C102 1.387 . S
C98 C103 1.491 . S
H99 C100 0.950 . S
C100 C97 1.390 . S
C100 H99 0.950 . S
C100 C101 1.378 . S
C101 C100 1.378 . S
C101 C102 1.409 . S
C102 C98 1.387 . S
C102 C101 1.409 . S
C102 H104 0.951 . S
C103 C98 1.491 . S
C103 C105 1.382 . S
C103 C107 1.404 . S
H104 C102 0.951 . S
C105 C103 1.382 . S
C105 C106 1.390 . S
C105 H110 0.949 . S
C106 C105 1.390 . S
C106 C111 1.399 . S
C107 C103 1.404 . S
C107 H108 0.950 . S
C107 C109 1.375 . S
H108 C107 0.950 . S
C109 C107 1.375 . S
C109 C111 1.382 . S
C109 H113 0.950 . S
H110 C105 0.949 . S
C111 C106 1.399 . S
C111 C109 1.382 . S
C111 H112 0.952 . S
H112 C111 0.952 . S
H113 C109 0.950 . S
H114 C115 0.949 . S
C115 H114 0.949 . S
C115 C116 1.395 . S
C115 C117 1.391 1_556 S
C116 C115 1.395 . S
C116 C119 1.390 1_556 S
C117 C115 1.391 1_554 S
C117 C121 1.387 . S
C117 C122 1.491 . S
H118 C119 0.950 . S
C119 C116 1.390 1_554 S
C119 H118 0.950 . S
C119 C120 1.378 . S
C120 C119 1.378 . S
C120 C121 1.409 . S
C121 C117 1.387 . S
C121 C120 1.409 . S
C121 H123 0.951 . S
C122 C117 1.491 . S
C122 C124 1.382 1_554 S
C122 C126 1.404 . S
H123 C121 0.951 . S
C124 C122 1.382 1_556 S
C124 C125 1.390 . S
C124 H129 0.949 . S
C125 C124 1.390 . S
C125 C130 1.399 . S
C126 C122 1.404 . S
C126 H127 0.950 . S
C126 C128 1.375 . S
H127 C126 0.950 . S
C128 C126 1.375 . S
C128 C130 1.382 1_554 S
C128 H132 0.950 . S
H129 C124 0.949 . S
C130 C125 1.399 . S
C130 C128 1.382 1_556 S
C130 H131 0.952 . S
H131 C130 0.952 . S
H132 C128 0.950 . S
H133 C134 0.949 . S
C134 H133 0.949 . S
C134 C135 1.395 . S
C134 C136 1.391 . S
C135 C134 1.395 . S
C135 C138 1.390 . S
C136 C134 1.391 . S
C136 C140 1.387 . S
C136 C141 1.491 . S
H137 C138 0.950 . S
C138 C135 1.390 . S
C138 H137 0.950 . S
C138 C139 1.378 . S
C139 C138 1.378 . S
C139 C140 1.409 . S
C140 C136 1.387 . S
C140 C139 1.409 . S
C140 H142 0.951 . S
C141 C136 1.491 . S
C141 C143 1.382 . S
C141 C145 1.404 . S
H142 C140 0.951 . S
C143 C141 1.382 . S
C143 C144 1.390 . S
C143 H148 0.949 . S
C144 C143 1.390 . S
C144 C149 1.399 . S
C145 C141 1.404 . S
C145 H146 0.950 . S
C145 C147 1.375 . S
H146 C145 0.950 . S
C147 C145 1.375 . S
C147 C149 1.382 . S
C147 H151 0.950 . S
H148 C143 0.949 . S
C149 C144 1.399 . S
C149 C147 1.382 . S
C149 H150 0.952 . S
H150 C149 0.952 . S
H151 C147 0.950 . S
Fe152 O154 1.918 . S
Fe152 O157 1.997 1_455 S
Fe152 O158 2.002 1_455 S
Fe152 O163 1.976 . S
Fe152 O166 1.996 . S
Fe153 O154 1.918 . S
Fe153 O161 1.997 1_455 S
Fe153 O164 1.996 . S
Fe153 O168 1.976 . S
Fe153 O171 2.002 1_455 S
O154 Fe152 1.918 . S
O154 Fe153 1.918 . S
O154 Fe155 1.918 . S
Fe155 O154 1.918 . S
Fe155 O156 2.002 1_455 S
Fe155 O165 1.976 . S
Fe155 O169 1.996 . S
Fe155 O172 1.997 1_455 S
O156 Fe155 2.002 1_655 S
O156 C173 1.295 . S
O157 Fe152 1.997 1_655 S
O157 C173 1.235 . S
O158 Fe152 2.002 1_655 S
O158 C159 1.295 . S
C159 O158 1.295 . S
C159 O161 1.235 . S
C160 O165 1.287 . S
C160 O166 1.255 . S
O161 Fe153 1.997 1_655 S
O161 C159 1.235 . S
C162 O168 1.287 . S
C162 O169 1.255 . S
O163 Fe152 1.976 . S
O163 C170 1.287 . S
O164 Fe153 1.996 . S
O164 C170 1.255 . S
O165 Fe155 1.976 . S
O165 C160 1.287 . S
O166 Fe152 1.996 . S
O166 C160 1.255 . S
C167 O171 1.295 . S
C167 O172 1.235 . S
O168 Fe153 1.976 . S
O168 C162 1.287 . S
O169 Fe155 1.996 . S
O169 C162 1.255 . S
C170 O163 1.287 . S
C170 O164 1.255 . S
O171 Fe153 2.002 1_655 S
O171 C167 1.295 . S
O172 Fe155 1.997 1_655 S
O172 C167 1.235 . S
C173 O156 1.295 . S
C173 O157 1.235 . S
Fe174 O176 1.918 . S
Fe174 O179 1.997 1_655 S
Fe174 O180 2.002 1_655 S
Fe174 O185 1.976 . S
Fe174 O188 1.996 . S
Fe175 O176 1.918 . S
Fe175 O183 1.997 1_655 S
Fe175 O186 1.996 . S
Fe175 O190 1.976 . S
Fe175 O193 2.002 1_655 S
O176 Fe174 1.918 . S
O176 Fe175 1.918 . S
O176 Fe177 1.918 . S
Fe177 O176 1.918 . S
Fe177 O178 2.002 1_655 S
Fe177 O187 1.976 . S
Fe177 O191 1.996 . S
Fe177 O194 1.997 1_655 S
O178 Fe177 2.002 1_455 S
O178 C195 1.295 . S
O179 Fe174 1.997 1_455 S
O179 C195 1.235 . S
O180 Fe174 2.002 1_455 S
O180 C181 1.295 . S
C181 O180 1.295 . S
C181 O183 1.235 . S
C182 O187 1.287 . S
C182 O188 1.255 . S
O183 Fe175 1.997 1_455 S
O183 C181 1.235 . S
C184 O190 1.287 . S
C184 O191 1.255 . S
O185 Fe174 1.976 . S
O185 C192 1.287 . S
O186 Fe175 1.996 . S
O186 C192 1.255 . S
O187 Fe177 1.976 . S
O187 C182 1.287 . S
O188 Fe174 1.996 . S
O188 C182 1.255 . S
C189 O193 1.295 . S
C189 O194 1.235 . S
O190 Fe175 1.976 . S
O190 C184 1.287 . S
O191 Fe177 1.996 . S
O191 C184 1.255 . S
C192 O185 1.287 . S
C192 O186 1.255 . S
O193 Fe175 2.002 1_455 S
O193 C189 1.295 . S
O194 Fe177 1.997 1_455 S
O194 C189 1.235 . S
C195 O178 1.295 . S
C195 O179 1.235 . S
Fe196 O198 1.918 . S
Fe196 O201 1.997 . S
Fe196 O202 2.002 . S
Fe196 O207 1.976 . S
Fe196 O210 1.996 . S
Fe197 O198 1.918 . S
Fe197 O205 1.997 . S
Fe197 O208 1.996 . S
Fe197 O212 1.976 . S
Fe197 O215 2.002 . S
O198 Fe196 1.918 . S
O198 Fe197 1.918 . S
O198 Fe199 1.918 . S
Fe199 O198 1.918 . S
Fe199 O200 2.002 . S
Fe199 O209 1.976 . S
Fe199 O213 1.996 . S
Fe199 O216 1.997 . S
O200 Fe199 2.002 . S
O200 C217 1.295 . S
O201 Fe196 1.997 . S
O201 C217 1.235 . S
O202 Fe196 2.002 . S
O202 C203 1.295 . S
C203 O202 1.295 . S
C203 O205 1.235 . S
C204 O209 1.287 . S
C204 O210 1.255 . S
O205 Fe197 1.997 . S
O205 C203 1.235 . S
C206 O212 1.287 . S
C206 O213 1.255 . S
O207 Fe196 1.976 . S
O207 C214 1.287 . S
O208 Fe197 1.996 . S
O208 C214 1.255 . S
O209 Fe199 1.976 . S
O209 C204 1.287 . S
O210 Fe196 1.996 . S
O210 C204 1.255 . S
C211 O215 1.295 . S
C211 O216 1.235 . S
O212 Fe197 1.976 . S
O212 C206 1.287 . S
O213 Fe199 1.996 . S
O213 C206 1.255 . S
C214 O207 1.287 . S
C214 O208 1.255 . S
O215 Fe197 2.002 . S
O215 C211 1.295 . S
O216 Fe199 1.997 . S
O216 C211 1.235 . S
C217 O200 1.295 . S
C217 O201 1.235 . S
Fe218 O220 1.918 . S
Fe218 O223 1.997 . S
Fe218 O224 2.002 . S
Fe218 O229 1.976 . S
Fe218 O232 1.996 . S
Fe219 O220 1.918 . S
Fe219 O227 1.997 . S
Fe219 O230 1.996 . S
Fe219 O234 1.976 . S
Fe219 O237 2.002 . S
O220 Fe218 1.918 . S
O220 Fe219 1.918 . S
O220 Fe221 1.918 . S
Fe221 O220 1.918 . S
Fe221 O222 2.002 . S
Fe221 O231 1.976 . S
Fe221 O235 1.996 . S
Fe221 O238 1.997 . S
O222 Fe221 2.002 . S
O222 C239 1.295 . S
O223 Fe218 1.997 . S
O223 C239 1.235 . S
O224 Fe218 2.002 . S
O224 C225 1.295 . S
C225 O224 1.295 . S
C225 O227 1.235 . S
C226 O231 1.287 . S
C226 O232 1.255 . S
O227 Fe219 1.997 . S
O227 C225 1.235 . S
C228 O234 1.287 . S
C228 O235 1.255 . S
O229 Fe218 1.976 . S
O229 C236 1.287 . S
O230 Fe219 1.996 . S
O230 C236 1.255 . S
O231 Fe221 1.976 . S
O231 C226 1.287 . S
O232 Fe218 1.996 . S
O232 C226 1.255 . S
C233 O237 1.295 . S
C233 O238 1.235 . S
O234 Fe219 1.976 . S
O234 C228 1.287 . S
O235 Fe221 1.996 . S
O235 C228 1.255 . S
C236 O229 1.287 . S
C236 O230 1.255 . S
O237 Fe219 2.002 . S
O237 C233 1.295 . S
O238 Fe221 1.997 . S
O238 C233 1.235 . S
C239 O222 1.295 . S
C239 O223 1.235 . S
H240 C248 0.950 . S
H241 C253 0.950 . S
H242 C250 0.950 . S
H243 C252 0.950 . S
H244 C254 0.950 . S
H245 C256 0.950 . S
H246 C258 0.950 . S
H247 C259 0.950 . S
C248 H240 0.950 . S
C248 C249 1.386 . S
C248 C250 1.391 . S
C249 C248 1.386 . S
C249 C253 1.393 . S
C250 H242 0.950 . S
C250 C248 1.391 . S
C250 C251 1.400 . S
C251 C250 1.400 . S
C251 C252 1.398 . S
C251 C257 1.491 . S
C252 H243 0.950 . S
C252 C251 1.398 . S
C252 C253 1.391 . S
C253 H241 0.950 . S
C253 C249 1.393 . S
C253 C252 1.391 . S
C254 H244 0.950 . S
C254 C255 1.386 . S
C254 C256 1.391 . S
C255 C254 1.386 . S
C255 C259 1.393 . S
C256 H245 0.950 . S
C256 C254 1.391 . S
C256 C257 1.400 . S
C257 C251 1.491 . S
C257 C256 1.400 . S
C257 C258 1.398 . S
C258 H246 0.950 . S
C258 C257 1.398 . S
C258 C259 1.391 . S
C259 H247 0.950 . S
C259 C255 1.393 . S
C259 C258 1.391 . S
H260 C268 0.950 . S
H261 C273 0.950 . S
H262 C270 0.950 . S
H263 C272 0.950 . S
H264 C274 0.950 . S
H265 C276 0.950 . S
H266 C278 0.950 . S
H267 C279 0.950 . S
C268 H260 0.950 . S
C268 C269 1.386 . S
C268 C270 1.391 . S
C269 C268 1.386 . S
C269 C273 1.393 . S
C270 H262 0.950 . S
C270 C268 1.391 . S
C270 C271 1.400 . S
C271 C270 1.400 . S
C271 C272 1.398 . S
C271 C277 1.491 . S
C272 H263 0.950 . S
C272 C271 1.398 . S
C272 C273 1.391 . S
C273 H261 0.950 . S
C273 C269 1.393 . S
C273 C272 1.391 . S
C274 H264 0.950 . S
C274 C275 1.386 . S
C274 C276 1.391 . S
C275 C274 1.386 . S
C275 C279 1.393 . S
C276 H265 0.950 . S
C276 C274 1.391 . S
C276 C277 1.400 . S
C277 C271 1.491 . S
C277 C276 1.400 . S
C277 C278 1.398 . S
C278 H266 0.950 . S
C278 C277 1.398 . S
C278 C279 1.391 . S
C279 H267 0.950 . S
C279 C275 1.393 . S
C279 C278 1.391 . S
H280 C288 0.923 1_554 S
H281 C293 0.950 . S
H282 C290 0.950 . S
H283 C292 0.950 . S
H284 C294 0.950 . S
H285 C296 0.950 . S
H286 C298 0.950 . S
H287 C299 0.950 . S
C288 H280 0.923 1_556 S
C288 C289 1.386 . S
C288 C290 1.391 . S
C289 C288 1.386 . S
C289 C293 1.393 . S
C290 H282 0.950 . S
C290 C288 1.391 . S
C290 C291 1.400 . S
C291 C290 1.400 . S
C291 C292 1.398 . S
C291 C297 1.491 . S
C292 H283 0.950 . S
C292 C291 1.398 . S
C292 C293 1.391 . S
C293 H281 0.950 . S
C293 C289 1.393 . S
C293 C292 1.391 . S
C294 H284 0.950 . S
C294 C295 1.386 . S
C294 C296 1.391 . S
C295 C294 1.386 . S
C295 C299 1.393 . S
C296 H285 0.950 . S
C296 C294 1.391 . S
C296 C297 1.400 . S
C297 C291 1.491 . S
C297 C296 1.400 . S
C297 C298 1.398 . S
C298 H286 0.950 . S
C298 C297 1.398 . S
C298 C299 1.391 . S
C299 H287 0.950 . S
C299 C295 1.393 . S
C299 C298 1.391 . S
H300 C308 0.950 . S
H301 C313 0.950 . S
H302 C310 0.950 . S
H303 C312 0.950 . S
H304 C314 0.950 . S
H305 C316 0.950 . S
H306 C318 0.950 . S
H307 C319 0.950 . S
C308 H300 0.950 . S
C308 C309 1.386 . S
C308 C310 1.391 . S
C309 C308 1.386 . S
C309 C313 1.393 . S
C310 H302 0.950 . S
C310 C308 1.391 . S
C310 C311 1.400 . S
C311 C310 1.400 . S
C311 C312 1.398 . S
C311 C317 1.491 . S
C312 H303 0.950 . S
C312 C311 1.398 . S
C312 C313 1.391 . S
C313 H301 0.950 . S
C313 C309 1.393 . S
C313 C312 1.391 . S
C314 H304 0.950 . S
C314 C315 1.386 . S
C314 C316 1.391 . S
C315 C314 1.386 . S
C315 C319 1.393 . S
C316 H305 0.950 . S
C316 C314 1.391 . S
C316 C317 1.400 . S
C317 C311 1.491 . S
C317 C316 1.400 . S
C317 C318 1.398 . S
C318 H306 0.950 . S
C318 C317 1.398 . S
C318 C319 1.391 . S
C319 H307 0.950 . S
C319 C315 1.393 . S
C319 C318 1.391 . S
H320 C328 0.950 . S
H321 C333 0.950 . S
H322 C330 0.950 . S
H323 C332 0.950 . S
H324 C334 0.950 . S
H325 C336 0.950 . S
H326 C338 0.950 . S
H327 C339 0.950 . S
C328 H320 0.950 . S
C328 C329 1.386 . S
C328 C330 1.391 . S
C329 C328 1.386 . S
C329 C333 1.393 . S
C330 H322 0.950 . S
C330 C328 1.391 . S
C330 C331 1.400 . S
C331 C330 1.400 . S
C331 C332 1.398 . S
C331 C337 1.491 . S
C332 H323 0.950 . S
C332 C331 1.398 . S
C332 C333 1.391 . S
C333 H321 0.950 . S
C333 C329 1.393 . S
C333 C332 1.391 . S
C334 H324 0.950 . S
C334 C335 1.386 . S
C334 C336 1.391 . S
C335 C334 1.386 . S
C335 C339 1.393 . S
C336 H325 0.950 . S
C336 C334 1.391 . S
C336 C337 1.400 . S
C337 C331 1.491 . S
C337 C336 1.400 . S
C337 C338 1.398 . S
C338 H326 0.950 . S
C338 C337 1.398 . S
C338 C339 1.391 . S
C339 H327 0.950 . S
C339 C335 1.393 . S
C339 C338 1.391 . S
H340 C348 0.950 . S
H341 C353 0.950 . S
H342 C350 0.950 . S
H343 C352 0.950 . S
H344 C354 0.950 . S
H345 C356 0.950 . S
H346 C358 0.950 . S
H347 C359 0.950 . S
C348 H340 0.950 . S
C348 C349 1.386 . S
C348 C350 1.391 . S
C349 C348 1.386 . S
C349 C353 1.393 . S
C350 H342 0.950 . S
C350 C348 1.391 . S
C350 C351 1.400 . S
C351 C350 1.400 . S
C351 C352 1.398 . S
C351 C357 1.491 . S
C352 H343 0.950 . S
C352 C351 1.398 . S
C352 C353 1.391 . S
C353 H341 0.950 . S
C353 C349 1.393 . S
C353 C352 1.391 . S
C354 H344 0.950 . S
C354 C355 1.386 . S
C354 C356 1.391 . S
C355 C354 1.386 . S
C355 C359 1.393 . S
C356 H345 0.950 . S
C356 C354 1.391 . S
C356 C357 1.400 . S
C357 C351 1.491 . S
C357 C356 1.400 . S
C357 C358 1.398 . S
C358 H346 0.950 . S
C358 C357 1.398 . S
C358 C359 1.391 . S
C359 H347 0.950 . S
C359 C355 1.393 . S
C359 C358 1.391 . S
H360 C368 0.950 . S
H361 C373 0.950 . S
H362 C370 0.950 . S
H363 C372 0.950 . S
H364 C374 0.950 . S
H365 C376 0.950 . S
H366 C378 0.950 . S
H367 C379 0.950 . S
C368 H360 0.950 . S
C368 C369 1.386 . S
C368 C370 1.391 . S
C369 C368 1.386 . S
C369 C373 1.393 . S
C370 H362 0.950 . S
C370 C368 1.391 . S
C370 C371 1.400 . S
C371 C370 1.400 . S
C371 C372 1.398 . S
C371 C377 1.491 . S
C372 H363 0.950 . S
C372 C371 1.398 . S
C372 C373 1.391 . S
C373 H361 0.950 . S
C373 C369 1.393 . S
C373 C372 1.391 . S
C374 H364 0.950 . S
C374 C375 1.386 . S
C374 C376 1.391 . S
C375 C374 1.386 . S
C375 C379 1.393 . S
C376 H365 0.950 . S
C376 C374 1.391 . S
C376 C377 1.400 . S
C377 C371 1.491 . S
C377 C376 1.400 . S
C377 C378 1.398 . S
C378 H366 0.950 . S
C378 C377 1.398 . S
C378 C379 1.391 . S
C379 H367 0.950 . S
C379 C375 1.393 . S
C379 C378 1.391 . S
H380 C388 0.950 . S
H381 C393 0.950 . S
H382 C390 0.950 . S
H383 C392 0.950 . S
H384 C394 0.950 . S
H385 C396 0.950 . S
H386 C398 0.950 . S
H387 C399 0.950 . S
C388 H380 0.950 . S
C388 C389 1.386 . S
C388 C390 1.391 . S
C389 C388 1.386 . S
C389 C393 1.393 . S
C390 H382 0.950 . S
C390 C388 1.391 . S
C390 C391 1.400 . S
C391 C390 1.400 . S
C391 C392 1.398 . S
C391 C397 1.491 . S
C392 H383 0.950 . S
C392 C391 1.398 . S
C392 C393 1.391 . S
C393 H381 0.950 . S
C393 C389 1.393 . S
C393 C392 1.391 . S
C394 H384 0.950 . S
C394 C395 1.386 . S
C394 C396 1.391 . S
C395 C394 1.386 . S
C395 C399 1.393 . S
C396 H385 0.950 . S
C396 C394 1.391 . S
C396 C397 1.400 . S
C397 C391 1.491 . S
C397 C396 1.400 . S
C397 C398 1.398 . S
C398 H386 0.950 . S
C398 C397 1.398 . S
C398 C399 1.391 . S
C399 H387 0.950 . S
C399 C395 1.393 . S
C399 C398 1.391 . S
H400 C408 0.950 . S
H401 C413 0.950 1_554 S
H402 C410 0.950 . S
H403 C412 0.950 . S
H404 C414 0.950 . S
H405 C416 0.950 . S
H406 C418 0.950 . S
H407 C419 0.950 . S
C408 H400 0.950 . S
C408 C409 1.386 . S
C408 C410 1.391 . S
C409 C408 1.386 . S
C409 C413 1.393 . S
C410 H402 0.950 . S
C410 C408 1.391 . S
C410 C411 1.400 . S
C411 C410 1.400 . S
C411 C412 1.398 . S
C411 C417 1.491 . S
C412 H403 0.950 . S
C412 C411 1.398 . S
C412 C413 1.391 . S
C413 H401 0.950 1_556 S
C413 C409 1.393 . S
C413 C412 1.391 . S
C414 H404 0.950 . S
C414 C415 1.386 . S
C414 C416 1.391 . S
C415 C414 1.386 . S
C415 C419 1.393 . S
C416 H405 0.950 . S
C416 C414 1.391 . S
C416 C417 1.400 . S
C417 C411 1.491 . S
C417 C416 1.400 . S
C417 C418 1.398 . S
C418 H406 0.950 . S
C418 C417 1.398 . S
C418 C419 1.391 . S
C419 H407 0.950 . S
C419 C415 1.393 . S
C419 C418 1.391 . S
H420 C428 0.950 . S
H421 C433 0.950 . S
H422 C430 0.950 . S
H423 C432 0.950 . S
H424 C434 0.950 . S
H425 C436 0.950 . S
H426 C438 0.950 . S
H427 C439 0.950 . S
C428 H420 0.950 . S
C428 C429 1.386 . S
C428 C430 1.391 . S
C429 C428 1.386 . S
C429 C433 1.393 . S
C430 H422 0.950 . S
C430 C428 1.391 . S
C430 C431 1.400 . S
C431 C430 1.400 . S
C431 C432 1.398 . S
C431 C437 1.491 . S
C432 H423 0.950 . S
C432 C431 1.398 . S
C432 C433 1.391 . S
C433 H421 0.950 . S
C433 C429 1.393 . S
C433 C432 1.391 . S
C434 H424 0.950 . S
C434 C435 1.386 . S
C434 C436 1.391 . S
C435 C434 1.386 . S
C435 C439 1.393 . S
C436 H425 0.950 . S
C436 C434 1.391 . S
C436 C437 1.400 . S
C437 C431 1.491 . S
C437 C436 1.400 . S
C437 C438 1.398 . S
C438 H426 0.950 . S
C438 C437 1.398 . S
C438 C439 1.391 . S
C439 H427 0.950 . S
C439 C435 1.393 . S
C439 C438 1.391 . S
H440 C448 0.950 1_554 S
H441 C453 0.950 . S
H442 C450 0.950 . S
H443 C452 0.950 . S
H444 C454 0.950 . S
H445 C456 0.950 . S
H446 C458 0.950 . S
H447 C459 0.950 . S
C448 H440 0.950 1_556 S
C448 C449 1.386 . S
C448 C450 1.391 . S
C449 C448 1.386 . S
C449 C453 1.393 . S
C450 H442 0.950 . S
C450 C448 1.391 . S
C450 C451 1.400 . S
C451 C450 1.400 . S
C451 C452 1.398 . S
C451 C457 1.491 . S
C452 H443 0.950 . S
C452 C451 1.398 . S
C452 C453 1.391 . S
C453 H441 0.950 . S
C453 C449 1.393 . S
C453 C452 1.391 . S
C454 H444 0.950 . S
C454 C455 1.386 . S
C454 C456 1.391 . S
C455 C454 1.386 . S
C455 C459 1.393 . S
C456 H445 0.950 . S
C456 C454 1.391 . S
C456 C457 1.400 . S
C457 C451 1.491 . S
C457 C456 1.400 . S
C457 C458 1.398 . S
C458 H446 0.950 . S
C458 C457 1.398 . S
C458 C459 1.391 . S
C459 H447 0.950 . S
C459 C455 1.393 . S
C459 C458 1.391 . S
H460 C468 0.950 . S
H461 C473 0.950 . S
H462 C470 0.950 . S
H463 C472 0.950 . S
H464 C474 0.950 . S
H465 C476 0.950 . S
H466 C478 0.950 . S
H467 C479 0.950 . S
C468 H460 0.950 . S
C468 C469 1.386 . S
C468 C470 1.391 . S
C469 C468 1.386 . S
C469 C473 1.393 . S
C470 H462 0.950 . S
C470 C468 1.391 . S
C470 C471 1.400 . S
C471 C470 1.400 . S
C471 C472 1.398 . S
C471 C477 1.491 . S
C472 H463 0.950 . S
C472 C471 1.398 . S
C472 C473 1.391 . S
C473 H461 0.950 . S
C473 C469 1.393 . S
C473 C472 1.391 . S
C474 H464 0.950 . S
C474 C475 1.386 . S
C474 C476 1.391 . S
C475 C474 1.386 . S
C475 C479 1.393 . S
C476 H465 0.950 . S
C476 C474 1.391 . S
C476 C477 1.400 . S
C477 C471 1.491 . S
C477 C476 1.400 . S
C477 C478 1.398 . S
C478 H466 0.950 . S
C478 C477 1.398 . S
C478 C479 1.391 . S
C479 H467 0.950 . S
C479 C475 1.393 . S
C479 C478 1.391 . S
H480 C488 0.950 . S
H481 C493 0.950 1_554 S
H482 C490 0.950 . S
H483 C492 0.950 . S
H484 C494 0.950 . S
H485 C496 0.950 . S
H486 C498 0.950 . S
H487 C499 0.950 . S
C488 H480 0.950 . S
C488 C489 1.386 . S
C488 C490 1.391 . S
C489 C488 1.386 . S
C489 C493 1.393 . S
C490 H482 0.950 . S
C490 C488 1.391 . S
C490 C491 1.400 . S
C491 C490 1.400 . S
C491 C492 1.398 . S
C491 C497 1.491 . S
C492 H483 0.950 . S
C492 C491 1.398 . S
C492 C493 1.391 . S
C493 H481 0.950 1_556 S
C493 C489 1.393 . S
C493 C492 1.391 . S
C494 H484 0.950 . S
C494 C495 1.386 . S
C494 C496 1.391 1_545 S
C495 C494 1.386 . S
C495 C499 1.393 . S
C496 H485 0.950 . S
C496 C494 1.391 1_565 S
C496 C497 1.400 . S
C497 C491 1.491 . S
C497 C496 1.400 . S
C497 C498 1.398 1_565 S
C498 H486 0.950 . S
C498 C497 1.398 1_545 S
C498 C499 1.391 . S
C499 H487 0.950 . S
C499 C495 1.393 . S
C499 C498 1.391 . S
H500 C508 0.950 . S
H501 C513 0.950 . S
H502 C510 0.950 . S
H503 C512 0.950 . S
H504 C514 0.944 1_545 S
H505 C516 0.950 . S
H506 C518 0.950 . S
H507 C519 0.950 . S
C508 H500 0.950 . S
C508 C509 1.386 . S
C508 C510 1.391 . S
C509 C508 1.386 . S
C509 C513 1.393 . S
C510 H502 0.950 . S
C510 C508 1.391 . S
C510 C511 1.400 . S
C511 C510 1.400 . S
C511 C512 1.398 . S
C511 C517 1.491 . S
C512 H503 0.950 . S
C512 C511 1.398 . S
C512 C513 1.391 . S
C513 H501 0.950 . S
C513 C509 1.393 . S
C513 C512 1.391 . S
C514 H504 0.944 1_565 S
C514 C515 1.386 . S
C514 C516 1.391 1_565 S
C515 C514 1.386 . S
C515 C519 1.393 . S
C516 H505 0.950 . S
C516 C514 1.391 1_545 S
C516 C517 1.400 . S
C517 C511 1.491 . S
C517 C516 1.400 . S
C517 C518 1.398 1_545 S
C518 H506 0.950 . S
C518 C517 1.398 1_565 S
C518 C519 1.391 . S
C519 H507 0.950 . S
C519 C515 1.393 . S
C519 C518 1.391 . S
H520 C528 0.950 . S
H521 C533 0.950 . S
H522 C530 0.950 . S
H523 C532 0.950 1_545 S
H524 C534 0.950 . S
H525 C536 0.950 . S
H526 C538 0.950 . S
H527 C539 0.950 1_565 S
C528 H520 0.950 . S
C528 C529 1.386 . S
C528 C530 1.391 . S
C529 C528 1.386 . S
C529 C533 1.393 . S
C530 H522 0.950 . S
C530 C528 1.391 . S
C530 C531 1.400 . S
C531 C530 1.400 . S
C531 C532 1.398 . S
C531 C537 1.491 . S
C532 H523 0.950 1_565 S
C532 C531 1.398 . S
C532 C533 1.391 . S
C533 H521 0.950 . S
C533 C529 1.393 . S
C533 C532 1.391 . S
C534 H524 0.950 . S
C534 C535 1.386 . S
C534 C536 1.391 . S
C535 C534 1.386 . S
C535 C539 1.393 . S
C536 H525 0.950 . S
C536 C534 1.391 . S
C536 C537 1.400 1_545 S
C537 C531 1.491 . S
C537 C536 1.400 1_565 S
C537 C538 1.398 . S
C538 H526 0.950 . S
C538 C537 1.398 . S
C538 C539 1.391 1_565 S
C539 H527 0.950 1_545 S
C539 C535 1.393 . S
C539 C538 1.391 1_545 S
H540 C548 0.950 . S
H541 C553 0.950 . S
H542 C550 0.950 . S
H543 C552 0.950 . S
H544 C554 0.950 . S
H545 C556 0.956 . S
H546 C558 0.950 . S
H547 C559 0.950 . S
C548 H540 0.950 . S
C548 C549 1.386 . S
C548 C550 1.391 . S
C549 C548 1.386 . S
C549 C553 1.393 . S
C550 H542 0.950 . S
C550 C548 1.391 . S
C550 C551 1.400 . S
C551 C550 1.400 . S
C551 C552 1.398 . S
C551 C557 1.491 . S
C552 H543 0.950 . S
C552 C551 1.398 . S
C552 C553 1.391 . S
C553 H541 0.950 . S
C553 C549 1.393 . S
C553 C552 1.391 . S
C554 H544 0.950 . S
C554 C555 1.386 . S
C554 C556 1.383 1_565 S
C555 C554 1.386 . S
C555 C559 1.393 . S
C556 H545 0.956 . S
C556 C554 1.383 1_545 S
C556 C557 1.403 . S
C557 C551 1.491 . S
C557 C556 1.403 . S
C557 C558 1.398 1_545 S
C558 H546 0.950 . S
C558 C557 1.398 1_565 S
C558 C559 1.391 . S
C559 H547 0.950 . S
C559 C555 1.393 . S
C559 C558 1.391 . S
H560 C568 0.950 . S
H561 C573 0.950 . S
H562 C570 0.950 . S
H563 C572 0.950 . S
H564 C574 0.950 . S
H565 C576 0.950 . S
H566 C578 0.950 . S
H567 C579 0.950 . S
C568 H560 0.950 . S
C568 C569 1.386 . S
C568 C570 1.391 . S
C569 C568 1.386 . S
C569 C573 1.393 . S
C570 H562 0.950 . S
C570 C568 1.391 . S
C570 C571 1.400 . S
C571 C570 1.400 . S
C571 C572 1.398 . S
C571 C577 1.491 . S
C572 H563 0.950 . S
C572 C571 1.398 . S
C572 C573 1.391 . S
C573 H561 0.950 . S
C573 C569 1.393 . S
C573 C572 1.391 . S
C574 H564 0.950 . S
C574 C575 1.386 . S
C574 C576 1.391 . S
C575 C574 1.386 . S
C575 C579 1.393 . S
C576 H565 0.950 . S
C576 C574 1.391 . S
C576 C577 1.400 . S
C577 C571 1.491 . S
C577 C576 1.400 . S
C577 C578 1.398 . S
C578 H566 0.950 . S
C578 C577 1.398 . S
C578 C579 1.391 . S
C579 H567 0.950 . S
C579 C575 1.393 . S
C579 C578 1.391 . S
H580 C588 0.950 . S
H581 C593 0.950 . S
H582 C590 0.950 . S
H583 C592 0.950 . S
H584 C594 0.950 . S
H585 C596 0.950 . S
H586 C598 0.950 . S
H587 C599 0.950 . S
C588 H580 0.950 . S
C588 C589 1.386 . S
C588 C590 1.391 . S
C589 C588 1.386 . S
C589 C593 1.393 . S
C590 H582 0.950 . S
C590 C588 1.391 . S
C590 C591 1.400 . S
C591 C590 1.400 . S
C591 C592 1.398 . S
C591 C597 1.491 . S
C592 H583 0.950 . S
C592 C591 1.398 . S
C592 C593 1.391 . S
C593 H581 0.950 . S
C593 C589 1.393 . S
C593 C592 1.391 . S
C594 H584 0.950 . S
C594 C595 1.386 . S
C594 C596 1.391 . S
C595 C594 1.386 . S
C595 C599 1.393 . S
C596 H585 0.950 . S
C596 C594 1.391 . S
C596 C597 1.400 . S
C597 C591 1.491 . S
C597 C596 1.400 . S
C597 C598 1.398 . S
C598 H586 0.950 . S
C598 C597 1.398 . S
C598 C599 1.391 . S
C599 H587 0.950 . S
C599 C595 1.393 . S
C599 C598 1.391 . S
H600 C608 0.950 . S
H601 C613 0.950 . S
H602 C610 0.950 . S
H603 C612 0.950 . S
H604 C614 0.950 . S
H605 C616 0.950 . S
H606 C618 0.950 . S
H607 C619 0.950 . S
C608 H600 0.950 . S
C608 C609 1.386 . S
C608 C610 1.391 . S
C609 C608 1.386 . S
C609 C613 1.393 . S
C610 H602 0.950 . S
C610 C608 1.391 . S
C610 C611 1.400 . S
C611 C610 1.400 . S
C611 C612 1.398 . S
C611 C617 1.491 . S
C612 H603 0.950 . S
C612 C611 1.398 . S
C612 C613 1.391 . S
C613 H601 0.950 . S
C613 C609 1.393 . S
C613 C612 1.391 . S
C614 H604 0.950 . S
C614 C615 1.386 . S
C614 C616 1.391 . S
C615 C614 1.386 . S
C615 C619 1.393 . S
C616 H605 0.950 . S
C616 C614 1.391 . S
C616 C617 1.400 . S
C617 C611 1.491 . S
C617 C616 1.400 . S
C617 C618 1.398 . S
C618 H606 0.950 . S
C618 C617 1.398 . S
C618 C619 1.391 . S
C619 H607 0.950 . S
C619 C615 1.393 . S
C619 C618 1.391 . S
H620 C628 0.950 . S
H621 C633 0.950 . S
H622 C630 0.950 . S
H623 C632 0.950 . S
H624 C634 0.950 . S
H625 C636 0.950 . S
H626 C638 0.950 . S
H627 C639 0.950 . S
C628 H620 0.950 . S
C628 C629 1.386 . S
C628 C630 1.391 . S
C629 C628 1.386 . S
C629 C633 1.393 . S
C630 H622 0.950 . S
C630 C628 1.391 . S
C630 C631 1.400 . S
C631 C630 1.400 . S
C631 C632 1.398 . S
C631 C637 1.491 . S
C632 H623 0.950 . S
C632 C631 1.398 . S
C632 C633 1.391 . S
C633 H621 0.950 . S
C633 C629 1.393 . S
C633 C632 1.391 . S
C634 H624 0.950 . S
C634 C635 1.386 . S
C634 C636 1.391 . S
C635 C634 1.386 . S
C635 C639 1.393 . S
C636 H625 0.950 . S
C636 C634 1.391 . S
C636 C637 1.400 . S
C637 C631 1.491 . S
C637 C636 1.400 . S
C637 C638 1.398 . S
C638 H626 0.950 . S
C638 C637 1.398 . S
C638 C639 1.391 . S
C639 H627 0.950 . S
C639 C635 1.393 . S
C639 C638 1.391 . S
H640 C648 0.950 . S
H641 C653 0.950 . S
H642 C650 0.950 . S
H643 C652 0.950 . S
H644 C654 0.950 . S
H645 C656 0.950 . S
H646 C658 0.950 . S
H647 C659 0.950 . S
C648 H640 0.950 . S
C648 C649 1.386 . S
C648 C650 1.391 . S
C649 C648 1.386 . S
C649 C653 1.393 . S
C650 H642 0.950 . S
C650 C648 1.391 . S
C650 C651 1.400 . S
C651 C650 1.400 . S
C651 C652 1.398 . S
C651 C657 1.491 . S
C652 H643 0.950 . S
C652 C651 1.398 . S
C652 C653 1.391 . S
C653 H641 0.950 . S
C653 C649 1.393 . S
C653 C652 1.391 . S
C654 H644 0.950 . S
C654 C655 1.386 . S
C654 C656 1.391 . S
C655 C654 1.386 . S
C655 C659 1.393 . S
C656 H645 0.950 . S
C656 C654 1.391 . S
C656 C657 1.400 . S
C657 C651 1.491 . S
C657 C656 1.400 . S
C657 C658 1.398 . S
C658 H646 0.950 . S
C658 C657 1.398 . S
C658 C659 1.391 . S
C659 H647 0.950 . S
C659 C655 1.393 . S
C659 C658 1.391 . S
H660 C668 0.950 . S
H661 C673 0.950 . S
H662 C670 0.950 . S
H663 C672 0.950 . S
H664 C674 0.950 . S
H665 C676 0.950 . S
H666 C678 0.950 . S
H667 C679 0.950 . S
C668 H660 0.950 . S
C668 C669 1.386 . S
C668 C670 1.391 . S
C669 C668 1.386 . S
C669 C673 1.393 . S
C670 H662 0.950 . S
C670 C668 1.391 . S
C670 C671 1.400 . S
C671 C670 1.400 . S
C671 C672 1.398 . S
C671 C677 1.491 . S
C672 H663 0.950 . S
C672 C671 1.398 . S
C672 C673 1.391 . S
C673 H661 0.950 . S
C673 C669 1.393 . S
C673 C672 1.391 . S
C674 H664 0.950 . S
C674 C675 1.386 . S
C674 C676 1.391 . S
C675 C674 1.386 . S
C675 C679 1.393 . S
C676 H665 0.950 . S
C676 C674 1.391 . S
C676 C677 1.400 . S
C677 C671 1.491 . S
C677 C676 1.400 . S
C677 C678 1.398 . S
C678 H666 0.950 . S
C678 C677 1.398 . S
C678 C679 1.391 . S
C679 H667 0.950 . S
C679 C675 1.393 . S
C679 C678 1.391 . S
H680 C688 0.950 . S
H681 C693 0.950 . S
H682 C690 0.950 . S
H683 C692 0.950 . S
H684 C694 0.950 . S
H685 C696 0.950 . S
H686 C698 0.950 . S
H687 C699 0.950 . S
C688 H680 0.950 . S
C688 C689 1.386 . S
C688 C690 1.391 . S
C689 C688 1.386 . S
C689 C693 1.393 . S
C690 H682 0.950 . S
C690 C688 1.391 . S
C690 C691 1.400 . S
C691 C690 1.400 . S
C691 C692 1.398 . S
C691 C697 1.491 . S
C692 H683 0.950 . S
C692 C691 1.398 . S
C692 C693 1.391 . S
C693 H681 0.950 . S
C693 C689 1.393 . S
C693 C692 1.391 . S
C694 H684 0.950 . S
C694 C695 1.386 . S
C694 C696 1.391 . S
C695 C694 1.386 . S
C695 C699 1.393 . S
C696 H685 0.950 . S
C696 C694 1.391 . S
C696 C697 1.400 . S
C697 C691 1.491 . S
C697 C696 1.400 . S
C697 C698 1.398 . S
C698 H686 0.950 . S
C698 C697 1.398 . S
C698 C699 1.391 . S
C699 H687 0.950 . S
C699 C695 1.393 . S
C699 C698 1.391 . S
H700 C708 0.950 . S
H701 C713 0.950 . S
H702 C710 0.950 . S
H703 C712 0.950 . S
H704 C714 0.950 . S
H705 C716 0.950 . S
H706 C718 0.950 . S
H707 C719 0.950 . S
C708 H700 0.950 . S
C708 C709 1.386 . S
C708 C710 1.391 . S
C709 C708 1.386 . S
C709 C713 1.393 . S
C710 H702 0.950 . S
C710 C708 1.391 . S
C710 C711 1.400 . S
C711 C710 1.400 . S
C711 C712 1.398 . S
C711 C717 1.491 . S
C712 H703 0.950 . S
C712 C711 1.398 . S
C712 C713 1.391 . S
C713 H701 0.950 . S
C713 C709 1.393 . S
C713 C712 1.391 . S
C714 H704 0.950 . S
C714 C715 1.386 . S
C714 C716 1.391 . S
C715 C714 1.386 . S
C715 C719 1.393 . S
C716 H705 0.950 . S
C716 C714 1.391 . S
C716 C717 1.400 . S
C717 C711 1.491 . S
C717 C716 1.400 . S
C717 C718 1.398 . S
C718 H706 0.950 . S
C718 C717 1.398 . S
C718 C719 1.391 . S
C719 H707 0.950 . S
C719 C715 1.393 . S
C719 C718 1.391 . S
C249 C11 1.485 . S
C255 C195 1.563 . S
C275 C159 1.562 . S
C269 C30 1.463 . S
C295 C182 1.561 . S
C289 C49 1.373 . S
C315 C170 1.566 . S
C309 C68 1.406 . S
C335 C239 1.551 . S
C329 C87 1.491 . S
C355 C203 1.551 . S
C349 C106 1.490 . S
C369 C125 1.408 . S
C375 C226 1.567 . S
C395 C214 1.568 . S
C389 C144 1.399 . S
C409 C2 1.565 . S
C415 C236 1.595 . S
C435 C206 1.594 . S
C429 C21 1.560 . S
C449 C40 1.583 . S
C455 C225 1.612 . S
C469 C59 1.581 . S
C475 C211 1.612 . S
C495 C192 1.596 . S
C489 C78 1.557 . S
C509 C97 1.542 . S
C515 C162 1.596 . S
C535 C181 1.620 . S
C529 C116 1.564 . S
C555 C167 1.613 . S
C549 C135 1.581 . S
C575 C217 1.567 . S
C569 C6 1.574 . S
C595 C233 1.573 . S
C589 C25 1.569 . S
C609 C44 1.534 . S
C615 C204 1.540 . S
C635 C228 1.539 . S
C629 C63 1.535 . S
C655 C173 1.572 . S
C649 C82 1.570 . S
C669 C101 1.576 . S
C675 C189 1.564 . S
C689 C120 1.527 . S
C695 C160 1.541 . S
C709 C139 1.526 . S
C715 C184 1.542 . S
