# Generated by pormake.
# Topology anh, (6,3)-cn, num edge types: 1
# Building blocks:
#     Node 0, Type 0, BuildingBlock: BETFEN_clean_sbu_0, # of connection points: 6
#     Node 1, Type 0, BuildingBlock: BETFEN_clean_sbu_0, # of connection points: 6
#     Node 2, Type 0, BuildingBlock: BETFEN_clean_sbu_0, # of connection points: 6
#     Node 3, Type 1, BuildingBlock: BETDAH_clean_linker_0, # of connection points: 3
#     Node 4, Type 1, BuildingBlock: BETDAH_clean_linker_0, # of connection points: 3
#     Node 5, Type 1, BuildingBlock: BETDAH_clean_linker_0, # of connection points: 3
#     Node 6, Type 1, BuildingBlock: BETDAH_clean_linker_0, # of connection points: 3
#     Node 7, Type 1, BuildingBlock: BETDAH_clean_linker_0, # of connection points: 3
#     Node 8, Type 1, BuildingBlock: BETDAH_clean_linker_0, # of connection points: 3
#     Edge 9, Type (0, 1), BuildingBlock: MIFKUJ_clean_linker_0, # of connection points: 2
#     Edge 10, Type (0, 1), BuildingBlock: MIFKUJ_clean_linker_0, # of connection points: 2
#     Edge 11, Type (0, 1), BuildingBlock: MIFKUJ_clean_linker_0, # of connection points: 2
#     Edge 12, Type (0, 1), BuildingBlock: MIFKUJ_clean_linker_0, # of connection points: 2
#     Edge 13, Type (0, 1), BuildingBlock: MIFKUJ_clean_linker_0, # of connection points: 2
#     Edge 14, Type (0, 1), BuildingBlock: MIFKUJ_clean_linker_0, # of connection points: 2
#     Edge 15, Type (0, 1), BuildingBlock: MIFKUJ_clean_linker_0, # of connection points: 2
#     Edge 16, Type (0, 1), BuildingBlock: MIFKUJ_clean_linker_0, # of connection points: 2
#     Edge 17, Type (0, 1), BuildingBlock: MIFKUJ_clean_linker_0, # of connection points: 2
#     Edge 18, Type (0, 1), BuildingBlock: MIFKUJ_clean_linker_0, # of connection points: 2
#     Edge 19, Type (0, 1), BuildingBlock: MIFKUJ_clean_linker_0, # of connection points: 2
#     Edge 20, Type (0, 1), BuildingBlock: MIFKUJ_clean_linker_0, # of connection points: 2
#     Edge 21, Type (0, 1), BuildingBlock: MIFKUJ_clean_linker_0, # of connection points: 2
#     Edge 22, Type (0, 1), BuildingBlock: MIFKUJ_clean_linker_0, # of connection points: 2
#     Edge 23, Type (0, 1), BuildingBlock: MIFKUJ_clean_linker_0, # of connection points: 2
#     Edge 24, Type (0, 1), BuildingBlock: MIFKUJ_clean_linker_0, # of connection points: 2
#     Edge 25, Type (0, 1), BuildingBlock: MIFKUJ_clean_linker_0, # of connection points: 2
#     Edge 26, Type (0, 1), BuildingBlock: MIFKUJ_clean_linker_0, # of connection points: 2
# Relax obj value: 0.121
# Max RMSD: 0.168
# Mean RMSD: 0.107
data_MOF--net-anh--node1-BETFEN_clean_sbu_0--node2-BETDAH_clean_linker_0--edge1-MIFKUJ_clean_linker_0
_symmetry_space_group_name_H-M    P1
_symmetry_Int_Tables_number       1
_symmetry_cell_setting            triclinic
loop_
_symmetry_equiv_pos_as_xyz
'x, y, z'
_cell_length_a     39.396179
_cell_length_b     41.659279
_cell_length_c     64.586237
_cell_angle_alpha  92.684048
_cell_angle_beta   95.078192
_cell_angle_gamma 107.50069
loop_
_atom_site_label
_atom_site_type_symbol
_atom_site_fract_x
_atom_site_fract_y
_atom_site_fract_z
_atom_type_partial_charge
Pr0 Pr 0.02197 0.56501 0.15545 0.0
Pr1 Pr 0.05263 0.64323 0.15706 0.0
C2 C 0.98341 0.50546 0.16729 0.0
C3 C 0.94538 0.48432 0.16304 0.0
C4 C 0.93278 0.46307 0.14462 0.0
C5 C 0.89781 0.44092 0.14187 0.0
C6 C 0.87475 0.43964 0.15744 0.0
C7 C 0.88643 0.46265 0.17509 0.0
C8 C 0.92141 0.48464 0.1779 0.0
C9 C 0.02096 0.58286 0.11425 0.0
C10 C 0.9661 0.61238 0.15108 0.0
C11 C 0.09318 0.70627 0.15222 0.0
C12 C 0.13164 0.7257 0.15576 0.0
C13 C 0.14521 0.74584 0.17448 0.0
C14 C 0.18024 0.76734 0.17711 0.0
C15 C 0.20239 0.76914 0.1611 0.0
C16 C 0.18993 0.74752 0.14292 0.0
C17 C 0.15467 0.72596 0.14021 0.0
C18 C 0.03746 0.61716 0.19517 0.0
C19 C 0.10978 0.59671 0.15808 0.0
O20 O 0.98938 0.53397 0.17857 0.0
O21 O 1.00398 0.50779 0.15214 0.0
O22 O 0.03169 0.60303 0.13031 0.0
O23 O 1.00973 0.55194 0.11926 0.0
O24 O 0.99268 0.63942 0.14826 0.0
O25 O 0.97137 0.58365 0.15569 0.0
O26 O 0.08304 0.68259 0.1369 0.0
O27 O 0.07662 0.69797 0.16879 0.0
O28 O 0.05297 0.60522 0.18178 0.0
O29 O 0.02963 0.64364 0.18911 0.0
O30 O 0.08293 0.5682 0.15727 0.0
O31 O 0.10458 0.62659 0.15859 0.0
H32 H 0.95023 0.46266 0.13263 0.0
H33 H 0.88925 0.42377 0.12794 0.0
H34 H 0.86932 0.46218 0.18739 0.0
H35 H 0.93009 0.50101 0.19214 0.0
H36 H 0.12836 0.74605 0.18682 0.0
H37 H 0.18957 0.78379 0.19129 0.0
H38 H 0.20671 0.74875 0.13037 0.0
H39 H 0.1451 0.71055 0.12566 0.0
Pr40 Pr 0.55892 0.08665 0.49985 0.0
Pr41 Pr 0.47401 0.0557 0.49765 0.0
C42 C 0.62805 0.11595 0.49566 0.0
C43 C 0.6504 0.15194 0.49759 0.0
C44 C 0.67323 0.16609 0.51589 0.0
C45 C 0.69513 0.19971 0.51734 0.0
C46 C 0.69486 0.21985 0.50048 0.0
C47 C 0.67084 0.20606 0.48258 0.0
C48 C 0.64886 0.17264 0.48118 0.0
C49 C 0.52911 0.08692 0.53691 0.0
C50 C 0.51098 0.14256 0.5013 0.0
C51 C 0.40721 1.0224 0.50542 0.0
C52 C 0.38508 0.98642 0.50236 0.0
C53 C 0.36608 0.97253 0.48286 0.0
C54 C 0.34465 0.93881 0.48028 0.0
C55 C 0.3416 0.91855 0.49715 0.0
C56 C 0.36104 0.93193 0.51646 0.0
C57 C 0.38276 0.96553 0.51902 0.0
C58 C 0.49465 0.06213 0.45723 0.0
C59 C 0.52324 0.99931 0.4999 0.0
O60 O 0.6034 0.10622 0.47963 0.0
O61 O 0.61733 0.10274 0.51289 0.0
O62 O 0.52014 0.06312 0.52292 0.0
O63 O 0.55603 0.11138 0.53241 0.0
O64 O 0.48307 0.1164 0.50522 0.0
O65 O 0.54048 0.13654 0.49572 0.0
O66 O 0.43462 0.03013 0.51977 0.0
O67 O 0.41413 0.03864 0.48867 0.0
O68 O 0.51446 0.06979 0.47407 0.0
O69 O 0.46171 0.04903 0.46077 0.0
O70 O 0.55285 1.02591 0.49946 0.0
O71 O 0.49128 1.00455 0.49926 0.0
H72 H 0.67453 0.15105 0.52899 0.0
H73 H 0.71266 0.20977 0.53156 0.0
H74 H 0.66994 0.22057 0.46918 0.0
H75 H 0.6312 0.1629 0.46698 0.0
H76 H 0.36729 0.98777 0.46966 0.0
H77 H 0.32948 0.92885 0.46531 0.0
H78 H 0.35891 0.91651 0.52963 0.0
H79 H 0.39727 0.97532 0.53417 0.0
Pr80 Pr 0.54459 0.50727 0.8326 0.0
Pr81 Pr 0.5791 0.58359 0.83592 0.0
C82 C 0.52667 0.44361 0.82065 0.0
C83 C 0.55458 0.42792 0.82556 0.0
C84 C 0.5543 0.41028 0.84355 0.0
C85 C 0.58217 0.3974 0.84902 0.0
C86 C 0.60907 0.40033 0.83572 0.0
C87 C 0.61352 0.42396 0.82074 0.0
C88 C 0.58554 0.43652 0.81502 0.0
C89 C 0.55767 0.52888 0.87541 0.0
C90 C 0.63403 0.53831 0.83781 0.0
C91 C 0.60378 0.6456 0.85246 0.0
C92 C 0.58052 0.66655 0.85088 0.0
C93 C 0.56892 0.67438 0.83109 0.0
C94 C 0.54178 0.68886 0.82896 0.0
C95 C 0.52691 0.69656 0.84667 0.0
C96 C 0.53542 0.68548 0.86595 0.0
C97 C 0.56277 0.67112 0.86815 0.0
C98 C 0.5644 0.56515 0.79288 0.0
C99 C 0.4895 0.55268 0.83335 0.0
O100 O 0.53361 0.466 0.80678 0.0
O101 O 0.51362 0.45331 0.83693 0.0
O102 O 0.5648 0.54653 0.86016 0.0
O103 O 0.54259 0.49773 0.86847 0.0
O104 O 0.63084 0.56852 0.84049 0.0
O105 O 0.60599 0.51116 0.83339 0.0
O106 O 0.59228 0.62039 0.86397 0.0
O107 O 0.61435 0.63714 0.8349 0.0
O108 O 0.55734 0.54451 0.80701 0.0
O109 O 0.5781 0.59587 0.80106 0.0
O110 O 0.49225 0.52231 0.8295 0.0
O111 O 0.51792 0.57993 0.83697 0.0
H112 H 0.53206 0.40544 0.85293 0.0
H113 H 0.57908 0.38018 0.8613 0.0
H114 H 0.6348 0.42715 0.81073 0.0
H115 H 0.58787 0.45206 0.80191 0.0
H116 H 0.58091 0.66972 0.81724 0.0
H117 H 0.53566 0.69784 0.81401 0.0
H118 H 0.52408 0.69174 0.8797 0.0
H119 H 0.57008 0.66361 0.88333 0.0
H120 H 0.48531 0.05276 0.23908 0.0
H121 H 0.59273 0.11932 0.2389 0.0
H122 H 0.53534 0.06286 0.18246 0.0
C123 C 0.50764 0.06534 0.23066 0.0
C124 C 0.5063 0.05662 0.20943 0.0
C125 C 0.53891 0.08737 0.24154 0.0
C126 C 0.56806 0.1029 0.23058 0.0
C127 C 0.56636 0.09416 0.20909 0.0
C128 C 0.53578 0.07074 0.19875 0.0
N129 N 0.59651 0.10502 0.19805 0.0
C130 C 0.61614 0.13857 0.19793 0.0
H131 H 0.53226 0.49913 0.56482 0.0
H132 H 0.53935 0.60378 0.56044 0.0
H133 H 0.5194 0.53575 0.50461 0.0
C134 C 0.5318 0.51957 0.5553 0.0
C135 C 0.52523 0.5119 0.53362 0.0
C136 C 0.53735 0.55191 0.56536 0.0
C137 C 0.53538 0.57894 0.55298 0.0
C138 C 0.52888 0.57414 0.5309 0.0
C139 C 0.52437 0.54017 0.5214 0.0
N140 N 0.5267 0.60195 0.51787 0.0
C141 C 0.52865 0.63716 0.52202 0.0
H142 H 1.00415 0.58 0.89778 0.0
H143 H 0.10261 0.55977 0.88951 0.0
H144 H 0.02122 0.54303 0.83749 0.0
C145 C 0.02046 0.57127 0.88756 0.0
C146 C 1.00701 0.55984 0.86684 0.0
C147 C 0.05339 0.56896 0.8962 0.0
C148 C 0.07687 0.56121 0.88298 0.0
C149 C 0.06578 0.55344 0.86142 0.0
C150 C 0.03042 0.5516 0.85368 0.0
N151 N 0.08815 0.54517 0.8472 0.0
C152 C 0.12486 0.54965 0.85094 0.0
H153 H 0.06673 0.6264 0.41411 0.0
H154 H 0.99427 0.52725 0.41968 0.0
H155 H 0.05503 0.58773 0.47423 0.0
C156 C 0.05338 0.6067 0.4237 0.0
C157 C 0.06249 0.61066 0.44522 0.0
C158 C 0.02871 0.57685 0.41432 0.0
C159 C 1.01234 0.55097 0.42685 0.0
C160 C 0.02197 0.55528 0.44864 0.0
C161 C 0.04681 0.58508 0.45759 0.0
N162 N 1.01076 0.52916 0.46197 0.0
C163 C 0.97758 0.50505 0.45982 0.0
H164 H 0.51136 0.0694 0.75969 0.0
H165 H 0.60068 0.03495 0.74864 0.0
H166 H 0.58485 0.05913 0.81068 0.0
C167 C 0.53389 0.06198 0.76591 0.0
C168 C 0.54502 0.06643 0.78749 0.0
C169 C 0.55397 0.05141 0.7517 0.0
C170 C 0.58531 0.04447 0.7591 0.0
C171 C 0.59656 0.04852 0.78021 0.0
C172 C 0.57573 0.05786 0.79433 0.0
N173 N 0.62622 0.03857 0.78761 0.0
C174 C 0.61878 1.0137 0.80123 0.0
H175 H 0.60852 0.59507 0.09508 0.0
H176 H 0.5017 0.59755 0.10204 0.0
H177 H 0.57411 0.59633 0.15615 0.0
C178 C 0.58794 0.59579 0.10503 0.0
C179 C 0.59532 0.59522 0.12655 0.0
C180 C 0.55469 0.59686 0.09593 0.0
C181 C 0.52765 0.59711 0.1089 0.0
C182 C 0.53475 0.59729 0.13081 0.0
C183 C 0.56874 0.59657 0.13942 0.0
N184 N 0.50885 0.59779 0.14487 0.0
C185 C 0.47414 0.59957 0.14014 0.0
H186 H 0.13411 0.54997 0.13789 0.0
H187 H 0.19639 0.55341 0.13402 0.0
H188 H 0.23284 0.64633 0.17344 0.0
H189 H 0.17057 0.64379 0.17643 0.0
H190 H 0.27375 0.65192 0.14281 0.0
H191 H 0.23781 0.57052 0.19246 0.0
H192 H 0.19396 0.52126 0.2047 0.0
H193 H 0.20423 0.45923 0.15206 0.0
H194 H 0.24794 0.50829 0.13942 0.0
H195 H 0.454 0.64618 0.16193 0.0
H196 H 0.39282 0.64696 0.1657 0.0
H197 H 0.35111 0.55768 0.12328 0.0
H198 H 0.41254 0.55665 0.11985 0.0
H199 H 0.31379 0.55215 0.15692 0.0
H200 H 0.35278 0.63774 0.10838 0.0
H201 H 0.39544 0.68926 0.09769 0.0
H202 H 0.38027 0.74616 0.15137 0.0
H203 H 0.33784 0.69482 0.16252 0.0
C204 C 0.15541 0.57085 0.14595 0.0
C205 C 0.14736 0.5963 0.15769 0.0
C206 C 0.19111 0.57294 0.14368 0.0
C207 C 0.2197 0.59994 0.15366 0.0
C208 C 0.21156 0.6253 0.16549 0.0
C209 C 0.17587 0.6236 0.16737 0.0
C210 C 0.25789 0.60106 0.15226 0.0
C211 C 0.28252 0.63021 0.14612 0.0
C212 C 0.26984 0.573 0.1566 0.0
C213 C 0.24613 0.54294 0.16504 0.0
C214 C 0.2309 0.54628 0.1836 0.0
C215 C 0.20598 0.51846 0.19056 0.0
C216 C 0.19634 0.48712 0.17917 0.0
C217 C 0.21182 0.4835 0.16089 0.0
C218 C 0.23676 0.51126 0.15386 0.0
C219 C 0.43173 0.62705 0.15317 0.0
C220 C 0.43792 0.6017 0.14032 0.0
C221 C 0.39672 0.62745 0.15535 0.0
C222 C 0.36705 0.60256 0.14462 0.0
C223 C 0.37338 0.57721 0.13172 0.0
C224 C 0.40847 0.57678 0.12959 0.0
C225 C 0.32952 0.60271 0.14699 0.0
C226 C 0.30505 0.57385 0.15354 0.0
C227 C 0.31802 0.63135 0.14342 0.0
C228 C 0.3423 0.66246 0.13631 0.0
C229 C 0.35858 0.66125 0.1179 0.0
C230 C 0.38274 0.69039 0.11178 0.0
C231 C 0.39059 0.72096 0.12385 0.0
C232 C 0.37415 0.72247 0.14203 0.0
C233 C 0.35 0.69337 0.14824 0.0
H234 H 0.40938 0.74348 0.11911 0.0
H235 H 0.17685 0.46565 0.1845 0.0
H236 H 0.76533 0.24131 0.51698 0.0
H237 H 0.8101 0.29475 0.51285 0.0
H238 H 0.72932 0.32958 0.48018 0.0
H239 H 0.68446 0.27541 0.48366 0.0
H240 H 0.77922 0.34236 0.45939 0.0
H241 H 0.77764 0.36285 0.53374 0.0
H242 H 0.78287 0.35368 0.57122 0.0
H243 H 0.88929 0.34793 0.56789 0.0
H244 H 0.88457 0.35669 0.53041 0.0
H245 H 0.90878 0.50509 0.45279 0.0
H246 H 0.85605 0.4614 0.46246 0.0
H247 H 0.92445 0.40379 0.48498 0.0
H248 H 0.97667 0.44727 0.47546 0.0
H249 H 0.87717 0.4089 0.51219 0.0
H250 H 0.8776 0.38514 0.43818 0.0
H251 H 0.87649 0.40072 0.40184 0.0
H252 H 0.77334 0.4145 0.40519 0.0
H253 H 0.77426 0.39987 0.44178 0.0
C254 C 0.75676 0.26066 0.50945 0.0
C255 C 0.72109 0.25416 0.50077 0.0
C256 C 0.78249 0.29143 0.50717 0.0
C257 C 0.77296 0.3167 0.49659 0.0
C258 C 0.73715 0.31065 0.48861 0.0
C259 C 0.71158 0.27974 0.4906 0.0
C260 C 0.80061 0.34787 0.49185 0.0
C261 C 0.80008 0.35723 0.47116 0.0
C262 C 0.82858 0.3671 0.50692 0.0
C263 C 0.8306 0.36016 0.52923 0.0
C264 C 0.80197 0.35923 0.54095 0.0
C265 C 0.80491 0.35421 0.56222 0.0
C266 C 0.83636 0.35016 0.57192 0.0
C267 C 0.86493 0.35102 0.56037 0.0
C268 C 0.86213 0.35603 0.53913 0.0
C269 C 0.91212 0.48272 0.45948 0.0
C270 C 0.94611 0.47864 0.46301 0.0
C271 C 0.88228 0.45807 0.46512 0.0
C272 C 0.88652 0.42942 0.47434 0.0
C273 C 0.92072 0.42573 0.4779 0.0
C274 C 0.95034 0.45022 0.47224 0.0
C275 C 0.85556 0.40259 0.48001 0.0
C276 C 0.85563 0.39415 0.50073 0.0
C277 C 0.82728 0.38422 0.46504 0.0
C278 C 0.8262 0.39183 0.44281 0.0
C279 C 0.85479 0.39174 0.43123 0.0
C280 C 0.85422 0.40042 0.41059 0.0
C281 C 0.82492 0.40871 0.40123 0.0
C282 C 0.79607 0.40818 0.41248 0.0
C283 C 0.79662 0.39974 0.43318 0.0
H284 H 0.82453 0.41544 0.38525 0.0
H285 H 0.83863 0.34643 0.58839 0.0
H286 H 0.4727 0.70907 0.82382 0.0
H287 H 0.46876 0.76566 0.81736 0.0
H288 H 0.56752 0.80919 0.8577 0.0
H289 H 0.56784 0.75358 0.86634 0.0
H290 H 0.52264 0.83966 0.86554 0.0
H291 H 0.56467 0.79962 0.8031 0.0
H292 H 0.5596 0.76108 0.77194 0.0
H293 H 0.46276 0.78002 0.7481 0.0
H294 H 0.46724 0.81861 0.77913 0.0
H295 H 0.63991 0.97783 0.83029 0.0
H296 H 0.60247 0.92435 0.84096 0.0
H297 H 0.51013 0.93627 0.80462 0.0
H298 H 0.54788 0.98868 0.79301 0.0
H299 H 0.5275 0.87793 0.79397 0.0
H300 H 0.50037 0.92837 0.85917 0.0
H301 H 0.52126 0.97158 0.88884 0.0
H302 H 0.6096 0.93432 0.90584 0.0
H303 H 0.58871 0.8905 0.87649 0.0
C304 C 0.49121 0.73102 0.83253 0.0
C305 C 0.51846 0.72764 0.84673 0.0
C306 C 0.49008 0.76294 0.82824 0.0
C307 C 0.51767 0.79108 0.83726 0.0
C308 C 0.5454 0.78755 0.85117 0.0
C309 C 0.54524 0.75598 0.85634 0.0
C310 C 0.5183 0.82477 0.83267 0.0
C311 C 0.5231 0.84798 0.84985 0.0
C312 C 0.51859 0.83503 0.81216 0.0
C313 C 0.51598 0.81163 0.79357 0.0
C314 C 0.54215 0.79536 0.79129 0.0
C315 C 0.53945 0.77359 0.77362 0.0
C316 C 0.51079 0.76799 0.7581 0.0
C317 C 0.4849 0.7843 0.76016 0.0
C318 C 0.48753 0.80617 0.77775 0.0
C319 C 0.6115 0.96933 0.82514 0.0
C320 C 0.59656 0.98667 0.81098 0.0
C321 C 0.59007 0.93926 0.83137 0.0
C322 C 0.55359 0.92719 0.82382 0.0
C323 C 0.53815 0.94579 0.81073 0.0
C324 C 0.55972 0.97557 0.80423 0.0
C325 C 0.53377 0.8927 0.82695 0.0
C326 C 0.52505 0.86924 0.80951 0.0
C327 C 0.53193 0.88204 0.84723 0.0
C328 C 0.54287 0.90627 0.86582 0.0
C329 C 0.52401 0.92928 0.86941 0.0
C330 C 0.53585 0.95381 0.88614 0.0
C331 C 0.56674 0.95569 0.89922 0.0
C332 C 0.58557 0.9327 0.89578 0.0
C333 C 0.57354 0.90781 0.87924 0.0
H334 H 0.5761 0.975 0.91201 0.0
H335 H 0.5087 0.7511 0.74446 0.0
H336 H 0.90989 0.57134 0.12589 0.0
H337 H 0.84675 0.56862 0.12494 0.0
H338 H 0.87455 0.65076 0.17278 0.0
H339 H 0.93813 0.65385 0.17343 0.0
H340 H 0.81325 0.59733 0.17965 0.0
H341 H 0.85831 0.66492 0.12408 0.0
H342 H 0.88875 0.67757 0.09236 0.0
H343 H 0.80937 0.5932 0.05824 0.0
H344 H 0.77901 0.57939 0.08992 0.0
H345 H 0.64314 0.63363 0.15894 0.0
H346 H 0.70648 0.63646 0.16656 0.0
H347 H 0.69173 0.55555 0.11923 0.0
H348 H 0.62887 0.55191 0.1121 0.0
H349 H 0.74748 0.61183 0.11341 0.0
H350 H 0.70311 0.54218 0.16721 0.0
H351 H 0.67123 0.52642 0.1981 0.0
H352 H 0.7474 0.61007 0.23476 0.0
H353 H 0.77914 0.62706 0.20387 0.0
C354 C 0.90251 0.5891 0.13598 0.0
C355 C 0.9288 0.61335 0.14935 0.0
C356 C 0.86645 0.58742 0.13553 0.0
C357 C 0.85584 0.60963 0.1487 0.0
C358 C 0.8821 0.6335 0.1624 0.0
C359 C 0.91838 0.63558 0.16257 0.0
C360 C 0.81747 0.6084 0.14757 0.0
C361 C 0.79898 0.6011 0.16528 0.0
C362 C 0.79856 0.61236 0.12865 0.0
C363 C 0.81658 0.6209 0.10948 0.0
C364 C 0.84752 0.64883 0.10988 0.0
C365 C 0.86478 0.65622 0.0919 0.0
C366 C 0.85106 0.63615 0.07331 0.0
C367 C 0.82003 0.60867 0.07266 0.0
C368 C 0.80281 0.60103 0.09065 0.0
C369 C 0.65324 0.61585 0.15062 0.0
C370 C 0.63112 0.5929 0.13468 0.0
C371 C 0.68947 0.61765 0.15486 0.0
C372 C 0.70402 0.59659 0.14318 0.0
C373 C 0.68133 0.57238 0.12822 0.0
C374 C 0.64533 0.57031 0.1242 0.0
C375 C 0.74313 0.60068 0.14545 0.0
C376 C 0.76177 0.60842 0.12787 0.0
C377 C 0.76191 0.59668 0.16439 0.0
C378 C 0.74317 0.58629 0.18308 0.0
C379 C 0.71281 0.55755 0.18176 0.0
C380 C 0.69477 0.54835 0.19929 0.0
C381 C 0.70717 0.56733 0.21836 0.0
C382 C 0.73772 0.59549 0.21994 0.0
C383 C 0.75571 0.60496 0.20241 0.0
H384 H 0.6932 0.56014 0.23192 0.0
H385 H 0.86443 0.64195 0.05939 0.0
H386 H 0.27968 0.89907 0.51455 0.0
H387 H 0.23273 0.84466 0.50862 0.0
H388 H 0.29825 0.80732 0.46951 0.0
H389 H 0.34447 0.86265 0.47462 0.0
H390 H 0.23433 0.7925 0.45106 0.0
H391 H 0.28119 0.78294 0.5217 0.0
H392 H 0.29762 0.79685 0.55953 0.0
H393 H 0.18961 0.79379 0.56734 0.0
H394 H 0.17267 0.78042 0.52955 0.0
H395 H 0.13164 0.62441 0.43904 0.0
H396 H 0.1807 0.675 0.45206 0.0
H397 H 0.10756 0.71268 0.4846 0.0
H398 H 0.05858 0.6611 0.47216 0.0
H399 H 0.17325 0.72697 0.50665 0.0
H400 H 0.12493 0.73609 0.43791 0.0
H401 H 0.10373 0.71419 0.40152 0.0
H402 H 0.21035 0.7169 0.39037 0.0
H403 H 0.23208 0.73783 0.42701 0.0
C404 C 0.28408 0.87899 0.50493 0.0
C405 C 0.31544 0.88464 0.4951 0.0
C406 C 0.25743 0.8479 0.50165 0.0
C407 C 0.2622 0.82168 0.48892 0.0
C408 C 0.29405 0.82717 0.47944 0.0
C409 C 0.32042 0.85858 0.48238 0.0
C410 C 0.23297 0.78945 0.4843 0.0
C411 C 0.22145 0.77798 0.46327 0.0
C412 C 0.215 0.77114 0.50018 0.0
C413 C 0.22579 0.78104 0.52274 0.0
C414 C 0.26108 0.78572 0.53144 0.0
C415 C 0.27045 0.7934 0.55289 0.0
C416 C 0.2447 0.79627 0.56582 0.0
C417 C 0.20956 0.79163 0.55731 0.0
C418 C 0.20007 0.78404 0.53588 0.0
C419 C 0.12635 0.64344 0.44916 0.0
C420 C 0.09174 0.63975 0.45439 0.0
C421 C 0.15416 0.67212 0.45658 0.0
C422 C 0.14736 0.69772 0.46881 0.0
C423 C 0.11308 0.69316 0.47502 0.0
C424 C 0.08527 0.66406 0.46787 0.0
C425 C 0.17552 0.73018 0.47369 0.0
C426 C 0.18643 0.74171 0.49459 0.0
C427 C 0.19255 0.74879 0.45774 0.0
C428 C 0.18013 0.73838 0.4353 0.0
C429 C 0.1439 0.73198 0.42774 0.0
C430 C 0.13174 0.71961 0.40706 0.0
C431 C 0.15566 0.71412 0.39361 0.0
C432 C 0.19184 0.72114 0.40082 0.0
C433 C 0.20411 0.73325 0.42156 0.0
H434 H 0.14615 0.70447 0.37761 0.0
H435 H 0.25197 0.80201 0.58244 0.0
H436 H 0.58476 0.36571 0.79886 0.0
H437 H 0.56792 0.30506 0.79337 0.0
H438 H 0.62356 0.30033 0.85324 0.0
H439 H 0.64012 0.36209 0.85934 0.0
H440 H 0.63599 0.26355 0.81712 0.0
H441 H 0.53622 0.27726 0.85293 0.0
H442 H 0.48099 0.28951 0.8608 0.0
H443 H 0.43163 0.25049 0.79906 0.0
H444 H 0.48663 0.23843 0.79079 0.0
H445 H 0.56755 0.09192 0.82998 0.0
H446 H 0.58605 0.15291 0.83421 0.0
H447 H 0.50609 0.1536 0.78428 0.0
H448 H 0.48615 0.09245 0.78113 0.0
H449 H 0.50862 0.19426 0.81253 0.0
H450 H 0.60333 0.17779 0.77534 0.0
H451 H 0.65634 0.16364 0.76507 0.0
H452 H 0.71479 0.2073 0.82412 0.0
H453 H 0.66216 0.22129 0.83482 0.0
C454 C 0.59504 0.35212 0.81051 0.0
C455 C 0.61427 0.36841 0.82949 0.0
C456 C 0.58431 0.31749 0.80758 0.0
C457 C 0.59344 0.29902 0.82332 0.0
C458 C 0.6157 0.31497 0.84133 0.0
C459 C 0.62597 0.34988 0.84453 0.0
C460 C 0.58193 0.26289 0.81993 0.0
C461 C 0.60826 0.2479 0.81644 0.0
C462 C 0.54547 0.24386 0.81762 0.0
C463 C 0.51585 0.25774 0.82112 0.0
C464 C 0.51405 0.27243 0.84083 0.0
C465 C 0.4826 0.27896 0.84543 0.0
C466 C 0.4529 0.27097 0.83041 0.0
C467 C 0.45472 0.25694 0.81063 0.0
C468 C 0.48605 0.25042 0.80596 0.0
C469 C 0.55428 0.10487 0.81949 0.0
C470 C 0.53158 0.08832 0.80152 0.0
C471 C 0.56543 0.13982 0.82183 0.0
C472 C 0.55061 0.15752 0.80771 0.0
C473 C 0.52027 0.14021 0.794 0.0
C474 C 0.50889 0.10526 0.79229 0.0
C475 C 0.56265 0.19407 0.80978 0.0
C476 C 0.53644 0.20946 0.81289 0.0
C477 C 0.59917 0.21346 0.81112 0.0
C478 C 0.62844 0.19987 0.80605 0.0
C479 C 0.62711 0.18343 0.78636 0.0
C480 C 0.65725 0.17576 0.78039 0.0
C481 C 0.68883 0.18438 0.79397 0.0
C482 C 0.69027 0.2004 0.81365 0.0
C483 C 0.66027 0.20809 0.8197 0.0
H484 H 0.71224 0.1788 0.78922 0.0
H485 H 0.42839 0.27547 0.83414 0.0
H486 H 0.58008 0.97102 0.49553 0.0
H487 H 0.58134 0.91257 0.49851 0.0
H488 H 0.47177 0.88285 0.512 0.0
H489 H 0.4703 0.94087 0.5087 0.0
H490 H 0.50181 0.84801 0.53594 0.0
H491 H 0.50156 0.85699 0.46346 0.0
H492 H 0.52009 0.87972 0.43027 0.0
H493 H 0.62367 0.86727 0.44476 0.0
H494 H 0.60582 0.84468 0.47818 0.0
H495 H 0.47489 0.66688 0.52814 0.0
H496 H 0.47391 0.72489 0.52379 0.0
H497 H 0.58191 0.75195 0.50754 0.0
H498 H 0.5825 0.69352 0.51155 0.0
H499 H 0.55274 0.78846 0.48473 0.0
H500 H 0.54971 0.77892 0.55851 0.0
H501 H 0.52654 0.75349 0.59016 0.0
H502 H 0.42398 0.76546 0.57135 0.0
H503 H 0.44652 0.7907 0.53948 0.0
C504 C 0.55599 0.95224 0.49904 0.0
C505 C 0.52501 0.9622 0.50169 0.0
C506 C 0.55665 0.918 0.50069 0.0
C507 C 0.52655 0.89133 0.50543 0.0
C508 C 0.49584 0.90152 0.50837 0.0
C509 C 0.49498 0.9355 0.50636 0.0
C510 C 0.52696 0.85368 0.50756 0.0
C511 C 0.51275 0.8353 0.52444 0.0
C512 C 0.54118 0.8352 0.49314 0.0
C513 C 0.55251 0.84954 0.47342 0.0
C514 C 0.52843 0.85943 0.45967 0.0
C515 C 0.53876 0.87219 0.44079 0.0
C516 C 0.57308 0.87504 0.43544 0.0
C517 C 0.59712 0.86511 0.44896 0.0
C518 C 0.5869 0.85229 0.46786 0.0
C519 C 0.49883 0.68507 0.52394 0.0
C520 C 0.52906 0.67426 0.52079 0.0
C521 C 0.49836 0.71913 0.52145 0.0
C522 C 0.52814 0.74509 0.51566 0.0
C523 C 0.55817 0.73399 0.51213 0.0
C524 C 0.55864 0.69988 0.51465 0.0
C525 C 0.52795 0.78287 0.5133 0.0
C526 C 0.54208 0.80126 0.49632 0.0
C527 C 0.51325 0.8013 0.52749 0.0
C528 C 0.49969 0.7864 0.54659 0.0
C529 C 0.52218 0.77597 0.56111 0.0
C530 C 0.50917 0.76162 0.57907 0.0
C531 C 0.47379 0.75779 0.58274 0.0
C532 C 0.45137 0.76841 0.56847 0.0
C533 C 0.46425 0.78278 0.55048 0.0
H534 H 0.46376 0.74665 0.59666 0.0
H535 H 0.58101 0.88486 0.42079 0.0
H536 H 0.66887 0.5205 0.80691 0.0
H537 H 0.73269 0.52551 0.80854 0.0
H538 H 0.74576 0.55684 0.87422 0.0
H539 H 0.68245 0.55407 0.87209 0.0
H540 H 0.80031 0.59291 0.85874 0.0
H541 H 0.74106 0.47458 0.85389 0.0
H542 H 0.69576 0.42213 0.83858 0.0
H543 H 0.74457 0.43178 0.78137 0.0
H544 H 0.78975 0.48473 0.79621 0.0
H545 H 0.95095 0.54276 0.89096 0.0
H546 H 0.88953 0.54079 0.88225 0.0
H547 H 0.90904 0.55732 0.81849 0.0
H548 H 0.97269 0.56278 0.82745 0.0
H549 H 0.84013 0.49931 0.82995 0.0
H550 H 0.90299 0.61894 0.83866 0.0
H551 H 0.94673 0.66987 0.85695 0.0
H552 H 0.89013 0.65407 0.91128 0.0
H553 H 0.84641 0.60258 0.89344 0.0
C554 C 0.68535 0.52781 0.82173 0.0
C555 C 0.67072 0.53592 0.83951 0.0
C556 C 0.72186 0.53082 0.82269 0.0
C557 C 0.74423 0.54095 0.84162 0.0
C558 C 0.72933 0.54893 0.85942 0.0
C559 C 0.69305 0.54686 0.8583 0.0
C560 C 0.78299 0.54305 0.8429 0.0
C561 C 0.80883 0.57231 0.8525 0.0
C562 C 0.79457 0.5164 0.83469 0.0
C563 C 0.76864 0.48371 0.8261 0.0
C564 C 0.74211 0.46552 0.83803 0.0
C565 C 0.7164 0.43576 0.82942 0.0
C566 C 0.71724 0.42366 0.809 0.0
C567 C 0.74393 0.44121 0.79718 0.0
C568 C 0.76962 0.47109 0.80568 0.0
C569 C 0.9431 0.54716 0.87513 0.0
C570 C 0.96796 0.55463 0.86019 0.0
C571 C 0.90741 0.54529 0.87013 0.0
C572 C 0.89479 0.54932 0.84983 0.0
C573 C 0.91844 0.55444 0.83435 0.0
C574 C 0.95484 0.55742 0.83951 0.0
C575 C 0.85704 0.54918 0.84552 0.0
C576 C 0.83143 0.52008 0.83573 0.0
C577 C 0.84557 0.57561 0.85401 0.0
C578 C 0.87157 0.60675 0.86475 0.0
C579 C 0.90004 0.62613 0.85457 0.0
C580 C 0.92481 0.65513 0.86485 0.0
C581 C 0.92124 0.66518 0.88528 0.0
C582 C 0.89286 0.64624 0.89546 0.0
C583 C 0.86806 0.61715 0.88526 0.0
H584 H 0.94042 0.68767 0.8932 0.0
H585 H 0.69723 0.40066 0.80234 0.0
H586 H 0.20897 0.83513 0.16451 0.0
H587 H 0.26387 0.88269 0.16894 0.0
H588 H 0.32644 0.81392 0.16505 0.0
H589 H 0.27086 0.76577 0.1606 0.0
H590 H 0.34983 0.86244 0.1992 0.0
H591 H 0.32216 0.8618 0.12458 0.0
H592 H 0.28536 0.86178 0.0916 0.0
H593 H 0.26557 0.95231 0.11437 0.0
H594 H 0.30208 0.95274 0.1475 0.0
H595 H 0.51012 0.99598 0.19589 0.0
H596 H 0.45981 0.94526 0.18464 0.0
H597 H 0.38603 1.0028 0.19054 0.0
H598 H 0.43648 0.05356 0.20217 0.0
H599 H 0.37154 0.95818 0.15396 0.0
H600 H 0.39579 0.96009 0.22784 0.0
H601 H 0.43507 0.96535 0.26052 0.0
H602 H 0.45985 0.87586 0.24084 0.0
H603 H 0.42128 0.87047 0.20777 0.0
C604 C 0.23447 0.83023 0.16449 0.0
C605 C 0.236 0.79706 0.16237 0.0
C606 C 0.26571 0.85733 0.16688 0.0
C607 C 0.29907 0.85173 0.16715 0.0
C608 C 0.3008 0.81858 0.16479 0.0
C609 C 0.26928 0.79127 0.16219 0.0
C610 C 0.33184 0.88082 0.1709 0.0
C611 C 0.35508 0.88304 0.18907 0.0
C612 C 0.33776 0.90818 0.1581 0.0
C613 C 0.31465 0.90717 0.13853 0.0
C614 C 0.30965 0.88149 0.12261 0.0
C615 C 0.28896 0.88148 0.10387 0.0
C616 C 0.27312 0.90701 0.1009 0.0
C617 C 0.27786 0.93256 0.11668 0.0
C618 C 0.2986 0.93273 0.13542 0.0
C619 C 0.48315 0.99779 0.1943 0.0
C620 C 0.4767 0.02827 0.19962 0.0
C621 C 0.45462 0.96896 0.18807 0.0
C622 C 0.41951 0.97054 0.18699 0.0
C623 C 0.41312 1.00138 0.19136 0.0
C624 C 0.44168 0.03015 0.19791 0.0
C625 C 0.38932 0.93963 0.18208 0.0
C626 C 0.36653 0.93727 0.16387 0.0
C627 C 0.38355 0.9125 0.19504 0.0
C628 C 0.4059 0.91505 0.2152 0.0
C629 C 0.40981 0.94165 0.23039 0.0
C630 C 0.43194 0.94467 0.249 0.0
C631 C 0.45 0.921 0.25274 0.0
C632 C 0.44586 0.8942 0.2379 0.0
C633 C 0.42386 0.89114 0.21922 0.0
H634 H 0.46715 0.92338 0.26714 0.0
H635 H 0.25721 0.90702 0.08635 0.0
H636 H 0.54116 0.19614 0.47752 0.0
H637 H 0.54189 0.25494 0.48033 0.0
H638 H 0.48346 0.23609 0.53411 0.0
H639 H 0.48018 0.17626 0.52997 0.0
H640 H 0.4637 0.28039 0.5223 0.0
H641 H 0.59275 0.29582 0.52578 0.0
H642 H 0.65325 0.30074 0.51595 0.0
H643 H 0.62867 0.34114 0.45855 0.0
H644 H 0.56817 0.33625 0.46794 0.0
H645 H 0.48812 0.45371 0.55143 0.0
H646 H 0.48898 0.39657 0.54679 0.0
H647 H 0.54434 0.42 0.49224 0.0
H648 H 0.54864 0.48013 0.49908 0.0
H649 H 0.56469 0.37373 0.50334 0.0
H650 H 0.43984 0.36289 0.49958 0.0
H651 H 0.38524 0.37174 0.5114 0.0
H652 H 0.40135 0.32547 0.56797 0.0
H653 H 0.45626 0.31668 0.55655 0.0
C654 C 0.52821 0.20424 0.48998 0.0
C655 C 0.51036 0.18002 0.50332 0.0
C656 C 0.52924 0.23899 0.49193 0.0
C657 C 0.51377 0.25262 0.50796 0.0
C658 C 0.49587 0.22815 0.52136 0.0
C659 C 0.49392 0.19307 0.519 0.0
C660 C 0.51496 0.29106 0.51043 0.0
C661 C 0.48646 0.30036 0.51835 0.0
C662 C 0.54308 0.31928 0.50481 0.0
C663 C 0.57605 0.31546 0.49748 0.0
C664 C 0.60001 0.30488 0.51084 0.0
C665 C 0.63434 0.30794 0.50541 0.0
C666 C 0.64469 0.32158 0.48674 0.0
C667 C 0.6205 0.33075 0.47302 0.0
C668 C 0.58625 0.32772 0.47834 0.0
C669 C 0.50115 0.44758 0.53841 0.0
C670 C 0.51893 0.47367 0.52604 0.0
C671 C 0.50056 0.41335 0.53529 0.0
C672 C 0.51524 0.4012 0.51848 0.0
C673 C 0.53215 0.42689 0.50543 0.0
C674 C 0.53415 0.46201 0.50915 0.0
C675 C 0.51371 0.36279 0.51521 0.0
C676 C 0.54201 0.35357 0.50722 0.0
C677 C 0.48523 0.3346 0.52051 0.0
C678 C 0.45215 0.33936 0.52728 0.0
C679 C 0.43171 0.35468 0.51455 0.0
C680 C 0.40077 0.35971 0.52119 0.0
C681 C 0.38987 0.34923 0.54044 0.0
C682 C 0.40984 0.33359 0.55307 0.0
C683 C 0.44084 0.32854 0.54652 0.0
H684 H 0.3659 0.35318 0.54555 0.0
H685 H 0.67157 0.32568 0.4829 0.0
H686 H 0.44646 0.57385 0.8051 0.0
H687 H 0.3843 0.57283 0.8075 0.0
H688 H 0.38863 0.5355 0.86862 0.0
H689 H 0.45002 0.53481 0.86556 0.0
H690 H 0.3271 0.50401 0.84984 0.0
H691 H 0.3932 0.62453 0.85767 0.0
H692 H 0.43047 0.67941 0.8478 0.0
H693 H 0.36201 0.66762 0.79051 0.0
H694 H 0.3243 0.61273 0.80016 0.0
H695 H 0.17083 0.53684 0.88124 0.0
H696 H 0.23331 0.5386 0.87853 0.0
H697 H 0.22536 0.56953 0.8159 0.0
H698 H 0.1634 0.56838 0.81884 0.0
H699 H 0.28788 0.60385 0.83498 0.0
H700 H 0.22166 0.48748 0.82507 0.0
H701 H 0.17799 0.4351 0.83388 0.0
H702 H 0.24299 0.43721 0.89125 0.0
H703 H 0.28687 0.48991 0.88286 0.0
C704 C 0.43415 0.56588 0.81911 0.0
C705 C 0.4532 0.5552 0.83535 0.0
C706 C 0.39859 0.56536 0.82056 0.0
C707 C 0.38156 0.55487 0.83851 0.0
C708 C 0.40082 0.54391 0.85464 0.0
C709 C 0.43607 0.54383 0.853 0.0
C710 C 0.3438 0.55497 0.84051 0.0
C711 C 0.31888 0.52613 0.84687 0.0
C712 C 0.33191 0.58305 0.83596 0.0
C713 C 0.35604 0.61471 0.82962 0.0
C714 C 0.38638 0.63356 0.84289 0.0
C715 C 0.40749 0.6647 0.83734 0.0
C716 C 0.39845 0.67708 0.81855 0.0
C717 C 0.36881 0.65807 0.80509 0.0
C718 C 0.34754 0.62703 0.81061 0.0
C719 C 0.18269 0.54432 0.86702 0.0
C720 C 0.16252 0.55263 0.85028 0.0
C721 C 0.21828 0.54508 0.86538 0.0
C722 C 0.23419 0.5538 0.84687 0.0
C723 C 0.21399 0.56276 0.83035 0.0
C724 C 0.17854 0.56208 0.83202 0.0
C725 C 0.27159 0.55323 0.84454 0.0
C726 C 0.29628 0.58184 0.83804 0.0
C727 C 0.28299 0.52475 0.84856 0.0
C728 C 0.25739 0.49264 0.85341 0.0
C729 C 0.22657 0.47678 0.83959 0.0
C730 C 0.20179 0.44707 0.8445 0.0
C731 C 0.2077 0.43284 0.86312 0.0
C732 C 0.23847 0.44826 0.87683 0.0
C733 C 0.26334 0.47802 0.87199 0.0
H734 H 0.18844 0.40985 0.86692 0.0
H735 H 0.41403 0.70156 0.81439 0.0
H736 H 0.86617 0.3734 0.14851 0.0
H737 H 0.81487 0.3255 0.15306 0.0
H738 H 0.75591 0.39302 0.17026 0.0
H739 H 0.80829 0.44157 0.16644 0.0
H740 H 0.74958 0.34677 0.19696 0.0
H741 H 0.733 0.33984 0.12117 0.0
H742 H 0.75071 0.33731 0.08555 0.0
H743 H 0.78436 0.25059 0.09821 0.0
H744 H 0.76693 0.25265 0.13387 0.0
H745 H 0.59872 0.19661 0.20037 0.0
H746 H 0.63559 0.25201 0.19091 0.0
H747 H 0.71843 0.20847 0.17713 0.0
H748 H 0.6817 0.15355 0.18643 0.0
H749 H 0.70307 0.2461 0.1465 0.0
H750 H 0.72665 0.25385 0.2213 0.0
H751 H 0.70695 0.25022 0.25653 0.0
H752 H 0.66276 0.33146 0.24673 0.0
H753 H 0.68156 0.3351 0.21121 0.0
C754 C 0.84199 0.37814 0.1527 0.0
C755 C 0.84116 0.41125 0.15693 0.0
C756 C 0.81255 0.35065 0.15528 0.0
C757 C 0.78117 0.35556 0.16161 0.0
C758 C 0.77979 0.38863 0.16527 0.0
C759 C 0.80961 0.4163 0.16301 0.0
C760 C 0.75116 0.32605 0.16588 0.0
C761 C 0.73879 0.3251 0.18571 0.0
C762 C 0.73766 0.29731 0.15148 0.0
C763 C 0.74877 0.29651 0.13017 0.0
C764 C 0.74438 0.32038 0.11637 0.0
C765 C 0.75428 0.31896 0.09617 0.0
C766 C 0.76867 0.29383 0.08963 0.0
C767 C 0.77317 0.27002 0.10327 0.0
C768 C 0.76319 0.27124 0.12345 0.0
C769 C 0.62503 0.1993 0.19556 0.0
C770 C 0.63805 0.17154 0.19433 0.0
C771 C 0.64587 0.23066 0.1901 0.0
C772 C 0.67965 0.23415 0.18337 0.0
C773 C 0.69239 0.20617 0.18223 0.0
C774 C 0.67168 0.17503 0.1877 0.0
C775 C 0.70233 0.2668 0.17752 0.0
C776 C 0.71328 0.2682 0.15748 0.0
C777 C 0.71493 0.29555 0.19183 0.0
C778 C 0.70521 0.29456 0.21353 0.0
C779 C 0.71261 0.27087 0.22662 0.0
C780 C 0.70157 0.26877 0.24663 0.0
C781 C 0.68354 0.29055 0.25384 0.0
C782 C 0.67669 0.31458 0.2411 0.0
C783 C 0.68753 0.31668 0.22103 0.0
H784 H 0.67493 0.28884 0.26932 0.0
H785 H 0.77629 0.29277 0.07398 0.0
H786 H 0.97292 0.55775 0.08064 0.0
H787 H 0.98354 0.5616 0.04398 0.0
H788 H 0.09042 0.62831 0.06213 0.0
H789 H 0.07909 0.62567 0.09902 0.0
H790 H 0.05862 0.644 0.02431 0.0
H791 H 0.07926 0.54478 0.05304 0.0
H792 H 0.06209 0.49334 0.07211 0.0
H793 H 0.9679 0.45213 0.0287 0.0
H794 H 0.98447 0.50346 0.00948 0.0
H795 H 0.10974 0.60941 0.92371 0.0
H796 H 0.11073 0.61613 0.96196 0.0
H797 H 1.0084 0.53871 0.95816 0.0
H798 H 1.00841 0.53088 0.92073 0.0
H799 H 0.04533 0.53098 0.99022 0.0
H800 H 0.01755 0.62589 0.9627 0.0
H801 H 0.02752 0.67635 0.94274 0.0
H802 H 0.12527 0.7249 0.982 0.0
H803 H 0.11601 0.67449 0.00203 0.0
C804 C 0.99829 0.57402 0.07675 0.0
C805 C 0.02517 0.59141 0.09254 0.0
C806 C 1.00444 0.57605 0.05583 0.0
C807 C 0.03808 0.59458 0.05031 0.0
C808 C 0.0643 0.61381 0.06602 0.0
C809 C 0.0578 0.61238 0.08705 0.0
C810 C 0.04656 0.59095 0.02846 0.0
C811 C 0.05637 0.6194 0.01694 0.0
C812 C 0.04276 0.55881 0.0186 0.0
C813 C 0.03307 0.52784 0.0299 0.0
C814 C 0.05488 0.52473 0.04762 0.0
C815 C 0.04525 0.49563 0.05844 0.0
C816 C 1.01393 0.46948 0.05162 0.0
C817 C 0.99218 0.47236 0.03394 0.0
C818 C 1.00172 0.5014 0.02306 0.0
C819 C 0.0881 0.59332 0.93124 0.0
C820 C 0.05893 0.56982 0.91929 0.0
C821 C 0.08835 0.59746 0.95301 0.0
C822 C 0.05926 0.57838 0.96299 0.0
C823 C 0.03118 0.55379 0.95101 0.0
C824 C 0.03119 0.54937 0.92954 0.0
C825 C 0.05693 0.58397 0.98576 0.0
C826 C 0.04818 0.55576 -0.00245 0.0
C827 C 0.06074 0.61618 -0.0044 0.0
C828 C 0.06633 0.64641 0.98368 0.0
C829 C 0.04129 0.64727 0.96696 0.0
C830 C 0.04678 0.67585 0.95566 0.0
C831 C 0.07706 0.70378 0.96106 0.0
C832 C 0.10186 0.70322 0.97781 0.0
C833 C 0.09651 0.67468 0.98915 0.0
H834 H 0.08128 0.72591 0.9523 0.0
H835 H 1.00651 0.44697 0.06003 0.0
H836 H 0.52036 0.12167 0.44021 0.0
H837 H 0.53244 0.12963 0.40375 0.0
H838 H 0.5065 1.02177 0.3914 0.0
H839 H 0.4934 1.01386 0.42762 0.0
H840 H 0.56838 0.05839 0.37461 0.0
H841 H 0.44709 0.05569 0.37725 0.0
H842 H 0.39642 0.0722 0.38893 0.0
H843 H 0.441 0.17173 0.36908 0.0
H844 H 0.49244 0.15606 0.35774 0.0
H845 H 0.53089 0.0347 0.26523 0.0
H846 H 0.52879 0.0345 0.30282 0.0
H847 H 0.55178 0.1428 0.30741 0.0
H848 H 0.55331 0.14294 0.2693 0.0
H849 H 0.49446 0.10955 0.32864 0.0
H850 H 0.61557 0.10806 0.32419 0.0
H851 H 0.66186 0.0866 0.31063 0.0
H852 H 0.61204 0.98917 0.332 0.0
H853 H 0.56515 1.00992 0.3454 0.0
C854 C 0.51783 0.09985 0.42969 0.0
C855 C 0.50634 0.06721 0.43646 0.0
C856 C 0.52446 0.10435 0.40894 0.0
C857 C 0.52018 0.07625 0.39493 0.0
C858 C 0.50994 0.04372 0.402 0.0
C859 C 0.50254 0.03921 0.42259 0.0
C860 C 0.52552 0.08055 0.37274 0.0
C861 C 0.55218 0.06951 0.36454 0.0
C862 C 0.50445 0.09522 0.35969 0.0
C863 C 0.47397 0.10489 0.36699 0.0
C864 C 0.44642 0.08127 0.37569 0.0
C865 C 0.41748 0.09044 0.38219 0.0
C866 C 0.41557 0.12304 0.37984 0.0
C867 C 0.44259 0.14653 0.37098 0.0
C868 C 0.47167 0.13754 0.36455 0.0
C869 C 0.53585 0.05852 0.2743 0.0
C870 C 0.54222 0.08887 0.26451 0.0
C871 C 0.53477 0.05838 0.29576 0.0
C872 C 0.54043 0.08866 0.30791 0.0
C873 C 0.54747 0.1192 0.29824 0.0
C874 C 0.54863 0.11934 0.27662 0.0
C875 C 0.53769 0.08786 0.33059 0.0
C876 C 0.51121 0.09917 0.33884 0.0
C877 C 0.55849 0.07291 0.34362 0.0
C878 C 0.58686 0.06053 0.33576 0.0
C879 C 0.61442 0.08202 0.32591 0.0
C880 C 0.64076 0.06998 0.31825 0.0
C881 C 0.63992 0.03655 0.32047 0.0
C882 C 0.6127 1.01507 0.33033 0.0
C883 C 0.58627 0.02697 0.33798 0.0
H884 H 0.66037 0.0273 0.31457 0.0
H885 H 0.39307 0.13006 0.38481 0.0
H886 H 0.55167 0.60687 0.76467 0.0
H887 H 0.54594 0.59987 0.72681 0.0
H888 H 0.55607 0.49997 0.72965 0.0
H889 H 0.56173 0.50695 0.76825 0.0
H890 H 0.59939 0.53927 0.70093 0.0
H891 H 0.47519 0.50628 0.71158 0.0
H892 H 0.42378 0.51263 0.72872 0.0
H893 H 0.43932 0.61014 0.70513 0.0
H894 H 0.49093 0.6044 0.68794 0.0
H895 H 0.57115 0.51702 0.59148 0.0
H896 H 0.56913 0.51211 0.6281 0.0
H897 H 0.5254 0.59521 0.63238 0.0
H898 H 0.51987 0.59523 0.59427 0.0
H899 H 0.49718 0.5584 0.65827 0.0
H900 H 0.62419 0.59275 0.64898 0.0
H901 H 0.67676 0.58673 0.63293 0.0
H902 H 0.6583 0.48785 0.65493 0.0
H903 H 0.60548 0.49318 0.67093 0.0
C904 C 0.5523 0.58314 0.75736 0.0
C905 C 0.55701 0.55747 0.76966 0.0
C906 C 0.54893 0.57915 0.73555 0.0
C907 C 0.55032 0.54935 0.72507 0.0
C908 C 0.55479 0.52326 0.73723 0.0
C909 C 0.55772 0.52713 0.75932 0.0
C910 C 0.54784 0.54668 0.70154 0.0
C911 C 0.57677 0.54288 0.69155 0.0
C912 C 0.51886 0.55212 0.68911 0.0
C913 C 0.48688 0.55495 0.69853 0.0
C914 C 0.46757 0.52905 0.71004 0.0
C915 C 0.43843 0.53254 0.71977 0.0
C916 C 0.42831 0.56178 0.71803 0.0
C917 C 0.44715 0.58748 0.70643 0.0
C918 C 0.47625 0.58407 0.69663 0.0
C919 C 0.55965 0.53366 0.59976 0.0
C920 C 0.54399 0.55552 0.58909 0.0
C921 C 0.55997 0.53168 0.62134 0.0
C922 C 0.54828 0.55393 0.63382 0.0
C923 C 0.53466 0.57743 0.62348 0.0
C924 C 0.53209 0.57791 0.60149 0.0
C925 C 0.54934 0.55191 0.65733 0.0
C926 C 0.51998 0.55477 0.66742 0.0
C927 C 0.57817 0.54578 0.66986 0.0
C928 C 0.61088 0.54334 0.66108 0.0
C929 C 0.63144 0.56979 0.65043 0.0
C930 C 0.66122 0.56645 0.6413 0.0
C931 C 0.67084 0.53692 0.64289 0.0
C932 C 0.65085 0.51073 0.65372 0.0
C933 C 0.62106 0.51392 0.66287 0.0
H934 H 0.69381 0.53433 0.63575 0.0
H935 H 0.40586 0.56453 0.72566 0.0
H936 H 0.47175 0.08542 0.5575 0.0
H937 H 0.46572 0.07324 0.5942 0.0
H938 H 0.57031 0.05905 0.59975 0.0
H939 H 0.57627 0.07136 0.56338 0.0
H940 H 0.52235 1.01153 0.61836 0.0
H941 H 0.56343 0.13067 0.61489 0.0
H942 H 0.56339 0.18671 0.60433 0.0
H943 H 0.46576 0.17643 0.63193 0.0
H944 H 0.46467 0.11982 0.6421 0.0
H945 H 0.59934 0.06606 0.72147 0.0
H946 H 0.58378 0.06552 0.68436 0.0
H947 H 0.47194 0.04025 0.69331 0.0
H948 H 0.48646 0.03686 0.73049 0.0
H949 H 0.51316 0.10283 0.66775 0.0
H950 H 0.48094 0.98183 0.67441 0.0
H951 H 0.49479 0.93317 0.68919 0.0
H952 H 0.59066 0.95475 0.6585 0.0
H953 H 0.57777 1.0041 0.64396 0.0
C954 C 0.49322 0.07971 0.56675 0.0
C955 C 0.52473 0.07993 0.55829 0.0
C956 C 0.48975 0.07264 0.58745 0.0
C957 C 0.51769 0.06549 0.59944 0.0
C958 C 0.54856 0.0645 0.59059 0.0
C959 C 0.55213 0.07187 0.57008 0.0
C960 C 0.51612 0.06117 0.62165 0.0
C961 C 0.51987 0.03129 0.62913 0.0
C962 C 0.51345 0.08726 0.63557 0.0
C963 C 0.5135 0.12073 0.62882 0.0
C964 C 0.54158 0.14007 0.61834 0.0
C965 C 0.54183 0.17199 0.61249 0.0
C966 C 0.51448 0.18505 0.61735 0.0
C967 C 0.48681 0.1662 0.62806 0.0
C968 C 0.48628 0.13416 0.6338 0.0
C969 C 0.57127 0.05919 0.71569 0.0
C970 C 0.54417 0.0509 0.72909 0.0
C971 C 0.5626 0.05955 0.69451 0.0
C972 C 0.52689 0.05274 0.6865 0.0
C973 C 0.49965 0.04543 0.69958 0.0
C974 C 0.50815 0.04381 0.72077 0.0
C975 C 0.51856 0.05312 0.66421 0.0
C976 C 0.51382 0.08252 0.65678 0.0
C977 C 0.52155 0.02717 0.65042 0.0
C978 C 0.52843 0.99661 0.65817 0.0
C979 C 0.50503 0.97624 0.67089 0.0
C980 C 0.51273 0.94859 0.67924 0.0
C981 C 0.5436 0.94087 0.67479 0.0
C982 C 0.56676 0.96075 0.66192 0.0
C983 C 0.55925 0.98855 0.6536 0.0
H984 H 0.54955 0.91947 0.68131 0.0
H985 H 0.51481 0.20986 0.6129 0.0
H986 H 0.61031 0.57874 0.90023 0.0
H987 H 0.61039 0.59487 0.93755 0.0
H988 H 0.50498 0.52367 0.93702 0.0
H989 H 0.50525 0.50723 0.90027 0.0
H990 H 0.50833 0.58102 0.95822 0.0
H991 H 0.57971 0.50656 0.95566 0.0
H992 H 0.62962 0.48627 0.94677 0.0
H993 H 0.70487 0.57313 0.98113 0.0
H994 H 0.65542 0.59451 0.98971 0.0
H995 H 0.49986 0.55587 0.06818 0.0
H996 H 0.49999 0.54812 0.03014 0.0
H997 H 0.60026 0.62795 0.03367 0.0
H998 H 0.59962 0.63653 0.07124 0.0
H999 H 0.60145 0.56867 0.0114 0.0
H1000 H 0.52956 0.64253 0.01415 0.0
H1001 H 0.4791 0.66022 0.02502 0.0
H1002 H 0.40465 0.5718 0.99169 0.0
H1003 H 0.45477 0.55311 0.98107 0.0
C1004 C 0.58714 0.56682 0.90812 0.0
C1005 C 0.55785 0.54152 0.89739 0.0
C1006 C 0.58724 0.57589 0.92947 0.0
C1007 C 0.55775 0.56028 0.94028 0.0
C1008 C 0.5281 0.53604 0.92921 0.0
C1009 C 0.52834 0.52653 0.90817 0.0
C1010 C 0.5574 0.56826 0.96314 0.0
C1011 C 0.52867 0.57808 0.96979 0.0
C1012 C 0.58405 0.56494 0.97845 0.0
C1013 C 0.61387 0.55251 0.97294 0.0
C1014 C 0.60692 0.52166 0.96101 0.0
C1015 C 0.63513 0.50991 0.95607 0.0
C1016 C 0.67041 0.5285 0.96327 0.0
C1017 C 0.67754 0.55887 0.97545 0.0
C1018 C 0.64943 0.57086 0.98031 0.0
C1019 C 0.52129 0.57241 0.06072 0.0
C1020 C 0.54976 0.59672 0.07275 0.0
C1021 C 0.52163 0.5677 0.03903 0.0
C1022 C 0.55049 0.58712 0.02907 0.0
C1023 C 0.578 0.61234 0.04098 0.0
C1024 C 0.57741 0.61737 0.06245 0.0
C1025 C 0.55245 0.58126 0.00627 0.0
C1026 C 0.58138 0.57183 -0.00028 0.0
C1027 C 0.52602 0.58478 0.99106 0.0
C1028 C 0.49588 0.59626 -0.00301 0.0
C1029 C 0.50242 0.62671 0.00928 0.0
C1030 C 0.4739 0.63691 0.01541 0.0
C1031 C 0.43868 0.6171 0.00909 0.0
C1032 C 0.43195 0.58708 -0.0034 0.0
C1033 C 0.4604 0.57665 0.99054 0.0
H1034 H 0.41661 0.62507 0.01383 0.0
H1035 H 0.69221 0.5193 0.95948 0.0
H1036 H 0.08443 0.5949 0.22005 0.0
H1037 H 0.08291 0.58586 0.25728 0.0
H1038 H 0.98215 0.60735 0.25585 0.0
H1039 H 0.98493 0.61839 0.21908 0.0
H1040 H 0.02151 0.63854 0.28864 0.0
H1041 H 0.99228 0.52349 0.25856 0.0
H1042 H 1.00202 0.47637 0.23786 0.0
H1043 H 0.10178 0.49006 0.27531 0.0
H1044 H 0.09277 0.53753 0.29603 0.0
H1045 H 0.97296 0.58015 0.38698 0.0
H1046 H 0.97351 0.58477 0.34912 0.0
H1047 H 0.07854 0.57191 0.35293 0.0
H1048 H 0.07759 0.56678 0.39045 0.0
H1049 H 0.03857 0.53698 0.3195 0.0
H1050 H 0.06926 0.65121 0.34929 0.0
H1051 H 0.06121 0.69862 0.37052 0.0
H1052 H 0.96059 0.68671 0.33456 0.0
H1053 H 0.96802 0.63916 0.31312 0.0
C1054 C 0.06179 0.59721 0.22769 0.0
C1055 C 0.03471 0.6072 0.21676 0.0
C1056 C 0.06085 0.59199 0.24897 0.0
C1057 C 0.03219 0.59557 0.25949 0.0
C1058 C 1.00468 0.60463 0.24826 0.0
C1059 C 1.00613 0.6107 0.2272 0.0
C1060 C 0.03105 0.59089 0.28225 0.0
C1061 C 0.0247 0.61603 0.29525 0.0
C1062 C 0.0364 0.56222 0.29127 0.0
C1063 C 0.042 0.53412 0.27867 0.0
C1064 C 1.0164 0.51657 0.26224 0.0
C1065 C 0.02177 0.48979 0.25054 0.0
C1066 C 0.05252 0.48026 0.25525 0.0
C1067 C 0.07799 0.49749 0.27166 0.0
C1068 C 0.07276 0.5243 0.28339 0.0
C1069 C 0.99554 0.57729 0.3795 0.0
C1070 C 0.02487 0.57235 0.39137 0.0
C1071 C 0.99617 0.58049 0.35801 0.0
C1072 C 0.02629 0.57909 0.34821 0.0
C1073 C 0.055 0.57298 0.36007 0.0
C1074 C 0.05434 0.56977 0.38144 0.0
C1075 C 0.02831 0.5842 0.32566 0.0
C1076 C 0.03514 0.55935 0.31278 0.0
C1077 C 0.02362 0.61319 0.3168 0.0
C1078 C 0.01903 0.64152 0.32974 0.0
C1079 C 0.04531 0.65858 0.34601 0.0
C1080 C 0.0409 0.6855 0.35805 0.0
C1081 C 1.01037 0.6956 0.35395 0.0
C1082 C 0.98421 0.67885 0.33774 0.0
C1083 C 0.98854 0.65198 0.3256 0.0
H1084 H 1.00701 0.71646 0.36329 0.0
H1085 H 0.05659 0.45946 0.2462 0.0
loop_
_geom_bond_atom_site_label_1
_geom_bond_atom_site_label_2
_geom_bond_distance
_geom_bond_site_symmetry_2
_ccdc_geom_bond_type
Pr0 C2 2.880 1_455 S
Pr0 O20 2.562 1_455 S
Pr0 O21 2.490 1_455 S
Pr0 O22 2.695 . S
Pr0 O23 2.512 . S
Pr0 O25 2.437 1_455 S
Pr0 O28 2.436 . S
Pr0 O30 2.438 . S
Pr1 C11 2.880 . S
Pr1 O22 2.436 . S
Pr1 O24 2.438 1_455 S
Pr1 O26 2.562 . S
Pr1 O27 2.490 . S
Pr1 O28 2.695 . S
Pr1 O29 2.512 . S
Pr1 O31 2.437 . S
C2 Pr0 2.880 1_655 S
C2 C3 1.491 . S
C2 O20 1.254 . S
C2 O21 1.225 . S
C3 C2 1.491 . S
C3 C4 1.392 . S
C3 C8 1.356 . S
C4 C3 1.392 . S
C4 C5 1.368 . S
C4 H32 0.929 . S
C5 C4 1.368 . S
C5 C6 1.386 . S
C5 H33 0.929 . S
C6 C5 1.386 . S
C6 C7 1.373 . S
C7 C6 1.373 . S
C7 C8 1.409 . S
C7 H34 0.931 . S
C8 C3 1.356 . S
C8 C7 1.409 . S
C8 H35 0.930 . S
C9 O22 1.270 . S
C9 O23 1.252 . S
C10 O24 1.267 . S
C10 O25 1.278 . S
C11 Pr1 2.880 . S
C11 C12 1.491 . S
C11 O26 1.254 . S
C11 O27 1.225 . S
C12 C11 1.491 . S
C12 C13 1.392 . S
C12 C17 1.356 . S
C13 C12 1.392 . S
C13 C14 1.368 . S
C13 H36 0.929 . S
C14 C13 1.368 . S
C14 C15 1.386 . S
C14 H37 0.929 . S
C15 C14 1.386 . S
C15 C16 1.373 . S
C16 C15 1.373 . S
C16 C17 1.409 . S
C16 H38 0.931 . S
C17 C12 1.356 . S
C17 C16 1.409 . S
C17 H39 0.930 . S
C18 O28 1.270 . S
C18 O29 1.248 . S
C19 O30 1.267 . S
C19 O31 1.278 . S
O20 Pr0 2.562 1_655 S
O20 C2 1.254 . S
O21 Pr0 2.490 1_655 S
O21 C2 1.225 . S
O22 Pr0 2.695 . S
O22 Pr1 2.436 . S
O22 C9 1.270 . S
O23 Pr0 2.512 . S
O23 C9 1.252 . S
O24 Pr1 2.438 1_655 S
O24 C10 1.267 . S
O25 Pr0 2.437 1_655 S
O25 C10 1.278 . S
O26 Pr1 2.562 . S
O26 C11 1.254 . S
O27 Pr1 2.490 . S
O27 C11 1.225 . S
O28 Pr0 2.436 . S
O28 Pr1 2.695 . S
O28 C18 1.270 . S
O29 Pr1 2.512 . S
O29 C18 1.248 . S
O30 Pr0 2.438 . S
O30 C19 1.267 . S
O31 Pr1 2.437 . S
O31 C19 1.278 . S
H32 C4 0.929 . S
H33 C5 0.929 . S
H34 C7 0.931 . S
H35 C8 0.930 . S
H36 C13 0.929 . S
H37 C14 0.929 . S
H38 C16 0.931 . S
H39 C17 0.930 . S
Pr40 C42 2.880 . S
Pr40 O60 2.562 . S
Pr40 O61 2.490 . S
Pr40 O62 2.695 . S
Pr40 O63 2.512 . S
Pr40 O65 2.437 . S
Pr40 O68 2.436 . S
Pr40 O70 2.438 . S
Pr41 C51 2.880 1_545 S
Pr41 O62 2.436 . S
Pr41 O64 2.438 . S
Pr41 O66 2.562 1_545 S
Pr41 O67 2.490 1_545 S
Pr41 O68 2.695 . S
Pr41 O69 2.512 . S
Pr41 O71 2.437 1_545 S
C42 Pr40 2.880 . S
C42 C43 1.491 . S
C42 O60 1.254 . S
C42 O61 1.225 . S
C43 C42 1.491 . S
C43 C44 1.392 . S
C43 C48 1.356 . S
C44 C43 1.392 . S
C44 C45 1.368 . S
C44 H72 0.929 . S
C45 C44 1.368 . S
C45 C46 1.386 . S
C45 H73 0.929 . S
C46 C45 1.386 . S
C46 C47 1.373 . S
C47 C46 1.373 . S
C47 C48 1.409 . S
C47 H74 0.931 . S
C48 C43 1.356 . S
C48 C47 1.409 . S
C48 H75 0.930 . S
C49 O62 1.270 . S
C49 O63 1.248 . S
C50 O64 1.267 . S
C50 O65 1.278 . S
C51 Pr41 2.880 1_565 S
C51 C52 1.491 . S
C51 O66 1.254 . S
C51 O67 1.225 . S
C52 C51 1.491 . S
C52 C53 1.392 . S
C52 C57 1.356 . S
C53 C52 1.392 . S
C53 C54 1.368 . S
C53 H76 0.929 . S
C54 C53 1.368 . S
C54 C55 1.386 . S
C54 H77 0.929 . S
C55 C54 1.386 . S
C55 C56 1.373 . S
C56 C55 1.373 . S
C56 C57 1.409 . S
C56 H78 0.931 . S
C57 C52 1.356 . S
C57 C56 1.409 . S
C57 H79 0.930 . S
C58 O68 1.270 . S
C58 O69 1.248 . S
C59 O70 1.267 1_565 S
C59 O71 1.278 . S
O60 Pr40 2.562 . S
O60 C42 1.254 . S
O61 Pr40 2.490 . S
O61 C42 1.225 . S
O62 Pr40 2.695 . S
O62 Pr41 2.436 . S
O62 C49 1.270 . S
O63 Pr40 2.512 . S
O63 C49 1.248 . S
O64 Pr41 2.438 . S
O64 C50 1.267 . S
O65 Pr40 2.437 . S
O65 C50 1.278 . S
O66 Pr41 2.562 1_565 S
O66 C51 1.254 . S
O67 Pr41 2.490 1_565 S
O67 C51 1.225 . S
O68 Pr40 2.436 . S
O68 Pr41 2.695 . S
O68 C58 1.270 . S
O69 Pr41 2.512 . S
O69 C58 1.248 . S
O70 Pr40 2.438 . S
O70 C59 1.267 1_545 S
O71 Pr41 2.437 1_565 S
O71 C59 1.278 . S
H72 C44 0.929 . S
H73 C45 0.929 . S
H74 C47 0.931 . S
H75 C48 0.930 . S
H76 C53 0.929 . S
H77 C54 0.929 . S
H78 C56 0.931 . S
H79 C57 0.930 . S
Pr80 C82 2.880 . S
Pr80 O100 2.562 . S
Pr80 O101 2.490 . S
Pr80 O102 2.695 . S
Pr80 O103 2.512 . S
Pr80 O105 2.437 . S
Pr80 O108 2.436 . S
Pr80 O110 2.438 . S
Pr81 C91 2.880 . S
Pr81 O102 2.436 . S
Pr81 O104 2.438 . S
Pr81 O106 2.562 . S
Pr81 O107 2.490 . S
Pr81 O108 2.695 . S
Pr81 O109 2.512 . S
Pr81 O111 2.437 . S
C82 Pr80 2.880 . S
C82 C83 1.491 . S
C82 O100 1.254 . S
C82 O101 1.225 . S
C83 C82 1.491 . S
C83 C84 1.392 . S
C83 C88 1.356 . S
C84 C83 1.392 . S
C84 C85 1.368 . S
C84 H112 0.929 . S
C85 C84 1.368 . S
C85 C86 1.386 . S
C85 H113 0.929 . S
C86 C85 1.386 . S
C86 C87 1.373 . S
C87 C86 1.373 . S
C87 C88 1.409 . S
C87 H114 0.931 . S
C88 C83 1.356 . S
C88 C87 1.409 . S
C88 H115 0.930 . S
C89 O102 1.270 . S
C89 O103 1.248 . S
C90 O104 1.267 . S
C90 O105 1.278 . S
C91 Pr81 2.880 . S
C91 C92 1.491 . S
C91 O106 1.254 . S
C91 O107 1.225 . S
C92 C91 1.491 . S
C92 C93 1.392 . S
C92 C97 1.356 . S
C93 C92 1.392 . S
C93 C94 1.368 . S
C93 H116 0.929 . S
C94 C93 1.368 . S
C94 C95 1.386 . S
C94 H117 0.929 . S
C95 C94 1.386 . S
C95 C96 1.373 . S
C96 C95 1.373 . S
C96 C97 1.409 . S
C96 H118 0.931 . S
C97 C92 1.356 . S
C97 C96 1.409 . S
C97 H119 0.930 . S
C98 O108 1.270 . S
C98 O109 1.248 . S
C99 O110 1.267 . S
C99 O111 1.278 . S
O100 Pr80 2.562 . S
O100 C82 1.254 . S
O101 Pr80 2.490 . S
O101 C82 1.225 . S
O102 Pr80 2.695 . S
O102 Pr81 2.436 . S
O102 C89 1.270 . S
O103 Pr80 2.512 . S
O103 C89 1.248 . S
O104 Pr81 2.438 . S
O104 C90 1.267 . S
O105 Pr80 2.437 . S
O105 C90 1.278 . S
O106 Pr81 2.562 . S
O106 C91 1.254 . S
O107 Pr81 2.490 . S
O107 C91 1.225 . S
O108 Pr80 2.436 . S
O108 Pr81 2.695 . S
O108 C98 1.270 . S
O109 Pr81 2.512 . S
O109 C98 1.248 . S
O110 Pr80 2.438 . S
O110 C99 1.267 . S
O111 Pr81 2.437 . S
O111 C99 1.278 . S
H112 C84 0.929 . S
H113 C85 0.929 . S
H114 C87 0.931 . S
H115 C88 0.930 . S
H116 C93 0.929 . S
H117 C94 0.929 . S
H118 C96 0.931 . S
H119 C97 0.930 . S
H120 C123 0.929 . S
H121 C126 0.929 . S
H122 C128 0.930 . S
C123 H120 0.929 . S
C123 C124 1.398 . S
C123 C125 1.396 . S
C124 C123 1.398 . S
C124 C128 1.407 . S
C125 C123 1.396 . S
C125 C126 1.394 . S
C126 H121 0.929 . S
C126 C125 1.394 . S
C126 C127 1.382 . S
C127 C126 1.382 . S
C127 C128 1.392 . S
C127 N129 1.420 . S
C128 H122 0.930 . S
C128 C124 1.407 . S
C128 C127 1.392 . S
N129 C127 1.420 . S
N129 C130 1.244 . S
C130 N129 1.244 . S
H131 C134 0.929 . S
H132 C137 0.929 . S
H133 C139 0.930 . S
C134 H131 0.929 . S
C134 C135 1.398 . S
C134 C136 1.396 . S
C135 C134 1.398 . S
C135 C139 1.407 . S
C136 C134 1.396 . S
C136 C137 1.394 . S
C137 H132 0.929 . S
C137 C136 1.394 . S
C137 C138 1.382 . S
C138 C137 1.382 . S
C138 C139 1.392 . S
C138 N140 1.420 . S
C139 H133 0.930 . S
C139 C135 1.407 . S
C139 C138 1.392 . S
N140 C138 1.420 . S
N140 C141 1.244 . S
C141 N140 1.244 . S
H142 C145 0.929 1_655 S
H143 C148 0.929 . S
H144 C150 0.930 . S
C145 H142 0.929 1_455 S
C145 C146 1.398 1_455 S
C145 C147 1.396 . S
C146 C145 1.398 1_655 S
C146 C150 1.407 1_655 S
C147 C145 1.396 . S
C147 C148 1.394 . S
C148 H143 0.929 . S
C148 C147 1.394 . S
C148 C149 1.382 . S
C149 C148 1.382 . S
C149 C150 1.392 . S
C149 N151 1.420 . S
C150 H144 0.930 . S
C150 C146 1.407 1_455 S
C150 C149 1.392 . S
N151 C149 1.420 . S
N151 C152 1.244 . S
C152 N151 1.244 . S
H153 C156 0.929 . S
H154 C159 0.929 . S
H155 C161 0.930 . S
C156 H153 0.929 . S
C156 C157 1.398 . S
C156 C158 1.396 . S
C157 C156 1.398 . S
C157 C161 1.407 . S
C158 C156 1.396 . S
C158 C159 1.394 1_455 S
C159 H154 0.929 . S
C159 C158 1.394 1_655 S
C159 C160 1.382 1_655 S
C160 C159 1.382 1_455 S
C160 C161 1.392 . S
C160 N162 1.420 1_455 S
C161 H155 0.930 . S
C161 C157 1.407 . S
C161 C160 1.392 . S
N162 C160 1.420 1_655 S
N162 C163 1.244 . S
C163 N162 1.244 . S
H164 C167 0.929 . S
H165 C170 0.929 1_565 S
H166 C172 0.930 . S
C167 H164 0.929 . S
C167 C168 1.398 . S
C167 C169 1.396 . S
C168 C167 1.398 . S
C168 C172 1.407 . S
C169 C167 1.396 . S
C169 C170 1.394 . S
C170 H165 0.929 1_545 S
C170 C169 1.394 . S
C170 C171 1.382 . S
C171 C170 1.382 . S
C171 C172 1.392 . S
C171 N173 1.420 1_545 S
C172 H166 0.930 . S
C172 C168 1.407 . S
C172 C171 1.392 . S
N173 C171 1.420 1_565 S
N173 C174 1.244 . S
C174 N173 1.244 . S
H175 C178 0.929 . S
H176 C181 0.929 . S
H177 C183 0.930 . S
C178 H175 0.929 . S
C178 C179 1.398 . S
C178 C180 1.396 . S
C179 C178 1.398 . S
C179 C183 1.407 . S
C180 C178 1.396 . S
C180 C181 1.394 . S
C181 H176 0.929 . S
C181 C180 1.394 . S
C181 C182 1.382 . S
C182 C181 1.382 . S
C182 C183 1.392 . S
C182 N184 1.420 . S
C183 H177 0.930 . S
C183 C179 1.407 . S
C183 C182 1.392 . S
N184 C182 1.420 . S
N184 C185 1.244 . S
C185 N184 1.244 . S
H186 C204 0.951 . S
H187 C206 0.951 . S
H188 C208 0.950 . S
H189 C209 0.950 . S
H190 C211 0.950 . S
H191 C214 0.950 . S
H192 C215 0.950 . S
H193 C217 0.950 . S
H194 C218 0.950 . S
H195 C219 0.951 . S
H196 C221 0.951 . S
H197 C223 0.950 . S
H198 C224 0.950 . S
H199 C226 0.950 . S
H200 C229 0.950 . S
H201 C230 0.950 . S
H202 C232 0.950 . S
H203 C233 0.950 . S
C204 H186 0.951 . S
C204 C205 1.366 . S
C204 C206 1.388 . S
C205 C204 1.366 . S
C205 C209 1.385 . S
C206 H187 0.951 . S
C206 C204 1.388 . S
C206 C207 1.366 . S
C207 C206 1.366 . S
C207 C208 1.414 . S
C207 C210 1.499 . S
C208 H188 0.950 . S
C208 C207 1.414 . S
C208 C209 1.374 . S
C209 H189 0.950 . S
C209 C205 1.385 . S
C209 C208 1.374 . S
C210 C207 1.499 . S
C210 C211 1.373 . S
C210 C212 1.389 . S
C211 H190 0.950 . S
C211 C210 1.373 . S
C211 C227 1.377 . S
C212 C210 1.389 . S
C212 C213 1.524 . S
C212 C226 1.377 . S
C213 C212 1.524 . S
C213 C214 1.397 . S
C213 C218 1.363 . S
C214 H191 0.950 . S
C214 C213 1.397 . S
C214 C215 1.334 . S
C215 H192 0.950 . S
C215 C214 1.334 . S
C215 C216 1.287 . S
C216 C215 1.287 . S
C216 C217 1.524 . S
C216 H235 0.913 . S
C217 H193 0.950 . S
C217 C216 1.524 . S
C217 C218 1.415 . S
C218 H194 0.950 . S
C218 C213 1.363 . S
C218 C217 1.415 . S
C219 H195 0.951 . S
C219 C220 1.366 . S
C219 C221 1.388 . S
C220 C219 1.366 . S
C220 C224 1.385 . S
C221 H196 0.951 . S
C221 C219 1.388 . S
C221 C222 1.366 . S
C222 C221 1.366 . S
C222 C223 1.414 . S
C222 C225 1.499 . S
C223 H197 0.950 . S
C223 C222 1.414 . S
C223 C224 1.374 . S
C224 H198 0.950 . S
C224 C220 1.385 . S
C224 C223 1.374 . S
C225 C222 1.499 . S
C225 C226 1.373 . S
C225 C227 1.389 . S
C226 H199 0.950 . S
C226 C212 1.377 . S
C226 C225 1.373 . S
C227 C211 1.377 . S
C227 C225 1.389 . S
C227 C228 1.524 . S
C228 C227 1.524 . S
C228 C229 1.397 . S
C228 C233 1.363 . S
C229 H200 0.950 . S
C229 C228 1.397 . S
C229 C230 1.334 . S
C230 H201 0.950 . S
C230 C229 1.334 . S
C230 C231 1.287 . S
C231 C230 1.287 . S
C231 C232 1.524 . S
C231 H234 0.999 . S
C232 H202 0.950 . S
C232 C231 1.524 . S
C232 C233 1.415 . S
C233 H203 0.950 . S
C233 C228 1.363 . S
C233 C232 1.415 . S
H234 C231 0.999 . S
H235 C216 0.913 . S
H236 C254 0.951 . S
H237 C256 0.951 . S
H238 C258 0.950 . S
H239 C259 0.950 . S
H240 C261 0.950 . S
H241 C264 0.950 . S
H242 C265 0.950 . S
H243 C267 0.950 . S
H244 C268 0.950 . S
H245 C269 0.951 . S
H246 C271 0.951 . S
H247 C273 0.950 . S
H248 C274 0.950 . S
H249 C276 0.950 . S
H250 C279 0.950 . S
H251 C280 0.950 . S
H252 C282 0.950 . S
H253 C283 0.950 . S
C254 H236 0.951 . S
C254 C255 1.366 . S
C254 C256 1.388 . S
C255 C254 1.366 . S
C255 C259 1.385 . S
C256 H237 0.951 . S
C256 C254 1.388 . S
C256 C257 1.366 . S
C257 C256 1.366 . S
C257 C258 1.414 . S
C257 C260 1.499 . S
C258 H238 0.950 . S
C258 C257 1.414 . S
C258 C259 1.374 . S
C259 H239 0.950 . S
C259 C255 1.385 . S
C259 C258 1.374 . S
C260 C257 1.499 . S
C260 C261 1.373 . S
C260 C262 1.389 . S
C261 H240 0.950 . S
C261 C260 1.373 . S
C261 C277 1.377 . S
C262 C260 1.389 . S
C262 C263 1.524 . S
C262 C276 1.377 . S
C263 C262 1.524 . S
C263 C264 1.397 . S
C263 C268 1.363 . S
C264 H241 0.950 . S
C264 C263 1.397 . S
C264 C265 1.334 . S
C265 H242 0.950 . S
C265 C264 1.334 . S
C265 C266 1.287 . S
C266 C265 1.287 . S
C266 C267 1.524 . S
C266 H285 0.913 . S
C267 H243 0.950 . S
C267 C266 1.524 . S
C267 C268 1.415 . S
C268 H244 0.950 . S
C268 C263 1.363 . S
C268 C267 1.415 . S
C269 H245 0.951 . S
C269 C270 1.366 . S
C269 C271 1.388 . S
C270 C269 1.366 . S
C270 C274 1.385 . S
C271 H246 0.951 . S
C271 C269 1.388 . S
C271 C272 1.366 . S
C272 C271 1.366 . S
C272 C273 1.414 . S
C272 C275 1.499 . S
C273 H247 0.950 . S
C273 C272 1.414 . S
C273 C274 1.374 . S
C274 H248 0.950 . S
C274 C270 1.385 . S
C274 C273 1.374 . S
C275 C272 1.499 . S
C275 C276 1.373 . S
C275 C277 1.389 . S
C276 H249 0.950 . S
C276 C262 1.377 . S
C276 C275 1.373 . S
C277 C261 1.377 . S
C277 C275 1.389 . S
C277 C278 1.524 . S
C278 C277 1.524 . S
C278 C279 1.397 . S
C278 C283 1.363 . S
C279 H250 0.950 . S
C279 C278 1.397 . S
C279 C280 1.334 . S
C280 H251 0.950 . S
C280 C279 1.334 . S
C280 C281 1.287 . S
C281 C280 1.287 . S
C281 C282 1.524 . S
C281 H284 0.999 . S
C282 H252 0.950 . S
C282 C281 1.524 . S
C282 C283 1.415 . S
C283 H253 0.950 . S
C283 C278 1.363 . S
C283 C282 1.415 . S
H284 C281 0.999 . S
H285 C266 0.913 . S
H286 C304 0.951 . S
H287 C306 0.951 . S
H288 C308 0.950 . S
H289 C309 0.950 . S
H290 C311 0.950 . S
H291 C314 0.950 . S
H292 C315 0.950 . S
H293 C317 0.950 . S
H294 C318 0.950 . S
H295 C319 0.951 . S
H296 C321 0.951 . S
H297 C323 0.950 . S
H298 C324 0.950 . S
H299 C326 0.950 . S
H300 C329 0.950 . S
H301 C330 0.950 . S
H302 C332 0.950 . S
H303 C333 0.950 . S
C304 H286 0.951 . S
C304 C305 1.366 . S
C304 C306 1.388 . S
C305 C304 1.366 . S
C305 C309 1.385 . S
C306 H287 0.951 . S
C306 C304 1.388 . S
C306 C307 1.366 . S
C307 C306 1.366 . S
C307 C308 1.414 . S
C307 C310 1.499 . S
C308 H288 0.950 . S
C308 C307 1.414 . S
C308 C309 1.374 . S
C309 H289 0.950 . S
C309 C305 1.385 . S
C309 C308 1.374 . S
C310 C307 1.499 . S
C310 C311 1.373 . S
C310 C312 1.389 . S
C311 H290 0.950 . S
C311 C310 1.373 . S
C311 C327 1.377 . S
C312 C310 1.389 . S
C312 C313 1.524 . S
C312 C326 1.377 . S
C313 C312 1.524 . S
C313 C314 1.397 . S
C313 C318 1.363 . S
C314 H291 0.950 . S
C314 C313 1.397 . S
C314 C315 1.334 . S
C315 H292 0.950 . S
C315 C314 1.334 . S
C315 C316 1.287 . S
C316 C315 1.287 . S
C316 C317 1.524 . S
C316 H335 0.913 . S
C317 H293 0.950 . S
C317 C316 1.524 . S
C317 C318 1.415 . S
C318 H294 0.950 . S
C318 C313 1.363 . S
C318 C317 1.415 . S
C319 H295 0.951 . S
C319 C320 1.366 . S
C319 C321 1.388 . S
C320 C319 1.366 . S
C320 C324 1.385 . S
C321 H296 0.951 . S
C321 C319 1.388 . S
C321 C322 1.366 . S
C322 C321 1.366 . S
C322 C323 1.414 . S
C322 C325 1.499 . S
C323 H297 0.950 . S
C323 C322 1.414 . S
C323 C324 1.374 . S
C324 H298 0.950 . S
C324 C320 1.385 . S
C324 C323 1.374 . S
C325 C322 1.499 . S
C325 C326 1.373 . S
C325 C327 1.389 . S
C326 H299 0.950 . S
C326 C312 1.377 . S
C326 C325 1.373 . S
C327 C311 1.377 . S
C327 C325 1.389 . S
C327 C328 1.524 . S
C328 C327 1.524 . S
C328 C329 1.397 . S
C328 C333 1.363 . S
C329 H300 0.950 . S
C329 C328 1.397 . S
C329 C330 1.334 . S
C330 H301 0.950 . S
C330 C329 1.334 . S
C330 C331 1.287 . S
C331 C330 1.287 . S
C331 C332 1.524 . S
C331 H334 0.999 . S
C332 H302 0.950 . S
C332 C331 1.524 . S
C332 C333 1.415 . S
C333 H303 0.950 . S
C333 C328 1.363 . S
C333 C332 1.415 . S
H334 C331 0.999 . S
H335 C316 0.913 . S
H336 C354 0.951 . S
H337 C356 0.951 . S
H338 C358 0.950 . S
H339 C359 0.950 . S
H340 C361 0.950 . S
H341 C364 0.950 . S
H342 C365 0.950 . S
H343 C367 0.950 . S
H344 C368 0.950 . S
H345 C369 0.951 . S
H346 C371 0.951 . S
H347 C373 0.950 . S
H348 C374 0.950 . S
H349 C376 0.950 . S
H350 C379 0.950 . S
H351 C380 0.950 . S
H352 C382 0.950 . S
H353 C383 0.950 . S
C354 H336 0.951 . S
C354 C355 1.366 . S
C354 C356 1.388 . S
C355 C354 1.366 . S
C355 C359 1.385 . S
C356 H337 0.951 . S
C356 C354 1.388 . S
C356 C357 1.366 . S
C357 C356 1.366 . S
C357 C358 1.414 . S
C357 C360 1.499 . S
C358 H338 0.950 . S
C358 C357 1.414 . S
C358 C359 1.374 . S
C359 H339 0.950 . S
C359 C355 1.385 . S
C359 C358 1.374 . S
C360 C357 1.499 . S
C360 C361 1.373 . S
C360 C362 1.389 . S
C361 H340 0.950 . S
C361 C360 1.373 . S
C361 C377 1.377 . S
C362 C360 1.389 . S
C362 C363 1.524 . S
C362 C376 1.377 . S
C363 C362 1.524 . S
C363 C364 1.397 . S
C363 C368 1.363 . S
C364 H341 0.950 . S
C364 C363 1.397 . S
C364 C365 1.334 . S
C365 H342 0.950 . S
C365 C364 1.334 . S
C365 C366 1.287 . S
C366 C365 1.287 . S
C366 C367 1.524 . S
C366 H385 0.913 . S
C367 H343 0.950 . S
C367 C366 1.524 . S
C367 C368 1.415 . S
C368 H344 0.950 . S
C368 C363 1.363 . S
C368 C367 1.415 . S
C369 H345 0.951 . S
C369 C370 1.366 . S
C369 C371 1.388 . S
C370 C369 1.366 . S
C370 C374 1.385 . S
C371 H346 0.951 . S
C371 C369 1.388 . S
C371 C372 1.366 . S
C372 C371 1.366 . S
C372 C373 1.414 . S
C372 C375 1.499 . S
C373 H347 0.950 . S
C373 C372 1.414 . S
C373 C374 1.374 . S
C374 H348 0.950 . S
C374 C370 1.385 . S
C374 C373 1.374 . S
C375 C372 1.499 . S
C375 C376 1.373 . S
C375 C377 1.389 . S
C376 H349 0.950 . S
C376 C362 1.377 . S
C376 C375 1.373 . S
C377 C361 1.377 . S
C377 C375 1.389 . S
C377 C378 1.524 . S
C378 C377 1.524 . S
C378 C379 1.397 . S
C378 C383 1.363 . S
C379 H350 0.950 . S
C379 C378 1.397 . S
C379 C380 1.334 . S
C380 H351 0.950 . S
C380 C379 1.334 . S
C380 C381 1.287 . S
C381 C380 1.287 . S
C381 C382 1.524 . S
C381 H384 0.999 . S
C382 H352 0.950 . S
C382 C381 1.524 . S
C382 C383 1.415 . S
C383 H353 0.950 . S
C383 C378 1.363 . S
C383 C382 1.415 . S
H384 C381 0.999 . S
H385 C366 0.913 . S
H386 C404 0.951 . S
H387 C406 0.951 . S
H388 C408 0.950 . S
H389 C409 0.950 . S
H390 C411 0.950 . S
H391 C414 0.950 . S
H392 C415 0.950 . S
H393 C417 0.950 . S
H394 C418 0.950 . S
H395 C419 0.951 . S
H396 C421 0.951 . S
H397 C423 0.950 . S
H398 C424 0.950 . S
H399 C426 0.950 . S
H400 C429 0.950 . S
H401 C430 0.950 . S
H402 C432 0.950 . S
H403 C433 0.950 . S
C404 H386 0.951 . S
C404 C405 1.366 . S
C404 C406 1.388 . S
C405 C404 1.366 . S
C405 C409 1.385 . S
C406 H387 0.951 . S
C406 C404 1.388 . S
C406 C407 1.366 . S
C407 C406 1.366 . S
C407 C408 1.414 . S
C407 C410 1.499 . S
C408 H388 0.950 . S
C408 C407 1.414 . S
C408 C409 1.374 . S
C409 H389 0.950 . S
C409 C405 1.385 . S
C409 C408 1.374 . S
C410 C407 1.499 . S
C410 C411 1.373 . S
C410 C412 1.389 . S
C411 H390 0.950 . S
C411 C410 1.373 . S
C411 C427 1.377 . S
C412 C410 1.389 . S
C412 C413 1.524 . S
C412 C426 1.377 . S
C413 C412 1.524 . S
C413 C414 1.397 . S
C413 C418 1.363 . S
C414 H391 0.950 . S
C414 C413 1.397 . S
C414 C415 1.334 . S
C415 H392 0.950 . S
C415 C414 1.334 . S
C415 C416 1.287 . S
C416 C415 1.287 . S
C416 C417 1.524 . S
C416 H435 0.913 . S
C417 H393 0.950 . S
C417 C416 1.524 . S
C417 C418 1.415 . S
C418 H394 0.950 . S
C418 C413 1.363 . S
C418 C417 1.415 . S
C419 H395 0.951 . S
C419 C420 1.366 . S
C419 C421 1.388 . S
C420 C419 1.366 . S
C420 C424 1.385 . S
C421 H396 0.951 . S
C421 C419 1.388 . S
C421 C422 1.366 . S
C422 C421 1.366 . S
C422 C423 1.414 . S
C422 C425 1.499 . S
C423 H397 0.950 . S
C423 C422 1.414 . S
C423 C424 1.374 . S
C424 H398 0.950 . S
C424 C420 1.385 . S
C424 C423 1.374 . S
C425 C422 1.499 . S
C425 C426 1.373 . S
C425 C427 1.389 . S
C426 H399 0.950 . S
C426 C412 1.377 . S
C426 C425 1.373 . S
C427 C411 1.377 . S
C427 C425 1.389 . S
C427 C428 1.524 . S
C428 C427 1.524 . S
C428 C429 1.397 . S
C428 C433 1.363 . S
C429 H400 0.950 . S
C429 C428 1.397 . S
C429 C430 1.334 . S
C430 H401 0.950 . S
C430 C429 1.334 . S
C430 C431 1.287 . S
C431 C430 1.287 . S
C431 C432 1.524 . S
C431 H434 0.999 . S
C432 H402 0.950 . S
C432 C431 1.524 . S
C432 C433 1.415 . S
C433 H403 0.950 . S
C433 C428 1.363 . S
C433 C432 1.415 . S
H434 C431 0.999 . S
H435 C416 0.913 . S
H436 C454 0.951 . S
H437 C456 0.951 . S
H438 C458 0.950 . S
H439 C459 0.950 . S
H440 C461 0.950 . S
H441 C464 0.950 . S
H442 C465 0.950 . S
H443 C467 0.950 . S
H444 C468 0.950 . S
H445 C469 0.951 . S
H446 C471 0.951 . S
H447 C473 0.950 . S
H448 C474 0.950 . S
H449 C476 0.950 . S
H450 C479 0.950 . S
H451 C480 0.950 . S
H452 C482 0.950 . S
H453 C483 0.950 . S
C454 H436 0.951 . S
C454 C455 1.366 . S
C454 C456 1.388 . S
C455 C454 1.366 . S
C455 C459 1.385 . S
C456 H437 0.951 . S
C456 C454 1.388 . S
C456 C457 1.366 . S
C457 C456 1.366 . S
C457 C458 1.414 . S
C457 C460 1.499 . S
C458 H438 0.950 . S
C458 C457 1.414 . S
C458 C459 1.374 . S
C459 H439 0.950 . S
C459 C455 1.385 . S
C459 C458 1.374 . S
C460 C457 1.499 . S
C460 C461 1.373 . S
C460 C462 1.389 . S
C461 H440 0.950 . S
C461 C460 1.373 . S
C461 C477 1.377 . S
C462 C460 1.389 . S
C462 C463 1.524 . S
C462 C476 1.377 . S
C463 C462 1.524 . S
C463 C464 1.397 . S
C463 C468 1.363 . S
C464 H441 0.950 . S
C464 C463 1.397 . S
C464 C465 1.334 . S
C465 H442 0.950 . S
C465 C464 1.334 . S
C465 C466 1.287 . S
C466 C465 1.287 . S
C466 C467 1.524 . S
C466 H485 0.913 . S
C467 H443 0.950 . S
C467 C466 1.524 . S
C467 C468 1.415 . S
C468 H444 0.950 . S
C468 C463 1.363 . S
C468 C467 1.415 . S
C469 H445 0.951 . S
C469 C470 1.366 . S
C469 C471 1.388 . S
C470 C469 1.366 . S
C470 C474 1.385 . S
C471 H446 0.951 . S
C471 C469 1.388 . S
C471 C472 1.366 . S
C472 C471 1.366 . S
C472 C473 1.414 . S
C472 C475 1.499 . S
C473 H447 0.950 . S
C473 C472 1.414 . S
C473 C474 1.374 . S
C474 H448 0.950 . S
C474 C470 1.385 . S
C474 C473 1.374 . S
C475 C472 1.499 . S
C475 C476 1.373 . S
C475 C477 1.389 . S
C476 H449 0.950 . S
C476 C462 1.377 . S
C476 C475 1.373 . S
C477 C461 1.377 . S
C477 C475 1.389 . S
C477 C478 1.524 . S
C478 C477 1.524 . S
C478 C479 1.397 . S
C478 C483 1.363 . S
C479 H450 0.950 . S
C479 C478 1.397 . S
C479 C480 1.334 . S
C480 H451 0.950 . S
C480 C479 1.334 . S
C480 C481 1.287 . S
C481 C480 1.287 . S
C481 C482 1.524 . S
C481 H484 0.999 . S
C482 H452 0.950 . S
C482 C481 1.524 . S
C482 C483 1.415 . S
C483 H453 0.950 . S
C483 C478 1.363 . S
C483 C482 1.415 . S
H484 C481 0.999 . S
H485 C466 0.913 . S
H486 C504 0.951 . S
H487 C506 0.951 . S
H488 C508 0.950 . S
H489 C509 0.950 . S
H490 C511 0.950 . S
H491 C514 0.950 . S
H492 C515 0.950 . S
H493 C517 0.950 . S
H494 C518 0.950 . S
H495 C519 0.951 . S
H496 C521 0.951 . S
H497 C523 0.950 . S
H498 C524 0.950 . S
H499 C526 0.950 . S
H500 C529 0.950 . S
H501 C530 0.950 . S
H502 C532 0.950 . S
H503 C533 0.950 . S
C504 H486 0.951 . S
C504 C505 1.366 . S
C504 C506 1.388 . S
C505 C504 1.366 . S
C505 C509 1.385 . S
C506 H487 0.951 . S
C506 C504 1.388 . S
C506 C507 1.366 . S
C507 C506 1.366 . S
C507 C508 1.414 . S
C507 C510 1.499 . S
C508 H488 0.950 . S
C508 C507 1.414 . S
C508 C509 1.374 . S
C509 H489 0.950 . S
C509 C505 1.385 . S
C509 C508 1.374 . S
C510 C507 1.499 . S
C510 C511 1.373 . S
C510 C512 1.389 . S
C511 H490 0.950 . S
C511 C510 1.373 . S
C511 C527 1.377 . S
C512 C510 1.389 . S
C512 C513 1.524 . S
C512 C526 1.377 . S
C513 C512 1.524 . S
C513 C514 1.397 . S
C513 C518 1.363 . S
C514 H491 0.950 . S
C514 C513 1.397 . S
C514 C515 1.334 . S
C515 H492 0.950 . S
C515 C514 1.334 . S
C515 C516 1.287 . S
C516 C515 1.287 . S
C516 C517 1.524 . S
C516 H535 0.913 . S
C517 H493 0.950 . S
C517 C516 1.524 . S
C517 C518 1.415 . S
C518 H494 0.950 . S
C518 C513 1.363 . S
C518 C517 1.415 . S
C519 H495 0.951 . S
C519 C520 1.366 . S
C519 C521 1.388 . S
C520 C519 1.366 . S
C520 C524 1.385 . S
C521 H496 0.951 . S
C521 C519 1.388 . S
C521 C522 1.366 . S
C522 C521 1.366 . S
C522 C523 1.414 . S
C522 C525 1.499 . S
C523 H497 0.950 . S
C523 C522 1.414 . S
C523 C524 1.374 . S
C524 H498 0.950 . S
C524 C520 1.385 . S
C524 C523 1.374 . S
C525 C522 1.499 . S
C525 C526 1.373 . S
C525 C527 1.389 . S
C526 H499 0.950 . S
C526 C512 1.377 . S
C526 C525 1.373 . S
C527 C511 1.377 . S
C527 C525 1.389 . S
C527 C528 1.524 . S
C528 C527 1.524 . S
C528 C529 1.397 . S
C528 C533 1.363 . S
C529 H500 0.950 . S
C529 C528 1.397 . S
C529 C530 1.334 . S
C530 H501 0.950 . S
C530 C529 1.334 . S
C530 C531 1.287 . S
C531 C530 1.287 . S
C531 C532 1.524 . S
C531 H534 0.999 . S
C532 H502 0.950 . S
C532 C531 1.524 . S
C532 C533 1.415 . S
C533 H503 0.950 . S
C533 C528 1.363 . S
C533 C532 1.415 . S
H534 C531 0.999 . S
H535 C516 0.913 . S
H536 C554 0.951 . S
H537 C556 0.951 . S
H538 C558 0.950 . S
H539 C559 0.950 . S
H540 C561 0.950 . S
H541 C564 0.950 . S
H542 C565 0.950 . S
H543 C567 0.950 . S
H544 C568 0.950 . S
H545 C569 0.951 . S
H546 C571 0.951 . S
H547 C573 0.950 . S
H548 C574 0.950 . S
H549 C576 0.950 . S
H550 C579 0.950 . S
H551 C580 0.950 . S
H552 C582 0.950 . S
H553 C583 0.950 . S
C554 H536 0.951 . S
C554 C555 1.366 . S
C554 C556 1.388 . S
C555 C554 1.366 . S
C555 C559 1.385 . S
C556 H537 0.951 . S
C556 C554 1.388 . S
C556 C557 1.366 . S
C557 C556 1.366 . S
C557 C558 1.414 . S
C557 C560 1.499 . S
C558 H538 0.950 . S
C558 C557 1.414 . S
C558 C559 1.374 . S
C559 H539 0.950 . S
C559 C555 1.385 . S
C559 C558 1.374 . S
C560 C557 1.499 . S
C560 C561 1.373 . S
C560 C562 1.389 . S
C561 H540 0.950 . S
C561 C560 1.373 . S
C561 C577 1.377 . S
C562 C560 1.389 . S
C562 C563 1.524 . S
C562 C576 1.377 . S
C563 C562 1.524 . S
C563 C564 1.397 . S
C563 C568 1.363 . S
C564 H541 0.950 . S
C564 C563 1.397 . S
C564 C565 1.334 . S
C565 H542 0.950 . S
C565 C564 1.334 . S
C565 C566 1.287 . S
C566 C565 1.287 . S
C566 C567 1.524 . S
C566 H585 0.913 . S
C567 H543 0.950 . S
C567 C566 1.524 . S
C567 C568 1.415 . S
C568 H544 0.950 . S
C568 C563 1.363 . S
C568 C567 1.415 . S
C569 H545 0.951 . S
C569 C570 1.366 . S
C569 C571 1.388 . S
C570 C569 1.366 . S
C570 C574 1.385 . S
C571 H546 0.951 . S
C571 C569 1.388 . S
C571 C572 1.366 . S
C572 C571 1.366 . S
C572 C573 1.414 . S
C572 C575 1.499 . S
C573 H547 0.950 . S
C573 C572 1.414 . S
C573 C574 1.374 . S
C574 H548 0.950 . S
C574 C570 1.385 . S
C574 C573 1.374 . S
C575 C572 1.499 . S
C575 C576 1.373 . S
C575 C577 1.389 . S
C576 H549 0.950 . S
C576 C562 1.377 . S
C576 C575 1.373 . S
C577 C561 1.377 . S
C577 C575 1.389 . S
C577 C578 1.524 . S
C578 C577 1.524 . S
C578 C579 1.397 . S
C578 C583 1.363 . S
C579 H550 0.950 . S
C579 C578 1.397 . S
C579 C580 1.334 . S
C580 H551 0.950 . S
C580 C579 1.334 . S
C580 C581 1.287 . S
C581 C580 1.287 . S
C581 C582 1.524 . S
C581 H584 0.999 . S
C582 H552 0.950 . S
C582 C581 1.524 . S
C582 C583 1.415 . S
C583 H553 0.950 . S
C583 C578 1.363 . S
C583 C582 1.415 . S
H584 C581 0.999 . S
H585 C566 0.913 . S
H586 C604 0.951 . S
H587 C606 0.951 . S
H588 C608 0.950 . S
H589 C609 0.950 . S
H590 C611 0.950 . S
H591 C614 0.950 . S
H592 C615 0.950 . S
H593 C617 0.950 . S
H594 C618 0.950 . S
H595 C619 0.951 . S
H596 C621 0.951 . S
H597 C623 0.950 . S
H598 C624 0.950 . S
H599 C626 0.950 . S
H600 C629 0.950 . S
H601 C630 0.950 . S
H602 C632 0.950 . S
H603 C633 0.950 . S
C604 H586 0.951 . S
C604 C605 1.366 . S
C604 C606 1.388 . S
C605 C604 1.366 . S
C605 C609 1.385 . S
C606 H587 0.951 . S
C606 C604 1.388 . S
C606 C607 1.366 . S
C607 C606 1.366 . S
C607 C608 1.414 . S
C607 C610 1.499 . S
C608 H588 0.950 . S
C608 C607 1.414 . S
C608 C609 1.374 . S
C609 H589 0.950 . S
C609 C605 1.385 . S
C609 C608 1.374 . S
C610 C607 1.499 . S
C610 C611 1.373 . S
C610 C612 1.389 . S
C611 H590 0.950 . S
C611 C610 1.373 . S
C611 C627 1.377 . S
C612 C610 1.389 . S
C612 C613 1.524 . S
C612 C626 1.377 . S
C613 C612 1.524 . S
C613 C614 1.397 . S
C613 C618 1.363 . S
C614 H591 0.950 . S
C614 C613 1.397 . S
C614 C615 1.334 . S
C615 H592 0.950 . S
C615 C614 1.334 . S
C615 C616 1.287 . S
C616 C615 1.287 . S
C616 C617 1.524 . S
C616 H635 0.913 . S
C617 H593 0.950 . S
C617 C616 1.524 . S
C617 C618 1.415 . S
C618 H594 0.950 . S
C618 C613 1.363 . S
C618 C617 1.415 . S
C619 H595 0.951 . S
C619 C620 1.366 1_565 S
C619 C621 1.388 . S
C620 C619 1.366 1_545 S
C620 C624 1.385 . S
C621 H596 0.951 . S
C621 C619 1.388 . S
C621 C622 1.366 . S
C622 C621 1.366 . S
C622 C623 1.414 . S
C622 C625 1.499 . S
C623 H597 0.950 . S
C623 C622 1.414 . S
C623 C624 1.374 1_565 S
C624 H598 0.950 . S
C624 C620 1.385 . S
C624 C623 1.374 1_545 S
C625 C622 1.499 . S
C625 C626 1.373 . S
C625 C627 1.389 . S
C626 H599 0.950 . S
C626 C612 1.377 . S
C626 C625 1.373 . S
C627 C611 1.377 . S
C627 C625 1.389 . S
C627 C628 1.524 . S
C628 C627 1.524 . S
C628 C629 1.397 . S
C628 C633 1.363 . S
C629 H600 0.950 . S
C629 C628 1.397 . S
C629 C630 1.334 . S
C630 H601 0.950 . S
C630 C629 1.334 . S
C630 C631 1.287 . S
C631 C630 1.287 . S
C631 C632 1.524 . S
C631 H634 0.999 . S
C632 H602 0.950 . S
C632 C631 1.524 . S
C632 C633 1.415 . S
C633 H603 0.950 . S
C633 C628 1.363 . S
C633 C632 1.415 . S
H634 C631 0.999 . S
H635 C616 0.913 . S
H636 C654 0.951 . S
H637 C656 0.951 . S
H638 C658 0.950 . S
H639 C659 0.950 . S
H640 C661 0.950 . S
H641 C664 0.950 . S
H642 C665 0.950 . S
H643 C667 0.950 . S
H644 C668 0.950 . S
H645 C669 0.951 . S
H646 C671 0.951 . S
H647 C673 0.950 . S
H648 C674 0.950 . S
H649 C676 0.950 . S
H650 C679 0.950 . S
H651 C680 0.950 . S
H652 C682 0.950 . S
H653 C683 0.950 . S
C654 H636 0.951 . S
C654 C655 1.366 . S
C654 C656 1.388 . S
C655 C654 1.366 . S
C655 C659 1.385 . S
C656 H637 0.951 . S
C656 C654 1.388 . S
C656 C657 1.366 . S
C657 C656 1.366 . S
C657 C658 1.414 . S
C657 C660 1.499 . S
C658 H638 0.950 . S
C658 C657 1.414 . S
C658 C659 1.374 . S
C659 H639 0.950 . S
C659 C655 1.385 . S
C659 C658 1.374 . S
C660 C657 1.499 . S
C660 C661 1.373 . S
C660 C662 1.389 . S
C661 H640 0.950 . S
C661 C660 1.373 . S
C661 C677 1.377 . S
C662 C660 1.389 . S
C662 C663 1.524 . S
C662 C676 1.377 . S
C663 C662 1.524 . S
C663 C664 1.397 . S
C663 C668 1.363 . S
C664 H641 0.950 . S
C664 C663 1.397 . S
C664 C665 1.334 . S
C665 H642 0.950 . S
C665 C664 1.334 . S
C665 C666 1.287 . S
C666 C665 1.287 . S
C666 C667 1.524 . S
C666 H685 0.913 . S
C667 H643 0.950 . S
C667 C666 1.524 . S
C667 C668 1.415 . S
C668 H644 0.950 . S
C668 C663 1.363 . S
C668 C667 1.415 . S
C669 H645 0.951 . S
C669 C670 1.366 . S
C669 C671 1.388 . S
C670 C669 1.366 . S
C670 C674 1.385 . S
C671 H646 0.951 . S
C671 C669 1.388 . S
C671 C672 1.366 . S
C672 C671 1.366 . S
C672 C673 1.414 . S
C672 C675 1.499 . S
C673 H647 0.950 . S
C673 C672 1.414 . S
C673 C674 1.374 . S
C674 H648 0.950 . S
C674 C670 1.385 . S
C674 C673 1.374 . S
C675 C672 1.499 . S
C675 C676 1.373 . S
C675 C677 1.389 . S
C676 H649 0.950 . S
C676 C662 1.377 . S
C676 C675 1.373 . S
C677 C661 1.377 . S
C677 C675 1.389 . S
C677 C678 1.524 . S
C678 C677 1.524 . S
C678 C679 1.397 . S
C678 C683 1.363 . S
C679 H650 0.950 . S
C679 C678 1.397 . S
C679 C680 1.334 . S
C680 H651 0.950 . S
C680 C679 1.334 . S
C680 C681 1.287 . S
C681 C680 1.287 . S
C681 C682 1.524 . S
C681 H684 0.999 . S
C682 H652 0.950 . S
C682 C681 1.524 . S
C682 C683 1.415 . S
C683 H653 0.950 . S
C683 C678 1.363 . S
C683 C682 1.415 . S
H684 C681 0.999 . S
H685 C666 0.913 . S
H686 C704 0.951 . S
H687 C706 0.951 . S
H688 C708 0.950 . S
H689 C709 0.950 . S
H690 C711 0.950 . S
H691 C714 0.950 . S
H692 C715 0.950 . S
H693 C717 0.950 . S
H694 C718 0.950 . S
H695 C719 0.951 . S
H696 C721 0.951 . S
H697 C723 0.950 . S
H698 C724 0.950 . S
H699 C726 0.950 . S
H700 C729 0.950 . S
H701 C730 0.950 . S
H702 C732 0.950 . S
H703 C733 0.950 . S
C704 H686 0.951 . S
C704 C705 1.366 . S
C704 C706 1.388 . S
C705 C704 1.366 . S
C705 C709 1.385 . S
C706 H687 0.951 . S
C706 C704 1.388 . S
C706 C707 1.366 . S
C707 C706 1.366 . S
C707 C708 1.414 . S
C707 C710 1.499 . S
C708 H688 0.950 . S
C708 C707 1.414 . S
C708 C709 1.374 . S
C709 H689 0.950 . S
C709 C705 1.385 . S
C709 C708 1.374 . S
C710 C707 1.499 . S
C710 C711 1.373 . S
C710 C712 1.389 . S
C711 H690 0.950 . S
C711 C710 1.373 . S
C711 C727 1.377 . S
C712 C710 1.389 . S
C712 C713 1.524 . S
C712 C726 1.377 . S
C713 C712 1.524 . S
C713 C714 1.397 . S
C713 C718 1.363 . S
C714 H691 0.950 . S
C714 C713 1.397 . S
C714 C715 1.334 . S
C715 H692 0.950 . S
C715 C714 1.334 . S
C715 C716 1.287 . S
C716 C715 1.287 . S
C716 C717 1.524 . S
C716 H735 0.913 . S
C717 H693 0.950 . S
C717 C716 1.524 . S
C717 C718 1.415 . S
C718 H694 0.950 . S
C718 C713 1.363 . S
C718 C717 1.415 . S
C719 H695 0.951 . S
C719 C720 1.366 . S
C719 C721 1.388 . S
C720 C719 1.366 . S
C720 C724 1.385 . S
C721 H696 0.951 . S
C721 C719 1.388 . S
C721 C722 1.366 . S
C722 C721 1.366 . S
C722 C723 1.414 . S
C722 C725 1.499 . S
C723 H697 0.950 . S
C723 C722 1.414 . S
C723 C724 1.374 . S
C724 H698 0.950 . S
C724 C720 1.385 . S
C724 C723 1.374 . S
C725 C722 1.499 . S
C725 C726 1.373 . S
C725 C727 1.389 . S
C726 H699 0.950 . S
C726 C712 1.377 . S
C726 C725 1.373 . S
C727 C711 1.377 . S
C727 C725 1.389 . S
C727 C728 1.524 . S
C728 C727 1.524 . S
C728 C729 1.397 . S
C728 C733 1.363 . S
C729 H700 0.950 . S
C729 C728 1.397 . S
C729 C730 1.334 . S
C730 H701 0.950 . S
C730 C729 1.334 . S
C730 C731 1.287 . S
C731 C730 1.287 . S
C731 C732 1.524 . S
C731 H734 0.999 . S
C732 H702 0.950 . S
C732 C731 1.524 . S
C732 C733 1.415 . S
C733 H703 0.950 . S
C733 C728 1.363 . S
C733 C732 1.415 . S
H734 C731 0.999 . S
H735 C716 0.913 . S
H736 C754 0.951 . S
H737 C756 0.951 . S
H738 C758 0.950 . S
H739 C759 0.950 . S
H740 C761 0.950 . S
H741 C764 0.950 . S
H742 C765 0.950 . S
H743 C767 0.950 . S
H744 C768 0.950 . S
H745 C769 0.951 . S
H746 C771 0.951 . S
H747 C773 0.950 . S
H748 C774 0.950 . S
H749 C776 0.950 . S
H750 C779 0.950 . S
H751 C780 0.950 . S
H752 C782 0.950 . S
H753 C783 0.950 . S
C754 H736 0.951 . S
C754 C755 1.366 . S
C754 C756 1.388 . S
C755 C754 1.366 . S
C755 C759 1.385 . S
C756 H737 0.951 . S
C756 C754 1.388 . S
C756 C757 1.366 . S
C757 C756 1.366 . S
C757 C758 1.414 . S
C757 C760 1.499 . S
C758 H738 0.950 . S
C758 C757 1.414 . S
C758 C759 1.374 . S
C759 H739 0.950 . S
C759 C755 1.385 . S
C759 C758 1.374 . S
C760 C757 1.499 . S
C760 C761 1.373 . S
C760 C762 1.389 . S
C761 H740 0.950 . S
C761 C760 1.373 . S
C761 C777 1.377 . S
C762 C760 1.389 . S
C762 C763 1.524 . S
C762 C776 1.377 . S
C763 C762 1.524 . S
C763 C764 1.397 . S
C763 C768 1.363 . S
C764 H741 0.950 . S
C764 C763 1.397 . S
C764 C765 1.334 . S
C765 H742 0.950 . S
C765 C764 1.334 . S
C765 C766 1.287 . S
C766 C765 1.287 . S
C766 C767 1.524 . S
C766 H785 0.913 . S
C767 H743 0.950 . S
C767 C766 1.524 . S
C767 C768 1.415 . S
C768 H744 0.950 . S
C768 C763 1.363 . S
C768 C767 1.415 . S
C769 H745 0.951 . S
C769 C770 1.366 . S
C769 C771 1.388 . S
C770 C769 1.366 . S
C770 C774 1.385 . S
C771 H746 0.951 . S
C771 C769 1.388 . S
C771 C772 1.366 . S
C772 C771 1.366 . S
C772 C773 1.414 . S
C772 C775 1.499 . S
C773 H747 0.950 . S
C773 C772 1.414 . S
C773 C774 1.374 . S
C774 H748 0.950 . S
C774 C770 1.385 . S
C774 C773 1.374 . S
C775 C772 1.499 . S
C775 C776 1.373 . S
C775 C777 1.389 . S
C776 H749 0.950 . S
C776 C762 1.377 . S
C776 C775 1.373 . S
C777 C761 1.377 . S
C777 C775 1.389 . S
C777 C778 1.524 . S
C778 C777 1.524 . S
C778 C779 1.397 . S
C778 C783 1.363 . S
C779 H750 0.950 . S
C779 C778 1.397 . S
C779 C780 1.334 . S
C780 H751 0.950 . S
C780 C779 1.334 . S
C780 C781 1.287 . S
C781 C780 1.287 . S
C781 C782 1.524 . S
C781 H784 0.999 . S
C782 H752 0.950 . S
C782 C781 1.524 . S
C782 C783 1.415 . S
C783 H753 0.950 . S
C783 C778 1.363 . S
C783 C782 1.415 . S
H784 C781 0.999 . S
H785 C766 0.913 . S
H786 C804 0.951 . S
H787 C806 0.951 . S
H788 C808 0.950 . S
H789 C809 0.950 . S
H790 C811 0.950 . S
H791 C814 0.950 . S
H792 C815 0.950 . S
H793 C817 0.950 . S
H794 C818 0.950 . S
H795 C819 0.951 . S
H796 C821 0.951 . S
H797 C823 0.950 1_655 S
H798 C824 0.950 1_655 S
H799 C826 0.932 1_556 S
H800 C829 0.949 . S
H801 C830 0.950 . S
H802 C832 0.950 . S
H803 C833 0.950 1_554 S
C804 H786 0.951 . S
C804 C805 1.366 1_655 S
C804 C806 1.388 . S
C805 C804 1.366 1_455 S
C805 C809 1.385 . S
C806 H787 0.951 . S
C806 C804 1.388 . S
C806 C807 1.366 1_655 S
C807 C806 1.366 1_455 S
C807 C808 1.414 . S
C807 C810 1.499 . S
C808 H788 0.950 . S
C808 C807 1.414 . S
C808 C809 1.374 . S
C809 H789 0.950 . S
C809 C805 1.385 . S
C809 C808 1.374 . S
C810 C807 1.499 . S
C810 C811 1.373 . S
C810 C812 1.389 . S
C811 H790 0.950 . S
C811 C810 1.373 . S
C811 C827 1.408 . S
C812 C810 1.389 . S
C812 C813 1.524 . S
C812 C826 1.423 . S
C813 C812 1.524 . S
C813 C814 1.397 . S
C813 C818 1.363 1_455 S
C814 H791 0.950 . S
C814 C813 1.397 . S
C814 C815 1.334 . S
C815 H792 0.950 . S
C815 C814 1.334 . S
C815 C816 1.287 . S
C816 C815 1.287 . S
C816 C817 1.524 1_455 S
C816 H835 0.913 1_455 S
C817 H793 0.950 . S
C817 C816 1.524 1_655 S
C817 C818 1.415 . S
C818 H794 0.950 . S
C818 C813 1.363 1_655 S
C818 C817 1.415 . S
C819 H795 0.951 . S
C819 C820 1.366 . S
C819 C821 1.388 . S
C820 C819 1.366 . S
C820 C824 1.385 . S
C821 H796 0.951 . S
C821 C819 1.388 . S
C821 C822 1.366 . S
C822 C821 1.366 . S
C822 C823 1.414 . S
C822 C825 1.499 . S
C823 H797 0.950 1_455 S
C823 C822 1.414 . S
C823 C824 1.374 . S
C824 H798 0.950 1_455 S
C824 C820 1.385 . S
C824 C823 1.374 . S
C825 C822 1.499 . S
C825 C826 1.346 1_556 S
C825 C827 1.376 1_556 S
C826 H799 0.932 1_554 S
C826 C812 1.423 . S
C826 C825 1.346 1_554 S
C827 C811 1.408 . S
C827 C825 1.376 1_554 S
C827 C828 1.508 1_554 S
C828 C827 1.508 1_556 S
C828 C829 1.397 . S
C828 C833 1.363 . S
C829 H800 0.949 . S
C829 C828 1.397 . S
C829 C830 1.334 . S
C830 H801 0.950 . S
C830 C829 1.334 . S
C830 C831 1.287 . S
C831 C830 1.287 . S
C831 C832 1.524 . S
C831 H834 0.999 . S
C832 H802 0.950 . S
C832 C831 1.524 . S
C832 C833 1.415 . S
C833 H803 0.950 1_556 S
C833 C828 1.363 . S
C833 C832 1.415 . S
H834 C831 0.999 . S
H835 C816 0.913 1_655 S
H836 C854 0.951 . S
H837 C856 0.951 . S
H838 C858 0.950 . S
H839 C859 0.953 1_565 S
H840 C861 0.950 . S
H841 C864 0.950 . S
H842 C865 0.950 . S
H843 C867 0.950 . S
H844 C868 0.950 . S
H845 C869 0.951 . S
H846 C871 0.951 . S
H847 C873 0.950 . S
H848 C874 0.950 . S
H849 C876 0.950 . S
H850 C879 0.950 . S
H851 C880 0.950 . S
H852 C882 0.950 . S
H853 C883 0.956 . S
C854 H836 0.951 . S
C854 C855 1.366 . S
C854 C856 1.388 . S
C855 C854 1.366 . S
C855 C859 1.385 . S
C856 H837 0.951 . S
C856 C854 1.388 . S
C856 C857 1.366 . S
C857 C856 1.366 . S
C857 C858 1.414 . S
C857 C860 1.499 . S
C858 H838 0.950 . S
C858 C857 1.414 . S
C858 C859 1.374 . S
C859 H839 0.953 1_545 S
C859 C855 1.385 . S
C859 C858 1.374 . S
C860 C857 1.499 . S
C860 C861 1.373 . S
C860 C862 1.389 . S
C861 H840 0.950 . S
C861 C860 1.373 . S
C861 C877 1.377 . S
C862 C860 1.389 . S
C862 C863 1.524 . S
C862 C876 1.377 . S
C863 C862 1.524 . S
C863 C864 1.397 . S
C863 C868 1.363 . S
C864 H841 0.950 . S
C864 C863 1.397 . S
C864 C865 1.334 . S
C865 H842 0.950 . S
C865 C864 1.334 . S
C865 C866 1.287 . S
C866 C865 1.287 . S
C866 C867 1.524 . S
C866 H885 0.913 . S
C867 H843 0.950 . S
C867 C866 1.524 . S
C867 C868 1.415 . S
C868 H844 0.950 . S
C868 C863 1.363 . S
C868 C867 1.415 . S
C869 H845 0.951 . S
C869 C870 1.366 . S
C869 C871 1.388 . S
C870 C869 1.366 . S
C870 C874 1.385 . S
C871 H846 0.951 . S
C871 C869 1.388 . S
C871 C872 1.366 . S
C872 C871 1.366 . S
C872 C873 1.414 . S
C872 C875 1.499 . S
C873 H847 0.950 . S
C873 C872 1.414 . S
C873 C874 1.374 . S
C874 H848 0.950 . S
C874 C870 1.385 . S
C874 C873 1.374 . S
C875 C872 1.499 . S
C875 C876 1.373 . S
C875 C877 1.389 . S
C876 H849 0.950 . S
C876 C862 1.377 . S
C876 C875 1.373 . S
C877 C861 1.377 . S
C877 C875 1.389 . S
C877 C878 1.524 . S
C878 C877 1.524 . S
C878 C879 1.397 . S
C878 C883 1.349 1_545 S
C879 H850 0.950 . S
C879 C878 1.397 . S
C879 C880 1.334 . S
C880 H851 0.950 . S
C880 C879 1.334 . S
C880 C881 1.287 . S
C881 C880 1.287 . S
C881 C882 1.524 1_545 S
C881 H884 0.999 . S
C882 H852 0.950 . S
C882 C881 1.524 1_565 S
C882 C883 1.423 . S
C883 H853 0.956 . S
C883 C878 1.349 1_565 S
C883 C882 1.423 . S
H884 C881 0.999 . S
H885 C866 0.913 . S
H886 C904 0.951 . S
H887 C906 0.951 . S
H888 C908 0.950 . S
H889 C909 0.950 . S
H890 C911 0.950 . S
H891 C914 0.950 . S
H892 C915 0.950 . S
H893 C917 0.950 . S
H894 C918 0.950 . S
H895 C919 0.951 . S
H896 C921 0.951 . S
H897 C923 0.950 . S
H898 C924 0.950 . S
H899 C926 0.950 . S
H900 C929 0.950 . S
H901 C930 0.950 . S
H902 C932 0.950 . S
H903 C933 0.950 . S
C904 H886 0.951 . S
C904 C905 1.366 . S
C904 C906 1.388 . S
C905 C904 1.366 . S
C905 C909 1.385 . S
C906 H887 0.951 . S
C906 C904 1.388 . S
C906 C907 1.366 . S
C907 C906 1.366 . S
C907 C908 1.414 . S
C907 C910 1.499 . S
C908 H888 0.950 . S
C908 C907 1.414 . S
C908 C909 1.374 . S
C909 H889 0.950 . S
C909 C905 1.385 . S
C909 C908 1.374 . S
C910 C907 1.499 . S
C910 C911 1.373 . S
C910 C912 1.389 . S
C911 H890 0.950 . S
C911 C910 1.373 . S
C911 C927 1.377 . S
C912 C910 1.389 . S
C912 C913 1.524 . S
C912 C926 1.377 . S
C913 C912 1.524 . S
C913 C914 1.397 . S
C913 C918 1.363 . S
C914 H891 0.950 . S
C914 C913 1.397 . S
C914 C915 1.334 . S
C915 H892 0.950 . S
C915 C914 1.334 . S
C915 C916 1.287 . S
C916 C915 1.287 . S
C916 C917 1.524 . S
C916 H935 0.913 . S
C917 H893 0.950 . S
C917 C916 1.524 . S
C917 C918 1.415 . S
C918 H894 0.950 . S
C918 C913 1.363 . S
C918 C917 1.415 . S
C919 H895 0.951 . S
C919 C920 1.366 . S
C919 C921 1.388 . S
C920 C919 1.366 . S
C920 C924 1.385 . S
C921 H896 0.951 . S
C921 C919 1.388 . S
C921 C922 1.366 . S
C922 C921 1.366 . S
C922 C923 1.414 . S
C922 C925 1.499 . S
C923 H897 0.950 . S
C923 C922 1.414 . S
C923 C924 1.374 . S
C924 H898 0.950 . S
C924 C920 1.385 . S
C924 C923 1.374 . S
C925 C922 1.499 . S
C925 C926 1.373 . S
C925 C927 1.389 . S
C926 H899 0.950 . S
C926 C912 1.377 . S
C926 C925 1.373 . S
C927 C911 1.377 . S
C927 C925 1.389 . S
C927 C928 1.524 . S
C928 C927 1.524 . S
C928 C929 1.397 . S
C928 C933 1.363 . S
C929 H900 0.950 . S
C929 C928 1.397 . S
C929 C930 1.334 . S
C930 H901 0.950 . S
C930 C929 1.334 . S
C930 C931 1.287 . S
C931 C930 1.287 . S
C931 C932 1.524 . S
C931 H934 0.999 . S
C932 H902 0.950 . S
C932 C931 1.524 . S
C932 C933 1.415 . S
C933 H903 0.950 . S
C933 C928 1.363 . S
C933 C932 1.415 . S
H934 C931 0.999 . S
H935 C916 0.913 . S
H936 C954 0.951 . S
H937 C956 0.951 . S
H938 C958 0.950 . S
H939 C959 0.950 . S
H940 C961 0.950 1_565 S
H941 C964 0.950 . S
H942 C965 0.950 . S
H943 C967 0.950 . S
H944 C968 0.950 . S
H945 C969 0.951 . S
H946 C971 0.951 . S
H947 C973 0.950 . S
H948 C974 0.950 . S
H949 C976 0.950 . S
H950 C979 0.950 . S
H951 C980 0.950 . S
H952 C982 0.950 . S
H953 C983 0.950 . S
C954 H936 0.951 . S
C954 C955 1.366 . S
C954 C956 1.388 . S
C955 C954 1.366 . S
C955 C959 1.385 . S
C956 H937 0.951 . S
C956 C954 1.388 . S
C956 C957 1.366 . S
C957 C956 1.366 . S
C957 C958 1.414 . S
C957 C960 1.499 . S
C958 H938 0.950 . S
C958 C957 1.414 . S
C958 C959 1.374 . S
C959 H939 0.950 . S
C959 C955 1.385 . S
C959 C958 1.374 . S
C960 C957 1.499 . S
C960 C961 1.373 . S
C960 C962 1.389 . S
C961 H940 0.950 1_545 S
C961 C960 1.373 . S
C961 C977 1.377 . S
C962 C960 1.389 . S
C962 C963 1.524 . S
C962 C976 1.377 . S
C963 C962 1.524 . S
C963 C964 1.397 . S
C963 C968 1.363 . S
C964 H941 0.950 . S
C964 C963 1.397 . S
C964 C965 1.334 . S
C965 H942 0.950 . S
C965 C964 1.334 . S
C965 C966 1.287 . S
C966 C965 1.287 . S
C966 C967 1.524 . S
C966 H985 0.913 . S
C967 H943 0.950 . S
C967 C966 1.524 . S
C967 C968 1.415 . S
C968 H944 0.950 . S
C968 C963 1.363 . S
C968 C967 1.415 . S
C969 H945 0.951 . S
C969 C970 1.366 . S
C969 C971 1.388 . S
C970 C969 1.366 . S
C970 C974 1.385 . S
C971 H946 0.951 . S
C971 C969 1.388 . S
C971 C972 1.366 . S
C972 C971 1.366 . S
C972 C973 1.414 . S
C972 C975 1.499 . S
C973 H947 0.950 . S
C973 C972 1.414 . S
C973 C974 1.374 . S
C974 H948 0.950 . S
C974 C970 1.385 . S
C974 C973 1.374 . S
C975 C972 1.499 . S
C975 C976 1.373 . S
C975 C977 1.389 . S
C976 H949 0.950 . S
C976 C962 1.377 . S
C976 C975 1.373 . S
C977 C961 1.377 . S
C977 C975 1.389 . S
C977 C978 1.524 1_545 S
C978 C977 1.524 1_565 S
C978 C979 1.397 . S
C978 C983 1.363 . S
C979 H950 0.950 . S
C979 C978 1.397 . S
C979 C980 1.334 . S
C980 H951 0.950 . S
C980 C979 1.334 . S
C980 C981 1.287 . S
C981 C980 1.287 . S
C981 C982 1.524 . S
C981 H984 0.999 . S
C982 H952 0.950 . S
C982 C981 1.524 . S
C982 C983 1.415 . S
C983 H953 0.950 . S
C983 C978 1.363 . S
C983 C982 1.415 . S
H984 C981 0.999 . S
H985 C966 0.913 . S
H986 C1004 0.951 . S
H987 C1006 0.951 . S
H988 C1008 0.950 . S
H989 C1009 0.950 . S
H990 C1011 0.950 . S
H991 C1014 0.950 . S
H992 C1015 0.950 . S
H993 C1017 0.950 . S
H994 C1018 0.950 . S
H995 C1019 0.951 . S
H996 C1021 0.951 . S
H997 C1023 0.950 . S
H998 C1024 0.950 . S
H999 C1026 0.950 . S
H1000 C1029 0.950 . S
H1001 C1030 0.950 . S
H1002 C1032 0.954 . S
H1003 C1033 0.950 . S
C1004 H986 0.951 . S
C1004 C1005 1.366 . S
C1004 C1006 1.388 . S
C1005 C1004 1.366 . S
C1005 C1009 1.385 . S
C1006 H987 0.951 . S
C1006 C1004 1.388 . S
C1006 C1007 1.366 . S
C1007 C1006 1.366 . S
C1007 C1008 1.414 . S
C1007 C1010 1.499 . S
C1008 H988 0.950 . S
C1008 C1007 1.414 . S
C1008 C1009 1.374 . S
C1009 H989 0.950 . S
C1009 C1005 1.385 . S
C1009 C1008 1.374 . S
C1010 C1007 1.499 . S
C1010 C1011 1.373 . S
C1010 C1012 1.389 . S
C1011 H990 0.950 . S
C1011 C1010 1.373 . S
C1011 C1027 1.377 . S
C1012 C1010 1.389 . S
C1012 C1013 1.524 . S
C1012 C1026 1.377 1_556 S
C1013 C1012 1.524 . S
C1013 C1014 1.397 . S
C1013 C1018 1.363 . S
C1014 H991 0.950 . S
C1014 C1013 1.397 . S
C1014 C1015 1.334 . S
C1015 H992 0.950 . S
C1015 C1014 1.334 . S
C1015 C1016 1.287 . S
C1016 C1015 1.287 . S
C1016 C1017 1.524 . S
C1016 H1035 0.913 . S
C1017 H993 0.950 . S
C1017 C1016 1.524 . S
C1017 C1018 1.415 . S
C1018 H994 0.950 . S
C1018 C1013 1.363 . S
C1018 C1017 1.415 . S
C1019 H995 0.951 . S
C1019 C1020 1.366 . S
C1019 C1021 1.388 . S
C1020 C1019 1.366 . S
C1020 C1024 1.385 . S
C1021 H996 0.951 . S
C1021 C1019 1.388 . S
C1021 C1022 1.366 . S
C1022 C1021 1.366 . S
C1022 C1023 1.414 . S
C1022 C1025 1.499 . S
C1023 H997 0.950 . S
C1023 C1022 1.414 . S
C1023 C1024 1.374 . S
C1024 H998 0.950 . S
C1024 C1020 1.385 . S
C1024 C1023 1.374 . S
C1025 C1022 1.499 . S
C1025 C1026 1.373 . S
C1025 C1027 1.389 1_554 S
C1026 H999 0.950 . S
C1026 C1012 1.377 1_554 S
C1026 C1025 1.373 . S
C1027 C1011 1.377 . S
C1027 C1025 1.389 1_556 S
C1027 C1028 1.524 1_556 S
C1028 C1027 1.524 1_554 S
C1028 C1029 1.397 . S
C1028 C1033 1.363 1_554 S
C1029 H1000 0.950 . S
C1029 C1028 1.397 . S
C1029 C1030 1.334 . S
C1030 H1001 0.950 . S
C1030 C1029 1.334 . S
C1030 C1031 1.287 . S
C1031 C1030 1.287 . S
C1031 C1032 1.513 1_554 S
C1031 H1034 0.999 . S
C1032 H1002 0.954 . S
C1032 C1031 1.513 1_556 S
C1032 C1033 1.421 . S
C1033 H1003 0.950 . S
C1033 C1028 1.363 1_556 S
C1033 C1032 1.421 . S
H1034 C1031 0.999 . S
H1035 C1016 0.913 . S
H1036 C1054 0.951 . S
H1037 C1056 0.951 . S
H1038 C1058 0.950 . S
H1039 C1059 0.950 . S
H1040 C1061 0.950 . S
H1041 C1064 0.950 1_655 S
H1042 C1065 0.950 1_655 S
H1043 C1067 0.950 . S
H1044 C1068 0.950 . S
H1045 C1069 0.951 . S
H1046 C1071 0.951 . S
H1047 C1073 0.950 . S
H1048 C1074 0.950 . S
H1049 C1076 0.950 . S
H1050 C1079 0.950 . S
H1051 C1080 0.950 . S
H1052 C1082 0.950 . S
H1053 C1083 0.950 . S
C1054 H1036 0.951 . S
C1054 C1055 1.366 . S
C1054 C1056 1.388 . S
C1055 C1054 1.366 . S
C1055 C1059 1.385 1_455 S
C1056 H1037 0.951 . S
C1056 C1054 1.388 . S
C1056 C1057 1.366 . S
C1057 C1056 1.366 . S
C1057 C1058 1.414 1_455 S
C1057 C1060 1.499 . S
C1058 H1038 0.950 . S
C1058 C1057 1.414 1_655 S
C1058 C1059 1.374 . S
C1059 H1039 0.950 . S
C1059 C1055 1.385 1_655 S
C1059 C1058 1.374 . S
C1060 C1057 1.499 . S
C1060 C1061 1.373 . S
C1060 C1062 1.389 . S
C1061 H1040 0.950 . S
C1061 C1060 1.373 . S
C1061 C1077 1.377 . S
C1062 C1060 1.389 . S
C1062 C1063 1.524 . S
C1062 C1076 1.377 . S
C1063 C1062 1.524 . S
C1063 C1064 1.397 . S
C1063 C1068 1.363 . S
C1064 H1041 0.950 1_455 S
C1064 C1063 1.397 . S
C1064 C1065 1.334 . S
C1065 H1042 0.950 1_455 S
C1065 C1064 1.334 . S
C1065 C1066 1.287 . S
C1066 C1065 1.287 . S
C1066 C1067 1.524 . S
C1066 H1085 0.913 . S
C1067 H1043 0.950 . S
C1067 C1066 1.524 . S
C1067 C1068 1.415 . S
C1068 H1044 0.950 . S
C1068 C1063 1.363 . S
C1068 C1067 1.415 . S
C1069 H1045 0.951 . S
C1069 C1070 1.366 1_655 S
C1069 C1071 1.388 . S
C1070 C1069 1.366 1_455 S
C1070 C1074 1.385 . S
C1071 H1046 0.951 . S
C1071 C1069 1.388 . S
C1071 C1072 1.366 1_655 S
C1072 C1071 1.366 1_455 S
C1072 C1073 1.414 . S
C1072 C1075 1.499 . S
C1073 H1047 0.950 . S
C1073 C1072 1.414 . S
C1073 C1074 1.374 . S
C1074 H1048 0.950 . S
C1074 C1070 1.385 . S
C1074 C1073 1.374 . S
C1075 C1072 1.499 . S
C1075 C1076 1.373 . S
C1075 C1077 1.389 . S
C1076 H1049 0.950 . S
C1076 C1062 1.377 . S
C1076 C1075 1.373 . S
C1077 C1061 1.377 . S
C1077 C1075 1.389 . S
C1077 C1078 1.524 . S
C1078 C1077 1.524 . S
C1078 C1079 1.397 . S
C1078 C1083 1.363 1_455 S
C1079 H1050 0.950 . S
C1079 C1078 1.397 . S
C1079 C1080 1.334 . S
C1080 H1051 0.950 . S
C1080 C1079 1.334 . S
C1080 C1081 1.287 . S
C1081 C1080 1.287 . S
C1081 C1082 1.524 1_455 S
C1081 H1084 0.999 1_455 S
C1082 H1052 0.950 . S
C1082 C1081 1.524 1_655 S
C1082 C1083 1.415 . S
C1083 H1053 0.950 . S
C1083 C1078 1.363 1_655 S
C1083 C1082 1.415 . S
H1084 C1081 0.999 1_655 S
H1085 C1066 0.913 . S
C205 C19 1.932 . S
C220 C185 1.886 . S
C255 C46 1.241 . S
C270 C163 1.230 . S
C305 C95 0.372 . S
C320 C174 0.333 . S
C355 C10 1.829 . S
C370 C179 1.806 . S
C420 C157 1.102 . S
C405 C55 1.109 . S
C470 C168 0.337 . S
C455 C86 0.342 . S
C505 C59 3.158 . S
C520 C141 3.091 . S
C555 C90 1.855 . S
C570 C146 1.846 . S
C605 C15 1.105 . S
C620 C124 1.102 . S
C670 C135 2.850 . S
C655 C50 2.871 . S
C720 C152 1.881 . S
C705 C99 1.921 . S
C755 C6 1.252 . S
C770 C130 1.241 . S
C820 C147 1.483 . S
C805 C9 1.421 . S
C855 C58 1.517 . S
C870 C125 1.537 . S
C905 C98 1.662 . S
C920 C136 1.745 . S
C970 C169 1.271 . S
C955 C49 1.227 . S
C1020 C180 1.469 . S
C1005 C89 1.435 . S
C1055 C18 1.513 . S
C1070 C158 1.532 . S
