# Generated by pormake.
# Topology anh, (6,3)-cn, num edge types: 1
# Building blocks:
#     Node 0, Type 0, BuildingBlock: HISSIN_clean_sbu_0, # of connection points: 6
#     Node 1, Type 0, BuildingBlock: HISSIN_clean_sbu_0, # of connection points: 6
#     Node 2, Type 0, BuildingBlock: HISSIN_clean_sbu_0, # of connection points: 6
#     Node 3, Type 1, BuildingBlock: VETTIZ_charged_linker_0, # of connection points: 3
#     Node 4, Type 1, BuildingBlock: VETTIZ_charged_linker_0, # of connection points: 3
#     Node 5, Type 1, BuildingBlock: VETTIZ_charged_linker_0, # of connection points: 3
#     Node 6, Type 1, BuildingBlock: VETTIZ_charged_linker_0, # of connection points: 3
#     Node 7, Type 1, BuildingBlock: VETTIZ_charged_linker_0, # of connection points: 3
#     Node 8, Type 1, BuildingBlock: VETTIZ_charged_linker_0, # of connection points: 3
#     Edge 9, Type (0, 1), BuildingBlock: UVAHIK_clean_linker_0, # of connection points: 2
#     Edge 10, Type (0, 1), BuildingBlock: UVAHIK_clean_linker_0, # of connection points: 2
#     Edge 11, Type (0, 1), BuildingBlock: UVAHIK_clean_linker_0, # of connection points: 2
#     Edge 12, Type (0, 1), BuildingBlock: UVAHIK_clean_linker_0, # of connection points: 2
#     Edge 13, Type (0, 1), BuildingBlock: UVAHIK_clean_linker_0, # of connection points: 2
#     Edge 14, Type (0, 1), BuildingBlock: UVAHIK_clean_linker_0, # of connection points: 2
#     Edge 15, Type (0, 1), BuildingBlock: UVAHIK_clean_linker_0, # of connection points: 2
#     Edge 16, Type (0, 1), BuildingBlock: UVAHIK_clean_linker_0, # of connection points: 2
#     Edge 17, Type (0, 1), BuildingBlock: UVAHIK_clean_linker_0, # of connection points: 2
#     Edge 18, Type (0, 1), BuildingBlock: UVAHIK_clean_linker_0, # of connection points: 2
#     Edge 19, Type (0, 1), BuildingBlock: UVAHIK_clean_linker_0, # of connection points: 2
#     Edge 20, Type (0, 1), BuildingBlock: UVAHIK_clean_linker_0, # of connection points: 2
#     Edge 21, Type (0, 1), BuildingBlock: UVAHIK_clean_linker_0, # of connection points: 2
#     Edge 22, Type (0, 1), BuildingBlock: UVAHIK_clean_linker_0, # of connection points: 2
#     Edge 23, Type (0, 1), BuildingBlock: UVAHIK_clean_linker_0, # of connection points: 2
#     Edge 24, Type (0, 1), BuildingBlock: UVAHIK_clean_linker_0, # of connection points: 2
#     Edge 25, Type (0, 1), BuildingBlock: UVAHIK_clean_linker_0, # of connection points: 2
#     Edge 26, Type (0, 1), BuildingBlock: UVAHIK_clean_linker_0, # of connection points: 2
# Relax obj value: 0.206
# Max RMSD: 0.185
# Mean RMSD: 0.152
data_MOF--net-anh--node1-HISSIN_clean_sbu_0--node2-VETTIZ_charged_linker_0--edge1-UVAHIK_clean_linker_0
_symmetry_space_group_name_H-M    P1
_symmetry_Int_Tables_number       1
_symmetry_cell_setting            triclinic
loop_
_symmetry_equiv_pos_as_xyz
'x, y, z'
_cell_length_a     45.068792
_cell_length_b     45.085325
_cell_length_c     82.073751
_cell_angle_alpha  92.514443
_cell_angle_beta   90.521034
_cell_angle_gamma 119.9503
loop_
_atom_site_label
_atom_site_type_symbol
_atom_site_fract_x
_atom_site_fract_y
_atom_site_fract_z
_atom_type_partial_charge
Eu0 Eu 1.05448 0.50646 0.16533 0.0
Eu1 Eu 0.0981 0.5895 0.1704 0.0
C2 C 0.07276 0.54341 0.20107 0.0
C3 C 0.97696 0.42307 0.15646 0.0
C4 C 0.95664 0.43443 0.16436 0.0
C5 C 0.92743 0.38301 0.13934 0.0
C6 C 0.92229 0.42041 0.15982 0.0
C7 C 0.96218 0.3973 0.14388 0.0
C8 C 0.90725 0.39471 0.14722 0.0
C9 C 1.01402 0.44079 0.16038 0.0
O10 O 0.13864 0.57335 0.17258 0.0
O11 O 0.10929 0.5178 0.16179 0.0
C12 C 0.13825 0.54528 0.1669 0.0
O13 O 1.05223 0.52802 0.14142 0.0
O14 O 0.13419 0.63546 0.1849 0.0
O15 O 0.11393 0.64013 0.1617 0.0
O16 O 0.10414 0.57641 0.14444 0.0
C17 C 0.07862 0.5536 0.13507 0.0
O18 O 1.01326 0.52114 0.16937 0.0
O19 O 1.04348 0.57904 0.16576 0.0
O20 O 0.07494 0.57037 0.19452 0.0
O21 O 1.03347 0.46008 0.14913 0.0
O22 O 1.02345 0.45605 0.17491 0.0
O23 O 0.07203 0.51846 0.19189 0.0
C24 C 0.17327 0.6769 0.1677 0.0
C25 C 0.17952 0.68607 0.15138 0.0
C26 C 0.23442 0.70073 0.17271 0.0
C27 C 0.21287 0.70188 0.14574 0.0
C28 C 0.2012 0.68519 0.17838 0.0
C29 C 0.24053 0.70869 0.15628 0.0
C30 C 0.13788 0.65557 0.17316 0.0
C31 C 1.0141 0.55041 0.16728 0.0
H32 H 0.9673 0.45445 0.17403 0.0
H33 H 0.9164 0.36305 0.12965 0.0
H34 H 0.90731 0.42932 0.16648 0.0
H35 H 0.97755 0.38855 0.13747 0.0
H36 H 0.15861 0.68015 0.14283 0.0
H37 H 0.25539 0.70655 0.18121 0.0
H38 H 0.21692 0.70797 0.13304 0.0
H39 H 0.19731 0.67877 0.19104 0.0
Eu40 Eu 0.60641 1.03419 0.49859 0.0
Eu41 Eu 0.56415 0.07473 0.50218 0.0
C42 C 0.58533 0.04959 0.53469 0.0
C43 C 0.61589 0.95705 0.49127 0.0
C44 C 0.5914 0.93724 0.5025 0.0
C45 C 0.60288 0.90511 0.47535 0.0
C46 C 0.573 0.90158 0.50023 0.0
C47 C 0.62158 0.94075 0.47774 0.0
C48 C 0.57829 0.88507 0.48655 0.0
C49 C 0.63198 0.99455 0.49225 0.0
O50 O 0.62043 0.11619 0.49898 0.0
O51 O 0.65096 0.08854 0.5026 0.0
C52 C 0.65 0.11695 0.5008 0.0
O53 O 0.61027 0.06017 0.47523 0.0
O54 O 0.55589 0.1142 0.51403 0.0
O55 O 0.52922 0.08916 0.49114 0.0
O56 O 0.55732 0.05334 0.47636 0.0
C57 C 0.58317 0.05732 0.46783 0.0
O58 O 0.5495 0.99256 0.49658 0.0
O59 O 0.52103 1.02036 0.50544 0.0
O60 O 0.56903 0.06379 0.52819 0.0
O61 O 0.62091 1.00656 0.48103 0.0
O62 O 0.63481 1.00954 0.50662 0.0
O63 O 0.60159 1.03748 0.52589 0.0
C64 C 0.55654 0.14914 0.49385 0.0
C65 C 0.58168 0.15531 0.48238 0.0
C66 C 0.57485 0.20974 0.49545 0.0
C67 C 0.60408 0.18853 0.47797 0.0
C68 C 0.55263 0.17638 0.50005 0.0
C69 C 0.60151 0.21613 0.48483 0.0
C70 C 0.53946 0.11583 0.50126 0.0
C71 C 0.52102 0.99186 0.50101 0.0
H72 H 0.586 0.94929 0.51286 0.0
H73 H 0.60729 0.89336 0.46456 0.0
H74 H 0.55476 0.887 0.50927 0.0
H75 H 0.63979 0.95569 0.46875 0.0
H76 H 0.58536 0.13466 0.47753 0.0
H77 H 0.57264 0.23077 0.501 0.0
H78 H 0.62435 0.19284 0.46974 0.0
H79 H 0.53374 0.17217 0.50909 0.0
Eu80 Eu 0.54084 0.52879 0.83274 0.0
Eu81 Eu 0.62281 0.57023 0.83776 0.0
C82 C 0.57594 0.54901 0.86803 0.0
C83 C 0.45904 0.52402 0.82456 0.0
C84 C 0.47574 0.55153 0.81432 0.0
C85 C 0.42312 0.54697 0.83364 0.0
C86 C 0.46692 0.57712 0.81415 0.0
C87 C 0.43178 0.52124 0.83372 0.0
C88 C 0.44157 0.5758 0.82436 0.0
C89 C 0.47538 0.50399 0.82875 0.0
O90 O 0.60803 0.5139 0.84009 0.0
O91 O 0.55284 0.48542 0.82932 0.0
C92 C 0.5806 0.48522 0.83447 0.0
O93 O 0.56261 0.54798 0.80825 0.0
O94 O 0.66822 0.58306 0.85273 0.0
O95 O 0.6737 0.60578 0.82942 0.0
O96 O 0.61174 0.5466 0.81233 0.0
C97 C 0.58893 0.54668 0.80245 0.0
O98 O 0.55443 0.58461 0.83748 0.0
O99 O 0.61079 0.61195 0.83089 0.0
O100 O 0.60091 0.57556 0.86149 0.0
O101 O 0.49386 0.50021 0.81757 0.0
O102 O 0.49106 0.51284 0.84307 0.0
O103 O 0.55358 0.52285 0.85867 0.0
C104 C 0.71264 0.587 0.83613 0.0
C105 C 0.72655 0.59311 0.82054 0.0
C106 C 0.73783 0.55125 0.84082 0.0
C107 C 0.74539 0.57793 0.81505 0.0
C108 C 0.71911 0.56647 0.84633 0.0
C109 C 0.75072 0.55638 0.82504 0.0
C110 C 0.68905 0.59935 0.84118 0.0
C111 C 0.58236 0.61271 0.83367 0.0
H112 H 0.49738 0.55472 0.80737 0.0
H113 H 0.40317 0.54525 0.84148 0.0
H114 H 0.48166 0.59916 0.80698 0.0
H115 H 0.41894 0.50057 0.84187 0.0
H116 H 0.72217 0.60892 0.8124 0.0
H117 H 0.7423 0.53549 0.84896 0.0
H118 H 0.7551 0.58242 0.80284 0.0
H119 H 0.70909 0.56149 0.85847 0.0
C120 C 0.58486 0.18713 0.19822 0.0
C121 C 0.59542 0.21773 0.20768 0.0
C122 C 0.59031 0.21596 0.22464 0.0
C123 C 0.57012 0.15492 0.2226 0.0
C124 C 0.57265 0.15634 0.20587 0.0
C125 C 0.5646 0.12269 0.1976 0.0
H126 H 0.51948 0.95675 0.20255 0.0
C127 C 0.56078 0.11978 0.22677 0.0
C128 C 0.5573 0.10083 0.21213 0.0
H129 H 0.53853 1.0144 0.15932 0.0
H130 H 0.55261 0.06526 0.17597 0.0
H131 H 0.58711 1.01986 0.22433 0.0
H132 H 0.47905 0.98491 0.22073 0.0
H133 H 0.49202 0.99746 0.24131 0.0
H134 H 0.49549 0.96245 0.23183 0.0
H135 H 0.55492 0.97934 0.23124 0.0
H136 H 0.57214 1.018 0.24418 0.0
C137 C 0.59691 0.12763 0.18869 0.0
C138 C 0.53229 0.11023 0.18634 0.0
C139 C 0.55897 0.09117 0.28607 0.0
C140 C 0.55117 0.06079 0.29354 0.0
C141 C 0.5402 1.0304 0.28379 0.0
C142 C 0.5381 1.03049 0.26675 0.0
C143 C 0.54688 0.06126 0.2594 0.0
C144 C 0.55629 0.09074 0.26904 0.0
C145 C 0.56305 0.12063 0.25911 0.0
C146 C 0.55715 0.10446 0.24192 0.0
C147 C 0.54823 0.06984 0.24217 0.0
C148 C 0.60078 0.14911 0.2625 0.0
C149 C 0.53639 0.13165 0.26338 0.0
C150 C 0.52753 0.98054 0.19669 0.0
C151 C 0.5278 0.98152 0.17956 0.0
C152 C 0.53776 1.01288 0.17245 0.0
C153 C 0.54584 1.04239 0.18217 0.0
C154 C 0.54411 1.04067 0.19922 0.0
C155 C 0.53574 1.01031 0.20623 0.0
C156 C 0.53534 1.01344 0.22456 0.0
C157 C 0.54421 0.05055 0.22733 0.0
C158 C 0.54916 0.06619 0.21243 0.0
C159 C 0.56363 1.00717 0.23159 0.0
C160 C 0.49873 0.98817 0.23003 0.0
H161 H 0.57563 0.18518 0.24516 0.0
H162 H 0.58892 0.1873 0.18523 0.0
H163 H 0.51387 0.11683 0.19206 0.0
H164 H 0.51766 0.0821 0.18411 0.0
H165 H 0.53912 0.12246 0.17446 0.0
H166 H 0.62081 0.14801 0.19508 0.0
H167 H 0.59691 0.13516 0.17598 0.0
H168 H 0.59967 0.1046 0.18847 0.0
H169 H 0.56683 0.11471 0.29335 0.0
H170 H 0.53398 1.00672 0.28936 0.0
H171 H 0.52997 1.00665 0.25997 0.0
H172 H 0.6179 0.13793 0.26264 0.0
H173 H 0.60394 0.16281 0.27453 0.0
H174 H 0.61068 0.1681 0.25307 0.0
H175 H 0.51177 0.10939 0.26685 0.0
H176 H 0.52941 0.1418 0.25289 0.0
H177 H 0.54577 0.15108 0.27379 0.0
H178 H 0.59783 0.23906 0.23222 0.0
C179 C 0.57764 0.18469 0.23214 0.0
C180 C 0.59914 0.60929 0.52645 0.0
C181 C 0.57436 0.61615 0.53307 0.0
C182 C 0.56939 0.61399 0.55003 0.0
C183 C 0.61391 0.59925 0.55332 0.0
C184 C 0.61881 0.60146 0.53675 0.0
C185 C 0.64752 0.59565 0.53166 0.0
H186 H 0.74189 0.52363 0.54732 0.0
C187 C 0.63835 0.59023 0.56048 0.0
C188 C 0.65829 0.58835 0.5479 0.0
H189 H 0.73611 0.56993 0.50318 0.0
H190 H 0.70608 0.59433 0.51727 0.0
H191 H 0.76093 0.59553 0.57046 0.0
H192 H 0.66915 0.49808 0.56025 0.0
H193 H 0.67332 0.50864 0.58144 0.0
H194 H 0.70573 0.50295 0.57163 0.0
H195 H 0.75333 0.55783 0.58039 0.0
H196 H 0.73742 0.5851 0.5883 0.0
C197 C 0.67624 0.62909 0.52472 0.0
C198 C 0.63233 0.56407 0.5194 0.0
C199 C 0.63495 0.56872 0.62067 0.0
C200 C 0.6522 0.55723 0.63063 0.0
C201 C 0.67531 0.54835 0.62357 0.0
C202 C 0.68165 0.55161 0.60685 0.0
C203 C 0.66445 0.56357 0.59708 0.0
C204 C 0.64135 0.5716 0.60403 0.0
C205 C 0.62464 0.58297 0.5918 0.0
C206 C 0.64261 0.58191 0.57647 0.0
C207 C 0.66584 0.57045 0.57958 0.0
C208 C 0.63324 0.61996 0.59696 0.0
C209 C 0.58578 0.55625 0.5907 0.0
C210 C 0.73498 0.53975 0.54077 0.0
C211 C 0.73999 0.5435 0.52388 0.0
C212 C 0.73128 0.56542 0.51599 0.0
C213 C 0.71366 0.57942 0.52415 0.0
C214 C 0.70489 0.57167 0.54037 0.0
C215 C 0.71767 0.55443 0.54881 0.0
C216 C 0.70826 0.55175 0.56649 0.0
C217 C 0.68542 0.5677 0.56675 0.0
C218 C 0.68281 0.57826 0.55124 0.0
C219 C 0.74157 0.5734 0.57707 0.0
C220 C 0.68819 0.5134 0.5703 0.0
H221 H 0.58417 0.60463 0.57296 0.0
H222 H 0.60362 0.61047 0.5135 0.0
H223 H 0.60929 0.54222 0.52438 0.0
H224 H 0.65019 0.55472 0.51661 0.0
H225 H 0.62451 0.57005 0.50767 0.0
H226 H 0.67362 0.65175 0.52828 0.0
H227 H 0.67588 0.62702 0.51117 0.0
H228 H 0.70203 0.6358 0.52955 0.0
H229 H 0.61654 0.57508 0.6257 0.0
H230 H 0.68887 0.53942 0.63106 0.0
H231 H 0.69957 0.5446 0.60214 0.0
H232 H 0.65999 0.63531 0.60204 0.0
H233 H 0.6159 0.61992 0.6065 0.0
H234 H 0.63203 0.63425 0.58663 0.0
H235 H 0.58109 0.5301 0.59292 0.0
H236 H 0.574 0.55359 0.57848 0.0
H237 H 0.57164 0.56263 0.59991 0.0
H238 H 0.55112 0.61989 0.55559 0.0
C239 C 0.58893 0.6055 0.56016 0.0
C240 C 0.23425 0.68442 0.86993 0.0
C241 C 0.26325 0.70505 0.88017 0.0
C242 C 0.25886 0.7075 0.89709 0.0
C243 C 0.19822 0.66618 0.89338 0.0
C244 C 0.20225 0.66534 0.87674 0.0
C245 C 0.16953 0.64051 0.86754 0.0
H246 H 1.00101 0.52388 0.86829 0.0
C247 C 0.16223 0.64088 0.89655 0.0
C248 C 0.14532 0.62596 0.88143 0.0
H249 H 1.06417 0.56316 0.82647 0.0
H250 H 0.11382 0.59722 0.84429 0.0
H251 H 1.059 0.51515 0.89017 0.0
H252 H 1.02924 0.59199 0.88799 0.0
H253 H 1.03813 0.58984 0.90863 0.0
H254 H 1.00378 0.55261 0.89776 0.0
H255 H 1.01886 0.5089 0.89732 0.0
H256 H 1.05709 0.52882 0.91031 0.0
C257 C 0.17497 0.61285 0.85836 0.0
C258 C 0.15949 0.66122 0.85638 0.0
C259 C 0.12376 0.61521 0.95482 0.0
C260 C 0.09217 0.59246 0.9615 0.0
C261 C 1.06347 0.57274 0.95084 0.0
C262 C 1.06635 0.57487 0.9339 0.0
C263 C 0.09824 0.59705 0.92744 0.0
C264 C 0.12614 0.61719 0.93786 0.0
C265 C 0.15781 0.63987 0.92879 0.0
C266 C 0.14444 0.62944 0.91122 0.0
C267 C 0.10962 0.60414 0.91053 0.0
C268 C 0.18541 0.63023 0.93296 0.0
C269 C 0.16858 0.67773 0.93332 0.0
C270 C 1.02571 0.5391 0.86296 0.0
C271 C 1.02872 0.5408 0.84594 0.0
C272 C 1.0612 0.5616 0.83954 0.0
C273 C 0.08994 0.58148 0.84992 0.0
C274 C 0.0862 0.58067 0.86691 0.0
C275 C 1.05461 0.55926 0.87317 0.0
C276 C 1.05533 0.56216 0.89152 0.0
C277 C 0.09241 0.58943 0.89522 0.0
C278 C 0.11029 0.60011 0.88077 0.0
C279 C 1.04694 0.52699 0.89779 0.0
C280 C 1.03021 0.57455 0.89689 0.0
H281 H 0.22498 0.69047 0.91673 0.0
H282 H 0.23656 0.68136 0.85692 0.0
H283 H 0.16701 0.68684 0.86225 0.0
H284 H 0.13156 0.64899 0.85402 0.0
H285 H 0.17244 0.66544 0.84456 0.0
H286 H 0.19232 0.60708 0.86558 0.0
H287 H 0.18666 0.62158 0.8464 0.0
H288 H 0.15109 0.58794 0.85641 0.0
H289 H 0.14643 0.63062 0.96256 0.0
H290 H 1.03863 0.55564 0.95559 0.0
H291 H 1.0436 0.55904 0.92649 0.0
H292 H 0.17375 0.60191 0.93316 0.0
H293 H 0.19775 0.64151 0.94516 0.0
H294 H 0.20552 0.63824 0.92389 0.0
H295 H 0.14586 0.6805 0.93591 0.0
H296 H 0.18108 0.69476 0.92325 0.0
H297 H 0.1859 0.68764 0.94436 0.0
H298 H 0.28066 0.72351 0.90526 0.0
C299 C 0.22651 0.68822 0.90374 0.0
C300 C 0.99671 0.46576 0.48147 0.0
C301 C 0.96812 0.43704 0.47305 0.0
C302 C 0.96883 0.43412 0.45595 0.0
C303 C 1.02277 0.48771 0.45548 0.0
C304 C 1.02395 0.49104 0.47233 0.0
C305 C 1.05678 0.52402 0.47834 0.0
H306 H 0.20194 0.67158 0.45444 0.0
C307 C 1.05288 0.51788 0.44907 0.0
C308 C 0.07368 0.53996 0.4623 0.0
H309 H 0.1796 0.64427 0.50437 0.0
H310 H 0.12597 0.59218 0.49501 0.0
H311 H 0.18601 0.60045 0.44104 0.0
H312 H 0.1285 0.65265 0.44319 0.0
H313 H 0.11685 0.6298 0.4242 0.0
H314 H 0.16107 0.66193 0.42865 0.0
H315 H 0.19301 0.63356 0.42765 0.0
H316 H 0.16276 0.58903 0.42241 0.0
C317 C 0.07931 0.51422 0.48835 0.0
C318 C 1.04714 0.54747 0.48831 0.0
C319 C 1.06048 0.52609 0.38721 0.0
C320 C 0.08355 0.5516 0.3772 0.0
C321 C 0.11156 0.58132 0.38462 0.0
C322 C 0.11644 0.58575 0.40161 0.0
C323 C 0.09308 0.56024 0.4115 0.0
C324 C 1.06567 0.53109 0.40426 0.0
C325 C 1.04307 0.50722 0.41672 0.0
C326 C 1.06156 0.52678 0.43266 0.0
C327 C 0.09083 0.55761 0.42948 0.0
C328 C 1.04355 0.47311 0.41422 0.0
C329 C 1.00716 0.50382 0.41468 0.0
C330 C 0.18623 0.65451 0.46358 0.0
C331 C 0.19613 0.66235 0.48018 0.0
C332 C 0.17322 0.63925 0.49142 0.0
C333 C 0.14216 0.60886 0.48599 0.0
C334 C 0.13358 0.6012 0.46912 0.0
C335 C 0.15595 0.62448 0.45845 0.0
C336 C 0.14482 0.61374 0.441 0.0
C337 C 0.11229 0.5799 0.44253 0.0
C338 C 0.10459 0.57176 0.45901 0.0
C339 C 0.17301 0.60912 0.43244 0.0
C340 C 0.13761 0.64088 0.43374 0.0
H341 H 0.99342 0.4544 0.4343 0.0
H342 H 0.99738 0.4688 0.49464 0.0
H343 H 1.02914 0.55229 0.48107 0.0
H344 H 0.06992 0.57259 0.49173 0.0
H345 H 1.0345 0.53543 0.49968 0.0
H346 H 0.08375 0.49534 0.4812 0.0
H347 H 1.0667 0.50249 0.49977 0.0
H348 H 0.10466 0.53668 0.49164 0.0
H349 H 1.03849 0.50306 0.38192 0.0
H350 H 0.13002 0.60116 0.37723 0.0
H351 H 0.13837 0.60901 0.40631 0.0
H352 H 0.06846 0.47764 0.40949 0.0
H353 H 1.02309 0.45501 0.40532 0.0
H354 H 1.04108 0.46033 0.42574 0.0
H355 H 1.00913 0.52764 0.41018 0.0
H356 H 0.99392 0.50027 0.42631 0.0
H357 H 0.99047 0.48242 0.40578 0.0
H358 H 0.94816 0.4124 0.44909 0.0
C359 C 0.99551 0.45882 0.44727 0.0
C360 C 0.57923 0.9597 0.81462 0.0
C361 C 0.57847 0.93085 0.80613 0.0
C362 C 0.5809 0.93134 0.78907 0.0
C363 C 0.58307 0.98627 0.78878 0.0
C364 C 0.58137 0.98726 0.80559 0.0
C365 C 0.58152 1.02012 0.81169 0.0
H366 H 0.58909 0.17119 0.78864 0.0
C367 C 0.58436 1.01727 0.78251 0.0
C368 C 0.58364 1.03803 0.79578 0.0
H369 H 0.58204 0.14122 0.83824 0.0
H370 H 0.5809 0.08803 0.82858 0.0
H371 H 0.64331 0.1517 0.77796 0.0
H372 H 0.53374 0.10089 0.77418 0.0
H373 H 0.54568 0.08908 0.75587 0.0
H374 H 0.56045 0.13378 0.76093 0.0
H375 H 0.62067 0.16258 0.76351 0.0
H376 H 0.6324 0.13045 0.75858 0.0
C377 C 0.61326 1.04187 0.82301 0.0
C378 C 0.54791 1.01019 0.82032 0.0
C379 C 0.58689 1.02842 0.72076 0.0
C380 C 0.5875 0.05345 0.71086 0.0
C381 C 0.58906 0.08288 0.71845 0.0
C382 C 0.5893 0.08705 0.73545 0.0
C383 C 0.58798 0.06157 0.74522 0.0
C384 C 0.58708 1.03303 0.73784 0.0
C385 C 0.58588 1.00876 0.75018 0.0
C386 C 0.58578 1.02727 0.76618 0.0
C387 C 0.587 0.05808 0.76315 0.0
C388 C 0.61898 1.00638 0.7487 0.0
C389 C 0.55187 0.97428 0.74697 0.0
C390 C 0.58776 0.15374 0.79765 0.0
C391 C 0.58633 0.16133 0.81427 0.0
C392 C 0.58335 0.13653 0.82529 0.0
C393 C 0.5828 0.10568 0.8197 0.0
C394 C 0.5848 0.09906 0.80285 0.0
C395 C 0.58695 0.1233 0.79234 0.0
C396 C 0.58802 0.1134 0.77489 0.0
C397 C 0.58662 0.07942 0.77626 0.0
C398 C 0.5848 0.0701 0.79264 0.0
C399 C 0.62267 0.14091 0.76823 0.0
C400 C 0.55555 0.10924 0.76587 0.0
H401 H 0.58475 0.95621 0.76756 0.0
H402 H 0.57745 0.96038 0.82776 0.0
H403 H 0.5255 0.99245 0.81221 0.0
H404 H 0.54536 1.03284 0.82354 0.0
H405 H 0.54661 0.99713 0.83168 0.0
H406 H 0.63693 0.04673 0.81675 0.0
H407 H 0.61165 1.02841 0.83428 0.0
H408 H 0.61596 0.06703 0.8266 0.0
H409 H 0.58558 1.00541 0.71538 0.0
H410 H 0.59033 0.10298 0.71121 0.0
H411 H 0.5904 0.11007 0.74027 0.0
H412 H 0.64052 1.03038 0.74425 0.0
H413 H 0.61495 0.985 0.74001 0.0
H414 H 0.62874 1.00341 0.76058 0.0
H415 H 0.53108 0.97862 0.74244 0.0
H416 H 0.54175 0.96011 0.75811 0.0
H417 H 0.55491 0.95747 0.73764 0.0
H418 H 0.58094 0.91029 0.78218 0.0
C419 C 0.58322 0.95842 0.78051 0.0
C420 C 0.66293 0.54837 0.14805 0.0
C421 C 0.69027 0.54748 0.1397 0.0
C422 C 0.68719 0.5426 0.1226 0.0
C423 C 0.63361 0.54311 0.12197 0.0
C424 C 0.63459 0.54613 0.13883 0.0
C425 C 0.60255 0.54668 0.14473 0.0
H426 H 0.45745 0.55388 0.12045 0.0
C427 C 0.60324 0.54393 0.11547 0.0
C428 C 0.58422 0.54608 0.12862 0.0
H429 H 0.48179 0.54312 0.17 0.0
H430 H 0.53475 0.54509 0.16097 0.0
H431 H 0.5312 0.6084 0.11137 0.0
H432 H 0.47132 0.49888 0.10508 0.0
H433 H 0.49255 0.51254 0.0868 0.0
H434 H 0.46362 0.52706 0.09326 0.0
H435 H 0.49832 0.5873 0.09565 0.0
H436 H 0.54216 0.59837 0.0923 0.0
C437 C 0.61335 0.57969 0.15533 0.0
C438 C 0.58078 0.5142 0.15404 0.0
C439 C 0.58952 0.54421 0.05371 0.0
C440 C 0.56721 0.54938 0.04371 0.0
C441 C 0.54214 0.55496 0.05098 0.0
C442 C 0.53896 0.5549 0.06795 0.0
C443 C 0.56133 0.54955 0.07788 0.0
C444 C 0.5864 0.5449 0.07071 0.0
C445 C 0.60932 0.54203 0.0832 0.0
C446 C 0.59332 0.54484 0.09907 0.0
C447 C 0.56499 0.54865 0.09583 0.0
C448 C 0.64615 0.57283 0.08156 0.0
C449 C 0.60582 0.50613 0.08038 0.0
C450 C 0.47347 0.55132 0.12954 0.0
C451 C 0.46429 0.54745 0.14593 0.0
C452 C 0.48759 0.54582 0.1572 0.0
C453 C 0.5182 0.54665 0.15195 0.0
C454 C 0.52587 0.54908 0.13522 0.0
C455 C 0.50324 0.55152 0.12454 0.0
C456 C 0.51324 0.55296 0.1072 0.0
C457 C 0.54509 0.55007 0.10879 0.0
C458 C 0.55372 0.54835 0.12524 0.0
C459 C 0.52147 0.58839 0.10117 0.0
C460 C 0.48376 0.5215 0.09744 0.0
H461 H 0.6597 0.53704 0.10088 0.0
H462 H 0.66404 0.55156 0.16123 0.0
H463 H 0.57571 0.49094 0.14649 0.0
H464 H 0.55569 0.51126 0.15709 0.0
H465 H 0.59434 0.51492 0.16555 0.0
H466 H 0.63068 0.60257 0.14856 0.0
H467 H 0.62712 0.58006 0.1667 0.0
H468 H 0.59093 0.58206 0.15877 0.0
H469 H 0.60945 0.54047 0.04843 0.0
H470 H 0.52467 0.55896 0.04348 0.0
H471 H 0.519 0.55887 0.07262 0.0
H472 H 0.64588 0.59472 0.07594 0.0
H473 H 0.66181 0.56552 0.07381 0.0
H474 H 0.65972 0.5838 0.0935 0.0
H475 H 0.57916 0.48656 0.07639 0.0
H476 H 0.61081 0.4964 0.09161 0.0
H477 H 0.6231 0.50627 0.07079 0.0
H478 H 0.70686 0.54088 0.11582 0.0
C479 C 0.65947 0.54038 0.11385 0.0
C480 C 0.17203 0.5139 0.16382 0.0
C481 C 0.17162 0.54485 0.16611 0.0
C482 C 0.20312 0.51349 0.16296 0.0
C483 C 0.30023 0.56996 0.16984 0.0
H484 H 0.3001 0.49454 0.14543 0.0
C485 C 0.4258 0.55973 0.16489 0.0
C486 C 0.43014 0.54439 0.15044 0.0
C487 C 0.39447 0.55908 0.16786 0.0
C488 C 0.30117 0.51624 0.15216 0.0
H489 H 0.2047 0.59995 0.16912 0.0
H490 H 0.25838 0.5995 0.167 0.0
H491 H 0.24749 0.49603 0.14763 0.0
H492 H 0.40303 0.51455 0.12828 0.0
H493 H 0.35041 0.51471 0.13295 0.0
H494 H 0.3545 0.59094 0.17363 0.0
C495 C 0.23475 0.57512 0.16635 0.0
C496 C 0.27029 0.51676 0.15372 0.0
C497 C 0.20362 0.57545 0.16747 0.0
C498 C 0.40155 0.52745 0.13942 0.0
C499 C 0.37063 0.52703 0.14228 0.0
C500 C 0.33132 0.56965 0.16811 0.0
C501 C 0.23532 0.54411 0.16405 0.0
C502 C 0.26894 0.54363 0.16257 0.0
C503 C 0.36623 0.54296 0.1565 0.0
C504 C 0.3326 0.54286 0.15912 0.0
H505 H 0.14816 0.48969 0.16285 0.0
H506 H 0.20163 0.48881 0.16159 0.0
H507 H 0.30095 0.59101 0.17703 0.0
H508 H 0.44689 0.57308 0.17375 0.0
H509 H 0.39253 0.57128 0.17913 0.0
C510 C 0.71443 0.15213 0.4966 0.0
C511 C 0.68321 0.15082 0.50009 0.0
C512 C 0.74516 0.18372 0.49538 0.0
C513 C 0.77861 0.27958 0.49215 0.0
H514 H 0.86689 0.28583 0.49812 0.0
C515 C 0.90377 0.40128 0.47427 0.0
C516 C 0.93627 0.40977 0.48085 0.0
C517 C 0.87374 0.37136 0.47822 0.0
C518 C 0.84265 0.28507 0.49661 0.0
H519 H 0.66086 0.18279 0.50544 0.0
H520 H 0.71409 0.23723 0.50438 0.0
H521 H 0.81477 0.23201 0.50209 0.0
H522 H 0.96168 0.39304 0.4975 0.0
H523 H 0.90916 0.3416 0.50512 0.0
H524 H 0.80623 0.33288 0.48748 0.0
C525 C 0.71495 0.21397 0.50177 0.0
C526 C 0.81222 0.25352 0.49862 0.0
C527 C 0.68409 0.18239 0.50261 0.0
C528 C 0.93727 0.38786 0.49231 0.0
C529 C 0.90692 0.35777 0.49642 0.0
C530 C 0.80892 0.31116 0.49039 0.0
C531 C 0.74625 0.21553 0.4979 0.0
C532 C 0.77936 0.24985 0.49627 0.0
C533 C 0.87446 0.34839 0.48916 0.0
C534 C 0.84179 0.31468 0.49232 0.0
H535 H 0.71505 0.12858 0.49444 0.0
H536 H 0.76795 0.18291 0.49211 0.0
H537 H 0.75448 0.27863 0.48991 0.0
H538 H 0.90172 0.41717 0.46531 0.0
H539 H 0.85012 0.36571 0.47197 0.0
C540 C 0.55197 0.64765 0.83646 0.0
C541 C 0.58145 0.6458 0.83248 0.0
C542 C 0.55086 0.67828 0.83527 0.0
C543 C 0.60773 0.7744 0.82973 0.0
H544 H 0.52054 0.76931 0.82168 0.0
C545 C 0.59898 0.90012 0.82493 0.0
C546 C 0.57434 0.89906 0.81386 0.0
C547 C 0.5989 0.86969 0.82886 0.0
C548 C 0.54537 0.77163 0.82376 0.0
H549 H 0.63286 0.6758 0.82382 0.0
H550 H 0.63079 0.72841 0.82131 0.0
H551 H 0.52267 0.71705 0.82409 0.0
H552 H 0.52969 0.86436 0.79871 0.0
H553 H 0.52952 0.81236 0.80529 0.0
H554 H 0.63051 0.82899 0.82867 0.0
C555 C 0.60854 0.70649 0.82583 0.0
C556 C 0.54655 0.74115 0.82543 0.0
C557 C 0.60971 0.67589 0.82716 0.0
C558 C 0.54889 0.86642 0.80745 0.0
C559 C 0.54882 0.83624 0.8113 0.0
C560 C 0.60657 0.8049 0.82792 0.0
C561 C 0.57911 0.70855 0.82988 0.0
C562 C 0.57779 0.74167 0.82837 0.0
C563 C 0.57421 0.83705 0.82182 0.0
C564 C 0.57538 0.8043 0.82476 0.0
H565 H 0.52952 0.62531 0.84062 0.0
H566 H 0.52772 0.6781 0.83882 0.0
H567 H 0.63242 0.77675 0.83229 0.0
H568 H 0.61936 0.92462 0.82993 0.0
H569 H 0.6187 0.87198 0.83724 0.0
C570 C 0.97978 0.58143 0.16926 0.0
C571 C 0.98073 0.55088 0.1664 0.0
C572 C 0.94862 0.58179 0.16834 0.0
C573 C 0.851 0.52283 0.16452 0.0
H574 H 0.85414 0.60755 0.15493 0.0
C575 C 0.72402 0.53014 0.15868 0.0
C576 C 0.72325 0.55272 0.14757 0.0
C577 C 0.75512 0.53089 0.16274 0.0
C578 C 0.85224 0.58331 0.1574 0.0
H579 H 0.94872 0.49668 0.15999 0.0
H580 H 0.89517 0.49729 0.15771 0.0
H581 H 0.90672 0.60605 0.15723 0.0
H582 H 0.75537 0.59449 0.13252 0.0
H583 H 0.80824 0.5955 0.13912 0.0
H584 H 0.79616 0.49973 0.16372 0.0
C585 C 0.91817 0.52112 0.16127 0.0
C586 C 0.88307 0.5826 0.15907 0.0
C587 C 0.94928 0.52071 0.1625 0.0
C588 C 0.75476 0.57688 0.14126 0.0
C589 C 0.78551 0.57748 0.14516 0.0
C590 C 0.82003 0.52342 0.16258 0.0
C591 C 0.91697 0.5517 0.16417 0.0
C592 C 0.88337 0.55235 0.16263 0.0
C593 C 0.78653 0.55414 0.15576 0.0
C594 C 0.81986 0.55365 0.15885 0.0
H595 H 1.00321 0.60522 0.17243 0.0
H596 H 0.94961 0.60593 0.17112 0.0
H597 H 0.84925 0.49893 0.16756 0.0
H598 H 0.70036 0.51078 0.16362 0.0
H599 H 0.75426 0.51272 0.17117 0.0
C600 C 0.48793 0.92647 0.49936 0.0
C601 C 0.48783 0.95773 0.50053 0.0
C602 C 0.45712 0.89457 0.4986 0.0
C603 C 0.36019 0.85326 0.5035 0.0
H604 H 0.36027 0.77521 0.48202 0.0
C605 C 0.23532 0.71615 0.49876 0.0
C606 C 0.23046 0.69421 0.48495 0.0
C607 C 0.26665 0.74744 0.50181 0.0
C608 C 0.35918 0.79657 0.48791 0.0
H609 H 0.45414 0.97904 0.50171 0.0
H610 H 0.40086 0.9241 0.49976 0.0
H611 H 0.41248 0.83001 0.48417 0.0
H612 H 0.25675 0.68822 0.46412 0.0
H613 H 0.30932 0.74198 0.46887 0.0
H614 H 0.30626 0.81988 0.50646 0.0
C615 C 0.42472 0.92384 0.49991 0.0
C616 C 0.38988 0.82846 0.48945 0.0
C617 C 0.45561 0.95577 0.50093 0.0
C618 C 0.25861 0.70431 0.47472 0.0
C619 C 0.28952 0.73543 0.47765 0.0
C620 C 0.32928 0.82135 0.50177 0.0
C621 C 0.42465 0.89236 0.49868 0.0
C622 C 0.39127 0.85773 0.49725 0.0
C623 C 0.2944 0.75802 0.49118 0.0
C624 C 0.32794 0.79223 0.49382 0.0
H625 H 0.51199 0.92654 0.49916 0.0
H626 H 0.45909 0.87161 0.49811 0.0
H627 H 0.35949 0.8744 0.50988 0.0
H628 H 0.21459 0.70967 0.507 0.0
H629 H 0.26895 0.76332 0.51256 0.0
C630 C 0.61045 0.45054 0.83911 0.0
C631 C 0.58123 0.4518 0.83381 0.0
C632 C 0.61127 0.41956 0.83824 0.0
C633 C 0.55441 0.32267 0.83233 0.0
H634 H 0.64048 0.32596 0.82429 0.0
C635 C 0.56616 0.19763 0.83074 0.0
C636 C 0.5882 0.19518 0.81934 0.0
C637 C 0.56564 0.22866 0.83363 0.0
C638 C 0.616 0.32418 0.82642 0.0
H639 H 0.52981 0.42025 0.82335 0.0
H640 H 0.53132 0.36683 0.82164 0.0
H641 H 0.63843 0.37882 0.82637 0.0
H642 H 0.6282 0.22496 0.80272 0.0
H643 H 0.62707 0.27784 0.8075 0.0
H644 H 0.53186 0.26782 0.8319 0.0
C645 C 0.55364 0.38971 0.82677 0.0
C646 C 0.61491 0.35497 0.82786 0.0
C647 C 0.55282 0.4207 0.82765 0.0
C648 C 0.61049 0.22528 0.81146 0.0
C649 C 0.61007 0.2561 0.81436 0.0
C650 C 0.55551 0.29181 0.83089 0.0
C651 C 0.58293 0.38837 0.832 0.0
C652 C 0.58407 0.35501 0.83077 0.0
C653 C 0.58739 0.25854 0.82535 0.0
C654 C 0.5863 0.29181 0.82777 0.0
H655 H 0.63294 0.47363 0.84397 0.0
H656 H 0.63425 0.42015 0.84268 0.0
H657 H 0.5301 0.32102 0.8348 0.0
H658 H 0.54844 0.17524 0.83704 0.0
H659 H 0.54803 0.22912 0.84237 0.0
C660 C 0.57608 0.82977 0.47854 0.0
C661 C 0.5593 0.84706 0.4844 0.0
C662 C 0.55983 0.79415 0.47825 0.0
C663 C 0.5025 0.72727 0.50287 0.0
H664 H 0.52526 0.67355 0.47276 0.0
C665 C 0.52206 0.62011 0.52553 0.0
C666 C 0.55596 0.62822 0.52255 0.0
C667 C 0.50659 0.63499 0.51671 0.0
C668 C 0.51798 0.68782 0.48116 0.0
H669 H 0.51112 0.84015 0.49331 0.0
H670 H 0.48322 0.77767 0.49344 0.0
H671 H 0.52633 0.72496 0.46374 0.0
H672 H 0.59954 0.65755 0.50749 0.0
H673 H 0.57254 0.68249 0.49209 0.0
H674 H 0.49729 0.69206 0.52074 0.0
C675 C 0.50895 0.79193 0.48902 0.0
C676 C 0.51861 0.7172 0.47601 0.0
C677 C 0.52511 0.82768 0.48911 0.0
C678 C 0.5732 0.64997 0.50996 0.0
C679 C 0.55763 0.66433 0.50104 0.0
C680 C 0.50192 0.69791 0.50803 0.0
C681 C 0.52652 0.77492 0.48397 0.0
C682 C 0.51329 0.73847 0.48718 0.0
C683 C 0.52456 0.65779 0.50461 0.0
C684 C 0.51213 0.67942 0.49756 0.0
H685 H 0.60251 0.84374 0.47502 0.0
H686 H 0.57435 0.78188 0.47462 0.0
H687 H 0.49825 0.74314 0.51175 0.0
H688 H 0.50778 0.60296 0.53493 0.0
H689 H 0.48106 0.62957 0.5197 0.0
C690 C 0.80121 0.55884 0.81129 0.0
C691 C 0.77042 0.53992 0.81932 0.0
C692 C 0.82207 0.5448 0.80785 0.0
C693 C 0.84351 0.48619 0.82615 0.0
H694 H 0.90827 0.51284 0.79144 0.0
C695 C 0.96988 0.49207 0.83811 0.0
C696 C 0.99741 0.52469 0.83519 0.0
C697 C 0.93778 0.48046 0.83052 0.0
C698 C 0.8902 0.50488 0.80116 0.0
H699 H 0.73573 0.49039 0.82865 0.0
H700 H 0.77239 0.46594 0.82277 0.0
H701 H 0.85701 0.51785 0.78829 0.0
H702 H 1.01374 0.5694 0.821 0.0
H703 H 0.95806 0.54968 0.8081 0.0
H704 H 0.87758 0.47577 0.83959 0.0
C705 C 0.78061 0.49179 0.81935 0.0
C706 C 0.86087 0.50774 0.79934 0.0
C707 C 0.75976 0.50585 0.8228 0.0
C708 C 0.99309 0.54405 0.82343 0.0
C709 C 0.96102 0.53259 0.81596 0.0
C710 C 0.87284 0.48353 0.828 0.0
C711 C 0.81255 0.51155 0.81236 0.0
C712 C 0.83816 0.50005 0.81217 0.0
C713 C 0.93258 0.50144 0.82004 0.0
C714 C 0.89746 0.49457 0.8159 0.0
H715 H 0.81017 0.5852 0.80851 0.0
H716 H 0.84673 0.5609 0.80267 0.0
H717 H 0.82669 0.48025 0.83633 0.0
H718 H 0.9727 0.47634 0.8469 0.0
H719 H 0.91656 0.45599 0.83365 0.0
C720 C 0.29822 0.71342 0.15525 0.0
C721 C 0.27594 0.72506 0.15046 0.0
C722 C 0.33302 0.73211 0.15201 0.0
C723 C 0.399 0.80897 0.13156 0.0
H724 H 0.44653 0.82955 0.1737 0.0
C725 C 0.49014 0.943 0.15639 0.0
C726 C 0.51368 0.94925 0.16924 0.0
C727 C 0.47109 0.91034 0.14881 0.0
C728 C 0.43441 0.82368 0.16163 0.0
H729 H 0.27192 0.76369 0.13738 0.0
H730 H 0.33263 0.7967 0.13199 0.0
H731 H 0.39139 0.77832 0.16948 0.0
H732 H 0.5386 0.92726 0.18295 0.0
H733 H 0.50528 0.86996 0.16961 0.0
H734 H 0.44133 0.85584 0.12414 0.0
C735 C 0.32333 0.77291 0.13803 0.0
C736 C 0.40252 0.79412 0.15921 0.0
C737 C 0.28852 0.75413 0.14121 0.0
C738 C 0.52009 0.92295 0.17331 0.0
C739 C 0.50109 0.89022 0.16564 0.0
C740 C 0.43107 0.83855 0.13396 0.0
C741 C 0.34619 0.76288 0.14399 0.0
C742 C 0.38356 0.78756 0.14449 0.0
C743 C 0.47514 0.88315 0.15389 0.0
C744 C 0.44806 0.84732 0.14938 0.0
H745 H 0.28895 0.69058 0.16207 0.0
H746 H 0.3499 0.72345 0.15652 0.0
H747 H 0.38528 0.80413 0.11995 0.0
H748 H 0.48436 0.96259 0.15304 0.0
H749 H 0.4511 0.90591 0.13998 0.0
C750 C 0.62113 0.27672 0.4782 0.0
C751 C 0.62897 0.2516 0.48252 0.0
C752 C 0.64711 0.31092 0.47786 0.0
C753 C 0.72154 0.36972 0.50065 0.0
H754 H 0.73281 0.43272 0.46744 0.0
C755 C 0.76972 0.50893 0.52001 0.0
C756 C 0.74765 0.51987 0.51402 0.0
C757 C 0.77033 0.4809 0.51231 0.0
C758 C 0.73013 0.41552 0.47685 0.0
H759 H 0.6698 0.242 0.48941 0.0
H760 H 0.7151 0.30224 0.48949 0.0
H761 H 0.70166 0.37104 0.46064 0.0
H762 H 0.71073 0.5113 0.49457 0.0
H763 H 0.71132 0.46302 0.48155 0.0
H764 H 0.74632 0.41327 0.51737 0.0
C765 C 0.6891 0.29526 0.48598 0.0
C766 C 0.71249 0.38029 0.47288 0.0
C767 C 0.66326 0.26098 0.48595 0.0
C768 C 0.72848 0.50408 0.49945 0.0
C769 C 0.7289 0.47612 0.49187 0.0
C770 C 0.73841 0.40485 0.50473 0.0
C771 C 0.68112 0.32052 0.48217 0.0
C772 C 0.70678 0.35715 0.48496 0.0
C773 C 0.74857 0.46309 0.4986 0.0
C774 C 0.74119 0.42807 0.4931 0.0
H775 H 0.59487 0.27001 0.4755 0.0
H776 H 0.64034 0.33014 0.47512 0.0
H777 H 0.71735 0.35224 0.51016 0.0
H778 H 0.78524 0.52095 0.53106 0.0
H779 H 0.7864 0.47205 0.51762 0.0
C780 C 0.43315 0.62247 0.81347 0.0
C781 C 0.43704 0.60597 0.82678 0.0
C782 C 0.42766 0.65023 0.8161 0.0
C783 C 0.42949 0.71194 0.84844 0.0
H784 H 0.34343 0.69226 0.82782 0.0
C785 C 0.32326 0.71583 0.88184 0.0
C786 C 0.29795 0.71926 0.87342 0.0
C787 C 0.35215 0.71986 0.87389 0.0
C788 C 0.36807 0.69911 0.83339 0.0
H789 H 0.44092 0.607 0.85315 0.0
H790 H 0.43088 0.6548 0.85776 0.0
H791 H 0.37349 0.66408 0.81702 0.0
H792 H 0.28553 0.73439 0.85077 0.0
H793 H 0.33584 0.7408 0.83677 0.0
H794 H 0.42254 0.74495 0.86561 0.0
C795 C 0.43211 0.6466 0.84531 0.0
C796 C 0.38533 0.68284 0.82717 0.0
C797 C 0.4372 0.61878 0.84268 0.0
C798 C 0.30414 0.73066 0.85746 0.0
C799 C 0.333 0.73449 0.84945 0.0
C800 C 0.41221 0.72822 0.85467 0.0
C801 C 0.42656 0.66222 0.83208 0.0
C802 C 0.41503 0.68744 0.83527 0.0
C803 C 0.3563 0.72727 0.85732 0.0
C804 C 0.38022 0.72027 0.84781 0.0
H805 H 0.4333 0.61323 0.80108 0.0
H806 H 0.42348 0.66181 0.80569 0.0
H807 H 0.45281 0.71655 0.85469 0.0
H808 H 0.31935 0.70687 0.89409 0.0
H809 H 0.3694 0.71382 0.88031 0.0
C810 C 0.84939 0.34262 0.14304 0.0
C811 C 0.8699 0.37846 0.14373 0.0
C812 C 0.81412 0.32742 0.14494 0.0
C813 C 0.74092 0.34267 0.15116 0.0
H814 H 0.72625 0.2857 0.18769 0.0
C815 C 0.61404 0.25489 0.18365 0.0
C816 C 0.61819 0.25084 0.2003 0.0
C817 C 0.64203 0.27805 0.17497 0.0
C818 C 0.73005 0.30184 0.17761 0.0
H819 H 0.86919 0.42626 0.14429 0.0
H820 H 0.80777 0.39974 0.14814 0.0
H821 H 0.77804 0.3057 0.17261 0.0
H822 H 0.65318 0.27261 0.22146 0.0
H823 H 0.7012 0.31358 0.20647 0.0
H824 H 0.69234 0.33852 0.15652 0.0
C825 C 0.81876 0.38336 0.14617 0.0
C826 C 0.75942 0.3127 0.16873 0.0
C827 C 0.854 0.39855 0.14414 0.0
C828 C 0.64897 0.27461 0.20864 0.0
C829 C 0.67672 0.29796 0.20002 0.0
C830 C 0.71101 0.33131 0.16002 0.0
C831 C 0.79894 0.34785 0.14769 0.0
C832 C 0.76538 0.33339 0.15548 0.0
C833 C 0.67422 0.29775 0.18294 0.0
C834 C 0.70573 0.3113 0.17351 0.0
H835 H 0.86084 0.32645 0.14261 0.0
H836 H 0.7992 0.29986 0.14571 0.0
H837 H 0.74503 0.35877 0.14104 0.0
H838 H 0.59025 0.23766 0.17698 0.0
H839 H 0.63932 0.27776 0.16183 0.0
C840 C 0.10347 0.58819 0.1107 0.0
C841 C 0.07934 0.55729 0.11726 0.0
C842 C 0.10392 0.59194 0.09389 0.0
C843 C 0.08032 0.54322 0.05461 0.0
H844 H 0.08511 0.62456 0.03787 0.0
C845 C 0.06854 0.55631 0.98567 0.0
C846 C 0.08931 0.58867 0.97943 0.0
C847 C 1.06637 0.55249 0.00248 0.0
C848 C 0.08425 0.60191 0.04232 0.0
H849 H 1.03694 0.50601 0.11132 0.0
H850 H 1.03809 0.51248 0.08189 0.0
H851 H 0.08367 0.61791 0.06723 0.0
H852 H 0.12367 0.64254 0.98612 0.0
H853 H 0.12104 0.63566 0.01538 0.0
H854 H 0.08177 0.52748 0.02983 0.0
C855 C 1.05656 0.53377 0.0898 0.0
C856 C 0.08329 0.59807 0.05915 0.0
C857 C 1.05582 0.53014 0.10664 0.0
C858 C 0.10776 0.61715 0.99046 0.0
C859 C 0.10586 0.61327 0.00728 0.0
C860 C 0.08166 0.54721 0.0378 0.0
C861 C 0.08054 0.56474 0.08328 0.0
C862 C 0.08129 0.56869 0.06544 0.0
C863 C 0.0852 0.58087 0.01352 0.0
C864 C 0.0836 0.57659 0.03143 0.0
H865 H 0.12189 0.60963 0.11856 0.0
H866 H 0.12287 0.61599 0.08917 0.0
H867 H 0.0792 0.5205 0.05916 0.0
H868 H 1.05432 0.53368 0.97758 0.0
H869 H 1.0498 0.52723 0.00682 0.0
C870 C 0.54922 1.04332 0.44164 0.0
C871 C 0.58126 0.05786 0.44991 0.0
C872 C 0.54711 1.04341 0.42467 0.0
C873 C 0.59171 0.08996 0.38995 0.0
H874 H 0.53551 1.00457 0.36459 0.0
C875 C 0.58616 0.0844 0.31953 0.0
C876 C 0.55507 0.06086 0.31143 0.0
C877 C 0.59029 0.08392 0.33639 0.0
C878 C 0.55086 1.02876 0.37146 0.0
H879 H 0.63622 0.08433 0.447 0.0
H880 H 0.63245 0.08535 0.41721 0.0
H881 H 0.54082 1.00418 0.39414 0.0
H882 H 0.50368 1.01893 0.31446 0.0
H883 H 0.51012 1.01897 0.34399 0.0
H884 H 0.6007 0.11494 0.36753 0.0
C885 C 0.60908 0.07354 0.42393 0.0
C886 C 0.55407 1.02842 0.38838 0.0
C887 C 0.6112 0.07283 0.44091 0.0
C888 C 0.528 1.03713 0.32046 0.0
C889 C 0.53187 1.03705 0.33736 0.0
C890 C 0.58799 0.09044 0.37306 0.0
C891 C 0.577 0.05863 0.41569 0.0
C892 C 0.57449 0.059 0.39775 0.0
C893 C 0.56317 0.06028 0.34556 0.0
C894 C 0.56746 0.05983 0.36356 0.0
H895 H 0.52571 1.03151 0.44826 0.0
H896 H 0.5221 1.03195 0.41856 0.0
H897 H 0.60733 0.11391 0.39699 0.0
H898 H 0.60752 0.1027 0.31275 0.0
H899 H 0.61498 0.10176 0.34215 0.0
C900 C 0.62462 0.55037 0.77872 0.0
C901 C 0.59354 0.54576 0.78467 0.0
C902 C 0.62943 0.54969 0.76198 0.0
C903 C 0.59619 0.55915 0.72239 0.0
H904 H 0.64997 0.52017 0.70524 0.0
C905 C 0.63922 0.52519 0.65624 0.0
C906 C 0.64602 0.55482 0.64833 0.0
C907 C 0.6316 0.52246 0.67278 0.0
C908 C 0.63455 0.53081 0.70977 0.0
H909 H 0.54297 0.5365 0.77772 0.0
H910 H 0.55107 0.53455 0.74839 0.0
H911 H 0.63725 0.51684 0.73406 0.0
H912 H 0.65145 0.60527 0.65156 0.0
H913 H 0.63907 0.60097 0.68044 0.0
H914 H 0.59268 0.57227 0.69803 0.0
C915 C 0.57199 0.53934 0.7567 0.0
C916 C 0.62764 0.52931 0.72636 0.0
C917 C 0.56727 0.5403 0.7735 0.0
C918 C 0.6458 0.58193 0.65732 0.0
C919 C 0.63851 0.57936 0.67384 0.0
C920 C 0.60288 0.56041 0.70578 0.0
C921 C 0.60317 0.54407 0.75074 0.0
C922 C 0.60875 0.54386 0.73292 0.0
C923 C 0.63094 0.54945 0.68175 0.0
C924 C 0.62252 0.54665 0.6993 0.0
H925 H 0.64553 0.55492 0.78699 0.0
H926 H 0.65402 0.55416 0.75786 0.0
H927 H 0.58182 0.57088 0.72703 0.0
H928 H 0.63892 0.50379 0.64954 0.0
H929 H 0.62552 0.49891 0.67843 0.0
C930 C 0.60435 1.03483 0.56063 0.0
C931 C 0.58553 0.04761 0.55274 0.0
C932 C 0.60506 1.034 0.57769 0.0
C933 C 0.59026 0.07395 0.61488 0.0
H934 H 0.58539 0.99688 0.63645 0.0
C935 C 0.56642 0.05894 0.68336 0.0
C936 C 0.5862 0.04925 0.6927 0.0
C937 C 0.56669 0.05732 0.66634 0.0
C938 C 0.58713 1.01875 0.63061 0.0
H939 H 0.55206 0.06881 0.55672 0.0
H940 H 0.55298 0.06695 0.58622 0.0
H941 H 0.58543 0.99687 0.60663 0.0
H942 H 0.62105 1.02926 0.69133 0.0
H943 H 0.62141 1.02629 0.66147 0.0
H944 H 0.59176 0.09578 0.63874 0.0
C945 C 0.56777 0.05817 0.5793 0.0
C946 C 0.58718 1.01876 0.61352 0.0
C947 C 0.56708 0.05904 0.56232 0.0
C948 C 0.60538 1.03675 0.68451 0.0
C949 C 0.60561 1.03507 0.66741 0.0
C950 C 0.59013 0.07389 0.6319 0.0
C951 C 0.587 0.04596 0.58725 0.0
C952 C 0.58836 0.04622 0.60544 0.0
C953 C 0.58668 0.04588 0.65813 0.0
C954 C 0.58817 0.04615 0.63999 0.0
H955 H 0.61887 1.02582 0.55367 0.0
H956 H 0.62034 1.02466 0.5834 0.0
H957 H 0.59203 0.09591 0.60913 0.0
H958 H 0.55068 0.0679 0.68923 0.0
H959 H 0.55115 0.06505 0.65959 0.0
C960 C 0.58897 0.57908 0.8957 0.0
C961 C 0.57393 0.54833 0.88601 0.0
C962 C 0.58809 0.57868 0.91272 0.0
C963 C 0.54581 0.52067 0.94684 0.0
H964 H 0.62136 0.59463 0.97243 0.0
C965 C 0.5678 0.5208 0.01691 0.0
C966 C 0.57 0.54927 0.02574 0.0
C967 C 0.5686 0.52006 -0.00015 0.0
C968 C 0.6001 0.57386 0.96541 0.0
H969 H 0.54637 0.49297 0.88651 0.0
H970 H 0.5462 0.49206 0.91617 0.0
H971 H 0.6222 0.594 0.94275 0.0
H972 H 0.57562 0.59956 0.02383 0.0
H973 H 0.57826 0.59878 0.99399 0.0
H974 H 0.52461 0.50007 0.96974 0.0
C975 C 0.55769 0.51665 0.91073 0.0
C976 C 0.60033 0.57357 0.94836 0.0
C977 C 0.55792 0.5171 0.89368 0.0
C978 C 0.5738 0.5773 0.01727 0.0
C979 C 0.57541 0.57689 0.00026 0.0
C980 C 0.546 0.52061 0.96389 0.0
C981 C 0.57284 0.54746 0.92054 0.0
C982 C 0.57299 0.54717 0.93878 0.0
C983 C 0.57246 0.54813 0.99138 0.0
C984 C 0.57297 0.54738 0.97332 0.0
H985 H 0.6012 0.60358 0.89012 0.0
H986 H 0.59923 0.60298 0.9197 0.0
H987 H 0.52396 0.5002 0.94003 0.0
H988 H 0.56468 0.49883 0.0232 0.0
H989 H 0.56641 0.49766 0.99326 0.0
C990 C 0.07591 0.56991 0.22898 0.0
C991 C 0.0719 0.54176 0.21911 0.0
C992 C 0.07604 0.56907 0.24598 0.0
C993 C 1.04965 0.51111 0.27995 0.0
H994 H 0.11778 0.59262 0.30472 0.0
C995 C 0.07057 0.51691 0.35048 0.0
C996 C 0.07872 0.54783 0.35911 0.0
C997 C 0.06855 0.5145 0.33337 0.0
C998 C 0.09826 0.56977 0.29804 0.0
H999 H 1.0643 0.49034 0.21947 0.0
H1000 H 1.0645 0.48891 0.24925 0.0
H1001 H 0.11663 0.59144 0.27507 0.0
H1002 H 0.08924 0.59982 0.35657 0.0
H1003 H 0.08526 0.59555 0.3269 0.0
H1004 H 1.0311 0.48959 0.303 0.0
C1005 C 1.06744 0.5116 0.24375 0.0
C1006 C 0.09767 0.56908 0.281 0.0
C1007 C 1.06751 0.5125 0.22669 0.0
C1008 C 0.08362 0.57585 0.35028 0.0
C1009 C 0.08144 0.57341 0.33325 0.0
C1010 C 1.05014 0.51185 0.29705 0.0
C1011 C 0.07203 0.54003 0.25359 0.0
C1012 C 0.07318 0.5399 0.27173 0.0
C1013 C 0.07448 0.54292 0.32453 0.0
C1014 C 0.07427 0.54135 0.30632 0.0
H1015 H 0.07924 0.59285 0.22361 0.0
H1016 H 0.0791 0.59121 0.25317 0.0
H1017 H 1.0303 0.48832 0.27316 0.0
H1018 H 1.06686 0.49492 0.35694 0.0
H1019 H 1.06336 0.49068 0.32708 0.0
loop_
_geom_bond_atom_site_label_1
_geom_bond_atom_site_label_2
_geom_bond_distance
_geom_bond_site_symmetry_2
_ccdc_geom_bond_type
Eu0 C9 2.828 . S
Eu0 O11 2.392 1_655 S
Eu0 O13 2.418 . S
Eu0 O18 2.373 . S
Eu0 O21 2.488 . S
Eu0 O22 2.471 . S
Eu0 O23 2.349 . S
Eu1 O10 2.373 . S
Eu1 O14 2.488 . S
Eu1 O15 2.471 . S
Eu1 O16 2.349 . S
Eu1 O19 2.392 1_455 S
Eu1 O20 2.418 . S
Eu1 C30 2.828 . S
C2 O20 1.244 . S
C2 O23 1.265 1_455 S
C3 C4 1.379 . S
C3 C7 1.373 . S
C3 C9 1.505 . S
C4 C3 1.379 . S
C4 C6 1.369 . S
C4 H32 0.930 . S
C5 C7 1.383 . S
C5 C8 1.382 . S
C5 H33 0.930 . S
C6 C4 1.369 . S
C6 C8 1.392 . S
C6 H34 0.930 . S
C7 C3 1.373 . S
C7 C5 1.383 . S
C7 H35 0.931 . S
C8 C5 1.382 . S
C8 C6 1.392 . S
C9 Eu0 2.828 . S
C9 C3 1.505 . S
C9 O21 1.249 . S
C9 O22 1.244 . S
O10 Eu1 2.373 . S
O10 C12 1.258 . S
O11 Eu0 2.392 1_455 S
O11 C12 1.242 . S
C12 O10 1.258 . S
C12 O11 1.242 . S
O13 Eu0 2.418 . S
O13 C17 1.244 1_655 S
O14 Eu1 2.488 . S
O14 C30 1.249 . S
O15 Eu1 2.471 . S
O15 C30 1.244 . S
O16 Eu1 2.349 . S
O16 C17 1.265 . S
C17 O13 1.244 1_455 S
C17 O16 1.265 . S
O18 Eu0 2.373 . S
O18 C31 1.258 . S
O19 Eu1 2.392 1_655 S
O19 C31 1.242 . S
O20 Eu1 2.418 . S
O20 C2 1.244 . S
O21 Eu0 2.488 . S
O21 C9 1.249 . S
O22 Eu0 2.471 . S
O22 C9 1.244 . S
O23 Eu0 2.349 . S
O23 C2 1.265 1_655 S
C24 C25 1.379 . S
C24 C28 1.373 . S
C24 C30 1.505 . S
C25 C24 1.379 . S
C25 C27 1.369 . S
C25 H36 0.930 . S
C26 C28 1.383 . S
C26 C29 1.382 . S
C26 H37 0.930 . S
C27 C25 1.369 . S
C27 C29 1.392 . S
C27 H38 0.930 . S
C28 C24 1.373 . S
C28 C26 1.383 . S
C28 H39 0.931 . S
C29 C26 1.382 . S
C29 C27 1.392 . S
C30 Eu1 2.828 . S
C30 O14 1.249 . S
C30 O15 1.244 . S
C30 C24 1.505 . S
C31 O18 1.258 . S
C31 O19 1.242 . S
H32 C4 0.930 . S
H33 C5 0.930 . S
H34 C6 0.930 . S
H35 C7 0.931 . S
H36 C25 0.930 . S
H37 C26 0.930 . S
H38 C27 0.930 . S
H39 C28 0.931 . S
Eu40 C49 2.828 . S
Eu40 O51 2.392 1_565 S
Eu40 O53 2.418 . S
Eu40 O58 2.373 . S
Eu40 O61 2.488 . S
Eu40 O62 2.471 . S
Eu40 O63 2.329 1_565 S
Eu41 O50 2.373 . S
Eu41 O54 2.488 . S
Eu41 O55 2.471 . S
Eu41 O56 2.349 . S
Eu41 O59 2.392 1_545 S
Eu41 O60 2.418 . S
Eu41 C70 2.828 . S
C42 O60 1.244 . S
C42 O63 1.285 . S
C43 C44 1.379 . S
C43 C47 1.373 . S
C43 C49 1.505 . S
C44 C43 1.379 . S
C44 C46 1.369 . S
C44 H72 0.930 . S
C45 C47 1.383 . S
C45 C48 1.382 . S
C45 H73 0.930 . S
C46 C44 1.369 . S
C46 C48 1.392 . S
C46 H74 0.930 . S
C47 C43 1.373 . S
C47 C45 1.383 . S
C47 H75 0.931 . S
C48 C45 1.382 . S
C48 C46 1.392 . S
C49 Eu40 2.828 . S
C49 C43 1.505 . S
C49 O61 1.249 . S
C49 O62 1.244 . S
O50 Eu41 2.373 . S
O50 C52 1.258 . S
O51 Eu40 2.392 1_545 S
O51 C52 1.242 . S
C52 O50 1.258 . S
C52 O51 1.242 . S
O53 Eu40 2.418 . S
O53 C57 1.244 1_565 S
O54 Eu41 2.488 . S
O54 C70 1.249 . S
O55 Eu41 2.471 . S
O55 C70 1.244 . S
O56 Eu41 2.349 . S
O56 C57 1.265 . S
C57 O53 1.244 1_545 S
C57 O56 1.265 . S
O58 Eu40 2.373 . S
O58 C71 1.258 . S
O59 Eu41 2.392 1_565 S
O59 C71 1.242 . S
O60 Eu41 2.418 . S
O60 C42 1.244 . S
O61 Eu40 2.488 . S
O61 C49 1.249 . S
O62 Eu40 2.471 . S
O62 C49 1.244 . S
O63 Eu40 2.329 1_545 S
O63 C42 1.285 . S
C64 C65 1.379 . S
C64 C68 1.373 . S
C64 C70 1.505 . S
C65 C64 1.379 . S
C65 C67 1.369 . S
C65 H76 0.930 . S
C66 C68 1.383 . S
C66 C69 1.382 . S
C66 H77 0.930 . S
C67 C65 1.369 . S
C67 C69 1.392 . S
C67 H78 0.930 . S
C68 C64 1.373 . S
C68 C66 1.383 . S
C68 H79 0.931 . S
C69 C66 1.382 . S
C69 C67 1.392 . S
C70 Eu41 2.828 . S
C70 O54 1.249 . S
C70 O55 1.244 . S
C70 C64 1.505 . S
C71 O58 1.258 . S
C71 O59 1.242 . S
H72 C44 0.930 . S
H73 C45 0.930 . S
H74 C46 0.930 . S
H75 C47 0.931 . S
H76 C65 0.930 . S
H77 C66 0.930 . S
H78 C67 0.930 . S
H79 C68 0.931 . S
Eu80 C89 2.828 . S
Eu80 O91 2.392 . S
Eu80 O93 2.418 . S
Eu80 O98 2.373 . S
Eu80 O101 2.488 . S
Eu80 O102 2.471 . S
Eu80 O103 2.349 . S
Eu81 O90 2.373 . S
Eu81 O94 2.488 . S
Eu81 O95 2.471 . S
Eu81 O96 2.349 . S
Eu81 O99 2.392 . S
Eu81 O100 2.418 . S
Eu81 C110 2.828 . S
C82 O100 1.244 . S
C82 O103 1.265 . S
C83 C84 1.379 . S
C83 C87 1.373 . S
C83 C89 1.505 . S
C84 C83 1.379 . S
C84 C86 1.369 . S
C84 H112 0.930 . S
C85 C87 1.383 . S
C85 C88 1.382 . S
C85 H113 0.930 . S
C86 C84 1.369 . S
C86 C88 1.392 . S
C86 H114 0.930 . S
C87 C83 1.373 . S
C87 C85 1.383 . S
C87 H115 0.931 . S
C88 C85 1.382 . S
C88 C86 1.392 . S
C89 Eu80 2.828 . S
C89 C83 1.505 . S
C89 O101 1.249 . S
C89 O102 1.244 . S
O90 Eu81 2.373 . S
O90 C92 1.258 . S
O91 Eu80 2.392 . S
O91 C92 1.242 . S
C92 O90 1.258 . S
C92 O91 1.242 . S
O93 Eu80 2.418 . S
O93 C97 1.244 . S
O94 Eu81 2.488 . S
O94 C110 1.249 . S
O95 Eu81 2.471 . S
O95 C110 1.244 . S
O96 Eu81 2.349 . S
O96 C97 1.265 . S
C97 O93 1.244 . S
C97 O96 1.265 . S
O98 Eu80 2.373 . S
O98 C111 1.258 . S
O99 Eu81 2.392 . S
O99 C111 1.242 . S
O100 Eu81 2.418 . S
O100 C82 1.244 . S
O101 Eu80 2.488 . S
O101 C89 1.249 . S
O102 Eu80 2.471 . S
O102 C89 1.244 . S
O103 Eu80 2.349 . S
O103 C82 1.265 . S
C104 C105 1.379 . S
C104 C108 1.373 . S
C104 C110 1.505 . S
C105 C104 1.379 . S
C105 C107 1.369 . S
C105 H116 0.930 . S
C106 C108 1.383 . S
C106 C109 1.382 . S
C106 H117 0.930 . S
C107 C105 1.369 . S
C107 C109 1.392 . S
C107 H118 0.930 . S
C108 C104 1.373 . S
C108 C106 1.383 . S
C108 H119 0.931 . S
C109 C106 1.382 . S
C109 C107 1.392 . S
C110 Eu81 2.828 . S
C110 O94 1.249 . S
C110 O95 1.244 . S
C110 C104 1.505 . S
C111 O98 1.258 . S
C111 O99 1.242 . S
H112 C84 0.930 . S
H113 C85 0.930 . S
H114 C86 0.930 . S
H115 C87 0.931 . S
H116 C105 0.930 . S
H117 C106 0.930 . S
H118 C107 0.930 . S
H119 C108 0.931 . S
C120 C121 1.391 . S
C120 C124 1.391 . S
C120 H162 0.948 . S
C121 C120 1.391 . S
C121 C122 1.391 . S
C122 C121 1.391 . S
C122 H178 0.947 . S
C122 C179 1.392 . S
C123 C124 1.391 . S
C123 C127 1.397 . S
C123 C179 1.419 . S
C124 C120 1.391 . S
C124 C123 1.391 . S
C124 C125 1.399 . S
C125 C124 1.399 . S
C125 C128 1.396 . S
C125 C137 1.453 . S
C125 C138 1.684 . S
H126 C150 0.948 . S
C127 C123 1.397 . S
C127 C128 1.394 . S
C127 C146 1.723 . S
C128 C125 1.396 . S
C128 C127 1.394 . S
C128 C158 1.723 . S
H129 C152 0.947 . S
H130 C153 0.948 . S
H131 C159 0.982 . S
H132 C160 0.979 . S
H133 C160 0.980 . S
H134 C160 0.983 . S
H135 C159 0.979 . S
H136 C159 0.977 . S
C137 C125 1.453 . S
C137 H166 0.982 . S
C137 H167 0.979 . S
C137 H168 0.977 . S
C138 C125 1.684 . S
C138 H163 0.979 . S
C138 H164 0.980 . S
C138 H165 0.983 . S
C139 C140 1.391 . S
C139 C144 1.391 . S
C139 H169 0.948 . S
C140 C139 1.391 . S
C140 C141 1.391 1_545 S
C141 C140 1.391 1_565 S
C141 C142 1.392 . S
C141 H170 0.947 . S
C142 C141 1.392 . S
C142 C143 1.419 1_565 S
C142 H171 0.948 . S
C143 C142 1.419 1_545 S
C143 C144 1.391 . S
C143 C147 1.397 . S
C144 C139 1.391 . S
C144 C143 1.391 . S
C144 C145 1.399 . S
C145 C144 1.399 . S
C145 C146 1.396 . S
C145 C148 1.453 . S
C145 C149 1.684 . S
C146 C127 1.723 . S
C146 C145 1.396 . S
C146 C147 1.394 . S
C147 C143 1.397 . S
C147 C146 1.394 . S
C147 C157 1.723 1_545 S
C148 C145 1.453 . S
C148 H172 0.982 . S
C148 H173 0.979 . S
C148 H174 0.977 . S
C149 C145 1.684 . S
C149 H175 0.979 . S
C149 H176 0.980 . S
C149 H177 0.983 . S
C150 H126 0.948 . S
C150 C151 1.391 . S
C150 C155 1.391 . S
C151 C150 1.391 . S
C151 C152 1.391 . S
C152 H129 0.947 . S
C152 C151 1.391 . S
C152 C153 1.392 . S
C153 H130 0.948 . S
C153 C152 1.392 . S
C153 C154 1.419 . S
C154 C153 1.419 . S
C154 C155 1.391 . S
C154 C158 1.397 1_565 S
C155 C150 1.391 . S
C155 C154 1.391 . S
C155 C156 1.399 . S
C156 C155 1.399 . S
C156 C157 1.396 . S
C156 C159 1.453 . S
C156 C160 1.684 . S
C157 C147 1.723 1_565 S
C157 C156 1.396 . S
C157 C158 1.394 1_565 S
C158 C128 1.723 . S
C158 C154 1.397 1_545 S
C158 C157 1.394 1_545 S
C159 H131 0.982 . S
C159 H135 0.979 . S
C159 H136 0.977 . S
C159 C156 1.453 . S
C160 H132 0.979 . S
C160 H133 0.980 . S
C160 H134 0.983 . S
C160 C156 1.684 . S
H161 C179 0.948 . S
H162 C120 0.948 . S
H163 C138 0.979 . S
H164 C138 0.980 . S
H165 C138 0.983 . S
H166 C137 0.982 . S
H167 C137 0.979 . S
H168 C137 0.977 . S
H169 C139 0.948 . S
H170 C141 0.947 . S
H171 C142 0.948 . S
H172 C148 0.982 . S
H173 C148 0.979 . S
H174 C148 0.977 . S
H175 C149 0.979 . S
H176 C149 0.980 . S
H177 C149 0.983 . S
H178 C122 0.947 . S
C179 C122 1.392 . S
C179 C123 1.419 . S
C179 H161 0.948 . S
C180 C181 1.391 . S
C180 C184 1.391 . S
C180 H222 0.948 . S
C181 C180 1.391 . S
C181 C182 1.391 . S
C182 C181 1.391 . S
C182 H238 0.947 . S
C182 C239 1.392 . S
C183 C184 1.391 . S
C183 C187 1.397 . S
C183 C239 1.419 . S
C184 C180 1.391 . S
C184 C183 1.391 . S
C184 C185 1.399 . S
C185 C184 1.399 . S
C185 C188 1.396 . S
C185 C197 1.453 . S
C185 C198 1.684 . S
H186 C210 0.948 . S
C187 C183 1.397 . S
C187 C188 1.394 . S
C187 C206 1.723 . S
C188 C185 1.396 . S
C188 C187 1.394 . S
C188 C218 1.723 . S
H189 C212 0.947 . S
H190 C213 0.948 . S
H191 C219 0.982 . S
H192 C220 0.979 . S
H193 C220 0.980 . S
H194 C220 0.983 . S
H195 C219 0.979 . S
H196 C219 0.977 . S
C197 C185 1.453 . S
C197 H226 0.982 . S
C197 H227 0.979 . S
C197 H228 0.977 . S
C198 C185 1.684 . S
C198 H223 0.979 . S
C198 H224 0.980 . S
C198 H225 0.983 . S
C199 C200 1.391 . S
C199 C204 1.391 . S
C199 H229 0.948 . S
C200 C199 1.391 . S
C200 C201 1.391 . S
C201 C200 1.391 . S
C201 C202 1.392 . S
C201 H230 0.947 . S
C202 C201 1.392 . S
C202 C203 1.419 . S
C202 H231 0.948 . S
C203 C202 1.419 . S
C203 C204 1.391 . S
C203 C207 1.397 . S
C204 C199 1.391 . S
C204 C203 1.391 . S
C204 C205 1.399 . S
C205 C204 1.399 . S
C205 C206 1.396 . S
C205 C208 1.453 . S
C205 C209 1.684 . S
C206 C187 1.723 . S
C206 C205 1.396 . S
C206 C207 1.394 . S
C207 C203 1.397 . S
C207 C206 1.394 . S
C207 C217 1.723 . S
C208 C205 1.453 . S
C208 H232 0.982 . S
C208 H233 0.979 . S
C208 H234 0.977 . S
C209 C205 1.684 . S
C209 H235 0.979 . S
C209 H236 0.980 . S
C209 H237 0.983 . S
C210 H186 0.948 . S
C210 C211 1.391 . S
C210 C215 1.391 . S
C211 C210 1.391 . S
C211 C212 1.391 . S
C212 H189 0.947 . S
C212 C211 1.391 . S
C212 C213 1.392 . S
C213 H190 0.948 . S
C213 C212 1.392 . S
C213 C214 1.419 . S
C214 C213 1.419 . S
C214 C215 1.391 . S
C214 C218 1.397 . S
C215 C210 1.391 . S
C215 C214 1.391 . S
C215 C216 1.399 . S
C216 C215 1.399 . S
C216 C217 1.396 . S
C216 C219 1.453 . S
C216 C220 1.684 . S
C217 C207 1.723 . S
C217 C216 1.396 . S
C217 C218 1.394 . S
C218 C188 1.723 . S
C218 C214 1.397 . S
C218 C217 1.394 . S
C219 H191 0.982 . S
C219 H195 0.979 . S
C219 H196 0.977 . S
C219 C216 1.453 . S
C220 H192 0.979 . S
C220 H193 0.980 . S
C220 H194 0.983 . S
C220 C216 1.684 . S
H221 C239 0.948 . S
H222 C180 0.948 . S
H223 C198 0.979 . S
H224 C198 0.980 . S
H225 C198 0.983 . S
H226 C197 0.982 . S
H227 C197 0.979 . S
H228 C197 0.977 . S
H229 C199 0.948 . S
H230 C201 0.947 . S
H231 C202 0.948 . S
H232 C208 0.982 . S
H233 C208 0.979 . S
H234 C208 0.977 . S
H235 C209 0.979 . S
H236 C209 0.980 . S
H237 C209 0.983 . S
H238 C182 0.947 . S
C239 C182 1.392 . S
C239 C183 1.419 . S
C239 H221 0.948 . S
C240 C241 1.391 . S
C240 C244 1.391 . S
C240 H282 0.948 . S
C241 C240 1.391 . S
C241 C242 1.391 . S
C242 C241 1.391 . S
C242 H298 0.947 . S
C242 C299 1.392 . S
C243 C244 1.391 . S
C243 C247 1.397 . S
C243 C299 1.419 . S
C244 C240 1.391 . S
C244 C243 1.391 . S
C244 C245 1.399 . S
C245 C244 1.399 . S
C245 C248 1.396 . S
C245 C257 1.453 . S
C245 C258 1.684 . S
H246 C270 0.948 . S
C247 C243 1.397 . S
C247 C248 1.394 . S
C247 C266 1.723 . S
C248 C245 1.396 . S
C248 C247 1.394 . S
C248 C278 1.723 . S
H249 C272 0.947 . S
H250 C273 0.948 1_455 S
H251 C279 0.982 . S
H252 C280 0.979 . S
H253 C280 0.980 . S
H254 C280 0.983 . S
H255 C279 0.979 . S
H256 C279 0.977 . S
C257 C245 1.453 . S
C257 H286 0.982 . S
C257 H287 0.979 . S
C257 H288 0.977 . S
C258 C245 1.684 . S
C258 H283 0.979 . S
C258 H284 0.980 . S
C258 H285 0.983 . S
C259 C260 1.391 . S
C259 C264 1.391 . S
C259 H289 0.948 . S
C260 C259 1.391 . S
C260 C261 1.391 . S
C261 C260 1.391 . S
C261 C262 1.392 . S
C261 H290 0.947 1_455 S
C262 C261 1.392 . S
C262 C263 1.419 . S
C262 H291 0.948 1_455 S
C263 C262 1.419 . S
C263 C264 1.391 . S
C263 C267 1.397 . S
C264 C259 1.391 . S
C264 C263 1.391 . S
C264 C265 1.399 . S
C265 C264 1.399 . S
C265 C266 1.396 . S
C265 C268 1.453 . S
C265 C269 1.684 . S
C266 C247 1.723 . S
C266 C265 1.396 . S
C266 C267 1.394 . S
C267 C263 1.397 . S
C267 C266 1.394 . S
C267 C277 1.723 . S
C268 C265 1.453 . S
C268 H292 0.982 . S
C268 H293 0.979 . S
C268 H294 0.977 . S
C269 C265 1.684 . S
C269 H295 0.979 . S
C269 H296 0.980 . S
C269 H297 0.983 . S
C270 H246 0.948 . S
C270 C271 1.391 . S
C270 C275 1.391 . S
C271 C270 1.391 . S
C271 C272 1.391 . S
C272 H249 0.947 . S
C272 C271 1.391 . S
C272 C273 1.392 . S
C273 H250 0.948 1_655 S
C273 C272 1.392 . S
C273 C274 1.419 . S
C274 C273 1.419 . S
C274 C275 1.391 . S
C274 C278 1.397 1_655 S
C275 C270 1.391 . S
C275 C274 1.391 . S
C275 C276 1.399 . S
C276 C275 1.399 . S
C276 C277 1.396 1_655 S
C276 C279 1.453 . S
C276 C280 1.684 . S
C277 C267 1.723 . S
C277 C276 1.396 1_455 S
C277 C278 1.394 . S
C278 C248 1.723 . S
C278 C274 1.397 1_455 S
C278 C277 1.394 . S
C279 H251 0.982 . S
C279 H255 0.979 . S
C279 H256 0.977 . S
C279 C276 1.453 . S
C280 H252 0.979 . S
C280 H253 0.980 . S
C280 H254 0.983 . S
C280 C276 1.684 . S
H281 C299 0.948 . S
H282 C240 0.948 . S
H283 C258 0.979 . S
H284 C258 0.980 . S
H285 C258 0.983 . S
H286 C257 0.982 . S
H287 C257 0.979 . S
H288 C257 0.977 . S
H289 C259 0.948 . S
H290 C261 0.947 1_655 S
H291 C262 0.948 1_655 S
H292 C268 0.982 . S
H293 C268 0.979 . S
H294 C268 0.977 . S
H295 C269 0.979 . S
H296 C269 0.980 . S
H297 C269 0.983 . S
H298 C242 0.947 . S
C299 C242 1.392 . S
C299 C243 1.419 . S
C299 H281 0.948 . S
C300 C301 1.391 . S
C300 C304 1.391 . S
C300 H342 0.948 . S
C301 C300 1.391 . S
C301 C302 1.391 . S
C302 C301 1.391 . S
C302 H358 0.947 . S
C302 C359 1.392 . S
C303 C304 1.391 . S
C303 C307 1.397 . S
C303 C359 1.419 . S
C304 C300 1.391 . S
C304 C303 1.391 . S
C304 C305 1.399 1_655 S
C305 C304 1.399 1_455 S
C305 C308 1.396 . S
C305 C317 1.453 . S
C305 C318 1.684 . S
H306 C330 0.948 . S
C307 C303 1.397 . S
C307 C308 1.394 1_655 S
C307 C326 1.723 1_655 S
C308 C305 1.396 . S
C308 C307 1.394 1_455 S
C308 C338 1.723 . S
H309 C332 0.947 . S
H310 C333 0.948 . S
H311 C339 0.982 . S
H312 C340 0.979 . S
H313 C340 0.980 . S
H314 C340 0.983 . S
H315 C339 0.979 . S
H316 C339 0.977 . S
C317 C305 1.453 . S
C317 H346 0.982 . S
C317 H347 0.979 . S
C317 H348 0.977 . S
C318 C305 1.684 . S
C318 H343 0.979 1_455 S
C318 H344 0.980 . S
C318 H345 0.983 1_455 S
C319 C320 1.391 1_655 S
C319 C324 1.393 . S
C319 H349 0.948 . S
C320 C319 1.391 1_455 S
C320 C321 1.391 . S
C321 C320 1.391 . S
C321 C322 1.392 . S
C321 H350 0.947 . S
C322 C321 1.392 . S
C322 C323 1.419 . S
C322 H351 0.948 . S
C323 C322 1.419 . S
C323 C324 1.380 1_455 S
C323 C327 1.397 . S
C324 C319 1.393 . S
C324 C323 1.380 1_655 S
C324 C325 1.405 . S
C325 C324 1.405 . S
C325 C326 1.398 1_655 S
C325 C328 1.453 . S
C325 C329 1.684 . S
C326 C307 1.723 1_455 S
C326 C325 1.398 1_455 S
C326 C327 1.392 . S
C327 C323 1.397 . S
C327 C326 1.392 . S
C327 C337 1.723 . S
C328 C325 1.453 . S
C328 H352 0.982 . S
C328 H353 0.979 . S
C328 H354 0.977 . S
C329 C325 1.684 . S
C329 H355 0.979 . S
C329 H356 0.980 . S
C329 H357 0.983 . S
C330 H306 0.948 . S
C330 C331 1.391 . S
C330 C335 1.391 . S
C331 C330 1.391 . S
C331 C332 1.391 . S
C332 H309 0.947 . S
C332 C331 1.391 . S
C332 C333 1.392 . S
C333 H310 0.948 . S
C333 C332 1.392 . S
C333 C334 1.419 . S
C334 C333 1.419 . S
C334 C335 1.391 . S
C334 C338 1.397 . S
C335 C330 1.391 . S
C335 C334 1.391 . S
C335 C336 1.399 . S
C336 C335 1.399 . S
C336 C337 1.396 . S
C336 C339 1.453 . S
C336 C340 1.684 . S
C337 C327 1.723 . S
C337 C336 1.396 . S
C337 C338 1.394 . S
C338 C308 1.723 . S
C338 C334 1.397 . S
C338 C337 1.394 . S
C339 H311 0.982 . S
C339 H315 0.979 . S
C339 H316 0.977 . S
C339 C336 1.453 . S
C340 H312 0.979 . S
C340 H313 0.980 . S
C340 H314 0.983 . S
C340 C336 1.684 . S
H341 C359 0.948 . S
H342 C300 0.948 . S
H343 C318 0.979 1_655 S
H344 C318 0.980 . S
H345 C318 0.983 1_655 S
H346 C317 0.982 . S
H347 C317 0.979 . S
H348 C317 0.977 . S
H349 C319 0.948 . S
H350 C321 0.947 . S
H351 C322 0.948 . S
H352 C328 0.982 . S
H353 C328 0.979 . S
H354 C328 0.977 . S
H355 C329 0.979 . S
H356 C329 0.980 . S
H357 C329 0.983 . S
H358 C302 0.947 . S
C359 C302 1.392 . S
C359 C303 1.419 . S
C359 H341 0.948 . S
C360 C361 1.391 . S
C360 C364 1.391 . S
C360 H402 0.948 . S
C361 C360 1.391 . S
C361 C362 1.391 . S
C362 C361 1.391 . S
C362 H418 0.947 . S
C362 C419 1.392 . S
C363 C364 1.391 . S
C363 C367 1.397 . S
C363 C419 1.419 . S
C364 C360 1.391 . S
C364 C363 1.391 . S
C364 C365 1.399 . S
C365 C364 1.399 . S
C365 C368 1.396 1_565 S
C365 C377 1.453 1_565 S
C365 C378 1.684 . S
H366 C390 0.948 . S
C367 C363 1.397 . S
C367 C368 1.394 1_565 S
C367 C386 1.723 . S
C368 C365 1.396 1_545 S
C368 C367 1.394 1_545 S
C368 C398 1.723 . S
H369 C392 0.947 . S
H370 C393 0.948 . S
H371 C399 0.982 . S
H372 C400 0.979 . S
H373 C400 0.980 . S
H374 C400 0.983 . S
H375 C399 0.979 . S
H376 C399 0.977 . S
C377 C365 1.453 1_545 S
C377 H406 0.982 . S
C377 H407 0.979 . S
C377 H408 0.977 . S
C378 C365 1.684 . S
C378 H403 0.979 . S
C378 H404 0.980 1_565 S
C378 H405 0.983 . S
C379 C380 1.391 1_565 S
C379 C384 1.391 . S
C379 H409 0.948 . S
C380 C379 1.391 1_545 S
C380 C381 1.391 . S
C381 C380 1.391 . S
C381 C382 1.392 . S
C381 H410 0.947 . S
C382 C381 1.392 . S
C382 C383 1.419 . S
C382 H411 0.948 . S
C383 C382 1.419 . S
C383 C384 1.391 1_545 S
C383 C387 1.397 . S
C384 C379 1.391 . S
C384 C383 1.391 1_565 S
C384 C385 1.399 . S
C385 C384 1.399 . S
C385 C386 1.396 . S
C385 C388 1.453 . S
C385 C389 1.684 . S
C386 C367 1.723 . S
C386 C385 1.396 . S
C386 C387 1.394 1_565 S
C387 C383 1.397 . S
C387 C386 1.394 1_545 S
C387 C397 1.723 . S
C388 C385 1.453 . S
C388 H412 0.982 . S
C388 H413 0.979 . S
C388 H414 0.977 . S
C389 C385 1.684 . S
C389 H415 0.979 . S
C389 H416 0.980 . S
C389 H417 0.983 . S
C390 H366 0.948 . S
C390 C391 1.391 . S
C390 C395 1.391 . S
C391 C390 1.391 . S
C391 C392 1.391 . S
C392 H369 0.947 . S
C392 C391 1.391 . S
C392 C393 1.392 . S
C393 H370 0.948 . S
C393 C392 1.392 . S
C393 C394 1.419 . S
C394 C393 1.419 . S
C394 C395 1.391 . S
C394 C398 1.397 . S
C395 C390 1.391 . S
C395 C394 1.391 . S
C395 C396 1.399 . S
C396 C395 1.399 . S
C396 C397 1.396 . S
C396 C399 1.453 . S
C396 C400 1.684 . S
C397 C387 1.723 . S
C397 C396 1.396 . S
C397 C398 1.394 . S
C398 C368 1.723 . S
C398 C394 1.397 . S
C398 C397 1.394 . S
C399 H371 0.982 . S
C399 H375 0.979 . S
C399 H376 0.977 . S
C399 C396 1.453 . S
C400 H372 0.979 . S
C400 H373 0.980 . S
C400 H374 0.983 . S
C400 C396 1.684 . S
H401 C419 0.948 . S
H402 C360 0.948 . S
H403 C378 0.979 . S
H404 C378 0.980 1_545 S
H405 C378 0.983 . S
H406 C377 0.982 . S
H407 C377 0.979 . S
H408 C377 0.977 . S
H409 C379 0.948 . S
H410 C381 0.947 . S
H411 C382 0.948 . S
H412 C388 0.982 . S
H413 C388 0.979 . S
H414 C388 0.977 . S
H415 C389 0.979 . S
H416 C389 0.980 . S
H417 C389 0.983 . S
H418 C362 0.947 . S
C419 C362 1.392 . S
C419 C363 1.419 . S
C419 H401 0.948 . S
C420 C421 1.391 . S
C420 C424 1.391 . S
C420 H462 0.948 . S
C421 C420 1.391 . S
C421 C422 1.391 . S
C422 C421 1.391 . S
C422 H478 0.947 . S
C422 C479 1.392 . S
C423 C424 1.391 . S
C423 C427 1.397 . S
C423 C479 1.419 . S
C424 C420 1.391 . S
C424 C423 1.391 . S
C424 C425 1.399 . S
C425 C424 1.399 . S
C425 C428 1.396 . S
C425 C437 1.453 . S
C425 C438 1.684 . S
H426 C450 0.948 . S
C427 C423 1.397 . S
C427 C428 1.394 . S
C427 C446 1.723 . S
C428 C425 1.396 . S
C428 C427 1.394 . S
C428 C458 1.723 . S
H429 C452 0.947 . S
H430 C453 0.948 . S
H431 C459 0.982 . S
H432 C460 0.979 . S
H433 C460 0.980 . S
H434 C460 0.983 . S
H435 C459 0.979 . S
H436 C459 0.977 . S
C437 C425 1.453 . S
C437 H466 0.982 . S
C437 H467 0.979 . S
C437 H468 0.977 . S
C438 C425 1.684 . S
C438 H463 0.979 . S
C438 H464 0.980 . S
C438 H465 0.983 . S
C439 C440 1.391 . S
C439 C444 1.391 . S
C439 H469 0.948 . S
C440 C439 1.391 . S
C440 C441 1.391 . S
C441 C440 1.391 . S
C441 C442 1.392 . S
C441 H470 0.947 . S
C442 C441 1.392 . S
C442 C443 1.419 . S
C442 H471 0.948 . S
C443 C442 1.419 . S
C443 C444 1.391 . S
C443 C447 1.397 . S
C444 C439 1.391 . S
C444 C443 1.391 . S
C444 C445 1.399 . S
C445 C444 1.399 . S
C445 C446 1.396 . S
C445 C448 1.453 . S
C445 C449 1.684 . S
C446 C427 1.723 . S
C446 C445 1.396 . S
C446 C447 1.394 . S
C447 C443 1.397 . S
C447 C446 1.394 . S
C447 C457 1.723 . S
C448 C445 1.453 . S
C448 H472 0.982 . S
C448 H473 0.979 . S
C448 H474 0.977 . S
C449 C445 1.684 . S
C449 H475 0.979 . S
C449 H476 0.980 . S
C449 H477 0.983 . S
C450 H426 0.948 . S
C450 C451 1.391 . S
C450 C455 1.391 . S
C451 C450 1.391 . S
C451 C452 1.391 . S
C452 H429 0.947 . S
C452 C451 1.391 . S
C452 C453 1.392 . S
C453 H430 0.948 . S
C453 C452 1.392 . S
C453 C454 1.419 . S
C454 C453 1.419 . S
C454 C455 1.391 . S
C454 C458 1.397 . S
C455 C450 1.391 . S
C455 C454 1.391 . S
C455 C456 1.399 . S
C456 C455 1.399 . S
C456 C457 1.396 . S
C456 C459 1.453 . S
C456 C460 1.684 . S
C457 C447 1.723 . S
C457 C456 1.396 . S
C457 C458 1.394 . S
C458 C428 1.723 . S
C458 C454 1.397 . S
C458 C457 1.394 . S
C459 H431 0.982 . S
C459 H435 0.979 . S
C459 H436 0.977 . S
C459 C456 1.453 . S
C460 H432 0.979 . S
C460 H433 0.980 . S
C460 H434 0.983 . S
C460 C456 1.684 . S
H461 C479 0.948 . S
H462 C420 0.948 . S
H463 C438 0.979 . S
H464 C438 0.980 . S
H465 C438 0.983 . S
H466 C437 0.982 . S
H467 C437 0.979 . S
H468 C437 0.977 . S
H469 C439 0.948 . S
H470 C441 0.947 . S
H471 C442 0.948 . S
H472 C448 0.982 . S
H473 C448 0.979 . S
H474 C448 0.977 . S
H475 C449 0.979 . S
H476 C449 0.980 . S
H477 C449 0.983 . S
H478 C422 0.947 . S
C479 C422 1.392 . S
C479 C423 1.419 . S
C479 H461 0.948 . S
C480 C481 1.349 . S
C480 C482 1.327 . S
C480 H505 0.950 . S
C481 C480 1.349 . S
C481 C497 1.349 . S
C482 C480 1.327 . S
C482 C501 1.429 . S
C482 H506 0.950 . S
C483 C500 1.574 . S
C483 C502 1.368 . S
C483 H507 0.949 . S
H484 C488 0.949 . S
C485 C486 1.349 . S
C485 C487 1.327 . S
C485 H508 0.950 . S
C486 C485 1.349 . S
C486 C498 1.349 . S
C487 C485 1.327 . S
C487 C503 1.429 . S
C487 H509 0.950 . S
C488 H484 0.949 . S
C488 C496 1.574 . S
C488 C504 1.368 . S
H489 C497 0.950 . S
H490 C495 0.950 . S
H491 C496 0.949 . S
H492 C498 0.950 . S
H493 C499 0.950 . S
H494 C500 0.949 . S
C495 H490 0.950 . S
C495 C497 1.327 . S
C495 C501 1.429 . S
C496 C488 1.574 . S
C496 H491 0.949 . S
C496 C502 1.368 . S
C497 C481 1.349 . S
C497 H489 0.950 . S
C497 C495 1.327 . S
C498 C486 1.349 . S
C498 H492 0.950 . S
C498 C499 1.327 . S
C499 H493 0.950 . S
C499 C498 1.327 . S
C499 C503 1.429 . S
C500 C483 1.574 . S
C500 H494 0.949 . S
C500 C504 1.368 . S
C501 C482 1.429 . S
C501 C495 1.429 . S
C501 C502 1.523 . S
C502 C483 1.368 . S
C502 C496 1.368 . S
C502 C501 1.523 . S
C503 C487 1.429 . S
C503 C499 1.429 . S
C503 C504 1.523 . S
C504 C488 1.368 . S
C504 C500 1.368 . S
C504 C503 1.523 . S
H505 C480 0.950 . S
H506 C482 0.950 . S
H507 C483 0.949 . S
H508 C485 0.950 . S
H509 C487 0.950 . S
C510 C511 1.349 . S
C510 C512 1.327 . S
C510 H535 0.950 . S
C511 C510 1.349 . S
C511 C527 1.349 . S
C512 C510 1.327 . S
C512 C531 1.429 . S
C512 H536 0.950 . S
C513 C530 1.574 . S
C513 C532 1.368 . S
C513 H537 0.949 . S
H514 C518 0.949 . S
C515 C516 1.349 . S
C515 C517 1.327 . S
C515 H538 0.950 . S
C516 C515 1.349 . S
C516 C528 1.349 . S
C517 C515 1.327 . S
C517 C533 1.429 . S
C517 H539 0.950 . S
C518 H514 0.949 . S
C518 C526 1.574 . S
C518 C534 1.368 . S
H519 C527 0.950 . S
H520 C525 0.950 . S
H521 C526 0.949 . S
H522 C528 0.950 . S
H523 C529 0.950 . S
H524 C530 0.949 . S
C525 H520 0.950 . S
C525 C527 1.327 . S
C525 C531 1.429 . S
C526 C518 1.574 . S
C526 H521 0.949 . S
C526 C532 1.368 . S
C527 C511 1.349 . S
C527 H519 0.950 . S
C527 C525 1.327 . S
C528 C516 1.349 . S
C528 H522 0.950 . S
C528 C529 1.327 . S
C529 H523 0.950 . S
C529 C528 1.327 . S
C529 C533 1.429 . S
C530 C513 1.574 . S
C530 H524 0.949 . S
C530 C534 1.368 . S
C531 C512 1.429 . S
C531 C525 1.429 . S
C531 C532 1.523 . S
C532 C513 1.368 . S
C532 C526 1.368 . S
C532 C531 1.523 . S
C533 C517 1.429 . S
C533 C529 1.429 . S
C533 C534 1.523 . S
C534 C518 1.368 . S
C534 C530 1.368 . S
C534 C533 1.523 . S
H535 C510 0.950 . S
H536 C512 0.950 . S
H537 C513 0.949 . S
H538 C515 0.950 . S
H539 C517 0.950 . S
C540 C541 1.349 . S
C540 C542 1.327 . S
C540 H565 0.950 . S
C541 C540 1.349 . S
C541 C557 1.349 . S
C542 C540 1.327 . S
C542 C561 1.429 . S
C542 H566 0.950 . S
C543 C560 1.574 . S
C543 C562 1.368 . S
C543 H567 0.949 . S
H544 C548 0.949 . S
C545 C546 1.349 . S
C545 C547 1.327 . S
C545 H568 0.950 . S
C546 C545 1.349 . S
C546 C558 1.349 . S
C547 C545 1.327 . S
C547 C563 1.429 . S
C547 H569 0.950 . S
C548 H544 0.949 . S
C548 C556 1.574 . S
C548 C564 1.368 . S
H549 C557 0.950 . S
H550 C555 0.950 . S
H551 C556 0.949 . S
H552 C558 0.950 . S
H553 C559 0.950 . S
H554 C560 0.949 . S
C555 H550 0.950 . S
C555 C557 1.327 . S
C555 C561 1.429 . S
C556 C548 1.574 . S
C556 H551 0.949 . S
C556 C562 1.368 . S
C557 C541 1.349 . S
C557 H549 0.950 . S
C557 C555 1.327 . S
C558 C546 1.349 . S
C558 H552 0.950 . S
C558 C559 1.327 . S
C559 H553 0.950 . S
C559 C558 1.327 . S
C559 C563 1.429 . S
C560 C543 1.574 . S
C560 H554 0.949 . S
C560 C564 1.368 . S
C561 C542 1.429 . S
C561 C555 1.429 . S
C561 C562 1.523 . S
C562 C543 1.368 . S
C562 C556 1.368 . S
C562 C561 1.523 . S
C563 C547 1.429 . S
C563 C559 1.429 . S
C563 C564 1.523 . S
C564 C548 1.368 . S
C564 C560 1.368 . S
C564 C563 1.523 . S
H565 C540 0.950 . S
H566 C542 0.950 . S
H567 C543 0.949 . S
H568 C545 0.950 . S
H569 C547 0.950 . S
C570 C571 1.349 . S
C570 C572 1.327 . S
C570 H595 0.950 . S
C571 C570 1.349 . S
C571 C587 1.349 . S
C572 C570 1.327 . S
C572 C591 1.429 . S
C572 H596 0.950 . S
C573 C590 1.574 . S
C573 C592 1.368 . S
C573 H597 0.949 . S
H574 C578 0.949 . S
C575 C576 1.349 . S
C575 C577 1.327 . S
C575 H598 0.950 . S
C576 C575 1.349 . S
C576 C588 1.349 . S
C577 C575 1.327 . S
C577 C593 1.429 . S
C577 H599 0.950 . S
C578 H574 0.949 . S
C578 C586 1.574 . S
C578 C594 1.368 . S
H579 C587 0.950 . S
H580 C585 0.950 . S
H581 C586 0.949 . S
H582 C588 0.950 . S
H583 C589 0.950 . S
H584 C590 0.949 . S
C585 H580 0.950 . S
C585 C587 1.327 . S
C585 C591 1.429 . S
C586 C578 1.574 . S
C586 H581 0.949 . S
C586 C592 1.368 . S
C587 C571 1.349 . S
C587 H579 0.950 . S
C587 C585 1.327 . S
C588 C576 1.349 . S
C588 H582 0.950 . S
C588 C589 1.327 . S
C589 H583 0.950 . S
C589 C588 1.327 . S
C589 C593 1.429 . S
C590 C573 1.574 . S
C590 H584 0.949 . S
C590 C594 1.368 . S
C591 C572 1.429 . S
C591 C585 1.429 . S
C591 C592 1.523 . S
C592 C573 1.368 . S
C592 C586 1.368 . S
C592 C591 1.523 . S
C593 C577 1.429 . S
C593 C589 1.429 . S
C593 C594 1.523 . S
C594 C578 1.368 . S
C594 C590 1.368 . S
C594 C593 1.523 . S
H595 C570 0.950 . S
H596 C572 0.950 . S
H597 C573 0.949 . S
H598 C575 0.950 . S
H599 C577 0.950 . S
C600 C601 1.349 . S
C600 C602 1.327 . S
C600 H625 0.950 . S
C601 C600 1.349 . S
C601 C617 1.349 . S
C602 C600 1.327 . S
C602 C621 1.429 . S
C602 H626 0.950 . S
C603 C620 1.574 . S
C603 C622 1.368 . S
C603 H627 0.949 . S
H604 C608 0.949 . S
C605 C606 1.349 . S
C605 C607 1.327 . S
C605 H628 0.950 . S
C606 C605 1.349 . S
C606 C618 1.349 . S
C607 C605 1.327 . S
C607 C623 1.429 . S
C607 H629 0.950 . S
C608 H604 0.949 . S
C608 C616 1.574 . S
C608 C624 1.368 . S
H609 C617 0.950 . S
H610 C615 0.950 . S
H611 C616 0.949 . S
H612 C618 0.950 . S
H613 C619 0.950 . S
H614 C620 0.949 . S
C615 H610 0.950 . S
C615 C617 1.327 . S
C615 C621 1.429 . S
C616 C608 1.574 . S
C616 H611 0.949 . S
C616 C622 1.368 . S
C617 C601 1.349 . S
C617 H609 0.950 . S
C617 C615 1.327 . S
C618 C606 1.349 . S
C618 H612 0.950 . S
C618 C619 1.327 . S
C619 H613 0.950 . S
C619 C618 1.327 . S
C619 C623 1.429 . S
C620 C603 1.574 . S
C620 H614 0.949 . S
C620 C624 1.368 . S
C621 C602 1.429 . S
C621 C615 1.429 . S
C621 C622 1.523 . S
C622 C603 1.368 . S
C622 C616 1.368 . S
C622 C621 1.523 . S
C623 C607 1.429 . S
C623 C619 1.429 . S
C623 C624 1.523 . S
C624 C608 1.368 . S
C624 C620 1.368 . S
C624 C623 1.523 . S
H625 C600 0.950 . S
H626 C602 0.950 . S
H627 C603 0.949 . S
H628 C605 0.950 . S
H629 C607 0.950 . S
C630 C631 1.349 . S
C630 C632 1.327 . S
C630 H655 0.950 . S
C631 C630 1.349 . S
C631 C647 1.349 . S
C632 C630 1.327 . S
C632 C651 1.429 . S
C632 H656 0.950 . S
C633 C650 1.574 . S
C633 C652 1.368 . S
C633 H657 0.949 . S
H634 C638 0.949 . S
C635 C636 1.349 . S
C635 C637 1.327 . S
C635 H658 0.950 . S
C636 C635 1.349 . S
C636 C648 1.349 . S
C637 C635 1.327 . S
C637 C653 1.429 . S
C637 H659 0.950 . S
C638 H634 0.949 . S
C638 C646 1.574 . S
C638 C654 1.368 . S
H639 C647 0.950 . S
H640 C645 0.950 . S
H641 C646 0.949 . S
H642 C648 0.950 . S
H643 C649 0.950 . S
H644 C650 0.949 . S
C645 H640 0.950 . S
C645 C647 1.327 . S
C645 C651 1.429 . S
C646 C638 1.574 . S
C646 H641 0.949 . S
C646 C652 1.368 . S
C647 C631 1.349 . S
C647 H639 0.950 . S
C647 C645 1.327 . S
C648 C636 1.349 . S
C648 H642 0.950 . S
C648 C649 1.327 . S
C649 H643 0.950 . S
C649 C648 1.327 . S
C649 C653 1.429 . S
C650 C633 1.574 . S
C650 H644 0.949 . S
C650 C654 1.368 . S
C651 C632 1.429 . S
C651 C645 1.429 . S
C651 C652 1.523 . S
C652 C633 1.368 . S
C652 C646 1.368 . S
C652 C651 1.523 . S
C653 C637 1.429 . S
C653 C649 1.429 . S
C653 C654 1.523 . S
C654 C638 1.368 . S
C654 C650 1.368 . S
C654 C653 1.523 . S
H655 C630 0.950 . S
H656 C632 0.950 . S
H657 C633 0.949 . S
H658 C635 0.950 . S
H659 C637 0.950 . S
C660 C661 1.349 . S
C660 C662 1.327 . S
C660 H685 0.950 . S
C661 C660 1.349 . S
C661 C677 1.349 . S
C662 C660 1.327 . S
C662 C681 1.429 . S
C662 H686 0.950 . S
C663 C680 1.574 . S
C663 C682 1.368 . S
C663 H687 0.949 . S
H664 C668 0.949 . S
C665 C666 1.349 . S
C665 C667 1.327 . S
C665 H688 0.950 . S
C666 C665 1.349 . S
C666 C678 1.349 . S
C667 C665 1.327 . S
C667 C683 1.429 . S
C667 H689 0.950 . S
C668 H664 0.949 . S
C668 C676 1.574 . S
C668 C684 1.368 . S
H669 C677 0.950 . S
H670 C675 0.950 . S
H671 C676 0.949 . S
H672 C678 0.950 . S
H673 C679 0.950 . S
H674 C680 0.949 . S
C675 H670 0.950 . S
C675 C677 1.327 . S
C675 C681 1.429 . S
C676 C668 1.574 . S
C676 H671 0.949 . S
C676 C682 1.368 . S
C677 C661 1.349 . S
C677 H669 0.950 . S
C677 C675 1.327 . S
C678 C666 1.349 . S
C678 H672 0.950 . S
C678 C679 1.327 . S
C679 H673 0.950 . S
C679 C678 1.327 . S
C679 C683 1.429 . S
C680 C663 1.574 . S
C680 H674 0.949 . S
C680 C684 1.368 . S
C681 C662 1.429 . S
C681 C675 1.429 . S
C681 C682 1.523 . S
C682 C663 1.368 . S
C682 C676 1.368 . S
C682 C681 1.523 . S
C683 C667 1.429 . S
C683 C679 1.429 . S
C683 C684 1.523 . S
C684 C668 1.368 . S
C684 C680 1.368 . S
C684 C683 1.523 . S
H685 C660 0.950 . S
H686 C662 0.950 . S
H687 C663 0.949 . S
H688 C665 0.950 . S
H689 C667 0.950 . S
C690 C691 1.349 . S
C690 C692 1.327 . S
C690 H715 0.950 . S
C691 C690 1.349 . S
C691 C707 1.349 . S
C692 C690 1.327 . S
C692 C711 1.429 . S
C692 H716 0.950 . S
C693 C710 1.574 . S
C693 C712 1.368 . S
C693 H717 0.949 . S
H694 C698 0.949 . S
C695 C696 1.349 . S
C695 C697 1.327 . S
C695 H718 0.950 . S
C696 C695 1.349 . S
C696 C708 1.349 . S
C697 C695 1.327 . S
C697 C713 1.429 . S
C697 H719 0.950 . S
C698 H694 0.949 . S
C698 C706 1.574 . S
C698 C714 1.368 . S
H699 C707 0.950 . S
H700 C705 0.950 . S
H701 C706 0.949 . S
H702 C708 0.950 . S
H703 C709 0.950 . S
H704 C710 0.949 . S
C705 H700 0.950 . S
C705 C707 1.327 . S
C705 C711 1.429 . S
C706 C698 1.574 . S
C706 H701 0.949 . S
C706 C712 1.368 . S
C707 C691 1.349 . S
C707 H699 0.950 . S
C707 C705 1.327 . S
C708 C696 1.349 . S
C708 H702 0.950 . S
C708 C709 1.327 . S
C709 H703 0.950 . S
C709 C708 1.327 . S
C709 C713 1.429 . S
C710 C693 1.574 . S
C710 H704 0.949 . S
C710 C714 1.368 . S
C711 C692 1.429 . S
C711 C705 1.429 . S
C711 C712 1.523 . S
C712 C693 1.368 . S
C712 C706 1.368 . S
C712 C711 1.523 . S
C713 C697 1.429 . S
C713 C709 1.429 . S
C713 C714 1.523 . S
C714 C698 1.368 . S
C714 C710 1.368 . S
C714 C713 1.523 . S
H715 C690 0.950 . S
H716 C692 0.950 . S
H717 C693 0.949 . S
H718 C695 0.950 . S
H719 C697 0.950 . S
C720 C721 1.349 . S
C720 C722 1.327 . S
C720 H745 0.950 . S
C721 C720 1.349 . S
C721 C737 1.349 . S
C722 C720 1.327 . S
C722 C741 1.429 . S
C722 H746 0.950 . S
C723 C740 1.574 . S
C723 C742 1.368 . S
C723 H747 0.949 . S
H724 C728 0.949 . S
C725 C726 1.349 . S
C725 C727 1.327 . S
C725 H748 0.950 . S
C726 C725 1.349 . S
C726 C738 1.349 . S
C727 C725 1.327 . S
C727 C743 1.429 . S
C727 H749 0.950 . S
C728 H724 0.949 . S
C728 C736 1.574 . S
C728 C744 1.368 . S
H729 C737 0.950 . S
H730 C735 0.950 . S
H731 C736 0.949 . S
H732 C738 0.950 . S
H733 C739 0.950 . S
H734 C740 0.949 . S
C735 H730 0.950 . S
C735 C737 1.327 . S
C735 C741 1.429 . S
C736 C728 1.574 . S
C736 H731 0.949 . S
C736 C742 1.368 . S
C737 C721 1.349 . S
C737 H729 0.950 . S
C737 C735 1.327 . S
C738 C726 1.349 . S
C738 H732 0.950 . S
C738 C739 1.327 . S
C739 H733 0.950 . S
C739 C738 1.327 . S
C739 C743 1.429 . S
C740 C723 1.574 . S
C740 H734 0.949 . S
C740 C744 1.368 . S
C741 C722 1.429 . S
C741 C735 1.429 . S
C741 C742 1.523 . S
C742 C723 1.368 . S
C742 C736 1.368 . S
C742 C741 1.523 . S
C743 C727 1.429 . S
C743 C739 1.429 . S
C743 C744 1.523 . S
C744 C728 1.368 . S
C744 C740 1.368 . S
C744 C743 1.523 . S
H745 C720 0.950 . S
H746 C722 0.950 . S
H747 C723 0.949 . S
H748 C725 0.950 . S
H749 C727 0.950 . S
C750 C751 1.349 . S
C750 C752 1.327 . S
C750 H775 0.950 . S
C751 C750 1.349 . S
C751 C767 1.349 . S
C752 C750 1.327 . S
C752 C771 1.429 . S
C752 H776 0.950 . S
C753 C770 1.574 . S
C753 C772 1.368 . S
C753 H777 0.949 . S
H754 C758 0.949 . S
C755 C756 1.349 . S
C755 C757 1.327 . S
C755 H778 0.950 . S
C756 C755 1.349 . S
C756 C768 1.349 . S
C757 C755 1.327 . S
C757 C773 1.429 . S
C757 H779 0.950 . S
C758 H754 0.949 . S
C758 C766 1.574 . S
C758 C774 1.368 . S
H759 C767 0.950 . S
H760 C765 0.950 . S
H761 C766 0.949 . S
H762 C768 0.950 . S
H763 C769 0.950 . S
H764 C770 0.949 . S
C765 H760 0.950 . S
C765 C767 1.327 . S
C765 C771 1.429 . S
C766 C758 1.574 . S
C766 H761 0.949 . S
C766 C772 1.368 . S
C767 C751 1.349 . S
C767 H759 0.950 . S
C767 C765 1.327 . S
C768 C756 1.349 . S
C768 H762 0.950 . S
C768 C769 1.327 . S
C769 H763 0.950 . S
C769 C768 1.327 . S
C769 C773 1.429 . S
C770 C753 1.574 . S
C770 H764 0.949 . S
C770 C774 1.368 . S
C771 C752 1.429 . S
C771 C765 1.429 . S
C771 C772 1.523 . S
C772 C753 1.368 . S
C772 C766 1.368 . S
C772 C771 1.523 . S
C773 C757 1.429 . S
C773 C769 1.429 . S
C773 C774 1.523 . S
C774 C758 1.368 . S
C774 C770 1.368 . S
C774 C773 1.523 . S
H775 C750 0.950 . S
H776 C752 0.950 . S
H777 C753 0.949 . S
H778 C755 0.950 . S
H779 C757 0.950 . S
C780 C781 1.349 . S
C780 C782 1.327 . S
C780 H805 0.950 . S
C781 C780 1.349 . S
C781 C797 1.349 . S
C782 C780 1.327 . S
C782 C801 1.429 . S
C782 H806 0.950 . S
C783 C800 1.574 . S
C783 C802 1.368 . S
C783 H807 0.949 . S
H784 C788 0.949 . S
C785 C786 1.349 . S
C785 C787 1.327 . S
C785 H808 0.950 . S
C786 C785 1.349 . S
C786 C798 1.349 . S
C787 C785 1.327 . S
C787 C803 1.429 . S
C787 H809 0.950 . S
C788 H784 0.949 . S
C788 C796 1.574 . S
C788 C804 1.368 . S
H789 C797 0.950 . S
H790 C795 0.950 . S
H791 C796 0.949 . S
H792 C798 0.950 . S
H793 C799 0.950 . S
H794 C800 0.949 . S
C795 H790 0.950 . S
C795 C797 1.327 . S
C795 C801 1.429 . S
C796 C788 1.574 . S
C796 H791 0.949 . S
C796 C802 1.368 . S
C797 C781 1.349 . S
C797 H789 0.950 . S
C797 C795 1.327 . S
C798 C786 1.349 . S
C798 H792 0.950 . S
C798 C799 1.327 . S
C799 H793 0.950 . S
C799 C798 1.327 . S
C799 C803 1.429 . S
C800 C783 1.574 . S
C800 H794 0.949 . S
C800 C804 1.368 . S
C801 C782 1.429 . S
C801 C795 1.429 . S
C801 C802 1.523 . S
C802 C783 1.368 . S
C802 C796 1.368 . S
C802 C801 1.523 . S
C803 C787 1.429 . S
C803 C799 1.429 . S
C803 C804 1.523 . S
C804 C788 1.368 . S
C804 C800 1.368 . S
C804 C803 1.523 . S
H805 C780 0.950 . S
H806 C782 0.950 . S
H807 C783 0.949 . S
H808 C785 0.950 . S
H809 C787 0.950 . S
C810 C811 1.349 . S
C810 C812 1.327 . S
C810 H835 0.950 . S
C811 C810 1.349 . S
C811 C827 1.349 . S
C812 C810 1.327 . S
C812 C831 1.429 . S
C812 H836 0.950 . S
C813 C830 1.574 . S
C813 C832 1.368 . S
C813 H837 0.949 . S
H814 C818 0.949 . S
C815 C816 1.349 . S
C815 C817 1.327 . S
C815 H838 0.950 . S
C816 C815 1.349 . S
C816 C828 1.349 . S
C817 C815 1.327 . S
C817 C833 1.429 . S
C817 H839 0.950 . S
C818 H814 0.949 . S
C818 C826 1.574 . S
C818 C834 1.368 . S
H819 C827 0.950 . S
H820 C825 0.950 . S
H821 C826 0.949 . S
H822 C828 0.950 . S
H823 C829 0.950 . S
H824 C830 0.949 . S
C825 H820 0.950 . S
C825 C827 1.327 . S
C825 C831 1.429 . S
C826 C818 1.574 . S
C826 H821 0.949 . S
C826 C832 1.368 . S
C827 C811 1.349 . S
C827 H819 0.950 . S
C827 C825 1.327 . S
C828 C816 1.349 . S
C828 H822 0.950 . S
C828 C829 1.327 . S
C829 H823 0.950 . S
C829 C828 1.327 . S
C829 C833 1.429 . S
C830 C813 1.574 . S
C830 H824 0.949 . S
C830 C834 1.368 . S
C831 C812 1.429 . S
C831 C825 1.429 . S
C831 C832 1.523 . S
C832 C813 1.368 . S
C832 C826 1.368 . S
C832 C831 1.523 . S
C833 C817 1.429 . S
C833 C829 1.429 . S
C833 C834 1.523 . S
C834 C818 1.368 . S
C834 C830 1.368 . S
C834 C833 1.523 . S
H835 C810 0.950 . S
H836 C812 0.950 . S
H837 C813 0.949 . S
H838 C815 0.950 . S
H839 C817 0.950 . S
C840 C841 1.349 . S
C840 C842 1.327 . S
C840 H865 0.950 . S
C841 C840 1.349 . S
C841 C857 1.349 1_455 S
C842 C840 1.327 . S
C842 C861 1.429 . S
C842 H866 0.950 . S
C843 C860 1.574 . S
C843 C862 1.368 1_655 S
C843 H867 0.949 . S
H844 C848 0.949 . S
C845 C846 1.349 . S
C845 C847 1.327 1_556 S
C845 H868 0.950 1_455 S
C846 C845 1.349 . S
C846 C858 1.349 . S
C847 C845 1.327 1_554 S
C847 C863 1.429 . S
C847 H869 0.950 1_455 S
C848 H844 0.949 . S
C848 C856 1.574 . S
C848 C864 1.368 . S
H849 C857 0.950 . S
H850 C855 0.950 . S
H851 C856 0.949 . S
H852 C858 0.950 . S
H853 C859 0.950 . S
H854 C860 0.949 . S
C855 H850 0.950 . S
C855 C857 1.327 . S
C855 C861 1.429 1_655 S
C856 C848 1.574 . S
C856 H851 0.949 . S
C856 C862 1.368 . S
C857 C841 1.349 1_655 S
C857 H849 0.950 . S
C857 C855 1.327 . S
C858 C846 1.349 . S
C858 H852 0.950 . S
C858 C859 1.327 1_556 S
C859 H853 0.950 . S
C859 C858 1.327 1_554 S
C859 C863 1.429 . S
C860 C843 1.574 . S
C860 H854 0.949 . S
C860 C864 1.368 1_655 S
C861 C842 1.429 . S
C861 C855 1.429 1_455 S
C861 C862 1.523 . S
C862 C843 1.368 1_455 S
C862 C856 1.368 . S
C862 C861 1.523 . S
C863 C847 1.429 . S
C863 C859 1.429 . S
C863 C864 1.523 . S
C864 C848 1.368 . S
C864 C860 1.368 1_455 S
C864 C863 1.523 . S
H865 C840 0.950 . S
H866 C842 0.950 . S
H867 C843 0.949 . S
H868 C845 0.950 1_655 S
H869 C847 0.950 1_655 S
C870 C871 1.349 1_565 S
C870 C872 1.327 . S
C870 H895 0.950 . S
C871 C870 1.349 1_545 S
C871 C887 1.349 . S
C872 C870 1.327 . S
C872 C891 1.429 1_565 S
C872 H896 0.950 . S
C873 C890 1.574 . S
C873 C892 1.368 . S
C873 H897 0.949 . S
H874 C878 0.949 . S
C875 C876 1.349 . S
C875 C877 1.327 . S
C875 H898 0.950 . S
C876 C875 1.349 . S
C876 C888 1.349 . S
C877 C875 1.327 . S
C877 C893 1.429 . S
C877 H899 0.950 . S
C878 H874 0.949 . S
C878 C886 1.574 . S
C878 C894 1.368 1_565 S
H879 C887 0.950 . S
H880 C885 0.950 . S
H881 C886 0.949 . S
H882 C888 0.950 1_565 S
H883 C889 0.950 1_565 S
H884 C890 0.949 . S
C885 H880 0.950 . S
C885 C887 1.327 . S
C885 C891 1.429 . S
C886 C878 1.574 . S
C886 H881 0.949 . S
C886 C892 1.368 1_565 S
C887 C871 1.349 . S
C887 H879 0.950 . S
C887 C885 1.327 . S
C888 C876 1.349 . S
C888 H882 0.950 1_545 S
C888 C889 1.327 . S
C889 H883 0.950 1_545 S
C889 C888 1.327 . S
C889 C893 1.428 . S
C890 C873 1.574 . S
C890 H884 0.949 . S
C890 C894 1.368 . S
C891 C872 1.429 1_545 S
C891 C885 1.429 . S
C891 C892 1.523 . S
C892 C873 1.368 . S
C892 C886 1.368 1_545 S
C892 C891 1.523 . S
C893 C877 1.429 . S
C893 C889 1.428 . S
C893 C894 1.523 . S
C894 C878 1.368 1_545 S
C894 C890 1.368 . S
C894 C893 1.523 . S
H895 C870 0.950 . S
H896 C872 0.950 . S
H897 C873 0.949 . S
H898 C875 0.950 . S
H899 C877 0.950 . S
C900 C901 1.349 . S
C900 C902 1.327 . S
C900 H925 0.950 . S
C901 C900 1.349 . S
C901 C917 1.349 . S
C902 C900 1.327 . S
C902 C921 1.429 . S
C902 H926 0.950 . S
C903 C920 1.574 . S
C903 C922 1.368 . S
C903 H927 0.949 . S
H904 C908 0.949 . S
C905 C906 1.349 . S
C905 C907 1.327 . S
C905 H928 0.950 . S
C906 C905 1.349 . S
C906 C918 1.349 . S
C907 C905 1.327 . S
C907 C923 1.429 . S
C907 H929 0.950 . S
C908 H904 0.949 . S
C908 C916 1.574 . S
C908 C924 1.368 . S
H909 C917 0.950 . S
H910 C915 0.950 . S
H911 C916 0.949 . S
H912 C918 0.950 . S
H913 C919 0.950 . S
H914 C920 0.949 . S
C915 H910 0.950 . S
C915 C917 1.327 . S
C915 C921 1.429 . S
C916 C908 1.574 . S
C916 H911 0.949 . S
C916 C922 1.368 . S
C917 C901 1.349 . S
C917 H909 0.950 . S
C917 C915 1.327 . S
C918 C906 1.349 . S
C918 H912 0.950 . S
C918 C919 1.327 . S
C919 H913 0.950 . S
C919 C918 1.327 . S
C919 C923 1.429 . S
C920 C903 1.574 . S
C920 H914 0.949 . S
C920 C924 1.368 . S
C921 C902 1.429 . S
C921 C915 1.429 . S
C921 C922 1.523 . S
C922 C903 1.368 . S
C922 C916 1.368 . S
C922 C921 1.523 . S
C923 C907 1.429 . S
C923 C919 1.429 . S
C923 C924 1.523 . S
C924 C908 1.368 . S
C924 C920 1.368 . S
C924 C923 1.523 . S
H925 C900 0.950 . S
H926 C902 0.950 . S
H927 C903 0.949 . S
H928 C905 0.950 . S
H929 C907 0.950 . S
C930 C931 1.349 1_565 S
C930 C932 1.327 . S
C930 H955 0.950 . S
C931 C930 1.349 1_545 S
C931 C947 1.349 . S
C932 C930 1.327 . S
C932 C951 1.429 1_565 S
C932 H956 0.950 . S
C933 C950 1.574 . S
C933 C952 1.368 . S
C933 H957 0.949 . S
H934 C938 0.949 . S
C935 C936 1.349 . S
C935 C937 1.327 . S
C935 H958 0.950 . S
C936 C935 1.349 . S
C936 C948 1.349 1_545 S
C937 C935 1.327 . S
C937 C953 1.429 . S
C937 H959 0.950 . S
C938 H934 0.949 . S
C938 C946 1.574 . S
C938 C954 1.368 1_565 S
H939 C947 0.950 . S
H940 C945 0.950 . S
H941 C946 0.949 . S
H942 C948 0.950 . S
H943 C949 0.950 . S
H944 C950 0.949 . S
C945 H940 0.950 . S
C945 C947 1.327 . S
C945 C951 1.429 . S
C946 C938 1.574 . S
C946 H941 0.949 . S
C946 C952 1.368 1_565 S
C947 C931 1.349 . S
C947 H939 0.950 . S
C947 C945 1.327 . S
C948 C936 1.349 1_565 S
C948 H942 0.950 . S
C948 C949 1.327 . S
C949 H943 0.950 . S
C949 C948 1.327 . S
C949 C953 1.429 1_565 S
C950 C933 1.574 . S
C950 H944 0.949 . S
C950 C954 1.368 . S
C951 C932 1.429 1_545 S
C951 C945 1.429 . S
C951 C952 1.523 . S
C952 C933 1.368 . S
C952 C946 1.368 1_545 S
C952 C951 1.523 . S
C953 C937 1.429 . S
C953 C949 1.429 1_545 S
C953 C954 1.523 . S
C954 C938 1.368 1_545 S
C954 C950 1.368 . S
C954 C953 1.523 . S
H955 C930 0.950 . S
H956 C932 0.950 . S
H957 C933 0.949 . S
H958 C935 0.950 . S
H959 C937 0.950 . S
C960 C961 1.349 . S
C960 C962 1.327 . S
C960 H985 0.950 . S
C961 C960 1.349 . S
C961 C977 1.349 . S
C962 C960 1.327 . S
C962 C981 1.429 . S
C962 H986 0.950 . S
C963 C980 1.574 . S
C963 C982 1.368 . S
C963 H987 0.949 . S
H964 C968 0.949 . S
C965 C966 1.349 . S
C965 C967 1.327 1_554 S
C965 H988 0.950 . S
C966 C965 1.349 . S
C966 C978 1.349 . S
C967 C965 1.327 1_556 S
C967 C983 1.429 . S
C967 H989 0.950 . S
C968 H964 0.949 . S
C968 C976 1.574 . S
C968 C984 1.368 . S
H969 C977 0.950 . S
H970 C975 0.950 . S
H971 C976 0.949 . S
H972 C978 0.950 . S
H973 C979 0.950 . S
H974 C980 0.949 . S
C975 H970 0.950 . S
C975 C977 1.327 . S
C975 C981 1.429 . S
C976 C968 1.574 . S
C976 H971 0.949 . S
C976 C982 1.368 . S
C977 C961 1.349 . S
C977 H969 0.950 . S
C977 C975 1.327 . S
C978 C966 1.349 . S
C978 H972 0.950 . S
C978 C979 1.327 1_554 S
C979 H973 0.950 . S
C979 C978 1.327 1_556 S
C979 C983 1.429 . S
C980 C963 1.574 . S
C980 H974 0.949 . S
C980 C984 1.368 . S
C981 C962 1.429 . S
C981 C975 1.429 . S
C981 C982 1.523 . S
C982 C963 1.368 . S
C982 C976 1.368 . S
C982 C981 1.523 . S
C983 C967 1.429 . S
C983 C979 1.429 . S
C983 C984 1.523 . S
C984 C968 1.368 . S
C984 C980 1.368 . S
C984 C983 1.523 . S
H985 C960 0.950 . S
H986 C962 0.950 . S
H987 C963 0.949 . S
H988 C965 0.950 . S
H989 C967 0.950 . S
C990 C991 1.349 . S
C990 C992 1.327 . S
C990 H1015 0.950 . S
C991 C990 1.349 . S
C991 C1007 1.349 . S
C992 C990 1.327 . S
C992 C1011 1.429 . S
C992 H1016 0.950 . S
C993 C1010 1.574 . S
C993 C1012 1.368 . S
C993 H1017 0.949 . S
H994 C998 0.949 . S
C995 C996 1.349 . S
C995 C997 1.327 . S
C995 H1018 0.950 . S
C996 C995 1.349 . S
C996 C1008 1.349 . S
C997 C995 1.327 . S
C997 C1013 1.429 . S
C997 H1019 0.950 . S
C998 H994 0.949 . S
C998 C1006 1.574 . S
C998 C1014 1.368 . S
H999 C1007 0.950 . S
H1000 C1005 0.950 . S
H1001 C1006 0.949 . S
H1002 C1008 0.950 . S
H1003 C1009 0.950 . S
H1004 C1010 0.949 . S
C1005 H1000 0.950 . S
C1005 C1007 1.327 . S
C1005 C1011 1.429 . S
C1006 C998 1.574 . S
C1006 H1001 0.949 . S
C1006 C1012 1.368 . S
C1007 C991 1.349 . S
C1007 H999 0.950 . S
C1007 C1005 1.327 . S
C1008 C996 1.349 . S
C1008 H1002 0.950 . S
C1008 C1009 1.327 . S
C1009 H1003 0.950 . S
C1009 C1008 1.327 . S
C1009 C1013 1.429 . S
C1010 C993 1.574 . S
C1010 H1004 0.949 . S
C1010 C1014 1.368 . S
C1011 C992 1.429 . S
C1011 C1005 1.429 . S
C1011 C1012 1.523 . S
C1012 C993 1.368 . S
C1012 C1006 1.368 . S
C1012 C1011 1.523 . S
C1013 C997 1.429 . S
C1013 C1009 1.429 . S
C1013 C1014 1.523 . S
C1014 C998 1.368 . S
C1014 C1010 1.368 . S
C1014 C1013 1.523 . S
H1015 C990 0.950 . S
H1016 C992 0.950 . S
H1017 C993 0.949 . S
H1018 C995 0.950 . S
H1019 C997 0.950 . S
C481 C12 2.858 . S
C486 C451 2.853 . S
C511 C52 2.847 . S
C516 C301 2.708 . S
C541 C111 2.913 . S
C546 C361 2.762 . S
C571 C31 3.078 . S
C576 C421 2.910 . S
C606 C331 3.077 . S
C601 C71 3.089 . S
C636 C391 3.006 . S
C631 C92 3.018 . S
C661 C48 0.398 . S
C666 C181 0.499 . S
C691 C109 0.433 . S
C696 C271 0.298 . S
C721 C29 0.410 . S
C726 C151 0.273 . S
C756 C211 0.283 . S
C751 C69 0.347 . S
C786 C241 0.415 . S
C781 C88 0.251 . S
C811 C8 0.255 . S
C816 C121 0.412 . S
C846 C260 1.083 . S
C841 C17 1.080 . S
C871 C57 1.080 . S
C876 C140 1.080 . S
C901 C97 1.084 . S
C906 C200 1.081 . S
C936 C380 1.748 . S
C931 C42 1.714 . S
C966 C440 1.749 . S
C961 C82 1.722 . S
C991 C2 1.727 . S
C996 C320 1.744 . S
