# Generated by pormake.
# Topology anh, (6,3)-cn, num edge types: 1
# Building blocks:
#     Node 0, Type 0, BuildingBlock: BETGAK_clean_sbu_0, # of connection points: 6
#     Node 1, Type 0, BuildingBlock: BETGAK_clean_sbu_0, # of connection points: 6
#     Node 2, Type 0, BuildingBlock: BETGAK_clean_sbu_0, # of connection points: 6
#     Node 3, Type 1, BuildingBlock: KAKCAD_clean_linker_0, # of connection points: 3
#     Node 4, Type 1, BuildingBlock: KAKCAD_clean_linker_0, # of connection points: 3
#     Node 5, Type 1, BuildingBlock: KAKCAD_clean_linker_0, # of connection points: 3
#     Node 6, Type 1, BuildingBlock: KAKCAD_clean_linker_0, # of connection points: 3
#     Node 7, Type 1, BuildingBlock: KAKCAD_clean_linker_0, # of connection points: 3
#     Node 8, Type 1, BuildingBlock: KAKCAD_clean_linker_0, # of connection points: 3
#     Edge 9, Type (0, 1), BuildingBlock: KIFKEQ_clean_linker_1, # of connection points: 2
#     Edge 10, Type (0, 1), BuildingBlock: KIFKEQ_clean_linker_1, # of connection points: 2
#     Edge 11, Type (0, 1), BuildingBlock: KIFKEQ_clean_linker_1, # of connection points: 2
#     Edge 12, Type (0, 1), BuildingBlock: KIFKEQ_clean_linker_1, # of connection points: 2
#     Edge 13, Type (0, 1), BuildingBlock: KIFKEQ_clean_linker_1, # of connection points: 2
#     Edge 14, Type (0, 1), BuildingBlock: KIFKEQ_clean_linker_1, # of connection points: 2
#     Edge 15, Type (0, 1), BuildingBlock: KIFKEQ_clean_linker_1, # of connection points: 2
#     Edge 16, Type (0, 1), BuildingBlock: KIFKEQ_clean_linker_1, # of connection points: 2
#     Edge 17, Type (0, 1), BuildingBlock: KIFKEQ_clean_linker_1, # of connection points: 2
#     Edge 18, Type (0, 1), BuildingBlock: KIFKEQ_clean_linker_1, # of connection points: 2
#     Edge 19, Type (0, 1), BuildingBlock: KIFKEQ_clean_linker_1, # of connection points: 2
#     Edge 20, Type (0, 1), BuildingBlock: KIFKEQ_clean_linker_1, # of connection points: 2
#     Edge 21, Type (0, 1), BuildingBlock: KIFKEQ_clean_linker_1, # of connection points: 2
#     Edge 22, Type (0, 1), BuildingBlock: KIFKEQ_clean_linker_1, # of connection points: 2
#     Edge 23, Type (0, 1), BuildingBlock: KIFKEQ_clean_linker_1, # of connection points: 2
#     Edge 24, Type (0, 1), BuildingBlock: KIFKEQ_clean_linker_1, # of connection points: 2
#     Edge 25, Type (0, 1), BuildingBlock: KIFKEQ_clean_linker_1, # of connection points: 2
#     Edge 26, Type (0, 1), BuildingBlock: KIFKEQ_clean_linker_1, # of connection points: 2
# Relax obj value: 0.182
# Max RMSD: 0.206
# Mean RMSD: 0.155
data_MOF--net-anh--node1-BETGAK_clean_sbu_0--node2-KAKCAD_clean_linker_0--edge1-KIFKEQ_clean_linker_1
_symmetry_space_group_name_H-M    P1
_symmetry_Int_Tables_number       1
_symmetry_cell_setting            triclinic
loop_
_symmetry_equiv_pos_as_xyz
'x, y, z'
_cell_length_a     37.397389
_cell_length_b     43.77619
_cell_length_c     67.512168
_cell_angle_alpha  92.351365
_cell_angle_beta   89.626853
_cell_angle_gamma 128.0434
loop_
_atom_site_label
_atom_site_type_symbol
_atom_site_fract_x
_atom_site_fract_y
_atom_site_fract_z
_atom_type_partial_charge
La0 La 0.10015 0.52108 0.14699 0.0
La1 La 1.04798 0.54822 0.16137 0.0
C2 C 0.15426 0.51553 0.1283 0.0
C3 C 0.20309 0.53632 0.1314 0.0
C4 C 0.22344 0.55357 0.15013 0.0
C5 C 0.26899 0.57043 0.15367 0.0
C6 C 0.295 0.57092 0.13844 0.0
C7 C 0.27524 0.55566 0.1194 0.0
C8 C 0.22942 0.53828 0.11593 0.0
C9 C 0.09088 0.52052 0.1856 0.0
C10 C 0.15104 0.61285 0.15719 0.0
C11 C 0.99189 0.55061 0.18039 0.0
C12 C 0.9438 0.51843 0.18433 0.0
C13 C 0.91062 0.50279 0.16914 0.0
C14 C 0.86675 0.46908 0.17184 0.0
C15 C 0.85475 0.45012 0.18979 0.0
C16 C 0.88724 0.46649 0.20533 0.0
C17 C 0.93146 0.50033 0.2026 0.0
C18 C 1.05844 0.54849 0.12269 0.0
C19 C 0.9975 0.4573 0.15263 0.0
O20 O 0.12872 0.49273 0.14246 0.0
O21 O 0.14266 0.53662 0.12262 0.0
O22 O 0.09383 0.49638 0.17554 0.0
O23 O 0.09763 0.5457 0.17436 0.0
O24 O 0.15199 0.58537 0.1487 0.0
O25 O 0.11384 0.60436 0.16535 0.0
O26 O 1.00174 0.56033 0.1619 0.0
O27 O 1.02178 0.54871 0.18888 0.0
O28 O 1.0578 0.57413 0.13266 0.0
O29 O 1.05036 0.52305 0.1341 0.0
O30 O 0.99923 0.4847 0.16279 0.0
O31 O 1.03222 0.46614 0.1419 0.0
H32 H 0.20369 0.55287 0.16218 0.0
H33 H 0.28358 0.58211 0.16843 0.0
H34 H 0.29459 0.55538 0.10748 0.0
H35 H 0.21426 0.52541 0.10136 0.0
H36 H 0.91868 0.51597 0.15492 0.0
H37 H 0.84207 0.45786 0.15978 0.0
H38 H 0.87877 0.45268 0.21938 0.0
H39 H 0.95634 0.51173 0.21458 0.0
La40 La 0.62989 0.03029 0.48148 0.0
La41 La 0.56923 0.05095 0.47281 0.0
C42 C 0.66526 1.00268 0.49674 0.0
C43 C 0.65209 0.96442 0.50146 0.0
C44 C 0.6264 0.93209 0.48806 0.0
C45 C 0.61723 0.8969 0.4924 0.0
C46 C 0.63331 0.8933 0.51028 0.0
C47 C 0.6576 0.92546 0.52391 0.0
C48 C 0.66701 0.96063 0.5195 0.0
C49 C 0.62465 0.04122 0.44392 0.0
C50 C 0.52321 0.96335 0.47306 0.0
C51 C 0.53497 0.08165 0.46062 0.0
C52 C 0.54426 0.11868 0.46658 0.0
C53 C 0.56917 0.1389 0.48414 0.0
C54 C 0.57688 0.17339 0.49032 0.0
C55 C 0.56024 0.18868 0.47898 0.0
C56 C 0.53597 0.16857 0.46116 0.0
C57 C 0.52799 0.13382 0.45505 0.0
C58 C 0.57716 0.04202 0.51051 0.0
C59 C 0.67734 0.11825 0.4787 0.0
O60 O 0.66778 1.00995 0.47796 0.0
O61 O 0.6463 0.01498 0.50709 0.0
O62 O 0.66079 0.04968 0.45257 0.0
O63 O 0.59226 0.02453 0.45577 0.0
O64 O 0.56091 0.97407 0.48222 0.0
O65 O 0.52151 0.98926 0.46469 0.0
O66 O 0.51704 0.05599 0.47428 0.0
O67 O 0.568 0.08442 0.45173 0.0
O68 O 0.54032 0.03263 0.50231 0.0
O69 O 0.60821 0.05814 0.49812 0.0
O70 O 0.63751 0.10745 0.47218 0.0
O71 O 0.68172 0.09284 0.48561 0.0
H72 H 0.61417 0.9342 0.47408 0.0
H73 H 0.59867 0.8729 0.48149 0.0
H74 H 0.6696 0.92357 0.53802 0.0
H75 H 0.68654 0.98512 0.53011 0.0
H76 H 0.58211 0.12767 0.49323 0.0
H77 H 0.59502 0.18754 0.50426 0.0
H78 H 0.52324 0.17972 0.45188 0.0
H79 H 0.50895 0.11869 0.44139 0.0
La80 La 0.62792 0.56887 0.84733 0.0
La81 La 0.5645 0.48313 0.85086 0.0
C82 C 0.66609 0.63656 0.83604 0.0
C83 C 0.65321 0.66142 0.83122 0.0
C84 C 0.64437 0.67908 0.84623 0.0
C85 C 0.63493 0.70429 0.84146 0.0
C86 C 0.63408 0.71242 0.82161 0.0
C87 C 0.64229 0.69432 0.80661 0.0
C88 C 0.65194 0.66926 0.81137 0.0
C89 C 0.61916 0.54498 0.88322 0.0
C90 C 0.51973 0.52468 0.85256 0.0
C91 C 0.52812 0.4146 0.86007 0.0
C92 C 0.53855 0.38802 0.85455 0.0
C93 C 0.56428 0.39445 0.83776 0.0
C94 C 0.57329 0.36877 0.83214 0.0
C95 C 0.55717 0.33626 0.84332 0.0
C96 C 0.53212 0.33042 0.8604 0.0
C97 C 0.52284 0.35606 0.86593 0.0
C98 C 0.57539 0.50678 0.81453 0.0
C99 C 0.67387 0.5281 0.84815 0.0
O100 O 0.66417 0.62825 0.85462 0.0
O101 O 0.65092 0.60656 0.82389 0.0
O102 O 0.65705 0.57497 0.87655 0.0
O103 O 0.58778 0.53113 0.87046 0.0
O104 O 0.55943 0.55519 0.84595 0.0
O105 O 0.51572 0.49406 0.85837 0.0
O106 O 0.51344 0.42339 0.84552 0.0
O107 O 0.55881 0.44525 0.87121 0.0
O108 O 0.53764 0.47652 0.82096 0.0
O109 O 0.60579 0.52073 0.82777 0.0
O110 O 0.63236 0.49584 0.85166 0.0
O111 O 0.68007 0.56051 0.84411 0.0
H112 H 0.64521 0.67383 0.86169 0.0
H113 H 0.6283 0.71747 0.85335 0.0
H114 H 0.6425 0.70035 0.79119 0.0
H115 H 0.65912 0.65645 0.79951 0.0
H116 H 0.57695 0.41913 0.82882 0.0
H117 H 0.59205 0.37402 0.81876 0.0
H118 H 0.5198 0.30613 0.86957 0.0
H119 H 0.50328 0.35085 0.87905 0.0
C120 C 0.5988 0.07285 0.28624 0.0
C121 C 0.5933 0.04208 0.29554 0.0
C122 C 0.59565 0.0724 0.26557 0.0
C123 C 0.58663 0.04104 0.25376 0.0
C124 C 0.58077 1.01014 0.26307 0.0
C125 C 0.58415 1.01069 0.28371 0.0
C126 C 0.58343 0.04049 0.23178 0.0
C127 C 0.61496 0.07393 0.22142 0.0
C128 C 0.61274 0.07354 0.2006 0.0
C129 C 0.5784 0.03868 0.19002 0.0
C130 C 0.5457 1.00519 0.20032 0.0
C131 C 0.54876 1.00644 0.2211 0.0
C132 C 0.5068 0.96876 0.19 0.0
C133 C 0.46233 0.95282 0.19549 0.0
C134 C 0.51355 0.94742 0.1766 0.0
C135 C 0.47652 0.91001 0.16953 0.0
C136 C 0.43205 0.89357 0.17553 0.0
C137 C 0.64623 0.11028 0.19046 0.0
C138 C 0.65448 0.14484 0.19747 0.0
C139 C 0.67278 0.112 0.17504 0.0
C140 C 0.70819 0.14787 0.16744 0.0
C141 C 0.71726 0.18263 0.17491 0.0
C142 C 0.68935 0.18046 0.18978 0.0
C143 C 0.42545 0.91584 0.18828 0.0
H144 H 0.60625 0.0976 0.29492 0.0
H145 H 0.59991 0.09647 0.25885 0.0
H146 H 0.57416 0.98571 0.25439 0.0
H147 H 0.57929 0.98635 0.29042 0.0
H148 H 0.64203 0.1003 0.22958 0.0
H149 H 0.52361 0.98069 0.22901 0.0
H150 H 0.57602 0.03805 0.174 0.0
H151 H 0.45626 0.96861 0.2059 0.0
H152 H 0.54756 0.95894 0.1723 0.0
H153 H 0.48273 0.89373 0.15962 0.0
H154 H 0.63445 0.14442 0.20929 0.0
H155 H 0.66734 0.08586 0.16942 0.0
H156 H 0.39187 0.90404 0.19341 0.0
H157 H 0.69551 0.20654 0.19605 0.0
H158 H 0.72878 0.14845 0.15588 0.0
C159 C 0.57009 0.53852 0.65726 0.0
C160 C 0.60553 0.54252 0.66755 0.0
C161 C 0.56907 0.53813 0.63657 0.0
C162 C 0.60291 0.54095 0.62561 0.0
C163 C 0.63815 0.54462 0.6357 0.0
C164 C 0.63972 0.54578 0.65645 0.0
C165 C 0.60106 0.53987 0.60367 0.0
C166 C 0.59652 0.56507 0.59397 0.0
C167 C 0.59315 0.56365 0.57316 0.0
C168 C 0.59367 0.53594 0.5621 0.0
C169 C 0.59852 0.51063 0.57163 0.0
C170 C 0.6027 0.51313 0.59242 0.0
C171 C 0.59814 0.48087 0.56003 0.0
C172 C 0.56409 0.45649 0.54554 0.0
C173 C 0.63084 0.47564 0.56393 0.0
C174 C 0.62916 0.44627 0.55378 0.0
C175 C 0.59433 0.42101 0.53966 0.0
C176 C 0.59044 0.59196 0.56318 0.0
C177 C 0.56544 0.60331 0.57149 0.0
C178 C 0.61486 0.60951 0.54591 0.0
C179 C 0.61558 0.63866 0.53761 0.0
C180 C 0.59212 0.65117 0.54643 0.0
C181 C 0.56644 0.63262 0.5633 0.0
C182 C 0.56203 0.42676 0.53555 0.0
H183 H 0.5425 0.53493 0.66512 0.0
H184 H 0.54125 0.53483 0.62909 0.0
H185 H 0.66485 0.54717 0.62754 0.0
H186 H 0.668 0.54959 0.66374 0.0
H187 H 0.59679 0.58651 0.60275 0.0
H188 H 0.60556 0.49326 0.59992 0.0
H189 H 0.59043 0.53405 0.54607 0.0
H190 H 0.53815 0.45961 0.54238 0.0
H191 H 0.65782 0.49435 0.57485 0.0
H192 H 0.65527 0.44343 0.55705 0.0
H193 H 0.54558 0.58996 0.58458 0.0
H194 H 0.63472 0.6017 0.53915 0.0
H195 H 0.53431 0.40763 0.52502 0.0
H196 H 0.54825 0.64159 0.57065 0.0
H197 H 0.63509 0.65176 0.52442 0.0
C198 C 0.13087 0.55823 0.96444 0.0
C199 C 0.08868 0.53618 0.97382 0.0
C200 C 0.13314 0.55643 0.94374 0.0
C201 C 0.09328 0.53266 0.9319 0.0
C202 C 1.05117 0.51041 0.9413 0.0
C203 C 1.0489 0.51216 0.96196 0.0
C204 C 0.09533 0.53142 0.90981 0.0
C205 C 0.12764 0.52966 0.90036 0.0
C206 C 0.12977 0.52786 0.87954 0.0
C207 C 0.09782 0.52807 0.86797 0.0
C208 C 1.06441 0.52955 0.87746 0.0
C209 C 1.06432 0.53145 0.89825 0.0
C210 C 1.02751 0.52806 0.86704 0.0
C211 C 1.03341 0.5625 0.8637 0.0
C212 C 0.98268 0.49308 0.86586 0.0
C213 C 0.94516 0.49259 0.86198 0.0
C214 C 0.95069 0.52717 0.85931 0.0
C215 C 0.16516 0.52448 0.87117 0.0
C216 C 0.2038 0.555 0.86138 0.0
C217 C 0.16509 0.49365 0.87663 0.0
C218 C 0.20226 0.49356 0.8729 0.0
C219 C 0.24177 0.52459 0.8637 0.0
C220 C 0.24138 0.5551 0.85775 0.0
C221 C 0.99589 0.56206 0.85974 0.0
H222 H 0.16222 0.57673 0.9731 0.0
H223 H 0.16612 0.57416 0.93699 0.0
H224 H 1.01981 0.49142 0.93268 0.0
H225 H 1.0158 0.49508 0.96861 0.0
H226 H 0.15116 0.52913 0.90934 0.0
H227 H 1.0396 0.53313 0.90555 0.0
H228 H 0.09831 0.52627 0.85195 0.0
H229 H 1.06699 0.5902 0.86528 0.0
H230 H 0.97634 0.46608 0.869 0.0
H231 H 0.91153 0.46489 0.86153 0.0
H232 H 0.20592 0.57975 0.85734 0.0
H233 H 0.13664 0.47 0.88459 0.0
H234 H 1.00236 0.58955 0.85807 0.0
H235 H 0.27046 0.5795 0.85044 0.0
H236 H 0.20056 0.46965 0.8781 0.0
C237 C 1.04536 0.51335 0.34607 0.0
C238 C 0.08461 0.52887 0.33497 0.0
C239 C 1.04753 0.5145 0.3668 0.0
C240 C 0.08897 0.53101 0.37689 0.0
C241 C 0.12807 0.54611 0.36572 0.0
C242 C 0.12594 0.54517 0.34503 0.0
C243 C 0.09169 0.53276 0.39896 0.0
C244 C 1.05722 0.5015 0.40982 0.0
C245 C 1.05999 0.5027 0.43064 0.0
C246 C 0.09827 0.53598 0.44072 0.0
C247 C 0.13318 0.56774 0.43 0.0
C248 C 0.1292 0.56575 0.40922 0.0
C249 C 0.17396 0.60378 0.43993 0.0
C250 C 0.16976 0.62364 0.45549 0.0
C251 C 0.21725 0.6209 0.43223 0.0
C252 C 0.25495 0.65781 0.4391 0.0
C253 C 0.25058 0.67875 0.45395 0.0
C254 C 1.0227 0.46832 0.44131 0.0
C255 C 0.97725 0.45165 0.43676 0.0
C256 C 1.03172 0.44946 0.45435 0.0
C257 C 0.99596 0.4137 0.46187 0.0
C258 C 0.95045 0.39637 0.45675 0.0
C259 C 0.94162 0.41628 0.44443 0.0
C260 C 0.20764 0.66079 0.46238 0.0
H261 H 1.0131 0.50092 0.33874 0.0
H262 H 1.01688 0.50304 0.37494 0.0
H263 H 0.16036 0.55832 0.37295 0.0
H264 H 0.15661 0.55672 0.33689 0.0
H265 H 1.02857 0.47553 0.40201 0.0
H266 H 0.1552 0.59053 0.40097 0.0
H267 H 0.10084 0.53712 0.45675 0.0
H268 H 0.13685 0.61128 0.46167 0.0
H269 H 0.22168 0.60622 0.42032 0.0
H270 H 0.28715 0.6706 0.43207 0.0
H271 H 0.96927 0.46554 0.42676 0.0
H272 H 1.06642 0.46148 0.45799 0.0
H273 H 0.20307 0.67576 0.47404 0.0
H274 H 0.90712 0.40373 0.44001 0.0
H275 H 1.00393 0.39929 0.47146 0.0
C276 C 0.56874 0.99983 0.66794 0.0
C277 C 0.60409 0.03299 0.65822 0.0
C278 C 0.56905 0.99889 0.6886 0.0
C279 C 0.60416 0.03133 0.70009 0.0
C280 C 0.63942 0.06452 0.69057 0.0
C281 C 0.63967 0.06522 0.66987 0.0
C282 C 0.60349 0.03058 0.72199 0.0
C283 C 0.59961 1.00076 0.73144 0.0
C284 C 0.59791 0.99918 0.75223 0.0
C285 C 0.59907 0.02762 0.76349 0.0
C286 C 0.60299 0.05771 0.75418 0.0
C287 C 0.60578 0.05922 0.73344 0.0
C288 C 0.60289 0.08709 0.76592 0.0
C289 C 0.56914 0.07558 0.77986 0.0
C290 C 0.63523 0.12676 0.76251 0.0
C291 C 0.63335 0.15431 0.77254 0.0
C292 C 0.59865 0.14283 0.78602 0.0
C293 C 0.59617 0.96842 0.76203 0.0
C294 C 0.56968 0.93024 0.75373 0.0
C295 C 0.62273 0.97738 0.77917 0.0
C296 C 0.62379 0.94915 0.78745 0.0
C297 C 0.59835 0.91127 0.77879 0.0
C298 C 0.57082 0.90206 0.76197 0.0
C299 C 0.56686 0.10309 0.78971 0.0
H300 H 0.54017 0.97473 0.65966 0.0
H301 H 0.54124 0.97309 0.69565 0.0
H302 H 0.66707 0.08978 0.69916 0.0
H303 H 0.66801 0.091 0.66305 0.0
H304 H 0.59917 0.97936 0.72253 0.0
H305 H 0.60805 0.08192 0.7261 0.0
H306 H 0.597 0.02643 0.77949 0.0
H307 H 0.5435 0.04513 0.78262 0.0
H308 H 0.66196 0.13647 0.75201 0.0
H309 H 0.65911 0.18464 0.76963 0.0
H310 H 0.54834 0.92216 0.74068 0.0
H311 H 0.64381 1.00654 0.78587 0.0
H312 H 0.53926 0.09296 0.79973 0.0
H313 H 0.55106 0.87333 0.75478 0.0
H314 H 0.64488 0.95714 0.80058 0.0
C315 C 0.55737 0.41474 0.02732 0.0
C316 C 0.58679 0.4526 0.02039 0.0
C317 C 0.54882 0.40887 0.04761 0.0
C318 C 0.56963 0.44074 0.06133 0.0
C319 C 0.6003 0.47838 0.05443 0.0
C320 C 0.60837 0.48424 0.03429 0.0
C321 C 0.55898 0.43565 0.08276 0.0
C322 C 0.55519 0.40659 0.09309 0.0
C323 C 0.54973 0.40478 0.11382 0.0
C324 C 0.54719 0.43219 0.12397 0.0
C325 C 0.54968 0.46063 0.11372 0.0
C326 C 0.5548 0.46164 0.09315 0.0
C327 C 0.54646 0.48931 0.1242 0.0
C328 C 0.51328 0.47743 0.1385 0.0
C329 C 0.57363 0.52805 0.1185 0.0
C330 C 0.56486 0.55323 0.12548 0.0
C331 C 0.52916 0.5403 0.13848 0.0
C332 C 0.55156 0.3773 0.12526 0.0
C333 C 0.58078 0.36866 0.11952 0.0
C334 C 0.52836 0.36311 0.14319 0.0
C335 C 0.53805 0.34465 0.15602 0.0
C336 C 0.57013 0.33907 0.1509 0.0
C337 C 0.5896 0.34945 0.13212 0.0
C338 C 0.50477 0.50277 0.14562 0.0
H339 H 0.54059 0.38965 0.01709 0.0
H340 H 0.52504 0.3795 0.05245 0.0
H341 H 0.61776 0.50361 0.06462 0.0
H342 H 0.6306 0.51386 0.02964 0.0
H343 H 0.55791 0.38623 0.08504 0.0
H344 H 0.55534 0.48283 0.08509 0.0
H345 H 0.54514 0.43256 0.13997 0.0
H346 H 0.49179 0.44779 0.14316 0.0
H347 H 0.60032 0.53838 0.10791 0.0
H348 H 0.5844 0.58216 0.11992 0.0
H349 H 0.59979 0.37932 0.10603 0.0
H350 H 0.50452 0.3681 0.14785 0.0
H351 H 0.47674 0.49196 0.15551 0.0
H352 H 0.61507 0.34612 0.12791 0.0
H353 H 0.52255 0.33684 0.17042 0.0
H354 H 0.37418 0.6224 0.1193 0.0
H355 H 0.31755 0.54435 0.16738 0.0
H356 H 0.44528 0.63167 0.12316 0.0
H357 H 0.38668 0.55131 0.17056 0.0
H358 H 0.50669 0.55792 0.17354 0.0
H359 H 0.46235 0.58156 0.17726 0.0
H360 H 0.46514 0.59294 0.11376 0.0
H361 H 0.51114 0.5717 0.11044 0.0
C362 C 0.37734 0.6077 0.13086 0.0
C363 C 0.34049 0.58241 0.14291 0.0
C364 C 0.41786 0.61275 0.13304 0.0
C365 C 0.42169 0.59163 0.1469 0.0
C366 C 0.38566 0.56853 0.15988 0.0
C367 C 0.34568 0.56424 0.15799 0.0
C368 C 0.49887 0.56673 0.16055 0.0
C369 C 0.5119 0.56268 0.1417 0.0
C370 C 0.47319 0.57999 0.16261 0.0
C371 C 0.45902 0.58834 0.14577 0.0
C372 C 0.47552 0.5873 0.12716 0.0
C373 C 0.50189 0.57487 0.12519 0.0
H374 H 0.6814 0.17781 0.46428 0.0
H375 H 0.76518 0.15318 0.49114 0.0
H376 H 0.74779 0.24485 0.46091 0.0
H377 H 0.83172 0.22087 0.48831 0.0
H378 H 0.94659 0.33178 0.45713 0.0
H379 H 0.88156 0.26561 0.46417 0.0
H380 H 0.80267 0.30509 0.47794 0.0
H381 H 0.8675 0.37105 0.47051 0.0
C382 C 0.71392 0.18675 0.4697 0.0
C383 C 0.71779 0.15986 0.47792 0.0
C384 C 0.75214 0.22546 0.46788 0.0
C385 C 0.79544 0.2386 0.47433 0.0
C386 C 0.79916 0.21183 0.48291 0.0
C387 C 0.76087 0.17298 0.48466 0.0
C388 C 0.91559 0.32643 0.46198 0.0
C389 C 0.91227 0.35677 0.46314 0.0
C390 C 0.87817 0.28839 0.46604 0.0
C391 C 0.83645 0.27966 0.47149 0.0
C392 C 0.83377 0.31036 0.47336 0.0
C393 C 0.87106 0.34831 0.46917 0.0
H394 H 0.66954 0.78268 0.84031 0.0
H395 H 0.58096 0.70609 0.79142 0.0
H396 H 0.65881 0.83004 0.83136 0.0
H397 H 0.57117 0.7539 0.78215 0.0
H398 H 0.53032 0.83327 0.78249 0.0
H399 H 0.53714 0.78474 0.79374 0.0
H400 H 0.68103 0.87413 0.80432 0.0
H401 H 0.67442 0.92254 0.79289 0.0
C402 C 0.64749 0.77581 0.82775 0.0
C403 C 0.62613 0.74061 0.81657 0.0
C404 C 0.64171 0.80313 0.82249 0.0
C405 C 0.61425 0.79581 0.806 0.0
C406 C 0.59224 0.7603 0.79504 0.0
C407 C 0.59821 0.73308 0.80023 0.0
C408 C 0.56346 0.84258 0.78714 0.0
C409 C 0.60183 0.88188 0.78673 0.0
C410 C 0.56734 0.81474 0.7936 0.0
C411 C 0.60963 0.82554 0.79989 0.0
C412 C 0.64783 0.8649 0.79984 0.0
C413 C 0.644 0.8927 0.79331 0.0
H414 H 0.80423 0.38816 0.16358 0.0
H415 H 0.79887 0.43104 0.22132 0.0
H416 H 0.72259 0.34157 0.16212 0.0
H417 H 0.71646 0.38217 0.22068 0.0
H418 H 0.60412 0.37671 0.18666 0.0
H419 H 0.66631 0.38603 0.20409 0.0
H420 H 0.64764 0.2933 0.16762 0.0
H421 H 0.58664 0.28599 0.14921 0.0
C422 C 0.78543 0.38665 0.17629 0.0
C423 C 0.80762 0.41439 0.19212 0.0
C424 C 0.73828 0.35934 0.17566 0.0
C425 C 0.71221 0.35891 0.19097 0.0
C426 C 0.73517 0.38267 0.20823 0.0
C427 C 0.78252 0.4105 0.20871 0.0
C428 C 0.6119 0.3571 0.18293 0.0
C429 C 0.59163 0.33152 0.16619 0.0
C430 C 0.64786 0.36236 0.19303 0.0
C431 C 0.66385 0.34173 0.18668 0.0
C432 C 0.6378 0.31107 0.17229 0.0
C433 C 0.60247 0.30649 0.16186 0.0
H434 H 0.5131 0.90176 0.48897 0.0
H435 H 0.44204 0.92995 0.45356 0.0
H436 H 0.44706 0.83333 0.48643 0.0
H437 H 0.3766 0.86153 0.45056 0.0
H438 H 0.25044 0.74071 0.46206 0.0
H439 H 0.31539 0.80868 0.46828 0.0
H440 H 0.40575 0.77872 0.4634 0.0
H441 H 0.34069 0.71054 0.45818 0.0
C442 C 0.48347 0.8934 0.48058 0.0
C443 C 0.48302 0.92151 0.47147 0.0
C444 C 0.44558 0.85402 0.47903 0.0
C445 C 0.40621 0.84164 0.4683 0.0
C446 C 0.40585 0.86987 0.45924 0.0
C447 C 0.44365 0.90921 0.46083 0.0
C448 C 0.28406 0.74843 0.46274 0.0
C449 C 0.2901 0.71992 0.45952 0.0
C450 C 0.32149 0.78762 0.46601 0.0
C451 C 0.3661 0.79951 0.46614 0.0
C452 C 0.37204 0.77083 0.46354 0.0
C453 C 0.33462 0.73164 0.46032 0.0
H454 H 0.63361 0.35189 0.82642 0.0
H455 H 0.49971 0.25678 0.84534 0.0
H456 H 0.64492 0.30568 0.81345 0.0
H457 H 0.5119 0.2108 0.83291 0.0
H458 H 0.57126 0.14439 0.82381 0.0
H459 H 0.56234 0.19103 0.83878 0.0
H460 H 0.60922 0.25455 0.78522 0.0
H461 H 0.61663 0.20747 0.76993 0.0
C462 C 0.60654 0.32119 0.82783 0.0
C463 C 0.56554 0.30818 0.8368 0.0
C464 C 0.61316 0.29474 0.82045 0.0
C465 C 0.57922 0.25464 0.82209 0.0
C466 C 0.53884 0.24157 0.8316 0.0
C467 C 0.53197 0.26801 0.83879 0.0
C468 C 0.57927 0.16805 0.81511 0.0
C469 C 0.59476 0.17201 0.79561 0.0
C470 C 0.57431 0.19485 0.82375 0.0
C471 C 0.58526 0.2265 0.8132 0.0
C472 C 0.6012 0.23078 0.79383 0.0
C473 C 0.60562 0.20379 0.78511 0.0
H474 H 0.55789 0.81781 0.50177 0.0
H475 H 0.69284 0.88583 0.52819 0.0
H476 H 0.54737 0.75838 0.50836 0.0
H477 H 0.68133 0.82671 0.53581 0.0
H478 H 0.66751 0.71762 0.53153 0.0
H479 H 0.67604 0.77414 0.52101 0.0
H480 H 0.53599 0.71898 0.53489 0.0
H481 H 0.5266 0.66131 0.54422 0.0
C482 C 0.58532 0.82015 0.50898 0.0
C483 C 0.62618 0.85673 0.51449 0.0
C484 C 0.57908 0.78602 0.51297 0.0
C485 C 0.61349 0.78761 0.52262 0.0
C486 C 0.6543 0.82422 0.52809 0.0
C487 C 0.66062 0.85825 0.524 0.0
C488 C 0.63817 0.71707 0.53194 0.0
C489 C 0.59637 0.68477 0.53882 0.0
C490 C 0.64329 0.74985 0.52618 0.0
C491 C 0.60689 0.75146 0.52732 0.0
C492 C 0.56473 0.71878 0.53368 0.0
C493 C 0.5595 0.68583 0.5393 0.0
H494 H 0.67484 0.46605 0.85323 0.0
H495 H 0.76568 0.58925 0.84506 0.0
H496 H 0.73951 0.46543 0.85514 0.0
H497 H 0.83063 0.58907 0.84757 0.0
H498 H 0.94164 0.575 0.83748 0.0
H499 H 0.87669 0.57496 0.83429 0.0
H500 H 0.80082 0.47926 0.8731 0.0
H501 H 0.86545 0.47909 0.87607 0.0
C502 C 0.70862 0.49319 0.85189 0.0
C503 C 0.71429 0.52769 0.84893 0.0
C504 C 0.74624 0.49294 0.85315 0.0
C505 C 0.79148 0.52724 0.85163 0.0
C506 C 0.79698 0.56171 0.84856 0.0
C507 C 0.75931 0.56191 0.84722 0.0
C508 C 0.91128 0.55396 0.84546 0.0
C509 C 0.90974 0.52694 0.857 0.0
C510 C 0.87353 0.55397 0.84365 0.0
C511 C 0.83232 0.52707 0.85337 0.0
C512 C 0.83089 0.5001 0.86492 0.0
C513 C 0.86853 0.5 0.86666 0.0
H514 H 0.23574 0.64299 0.1431 0.0
H515 H 0.16201 0.67601 0.17413 0.0
H516 H 0.30436 0.71066 0.14525 0.0
H517 H 0.23037 0.74299 0.17666 0.0
H518 H 0.34668 0.86568 0.16343 0.0
H519 H 0.28009 0.79826 0.15738 0.0
H520 H 0.36123 0.76106 0.16867 0.0
H521 H 0.42808 0.82875 0.17446 0.0
C522 C 0.2341 0.66459 0.1504 0.0
C523 C 0.19316 0.65391 0.15839 0.0
C524 C 0.27357 0.70342 0.15172 0.0
C525 C 0.27304 0.73253 0.16103 0.0
C526 C 0.23204 0.72167 0.16903 0.0
C527 C 0.19274 0.68302 0.1677 0.0
C528 C 0.35038 0.84314 0.16452 0.0
C529 C 0.39272 0.85269 0.16959 0.0
C530 C 0.31211 0.80439 0.16113 0.0
C531 C 0.31493 0.77397 0.16281 0.0
C532 C 0.3577 0.78361 0.16709 0.0
C533 C 0.39612 0.82249 0.1704 0.0
H534 H 0.6354 0.25368 0.49806 0.0
H535 H 0.50105 0.20581 0.4761 0.0
H536 H 0.64456 0.31047 0.51195 0.0
H537 H 0.51107 0.26332 0.48951 0.0
H538 H 0.56709 0.39127 0.5012 0.0
H539 H 0.55971 0.3363 0.4855 0.0
H540 H 0.60759 0.32191 0.53962 0.0
H541 H 0.61355 0.37577 0.55559 0.0
C542 C 0.60776 0.25515 0.49618 0.0
C543 C 0.56728 0.22482 0.48608 0.0
C544 C 0.61315 0.28781 0.5041 0.0
C545 C 0.57845 0.29124 0.5019 0.0
C546 C 0.53857 0.26163 0.49128 0.0
C547 C 0.53294 0.22872 0.48353 0.0
C548 C 0.57563 0.3762 0.50986 0.0
C549 C 0.59102 0.3882 0.52972 0.0
C550 C 0.57154 0.34479 0.5008 0.0
C551 C 0.58326 0.32493 0.5113 0.0
C552 C 0.59899 0.33705 0.53105 0.0
C553 C 0.60257 0.36809 0.54017 0.0
H554 H 0.51326 0.5818 0.84176 0.0
H555 H 0.43369 0.46894 0.86659 0.0
H556 H 0.44821 0.58216 0.84365 0.0
H557 H 0.36908 0.46957 0.86901 0.0
H558 H 0.24455 0.46302 0.85623 0.0
H559 H 0.30973 0.46349 0.8534 0.0
H560 H 0.39973 0.58821 0.86239 0.0
H561 H 0.33425 0.5877 0.86509 0.0
C562 C 0.482 0.55701 0.84773 0.0
C563 C 0.47944 0.52529 0.85396 0.0
C564 C 0.44431 0.55729 0.84896 0.0
C565 C 0.40221 0.52585 0.85648 0.0
C566 C 0.39993 0.49424 0.86277 0.0
C567 C 0.43756 0.49396 0.86152 0.0
C568 C 0.2781 0.49071 0.85777 0.0
C569 C 0.28308 0.5253 0.86103 0.0
C570 C 0.31607 0.49099 0.85617 0.0
C571 C 0.36116 0.52586 0.85777 0.0
C572 C 0.36619 0.56056 0.86076 0.0
C573 C 0.32812 0.56028 0.86232 0.0
H574 H 0.97888 0.39098 0.13467 0.0
H575 H 0.92056 0.43076 0.17285 0.0
H576 H 0.91017 0.32396 0.13744 0.0
H577 H 0.85309 0.36436 0.17603 0.0
H578 H 0.72057 0.24515 0.16666 0.0
H579 H 0.78685 0.31036 0.15911 0.0
H580 H 0.87057 0.27348 0.16083 0.0
H581 H 0.80397 0.20805 0.16813 0.0
C582 C 0.95148 0.38551 0.14361 0.0
C583 C 0.95544 0.41641 0.15351 0.0
C584 C 0.91214 0.34703 0.14531 0.0
C585 C 0.87579 0.33851 0.15694 0.0
C586 C 0.87978 0.36958 0.16664 0.0
C587 C 0.91888 0.40787 0.16493 0.0
C588 C 0.75308 0.25089 0.16533 0.0
C589 C 0.7569 0.22133 0.16815 0.0
C590 C 0.79123 0.28839 0.16106 0.0
C591 C 0.83442 0.29754 0.15957 0.0
C592 C 0.83792 0.26758 0.16165 0.0
C593 C 0.79965 0.22996 0.16585 0.0
H594 H 1.05556 0.49364 0.10046 0.0
H595 H 0.07492 0.60101 0.09611 0.0
H596 H 1.06494 0.49136 0.06478 0.0
H597 H 0.08326 0.5984 0.06024 0.0
H598 H 0.13904 0.60056 0.99929 0.0
H599 H 0.13362 0.60403 0.03524 0.0
H600 H 1.02534 0.48037 0.0341 0.0
H601 H 1.03201 0.47667 0.99834 0.0
C602 C 1.06173 0.51673 0.09184 0.0
C603 C 1.06446 0.54748 0.10105 0.0
C604 C 1.06683 0.51532 0.07135 0.0
C605 C 0.0747 0.54461 0.05955 0.0
C606 C 0.07777 0.57557 0.06886 0.0
C607 C 0.07269 0.57697 0.08939 0.0
C608 C 0.11447 0.57403 0.00673 0.0
C609 C 0.08596 0.53833 0.99585 0.0
C610 C 0.11097 0.57609 0.02734 0.0
C611 C 0.07896 0.5425 0.03762 0.0
C612 C 1.05072 0.50678 0.02675 0.0
C613 C 1.05418 0.50473 0.00616 0.0
H614 H 0.54906 0.01883 0.42299 0.0
H615 H 0.69027 0.06919 0.41651 0.0
H616 H 0.54128 0.01994 0.38709 0.0
H617 H 0.68275 0.07072 0.38077 0.0
H618 H 0.63781 0.02245 0.31679 0.0
H619 H 0.64472 0.02313 0.3527 0.0
H620 H 0.56675 0.06519 0.35991 0.0
H621 H 0.5588 0.06354 0.32387 0.0
C622 C 0.57846 0.03036 0.41389 0.0
C623 C 0.62017 0.04367 0.42246 0.0
C624 C 0.57409 0.03117 0.39337 0.0
C625 C 0.61133 0.04516 0.38106 0.0
C626 C 0.65324 0.05917 0.38979 0.0
C627 C 0.65762 0.0585 0.41026 0.0
C628 C 0.62182 0.03154 0.32602 0.0
C629 C 0.59769 0.04287 0.31747 0.0
C630 C 0.62619 0.03234 0.34661 0.0
C631 C 0.60644 0.04437 0.35916 0.0
C632 C 0.5821 0.05554 0.35064 0.0
C633 C 0.57793 0.05495 0.33001 0.0
H634 H 0.51236 0.4892 0.7869 0.0
H635 H 0.65584 0.54785 0.79518 0.0
H636 H 0.52372 0.50279 0.75163 0.0
H637 H 0.66698 0.56049 0.75968 0.0
H638 H 0.63575 0.5127 0.69143 0.0
H639 H 0.63308 0.50983 0.72744 0.0
H640 H 0.57158 0.56685 0.73006 0.0
H641 H 0.57655 0.57206 0.69417 0.0
C642 C 0.54633 0.50516 0.78115 0.0
C643 C 0.5832 0.5174 0.79366 0.0
C644 C 0.55283 0.51303 0.76105 0.0
C645 C 0.59618 0.53257 0.75302 0.0
C646 C 0.63323 0.54526 0.76557 0.0
C647 C 0.62688 0.53816 0.78581 0.0
C648 C 0.62271 0.52559 0.6996 0.0
C649 C 0.60608 0.5424 0.68968 0.0
C650 C 0.62104 0.52374 0.72026 0.0
C651 C 0.60198 0.53799 0.73143 0.0
C652 C 0.58608 0.55537 0.7217 0.0
C653 C 0.58859 0.55797 0.7011 0.0
H654 H 0.51136 0.99503 0.53645 0.0
H655 H 0.65632 0.08308 0.53232 0.0
H656 H 0.52044 0.99198 0.57206 0.0
H657 H 0.66521 0.08079 0.56811 0.0
H658 H 0.63542 0.09576 0.63566 0.0
H659 H 0.63219 0.09706 0.59969 0.0
H660 H 0.56523 0.9742 0.59449 0.0
H661 H 0.5708 0.97286 0.63037 0.0
C662 C 0.54512 0.01366 0.54319 0.0
C663 C 0.58313 0.03935 0.53174 0.0
C664 C 0.55031 1.0118 0.56348 0.0
C665 C 0.59349 0.0362 0.57273 0.0
C666 C 0.63158 0.0618 0.56127 0.0
C667 C 0.6265 0.06302 0.54086 0.0
C668 C 0.62098 0.06909 0.62695 0.0
C669 C 0.60328 0.03415 0.63614 0.0
C670 C 0.61894 0.06991 0.60632 0.0
C671 C 0.59837 0.03572 0.59442 0.0
C672 C 0.58094 1.00087 0.60342 0.0
C673 C 0.58383 1.00016 0.62401 0.0
H674 H 0.54277 0.49916 0.90445 0.0
H675 H 0.68481 0.55015 0.90386 0.0
H676 H 0.53567 0.47245 0.93647 0.0
H677 H 0.6775 0.52111 0.93512 0.0
H678 H 0.66446 0.51005 0.00196 0.0
H679 H 0.6717 0.52917 0.96824 0.0
H680 H 0.53273 0.42835 0.95528 0.0
H681 H 0.52415 0.41153 0.98974 0.0
C682 C 0.5723 0.50409 0.91113 0.0
C683 C 0.61447 0.52718 0.902 0.0
C684 C 0.56823 0.4884 0.92938 0.0
C685 C 0.60607 0.49464 0.93863 0.0
C686 C 0.64785 0.51648 0.92887 0.0
C687 C 0.65212 0.53303 0.91089 0.0
C688 C 0.63523 0.49206 0.99199 0.0
C689 C 0.59337 0.45977 0.99881 0.0
C690 C 0.63964 0.50267 0.97241 0.0
C691 C 0.60263 0.48067 0.95887 0.0
C692 C 0.56167 0.44672 0.96533 0.0
C693 C 0.55697 0.43659 0.98509 0.0
H694 H 0.10389 0.57859 0.20949 0.0
H695 H 0.06924 0.46464 0.2106 0.0
H696 H 0.0992 0.5805 0.24564 0.0
H697 H 1.0651 0.46665 0.2467 0.0
H698 H 1.02084 0.46866 0.30964 0.0
H699 H 1.01935 0.46665 0.2734 0.0
H700 H 0.14313 0.58483 0.2744 0.0
H701 H 0.14406 0.58711 0.31058 0.0
C702 C 0.09506 0.5539 0.21748 0.0
C703 C 0.08694 0.52147 0.20731 0.0
C704 C 0.09264 0.55508 0.23815 0.0
C705 C 0.08182 0.52374 0.24902 0.0
C706 C 0.07301 0.49106 0.23875 0.0
C707 C 0.0757 0.49001 0.2181 0.0
C708 C 1.04741 0.49434 0.30211 0.0
C709 C 0.08266 0.52799 0.31296 0.0
C710 C 1.04678 0.49308 0.28136 0.0
C711 C 0.08119 0.52555 0.27104 0.0
C712 C 0.11592 0.55945 0.28191 0.0
C713 C 0.11672 0.56062 0.30263 0.0
loop_
_geom_bond_atom_site_label_1
_geom_bond_atom_site_label_2
_geom_bond_distance
_geom_bond_site_symmetry_2
_ccdc_geom_bond_type
La0 C2 2.928 . S
La0 O20 2.521 . S
La0 O21 2.628 . S
La0 O22 2.554 . S
La0 O23 2.757 . S
La0 O24 2.470 . S
La0 O29 2.482 . S
La0 O31 2.503 1_455 S
La1 C11 2.928 . S
La1 O23 2.482 1_655 S
La1 O25 2.503 1_655 S
La1 O26 2.521 . S
La1 O27 2.628 . S
La1 O28 2.554 1_655 S
La1 O29 2.757 1_655 S
La1 O30 2.470 . S
C2 La0 2.928 . S
C2 C3 1.503 . S
C2 O20 1.261 . S
C2 O21 1.243 . S
C3 C2 1.503 . S
C3 C4 1.394 . S
C3 C8 1.373 . S
C4 C3 1.394 . S
C4 C5 1.380 . S
C4 H32 0.930 . S
C5 C4 1.380 . S
C5 C6 1.376 . S
C5 H33 0.930 . S
C6 C5 1.376 . S
C6 C7 1.370 . S
C7 C6 1.370 . S
C7 C8 1.396 . S
C7 H34 0.929 . S
C8 C3 1.373 . S
C8 C7 1.396 . S
C8 H35 0.929 . S
C9 O22 1.240 . S
C9 O23 1.289 . S
C10 O24 1.258 . S
C10 O25 1.256 . S
C11 La1 2.928 . S
C11 C12 1.503 . S
C11 O26 1.261 . S
C11 O27 1.243 . S
C12 C11 1.503 . S
C12 C13 1.394 . S
C12 C17 1.373 . S
C13 C12 1.394 . S
C13 C14 1.380 . S
C13 H36 0.930 . S
C14 C13 1.380 . S
C14 C15 1.376 . S
C14 H37 0.930 . S
C15 C14 1.376 . S
C15 C16 1.370 . S
C16 C15 1.370 . S
C16 C17 1.396 . S
C16 H38 0.929 . S
C17 C12 1.373 . S
C17 C16 1.396 . S
C17 H39 0.929 . S
C18 O28 1.237 . S
C18 O29 1.289 . S
C19 O30 1.258 . S
C19 O31 1.256 . S
O20 La0 2.521 . S
O20 C2 1.261 . S
O21 La0 2.628 . S
O21 C2 1.243 . S
O22 La0 2.554 . S
O22 C9 1.240 . S
O23 La0 2.757 . S
O23 La1 2.482 1_455 S
O23 C9 1.289 . S
O24 La0 2.470 . S
O24 C10 1.258 . S
O25 La1 2.503 1_455 S
O25 C10 1.256 . S
O26 La1 2.521 . S
O26 C11 1.261 . S
O27 La1 2.628 . S
O27 C11 1.243 . S
O28 La1 2.554 1_455 S
O28 C18 1.237 . S
O29 La0 2.482 . S
O29 La1 2.757 1_455 S
O29 C18 1.289 . S
O30 La1 2.470 . S
O30 C19 1.258 . S
O31 La0 2.503 1_655 S
O31 C19 1.256 . S
H32 C4 0.930 . S
H33 C5 0.930 . S
H34 C7 0.929 . S
H35 C8 0.929 . S
H36 C13 0.930 . S
H37 C14 0.930 . S
H38 C16 0.929 . S
H39 C17 0.929 . S
La40 C42 2.928 . S
La40 O60 2.521 . S
La40 O61 2.628 . S
La40 O62 2.554 . S
La40 O63 2.757 1_565 S
La40 O64 2.470 . S
La40 O69 2.501 . S
La40 O71 2.503 1_565 S
La41 C51 2.928 . S
La41 O63 2.482 . S
La41 O65 2.503 1_545 S
La41 O66 2.521 . S
La41 O67 2.628 . S
La41 O68 2.554 . S
La41 O69 2.727 1_545 S
La41 O70 2.470 . S
C42 La40 2.928 . S
C42 C43 1.503 . S
C42 O60 1.261 . S
C42 O61 1.243 . S
C43 C42 1.503 . S
C43 C44 1.394 . S
C43 C48 1.373 . S
C44 C43 1.394 . S
C44 C45 1.380 . S
C44 H72 0.930 . S
C45 C44 1.380 . S
C45 C46 1.376 . S
C45 H73 0.930 . S
C46 C45 1.376 . S
C46 C47 1.370 . S
C47 C46 1.370 . S
C47 C48 1.396 . S
C47 H74 0.929 . S
C48 C43 1.373 . S
C48 C47 1.396 . S
C48 H75 0.929 . S
C49 O62 1.240 1_545 S
C49 O63 1.289 . S
C50 O64 1.258 . S
C50 O65 1.256 . S
C51 La41 2.928 . S
C51 C52 1.503 . S
C51 O66 1.261 . S
C51 O67 1.243 . S
C52 C51 1.503 . S
C52 C53 1.394 . S
C52 C57 1.373 . S
C53 C52 1.394 . S
C53 C54 1.380 . S
C53 H76 0.930 . S
C54 C53 1.380 . S
C54 C55 1.376 . S
C54 H77 0.930 . S
C55 C54 1.376 . S
C55 C56 1.370 . S
C56 C55 1.370 . S
C56 C57 1.396 . S
C56 H78 0.929 . S
C57 C52 1.373 . S
C57 C56 1.396 . S
C57 H79 0.929 . S
C58 O68 1.240 . S
C58 O69 1.272 1_545 S
C59 O70 1.258 . S
C59 O71 1.256 . S
O60 La40 2.521 . S
O60 C42 1.261 . S
O61 La40 2.628 . S
O61 C42 1.243 . S
O62 La40 2.554 . S
O62 C49 1.240 1_565 S
O63 La40 2.757 1_545 S
O63 La41 2.482 . S
O63 C49 1.289 . S
O64 La40 2.470 . S
O64 C50 1.258 . S
O65 La41 2.503 1_565 S
O65 C50 1.256 . S
O66 La41 2.521 . S
O66 C51 1.261 . S
O67 La41 2.628 . S
O67 C51 1.243 . S
O68 La41 2.554 . S
O68 C58 1.240 . S
O69 La40 2.501 . S
O69 La41 2.727 1_565 S
O69 C58 1.272 1_565 S
O70 La41 2.470 . S
O70 C59 1.258 . S
O71 La40 2.503 1_545 S
O71 C59 1.256 . S
H72 C44 0.930 . S
H73 C45 0.930 . S
H74 C47 0.929 . S
H75 C48 0.929 . S
H76 C53 0.930 . S
H77 C54 0.930 . S
H78 C56 0.929 . S
H79 C57 0.929 . S
La80 C82 2.928 . S
La80 O100 2.521 . S
La80 O101 2.628 . S
La80 O102 2.554 . S
La80 O103 2.757 . S
La80 O104 2.470 . S
La80 O109 2.482 . S
La80 O111 2.503 . S
La81 C91 2.928 . S
La81 O103 2.482 . S
La81 O105 2.503 . S
La81 O106 2.521 . S
La81 O107 2.628 . S
La81 O108 2.554 . S
La81 O109 2.757 . S
La81 O110 2.470 . S
C82 La80 2.928 . S
C82 C83 1.503 . S
C82 O100 1.261 . S
C82 O101 1.243 . S
C83 C82 1.503 . S
C83 C84 1.394 . S
C83 C88 1.373 . S
C84 C83 1.394 . S
C84 C85 1.380 . S
C84 H112 0.930 . S
C85 C84 1.380 . S
C85 C86 1.376 . S
C85 H113 0.930 . S
C86 C85 1.376 . S
C86 C87 1.370 . S
C87 C86 1.370 . S
C87 C88 1.396 . S
C87 H114 0.929 . S
C88 C83 1.373 . S
C88 C87 1.396 . S
C88 H115 0.929 . S
C89 O102 1.240 . S
C89 O103 1.289 . S
C90 O104 1.258 . S
C90 O105 1.256 . S
C91 La81 2.928 . S
C91 C92 1.503 . S
C91 O106 1.261 . S
C91 O107 1.243 . S
C92 C91 1.503 . S
C92 C93 1.394 . S
C92 C97 1.373 . S
C93 C92 1.394 . S
C93 C94 1.380 . S
C93 H116 0.930 . S
C94 C93 1.380 . S
C94 C95 1.376 . S
C94 H117 0.930 . S
C95 C94 1.376 . S
C95 C96 1.370 . S
C96 C95 1.370 . S
C96 C97 1.396 . S
C96 H118 0.929 . S
C97 C92 1.373 . S
C97 C96 1.396 . S
C97 H119 0.929 . S
C98 O108 1.240 . S
C98 O109 1.289 . S
C99 O110 1.258 . S
C99 O111 1.256 . S
O100 La80 2.521 . S
O100 C82 1.261 . S
O101 La80 2.628 . S
O101 C82 1.243 . S
O102 La80 2.554 . S
O102 C89 1.240 . S
O103 La80 2.757 . S
O103 La81 2.482 . S
O103 C89 1.289 . S
O104 La80 2.470 . S
O104 C90 1.258 . S
O105 La81 2.503 . S
O105 C90 1.256 . S
O106 La81 2.521 . S
O106 C91 1.261 . S
O107 La81 2.628 . S
O107 C91 1.243 . S
O108 La81 2.554 . S
O108 C98 1.240 . S
O109 La80 2.482 . S
O109 La81 2.757 . S
O109 C98 1.289 . S
O110 La81 2.470 . S
O110 C99 1.258 . S
O111 La80 2.503 . S
O111 C99 1.256 . S
H112 C84 0.930 . S
H113 C85 0.930 . S
H114 C87 0.929 . S
H115 C88 0.929 . S
H116 C93 0.930 . S
H117 C94 0.930 . S
H118 C96 0.929 . S
H119 C97 0.929 . S
C120 C121 1.386 . S
C120 C122 1.397 . S
C120 H144 0.931 . S
C121 C120 1.386 . S
C121 C125 1.397 1_545 S
C122 C120 1.397 . S
C122 C123 1.384 . S
C122 H145 0.930 . S
C123 C122 1.384 . S
C123 C124 1.377 1_545 S
C123 C126 1.481 . S
C124 C123 1.377 1_565 S
C124 C125 1.389 . S
C124 H146 0.929 . S
C125 C121 1.397 1_565 S
C125 C124 1.389 . S
C125 H147 0.931 . S
C126 C123 1.481 . S
C126 C127 1.387 . S
C126 C131 1.390 1_545 S
C127 C126 1.387 . S
C127 C128 1.401 . S
C127 H148 0.930 . S
C128 C127 1.401 . S
C128 C129 1.376 . S
C128 C137 1.511 . S
C129 C128 1.376 . S
C129 C130 1.392 1_545 S
C129 H150 0.931 . S
C130 C129 1.392 1_565 S
C130 C131 1.361 . S
C130 C132 1.500 . S
C131 C126 1.390 1_565 S
C131 C130 1.361 . S
C131 H149 0.931 . S
C132 C130 1.500 . S
C132 C133 1.371 . S
C132 C134 1.365 . S
C133 C132 1.371 . S
C133 C143 1.386 . S
C133 H151 0.931 . S
C134 C132 1.365 . S
C134 C135 1.409 . S
C134 H152 0.929 . S
C135 C134 1.409 . S
C135 C136 1.380 . S
C135 H153 0.930 . S
C136 C135 1.380 . S
C136 C143 1.357 . S
C137 C128 1.511 . S
C137 C138 1.341 . S
C137 C139 1.371 . S
C138 C137 1.341 . S
C138 C142 1.394 . S
C138 H154 0.930 . S
C139 C137 1.371 . S
C139 C140 1.392 . S
C139 H155 0.931 . S
C140 C139 1.392 . S
C140 C141 1.331 . S
C140 H158 0.932 . S
C141 C140 1.331 . S
C141 C142 1.336 . S
C142 C138 1.394 . S
C142 C141 1.336 . S
C142 H157 0.929 . S
C143 C133 1.386 . S
C143 C136 1.357 . S
C143 H156 0.928 . S
H144 C120 0.931 . S
H145 C122 0.930 . S
H146 C124 0.929 . S
H147 C125 0.931 . S
H148 C127 0.930 . S
H149 C131 0.931 . S
H150 C129 0.931 . S
H151 C133 0.931 . S
H152 C134 0.929 . S
H153 C135 0.930 . S
H154 C138 0.930 . S
H155 C139 0.931 . S
H156 C143 0.928 . S
H157 C142 0.929 . S
H158 C140 0.932 . S
C159 C160 1.386 . S
C159 C161 1.397 . S
C159 H183 0.931 . S
C160 C159 1.386 . S
C160 C164 1.397 . S
C161 C159 1.397 . S
C161 C162 1.384 . S
C161 H184 0.930 . S
C162 C161 1.384 . S
C162 C163 1.377 . S
C162 C165 1.481 . S
C163 C162 1.377 . S
C163 C164 1.389 . S
C163 H185 0.929 . S
C164 C160 1.397 . S
C164 C163 1.389 . S
C164 H186 0.931 . S
C165 C162 1.481 . S
C165 C166 1.387 . S
C165 C170 1.390 . S
C166 C165 1.387 . S
C166 C167 1.401 . S
C166 H187 0.930 . S
C167 C166 1.401 . S
C167 C168 1.376 . S
C167 C176 1.511 . S
C168 C167 1.376 . S
C168 C169 1.392 . S
C168 H189 0.931 . S
C169 C168 1.392 . S
C169 C170 1.361 . S
C169 C171 1.500 . S
C170 C165 1.390 . S
C170 C169 1.361 . S
C170 H188 0.931 . S
C171 C169 1.500 . S
C171 C172 1.371 . S
C171 C173 1.365 . S
C172 C171 1.371 . S
C172 C182 1.386 . S
C172 H190 0.931 . S
C173 C171 1.365 . S
C173 C174 1.409 . S
C173 H191 0.929 . S
C174 C173 1.409 . S
C174 C175 1.380 . S
C174 H192 0.930 . S
C175 C174 1.380 . S
C175 C182 1.357 . S
C176 C167 1.511 . S
C176 C177 1.341 . S
C176 C178 1.371 . S
C177 C176 1.341 . S
C177 C181 1.394 . S
C177 H193 0.930 . S
C178 C176 1.371 . S
C178 C179 1.392 . S
C178 H194 0.931 . S
C179 C178 1.392 . S
C179 C180 1.331 . S
C179 H197 0.932 . S
C180 C179 1.331 . S
C180 C181 1.336 . S
C181 C177 1.394 . S
C181 C180 1.336 . S
C181 H196 0.929 . S
C182 C172 1.386 . S
C182 C175 1.357 . S
C182 H195 0.928 . S
H183 C159 0.931 . S
H184 C161 0.930 . S
H185 C163 0.929 . S
H186 C164 0.931 . S
H187 C166 0.930 . S
H188 C170 0.931 . S
H189 C168 0.931 . S
H190 C172 0.931 . S
H191 C173 0.929 . S
H192 C174 0.930 . S
H193 C177 0.930 . S
H194 C178 0.931 . S
H195 C182 0.928 . S
H196 C181 0.929 . S
H197 C179 0.932 . S
C198 C199 1.386 . S
C198 C200 1.397 . S
C198 H222 0.931 . S
C199 C198 1.386 . S
C199 C203 1.397 . S
C200 C198 1.397 . S
C200 C201 1.384 . S
C200 H223 0.930 . S
C201 C200 1.384 . S
C201 C202 1.377 . S
C201 C204 1.481 . S
C202 C201 1.377 . S
C202 C203 1.389 . S
C202 H224 0.929 1_455 S
C203 C199 1.397 . S
C203 C202 1.389 . S
C203 H225 0.931 1_455 S
C204 C201 1.481 . S
C204 C205 1.387 . S
C204 C209 1.390 . S
C205 C204 1.387 . S
C205 C206 1.401 . S
C205 H226 0.930 . S
C206 C205 1.401 . S
C206 C207 1.376 . S
C206 C215 1.511 . S
C207 C206 1.376 . S
C207 C208 1.392 . S
C207 H228 0.931 . S
C208 C207 1.392 . S
C208 C209 1.361 . S
C208 C210 1.500 1_455 S
C209 C204 1.390 . S
C209 C208 1.361 . S
C209 H227 0.931 1_455 S
C210 C208 1.500 1_655 S
C210 C211 1.371 . S
C210 C212 1.365 . S
C211 C210 1.371 . S
C211 C221 1.386 . S
C211 H229 0.931 1_655 S
C212 C210 1.365 . S
C212 C213 1.409 . S
C212 H230 0.929 . S
C213 C212 1.409 . S
C213 C214 1.380 . S
C213 H231 0.930 . S
C214 C213 1.380 . S
C214 C221 1.357 . S
C215 C206 1.511 . S
C215 C216 1.341 . S
C215 C217 1.371 . S
C216 C215 1.341 . S
C216 C220 1.394 . S
C216 H232 0.930 . S
C217 C215 1.371 . S
C217 C218 1.392 . S
C217 H233 0.931 . S
C218 C217 1.392 . S
C218 C219 1.331 . S
C218 H236 0.932 . S
C219 C218 1.331 . S
C219 C220 1.336 . S
C220 C216 1.394 . S
C220 C219 1.336 . S
C220 H235 0.929 . S
C221 C211 1.386 . S
C221 C214 1.357 . S
C221 H234 0.928 . S
H222 C198 0.931 . S
H223 C200 0.930 . S
H224 C202 0.929 1_655 S
H225 C203 0.931 1_655 S
H226 C205 0.930 . S
H227 C209 0.931 1_655 S
H228 C207 0.931 . S
H229 C211 0.931 1_455 S
H230 C212 0.929 . S
H231 C213 0.930 . S
H232 C216 0.930 . S
H233 C217 0.931 . S
H234 C221 0.928 . S
H235 C220 0.929 . S
H236 C218 0.932 . S
C237 C238 1.398 . S
C237 C239 1.397 . S
C237 H261 0.931 . S
C238 C237 1.398 . S
C238 C242 1.385 1_655 S
C239 C237 1.397 . S
C239 C240 1.384 . S
C239 H262 0.930 . S
C240 C239 1.384 . S
C240 C241 1.377 1_655 S
C240 C243 1.481 . S
C241 C240 1.377 1_455 S
C241 C242 1.389 . S
C241 H263 0.929 . S
C242 C238 1.385 1_455 S
C242 C241 1.389 . S
C242 H264 0.931 . S
C243 C240 1.481 . S
C243 C244 1.387 . S
C243 C248 1.390 1_655 S
C244 C243 1.387 . S
C244 C245 1.401 . S
C244 H265 0.930 . S
C245 C244 1.401 . S
C245 C246 1.376 . S
C245 C254 1.511 . S
C246 C245 1.376 . S
C246 C247 1.392 1_655 S
C246 H267 0.931 . S
C247 C246 1.392 1_455 S
C247 C248 1.361 . S
C247 C249 1.500 . S
C248 C243 1.390 1_455 S
C248 C247 1.361 . S
C248 H266 0.931 . S
C249 C247 1.500 . S
C249 C250 1.371 . S
C249 C251 1.365 . S
C250 C249 1.371 . S
C250 C260 1.386 . S
C250 H268 0.931 . S
C251 C249 1.365 . S
C251 C252 1.409 . S
C251 H269 0.929 . S
C252 C251 1.409 . S
C252 C253 1.380 . S
C252 H270 0.930 . S
C253 C252 1.380 . S
C253 C260 1.357 . S
C254 C245 1.511 . S
C254 C255 1.341 . S
C254 C256 1.371 . S
C255 C254 1.341 . S
C255 C259 1.394 . S
C255 H271 0.930 . S
C256 C254 1.371 . S
C256 C257 1.392 . S
C256 H272 0.931 . S
C257 C256 1.392 . S
C257 C258 1.331 . S
C257 H275 0.932 . S
C258 C257 1.331 . S
C258 C259 1.336 . S
C259 C255 1.394 . S
C259 C258 1.336 . S
C259 H274 0.929 . S
C260 C250 1.386 . S
C260 C253 1.357 . S
C260 H273 0.928 . S
H261 C237 0.931 . S
H262 C239 0.930 . S
H263 C241 0.929 . S
H264 C242 0.931 . S
H265 C244 0.930 . S
H266 C248 0.931 . S
H267 C246 0.931 . S
H268 C250 0.931 . S
H269 C251 0.929 . S
H270 C252 0.930 . S
H271 C255 0.930 . S
H272 C256 0.931 . S
H273 C260 0.928 . S
H274 C259 0.929 . S
H275 C257 0.932 . S
C276 C277 1.386 . S
C276 C278 1.397 . S
C276 H300 0.931 . S
C277 C276 1.386 . S
C277 C281 1.397 1_565 S
C278 C276 1.397 . S
C278 C279 1.407 . S
C278 H301 0.930 . S
C279 C278 1.407 . S
C279 C280 1.354 1_565 S
C279 C282 1.482 1_565 S
C280 C279 1.354 1_545 S
C280 C281 1.389 . S
C280 H302 0.929 . S
C281 C277 1.397 1_545 S
C281 C280 1.389 . S
C281 H303 0.931 . S
C282 C279 1.482 1_545 S
C282 C283 1.375 1_545 S
C282 C287 1.402 . S
C283 C282 1.375 1_565 S
C283 C284 1.401 . S
C283 H304 0.930 . S
C284 C283 1.401 . S
C284 C285 1.376 1_565 S
C284 C293 1.511 . S
C285 C284 1.376 1_545 S
C285 C286 1.392 . S
C285 H306 0.931 . S
C286 C285 1.392 . S
C286 C287 1.361 . S
C286 C288 1.500 . S
C287 C282 1.402 . S
C287 C286 1.361 . S
C287 H305 0.931 . S
C288 C286 1.500 . S
C288 C289 1.371 . S
C288 C290 1.365 . S
C289 C288 1.371 . S
C289 C299 1.386 . S
C289 H307 0.931 . S
C290 C288 1.365 . S
C290 C291 1.409 . S
C290 H308 0.929 . S
C291 C290 1.409 . S
C291 C292 1.380 . S
C291 H309 0.930 . S
C292 C291 1.380 . S
C292 C299 1.357 . S
C293 C284 1.511 . S
C293 C294 1.341 . S
C293 C295 1.371 . S
C294 C293 1.341 . S
C294 C298 1.394 . S
C294 H310 0.930 . S
C295 C293 1.371 . S
C295 C296 1.392 . S
C295 H311 0.931 . S
C296 C295 1.392 . S
C296 C297 1.331 . S
C296 H314 0.932 . S
C297 C296 1.331 . S
C297 C298 1.336 . S
C298 C294 1.394 . S
C298 C297 1.336 . S
C298 H313 0.929 . S
C299 C289 1.386 . S
C299 C292 1.357 . S
C299 H312 0.928 . S
H300 C276 0.931 . S
H301 C278 0.930 . S
H302 C280 0.929 . S
H303 C281 0.931 . S
H304 C283 0.930 . S
H305 C287 0.931 . S
H306 C285 0.931 . S
H307 C289 0.931 . S
H308 C290 0.929 . S
H309 C291 0.930 . S
H310 C294 0.930 . S
H311 C295 0.931 . S
H312 C299 0.928 . S
H313 C298 0.929 . S
H314 C296 0.932 . S
C315 C316 1.386 . S
C315 C317 1.397 . S
C315 H339 0.931 . S
C316 C315 1.386 . S
C316 C320 1.397 . S
C317 C315 1.397 . S
C317 C318 1.384 . S
C317 H340 0.930 . S
C318 C317 1.384 . S
C318 C319 1.377 . S
C318 C321 1.481 . S
C319 C318 1.377 . S
C319 C320 1.389 . S
C319 H341 0.929 . S
C320 C316 1.397 . S
C320 C319 1.389 . S
C320 H342 0.931 . S
C321 C318 1.481 . S
C321 C322 1.387 . S
C321 C326 1.390 . S
C322 C321 1.387 . S
C322 C323 1.401 . S
C322 H343 0.930 . S
C323 C322 1.401 . S
C323 C324 1.376 . S
C323 C332 1.511 . S
C324 C323 1.376 . S
C324 C325 1.392 . S
C324 H345 0.931 . S
C325 C324 1.392 . S
C325 C326 1.361 . S
C325 C327 1.500 . S
C326 C321 1.390 . S
C326 C325 1.361 . S
C326 H344 0.931 . S
C327 C325 1.500 . S
C327 C328 1.371 . S
C327 C329 1.365 . S
C328 C327 1.371 . S
C328 C338 1.386 . S
C328 H346 0.931 . S
C329 C327 1.365 . S
C329 C330 1.409 . S
C329 H347 0.929 . S
C330 C329 1.409 . S
C330 C331 1.380 . S
C330 H348 0.930 . S
C331 C330 1.380 . S
C331 C338 1.357 . S
C332 C323 1.511 . S
C332 C333 1.341 . S
C332 C334 1.371 . S
C333 C332 1.341 . S
C333 C337 1.394 . S
C333 H349 0.930 . S
C334 C332 1.371 . S
C334 C335 1.392 . S
C334 H350 0.931 . S
C335 C334 1.392 . S
C335 C336 1.331 . S
C335 H353 0.932 . S
C336 C335 1.331 . S
C336 C337 1.336 . S
C337 C333 1.394 . S
C337 C336 1.336 . S
C337 H352 0.929 . S
C338 C328 1.386 . S
C338 C331 1.357 . S
C338 H351 0.928 . S
H339 C315 0.931 . S
H340 C317 0.930 . S
H341 C319 0.929 . S
H342 C320 0.931 . S
H343 C322 0.930 . S
H344 C326 0.931 . S
H345 C324 0.931 . S
H346 C328 0.931 . S
H347 C329 0.929 . S
H348 C330 0.930 . S
H349 C333 0.930 . S
H350 C334 0.931 . S
H351 C338 0.928 . S
H352 C337 0.929 . S
H353 C335 0.932 . S
H354 C362 0.950 . S
H355 C367 0.950 . S
H356 C364 0.950 . S
H357 C366 0.950 . S
H358 C368 0.950 . S
H359 C370 0.950 . S
H360 C372 0.950 . S
H361 C373 0.950 . S
C362 H354 0.950 . S
C362 C363 1.386 . S
C362 C364 1.391 . S
C363 C362 1.386 . S
C363 C367 1.393 . S
C364 H356 0.950 . S
C364 C362 1.391 . S
C364 C365 1.400 . S
C365 C364 1.400 . S
C365 C366 1.398 . S
C365 C371 1.491 . S
C366 H357 0.950 . S
C366 C365 1.398 . S
C366 C367 1.391 . S
C367 H355 0.950 . S
C367 C363 1.393 . S
C367 C366 1.391 . S
C368 H358 0.950 . S
C368 C369 1.386 . S
C368 C370 1.391 . S
C369 C368 1.386 . S
C369 C373 1.393 . S
C370 H359 0.950 . S
C370 C368 1.391 . S
C370 C371 1.400 . S
C371 C365 1.491 . S
C371 C370 1.400 . S
C371 C372 1.398 . S
C372 H360 0.950 . S
C372 C371 1.398 . S
C372 C373 1.391 . S
C373 H361 0.950 . S
C373 C369 1.393 . S
C373 C372 1.391 . S
H374 C382 0.950 . S
H375 C387 0.950 . S
H376 C384 0.950 . S
H377 C386 0.950 . S
H378 C388 0.950 . S
H379 C390 0.950 . S
H380 C392 0.950 . S
H381 C393 0.950 . S
C382 H374 0.950 . S
C382 C383 1.386 . S
C382 C384 1.391 . S
C383 C382 1.386 . S
C383 C387 1.393 . S
C384 H376 0.950 . S
C384 C382 1.391 . S
C384 C385 1.400 . S
C385 C384 1.400 . S
C385 C386 1.398 . S
C385 C391 1.491 . S
C386 H377 0.950 . S
C386 C385 1.398 . S
C386 C387 1.391 . S
C387 H375 0.950 . S
C387 C383 1.393 . S
C387 C386 1.391 . S
C388 H378 0.950 . S
C388 C389 1.386 . S
C388 C390 1.391 . S
C389 C388 1.386 . S
C389 C393 1.393 . S
C390 H379 0.950 . S
C390 C388 1.391 . S
C390 C391 1.400 . S
C391 C385 1.491 . S
C391 C390 1.400 . S
C391 C392 1.398 . S
C392 H380 0.950 . S
C392 C391 1.398 . S
C392 C393 1.391 . S
C393 H381 0.950 . S
C393 C389 1.393 . S
C393 C392 1.391 . S
H394 C402 0.950 . S
H395 C407 0.950 . S
H396 C404 0.950 . S
H397 C406 0.950 . S
H398 C408 0.950 . S
H399 C410 0.950 . S
H400 C412 0.950 . S
H401 C413 0.950 . S
C402 H394 0.950 . S
C402 C403 1.386 . S
C402 C404 1.391 . S
C403 C402 1.386 . S
C403 C407 1.393 . S
C404 H396 0.950 . S
C404 C402 1.391 . S
C404 C405 1.400 . S
C405 C404 1.400 . S
C405 C406 1.398 . S
C405 C411 1.491 . S
C406 H397 0.950 . S
C406 C405 1.398 . S
C406 C407 1.391 . S
C407 H395 0.950 . S
C407 C403 1.393 . S
C407 C406 1.391 . S
C408 H398 0.950 . S
C408 C409 1.386 . S
C408 C410 1.391 . S
C409 C408 1.386 . S
C409 C413 1.393 . S
C410 H399 0.950 . S
C410 C408 1.391 . S
C410 C411 1.400 . S
C411 C405 1.491 . S
C411 C410 1.400 . S
C411 C412 1.398 . S
C412 H400 0.950 . S
C412 C411 1.398 . S
C412 C413 1.391 . S
C413 H401 0.950 . S
C413 C409 1.393 . S
C413 C412 1.391 . S
H414 C422 0.950 . S
H415 C427 0.950 . S
H416 C424 0.950 . S
H417 C426 0.950 . S
H418 C428 0.950 . S
H419 C430 0.950 . S
H420 C432 0.950 . S
H421 C433 0.950 . S
C422 H414 0.950 . S
C422 C423 1.386 . S
C422 C424 1.391 . S
C423 C422 1.386 . S
C423 C427 1.393 . S
C424 H416 0.950 . S
C424 C422 1.391 . S
C424 C425 1.400 . S
C425 C424 1.400 . S
C425 C426 1.398 . S
C425 C431 1.491 . S
C426 H417 0.950 . S
C426 C425 1.398 . S
C426 C427 1.391 . S
C427 H415 0.950 . S
C427 C423 1.393 . S
C427 C426 1.391 . S
C428 H418 0.950 . S
C428 C429 1.386 . S
C428 C430 1.391 . S
C429 C428 1.386 . S
C429 C433 1.393 . S
C430 H419 0.950 . S
C430 C428 1.391 . S
C430 C431 1.400 . S
C431 C425 1.491 . S
C431 C430 1.400 . S
C431 C432 1.398 . S
C432 H420 0.950 . S
C432 C431 1.398 . S
C432 C433 1.391 . S
C433 H421 0.950 . S
C433 C429 1.393 . S
C433 C432 1.391 . S
H434 C442 0.950 . S
H435 C447 0.950 . S
H436 C444 0.950 . S
H437 C446 0.950 . S
H438 C448 0.950 . S
H439 C450 0.950 . S
H440 C452 0.950 . S
H441 C453 0.950 . S
C442 H434 0.950 . S
C442 C443 1.386 . S
C442 C444 1.391 . S
C443 C442 1.386 . S
C443 C447 1.393 . S
C444 H436 0.950 . S
C444 C442 1.391 . S
C444 C445 1.400 . S
C445 C444 1.400 . S
C445 C446 1.398 . S
C445 C451 1.491 . S
C446 H437 0.950 . S
C446 C445 1.398 . S
C446 C447 1.391 . S
C447 H435 0.950 . S
C447 C443 1.393 . S
C447 C446 1.391 . S
C448 H438 0.950 . S
C448 C449 1.386 . S
C448 C450 1.391 . S
C449 C448 1.386 . S
C449 C453 1.393 . S
C450 H439 0.950 . S
C450 C448 1.391 . S
C450 C451 1.400 . S
C451 C445 1.491 . S
C451 C450 1.400 . S
C451 C452 1.398 . S
C452 H440 0.950 . S
C452 C451 1.398 . S
C452 C453 1.391 . S
C453 H441 0.950 . S
C453 C449 1.393 . S
C453 C452 1.391 . S
H454 C462 0.950 . S
H455 C467 0.950 . S
H456 C464 0.950 . S
H457 C466 0.950 . S
H458 C468 0.950 . S
H459 C470 0.950 . S
H460 C472 0.950 . S
H461 C473 0.950 . S
C462 H454 0.950 . S
C462 C463 1.386 . S
C462 C464 1.391 . S
C463 C462 1.386 . S
C463 C467 1.393 . S
C464 H456 0.950 . S
C464 C462 1.391 . S
C464 C465 1.400 . S
C465 C464 1.400 . S
C465 C466 1.398 . S
C465 C471 1.491 . S
C466 H457 0.950 . S
C466 C465 1.398 . S
C466 C467 1.391 . S
C467 H455 0.950 . S
C467 C463 1.393 . S
C467 C466 1.391 . S
C468 H458 0.950 . S
C468 C469 1.386 . S
C468 C470 1.391 . S
C469 C468 1.386 . S
C469 C473 1.393 . S
C470 H459 0.950 . S
C470 C468 1.391 . S
C470 C471 1.400 . S
C471 C465 1.491 . S
C471 C470 1.400 . S
C471 C472 1.398 . S
C472 H460 0.950 . S
C472 C471 1.398 . S
C472 C473 1.391 . S
C473 H461 0.950 . S
C473 C469 1.393 . S
C473 C472 1.391 . S
H474 C482 0.950 . S
H475 C487 0.950 . S
H476 C484 0.950 . S
H477 C486 0.950 . S
H478 C488 0.950 . S
H479 C490 0.950 . S
H480 C492 0.950 . S
H481 C493 0.950 . S
C482 H474 0.950 . S
C482 C483 1.386 . S
C482 C484 1.391 . S
C483 C482 1.386 . S
C483 C487 1.393 . S
C484 H476 0.950 . S
C484 C482 1.391 . S
C484 C485 1.400 . S
C485 C484 1.400 . S
C485 C486 1.398 . S
C485 C491 1.491 . S
C486 H477 0.950 . S
C486 C485 1.398 . S
C486 C487 1.391 . S
C487 H475 0.950 . S
C487 C483 1.393 . S
C487 C486 1.391 . S
C488 H478 0.950 . S
C488 C489 1.386 . S
C488 C490 1.391 . S
C489 C488 1.386 . S
C489 C493 1.393 . S
C490 H479 0.950 . S
C490 C488 1.391 . S
C490 C491 1.400 . S
C491 C485 1.491 . S
C491 C490 1.400 . S
C491 C492 1.398 . S
C492 H480 0.950 . S
C492 C491 1.398 . S
C492 C493 1.391 . S
C493 H481 0.950 . S
C493 C489 1.393 . S
C493 C492 1.391 . S
H494 C502 0.950 . S
H495 C507 0.950 . S
H496 C504 0.950 . S
H497 C506 0.950 . S
H498 C508 0.950 . S
H499 C510 0.950 . S
H500 C512 0.950 . S
H501 C513 0.950 . S
C502 H494 0.950 . S
C502 C503 1.386 . S
C502 C504 1.391 . S
C503 C502 1.386 . S
C503 C507 1.393 . S
C504 H496 0.950 . S
C504 C502 1.391 . S
C504 C505 1.400 . S
C505 C504 1.400 . S
C505 C506 1.398 . S
C505 C511 1.491 . S
C506 H497 0.950 . S
C506 C505 1.398 . S
C506 C507 1.391 . S
C507 H495 0.950 . S
C507 C503 1.393 . S
C507 C506 1.391 . S
C508 H498 0.950 . S
C508 C509 1.386 . S
C508 C510 1.391 . S
C509 C508 1.386 . S
C509 C513 1.393 . S
C510 H499 0.950 . S
C510 C508 1.391 . S
C510 C511 1.400 . S
C511 C505 1.491 . S
C511 C510 1.400 . S
C511 C512 1.398 . S
C512 H500 0.950 . S
C512 C511 1.398 . S
C512 C513 1.391 . S
C513 H501 0.950 . S
C513 C509 1.393 . S
C513 C512 1.391 . S
H514 C522 0.950 . S
H515 C527 0.950 . S
H516 C524 0.950 . S
H517 C526 0.950 . S
H518 C528 0.950 . S
H519 C530 0.950 . S
H520 C532 0.950 . S
H521 C533 0.950 . S
C522 H514 0.950 . S
C522 C523 1.386 . S
C522 C524 1.391 . S
C523 C522 1.386 . S
C523 C527 1.393 . S
C524 H516 0.950 . S
C524 C522 1.391 . S
C524 C525 1.400 . S
C525 C524 1.400 . S
C525 C526 1.398 . S
C525 C531 1.491 . S
C526 H517 0.950 . S
C526 C525 1.398 . S
C526 C527 1.391 . S
C527 H515 0.950 . S
C527 C523 1.393 . S
C527 C526 1.391 . S
C528 H518 0.950 . S
C528 C529 1.386 . S
C528 C530 1.391 . S
C529 C528 1.386 . S
C529 C533 1.393 . S
C530 H519 0.950 . S
C530 C528 1.391 . S
C530 C531 1.400 . S
C531 C525 1.491 . S
C531 C530 1.400 . S
C531 C532 1.398 . S
C532 H520 0.950 . S
C532 C531 1.398 . S
C532 C533 1.391 . S
C533 H521 0.950 . S
C533 C529 1.393 . S
C533 C532 1.391 . S
H534 C542 0.950 . S
H535 C547 0.950 . S
H536 C544 0.950 . S
H537 C546 0.950 . S
H538 C548 0.950 . S
H539 C550 0.950 . S
H540 C552 0.950 . S
H541 C553 0.950 . S
C542 H534 0.950 . S
C542 C543 1.386 . S
C542 C544 1.391 . S
C543 C542 1.386 . S
C543 C547 1.393 . S
C544 H536 0.950 . S
C544 C542 1.391 . S
C544 C545 1.400 . S
C545 C544 1.400 . S
C545 C546 1.398 . S
C545 C551 1.491 . S
C546 H537 0.950 . S
C546 C545 1.398 . S
C546 C547 1.391 . S
C547 H535 0.950 . S
C547 C543 1.393 . S
C547 C546 1.391 . S
C548 H538 0.950 . S
C548 C549 1.386 . S
C548 C550 1.391 . S
C549 C548 1.386 . S
C549 C553 1.393 . S
C550 H539 0.950 . S
C550 C548 1.391 . S
C550 C551 1.400 . S
C551 C545 1.491 . S
C551 C550 1.400 . S
C551 C552 1.398 . S
C552 H540 0.950 . S
C552 C551 1.398 . S
C552 C553 1.391 . S
C553 H541 0.950 . S
C553 C549 1.393 . S
C553 C552 1.391 . S
H554 C562 0.950 . S
H555 C567 0.950 . S
H556 C564 0.950 . S
H557 C566 0.950 . S
H558 C568 0.950 . S
H559 C570 0.950 . S
H560 C572 0.950 . S
H561 C573 0.950 . S
C562 H554 0.950 . S
C562 C563 1.386 . S
C562 C564 1.391 . S
C563 C562 1.386 . S
C563 C567 1.393 . S
C564 H556 0.950 . S
C564 C562 1.391 . S
C564 C565 1.400 . S
C565 C564 1.400 . S
C565 C566 1.398 . S
C565 C571 1.491 . S
C566 H557 0.950 . S
C566 C565 1.398 . S
C566 C567 1.391 . S
C567 H555 0.950 . S
C567 C563 1.393 . S
C567 C566 1.391 . S
C568 H558 0.950 . S
C568 C569 1.386 . S
C568 C570 1.391 . S
C569 C568 1.386 . S
C569 C573 1.393 . S
C570 H559 0.950 . S
C570 C568 1.391 . S
C570 C571 1.400 . S
C571 C565 1.491 . S
C571 C570 1.400 . S
C571 C572 1.398 . S
C572 H560 0.950 . S
C572 C571 1.398 . S
C572 C573 1.391 . S
C573 H561 0.950 . S
C573 C569 1.393 . S
C573 C572 1.391 . S
H574 C582 0.950 . S
H575 C587 0.950 . S
H576 C584 0.950 . S
H577 C586 0.950 . S
H578 C588 0.950 . S
H579 C590 0.950 . S
H580 C592 0.950 . S
H581 C593 0.950 . S
C582 H574 0.950 . S
C582 C583 1.386 . S
C582 C584 1.391 . S
C583 C582 1.386 . S
C583 C587 1.393 . S
C584 H576 0.950 . S
C584 C582 1.391 . S
C584 C585 1.400 . S
C585 C584 1.400 . S
C585 C586 1.398 . S
C585 C591 1.491 . S
C586 H577 0.950 . S
C586 C585 1.398 . S
C586 C587 1.391 . S
C587 H575 0.950 . S
C587 C583 1.393 . S
C587 C586 1.391 . S
C588 H578 0.950 . S
C588 C589 1.386 . S
C588 C590 1.391 . S
C589 C588 1.386 . S
C589 C593 1.393 . S
C590 H579 0.950 . S
C590 C588 1.391 . S
C590 C591 1.400 . S
C591 C585 1.491 . S
C591 C590 1.400 . S
C591 C592 1.398 . S
C592 H580 0.950 . S
C592 C591 1.398 . S
C592 C593 1.391 . S
C593 H581 0.950 . S
C593 C589 1.393 . S
C593 C592 1.391 . S
H594 C602 0.946 1_655 S
H595 C607 0.950 . S
H596 C604 0.950 1_655 S
H597 C606 0.950 . S
H598 C608 0.950 . S
H599 C610 0.950 . S
H600 C612 0.950 1_655 S
H601 C613 0.934 1_656 S
C602 H594 0.946 1_455 S
C602 C603 1.389 . S
C602 C604 1.392 . S
C603 C602 1.389 . S
C603 C607 1.393 . S
C604 H596 0.950 1_455 S
C604 C602 1.392 . S
C604 C605 1.400 . S
C605 C604 1.400 . S
C605 C606 1.398 . S
C605 C611 1.491 . S
C606 H597 0.950 . S
C606 C605 1.398 . S
C606 C607 1.391 . S
C607 H595 0.950 . S
C607 C603 1.393 . S
C607 C606 1.391 . S
C608 H598 0.950 . S
C608 C609 1.357 1_554 S
C608 C610 1.391 . S
C609 C608 1.357 1_556 S
C609 C613 1.369 1_556 S
C610 H599 0.950 . S
C610 C608 1.391 . S
C610 C611 1.400 . S
C611 C605 1.491 . S
C611 C610 1.400 . S
C611 C612 1.398 . S
C612 H600 0.950 1_455 S
C612 C611 1.398 . S
C612 C613 1.391 . S
C613 H601 0.934 1_454 S
C613 C609 1.369 1_554 S
C613 C612 1.391 . S
H614 C622 0.950 1_565 S
H615 C627 0.950 . S
H616 C624 0.950 1_565 S
H617 C626 0.950 . S
H618 C628 0.950 . S
H619 C630 0.950 . S
H620 C632 0.950 1_565 S
H621 C633 0.950 1_565 S
C622 H614 0.950 1_545 S
C622 C623 1.386 . S
C622 C624 1.391 . S
C623 C622 1.386 . S
C623 C627 1.393 . S
C624 H616 0.950 1_545 S
C624 C622 1.391 . S
C624 C625 1.400 . S
C625 C624 1.400 . S
C625 C626 1.398 . S
C625 C631 1.491 . S
C626 H617 0.950 . S
C626 C625 1.398 . S
C626 C627 1.391 . S
C627 H615 0.950 . S
C627 C623 1.393 . S
C627 C626 1.391 . S
C628 H618 0.950 . S
C628 C629 1.386 . S
C628 C630 1.391 . S
C629 C628 1.386 . S
C629 C633 1.393 . S
C630 H619 0.950 . S
C630 C628 1.391 . S
C630 C631 1.400 . S
C631 C625 1.491 . S
C631 C630 1.400 . S
C631 C632 1.398 . S
C632 H620 0.950 1_545 S
C632 C631 1.398 . S
C632 C633 1.391 . S
C633 H621 0.950 1_545 S
C633 C629 1.393 . S
C633 C632 1.391 . S
H634 C642 0.950 . S
H635 C647 0.950 . S
H636 C644 0.950 . S
H637 C646 0.950 . S
H638 C648 0.950 . S
H639 C650 0.950 . S
H640 C652 0.950 . S
H641 C653 0.950 . S
C642 H634 0.950 . S
C642 C643 1.386 . S
C642 C644 1.391 . S
C643 C642 1.386 . S
C643 C647 1.393 . S
C644 H636 0.950 . S
C644 C642 1.391 . S
C644 C645 1.400 . S
C645 C644 1.400 . S
C645 C646 1.398 . S
C645 C651 1.491 . S
C646 H637 0.950 . S
C646 C645 1.398 . S
C646 C647 1.391 . S
C647 H635 0.950 . S
C647 C643 1.393 . S
C647 C646 1.391 . S
C648 H638 0.950 . S
C648 C649 1.386 . S
C648 C650 1.391 . S
C649 C648 1.386 . S
C649 C653 1.393 . S
C650 H639 0.950 . S
C650 C648 1.391 . S
C650 C651 1.400 . S
C651 C645 1.491 . S
C651 C650 1.400 . S
C651 C652 1.398 . S
C652 H640 0.950 . S
C652 C651 1.398 . S
C652 C653 1.391 . S
C653 H641 0.950 . S
C653 C649 1.393 . S
C653 C652 1.391 . S
H654 C662 0.950 . S
H655 C667 0.950 . S
H656 C664 0.950 . S
H657 C666 0.950 . S
H658 C668 0.950 . S
H659 C670 0.950 . S
H660 C672 0.950 . S
H661 C673 0.950 . S
C662 H654 0.950 . S
C662 C663 1.386 1_565 S
C662 C664 1.391 . S
C663 C662 1.386 1_545 S
C663 C667 1.393 . S
C664 H656 0.950 . S
C664 C662 1.391 . S
C664 C665 1.400 1_565 S
C665 C664 1.400 1_545 S
C665 C666 1.398 . S
C665 C671 1.493 . S
C666 H657 0.950 . S
C666 C665 1.398 . S
C666 C667 1.391 . S
C667 H655 0.950 . S
C667 C663 1.393 . S
C667 C666 1.391 . S
C668 H658 0.950 . S
C668 C669 1.386 1_545 S
C668 C670 1.391 . S
C669 C668 1.386 1_565 S
C669 C673 1.393 . S
C670 H659 0.950 . S
C670 C668 1.391 . S
C670 C671 1.423 . S
C671 C665 1.493 . S
C671 C670 1.423 . S
C671 C672 1.373 1_545 S
C672 H660 0.950 . S
C672 C671 1.373 1_565 S
C672 C673 1.391 . S
C673 H661 0.950 . S
C673 C669 1.393 . S
C673 C672 1.391 . S
H674 C682 0.950 . S
H675 C687 0.950 . S
H676 C684 0.950 . S
H677 C686 0.950 . S
H678 C688 0.950 . S
H679 C690 0.950 . S
H680 C692 0.950 . S
H681 C693 0.950 . S
C682 H674 0.950 . S
C682 C683 1.386 . S
C682 C684 1.391 . S
C683 C682 1.386 . S
C683 C687 1.393 . S
C684 H676 0.950 . S
C684 C682 1.391 . S
C684 C685 1.400 . S
C685 C684 1.400 . S
C685 C686 1.398 . S
C685 C691 1.491 . S
C686 H677 0.950 . S
C686 C685 1.398 . S
C686 C687 1.391 . S
C687 H675 0.950 . S
C687 C683 1.393 . S
C687 C686 1.391 . S
C688 H678 0.950 . S
C688 C689 1.386 . S
C688 C690 1.391 . S
C689 C688 1.386 . S
C689 C693 1.393 . S
C690 H679 0.950 . S
C690 C688 1.391 . S
C690 C691 1.400 . S
C691 C685 1.491 . S
C691 C690 1.400 . S
C691 C692 1.398 . S
C692 H680 0.950 . S
C692 C691 1.398 . S
C692 C693 1.391 . S
C693 H681 0.950 . S
C693 C689 1.393 . S
C693 C692 1.391 . S
H694 C702 0.950 . S
H695 C707 0.950 . S
H696 C704 0.950 . S
H697 C706 0.950 . S
H698 C708 0.950 . S
H699 C710 0.950 . S
H700 C712 0.950 . S
H701 C713 0.950 . S
C702 H694 0.950 . S
C702 C703 1.386 . S
C702 C704 1.391 . S
C703 C702 1.386 . S
C703 C707 1.393 1_455 S
C704 H696 0.950 . S
C704 C702 1.391 . S
C704 C705 1.400 . S
C705 C704 1.400 . S
C705 C706 1.398 1_455 S
C705 C711 1.491 . S
C706 H697 0.950 . S
C706 C705 1.398 1_655 S
C706 C707 1.391 . S
C707 H695 0.950 . S
C707 C703 1.393 1_655 S
C707 C706 1.391 . S
C708 H698 0.950 . S
C708 C709 1.386 1_655 S
C708 C710 1.391 . S
C709 C708 1.386 1_455 S
C709 C713 1.393 . S
C710 H699 0.950 . S
C710 C708 1.391 . S
C710 C711 1.400 1_655 S
C711 C705 1.491 . S
C711 C710 1.400 1_455 S
C711 C712 1.398 . S
C712 H700 0.950 . S
C712 C711 1.398 . S
C712 C713 1.391 . S
C713 H701 0.950 . S
C713 C709 1.393 . S
C713 C712 1.391 . S
C363 C6 0.608 . S
C369 C331 0.562 . S
C383 C59 1.921 . S
C389 C258 1.894 . S
C403 C86 1.221 . S
C409 C297 1.238 . S
C423 C15 0.417 . S
C429 C336 0.265 . S
C449 C253 1.966 . S
C443 C50 2.020 . S
C469 C292 1.298 . S
C463 C95 1.290 . S
C483 C46 1.203 . S
C489 C180 1.203 . S
C503 C99 3.127 . S
C509 C214 3.082 . S
C523 C10 2.047 . S
C529 C136 2.013 . S
C549 C175 1.287 . S
C543 C55 1.274 . S
C569 C219 2.984 . S
C563 C90 3.014 . S
C583 C19 1.916 . S
C589 C141 1.901 . S
C609 C199 1.830 . S
C603 C18 1.691 . S
C623 C49 1.335 . S
C629 C121 1.376 . S
C643 C98 1.451 . S
C649 C160 1.508 . S
C669 C277 1.489 . S
C663 C58 1.449 . S
C689 C316 1.094 1_556 S
C683 C89 1.072 . S
C703 C9 1.335 . S
C709 C238 1.363 1_455 S
