# Generated by pormake.
# Topology ctn, (3,4)-cn, num edge types: 1
# Building blocks:
#     Node 0, Type 0, BuildingBlock: QEWDON_clean_linker_0, # of connection points: 3
#     Node 1, Type 0, BuildingBlock: QEWDON_clean_linker_0, # of connection points: 3
#     Node 2, Type 0, BuildingBlock: QEWDON_clean_linker_0, # of connection points: 3
#     Node 3, Type 0, BuildingBlock: QEWDON_clean_linker_0, # of connection points: 3
#     Node 4, Type 0, BuildingBlock: QEWDON_clean_linker_0, # of connection points: 3
#     Node 5, Type 0, BuildingBlock: QEWDON_clean_linker_0, # of connection points: 3
#     Node 6, Type 0, BuildingBlock: QEWDON_clean_linker_0, # of connection points: 3
#     Node 7, Type 0, BuildingBlock: QEWDON_clean_linker_0, # of connection points: 3
#     Node 8, Type 0, BuildingBlock: QEWDON_clean_linker_0, # of connection points: 3
#     Node 9, Type 0, BuildingBlock: QEWDON_clean_linker_0, # of connection points: 3
#     Node 10, Type 0, BuildingBlock: QEWDON_clean_linker_0, # of connection points: 3
#     Node 11, Type 0, BuildingBlock: QEWDON_clean_linker_0, # of connection points: 3
#     Node 12, Type 0, BuildingBlock: QEWDON_clean_linker_0, # of connection points: 3
#     Node 13, Type 0, BuildingBlock: QEWDON_clean_linker_0, # of connection points: 3
#     Node 14, Type 0, BuildingBlock: QEWDON_clean_linker_0, # of connection points: 3
#     Node 15, Type 0, BuildingBlock: QEWDON_clean_linker_0, # of connection points: 3
#     Node 16, Type 1, BuildingBlock: TATPOV_clean_sbu_0, # of connection points: 4
#     Node 17, Type 1, BuildingBlock: TATPOV_clean_sbu_0, # of connection points: 4
#     Node 18, Type 1, BuildingBlock: TATPOV_clean_sbu_0, # of connection points: 4
#     Node 19, Type 1, BuildingBlock: TATPOV_clean_sbu_0, # of connection points: 4
#     Node 20, Type 1, BuildingBlock: TATPOV_clean_sbu_0, # of connection points: 4
#     Node 21, Type 1, BuildingBlock: TATPOV_clean_sbu_0, # of connection points: 4
#     Node 22, Type 1, BuildingBlock: TATPOV_clean_sbu_0, # of connection points: 4
#     Node 23, Type 1, BuildingBlock: TATPOV_clean_sbu_0, # of connection points: 4
#     Node 24, Type 1, BuildingBlock: TATPOV_clean_sbu_0, # of connection points: 4
#     Node 25, Type 1, BuildingBlock: TATPOV_clean_sbu_0, # of connection points: 4
#     Node 26, Type 1, BuildingBlock: TATPOV_clean_sbu_0, # of connection points: 4
#     Node 27, Type 1, BuildingBlock: TATPOV_clean_sbu_0, # of connection points: 4
#     Edge 28, Type (0, 1), BuildingBlock: UVAHIK_clean_linker_0, # of connection points: 2
#     Edge 29, Type (0, 1), BuildingBlock: UVAHIK_clean_linker_0, # of connection points: 2
#     Edge 30, Type (0, 1), BuildingBlock: UVAHIK_clean_linker_0, # of connection points: 2
#     Edge 31, Type (0, 1), BuildingBlock: UVAHIK_clean_linker_0, # of connection points: 2
#     Edge 32, Type (0, 1), BuildingBlock: UVAHIK_clean_linker_0, # of connection points: 2
#     Edge 33, Type (0, 1), BuildingBlock: UVAHIK_clean_linker_0, # of connection points: 2
#     Edge 34, Type (0, 1), BuildingBlock: UVAHIK_clean_linker_0, # of connection points: 2
#     Edge 35, Type (0, 1), BuildingBlock: UVAHIK_clean_linker_0, # of connection points: 2
#     Edge 36, Type (0, 1), BuildingBlock: UVAHIK_clean_linker_0, # of connection points: 2
#     Edge 37, Type (0, 1), BuildingBlock: UVAHIK_clean_linker_0, # of connection points: 2
#     Edge 38, Type (0, 1), BuildingBlock: UVAHIK_clean_linker_0, # of connection points: 2
#     Edge 39, Type (0, 1), BuildingBlock: UVAHIK_clean_linker_0, # of connection points: 2
#     Edge 40, Type (0, 1), BuildingBlock: UVAHIK_clean_linker_0, # of connection points: 2
#     Edge 41, Type (0, 1), BuildingBlock: UVAHIK_clean_linker_0, # of connection points: 2
#     Edge 42, Type (0, 1), BuildingBlock: UVAHIK_clean_linker_0, # of connection points: 2
#     Edge 43, Type (0, 1), BuildingBlock: UVAHIK_clean_linker_0, # of connection points: 2
#     Edge 44, Type (0, 1), BuildingBlock: UVAHIK_clean_linker_0, # of connection points: 2
#     Edge 45, Type (0, 1), BuildingBlock: UVAHIK_clean_linker_0, # of connection points: 2
#     Edge 46, Type (0, 1), BuildingBlock: UVAHIK_clean_linker_0, # of connection points: 2
#     Edge 47, Type (0, 1), BuildingBlock: UVAHIK_clean_linker_0, # of connection points: 2
#     Edge 48, Type (0, 1), BuildingBlock: UVAHIK_clean_linker_0, # of connection points: 2
#     Edge 49, Type (0, 1), BuildingBlock: UVAHIK_clean_linker_0, # of connection points: 2
#     Edge 50, Type (0, 1), BuildingBlock: UVAHIK_clean_linker_0, # of connection points: 2
#     Edge 51, Type (0, 1), BuildingBlock: UVAHIK_clean_linker_0, # of connection points: 2
#     Edge 52, Type (0, 1), BuildingBlock: UVAHIK_clean_linker_0, # of connection points: 2
#     Edge 53, Type (0, 1), BuildingBlock: UVAHIK_clean_linker_0, # of connection points: 2
#     Edge 54, Type (0, 1), BuildingBlock: UVAHIK_clean_linker_0, # of connection points: 2
#     Edge 55, Type (0, 1), BuildingBlock: UVAHIK_clean_linker_0, # of connection points: 2
#     Edge 56, Type (0, 1), BuildingBlock: UVAHIK_clean_linker_0, # of connection points: 2
#     Edge 57, Type (0, 1), BuildingBlock: UVAHIK_clean_linker_0, # of connection points: 2
#     Edge 58, Type (0, 1), BuildingBlock: UVAHIK_clean_linker_0, # of connection points: 2
#     Edge 59, Type (0, 1), BuildingBlock: UVAHIK_clean_linker_0, # of connection points: 2
#     Edge 60, Type (0, 1), BuildingBlock: UVAHIK_clean_linker_0, # of connection points: 2
#     Edge 61, Type (0, 1), BuildingBlock: UVAHIK_clean_linker_0, # of connection points: 2
#     Edge 62, Type (0, 1), BuildingBlock: UVAHIK_clean_linker_0, # of connection points: 2
#     Edge 63, Type (0, 1), BuildingBlock: UVAHIK_clean_linker_0, # of connection points: 2
#     Edge 64, Type (0, 1), BuildingBlock: UVAHIK_clean_linker_0, # of connection points: 2
#     Edge 65, Type (0, 1), BuildingBlock: UVAHIK_clean_linker_0, # of connection points: 2
#     Edge 66, Type (0, 1), BuildingBlock: UVAHIK_clean_linker_0, # of connection points: 2
#     Edge 67, Type (0, 1), BuildingBlock: UVAHIK_clean_linker_0, # of connection points: 2
#     Edge 68, Type (0, 1), BuildingBlock: UVAHIK_clean_linker_0, # of connection points: 2
#     Edge 69, Type (0, 1), BuildingBlock: UVAHIK_clean_linker_0, # of connection points: 2
#     Edge 70, Type (0, 1), BuildingBlock: UVAHIK_clean_linker_0, # of connection points: 2
#     Edge 71, Type (0, 1), BuildingBlock: UVAHIK_clean_linker_0, # of connection points: 2
#     Edge 72, Type (0, 1), BuildingBlock: UVAHIK_clean_linker_0, # of connection points: 2
#     Edge 73, Type (0, 1), BuildingBlock: UVAHIK_clean_linker_0, # of connection points: 2
#     Edge 74, Type (0, 1), BuildingBlock: UVAHIK_clean_linker_0, # of connection points: 2
#     Edge 75, Type (0, 1), BuildingBlock: UVAHIK_clean_linker_0, # of connection points: 2
# Relax obj value: 0.110
# Max RMSD: 0.278
# Mean RMSD: 0.153
data_MOF--net-ctn--node1-TATPOV_clean_sbu_0--node2-QEWDON_clean_linker_0--edge1-UVAHIK_clean_linker_0
_symmetry_space_group_name_H-M    P1
_symmetry_Int_Tables_number       1
_symmetry_cell_setting            triclinic
loop_
_symmetry_equiv_pos_as_xyz
'x, y, z'
_cell_length_a     68.010319
_cell_length_b     71.019136
_cell_length_c     75.567112
_cell_angle_alpha  99.267489
_cell_angle_beta   92.705762
_cell_angle_gamma 96.911275
loop_
_atom_site_label
_atom_site_type_symbol
_atom_site_fract_x
_atom_site_fract_y
_atom_site_fract_z
_atom_type_partial_charge
H0 H 0.10033 0.03188 0.04093 0.0
C1 C 0.09022 0.02963 0.05128 0.0
C2 C 0.08853 0.0122 0.05814 0.0
C3 C 0.07975 0.04465 0.05839 0.0
H4 H 0.07443 0.99673 0.0776 0.0
C5 C 0.07544 0.00978 0.0718 0.0
C6 C 0.0647 0.02468 0.07895 0.0
C7 C 0.06695 0.04199 0.07206 0.0
C8 C 0.08423 0.06407 0.05357 0.0
H9 H 0.05898 0.05369 0.07756 0.0
C10 C 0.08138 0.06744 0.03577 0.0
C11 C 0.08608 0.08615 0.03178 0.0
C12 C 0.0917 0.07949 0.06721 0.0
H13 H 0.09407 0.07721 0.08094 0.0
C14 C 0.09644 0.09792 0.06327 0.0
H15 H 0.07555 0.05564 0.02517 0.0
C16 C 0.0937 0.10126 0.04571 0.0
H17 H 0.09724 0.11578 0.04305 0.0
H18 H 0.10223 0.10969 0.07388 0.0
H19 H 0.34177 0.74718 0.23746 0.0
C20 C 0.33017 0.73504 0.23591 0.0
C21 C 0.33403 0.71782 0.24154 0.0
C22 C 0.31134 0.73686 0.22833 0.0
H23 H 0.32098 0.68943 0.24458 0.0
C24 C 0.31863 0.70238 0.23937 0.0
C25 C 0.29982 0.70375 0.23149 0.0
C26 C 0.2963 0.72109 0.22591 0.0
C27 C 0.30701 0.75586 0.22456 0.0
H28 H 0.28174 0.72252 0.22019 0.0
C29 C 0.29956 0.75824 0.20744 0.0
C30 C 0.29576 0.77655 0.2042 0.0
C31 C 0.31044 0.77185 0.23842 0.0
H32 H 0.31607 0.77034 0.2517 0.0
C33 C 0.30646 0.78989 0.23536 0.0
H34 H 0.29695 0.74594 0.19669 0.0
C35 C 0.29921 0.79227 0.2184 0.0
H36 H 0.29675 0.80656 0.21631 0.0
H37 H 0.30915 0.80212 0.24614 0.0
H38 H 0.03927 0.46367 0.0387 0.0
C39 C 0.02771 0.47291 0.03858 0.0
C40 C 0.02427 0.48492 0.05452 0.0
C41 C 0.01715 0.47362 0.02231 0.0
H42 H 0.0073 0.50702 0.06633 0.0
C43 C 0.01004 0.49768 0.05411 0.0
C44 C -0.001 0.49817 0.03807 0.0
C45 C 0.00252 0.486 0.02231 0.0
C46 C 0.02232 0.46256 0.00511 0.0
H47 H 0.99417 0.48658 0.00987 0.0
C48 C 0.02642 0.44341 0.00392 0.0
C49 C 0.03202 0.43342 0.98768 0.0
C50 C 0.02374 0.47147 0.9898 0.0
H51 H 0.02106 0.48627 0.99034 0.0
C52 C 0.02907 0.46154 0.97367 0.0
H53 H 0.02541 0.43636 0.0156 0.0
C54 C 0.03322 0.44267 0.97259 0.0
H55 H 0.0372 0.43523 0.95985 0.0
H56 H 0.03011 0.46854 0.96198 0.0
H57 H 0.77239 0.78052 0.2362 0.0
C58 C 0.77449 0.77337 0.22277 0.0
C59 C 0.78234 0.78405 0.20994 0.0
C60 C 0.77021 0.75326 0.21866 0.0
H61 H 0.79141 0.78205 0.18269 0.0
C62 C 0.78505 0.77421 0.19266 0.0
C63 C 0.78021 0.75415 0.18823 0.0
C64 C 0.77289 0.74378 0.20135 0.0
C65 C 0.76548 0.7419 0.23301 0.0
H66 H 0.76994 0.72821 0.19832 0.0
C67 C 0.74786 0.743 0.24196 0.0
C68 C 0.74394 0.73222 0.25581 0.0
C69 C 0.77907 0.72995 0.23794 0.0
H70 H 0.79272 0.72895 0.23121 0.0
C71 C 0.77532 0.71943 0.25174 0.0
H72 H 0.73729 0.75215 0.23814 0.0
C73 C 0.75791 0.72056 0.26066 0.0
H74 H 0.75517 0.71201 0.27115 0.0
H75 H 0.78591 0.71031 0.2555 0.0
H76 H 0.11563 0.94187 0.45133 0.0
C77 C 0.1063 0.94463 0.44024 0.0
C78 C 0.10891 0.96273 0.4348 0.0
C79 C 0.09225 0.92977 0.43097 0.0
H80 H 0.09876 0.97986 0.416 0.0
C81 C 0.09681 0.96596 0.42027 0.0
C82 C 0.08264 0.95131 0.41083 0.0
C83 C 0.08049 0.9332 0.41629 0.0
C84 C 0.091 0.91021 0.43567 0.0
H85 H 0.06994 0.92162 0.40892 0.0
C86 C 0.08858 0.9072 0.45347 0.0
C87 C 0.08808 0.88859 0.45781 0.0
C88 C 0.0928 0.89444 0.42228 0.0
H89 H 0.09482 0.89642 0.40853 0.0
C90 C 0.09245 0.87603 0.42657 0.0
H91 H 0.08709 0.91928 0.46387 0.0
C92 C 0.09017 0.8731 0.4442 0.0
H93 H 0.08966 0.85862 0.44715 0.0
H94 H 0.09394 0.86398 0.41617 0.0
H95 H 0.27603 0.6967 0.75095 0.0
C96 C 0.27221 0.70406 0.76379 0.0
C97 C 0.27846 0.69803 0.7797 0.0
C98 C 0.26067 0.71924 0.76418 0.0
H99 H 0.27842 0.70341 0.80858 0.0
C100 C 0.27302 0.70751 0.79622 0.0
C101 C 0.26132 0.72267 0.79694 0.0
C102 C 0.25509 0.72831 0.78077 0.0
C103 C 0.25512 0.72595 0.74723 0.0
H104 H 0.24613 0.73996 0.78107 0.0
C105 C 0.23555 0.72939 0.74319 0.0
C106 C 0.23047 0.73561 0.72696 0.0
C107 C 0.26957 0.72891 0.73492 0.0
H108 H 0.28477 0.72658 0.73776 0.0
C109 C 0.26465 0.73513 0.7189 0.0
H110 H 0.22432 0.72715 0.75261 0.0
C111 C 0.24526 0.73843 0.7149 0.0
H112 H 0.24179 0.7429 0.70219 0.0
H113 H 0.27589 0.73733 0.7095 0.0
H114 H 0.96339 0.581 0.45286 0.0
C115 C 0.95588 0.56786 0.45633 0.0
C116 C 0.9529 0.56661 0.47439 0.0
C117 C 0.94856 0.55255 0.44262 0.0
H118 H 0.94001 0.54875 0.49251 0.0
C119 C 0.94291 0.54959 0.47865 0.0
C120 C 0.93509 0.53431 0.46497 0.0
C121 C 0.93801 0.53588 0.44694 0.0
C122 C 0.9501 0.55496 0.42372 0.0
H123 H 0.93174 0.52433 0.43627 0.0
C124 C 0.96656 0.54987 0.41435 0.0
C125 C 0.96832 0.55305 0.39649 0.0
C126 C 0.93528 0.56315 0.41526 0.0
H127 H 0.92257 0.56723 0.42237 0.0
C128 C 0.9369 0.56636 0.39763 0.0
H129 H 0.97783 0.54337 0.42096 0.0
C130 C 0.95329 0.56145 0.38833 0.0
H131 H 0.95431 0.56454 0.3748 0.0
H132 H 0.92549 0.57283 0.39121 0.0
H133 H 0.87167 0.84016 0.81081 0.0
C134 C 0.86951 0.82913 0.81917 0.0
C135 C 0.87707 0.81156 0.81438 0.0
C136 C 0.85937 0.83268 0.83485 0.0
H137 H 0.88001 0.78393 0.82191 0.0
C138 C 0.8739 0.79735 0.82532 0.0
C139 C 0.8635 0.8006 0.84097 0.0
C140 C 0.85642 0.81842 0.84565 0.0
C141 C 0.85219 0.85149 0.84023 0.0
H142 H 0.84817 0.82111 0.85753 0.0
C143 C 0.83937 0.85862 0.8285 0.0
C144 C 0.83234 0.8764 0.83382 0.0
C145 C 0.85805 0.86231 0.85728 0.0
H146 H 0.86793 0.85707 0.8665 0.0
C147 C 0.8514 0.88007 0.86251 0.0
H148 H 0.83474 0.85024 0.81535 0.0
C149 C 0.83863 0.88709 0.8509 0.0
H150 H 0.83329 0.9007 0.85545 0.0
H151 H 0.85602 0.88835 0.87567 0.0
H152 H 0.36939 0.34557 0.31771 0.0
C153 C 0.36679 0.33421 0.32566 0.0
C154 C 0.3728 0.31609 0.31974 0.0
C155 C 0.3577 0.33788 0.34194 0.0
H156 H 0.37358 0.28744 0.32581 0.0
C157 C 0.36891 0.30143 0.33008 0.0
C158 C 0.35976 0.3049 0.34635 0.0
C159 C 0.35445 0.32323 0.35233 0.0
C160 C 0.3518 0.35711 0.34825 0.0
H161 H 0.34732 0.32596 0.36486 0.0
C162 C 0.33964 0.36564 0.3371 0.0
C163 C 0.33374 0.38378 0.34326 0.0
C164 C 0.35819 0.36692 0.36559 0.0
H165 H 0.3676 0.36064 0.37438 0.0
C166 C 0.35267 0.38502 0.37166 0.0
H167 H 0.33461 0.35806 0.32374 0.0
C168 C 0.34052 0.39341 0.36062 0.0
H169 H 0.33606 0.40726 0.36584 0.0
H170 H 0.35768 0.3925 0.38504 0.0
H171 H 0.52231 0.94415 0.53055 0.0
C172 C 0.51089 0.9536 0.53103 0.0
C173 C 0.50863 0.96583 0.5472 0.0
C174 C 0.49938 0.95439 0.51528 0.0
H175 H 0.49294 0.98856 0.55987 0.0
C176 C 0.49468 0.97896 0.54752 0.0
C177 C 0.48275 0.97958 0.53202 0.0
C178 C 0.48499 0.96709 0.51608 0.0
C179 C 0.50346 0.94328 0.49769 0.0
H180 H 0.47593 0.96777 0.50407 0.0
C181 C 0.50805 0.92425 0.49617 0.0
C182 C 0.51285 0.91438 0.47956 0.0
C183 C 0.5035 0.95211 0.48228 0.0
H184 H 0.5005 0.96684 0.48301 0.0
C185 C 0.5079 0.94224 0.46579 0.0
H186 H 0.50814 0.91722 0.50788 0.0
C187 C 0.51259 0.92354 0.4644 0.0
H188 H 0.51596 0.91617 0.45142 0.0
H189 H 0.50786 0.9492 0.45405 0.0
H190 H 0.28815 0.26342 0.73967 0.0
C191 C 0.28937 0.25731 0.72573 0.0
C192 C 0.29581 0.26934 0.71348 0.0
C193 C 0.28492 0.23734 0.72008 0.0
H194 H 0.30255 0.27038 0.68603 0.0
C195 C 0.29749 0.26119 0.69549 0.0
C196 C 0.29311 0.24127 0.68966 0.0
C197 C 0.28681 0.22945 0.70205 0.0
C198 C 0.27901 0.22443 0.73301 0.0
H199 H 0.28365 0.21401 0.69776 0.0
C200 C 0.26243 0.22699 0.74318 0.0
C201 C 0.25611 0.21387 0.75459 0.0
C202 C 0.28959 0.20894 0.73466 0.0
H203 H 0.30243 0.20673 0.72699 0.0
C204 C 0.28371 0.19616 0.7462 0.0
H205 H 0.2543 0.23898 0.74191 0.0
C206 C 0.26706 0.1985 0.75601 0.0
H207 H 0.26249 0.18795 0.76437 0.0
H208 H 0.29193 0.18422 0.74733 0.0
H209 H 0.82273 0.24157 0.74392 0.0
C210 C 0.81276 0.22819 0.74132 0.0
C211 C 0.81857 0.21147 0.74671 0.0
C212 C 0.79384 0.22793 0.73295 0.0
H213 H 0.80891 0.18183 0.74851 0.0
C214 C 0.80504 0.19446 0.74352 0.0
C215 C 0.78603 0.19397 0.73511 0.0
C216 C 0.78067 0.21079 0.72967 0.0
C217 C 0.78664 0.24612 0.73024 0.0
H218 H 0.76599 0.21082 0.72344 0.0
C219 C 0.78569 0.25172 0.71321 0.0
C220 C 0.7779 0.26883 0.71088 0.0
C221 C 0.77993 0.25764 0.74498 0.0
H222 H 0.78052 0.25347 0.75816 0.0
C223 C 0.77204 0.27438 0.74279 0.0
H224 H 0.79121 0.24287 0.70196 0.0
C225 C 0.77088 0.27989 0.72591 0.0
H226 H 0.76419 0.29273 0.72467 0.0
H227 H 0.76662 0.28305 0.7542 0.0
H228 H 0.5978 0.52746 0.55717 0.0
C229 C 0.58848 0.52528 0.56809 0.0
C230 C 0.58732 0.50786 0.57492 0.0
C231 C 0.57842 0.54036 0.57582 0.0
H232 H 0.57442 0.49239 0.59495 0.0
C233 C 0.5751 0.50547 0.58922 0.0
C234 C 0.56474 0.52042 0.59698 0.0
C235 C 0.56653 0.53776 0.59012 0.0
C236 C 0.5821 0.55963 0.57053 0.0
H237 H 0.55877 0.54944 0.59604 0.0
C238 C 0.57865 0.56238 0.55262 0.0
C239 C 0.58251 0.58093 0.54807 0.0
C240 C 0.58938 0.57553 0.58375 0.0
H241 H 0.59223 0.57374 0.59758 0.0
C242 C 0.59333 0.59382 0.57927 0.0
H243 H 0.57297 0.55021 0.54235 0.0
C244 C 0.58995 0.59653 0.56158 0.0
H245 H 0.59285 0.61095 0.55851 0.0
H246 H 0.59898 0.60596 0.58956 0.0
H247 H 0.61954 0.44678 0.96253 0.0
C248 C 0.60843 0.45093 0.95367 0.0
C249 C 0.61094 0.46938 0.94896 0.0
C250 C 0.59202 0.43755 0.94643 0.0
H251 H 0.59864 0.48858 0.93332 0.0
C252 C 0.59666 0.47444 0.93716 0.0
C253 C 0.58015 0.46119 0.92984 0.0
C254 C 0.57791 0.44275 0.93456 0.0
C255 C 0.59058 0.41758 0.94996 0.0
H256 H 0.56547 0.43226 0.92867 0.0
C257 C 0.58858 0.41351 0.96746 0.0
C258 C 0.58776 0.39444 0.97065 0.0
C259 C 0.59167 0.4025 0.9357 0.0
H260 H 0.59325 0.40539 0.92215 0.0
C261 C 0.59111 0.38364 0.93886 0.0
H262 H 0.58761 0.42511 0.97849 0.0
C263 C 0.58923 0.3796 0.95621 0.0
H264 H 0.58849 0.3648 0.9583 0.0
H265 H 0.59206 0.37209 0.9278 0.0
H266 H 0.78415 0.20571 0.25427 0.0
C267 C 0.77887 0.21131 0.26713 0.0
C268 C 0.7842 0.2038 0.28255 0.0
C269 C 0.76718 0.2264 0.26814 0.0
H270 H 0.78205 0.20674 0.31134 0.0
C271 C 0.77802 0.21214 0.29923 0.0
C272 C 0.76647 0.22742 0.30047 0.0
C273 C 0.7607 0.23416 0.28478 0.0
C274 C 0.76335 0.23507 0.25196 0.0
H275 H 0.75219 0.24621 0.28567 0.0
C276 C 0.74387 0.23626 0.24542 0.0
C277 C 0.74056 0.24367 0.22946 0.0
C278 C 0.77947 0.24182 0.24273 0.0
H279 H 0.79457 0.24115 0.24761 0.0
C280 C 0.77628 0.24962 0.22723 0.0
H281 H 0.73139 0.23076 0.25235 0.0
C282 C 0.75701 0.25051 0.22059 0.0
H283 H 0.75497 0.25663 0.2085 0.0
H284 H 0.78881 0.2549 0.22027 0.0
H285 H 0.47491 0.08685 0.9549 0.0
C286 C 0.46517 0.07432 0.9571 0.0
C287 C 0.45921 0.07278 0.97443 0.0
C288 C 0.45841 0.05994 0.94235 0.0
H289 H 0.4412 0.05521 0.98992 0.0
C290 C 0.44639 0.05642 0.97676 0.0
C291 C 0.43968 0.04176 0.96215 0.0
C292 C 0.446 0.04349 0.94497 0.0
C293 C 0.46243 0.06347 0.92405 0.0
H294 H 0.44038 0.03263 0.93349 0.0
C295 C 0.47433 0.05225 0.91309 0.0
C296 C 0.47857 0.05649 0.89594 0.0
C297 C 0.45461 0.07874 0.91774 0.0
H298 H 0.44545 0.08753 0.92602 0.0
C299 C 0.45852 0.08281 0.90073 0.0
H300 H 0.48039 0.04049 0.91799 0.0
C301 C 0.47045 0.07185 0.88992 0.0
H302 H 0.47369 0.07572 0.87697 0.0
H303 H 0.45246 0.09466 0.89599 0.0
Zn304 Zn 0.29401 0.84086 -0.00049 0.0
Zn305 Zn 0.26442 0.86166 0.00482 0.0
O306 O 0.26657 0.84892 0.02795 0.0
O307 O 0.29253 0.83338 0.02381 0.0
O308 O 0.24264 0.87883 0.00962 0.0
O309 O 0.3125 0.8639 0.99541 0.0
O310 O 0.28837 0.88148 0.00139 0.0
C311 C 0.27871 0.83833 0.03345 0.0
C312 C 0.26188 0.82832 0.97284 0.0
O313 O 0.25467 0.84288 0.98096 0.0
O314 O 0.27817 0.82391 0.97864 0.0
C315 C 0.22483 0.87291 0.01246 0.0
O316 O 0.21963 0.85444 0.01216 0.0
C317 C 0.3062 0.88012 0.9973 0.0
Zn318 Zn 0.13275 0.46402 0.25668 0.0
Zn319 Zn 0.1535 0.49915 0.25741 0.0
O320 O 0.13432 0.50523 0.27719 0.0
O321 O 0.11799 0.47649 0.27731 0.0
O322 O 0.17027 0.52432 0.25613 0.0
O323 O 0.15807 0.45311 0.26198 0.0
O324 O 0.17455 0.48202 0.26351 0.0
C325 C 0.12112 0.49435 0.28355 0.0
C326 C 0.12779 0.47813 0.22352 0.0
O327 O 0.1394 0.49242 0.23214 0.0
O328 O 0.12268 0.46367 0.23091 0.0
C329 C 0.16319 0.53992 0.25513 0.0
O330 O 0.14395 0.54026 0.25574 0.0
C331 C 0.1743 0.46427 0.26467 0.0
Zn332 Zn 0.82941 0.60941 0.95112 0.0
Zn333 Zn 0.82211 0.63282 0.98118 0.0
O334 O 0.84681 0.62095 0.98866 0.0
O335 O 0.85442 0.60369 0.96362 0.0
O336 O 0.81679 0.65004 0.004 0.0
O337 O 0.83035 0.6319 0.93771 0.0
O338 O 0.82639 0.6513 0.96275 0.0
C339 C 0.85809 0.61003 0.98025 0.0
C340 C 0.79182 0.59797 0.96494 0.0
O341 O 0.79674 0.61333 0.97632 0.0
O342 O 0.8034 0.59283 0.95295 0.0
C343 C 0.81775 0.64376 0.01882 0.0
O344 O 0.8222 0.62627 0.01884 0.0
C345 C 0.82912 0.64867 0.94599 0.0
Zn346 Zn 0.90066 0.00884 0.28761 0.0
Zn347 Zn 0.91608 0.00791 0.2557 0.0
O348 O 0.90383 0.03387 0.25965 0.0
O349 O 0.89185 0.03449 0.28632 0.0
O350 O 0.92964 0.00769 0.23221 0.0
O351 O 0.92698 0.00793 0.30011 0.0
O352 O 0.93945 0.00501 0.27357 0.0
C353 C 0.89494 0.04227 0.27261 0.0
C354 C 0.88347 0.97609 0.26123 0.0
O355 O 0.89509 0.98376 0.25085 0.0
O356 O 0.88316 0.98397 0.27748 0.0
C357 C 0.94366 0.02092 0.23101 0.0
O358 O 0.94854 0.03475 0.24485 0.0
C359 C 0.94154 0.00562 0.29055 0.0
Zn360 Zn 0.32513 0.10546 0.44514 0.0
Zn361 Zn 0.31786 0.12692 0.47649 0.0
O362 O 0.34119 0.11315 0.48363 0.0
O363 O 0.3474 0.09555 0.45825 0.0
O364 O 0.31222 0.14232 0.50002 0.0
O365 O 0.33105 0.12986 0.43476 0.0
O366 O 0.32374 0.14717 0.45992 0.0
C367 C 0.35121 0.10113 0.47498 0.0
C368 C 0.28586 0.09549 0.45659 0.0
O369 O 0.29207 0.10857 0.46992 0.0
O370 O 0.2969 0.09162 0.44379 0.0
C371 C 0.32501 0.15536 0.50889 0.0
O372 O 0.34228 0.15929 0.50229 0.0
C373 C 0.32906 0.14605 0.44385 0.0
Zn374 Zn 0.38742 0.4994 0.79625 0.0
Zn375 Zn 0.40995 0.50223 0.76918 0.0
O376 O 0.39521 0.52677 0.77085 0.0
O377 O 0.37751 0.52428 0.79419 0.0
O378 O 0.42701 0.50324 0.74782 0.0
O379 O 0.41118 0.49863 0.81267 0.0
O380 O 0.43045 0.50195 0.7905 0.0
C381 C 0.38288 0.53335 0.78177 0.0
C382 C 0.37752 0.46731 0.76859 0.0
O383 O 0.39193 0.476 0.76157 0.0
O384 O 0.37203 0.47474 0.7836 0.0
C385 C 0.44107 0.51669 0.74742 0.0
O386 O 0.4446 0.53077 0.76121 0.0
C387 C 0.42835 0.50007 0.80686 0.0
Zn388 Zn 0.79005 0.33611 0.50728 0.0
Zn389 Zn 0.75988 0.35738 0.51065 0.0
O390 O 0.76063 0.34454 0.53373 0.0
O391 O 0.78451 0.32614 0.53009 0.0
O392 O 0.73791 0.37443 0.51477 0.0
O393 O 0.80935 0.36028 0.50732 0.0
O394 O 0.78413 0.3771 0.50852 0.0
C395 C 0.77087 0.33242 0.53926 0.0
C396 C 0.76017 0.32559 0.47774 0.0
O397 O 0.7518 0.33917 0.48622 0.0
O398 O 0.77635 0.3214 0.48408 0.0
C399 C 0.72068 0.3686 0.51919 0.0
O400 O 0.71631 0.3504 0.52064 0.0
C401 C 0.80266 0.3762 0.50748 0.0
Zn402 Zn 0.62503 0.9454 0.74596 0.0
Zn403 Zn 0.64533 0.98083 0.7463 0.0
O404 O 0.62655 0.98648 0.76643 0.0
O405 O 0.61017 0.95779 0.76664 0.0
O406 O 0.66169 0.00625 0.74529 0.0
O407 O 0.65081 0.93503 0.75119 0.0
O408 O 0.66672 0.96405 0.75195 0.0
C409 C 0.61342 0.97565 0.7729 0.0
C410 C 0.61939 0.95958 0.71273 0.0
O411 O 0.63086 0.97405 0.72121 0.0
O412 O 0.61476 0.94506 0.72019 0.0
C413 C 0.65418 0.02172 0.74483 0.0
O414 O 0.63489 0.02153 0.74553 0.0
C415 C 0.66689 0.94643 0.75339 0.0
Zn416 Zn 0.0447 0.24809 0.85485 0.0
Zn417 Zn 0.04214 0.21763 0.86969 0.0
O418 O 0.06663 0.21572 0.85396 0.0
O419 O 0.06496 0.23915 0.83835 0.0
O420 O 0.04216 0.19463 0.88271 0.0
O421 O 0.05341 0.26552 0.87811 0.0
O422 O 0.04544 0.24041 0.89119 0.0
C423 C 0.07306 0.2249 0.84174 0.0
C424 C 0.00622 0.22635 0.84784 0.0
O425 O 0.0145 0.2141 0.85526 0.0
O426 O 0.0158 0.24254 0.84695 0.0
C427 C 0.0583 0.1933 0.89139 0.0
O428 O 0.07368 0.20629 0.89092 0.0
C429 C 0.05092 0.2584 0.89226 0.0
Zn430 Zn 0.54097 0.73597 0.34196 0.0
Zn431 Zn 0.53817 0.69363 0.37164 0.0
O432 O 0.56263 0.68827 0.3571 0.0
O433 O 0.55101 0.7118 0.34777 0.0
O434 O 0.53823 0.67823 0.39211 0.0
O435 O 0.54273 0.7494 0.36815 0.0
O436 O 0.54027 0.72373 0.38274 0.0
C437 C 0.56455 0.70102 0.34717 0.0
C438 C 0.51181 0.69803 0.3453 0.0
O439 O 0.51222 0.68526 0.3552 0.0
O440 O 0.52705 0.71047 0.347 0.0
C441 C 0.54345 0.66143 0.38959 0.0
O442 O 0.5481 0.65409 0.37348 0.0
C443 C 0.54188 0.74205 0.38262 0.0
Zn444 Zn 0.97912 0.78258 0.61178 0.0
Zn445 Zn 0.01252 0.77464 0.6276 0.0
O446 O 0.02192 0.79597 0.613 0.0
O447 O 0.99442 0.80402 0.60152 0.0
O448 O 0.03806 0.77038 0.64021 0.0
O449 O 0.96729 0.7878 0.63579 0.0
O450 O 0.9949 0.78159 0.64871 0.0
C451 C 0.01319 0.80629 0.60358 0.0
C452 C 0.98795 0.7436 0.59999 0.0
O453 O 0.0028 0.74866 0.61142 0.0
O454 O 0.97592 0.75544 0.59764 0.0
C455 C 0.03877 0.75732 0.64983 0.0
O456 O 0.02244 0.74598 0.65145 0.0
C457 C 0.97742 0.78628 0.64986 0.0
Zn458 Zn 0.47948 0.27862 0.11951 0.0
Zn459 Zn 0.5133 0.27318 0.13692 0.0
O460 O 0.52262 0.29446 0.12239 0.0
O461 O 0.49499 0.29957 0.10859 0.0
O462 O 0.53846 0.2695 0.15058 0.0
O463 O 0.4671 0.28511 0.14301 0.0
O464 O 0.49451 0.28009 0.15718 0.0
C465 C 0.51362 0.30339 0.11181 0.0
C466 C 0.49024 0.24035 0.10963 0.0
O467 O 0.50516 0.24698 0.12065 0.0
O468 O 0.47693 0.25083 0.107 0.0
C469 C 0.5526 0.26297 0.14213 0.0
O470 O 0.55053 0.25874 0.1245 0.0
C471 C 0.47685 0.28446 0.15754 0.0
C472 C 0.25635 0.75303 0.81775 0.0
C473 C 0.25619 0.73292 0.81462 0.0
C474 C 0.25267 0.76274 0.83468 0.0
C475 C 0.25745 0.75817 0.88206 0.0
H476 H 0.22505 0.79975 0.88961 0.0
C477 C 0.25111 0.79689 0.9533 0.0
C478 C 0.25253 0.81701 0.95581 0.0
C479 C 0.24713 0.78597 0.93614 0.0
C480 C 0.23428 0.78827 0.88775 0.0
H481 H 0.25105 0.70722 0.82676 0.0
H482 H 0.2451 0.7242 0.85633 0.0
H483 H 0.22702 0.78212 0.85925 0.0
H484 H 0.25 0.84155 0.94263 0.0
H485 H 0.24375 0.82259 0.91242 0.0
H486 H 0.26553 0.76463 0.91016 0.0
C487 C 0.24823 0.73245 0.84569 0.0
C488 C 0.23535 0.77815 0.87035 0.0
C489 C 0.25173 0.72274 0.82875 0.0
C490 C 0.24869 0.82601 0.94102 0.0
C491 C 0.24515 0.81509 0.92371 0.0
C492 C 0.25657 0.76837 0.89935 0.0
C493 C 0.24892 0.75258 0.84891 0.0
C494 C 0.24698 0.763 0.86734 0.0
C495 C 0.24511 0.79496 0.92097 0.0
C496 C 0.24498 0.78359 0.9025 0.0
H497 H 0.25997 0.76141 0.8073 0.0
H498 H 0.25353 0.77827 0.8368 0.0
H499 H 0.26685 0.74683 0.88016 0.0
H500 H 0.254 0.78964 0.96454 0.0
H501 H 0.24654 0.77049 0.93472 0.0
C502 C 0.00493 0.55044 0.39497 0.0
C503 C 0.98574 0.54787 0.38637 0.0
C504 C 0.02128 0.54609 0.38522 0.0
C505 C 0.03838 0.54099 0.33948 0.0
H506 H 0.07552 0.50947 0.35655 0.0
C507 C 0.0976 0.49016 0.3075 0.0
C508 C 0.10873 0.50244 0.29775 0.0
C509 C 0.0847 0.49737 0.31996 0.0
C510 C 0.06531 0.51837 0.35167 0.0
H511 H 0.96879 0.53806 0.36077 0.0
H512 H 0.99731 0.53096 0.34381 0.0
H513 H 0.04849 0.51874 0.375 0.0
H514 H 0.11537 0.53204 0.29375 0.0
H515 H 0.0925 0.54462 0.31542 0.0
H516 H 0.05494 0.54034 0.31602 0.0
C517 C -0.0003 0.53655 0.35806 0.0
C518 C 0.04993 0.52376 0.36226 0.0
C519 C 0.98335 0.54067 0.36781 0.0
C520 C 0.10702 0.52221 0.30107 0.0
C521 C 0.09387 0.5294 0.31339 0.0
C522 C 0.05388 0.5358 0.32899 0.0
C523 C 0.01884 0.53928 0.36663 0.0
C524 C 0.03609 0.53482 0.35612 0.0
C525 C 0.08244 0.517 0.32283 0.0
C526 C 0.06731 0.52415 0.33483 0.0
H527 H 0.00741 0.5562 0.40917 0.0
H528 H 0.0359 0.54843 0.39216 0.0
H529 H 0.02803 0.54969 0.33448 0.0
H530 H 0.09863 0.47487 0.30532 0.0
H531 H 0.07596 0.48744 0.3269 0.0
C532 C 0.85486 0.766 0.8445 0.0
C533 C 0.85989 0.78542 0.85238 0.0
C534 C 0.85095 0.75182 0.85518 0.0
C535 C 0.85853 0.74215 0.90169 0.0
H536 H 0.81647 0.70011 0.88546 0.0
C537 C 0.83346 0.68421 0.94505 0.0
C538 C 0.83117 0.66508 0.936 0.0
C539 C 0.83614 0.69954 0.93545 0.0
C540 C 0.82833 0.71171 0.89013 0.0
H541 H 0.86513 0.80504 0.87779 0.0
H542 H 0.85777 0.7804 0.89637 0.0
H543 H 0.82298 0.72553 0.86756 0.0
H544 H 0.82957 0.6471 0.90972 0.0
H545 H 0.83415 0.67372 0.8931 0.0
H546 H 0.86379 0.72825 0.92431 0.0
C547 C 0.85706 0.77608 0.88192 0.0
C548 C 0.83213 0.72625 0.87983 0.0
C549 C 0.86105 0.79026 0.87124 0.0
C550 C 0.8313 0.66164 0.91715 0.0
C551 C 0.8338 0.67691 0.90758 0.0
C552 C 0.85465 0.72763 0.91204 0.0
C553 C 0.85188 0.75668 0.87403 0.0
C554 C 0.84743 0.74156 0.88536 0.0
C555 C 0.83637 0.69603 0.9166 0.0
C556 C 0.83966 0.71213 0.90627 0.0
H557 H 0.85363 0.76176 0.83002 0.0
H558 H 0.8473 0.73699 0.84863 0.0
H559 H 0.87058 0.75357 0.90627 0.0
H560 H 0.83344 0.68736 0.95956 0.0
H561 H 0.83793 0.71414 0.94275 0.0
C562 C 0.05023 0.94772 0.39223 0.0
C563 C 0.07049 0.95502 0.39512 0.0
C564 C 0.03859 0.95243 0.37821 0.0
C565 C 0.03535 0.99095 0.35226 0.0
H566 H 0.99651 0.95431 0.32121 0.0
C567 C 0.96548 0.01061 0.31733 0.0
C568 C 0.96039 0.00228 0.2993 0.0
C569 C 0.98159 0.00543 0.32671 0.0
C570 C 0.00747 0.96465 0.32963 0.0
H571 H 0.09461 0.97203 0.3847 0.0
H572 H 0.07414 0.9807 0.36069 0.0
H573 H 0.01923 0.94287 0.34204 0.0
H574 H 0.96844 0.98241 0.27676 0.0
H575 H 0.9965 0.97291 0.29343 0.0
H576 H 0.02307 0.0128 0.3404 0.0
C577 C 0.06727 0.97147 0.36939 0.0
C578 C 0.02032 0.95813 0.34164 0.0
C579 C 0.07895 0.96658 0.38323 0.0
C580 C 0.97216 0.98915 0.29061 0.0
C581 C 0.98808 0.98362 0.30015 0.0
C582 C 0.02231 0.99749 0.34047 0.0
C583 C 0.04693 0.96467 0.36688 0.0
C584 C 0.03423 0.97125 0.35321 0.0
C585 C 0.99272 0.99152 0.31837 0.0
C586 C 0.00809 0.98443 0.32921 0.0
H587 H 0.04318 0.93891 0.40117 0.0
H588 H 0.02289 0.94711 0.37666 0.0
H589 H 0.04583 0.0014 0.36111 0.0
H590 H 0.95665 0.02077 0.32435 0.0
H591 H 0.98475 0.01164 0.34077 0.0
C592 C 0.31263 0.23902 0.66222 0.0
C593 C 0.2957 0.23281 0.67075 0.0
C594 C 0.31517 0.23105 0.64446 0.0
C595 C 0.29864 0.18827 0.60992 0.0
H596 H 0.32082 0.22085 0.57732 0.0
C597 C 0.3029 0.15998 0.53442 0.0
C598 C 0.32081 0.16526 0.52684 0.0
C599 C 0.29927 0.16869 0.55168 0.0
C600 C 0.31476 0.21155 0.58631 0.0
H601 H 0.26805 0.21354 0.66729 0.0
H602 H 0.27239 0.19969 0.63622 0.0
H603 H 0.31541 0.23508 0.60801 0.0
H604 H 0.34881 0.18408 0.53135 0.0
H605 H 0.34246 0.19923 0.56151 0.0
H606 H 0.298 0.16474 0.5882 0.0
C607 C 0.28387 0.21052 0.64335 0.0
C608 C 0.31168 0.21969 0.6039 0.0
C609 C 0.28136 0.21845 0.66114 0.0
C610 C 0.33486 0.17968 0.53679 0.0
C611 C 0.33118 0.18844 0.55404 0.0
C612 C 0.30167 0.18014 0.59231 0.0
C613 C 0.30082 0.21671 0.6348 0.0
C614 C 0.30366 0.20813 0.61595 0.0
C615 C 0.31342 0.18292 0.56174 0.0
C616 C 0.30983 0.19167 0.58033 0.0
H617 H 0.32411 0.24982 0.66937 0.0
H618 H 0.32857 0.23591 0.63841 0.0
H619 H 0.29274 0.1789 0.61891 0.0
H620 H 0.29173 0.14896 0.52711 0.0
H621 H 0.28533 0.16431 0.55714 0.0
C622 C 0.55423 0.53385 0.62735 0.0
C623 C 0.55279 0.51856 0.6128 0.0
C624 C 0.54225 0.53283 0.64178 0.0
C625 C 0.51012 0.49908 0.66433 0.0
H626 H 0.48891 0.54564 0.68432 0.0
C627 C 0.45091 0.50066 0.71751 0.0
C628 C 0.45354 0.51636 0.73175 0.0
C629 C 0.46284 0.50036 0.70286 0.0
C630 C 0.49486 0.53255 0.67903 0.0
H631 H 0.53793 0.48996 0.60227 0.0
H632 H 0.51679 0.48819 0.62745 0.0
H633 H 0.51001 0.54589 0.65922 0.0
H634 H 0.47087 0.54406 0.74168 0.0
H635 H 0.4916 0.54354 0.71622 0.0
H636 H 0.49476 0.48575 0.68417 0.0
C637 C 0.52735 0.50094 0.62776 0.0
C638 C 0.50701 0.53269 0.66462 0.0
C639 C 0.53945 0.50195 0.6133 0.0
C640 C 0.46837 0.53176 0.73095 0.0
C641 C 0.48021 0.5315 0.71628 0.0
C642 C 0.49787 0.49892 0.67874 0.0
C643 C 0.52841 0.5165 0.64208 0.0
C644 C 0.51498 0.51602 0.65715 0.0
C645 C 0.47761 0.51582 0.70203 0.0
C646 C 0.49021 0.51571 0.68637 0.0
H647 H 0.56467 0.54669 0.6276 0.0
H648 H 0.5439 0.54489 0.65275 0.0
H649 H 0.51612 0.48602 0.65907 0.0
H650 H 0.43965 0.48854 0.71768 0.0
H651 H 0.4603 0.48814 0.69205 0.0
C652 C 0.77908 0.29502 0.69189 0.0
C653 C 0.77686 0.27527 0.69298 0.0
C654 C 0.77695 0.30125 0.67538 0.0
C655 C 0.75766 0.284 0.62752 0.0
H656 H 0.78777 0.33181 0.62034 0.0
C657 C 0.7711 0.30702 0.55846 0.0
C658 C 0.76745 0.32567 0.55651 0.0
C659 C 0.76994 0.30094 0.5751 0.0
C660 C 0.7791 0.31855 0.62225 0.0
H661 H 0.77108 0.24662 0.67711 0.0
H662 H 0.76869 0.25744 0.64825 0.0
H663 H 0.79182 0.32071 0.64897 0.0
H664 H 0.75938 0.3525 0.57036 0.0
H665 H 0.75802 0.34202 0.59982 0.0
H666 H 0.74589 0.2815 0.60026 0.0
C667 C 0.77132 0.26819 0.6603 0.0
C668 C 0.78133 0.31215 0.63871 0.0
C669 C 0.77307 0.26194 0.67691 0.0
C670 C 0.76215 0.33801 0.57148 0.0
C671 C 0.76148 0.33207 0.5883 0.0
C672 C 0.75577 0.29022 0.61094 0.0
C673 C 0.77301 0.28797 0.65929 0.0
C674 C 0.77065 0.29476 0.64163 0.0
C675 C 0.76555 0.31353 0.59026 0.0
C676 C 0.76646 0.30756 0.60816 0.0
H677 H 0.78246 0.30582 0.70385 0.0
H678 H 0.77811 0.31658 0.67536 0.0
H679 H 0.74881 0.27078 0.62926 0.0
H680 H 0.77517 0.29718 0.54713 0.0
H681 H 0.77324 0.28663 0.57627 0.0
C682 C 0.52411 0.9477 0.56886 0.0
C683 C 0.52131 0.96533 0.5636 0.0
C684 C 0.53589 0.94724 0.58442 0.0
C685 C 0.55728 0.9781 0.627 0.0
H686 H 0.5897 0.93703 0.62888 0.0
C687 C 0.61193 0.97743 0.68766 0.0
C688 C 0.61061 0.96008 0.69452 0.0
C689 C 0.60232 0.97821 0.67107 0.0
C690 C 0.58065 0.94854 0.62856 0.0
H691 H 0.52906 0.99625 0.57017 0.0
H692 H 0.54995 0.99549 0.5971 0.0
H693 H 0.57047 0.93827 0.60108 0.0
H694 H 0.59872 0.92982 0.68902 0.0
H695 H 0.58213 0.93118 0.66 0.0
H696 H 0.56764 0.98844 0.65445 0.0
C697 C 0.54264 0.98201 0.58953 0.0
C698 C 0.56955 0.94922 0.61266 0.0
C699 C 0.53071 0.98247 0.57407 0.0
C700 C 0.59999 0.94342 0.68415 0.0
C701 C 0.59057 0.94417 0.66749 0.0
C702 C 0.56851 0.97752 0.64282 0.0
C703 C 0.54531 0.96439 0.59497 0.0
C704 C 0.5576 0.96394 0.61171 0.0
C705 C 0.59138 0.96163 0.6609 0.0
C706 C 0.5802 0.96266 0.64381 0.0
H707 H 0.51688 0.93428 0.56112 0.0
H708 H 0.53729 0.93343 0.58833 0.0
H709 H 0.54799 0.98945 0.62691 0.0
H710 H 0.61998 0.99053 0.69529 0.0
H711 H 0.60336 0.99182 0.66623 0.0
C712 C 0.84881 0.19603 0.75415 0.0
C713 C 0.83814 0.21197 0.75673 0.0
C714 C 0.86676 0.19623 0.7641 0.0
C715 C 0.90807 0.22928 0.78901 0.0
H716 H 0.918 0.18665 0.813 0.0
C717 C 0.97428 0.23756 0.83997 0.0
C718 C 0.98555 0.22224 0.83989 0.0
C719 C 0.95586 0.23494 0.83042 0.0
C720 C 0.91558 0.19857 0.8062 0.0
H721 H 0.8381 0.24055 0.77214 0.0
H722 H 0.86961 0.24109 0.789 0.0
H723 H 0.88703 0.18475 0.79448 0.0
H724 H 0.98599 0.19188 0.8304 0.0
H725 H 0.95374 0.18727 0.81315 0.0
H726 H 0.93653 0.24303 0.80026 0.0
C727 C 0.86406 0.22845 0.7792 0.0
C728 C 0.89783 0.19749 0.79562 0.0
C729 C 0.84604 0.22818 0.76943 0.0
C730 C 0.97755 0.20391 0.83072 0.0
C731 C 0.9591 0.20132 0.82085 0.0
C732 C 0.92581 0.23029 0.79937 0.0
C733 C 0.8746 0.21248 0.7767 0.0
C734 C 0.89378 0.21298 0.78715 0.0
C735 C 0.9483 0.21697 0.8202 0.0
C736 C 0.92969 0.21512 0.8084 0.0
H737 H 0.84336 0.18339 0.74433 0.0
H738 H 0.87466 0.1838 0.76174 0.0
H739 H 0.90556 0.24128 0.78235 0.0
H740 H 0.97993 0.2518 0.84715 0.0
H741 H 0.94772 0.24718 0.83078 0.0
C742 C 0.53509 0.8902 0.46848 0.0
C743 C 0.5184 0.89464 0.47775 0.0
C744 C 0.53924 0.87128 0.46473 0.0
C745 C 0.54911 0.83086 0.46244 0.0
H746 H 0.50415 0.79486 0.43978 0.0
C747 C 0.53041 0.75142 0.41354 0.0
C748 C 0.5425 0.75556 0.39972 0.0
C749 C 0.52882 0.76568 0.42839 0.0
C750 C 0.51681 0.80454 0.44646 0.0
H751 H 0.49345 0.88292 0.49116 0.0
H752 H 0.50072 0.84958 0.48457 0.0
H753 H 0.49858 0.82576 0.4568 0.0
H754 H 0.5634 0.77721 0.39109 0.0
H755 H 0.56104 0.80179 0.41705 0.0
H756 H 0.56738 0.81015 0.45099 0.0
C757 C 0.51053 0.86081 0.48013 0.0
C758 C 0.51363 0.82226 0.45624 0.0
C759 C 0.50644 0.87987 0.484 0.0
C760 C 0.5539 0.77368 0.40153 0.0
C761 C 0.55265 0.78771 0.41646 0.0
C762 C 0.55228 0.81322 0.45258 0.0
C763 C 0.52678 0.85627 0.47013 0.0
C764 C 0.52981 0.83598 0.46363 0.0
C765 C 0.53971 0.78407 0.42981 0.0
C766 C 0.53621 0.80025 0.44385 0.0
H767 H 0.54467 0.90134 0.46367 0.0
H768 H 0.55171 0.86834 0.45679 0.0
H769 H 0.56186 0.84093 0.46832 0.0
H770 H 0.52139 0.73757 0.41239 0.0
H771 H 0.51873 0.76253 0.43851 0.0
C772 C 0.23652 0.21081 0.78172 0.0
C773 C 0.2377 0.21555 0.76437 0.0
C774 C 0.21882 0.21114 0.7904 0.0
C775 C 0.17191 0.23196 0.79097 0.0
H776 H 0.15216 0.18888 0.81374 0.0
C777 C 0.09351 0.2259 0.81536 0.0
C778 C 0.09068 0.22006 0.83206 0.0
C779 C 0.11121 0.22398 0.80708 0.0
C780 C 0.15757 0.20112 0.80764 0.0
H781 H 0.22099 0.22442 0.74265 0.0
H782 H 0.19033 0.22544 0.75798 0.0
H783 H 0.18392 0.18905 0.79985 0.0
H784 H 0.10386 0.20686 0.85283 0.0
H785 H 0.13517 0.20385 0.8385 0.0
H786 H 0.14591 0.24426 0.79891 0.0
C787 C 0.20317 0.22152 0.76486 0.0
C788 C 0.17576 0.20121 0.79967 0.0
C789 C 0.22081 0.22102 0.75611 0.0
C790 C 0.10562 0.21142 0.83993 0.0
C791 C 0.12354 0.2097 0.8317 0.0
C792 C 0.15386 0.23196 0.79903 0.0
C793 C 0.20193 0.21642 0.78203 0.0
C794 C 0.18301 0.21655 0.79109 0.0
C795 C 0.12672 0.21643 0.81538 0.0
C796 C 0.1463 0.21644 0.80729 0.0
H797 H 0.24931 0.20684 0.78864 0.0
H798 H 0.2184 0.20742 0.80374 0.0
H799 H 0.17727 0.24415 0.78475 0.0
H800 H 0.08216 0.23238 0.80883 0.0
H801 H 0.11285 0.22876 0.79426 0.0
C802 C 0.55977 0.57813 0.52027 0.0
C803 C 0.57841 0.58453 0.5295 0.0
C804 C 0.55509 0.58391 0.50385 0.0
C805 C 0.54557 0.61076 0.47746 0.0
H806 H 0.58401 0.61415 0.44144 0.0
C807 C 0.54017 0.65809 0.42203 0.0
C808 C 0.54537 0.65063 0.40474 0.0
C809 C 0.54291 0.64823 0.43641 0.0
C810 C 0.57301 0.61314 0.45127 0.0
H811 H 0.60707 0.60114 0.52837 0.0
H812 H 0.59902 0.61107 0.49976 0.0
H813 H 0.59141 0.59914 0.46741 0.0
H814 H 0.55715 0.62671 0.389 0.0
H815 H 0.56192 0.6096 0.41403 0.0
H816 H 0.52726 0.62497 0.46138 0.0
C817 C 0.58797 0.60166 0.50515 0.0
C818 C 0.57733 0.60467 0.46623 0.0
C819 C 0.59256 0.59606 0.52159 0.0
C820 C 0.55304 0.63293 0.40213 0.0
C821 C 0.55588 0.62315 0.41651 0.0
C822 C 0.5413 0.61937 0.46255 0.0
C823 C 0.56905 0.59599 0.49624 0.0
C824 C 0.56375 0.60355 0.47961 0.0
C825 C 0.55102 0.63074 0.43387 0.0
C826 C 0.55506 0.62082 0.44934 0.0
H827 H 0.54854 0.56935 0.52611 0.0
H828 H 0.54045 0.57916 0.49723 0.0
H829 H 0.53486 0.61029 0.4876 0.0
H830 H 0.53423 0.67167 0.42453 0.0
H831 H 0.53919 0.65458 0.44964 0.0
C832 C 0.88544 0.79037 0.78648 0.0
C833 C 0.88849 0.80819 0.79808 0.0
C834 C 0.89595 0.78736 0.77102 0.0
C835 C 0.94066 0.80633 0.74992 0.0
H836 H 0.91178 0.77995 0.70566 0.0
C837 C 0.97869 0.78651 0.68328 0.0
C838 C 0.96846 0.78927 0.66747 0.0
C839 C 0.96964 0.78851 0.69965 0.0
C840 C 0.92005 0.78743 0.71789 0.0
H841 H 0.90538 0.83666 0.80275 0.0
H842 H 0.92342 0.83153 0.77564 0.0
H843 H 0.89474 0.78399 0.73338 0.0
H844 H 0.94082 0.79669 0.65662 0.0
H845 H 0.92525 0.80032 0.68503 0.0
H846 H 0.96586 0.81015 0.73427 0.0
C847 C 0.91302 0.81982 0.77855 0.0
C848 C 0.91033 0.78954 0.73383 0.0
C849 C 0.90248 0.82284 0.79398 0.0
C850 C 0.94913 0.79435 0.66848 0.0
C851 C 0.94011 0.7963 0.68477 0.0
C852 C 0.95041 0.80416 0.73395 0.0
C853 C 0.9098 0.80208 0.76682 0.0
C854 C 0.92046 0.79915 0.75002 0.0
C855 C 0.95016 0.79324 0.70053 0.0
C856 C 0.94016 0.79486 0.71771 0.0
H857 H 0.87468 0.77882 0.78918 0.0
H858 H 0.89326 0.77345 0.76237 0.0
H859 H 0.94895 0.81362 0.7622 0.0
H860 H 0.99357 0.78255 0.68298 0.0
H861 H 0.97774 0.78593 0.71153 0.0
C862 C 0.06863 0.89153 0.48529 0.0
C863 C 0.08474 0.88497 0.4763 0.0
C864 C 0.06398 0.88597 0.50171 0.0
C865 C 0.07151 0.84712 0.5278 0.0
H866 H 0.04553 0.87827 0.56422 0.0
C867 C 0.04484 0.818 0.59063 0.0
C868 C 0.02479 0.81959 0.59353 0.0
C869 C 0.05483 0.82852 0.57886 0.0
C870 C 0.05281 0.86943 0.55416 0.0
H871 H 0.10941 0.86854 0.47794 0.0
H872 H 0.10178 0.85937 0.50684 0.0
H873 H 0.05847 0.8922 0.53891 0.0
H874 H -7e-05 0.83443 0.58724 0.0
H875 H 0.0174 0.85285 0.56689 0.0
H876 H 0.06569 0.82433 0.54297 0.0
C877 C 0.09226 0.86824 0.50099 0.0
C878 C 0.06015 0.87737 0.5396 0.0
C879 C 0.09673 0.87358 0.48449 0.0
C880 C 0.01534 0.83279 0.58524 0.0
C881 C 0.02539 0.84344 0.57364 0.0
C882 C 0.06436 0.83927 0.54242 0.0
C883 C 0.07549 0.87391 0.50961 0.0
C884 C 0.06929 0.8662 0.52604 0.0
C885 C 0.04506 0.84103 0.56992 0.0
C886 C 0.05462 0.85022 0.55561 0.0
H887 H 0.05905 0.90019 0.4792 0.0
H888 H 0.05082 0.89046 0.50778 0.0
H889 H 0.07807 0.8379 0.51751 0.0
H890 H 0.05256 0.80798 0.59681 0.0
H891 H 0.07006 0.82651 0.57639 0.0
C892 C 0.20622 0.75457 0.714 0.0
C893 C 0.20978 0.7388 0.72225 0.0
C894 C 0.18698 0.75683 0.70819 0.0
C895 C 0.13786 0.7289 0.69435 0.0
H896 H 0.12094 0.77945 0.69705 0.0
C897 C 0.05888 0.74018 0.66933 0.0
C898 C 0.05775 0.75511 0.6593 0.0
C899 C 0.07679 0.73818 0.6783 0.0
C900 C 0.1255 0.76524 0.69608 0.0
H901 H 0.19576 0.71327 0.73125 0.0
H902 H 0.16204 0.7174 0.72138 0.0
H903 H 0.15311 0.7762 0.71107 0.0
H904 H 0.07462 0.77967 0.65087 0.0
H905 H 0.10581 0.77612 0.66642 0.0
H906 H 0.11028 0.71798 0.67922 0.0
C907 C 0.17422 0.72789 0.7192 0.0
C908 C 0.14394 0.76337 0.70412 0.0
C909 C 0.19352 0.72564 0.72504 0.0
C910 C 0.07493 0.76802 0.65849 0.0
C911 C 0.0928 0.76607 0.66751 0.0
C912 C 0.11938 0.73077 0.68634 0.0
C913 C 0.17075 0.74339 0.71049 0.0
C914 C 0.15048 0.74521 0.70315 0.0
C915 C 0.09396 0.75113 0.67753 0.0
C916 C 0.1131 0.74899 0.6869 0.0
H917 H 0.21838 0.76511 0.71185 0.0
H918 H 0.18492 0.76883 0.70139 0.0
H919 H 0.14252 0.71472 0.69312 0.0
H920 H 0.04592 0.73001 0.67027 0.0
H921 H 0.07715 0.72662 0.68603 0.0
C922 C 0.95205 0.60142 0.48597 0.0
C923 C 0.95819 0.5838 0.48851 0.0
C924 C 0.95578 0.61748 0.49954 0.0
C925 C 0.98819 0.64048 0.53835 0.0
H926 H 0.9434 0.6675 0.55157 0.0
C927 C 0.9959 0.70956 0.59268 0.0
C928 C 0.98481 0.72411 0.58895 0.0
C929 C 0.99281 0.69129 0.58193 0.0
C930 C 0.95614 0.66029 0.54793 0.0
H931 H 0.97336 0.56921 0.50706 0.0
H932 H 0.98035 0.59767 0.53082 0.0
H933 H 0.93823 0.63794 0.52964 0.0
H934 H 0.962 0.73091 0.57081 0.0
H935 H 0.95706 0.69956 0.55196 0.0
H936 H 0.00629 0.66326 0.55606 0.0
C937 C 0.97253 0.59888 0.51831 0.0
C938 C 0.95312 0.64329 0.53544 0.0
C939 C 0.96848 0.58265 0.5048 0.0
C940 C 0.97067 0.72002 0.57423 0.0
C941 C 0.96773 0.70191 0.56344 0.0
C942 C 0.99129 0.6577 0.55071 0.0
C943 C 0.96594 0.61635 0.51586 0.0
C944 C 0.96914 0.6334 0.5303 0.0
C945 C 0.97865 0.68724 0.56717 0.0
C946 C 0.97533 0.66802 0.55539 0.0
H947 H 0.94389 0.60266 0.47364 0.0
H948 H 0.95068 0.63083 0.49727 0.0
H949 H 0.00079 0.63311 0.53454 0.0
H950 H 0.00689 0.71224 0.60395 0.0
H951 H 0.00138 0.6803 0.5853 0.0
C952 C 0.78804 0.81744 0.20202 0.0
C953 C 0.78915 0.80515 0.21484 0.0
C954 C 0.79616 0.83681 0.20614 0.0
C955 C 0.81015 0.87685 0.24282 0.0
H956 H 0.85122 0.89463 0.21325 0.0
C957 C 0.86304 0.94644 0.26723 0.0
C958 C 0.87082 0.95753 0.25476 0.0
C959 C 0.85159 0.92866 0.26147 0.0
C960 C 0.83951 0.89013 0.22147 0.0
H961 H 0.7995 0.80407 0.24228 0.0
H962 H 0.81271 0.838 0.24961 0.0
H963 H 0.83311 0.86235 0.20482 0.0
H964 H 0.87235 0.95878 0.22639 0.0
H965 H 0.85163 0.92799 0.21624 0.0
H966 H 0.81604 0.90456 0.25929 0.0
C967 C 0.80566 0.83247 0.23633 0.0
C968 C 0.82921 0.87157 0.21665 0.0
C969 C 0.79793 0.81302 0.23212 0.0
C970 C 0.86664 0.95052 0.23633 0.0
C971 C 0.85485 0.93279 0.23053 0.0
C972 C 0.82014 0.89551 0.24746 0.0
C973 C 0.80516 0.84445 0.22329 0.0
C974 C 0.81472 0.86466 0.22748 0.0
C975 C 0.84724 0.92155 0.24304 0.0
C976 C 0.8353 0.90229 0.23709 0.0
H977 H 0.78103 0.81209 0.1887 0.0
H978 H 0.79543 0.84584 0.19592 0.0
H979 H 0.79886 0.8719 0.25127 0.0
H980 H 0.86616 0.9513 0.28154 0.0
H981 H 0.84653 0.92032 0.27156 0.0
C982 C 0.81113 0.18688 0.29485 0.0
C983 C 0.79665 0.1877 0.28114 0.0
C984 C 0.82287 0.17188 0.29337 0.0
C985 C 0.84251 0.13587 0.26089 0.0
H986 H 0.8468 0.10831 0.30088 0.0
C987 C 0.87866 0.06501 0.25615 0.0
C988 C 0.8876 0.06094 0.27199 0.0
C989 C 0.86885 0.08138 0.25662 0.0
C990 C 0.84618 0.11604 0.28968 0.0
H991 H 0.78313 0.17294 0.2552 0.0
H992 H 0.80406 0.14721 0.25247 0.0
H993 H 0.82744 0.13509 0.30316 0.0
H994 H 0.89466 0.07139 0.30038 0.0
H995 H 0.87873 0.10028 0.30106 0.0
H996 H 0.86159 0.11711 0.2475 0.0
C997 C 0.80631 0.15828 0.26431 0.0
C998 C 0.83493 0.13136 0.29099 0.0
C999 C 0.79435 0.1731 0.26589 0.0
C1000 C 0.88765 0.07407 0.288 0.0
C1001 C 0.87829 0.09055 0.28841 0.0
C1002 C 0.85407 0.1207 0.25966 0.0
C1003 C 0.82064 0.15747 0.27806 0.0
C1004 C 0.83292 0.14141 0.27662 0.0
C1005 C 0.86811 0.09413 0.27289 0.0
C1006 C 0.85608 0.11054 0.27405 0.0
H1007 H 0.81367 0.198 0.30663 0.0
H1008 H 0.83393 0.17171 0.30412 0.0
H1009 H 0.84131 0.14347 0.24964 0.0
H1010 H 0.8783 0.05503 0.24365 0.0
H1011 H 0.86114 0.08352 0.24439 0.0
C1012 C 0.42799 0.00628 0.95791 0.0
C1013 C 0.42518 0.02526 0.96483 0.0
C1014 C 0.41463 0.99079 0.96111 0.0
C1015 C 0.37535 0.97837 0.99158 0.0
H1016 H 0.36283 0.93247 0.95552 0.0
C1017 C 0.31407 0.91584 0.99814 0.0
C1018 C 0.31946 0.8972 0.99401 0.0
C1019 C 0.32656 0.93176 0.99454 0.0
C1020 C 0.36627 0.94517 0.96576 0.0
H1021 H 0.40575 0.04296 0.97983 0.0
H1022 H 0.38221 0.01609 0.98503 0.0
H1023 H 0.38516 0.95961 0.94894 0.0
H1024 H 0.34222 0.88074 0.98285 0.0
H1025 H 0.36379 0.90842 0.97649 0.0
H1026 H 0.35618 0.96391 0.00827 0.0
C1027 C 0.39503 0.01302 0.97765 0.0
C1028 C 0.37915 0.96071 0.96202 0.0
C1029 C 0.40849 0.02846 0.97462 0.0
C1030 C 0.33759 0.89488 0.98624 0.0
C1031 C 0.34992 0.91072 0.98246 0.0
C1032 C 0.36232 0.96289 0.99524 0.0
C1033 C 0.39801 0.99395 0.97111 0.0
C1034 C 0.38397 0.97749 0.97492 0.0
C1035 C 0.34454 0.92933 0.98653 0.0
C1036 C 0.35776 0.94607 0.98242 0.0
H1037 H 0.4408 0.00341 0.95041 0.0
H1038 H 0.41759 0.97633 0.95605 0.0
H1039 H 0.37896 0.99088 0.00199 0.0
H1040 H 0.30021 0.91813 0.00413 0.0
H1041 H 0.32199 0.94594 0.99773 0.0
C1042 C 0.32279 0.41215 0.33127 0.0
C1043 C 0.31987 0.39236 0.33201 0.0
C1044 C 0.30892 0.42049 0.32184 0.0
C1045 C 0.26587 0.40894 0.28791 0.0
H1046 H 0.25135 0.45748 0.3115 0.0
C1047 C 0.19264 0.43684 0.26973 0.0
C1048 C 0.19276 0.45666 0.26977 0.0
C1049 C 0.20963 0.42963 0.27546 0.0
C1050 C 0.25543 0.44408 0.30458 0.0
H1051 H 0.30023 0.36578 0.32318 0.0
H1052 H 0.27598 0.3803 0.30684 0.0
H1053 H 0.27835 0.44364 0.32482 0.0
H1054 H 0.21107 0.48441 0.2755 0.0
H1055 H 0.2408 0.47178 0.28553 0.0
H1056 H 0.24257 0.4092 0.2679 0.0
C1057 C 0.28914 0.38936 0.3133 0.0
C1058 C 0.27095 0.43613 0.31221 0.0
C1059 C 0.30305 0.38101 0.32268 0.0
C1060 C 0.21044 0.46907 0.27534 0.0
C1061 C 0.22745 0.46185 0.28117 0.0
C1062 C 0.25032 0.41687 0.28031 0.0
C1063 C 0.29176 0.40926 0.31296 0.0
C1064 C 0.2762 0.41834 0.3041 0.0
C1065 C 0.22717 0.44206 0.28144 0.0
C1066 C 0.24474 0.43441 0.28868 0.0
H1067 H 0.33576 0.42124 0.33809 0.0
H1068 H 0.3116 0.43579 0.32159 0.0
H1069 H 0.26975 0.3954 0.28113 0.0
H1070 H 0.1793 0.42684 0.26552 0.0
H1071 H 0.20882 0.41435 0.2757 0.0
C1072 C 0.14442 0.97291 0.44659 0.0
C1073 C 0.12538 0.97783 0.44297 0.0
C1074 C 0.16063 0.98723 0.45138 0.0
C1075 C 0.19122 0.02193 0.46771 0.0
H1076 H 0.19612 0.05788 0.43405 0.0
C1077 C 0.25638 0.08378 0.47241 0.0
C1078 C 0.26607 0.08418 0.45641 0.0
C1079 C 0.23828 0.07211 0.47243 0.0
C1080 C 0.19489 0.04799 0.44359 0.0
H1081 H 0.10823 0.00171 0.44304 0.0
H1082 H 0.13666 0.02665 0.45097 0.0
H1083 H 0.16599 0.03499 0.43249 0.0
H1084 H 0.26412 0.07308 0.42782 0.0
H1085 H 0.23231 0.05305 0.42783 0.0
H1086 H 0.22033 0.03482 0.47862 0.0
C1087 C 0.139 0.0117 0.44991 0.0
C1088 C 0.17761 0.03502 0.4428 0.0
C1089 C 0.12276 0.99741 0.44533 0.0
C1090 C 0.25704 0.07306 0.44037 0.0
C1091 C 0.23881 0.06166 0.44035 0.0
C1092 C 0.20842 0.03513 0.46867 0.0
C1093 C 0.15817 0.00673 0.4525 0.0
C1094 C 0.17573 0.02166 0.45466 0.0
C1095 C 0.22937 0.06092 0.45641 0.0
C1096 C 0.21054 0.04805 0.45641 0.0
H1097 H 0.14704 0.958 0.44472 0.0
H1098 H 0.17528 0.98299 0.45319 0.0
H1099 H 0.19012 0.01181 0.47703 0.0
H1100 H 0.26299 0.09213 0.485 0.0
H1101 H 0.23124 0.07186 0.48497 0.0
C1102 C 0.77731 0.15793 0.72917 0.0
C1103 C 0.77133 0.17632 0.73343 0.0
C1104 C 0.76388 0.14138 0.7291 0.0
C1105 C 0.71647 0.12529 0.74768 0.0
H1106 H 0.7187 0.07836 0.714 0.0
C1107 C 0.65926 0.05721 0.74419 0.0
C1108 C 0.66703 0.03961 0.743 0.0
C1109 C 0.67141 0.07403 0.74231 0.0
C1110 C 0.71799 0.09134 0.72357 0.0
H1111 H 0.7463 0.19159 0.74064 0.0
H1112 H 0.72277 0.16278 0.73986 0.0
H1113 H 0.74062 0.10746 0.71138 0.0
H1114 H 0.69367 0.0259 0.73879 0.0
H1115 H 0.71479 0.05522 0.73548 0.0
H1116 H 0.69376 0.10913 0.7598 0.0
C1117 C 0.73796 0.16114 0.73692 0.0
C1118 C 0.73058 0.10802 0.7221 0.0
C1119 C 0.75141 0.17769 0.73709 0.0
C1120 C 0.6872 0.03921 0.7398 0.0
C1121 C 0.69928 0.05598 0.73778 0.0
C1122 C 0.70379 0.10865 0.74907 0.0
C1123 C 0.74408 0.14277 0.7332 0.0
C1124 C 0.73009 0.12519 0.73422 0.0
C1125 C 0.69154 0.07359 0.73903 0.0
C1126 C 0.70452 0.09145 0.73713 0.0
H1127 H 0.79247 0.15632 0.72609 0.0
H1128 H 0.7692 0.1275 0.72633 0.0
H1129 H 0.7159 0.13812 0.75747 0.0
H1130 H 0.64379 0.05802 0.74661 0.0
H1131 H 0.66498 0.08736 0.7432 0.0
C1132 C 0.47552 0.01369 0.53785 0.0
C1133 C 0.46883 0.99409 0.53193 0.0
C1134 C 0.46319 0.02763 0.5355 0.0
C1135 C 0.43964 0.05141 0.51383 0.0
H1136 H 0.38364 0.04635 0.52252 0.0
C1137 C 0.38108 0.08376 0.47483 0.0
C1138 C 0.36664 0.09276 0.4845 0.0
C1139 C 0.39468 0.07442 0.48343 0.0
C1140 C 0.39931 0.04809 0.52023 0.0
H1141 H 0.44376 0.97357 0.51985 0.0
H1142 H 0.42208 0.9979 0.51598 0.0
H1143 H 0.40476 0.02443 0.53338 0.0
H1144 H 0.35541 0.09937 0.51087 0.0
H1145 H 0.37902 0.08259 0.52586 0.0
H1146 H 0.43402 0.07453 0.50001 0.0
C1147 C 0.43686 0.00251 0.52236 0.0
C1148 C 0.41134 0.03549 0.52633 0.0
C1149 C 0.44927 0.98861 0.52446 0.0
C1150 C 0.3664 0.09261 0.50308 0.0
C1151 C 0.37982 0.08295 0.51164 0.0
C1152 C 0.42756 0.06382 0.50751 0.0
C1153 C 0.44385 0.02217 0.52745 0.0
C1154 C 0.43155 0.03684 0.52293 0.0
C1155 C 0.39396 0.07362 0.50184 0.0
C1156 C 0.40721 0.06206 0.51038 0.0
H1157 H 0.49058 0.01829 0.54354 0.0
H1158 H 0.4689 0.04269 0.53961 0.0
H1159 H 0.45513 0.05268 0.51088 0.0
H1160 H 0.38168 0.08368 0.46051 0.0
H1161 H 0.40531 0.06721 0.47553 0.0
C1162 C 0.61953 0.49818 0.56364 0.0
C1163 C 0.59997 0.49283 0.568 0.0
C1164 C 0.63164 0.48427 0.55748 0.0
C1165 C 0.6384 0.43348 0.55755 0.0
H1166 H 0.67249 0.44114 0.51893 0.0
C1167 C 0.68676 0.37583 0.52781 0.0
C1168 C 0.70601 0.38233 0.52346 0.0
C1169 C 0.67315 0.38883 0.53244 0.0
C1170 C 0.66325 0.43885 0.52987 0.0
H1171 H 0.57789 0.4684 0.56913 0.0
H1172 H 0.59914 0.44408 0.55852 0.0
H1173 H 0.65001 0.46451 0.52848 0.0
H1174 H 0.72594 0.40769 0.52049 0.0
H1175 H 0.7024 0.43033 0.52881 0.0
H1176 H 0.65183 0.40799 0.55916 0.0
C1177 C 0.6051 0.45913 0.55999 0.0
C1178 C 0.65031 0.45226 0.53532 0.0
C1179 C 0.59291 0.47309 0.56608 0.0
C1180 C 0.71123 0.40214 0.52368 0.0
C1181 C 0.69765 0.41515 0.52837 0.0
C1182 C 0.65141 0.4201 0.55215 0.0
C1183 C 0.62462 0.46456 0.55559 0.0
C1184 C 0.6378 0.44983 0.54931 0.0
C1185 C 0.67843 0.40869 0.53289 0.0
C1186 C 0.66411 0.42265 0.5383 0.0
H1187 H 0.62572 0.51319 0.56535 0.0
H1188 H 0.6467 0.48898 0.55456 0.0
H1189 H 0.62918 0.43128 0.56853 0.0
H1190 H 0.68218 0.36067 0.52771 0.0
H1191 H 0.65842 0.38326 0.53555 0.0
C1192 C 0.74222 0.24026 0.32198 0.0
C1193 C 0.7618 0.23735 0.31829 0.0
C1194 C 0.73813 0.25017 0.33872 0.0
C1195 C 0.75978 0.28708 0.37563 0.0
H1196 H 0.72504 0.26248 0.40683 0.0
C1197 C 0.74579 0.32541 0.44655 0.0
C1198 C 0.75225 0.31531 0.45978 0.0
C1199 C 0.74259 0.31631 0.42855 0.0
C1200 C 0.73455 0.26961 0.39814 0.0
H1201 H 0.79244 0.24272 0.32899 0.0
H1202 H 0.78535 0.26048 0.35803 0.0
H1203 H 0.72864 0.24586 0.37625 0.0
H1204 H 0.75908 0.28759 0.46491 0.0
H1205 H 0.75273 0.27155 0.43371 0.0
H1206 H 0.76594 0.31069 0.39752 0.0
C1207 C 0.77317 0.25489 0.34808 0.0
C1208 C 0.73658 0.26013 0.38069 0.0
C1209 C 0.7772 0.24463 0.33156 0.0
C1210 C 0.75405 0.29567 0.45496 0.0
C1211 C 0.75037 0.28649 0.43712 0.0
C1212 C 0.75742 0.29672 0.3929 0.0
C1213 C 0.75362 0.25775 0.35183 0.0
C1214 C 0.7496 0.2686 0.36946 0.0
C1215 C 0.7453 0.29687 0.42364 0.0
C1216 C 0.74515 0.28789 0.40448 0.0
H1217 H 0.73011 0.23479 0.31194 0.0
H1218 H 0.72293 0.25221 0.34131 0.0
H1219 H 0.76986 0.29392 0.36719 0.0
H1220 H 0.74452 0.34061 0.44989 0.0
H1221 H 0.73868 0.32462 0.41839 0.0
C1222 C 0.48788 0.04112 0.86574 0.0
C1223 C 0.49205 0.04564 0.88446 0.0
C1224 C 0.50154 0.03298 0.85463 0.0
C1225 C 0.54512 0.00673 0.85371 0.0
H1226 H 0.55498 0.02887 0.81076 0.0
C1227 C 0.6023 0.0039 0.79258 0.0
C1228 C 0.60137 0.98388 0.78736 0.0
C1229 C 0.59001 0.01157 0.80546 0.0
C1230 C 0.55254 0.02265 0.82277 0.0
H1231 H 0.5136 0.04444 0.9062 0.0
H1232 H 0.53739 0.02993 0.88674 0.0
H1233 H 0.53112 0.04138 0.83116 0.0
H1234 H 0.58715 0.95622 0.792 0.0
H1235 H 0.56579 0.9696 0.81442 0.0
H1236 H 0.5666 0.98798 0.84526 0.0
C1237 C 0.52351 0.03274 0.88071 0.0
C1238 C 0.53869 0.02965 0.83436 0.0
C1239 C 0.50984 0.04099 0.89186 0.0
C1240 C 0.58824 0.97172 0.79567 0.0
C1241 C 0.57607 0.97937 0.80862 0.0
C1242 C 0.5589 -0.00039 0.84204 0.0
C1243 C 0.51967 0.02904 0.86194 0.0
C1244 C 0.53472 0.0217 0.84989 0.0
C1245 C 0.57663 -0.00062 0.81351 0.0
C1246 C 0.5627 0.00744 0.82639 0.0
H1247 H 0.47414 0.04415 0.85962 0.0
H1248 H 0.49795 0.0299 0.84025 0.0
H1249 H 0.54234 0.00026 0.86554 0.0
H1250 H 0.61226 0.01369 0.78648 0.0
H1251 H 0.59093 0.02705 0.80909 0.0
C1252 C 0.3454 0.27149 0.34913 0.0
C1253 C 0.35578 0.28933 0.35711 0.0
C1254 C 0.34179 0.25667 0.35914 0.0
C1255 C 0.34311 0.24638 0.40626 0.0
H1256 H 0.34303 0.19418 0.3815 0.0
C1257 C 0.32358 0.17987 0.44105 0.0
C1258 C 0.33287 0.16349 0.4355 0.0
C1259 C 0.32625 0.19571 0.43208 0.0
C1260 C 0.34329 0.20865 0.38877 0.0
H1261 H 0.37062 0.30577 0.38173 0.0
H1262 H 0.36519 0.27967 0.3991 0.0
H1263 H 0.34836 0.22058 0.365 0.0
H1264 H 0.35306 0.15124 0.41689 0.0
H1265 H 0.35852 0.179 0.40193 0.0
H1266 H 0.33914 0.23439 0.43028 0.0
C1267 C 0.3592 0.27719 0.38527 0.0
C1268 C 0.34596 0.22388 0.37916 0.0
C1269 C 0.36245 0.29214 0.37531 0.0
C1270 C 0.34544 0.16355 0.4213 0.0
C1271 C 0.34843 0.17946 0.4126 0.0
C1272 C 0.34077 0.23112 0.41597 0.0
C1273 C 0.34887 0.25919 0.37731 0.0
C1274 C 0.34587 0.24298 0.38772 0.0
C1275 C 0.33856 0.19563 0.41758 0.0
C1276 C 0.34087 0.21203 0.40737 0.0
H1277 H 0.33988 0.26907 0.33515 0.0
H1278 H 0.33335 0.24326 0.35259 0.0
H1279 H 0.34264 0.26082 0.41334 0.0
H1280 H 0.31374 0.18019 0.45193 0.0
H1281 H 0.31822 0.20776 0.43623 0.0
C1282 C 0.57218 0.47499 0.90221 0.0
C1283 C 0.56564 0.46644 0.9168 0.0
C1284 C 0.55851 0.47999 0.88993 0.0
C1285 C 0.50813 0.49257 0.88581 0.0
H1286 H 0.51075 0.47661 0.83451 0.0
C1287 C 0.44232 0.49435 0.83638 0.0
C1288 C 0.44559 0.49865 0.81914 0.0
C1289 C 0.45809 0.49209 0.84796 0.0
C1290 C 0.51 0.48152 0.84876 0.0
H1291 H 0.53976 0.45647 0.93001 0.0
H1292 H 0.51583 0.46545 0.90866 0.0
H1293 H 0.53619 0.46929 0.85539 0.0
H1294 H 0.4682 0.50422 0.80069 0.0
H1295 H 0.496 0.50067 0.8212 0.0
H1296 H 0.48218 0.50499 0.87938 0.0
C1297 C 0.53153 0.46824 0.90673 0.0
C1298 C 0.52453 0.47723 0.86071 0.0
C1299 C 0.54518 0.46299 0.91886 0.0
C1300 C 0.46517 0.50089 0.81387 0.0
C1301 C 0.48107 0.49874 0.82558 0.0
C1302 C 0.49378 0.49706 0.8739 0.0
C1303 C 0.53806 0.47679 0.89214 0.0
C1304 C 0.52349 0.48239 0.87936 0.0
C1305 C 0.47769 0.49425 0.84277 0.0
C1306 C 0.49424 0.49122 0.85523 0.0
H1307 H 0.58787 0.47765 0.90023 0.0
H1308 H 0.56394 0.48662 0.87885 0.0
H1309 H 0.5072 0.49705 0.90011 0.0
H1310 H 0.42745 0.49236 0.84091 0.0
H1311 H 0.45478 0.4882 0.86087 0.0
C1312 C 0.80191 0.74803 0.16251 0.0
C1313 C 0.7838 0.74387 0.17019 0.0
C1314 C 0.80556 0.73793 0.14579 0.0
C1315 C 0.7809 0.70892 0.10418 0.0
H1316 H 0.83127 0.68882 0.09903 0.0
C1317 C 0.806 0.67327 0.0358 0.0
C1318 C 0.81397 0.6559 0.03585 0.0
C1319 C 0.80227 0.68453 0.05197 0.0
C1320 C 0.81713 0.69431 0.10028 0.0
H1321 H 0.75519 0.72614 0.16626 0.0
H1322 H 0.76154 0.70851 0.13695 0.0
H1323 H 0.82464 0.70756 0.12766 0.0
H1324 H 0.82439 0.63682 0.05292 0.0
H1325 H 0.81805 0.65656 0.08106 0.0
H1326 H 0.77336 0.69554 0.0768 0.0
C1327 C 0.77289 0.7196 0.14387 0.0
C1328 C 0.8134 0.70517 0.11661 0.0
C1329 C 0.76932 0.72957 0.16069 0.0
C1330 C 0.81824 0.65011 0.0524 0.0
C1331 C 0.81471 0.66147 0.06853 0.0
C1332 C 0.78472 0.69822 0.08777 0.0
C1333 C 0.79111 0.72357 0.13631 0.0
C1334 C 0.7952 0.71249 0.11878 0.0
C1335 C 0.80666 0.67877 0.0685 0.0
C1336 C 0.80282 0.69068 0.0857 0.0
H1337 H 0.81342 0.75885 0.1696 0.0
H1338 H 0.81968 0.74139 0.14024 0.0
H1339 H 0.7668 0.7145 0.10543 0.0
H1340 H 0.80253 0.67812 0.02328 0.0
H1341 H 0.79619 0.69788 0.05154 0.0
C1342 C 0.03894 0.0061 0.09478 0.0
C1343 C 0.05211 0.02287 0.09438 0.0
C1344 C 0.02654 0.005 0.109 0.0
C1345 C 0.00516 0.03645 0.14544 0.0
H1346 H 0.99434 0.98979 0.16573 0.0
C1347 C 0.96932 0.036 0.213 0.0
C1348 C 0.95487 0.02054 0.21455 0.0
C1349 C 0.98029 0.03565 0.19778 0.0
C1350 C 0.99702 0.00287 0.16007 0.0
H1351 H 0.06328 0.05121 0.10915 0.0
H1352 H 0.04194 0.04926 0.13387 0.0
H1353 H 0.01538 0.99013 0.1404 0.0
H1354 H 0.94067 0.99254 0.20122 0.0
H1355 H 0.95988 0.99194 0.17459 0.0
H1356 H 0.98706 0.04926 0.1652 0.0
C1357 C 0.04068 0.03714 0.12298 0.0
C1358 C 0.00909 0.00307 0.14553 0.0
C1359 C 0.05297 0.03826 0.10879 0.0
C1360 C 0.95166 0.00471 0.20046 0.0
C1361 C 0.96276 0.0043 0.18524 0.0
C1362 C 0.9932 0.03626 0.15997 0.0
C1363 C 0.02708 0.02062 0.1232 0.0
C1364 C 0.01352 0.01994 0.13815 0.0
C1365 C 0.9772 0.0198 0.18371 0.0
C1366 C 0.98914 0.01955 0.16762 0.0
H1367 H 0.03788 0.99403 0.08386 0.0
H1368 H 0.01618 0.99209 0.10865 0.0
H1369 H 0.00781 0.04958 0.13986 0.0
H1370 H 0.97226 0.04841 0.22359 0.0
H1371 H 0.99147 0.04772 0.19718 0.0
C1372 C 0.29826 0.77189 0.17071 0.0
C1373 C 0.28914 0.77978 0.18598 0.0
C1374 C 0.29379 0.77689 0.15393 0.0
C1375 C 0.27472 0.81595 0.13392 0.0
H1376 H 0.27452 0.78007 0.08944 0.0
C1377 C 0.2633 0.83771 0.06324 0.0
C1378 C 0.27682 0.83124 0.05084 0.0
C1379 C 0.26207 0.83079 0.07962 0.0
C1380 C 0.27458 0.79029 0.10175 0.0
H1381 H 0.26724 0.79821 0.19537 0.0
H1382 H 0.2593 0.80679 0.16611 0.0
H1383 H 0.2771 0.76858 0.11807 0.0
H1384 H 0.2995 0.81227 0.04597 0.0
H1385 H 0.29735 0.80043 0.0742 0.0
H1386 H 0.27252 0.8377 0.11752 0.0
C1387 C 0.27028 0.79709 0.16715 0.0
C1388 C 0.27611 0.7837 0.11817 0.0
C1389 C 0.27479 0.79212 0.18392 0.0
C1390 C 0.28889 0.81763 0.05514 0.0
C1391 C 0.28756 0.81067 0.07132 0.0
C1392 C 0.27314 0.82253 0.11747 0.0
C1393 C 0.28001 0.78986 0.152 0.0
C1394 C 0.27659 0.79651 0.13449 0.0
C1395 C 0.27417 0.81712 0.08379 0.0
C1396 C 0.27348 0.80984 0.1012 0.0
H1397 H 0.30954 0.76253 0.17186 0.0
H1398 H 0.30175 0.7712 0.14262 0.0
H1399 H 0.27527 0.82628 0.1462 0.0
H1400 H 0.25378 0.84817 0.06036 0.0
H1401 H 0.25155 0.83601 0.08894 0.0
C1402 C 0.0385 0.46679 0.07683 0.0
C1403 C 0.0359 0.48443 0.0715 0.0
C1404 C 0.04943 0.46631 0.09285 0.0
C1405 C 0.06861 0.49696 0.13624 0.0
H1406 H 0.10123 0.45623 0.13916 0.0
C1407 C 0.12109 0.49619 0.19843 0.0
C1408 C 0.11949 0.47877 0.20519 0.0
C1409 C 0.11202 0.49706 0.18164 0.0
C1410 C 0.09212 0.46764 0.13854 0.0
H1411 H 0.04304 0.51538 0.07852 0.0
H1412 H 0.06249 0.5146 0.10628 0.0
H1413 H 0.08325 0.45756 0.11077 0.0
H1414 H 0.10763 0.44851 0.19934 0.0
H1415 H 0.09202 0.45003 0.16995 0.0
H1416 H 0.07773 0.50712 0.164 0.0
C1417 C 0.05567 0.50112 0.09837 0.0
C1418 C 0.08173 0.46837 0.12231 0.0
C1419 C 0.04458 0.50159 0.08244 0.0
C1420 C 0.10911 0.46215 0.19455 0.0
C1421 C 0.10025 0.46299 0.17768 0.0
C1422 C 0.07916 0.49633 0.15241 0.0
C1423 C 0.05819 0.48347 0.10383 0.0
C1424 C 0.06971 0.48297 0.12097 0.0
C1425 C 0.10138 0.4805 0.17116 0.0
C1426 C 0.09091 0.48159 0.15376 0.0
H1427 H 0.0318 0.45335 0.06873 0.0
H1428 H 0.05071 0.45247 0.09675 0.0
H1429 H 0.05926 0.50821 0.13584 0.0
H1430 H 0.12896 0.50926 0.20628 0.0
H1431 H 0.11328 0.51071 0.17686 0.0
C1432 C 0.36465 0.73188 0.26189 0.0
C1433 C 0.35367 0.71606 0.25048 0.0
C1434 C 0.38243 0.72983 0.27106 0.0
C1435 C 0.40681 0.69563 0.29135 0.0
H1436 H 0.45639 0.72726 0.28725 0.0
C1437 C 0.47985 0.68351 0.32776 0.0
C1438 C 0.49407 0.69956 0.33379 0.0
C1439 C 0.46314 0.68515 0.31681 0.0
C1440 C 0.44264 0.71851 0.28887 0.0
H1441 H 0.35357 0.68585 0.23934 0.0
H1442 H 0.38402 0.68219 0.2561 0.0
H1443 H 0.42653 0.73142 0.26991 0.0
H1444 H 0.50181 0.72999 0.33346 0.0
H1445 H 0.47236 0.73316 0.31532 0.0
H1446 H 0.42236 0.68329 0.31088 0.0
C1447 C 0.37875 0.69614 0.2578 0.0
C1448 C 0.42558 0.72084 0.27879 0.0
C1449 C 0.36123 0.69826 0.24832 0.0
C1450 C 0.49119 0.71731 0.32884 0.0
C1451 C 0.47431 0.71906 0.31827 0.0
C1452 C 0.42374 0.69358 0.30175 0.0
C1453 C 0.38943 0.71187 0.26933 0.0
C1454 C 0.40755 0.70939 0.27991 0.0
C1455 C 0.46003 0.703 0.31199 0.0
C1456 C 0.44196 0.70498 0.30067 0.0
H1457 H 0.35926 0.74574 0.2642 0.0
H1458 H 0.39039 0.74214 0.27998 0.0
H1459 H 0.39298 0.68674 0.29254 0.0
H1460 H 0.48178 0.66962 0.33127 0.0
H1461 H 0.4528 0.67233 0.31202 0.0
C1462 C 0.02376 0.39915 0.99237 0.0
C1463 C 0.0366 0.41333 0.98618 0.0
C1464 C 0.02694 0.37981 0.98883 0.0
C1465 C 0.06399 0.34758 0.97191 0.0
H1466 H 0.01764 0.31344 0.94944 0.0
C1467 C 0.06614 0.2887 0.91175 0.0
C1468 C 0.05305 0.27153 0.90968 0.0
C1469 C 0.06593 0.30292 0.92676 0.0
C1470 C 0.03068 0.32257 0.95608 0.0
H1471 H 0.06354 0.41864 0.97256 0.0
H1472 H 0.06894 0.3851 0.96616 0.0
H1473 H 0.01366 0.345 0.96593 0.0
H1474 H 0.03017 0.25525 0.9221 0.0
H1475 H 0.02945 0.2805 0.94835 0.0
H1476 H 0.08109 0.32558 0.96096 0.0
C1477 C 0.05648 0.38875 0.97383 0.0
C1478 C 0.0284 0.34071 0.96555 0.0
C1479 C 0.05325 0.40798 0.97729 0.0
C1480 C 0.04047 0.26835 0.92343 0.0
C1481 C 0.03999 0.2828 0.93837 0.0
C1482 C 0.06627 0.32951 0.96237 0.0
C1483 C 0.04312 0.37435 0.97917 0.0
C1484 C 0.04512 0.35374 0.97289 0.0
C1485 C 0.05239 0.30042 0.93993 0.0
C1486 C 0.04971 0.31716 0.9537 0.0
H1487 H 0.01079 0.40288 -0.00076 0.0
H1488 H 0.01646 0.36908 0.99324 0.0
H1489 H 0.07713 0.35711 0.97777 0.0
H1490 H 0.07604 0.29148 0.90138 0.0
H1491 H 0.07551 0.31639 0.92744 0.0
C1492 C 0.72549 0.73478 0.28378 0.0
C1493 C 0.72513 0.73241 0.26496 0.0
C1494 C 0.70786 0.73271 0.29244 0.0
C1495 C 0.67088 0.71452 0.30669 0.0
H1496 H 0.62168 0.72927 0.28872 0.0
C1497 C 0.59619 0.69122 0.33509 0.0
C1498 C 0.58237 0.70447 0.33703 0.0
C1499 C 0.61322 0.69476 0.32583 0.0
C1500 C 0.63532 0.72521 0.29405 0.0
H1501 H 0.70608 0.72653 0.24043 0.0
H1502 H 0.67521 0.72245 0.25547 0.0
H1503 H 0.65211 0.73674 0.2741 0.0
H1504 H 0.57556 0.73182 0.33078 0.0
H1505 H 0.60545 0.73827 0.31513 0.0
H1506 H 0.65431 0.70363 0.32702 0.0
C1507 C 0.68907 0.72629 0.26363 0.0
C1508 C 0.65276 0.72929 0.2855 0.0
C1509 C 0.70674 0.7286 0.25497 0.0
C1510 C 0.58587 0.72127 0.32944 0.0
C1511 C 0.60299 0.72491 0.32035 0.0
C1512 C 0.6535 0.71061 0.31532 0.0
C1513 C 0.68942 0.72795 0.28248 0.0
C1514 C 0.6708 0.72398 0.2917 0.0
C1515 C 0.61695 0.71173 0.31845 0.0
C1516 C 0.63545 0.71585 0.30911 0.0
H1517 H 0.73948 0.73795 0.29181 0.0
H1518 H 0.70873 0.73464 0.30698 0.0
H1519 H 0.68436 0.70988 0.3117 0.0
H1520 H 0.59382 0.67808 0.34069 0.0
H1521 H 0.62341 0.68409 0.32437 0.0
C1522 C 0.06404 0.08579 0.00399 0.0
C1523 C 0.08278 0.09054 0.01337 0.0
C1524 C 0.06016 0.09289 0.98805 0.0
C1525 C 0.08459 0.11599 0.95242 0.0
H1526 H 0.03721 0.14118 0.9505 0.0
C1527 C 0.07817 0.17647 0.91118 0.0
C1528 C 0.05981 0.17803 0.90254 0.0
C1529 C 0.07975 0.16283 0.92241 0.0
C1530 C 0.05033 0.13393 0.95061 0.0
H1531 H 0.11243 0.10543 0.01295 0.0
H1532 H 0.1058 0.11763 0.98524 0.0
H1533 H 0.04222 0.12183 0.97386 0.0
H1534 H 0.02872 0.16615 0.89876 0.0
H1535 H 0.0315 0.1422 0.91842 0.0
H1536 H 0.09297 0.12844 0.92947 0.0
C1537 C 0.09404 0.10849 0.99007 0.0
C1538 C 0.0532 0.1228 0.96402 0.0
C1539 C 0.09783 0.10158 0.00601 0.0
C1540 C 0.04309 0.16535 0.90521 0.0
C1541 C 0.04466 0.15169 0.91656 0.0
C1542 C 0.08172 0.12706 0.93903 0.0
C1543 C 0.07503 0.10464 0.9811 0.0
C1544 C 0.07062 0.1141 0.96537 0.0
C1545 C 0.06302 0.15033 0.92537 0.0
C1546 C 0.0648 0.1366 0.93822 0.0
H1547 H 0.05213 0.07742 0.00943 0.0
H1548 H 0.04541 0.08951 0.98138 0.0
H1549 H 0.098 0.1092 0.95287 0.0
H1550 H 0.09138 0.18598 0.90947 0.0
H1551 H 0.09406 0.16246 0.92918 0.0
C1552 C 0.39847 0.32675 0.2993 0.0
C1553 C 0.38366 0.31265 0.30311 0.0
C1554 C 0.40904 0.32339 0.28392 0.0
C1555 C 0.40633 0.29296 0.23911 0.0
H1556 H 0.46269 0.31089 0.24108 0.0
C1557 C 0.44819 0.29401 0.17494 0.0
C1558 C 0.46727 0.28826 0.17477 0.0
C1559 C 0.43857 0.29684 0.19087 0.0
C1560 C 0.447 0.30564 0.24034 0.0
H1561 H 0.36826 0.28398 0.29359 0.0
H1562 H 0.38693 0.27797 0.26695 0.0
H1563 H 0.44481 0.31562 0.26838 0.0
H1564 H 0.49131 0.28125 0.1914 0.0
H1565 H 0.47439 0.28606 0.21931 0.0
H1566 H 0.40853 0.2827 0.21118 0.0
C1567 C 0.39025 0.29173 0.27576 0.0
C1568 C 0.43669 0.30855 0.25594 0.0
C1569 C 0.37967 0.2951 0.29114 0.0
C1570 C 0.47664 0.28571 0.19105 0.0
C1571 C 0.46697 0.28853 0.20706 0.0
C1572 C 0.41662 0.29005 0.22354 0.0
C1573 C 0.40508 0.30583 0.27197 0.0
C1574 C 0.4162 0.30234 0.25549 0.0
C1575 C 0.44773 0.29396 0.20711 0.0
C1576 C 0.43705 0.29649 0.22391 0.0
H1577 H 0.40212 0.34033 0.30834 0.0
H1578 H 0.42018 0.33466 0.28131 0.0
H1579 H 0.39054 0.28814 0.23822 0.0
H1580 H 0.44055 0.29625 0.16269 0.0
H1581 H 0.42395 0.3014 0.19047 0.0
C1582 C 0.56851 0.39572 0.99817 0.0
C1583 C 0.58456 0.38967 0.98878 0.0
C1584 C 0.56393 0.38914 0.01417 0.0
C1585 C 0.57183 0.34863 0.03812 0.0
H1586 H 0.54505 0.37762 0.07546 0.0
C1587 C 0.51504 0.33001 0.09368 0.0
C1588 C 0.52491 0.31715 0.10203 0.0
C1589 C 0.52501 0.34137 0.08259 0.0
C1590 C 0.55258 0.36939 0.06515 0.0
H1591 H 0.60917 0.37301 0.98921 0.0
H1592 H 0.60175 0.36211 0.01746 0.0
H1593 H 0.55813 0.39317 0.05112 0.0
H1594 H 0.55321 0.30666 0.10584 0.0
H1595 H 0.57056 0.32633 0.08616 0.0
H1596 H 0.56622 0.32487 0.05219 0.0
C1597 C 0.59219 0.37136 0.01224 0.0
C1598 C 0.55998 0.37825 0.05113 0.0
C1599 C 0.59656 0.37771 0.99612 0.0
C1600 C 0.5452 0.31645 0.09962 0.0
C1601 C 0.5551 0.32762 0.08829 0.0
C1602 C 0.56468 0.33989 0.05225 0.0
C1603 C 0.57548 0.37655 0.02125 0.0
C1604 C 0.56936 0.36786 0.0372 0.0
C1605 C 0.545 0.33994 0.07941 0.0
C1606 C 0.55464 0.35005 0.06572 0.0
H1607 H 0.55892 0.4048 0.9927 0.0
H1608 H 0.55079 0.39327 0.0205 0.0
H1609 H 0.57858 0.33998 0.02754 0.0
H1610 H 0.49943 0.33094 0.09532 0.0
H1611 H 0.5168 0.35062 0.07583 0.0
C1612 C 0.70513 0.25025 0.23241 0.0
C1613 C 0.72015 0.24398 0.22162 0.0
C1614 C 0.6864 0.2518 0.22459 0.0
C1615 C 0.66247 0.25732 0.1811 0.0
H1616 H 0.61321 0.24253 0.20208 0.0
C1617 C 0.58678 0.2532 0.14243 0.0
C1618 C 0.57123 0.26035 0.15192 0.0
C1619 C 0.60452 0.25102 0.15152 0.0
C1620 C 0.62685 0.24692 0.19616 0.0
H1621 H 0.7269 0.23328 0.19436 0.0
H1622 H 0.6944 0.23588 0.18081 0.0
H1623 H 0.64485 0.23882 0.21706 0.0
H1624 H 0.56207 0.27061 0.17849 0.0
H1625 H 0.59315 0.26695 0.19436 0.0
H1626 H 0.64462 0.26542 0.16024 0.0
C1627 C 0.69717 0.24012 0.19522 0.0
C1628 C 0.64498 0.24479 0.20474 0.0
C1629 C 0.71581 0.2386 0.20299 0.0
C1630 C 0.57376 0.26507 0.17077 0.0
C1631 C 0.59153 0.26287 0.17988 0.0
C1632 C 0.64441 0.25944 0.17255 0.0
C1633 C 0.68234 0.24706 0.20585 0.0
C1634 C 0.66299 0.24979 0.19721 0.0
C1635 C 0.60718 0.25595 0.17035 0.0
C1636 C 0.62636 0.25411 0.17986 0.0
H1637 H 0.70805 0.25456 0.24679 0.0
H1638 H 0.67533 0.25728 0.23315 0.0
H1639 H 0.67607 0.26173 0.17513 0.0
H1640 H 0.58532 0.24931 0.12793 0.0
H1641 H 0.61614 0.24535 0.14378 0.0
C1642 C 0.46901 0.08477 0.00733 0.0
C1643 C 0.46543 0.08869 0.98985 0.0
C1644 C 0.47382 0.09977 0.02189 0.0
C1645 C 0.46813 0.13537 0.04964 0.0
H1646 H 0.5081 0.17846 0.04688 0.0
C1647 C 0.47034 0.21131 0.09121 0.0
C1648 C 0.4888 0.22074 0.09907 0.0
C1649 C 0.46907 0.19353 0.07993 0.0
C1650 C 0.49706 0.16642 0.04792 0.0
H1651 H 0.46419 0.1117 0.9742 0.0
H1652 H 0.47333 0.13769 -0.00053 0.0
H1653 H 0.50345 0.15056 0.02269 0.0
H1654 H 0.52034 0.21873 0.10159 0.0
H1655 H 0.51813 0.18775 0.0814 0.0
H1656 H 0.46117 0.1516 0.07451 0.0
C1657 C 0.4724 0.12297 0.00181 0.0
C1658 C 0.49432 0.15056 0.03405 0.0
C1659 C 0.46726 0.10802 0.98731 0.0
C1660 C 0.50591 0.21177 0.09577 0.0
C1661 C 0.50468 0.19412 0.08417 0.0
C1662 C 0.47064 0.15138 0.06337 0.0
C1663 C 0.47552 0.119 0.01926 0.0
C1664 C 0.47966 0.135 0.03468 0.0
C1665 C 0.48626 0.18495 0.07601 0.0
C1666 C 0.48496 0.16716 0.06252 0.0
H1667 H 0.46811 0.0701 0.0098 0.0
H1668 H 0.47629 0.09635 0.03522 0.0
H1669 H 0.45665 0.1236 0.05039 0.0
H1670 H 0.45689 0.21783 0.09356 0.0
H1671 H 0.45472 0.18683 0.07369 0.0
C1672 C 0.31506 0.29694 0.73464 0.0
C1673 C 0.30189 0.29027 0.71942 0.0
C1674 C 0.32253 0.31646 0.73907 0.0
C1675 C 0.31336 0.36493 0.73225 0.0
H1676 H 0.36989 0.37826 0.74464 0.0
C1677 C 0.37699 0.43628 0.74705 0.0
C1678 C 0.36768 0.44806 0.75996 0.0
C1679 C 0.36848 0.4173 0.74056 0.0
C1680 C 0.35412 0.37476 0.74102 0.0
H1681 H 0.28559 0.29886 0.69736 0.0
H1682 H 0.29851 0.33297 0.70518 0.0
H1683 H 0.3557 0.34445 0.7372 0.0
H1684 H 0.34172 0.44949 0.77552 0.0
H1685 H 0.32688 0.41663 0.76408 0.0
H1686 H 0.31177 0.39525 0.73619 0.0
C1687 C 0.30312 0.32312 0.71363 0.0
C1688 C 0.34596 0.35541 0.737 0.0
C1689 C 0.29581 0.3036 0.70911 0.0
C1690 C 0.34932 0.44077 0.76564 0.0
C1691 C 0.34074 0.42196 0.75901 0.0
C1692 C 0.3215 0.38428 0.73644 0.0
C1693 C 0.31683 0.32972 0.72849 0.0
C1694 C 0.32547 0.35029 0.73267 0.0
C1695 C 0.35038 0.40989 0.74665 0.0
C1696 C 0.34195 0.3894 0.74096 0.0
H1697 H 0.32013 0.28698 0.74274 0.0
H1698 H 0.33287 0.32117 0.75073 0.0
H1699 H 0.29752 0.36143 0.72903 0.0
H1700 H 0.39116 0.44147 0.74245 0.0
H1701 H 0.37614 0.40836 0.73091 0.0
C1702 C 0.28672 0.66784 0.79015 0.0
C1703 C 0.29051 0.68174 0.77901 0.0
C1704 C 0.29749 0.65218 0.78909 0.0
C1705 C 0.34385 0.63447 0.77329 0.0
H1706 H 0.3151 0.58499 0.77746 0.0
C1707 C 0.37894 0.56216 0.76659 0.0
C1708 C 0.37399 0.55115 0.78003 0.0
C1709 C 0.36953 0.57846 0.76499 0.0
C1710 C 0.32337 0.59872 0.77632 0.0
H1711 H 0.30911 0.69027 0.75836 0.0
H1712 H 0.32764 0.66269 0.75626 0.0
H1713 H 0.29723 0.6127 0.77768 0.0
H1714 H 0.35557 0.54904 0.80257 0.0
H1715 H 0.33945 0.57703 0.79973 0.0
H1716 H 0.37005 0.62026 0.77202 0.0
C1717 C 0.31639 0.664 0.7659 0.0
C1718 C 0.31313 0.61464 0.77653 0.0
C1719 C 0.3056 0.6797 0.76697 0.0
C1720 C 0.35974 0.55699 0.79195 0.0
C1721 C 0.35034 0.57304 0.79028 0.0
C1722 C 0.35412 0.61844 0.77302 0.0
C1723 C 0.31234 0.64993 0.77683 0.0
C1724 C 0.32327 0.63282 0.7754 0.0
C1725 C 0.3549 0.58385 0.77669 0.0
C1726 C 0.34402 0.60049 0.77492 0.0
H1727 H 0.27513 0.66885 0.79948 0.0
H1728 H 0.29418 0.64181 0.79794 0.0
H1729 H 0.35214 0.64827 0.77246 0.0
H1730 H 0.38987 0.55809 0.75723 0.0
H1731 H 0.37335 0.58656 0.75439 0.0
C1732 C 0.92888 0.50726 0.48249 0.0
C1733 C 0.9223 0.51757 0.46947 0.0
C1734 C 0.91636 0.492 0.48722 0.0
C1735 C 0.86444 0.47463 0.49016 0.0
H1736 H 0.88084 0.42391 0.48756 0.0
C1737 C 0.80918 0.40859 0.49822 0.0
C1738 C 0.81633 0.39346 0.50538 0.0
C1739 C 0.82232 0.42409 0.49474 0.0
C1740 C 0.87609 0.43804 0.48876 0.0
H1741 H 0.89752 0.52025 0.45135 0.0
H1742 H 0.87547 0.49383 0.45995 0.0
H1743 H 0.90362 0.45014 0.47992 0.0
H1744 H 0.84274 0.38311 0.51526 0.0
H1745 H 0.86555 0.41052 0.51011 0.0
H1746 H 0.83721 0.46296 0.49953 0.0
C1747 C 0.89036 0.49741 0.4663 0.0
C1748 C 0.88916 0.45303 0.48424 0.0
C1749 C 0.903 0.51239 0.4613 0.0
C1750 C 0.83681 0.39448 0.50958 0.0
C1751 C 0.84991 0.41015 0.50644 0.0
C1752 C 0.85151 0.45977 0.49503 0.0
C1753 C 0.89691 0.4871 0.47932 0.0
C1754 C 0.88337 0.47139 0.48472 0.0
C1755 C 0.84292 0.42504 0.49867 0.0
C1756 C 0.85704 0.44118 0.49423 0.0
H1757 H 0.94369 0.51103 0.48898 0.0
H1758 H 0.92171 0.48428 0.49734 0.0
H1759 H 0.85973 0.48876 0.49083 0.0
H1760 H 0.79349 0.40813 0.49469 0.0
H1761 H 0.81629 0.43501 0.48847 0.0
C1762 C 0.80129 0.87106 0.81336 0.0
C1763 C 0.8178 0.8835 0.82203 0.0
C1764 C 0.78662 0.87812 0.80365 0.0
C1765 C 0.76595 0.92337 0.80071 0.0
H1766 H 0.73708 0.89338 0.75789 0.0
C1767 C 0.70327 0.95224 0.76302 0.0
C1768 C 0.68571 0.93939 0.75838 0.0
C1769 C 0.72067 0.94574 0.76888 0.0
C1770 C 0.74496 0.90189 0.76988 0.0
H1771 H 0.83239 0.91289 0.82651 0.0
H1772 H 0.80695 0.92518 0.80936 0.0
H1773 H 0.76543 0.88143 0.77137 0.0
H1774 H 0.67288 0.90949 0.75573 0.0
H1775 H 0.70316 0.89821 0.76598 0.0
H1776 H 0.74537 0.94371 0.79934 0.0
C1777 C 0.80507 0.91005 0.81042 0.0
C1778 C 0.76119 0.89503 0.77763 0.0
C1779 C 0.81968 0.90301 0.82021 0.0
C1780 C 0.68612 0.9198 0.75923 0.0
C1781 C 0.70353 0.91329 0.765 0.0
C1782 C 0.74979 0.93025 0.79293 0.0
C1783 C 0.78817 0.89777 0.8023 0.0
C1784 C 0.77174 0.90558 0.79327 0.0
C1785 C 0.72093 0.92622 0.77012 0.0
C1786 C 0.73896 0.91949 0.77756 0.0
H1787 H 0.79931 0.856 0.81469 0.0
H1788 H 0.7737 0.86829 0.79777 0.0
H1789 H 0.77348 0.93173 0.81293 0.0
H1790 H 0.70351 0.96741 0.76247 0.0
H1791 H 0.73391 0.95602 0.77253 0.0
C1792 C 0.64791 0.47673 0.95299 0.0
C1793 C 0.6292 0.48291 0.95512 0.0
C1794 C 0.66519 0.48983 0.95699 0.0
C1795 C 0.68242 0.54215 0.96205 0.0
H1796 H 0.73209 0.52631 0.97768 0.0
C1797 C 0.75734 0.593 0.97544 0.0
C1798 C 0.77286 0.58569 0.96598 0.0
C1799 C 0.73948 0.5812 0.97627 0.0
C1800 C 0.71829 0.53092 0.97335 0.0
H1801 H 0.61383 0.5074 0.96387 0.0
H1802 H 0.64402 0.53025 0.9715 0.0
H1803 H 0.70137 0.50435 0.97623 0.0
H1804 H 0.78194 0.56022 0.95027 0.0
H1805 H 0.75097 0.53962 0.95204 0.0
H1806 H 0.69953 0.56883 0.95936 0.0
C1807 C 0.6454 0.5154 0.96622 0.0
C1808 C 0.7007 0.51832 0.9724 0.0
C1809 C 0.6281 0.50232 0.96197 0.0
C1810 C 0.77025 0.56632 0.95758 0.0
C1811 C 0.75258 0.55447 0.9587 0.0
C1812 C 0.7 0.55486 0.96328 0.0
C1813 C 0.66418 0.50941 0.96346 0.0
C1814 C 0.68257 0.52358 0.96633 0.0
C1815 C 0.73701 0.5618 0.96799 0.0
C1816 C 0.71814 0.54919 0.96855 0.0
H1817 H 0.64917 0.4619 0.94749 0.0
H1818 H 0.67928 0.48468 0.95434 0.0
H1819 H 0.66886 0.54667 0.95707 0.0
H1820 H 0.75892 0.60787 0.98203 0.0
H1821 H 0.72767 0.58715 0.98353 0.0
C1822 C 0.26462 0.69023 0.23553 0.0
C1823 C 0.28376 0.68729 0.23035 0.0
C1824 C 0.25047 0.67454 0.23688 0.0
C1825 C 0.24827 0.62528 0.24585 0.0
H1826 H 0.19279 0.61956 0.22908 0.0
C1827 C 0.19622 0.55584 0.24835 0.0
C1828 C 0.17644 0.55723 0.25239 0.0
C1829 C 0.20866 0.57195 0.24526 0.0
C1830 C 0.20818 0.62107 0.23408 0.0
H1831 H 0.30253 0.66554 0.22122 0.0
H1832 H 0.27799 0.6383 0.22376 0.0
H1833 H 0.21531 0.64731 0.22369 0.0
H1834 H 0.15424 0.57673 0.25646 0.0
H1835 H 0.17612 0.60502 0.25156 0.0
H1836 H 0.2413 0.59946 0.25661 0.0
C1837 C 0.27402 0.65271 0.22708 0.0
C1838 C 0.22107 0.63693 0.23091 0.0
C1839 C 0.28806 0.66832 0.22562 0.0
C1840 C 0.1694 0.57516 0.25334 0.0
C1841 C 0.18192 0.59136 0.2504 0.0
C1842 C 0.2354 0.60959 0.24917 0.0
C1843 C 0.25526 0.65565 0.23316 0.0
C1844 C 0.2413 0.63908 0.23661 0.0
C1845 C 0.20173 0.58996 0.2463 0.0
C1846 C 0.21521 0.60713 0.24319 0.0
H1847 H 0.26087 0.70465 0.2394 0.0
H1848 H 0.23613 0.67724 0.24165 0.0
H1849 H 0.26371 0.62676 0.25074 0.0
H1850 H 0.20209 0.54221 0.24733 0.0
H1851 H 0.22367 0.57017 0.24178 0.0
C1852 C 0.98988 0.53165 0.04367 0.0
C1853 C 0.98436 0.51191 0.03739 0.0
C1854 C 0.97673 0.54487 0.04119 0.0
C1855 C 0.95161 0.56769 0.01964 0.0
H1856 H 0.89559 0.55885 0.02771 0.0
C1857 C 0.89011 0.59611 0.98047 0.0
C1858 C 0.87471 0.60355 0.98998 0.0
C1859 C 0.90473 0.58804 0.9892 0.0
C1860 C 0.91125 0.56166 0.02562 0.0
H1861 H 0.96059 0.49037 0.0244 0.0
H1862 H 0.93747 0.51341 0.02032 0.0
H1863 H 0.91831 0.53818 0.03832 0.0
H1864 H 0.86286 0.60888 0.01621 0.0
H1865 H 0.88828 0.5943 0.03142 0.0
H1866 H 0.9444 0.59062 0.00621 0.0
C1867 C 0.95196 0.51869 0.02708 0.0
C1868 C 0.92419 0.54977 0.03156 0.0
C1869 C 0.9652 0.50553 0.0293 0.0
C1870 C 0.87458 0.60331 0.00855 0.0
C1871 C 0.88904 0.5949 0.01723 0.0
C1872 C 0.93862 0.5794 0.01345 0.0
C1873 C 0.95773 0.53851 0.03266 0.0
C1874 C 0.94444 0.55246 0.02835 0.0
C1875 C 0.90409 0.58697 0.00757 0.0
C1876 C 0.91826 0.57628 0.01611 0.0
H1877 H 0.00463 0.53693 0.04986 0.0
H1878 H 0.98151 0.56007 0.04566 0.0
H1879 H 0.96712 0.57 0.01686 0.0
H1880 H 0.89064 0.59614 0.96617 0.0
H1881 H 0.91606 0.58188 0.9814 0.0
C1882 C 0.09455 0.9775 0.04993 0.0
C1883 C 0.10161 0.99725 0.0521 0.0
C1884 C 0.10716 0.9636 0.0449 0.0
C1885 C 0.15477 0.95692 0.024 0.0
H1886 H 0.15312 0.91243 0.04789 0.0
C1887 C 0.21589 0.90665 0.01736 0.0
C1888 C 0.21019 0.88677 0.01629 0.0
C1889 C 0.20217 0.91971 0.02117 0.0
C1890 C 0.15363 0.92462 0.04089 0.0
H1891 H 0.12775 0.01773 0.05098 0.0
H1892 H 0.14952 0.99362 0.04208 0.0
H1893 H 0.12993 0.93572 0.05527 0.0
H1894 H 0.18543 0.86509 0.0183 0.0
H1895 H 0.16148 0.88782 0.02471 0.0
H1896 H 0.17846 0.94589 0.00965 0.0
C1897 C 0.13415 0.98883 0.04396 0.0
C1898 C 0.14029 0.938 0.04514 0.0
C1899 C 0.12159 0.00269 0.04903 0.0
C1900 C 0.19038 0.88029 0.01907 0.0
C1901 C 0.17665 0.89336 0.02286 0.0
C1902 C 0.16806 0.94354 0.01973 0.0
C1903 C 0.12714 0.9691 0.04187 0.0
C1904 C 0.14078 0.95441 0.03684 0.0
C1905 C 0.18235 0.91326 0.02399 0.0
C1906 C 0.16778 0.92726 0.02821 0.0
H1907 H 0.07922 0.97275 0.052 0.0
H1908 H 0.10119 0.94854 0.04321 0.0
H1909 H 0.15536 0.96921 0.01712 0.0
H1910 H 0.23103 0.91218 0.01537 0.0
H1911 H 0.20722 0.93492 0.02219 0.0
loop_
_geom_bond_atom_site_label_1
_geom_bond_atom_site_label_2
_geom_bond_distance
_geom_bond_site_symmetry_2
_ccdc_geom_bond_type
H0 C1 0.949 . S
C1 H0 0.949 . S
C1 C2 1.395 . S
C1 C3 1.391 . S
C2 C1 1.395 . S
C2 C5 1.390 . S
C3 C1 1.391 . S
C3 C7 1.387 . S
C3 C8 1.491 . S
H4 C5 0.950 . S
C5 C2 1.390 . S
C5 H4 0.950 . S
C5 C6 1.378 . S
C6 C5 1.378 . S
C6 C7 1.409 . S
C7 C3 1.387 . S
C7 C6 1.409 . S
C7 H9 0.951 . S
C8 C3 1.491 . S
C8 C10 1.382 . S
C8 C12 1.404 . S
H9 C7 0.951 . S
C10 C8 1.382 . S
C10 C11 1.390 . S
C10 H15 0.949 . S
C11 C10 1.390 . S
C11 C16 1.399 . S
C12 C8 1.404 . S
C12 H13 0.950 . S
C12 C14 1.375 . S
H13 C12 0.950 . S
C14 C12 1.375 . S
C14 C16 1.382 . S
C14 H18 0.950 . S
H15 C10 0.949 . S
C16 C11 1.399 . S
C16 C14 1.382 . S
C16 H17 0.952 . S
H17 C16 0.952 . S
H18 C14 0.950 . S
H19 C20 0.949 . S
C20 H19 0.949 . S
C20 C21 1.395 . S
C20 C22 1.391 . S
C21 C20 1.395 . S
C21 C24 1.390 . S
C22 C20 1.391 . S
C22 C26 1.387 . S
C22 C27 1.491 . S
H23 C24 0.950 . S
C24 C21 1.390 . S
C24 H23 0.950 . S
C24 C25 1.378 . S
C25 C24 1.378 . S
C25 C26 1.409 . S
C26 C22 1.387 . S
C26 C25 1.409 . S
C26 H28 0.951 . S
C27 C22 1.491 . S
C27 C29 1.382 . S
C27 C31 1.404 . S
H28 C26 0.951 . S
C29 C27 1.382 . S
C29 C30 1.390 . S
C29 H34 0.949 . S
C30 C29 1.390 . S
C30 C35 1.399 . S
C31 C27 1.404 . S
C31 H32 0.950 . S
C31 C33 1.375 . S
H32 C31 0.950 . S
C33 C31 1.375 . S
C33 C35 1.382 . S
C33 H37 0.950 . S
H34 C29 0.949 . S
C35 C30 1.399 . S
C35 C33 1.382 . S
C35 H36 0.952 . S
H36 C35 0.952 . S
H37 C33 0.950 . S
H38 C39 0.949 . S
C39 H38 0.949 . S
C39 C40 1.395 . S
C39 C41 1.391 . S
C40 C39 1.395 . S
C40 C43 1.390 . S
C41 C39 1.391 . S
C41 C45 1.387 . S
C41 C46 1.491 . S
H42 C43 0.950 . S
C43 C40 1.390 . S
C43 H42 0.950 . S
C43 C44 1.378 . S
C44 C43 1.378 . S
C44 C45 1.409 . S
C45 C41 1.387 . S
C45 C44 1.409 . S
C45 H47 0.951 . S
C46 C41 1.491 . S
C46 C48 1.382 . S
C46 C50 1.404 1_554 S
H47 C45 0.951 . S
C48 C46 1.382 . S
C48 C49 1.390 1_554 S
C48 H53 0.949 . S
C49 C48 1.390 1_556 S
C49 C54 1.399 . S
C50 C46 1.404 1_556 S
C50 H51 0.950 . S
C50 C52 1.375 . S
H51 C50 0.950 . S
C52 C50 1.375 . S
C52 C54 1.382 . S
C52 H56 0.950 . S
H53 C48 0.949 . S
C54 C49 1.399 . S
C54 C52 1.382 . S
C54 H55 0.952 . S
H55 C54 0.952 . S
H56 C52 0.950 . S
H57 C58 0.949 . S
C58 H57 0.949 . S
C58 C59 1.395 . S
C58 C60 1.391 . S
C59 C58 1.395 . S
C59 C62 1.390 . S
C60 C58 1.391 . S
C60 C64 1.387 . S
C60 C65 1.491 . S
H61 C62 0.950 . S
C62 C59 1.390 . S
C62 H61 0.950 . S
C62 C63 1.378 . S
C63 C62 1.378 . S
C63 C64 1.409 . S
C64 C60 1.387 . S
C64 C63 1.409 . S
C64 H66 0.951 . S
C65 C60 1.491 . S
C65 C67 1.382 . S
C65 C69 1.404 . S
H66 C64 0.951 . S
C67 C65 1.382 . S
C67 C68 1.390 . S
C67 H72 0.949 . S
C68 C67 1.390 . S
C68 C73 1.399 . S
C69 C65 1.404 . S
C69 H70 0.950 . S
C69 C71 1.375 . S
H70 C69 0.950 . S
C71 C69 1.375 . S
C71 C73 1.382 . S
C71 H75 0.950 . S
H72 C67 0.949 . S
C73 C68 1.399 . S
C73 C71 1.382 . S
C73 H74 0.952 . S
H74 C73 0.952 . S
H75 C71 0.950 . S
H76 C77 0.949 . S
C77 H76 0.949 . S
C77 C78 1.395 . S
C77 C79 1.391 . S
C78 C77 1.395 . S
C78 C81 1.390 . S
C79 C77 1.391 . S
C79 C83 1.387 . S
C79 C84 1.491 . S
H80 C81 0.950 . S
C81 C78 1.390 . S
C81 H80 0.950 . S
C81 C82 1.378 . S
C82 C81 1.378 . S
C82 C83 1.409 . S
C83 C79 1.387 . S
C83 C82 1.409 . S
C83 H85 0.951 . S
C84 C79 1.491 . S
C84 C86 1.382 . S
C84 C88 1.404 . S
H85 C83 0.951 . S
C86 C84 1.382 . S
C86 C87 1.390 . S
C86 H91 0.949 . S
C87 C86 1.390 . S
C87 C92 1.399 . S
C88 C84 1.404 . S
C88 H89 0.950 . S
C88 C90 1.375 . S
H89 C88 0.950 . S
C90 C88 1.375 . S
C90 C92 1.382 . S
C90 H94 0.950 . S
H91 C86 0.949 . S
C92 C87 1.399 . S
C92 C90 1.382 . S
C92 H93 0.952 . S
H93 C92 0.952 . S
H94 C90 0.950 . S
H95 C96 0.949 . S
C96 H95 0.949 . S
C96 C97 1.395 . S
C96 C98 1.391 . S
C97 C96 1.395 . S
C97 C100 1.390 . S
C98 C96 1.391 . S
C98 C102 1.387 . S
C98 C103 1.491 . S
H99 C100 0.950 . S
C100 C97 1.390 . S
C100 H99 0.950 . S
C100 C101 1.378 . S
C101 C100 1.378 . S
C101 C102 1.409 . S
C102 C98 1.387 . S
C102 C101 1.409 . S
C102 H104 0.951 . S
C103 C98 1.491 . S
C103 C105 1.382 . S
C103 C107 1.404 . S
H104 C102 0.951 . S
C105 C103 1.382 . S
C105 C106 1.390 . S
C105 H110 0.949 . S
C106 C105 1.390 . S
C106 C111 1.399 . S
C107 C103 1.404 . S
C107 H108 0.950 . S
C107 C109 1.375 . S
H108 C107 0.950 . S
C109 C107 1.375 . S
C109 C111 1.382 . S
C109 H113 0.950 . S
H110 C105 0.949 . S
C111 C106 1.399 . S
C111 C109 1.382 . S
C111 H112 0.952 . S
H112 C111 0.952 . S
H113 C109 0.950 . S
H114 C115 0.949 . S
C115 H114 0.949 . S
C115 C116 1.395 . S
C115 C117 1.391 . S
C116 C115 1.395 . S
C116 C119 1.390 . S
C117 C115 1.391 . S
C117 C121 1.387 . S
C117 C122 1.491 . S
H118 C119 0.950 . S
C119 C116 1.390 . S
C119 H118 0.950 . S
C119 C120 1.378 . S
C120 C119 1.378 . S
C120 C121 1.409 . S
C121 C117 1.387 . S
C121 C120 1.409 . S
C121 H123 0.951 . S
C122 C117 1.491 . S
C122 C124 1.382 . S
C122 C126 1.404 . S
H123 C121 0.951 . S
C124 C122 1.382 . S
C124 C125 1.390 . S
C124 H129 0.949 1_655 S
C125 C124 1.390 . S
C125 C130 1.399 . S
C126 C122 1.404 . S
C126 H127 0.950 . S
C126 C128 1.375 . S
H127 C126 0.950 . S
C128 C126 1.375 . S
C128 C130 1.382 . S
C128 H132 0.950 . S
H129 C124 0.949 1_455 S
C130 C125 1.399 . S
C130 C128 1.382 . S
C130 H131 0.952 . S
H131 C130 0.952 . S
H132 C128 0.950 . S
H133 C134 0.949 . S
C134 H133 0.949 . S
C134 C135 1.395 . S
C134 C136 1.391 . S
C135 C134 1.395 . S
C135 C138 1.390 . S
C136 C134 1.391 . S
C136 C140 1.387 . S
C136 C141 1.491 . S
H137 C138 0.950 . S
C138 C135 1.390 . S
C138 H137 0.950 . S
C138 C139 1.378 . S
C139 C138 1.378 . S
C139 C140 1.409 . S
C140 C136 1.387 . S
C140 C139 1.409 . S
C140 H142 0.951 . S
C141 C136 1.491 . S
C141 C143 1.382 . S
C141 C145 1.404 . S
H142 C140 0.951 . S
C143 C141 1.382 . S
C143 C144 1.390 . S
C143 H148 0.949 . S
C144 C143 1.390 . S
C144 C149 1.399 . S
C145 C141 1.404 . S
C145 H146 0.950 . S
C145 C147 1.375 . S
H146 C145 0.950 . S
C147 C145 1.375 . S
C147 C149 1.382 . S
C147 H151 0.950 . S
H148 C143 0.949 . S
C149 C144 1.399 . S
C149 C147 1.382 . S
C149 H150 0.952 . S
H150 C149 0.952 . S
H151 C147 0.950 . S
H152 C153 0.949 . S
C153 H152 0.949 . S
C153 C154 1.395 . S
C153 C155 1.391 . S
C154 C153 1.395 . S
C154 C157 1.390 . S
C155 C153 1.391 . S
C155 C159 1.387 . S
C155 C160 1.491 . S
H156 C157 0.950 . S
C157 C154 1.390 . S
C157 H156 0.950 . S
C157 C158 1.378 . S
C158 C157 1.378 . S
C158 C159 1.409 . S
C159 C155 1.387 . S
C159 C158 1.409 . S
C159 H161 0.951 . S
C160 C155 1.491 . S
C160 C162 1.382 . S
C160 C164 1.404 . S
H161 C159 0.951 . S
C162 C160 1.382 . S
C162 C163 1.390 . S
C162 H167 0.949 . S
C163 C162 1.390 . S
C163 C168 1.399 . S
C164 C160 1.404 . S
C164 H165 0.950 . S
C164 C166 1.375 . S
H165 C164 0.950 . S
C166 C164 1.375 . S
C166 C168 1.382 . S
C166 H170 0.950 . S
H167 C162 0.949 . S
C168 C163 1.399 . S
C168 C166 1.382 . S
C168 H169 0.952 . S
H169 C168 0.952 . S
H170 C166 0.950 . S
H171 C172 0.949 . S
C172 H171 0.949 . S
C172 C173 1.395 . S
C172 C174 1.391 . S
C173 C172 1.395 . S
C173 C176 1.390 . S
C174 C172 1.391 . S
C174 C178 1.387 . S
C174 C179 1.491 . S
H175 C176 0.950 . S
C176 C173 1.390 . S
C176 H175 0.950 . S
C176 C177 1.378 . S
C177 C176 1.378 . S
C177 C178 1.409 . S
C178 C174 1.387 . S
C178 C177 1.409 . S
C178 H180 0.951 . S
C179 C174 1.491 . S
C179 C181 1.382 . S
C179 C183 1.404 . S
H180 C178 0.951 . S
C181 C179 1.382 . S
C181 C182 1.390 . S
C181 H186 0.949 . S
C182 C181 1.390 . S
C182 C187 1.399 . S
C183 C179 1.404 . S
C183 H184 0.950 . S
C183 C185 1.375 . S
H184 C183 0.950 . S
C185 C183 1.375 . S
C185 C187 1.382 . S
C185 H189 0.950 . S
H186 C181 0.949 . S
C187 C182 1.399 . S
C187 C185 1.382 . S
C187 H188 0.952 . S
H188 C187 0.952 . S
H189 C185 0.950 . S
H190 C191 0.949 . S
C191 H190 0.949 . S
C191 C192 1.395 . S
C191 C193 1.391 . S
C192 C191 1.395 . S
C192 C195 1.390 . S
C193 C191 1.391 . S
C193 C197 1.387 . S
C193 C198 1.491 . S
H194 C195 0.950 . S
C195 C192 1.390 . S
C195 H194 0.950 . S
C195 C196 1.378 . S
C196 C195 1.378 . S
C196 C197 1.409 . S
C197 C193 1.387 . S
C197 C196 1.409 . S
C197 H199 0.951 . S
C198 C193 1.491 . S
C198 C200 1.382 . S
C198 C202 1.404 . S
H199 C197 0.951 . S
C200 C198 1.382 . S
C200 C201 1.390 . S
C200 H205 0.949 . S
C201 C200 1.390 . S
C201 C206 1.399 . S
C202 C198 1.404 . S
C202 H203 0.950 . S
C202 C204 1.375 . S
H203 C202 0.950 . S
C204 C202 1.375 . S
C204 C206 1.382 . S
C204 H208 0.950 . S
H205 C200 0.949 . S
C206 C201 1.399 . S
C206 C204 1.382 . S
C206 H207 0.952 . S
H207 C206 0.952 . S
H208 C204 0.950 . S
H209 C210 0.949 . S
C210 H209 0.949 . S
C210 C211 1.395 . S
C210 C212 1.391 . S
C211 C210 1.395 . S
C211 C214 1.390 . S
C212 C210 1.391 . S
C212 C216 1.387 . S
C212 C217 1.491 . S
H213 C214 0.950 . S
C214 C211 1.390 . S
C214 H213 0.950 . S
C214 C215 1.378 . S
C215 C214 1.378 . S
C215 C216 1.409 . S
C216 C212 1.387 . S
C216 C215 1.409 . S
C216 H218 0.951 . S
C217 C212 1.491 . S
C217 C219 1.382 . S
C217 C221 1.404 . S
H218 C216 0.951 . S
C219 C217 1.382 . S
C219 C220 1.390 . S
C219 H224 0.949 . S
C220 C219 1.390 . S
C220 C225 1.399 . S
C221 C217 1.404 . S
C221 H222 0.950 . S
C221 C223 1.375 . S
H222 C221 0.950 . S
C223 C221 1.375 . S
C223 C225 1.382 . S
C223 H227 0.950 . S
H224 C219 0.949 . S
C225 C220 1.399 . S
C225 C223 1.382 . S
C225 H226 0.952 . S
H226 C225 0.952 . S
H227 C223 0.950 . S
H228 C229 0.949 . S
C229 H228 0.949 . S
C229 C230 1.395 . S
C229 C231 1.391 . S
C230 C229 1.395 . S
C230 C233 1.390 . S
C231 C229 1.391 . S
C231 C235 1.387 . S
C231 C236 1.491 . S
H232 C233 0.950 . S
C233 C230 1.390 . S
C233 H232 0.950 . S
C233 C234 1.378 . S
C234 C233 1.378 . S
C234 C235 1.409 . S
C235 C231 1.387 . S
C235 C234 1.409 . S
C235 H237 0.951 . S
C236 C231 1.491 . S
C236 C238 1.382 . S
C236 C240 1.404 . S
H237 C235 0.951 . S
C238 C236 1.382 . S
C238 C239 1.390 . S
C238 H243 0.949 . S
C239 C238 1.390 . S
C239 C244 1.399 . S
C240 C236 1.404 . S
C240 H241 0.950 . S
C240 C242 1.375 . S
H241 C240 0.950 . S
C242 C240 1.375 . S
C242 C244 1.382 . S
C242 H246 0.950 . S
H243 C238 0.949 . S
C244 C239 1.399 . S
C244 C242 1.382 . S
C244 H245 0.952 . S
H245 C244 0.952 . S
H246 C242 0.950 . S
H247 C248 0.949 . S
C248 H247 0.949 . S
C248 C249 1.395 . S
C248 C250 1.391 . S
C249 C248 1.395 . S
C249 C252 1.390 . S
C250 C248 1.391 . S
C250 C254 1.387 . S
C250 C255 1.491 . S
H251 C252 0.950 . S
C252 C249 1.390 . S
C252 H251 0.950 . S
C252 C253 1.378 . S
C253 C252 1.378 . S
C253 C254 1.409 . S
C254 C250 1.387 . S
C254 C253 1.409 . S
C254 H256 0.951 . S
C255 C250 1.491 . S
C255 C257 1.380 1_556 S
C255 C259 1.404 . S
H256 C254 0.951 . S
C257 C255 1.380 1_554 S
C257 C258 1.390 . S
C257 H262 0.950 . S
C258 C257 1.390 . S
C258 C263 1.399 1_554 S
C259 C255 1.404 . S
C259 H260 0.950 . S
C259 C261 1.375 . S
H260 C259 0.950 . S
C261 C259 1.375 . S
C261 C263 1.382 . S
C261 H265 0.950 . S
H262 C257 0.950 . S
C263 C258 1.399 1_556 S
C263 C261 1.382 . S
C263 H264 0.952 . S
H264 C263 0.952 . S
H265 C261 0.950 . S
H266 C267 0.949 . S
C267 H266 0.949 . S
C267 C268 1.395 . S
C267 C269 1.391 . S
C268 C267 1.395 . S
C268 C271 1.390 . S
C269 C267 1.391 . S
C269 C273 1.387 . S
C269 C274 1.491 . S
H270 C271 0.950 . S
C271 C268 1.390 . S
C271 H270 0.950 . S
C271 C272 1.378 . S
C272 C271 1.378 . S
C272 C273 1.409 . S
C273 C269 1.387 . S
C273 C272 1.409 . S
C273 H275 0.951 . S
C274 C269 1.491 . S
C274 C276 1.382 . S
C274 C278 1.404 . S
H275 C273 0.951 . S
C276 C274 1.382 . S
C276 C277 1.390 . S
C276 H281 0.949 . S
C277 C276 1.390 . S
C277 C282 1.399 . S
C278 C274 1.404 . S
C278 H279 0.950 . S
C278 C280 1.375 . S
H279 C278 0.950 . S
C280 C278 1.375 . S
C280 C282 1.382 . S
C280 H284 0.950 . S
H281 C276 0.949 . S
C282 C277 1.399 . S
C282 C280 1.382 . S
C282 H283 0.952 . S
H283 C282 0.952 . S
H284 C280 0.950 . S
H285 C286 0.949 . S
C286 H285 0.949 . S
C286 C287 1.395 . S
C286 C288 1.391 . S
C287 C286 1.395 . S
C287 C290 1.390 . S
C288 C286 1.391 . S
C288 C292 1.387 . S
C288 C293 1.491 . S
H289 C290 0.950 . S
C290 C287 1.390 . S
C290 H289 0.950 . S
C290 C291 1.378 . S
C291 C290 1.378 . S
C291 C292 1.409 . S
C292 C288 1.387 . S
C292 C291 1.409 . S
C292 H294 0.951 . S
C293 C288 1.491 . S
C293 C295 1.382 . S
C293 C297 1.404 . S
H294 C292 0.951 . S
C295 C293 1.382 . S
C295 C296 1.390 . S
C295 H300 0.949 . S
C296 C295 1.390 . S
C296 C301 1.399 . S
C297 C293 1.404 . S
C297 H298 0.950 . S
C297 C299 1.375 . S
H298 C297 0.950 . S
C299 C297 1.375 . S
C299 C301 1.382 . S
C299 H303 0.950 . S
H300 C295 0.949 . S
C301 C296 1.399 . S
C301 C299 1.382 . S
C301 H302 0.952 . S
H302 C301 0.952 . S
H303 C299 0.950 . S
Zn304 O307 2.031 . S
Zn304 O309 2.049 . S
Zn304 O314 2.067 . S
Zn305 O306 1.962 . S
Zn305 O308 1.986 . S
Zn305 O310 1.996 . S
Zn305 O313 1.943 . S
O306 Zn305 1.962 . S
O306 C311 1.254 . S
O307 Zn304 2.031 . S
O307 C311 1.269 . S
O308 Zn305 1.986 . S
O308 C315 1.262 . S
O309 Zn304 2.049 . S
O309 C317 1.260 . S
O310 Zn305 1.996 . S
O310 C317 1.257 . S
C311 O306 1.254 . S
C311 O307 1.269 . S
C312 O313 1.249 . S
C312 O314 1.270 . S
O313 Zn305 1.943 . S
O313 C312 1.249 . S
O314 Zn304 2.067 . S
O314 C312 1.270 . S
C315 O308 1.262 . S
C315 O316 1.232 . S
O316 C315 1.232 . S
C317 O309 1.260 . S
C317 O310 1.257 . S
Zn318 O321 2.031 . S
Zn318 O323 2.049 . S
Zn318 O328 2.067 . S
Zn319 O320 1.962 . S
Zn319 O322 1.986 . S
Zn319 O324 1.996 . S
Zn319 O327 1.943 . S
O320 Zn319 1.962 . S
O320 C325 1.254 . S
O321 Zn318 2.031 . S
O321 C325 1.269 . S
O322 Zn319 1.986 . S
O322 C329 1.262 . S
O323 Zn318 2.049 . S
O323 C331 1.260 . S
O324 Zn319 1.996 . S
O324 C331 1.257 . S
C325 O320 1.254 . S
C325 O321 1.269 . S
C326 O327 1.249 . S
C326 O328 1.270 . S
O327 Zn319 1.943 . S
O327 C326 1.249 . S
O328 Zn318 2.067 . S
O328 C326 1.270 . S
C329 O322 1.262 . S
C329 O330 1.232 . S
O330 C329 1.232 . S
C331 O323 1.260 . S
C331 O324 1.257 . S
Zn332 O335 2.031 . S
Zn332 O337 2.049 . S
Zn332 O342 2.067 . S
Zn333 O334 1.962 . S
Zn333 O336 1.986 . S
Zn333 O338 1.996 1_554 S
Zn333 O341 1.943 . S
O334 Zn333 1.962 . S
O334 C339 1.254 . S
O335 Zn332 2.031 . S
O335 C339 1.269 1_556 S
O336 Zn333 1.986 . S
O336 C343 1.262 . S
O337 Zn332 2.049 . S
O337 C345 1.260 . S
O338 Zn333 1.996 1_556 S
O338 C345 1.257 . S
C339 O334 1.254 . S
C339 O335 1.269 1_554 S
C340 O341 1.249 1_556 S
C340 O342 1.270 . S
O341 Zn333 1.943 . S
O341 C340 1.249 1_554 S
O342 Zn332 2.067 . S
O342 C340 1.270 . S
C343 O336 1.262 . S
C343 O344 1.232 . S
O344 C343 1.232 . S
C345 O337 1.260 . S
C345 O338 1.257 . S
Zn346 O349 2.031 . S
Zn346 O351 2.049 . S
Zn346 O356 2.067 1_545 S
Zn347 O348 1.962 . S
Zn347 O350 1.986 . S
Zn347 O352 1.996 . S
Zn347 O355 1.948 1_545 S
O348 Zn347 1.962 . S
O348 C353 1.254 . S
O349 Zn346 2.031 . S
O349 C353 1.269 . S
O350 Zn347 1.986 . S
O350 C357 1.262 . S
O351 Zn346 2.049 . S
O351 C359 1.260 . S
O352 Zn347 1.996 . S
O352 C359 1.257 . S
C353 O348 1.254 . S
C353 O349 1.269 . S
C354 O355 1.245 . S
C354 O356 1.270 . S
O355 Zn347 1.948 1_565 S
O355 C354 1.245 . S
O356 Zn346 2.067 1_565 S
O356 C354 1.270 . S
C357 O350 1.262 . S
C357 O358 1.232 . S
O358 C357 1.232 . S
C359 O351 1.260 . S
C359 O352 1.257 . S
Zn360 O363 2.031 . S
Zn360 O365 2.049 . S
Zn360 O370 2.067 . S
Zn361 O362 1.962 . S
Zn361 O364 1.986 . S
Zn361 O366 1.996 . S
Zn361 O369 1.943 . S
O362 Zn361 1.962 . S
O362 C367 1.254 . S
O363 Zn360 2.031 . S
O363 C367 1.269 . S
O364 Zn361 1.986 . S
O364 C371 1.262 . S
O365 Zn360 2.049 . S
O365 C373 1.260 . S
O366 Zn361 1.996 . S
O366 C373 1.257 . S
C367 O362 1.254 . S
C367 O363 1.269 . S
C368 O369 1.249 . S
C368 O370 1.270 . S
O369 Zn361 1.943 . S
O369 C368 1.249 . S
O370 Zn360 2.067 . S
O370 C368 1.270 . S
C371 O364 1.262 . S
C371 O372 1.232 . S
O372 C371 1.232 . S
C373 O365 1.260 . S
C373 O366 1.257 . S
Zn374 O377 2.031 . S
Zn374 O379 2.049 . S
Zn374 O384 2.067 . S
Zn375 O376 1.962 . S
Zn375 O378 1.986 . S
Zn375 O380 1.996 . S
Zn375 O383 1.943 . S
O376 Zn375 1.962 . S
O376 C381 1.254 . S
O377 Zn374 2.031 . S
O377 C381 1.269 . S
O378 Zn375 1.986 . S
O378 C385 1.262 . S
O379 Zn374 2.049 . S
O379 C387 1.260 . S
O380 Zn375 1.996 . S
O380 C387 1.257 . S
C381 O376 1.254 . S
C381 O377 1.269 . S
C382 O383 1.249 . S
C382 O384 1.270 . S
O383 Zn375 1.943 . S
O383 C382 1.249 . S
O384 Zn374 2.067 . S
O384 C382 1.270 . S
C385 O378 1.262 . S
C385 O386 1.232 . S
O386 C385 1.232 . S
C387 O379 1.260 . S
C387 O380 1.257 . S
Zn388 O391 2.031 . S
Zn388 O393 2.049 . S
Zn388 O398 2.067 . S
Zn389 O390 1.962 . S
Zn389 O392 1.986 . S
Zn389 O394 1.996 . S
Zn389 O397 1.943 . S
O390 Zn389 1.962 . S
O390 C395 1.254 . S
O391 Zn388 2.031 . S
O391 C395 1.269 . S
O392 Zn389 1.986 . S
O392 C399 1.262 . S
O393 Zn388 2.049 . S
O393 C401 1.260 . S
O394 Zn389 1.996 . S
O394 C401 1.257 . S
C395 O390 1.254 . S
C395 O391 1.269 . S
C396 O397 1.249 . S
C396 O398 1.270 . S
O397 Zn389 1.943 . S
O397 C396 1.249 . S
O398 Zn388 2.067 . S
O398 C396 1.270 . S
C399 O392 1.262 . S
C399 O400 1.232 . S
O400 C399 1.232 . S
C401 O393 1.260 . S
C401 O394 1.257 . S
Zn402 O405 2.031 1_565 S
Zn402 O407 2.049 . S
Zn402 O412 2.067 . S
Zn403 O404 1.962 . S
Zn403 O406 1.986 . S
Zn403 O408 2.021 . S
Zn403 O411 1.943 . S
O404 Zn403 1.962 . S
O404 C409 1.254 . S
O405 Zn402 2.031 1_545 S
O405 C409 1.269 . S
O406 Zn403 1.986 . S
O406 C413 1.262 . S
O407 Zn402 2.049 . S
O407 C415 1.260 . S
O408 Zn403 2.021 . S
O408 C415 1.232 1_545 S
C409 O404 1.254 . S
C409 O405 1.269 . S
C410 O411 1.249 . S
C410 O412 1.270 1_545 S
O411 Zn403 1.943 . S
O411 C410 1.249 . S
O412 Zn402 2.067 . S
O412 C410 1.270 1_565 S
C413 O406 1.262 . S
C413 O414 1.232 . S
O414 C413 1.232 . S
C415 O407 1.260 . S
C415 O408 1.232 1_565 S
Zn416 O419 2.031 . S
Zn416 O421 2.049 . S
Zn416 O426 2.067 1_455 S
Zn417 O418 1.962 . S
Zn417 O420 1.986 . S
Zn417 O422 1.996 . S
Zn417 O425 1.943 1_455 S
O418 Zn417 1.962 . S
O418 C423 1.254 . S
O419 Zn416 2.031 . S
O419 C423 1.269 . S
O420 Zn417 1.986 . S
O420 C427 1.262 . S
O421 Zn416 2.049 . S
O421 C429 1.260 . S
O422 Zn417 1.996 . S
O422 C429 1.257 . S
C423 O418 1.254 . S
C423 O419 1.269 . S
C424 O425 1.249 . S
C424 O426 1.270 . S
O425 Zn417 1.943 1_655 S
O425 C424 1.249 . S
O426 Zn416 2.067 1_655 S
O426 C424 1.270 . S
C427 O420 1.262 . S
C427 O428 1.232 . S
O428 C427 1.232 . S
C429 O421 1.260 . S
C429 O422 1.257 . S
Zn430 O433 2.031 . S
Zn430 O435 2.049 . S
Zn430 O440 2.067 . S
Zn431 O432 1.962 . S
Zn431 O434 1.986 . S
Zn431 O436 1.996 . S
Zn431 O439 1.943 . S
O432 Zn431 1.962 . S
O432 C437 1.254 . S
O433 Zn430 2.031 . S
O433 C437 1.269 . S
O434 Zn431 1.986 . S
O434 C441 1.262 . S
O435 Zn430 2.049 . S
O435 C443 1.260 . S
O436 Zn431 1.996 . S
O436 C443 1.257 . S
C437 O432 1.254 . S
C437 O433 1.269 . S
C438 O439 1.249 . S
C438 O440 1.270 . S
O439 Zn431 1.943 . S
O439 C438 1.249 . S
O440 Zn430 2.067 . S
O440 C438 1.270 . S
C441 O434 1.262 . S
C441 O442 1.232 . S
O442 C441 1.232 . S
C443 O435 1.260 . S
C443 O436 1.257 . S
Zn444 O447 2.031 1_655 S
Zn444 O449 2.049 . S
Zn444 O454 2.067 . S
Zn445 O446 1.962 . S
Zn445 O448 1.986 . S
Zn445 O450 1.996 1_455 S
Zn445 O453 1.943 . S
O446 Zn445 1.962 . S
O446 C451 1.254 . S
O447 Zn444 2.031 1_455 S
O447 C451 1.269 . S
O448 Zn445 1.986 . S
O448 C455 1.262 . S
O449 Zn444 2.049 . S
O449 C457 1.260 . S
O450 Zn445 1.996 1_655 S
O450 C457 1.257 . S
C451 O446 1.254 . S
C451 O447 1.269 . S
C452 O453 1.249 . S
C452 O454 1.270 1_455 S
O453 Zn445 1.943 . S
O453 C452 1.249 . S
O454 Zn444 2.067 . S
O454 C452 1.270 1_655 S
C455 O448 1.262 . S
C455 O456 1.232 . S
O456 C455 1.232 . S
C457 O449 1.260 . S
C457 O450 1.257 . S
Zn458 O461 2.031 . S
Zn458 O463 2.049 . S
Zn458 O468 2.067 . S
Zn459 O460 1.962 . S
Zn459 O462 1.986 . S
Zn459 O464 1.996 . S
Zn459 O467 1.943 . S
O460 Zn459 1.962 . S
O460 C465 1.254 . S
O461 Zn458 2.031 . S
O461 C465 1.269 . S
O462 Zn459 1.986 . S
O462 C469 1.262 . S
O463 Zn458 2.049 . S
O463 C471 1.260 . S
O464 Zn459 1.996 . S
O464 C471 1.257 . S
C465 O460 1.254 . S
C465 O461 1.269 . S
C466 O467 1.249 . S
C466 O468 1.270 . S
O467 Zn459 1.943 . S
O467 C466 1.249 . S
O468 Zn458 2.067 . S
O468 C466 1.270 . S
C469 O462 1.262 . S
C469 O470 1.232 . S
O470 C469 1.232 . S
C471 O463 1.260 . S
C471 O464 1.257 . S
C472 C473 1.349 . S
C472 C474 1.327 . S
C472 H497 0.950 . S
C473 C472 1.349 . S
C473 C489 1.349 . S
C474 C472 1.327 . S
C474 C493 1.429 . S
C474 H498 0.950 . S
C475 C492 1.574 . S
C475 C494 1.368 . S
C475 H499 0.949 . S
H476 C480 0.949 . S
C477 C478 1.349 . S
C477 C479 1.327 . S
C477 H500 0.983 . S
C478 C477 1.349 . S
C478 C490 1.349 . S
C479 C477 1.327 . S
C479 C495 1.429 . S
C479 H501 0.950 . S
C480 H476 0.949 . S
C480 C488 1.574 . S
C480 C496 1.368 . S
H481 C489 0.950 . S
H482 C487 0.950 . S
H483 C488 0.949 . S
H484 C490 0.950 . S
H485 C491 0.950 . S
H486 C492 0.949 . S
C487 H482 0.950 . S
C487 C489 1.327 . S
C487 C493 1.429 . S
C488 C480 1.574 . S
C488 H483 0.949 . S
C488 C494 1.368 . S
C489 C473 1.349 . S
C489 H481 0.950 . S
C489 C487 1.327 . S
C490 C478 1.349 . S
C490 H484 0.950 . S
C490 C491 1.327 . S
C491 H485 0.950 . S
C491 C490 1.327 . S
C491 C495 1.429 . S
C492 C475 1.574 . S
C492 H486 0.949 . S
C492 C496 1.368 . S
C493 C474 1.429 . S
C493 C487 1.429 . S
C493 C494 1.523 . S
C494 C475 1.368 . S
C494 C488 1.368 . S
C494 C493 1.523 . S
C495 C479 1.429 . S
C495 C491 1.429 . S
C495 C496 1.523 . S
C496 C480 1.368 . S
C496 C492 1.368 . S
C496 C495 1.523 . S
H497 C472 0.950 . S
H498 C474 0.950 . S
H499 C475 0.949 . S
H500 C477 0.983 . S
H501 C479 0.950 . S
C502 C503 1.349 . S
C502 C504 1.327 . S
C502 H527 0.950 . S
C503 C502 1.349 . S
C503 C519 1.349 . S
C504 C502 1.327 . S
C504 C523 1.429 . S
C504 H528 0.950 . S
C505 C522 1.574 . S
C505 C524 1.368 . S
C505 H529 0.949 . S
H506 C510 0.949 . S
C507 C508 1.349 . S
C507 C509 1.327 . S
C507 H530 0.950 . S
C508 C507 1.349 . S
C508 C520 1.349 . S
C509 C507 1.327 . S
C509 C525 1.429 . S
C509 H531 0.950 . S
C510 H506 0.949 . S
C510 C518 1.574 . S
C510 C526 1.368 . S
H511 C519 0.950 1_655 S
H512 C517 0.950 . S
H513 C518 0.949 . S
H514 C520 0.950 . S
H515 C521 0.950 . S
H516 C522 0.949 . S
C517 H512 0.950 . S
C517 C519 1.327 . S
C517 C523 1.429 . S
C518 C510 1.574 . S
C518 H513 0.949 . S
C518 C524 1.368 . S
C519 C503 1.349 . S
C519 H511 0.950 1_455 S
C519 C517 1.327 . S
C520 C508 1.349 . S
C520 H514 0.950 . S
C520 C521 1.327 . S
C521 H515 0.950 . S
C521 C520 1.327 . S
C521 C525 1.429 . S
C522 C505 1.574 . S
C522 H516 0.949 . S
C522 C526 1.368 . S
C523 C504 1.429 . S
C523 C517 1.429 . S
C523 C524 1.523 . S
C524 C505 1.368 . S
C524 C518 1.368 . S
C524 C523 1.523 . S
C525 C509 1.429 . S
C525 C521 1.429 . S
C525 C526 1.523 . S
C526 C510 1.368 . S
C526 C522 1.368 . S
C526 C525 1.523 . S
H527 C502 0.950 . S
H528 C504 0.950 . S
H529 C505 0.949 . S
H530 C507 0.950 . S
H531 C509 0.950 . S
C532 C533 1.349 . S
C532 C534 1.327 . S
C532 H557 0.950 . S
C533 C532 1.349 . S
C533 C549 1.349 . S
C534 C532 1.327 . S
C534 C553 1.429 . S
C534 H558 0.950 . S
C535 C552 1.574 . S
C535 C554 1.368 . S
C535 H559 0.949 . S
H536 C540 0.949 . S
C537 C538 1.349 . S
C537 C539 1.327 . S
C537 H560 0.950 . S
C538 C537 1.349 . S
C538 C550 1.349 . S
C539 C537 1.327 . S
C539 C555 1.429 . S
C539 H561 0.950 . S
C540 H536 0.949 . S
C540 C548 1.574 . S
C540 C556 1.368 . S
H541 C549 0.950 . S
H542 C547 0.950 . S
H543 C548 0.949 . S
H544 C550 0.950 . S
H545 C551 0.950 . S
H546 C552 0.949 . S
C547 H542 0.950 . S
C547 C549 1.327 . S
C547 C553 1.429 . S
C548 C540 1.574 . S
C548 H543 0.949 . S
C548 C554 1.368 . S
C549 C533 1.349 . S
C549 H541 0.950 . S
C549 C547 1.327 . S
C550 C538 1.349 . S
C550 H544 0.950 . S
C550 C551 1.327 . S
C551 H545 0.950 . S
C551 C550 1.327 . S
C551 C555 1.429 . S
C552 C535 1.574 . S
C552 H546 0.949 . S
C552 C556 1.368 . S
C553 C534 1.429 . S
C553 C547 1.429 . S
C553 C554 1.523 . S
C554 C535 1.368 . S
C554 C548 1.368 . S
C554 C553 1.523 . S
C555 C539 1.429 . S
C555 C551 1.429 . S
C555 C556 1.523 . S
C556 C540 1.368 . S
C556 C552 1.368 . S
C556 C555 1.523 . S
H557 C532 0.950 . S
H558 C534 0.950 . S
H559 C535 0.949 . S
H560 C537 0.950 . S
H561 C539 0.950 . S
C562 C563 1.349 . S
C562 C564 1.327 . S
C562 H587 0.950 . S
C563 C562 1.349 . S
C563 C579 1.349 . S
C564 C562 1.327 . S
C564 C583 1.429 . S
C564 H588 0.950 . S
C565 C582 1.574 1_565 S
C565 C584 1.368 . S
C565 H589 0.954 . S
H566 C570 0.949 . S
C567 C568 1.349 1_455 S
C567 C569 1.327 . S
C567 H590 0.950 . S
C568 C567 1.349 1_655 S
C568 C580 1.349 1_545 S
C569 C567 1.327 . S
C569 C585 1.429 1_545 S
C569 H591 0.950 . S
C570 H566 0.949 . S
C570 C578 1.574 . S
C570 C586 1.368 . S
H571 C579 0.950 . S
H572 C577 0.950 . S
H573 C578 0.949 . S
H574 C580 0.950 . S
H575 C581 0.955 . S
H576 C582 0.949 . S
C577 H572 0.950 . S
C577 C579 1.327 . S
C577 C583 1.429 . S
C578 C570 1.574 . S
C578 H573 0.949 . S
C578 C584 1.368 . S
C579 C563 1.349 . S
C579 H571 0.950 . S
C579 C577 1.327 . S
C580 C568 1.349 1_565 S
C580 H574 0.950 . S
C580 C581 1.334 . S
C581 H575 0.955 . S
C581 C580 1.334 . S
C581 C585 1.416 1_655 S
C582 C565 1.574 1_545 S
C582 H576 0.949 . S
C582 C586 1.368 1_545 S
C583 C564 1.429 . S
C583 C577 1.429 . S
C583 C584 1.523 . S
C584 C565 1.368 . S
C584 C578 1.368 . S
C584 C583 1.523 . S
C585 C569 1.429 1_565 S
C585 C581 1.416 1_455 S
C585 C586 1.523 . S
C586 C570 1.368 . S
C586 C582 1.368 1_565 S
C586 C585 1.523 . S
H587 C562 0.950 . S
H588 C564 0.950 . S
H589 C565 0.954 . S
H590 C567 0.950 . S
H591 C569 0.950 . S
C592 C593 1.349 . S
C592 C594 1.327 . S
C592 H617 0.950 . S
C593 C592 1.349 . S
C593 C609 1.349 . S
C594 C592 1.327 . S
C594 C613 1.429 . S
C594 H618 0.950 . S
C595 C612 1.574 . S
C595 C614 1.368 . S
C595 H619 0.949 . S
H596 C600 0.949 . S
C597 C598 1.349 . S
C597 C599 1.327 . S
C597 H620 0.950 . S
C598 C597 1.349 . S
C598 C610 1.349 . S
C599 C597 1.327 . S
C599 C615 1.429 . S
C599 H621 0.950 . S
C600 H596 0.949 . S
C600 C608 1.574 . S
C600 C616 1.368 . S
H601 C609 0.950 . S
H602 C607 0.950 . S
H603 C608 0.949 . S
H604 C610 0.950 . S
H605 C611 0.950 . S
H606 C612 0.949 . S
C607 H602 0.950 . S
C607 C609 1.327 . S
C607 C613 1.429 . S
C608 C600 1.574 . S
C608 H603 0.949 . S
C608 C614 1.368 . S
C609 C593 1.349 . S
C609 H601 0.950 . S
C609 C607 1.327 . S
C610 C598 1.349 . S
C610 H604 0.950 . S
C610 C611 1.327 . S
C611 H605 0.950 . S
C611 C610 1.327 . S
C611 C615 1.429 . S
C612 C595 1.574 . S
C612 H606 0.949 . S
C612 C616 1.368 . S
C613 C594 1.429 . S
C613 C607 1.429 . S
C613 C614 1.523 . S
C614 C595 1.368 . S
C614 C608 1.368 . S
C614 C613 1.523 . S
C615 C599 1.429 . S
C615 C611 1.429 . S
C615 C616 1.523 . S
C616 C600 1.368 . S
C616 C612 1.368 . S
C616 C615 1.523 . S
H617 C592 0.950 . S
H618 C594 0.950 . S
H619 C595 0.949 . S
H620 C597 0.950 . S
H621 C599 0.950 . S
C622 C623 1.349 . S
C622 C624 1.327 . S
C622 H647 0.950 . S
C623 C622 1.349 . S
C623 C639 1.349 . S
C624 C622 1.327 . S
C624 C643 1.429 . S
C624 H648 0.950 . S
C625 C642 1.574 . S
C625 C644 1.368 . S
C625 H649 0.949 . S
H626 C630 0.949 . S
C627 C628 1.349 . S
C627 C629 1.327 . S
C627 H650 0.950 . S
C628 C627 1.349 . S
C628 C640 1.349 . S
C629 C627 1.327 . S
C629 C645 1.429 . S
C629 H651 0.950 . S
C630 H626 0.949 . S
C630 C638 1.574 . S
C630 C646 1.368 . S
H631 C639 0.950 . S
H632 C637 0.950 . S
H633 C638 0.949 . S
H634 C640 0.950 . S
H635 C641 0.950 . S
H636 C642 0.949 . S
C637 H632 0.950 . S
C637 C639 1.327 . S
C637 C643 1.429 . S
C638 C630 1.574 . S
C638 H633 0.949 . S
C638 C644 1.368 . S
C639 C623 1.349 . S
C639 H631 0.950 . S
C639 C637 1.327 . S
C640 C628 1.349 . S
C640 H634 0.950 . S
C640 C641 1.327 . S
C641 H635 0.950 . S
C641 C640 1.327 . S
C641 C645 1.429 . S
C642 C625 1.574 . S
C642 H636 0.949 . S
C642 C646 1.368 . S
C643 C624 1.429 . S
C643 C637 1.429 . S
C643 C644 1.523 . S
C644 C625 1.368 . S
C644 C638 1.368 . S
C644 C643 1.523 . S
C645 C629 1.429 . S
C645 C641 1.429 . S
C645 C646 1.523 . S
C646 C630 1.368 . S
C646 C642 1.368 . S
C646 C645 1.523 . S
H647 C622 0.950 . S
H648 C624 0.950 . S
H649 C625 0.949 . S
H650 C627 0.950 . S
H651 C629 0.950 . S
C652 C653 1.349 . S
C652 C654 1.327 . S
C652 H677 0.950 . S
C653 C652 1.349 . S
C653 C669 1.349 . S
C654 C652 1.327 . S
C654 C673 1.429 . S
C654 H678 0.950 . S
C655 C672 1.574 . S
C655 C674 1.368 . S
C655 H679 0.949 . S
H656 C660 0.949 . S
C657 C658 1.349 . S
C657 C659 1.327 . S
C657 H680 0.950 . S
C658 C657 1.349 . S
C658 C670 1.349 . S
C659 C657 1.327 . S
C659 C675 1.429 . S
C659 H681 0.950 . S
C660 H656 0.949 . S
C660 C668 1.574 . S
C660 C676 1.368 . S
H661 C669 0.950 . S
H662 C667 0.950 . S
H663 C668 0.949 . S
H664 C670 0.950 . S
H665 C671 0.950 . S
H666 C672 0.949 . S
C667 H662 0.950 . S
C667 C669 1.327 . S
C667 C673 1.429 . S
C668 C660 1.574 . S
C668 H663 0.949 . S
C668 C674 1.368 . S
C669 C653 1.349 . S
C669 H661 0.950 . S
C669 C667 1.327 . S
C670 C658 1.349 . S
C670 H664 0.950 . S
C670 C671 1.327 . S
C671 H665 0.950 . S
C671 C670 1.327 . S
C671 C675 1.429 . S
C672 C655 1.574 . S
C672 H666 0.949 . S
C672 C676 1.368 . S
C673 C654 1.429 . S
C673 C667 1.429 . S
C673 C674 1.523 . S
C674 C655 1.368 . S
C674 C668 1.368 . S
C674 C673 1.523 . S
C675 C659 1.429 . S
C675 C671 1.429 . S
C675 C676 1.523 . S
C676 C660 1.368 . S
C676 C672 1.368 . S
C676 C675 1.523 . S
H677 C652 0.950 . S
H678 C654 0.950 . S
H679 C655 0.949 . S
H680 C657 0.950 . S
H681 C659 0.950 . S
C682 C683 1.349 . S
C682 C684 1.327 . S
C682 H707 0.950 . S
C683 C682 1.349 . S
C683 C699 1.349 . S
C684 C682 1.327 . S
C684 C703 1.429 . S
C684 H708 0.950 . S
C685 C702 1.574 1_565 S
C685 C704 1.368 . S
C685 H709 0.949 1_565 S
H686 C690 0.949 . S
C687 C688 1.349 . S
C687 C689 1.327 . S
C687 H710 0.950 . S
C688 C687 1.349 . S
C688 C700 1.349 1_545 S
C689 C687 1.327 . S
C689 C705 1.429 1_545 S
C689 H711 0.950 . S
C690 H686 0.949 . S
C690 C698 1.574 . S
C690 C706 1.368 . S
H691 C699 0.950 . S
H692 C697 0.990 . S
H693 C698 0.949 . S
H694 C700 0.950 . S
H695 C701 0.950 . S
H696 C702 0.949 . S
C697 H692 0.990 . S
C697 C699 1.327 . S
C697 C703 1.429 . S
C698 C690 1.574 . S
C698 H693 0.949 . S
C698 C704 1.368 . S
C699 C683 1.349 . S
C699 H691 0.950 . S
C699 C697 1.327 . S
C700 C688 1.349 1_565 S
C700 H694 0.950 . S
C700 C701 1.327 . S
C701 H695 0.950 . S
C701 C700 1.327 . S
C701 C705 1.429 . S
C702 C685 1.574 1_545 S
C702 H696 0.949 . S
C702 C706 1.368 1_545 S
C703 C684 1.429 . S
C703 C697 1.429 . S
C703 C704 1.523 . S
C704 C685 1.368 . S
C704 C698 1.368 . S
C704 C703 1.523 . S
C705 C689 1.429 1_565 S
C705 C701 1.429 . S
C705 C706 1.523 . S
C706 C690 1.368 . S
C706 C702 1.368 1_565 S
C706 C705 1.523 . S
H707 C682 0.950 . S
H708 C684 0.950 . S
H709 C685 0.949 1_545 S
H710 C687 0.950 . S
H711 C689 0.950 . S
C712 C713 1.349 . S
C712 C714 1.327 . S
C712 H737 0.950 . S
C713 C712 1.349 . S
C713 C729 1.349 . S
C714 C712 1.327 . S
C714 C733 1.429 . S
C714 H738 0.950 . S
C715 C732 1.574 . S
C715 C734 1.368 . S
C715 H739 0.949 . S
H716 C720 0.949 . S
C717 C718 1.349 . S
C717 C719 1.327 . S
C717 H740 0.950 . S
C718 C717 1.349 . S
C718 C730 1.349 . S
C719 C717 1.327 . S
C719 C735 1.429 . S
C719 H741 0.950 . S
C720 H716 0.949 . S
C720 C728 1.574 . S
C720 C736 1.368 . S
H721 C729 0.950 . S
H722 C727 0.950 . S
H723 C728 0.949 . S
H724 C730 0.950 . S
H725 C731 0.950 . S
H726 C732 0.949 . S
C727 H722 0.950 . S
C727 C729 1.327 . S
C727 C733 1.429 . S
C728 C720 1.574 . S
C728 H723 0.949 . S
C728 C734 1.368 . S
C729 C713 1.349 . S
C729 H721 0.950 . S
C729 C727 1.327 . S
C730 C718 1.349 . S
C730 H724 0.950 . S
C730 C731 1.327 . S
C731 H725 0.950 . S
C731 C730 1.327 . S
C731 C735 1.429 . S
C732 C715 1.574 . S
C732 H726 0.949 . S
C732 C736 1.368 . S
C733 C714 1.429 . S
C733 C727 1.429 . S
C733 C734 1.523 . S
C734 C715 1.368 . S
C734 C728 1.368 . S
C734 C733 1.523 . S
C735 C719 1.429 . S
C735 C731 1.429 . S
C735 C736 1.523 . S
C736 C720 1.368 . S
C736 C732 1.368 . S
C736 C735 1.523 . S
H737 C712 0.950 . S
H738 C714 0.950 . S
H739 C715 0.949 . S
H740 C717 0.950 . S
H741 C719 0.950 . S
C742 C743 1.349 . S
C742 C744 1.327 . S
C742 H767 0.950 . S
C743 C742 1.349 . S
C743 C759 1.349 . S
C744 C742 1.327 . S
C744 C763 1.429 . S
C744 H768 0.950 . S
C745 C762 1.574 . S
C745 C764 1.368 . S
C745 H769 0.949 . S
H746 C750 0.949 . S
C747 C748 1.349 . S
C747 C749 1.327 . S
C747 H770 0.950 . S
C748 C747 1.349 . S
C748 C760 1.349 . S
C749 C747 1.327 . S
C749 C765 1.429 . S
C749 H771 0.950 . S
C750 H746 0.949 . S
C750 C758 1.574 . S
C750 C766 1.368 . S
H751 C759 0.950 . S
H752 C757 0.950 . S
H753 C758 0.949 . S
H754 C760 0.950 . S
H755 C761 0.950 . S
H756 C762 0.949 . S
C757 H752 0.950 . S
C757 C759 1.327 . S
C757 C763 1.429 . S
C758 C750 1.574 . S
C758 H753 0.949 . S
C758 C764 1.368 . S
C759 C743 1.349 . S
C759 H751 0.950 . S
C759 C757 1.327 . S
C760 C748 1.349 . S
C760 H754 0.950 . S
C760 C761 1.327 . S
C761 H755 0.950 . S
C761 C760 1.327 . S
C761 C765 1.429 . S
C762 C745 1.574 . S
C762 H756 0.949 . S
C762 C766 1.368 . S
C763 C744 1.429 . S
C763 C757 1.429 . S
C763 C764 1.523 . S
C764 C745 1.368 . S
C764 C758 1.368 . S
C764 C763 1.523 . S
C765 C749 1.429 . S
C765 C761 1.429 . S
C765 C766 1.523 . S
C766 C750 1.368 . S
C766 C762 1.368 . S
C766 C765 1.523 . S
H767 C742 0.950 . S
H768 C744 0.950 . S
H769 C745 0.949 . S
H770 C747 0.950 . S
H771 C749 0.950 . S
C772 C773 1.349 . S
C772 C774 1.327 . S
C772 H797 0.950 . S
C773 C772 1.349 . S
C773 C789 1.349 . S
C774 C772 1.327 . S
C774 C793 1.429 . S
C774 H798 0.950 . S
C775 C792 1.574 . S
C775 C794 1.368 . S
C775 H799 0.949 . S
H776 C780 0.949 . S
C777 C778 1.349 . S
C777 C779 1.327 . S
C777 H800 0.950 . S
C778 C777 1.349 . S
C778 C790 1.349 . S
C779 C777 1.327 . S
C779 C795 1.429 . S
C779 H801 0.950 . S
C780 H776 0.949 . S
C780 C788 1.574 . S
C780 C796 1.368 . S
H781 C789 0.950 . S
H782 C787 0.950 . S
H783 C788 0.949 . S
H784 C790 0.950 . S
H785 C791 0.950 . S
H786 C792 0.949 . S
C787 H782 0.950 . S
C787 C789 1.327 . S
C787 C793 1.429 . S
C788 C780 1.574 . S
C788 H783 0.949 . S
C788 C794 1.368 . S
C789 C773 1.349 . S
C789 H781 0.950 . S
C789 C787 1.327 . S
C790 C778 1.349 . S
C790 H784 0.950 . S
C790 C791 1.327 . S
C791 H785 0.950 . S
C791 C790 1.327 . S
C791 C795 1.429 . S
C792 C775 1.574 . S
C792 H786 0.949 . S
C792 C796 1.368 . S
C793 C774 1.429 . S
C793 C787 1.429 . S
C793 C794 1.523 . S
C794 C775 1.368 . S
C794 C788 1.368 . S
C794 C793 1.523 . S
C795 C779 1.429 . S
C795 C791 1.429 . S
C795 C796 1.523 . S
C796 C780 1.368 . S
C796 C792 1.368 . S
C796 C795 1.523 . S
H797 C772 0.950 . S
H798 C774 0.950 . S
H799 C775 0.949 . S
H800 C777 0.950 . S
H801 C779 0.950 . S
C802 C803 1.349 . S
C802 C804 1.327 . S
C802 H827 0.950 . S
C803 C802 1.349 . S
C803 C819 1.349 . S
C804 C802 1.327 . S
C804 C823 1.429 . S
C804 H828 0.950 . S
C805 C822 1.574 . S
C805 C824 1.368 . S
C805 H829 0.949 . S
H806 C810 0.949 . S
C807 C808 1.349 . S
C807 C809 1.327 . S
C807 H830 0.950 . S
C808 C807 1.349 . S
C808 C820 1.349 . S
C809 C807 1.327 . S
C809 C825 1.429 . S
C809 H831 0.950 . S
C810 H806 0.949 . S
C810 C818 1.574 . S
C810 C826 1.368 . S
H811 C819 0.950 . S
H812 C817 0.950 . S
H813 C818 0.949 . S
H814 C820 0.950 . S
H815 C821 0.950 . S
H816 C822 0.949 . S
C817 H812 0.950 . S
C817 C819 1.327 . S
C817 C823 1.429 . S
C818 C810 1.574 . S
C818 H813 0.949 . S
C818 C824 1.368 . S
C819 C803 1.349 . S
C819 H811 0.950 . S
C819 C817 1.327 . S
C820 C808 1.349 . S
C820 H814 0.950 . S
C820 C821 1.327 . S
C821 H815 0.950 . S
C821 C820 1.327 . S
C821 C825 1.429 . S
C822 C805 1.574 . S
C822 H816 0.949 . S
C822 C826 1.368 . S
C823 C804 1.429 . S
C823 C817 1.429 . S
C823 C824 1.523 . S
C824 C805 1.368 . S
C824 C818 1.368 . S
C824 C823 1.523 . S
C825 C809 1.429 . S
C825 C821 1.429 . S
C825 C826 1.523 . S
C826 C810 1.368 . S
C826 C822 1.368 . S
C826 C825 1.523 . S
H827 C802 0.950 . S
H828 C804 0.950 . S
H829 C805 0.949 . S
H830 C807 0.950 . S
H831 C809 0.950 . S
C832 C833 1.349 . S
C832 C834 1.327 . S
C832 H857 0.950 . S
C833 C832 1.349 . S
C833 C849 1.349 . S
C834 C832 1.327 . S
C834 C853 1.429 . S
C834 H858 0.950 . S
C835 C852 1.574 . S
C835 C854 1.368 . S
C835 H859 0.949 . S
H836 C840 0.949 . S
C837 C838 1.349 . S
C837 C839 1.327 . S
C837 H860 0.950 . S
C838 C837 1.349 . S
C838 C850 1.349 . S
C839 C837 1.327 . S
C839 C855 1.429 . S
C839 H861 0.950 . S
C840 H836 0.949 . S
C840 C848 1.574 . S
C840 C856 1.368 . S
H841 C849 0.950 . S
H842 C847 0.950 . S
H843 C848 0.949 . S
H844 C850 0.950 . S
H845 C851 0.950 . S
H846 C852 0.949 . S
C847 H842 0.950 . S
C847 C849 1.327 . S
C847 C853 1.429 . S
C848 C840 1.574 . S
C848 H843 0.949 . S
C848 C854 1.368 . S
C849 C833 1.349 . S
C849 H841 0.950 . S
C849 C847 1.327 . S
C850 C838 1.349 . S
C850 H844 0.950 . S
C850 C851 1.327 . S
C851 H845 0.950 . S
C851 C850 1.327 . S
C851 C855 1.429 . S
C852 C835 1.574 . S
C852 H846 0.949 . S
C852 C856 1.368 . S
C853 C834 1.429 . S
C853 C847 1.429 . S
C853 C854 1.523 . S
C854 C835 1.368 . S
C854 C848 1.368 . S
C854 C853 1.523 . S
C855 C839 1.429 . S
C855 C851 1.429 . S
C855 C856 1.523 . S
C856 C840 1.368 . S
C856 C852 1.368 . S
C856 C855 1.523 . S
H857 C832 0.950 . S
H858 C834 0.950 . S
H859 C835 0.949 . S
H860 C837 0.950 . S
H861 C839 0.950 . S
C862 C863 1.349 . S
C862 C864 1.327 . S
C862 H887 0.950 . S
C863 C862 1.349 . S
C863 C879 1.349 . S
C864 C862 1.327 . S
C864 C883 1.429 . S
C864 H888 0.950 . S
C865 C882 1.574 . S
C865 C884 1.368 . S
C865 H889 0.949 . S
H866 C870 0.949 . S
C867 C868 1.349 . S
C867 C869 1.327 . S
C867 H890 0.950 . S
C868 C867 1.349 . S
C868 C880 1.349 . S
C869 C867 1.327 . S
C869 C885 1.429 . S
C869 H891 0.950 . S
C870 H866 0.949 . S
C870 C878 1.574 . S
C870 C886 1.368 . S
H871 C879 0.950 . S
H872 C877 0.950 . S
H873 C878 0.949 . S
H874 C880 0.950 . S
H875 C881 0.950 . S
H876 C882 0.949 . S
C877 H872 0.950 . S
C877 C879 1.327 . S
C877 C883 1.429 . S
C878 C870 1.574 . S
C878 H873 0.949 . S
C878 C884 1.368 . S
C879 C863 1.349 . S
C879 H871 0.950 . S
C879 C877 1.327 . S
C880 C868 1.349 . S
C880 H874 0.950 . S
C880 C881 1.327 . S
C881 H875 0.950 . S
C881 C880 1.327 . S
C881 C885 1.429 . S
C882 C865 1.574 . S
C882 H876 0.949 . S
C882 C886 1.368 . S
C883 C864 1.429 . S
C883 C877 1.429 . S
C883 C884 1.523 . S
C884 C865 1.368 . S
C884 C878 1.368 . S
C884 C883 1.523 . S
C885 C869 1.429 . S
C885 C881 1.429 . S
C885 C886 1.523 . S
C886 C870 1.368 . S
C886 C882 1.368 . S
C886 C885 1.523 . S
H887 C862 0.950 . S
H888 C864 0.950 . S
H889 C865 0.949 . S
H890 C867 0.950 . S
H891 C869 0.950 . S
C892 C893 1.349 . S
C892 C894 1.327 . S
C892 H917 0.950 . S
C893 C892 1.349 . S
C893 C909 1.349 . S
C894 C892 1.327 . S
C894 C913 1.429 . S
C894 H918 0.950 . S
C895 C912 1.574 . S
C895 C914 1.368 . S
C895 H919 0.949 . S
H896 C900 0.949 . S
C897 C898 1.349 . S
C897 C899 1.327 . S
C897 H920 0.950 . S
C898 C897 1.349 . S
C898 C910 1.349 . S
C899 C897 1.327 . S
C899 C915 1.429 . S
C899 H921 0.950 . S
C900 H896 0.949 . S
C900 C908 1.574 . S
C900 C916 1.368 . S
H901 C909 0.950 . S
H902 C907 0.950 . S
H903 C908 0.949 . S
H904 C910 0.950 . S
H905 C911 0.950 . S
H906 C912 0.949 . S
C907 H902 0.950 . S
C907 C909 1.327 . S
C907 C913 1.429 . S
C908 C900 1.574 . S
C908 H903 0.949 . S
C908 C914 1.368 . S
C909 C893 1.349 . S
C909 H901 0.950 . S
C909 C907 1.327 . S
C910 C898 1.349 . S
C910 H904 0.950 . S
C910 C911 1.327 . S
C911 H905 0.950 . S
C911 C910 1.327 . S
C911 C915 1.429 . S
C912 C895 1.574 . S
C912 H906 0.949 . S
C912 C916 1.368 . S
C913 C894 1.429 . S
C913 C907 1.429 . S
C913 C914 1.523 . S
C914 C895 1.368 . S
C914 C908 1.368 . S
C914 C913 1.523 . S
C915 C899 1.429 . S
C915 C911 1.429 . S
C915 C916 1.523 . S
C916 C900 1.368 . S
C916 C912 1.368 . S
C916 C915 1.523 . S
H917 C892 0.950 . S
H918 C894 0.950 . S
H919 C895 0.949 . S
H920 C897 0.950 . S
H921 C899 0.950 . S
C922 C923 1.349 . S
C922 C924 1.327 . S
C922 H947 0.950 . S
C923 C922 1.349 . S
C923 C939 1.349 . S
C924 C922 1.327 . S
C924 C943 1.429 . S
C924 H948 0.950 . S
C925 C942 1.574 1_655 S
C925 C944 1.368 . S
C925 H949 0.949 1_655 S
H926 C930 0.949 . S
C927 C928 1.349 . S
C927 C929 1.327 . S
C927 H950 0.950 . S
C928 C927 1.349 . S
C928 C940 1.349 1_455 S
C929 C927 1.327 . S
C929 C945 1.429 1_455 S
C929 H951 0.950 . S
C930 H926 0.949 . S
C930 C938 1.574 . S
C930 C946 1.368 . S
H931 C939 0.950 . S
H932 C937 0.950 . S
H933 C938 0.949 . S
H934 C940 0.950 . S
H935 C941 0.950 . S
H936 C942 0.949 . S
C937 H932 0.950 . S
C937 C939 1.327 . S
C937 C943 1.429 . S
C938 C930 1.574 . S
C938 H933 0.949 . S
C938 C944 1.368 . S
C939 C923 1.349 . S
C939 H931 0.950 . S
C939 C937 1.327 . S
C940 C928 1.349 1_655 S
C940 H934 0.950 . S
C940 C941 1.327 . S
C941 H935 0.950 . S
C941 C940 1.327 . S
C941 C945 1.429 . S
C942 C925 1.574 1_455 S
C942 H936 0.949 . S
C942 C946 1.368 1_455 S
C943 C924 1.429 . S
C943 C937 1.429 . S
C943 C944 1.523 . S
C944 C925 1.368 . S
C944 C938 1.368 . S
C944 C943 1.523 . S
C945 C929 1.429 1_655 S
C945 C941 1.429 . S
C945 C946 1.523 . S
C946 C930 1.368 . S
C946 C942 1.368 1_655 S
C946 C945 1.523 . S
H947 C922 0.950 . S
H948 C924 0.950 . S
H949 C925 0.949 1_455 S
H950 C927 0.950 . S
H951 C929 0.950 . S
C952 C953 1.349 . S
C952 C954 1.327 . S
C952 H977 0.950 . S
C953 C952 1.349 . S
C953 C969 1.349 . S
C954 C952 1.327 . S
C954 C973 1.429 . S
C954 H978 0.950 . S
C955 C972 1.574 . S
C955 C974 1.368 . S
C955 H979 0.949 . S
H956 C960 0.949 . S
C957 C958 1.349 . S
C957 C959 1.327 . S
C957 H980 0.950 . S
C958 C957 1.349 . S
C958 C970 1.349 . S
C959 C957 1.327 . S
C959 C975 1.429 . S
C959 H981 0.950 . S
C960 H956 0.949 . S
C960 C968 1.574 . S
C960 C976 1.368 . S
H961 C969 0.950 . S
H962 C967 0.950 . S
H963 C968 0.949 . S
H964 C970 0.950 . S
H965 C971 0.950 . S
H966 C972 0.949 . S
C967 H962 0.950 . S
C967 C969 1.327 . S
C967 C973 1.429 . S
C968 C960 1.574 . S
C968 H963 0.949 . S
C968 C974 1.368 . S
C969 C953 1.349 . S
C969 H961 0.950 . S
C969 C967 1.327 . S
C970 C958 1.349 . S
C970 H964 0.950 . S
C970 C971 1.327 . S
C971 H965 0.950 . S
C971 C970 1.327 . S
C971 C975 1.429 . S
C972 C955 1.574 . S
C972 H966 0.949 . S
C972 C976 1.368 . S
C973 C954 1.429 . S
C973 C967 1.429 . S
C973 C974 1.523 . S
C974 C955 1.368 . S
C974 C968 1.368 . S
C974 C973 1.523 . S
C975 C959 1.429 . S
C975 C971 1.429 . S
C975 C976 1.523 . S
C976 C960 1.368 . S
C976 C972 1.368 . S
C976 C975 1.523 . S
H977 C952 0.950 . S
H978 C954 0.950 . S
H979 C955 0.949 . S
H980 C957 0.950 . S
H981 C959 0.950 . S
C982 C983 1.349 . S
C982 C984 1.327 . S
C982 H1007 0.950 . S
C983 C982 1.349 . S
C983 C999 1.349 . S
C984 C982 1.327 . S
C984 C1003 1.429 . S
C984 H1008 0.950 . S
C985 C1002 1.574 . S
C985 C1004 1.368 . S
C985 H1009 0.949 . S
H986 C990 0.949 . S
C987 C988 1.349 . S
C987 C989 1.327 . S
C987 H1010 0.950 . S
C988 C987 1.349 . S
C988 C1000 1.349 . S
C989 C987 1.327 . S
C989 C1005 1.429 . S
C989 H1011 0.950 . S
C990 H986 0.949 . S
C990 C998 1.574 . S
C990 C1006 1.368 . S
H991 C999 0.950 . S
H992 C997 0.950 . S
H993 C998 0.949 . S
H994 C1000 0.950 . S
H995 C1001 0.950 . S
H996 C1002 0.949 . S
C997 H992 0.950 . S
C997 C999 1.327 . S
C997 C1003 1.429 . S
C998 C990 1.574 . S
C998 H993 0.949 . S
C998 C1004 1.368 . S
C999 C983 1.349 . S
C999 H991 0.950 . S
C999 C997 1.327 . S
C1000 C988 1.349 . S
C1000 H994 0.950 . S
C1000 C1001 1.327 . S
C1001 H995 0.950 . S
C1001 C1000 1.327 . S
C1001 C1005 1.429 . S
C1002 C985 1.574 . S
C1002 H996 0.949 . S
C1002 C1006 1.368 . S
C1003 C984 1.429 . S
C1003 C997 1.429 . S
C1003 C1004 1.523 . S
C1004 C985 1.368 . S
C1004 C998 1.368 . S
C1004 C1003 1.523 . S
C1005 C989 1.429 . S
C1005 C1001 1.429 . S
C1005 C1006 1.523 . S
C1006 C990 1.368 . S
C1006 C1002 1.368 . S
C1006 C1005 1.523 . S
H1007 C982 0.950 . S
H1008 C984 0.950 . S
H1009 C985 0.949 . S
H1010 C987 0.950 . S
H1011 C989 0.950 . S
C1012 C1013 1.349 . S
C1012 C1014 1.327 . S
C1012 H1037 0.950 . S
C1013 C1012 1.349 . S
C1013 C1029 1.349 . S
C1014 C1012 1.327 . S
C1014 C1033 1.429 . S
C1014 H1038 0.950 1_545 S
C1015 C1032 1.574 1_546 S
C1015 C1034 1.368 1_545 S
C1015 H1039 0.949 . S
H1016 C1020 0.949 . S
C1017 C1018 1.349 . S
C1017 C1019 1.327 . S
C1017 H1040 0.950 . S
C1018 C1017 1.349 . S
C1018 C1030 1.349 . S
C1019 C1017 1.327 . S
C1019 C1035 1.429 . S
C1019 H1041 0.950 . S
C1020 H1016 0.949 . S
C1020 C1028 1.574 . S
C1020 C1036 1.368 . S
H1021 C1029 0.950 . S
H1022 C1027 0.950 . S
H1023 C1028 0.949 . S
H1024 C1030 0.950 1_556 S
H1025 C1031 0.950 . S
H1026 C1032 0.949 . S
C1027 H1022 0.950 . S
C1027 C1029 1.327 . S
C1027 C1033 1.429 . S
C1028 C1020 1.574 . S
C1028 H1023 0.949 . S
C1028 C1034 1.368 . S
C1029 C1013 1.349 . S
C1029 H1021 0.950 . S
C1029 C1027 1.327 . S
C1030 C1018 1.349 . S
C1030 H1024 0.950 1_554 S
C1030 C1031 1.327 1_554 S
C1031 H1025 0.950 . S
C1031 C1030 1.327 1_556 S
C1031 C1035 1.429 1_556 S
C1032 C1015 1.574 1_564 S
C1032 H1026 0.949 . S
C1032 C1036 1.368 1_554 S
C1033 C1014 1.429 . S
C1033 C1027 1.429 . S
C1033 C1034 1.523 1_545 S
C1034 C1015 1.368 1_565 S
C1034 C1028 1.368 . S
C1034 C1033 1.523 1_565 S
C1035 C1019 1.429 . S
C1035 C1031 1.429 1_554 S
C1035 C1036 1.523 1_554 S
C1036 C1020 1.368 . S
C1036 C1032 1.368 1_556 S
C1036 C1035 1.523 1_556 S
H1037 C1012 0.950 . S
H1038 C1014 0.950 1_565 S
H1039 C1015 0.949 . S
H1040 C1017 0.950 . S
H1041 C1019 0.950 . S
C1042 C1043 1.349 . S
C1042 C1044 1.327 . S
C1042 H1067 0.950 . S
C1043 C1042 1.349 . S
C1043 C1059 1.349 . S
C1044 C1042 1.327 . S
C1044 C1063 1.429 . S
C1044 H1068 0.950 . S
C1045 C1062 1.574 . S
C1045 C1064 1.368 . S
C1045 H1069 0.949 . S
H1046 C1050 0.949 . S
C1047 C1048 1.349 . S
C1047 C1049 1.327 . S
C1047 H1070 0.950 . S
C1048 C1047 1.349 . S
C1048 C1060 1.349 . S
C1049 C1047 1.327 . S
C1049 C1065 1.429 . S
C1049 H1071 0.950 . S
C1050 H1046 0.949 . S
C1050 C1058 1.574 . S
C1050 C1066 1.368 . S
H1051 C1059 0.950 . S
H1052 C1057 0.950 . S
H1053 C1058 0.949 . S
H1054 C1060 0.950 . S
H1055 C1061 0.950 . S
H1056 C1062 0.949 . S
C1057 H1052 0.950 . S
C1057 C1059 1.327 . S
C1057 C1063 1.429 . S
C1058 C1050 1.574 . S
C1058 H1053 0.949 . S
C1058 C1064 1.368 . S
C1059 C1043 1.349 . S
C1059 H1051 0.950 . S
C1059 C1057 1.327 . S
C1060 C1048 1.349 . S
C1060 H1054 0.950 . S
C1060 C1061 1.327 . S
C1061 H1055 0.950 . S
C1061 C1060 1.327 . S
C1061 C1065 1.429 . S
C1062 C1045 1.574 . S
C1062 H1056 0.949 . S
C1062 C1066 1.368 . S
C1063 C1044 1.429 . S
C1063 C1057 1.429 . S
C1063 C1064 1.523 . S
C1064 C1045 1.368 . S
C1064 C1058 1.368 . S
C1064 C1063 1.523 . S
C1065 C1049 1.429 . S
C1065 C1061 1.429 . S
C1065 C1066 1.523 . S
C1066 C1050 1.368 . S
C1066 C1062 1.368 . S
C1066 C1065 1.523 . S
H1067 C1042 0.950 . S
H1068 C1044 0.950 . S
H1069 C1045 0.949 . S
H1070 C1047 0.950 . S
H1071 C1049 0.950 . S
C1072 C1073 1.349 . S
C1072 C1074 1.327 1_565 S
C1072 H1097 0.950 . S
C1073 C1072 1.349 . S
C1073 C1089 1.349 . S
C1074 C1072 1.327 1_545 S
C1074 C1093 1.429 . S
C1074 H1098 0.950 . S
C1075 C1092 1.574 . S
C1075 C1094 1.368 . S
C1075 H1099 0.949 . S
H1076 C1080 0.949 . S
C1077 C1078 1.349 . S
C1077 C1079 1.327 . S
C1077 H1100 0.950 . S
C1078 C1077 1.349 . S
C1078 C1090 1.349 . S
C1079 C1077 1.327 . S
C1079 C1095 1.429 . S
C1079 H1101 0.950 . S
C1080 H1076 0.949 . S
C1080 C1088 1.574 . S
C1080 C1096 1.368 . S
H1081 C1089 0.950 . S
H1082 C1087 0.950 . S
H1083 C1088 0.949 . S
H1084 C1090 0.950 . S
H1085 C1091 0.950 . S
H1086 C1092 0.949 . S
C1087 H1082 0.950 . S
C1087 C1089 1.327 1_545 S
C1087 C1093 1.429 . S
C1088 C1080 1.574 . S
C1088 H1083 0.949 . S
C1088 C1094 1.368 . S
C1089 C1073 1.349 . S
C1089 H1081 0.950 . S
C1089 C1087 1.327 1_565 S
C1090 C1078 1.349 . S
C1090 H1084 0.950 . S
C1090 C1091 1.327 . S
C1091 H1085 0.950 . S
C1091 C1090 1.327 . S
C1091 C1095 1.429 . S
C1092 C1075 1.574 . S
C1092 H1086 0.949 . S
C1092 C1096 1.368 . S
C1093 C1074 1.429 . S
C1093 C1087 1.429 . S
C1093 C1094 1.523 . S
C1094 C1075 1.368 . S
C1094 C1088 1.368 . S
C1094 C1093 1.523 . S
C1095 C1079 1.429 . S
C1095 C1091 1.429 . S
C1095 C1096 1.523 . S
C1096 C1080 1.368 . S
C1096 C1092 1.368 . S
C1096 C1095 1.523 . S
H1097 C1072 0.950 . S
H1098 C1074 0.950 . S
H1099 C1075 0.949 . S
H1100 C1077 0.950 . S
H1101 C1079 0.950 . S
C1102 C1103 1.349 . S
C1102 C1104 1.327 . S
C1102 H1127 0.950 . S
C1103 C1102 1.349 . S
C1103 C1119 1.349 . S
C1104 C1102 1.327 . S
C1104 C1123 1.429 . S
C1104 H1128 0.950 . S
C1105 C1122 1.574 . S
C1105 C1124 1.368 . S
C1105 H1129 0.949 . S
H1106 C1110 0.949 . S
C1107 C1108 1.349 . S
C1107 C1109 1.327 . S
C1107 H1130 0.950 . S
C1108 C1107 1.349 . S
C1108 C1120 1.349 . S
C1109 C1107 1.327 . S
C1109 C1125 1.429 . S
C1109 H1131 0.950 . S
C1110 H1106 0.949 . S
C1110 C1118 1.574 . S
C1110 C1126 1.368 . S
H1111 C1119 0.950 . S
H1112 C1117 0.950 . S
H1113 C1118 0.949 . S
H1114 C1120 0.950 . S
H1115 C1121 0.950 . S
H1116 C1122 0.949 . S
C1117 H1112 0.950 . S
C1117 C1119 1.327 . S
C1117 C1123 1.429 . S
C1118 C1110 1.574 . S
C1118 H1113 0.949 . S
C1118 C1124 1.368 . S
C1119 C1103 1.349 . S
C1119 H1111 0.950 . S
C1119 C1117 1.327 . S
C1120 C1108 1.349 . S
C1120 H1114 0.950 . S
C1120 C1121 1.327 . S
C1121 H1115 0.950 . S
C1121 C1120 1.327 . S
C1121 C1125 1.429 . S
C1122 C1105 1.574 . S
C1122 H1116 0.949 . S
C1122 C1126 1.368 . S
C1123 C1104 1.429 . S
C1123 C1117 1.429 . S
C1123 C1124 1.523 . S
C1124 C1105 1.368 . S
C1124 C1118 1.368 . S
C1124 C1123 1.523 . S
C1125 C1109 1.429 . S
C1125 C1121 1.429 . S
C1125 C1126 1.523 . S
C1126 C1110 1.368 . S
C1126 C1122 1.368 . S
C1126 C1125 1.523 . S
H1127 C1102 0.950 . S
H1128 C1104 0.950 . S
H1129 C1105 0.949 . S
H1130 C1107 0.950 . S
H1131 C1109 0.950 . S
C1132 C1133 1.349 1_545 S
C1132 C1134 1.327 . S
C1132 H1157 0.950 . S
C1133 C1132 1.349 1_565 S
C1133 C1149 1.349 . S
C1134 C1132 1.327 . S
C1134 C1153 1.429 . S
C1134 H1158 0.950 . S
C1135 C1152 1.574 . S
C1135 C1154 1.368 . S
C1135 H1159 0.949 . S
H1136 C1140 0.949 . S
C1137 C1138 1.349 . S
C1137 C1139 1.327 . S
C1137 H1160 0.950 . S
C1138 C1137 1.349 . S
C1138 C1150 1.349 . S
C1139 C1137 1.327 . S
C1139 C1155 1.429 . S
C1139 H1161 0.950 . S
C1140 H1136 0.949 . S
C1140 C1148 1.574 . S
C1140 C1156 1.368 . S
H1141 C1149 0.950 . S
H1142 C1147 0.950 1_565 S
H1143 C1148 0.949 . S
H1144 C1150 0.950 . S
H1145 C1151 0.950 . S
H1146 C1152 0.949 . S
C1147 H1142 0.950 1_545 S
C1147 C1149 1.327 1_545 S
C1147 C1153 1.429 . S
C1148 C1140 1.574 . S
C1148 H1143 0.949 . S
C1148 C1154 1.368 . S
C1149 C1133 1.349 . S
C1149 H1141 0.950 . S
C1149 C1147 1.327 1_565 S
C1150 C1138 1.349 . S
C1150 H1144 0.950 . S
C1150 C1151 1.327 . S
C1151 H1145 0.950 . S
C1151 C1150 1.327 . S
C1151 C1155 1.429 . S
C1152 C1135 1.574 . S
C1152 H1146 0.949 . S
C1152 C1156 1.368 . S
C1153 C1134 1.429 . S
C1153 C1147 1.429 . S
C1153 C1154 1.523 . S
C1154 C1135 1.368 . S
C1154 C1148 1.368 . S
C1154 C1153 1.523 . S
C1155 C1139 1.429 . S
C1155 C1151 1.429 . S
C1155 C1156 1.523 . S
C1156 C1140 1.368 . S
C1156 C1152 1.368 . S
C1156 C1155 1.523 . S
H1157 C1132 0.950 . S
H1158 C1134 0.950 . S
H1159 C1135 0.949 . S
H1160 C1137 0.950 . S
H1161 C1139 0.950 . S
C1162 C1163 1.349 . S
C1162 C1164 1.327 . S
C1162 H1187 0.950 . S
C1163 C1162 1.349 . S
C1163 C1179 1.349 . S
C1164 C1162 1.327 . S
C1164 C1183 1.429 . S
C1164 H1188 0.950 . S
C1165 C1182 1.574 . S
C1165 C1184 1.368 . S
C1165 H1189 0.949 . S
H1166 C1170 0.949 . S
C1167 C1168 1.349 . S
C1167 C1169 1.327 . S
C1167 H1190 0.950 . S
C1168 C1167 1.349 . S
C1168 C1180 1.349 . S
C1169 C1167 1.327 . S
C1169 C1185 1.429 . S
C1169 H1191 0.950 . S
C1170 H1166 0.949 . S
C1170 C1178 1.574 . S
C1170 C1186 1.368 . S
H1171 C1179 0.950 . S
H1172 C1177 0.950 . S
H1173 C1178 0.949 . S
H1174 C1180 0.950 . S
H1175 C1181 0.950 . S
H1176 C1182 0.949 . S
C1177 H1172 0.950 . S
C1177 C1179 1.327 . S
C1177 C1183 1.429 . S
C1178 C1170 1.574 . S
C1178 H1173 0.949 . S
C1178 C1184 1.368 . S
C1179 C1163 1.349 . S
C1179 H1171 0.950 . S
C1179 C1177 1.327 . S
C1180 C1168 1.349 . S
C1180 H1174 0.950 . S
C1180 C1181 1.327 . S
C1181 H1175 0.950 . S
C1181 C1180 1.327 . S
C1181 C1185 1.429 . S
C1182 C1165 1.574 . S
C1182 H1176 0.949 . S
C1182 C1186 1.368 . S
C1183 C1164 1.429 . S
C1183 C1177 1.429 . S
C1183 C1184 1.523 . S
C1184 C1165 1.368 . S
C1184 C1178 1.368 . S
C1184 C1183 1.523 . S
C1185 C1169 1.429 . S
C1185 C1181 1.429 . S
C1185 C1186 1.523 . S
C1186 C1170 1.368 . S
C1186 C1182 1.368 . S
C1186 C1185 1.523 . S
H1187 C1162 0.950 . S
H1188 C1164 0.950 . S
H1189 C1165 0.949 . S
H1190 C1167 0.950 . S
H1191 C1169 0.950 . S
C1192 C1193 1.349 . S
C1192 C1194 1.327 . S
C1192 H1217 0.950 . S
C1193 C1192 1.349 . S
C1193 C1209 1.349 . S
C1194 C1192 1.327 . S
C1194 C1213 1.429 . S
C1194 H1218 0.950 . S
C1195 C1212 1.574 . S
C1195 C1214 1.368 . S
C1195 H1219 0.949 . S
H1196 C1200 0.949 . S
C1197 C1198 1.349 . S
C1197 C1199 1.327 . S
C1197 H1220 0.950 . S
C1198 C1197 1.349 . S
C1198 C1210 1.349 . S
C1199 C1197 1.327 . S
C1199 C1215 1.429 . S
C1199 H1221 0.950 . S
C1200 H1196 0.949 . S
C1200 C1208 1.574 . S
C1200 C1216 1.368 . S
H1201 C1209 0.950 . S
H1202 C1207 0.950 . S
H1203 C1208 0.949 . S
H1204 C1210 0.950 . S
H1205 C1211 0.950 . S
H1206 C1212 0.949 . S
C1207 H1202 0.950 . S
C1207 C1209 1.327 . S
C1207 C1213 1.429 . S
C1208 C1200 1.574 . S
C1208 H1203 0.949 . S
C1208 C1214 1.368 . S
C1209 C1193 1.349 . S
C1209 H1201 0.950 . S
C1209 C1207 1.327 . S
C1210 C1198 1.349 . S
C1210 H1204 0.950 . S
C1210 C1211 1.327 . S
C1211 H1205 0.950 . S
C1211 C1210 1.327 . S
C1211 C1215 1.429 . S
C1212 C1195 1.574 . S
C1212 H1206 0.949 . S
C1212 C1216 1.368 . S
C1213 C1194 1.429 . S
C1213 C1207 1.429 . S
C1213 C1214 1.523 . S
C1214 C1195 1.368 . S
C1214 C1208 1.368 . S
C1214 C1213 1.523 . S
C1215 C1199 1.429 . S
C1215 C1211 1.429 . S
C1215 C1216 1.523 . S
C1216 C1200 1.368 . S
C1216 C1212 1.368 . S
C1216 C1215 1.523 . S
H1217 C1192 0.950 . S
H1218 C1194 0.950 . S
H1219 C1195 0.949 . S
H1220 C1197 0.950 . S
H1221 C1199 0.950 . S
C1222 C1223 1.349 . S
C1222 C1224 1.327 . S
C1222 H1247 0.950 . S
C1223 C1222 1.349 . S
C1223 C1239 1.349 . S
C1224 C1222 1.327 . S
C1224 C1243 1.429 . S
C1224 H1248 0.950 . S
C1225 C1242 1.574 . S
C1225 C1244 1.368 . S
C1225 H1249 0.949 . S
H1226 C1230 0.949 . S
C1227 C1228 1.349 . S
C1227 C1229 1.327 . S
C1227 H1250 0.950 . S
C1228 C1227 1.349 . S
C1228 C1240 1.349 . S
C1229 C1227 1.327 . S
C1229 C1245 1.429 . S
C1229 H1251 0.950 . S
C1230 H1226 0.949 . S
C1230 C1238 1.574 . S
C1230 C1246 1.368 . S
H1231 C1239 0.950 . S
H1232 C1237 0.950 . S
H1233 C1238 0.949 . S
H1234 C1240 0.950 . S
H1235 C1241 0.950 . S
H1236 C1242 0.949 . S
C1237 H1232 0.950 . S
C1237 C1239 1.327 . S
C1237 C1243 1.429 . S
C1238 C1230 1.574 . S
C1238 H1233 0.949 . S
C1238 C1244 1.368 . S
C1239 C1223 1.349 . S
C1239 H1231 0.950 . S
C1239 C1237 1.327 . S
C1240 C1228 1.349 . S
C1240 H1234 0.950 . S
C1240 C1241 1.327 . S
C1241 H1235 0.950 . S
C1241 C1240 1.327 . S
C1241 C1245 1.429 . S
C1242 C1225 1.574 . S
C1242 H1236 0.949 . S
C1242 C1246 1.368 . S
C1243 C1224 1.429 . S
C1243 C1237 1.429 . S
C1243 C1244 1.523 . S
C1244 C1225 1.368 . S
C1244 C1238 1.368 . S
C1244 C1243 1.523 . S
C1245 C1229 1.429 . S
C1245 C1241 1.429 . S
C1245 C1246 1.523 . S
C1246 C1230 1.368 . S
C1246 C1242 1.368 . S
C1246 C1245 1.523 . S
H1247 C1222 0.950 . S
H1248 C1224 0.950 . S
H1249 C1225 0.949 . S
H1250 C1227 0.950 . S
H1251 C1229 0.950 . S
C1252 C1253 1.349 . S
C1252 C1254 1.327 . S
C1252 H1277 0.950 . S
C1253 C1252 1.349 . S
C1253 C1269 1.349 . S
C1254 C1252 1.327 . S
C1254 C1273 1.429 . S
C1254 H1278 0.950 . S
C1255 C1272 1.574 . S
C1255 C1274 1.368 . S
C1255 H1279 0.949 . S
H1256 C1260 0.949 . S
C1257 C1258 1.349 . S
C1257 C1259 1.327 . S
C1257 H1280 0.950 . S
C1258 C1257 1.349 . S
C1258 C1270 1.349 . S
C1259 C1257 1.327 . S
C1259 C1275 1.429 . S
C1259 H1281 0.950 . S
C1260 H1256 0.949 . S
C1260 C1268 1.574 . S
C1260 C1276 1.368 . S
H1261 C1269 0.950 . S
H1262 C1267 0.950 . S
H1263 C1268 0.949 . S
H1264 C1270 0.950 . S
H1265 C1271 0.950 . S
H1266 C1272 0.949 . S
C1267 H1262 0.950 . S
C1267 C1269 1.327 . S
C1267 C1273 1.429 . S
C1268 C1260 1.574 . S
C1268 H1263 0.949 . S
C1268 C1274 1.368 . S
C1269 C1253 1.349 . S
C1269 H1261 0.950 . S
C1269 C1267 1.327 . S
C1270 C1258 1.349 . S
C1270 H1264 0.950 . S
C1270 C1271 1.327 . S
C1271 H1265 0.950 . S
C1271 C1270 1.327 . S
C1271 C1275 1.429 . S
C1272 C1255 1.574 . S
C1272 H1266 0.949 . S
C1272 C1276 1.368 . S
C1273 C1254 1.429 . S
C1273 C1267 1.429 . S
C1273 C1274 1.523 . S
C1274 C1255 1.368 . S
C1274 C1268 1.368 . S
C1274 C1273 1.523 . S
C1275 C1259 1.429 . S
C1275 C1271 1.429 . S
C1275 C1276 1.523 . S
C1276 C1260 1.368 . S
C1276 C1272 1.368 . S
C1276 C1275 1.523 . S
H1277 C1252 0.950 . S
H1278 C1254 0.950 . S
H1279 C1255 0.949 . S
H1280 C1257 0.950 . S
H1281 C1259 0.950 . S
C1282 C1283 1.349 . S
C1282 C1284 1.327 . S
C1282 H1307 0.950 . S
C1283 C1282 1.349 . S
C1283 C1299 1.349 . S
C1284 C1282 1.327 . S
C1284 C1303 1.429 . S
C1284 H1308 0.950 . S
C1285 C1302 1.574 . S
C1285 C1304 1.368 . S
C1285 H1309 0.949 . S
H1286 C1290 0.949 . S
C1287 C1288 1.349 . S
C1287 C1289 1.327 . S
C1287 H1310 0.950 . S
C1288 C1287 1.349 . S
C1288 C1300 1.349 . S
C1289 C1287 1.327 . S
C1289 C1305 1.429 . S
C1289 H1311 0.950 . S
C1290 H1286 0.949 . S
C1290 C1298 1.574 . S
C1290 C1306 1.368 . S
H1291 C1299 0.950 . S
H1292 C1297 0.950 . S
H1293 C1298 0.949 . S
H1294 C1300 0.950 . S
H1295 C1301 0.950 . S
H1296 C1302 0.949 . S
C1297 H1292 0.950 . S
C1297 C1299 1.327 . S
C1297 C1303 1.429 . S
C1298 C1290 1.574 . S
C1298 H1293 0.949 . S
C1298 C1304 1.368 . S
C1299 C1283 1.349 . S
C1299 H1291 0.950 . S
C1299 C1297 1.327 . S
C1300 C1288 1.349 . S
C1300 H1294 0.950 . S
C1300 C1301 1.327 . S
C1301 H1295 0.950 . S
C1301 C1300 1.327 . S
C1301 C1305 1.429 . S
C1302 C1285 1.574 . S
C1302 H1296 0.949 . S
C1302 C1306 1.368 . S
C1303 C1284 1.429 . S
C1303 C1297 1.429 . S
C1303 C1304 1.523 . S
C1304 C1285 1.368 . S
C1304 C1298 1.368 . S
C1304 C1303 1.523 . S
C1305 C1289 1.429 . S
C1305 C1301 1.429 . S
C1305 C1306 1.523 . S
C1306 C1290 1.368 . S
C1306 C1302 1.368 . S
C1306 C1305 1.523 . S
H1307 C1282 0.950 . S
H1308 C1284 0.950 . S
H1309 C1285 0.949 . S
H1310 C1287 0.950 . S
H1311 C1289 0.950 . S
C1312 C1313 1.349 . S
C1312 C1314 1.327 . S
C1312 H1337 0.950 . S
C1313 C1312 1.349 . S
C1313 C1329 1.349 . S
C1314 C1312 1.327 . S
C1314 C1333 1.429 . S
C1314 H1338 0.950 . S
C1315 C1332 1.574 . S
C1315 C1334 1.368 . S
C1315 H1339 0.949 . S
H1316 C1320 0.949 . S
C1317 C1318 1.349 . S
C1317 C1319 1.327 . S
C1317 H1340 0.950 . S
C1318 C1317 1.349 . S
C1318 C1330 1.349 . S
C1319 C1317 1.327 . S
C1319 C1335 1.429 . S
C1319 H1341 0.950 . S
C1320 H1316 0.949 . S
C1320 C1328 1.574 . S
C1320 C1336 1.368 . S
H1321 C1329 0.950 . S
H1322 C1327 0.950 . S
H1323 C1328 0.949 . S
H1324 C1330 0.950 . S
H1325 C1331 0.950 . S
H1326 C1332 0.949 . S
C1327 H1322 0.950 . S
C1327 C1329 1.327 . S
C1327 C1333 1.429 . S
C1328 C1320 1.574 . S
C1328 H1323 0.949 . S
C1328 C1334 1.368 . S
C1329 C1313 1.349 . S
C1329 H1321 0.950 . S
C1329 C1327 1.327 . S
C1330 C1318 1.349 . S
C1330 H1324 0.950 . S
C1330 C1331 1.327 . S
C1331 H1325 0.950 . S
C1331 C1330 1.327 . S
C1331 C1335 1.429 . S
C1332 C1315 1.574 . S
C1332 H1326 0.949 . S
C1332 C1336 1.368 . S
C1333 C1314 1.429 . S
C1333 C1327 1.429 . S
C1333 C1334 1.523 . S
C1334 C1315 1.368 . S
C1334 C1328 1.368 . S
C1334 C1333 1.523 . S
C1335 C1319 1.429 . S
C1335 C1331 1.429 . S
C1335 C1336 1.523 . S
C1336 C1320 1.368 . S
C1336 C1332 1.368 . S
C1336 C1335 1.523 . S
H1337 C1312 0.950 . S
H1338 C1314 0.950 . S
H1339 C1315 0.949 . S
H1340 C1317 0.950 . S
H1341 C1319 0.950 . S
C1342 C1343 1.349 . S
C1342 C1344 1.327 . S
C1342 H1367 0.950 . S
C1343 C1342 1.349 . S
C1343 C1359 1.349 . S
C1344 C1342 1.327 . S
C1344 C1363 1.429 . S
C1344 H1368 0.950 . S
C1345 C1362 1.574 . S
C1345 C1364 1.368 . S
C1345 H1369 0.949 . S
H1346 C1350 0.949 . S
C1347 C1348 1.349 . S
C1347 C1349 1.327 . S
C1347 H1370 0.950 . S
C1348 C1347 1.349 . S
C1348 C1360 1.349 1_655 S
C1349 C1347 1.327 . S
C1349 C1365 1.429 1_655 S
C1349 H1371 0.950 . S
C1350 H1346 0.949 . S
C1350 C1358 1.574 . S
C1350 C1366 1.368 . S
H1351 C1359 0.950 . S
H1352 C1357 0.950 . S
H1353 C1358 0.949 . S
H1354 C1360 0.950 . S
H1355 C1361 0.950 . S
H1356 C1362 0.952 . S
C1357 H1352 0.950 . S
C1357 C1359 1.327 . S
C1357 C1363 1.429 . S
C1358 C1350 1.574 . S
C1358 H1353 0.949 . S
C1358 C1364 1.368 . S
C1359 C1343 1.349 . S
C1359 H1351 0.950 . S
C1359 C1357 1.327 . S
C1360 C1348 1.349 1_455 S
C1360 H1354 0.950 . S
C1360 C1361 1.327 . S
C1361 H1355 0.950 . S
C1361 C1360 1.327 . S
C1361 C1365 1.429 . S
C1362 C1345 1.574 . S
C1362 H1356 0.952 . S
C1362 C1366 1.368 . S
C1363 C1344 1.429 . S
C1363 C1357 1.429 . S
C1363 C1364 1.523 . S
C1364 C1345 1.368 . S
C1364 C1358 1.368 . S
C1364 C1363 1.523 . S
C1365 C1349 1.429 1_455 S
C1365 C1361 1.429 . S
C1365 C1366 1.523 . S
C1366 C1350 1.368 . S
C1366 C1362 1.368 . S
C1366 C1365 1.523 . S
H1367 C1342 0.950 . S
H1368 C1344 0.950 . S
H1369 C1345 0.949 . S
H1370 C1347 0.950 . S
H1371 C1349 0.950 . S
C1372 C1373 1.349 . S
C1372 C1374 1.327 . S
C1372 H1397 0.950 . S
C1373 C1372 1.349 . S
C1373 C1389 1.349 . S
C1374 C1372 1.327 . S
C1374 C1393 1.429 . S
C1374 H1398 0.950 . S
C1375 C1392 1.574 . S
C1375 C1394 1.368 . S
C1375 H1399 0.949 . S
H1376 C1380 0.949 . S
C1377 C1378 1.349 . S
C1377 C1379 1.327 . S
C1377 H1400 0.950 . S
C1378 C1377 1.349 . S
C1378 C1390 1.349 . S
C1379 C1377 1.327 . S
C1379 C1395 1.429 . S
C1379 H1401 0.950 . S
C1380 H1376 0.949 . S
C1380 C1388 1.574 . S
C1380 C1396 1.368 . S
H1381 C1389 0.950 . S
H1382 C1387 0.950 . S
H1383 C1388 0.949 . S
H1384 C1390 0.950 . S
H1385 C1391 0.950 . S
H1386 C1392 0.949 . S
C1387 H1382 0.950 . S
C1387 C1389 1.327 . S
C1387 C1393 1.429 . S
C1388 C1380 1.574 . S
C1388 H1383 0.949 . S
C1388 C1394 1.368 . S
C1389 C1373 1.349 . S
C1389 H1381 0.950 . S
C1389 C1387 1.327 . S
C1390 C1378 1.349 . S
C1390 H1384 0.950 . S
C1390 C1391 1.327 . S
C1391 H1385 0.950 . S
C1391 C1390 1.327 . S
C1391 C1395 1.429 . S
C1392 C1375 1.574 . S
C1392 H1386 0.949 . S
C1392 C1396 1.368 . S
C1393 C1374 1.429 . S
C1393 C1387 1.429 . S
C1393 C1394 1.523 . S
C1394 C1375 1.368 . S
C1394 C1388 1.368 . S
C1394 C1393 1.523 . S
C1395 C1379 1.429 . S
C1395 C1391 1.429 . S
C1395 C1396 1.523 . S
C1396 C1380 1.368 . S
C1396 C1392 1.368 . S
C1396 C1395 1.523 . S
H1397 C1372 0.950 . S
H1398 C1374 0.950 . S
H1399 C1375 0.949 . S
H1400 C1377 0.950 . S
H1401 C1379 0.950 . S
C1402 C1403 1.349 . S
C1402 C1404 1.327 . S
C1402 H1427 0.950 . S
C1403 C1402 1.349 . S
C1403 C1419 1.349 . S
C1404 C1402 1.327 . S
C1404 C1423 1.429 . S
C1404 H1428 0.950 . S
C1405 C1422 1.574 . S
C1405 C1424 1.368 . S
C1405 H1429 0.949 . S
H1406 C1410 0.949 . S
C1407 C1408 1.349 . S
C1407 C1409 1.327 . S
C1407 H1430 0.950 . S
C1408 C1407 1.349 . S
C1408 C1420 1.349 . S
C1409 C1407 1.327 . S
C1409 C1425 1.429 . S
C1409 H1431 0.950 . S
C1410 H1406 0.949 . S
C1410 C1418 1.574 . S
C1410 C1426 1.368 . S
H1411 C1419 0.950 1_655 S
H1412 C1417 0.950 . S
H1413 C1418 0.949 . S
H1414 C1420 0.950 . S
H1415 C1421 0.950 . S
H1416 C1422 0.949 . S
C1417 H1412 0.950 . S
C1417 C1419 1.327 . S
C1417 C1423 1.429 . S
C1418 C1410 1.574 . S
C1418 H1413 0.949 . S
C1418 C1424 1.368 . S
C1419 C1403 1.349 . S
C1419 H1411 0.950 1_455 S
C1419 C1417 1.327 . S
C1420 C1408 1.349 . S
C1420 H1414 0.950 . S
C1420 C1421 1.327 . S
C1421 H1415 0.950 . S
C1421 C1420 1.327 . S
C1421 C1425 1.429 . S
C1422 C1405 1.574 . S
C1422 H1416 0.949 . S
C1422 C1426 1.368 . S
C1423 C1404 1.429 . S
C1423 C1417 1.429 . S
C1423 C1424 1.523 . S
C1424 C1405 1.368 . S
C1424 C1418 1.368 . S
C1424 C1423 1.523 . S
C1425 C1409 1.429 . S
C1425 C1421 1.429 . S
C1425 C1426 1.523 . S
C1426 C1410 1.368 . S
C1426 C1422 1.368 . S
C1426 C1425 1.523 . S
H1427 C1402 0.950 . S
H1428 C1404 0.950 . S
H1429 C1405 0.949 . S
H1430 C1407 0.950 . S
H1431 C1409 0.950 . S
C1432 C1433 1.349 . S
C1432 C1434 1.327 . S
C1432 H1457 0.950 . S
C1433 C1432 1.349 . S
C1433 C1449 1.349 . S
C1434 C1432 1.327 . S
C1434 C1453 1.429 . S
C1434 H1458 0.950 . S
C1435 C1452 1.574 . S
C1435 C1454 1.368 . S
C1435 H1459 0.949 . S
H1436 C1440 0.949 . S
C1437 C1438 1.349 . S
C1437 C1439 1.327 . S
C1437 H1460 0.950 . S
C1438 C1437 1.349 . S
C1438 C1450 1.349 . S
C1439 C1437 1.327 . S
C1439 C1455 1.429 . S
C1439 H1461 0.950 . S
C1440 H1436 0.949 . S
C1440 C1448 1.574 . S
C1440 C1456 1.368 . S
H1441 C1449 0.950 . S
H1442 C1447 0.950 . S
H1443 C1448 0.949 . S
H1444 C1450 0.950 . S
H1445 C1451 0.950 . S
H1446 C1452 0.949 . S
C1447 H1442 0.950 . S
C1447 C1449 1.327 . S
C1447 C1453 1.429 . S
C1448 C1440 1.574 . S
C1448 H1443 0.949 . S
C1448 C1454 1.368 . S
C1449 C1433 1.349 . S
C1449 H1441 0.950 . S
C1449 C1447 1.327 . S
C1450 C1438 1.349 . S
C1450 H1444 0.950 . S
C1450 C1451 1.327 . S
C1451 H1445 0.950 . S
C1451 C1450 1.327 . S
C1451 C1455 1.429 . S
C1452 C1435 1.574 . S
C1452 H1446 0.949 . S
C1452 C1456 1.368 . S
C1453 C1434 1.429 . S
C1453 C1447 1.429 . S
C1453 C1454 1.523 . S
C1454 C1435 1.368 . S
C1454 C1448 1.368 . S
C1454 C1453 1.523 . S
C1455 C1439 1.429 . S
C1455 C1451 1.429 . S
C1455 C1456 1.523 . S
C1456 C1440 1.368 . S
C1456 C1452 1.368 . S
C1456 C1455 1.523 . S
H1457 C1432 0.950 . S
H1458 C1434 0.950 . S
H1459 C1435 0.949 . S
H1460 C1437 0.950 . S
H1461 C1439 0.950 . S
C1462 C1463 1.349 . S
C1462 C1464 1.327 . S
C1462 H1487 0.950 . S
C1463 C1462 1.349 . S
C1463 C1479 1.349 1_655 S
C1464 C1462 1.327 . S
C1464 C1483 1.429 . S
C1464 H1488 0.950 . S
C1465 C1482 1.574 . S
C1465 C1484 1.368 1_455 S
C1465 H1489 0.949 . S
H1466 C1470 0.949 . S
C1467 C1468 1.349 . S
C1467 C1469 1.327 . S
C1467 H1490 0.950 . S
C1468 C1467 1.349 . S
C1468 C1480 1.349 1_455 S
C1469 C1467 1.327 . S
C1469 C1485 1.429 . S
C1469 H1491 0.950 . S
C1470 H1466 0.949 . S
C1470 C1478 1.574 . S
C1470 C1486 1.368 . S
H1471 C1479 0.950 1_554 S
H1472 C1477 0.950 . S
H1473 C1478 0.949 . S
H1474 C1480 0.950 . S
H1475 C1481 0.950 . S
H1476 C1482 0.949 . S
C1477 H1472 0.950 . S
C1477 C1479 1.327 . S
C1477 C1483 1.429 1_455 S
C1478 C1470 1.574 . S
C1478 H1473 0.949 . S
C1478 C1484 1.368 . S
C1479 C1463 1.349 1_455 S
C1479 H1471 0.950 1_556 S
C1479 C1477 1.327 . S
C1480 C1468 1.349 1_655 S
C1480 H1474 0.950 . S
C1480 C1481 1.327 . S
C1481 H1475 0.950 . S
C1481 C1480 1.327 . S
C1481 C1485 1.429 1_655 S
C1482 C1465 1.574 . S
C1482 H1476 0.949 . S
C1482 C1486 1.368 1_455 S
C1483 C1464 1.429 . S
C1483 C1477 1.429 1_655 S
C1483 C1484 1.523 . S
C1484 C1465 1.368 1_655 S
C1484 C1478 1.368 . S
C1484 C1483 1.523 . S
C1485 C1469 1.429 . S
C1485 C1481 1.429 1_455 S
C1485 C1486 1.523 1_455 S
C1486 C1470 1.368 . S
C1486 C1482 1.368 1_655 S
C1486 C1485 1.523 1_655 S
H1487 C1462 0.950 . S
H1488 C1464 0.950 . S
H1489 C1465 0.949 . S
H1490 C1467 0.950 . S
H1491 C1469 0.950 . S
C1492 C1493 1.349 . S
C1492 C1494 1.327 . S
C1492 H1517 0.950 . S
C1493 C1492 1.349 . S
C1493 C1509 1.349 . S
C1494 C1492 1.327 . S
C1494 C1513 1.429 . S
C1494 H1518 0.950 . S
C1495 C1512 1.574 . S
C1495 C1514 1.368 . S
C1495 H1519 0.949 . S
H1496 C1500 0.949 . S
C1497 C1498 1.349 . S
C1497 C1499 1.327 . S
C1497 H1520 0.950 . S
C1498 C1497 1.349 . S
C1498 C1510 1.349 . S
C1499 C1497 1.327 . S
C1499 C1515 1.429 . S
C1499 H1521 0.950 . S
C1500 H1496 0.949 . S
C1500 C1508 1.574 . S
C1500 C1516 1.368 . S
H1501 C1509 0.950 . S
H1502 C1507 0.950 . S
H1503 C1508 0.949 . S
H1504 C1510 0.950 . S
H1505 C1511 0.950 . S
H1506 C1512 0.949 . S
C1507 H1502 0.950 . S
C1507 C1509 1.327 . S
C1507 C1513 1.429 . S
C1508 C1500 1.574 . S
C1508 H1503 0.949 . S
C1508 C1514 1.368 . S
C1509 C1493 1.349 . S
C1509 H1501 0.950 . S
C1509 C1507 1.327 . S
C1510 C1498 1.349 . S
C1510 H1504 0.950 . S
C1510 C1511 1.327 . S
C1511 H1505 0.950 . S
C1511 C1510 1.327 . S
C1511 C1515 1.429 . S
C1512 C1495 1.574 . S
C1512 H1506 0.949 . S
C1512 C1516 1.368 . S
C1513 C1494 1.429 . S
C1513 C1507 1.429 . S
C1513 C1514 1.523 . S
C1514 C1495 1.368 . S
C1514 C1508 1.368 . S
C1514 C1513 1.523 . S
C1515 C1499 1.429 . S
C1515 C1511 1.429 . S
C1515 C1516 1.523 . S
C1516 C1500 1.368 . S
C1516 C1512 1.368 . S
C1516 C1515 1.523 . S
H1517 C1492 0.950 . S
H1518 C1494 0.950 . S
H1519 C1495 0.949 . S
H1520 C1497 0.950 . S
H1521 C1499 0.950 . S
C1522 C1523 1.349 . S
C1522 C1524 1.327 . S
C1522 H1547 0.950 1_556 S
C1523 C1522 1.349 . S
C1523 C1539 1.349 . S
C1524 C1522 1.327 . S
C1524 C1543 1.429 . S
C1524 H1548 0.950 . S
C1525 C1542 1.574 . S
C1525 C1544 1.368 . S
C1525 H1549 0.949 . S
H1526 C1530 0.949 . S
C1527 C1528 1.349 . S
C1527 C1529 1.327 . S
C1527 H1550 0.950 . S
C1528 C1527 1.349 . S
C1528 C1540 1.349 . S
C1529 C1527 1.327 . S
C1529 C1545 1.429 . S
C1529 H1551 0.950 . S
C1530 H1526 0.949 . S
C1530 C1538 1.574 . S
C1530 C1546 1.368 . S
H1531 C1539 0.950 . S
H1532 C1537 0.950 . S
H1533 C1538 0.949 . S
H1534 C1540 0.950 . S
H1535 C1541 0.950 . S
H1536 C1542 0.949 . S
C1537 H1532 0.950 . S
C1537 C1539 1.327 . S
C1537 C1543 1.429 . S
C1538 C1530 1.574 . S
C1538 H1533 0.949 . S
C1538 C1544 1.368 . S
C1539 C1523 1.349 . S
C1539 H1531 0.950 . S
C1539 C1537 1.327 . S
C1540 C1528 1.349 . S
C1540 H1534 0.950 . S
C1540 C1541 1.327 . S
C1541 H1535 0.950 . S
C1541 C1540 1.327 . S
C1541 C1545 1.429 . S
C1542 C1525 1.574 . S
C1542 H1536 0.949 . S
C1542 C1546 1.368 . S
C1543 C1524 1.429 . S
C1543 C1537 1.429 . S
C1543 C1544 1.523 . S
C1544 C1525 1.368 . S
C1544 C1538 1.368 . S
C1544 C1543 1.523 . S
C1545 C1529 1.429 . S
C1545 C1541 1.429 . S
C1545 C1546 1.523 . S
C1546 C1530 1.368 . S
C1546 C1542 1.368 . S
C1546 C1545 1.523 . S
H1547 C1522 0.950 1_554 S
H1548 C1524 0.950 . S
H1549 C1525 0.949 . S
H1550 C1527 0.950 . S
H1551 C1529 0.950 . S
C1552 C1553 1.349 . S
C1552 C1554 1.327 . S
C1552 H1577 0.950 . S
C1553 C1552 1.349 . S
C1553 C1569 1.349 . S
C1554 C1552 1.327 . S
C1554 C1573 1.429 . S
C1554 H1578 0.950 . S
C1555 C1572 1.574 . S
C1555 C1574 1.368 . S
C1555 H1579 0.949 . S
H1556 C1560 0.949 . S
C1557 C1558 1.349 . S
C1557 C1559 1.327 . S
C1557 H1580 0.950 . S
C1558 C1557 1.349 . S
C1558 C1570 1.349 . S
C1559 C1557 1.327 . S
C1559 C1575 1.429 . S
C1559 H1581 0.950 . S
C1560 H1556 0.949 . S
C1560 C1568 1.574 . S
C1560 C1576 1.368 . S
H1561 C1569 0.950 . S
H1562 C1567 0.950 . S
H1563 C1568 0.949 . S
H1564 C1570 0.950 . S
H1565 C1571 0.950 . S
H1566 C1572 0.949 . S
C1567 H1562 0.950 . S
C1567 C1569 1.327 . S
C1567 C1573 1.429 . S
C1568 C1560 1.574 . S
C1568 H1563 0.949 . S
C1568 C1574 1.368 . S
C1569 C1553 1.349 . S
C1569 H1561 0.950 . S
C1569 C1567 1.327 . S
C1570 C1558 1.349 . S
C1570 H1564 0.950 . S
C1570 C1571 1.327 . S
C1571 H1565 0.950 . S
C1571 C1570 1.327 . S
C1571 C1575 1.429 . S
C1572 C1555 1.574 . S
C1572 H1566 0.949 . S
C1572 C1576 1.368 . S
C1573 C1554 1.429 . S
C1573 C1567 1.429 . S
C1573 C1574 1.523 . S
C1574 C1555 1.368 . S
C1574 C1568 1.368 . S
C1574 C1573 1.523 . S
C1575 C1559 1.429 . S
C1575 C1571 1.429 . S
C1575 C1576 1.523 . S
C1576 C1560 1.368 . S
C1576 C1572 1.368 . S
C1576 C1575 1.523 . S
H1577 C1552 0.950 . S
H1578 C1554 0.950 . S
H1579 C1555 0.949 . S
H1580 C1557 0.950 . S
H1581 C1559 0.950 . S
C1582 C1583 1.349 . S
C1582 C1584 1.327 . S
C1582 H1607 0.950 . S
C1583 C1582 1.349 . S
C1583 C1599 1.349 . S
C1584 C1582 1.327 . S
C1584 C1603 1.429 . S
C1584 H1608 0.950 . S
C1585 C1602 1.574 . S
C1585 C1604 1.368 . S
C1585 H1609 0.949 . S
H1586 C1590 0.949 . S
C1587 C1588 1.349 . S
C1587 C1589 1.327 . S
C1587 H1610 0.950 . S
C1588 C1587 1.349 . S
C1588 C1600 1.349 . S
C1589 C1587 1.327 . S
C1589 C1605 1.429 . S
C1589 H1611 0.950 . S
C1590 H1586 0.949 . S
C1590 C1598 1.574 . S
C1590 C1606 1.368 . S
H1591 C1599 0.950 . S
H1592 C1597 0.950 . S
H1593 C1598 0.949 . S
H1594 C1600 0.950 . S
H1595 C1601 0.950 . S
H1596 C1602 0.949 . S
C1597 H1592 0.950 . S
C1597 C1599 1.327 . S
C1597 C1603 1.429 . S
C1598 C1590 1.574 . S
C1598 H1593 0.949 . S
C1598 C1604 1.368 . S
C1599 C1583 1.349 . S
C1599 H1591 0.950 . S
C1599 C1597 1.327 . S
C1600 C1588 1.349 . S
C1600 H1594 0.950 . S
C1600 C1601 1.327 . S
C1601 H1595 0.950 . S
C1601 C1600 1.327 . S
C1601 C1605 1.429 . S
C1602 C1585 1.574 . S
C1602 H1596 0.949 . S
C1602 C1606 1.368 . S
C1603 C1584 1.429 . S
C1603 C1597 1.429 . S
C1603 C1604 1.523 . S
C1604 C1585 1.368 . S
C1604 C1598 1.368 . S
C1604 C1603 1.523 . S
C1605 C1589 1.429 . S
C1605 C1601 1.429 . S
C1605 C1606 1.523 . S
C1606 C1590 1.368 . S
C1606 C1602 1.368 . S
C1606 C1605 1.523 . S
H1607 C1582 0.950 . S
H1608 C1584 0.950 . S
H1609 C1585 0.949 . S
H1610 C1587 0.950 . S
H1611 C1589 0.950 . S
C1612 C1613 1.349 . S
C1612 C1614 1.327 . S
C1612 H1637 0.950 . S
C1613 C1612 1.349 . S
C1613 C1629 1.349 . S
C1614 C1612 1.327 . S
C1614 C1633 1.429 . S
C1614 H1638 0.950 . S
C1615 C1632 1.574 . S
C1615 C1634 1.368 . S
C1615 H1639 0.949 . S
H1616 C1620 0.949 . S
C1617 C1618 1.349 . S
C1617 C1619 1.327 . S
C1617 H1640 0.950 . S
C1618 C1617 1.349 . S
C1618 C1630 1.349 . S
C1619 C1617 1.327 . S
C1619 C1635 1.429 . S
C1619 H1641 0.950 . S
C1620 H1616 0.949 . S
C1620 C1628 1.574 . S
C1620 C1636 1.368 . S
H1621 C1629 0.950 . S
H1622 C1627 0.950 . S
H1623 C1628 0.949 . S
H1624 C1630 0.950 . S
H1625 C1631 0.950 . S
H1626 C1632 0.949 . S
C1627 H1622 0.950 . S
C1627 C1629 1.327 . S
C1627 C1633 1.429 . S
C1628 C1620 1.574 . S
C1628 H1623 0.949 . S
C1628 C1634 1.368 . S
C1629 C1613 1.349 . S
C1629 H1621 0.950 . S
C1629 C1627 1.327 . S
C1630 C1618 1.349 . S
C1630 H1624 0.950 . S
C1630 C1631 1.327 . S
C1631 H1625 0.950 . S
C1631 C1630 1.327 . S
C1631 C1635 1.429 . S
C1632 C1615 1.574 . S
C1632 H1626 0.949 . S
C1632 C1636 1.368 . S
C1633 C1614 1.429 . S
C1633 C1627 1.429 . S
C1633 C1634 1.523 . S
C1634 C1615 1.368 . S
C1634 C1628 1.368 . S
C1634 C1633 1.523 . S
C1635 C1619 1.429 . S
C1635 C1631 1.429 . S
C1635 C1636 1.523 . S
C1636 C1620 1.368 . S
C1636 C1632 1.368 . S
C1636 C1635 1.523 . S
H1637 C1612 0.950 . S
H1638 C1614 0.950 . S
H1639 C1615 0.949 . S
H1640 C1617 0.950 . S
H1641 C1619 0.950 . S
C1642 C1643 1.349 . S
C1642 C1644 1.327 . S
C1642 H1667 0.950 . S
C1643 C1642 1.349 . S
C1643 C1659 1.349 . S
C1644 C1642 1.327 . S
C1644 C1663 1.417 1_556 S
C1644 H1668 0.950 1_556 S
C1645 C1662 1.574 . S
C1645 C1664 1.368 . S
C1645 H1669 0.949 . S
H1646 C1650 0.949 . S
C1647 C1648 1.349 . S
C1647 C1649 1.327 . S
C1647 H1670 0.950 . S
C1648 C1647 1.349 . S
C1648 C1660 1.349 . S
C1649 C1647 1.327 . S
C1649 C1665 1.429 . S
C1649 H1671 0.950 . S
C1650 H1646 0.949 . S
C1650 C1658 1.574 . S
C1650 C1666 1.368 . S
H1651 C1659 0.950 . S
H1652 C1657 0.950 . S
H1653 C1658 0.949 . S
H1654 C1660 0.950 . S
H1655 C1661 0.950 . S
H1656 C1662 0.949 . S
C1657 H1652 0.950 . S
C1657 C1659 1.327 . S
C1657 C1663 1.403 1_556 S
C1658 C1650 1.574 . S
C1658 H1653 0.949 . S
C1658 C1664 1.368 . S
C1659 C1643 1.349 . S
C1659 H1651 0.950 . S
C1659 C1657 1.327 . S
C1660 C1648 1.349 . S
C1660 H1654 0.950 . S
C1660 C1661 1.327 . S
C1661 H1655 0.950 . S
C1661 C1660 1.327 . S
C1661 C1665 1.429 . S
C1662 C1645 1.574 . S
C1662 H1656 0.949 . S
C1662 C1666 1.368 . S
C1663 C1644 1.417 1_554 S
C1663 C1657 1.403 1_554 S
C1663 C1664 1.559 . S
C1664 C1645 1.368 . S
C1664 C1658 1.368 . S
C1664 C1663 1.559 . S
C1665 C1649 1.429 . S
C1665 C1661 1.429 . S
C1665 C1666 1.523 . S
C1666 C1650 1.368 . S
C1666 C1662 1.368 . S
C1666 C1665 1.523 . S
H1667 C1642 0.950 . S
H1668 C1644 0.950 1_554 S
H1669 C1645 0.949 . S
H1670 C1647 0.950 . S
H1671 C1649 0.950 . S
C1672 C1673 1.349 . S
C1672 C1674 1.327 . S
C1672 H1697 0.950 . S
C1673 C1672 1.349 . S
C1673 C1689 1.349 . S
C1674 C1672 1.327 . S
C1674 C1693 1.429 . S
C1674 H1698 0.950 . S
C1675 C1692 1.574 . S
C1675 C1694 1.368 . S
C1675 H1699 0.949 . S
H1676 C1680 0.949 . S
C1677 C1678 1.349 . S
C1677 C1679 1.327 . S
C1677 H1700 0.950 . S
C1678 C1677 1.349 . S
C1678 C1690 1.349 . S
C1679 C1677 1.327 . S
C1679 C1695 1.429 . S
C1679 H1701 0.950 . S
C1680 H1676 0.949 . S
C1680 C1688 1.574 . S
C1680 C1696 1.368 . S
H1681 C1689 0.950 . S
H1682 C1687 0.950 . S
H1683 C1688 0.949 . S
H1684 C1690 0.950 . S
H1685 C1691 0.950 . S
H1686 C1692 0.949 . S
C1687 H1682 0.950 . S
C1687 C1689 1.327 . S
C1687 C1693 1.429 . S
C1688 C1680 1.574 . S
C1688 H1683 0.949 . S
C1688 C1694 1.368 . S
C1689 C1673 1.349 . S
C1689 H1681 0.950 . S
C1689 C1687 1.327 . S
C1690 C1678 1.349 . S
C1690 H1684 0.950 . S
C1690 C1691 1.327 . S
C1691 H1685 0.950 . S
C1691 C1690 1.327 . S
C1691 C1695 1.429 . S
C1692 C1675 1.574 . S
C1692 H1686 0.949 . S
C1692 C1696 1.368 . S
C1693 C1674 1.429 . S
C1693 C1687 1.429 . S
C1693 C1694 1.523 . S
C1694 C1675 1.368 . S
C1694 C1688 1.368 . S
C1694 C1693 1.523 . S
C1695 C1679 1.429 . S
C1695 C1691 1.429 . S
C1695 C1696 1.523 . S
C1696 C1680 1.368 . S
C1696 C1692 1.368 . S
C1696 C1695 1.523 . S
H1697 C1672 0.950 . S
H1698 C1674 0.950 . S
H1699 C1675 0.949 . S
H1700 C1677 0.950 . S
H1701 C1679 0.950 . S
C1702 C1703 1.349 . S
C1702 C1704 1.327 . S
C1702 H1727 0.950 . S
C1703 C1702 1.349 . S
C1703 C1719 1.349 . S
C1704 C1702 1.327 . S
C1704 C1723 1.429 . S
C1704 H1728 0.950 . S
C1705 C1722 1.574 . S
C1705 C1724 1.368 . S
C1705 H1729 0.949 . S
H1706 C1710 0.949 . S
C1707 C1708 1.349 . S
C1707 C1709 1.327 . S
C1707 H1730 0.950 . S
C1708 C1707 1.349 . S
C1708 C1720 1.349 . S
C1709 C1707 1.327 . S
C1709 C1725 1.429 . S
C1709 H1731 0.950 . S
C1710 H1706 0.949 . S
C1710 C1718 1.574 . S
C1710 C1726 1.368 . S
H1711 C1719 0.950 . S
H1712 C1717 0.950 . S
H1713 C1718 0.949 . S
H1714 C1720 0.950 . S
H1715 C1721 0.950 . S
H1716 C1722 0.949 . S
C1717 H1712 0.950 . S
C1717 C1719 1.327 . S
C1717 C1723 1.429 . S
C1718 C1710 1.574 . S
C1718 H1713 0.949 . S
C1718 C1724 1.368 . S
C1719 C1703 1.349 . S
C1719 H1711 0.950 . S
C1719 C1717 1.327 . S
C1720 C1708 1.349 . S
C1720 H1714 0.950 . S
C1720 C1721 1.327 . S
C1721 H1715 0.950 . S
C1721 C1720 1.327 . S
C1721 C1725 1.429 . S
C1722 C1705 1.574 . S
C1722 H1716 0.949 . S
C1722 C1726 1.368 . S
C1723 C1704 1.429 . S
C1723 C1717 1.429 . S
C1723 C1724 1.523 . S
C1724 C1705 1.368 . S
C1724 C1718 1.368 . S
C1724 C1723 1.523 . S
C1725 C1709 1.429 . S
C1725 C1721 1.429 . S
C1725 C1726 1.523 . S
C1726 C1710 1.368 . S
C1726 C1722 1.368 . S
C1726 C1725 1.523 . S
H1727 C1702 0.950 . S
H1728 C1704 0.950 . S
H1729 C1705 0.949 . S
H1730 C1707 0.950 . S
H1731 C1709 0.950 . S
C1732 C1733 1.349 . S
C1732 C1734 1.327 . S
C1732 H1757 0.950 . S
C1733 C1732 1.349 . S
C1733 C1749 1.349 . S
C1734 C1732 1.327 . S
C1734 C1753 1.429 . S
C1734 H1758 0.950 . S
C1735 C1752 1.574 . S
C1735 C1754 1.368 . S
C1735 H1759 0.949 . S
H1736 C1740 0.949 . S
C1737 C1738 1.349 . S
C1737 C1739 1.327 . S
C1737 H1760 0.950 . S
C1738 C1737 1.349 . S
C1738 C1750 1.349 . S
C1739 C1737 1.327 . S
C1739 C1755 1.429 . S
C1739 H1761 0.950 . S
C1740 H1736 0.949 . S
C1740 C1748 1.574 . S
C1740 C1756 1.368 . S
H1741 C1749 0.950 . S
H1742 C1747 0.950 . S
H1743 C1748 0.949 . S
H1744 C1750 0.950 . S
H1745 C1751 0.950 . S
H1746 C1752 0.949 . S
C1747 H1742 0.950 . S
C1747 C1749 1.327 . S
C1747 C1753 1.429 . S
C1748 C1740 1.574 . S
C1748 H1743 0.949 . S
C1748 C1754 1.368 . S
C1749 C1733 1.349 . S
C1749 H1741 0.950 . S
C1749 C1747 1.327 . S
C1750 C1738 1.349 . S
C1750 H1744 0.950 . S
C1750 C1751 1.327 . S
C1751 H1745 0.950 . S
C1751 C1750 1.327 . S
C1751 C1755 1.429 . S
C1752 C1735 1.574 . S
C1752 H1746 0.949 . S
C1752 C1756 1.368 . S
C1753 C1734 1.429 . S
C1753 C1747 1.429 . S
C1753 C1754 1.523 . S
C1754 C1735 1.368 . S
C1754 C1748 1.368 . S
C1754 C1753 1.523 . S
C1755 C1739 1.429 . S
C1755 C1751 1.429 . S
C1755 C1756 1.523 . S
C1756 C1740 1.368 . S
C1756 C1752 1.368 . S
C1756 C1755 1.523 . S
H1757 C1732 0.950 . S
H1758 C1734 0.950 . S
H1759 C1735 0.949 . S
H1760 C1737 0.950 . S
H1761 C1739 0.950 . S
C1762 C1763 1.349 . S
C1762 C1764 1.327 . S
C1762 H1787 0.950 . S
C1763 C1762 1.349 . S
C1763 C1779 1.349 . S
C1764 C1762 1.327 . S
C1764 C1783 1.429 . S
C1764 H1788 0.950 . S
C1765 C1782 1.574 . S
C1765 C1784 1.368 . S
C1765 H1789 0.949 . S
H1766 C1770 0.949 . S
C1767 C1768 1.349 . S
C1767 C1769 1.327 . S
C1767 H1790 0.950 . S
C1768 C1767 1.349 . S
C1768 C1780 1.349 . S
C1769 C1767 1.327 . S
C1769 C1785 1.429 . S
C1769 H1791 0.950 . S
C1770 H1766 0.949 . S
C1770 C1778 1.574 . S
C1770 C1786 1.368 . S
H1771 C1779 0.950 . S
H1772 C1777 0.950 . S
H1773 C1778 0.949 . S
H1774 C1780 0.950 . S
H1775 C1781 0.950 . S
H1776 C1782 0.949 . S
C1777 H1772 0.950 . S
C1777 C1779 1.327 . S
C1777 C1783 1.429 . S
C1778 C1770 1.574 . S
C1778 H1773 0.949 . S
C1778 C1784 1.368 . S
C1779 C1763 1.349 . S
C1779 H1771 0.950 . S
C1779 C1777 1.327 . S
C1780 C1768 1.349 . S
C1780 H1774 0.950 . S
C1780 C1781 1.327 . S
C1781 H1775 0.950 . S
C1781 C1780 1.327 . S
C1781 C1785 1.429 . S
C1782 C1765 1.574 . S
C1782 H1776 0.949 . S
C1782 C1786 1.368 . S
C1783 C1764 1.429 . S
C1783 C1777 1.429 . S
C1783 C1784 1.523 . S
C1784 C1765 1.368 . S
C1784 C1778 1.368 . S
C1784 C1783 1.523 . S
C1785 C1769 1.429 . S
C1785 C1781 1.429 . S
C1785 C1786 1.523 . S
C1786 C1770 1.368 . S
C1786 C1782 1.368 . S
C1786 C1785 1.523 . S
H1787 C1762 0.950 . S
H1788 C1764 0.950 . S
H1789 C1765 0.949 . S
H1790 C1767 0.950 . S
H1791 C1769 0.950 . S
C1792 C1793 1.349 . S
C1792 C1794 1.327 . S
C1792 H1817 0.950 . S
C1793 C1792 1.349 . S
C1793 C1809 1.349 . S
C1794 C1792 1.327 . S
C1794 C1813 1.429 . S
C1794 H1818 0.950 . S
C1795 C1812 1.574 . S
C1795 C1814 1.368 . S
C1795 H1819 0.949 . S
H1796 C1800 0.949 . S
C1797 C1798 1.349 . S
C1797 C1799 1.327 . S
C1797 H1820 0.950 . S
C1798 C1797 1.349 . S
C1798 C1810 1.349 . S
C1799 C1797 1.327 . S
C1799 C1815 1.429 . S
C1799 H1821 0.950 . S
C1800 H1796 0.949 . S
C1800 C1808 1.574 . S
C1800 C1816 1.368 . S
H1801 C1809 0.950 . S
H1802 C1807 0.950 . S
H1803 C1808 0.949 . S
H1804 C1810 0.950 . S
H1805 C1811 0.950 . S
H1806 C1812 0.949 . S
C1807 H1802 0.950 . S
C1807 C1809 1.327 . S
C1807 C1813 1.429 . S
C1808 C1800 1.574 . S
C1808 H1803 0.949 . S
C1808 C1814 1.368 . S
C1809 C1793 1.349 . S
C1809 H1801 0.950 . S
C1809 C1807 1.327 . S
C1810 C1798 1.349 . S
C1810 H1804 0.950 . S
C1810 C1811 1.327 . S
C1811 H1805 0.950 . S
C1811 C1810 1.327 . S
C1811 C1815 1.429 . S
C1812 C1795 1.574 . S
C1812 H1806 0.949 . S
C1812 C1816 1.368 . S
C1813 C1794 1.429 . S
C1813 C1807 1.429 . S
C1813 C1814 1.523 . S
C1814 C1795 1.368 . S
C1814 C1808 1.368 . S
C1814 C1813 1.523 . S
C1815 C1799 1.429 . S
C1815 C1811 1.429 . S
C1815 C1816 1.523 . S
C1816 C1800 1.368 . S
C1816 C1812 1.368 . S
C1816 C1815 1.523 . S
H1817 C1792 0.950 . S
H1818 C1794 0.950 . S
H1819 C1795 0.949 . S
H1820 C1797 0.950 . S
H1821 C1799 0.950 . S
C1822 C1823 1.349 . S
C1822 C1824 1.327 . S
C1822 H1847 0.950 . S
C1823 C1822 1.349 . S
C1823 C1839 1.349 . S
C1824 C1822 1.327 . S
C1824 C1843 1.429 . S
C1824 H1848 0.950 . S
C1825 C1842 1.574 . S
C1825 C1844 1.368 . S
C1825 H1849 0.949 . S
H1826 C1830 0.949 . S
C1827 C1828 1.349 . S
C1827 C1829 1.327 . S
C1827 H1850 0.950 . S
C1828 C1827 1.349 . S
C1828 C1840 1.349 . S
C1829 C1827 1.327 . S
C1829 C1845 1.429 . S
C1829 H1851 0.950 . S
C1830 H1826 0.949 . S
C1830 C1838 1.574 . S
C1830 C1846 1.368 . S
H1831 C1839 0.950 . S
H1832 C1837 0.950 . S
H1833 C1838 0.949 . S
H1834 C1840 0.950 . S
H1835 C1841 0.950 . S
H1836 C1842 0.949 . S
C1837 H1832 0.950 . S
C1837 C1839 1.327 . S
C1837 C1843 1.429 . S
C1838 C1830 1.574 . S
C1838 H1833 0.949 . S
C1838 C1844 1.368 . S
C1839 C1823 1.349 . S
C1839 H1831 0.950 . S
C1839 C1837 1.327 . S
C1840 C1828 1.349 . S
C1840 H1834 0.950 . S
C1840 C1841 1.327 . S
C1841 H1835 0.950 . S
C1841 C1840 1.327 . S
C1841 C1845 1.429 . S
C1842 C1825 1.574 . S
C1842 H1836 0.949 . S
C1842 C1846 1.368 . S
C1843 C1824 1.429 . S
C1843 C1837 1.429 . S
C1843 C1844 1.523 . S
C1844 C1825 1.368 . S
C1844 C1838 1.368 . S
C1844 C1843 1.523 . S
C1845 C1829 1.429 . S
C1845 C1841 1.429 . S
C1845 C1846 1.523 . S
C1846 C1830 1.368 . S
C1846 C1842 1.368 . S
C1846 C1845 1.523 . S
H1847 C1822 0.950 . S
H1848 C1824 0.950 . S
H1849 C1825 0.949 . S
H1850 C1827 0.950 . S
H1851 C1829 0.950 . S
C1852 C1853 1.349 . S
C1852 C1854 1.327 . S
C1852 H1877 0.950 . S
C1853 C1852 1.349 . S
C1853 C1869 1.349 . S
C1854 C1852 1.327 . S
C1854 C1873 1.429 . S
C1854 H1878 0.950 . S
C1855 C1872 1.574 . S
C1855 C1874 1.368 . S
C1855 H1879 0.949 . S
H1856 C1860 0.949 . S
C1857 C1858 1.349 1_556 S
C1857 C1859 1.342 . S
C1857 H1880 0.950 . S
C1858 C1857 1.349 1_554 S
C1858 C1870 1.349 . S
C1859 C1857 1.342 . S
C1859 C1875 1.396 1_556 S
C1859 H1881 0.971 . S
C1860 H1856 0.949 . S
C1860 C1868 1.574 . S
C1860 C1876 1.368 . S
H1861 C1869 0.950 . S
H1862 C1867 0.950 . S
H1863 C1868 0.949 . S
H1864 C1870 0.950 . S
H1865 C1871 0.950 . S
H1866 C1872 0.949 1_556 S
C1867 H1862 0.950 . S
C1867 C1869 1.327 . S
C1867 C1873 1.429 . S
C1868 C1860 1.574 . S
C1868 H1863 0.949 . S
C1868 C1874 1.368 . S
C1869 C1853 1.349 . S
C1869 H1861 0.950 . S
C1869 C1867 1.327 . S
C1870 C1858 1.349 . S
C1870 H1864 0.950 . S
C1870 C1871 1.327 . S
C1871 H1865 0.950 . S
C1871 C1870 1.327 . S
C1871 C1875 1.429 . S
C1872 C1855 1.574 . S
C1872 H1866 0.949 1_554 S
C1872 C1876 1.368 . S
C1873 C1854 1.429 . S
C1873 C1867 1.429 . S
C1873 C1874 1.523 . S
C1874 C1855 1.368 . S
C1874 C1868 1.368 . S
C1874 C1873 1.523 . S
C1875 C1859 1.396 1_554 S
C1875 C1871 1.429 . S
C1875 C1876 1.523 . S
C1876 C1860 1.368 . S
C1876 C1872 1.368 . S
C1876 C1875 1.523 . S
H1877 C1852 0.950 . S
H1878 C1854 0.950 . S
H1879 C1855 0.949 . S
H1880 C1857 0.950 . S
H1881 C1859 0.971 . S
C1882 C1883 1.349 1_565 S
C1882 C1884 1.327 . S
C1882 H1907 0.950 . S
C1883 C1882 1.349 1_545 S
C1883 C1899 1.349 . S
C1884 C1882 1.327 . S
C1884 C1903 1.429 . S
C1884 H1908 0.950 . S
C1885 C1902 1.574 . S
C1885 C1904 1.368 . S
C1885 H1909 0.949 . S
H1886 C1890 0.949 . S
C1887 C1888 1.349 . S
C1887 C1889 1.327 . S
C1887 H1910 0.950 . S
C1888 C1887 1.349 . S
C1888 C1900 1.349 . S
C1889 C1887 1.327 . S
C1889 C1905 1.429 . S
C1889 H1911 0.950 . S
C1890 H1886 0.949 . S
C1890 C1898 1.574 . S
C1890 C1906 1.368 . S
H1891 C1899 0.950 . S
H1892 C1897 0.961 . S
H1893 C1898 0.949 . S
H1894 C1900 0.950 . S
H1895 C1901 0.950 . S
H1896 C1902 0.949 . S
C1897 H1892 0.961 . S
C1897 C1899 1.356 . S
C1897 C1903 1.391 1_545 S
C1898 C1890 1.574 . S
C1898 H1893 0.949 . S
C1898 C1904 1.368 . S
C1899 C1883 1.349 . S
C1899 H1891 0.950 . S
C1899 C1897 1.356 . S
C1900 C1888 1.349 . S
C1900 H1894 0.950 . S
C1900 C1901 1.327 . S
C1901 H1895 0.950 . S
C1901 C1900 1.327 . S
C1901 C1905 1.429 . S
C1902 C1885 1.574 . S
C1902 H1896 0.949 . S
C1902 C1906 1.368 . S
C1903 C1884 1.429 . S
C1903 C1897 1.391 1_565 S
C1903 C1904 1.523 . S
C1904 C1885 1.368 . S
C1904 C1898 1.368 . S
C1904 C1903 1.523 . S
C1905 C1889 1.429 . S
C1905 C1901 1.429 . S
C1905 C1906 1.523 . S
C1906 C1890 1.368 . S
C1906 C1902 1.368 . S
C1906 C1905 1.523 . S
H1907 C1882 0.950 . S
H1908 C1884 0.950 . S
H1909 C1885 0.949 . S
H1910 C1887 0.950 . S
H1911 C1889 0.950 . S
C478 C312 1.935 1_556 S
C473 C101 1.971 . S
C508 C325 1.028 . S
C503 C125 0.988 1_455 S
C533 C139 2.232 . S
C538 C345 2.090 . S
C568 C359 1.591 . S
C563 C82 1.730 . S
C598 C371 1.648 . S
C593 C196 1.665 . S
C628 C385 1.770 . S
C623 C234 1.781 . S
C653 C220 0.695 . S
C658 C395 0.660 . S
C688 C410 1.674 . S
C683 C173 1.695 . S
C713 C211 1.006 . S
C718 C424 0.977 . S
C748 C443 0.869 . S
C743 C182 0.863 . S
C773 C201 1.312 . S
C778 C423 1.424 . S
C808 C441 1.205 . S
C803 C239 1.128 . S
C833 C135 1.833 . S
C838 C457 1.737 . S
C863 C87 1.900 . S
C868 C451 2.046 . S
C893 C106 1.158 . S
C898 C455 1.296 . S
C923 C116 1.221 . S
C928 C452 1.223 . S
C953 C59 1.942 . S
C958 C354 1.928 . S
C983 C268 2.274 . S
C988 C353 2.273 . S
C1018 C317 1.110 . S
C1013 C291 1.142 . S
C1048 C331 1.510 . S
C1043 C163 1.495 . S
C1073 C78 2.124 . S
C1078 C368 2.137 . S
C1108 C413 1.145 . S
C1103 C215 1.145 . S
C1138 C367 1.503 . S
C1133 C177 1.518 . S
C1168 C399 1.782 . S
C1163 C230 1.769 . S
C1198 C396 1.935 . S
C1193 C272 1.971 . S
C1223 C296 0.988 . S
C1228 C409 1.028 . S
C1253 C158 2.232 . S
C1258 C373 2.090 . S
C1288 C387 1.591 . S
C1283 C253 1.730 . S
C1313 C63 1.665 . S
C1318 C343 1.648 . S
C1348 C357 1.770 . S
C1343 C6 1.781 . S
C1378 C311 0.660 . S
C1373 C30 0.695 . S
C1408 C326 1.675 . S
C1403 C40 1.696 1_455 S
C1433 C21 1.006 . S
C1438 C438 0.977 . S
C1463 C49 0.863 . S
C1468 C429 0.869 . S
C1493 C68 1.312 . S
C1498 C437 1.424 . S
C1523 C11 1.128 1_556 S
C1528 C427 1.205 . S
C1558 C471 1.737 . S
C1553 C154 1.833 . S
C1588 C465 2.046 . S
C1583 C258 1.901 . S
C1618 C469 1.296 . S
C1613 C277 1.157 . S
C1643 C287 1.221 . S
C1648 C466 1.223 . S
C1673 C192 1.943 . S
C1678 C382 1.928 . S
C1708 C381 2.273 . S
C1703 C97 2.274 . S
C1738 C401 1.110 . S
C1733 C120 1.142 . S
C1768 C415 1.510 . S
C1763 C144 1.495 . S
C1793 C249 2.124 . S
C1798 C340 2.137 . S
C1828 C329 1.145 . S
C1823 C25 1.145 . S
C1853 C44 1.518 . S
C1858 C339 1.503 . S
C1888 C315 1.782 . S
C1883 C2 1.768 . S
