# Generated by pormake.
# Topology anh, (6,3)-cn, num edge types: 1
# Building blocks:
#     Node 0, Type 0, BuildingBlock: BETFAJ_clean_sbu_0, # of connection points: 6
#     Node 1, Type 0, BuildingBlock: BETFAJ_clean_sbu_0, # of connection points: 6
#     Node 2, Type 0, BuildingBlock: BETFAJ_clean_sbu_0, # of connection points: 6
#     Node 3, Type 1, BuildingBlock: QEWDON_clean_linker_0, # of connection points: 3
#     Node 4, Type 1, BuildingBlock: QEWDON_clean_linker_0, # of connection points: 3
#     Node 5, Type 1, BuildingBlock: QEWDON_clean_linker_0, # of connection points: 3
#     Node 6, Type 1, BuildingBlock: QEWDON_clean_linker_0, # of connection points: 3
#     Node 7, Type 1, BuildingBlock: QEWDON_clean_linker_0, # of connection points: 3
#     Node 8, Type 1, BuildingBlock: QEWDON_clean_linker_0, # of connection points: 3
#     Edge 9, Type (0, 1), BuildingBlock: XUDNAN_clean_linker_2, # of connection points: 2
#     Edge 10, Type (0, 1), BuildingBlock: XUDNAN_clean_linker_2, # of connection points: 2
#     Edge 11, Type (0, 1), BuildingBlock: XUDNAN_clean_linker_2, # of connection points: 2
#     Edge 12, Type (0, 1), BuildingBlock: XUDNAN_clean_linker_2, # of connection points: 2
#     Edge 13, Type (0, 1), BuildingBlock: XUDNAN_clean_linker_2, # of connection points: 2
#     Edge 14, Type (0, 1), BuildingBlock: XUDNAN_clean_linker_2, # of connection points: 2
#     Edge 15, Type (0, 1), BuildingBlock: XUDNAN_clean_linker_2, # of connection points: 2
#     Edge 16, Type (0, 1), BuildingBlock: XUDNAN_clean_linker_2, # of connection points: 2
#     Edge 17, Type (0, 1), BuildingBlock: XUDNAN_clean_linker_2, # of connection points: 2
#     Edge 18, Type (0, 1), BuildingBlock: XUDNAN_clean_linker_2, # of connection points: 2
#     Edge 19, Type (0, 1), BuildingBlock: XUDNAN_clean_linker_2, # of connection points: 2
#     Edge 20, Type (0, 1), BuildingBlock: XUDNAN_clean_linker_2, # of connection points: 2
#     Edge 21, Type (0, 1), BuildingBlock: XUDNAN_clean_linker_2, # of connection points: 2
#     Edge 22, Type (0, 1), BuildingBlock: XUDNAN_clean_linker_2, # of connection points: 2
#     Edge 23, Type (0, 1), BuildingBlock: XUDNAN_clean_linker_2, # of connection points: 2
#     Edge 24, Type (0, 1), BuildingBlock: XUDNAN_clean_linker_2, # of connection points: 2
#     Edge 25, Type (0, 1), BuildingBlock: XUDNAN_clean_linker_2, # of connection points: 2
#     Edge 26, Type (0, 1), BuildingBlock: XUDNAN_clean_linker_2, # of connection points: 2
# Relax obj value: 0.137
# Max RMSD: 0.175
# Mean RMSD: 0.127
data_MOF--net-anh--node1-BETFAJ_clean_sbu_0--node2-QEWDON_clean_linker_0--edge1-XUDNAN_clean_linker_2
_symmetry_space_group_name_H-M    P1
_symmetry_Int_Tables_number       1
_symmetry_cell_setting            triclinic
loop_
_symmetry_equiv_pos_as_xyz
'x, y, z'
_cell_length_a     34.056607
_cell_length_b     39.708145
_cell_length_c     48.469873
_cell_angle_alpha  95.581736
_cell_angle_beta   93.947161
_cell_angle_gamma 129.67189
loop_
_atom_site_label
_atom_site_type_symbol
_atom_site_fract_x
_atom_site_fract_y
_atom_site_fract_z
_atom_type_partial_charge
Sm0 Sm 0.08101 0.50445 0.14543 0.0
Sm1 Sm 1.02936 0.54223 0.15543 0.0
C2 C 0.14201 0.48885 0.1313 0.0
C3 C 0.19647 0.51407 0.14351 0.0
C4 C 0.23145 0.51964 0.12674 0.0
C5 C 0.28412 0.54718 0.13803 0.0
C6 C 0.30235 0.56937 0.16625 0.0
C7 C 0.26705 0.56333 0.183 0.0
C8 C 0.21466 0.53621 0.17168 0.0
C9 C 0.08344 0.5277 0.20137 0.0
C10 C 0.1501 0.61483 0.15065 0.0
C11 C 0.97604 0.5627 0.17656 0.0
C12 C 0.92446 0.53775 0.18422 0.0
C13 C 0.88455 0.49283 0.17207 0.0
C14 C 0.8345 0.47037 0.17777 0.0
C15 C 0.82356 0.49277 0.1954 0.0
C16 C 0.86462 0.53694 0.20901 0.0
C17 C 0.91471 0.5592 0.20346 0.0
C18 C 1.03374 0.52696 0.09984 0.0
C19 C 0.96059 0.43233 0.14908 0.0
O20 O 0.13314 0.5104 0.11716 0.0
O21 O 0.10879 0.46718 0.14817 0.0
O22 O 0.09112 0.54967 0.18241 0.0
O23 O 0.07637 0.49239 0.19152 0.0
O24 O 0.14529 0.57939 0.14202 0.0
O25 O 0.11178 0.61019 0.16024 0.0
O26 O 1.0083 0.56201 0.19212 0.0
O27 O 0.97769 0.5578 0.14968 0.0
O28 O 1.02295 0.50056 0.11659 0.0
O29 O 1.04024 0.56126 0.11182 0.0
O30 O 0.967 0.46776 0.16012 0.0
O31 O 0.9974 0.4373 0.13723 0.0
H32 H 0.21818 0.50333 0.10488 0.0
H33 H 0.31058 0.55105 0.12474 0.0
H34 H 0.28014 0.58045 0.20467 0.0
H35 H 0.18847 0.53323 0.18484 0.0
H36 H 0.89163 0.47576 0.15726 0.0
H37 H 0.80378 0.43633 0.16709 0.0
H38 H 0.85753 0.55548 0.22233 0.0
H39 H 0.94535 0.59378 0.21324 0.0
Sm40 Sm 0.6261 0.05309 0.47489 0.0
Sm41 Sm 0.56169 0.0812 0.46601 0.0
C42 C 0.67165 0.0236 0.49455 0.0
C43 C 0.65869 0.98144 0.49821 0.0
C44 C 0.69477 0.98247 0.51487 0.0
C45 C 0.68423 0.94293 0.51794 0.0
C46 C 0.63733 0.90154 0.50431 0.0
C47 C 0.60064 0.90064 0.48807 0.0
C48 C 0.61126 0.94034 0.48505 0.0
C49 C 0.59728 0.04968 0.4197 0.0
C50 C 0.49785 0.97618 0.46877 0.0
C51 C 0.5143 0.1096 0.44728 0.0
C52 C 0.51752 0.14832 0.45281 0.0
C53 C 0.56155 0.18876 0.46915 0.0
C54 C 0.56127 0.22349 0.47688 0.0
C55 C 0.51677 0.21799 0.46861 0.0
C56 C 0.47352 0.1779 0.45144 0.0
C57 C 0.47395 0.14338 0.44363 0.0
C58 C 0.58984 0.08528 0.52137 0.0
C59 C 0.69056 0.15783 0.47081 0.0
O60 O 0.65252 0.03678 0.51037 0.0
O61 O 0.66981 0.02989 0.46866 0.0
O62 O 0.56886 0.03758 0.43827 0.0
O63 O 0.64167 0.06132 0.42941 0.0
O64 O 0.54328 0.98741 0.47719 0.0
O65 O 0.49486 1.00504 0.45978 0.0
O66 O 0.55121 0.11477 0.43589 0.0
O67 O 0.50076 0.08624 0.4673 0.0
O68 O 0.61836 0.09648 0.5029 0.0
O69 O 0.54633 0.07477 0.51145 0.0
O70 O 0.64489 0.1471 0.46401 0.0
O71 O 0.69388 0.12849 0.47848 0.0
H72 H 0.73139 0.01394 0.52535 0.0
H73 H 0.71289 0.94481 0.53103 0.0
H74 H 0.56431 0.86939 0.47714 0.0
H75 H 0.58284 0.939 0.47217 0.0
H76 H 0.5954 0.19293 0.4766 0.0
H77 H 0.595 0.25389 0.4903 0.0
H78 H 0.43898 0.17294 0.44446 0.0
H79 H 0.43962 0.11229 0.43107 0.0
Sm80 Sm 0.65179 0.60093 0.84082 0.0
Sm81 Sm 0.58189 0.50427 0.84048 0.0
C82 C 0.69869 0.68003 0.82695 0.0
C83 C 0.68905 0.71041 0.82169 0.0
C84 C 0.64869 0.69696 0.80064 0.0
C85 C 0.64297 0.72727 0.79417 0.0
C86 C 0.67715 0.77151 0.80872 0.0
C87 C 0.71657 0.78463 0.8303 0.0
C88 C 0.72265 0.75439 0.83659 0.0
C89 C 0.63997 0.57992 0.89333 0.0
C90 C 0.52216 0.54811 0.84161 0.0
C91 C 0.53526 0.42333 0.85058 0.0
C92 C 0.53931 0.38893 0.8433 0.0
C93 C 0.5543 0.38444 0.81786 0.0
C94 C 0.55575 0.35031 0.81067 0.0
C95 C 0.54256 0.32026 0.82888 0.0
C96 C 0.5293 0.32598 0.85477 0.0
C97 C 0.52754 0.35991 0.86184 0.0
C98 C 0.59413 0.5256 0.78779 0.0
C99 C 0.71251 0.55784 0.84324 0.0
O100 O 0.67323 0.64304 0.80865 0.0
O101 O 0.70327 0.67487 0.85291 0.0
O102 O 0.60434 0.56052 0.87239 0.0
O103 O 0.68424 0.61338 0.88747 0.0
O104 O 0.56803 0.58402 0.83629 0.0
O105 O 0.51953 0.514 0.84653 0.0
O106 O 0.57428 0.45942 0.86807 0.0
O107 O 0.51754 0.43145 0.82977 0.0
O108 O 0.62941 0.54451 0.80884 0.0
O109 O 0.55007 0.4921 0.79357 0.0
O110 O 0.66522 0.52084 0.84599 0.0
O111 O 0.71657 0.59301 0.83937 0.0
H112 H 0.62196 0.66322 0.78883 0.0
H113 H 0.61173 0.71608 0.77775 0.0
H114 H 0.74353 0.81858 0.84178 0.0
H115 H 0.75422 0.76559 0.85277 0.0
H116 H 0.56406 0.40686 0.80334 0.0
H117 H 0.56574 0.34674 0.79049 0.0
H118 H 0.52002 0.30408 0.86958 0.0
H119 H 0.51649 0.36322 0.88171 0.0
H120 H 0.58963 0.05607 0.20814 0.0
C121 C 0.55486 0.02298 0.19826 0.0
C122 C 0.51778 0.99587 0.2149 0.0
C123 C 0.54773 1.00725 0.16943 0.0
H124 H 0.4469 0.93086 0.21652 0.0
C125 C 0.47359 0.95203 0.20301 0.0
C126 C 0.46506 0.93434 0.17465 0.0
C127 C 0.50192 0.96257 0.15787 0.0
C128 C 0.5893 0.03624 0.15202 0.0
H129 H 0.4944 0.9494 0.13577 0.0
C130 C 0.62497 0.08396 0.15833 0.0
C131 C 0.66464 0.10987 0.14199 0.0
C132 C 0.59483 0.01568 0.12911 0.0
H133 H 0.57082 0.97991 0.12396 0.0
C134 C 0.63226 0.04073 0.11255 0.0
H135 H 0.62226 0.10096 0.1759 0.0
C136 C 0.66637 0.087 0.11869 0.0
H137 H 0.69405 0.10481 0.1048 0.0
H138 H 0.6351 0.02403 0.0948 0.0
H139 H 0.63516 0.60612 0.58089 0.0
C140 C 0.61727 0.57256 0.57104 0.0
C141 C 0.59756 0.53935 0.58755 0.0
C142 C 0.61531 0.56288 0.54201 0.0
H143 H 0.56102 0.47056 0.58731 0.0
C144 C 0.57496 0.49608 0.57465 0.0
C145 C 0.57333 0.48612 0.54585 0.0
C146 C 0.59354 0.51955 0.52966 0.0
C147 C 0.63738 0.59808 0.52461 0.0
H148 H 0.59183 0.51163 0.50733 0.0
C149 C 0.62687 0.62718 0.52679 0.0
C150 C 0.64685 0.65977 0.50968 0.0
C151 C 0.66864 0.60225 0.50533 0.0
H152 H 0.6779 0.58069 0.50343 0.0
C153 C 0.68868 0.63451 0.48844 0.0
H154 H 0.60292 0.62425 0.54166 0.0
C155 C 0.6778 0.66299 0.49047 0.0
H156 H 0.69305 0.68712 0.47667 0.0
H157 H 0.71255 0.63733 0.47359 0.0
H158 H 0.11943 0.5386 0.89346 0.0
C159 C 0.09262 0.54178 0.88386 0.0
C160 C 0.05791 0.53895 0.90012 0.0
C161 C 0.09505 0.55006 0.85628 0.0
H162 H 0.99594 0.5403 0.90177 0.0
C163 C 1.02072 0.54141 0.88835 0.0
C164 C 1.01678 0.54838 0.86071 0.0
C165 C 0.05591 0.55368 0.8449 0.0
C166 C 0.1404 0.55692 0.84145 0.0
H167 H 0.0551 0.5601 0.82382 0.0
C168 C 0.17708 0.54959 0.85132 0.0
C169 C 0.21967 0.55975 0.83637 0.0
C170 C 0.14878 0.57356 0.81633 0.0
H171 H 0.12522 0.58049 0.80737 0.0
C172 C 0.18788 0.58255 0.80194 0.0
H173 H 0.17312 0.53651 0.87042 0.0
C174 C 0.22189 0.576 0.81151 0.0
H175 H 0.24993 0.58309 0.7984 0.0
H176 H 0.19202 0.59515 0.78256 0.0
H177 H 0.05874 0.54107 0.41172 0.0
C178 C 0.09495 0.57252 0.42259 0.0
C179 C 0.13103 0.60277 0.40664 0.0
C180 C 0.10301 0.58456 0.45207 0.0
H181 H 0.2042 0.66783 0.40763 0.0
C182 C 0.1771 0.64451 0.42022 0.0
C183 C 0.18666 0.65829 0.44933 0.0
C184 C 0.14939 0.62806 0.46521 0.0
C185 C 0.05996 0.55431 0.46823 0.0
H186 H 0.15636 0.63886 0.4877 0.0
C187 C 1.02518 0.50671 0.46114 0.0
C188 C 0.98254 0.47972 0.47551 0.0
C189 C 1.05116 0.57365 0.49008 0.0
H190 H 0.07519 0.60941 0.49576 0.0
C191 C 1.0101 0.5474 0.50443 0.0
H192 H 1.03083 0.49077 0.44442 0.0
C193 C 0.97621 0.50117 0.49727 0.0
H194 H 0.94513 0.48207 0.50918 0.0
H195 H 1.00419 0.56311 0.52117 0.0
H196 H 0.59635 0.01835 0.72827 0.0
C197 C 0.59298 0.04231 0.73716 0.0
C198 C 0.59498 0.07026 0.72024 0.0
C199 C 0.58438 0.04377 0.76508 0.0
H200 H 0.58695 0.12003 0.71885 0.0
C201 C 0.58868 0.1002 0.73189 0.0
C202 C 0.58054 0.10225 0.75976 0.0
C203 C 0.58023 0.07512 0.77634 0.0
C204 C 0.57488 0.01025 0.78184 0.0
H205 H 0.57513 0.07768 0.79804 0.0
C206 C 0.60093 0.99352 0.77957 0.0
C207 C 0.59037 0.96115 0.79517 0.0
C208 C 0.53783 0.99365 0.79984 0.0
H209 H 0.51549 1.00423 0.80146 0.0
C210 C 0.52794 0.96221 0.81558 0.0
H211 H 0.62971 1.00586 0.76598 0.0
C212 C 0.55392 0.94601 0.81331 0.0
H213 H 0.54429 0.92059 0.82517 0.0
H214 H 0.49929 0.94974 0.82925 0.0
H215 H 0.65822 0.65194 0.0997 0.0
C216 C 0.64995 0.62568 0.11025 0.0
C217 C 0.62581 0.58358 0.09456 0.0
C218 C 0.66163 0.63357 0.1396 0.0
H219 H 0.59433 0.51689 0.0961 0.0
C220 C 0.61345 0.54937 0.10849 0.0
C221 C 0.62851 0.55757 0.13781 0.0
C222 C 0.65154 0.59986 0.15327 0.0
C223 C 0.67989 0.67572 0.15603 0.0
H224 H 0.66354 0.60763 0.17584 0.0
C225 C 0.64651 0.6748 0.17183 0.0
C226 C 0.65826 0.71441 0.18388 0.0
C227 C 0.72686 0.7168 0.15348 0.0
H228 H 0.75288 0.71806 0.14105 0.0
C229 C 0.73978 0.75651 0.16653 0.0
H230 H 0.60924 0.64308 0.17282 0.0
C231 C 0.70513 0.75541 0.18127 0.0
H232 H 0.71415 0.78627 0.18993 0.0
H233 H 0.77583 0.78816 0.16435 0.0
H234 H 0.38388 0.63287 0.14251 0.0
H235 H 0.3462 0.57185 0.21667 0.0
H236 H 0.43939 0.61761 0.2351 0.0
H237 H 0.48049 0.63115 0.13222 0.0
H238 H 0.52143 0.68367 0.1204 0.0
H239 H 0.45286 0.65239 0.11604 0.0
H240 H 0.4691 0.72087 0.14341 0.0
H241 H 0.53802 0.75215 0.14821 0.0
H242 H 0.50705 0.74594 0.17829 0.0
H243 H 0.53367 0.65793 0.24071 0.0
H244 H 0.62079 0.68823 0.23228 0.0
H245 H 0.59868 0.72669 0.15618 0.0
C246 C 0.39539 0.62978 0.16286 0.0
C247 C 0.35808 0.59896 0.17821 0.0
C248 C 0.37435 0.59569 0.20474 0.0
C249 C 0.42714 0.62166 0.21541 0.0
C250 C 0.46308 0.6513 0.19952 0.0
C251 C 0.44786 0.65574 0.1739 0.0
C252 C 0.49359 0.68614 0.15947 0.0
C253 C 0.48667 0.66187 0.13034 0.0
C254 C 0.50246 0.72881 0.15722 0.0
C255 C 0.53652 0.69589 0.18012 0.0
C256 C 0.51837 0.67624 0.20341 0.0
C257 C 0.54893 0.67491 0.22319 0.0
C258 C 0.59838 0.69237 0.2184 0.0
C259 C 0.6166 0.7111 0.1942 0.0
C260 C 0.58623 0.71449 0.17552 0.0
H261 H 0.70647 0.236 0.4704 0.0
H262 H 0.78678 0.18448 0.46841 0.0
H263 H 0.86796 0.25905 0.46583 0.0
H264 H 0.77613 0.31478 0.42334 0.0
H265 H 0.77856 0.35709 0.44313 0.0
H266 H 0.72595 0.29919 0.44346 0.0
H267 H 0.74657 0.31454 0.49781 0.0
H268 H 0.799 0.3725 0.49768 0.0
H269 H 0.81105 0.34099 0.51497 0.0
H270 H 0.94226 0.34097 0.46354 0.0
H271 H 1.00302 0.42284 0.46651 0.0
H272 H 0.87579 0.42206 0.4714 0.0
C273 C 0.74103 0.24029 0.46925 0.0
C274 C 0.73967 0.20379 0.46951 0.0
C275 C 0.78632 0.21148 0.46833 0.0
C276 C 0.83283 0.25389 0.46671 0.0
C277 C 0.83288 0.28905 0.4665 0.0
C278 C 0.78824 0.28278 0.46803 0.0
C279 C 0.79941 0.32666 0.4689 0.0
C280 C 0.76815 0.32427 0.44317 0.0
C281 C 0.78835 0.33942 0.49648 0.0
C282 C 0.85715 0.3585 0.46773 0.0
C283 C 0.87568 0.33611 0.46599 0.0
C284 C 0.92797 0.35871 0.46489 0.0
C285 C 0.96231 0.40534 0.46634 0.0
C286 C 0.94471 0.4294 0.46922 0.0
C287 C 0.89095 0.40504 0.46936 0.0
H288 H 0.67751 0.8297 0.84429 0.0
H289 H 0.66348 0.78535 0.75604 0.0
H290 H 0.64986 0.83634 0.74314 0.0
H291 H 0.57838 0.83396 0.83571 0.0
H292 H 0.60963 0.88261 0.86251 0.0
H293 H 0.62441 0.84675 0.86487 0.0
H294 H 0.72192 0.91389 0.86757 0.0
H295 H 0.70738 0.95003 0.86517 0.0
H296 H 0.74254 0.94701 0.84035 0.0
H297 H 0.63124 0.88785 0.73973 0.0
H298 H 0.6035 0.93202 0.74594 0.0
H299 H 0.62993 0.94281 0.83641 0.0
C300 C 0.6727 0.83149 0.82231 0.0
C301 C 0.67177 0.80382 0.80115 0.0
C302 C 0.66407 0.80619 0.77255 0.0
C303 C 0.65674 0.83529 0.76505 0.0
C304 C 0.65729 0.8618 0.7864 0.0
C305 C 0.66497 0.8601 0.81446 0.0
C306 C 0.65947 0.88921 0.83318 0.0
C307 C 0.61534 0.86147 0.85004 0.0
C308 C 0.7109 0.9273 0.85272 0.0
C309 C 0.64607 0.90656 0.81124 0.0
C310 C 0.64588 0.89102 0.78441 0.0
C311 C 0.63192 0.90071 0.76065 0.0
C312 C 0.6165 0.92602 0.76438 0.0
C313 C 0.61465 0.94089 0.79164 0.0
C314 C 0.6309 0.93185 0.81531 0.0
H315 H 0.74978 0.45217 0.14942 0.0
H316 H 0.77791 0.49648 0.23912 0.0
H317 H 0.70252 0.49254 0.23363 0.0
H318 H 0.74171 0.51985 0.13072 0.0
H319 H 0.69149 0.48646 0.10013 0.0
H320 H 0.72798 0.47108 0.11167 0.0
H321 H 0.64379 0.39304 0.11552 0.0
H322 H 0.6065 0.40823 0.10359 0.0
H323 H 0.59878 0.38794 0.13619 0.0
H324 H 0.64624 0.50814 0.21743 0.0
H325 H 0.62014 0.54425 0.19319 0.0
H326 H 0.63645 0.49716 0.11376 0.0
C327 C 0.73789 0.45804 0.16812 0.0
C328 C 0.76951 0.47456 0.19463 0.0
C329 C 0.75406 0.48368 0.21858 0.0
C330 C 0.71098 0.48121 0.21562 0.0
C331 C 0.68363 0.46928 0.18864 0.0
C332 C 0.696 0.45692 0.16526 0.0
C333 C 0.67059 0.45654 0.13823 0.0
C334 C 0.71033 0.48525 0.11917 0.0
C335 C 0.62733 0.40858 0.12246 0.0
C336 C 0.64819 0.47651 0.15006 0.0
C337 C 0.65301 0.48092 0.17901 0.0
C338 C 0.64141 0.50404 0.19472 0.0
C339 C 0.62748 0.52523 0.18074 0.0
C340 C 0.62731 0.52476 0.15143 0.0
C341 C 0.63494 0.49782 0.13596 0.0
H342 H 0.47168 0.89366 0.45416 0.0
H343 H 0.41242 0.956 0.4869 0.0
H344 H 0.33075 0.88226 0.49065 0.0
H345 H 0.35102 0.80034 0.41045 0.0
H346 H 0.35965 0.76085 0.41524 0.0
H347 H 0.41529 0.81875 0.41783 0.0
H348 H 0.44987 0.81999 0.46752 0.0
H349 H 0.394 0.76212 0.46516 0.0
H350 H 0.40952 0.8029 0.49423 0.0
H351 H 0.25439 0.80089 0.49083 0.0
H352 H 0.18533 0.71886 0.48035 0.0
H353 H 0.2897 0.70761 0.44347 0.0
C354 C 0.44163 0.89171 0.46237 0.0
C355 C 0.44879 0.93087 0.47052 0.0
C356 C 0.408 0.92667 0.48056 0.0
C357 C 0.36149 0.88484 0.48294 0.0
C358 C 0.35546 0.84689 0.47471 0.0
C359 C 0.39405 0.84982 0.4641 0.0
C360 C 0.37569 0.80347 0.45431 0.0
C361 C 0.37539 0.79538 0.42258 0.0
C362 C 0.40928 0.79673 0.47132 0.0
C363 C 0.32083 0.77413 0.46093 0.0
C364 C 0.3104 0.79992 0.4733 0.0
C365 C 0.26226 0.78045 0.48117 0.0
C366 C 0.22327 0.73367 0.4754 0.0
C367 C 0.2319 0.70646 0.46137 0.0
C368 C 0.2819 0.7273 0.45453 0.0
H369 H 0.60912 0.31843 0.8005 0.0
H370 H 0.47051 0.23505 0.83773 0.0
H371 H 0.46585 0.17115 0.82391 0.0
H372 H 0.5668 0.23441 0.74031 0.0
H373 H 0.63023 0.25178 0.73992 0.0
H374 H 0.62373 0.29172 0.75316 0.0
H375 H 0.68153 0.31262 0.8003 0.0
H376 H 0.68828 0.2728 0.78721 0.0
H377 H 0.66418 0.26957 0.81967 0.0
H378 H 0.47552 0.11649 0.80648 0.0
H379 H 0.49906 0.07345 0.78614 0.0
H380 H 0.62999 0.19055 0.7586 0.0
C381 C 0.57757 0.28668 0.80558 0.0
C382 C 0.54043 0.28199 0.82047 0.0
C383 C 0.50008 0.23986 0.82691 0.0
C384 C 0.49681 0.2032 0.81894 0.0
C385 C 0.53395 0.209 0.80435 0.0
C386 C 0.57353 0.24954 0.79764 0.0
C387 C 0.60826 0.24643 0.7817 0.0
C388 C 0.60717 0.25669 0.75201 0.0
C389 C 0.66385 0.27718 0.79821 0.0
C390 C 0.58198 0.19778 0.78061 0.0
C391 C 0.53924 0.17699 0.79387 0.0
C392 C 0.5089 0.13235 0.79606 0.0
C393 C 0.52273 0.10827 0.78455 0.0
C394 C 0.56653 0.12878 0.771 0.0
C395 C 0.59622 0.17405 0.76875 0.0
H396 H 0.70643 0.88778 0.50269 0.0
H397 H 0.54655 0.8207 0.51042 0.0
H398 H 0.53148 0.75155 0.51371 0.0
H399 H 0.6833 0.79644 0.46058 0.0
H400 H 0.74133 0.8091 0.47733 0.0
H401 H 0.73925 0.85309 0.47593 0.0
H402 H 0.76509 0.87643 0.53021 0.0
H403 H 0.76732 0.83253 0.53179 0.0
H404 H 0.72691 0.83572 0.55195 0.0
H405 H 0.53432 0.68936 0.51576 0.0
H406 H 0.55415 0.63928 0.51514 0.0
H407 H 0.71298 0.74889 0.50775 0.0
C408 C 0.66836 0.85878 0.50545 0.0
C409 C 0.62773 0.85978 0.50644 0.0
C410 C 0.57818 0.82067 0.50939 0.0
C411 C 0.56935 0.78133 0.51145 0.0
C412 C 0.61045 0.78168 0.51054 0.0
C413 C 0.65894 0.81944 0.50758 0.0
C414 C 0.69649 0.81114 0.50672 0.0
C415 C 0.71623 0.81783 0.47846 0.0
C416 C 0.74161 0.84071 0.53166 0.0
C417 C 0.66156 0.76271 0.50953 0.0
C418 C 0.6121 0.74623 0.51178 0.0
C419 C 0.57301 0.70202 0.51416 0.0
C420 C 0.58474 0.6739 0.51398 0.0
C421 C 0.63513 0.69009 0.5114 0.0
C422 C 0.67393 0.73526 0.50942 0.0
H423 H 0.7397 0.50619 0.86498 0.0
H424 H 0.80213 0.61592 0.82068 0.0
H425 H 0.87943 0.62329 0.81797 0.0
H426 H 0.86636 0.55496 0.90671 0.0
H427 H 0.85195 0.50256 0.90581 0.0
H428 H 0.8002 0.50429 0.9034 0.0
H429 H 0.7557 0.44732 0.85698 0.0
H430 H 0.80742 0.44555 0.85924 0.0
H431 H 0.79114 0.45883 0.8283 0.0
H432 H 0.95625 0.61764 0.81883 0.0
H433 H 1.01815 0.60475 0.82749 0.0
H434 H 0.91307 0.50233 0.87403 0.0
C435 C 0.7693 0.53189 0.85455 0.0
C436 C 0.76172 0.56028 0.84282 0.0
C437 C 0.80408 0.59321 0.82996 0.0
C438 C 0.84928 0.59768 0.82823 0.0
C439 C 0.85532 0.56963 0.8398 0.0
C440 C 0.81627 0.53755 0.85313 0.0
C441 C 0.83351 0.51281 0.86495 0.0
C442 C 0.83826 0.519 0.89713 0.0
C443 C 0.79461 0.46316 0.85159 0.0
C444 C 0.88754 0.5354 0.85624 0.0
C445 C 0.89919 0.56787 0.84136 0.0
C446 C 0.94647 0.59223 0.83071 0.0
C447 C 0.98221 0.58433 0.8356 0.0
C448 C 0.97333 0.55231 0.85162 0.0
C449 C 0.92371 0.52755 0.86176 0.0
H450 H 0.18382 0.69772 0.17477 0.0
H451 H 0.22999 0.63575 0.12421 0.0
H452 H 0.31219 0.70998 0.12218 0.0
H453 H 0.24104 0.79362 0.14031 0.0
H454 H 0.26197 0.83179 0.17252 0.0
H455 H 0.20566 0.77384 0.16909 0.0
H456 H 0.24641 0.76884 0.2139 0.0
H457 H 0.30269 0.82678 0.21752 0.0
H458 H 0.30982 0.78542 0.21584 0.0
H459 H 0.39145 0.79229 0.12625 0.0
H460 H 0.46187 0.87391 0.13881 0.0
H461 H 0.36503 0.883 0.18681 0.0
C462 C 0.21101 0.6997 0.16309 0.0
C463 C 0.19982 0.66039 0.14954 0.0
C464 C 0.23715 0.66495 0.1348 0.0
C465 C 0.28412 0.70718 0.13343 0.0
C466 C 0.29392 0.74512 0.14699 0.0
C467 C 0.25848 0.74176 0.16169 0.0
C468 C 0.27942 0.78775 0.17535 0.0
C469 C 0.24496 0.7973 0.16361 0.0
C470 C 0.28491 0.79246 0.20756 0.0
C471 C 0.33215 0.81741 0.1662 0.0
C472 C 0.33963 0.79222 0.14964 0.0
C473 C 0.38576 0.81225 0.13912 0.0
C474 C 0.42557 0.8589 0.14618 0.0
C475 C 0.41962 0.88553 0.16382 0.0
C476 C 0.3715 0.86404 0.17345 0.0
H477 H 0.59041 0.30855 0.47167 0.0
H478 H 0.4373 0.20561 0.49011 0.0
H479 H 0.43312 0.26285 0.50952 0.0
H480 H 0.63539 0.38781 0.53355 0.0
H481 H 0.67127 0.4354 0.51643 0.0
H482 H 0.6612 0.38618 0.50268 0.0
H483 H 0.61995 0.382 0.4541 0.0
H484 H 0.6298 0.43121 0.46773 0.0
H485 H 0.56593 0.38072 0.45174 0.0
H486 H 0.44788 0.33114 0.52994 0.0
H487 H 0.47979 0.40648 0.5485 0.0
H488 H 0.62196 0.46499 0.51563 0.0
C489 C 0.55597 0.29812 0.4797 0.0
C490 C 0.51405 0.25264 0.47925 0.0
C491 C 0.46953 0.24023 0.48986 0.0
C492 C 0.46687 0.27248 0.50104 0.0
C493 C 0.50889 0.317 0.50126 0.0
C494 C 0.55248 0.32989 0.49073 0.0
C495 C 0.59265 0.38006 0.49402 0.0
C496 C 0.6431 0.39843 0.51279 0.0
C497 C 0.60265 0.39432 0.46518 0.0
C498 C 0.56512 0.39334 0.50843 0.0
C499 C 0.51687 0.35644 0.51244 0.0
C500 C 0.48531 0.36029 0.52662 0.0
C501 C 0.50369 0.40306 0.53712 0.0
C502 C 0.55291 0.44123 0.53315 0.0
C503 C 0.58372 0.43623 0.5184 0.0
H504 H 0.49634 0.60362 0.82599 0.0
H505 H 0.43114 0.48553 0.86176 0.0
H506 H 0.35351 0.47688 0.8663 0.0
H507 H 0.44392 0.6449 0.86882 0.0
H508 H 0.42959 0.66387 0.84065 0.0
H509 H 0.48095 0.66179 0.84058 0.0
H510 H 0.43829 0.61234 0.79133 0.0
H511 H 0.38688 0.61436 0.79124 0.0
H512 H 0.37181 0.56143 0.78561 0.0
H513 H 0.27563 0.48123 0.86783 0.0
H514 H 0.21443 0.49551 0.86275 0.0
H515 H 0.32533 0.60949 0.82527 0.0
C516 C 0.46605 0.57578 0.83489 0.0
C517 C 0.47296 0.54538 0.84354 0.0
C518 C 0.42979 0.50988 0.85474 0.0
C519 C 0.38432 0.50459 0.85753 0.0
C520 C 0.37895 0.53464 0.84895 0.0
C521 C 0.41904 0.56959 0.83759 0.0
C522 C 0.40289 0.5967 0.8293 0.0
C523 C 0.44167 0.64468 0.84581 0.0
C524 C 0.39982 0.5962 0.79748 0.0
C525 C 0.34826 0.5721 0.83767 0.0
C526 C 0.33514 0.53637 0.84921 0.0
C527 C 0.28667 0.50934 0.85862 0.0
C528 C 0.25131 0.51802 0.85585 0.0
C529 C 0.26196 0.55373 0.84341 0.0
C530 C 0.31287 0.58113 0.83461 0.0
H531 H 0.93544 0.35032 0.13402 0.0
H532 H 0.87401 0.40993 0.16855 0.0
H533 H 0.79343 0.3356 0.17185 0.0
H534 H 0.81573 0.25119 0.09276 0.0
H535 H 0.82895 0.21532 0.09999 0.0
H536 H 0.88166 0.27332 0.10014 0.0
H537 H 0.92081 0.28225 0.15079 0.0
H538 H 0.86815 0.22427 0.1508 0.0
H539 H 0.88172 0.26632 0.17807 0.0
H540 H 0.71673 0.25237 0.17036 0.0
H541 H 0.65339 0.17017 0.1641 0.0
H542 H 0.76719 0.16549 0.1338 0.0
C543 C 0.90505 0.34785 0.1422 0.0
C544 C 0.91147 0.38657 0.15071 0.0
C545 C 0.87046 0.38127 0.16156 0.0
C546 C 0.82429 0.33892 0.16363 0.0
C547 C 0.81926 0.30156 0.15508 0.0
C548 C 0.85875 0.30571 0.1447 0.0
C549 C 0.84385 0.26036 0.13722 0.0
C550 C 0.84247 0.24941 0.10566 0.0
C551 C 0.88084 0.25819 0.1553 0.0
C552 C 0.78979 0.23009 0.1447 0.0
C553 C 0.77612 0.25435 0.15494 0.0
C554 C 0.72737 0.23319 0.1625 0.0
C555 C 0.69156 0.18623 0.15909 0.0
C556 C 0.7043 0.16035 0.14823 0.0
C557 C 0.75491 0.18338 0.14157 0.0
H558 H 0.96609 0.48391 0.04981 0.0
H559 H 0.12825 0.56708 0.08613 0.0
H560 H 0.15132 0.57433 0.0386 0.0
H561 H 0.97086 0.42752 0.98503 0.0
H562 H 0.92601 0.42776 0.96322 0.0
H563 H 0.92165 0.4243 -0.00016 0.0
H564 H 0.92864 0.49355 0.00696 0.0
H565 H 0.9337 0.4976 0.97051 0.0
H566 H 0.98331 0.5445 -0.0024 0.0
H567 H 0.1578 0.58033 0.98814 0.0
H568 H 0.14765 0.58185 0.93775 0.0
H569 H 0.98051 0.49213 0.93257 0.0
C570 C 1.00617 0.50224 0.04754 0.0
C571 C 1.04541 0.52384 0.07147 0.0
C572 C 0.09767 0.54923 0.06798 0.0
C573 C 0.11109 0.55372 0.04106 0.0
C574 C 0.07173 0.53269 0.01782 0.0
C575 C 1.02023 0.50704 0.02068 0.0
C576 C 0.98601 0.49054 0.99229 0.0
C577 C 0.94894 0.43949 0.98464 0.0
C578 C 0.95617 0.50758 0.99183 0.0
C579 C 1.02642 0.51189 0.9732 0.0
C580 C 0.07553 0.53586 0.98841 0.0
C581 C 0.11944 0.56078 0.97588 0.0
C582 C 0.11314 0.56114 0.94705 0.0
C583 C 0.06318 0.53643 0.9307 0.0
C584 C 1.0193 0.51135 0.9442 0.0
H585 H 0.64802 0.06219 0.3752 0.0
H586 H 0.5071 0.02895 0.39733 0.0
H587 H 0.47578 0.01981 0.3474 0.0
H588 H 0.6598 0.12216 0.31822 0.0
H589 H 0.68268 0.10035 0.29663 0.0
H590 H 0.6965 0.10883 0.33443 0.0
H591 H 0.65459 0.02622 0.33132 0.0
H592 H 0.64086 0.01756 0.29359 0.0
H593 H 0.58917 0.98305 0.3129 0.0
H594 H 0.45651 1.00796 0.29506 0.0
H595 H 0.44944 0.99218 0.24354 0.0
H596 H 0.60267 0.03299 0.25498 0.0
C597 C 0.61093 0.05365 0.36954 0.0
C598 C 0.57997 0.04639 0.39006 0.0
C599 C 0.5314 0.03471 0.38189 0.0
C600 C 0.51342 0.02964 0.35363 0.0
C601 C 0.54457 0.03652 0.33382 0.0
C602 C 0.59232 0.0483 0.34138 0.0
C603 C 0.61652 0.05068 0.31572 0.0
C604 C 0.66686 0.09835 0.31629 0.0
C605 C 0.6258 0.01739 0.31324 0.0
C606 C 0.5743 0.03718 0.29251 0.0
C607 C 0.53343 0.02971 0.30347 0.0
C608 C 0.48852 0.01427 0.28623 0.0
C609 C 0.48481 1.00534 0.25704 0.0
C610 C 0.52568 0.01177 0.24537 0.0
C611 C 0.57138 0.02877 0.26335 0.0
H612 H 0.52414 0.48262 0.73859 0.0
H613 H 0.68505 0.59481 0.7734 0.0
H614 H 0.70087 0.61538 0.7265 0.0
H615 H 0.54935 0.45188 0.67564 0.0
H616 H 0.49238 0.43489 0.65379 0.0
H617 H 0.49244 0.43185 0.69058 0.0
H618 H 0.46691 0.48088 0.69678 0.0
H619 H 0.46707 0.48427 0.65997 0.0
H620 H 0.50646 0.53446 0.68623 0.0
H621 H 0.70025 0.6219 0.67557 0.0
H622 H 0.68524 0.60985 0.62363 0.0
H623 H 0.52563 0.49188 0.62153 0.0
C624 C 0.56251 0.5118 0.73635 0.0
C625 C 0.60317 0.53764 0.75967 0.0
C626 C 0.65313 0.57506 0.75588 0.0
C627 C 0.66249 0.58701 0.72934 0.0
C628 C 0.62157 0.56094 0.70675 0.0
C629 C 0.57269 0.52386 0.7099 0.0
C630 C 0.53655 0.4995 0.68184 0.0
C631 C 0.51653 0.45172 0.67507 0.0
C632 C 0.49159 0.49982 0.68118 0.0
C633 C 0.573 0.52821 0.66238 0.0
C634 C 0.62161 0.56392 0.67721 0.0
C635 C 0.66224 0.59427 0.66373 0.0
C636 C 0.65328 0.58734 0.63424 0.0
C637 C 0.60426 0.55007 0.61859 0.0
C638 C 0.56348 0.52069 0.63297 0.0
H639 H 0.64276 0.14505 0.57062 0.0
H640 H 0.5533 1.00618 0.53407 0.0
H641 H 0.55392 0.98852 0.58153 0.0
H642 H 0.72051 0.14863 0.6322 0.0
H643 H 0.71767 0.18509 0.65541 0.0
H644 H 0.71807 0.188 0.61853 0.0
H645 H 0.63333 0.17568 0.61506 0.0
H646 H 0.63226 0.17215 0.65174 0.0
H647 H 0.57734 0.1272 0.62573 0.0
H648 H 0.55261 0.98416 0.63235 0.0
H649 H 0.55169 0.99323 0.68309 0.0
H650 H 0.64477 0.13581 0.68779 0.0
C651 C 0.62523 0.11135 0.57274 0.0
C652 C 0.59929 0.07705 0.54891 0.0
C653 C 0.57454 0.03292 0.55219 0.0
C654 C 0.5746 0.02263 0.57904 0.0
C655 C 0.59949 0.05695 0.60232 0.0
C656 C 0.62485 0.10054 0.59949 0.0
C657 C 0.64419 0.1303 0.62799 0.0
C658 C 0.70365 0.16506 0.63388 0.0
C659 C 0.62034 0.15262 0.63024 0.0
C660 C 0.62397 0.09635 0.64714 0.0
C661 C 0.59883 0.05438 0.63191 0.0
C662 C 0.5734 0.01706 0.64462 0.0
C663 C 0.5734 0.02267 0.67362 0.0
C664 C 0.59883 0.06538 0.68981 0.0
C665 C 0.62498 0.10268 0.67622 0.0
H666 H 0.70517 0.63192 0.94339 0.0
H667 H 0.55056 0.5092 0.90743 0.0
H668 H 0.5296 0.49679 0.95511 0.0
H669 H 0.72293 0.59356 0.00438 0.0
H670 H 0.7572 0.64637 0.02744 0.0
H671 H 0.7606 0.64437 0.99047 0.0
H672 H 0.72827 0.68811 0.98734 0.0
H673 H 0.7242 0.68981 0.02423 0.0
H674 H 0.66806 0.66678 -0.00134 0.0
H675 H 0.5248 0.49845 0.00645 0.0
H676 H 0.5374 0.51358 0.05845 0.0
H677 H 0.69433 0.6358 0.06078 0.0
C678 C 0.66716 0.60223 0.94563 0.0
C679 C 0.62947 0.57145 0.92187 0.0
C680 C 0.57994 0.53316 0.92547 0.0
C681 C 0.56766 0.52584 0.95242 0.0
C682 C 0.60532 0.55722 0.97546 0.0
C683 C 0.65411 0.59457 0.97238 0.0
C684 C 0.68707 0.62356 0.0006 0.0
C685 C 0.73476 0.62716 0.00604 0.0
C686 C 0.70281 0.6698 0.00282 0.0
C687 C 0.64911 0.59677 0.01996 0.0
C688 C 0.60224 0.55855 0.00505 0.0
C689 C 0.56133 0.52826 0.01839 0.0
C690 C 0.56879 0.53707 0.04784 0.0
C691 C 0.61666 0.57593 0.06348 0.0
C692 C 0.65706 0.60622 0.04928 0.0
H693 H 0.07567 0.48817 0.24686 0.0
H694 H 0.10222 0.60311 0.22326 0.0
H695 H 0.11 0.63071 0.27273 0.0
H696 H 1.00251 0.47426 0.30327 0.0
H697 H 1.03201 0.45982 0.32592 0.0
H698 H 1.0245 0.44673 0.28826 0.0
H699 H 0.12291 0.49009 0.2924 0.0
H700 H 0.13069 0.50318 0.33005 0.0
H701 H 0.16824 0.54728 0.31034 0.0
H702 H 0.11831 0.64778 0.32398 0.0
H703 H 0.13141 0.65584 0.37556 0.0
H704 H 0.1022 0.53149 0.36782 0.0
C705 C 0.08262 0.5189 0.25217 0.0
C706 C 0.08758 0.54322 0.2312 0.0
C707 C 0.09749 0.58362 0.23891 0.0
C708 C 0.10199 0.59959 0.26697 0.0
C709 C 0.09685 0.57494 0.28714 0.0
C710 C 0.0877 0.53562 0.28028 0.0
C711 C 0.0868 0.51722 0.30651 0.0
C712 C 1.03326 0.47181 0.30595 0.0
C713 C 0.12972 0.51429 0.31003 0.0
C714 C 0.09763 0.55274 0.32913 0.0
C715 C 0.10274 0.58539 0.31728 0.0
C716 C 0.11432 0.62244 0.33355 0.0
C717 C 0.12186 0.62678 0.36279 0.0
C718 C 0.11815 0.59445 0.37557 0.0
C719 C 0.1049 0.55648 0.35851 0.0
loop_
_geom_bond_atom_site_label_1
_geom_bond_atom_site_label_2
_geom_bond_distance
_geom_bond_site_symmetry_2
_ccdc_geom_bond_type
Sm0 C2 2.846 . S
Sm0 O20 2.543 . S
Sm0 O21 2.450 . S
Sm0 O22 2.681 . S
Sm0 O23 2.464 . S
Sm0 O24 2.396 . S
Sm0 O28 2.386 . S
Sm0 O31 2.408 1_455 S
Sm1 C11 2.846 1_455 S
Sm1 O22 2.386 . S
Sm1 O25 2.408 . S
Sm1 O26 2.543 1_455 S
Sm1 O27 2.450 1_455 S
Sm1 O28 2.681 . S
Sm1 O29 2.464 . S
Sm1 O30 2.396 1_455 S
C2 Sm0 2.846 . S
C2 C3 1.506 . S
C2 O20 1.261 . S
C2 O21 1.242 . S
C3 C2 1.506 . S
C3 C4 1.358 . S
C3 C8 1.382 . S
C4 C3 1.358 . S
C4 C5 1.385 . S
C4 H32 0.930 . S
C5 C4 1.385 . S
C5 C6 1.395 . S
C5 H33 0.929 . S
C6 C5 1.395 . S
C6 C7 1.335 . S
C7 C6 1.335 . S
C7 C8 1.398 . S
C7 H34 0.930 . S
C8 C3 1.382 . S
C8 C7 1.398 . S
C8 H35 0.929 . S
C9 O22 1.271 . S
C9 O23 1.251 . S
C10 O24 1.252 . S
C10 O25 1.272 . S
C11 Sm1 2.846 1_655 S
C11 C12 1.506 . S
C11 O26 1.261 . S
C11 O27 1.242 . S
C12 C11 1.506 . S
C12 C13 1.358 . S
C12 C17 1.382 . S
C13 C12 1.358 . S
C13 C14 1.385 . S
C13 H36 0.930 . S
C14 C13 1.385 . S
C14 C15 1.395 . S
C14 H37 0.929 . S
C15 C14 1.395 . S
C15 C16 1.335 . S
C16 C15 1.335 . S
C16 C17 1.398 . S
C16 H38 0.930 . S
C17 C12 1.382 . S
C17 C16 1.398 . S
C17 H39 0.929 . S
C18 O28 1.271 . S
C18 O29 1.251 . S
C19 O30 1.252 . S
C19 O31 1.272 . S
O20 Sm0 2.543 . S
O20 C2 1.261 . S
O21 Sm0 2.450 . S
O21 C2 1.242 . S
O22 Sm0 2.681 . S
O22 Sm1 2.386 . S
O22 C9 1.271 . S
O23 Sm0 2.464 . S
O23 C9 1.251 . S
O24 Sm0 2.396 . S
O24 C10 1.252 . S
O25 Sm1 2.408 . S
O25 C10 1.272 . S
O26 Sm1 2.543 1_655 S
O26 C11 1.261 . S
O27 Sm1 2.450 1_655 S
O27 C11 1.242 . S
O28 Sm0 2.386 . S
O28 Sm1 2.681 . S
O28 C18 1.271 . S
O29 Sm1 2.464 . S
O29 C18 1.251 . S
O30 Sm1 2.396 1_655 S
O30 C19 1.252 . S
O31 Sm0 2.408 1_655 S
O31 C19 1.272 . S
H32 C4 0.930 . S
H33 C5 0.929 . S
H34 C7 0.930 . S
H35 C8 0.929 . S
H36 C13 0.930 . S
H37 C14 0.929 . S
H38 C16 0.930 . S
H39 C17 0.929 . S
Sm40 C42 2.846 1_545 S
Sm40 O60 2.543 1_545 S
Sm40 O61 2.450 1_545 S
Sm40 O62 2.681 . S
Sm40 O63 2.464 . S
Sm40 O64 2.396 1_545 S
Sm40 O68 2.386 . S
Sm40 O71 2.408 . S
Sm41 C51 2.846 . S
Sm41 O62 2.386 . S
Sm41 O65 2.408 1_545 S
Sm41 O66 2.543 . S
Sm41 O67 2.450 . S
Sm41 O68 2.681 . S
Sm41 O69 2.464 . S
Sm41 O70 2.396 . S
C42 Sm40 2.846 1_565 S
C42 C43 1.506 . S
C42 O60 1.261 . S
C42 O61 1.242 . S
C43 C42 1.506 . S
C43 C44 1.358 . S
C43 C48 1.382 . S
C44 C43 1.358 . S
C44 C45 1.385 . S
C44 H72 0.930 . S
C45 C44 1.385 . S
C45 C46 1.395 . S
C45 H73 0.929 . S
C46 C45 1.395 . S
C46 C47 1.335 . S
C47 C46 1.335 . S
C47 C48 1.398 . S
C47 H74 0.930 . S
C48 C43 1.382 . S
C48 C47 1.398 . S
C48 H75 0.929 . S
C49 O62 1.271 . S
C49 O63 1.251 . S
C50 O64 1.252 . S
C50 O65 1.272 . S
C51 Sm41 2.846 . S
C51 C52 1.506 . S
C51 O66 1.261 . S
C51 O67 1.242 . S
C52 C51 1.506 . S
C52 C53 1.358 . S
C52 C57 1.382 . S
C53 C52 1.358 . S
C53 C54 1.385 . S
C53 H76 0.930 . S
C54 C53 1.385 . S
C54 C55 1.395 . S
C54 H77 0.929 . S
C55 C54 1.395 . S
C55 C56 1.335 . S
C56 C55 1.335 . S
C56 C57 1.398 . S
C56 H78 0.930 . S
C57 C52 1.382 . S
C57 C56 1.398 . S
C57 H79 0.929 . S
C58 O68 1.271 . S
C58 O69 1.251 . S
C59 O70 1.252 . S
C59 O71 1.272 . S
O60 Sm40 2.543 1_565 S
O60 C42 1.261 . S
O61 Sm40 2.450 1_565 S
O61 C42 1.242 . S
O62 Sm40 2.681 . S
O62 Sm41 2.386 . S
O62 C49 1.271 . S
O63 Sm40 2.464 . S
O63 C49 1.251 . S
O64 Sm40 2.396 1_565 S
O64 C50 1.252 . S
O65 Sm41 2.408 1_565 S
O65 C50 1.272 . S
O66 Sm41 2.543 . S
O66 C51 1.261 . S
O67 Sm41 2.450 . S
O67 C51 1.242 . S
O68 Sm40 2.386 . S
O68 Sm41 2.681 . S
O68 C58 1.271 . S
O69 Sm41 2.464 . S
O69 C58 1.251 . S
O70 Sm41 2.396 . S
O70 C59 1.252 . S
O71 Sm40 2.408 . S
O71 C59 1.272 . S
H72 C44 0.930 . S
H73 C45 0.929 . S
H74 C47 0.930 . S
H75 C48 0.929 . S
H76 C53 0.930 . S
H77 C54 0.929 . S
H78 C56 0.930 . S
H79 C57 0.929 . S
Sm80 C82 2.846 . S
Sm80 O100 2.543 . S
Sm80 O101 2.450 . S
Sm80 O102 2.681 . S
Sm80 O103 2.464 . S
Sm80 O104 2.396 . S
Sm80 O108 2.386 . S
Sm80 O111 2.408 . S
Sm81 C91 2.846 . S
Sm81 O102 2.386 . S
Sm81 O105 2.408 . S
Sm81 O106 2.543 . S
Sm81 O107 2.450 . S
Sm81 O108 2.681 . S
Sm81 O109 2.464 . S
Sm81 O110 2.396 . S
C82 Sm80 2.846 . S
C82 C83 1.506 . S
C82 O100 1.261 . S
C82 O101 1.242 . S
C83 C82 1.506 . S
C83 C84 1.358 . S
C83 C88 1.382 . S
C84 C83 1.358 . S
C84 C85 1.385 . S
C84 H112 0.930 . S
C85 C84 1.385 . S
C85 C86 1.395 . S
C85 H113 0.929 . S
C86 C85 1.395 . S
C86 C87 1.335 . S
C87 C86 1.335 . S
C87 C88 1.398 . S
C87 H114 0.930 . S
C88 C83 1.382 . S
C88 C87 1.398 . S
C88 H115 0.929 . S
C89 O102 1.271 . S
C89 O103 1.251 . S
C90 O104 1.252 . S
C90 O105 1.272 . S
C91 Sm81 2.846 . S
C91 C92 1.506 . S
C91 O106 1.261 . S
C91 O107 1.242 . S
C92 C91 1.506 . S
C92 C93 1.358 . S
C92 C97 1.382 . S
C93 C92 1.358 . S
C93 C94 1.385 . S
C93 H116 0.930 . S
C94 C93 1.385 . S
C94 C95 1.395 . S
C94 H117 0.929 . S
C95 C94 1.395 . S
C95 C96 1.335 . S
C96 C95 1.335 . S
C96 C97 1.398 . S
C96 H118 0.930 . S
C97 C92 1.382 . S
C97 C96 1.398 . S
C97 H119 0.929 . S
C98 O108 1.271 . S
C98 O109 1.251 . S
C99 O110 1.252 . S
C99 O111 1.272 . S
O100 Sm80 2.543 . S
O100 C82 1.261 . S
O101 Sm80 2.450 . S
O101 C82 1.242 . S
O102 Sm80 2.681 . S
O102 Sm81 2.386 . S
O102 C89 1.271 . S
O103 Sm80 2.464 . S
O103 C89 1.251 . S
O104 Sm80 2.396 . S
O104 C90 1.252 . S
O105 Sm81 2.408 . S
O105 C90 1.272 . S
O106 Sm81 2.543 . S
O106 C91 1.261 . S
O107 Sm81 2.450 . S
O107 C91 1.242 . S
O108 Sm80 2.386 . S
O108 Sm81 2.681 . S
O108 C98 1.271 . S
O109 Sm81 2.464 . S
O109 C98 1.251 . S
O110 Sm81 2.396 . S
O110 C99 1.252 . S
O111 Sm80 2.408 . S
O111 C99 1.272 . S
H112 C84 0.930 . S
H113 C85 0.929 . S
H114 C87 0.930 . S
H115 C88 0.929 . S
H116 C93 0.930 . S
H117 C94 0.929 . S
H118 C96 0.930 . S
H119 C97 0.929 . S
H120 C121 0.949 . S
C121 H120 0.949 . S
C121 C122 1.395 . S
C121 C123 1.391 . S
C122 C121 1.395 . S
C122 C125 1.390 1_545 S
C123 C121 1.391 . S
C123 C127 1.387 . S
C123 C128 1.491 . S
H124 C125 0.950 . S
C125 C122 1.390 1_565 S
C125 H124 0.950 . S
C125 C126 1.378 . S
C126 C125 1.378 . S
C126 C127 1.409 1_565 S
C127 C123 1.387 . S
C127 C126 1.409 1_545 S
C127 H129 0.951 . S
C128 C123 1.491 . S
C128 C130 1.382 . S
C128 C132 1.404 . S
H129 C127 0.951 . S
C130 C128 1.382 . S
C130 C131 1.390 . S
C130 H135 0.949 . S
C131 C130 1.390 . S
C131 C136 1.399 . S
C132 C128 1.404 . S
C132 H133 0.950 . S
C132 C134 1.375 . S
H133 C132 0.950 . S
C134 C132 1.375 . S
C134 C136 1.382 . S
C134 H138 0.950 . S
H135 C130 0.949 . S
C136 C131 1.399 . S
C136 C134 1.382 . S
C136 H137 0.952 . S
H137 C136 0.952 . S
H138 C134 0.950 . S
H139 C140 0.949 . S
C140 H139 0.949 . S
C140 C141 1.395 . S
C140 C142 1.391 . S
C141 C140 1.395 . S
C141 C144 1.390 . S
C142 C140 1.391 . S
C142 C146 1.387 . S
C142 C147 1.491 . S
H143 C144 0.950 . S
C144 C141 1.390 . S
C144 H143 0.950 . S
C144 C145 1.378 . S
C145 C144 1.378 . S
C145 C146 1.409 . S
C146 C142 1.387 . S
C146 C145 1.409 . S
C146 H148 0.951 . S
C147 C142 1.491 . S
C147 C149 1.382 . S
C147 C151 1.404 . S
H148 C146 0.951 . S
C149 C147 1.382 . S
C149 C150 1.390 . S
C149 H154 0.949 . S
C150 C149 1.390 . S
C150 C155 1.399 . S
C151 C147 1.404 . S
C151 H152 0.950 . S
C151 C153 1.375 . S
H152 C151 0.950 . S
C153 C151 1.375 . S
C153 C155 1.382 . S
C153 H157 0.950 . S
H154 C149 0.949 . S
C155 C150 1.399 . S
C155 C153 1.382 . S
C155 H156 0.952 . S
H156 C155 0.952 . S
H157 C153 0.950 . S
H158 C159 0.949 . S
C159 H158 0.949 . S
C159 C160 1.395 . S
C159 C161 1.391 . S
C160 C159 1.395 . S
C160 C163 1.390 . S
C161 C159 1.391 . S
C161 C165 1.387 . S
C161 C166 1.491 . S
H162 C163 0.950 1_655 S
C163 C160 1.390 . S
C163 H162 0.950 1_455 S
C163 C164 1.378 . S
C164 C163 1.378 . S
C164 C165 1.409 . S
C165 C161 1.387 . S
C165 C164 1.409 . S
C165 H167 0.951 . S
C166 C161 1.491 . S
C166 C168 1.382 . S
C166 C170 1.404 . S
H167 C165 0.951 . S
C168 C166 1.382 . S
C168 C169 1.390 . S
C168 H173 0.949 . S
C169 C168 1.390 . S
C169 C174 1.399 . S
C170 C166 1.404 . S
C170 H171 0.950 . S
C170 C172 1.375 . S
H171 C170 0.950 . S
C172 C170 1.375 . S
C172 C174 1.382 . S
C172 H176 0.950 . S
H173 C168 0.949 . S
C174 C169 1.399 . S
C174 C172 1.382 . S
C174 H175 0.952 . S
H175 C174 0.952 . S
H176 C172 0.950 . S
H177 C178 0.949 . S
C178 H177 0.949 . S
C178 C179 1.395 1_655 S
C178 C180 1.391 1_655 S
C179 C178 1.395 1_455 S
C179 C182 1.390 . S
C180 C178 1.391 1_455 S
C180 C184 1.387 . S
C180 C185 1.491 1_455 S
H181 C182 0.950 . S
C182 C179 1.390 . S
C182 H181 0.950 . S
C182 C183 1.378 . S
C183 C182 1.378 . S
C183 C184 1.409 . S
C184 C180 1.387 . S
C184 C183 1.409 . S
C184 H186 0.951 . S
C185 C180 1.491 1_655 S
C185 C187 1.382 . S
C185 C189 1.404 . S
H186 C184 0.951 . S
C187 C185 1.382 . S
C187 C188 1.390 . S
C187 H192 0.949 . S
C188 C187 1.390 . S
C188 C193 1.399 . S
C189 C185 1.404 . S
C189 H190 0.950 . S
C189 C191 1.375 . S
H190 C189 0.950 . S
C191 C189 1.375 . S
C191 C193 1.382 . S
C191 H195 0.950 . S
H192 C187 0.949 . S
C193 C188 1.399 . S
C193 C191 1.382 . S
C193 H194 0.952 . S
H194 C193 0.952 . S
H195 C191 0.950 . S
H196 C197 0.949 . S
C197 H196 0.949 . S
C197 C198 1.395 . S
C197 C199 1.391 . S
C198 C197 1.395 . S
C198 C201 1.390 . S
C199 C197 1.391 . S
C199 C203 1.387 . S
C199 C204 1.491 . S
H200 C201 0.950 . S
C201 C198 1.390 . S
C201 H200 0.950 . S
C201 C202 1.378 . S
C202 C201 1.378 . S
C202 C203 1.409 . S
C203 C199 1.387 . S
C203 C202 1.409 . S
C203 H205 0.951 . S
C204 C199 1.491 . S
C204 C206 1.382 1_545 S
C204 C208 1.404 1_545 S
H205 C203 0.951 . S
C206 C204 1.382 1_565 S
C206 C207 1.390 . S
C206 H211 0.949 . S
C207 C206 1.390 . S
C207 C212 1.399 . S
C208 C204 1.404 1_565 S
C208 H209 0.950 1_565 S
C208 C210 1.375 . S
H209 C208 0.950 1_545 S
C210 C208 1.375 . S
C210 C212 1.382 . S
C210 H214 0.950 . S
H211 C206 0.949 . S
C212 C207 1.399 . S
C212 C210 1.382 . S
C212 H213 0.952 . S
H213 C212 0.952 . S
H214 C210 0.950 . S
H215 C216 0.949 . S
C216 H215 0.949 . S
C216 C217 1.395 . S
C216 C218 1.391 . S
C217 C216 1.395 . S
C217 C220 1.390 . S
C218 C216 1.391 . S
C218 C222 1.387 . S
C218 C223 1.491 . S
H219 C220 0.950 . S
C220 C217 1.390 . S
C220 H219 0.950 . S
C220 C221 1.378 . S
C221 C220 1.378 . S
C221 C222 1.409 . S
C222 C218 1.387 . S
C222 C221 1.409 . S
C222 H224 0.951 . S
C223 C218 1.491 . S
C223 C225 1.382 . S
C223 C227 1.404 . S
H224 C222 0.951 . S
C225 C223 1.382 . S
C225 C226 1.390 . S
C225 H230 0.949 . S
C226 C225 1.390 . S
C226 C231 1.399 . S
C227 C223 1.404 . S
C227 H228 0.950 . S
C227 C229 1.375 . S
H228 C227 0.950 . S
C229 C227 1.375 . S
C229 C231 1.382 . S
C229 H233 0.950 . S
H230 C225 0.949 . S
C231 C226 1.399 . S
C231 C229 1.382 . S
C231 H232 0.952 . S
H232 C231 0.952 . S
H233 C229 0.950 . S
H234 C246 0.930 . S
H235 C248 0.930 . S
H236 C249 0.930 . S
H237 C253 0.959 . S
H238 C253 0.959 . S
H239 C253 0.961 . S
H240 C254 0.960 . S
H241 C254 0.961 . S
H242 C254 0.959 . S
H243 C257 0.929 . S
H244 C258 0.931 . S
H245 C260 0.930 . S
C246 H234 0.930 . S
C246 C247 1.399 . S
C246 C251 1.399 . S
C247 C246 1.399 . S
C247 C248 1.376 . S
C248 H235 0.930 . S
C248 C247 1.376 . S
C248 C249 1.388 . S
C249 H236 0.930 . S
C249 C248 1.388 . S
C249 C250 1.390 . S
C250 C249 1.390 . S
C250 C251 1.394 . S
C250 C256 1.465 . S
C251 C246 1.399 . S
C251 C250 1.394 . S
C251 C252 1.516 . S
C252 C251 1.516 . S
C252 C253 1.502 . S
C252 C254 1.561 . S
C252 C255 1.526 . S
C253 H237 0.959 . S
C253 H238 0.959 . S
C253 H239 0.961 . S
C253 C252 1.502 . S
C254 H240 0.960 . S
C254 H241 0.961 . S
C254 H242 0.959 . S
C254 C252 1.561 . S
C255 C252 1.526 . S
C255 C256 1.396 . S
C255 C260 1.390 . S
C256 C250 1.465 . S
C256 C255 1.396 . S
C256 C257 1.399 . S
C257 H243 0.929 . S
C257 C256 1.399 . S
C257 C258 1.385 . S
C258 H244 0.931 . S
C258 C257 1.385 . S
C258 C259 1.389 . S
C259 C258 1.389 . S
C259 C260 1.387 . S
C260 H245 0.930 . S
C260 C255 1.390 . S
C260 C259 1.387 . S
H261 C273 0.930 . S
H262 C275 0.930 . S
H263 C276 0.930 . S
H264 C280 0.959 . S
H265 C280 0.959 . S
H266 C280 0.961 . S
H267 C281 0.960 . S
H268 C281 0.961 . S
H269 C281 0.959 . S
H270 C284 0.929 . S
H271 C285 0.931 . S
H272 C287 0.930 . S
C273 H261 0.930 . S
C273 C274 1.399 . S
C273 C278 1.399 . S
C274 C273 1.399 . S
C274 C275 1.376 . S
C275 H262 0.930 . S
C275 C274 1.376 . S
C275 C276 1.388 . S
C276 H263 0.930 . S
C276 C275 1.388 . S
C276 C277 1.390 . S
C277 C276 1.390 . S
C277 C278 1.394 . S
C277 C283 1.465 . S
C278 C273 1.399 . S
C278 C277 1.394 . S
C278 C279 1.516 . S
C279 C278 1.516 . S
C279 C280 1.502 . S
C279 C281 1.561 . S
C279 C282 1.526 . S
C280 H264 0.959 . S
C280 H265 0.959 . S
C280 H266 0.961 . S
C280 C279 1.502 . S
C281 H267 0.960 . S
C281 H268 0.961 . S
C281 H269 0.959 . S
C281 C279 1.561 . S
C282 C279 1.526 . S
C282 C283 1.396 . S
C282 C287 1.390 . S
C283 C277 1.465 . S
C283 C282 1.396 . S
C283 C284 1.399 . S
C284 H270 0.929 . S
C284 C283 1.399 . S
C284 C285 1.385 . S
C285 H271 0.931 . S
C285 C284 1.385 . S
C285 C286 1.389 . S
C286 C285 1.389 . S
C286 C287 1.387 . S
C287 H272 0.930 . S
C287 C282 1.390 . S
C287 C286 1.387 . S
H288 C300 0.930 . S
H289 C302 0.930 . S
H290 C303 0.930 . S
H291 C307 0.959 . S
H292 C307 0.959 . S
H293 C307 0.961 . S
H294 C308 0.960 . S
H295 C308 0.961 . S
H296 C308 0.959 . S
H297 C311 0.929 . S
H298 C312 0.931 . S
H299 C314 0.930 . S
C300 H288 0.930 . S
C300 C301 1.399 . S
C300 C305 1.399 . S
C301 C300 1.399 . S
C301 C302 1.376 . S
C302 H289 0.930 . S
C302 C301 1.376 . S
C302 C303 1.388 . S
C303 H290 0.930 . S
C303 C302 1.388 . S
C303 C304 1.390 . S
C304 C303 1.390 . S
C304 C305 1.394 . S
C304 C310 1.465 . S
C305 C300 1.399 . S
C305 C304 1.394 . S
C305 C306 1.516 . S
C306 C305 1.516 . S
C306 C307 1.502 . S
C306 C308 1.561 . S
C306 C309 1.526 . S
C307 H291 0.959 . S
C307 H292 0.959 . S
C307 H293 0.961 . S
C307 C306 1.502 . S
C308 H294 0.960 . S
C308 H295 0.961 . S
C308 H296 0.959 . S
C308 C306 1.561 . S
C309 C306 1.526 . S
C309 C310 1.396 . S
C309 C314 1.390 . S
C310 C304 1.465 . S
C310 C309 1.396 . S
C310 C311 1.399 . S
C311 H297 0.929 . S
C311 C310 1.399 . S
C311 C312 1.385 . S
C312 H298 0.931 . S
C312 C311 1.385 . S
C312 C313 1.389 . S
C313 C312 1.389 . S
C313 C314 1.387 . S
C314 H299 0.930 . S
C314 C309 1.390 . S
C314 C313 1.387 . S
H315 C327 0.930 . S
H316 C329 0.930 . S
H317 C330 0.930 . S
H318 C334 0.959 . S
H319 C334 0.959 . S
H320 C334 0.961 . S
H321 C335 0.960 . S
H322 C335 0.961 . S
H323 C335 0.959 . S
H324 C338 0.929 . S
H325 C339 0.931 . S
H326 C341 0.930 . S
C327 H315 0.930 . S
C327 C328 1.399 . S
C327 C332 1.399 . S
C328 C327 1.399 . S
C328 C329 1.376 . S
C329 H316 0.930 . S
C329 C328 1.376 . S
C329 C330 1.388 . S
C330 H317 0.930 . S
C330 C329 1.388 . S
C330 C331 1.390 . S
C331 C330 1.390 . S
C331 C332 1.394 . S
C331 C337 1.465 . S
C332 C327 1.399 . S
C332 C331 1.394 . S
C332 C333 1.516 . S
C333 C332 1.516 . S
C333 C334 1.502 . S
C333 C335 1.561 . S
C333 C336 1.526 . S
C334 H318 0.959 . S
C334 H319 0.959 . S
C334 H320 0.961 . S
C334 C333 1.502 . S
C335 H321 0.960 . S
C335 H322 0.961 . S
C335 H323 0.959 . S
C335 C333 1.561 . S
C336 C333 1.526 . S
C336 C337 1.396 . S
C336 C341 1.390 . S
C337 C331 1.465 . S
C337 C336 1.396 . S
C337 C338 1.399 . S
C338 H324 0.929 . S
C338 C337 1.399 . S
C338 C339 1.385 . S
C339 H325 0.931 . S
C339 C338 1.385 . S
C339 C340 1.389 . S
C340 C339 1.389 . S
C340 C341 1.387 . S
C341 H326 0.930 . S
C341 C336 1.390 . S
C341 C340 1.387 . S
H342 C354 0.930 . S
H343 C356 0.930 . S
H344 C357 0.930 . S
H345 C361 0.959 . S
H346 C361 0.959 . S
H347 C361 0.961 . S
H348 C362 0.960 . S
H349 C362 0.961 . S
H350 C362 0.959 . S
H351 C365 0.929 . S
H352 C366 0.931 . S
H353 C368 0.930 . S
C354 H342 0.930 . S
C354 C355 1.399 . S
C354 C359 1.399 . S
C355 C354 1.399 . S
C355 C356 1.376 . S
C356 H343 0.930 . S
C356 C355 1.376 . S
C356 C357 1.388 . S
C357 H344 0.930 . S
C357 C356 1.388 . S
C357 C358 1.390 . S
C358 C357 1.390 . S
C358 C359 1.394 . S
C358 C364 1.465 . S
C359 C354 1.399 . S
C359 C358 1.394 . S
C359 C360 1.516 . S
C360 C359 1.516 . S
C360 C361 1.502 . S
C360 C362 1.561 . S
C360 C363 1.526 . S
C361 H345 0.959 . S
C361 H346 0.959 . S
C361 H347 0.961 . S
C361 C360 1.502 . S
C362 H348 0.960 . S
C362 H349 0.961 . S
C362 H350 0.959 . S
C362 C360 1.561 . S
C363 C360 1.526 . S
C363 C364 1.396 . S
C363 C368 1.390 . S
C364 C358 1.465 . S
C364 C363 1.396 . S
C364 C365 1.399 . S
C365 H351 0.929 . S
C365 C364 1.399 . S
C365 C366 1.385 . S
C366 H352 0.931 . S
C366 C365 1.385 . S
C366 C367 1.389 . S
C367 C366 1.389 . S
C367 C368 1.387 . S
C368 H353 0.930 . S
C368 C363 1.390 . S
C368 C367 1.387 . S
H369 C381 0.930 . S
H370 C383 0.930 . S
H371 C384 0.930 . S
H372 C388 0.959 . S
H373 C388 0.959 . S
H374 C388 0.961 . S
H375 C389 0.960 . S
H376 C389 0.961 . S
H377 C389 0.959 . S
H378 C392 0.929 . S
H379 C393 0.931 . S
H380 C395 0.930 . S
C381 H369 0.930 . S
C381 C382 1.399 . S
C381 C386 1.399 . S
C382 C381 1.399 . S
C382 C383 1.376 . S
C383 H370 0.930 . S
C383 C382 1.376 . S
C383 C384 1.388 . S
C384 H371 0.930 . S
C384 C383 1.388 . S
C384 C385 1.390 . S
C385 C384 1.390 . S
C385 C386 1.394 . S
C385 C391 1.465 . S
C386 C381 1.399 . S
C386 C385 1.394 . S
C386 C387 1.516 . S
C387 C386 1.516 . S
C387 C388 1.502 . S
C387 C389 1.561 . S
C387 C390 1.526 . S
C388 H372 0.959 . S
C388 H373 0.959 . S
C388 H374 0.961 . S
C388 C387 1.502 . S
C389 H375 0.960 . S
C389 H376 0.961 . S
C389 H377 0.959 . S
C389 C387 1.561 . S
C390 C387 1.526 . S
C390 C391 1.396 . S
C390 C395 1.390 . S
C391 C385 1.465 . S
C391 C390 1.396 . S
C391 C392 1.399 . S
C392 H378 0.929 . S
C392 C391 1.399 . S
C392 C393 1.385 . S
C393 H379 0.931 . S
C393 C392 1.385 . S
C393 C394 1.389 . S
C394 C393 1.389 . S
C394 C395 1.387 . S
C395 H380 0.930 . S
C395 C390 1.390 . S
C395 C394 1.387 . S
H396 C408 0.930 . S
H397 C410 0.930 . S
H398 C411 0.930 . S
H399 C415 0.959 . S
H400 C415 0.959 . S
H401 C415 0.961 . S
H402 C416 0.960 . S
H403 C416 0.961 . S
H404 C416 0.959 . S
H405 C419 0.929 . S
H406 C420 0.931 . S
H407 C422 0.930 . S
C408 H396 0.930 . S
C408 C409 1.399 . S
C408 C413 1.399 . S
C409 C408 1.399 . S
C409 C410 1.376 . S
C410 H397 0.930 . S
C410 C409 1.376 . S
C410 C411 1.388 . S
C411 H398 0.930 . S
C411 C410 1.388 . S
C411 C412 1.390 . S
C412 C411 1.390 . S
C412 C413 1.394 . S
C412 C418 1.465 . S
C413 C408 1.399 . S
C413 C412 1.394 . S
C413 C414 1.516 . S
C414 C413 1.516 . S
C414 C415 1.502 . S
C414 C416 1.561 . S
C414 C417 1.526 . S
C415 H399 0.959 . S
C415 H400 0.959 . S
C415 H401 0.961 . S
C415 C414 1.502 . S
C416 H402 0.960 . S
C416 H403 0.961 . S
C416 H404 0.959 . S
C416 C414 1.561 . S
C417 C414 1.526 . S
C417 C418 1.396 . S
C417 C422 1.390 . S
C418 C412 1.465 . S
C418 C417 1.396 . S
C418 C419 1.399 . S
C419 H405 0.929 . S
C419 C418 1.399 . S
C419 C420 1.385 . S
C420 H406 0.931 . S
C420 C419 1.385 . S
C420 C421 1.389 . S
C421 C420 1.389 . S
C421 C422 1.387 . S
C422 H407 0.930 . S
C422 C417 1.390 . S
C422 C421 1.387 . S
H423 C435 0.930 . S
H424 C437 0.930 . S
H425 C438 0.930 . S
H426 C442 0.959 . S
H427 C442 0.959 . S
H428 C442 0.961 . S
H429 C443 0.960 . S
H430 C443 0.961 . S
H431 C443 0.959 . S
H432 C446 0.929 . S
H433 C447 0.931 . S
H434 C449 0.930 . S
C435 H423 0.930 . S
C435 C436 1.399 . S
C435 C440 1.399 . S
C436 C435 1.399 . S
C436 C437 1.376 . S
C437 H424 0.930 . S
C437 C436 1.376 . S
C437 C438 1.388 . S
C438 H425 0.930 . S
C438 C437 1.388 . S
C438 C439 1.390 . S
C439 C438 1.390 . S
C439 C440 1.394 . S
C439 C445 1.465 . S
C440 C435 1.399 . S
C440 C439 1.394 . S
C440 C441 1.516 . S
C441 C440 1.516 . S
C441 C442 1.502 . S
C441 C443 1.561 . S
C441 C444 1.526 . S
C442 H426 0.959 . S
C442 H427 0.959 . S
C442 H428 0.961 . S
C442 C441 1.502 . S
C443 H429 0.960 . S
C443 H430 0.961 . S
C443 H431 0.959 . S
C443 C441 1.561 . S
C444 C441 1.526 . S
C444 C445 1.396 . S
C444 C449 1.390 . S
C445 C439 1.465 . S
C445 C444 1.396 . S
C445 C446 1.399 . S
C446 H432 0.929 . S
C446 C445 1.399 . S
C446 C447 1.385 . S
C447 H433 0.931 . S
C447 C446 1.385 . S
C447 C448 1.389 . S
C448 C447 1.389 . S
C448 C449 1.387 . S
C449 H434 0.930 . S
C449 C444 1.390 . S
C449 C448 1.387 . S
H450 C462 0.930 . S
H451 C464 0.930 . S
H452 C465 0.930 . S
H453 C469 0.959 . S
H454 C469 0.959 . S
H455 C469 0.961 . S
H456 C470 0.960 . S
H457 C470 0.961 . S
H458 C470 0.959 . S
H459 C473 0.929 . S
H460 C474 0.931 . S
H461 C476 0.930 . S
C462 H450 0.930 . S
C462 C463 1.399 . S
C462 C467 1.399 . S
C463 C462 1.399 . S
C463 C464 1.376 . S
C464 H451 0.930 . S
C464 C463 1.376 . S
C464 C465 1.388 . S
C465 H452 0.930 . S
C465 C464 1.388 . S
C465 C466 1.390 . S
C466 C465 1.390 . S
C466 C467 1.394 . S
C466 C472 1.465 . S
C467 C462 1.399 . S
C467 C466 1.394 . S
C467 C468 1.516 . S
C468 C467 1.516 . S
C468 C469 1.502 . S
C468 C470 1.561 . S
C468 C471 1.526 . S
C469 H453 0.959 . S
C469 H454 0.959 . S
C469 H455 0.961 . S
C469 C468 1.502 . S
C470 H456 0.960 . S
C470 H457 0.961 . S
C470 H458 0.959 . S
C470 C468 1.561 . S
C471 C468 1.526 . S
C471 C472 1.396 . S
C471 C476 1.390 . S
C472 C466 1.465 . S
C472 C471 1.396 . S
C472 C473 1.399 . S
C473 H459 0.929 . S
C473 C472 1.399 . S
C473 C474 1.385 . S
C474 H460 0.931 . S
C474 C473 1.385 . S
C474 C475 1.389 . S
C475 C474 1.389 . S
C475 C476 1.387 . S
C476 H461 0.930 . S
C476 C471 1.390 . S
C476 C475 1.387 . S
H477 C489 0.930 . S
H478 C491 0.930 . S
H479 C492 0.930 . S
H480 C496 0.959 . S
H481 C496 0.959 . S
H482 C496 0.961 . S
H483 C497 0.960 . S
H484 C497 0.961 . S
H485 C497 0.959 . S
H486 C500 0.929 . S
H487 C501 0.931 . S
H488 C503 0.930 . S
C489 H477 0.930 . S
C489 C490 1.399 . S
C489 C494 1.399 . S
C490 C489 1.399 . S
C490 C491 1.376 . S
C491 H478 0.930 . S
C491 C490 1.376 . S
C491 C492 1.388 . S
C492 H479 0.930 . S
C492 C491 1.388 . S
C492 C493 1.390 . S
C493 C492 1.390 . S
C493 C494 1.394 . S
C493 C499 1.465 . S
C494 C489 1.399 . S
C494 C493 1.394 . S
C494 C495 1.516 . S
C495 C494 1.516 . S
C495 C496 1.502 . S
C495 C497 1.561 . S
C495 C498 1.526 . S
C496 H480 0.959 . S
C496 H481 0.959 . S
C496 H482 0.961 . S
C496 C495 1.502 . S
C497 H483 0.960 . S
C497 H484 0.961 . S
C497 H485 0.959 . S
C497 C495 1.561 . S
C498 C495 1.526 . S
C498 C499 1.396 . S
C498 C503 1.390 . S
C499 C493 1.465 . S
C499 C498 1.396 . S
C499 C500 1.399 . S
C500 H486 0.929 . S
C500 C499 1.399 . S
C500 C501 1.385 . S
C501 H487 0.931 . S
C501 C500 1.385 . S
C501 C502 1.389 . S
C502 C501 1.389 . S
C502 C503 1.387 . S
C503 H488 0.930 . S
C503 C498 1.390 . S
C503 C502 1.387 . S
H504 C516 0.930 . S
H505 C518 0.930 . S
H506 C519 0.930 . S
H507 C523 0.959 . S
H508 C523 0.959 . S
H509 C523 0.961 . S
H510 C524 0.960 . S
H511 C524 0.961 . S
H512 C524 0.959 . S
H513 C527 0.929 . S
H514 C528 0.931 . S
H515 C530 0.930 . S
C516 H504 0.930 . S
C516 C517 1.399 . S
C516 C521 1.399 . S
C517 C516 1.399 . S
C517 C518 1.376 . S
C518 H505 0.930 . S
C518 C517 1.376 . S
C518 C519 1.388 . S
C519 H506 0.930 . S
C519 C518 1.388 . S
C519 C520 1.390 . S
C520 C519 1.390 . S
C520 C521 1.394 . S
C520 C526 1.465 . S
C521 C516 1.399 . S
C521 C520 1.394 . S
C521 C522 1.516 . S
C522 C521 1.516 . S
C522 C523 1.502 . S
C522 C524 1.561 . S
C522 C525 1.526 . S
C523 H507 0.959 . S
C523 H508 0.959 . S
C523 H509 0.961 . S
C523 C522 1.502 . S
C524 H510 0.960 . S
C524 H511 0.961 . S
C524 H512 0.959 . S
C524 C522 1.561 . S
C525 C522 1.526 . S
C525 C526 1.396 . S
C525 C530 1.390 . S
C526 C520 1.465 . S
C526 C525 1.396 . S
C526 C527 1.399 . S
C527 H513 0.929 . S
C527 C526 1.399 . S
C527 C528 1.385 . S
C528 H514 0.931 . S
C528 C527 1.385 . S
C528 C529 1.389 . S
C529 C528 1.389 . S
C529 C530 1.387 . S
C530 H515 0.930 . S
C530 C525 1.390 . S
C530 C529 1.387 . S
H531 C543 0.930 . S
H532 C545 0.930 . S
H533 C546 0.930 . S
H534 C550 0.959 . S
H535 C550 0.959 . S
H536 C550 0.961 . S
H537 C551 0.960 . S
H538 C551 0.961 . S
H539 C551 0.959 . S
H540 C554 0.929 . S
H541 C555 0.931 . S
H542 C557 0.930 . S
C543 H531 0.930 . S
C543 C544 1.399 . S
C543 C548 1.399 . S
C544 C543 1.399 . S
C544 C545 1.376 . S
C545 H532 0.930 . S
C545 C544 1.376 . S
C545 C546 1.388 . S
C546 H533 0.930 . S
C546 C545 1.388 . S
C546 C547 1.390 . S
C547 C546 1.390 . S
C547 C548 1.394 . S
C547 C553 1.465 . S
C548 C543 1.399 . S
C548 C547 1.394 . S
C548 C549 1.516 . S
C549 C548 1.516 . S
C549 C550 1.502 . S
C549 C551 1.561 . S
C549 C552 1.526 . S
C550 H534 0.959 . S
C550 H535 0.959 . S
C550 H536 0.961 . S
C550 C549 1.502 . S
C551 H537 0.960 . S
C551 H538 0.961 . S
C551 H539 0.959 . S
C551 C549 1.561 . S
C552 C549 1.526 . S
C552 C553 1.396 . S
C552 C557 1.390 . S
C553 C547 1.465 . S
C553 C552 1.396 . S
C553 C554 1.399 . S
C554 H540 0.929 . S
C554 C553 1.399 . S
C554 C555 1.385 . S
C555 H541 0.931 . S
C555 C554 1.385 . S
C555 C556 1.389 . S
C556 C555 1.389 . S
C556 C557 1.387 . S
C557 H542 0.930 . S
C557 C552 1.390 . S
C557 C556 1.387 . S
H558 C570 0.930 . S
H559 C572 0.930 . S
H560 C573 0.930 . S
H561 C577 0.959 . S
H562 C577 0.959 1_556 S
H563 C577 0.961 . S
H564 C578 0.977 . S
H565 C578 0.948 1_556 S
H566 C578 0.954 1_556 S
H567 C581 0.929 . S
H568 C582 0.931 . S
H569 C584 0.930 . S
C570 H558 0.930 . S
C570 C571 1.399 . S
C570 C575 1.399 . S
C571 C570 1.399 . S
C571 C572 1.376 . S
C572 H559 0.930 . S
C572 C571 1.376 . S
C572 C573 1.388 . S
C573 H560 0.930 . S
C573 C572 1.388 . S
C573 C574 1.390 . S
C574 C573 1.390 . S
C574 C575 1.394 . S
C574 C580 1.465 1_554 S
C575 C570 1.399 . S
C575 C574 1.394 . S
C575 C576 1.516 . S
C576 C575 1.516 . S
C576 C577 1.502 . S
C576 C578 1.562 1_455 S
C576 C579 1.526 1_554 S
C577 H561 0.959 . S
C577 H562 0.959 1_554 S
C577 H563 0.961 . S
C577 C576 1.502 . S
C578 H564 0.977 . S
C578 H565 0.948 1_554 S
C578 H566 0.954 1_554 S
C578 C576 1.562 1_655 S
C579 C576 1.526 1_556 S
C579 C580 1.396 . S
C579 C584 1.390 . S
C580 C574 1.465 1_556 S
C580 C579 1.396 . S
C580 C581 1.399 . S
C581 H567 0.929 . S
C581 C580 1.399 . S
C581 C582 1.385 . S
C582 H568 0.931 . S
C582 C581 1.385 . S
C582 C583 1.389 . S
C583 C582 1.389 . S
C583 C584 1.387 . S
C584 H569 0.930 . S
C584 C579 1.390 . S
C584 C583 1.387 . S
H585 C597 0.930 1_565 S
H586 C599 0.930 . S
H587 C600 0.930 . S
H588 C604 0.959 1_545 S
H589 C604 0.959 . S
H590 C604 0.961 . S
H591 C605 0.960 . S
H592 C605 0.961 . S
H593 C605 0.959 . S
H594 C608 0.929 . S
H595 C609 0.931 . S
H596 C611 0.919 1_565 S
C597 H585 0.930 1_545 S
C597 C598 1.399 . S
C597 C602 1.399 . S
C598 C597 1.399 . S
C598 C599 1.376 . S
C599 H586 0.930 . S
C599 C598 1.376 . S
C599 C600 1.388 . S
C600 H587 0.930 . S
C600 C599 1.388 . S
C600 C601 1.390 . S
C601 C600 1.390 . S
C601 C602 1.394 . S
C601 C607 1.465 . S
C602 C597 1.399 . S
C602 C601 1.394 . S
C602 C603 1.516 1_545 S
C603 C602 1.516 1_565 S
C603 C604 1.502 . S
C603 C605 1.561 . S
C603 C606 1.526 1_565 S
C604 H588 0.959 1_565 S
C604 H589 0.959 . S
C604 H590 0.961 . S
C604 C603 1.502 . S
C605 H591 0.960 . S
C605 H592 0.961 . S
C605 H593 0.959 . S
C605 C603 1.561 . S
C606 C603 1.526 1_545 S
C606 C607 1.396 . S
C606 C611 1.390 . S
C607 C601 1.465 . S
C607 C606 1.396 . S
C607 C608 1.399 . S
C608 H594 0.929 . S
C608 C607 1.399 . S
C608 C609 1.385 . S
C609 H595 0.931 . S
C609 C608 1.385 . S
C609 C610 1.389 . S
C610 C609 1.389 . S
C610 C611 1.387 . S
C611 H596 0.919 1_545 S
C611 C606 1.390 . S
C611 C610 1.387 . S
H612 C624 0.930 . S
H613 C626 0.930 . S
H614 C627 0.930 . S
H615 C631 0.959 . S
H616 C631 0.959 . S
H617 C631 0.961 . S
H618 C632 0.960 . S
H619 C632 0.961 . S
H620 C632 0.959 . S
H621 C635 0.929 . S
H622 C636 0.931 . S
H623 C638 0.930 . S
C624 H612 0.930 . S
C624 C625 1.399 . S
C624 C629 1.399 . S
C625 C624 1.399 . S
C625 C626 1.376 . S
C626 H613 0.930 . S
C626 C625 1.376 . S
C626 C627 1.388 . S
C627 H614 0.930 . S
C627 C626 1.388 . S
C627 C628 1.390 . S
C628 C627 1.390 . S
C628 C629 1.394 . S
C628 C634 1.465 . S
C629 C624 1.399 . S
C629 C628 1.394 . S
C629 C630 1.516 . S
C630 C629 1.516 . S
C630 C631 1.502 . S
C630 C632 1.561 . S
C630 C633 1.526 . S
C631 H615 0.959 . S
C631 H616 0.959 . S
C631 H617 0.961 . S
C631 C630 1.502 . S
C632 H618 0.960 . S
C632 H619 0.961 . S
C632 H620 0.959 . S
C632 C630 1.561 . S
C633 C630 1.526 . S
C633 C634 1.396 . S
C633 C638 1.390 . S
C634 C628 1.465 . S
C634 C633 1.396 . S
C634 C635 1.399 . S
C635 H621 0.929 . S
C635 C634 1.399 . S
C635 C636 1.385 . S
C636 H622 0.931 . S
C636 C635 1.385 . S
C636 C637 1.389 . S
C637 C636 1.389 . S
C637 C638 1.387 . S
C638 H623 0.930 . S
C638 C633 1.390 . S
C638 C637 1.387 . S
H639 C651 0.930 . S
H640 C653 0.930 1_565 S
H641 C654 0.930 . S
H642 C658 0.959 . S
H643 C658 0.959 . S
H644 C658 0.961 . S
H645 C659 0.960 . S
H646 C659 0.961 . S
H647 C659 0.959 . S
H648 C662 0.929 . S
H649 C663 0.931 1_565 S
H650 C665 0.930 . S
C651 H639 0.930 . S
C651 C652 1.399 . S
C651 C656 1.399 . S
C652 C651 1.399 . S
C652 C653 1.376 . S
C653 H640 0.930 1_545 S
C653 C652 1.376 . S
C653 C654 1.388 1_545 S
C654 H641 0.930 . S
C654 C653 1.388 1_565 S
C654 C655 1.390 1_565 S
C655 C654 1.390 1_545 S
C655 C656 1.394 . S
C655 C661 1.465 . S
C656 C651 1.399 . S
C656 C655 1.394 . S
C656 C657 1.516 . S
C657 C656 1.516 . S
C657 C658 1.502 . S
C657 C659 1.561 . S
C657 C660 1.526 . S
C658 H642 0.959 . S
C658 H643 0.959 . S
C658 H644 0.961 . S
C658 C657 1.502 . S
C659 H645 0.960 . S
C659 H646 0.961 . S
C659 H647 0.959 . S
C659 C657 1.561 . S
C660 C657 1.526 . S
C660 C661 1.396 . S
C660 C665 1.390 . S
C661 C655 1.465 . S
C661 C660 1.396 . S
C661 C662 1.399 1_545 S
C662 H648 0.929 . S
C662 C661 1.399 1_565 S
C662 C663 1.385 1_565 S
C663 H649 0.931 1_545 S
C663 C662 1.385 1_545 S
C663 C664 1.389 . S
C664 C663 1.389 . S
C664 C665 1.387 . S
C665 H650 0.930 . S
C665 C660 1.390 . S
C665 C664 1.387 . S
H666 C678 0.930 . S
H667 C680 0.930 . S
H668 C681 0.930 . S
H669 C685 0.959 . S
H670 C685 0.959 . S
H671 C685 0.961 1_556 S
H672 C686 0.960 . S
H673 C686 0.961 1_554 S
H674 C686 0.959 . S
H675 C689 0.929 1_556 S
H676 C690 0.931 . S
H677 C692 0.930 . S
C678 H666 0.930 . S
C678 C679 1.399 . S
C678 C683 1.399 . S
C679 C678 1.399 . S
C679 C680 1.376 . S
C680 H667 0.930 . S
C680 C679 1.376 . S
C680 C681 1.388 . S
C681 H668 0.930 . S
C681 C680 1.388 . S
C681 C682 1.390 . S
C682 C681 1.390 . S
C682 C683 1.394 . S
C682 C688 1.465 . S
C683 C678 1.399 . S
C683 C682 1.394 . S
C683 C684 1.516 . S
C684 C683 1.516 . S
C684 C685 1.502 1_556 S
C684 C686 1.561 . S
C684 C687 1.526 1_556 S
C685 H669 0.959 . S
C685 H670 0.959 . S
C685 H671 0.961 1_554 S
C685 C684 1.502 1_554 S
C686 H672 0.960 . S
C686 H673 0.961 1_556 S
C686 H674 0.959 . S
C686 C684 1.561 . S
C687 C684 1.526 1_554 S
C687 C688 1.396 1_554 S
C687 C692 1.390 . S
C688 C682 1.465 . S
C688 C687 1.396 1_556 S
C688 C689 1.399 1_556 S
C689 H675 0.929 1_554 S
C689 C688 1.399 1_554 S
C689 C690 1.385 . S
C690 H676 0.931 . S
C690 C689 1.385 . S
C690 C691 1.389 . S
C691 C690 1.389 . S
C691 C692 1.387 . S
C692 H677 0.930 . S
C692 C687 1.390 . S
C692 C691 1.387 . S
H693 C705 0.930 1_655 S
H694 C707 0.930 . S
H695 C708 0.930 . S
H696 C712 0.959 . S
H697 C712 0.959 . S
H698 C712 0.961 . S
H699 C713 0.960 . S
H700 C713 0.961 . S
H701 C713 0.959 1_455 S
H702 C716 0.929 . S
H703 C717 0.931 . S
H704 C719 0.930 1_655 S
C705 H693 0.930 1_455 S
C705 C706 1.399 . S
C705 C710 1.399 . S
C706 C705 1.399 . S
C706 C707 1.376 . S
C707 H694 0.930 . S
C707 C706 1.376 . S
C707 C708 1.388 . S
C708 H695 0.930 . S
C708 C707 1.388 . S
C708 C709 1.390 . S
C709 C708 1.390 . S
C709 C710 1.394 . S
C709 C715 1.465 . S
C710 C705 1.399 . S
C710 C709 1.394 . S
C710 C711 1.516 1_455 S
C711 C710 1.516 1_655 S
C711 C712 1.502 . S
C711 C713 1.561 . S
C711 C714 1.526 1_655 S
C712 H696 0.959 . S
C712 H697 0.959 . S
C712 H698 0.961 . S
C712 C711 1.502 . S
C713 H699 0.960 . S
C713 H700 0.961 . S
C713 H701 0.959 1_655 S
C713 C711 1.561 . S
C714 C711 1.526 1_455 S
C714 C715 1.396 . S
C714 C719 1.390 . S
C715 C709 1.465 . S
C715 C714 1.396 . S
C715 C716 1.399 . S
C716 H702 0.929 . S
C716 C715 1.399 . S
C716 C717 1.385 . S
C717 H703 0.931 . S
C717 C716 1.385 . S
C717 C718 1.389 . S
C718 C717 1.389 . S
C718 C719 1.387 . S
C719 H704 0.930 1_455 S
C719 C714 1.390 . S
C719 C718 1.387 . S
C247 C6 0.699 . S
C259 C226 0.866 . S
C274 C59 1.993 . S
C286 C188 1.902 . S
C301 C86 1.285 . S
C313 C207 1.288 . S
C328 C15 0.364 . S
C340 C221 0.272 . S
C367 C183 1.839 . S
C355 C50 1.874 . S
C394 C202 1.082 . S
C382 C95 1.114 . S
C409 C46 1.367 . S
C421 C150 1.203 . S
C436 C99 3.051 . S
C448 C164 2.998 1_655 S
C463 C10 1.921 . S
C475 C126 1.901 . S
C502 C145 1.070 . S
C490 C55 1.089 . S
C529 C169 3.051 . S
C517 C90 3.086 . S
C544 C19 2.012 . S
C556 C131 1.916 . S
C583 C160 1.702 . S
C571 C18 1.667 . S
C598 C49 1.500 . S
C610 C122 1.529 . S
C625 C98 1.552 . S
C637 C141 1.582 . S
C664 C198 1.557 . S
C652 C58 1.546 . S
C691 C217 1.376 . S
C679 C89 1.361 . S
C706 C9 1.422 . S
C718 C179 1.459 . S
