# Generated by pormake.
# Topology tsx, (6,3)-cn, num edge types: 1
# Building blocks:
#     Node 0, Type 0, BuildingBlock: CIFDUS_clean_sbu_1, # of connection points: 6
#     Node 1, Type 0, BuildingBlock: CIFDUS_clean_sbu_1, # of connection points: 6
#     Node 2, Type 1, BuildingBlock: MIDCAF_clean_linker_0, # of connection points: 3
#     Node 3, Type 1, BuildingBlock: MIDCAF_clean_linker_0, # of connection points: 3
#     Node 4, Type 1, BuildingBlock: MIDCAF_clean_linker_0, # of connection points: 3
#     Node 5, Type 1, BuildingBlock: MIDCAF_clean_linker_0, # of connection points: 3
#     Edge 6, Type (0, 1), BuildingBlock: XIVTED_clean_linker_0, # of connection points: 2
#     Edge 7, Type (0, 1), BuildingBlock: XIVTED_clean_linker_0, # of connection points: 2
#     Edge 8, Type (0, 1), BuildingBlock: XIVTED_clean_linker_0, # of connection points: 2
#     Edge 9, Type (0, 1), BuildingBlock: XIVTED_clean_linker_0, # of connection points: 2
#     Edge 10, Type (0, 1), BuildingBlock: XIVTED_clean_linker_0, # of connection points: 2
#     Edge 11, Type (0, 1), BuildingBlock: XIVTED_clean_linker_0, # of connection points: 2
#     Edge 12, Type (0, 1), BuildingBlock: XIVTED_clean_linker_0, # of connection points: 2
#     Edge 13, Type (0, 1), BuildingBlock: XIVTED_clean_linker_0, # of connection points: 2
#     Edge 14, Type (0, 1), BuildingBlock: XIVTED_clean_linker_0, # of connection points: 2
#     Edge 15, Type (0, 1), BuildingBlock: XIVTED_clean_linker_0, # of connection points: 2
#     Edge 16, Type (0, 1), BuildingBlock: XIVTED_clean_linker_0, # of connection points: 2
#     Edge 17, Type (0, 1), BuildingBlock: XIVTED_clean_linker_0, # of connection points: 2
# Relax obj value: 0.129
# Max RMSD: 0.156
# Mean RMSD: 0.119
data_MOF--net-tsx--node1-CIFDUS_clean_sbu_1--node2-MIDCAF_clean_linker_0--edge1-XIVTED_clean_linker_0
_symmetry_space_group_name_H-M    P1
_symmetry_Int_Tables_number       1
_symmetry_cell_setting            triclinic
loop_
_symmetry_equiv_pos_as_xyz
'x, y, z'
_cell_length_a     21.008469
_cell_length_b     27.39447
_cell_length_c     45.210038
_cell_angle_alpha  96.955183
_cell_angle_beta   93.698377
_cell_angle_gamma 92.051369
loop_
_atom_site_label
_atom_site_type_symbol
_atom_site_fract_x
_atom_site_fract_y
_atom_site_fract_z
_atom_type_partial_charge
O0 O 1.02327 0.10583 0.0111 0.0
Mn1 Mn 0.07174 0.03946 0.00671 0.0
O2 O 0.91848 0.0859 0.00365 0.0
Mn3 Mn 0.93145 0.02671 0.98122 0.0
O4 O 0.1212 0.97363 0.0025 0.0
O5 O 0.15418 0.0807 0.01112 0.0
Mn6 Mn 0.20749 0.0573 0.03709 0.0
O7 O 0.07156 0.03843 0.05302 0.0
O8 O 0.22163 -0.00651 0.02157 0.0
O9 O 0.06963 0.04005 0.96037 0.0
O10 O 0.96518 0.03121 0.94464 0.0
O11 O 0.25091 0.10976 0.02476 0.0
O12 O 0.16948 0.06427 0.07307 0.0
C13 C 0.94831 0.96242 0.00246 0.0
C14 C 0.96438 0.11714 0.01177 0.0
C15 C 0.17911 0.96222 0.00877 0.0
C16 C 0.19833 0.11401 0.00891 0.0
C17 C 0.11146 0.05133 0.07564 0.0
C18 C 1.02405 0.03686 0.93964 0.0
O19 O 0.98978 -0.00182 0.00193 0.0
O20 O 0.89332 0.96847 0.98914 0.0
O21 O 0.52226 0.60002 0.51162 0.0
Mn22 Mn 0.57111 0.53378 0.50796 0.0
O23 O 0.41753 0.57957 0.5046 0.0
Mn24 Mn 0.43042 0.51968 0.48291 0.0
O25 O 0.62085 0.46805 0.50449 0.0
O26 O 0.65349 0.57518 0.51189 0.0
Mn27 Mn 0.70625 0.55272 0.53855 0.0
O28 O 0.5708 0.53413 0.55434 0.0
O29 O 0.72067 0.48839 0.5242 0.0
O30 O 0.56847 0.53291 0.46148 0.0
O31 O 0.46389 0.52261 0.44612 0.0
O32 O 0.75029 0.60427 0.52564 0.0
O33 O 0.66807 0.56125 0.57446 0.0
C34 C 0.44869 0.45644 0.50503 0.0
C35 C 0.46329 0.61112 0.51227 0.0
C36 C 0.6785 0.45679 0.51146 0.0
C37 C 0.69803 0.60811 0.50945 0.0
C38 C 0.61017 0.54801 0.577 0.0
C39 C 0.5226 0.5284 0.44083 0.0
O40 O 0.48946 0.49237 0.50384 0.0
O41 O 0.39325 0.46173 0.49194 0.0
C42 C 0.84196 0.10268 0.43858 0.0
C43 C 0.85288 0.12196 0.46878 0.0
C44 C 0.90085 0.10178 0.48628 0.0
C45 C 0.9403 0.06618 0.47324 0.0
H46 H 0.06036 0.91672 0.47138 0.0
H47 H 0.14149 0.86885 0.49408 0.0
H48 H 0.28322 0.93091 0.44228 0.0
H49 H 0.20089 0.97601 0.4185 0.0
H50 H 0.09748 0.94367 0.34093 0.0
H51 H 0.10332 0.95223 0.2878 0.0
H52 H 0.98054 0.07531 0.2974 0.0
H53 H 0.974 0.06677 0.35008 0.0
H54 H 0.87302 0.05522 0.40192 0.0
H55 H 0.80593 0.11729 0.42428 0.0
H56 H 0.90977 0.11505 0.50979 0.0
H57 H 0.97907 0.05351 0.48691 0.0
N58 N 1.02649 -0.00272 0.44188 0.0
N59 N 0.0768 0.9769 0.39719 0.0
N60 N 0.98494 0.02256 0.39707 0.0
C61 C 0.07421 0.97494 0.42704 0.0
C62 C 0.03198 0.00052 0.38204 0.0
C63 C 0.9815 0.02122 0.42682 0.0
C64 C 0.12428 0.9497 0.44306 0.0
C65 C 0.10906 0.92037 0.4652 0.0
C66 C 0.15593 0.89309 0.4783 0.0
C67 C 0.21945 0.89529 0.46994 0.0
C68 C 0.23482 0.9268 0.44877 0.0
C69 C 0.18769 0.95306 0.43523 0.0
C70 C 0.03538 0.00454 0.34978 0.0
C71 C 0.07165 0.97245 0.33167 0.0
C72 C 0.07468 0.97712 0.30127 0.0
C73 C 0.04246 0.01449 0.2886 0.0
C74 C 1.00617 0.04641 0.30666 0.0
C75 C 1.00227 0.04129 0.33683 0.0
C76 C 0.93255 0.05019 0.44245 0.0
C77 C 0.88114 0.06726 0.42563 0.0
C78 C 0.88703 0.93031 0.55454 0.0
C79 C 0.89058 0.91737 0.52368 0.0
C80 C 0.94281 0.93632 0.50989 0.0
C81 C 0.99171 0.96553 0.52692 0.0
H82 H 0.14114 0.09028 0.53197 0.0
H83 H 0.21997 0.15056 0.51871 0.0
H84 H 0.33705 0.13419 0.59869 0.0
H85 H 0.25876 0.07494 0.61207 0.0
H86 H 0.18472 0.06145 0.66944 0.0
H87 H 0.18099 0.06348 0.72336 0.0
H88 H 1.00567 0.97399 0.71011 0.0
H89 H 1.0085 0.97251 0.65635 0.0
H90 H 0.93157 0.96672 0.5953 0.0
H91 H 0.84824 0.91604 0.56612 0.0
H92 H 0.94661 0.92757 0.48608 0.0
H93 H 0.0322 0.97834 0.51586 0.0
N94 N 0.09188 0.02646 0.56595 0.0
N95 N 0.1429 0.04425 0.61411 0.0
N96 N 0.04662 -0.0021 0.60722 0.0
C97 C 0.14168 0.04813 0.58441 0.0
C98 C 0.09576 0.01928 0.62574 0.0
C99 C 0.04408 0.00104 0.57738 0.0
C100 C 0.19295 0.07842 0.57335 0.0
C101 C 0.18423 0.09894 0.54641 0.0
C102 C 0.2295 0.1334 0.5388 0.0
C103 C 0.28431 0.1478 0.55794 0.0
C104 C 0.2947 0.12482 0.58382 0.0
C105 C 0.24971 0.09067 0.59143 0.0
C106 C 0.09647 0.01729 0.65844 0.0
C107 C 0.14552 0.0419 0.67796 0.0
C108 C 0.14369 0.04285 0.70891 0.0
C109 C 0.09274 0.01933 0.72103 0.0
C110 C 0.04499 -0.00673 0.70149 0.0
C111 C 0.04679 -0.00774 0.67061 0.0
C112 C 0.98955 0.9759 0.55809 0.0
C113 C 0.93562 0.95906 0.57144 0.0
C114 C 0.3363 0.60364 0.9397 0.0
C115 C 0.34926 0.62511 0.96939 0.0
C116 C 0.39827 0.60618 0.98691 0.0
C117 C 0.4369 0.56971 0.97423 0.0
H118 H 0.55571 0.41947 0.9737 0.0
H119 H 0.63736 0.37284 0.99698 0.0
H120 H 0.77821 0.43347 0.94412 0.0
H121 H 0.69527 0.47717 0.91971 0.0
H122 H 0.59111 0.44311 0.84247 0.0
H123 H 0.59718 0.4511 0.78928 0.0
H124 H 0.47436 0.57419 0.79825 0.0
H125 H 0.4675 0.56618 0.85099 0.0
H126 H 0.36533 0.55371 0.90364 0.0
H127 H 0.29932 0.61724 0.92543 0.0
H128 H 0.40875 0.62123 0.01006 0.0
H129 H 0.47664 0.55814 0.98779 0.0
N130 N 0.52112 0.49874 0.94334 0.0
N131 N 0.57088 0.47739 0.89863 0.0
N132 N 0.47878 0.52282 0.89834 0.0
C133 C 0.56869 0.47614 0.92856 0.0
C134 C 0.52574 0.50054 0.88335 0.0
C135 C 0.4758 0.52218 0.92817 0.0
C136 C 0.61909 0.45151 0.94477 0.0
C137 C 0.60431 0.42303 0.96737 0.0
C138 C 0.6515 0.39649 0.98082 0.0
C139 C 0.71497 0.39867 0.97238 0.0
C140 C 0.72988 0.42935 0.9507 0.0
C141 C 0.68239 0.45482 0.93679 0.0
C142 C 0.52893 0.50402 0.85101 0.0
C143 C 0.56526 0.47175 0.83306 0.0
C144 C 0.56844 0.47609 0.80262 0.0
C145 C 0.53633 0.51333 0.78977 0.0
C146 C 0.49988 0.54537 0.80766 0.0
C147 C 0.49581 0.54056 0.83786 0.0
C148 C 0.42732 0.55164 0.94377 0.0
C149 C 0.37478 0.56739 0.92708 0.0
C150 C 0.38632 0.43559 0.05663 0.0
C151 C 0.38892 0.42401 0.02562 0.0
C152 C 0.44047 0.44388 0.01178 0.0
C153 C 0.48962 0.47272 0.02887 0.0
H154 H 0.63891 0.59415 0.03279 0.0
H155 H 0.71648 0.65407 0.01825 0.0
H156 H 0.83065 0.64766 0.10051 0.0
H157 H 0.75352 0.58881 0.11519 0.0
H158 H 0.67766 0.57312 0.17215 0.0
H159 H 0.67438 0.57194 0.2259 0.0
H160 H 0.51554 0.46536 0.21044 0.0
H161 H 0.51769 0.4672 0.15693 0.0
H162 H 0.43179 0.47066 0.09753 0.0
H163 H 0.3481 0.42055 0.06824 0.0
H164 H 0.44351 0.43616 0.98786 0.0
H165 H 0.52958 0.48626 0.01774 0.0
N166 N 0.58956 0.53372 0.06807 0.0
N167 N 0.64145 0.55085 0.11609 0.0
N168 N 0.54662 0.50262 0.10908 0.0
C169 C 0.63918 0.55578 0.08649 0.0
C170 C 0.59558 0.52432 0.12759 0.0
C171 C 0.54296 0.50694 0.07938 0.0
C172 C 0.68928 0.58717 0.07537 0.0
C173 C 0.68098 0.60504 0.04757 0.0
C174 C 0.72559 0.63927 0.0392 0.0
C175 C 0.77936 0.65618 0.05844 0.0
C176 C 0.78911 0.63629 0.08547 0.0
C177 C 0.74476 0.60233 0.09382 0.0
C178 C 0.59736 0.52074 0.16013 0.0
C179 C 0.64228 0.54914 0.18018 0.0
C180 C 0.64071 0.54829 0.21102 0.0
C181 C 0.59426 0.519 0.22249 0.0
C182 C 0.5511 0.48915 0.20238 0.0
C183 C 0.5525 0.49008 0.17163 0.0
C184 C 0.48835 0.48183 0.06014 0.0
C185 C 0.43514 0.46399 0.07359 0.0
H186 H 0.26246 0.13529 0.96198 0.0
H187 H 0.25952 0.4138 0.03151 0.0
H188 H 0.12585 0.19275 0.02255 0.0
H189 H 0.41079 0.34831 0.98232 0.0
H190 H 0.19068 0.34065 0.01433 0.0
H191 H 0.29365 0.21915 0.95389 0.0
C192 C 0.23658 0.16559 0.97232 0.0
C193 C 0.19145 0.15724 0.99287 0.0
C194 C 0.23844 0.34276 0.00674 0.0
C195 C 0.22933 0.25345 0.98514 0.0
C196 C 0.27794 0.38448 0.01662 0.0
C197 C 0.34181 0.38676 0.00905 0.0
C198 C 0.26286 0.30289 0.98915 0.0
C199 C 0.36223 0.34821 0.98899 0.0
C200 C 0.25516 0.21357 0.96812 0.0
C201 C 0.16039 0.19773 0.00627 0.0
N202 N 0.32336 0.30752 0.98025 0.0
N203 N 0.18111 0.24427 0.00282 0.0
H204 H 0.10484 0.87744 0.98808 0.0
H205 H 0.40434 0.70666 0.00344 0.0
H206 H 0.2989 0.92888 0.01572 0.0
H207 H 0.22376 0.64988 0.95928 0.0
H208 H 0.35888 0.78644 0.01445 0.0
H209 H 0.14134 0.7925 0.9815 0.0
C210 C 0.1549 0.87106 0.9926 0.0
C211 C 0.19868 0.91059 0.00251 0.0
C212 C 0.32882 0.75653 0.00252 0.0
C213 C 0.24033 0.8139 0.99551 0.0
C214 C 0.35463 0.71056 0.99658 0.0
C215 C 0.31805 0.67127 0.98028 0.0
C216 C 0.26584 0.76378 0.99205 0.0
C217 C 0.25408 0.6793 0.97152 0.0
C218 C 0.17561 0.82263 0.98898 0.0
C219 C 0.26299 0.89996 0.00817 0.0
N220 N 0.23008 0.72477 0.97731 0.0
N221 N 0.28157 0.85294 0.00468 0.0
H222 H 0.94606 0.94533 0.06015 0.0
H223 H 0.82679 0.67012 0.00456 0.0
H224 H 0.96741 0.87451 0.97133 0.0
H225 H 0.83067 0.73509 0.09655 0.0
H226 H 0.89141 0.74086 0.99335 0.0
H227 H 0.92171 0.86491 0.07619 0.0
C228 C 0.94903 0.91245 0.04448 0.0
C229 C 0.96017 0.91615 0.01464 0.0
C230 C 0.8789 0.73931 0.01608 0.0
C231 C 0.92804 0.8245 0.03204 0.0
C232 C 0.84153 0.69909 0.02242 0.0
C233 C 0.82284 0.69674 0.05148 0.0
C234 C 0.89707 0.77786 0.03888 0.0
C235 C 0.84422 0.73507 0.07385 0.0
C236 C 0.93384 0.86658 0.05341 0.0
C237 C 0.96008 0.87283 0.99469 0.0
N238 N 0.87946 0.77422 0.06701 0.0
N239 N 0.94307 0.82884 0.00359 0.0
H240 H 1.01721 0.19518 0.98856 0.0
H241 H 0.72659 0.36653 0.02826 0.0
H242 H 0.86958 0.15571 0.04432 0.0
H243 H 0.81665 0.35712 0.94451 0.0
H244 H 0.8001 0.30656 0.04495 0.0
H245 H 0.96698 0.27388 0.98442 0.0
C246 C 0.97581 0.20399 0.00094 0.0
C247 C 0.94738 0.1691 0.01681 0.0
C248 C 0.8041 0.31844 0.02312 0.0
C249 C 0.88939 0.25821 0.01182 0.0
C250 C 0.76174 0.35233 0.01337 0.0
C251 C 0.76421 0.36682 0.98461 0.0
C252 C 0.85018 0.29946 0.00429 0.0
C253 C 0.81269 0.34795 0.96693 0.0
C254 C 0.94671 0.24852 -0.00175 0.0
C255 C 0.89279 0.18175 0.03185 0.0
N256 N 0.85336 0.31518 0.97699 0.0
N257 N 0.86516 0.22513 0.02877 0.0
H258 H 0.76379 0.62755 0.46264 0.0
H259 H 0.76083 0.90773 0.52889 0.0
H260 H 0.62541 0.68731 0.52155 0.0
H261 H 0.91328 0.84013 0.48155 0.0
H262 H 0.69198 0.8344 0.51217 0.0
H263 H 0.796 0.71083 0.45384 0.0
C264 C 0.73778 0.65821 0.47245 0.0
C265 C 0.69185 0.65069 0.49278 0.0
C266 C 0.74003 0.83607 0.50488 0.0
C267 C 0.73086 0.7463 0.48425 0.0
C268 C 0.77954 0.87789 0.5145 0.0
C269 C 0.8437 0.87969 0.50733 0.0
C270 C 0.76472 0.79561 0.48794 0.0
C271 C 0.86449 0.84045 0.48789 0.0
C272 C 0.75694 0.70587 0.46785 0.0
C273 C 0.66061 0.69164 0.50547 0.0
N274 N 0.82557 0.7997 0.47939 0.0
N275 N 0.68189 0.73788 0.50166 0.0
H276 H 0.60819 0.3733 0.48473 0.0
H277 H 0.90404 0.20106 0.50662 0.0
H278 H 0.79436 0.42179 0.52632 0.0
H279 H 0.72802 0.14689 0.45694 0.0
H280 H 0.85688 0.27976 0.51922 0.0
H281 H 0.64486 0.28848 0.47783 0.0
C282 C 0.65652 0.36629 0.49237 0.0
C283 C 0.69814 0.40503 0.506 0.0
C284 C 0.82816 0.25063 0.50574 0.0
C285 C 0.74005 0.3084 0.49849 0.0
C286 C 0.85493 0.20522 0.49884 0.0
C287 C 0.82028 0.16706 0.4805 0.0
C288 C 0.76618 0.25849 0.49413 0.0
C289 C 0.75704 0.17549 0.47069 0.0
C290 C 0.67736 0.31791 0.4885 0.0
C291 C 0.76027 0.39357 0.51556 0.0
N292 N 0.73219 0.22044 0.47738 0.0
N293 N 0.77906 0.34662 0.51162 0.0
H294 H 0.47869 0.37072 0.4744 0.0
H295 H 0.33674 0.22291 0.59857 0.0
H296 H 0.43912 0.43737 0.56205 0.0
H297 H 0.33064 0.16785 0.50482 0.0
H298 H 0.40139 0.29436 0.58899 0.0
H299 H 0.45516 0.28932 0.48938 0.0
C300 C 0.46813 0.36791 0.4973 0.0
C301 C 0.46201 0.41047 0.51728 0.0
C302 C 0.38663 0.26636 0.57057 0.0
C303 C 0.43203 0.31809 0.53413 0.0
C304 C 0.34989 0.22537 0.57601 0.0
C305 C 0.32785 0.18932 0.55241 0.0
C306 C 0.40172 0.27154 0.54131 0.0
C307 C 0.34576 0.19503 0.5236 0.0
C308 C 0.45366 0.32159 0.50568 0.0
C309 C 0.44595 0.40523 0.54632 0.0
N310 N 0.38132 0.23551 0.51883 0.0
N311 N 0.43057 0.35986 0.55379 0.0
H312 H 0.36905 0.64995 0.545 0.0
H313 H 0.32009 0.85361 0.44134 0.0
H314 H 0.51444 0.68868 0.48791 0.0
H315 H 0.23092 0.86115 0.52524 0.0
H316 H 0.39351 0.79524 0.45892 0.0
H317 H 0.32018 0.72867 0.54026 0.0
C318 C 0.39181 0.67585 0.53226 0.0
C319 C 0.44589 0.66303 0.5169 0.0
C320 C 0.3585 0.81027 0.47366 0.0
C321 C 0.38888 0.75207 0.51036 0.0
C322 C 0.31639 0.84399 0.4637 0.0
C323 C 0.2683 0.86263 0.48165 0.0
C324 C 0.35197 0.79387 0.50155 0.0
C325 C 0.26577 0.84713 0.51015 0.0
C326 C 0.36378 0.72064 0.52944 0.0
C327 C 0.47317 0.69749 0.50037 0.0
N328 N 0.30623 0.81311 0.519 0.0
N329 N 0.44346 0.74001 0.49692 0.0
H330 H 1.02965 0.98351 0.09459 0.0
H331 H 0.07126 0.09964 0.26585 0.0
H332 H 0.14984 0.11258 0.12601 0.0
H333 H 1.02574 0.94514 0.23931 0.0
H334 H 0.08078 0.11083 0.21339 0.0
H335 H 1.00742 0.97508 0.14651 0.0
C336 C 0.05018 0.01058 0.11236 0.0
C337 C 0.09135 0.04885 0.1061 0.0
C338 C 0.06855 0.07451 0.21905 0.0
C339 C 0.06669 0.03941 0.16519 0.0
C340 C 0.06291 0.06814 0.24891 0.0
C341 C 0.04791 0.02137 0.25685 0.0
C342 C 0.05823 0.03396 0.1969 0.0
C343 C 0.03798 0.98169 0.23407 0.0
C344 C 0.03813 0.00546 0.14192 0.0
C345 C 0.11797 0.08245 0.12995 0.0
N346 N 0.04308 0.9889 0.20504 0.0
N347 N 0.10508 0.07702 0.15844 0.0
H348 H 0.94112 0.05388 0.89379 0.0
H349 H 0.18692 0.01403 0.76591 0.0
H350 H 0.1394 0.02585 0.91355 0.0
H351 H 0.98572 0.03658 0.75096 0.0
H352 H 0.17439 0.02232 0.81996 0.0
H353 H 0.96073 0.0524 0.8416 0.0
C354 C 0.98905 0.04739 0.88717 0.0
C355 C 0.03854 0.03937 0.90818 0.0
C356 C 0.13312 0.02542 0.80478 0.0
C357 C 0.06145 0.03751 0.84773 0.0
C358 C 0.14023 0.02084 0.77398 0.0
C359 C 0.08712 0.02411 0.75384 0.0
C360 C 0.07258 0.03364 0.81543 0.0
C361 C 1.02775 0.03277 0.76551 0.0
C362 C 1.00024 0.0466 0.8572 0.0
C363 C 0.09979 0.032 0.89811 0.0
N364 N 1.02219 0.03717 0.79541 0.0
N365 N 0.10949 0.03087 0.86848 0.0
H366 H 0.52479 0.48241 0.59574 0.0
H367 H 0.56646 0.59815 0.76697 0.0
H368 H 0.65047 0.60831 0.62757 0.0
H369 H 0.51936 0.44385 0.74056 0.0
H370 H 0.57727 0.60895 0.71452 0.0
H371 H 0.50146 0.47455 0.6476 0.0
C372 C 0.54648 0.50887 0.61358 0.0
C373 C 0.58958 0.54602 0.60745 0.0
C374 C 0.56439 0.57277 0.72021 0.0
C375 C 0.5633 0.53734 0.66645 0.0
C376 C 0.55801 0.56663 0.75006 0.0
C377 C 0.54223 0.52001 0.75802 0.0
C378 C 0.55395 0.53217 0.6981 0.0
C379 C 0.53218 0.48028 0.73529 0.0
C380 C 0.53368 0.50409 0.6431 0.0
C381 C 0.61721 0.57898 0.63139 0.0
N382 N 0.53796 0.48727 0.70627 0.0
N383 N 0.60351 0.57394 0.65983 0.0
H384 H 0.43646 0.52921 0.39332 0.0
H385 H 0.68925 0.52312 0.26813 0.0
H386 H 0.63971 0.53042 0.41563 0.0
H387 H 0.48452 0.52186 0.25152 0.0
H388 H 0.67521 0.52771 0.32197 0.0
H389 H 0.45635 0.52838 0.34134 0.0
C390 C 0.48558 0.52929 0.38736 0.0
C391 C 0.53649 0.52956 0.40912 0.0
C392 C 0.63352 0.52634 0.30646 0.0
C393 C 0.55974 0.5286 0.34871 0.0
C394 C 0.64145 0.52389 0.27577 0.0
C395 C 0.58791 0.52157 0.25521 0.0
C396 C 0.57166 0.52675 0.31656 0.0
C397 C 0.52716 0.52248 0.26636 0.0
C398 C 0.4969 0.52885 0.35744 0.0
C399 C 0.59897 0.53008 0.39966 0.0
N400 N 0.52083 0.52495 0.29614 0.0
N401 N 0.6089 0.5294 0.37007 0.0
loop_
_geom_bond_atom_site_label_1
_geom_bond_atom_site_label_2
_geom_bond_distance
_geom_bond_site_symmetry_2
_ccdc_geom_bond_type
O0 Mn1 2.163 . S
O0 C14 1.244 1_455 S
Mn1 O0 2.163 . S
Mn1 O4 2.160 1_544 S
Mn1 O5 2.221 . S
Mn1 O7 2.163 . S
Mn1 O9 2.160 1_554 S
Mn1 O19 2.221 1_444 S
O2 Mn3 2.087 . S
O2 C14 1.256 1_556 S
Mn3 O2 2.087 . S
Mn3 O10 2.089 . S
Mn3 O19 2.290 1_545 S
Mn3 O20 2.233 1_546 S
O4 Mn1 2.160 1_566 S
O4 C15 1.239 1_556 S
O5 Mn1 2.221 . S
O5 Mn6 2.290 . S
O5 C16 1.278 . S
Mn6 O5 2.290 . S
Mn6 O8 2.089 1_545 S
Mn6 O11 2.251 . S
Mn6 O12 2.087 . S
O7 Mn1 2.163 . S
O7 C17 1.244 . S
O8 Mn6 2.089 1_565 S
O8 C15 1.256 . S
O9 Mn1 2.160 1_556 S
O9 C18 1.239 . S
O10 Mn3 2.089 . S
O10 C18 1.256 1_655 S
O11 Mn6 2.251 . S
O11 C16 1.241 . S
O12 Mn6 2.087 . S
O12 C17 1.256 . S
C13 O19 1.278 1_554 S
C13 O20 1.246 . S
C14 O0 1.244 1_655 S
C14 O2 1.256 1_554 S
C15 O4 1.239 1_554 S
C15 O8 1.256 . S
C16 O5 1.278 . S
C16 O11 1.241 . S
C17 O7 1.244 . S
C17 O12 1.256 . S
C18 O9 1.239 . S
C18 O10 1.256 1_455 S
O19 Mn1 2.221 1_666 S
O19 Mn3 2.290 1_565 S
O19 C13 1.278 1_556 S
O20 Mn3 2.233 1_564 S
O20 C13 1.246 . S
O21 Mn22 2.163 . S
O21 C35 1.244 . S
Mn22 O21 2.163 . S
Mn22 O25 2.160 . S
Mn22 O26 2.221 . S
Mn22 O28 2.163 . S
Mn22 O30 2.160 . S
Mn22 O40 2.221 . S
O23 Mn24 2.087 . S
O23 C35 1.256 . S
Mn24 O23 2.087 . S
Mn24 O31 2.089 . S
Mn24 O40 2.290 . S
Mn24 O41 2.251 . S
O25 Mn22 2.160 . S
O25 C36 1.239 . S
O26 Mn22 2.221 . S
O26 Mn27 2.290 . S
O26 C37 1.278 . S
Mn27 O26 2.290 . S
Mn27 O29 2.089 . S
Mn27 O32 2.251 . S
Mn27 O33 2.087 . S
O28 Mn22 2.163 . S
O28 C38 1.244 . S
O29 Mn27 2.089 . S
O29 C36 1.256 . S
O30 Mn22 2.160 . S
O30 C39 1.239 . S
O31 Mn24 2.089 . S
O31 C39 1.256 . S
O32 Mn27 2.251 . S
O32 C37 1.241 . S
O33 Mn27 2.087 . S
O33 C38 1.256 . S
C34 O40 1.278 . S
C34 O41 1.241 . S
C35 O21 1.244 . S
C35 O23 1.256 . S
C36 O25 1.239 . S
C36 O29 1.256 . S
C37 O26 1.278 . S
C37 O32 1.241 . S
C38 O28 1.244 . S
C38 O33 1.256 . S
C39 O30 1.239 . S
C39 O31 1.256 . S
O40 Mn22 2.221 . S
O40 Mn24 2.290 . S
O40 C34 1.278 . S
O41 Mn24 2.251 . S
O41 C34 1.241 . S
C42 C43 1.384 . S
C42 H55 0.947 . S
C42 C77 1.382 . S
C43 C42 1.384 . S
C43 C44 1.378 . S
C44 C43 1.378 . S
C44 C45 1.378 . S
C44 H56 0.952 . S
C45 C44 1.378 . S
C45 H57 0.950 1_655 S
C45 C76 1.383 . S
H46 C65 0.947 . S
H47 C66 0.946 . S
H48 C68 0.953 . S
H49 C69 0.945 . S
H50 C71 0.952 . S
H51 C72 0.949 . S
H52 C74 0.950 . S
H53 C75 0.948 . S
H54 C77 0.951 . S
H55 C42 0.947 . S
H56 C44 0.952 . S
H57 C45 0.950 1_455 S
N58 C61 1.382 1_545 S
N58 C63 1.363 . S
N59 C61 1.371 . S
N59 C62 1.372 1_565 S
N60 C62 1.361 . S
N60 C63 1.377 . S
C61 N58 1.382 1_565 S
C61 N59 1.371 . S
C61 C64 1.480 . S
C62 N59 1.372 1_545 S
C62 N60 1.361 . S
C62 C70 1.457 . S
C63 N58 1.363 . S
C63 N60 1.377 . S
C63 C76 1.479 1_455 S
C64 C61 1.480 . S
C64 C65 1.383 . S
C64 C69 1.385 . S
C65 H46 0.947 . S
C65 C64 1.383 . S
C65 C66 1.388 . S
C66 H47 0.946 . S
C66 C65 1.388 . S
C66 C67 1.384 . S
C67 C66 1.384 . S
C67 C68 1.377 . S
C68 H48 0.953 . S
C68 C67 1.377 . S
C68 C69 1.369 . S
C69 H49 0.945 . S
C69 C64 1.385 . S
C69 C68 1.369 . S
C70 C62 1.457 . S
C70 C71 1.372 1_545 S
C70 C75 1.364 . S
C71 H50 0.952 . S
C71 C70 1.372 1_565 S
C71 C72 1.389 . S
C72 H51 0.949 . S
C72 C71 1.389 . S
C72 C73 1.387 . S
C73 C72 1.387 . S
C73 C74 1.372 1_565 S
C74 H52 0.950 . S
C74 C73 1.372 1_545 S
C74 C75 1.379 . S
C75 H53 0.948 . S
C75 C70 1.364 . S
C75 C74 1.379 . S
C76 C45 1.383 . S
C76 C63 1.479 1_655 S
C76 C77 1.398 . S
C77 C42 1.382 . S
C77 H54 0.951 . S
C77 C76 1.398 . S
C78 C79 1.384 . S
C78 H91 0.947 . S
C78 C113 1.382 . S
C79 C78 1.384 . S
C79 C80 1.378 . S
C80 C79 1.378 . S
C80 C81 1.378 . S
C80 H92 0.952 . S
C81 C80 1.378 . S
C81 H93 0.950 1_565 S
C81 C112 1.383 1_565 S
H82 C101 0.947 . S
H83 C102 0.946 . S
H84 C104 0.953 . S
H85 C105 0.945 . S
H86 C107 0.952 . S
H87 C108 0.949 . S
H88 C110 0.950 . S
H89 C111 0.948 . S
H90 C113 0.951 . S
H91 C78 0.947 . S
H92 C80 0.952 . S
H93 C81 0.950 1_545 S
N94 C97 1.382 . S
N94 C99 1.363 1_455 S
N95 C97 1.371 . S
N95 C98 1.372 . S
N96 C98 1.361 1_655 S
N96 C99 1.377 . S
C97 N94 1.382 . S
C97 N95 1.371 . S
C97 C100 1.480 . S
C98 N95 1.372 . S
C98 N96 1.361 1_455 S
C98 C106 1.457 . S
C99 N94 1.363 1_655 S
C99 N96 1.377 . S
C99 C112 1.479 . S
C100 C97 1.480 . S
C100 C101 1.383 . S
C100 C105 1.385 . S
C101 H82 0.947 . S
C101 C100 1.383 . S
C101 C102 1.388 . S
C102 H83 0.946 . S
C102 C101 1.388 . S
C102 C103 1.384 . S
C103 C102 1.384 . S
C103 C104 1.377 . S
C104 H84 0.953 . S
C104 C103 1.377 . S
C104 C105 1.369 . S
C105 H85 0.945 . S
C105 C100 1.385 . S
C105 C104 1.369 . S
C106 C98 1.457 . S
C106 C107 1.372 . S
C106 C111 1.364 1_455 S
C107 H86 0.952 . S
C107 C106 1.372 . S
C107 C108 1.389 . S
C108 H87 0.949 . S
C108 C107 1.389 . S
C108 C109 1.387 . S
C109 C108 1.387 . S
C109 C110 1.372 1_455 S
C110 H88 0.950 . S
C110 C109 1.372 1_655 S
C110 C111 1.379 . S
C111 H89 0.948 . S
C111 C106 1.364 1_655 S
C111 C110 1.379 . S
C112 C81 1.383 1_545 S
C112 C99 1.479 . S
C112 C113 1.398 1_545 S
C113 C78 1.382 . S
C113 H90 0.951 . S
C113 C112 1.398 1_565 S
C114 C115 1.384 . S
C114 H127 0.947 . S
C114 C149 1.382 . S
C115 C114 1.384 . S
C115 C116 1.378 . S
C116 C115 1.378 . S
C116 C117 1.378 . S
C116 H128 0.952 1_556 S
C117 C116 1.378 . S
C117 H129 0.950 . S
C117 C148 1.383 . S
H118 C137 0.947 . S
H119 C138 0.946 1_554 S
H120 C140 0.953 . S
H121 C141 0.945 . S
H122 C143 0.952 . S
H123 C144 0.949 . S
H124 C146 0.950 . S
H125 C147 0.948 . S
H126 C149 0.951 . S
H127 C114 0.947 . S
H128 C116 0.952 1_554 S
H129 C117 0.950 . S
N130 C133 1.382 . S
N130 C135 1.363 . S
N131 C133 1.371 . S
N131 C134 1.372 . S
N132 C134 1.361 . S
N132 C135 1.377 . S
C133 N130 1.382 . S
C133 N131 1.371 . S
C133 C136 1.480 . S
C134 N131 1.372 . S
C134 N132 1.361 . S
C134 C142 1.457 . S
C135 N130 1.363 . S
C135 N132 1.377 . S
C135 C148 1.479 . S
C136 C133 1.480 . S
C136 C137 1.383 . S
C136 C141 1.385 . S
C137 H118 0.947 . S
C137 C136 1.383 . S
C137 C138 1.388 . S
C138 H119 0.946 1_556 S
C138 C137 1.388 . S
C138 C139 1.384 . S
C139 C138 1.384 . S
C139 C140 1.377 . S
C140 H120 0.953 . S
C140 C139 1.377 . S
C140 C141 1.369 . S
C141 H121 0.945 . S
C141 C136 1.385 . S
C141 C140 1.369 . S
C142 C134 1.457 . S
C142 C143 1.372 . S
C142 C147 1.364 . S
C143 H122 0.952 . S
C143 C142 1.372 . S
C143 C144 1.389 . S
C144 H123 0.949 . S
C144 C143 1.389 . S
C144 C145 1.387 . S
C145 C144 1.387 . S
C145 C146 1.372 . S
C146 H124 0.950 . S
C146 C145 1.372 . S
C146 C147 1.379 . S
C147 H125 0.948 . S
C147 C142 1.364 . S
C147 C146 1.379 . S
C148 C117 1.383 . S
C148 C135 1.479 . S
C148 C149 1.398 . S
C149 C114 1.382 . S
C149 H126 0.951 . S
C149 C148 1.398 . S
C150 C151 1.384 . S
C150 H163 0.947 . S
C150 C185 1.382 . S
C151 C150 1.384 . S
C151 C152 1.378 . S
C152 C151 1.378 . S
C152 C153 1.378 . S
C152 H164 0.933 1_554 S
C153 C152 1.378 . S
C153 H165 0.950 . S
C153 C184 1.383 . S
H154 C173 0.947 . S
H155 C174 0.946 . S
H156 C176 0.953 . S
H157 C177 0.945 . S
H158 C179 0.952 . S
H159 C180 0.949 . S
H160 C182 0.950 . S
H161 C183 0.948 . S
H162 C185 0.951 . S
H163 C150 0.947 . S
H164 C152 0.933 1_556 S
H165 C153 0.950 . S
N166 C169 1.382 . S
N166 C171 1.363 . S
N167 C169 1.371 . S
N167 C170 1.372 . S
N168 C170 1.361 . S
N168 C171 1.377 . S
C169 N166 1.382 . S
C169 N167 1.371 . S
C169 C172 1.480 . S
C170 N167 1.372 . S
C170 N168 1.361 . S
C170 C178 1.457 . S
C171 N166 1.363 . S
C171 N168 1.377 . S
C171 C184 1.479 . S
C172 C169 1.480 . S
C172 C173 1.383 . S
C172 C177 1.385 . S
C173 H154 0.947 . S
C173 C172 1.383 . S
C173 C174 1.388 . S
C174 H155 0.946 . S
C174 C173 1.388 . S
C174 C175 1.384 . S
C175 C174 1.384 . S
C175 C176 1.377 . S
C176 H156 0.953 . S
C176 C175 1.377 . S
C176 C177 1.369 . S
C177 H157 0.945 . S
C177 C172 1.385 . S
C177 C176 1.369 . S
C178 C170 1.457 . S
C178 C179 1.372 . S
C178 C183 1.364 . S
C179 H158 0.952 . S
C179 C178 1.372 . S
C179 C180 1.389 . S
C180 H159 0.949 . S
C180 C179 1.389 . S
C180 C181 1.387 . S
C181 C180 1.387 . S
C181 C182 1.372 . S
C182 H160 0.950 . S
C182 C181 1.372 . S
C182 C183 1.379 . S
C183 H161 0.948 . S
C183 C178 1.364 . S
C183 C182 1.379 . S
C184 C153 1.383 . S
C184 C171 1.479 . S
C184 C185 1.398 . S
C185 C150 1.382 . S
C185 H162 0.951 . S
C185 C184 1.398 . S
H186 C192 0.930 . S
H187 C196 0.930 . S
H188 C201 0.929 . S
H189 C199 0.929 . S
H190 C194 0.929 . S
H191 C200 0.929 . S
C192 H186 0.930 . S
C192 C193 1.367 1_556 S
C192 C200 1.378 . S
C193 C192 1.367 1_554 S
C193 C201 1.433 . S
C194 H190 0.929 . S
C194 C196 1.378 . S
C194 C198 1.350 . S
C195 C198 1.463 . S
C195 C200 1.350 1_554 S
C195 N203 1.427 . S
C196 H187 0.930 . S
C196 C194 1.378 . S
C196 C197 1.367 . S
C197 C196 1.367 . S
C197 C199 1.433 1_554 S
C198 C194 1.350 . S
C198 C195 1.463 . S
C198 N202 1.427 1_554 S
C199 H189 0.929 . S
C199 C197 1.433 1_556 S
C199 N202 1.384 . S
C200 H191 0.929 . S
C200 C192 1.378 . S
C200 C195 1.350 1_556 S
C201 H188 0.929 . S
C201 C193 1.433 . S
C201 N203 1.384 . S
N202 C198 1.427 1_556 S
N202 C199 1.384 . S
N203 C195 1.427 . S
N203 C201 1.384 . S
H204 C210 0.930 . S
H205 C214 0.930 . S
H206 C219 0.929 . S
H207 C217 0.929 . S
H208 C212 0.929 . S
H209 C218 0.929 . S
C210 H204 0.930 . S
C210 C211 1.367 . S
C210 C218 1.378 . S
C211 C210 1.367 . S
C211 C219 1.433 1_554 S
C212 H208 0.929 . S
C212 C214 1.378 . S
C212 C216 1.350 . S
C213 C216 1.463 1_554 S
C213 C218 1.350 . S
C213 N221 1.427 1_554 S
C214 H205 0.930 . S
C214 C212 1.378 . S
C214 C215 1.367 . S
C215 C214 1.367 . S
C215 C217 1.433 1_556 S
C216 C212 1.350 . S
C216 C213 1.463 1_556 S
C216 N220 1.427 1_556 S
C217 H207 0.929 . S
C217 C215 1.433 1_554 S
C217 N220 1.384 . S
C218 H209 0.929 . S
C218 C210 1.378 . S
C218 C213 1.350 . S
C219 H206 0.929 . S
C219 C211 1.433 1_556 S
C219 N221 1.384 . S
N220 C216 1.427 1_554 S
N220 C217 1.384 . S
N221 C213 1.427 1_556 S
N221 C219 1.384 . S
H222 C228 0.930 . S
H223 C232 0.930 1_556 S
H224 C237 0.929 . S
H225 C235 0.929 . S
H226 C230 0.929 1_556 S
H227 C236 0.929 . S
C228 H222 0.930 . S
C228 C229 1.367 . S
C228 C236 1.378 . S
C229 C228 1.367 . S
C229 C237 1.433 1_554 S
C230 H226 0.929 1_554 S
C230 C232 1.378 . S
C230 C234 1.350 . S
C231 C234 1.463 . S
C231 C236 1.350 . S
C231 N239 1.427 1_554 S
C232 H223 0.930 1_554 S
C232 C230 1.378 . S
C232 C233 1.367 . S
C233 C232 1.367 . S
C233 C235 1.433 . S
C234 C230 1.350 . S
C234 C231 1.463 . S
C234 N238 1.427 . S
C235 H225 0.929 . S
C235 C233 1.433 . S
C235 N238 1.384 . S
C236 H227 0.929 . S
C236 C228 1.378 . S
C236 C231 1.350 . S
C237 H224 0.929 . S
C237 C229 1.433 1_556 S
C237 N239 1.384 . S
N238 C234 1.427 . S
N238 C235 1.384 . S
N239 C231 1.427 1_556 S
N239 C237 1.384 . S
H240 C246 0.930 . S
H241 C250 0.930 . S
H242 C255 0.929 . S
H243 C253 0.929 . S
H244 C248 0.929 . S
H245 C254 0.929 . S
C246 H240 0.930 . S
C246 C247 1.367 1_556 S
C246 C254 1.378 . S
C247 C246 1.367 1_554 S
C247 C255 1.433 . S
C248 H244 0.929 . S
C248 C250 1.378 . S
C248 C252 1.350 1_554 S
C249 C252 1.463 . S
C249 C254 1.350 . S
C249 N257 1.427 1_556 S
C250 H241 0.930 . S
C250 C248 1.378 . S
C250 C251 1.367 1_554 S
C251 C250 1.367 1_556 S
C251 C253 1.433 . S
C252 C248 1.350 1_556 S
C252 C249 1.463 . S
C252 N256 1.427 . S
C253 H243 0.929 . S
C253 C251 1.433 . S
C253 N256 1.384 . S
C254 H245 0.929 . S
C254 C246 1.378 . S
C254 C249 1.350 . S
C255 H242 0.929 . S
C255 C247 1.433 . S
C255 N257 1.384 . S
N256 C252 1.427 . S
N256 C253 1.384 . S
N257 C249 1.427 1_554 S
N257 C255 1.384 . S
H258 C264 0.930 . S
H259 C268 0.930 . S
H260 C273 0.929 . S
H261 C271 0.929 . S
H262 C266 0.929 . S
H263 C272 0.929 . S
C264 H258 0.930 . S
C264 C265 1.367 . S
C264 C272 1.378 . S
C265 C264 1.367 . S
C265 C273 1.433 . S
C266 H262 0.929 . S
C266 C268 1.378 . S
C266 C270 1.350 . S
C267 C270 1.463 . S
C267 C272 1.350 . S
C267 N275 1.427 . S
C268 H259 0.930 . S
C268 C266 1.378 . S
C268 C269 1.367 . S
C269 C268 1.367 . S
C269 C271 1.433 . S
C270 C266 1.350 . S
C270 C267 1.463 . S
C270 N274 1.427 . S
C271 H261 0.929 . S
C271 C269 1.433 . S
C271 N274 1.384 . S
C272 H263 0.929 . S
C272 C264 1.378 . S
C272 C267 1.350 . S
C273 H260 0.929 . S
C273 C265 1.433 . S
C273 N275 1.384 . S
N274 C270 1.427 . S
N274 C271 1.384 . S
N275 C267 1.427 . S
N275 C273 1.384 . S
H276 C282 0.930 . S
H277 C286 0.930 . S
H278 C291 0.929 . S
H279 C289 0.929 . S
H280 C284 0.929 . S
H281 C290 0.929 . S
C282 H276 0.930 . S
C282 C283 1.367 . S
C282 C290 1.378 . S
C283 C282 1.367 . S
C283 C291 1.433 . S
C284 H280 0.929 . S
C284 C286 1.378 . S
C284 C288 1.350 . S
C285 C288 1.463 . S
C285 C290 1.350 . S
C285 N293 1.427 . S
C286 H277 0.930 . S
C286 C284 1.378 . S
C286 C287 1.367 . S
C287 C286 1.367 . S
C287 C289 1.433 . S
C288 C284 1.350 . S
C288 C285 1.463 . S
C288 N292 1.427 . S
C289 H279 0.929 . S
C289 C287 1.433 . S
C289 N292 1.384 . S
C290 H281 0.929 . S
C290 C282 1.378 . S
C290 C285 1.350 . S
C291 H278 0.929 . S
C291 C283 1.433 . S
C291 N293 1.384 . S
N292 C288 1.427 . S
N292 C289 1.384 . S
N293 C285 1.427 . S
N293 C291 1.384 . S
H294 C300 0.930 . S
H295 C304 0.930 . S
H296 C309 0.929 . S
H297 C307 0.929 . S
H298 C302 0.929 . S
H299 C308 0.929 . S
C300 H294 0.930 . S
C300 C301 1.367 . S
C300 C308 1.378 . S
C301 C300 1.367 . S
C301 C309 1.433 . S
C302 H298 0.929 . S
C302 C304 1.378 . S
C302 C306 1.350 . S
C303 C306 1.463 . S
C303 C308 1.350 . S
C303 N311 1.427 . S
C304 H295 0.930 . S
C304 C302 1.378 . S
C304 C305 1.367 . S
C305 C304 1.367 . S
C305 C307 1.433 . S
C306 C302 1.350 . S
C306 C303 1.463 . S
C306 N310 1.427 . S
C307 H297 0.929 . S
C307 C305 1.433 . S
C307 N310 1.384 . S
C308 H299 0.929 . S
C308 C300 1.378 . S
C308 C303 1.350 . S
C309 H296 0.929 . S
C309 C301 1.433 . S
C309 N311 1.384 . S
N310 C306 1.427 . S
N310 C307 1.384 . S
N311 C303 1.427 . S
N311 C309 1.384 . S
H312 C318 0.930 . S
H313 C322 0.930 . S
H314 C327 0.929 . S
H315 C325 0.929 . S
H316 C320 0.929 . S
H317 C326 0.929 . S
C318 H312 0.930 . S
C318 C319 1.367 . S
C318 C326 1.378 . S
C319 C318 1.367 . S
C319 C327 1.433 . S
C320 H316 0.929 . S
C320 C322 1.378 . S
C320 C324 1.350 . S
C321 C324 1.463 . S
C321 C326 1.350 . S
C321 N329 1.427 . S
C322 H313 0.930 . S
C322 C320 1.378 . S
C322 C323 1.367 . S
C323 C322 1.367 . S
C323 C325 1.433 . S
C324 C320 1.350 . S
C324 C321 1.463 . S
C324 N328 1.427 . S
C325 H315 0.929 . S
C325 C323 1.433 . S
C325 N328 1.384 . S
C326 H317 0.929 . S
C326 C318 1.378 . S
C326 C321 1.350 . S
C327 H314 0.929 . S
C327 C319 1.433 . S
C327 N329 1.384 . S
N328 C324 1.427 . S
N328 C325 1.384 . S
N329 C321 1.427 . S
N329 C327 1.384 . S
H330 C336 0.930 1_655 S
H331 C340 0.930 . S
H332 C345 0.929 . S
H333 C343 0.929 1_655 S
H334 C338 0.929 . S
H335 C344 0.929 1_655 S
C336 H330 0.930 1_455 S
C336 C337 1.367 1_565 S
C336 C344 1.378 . S
C337 C336 1.367 1_545 S
C337 C345 1.433 . S
C338 H334 0.929 . S
C338 C340 1.378 . S
C338 C342 1.350 . S
C339 C342 1.463 . S
C339 C344 1.350 1_545 S
C339 N347 1.427 . S
C340 H331 0.930 . S
C340 C338 1.378 . S
C340 C341 1.367 1_545 S
C341 C340 1.367 1_565 S
C341 C343 1.433 . S
C342 C338 1.350 . S
C342 C339 1.463 . S
C342 N346 1.427 1_545 S
C343 H333 0.929 1_455 S
C343 C341 1.433 . S
C343 N346 1.384 . S
C344 H335 0.929 1_455 S
C344 C336 1.378 . S
C344 C339 1.350 1_565 S
C345 H332 0.929 . S
C345 C337 1.433 . S
C345 N347 1.384 . S
N346 C342 1.427 1_565 S
N346 C343 1.384 . S
N347 C339 1.427 . S
N347 C345 1.384 . S
H348 C354 0.930 . S
H349 C358 0.930 . S
H350 C363 0.929 . S
H351 C361 0.929 . S
H352 C356 0.929 . S
H353 C362 0.929 . S
C354 H348 0.930 . S
C354 C355 1.367 1_655 S
C354 C362 1.378 . S
C355 C354 1.367 1_455 S
C355 C363 1.433 . S
C356 H352 0.929 . S
C356 C358 1.378 . S
C356 C360 1.350 . S
C357 C360 1.463 . S
C357 C362 1.350 1_455 S
C357 N365 1.427 . S
C358 H349 0.930 . S
C358 C356 1.378 . S
C358 C359 1.367 . S
C359 C358 1.367 . S
C359 C361 1.433 1_455 S
C360 C356 1.350 . S
C360 C357 1.463 . S
C360 N364 1.427 1_455 S
C361 H351 0.929 . S
C361 C359 1.433 1_655 S
C361 N364 1.384 . S
C362 H353 0.929 . S
C362 C354 1.378 . S
C362 C357 1.350 1_655 S
C363 H350 0.929 . S
C363 C355 1.433 . S
C363 N365 1.384 . S
N364 C360 1.427 1_655 S
N364 C361 1.384 . S
N365 C357 1.427 . S
N365 C363 1.384 . S
H366 C372 0.930 . S
H367 C376 0.930 . S
H368 C381 0.929 . S
H369 C379 0.929 . S
H370 C374 0.929 . S
H371 C380 0.929 . S
C372 H366 0.930 . S
C372 C373 1.367 . S
C372 C380 1.378 . S
C373 C372 1.367 . S
C373 C381 1.433 . S
C374 H370 0.929 . S
C374 C376 1.378 . S
C374 C378 1.350 . S
C375 C378 1.463 . S
C375 C380 1.350 . S
C375 N383 1.427 . S
C376 H367 0.930 . S
C376 C374 1.378 . S
C376 C377 1.367 . S
C377 C376 1.367 . S
C377 C379 1.433 . S
C378 C374 1.350 . S
C378 C375 1.463 . S
C378 N382 1.427 . S
C379 H369 0.929 . S
C379 C377 1.433 . S
C379 N382 1.384 . S
C380 H371 0.929 . S
C380 C372 1.378 . S
C380 C375 1.350 . S
C381 H368 0.929 . S
C381 C373 1.433 . S
C381 N383 1.384 . S
N382 C378 1.427 . S
N382 C379 1.384 . S
N383 C375 1.427 . S
N383 C381 1.384 . S
H384 C390 0.930 . S
H385 C394 0.930 . S
H386 C399 0.929 . S
H387 C397 0.929 . S
H388 C392 0.929 . S
H389 C398 0.929 . S
C390 H384 0.930 . S
C390 C391 1.367 . S
C390 C398 1.378 . S
C391 C390 1.367 . S
C391 C399 1.433 . S
C392 H388 0.929 . S
C392 C394 1.378 . S
C392 C396 1.350 . S
C393 C396 1.463 . S
C393 C398 1.350 . S
C393 N401 1.427 . S
C394 H385 0.930 . S
C394 C392 1.378 . S
C394 C395 1.367 . S
C395 C394 1.367 . S
C395 C397 1.433 . S
C396 C392 1.350 . S
C396 C393 1.463 . S
C396 N400 1.427 . S
C397 H387 0.929 . S
C397 C395 1.433 . S
C397 N400 1.384 . S
C398 H389 0.929 . S
C398 C390 1.378 . S
C398 C393 1.350 . S
C399 H386 0.929 . S
C399 C391 1.433 . S
C399 N401 1.384 . S
N400 C396 1.427 . S
N400 C397 1.384 . S
N401 C393 1.427 . S
N401 C399 1.384 . S
C197 C151 1.464 . S
C193 C16 1.347 . S
C211 C15 1.537 . S
C215 C115 1.519 . S
C229 C13 1.297 . S
C233 C175 1.459 . S
C247 C14 1.332 . S
C251 C139 1.363 . S
C265 C37 1.338 . S
C269 C79 1.470 . S
C283 C36 1.538 . S
C287 C43 1.519 . S
C305 C103 1.449 . S
C301 C34 1.285 . S
C323 C67 1.356 . S
C319 C35 1.346 . S
C337 C17 1.524 . S
C341 C73 1.549 . S
C355 C18 1.379 . S
C359 C109 1.422 . S
C377 C145 1.549 . S
C373 C38 1.521 . S
C391 C39 1.380 . S
C395 C181 1.422 . S
