# Generated by pormake.
# Topology anh, (6,3)-cn, num edge types: 1
# Building blocks:
#     Node 0, Type 0, BuildingBlock: BETDEL_clean_sbu_0, # of connection points: 6
#     Node 1, Type 0, BuildingBlock: BETDEL_clean_sbu_0, # of connection points: 6
#     Node 2, Type 0, BuildingBlock: BETDEL_clean_sbu_0, # of connection points: 6
#     Node 3, Type 1, BuildingBlock: BETDIP_clean_linker_0, # of connection points: 3
#     Node 4, Type 1, BuildingBlock: BETDIP_clean_linker_0, # of connection points: 3
#     Node 5, Type 1, BuildingBlock: BETDIP_clean_linker_0, # of connection points: 3
#     Node 6, Type 1, BuildingBlock: BETDIP_clean_linker_0, # of connection points: 3
#     Node 7, Type 1, BuildingBlock: BETDIP_clean_linker_0, # of connection points: 3
#     Node 8, Type 1, BuildingBlock: BETDIP_clean_linker_0, # of connection points: 3
#     Edge 9, Type (0, 1), BuildingBlock: XIVTED_clean_linker_0, # of connection points: 2
#     Edge 10, Type (0, 1), BuildingBlock: XIVTED_clean_linker_0, # of connection points: 2
#     Edge 11, Type (0, 1), BuildingBlock: XIVTED_clean_linker_0, # of connection points: 2
#     Edge 12, Type (0, 1), BuildingBlock: XIVTED_clean_linker_0, # of connection points: 2
#     Edge 13, Type (0, 1), BuildingBlock: XIVTED_clean_linker_0, # of connection points: 2
#     Edge 14, Type (0, 1), BuildingBlock: XIVTED_clean_linker_0, # of connection points: 2
#     Edge 15, Type (0, 1), BuildingBlock: XIVTED_clean_linker_0, # of connection points: 2
#     Edge 16, Type (0, 1), BuildingBlock: XIVTED_clean_linker_0, # of connection points: 2
#     Edge 17, Type (0, 1), BuildingBlock: XIVTED_clean_linker_0, # of connection points: 2
#     Edge 18, Type (0, 1), BuildingBlock: XIVTED_clean_linker_0, # of connection points: 2
#     Edge 19, Type (0, 1), BuildingBlock: XIVTED_clean_linker_0, # of connection points: 2
#     Edge 20, Type (0, 1), BuildingBlock: XIVTED_clean_linker_0, # of connection points: 2
#     Edge 21, Type (0, 1), BuildingBlock: XIVTED_clean_linker_0, # of connection points: 2
#     Edge 22, Type (0, 1), BuildingBlock: XIVTED_clean_linker_0, # of connection points: 2
#     Edge 23, Type (0, 1), BuildingBlock: XIVTED_clean_linker_0, # of connection points: 2
#     Edge 24, Type (0, 1), BuildingBlock: XIVTED_clean_linker_0, # of connection points: 2
#     Edge 25, Type (0, 1), BuildingBlock: XIVTED_clean_linker_0, # of connection points: 2
#     Edge 26, Type (0, 1), BuildingBlock: XIVTED_clean_linker_0, # of connection points: 2
# Relax obj value: 0.107
# Max RMSD: 0.163
# Mean RMSD: 0.118
data_MOF--net-anh--node1-BETDEL_clean_sbu_0--node2-BETDIP_clean_linker_0--edge1-XIVTED_clean_linker_0
_symmetry_space_group_name_H-M    P1
_symmetry_Int_Tables_number       1
_symmetry_cell_setting            triclinic
loop_
_symmetry_equiv_pos_as_xyz
'x, y, z'
_cell_length_a     30.066503
_cell_length_b     30.089078
_cell_length_c     48.33251
_cell_angle_alpha  92.734675
_cell_angle_beta   90.668375
_cell_angle_gamma 119.99916
loop_
_atom_site_label
_atom_site_type_symbol
_atom_site_fract_x
_atom_site_fract_y
_atom_site_fract_z
_atom_type_partial_charge
Dy0 Dy 0.06217 0.48478 0.15539 0.0
C1 C 0.93941 0.57589 0.18973 0.0
C2 C 0.135 0.45757 0.14762 0.0
Dy3 Dy 0.99907 0.54369 0.16388 0.0
O4 O 0.12788 0.47691 0.17052 0.0
O5 O 0.10151 0.45224 0.12839 0.0
O6 O 0.03326 0.45047 0.19612 0.0
O7 O 0.0461 0.52436 0.18925 0.0
C8 C 0.02929 0.4892 0.20595 0.0
C9 C 1.00749 0.52564 0.10968 0.0
O10 O 0.07947 0.60995 0.17014 0.0
O11 O 0.12209 0.56869 0.15204 0.0
O12 O 0.97211 0.6007 0.17095 0.0
O13 O 0.94003 0.53406 0.19449 0.0
O14 O 0.98248 0.54809 0.11855 0.0
O15 O 0.02527 0.51493 0.13029 0.0
O16 O 0.98241 0.41867 0.1448 0.0
O17 O 0.93932 0.45963 0.16292 0.0
C18 C 0.1217 0.61091 0.16138 0.0
C19 C 0.93965 0.41797 0.15257 0.0
Dy20 Dy 0.49983 0.04292 0.48395 0.0
C21 C 0.71028 0.17535 0.51573 0.0
C22 C 0.40036 0.97236 0.46863 0.0
Dy23 Dy 0.6151 0.10504 0.49382 0.0
O24 O 0.41645 0.99484 0.49312 0.0
O25 O 0.43857 0.98918 0.45214 0.0
O26 O 0.49139 0.0715 0.52634 0.0
O27 O 0.55205 0.0576 0.51924 0.0
C28 C 0.53262 0.07417 0.53683 0.0
C29 C 0.58532 0.07355 0.44081 0.0
O30 O 0.60278 0.02799 0.50432 0.0
O31 O 0.52292 0.98158 0.4816 0.0
O32 O 0.70141 0.14393 0.49427 0.0
O33 O 0.66712 0.16778 0.5254 0.0
O34 O 0.62822 0.08074 0.45181 0.0
O35 O 0.56337 0.08886 0.4577 0.0
O36 O 0.5087 0.11968 0.47589 0.0
O37 O 0.59315 0.16679 0.49313 0.0
C38 C 0.56414 0.98386 0.49354 0.0
C39 C 0.54996 0.16416 0.48402 0.0
Dy40 Dy 0.60898 0.57079 0.82437 0.0
C41 C 0.51352 0.35843 0.84226 0.0
C42 C 0.64811 0.67285 0.81672 0.0
Dy43 Dy 0.54734 0.4565 0.8275 0.0
O44 O 0.6506 0.65364 0.83967 0.0
O45 O 0.62485 0.6362 0.79741 0.0
O46 O 0.64443 0.57603 0.86624 0.0
O47 O 0.56738 0.52016 0.85724 0.0
C48 C 0.60369 0.53728 0.87519 0.0
C49 C 0.5497 0.48751 0.77641 0.0
O50 O 0.48464 0.47339 0.83778 0.0
O51 O 0.52726 0.55562 0.82209 0.0
O52 O 0.49915 0.37073 0.81984 0.0
O53 O 0.54565 0.39987 0.85689 0.0
O54 O 0.51093 0.4472 0.78575 0.0
O55 O 0.58733 0.50673 0.79384 0.0
O56 O 0.67286 0.55542 0.81458 0.0
O57 O 0.62903 0.47169 0.82806 0.0
C58 C 0.48489 0.51547 0.83049 0.0
C59 C 0.67196 0.51255 0.82083 0.0
H60 H 0.48828 0.96579 0.15573 0.0
H61 H 0.58272 0.06312 0.22543 0.0
H62 H 0.43743 0.92929 0.23895 0.0
H63 H 0.56658 0.11759 0.18402 0.0
C64 C 0.59234 0.10697 0.17386 0.0
C65 C 0.49477 0.9741 0.17794 0.0
C66 C 0.45675 0.94235 0.1961 0.0
C67 C 0.53986 0.0185 0.18856 0.0
C68 C 0.54786 0.02923 0.21734 0.0
C69 C 0.51138 0.99708 0.23566 0.0
C70 C 0.46574 0.95427 0.22486 0.0
N71 N 0.57659 0.05371 0.17062 0.0
H72 H 0.55138 0.53525 0.49152 0.0
H73 H 0.56498 0.60411 0.57403 0.0
H74 H 0.55307 0.45654 0.56326 0.0
H75 H 0.52332 0.63777 0.55479 0.0
C76 C 0.54031 0.64896 0.5348 0.0
C77 C 0.55358 0.534 0.51384 0.0
C78 C 0.55247 0.49128 0.52548 0.0
C79 C 0.55633 0.57459 0.53118 0.0
C80 C 0.56065 0.57276 0.5602 0.0
C81 C 0.55842 0.52996 0.57183 0.0
C82 C 0.55425 0.48952 0.55434 0.0
N83 N 0.55468 0.61664 0.51939 0.0
H84 H 0.03665 0.51159 0.82495 0.0
H85 H 0.10929 0.50813 0.90144 0.0
H86 H 0.96024 0.49549 0.90153 0.0
H87 H 0.17961 0.58332 0.87283 0.0
C88 C 0.17312 0.55189 0.85816 0.0
C89 C 0.03606 0.50879 0.84722 0.0
C90 C 0.99302 0.50248 0.86167 0.0
C91 C 0.07858 0.51184 0.8617 0.0
C92 C 0.07728 0.50756 0.89058 0.0
C93 C 0.03447 0.50082 0.90523 0.0
C94 C 0.99287 0.49885 0.8905 0.0
N95 N 0.12219 0.51798 0.84727 0.0
H96 H 0.07841 0.61002 0.48008 0.0
H97 H 0.97581 0.48967 0.42115 0.0
H98 H 0.06858 0.64323 0.39524 0.0
H99 H 1.00362 0.54809 0.5093 0.0
C100 C 1.00067 0.51269 0.50061 0.0
C101 C 0.06057 0.59814 0.45943 0.0
C102 C 0.07763 0.63328 0.4384 0.0
C103 C 0.02363 0.54634 0.45297 0.0
C104 C 1.00338 0.53 0.42585 0.0
C105 C 1.01891 0.56465 0.40485 0.0
C106 C 0.05526 0.6164 0.41149 0.0
N107 N 1.00999 0.5081 0.47224 0.0
H108 H 0.61041 0.06578 0.81985 0.0
H109 H 0.64175 0.0445 0.73533 0.0
H110 H 0.54352 0.10687 0.75385 0.0
H111 H 0.64764 0.01971 0.8298 0.0
C112 C 0.65801 1.00682 0.8109 0.0
C113 C 0.60503 0.06811 0.79793 0.0
C114 C 0.57473 0.08879 0.78915 0.0
C115 C 0.62833 0.05122 0.77821 0.0
C116 C 0.62222 0.05634 0.75008 0.0
C117 C 0.59105 0.07553 0.74087 0.0
C118 C 0.56728 0.09145 0.76062 0.0
N119 N 0.65666 0.02694 0.78517 0.0
H120 H 0.50636 0.50881 0.15513 0.0
H121 H 0.61564 0.54234 0.09203 0.0
H122 H 0.45597 0.47799 0.06888 0.0
H123 H 0.57338 0.51137 0.18209 0.0
C124 C 0.60786 0.54129 0.1733 0.0
C125 C 0.51444 0.50825 0.13341 0.0
C126 C 0.47419 0.48967 0.11299 0.0
C127 C 0.56545 0.52791 0.12559 0.0
C128 C 0.5761 0.52763 0.09761 0.0
C129 C 0.53674 0.50841 0.077 0.0
C130 C 0.48596 0.48988 0.08486 0.0
N131 N 0.60789 0.55113 0.1449 0.0
H132 H 0.20777 0.47471 0.18663 0.0
H133 H 0.38287 0.41387 0.08766 0.0
H134 H 0.16346 0.42389 0.10061 0.0
H135 H 0.44262 0.53028 0.1554 0.0
H136 H 0.29622 0.39759 0.09677 0.0
H137 H 0.28739 0.47357 0.18009 0.0
C138 C 0.21452 0.46264 0.16639 0.0
C139 C 0.17932 0.44991 0.144 0.0
C140 C 0.32845 0.42627 0.10971 0.0
C141 C 0.27041 0.44848 0.13649 0.0
C142 C 0.37799 0.43588 0.10451 0.0
C143 C 0.42063 0.4741 0.12054 0.0
C144 C 0.32132 0.45423 0.13146 0.0
C145 C 0.41134 0.50009 0.14262 0.0
C146 C 0.26005 0.46218 0.16271 0.0
C147 C 0.18988 0.43426 0.11832 0.0
N148 N 0.36278 0.48974 0.14735 0.0
N149 N 0.23485 0.43424 0.11517 0.0
H150 H 0.80389 0.19427 0.49876 0.0
H151 H 0.92978 0.49152 0.54029 0.0
H152 H 0.73145 0.25791 0.55087 0.0
H153 H 1.00272 0.42372 0.49189 0.0
H154 H 0.8655 0.40543 0.55349 0.0
H155 H 0.88477 0.27569 0.5049 0.0
C156 C 0.80536 0.22517 0.51194 0.0
C157 C 0.76095 0.21984 0.52396 0.0
C158 C 0.89626 0.40952 0.54049 0.0
C159 C 0.85292 0.3135 0.53064 0.0
C160 C 0.93304 0.45864 0.53312 0.0
C161 C 0.97066 0.46433 0.51452 0.0
C162 C 0.89743 0.36621 0.52907 0.0
C163 C 0.97349 0.42073 0.50579 0.0
C164 C 0.85151 0.27173 0.51544 0.0
C165 C 0.76488 0.26079 0.54103 0.0
N166 N 0.93684 0.37345 0.51276 0.0
N167 N 0.80986 0.30635 0.54342 0.0
H168 H 0.68486 0.74784 0.85823 0.0
H169 H 0.67216 0.95525 0.76655 0.0
H170 H 0.64132 0.72011 0.77105 0.0
H171 H 0.66459 0.95844 0.85571 0.0
H172 H 0.67906 0.87796 0.7673 0.0
H173 H 0.6962 0.83395 0.85669 0.0
C174 C 0.6784 0.76021 0.83865 0.0
C175 C 0.66177 0.72684 0.81474 0.0
C176 C 0.67629 0.89579 0.78671 0.0
C177 C 0.67453 0.82508 0.81289 0.0
C178 C 0.67249 0.94005 0.78636 0.0
C179 C 0.66741 0.96309 0.81119 0.0
C180 C 0.67543 0.87461 0.81204 0.0
C181 C 0.66822 0.94166 0.83615 0.0
C182 C 0.68465 0.80923 0.83784 0.0
C183 C 0.654 0.74472 0.78994 0.0
N184 N 0.67194 0.89843 0.83596 0.0
N185 N 0.6602 0.79267 0.78967 0.0
H186 H 0.92572 0.6559 0.17723 0.0
H187 H 0.63276 0.49755 0.21456 0.0
H188 H 0.86121 0.51953 0.22342 0.0
H189 H 0.69763 0.62856 0.16427 0.0
H190 H 0.72002 0.51907 0.22936 0.0
H191 H 0.8478 0.66082 0.18389 0.0
C192 C 0.89559 0.62769 0.18932 0.0
C193 C 0.89922 0.58663 0.19926 0.0
C194 C 0.71513 0.54376 0.21556 0.0
C195 C 0.80969 0.59127 0.2065 0.0
C196 C 0.66538 0.53159 0.20725 0.0
C197 C 0.65831 0.56056 0.18767 0.0
C198 C 0.75768 0.58515 0.20414 0.0
C199 C 0.7016 0.60446 0.17889 0.0
C200 C 0.85102 0.63036 0.19306 0.0
C201 C 0.85941 0.55135 0.21502 0.0
N202 N 0.74946 0.61492 0.18682 0.0
N203 N 0.81576 0.55383 0.21768 0.0
H204 H 0.36397 0.91377 0.42003 0.0
H205 H 0.10073 0.70298 0.48309 0.0
H206 H 0.32005 0.92976 0.50294 0.0
H207 H 0.15794 0.68288 0.40474 0.0
H208 H 0.17625 0.78969 0.48955 0.0
H209 H 0.28235 0.83336 0.41209 0.0
C210 C 0.33677 0.90063 0.43641 0.0
C211 C 0.3487 0.92807 0.46219 0.0
C212 C 0.1719 0.76628 0.47087 0.0
C213 C 0.2557 0.83591 0.45352 0.0
C214 C 0.12902 0.71679 0.46727 0.0
C215 C 0.12264 0.68586 0.4432 0.0
C216 C 0.20856 0.7847 0.45028 0.0
C217 C 0.16047 0.70571 0.42332 0.0
C218 C 0.29031 0.85462 0.43197 0.0
C219 C 0.31223 0.90947 0.48277 0.0
N220 N 0.20162 0.75371 0.4273 0.0
N221 N 0.26745 0.86426 0.47808 0.0
H222 H 0.55913 0.33074 0.88189 0.0
H223 H 0.62522 0.15559 0.8338 0.0
H224 H 0.45189 0.26956 0.81143 0.0
H225 H 0.47805 0.07625 0.78953 0.0
H226 H 0.59937 0.21141 0.85779 0.0
H227 H 0.56349 0.25166 0.88042 0.0
C228 C 0.53576 0.30017 0.86643 0.0
C229 C 0.50615 0.30703 0.84627 0.0
C230 C 0.57169 0.18068 0.8437 0.0
C231 C 0.51242 0.21752 0.84372 0.0
C232 C 0.58664 0.14868 0.82993 0.0
C233 C 0.55414 0.11203 0.80924 0.0
C234 C 0.52391 0.17597 0.83657 0.0
C235 C 0.50473 0.10495 0.80488 0.0
C236 C 0.5388 0.25528 0.86534 0.0
C237 C 0.47601 0.26612 0.827 0.0
N238 N 0.49159 0.13743 0.81793 0.0
N239 N 0.4806 0.22344 0.8259 0.0
H240 H 0.51117 0.89183 0.46257 0.0
H241 H 0.56424 0.73176 0.56879 0.0
H242 H 0.61913 0.96528 0.5322 0.0
H243 H 0.53876 0.68177 0.48214 0.0
H244 H 0.5748 0.81454 0.55699 0.0
H245 H 0.51089 0.81134 0.47015 0.0
C246 C 0.53494 0.89112 0.47936 0.0
C247 C 0.56518 0.93544 0.49681 0.0
C248 C 0.5674 0.78575 0.54048 0.0
C249 C 0.56436 0.8434 0.50577 0.0
C250 C 0.56132 0.73851 0.54719 0.0
C251 C 0.55106 0.70012 0.5264 0.0
C252 C 0.56159 0.79441 0.51277 0.0
C253 C 0.54726 0.71066 0.49875 0.0
C254 C 0.53495 0.84529 0.48354 0.0
C255 C 0.59537 0.93226 0.51817 0.0
N256 N 0.55174 0.75666 0.49272 0.0
N257 N 0.59362 0.88697 0.52227 0.0
H258 H 0.77103 0.5893 0.8116 0.0
H259 H 0.89504 0.4225 0.85949 0.0
H260 H 0.68346 0.42988 0.8306 0.0
H261 H 0.98668 0.57685 0.83377 0.0
H262 H 0.81724 0.42307 0.84493 0.0
H263 H 0.85015 0.58483 0.81603 0.0
C264 C 0.76826 0.55324 0.81642 0.0
C265 C 0.72027 0.51001 0.82091 0.0
C266 C 0.85424 0.45667 0.84201 0.0
C267 C 0.81089 0.50472 0.82611 0.0
C268 C 0.89867 0.45616 0.85017 0.0
C269 C 0.94727 0.49952 0.84762 0.0
C270 C 0.8581 0.50129 0.83162 0.0
C271 C 0.94989 0.54243 0.83576 0.0
C272 C 0.81353 0.55074 0.81896 0.0
C273 C 0.71935 0.46439 0.82711 0.0
N274 N 0.90589 0.54251 0.82851 0.0
N275 N 0.76378 0.46311 0.82969 0.0
H276 H 0.21707 0.63182 0.14395 0.0
H277 H 0.36077 0.92193 0.20902 0.0
H278 H 0.13941 0.70513 0.18241 0.0
H279 H 0.43874 0.85947 0.16086 0.0
H280 H 0.27915 0.84316 0.19791 0.0
H281 H 0.29798 0.71413 0.14869 0.0
C282 C 0.21682 0.66514 0.15328 0.0
C283 C 0.17101 0.66113 0.1629 0.0
C284 C 0.31388 0.84659 0.18949 0.0
C285 C 0.264 0.7558 0.16844 0.0
C286 C 0.36055 0.89168 0.19582 0.0
C287 C 0.40668 0.89725 0.18592 0.0
C288 C 0.31296 0.80602 0.17335 0.0
C289 C 0.40405 0.85686 0.1688 0.0
C290 C 0.26315 0.71223 0.15592 0.0
C291 C 0.17346 0.70595 0.17472 0.0
N292 N 0.35807 0.81271 0.16331 0.0
N293 N 0.219 0.75106 0.17728 0.0
H294 H 0.46546 0.17669 0.47871 0.0
H295 H 0.63144 0.48434 0.50285 0.0
H296 H 0.6309 0.26313 0.48847 0.0
H297 H 0.46814 0.39723 0.51291 0.0
H298 H 0.63014 0.40473 0.48739 0.0
H299 H 0.46428 0.25778 0.48198 0.0
C300 C 0.50156 0.21263 0.48121 0.0
C301 C 0.54832 0.21285 0.48352 0.0
C302 C 0.59433 0.40309 0.49236 0.0
C303 C 0.54722 0.30598 0.48714 0.0
C304 C 0.59503 0.44864 0.50078 0.0
C305 C 0.54969 0.44737 0.50861 0.0
C306 C 0.54796 0.3558 0.49193 0.0
C307 C 0.50373 0.39985 0.50651 0.0
C308 C 0.50083 0.25894 0.48315 0.0
C309 C 0.59385 0.26081 0.48681 0.0
N310 N 0.50405 0.35593 0.49856 0.0
N311 N 0.59213 0.30522 0.48859 0.0
H312 H 0.38508 0.43722 0.83506 0.0
H313 H 0.27337 0.62446 0.86479 0.0
H314 H 0.47621 0.60185 0.83087 0.0
H315 H 0.17482 0.46635 0.83557 0.0
H316 H 0.3485 0.61527 0.85632 0.0
H317 H 0.30784 0.44504 0.83921 0.0
C318 C 0.38892 0.47498 0.83502 0.0
C319 C 0.43737 0.51896 0.83267 0.0
C320 C 0.31052 0.58263 0.85151 0.0
C321 C 0.34917 0.52811 0.83763 0.0
C322 C 0.26764 0.58787 0.85634 0.0
C323 C 0.21789 0.54627 0.85068 0.0
C324 C 0.3038 0.53499 0.8415 0.0
C325 C 0.21257 0.49955 0.83995 0.0
C326 C 0.34476 0.47934 0.83724 0.0
C327 C 0.43982 0.56683 0.83259 0.0
N328 N 0.25504 0.49498 0.83597 0.0
N329 N 0.39655 0.57014 0.83527 0.0
H330 H 0.91909 0.31674 0.14693 0.0
H331 H 0.61871 0.20586 0.1706 0.0
H332 H 0.84439 0.40721 0.1545 0.0
H333 H 0.68133 0.10524 0.15951 0.0
H334 H 0.70217 0.27891 0.16192 0.0
H335 H 0.83425 0.23809 0.14866 0.0
C336 C 0.88503 0.32016 0.14865 0.0
C337 C 0.88922 0.36894 0.15082 0.0
C338 C 0.69805 0.241 0.16113 0.0
C339 C 0.79225 0.27927 0.15288 0.0
C340 C 0.65014 0.19913 0.16605 0.0
C341 C 0.64293 0.14938 0.16573 0.0
C342 C 0.73999 0.2337 0.15611 0.0
C343 C 0.68518 0.143 0.1598 0.0
C344 C 0.83665 0.27525 0.14972 0.0
C345 C 0.84362 0.37082 0.15309 0.0
N346 N 0.73213 0.18479 0.15543 0.0
N347 N 0.79755 0.327 0.15417 0.0
H348 H 0.93676 0.5038 0.06874 0.0
H349 H 0.11428 0.54999 0.94464 0.0
H350 H 0.08573 0.51975 0.08411 0.0
H351 H 0.95125 0.44141 0.93613 0.0
H352 H 0.10844 0.54742 -0.00488 0.0
H353 H 0.94398 0.48984 0.01916 0.0
C354 C 0.97086 0.50396 0.06159 0.0
C355 C 1.0107 0.51281 0.08033 0.0
C356 C 0.07422 0.52382 0.98205 0.0
C357 C 1.01975 0.49815 0.02375 0.0
C358 C 0.07742 0.52509 0.95322 0.0
C359 C 0.03299 0.49654 0.93589 0.0
C360 C 0.0262 0.49464 -0.00639 0.0
C361 C 0.98628 0.46546 0.94847 0.0
C362 C 0.97487 0.49582 0.03338 0.0
C363 C 0.05414 0.5127 0.07015 0.0
N364 N 0.98398 0.46603 0.9765 0.0
N365 N 0.05802 0.50639 0.04233 0.0
H366 H 0.50057 0.06287 0.41217 0.0
H367 H 0.59984 0.02307 0.26517 0.0
H368 H 0.63839 0.05421 0.4017 0.0
H369 H 0.44587 0.99551 0.27534 0.0
H370 H 0.61635 0.04072 0.31516 0.0
H371 H 0.48076 0.04309 0.36205 0.0
C372 C 0.5265 0.05667 0.39933 0.0
C373 C 0.57123 0.0603 0.411 0.0
C374 C 0.57888 0.03074 0.30653 0.0
C375 C 0.54923 0.03823 0.35394 0.0
C376 C 0.56957 0.02101 0.27795 0.0
C377 C 0.52146 1.00792 0.26608 0.0
C378 C 0.53996 0.02779 0.32347 0.0
C379 C 0.48339 1.00509 0.2837 0.0
C380 C 0.51522 0.04539 0.3708 0.0
C381 C 0.60358 0.05194 0.39353 0.0
N382 N 0.49351 0.01517 0.31153 0.0
N383 N 0.59208 0.04158 0.36591 0.0
H384 H 0.63031 0.56382 0.74962 0.0
H385 H 0.49165 0.44908 0.60056 0.0
H386 H 0.47514 0.4372 0.73626 0.0
H387 H 0.62338 0.60168 0.61226 0.0
H388 H 0.49025 0.44169 0.65057 0.0
H389 H 0.63336 0.57719 0.69958 0.0
C390 C 0.59694 0.53908 0.7362 0.0
C391 C 0.55257 0.49911 0.74697 0.0
C392 C 0.51947 0.47692 0.6423 0.0
C393 C 0.55589 0.51376 0.69016 0.0
C394 C 0.52046 0.48098 0.61373 0.0
C395 C 0.55779 0.52595 0.6023 0.0
C396 C 0.55637 0.51795 0.65971 0.0
C397 C 0.59382 0.56643 0.62034 0.0
C398 C 0.59866 0.54672 0.70775 0.0
C399 C 0.51028 0.46824 0.72881 0.0
N400 N 0.59246 0.56139 0.64823 0.0
N401 N 0.51314 0.47597 0.70135 0.0
H402 H 0.59421 0.04606 0.56307 0.0
H403 H 0.58004 0.14914 0.71443 0.0
H404 H 0.50068 0.11569 0.57823 0.0
H405 H 0.58397 1.00859 0.69811 0.0
H406 H 0.56713 0.1522 0.6646 0.0
H407 H 0.60994 0.0491 0.61302 0.0
C408 C 0.57742 0.06249 0.57693 0.0
C409 C 0.54575 0.08029 0.56667 0.0
C410 C 0.57093 0.12088 0.67213 0.0
C411 C 0.56398 0.08422 0.62357 0.0
C412 C 0.57795 0.11878 0.70055 0.0
C413 C 0.58329 0.07854 0.71069 0.0
C414 C 0.57041 0.0832 0.65374 0.0
C415 C 0.58135 0.04104 0.69143 0.0
C416 C 0.5862 0.06393 0.60536 0.0
C417 C 0.525 0.10126 0.58548 0.0
N418 N 0.57547 0.04452 0.66391 0.0
N419 N 0.53457 0.10278 0.61319 0.0
H420 H 0.51833 0.46245 0.89842 0.0
H421 H 0.61899 0.58407 0.05156 0.0
H422 H 0.67203 0.5874 0.91866 0.0
H423 H 0.4824 0.43603 0.03458 0.0
H424 H 0.63827 0.58602 0.00274 0.0
H425 H 0.50359 0.45141 0.94799 0.0
C426 C 0.54911 0.48716 0.91333 0.0
C427 C 0.59627 0.52619 0.90458 0.0
C428 C 0.60426 0.55291 0.0097 0.0
C429 C 0.57961 0.51425 0.96105 0.0
C430 C 0.59329 0.55164 0.03765 0.0
C431 C 0.54902 0.50972 0.04728 0.0
C432 C 0.57046 0.51228 0.99108 0.0
C433 C 0.51657 0.46945 0.02804 0.0
C434 C 0.5407 0.48088 0.94156 0.0
C435 C 0.63499 0.55706 0.92461 0.0
N436 N 0.5278 0.47185 0.00081 0.0
N437 N 0.62561 0.5508 0.95196 0.0
H438 H 0.99469 0.41744 0.2445 0.0
H439 H 0.99604 0.61128 0.3638 0.0
H440 H 0.02736 0.57143 0.23096 0.0
H441 H 1.0061 0.47606 0.37863 0.0
H442 H 0.98539 0.58733 0.31406 0.0
H443 H 0.97668 0.42901 0.29271 0.0
C444 C 0.99748 0.45347 0.25164 0.0
C445 C 1.01309 0.49379 0.23397 0.0
C446 C 0.98914 0.56259 0.32832 0.0
C447 C 0.99258 0.50727 0.28884 0.0
C448 C 0.99537 0.57627 0.35667 0.0
C449 C 1.00281 0.54611 0.37544 0.0
C450 C 0.99011 0.51834 0.31871 0.0
C451 C 1.0003 0.50047 0.36507 0.0
C452 C 0.98719 0.46004 0.2791 0.0
C453 C 1.01572 0.53953 0.24407 0.0
N454 N 0.99475 0.48831 0.33738 0.0
N455 N 1.00601 0.54524 0.27097 0.0
loop_
_geom_bond_atom_site_label_1
_geom_bond_atom_site_label_2
_geom_bond_distance
_geom_bond_site_symmetry_2
_ccdc_geom_bond_type
Dy0 O4 2.398 . S
Dy0 O5 2.491 . S
Dy0 O6 2.403 . S
Dy0 O7 2.664 . S
Dy0 O11 2.326 . S
Dy0 O15 2.310 . S
Dy0 O16 2.351 . S
C1 O12 1.185 . S
C1 O13 1.355 . S
C2 O4 1.185 . S
C2 O5 1.355 . S
Dy3 O7 2.310 . S
Dy3 O10 2.351 . S
Dy3 O12 2.398 1_455 S
Dy3 O13 2.491 1_455 S
Dy3 O14 2.403 . S
Dy3 O15 2.664 . S
Dy3 O17 2.326 1_455 S
O4 Dy0 2.398 . S
O4 C2 1.185 . S
O5 Dy0 2.491 . S
O5 C2 1.355 . S
O6 Dy0 2.403 . S
O6 C8 1.254 . S
O7 Dy0 2.664 . S
O7 Dy3 2.310 . S
O7 C8 1.268 . S
C8 O6 1.254 . S
C8 O7 1.268 . S
C9 O14 1.254 . S
C9 O15 1.268 . S
O10 Dy3 2.351 . S
O10 C18 1.249 . S
O11 Dy0 2.326 . S
O11 C18 1.267 . S
O12 C1 1.185 . S
O12 Dy3 2.398 1_655 S
O13 C1 1.355 . S
O13 Dy3 2.491 1_655 S
O14 Dy3 2.403 . S
O14 C9 1.254 . S
O15 Dy0 2.310 . S
O15 Dy3 2.664 . S
O15 C9 1.268 . S
O16 Dy0 2.351 . S
O16 C19 1.249 1_455 S
O17 Dy3 2.326 1_655 S
O17 C19 1.267 . S
C18 O10 1.249 . S
C18 O11 1.267 . S
C19 O16 1.249 1_655 S
C19 O17 1.267 . S
Dy20 O24 2.398 . S
Dy20 O25 2.491 . S
Dy20 O26 2.403 . S
Dy20 O27 2.664 1_565 S
Dy20 O31 2.326 . S
Dy20 O35 2.310 1_565 S
Dy20 O36 2.351 1_565 S
C21 O32 1.185 . S
C21 O33 1.355 . S
C22 O24 1.185 . S
C22 O25 1.355 . S
Dy23 O27 2.310 . S
Dy23 O30 2.351 1_545 S
Dy23 O32 2.398 . S
Dy23 O33 2.491 . S
Dy23 O34 2.403 . S
Dy23 O35 2.664 . S
Dy23 O37 2.326 . S
O24 Dy20 2.398 . S
O24 C22 1.185 . S
O25 Dy20 2.491 . S
O25 C22 1.355 . S
O26 Dy20 2.403 . S
O26 C28 1.254 1_565 S
O27 Dy20 2.664 1_545 S
O27 Dy23 2.310 . S
O27 C28 1.268 . S
C28 O26 1.254 1_545 S
C28 O27 1.268 . S
C29 O34 1.254 . S
C29 O35 1.268 . S
O30 Dy23 2.351 1_565 S
O30 C38 1.249 . S
O31 Dy20 2.326 . S
O31 C38 1.267 . S
O32 C21 1.185 . S
O32 Dy23 2.398 . S
O33 C21 1.355 . S
O33 Dy23 2.491 . S
O34 Dy23 2.403 . S
O34 C29 1.254 . S
O35 Dy20 2.310 1_545 S
O35 Dy23 2.664 . S
O35 C29 1.268 . S
O36 Dy20 2.351 1_545 S
O36 C39 1.249 . S
O37 Dy23 2.326 . S
O37 C39 1.267 . S
C38 O30 1.249 . S
C38 O31 1.267 . S
C39 O36 1.249 . S
C39 O37 1.267 . S
Dy40 O44 2.398 . S
Dy40 O45 2.491 . S
Dy40 O46 2.403 . S
Dy40 O47 2.664 . S
Dy40 O51 2.326 . S
Dy40 O55 2.310 . S
Dy40 O56 2.351 . S
C41 O52 1.185 . S
C41 O53 1.355 . S
C42 O44 1.185 . S
C42 O45 1.355 . S
Dy43 O47 2.310 . S
Dy43 O50 2.351 . S
Dy43 O52 2.398 . S
Dy43 O53 2.491 . S
Dy43 O54 2.403 . S
Dy43 O55 2.664 . S
Dy43 O57 2.326 . S
O44 Dy40 2.398 . S
O44 C42 1.185 . S
O45 Dy40 2.491 . S
O45 C42 1.355 . S
O46 Dy40 2.403 . S
O46 C48 1.254 . S
O47 Dy40 2.664 . S
O47 Dy43 2.310 . S
O47 C48 1.268 . S
C48 O46 1.254 . S
C48 O47 1.268 . S
C49 O54 1.254 . S
C49 O55 1.268 . S
O50 Dy43 2.351 . S
O50 C58 1.249 . S
O51 Dy40 2.326 . S
O51 C58 1.267 . S
O52 C41 1.185 . S
O52 Dy43 2.398 . S
O53 C41 1.355 . S
O53 Dy43 2.491 . S
O54 Dy43 2.403 . S
O54 C49 1.254 . S
O55 Dy40 2.310 . S
O55 Dy43 2.664 . S
O55 C49 1.268 . S
O56 Dy40 2.351 . S
O56 C59 1.249 . S
O57 Dy43 2.326 . S
O57 C59 1.267 . S
C58 O50 1.249 . S
C58 O51 1.267 . S
C59 O56 1.249 . S
C59 O57 1.267 . S
H60 C65 0.930 . S
H61 C68 0.930 . S
H62 C70 0.930 . S
H63 C64 1.016 . S
C64 H63 1.016 . S
C64 N71 1.286 . S
C65 H60 0.930 . S
C65 C66 1.397 . S
C65 C67 1.361 1_565 S
C66 C65 1.397 . S
C66 C70 1.390 . S
C67 C65 1.361 1_545 S
C67 C68 1.393 . S
C67 N71 1.413 . S
C68 H61 0.930 . S
C68 C67 1.393 . S
C68 C69 1.399 . S
C69 C68 1.399 . S
C69 C70 1.381 1_545 S
C70 H62 0.930 . S
C70 C66 1.390 . S
C70 C69 1.381 1_565 S
N71 C64 1.286 . S
N71 C67 1.413 . S
H72 C77 0.930 . S
H73 C80 0.930 . S
H74 C82 0.930 . S
H75 C76 1.016 . S
C76 H75 1.016 . S
C76 N83 1.286 . S
C77 H72 0.930 . S
C77 C78 1.397 . S
C77 C79 1.361 . S
C78 C77 1.397 . S
C78 C82 1.390 . S
C79 C77 1.361 . S
C79 C80 1.393 . S
C79 N83 1.413 . S
C80 H73 0.930 . S
C80 C79 1.393 . S
C80 C81 1.399 . S
C81 C80 1.399 . S
C81 C82 1.381 . S
C82 H74 0.930 . S
C82 C78 1.390 . S
C82 C81 1.381 . S
N83 C76 1.286 . S
N83 C79 1.413 . S
H84 C89 0.930 . S
H85 C92 0.930 . S
H86 C94 0.930 1_655 S
H87 C88 1.016 . S
C88 H87 1.016 . S
C88 N95 1.286 . S
C89 H84 0.930 . S
C89 C90 1.397 1_455 S
C89 C91 1.361 . S
C90 C89 1.397 1_655 S
C90 C94 1.390 1_655 S
C91 C89 1.361 . S
C91 C92 1.393 . S
C91 N95 1.413 . S
C92 H85 0.930 . S
C92 C91 1.393 . S
C92 C93 1.399 . S
C93 C92 1.399 . S
C93 C94 1.381 . S
C94 H86 0.930 1_455 S
C94 C90 1.390 1_455 S
C94 C93 1.381 . S
N95 C88 1.286 . S
N95 C91 1.413 . S
H96 C101 0.930 . S
H97 C104 0.930 . S
H98 C106 0.930 . S
H99 C100 1.016 . S
C100 H99 1.016 . S
C100 N107 1.286 . S
C101 H96 0.930 . S
C101 C102 1.397 . S
C101 C103 1.361 1_455 S
C102 C101 1.397 . S
C102 C106 1.390 . S
C103 C101 1.361 1_655 S
C103 C104 1.393 . S
C103 N107 1.413 . S
C104 H97 0.930 . S
C104 C103 1.393 . S
C104 C105 1.399 1_655 S
C105 C104 1.399 1_455 S
C105 C106 1.381 . S
C106 H98 0.930 . S
C106 C102 1.390 . S
C106 C105 1.381 . S
N107 C100 1.286 . S
N107 C103 1.413 . S
H108 C113 0.930 . S
H109 C116 0.930 1_565 S
H110 C118 0.930 . S
H111 C112 1.016 . S
C112 H111 1.016 . S
C112 N119 1.286 . S
C113 H108 0.930 . S
C113 C114 1.397 . S
C113 C115 1.361 . S
C114 C113 1.397 . S
C114 C118 1.390 . S
C115 C113 1.361 . S
C115 C116 1.393 . S
C115 N119 1.413 1_545 S
C116 H109 0.930 1_545 S
C116 C115 1.393 . S
C116 C117 1.399 . S
C117 C116 1.399 . S
C117 C118 1.381 . S
C118 H110 0.930 . S
C118 C114 1.390 . S
C118 C117 1.381 . S
N119 C112 1.286 . S
N119 C115 1.413 1_565 S
H120 C125 0.930 . S
H121 C128 0.930 . S
H122 C130 0.930 . S
H123 C124 1.016 . S
C124 H123 1.016 . S
C124 N131 1.286 . S
C125 H120 0.930 . S
C125 C126 1.397 . S
C125 C127 1.361 . S
C126 C125 1.397 . S
C126 C130 1.390 . S
C127 C125 1.361 . S
C127 C128 1.393 . S
C127 N131 1.413 . S
C128 H121 0.930 . S
C128 C127 1.393 . S
C128 C129 1.399 . S
C129 C128 1.399 . S
C129 C130 1.381 . S
C130 H122 0.930 . S
C130 C126 1.390 . S
C130 C129 1.381 . S
N131 C124 1.286 . S
N131 C127 1.413 . S
H132 C138 0.930 . S
H133 C142 0.930 . S
H134 C147 0.929 . S
H135 C145 0.929 . S
H136 C140 0.929 . S
H137 C146 0.929 . S
C138 H132 0.930 . S
C138 C139 1.367 . S
C138 C146 1.378 . S
C139 C138 1.367 . S
C139 C147 1.433 . S
C140 H136 0.929 . S
C140 C142 1.378 . S
C140 C144 1.350 . S
C141 C144 1.463 . S
C141 C146 1.350 . S
C141 N149 1.427 . S
C142 H133 0.930 . S
C142 C140 1.378 . S
C142 C143 1.367 . S
C143 C142 1.367 . S
C143 C145 1.433 . S
C144 C140 1.350 . S
C144 C141 1.463 . S
C144 N148 1.427 . S
C145 H135 0.929 . S
C145 C143 1.433 . S
C145 N148 1.384 . S
C146 H137 0.929 . S
C146 C138 1.378 . S
C146 C141 1.350 . S
C147 H134 0.929 . S
C147 C139 1.433 . S
C147 N149 1.384 . S
N148 C144 1.427 . S
N148 C145 1.384 . S
N149 C141 1.427 . S
N149 C147 1.384 . S
H150 C156 0.930 . S
H151 C160 0.930 . S
H152 C165 0.929 . S
H153 C163 0.929 . S
H154 C158 0.929 . S
H155 C164 0.929 . S
C156 H150 0.930 . S
C156 C157 1.367 . S
C156 C164 1.378 . S
C157 C156 1.367 . S
C157 C165 1.433 . S
C158 H154 0.929 . S
C158 C160 1.378 . S
C158 C162 1.350 . S
C159 C162 1.463 . S
C159 C164 1.350 . S
C159 N167 1.427 . S
C160 H151 0.930 . S
C160 C158 1.378 . S
C160 C161 1.367 . S
C161 C160 1.367 . S
C161 C163 1.433 . S
C162 C158 1.350 . S
C162 C159 1.463 . S
C162 N166 1.427 . S
C163 H153 0.929 . S
C163 C161 1.433 . S
C163 N166 1.384 . S
C164 H155 0.929 . S
C164 C156 1.378 . S
C164 C159 1.350 . S
C165 H152 0.929 . S
C165 C157 1.433 . S
C165 N167 1.384 . S
N166 C162 1.427 . S
N166 C163 1.384 . S
N167 C159 1.427 . S
N167 C165 1.384 . S
H168 C174 0.930 . S
H169 C178 0.930 . S
H170 C183 0.929 . S
H171 C181 0.929 . S
H172 C176 0.929 . S
H173 C182 0.929 . S
C174 H168 0.930 . S
C174 C175 1.367 . S
C174 C182 1.378 . S
C175 C174 1.367 . S
C175 C183 1.433 . S
C176 H172 0.929 . S
C176 C178 1.378 . S
C176 C180 1.350 . S
C177 C180 1.463 . S
C177 C182 1.350 . S
C177 N185 1.427 . S
C178 H169 0.930 . S
C178 C176 1.378 . S
C178 C179 1.367 . S
C179 C178 1.367 . S
C179 C181 1.433 . S
C180 C176 1.350 . S
C180 C177 1.463 . S
C180 N184 1.427 . S
C181 H171 0.929 . S
C181 C179 1.433 . S
C181 N184 1.384 . S
C182 H173 0.929 . S
C182 C174 1.378 . S
C182 C177 1.350 . S
C183 H170 0.929 . S
C183 C175 1.433 . S
C183 N185 1.384 . S
N184 C180 1.427 . S
N184 C181 1.384 . S
N185 C177 1.427 . S
N185 C183 1.384 . S
H186 C192 0.930 . S
H187 C196 0.930 . S
H188 C201 0.929 . S
H189 C199 0.929 . S
H190 C194 0.929 . S
H191 C200 0.929 . S
C192 H186 0.930 . S
C192 C193 1.367 . S
C192 C200 1.378 . S
C193 C192 1.367 . S
C193 C201 1.433 . S
C194 H190 0.929 . S
C194 C196 1.378 . S
C194 C198 1.350 . S
C195 C198 1.463 . S
C195 C200 1.350 . S
C195 N203 1.427 . S
C196 H187 0.930 . S
C196 C194 1.378 . S
C196 C197 1.367 . S
C197 C196 1.367 . S
C197 C199 1.433 . S
C198 C194 1.350 . S
C198 C195 1.463 . S
C198 N202 1.427 . S
C199 H189 0.929 . S
C199 C197 1.433 . S
C199 N202 1.384 . S
C200 H191 0.929 . S
C200 C192 1.378 . S
C200 C195 1.350 . S
C201 H188 0.929 . S
C201 C193 1.433 . S
C201 N203 1.384 . S
N202 C198 1.427 . S
N202 C199 1.384 . S
N203 C195 1.427 . S
N203 C201 1.384 . S
H204 C210 0.930 . S
H205 C214 0.930 . S
H206 C219 0.929 . S
H207 C217 0.929 . S
H208 C212 0.929 . S
H209 C218 0.929 . S
C210 H204 0.930 . S
C210 C211 1.367 . S
C210 C218 1.378 . S
C211 C210 1.367 . S
C211 C219 1.433 . S
C212 H208 0.929 . S
C212 C214 1.378 . S
C212 C216 1.350 . S
C213 C216 1.463 . S
C213 C218 1.350 . S
C213 N221 1.427 . S
C214 H205 0.930 . S
C214 C212 1.378 . S
C214 C215 1.367 . S
C215 C214 1.367 . S
C215 C217 1.433 . S
C216 C212 1.350 . S
C216 C213 1.463 . S
C216 N220 1.427 . S
C217 H207 0.929 . S
C217 C215 1.433 . S
C217 N220 1.384 . S
C218 H209 0.929 . S
C218 C210 1.378 . S
C218 C213 1.350 . S
C219 H206 0.929 . S
C219 C211 1.433 . S
C219 N221 1.384 . S
N220 C216 1.427 . S
N220 C217 1.384 . S
N221 C213 1.427 . S
N221 C219 1.384 . S
H222 C228 0.930 . S
H223 C232 0.930 . S
H224 C237 0.929 . S
H225 C235 0.929 . S
H226 C230 0.929 . S
H227 C236 0.929 . S
C228 H222 0.930 . S
C228 C229 1.367 . S
C228 C236 1.378 . S
C229 C228 1.367 . S
C229 C237 1.433 . S
C230 H226 0.929 . S
C230 C232 1.378 . S
C230 C234 1.350 . S
C231 C234 1.463 . S
C231 C236 1.350 . S
C231 N239 1.427 . S
C232 H223 0.930 . S
C232 C230 1.378 . S
C232 C233 1.367 . S
C233 C232 1.367 . S
C233 C235 1.433 . S
C234 C230 1.350 . S
C234 C231 1.463 . S
C234 N238 1.427 . S
C235 H225 0.929 . S
C235 C233 1.433 . S
C235 N238 1.384 . S
C236 H227 0.929 . S
C236 C228 1.378 . S
C236 C231 1.350 . S
C237 H224 0.929 . S
C237 C229 1.433 . S
C237 N239 1.384 . S
N238 C234 1.427 . S
N238 C235 1.384 . S
N239 C231 1.427 . S
N239 C237 1.384 . S
H240 C246 0.930 . S
H241 C250 0.930 . S
H242 C255 0.929 . S
H243 C253 0.929 . S
H244 C248 0.929 . S
H245 C254 0.929 . S
C246 H240 0.930 . S
C246 C247 1.367 . S
C246 C254 1.378 . S
C247 C246 1.367 . S
C247 C255 1.433 . S
C248 H244 0.929 . S
C248 C250 1.378 . S
C248 C252 1.350 . S
C249 C252 1.463 . S
C249 C254 1.350 . S
C249 N257 1.427 . S
C250 H241 0.930 . S
C250 C248 1.378 . S
C250 C251 1.367 . S
C251 C250 1.367 . S
C251 C253 1.433 . S
C252 C248 1.350 . S
C252 C249 1.463 . S
C252 N256 1.427 . S
C253 H243 0.929 . S
C253 C251 1.433 . S
C253 N256 1.384 . S
C254 H245 0.929 . S
C254 C246 1.378 . S
C254 C249 1.350 . S
C255 H242 0.929 . S
C255 C247 1.433 . S
C255 N257 1.384 . S
N256 C252 1.427 . S
N256 C253 1.384 . S
N257 C249 1.427 . S
N257 C255 1.384 . S
H258 C264 0.930 . S
H259 C268 0.930 . S
H260 C273 0.929 . S
H261 C271 0.929 . S
H262 C266 0.929 . S
H263 C272 0.929 . S
C264 H258 0.930 . S
C264 C265 1.367 . S
C264 C272 1.378 . S
C265 C264 1.367 . S
C265 C273 1.433 . S
C266 H262 0.929 . S
C266 C268 1.378 . S
C266 C270 1.350 . S
C267 C270 1.463 . S
C267 C272 1.350 . S
C267 N275 1.427 . S
C268 H259 0.930 . S
C268 C266 1.378 . S
C268 C269 1.367 . S
C269 C268 1.367 . S
C269 C271 1.433 . S
C270 C266 1.350 . S
C270 C267 1.463 . S
C270 N274 1.427 . S
C271 H261 0.929 . S
C271 C269 1.433 . S
C271 N274 1.384 . S
C272 H263 0.929 . S
C272 C264 1.378 . S
C272 C267 1.350 . S
C273 H260 0.929 . S
C273 C265 1.433 . S
C273 N275 1.384 . S
N274 C270 1.427 . S
N274 C271 1.384 . S
N275 C267 1.427 . S
N275 C273 1.384 . S
H276 C282 0.930 . S
H277 C286 0.930 . S
H278 C291 0.929 . S
H279 C289 0.929 . S
H280 C284 0.929 . S
H281 C290 0.929 . S
C282 H276 0.930 . S
C282 C283 1.367 . S
C282 C290 1.378 . S
C283 C282 1.367 . S
C283 C291 1.433 . S
C284 H280 0.929 . S
C284 C286 1.378 . S
C284 C288 1.350 . S
C285 C288 1.463 . S
C285 C290 1.350 . S
C285 N293 1.427 . S
C286 H277 0.930 . S
C286 C284 1.378 . S
C286 C287 1.367 . S
C287 C286 1.367 . S
C287 C289 1.433 . S
C288 C284 1.350 . S
C288 C285 1.463 . S
C288 N292 1.427 . S
C289 H279 0.929 . S
C289 C287 1.433 . S
C289 N292 1.384 . S
C290 H281 0.929 . S
C290 C282 1.378 . S
C290 C285 1.350 . S
C291 H278 0.929 . S
C291 C283 1.433 . S
C291 N293 1.384 . S
N292 C288 1.427 . S
N292 C289 1.384 . S
N293 C285 1.427 . S
N293 C291 1.384 . S
H294 C300 0.930 . S
H295 C304 0.930 . S
H296 C309 0.929 . S
H297 C307 0.929 . S
H298 C302 0.929 . S
H299 C308 0.929 . S
C300 H294 0.930 . S
C300 C301 1.367 . S
C300 C308 1.378 . S
C301 C300 1.367 . S
C301 C309 1.433 . S
C302 H298 0.929 . S
C302 C304 1.378 . S
C302 C306 1.350 . S
C303 C306 1.463 . S
C303 C308 1.350 . S
C303 N311 1.427 . S
C304 H295 0.930 . S
C304 C302 1.378 . S
C304 C305 1.367 . S
C305 C304 1.367 . S
C305 C307 1.433 . S
C306 C302 1.350 . S
C306 C303 1.463 . S
C306 N310 1.427 . S
C307 H297 0.929 . S
C307 C305 1.433 . S
C307 N310 1.384 . S
C308 H299 0.929 . S
C308 C300 1.378 . S
C308 C303 1.350 . S
C309 H296 0.929 . S
C309 C301 1.433 . S
C309 N311 1.384 . S
N310 C306 1.427 . S
N310 C307 1.384 . S
N311 C303 1.427 . S
N311 C309 1.384 . S
H312 C318 0.930 . S
H313 C322 0.930 . S
H314 C327 0.929 . S
H315 C325 0.929 . S
H316 C320 0.929 . S
H317 C326 0.929 . S
C318 H312 0.930 . S
C318 C319 1.367 . S
C318 C326 1.378 . S
C319 C318 1.367 . S
C319 C327 1.433 . S
C320 H316 0.929 . S
C320 C322 1.378 . S
C320 C324 1.350 . S
C321 C324 1.463 . S
C321 C326 1.350 . S
C321 N329 1.427 . S
C322 H313 0.930 . S
C322 C320 1.378 . S
C322 C323 1.367 . S
C323 C322 1.367 . S
C323 C325 1.433 . S
C324 C320 1.350 . S
C324 C321 1.463 . S
C324 N328 1.427 . S
C325 H315 0.929 . S
C325 C323 1.433 . S
C325 N328 1.384 . S
C326 H317 0.929 . S
C326 C318 1.378 . S
C326 C321 1.350 . S
C327 H314 0.929 . S
C327 C319 1.433 . S
C327 N329 1.384 . S
N328 C324 1.427 . S
N328 C325 1.384 . S
N329 C321 1.427 . S
N329 C327 1.384 . S
H330 C336 0.930 . S
H331 C340 0.930 . S
H332 C345 0.929 . S
H333 C343 0.929 . S
H334 C338 0.929 . S
H335 C344 0.929 . S
C336 H330 0.930 . S
C336 C337 1.367 . S
C336 C344 1.378 . S
C337 C336 1.367 . S
C337 C345 1.433 . S
C338 H334 0.929 . S
C338 C340 1.378 . S
C338 C342 1.350 . S
C339 C342 1.463 . S
C339 C344 1.350 . S
C339 N347 1.427 . S
C340 H331 0.930 . S
C340 C338 1.378 . S
C340 C341 1.367 . S
C341 C340 1.367 . S
C341 C343 1.433 . S
C342 C338 1.350 . S
C342 C339 1.463 . S
C342 N346 1.427 . S
C343 H333 0.929 . S
C343 C341 1.433 . S
C343 N346 1.384 . S
C344 H335 0.929 . S
C344 C336 1.378 . S
C344 C339 1.350 . S
C345 H332 0.929 . S
C345 C337 1.433 . S
C345 N347 1.384 . S
N346 C342 1.427 . S
N346 C343 1.384 . S
N347 C339 1.427 . S
N347 C345 1.384 . S
H348 C354 0.930 1_655 S
H349 C358 0.930 . S
H350 C363 0.929 . S
H351 C361 0.929 1_655 S
H352 C356 0.929 . S
H353 C362 0.929 1_655 S
C354 H348 0.930 1_455 S
C354 C355 1.367 . S
C354 C362 1.378 . S
C355 C354 1.367 . S
C355 C363 1.433 . S
C356 H352 0.929 . S
C356 C358 1.378 . S
C356 C360 1.350 . S
C357 C360 1.463 1_554 S
C357 C362 1.350 . S
C357 N365 1.427 . S
C358 H349 0.930 . S
C358 C356 1.378 . S
C358 C359 1.367 . S
C359 C358 1.367 . S
C359 C361 1.433 . S
C360 C356 1.350 . S
C360 C357 1.463 1_556 S
C360 N364 1.427 . S
C361 H351 0.929 1_455 S
C361 C359 1.433 . S
C361 N364 1.384 . S
C362 H353 0.929 1_455 S
C362 C354 1.378 . S
C362 C357 1.350 . S
C363 H350 0.929 . S
C363 C355 1.433 . S
C363 N365 1.384 . S
N364 C360 1.427 . S
N364 C361 1.384 . S
N365 C357 1.427 . S
N365 C363 1.384 . S
H366 C372 0.930 . S
H367 C376 0.930 . S
H368 C381 0.929 . S
H369 C379 0.929 . S
H370 C374 0.929 . S
H371 C380 0.929 . S
C372 H366 0.930 . S
C372 C373 1.367 1_565 S
C372 C380 1.378 . S
C373 C372 1.367 1_545 S
C373 C381 1.433 . S
C374 H370 0.929 . S
C374 C376 1.378 . S
C374 C378 1.350 . S
C375 C378 1.463 . S
C375 C380 1.350 1_545 S
C375 N383 1.427 . S
C376 H367 0.930 . S
C376 C374 1.378 . S
C376 C377 1.367 . S
C377 C376 1.367 . S
C377 C379 1.433 1_545 S
C378 C374 1.350 . S
C378 C375 1.463 . S
C378 N382 1.427 1_545 S
C379 H369 0.929 . S
C379 C377 1.433 1_565 S
C379 N382 1.384 . S
C380 H371 0.929 . S
C380 C372 1.378 . S
C380 C375 1.350 1_565 S
C381 H368 0.929 . S
C381 C373 1.433 . S
C381 N383 1.384 . S
N382 C378 1.427 1_565 S
N382 C379 1.384 . S
N383 C375 1.427 . S
N383 C381 1.384 . S
H384 C390 0.930 . S
H385 C394 0.930 . S
H386 C399 0.929 . S
H387 C397 0.929 . S
H388 C392 0.929 . S
H389 C398 0.929 . S
C390 H384 0.930 . S
C390 C391 1.367 . S
C390 C398 1.378 . S
C391 C390 1.367 . S
C391 C399 1.433 . S
C392 H388 0.929 . S
C392 C394 1.378 . S
C392 C396 1.350 . S
C393 C396 1.463 . S
C393 C398 1.350 . S
C393 N401 1.427 . S
C394 H385 0.930 . S
C394 C392 1.378 . S
C394 C395 1.367 . S
C395 C394 1.367 . S
C395 C397 1.433 . S
C396 C392 1.350 . S
C396 C393 1.463 . S
C396 N400 1.427 . S
C397 H387 0.929 . S
C397 C395 1.433 . S
C397 N400 1.384 . S
C398 H389 0.929 . S
C398 C390 1.378 . S
C398 C393 1.350 . S
C399 H386 0.929 . S
C399 C391 1.433 . S
C399 N401 1.384 . S
N400 C396 1.427 . S
N400 C397 1.384 . S
N401 C393 1.427 . S
N401 C399 1.384 . S
H402 C408 0.930 . S
H403 C412 0.930 . S
H404 C417 0.929 . S
H405 C415 0.929 . S
H406 C410 0.929 . S
H407 C416 0.929 . S
C408 H402 0.930 . S
C408 C409 1.367 1_565 S
C408 C416 1.378 . S
C409 C408 1.367 1_545 S
C409 C417 1.433 . S
C410 H406 0.929 . S
C410 C412 1.378 . S
C410 C414 1.350 . S
C411 C414 1.463 . S
C411 C416 1.350 1_545 S
C411 N419 1.427 . S
C412 H403 0.930 . S
C412 C410 1.378 . S
C412 C413 1.367 . S
C413 C412 1.367 . S
C413 C415 1.433 1_545 S
C414 C410 1.350 . S
C414 C411 1.463 . S
C414 N418 1.427 1_545 S
C415 H405 0.929 . S
C415 C413 1.433 1_565 S
C415 N418 1.384 . S
C416 H407 0.929 . S
C416 C408 1.378 . S
C416 C411 1.350 1_565 S
C417 H404 0.929 . S
C417 C409 1.433 . S
C417 N419 1.384 . S
N418 C414 1.427 1_565 S
N418 C415 1.384 . S
N419 C411 1.427 . S
N419 C417 1.384 . S
H420 C426 0.930 . S
H421 C430 0.930 . S
H422 C435 0.929 . S
H423 C433 0.929 . S
H424 C428 0.929 . S
H425 C434 0.929 . S
C426 H420 0.930 . S
C426 C427 1.367 . S
C426 C434 1.378 . S
C427 C426 1.367 . S
C427 C435 1.433 . S
C428 H424 0.929 . S
C428 C430 1.378 . S
C428 C432 1.350 . S
C429 C432 1.463 1_556 S
C429 C434 1.350 . S
C429 N437 1.427 . S
C430 H421 0.930 . S
C430 C428 1.378 . S
C430 C431 1.367 . S
C431 C430 1.367 . S
C431 C433 1.433 . S
C432 C428 1.350 . S
C432 C429 1.463 1_554 S
C432 N436 1.427 . S
C433 H423 0.929 . S
C433 C431 1.433 . S
C433 N436 1.384 . S
C434 H425 0.929 . S
C434 C426 1.378 . S
C434 C429 1.350 . S
C435 H422 0.929 . S
C435 C427 1.433 . S
C435 N437 1.384 . S
N436 C432 1.427 . S
N436 C433 1.384 . S
N437 C429 1.427 . S
N437 C435 1.384 . S
H438 C444 0.930 . S
H439 C448 0.930 . S
H440 C453 0.929 . S
H441 C451 0.929 . S
H442 C446 0.929 . S
H443 C452 0.929 . S
C444 H438 0.930 . S
C444 C445 1.367 . S
C444 C452 1.378 . S
C445 C444 1.367 . S
C445 C453 1.433 . S
C446 H442 0.929 . S
C446 C448 1.378 . S
C446 C450 1.350 . S
C447 C450 1.463 . S
C447 C452 1.350 . S
C447 N455 1.427 . S
C448 H439 0.930 . S
C448 C446 1.378 . S
C448 C449 1.367 . S
C449 C448 1.367 . S
C449 C451 1.433 . S
C450 C446 1.350 . S
C450 C447 1.463 . S
C450 N454 1.427 . S
C451 H441 0.929 . S
C451 C449 1.433 . S
C451 N454 1.384 . S
C452 H443 0.929 . S
C452 C444 1.378 . S
C452 C447 1.350 . S
C453 H440 0.929 . S
C453 C445 1.433 . S
C453 N455 1.384 . S
N454 C450 1.427 . S
N454 C451 1.384 . S
N455 C447 1.427 . S
N455 C453 1.384 . S
C139 C2 1.298 . S
C143 C126 1.304 . S
C157 C21 1.054 . S
C161 C100 1.061 . S
C175 C42 1.140 . S
C179 C112 1.110 . S
C193 C1 0.798 . S
C197 C124 0.811 . S
C215 C102 0.991 . S
C211 C22 0.992 . S
C233 C114 0.908 . S
C229 C41 0.922 . S
C247 C38 1.928 . S
C251 C76 1.874 . S
C265 C59 2.177 . S
C269 C90 2.156 . S
C283 C18 1.783 . S
C287 C66 1.760 . S
C305 C78 1.828 . S
C301 C39 1.860 . S
C323 C88 1.584 . S
C319 C58 1.660 . S
C337 C19 2.004 . S
C341 C64 1.929 . S
C359 C93 1.604 . S
C355 C9 1.534 . S
C373 C29 1.542 . S
C377 C69 1.631 . S
C391 C49 1.541 . S
C395 C81 1.570 . S
C413 C117 1.501 . S
C409 C28 1.483 . S
C431 C129 1.469 . S
C427 C48 1.436 . S
C445 C8 1.404 . S
C449 C105 1.443 . S
