# Generated by pormake.
# Topology ctn, (3,4)-cn, num edge types: 1
# Building blocks:
#     Node 0, Type 0, BuildingBlock: PAMTOO_clean_linker_0, # of connection points: 3
#     Node 1, Type 0, BuildingBlock: PAMTOO_clean_linker_0, # of connection points: 3
#     Node 2, Type 0, BuildingBlock: PAMTOO_clean_linker_0, # of connection points: 3
#     Node 3, Type 0, BuildingBlock: PAMTOO_clean_linker_0, # of connection points: 3
#     Node 4, Type 0, BuildingBlock: PAMTOO_clean_linker_0, # of connection points: 3
#     Node 5, Type 0, BuildingBlock: PAMTOO_clean_linker_0, # of connection points: 3
#     Node 6, Type 0, BuildingBlock: PAMTOO_clean_linker_0, # of connection points: 3
#     Node 7, Type 0, BuildingBlock: PAMTOO_clean_linker_0, # of connection points: 3
#     Node 8, Type 0, BuildingBlock: PAMTOO_clean_linker_0, # of connection points: 3
#     Node 9, Type 0, BuildingBlock: PAMTOO_clean_linker_0, # of connection points: 3
#     Node 10, Type 0, BuildingBlock: PAMTOO_clean_linker_0, # of connection points: 3
#     Node 11, Type 0, BuildingBlock: PAMTOO_clean_linker_0, # of connection points: 3
#     Node 12, Type 0, BuildingBlock: PAMTOO_clean_linker_0, # of connection points: 3
#     Node 13, Type 0, BuildingBlock: PAMTOO_clean_linker_0, # of connection points: 3
#     Node 14, Type 0, BuildingBlock: PAMTOO_clean_linker_0, # of connection points: 3
#     Node 15, Type 0, BuildingBlock: PAMTOO_clean_linker_0, # of connection points: 3
#     Node 16, Type 1, BuildingBlock: TATPOV_clean_sbu_0, # of connection points: 4
#     Node 17, Type 1, BuildingBlock: TATPOV_clean_sbu_0, # of connection points: 4
#     Node 18, Type 1, BuildingBlock: TATPOV_clean_sbu_0, # of connection points: 4
#     Node 19, Type 1, BuildingBlock: TATPOV_clean_sbu_0, # of connection points: 4
#     Node 20, Type 1, BuildingBlock: TATPOV_clean_sbu_0, # of connection points: 4
#     Node 21, Type 1, BuildingBlock: TATPOV_clean_sbu_0, # of connection points: 4
#     Node 22, Type 1, BuildingBlock: TATPOV_clean_sbu_0, # of connection points: 4
#     Node 23, Type 1, BuildingBlock: TATPOV_clean_sbu_0, # of connection points: 4
#     Node 24, Type 1, BuildingBlock: TATPOV_clean_sbu_0, # of connection points: 4
#     Node 25, Type 1, BuildingBlock: TATPOV_clean_sbu_0, # of connection points: 4
#     Node 26, Type 1, BuildingBlock: TATPOV_clean_sbu_0, # of connection points: 4
#     Node 27, Type 1, BuildingBlock: TATPOV_clean_sbu_0, # of connection points: 4
#     Edge 28, Type (0, 1), BuildingBlock: AJUNOK_clean_linker_0, # of connection points: 2
#     Edge 29, Type (0, 1), BuildingBlock: AJUNOK_clean_linker_0, # of connection points: 2
#     Edge 30, Type (0, 1), BuildingBlock: AJUNOK_clean_linker_0, # of connection points: 2
#     Edge 31, Type (0, 1), BuildingBlock: AJUNOK_clean_linker_0, # of connection points: 2
#     Edge 32, Type (0, 1), BuildingBlock: AJUNOK_clean_linker_0, # of connection points: 2
#     Edge 33, Type (0, 1), BuildingBlock: AJUNOK_clean_linker_0, # of connection points: 2
#     Edge 34, Type (0, 1), BuildingBlock: AJUNOK_clean_linker_0, # of connection points: 2
#     Edge 35, Type (0, 1), BuildingBlock: AJUNOK_clean_linker_0, # of connection points: 2
#     Edge 36, Type (0, 1), BuildingBlock: AJUNOK_clean_linker_0, # of connection points: 2
#     Edge 37, Type (0, 1), BuildingBlock: AJUNOK_clean_linker_0, # of connection points: 2
#     Edge 38, Type (0, 1), BuildingBlock: AJUNOK_clean_linker_0, # of connection points: 2
#     Edge 39, Type (0, 1), BuildingBlock: AJUNOK_clean_linker_0, # of connection points: 2
#     Edge 40, Type (0, 1), BuildingBlock: AJUNOK_clean_linker_0, # of connection points: 2
#     Edge 41, Type (0, 1), BuildingBlock: AJUNOK_clean_linker_0, # of connection points: 2
#     Edge 42, Type (0, 1), BuildingBlock: AJUNOK_clean_linker_0, # of connection points: 2
#     Edge 43, Type (0, 1), BuildingBlock: AJUNOK_clean_linker_0, # of connection points: 2
#     Edge 44, Type (0, 1), BuildingBlock: AJUNOK_clean_linker_0, # of connection points: 2
#     Edge 45, Type (0, 1), BuildingBlock: AJUNOK_clean_linker_0, # of connection points: 2
#     Edge 46, Type (0, 1), BuildingBlock: AJUNOK_clean_linker_0, # of connection points: 2
#     Edge 47, Type (0, 1), BuildingBlock: AJUNOK_clean_linker_0, # of connection points: 2
#     Edge 48, Type (0, 1), BuildingBlock: AJUNOK_clean_linker_0, # of connection points: 2
#     Edge 49, Type (0, 1), BuildingBlock: AJUNOK_clean_linker_0, # of connection points: 2
#     Edge 50, Type (0, 1), BuildingBlock: AJUNOK_clean_linker_0, # of connection points: 2
#     Edge 51, Type (0, 1), BuildingBlock: AJUNOK_clean_linker_0, # of connection points: 2
#     Edge 52, Type (0, 1), BuildingBlock: AJUNOK_clean_linker_0, # of connection points: 2
#     Edge 53, Type (0, 1), BuildingBlock: AJUNOK_clean_linker_0, # of connection points: 2
#     Edge 54, Type (0, 1), BuildingBlock: AJUNOK_clean_linker_0, # of connection points: 2
#     Edge 55, Type (0, 1), BuildingBlock: AJUNOK_clean_linker_0, # of connection points: 2
#     Edge 56, Type (0, 1), BuildingBlock: AJUNOK_clean_linker_0, # of connection points: 2
#     Edge 57, Type (0, 1), BuildingBlock: AJUNOK_clean_linker_0, # of connection points: 2
#     Edge 58, Type (0, 1), BuildingBlock: AJUNOK_clean_linker_0, # of connection points: 2
#     Edge 59, Type (0, 1), BuildingBlock: AJUNOK_clean_linker_0, # of connection points: 2
#     Edge 60, Type (0, 1), BuildingBlock: AJUNOK_clean_linker_0, # of connection points: 2
#     Edge 61, Type (0, 1), BuildingBlock: AJUNOK_clean_linker_0, # of connection points: 2
#     Edge 62, Type (0, 1), BuildingBlock: AJUNOK_clean_linker_0, # of connection points: 2
#     Edge 63, Type (0, 1), BuildingBlock: AJUNOK_clean_linker_0, # of connection points: 2
#     Edge 64, Type (0, 1), BuildingBlock: AJUNOK_clean_linker_0, # of connection points: 2
#     Edge 65, Type (0, 1), BuildingBlock: AJUNOK_clean_linker_0, # of connection points: 2
#     Edge 66, Type (0, 1), BuildingBlock: AJUNOK_clean_linker_0, # of connection points: 2
#     Edge 67, Type (0, 1), BuildingBlock: AJUNOK_clean_linker_0, # of connection points: 2
#     Edge 68, Type (0, 1), BuildingBlock: AJUNOK_clean_linker_0, # of connection points: 2
#     Edge 69, Type (0, 1), BuildingBlock: AJUNOK_clean_linker_0, # of connection points: 2
#     Edge 70, Type (0, 1), BuildingBlock: AJUNOK_clean_linker_0, # of connection points: 2
#     Edge 71, Type (0, 1), BuildingBlock: AJUNOK_clean_linker_0, # of connection points: 2
#     Edge 72, Type (0, 1), BuildingBlock: AJUNOK_clean_linker_0, # of connection points: 2
#     Edge 73, Type (0, 1), BuildingBlock: AJUNOK_clean_linker_0, # of connection points: 2
#     Edge 74, Type (0, 1), BuildingBlock: AJUNOK_clean_linker_0, # of connection points: 2
#     Edge 75, Type (0, 1), BuildingBlock: AJUNOK_clean_linker_0, # of connection points: 2
# Relax obj value: 0.073
# Max RMSD: 0.180
# Mean RMSD: 0.115
data_MOF--net-ctn--node1-TATPOV_clean_sbu_0--node2-PAMTOO_clean_linker_0--edge1-AJUNOK_clean_linker_0
_symmetry_space_group_name_H-M    P1
_symmetry_Int_Tables_number       1
_symmetry_cell_setting            triclinic
loop_
_symmetry_equiv_pos_as_xyz
'x, y, z'
_cell_length_a     38.812722
_cell_length_b     39.081734
_cell_length_c     39.656391
_cell_angle_alpha  86.001549
_cell_angle_beta   93.88411
_cell_angle_gamma 99.109008
loop_
_atom_site_label
_atom_site_type_symbol
_atom_site_fract_x
_atom_site_fract_y
_atom_site_fract_z
_atom_type_partial_charge
H0 H 1.00143 0.10816 0.05542 0.0
H1 H 0.05224 0.0245 0.10121 0.0
H2 H 0.08175 0.07127 1.00438 0.0
H3 H 0.07009 0.99367 0.01335 0.0
C4 C 0.08522 0.99146 0.03804 0.0
O5 O 0.09318 0.02366 0.05143 0.0
H6 H 0.06841 0.97359 0.05541 0.0
C7 C 0.02049 0.09075 0.05474 0.0
C8 C 0.04085 0.09266 0.02639 0.0
C9 C 0.0239 0.06592 0.08178 0.0
C10 C 0.04857 0.04329 0.0804 0.0
C11 C 0.0691 0.04511 0.05237 0.0
C12 C 0.06527 0.06976 0.02559 0.0
H13 H 0.3099 0.6671 0.30767 0.0
H14 H 0.23818 0.68562 0.2231 0.0
H15 H 0.33477 0.75431 0.23578 0.0
H16 H 0.26782 0.78502 0.21091 0.0
C17 C 0.25783 0.7647 0.19284 0.0
O18 O 0.27852 0.73887 0.19664 0.0
H19 H 0.23047 0.75355 0.19829 0.0
C20 C 0.30308 0.68271 0.28527 0.0
C21 C 0.32691 0.7115 0.27382 0.0
C22 C 0.27057 0.67374 0.26762 0.0
C23 C 0.26238 0.69317 0.23789 0.0
C24 C 0.28556 0.72203 0.22658 0.0
C25 C 0.31734 0.73158 0.2448 0.0
H26 H 1.00077 0.51129 0.14394 0.0
H27 H 0.9809 0.47423 0.04335 0.0
H28 H 0.04038 0.42014 0.11817 0.0
H29 H 0.06721 0.41854 0.05309 0.0
C30 C 0.045 0.42624 0.03663 0.0
O31 O 0.01559 0.42219 0.05511 0.0
H32 H 0.0526 0.45397 0.02793 0.0
C33 C 1.00354 0.49279 0.12554 0.0
C34 C 0.02231 0.46534 0.13485 0.0
C35 C 0.98853 0.49644 0.09244 0.0
C36 C 0.99263 0.47225 0.06885 0.0
C37 C 0.01142 0.44497 0.07809 0.0
C38 C 0.02589 0.44134 0.11114 0.0
H39 H 0.7225 0.84119 0.28661 0.0
H40 H 0.70056 0.73441 0.26128 0.0
H41 H 0.78844 0.80154 0.22063 0.0
H42 H 0.73163 0.75427 0.17731 0.0
C43 C 0.73856 0.73052 0.19166 0.0
O44 O 0.75406 0.73836 0.22317 0.0
H45 H 0.71379 0.71233 0.19512 0.0
C46 C 0.7291 0.81994 0.27341 0.0
C47 C 0.75824 0.82563 0.2534 0.0
C48 C 0.7078 0.7874 0.27624 0.0
C49 C 0.71692 0.7596 0.25993 0.0
C50 C 0.7462 0.76476 0.24011 0.0
C51 C 0.76665 0.79769 0.23681 0.0
H52 H 0.1147 0.95674 0.53328 0.0
H53 H 0.01948 0.95895 0.4706 0.0
H54 H 0.11198 0.02896 0.44644 0.0
H55 H 0.05167 0.06034 0.4222 0.0
C56 C 0.03161 0.03719 0.42713 0.0
O57 O 0.04686 0.00759 0.42765 0.0
H58 H 0.02111 0.0398 0.45215 0.0
C59 C 0.10016 0.9678 0.51207 0.0
C60 C 0.11712 0.99515 0.49145 0.0
C61 C 0.06506 0.95369 0.50433 0.0
C62 C 0.04682 0.96848 0.47651 0.0
C63 C 0.06388 0.99524 0.4556 0.0
C64 C 0.09897 0.0083 0.4629 0.0
H65 H 0.17762 0.80377 0.8 0.0
H66 H 0.18754 0.71929 0.73874 0.0
H67 H 0.25971 0.74186 0.82358 0.0
H68 H 0.28635 0.72498 0.75371 0.0
C69 C 0.26605 0.7017 0.75052 0.0
O70 O 0.24143 0.70066 0.77437 0.0
H71 H 0.25319 0.70366 0.7247 0.0
C72 C 0.19113 0.78277 0.79441 0.0
C73 C 0.22063 0.77602 0.81492 0.0
C74 C 0.17871 0.76235 0.76694 0.0
C75 C 0.19641 0.73512 0.75994 0.0
C76 C 0.22585 0.72819 0.78007 0.0
C77 C 0.23773 0.74844 0.8075 0.0
H78 H 0.91498 0.56089 0.54642 0.0
H79 H 0.97986 0.50961 0.489 0.0
H80 H 0.01789 0.61148 0.52134 0.0
H81 H 0.05449 0.59937 0.4563 0.0
C82 C 0.03675 0.57412 0.45549 0.0
O83 O 0.03204 0.56053 0.48823 0.0
H84 H 0.01171 0.57962 0.44239 0.0
C85 C 0.93915 0.5609 0.53424 0.0
C86 C 0.96575 0.58988 0.53593 0.0
C87 C 0.94406 0.53158 0.51756 0.0
C88 C 0.9757 0.53172 0.50229 0.0
C89 C 1.00208 0.56045 0.50369 0.0
C90 C 0.99728 0.58925 0.52073 0.0
H91 H 0.78173 0.81734 0.91738 0.0
H92 H 0.86024 0.78027 0.86364 0.0
H93 H 0.79948 0.85272 0.8137 0.0
H94 H 0.80963 0.79397 0.77526 0.0
C95 C 0.83655 0.7907 0.78509 0.0
O96 O 0.84887 0.8158 0.80756 0.0
H97 H 0.83509 0.76441 0.79818 0.0
C98 C 0.79609 0.81743 0.89486 0.0
C99 C 0.78732 0.83762 0.86564 0.0
C100 C 0.82288 0.79691 0.89487 0.0
C101 C 0.84093 0.79721 0.86522 0.0
C102 C 0.83269 0.81753 0.83635 0.0
C103 C 0.80625 0.8379 0.83664 0.0
H104 H 0.27721 0.30068 0.40582 0.0
H105 H 0.36374 0.2771 0.3537 0.0
H106 H 0.30974 0.35971 0.31434 0.0
H107 H 0.31784 0.30693 0.26771 0.0
C108 C 0.34435 0.30157 0.27672 0.0
O109 O 0.35703 0.32203 0.30318 0.0
H110 H 0.34152 0.27365 0.28562 0.0
C111 C 0.29522 0.30663 0.38573 0.0
C112 C 0.29148 0.33419 0.36154 0.0
C113 C 0.32114 0.28569 0.38294 0.0
C114 C 0.34392 0.29323 0.35648 0.0
C115 C 0.33937 0.31946 0.33166 0.0
C116 C 0.31363 0.34018 0.33442 0.0
H117 H 0.48872 0.00395 0.64431 0.0
H118 H 0.46713 0.96209 0.54587 0.0
H119 H 0.52979 0.91261 0.62134 0.0
H120 H 0.55581 0.90888 0.55788 0.0
C121 C 0.53368 0.91591 0.54089 0.0
O122 O 0.50392 0.9118 0.55886 0.0
H123 H 0.54102 0.94354 0.53173 0.0
C124 C 0.49122 0.98456 0.62675 0.0
C125 C 0.51106 0.95803 0.63684 0.0
C126 C 0.47484 0.98621 0.59403 0.0
C127 C 0.4793 0.96134 0.57127 0.0
C128 C 0.49908 0.935 0.58116 0.0
C129 C 0.51434 0.93301 0.61403 0.0
H130 H 0.22487 0.34268 0.78079 0.0
H131 H 0.19299 0.24085 0.7442 0.0
H132 H 0.2912 0.30062 0.71699 0.0
H133 H 0.242 0.26563 0.6623 0.0
C134 C 0.23582 0.23994 0.67636 0.0
O135 O 0.24869 0.24195 0.7096 0.0
H136 H 0.20684 0.23317 0.67564 0.0
C137 C 0.23011 0.32161 0.76645 0.0
C138 C 0.26121 0.32526 0.74954 0.0
C139 C 0.20528 0.29149 0.76458 0.0
C140 C 0.21207 0.26419 0.7461 0.0
C141 C 0.24289 0.26769 0.72861 0.0
C142 C 0.26739 0.29822 0.73033 0.0
H143 H 0.81806 0.16828 0.8124 0.0
H144 H 0.73672 0.17807 0.73448 0.0
H145 H 0.82896 0.25408 0.73748 0.0
H146 H 0.76475 0.27959 0.71906 0.0
C147 C 0.75397 0.26083 0.6997 0.0
O148 O 0.77105 0.23226 0.70277 0.0
H149 H 0.72576 0.2522 0.70367 0.0
C150 C 0.8076 0.18267 0.79078 0.0
C151 C 0.82783 0.21286 0.77712 0.0
C152 C 0.77447 0.17016 0.77594 0.0
C153 C 0.76184 0.18776 0.74673 0.0
C154 C 0.7818 0.21759 0.73272 0.0
C155 C 0.81432 0.23042 0.7482 0.0
H156 H 0.49228 0.58658 0.5541 0.0
H157 H 0.54251 0.50036 0.5946 0.0
H158 H 0.57602 0.55611 0.50285 0.0
H159 H 0.56851 0.48213 0.50035 0.0
C160 C 0.57649 0.47457 0.52697 0.0
O161 O 0.58479 0.50379 0.54538 0.0
H162 H 0.55387 0.45726 0.5379 0.0
C163 C 0.51206 0.57006 0.55298 0.0
C164 C 0.53372 0.57475 0.52537 0.0
C165 C 0.51496 0.54335 0.57837 0.0
C166 C 0.53977 0.52114 0.57552 0.0
C167 C 0.56142 0.52562 0.54817 0.0
C168 C 0.5587 0.55262 0.52355 0.0
H169 H 0.63085 0.46835 0.02481 0.0
H170 H 0.54088 0.46193 0.95397 0.0
H171 H 0.63549 0.52847 0.92957 0.0
H172 H 0.5803 0.55886 0.89411 0.0
C173 C 0.55952 0.53951 0.90552 0.0
O174 O 0.57078 0.50757 0.90943 0.0
H175 H 0.55501 0.54896 0.93051 0.0
C176 C 0.61842 0.47602 1.00078 0.0
C177 C 0.63741 0.50005 0.97828 0.0
C178 C 0.58343 0.46205 0.9925 0.0
C179 C 0.56761 0.47259 0.96126 0.0
C180 C 0.58643 0.49652 0.93879 0.0
C181 C 0.62135 0.50966 0.94705 0.0
H182 H 0.67726 0.29937 0.29693 0.0
H183 H 0.70331 0.22965 0.22653 0.0
H184 H 0.76536 0.24476 0.31907 0.0
H185 H 0.80253 0.2359 0.25247 0.0
C186 C 0.78203 0.21476 0.24342 0.0
O187 O 0.75476 0.2098 0.26479 0.0
H188 H 0.77239 0.22239 0.21736 0.0
C189 C 0.69422 0.2819 0.28984 0.0
C190 C 0.72228 0.27437 0.31218 0.0
C191 C 0.68754 0.26642 0.2585 0.0
C192 C 0.70881 0.24277 0.24994 0.0
C193 C 0.7367 0.23509 0.27178 0.0
C194 C 0.74367 0.25118 0.30245 0.0
H195 H 0.41726 0.07721 0.04867 0.0
H196 H 0.47697 0.01815 0.99357 0.0
H197 H 0.52158 0.12026 0.02106 0.0
H198 H 0.55441 0.10379 0.9569 0.0
C199 C 0.53616 0.07882 0.95683 0.0
O200 O 0.53152 0.06628 0.9899 0.0
H201 H 0.51119 0.08456 0.94374 0.0
C202 C 0.44082 0.07504 0.03633 0.0
C203 C 0.46901 0.10263 0.03672 0.0
C204 C 0.44334 0.04439 0.02064 0.0
C205 C 0.47449 0.04151 0.00572 0.0
C206 C 0.50241 0.06883 0.00581 0.0
C207 C 0.49984 0.0991 0.02156 0.0
Zn208 Zn 0.31096 0.85196 0.9999 0.0
Zn209 Zn 0.25824 0.8873 1.00052 0.0
O210 O 0.25421 0.8551 0.04436 0.0
O211 O 0.29452 0.82199 0.04069 0.0
O212 O 0.21682 0.91332 1.00131 0.0
O213 O 0.34479 0.89567 0.00697 0.0
O214 O 0.30143 0.92604 1.00364 0.0
C215 C 0.27002 0.83028 0.05636 0.0
C216 C 0.268 0.84461 0.93928 0.0
O217 O 0.24982 0.86244 0.95478 0.0
O218 O 0.2965 0.83726 0.95298 0.0
C219 C 0.21065 0.92711 0.028 0.0
O220 O 0.23179 0.92458 0.05506 0.0
C221 C 0.33412 0.92463 0.00714 0.0
Zn222 Zn 0.10167 0.42131 0.33793 0.0
Zn223 Zn 0.14782 0.47929 0.32075 0.0
O224 O 0.12201 0.49475 0.35851 0.0
O225 O 0.08332 0.4493 0.37249 0.0
O226 O 0.18224 0.52183 0.30912 0.0
O227 O 0.14342 0.39552 0.34984 0.0
O228 O 0.179 0.44282 0.33484 0.0
C229 C 0.09677 0.48067 0.37608 0.0
C230 C 0.0911 0.4491 0.26861 0.0
O231 O 0.11711 0.47166 0.2771 0.0
O232 O 0.08012 0.42446 0.2896 0.0
C233 C 0.17164 0.55104 0.30472 0.0
O234 O 0.13829 0.55227 0.30726 0.0
C235 C 0.17424 0.41122 0.34601 0.0
Zn236 Zn 0.8459 0.60777 0.98685 0.0
Zn237 Zn 0.82794 0.6262 0.04674 0.0
O238 O 0.87233 0.60307 0.06014 0.0
O239 O 0.88684 0.58921 0.01062 0.0
O240 O 0.81197 0.64236 0.08985 0.0
O241 O 0.85128 0.65719 0.96771 0.0
O242 O 0.83258 0.67123 0.01538 0.0
C243 C 0.89258 0.58984 0.04238 0.0
C244 C 0.77751 0.57425 0.00548 0.0
O245 O 0.78562 0.5914 0.03176 0.0
O246 O 0.79879 0.5768 0.98222 0.0
C247 C 0.82309 0.67249 0.10011 0.0
O248 O 0.84806 0.69237 0.08404 0.0
C249 C 0.84248 0.67961 0.98553 0.0
Zn250 Zn 0.84434 0.02437 0.29957 0.0
Zn251 Zn 0.88751 0.03121 0.2489 0.0
O252 O 0.86195 0.07484 0.24164 0.0
O253 O 0.8253 0.06737 0.28269 0.0
O254 O 0.91864 0.03435 0.20895 0.0
O255 O 0.88634 0.02669 0.33276 0.0
O256 O 0.92189 0.033 0.29108 0.0
C257 C 0.83782 0.08486 0.25711 0.0
C258 C 0.83122 0.96581 0.26003 0.0
O259 O 0.85695 0.98245 0.24432 0.0
O260 O 0.81983 0.97867 0.28463 0.0
C261 C 0.93807 0.06184 0.19843 0.0
O262 O 0.93849 0.09052 0.214 0.0
C263 C 0.9171 0.0306 0.32273 0.0
Zn264 Zn 0.3287 0.08775 0.48431 0.0
Zn265 Zn 0.31654 0.11886 0.5382 0.0
O266 O 0.35914 0.09377 0.55441 0.0
O267 O 0.37131 0.07219 0.50752 0.0
O268 O 0.30795 0.14713 0.5771 0.0
O269 O 0.33205 0.13148 0.45483 0.0
O270 O 0.32289 0.15793 0.49967 0.0
C271 C 0.37805 0.0769 0.53866 0.0
C272 C 0.26107 0.06208 0.50899 0.0
O273 O 0.27051 0.08496 0.53057 0.0
O274 O 0.28182 0.05757 0.48698 0.0
C275 C 0.28609 0.13717 0.59962 0.0
O276 O 0.26913 0.10529 0.59993 0.0
C277 C 0.32788 0.15889 0.46812 0.0
Zn278 Zn 0.35551 0.521 0.80896 0.0
Zn279 Zn 0.38777 0.53097 0.75149 0.0
O280 O 0.35792 0.57141 0.75019 0.0
O281 O 0.32773 0.55953 0.79581 0.0
O282 O 0.41479 0.54058 0.7084 0.0
O283 O 0.40092 0.52924 0.83667 0.0
O284 O 0.42774 0.53303 0.78918 0.0
C285 C 0.3348 0.57825 0.76911 0.0
C286 C 0.34126 0.4613 0.76926 0.0
O287 O 0.35925 0.48108 0.74772 0.0
O288 O 0.33656 0.4724 0.79756 0.0
C289 C 0.42629 0.51678 0.69413 0.0
O290 O 0.41953 0.48466 0.7069 0.0
C291 C 0.42899 0.53245 0.82147 0.0
Zn292 Zn 0.80881 0.33835 0.50182 0.0
Zn293 Zn 0.75857 0.37699 0.5043 0.0
O294 O 0.75579 0.34573 0.54925 0.0
O295 O 0.79892 0.31553 0.54756 0.0
O296 O 0.71946 0.40603 0.50647 0.0
O297 O 0.84453 0.38161 0.50028 0.0
O298 O 0.8035 0.41359 0.5052 0.0
C299 C 0.77429 0.32374 0.56305 0.0
C300 C 0.76014 0.329 0.44505 0.0
O301 O 0.74709 0.35242 0.4586 0.0
O302 O 0.78629 0.31724 0.45945 0.0
C303 C 0.69195 0.39491 0.52217 0.0
O304 O 0.6884 0.36349 0.5369 0.0
C305 C 0.83571 0.41096 0.50361 0.0
Zn306 Zn 0.59501 0.92245 0.83905 0.0
Zn307 Zn 0.64159 0.97971 0.82072 0.0
O308 O 0.61687 0.99626 0.85864 0.0
O309 O 0.57756 0.95162 0.8733 0.0
O310 O 0.67475 0.0221 0.80619 0.0
O311 O 0.63701 0.89712 0.85112 0.0
O312 O 0.67323 0.94353 0.8349 0.0
C313 C 0.59171 0.98284 0.87661 0.0
C314 C 0.58392 0.94846 0.76969 0.0
O315 O 0.60988 0.971 0.77813 0.0
O316 O 0.57287 0.9239 0.79075 0.0
C317 C 0.69125 0.04243 0.82749 0.0
O318 O 0.68745 0.03477 0.85994 0.0
C319 C 0.66796 0.91209 0.84666 0.0
Zn320 Zn 0.0186 0.3267 0.84923 0.0
Zn321 Zn 0.02684 0.27048 0.88918 0.0
O322 O 0.06866 0.2743 0.85797 0.0
O323 O 0.06303 0.3226 0.82768 0.0
O324 O 0.03231 0.22999 0.92313 0.0
O325 O 0.01896 0.35622 0.8891 0.0
O326 O 0.02912 0.31048 0.92137 0.0
C327 C 0.07927 0.29713 0.83476 0.0
C328 C 0.96184 0.27128 0.84012 0.0
O329 O 0.9785 0.25612 0.86404 0.0
O330 O 0.97373 0.30162 0.8288 0.0
C331 C 0.02776 0.19824 0.91618 0.0
O332 O 0.0195 0.19033 0.8847 0.0
C333 C 0.02489 0.34229 0.91824 0.0
Zn334 Zn 0.51681 0.81473 0.35516 0.0
Zn335 Zn 0.52268 0.75862 0.39565 0.0
O336 O 0.56674 0.76287 0.36712 0.0
O337 O 0.56264 0.81114 0.33619 0.0
O338 O 0.52633 0.7174 0.42922 0.0
O339 O 0.51477 0.84398 0.39467 0.0
O340 O 0.52305 0.79827 0.4279 0.0
C341 C 0.57882 0.78586 0.34466 0.0
C342 C 0.46008 0.7601 0.34346 0.0
O343 O 0.47536 0.74471 0.36823 0.0
O344 O 0.47297 0.79025 0.33247 0.0
C345 C 0.52377 0.68634 0.42052 0.0
O346 O 0.51896 0.68044 0.38821 0.0
C347 C 0.51892 0.8301 0.42414 0.0
Zn348 Zn 0.93368 0.78553 0.60027 0.0
Zn349 Zn 0.99147 0.7782 0.64041 0.0
O350 O 0.00848 0.82145 0.60932 0.0
O351 O 0.96227 0.82514 0.57444 0.0
O352 O 0.03393 0.76973 0.67068 0.0
O353 O 0.90888 0.79348 0.6415 0.0
O354 O 0.95524 0.78486 0.67408 0.0
C355 C 0.99375 0.83598 0.58368 0.0
C356 C 0.95527 0.71981 0.59501 0.0
O357 O 0.97982 0.73275 0.61556 0.0
O358 O 0.93116 0.73707 0.58495 0.0
C359 C 0.05718 0.79353 0.68195 0.0
O360 O 0.05417 0.82611 0.67365 0.0
C361 C 0.92384 0.79096 0.67076 0.0
Zn362 Zn 0.44476 0.30461 0.09366 0.0
Zn363 Zn 0.50158 0.29551 0.1348 0.0
O364 O 0.51995 0.33745 0.10251 0.0
O365 O 0.47327 0.34572 0.06999 0.0
O366 O 0.54241 0.28902 0.16814 0.0
O367 O 0.41813 0.31194 0.13361 0.0
O368 O 0.46411 0.30326 0.16677 0.0
C369 C 0.50532 0.35444 0.07848 0.0
C370 C 0.46631 0.2374 0.0899 0.0
O371 O 0.49026 0.24925 0.11156 0.0
O372 O 0.44377 0.25602 0.07836 0.0
C373 C 0.57396 0.29196 0.16015 0.0
O374 O 0.58113 0.29962 0.12834 0.0
C375 C 0.43284 0.30968 0.16296 0.0
C376 C 0.20876 0.80353 0.86776 0.0
C377 C 0.2328 0.79676 0.84486 0.0
C378 C 0.22007 0.82051 0.8976 0.0
C379 C 0.25584 0.83104 0.90576 0.0
H380 H 0.18108 0.79455 0.86321 0.0
H381 H 0.2008 0.82406 0.91504 0.0
S382 S 0.32887 0.82418 0.85202 0.0
N383 N 0.29364 0.80569 0.83067 0.0
N384 N 0.31492 0.83663 0.88692 0.0
C385 C 0.27995 0.82588 0.88234 0.0
C386 C 0.26844 0.80898 0.8519 0.0
C387 C 0.08798 0.55389 0.43121 0.0
C388 C 0.05193 0.549 0.43591 0.0
C389 C 0.10244 0.53114 0.41246 0.0
C390 C 0.08148 0.50219 0.39852 0.0
H391 H 0.10503 0.5758 0.44158 0.0
H392 H 0.13021 0.53639 0.40868 0.0
S393 S 0.98563 0.4776 0.40448 0.0
N394 N 0.99563 0.51325 0.42538 0.0
N395 N 0.02286 0.46965 0.39125 0.0
C396 C 0.04553 0.49645 0.40398 0.0
C397 C 0.03075 0.52004 0.42244 0.0
C398 C 0.80086 0.75133 0.93938 0.0
C399 C 0.82935 0.77196 0.92395 0.0
C400 C 0.80574 0.72296 0.9619 0.0
C401 C 0.83917 0.71402 0.9694 0.0
H402 H 0.77435 0.7556 0.93236 0.0
H403 H 0.78297 0.70647 0.97156 0.0
S404 S 0.92285 0.76273 0.94092 0.0
N405 N 0.89278 0.7844 0.92238 0.0
N406 N 0.90143 0.72973 0.96308 0.0
C407 C 0.86802 0.73558 0.95614 0.0
C408 C 0.86324 0.76494 0.93386 0.0
C409 C 0.96774 0.02728 0.40805 0.0
C410 C 1.00273 0.03578 0.39966 0.0
C411 C 0.94046 0.02571 0.38297 0.0
C412 C 0.94705 0.03219 0.34836 0.0
H413 H 0.96136 0.02195 0.43427 0.0
H414 H 0.91395 0.01925 0.39093 0.0
S415 S 0.03475 0.05383 0.3133 0.0
N416 N 0.04295 0.04957 0.35467 0.0
N417 N 0.99176 0.04652 0.30721 0.0
C418 C 0.98214 0.04007 0.33963 0.0
C419 C 0.00993 0.0418 0.36533 0.0
C420 C 0.23332 0.17877 0.6583 0.0
C421 C 0.25121 0.21293 0.65933 0.0
C422 C 0.24558 0.15407 0.64006 0.0
C423 C 0.27628 0.16256 0.62218 0.0
H424 H 0.20909 0.17139 0.67086 0.0
H425 H 0.23015 0.12848 0.63908 0.0
S426 S 0.33504 0.24747 0.62087 0.0
N427 N 0.30279 0.25315 0.64396 0.0
N428 N 0.32596 0.20701 0.60953 0.0
C429 C 0.29539 0.19621 0.62464 0.0
C430 C 0.2829 0.22127 0.64333 0.0
C431 C 0.47555 0.50399 0.61721 0.0
C432 C 0.49159 0.53777 0.60738 0.0
C433 C 0.45428 0.49768 0.64492 0.0
C434 C 0.4479 0.52486 0.66403 0.0
H435 H 0.47936 0.48213 0.60328 0.0
H436 H 0.44275 0.47114 0.65136 0.0
S437 S 0.48451 0.61808 0.64952 0.0
N438 N 0.50029 0.59874 0.61958 0.0
N439 N 0.45985 0.58703 0.67122 0.0
C440 C 0.46354 0.55886 0.65433 0.0
C441 C 0.48542 0.56527 0.62616 0.0
C442 C 0.73052 0.28519 0.64312 0.0
C443 C 0.75922 0.27866 0.66499 0.0
C444 C 0.73539 0.30056 0.61028 0.0
C445 C 0.76907 0.30932 0.59815 0.0
H446 H 0.70415 0.27804 0.6513 0.0
H447 H 0.71268 0.30478 0.59404 0.0
S448 S 0.85281 0.30077 0.64673 0.0
N449 N 0.82239 0.28487 0.67317 0.0
N450 N 0.83161 0.31269 0.61145 0.0
C451 C 0.79793 0.30381 0.62017 0.0
C452 C 0.79299 0.28883 0.65361 0.0
C453 C 0.52413 0.92585 0.69179 0.0
C454 C 0.52921 0.95658 0.67089 0.0
C455 C 0.5419 0.92347 0.72364 0.0
C456 C 0.56582 0.95157 0.73562 0.0
H457 H 0.50613 0.90352 0.68349 0.0
H458 H 0.53697 0.89927 0.73886 0.0
S459 S 0.5888 0.03766 0.68985 0.0
N460 N 0.55996 0.0155 0.66388 0.0
N461 N 0.59355 0.01126 0.72361 0.0
C462 C 0.5712 0.98246 0.71474 0.0
C463 C 0.55281 0.98492 0.68245 0.0
C464 C 0.86838 0.22593 0.82851 0.0
C465 C 0.86304 0.22576 0.79294 0.0
C466 C 0.90093 0.23933 0.84391 0.0
C467 C 0.92902 0.25357 0.82425 0.0
H468 H 0.84701 0.21648 0.84459 0.0
H469 H 0.90373 0.23979 0.87125 0.0
S470 S 0.93052 0.25567 0.73079 0.0
N471 N 0.89032 0.23762 0.73894 0.0
N472 N 0.95064 0.26452 0.76791 0.0
C473 C 0.9245 0.25269 0.7889 0.0
C474 C 0.89173 0.23839 0.77323 0.0
C475 C 0.53848 0.86043 0.51355 0.0
C476 C 0.5278 0.89329 0.51112 0.0
C477 C 0.53478 0.8398 0.48554 0.0
C478 C 0.52022 0.85128 0.45407 0.0
H479 H 0.5504 0.85088 0.53711 0.0
H480 H 0.54417 0.81503 0.48843 0.0
S481 S 0.4845 0.93391 0.43603 0.0
N482 N 0.49943 0.9352 0.47598 0.0
N483 N 0.4925 0.89679 0.4232 0.0
C484 C 0.50813 0.88361 0.45184 0.0
C485 C 0.51179 0.90444 0.48042 0.0
C486 C 0.16139 0.26648 0.8072 0.0
C487 C 0.17146 0.29044 0.7802 0.0
C488 C 0.13131 0.26838 0.82456 0.0
C489 C 0.1103 0.2943 0.81543 0.0
H490 H 0.17745 0.24688 0.8156 0.0
H491 H 0.12491 0.24985 0.84565 0.0
S492 S 0.12435 0.36107 0.74395 0.0
N493 N 0.15728 0.33914 0.74359 0.0
N494 N 0.10103 0.34297 0.77559 0.0
C495 C 0.11971 0.31756 0.78749 0.0
C496 C 0.15018 0.31556 0.77006 0.0
C497 C 0.53034 0.63697 0.50665 0.0
C498 C 0.53022 0.60257 0.49826 0.0
C499 C 0.52834 0.66378 0.48141 0.0
C500 C 0.52583 0.65727 0.4467 0.0
H501 H 0.53261 0.64333 0.53294 0.0
H502 H 0.52881 0.68984 0.48928 0.0
S503 S 0.52251 0.571 0.41157 0.0
N504 N 0.52596 0.56307 0.45298 0.0
N505 N 0.52234 0.6132 0.40557 0.0
C506 C 0.52514 0.62277 0.43806 0.0
C507 C 0.52732 0.59554 0.46379 0.0
C508 C 0.84925 0.80346 0.72357 0.0
C509 C 0.86063 0.79314 0.75652 0.0
C510 C 0.87034 0.80354 0.69628 0.0
C511 C 0.90374 0.79345 0.70086 0.0
H512 H 0.82355 0.81086 0.7187 0.0
H513 H 0.85999 0.81106 0.67128 0.0
S514 S 0.94628 0.76638 0.78303 0.0
N515 N 0.90771 0.77422 0.79286 0.0
N516 N 0.9477 0.77443 0.74166 0.0
C517 C 0.91589 0.78426 0.73405 0.0
C518 C 0.89425 0.7841 0.76182 0.0
C519 C 0.05192 0.92071 0.56006 0.0
C520 C 0.04785 0.92281 0.5244 0.0
C521 C 0.03517 0.89205 0.57929 0.0
C522 C 0.01337 0.86485 0.56351 0.0
H523 H 0.06762 0.94165 0.57325 0.0
H524 H 0.03846 0.89167 0.60666 0.0
S525 S 0.99764 0.85537 0.47113 0.0
N526 N 0.02343 0.89301 0.47424 0.0
N527 N 0.9908 0.84022 0.5104 0.0
C528 C 0.00985 0.86612 0.52799 0.0
C529 C 0.02736 0.89482 0.50844 0.0
C530 C 0.14453 0.80366 0.73307 0.0
C531 C 0.14727 0.76956 0.74562 0.0
C532 C 0.11535 0.81109 0.71265 0.0
C533 C 0.08763 0.78474 0.70392 0.0
H534 H 0.16536 0.82475 0.73872 0.0
H535 H 0.11474 0.83775 0.70346 0.0
S536 S 0.08116 0.69135 0.73218 0.0
N537 N 0.11906 0.70942 0.74926 0.0
N538 N 0.06445 0.72313 0.71063 0.0
C539 C 0.0899 0.75053 0.71667 0.0
C540 C 0.11962 0.74301 0.73752 0.0
C541 C 0.98693 0.63636 0.57604 0.0
C542 C 0.96085 0.62129 0.55286 0.0
C543 C 0.98441 0.66765 0.59024 0.0
C544 C 0.95577 0.68527 0.58165 0.0
H545 H 0.00974 0.62405 0.58297 0.0
H546 H 0.00551 0.67841 0.60753 0.0
S547 S 0.87996 0.65594 0.52254 0.0
N548 N 0.90525 0.62577 0.52227 0.0
N549 N 0.90007 0.68436 0.54905 0.0
C550 C 0.92902 0.6699 0.55907 0.0
C551 C 0.93163 0.63798 0.54468 0.0
C552 C 0.76037 0.89001 0.24505 0.0
C553 C 0.77848 0.86132 0.24928 0.0
C554 C 0.77803 0.92403 0.24638 0.0
C555 C 0.81457 0.93085 0.25098 0.0
H556 H 0.7321 0.88613 0.24195 0.0
H557 H 0.76285 0.94515 0.24501 0.0
S558 S 0.87481 0.86577 0.2606 0.0
N559 N 0.83551 0.84243 0.25666 0.0
N560 N 0.8687 0.90678 0.25769 0.0
C561 C 0.83334 0.90282 0.25289 0.0
C562 C 0.81529 0.86794 0.25228 0.0
C563 C 0.83308 0.18091 0.24691 0.0
C564 C 0.79678 0.18124 0.24253 0.0
C565 C 0.84678 0.14953 0.24893 0.0
C566 C 0.82457 0.11757 0.2468 0.0
H567 H 0.85089 0.20493 0.24995 0.0
H568 H 0.87464 0.15016 0.2541 0.0
S569 S 0.72836 0.10455 0.23091 0.0
N570 N 0.73951 0.14704 0.23215 0.0
N571 N 0.76514 0.08818 0.23733 0.0
C572 C 0.78856 0.1177 0.2406 0.0
C573 C 0.7747 0.14953 0.23796 0.0
C574 C 0.42075 0.98107 0.02775 0.0
C575 C 0.41393 0.015 0.01957 0.0
C576 C 0.3946 0.95237 0.02406 0.0
C577 C 0.36032 0.95624 0.01214 0.0
H578 H 0.44674 0.97659 0.03677 0.0
H579 H 0.40155 0.92683 0.03047 0.0
S580 S 0.32862 0.03979 0.98782 0.0
N581 N 0.37034 0.05112 0.99935 0.0
N582 N 0.32077 0.99701 0.99294 0.0
C583 C 0.35279 0.99013 0.00474 0.0
C584 C 0.37966 0.01952 0.00837 0.0
C585 C 0.22772 0.33754 0.36383 0.0
C586 C 0.26234 0.35458 0.36203 0.0
C587 C 0.19944 0.35612 0.35957 0.0
C588 C 0.2047 0.39247 0.35331 0.0
H589 H 0.22235 0.30949 0.36714 0.0
H590 H 0.17324 0.34168 0.36016 0.0
S591 S 0.29085 0.44957 0.35039 0.0
N592 N 0.30062 0.40993 0.35665 0.0
N593 N 0.24776 0.44498 0.34848 0.0
C594 C 0.2394 0.40992 0.35304 0.0
C595 C 0.26811 0.39096 0.35742 0.0
C596 C 0.17816 0.00865 0.47361 0.0
C597 C 0.15429 0.00935 0.49847 0.0
C598 C 0.21287 0.02467 0.478 0.0
C599 C 0.225 0.04251 0.50724 0.0
H600 H 0.16975 0.99608 0.45029 0.0
H601 H 0.22996 0.02392 0.45766 0.0
S602 S 0.17266 0.05033 0.58055 0.0
N603 N 0.14494 0.02776 0.55389 0.0
N604 N 0.2103 0.05844 0.5622 0.0
C605 C 0.20147 0.04254 0.53278 0.0
C606 C 0.1661 0.02578 0.52839 0.0
C607 C 0.73954 0.11147 0.76835 0.0
C608 C 0.75372 0.13779 0.78996 0.0
C609 C 0.71976 0.08068 0.78083 0.0
C610 C 0.71334 0.07493 0.81547 0.0
H611 H 0.744 0.11458 0.74156 0.0
H612 H 0.70942 0.06126 0.76307 0.0
S613 S 0.74386 0.13649 0.88243 0.0
N614 N 0.75941 0.1567 0.84742 0.0
N615 N 0.72253 0.09866 0.87114 0.0
C616 C 0.72748 0.10109 0.8374 0.0
C617 C 0.7476 0.13252 0.8246 0.0
C618 C 0.45698 0.03096 0.55098 0.0
C619 C 0.45311 0.01365 0.58311 0.0
C620 C 0.43388 0.05331 0.53785 0.0
C621 C 0.40608 0.05959 0.55638 0.0
H622 H 0.4774 0.02634 0.53532 0.0
H623 H 0.43706 0.06477 0.51235 0.0
S624 S 0.38579 0.0227 0.64274 0.0
N625 N 0.42026 0.00571 0.63395 0.0
N626 N 0.37722 0.0484 0.6094 0.0
C627 C 0.40314 0.04424 0.5894 0.0
C628 C 0.42655 0.0211 0.60272 0.0
C629 C 0.60731 0.42323 0.54481 0.0
C630 C 0.60757 0.45561 0.52696 0.0
C631 C 0.63482 0.40413 0.54327 0.0
C632 C 0.66388 0.41667 0.52394 0.0
H633 H 0.58537 0.41225 0.55966 0.0
H634 H 0.63303 0.37914 0.55721 0.0
S635 S 0.67769 0.50123 0.47391 0.0
N636 N 0.63957 0.50016 0.49042 0.0
N637 N 0.6915 0.46455 0.48748 0.0
C638 C 0.66481 0.44956 0.50664 0.0
C639 C 0.63666 0.46894 0.50821 0.0
C640 C 0.7372 0.26731 0.3746 0.0
C641 C 0.72859 0.28895 0.34638 0.0
C642 C 0.74606 0.28038 0.40657 0.0
C643 C 0.74597 0.31552 0.41204 0.0
H644 H 0.73761 0.23999 0.37194 0.0
H645 H 0.75352 0.26283 0.42716 0.0
S646 S 0.72463 0.38326 0.34734 0.0
N647 N 0.72037 0.34761 0.32638 0.0
N648 N 0.73566 0.37172 0.38698 0.0
C649 C 0.73603 0.33728 0.38459 0.0
C650 C 0.72763 0.32411 0.35168 0.0
C651 C 0.58602 0.05732 0.9313 0.0
C652 C 0.55035 0.05267 0.93768 0.0
C653 C 0.59935 0.03406 0.91223 0.0
C654 C 0.57765 0.00488 0.89951 0.0
H655 H 0.60359 0.07952 0.94049 0.0
H656 H 0.62683 0.03917 0.90715 0.0
S657 S 0.48249 0.98056 0.91039 0.0
N658 N 0.49367 0.0167 0.93036 0.0
N659 N 0.51881 0.97224 0.89549 0.0
C660 C 0.54214 0.9993 0.90678 0.0
C661 C 0.52849 0.02337 0.92566 0.0
C662 C 0.32505 0.25398 0.44025 0.0
C663 C 0.32206 0.25341 0.40476 0.0
C664 C 0.32725 0.2234 0.46071 0.0
C665 C 0.3265 0.19126 0.44632 0.0
H666 H 0.3262 0.27824 0.45222 0.0
H667 H 0.32972 0.22503 0.48794 0.0
S668 S 0.31538 0.17589 0.3544 0.0
N669 N 0.31583 0.21799 0.35614 0.0
N670 N 0.32036 0.16087 0.39406 0.0
C671 C 0.32275 0.19048 0.41074 0.0
C672 C 0.32038 0.22144 0.39012 0.0
C673 C 0.49397 0.53362 0.89768 0.0
C674 C 0.5264 0.53722 0.88313 0.0
C675 C 0.46286 0.5324 0.87747 0.0
C676 C 0.46283 0.53437 0.8418 0.0
H677 H 0.49266 0.53203 0.92497 0.0
H678 H 0.43861 0.52983 0.89009 0.0
S679 S 0.54131 0.54181 0.79149 0.0
N680 N 0.55698 0.54128 0.83127 0.0
N681 N 0.4985 0.53884 0.79296 0.0
C682 C 0.49523 0.53724 0.82695 0.0
C683 C 0.52696 0.53855 0.84768 0.0
C684 C 0.75484 0.68008 0.16266 0.0
C685 C 0.76294 0.71488 0.17121 0.0
C686 C 0.77528 0.66621 0.14079 0.0
C687 C 0.80469 0.68656 0.1266 0.0
H688 H 0.73193 0.66372 0.17216 0.0
H689 H 0.76725 0.63957 0.13419 0.0
S690 S 0.83847 0.77855 0.14367 0.0
N691 N 0.80327 0.76878 0.16569 0.0
N692 N 0.84205 0.74295 0.12492 0.0
C693 C 0.81392 0.72102 0.13631 0.0
C694 C 0.79297 0.73509 0.15851 0.0
C695 C 0.99926 0.09431 0.12772 0.0
C696 C 1.00194 0.06401 0.11154 0.0
C697 C 0.97879 0.09325 0.15577 0.0
C698 C 0.95983 0.06186 0.16875 0.0
H699 H 0.01341 0.11909 0.11882 0.0
H700 H 0.97779 0.11739 0.16727 0.0
S701 S 0.95713 0.9752 0.1346 0.0
N702 N 0.98327 1.00179 0.10993 0.0
N703 N 0.94492 0.99959 0.16258 0.0
C704 C 0.96216 0.03133 0.15261 0.0
C705 C 0.98318 0.03244 0.12411 0.0
C706 C 0.26886 0.76357 0.13037 0.0
C707 C 0.25823 0.78084 0.15698 0.0
C708 C 0.27125 0.77934 0.09765 0.0
C709 C 0.26227 0.8126 0.08989 0.0
H710 H 0.27627 0.738 0.13484 0.0
H711 H 0.28084 0.76551 0.07838 0.0
S712 S 0.22848 0.86679 0.14941 0.0
N713 N 0.23557 0.83159 0.1727 0.0
N714 N 0.23951 0.8611 0.11092 0.0
C715 C 0.24943 0.82922 0.11568 0.0
C716 C 0.24746 0.81331 0.14921 0.0
C717 C 0.07089 0.48181 0.17785 0.0
C718 C 0.03869 0.46164 0.16928 0.0
C719 C 0.08774 0.47738 0.20993 0.0
C720 C 0.07294 0.45258 0.23456 0.0
H721 H 0.08329 0.50085 0.15949 0.0
H722 H 0.11263 0.49346 0.21534 0.0
S723 S 0.98778 0.39441 0.22415 0.0
N724 N 0.99202 0.4168 0.1874 0.0
N725 N 0.02317 0.40834 0.24788 0.0
C726 C 0.04037 0.43249 0.2261 0.0
C727 C 0.02337 0.43706 0.1934 0.0
C728 C 0.36515 0.7208 0.32741 0.0
C729 C 0.36186 0.72045 0.29177 0.0
C730 C 0.39756 0.73182 0.34447 0.0
C731 C 0.42756 0.74317 0.3264 0.0
H732 H 0.34232 0.71374 0.34215 0.0
H733 H 0.39879 0.73304 0.37175 0.0
S734 S 0.43438 0.74249 0.23373 0.0
N735 N 0.39273 0.72829 0.23967 0.0
N736 N 0.45296 0.75049 0.27165 0.0
C737 C 0.42502 0.74148 0.29109 0.0
C738 C 0.39235 0.72974 0.27379 0.0
C739 C 0.04873 0.37145 0.00759 0.0
C740 C 0.03814 0.40431 0.00637 0.0
C741 C 0.04375 0.3513 0.97921 0.0
C742 C 0.02794 0.36325 0.94852 0.0
H743 H 0.06148 0.36148 0.03052 0.0
H744 H 0.05303 0.32647 0.98119 0.0
S745 S 0.9922 0.4462 0.93376 0.0
N746 N 0.00875 0.44681 0.97322 0.0
N747 N 0.9994 0.4093 0.91972 0.0
C748 C 0.01608 0.39564 0.94749 0.0
C749 C 0.02106 0.416 0.97647 0.0
C750 C 0.65234 0.80921 0.28476 0.0
C751 C 0.6744 0.78433 0.29341 0.0
C752 C 0.62169 0.809 0.30135 0.0
C753 C 0.61143 0.78388 0.32747 0.0
H754 H 0.6589 0.82925 0.26495 0.0
H755 H 0.60602 0.8291 0.29351 0.0
S756 S 0.65974 0.71222 0.35926 0.0
N757 N 0.68383 0.73334 0.32935 0.0
N758 N 0.62577 0.73268 0.36066 0.0
C759 C 0.6329 0.75826 0.33602 0.0
C760 C 0.66439 0.75851 0.31892 0.0
C761 C 0.03828 0.15403 1.00428 0.0
C762 C 0.037 0.11891 0.99785 0.0
C763 C 0.0355 0.17938 0.97777 0.0
C764 C 0.03099 0.17064 0.94366 0.0
H765 H 0.04196 0.1621 0.03004 0.0
H766 H 0.03681 0.20606 0.98418 0.0
S767 S 0.02459 0.08179 0.9135 0.0
N768 N 0.02997 0.0764 0.95508 0.0
N769 N 0.02477 0.12381 0.90521 0.0
C770 C 0.02933 0.13544 0.93695 0.0
C771 C 0.03236 0.10968 0.964 0.0
C772 C 0.39973 0.29272 0.25129 0.0
C773 C 0.36898 0.30774 0.24846 0.0
C774 C 0.42124 0.29484 0.22397 0.0
C775 C 0.41259 0.31192 0.19284 0.0
H776 H 0.40651 0.27824 0.27443 0.0
H777 H 0.44395 0.28173 0.22683 0.0
S778 S 0.33746 0.3598 0.17436 0.0
N779 N 0.33296 0.34347 0.21363 0.0
N780 N 0.37306 0.34723 0.1621 0.0
C781 C 0.38293 0.32874 0.19043 0.0
C782 C 0.36124 0.32678 0.21833 0.0
C783 C 0.57945 0.40849 0.03189 0.0
C784 C 0.56372 0.43614 0.01627 0.0
C785 C 0.56086 0.38281 0.05312 0.0
C786 C 0.52574 0.38361 0.05915 0.0
H787 H 0.60605 0.40611 0.02695 0.0
H788 H 0.5737 0.36153 0.06384 0.0
S789 S 0.47385 0.45263 0.02805 0.0
N790 N 0.51206 0.46458 0.01139 0.0
N791 N 0.47682 0.41575 0.05022 0.0
C792 C 0.51008 0.41169 0.04468 0.0
C793 C 0.52912 0.43805 0.02349 0.0
C794 C 0.66432 0.28307 0.20021 0.0
C795 C 0.65822 0.27428 0.23453 0.0
C796 C 0.63704 0.28906 0.17659 0.0
C797 C 0.60238 0.28634 0.18621 0.0
H798 H 0.69049 0.28532 0.19149 0.0
H799 H 0.64326 0.29563 0.15048 0.0
S800 S 0.57249 0.26337 0.27318 0.0
N801 N 0.615 0.26269 0.27704 0.0
N802 N 0.56365 0.27414 0.23289 0.0
C803 C 0.59597 0.27776 0.22062 0.0
C804 C 0.62387 0.27174 0.24469 0.0
C805 C 0.49334 0.15071 0.07421 0.0
C806 C 0.46633 0.13569 0.05191 0.0
C807 C 0.49275 0.1832 0.08689 0.0
C808 C 0.46521 0.20213 0.07756 0.0
H809 H 0.51532 0.13734 0.08173 0.0
H810 H 0.51441 0.19377 0.10366 0.0
S811 S 0.38778 0.17368 0.02003 0.0
N812 N 0.41116 0.14179 0.02117 0.0
N813 N 0.40962 0.20264 0.04507 0.0
C814 C 0.43765 0.18697 0.05569 0.0
C815 C 0.43828 0.15383 0.04289 0.0
C816 C 0.29693 0.36879 0.78545 0.0
C817 C 0.28667 0.3576 0.7529 0.0
C818 C 0.31585 0.40177 0.79011 0.0
C819 C 0.3254 0.42512 0.76241 0.0
H820 H 0.28918 0.35229 0.80762 0.0
H821 H 0.32218 0.40931 0.81585 0.0
S822 S 0.30729 0.40724 0.67175 0.0
N823 N 0.28915 0.37137 0.69232 0.0
N824 N 0.32523 0.43367 0.70105 0.0
C825 C 0.3171 0.41356 0.72959 0.0
C826 C 0.29761 0.37972 0.72484 0.0
C827 C 0.31859 0.67094 0.74801 0.0
C828 C 0.28293 0.66906 0.7541 0.0
C829 C 0.33505 0.64119 0.75133 0.0
C830 C 0.31645 0.60854 0.76107 0.0
H831 H 0.33402 0.69572 0.74111 0.0
H832 H 0.36274 0.64397 0.74748 0.0
S833 S 0.22166 0.58855 0.77503 0.0
N834 N 0.22876 0.6309 0.76617 0.0
N835 N 0.25993 0.57544 0.77374 0.0
C836 C 0.28053 0.60603 0.76574 0.0
C837 C 0.26366 0.63612 0.76175 0.0
C838 C 0.88162 0.50461 0.5052 0.0
C839 C 0.91628 0.50077 0.51567 0.0
C840 C 0.85557 0.47552 0.50141 0.0
C841 C 0.86333 0.44158 0.50772 0.0
H842 H 0.87475 0.53024 0.49924 0.0
H843 H 0.82934 0.47967 0.49298 0.0
S844 S 0.94933 0.41784 0.53932 0.0
N845 N 0.95625 0.46063 0.53503 0.0
N846 N 0.90784 0.4061 0.52733 0.0
C847 C 0.89777 0.43754 0.51902 0.0
C848 C 0.92407 0.46707 0.52314 0.0
C849 C 0.7609 0.89165 0.8516 0.0
C850 C 0.75708 0.85681 0.86417 0.0
C851 C 0.73211 0.90941 0.84682 0.0
C852 C 0.69819 0.89299 0.85413 0.0
H853 H 0.78634 0.90519 0.845 0.0
H854 H 0.73653 0.9361 0.83667 0.0
S855 S 0.67442 0.80177 0.888 0.0
N856 N 0.71702 0.80646 0.88415 0.0
N857 N 0.66283 0.8397 0.87542 0.0
C858 C 0.69416 0.85823 0.8674 0.0
C859 C 0.72361 0.84022 0.87237 0.0
C860 C 0.69986 0.51716 0.9645 0.0
C861 C 0.67368 0.51623 0.98748 0.0
C862 C 0.73359 0.535 0.97112 0.0
C863 C 0.74247 0.55286 1.00092 0.0
H864 H 0.69407 0.50437 0.94095 0.0
H865 H 0.75259 0.53539 0.95225 0.0
S866 S 0.68317 0.55751 0.06969 0.0
N867 N 0.65874 0.53396 0.04145 0.0
N868 N 0.72219 0.56736 0.05423 0.0
C869 C 0.71667 0.55126 0.02462 0.0
C870 C 0.68229 0.53298 0.01782 0.0
C871 C 0.25618 0.61062 0.28518 0.0
C872 C 0.24547 0.64329 0.27921 0.0
C873 C 0.23218 0.58103 0.29366 0.0
C874 C 0.19657 0.58304 0.29664 0.0
H875 H 0.28314 0.60774 0.28242 0.0
H876 H 0.24164 0.55634 0.29751 0.0
S877 S 0.15612 0.66349 0.28607 0.0
N878 N 0.19762 0.67657 0.27869 0.0
N879 N 0.15236 0.62114 0.29452 0.0
C880 C 0.18579 0.61588 0.29159 0.0
C881 C 0.21026 0.64594 0.28289 0.0
C882 C 0.93998 0.52986 0.1016 0.0
C883 C 0.96779 0.52478 0.08239 0.0
C884 C 0.91694 0.55303 0.08977 0.0
C885 C 0.92096 0.57178 0.0583 0.0
H886 H 0.93488 0.51448 0.12504 0.0
H887 H 0.89469 0.55463 0.10435 0.0
S888 S 0.99336 0.57246 1.00156 0.0
N889 N 1.00082 0.54395 0.03284 0.0
N890 N 0.95756 0.58706 0.01043 0.0
C891 C 0.95019 0.56876 0.04018 0.0
C892 C 0.97357 0.54536 0.05224 0.0
C893 C 0.13928 0.96868 0.06316 0.0
C894 C 0.11833 0.97649 0.03422 0.0
C895 C 0.16924 0.95321 0.06078 0.0
C896 C 0.17938 0.94466 0.02932 0.0
H897 H 0.13217 0.97424 0.08793 0.0
H898 H 0.18421 0.94743 0.08394 0.0
S899 S 0.13399 0.9611 0.94562 0.0
N900 N 0.1103 0.9756 0.97295 0.0
N901 N 0.16634 0.94633 0.96837 0.0
C902 C 0.15885 0.95282 1.00007 0.0
C903 C 0.12843 0.96878 1.00253 0.0
loop_
_geom_bond_atom_site_label_1
_geom_bond_atom_site_label_2
_geom_bond_distance
_geom_bond_site_symmetry_2
_ccdc_geom_bond_type
H0 C7 0.929 . S
H1 C10 0.951 . S
H2 C12 0.929 1_556 S
H3 C4 0.969 . S
C4 H3 0.969 . S
C4 O5 1.550 1_565 S
C4 H6 0.973 . S
O5 C4 1.550 1_545 S
O5 C11 1.412 . S
H6 C4 0.973 . S
C7 H0 0.929 . S
C7 C8 1.400 1_655 S
C7 C9 1.364 1_655 S
C8 C7 1.400 1_455 S
C8 C12 1.377 . S
C9 C7 1.364 1_455 S
C9 C10 1.374 . S
C10 H1 0.951 . S
C10 C9 1.374 . S
C10 C11 1.383 . S
C11 O5 1.412 . S
C11 C10 1.383 . S
C11 C12 1.394 . S
C12 H2 0.929 1_554 S
C12 C8 1.377 . S
C12 C11 1.394 . S
H13 C20 0.929 . S
H14 C23 0.930 . S
H15 C25 0.929 . S
H16 C17 0.969 . S
C17 H16 0.969 . S
C17 O18 1.550 . S
C17 H19 0.973 . S
O18 C17 1.550 . S
O18 C24 1.412 . S
H19 C17 0.973 . S
C20 H13 0.929 . S
C20 C21 1.400 . S
C20 C22 1.364 . S
C21 C20 1.400 . S
C21 C25 1.377 . S
C22 C20 1.364 . S
C22 C23 1.374 . S
C23 H14 0.930 . S
C23 C22 1.374 . S
C23 C24 1.383 . S
C24 O18 1.412 . S
C24 C23 1.383 . S
C24 C25 1.394 . S
C25 H15 0.929 . S
C25 C21 1.377 . S
C25 C24 1.394 . S
H26 C33 0.929 . S
H27 C36 0.930 . S
H28 C38 0.929 1_455 S
H29 C30 0.969 . S
C30 H29 0.969 . S
C30 O31 1.550 . S
C30 H32 0.973 . S
O31 C30 1.550 . S
O31 C37 1.412 . S
H32 C30 0.973 . S
C33 H26 0.929 . S
C33 C34 1.400 . S
C33 C35 1.364 . S
C34 C33 1.400 . S
C34 C38 1.377 . S
C35 C33 1.364 . S
C35 C36 1.374 . S
C36 H27 0.930 . S
C36 C35 1.374 . S
C36 C37 1.383 . S
C37 O31 1.412 . S
C37 C36 1.383 . S
C37 C38 1.394 . S
C38 H28 0.929 1_655 S
C38 C34 1.377 . S
C38 C37 1.394 . S
H39 C46 0.929 . S
H40 C49 0.930 . S
H41 C51 0.929 . S
H42 C43 0.969 . S
C43 H42 0.969 . S
C43 O44 1.550 . S
C43 H45 0.973 . S
O44 C43 1.550 . S
O44 C50 1.412 . S
H45 C43 0.973 . S
C46 H39 0.929 . S
C46 C47 1.400 . S
C46 C48 1.364 . S
C47 C46 1.400 . S
C47 C51 1.377 . S
C48 C46 1.364 . S
C48 C49 1.374 . S
C49 H40 0.930 . S
C49 C48 1.374 . S
C49 C50 1.383 . S
C50 O44 1.412 . S
C50 C49 1.383 . S
C50 C51 1.394 . S
C51 H41 0.929 . S
C51 C47 1.377 . S
C51 C50 1.394 . S
H52 C59 0.929 . S
H53 C62 0.930 . S
H54 C64 0.929 1_545 S
H55 C56 0.969 . S
C56 H55 0.969 . S
C56 O57 1.550 . S
C56 H58 0.973 . S
O57 C56 1.550 . S
O57 C63 1.412 . S
H58 C56 0.973 . S
C59 H52 0.929 . S
C59 C60 1.400 . S
C59 C61 1.364 . S
C60 C59 1.400 . S
C60 C64 1.377 . S
C61 C59 1.364 . S
C61 C62 1.374 . S
C62 H53 0.930 . S
C62 C61 1.374 . S
C62 C63 1.383 . S
C63 O57 1.412 . S
C63 C62 1.383 . S
C63 C64 1.394 . S
C64 H54 0.929 1_565 S
C64 C60 1.377 . S
C64 C63 1.394 . S
H65 C72 0.929 . S
H66 C75 0.930 . S
H67 C77 0.929 . S
H68 C69 0.969 . S
C69 H68 0.969 . S
C69 O70 1.550 . S
C69 H71 0.973 . S
O70 C69 1.550 . S
O70 C76 1.412 . S
H71 C69 0.973 . S
C72 H65 0.929 . S
C72 C73 1.400 . S
C72 C74 1.364 . S
C73 C72 1.400 . S
C73 C77 1.377 . S
C74 C72 1.364 . S
C74 C75 1.374 . S
C75 H66 0.930 . S
C75 C74 1.374 . S
C75 C76 1.383 . S
C76 O70 1.412 . S
C76 C75 1.383 . S
C76 C77 1.394 . S
C77 H67 0.929 . S
C77 C73 1.377 . S
C77 C76 1.394 . S
H78 C85 0.929 . S
H79 C88 0.930 . S
H80 C90 0.910 1_455 S
H81 C82 0.969 . S
C82 H81 0.969 . S
C82 O83 1.550 . S
C82 H84 0.973 . S
O83 C82 1.550 . S
O83 C89 1.412 1_455 S
H84 C82 0.973 . S
C85 H78 0.929 . S
C85 C86 1.400 . S
C85 C87 1.364 . S
C86 C85 1.400 . S
C86 C90 1.397 . S
C87 C85 1.364 . S
C87 C88 1.374 . S
C88 H79 0.930 . S
C88 C87 1.374 . S
C88 C89 1.383 . S
C89 O83 1.412 1_655 S
C89 C88 1.383 . S
C89 C90 1.394 . S
C90 H80 0.910 1_655 S
C90 C86 1.397 . S
C90 C89 1.394 . S
H91 C98 0.929 . S
H92 C101 0.930 . S
H93 C103 0.929 . S
H94 C95 0.969 . S
C95 H94 0.969 . S
C95 O96 1.550 . S
C95 H97 0.973 . S
O96 C95 1.550 . S
O96 C102 1.412 . S
H97 C95 0.973 . S
C98 H91 0.929 . S
C98 C99 1.400 . S
C98 C100 1.364 . S
C99 C98 1.400 . S
C99 C103 1.377 . S
C100 C98 1.364 . S
C100 C101 1.374 . S
C101 H92 0.930 . S
C101 C100 1.374 . S
C101 C102 1.383 . S
C102 O96 1.412 . S
C102 C101 1.383 . S
C102 C103 1.394 . S
C103 H93 0.929 . S
C103 C99 1.377 . S
C103 C102 1.394 . S
H104 C111 0.929 . S
H105 C114 0.930 . S
H106 C116 0.929 . S
H107 C108 0.969 . S
C108 H107 0.969 . S
C108 O109 1.550 . S
C108 H110 0.973 . S
O109 C108 1.550 . S
O109 C115 1.412 . S
H110 C108 0.973 . S
C111 H104 0.929 . S
C111 C112 1.400 . S
C111 C113 1.364 . S
C112 C111 1.400 . S
C112 C116 1.377 . S
C113 C111 1.364 . S
C113 C114 1.374 . S
C114 H105 0.930 . S
C114 C113 1.374 . S
C114 C115 1.383 . S
C115 O109 1.412 . S
C115 C114 1.383 . S
C115 C116 1.394 . S
C116 H106 0.929 . S
C116 C112 1.377 . S
C116 C115 1.394 . S
H117 C124 0.929 1_545 S
H118 C127 0.930 . S
H119 C129 0.929 . S
H120 C121 0.969 . S
C121 H120 0.969 . S
C121 O122 1.550 . S
C121 H123 0.973 . S
O122 C121 1.550 . S
O122 C128 1.412 . S
H123 C121 0.973 . S
C124 H117 0.929 1_565 S
C124 C125 1.400 . S
C124 C126 1.364 . S
C125 C124 1.400 . S
C125 C129 1.377 . S
C126 C124 1.364 . S
C126 C127 1.374 . S
C127 H118 0.930 . S
C127 C126 1.374 . S
C127 C128 1.383 . S
C128 O122 1.412 . S
C128 C127 1.383 . S
C128 C129 1.394 . S
C129 H119 0.929 . S
C129 C125 1.377 . S
C129 C128 1.394 . S
H130 C137 0.929 . S
H131 C140 0.930 . S
H132 C142 0.929 . S
H133 C134 0.969 . S
C134 H133 0.969 . S
C134 O135 1.550 . S
C134 H136 0.973 . S
O135 C134 1.550 . S
O135 C141 1.412 . S
H136 C134 0.973 . S
C137 H130 0.929 . S
C137 C138 1.400 . S
C137 C139 1.364 . S
C138 C137 1.400 . S
C138 C142 1.377 . S
C139 C137 1.364 . S
C139 C140 1.374 . S
C140 H131 0.930 . S
C140 C139 1.374 . S
C140 C141 1.383 . S
C141 O135 1.412 . S
C141 C140 1.383 . S
C141 C142 1.394 . S
C142 H132 0.929 . S
C142 C138 1.377 . S
C142 C141 1.394 . S
H143 C150 0.929 . S
H144 C153 0.930 . S
H145 C155 0.929 . S
H146 C147 0.969 . S
C147 H146 0.969 . S
C147 O148 1.550 . S
C147 H149 0.973 . S
O148 C147 1.550 . S
O148 C154 1.412 . S
H149 C147 0.973 . S
C150 H143 0.929 . S
C150 C151 1.400 . S
C150 C152 1.364 . S
C151 C150 1.400 . S
C151 C155 1.377 . S
C152 C150 1.364 . S
C152 C153 1.374 . S
C153 H144 0.930 . S
C153 C152 1.374 . S
C153 C154 1.383 . S
C154 O148 1.412 . S
C154 C153 1.383 . S
C154 C155 1.394 . S
C155 H145 0.929 . S
C155 C151 1.377 . S
C155 C154 1.394 . S
H156 C163 0.929 . S
H157 C166 0.930 . S
H158 C168 0.929 . S
H159 C160 0.969 . S
C160 H159 0.969 . S
C160 O161 1.550 . S
C160 H162 0.973 . S
O161 C160 1.550 . S
O161 C167 1.412 . S
H162 C160 0.973 . S
C163 H156 0.929 . S
C163 C164 1.400 . S
C163 C165 1.364 . S
C164 C163 1.400 . S
C164 C168 1.377 . S
C165 C163 1.364 . S
C165 C166 1.374 . S
C166 H157 0.930 . S
C166 C165 1.374 . S
C166 C167 1.383 . S
C167 O161 1.412 . S
C167 C166 1.383 . S
C167 C168 1.394 . S
C168 H158 0.929 . S
C168 C164 1.377 . S
C168 C167 1.394 . S
H169 C176 0.929 . S
H170 C179 0.930 . S
H171 C181 0.929 . S
H172 C173 0.969 . S
C173 H172 0.969 . S
C173 O174 1.550 . S
C173 H175 0.973 . S
O174 C173 1.550 . S
O174 C180 1.412 . S
H175 C173 0.973 . S
C176 H169 0.929 . S
C176 C177 1.400 1_554 S
C176 C178 1.364 1_554 S
C177 C176 1.400 1_556 S
C177 C181 1.377 . S
C178 C176 1.364 1_556 S
C178 C179 1.374 . S
C179 H170 0.930 . S
C179 C178 1.374 . S
C179 C180 1.383 . S
C180 O174 1.412 . S
C180 C179 1.383 . S
C180 C181 1.394 . S
C181 H171 0.929 . S
C181 C177 1.377 . S
C181 C180 1.394 . S
H182 C189 0.929 . S
H183 C192 0.930 . S
H184 C194 0.929 . S
H185 C186 0.969 . S
C186 H185 0.969 . S
C186 O187 1.550 . S
C186 H188 0.973 . S
O187 C186 1.550 . S
O187 C193 1.412 . S
H188 C186 0.973 . S
C189 H182 0.929 . S
C189 C190 1.400 . S
C189 C191 1.364 . S
C190 C189 1.400 . S
C190 C194 1.377 . S
C191 C189 1.364 . S
C191 C192 1.374 . S
C192 H183 0.930 . S
C192 C191 1.374 . S
C192 C193 1.383 . S
C193 O187 1.412 . S
C193 C192 1.383 . S
C193 C194 1.394 . S
C194 H184 0.929 . S
C194 C190 1.377 . S
C194 C193 1.394 . S
H195 C202 0.929 . S
H196 C205 0.930 . S
H197 C207 0.929 . S
H198 C199 0.969 . S
C199 H198 0.969 . S
C199 O200 1.550 . S
C199 H201 0.973 . S
O200 C199 1.550 . S
O200 C206 1.412 . S
H201 C199 0.973 . S
C202 H195 0.929 . S
C202 C203 1.400 . S
C202 C204 1.364 1_554 S
C203 C202 1.400 . S
C203 C207 1.377 1_554 S
C204 C202 1.364 1_556 S
C204 C205 1.374 . S
C205 H196 0.930 . S
C205 C204 1.374 . S
C205 C206 1.383 . S
C206 O200 1.412 . S
C206 C205 1.383 . S
C206 C207 1.394 . S
C207 H197 0.929 . S
C207 C203 1.377 1_556 S
C207 C206 1.394 . S
Zn208 O211 2.033 1_556 S
Zn208 O213 2.048 . S
Zn208 O218 2.065 . S
Zn209 O210 1.962 . S
Zn209 O212 1.986 . S
Zn209 O214 1.996 . S
Zn209 O217 1.943 1_554 S
O210 Zn209 1.962 . S
O210 C215 1.254 . S
O211 Zn208 2.033 1_554 S
O211 C215 1.269 . S
O212 Zn209 1.986 . S
O212 C219 1.262 . S
O213 Zn208 2.048 . S
O213 C221 1.260 . S
O214 Zn209 1.996 . S
O214 C221 1.257 1_554 S
C215 O210 1.254 . S
C215 O211 1.269 . S
C216 O217 1.249 . S
C216 O218 1.270 . S
O217 Zn209 1.943 1_556 S
O217 C216 1.249 . S
O218 Zn208 2.065 . S
O218 C216 1.270 . S
C219 O212 1.262 . S
C219 O220 1.232 . S
O220 C219 1.232 . S
C221 O213 1.260 . S
C221 O214 1.257 1_556 S
Zn222 O225 2.031 . S
Zn222 O227 2.049 . S
Zn222 O232 2.067 . S
Zn223 O224 1.962 . S
Zn223 O226 1.986 . S
Zn223 O228 1.996 . S
Zn223 O231 1.943 . S
O224 Zn223 1.962 . S
O224 C229 1.254 . S
O225 Zn222 2.031 . S
O225 C229 1.269 . S
O226 Zn223 1.986 . S
O226 C233 1.262 . S
O227 Zn222 2.049 . S
O227 C235 1.260 . S
O228 Zn223 1.996 . S
O228 C235 1.257 . S
C229 O224 1.254 . S
C229 O225 1.269 . S
C230 O231 1.249 . S
C230 O232 1.270 . S
O231 Zn223 1.943 . S
O231 C230 1.249 . S
O232 Zn222 2.067 . S
O232 C230 1.270 . S
C233 O226 1.262 . S
C233 O234 1.232 . S
O234 C233 1.232 . S
C235 O227 1.260 . S
C235 O228 1.257 . S
Zn236 O239 2.031 1_556 S
Zn236 O241 2.049 . S
Zn236 O246 2.067 . S
Zn237 O238 1.962 . S
Zn237 O240 1.986 . S
Zn237 O242 1.996 . S
Zn237 O245 1.943 . S
O238 Zn237 1.962 . S
O238 C243 1.254 . S
O239 Zn236 2.031 1_554 S
O239 C243 1.269 . S
O240 Zn237 1.986 . S
O240 C247 1.262 . S
O241 Zn236 2.049 . S
O241 C249 1.260 . S
O242 Zn237 1.996 . S
O242 C249 1.257 1_554 S
C243 O238 1.254 . S
C243 O239 1.269 . S
C244 O245 1.249 . S
C244 O246 1.270 1_554 S
O245 Zn237 1.943 . S
O245 C244 1.249 . S
O246 Zn236 2.067 . S
O246 C244 1.270 1_556 S
C247 O240 1.262 . S
C247 O248 1.232 . S
O248 C247 1.232 . S
C249 O241 1.260 . S
C249 O242 1.257 1_556 S
Zn250 O253 2.031 . S
Zn250 O255 2.049 1_545 S
Zn250 O260 2.067 1_545 S
Zn251 O252 1.962 . S
Zn251 O254 1.986 . S
Zn251 O256 1.996 . S
Zn251 O259 1.943 1_545 S
O252 Zn251 1.962 . S
O252 C257 1.254 . S
O253 Zn250 2.031 . S
O253 C257 1.269 . S
O254 Zn251 1.986 . S
O254 C261 1.262 . S
O255 Zn250 2.049 1_565 S
O255 C263 1.260 1_565 S
O256 Zn251 1.996 . S
O256 C263 1.257 . S
C257 O252 1.254 . S
C257 O253 1.269 . S
C258 O259 1.249 . S
C258 O260 1.270 . S
O259 Zn251 1.943 1_565 S
O259 C258 1.249 . S
O260 Zn250 2.067 1_565 S
O260 C258 1.270 . S
C261 O254 1.262 . S
C261 O262 1.232 . S
O262 C261 1.232 . S
C263 O255 1.260 1_545 S
C263 O256 1.257 . S
Zn264 O267 2.031 . S
Zn264 O269 2.049 . S
Zn264 O274 2.067 . S
Zn265 O266 1.962 . S
Zn265 O268 1.986 . S
Zn265 O270 1.996 . S
Zn265 O273 1.943 . S
O266 Zn265 1.962 . S
O266 C271 1.254 . S
O267 Zn264 2.031 . S
O267 C271 1.269 . S
O268 Zn265 1.986 . S
O268 C275 1.262 . S
O269 Zn264 2.049 . S
O269 C277 1.260 . S
O270 Zn265 1.996 . S
O270 C277 1.257 . S
C271 O266 1.254 . S
C271 O267 1.269 . S
C272 O273 1.249 . S
C272 O274 1.270 . S
O273 Zn265 1.943 . S
O273 C272 1.249 . S
O274 Zn264 2.067 . S
O274 C272 1.270 . S
C275 O268 1.262 . S
C275 O276 1.232 . S
O276 C275 1.232 . S
C277 O269 1.260 . S
C277 O270 1.257 . S
Zn278 O281 2.031 . S
Zn278 O283 2.049 . S
Zn278 O288 2.067 . S
Zn279 O280 1.962 . S
Zn279 O282 1.986 . S
Zn279 O284 1.996 . S
Zn279 O287 1.943 . S
O280 Zn279 1.962 . S
O280 C285 1.254 . S
O281 Zn278 2.031 . S
O281 C285 1.269 . S
O282 Zn279 1.986 . S
O282 C289 1.262 . S
O283 Zn278 2.049 . S
O283 C291 1.260 . S
O284 Zn279 1.996 . S
O284 C291 1.257 . S
C285 O280 1.254 . S
C285 O281 1.269 . S
C286 O287 1.249 . S
C286 O288 1.270 . S
O287 Zn279 1.943 . S
O287 C286 1.249 . S
O288 Zn278 2.067 . S
O288 C286 1.270 . S
C289 O282 1.262 . S
C289 O290 1.232 . S
O290 C289 1.232 . S
C291 O283 1.260 . S
C291 O284 1.257 . S
Zn292 O295 2.031 . S
Zn292 O297 2.049 . S
Zn292 O302 2.067 . S
Zn293 O294 1.962 . S
Zn293 O296 1.986 . S
Zn293 O298 1.996 . S
Zn293 O301 1.943 . S
O294 Zn293 1.962 . S
O294 C299 1.254 . S
O295 Zn292 2.031 . S
O295 C299 1.269 . S
O296 Zn293 1.986 . S
O296 C303 1.262 . S
O297 Zn292 2.049 . S
O297 C305 1.260 . S
O298 Zn293 1.996 . S
O298 C305 1.257 . S
C299 O294 1.254 . S
C299 O295 1.269 . S
C300 O301 1.249 . S
C300 O302 1.270 . S
O301 Zn293 1.943 . S
O301 C300 1.249 . S
O302 Zn292 2.067 . S
O302 C300 1.270 . S
C303 O296 1.262 . S
C303 O304 1.232 . S
O304 C303 1.232 . S
C305 O297 1.260 . S
C305 O298 1.257 . S
Zn306 O309 2.031 . S
Zn306 O311 2.049 . S
Zn306 O316 2.067 . S
Zn307 O308 1.962 . S
Zn307 O310 1.986 . S
Zn307 O312 1.996 1_545 S
Zn307 O315 1.943 . S
O308 Zn307 1.962 . S
O308 C313 1.254 . S
O309 Zn306 2.031 . S
O309 C313 1.269 1_565 S
O310 Zn307 1.986 . S
O310 C317 1.262 . S
O311 Zn306 2.049 . S
O311 C319 1.260 . S
O312 Zn307 1.996 1_565 S
O312 C319 1.257 . S
C313 O308 1.254 . S
C313 O309 1.269 1_545 S
C314 O315 1.249 1_565 S
C314 O316 1.270 . S
O315 Zn307 1.943 . S
O315 C314 1.249 1_545 S
O316 Zn306 2.067 . S
O316 C314 1.270 . S
C317 O310 1.262 . S
C317 O318 1.232 . S
O318 C317 1.232 . S
C319 O311 1.260 . S
C319 O312 1.257 . S
Zn320 O323 2.031 . S
Zn320 O325 2.049 1_455 S
Zn320 O330 2.067 1_455 S
Zn321 O322 1.962 . S
Zn321 O324 1.986 . S
Zn321 O326 1.996 . S
Zn321 O329 1.943 1_455 S
O322 Zn321 1.962 . S
O322 C327 1.254 . S
O323 Zn320 2.031 . S
O323 C327 1.269 . S
O324 Zn321 1.986 . S
O324 C331 1.262 . S
O325 Zn320 2.049 1_655 S
O325 C333 1.260 . S
O326 Zn321 1.996 . S
O326 C333 1.257 1_455 S
C327 O322 1.254 . S
C327 O323 1.269 . S
C328 O329 1.249 . S
C328 O330 1.270 . S
O329 Zn321 1.943 1_655 S
O329 C328 1.249 . S
O330 Zn320 2.067 1_655 S
O330 C328 1.270 . S
C331 O324 1.262 . S
C331 O332 1.232 . S
O332 C331 1.232 . S
C333 O325 1.260 . S
C333 O326 1.257 1_655 S
Zn334 O337 2.031 . S
Zn334 O339 2.049 . S
Zn334 O344 2.067 . S
Zn335 O336 1.962 . S
Zn335 O338 1.986 . S
Zn335 O340 1.996 . S
Zn335 O343 1.943 . S
O336 Zn335 1.962 . S
O336 C341 1.254 . S
O337 Zn334 2.031 . S
O337 C341 1.269 . S
O338 Zn335 1.986 . S
O338 C345 1.262 . S
O339 Zn334 2.049 . S
O339 C347 1.260 . S
O340 Zn335 1.996 . S
O340 C347 1.257 . S
C341 O336 1.254 . S
C341 O337 1.269 . S
C342 O343 1.249 . S
C342 O344 1.270 . S
O343 Zn335 1.943 . S
O343 C342 1.249 . S
O344 Zn334 2.067 . S
O344 C342 1.270 . S
C345 O338 1.262 . S
C345 O346 1.232 . S
O346 C345 1.232 . S
C347 O339 1.260 . S
C347 O340 1.257 . S
Zn348 O351 2.031 1_655 S
Zn348 O353 2.049 . S
Zn348 O358 2.067 . S
Zn349 O350 1.962 . S
Zn349 O352 1.986 . S
Zn349 O354 1.996 1_455 S
Zn349 O357 1.943 . S
O350 Zn349 1.962 . S
O350 C355 1.254 . S
O351 Zn348 2.031 1_455 S
O351 C355 1.269 . S
O352 Zn349 1.986 . S
O352 C359 1.262 . S
O353 Zn348 2.049 . S
O353 C361 1.260 . S
O354 Zn349 1.996 1_655 S
O354 C361 1.257 . S
C355 O350 1.254 . S
C355 O351 1.269 . S
C356 O357 1.249 . S
C356 O358 1.270 1_455 S
O357 Zn349 1.943 . S
O357 C356 1.249 . S
O358 Zn348 2.067 . S
O358 C356 1.270 1_655 S
C359 O352 1.262 . S
C359 O360 1.232 . S
O360 C359 1.232 . S
C361 O353 1.260 . S
C361 O354 1.257 . S
Zn362 O365 2.031 . S
Zn362 O367 2.049 . S
Zn362 O372 2.067 . S
Zn363 O364 1.962 . S
Zn363 O366 1.986 . S
Zn363 O368 1.996 . S
Zn363 O371 1.943 . S
O364 Zn363 1.962 . S
O364 C369 1.254 . S
O365 Zn362 2.031 . S
O365 C369 1.269 . S
O366 Zn363 1.986 . S
O366 C373 1.262 . S
O367 Zn362 2.049 . S
O367 C375 1.260 . S
O368 Zn363 1.996 . S
O368 C375 1.257 . S
C369 O364 1.254 . S
C369 O365 1.269 . S
C370 O371 1.249 . S
C370 O372 1.270 . S
O371 Zn363 1.943 . S
O371 C370 1.249 . S
O372 Zn362 2.067 . S
O372 C370 1.270 . S
C373 O366 1.262 . S
C373 O374 1.232 . S
O374 C373 1.232 . S
C375 O367 1.260 . S
C375 O368 1.257 . S
C376 C377 1.369 . S
C376 C378 1.419 . S
C376 H380 0.930 . S
C377 C376 1.369 . S
C377 C386 1.429 . S
C378 C376 1.419 . S
C378 C379 1.363 . S
C378 H381 0.929 . S
C379 C378 1.363 . S
C379 C385 1.428 . S
H380 C376 0.930 . S
H381 C378 0.929 . S
S382 N383 1.613 . S
S382 N384 1.610 . S
N383 S382 1.613 . S
N383 C386 1.350 . S
N384 S382 1.610 . S
N384 C385 1.351 . S
C385 C379 1.428 . S
C385 N384 1.351 . S
C385 C386 1.434 . S
C386 C377 1.429 . S
C386 N383 1.350 . S
C386 C385 1.434 . S
C387 C388 1.369 . S
C387 C389 1.419 . S
C387 H391 0.930 . S
C388 C387 1.369 . S
C388 C397 1.429 . S
C389 C387 1.419 . S
C389 C390 1.363 . S
C389 H392 0.929 . S
C390 C389 1.363 . S
C390 C396 1.428 . S
H391 C387 0.930 . S
H392 C389 0.929 . S
S393 N394 1.613 . S
S393 N395 1.610 1_655 S
N394 S393 1.613 . S
N394 C397 1.350 1_655 S
N395 S393 1.610 1_455 S
N395 C396 1.351 . S
C396 C390 1.428 . S
C396 N395 1.351 . S
C396 C397 1.434 . S
C397 C388 1.429 . S
C397 N394 1.350 1_455 S
C397 C396 1.434 . S
C398 C399 1.369 . S
C398 C400 1.419 . S
C398 H402 0.930 . S
C399 C398 1.369 . S
C399 C408 1.429 . S
C400 C398 1.419 . S
C400 C401 1.363 . S
C400 H403 0.929 . S
C401 C400 1.363 . S
C401 C407 1.428 . S
H402 C398 0.930 . S
H403 C400 0.929 . S
S404 N405 1.613 . S
S404 N406 1.610 . S
N405 S404 1.613 . S
N405 C408 1.350 . S
N406 S404 1.610 . S
N406 C407 1.351 . S
C407 C401 1.428 . S
C407 N406 1.351 . S
C407 C408 1.434 . S
C408 C399 1.429 . S
C408 N405 1.350 . S
C408 C407 1.434 . S
C409 C410 1.340 1_655 S
C409 C411 1.419 . S
C409 H413 0.930 . S
C410 C409 1.340 1_455 S
C410 C419 1.416 1_565 S
C411 C409 1.419 . S
C411 C412 1.363 . S
C411 H414 0.929 . S
C412 C411 1.363 . S
C412 C418 1.428 1_565 S
H413 C409 0.930 . S
H414 C411 0.929 . S
S415 N416 1.613 . S
S415 N417 1.637 . S
N416 S415 1.613 . S
N416 C419 1.361 . S
N417 S415 1.637 . S
N417 C418 1.343 1_455 S
C418 C412 1.428 1_545 S
C418 N417 1.343 1_655 S
C418 C419 1.445 1_655 S
C419 C410 1.416 1_545 S
C419 N416 1.361 . S
C419 C418 1.445 1_455 S
C420 C421 1.369 . S
C420 C422 1.419 . S
C420 H424 0.930 . S
C421 C420 1.369 . S
C421 C430 1.429 . S
C422 C420 1.419 . S
C422 C423 1.363 . S
C422 H425 0.929 . S
C423 C422 1.363 . S
C423 C429 1.428 . S
H424 C420 0.930 . S
H425 C422 0.929 . S
S426 N427 1.613 . S
S426 N428 1.610 . S
N427 S426 1.613 . S
N427 C430 1.350 . S
N428 S426 1.610 . S
N428 C429 1.351 . S
C429 C423 1.428 . S
C429 N428 1.351 . S
C429 C430 1.434 . S
C430 C421 1.429 . S
C430 N427 1.350 . S
C430 C429 1.434 . S
C431 C432 1.369 . S
C431 C433 1.419 . S
C431 H435 0.930 . S
C432 C431 1.369 . S
C432 C441 1.429 . S
C433 C431 1.419 . S
C433 C434 1.363 . S
C433 H436 0.929 . S
C434 C433 1.363 . S
C434 C440 1.428 . S
H435 C431 0.930 . S
H436 C433 0.929 . S
S437 N438 1.613 . S
S437 N439 1.610 . S
N438 S437 1.613 . S
N438 C441 1.350 . S
N439 S437 1.610 . S
N439 C440 1.351 . S
C440 C434 1.428 . S
C440 N439 1.351 . S
C440 C441 1.434 . S
C441 C432 1.429 . S
C441 N438 1.350 . S
C441 C440 1.434 . S
C442 C443 1.369 . S
C442 C444 1.419 . S
C442 H446 0.930 . S
C443 C442 1.369 . S
C443 C452 1.429 . S
C444 C442 1.419 . S
C444 C445 1.363 . S
C444 H447 0.929 . S
C445 C444 1.363 . S
C445 C451 1.428 . S
H446 C442 0.930 . S
H447 C444 0.929 . S
S448 N449 1.613 . S
S448 N450 1.610 . S
N449 S448 1.613 . S
N449 C452 1.350 . S
N450 S448 1.610 . S
N450 C451 1.351 . S
C451 C445 1.428 . S
C451 N450 1.351 . S
C451 C452 1.434 . S
C452 C443 1.429 . S
C452 N449 1.350 . S
C452 C451 1.434 . S
C453 C454 1.369 . S
C453 C455 1.419 . S
C453 H457 0.930 . S
C454 C453 1.369 . S
C454 C463 1.429 . S
C455 C453 1.419 . S
C455 C456 1.363 . S
C455 H458 0.929 . S
C456 C455 1.363 . S
C456 C462 1.428 . S
H457 C453 0.930 . S
H458 C455 0.929 . S
S459 N460 1.613 . S
S459 N461 1.610 . S
N460 S459 1.613 . S
N460 C463 1.350 1_545 S
N461 S459 1.610 . S
N461 C462 1.351 1_545 S
C462 C456 1.428 . S
C462 N461 1.351 1_565 S
C462 C463 1.434 . S
C463 C454 1.429 . S
C463 N460 1.350 1_565 S
C463 C462 1.434 . S
C464 C465 1.369 . S
C464 C466 1.419 . S
C464 H468 0.930 . S
C465 C464 1.369 . S
C465 C474 1.429 . S
C466 C464 1.419 . S
C466 C467 1.363 . S
C466 H469 0.929 . S
C467 C466 1.363 . S
C467 C473 1.428 . S
H468 C464 0.930 . S
H469 C466 0.929 . S
S470 N471 1.613 . S
S470 N472 1.610 . S
N471 S470 1.613 . S
N471 C474 1.350 . S
N472 S470 1.610 . S
N472 C473 1.351 . S
C473 C467 1.428 . S
C473 N472 1.351 . S
C473 C474 1.434 . S
C474 C465 1.429 . S
C474 N471 1.350 . S
C474 C473 1.434 . S
C475 C476 1.369 . S
C475 C477 1.419 . S
C475 H479 0.930 . S
C476 C475 1.369 . S
C476 C485 1.429 . S
C477 C475 1.419 . S
C477 C478 1.363 . S
C477 H480 0.929 . S
C478 C477 1.363 . S
C478 C484 1.428 . S
H479 C475 0.930 . S
H480 C477 0.929 . S
S481 N482 1.613 . S
S481 N483 1.610 . S
N482 S481 1.613 . S
N482 C485 1.350 . S
N483 S481 1.610 . S
N483 C484 1.351 . S
C484 C478 1.428 . S
C484 N483 1.351 . S
C484 C485 1.434 . S
C485 C476 1.429 . S
C485 N482 1.350 . S
C485 C484 1.434 . S
C486 C487 1.369 . S
C486 C488 1.419 . S
C486 H490 0.930 . S
C487 C486 1.369 . S
C487 C496 1.429 . S
C488 C486 1.419 . S
C488 C489 1.363 . S
C488 H491 0.929 . S
C489 C488 1.363 . S
C489 C495 1.428 . S
H490 C486 0.930 . S
H491 C488 0.929 . S
S492 N493 1.613 . S
S492 N494 1.610 . S
N493 S492 1.613 . S
N493 C496 1.350 . S
N494 S492 1.610 . S
N494 C495 1.351 . S
C495 C489 1.428 . S
C495 N494 1.351 . S
C495 C496 1.434 . S
C496 C487 1.429 . S
C496 N493 1.350 . S
C496 C495 1.434 . S
C497 C498 1.369 . S
C497 C499 1.419 . S
C497 H501 0.930 . S
C498 C497 1.369 . S
C498 C507 1.429 . S
C499 C497 1.419 . S
C499 C500 1.363 . S
C499 H502 0.929 . S
C500 C499 1.363 . S
C500 C506 1.428 . S
H501 C497 0.930 . S
H502 C499 0.929 . S
S503 N504 1.613 . S
S503 N505 1.610 . S
N504 S503 1.613 . S
N504 C507 1.350 . S
N505 S503 1.610 . S
N505 C506 1.351 . S
C506 C500 1.428 . S
C506 N505 1.351 . S
C506 C507 1.434 . S
C507 C498 1.429 . S
C507 N504 1.350 . S
C507 C506 1.434 . S
C508 C509 1.369 . S
C508 C510 1.419 . S
C508 H512 0.930 . S
C509 C508 1.369 . S
C509 C518 1.429 . S
C510 C508 1.419 . S
C510 C511 1.363 . S
C510 H513 0.929 . S
C511 C510 1.363 . S
C511 C517 1.428 . S
H512 C508 0.930 . S
H513 C510 0.929 . S
S514 N515 1.613 . S
S514 N516 1.610 . S
N515 S514 1.613 . S
N515 C518 1.350 . S
N516 S514 1.610 . S
N516 C517 1.351 . S
C517 C511 1.428 . S
C517 N516 1.351 . S
C517 C518 1.434 . S
C518 C509 1.429 . S
C518 N515 1.350 . S
C518 C517 1.434 . S
C519 C520 1.369 . S
C519 C521 1.419 . S
C519 H523 0.930 . S
C520 C519 1.369 . S
C520 C529 1.429 . S
C521 C519 1.419 . S
C521 C522 1.363 . S
C521 H524 0.929 . S
C522 C521 1.363 . S
C522 C528 1.428 . S
H523 C519 0.930 . S
H524 C521 0.929 . S
S525 N526 1.613 . S
S525 N527 1.610 . S
N526 S525 1.613 . S
N526 C529 1.350 . S
N527 S525 1.610 . S
N527 C528 1.351 . S
C528 C522 1.428 . S
C528 N527 1.351 . S
C528 C529 1.434 . S
C529 C520 1.429 . S
C529 N526 1.350 . S
C529 C528 1.434 . S
C530 C531 1.369 . S
C530 C532 1.419 . S
C530 H534 0.930 . S
C531 C530 1.369 . S
C531 C540 1.429 . S
C532 C530 1.419 . S
C532 C533 1.363 . S
C532 H535 0.929 . S
C533 C532 1.363 . S
C533 C539 1.428 . S
H534 C530 0.930 . S
H535 C532 0.929 . S
S536 N537 1.613 . S
S536 N538 1.610 . S
N537 S536 1.613 . S
N537 C540 1.350 . S
N538 S536 1.610 . S
N538 C539 1.351 . S
C539 C533 1.428 . S
C539 N538 1.351 . S
C539 C540 1.434 . S
C540 C531 1.429 . S
C540 N537 1.350 . S
C540 C539 1.434 . S
C541 C542 1.369 . S
C541 C543 1.418 . S
C541 H545 0.930 . S
C542 C541 1.369 . S
C542 C551 1.429 . S
C543 C541 1.418 . S
C543 C544 1.357 . S
C543 H546 0.930 1_655 S
C544 C543 1.357 . S
C544 C550 1.436 . S
H545 C541 0.930 . S
H546 C543 0.930 1_455 S
S547 N548 1.613 . S
S547 N549 1.610 . S
N548 S547 1.613 . S
N548 C551 1.350 . S
N549 S547 1.610 . S
N549 C550 1.351 . S
C550 C544 1.436 . S
C550 N549 1.351 . S
C550 C551 1.434 . S
C551 C542 1.429 . S
C551 N548 1.350 . S
C551 C550 1.434 . S
C552 C553 1.369 . S
C552 C554 1.419 . S
C552 H556 0.930 . S
C553 C552 1.369 . S
C553 C562 1.429 . S
C554 C552 1.419 . S
C554 C555 1.363 . S
C554 H557 0.929 . S
C555 C554 1.363 . S
C555 C561 1.428 . S
H556 C552 0.930 . S
H557 C554 0.929 . S
S558 N559 1.613 . S
S558 N560 1.610 . S
N559 S558 1.613 . S
N559 C562 1.350 . S
N560 S558 1.610 . S
N560 C561 1.351 . S
C561 C555 1.428 . S
C561 N560 1.351 . S
C561 C562 1.434 . S
C562 C553 1.429 . S
C562 N559 1.350 . S
C562 C561 1.434 . S
C563 C564 1.369 . S
C563 C565 1.419 . S
C563 H567 0.930 . S
C564 C563 1.369 . S
C564 C573 1.429 . S
C565 C563 1.419 . S
C565 C566 1.363 . S
C565 H568 0.929 . S
C566 C565 1.363 . S
C566 C572 1.428 . S
H567 C563 0.930 . S
H568 C565 0.929 . S
S569 N570 1.613 . S
S569 N571 1.610 . S
N570 S569 1.613 . S
N570 C573 1.350 . S
N571 S569 1.610 . S
N571 C572 1.351 . S
C572 C566 1.428 . S
C572 N571 1.351 . S
C572 C573 1.434 . S
C573 C564 1.429 . S
C573 N570 1.350 . S
C573 C572 1.434 . S
C574 C575 1.369 1_565 S
C574 C576 1.419 . S
C574 H578 0.930 . S
C575 C574 1.369 1_545 S
C575 C584 1.429 . S
C576 C574 1.419 . S
C576 C577 1.363 . S
C576 H579 0.929 . S
C577 C576 1.363 . S
C577 C583 1.428 1_565 S
H578 C574 0.930 . S
H579 C576 0.929 . S
S580 N581 1.613 . S
S580 N582 1.610 . S
N581 S580 1.613 . S
N581 C584 1.350 . S
N582 S580 1.610 . S
N582 C583 1.351 . S
C583 C577 1.428 1_545 S
C583 N582 1.351 . S
C583 C584 1.434 . S
C584 C575 1.429 . S
C584 N581 1.350 . S
C584 C583 1.434 . S
C585 C586 1.369 . S
C585 C587 1.419 . S
C585 H589 0.930 . S
C586 C585 1.369 . S
C586 C595 1.429 . S
C587 C585 1.419 . S
C587 C588 1.363 . S
C587 H590 0.929 . S
C588 C587 1.363 . S
C588 C594 1.428 . S
H589 C585 0.930 . S
H590 C587 0.929 . S
S591 N592 1.613 . S
S591 N593 1.610 . S
N592 S591 1.613 . S
N592 C595 1.350 . S
N593 S591 1.610 . S
N593 C594 1.351 . S
C594 C588 1.428 . S
C594 N593 1.351 . S
C594 C595 1.434 . S
C595 C586 1.429 . S
C595 N592 1.350 . S
C595 C594 1.434 . S
C596 C597 1.369 . S
C596 C598 1.419 . S
C596 H600 0.930 1_545 S
C597 C596 1.369 . S
C597 C606 1.429 . S
C598 C596 1.419 . S
C598 C599 1.363 . S
C598 H601 0.929 . S
C599 C598 1.363 . S
C599 C605 1.428 . S
H600 C596 0.930 1_565 S
H601 C598 0.929 . S
S602 N603 1.613 . S
S602 N604 1.610 . S
N603 S602 1.613 . S
N603 C606 1.350 . S
N604 S602 1.610 . S
N604 C605 1.351 . S
C605 C599 1.428 . S
C605 N604 1.351 . S
C605 C606 1.434 . S
C606 C597 1.429 . S
C606 N603 1.350 . S
C606 C605 1.434 . S
C607 C608 1.369 . S
C607 C609 1.419 . S
C607 H611 0.930 . S
C608 C607 1.369 . S
C608 C617 1.429 . S
C609 C607 1.419 . S
C609 C610 1.363 . S
C609 H612 0.929 . S
C610 C609 1.363 . S
C610 C616 1.428 . S
H611 C607 0.930 . S
H612 C609 0.929 . S
S613 N614 1.613 . S
S613 N615 1.610 . S
N614 S613 1.613 . S
N614 C617 1.350 . S
N615 S613 1.610 . S
N615 C616 1.351 . S
C616 C610 1.428 . S
C616 N615 1.351 . S
C616 C617 1.434 . S
C617 C608 1.429 . S
C617 N614 1.350 . S
C617 C616 1.434 . S
C618 C619 1.369 . S
C618 C620 1.419 . S
C618 H622 0.930 . S
C619 C618 1.369 . S
C619 C628 1.429 . S
C620 C618 1.419 . S
C620 C621 1.363 . S
C620 H623 0.929 . S
C621 C620 1.363 . S
C621 C627 1.428 . S
H622 C618 0.930 . S
H623 C620 0.929 . S
S624 N625 1.613 . S
S624 N626 1.610 1_565 S
N625 S624 1.613 . S
N625 C628 1.350 1_565 S
N626 S624 1.610 1_545 S
N626 C627 1.351 . S
C627 C621 1.428 . S
C627 N626 1.351 . S
C627 C628 1.434 . S
C628 C619 1.429 . S
C628 N625 1.350 1_545 S
C628 C627 1.434 . S
C629 C630 1.369 . S
C629 C631 1.419 . S
C629 H633 0.930 . S
C630 C629 1.369 . S
C630 C639 1.429 . S
C631 C629 1.419 . S
C631 C632 1.363 . S
C631 H634 0.929 . S
C632 C631 1.363 . S
C632 C638 1.428 . S
H633 C629 0.930 . S
H634 C631 0.929 . S
S635 N636 1.613 . S
S635 N637 1.610 . S
N636 S635 1.613 . S
N636 C639 1.350 . S
N637 S635 1.610 . S
N637 C638 1.351 . S
C638 C632 1.428 . S
C638 N637 1.351 . S
C638 C639 1.434 . S
C639 C630 1.429 . S
C639 N636 1.350 . S
C639 C638 1.434 . S
C640 C641 1.369 . S
C640 C642 1.419 . S
C640 H644 0.930 . S
C641 C640 1.369 . S
C641 C650 1.429 . S
C642 C640 1.419 . S
C642 C643 1.363 . S
C642 H645 0.929 . S
C643 C642 1.363 . S
C643 C649 1.428 . S
H644 C640 0.930 . S
H645 C642 0.929 . S
S646 N647 1.613 . S
S646 N648 1.610 . S
N647 S646 1.613 . S
N647 C650 1.350 . S
N648 S646 1.610 . S
N648 C649 1.351 . S
C649 C643 1.428 . S
C649 N648 1.351 . S
C649 C650 1.434 . S
C650 C641 1.429 . S
C650 N647 1.350 . S
C650 C649 1.434 . S
C651 C652 1.369 . S
C651 C653 1.419 . S
C651 H655 0.930 . S
C652 C651 1.369 . S
C652 C661 1.429 . S
C653 C651 1.419 . S
C653 C654 1.363 . S
C653 H656 0.929 . S
C654 C653 1.363 . S
C654 C660 1.428 . S
H655 C651 0.930 . S
H656 C653 0.929 . S
S657 N658 1.613 . S
S657 N659 1.610 . S
N658 S657 1.613 . S
N658 C661 1.350 1_565 S
N659 S657 1.610 . S
N659 C660 1.351 1_565 S
C660 C654 1.428 . S
C660 N659 1.351 1_545 S
C660 C661 1.434 . S
C661 C652 1.429 . S
C661 N658 1.350 1_545 S
C661 C660 1.434 . S
C662 C663 1.369 . S
C662 C664 1.419 . S
C662 H666 0.930 . S
C663 C662 1.369 . S
C663 C672 1.429 . S
C664 C662 1.419 . S
C664 C665 1.363 . S
C664 H667 0.929 . S
C665 C664 1.363 . S
C665 C671 1.428 . S
H666 C662 0.930 . S
H667 C664 0.929 . S
S668 N669 1.613 . S
S668 N670 1.610 . S
N669 S668 1.613 . S
N669 C672 1.350 . S
N670 S668 1.610 . S
N670 C671 1.351 . S
C671 C665 1.428 . S
C671 N670 1.351 . S
C671 C672 1.434 . S
C672 C663 1.429 . S
C672 N669 1.350 . S
C672 C671 1.434 . S
C673 C674 1.369 . S
C673 C675 1.419 . S
C673 H677 0.930 . S
C674 C673 1.369 . S
C674 C683 1.429 . S
C675 C673 1.419 . S
C675 C676 1.363 . S
C675 H678 0.929 . S
C676 C675 1.363 . S
C676 C682 1.428 . S
H677 C673 0.930 . S
H678 C675 0.929 . S
S679 N680 1.613 . S
S679 N681 1.610 . S
N680 S679 1.613 . S
N680 C683 1.350 . S
N681 S679 1.610 . S
N681 C682 1.351 . S
C682 C676 1.428 . S
C682 N681 1.351 . S
C682 C683 1.434 . S
C683 C674 1.429 . S
C683 N680 1.350 . S
C683 C682 1.434 . S
C684 C685 1.369 . S
C684 C686 1.419 . S
C684 H688 0.930 . S
C685 C684 1.369 . S
C685 C694 1.429 . S
C686 C684 1.419 . S
C686 C687 1.363 . S
C686 H689 0.929 . S
C687 C686 1.363 . S
C687 C693 1.428 . S
H688 C684 0.930 . S
H689 C686 0.929 . S
S690 N691 1.613 . S
S690 N692 1.610 . S
N691 S690 1.613 . S
N691 C694 1.350 . S
N692 S690 1.610 . S
N692 C693 1.351 . S
C693 C687 1.428 . S
C693 N692 1.351 . S
C693 C694 1.434 . S
C694 C685 1.429 . S
C694 N691 1.350 . S
C694 C693 1.434 . S
C695 C696 1.369 . S
C695 C697 1.419 . S
C695 H699 0.930 . S
C696 C695 1.369 . S
C696 C705 1.429 . S
C697 C695 1.419 . S
C697 C698 1.363 . S
C697 H700 0.929 . S
C698 C697 1.363 . S
C698 C704 1.428 . S
H699 C695 0.930 . S
H700 C697 0.929 . S
S701 N702 1.613 . S
S701 N703 1.610 . S
N702 S701 1.613 . S
N702 C705 1.350 1_565 S
N703 S701 1.610 . S
N703 C704 1.351 1_565 S
C704 C698 1.428 . S
C704 N703 1.351 1_545 S
C704 C705 1.434 . S
C705 C696 1.429 . S
C705 N702 1.350 1_545 S
C705 C704 1.434 . S
C706 C707 1.369 . S
C706 C708 1.419 . S
C706 H710 0.930 . S
C707 C706 1.369 . S
C707 C716 1.429 . S
C708 C706 1.419 . S
C708 C709 1.363 . S
C708 H711 0.929 . S
C709 C708 1.363 . S
C709 C715 1.428 . S
H710 C706 0.930 . S
H711 C708 0.929 . S
S712 N713 1.613 . S
S712 N714 1.610 . S
N713 S712 1.613 . S
N713 C716 1.350 . S
N714 S712 1.610 . S
N714 C715 1.351 . S
C715 C709 1.428 . S
C715 N714 1.351 . S
C715 C716 1.434 . S
C716 C707 1.429 . S
C716 N713 1.350 . S
C716 C715 1.434 . S
C717 C718 1.369 . S
C717 C719 1.419 . S
C717 H721 0.930 . S
C718 C717 1.369 . S
C718 C727 1.429 . S
C719 C717 1.419 . S
C719 C720 1.363 . S
C719 H722 0.929 . S
C720 C719 1.363 . S
C720 C726 1.428 . S
H721 C717 0.930 . S
H722 C719 0.929 . S
S723 N724 1.613 1_455 S
S723 N725 1.610 . S
N724 S723 1.613 1_655 S
N724 C727 1.350 1_655 S
N725 S723 1.610 . S
N725 C726 1.351 . S
C726 C720 1.428 . S
C726 N725 1.351 . S
C726 C727 1.434 . S
C727 C718 1.429 . S
C727 N724 1.350 1_455 S
C727 C726 1.434 . S
C728 C729 1.369 . S
C728 C730 1.419 . S
C728 H732 0.930 . S
C729 C728 1.369 . S
C729 C738 1.429 . S
C730 C728 1.419 . S
C730 C731 1.363 . S
C730 H733 0.929 . S
C731 C730 1.363 . S
C731 C737 1.428 . S
H732 C728 0.930 . S
H733 C730 0.929 . S
S734 N735 1.613 . S
S734 N736 1.610 . S
N735 S734 1.613 . S
N735 C738 1.350 . S
N736 S734 1.610 . S
N736 C737 1.351 . S
C737 C731 1.428 . S
C737 N736 1.351 . S
C737 C738 1.434 . S
C738 C729 1.429 . S
C738 N735 1.350 . S
C738 C737 1.434 . S
C739 C740 1.369 1_455 S
C739 C741 1.419 1_554 S
C739 H743 0.930 . S
C740 C739 1.369 1_655 S
C740 C749 1.429 1_554 S
C741 C739 1.419 1_556 S
C741 C742 1.363 1_455 S
C741 H744 0.929 . S
C742 C741 1.363 1_655 S
C742 C748 1.428 . S
H743 C739 0.930 . S
H744 C741 0.929 . S
S745 N746 1.613 . S
S745 N747 1.610 . S
N746 S745 1.613 . S
N746 C749 1.350 . S
N747 S745 1.610 . S
N747 C748 1.351 . S
C748 C742 1.428 . S
C748 N747 1.351 . S
C748 C749 1.434 . S
C749 C740 1.429 1_556 S
C749 N746 1.350 . S
C749 C748 1.434 . S
C750 C751 1.369 . S
C750 C752 1.419 . S
C750 H754 0.930 . S
C751 C750 1.369 . S
C751 C760 1.429 . S
C752 C750 1.419 . S
C752 C753 1.363 . S
C752 H755 0.929 . S
C753 C752 1.363 . S
C753 C759 1.428 . S
H754 C750 0.930 . S
H755 C752 0.929 . S
S756 N757 1.613 . S
S756 N758 1.610 . S
N757 S756 1.613 . S
N757 C760 1.350 . S
N758 S756 1.610 . S
N758 C759 1.351 . S
C759 C753 1.428 . S
C759 N758 1.351 . S
C759 C760 1.434 . S
C760 C751 1.429 . S
C760 N757 1.350 . S
C760 C759 1.434 . S
C761 C762 1.361 1_554 S
C761 C763 1.419 1_554 S
C761 H765 0.930 . S
C762 C761 1.361 1_556 S
C762 C771 1.446 . S
C763 C761 1.419 1_556 S
C763 C764 1.363 . S
C763 H766 0.929 1_556 S
C764 C763 1.363 . S
C764 C770 1.428 . S
H765 C761 0.930 . S
H766 C763 0.929 1_554 S
S767 N768 1.613 . S
S767 N769 1.610 . S
N768 S767 1.613 . S
N768 C771 1.350 . S
N769 S767 1.610 . S
N769 C770 1.351 . S
C770 C764 1.428 . S
C770 N769 1.351 . S
C770 C771 1.434 . S
C771 C762 1.446 . S
C771 N768 1.350 . S
C771 C770 1.434 . S
C772 C773 1.369 . S
C772 C774 1.419 . S
C772 H776 0.930 . S
C773 C772 1.369 . S
C773 C782 1.429 . S
C774 C772 1.419 . S
C774 C775 1.363 . S
C774 H777 0.929 . S
C775 C774 1.363 . S
C775 C781 1.428 . S
H776 C772 0.930 . S
H777 C774 0.929 . S
S778 N779 1.613 . S
S778 N780 1.610 . S
N779 S778 1.613 . S
N779 C782 1.350 . S
N780 S778 1.610 . S
N780 C781 1.351 . S
C781 C775 1.428 . S
C781 N780 1.351 . S
C781 C782 1.434 . S
C782 C773 1.429 . S
C782 N779 1.350 . S
C782 C781 1.434 . S
C783 C784 1.369 . S
C783 C785 1.419 . S
C783 H787 0.930 . S
C784 C783 1.369 . S
C784 C793 1.429 . S
C785 C783 1.419 . S
C785 C786 1.363 . S
C785 H788 0.929 . S
C786 C785 1.363 . S
C786 C792 1.428 . S
H787 C783 0.930 . S
H788 C785 0.929 . S
S789 N790 1.613 . S
S789 N791 1.610 . S
N790 S789 1.613 . S
N790 C793 1.350 . S
N791 S789 1.610 . S
N791 C792 1.351 . S
C792 C786 1.428 . S
C792 N791 1.351 . S
C792 C793 1.434 . S
C793 C784 1.429 . S
C793 N790 1.350 . S
C793 C792 1.434 . S
C794 C795 1.369 . S
C794 C796 1.419 . S
C794 H798 0.930 . S
C795 C794 1.369 . S
C795 C804 1.429 . S
C796 C794 1.419 . S
C796 C797 1.363 . S
C796 H799 0.929 . S
C797 C796 1.363 . S
C797 C803 1.428 . S
H798 C794 0.930 . S
H799 C796 0.929 . S
S800 N801 1.613 . S
S800 N802 1.610 . S
N801 S800 1.613 . S
N801 C804 1.350 . S
N802 S800 1.610 . S
N802 C803 1.351 . S
C803 C797 1.428 . S
C803 N802 1.351 . S
C803 C804 1.434 . S
C804 C795 1.429 . S
C804 N801 1.350 . S
C804 C803 1.434 . S
C805 C806 1.369 . S
C805 C807 1.419 . S
C805 H809 0.930 . S
C806 C805 1.369 . S
C806 C815 1.429 . S
C807 C805 1.419 . S
C807 C808 1.363 . S
C807 H810 0.929 . S
C808 C807 1.363 . S
C808 C814 1.428 . S
H809 C805 0.930 . S
H810 C807 0.929 . S
S811 N812 1.613 . S
S811 N813 1.610 . S
N812 S811 1.613 . S
N812 C815 1.350 . S
N813 S811 1.610 . S
N813 C814 1.351 . S
C814 C808 1.428 . S
C814 N813 1.351 . S
C814 C815 1.434 . S
C815 C806 1.429 . S
C815 N812 1.350 . S
C815 C814 1.434 . S
C816 C817 1.369 . S
C816 C818 1.419 . S
C816 H820 0.930 . S
C817 C816 1.369 . S
C817 C826 1.429 . S
C818 C816 1.419 . S
C818 C819 1.363 . S
C818 H821 0.929 . S
C819 C818 1.363 . S
C819 C825 1.428 . S
H820 C816 0.930 . S
H821 C818 0.929 . S
S822 N823 1.613 . S
S822 N824 1.610 . S
N823 S822 1.613 . S
N823 C826 1.350 . S
N824 S822 1.610 . S
N824 C825 1.351 . S
C825 C819 1.428 . S
C825 N824 1.351 . S
C825 C826 1.434 . S
C826 C817 1.429 . S
C826 N823 1.350 . S
C826 C825 1.434 . S
C827 C828 1.369 . S
C827 C829 1.419 . S
C827 H831 0.930 . S
C828 C827 1.369 . S
C828 C837 1.429 . S
C829 C827 1.419 . S
C829 C830 1.363 . S
C829 H832 0.929 . S
C830 C829 1.363 . S
C830 C836 1.428 . S
H831 C827 0.930 . S
H832 C829 0.929 . S
S833 N834 1.613 . S
S833 N835 1.610 . S
N834 S833 1.613 . S
N834 C837 1.350 . S
N835 S833 1.610 . S
N835 C836 1.351 . S
C836 C830 1.428 . S
C836 N835 1.351 . S
C836 C837 1.434 . S
C837 C828 1.429 . S
C837 N834 1.350 . S
C837 C836 1.434 . S
C838 C839 1.369 . S
C838 C840 1.419 . S
C838 H842 0.930 . S
C839 C838 1.369 . S
C839 C848 1.429 . S
C840 C838 1.419 . S
C840 C841 1.363 . S
C840 H843 0.929 . S
C841 C840 1.363 . S
C841 C847 1.428 . S
H842 C838 0.930 . S
H843 C840 0.929 . S
S844 N845 1.613 . S
S844 N846 1.610 . S
N845 S844 1.613 . S
N845 C848 1.350 . S
N846 S844 1.610 . S
N846 C847 1.351 . S
C847 C841 1.428 . S
C847 N846 1.351 . S
C847 C848 1.434 . S
C848 C839 1.429 . S
C848 N845 1.350 . S
C848 C847 1.434 . S
C849 C850 1.369 . S
C849 C851 1.419 . S
C849 H853 0.930 . S
C850 C849 1.369 . S
C850 C859 1.429 . S
C851 C849 1.419 . S
C851 C852 1.363 . S
C851 H854 0.929 . S
C852 C851 1.363 . S
C852 C858 1.428 . S
H853 C849 0.930 . S
H854 C851 0.929 . S
S855 N856 1.613 . S
S855 N857 1.610 . S
N856 S855 1.613 . S
N856 C859 1.350 . S
N857 S855 1.610 . S
N857 C858 1.351 . S
C858 C852 1.428 . S
C858 N857 1.351 . S
C858 C859 1.434 . S
C859 C850 1.429 . S
C859 N856 1.350 . S
C859 C858 1.434 . S
C860 C861 1.369 1_554 S
C860 C862 1.419 . S
C860 H864 0.930 . S
C861 C860 1.369 1_556 S
C861 C870 1.429 . S
C862 C860 1.419 . S
C862 C863 1.363 . S
C862 H865 0.929 . S
C863 C862 1.363 . S
C863 C869 1.428 1_554 S
H864 C860 0.930 . S
H865 C862 0.929 . S
S866 N867 1.613 . S
S866 N868 1.610 . S
N867 S866 1.613 . S
N867 C870 1.350 . S
N868 S866 1.610 . S
N868 C869 1.351 . S
C869 C863 1.428 1_556 S
C869 N868 1.351 . S
C869 C870 1.434 . S
C870 C861 1.429 . S
C870 N867 1.350 . S
C870 C869 1.434 . S
C871 C872 1.369 . S
C871 C873 1.419 . S
C871 H875 0.930 . S
C872 C871 1.369 . S
C872 C881 1.429 . S
C873 C871 1.419 . S
C873 C874 1.363 . S
C873 H876 0.929 . S
C874 C873 1.363 . S
C874 C880 1.428 . S
H875 C871 0.930 . S
H876 C873 0.929 . S
S877 N878 1.613 . S
S877 N879 1.610 . S
N878 S877 1.613 . S
N878 C881 1.350 . S
N879 S877 1.610 . S
N879 C880 1.351 . S
C880 C874 1.428 . S
C880 N879 1.351 . S
C880 C881 1.434 . S
C881 C872 1.429 . S
C881 N878 1.350 . S
C881 C880 1.434 . S
C882 C883 1.369 . S
C882 C884 1.419 . S
C882 H886 0.930 . S
C883 C882 1.369 . S
C883 C892 1.429 . S
C884 C882 1.419 . S
C884 C885 1.363 . S
C884 H887 0.929 . S
C885 C884 1.363 . S
C885 C891 1.428 . S
H886 C882 0.930 . S
H887 C884 0.929 . S
S888 N889 1.613 . S
S888 N890 1.610 . S
N889 S888 1.613 . S
N889 C892 1.350 . S
N890 S888 1.610 . S
N890 C891 1.351 . S
C891 C885 1.428 . S
C891 N890 1.351 . S
C891 C892 1.434 . S
C892 C883 1.429 . S
C892 N889 1.350 . S
C892 C891 1.434 . S
C893 C894 1.369 . S
C893 C895 1.419 . S
C893 H897 0.930 . S
C894 C893 1.369 . S
C894 C903 1.429 1_554 S
C895 C893 1.419 . S
C895 C896 1.363 . S
C895 H898 0.929 . S
C896 C895 1.363 . S
C896 C902 1.428 1_554 S
H897 C893 0.930 . S
H898 C895 0.929 . S
S899 N900 1.613 . S
S899 N901 1.610 . S
N900 S899 1.613 . S
N900 C903 1.350 . S
N901 S899 1.610 . S
N901 C902 1.351 . S
C902 C896 1.428 1_556 S
C902 N901 1.351 . S
C902 C903 1.434 . S
C903 C894 1.429 1_556 S
C903 N900 1.350 . S
C903 C902 1.434 . S
C379 C216 1.644 . S
C377 C73 1.692 . S
C390 C229 1.356 . S
C388 C82 1.299 . S
C399 C100 1.861 . S
C401 C249 1.755 . S
C412 C263 1.315 1_565 S
C410 C56 1.336 . S
C423 C275 1.467 . S
C421 C134 1.457 . S
C434 C289 1.647 . S
C432 C165 1.627 . S
C443 C147 1.232 . S
C445 C299 1.264 . S
C456 C314 1.811 . S
C454 C125 1.811 . S
C465 C151 1.420 . S
C467 C328 1.415 . S
C478 C347 1.407 . S
C476 C121 1.400 . S
C487 C139 1.708 . S
C489 C327 1.715 . S
C500 C345 1.342 . S
C498 C164 1.340 . S
C509 C95 1.442 . S
C511 C361 1.395 . S
C520 C61 1.485 . S
C522 C355 1.487 . S
C531 C74 1.484 . S
C533 C359 1.481 . S
C542 C86 1.738 . S
C544 C356 1.712 1_655 S
C553 C47 1.470 . S
C555 C258 1.425 . S
C564 C186 1.312 . S
C566 C257 1.355 . S
C577 C221 1.365 . S
C575 C204 1.474 . S
C588 C235 1.739 . S
C586 C112 1.849 . S
C597 C60 1.433 1_545 S
C599 C272 1.399 . S
C610 C317 1.467 . S
C608 C152 1.461 . S
C621 C271 1.797 . S
C619 C126 1.812 1_545 S
C632 C303 1.318 . S
C630 C160 1.324 . S
C643 C300 1.643 . S
C641 C190 1.692 . S
C652 C199 1.300 . S
C654 C313 1.356 . S
C663 C113 1.863 . S
C665 C277 1.752 . S
C676 C291 1.317 . S
C674 C173 1.325 . S
C685 C43 1.461 . S
C687 C247 1.468 . S
C698 C261 1.646 . S
C696 C9 1.631 1_655 S
C709 C215 1.268 . S
C707 C17 1.221 . S
C720 C230 1.812 . S
C718 C34 1.813 1_455 S
C729 C21 1.420 . S
C731 C342 1.414 . S
C740 C30 1.404 . S
C742 C333 1.410 . S
C751 C48 1.710 . S
C753 C341 1.716 . S
C762 C8 1.331 1_556 S
C764 C331 1.342 . S
C775 C375 1.390 . S
C773 C108 1.438 . S
C786 C369 1.489 . S
C784 C178 1.482 1_554 S
C797 C373 1.481 . S
C795 C191 1.482 . S
C806 C203 1.738 . S
C808 C370 1.706 . S
C817 C138 1.467 . S
C819 C286 1.431 . S
C830 C285 1.356 . S
C828 C69 1.311 . S
C841 C305 1.359 . S
C839 C87 1.473 . S
C852 C319 1.739 . S
C850 C99 1.849 . S
C861 C177 1.435 . S
C863 C244 1.394 . S
C874 C233 1.466 . S
C872 C22 1.462 . S
C883 C35 1.810 . S
C885 C243 1.797 . S
C896 C219 1.318 . S
C894 C4 1.322 . S
