# Generated by pormake.
# Topology pyr, (3,6)-cn, num edge types: 1
# Building blocks:
#     Node 0, Type 0, BuildingBlock: KAKCAD_clean_linker_0, # of connection points: 3
#     Node 1, Type 0, BuildingBlock: KAKCAD_clean_linker_0, # of connection points: 3
#     Node 2, Type 0, BuildingBlock: KAKCAD_clean_linker_0, # of connection points: 3
#     Node 3, Type 0, BuildingBlock: KAKCAD_clean_linker_0, # of connection points: 3
#     Node 4, Type 0, BuildingBlock: KAKCAD_clean_linker_0, # of connection points: 3
#     Node 5, Type 0, BuildingBlock: KAKCAD_clean_linker_0, # of connection points: 3
#     Node 6, Type 0, BuildingBlock: KAKCAD_clean_linker_0, # of connection points: 3
#     Node 7, Type 0, BuildingBlock: KAKCAD_clean_linker_0, # of connection points: 3
#     Node 8, Type 1, BuildingBlock: INOVEN_clean_sbu_0, # of connection points: 6
#     Node 9, Type 1, BuildingBlock: INOVEN_clean_sbu_0, # of connection points: 6
#     Node 10, Type 1, BuildingBlock: INOVEN_clean_sbu_0, # of connection points: 6
#     Node 11, Type 1, BuildingBlock: INOVEN_clean_sbu_0, # of connection points: 6
#     Edge 12, Type (0, 1), BuildingBlock: XIVTED_clean_linker_0, # of connection points: 2
#     Edge 13, Type (0, 1), BuildingBlock: XIVTED_clean_linker_0, # of connection points: 2
#     Edge 14, Type (0, 1), BuildingBlock: XIVTED_clean_linker_0, # of connection points: 2
#     Edge 15, Type (0, 1), BuildingBlock: XIVTED_clean_linker_0, # of connection points: 2
#     Edge 16, Type (0, 1), BuildingBlock: XIVTED_clean_linker_0, # of connection points: 2
#     Edge 17, Type (0, 1), BuildingBlock: XIVTED_clean_linker_0, # of connection points: 2
#     Edge 18, Type (0, 1), BuildingBlock: XIVTED_clean_linker_0, # of connection points: 2
#     Edge 19, Type (0, 1), BuildingBlock: XIVTED_clean_linker_0, # of connection points: 2
#     Edge 20, Type (0, 1), BuildingBlock: XIVTED_clean_linker_0, # of connection points: 2
#     Edge 21, Type (0, 1), BuildingBlock: XIVTED_clean_linker_0, # of connection points: 2
#     Edge 22, Type (0, 1), BuildingBlock: XIVTED_clean_linker_0, # of connection points: 2
#     Edge 23, Type (0, 1), BuildingBlock: XIVTED_clean_linker_0, # of connection points: 2
#     Edge 24, Type (0, 1), BuildingBlock: XIVTED_clean_linker_0, # of connection points: 2
#     Edge 25, Type (0, 1), BuildingBlock: XIVTED_clean_linker_0, # of connection points: 2
#     Edge 26, Type (0, 1), BuildingBlock: XIVTED_clean_linker_0, # of connection points: 2
#     Edge 27, Type (0, 1), BuildingBlock: XIVTED_clean_linker_0, # of connection points: 2
#     Edge 28, Type (0, 1), BuildingBlock: XIVTED_clean_linker_0, # of connection points: 2
#     Edge 29, Type (0, 1), BuildingBlock: XIVTED_clean_linker_0, # of connection points: 2
#     Edge 30, Type (0, 1), BuildingBlock: XIVTED_clean_linker_0, # of connection points: 2
#     Edge 31, Type (0, 1), BuildingBlock: XIVTED_clean_linker_0, # of connection points: 2
#     Edge 32, Type (0, 1), BuildingBlock: XIVTED_clean_linker_0, # of connection points: 2
#     Edge 33, Type (0, 1), BuildingBlock: XIVTED_clean_linker_0, # of connection points: 2
#     Edge 34, Type (0, 1), BuildingBlock: XIVTED_clean_linker_0, # of connection points: 2
#     Edge 35, Type (0, 1), BuildingBlock: XIVTED_clean_linker_0, # of connection points: 2
# Relax obj value: 0.091
# Max RMSD: 0.125
# Mean RMSD: 0.058
data_MOF--net-pyr--node1-INOVEN_clean_sbu_0--node2-KAKCAD_clean_linker_0--edge1-XIVTED_clean_linker_0
_symmetry_space_group_name_H-M    P1
_symmetry_Int_Tables_number       1
_symmetry_cell_setting            triclinic
loop_
_symmetry_equiv_pos_as_xyz
'x, y, z'
_cell_length_a     46.667417
_cell_length_b     49.970876
_cell_length_c     45.299231
_cell_angle_alpha  91.19508
_cell_angle_beta   88.958848
_cell_angle_gamma 100.0964
loop_
_atom_site_label
_atom_site_type_symbol
_atom_site_fract_x
_atom_site_fract_y
_atom_site_fract_z
_atom_type_partial_charge
C0 C 0.27386 0.24846 0.31905 0.0
C1 C 0.29095 0.23574 0.33758 0.0
C2 C 0.28589 0.26154 0.29372 0.0
C3 C 0.31549 0.26257 0.28633 0.0
C4 C 0.33301 0.25115 0.30581 0.0
C5 C 0.3208 0.23771 0.33109 0.0
C6 C 0.32671 0.27275 0.25688 0.0
C7 C 0.31517 0.29354 0.24347 0.0
C8 C 0.31954 0.29869 0.21319 0.0
C9 C 0.3379 0.28433 0.19675 0.0
C10 C 0.35114 0.26468 0.21027 0.0
C11 C 0.34546 0.25897 0.24022 0.0
C12 C 0.36792 0.24749 0.1925 0.0
C13 C 0.355 0.23231 0.16835 0.0
C14 C 0.39589 0.24443 0.201 0.0
C15 C 0.4106 0.22617 0.18579 0.0
C16 C 0.39733 0.21012 0.16217 0.0
C17 C 0.302 0.31649 0.19838 0.0
C18 C 0.27253 0.31508 0.2064 0.0
C19 C 0.31381 0.33411 0.1757 0.0
C20 C 0.2965 0.35014 0.16163 0.0
C21 C 0.26717 0.34889 0.17012 0.0
C22 C 0.25542 0.33111 0.19256 0.0
C23 C 0.3694 0.21366 0.15351 0.0
H24 H 0.25067 0.24686 0.32307 0.0
H25 H 0.2714 0.26938 0.27906 0.0
H26 H 0.35596 0.25189 0.30108 0.0
H27 H 0.33453 0.22823 0.34514 0.0
H28 H 0.30143 0.3049 0.25636 0.0
H29 H 0.35391 0.24229 0.24979 0.0
H30 H 0.34093 0.28753 0.17323 0.0
H31 H 0.33321 0.23404 0.16173 0.0
H32 H 0.40625 0.25602 0.21958 0.0
H33 H 0.43228 0.22454 0.19275 0.0
H34 H 0.26239 0.30111 0.22305 0.0
H35 H 0.33643 0.33564 0.16902 0.0
H36 H 0.3581 0.20138 0.13592 0.0
H37 H 0.2327 0.32911 0.19905 0.0
H38 H 0.30611 0.36369 0.14438 0.0
C39 C 0.23925 0.81525 0.78713 0.0
C40 C 0.26951 0.82448 0.78765 0.0
C41 C 0.22547 0.80643 0.76064 0.0
C42 C 0.24168 0.80655 0.7342 0.0
C43 C 0.27199 0.8151 0.73486 0.0
C44 C 0.28573 0.82398 0.76125 0.0
C45 C 0.22705 0.79897 0.70569 0.0
C46 C 0.20216 0.80945 0.69837 0.0
C47 C 0.18939 0.80417 0.67043 0.0
C48 C 0.20182 0.78775 0.64994 0.0
C49 C 0.22726 0.77794 0.6567 0.0
C50 C 0.23936 0.78317 0.68477 0.0
C51 C 0.24282 0.76413 0.63389 0.0
C52 C 0.22826 0.74229 0.61686 0.0
C53 C 0.2729 0.77255 0.62971 0.0
C54 C 0.28843 0.75867 0.60992 0.0
C55 C 0.27426 0.73599 0.59382 0.0
C56 C 0.16527 0.81827 0.66178 0.0
C57 C 0.14485 0.82471 0.68291 0.0
C58 C 0.16399 0.82757 0.63277 0.0
C59 C 0.14363 0.84359 0.62541 0.0
C60 C 0.12454 0.85117 0.64696 0.0
C61 C 0.12498 0.84138 0.67567 0.0
C62 C 0.24391 0.72821 0.59707 0.0
H63 H 0.22618 0.81507 0.80715 0.0
H64 H 0.20211 0.79967 0.7608 0.0
H65 H 0.28501 0.81586 0.71475 0.0
H66 H 0.30896 0.83147 0.76069 0.0
H67 H 0.19389 0.82311 0.71391 0.0
H68 H 0.25876 0.77521 0.69018 0.0
H69 H 0.19253 0.78349 0.62825 0.0
H70 H 0.20504 0.73553 0.61961 0.0
H71 H 0.28457 0.78963 0.64222 0.0
H72 H 0.31181 0.765 0.60831 0.0
H73 H 0.14466 0.81747 0.70528 0.0
H74 H 0.17959 0.82369 0.61595 0.0
H75 H 0.23238 0.71091 0.58481 0.0
H76 H 0.1103 0.84701 0.69256 0.0
H77 H 0.14382 0.85126 0.60319 0.0
C78 C 0.74816 0.42067 0.8863 0.0
C79 C 0.76993 0.40626 0.89522 0.0
C80 C 0.72238 0.40728 0.87282 0.0
C81 C 0.71716 0.37888 0.86783 0.0
C82 C 0.73895 0.36448 0.87658 0.0
C83 C 0.76478 0.37787 0.88988 0.0
C84 C 0.68911 0.36431 0.85407 0.0
C85 C 0.67595 0.37598 0.83076 0.0
C86 C 0.64963 0.36277 0.81769 0.0
C87 C 0.63634 0.33706 0.82905 0.0
C88 C 0.64907 0.32464 0.85233 0.0
C89 C 0.67542 0.3386 0.86432 0.0
C90 C 0.63535 0.29715 0.86462 0.0
C91 C 0.60568 0.29113 0.87305 0.0
C92 C 0.65244 0.27704 0.86968 0.0
C93 C 0.64046 0.25203 0.88268 0.0
C94 C 0.61098 0.24618 0.89177 0.0
C95 C 0.63666 0.37599 0.7921 0.0
C96 C 0.63894 0.40453 0.79069 0.0
C97 C 0.62274 0.36055 0.76825 0.0
C98 C 0.6121 0.37313 0.74394 0.0
C99 C 0.61469 0.40173 0.74243 0.0
C100 C 0.62824 0.41707 0.76651 0.0
C101 C 0.5938 0.26626 0.88667 0.0
H102 H 0.75064 0.44238 0.89023 0.0
H103 H 0.70618 0.41923 0.86688 0.0
H104 H 0.73627 0.34273 0.87278 0.0
H105 H 0.78091 0.36579 0.89559 0.0
H106 H 0.68686 0.39519 0.82211 0.0
H107 H 0.68492 0.32963 0.88249 0.0
H108 H 0.61613 0.32661 0.81976 0.0
H109 H 0.59175 0.30599 0.86983 0.0
H110 H 0.67531 0.28068 0.86355 0.0
H111 H 0.65462 0.23743 0.88624 0.0
H112 H 0.649 0.41745 0.80846 0.0
H113 H 0.62054 0.33862 0.76798 0.0
H114 H 0.571 0.26267 0.89305 0.0
H115 H 0.63117 0.43903 0.76659 0.0
H116 H 0.6016 0.36024 0.72637 0.0
C117 C 0.87255 0.62949 0.24163 0.0
C118 C 0.90267 0.63364 0.23512 0.0
C119 C 0.86131 0.64222 0.26626 0.0
C120 C 0.87966 0.65951 0.2858 0.0
C121 C 0.90982 0.66396 0.27903 0.0
C122 C 0.92106 0.65139 0.25416 0.0
C123 C 0.86739 0.67221 0.31315 0.0
C124 C 0.84214 0.65836 0.32793 0.0
C125 C 0.83042 0.66942 0.35348 0.0
C126 C 0.84436 0.69499 0.36431 0.0
C127 C 0.86926 0.70988 0.35021 0.0
C128 C 0.88065 0.69807 0.32474 0.0
C129 C 0.88277 0.73778 0.36238 0.0
C130 C 0.86514 0.75534 0.37513 0.0
C131 C 0.91317 0.74695 0.36243 0.0
C132 C 0.92538 0.77229 0.37545 0.0
C133 C 0.90766 0.78939 0.38899 0.0
C134 C 0.80358 0.65447 0.36912 0.0
C135 C 0.77877 0.64214 0.35342 0.0
C136 C 0.80218 0.65316 0.40016 0.0
C137 C 0.77685 0.64035 0.415 0.0
C138 C 0.75161 0.6286 0.39947 0.0
C139 C 0.75322 0.6296 0.36829 0.0
C140 C 0.87729 0.78048 0.3882 0.0
H141 H 0.85741 0.61653 0.22743 0.0
H142 H 0.83796 0.63857 0.26973 0.0
H143 H 0.92502 0.67671 0.29335 0.0
H144 H 0.94437 0.65506 0.25034 0.0
H145 H 0.83192 0.63839 0.32016 0.0
H146 H 0.89937 0.70944 0.31342 0.0
H147 H 0.83556 0.70339 0.384 0.0
H148 H 0.84166 0.74975 0.37498 0.0
H149 H 0.9277 0.73421 0.35313 0.0
H150 H 0.94884 0.7781 0.3756 0.0
H151 H 0.7788 0.64288 0.32954 0.0
H152 H 0.82088 0.66194 0.41313 0.0
H153 H 0.86265 0.79309 0.39755 0.0
H154 H 0.7345 0.62129 0.35518 0.0
H155 H 0.77732 0.63956 0.43883 0.0
C156 C 0.74437 0.77871 0.72621 0.0
C157 C 0.74485 0.80542 0.71685 0.0
C158 C 0.72951 0.76951 0.75223 0.0
C159 C 0.71528 0.78702 0.76964 0.0
C160 C 0.71489 0.81337 0.75942 0.0
C161 C 0.72929 0.82234 0.73333 0.0
C162 C 0.70364 0.77939 0.79977 0.0
C163 C 0.71864 0.76453 0.81829 0.0
C164 C 0.71122 0.76177 0.84838 0.0
C165 C 0.68889 0.7745 0.86015 0.0
C166 C 0.67333 0.78919 0.84196 0.0
C167 C 0.68001 0.79028 0.81156 0.0
C168 C 0.65264 0.80597 0.85501 0.0
C169 C 0.63581 0.7977 0.88041 0.0
C170 C 0.65117 0.83157 0.84322 0.0
C171 C 0.63382 0.84852 0.85662 0.0
C172 C 0.61802 0.84063 0.88252 0.0
C173 C 0.72871 0.74763 0.86786 0.0
C174 C 0.73565 0.72234 0.85923 0.0
C175 C 0.73984 0.75995 0.89441 0.0
C176 C 0.75827 0.7476 0.91154 0.0
C177 C 0.76573 0.72258 0.90258 0.0
C178 C 0.75387 0.70988 0.87649 0.0
C179 C 0.61893 0.815 0.89422 0.0
H180 H 0.75607 0.76518 0.7138 0.0
H181 H 0.72991 0.74896 0.75912 0.0
H182 H 0.70492 0.8278 0.77238 0.0
H183 H 0.72972 0.84321 0.72705 0.0
H184 H 0.73742 0.7566 0.80987 0.0
H185 H 0.66755 0.80075 0.79716 0.0
H186 H 0.68442 0.77366 0.88369 0.0
H187 H 0.63596 0.77802 0.8899 0.0
H188 H 0.66432 0.83917 0.82425 0.0
H189 H 0.63381 0.86838 0.84747 0.0
H190 H 0.72726 0.71236 0.83892 0.0
H191 H 0.73508 0.77957 0.90145 0.0
H192 H 0.60676 0.80849 0.91416 0.0
H193 H 0.75945 0.69073 0.86887 0.0
H194 H 0.76695 0.75776 0.93164 0.0
C195 C 0.77902 0.20531 0.25271 0.0
C196 C 0.76757 0.22477 0.23696 0.0
C197 C 0.79274 0.21218 0.27953 0.0
C198 C 0.79589 0.23888 0.29109 0.0
C199 C 0.78497 0.25857 0.27489 0.0
C200 C 0.77067 0.2515 0.24819 0.0
C201 C 0.80899 0.24539 0.32071 0.0
C202 C 0.83101 0.23191 0.33035 0.0
C203 C 0.84037 0.23448 0.35967 0.0
C204 C 0.82879 0.25206 0.37928 0.0
C205 C 0.80743 0.26645 0.36979 0.0
C206 C 0.79764 0.26295 0.34056 0.0
C207 C 0.79312 0.28325 0.39075 0.0
C208 C 0.78166 0.27264 0.41782 0.0
C209 C 0.78833 0.30899 0.38248 0.0
C210 C 0.77126 0.32333 0.40022 0.0
C211 C 0.75846 0.31213 0.42654 0.0
C212 C 0.85985 0.21643 0.37019 0.0
C213 C 0.85308 0.18844 0.36395 0.0
C214 C 0.88493 0.22665 0.38631 0.0
C215 C 0.90319 0.2091 0.3956 0.0
C216 C 0.89645 0.181 0.38923 0.0
C217 C 0.87102 0.17094 0.37347 0.0
C218 C 0.76434 0.2869 0.4355 0.0
H219 H 0.77634 0.1844 0.24486 0.0
H220 H 0.79995 0.19618 0.29163 0.0
H221 H 0.78725 0.27939 0.28291 0.0
H222 H 0.76197 0.26684 0.23638 0.0
H223 H 0.84045 0.21864 0.31524 0.0
H224 H 0.77987 0.27271 0.33389 0.0
H225 H 0.83563 0.25382 0.40209 0.0
H226 H 0.78486 0.25273 0.42461 0.0
H227 H 0.79703 0.31765 0.36176 0.0
H228 H 0.7669 0.34257 0.39252 0.0
H229 H 0.83353 0.17996 0.35205 0.0
H230 H 0.8906 0.2482 0.39131 0.0
H231 H 0.75493 0.27788 0.45578 0.0
H232 H 0.86454 0.14939 0.36892 0.0
H233 H 0.92269 0.2176 0.40752 0.0
C234 C 0.25973 0.63523 0.17557 0.0
C235 C 0.25523 0.63797 0.14512 0.0
C236 C 0.28546 0.6485 0.18932 0.0
C237 C 0.30784 0.66489 0.17312 0.0
C238 C 0.30344 0.66714 0.14255 0.0
C239 C 0.27769 0.6541 0.12891 0.0
C240 C 0.3354 0.67978 0.18774 0.0
C241 C 0.34793 0.66867 0.2119 0.0
C242 C 0.37396 0.68213 0.22524 0.0
C243 C 0.38773 0.70749 0.2134 0.0
C244 C 0.37572 0.71948 0.18927 0.0
C245 C 0.3494 0.70532 0.17726 0.0
C246 C 0.38993 0.74673 0.17623 0.0
C247 C 0.40474 0.76833 0.19375 0.0
C248 C 0.38775 0.75183 0.14581 0.0
C249 C 0.39898 0.77739 0.13366 0.0
C250 C 0.41332 0.79923 0.15117 0.0
C251 C 0.38645 0.66924 0.25131 0.0
C252 C 0.36808 0.65617 0.27381 0.0
C253 C 0.41653 0.66896 0.25371 0.0
C254 C 0.42764 0.65568 0.27722 0.0
C255 C 0.40921 0.64252 0.29967 0.0
C256 C 0.37921 0.6433 0.29752 0.0
C257 C 0.41616 0.79398 0.18151 0.0
H258 H 0.24302 0.6233 0.18907 0.0
H259 H 0.28744 0.64629 0.21287 0.0
H260 H 0.32012 0.67881 0.12882 0.0
H261 H 0.27562 0.65641 0.10537 0.0
H262 H 0.33781 0.64894 0.2199 0.0
H263 H 0.3392 0.71466 0.15989 0.0
H264 H 0.40777 0.71789 0.22307 0.0
H265 H 0.40701 0.76571 0.2172 0.0
H266 H 0.37722 0.73595 0.13104 0.0
H267 H 0.39575 0.78001 0.11038 0.0
H268 H 0.34486 0.65595 0.27322 0.0
H269 H 0.43156 0.67851 0.23699 0.0
H270 H 0.42736 0.80967 0.19606 0.0
H271 H 0.36403 0.63341 0.31392 0.0
H272 H 0.45086 0.65594 0.27789 0.0
C273 C 0.15206 0.26062 0.65574 0.0
C274 C 0.12169 0.25204 0.65388 0.0
C275 C 0.16409 0.28598 0.66842 0.0
C276 C 0.14632 0.30406 0.67974 0.0
C277 C 0.1159 0.29524 0.67865 0.0
C278 C 0.10382 0.26971 0.66599 0.0
C279 C 0.15968 0.3322 0.69132 0.0
C280 C 0.18515 0.34655 0.67768 0.0
C281 C 0.1982 0.3728 0.68734 0.0
C282 C 0.18524 0.385 0.71137 0.0
C283 C 0.16006 0.37126 0.72635 0.0
C284 C 0.14742 0.34487 0.71571 0.0
C285 C 0.14751 0.38443 0.75323 0.0
C286 C 0.16567 0.40223 0.77247 0.0
C287 C 0.11737 0.37964 0.76008 0.0
C288 C 0.10597 0.39234 0.78477 0.0
C289 C 0.12416 0.41052 0.80358 0.0
C290 C 0.22555 0.3872 0.67221 0.0
C291 C 0.24933 0.37378 0.66669 0.0
C292 C 0.22799 0.41414 0.6625 0.0
C293 C 0.25316 0.427 0.64727 0.0
C294 C 0.277 0.41359 0.64187 0.0
C295 C 0.27472 0.38684 0.65209 0.0
C296 C 0.15427 0.41505 0.79694 0.0
H297 H 0.16679 0.2476 0.64751 0.0
H298 H 0.18756 0.29134 0.66939 0.0
H299 H 0.10128 0.3084 0.68679 0.0
H300 H 0.08036 0.2642 0.66496 0.0
H301 H 0.19461 0.33759 0.65872 0.0
H302 H 0.12852 0.33375 0.72697 0.0
H303 H 0.19509 0.4053 0.71845 0.0
H304 H 0.18902 0.40615 0.76896 0.0
H305 H 0.10231 0.36647 0.74599 0.0
H306 H 0.08267 0.38835 0.78869 0.0
H307 H 0.24838 0.35311 0.67389 0.0
H308 H 0.21015 0.42511 0.66616 0.0
H309 H 0.1693 0.42834 0.81096 0.0
H310 H 0.29243 0.37572 0.64826 0.0
H311 H 0.25408 0.44763 0.63994 0.0
Gd312 Gd 0.0406 0.02478 0.50256 0.0
Gd313 Gd 0.98906 1.01532 0.54223 0.0
C314 C 0.03891 0.07047 0.55282 0.0
C315 C 0.07827 0.03352 0.4597 0.0
C316 C 0.10303 0.05489 0.45254 0.0
C317 C 0.12066 0.05166 0.42787 0.0
C318 C 0.10958 0.07828 0.47052 0.0
C319 C 0.15123 0.09531 0.4389 0.0
C320 C 0.13347 0.09837 0.46374 0.0
C321 C 0.14457 0.0717 0.42108 0.0
C322 C 0.04774 0.99793 0.55213 0.0
C323 C 0.99075 0.97001 0.49179 0.0
C324 C 0.95221 1.00499 0.58542 0.0
C325 C 0.93153 0.98082 0.59437 0.0
C326 C 0.90633 0.98399 0.61029 0.0
C327 C 0.93603 0.95462 0.58604 0.0
C328 C 0.89014 0.93494 0.60962 0.0
C329 C 0.91555 0.93183 0.59374 0.0
C330 C 0.88578 0.96125 0.61785 0.0
C331 C 0.98142 0.04191 0.49264 0.0
O332 O 0.05075 0.06497 0.52716 0.0
O333 O 0.01643 0.05332 0.56392 0.0
O334 O 0.08161 1.01903 0.48264 0.0
O335 O 0.0525 0.04041 0.45894 0.0
O336 O 0.06746 1.01689 0.54129 0.0
O337 O 0.0257 0.9939 0.53603 0.0
O338 O 0.98023 0.97468 0.51833 0.0
O339 O 1.01203 0.988 0.47996 0.0
O340 O 0.94612 1.01591 0.56085 0.0
O341 O 0.97987 1.00363 0.58761 0.0
O342 O 0.96189 0.02304 0.50386 0.0
O343 O 1.00363 0.04624 0.50855 0.0
H344 H 0.11588 0.03367 0.41381 0.0
H345 H 0.09626 0.08097 0.48979 0.0
H346 H 0.13816 0.11618 0.47805 0.0
H347 H 0.15752 0.06892 0.40153 0.0
H348 H 0.90247 1.00407 0.61676 0.0
H349 H 0.95526 0.95181 0.57341 0.0
H350 H 0.91938 0.91184 0.58692 0.0
H351 H 0.86663 0.96426 0.63047 0.0
Gd352 Gd 0.53191 0.02869 0.04209 0.0
Gd353 Gd 0.48533 1.02129 1.00495 0.0
C354 C 0.48452 0.0627 0.06006 0.0
C355 C 0.58312 0.03917 0.06519 0.0
C356 C 0.60242 0.06332 0.07654 0.0
C357 C 0.63013 0.06095 0.08621 0.0
C358 C 0.59352 0.08873 0.07772 0.0
C359 C 0.63997 0.10923 0.09888 0.0
C360 C 0.61215 0.11154 0.0889 0.0
C361 C 0.64877 0.0837 0.09729 0.0
C362 C 0.49075 0.98573 0.06119 0.0
C363 C 0.53211 0.98675 0.98708 0.0
C364 C 0.4346 1.01181 0.98072 0.0
C365 C 0.41592 0.98852 0.96689 0.0
C366 C 0.39059 0.99245 0.95284 0.0
C367 C 0.42339 0.96254 0.96709 0.0
C368 C 0.38041 0.94456 0.93846 0.0
C369 C 0.40575 0.94069 0.95296 0.0
C370 C 0.37296 0.97067 0.93872 0.0
C371 C 0.52729 0.06359 0.98596 0.0
O372 O 0.51268 0.06332 0.06089 0.0
O373 O 0.46852 0.04515 0.04242 0.0
O374 O 0.55931 0.03119 0.0805 0.0
O375 O 0.57874 0.03855 0.03679 0.0
O376 O 0.50467 1.0048 0.07788 0.0
O377 O 0.49871 0.99055 0.03462 0.0
O378 O 0.504 0.98639 0.98627 0.0
O379 O 0.54831 1.00422 1.00472 0.0
O380 O 0.45859 1.02129 0.96636 0.0
O381 O 0.43849 1.01017 1.00905 0.0
O382 O 0.51388 0.04417 0.96936 0.0
O383 O 0.51855 0.05933 1.0124 0.0
H384 H 0.63727 0.04144 0.08541 0.0
H385 H 0.57217 0.09086 0.07012 0.0
H386 H 0.60484 0.13095 0.08966 0.0
H387 H 0.66983 0.08112 0.10529 0.0
H388 H 0.38464 1.01245 0.95244 0.0
H389 H 0.44294 0.95923 0.97795 0.0
H390 H 0.41194 0.9208 0.95336 0.0
H391 H 0.35391 0.97447 0.92732 0.0
Gd392 Gd 0.51398 0.49747 0.50087 0.0
Gd393 Gd 0.51234 0.54441 0.53767 0.0
C394 C 0.53962 0.49826 0.56853 0.0
C395 C 0.5294 0.457 0.47174 0.0
C396 C 0.5519 0.44024 0.47557 0.0
C397 C 0.55039 0.41566 0.45979 0.0
C398 C 0.5756 0.44917 0.49406 0.0
C399 C 0.59704 0.40978 0.47961 0.0
C400 C 0.59794 0.43405 0.49612 0.0
C401 C 0.57277 0.40053 0.46177 0.0
C402 C 0.46124 0.49541 0.5289 0.0
C403 C 0.48636 0.5437 0.47045 0.0
C404 C 0.49601 0.58485 0.56572 0.0
C405 C 0.47228 0.59986 0.56051 0.0
C406 C 0.47419 0.62667 0.57094 0.0
C407 C 0.44766 0.58754 0.54476 0.0
C408 C 0.42644 0.62838 0.55094 0.0
C409 C 0.42496 0.60167 0.53999 0.0
C410 C 0.45143 0.64084 0.56622 0.0
C411 C 0.56532 0.54669 0.51036 0.0
O412 O 0.53999 0.48819 0.54118 0.0
O413 O 0.52774 0.52003 0.57377 0.0
O414 O 0.50826 0.45408 0.4913 0.0
O415 O 0.53906 0.48243 0.46566 0.0
O416 O 0.46453 0.48862 0.50138 0.0
O417 O 0.48604 0.50313 0.54006 0.0
O418 O 0.48526 0.55296 0.49803 0.0
O419 O 0.4991 0.52251 0.46482 0.0
O420 O 0.51697 0.5879 0.54596 0.0
O421 O 0.4879 0.55956 0.57336 0.0
O422 O 0.56147 0.55391 0.53764 0.0
O423 O 0.54074 0.53866 0.49871 0.0
H424 H 0.53226 0.40852 0.44538 0.0
H425 H 0.5772 0.46816 0.50638 0.0
H426 H 0.61611 0.44157 0.51033 0.0
H427 H 0.57157 0.38212 0.44847 0.0
H428 H 0.49309 0.6365 0.58302 0.0
H429 H 0.44583 0.56686 0.53638 0.0
H430 H 0.40618 0.59163 0.52787 0.0
H431 H 0.45305 0.66128 0.57527 0.0
Gd432 Gd 0.01477 0.49323 0.03515 0.0
Gd433 Gd 1.01152 0.5503 1.00371 0.0
C434 C 0.06748 0.54609 0.0452 0.0
C435 C 0.02891 0.44673 0.04577 0.0
C436 C 0.05566 0.43746 0.0545 0.0
C437 C 0.05362 0.41617 0.07445 0.0
C438 C 0.08322 0.45089 0.04511 0.0
C439 C 0.1064 0.4225 0.07673 0.0
C440 C 0.10845 0.44329 0.05599 0.0
C441 C 0.07876 0.40878 0.08554 0.0
C442 C 0.98505 0.52539 0.0702 0.0
C443 C 0.95856 0.49732 0.99452 0.0
C444 C 0.99831 0.59728 0.99379 0.0
C445 C 0.97161 0.60899 0.99177 0.0
C446 C 0.94666 0.59444 0.97824 0.0
C447 C 0.97144 0.63549 1.00237 0.0
C448 C 0.92239 0.63365 0.98389 0.0
C449 C 0.94703 0.6477 0.99858 0.0
C450 C 0.92235 0.60669 0.97421 0.0
C451 C 0.04139 0.51833 0.96868 0.0
O452 O 0.05791 0.51953 0.04832 0.0
O453 O 0.053 0.56186 0.03006 0.0
O454 O 0.01767 0.46123 0.06578 0.0
O455 O 0.02848 0.45628 1.01909 0.0
O456 O 0.98847 0.50094 0.07665 0.0
O457 O 0.9967 0.53022 0.04496 0.0
O458 O 0.96753 0.52412 0.99244 0.0
O459 O 0.97386 0.48137 1.0083 0.0
O460 O 1.00259 0.5799 0.97281 0.0
O461 O 1.00501 0.59 1.02005 0.0
O462 O 0.0382 0.54287 0.96238 0.0
O463 O 0.02958 0.51342 0.99384 0.0
H464 H 0.03254 0.40569 0.08204 0.0
H465 H 0.08525 0.46764 0.02997 0.0
H466 H 0.1295 0.45429 0.04903 0.0
H467 H 0.0766 0.39249 0.10128 0.0
H468 H 0.9462 0.57384 0.97006 0.0
H469 H 0.99042 0.64695 1.01309 0.0
H470 H 0.94763 0.66828 1.00684 0.0
H471 H 0.90397 0.59531 0.96252 0.0
H472 H 0.24921 0.24604 0.37753 0.0
H473 H 0.20566 0.0896 0.41871 0.0
H474 H 0.29925 0.18455 0.35086 0.0
H475 H 0.15326 0.15048 0.44084 0.0
H476 H 0.2443 0.12538 0.40096 0.0
H477 H 0.21859 0.21287 0.40866 0.0
C478 C 0.25404 0.22566 0.37863 0.0
C479 C 0.27655 0.21793 0.36127 0.0
C480 C 0.22447 0.13095 0.40999 0.0
C481 C 0.24146 0.17979 0.3966 0.0
C482 C 0.20233 0.11051 0.41996 0.0
C483 C 0.17601 0.117 0.4309 0.0
C484 C 0.22025 0.1581 0.41083 0.0
C485 C 0.17318 0.14451 0.43264 0.0
C486 C 0.23655 0.20672 0.39637 0.0
C487 C 0.28215 0.1914 0.36388 0.0
N488 N 0.19489 0.164 0.4224 0.0
N489 N 0.26443 0.17315 0.38083 0.0
H490 H 0.32307 0.81902 0.8085 0.0
H491 H 0.3209 0.93222 0.93544 0.0
H492 H 0.24907 0.8576 0.82895 0.0
H493 H 0.39907 0.90548 0.90335 0.0
H494 H 0.2922 0.89846 0.90307 0.0
H495 H 0.349 0.84409 0.84972 0.0
C496 C 0.31219 0.83261 0.82177 0.0
C497 C 0.28397 0.83648 0.81497 0.0
C498 C 0.31561 0.89981 0.90333 0.0
C499 C 0.31344 0.86502 0.86231 0.0
C500 C 0.33202 0.91915 0.9217 0.0
C501 C 0.36249 0.92196 0.9218 0.0
C502 C 0.32974 0.88314 0.88488 0.0
C503 C 0.37565 0.90401 0.90408 0.0
C504 C 0.32697 0.84682 0.84536 0.0
C505 C 0.27071 0.85385 0.83339 0.0
N506 N 0.35922 0.88554 0.88611 0.0
N507 N 0.28566 0.86767 0.85603 0.0
H508 H 0.61199 0.38587 0.68282 0.0
H509 H 0.54272 0.51339 0.62767 0.0
H510 H 0.59164 0.44961 0.74096 0.0
H511 H 0.56419 0.45119 0.56817 0.0
H512 H 0.56064 0.49028 0.6689 0.0
H513 H 0.5945 0.40875 0.64106 0.0
C514 C 0.60374 0.40453 0.68709 0.0
C515 C 0.60358 0.41552 0.71609 0.0
C516 C 0.56155 0.48162 0.64686 0.0
C517 C 0.58345 0.4424 0.66734 0.0
C518 C 0.55129 0.49493 0.62309 0.0
C519 C 0.55181 0.4845 0.59394 0.0
C520 C 0.57257 0.45736 0.64198 0.0
C521 C 0.56325 0.46027 0.58999 0.0
C522 C 0.59386 0.41777 0.66295 0.0
C523 C 0.59285 0.44021 0.71936 0.0
N524 N 0.57303 0.44764 0.61352 0.0
N525 N 0.58333 0.45259 0.69558 0.0
H526 H 0.94855 0.65246 0.19624 0.0
H527 H 0.94315 0.50875 0.11123 0.0
H528 H 0.88446 0.58113 0.21395 0.0
H529 H 0.99466 0.58219 0.07792 0.0
H530 H 0.92287 0.53539 0.14951 0.0
H531 H 0.96729 0.62791 0.15447 0.0
C532 C 0.93838 0.63166 0.19154 0.0
C533 C 0.91464 0.61909 0.20905 0.0
C534 C 0.93836 0.5459 0.13375 0.0
C535 C 0.9363 0.59061 0.16068 0.0
C536 C 0.94996 0.53063 0.11167 0.0
C537 C 0.97044 0.54311 0.0908 0.0
C538 C 0.94754 0.57421 0.13583 0.0
C539 C 0.97853 0.57162 0.09299 0.0
C540 C 0.94905 0.61769 0.16742 0.0
C541 C 0.90245 0.59207 0.20122 0.0
N542 N 0.96731 0.58612 0.11519 0.0
N543 N 0.91343 0.57889 0.17801 0.0
H544 H 0.43355 0.17868 0.18658 0.0
H545 H 0.43311 0.07898 0.04864 0.0
H546 H 0.39441 0.19297 0.10387 0.0
H547 H 0.50593 0.09405 0.10774 0.0
H548 H 0.41275 0.11546 0.07353 0.0
H549 H 0.45553 0.14304 0.16218 0.0
C550 C 0.42975 0.17466 0.16328 0.0
C551 C 0.41192 0.18905 0.14738 0.0
C552 C 0.43315 0.11071 0.08105 0.0
C553 C 0.43629 0.14748 0.11975 0.0
C554 C 0.44468 0.08979 0.06704 0.0
C555 C 0.47125 0.08351 0.07618 0.0
C556 C 0.44799 0.12509 0.10472 0.0
C557 C 0.48542 0.09833 0.1 0.0
C558 C 0.44218 0.15413 0.14948 0.0
C559 C 0.40737 0.18219 0.11734 0.0
N560 N 0.47351 0.11838 0.11362 0.0
N561 N 0.41925 0.16176 0.1046 0.0
H562 H 0.08174 0.84645 0.60615 0.0
H563 H 0.09341 1.00273 0.58983 0.0
H564 H 0.12739 0.90188 0.67064 0.0
H565 H 0.01652 0.94749 0.56211 0.0
H566 H 0.10705 0.9665 0.61943 0.0
H567 H 0.05772 0.88304 0.5889 0.0
C568 C 0.08618 0.86624 0.61699 0.0
C569 C 0.10635 0.87134 0.6398 0.0
C570 C 0.08695 0.9625 0.60725 0.0
C571 C 0.07987 0.91323 0.61983 0.0
C572 C 0.07924 0.98309 0.59033 0.0
C573 C 0.05407 0.9779 0.57329 0.0
C574 C 0.06965 0.9365 0.60649 0.0
C575 C 0.03628 0.95221 0.57477 0.0
C576 C 0.07253 0.88705 0.60724 0.0
C577 C 0.11173 0.89727 0.6531 0.0
N578 N 0.04472 0.93225 0.59062 0.0
N579 N 0.09897 0.91749 0.64253 0.0
H580 H 0.80053 0.45894 0.88757 0.0
H581 H 0.92998 0.44419 0.99817 0.0
H582 H 0.80352 0.38673 0.93726 0.0
H583 H 0.92188 0.52022 0.9586 0.0
H584 H 0.88471 0.4228 0.97469 0.0
H585 H 0.84504 0.48135 0.91191 0.0
C586 C 0.81023 0.44769 0.90366 0.0
C587 C 0.79765 0.42057 0.91003 0.0
C588 C 0.89272 0.44418 0.97112 0.0
C589 C 0.84973 0.44648 0.93799 0.0
C590 C 0.91877 0.45652 0.98459 0.0
C591 C 0.93017 0.48427 0.98058 0.0
C592 C 0.87759 0.45941 0.95309 0.0
C593 C 0.91419 0.49886 0.96256 0.0
C594 C 0.83595 0.46059 0.91749 0.0
C595 C 0.81219 0.40734 0.93089 0.0
N596 N 0.88896 0.48631 0.94951 0.0
N597 N 0.83719 0.4203 0.94391 0.0
H598 H 0.73126 0.64177 0.45502 0.0
H599 H 0.57845 0.5384 0.45127 0.0
H600 H 0.70752 0.5862 0.38165 0.0
H601 H 0.61549 0.57825 0.53054 0.0
H602 H 0.62343 0.55738 0.424 0.0
H603 H 0.68736 0.62077 0.48132 0.0
C604 C 0.71716 0.62501 0.44432 0.0
C605 C 0.72391 0.61586 0.41577 0.0
C606 C 0.62174 0.56188 0.44739 0.0
C607 C 0.67216 0.59184 0.44618 0.0
C608 C 0.59602 0.55102 0.463 0.0
C609 C 0.59299 0.55667 0.49336 0.0
C610 C 0.64461 0.57889 0.46206 0.0
C611 C 0.61665 0.57324 0.50724 0.0
C612 C 0.69174 0.61308 0.45948 0.0
C613 C 0.70359 0.59445 0.4033 0.0
N614 N 0.64115 0.58382 0.49155 0.0
N615 N 0.67882 0.58333 0.41845 0.0
H616 H 0.26258 0.3578 0.1108 0.0
H617 H 0.116 0.41698 0.13511 0.0
H618 H 0.22833 0.37724 0.19617 0.0
H619 H 0.15677 0.413 0.04931 0.0
H620 H 0.15827 0.40359 0.15754 0.0
H621 H 0.22602 0.37982 0.08734 0.0
C622 C 0.24771 0.3671 0.12459 0.0
C623 C 0.24818 0.36534 0.15547 0.0
C624 C 0.15817 0.40578 0.13382 0.0
C625 C 0.2062 0.39013 0.12888 0.0
C626 C 0.13393 0.41325 0.12101 0.0
C627 C 0.1328 0.41577 0.09032 0.0
C628 C 0.18143 0.40046 0.11582 0.0
C629 C 0.15685 0.41122 0.07308 0.0
C630 C 0.22677 0.37952 0.11121 0.0
C631 C 0.22832 0.37759 0.17228 0.0
N632 N 0.18011 0.40347 0.08605 0.0
N633 N 0.20799 0.38919 0.15878 0.0
H634 H 0.57333 0.23673 0.94027 0.0
H635 H 0.5529 0.07357 0.93149 0.0
H636 H 0.62002 0.19402 0.8774 0.0
H637 H 0.53378 0.11569 1.01136 0.0
H638 H 0.5734 0.11737 0.90943 0.0
H639 H 0.55435 0.19323 0.9642 0.0
C640 C 0.57952 0.21828 0.9313 0.0
C641 C 0.5985 0.21945 0.90656 0.0
C642 C 0.56487 0.11715 0.93183 0.0
C643 C 0.57641 0.16897 0.9341 0.0
C644 C 0.55311 0.09203 0.94452 0.0
C645 C 0.5416 0.09063 0.97351 0.0
C646 C 0.56475 0.14161 0.94781 0.0
C647 C 0.54252 0.11553 0.98907 0.0
C648 C 0.56877 0.19337 0.94519 0.0
C649 C 0.60575 0.19452 0.89643 0.0
N650 N 0.55354 0.13983 0.976 0.0
N651 N 0.59461 0.17057 0.90996 0.0
H652 H 0.88835 0.81269 0.43988 0.0
H653 H 1.00906 0.9498 0.43838 0.0
H654 H 0.95645 0.82757 0.37355 0.0
H655 H 0.94554 0.92951 0.50832 0.0
H656 H 0.9897 0.90635 0.41342 0.0
H657 H 0.90828 0.85601 0.4639 0.0
C658 C 0.9074 0.82505 0.43011 0.0
C659 C 0.92043 0.81608 0.40428 0.0
C660 C 0.97999 0.9114 0.43422 0.0
C661 C 0.94388 0.86648 0.43234 0.0
C662 C 0.99103 0.93634 0.44854 0.0
C663 C 0.97905 0.94368 0.47568 0.0
C664 C 0.95656 0.89343 0.4469 0.0
C665 C 0.95566 0.92505 0.48753 0.0
C666 C 0.91894 0.8499 0.44408 0.0
C667 C 0.94558 0.8332 0.39343 0.0
N668 N 0.94528 0.90106 0.47316 0.0
N669 N 0.9563 0.85743 0.40734 0.0
H670 H 0.32131 0.75298 0.55739 0.0
H671 H 0.36859 0.60734 0.558 0.0
H672 H 0.26773 0.68052 0.59121 0.0
H673 H 0.42701 0.68181 0.53757 0.0
H674 H 0.32793 0.63208 0.55879 0.0
H675 H 0.35621 0.72536 0.53855 0.0
C676 C 0.31666 0.7312 0.56043 0.0
C677 C 0.29187 0.71911 0.57644 0.0
C678 C 0.34959 0.64296 0.55377 0.0
C679 C 0.33167 0.68744 0.55498 0.0
C680 C 0.37282 0.62881 0.55316 0.0
C681 C 0.40132 0.64261 0.54809 0.0
C682 C 0.35486 0.67112 0.54937 0.0
C683 C 0.40548 0.6705 0.54221 0.0
C684 C 0.33657 0.71545 0.54966 0.0
C685 C 0.28657 0.69073 0.57909 0.0
N686 N 0.38253 0.6839 0.54331 0.0
N687 N 0.30655 0.67591 0.56891 0.0
H688 H 0.73217 0.83762 0.67246 0.0
H689 H 0.89995 0.88684 0.63204 0.0
H690 H 0.80151 0.80046 0.70582 0.0
H691 H 0.83082 0.92836 0.60662 0.0
H692 H 0.86349 0.84951 0.6507 0.0
H693 H 0.7671 0.8649 0.63946 0.0
C694 C 0.75468 0.83487 0.67243 0.0
C695 C 0.76406 0.81708 0.69221 0.0
C696 C 0.8563 0.86665 0.64074 0.0
C697 C 0.80423 0.84843 0.65481 0.0
C698 C 0.87709 0.88791 0.62998 0.0
C699 C 0.86839 0.91092 0.61818 0.0
C700 C 0.82662 0.86841 0.63962 0.0
C701 C 0.83849 0.91128 0.61616 0.0
C702 C 0.77463 0.85047 0.65365 0.0
C703 C 0.79337 0.81396 0.69095 0.0
N704 N 0.81871 0.89048 0.62702 0.0
N705 N 0.81253 0.82984 0.67293 0.0
H706 H 0.71301 0.23332 0.22377 0.0
H707 H 0.69888 0.12433 0.09103 0.0
H708 H 0.78368 0.19609 0.18951 0.0
H709 H 0.62534 0.14797 0.13734 0.0
H710 H 0.73133 0.15914 0.11885 0.0
H711 H 0.68212 0.21112 0.18392 0.0
C712 C 0.7222 0.22102 0.2074 0.0
C713 C 0.75075 0.2162 0.21002 0.0
C714 C 0.70807 0.15694 0.12267 0.0
C715 C 0.71566 0.19063 0.16479 0.0
C716 C 0.68954 0.137 0.1069 0.0
C717 C 0.6594 0.13288 0.11228 0.0
C718 C 0.6964 0.17287 0.14407 0.0
C719 C 0.64844 0.15038 0.13251 0.0
C720 C 0.70454 0.20821 0.18484 0.0
C721 C 0.76161 0.19996 0.18843 0.0
N722 N 0.66698 0.16939 0.14798 0.0
N723 N 0.74396 0.18752 0.16689 0.0
H724 H 0.45315 0.61129 0.29854 0.0
H725 H 0.45046 0.5826 0.47359 0.0
H726 H 0.3924 0.63988 0.35909 0.0
H727 H 0.49388 0.53778 0.40985 0.0
H728 H 0.43183 0.60619 0.43289 0.0
H729 H 0.47116 0.58738 0.33926 0.0
C730 C 0.44363 0.6128 0.32035 0.0
C731 C 0.42099 0.6279 0.32489 0.0
C732 C 0.44536 0.59115 0.42774 0.0
C733 C 0.44193 0.60011 0.37241 0.0
C734 C 0.4561 0.57758 0.4511 0.0
C735 C 0.47385 0.55783 0.44553 0.0
C736 C 0.45262 0.5855 0.39817 0.0
C737 C 0.48023 0.55258 0.41558 0.0
C738 C 0.45389 0.59887 0.34371 0.0
C739 C 0.40958 0.62844 0.35401 0.0
N740 N 0.46987 0.56631 0.39331 0.0
N741 N 0.42019 0.61503 0.3764 0.0
H742 H 0.07841 0.39149 0.84254 0.0
H743 H 0.08396 0.53499 0.92832 0.0
H744 H 0.14191 0.46318 0.82458 0.0
H745 H 0.03118 0.46162 0.96026 0.0
H746 H 0.10428 0.50848 0.88993 0.0
H747 H 0.05954 0.41593 0.88431 0.0
C748 C 0.08842 0.41235 0.84717 0.0
C749 C 0.11204 0.42504 0.8296 0.0
C750 C 0.08851 0.49794 0.90543 0.0
C751 C 0.09026 0.45339 0.878 0.0
C752 C 0.0769 0.51314 0.92758 0.0
C753 C 0.05607 0.50064 0.94811 0.0
C754 C 0.079 0.4697 0.90294 0.0
C755 C 0.04764 0.47219 0.94551 0.0
C756 C 0.07768 0.42626 0.87129 0.0
C757 C 0.12403 0.45213 0.83736 0.0
N758 N 0.05889 0.45777 0.92327 0.0
N759 N 0.11301 0.46524 0.8606 0.0
H760 H 0.57786 0.86833 0.86041 0.0
H761 H 0.58377 0.97037 0.99745 0.0
H762 H 0.62374 0.85771 0.9399 0.0
H763 H 0.5094 0.95494 0.94035 0.0
H764 H 0.60324 0.9334 0.97244 0.0
H765 H 0.55609 0.904 0.88576 0.0
C766 C 0.58309 0.8734 0.88328 0.0
C767 C 0.60244 0.8601 0.89823 0.0
C768 C 0.58267 0.93815 0.96541 0.0
C769 C 0.57834 0.90103 0.92694 0.0
C770 C 0.57167 0.95936 0.97948 0.0
C771 C 0.54495 0.96571 0.97091 0.0
C772 C 0.5671 0.92353 0.94229 0.0
C773 C 0.53006 0.95064 0.94765 0.0
C774 C 0.57071 0.89366 0.89768 0.0
C775 C 0.60867 0.86736 0.92777 0.0
N776 N 0.54144 0.93031 0.93398 0.0
N777 N 0.5969 0.88758 0.94111 0.0
H778 H 0.90933 0.13529 0.3609 0.0
H779 H 0.9401 0.03317 0.45044 0.0
H780 H 0.9262 0.18291 0.44143 0.0
H781 H 1.00559 0.09556 0.48813 0.0
H782 H 0.92377 0.06753 0.42019 0.0
H783 H 0.93401 0.10078 0.38139 0.0
C784 C 0.91818 0.13856 0.38287 0.0
C785 C 0.91495 0.16182 0.39974 0.0
C786 C 0.94215 0.07358 0.43456 0.0
C787 C 0.94364 0.12256 0.42297 0.0
C788 C 0.95132 0.05405 0.45191 0.0
C789 C 0.97415 0.06165 0.47167 0.0
C790 C 0.95558 0.10092 0.43754 0.0
C791 C 0.98796 0.08894 0.47299 0.0
C792 C 0.93231 0.11886 0.39445 0.0
C793 C 0.92803 0.16536 0.42759 0.0
N794 N 0.97803 0.10778 0.45657 0.0
N795 N 0.94169 0.14583 0.43841 0.0
H796 H 0.22451 0.65769 0.10115 0.0
H797 H 0.10184 0.52314 0.08336 0.0
H798 H 0.22165 0.58704 0.15491 0.0
H799 H 0.09786 0.59872 0.04066 0.0
H800 H 0.14682 0.54495 0.10759 0.0
H801 H 0.17991 0.63542 0.07694 0.0
C802 C 0.21472 0.63742 0.10785 0.0
C803 C 0.22735 0.6244 0.13029 0.0
C804 C 0.13613 0.55678 0.09292 0.0
C805 C 0.17542 0.59848 0.10229 0.0
C806 C 0.11034 0.54428 0.07892 0.0
C807 C 0.09562 0.55895 0.05974 0.0
C808 C 0.14779 0.58427 0.0877 0.0
C809 C 0.1081 0.5864 0.05517 0.0
C810 C 0.18898 0.62473 0.09403 0.0
C811 C 0.21289 0.5982 0.13805 0.0
N812 N 0.13326 0.59801 0.06888 0.0
N813 N 0.18798 0.58617 0.12408 0.0
H814 H 0.28097 0.44291 0.59043 0.0
H815 H 0.45517 0.48616 0.58869 0.0
H816 H 0.33481 0.41539 0.65559 0.0
H817 H 0.4049 0.48196 0.50938 0.0
H818 H 0.41067 0.46709 0.61637 0.0
H819 H 0.32517 0.46387 0.56341 0.0
C820 C 0.30205 0.44141 0.59922 0.0
C821 C 0.30395 0.4272 0.62544 0.0
C822 C 0.40934 0.47043 0.59293 0.0
C823 C 0.355 0.45159 0.59454 0.0
C824 C 0.43475 0.48149 0.5771 0.0
C825 C 0.43394 0.48568 0.54653 0.0
C826 C 0.38255 0.46394 0.57836 0.0
C827 C 0.40669 0.47905 0.53284 0.0
C828 C 0.32732 0.45329 0.58365 0.0
C829 C 0.33209 0.42587 0.63544 0.0
N830 N 0.3822 0.4687 0.54878 0.0
N831 N 0.35633 0.43799 0.62019 0.0
H832 H 0.81739 0.74832 0.92524 0.0
H833 H 0.86381 0.61225 0.98356 0.0
H834 H 0.76292 0.66932 0.91779 0.0
H835 H 0.92436 0.68669 0.96813 0.0
H836 H 0.82424 0.63444 0.96738 0.0
H837 H 0.85424 0.72757 0.94944 0.0
C838 C 0.81302 0.72665 0.92907 0.0
C839 C 0.78711 0.71048 0.91938 0.0
C840 C 0.84619 0.64592 0.96776 0.0
C841 C 0.82928 0.68658 0.94682 0.0
C842 C 0.86883 0.63325 0.97687 0.0
C843 C 0.89761 0.6475 0.97701 0.0
C844 C 0.85227 0.6731 0.9589 0.0
C845 C 0.90258 0.6749 0.96874 0.0
C846 C 0.83414 0.7148 0.94269 0.0
C847 C 0.78276 0.68245 0.92459 0.0
N848 N 0.88018 0.68673 0.95991 0.0
N849 N 0.80367 0.67137 0.9379 0.0
H850 H 0.42019 0.85089 0.17784 0.0
H851 H 0.47575 0.93601 0.03138 0.0
H852 H 0.4329 0.81246 0.09354 0.0
H853 H 0.47584 0.97197 0.11862 0.0
H854 H 0.45711 0.89114 0.05267 0.0
H855 H 0.43803 0.89515 0.156 0.0
C856 C 0.42684 0.85144 0.15483 0.0
C857 C 0.42475 0.82712 0.13789 0.0
C858 C 0.46112 0.90884 0.06718 0.0
C859 C 0.44504 0.87898 0.11212 0.0
C860 C 0.47169 0.9346 0.05496 0.0
C861 C 0.47751 0.95812 0.0731 0.0
C862 C 0.45598 0.9063 0.0979 0.0
C863 C 0.4718 0.95463 0.10361 0.0
C864 C 0.43691 0.87704 0.14222 0.0
C865 C 0.43338 0.83013 0.10781 0.0
N866 N 0.46145 0.9295 0.11489 0.0
N867 N 0.44296 0.85527 0.09608 0.0
H868 H 0.14266 0.22708 0.60492 0.0
H869 H 0.01837 0.09253 0.6042 0.0
H870 H 0.07157 0.21502 0.66816 0.0
H871 H 0.08626 0.1094 0.5379 0.0
H872 H 0.03772 0.13617 0.6288 0.0
H873 H 0.12282 0.1835 0.58141 0.0
C874 C 0.12297 0.21529 0.61413 0.0
C875 C 0.10907 0.22514 0.63894 0.0
C876 C 0.04839 0.13032 0.60887 0.0
C877 C 0.08571 0.17445 0.61142 0.0
C878 C 0.03735 0.10527 0.59477 0.0
C879 C 0.05056 0.09692 0.56874 0.0
C880 C 0.07303 0.1474 0.5971 0.0
C881 C 0.07515 0.11466 0.55779 0.0
C882 C 0.11149 0.19029 0.60044 0.0
C883 C 0.08314 0.20871 0.64907 0.0
N884 N 0.08547 0.13878 0.57193 0.0
N885 N 0.07246 0.18433 0.63543 0.0
H886 H 0.70555 0.28874 0.44952 0.0
H887 H 0.65506 0.43173 0.47837 0.0
H888 H 0.76202 0.36637 0.44001 0.0
H889 H 0.59641 0.35465 0.47976 0.0
H890 H 0.69602 0.40765 0.47286 0.0
H891 H 0.66732 0.31205 0.46928 0.0
C892 C 0.71013 0.31066 0.45216 0.0
C893 C 0.73693 0.32567 0.44281 0.0
C894 C 0.67422 0.39597 0.47465 0.0
C895 C 0.69308 0.3525 0.46493 0.0
C896 C 0.65079 0.40971 0.47801 0.0
C897 C 0.62217 0.3952 0.47929 0.0
C898 C 0.66908 0.36747 0.47244 0.0
C899 C 0.61805 0.36668 0.47831 0.0
C900 C 0.68819 0.32397 0.46322 0.0
C901 C 0.7415 0.35405 0.44646 0.0
N902 N 0.64122 0.35375 0.47471 0.0
N903 N 0.7197 0.36655 0.45697 0.0
loop_
_geom_bond_atom_site_label_1
_geom_bond_atom_site_label_2
_geom_bond_distance
_geom_bond_site_symmetry_2
_ccdc_geom_bond_type
C0 C1 1.386 . S
C0 C2 1.397 . S
C0 H24 0.931 . S
C1 C0 1.386 . S
C1 C5 1.397 . S
C2 C0 1.397 . S
C2 C3 1.384 . S
C2 H25 0.930 . S
C3 C2 1.384 . S
C3 C4 1.377 . S
C3 C6 1.481 . S
C4 C3 1.377 . S
C4 C5 1.389 . S
C4 H26 0.929 . S
C5 C1 1.397 . S
C5 C4 1.389 . S
C5 H27 0.931 . S
C6 C3 1.481 . S
C6 C7 1.387 . S
C6 C11 1.390 . S
C7 C6 1.387 . S
C7 C8 1.401 . S
C7 H28 0.930 . S
C8 C7 1.401 . S
C8 C9 1.376 . S
C8 C17 1.511 . S
C9 C8 1.376 . S
C9 C10 1.392 . S
C9 H30 0.931 . S
C10 C9 1.392 . S
C10 C11 1.361 . S
C10 C12 1.500 . S
C11 C6 1.390 . S
C11 C10 1.361 . S
C11 H29 0.931 . S
C12 C10 1.500 . S
C12 C13 1.371 . S
C12 C14 1.365 . S
C13 C12 1.371 . S
C13 C23 1.386 . S
C13 H31 0.931 . S
C14 C12 1.365 . S
C14 C15 1.409 . S
C14 H32 0.929 . S
C15 C14 1.409 . S
C15 C16 1.380 . S
C15 H33 0.930 . S
C16 C15 1.380 . S
C16 C23 1.357 . S
C17 C8 1.511 . S
C17 C18 1.341 . S
C17 C19 1.371 . S
C18 C17 1.341 . S
C18 C22 1.394 . S
C18 H34 0.930 . S
C19 C17 1.371 . S
C19 C20 1.392 . S
C19 H35 0.931 . S
C20 C19 1.392 . S
C20 C21 1.331 . S
C20 H38 0.932 . S
C21 C20 1.331 . S
C21 C22 1.336 . S
C22 C18 1.394 . S
C22 C21 1.336 . S
C22 H37 0.929 . S
C23 C13 1.386 . S
C23 C16 1.357 . S
C23 H36 0.928 . S
H24 C0 0.931 . S
H25 C2 0.930 . S
H26 C4 0.929 . S
H27 C5 0.931 . S
H28 C7 0.930 . S
H29 C11 0.931 . S
H30 C9 0.931 . S
H31 C13 0.931 . S
H32 C14 0.929 . S
H33 C15 0.930 . S
H34 C18 0.930 . S
H35 C19 0.931 . S
H36 C23 0.928 . S
H37 C22 0.929 . S
H38 C20 0.932 . S
C39 C40 1.386 . S
C39 C41 1.397 . S
C39 H63 0.931 . S
C40 C39 1.386 . S
C40 C44 1.397 . S
C41 C39 1.397 . S
C41 C42 1.384 . S
C41 H64 0.930 . S
C42 C41 1.384 . S
C42 C43 1.377 . S
C42 C45 1.481 . S
C43 C42 1.377 . S
C43 C44 1.389 . S
C43 H65 0.929 . S
C44 C40 1.397 . S
C44 C43 1.389 . S
C44 H66 0.931 . S
C45 C42 1.481 . S
C45 C46 1.387 . S
C45 C50 1.390 . S
C46 C45 1.387 . S
C46 C47 1.401 . S
C46 H67 0.930 . S
C47 C46 1.401 . S
C47 C48 1.376 . S
C47 C56 1.511 . S
C48 C47 1.376 . S
C48 C49 1.392 . S
C48 H69 0.931 . S
C49 C48 1.392 . S
C49 C50 1.361 . S
C49 C51 1.500 . S
C50 C45 1.390 . S
C50 C49 1.361 . S
C50 H68 0.931 . S
C51 C49 1.500 . S
C51 C52 1.371 . S
C51 C53 1.365 . S
C52 C51 1.371 . S
C52 C62 1.386 . S
C52 H70 0.931 . S
C53 C51 1.365 . S
C53 C54 1.409 . S
C53 H71 0.929 . S
C54 C53 1.409 . S
C54 C55 1.380 . S
C54 H72 0.930 . S
C55 C54 1.380 . S
C55 C62 1.357 . S
C56 C47 1.511 . S
C56 C57 1.341 . S
C56 C58 1.371 . S
C57 C56 1.341 . S
C57 C61 1.394 . S
C57 H73 0.930 . S
C58 C56 1.371 . S
C58 C59 1.392 . S
C58 H74 0.931 . S
C59 C58 1.392 . S
C59 C60 1.331 . S
C59 H77 0.932 . S
C60 C59 1.331 . S
C60 C61 1.336 . S
C61 C57 1.394 . S
C61 C60 1.336 . S
C61 H76 0.929 . S
C62 C52 1.386 . S
C62 C55 1.357 . S
C62 H75 0.928 . S
H63 C39 0.931 . S
H64 C41 0.930 . S
H65 C43 0.929 . S
H66 C44 0.931 . S
H67 C46 0.930 . S
H68 C50 0.931 . S
H69 C48 0.931 . S
H70 C52 0.931 . S
H71 C53 0.929 . S
H72 C54 0.930 . S
H73 C57 0.930 . S
H74 C58 0.931 . S
H75 C62 0.928 . S
H76 C61 0.929 . S
H77 C59 0.932 . S
C78 C79 1.386 . S
C78 C80 1.397 . S
C78 H102 0.931 . S
C79 C78 1.386 . S
C79 C83 1.397 . S
C80 C78 1.397 . S
C80 C81 1.384 . S
C80 H103 0.930 . S
C81 C80 1.384 . S
C81 C82 1.377 . S
C81 C84 1.481 . S
C82 C81 1.377 . S
C82 C83 1.389 . S
C82 H104 0.929 . S
C83 C79 1.397 . S
C83 C82 1.389 . S
C83 H105 0.931 . S
C84 C81 1.481 . S
C84 C85 1.387 . S
C84 C89 1.390 . S
C85 C84 1.387 . S
C85 C86 1.401 . S
C85 H106 0.930 . S
C86 C85 1.401 . S
C86 C87 1.376 . S
C86 C95 1.511 . S
C87 C86 1.376 . S
C87 C88 1.392 . S
C87 H108 0.931 . S
C88 C87 1.392 . S
C88 C89 1.361 . S
C88 C90 1.500 . S
C89 C84 1.390 . S
C89 C88 1.361 . S
C89 H107 0.931 . S
C90 C88 1.500 . S
C90 C91 1.371 . S
C90 C92 1.365 . S
C91 C90 1.371 . S
C91 C101 1.386 . S
C91 H109 0.931 . S
C92 C90 1.365 . S
C92 C93 1.409 . S
C92 H110 0.929 . S
C93 C92 1.409 . S
C93 C94 1.380 . S
C93 H111 0.930 . S
C94 C93 1.380 . S
C94 C101 1.357 . S
C95 C86 1.511 . S
C95 C96 1.341 . S
C95 C97 1.371 . S
C96 C95 1.341 . S
C96 C100 1.394 . S
C96 H112 0.930 . S
C97 C95 1.371 . S
C97 C98 1.392 . S
C97 H113 0.931 . S
C98 C97 1.392 . S
C98 C99 1.331 . S
C98 H116 0.932 . S
C99 C98 1.331 . S
C99 C100 1.336 . S
C100 C96 1.394 . S
C100 C99 1.336 . S
C100 H115 0.929 . S
C101 C91 1.386 . S
C101 C94 1.357 . S
C101 H114 0.928 . S
H102 C78 0.931 . S
H103 C80 0.930 . S
H104 C82 0.929 . S
H105 C83 0.931 . S
H106 C85 0.930 . S
H107 C89 0.931 . S
H108 C87 0.931 . S
H109 C91 0.931 . S
H110 C92 0.929 . S
H111 C93 0.930 . S
H112 C96 0.930 . S
H113 C97 0.931 . S
H114 C101 0.928 . S
H115 C100 0.929 . S
H116 C98 0.932 . S
C117 C118 1.386 . S
C117 C119 1.397 . S
C117 H141 0.931 . S
C118 C117 1.386 . S
C118 C122 1.397 . S
C119 C117 1.397 . S
C119 C120 1.384 . S
C119 H142 0.930 . S
C120 C119 1.384 . S
C120 C121 1.377 . S
C120 C123 1.481 . S
C121 C120 1.377 . S
C121 C122 1.389 . S
C121 H143 0.929 . S
C122 C118 1.397 . S
C122 C121 1.389 . S
C122 H144 0.931 . S
C123 C120 1.481 . S
C123 C124 1.387 . S
C123 C128 1.390 . S
C124 C123 1.387 . S
C124 C125 1.401 . S
C124 H145 0.930 . S
C125 C124 1.401 . S
C125 C126 1.376 . S
C125 C134 1.511 . S
C126 C125 1.376 . S
C126 C127 1.392 . S
C126 H147 0.931 . S
C127 C126 1.392 . S
C127 C128 1.361 . S
C127 C129 1.500 . S
C128 C123 1.390 . S
C128 C127 1.361 . S
C128 H146 0.931 . S
C129 C127 1.500 . S
C129 C130 1.371 . S
C129 C131 1.365 . S
C130 C129 1.371 . S
C130 C140 1.386 . S
C130 H148 0.931 . S
C131 C129 1.365 . S
C131 C132 1.409 . S
C131 H149 0.929 . S
C132 C131 1.409 . S
C132 C133 1.380 . S
C132 H150 0.930 . S
C133 C132 1.380 . S
C133 C140 1.357 . S
C134 C125 1.511 . S
C134 C135 1.341 . S
C134 C136 1.371 . S
C135 C134 1.341 . S
C135 C139 1.394 . S
C135 H151 0.930 . S
C136 C134 1.371 . S
C136 C137 1.392 . S
C136 H152 0.931 . S
C137 C136 1.392 . S
C137 C138 1.331 . S
C137 H155 0.932 . S
C138 C137 1.331 . S
C138 C139 1.336 . S
C139 C135 1.394 . S
C139 C138 1.336 . S
C139 H154 0.929 . S
C140 C130 1.386 . S
C140 C133 1.357 . S
C140 H153 0.928 . S
H141 C117 0.931 . S
H142 C119 0.930 . S
H143 C121 0.929 . S
H144 C122 0.931 . S
H145 C124 0.930 . S
H146 C128 0.931 . S
H147 C126 0.931 . S
H148 C130 0.931 . S
H149 C131 0.929 . S
H150 C132 0.930 . S
H151 C135 0.930 . S
H152 C136 0.931 . S
H153 C140 0.928 . S
H154 C139 0.929 . S
H155 C137 0.932 . S
C156 C157 1.386 . S
C156 C158 1.397 . S
C156 H180 0.931 . S
C157 C156 1.386 . S
C157 C161 1.397 . S
C158 C156 1.397 . S
C158 C159 1.384 . S
C158 H181 0.930 . S
C159 C158 1.384 . S
C159 C160 1.377 . S
C159 C162 1.481 . S
C160 C159 1.377 . S
C160 C161 1.389 . S
C160 H182 0.929 . S
C161 C157 1.397 . S
C161 C160 1.389 . S
C161 H183 0.931 . S
C162 C159 1.481 . S
C162 C163 1.387 . S
C162 C167 1.390 . S
C163 C162 1.387 . S
C163 C164 1.401 . S
C163 H184 0.930 . S
C164 C163 1.401 . S
C164 C165 1.376 . S
C164 C173 1.511 . S
C165 C164 1.376 . S
C165 C166 1.392 . S
C165 H186 0.931 . S
C166 C165 1.392 . S
C166 C167 1.361 . S
C166 C168 1.500 . S
C167 C162 1.390 . S
C167 C166 1.361 . S
C167 H185 0.931 . S
C168 C166 1.500 . S
C168 C169 1.371 . S
C168 C170 1.365 . S
C169 C168 1.371 . S
C169 C179 1.386 . S
C169 H187 0.931 . S
C170 C168 1.365 . S
C170 C171 1.409 . S
C170 H188 0.929 . S
C171 C170 1.409 . S
C171 C172 1.380 . S
C171 H189 0.930 . S
C172 C171 1.380 . S
C172 C179 1.357 . S
C173 C164 1.511 . S
C173 C174 1.341 . S
C173 C175 1.371 . S
C174 C173 1.341 . S
C174 C178 1.394 . S
C174 H190 0.930 . S
C175 C173 1.371 . S
C175 C176 1.392 . S
C175 H191 0.931 . S
C176 C175 1.392 . S
C176 C177 1.331 . S
C176 H194 0.932 . S
C177 C176 1.331 . S
C177 C178 1.336 . S
C178 C174 1.394 . S
C178 C177 1.336 . S
C178 H193 0.929 . S
C179 C169 1.386 . S
C179 C172 1.357 . S
C179 H192 0.928 . S
H180 C156 0.931 . S
H181 C158 0.930 . S
H182 C160 0.929 . S
H183 C161 0.931 . S
H184 C163 0.930 . S
H185 C167 0.931 . S
H186 C165 0.931 . S
H187 C169 0.931 . S
H188 C170 0.929 . S
H189 C171 0.930 . S
H190 C174 0.930 . S
H191 C175 0.931 . S
H192 C179 0.928 . S
H193 C178 0.929 . S
H194 C176 0.932 . S
C195 C196 1.386 . S
C195 C197 1.397 . S
C195 H219 0.931 . S
C196 C195 1.386 . S
C196 C200 1.397 . S
C197 C195 1.397 . S
C197 C198 1.384 . S
C197 H220 0.930 . S
C198 C197 1.384 . S
C198 C199 1.377 . S
C198 C201 1.481 . S
C199 C198 1.377 . S
C199 C200 1.389 . S
C199 H221 0.929 . S
C200 C196 1.397 . S
C200 C199 1.389 . S
C200 H222 0.931 . S
C201 C198 1.481 . S
C201 C202 1.387 . S
C201 C206 1.390 . S
C202 C201 1.387 . S
C202 C203 1.401 . S
C202 H223 0.930 . S
C203 C202 1.401 . S
C203 C204 1.376 . S
C203 C212 1.511 . S
C204 C203 1.376 . S
C204 C205 1.392 . S
C204 H225 0.931 . S
C205 C204 1.392 . S
C205 C206 1.361 . S
C205 C207 1.500 . S
C206 C201 1.390 . S
C206 C205 1.361 . S
C206 H224 0.931 . S
C207 C205 1.500 . S
C207 C208 1.371 . S
C207 C209 1.365 . S
C208 C207 1.371 . S
C208 C218 1.386 . S
C208 H226 0.931 . S
C209 C207 1.365 . S
C209 C210 1.409 . S
C209 H227 0.929 . S
C210 C209 1.409 . S
C210 C211 1.380 . S
C210 H228 0.930 . S
C211 C210 1.380 . S
C211 C218 1.357 . S
C212 C203 1.511 . S
C212 C213 1.341 . S
C212 C214 1.371 . S
C213 C212 1.341 . S
C213 C217 1.394 . S
C213 H229 0.930 . S
C214 C212 1.371 . S
C214 C215 1.392 . S
C214 H230 0.931 . S
C215 C214 1.392 . S
C215 C216 1.331 . S
C215 H233 0.932 . S
C216 C215 1.331 . S
C216 C217 1.336 . S
C217 C213 1.394 . S
C217 C216 1.336 . S
C217 H232 0.929 . S
C218 C208 1.386 . S
C218 C211 1.357 . S
C218 H231 0.928 . S
H219 C195 0.931 . S
H220 C197 0.930 . S
H221 C199 0.929 . S
H222 C200 0.931 . S
H223 C202 0.930 . S
H224 C206 0.931 . S
H225 C204 0.931 . S
H226 C208 0.931 . S
H227 C209 0.929 . S
H228 C210 0.930 . S
H229 C213 0.930 . S
H230 C214 0.931 . S
H231 C218 0.928 . S
H232 C217 0.929 . S
H233 C215 0.932 . S
C234 C235 1.386 . S
C234 C236 1.397 . S
C234 H258 0.931 . S
C235 C234 1.386 . S
C235 C239 1.397 . S
C236 C234 1.397 . S
C236 C237 1.384 . S
C236 H259 0.930 . S
C237 C236 1.384 . S
C237 C238 1.377 . S
C237 C240 1.481 . S
C238 C237 1.377 . S
C238 C239 1.389 . S
C238 H260 0.929 . S
C239 C235 1.397 . S
C239 C238 1.389 . S
C239 H261 0.931 . S
C240 C237 1.481 . S
C240 C241 1.387 . S
C240 C245 1.390 . S
C241 C240 1.387 . S
C241 C242 1.401 . S
C241 H262 0.930 . S
C242 C241 1.401 . S
C242 C243 1.376 . S
C242 C251 1.511 . S
C243 C242 1.376 . S
C243 C244 1.392 . S
C243 H264 0.931 . S
C244 C243 1.392 . S
C244 C245 1.361 . S
C244 C246 1.500 . S
C245 C240 1.390 . S
C245 C244 1.361 . S
C245 H263 0.931 . S
C246 C244 1.500 . S
C246 C247 1.371 . S
C246 C248 1.365 . S
C247 C246 1.371 . S
C247 C257 1.386 . S
C247 H265 0.931 . S
C248 C246 1.365 . S
C248 C249 1.409 . S
C248 H266 0.929 . S
C249 C248 1.409 . S
C249 C250 1.380 . S
C249 H267 0.930 . S
C250 C249 1.380 . S
C250 C257 1.357 . S
C251 C242 1.511 . S
C251 C252 1.341 . S
C251 C253 1.371 . S
C252 C251 1.341 . S
C252 C256 1.394 . S
C252 H268 0.930 . S
C253 C251 1.371 . S
C253 C254 1.392 . S
C253 H269 0.931 . S
C254 C253 1.392 . S
C254 C255 1.331 . S
C254 H272 0.932 . S
C255 C254 1.331 . S
C255 C256 1.336 . S
C256 C252 1.394 . S
C256 C255 1.336 . S
C256 H271 0.929 . S
C257 C247 1.386 . S
C257 C250 1.357 . S
C257 H270 0.928 . S
H258 C234 0.931 . S
H259 C236 0.930 . S
H260 C238 0.929 . S
H261 C239 0.931 . S
H262 C241 0.930 . S
H263 C245 0.931 . S
H264 C243 0.931 . S
H265 C247 0.931 . S
H266 C248 0.929 . S
H267 C249 0.930 . S
H268 C252 0.930 . S
H269 C253 0.931 . S
H270 C257 0.928 . S
H271 C256 0.929 . S
H272 C254 0.932 . S
C273 C274 1.386 . S
C273 C275 1.397 . S
C273 H297 0.931 . S
C274 C273 1.386 . S
C274 C278 1.397 . S
C275 C273 1.397 . S
C275 C276 1.384 . S
C275 H298 0.930 . S
C276 C275 1.384 . S
C276 C277 1.377 . S
C276 C279 1.481 . S
C277 C276 1.377 . S
C277 C278 1.389 . S
C277 H299 0.929 . S
C278 C274 1.397 . S
C278 C277 1.389 . S
C278 H300 0.931 . S
C279 C276 1.481 . S
C279 C280 1.387 . S
C279 C284 1.390 . S
C280 C279 1.387 . S
C280 C281 1.401 . S
C280 H301 0.930 . S
C281 C280 1.401 . S
C281 C282 1.376 . S
C281 C290 1.511 . S
C282 C281 1.376 . S
C282 C283 1.392 . S
C282 H303 0.931 . S
C283 C282 1.392 . S
C283 C284 1.361 . S
C283 C285 1.500 . S
C284 C279 1.390 . S
C284 C283 1.361 . S
C284 H302 0.931 . S
C285 C283 1.500 . S
C285 C286 1.371 . S
C285 C287 1.365 . S
C286 C285 1.371 . S
C286 C296 1.386 . S
C286 H304 0.931 . S
C287 C285 1.365 . S
C287 C288 1.409 . S
C287 H305 0.929 . S
C288 C287 1.409 . S
C288 C289 1.380 . S
C288 H306 0.930 . S
C289 C288 1.380 . S
C289 C296 1.357 . S
C290 C281 1.511 . S
C290 C291 1.341 . S
C290 C292 1.371 . S
C291 C290 1.341 . S
C291 C295 1.394 . S
C291 H307 0.930 . S
C292 C290 1.371 . S
C292 C293 1.392 . S
C292 H308 0.931 . S
C293 C292 1.392 . S
C293 C294 1.331 . S
C293 H311 0.932 . S
C294 C293 1.331 . S
C294 C295 1.336 . S
C295 C291 1.394 . S
C295 C294 1.336 . S
C295 H310 0.929 . S
C296 C286 1.386 . S
C296 C289 1.357 . S
C296 H309 0.928 . S
H297 C273 0.931 . S
H298 C275 0.930 . S
H299 C277 0.929 . S
H300 C278 0.931 . S
H301 C280 0.930 . S
H302 C284 0.931 . S
H303 C282 0.931 . S
H304 C286 0.931 . S
H305 C287 0.929 . S
H306 C288 0.930 . S
H307 C291 0.930 . S
H308 C292 0.931 . S
H309 C296 0.928 . S
H310 C295 0.929 . S
H311 C293 0.932 . S
Gd312 C315 2.818 . S
Gd312 O332 2.377 . S
Gd312 O334 2.448 . S
Gd312 O335 2.506 . S
Gd312 O336 2.435 1_545 S
Gd312 O337 2.717 1_545 S
Gd312 O339 2.395 1_445 S
Gd312 O343 2.327 1_455 S
Gd313 C324 2.818 . S
Gd313 O333 2.395 1_665 S
Gd313 O337 2.327 1_655 S
Gd313 O338 2.377 . S
Gd313 O340 2.448 . S
Gd313 O341 2.506 . S
Gd313 O342 2.435 1_565 S
Gd313 O343 2.717 1_565 S
C314 O332 1.240 . S
C314 O333 1.240 . S
C315 Gd312 2.818 . S
C315 C316 1.510 . S
C315 O334 1.249 . S
C315 O335 1.252 . S
C316 C315 1.510 . S
C316 C317 1.404 . S
C316 C318 1.352 . S
C317 C316 1.404 . S
C317 C321 1.389 . S
C317 H344 0.930 . S
C318 C316 1.352 . S
C318 C320 1.374 . S
C318 H345 0.931 . S
C319 C320 1.359 . S
C319 C321 1.364 . S
C320 C318 1.374 . S
C320 C319 1.359 . S
C320 H346 0.931 . S
C321 C317 1.389 . S
C321 C319 1.364 . S
C321 H347 0.931 . S
C322 O336 1.256 . S
C322 O337 1.257 . S
C323 O338 1.240 . S
C323 O339 1.240 . S
C324 Gd313 2.818 . S
C324 C325 1.510 . S
C324 O340 1.249 . S
C324 O341 1.252 . S
C325 C324 1.510 . S
C325 C326 1.404 . S
C325 C327 1.352 . S
C326 C325 1.404 . S
C326 C330 1.389 . S
C326 H348 0.930 . S
C327 C325 1.352 . S
C327 C329 1.374 . S
C327 H349 0.931 . S
C328 C329 1.359 . S
C328 C330 1.364 . S
C329 C327 1.374 . S
C329 C328 1.359 . S
C329 H350 0.931 . S
C330 C326 1.389 . S
C330 C328 1.364 . S
C330 H351 0.931 . S
C331 O342 1.256 . S
C331 O343 1.257 . S
O332 Gd312 2.377 . S
O332 C314 1.240 . S
O333 Gd313 2.395 1_445 S
O333 C314 1.240 . S
O334 Gd312 2.448 . S
O334 C315 1.249 . S
O335 Gd312 2.506 . S
O335 C315 1.252 . S
O336 Gd312 2.435 1_565 S
O336 C322 1.256 . S
O337 Gd312 2.717 1_565 S
O337 Gd313 2.327 1_455 S
O337 C322 1.257 . S
O338 Gd313 2.377 . S
O338 C323 1.240 . S
O339 Gd312 2.395 1_665 S
O339 C323 1.240 . S
O340 Gd313 2.448 . S
O340 C324 1.249 . S
O341 Gd313 2.506 . S
O341 C324 1.252 . S
O342 Gd313 2.435 1_545 S
O342 C331 1.256 . S
O343 Gd312 2.327 1_655 S
O343 Gd313 2.717 1_545 S
O343 C331 1.257 . S
H344 C317 0.930 . S
H345 C318 0.931 . S
H346 C320 0.931 . S
H347 C321 0.931 . S
H348 C326 0.930 . S
H349 C327 0.931 . S
H350 C329 0.931 . S
H351 C330 0.931 . S
Gd352 C355 2.823 . S
Gd352 O372 2.382 . S
Gd352 O374 2.449 . S
Gd352 O375 2.514 . S
Gd352 O376 2.429 1_545 S
Gd352 O377 2.714 1_545 S
Gd352 O379 2.390 1_544 S
Gd352 O383 2.334 1_554 S
Gd353 C364 2.818 1_545 S
Gd353 O373 2.395 1_556 S
Gd353 O377 2.327 1_546 S
Gd353 O378 2.377 1_545 S
Gd353 O380 2.448 1_545 S
Gd353 O381 2.506 1_545 S
Gd353 O382 2.435 . S
Gd353 O383 2.717 . S
C354 O372 1.240 . S
C354 O373 1.240 . S
C355 Gd352 2.823 . S
C355 C356 1.510 . S
C355 O374 1.249 . S
C355 O375 1.252 . S
C356 C355 1.510 . S
C356 C357 1.404 . S
C356 C358 1.352 . S
C357 C356 1.404 . S
C357 C361 1.389 . S
C357 H384 0.930 . S
C358 C356 1.352 . S
C358 C360 1.374 . S
C358 H385 0.931 . S
C359 C360 1.359 . S
C359 C361 1.364 . S
C360 C358 1.374 . S
C360 C359 1.359 . S
C360 H386 0.931 . S
C361 C357 1.389 . S
C361 C359 1.364 . S
C361 H387 0.931 . S
C362 O376 1.256 . S
C362 O377 1.257 . S
C363 O378 1.240 . S
C363 O379 1.240 . S
C364 Gd353 2.818 1_565 S
C364 C365 1.510 . S
C364 O380 1.249 . S
C364 O381 1.252 . S
C365 C364 1.510 . S
C365 C366 1.404 . S
C365 C367 1.352 . S
C366 C365 1.404 . S
C366 C370 1.389 . S
C366 H388 0.930 . S
C367 C365 1.352 . S
C367 C369 1.374 . S
C367 H389 0.931 . S
C368 C369 1.359 . S
C368 C370 1.364 . S
C369 C367 1.374 . S
C369 C368 1.359 . S
C369 H390 0.931 . S
C370 C366 1.389 . S
C370 C368 1.364 . S
C370 H391 0.931 . S
C371 O382 1.256 . S
C371 O383 1.257 . S
O372 Gd352 2.382 . S
O372 C354 1.240 . S
O373 Gd353 2.395 1_554 S
O373 C354 1.240 . S
O374 Gd352 2.449 . S
O374 C355 1.249 . S
O375 Gd352 2.514 . S
O375 C355 1.252 . S
O376 Gd352 2.429 1_565 S
O376 C362 1.256 . S
O377 Gd352 2.714 1_565 S
O377 Gd353 2.327 1_564 S
O377 C362 1.257 . S
O378 Gd353 2.377 1_565 S
O378 C363 1.240 . S
O379 Gd352 2.390 1_566 S
O379 C363 1.240 . S
O380 Gd353 2.448 1_565 S
O380 C364 1.249 . S
O381 Gd353 2.506 1_565 S
O381 C364 1.252 . S
O382 Gd353 2.435 . S
O382 C371 1.256 . S
O383 Gd352 2.334 1_556 S
O383 Gd353 2.717 . S
O383 C371 1.257 . S
H384 C357 0.930 . S
H385 C358 0.931 . S
H386 C360 0.931 . S
H387 C361 0.931 . S
H388 C366 0.930 . S
H389 C367 0.931 . S
H390 C369 0.931 . S
H391 C370 0.931 . S
Gd392 C395 2.818 . S
Gd392 O412 2.377 . S
Gd392 O414 2.448 . S
Gd392 O415 2.506 . S
Gd392 O416 2.435 . S
Gd392 O417 2.717 . S
Gd392 O419 2.395 . S
Gd392 O423 2.327 . S
Gd393 C404 2.818 . S
Gd393 O413 2.395 . S
Gd393 O417 2.327 . S
Gd393 O418 2.377 . S
Gd393 O420 2.448 . S
Gd393 O421 2.506 . S
Gd393 O422 2.435 . S
Gd393 O423 2.717 . S
C394 O412 1.240 . S
C394 O413 1.240 . S
C395 Gd392 2.818 . S
C395 C396 1.510 . S
C395 O414 1.249 . S
C395 O415 1.252 . S
C396 C395 1.510 . S
C396 C397 1.404 . S
C396 C398 1.352 . S
C397 C396 1.404 . S
C397 C401 1.389 . S
C397 H424 0.930 . S
C398 C396 1.352 . S
C398 C400 1.374 . S
C398 H425 0.931 . S
C399 C400 1.359 . S
C399 C401 1.364 . S
C400 C398 1.374 . S
C400 C399 1.359 . S
C400 H426 0.931 . S
C401 C397 1.389 . S
C401 C399 1.364 . S
C401 H427 0.931 . S
C402 O416 1.256 . S
C402 O417 1.257 . S
C403 O418 1.240 . S
C403 O419 1.240 . S
C404 Gd393 2.818 . S
C404 C405 1.510 . S
C404 O420 1.249 . S
C404 O421 1.252 . S
C405 C404 1.510 . S
C405 C406 1.404 . S
C405 C407 1.352 . S
C406 C405 1.404 . S
C406 C410 1.389 . S
C406 H428 0.930 . S
C407 C405 1.352 . S
C407 C409 1.374 . S
C407 H429 0.931 . S
C408 C409 1.359 . S
C408 C410 1.364 . S
C409 C407 1.374 . S
C409 C408 1.359 . S
C409 H430 0.931 . S
C410 C406 1.389 . S
C410 C408 1.364 . S
C410 H431 0.931 . S
C411 O422 1.256 . S
C411 O423 1.257 . S
O412 Gd392 2.377 . S
O412 C394 1.240 . S
O413 Gd393 2.395 . S
O413 C394 1.240 . S
O414 Gd392 2.448 . S
O414 C395 1.249 . S
O415 Gd392 2.506 . S
O415 C395 1.252 . S
O416 Gd392 2.435 . S
O416 C402 1.256 . S
O417 Gd392 2.717 . S
O417 Gd393 2.327 . S
O417 C402 1.257 . S
O418 Gd393 2.377 . S
O418 C403 1.240 . S
O419 Gd392 2.395 . S
O419 C403 1.240 . S
O420 Gd393 2.448 . S
O420 C404 1.249 . S
O421 Gd393 2.506 . S
O421 C404 1.252 . S
O422 Gd393 2.435 . S
O422 C411 1.256 . S
O423 Gd392 2.327 . S
O423 Gd393 2.717 . S
O423 C411 1.257 . S
H424 C397 0.930 . S
H425 C398 0.931 . S
H426 C400 0.931 . S
H427 C401 0.931 . S
H428 C406 0.930 . S
H429 C407 0.931 . S
H430 C409 0.931 . S
H431 C410 0.931 . S
Gd432 C435 2.818 . S
Gd432 O452 2.377 . S
Gd432 O454 2.448 . S
Gd432 O455 2.506 . S
Gd432 O456 2.435 1_455 S
Gd432 O457 2.717 1_455 S
Gd432 O459 2.395 1_454 S
Gd432 O463 2.327 1_554 S
Gd433 C444 2.818 . S
Gd433 O453 2.395 1_656 S
Gd433 O457 2.327 1_556 S
Gd433 O458 2.377 . S
Gd433 O460 2.448 . S
Gd433 O461 2.506 . S
Gd433 O462 2.435 1_655 S
Gd433 O463 2.717 1_655 S
C434 O452 1.240 . S
C434 O453 1.240 . S
C435 Gd432 2.818 . S
C435 C436 1.510 . S
C435 O454 1.249 . S
C435 O455 1.252 . S
C436 C435 1.510 . S
C436 C437 1.404 . S
C436 C438 1.352 . S
C437 C436 1.404 . S
C437 C441 1.389 . S
C437 H464 0.930 . S
C438 C436 1.352 . S
C438 C440 1.374 . S
C438 H465 0.931 . S
C439 C440 1.359 . S
C439 C441 1.364 . S
C440 C438 1.374 . S
C440 C439 1.359 . S
C440 H466 0.931 . S
C441 C437 1.389 . S
C441 C439 1.364 . S
C441 H467 0.931 . S
C442 O456 1.256 . S
C442 O457 1.257 . S
C443 O458 1.240 . S
C443 O459 1.240 . S
C444 Gd433 2.818 . S
C444 C445 1.510 . S
C444 O460 1.249 . S
C444 O461 1.252 . S
C445 C444 1.510 . S
C445 C446 1.404 . S
C445 C447 1.352 . S
C446 C445 1.404 . S
C446 C450 1.389 . S
C446 H468 0.930 . S
C447 C445 1.352 . S
C447 C449 1.374 . S
C447 H469 0.931 . S
C448 C449 1.359 . S
C448 C450 1.364 . S
C449 C447 1.374 . S
C449 C448 1.359 . S
C449 H470 0.931 . S
C450 C446 1.389 . S
C450 C448 1.364 . S
C450 H471 0.931 . S
C451 O462 1.256 . S
C451 O463 1.257 . S
O452 Gd432 2.377 . S
O452 C434 1.240 . S
O453 Gd433 2.395 1_454 S
O453 C434 1.240 . S
O454 Gd432 2.448 . S
O454 C435 1.249 . S
O455 Gd432 2.506 . S
O455 C435 1.252 . S
O456 Gd432 2.435 1_655 S
O456 C442 1.256 . S
O457 Gd432 2.717 1_655 S
O457 Gd433 2.327 1_554 S
O457 C442 1.257 . S
O458 Gd433 2.377 . S
O458 C443 1.240 . S
O459 Gd432 2.395 1_656 S
O459 C443 1.240 . S
O460 Gd433 2.448 . S
O460 C444 1.249 . S
O461 Gd433 2.506 . S
O461 C444 1.252 . S
O462 Gd433 2.435 1_455 S
O462 C451 1.256 . S
O463 Gd432 2.327 1_556 S
O463 Gd433 2.717 1_455 S
O463 C451 1.257 . S
H464 C437 0.930 . S
H465 C438 0.931 . S
H466 C440 0.931 . S
H467 C441 0.931 . S
H468 C446 0.930 . S
H469 C447 0.931 . S
H470 C449 0.931 . S
H471 C450 0.931 . S
H472 C478 0.930 . S
H473 C482 0.930 . S
H474 C487 0.929 . S
H475 C485 0.929 . S
H476 C480 0.929 . S
H477 C486 0.929 . S
C478 H472 0.930 . S
C478 C479 1.367 . S
C478 C486 1.378 . S
C479 C478 1.367 . S
C479 C487 1.433 . S
C480 H476 0.929 . S
C480 C482 1.378 . S
C480 C484 1.350 . S
C481 C484 1.463 . S
C481 C486 1.350 . S
C481 N489 1.427 . S
C482 H473 0.930 . S
C482 C480 1.378 . S
C482 C483 1.367 . S
C483 C482 1.367 . S
C483 C485 1.433 . S
C484 C480 1.350 . S
C484 C481 1.463 . S
C484 N488 1.427 . S
C485 H475 0.929 . S
C485 C483 1.433 . S
C485 N488 1.384 . S
C486 H477 0.929 . S
C486 C478 1.378 . S
C486 C481 1.350 . S
C487 H474 0.929 . S
C487 C479 1.433 . S
C487 N489 1.384 . S
N488 C484 1.427 . S
N488 C485 1.384 . S
N489 C481 1.427 . S
N489 C487 1.384 . S
H490 C496 0.930 . S
H491 C500 0.930 . S
H492 C505 0.929 . S
H493 C503 0.929 . S
H494 C498 0.929 . S
H495 C504 0.929 . S
C496 H490 0.930 . S
C496 C497 1.367 . S
C496 C504 1.378 . S
C497 C496 1.367 . S
C497 C505 1.433 . S
C498 H494 0.929 . S
C498 C500 1.378 . S
C498 C502 1.350 . S
C499 C502 1.463 . S
C499 C504 1.350 . S
C499 N507 1.427 . S
C500 H491 0.930 . S
C500 C498 1.378 . S
C500 C501 1.367 . S
C501 C500 1.367 . S
C501 C503 1.433 . S
C502 C498 1.350 . S
C502 C499 1.463 . S
C502 N506 1.427 . S
C503 H493 0.929 . S
C503 C501 1.433 . S
C503 N506 1.384 . S
C504 H495 0.929 . S
C504 C496 1.378 . S
C504 C499 1.350 . S
C505 H492 0.929 . S
C505 C497 1.433 . S
C505 N507 1.384 . S
N506 C502 1.427 . S
N506 C503 1.384 . S
N507 C499 1.427 . S
N507 C505 1.384 . S
H508 C514 0.930 . S
H509 C518 0.930 . S
H510 C523 0.929 . S
H511 C521 0.929 . S
H512 C516 0.929 . S
H513 C522 0.929 . S
C514 H508 0.930 . S
C514 C515 1.367 . S
C514 C522 1.378 . S
C515 C514 1.367 . S
C515 C523 1.433 . S
C516 H512 0.929 . S
C516 C518 1.378 . S
C516 C520 1.350 . S
C517 C520 1.463 . S
C517 C522 1.350 . S
C517 N525 1.427 . S
C518 H509 0.930 . S
C518 C516 1.378 . S
C518 C519 1.367 . S
C519 C518 1.367 . S
C519 C521 1.433 . S
C520 C516 1.350 . S
C520 C517 1.463 . S
C520 N524 1.427 . S
C521 H511 0.929 . S
C521 C519 1.433 . S
C521 N524 1.384 . S
C522 H513 0.929 . S
C522 C514 1.378 . S
C522 C517 1.350 . S
C523 H510 0.929 . S
C523 C515 1.433 . S
C523 N525 1.384 . S
N524 C520 1.427 . S
N524 C521 1.384 . S
N525 C517 1.427 . S
N525 C523 1.384 . S
H526 C532 0.930 . S
H527 C536 0.930 . S
H528 C541 0.929 . S
H529 C539 0.929 . S
H530 C534 0.929 . S
H531 C540 0.929 . S
C532 H526 0.930 . S
C532 C533 1.367 . S
C532 C540 1.378 . S
C533 C532 1.367 . S
C533 C541 1.433 . S
C534 H530 0.929 . S
C534 C536 1.378 . S
C534 C538 1.350 . S
C535 C538 1.463 . S
C535 C540 1.350 . S
C535 N543 1.427 . S
C536 H527 0.930 . S
C536 C534 1.378 . S
C536 C537 1.367 . S
C537 C536 1.367 . S
C537 C539 1.433 . S
C538 C534 1.350 . S
C538 C535 1.463 . S
C538 N542 1.427 . S
C539 H529 0.929 . S
C539 C537 1.433 . S
C539 N542 1.384 . S
C540 H531 0.929 . S
C540 C532 1.378 . S
C540 C535 1.350 . S
C541 H528 0.929 . S
C541 C533 1.433 . S
C541 N543 1.384 . S
N542 C538 1.427 . S
N542 C539 1.384 . S
N543 C535 1.427 . S
N543 C541 1.384 . S
H544 C550 0.930 . S
H545 C554 0.930 . S
H546 C559 0.929 . S
H547 C557 0.929 . S
H548 C552 0.929 . S
H549 C558 0.929 . S
C550 H544 0.930 . S
C550 C551 1.367 . S
C550 C558 1.378 . S
C551 C550 1.367 . S
C551 C559 1.433 . S
C552 H548 0.929 . S
C552 C554 1.378 . S
C552 C556 1.350 . S
C553 C556 1.463 . S
C553 C558 1.350 . S
C553 N561 1.427 . S
C554 H545 0.930 . S
C554 C552 1.378 . S
C554 C555 1.367 . S
C555 C554 1.367 . S
C555 C557 1.433 . S
C556 C552 1.350 . S
C556 C553 1.463 . S
C556 N560 1.427 . S
C557 H547 0.929 . S
C557 C555 1.433 . S
C557 N560 1.384 . S
C558 H549 0.929 . S
C558 C550 1.378 . S
C558 C553 1.350 . S
C559 H546 0.929 . S
C559 C551 1.433 . S
C559 N561 1.384 . S
N560 C556 1.427 . S
N560 C557 1.384 . S
N561 C553 1.427 . S
N561 C559 1.384 . S
H562 C568 0.930 . S
H563 C572 0.930 . S
H564 C577 0.929 . S
H565 C575 0.929 . S
H566 C570 0.929 . S
H567 C576 0.929 . S
C568 H562 0.930 . S
C568 C569 1.367 . S
C568 C576 1.378 . S
C569 C568 1.367 . S
C569 C577 1.433 . S
C570 H566 0.929 . S
C570 C572 1.378 . S
C570 C574 1.350 . S
C571 C574 1.463 . S
C571 C576 1.350 . S
C571 N579 1.427 . S
C572 H563 0.930 . S
C572 C570 1.378 . S
C572 C573 1.367 . S
C573 C572 1.367 . S
C573 C575 1.433 . S
C574 C570 1.350 . S
C574 C571 1.463 . S
C574 N578 1.427 . S
C575 H565 0.929 . S
C575 C573 1.433 . S
C575 N578 1.384 . S
C576 H567 0.929 . S
C576 C568 1.378 . S
C576 C571 1.350 . S
C577 H564 0.929 . S
C577 C569 1.433 . S
C577 N579 1.384 . S
N578 C574 1.427 . S
N578 C575 1.384 . S
N579 C571 1.427 . S
N579 C577 1.384 . S
H580 C586 0.930 . S
H581 C590 0.930 . S
H582 C595 0.929 . S
H583 C593 0.929 . S
H584 C588 0.929 . S
H585 C594 0.929 . S
C586 H580 0.930 . S
C586 C587 1.367 . S
C586 C594 1.378 . S
C587 C586 1.367 . S
C587 C595 1.433 . S
C588 H584 0.929 . S
C588 C590 1.378 . S
C588 C592 1.350 . S
C589 C592 1.463 . S
C589 C594 1.350 . S
C589 N597 1.427 . S
C590 H581 0.930 . S
C590 C588 1.378 . S
C590 C591 1.367 . S
C591 C590 1.367 . S
C591 C593 1.433 . S
C592 C588 1.350 . S
C592 C589 1.463 . S
C592 N596 1.427 . S
C593 H583 0.929 . S
C593 C591 1.433 . S
C593 N596 1.384 . S
C594 H585 0.929 . S
C594 C586 1.378 . S
C594 C589 1.350 . S
C595 H582 0.929 . S
C595 C587 1.433 . S
C595 N597 1.384 . S
N596 C592 1.427 . S
N596 C593 1.384 . S
N597 C589 1.427 . S
N597 C595 1.384 . S
H598 C604 0.930 . S
H599 C608 0.930 . S
H600 C613 0.929 . S
H601 C611 0.929 . S
H602 C606 0.929 . S
H603 C612 0.929 . S
C604 H598 0.930 . S
C604 C605 1.367 . S
C604 C612 1.378 . S
C605 C604 1.367 . S
C605 C613 1.433 . S
C606 H602 0.929 . S
C606 C608 1.378 . S
C606 C610 1.350 . S
C607 C610 1.463 . S
C607 C612 1.350 . S
C607 N615 1.427 . S
C608 H599 0.930 . S
C608 C606 1.378 . S
C608 C609 1.367 . S
C609 C608 1.367 . S
C609 C611 1.433 . S
C610 C606 1.350 . S
C610 C607 1.463 . S
C610 N614 1.427 . S
C611 H601 0.929 . S
C611 C609 1.433 . S
C611 N614 1.384 . S
C612 H603 0.929 . S
C612 C604 1.378 . S
C612 C607 1.350 . S
C613 H600 0.929 . S
C613 C605 1.433 . S
C613 N615 1.384 . S
N614 C610 1.427 . S
N614 C611 1.384 . S
N615 C607 1.427 . S
N615 C613 1.384 . S
H616 C622 0.930 . S
H617 C626 0.930 . S
H618 C631 0.929 . S
H619 C629 0.929 . S
H620 C624 0.929 . S
H621 C630 0.929 . S
C622 H616 0.930 . S
C622 C623 1.367 . S
C622 C630 1.378 . S
C623 C622 1.367 . S
C623 C631 1.433 . S
C624 H620 0.929 . S
C624 C626 1.378 . S
C624 C628 1.350 . S
C625 C628 1.463 . S
C625 C630 1.350 . S
C625 N633 1.427 . S
C626 H617 0.930 . S
C626 C624 1.378 . S
C626 C627 1.367 . S
C627 C626 1.367 . S
C627 C629 1.433 . S
C628 C624 1.350 . S
C628 C625 1.463 . S
C628 N632 1.427 . S
C629 H619 0.929 . S
C629 C627 1.433 . S
C629 N632 1.384 . S
C630 H621 0.929 . S
C630 C622 1.378 . S
C630 C625 1.350 . S
C631 H618 0.929 . S
C631 C623 1.433 . S
C631 N633 1.384 . S
N632 C628 1.427 . S
N632 C629 1.384 . S
N633 C625 1.427 . S
N633 C631 1.384 . S
H634 C640 0.930 . S
H635 C644 0.930 . S
H636 C649 0.929 . S
H637 C647 0.929 . S
H638 C642 0.929 . S
H639 C648 0.929 . S
C640 H634 0.930 . S
C640 C641 1.367 . S
C640 C648 1.378 . S
C641 C640 1.367 . S
C641 C649 1.433 . S
C642 H638 0.929 . S
C642 C644 1.378 . S
C642 C646 1.350 . S
C643 C646 1.463 . S
C643 C648 1.350 . S
C643 N651 1.427 . S
C644 H635 0.930 . S
C644 C642 1.378 . S
C644 C645 1.367 . S
C645 C644 1.367 . S
C645 C647 1.433 . S
C646 C642 1.350 . S
C646 C643 1.463 . S
C646 N650 1.427 . S
C647 H637 0.929 . S
C647 C645 1.433 . S
C647 N650 1.384 . S
C648 H639 0.929 . S
C648 C640 1.378 . S
C648 C643 1.350 . S
C649 H636 0.929 . S
C649 C641 1.433 . S
C649 N651 1.384 . S
N650 C646 1.427 . S
N650 C647 1.384 . S
N651 C643 1.427 . S
N651 C649 1.384 . S
H652 C658 0.930 . S
H653 C662 0.930 . S
H654 C667 0.929 . S
H655 C665 0.929 . S
H656 C660 0.929 . S
H657 C666 0.929 . S
C658 H652 0.930 . S
C658 C659 1.367 . S
C658 C666 1.378 . S
C659 C658 1.367 . S
C659 C667 1.433 . S
C660 H656 0.929 . S
C660 C662 1.378 . S
C660 C664 1.350 . S
C661 C664 1.463 . S
C661 C666 1.350 . S
C661 N669 1.427 . S
C662 H653 0.930 . S
C662 C660 1.378 . S
C662 C663 1.367 . S
C663 C662 1.367 . S
C663 C665 1.433 . S
C664 C660 1.350 . S
C664 C661 1.463 . S
C664 N668 1.427 . S
C665 H655 0.929 . S
C665 C663 1.433 . S
C665 N668 1.384 . S
C666 H657 0.929 . S
C666 C658 1.378 . S
C666 C661 1.350 . S
C667 H654 0.929 . S
C667 C659 1.433 . S
C667 N669 1.384 . S
N668 C664 1.427 . S
N668 C665 1.384 . S
N669 C661 1.427 . S
N669 C667 1.384 . S
H670 C676 0.930 . S
H671 C680 0.930 . S
H672 C685 0.929 . S
H673 C683 0.929 . S
H674 C678 0.929 . S
H675 C684 0.929 . S
C676 H670 0.930 . S
C676 C677 1.367 . S
C676 C684 1.378 . S
C677 C676 1.367 . S
C677 C685 1.433 . S
C678 H674 0.929 . S
C678 C680 1.378 . S
C678 C682 1.350 . S
C679 C682 1.463 . S
C679 C684 1.350 . S
C679 N687 1.427 . S
C680 H671 0.930 . S
C680 C678 1.378 . S
C680 C681 1.367 . S
C681 C680 1.367 . S
C681 C683 1.433 . S
C682 C678 1.350 . S
C682 C679 1.463 . S
C682 N686 1.427 . S
C683 H673 0.929 . S
C683 C681 1.433 . S
C683 N686 1.384 . S
C684 H675 0.929 . S
C684 C676 1.378 . S
C684 C679 1.350 . S
C685 H672 0.929 . S
C685 C677 1.433 . S
C685 N687 1.384 . S
N686 C682 1.427 . S
N686 C683 1.384 . S
N687 C679 1.427 . S
N687 C685 1.384 . S
H688 C694 0.930 . S
H689 C698 0.930 . S
H690 C703 0.929 . S
H691 C701 0.929 . S
H692 C696 0.929 . S
H693 C702 0.929 . S
C694 H688 0.930 . S
C694 C695 1.367 . S
C694 C702 1.378 . S
C695 C694 1.367 . S
C695 C703 1.433 . S
C696 H692 0.929 . S
C696 C698 1.378 . S
C696 C700 1.350 . S
C697 C700 1.463 . S
C697 C702 1.350 . S
C697 N705 1.427 . S
C698 H689 0.930 . S
C698 C696 1.378 . S
C698 C699 1.367 . S
C699 C698 1.367 . S
C699 C701 1.433 . S
C700 C696 1.350 . S
C700 C697 1.463 . S
C700 N704 1.427 . S
C701 H691 0.929 . S
C701 C699 1.433 . S
C701 N704 1.384 . S
C702 H693 0.929 . S
C702 C694 1.378 . S
C702 C697 1.350 . S
C703 H690 0.929 . S
C703 C695 1.433 . S
C703 N705 1.384 . S
N704 C700 1.427 . S
N704 C701 1.384 . S
N705 C697 1.427 . S
N705 C703 1.384 . S
H706 C712 0.930 . S
H707 C716 0.930 . S
H708 C721 0.929 . S
H709 C719 0.929 . S
H710 C714 0.929 . S
H711 C720 0.929 . S
C712 H706 0.930 . S
C712 C713 1.367 . S
C712 C720 1.378 . S
C713 C712 1.367 . S
C713 C721 1.433 . S
C714 H710 0.929 . S
C714 C716 1.378 . S
C714 C718 1.350 . S
C715 C718 1.463 . S
C715 C720 1.350 . S
C715 N723 1.427 . S
C716 H707 0.930 . S
C716 C714 1.378 . S
C716 C717 1.367 . S
C717 C716 1.367 . S
C717 C719 1.433 . S
C718 C714 1.350 . S
C718 C715 1.463 . S
C718 N722 1.427 . S
C719 H709 0.929 . S
C719 C717 1.433 . S
C719 N722 1.384 . S
C720 H711 0.929 . S
C720 C712 1.378 . S
C720 C715 1.350 . S
C721 H708 0.929 . S
C721 C713 1.433 . S
C721 N723 1.384 . S
N722 C718 1.427 . S
N722 C719 1.384 . S
N723 C715 1.427 . S
N723 C721 1.384 . S
H724 C730 0.930 . S
H725 C734 0.930 . S
H726 C739 0.929 . S
H727 C737 0.929 . S
H728 C732 0.929 . S
H729 C738 0.929 . S
C730 H724 0.930 . S
C730 C731 1.367 . S
C730 C738 1.378 . S
C731 C730 1.367 . S
C731 C739 1.433 . S
C732 H728 0.929 . S
C732 C734 1.378 . S
C732 C736 1.350 . S
C733 C736 1.463 . S
C733 C738 1.350 . S
C733 N741 1.427 . S
C734 H725 0.930 . S
C734 C732 1.378 . S
C734 C735 1.367 . S
C735 C734 1.367 . S
C735 C737 1.433 . S
C736 C732 1.350 . S
C736 C733 1.463 . S
C736 N740 1.427 . S
C737 H727 0.929 . S
C737 C735 1.433 . S
C737 N740 1.384 . S
C738 H729 0.929 . S
C738 C730 1.378 . S
C738 C733 1.350 . S
C739 H726 0.929 . S
C739 C731 1.433 . S
C739 N741 1.384 . S
N740 C736 1.427 . S
N740 C737 1.384 . S
N741 C733 1.427 . S
N741 C739 1.384 . S
H742 C748 0.930 . S
H743 C752 0.930 . S
H744 C757 0.929 . S
H745 C755 0.929 . S
H746 C750 0.929 . S
H747 C756 0.929 . S
C748 H742 0.930 . S
C748 C749 1.367 . S
C748 C756 1.378 . S
C749 C748 1.367 . S
C749 C757 1.433 . S
C750 H746 0.929 . S
C750 C752 1.378 . S
C750 C754 1.350 . S
C751 C754 1.463 . S
C751 C756 1.350 . S
C751 N759 1.427 . S
C752 H743 0.930 . S
C752 C750 1.378 . S
C752 C753 1.367 . S
C753 C752 1.367 . S
C753 C755 1.433 . S
C754 C750 1.350 . S
C754 C751 1.463 . S
C754 N758 1.427 . S
C755 H745 0.929 . S
C755 C753 1.433 . S
C755 N758 1.384 . S
C756 H747 0.929 . S
C756 C748 1.378 . S
C756 C751 1.350 . S
C757 H744 0.929 . S
C757 C749 1.433 . S
C757 N759 1.384 . S
N758 C754 1.427 . S
N758 C755 1.384 . S
N759 C751 1.427 . S
N759 C757 1.384 . S
H760 C766 0.930 . S
H761 C770 0.930 . S
H762 C775 0.929 . S
H763 C773 0.929 . S
H764 C768 0.929 . S
H765 C774 0.929 . S
C766 H760 0.930 . S
C766 C767 1.367 . S
C766 C774 1.378 . S
C767 C766 1.367 . S
C767 C775 1.433 . S
C768 H764 0.929 . S
C768 C770 1.378 . S
C768 C772 1.350 . S
C769 C772 1.463 . S
C769 C774 1.350 . S
C769 N777 1.427 . S
C770 H761 0.930 . S
C770 C768 1.378 . S
C770 C771 1.367 . S
C771 C770 1.367 . S
C771 C773 1.433 . S
C772 C768 1.350 . S
C772 C769 1.463 . S
C772 N776 1.427 . S
C773 H763 0.929 . S
C773 C771 1.433 . S
C773 N776 1.384 . S
C774 H765 0.929 . S
C774 C766 1.378 . S
C774 C769 1.350 . S
C775 H762 0.929 . S
C775 C767 1.433 . S
C775 N777 1.384 . S
N776 C772 1.427 . S
N776 C773 1.384 . S
N777 C769 1.427 . S
N777 C775 1.384 . S
H778 C784 0.930 . S
H779 C788 0.930 . S
H780 C793 0.929 . S
H781 C791 0.929 . S
H782 C786 0.929 . S
H783 C792 0.929 . S
C784 H778 0.930 . S
C784 C785 1.367 . S
C784 C792 1.378 . S
C785 C784 1.367 . S
C785 C793 1.433 . S
C786 H782 0.929 . S
C786 C788 1.378 . S
C786 C790 1.350 . S
C787 C790 1.463 . S
C787 C792 1.350 . S
C787 N795 1.427 . S
C788 H779 0.930 . S
C788 C786 1.378 . S
C788 C789 1.367 . S
C789 C788 1.367 . S
C789 C791 1.433 . S
C790 C786 1.350 . S
C790 C787 1.463 . S
C790 N794 1.427 . S
C791 H781 0.929 . S
C791 C789 1.433 . S
C791 N794 1.384 . S
C792 H783 0.929 . S
C792 C784 1.378 . S
C792 C787 1.350 . S
C793 H780 0.929 . S
C793 C785 1.433 . S
C793 N795 1.384 . S
N794 C790 1.427 . S
N794 C791 1.384 . S
N795 C787 1.427 . S
N795 C793 1.384 . S
H796 C802 0.930 . S
H797 C806 0.930 . S
H798 C811 0.929 . S
H799 C809 0.929 . S
H800 C804 0.929 . S
H801 C810 0.929 . S
C802 H796 0.930 . S
C802 C803 1.367 . S
C802 C810 1.378 . S
C803 C802 1.367 . S
C803 C811 1.433 . S
C804 H800 0.929 . S
C804 C806 1.378 . S
C804 C808 1.350 . S
C805 C808 1.463 . S
C805 C810 1.350 . S
C805 N813 1.427 . S
C806 H797 0.930 . S
C806 C804 1.378 . S
C806 C807 1.367 . S
C807 C806 1.367 . S
C807 C809 1.433 . S
C808 C804 1.350 . S
C808 C805 1.463 . S
C808 N812 1.427 . S
C809 H799 0.929 . S
C809 C807 1.433 . S
C809 N812 1.384 . S
C810 H801 0.929 . S
C810 C802 1.378 . S
C810 C805 1.350 . S
C811 H798 0.929 . S
C811 C803 1.433 . S
C811 N813 1.384 . S
N812 C808 1.427 . S
N812 C809 1.384 . S
N813 C805 1.427 . S
N813 C811 1.384 . S
H814 C820 0.930 . S
H815 C824 0.930 . S
H816 C829 0.929 . S
H817 C827 0.929 . S
H818 C822 0.929 . S
H819 C828 0.929 . S
C820 H814 0.930 . S
C820 C821 1.367 . S
C820 C828 1.378 . S
C821 C820 1.367 . S
C821 C829 1.433 . S
C822 H818 0.929 . S
C822 C824 1.378 . S
C822 C826 1.350 . S
C823 C826 1.463 . S
C823 C828 1.350 . S
C823 N831 1.427 . S
C824 H815 0.930 . S
C824 C822 1.378 . S
C824 C825 1.367 . S
C825 C824 1.367 . S
C825 C827 1.433 . S
C826 C822 1.350 . S
C826 C823 1.463 . S
C826 N830 1.427 . S
C827 H817 0.929 . S
C827 C825 1.433 . S
C827 N830 1.384 . S
C828 H819 0.929 . S
C828 C820 1.378 . S
C828 C823 1.350 . S
C829 H816 0.929 . S
C829 C821 1.433 . S
C829 N831 1.384 . S
N830 C826 1.427 . S
N830 C827 1.384 . S
N831 C823 1.427 . S
N831 C829 1.384 . S
H832 C838 0.930 . S
H833 C842 0.930 . S
H834 C847 0.929 . S
H835 C845 0.929 . S
H836 C840 0.929 . S
H837 C846 0.929 . S
C838 H832 0.930 . S
C838 C839 1.367 . S
C838 C846 1.378 . S
C839 C838 1.367 . S
C839 C847 1.433 . S
C840 H836 0.929 . S
C840 C842 1.378 . S
C840 C844 1.350 . S
C841 C844 1.463 . S
C841 C846 1.350 . S
C841 N849 1.427 . S
C842 H833 0.930 . S
C842 C840 1.378 . S
C842 C843 1.367 . S
C843 C842 1.367 . S
C843 C845 1.433 . S
C844 C840 1.350 . S
C844 C841 1.463 . S
C844 N848 1.427 . S
C845 H835 0.929 . S
C845 C843 1.433 . S
C845 N848 1.384 . S
C846 H837 0.929 . S
C846 C838 1.378 . S
C846 C841 1.350 . S
C847 H834 0.929 . S
C847 C839 1.433 . S
C847 N849 1.384 . S
N848 C844 1.427 . S
N848 C845 1.384 . S
N849 C841 1.427 . S
N849 C847 1.384 . S
H850 C856 0.930 . S
H851 C860 0.930 . S
H852 C865 0.929 . S
H853 C863 0.929 . S
H854 C858 0.929 . S
H855 C864 0.929 . S
C856 H850 0.930 . S
C856 C857 1.367 . S
C856 C864 1.378 . S
C857 C856 1.367 . S
C857 C865 1.433 . S
C858 H854 0.929 . S
C858 C860 1.378 . S
C858 C862 1.350 . S
C859 C862 1.463 . S
C859 C864 1.350 . S
C859 N867 1.427 . S
C860 H851 0.930 . S
C860 C858 1.378 . S
C860 C861 1.367 . S
C861 C860 1.367 . S
C861 C863 1.433 . S
C862 C858 1.350 . S
C862 C859 1.463 . S
C862 N866 1.427 . S
C863 H853 0.929 . S
C863 C861 1.433 . S
C863 N866 1.384 . S
C864 H855 0.929 . S
C864 C856 1.378 . S
C864 C859 1.350 . S
C865 H852 0.929 . S
C865 C857 1.433 . S
C865 N867 1.384 . S
N866 C862 1.427 . S
N866 C863 1.384 . S
N867 C859 1.427 . S
N867 C865 1.384 . S
H868 C874 0.930 . S
H869 C878 0.930 . S
H870 C883 0.929 . S
H871 C881 0.929 . S
H872 C876 0.929 . S
H873 C882 0.929 . S
C874 H868 0.930 . S
C874 C875 1.367 . S
C874 C882 1.378 . S
C875 C874 1.367 . S
C875 C883 1.433 . S
C876 H872 0.929 . S
C876 C878 1.378 . S
C876 C880 1.350 . S
C877 C880 1.463 . S
C877 C882 1.350 . S
C877 N885 1.427 . S
C878 H869 0.930 . S
C878 C876 1.378 . S
C878 C879 1.367 . S
C879 C878 1.367 . S
C879 C881 1.433 . S
C880 C876 1.350 . S
C880 C877 1.463 . S
C880 N884 1.427 . S
C881 H871 0.929 . S
C881 C879 1.433 . S
C881 N884 1.384 . S
C882 H873 0.929 . S
C882 C874 1.378 . S
C882 C877 1.350 . S
C883 H870 0.929 . S
C883 C875 1.433 . S
C883 N885 1.384 . S
N884 C880 1.427 . S
N884 C881 1.384 . S
N885 C877 1.427 . S
N885 C883 1.384 . S
H886 C892 0.930 . S
H887 C896 0.930 . S
H888 C901 0.929 . S
H889 C899 0.929 . S
H890 C894 0.929 . S
H891 C900 0.929 . S
C892 H886 0.930 . S
C892 C893 1.367 . S
C892 C900 1.378 . S
C893 C892 1.367 . S
C893 C901 1.433 . S
C894 H890 0.929 . S
C894 C896 1.378 . S
C894 C898 1.350 . S
C895 C898 1.463 . S
C895 C900 1.350 . S
C895 N903 1.427 . S
C896 H887 0.930 . S
C896 C894 1.378 . S
C896 C897 1.367 . S
C897 C896 1.367 . S
C897 C899 1.433 . S
C898 C894 1.350 . S
C898 C895 1.463 . S
C898 N902 1.427 . S
C899 H889 0.929 . S
C899 C897 1.433 . S
C899 N902 1.384 . S
C900 H891 0.929 . S
C900 C892 1.378 . S
C900 C895 1.350 . S
C901 H888 0.929 . S
C901 C893 1.433 . S
C901 N903 1.384 . S
N902 C898 1.427 . S
N902 C899 1.384 . S
N903 C895 1.427 . S
N903 C901 1.384 . S
C479 C1 1.250 . S
C483 C319 1.312 . S
C497 C40 0.995 . S
C501 C368 0.989 . S
C519 C394 2.443 . S
C515 C99 2.477 . S
C533 C118 2.371 . S
C537 C442 2.311 . S
C555 C354 2.517 . S
C551 C16 2.392 . S
C573 C322 0.901 . S
C569 C60 0.916 . S
C591 C443 1.905 . S
C587 C79 1.934 . S
C609 C411 1.553 . S
C605 C138 1.569 . S
C623 C21 1.699 . S
C627 C439 1.782 . S
C645 C371 2.329 . S
C641 C94 2.403 . S
C659 C133 2.315 . S
C663 C323 2.308 . S
C677 C55 0.884 . S
C681 C408 0.888 . S
C699 C328 1.324 . S
C695 C157 1.273 . S
C713 C196 0.995 . S
C717 C359 0.990 . S
C731 C255 2.476 . S
C735 C403 2.445 . S
C749 C289 2.368 . S
C753 C451 2.310 . S
C767 C172 2.387 . S
C771 C363 2.515 . S
C789 C331 0.879 . S
C785 C216 0.904 . S
C807 C434 1.900 . S
C803 C235 1.935 . S
C825 C402 1.543 . S
C821 C294 1.572 . S
C839 C177 1.717 . S
C843 C448 1.781 . S
C861 C362 2.336 . S
C857 C250 2.405 . S
C879 C314 2.313 . S
C875 C274 2.318 . S
C893 C211 0.894 . S
C897 C399 0.892 . S
