# Generated by pormake.
# Topology pto, (3,4)-cn, num edge types: 1
# Building blocks:
#     Node 0, Type 0, BuildingBlock: PAMTOO_clean_linker_0, # of connection points: 3
#     Node 1, Type 0, BuildingBlock: PAMTOO_clean_linker_0, # of connection points: 3
#     Node 2, Type 0, BuildingBlock: PAMTOO_clean_linker_0, # of connection points: 3
#     Node 3, Type 0, BuildingBlock: PAMTOO_clean_linker_0, # of connection points: 3
#     Node 4, Type 0, BuildingBlock: PAMTOO_clean_linker_0, # of connection points: 3
#     Node 5, Type 0, BuildingBlock: PAMTOO_clean_linker_0, # of connection points: 3
#     Node 6, Type 0, BuildingBlock: PAMTOO_clean_linker_0, # of connection points: 3
#     Node 7, Type 0, BuildingBlock: PAMTOO_clean_linker_0, # of connection points: 3
#     Node 8, Type 1, BuildingBlock: KOZSID_clean_sbu_0, # of connection points: 4
#     Node 9, Type 1, BuildingBlock: KOZSID_clean_sbu_0, # of connection points: 4
#     Node 10, Type 1, BuildingBlock: KOZSID_clean_sbu_0, # of connection points: 4
#     Node 11, Type 1, BuildingBlock: KOZSID_clean_sbu_0, # of connection points: 4
#     Node 12, Type 1, BuildingBlock: KOZSID_clean_sbu_0, # of connection points: 4
#     Node 13, Type 1, BuildingBlock: KOZSID_clean_sbu_0, # of connection points: 4
#     Edge 14, Type (0, 1), BuildingBlock: OJICUG_clean_linker_0, # of connection points: 2
#     Edge 15, Type (0, 1), BuildingBlock: OJICUG_clean_linker_0, # of connection points: 2
#     Edge 16, Type (0, 1), BuildingBlock: OJICUG_clean_linker_0, # of connection points: 2
#     Edge 17, Type (0, 1), BuildingBlock: OJICUG_clean_linker_0, # of connection points: 2
#     Edge 18, Type (0, 1), BuildingBlock: OJICUG_clean_linker_0, # of connection points: 2
#     Edge 19, Type (0, 1), BuildingBlock: OJICUG_clean_linker_0, # of connection points: 2
#     Edge 20, Type (0, 1), BuildingBlock: OJICUG_clean_linker_0, # of connection points: 2
#     Edge 21, Type (0, 1), BuildingBlock: OJICUG_clean_linker_0, # of connection points: 2
#     Edge 22, Type (0, 1), BuildingBlock: OJICUG_clean_linker_0, # of connection points: 2
#     Edge 23, Type (0, 1), BuildingBlock: OJICUG_clean_linker_0, # of connection points: 2
#     Edge 24, Type (0, 1), BuildingBlock: OJICUG_clean_linker_0, # of connection points: 2
#     Edge 25, Type (0, 1), BuildingBlock: OJICUG_clean_linker_0, # of connection points: 2
#     Edge 26, Type (0, 1), BuildingBlock: OJICUG_clean_linker_0, # of connection points: 2
#     Edge 27, Type (0, 1), BuildingBlock: OJICUG_clean_linker_0, # of connection points: 2
#     Edge 28, Type (0, 1), BuildingBlock: OJICUG_clean_linker_0, # of connection points: 2
#     Edge 29, Type (0, 1), BuildingBlock: OJICUG_clean_linker_0, # of connection points: 2
#     Edge 30, Type (0, 1), BuildingBlock: OJICUG_clean_linker_0, # of connection points: 2
#     Edge 31, Type (0, 1), BuildingBlock: OJICUG_clean_linker_0, # of connection points: 2
#     Edge 32, Type (0, 1), BuildingBlock: OJICUG_clean_linker_0, # of connection points: 2
#     Edge 33, Type (0, 1), BuildingBlock: OJICUG_clean_linker_0, # of connection points: 2
#     Edge 34, Type (0, 1), BuildingBlock: OJICUG_clean_linker_0, # of connection points: 2
#     Edge 35, Type (0, 1), BuildingBlock: OJICUG_clean_linker_0, # of connection points: 2
#     Edge 36, Type (0, 1), BuildingBlock: OJICUG_clean_linker_0, # of connection points: 2
#     Edge 37, Type (0, 1), BuildingBlock: OJICUG_clean_linker_0, # of connection points: 2
# Relax obj value: 0.027
# Max RMSD: 0.179
# Mean RMSD: 0.071
data_MOF--net-pto--node1-KOZSID_clean_sbu_0--node2-PAMTOO_clean_linker_0--edge1-OJICUG_clean_linker_0
_symmetry_space_group_name_H-M    P1
_symmetry_Int_Tables_number       1
_symmetry_cell_setting            triclinic
loop_
_symmetry_equiv_pos_as_xyz
'x, y, z'
_cell_length_a     29.373239
_cell_length_b     37.066652
_cell_length_c     33.979698
_cell_angle_alpha  81.042277
_cell_angle_beta   79.472762
_cell_angle_gamma 104.00148
loop_
_atom_site_label
_atom_site_type_symbol
_atom_site_fract_x
_atom_site_fract_y
_atom_site_fract_z
_atom_type_partial_charge
H0 H 0.18198 0.2813 0.41923 0.0
H1 H 0.27309 0.24191 0.33087 0.0
H2 H 0.24721 0.35002 0.29799 0.0
H3 H 0.24797 0.30679 0.23205 0.0
C4 C 0.27037 0.28833 0.24181 0.0
O5 O 0.29036 0.30133 0.27249 0.0
H6 H 0.24686 0.25865 0.25322 0.0
C7 C 0.20562 0.28596 0.38931 0.0
C8 C 0.21241 0.31942 0.36012 0.0
C9 C 0.22673 0.25739 0.3788 0.0
C10 C 0.2562 0.26338 0.33949 0.0
C11 C 0.26346 0.29666 0.31063 0.0
C12 C 0.24177 0.32457 0.32092 0.0
H13 H 0.19755 0.80361 0.71472 0.0
H14 H 0.26337 0.75535 0.80541 0.0
H15 H 0.28805 0.87606 0.77435 0.0
H16 H 0.3735 0.8559 0.78953 0.0
C17 C 0.35667 0.82636 0.80755 0.0
O18 O 0.30745 0.82036 0.8196 0.0
H19 H 0.36477 0.80662 0.7874 0.0
C20 C 0.21996 0.80712 0.73666 0.0
C21 C 0.24149 0.84396 0.74166 0.0
C22 C 0.22762 0.77479 0.75925 0.0
C23 C 0.25713 0.77972 0.78738 0.0
C24 C 0.27859 0.81612 0.79282 0.0
C25 C 0.27048 0.84806 0.7703 0.0
H26 H 0.72179 0.83867 0.29132 0.0
H27 H 0.76669 0.74124 0.26279 0.0
H28 H 0.80136 0.78609 0.36583 0.0
H29 H 0.87798 0.76549 0.32326 0.0
C30 C 0.85969 0.74292 0.30879 0.0
O31 O 0.81035 0.73451 0.32291 0.0
H32 H 0.86923 0.75363 0.275 0.0
C33 C 0.74026 0.81713 0.29747 0.0
C34 C 0.76186 0.81594 0.33112 0.0
C35 C 0.7408 0.78989 0.27283 0.0
C36 C 0.76458 0.76194 0.28183 0.0
C37 C 0.78642 0.76075 0.31519 0.0
C38 C 0.78422 0.78723 0.34016 0.0
H39 H 0.77871 0.3406 0.80513 0.0
H40 H 0.71609 0.22826 0.7877 0.0
H41 H 0.83842 0.30358 0.69829 0.0
H42 H 0.76457 0.2611 0.66396 0.0
C43 C 0.75094 0.23412 0.68749 0.0
O44 O 0.77642 0.23609 0.71774 0.0
H45 H 0.71214 0.23048 0.7008 0.0
C46 C 0.77823 0.31891 0.78703 0.0
C47 C 0.81248 0.32662 0.74991 0.0
C48 C 0.74349 0.28353 0.8012 0.0
C49 C 0.74277 0.2557 0.77741 0.0
C50 C 0.77707 0.26301 0.74041 0.0
C51 C 0.81214 0.29823 0.72694 0.0
H52 H 0.71441 0.8408 0.77447 0.0
H53 H 0.76396 0.74651 0.82269 0.0
H54 H 0.82118 0.8049 0.69747 0.0
H55 H 0.79786 0.72018 0.71374 0.0
C56 C 0.80902 0.71529 0.74328 0.0
O57 O 0.82422 0.74977 0.75435 0.0
H58 H 0.77744 0.69647 0.76704 0.0
C59 C 0.73688 0.8218 0.77027 0.0
C60 C 0.76774 0.8265 0.73182 0.0
C61 C 0.73499 0.79312 0.80344 0.0
C62 C 0.76475 0.76888 0.7977 0.0
C63 C 0.79532 0.77295 0.75942 0.0
C64 C 0.79675 0.80166 0.72665 0.0
H65 H 0.80291 0.27518 0.39927 0.0
H66 H 0.71543 0.22169 0.32404 0.0
H67 H 0.76592 0.34293 0.30122 0.0
H68 H 0.66478 0.3119 0.29613 0.0
C69 C 0.66845 0.28631 0.28391 0.0
O70 O 0.71572 0.28515 0.27842 0.0
H71 H 0.64456 0.26065 0.30647 0.0
C72 C 0.78456 0.27731 0.37446 0.0
C73 C 0.78742 0.31349 0.35195 0.0
C74 C 0.75908 0.24382 0.36453 0.0
C75 C 0.73565 0.24693 0.33211 0.0
C76 C 0.73769 0.28261 0.30996 0.0
C77 C 0.76357 0.31565 0.31969 0.0
H78 H 0.18957 0.2954 0.68021 0.0
H79 H 0.26643 0.33889 0.76791 0.0
H80 H 0.28038 0.23584 0.73275 0.0
H81 H 0.26829 0.23125 0.8198 0.0
C82 C 0.28193 0.26189 0.82029 0.0
O83 O 0.30281 0.2824 0.7809 0.0
H84 H 0.25052 0.2715 0.8337 0.0
C85 C 0.21434 0.29381 0.7 0.0
C86 C 0.23484 0.26301 0.70281 0.0
C87 C 0.22455 0.32146 0.72406 0.0
C88 C 0.25658 0.31793 0.74978 0.0
C89 C 0.27575 0.28692 0.75333 0.0
C90 C 0.26526 0.25979 0.72969 0.0
H91 H 0.16451 0.7787 0.4087 0.0
H92 H 0.24484 0.7572 0.29939 0.0
H93 H 0.27245 0.87028 0.32132 0.0
H94 H 0.28939 0.86516 0.22564 0.0
C95 C 0.28965 0.83494 0.23305 0.0
O96 O 0.29759 0.82709 0.27195 0.0
H97 H 0.25417 0.81657 0.2315 0.0
C98 C 0.19122 0.78885 0.37993 0.0
C99 C 0.21718 0.82764 0.3679 0.0
C100 C 0.20071 0.76307 0.3552 0.0
C101 C 0.23664 0.77655 0.3187 0.0
C102 C 0.26178 0.81509 0.30625 0.0
C103 C 0.25183 0.84062 0.33064 0.0
C104 C 0.0706 0.57937 0.41668 0.0
C105 C 0.07548 0.58687 0.45465 0.0
C106 C 0.04608 0.5557 0.48326 0.0
C107 C 0.02513 0.53099 0.46117 0.0
N108 N 0.03974 0.54469 0.42055 0.0
Co109 Co 0.01743 0.51966 0.37733 0.0
N110 N 0.9587 0.4855 0.41686 0.0
C111 C 0.95178 0.47872 0.45797 0.0
C112 C 0.90851 0.45283 0.47762 0.0
C113 C 0.8872 0.44211 0.44701 0.0
C114 C 0.91884 0.46208 0.41021 0.0
N115 N 0.99576 0.4947 0.33369 0.0
C116 C 0.95276 0.47073 0.33394 0.0
C117 C 0.95391 0.45914 0.29686 0.0
C118 C 0.99953 0.47562 0.27316 0.0
C119 C 0.02365 0.49642 0.29683 0.0
N120 N 0.07616 0.55401 0.33823 0.0
C121 C 0.09587 0.54896 0.30126 0.0
C122 C 0.1352 0.57861 0.28053 0.0
C123 C 0.14039 0.60383 0.30608 0.0
C124 C 0.10398 0.58792 0.34125 0.0
N125 N 0.05253 0.4818 0.38835 0.0
C126 C 0.10574 0.42858 0.3897 0.0
C127 C 0.127 0.46618 0.39185 0.0
C128 C 0.09965 0.49245 0.39115 0.0
C129 C 0.05674 0.41763 0.38998 0.0
C130 C 0.03086 0.44445 0.3896 0.0
N131 N 0.98256 0.55734 0.36578 0.0
C132 C 0.96413 0.60258 0.31671 0.0
C133 C 0.93827 0.61511 0.34817 0.0
C134 C 0.93395 0.59717 0.38877 0.0
C135 C 0.95614 0.56827 0.39688 0.0
C136 C 0.98606 0.57396 0.32611 0.0
H137 H 0.95275 0.55531 0.42834 0.0
H138 H 0.00654 0.56572 0.30114 0.0
H139 H 0.11713 0.52168 0.39099 0.0
H140 H 0.99381 0.43504 0.38825 0.0
C141 C 0.98458 0.49965 0.47692 0.0
C142 C 0.09698 0.60481 0.37746 0.0
C143 C 0.91301 0.45362 0.37027 0.0
C144 C 0.07041 0.52105 0.28389 0.0
H145 H 0.09746 0.61233 0.46093 0.0
H146 H 0.03867 0.55255 0.51618 0.0
H147 H 0.89404 0.44301 0.51028 0.0
H148 H 0.85308 0.42097 0.45123 0.0
H149 H 0.92525 0.43966 0.28839 0.0
H150 H 0.0133 0.47298 0.24226 0.0
H151 H 0.15575 0.58264 0.24952 0.0
H152 H 0.16736 0.63099 0.29912 0.0
H153 H 0.16491 0.47563 0.39179 0.0
H154 H 0.03888 0.38869 0.38886 0.0
H155 H 0.96768 0.61486 0.28485 0.0
H156 H 0.91469 0.60598 0.4142 0.0
C157 C 0.11444 0.59424 0.77524 0.0
C158 C 0.12191 0.5976 0.81381 0.0
C159 C 0.0893 0.56726 0.84087 0.0
C160 C 0.06396 0.54719 0.81734 0.0
N161 N 0.07907 0.56249 0.77681 0.0
Co162 Co 0.0515 0.54354 0.73165 0.0
N163 N 0.99677 0.50421 0.77192 0.0
C164 C 0.98807 0.49841 0.81327 0.0
C165 C 0.94782 0.46935 0.83284 0.0
C166 C 0.92979 0.45559 0.80223 0.0
C167 C 0.96029 0.47718 0.76552 0.0
N168 N 0.02496 0.52382 0.6864 0.0
C169 C 0.98709 0.49375 0.68813 0.0
C170 C 0.98266 0.48829 0.64937 0.0
C171 C 0.0195 0.51557 0.62215 0.0
C172 C 0.04418 0.53605 0.64573 0.0
N173 N 0.10508 0.58422 0.69166 0.0
C174 C 0.11403 0.59045 0.65034 0.0
C175 C 0.15066 0.62256 0.63118 0.0
C176 C 0.16516 0.63836 0.66213 0.0
C177 C 0.13648 0.61478 0.69842 0.0
N178 N 0.09115 0.50658 0.73065 0.0
C179 C 0.13666 0.44725 0.72728 0.0
C180 C 0.14462 0.47643 0.69307 0.0
C181 C 0.12171 0.50543 0.69537 0.0
C182 C 0.10673 0.44935 0.76349 0.0
C183 C 0.08548 0.47916 0.76466 0.0
N184 N 0.01142 0.57971 0.73255 0.0
C185 C 0.97513 0.62301 0.69709 0.0
C186 C 0.95075 0.62847 0.73418 0.0
C187 C 0.95841 0.60967 0.77037 0.0
C188 C 0.98875 0.58584 0.76887 0.0
C189 C 0.00498 0.59874 0.69697 0.0
H190 H 0.99293 0.57229 0.79753 0.0
H191 H 0.02234 0.59558 0.66775 0.0
H192 H 0.12897 0.52629 0.668 0.0
H193 H 0.06379 0.47878 0.79347 0.0
C194 C 0.02099 0.51822 0.83272 0.0
C195 C 0.13872 0.62342 0.73851 0.0
C196 C 0.95496 0.46925 0.72561 0.0
C197 C 0.08512 0.56706 0.63065 0.0
H198 H 0.14686 0.62051 0.82169 0.0
H199 H 0.08277 0.56185 0.87393 0.0
H200 H 0.93418 0.45856 0.86547 0.0
H201 H 0.89855 0.43157 0.80659 0.0
H202 H 0.95582 0.46659 0.64166 0.0
H203 H 0.02756 0.51976 0.58912 0.0
H204 H 0.16393 0.63392 0.59861 0.0
H205 H 0.19276 0.66476 0.65852 0.0
H206 H 0.16849 0.47713 0.66446 0.0
H207 H 0.0985 0.42765 0.79104 0.0
H208 H 0.97136 0.63744 0.66811 0.0
H209 H 0.94018 0.61247 0.79998 0.0
C210 C 0.26593 0.99924 0.607 0.0
C211 C 0.31157 0.99567 0.6088 0.0
C212 C 0.34175 0.01485 0.57194 0.0
C213 C 0.31314 0.02926 0.54981 0.0
N214 N 0.26694 0.02103 0.57073 0.0
Co215 Co 0.21398 0.03565 0.54922 0.0
N216 N 0.2603 0.0737 0.50274 0.0
C217 C 0.30664 0.07523 0.48824 0.0
C218 C 0.32971 0.10563 0.4563 0.0
C219 C 0.2957 0.12437 0.45056 0.0
C220 C 0.25375 0.10426 0.47951 0.0
N221 N 0.16158 0.05048 0.52723 0.0
C222 C 0.16348 0.08302 0.50178 0.0
C223 C 0.11833 0.08286 0.49489 0.0
C224 C 0.08718 0.04885 0.51704 0.0
C225 C 0.115 0.03028 0.53615 0.0
N226 N 0.16722 0.99748 0.59574 0.0
C227 C 0.11971 0.9835 0.5981 0.0
C228 C 0.09644 0.95635 0.63294 0.0
C229 C 0.13159 0.9524 0.65344 0.0
C230 C 0.17458 0.97742 0.62984 0.0
N231 N 0.21579 0.07503 0.58187 0.0
C232 C 0.21712 0.1371 0.62022 0.0
C233 C 0.17371 0.10987 0.62262 0.0
C234 C 0.17381 0.07922 0.60323 0.0
C235 C 0.26001 0.1318 0.59928 0.0
C236 C 0.2586 0.10051 0.58069 0.0
N237 N 0.21193 0.99647 0.51606 0.0
C238 C 0.21003 0.9321 0.51039 0.0
C239 C 0.20931 0.9401 0.46879 0.0
C240 C 0.20946 0.97721 0.45162 0.0
C241 C 0.21036 0.00473 0.47574 0.0
C242 C 0.21187 0.96053 0.53311 0.0
H243 H 0.21009 0.03282 0.46162 0.0
H244 H 0.21313 0.95317 0.56462 0.0
H245 H 0.13968 0.05949 0.60459 0.0
H246 H 0.29215 0.09749 0.56448 0.0
C247 C 0.32924 0.05332 0.511 0.0
C248 C 0.22203 0.97668 0.63758 0.0
C249 C 0.20779 0.11375 0.48328 0.0
C250 C 0.09765 0.99882 0.56889 0.0
H251 H 0.3216 0.97958 0.6336 0.0
H252 H 0.37999 0.01801 0.5625 0.0
H253 H 0.36742 0.11446 0.44067 0.0
H254 H 0.30127 0.15008 0.42805 0.0
H255 H 0.10879 0.10515 0.4764 0.0
H256 H 0.04846 0.03985 0.52072 0.0
H257 H 0.05847 0.94124 0.64237 0.0
H258 H 0.12651 0.93231 0.68173 0.0
H259 H 0.13966 0.11274 0.63844 0.0
H260 H 0.29453 0.15164 0.59734 0.0
H261 H 0.20885 0.90391 0.52576 0.0
H262 H 0.20969 0.98537 0.41958 0.0
C263 C 0.48024 0.84369 0.0908 0.0
C264 C 0.48422 0.8796 0.09949 0.0
C265 C 0.53023 0.90134 0.08093 0.0
C266 C 0.55182 0.87767 0.06202 0.0
N267 N 0.52207 0.8425 0.06712 0.0
Co268 Co 0.53988 0.7994 0.04648 0.0
N269 N 0.59759 0.83406 0.00655 0.0
C270 C 0.61965 0.86996 0.00804 0.0
C271 C 0.65892 0.88681 0.97599 0.0
C272 C 0.66174 0.8597 0.95308 0.0
C273 C 0.62387 0.82777 0.97257 0.0
N274 N 0.55813 0.75647 0.02579 0.0
C275 C 0.58787 0.75678 0.9902 0.0
C276 C 0.5907 0.72039 0.98749 0.0
C277 C 0.56166 0.69657 0.0229 0.0
C278 C 0.54282 0.71969 0.0451 0.0
N279 N 0.48234 0.76453 0.08659 0.0
C280 C 0.4743 0.72673 0.09898 0.0
C281 C 0.43121 0.70991 0.12681 0.0
C282 C 0.41121 0.73899 0.13271 0.0
C283 C 0.44357 0.77216 0.10833 0.0
N284 N 0.50139 0.8037 0.00557 0.0
C285 C 0.44907 0.80974 0.94464 0.0
C286 C 0.44473 0.77431 0.969 0.0
C287 C 0.47112 0.77192 0.99919 0.0
C288 C 0.47976 0.84212 0.95201 0.0
C289 C 0.50542 0.8385 0.98255 0.0
N290 N 0.57852 0.79519 0.08742 0.0
C291 C 0.58824 0.79611 0.15614 0.0
C292 C 0.63449 0.79176 0.14543 0.0
C293 C 0.65224 0.78869 0.1054 0.0
C294 C 0.62367 0.79051 0.0768 0.0
C295 C 0.56078 0.79763 0.12678 0.0
H296 H 0.6383 0.78844 0.046 0.0
H297 H 0.52531 0.80111 0.13597 0.0
H298 H 0.46732 0.74425 0.01713 0.0
H299 H 0.52909 0.86387 0.98713 0.0
C300 C 0.59742 0.88862 0.03527 0.0
C301 C 0.43855 0.81053 0.1097 0.0
C302 C 0.61556 0.79125 0.95972 0.0
C303 C 0.50444 0.7075 0.07964 0.0
H304 H 0.45717 0.88892 0.11819 0.0
H305 H 0.54575 0.93101 0.0807 0.0
H306 H 0.68156 0.91581 0.9691 0.0
H307 H 0.68858 0.86299 0.92533 0.0
H308 H 0.61144 0.71198 0.96257 0.0
H309 H 0.55356 0.66589 0.0306 0.0
H310 H 0.41552 0.67997 0.14033 0.0
H311 H 0.37704 0.73611 0.15313 0.0
H312 H 0.42101 0.74852 0.96494 0.0
H313 H 0.48492 0.87007 0.93371 0.0
H314 H 0.57351 0.79849 0.18697 0.0
H315 H 0.68801 0.78529 0.09624 0.0
C316 C 0.8119 0.97058 0.57281 0.0
C317 C 0.85701 0.96673 0.57601 0.0
C318 C 0.88993 0.99405 0.54565 0.0
C319 C 0.86318 0.0129 0.52571 0.0
N320 N 0.81513 0.9995 0.54164 0.0
Co321 Co 0.76317 0.01761 0.52083 0.0
N322 N 0.81186 0.05954 0.47806 0.0
C323 C 0.86042 0.06718 0.47081 0.0
C324 C 0.88445 0.09942 0.4416 0.0
C325 C 0.84916 0.1138 0.43013 0.0
C326 C 0.8055 0.08925 0.453 0.0
N327 N 0.71132 0.03512 0.49922 0.0
C328 C 0.71461 0.06669 0.47143 0.0
C329 C 0.66969 0.06873 0.46566 0.0
C330 C 0.6367 0.03765 0.49135 0.0
C331 C 0.66328 0.01844 0.51117 0.0
N332 N 0.71441 0.9768 0.56476 0.0
C333 C 0.66583 0.96918 0.5717 0.0
C334 C 0.64175 0.93992 0.6044 0.0
C335 C 0.67701 0.92815 0.61934 0.0
C336 C 0.72075 0.95095 0.59467 0.0
N337 N 0.7636 0.05317 0.55874 0.0
C338 C 0.76361 0.10869 0.60671 0.0
C339 C 0.72045 0.08554 0.60223 0.0
C340 C 0.72126 0.05819 0.57841 0.0
C341 C 0.80682 0.10264 0.58784 0.0
C342 C 0.80599 0.07473 0.56436 0.0
N343 N 0.76256 0.98178 0.48254 0.0
C344 C 0.72058 0.92713 0.45947 0.0
C345 C 0.76224 0.92866 0.43128 0.0
C346 C 0.8039 0.95756 0.42845 0.0
C347 C 0.8034 0.98339 0.45439 0.0
C348 C 0.72136 0.95396 0.48416 0.0
H349 H 0.8367 0.00407 0.45122 0.0
H350 H 0.68805 0.95124 0.50438 0.0
H351 H 0.68717 0.04202 0.57554 0.0
H352 H 0.84 0.07145 0.55043 0.0
C353 C 0.88225 0.0444 0.4933 0.0
C354 C 0.76719 0.94611 0.60015 0.0
C355 C 0.7591 0.0963 0.45141 0.0
C356 C 0.64402 0.98854 0.54537 0.0
H357 H 0.86524 0.94632 0.59808 0.0
H358 H 0.92877 0.99971 0.53913 0.0
H359 H 0.92303 0.11164 0.43088 0.0
H360 H 0.85493 0.1399 0.40817 0.0
H361 H 0.66158 0.09105 0.44593 0.0
H362 H 0.59784 0.031 0.49659 0.0
H363 H 0.60316 0.92812 0.61561 0.0
H364 H 0.6712 0.90502 0.64511 0.0
H365 H 0.68604 0.0893 0.61589 0.0
H366 H 0.84116 0.11946 0.59097 0.0
H367 H 0.68726 0.90545 0.46224 0.0
H368 H 0.8371 0.95968 0.407 0.0
C369 C 0.4496 0.31861 0.07798 0.0
C370 C 0.44654 0.35452 0.08293 0.0
C371 C 0.48336 0.38014 0.05412 0.0
C372 C 0.50694 0.35858 0.03349 0.0
N373 N 0.48724 0.32065 0.0471 0.0
Co374 Co 0.51216 0.27913 0.02747 0.0
N375 N 0.56705 0.31702 0.98574 0.0
C376 C 0.57665 0.35536 0.97856 0.0
C377 C 0.61502 0.37388 0.94647 0.0
C378 C 0.63066 0.34573 0.93185 0.0
C379 C 0.60096 0.31147 0.95621 0.0
N380 N 0.53748 0.23762 0.00828 0.0
C381 C 0.57476 0.23963 0.97711 0.0
C382 C 0.58005 0.2039 0.97401 0.0
C383 C 0.54429 0.17829 0.00382 0.0
C384 C 0.51948 0.19975 0.02346 0.0
N385 N 0.45675 0.24119 0.06864 0.0
C386 C 0.44632 0.20282 0.07495 0.0
C387 C 0.40569 0.18425 0.10493 0.0
C388 C 0.38928 0.21239 0.1189 0.0
C389 C 0.42125 0.24666 0.09673 0.0
N390 N 0.47222 0.27764 0.98616 0.0
C391 C 0.41478 0.27519 0.92802 0.0
C392 C 0.41905 0.24181 0.95062 0.0
C393 C 0.44768 0.24367 0.97921 0.0
C394 C 0.44006 0.30988 0.93487 0.0
C395 C 0.46836 0.31044 0.96379 0.0
N396 N 0.55184 0.28063 0.06909 0.0
C397 C 0.57224 0.249 0.12851 0.0
C398 C 0.59871 0.28365 0.13451 0.0
C399 C 0.60328 0.31656 0.10591 0.0
C400 C 0.57991 0.3144 0.07367 0.0
C401 C 0.54961 0.24813 0.09579 0.0
H402 H 0.5844 0.34056 0.05333 0.0
H403 H 0.52953 0.22087 0.09341 0.0
H404 H 0.44916 0.21718 0.99544 0.0
H405 H 0.48676 0.33776 0.96752 0.0
C406 C 0.548 0.37313 0.00162 0.0
C407 C 0.41688 0.28353 0.10419 0.0
C408 C 0.60527 0.27446 0.94907 0.0
C409 C 0.47685 0.18507 0.05379 0.0
H410 H 0.42083 0.3616 0.10541 0.0
H411 H 0.49232 0.41084 0.04919 0.0
H412 H 0.62924 0.40421 0.93453 0.0
H413 H 0.66003 0.35007 0.90566 0.0
H414 H 0.6065 0.19703 0.95197 0.0
H415 H 0.53645 0.14761 0.0097 0.0
H416 H 0.39031 0.15388 0.11583 0.0
H417 H 0.35769 0.20813 0.14308 0.0
H418 H 0.39964 0.21418 0.94693 0.0
H419 H 0.43837 0.33657 0.91779 0.0
H420 H 0.56743 0.22263 0.14976 0.0
H421 H 0.62444 0.34403 0.10853 0.0
C422 C 0.1584 0.35835 0.34134 0.0
C423 C 0.18561 0.34755 0.36864 0.0
H424 H 0.11209 0.39242 0.32685 0.0
C425 C 0.18723 0.36408 0.40311 0.0
H426 H 0.15628 0.34589 0.31468 0.0
C427 C 0.16231 0.39131 0.4098 0.0
C428 C 0.13465 0.40158 0.38258 0.0
H429 H 0.20815 0.35627 0.4245 0.0
H430 H 0.16386 0.40375 0.4365 0.0
C431 C 0.13303 0.38486 0.34835 0.0
C432 C 0.15734 0.72593 0.74849 0.0
C433 C 0.20516 0.73604 0.75317 0.0
H434 H 0.0991 0.68215 0.74011 0.0
C435 C 0.23131 0.70884 0.75196 0.0
H436 H 0.13596 0.74594 0.74976 0.0
C437 C 0.21003 0.67239 0.74656 0.0
C438 C 0.16231 0.66252 0.74226 0.0
H439 H 0.26836 0.7158 0.75488 0.0
H440 H 0.23065 0.6518 0.74601 0.0
C441 C 0.13615 0.68949 0.7431 0.0
C442 C 0.92274 0.70833 0.29603 0.0
C443 C 0.87792 0.70861 0.31876 0.0
H444 H 0.97722 0.67934 0.28777 0.0
C445 C 0.85335 0.67835 0.35217 0.0
H446 H 0.94307 0.73182 0.2709 0.0
C447 C 0.87261 0.64787 0.36165 0.0
C448 C 0.91725 0.64732 0.33842 0.0
H449 H 0.81926 0.67817 0.37098 0.0
H450 H 0.85231 0.62462 0.38699 0.0
C451 C 0.94216 0.67813 0.30566 0.0
C452 C 0.83513 0.3976 0.73856 0.0
C453 C 0.84908 0.3641 0.73642 0.0
H454 H 0.85836 0.45761 0.73603 0.0
C455 C 0.89837 0.36646 0.7253 0.0
H456 H 0.79735 0.39661 0.7466 0.0
C457 C 0.93309 0.40134 0.71928 0.0
C458 C 0.91888 0.43422 0.72395 0.0
H459 H 0.91005 0.34106 0.72365 0.0
H460 H 0.97094 0.40234 0.71307 0.0
C461 C 0.8698 0.43242 0.73228 0.0
C462 C 0.22248 0.21881 0.44793 0.0
C463 C 0.21667 0.22042 0.40759 0.0
H464 H 0.22437 0.18317 0.50369 0.0
C465 C 0.2039 0.18631 0.39377 0.0
H466 H 0.23258 0.24468 0.45923 0.0
C467 C 0.19882 0.15145 0.41915 0.0
C468 C 0.20643 0.15004 0.4588 0.0
H469 H 0.19875 0.18668 0.36296 0.0
H470 H 0.19054 0.12567 0.40739 0.0
C471 C 0.21782 0.18382 0.47326 0.0
C472 C 0.38158 0.8477 0.86943 0.0
C473 C 0.37795 0.82079 0.84448 0.0
H474 H 0.40613 0.86512 0.92093 0.0
C475 C 0.39572 0.78932 0.85373 0.0
H476 H 0.36777 0.87204 0.86305 0.0
C477 C 0.41809 0.78546 0.88653 0.0
C478 C 0.42295 0.81287 0.91103 0.0
H479 H 0.39322 0.76809 0.83502 0.0
H480 H 0.43277 0.76149 0.89194 0.0
C481 C 0.40384 0.84382 0.90233 0.0
C482 C 0.77844 0.88381 0.33856 0.0
C483 C 0.76147 0.84486 0.35667 0.0
H484 H 0.79269 0.94097 0.3482 0.0
C485 C 0.74482 0.83367 0.39937 0.0
H486 H 0.79173 0.89309 0.3057 0.0
C487 C 0.74471 0.86094 0.42352 0.0
C488 C 0.76218 0.8999 0.40549 0.0
H489 H 0.73145 0.8038 0.41401 0.0
H490 H 0.73155 0.85161 0.45639 0.0
C491 C 0.77927 0.9111 0.36281 0.0
C492 C 0.65839 0.26239 0.84329 0.0
C493 C 0.70802 0.27651 0.84063 0.0
H494 H 0.58671 0.25098 0.88015 0.0
C495 C 0.72356 0.28679 0.87513 0.0
H496 H 0.64549 0.25445 0.8171 0.0
C497 C 0.69012 0.28463 0.91097 0.0
C498 C 0.64062 0.27247 0.91278 0.0
H499 H 0.76163 0.29732 0.87406 0.0
H500 H 0.70281 0.29365 0.93683 0.0
C501 C 0.62489 0.26053 0.87913 0.0
C502 C 0.23663 0.8792 0.67388 0.0
C503 C 0.23529 0.87798 0.71567 0.0
H504 H 0.23334 0.9113 0.61689 0.0
C505 C 0.22869 0.90959 0.73194 0.0
H506 H 0.24254 0.8558 0.66007 0.0
C507 C 0.22368 0.94162 0.70689 0.0
C508 C 0.22531 0.94254 0.66525 0.0
H509 H 0.22708 0.90947 0.76405 0.0
H510 H 0.21887 0.9657 0.7199 0.0
C511 C 0.23161 0.91105 0.64904 0.0
C512 C 0.71704 0.82485 0.21365 0.0
C513 C 0.71575 0.79026 0.23842 0.0
H514 H 0.69221 0.85222 0.16458 0.0
C515 C 0.68896 0.75603 0.23091 0.0
H516 H 0.73782 0.85169 0.21812 0.0
C517 C 0.66339 0.75647 0.19997 0.0
C518 C 0.66413 0.79108 0.17602 0.0
H519 H 0.6866 0.72892 0.24969 0.0
H520 H 0.64222 0.72986 0.19528 0.0
C521 C 0.69133 0.82523 0.18283 0.0
C522 C 0.79275 0.20638 0.63291 0.0
C523 C 0.75619 0.20116 0.66797 0.0
H524 H 0.8235 0.18131 0.58575 0.0
C525 C 0.7246 0.16476 0.68474 0.0
H526 H 0.81798 0.23414 0.61983 0.0
C527 C 0.7279 0.13445 0.66554 0.0
C528 C 0.76315 0.13991 0.62936 0.0
H529 H 0.69675 0.15996 0.71226 0.0
H530 H 0.70253 0.1068 0.67884 0.0
C531 C 0.79612 0.17607 0.61368 0.0
C532 C 0.34843 0.27454 0.21274 0.0
C533 C 0.3094 0.2885 0.20618 0.0
H534 H 0.41361 0.2627 0.18521 0.0
C535 C 0.30542 0.3001 0.16587 0.0
H536 H 0.35166 0.26456 0.24354 0.0
C537 C 0.34036 0.29851 0.1327 0.0
C538 C 0.37975 0.28528 0.13937 0.0
H539 H 0.27513 0.31018 0.16003 0.0
H540 H 0.33665 0.30752 0.10183 0.0
C541 C 0.38357 0.27326 0.17957 0.0
C542 C 0.87794 0.69541 0.76748 0.0
C543 C 0.84852 0.69549 0.73919 0.0
H544 H 0.93427 0.67546 0.78733 0.0
C545 C 0.85325 0.67375 0.7091 0.0
H546 H 0.87442 0.71127 0.79155 0.0
C547 C 0.88688 0.65265 0.70705 0.0
C548 C 0.91654 0.65253 0.73524 0.0
H549 H 0.83023 0.67252 0.68753 0.0
H550 H 0.88856 0.63552 0.68404 0.0
C551 C 0.91185 0.67449 0.7653 0.0
C552 C 0.86232 0.34977 0.36977 0.0
C553 C 0.81742 0.34888 0.36034 0.0
H554 H 0.92726 0.38367 0.38054 0.0
C555 C 0.80287 0.3826 0.3568 0.0
H556 H 0.87521 0.32468 0.37206 0.0
C557 C 0.83316 0.41656 0.36124 0.0
C558 C 0.87828 0.41728 0.36958 0.0
H559 H 0.76828 0.38288 0.35011 0.0
H560 H 0.82184 0.44236 0.35734 0.0
C561 C 0.89232 0.38357 0.37441 0.0
C562 C 0.19026 0.36669 0.76038 0.0
C563 C 0.20102 0.35318 0.72424 0.0
H564 H 0.16479 0.40729 0.78924 0.0
C565 C 0.18988 0.3708 0.68883 0.0
H566 H 0.1968 0.35351 0.78875 0.0
C567 C 0.16909 0.40118 0.68961 0.0
C568 C 0.15931 0.41508 0.72571 0.0
H569 H 0.19774 0.3615 0.66031 0.0
H570 H 0.16031 0.41345 0.66192 0.0
C571 C 0.17063 0.39738 0.76093 0.0
C572 C 0.12292 0.71061 0.37545 0.0
C573 C 0.17361 0.72208 0.36654 0.0
H574 H 0.05893 0.66412 0.38543 0.0
C575 C 0.19857 0.69422 0.36465 0.0
H576 H 0.1028 0.73149 0.37695 0.0
C577 C 0.17358 0.65596 0.36973 0.0
C578 C 0.12321 0.64488 0.37603 0.0
H579 H 0.2376 0.70219 0.35832 0.0
H580 H 0.19368 0.63511 0.3675 0.0
C581 C 0.09791 0.67225 0.38006 0.0
C582 C 0.76839 0.8938 0.70466 0.0
C583 C 0.76956 0.85757 0.69748 0.0
H584 H 0.76669 0.95014 0.67921 0.0
C585 C 0.77119 0.85111 0.65758 0.0
H586 H 0.76793 0.89997 0.73482 0.0
C587 C 0.7708 0.87999 0.62584 0.0
C588 C 0.76886 0.91576 0.63347 0.0
H589 H 0.77166 0.8235 0.65108 0.0
H590 H 0.77148 0.87435 0.59543 0.0
C591 C 0.76795 0.92258 0.67294 0.0
C592 C 0.65559 0.25747 0.22292 0.0
C593 C 0.65313 0.28694 0.24393 0.0
H594 H 0.64161 0.23377 0.17133 0.0
C595 C 0.63427 0.31596 0.22811 0.0
H596 H 0.66989 0.23474 0.23468 0.0
C597 C 0.6176 0.31528 0.19217 0.0
C598 C 0.61943 0.28555 0.17125 0.0
H599 H 0.63163 0.33884 0.24393 0.0
H600 H 0.60196 0.33751 0.18148 0.0
C601 C 0.6391 0.25684 0.18687 0.0
C602 C 0.25061 0.23789 0.63901 0.0
C603 C 0.22415 0.23286 0.67921 0.0
H604 H 0.26904 0.21155 0.5887 0.0
C605 C 0.19342 0.1968 0.69913 0.0
H606 H 0.27518 0.26533 0.62338 0.0
C607 C 0.18996 0.16602 0.67952 0.0
C608 C 0.21783 0.17053 0.63979 0.0
H609 H 0.17345 0.19216 0.73047 0.0
H610 H 0.16703 0.13832 0.69615 0.0
C611 C 0.24755 0.20701 0.61948 0.0
C612 C 0.32992 0.83916 0.15964 0.0
C613 C 0.32845 0.82808 0.20148 0.0
H614 H 0.36596 0.84206 0.09765 0.0
C615 C 0.36256 0.81001 0.21276 0.0
H616 H 0.30388 0.85285 0.15017 0.0
C617 C 0.39787 0.80408 0.18287 0.0
C618 C 0.39924 0.81524 0.14116 0.0
H619 H 0.36243 0.80066 0.24459 0.0
H620 H 0.42442 0.79094 0.19229 0.0
C621 C 0.3651 0.83289 0.12971 0.0
C622 C 0.76352 0.17672 0.36582 0.0
C623 C 0.75797 0.20566 0.38711 0.0
H624 H 0.76815 0.11934 0.36973 0.0
C625 C 0.75176 0.19788 0.42995 0.0
H626 H 0.76902 0.18187 0.33281 0.0
C627 C 0.75139 0.16211 0.45089 0.0
C628 C 0.75737 0.13361 0.42937 0.0
H629 H 0.74686 0.21934 0.44732 0.0
H630 H 0.74685 0.15674 0.48384 0.0
C631 C 0.76323 0.14104 0.38677 0.0
C632 C 0.349 0.24325 0.84764 0.0
C633 C 0.31826 0.26685 0.84636 0.0
H634 H 0.40403 0.22763 0.87413 0.0
C635 C 0.32163 0.29494 0.86985 0.0
H636 H 0.34756 0.22185 0.82916 0.0
C637 C 0.35366 0.2982 0.89575 0.0
C638 C 0.38321 0.27358 0.89838 0.0
H639 H 0.29865 0.31379 0.86887 0.0
H640 H 0.3542 0.31924 0.91461 0.0
C641 C 0.38106 0.24648 0.8735 0.0
C642 C 0.18831 0.88258 0.3862 0.0
C643 C 0.21142 0.8544 0.39532 0.0
H644 H 0.16785 0.93078 0.40277 0.0
C645 C 0.23302 0.85394 0.42883 0.0
H646 H 0.17172 0.88357 0.36022 0.0
C647 C 0.23232 0.8816 0.4525 0.0
C648 C 0.20924 0.91015 0.44366 0.0
H649 H 0.25184 0.83284 0.43591 0.0
H650 H 0.25112 0.88103 0.47706 0.0
C651 C 0.18675 0.90991 0.41034 0.0
C652 C 0.71901 0.78286 0.88031 0.0
C653 C 0.70279 0.78949 0.84407 0.0
H654 H 0.70374 0.77825 0.94551 0.0
C655 C 0.65637 0.79456 0.84677 0.0
H656 H 0.75469 0.77929 0.87936 0.0
C657 C 0.62759 0.79424 0.88454 0.0
C658 C 0.64449 0.78855 0.92029 0.0
H659 H 0.64241 0.79913 0.8196 0.0
H660 H 0.59243 0.79901 0.88579 0.0
C661 C 0.6901 0.78243 0.91809 0.0
loop_
_geom_bond_atom_site_label_1
_geom_bond_atom_site_label_2
_geom_bond_distance
_geom_bond_site_symmetry_2
_ccdc_geom_bond_type
H0 C7 0.929 . S
H1 C10 0.930 . S
H2 C12 0.929 . S
H3 C4 0.969 . S
C4 H3 0.969 . S
C4 O5 1.550 . S
C4 H6 0.973 . S
O5 C4 1.550 . S
O5 C11 1.412 . S
H6 C4 0.973 . S
C7 H0 0.929 . S
C7 C8 1.400 . S
C7 C9 1.364 . S
C8 C7 1.400 . S
C8 C12 1.377 . S
C9 C7 1.364 . S
C9 C10 1.374 . S
C10 H1 0.930 . S
C10 C9 1.374 . S
C10 C11 1.383 . S
C11 O5 1.412 . S
C11 C10 1.383 . S
C11 C12 1.394 . S
C12 H2 0.929 . S
C12 C8 1.377 . S
C12 C11 1.394 . S
H13 C20 0.929 . S
H14 C23 0.930 . S
H15 C25 0.929 . S
H16 C17 0.969 . S
C17 H16 0.969 . S
C17 O18 1.550 . S
C17 H19 0.973 . S
O18 C17 1.550 . S
O18 C24 1.412 . S
H19 C17 0.973 . S
C20 H13 0.929 . S
C20 C21 1.400 . S
C20 C22 1.364 . S
C21 C20 1.400 . S
C21 C25 1.377 . S
C22 C20 1.364 . S
C22 C23 1.374 . S
C23 H14 0.930 . S
C23 C22 1.374 . S
C23 C24 1.383 . S
C24 O18 1.412 . S
C24 C23 1.383 . S
C24 C25 1.394 . S
C25 H15 0.929 . S
C25 C21 1.377 . S
C25 C24 1.394 . S
H26 C33 0.929 . S
H27 C36 0.930 . S
H28 C38 0.929 . S
H29 C30 0.969 . S
C30 H29 0.969 . S
C30 O31 1.550 . S
C30 H32 0.973 . S
O31 C30 1.550 . S
O31 C37 1.412 . S
H32 C30 0.973 . S
C33 H26 0.929 . S
C33 C34 1.400 . S
C33 C35 1.364 . S
C34 C33 1.400 . S
C34 C38 1.377 . S
C35 C33 1.364 . S
C35 C36 1.374 . S
C36 H27 0.930 . S
C36 C35 1.374 . S
C36 C37 1.383 . S
C37 O31 1.412 . S
C37 C36 1.383 . S
C37 C38 1.394 . S
C38 H28 0.929 . S
C38 C34 1.377 . S
C38 C37 1.394 . S
H39 C46 0.929 . S
H40 C49 0.930 . S
H41 C51 0.929 . S
H42 C43 0.969 . S
C43 H42 0.969 . S
C43 O44 1.550 . S
C43 H45 0.973 . S
O44 C43 1.550 . S
O44 C50 1.412 . S
H45 C43 0.973 . S
C46 H39 0.929 . S
C46 C47 1.400 . S
C46 C48 1.364 . S
C47 C46 1.400 . S
C47 C51 1.377 . S
C48 C46 1.364 . S
C48 C49 1.374 . S
C49 H40 0.930 . S
C49 C48 1.374 . S
C49 C50 1.383 . S
C50 O44 1.412 . S
C50 C49 1.383 . S
C50 C51 1.394 . S
C51 H41 0.929 . S
C51 C47 1.377 . S
C51 C50 1.394 . S
H52 C59 0.929 . S
H53 C62 0.930 . S
H54 C64 0.929 . S
H55 C56 0.969 . S
C56 H55 0.969 . S
C56 O57 1.550 . S
C56 H58 0.973 . S
O57 C56 1.550 . S
O57 C63 1.412 . S
H58 C56 0.973 . S
C59 H52 0.929 . S
C59 C60 1.400 . S
C59 C61 1.364 . S
C60 C59 1.400 . S
C60 C64 1.377 . S
C61 C59 1.364 . S
C61 C62 1.374 . S
C62 H53 0.930 . S
C62 C61 1.374 . S
C62 C63 1.383 . S
C63 O57 1.412 . S
C63 C62 1.383 . S
C63 C64 1.394 . S
C64 H54 0.929 . S
C64 C60 1.377 . S
C64 C63 1.394 . S
H65 C72 0.929 . S
H66 C75 0.930 . S
H67 C77 0.929 . S
H68 C69 0.969 . S
C69 H68 0.969 . S
C69 O70 1.550 . S
C69 H71 0.973 . S
O70 C69 1.550 . S
O70 C76 1.412 . S
H71 C69 0.973 . S
C72 H65 0.929 . S
C72 C73 1.400 . S
C72 C74 1.364 . S
C73 C72 1.400 . S
C73 C77 1.377 . S
C74 C72 1.364 . S
C74 C75 1.374 . S
C75 H66 0.930 . S
C75 C74 1.374 . S
C75 C76 1.383 . S
C76 O70 1.412 . S
C76 C75 1.383 . S
C76 C77 1.394 . S
C77 H67 0.929 . S
C77 C73 1.377 . S
C77 C76 1.394 . S
H78 C85 0.929 . S
H79 C88 0.930 . S
H80 C90 0.929 . S
H81 C82 0.969 . S
C82 H81 0.969 . S
C82 O83 1.550 . S
C82 H84 0.973 . S
O83 C82 1.550 . S
O83 C89 1.412 . S
H84 C82 0.973 . S
C85 H78 0.929 . S
C85 C86 1.400 . S
C85 C87 1.364 . S
C86 C85 1.400 . S
C86 C90 1.377 . S
C87 C85 1.364 . S
C87 C88 1.374 . S
C88 H79 0.930 . S
C88 C87 1.374 . S
C88 C89 1.383 . S
C89 O83 1.412 . S
C89 C88 1.383 . S
C89 C90 1.394 . S
C90 H80 0.929 . S
C90 C86 1.377 . S
C90 C89 1.394 . S
H91 C98 0.929 . S
H92 C101 0.930 . S
H93 C103 0.929 . S
H94 C95 0.969 . S
C95 H94 0.969 . S
C95 O96 1.550 . S
C95 H97 0.973 . S
O96 C95 1.550 . S
O96 C102 1.412 . S
H97 C95 0.973 . S
C98 H91 0.929 . S
C98 C99 1.400 . S
C98 C100 1.364 . S
C99 C98 1.400 . S
C99 C103 1.377 . S
C100 C98 1.364 . S
C100 C101 1.374 . S
C101 H92 0.930 . S
C101 C100 1.374 . S
C101 C102 1.383 . S
C102 O96 1.412 . S
C102 C101 1.383 . S
C102 C103 1.394 . S
C103 H93 0.929 . S
C103 C99 1.377 . S
C103 C102 1.394 . S
C104 C105 1.443 . S
C104 N108 1.376 . S
C104 C142 1.389 . S
C105 C104 1.443 . S
C105 C106 1.340 . S
C105 H145 0.951 . S
C106 C105 1.340 . S
C106 C107 1.439 1_455 S
C106 H146 0.952 . S
C107 C106 1.439 1_655 S
C107 N108 1.374 1_655 S
C107 C141 1.395 . S
N108 C104 1.376 . S
N108 C107 1.374 1_455 S
N108 Co109 2.010 . S
Co109 N108 2.010 . S
Co109 N110 1.992 1_455 S
Co109 N115 2.007 1_455 S
Co109 N120 1.997 . S
Co109 N125 2.287 . S
Co109 N131 2.278 1_455 S
N110 Co109 1.992 1_655 S
N110 C111 1.376 . S
N110 C114 1.383 . S
C111 N110 1.376 . S
C111 C112 1.446 . S
C111 C141 1.391 . S
C112 C111 1.446 . S
C112 C113 1.339 . S
C112 H147 0.949 . S
C113 C112 1.339 . S
C113 C114 1.439 . S
C113 H148 0.950 . S
C114 N110 1.383 . S
C114 C113 1.439 . S
C114 C143 1.392 . S
N115 Co109 2.007 1_655 S
N115 C116 1.376 . S
N115 C119 1.374 1_655 S
C116 N115 1.376 . S
C116 C117 1.443 . S
C116 C143 1.389 . S
C117 C116 1.443 . S
C117 C118 1.340 . S
C117 H149 0.951 . S
C118 C117 1.340 . S
C118 C119 1.439 1_655 S
C118 H150 0.950 . S
C119 N115 1.374 1_455 S
C119 C118 1.439 1_455 S
C119 C144 1.395 . S
N120 Co109 1.997 . S
N120 C121 1.376 . S
N120 C124 1.383 . S
C121 N120 1.376 . S
C121 C122 1.446 . S
C121 C144 1.391 . S
C122 C121 1.446 . S
C122 C123 1.339 . S
C122 H151 0.949 . S
C123 C122 1.339 . S
C123 C124 1.439 . S
C123 H152 0.950 . S
C124 N120 1.383 . S
C124 C123 1.439 . S
C124 C142 1.392 . S
N125 Co109 2.287 . S
N125 C128 1.332 . S
N125 C130 1.332 . S
C126 C127 1.386 . S
C126 C129 1.388 . S
C127 C126 1.386 . S
C127 C128 1.382 . S
C127 H153 0.950 . S
C128 N125 1.332 . S
C128 C127 1.382 . S
C128 H139 0.952 . S
C129 C126 1.388 . S
C129 C130 1.382 . S
C129 H154 0.950 . S
C130 N125 1.332 . S
C130 C129 1.382 . S
C130 H140 0.948 . S
N131 Co109 2.278 1_655 S
N131 C135 1.332 . S
N131 C136 1.332 . S
C132 C133 1.388 . S
C132 C136 1.382 . S
C132 H155 0.950 . S
C133 C132 1.388 . S
C133 C134 1.386 . S
C134 C133 1.386 . S
C134 C135 1.382 . S
C134 H156 0.950 . S
C135 N131 1.332 . S
C135 C134 1.382 . S
C135 H137 0.952 . S
C136 N131 1.332 . S
C136 C132 1.382 . S
C136 H138 0.948 . S
H137 C135 0.952 . S
H138 C136 0.948 . S
H139 C128 0.952 . S
H140 C130 0.948 . S
C141 C107 1.395 . S
C141 C111 1.391 . S
C142 C104 1.389 . S
C142 C124 1.392 . S
C143 C114 1.392 . S
C143 C116 1.389 . S
C144 C119 1.395 . S
C144 C121 1.391 . S
H145 C105 0.951 . S
H146 C106 0.952 . S
H147 C112 0.949 . S
H148 C113 0.950 . S
H149 C117 0.951 . S
H150 C118 0.950 . S
H151 C122 0.949 . S
H152 C123 0.950 . S
H153 C127 0.950 . S
H154 C129 0.950 . S
H155 C132 0.950 . S
H156 C134 0.950 . S
C157 C158 1.443 . S
C157 N161 1.376 . S
C157 C195 1.389 . S
C158 C157 1.443 . S
C158 C159 1.340 . S
C158 H198 0.951 . S
C159 C158 1.340 . S
C159 C160 1.439 . S
C159 H199 0.950 . S
C160 C159 1.439 . S
C160 N161 1.374 . S
C160 C194 1.395 . S
N161 C157 1.376 . S
N161 C160 1.374 . S
N161 Co162 2.008 . S
Co162 N161 2.008 . S
Co162 N163 1.995 . S
Co162 N168 2.008 . S
Co162 N173 1.995 . S
Co162 N178 2.282 . S
Co162 N184 2.282 . S
N163 Co162 1.995 . S
N163 C164 1.376 1_455 S
N163 C167 1.383 1_455 S
C164 N163 1.376 1_655 S
C164 C165 1.446 . S
C164 C194 1.391 1_655 S
C165 C164 1.446 . S
C165 C166 1.339 . S
C165 H200 0.949 . S
C166 C165 1.339 . S
C166 C167 1.439 . S
C166 H201 0.950 . S
C167 N163 1.383 1_655 S
C167 C166 1.439 . S
C167 C196 1.392 . S
N168 Co162 2.008 . S
N168 C169 1.376 . S
N168 C172 1.374 . S
C169 N168 1.376 . S
C169 C170 1.443 . S
C169 C196 1.389 1_455 S
C170 C169 1.443 . S
C170 C171 1.340 . S
C170 H202 0.951 1_455 S
C171 C170 1.340 . S
C171 C172 1.439 . S
C171 H203 0.950 . S
C172 N168 1.374 . S
C172 C171 1.439 . S
C172 C197 1.395 . S
N173 Co162 1.995 . S
N173 C174 1.376 . S
N173 C177 1.383 . S
C174 N173 1.376 . S
C174 C175 1.446 . S
C174 C197 1.391 . S
C175 C174 1.446 . S
C175 C176 1.339 . S
C175 H204 0.949 . S
C176 C175 1.339 . S
C176 C177 1.439 . S
C176 H205 0.950 . S
C177 N173 1.383 . S
C177 C176 1.439 . S
C177 C195 1.392 . S
N178 Co162 2.282 . S
N178 C181 1.332 . S
N178 C183 1.332 . S
C179 C180 1.386 . S
C179 C182 1.388 . S
C180 C179 1.386 . S
C180 C181 1.382 . S
C180 H206 0.950 . S
C181 N178 1.332 . S
C181 C180 1.382 . S
C181 H192 0.952 . S
C182 C179 1.388 . S
C182 C183 1.382 . S
C182 H207 0.950 . S
C183 N178 1.332 . S
C183 C182 1.382 . S
C183 H193 0.948 . S
N184 Co162 2.282 . S
N184 C188 1.332 1_455 S
N184 C189 1.332 . S
C185 C186 1.388 . S
C185 C189 1.382 1_655 S
C185 H208 0.950 . S
C186 C185 1.388 . S
C186 C187 1.386 . S
C187 C186 1.386 . S
C187 C188 1.382 . S
C187 H209 0.950 . S
C188 N184 1.332 1_655 S
C188 C187 1.382 . S
C188 H190 0.952 . S
C189 N184 1.332 . S
C189 C185 1.382 1_455 S
C189 H191 0.948 . S
H190 C188 0.952 . S
H191 C189 0.948 . S
H192 C181 0.952 . S
H193 C183 0.948 . S
C194 C160 1.395 . S
C194 C164 1.391 1_455 S
C195 C157 1.389 . S
C195 C177 1.392 . S
C196 C167 1.392 . S
C196 C169 1.389 1_655 S
C197 C172 1.395 . S
C197 C174 1.391 . S
H198 C158 0.951 . S
H199 C159 0.950 . S
H200 C165 0.949 . S
H201 C166 0.950 . S
H202 C170 0.951 1_655 S
H203 C171 0.950 . S
H204 C175 0.949 . S
H205 C176 0.950 . S
H206 C180 0.950 . S
H207 C182 0.950 . S
H208 C185 0.950 . S
H209 C187 0.950 . S
C210 C211 1.443 . S
C210 N214 1.376 . S
C210 C248 1.389 . S
C211 C210 1.443 . S
C211 C212 1.340 . S
C211 H251 0.951 . S
C212 C211 1.340 . S
C212 C213 1.439 1_565 S
C212 H252 0.950 . S
C213 C212 1.439 1_545 S
C213 N214 1.374 1_545 S
C213 C247 1.395 . S
N214 C210 1.376 . S
N214 C213 1.374 1_565 S
N214 Co215 2.008 1_565 S
Co215 N214 2.008 1_545 S
Co215 N216 1.995 . S
Co215 N221 2.008 . S
Co215 N226 1.995 1_545 S
Co215 N231 2.282 . S
Co215 N237 2.282 1_545 S
N216 Co215 1.995 . S
N216 C217 1.376 . S
N216 C220 1.383 . S
C217 N216 1.376 . S
C217 C218 1.446 . S
C217 C247 1.391 . S
C218 C217 1.446 . S
C218 C219 1.339 . S
C218 H253 0.949 . S
C219 C218 1.339 . S
C219 C220 1.439 . S
C219 H254 0.950 . S
C220 N216 1.383 . S
C220 C219 1.439 . S
C220 C249 1.392 . S
N221 Co215 2.008 . S
N221 C222 1.376 . S
N221 C225 1.374 . S
C222 N221 1.376 . S
C222 C223 1.443 . S
C222 C249 1.389 . S
C223 C222 1.443 . S
C223 C224 1.340 . S
C223 H255 0.951 . S
C224 C223 1.340 . S
C224 C225 1.439 . S
C224 H256 0.950 1_455 S
C225 N221 1.374 . S
C225 C224 1.439 . S
C225 C250 1.395 1_545 S
N226 Co215 1.995 1_565 S
N226 C227 1.376 . S
N226 C230 1.383 . S
C227 N226 1.376 . S
C227 C228 1.446 . S
C227 C250 1.391 . S
C228 C227 1.446 . S
C228 C229 1.339 . S
C228 H257 0.949 1_455 S
C229 C228 1.339 . S
C229 C230 1.439 . S
C229 H258 0.950 . S
C230 N226 1.383 . S
C230 C229 1.439 . S
C230 C248 1.392 . S
N231 Co215 2.282 . S
N231 C234 1.332 . S
N231 C236 1.332 . S
C232 C233 1.386 . S
C232 C235 1.388 . S
C233 C232 1.386 . S
C233 C234 1.382 . S
C233 H259 0.950 . S
C234 N231 1.332 . S
C234 C233 1.382 . S
C234 H245 0.952 . S
C235 C232 1.388 . S
C235 C236 1.382 . S
C235 H260 0.950 . S
C236 N231 1.332 . S
C236 C235 1.382 . S
C236 H246 0.948 . S
N237 Co215 2.282 1_565 S
N237 C241 1.332 . S
N237 C242 1.332 . S
C238 C239 1.388 . S
C238 C242 1.382 . S
C238 H261 0.950 . S
C239 C238 1.388 . S
C239 C240 1.386 . S
C240 C239 1.386 . S
C240 C241 1.382 . S
C240 H262 0.950 . S
C241 N237 1.332 . S
C241 C240 1.382 . S
C241 H243 0.952 . S
C242 N237 1.332 . S
C242 C238 1.382 . S
C242 H244 0.948 . S
H243 C241 0.952 . S
H244 C242 0.948 . S
H245 C234 0.952 . S
H246 C236 0.948 . S
C247 C213 1.395 . S
C247 C217 1.391 . S
C248 C210 1.389 . S
C248 C230 1.392 . S
C249 C220 1.392 . S
C249 C222 1.389 . S
C250 C225 1.395 1_565 S
C250 C227 1.391 . S
H251 C211 0.951 . S
H252 C212 0.950 . S
H253 C218 0.949 . S
H254 C219 0.950 . S
H255 C223 0.951 . S
H256 C224 0.950 1_655 S
H257 C228 0.949 1_655 S
H258 C229 0.950 . S
H259 C233 0.950 . S
H260 C235 0.950 . S
H261 C238 0.950 . S
H262 C240 0.950 . S
C263 C264 1.443 . S
C263 N267 1.376 . S
C263 C301 1.389 . S
C264 C263 1.443 . S
C264 C265 1.340 . S
C264 H304 0.951 . S
C265 C264 1.340 . S
C265 C266 1.439 . S
C265 H305 0.950 . S
C266 C265 1.439 . S
C266 N267 1.374 . S
C266 C300 1.395 . S
N267 C263 1.376 . S
N267 C266 1.374 . S
N267 Co268 2.008 . S
Co268 N267 2.008 . S
Co268 N269 1.995 1_554 S
Co268 N274 2.008 . S
Co268 N279 1.995 . S
Co268 N284 2.282 1_554 S
Co268 N290 2.282 . S
N269 Co268 1.995 1_556 S
N269 C270 1.376 . S
N269 C273 1.383 . S
C270 N269 1.376 . S
C270 C271 1.446 . S
C270 C300 1.391 1_556 S
C271 C270 1.446 . S
C271 C272 1.339 . S
C271 H306 0.949 . S
C272 C271 1.339 . S
C272 C273 1.439 . S
C272 H307 0.950 . S
C273 N269 1.383 . S
C273 C272 1.439 . S
C273 C302 1.392 . S
N274 Co268 2.008 . S
N274 C275 1.376 1_554 S
N274 C278 1.374 . S
C275 N274 1.376 1_556 S
C275 C276 1.443 . S
C275 C302 1.389 . S
C276 C275 1.443 . S
C276 C277 1.340 . S
C276 H308 0.951 . S
C277 C276 1.340 . S
C277 C278 1.439 1_556 S
C277 H309 0.950 . S
C278 N274 1.374 . S
C278 C277 1.439 1_554 S
C278 C303 1.395 . S
N279 Co268 1.995 . S
N279 C280 1.376 . S
N279 C283 1.383 . S
C280 N279 1.376 . S
C280 C281 1.446 . S
C280 C303 1.391 . S
C281 C280 1.446 . S
C281 C282 1.339 . S
C281 H310 0.949 . S
C282 C281 1.339 . S
C282 C283 1.439 . S
C282 H311 0.950 . S
C283 N279 1.383 . S
C283 C282 1.439 . S
C283 C301 1.392 . S
N284 Co268 2.282 1_556 S
N284 C287 1.332 . S
N284 C289 1.332 . S
C285 C286 1.386 . S
C285 C288 1.388 . S
C286 C285 1.386 . S
C286 C287 1.382 . S
C286 H312 0.950 . S
C287 N284 1.332 . S
C287 C286 1.382 . S
C287 H298 0.952 1_556 S
C288 C285 1.388 . S
C288 C289 1.382 . S
C288 H313 0.950 . S
C289 N284 1.332 . S
C289 C288 1.382 . S
C289 H299 0.948 . S
N290 Co268 2.282 . S
N290 C294 1.332 . S
N290 C295 1.332 . S
C291 C292 1.388 . S
C291 C295 1.382 . S
C291 H314 0.950 . S
C292 C291 1.388 . S
C292 C293 1.386 . S
C293 C292 1.386 . S
C293 C294 1.382 . S
C293 H315 0.950 . S
C294 N290 1.332 . S
C294 C293 1.382 . S
C294 H296 0.952 . S
C295 N290 1.332 . S
C295 C291 1.382 . S
C295 H297 0.948 . S
H296 C294 0.952 . S
H297 C295 0.948 . S
H298 C287 0.952 1_554 S
H299 C289 0.948 . S
C300 C266 1.395 . S
C300 C270 1.391 1_554 S
C301 C263 1.389 . S
C301 C283 1.392 . S
C302 C273 1.392 . S
C302 C275 1.389 . S
C303 C278 1.395 . S
C303 C280 1.391 . S
H304 C264 0.951 . S
H305 C265 0.950 . S
H306 C271 0.949 . S
H307 C272 0.950 . S
H308 C276 0.951 . S
H309 C277 0.950 . S
H310 C281 0.949 . S
H311 C282 0.950 . S
H312 C286 0.950 . S
H313 C288 0.950 . S
H314 C291 0.950 . S
H315 C293 0.950 . S
C316 C317 1.443 . S
C316 N320 1.376 . S
C316 C354 1.389 . S
C317 C316 1.443 . S
C317 C318 1.340 . S
C317 H357 0.951 . S
C318 C317 1.340 . S
C318 C319 1.439 . S
C318 H358 0.950 . S
C319 C318 1.439 . S
C319 N320 1.374 . S
C319 C353 1.395 1_565 S
N320 C316 1.376 . S
N320 C319 1.374 . S
N320 Co321 2.008 1_565 S
Co321 N320 2.008 1_545 S
Co321 N322 1.995 . S
Co321 N327 2.008 . S
Co321 N332 1.995 1_545 S
Co321 N337 2.282 . S
Co321 N343 2.282 1_545 S
N322 Co321 1.995 . S
N322 C323 1.376 . S
N322 C326 1.383 . S
C323 N322 1.376 . S
C323 C324 1.446 . S
C323 C353 1.391 . S
C324 C323 1.446 . S
C324 C325 1.339 . S
C324 H359 0.949 . S
C325 C324 1.339 . S
C325 C326 1.439 . S
C325 H360 0.950 . S
C326 N322 1.383 . S
C326 C325 1.439 . S
C326 C355 1.392 . S
N327 Co321 2.008 . S
N327 C328 1.376 . S
N327 C331 1.374 . S
C328 N327 1.376 . S
C328 C329 1.443 . S
C328 C355 1.389 . S
C329 C328 1.443 . S
C329 C330 1.340 . S
C329 H361 0.951 . S
C330 C329 1.340 . S
C330 C331 1.439 . S
C330 H362 0.950 . S
C331 N327 1.374 . S
C331 C330 1.439 . S
C331 C356 1.395 1_545 S
N332 Co321 1.995 1_565 S
N332 C333 1.376 . S
N332 C336 1.383 . S
C333 N332 1.376 . S
C333 C334 1.446 . S
C333 C356 1.391 . S
C334 C333 1.446 . S
C334 C335 1.339 . S
C334 H363 0.949 . S
C335 C334 1.339 . S
C335 C336 1.439 . S
C335 H364 0.950 . S
C336 N332 1.383 . S
C336 C335 1.439 . S
C336 C354 1.392 . S
N337 Co321 2.282 . S
N337 C340 1.332 . S
N337 C342 1.332 . S
C338 C339 1.386 . S
C338 C341 1.388 . S
C339 C338 1.386 . S
C339 C340 1.382 . S
C339 H365 0.950 . S
C340 N337 1.332 . S
C340 C339 1.382 . S
C340 H351 0.952 . S
C341 C338 1.388 . S
C341 C342 1.382 . S
C341 H366 0.950 . S
C342 N337 1.332 . S
C342 C341 1.382 . S
C342 H352 0.948 . S
N343 Co321 2.282 1_565 S
N343 C347 1.332 . S
N343 C348 1.332 . S
C344 C345 1.388 . S
C344 C348 1.382 . S
C344 H367 0.950 . S
C345 C344 1.388 . S
C345 C346 1.386 . S
C346 C345 1.386 . S
C346 C347 1.382 . S
C346 H368 0.950 . S
C347 N343 1.332 . S
C347 C346 1.382 . S
C347 H349 0.952 . S
C348 N343 1.332 . S
C348 C344 1.382 . S
C348 H350 0.948 . S
H349 C347 0.952 . S
H350 C348 0.948 . S
H351 C340 0.952 . S
H352 C342 0.948 . S
C353 C319 1.395 1_545 S
C353 C323 1.391 . S
C354 C316 1.389 . S
C354 C336 1.392 . S
C355 C326 1.392 . S
C355 C328 1.389 . S
C356 C331 1.395 1_565 S
C356 C333 1.391 . S
H357 C317 0.951 . S
H358 C318 0.950 . S
H359 C324 0.949 . S
H360 C325 0.950 . S
H361 C329 0.951 . S
H362 C330 0.950 . S
H363 C334 0.949 . S
H364 C335 0.950 . S
H365 C339 0.950 . S
H366 C341 0.950 . S
H367 C344 0.950 . S
H368 C346 0.950 . S
C369 C370 1.443 . S
C369 N373 1.376 . S
C369 C407 1.389 . S
C370 C369 1.443 . S
C370 C371 1.340 . S
C370 H410 0.951 . S
C371 C370 1.340 . S
C371 C372 1.439 . S
C371 H411 0.950 . S
C372 C371 1.439 . S
C372 N373 1.374 . S
C372 C406 1.395 1_554 S
N373 C369 1.376 . S
N373 C372 1.374 . S
N373 Co374 2.008 . S
Co374 N373 2.008 . S
Co374 N375 1.995 1_554 S
Co374 N380 2.008 1_554 S
Co374 N385 1.995 . S
Co374 N390 2.282 1_554 S
Co374 N396 2.282 . S
N375 Co374 1.995 1_556 S
N375 C376 1.376 . S
N375 C379 1.383 . S
C376 N375 1.376 . S
C376 C377 1.446 . S
C376 C406 1.391 . S
C377 C376 1.446 . S
C377 C378 1.339 . S
C377 H412 0.949 . S
C378 C377 1.339 . S
C378 C379 1.439 . S
C378 H413 0.950 . S
C379 N375 1.383 . S
C379 C378 1.439 . S
C379 C408 1.392 . S
N380 Co374 2.008 1_556 S
N380 C381 1.376 . S
N380 C384 1.374 . S
C381 N380 1.376 . S
C381 C382 1.443 . S
C381 C408 1.389 . S
C382 C381 1.443 . S
C382 C383 1.340 . S
C382 H414 0.951 . S
C383 C382 1.340 . S
C383 C384 1.439 . S
C383 H415 0.950 . S
C384 N380 1.374 . S
C384 C383 1.439 . S
C384 C409 1.395 1_556 S
N385 Co374 1.995 . S
N385 C386 1.376 . S
N385 C389 1.383 . S
C386 N385 1.376 . S
C386 C387 1.446 . S
C386 C409 1.391 . S
C387 C386 1.446 . S
C387 C388 1.339 . S
C387 H416 0.949 . S
C388 C387 1.339 . S
C388 C389 1.439 . S
C388 H417 0.950 . S
C389 N385 1.383 . S
C389 C388 1.439 . S
C389 C407 1.392 . S
N390 Co374 2.282 1_556 S
N390 C393 1.332 . S
N390 C395 1.332 . S
C391 C392 1.386 . S
C391 C394 1.388 . S
C392 C391 1.386 . S
C392 C393 1.382 . S
C392 H418 0.950 . S
C393 N390 1.332 . S
C393 C392 1.382 . S
C393 H404 0.952 . S
C394 C391 1.388 . S
C394 C395 1.382 . S
C394 H419 0.950 . S
C395 N390 1.332 . S
C395 C394 1.382 . S
C395 H405 0.948 . S
N396 Co374 2.282 . S
N396 C400 1.332 . S
N396 C401 1.332 . S
C397 C398 1.388 . S
C397 C401 1.382 . S
C397 H420 0.950 . S
C398 C397 1.388 . S
C398 C399 1.386 . S
C399 C398 1.386 . S
C399 C400 1.382 . S
C399 H421 0.950 . S
C400 N396 1.332 . S
C400 C399 1.382 . S
C400 H402 0.952 . S
C401 N396 1.332 . S
C401 C397 1.382 . S
C401 H403 0.948 . S
H402 C400 0.952 . S
H403 C401 0.948 . S
H404 C393 0.952 . S
H405 C395 0.948 . S
C406 C372 1.395 1_556 S
C406 C376 1.391 . S
C407 C369 1.389 . S
C407 C389 1.392 . S
C408 C379 1.392 . S
C408 C381 1.389 . S
C409 C384 1.395 1_554 S
C409 C386 1.391 . S
H410 C370 0.951 . S
H411 C371 0.950 . S
H412 C377 0.949 . S
H413 C378 0.950 . S
H414 C382 0.951 . S
H415 C383 0.950 . S
H416 C387 0.949 . S
H417 C388 0.950 . S
H418 C392 0.950 . S
H419 C394 0.950 . S
H420 C397 0.950 . S
H421 C399 0.950 . S
C422 C423 1.387 . S
C422 H426 0.950 . S
C422 C431 1.390 . S
C423 C422 1.387 . S
C423 C425 1.387 . S
H424 C431 0.950 . S
C425 C423 1.387 . S
C425 C427 1.390 . S
C425 H429 0.950 . S
H426 C422 0.950 . S
C427 C425 1.390 . S
C427 C428 1.387 . S
C427 H430 0.950 . S
C428 C427 1.387 . S
C428 C431 1.387 . S
H429 C425 0.950 . S
H430 C427 0.950 . S
C431 C422 1.390 . S
C431 H424 0.950 . S
C431 C428 1.387 . S
C432 C433 1.387 . S
C432 H436 0.950 . S
C432 C441 1.390 . S
C433 C432 1.387 . S
C433 C435 1.387 . S
H434 C441 0.950 . S
C435 C433 1.387 . S
C435 C437 1.390 . S
C435 H439 0.950 . S
H436 C432 0.950 . S
C437 C435 1.390 . S
C437 C438 1.387 . S
C437 H440 0.950 . S
C438 C437 1.387 . S
C438 C441 1.387 . S
H439 C435 0.950 . S
H440 C437 0.950 . S
C441 C432 1.390 . S
C441 H434 0.950 . S
C441 C438 1.387 . S
C442 C443 1.387 . S
C442 H446 0.950 . S
C442 C451 1.390 . S
C443 C442 1.387 . S
C443 C445 1.387 . S
H444 C451 0.950 . S
C445 C443 1.387 . S
C445 C447 1.390 . S
C445 H449 0.950 . S
H446 C442 0.950 . S
C447 C445 1.390 . S
C447 C448 1.387 . S
C447 H450 0.950 . S
C448 C447 1.387 . S
C448 C451 1.387 . S
H449 C445 0.950 . S
H450 C447 0.950 . S
C451 C442 1.390 . S
C451 H444 0.950 . S
C451 C448 1.387 . S
C452 C453 1.387 . S
C452 H456 0.950 . S
C452 C461 1.390 . S
C453 C452 1.387 . S
C453 C455 1.387 . S
H454 C461 0.950 . S
C455 C453 1.387 . S
C455 C457 1.390 . S
C455 H459 0.950 . S
H456 C452 0.950 . S
C457 C455 1.390 . S
C457 C458 1.387 . S
C457 H460 0.950 . S
C458 C457 1.387 . S
C458 C461 1.387 . S
H459 C455 0.950 . S
H460 C457 0.950 . S
C461 C452 1.390 . S
C461 H454 0.950 . S
C461 C458 1.387 . S
C462 C463 1.387 . S
C462 H466 0.950 . S
C462 C471 1.390 . S
C463 C462 1.387 . S
C463 C465 1.387 . S
H464 C471 0.950 . S
C465 C463 1.387 . S
C465 C467 1.390 . S
C465 H469 0.950 . S
H466 C462 0.950 . S
C467 C465 1.390 . S
C467 C468 1.387 . S
C467 H470 0.950 . S
C468 C467 1.387 . S
C468 C471 1.387 . S
H469 C465 0.950 . S
H470 C467 0.950 . S
C471 C462 1.390 . S
C471 H464 0.950 . S
C471 C468 1.387 . S
C472 C473 1.387 . S
C472 H476 0.950 . S
C472 C481 1.390 . S
C473 C472 1.387 . S
C473 C475 1.387 . S
H474 C481 0.950 . S
C475 C473 1.387 . S
C475 C477 1.390 . S
C475 H479 0.950 . S
H476 C472 0.950 . S
C477 C475 1.390 . S
C477 C478 1.387 . S
C477 H480 0.950 . S
C478 C477 1.387 . S
C478 C481 1.387 . S
H479 C475 0.950 . S
H480 C477 0.950 . S
C481 C472 1.390 . S
C481 H474 0.950 . S
C481 C478 1.387 . S
C482 C483 1.387 . S
C482 H486 0.950 . S
C482 C491 1.390 . S
C483 C482 1.387 . S
C483 C485 1.387 . S
H484 C491 0.950 . S
C485 C483 1.387 . S
C485 C487 1.390 . S
C485 H489 0.950 . S
H486 C482 0.950 . S
C487 C485 1.390 . S
C487 C488 1.387 . S
C487 H490 0.950 . S
C488 C487 1.387 . S
C488 C491 1.387 . S
H489 C485 0.950 . S
H490 C487 0.950 . S
C491 C482 1.390 . S
C491 H484 0.950 . S
C491 C488 1.387 . S
C492 C493 1.387 . S
C492 H496 0.950 . S
C492 C501 1.390 . S
C493 C492 1.387 . S
C493 C495 1.387 . S
H494 C501 0.950 . S
C495 C493 1.387 . S
C495 C497 1.390 . S
C495 H499 0.950 . S
H496 C492 0.950 . S
C497 C495 1.390 . S
C497 C498 1.387 . S
C497 H500 0.950 . S
C498 C497 1.387 . S
C498 C501 1.387 . S
H499 C495 0.950 . S
H500 C497 0.950 . S
C501 C492 1.390 . S
C501 H494 0.950 . S
C501 C498 1.387 . S
C502 C503 1.387 . S
C502 H506 0.950 . S
C502 C511 1.390 . S
C503 C502 1.387 . S
C503 C505 1.387 . S
H504 C511 0.950 . S
C505 C503 1.387 . S
C505 C507 1.390 . S
C505 H509 0.950 . S
H506 C502 0.950 . S
C507 C505 1.390 . S
C507 C508 1.387 . S
C507 H510 0.950 . S
C508 C507 1.387 . S
C508 C511 1.387 . S
H509 C505 0.950 . S
H510 C507 0.950 . S
C511 C502 1.390 . S
C511 H504 0.950 . S
C511 C508 1.387 . S
C512 C513 1.387 . S
C512 H516 0.950 . S
C512 C521 1.390 . S
C513 C512 1.387 . S
C513 C515 1.387 . S
H514 C521 0.950 . S
C515 C513 1.387 . S
C515 C517 1.390 . S
C515 H519 0.950 . S
H516 C512 0.950 . S
C517 C515 1.390 . S
C517 C518 1.387 . S
C517 H520 0.950 . S
C518 C517 1.387 . S
C518 C521 1.387 . S
H519 C515 0.950 . S
H520 C517 0.950 . S
C521 C512 1.390 . S
C521 H514 0.950 . S
C521 C518 1.387 . S
C522 C523 1.387 . S
C522 H526 0.950 . S
C522 C531 1.390 . S
C523 C522 1.387 . S
C523 C525 1.387 . S
H524 C531 0.950 . S
C525 C523 1.387 . S
C525 C527 1.390 . S
C525 H529 0.950 . S
H526 C522 0.950 . S
C527 C525 1.390 . S
C527 C528 1.387 . S
C527 H530 0.950 . S
C528 C527 1.387 . S
C528 C531 1.387 . S
H529 C525 0.950 . S
H530 C527 0.950 . S
C531 C522 1.390 . S
C531 H524 0.950 . S
C531 C528 1.387 . S
C532 C533 1.387 . S
C532 H536 0.950 . S
C532 C541 1.390 . S
C533 C532 1.387 . S
C533 C535 1.387 . S
H534 C541 0.950 . S
C535 C533 1.387 . S
C535 C537 1.390 . S
C535 H539 0.950 . S
H536 C532 0.950 . S
C537 C535 1.390 . S
C537 C538 1.387 . S
C537 H540 0.950 . S
C538 C537 1.387 . S
C538 C541 1.387 . S
H539 C535 0.950 . S
H540 C537 0.950 . S
C541 C532 1.390 . S
C541 H534 0.950 . S
C541 C538 1.387 . S
C542 C543 1.387 . S
C542 H546 0.950 . S
C542 C551 1.390 . S
C543 C542 1.387 . S
C543 C545 1.387 . S
H544 C551 0.950 . S
C545 C543 1.387 . S
C545 C547 1.390 . S
C545 H549 0.950 . S
H546 C542 0.950 . S
C547 C545 1.390 . S
C547 C548 1.387 . S
C547 H550 0.950 . S
C548 C547 1.387 . S
C548 C551 1.387 . S
H549 C545 0.950 . S
H550 C547 0.950 . S
C551 C542 1.390 . S
C551 H544 0.950 . S
C551 C548 1.387 . S
C552 C553 1.387 . S
C552 H556 0.950 . S
C552 C561 1.390 . S
C553 C552 1.387 . S
C553 C555 1.387 . S
H554 C561 0.950 . S
C555 C553 1.387 . S
C555 C557 1.390 . S
C555 H559 0.950 . S
H556 C552 0.950 . S
C557 C555 1.390 . S
C557 C558 1.387 . S
C557 H560 0.950 . S
C558 C557 1.387 . S
C558 C561 1.387 . S
H559 C555 0.950 . S
H560 C557 0.950 . S
C561 C552 1.390 . S
C561 H554 0.950 . S
C561 C558 1.387 . S
C562 C563 1.387 . S
C562 H566 0.950 . S
C562 C571 1.390 . S
C563 C562 1.387 . S
C563 C565 1.387 . S
H564 C571 0.950 . S
C565 C563 1.387 . S
C565 C567 1.390 . S
C565 H569 0.950 . S
H566 C562 0.950 . S
C567 C565 1.390 . S
C567 C568 1.387 . S
C567 H570 0.950 . S
C568 C567 1.387 . S
C568 C571 1.387 . S
H569 C565 0.950 . S
H570 C567 0.950 . S
C571 C562 1.390 . S
C571 H564 0.950 . S
C571 C568 1.387 . S
C572 C573 1.387 . S
C572 H576 0.950 . S
C572 C581 1.390 . S
C573 C572 1.387 . S
C573 C575 1.387 . S
H574 C581 0.950 . S
C575 C573 1.387 . S
C575 C577 1.390 . S
C575 H579 0.950 . S
H576 C572 0.950 . S
C577 C575 1.390 . S
C577 C578 1.387 . S
C577 H580 0.950 . S
C578 C577 1.387 . S
C578 C581 1.387 . S
H579 C575 0.950 . S
H580 C577 0.950 . S
C581 C572 1.390 . S
C581 H574 0.950 . S
C581 C578 1.387 . S
C582 C583 1.387 . S
C582 H586 0.950 . S
C582 C591 1.390 . S
C583 C582 1.387 . S
C583 C585 1.387 . S
H584 C591 0.950 . S
C585 C583 1.387 . S
C585 C587 1.390 . S
C585 H589 0.950 . S
H586 C582 0.950 . S
C587 C585 1.390 . S
C587 C588 1.387 . S
C587 H590 0.950 . S
C588 C587 1.387 . S
C588 C591 1.387 . S
H589 C585 0.950 . S
H590 C587 0.950 . S
C591 C582 1.390 . S
C591 H584 0.950 . S
C591 C588 1.387 . S
C592 C593 1.387 . S
C592 H596 0.950 . S
C592 C601 1.390 . S
C593 C592 1.387 . S
C593 C595 1.387 . S
H594 C601 0.950 . S
C595 C593 1.387 . S
C595 C597 1.390 . S
C595 H599 0.950 . S
H596 C592 0.950 . S
C597 C595 1.390 . S
C597 C598 1.387 . S
C597 H600 0.950 . S
C598 C597 1.387 . S
C598 C601 1.387 . S
H599 C595 0.950 . S
H600 C597 0.950 . S
C601 C592 1.390 . S
C601 H594 0.950 . S
C601 C598 1.387 . S
C602 C603 1.387 . S
C602 H606 0.950 . S
C602 C611 1.390 . S
C603 C602 1.387 . S
C603 C605 1.387 . S
H604 C611 0.950 . S
C605 C603 1.387 . S
C605 C607 1.390 . S
C605 H609 0.950 . S
H606 C602 0.950 . S
C607 C605 1.390 . S
C607 C608 1.387 . S
C607 H610 0.950 . S
C608 C607 1.387 . S
C608 C611 1.387 . S
H609 C605 0.950 . S
H610 C607 0.950 . S
C611 C602 1.390 . S
C611 H604 0.950 . S
C611 C608 1.387 . S
C612 C613 1.387 . S
C612 H616 0.950 . S
C612 C621 1.390 . S
C613 C612 1.387 . S
C613 C615 1.387 . S
H614 C621 0.950 . S
C615 C613 1.387 . S
C615 C617 1.390 . S
C615 H619 0.950 . S
H616 C612 0.950 . S
C617 C615 1.390 . S
C617 C618 1.387 . S
C617 H620 0.950 . S
C618 C617 1.387 . S
C618 C621 1.387 . S
H619 C615 0.950 . S
H620 C617 0.950 . S
C621 C612 1.390 . S
C621 H614 0.950 . S
C621 C618 1.387 . S
C622 C623 1.387 . S
C622 H626 0.950 . S
C622 C631 1.390 . S
C623 C622 1.387 . S
C623 C625 1.387 . S
H624 C631 0.950 . S
C625 C623 1.387 . S
C625 C627 1.390 . S
C625 H629 0.950 . S
H626 C622 0.950 . S
C627 C625 1.390 . S
C627 C628 1.387 . S
C627 H630 0.950 . S
C628 C627 1.387 . S
C628 C631 1.387 . S
H629 C625 0.950 . S
H630 C627 0.950 . S
C631 C622 1.390 . S
C631 H624 0.950 . S
C631 C628 1.387 . S
C632 C633 1.387 . S
C632 H636 0.950 . S
C632 C641 1.390 . S
C633 C632 1.387 . S
C633 C635 1.387 . S
H634 C641 0.950 . S
C635 C633 1.387 . S
C635 C637 1.390 . S
C635 H639 0.950 . S
H636 C632 0.950 . S
C637 C635 1.390 . S
C637 C638 1.387 . S
C637 H640 0.950 . S
C638 C637 1.387 . S
C638 C641 1.387 . S
H639 C635 0.950 . S
H640 C637 0.950 . S
C641 C632 1.390 . S
C641 H634 0.950 . S
C641 C638 1.387 . S
C642 C643 1.387 . S
C642 H646 0.950 . S
C642 C651 1.390 . S
C643 C642 1.387 . S
C643 C645 1.387 . S
H644 C651 0.950 . S
C645 C643 1.387 . S
C645 C647 1.390 . S
C645 H649 0.950 . S
H646 C642 0.950 . S
C647 C645 1.390 . S
C647 C648 1.387 . S
C647 H650 0.950 . S
C648 C647 1.387 . S
C648 C651 1.387 . S
H649 C645 0.950 . S
H650 C647 0.950 . S
C651 C642 1.390 . S
C651 H644 0.950 . S
C651 C648 1.387 . S
C652 C653 1.387 . S
C652 H656 0.950 . S
C652 C661 1.390 . S
C653 C652 1.387 . S
C653 C655 1.387 . S
H654 C661 0.950 . S
C655 C653 1.387 . S
C655 C657 1.390 . S
C655 H659 0.950 . S
H656 C652 0.950 . S
C657 C655 1.390 . S
C657 C658 1.387 . S
C657 H660 0.950 . S
C658 C657 1.387 . S
C658 C661 1.387 . S
H659 C655 0.950 . S
H660 C657 0.950 . S
C661 C652 1.390 . S
C661 H654 0.950 . S
C661 C658 1.387 . S
C428 C126 1.806 . S
C423 C8 1.848 . S
C438 C195 1.693 . S
C433 C22 1.689 . S
C448 C133 1.742 . S
C443 C30 1.842 . S
C458 C196 1.393 . S
C453 C47 1.428 . S
C468 C249 1.806 . S
C463 C9 1.833 . S
C478 C285 1.686 . S
C473 C17 1.668 . S
C483 C34 1.641 . S
C488 C345 1.619 . S
C498 C408 1.511 . S
C493 C48 1.494 . S
C508 C248 1.842 . S
C503 C21 1.903 . S
C513 C35 1.774 . S
C518 C292 1.787 . S
C528 C338 1.395 . S
C523 C43 1.326 . S
C538 C407 1.569 . S
C533 C4 1.528 . S
C543 C56 1.565 . S
C548 C186 1.550 . S
C558 C143 1.731 . S
C553 C73 1.776 . S
C563 C87 1.721 . S
C568 C179 1.707 . S
C573 C100 1.946 . S
C578 C142 1.901 . S
C588 C354 1.650 . S
C583 C60 1.688 . S
C598 C398 1.456 . S
C593 C69 1.425 . S
C608 C232 1.855 . S
C603 C86 1.906 . S
C613 C95 1.474 . S
C618 C301 1.537 . S
C628 C355 1.676 . S
C623 C74 1.712 . S
C638 C391 1.441 . S
C633 C82 1.380 . S
C648 C239 1.925 . S
C643 C99 1.959 . S
C653 C61 1.652 . S
C658 C302 1.663 . S
